# Generated by pormake.
# Topology wjg, (4)-cn, num edge types: 1
# Building blocks:
#     Node 0, Type 0, BuildingBlock: KUFVIS_clean_sbu_0, # of connection points: 4
#     Node 1, Type 0, BuildingBlock: KUFVIS_clean_sbu_0, # of connection points: 4
#     Node 2, Type 0, BuildingBlock: KUFVIS_clean_sbu_0, # of connection points: 4
#     Node 3, Type 0, BuildingBlock: KUFVIS_clean_sbu_0, # of connection points: 4
#     Node 4, Type 0, BuildingBlock: KUFVIS_clean_sbu_0, # of connection points: 4
#     Node 5, Type 0, BuildingBlock: KUFVIS_clean_sbu_0, # of connection points: 4
#     Node 6, Type 0, BuildingBlock: KUFVIS_clean_sbu_0, # of connection points: 4
#     Node 7, Type 0, BuildingBlock: KUFVIS_clean_sbu_0, # of connection points: 4
#     Node 8, Type 0, BuildingBlock: KUFVIS_clean_sbu_0, # of connection points: 4
#     Node 9, Type 0, BuildingBlock: KUFVIS_clean_sbu_0, # of connection points: 4
#     Node 10, Type 0, BuildingBlock: KUFVIS_clean_sbu_0, # of connection points: 4
#     Node 11, Type 0, BuildingBlock: KUFVIS_clean_sbu_0, # of connection points: 4
#     Edge 12, Type (0, 0), BuildingBlock: XUDNAN_clean_linker_2, # of connection points: 2
#     Edge 13, Type (0, 0), BuildingBlock: XUDNAN_clean_linker_2, # of connection points: 2
#     Edge 14, Type (0, 0), BuildingBlock: XUDNAN_clean_linker_2, # of connection points: 2
#     Edge 15, Type (0, 0), BuildingBlock: XUDNAN_clean_linker_2, # of connection points: 2
#     Edge 16, Type (0, 0), BuildingBlock: XUDNAN_clean_linker_2, # of connection points: 2
#     Edge 17, Type (0, 0), BuildingBlock: XUDNAN_clean_linker_2, # of connection points: 2
#     Edge 18, Type (0, 0), BuildingBlock: XUDNAN_clean_linker_2, # of connection points: 2
#     Edge 19, Type (0, 0), BuildingBlock: XUDNAN_clean_linker_2, # of connection points: 2
#     Edge 20, Type (0, 0), BuildingBlock: XUDNAN_clean_linker_2, # of connection points: 2
#     Edge 21, Type (0, 0), BuildingBlock: XUDNAN_clean_linker_2, # of connection points: 2
#     Edge 22, Type (0, 0), BuildingBlock: XUDNAN_clean_linker_2, # of connection points: 2
#     Edge 23, Type (0, 0), BuildingBlock: XUDNAN_clean_linker_2, # of connection points: 2
#     Edge 24, Type (0, 0), BuildingBlock: XUDNAN_clean_linker_2, # of connection points: 2
#     Edge 25, Type (0, 0), BuildingBlock: XUDNAN_clean_linker_2, # of connection points: 2
#     Edge 26, Type (0, 0), BuildingBlock: XUDNAN_clean_linker_2, # of connection points: 2
#     Edge 27, Type (0, 0), BuildingBlock: XUDNAN_clean_linker_2, # of connection points: 2
#     Edge 28, Type (0, 0), BuildingBlock: XUDNAN_clean_linker_2, # of connection points: 2
#     Edge 29, Type (0, 0), BuildingBlock: XUDNAN_clean_linker_2, # of connection points: 2
#     Edge 30, Type (0, 0), BuildingBlock: XUDNAN_clean_linker_2, # of connection points: 2
#     Edge 31, Type (0, 0), BuildingBlock: XUDNAN_clean_linker_2, # of connection points: 2
#     Edge 32, Type (0, 0), BuildingBlock: XUDNAN_clean_linker_2, # of connection points: 2
#     Edge 33, Type (0, 0), BuildingBlock: XUDNAN_clean_linker_2, # of connection points: 2
#     Edge 34, Type (0, 0), BuildingBlock: XUDNAN_clean_linker_2, # of connection points: 2
#     Edge 35, Type (0, 0), BuildingBlock: XUDNAN_clean_linker_2, # of connection points: 2
# Relax obj value: 0.318
# Max RMSD: 0.127
# Mean RMSD: 0.118
data_MOF--net-wjg--node1-KUFVIS_clean_sbu_0--edge1-XUDNAN_clean_linker_2
_symmetry_space_group_name_H-M    P1
_symmetry_Int_Tables_number       1
_symmetry_cell_setting            triclinic
loop_
_symmetry_equiv_pos_as_xyz
'x, y, z'
_cell_length_a     31.159632
_cell_length_b     31.112141
_cell_length_c     39.84011
_cell_angle_alpha  89.911841
_cell_angle_beta   90.148333
_cell_angle_gamma 120.16361
loop_
_atom_site_label
_atom_site_type_symbol
_atom_site_fract_x
_atom_site_fract_y
_atom_site_fract_z
_atom_type_partial_charge
Mn0 Mn 0.15626 0.41277 0.31563 0.0
Mn1 Mn 0.27419 0.49501 0.3333 0.0
C2 C 0.21263 0.3836 0.31491 0.0
C3 C 0.09498 0.38804 0.27359 0.0
C4 C 0.19434 0.44408 0.38592 0.0
O5 O 0.16038 0.48069 0.32107 0.0
O6 O 0.24121 0.52717 0.31067 0.0
C7 C 0.31298 0.52336 0.26405 0.0
N8 N 0.31411 0.50435 0.29467 0.0
C9 C 0.3757 0.48502 0.27598 0.0
C10 C 0.37544 0.50452 0.24429 0.0
C11 C 0.34409 0.52403 0.23836 0.0
C12 C 0.34429 0.48582 0.30068 0.0
H13 H 0.28835 0.53766 0.25918 0.0
C14 C 0.19892 0.52272 0.3157 0.0
O15 O 0.08353 0.38076 0.30526 0.0
O16 O 0.14183 0.40999 0.26647 0.0
N17 N 0.31192 0.47018 0.35479 0.0
C18 C 0.31647 0.46432 0.38832 0.0
C19 C 0.34948 0.44899 0.39935 0.0
C20 C 0.37799 0.4408 0.37578 0.0
C21 C 0.37576 0.45164 0.34186 0.0
C22 C 0.34361 0.46846 0.33264 0.0
H23 H 0.29518 0.47126 0.40649 0.0
O24 O 0.16543 0.35316 0.31148 0.0
O25 O 0.22515 0.43038 0.31506 0.0
O26 O 0.16088 0.41053 0.367 0.0
O27 O 0.23313 0.48283 0.37447 0.0
C28 C 0.40477 0.4472 0.31694 0.0
C29 C 0.40553 0.4644 0.28406 0.0
H30 H 0.39918 0.50478 0.22438 0.0
H31 H 0.34363 0.53918 0.21397 0.0
H32 H 0.35245 0.44291 0.4258 0.0
H33 H 0.40252 0.42767 0.3841 0.0
H34 H 0.42608 0.43014 0.32311 0.0
H35 H 0.42918 0.46171 0.26532 0.0
Mn36 Mn 0.73632 0.18851 0.64613 0.0
Mn37 Mn 0.77238 0.30895 0.64371 0.0
C38 C 0.81964 0.24399 0.6369 0.0
C39 C 0.69552 0.11581 0.61416 0.0
C40 C 0.75612 0.2507 0.7084 0.0
O41 O 0.67262 0.19153 0.64997 0.0
O42 O 0.70166 0.26851 0.63054 0.0
C43 C 0.76233 0.31927 0.5706 0.0
N44 N 0.79062 0.33371 0.59899 0.0
C45 C 0.85892 0.40072 0.56975 0.0
C46 C 0.83059 0.38661 0.54018 0.0
C47 C 0.78217 0.34551 0.54057 0.0
C48 C 0.83766 0.37223 0.59866 0.0
H49 H 0.72479 0.28819 0.57092 0.0
C50 C 0.66602 0.22647 0.63982 0.0
O51 O 0.69594 0.1139 0.64682 0.0
O52 O 0.7185 0.15943 0.60063 0.0
N53 N 0.8398 0.35433 0.65526 0.0
C54 C 0.86005 0.36642 0.6866 0.0
C55 C 0.90571 0.40976 0.69138 0.0
C56 C 0.92995 0.44043 0.66393 0.0
C57 C 0.90945 0.42703 0.63176 0.0
C58 C 0.86319 0.38391 0.62863 0.0
H59 H 0.84097 0.34423 0.70808 0.0
O60 O 0.80412 0.19727 0.64177 0.0
O61 O 0.78501 0.25538 0.63351 0.0
O62 O 0.75096 0.21052 0.69554 0.0
O63 O 0.75593 0.28542 0.69095 0.0
C64 C 0.93198 0.45607 0.603 0.0
C65 C 0.90691 0.44263 0.57191 0.0
H66 H 0.84541 0.40739 0.51714 0.0
H67 H 0.75995 0.33456 0.51792 0.0
H68 H 0.92159 0.42016 0.71628 0.0
H69 H 0.9644 0.47444 0.66789 0.0
H70 H 0.96819 0.48923 0.60462 0.0
H71 H 0.92432 0.46554 0.55004 0.0
Mn72 Mn 0.61081 0.73067 1.01247 0.0
Mn73 Mn 0.55864 0.79763 0.03175 0.0
C74 C 0.66308 0.81697 0.01536 0.0
C75 C 0.62126 0.68775 0.96792 0.0
C76 C 0.57729 0.73523 0.08146 0.0
O77 O 0.53514 0.68271 1.01319 0.0
O78 O 0.51552 0.74083 1.00244 0.0
C79 C 0.55928 0.83502 0.96365 0.0
N80 N 0.56976 0.84404 0.99696 0.0
C81 C 0.61188 0.93231 0.98828 0.0
C82 C 0.60166 0.92392 0.9538 0.0
C83 C 0.57514 0.87514 0.94147 0.0
C84 C 0.5958 0.89086 1.00902 0.0
H85 H 0.53997 0.7975 0.95401 0.0
C86 C 0.50309 0.69547 1.00658 0.0
O87 O 0.62176 0.67491 0.99896 0.0
O88 O 0.61414 0.7248 0.96298 0.0
N89 N 0.59617 0.8544 0.0599 0.0
C90 C 0.60225 0.85591 0.0939 0.0
C91 C 0.62516 0.90179 0.11066 0.0
C92 C 0.64028 0.94574 0.09252 0.0
C93 C 0.63168 0.94316 0.05786 0.0
C94 C 0.6081 0.89625 0.04259 0.0
H95 H 0.58877 0.8225 0.10843 0.0
O96 O 0.68185 0.78827 1.01241 0.0
O97 O 0.61512 0.79408 0.01522 0.0
O98 O 0.60844 0.72932 0.06393 0.0
O99 O 0.5499 0.75158 0.06932 0.0
C100 C 0.6466 0.98538 0.03772 0.0
C101 C 0.63862 0.97995 1.00286 0.0
H102 H 0.61484 0.95438 0.93629 0.0
H103 H 0.5676 0.86854 0.91487 0.0
H104 H 0.63064 0.90318 0.13756 0.0
H105 H 0.65839 0.98119 0.10541 0.0
H106 H 0.66577 0.02228 0.04858 0.0
H107 H 0.65417 0.0129 0.98771 0.0
Mn108 Mn 0.82972 0.57468 0.32429 0.0
Mn109 Mn 0.71666 0.49627 0.35211 0.0
C110 C 0.77552 0.60628 0.32927 0.0
C111 C 0.87636 0.58888 0.2748 0.0
C112 C 0.80672 0.54963 0.39709 0.0
O113 O 0.82576 0.50716 0.33038 0.0
O114 O 0.74394 0.46214 0.32536 0.0
C115 C 0.66579 0.46707 0.28621 0.0
N116 N 0.67032 0.48669 0.31746 0.0
C117 C 0.61074 0.51163 0.30454 0.0
C118 C 0.60513 0.49157 0.27227 0.0
C119 C 0.6325 0.46879 0.26316 0.0
C120 C 0.6437 0.50804 0.32658 0.0
H121 H 0.6878 0.45079 0.27876 0.0
C122 C 0.78616 0.46545 0.32757 0.0
O123 O 0.89818 0.60219 0.30394 0.0
O124 O 0.8287 0.56892 0.27474 0.0
N125 N 0.68436 0.52309 0.37793 0.0
C126 C 0.6855 0.52945 0.41185 0.0
C127 C 0.65516 0.54565 0.42649 0.0
C128 C 0.62387 0.55482 0.40602 0.0
C129 C 0.62143 0.545 0.3715 0.0
C130 C 0.65021 0.52606 0.35887 0.0
H131 H 0.70882 0.52161 0.42762 0.0
O132 O 0.8214 0.63516 0.32078 0.0
O133 O 0.76262 0.55959 0.33145 0.0
O134 O 0.83672 0.58192 0.37574 0.0
O135 O 0.76581 0.51026 0.38874 0.0
C136 C 0.59109 0.55256 0.34919 0.0
C137 C 0.58534 0.53554 0.31567 0.0
H138 H 0.57984 0.49332 0.25436 0.0
H139 H 0.62849 0.45324 0.23829 0.0
H140 H 0.6563 0.55156 0.45331 0.0
H141 H 0.6013 0.56851 0.41709 0.0
H142 H 0.57201 0.571 0.35811 0.0
H143 H 0.5608 0.54013 0.2987 0.0
Mn144 Mn 0.27611 0.83864 0.65995 0.0
Mn145 Mn 0.24027 0.71905 0.66298 0.0
C146 C 0.19091 0.78184 0.65756 0.0
C147 C 0.31053 0.90535 0.62185 0.0
C148 C 0.27154 0.78698 0.72446 0.0
O149 O 0.34026 0.83513 0.66022 0.0
O150 O 0.30581 0.75761 0.64145 0.0
C151 C 0.23199 0.69752 0.5901 0.0
N152 N 0.21124 0.68758 0.62127 0.0
C153 C 0.13619 0.61775 0.60049 0.0
C154 C 0.15667 0.62706 0.56818 0.0
C155 C 0.20471 0.66736 0.56293 0.0
C156 C 0.16467 0.64985 0.62643 0.0
H157 H 0.26917 0.72808 0.58599 0.0
C158 C 0.3438 0.79843 0.64983 0.0
O159 O 0.31641 0.91304 0.65412 0.0
O160 O 0.28496 0.85966 0.61227 0.0
N161 N 0.17681 0.67622 0.68218 0.0
C162 C 0.16422 0.66972 0.71529 0.0
C163 C 0.11956 0.6284 0.72533 0.0
C164 C 0.08847 0.59406 0.70128 0.0
C165 C 0.10141 0.60183 0.66722 0.0
C166 C 0.14691 0.64314 0.6588 0.0
H167 H 0.18866 0.69473 0.73417 0.0
O168 O 0.20695 0.82902 0.66014 0.0
O169 O 0.22528 0.77064 0.65312 0.0
O170 O 0.27159 0.82445 0.71075 0.0
O171 O 0.26838 0.75022 0.70751 0.0
C172 C 0.07196 0.56923 0.64148 0.0
C173 C 0.08903 0.57737 0.60811 0.0
H174 H 0.13598 0.60334 0.54729 0.0
H175 H 0.22088 0.6748 0.53809 0.0
H176 H 0.10971 0.6223 0.75164 0.0
H177 H 0.0553 0.56113 0.70952 0.0
H178 H 0.03615 0.5376 0.64697 0.0
H179 H 0.06603 0.55175 0.58867 0.0
Mn180 Mn 0.37567 0.24909 0.99861 0.0
Mn181 Mn 0.39067 0.15311 0.01977 0.0
C182 C 0.30919 0.16976 1.00658 0.0
C183 C 0.36999 0.29778 0.95561 0.0
C184 C 0.39268 0.22425 0.07093 0.0
O185 O 0.44968 0.27767 0.9905 0.0
O186 O 0.4558 0.21305 1.01055 0.0
C187 C 0.37499 0.1239 0.94815 0.0
N188 N 0.39419 0.12325 0.97877 0.0
C189 C 0.4218 0.06827 0.95868 0.0
C190 C 0.40264 0.06864 0.92687 0.0
C191 C 0.37922 0.09666 0.92158 0.0
C192 C 0.41725 0.09682 0.98405 0.0
H193 H 0.35624 0.14473 0.94413 0.0
C194 C 0.47502 0.25777 0.99971 0.0
O195 O 0.3805 0.31413 0.98632 0.0
O196 O 0.36323 0.25385 0.95016 0.0
N197 N 0.42593 0.12384 0.03936 0.0
C198 C 0.44071 0.12603 0.07185 0.0
C199 C 0.46335 0.09875 0.08164 0.0
C200 C 0.47024 0.06933 0.05801 0.0
C201 C 0.45543 0.06832 0.0246 0.0
C202 C 0.43374 0.09687 0.0162 0.0
H203 H 0.43458 0.14779 0.09029 0.0
O204 O 0.30175 0.2072 1.00701 0.0
O205 O 0.35371 0.18001 0.99945 0.0
O206 O 0.39082 0.25501 0.05013 0.0
O207 O 0.38893 0.18298 0.06246 0.0
C208 C 0.46016 0.03914 0.99952 0.0
C209 C 0.4437 0.03937 0.96653 0.0
H210 H 0.40511 0.04705 0.90645 0.0
H211 H 0.36397 0.0968 0.89717 0.0
H212 H 0.47471 0.09974 0.10745 0.0
H213 H 0.48649 0.04732 0.06591 0.0
H214 H 0.4757 0.01582 1.00548 0.0
H215 H 0.44725 0.01648 0.94753 0.0
Mn216 Mn 0.54228 0.81058 0.38847 0.0
Mn217 Mn 0.46433 0.6931 0.36537 0.0
C218 C 0.57218 0.75541 0.38633 0.0
C219 C 0.56436 0.86436 0.4347 0.0
C220 C 0.52081 0.77663 0.31555 0.0
O221 O 0.47515 0.80784 0.38505 0.0
O222 O 0.42745 0.72579 0.37895 0.0
C223 C 0.42944 0.66403 0.43505 0.0
N224 N 0.44733 0.65592 0.40604 0.0
C225 C 0.45121 0.58743 0.43043 0.0
C226 C 0.43277 0.5948 0.46059 0.0
C227 C 0.42231 0.63367 0.463 0.0
C228 C 0.45994 0.62051 0.40403 0.0
H229 H 0.42147 0.69394 0.43698 0.0
C230 C 0.43291 0.76857 0.3836 0.0
O231 O 0.57399 0.88191 0.40422 0.0
O232 O 0.54234 0.81669 0.43775 0.0
N233 N 0.4907 0.65288 0.35097 0.0
C234 C 0.5017 0.64733 0.31874 0.0
C235 C 0.50383 0.60494 0.30986 0.0
C236 C 0.49498 0.56898 0.33425 0.0
C237 C 0.48523 0.57603 0.36746 0.0
C238 C 0.48059 0.6174 0.37429 0.0
H239 H 0.50606 0.67362 0.29947 0.0
O240 O 0.60218 0.80241 0.3909 0.0
O241 O 0.52533 0.74184 0.38677 0.0
O242 O 0.54655 0.81144 0.33682 0.0
O243 O 0.48548 0.73294 0.32351 0.0
C244 C 0.47684 0.54214 0.39358 0.0
C245 C 0.46097 0.54846 0.42534 0.0
H246 H 0.42646 0.57084 0.48199 0.0
H247 H 0.40849 0.64002 0.48626 0.0
H248 H 0.51101 0.59937 0.28413 0.0
H249 H 0.4948 0.53555 0.32705 0.0
H250 H 0.48158 0.51063 0.38949 0.0
H251 H 0.4545 0.52201 0.44516 0.0
Mn252 Mn 0.74796 0.57606 0.70928 0.0
Mn253 Mn 0.78279 0.49738 0.68246 0.0
C254 C 0.83337 0.60776 0.70399 0.0
C255 C 0.71655 0.5911 0.75866 0.0
C256 C 0.74551 0.54933 0.63662 0.0
O257 O 0.68449 0.50836 0.70509 0.0
O258 O 0.72042 0.46221 0.70838 0.0
C259 C 0.80267 0.4667 0.74843 0.0
N260 N 0.81879 0.4877 0.71761 0.0
C261 C 0.90305 0.51221 0.73145 0.0
C262 C 0.88753 0.49081 0.76331 0.0
C263 C 0.837 0.46758 0.77174 0.0
C264 C 0.86707 0.50934 0.70909 0.0
H265 H 0.76403 0.44981 0.75531 0.0
C266 C 0.68202 0.46669 0.70885 0.0
O267 O 0.70721 0.6038 0.72957 0.0
O268 O 0.74474 0.57183 0.75868 0.0
N269 N 0.84278 0.52515 0.65744 0.0
C270 C 0.84935 0.53306 0.62369 0.0
C271 C 0.89675 0.55101 0.60989 0.0
C272 C 0.93665 0.56032 0.63101 0.0
C273 C 0.92786 0.54863 0.66524 0.0
C274 C 0.8795 0.52822 0.67702 0.0
H275 H 0.81869 0.52543 0.60745 0.0
O276 O 0.81639 0.63685 0.71167 0.0
O277 O 0.79975 0.56082 0.70267 0.0
O278 O 0.74703 0.58153 0.65769 0.0
O279 O 0.74805 0.51071 0.64531 0.0
C280 C 0.96507 0.55606 0.6881 0.0
C281 C 0.95285 0.53698 0.72106 0.0
H282 H 0.91405 0.49198 0.78145 0.0
H283 H 0.82465 0.45102 0.79629 0.0
H284 H 0.90262 0.55826 0.58323 0.0
H285 H 0.97359 0.57555 0.62063 0.0
H286 H 0.00287 0.57637 0.68006 0.0
H287 H 0.98179 0.54139 0.73821 0.0
Mn288 Mn 0.15047 0.73871 0.03433 0.0
Mn289 Mn 0.27125 0.82458 0.02418 0.0
C290 C 0.17384 0.82198 0.03208 0.0
C291 C 0.08937 0.69059 0.07432 0.0
C292 C 0.20405 0.76417 0.96641 0.0
O293 O 0.18507 0.69875 0.04125 0.0
O294 O 0.26465 0.76038 0.03856 0.0
C295 C 0.29911 0.83263 0.09598 0.0
N296 N 0.29619 0.8544 0.06705 0.0
C297 C 0.32839 0.93363 0.09444 0.0
C298 C 0.33214 0.91218 0.12447 0.0
C299 C 0.31747 0.86146 0.12523 0.0
C300 C 0.31026 0.90313 0.06605 0.0
H301 H 0.28725 0.79352 0.09677 0.0
C302 C 0.23146 0.71481 0.04281 0.0
O303 O 0.08364 0.67753 0.04283 0.0
O304 O 0.13014 0.73041 0.08208 0.0
N305 N 0.28454 0.88873 1.01029 0.0
C306 C 0.28214 0.90425 0.97875 0.0
C307 C 0.29738 0.95438 0.97329 0.0
C308 C 0.31352 0.98764 1.00047 0.0
C309 C 0.31827 0.97136 0.03231 0.0
C310 C 0.30472 0.92142 0.03587 0.0
H311 H 0.26914 0.8787 0.95787 0.0
O312 O 0.1278 0.78803 0.02816 0.0
O313 O 0.20437 0.80598 0.0387 0.0
O314 O 0.16359 0.73925 0.98318 0.0
O315 O 0.24593 0.79568 0.97935 0.0
C316 C 0.33543 0.00248 0.06069 0.0
C317 C 0.34087 0.98377 0.0917 0.0
H318 H 0.34587 0.9342 0.14715 0.0
H319 H 0.31998 0.84456 0.14836 0.0
H320 H 0.29616 0.96709 0.94822 0.0
H321 H 0.32232 0.02557 0.99662 0.0
H322 H 0.34389 0.04062 0.05904 0.0
H323 H 0.35426 0.00814 0.11332 0.0
Mn324 Mn 0.4425 0.17358 0.37344 0.0
Mn325 Mn 0.52439 0.28979 0.35137 0.0
C326 C 0.41401 0.2294 0.36536 0.0
C327 C 0.4168 0.12411 0.42253 0.0
C328 C 0.4775 0.20367 0.30191 0.0
O329 O 0.50976 0.17664 0.37607 0.0
O330 O 0.5583 0.2592 0.37416 0.0
C331 C 0.55406 0.3314 0.41975 0.0
N332 N 0.53534 0.33198 0.38889 0.0
C333 C 0.53016 0.40405 0.40311 0.0
C334 C 0.54938 0.40445 0.43504 0.0
C335 C 0.5613 0.36783 0.44342 0.0
C336 C 0.52295 0.36636 0.38077 0.0
H337 H 0.56364 0.30354 0.42621 0.0
C338 C 0.55175 0.21593 0.37907 0.0
O339 O 0.40928 0.10339 0.39304 0.0
O340 O 0.43763 0.17174 0.42275 0.0
N341 N 0.49871 0.32611 0.329 0.0
C342 C 0.48746 0.32456 0.29577 0.0
C343 C 0.48161 0.36265 0.28187 0.0
C344 C 0.4877 0.40201 0.3022 0.0
C345 C 0.49805 0.4022 0.33653 0.0
C346 C 0.50498 0.36413 0.34873 0.0
H347 H 0.48497 0.29566 0.27961 0.0
O348 O 0.38293 0.18252 0.36967 0.0
O349 O 0.46028 0.24215 0.36921 0.0
O350 O 0.44506 0.17001 0.32149 0.0
O351 O 0.51191 0.24653 0.31198 0.0
C352 C 0.5042 0.43992 0.35878 0.0
C353 C 0.51914 0.44032 0.39223 0.0
H354 H 0.55572 0.43303 0.45313 0.0
H355 H 0.57645 0.36797 0.46793 0.0
H356 H 0.47381 0.3624 0.25536 0.0
H357 H 0.48573 0.43257 0.29083 0.0
H358 H 0.49853 0.46944 0.35018 0.0
H359 H 0.52396 0.46975 0.40901 0.0
Mn360 Mn 0.2582 0.42994 0.69838 0.0
Mn361 Mn 0.22419 0.50726 0.66665 0.0
C362 C 0.17303 0.39802 0.68991 0.0
C363 C 0.28668 0.41371 0.7489 0.0
C364 C 0.26563 0.45546 0.62517 0.0
O365 O 0.32147 0.49853 0.69556 0.0
O366 O 0.28343 0.54301 0.69548 0.0
C367 C 0.1955 0.53432 0.73055 0.0
N368 N 0.18377 0.51587 0.69876 0.0
C369 C 0.09834 0.49237 0.70652 0.0
C370 C 0.10935 0.51106 0.73934 0.0
C371 C 0.15827 0.53249 0.75133 0.0
C372 C 0.13691 0.49535 0.687 0.0
H373 H 0.23282 0.5497 0.74016 0.0
C374 C 0.3224 0.53973 0.69789 0.0
O375 O 0.29767 0.40199 0.72013 0.0
O376 O 0.25884 0.4335 0.74809 0.0
N377 N 0.16719 0.47927 0.63822 0.0
C378 C 0.16515 0.47227 0.60434 0.0
C379 C 0.12039 0.45658 0.58707 0.0
C380 C 0.07842 0.44929 0.60478 0.0
C381 C 0.08252 0.45988 0.63921 0.0
C382 C 0.12859 0.4775 0.65462 0.0
H383 H 0.19758 0.47969 0.59046 0.0
O384 O 0.1895 0.36897 0.69907 0.0
O385 O 0.20666 0.44484 0.68877 0.0
O386 O 0.26237 0.4237 0.64725 0.0
O387 O 0.26344 0.49469 0.63247 0.0
C388 C 0.04274 0.45395 0.65876 0.0
C389 C 0.05057 0.47073 0.69235 0.0
H390 H 0.08063 0.50949 0.75544 0.0
H391 H 0.16715 0.54708 0.77661 0.0
H392 H 0.11829 0.45014 0.56028 0.0
H393 H 0.04353 0.4363 0.59167 0.0
H394 H 0.0064 0.43662 0.64764 0.0
H395 H 0.01997 0.46772 0.70697 0.0
Mn396 Mn 0.85078 0.26033 0.01436 0.0
Mn397 Mn 0.74201 0.1995 0.9722 0.0
C398 C 0.81753 0.17626 0.9997 0.0
C399 C 0.89089 0.28485 0.06703 0.0
C400 C 0.83982 0.2708 0.93908 0.0
O401 O 0.82291 0.30703 0.02018 0.0
O402 O 0.74967 0.25932 0.99441 0.0
C403 C 0.67416 0.16782 0.03055 0.0
N404 N 0.68886 0.15711 1.00114 0.0
C405 C 0.61201 0.0801 0.99554 0.0
C406 C 0.59609 0.08968 0.02606 0.0
C407 C 0.62766 0.13333 0.04396 0.0
C408 C 0.66016 0.1139 0.98491 0.0
H409 H 0.69747 0.20267 0.04324 0.0
C410 C 0.78021 0.29813 1.01055 0.0
O411 O 0.91324 0.30804 0.03965 0.0
O412 O 0.84612 0.24799 0.06358 0.0
N413 N 0.72672 0.14039 0.94827 0.0
C414 C 0.74871 0.13588 0.92005 0.0
C415 C 0.72242 0.09413 0.89929 0.0
C416 C 0.67283 0.05898 0.90668 0.0
C417 C 0.65063 0.06493 0.93551 0.0
C418 C 0.67973 0.1056 0.95634 0.0
H419 H 0.7856 0.16448 0.91313 0.0
O420 O 0.86415 0.20456 1.00688 0.0
O421 O 0.79108 0.1977 1.00202 0.0
O422 O 0.86829 0.2829 0.96479 0.0
O423 O 0.7932 0.24103 0.9399 0.0
C424 C 0.60051 0.03269 0.94417 0.0
C425 C 0.58168 0.03935 0.97469 0.0
H426 H 0.55972 0.06391 0.03585 0.0
H427 H 0.61547 0.14104 0.06744 0.0
H428 H 0.7397 0.08989 0.877 0.0
H429 H 0.65212 0.0277 0.89001 0.0
H430 H 0.57643 0.00192 0.92799 0.0
H431 H 0.54386 0.01301 0.98173 0.0
H432 H 0.19578 0.55642 0.37649 0.0
H433 H 0.2129 0.59535 0.27158 0.0
H434 H 0.25633 0.68411 0.28631 0.0
H435 H 0.20912 0.68551 0.41101 0.0
H436 H 0.24438 0.68213 0.44582 0.0
H437 H 0.19217 0.62615 0.42947 0.0
H438 H 0.24828 0.58865 0.42173 0.0
H439 H 0.30047 0.64348 0.43743 0.0
H440 H 0.30367 0.62054 0.39645 0.0
H441 H 0.3232 0.76104 0.30873 0.0
H442 H 0.40669 0.80864 0.333 0.0
H443 H 0.35447 0.72483 0.4248 0.0
C444 C 0.20514 0.584 0.35698 0.0
C445 C 0.1996 0.56938 0.32304 0.0
C446 C 0.21511 0.60588 0.29771 0.0
C447 C 0.24016 0.65658 0.30602 0.0
C448 C 0.2501 0.67032 0.33982 0.0
C449 C 0.23212 0.6348 0.36512 0.0
C450 C 0.25867 0.65697 0.39809 0.0
C451 C 0.22402 0.66307 0.42253 0.0
C452 C 0.27914 0.62565 0.41422 0.0
C453 C 0.2996 0.70738 0.38616 0.0
C454 C 0.29174 0.71595 0.35315 0.0
C455 C 0.32889 0.75547 0.33481 0.0
C456 C 0.37644 0.78314 0.349 0.0
C457 C 0.38663 0.77008 0.38075 0.0
C458 C 0.34672 0.73584 0.40079 0.0
H459 H 0.62954 0.21777 0.7009 0.0
H460 H 0.60558 0.24135 0.59768 0.0
H461 H 0.56371 0.28638 0.61552 0.0
H462 H 0.52457 0.24582 0.74139 0.0
H463 H 0.56832 0.2786 0.77461 0.0
H464 H 0.56235 0.22193 0.75795 0.0
H465 H 0.65659 0.26797 0.74641 0.0
H466 H 0.66263 0.32391 0.76261 0.0
H467 H 0.68367 0.32317 0.72054 0.0
H468 H 0.56324 0.3567 0.63907 0.0
H469 H 0.61241 0.44176 0.66056 0.0
H470 H 0.64869 0.38694 0.74927 0.0
C471 C 0.61153 0.2291 0.68251 0.0
C472 C 0.61979 0.2257 0.64817 0.0
C473 C 0.59841 0.24263 0.62416 0.0
C474 C 0.57473 0.26862 0.63429 0.0
C475 C 0.57411 0.27865 0.66847 0.0
C476 C 0.5913 0.25839 0.6925 0.0
C477 C 0.60249 0.28678 0.72536 0.0
C478 C 0.562 0.25648 0.75135 0.0
C479 C 0.65442 0.30138 0.73941 0.0
C480 C 0.59903 0.33145 0.71399 0.0
C481 C 0.57767 0.32365 0.68233 0.0
C482 C 0.5786 0.36261 0.66415 0.0
C483 C 0.60649 0.41113 0.67664 0.0
C484 C 0.63409 0.42021 0.70651 0.0
C485 C 0.62675 0.37991 0.7267 0.0
H486 H 0.45947 0.68813 0.06515 0.0
H487 H 0.42904 0.63415 0.9632 0.0
H488 H 0.34017 0.60645 0.9714 0.0
H489 H 0.32799 0.60493 0.10417 0.0
H490 H 0.33603 0.65845 0.12705 0.0
H491 H 0.38868 0.65061 0.11914 0.0
H492 H 0.43431 0.73844 0.09194 0.0
H493 H 0.3816 0.74545 0.09926 0.0
H494 H 0.40544 0.75162 0.05724 0.0
H495 H 0.26245 0.60612 0.98474 0.0
H496 H 0.21021 0.64296 0.99713 0.0
H497 H 0.29626 0.71102 0.08672 0.0
C498 C 0.43342 0.66756 0.04537 0.0
C499 C 0.45044 0.66161 0.01399 0.0
C500 C 0.41614 0.63714 0.98783 0.0
C501 C 0.36563 0.62152 0.99237 0.0
C502 C 0.35053 0.63175 0.02296 0.0
C503 C 0.3838 0.65445 0.04909 0.0
C504 C 0.36337 0.6745 0.0754 0.0
C505 C 0.3534 0.64537 0.10839 0.0
C506 C 0.39821 0.73077 0.08122 0.0
C507 C 0.31531 0.66362 0.05866 0.0
C508 C 0.30705 0.6362 0.02952 0.0
C509 C 0.26786 0.62638 1.00789 0.0
C510 C 0.23819 0.64727 0.01518 0.0
C511 C 0.24904 0.67899 0.04315 0.0
C512 C 0.28665 0.68562 0.06578 0.0
H513 H 0.621 0.25735 0.42712 0.0
H514 H 0.58714 0.17698 0.33385 0.0
H515 H 0.67404 0.22689 0.31659 0.0
H516 H 0.67021 0.35939 0.40079 0.0
H517 H 0.72158 0.39492 0.42888 0.0
H518 H 0.67046 0.33791 0.4429 0.0
H519 H 0.72838 0.30333 0.45712 0.0
H520 H 0.78057 0.36182 0.44405 0.0
H521 H 0.77078 0.30446 0.42599 0.0
H522 H 0.73993 0.30622 0.29748 0.0
H523 H 0.78039 0.39539 0.28388 0.0
H524 H 0.78213 0.42995 0.38877 0.0
C525 C 0.63349 0.24765 0.40456 0.0
C526 C 0.59788 0.21418 0.38164 0.0
C527 C 0.61405 0.20224 0.35191 0.0
C528 C 0.66362 0.23122 0.34171 0.0
C529 C 0.69655 0.27075 0.36211 0.0
C530 C 0.68281 0.27749 0.39396 0.0
C531 C 0.71971 0.32857 0.40765 0.0
C532 C 0.69389 0.35676 0.42068 0.0
C533 C 0.75179 0.32429 0.43532 0.0
C534 C 0.75041 0.35246 0.37646 0.0
C535 C 0.7382 0.31792 0.35091 0.0
C536 C 0.75198 0.33311 0.31763 0.0
C537 C 0.77526 0.38399 0.30997 0.0
C538 C 0.7856 0.41912 0.33554 0.0
C539 C 0.77642 0.40342 0.36924 0.0
H540 H 0.38418 0.76067 0.60809 0.0
H541 H 0.39953 0.82438 0.70648 0.0
H542 H 0.43286 0.77321 0.72807 0.0
H543 H 0.32825 0.65346 0.62611 0.0
H544 H 0.35489 0.62549 0.60006 0.0
H545 H 0.36112 0.68344 0.58805 0.0
H546 H 0.45656 0.72398 0.58648 0.0
H547 H 0.4506 0.66517 0.59817 0.0
H548 H 0.48951 0.72009 0.62253 0.0
H549 H 0.41961 0.69264 0.74406 0.0
H550 H 0.37205 0.6016 0.74994 0.0
H551 H 0.37053 0.58554 0.64248 0.0
C552 C 0.39875 0.76654 0.63341 0.0
C553 C 0.38919 0.79592 0.65566 0.0
C554 C 0.40722 0.80258 0.68888 0.0
C555 C 0.42581 0.77299 0.70144 0.0
C556 C 0.42739 0.73809 0.68017 0.0
C557 C 0.41653 0.73637 0.6462 0.0
C558 C 0.40955 0.68894 0.6303 0.0
C559 C 0.36054 0.66126 0.61008 0.0
C560 C 0.45424 0.70023 0.60807 0.0
C561 C 0.40892 0.66053 0.66145 0.0
C562 C 0.42187 0.69037 0.68982 0.0
C563 C 0.41209 0.66959 0.72204 0.0
C564 C 0.38525 0.61765 0.72533 0.0
C565 C 0.36936 0.5871 0.6966 0.0
C566 C 0.38472 0.6087 0.66463 0.0
H567 H 0.72419 0.29156 0.06294 0.0
H568 H 0.78834 0.37287 0.97149 0.0
H569 H 0.71967 0.39012 0.96592 0.0
H570 H 0.61714 0.22493 0.03459 0.0
H571 H 0.57949 0.22054 0.07013 0.0
H572 H 0.64194 0.23443 0.0767 0.0
H573 H 0.66333 0.31548 0.10813 0.0
H574 H 0.6 0.30113 0.10259 0.0
H575 H 0.65042 0.36016 0.0887 0.0
H576 H 0.63285 0.37319 0.95951 0.0
H577 H 0.54082 0.32987 0.95612 0.0
H578 H 0.53128 0.25485 0.04979 0.0
C579 C 0.72571 0.31665 0.04349 0.0
C580 C 0.76189 0.33208 0.01818 0.0
C581 C 0.76179 0.36236 0.99177 0.0
C582 C 0.72242 0.37174 0.98822 0.0
C583 C 0.68382 0.35089 1.01152 0.0
C584 C 0.68591 0.32507 0.03936 0.0
C585 C 0.6359 0.29703 0.05654 0.0
C586 C 0.61761 0.24098 0.0596 0.0
C587 C 0.63752 0.31984 0.09103 0.0
C588 C 0.60449 0.30665 0.03215 0.0
C589 C 0.63275 0.33931 1.00706 0.0
C590 C 0.61057 0.3488 0.97961 0.0
C591 C 0.55839 0.32384 0.97767 0.0
C592 C 0.52939 0.28881 1.00251 0.0
C593 C 0.55286 0.28139 0.03039 0.0
H594 H 0.26064 0.3445 0.27798 0.0
H595 H 0.22773 0.369 0.37921 0.0
H596 H 0.28041 0.33728 0.40184 0.0
H597 H 0.25063 0.22429 0.30764 0.0
H598 H 0.29308 0.22581 0.27641 0.0
H599 H 0.25478 0.25264 0.26738 0.0
H600 H 0.36901 0.30775 0.26051 0.0
H601 H 0.38426 0.36344 0.28291 0.0
H602 H 0.33352 0.33819 0.25345 0.0
H603 H 0.35116 0.32168 0.41271 0.0
H604 H 0.40362 0.2828 0.41442 0.0
H605 H 0.37733 0.24966 0.30823 0.0
C606 C 0.266 0.34448 0.30484 0.0
C607 C 0.2444 0.36393 0.32702 0.0
C608 C 0.24726 0.35801 0.36195 0.0
C609 C 0.27675 0.33969 0.37499 0.0
C610 C 0.3018 0.32566 0.35267 0.0
C611 C 0.29413 0.32443 0.31842 0.0
C612 C 0.31738 0.29742 0.30098 0.0
C613 C 0.27654 0.24706 0.2873 0.0
C614 C 0.3531 0.32865 0.27281 0.0
C615 C 0.34463 0.2901 0.33027 0.0
C616 C 0.33538 0.3073 0.35974 0.0
C617 C 0.35772 0.3068 0.39001 0.0
C618 C 0.38803 0.28541 0.39068 0.0
C619 C 0.39507 0.26409 0.36146 0.0
C620 C 0.37336 0.26676 0.33078 0.0
H621 H 0.87633 0.27233 0.69312 0.0
H622 H 0.88304 0.28973 0.58506 0.0
H623 H 0.97456 0.32675 0.5872 0.0
H624 H 0.97921 0.38257 0.71335 0.0
H625 H 0.00826 0.36441 0.7452 0.0
H626 H 0.94183 0.33052 0.73956 0.0
H627 H 0.9332 0.24747 0.72789 0.0
H628 H 0.99792 0.2742 0.73848 0.0
H629 H 0.97475 0.24197 0.69917 0.0
H630 H 0.06132 0.34276 0.60085 0.0
H631 H 0.14531 0.37576 0.62519 0.0
H632 H 0.08561 0.36396 0.72487 0.0
C633 C 0.89745 0.28556 0.67008 0.0
C634 C 0.87318 0.27935 0.63892 0.0
C635 C 0.90138 0.29547 0.60913 0.0
C636 C 0.95307 0.31553 0.61011 0.0
C637 C 0.97568 0.31922 0.64112 0.0
C638 C 0.9491 0.30647 0.67071 0.0
C639 C 0.98284 0.31624 0.7008 0.0
C640 C 0.978 0.35059 0.72625 0.0
C641 C 0.97149 0.26705 0.71756 0.0
C642 C 0.03319 0.34029 0.68359 0.0
C643 C 0.02741 0.33737 0.64908 0.0
C644 C 0.06686 0.34813 0.62768 0.0
C645 C 0.11435 0.36709 0.64163 0.0
C646 C 0.12222 0.37664 0.6764 0.0
C647 C 0.08084 0.36073 0.69789 0.0
H648 H 0.80227 0.10045 0.95606 0.0
H649 H 0.78731 0.1334 0.05959 0.0
H650 H 0.76178 0.0472 0.07566 0.0
H651 H 0.71619 0.95367 0.92806 0.0
H652 H 0.70084 0.99545 0.94909 0.0
H653 H 0.75244 0.01966 0.92123 0.0
H654 H 0.83418 0.03157 0.94012 0.0
H655 H 0.80508 0.96477 0.94232 0.0
H656 H 0.83879 0.00237 0.97794 0.0
H657 H 0.74124 0.95902 0.08103 0.0
H658 H 0.69589 0.86761 0.07359 0.0
H659 H 0.70615 0.88668 0.96569 0.0
C660 C 0.79296 0.0891 0.98195 0.0
C661 C 0.79574 0.12296 1.00661 0.0
C662 C 0.78457 0.10749 0.04039 0.0
C663 C 0.77121 0.05906 0.04985 0.0
C664 C 0.7686 0.0263 0.02512 0.0
C665 C 0.77796 0.04011 0.9917 0.0
C666 C 0.76581 0.99544 0.96981 0.0
C667 C 0.73164 0.99052 0.94038 0.0
C668 C 0.81382 -0.00125 0.95679 0.0
C669 C 0.74119 0.95387 0.99558 0.0
C670 C 0.7483 0.97325 0.02762 0.0
C671 C 0.73398 0.94314 0.05608 0.0
C672 C 0.70797 0.89151 0.0517 0.0
C673 C 0.69494 0.87094 0.01923 0.0
C674 C 0.71369 0.90219 0.99077 0.0
H675 H 0.60695 0.73587 0.32855 0.0
H676 H 0.58931 0.70603 0.43536 0.0
H677 H 0.6459 0.67188 0.43228 0.0
H678 H 0.60335 0.62789 0.30351 0.0
H679 H 0.65222 0.65148 0.27272 0.0
H680 H 0.61765 0.6827 0.28039 0.0
H681 H 0.69232 0.76492 0.29542 0.0
H682 H 0.7313 0.73952 0.28463 0.0
H683 H 0.73743 0.76785 0.32511 0.0
H684 H 0.71763 0.65803 0.41899 0.0
H685 H 0.76763 0.62462 0.39426 0.0
H686 H 0.72618 0.64598 0.29455 0.0
C687 C 0.6138 0.72054 0.351 0.0
C688 C 0.59296 0.72237 0.38215 0.0
C689 C 0.60398 0.7037 0.41124 0.0
C690 C 0.63681 0.68523 0.40979 0.0
C691 C 0.65807 0.68544 0.37898 0.0
C692 C 0.64554 0.70065 0.34982 0.0
C693 C 0.6715 0.69379 0.31969 0.0
C694 C 0.63406 0.66199 0.29244 0.0
C695 C 0.71044 0.74454 0.30538 0.0
C696 C 0.69679 0.66805 0.33624 0.0
C697 C 0.69224 0.66823 0.37073 0.0
C698 C 0.71909 0.65481 0.39203 0.0
C699 C 0.74697 0.63548 0.37784 0.0
C700 C 0.7466 0.62824 0.34284 0.0
C701 C 0.72352 0.64735 0.32158 0.0
H702 H 0.13143 0.75161 0.71303 0.0
H703 H 0.12972 0.73496 0.60505 0.0
H704 H 0.03768 0.69099 0.60541 0.0
H705 H 0.02906 0.63315 0.7312 0.0
H706 H 0.00039 0.65099 0.76325 0.0
H707 H 0.06663 0.68612 0.757 0.0
H708 H 0.06805 0.76734 0.74721 0.0
H709 H 0.00247 0.73618 0.75591 0.0
H710 H 0.0261 0.77035 0.71733 0.0
H711 H 0.9481 0.6664 0.61698 0.0
H712 H 0.86274 0.62849 0.63955 0.0
H713 H 0.92001 0.64553 0.74063 0.0
C714 C 0.11142 0.73742 0.68964 0.0
C715 C 0.13725 0.74593 0.65897 0.0
C716 C 0.11031 0.72797 0.62873 0.0
C717 C 0.05822 0.70364 0.62871 0.0
C718 C 0.03378 0.69723 0.65922 0.0
C719 C 0.05929 0.71185 0.6893 0.0
C720 C 0.02365 0.69861 0.71863 0.0
C721 C 0.03019 0.66516 0.74403 0.0
C722 C 0.03049 0.74594 0.73577 0.0
C723 C 0.97402 0.67167 0.7004 0.0
C724 C 0.98113 0.6748 0.66604 0.0
C725 C 0.9418 0.66093 0.64374 0.0
C726 C 0.89349 0.63904 0.65669 0.0
C727 C 0.88472 0.62972 0.69142 0.0
C728 C 0.92565 0.64843 0.71373 0.0
H729 H 0.24082 0.08931 0.97123 0.0
H730 H 0.29683 0.13998 0.07154 0.0
H731 H 0.25692 0.05331 0.09115 0.0
H732 H 0.1158 0.96955 1.00963 0.0
H733 H 0.1125 0.93575 0.97209 0.0
H734 H 0.13225 0.00103 0.96976 0.0
H735 H 0.20004 0.95042 0.9457 0.0
H736 H 0.25365 0.00862 0.9583 0.0
H737 H 0.20326 0.00874 0.9375 0.0
H738 H 0.22788 0.96403 0.09658 0.0
H739 H 0.20727 0.87696 0.08844 0.0
H740 H 0.16454 0.8817 0.98557 0.0
C741 C 0.24208 0.08196 0.99769 0.0
C742 C 0.27274 0.12076 0.01981 0.0
C743 C 0.27473 0.11043 0.05409 0.0
C744 C 0.25133 0.06134 0.06559 0.0
C745 C 0.2237 0.02336 0.0428 0.0
C746 C 0.21651 0.03305 1.00996 0.0
C747 C 0.18818 0.98507 0.99015 0.0
C748 C 0.13398 0.97209 0.98513 0.0
C749 C 0.21273 0.98805 0.95604 0.0
C750 C 0.19026 0.94883 0.01483 0.0
C751 C 0.20744 0.97107 0.04581 0.0
C752 C 0.21352 0.94588 0.07269 0.0
C753 C 0.20251 0.89684 0.06775 0.0
C754 C 0.18647 0.87394 0.03608 0.0
C755 C 0.17835 0.89943 1.00968 0.0
H756 H 0.99048 0.34447 0.08422 0.0
H757 H 0.84322 0.25666 0.12693 0.0
H758 H 0.87898 0.2762 0.18381 0.0
H759 H 0.05159 0.30659 0.14366 0.0
H760 H 0.10761 0.36633 0.14585 0.0
H761 H 0.07055 0.34816 0.10818 0.0
H762 H 0.06405 0.42783 0.11143 0.0
H763 H 0.10114 0.44626 0.14913 0.0
H764 H 0.04076 0.44083 0.14915 0.0
H765 H 0.9301 0.30335 0.23634 0.0
H766 H 0.99397 0.33439 0.2809 0.0
H767 H 0.10905 0.403 0.20524 0.0
C768 C 0.96581 0.32983 0.10557 0.0
C769 C 0.91392 0.29912 0.10099 0.0
C770 C 0.88303 0.28019 0.12965 0.0
C771 C 0.90298 0.29119 0.16217 0.0
C772 C 0.95413 0.32106 0.1659 0.0
C773 C 0.98527 0.34007 0.13845 0.0
C774 C 0.03916 0.36955 0.14971 0.0
C775 C 0.06897 0.34625 0.13603 0.0
C776 C 0.06265 0.42437 0.13923 0.0
C777 C 0.03329 0.36377 0.18761 0.0
C778 C 0.98385 0.33599 0.19636 0.0
C779 C 0.96897 0.32524 0.2298 0.0
C780 C 0.00555 0.34306 0.25498 0.0
C781 C 0.05658 0.37111 0.24671 0.0
C782 C 0.07039 0.38169 0.21247 0.0
H783 H 0.69502 0.11248 0.54563 0.0
H784 H 0.63926 0.0181 0.63379 0.0
H785 H 0.59769 0.94408 0.59698 0.0
H786 H 0.5867 0.04284 0.49334 0.0
H787 H 0.62221 0.05283 0.45555 0.0
H788 H 0.64649 0.09826 0.48875 0.0
H789 H 0.72612 0.09172 0.49097 0.0
H790 H 0.70216 0.04634 0.45777 0.0
H791 H 0.72079 0.03179 0.49706 0.0
H792 H 0.56356 0.88097 0.55081 0.0
H793 H 0.54013 0.83185 0.4989 0.0
H794 H 0.61863 0.9673 0.44009 0.0
C795 C 0.67394 0.07628 0.55729 0.0
C796 C 0.67029 0.07101 0.59267 0.0
C797 C 0.64254 0.02298 0.60682 0.0
C798 C 0.61877 0.98082 0.5861 0.0
C799 C 0.62321 0.98744 0.55134 0.0
C800 C 0.65015 0.03395 0.53703 0.0
C801 C 0.64997 0.03086 0.499 0.0
C802 C 0.62484 0.05779 0.48324 0.0
C803 C 0.7029 0.05139 0.48541 0.0
C804 C 0.6189 0.97514 0.49405 0.0
C805 C 0.60372 0.95096 0.52462 0.0
C806 C 0.57518 0.89951 0.52677 0.0
C807 C 0.56212 0.87196 0.497 0.0
C808 C 0.57758 0.89567 0.46528 0.0
C809 C 0.60611 0.94809 0.46386 0.0
H810 H 0.63229 0.71461 0.90141 0.0
H811 H 0.63025 0.60461 0.9696 0.0
H812 H 0.64787 0.56488 0.92212 0.0
H813 H 0.57619 0.63149 0.82903 0.0
H814 H 0.61506 0.6784 0.79905 0.0
H815 H 0.5986 0.69618 0.83784 0.0
H816 H 0.69169 0.75455 0.85144 0.0
H817 H 0.70844 0.737 0.81275 0.0
H818 H 0.73298 0.72973 0.85201 0.0
H819 H 0.67073 0.54049 0.86883 0.0
H820 H 0.69893 0.53273 0.81285 0.0
H821 H 0.68635 0.65807 0.77766 0.0
C822 C 0.63491 0.68176 0.90631 0.0
C823 C 0.62969 0.66253 0.93928 0.0
C824 C 0.634 0.61991 0.94464 0.0
C825 C 0.64386 0.59703 0.91779 0.0
C826 C 0.64922 0.61718 0.88571 0.0
C827 C 0.64488 0.65853 0.87977 0.0
C828 C 0.65485 0.67409 0.84311 0.0
C829 C 0.6084 0.66977 0.82626 0.0
C830 C 0.69966 0.72697 0.83964 0.0
C831 C 0.66642 0.63551 0.82946 0.0
C832 C 0.66251 0.60294 0.85458 0.0
C833 C 0.67352 0.56548 0.84893 0.0
C834 C 0.6897 0.56155 0.81699 0.0
C835 C 0.69481 0.59477 0.79083 0.0
C836 C 0.68215 0.63177 0.79701 0.0
H837 H 0.09857 0.70958 0.14171 0.0
H838 H 0.99411 0.61153 0.06667 0.0
H839 H 0.9299 0.57193 0.11081 0.0
H840 H 0.05623 0.61911 0.21049 0.0
H841 H 0.06575 0.66493 0.24173 0.0
H842 H 0.10403 0.68302 0.20471 0.0
H843 H 0.07933 0.74923 0.19133 0.0
H844 H 0.04086 0.73128 0.2282 0.0
H845 H 0.01457 0.73053 0.1877 0.0
H846 H 0.8758 0.5478 0.16228 0.0
H847 H 0.8358 0.5384 0.21709 0.0
H848 H 0.97606 0.65121 0.25947 0.0
C849 C 0.06237 0.67934 0.13451 0.0
C850 C 0.05136 0.66357 0.10061 0.0
C851 C 0.00346 0.62407 0.09239 0.0
C852 C 0.96681 0.60144 0.11732 0.0
C853 C 0.9788 0.6185 0.15037 0.0
C854 C 0.02557 0.65631 0.15903 0.0
C855 C 0.02857 0.66893 0.19612 0.0
C856 C 0.06586 0.65835 0.21433 0.0
C857 C 0.04159 0.72321 0.20111 0.0
C858 C 0.97579 0.6329 0.207 0.0
C859 C 0.94782 0.60412 0.18017 0.0
C860 C 0.8975 0.56979 0.18346 0.0
C861 C 0.87509 0.5649 0.21477 0.0
C862 C 0.90278 0.59397 0.2427 0.0
C863 C 0.95404 0.62806 0.23876 0.0
H864 H 0.36601 0.02162 0.43582 0.0
H865 H 0.44092 0.16655 0.48401 0.0
H866 H 0.42317 0.12688 0.53921 0.0
H867 H 0.26822 0.96266 0.49741 0.0
H868 H 0.26644 0.90386 0.49637 0.0
H869 H 0.28569 0.94319 0.45977 0.0
H870 H 0.36827 0.94211 0.4586 0.0
H871 H 0.34922 0.90278 0.49522 0.0
H872 H 0.40724 0.96082 0.49544 0.0
H873 H 0.39753 0.07294 0.58992 0.0
H874 H 0.36378 0.00625 0.63275 0.0
H875 H 0.30466 0.89579 0.55333 0.0
C876 C 0.37869 0.04485 0.45799 0.0
C877 C 0.40483 0.09732 0.45526 0.0
C878 C 0.42068 0.12632 0.48508 0.0
C879 C 0.41089 0.10419 0.5168 0.0
C880 C 0.38504 0.0527 0.51873 0.0
C881 C 0.36902 0.0232 0.49026 0.0
C882 C 0.34132 0.96858 0.49993 0.0
C883 C 0.28721 0.94308 0.48764 0.0
C884 C 0.36813 0.94201 0.4865 0.0
C885 C 0.34431 0.97242 0.53803 0.0
C886 C 0.36986 0.02132 0.54831 0.0
C887 C 0.3774 0.03437 0.58224 0.0
C888 C 0.35813 0.99631 0.60641 0.0
C889 C 0.33155 0.94585 0.59653 0.0
C890 C 0.32477 0.93402 0.5618 0.0
H891 H 0.35881 0.2753 0.88848 0.0
H892 H 0.36754 0.38468 0.95985 0.0
H893 H 0.35218 0.42877 0.91378 0.0
H894 H 0.41906 0.36224 0.8185 0.0
H895 H 0.37953 0.31784 0.78738 0.0
H896 H 0.39411 0.29668 0.82557 0.0
H897 H 0.30031 0.24047 0.83782 0.0
H898 H 0.28543 0.2615 0.79977 0.0
H899 H 0.26111 0.26766 0.83935 0.0
H900 H 0.32864 0.45643 0.86107 0.0
H901 H 0.30248 0.46855 0.80511 0.0
H902 H 0.31236 0.34336 0.76683 0.0
C903 C 0.35805 0.30886 0.89442 0.0
C904 C 0.36434 0.32655 0.92787 0.0
C905 C 0.36299 0.37052 0.93449 0.0
C906 C 0.35426 0.39578 0.90846 0.0
C907 C 0.34754 0.3769 0.87588 0.0
C908 C 0.34984 0.33472 0.86871 0.0
C909 C 0.34007 0.32147 0.8317 0.0
C910 C 0.38593 0.32477 0.81479 0.0
C911 C 0.29399 0.26971 0.8269 0.0
C912 C 0.33076 0.36218 0.81922 0.0
C913 C 0.33531 0.39372 0.8452 0.0
C914 C 0.32564 0.43238 0.8405 0.0
C915 C 0.31061 0.43883 0.80861 0.0
C916 C 0.30571 0.40712 0.78154 0.0
C917 C 0.3166 0.36867 0.78688 0.0
H918 H 0.24094 0.51314 0.43533 0.0
H919 H 0.14754 0.35465 0.41921 0.0
H920 H 0.16155 0.33928 0.4781 0.0
H921 H 0.33017 0.50853 0.48396 0.0
H922 H 0.34008 0.5578 0.51238 0.0
H923 H 0.31857 0.55701 0.47019 0.0
H924 H 0.24191 0.55926 0.49226 0.0
H925 H 0.26379 0.56214 0.53453 0.0
H926 H 0.20227 0.51396 0.52286 0.0
H927 H 0.19069 0.34188 0.53858 0.0
H928 H 0.2209 0.36263 0.59705 0.0
H929 H 0.29773 0.51947 0.57181 0.0
C930 C 0.22203 0.47531 0.44442 0.0
C931 C 0.19274 0.43524 0.42266 0.0
C932 C 0.16953 0.38609 0.43548 0.0
C933 C 0.17779 0.37696 0.46882 0.0
C934 C 0.2089 0.41741 0.48908 0.0
C935 C 0.22958 0.46565 0.47752 0.0
C936 C 0.26203 0.50273 0.50394 0.0
C937 C 0.31594 0.53333 0.49189 0.0
C938 C 0.24125 0.5365 0.514 0.0
C939 C 0.25718 0.46798 0.53213 0.0
C940 C 0.22638 0.41884 0.52319 0.0
C941 C 0.2149 0.38024 0.54578 0.0
C942 C 0.23297 0.39236 0.57884 0.0
C943 C 0.26201 0.44268 0.58902 0.0
C944 C 0.27621 0.48065 0.56474 0.0
H945 H 0.85949 0.22816 0.88679 0.0
H946 H 0.85248 0.35804 0.91662 0.0
H947 H 0.83512 0.37028 0.85803 0.0
H948 H 0.90755 0.27334 0.79564 0.0
H949 H 0.87003 0.21059 0.78054 0.0
H950 H 0.89734 0.22177 0.82185 0.0
H951 H 0.76142 0.17804 0.83961 0.0
H952 H 0.81017 0.16365 0.84609 0.0
H953 H 0.78157 0.15439 0.80552 0.0
H954 H 0.79672 0.35512 0.80133 0.0
H955 H 0.7587 0.32569 0.74586 0.0
H956 H 0.78895 0.20396 0.75191 0.0
C957 C 0.85786 0.26115 0.88041 0.0
C958 C 0.85846 0.2929 0.90596 0.0
C959 C 0.85396 0.33448 0.89719 0.0
C960 C 0.84317 0.34111 0.86402 0.0
C961 C 0.83785 0.30622 0.83997 0.0
C962 C 0.84698 0.26809 0.84737 0.0
C963 C 0.83323 0.23247 0.81794 0.0
C964 C 0.87981 0.2347 0.80311 0.0
C965 C 0.79427 0.17901 0.82791 0.0
C966 C 0.81166 0.25447 0.7939 0.0
C967 C 0.81523 0.29727 0.80697 0.0
C968 C 0.79495 0.3224 0.79048 0.0
C969 C 0.77252 0.30473 0.75914 0.0
C970 C 0.77039 0.26218 0.74434 0.0
C971 C 0.78956 0.23633 0.76244 0.0
H972 H 0.46525 0.73743 0.25867 0.0
H973 H 0.61683 0.82407 0.29462 0.0
H974 H 0.64746 0.81357 0.23985 0.0
H975 H 0.47981 0.64984 0.21157 0.0
H976 H 0.44039 0.64642 0.17725 0.0
H977 H 0.42982 0.66202 0.21875 0.0
H978 H 0.43749 0.74421 0.19677 0.0
H979 H 0.44584 0.7276 0.15507 0.0
H980 H 0.49132 0.78649 0.17266 0.0
H981 H 0.66106 0.7883 0.18233 0.0
H982 H 0.65785 0.76727 0.12218 0.0
H983 H 0.49771 0.70005 0.12338 0.0
C984 C 0.50493 0.75543 0.25462 0.0
C985 C 0.53871 0.78218 0.28068 0.0
C986 C 0.59036 0.80451 0.27471 0.0
C987 C 0.60805 0.79794 0.2439 0.0
C988 C 0.57362 0.76951 0.21922 0.0
C989 C 0.52323 0.74991 0.22389 0.0
C990 C 0.49407 0.72231 0.19299 0.0
C991 C 0.45896 0.66687 0.20061 0.0
C992 C 0.46553 0.74663 0.17851 0.0
C993 C 0.53597 0.72964 0.17012 0.0
C994 C 0.58149 0.75594 0.18596 0.0
C995 C 0.62564 0.76775 0.16965 0.0
C996 C 0.62343 0.75492 0.13565 0.0
C997 C 0.57752 0.73154 0.11834 0.0
C998 C 0.5332 0.7172 0.13618 0.0
H999 H 0.77197 0.48329 0.4489 0.0
H1000 H 0.85355 0.64125 0.42731 0.0
H1001 H 0.84258 0.65903 0.48619 0.0
H1002 H 0.68115 0.48504 0.49724 0.0
H1003 H 0.67501 0.43862 0.52705 0.0
H1004 H 0.69557 0.43799 0.48496 0.0
H1005 H 0.77587 0.44237 0.50731 0.0
H1006 H 0.75472 0.44079 0.54954 0.0
H1007 H 0.81471 0.49048 0.53667 0.0
H1008 H 0.81571 0.65861 0.54685 0.0
H1009 H 0.7867 0.64041 0.60569 0.0
H1010 H 0.71777 0.48249 0.5852 0.0
C1011 C 0.78905 0.5217 0.45682 0.0
C1012 C 0.81391 0.56088 0.43351 0.0
C1013 C 0.83511 0.61063 0.4448 0.0
C1014 C 0.82838 0.62105 0.47811 0.0
C1015 C 0.80063 0.58131 0.49979 0.0
C1016 C 0.78225 0.53265 0.48972 0.0
C1017 C 0.75188 0.4964 0.51716 0.0
C1018 C 0.69771 0.46254 0.50592 0.0
C1019 C 0.77573 0.46574 0.52834 0.0
C1020 C 0.75567 0.53219 0.54427 0.0
C1021 C 0.7839 0.58102 0.53389 0.0
C1022 C 0.79356 0.62049 0.5552 0.0
C1023 C 0.77621 0.60979 0.58847 0.0
C1024 C 0.74959 0.56003 0.60007 0.0
C1025 C 0.73753 0.52092 0.57708 0.0
H1026 H 0.20164 0.81927 0.91349 0.0
H1027 H 0.21407 0.69055 0.93892 0.0
H1028 H 0.23646 0.68524 0.88011 0.0
H1029 H 0.14853 0.77507 0.82793 0.0
H1030 H 0.18141 0.83689 0.81054 0.0
H1031 H 0.16303 0.82802 0.854 0.0
H1032 H 0.25439 0.88821 0.87115 0.0
H1033 H 0.27322 0.89624 0.82781 0.0
H1034 H 0.30208 0.87533 0.85791 0.0
H1035 H 0.26583 0.69919 0.82077 0.0
H1036 H 0.28585 0.72121 0.76138 0.0
H1037 H 0.25023 0.83879 0.77217 0.0
C1038 C 0.20745 0.78903 0.90624 0.0
C1039 C 0.20503 0.75445 0.93034 0.0
C1040 C 0.21444 0.71638 0.92049 0.0
C1041 C 0.22774 0.71351 0.88729 0.0
C1042 C 0.23115 0.74891 0.86424 0.0
C1043 C 0.22005 0.7852 0.87297 0.0
C1044 C 0.22669 0.81857 0.84315 0.0
C1045 C 0.17695 0.81437 0.83332 0.0
C1046 C 0.26646 0.8728 0.85046 0.0
C1047 C 0.2441 0.79589 0.81649 0.0
C1048 C 0.24688 0.75612 0.82945 0.0
C1049 C 0.26306 0.72977 0.8102 0.0
C1050 C 0.27468 0.74289 0.77642 0.0
C1051 C 0.26939 0.78162 0.76175 0.0
C1052 C 0.255 0.80923 0.78247 0.0
H1053 H 0.39136 0.15996 0.26411 0.0
H1054 H 0.55199 0.2413 0.25644 0.0
H1055 H 0.54584 0.26326 0.19798 0.0
H1056 H 0.36992 0.11175 0.17527 0.0
H1057 H 0.31465 0.1162 0.17127 0.0
H1058 H 0.33225 0.10374 0.21163 0.0
H1059 H 0.36818 0.24024 0.2174 0.0
H1060 H 0.32962 0.17977 0.23577 0.0
H1061 H 0.31435 0.19385 0.19511 0.0
H1062 H 0.52344 0.28722 0.14388 0.0
H1063 H 0.48576 0.28931 0.08976 0.0
H1064 H 0.33986 0.1863 0.12899 0.0
C1065 C 0.42509 0.18026 0.2496 0.0
C1066 C 0.47221 0.19886 0.26491 0.0
C1067 C 0.51553 0.22651 0.24524 0.0
C1068 C 0.51246 0.23982 0.21213 0.0
C1069 C 0.46573 0.22424 0.19862 0.0
C1070 C 0.42272 0.1932 0.21604 0.0
C1071 C 0.37728 0.18097 0.19493 0.0
C1072 C 0.34673 0.12483 0.18785 0.0
C1073 C 0.34549 0.19983 0.21182 0.0
C1074 C 0.40165 0.21032 0.16321 0.0
C1075 C 0.4527 0.23613 0.1664 0.0
C1076 C 0.4835 0.26684 0.14093 0.0
C1077 C 0.46174 0.26866 0.11051 0.0
C1078 C 0.40993 0.23912 0.10558 0.0
C1079 C 0.37941 0.21055 0.13256 0.0
loop_
_geom_bond_atom_site_label_1
_geom_bond_atom_site_label_2
_geom_bond_distance
_geom_bond_site_symmetry_2
_ccdc_geom_bond_type
Mn0 O5 2.095 . S
Mn0 O15 2.162 . S
Mn0 O16 2.297 . S
Mn0 O24 2.385 . S
Mn0 O25 2.209 . S
Mn0 O26 2.094 . S
Mn1 O6 2.121 . S
Mn1 N8 2.257 . S
Mn1 N17 2.282 . S
Mn1 O25 2.215 . S
Mn1 O27 2.117 . S
C2 O24 1.234 . S
C2 O25 1.283 . S
C3 O15 1.281 . S
C3 O16 1.236 . S
C4 O26 1.240 . S
C4 O27 1.264 . S
O5 Mn0 2.095 . S
O5 C14 1.250 . S
O6 Mn1 2.121 . S
O6 C14 1.258 . S
C7 N8 1.326 . S
C7 C11 1.460 . S
C7 H13 0.929 . S
N8 Mn1 2.257 . S
N8 C7 1.326 . S
N8 C12 1.362 . S
C9 C10 1.258 . S
C9 C12 1.431 . S
C9 C29 1.449 . S
C10 C9 1.258 . S
C10 C11 1.477 . S
C10 H30 0.931 . S
C11 C7 1.460 . S
C11 C10 1.477 . S
C11 H31 0.930 . S
C12 N8 1.362 . S
C12 C9 1.431 . S
C12 C22 1.476 . S
H13 C7 0.929 . S
C14 O5 1.250 . S
C14 O6 1.258 . S
O15 Mn0 2.162 . S
O15 C3 1.281 . S
O16 Mn0 2.297 . S
O16 C3 1.236 . S
N17 Mn1 2.282 . S
N17 C18 1.328 . S
N17 C22 1.318 . S
C18 N17 1.328 . S
C18 C19 1.457 . S
C18 H23 0.929 . S
C19 C18 1.457 . S
C19 C20 1.291 . S
C19 H32 0.931 . S
C20 C19 1.291 . S
C20 C21 1.373 . S
C20 H33 0.929 . S
C21 C20 1.373 . S
C21 C22 1.396 . S
C21 C28 1.403 . S
C22 C12 1.476 . S
C22 N17 1.318 . S
C22 C21 1.396 . S
H23 C18 0.929 . S
O24 Mn0 2.385 . S
O24 C2 1.234 . S
O25 Mn0 2.209 . S
O25 Mn1 2.215 . S
O25 C2 1.283 . S
O26 Mn0 2.094 . S
O26 C4 1.240 . S
O27 Mn1 2.117 . S
O27 C4 1.264 . S
C28 C21 1.403 . S
C28 C29 1.399 . S
C28 H34 0.929 . S
C29 C9 1.449 . S
C29 C28 1.399 . S
C29 H35 0.930 . S
H30 C10 0.931 . S
H31 C11 0.930 . S
H32 C19 0.931 . S
H33 C20 0.929 . S
H34 C28 0.929 . S
H35 C29 0.930 . S
Mn36 O41 2.095 . S
Mn36 O51 2.162 . S
Mn36 O52 2.297 . S
Mn36 O60 2.385 . S
Mn36 O61 2.209 . S
Mn36 O62 2.094 . S
Mn37 O42 2.121 . S
Mn37 N44 2.257 . S
Mn37 N53 2.282 . S
Mn37 O61 2.215 . S
Mn37 O63 2.117 . S
C38 O60 1.234 . S
C38 O61 1.283 . S
C39 O51 1.281 . S
C39 O52 1.236 . S
C40 O62 1.240 . S
C40 O63 1.264 . S
O41 Mn36 2.095 . S
O41 C50 1.250 . S
O42 Mn37 2.121 . S
O42 C50 1.258 . S
C43 N44 1.326 . S
C43 C47 1.460 . S
C43 H49 0.929 . S
N44 Mn37 2.257 . S
N44 C43 1.326 . S
N44 C48 1.362 . S
C45 C46 1.258 . S
C45 C48 1.431 . S
C45 C65 1.449 1_655 S
C46 C45 1.258 . S
C46 C47 1.477 . S
C46 H66 0.931 1_655 S
C47 C43 1.460 . S
C47 C46 1.477 . S
C47 H67 0.930 . S
C48 N44 1.362 . S
C48 C45 1.431 . S
C48 C58 1.476 . S
H49 C43 0.929 . S
C50 O41 1.250 . S
C50 O42 1.258 . S
O51 Mn36 2.162 . S
O51 C39 1.281 . S
O52 Mn36 2.297 . S
O52 C39 1.236 . S
N53 Mn37 2.282 . S
N53 C54 1.328 . S
N53 C58 1.318 . S
C54 N53 1.328 . S
C54 C55 1.457 . S
C54 H59 0.929 . S
C55 C54 1.457 . S
C55 C56 1.291 . S
C55 H68 0.931 . S
C56 C55 1.291 . S
C56 C57 1.373 . S
C56 H69 0.929 1_655 S
C57 C56 1.373 . S
C57 C58 1.396 . S
C57 C64 1.403 1_655 S
C58 C48 1.476 . S
C58 N53 1.318 . S
C58 C57 1.396 . S
H59 C54 0.929 . S
O60 Mn36 2.385 . S
O60 C38 1.234 . S
O61 Mn36 2.209 . S
O61 Mn37 2.215 . S
O61 C38 1.283 . S
O62 Mn36 2.094 . S
O62 C40 1.240 . S
O63 Mn37 2.117 . S
O63 C40 1.264 . S
C64 C57 1.403 1_455 S
C64 C65 1.399 . S
C64 H70 0.929 . S
C65 C45 1.449 1_455 S
C65 C64 1.399 . S
C65 H71 0.930 . S
H66 C46 0.931 1_455 S
H67 C47 0.930 . S
H68 C55 0.931 . S
H69 C56 0.929 1_455 S
H70 C64 0.929 . S
H71 C65 0.930 . S
Mn72 O77 2.093 1_556 S
Mn72 O87 2.179 . S
Mn72 O88 2.332 . S
Mn72 O96 2.387 . S
Mn72 O97 2.211 . S
Mn72 O98 2.060 1_556 S
Mn73 O78 2.121 . S
Mn73 N80 2.257 . S
Mn73 N89 2.282 . S
Mn73 O97 2.215 1_554 S
Mn73 O99 2.117 . S
C74 O96 1.234 . S
C74 O97 1.283 . S
C75 O87 1.281 . S
C75 O88 1.236 . S
C76 O98 1.240 . S
C76 O99 1.264 . S
O77 Mn72 2.093 1_554 S
O77 C86 1.249 1_554 S
O78 Mn73 2.121 . S
O78 C86 1.257 1_554 S
C79 N80 1.326 1_556 S
C79 C83 1.460 . S
C79 H85 0.929 . S
N80 Mn73 2.257 . S
N80 C79 1.326 1_554 S
N80 C84 1.362 . S
C81 C82 1.258 . S
C81 C84 1.431 . S
C81 C101 1.449 1_565 S
C82 C81 1.258 . S
C82 C83 1.477 1_554 S
C82 H102 0.931 1_564 S
C83 C79 1.460 . S
C83 C82 1.477 1_556 S
C83 H103 0.930 . S
C84 N80 1.362 . S
C84 C81 1.431 . S
C84 C94 1.476 . S
H85 C79 0.929 . S
C86 O77 1.249 1_556 S
C86 O78 1.257 1_556 S
O87 Mn72 2.179 . S
O87 C75 1.281 . S
O88 Mn72 2.332 . S
O88 C75 1.236 . S
N89 Mn73 2.282 . S
N89 C90 1.328 . S
N89 C94 1.318 . S
C90 N89 1.328 . S
C90 C91 1.457 . S
C90 H95 0.929 . S
C91 C90 1.457 . S
C91 C92 1.291 . S
C91 H104 0.931 . S
C92 C91 1.291 . S
C92 C93 1.373 . S
C92 H105 0.929 1_565 S
C93 C92 1.373 . S
C93 C94 1.396 . S
C93 C100 1.403 1_565 S
C94 C84 1.476 . S
C94 N89 1.318 . S
C94 C93 1.396 . S
H95 C90 0.929 . S
O96 Mn72 2.387 . S
O96 C74 1.234 . S
O97 Mn72 2.211 . S
O97 Mn73 2.215 1_556 S
O97 C74 1.283 . S
O98 Mn72 2.060 1_554 S
O98 C76 1.240 . S
O99 Mn73 2.117 . S
O99 C76 1.264 . S
C100 C93 1.403 1_545 S
C100 C101 1.399 . S
C100 H106 0.929 . S
C101 C81 1.449 1_545 S
C101 C100 1.399 . S
C101 H107 0.930 . S
H102 C82 0.931 1_546 S
H103 C83 0.930 . S
H104 C91 0.931 . S
H105 C92 0.929 1_545 S
H106 C100 0.929 . S
H107 C101 0.930 . S
Mn108 O113 2.095 . S
Mn108 O123 2.162 . S
Mn108 O124 2.297 . S
Mn108 O132 2.385 . S
Mn108 O133 2.209 . S
Mn108 O134 2.094 . S
Mn109 O114 2.121 . S
Mn109 N116 2.257 . S
Mn109 N125 2.282 . S
Mn109 O133 2.215 . S
Mn109 O135 2.117 . S
C110 O132 1.234 . S
C110 O133 1.283 . S
C111 O123 1.281 . S
C111 O124 1.236 . S
C112 O134 1.240 . S
C112 O135 1.264 . S
O113 Mn108 2.095 . S
O113 C122 1.250 . S
O114 Mn109 2.121 . S
O114 C122 1.258 . S
C115 N116 1.326 . S
C115 C119 1.460 . S
C115 H121 0.929 . S
N116 Mn109 2.257 . S
N116 C115 1.326 . S
N116 C120 1.362 . S
C117 C118 1.258 . S
C117 C120 1.431 . S
C117 C137 1.449 . S
C118 C117 1.258 . S
C118 C119 1.477 . S
C118 H138 0.931 . S
C119 C115 1.460 . S
C119 C118 1.477 . S
C119 H139 0.930 . S
C120 N116 1.362 . S
C120 C117 1.431 . S
C120 C130 1.476 . S
H121 C115 0.929 . S
C122 O113 1.250 . S
C122 O114 1.258 . S
O123 Mn108 2.162 . S
O123 C111 1.281 . S
O124 Mn108 2.297 . S
O124 C111 1.236 . S
N125 Mn109 2.282 . S
N125 C126 1.328 . S
N125 C130 1.318 . S
C126 N125 1.328 . S
C126 C127 1.457 . S
C126 H131 0.929 . S
C127 C126 1.457 . S
C127 C128 1.291 . S
C127 H140 0.931 . S
C128 C127 1.291 . S
C128 C129 1.373 . S
C128 H141 0.929 . S
C129 C128 1.373 . S
C129 C130 1.396 . S
C129 C136 1.403 . S
C130 C120 1.476 . S
C130 N125 1.318 . S
C130 C129 1.396 . S
H131 C126 0.929 . S
O132 Mn108 2.385 . S
O132 C110 1.234 . S
O133 Mn108 2.209 . S
O133 Mn109 2.215 . S
O133 C110 1.283 . S
O134 Mn108 2.094 . S
O134 C112 1.240 . S
O135 Mn109 2.117 . S
O135 C112 1.264 . S
C136 C129 1.403 . S
C136 C137 1.399 . S
C136 H142 0.929 . S
C137 C117 1.449 . S
C137 C136 1.399 . S
C137 H143 0.930 . S
H138 C118 0.931 . S
H139 C119 0.930 . S
H140 C127 0.931 . S
H141 C128 0.929 . S
H142 C136 0.929 . S
H143 C137 0.930 . S
Mn144 O149 2.095 . S
Mn144 O159 2.162 . S
Mn144 O160 2.297 . S
Mn144 O168 2.385 . S
Mn144 O169 2.209 . S
Mn144 O170 2.094 . S
Mn145 O150 2.121 . S
Mn145 N152 2.257 . S
Mn145 N161 2.282 . S
Mn145 O169 2.215 . S
Mn145 O171 2.117 . S
C146 O168 1.234 . S
C146 O169 1.283 . S
C147 O159 1.281 . S
C147 O160 1.236 . S
C148 O170 1.240 . S
C148 O171 1.264 . S
O149 Mn144 2.095 . S
O149 C158 1.250 . S
O150 Mn145 2.121 . S
O150 C158 1.258 . S
C151 N152 1.326 . S
C151 C155 1.460 . S
C151 H157 0.929 . S
N152 Mn145 2.257 . S
N152 C151 1.326 . S
N152 C156 1.362 . S
C153 C154 1.258 . S
C153 C156 1.431 . S
C153 C173 1.449 1_455 S
C154 C153 1.258 . S
C154 C155 1.477 . S
C154 H174 0.931 1_455 S
C155 C151 1.460 . S
C155 C154 1.477 . S
C155 H175 0.930 . S
C156 N152 1.362 . S
C156 C153 1.431 . S
C156 C166 1.476 . S
H157 C151 0.929 . S
C158 O149 1.250 . S
C158 O150 1.258 . S
O159 Mn144 2.162 . S
O159 C147 1.281 . S
O160 Mn144 2.297 . S
O160 C147 1.236 . S
N161 Mn145 2.282 . S
N161 C162 1.328 . S
N161 C166 1.318 . S
C162 N161 1.328 . S
C162 C163 1.457 . S
C162 H167 0.929 . S
C163 C162 1.457 . S
C163 C164 1.291 . S
C163 H176 0.931 . S
C164 C163 1.291 . S
C164 C165 1.373 . S
C164 H177 0.929 1_455 S
C165 C164 1.373 . S
C165 C166 1.396 . S
C165 C172 1.403 1_455 S
C166 C156 1.476 . S
C166 N161 1.318 . S
C166 C165 1.396 . S
H167 C162 0.929 . S
O168 Mn144 2.385 . S
O168 C146 1.234 . S
O169 Mn144 2.209 . S
O169 Mn145 2.215 . S
O169 C146 1.283 . S
O170 Mn144 2.094 . S
O170 C148 1.240 . S
O171 Mn145 2.117 . S
O171 C148 1.264 . S
C172 C165 1.403 1_655 S
C172 C173 1.399 . S
C172 H178 0.929 . S
C173 C153 1.449 1_655 S
C173 C172 1.399 . S
C173 H179 0.930 . S
H174 C154 0.931 1_655 S
H175 C155 0.930 . S
H176 C163 0.931 . S
H177 C164 0.929 1_655 S
H178 C172 0.929 . S
H179 C173 0.930 . S
Mn180 O185 2.093 1_556 S
Mn180 O195 2.179 . S
Mn180 O196 2.332 . S
Mn180 O204 2.387 . S
Mn180 O205 2.211 . S
Mn180 O206 2.060 1_556 S
Mn181 O186 2.121 . S
Mn181 N188 2.257 . S
Mn181 N197 2.282 . S
Mn181 O205 2.215 1_554 S
Mn181 O207 2.117 . S
C182 O204 1.234 . S
C182 O205 1.283 . S
C183 O195 1.281 . S
C183 O196 1.236 . S
C184 O206 1.240 . S
C184 O207 1.264 . S
O185 Mn180 2.093 1_554 S
O185 C194 1.249 1_554 S
O186 Mn181 2.121 . S
O186 C194 1.257 1_554 S
C187 N188 1.326 1_556 S
C187 C191 1.460 . S
C187 H193 0.929 . S
N188 Mn181 2.257 . S
N188 C187 1.326 1_554 S
N188 C192 1.362 . S
C189 C190 1.258 . S
C189 C192 1.431 . S
C189 C209 1.449 1_545 S
C190 C189 1.258 . S
C190 C191 1.477 1_554 S
C190 H210 0.931 1_544 S
C191 C187 1.460 . S
C191 C190 1.477 1_556 S
C191 H211 0.930 . S
C192 N188 1.362 . S
C192 C189 1.431 . S
C192 C202 1.476 . S
H193 C187 0.929 . S
C194 O185 1.249 1_556 S
C194 O186 1.257 1_556 S
O195 Mn180 2.179 . S
O195 C183 1.281 . S
O196 Mn180 2.332 . S
O196 C183 1.236 . S
N197 Mn181 2.282 . S
N197 C198 1.328 . S
N197 C202 1.318 . S
C198 N197 1.328 . S
C198 C199 1.457 . S
C198 H203 0.929 . S
C199 C198 1.457 . S
C199 C200 1.291 . S
C199 H212 0.931 . S
C200 C199 1.291 . S
C200 C201 1.373 . S
C200 H213 0.929 1_545 S
C201 C200 1.373 . S
C201 C202 1.396 . S
C201 C208 1.403 1_545 S
C202 C192 1.476 . S
C202 N197 1.318 . S
C202 C201 1.396 . S
H203 C198 0.929 . S
O204 Mn180 2.387 . S
O204 C182 1.234 . S
O205 Mn180 2.211 . S
O205 Mn181 2.215 1_556 S
O205 C182 1.283 . S
O206 Mn180 2.060 1_554 S
O206 C184 1.240 . S
O207 Mn181 2.117 . S
O207 C184 1.264 . S
C208 C201 1.403 1_565 S
C208 C209 1.399 . S
C208 H214 0.929 . S
C209 C189 1.449 1_565 S
C209 C208 1.399 . S
C209 H215 0.930 . S
H210 C190 0.931 1_566 S
H211 C191 0.930 . S
H212 C199 0.931 . S
H213 C200 0.929 1_565 S
H214 C208 0.929 . S
H215 C209 0.930 . S
Mn216 O221 2.095 . S
Mn216 O231 2.162 . S
Mn216 O232 2.297 . S
Mn216 O240 2.385 . S
Mn216 O241 2.209 . S
Mn216 O242 2.094 . S
Mn217 O222 2.121 . S
Mn217 N224 2.257 . S
Mn217 N233 2.282 . S
Mn217 O241 2.215 . S
Mn217 O243 2.117 . S
C218 O240 1.234 . S
C218 O241 1.283 . S
C219 O231 1.281 . S
C219 O232 1.236 . S
C220 O242 1.240 . S
C220 O243 1.264 . S
O221 Mn216 2.095 . S
O221 C230 1.250 . S
O222 Mn217 2.121 . S
O222 C230 1.258 . S
C223 N224 1.326 . S
C223 C227 1.460 . S
C223 H229 0.929 . S
N224 Mn217 2.257 . S
N224 C223 1.326 . S
N224 C228 1.362 . S
C225 C226 1.258 . S
C225 C228 1.431 . S
C225 C245 1.449 . S
C226 C225 1.258 . S
C226 C227 1.477 . S
C226 H246 0.931 . S
C227 C223 1.460 . S
C227 C226 1.477 . S
C227 H247 0.930 . S
C228 N224 1.362 . S
C228 C225 1.431 . S
C228 C238 1.476 . S
H229 C223 0.929 . S
C230 O221 1.250 . S
C230 O222 1.258 . S
O231 Mn216 2.162 . S
O231 C219 1.281 . S
O232 Mn216 2.297 . S
O232 C219 1.236 . S
N233 Mn217 2.282 . S
N233 C234 1.328 . S
N233 C238 1.318 . S
C234 N233 1.328 . S
C234 C235 1.457 . S
C234 H239 0.929 . S
C235 C234 1.457 . S
C235 C236 1.291 . S
C235 H248 0.931 . S
C236 C235 1.291 . S
C236 C237 1.373 . S
C236 H249 0.929 . S
C237 C236 1.373 . S
C237 C238 1.396 . S
C237 C244 1.403 . S
C238 C228 1.476 . S
C238 N233 1.318 . S
C238 C237 1.396 . S
H239 C234 0.929 . S
O240 Mn216 2.385 . S
O240 C218 1.234 . S
O241 Mn216 2.209 . S
O241 Mn217 2.215 . S
O241 C218 1.283 . S
O242 Mn216 2.094 . S
O242 C220 1.240 . S
O243 Mn217 2.117 . S
O243 C220 1.264 . S
C244 C237 1.403 . S
C244 C245 1.399 . S
C244 H250 0.929 . S
C245 C225 1.449 . S
C245 C244 1.399 . S
C245 H251 0.930 . S
H246 C226 0.931 . S
H247 C227 0.930 . S
H248 C235 0.931 . S
H249 C236 0.929 . S
H250 C244 0.929 . S
H251 C245 0.930 . S
Mn252 O257 2.095 . S
Mn252 O267 2.162 . S
Mn252 O268 2.297 . S
Mn252 O276 2.385 . S
Mn252 O277 2.209 . S
Mn252 O278 2.094 . S
Mn253 O258 2.121 . S
Mn253 N260 2.257 . S
Mn253 N269 2.282 . S
Mn253 O277 2.215 . S
Mn253 O279 2.117 . S
C254 O276 1.234 . S
C254 O277 1.283 . S
C255 O267 1.281 . S
C255 O268 1.236 . S
C256 O278 1.240 . S
C256 O279 1.264 . S
O257 Mn252 2.095 . S
O257 C266 1.250 . S
O258 Mn253 2.121 . S
O258 C266 1.258 . S
C259 N260 1.326 . S
C259 C263 1.460 . S
C259 H265 0.929 . S
N260 Mn253 2.257 . S
N260 C259 1.326 . S
N260 C264 1.362 . S
C261 C262 1.258 . S
C261 C264 1.431 . S
C261 C281 1.449 1_655 S
C262 C261 1.258 . S
C262 C263 1.477 . S
C262 H282 0.931 1_655 S
C263 C259 1.460 . S
C263 C262 1.477 . S
C263 H283 0.930 . S
C264 N260 1.362 . S
C264 C261 1.431 . S
C264 C274 1.476 . S
H265 C259 0.929 . S
C266 O257 1.250 . S
C266 O258 1.258 . S
O267 Mn252 2.162 . S
O267 C255 1.281 . S
O268 Mn252 2.297 . S
O268 C255 1.236 . S
N269 Mn253 2.282 . S
N269 C270 1.328 . S
N269 C274 1.318 . S
C270 N269 1.328 . S
C270 C271 1.457 . S
C270 H275 0.929 . S
C271 C270 1.457 . S
C271 C272 1.291 . S
C271 H284 0.931 . S
C272 C271 1.291 . S
C272 C273 1.373 . S
C272 H285 0.929 1_655 S
C273 C272 1.373 . S
C273 C274 1.396 . S
C273 C280 1.403 1_655 S
C274 C264 1.476 . S
C274 N269 1.318 . S
C274 C273 1.396 . S
H275 C270 0.929 . S
O276 Mn252 2.385 . S
O276 C254 1.234 . S
O277 Mn252 2.209 . S
O277 Mn253 2.215 . S
O277 C254 1.283 . S
O278 Mn252 2.094 . S
O278 C256 1.240 . S
O279 Mn253 2.117 . S
O279 C256 1.264 . S
C280 C273 1.403 1_455 S
C280 C281 1.399 . S
C280 H286 0.929 . S
C281 C261 1.449 1_455 S
C281 C280 1.399 . S
C281 H287 0.930 . S
H282 C262 0.931 1_455 S
H283 C263 0.930 . S
H284 C271 0.931 . S
H285 C272 0.929 1_455 S
H286 C280 0.929 . S
H287 C281 0.930 . S
Mn288 O293 2.093 1_554 S
Mn288 O303 2.179 . S
Mn288 O304 2.332 . S
Mn288 O312 2.387 . S
Mn288 O313 2.211 . S
Mn288 O314 2.060 1_554 S
Mn289 O294 2.121 . S
Mn289 N296 2.257 . S
Mn289 N305 2.282 . S
Mn289 O313 2.215 1_556 S
Mn289 O315 2.117 . S
C290 O312 1.234 . S
C290 O313 1.283 . S
C291 O303 1.281 . S
C291 O304 1.236 . S
C292 O314 1.240 . S
C292 O315 1.264 . S
O293 Mn288 2.093 1_556 S
O293 C302 1.249 1_556 S
O294 Mn289 2.121 . S
O294 C302 1.257 1_556 S
C295 N296 1.326 1_554 S
C295 C299 1.460 . S
C295 H301 0.929 . S
N296 Mn289 2.257 . S
N296 C295 1.326 1_556 S
N296 C300 1.362 . S
C297 C298 1.258 . S
C297 C300 1.431 . S
C297 C317 1.449 1_565 S
C298 C297 1.258 . S
C298 C299 1.477 1_556 S
C298 H318 0.931 1_566 S
C299 C295 1.460 . S
C299 C298 1.477 1_554 S
C299 H319 0.930 . S
C300 N296 1.362 . S
C300 C297 1.431 . S
C300 C310 1.476 . S
H301 C295 0.929 . S
C302 O293 1.249 1_554 S
C302 O294 1.257 1_554 S
O303 Mn288 2.179 . S
O303 C291 1.281 . S
O304 Mn288 2.332 . S
O304 C291 1.236 . S
N305 Mn289 2.282 . S
N305 C306 1.328 . S
N305 C310 1.318 . S
C306 N305 1.328 . S
C306 C307 1.457 . S
C306 H311 0.929 . S
C307 C306 1.457 . S
C307 C308 1.291 . S
C307 H320 0.931 . S
C308 C307 1.291 . S
C308 C309 1.373 . S
C308 H321 0.929 1_565 S
C309 C308 1.373 . S
C309 C310 1.396 . S
C309 C316 1.403 1_565 S
C310 C300 1.476 . S
C310 N305 1.318 . S
C310 C309 1.396 . S
H311 C306 0.929 . S
O312 Mn288 2.387 . S
O312 C290 1.234 . S
O313 Mn288 2.211 . S
O313 Mn289 2.215 1_554 S
O313 C290 1.283 . S
O314 Mn288 2.060 1_556 S
O314 C292 1.240 . S
O315 Mn289 2.117 . S
O315 C292 1.264 . S
C316 C309 1.403 1_545 S
C316 C317 1.399 . S
C316 H322 0.929 . S
C317 C297 1.449 1_545 S
C317 C316 1.399 . S
C317 H323 0.930 . S
H318 C298 0.931 1_544 S
H319 C299 0.930 . S
H320 C307 0.931 . S
H321 C308 0.929 1_545 S
H322 C316 0.929 . S
H323 C317 0.930 . S
Mn324 O329 2.095 . S
Mn324 O339 2.162 . S
Mn324 O340 2.297 . S
Mn324 O348 2.385 . S
Mn324 O349 2.209 . S
Mn324 O350 2.094 . S
Mn325 O330 2.121 . S
Mn325 N332 2.257 . S
Mn325 N341 2.282 . S
Mn325 O349 2.215 . S
Mn325 O351 2.117 . S
C326 O348 1.234 . S
C326 O349 1.283 . S
C327 O339 1.281 . S
C327 O340 1.236 . S
C328 O350 1.240 . S
C328 O351 1.264 . S
O329 Mn324 2.095 . S
O329 C338 1.250 . S
O330 Mn325 2.121 . S
O330 C338 1.258 . S
C331 N332 1.326 . S
C331 C335 1.460 . S
C331 H337 0.929 . S
N332 Mn325 2.257 . S
N332 C331 1.326 . S
N332 C336 1.362 . S
C333 C334 1.258 . S
C333 C336 1.431 . S
C333 C353 1.449 . S
C334 C333 1.258 . S
C334 C335 1.477 . S
C334 H354 0.931 . S
C335 C331 1.460 . S
C335 C334 1.477 . S
C335 H355 0.930 . S
C336 N332 1.362 . S
C336 C333 1.431 . S
C336 C346 1.476 . S
H337 C331 0.929 . S
C338 O329 1.250 . S
C338 O330 1.258 . S
O339 Mn324 2.162 . S
O339 C327 1.281 . S
O340 Mn324 2.297 . S
O340 C327 1.236 . S
N341 Mn325 2.282 . S
N341 C342 1.328 . S
N341 C346 1.318 . S
C342 N341 1.328 . S
C342 C343 1.457 . S
C342 H347 0.929 . S
C343 C342 1.457 . S
C343 C344 1.291 . S
C343 H356 0.931 . S
C344 C343 1.291 . S
C344 C345 1.373 . S
C344 H357 0.929 . S
C345 C344 1.373 . S
C345 C346 1.396 . S
C345 C352 1.403 . S
C346 C336 1.476 . S
C346 N341 1.318 . S
C346 C345 1.396 . S
H347 C342 0.929 . S
O348 Mn324 2.385 . S
O348 C326 1.234 . S
O349 Mn324 2.209 . S
O349 Mn325 2.215 . S
O349 C326 1.283 . S
O350 Mn324 2.094 . S
O350 C328 1.240 . S
O351 Mn325 2.117 . S
O351 C328 1.264 . S
C352 C345 1.403 . S
C352 C353 1.399 . S
C352 H358 0.929 . S
C353 C333 1.449 . S
C353 C352 1.399 . S
C353 H359 0.930 . S
H354 C334 0.931 . S
H355 C335 0.930 . S
H356 C343 0.931 . S
H357 C344 0.929 . S
H358 C352 0.929 . S
H359 C353 0.930 . S
Mn360 O365 2.095 . S
Mn360 O375 2.162 . S
Mn360 O376 2.297 . S
Mn360 O384 2.385 . S
Mn360 O385 2.209 . S
Mn360 O386 2.094 . S
Mn361 O366 2.121 . S
Mn361 N368 2.257 . S
Mn361 N377 2.282 . S
Mn361 O385 2.215 . S
Mn361 O387 2.117 . S
C362 O384 1.234 . S
C362 O385 1.283 . S
C363 O375 1.281 . S
C363 O376 1.236 . S
C364 O386 1.240 . S
C364 O387 1.264 . S
O365 Mn360 2.095 . S
O365 C374 1.250 . S
O366 Mn361 2.121 . S
O366 C374 1.258 . S
C367 N368 1.326 . S
C367 C371 1.460 . S
C367 H373 0.929 . S
N368 Mn361 2.257 . S
N368 C367 1.326 . S
N368 C372 1.362 . S
C369 C370 1.258 . S
C369 C372 1.431 . S
C369 C389 1.449 1_455 S
C370 C369 1.258 . S
C370 C371 1.477 . S
C370 H390 0.931 1_455 S
C371 C367 1.460 . S
C371 C370 1.477 . S
C371 H391 0.930 . S
C372 N368 1.362 . S
C372 C369 1.431 . S
C372 C382 1.476 . S
H373 C367 0.929 . S
C374 O365 1.250 . S
C374 O366 1.258 . S
O375 Mn360 2.162 . S
O375 C363 1.281 . S
O376 Mn360 2.297 . S
O376 C363 1.236 . S
N377 Mn361 2.282 . S
N377 C378 1.328 . S
N377 C382 1.318 . S
C378 N377 1.328 . S
C378 C379 1.457 . S
C378 H383 0.929 . S
C379 C378 1.457 . S
C379 C380 1.291 . S
C379 H392 0.931 . S
C380 C379 1.291 . S
C380 C381 1.373 . S
C380 H393 0.929 1_455 S
C381 C380 1.373 . S
C381 C382 1.396 . S
C381 C388 1.403 1_455 S
C382 C372 1.476 . S
C382 N377 1.318 . S
C382 C381 1.396 . S
H383 C378 0.929 . S
O384 Mn360 2.385 . S
O384 C362 1.234 . S
O385 Mn360 2.209 . S
O385 Mn361 2.215 . S
O385 C362 1.283 . S
O386 Mn360 2.094 . S
O386 C364 1.240 . S
O387 Mn361 2.117 . S
O387 C364 1.264 . S
C388 C381 1.403 1_655 S
C388 C389 1.399 . S
C388 H394 0.929 . S
C389 C369 1.449 1_655 S
C389 C388 1.399 . S
C389 H395 0.930 . S
H390 C370 0.931 1_655 S
H391 C371 0.930 . S
H392 C379 0.931 . S
H393 C380 0.929 1_655 S
H394 C388 0.929 . S
H395 C389 0.930 . S
Mn396 O401 2.093 1_554 S
Mn396 O411 2.179 . S
Mn396 O412 2.332 . S
Mn396 O420 2.387 . S
Mn396 O421 2.211 . S
Mn396 O422 2.060 1_554 S
Mn397 O402 2.121 . S
Mn397 N404 2.257 . S
Mn397 N413 2.282 . S
Mn397 O421 2.215 1_556 S
Mn397 O423 2.117 . S
C398 O420 1.234 . S
C398 O421 1.283 . S
C399 O411 1.281 . S
C399 O412 1.236 . S
C400 O422 1.240 . S
C400 O423 1.264 . S
O401 Mn396 2.093 1_556 S
O401 C410 1.249 1_556 S
O402 Mn397 2.121 . S
O402 C410 1.257 1_556 S
C403 N404 1.326 1_554 S
C403 C407 1.460 . S
C403 H409 0.929 . S
N404 Mn397 2.257 . S
N404 C403 1.326 1_556 S
N404 C408 1.362 . S
C405 C406 1.258 . S
C405 C408 1.431 . S
C405 C425 1.449 1_545 S
C406 C405 1.258 . S
C406 C407 1.477 1_556 S
C406 H426 0.931 1_546 S
C407 C403 1.460 . S
C407 C406 1.477 1_554 S
C407 H427 0.930 . S
C408 N404 1.362 . S
C408 C405 1.431 . S
C408 C418 1.476 . S
H409 C403 0.929 . S
C410 O401 1.249 1_554 S
C410 O402 1.257 1_554 S
O411 Mn396 2.179 . S
O411 C399 1.281 . S
O412 Mn396 2.332 . S
O412 C399 1.236 . S
N413 Mn397 2.282 . S
N413 C414 1.328 . S
N413 C418 1.318 . S
C414 N413 1.328 . S
C414 C415 1.457 . S
C414 H419 0.929 . S
C415 C414 1.457 . S
C415 C416 1.291 . S
C415 H428 0.931 . S
C416 C415 1.291 . S
C416 C417 1.373 . S
C416 H429 0.929 1_545 S
C417 C416 1.373 . S
C417 C418 1.396 . S
C417 C424 1.403 1_545 S
C418 C408 1.476 . S
C418 N413 1.318 . S
C418 C417 1.396 . S
H419 C414 0.929 . S
O420 Mn396 2.387 . S
O420 C398 1.234 . S
O421 Mn396 2.211 . S
O421 Mn397 2.215 1_554 S
O421 C398 1.283 . S
O422 Mn396 2.060 1_556 S
O422 C400 1.240 . S
O423 Mn397 2.117 . S
O423 C400 1.264 . S
C424 C417 1.403 1_565 S
C424 C425 1.399 . S
C424 H430 0.929 . S
C425 C405 1.449 1_565 S
C425 C424 1.399 . S
C425 H431 0.930 . S
H426 C406 0.931 1_564 S
H427 C407 0.930 . S
H428 C415 0.931 . S
H429 C416 0.929 1_565 S
H430 C424 0.929 . S
H431 C425 0.930 . S
H432 C444 0.930 . S
H433 C446 0.930 . S
H434 C447 0.930 . S
H435 C451 0.959 . S
H436 C451 0.959 . S
H437 C451 0.961 . S
H438 C452 0.960 . S
H439 C452 0.961 . S
H440 C452 0.959 . S
H441 C455 0.929 . S
H442 C456 0.931 . S
H443 C458 0.930 . S
C444 H432 0.930 . S
C444 C445 1.399 . S
C444 C449 1.399 . S
C445 C444 1.399 . S
C445 C446 1.376 . S
C446 H433 0.930 . S
C446 C445 1.376 . S
C446 C447 1.388 . S
C447 H434 0.930 . S
C447 C446 1.388 . S
C447 C448 1.390 . S
C448 C447 1.390 . S
C448 C449 1.394 . S
C448 C454 1.465 . S
C449 C444 1.399 . S
C449 C448 1.394 . S
C449 C450 1.516 . S
C450 C449 1.516 . S
C450 C451 1.502 . S
C450 C452 1.561 . S
C450 C453 1.526 . S
C451 H435 0.959 . S
C451 H436 0.959 . S
C451 H437 0.961 . S
C451 C450 1.502 . S
C452 H438 0.960 . S
C452 H439 0.961 . S
C452 H440 0.959 . S
C452 C450 1.561 . S
C453 C450 1.526 . S
C453 C454 1.396 . S
C453 C458 1.390 . S
C454 C448 1.465 . S
C454 C453 1.396 . S
C454 C455 1.399 . S
C455 H441 0.929 . S
C455 C454 1.399 . S
C455 C456 1.385 . S
C456 H442 0.931 . S
C456 C455 1.385 . S
C456 C457 1.389 . S
C457 C456 1.389 . S
C457 C458 1.387 . S
C458 H443 0.930 . S
C458 C453 1.390 . S
C458 C457 1.387 . S
H459 C471 0.930 . S
H460 C473 0.930 . S
H461 C474 0.930 . S
H462 C478 0.959 . S
H463 C478 0.959 . S
H464 C478 0.961 . S
H465 C479 0.960 . S
H466 C479 0.961 . S
H467 C479 0.959 . S
H468 C482 0.929 . S
H469 C483 0.931 . S
H470 C485 0.930 . S
C471 H459 0.930 . S
C471 C472 1.399 . S
C471 C476 1.399 . S
C472 C471 1.399 . S
C472 C473 1.376 . S
C473 H460 0.930 . S
C473 C472 1.376 . S
C473 C474 1.388 . S
C474 H461 0.930 . S
C474 C473 1.388 . S
C474 C475 1.390 . S
C475 C474 1.390 . S
C475 C476 1.394 . S
C475 C481 1.465 . S
C476 C471 1.399 . S
C476 C475 1.394 . S
C476 C477 1.516 . S
C477 C476 1.516 . S
C477 C478 1.502 . S
C477 C479 1.561 . S
C477 C480 1.526 . S
C478 H462 0.959 . S
C478 H463 0.959 . S
C478 H464 0.961 . S
C478 C477 1.502 . S
C479 H465 0.960 . S
C479 H466 0.961 . S
C479 H467 0.959 . S
C479 C477 1.561 . S
C480 C477 1.526 . S
C480 C481 1.396 . S
C480 C485 1.390 . S
C481 C475 1.465 . S
C481 C480 1.396 . S
C481 C482 1.399 . S
C482 H468 0.929 . S
C482 C481 1.399 . S
C482 C483 1.385 . S
C483 H469 0.931 . S
C483 C482 1.385 . S
C483 C484 1.389 . S
C484 C483 1.389 . S
C484 C485 1.387 . S
C485 H470 0.930 . S
C485 C480 1.390 . S
C485 C484 1.387 . S
H486 C498 0.930 1_554 S
H487 C500 0.930 . S
H488 C501 0.930 . S
H489 C505 0.959 . S
H490 C505 0.959 . S
H491 C505 0.961 . S
H492 C506 0.960 . S
H493 C506 0.961 . S
H494 C506 0.959 . S
H495 C509 0.929 . S
H496 C510 0.931 . S
H497 C512 0.930 . S
C498 H486 0.930 1_556 S
C498 C499 1.399 . S
C498 C503 1.399 . S
C499 C498 1.399 . S
C499 C500 1.376 . S
C500 H487 0.930 . S
C500 C499 1.376 . S
C500 C501 1.388 . S
C501 H488 0.930 . S
C501 C500 1.388 . S
C501 C502 1.390 . S
C502 C501 1.390 . S
C502 C503 1.394 . S
C502 C508 1.465 . S
C503 C498 1.399 . S
C503 C502 1.394 . S
C503 C504 1.516 1_556 S
C504 C503 1.516 1_554 S
C504 C505 1.502 . S
C504 C506 1.561 1_554 S
C504 C507 1.526 . S
C505 H489 0.959 . S
C505 H490 0.959 . S
C505 H491 0.961 . S
C505 C504 1.502 . S
C506 H492 0.960 . S
C506 H493 0.961 . S
C506 H494 0.959 . S
C506 C504 1.561 1_556 S
C507 C504 1.526 . S
C507 C508 1.396 1_554 S
C507 C512 1.390 . S
C508 C502 1.465 . S
C508 C507 1.396 1_556 S
C508 C509 1.399 . S
C509 H495 0.929 . S
C509 C508 1.399 . S
C509 C510 1.385 . S
C510 H496 0.931 . S
C510 C509 1.385 . S
C510 C511 1.389 1_556 S
C511 C510 1.389 1_554 S
C511 C512 1.387 . S
C512 H497 0.930 . S
C512 C507 1.390 . S
C512 C511 1.387 . S
H513 C525 0.930 . S
H514 C527 0.930 . S
H515 C528 0.930 . S
H516 C532 0.959 . S
H517 C532 0.959 . S
H518 C532 0.961 . S
H519 C533 0.960 . S
H520 C533 0.961 . S
H521 C533 0.959 . S
H522 C536 0.929 . S
H523 C537 0.931 . S
H524 C539 0.930 . S
C525 H513 0.930 . S
C525 C526 1.399 . S
C525 C530 1.399 . S
C526 C525 1.399 . S
C526 C527 1.376 . S
C527 H514 0.930 . S
C527 C526 1.376 . S
C527 C528 1.388 . S
C528 H515 0.930 . S
C528 C527 1.388 . S
C528 C529 1.390 . S
C529 C528 1.390 . S
C529 C530 1.394 . S
C529 C535 1.465 . S
C530 C525 1.399 . S
C530 C529 1.394 . S
C530 C531 1.516 . S
C531 C530 1.516 . S
C531 C532 1.502 . S
C531 C533 1.561 . S
C531 C534 1.526 . S
C532 H516 0.959 . S
C532 H517 0.959 . S
C532 H518 0.961 . S
C532 C531 1.502 . S
C533 H519 0.960 . S
C533 H520 0.961 . S
C533 H521 0.959 . S
C533 C531 1.561 . S
C534 C531 1.526 . S
C534 C535 1.396 . S
C534 C539 1.390 . S
C535 C529 1.465 . S
C535 C534 1.396 . S
C535 C536 1.399 . S
C536 H522 0.929 . S
C536 C535 1.399 . S
C536 C537 1.385 . S
C537 H523 0.931 . S
C537 C536 1.385 . S
C537 C538 1.389 . S
C538 C537 1.389 . S
C538 C539 1.387 . S
C539 H524 0.930 . S
C539 C534 1.390 . S
C539 C538 1.387 . S
H540 C552 0.930 . S
H541 C554 0.930 . S
H542 C555 0.930 . S
H543 C559 0.959 . S
H544 C559 0.959 . S
H545 C559 0.961 . S
H546 C560 0.960 . S
H547 C560 0.961 . S
H548 C560 0.959 . S
H549 C563 0.929 . S
H550 C564 0.931 . S
H551 C566 0.930 . S
C552 H540 0.930 . S
C552 C553 1.399 . S
C552 C557 1.399 . S
C553 C552 1.399 . S
C553 C554 1.376 . S
C554 H541 0.930 . S
C554 C553 1.376 . S
C554 C555 1.388 . S
C555 H542 0.930 . S
C555 C554 1.388 . S
C555 C556 1.390 . S
C556 C555 1.390 . S
C556 C557 1.394 . S
C556 C562 1.465 . S
C557 C552 1.399 . S
C557 C556 1.394 . S
C557 C558 1.516 . S
C558 C557 1.516 . S
C558 C559 1.502 . S
C558 C560 1.561 . S
C558 C561 1.526 . S
C559 H543 0.959 . S
C559 H544 0.959 . S
C559 H545 0.961 . S
C559 C558 1.502 . S
C560 H546 0.960 . S
C560 H547 0.961 . S
C560 H548 0.959 . S
C560 C558 1.561 . S
C561 C558 1.526 . S
C561 C562 1.396 . S
C561 C566 1.390 . S
C562 C556 1.465 . S
C562 C561 1.396 . S
C562 C563 1.399 . S
C563 H549 0.929 . S
C563 C562 1.399 . S
C563 C564 1.385 . S
C564 H550 0.931 . S
C564 C563 1.385 . S
C564 C565 1.389 . S
C565 C564 1.389 . S
C565 C566 1.387 . S
C566 H551 0.930 . S
C566 C561 1.390 . S
C566 C565 1.387 . S
H567 C579 0.930 . S
H568 C581 0.930 . S
H569 C582 0.930 . S
H570 C586 0.959 . S
H571 C586 0.959 . S
H572 C586 0.961 . S
H573 C587 0.960 . S
H574 C587 0.961 . S
H575 C587 0.959 . S
H576 C590 0.929 . S
H577 C591 0.931 . S
H578 C593 0.930 . S
C579 H567 0.930 . S
C579 C580 1.399 . S
C579 C584 1.399 . S
C580 C579 1.399 . S
C580 C581 1.376 . S
C581 H568 0.930 . S
C581 C580 1.376 . S
C581 C582 1.388 . S
C582 H569 0.930 . S
C582 C581 1.388 . S
C582 C583 1.390 . S
C583 C582 1.390 . S
C583 C584 1.394 . S
C583 C589 1.465 . S
C584 C579 1.399 . S
C584 C583 1.394 . S
C584 C585 1.516 . S
C585 C584 1.516 . S
C585 C586 1.502 1_554 S
C585 C587 1.561 . S
C585 C588 1.526 . S
C586 H570 0.959 . S
C586 H571 0.959 . S
C586 H572 0.961 . S
C586 C585 1.502 1_556 S
C587 H573 0.960 . S
C587 H574 0.961 . S
C587 H575 0.959 . S
C587 C585 1.561 . S
C588 C585 1.526 . S
C588 C589 1.396 . S
C588 C593 1.390 1_554 S
C589 C583 1.465 . S
C589 C588 1.396 . S
C589 C590 1.399 . S
C590 H576 0.929 . S
C590 C589 1.399 . S
C590 C591 1.385 1_554 S
C591 H577 0.931 . S
C591 C590 1.385 1_556 S
C591 C592 1.389 . S
C592 C591 1.389 . S
C592 C593 1.387 . S
C593 H578 0.930 . S
C593 C588 1.390 1_556 S
C593 C592 1.387 . S
H594 C606 0.930 . S
H595 C608 0.930 . S
H596 C609 0.930 . S
H597 C613 0.959 . S
H598 C613 0.959 . S
H599 C613 0.961 . S
H600 C614 0.960 . S
H601 C614 0.961 . S
H602 C614 0.959 . S
H603 C617 0.929 . S
H604 C618 0.931 . S
H605 C620 0.930 . S
C606 H594 0.930 . S
C606 C607 1.399 . S
C606 C611 1.399 . S
C607 C606 1.399 . S
C607 C608 1.376 . S
C608 H595 0.930 . S
C608 C607 1.376 . S
C608 C609 1.388 . S
C609 H596 0.930 . S
C609 C608 1.388 . S
C609 C610 1.390 . S
C610 C609 1.390 . S
C610 C611 1.394 . S
C610 C616 1.465 . S
C611 C606 1.399 . S
C611 C610 1.394 . S
C611 C612 1.516 . S
C612 C611 1.516 . S
C612 C613 1.502 . S
C612 C614 1.561 . S
C612 C615 1.526 . S
C613 H597 0.959 . S
C613 H598 0.959 . S
C613 H599 0.961 . S
C613 C612 1.502 . S
C614 H600 0.960 . S
C614 H601 0.961 . S
C614 H602 0.959 . S
C614 C612 1.561 . S
C615 C612 1.526 . S
C615 C616 1.396 . S
C615 C620 1.390 . S
C616 C610 1.465 . S
C616 C615 1.396 . S
C616 C617 1.399 . S
C617 H603 0.929 . S
C617 C616 1.399 . S
C617 C618 1.385 . S
C618 H604 0.931 . S
C618 C617 1.385 . S
C618 C619 1.389 . S
C619 C618 1.389 . S
C619 C620 1.387 . S
C620 H605 0.930 . S
C620 C615 1.390 . S
C620 C619 1.387 . S
H621 C633 0.930 . S
H622 C635 0.930 . S
H623 C636 0.930 . S
H624 C640 0.959 . S
H625 C640 0.959 . S
H626 C640 0.961 1_655 S
H627 C641 0.960 1_655 S
H628 C641 0.961 . S
H629 C641 0.959 . S
H630 C644 0.929 . S
H631 C645 0.931 . S
H632 C647 0.930 . S
C633 H621 0.930 . S
C633 C634 1.399 . S
C633 C638 1.399 . S
C634 C633 1.399 . S
C634 C635 1.376 . S
C635 H622 0.930 . S
C635 C634 1.376 . S
C635 C636 1.388 . S
C636 H623 0.930 . S
C636 C635 1.388 . S
C636 C637 1.390 . S
C637 C636 1.390 . S
C637 C638 1.394 . S
C637 C643 1.465 1_655 S
C638 C633 1.399 . S
C638 C637 1.394 . S
C638 C639 1.516 1_655 S
C639 C638 1.516 1_455 S
C639 C640 1.502 . S
C639 C641 1.561 . S
C639 C642 1.526 . S
C640 H624 0.959 . S
C640 H625 0.959 . S
C640 H626 0.961 1_455 S
C640 C639 1.502 . S
C641 H627 0.960 1_455 S
C641 H628 0.961 . S
C641 H629 0.959 . S
C641 C639 1.561 . S
C642 C639 1.526 . S
C642 C643 1.396 . S
C642 C647 1.390 . S
C643 C637 1.465 1_455 S
C643 C642 1.396 . S
C643 C644 1.399 . S
C644 H630 0.929 . S
C644 C643 1.399 . S
C644 C645 1.385 . S
C645 H631 0.931 . S
C645 C644 1.385 . S
C645 C646 1.389 . S
C646 C645 1.389 . S
C646 C647 1.387 . S
C647 H632 0.930 . S
C647 C642 1.390 . S
C647 C646 1.387 . S
H648 C660 0.930 . S
H649 C662 0.930 . S
H650 C663 0.930 . S
H651 C667 0.956 . S
H652 C667 0.959 1_565 S
H653 C667 0.961 . S
H654 C668 0.960 . S
H655 C668 0.961 1_565 S
H656 C668 0.959 . S
H657 C671 0.929 . S
H658 C672 0.931 . S
H659 C674 0.930 . S
C660 H648 0.930 . S
C660 C661 1.399 1_556 S
C660 C665 1.399 . S
C661 C660 1.399 1_554 S
C661 C662 1.376 . S
C662 H649 0.930 . S
C662 C661 1.376 . S
C662 C663 1.388 . S
C663 H650 0.930 . S
C663 C662 1.388 . S
C663 C664 1.390 . S
C664 C663 1.390 . S
C664 C665 1.394 1_554 S
C664 C670 1.465 1_545 S
C665 C660 1.399 . S
C665 C664 1.394 1_556 S
C665 C666 1.516 . S
C666 C665 1.516 . S
C666 C667 1.502 . S
C666 C668 1.561 . S
C666 C669 1.526 1_545 S
C667 H651 0.956 . S
C667 H652 0.959 1_545 S
C667 H653 0.961 . S
C667 C666 1.502 . S
C668 H654 0.960 . S
C668 H655 0.961 1_545 S
C668 H656 0.959 . S
C668 C666 1.561 . S
C669 C666 1.526 1_565 S
C669 C670 1.396 1_556 S
C669 C674 1.390 . S
C670 C664 1.465 1_565 S
C670 C669 1.396 1_554 S
C670 C671 1.399 . S
C671 H657 0.929 . S
C671 C670 1.399 . S
C671 C672 1.385 . S
C672 H658 0.931 . S
C672 C671 1.385 . S
C672 C673 1.389 1_554 S
C673 C672 1.389 1_556 S
C673 C674 1.387 . S
C674 H659 0.930 . S
C674 C669 1.390 . S
C674 C673 1.387 . S
H675 C687 0.930 . S
H676 C689 0.930 . S
H677 C690 0.930 . S
H678 C694 0.959 . S
H679 C694 0.959 . S
H680 C694 0.961 . S
H681 C695 0.960 . S
H682 C695 0.961 . S
H683 C695 0.959 . S
H684 C698 0.929 . S
H685 C699 0.931 . S
H686 C701 0.930 . S
C687 H675 0.930 . S
C687 C688 1.399 . S
C687 C692 1.399 . S
C688 C687 1.399 . S
C688 C689 1.376 . S
C689 H676 0.930 . S
C689 C688 1.376 . S
C689 C690 1.388 . S
C690 H677 0.930 . S
C690 C689 1.388 . S
C690 C691 1.390 . S
C691 C690 1.390 . S
C691 C692 1.394 . S
C691 C697 1.465 . S
C692 C687 1.399 . S
C692 C691 1.394 . S
C692 C693 1.516 . S
C693 C692 1.516 . S
C693 C694 1.502 . S
C693 C695 1.561 . S
C693 C696 1.526 . S
C694 H678 0.959 . S
C694 H679 0.959 . S
C694 H680 0.961 . S
C694 C693 1.502 . S
C695 H681 0.960 . S
C695 H682 0.961 . S
C695 H683 0.959 . S
C695 C693 1.561 . S
C696 C693 1.526 . S
C696 C697 1.396 . S
C696 C701 1.390 . S
C697 C691 1.465 . S
C697 C696 1.396 . S
C697 C698 1.399 . S
C698 H684 0.929 . S
C698 C697 1.399 . S
C698 C699 1.385 . S
C699 H685 0.931 . S
C699 C698 1.385 . S
C699 C700 1.389 . S
C700 C699 1.389 . S
C700 C701 1.387 . S
C701 H686 0.930 . S
C701 C696 1.390 . S
C701 C700 1.387 . S
H702 C714 0.930 . S
H703 C716 0.930 . S
H704 C717 0.930 . S
H705 C721 0.959 . S
H706 C721 0.959 . S
H707 C721 0.961 1_455 S
H708 C722 0.960 1_455 S
H709 C722 0.961 . S
H710 C722 0.959 . S
H711 C725 0.929 . S
H712 C726 0.931 . S
H713 C728 0.930 . S
C714 H702 0.930 . S
C714 C715 1.399 . S
C714 C719 1.399 . S
C715 C714 1.399 . S
C715 C716 1.376 . S
C716 H703 0.930 . S
C716 C715 1.376 . S
C716 C717 1.388 . S
C717 H704 0.930 . S
C717 C716 1.388 . S
C717 C718 1.390 . S
C718 C717 1.390 . S
C718 C719 1.394 . S
C718 C724 1.465 1_455 S
C719 C714 1.399 . S
C719 C718 1.394 . S
C719 C720 1.516 1_455 S
C720 C719 1.516 1_655 S
C720 C721 1.502 . S
C720 C722 1.561 . S
C720 C723 1.526 . S
C721 H705 0.959 . S
C721 H706 0.959 . S
C721 H707 0.961 1_655 S
C721 C720 1.502 . S
C722 H708 0.960 1_655 S
C722 H709 0.961 . S
C722 H710 0.959 . S
C722 C720 1.561 . S
C723 C720 1.526 . S
C723 C724 1.396 . S
C723 C728 1.390 . S
C724 C718 1.465 1_655 S
C724 C723 1.396 . S
C724 C725 1.399 . S
C725 H711 0.929 . S
C725 C724 1.399 . S
C725 C726 1.385 . S
C726 H712 0.931 . S
C726 C725 1.385 . S
C726 C727 1.389 . S
C727 C726 1.389 . S
C727 C728 1.387 . S
C728 H713 0.930 . S
C728 C723 1.390 . S
C728 C727 1.387 . S
H729 C741 0.930 . S
H730 C743 0.930 . S
H731 C744 0.930 . S
H732 C748 0.959 . S
H733 C748 0.959 . S
H734 C748 0.961 1_545 S
H735 C749 0.960 1_545 S
H736 C749 0.961 . S
H737 C749 0.959 . S
H738 C752 0.929 . S
H739 C753 0.931 . S
H740 C755 0.930 . S
C741 H729 0.930 . S
C741 C742 1.399 . S
C741 C746 1.399 . S
C742 C741 1.399 . S
C742 C743 1.376 1_556 S
C743 H730 0.930 . S
C743 C742 1.376 1_554 S
C743 C744 1.388 . S
C744 H731 0.930 . S
C744 C743 1.388 . S
C744 C745 1.390 . S
C745 C744 1.390 . S
C745 C746 1.394 1_554 S
C745 C751 1.465 1_545 S
C746 C741 1.399 . S
C746 C745 1.394 1_556 S
C746 C747 1.516 1_545 S
C747 C746 1.516 1_565 S
C747 C748 1.502 . S
C747 C749 1.561 . S
C747 C750 1.526 . S
C748 H732 0.959 . S
C748 H733 0.959 . S
C748 H734 0.961 1_565 S
C748 C747 1.502 . S
C749 H735 0.960 1_565 S
C749 H736 0.961 . S
C749 H737 0.959 . S
C749 C747 1.561 . S
C750 C747 1.526 . S
C750 C751 1.396 1_556 S
C750 C755 1.390 . S
C751 C745 1.465 1_565 S
C751 C750 1.396 1_554 S
C751 C752 1.399 . S
C752 H738 0.929 . S
C752 C751 1.399 . S
C752 C753 1.385 . S
C753 H739 0.931 . S
C753 C752 1.385 . S
C753 C754 1.389 . S
C754 C753 1.389 . S
C754 C755 1.387 1_554 S
C755 H740 0.930 . S
C755 C750 1.390 . S
C755 C754 1.387 1_556 S
H756 C768 0.930 1_455 S
H757 C770 0.930 . S
H758 C771 0.930 . S
H759 C775 0.959 . S
H760 C775 0.959 . S
H761 C775 0.961 . S
H762 C776 0.960 . S
H763 C776 0.961 . S
H764 C776 0.959 1_655 S
H765 C779 0.929 . S
H766 C780 0.931 . S
H767 C782 0.930 . S
C768 H756 0.930 1_655 S
C768 C769 1.399 . S
C768 C773 1.399 . S
C769 C768 1.399 . S
C769 C770 1.376 . S
C770 H757 0.930 . S
C770 C769 1.376 . S
C770 C771 1.388 . S
C771 H758 0.930 . S
C771 C770 1.388 . S
C771 C772 1.390 . S
C772 C771 1.390 . S
C772 C773 1.394 . S
C772 C778 1.465 . S
C773 C768 1.399 . S
C773 C772 1.394 . S
C773 C774 1.516 1_655 S
C774 C773 1.516 1_455 S
C774 C775 1.502 . S
C774 C776 1.561 . S
C774 C777 1.526 . S
C775 H759 0.959 . S
C775 H760 0.959 . S
C775 H761 0.961 . S
C775 C774 1.502 . S
C776 H762 0.960 . S
C776 H763 0.961 . S
C776 H764 0.959 1_455 S
C776 C774 1.561 . S
C777 C774 1.526 . S
C777 C778 1.396 1_455 S
C777 C782 1.390 . S
C778 C772 1.465 . S
C778 C777 1.396 1_655 S
C778 C779 1.399 . S
C779 H765 0.929 . S
C779 C778 1.399 . S
C779 C780 1.385 . S
C780 H766 0.931 . S
C780 C779 1.385 . S
C780 C781 1.389 1_655 S
C781 C780 1.389 1_455 S
C781 C782 1.387 . S
C782 H767 0.930 . S
C782 C777 1.390 . S
C782 C781 1.387 . S
H783 C795 0.930 . S
H784 C797 0.930 . S
H785 C798 0.930 . S
H786 C802 0.959 . S
H787 C802 0.959 . S
H788 C802 0.961 . S
H789 C803 0.960 . S
H790 C803 0.961 . S
H791 C803 0.959 . S
H792 C806 0.929 . S
H793 C807 0.931 . S
H794 C809 0.930 . S
C795 H783 0.930 . S
C795 C796 1.399 . S
C795 C800 1.399 . S
C796 C795 1.399 . S
C796 C797 1.376 1_545 S
C797 H784 0.930 . S
C797 C796 1.376 1_565 S
C797 C798 1.388 . S
C798 H785 0.930 . S
C798 C797 1.388 . S
C798 C799 1.390 . S
C799 C798 1.390 . S
C799 C800 1.394 1_565 S
C799 C805 1.465 . S
C800 C795 1.399 . S
C800 C799 1.394 1_545 S
C800 C801 1.516 . S
C801 C800 1.516 . S
C801 C802 1.502 . S
C801 C803 1.561 . S
C801 C804 1.526 . S
C802 H786 0.959 . S
C802 H787 0.959 . S
C802 H788 0.961 . S
C802 C801 1.502 . S
C803 H789 0.960 . S
C803 H790 0.961 . S
C803 H791 0.959 . S
C803 C801 1.561 . S
C804 C801 1.526 . S
C804 C805 1.396 1_545 S
C804 C809 1.390 . S
C805 C799 1.465 . S
C805 C804 1.396 1_565 S
C805 C806 1.399 . S
C806 H792 0.929 . S
C806 C805 1.399 . S
C806 C807 1.385 . S
C807 H793 0.931 . S
C807 C806 1.385 . S
C807 C808 1.389 . S
C808 C807 1.389 . S
C808 C809 1.387 1_565 S
C809 H794 0.930 . S
C809 C804 1.390 . S
C809 C808 1.387 1_545 S
H810 C822 0.930 . S
H811 C824 0.930 . S
H812 C825 0.930 . S
H813 C829 0.959 . S
H814 C829 0.959 . S
H815 C829 0.961 . S
H816 C830 0.960 . S
H817 C830 0.961 . S
H818 C830 0.959 . S
H819 C833 0.929 . S
H820 C834 0.931 . S
H821 C836 0.930 . S
C822 H810 0.930 . S
C822 C823 1.399 . S
C822 C827 1.399 . S
C823 C822 1.399 . S
C823 C824 1.376 . S
C824 H811 0.930 . S
C824 C823 1.376 . S
C824 C825 1.388 . S
C825 H812 0.930 . S
C825 C824 1.388 . S
C825 C826 1.390 . S
C826 C825 1.390 . S
C826 C827 1.394 . S
C826 C832 1.465 . S
C827 C822 1.399 . S
C827 C826 1.394 . S
C827 C828 1.516 . S
C828 C827 1.516 . S
C828 C829 1.502 . S
C828 C830 1.561 . S
C828 C831 1.526 . S
C829 H813 0.959 . S
C829 H814 0.959 . S
C829 H815 0.961 . S
C829 C828 1.502 . S
C830 H816 0.960 . S
C830 H817 0.961 . S
C830 H818 0.959 . S
C830 C828 1.561 . S
C831 C828 1.526 . S
C831 C832 1.396 . S
C831 C836 1.390 . S
C832 C826 1.465 . S
C832 C831 1.396 . S
C832 C833 1.399 . S
C833 H819 0.929 . S
C833 C832 1.399 . S
C833 C834 1.385 . S
C834 H820 0.931 . S
C834 C833 1.385 . S
C834 C835 1.389 . S
C835 C834 1.389 . S
C835 C836 1.387 . S
C836 H821 0.930 . S
C836 C831 1.390 . S
C836 C835 1.387 . S
H837 C849 0.930 . S
H838 C851 0.930 . S
H839 C852 0.930 . S
H840 C856 0.959 . S
H841 C856 0.959 . S
H842 C856 0.961 . S
H843 C857 0.960 1_455 S
H844 C857 0.961 . S
H845 C857 0.959 . S
H846 C860 0.929 . S
H847 C861 0.931 . S
H848 C863 0.930 . S
C849 H837 0.930 . S
C849 C850 1.399 . S
C849 C854 1.399 . S
C850 C849 1.399 . S
C850 C851 1.376 . S
C851 H838 0.930 . S
C851 C850 1.376 . S
C851 C852 1.388 1_455 S
C852 H839 0.930 . S
C852 C851 1.388 1_655 S
C852 C853 1.390 . S
C853 C852 1.390 . S
C853 C854 1.394 1_655 S
C853 C859 1.465 . S
C854 C849 1.399 . S
C854 C853 1.394 1_455 S
C854 C855 1.516 . S
C855 C854 1.516 . S
C855 C856 1.502 . S
C855 C857 1.561 1_455 S
C855 C858 1.526 1_455 S
C856 H840 0.959 . S
C856 H841 0.959 . S
C856 H842 0.961 . S
C856 C855 1.502 . S
C857 H843 0.960 1_655 S
C857 H844 0.961 . S
C857 H845 0.959 . S
C857 C855 1.561 1_655 S
C858 C855 1.526 1_655 S
C858 C859 1.396 . S
C858 C863 1.390 . S
C859 C853 1.465 . S
C859 C858 1.396 . S
C859 C860 1.399 . S
C860 H846 0.929 . S
C860 C859 1.399 . S
C860 C861 1.385 . S
C861 H847 0.931 . S
C861 C860 1.385 . S
C861 C862 1.389 . S
C862 C861 1.389 . S
C862 C863 1.387 . S
C863 H848 0.930 . S
C863 C858 1.390 . S
C863 C862 1.387 . S
H864 C876 0.930 1_565 S
H865 C878 0.930 . S
H866 C879 0.930 . S
H867 C883 0.959 . S
H868 C883 0.959 . S
H869 C883 0.961 . S
H870 C884 0.960 . S
H871 C884 0.961 . S
H872 C884 0.959 1_545 S
H873 C887 0.929 . S
H874 C888 0.934 . S
H875 C890 0.930 . S
C876 H864 0.930 1_545 S
C876 C877 1.399 . S
C876 C881 1.399 . S
C877 C876 1.399 . S
C877 C878 1.376 . S
C878 H865 0.930 . S
C878 C877 1.376 . S
C878 C879 1.388 . S
C879 H866 0.930 . S
C879 C878 1.388 . S
C879 C880 1.390 . S
C880 C879 1.390 . S
C880 C881 1.394 . S
C880 C886 1.465 . S
C881 C876 1.399 . S
C881 C880 1.394 . S
C881 C882 1.516 1_545 S
C882 C881 1.516 1_565 S
C882 C883 1.502 . S
C882 C884 1.561 . S
C882 C885 1.526 . S
C883 H867 0.959 . S
C883 H868 0.959 . S
C883 H869 0.961 . S
C883 C882 1.502 . S
C884 H870 0.960 . S
C884 H871 0.961 . S
C884 H872 0.959 1_565 S
C884 C882 1.561 . S
C885 C882 1.526 . S
C885 C886 1.396 1_565 S
C885 C890 1.390 . S
C886 C880 1.465 . S
C886 C885 1.396 1_545 S
C886 C887 1.399 . S
C887 H873 0.929 . S
C887 C886 1.399 . S
C887 C888 1.388 . S
C888 H874 0.934 . S
C888 C887 1.388 . S
C888 C889 1.383 1_545 S
C889 C888 1.383 1_565 S
C889 C890 1.387 . S
C890 H875 0.930 . S
C890 C885 1.390 . S
C890 C889 1.387 . S
H891 C903 0.930 . S
H892 C905 0.930 . S
H893 C906 0.930 . S
H894 C910 0.959 . S
H895 C910 0.959 . S
H896 C910 0.961 . S
H897 C911 0.960 . S
H898 C911 0.961 . S
H899 C911 0.959 . S
H900 C914 0.929 . S
H901 C915 0.931 . S
H902 C917 0.930 . S
C903 H891 0.930 . S
C903 C904 1.399 . S
C903 C908 1.399 . S
C904 C903 1.399 . S
C904 C905 1.376 . S
C905 H892 0.930 . S
C905 C904 1.376 . S
C905 C906 1.388 . S
C906 H893 0.930 . S
C906 C905 1.388 . S
C906 C907 1.390 . S
C907 C906 1.390 . S
C907 C908 1.394 . S
C907 C913 1.465 . S
C908 C903 1.399 . S
C908 C907 1.394 . S
C908 C909 1.516 . S
C909 C908 1.516 . S
C909 C910 1.502 . S
C909 C911 1.561 . S
C909 C912 1.526 . S
C910 H894 0.959 . S
C910 H895 0.959 . S
C910 H896 0.961 . S
C910 C909 1.502 . S
C911 H897 0.960 . S
C911 H898 0.961 . S
C911 H899 0.959 . S
C911 C909 1.561 . S
C912 C909 1.526 . S
C912 C913 1.396 . S
C912 C917 1.390 . S
C913 C907 1.465 . S
C913 C912 1.396 . S
C913 C914 1.399 . S
C914 H900 0.929 . S
C914 C913 1.399 . S
C914 C915 1.385 . S
C915 H901 0.931 . S
C915 C914 1.385 . S
C915 C916 1.389 . S
C916 C915 1.389 . S
C916 C917 1.387 . S
C917 H902 0.930 . S
C917 C912 1.390 . S
C917 C916 1.387 . S
H918 C930 0.930 . S
H919 C932 0.930 . S
H920 C933 0.930 . S
H921 C937 0.959 . S
H922 C937 0.959 . S
H923 C937 0.961 . S
H924 C938 0.960 . S
H925 C938 0.961 . S
H926 C938 0.959 . S
H927 C941 0.929 . S
H928 C942 0.931 . S
H929 C944 0.930 . S
C930 H918 0.930 . S
C930 C931 1.399 . S
C930 C935 1.399 . S
C931 C930 1.399 . S
C931 C932 1.376 . S
C932 H919 0.930 . S
C932 C931 1.376 . S
C932 C933 1.388 . S
C933 H920 0.930 . S
C933 C932 1.388 . S
C933 C934 1.390 . S
C934 C933 1.390 . S
C934 C935 1.394 . S
C934 C940 1.465 . S
C935 C930 1.399 . S
C935 C934 1.394 . S
C935 C936 1.516 . S
C936 C935 1.516 . S
C936 C937 1.502 . S
C936 C938 1.561 . S
C936 C939 1.526 . S
C937 H921 0.959 . S
C937 H922 0.959 . S
C937 H923 0.961 . S
C937 C936 1.502 . S
C938 H924 0.960 . S
C938 H925 0.961 . S
C938 H926 0.959 . S
C938 C936 1.561 . S
C939 C936 1.526 . S
C939 C940 1.396 . S
C939 C944 1.390 . S
C940 C934 1.465 . S
C940 C939 1.396 . S
C940 C941 1.399 . S
C941 H927 0.929 . S
C941 C940 1.399 . S
C941 C942 1.385 . S
C942 H928 0.931 . S
C942 C941 1.385 . S
C942 C943 1.389 . S
C943 C942 1.389 . S
C943 C944 1.387 . S
C944 H929 0.930 . S
C944 C939 1.390 . S
C944 C943 1.387 . S
H945 C957 0.930 . S
H946 C959 0.930 . S
H947 C960 0.930 . S
H948 C964 0.959 . S
H949 C964 0.959 . S
H950 C964 0.961 . S
H951 C965 0.960 . S
H952 C965 0.961 . S
H953 C965 0.959 . S
H954 C968 0.929 . S
H955 C969 0.931 . S
H956 C971 0.930 . S
C957 H945 0.930 . S
C957 C958 1.399 . S
C957 C962 1.399 . S
C958 C957 1.399 . S
C958 C959 1.376 . S
C959 H946 0.930 . S
C959 C958 1.376 . S
C959 C960 1.388 . S
C960 H947 0.930 . S
C960 C959 1.388 . S
C960 C961 1.390 . S
C961 C960 1.390 . S
C961 C962 1.394 . S
C961 C967 1.465 . S
C962 C957 1.399 . S
C962 C961 1.394 . S
C962 C963 1.516 . S
C963 C962 1.516 . S
C963 C964 1.502 . S
C963 C965 1.561 . S
C963 C966 1.526 . S
C964 H948 0.959 . S
C964 H949 0.959 . S
C964 H950 0.961 . S
C964 C963 1.502 . S
C965 H951 0.960 . S
C965 H952 0.961 . S
C965 H953 0.959 . S
C965 C963 1.561 . S
C966 C963 1.526 . S
C966 C967 1.396 . S
C966 C971 1.390 . S
C967 C961 1.465 . S
C967 C966 1.396 . S
C967 C968 1.399 . S
C968 H954 0.929 . S
C968 C967 1.399 . S
C968 C969 1.385 . S
C969 H955 0.931 . S
C969 C968 1.385 . S
C969 C970 1.389 . S
C970 C969 1.389 . S
C970 C971 1.387 . S
C971 H956 0.930 . S
C971 C966 1.390 . S
C971 C970 1.387 . S
H972 C984 0.930 . S
H973 C986 0.930 . S
H974 C987 0.930 . S
H975 C991 0.959 . S
H976 C991 0.959 . S
H977 C991 0.961 . S
H978 C992 0.960 . S
H979 C992 0.961 . S
H980 C992 0.959 . S
H981 C995 0.929 . S
H982 C996 0.931 . S
H983 C998 0.930 . S
C984 H972 0.930 . S
C984 C985 1.399 . S
C984 C989 1.399 . S
C985 C984 1.399 . S
C985 C986 1.376 . S
C986 H973 0.930 . S
C986 C985 1.376 . S
C986 C987 1.388 . S
C987 H974 0.930 . S
C987 C986 1.388 . S
C987 C988 1.390 . S
C988 C987 1.390 . S
C988 C989 1.394 . S
C988 C994 1.465 . S
C989 C984 1.399 . S
C989 C988 1.394 . S
C989 C990 1.516 . S
C990 C989 1.516 . S
C990 C991 1.502 . S
C990 C992 1.561 . S
C990 C993 1.526 . S
C991 H975 0.959 . S
C991 H976 0.959 . S
C991 H977 0.961 . S
C991 C990 1.502 . S
C992 H978 0.960 . S
C992 H979 0.961 . S
C992 H980 0.959 . S
C992 C990 1.561 . S
C993 C990 1.526 . S
C993 C994 1.396 . S
C993 C998 1.390 . S
C994 C988 1.465 . S
C994 C993 1.396 . S
C994 C995 1.399 . S
C995 H981 0.929 . S
C995 C994 1.399 . S
C995 C996 1.385 . S
C996 H982 0.931 . S
C996 C995 1.385 . S
C996 C997 1.389 . S
C997 C996 1.389 . S
C997 C998 1.387 . S
C998 H983 0.930 . S
C998 C993 1.390 . S
C998 C997 1.387 . S
H999 C1011 0.930 . S
H1000 C1013 0.930 . S
H1001 C1014 0.930 . S
H1002 C1018 0.959 . S
H1003 C1018 0.959 . S
H1004 C1018 0.961 . S
H1005 C1019 0.960 . S
H1006 C1019 0.961 . S
H1007 C1019 0.959 . S
H1008 C1022 0.929 . S
H1009 C1023 0.931 . S
H1010 C1025 0.930 . S
C1011 H999 0.930 . S
C1011 C1012 1.399 . S
C1011 C1016 1.399 . S
C1012 C1011 1.399 . S
C1012 C1013 1.376 . S
C1013 H1000 0.930 . S
C1013 C1012 1.376 . S
C1013 C1014 1.388 . S
C1014 H1001 0.930 . S
C1014 C1013 1.388 . S
C1014 C1015 1.390 . S
C1015 C1014 1.390 . S
C1015 C1016 1.394 . S
C1015 C1021 1.465 . S
C1016 C1011 1.399 . S
C1016 C1015 1.394 . S
C1016 C1017 1.516 . S
C1017 C1016 1.516 . S
C1017 C1018 1.502 . S
C1017 C1019 1.561 . S
C1017 C1020 1.526 . S
C1018 H1002 0.959 . S
C1018 H1003 0.959 . S
C1018 H1004 0.961 . S
C1018 C1017 1.502 . S
C1019 H1005 0.960 . S
C1019 H1006 0.961 . S
C1019 H1007 0.959 . S
C1019 C1017 1.561 . S
C1020 C1017 1.526 . S
C1020 C1021 1.396 . S
C1020 C1025 1.390 . S
C1021 C1015 1.465 . S
C1021 C1020 1.396 . S
C1021 C1022 1.399 . S
C1022 H1008 0.929 . S
C1022 C1021 1.399 . S
C1022 C1023 1.385 . S
C1023 H1009 0.931 . S
C1023 C1022 1.385 . S
C1023 C1024 1.389 . S
C1024 C1023 1.389 . S
C1024 C1025 1.387 . S
C1025 H1010 0.930 . S
C1025 C1020 1.390 . S
C1025 C1024 1.387 . S
H1026 C1038 0.930 . S
H1027 C1040 0.930 . S
H1028 C1041 0.930 . S
H1029 C1045 0.959 . S
H1030 C1045 0.959 . S
H1031 C1045 0.961 . S
H1032 C1046 0.960 . S
H1033 C1046 0.961 . S
H1034 C1046 0.959 . S
H1035 C1049 0.929 . S
H1036 C1050 0.931 . S
H1037 C1052 0.930 . S
C1038 H1026 0.930 . S
C1038 C1039 1.399 . S
C1038 C1043 1.399 . S
C1039 C1038 1.399 . S
C1039 C1040 1.376 . S
C1040 H1027 0.930 . S
C1040 C1039 1.376 . S
C1040 C1041 1.388 . S
C1041 H1028 0.930 . S
C1041 C1040 1.388 . S
C1041 C1042 1.390 . S
C1042 C1041 1.390 . S
C1042 C1043 1.394 . S
C1042 C1048 1.465 . S
C1043 C1038 1.399 . S
C1043 C1042 1.394 . S
C1043 C1044 1.516 . S
C1044 C1043 1.516 . S
C1044 C1045 1.502 . S
C1044 C1046 1.561 . S
C1044 C1047 1.526 . S
C1045 H1029 0.959 . S
C1045 H1030 0.959 . S
C1045 H1031 0.961 . S
C1045 C1044 1.502 . S
C1046 H1032 0.960 . S
C1046 H1033 0.961 . S
C1046 H1034 0.959 . S
C1046 C1044 1.561 . S
C1047 C1044 1.526 . S
C1047 C1048 1.396 . S
C1047 C1052 1.390 . S
C1048 C1042 1.465 . S
C1048 C1047 1.396 . S
C1048 C1049 1.399 . S
C1049 H1035 0.929 . S
C1049 C1048 1.399 . S
C1049 C1050 1.385 . S
C1050 H1036 0.931 . S
C1050 C1049 1.385 . S
C1050 C1051 1.389 . S
C1051 C1050 1.389 . S
C1051 C1052 1.387 . S
C1052 H1037 0.930 . S
C1052 C1047 1.390 . S
C1052 C1051 1.387 . S
H1053 C1065 0.930 . S
H1054 C1067 0.930 . S
H1055 C1068 0.930 . S
H1056 C1072 0.959 . S
H1057 C1072 0.959 . S
H1058 C1072 0.961 . S
H1059 C1073 0.960 . S
H1060 C1073 0.961 . S
H1061 C1073 0.959 . S
H1062 C1076 0.929 . S
H1063 C1077 0.931 . S
H1064 C1079 0.930 . S
C1065 H1053 0.930 . S
C1065 C1066 1.399 . S
C1065 C1070 1.399 . S
C1066 C1065 1.399 . S
C1066 C1067 1.376 . S
C1067 H1054 0.930 . S
C1067 C1066 1.376 . S
C1067 C1068 1.388 . S
C1068 H1055 0.930 . S
C1068 C1067 1.388 . S
C1068 C1069 1.390 . S
C1069 C1068 1.390 . S
C1069 C1070 1.394 . S
C1069 C1075 1.465 . S
C1070 C1065 1.399 . S
C1070 C1069 1.394 . S
C1070 C1071 1.516 . S
C1071 C1070 1.516 . S
C1071 C1072 1.502 . S
C1071 C1073 1.561 . S
C1071 C1074 1.526 . S
C1072 H1056 0.959 . S
C1072 H1057 0.959 . S
C1072 H1058 0.961 . S
C1072 C1071 1.502 . S
C1073 H1059 0.960 . S
C1073 H1060 0.961 . S
C1073 H1061 0.959 . S
C1073 C1071 1.561 . S
C1074 C1071 1.526 . S
C1074 C1075 1.396 . S
C1074 C1079 1.390 . S
C1075 C1069 1.465 . S
C1075 C1074 1.396 . S
C1075 C1076 1.399 . S
C1076 H1062 0.929 . S
C1076 C1075 1.399 . S
C1076 C1077 1.385 . S
C1077 H1063 0.931 . S
C1077 C1076 1.385 . S
C1077 C1078 1.389 . S
C1078 C1077 1.389 . S
C1078 C1079 1.387 . S
C1079 H1064 0.930 . S
C1079 C1074 1.390 . S
C1079 C1078 1.387 . S
C445 C14 1.399 . S
C457 C230 1.356 . S
C472 C50 1.385 . S
C484 C266 1.338 . S
C499 C86 1.391 . S
C511 C302 1.356 . S
C526 C338 1.407 . S
C538 C122 1.448 . S
C553 C158 1.428 . S
C565 C374 1.453 . S
C580 C410 1.389 . S
C592 C194 1.365 . S
C607 C2 0.964 . S
C619 C326 1.001 . S
C634 C38 1.004 . S
C646 C362 0.970 . S
C661 C398 0.969 . S
C673 C74 0.920 . S
C688 C218 1.005 . S
C700 C110 0.969 . S
C715 C146 1.004 . S
C727 C254 0.970 . S
C742 C182 0.917 . S
C754 C290 0.966 . S
C769 C399 1.740 . S
C781 C3 1.766 . S
C796 C39 1.919 . S
C808 C219 1.890 . S
C823 C75 1.777 . S
C835 C255 1.738 . S
C850 C291 1.776 . S
C862 C111 1.743 . S
C877 C327 1.888 . S
C889 C147 1.920 . S
C904 C183 1.778 . S
C916 C363 1.734 . S
C931 C4 0.984 . S
C943 C364 0.838 . S
C958 C400 0.991 . S
C970 C40 0.975 . S
C985 C220 1.016 . S
C997 C76 1.026 . S
C1012 C112 0.974 . S
C1024 C256 0.854 . S
C1039 C292 1.065 . S
C1051 C148 0.915 . S
C1066 C328 1.039 . S
C1078 C184 0.931 . S
