# Generated by pormake.
# Topology wme, (6)-cn, num edge types: 1
# Building blocks:
#     Node 0, Type 0, BuildingBlock: KUMBUR_clean_sbu_1, # of connection points: 6
#     Node 1, Type 0, BuildingBlock: KUMBUR_clean_sbu_1, # of connection points: 6
#     Node 2, Type 0, BuildingBlock: KUMBUR_clean_sbu_1, # of connection points: 6
#     Node 3, Type 0, BuildingBlock: KUMBUR_clean_sbu_1, # of connection points: 6
#     Node 4, Type 0, BuildingBlock: KUMBUR_clean_sbu_1, # of connection points: 6
#     Node 5, Type 0, BuildingBlock: KUMBUR_clean_sbu_1, # of connection points: 6
#     Node 6, Type 0, BuildingBlock: KUMBUR_clean_sbu_1, # of connection points: 6
#     Node 7, Type 0, BuildingBlock: KUMBUR_clean_sbu_1, # of connection points: 6
#     Node 8, Type 0, BuildingBlock: KUMBUR_clean_sbu_1, # of connection points: 6
#     Node 9, Type 0, BuildingBlock: KUMBUR_clean_sbu_1, # of connection points: 6
#     Node 10, Type 0, BuildingBlock: KUMBUR_clean_sbu_1, # of connection points: 6
#     Node 11, Type 0, BuildingBlock: KUMBUR_clean_sbu_1, # of connection points: 6
#     Edge 12, Type (0, 0), BuildingBlock: TEMPAE_clean_linker_10, # of connection points: 2
#     Edge 13, Type (0, 0), BuildingBlock: TEMPAE_clean_linker_10, # of connection points: 2
#     Edge 14, Type (0, 0), BuildingBlock: TEMPAE_clean_linker_10, # of connection points: 2
#     Edge 15, Type (0, 0), BuildingBlock: TEMPAE_clean_linker_10, # of connection points: 2
#     Edge 16, Type (0, 0), BuildingBlock: TEMPAE_clean_linker_10, # of connection points: 2
#     Edge 17, Type (0, 0), BuildingBlock: TEMPAE_clean_linker_10, # of connection points: 2
#     Edge 18, Type (0, 0), BuildingBlock: TEMPAE_clean_linker_10, # of connection points: 2
#     Edge 19, Type (0, 0), BuildingBlock: TEMPAE_clean_linker_10, # of connection points: 2
#     Edge 20, Type (0, 0), BuildingBlock: TEMPAE_clean_linker_10, # of connection points: 2
#     Edge 21, Type (0, 0), BuildingBlock: TEMPAE_clean_linker_10, # of connection points: 2
#     Edge 22, Type (0, 0), BuildingBlock: TEMPAE_clean_linker_10, # of connection points: 2
#     Edge 23, Type (0, 0), BuildingBlock: TEMPAE_clean_linker_10, # of connection points: 2
#     Edge 24, Type (0, 0), BuildingBlock: TEMPAE_clean_linker_10, # of connection points: 2
#     Edge 25, Type (0, 0), BuildingBlock: TEMPAE_clean_linker_10, # of connection points: 2
#     Edge 26, Type (0, 0), BuildingBlock: TEMPAE_clean_linker_10, # of connection points: 2
#     Edge 27, Type (0, 0), BuildingBlock: TEMPAE_clean_linker_10, # of connection points: 2
#     Edge 28, Type (0, 0), BuildingBlock: TEMPAE_clean_linker_10, # of connection points: 2
#     Edge 29, Type (0, 0), BuildingBlock: TEMPAE_clean_linker_10, # of connection points: 2
#     Edge 30, Type (0, 0), BuildingBlock: TEMPAE_clean_linker_10, # of connection points: 2
#     Edge 31, Type (0, 0), BuildingBlock: TEMPAE_clean_linker_10, # of connection points: 2
#     Edge 32, Type (0, 0), BuildingBlock: TEMPAE_clean_linker_10, # of connection points: 2
#     Edge 33, Type (0, 0), BuildingBlock: TEMPAE_clean_linker_10, # of connection points: 2
#     Edge 34, Type (0, 0), BuildingBlock: TEMPAE_clean_linker_10, # of connection points: 2
#     Edge 35, Type (0, 0), BuildingBlock: TEMPAE_clean_linker_10, # of connection points: 2
#     Edge 36, Type (0, 0), BuildingBlock: TEMPAE_clean_linker_10, # of connection points: 2
#     Edge 37, Type (0, 0), BuildingBlock: TEMPAE_clean_linker_10, # of connection points: 2
#     Edge 38, Type (0, 0), BuildingBlock: TEMPAE_clean_linker_10, # of connection points: 2
#     Edge 39, Type (0, 0), BuildingBlock: TEMPAE_clean_linker_10, # of connection points: 2
#     Edge 40, Type (0, 0), BuildingBlock: TEMPAE_clean_linker_10, # of connection points: 2
#     Edge 41, Type (0, 0), BuildingBlock: TEMPAE_clean_linker_10, # of connection points: 2
#     Edge 42, Type (0, 0), BuildingBlock: TEMPAE_clean_linker_10, # of connection points: 2
#     Edge 43, Type (0, 0), BuildingBlock: TEMPAE_clean_linker_10, # of connection points: 2
#     Edge 44, Type (0, 0), BuildingBlock: TEMPAE_clean_linker_10, # of connection points: 2
#     Edge 45, Type (0, 0), BuildingBlock: TEMPAE_clean_linker_10, # of connection points: 2
#     Edge 46, Type (0, 0), BuildingBlock: TEMPAE_clean_linker_10, # of connection points: 2
#     Edge 47, Type (0, 0), BuildingBlock: TEMPAE_clean_linker_10, # of connection points: 2
# Relax obj value: 0.061
# Max RMSD: 0.170
# Mean RMSD: 0.170
data_MOF--net-wme--node1-KUMBUR_clean_sbu_1--edge1-TEMPAE_clean_linker_10
_symmetry_space_group_name_H-M    P1
_symmetry_Int_Tables_number       1
_symmetry_cell_setting            triclinic
loop_
_symmetry_equiv_pos_as_xyz
'x, y, z'
_cell_length_a     39.63046
_cell_length_b     39.624055
_cell_length_c     54.544824
_cell_angle_alpha  89.863962
_cell_angle_beta   90.037182
_cell_angle_gamma 119.98615
loop_
_atom_site_label
_atom_site_type_symbol
_atom_site_fract_x
_atom_site_fract_y
_atom_site_fract_z
_atom_type_partial_charge
Tb0 Tb 0.24372 0.30866 0.13937 0.0
C1 C 0.12157 0.32925 0.07752 0.0
N2 N 0.16046 0.34527 0.07362 0.0
C3 C 0.14949 0.33526 0.03032 0.0
C4 C 0.095 0.3156 0.05785 0.0
C5 C 0.1748 0.34915 0.05037 0.0
C6 C 0.10939 0.31827 0.03407 0.0
C7 C 0.06874 0.31329 0.10602 0.0
C8 C 0.10845 0.32707 0.10139 0.0
C9 C 0.04212 0.29984 0.08646 0.0
C10 C 0.05514 0.30044 0.06249 0.0
Tb11 Tb 0.19824 0.36793 0.10786 0.0
N12 N 0.13486 0.33923 0.11998 0.0
C13 C 0.05718 0.3144 0.13009 0.0
C14 C 0.12366 0.34048 0.14345 0.0
C15 C 0.08466 0.32759 0.14891 0.0
H16 H 0.20574 0.36404 0.04704 0.0
H17 H 0.07601 0.32896 0.16754 0.0
H18 H 0.22606 0.29958 0.1994 0.0
H19 H 0.37714 0.36749 0.08707 0.0
H20 H 0.14471 0.35314 0.15785 0.0
H21 H 0.02728 0.30588 0.13429 0.0
H22 H 0.30614 0.33147 0.09298 0.0
H23 H 0.16098 0.33831 0.01194 0.0
H24 H 1.01141 0.28901 0.08965 0.0
H25 H 0.03424 0.28985 0.04761 0.0
H26 H 0.26487 0.32098 0.2373 0.0
H27 H 0.0899 0.308 0.01845 0.0
H28 H 0.42073 0.39523 0.12294 0.0
N29 N 0.27562 0.32651 0.17592 0.0
C30 C 0.31515 0.34652 0.17442 0.0
C31 C 0.27929 0.3293 0.21976 0.0
C32 C 0.33835 0.35998 0.19566 0.0
C33 C 0.25741 0.31725 0.1982 0.0
C34 C 0.31987 0.35133 0.21853 0.0
N35 N 0.30896 0.34019 0.13138 0.0
C36 C 0.32455 0.34388 0.10859 0.0
C37 C 0.37328 0.3738 0.14908 0.0
C38 C 0.33243 0.35314 0.15146 0.0
C39 C 0.38944 0.37949 0.12558 0.0
C40 C 0.36494 0.36403 0.10527 0.0
H41 H 0.33665 0.36075 0.23532 0.0
H42 H 0.39746 0.39186 0.20951 0.0
H43 H 0.42802 0.40415 0.16872 0.0
O44 O 0.23754 0.25852 0.12173 0.0
O45 O 0.28106 0.37359 0.13628 0.0
O46 O 0.26016 0.39325 0.10249 0.0
O47 O 0.245 0.26479 0.16053 0.0
O48 O 0.22709 0.29897 0.10062 0.0
O49 O 0.23577 0.35564 0.08302 0.0
O50 O 0.19741 0.41573 0.12422 0.0
O51 O 0.16351 0.30392 0.10798 0.0
O52 O 0.18074 0.28534 0.14361 0.0
O53 O 0.19791 0.41085 0.08509 0.0
O54 O 0.21526 0.37838 0.14763 0.0
O55 O 0.20511 0.31935 0.16202 0.0
C56 C 0.28619 0.39971 0.11934 0.0
C57 C 0.20231 0.20177 0.14577 0.0
C58 C 0.16948 0.13075 0.1416 0.0
C59 C 0.13595 0.12818 0.1523 0.0
C60 C 0.16857 0.198 0.15676 0.0
C61 C 0.13558 0.16153 0.15979 0.0
C62 C 0.20285 0.16792 0.13835 0.0
C63 C 0.23782 0.32316 0.082 0.0
C64 C 0.23647 0.2411 0.14219 0.0
C65 C 0.37913 0.38107 0.1934 0.0
C66 C 0.39654 0.388 0.17017 0.0
C67 C 0.15551 0.27907 0.12602 0.0
C68 C 0.21805 0.47385 0.10131 0.0
C69 C 0.21967 0.53653 0.10494 0.0
C70 C 0.25797 0.55508 0.09564 0.0
C71 C 0.25625 0.49328 0.09234 0.0
C72 C 0.19977 0.49552 0.10759 0.0
C73 C 0.27593 0.53364 0.08941 0.0
C74 C 0.20964 0.35399 0.16592 0.0
C75 C 0.19614 0.43097 0.10334 0.0
H76 H 0.1101 0.10013 0.15537 0.0
H77 H 0.16783 0.22328 0.16335 0.0
H78 H 0.10972 0.15906 0.16823 0.0
H79 H 0.22883 0.17051 0.12997 0.0
H80 H 0.27397 0.58629 0.09268 0.0
H81 H 0.27056 0.47716 0.08724 0.0
H82 H 0.1702 0.48043 0.11458 0.0
H83 H 0.3052 0.54847 0.08208 0.0
Tb84 Tb 0.93812 0.23032 0.63625 0.0
C85 C 0.79825 0.11666 0.5728 0.0
N86 N 0.82185 0.15578 0.56996 0.0
C87 C 0.82507 0.14725 0.52663 0.0
C88 C 0.78736 0.09123 0.55261 0.0
C89 C 0.8346 0.17142 0.54715 0.0
C90 C 0.80153 0.10698 0.52937 0.0
C91 C 0.75861 0.06213 0.59973 0.0
C92 C 0.78472 0.10212 0.59614 0.0
C93 C 0.74757 0.03666 0.57964 0.0
C94 C 0.76229 0.0511 0.5562 0.0
Tb95 Tb 0.8335 0.1913 0.60507 0.0
N96 N 0.79692 0.12742 0.61528 0.0
C97 C 0.74376 0.0492 0.62331 0.0
C98 C 0.78181 0.11516 0.63809 0.0
C99 C 0.75556 0.0758 0.64261 0.0
H100 H 0.85118 0.20252 0.54441 0.0
H101 H 0.74353 0.06622 0.66077 0.0
H102 H 0.9325 0.20681 0.69525 0.0
H103 H 0.02589 0.36578 0.58794 0.0
H104 H 0.78834 0.13597 0.65241 0.0
H105 H 0.72236 0.01899 0.6267 0.0
H106 H 0.98229 0.29504 0.59171 0.0
H107 H 0.83539 0.15977 0.50864 0.0
H108 H 0.72755 1.00576 0.582 0.0
H109 H 0.75356 0.03108 0.5409 0.0
H110 H 0.95678 0.24177 0.73451 0.0
H111 H 0.79389 0.0884 0.51338 0.0
H112 H 0.04901 0.40651 0.6253 0.0
N113 N 0.95898 0.25863 0.67367 0.0
C114 C 0.98211 0.29796 0.67351 0.0
C115 C 0.96361 0.25787 0.71749 0.0
C116 C 0.99646 0.31899 0.69548 0.0
C117 C 0.94988 0.23826 0.69523 0.0
C118 C 0.98658 0.29843 0.71767 0.0
N119 N 0.97812 0.29557 0.6304 0.0
C120 C 0.99089 0.3124 0.60795 0.0
C121 C 0.01786 0.35764 0.65002 0.0
C122 C 0.99243 0.31706 0.65113 0.0
C123 C 0.02938 0.3754 0.62697 0.0
C124 C 0.01627 0.35255 0.60584 0.0
H125 H 0.99712 0.31348 0.73496 0.0
H126 H 0.03199 0.37635 0.71126 0.0
H127 H 0.0509 0.41018 0.67142 0.0
O128 O 0.97392 0.21703 0.61471 0.0
O129 O 0.9164 0.27263 0.63522 0.0
O130 O 0.87035 0.25393 0.60406 0.0
O131 O 0.98004 0.22092 0.65387 0.0
O132 O 0.92833 0.21732 0.59689 0.0
O133 O 0.88343 0.23214 0.58159 0.0
O134 O 0.78364 0.1896 0.6203 0.0
O135 O 0.86196 0.15561 0.60507 0.0
O136 O 0.89451 0.1691 0.64158 0.0
O137 O 0.79227 0.1925 0.58132 0.0
O138 O 0.83845 0.20525 0.64528 0.0
O139 O 0.88816 0.19632 0.66011 0.0
C140 C 0.89166 0.27777 0.62153 0.0
C141 C 0.0356 0.23403 0.63082 0.0
C142 C 0.09415 0.22892 0.62564 0.0
C143 C 0.11648 0.26989 0.62509 0.0
C144 C 0.05843 0.27473 0.63017 0.0
C145 C 0.0987 0.29251 0.62734 0.0
C146 C 0.05351 0.21114 0.62869 0.0
C147 C 0.9171 0.23275 0.57969 0.0
C148 C 0.99311 0.21494 0.63349 0.0
C149 C 0.02079 0.35964 0.69456 0.0
C150 C 0.03154 0.37891 0.67187 0.0
C151 C 0.87568 0.14502 0.62363 0.0
C152 C 0.74804 0.21161 0.59647 0.0
C153 C 0.68698 0.21306 0.60049 0.0
C154 C 0.70498 0.24909 0.58801 0.0
C155 C 0.7652 0.2477 0.58445 0.0
C156 C 0.709 0.19442 0.60456 0.0
C157 C 0.74363 0.26615 0.58017 0.0
C158 C 0.85876 0.20226 0.66369 0.0
C159 C 0.76904 0.18982 0.59898 0.0
H160 H 0.14787 0.2845 0.62317 0.0
H161 H 0.04523 0.29275 0.63189 0.0
H162 H 0.11622 0.32397 0.62694 0.0
H163 H 0.0358 0.17962 0.62902 0.0
H164 H 0.68897 0.26391 0.58381 0.0
H165 H 0.79505 0.26131 0.57804 0.0
H166 H 0.69583 0.16649 0.61385 0.0
H167 H 0.75685 0.29375 0.57053 0.0
Tb168 Tb 0.71393 0.93496 0.13601 0.0
C169 C 0.69078 0.79306 0.07482 0.0
N170 N 0.67675 0.81762 0.07058 0.0
C171 C 0.69051 0.81884 0.02767 0.0
C172 C 0.7054 0.7805 0.0555 0.0
C173 C 0.67592 0.83021 0.04736 0.0
C174 C 0.70537 0.79393 0.03175 0.0
C175 C 0.70482 0.75512 0.10376 0.0
C176 C 0.69124 0.78118 0.09879 0.0
C177 C 0.71875 0.74196 0.08448 0.0
C178 C 0.71945 0.75495 0.06048 0.0
Tb179 Tb 0.65131 0.83117 0.10405 0.0
N180 N 0.67859 0.79539 0.11717 0.0
C181 C 0.70356 0.74269 0.12793 0.0
C182 C 0.67662 0.78261 0.14068 0.0
C183 C 0.68968 0.75671 0.14647 0.0
H184 H 0.66297 0.84801 0.04372 0.0
H185 H 0.68796 0.74668 0.16515 0.0
H186 H 0.73054 0.92611 0.19454 0.0
H187 H 0.65715 0.0171 0.09031 0.0
H188 H 0.6634 0.7905 0.15498 0.0
H189 H 0.71254 0.72171 0.13243 0.0
H190 H 0.68634 0.97511 0.0927 0.0
H191 H 0.68978 0.82886 0.00931 0.0
H192 H 0.72922 0.72183 0.08794 0.0
H193 H 0.73069 0.74486 0.04586 0.0
H194 H 0.72177 0.95033 0.23414 0.0
H195 H 0.71642 0.78498 0.01641 0.0
H196 H 0.64062 0.03948 0.12843 0.0
N197 N 0.70317 0.95153 0.17399 0.0
C198 C 0.68613 0.9739 0.17461 0.0
C199 C 0.7103 0.95592 0.21767 0.0
C200 C 0.6795 0.98736 0.19696 0.0
C201 C 0.71539 0.94244 0.19512 0.0
C202 C 0.6916 0.97782 0.2187 0.0
N203 N 0.68499 0.97204 0.1315 0.0
C204 C 0.67877 0.984 0.10933 0.0
C205 C 0.66086 0.00945 0.15224 0.0
C206 C 0.67719 0.985 0.1526 0.0
C207 C 0.65324 0.02077 0.12953 0.0
C208 C 0.66243 1.00812 0.10798 0.0
H209 H 0.68772 0.98818 0.23625 0.0
H210 H 0.6569 0.02153 0.21381 0.0
H211 H 0.64025 0.04061 0.17461 0.0
O212 O 0.75989 0.98361 0.11821 0.0
O213 O 0.64924 0.91028 0.13586 0.0
O214 O 0.62591 0.86851 0.10263 0.0
O215 O 0.76611 0.9687 0.15508 0.0
O216 O 0.72017 0.92754 0.09672 0.0
O217 O 0.66192 0.88167 0.08008 0.0
O218 O 0.60291 0.77972 0.11778 0.0
O219 O 0.71545 0.86017 0.10226 0.0
O220 O 0.73471 0.89313 0.13852 0.0
O221 O 0.60981 0.79175 0.07915 0.0
O222 O 0.64085 0.83587 0.14413 0.0
O223 O 0.70061 0.88373 0.15758 0.0
C224 C 0.6207 0.88692 0.12087 0.0
C225 C 0.80474 0.03424 0.1442 0.0
C226 C 0.86781 0.09388 0.14829 0.0
C227 C 0.84975 0.10921 0.16334 0.0
C228 C 0.78739 0.05074 0.15848 0.0
C229 C 0.80985 0.08802 0.16802 0.0
C230 C 0.84475 0.05599 0.1388 0.0
C231 C 0.6945 0.91615 0.07892 0.0
C232 C 0.78272 0.99307 0.13719 0.0
C233 C 0.66238 0.01102 0.1968 0.0
C234 C 0.65302 0.02199 0.17448 0.0
C235 C 0.74075 0.87542 0.12017 0.0
C236 C 0.54656 0.74335 0.09278 0.0
C237 C 0.48574 0.68095 0.09777 0.0
C238 C 0.46657 0.69598 0.08359 0.0
C239 C 0.52666 0.75734 0.07856 0.0
C240 C 0.52603 0.70492 0.1022 0.0
C241 C 0.48693 0.73367 0.07397 0.0
C242 C 0.66532 0.85537 0.16218 0.0
C243 C 0.58921 0.76668 0.09604 0.0
H244 H 0.86641 0.13748 0.17188 0.0
H245 H 0.75681 0.03447 0.16286 0.0
H246 H 0.79643 0.10028 0.17951 0.0
H247 H 0.85775 0.04312 0.12744 0.0
H248 H 0.43583 0.6782 0.07946 0.0
H249 H 0.54186 0.78643 0.07083 0.0
H250 H 0.54143 0.69367 0.11279 0.0
H251 H 0.4718 0.74457 0.06285 0.0
Tb252 Tb 0.78804 0.70773 0.63191 0.0
C253 C 0.90663 0.6846 0.56741 0.0
N254 N 0.8674 0.66837 0.56483 0.0
C255 C 0.87478 0.67626 0.52118 0.0
C256 C 0.93156 0.69764 0.54689 0.0
C257 C 0.85115 0.66335 0.54205 0.0
C258 C 0.91516 0.69362 0.52359 0.0
C259 C 0.96219 0.70396 0.59427 0.0
C260 C 0.92185 0.68811 0.59082 0.0
C261 C 0.98715 0.71689 0.57387 0.0
C262 C 0.9719 0.71397 0.55026 0.0
Tb263 Tb 0.83274 0.64734 0.60047 0.0
N264 N 0.89702 0.67668 0.61025 0.0
C265 C 0.97615 0.7062 0.61813 0.0
C266 C 0.91024 0.67729 0.6334 0.0
C267 C 0.95004 0.69278 0.63779 0.0
H268 H 0.81996 0.64832 0.53971 0.0
H269 H 0.96045 0.69356 0.65625 0.0
H270 H 0.80444 0.7155 0.69213 0.0
H271 H 0.65648 0.65901 0.57918 0.0
H272 H 0.89011 0.66471 0.64832 0.0
H273 H 1.00687 0.71749 0.6215 0.0
H274 H 0.72709 0.68928 0.58552 0.0
H275 H 0.86178 0.67229 0.50319 0.0
H276 H 0.01829 0.72938 0.57616 0.0
H277 H 0.99154 0.72419 0.5347 0.0
H278 H 0.76492 0.69488 0.72995 0.0
H279 H 0.93333 0.70331 0.50735 0.0
H280 H 0.61183 0.63375 0.61479 0.0
N281 N 0.75521 0.69112 0.66833 0.0
C282 C 0.71577 0.67299 0.6667 0.0
C283 C 0.75082 0.68827 0.71224 0.0
C284 C 0.6922 0.66127 0.68785 0.0
C285 C 0.77304 0.69958 0.69073 0.0
C286 C 0.71024 0.66872 0.71081 0.0
N287 N 0.72295 0.67913 0.62379 0.0
C288 C 0.70816 0.67729 0.60096 0.0
C289 C 0.65841 0.6502 0.64111 0.0
C290 C 0.69908 0.66734 0.64368 0.0
C291 C 0.64293 0.64666 0.61757 0.0
C292 C 0.66801 0.66069 0.59742 0.0
H293 H 0.69317 0.66017 0.72752 0.0
H294 H 0.63291 0.63388 0.70145 0.0
H295 H 0.60332 0.6243 0.6605 0.0
O296 O 0.78727 0.75497 0.61441 0.0
O297 O 0.75016 0.64299 0.63113 0.0
O298 O 0.76996 0.6209 0.5979 0.0
O299 O 0.80075 0.75691 0.65277 0.0
O300 O 0.80635 0.71615 0.59335 0.0
O301 O 0.79334 0.65811 0.57651 0.0
O302 O 0.83402 0.59984 0.61728 0.0
O303 O 0.86956 0.71163 0.60159 0.0
O304 O 0.85068 0.73079 0.63626 0.0
O305 O 0.83304 0.60437 0.57806 0.0
O306 O 0.81854 0.63784 0.64053 0.0
O307 O 0.82541 0.69567 0.65502 0.0
C308 C 0.74576 0.61511 0.6159 0.0
C309 C 0.77426 0.79532 0.64018 0.0
C310 C 0.77388 0.85674 0.64262 0.0
C311 C 0.73944 0.83744 0.6567 0.0
C312 C 0.73946 0.77667 0.65356 0.0
C313 C 0.72216 0.79769 0.66173 0.0
C314 C 0.791 0.83505 0.63434 0.0
C315 C 0.79272 0.69123 0.57519 0.0
C316 C 0.79584 0.77517 0.63457 0.0
C317 C 0.65154 0.64321 0.68541 0.0
C318 C 0.63468 0.63776 0.66209 0.0
C319 C 0.87669 0.73679 0.61933 0.0
C320 C 0.81458 0.54182 0.59436 0.0
C321 C 0.81667 0.48114 0.59705 0.0
C322 C 0.78002 0.46158 0.58561 0.0
C323 C 0.77799 0.52161 0.58307 0.0
C324 C 0.83365 0.52136 0.60167 0.0
C325 C 0.76084 0.48165 0.5788 0.0
C326 C 0.82198 0.66144 0.65873 0.0
C327 C 0.83525 0.58462 0.59643 0.0
H328 H 0.72597 0.85303 0.66432 0.0
H329 H 0.72633 0.74624 0.65836 0.0
H330 H 0.69572 0.78334 0.67252 0.0
H331 H 0.8176 0.84893 0.62365 0.0
H332 H 0.76624 0.43064 0.58188 0.0
H333 H 0.76303 0.53682 0.57719 0.0
H334 H 0.86229 0.53699 0.60999 0.0
H335 H 0.7327 0.46621 0.56992 0.0
Tb336 Tb 0.07723 0.76967 0.13123 0.0
C337 C 0.22406 0.89582 0.06979 0.0
N338 N 0.20394 0.85635 0.06782 0.0
C339 C 0.2093 0.86148 0.024 0.0
C340 C 0.23748 0.91978 0.04882 0.0
C341 C 0.19681 0.83889 0.04535 0.0
C342 C 0.22963 0.90209 0.02572 0.0
C343 C 0.25237 0.95301 0.09589 0.0
C344 C 0.23126 0.91225 0.09301 0.0
C345 C 0.26589 0.97704 0.07504 0.0
C346 C 0.25835 0.96047 0.05157 0.0
Tb347 Tb 0.18568 0.82316 0.10405 0.0
N348 N 0.2164 0.88812 0.11274 0.0
C349 C 0.25904 0.96835 0.11963 0.0
C350 C 0.22422 0.90287 0.13598 0.0
C351 C 0.24505 0.94316 0.13975 0.0
H352 H 0.18235 0.80754 0.04381 0.0
H353 H 0.25059 0.95474 0.15819 0.0
H354 H 0.0892 0.75019 0.18863 0.0
H355 H 0.99046 0.67381 0.05809 0.0
H356 H 0.21456 0.88389 0.15168 0.0
H357 H 0.27526 0.99952 0.12262 0.0
H358 H 0.02263 0.73533 0.08107 0.0
H359 H 0.20359 0.84755 0.00624 0.0
H360 H 0.28201 1.00846 0.07687 0.0
H361 H 0.26887 0.97939 0.03566 0.0
H362 H 0.0765 0.69287 0.21333 0.0
H363 H 0.23941 0.91949 0.00914 0.0
H364 H 0.98447 0.61401 0.07652 0.0
N365 N 0.06556 0.71826 0.156 0.0
C366 C 0.04634 0.68241 0.14553 0.0
C367 C 0.0681 0.68951 0.19422 0.0
C368 C 0.0384 0.64869 0.15881 0.0
C369 C 0.07566 0.72211 0.18017 0.0
C370 C 0.04966 0.65262 0.18344 0.0
N371 N 0.04265 0.71321 0.10943 0.0
C372 C 0.02388 0.71063 0.088 0.0
C373 C 0.01487 0.64333 0.10972 0.0
C374 C 0.03538 0.67996 0.12124 0.0
C375 C 1.00043 0.64153 0.08608 0.0
C376 C 1.004 0.67524 0.07549 0.0
H377 H 0.04408 0.62743 0.19431 0.0
H378 H 0.01374 0.58611 0.15684 0.0
H379 H 0.99268 0.58132 0.11387 0.0
O380 O 0.02482 0.77035 0.12302 0.0
O381 O 0.11537 0.74312 0.13353 0.0
O382 O 0.14976 0.76121 0.09778 0.0
O383 O 0.04106 0.76541 0.16041 0.0
O384 O 0.08708 0.79226 0.09359 0.0
O385 O 0.13751 0.78537 0.0782 0.0
O386 O 0.22896 0.81952 0.12474 0.0
O387 O 0.15631 0.85753 0.10391 0.0
O388 O 0.10898 0.83374 0.1343 0.0
O389 O 0.23523 0.82887 0.08588 0.0
O390 O 0.17827 0.81205 0.14458 0.0
O391 O 0.12098 0.80972 0.15636 0.0
C392 C 0.13308 0.736 0.1155 0.0
C393 C 0.9803 0.76536 0.15615 0.0
C394 C 0.92635 0.77872 0.15419 0.0
C395 C 0.91424 0.76169 0.17752 0.0
C396 C 0.96727 0.74843 0.17937 0.0
C397 C 0.93451 0.74668 0.18994 0.0
C398 C 0.9598 0.78078 0.1435 0.0
C399 C 0.10429 0.78557 0.07515 0.0
C400 C 0.01602 0.76763 0.14617 0.0
C401 C 0.01973 0.61235 0.14705 0.0
C402 C 1.00798 0.60967 0.12254 0.0
C403 C 0.13329 0.86166 0.11941 0.0
C404 C 0.27553 0.80753 0.1046 0.0
C405 C 0.33927 0.81168 0.1081 0.0
C406 C 0.3224 0.77329 0.09947 0.0
C407 C 0.2595 0.76931 0.09597 0.0
C408 C 0.3156 0.82874 0.11073 0.0
C409 C 0.28287 0.75234 0.09345 0.0
C410 C 0.15503 0.81358 0.16155 0.0
C411 C 0.25178 0.8267 0.1059 0.0
H412 H 0.889 0.7602 0.1863 0.0
H413 H 0.98248 0.73649 0.18946 0.0
H414 H 0.92483 0.73367 0.20788 0.0
H415 H 0.96963 0.79406 0.1256 0.0
H416 H 0.34001 0.75962 0.09718 0.0
H417 H 0.22914 0.75294 0.09081 0.0
H418 H 0.32844 0.85857 0.11705 0.0
H419 H 0.27041 0.72295 0.08653 0.0
Tb420 Tb 0.31296 0.07287 0.63364 0.0
C421 C 0.33216 0.21235 0.57283 0.0
N422 N 0.35338 0.19408 0.57154 0.0
C423 C 0.34953 0.19375 0.52755 0.0
C424 C 0.3178 0.22101 0.55148 0.0
C425 C 0.36463 0.18748 0.54915 0.0
C426 C 0.32532 0.20988 0.52874 0.0
C427 C 0.31278 0.25104 0.59704 0.0
C428 C 0.32908 0.22667 0.59529 0.0
C429 C 0.29725 0.25865 0.57598 0.0
C430 C 0.29901 0.24299 0.55334 0.0
Tb431 Tb 0.37445 0.1834 0.60843 0.0
N432 N 0.34592 0.22012 0.61498 0.0
C433 C 0.31482 0.26896 0.61953 0.0
C434 C 0.35108 0.24017 0.63633 0.0
C435 C 0.33469 0.26405 0.63915 0.0
H436 H 0.38536 0.17739 0.54779 0.0
H437 H 0.33763 0.27884 0.65635 0.0
H438 H 0.34918 0.08128 0.68927 0.0
H439 H 0.2994 0.97461 0.56102 0.0
H440 H 0.36703 0.23679 0.65133 0.0
H441 H 0.30253 0.28783 0.62165 0.0
H442 H 0.27916 0.01302 0.58618 0.0
H443 H 0.35743 0.18711 0.50996 0.0
H444 H 0.28501 0.2777 0.57683 0.0
H445 H 0.28778 0.24995 0.53716 0.0
H446 H 0.39566 0.06699 0.71047 0.0
H447 H 0.3146 0.21579 0.51193 0.0
H448 H 0.35528 0.96728 0.57427 0.0
N449 N 0.35342 0.05805 0.65527 0.0
C450 C 0.36726 0.03752 0.64328 0.0
C451 C 0.38822 0.05884 0.69147 0.0
C452 C 0.3938 0.02851 0.65446 0.0
C453 C 0.36204 0.06717 0.67943 0.0
C454 C 0.40471 0.03996 0.6788 0.0
N455 N 0.32647 0.03264 0.61075 0.0
C456 C 0.30536 0.01271 0.59077 0.0
C457 C 0.36569 1.00199 0.607 0.0
C458 C 0.35386 0.02507 0.61989 0.0
C459 C 0.34731 0.98544 0.58474 0.0
C460 C 0.31607 0.98981 0.57703 0.0
H461 H 0.42507 0.03363 0.68812 0.0
H462 H 0.42866 1.00092 0.64925 0.0
H463 H 0.40368 0.97724 0.60767 0.0
O464 O 0.26528 0.01507 0.63375 0.0
O465 O 0.37781 0.10916 0.63583 0.0
O466 O 0.39437 0.14297 0.6 0.0
O467 O 0.27521 0.0542 0.66427 0.0
O468 O 0.30046 0.08403 0.59636 0.0
O469 O 0.35855 0.13421 0.58162 0.0
O470 O 0.43012 0.21693 0.62465 0.0
O471 O 0.31925 0.16378 0.62759 0.0
O472 O 0.28103 0.09962 0.61696 0.0
O473 O 0.41432 0.23795 0.59311 0.0
O474 O 0.37838 0.17495 0.64873 0.0
O475 O 0.32302 0.11713 0.66066 0.0
C476 C 0.40215 0.12515 0.61733 0.0
C477 C 0.21793 0.98935 0.66696 0.0
C478 C 0.15084 0.93488 0.66602 0.0
C479 C 0.15205 0.93191 0.69165 0.0
C480 C 0.21807 0.98605 0.69255 0.0
C481 C 0.18536 0.95738 0.70477 0.0
C482 C 0.18404 0.96382 0.65363 0.0
C483 C 0.32486 0.10138 0.57817 0.0
C484 C 0.25296 0.02014 0.65464 0.0
C485 C 0.40784 1.00777 0.64113 0.0
C486 C 0.39376 0.99447 0.61741 0.0
C487 C 0.2851 0.13378 0.62251 0.0
C488 C 0.48176 0.2685 0.60185 0.0
C489 C 0.54268 0.33141 0.59857 0.0
C490 C 0.55883 0.31255 0.58518 0.0
C491 C 0.49856 0.25073 0.58831 0.0
C492 C 0.50394 0.30885 0.60711 0.0
C493 C 0.53696 0.27271 0.58011 0.0
C494 C 0.3541 0.15086 0.66574 0.0
C495 C 0.44066 0.24613 0.60971 0.0
H496 H 0.12687 0.91008 0.70161 0.0
H497 H 0.24366 1.00553 0.7031 0.0
H498 H 0.18577 0.95493 0.72452 0.0
H499 H 0.18349 0.96646 0.63387 0.0
H500 H 0.5886 0.32866 0.57866 0.0
H501 H 0.4819 0.22002 0.58395 0.0
H502 H 0.49073 0.32277 0.61725 0.0
H503 H 0.54987 0.25882 0.5697 0.0
Tb504 Tb 0.71407 0.78332 0.36938 0.0
C505 C 0.67882 0.88999 0.43734 0.0
N506 N 0.66437 0.85095 0.43948 0.0
C507 C 0.67191 0.85719 0.48316 0.0
C508 C 0.6909 0.91433 0.45809 0.0
C509 C 0.66028 0.83422 0.46201 0.0
C510 C 0.68742 0.89744 0.48119 0.0
C511 C 0.69666 0.94582 0.41099 0.0
C512 C 0.68147 0.90548 0.41414 0.0
C513 C 0.70885 0.97029 0.4316 0.0
C514 C 0.70592 0.95458 0.4551 0.0
Tb515 Tb 0.64573 0.81651 0.40376 0.0
N516 N 0.67059 0.88099 0.39459 0.0
C517 C 0.69944 0.96029 0.3872 0.0
C518 C 0.67125 0.89467 0.37154 0.0
C519 C 0.68633 0.93453 0.36742 0.0
H520 H 0.64715 0.80304 0.46387 0.0
H521 H 0.6874 0.94527 0.34901 0.0
H522 H 0.7164 0.79938 0.30946 0.0
H523 H 0.67511 0.65283 0.42177 0.0
H524 H 0.65951 0.87501 0.35637 0.0
H525 H 0.71115 0.99115 0.38396 0.0
H526 H 0.70324 0.72308 0.41538 0.0
H527 H 0.66859 0.84379 0.50097 0.0
H528 H 0.72072 1.00141 0.42956 0.0
H529 H 0.71545 0.97381 0.47082 0.0
H530 H 0.6955 0.75977 0.27166 0.0
H531 H 0.69632 0.91513 0.49762 0.0
H532 H 0.64935 0.60797 0.38639 0.0
N533 N 0.69807 0.7504 0.33307 0.0
C534 C 0.68272 0.71121 0.33463 0.0
C535 C 0.69157 0.74584 0.2893 0.0
C536 C 0.67032 0.68758 0.31356 0.0
C537 C 0.7032 0.76808 0.31077 0.0
C538 C 0.67472 0.70541 0.29071 0.0
N539 N 0.69096 0.71868 0.37738 0.0
C540 C 0.69085 0.70413 0.40006 0.0
C541 C 0.66348 0.65424 0.36012 0.0
C542 C 0.6793 0.69478 0.35755 0.0
C543 C 0.66126 0.63896 0.3836 0.0
C544 C 0.67553 0.66413 0.40362 0.0
H545 H 0.66554 0.6883 0.27405 0.0
H546 H 0.6441 0.62837 0.30002 0.0
H547 H 0.63815 0.59917 0.34083 0.0
O548 O 0.76558 0.78711 0.38373 0.0
O549 O 0.64989 0.74217 0.36858 0.0
O550 O 0.62951 0.75545 0.40476 0.0
O551 O 0.76302 0.8045 0.34673 0.0
O552 O 0.72218 0.79579 0.40903 0.0
O553 O 0.66296 0.78047 0.42637 0.0
O554 O 0.59526 0.81475 0.38921 0.0
O555 O 0.70935 0.85678 0.40492 0.0
O556 O 0.72937 0.84444 0.36854 0.0
O557 O 0.59783 0.80157 0.42696 0.0
O558 O 0.63675 0.80448 0.36332 0.0
O559 O 0.69714 0.81941 0.34856 0.0
C560 C 0.62302 0.7335 0.38553 0.0
C561 C 0.80986 0.78598 0.35454 0.0
C562 C 0.87497 0.7933 0.3528 0.0
C563 C 0.86223 0.76695 0.33299 0.0
C564 C 0.79774 0.75888 0.33538 0.0
C565 C 0.82392 0.74962 0.32462 0.0
C566 C 0.84835 0.80285 0.36341 0.0
C567 C 0.69784 0.78337 0.42773 0.0
C568 C 0.7845 0.80069 0.36323 0.0
C569 C 0.654 0.64706 0.31599 0.0
C570 C 0.6506 0.63043 0.33923 0.0
C571 C 0.73561 0.86691 0.38754 0.0
C572 C 0.56281 0.83436 0.41771 0.0
C573 C 0.51477 0.85609 0.41409 0.0
C574 C 0.5337 0.88271 0.43313 0.0
C575 C 0.58023 0.86072 0.43717 0.0
C576 C 0.52977 0.83219 0.40604 0.0
C577 C 0.5662 0.88505 0.4445 0.0
C578 C 0.66115 0.81124 0.34487 0.0
C579 C 0.57824 0.80835 0.41047 0.0
H580 H 0.88203 0.75994 0.32364 0.0
H581 H 0.76843 0.74585 0.32815 0.0
H582 H 0.81469 0.72945 0.30942 0.0
H583 H 0.85751 0.82362 0.37832 0.0
H584 H 0.52275 0.90132 0.43954 0.0
H585 H 0.60422 0.86211 0.44726 0.0
H586 H 0.51526 0.81144 0.3914 0.0
H587 H 0.58012 0.90525 0.45945 0.0
Tb588 Tb 0.94603 0.71666 0.87044 0.0
C589 C 0.80653 0.68926 0.93053 0.0
N590 N 0.82846 0.67185 0.93319 0.0
C591 C 0.83177 0.68312 0.97665 0.0
C592 C 0.79767 0.70561 0.95074 0.0
C593 C 0.8384 0.66599 0.95622 0.0
C594 C 0.81202 0.70377 0.97383 0.0
C595 C 0.76292 0.70046 0.90496 0.0
C596 C 0.78958 0.6871 0.90796 0.0
C597 C 0.75484 0.71768 0.92487 0.0
C598 C 0.77271 0.7209 0.94759 0.0
Tb599 Tb 0.83855 0.64657 0.89784 0.0
N600 N 0.79748 0.6696 0.88926 0.0
C601 C 0.74394 0.69453 0.88238 0.0
C602 C 0.77689 0.661 0.86782 0.0
C603 C 0.75054 0.67419 0.86384 0.0
H604 H 0.85058 0.64733 0.95918 0.0
H605 H 0.7352 0.6685 0.84656 0.0
H606 H 0.93974 0.72831 0.81009 0.0
H607 H 0.02822 0.66639 0.92304 0.0
H608 H 0.78172 0.64482 0.85365 0.0
H609 H 0.72333 0.70451 0.87932 0.0
H610 H 0.98769 0.69652 0.91726 0.0
H611 H 0.84084 0.67933 0.99468 0.0
H612 H 0.73392 0.72753 0.9231 0.0
H613 H 0.76555 0.73356 0.96291 0.0
H614 H 0.96179 0.7115 0.77241 0.0
H615 H 0.80599 0.7161 0.9898 0.0
H616 H 0.04937 0.64391 0.88698 0.0
N617 N 0.96287 0.70193 0.8338 0.0
C618 C 0.98549 0.68511 0.83547 0.0
C619 C 0.96769 0.70293 0.78997 0.0
C620 C 0.99856 0.67488 0.81423 0.0
C621 C 0.95501 0.71218 0.81148 0.0
C622 C 0.98892 0.68356 0.7913 0.0
N623 N 0.98422 0.69012 0.87874 0.0
C624 C 0.99593 0.68639 0.90157 0.0
C625 C 0.0203 0.6621 0.86091 0.0
C626 C 0.99673 0.67927 0.85858 0.0
C627 C 0.03129 0.65702 0.88441 0.0
C628 C 0.01936 0.66959 0.90481 0.0
H629 H 0.99872 0.67652 0.77455 0.0
H630 H 0.03174 0.64905 0.8004 0.0
H631 H 0.0504 0.63749 0.84124 0.0
O632 O 1.00223 0.76095 0.88002 0.0
O633 O 0.92017 0.65191 0.86937 0.0
O634 O 0.881 0.62819 0.90358 0.0
O635 O 0.97027 0.7694 0.85077 0.0
O636 O 0.93546 0.72259 0.90891 0.0
O637 O 0.88898 0.66307 0.92394 0.0
O638 O 0.80194 0.59167 0.88148 0.0
O639 O 0.85246 0.701 0.87949 0.0
O640 O 0.9153 0.74136 0.89048 0.0
O641 O 0.78914 0.60498 0.91714 0.0
O642 O 0.84894 0.64158 0.85801 0.0
O643 O 0.8977 0.70317 0.84567 0.0
C644 C 0.90089 0.62427 0.88582 0.0
C645 C 0.03901 0.8099 0.85087 0.0
C646 C 0.09706 0.874 0.8463 0.0
C647 C 0.10998 0.85878 0.82755 0.0
C648 C 0.05255 0.79523 0.83236 0.0
C649 C 0.08786 0.81971 0.8207 0.0
C650 C 0.06122 0.84924 0.85777 0.0
C651 C 0.92222 0.69678 0.92655 0.0
C652 C 1.00225 0.785 0.86368 0.0
C653 C 0.02163 0.6573 0.81653 0.0
C654 C 0.03236 0.65082 0.83979 0.0
C655 C 0.88083 0.73577 0.88481 0.0
C656 C 0.75458 0.53852 0.90553 0.0
C657 C 0.69128 0.47854 0.9074 0.0
C658 C 0.70842 0.4613 0.9214 0.0
C659 C 0.77122 0.52069 0.91927 0.0
C660 C 0.7147 0.51721 0.8993 0.0
C661 C 0.7481 0.48217 0.92716 0.0
C662 C 0.86803 0.66835 0.84083 0.0
C663 C 0.77686 0.58013 0.89929 0.0
H664 H 0.13719 0.87715 0.8181 0.0
H665 H 0.03603 0.76505 0.82695 0.0
H666 H 0.09819 0.80834 0.80633 0.0
H667 H 0.05097 0.86029 0.87244 0.0
H668 H 0.69102 0.4316 0.92792 0.0
H669 H 0.80174 0.53676 0.9243 0.0
H670 H 0.7016 0.53115 0.88897 0.0
H671 H 0.76074 0.46859 0.93816 0.0
Tb672 Tb 0.24966 0.94857 0.37264 0.0
C673 C 0.1267 0.80137 0.43361 0.0
N674 N 0.16595 0.82356 0.43632 0.0
C675 C 0.15868 0.82061 0.48007 0.0
C676 C 0.1018 0.78788 0.45414 0.0
C677 C 0.18228 0.83272 0.45916 0.0
C678 C 0.11826 0.79823 0.47756 0.0
C679 C 0.0713 0.76663 0.40654 0.0
C680 C 0.1115 0.79167 0.41009 0.0
C681 C 0.0463 0.75316 0.42692 0.0
C682 C 0.06146 0.76413 0.45065 0.0
Tb683 Tb 0.20071 0.84044 0.40066 0.0
N684 N 0.1363 0.80668 0.3907 0.0
C685 C 0.05761 0.75527 0.38264 0.0
C686 C 0.12295 0.79586 0.36732 0.0
C687 C 0.08343 0.7703 0.36294 0.0
H688 H 0.21352 0.84847 0.46145 0.0
H689 H 0.07306 0.7615 0.34439 0.0
H690 H 0.27051 0.93639 0.31566 0.0
H691 H 0.34341 0.0432 0.44403 0.0
H692 H 0.14254 0.80553 0.35199 0.0
H693 H 0.02728 0.73436 0.37921 0.0
H694 H 0.28212 1.00699 0.42099 0.0
H695 H 0.17172 0.82805 0.49812 0.0
H696 H 0.01521 0.73424 0.42453 0.0
H697 H 0.04182 0.75353 0.4662 0.0
H698 H 0.32845 0.94879 0.29182 0.0
H699 H 0.1001 0.78854 0.49381 0.0
H700 H 0.40437 0.05016 0.42678 0.0
N701 N 0.30183 0.9615 0.34829 0.0
C702 C 0.33753 0.9819 0.35888 0.0
C703 C 0.33142 0.95797 0.31076 0.0
C704 C 0.37158 0.98982 0.3461 0.0
C705 C 0.29848 0.95064 0.3243 0.0
C706 C 0.36812 0.97724 0.3218 0.0
N707 N 0.3058 0.98641 0.39415 0.0
C708 C 0.30749 1.00646 0.41478 0.0
C709 C 0.37593 0.0168 0.39422 0.0
C710 C 0.33947 0.9943 0.38276 0.0
C711 C 0.37702 0.03269 0.41728 0.0
C712 C 0.34268 0.0285 0.42723 0.0
H713 H 0.39359 0.98277 0.3113 0.0
H714 H 0.43434 0.01628 0.34854 0.0
H715 H 0.43823 0.04043 0.39062 0.0
O716 O 0.24445 0.99856 0.3804 0.0
O717 O 0.27801 0.9122 0.3703 0.0
O718 O 0.26303 0.87659 0.40578 0.0
O719 O 0.25289 0.98428 0.34328 0.0
O720 O 0.22851 0.93807 0.41053 0.0
O721 O 0.23846 0.88946 0.42589 0.0
O722 O 0.20338 0.79546 0.38152 0.0
O723 O 0.1649 0.86843 0.40126 0.0
O724 O 0.18571 0.91372 0.3697 0.0
O725 O 0.19774 0.79339 0.42065 0.0
O726 O 0.212 0.84794 0.36012 0.0
O727 O 0.21049 0.90327 0.34794 0.0
C728 C 0.28736 0.89587 0.3881 0.0
C729 C 0.24769 0.04251 0.34731 0.0
C730 C 0.23361 0.09599 0.35027 0.0
C731 C 0.24774 0.10723 0.32626 0.0
C732 C 0.26158 0.05464 0.32337 0.0
C733 C 0.26153 0.08669 0.31297 0.0
C734 C 0.23334 0.06322 0.36082 0.0
C735 C 0.23745 0.92226 0.42879 0.0
C736 C 0.24797 1.00787 0.35731 0.0
C737 C 0.40781 0.0102 0.35794 0.0
C738 C 0.41 0.02379 0.38195 0.0
C739 C 0.15883 0.8895 0.38515 0.0
C740 C 0.21951 0.75281 0.40291 0.0
C741 C 0.21888 0.6904 0.39959 0.0
C742 C 0.25721 0.70937 0.40884 0.0
C743 C 0.25782 0.77071 0.41159 0.0
C744 C 0.20006 0.71263 0.39685 0.0
C745 C 0.27637 0.74895 0.41461 0.0
C746 C 0.20872 0.87004 0.34296 0.0
C747 C 0.19866 0.77495 0.40123 0.0
H748 H 0.24794 0.13202 0.31768 0.0
H749 H 0.27265 0.03935 0.31258 0.0
H750 H 0.27228 0.0957 0.2945 0.0
H751 H 0.22243 0.0542 0.37929 0.0
H752 H 0.27245 0.69348 0.41211 0.0
H753 H 0.27311 0.80132 0.41642 0.0
H754 H 0.17045 0.69888 0.39002 0.0
H755 H 0.30566 0.76257 0.42177 0.0
Tb756 Tb 0.31474 0.24839 0.87612 0.0
C757 C 0.32844 0.11765 0.93295 0.0
N758 N 0.34468 0.15644 0.93744 0.0
C759 C 0.33166 0.14346 0.98043 0.0
C760 C 0.3132 0.09018 0.95216 0.0
C761 C 0.34722 0.16971 0.96087 0.0
C762 C 0.31447 0.10352 0.97606 0.0
C763 C 0.31372 0.06591 0.90385 0.0
C764 C 0.32761 0.10552 0.90895 0.0
C765 C 0.29865 0.03843 0.92295 0.0
C766 C 0.29787 0.05046 0.94698 0.0
Tb767 Tb 0.37075 0.1956 0.90394 0.0
N768 N 0.34117 0.13271 0.89072 0.0
C769 C 0.31635 0.05528 0.87982 0.0
C770 C 0.34329 0.12224 0.86719 0.0
C771 C 0.33059 0.08341 0.86135 0.0
H772 H 0.36226 0.20048 0.96482 0.0
H773 H 0.33287 0.0754 0.84273 0.0
H774 H 0.34807 0.26847 0.81907 0.0
H775 H 0.31277 0.34134 0.94738 0.0
H776 H 0.35642 0.14358 0.85294 0.0
H777 H 0.30811 0.02553 0.87538 0.0
H778 H 0.29015 0.27953 0.92567 0.0
H779 H 0.33363 0.15411 0.99893 0.0
H780 H 0.28757 1.00779 0.91933 0.0
H781 H 0.28609 0.0289 0.9615 0.0
H782 H 0.38938 0.32651 0.79404 0.0
H783 H 0.30295 0.08331 0.99132 0.0
H784 H 0.36221 0.40313 0.92838 0.0
N785 N 0.35209 0.30027 0.85108 0.0
C786 C 0.36511 0.33609 0.861 0.0
C787 C 0.38307 0.32967 0.81292 0.0
C788 C 0.38858 0.37027 0.84741 0.0
C789 C 0.35994 0.29667 0.82719 0.0
C790 C 0.39773 0.36668 0.82313 0.0
N791 N 0.33194 0.3044 0.89727 0.0
C792 C 0.31445 0.30554 0.91848 0.0
C793 C 0.36752 0.37474 0.89594 0.0
C794 C 0.35529 0.33817 0.88505 0.0
C795 C 0.35368 0.3757 0.91933 0.0
C796 C 0.32611 0.3409 0.93031 0.0
H797 H 0.4157 0.39222 0.81206 0.0
H798 H 0.42044 0.43338 0.84843 0.0
H799 H 0.40163 0.43732 0.89089 0.0
O800 O 0.25888 0.24182 0.88432 0.0
O801 O 0.37976 0.27958 0.87469 0.0
O802 O 0.39856 0.25811 0.90845 0.0
O803 O 0.28226 0.25226 0.84728 0.0
O804 O 0.304 0.22658 0.91401 0.0
O805 O 0.36211 0.23508 0.92907 0.0
O806 O 0.41981 0.19591 0.88806 0.0
O807 O 0.30675 0.163 0.9038 0.0
O808 O 0.28672 0.18492 0.87072 0.0
O809 O 0.41027 0.19001 0.92696 0.0
O810 O 0.37832 0.2102 0.86382 0.0
O811 O 0.32302 0.21114 0.85086 0.0
C812 C 0.40648 0.28297 0.89055 0.0
C813 C 0.21899 0.2468 0.85115 0.0
C814 C 0.15209 0.23457 0.85387 0.0
C815 C 0.15542 0.24843 0.82973 0.0
C816 C 0.22124 0.2606 0.8271 0.0
C817 C 0.18968 0.26129 0.81651 0.0
C818 C 0.18401 0.23343 0.86459 0.0
C819 C 0.32909 0.23561 0.93206 0.0
C820 C 0.25355 0.24668 0.86134 0.0
C821 C 0.40214 0.40675 0.8585 0.0
C822 C 0.39165 0.40898 0.88273 0.0
C823 C 0.28254 0.15698 0.88574 0.0
C824 C 0.47384 0.20632 0.91339 0.0
C825 C 0.53221 0.19991 0.91032 0.0
C826 C 0.55178 0.23211 0.92591 0.0
C827 C 0.4941 0.23831 0.92904 0.0
C828 C 0.49312 0.18715 0.90396 0.0
C829 C 0.53286 0.25111 0.93517 0.0
C830 C 0.35434 0.20884 0.84631 0.0
C831 C 0.43164 0.18977 0.90899 0.0
H832 H 0.13122 0.24913 0.82098 0.0
H833 H 0.24759 0.27106 0.81634 0.0
H834 H 0.1918 0.2719 0.79795 0.0
H835 H 0.18176 0.2227 0.88316 0.0
H836 H 0.58174 0.24232 0.93114 0.0
H837 H 0.47982 0.25312 0.93673 0.0
H838 H 0.47746 0.16176 0.89237 0.0
H839 H 0.54825 0.27574 0.94732 0.0
Tb840 Tb 0.08164 0.31195 0.37285 0.0
C841 C 0.22259 0.3331 0.43535 0.0
N842 N 0.19996 0.34934 0.43944 0.0
C843 C 0.19856 0.336 0.48246 0.0
C844 C 0.23393 0.31736 0.45472 0.0
C845 C 0.18846 0.35167 0.46267 0.0
C846 C 0.22121 0.31856 0.47846 0.0
C847 C 0.26033 0.3186 0.40672 0.0
C848 C 0.23521 0.3333 0.41164 0.0
C849 C 0.27147 0.30251 0.4259 0.0
C850 C 0.25809 0.30165 0.44981 0.0
Tb851 Tb 0.18539 0.3739 0.40576 0.0
N852 N 0.22325 0.34854 0.39351 0.0
C853 C 0.2741 0.32133 0.38277 0.0
C854 C 0.23821 0.35302 0.37046 0.0
C855 C 0.26307 0.33872 0.36458 0.0
H856 H 0.1723 0.36641 0.46615 0.0
H857 H 0.27456 0.34208 0.34618 0.0
H858 H 0.09257 0.30015 0.31342 0.0
H859 H 1.0051 0.37257 0.42078 0.0
H860 H 0.23259 0.36908 0.35677 0.0
H861 H 0.29422 0.31129 0.37829 0.0
H862 H 0.04219 0.33813 0.41737 0.0
H863 H 0.18927 0.33782 0.50082 0.0
H864 H 0.2907 0.29096 0.42249 0.0
H865 H 0.26709 0.28933 0.46444 0.0
H866 H 0.07656 0.31989 0.27416 0.0
H867 H 0.22928 0.30676 0.49387 0.0
H868 H 0.98773 0.39591 0.38333 0.0
N869 N 0.06762 0.3267 0.33519 0.0
C870 C 0.04726 0.34594 0.33537 0.0
C871 C 0.06847 0.32764 0.29124 0.0
C872 C 0.03736 0.35751 0.31335 0.0
C873 C 0.07777 0.31684 0.31354 0.0
C874 C 0.04852 0.34838 0.29112 0.0
N875 N 0.04723 0.3432 0.37867 0.0
C876 C 0.03527 0.34851 0.40104 0.0
C877 C 0.01494 0.37366 0.35878 0.0
C878 C 0.03614 0.35389 0.35779 0.0
C879 C 1.00409 0.38081 0.38176 0.0
C880 C 0.01397 0.36782 0.40296 0.0
H881 H 0.04149 0.35677 0.27378 0.0
H882 H 1.00875 0.38684 0.2975 0.0
H883 H 0.98913 0.40099 0.33725 0.0
O884 O 0.03715 0.2628 0.39109 0.0
O885 O 0.1083 0.37694 0.37409 0.0
O886 O 0.14485 0.39507 0.40916 0.0
O887 O 0.03784 0.26642 0.35201 0.0
O888 O 0.0868 0.30309 0.4122 0.0
O889 O 0.13423 0.36013 0.42983 0.0
O890 O 0.23316 0.42516 0.39116 0.0
O891 O 0.15711 0.3096 0.40598 0.0
O892 O 0.12231 0.28961 0.37 0.0
O893 O 0.2232 0.41847 0.42979 0.0
O894 O 0.18023 0.383 0.36556 0.0
O895 O 0.1322 0.32346 0.35117 0.0
C896 C 0.12896 0.40329 0.39087 0.0
C897 C 0.01549 0.20425 0.36911 0.0
C898 C 0.97451 0.13347 0.37376 0.0
C899 C 1.00589 0.12933 0.36544 0.0
C900 C 0.04596 0.19894 0.36069 0.0
C901 C 0.04126 0.1618 0.35905 0.0
C902 C 0.97955 0.17135 0.37554 0.0
C903 C 0.09994 0.32727 0.43084 0.0
C904 C 0.02151 0.24412 0.37087 0.0
C905 C 0.01652 0.37758 0.31423 0.0
C906 C 1.00531 0.38561 0.33688 0.0
C907 C 0.14207 0.28477 0.38776 0.0
C908 C 0.28947 0.45236 0.41664 0.0
C909 C 0.35938 0.49706 0.40899 0.0
C910 C 0.36797 0.47379 0.42431 0.0
C911 C 0.29964 0.43066 0.43231 0.0
C912 C 0.31979 0.48624 0.40516 0.0
C913 C 0.33839 0.44105 0.43589 0.0
C914 C 0.16193 0.35839 0.34734 0.0
C915 C 0.24746 0.43946 0.4126 0.0
H916 H 1.00288 0.10077 0.36339 0.0
H917 H 0.07327 0.22353 0.355 0.0
H918 H 0.06502 0.15813 0.35252 0.0
H919 H 0.95586 0.17523 0.382 0.0
H920 H 0.3979 0.48147 0.42776 0.0
H921 H 0.27771 0.40579 0.44219 0.0
H922 H 0.31267 0.50376 0.39329 0.0
H923 H 0.34556 0.42379 0.44793 0.0
Tb924 Tb 0.78548 0.08207 0.87455 0.0
C925 C 0.90317 0.22781 0.93348 0.0
N926 N 0.86454 0.20412 0.93794 0.0
C927 C 0.87741 0.20508 0.98099 0.0
C928 C 0.93057 0.2409 0.95269 0.0
C929 C 0.85127 0.19306 0.96136 0.0
C930 C 0.91725 0.22898 0.97665 0.0
C931 C 0.95473 0.26443 0.90413 0.0
C932 C 0.91508 0.23914 0.90949 0.0
C933 C 0.98222 0.2776 0.92321 0.0
C934 C 0.9702 0.26569 0.9474 0.0
Tb935 Tb 0.8247 0.18722 0.90456 0.0
N936 N 0.88768 0.22514 0.89145 0.0
C937 C 0.96548 0.27604 0.87981 0.0
C938 C 0.89796 0.23769 0.86786 0.0
C939 C 0.93696 0.26263 0.86162 0.0
H940 H 0.82048 0.17569 0.96512 0.0
H941 H 0.94489 0.27222 0.84284 0.0
H942 H 0.80127 0.08977 0.81447 0.0
H943 H 0.6556 0.9965 0.92846 0.0
H944 H 0.87642 0.23 0.85381 0.0
H945 H 0.99553 0.29601 0.87495 0.0
H946 H 0.72589 0.0381 0.9216 0.0
H947 H 0.86676 0.19623 0.99951 0.0
H948 H 1.01284 0.29708 0.91946 0.0
H949 H 0.99174 0.27606 0.96191 0.0
H950 H 0.7615 0.06801 0.77688 0.0
H951 H 0.93739 0.23842 0.99193 0.0
H952 H 0.6104 0.97475 0.89311 0.0
N953 N 0.75242 0.063 0.83842 0.0
C954 C 0.71315 0.04005 0.84035 0.0
C955 C 0.74752 0.06058 0.7946 0.0
C956 C 0.68933 0.02699 0.81936 0.0
C957 C 0.76994 0.07306 0.81595 0.0
C958 C 0.70702 0.03782 0.79627 0.0
N959 N 0.72091 0.04314 0.8833 0.0
C960 C 0.70668 0.03047 0.90628 0.0
C961 C 0.65638 1.00485 0.86639 0.0
C962 C 0.69686 0.02935 0.86353 0.0
C963 C 0.64135 0.99365 0.8901 0.0
C964 C 0.66672 1.00608 0.91011 0.0
H965 H 0.68977 0.02825 0.77966 0.0
H966 H 0.62998 0.99308 0.80617 0.0
H967 H 0.60115 0.97356 0.84737 0.0
O968 O 0.79588 0.04188 0.89338 0.0
O969 O 0.74471 0.10585 0.87394 0.0
O970 O 0.76364 0.14458 0.90778 0.0
O971 O 0.79409 0.0421 0.85397 0.0
O972 O 0.79997 0.0899 0.91378 0.0
O973 O 0.78794 0.13686 0.92948 0.0
O974 O 0.82135 0.23504 0.88985 0.0
O975 O 0.86186 0.16037 0.90639 0.0
O976 O 0.84769 0.12491 0.87091 0.0
O977 O 0.8153 0.22353 0.92833 0.0
O978 O 0.81004 0.18024 0.86428 0.0
O979 O 0.82255 0.13208 0.85174 0.0
C980 C 0.73992 0.12868 0.88942 0.0
C981 C 0.77822 0.9828 0.8735 0.0
C982 C 0.78159 0.92323 0.87718 0.0
C983 C 0.7407 0.90142 0.87572 0.0
C984 C 0.73753 0.96062 0.87205 0.0
C985 C 0.71891 0.92006 0.87309 0.0
C986 C 0.80023 0.96407 0.87587 0.0
C987 C 0.78888 0.10389 0.93191 0.0
C988 C 0.79833 0.02544 0.87334 0.0
C989 C 0.64881 1.00329 0.82209 0.0
C990 C 0.63239 0.99218 0.84555 0.0
C991 C 0.87183 0.14445 0.88882 0.0
C992 C 0.84694 0.29019 0.91628 0.0
C993 C 0.86892 0.3597 0.91054 0.0
C994 C 0.89975 0.369 0.9268 0.0
C995 C 0.87764 0.30076 0.933 0.0
C996 C 0.8425 0.32009 0.90509 0.0
C997 C 0.90401 0.33973 0.93793 0.0
C998 C 0.81672 0.16115 0.8467 0.0
C999 C 0.81925 0.2482 0.91128 0.0
H1000 H 0.72562 0.86988 0.87644 0.0
H1001 H 0.7202 0.97456 0.87022 0.0
H1002 H 0.68747 0.903 0.87195 0.0
H1003 H 0.83171 0.98127 0.87723 0.0
H1004 H 0.92023 0.39913 0.93123 0.0
H1005 H 0.88103 0.27899 0.94273 0.0
H1006 H 0.81858 0.31265 0.89255 0.0
H1007 H 0.92755 0.34727 0.95077 0.0
C1008 C 0.15629 0.92831 0.10232 0.0
C1009 C 0.1381 0.90123 0.12137 0.0
C1010 C 0.16467 0.96701 0.10451 0.0
C1011 C 0.15358 0.97887 0.12603 0.0
C1012 C 0.13434 0.95146 0.14512 0.0
C1013 C 0.127 0.91302 0.14262 0.0
C1014 C 0.18569 0.99525 0.08384 0.0
C1015 C 0.12143 0.96277 0.16819 0.0
C1016 C 0.19821 0.08657 0.14215 0.0
C1017 C 0.1687 0.09404 0.1346 0.0
C1018 C 0.19421 0.04944 0.13898 0.0
C1019 C 0.15999 0.01924 0.12797 0.0
C1020 C 0.13109 0.02729 0.11928 0.0
C1021 C 0.13589 0.06453 0.12259 0.0
C1022 C 0.22601 0.04216 0.14802 0.0
C1023 C 0.09435 0.99614 0.10722 0.0
H1024 H 0.16429 0.91934 0.08561 0.0
H1025 H 0.11309 0.89239 0.15747 0.0
H1026 H 0.16901 0.00939 0.07775 0.0
H1027 H 0.21446 0.01863 0.09038 0.0
H1028 H 0.1904 0.98087 0.0678 0.0
H1029 H 0.10717 0.93821 0.18142 0.0
H1030 H 0.14686 0.98737 0.17728 0.0
H1031 H 0.10066 0.97286 0.16351 0.0
H1032 H 0.22358 0.1092 0.1515 0.0
H1033 H 0.11329 0.07032 0.11636 0.0
H1034 H 0.23675 0.03175 0.13268 0.0
H1035 H 0.21428 0.01891 0.16219 0.0
H1036 H 0.251 0.06872 0.15592 0.0
H1037 H 0.10175 0.98364 0.09132 0.0
H1038 H 0.07526 1.00745 0.10079 0.0
H1039 H 0.0777 0.97203 0.1204 0.0
C1040 C 0.25209 0.168 0.63964 0.0
C1041 C 0.25062 0.13898 0.62427 0.0
C1042 C 0.2224 0.17742 0.63956 0.0
C1043 C 0.18953 0.15645 0.62426 0.0
C1044 C 0.18666 0.12542 0.60978 0.0
C1045 C 0.21738 0.11713 0.60986 0.0
C1046 C 0.22713 0.21102 0.65512 0.0
C1047 C 0.15189 0.10204 0.59348 0.0
C1048 C 0.10621 0.17495 0.6393 0.0
C1049 C 0.1139 0.20552 0.62304 0.0
C1050 C 0.12905 0.15679 0.63897 0.0
C1051 C 0.16023 0.16957 0.62204 0.0
C1052 C 0.16623 0.19858 0.60461 0.0
C1053 C 0.14302 0.21605 0.60528 0.0
C1054 C 0.12126 0.12553 0.65761 0.0
C1055 C 0.19957 0.21391 0.5867 0.0
H1056 H 0.27696 0.18393 0.65155 0.0
H1057 H 0.21597 0.0945 0.59804 0.0
H1058 H 0.22921 0.23465 0.64313 0.0
H1059 H 0.20135 0.20158 0.66711 0.0
H1060 H 0.2536 0.2232 0.66681 0.0
H1061 H 0.15188 0.07624 0.58556 0.0
H1062 H 0.12449 0.09209 0.60394 0.0
H1063 H 0.152 0.12068 0.57823 0.0
H1064 H 0.08366 0.16656 0.65305 0.0
H1065 H 0.14864 0.23915 0.59237 0.0
H1066 H 0.1446 0.13732 0.67167 0.0
H1067 H 0.12163 0.10053 0.64876 0.0
H1068 H 0.09282 0.11484 0.66699 0.0
H1069 H 0.22684 0.23118 0.59716 0.0
H1070 H 0.19764 0.23295 0.57245 0.0
H1071 H 0.20119 0.18977 0.57759 0.0
C1072 C 0.92802 0.15828 0.14134 0.0
C1073 C 0.91046 0.11764 0.14292 0.0
C1074 C 0.96829 0.18193 0.1387 0.0
C1075 C 0.99199 0.16486 0.136 0.0
C1076 C 0.97453 0.12376 0.13625 0.0
C1077 C 0.93403 0.10059 0.1401 0.0
C1078 C 0.9854 0.22539 0.13887 0.0
C1079 C 0.99872 0.10442 0.13271 0.0
C1080 C 0.09078 0.23313 0.10764 0.0
C1081 C 0.11477 0.24684 0.1284 0.0
C1082 C 0.05115 0.20508 0.10969 0.0
C1083 C 0.03497 0.19048 0.13313 0.0
C1084 C 0.05933 0.2035 0.1541 0.0
C1085 C 0.09894 0.23149 0.15147 0.0
C1086 C 0.02637 0.19216 0.08684 0.0
C1087 C 0.04316 0.18941 0.17947 0.0
H1088 H 0.91028 0.17197 0.14237 0.0
H1089 H 0.92114 0.06926 0.14134 0.0
H1090 H 1.00964 0.23889 0.15228 0.0
H1091 H 0.99727 0.23691 0.12046 0.0
H1092 H 0.96361 0.23421 0.14353 0.0
H1093 H 0.98059 0.07215 0.13216 0.0
H1094 H 0.01554 0.11471 0.11538 0.0
H1095 H 0.02013 0.11267 0.14784 0.0
H1096 H 0.10289 0.24487 0.08974 0.0
H1097 H 0.11715 0.24245 0.16764 0.0
H1098 H 1.00607 0.20378 0.08697 0.0
H1099 H 1.00848 0.1599 0.08627 0.0
H1100 H 0.04421 0.20254 0.06986 0.0
H1101 H 0.02229 0.19937 0.18414 0.0
H1102 H 0.06636 0.20036 0.19366 0.0
H1103 H 0.02693 0.15711 0.1801 0.0
C1104 C 0.83253 0.92381 0.63536 0.0
C1105 C 0.79189 0.89935 0.63727 0.0
C1106 C 0.84915 0.96422 0.63162 0.0
C1107 C 0.82474 0.98078 0.63072 0.0
C1108 C 0.78393 0.95627 0.6324 0.0
C1109 C 0.76806 0.91602 0.63488 0.0
C1110 C 0.89278 0.98928 0.62908 0.0
C1111 C 0.75682 0.97255 0.63194 0.0
C1112 C 0.86383 0.08675 0.64818 0.0
C1113 C 0.86592 0.10387 0.62532 0.0
C1114 C 0.85147 0.04688 0.65013 0.0
C1115 C 0.84151 0.02376 0.62867 0.0
C1116 C 0.8448 0.04126 0.60546 0.0
C1117 C 0.85684 0.08107 0.60409 0.0
C1118 C 0.84745 0.02919 0.67526 0.0
C1119 C 0.83478 0.01782 0.58211 0.0
H1120 H 0.85158 0.91171 0.63731 0.0
H1121 H 0.73667 0.89763 0.63522 0.0
H1122 H 0.90012 1.00781 0.61243 0.0
H1123 H 0.90475 0.00908 0.64505 0.0
H1124 H 0.90741 0.97164 0.62791 0.0
H1125 H 0.72601 0.94998 0.6354 0.0
H1126 H 0.7658 0.99575 0.64595 0.0
H1127 H 0.75859 0.98572 0.61374 0.0
H1128 H 0.87051 0.1042 0.66466 0.0
H1129 H 0.85878 0.09431 0.58635 0.0
H1130 H 0.86424 0.01371 0.67624 0.0
H1131 H 0.81644 1.00736 0.67875 0.0
H1132 H 0.85774 0.05139 0.69004 0.0
H1133 H 0.85031 1.00104 0.58141 0.0
H1134 H 0.84235 0.03649 0.56549 0.0
H1135 H 0.80311 0.99651 0.58164 0.0
C1136 C 0.91951 0.83271 0.13452 0.0
C1137 C 0.90292 0.79362 0.1418 0.0
C1138 C 0.89569 0.84846 0.12798 0.0
C1139 C 0.85455 0.82454 0.12891 0.0
C1140 C 0.83811 0.78456 0.13476 0.0
C1141 C 0.8624 0.76959 0.14085 0.0
C1142 C 0.91443 0.89111 0.12151 0.0
C1143 C 0.79469 0.75788 0.13589 0.0
C1144 C 0.78972 0.86706 0.14457 0.0
C1145 C 0.77248 0.86585 0.12189 0.0
C1146 C 0.81745 0.85501 0.14687 0.0
C1147 C 0.82845 0.84149 0.12598 0.0
C1148 C 0.81195 0.84128 0.10289 0.0
C1149 C 0.78434 0.85362 0.10112 0.0
C1150 C 0.83384 0.85528 0.17192 0.0
C1151 C 0.82263 0.82704 0.08017 0.0
H1152 H 0.95087 0.85145 0.1353 0.0
H1153 H 0.84954 0.73923 0.14617 0.0
H1154 H 0.90102 0.89513 0.1047 0.0
H1155 H 0.90943 0.90689 0.13656 0.0
H1156 H 0.94632 0.90453 0.11856 0.0
H1157 H 0.78641 0.7273 0.14026 0.0
H1158 H 0.78196 0.76837 0.15 0.0
H1159 H 0.78179 0.75835 0.118 0.0
H1160 H 0.78066 0.8763 0.16075 0.0
H1161 H 0.77159 0.85313 0.08345 0.0
H1162 H 0.86614 0.87175 0.17134 0.0
H1163 H 0.82476 0.825 0.1776 0.0
H1164 H 0.82386 0.86849 0.18607 0.0
H1165 H 0.85474 0.84251 0.07786 0.0
H1166 H 0.80931 0.83127 0.06336 0.0
H1167 H 0.81267 0.79555 0.08205 0.0
C1168 C 0.94529 0.77961 0.60414 0.0
C1169 C 0.91724 0.76962 0.62265 0.0
C1170 C 0.98458 0.80775 0.60812 0.0
C1171 C 0.99597 0.82743 0.63089 0.0
C1172 C 0.96737 0.81902 0.64913 0.0
C1173 C 0.92853 0.79008 0.64488 0.0
C1174 C 0.01406 0.81524 0.58829 0.0
C1175 C 0.97801 0.83974 0.67353 0.0
C1176 C 0.09789 0.86734 0.65682 0.0
C1177 C 0.11433 0.9075 0.65298 0.0
C1178 C 0.06015 0.84091 0.64866 0.0
C1179 C 0.03798 0.85489 0.63646 0.0
C1180 C 0.05516 0.89532 0.63142 0.0
C1181 C 0.09331 0.92119 0.63963 0.0
C1182 C 0.04348 0.79808 0.65387 0.0
C1183 C 0.03242 0.91145 0.61867 0.0
H1184 H 0.93673 0.76492 0.58662 0.0
H1185 H 0.90717 0.78294 0.6593 0.0
H1186 H 0.03298 0.84696 0.58507 0.0
H1187 H 0.03315 0.8037 0.59424 0.0
H1188 H 1.00002 0.80107 0.5707 0.0
H1189 H 0.95198 0.83215 0.68497 0.0
H1190 H 0.99728 0.83189 0.68381 0.0
H1191 H 0.99438 0.87176 0.67067 0.0
H1192 H 0.11424 0.85673 0.66701 0.0
H1193 H 0.10584 0.95229 0.63683 0.0
H1194 H 0.03413 0.78173 0.63644 0.0
H1195 H 0.01737 0.7872 0.66576 0.0
H1196 H 0.06482 0.79175 0.66295 0.0
H1197 H 0.01879 0.89488 0.60167 0.0
H1198 H 0.05099 0.94276 0.61392 0.0
H1199 H 1.00851 0.90819 0.63082 0.0
C1200 C 0.10457 0.8882 0.36069 0.0
C1201 C 0.11846 0.88249 0.38304 0.0
C1202 C 0.06509 0.87708 0.35772 0.0
C1203 C 0.03891 0.86037 0.3777 0.0
C1204 C 0.05326 0.85628 0.40065 0.0
C1205 C 0.09273 0.86719 0.40299 0.0
C1206 C 0.05091 0.88099 0.33277 0.0
C1207 C 0.02673 0.83903 0.42254 0.0
C1208 C 0.93805 0.8495 0.3694 0.0
C1209 C 0.916 0.81046 0.36176 0.0
C1210 C 0.97778 0.8659 0.37567 0.0
C1211 C 0.99605 0.84307 0.37366 0.0
C1212 C 0.97351 0.80351 0.36673 0.0
C1213 C 0.93388 0.7876 0.3615 0.0
C1214 C 1.00041 0.90778 0.38392 0.0
C1215 C 0.99101 0.77755 0.36492 0.0
H1216 H 0.12416 0.89966 0.34513 0.0
H1217 H 0.10332 0.86303 0.42042 0.0
H1218 H 0.03056 0.85157 0.32539 0.0
H1219 H 0.03459 0.8969 0.33419 0.0
H1220 H 0.07518 0.89653 0.31951 0.0
H1221 H 0.04334 0.84366 0.43983 0.0
H1222 H 1.00761 0.85189 0.42453 0.0
H1223 H 1.00767 0.80723 0.41991 0.0
H1224 H 0.92469 0.86758 0.36985 0.0
H1225 H 0.91691 0.757 0.35678 0.0
H1226 H 0.02233 0.92556 0.3698 0.0
H1227 H 0.0165 0.91011 0.40108 0.0
H1228 H 0.98124 0.92035 0.38711 0.0
H1229 H 0.01939 0.79246 0.35518 0.0
H1230 H 0.97158 0.74977 0.3553 0.0
H1231 H 0.99595 0.77049 0.38375 0.0
C1232 C 0.16194 0.93089 0.85669 0.0
C1233 C 0.12172 0.91528 0.85413 0.0
C1234 C 0.18644 0.97018 0.86253 0.0
C1235 C 0.17055 0.99476 0.86635 0.0
C1236 C 0.12971 0.97896 0.86458 0.0
C1237 C 0.10571 0.93935 0.8585 0.0
C1238 C 0.22945 0.98533 0.86455 0.0
C1239 C 0.11153 1.00407 0.86867 0.0
C1240 C 0.23567 0.08952 0.9003 0.0
C1241 C 0.25144 0.11636 0.88096 0.0
C1242 C 0.20837 0.05015 0.89593 0.0
C1243 C 0.19699 0.0371 0.87155 0.0
C1244 C 0.21269 0.06423 0.85195 0.0
C1245 C 0.23943 0.10359 0.85692 0.0
C1246 C 0.19245 0.02244 0.9174 0.0
C1247 C 0.20236 0.05138 0.82565 0.0
H1248 H 0.17441 0.91226 0.85404 0.0
H1249 H 0.07458 0.92748 0.85656 0.0
H1250 H 0.24559 0.01107 0.85244 0.0
H1251 H 0.23862 0.99455 0.8837 0.0
H1252 H 0.23759 0.96314 0.85959 0.0
H1253 H 0.07922 0.98708 0.86772 0.0
H1254 H 0.12026 0.01843 0.88684 0.0
H1255 H 0.1223 0.02749 0.85462 0.0
H1256 H 0.24495 0.09929 0.91892 0.0
H1257 H 0.25209 0.1241 0.84186 0.0
H1258 H 0.20332 1.00154 0.91667 0.0
H1259 H 0.16018 1.00527 0.91653 0.0
H1260 H 0.20119 0.03788 0.93527 0.0
H1261 H 0.21201 0.03027 0.82099 0.0
H1262 H 0.21612 0.0762 0.81257 0.0
H1263 H 0.17031 0.03627 0.82315 0.0
C1264 C 0.16347 0.24018 0.40611 0.0
C1265 C 0.15202 0.25332 0.38552 0.0
C1266 C 0.17531 0.21222 0.40389 0.0
C1267 C 0.17527 0.19657 0.38055 0.0
C1268 C 0.16272 0.209 0.35982 0.0
C1269 C 0.15151 0.23729 0.36253 0.0
C1270 C 0.18864 0.20007 0.42646 0.0
C1271 C 0.16234 0.19334 0.33454 0.0
C1272 C 0.24498 0.16018 0.36488 0.0
C1273 C 0.22002 0.11981 0.36349 0.0
C1274 C 0.23108 0.18519 0.37153 0.0
C1275 C 0.19117 0.1696 0.37726 0.0
C1276 C 0.16627 0.12855 0.37758 0.0
C1277 C 0.181 0.10404 0.37065 0.0
C1278 C 0.25881 0.22852 0.3711 0.0
C1279 C 0.12361 0.11072 0.38375 0.0
H1280 H 0.16358 0.2521 0.42398 0.0
H1281 H 0.14322 0.24756 0.34644 0.0
H1282 H 0.1722 0.16789 0.42839 0.0
H1283 H 0.21989 0.20903 0.42464 0.0
H1284 H 0.18483 0.21325 0.44344 0.0
H1285 H 0.14984 0.20439 0.32055 0.0
H1286 H 0.1925 0.20184 0.32899 0.0
H1287 H 0.14512 0.16105 0.33467 0.0
H1288 H 0.27519 0.17238 0.35943 0.0
H1289 H 0.16153 0.07284 0.3694 0.0
H1290 H 0.25877 0.24091 0.38926 0.0
H1291 H 0.24903 0.24251 0.35736 0.0
H1292 H 0.28913 0.23605 0.36663 0.0
H1293 H 0.11983 0.12356 0.40086 0.0
H1294 H 0.10917 0.07859 0.386 0.0
H1295 H 0.1086 0.11727 0.36888 0.0
C1296 C 0.09925 0.24683 0.86719 0.0
C1297 C 0.11475 0.22187 0.86696 0.0
C1298 C 0.06029 0.23323 0.87353 0.0
C1299 C 0.03612 0.19371 0.88024 0.0
C1300 C 0.05242 0.16902 0.88194 0.0
C1301 C 0.09166 0.18339 0.8752 0.0
C1302 C 0.04444 0.26069 0.87158 0.0
C1303 C 0.02777 0.12684 0.88932 0.0
C1304 C 0.93749 0.16742 0.90779 0.0
C1305 C 0.91315 0.15416 0.88714 0.0
C1306 C 0.97734 0.17939 0.90605 0.0
C1307 C 0.99325 0.17779 0.88313 0.0
C1308 C 0.96853 0.16341 0.86236 0.0
C1309 C 0.92884 0.1517 0.86463 0.0
C1310 C 1.00254 0.19459 0.92863 0.0
C1311 C 0.98427 0.16161 0.83749 0.0
H1312 H 0.11719 0.27669 0.861 0.0
H1313 H 0.10349 0.16394 0.87492 0.0
H1314 H 0.02138 0.25016 0.85735 0.0
H1315 H 0.03101 0.26131 0.88923 0.0
H1316 H 0.0673 0.29088 0.86685 0.0
H1317 H 0.04566 0.11292 0.89286 0.0
H1318 H 1.0106 0.12416 0.90602 0.0
H1319 H 1.00675 0.11056 0.87446 0.0
H1320 H 0.92547 0.16884 0.92533 0.0
H1321 H 0.91034 0.14164 0.84855 0.0
H1322 H 0.02438 0.22585 0.92612 0.0
H1323 H 0.01878 0.17883 0.93152 0.0
H1324 H 0.98525 0.19155 0.94536 0.0
H1325 H 1.00598 0.19145 0.83136 0.0
H1326 H 0.96099 0.14826 0.8234 0.0
H1327 H 0.99944 0.14451 0.8386 0.0
C1328 C 0.93719 0.06687 0.39238 0.0
C1329 C 0.93687 0.09771 0.37986 0.0
C1330 C 0.90329 0.03047 0.39491 0.0
C1331 C 0.86773 0.02474 0.38511 0.0
C1332 C 0.86655 0.0564 0.37382 0.0
C1333 C 0.90119 0.09254 0.37124 0.0
C1334 C 0.90597 0.99761 0.40709 0.0
C1335 C 0.82903 0.05159 0.36353 0.0
C1336 C 0.7941 0.9209 0.36657 0.0
C1337 C 0.7693 0.9074 0.38704 0.0
C1338 C 0.82582 0.95913 0.3656 0.0
C1339 C 0.83266 0.9849 0.38537 0.0
C1340 C 0.80756 0.97161 0.40597 0.0
C1341 C 0.7767 0.93288 0.40675 0.0
C1342 C 0.85247 0.97169 0.34356 0.0
C1343 C 0.81327 0.99831 0.42721 0.0
H1344 H 0.96445 0.07085 0.39959 0.0
H1345 H 0.90062 0.11612 0.3615 0.0
H1346 H 0.88439 0.98485 0.42217 0.0
H1347 H 0.89894 0.9741 0.39358 0.0
H1348 H 0.93543 1.00727 0.41467 0.0
H1349 H 0.83199 0.07982 0.3577 0.0
H1350 H 0.81998 0.0319 0.34744 0.0
H1351 H 0.80537 0.03789 0.37735 0.0
H1352 H 0.78897 0.90149 0.35128 0.0
H1353 H 0.75849 0.9226 0.42291 0.0
H1354 H 0.88247 0.98005 0.34941 0.0
H1355 H 0.85381 0.9977 0.33492 0.0
H1356 H 0.84283 0.94834 0.32956 0.0
H1357 H 0.84336 0.01131 0.43445 0.0
H1358 H 0.79248 0.98296 0.44242 0.0
H1359 H 0.80919 0.02264 0.42081 0.0
C1360 C 0.89488 0.80271 0.89678 0.0
C1361 C 0.87381 0.76897 0.88271 0.0
C1362 C 0.88527 0.83246 0.89639 0.0
C1363 C 0.85388 0.82814 0.88164 0.0
C1364 C 0.83358 0.79469 0.86674 0.0
C1365 C 0.84412 0.76584 0.86726 0.0
C1366 C 0.90756 0.8677 0.9125 0.0
C1367 C 0.79969 0.78855 0.85089 0.0
C1368 C 0.7928 0.87382 0.8982 0.0
C1369 C 0.80423 0.90295 0.88035 0.0
C1370 C 0.81048 0.85088 0.89977 0.0
C1371 C 0.84014 0.8569 0.88292 0.0
C1372 C 0.85341 0.88781 0.86572 0.0
C1373 C 0.83536 0.91066 0.86469 0.0
C1374 C 0.79483 0.81803 0.91811 0.0
C1375 C 0.88509 0.89529 0.84752 0.0
H1376 H 0.91795 0.80527 0.90869 0.0
H1377 H 0.82864 0.74042 0.85573 0.0
H1378 H 0.91765 0.89479 0.90164 0.0
H1379 H 0.88807 0.86766 0.92712 0.0
H1380 H 0.93319 0.86833 0.92125 0.0
H1381 H 0.78853 0.76206 0.83932 0.0
H1382 H 0.77554 0.78555 0.86269 0.0
H1383 H 0.80838 0.81412 0.83878 0.0
H1384 H 0.7691 0.86819 0.91055 0.0
H1385 H 0.84431 0.93327 0.85089 0.0
H1386 H 0.81847 0.81453 0.9264 0.0
H1387 H 0.77495 0.79083 0.90828 0.0
H1388 H 0.77812 0.82216 0.933 0.0
H1389 H 0.9103 0.89612 0.85697 0.0
H1390 H 0.89531 0.92307 0.83737 0.0
H1391 H 0.87394 0.87111 0.83407 0.0
C1392 C 0.15271 0.69225 0.09474 0.0
C1393 C 0.13869 0.70146 0.11585 0.0
C1394 C 0.16244 0.6627 0.09488 0.0
C1395 C 0.15641 0.64023 0.11636 0.0
C1396 C 0.14021 0.64788 0.13738 0.0
C1397 C 0.13233 0.67892 0.13703 0.0
C1398 C 0.18074 0.65668 0.07224 0.0
C1399 C 0.13222 0.6241 0.16048 0.0
C1400 C 0.16218 0.54811 0.10473 0.0
C1401 C 0.20104 0.56046 0.11106 0.0
C1402 C 0.1464 0.57289 0.10776 0.0
C1403 C 0.17008 0.61109 0.11705 0.0
C1404 C 0.20861 0.62289 0.12462 0.0
C1405 C 0.22333 0.59737 0.12182 0.0
C1406 C 0.10483 0.55872 0.10014 0.0
C1407 C 0.23488 0.66296 0.13508 0.0
H1408 H 0.15744 0.70912 0.07813 0.0
H1409 H 0.1222 0.6861 0.15355 0.0
H1410 H 0.20939 0.65974 0.07691 0.0
H1411 H 0.16206 0.62677 0.0651 0.0
H1412 H 0.18514 0.6778 0.05743 0.0
H1413 H 0.11257 0.62818 0.17312 0.0
H1414 H 0.11887 0.59266 0.15611 0.0
H1415 H 0.16004 0.63311 0.17017 0.0
H1416 H 0.14451 0.51971 0.09647 0.0
H1417 H 0.25292 0.60682 0.12757 0.0
H1418 H 0.1045 0.57388 0.0831 0.0
H1419 H 0.08937 0.56566 0.11447 0.0
H1420 H 0.08857 0.52683 0.0967 0.0
H1421 H 0.23366 0.68563 0.1238 0.0
H1422 H 0.26569 0.66993 0.13629 0.0
H1423 H 0.22479 0.66459 0.15376 0.0
C1424 C 0.61902 0.15483 0.60595 0.0
C1425 C 0.6451 0.19508 0.60823 0.0
C1426 C 0.57877 0.13887 0.61038 0.0
C1427 C 0.56404 0.16369 0.6169 0.0
C1428 C 0.59044 0.2039 0.62046 0.0
C1429 C 0.63047 0.21889 0.61643 0.0
C1430 C 0.55175 0.0957 0.60696 0.0
C1431 C 0.57627 0.23152 0.62758 0.0
C1432 C 0.46333 0.14022 0.59554 0.0
C1433 C 0.44194 0.13018 0.61747 0.0
C1434 C 0.50255 0.14993 0.59509 0.0
C1435 C 0.52106 0.14893 0.61707 0.0
C1436 C 0.4991 0.13687 0.63913 0.0
C1437 C 0.45986 0.12796 0.63911 0.0
C1438 C 0.52465 0.16304 0.57117 0.0
C1439 C 0.51736 0.1348 0.66293 0.0
H1440 H 0.6297 0.13595 0.59968 0.0
H1441 H 0.65031 0.24974 0.61912 0.0
H1442 H 0.53087 0.0835 0.62246 0.0
H1443 H 0.53445 0.09064 0.58998 0.0
H1444 H 0.56789 0.07956 0.60551 0.0
H1445 H 0.6001 0.26241 0.62775 0.0
H1446 H 0.55342 0.22874 0.61467 0.0
H1447 H 0.56293 0.22385 0.64608 0.0
H1448 H 0.44967 0.14166 0.57865 0.0
H1449 H 0.44374 0.12064 0.65617 0.0
H1450 H 0.53778 0.14477 0.56678 0.0
H1451 H 0.54883 0.19355 0.57288 0.0
H1452 H 0.5058 0.16147 0.55562 0.0
H1453 H 0.53547 0.12099 0.66013 0.0
H1454 H 0.49506 0.11818 0.67717 0.0
H1455 H 0.53673 0.16472 0.66986 0.0
C1456 C 0.42633 0.62606 0.11739 0.0
C1457 C 0.46324 0.63985 0.10685 0.0
C1458 C 0.4016 0.58623 0.12233 0.0
C1459 C 0.41402 0.55922 0.11675 0.0
C1460 C 0.45232 0.57326 0.1077 0.0
C1461 C 0.47651 0.61341 0.10286 0.0
C1462 C 0.36152 0.57296 0.13264 0.0
C1463 C 0.46695 0.54559 0.10185 0.0
C1464 C 0.34627 0.45473 0.13908 0.0
C1465 C 0.32272 0.43819 0.11837 0.0
C1466 C 0.37747 0.4936 0.13863 0.0
C1467 C 0.38505 0.51641 0.11704 0.0
C1468 C 0.36246 0.499 0.09579 0.0
C1469 C 0.33207 0.46022 0.09667 0.0
C1470 C 0.40111 0.51066 0.16158 0.0
C1471 C 0.36917 0.52189 0.07233 0.0
H1472 H 0.41622 0.64643 0.12104 0.0
H1473 H 0.50499 0.62376 0.09475 0.0
H1474 H 0.33894 0.54863 0.12167 0.0
H1475 H 0.35976 0.56191 0.15156 0.0
H1476 H 0.35453 0.59683 0.13316 0.0
H1477 H 0.49889 0.56119 0.0986 0.0
H1478 H 0.45992 0.52435 0.117 0.0
H1479 H 0.45218 0.52875 0.08513 0.0
H1480 H 0.3394 0.43794 0.1559 0.0
H1481 H 0.31464 0.44753 0.08036 0.0
H1482 H 0.39176 0.52974 0.17055 0.0
H1483 H 0.43254 0.52882 0.15716 0.0
H1484 H 0.39716 0.48764 0.17484 0.0
H1485 H 0.36651 0.54803 0.07583 0.0
H1486 H 0.3482 0.50441 0.05769 0.0
H1487 H 0.39913 0.53223 0.06551 0.0
C1488 C 0.84317 0.43829 0.58446 0.0
C1489 C 0.8372 0.45925 0.60296 0.0
C1490 C 0.85768 0.4132 0.58985 0.0
C1491 C 0.866 0.4084 0.61448 0.0
C1492 C 0.86173 0.43089 0.63313 0.0
C1493 C 0.84765 0.45632 0.62712 0.0
C1494 C 0.86186 0.39008 0.5693 0.0
C1495 C 0.86976 0.42636 0.65962 0.0
C1496 C 0.84945 0.30677 0.62602 0.0
C1497 C 0.88727 0.31246 0.62464 0.0
C1498 C 0.84253 0.33812 0.62439 0.0
C1499 C 0.87418 0.37632 0.62072 0.0
C1500 C 0.91273 0.38253 0.6206 0.0
C1501 C 0.91884 0.35045 0.62273 0.0
C1502 C 0.80107 0.33009 0.62543 0.0
C1503 C 0.94732 0.42267 0.61674 0.0
H1504 H 0.83543 0.44076 0.56573 0.0
H1505 H 0.84292 0.47237 0.64148 0.0
H1506 H 0.89072 0.39194 0.57021 0.0
H1507 H 0.83928 0.35891 0.57125 0.0
H1508 H 0.85859 0.40038 0.55097 0.0
H1509 H 0.8702 0.4494 0.6714 0.0
H1510 H 0.8468 0.3976 0.66654 0.0
H1511 H 0.89803 0.42715 0.66144 0.0
H1512 H 0.82497 0.27734 0.62762 0.0
H1513 H 0.94799 0.35487 0.62143 0.0
H1514 H 0.79307 0.33766 0.6076 0.0
H1515 H 0.79829 0.34862 0.63956 0.0
H1516 H 0.77995 0.2991 0.62971 0.0
H1517 H 0.9475 0.43192 0.5975 0.0
H1518 H 0.97531 0.4235 0.6204 0.0
H1519 H 0.9453 0.44413 0.62877 0.0
C1520 C 0.57319 0.91063 0.12994 0.0
C1521 C 0.58054 0.88059 0.12376 0.0
C1522 C 0.53486 0.90459 0.12963 0.0
C1523 C 0.50304 0.86733 0.12362 0.0
C1524 C 0.51033 0.83639 0.11895 0.0
C1525 C 0.54879 0.84355 0.11872 0.0
C1526 C 0.52855 0.93833 0.13499 0.0
C1527 C 0.47774 0.79579 0.11322 0.0
C1528 C 0.3958 0.83234 0.13675 0.0
C1529 C 0.38185 0.8334 0.1133 0.0
C1530 C 0.43571 0.84577 0.1408 0.0
C1531 C 0.46233 0.86049 0.12089 0.0
C1532 C 0.44846 0.86335 0.09743 0.0
C1533 C 0.40844 0.84968 0.09392 0.0
C1534 C 0.44884 0.84121 0.16594 0.0
C1535 C 0.47545 0.87839 0.0756 0.0
H1536 H 0.59738 0.93915 0.13404 0.0
H1537 H 0.5541 0.81991 0.11445 0.0
H1538 H 0.51748 0.94567 0.1183 0.0
H1539 H 0.50616 0.93018 0.1495 0.0
H1540 H 0.55577 0.96469 0.14095 0.0
H1541 H 0.48631 0.77365 0.11734 0.0
H1542 H 0.45098 0.78811 0.12381 0.0
H1543 H 0.47047 0.79415 0.09346 0.0
H1544 H 0.37516 0.8191 0.15166 0.0
H1545 H 0.3976 0.85 0.07572 0.0
H1546 H 0.47576 0.86821 0.17137 0.0
H1547 H 0.45579 0.81733 0.16557 0.0
H1548 H 0.42608 0.83417 0.18007 0.0
H1549 H 0.50221 0.90612 0.0802 0.0
H1550 H 0.46138 0.88327 0.05941 0.0
H1551 H 0.48449 0.85694 0.07055 0.0
C1552 C 0.67387 0.56678 0.61469 0.0
C1553 C 0.71217 0.57505 0.61858 0.0
C1554 C 0.64284 0.52793 0.61338 0.0
C1555 C 0.6503 0.49662 0.61631 0.0
C1556 C 0.68881 0.50514 0.6216 0.0
C1557 C 0.71923 0.54414 0.62238 0.0
C1558 C 0.60247 0.52048 0.6076 0.0
C1559 C 0.69812 0.47298 0.6257 0.0
C1560 C 0.56934 0.39068 0.62628 0.0
C1561 C 0.56659 0.37452 0.60294 0.0
C1562 C 0.59542 0.43064 0.63082 0.0
C1563 C 0.61909 0.45519 0.61155 0.0
C1564 C 0.615 0.4393 0.58775 0.0
C1565 C 0.58898 0.39942 0.58378 0.0
C1566 C 0.59885 0.4462 0.65647 0.0
C1567 C 0.63929 0.46416 0.56656 0.0
H1568 H 0.66844 0.59055 0.61141 0.0
H1569 H 0.74887 0.55054 0.62552 0.0
H1570 H 0.5943 0.50855 0.58878 0.0
H1571 H 0.58085 0.49846 0.62036 0.0
H1572 H 0.60055 0.54747 0.60873 0.0
H1573 H 0.72937 0.48438 0.63003 0.0
H1574 H 0.6803 0.45404 0.64104 0.0
H1575 H 0.69046 0.45436 0.60915 0.0
H1576 H 0.55231 0.37178 0.64124 0.0
H1577 H 0.5866 0.38747 0.56559 0.0
H1578 H 0.59736 0.47343 0.65621 0.0
H1579 H 0.62758 0.45352 0.66425 0.0
H1580 H 0.57567 0.42479 0.66878 0.0
H1581 H 0.6363 0.49044 0.56477 0.0
H1582 H 0.63089 0.44813 0.54889 0.0
H1583 H 0.67049 0.47427 0.57005 0.0
C1584 C 0.31901 0.85831 0.37447 0.0
C1585 C 0.32194 0.89126 0.38594 0.0
C1586 C 0.34957 0.84992 0.37597 0.0
C1587 C 0.38412 0.8755 0.38888 0.0
C1588 C 0.38742 0.90946 0.39985 0.0
C1589 C 0.35601 0.91648 0.39861 0.0
C1590 C 0.34403 0.81257 0.365 0.0
C1591 C 0.42333 0.93739 0.41402 0.0
C1592 C 0.44587 0.83887 0.42005 0.0
C1593 C 0.47822 0.85292 0.40445 0.0
C1594 C 0.41439 0.84456 0.41471 0.0
C1595 C 0.41511 0.86496 0.39312 0.0
C1596 C 0.44695 0.87761 0.37667 0.0
C1597 C 0.4782 0.87148 0.38255 0.0
C1598 C 0.38224 0.83137 0.43349 0.0
C1599 C 0.44923 0.89998 0.35372 0.0
H1600 H 0.29205 0.83815 0.36533 0.0
H1601 H 0.35753 0.94095 0.40839 0.0
H1602 H 0.36803 0.81897 0.35201 0.0
H1603 H 0.34521 0.79382 0.37974 0.0
H1604 H 0.31578 0.79605 0.35523 0.0
H1605 H 0.42316 0.96448 0.41901 0.0
H1606 H 0.42504 0.92308 0.43112 0.0
H1607 H 0.44994 0.94535 0.40315 0.0
H1608 H 0.44624 0.82532 0.43728 0.0
H1609 H 0.50363 0.88326 0.37078 0.0
H1610 H 0.35485 0.82788 0.42572 0.0
H1611 H 0.39191 0.85341 0.44831 0.0
H1612 H 0.37615 0.80337 0.44199 0.0
H1613 H 0.42199 0.88391 0.34294 0.0
H1614 H 0.4743 0.90536 0.34194 0.0
H1615 H 0.45225 0.92847 0.35881 0.0
C1616 C 0.63469 0.44666 0.87822 0.0
C1617 C 0.64872 0.45619 0.90229 0.0
C1618 C 0.59478 0.42111 0.87359 0.0
C1619 C 0.56828 0.40539 0.89349 0.0
C1620 C 0.58222 0.41672 0.91773 0.0
C1621 C 0.62223 0.44166 0.92183 0.0
C1622 C 0.58132 0.40915 0.84755 0.0
C1623 C 0.55512 0.40109 0.9395 0.0
C1624 C 0.45771 0.35364 0.88563 0.0
C1625 C 0.44761 0.3145 0.888 0.0
C1626 C 0.49698 0.38366 0.8863 0.0
C1627 C 0.52686 0.37423 0.8894 0.0
C1628 C 0.51677 0.33456 0.89056 0.0
C1629 C 0.47737 0.30533 0.89012 0.0
C1630 C 0.50634 0.42548 0.88484 0.0
C1631 C 0.54747 0.32289 0.89336 0.0
H1632 H 0.65519 0.45771 0.86311 0.0
H1633 H 0.63305 0.44924 0.94043 0.0
H1634 H 0.5722 0.37794 0.8451 0.0
H1635 H 0.5556 0.41233 0.84355 0.0
H1636 H 0.60458 0.42655 0.834 0.0
H1637 H 0.56972 0.41574 0.95685 0.0
H1638 H 0.52946 0.40486 0.93667 0.0
H1639 H 0.5442 0.3694 0.94148 0.0
H1640 H 0.435 0.36102 0.8846 0.0
H1641 H 0.46973 0.2751 0.89174 0.0
H1642 H 0.52965 0.44174 0.87114 0.0
H1643 H 0.51738 0.43974 0.90285 0.0
H1644 H 0.48047 0.42791 0.87985 0.0
H1645 H 0.53598 0.29175 0.88875 0.0
H1646 H 0.5579 0.32781 0.91261 0.0
H1647 H 0.57298 0.34081 0.88146 0.0
C1648 C 0.15979 0.62187 0.39891 0.0
C1649 C 0.19934 0.64756 0.3936 0.0
C1650 C 0.14313 0.5811 0.39612 0.0
C1651 C 0.16653 0.56539 0.38815 0.0
C1652 C 0.20583 0.59127 0.38164 0.0
C1653 C 0.22143 0.63172 0.38408 0.0
C1654 C 0.10093 0.55469 0.40286 0.0
C1655 C 0.23221 0.57618 0.37335 0.0
C1656 C 0.14786 0.46678 0.41131 0.0
C1657 C 0.13347 0.44304 0.39041 0.0
C1658 C 0.15703 0.50589 0.41101 0.0
C1659 C 0.15177 0.52228 0.38925 0.0
C1660 C 0.13559 0.49808 0.36834 0.0
C1661 C 0.12658 0.45873 0.36916 0.0
C1662 C 0.17408 0.53017 0.43381 0.0
C1663 C 0.12926 0.51412 0.34479 0.0
H1664 H 0.14219 0.63337 0.40625 0.0
H1665 H 0.2516 0.65102 0.3791 0.0
H1666 H 0.08589 0.53223 0.38852 0.0
H1667 H 0.09908 0.5392 0.42022 0.0
H1668 H 0.08522 0.5711 0.40534 0.0
H1669 H 0.26129 0.59999 0.36745 0.0
H1670 H 0.23638 0.56004 0.38861 0.0
H1671 H 0.21873 0.5555 0.35793 0.0
H1672 H 0.15297 0.45505 0.42797 0.0
H1673 H 0.1155 0.44075 0.35292 0.0
H1674 H 0.15734 0.54465 0.43896 0.0
H1675 H 0.20451 0.55341 0.43016 0.0
H1676 H 0.17417 0.51255 0.44966 0.0
H1677 H 0.11411 0.53075 0.34847 0.0
H1678 H 0.11196 0.49074 0.33133 0.0
H1679 H 0.15785 0.5346 0.33642 0.0
C1680 C 0.70826 0.16741 0.90017 0.0
C1681 C 0.70583 0.13496 0.88813 0.0
C1682 C 0.6767 0.17408 0.90091 0.0
C1683 C 0.64107 0.14738 0.88958 0.0
C1684 C 0.63844 0.11479 0.87696 0.0
C1685 C 0.67101 0.10919 0.87614 0.0
C1686 C 0.68148 0.2096 0.91427 0.0
C1687 C 0.60099 0.08543 0.8648 0.0
C1688 C 0.55647 0.15347 0.91796 0.0
C1689 C 0.55301 0.17939 0.90204 0.0
C1690 C 0.58287 0.14028 0.91311 0.0
C1691 C 0.60679 0.15363 0.8919 0.0
C1692 C 0.60165 0.17804 0.87504 0.0
C1693 C 0.57489 0.19069 0.88034 0.0
C1694 C 0.58724 0.1144 0.93167 0.0
C1695 C 0.62658 0.1933 0.85234 0.0
H1696 H 0.73511 0.18788 0.90924 0.0
H1697 H 0.66884 0.08421 0.86669 0.0
H1698 H 0.67406 0.22724 0.90193 0.0
H1699 H 0.66118 0.20045 0.93009 0.0
H1700 H 0.71162 0.22842 0.92116 0.0
H1701 H 0.60399 0.06252 0.85498 0.0
H1702 H 0.57773 0.07125 0.87881 0.0
H1703 H 0.59139 0.10025 0.85158 0.0
H1704 H 0.53992 0.14512 0.93491 0.0
H1705 H 0.57266 0.21118 0.86819 0.0
H1706 H 0.61516 0.13148 0.94166 0.0
H1707 H 0.58817 0.08999 0.92239 0.0
H1708 H 0.56313 0.10224 0.94527 0.0
H1709 H 0.65663 0.21558 0.85765 0.0
H1710 H 0.61521 0.20684 0.83933 0.0
H1711 H 0.6284 0.16956 0.8428 0.0
C1712 C 0.40039 0.56999 0.40437 0.0
C1713 C 0.39299 0.5326 0.39806 0.0
C1714 C 0.43697 0.60326 0.39948 0.0
C1715 C 0.46683 0.59904 0.388 0.0
C1716 C 0.45844 0.56158 0.38017 0.0
C1717 C 0.42177 0.52898 0.38527 0.0
C1718 C 0.44445 0.64262 0.408 0.0
C1719 C 0.48914 0.55543 0.36799 0.0
C1720 C 0.56018 0.68817 0.36442 0.0
C1721 C 0.58521 0.69666 0.38449 0.0
C1722 C 0.52146 0.65677 0.36529 0.0
C1723 C 0.50783 0.63275 0.3865 0.0
C1724 C 0.53376 0.64058 0.40641 0.0
C1725 C 0.57179 0.6727 0.4053 0.0
C1726 C 0.49474 0.65015 0.3439 0.0
C1727 C 0.52116 0.61538 0.42914 0.0
H1728 H 0.37854 0.57298 0.41455 0.0
H1729 H 0.41627 0.50013 0.38045 0.0
H1730 H 0.46484 0.65239 0.42378 0.0
H1731 H 0.45843 0.6646 0.39321 0.0
H1732 H 0.41724 0.64192 0.4138 0.0
H1733 H 0.477 0.52533 0.36086 0.0
H1734 H 0.50298 0.57627 0.35262 0.0
H1735 H 0.51239 0.56099 0.38144 0.0
H1736 H 0.57026 0.70724 0.34855 0.0
H1737 H 0.59109 0.67946 0.4209 0.0
H1738 H 0.47016 0.65404 0.34993 0.0
H1739 H 0.48205 0.61983 0.33714 0.0
H1740 H 0.50999 0.67053 0.32848 0.0
H1741 H 0.49692 0.6169 0.43822 0.0
H1742 H 0.54529 0.62438 0.44253 0.0
H1743 H 0.51018 0.58449 0.4241 0.0
C1744 C 0.86888 0.55642 0.86986 0.0
C1745 C 0.89856 0.58605 0.88378 0.0
C1746 C 0.86128 0.51773 0.87136 0.0
C1747 C 0.88407 0.50852 0.8871 0.0
C1748 C 0.9148 0.53881 0.9007 0.0
C1749 C 0.92131 0.57707 0.89909 0.0
C1750 C 0.82773 0.48643 0.85698 0.0
C1751 C 0.93989 0.53059 0.91773 0.0
C1752 C 0.84487 0.40677 0.91428 0.0
C1753 C 0.86496 0.39249 0.90063 0.0
C1754 C 0.84943 0.44374 0.90934 0.0
C1755 C 0.87486 0.46714 0.89034 0.0
C1756 C 0.89363 0.45188 0.87569 0.0
C1757 C 0.88866 0.41486 0.88111 0.0
C1758 C 0.82893 0.45871 0.9255 0.0
C1759 C 0.92082 0.47564 0.85523 0.0
H1760 H 0.85053 0.56325 0.85857 0.0
H1761 H 0.94338 0.59976 0.91045 0.0
H1762 H 0.83727 0.46858 0.84665 0.0
H1763 H 0.80443 0.46664 0.86982 0.0
H1764 H 0.81517 0.49873 0.84391 0.0
H1765 H 0.9642 0.55768 0.92564 0.0
H1766 H 0.92183 0.51155 0.93297 0.0
H1767 H 0.95227 0.51484 0.90782 0.0
H1768 H 0.82737 0.38997 0.92979 0.0
H1769 H 0.90497 0.40425 0.87095 0.0
H1770 H 0.8155 0.47217 0.91422 0.0
H1771 H 0.85044 0.48165 0.93781 0.0
H1772 H 0.806 0.43527 0.93697 0.0
H1773 H 0.90644 0.487 0.84294 0.0
H1774 H 0.93042 0.45845 0.84415 0.0
H1775 H 0.94697 0.50114 0.86304 0.0
C1776 C 0.19314 0.34685 0.31119 0.0
C1777 C 0.17676 0.36753 0.32177 0.0
C1778 C 0.2009 0.34902 0.28589 0.0
C1779 C 0.19013 0.37076 0.27026 0.0
C1780 C 0.17304 0.39138 0.28089 0.0
C1781 C 0.1673 0.39017 0.30656 0.0
C1782 C 0.22 0.32732 0.27585 0.0
C1783 C 0.15845 0.41257 0.26499 0.0
C1784 C 0.23128 0.39417 0.20461 0.0
C1785 C 0.20272 0.36234 0.19145 0.0
C1786 C 0.22735 0.39762 0.23016 0.0
C1787 C 0.19374 0.36899 0.2428 0.0
C1788 C 0.16441 0.33734 0.22921 0.0
C1789 C 0.16947 0.33438 0.20393 0.0
C1790 C 0.26012 0.43086 0.24385 0.0
C1791 C 0.12741 0.30583 0.24085 0.0
H1792 H 0.19893 0.32794 0.32265 0.0
H1793 H 0.15292 0.40473 0.31452 0.0
H1794 H 0.20256 0.30797 0.26058 0.0
H1795 H 0.24903 0.34889 0.26855 0.0
H1796 H 0.22402 0.30946 0.29003 0.0
H1797 H 0.14687 0.42813 0.27598 0.0
H1798 H 0.18219 0.43387 0.253 0.0
H1799 H 0.13488 0.39132 0.25289 0.0
H1800 H 0.25758 0.41521 0.1952 0.0
H1801 H 0.14744 0.30944 0.1939 0.0
H1802 H 0.27319 0.41916 0.25695 0.0
H1803 H 0.24885 0.44676 0.2547 0.0
H1804 H 0.28335 0.45178 0.23135 0.0
H1805 H 0.11951 0.27689 0.23311 0.0
H1806 H 0.10335 0.31141 0.23626 0.0
H1807 H 0.12916 0.30426 0.26106 0.0
C1808 C 0.86541 0.23377 0.70461 0.0
C1809 C 0.84616 0.20068 0.68966 0.0
C1810 C 0.86033 0.23125 0.73037 0.0
C1811 C 0.83434 0.19493 0.74155 0.0
C1812 C 0.81365 0.16185 0.72628 0.0
C1813 C 0.82078 0.16487 0.70083 0.0
C1814 C 0.88473 0.26691 0.74575 0.0
C1815 C 0.7856 0.12243 0.73688 0.0
C1816 C 0.85152 0.1711 0.80679 0.0
C1817 C 0.82395 0.17525 0.82068 0.0
C1818 C 0.85586 0.17846 0.78141 0.0
C1819 C 0.83202 0.1904 0.76914 0.0
C1820 C 0.80489 0.19589 0.78318 0.0
C1821 C 0.80134 0.1885 0.80879 0.0
C1822 C 0.88498 0.17167 0.76767 0.0
C1823 C 0.77826 0.20769 0.77092 0.0
H1824 H 0.88626 0.2613 0.69628 0.0
H1825 H 0.8077 0.13857 0.69001 0.0
H1826 H 0.86589 0.27228 0.75828 0.0
H1827 H 0.90493 0.26198 0.75731 0.0
H1828 H 0.90219 0.29336 0.73437 0.0
H1829 H 0.76548 0.10231 0.72272 0.0
H1830 H 0.80234 0.10934 0.74458 0.0
H1831 H 0.76804 0.12497 0.75185 0.0
H1832 H 0.8693 0.16098 0.81574 0.0
H1833 H 0.77964 0.19133 0.81925 0.0
H1834 H 0.90074 0.19481 0.75385 0.0
H1835 H 0.8694 0.14352 0.75779 0.0
H1836 H 0.90657 0.17055 0.78015 0.0
H1837 H 0.79547 0.23446 0.75983 0.0
H1838 H 0.76039 0.21299 0.78436 0.0
H1839 H 0.75846 0.18432 0.75817 0.0
C1840 C 0.68539 0.8385 0.20165 0.0
C1841 C 0.65681 0.84142 0.18813 0.0
C1842 C 0.68186 0.83153 0.22709 0.0
C1843 C 0.64888 0.82773 0.23986 0.0
C1844 C 0.61967 0.83041 0.22622 0.0
C1845 C 0.62375 0.83676 0.20052 0.0
C1846 C 0.71498 0.8302 0.23988 0.0
C1847 C 0.5853 0.82907 0.239 0.0
C1848 C 0.62853 0.78275 0.3046 0.0
C1849 C 0.65079 0.8156 0.31927 0.0
C1850 C 0.62675 0.78616 0.27883 0.0
C1851 C 0.64639 0.82348 0.26749 0.0
C1852 C 0.66729 0.85671 0.28259 0.0
C1853 C 0.67016 0.85229 0.308 0.0
C1854 C 0.6064 0.74967 0.26358 0.0
C1855 C 0.68873 0.89699 0.27176 0.0
H1856 H 0.71139 0.84264 0.19232 0.0
H1857 H 0.60214 0.8402 0.19036 0.0
H1858 H 0.74191 0.85897 0.23793 0.0
H1859 H 0.70985 0.82304 0.25964 0.0
H1860 H 0.72061 0.80846 0.23075 0.0
H1861 H 0.56409 0.82951 0.22586 0.0
H1862 H 0.57008 0.80253 0.25055 0.0
H1863 H 0.59576 0.85457 0.25136 0.0
H1864 H 0.61493 0.75413 0.31304 0.0
H1865 H 0.68892 0.87766 0.31893 0.0
H1866 H 0.62796 0.74782 0.2515 0.0
H1867 H 0.58436 0.75068 0.25154 0.0
H1868 H 0.59184 0.72291 0.27504 0.0
H1869 H 0.71449 0.90046 0.26155 0.0
H1870 H 0.69892 0.92005 0.28599 0.0
H1871 H 0.66957 0.9011 0.25872 0.0
C1872 C 0.79506 0.62976 0.6993 0.0
C1873 C 0.82745 0.65255 0.68438 0.0
C1874 C 0.79892 0.62887 0.72503 0.0
C1875 C 0.83632 0.64996 0.73602 0.0
C1876 C 0.8692 0.67172 0.72075 0.0
C1877 C 0.86421 0.67375 0.69536 0.0
C1878 C 0.76273 0.60781 0.74057 0.0
C1879 C 0.90967 0.69391 0.73133 0.0
C1880 C 0.85073 0.68853 0.80168 0.0
C1881 C 0.8549 0.66048 0.81491 0.0
C1882 C 0.84321 0.68473 0.77634 0.0
C1883 C 0.84086 0.65247 0.7635 0.0
C1884 C 0.84492 0.62389 0.77688 0.0
C1885 C 0.85132 0.62793 0.80249 0.0
C1886 C 0.83991 0.71677 0.76353 0.0
C1887 C 0.84471 0.59018 0.76396 0.0
H1888 H 0.76635 0.61487 0.69103 0.0
H1889 H 0.88907 0.69317 0.68423 0.0
H1890 H 0.76494 0.58682 0.753 0.0
H1891 H 0.75993 0.62921 0.75224 0.0
H1892 H 0.73592 0.59191 0.72931 0.0
H1893 H 0.9324 0.70788 0.71693 0.0
H1894 H 0.91188 0.71686 0.74393 0.0
H1895 H 0.91562 0.67367 0.74209 0.0
H1896 H 0.854 0.71404 0.81116 0.0
H1897 H 0.85557 0.60673 0.81256 0.0
H1898 H 0.82556 0.7079 0.74541 0.0
H1899 H 0.86956 0.74212 0.76081 0.0
H1900 H 0.82348 0.72672 0.77509 0.0
H1901 H 0.81782 0.57395 0.75288 0.0
H1902 H 0.84669 0.56963 0.77697 0.0
H1903 H 0.86977 0.60144 0.75111 0.0
C1904 C 0.20295 0.8271 0.19647 0.0
C1905 C 0.16653 0.8201 0.18806 0.0
C1906 C 0.21257 0.83322 0.22171 0.0
C1907 C 0.18427 0.82984 0.23907 0.0
C1908 C 0.14705 0.82113 0.23064 0.0
C1909 C 0.13955 0.8186 0.20545 0.0
C1910 C 0.25313 0.84377 0.2296 0.0
C1911 C 0.1148 0.81489 0.24813 0.0
C1912 C 0.19805 0.82262 0.3083 0.0
C1913 C 0.20288 0.85833 0.3165 0.0
C1914 C 0.19241 0.81274 0.2831 0.0
C1915 C 0.19415 0.8402 0.26556 0.0
C1916 C 0.20074 0.87681 0.27379 0.0
C1917 C 0.2028 0.8844 0.29894 0.0
C1918 C 0.18414 0.77278 0.27546 0.0
C1919 C 0.20517 0.90826 0.25612 0.0
H1920 H 0.22426 0.82876 0.18335 0.0
H1921 H 0.11156 0.81428 0.19954 0.0
H1922 H 0.26409 0.86634 0.24414 0.0
H1923 H 0.25261 0.8175 0.23713 0.0
H1924 H 0.2739 0.85465 0.21397 0.0
H1925 H 0.08563 0.79698 0.23965 0.0
H1926 H 0.11588 0.80024 0.26524 0.0
H1927 H 0.11786 0.84339 0.25311 0.0
H1928 H 0.19767 0.80201 0.32155 0.0
H1929 H 0.20557 0.91183 0.30468 0.0
H1930 H 0.21142 0.77474 0.26864 0.0
H1931 H 0.16227 0.76091 0.26049 0.0
H1932 H 0.1734 0.75196 0.29109 0.0
H1933 H 0.22033 0.90801 0.23908 0.0
H1934 H 0.22179 0.93767 0.2645 0.0
H1935 H 0.17602 0.90349 0.25105 0.0
C1936 C 0.33389 0.20131 0.8023 0.0
C1937 C 0.36027 0.20228 0.81998 0.0
C1938 C 0.33911 0.19811 0.77725 0.0
C1939 C 0.36909 0.19125 0.76934 0.0
C1940 C 0.395 0.19027 0.78701 0.0
C1941 C 0.39109 0.19712 0.81204 0.0
C1942 C 0.31186 0.20159 0.75931 0.0
C1943 C 0.4266 0.18163 0.77973 0.0
C1944 C 0.3362 0.13477 0.71 0.0
C1945 C 0.36018 0.16209 0.69223 0.0
C1946 C 0.34167 0.14289 0.7351 0.0
C1947 C 0.36951 0.18068 0.74304 0.0
C1948 C 0.39333 0.209 0.72534 0.0
C1949 C 0.38909 0.19907 0.70019 0.0
C1950 C 0.31673 0.11093 0.75309 0.0
C1951 C 0.42247 0.25002 0.7329 0.0
H1952 H 0.30912 0.20406 0.80785 0.0
H1953 H 0.41149 0.19738 0.82538 0.0
H1954 H 0.32787 0.21836 0.74279 0.0
H1955 H 0.28918 0.17218 0.75327 0.0
H1956 H 0.29694 0.21619 0.76766 0.0
H1957 H 0.43563 0.17009 0.79547 0.0
H1958 H 0.41711 0.16025 0.76452 0.0
H1959 H 0.45249 0.20895 0.77348 0.0
H1960 H 0.31291 0.10638 0.70444 0.0
H1961 H 0.40761 0.2206 0.68676 0.0
H1962 H 0.29245 0.11494 0.75957 0.0
H1963 H 0.334 0.11176 0.76935 0.0
H1964 H 0.30389 0.0816 0.7446 0.0
H1965 H 0.40837 0.26204 0.74487 0.0
H1966 H 0.43559 0.26967 0.71687 0.0
H1967 H 0.44615 0.24984 0.74362 0.0
C1968 C 0.34615 0.27314 0.97234 0.0
C1969 C 0.31823 0.24595 0.95619 0.0
C1970 C 0.33496 0.28754 0.99273 0.0
C1971 C 0.29499 0.2754 0.99678 0.0
C1972 C 0.26684 0.24726 0.9808 0.0
C1973 C 0.27864 0.23215 0.96138 0.0
C1974 C 0.36595 0.31605 0.00985 0.0
C1975 C 0.22404 0.23375 0.98376 0.0
C1976 C 0.25401 0.27729 0.05983 0.0
C1977 C 0.25176 0.31172 0.05944 0.0
C1978 C 0.26966 0.2665 0.04024 0.0
C1979 C 0.2819 0.28939 0.01866 0.0
C1980 C 0.27903 0.32382 0.01777 0.0
C1981 C 0.26475 0.33492 0.03825 0.0
C1982 C 0.27308 0.23033 0.04277 0.0
C1983 C 0.29016 0.34855 0.995 0.0
H1984 H 0.37676 0.28406 0.96863 0.0
H1985 H 0.25667 0.21092 0.94922 0.0
H1986 H 0.36707 0.34455 0.00886 0.0
H1987 H 0.35872 0.30553 0.02906 0.0
H1988 H 0.39525 0.32055 0.00534 0.0
H1989 H 0.20612 0.21409 0.96872 0.0
H1990 H 0.21322 0.21805 1.00142 0.0
H1991 H 0.21959 0.25927 0.98419 0.0
H1992 H 0.24417 0.25863 0.0758 0.0
H1993 H 0.26369 0.36169 0.03757 0.0
H1994 H 0.30305 0.23704 0.03807 0.0
H1995 H 0.2529 0.20768 0.02981 0.0
H1996 H 0.26614 0.21798 0.06161 0.0
H1997 H 0.32033 0.35711 0.98953 0.0
H1998 H 0.28824 0.37535 0.99752 0.0
H1999 H 0.2703 0.33129 0.97989 0.0
C2000 C 0.03738 0.28178 0.45293 0.0
C2001 C 0.07421 0.31597 0.45336 0.0
C2002 C 1.01126 0.27045 0.4728 0.0
C2003 C 0.02203 0.29296 0.49449 0.0
C2004 C 0.05924 0.32738 0.49537 0.0
C2005 C 0.08457 0.33876 0.47476 0.0
C2006 C 0.97202 0.23383 0.47056 0.0
C2007 C 0.07246 0.35193 0.51824 0.0
C2008 C 0.93966 0.27307 0.54027 0.0
C2009 C 0.94178 0.24698 0.55684 0.0
C2010 C 0.96596 0.28894 0.52024 0.0
C2011 C 0.99521 0.27862 0.51655 0.0
C2012 C 0.99714 0.2521 0.53316 0.0
C2013 C 0.9706 0.23668 0.55281 0.0
C2014 C 0.96251 0.31687 0.50301 0.0
C2015 C 0.0273 0.23973 0.53015 0.0
H2016 H 0.02839 0.26352 0.43684 0.0
H2017 H 0.11247 0.3654 0.47551 0.0
H2018 H 0.96986 0.21181 0.48403 0.0
H2019 H 0.9484 0.24021 0.47481 0.0
H2020 H 0.96692 0.22088 0.45194 0.0
H2021 H 0.1018 0.37807 0.51608 0.0
H2022 H 0.05136 0.36149 0.52311 0.0
H2023 H 0.0733 0.33431 0.53383 0.0
H2024 H 0.91799 0.28169 0.54321 0.0
H2025 H 0.97271 0.21644 0.5652 0.0
H2026 H 0.95669 0.30489 0.48413 0.0
H2027 H 0.99042 0.34492 0.50247 0.0
H2028 H 0.93885 0.32263 0.50847 0.0
H2029 H 0.02253 0.22393 0.51258 0.0
H2030 H 0.02637 0.22048 0.5453 0.0
H2031 H 0.05691 0.26572 0.52944 0.0
C2032 C 0.74019 0.97911 0.05719 0.0
C2033 C 0.70553 0.94262 0.05663 0.0
C2034 C 0.75152 1.00616 0.03782 0.0
C2035 C 0.72877 0.9966 0.01625 0.0
C2036 C 0.69401 0.95963 0.0151 0.0
C2037 C 0.68248 0.93341 0.03537 0.0
C2038 C 0.78844 0.04507 0.04043 0.0
C2039 C 0.66927 0.94756 0.99228 0.0
C2040 C 0.74975 0.08131 0.97185 0.0
C2041 C 0.77563 0.07952 0.95499 0.0
C2042 C 0.73364 0.05422 0.99153 0.0
C2043 C 0.74338 0.02438 0.99455 0.0
C2044 C 0.76984 0.02292 0.97772 0.0
C2045 C 0.78559 0.05031 0.95848 0.0
C2046 C 0.70596 0.05736 0.00907 0.0
C2047 C 0.78162 0.9922 0.97996 0.0
H2048 H 0.75891 0.98715 0.07304 0.0
H2049 H 0.65566 0.90567 0.03441 0.0
H2050 H 0.81039 0.04735 0.02691 0.0
H2051 H 0.7825 0.06911 0.03654 0.0
H2052 H 0.80129 0.04942 0.05907 0.0
H2053 H 0.64298 0.91827 0.99415 0.0
H2054 H 0.65998 0.96908 0.988 0.0
H2055 H 0.68666 0.94719 0.97645 0.0
H2056 H 0.74126 0.10317 0.96929 0.0
H2057 H 0.80554 0.04833 0.94578 0.0
H2058 H 0.71755 0.06152 0.02803 0.0
H2059 H 0.67749 0.02987 0.00894 0.0
H2060 H 0.70111 0.08191 1.00439 0.0
H2061 H 0.79729 0.9959 0.99749 0.0
H2062 H 0.80079 0.99357 0.96468 0.0
H2063 H 0.75536 0.96275 0.98023 0.0
C2064 C 0.78366 0.74081 0.55135 0.0
C2065 C 0.77934 0.70328 0.55248 0.0
C2066 C 0.76858 0.75265 0.53184 0.0
C2067 C 0.74927 0.72698 0.51211 0.0
C2068 C 0.74545 0.68929 0.5127 0.0
C2069 C 0.76012 0.67777 0.53289 0.0
C2070 C 0.77333 0.79292 0.53246 0.0
C2071 C 0.72583 0.6611 0.49192 0.0
C2072 C 0.68494 0.74993 0.46971 0.0
C2073 C 0.71056 0.77048 0.45036 0.0
C2074 C 0.69686 0.7354 0.48977 0.0
C2075 C 0.73513 0.74072 0.49047 0.0
C2076 C 0.76094 0.76137 0.47097 0.0
C2077 C 0.74864 0.77624 0.45156 0.0
C2078 C 0.66846 0.71433 0.51028 0.0
C2079 C 0.80183 0.76774 0.47051 0.0
H2080 H 0.7985 0.76122 0.56607 0.0
H2081 H 0.75616 0.64867 0.53343 0.0
H2082 H 0.79157 0.81043 0.5168 0.0
H2083 H 0.74452 0.79095 0.53053 0.0
H2084 H 0.7871 0.80867 0.54971 0.0
H2085 H 0.72556 0.6332 0.49476 0.0
H2086 H 0.69536 0.65481 0.48996 0.0
H2087 H 0.74102 0.67434 0.47442 0.0
H2088 H 0.65539 0.74471 0.46908 0.0
H2089 H 0.76902 0.7919 0.43691 0.0
H2090 H 0.68086 0.72926 0.52795 0.0
H2091 H 0.66341 0.68425 0.512 0.0
H2092 H 0.64001 0.71284 0.50733 0.0
H2093 H 0.81855 0.78578 0.4864 0.0
H2094 H 0.81772 0.78248 0.45344 0.0
H2095 H 0.80099 0.73941 0.47213 0.0
C2096 C 0.93883 0.68352 0.96981 0.0
C2097 C 0.94708 0.70809 0.94942 0.0
C2098 C 0.9647 0.69486 0.99012 0.0
C2099 C 1.00073 0.73079 0.98967 0.0
C2100 C 1.00938 0.75512 0.96889 0.0
C2101 C 0.98228 0.74421 0.94968 0.0
C2102 C 0.95314 0.66858 0.0122 0.0
C2103 C 0.0477 0.79287 0.9667 0.0
C2104 C 0.05498 0.78724 0.04709 0.0
C2105 C 0.08275 0.7755 0.0511 0.0
C2106 C 0.02721 0.77134 0.02817 0.0
C2107 C 0.02844 0.74486 0.01128 0.0
C2108 C 0.05826 0.73504 0.01403 0.0
C2109 C 0.08456 0.74986 0.03411 0.0
C2110 C 0.99572 0.78217 0.02672 0.0
C2111 C 0.06217 0.70858 0.99587 0.0
H2112 H 0.91232 0.65548 0.96997 0.0
H2113 H 0.98978 0.76388 0.93422 0.0
H2114 H 0.97496 0.65936 0.01547 0.0
H2115 H 0.9525 0.68478 0.0286 0.0
H2116 H 0.92404 0.64214 0.01005 0.0
H2117 H 0.05195 0.80629 0.94823 0.0
H2118 H 0.04904 0.81406 0.98045 0.0
H2119 H 0.07231 0.78775 0.97048 0.0
H2120 H 0.05327 0.80722 0.05989 0.0
H2121 H 0.10567 0.74042 0.0369 0.0
H2122 H 0.96663 0.75545 0.02583 0.0
H2123 H 0.99931 0.79918 0.00979 0.0
H2124 H 0.99623 0.79977 0.04269 0.0
H2125 H 0.03657 0.67883 0.99733 0.0
H2126 H 0.08895 0.70682 0.999 0.0
H2127 H 0.06277 0.71901 0.97688 0.0
C2128 C 0.27207 0.94149 0.47025 0.0
C2129 C 0.24765 0.94416 0.45268 0.0
C2130 C 0.28658 0.9676 0.4904 0.0
C2131 C 0.27813 0.99858 0.49245 0.0
C2132 C 0.25321 1.00086 0.47467 0.0
C2133 C 0.23654 0.97244 0.45625 0.0
C2134 C 0.30992 0.9607 0.50956 0.0
C2135 C 0.24432 0.03378 0.47428 0.0
C2136 C 0.27477 0.05127 0.55026 0.0
C2137 C 0.31386 0.08006 0.55408 0.0
C2138 C 0.26383 0.02302 0.5318 0.0
C2139 C 0.29148 0.02624 0.51409 0.0
C2140 C 0.33041 0.05807 0.51616 0.0
C2141 C 0.34139 0.08376 0.53652 0.0
C2142 C 0.22247 0.98927 0.53211 0.0
C2143 C 0.36031 0.06613 0.49657 0.0
H2144 H 0.28038 0.91942 0.46812 0.0
H2145 H 0.21705 0.9746 0.4432 0.0
H2146 H 0.32963 0.98728 0.52003 0.0
H2147 H 0.28941 0.93838 0.52265 0.0
H2148 H 0.32753 0.94909 0.5011 0.0
H2149 H 0.24191 0.04188 0.4551 0.0
H2150 H 0.21575 0.024 0.48318 0.0
H2151 H 0.26685 0.06026 0.48375 0.0
H2152 H 0.25275 0.0485 0.56321 0.0
H2153 H 0.37152 0.10633 0.5388 0.0
H2154 H 0.21927 0.96325 0.52242 0.0
H2155 H 0.20299 0.99842 0.52345 0.0
H2156 H 0.2122 0.98066 0.55128 0.0
H2157 H 0.35854 0.03895 0.48978 0.0
H2158 H 0.39042 0.08598 0.50315 0.0
H2159 H 0.35458 0.08037 0.48085 0.0
loop_
_geom_bond_atom_site_label_1
_geom_bond_atom_site_label_2
_geom_bond_distance
_geom_bond_site_symmetry_2
_ccdc_geom_bond_type
Tb0 N29 2.617 . S
Tb0 N35 2.572 . S
Tb0 O44 2.465 . S
Tb0 O45 2.387 . S
Tb0 O47 2.428 . S
Tb0 O48 2.308 . S
Tb0 O52 2.349 . S
Tb0 O55 2.393 . S
Tb0 C64 2.802 . S
C1 N2 1.379 . S
C1 C4 1.416 . S
C1 C8 1.424 . S
N2 C1 1.379 . S
N2 C5 1.334 . S
N2 Tb11 2.617 . S
C3 C5 1.390 . S
C3 C6 1.339 . S
C3 H23 0.930 1_554 S
C4 C1 1.416 . S
C4 C6 1.416 . S
C4 C10 1.448 . S
C5 N2 1.334 . S
C5 C3 1.390 . S
C5 H16 0.930 . S
C6 C3 1.339 . S
C6 C4 1.416 . S
C6 H27 0.930 . S
C7 C8 1.413 . S
C7 C9 1.431 . S
C7 C13 1.416 . S
C8 C1 1.424 . S
C8 C7 1.413 . S
C8 N12 1.361 . S
C9 C7 1.431 . S
C9 C10 1.331 . S
C9 H24 0.922 1_455 S
C10 C4 1.448 . S
C10 C9 1.331 . S
C10 H25 0.930 1_455 S
Tb11 N2 2.617 . S
Tb11 N12 2.572 . S
Tb11 O46 2.349 . S
Tb11 O49 2.393 . S
Tb11 O50 2.465 . S
Tb11 O51 2.387 . S
Tb11 O53 2.428 . S
Tb11 O54 2.308 . S
Tb11 C75 2.802 . S
N12 C8 1.361 . S
N12 Tb11 2.572 . S
N12 C14 1.340 . S
C13 C7 1.416 . S
C13 C15 1.332 . S
C13 H21 0.931 1_455 S
C14 N12 1.340 . S
C14 C15 1.407 . S
C14 H20 0.930 . S
C15 C13 1.332 . S
C15 C14 1.407 . S
C15 H17 0.929 . S
H16 C5 0.930 . S
H17 C15 0.929 . S
H18 C33 0.930 . S
H19 C40 0.929 . S
H20 C14 0.930 . S
H21 C13 0.931 1_655 S
H22 C36 0.930 . S
H23 C3 0.930 1_556 S
H24 C9 0.922 1_655 S
H25 C10 0.930 1_655 S
H26 C31 0.930 . S
H27 C6 0.930 . S
H28 C39 0.931 . S
N29 Tb0 2.617 . S
N29 C30 1.379 . S
N29 C33 1.334 . S
C30 N29 1.379 . S
C30 C32 1.416 . S
C30 C38 1.424 . S
C31 H26 0.930 . S
C31 C33 1.390 . S
C31 C34 1.339 . S
C32 C30 1.416 . S
C32 C34 1.416 . S
C32 C65 1.448 . S
C33 H18 0.930 . S
C33 N29 1.334 . S
C33 C31 1.390 . S
C34 C31 1.339 . S
C34 C32 1.416 . S
C34 H41 0.930 . S
N35 Tb0 2.572 . S
N35 C36 1.340 . S
N35 C38 1.361 . S
C36 H22 0.930 . S
C36 N35 1.340 . S
C36 C40 1.407 . S
C37 C38 1.413 . S
C37 C39 1.416 . S
C37 C66 1.427 . S
C38 C30 1.424 . S
C38 N35 1.361 . S
C38 C37 1.413 . S
C39 H28 0.931 . S
C39 C37 1.416 . S
C39 C40 1.332 . S
C40 H19 0.929 . S
C40 C36 1.407 . S
C40 C39 1.332 . S
H41 C34 0.930 . S
H42 C65 0.930 . S
H43 C66 0.929 . S
O44 Tb0 2.465 . S
O44 C64 1.264 . S
O45 Tb0 2.387 . S
O45 C56 1.264 . S
O46 Tb11 2.349 . S
O46 C56 1.243 . S
O47 Tb0 2.428 . S
O47 C64 1.256 . S
O48 Tb0 2.308 . S
O48 C63 1.266 . S
O49 Tb11 2.393 . S
O49 C63 1.248 . S
O50 Tb11 2.465 . S
O50 C75 1.264 . S
O51 Tb11 2.387 . S
O51 C67 1.264 . S
O52 Tb0 2.349 . S
O52 C67 1.243 . S
O53 Tb11 2.428 . S
O53 C75 1.256 . S
O54 Tb11 2.308 . S
O54 C74 1.266 . S
O55 Tb0 2.393 . S
O55 C74 1.248 . S
C56 O45 1.264 . S
C56 O46 1.243 . S
C57 C60 1.399 . S
C57 C62 1.383 . S
C57 C64 1.496 . S
C58 C59 1.399 . S
C58 C62 1.389 . S
C59 C58 1.399 . S
C59 C61 1.380 . S
C59 H76 0.929 . S
C60 C57 1.399 . S
C60 C61 1.392 . S
C60 H77 0.929 . S
C61 C59 1.380 . S
C61 C60 1.392 . S
C61 H78 0.929 . S
C62 C57 1.383 . S
C62 C58 1.389 . S
C62 H79 0.931 . S
C63 O48 1.266 . S
C63 O49 1.248 . S
C64 Tb0 2.802 . S
C64 O44 1.264 . S
C64 O47 1.256 . S
C64 C57 1.496 . S
C65 C32 1.448 . S
C65 H42 0.930 . S
C65 C66 1.328 . S
C66 C37 1.427 . S
C66 H43 0.929 . S
C66 C65 1.328 . S
C67 O51 1.264 . S
C67 O52 1.243 . S
C68 C71 1.399 . S
C68 C72 1.383 . S
C68 C75 1.496 . S
C69 C70 1.399 . S
C69 C72 1.389 . S
C70 C69 1.399 . S
C70 C73 1.380 . S
C70 H80 0.929 . S
C71 C68 1.399 . S
C71 C73 1.392 . S
C71 H81 0.929 . S
C72 C68 1.383 . S
C72 C69 1.389 . S
C72 H82 0.931 . S
C73 C70 1.380 . S
C73 C71 1.392 . S
C73 H83 0.929 . S
C74 O54 1.266 . S
C74 O55 1.248 . S
C75 Tb11 2.802 . S
C75 O50 1.264 . S
C75 O53 1.256 . S
C75 C68 1.496 . S
H76 C59 0.929 . S
H77 C60 0.929 . S
H78 C61 0.929 . S
H79 C62 0.931 . S
H80 C70 0.929 . S
H81 C71 0.929 . S
H82 C72 0.931 . S
H83 C73 0.929 . S
Tb84 N113 2.617 . S
Tb84 N119 2.572 . S
Tb84 O128 2.465 . S
Tb84 O129 2.387 . S
Tb84 O131 2.428 . S
Tb84 O132 2.308 . S
Tb84 O136 2.349 . S
Tb84 O139 2.393 . S
Tb84 C148 2.802 . S
C85 N86 1.379 . S
C85 C88 1.416 . S
C85 C92 1.424 . S
N86 C85 1.379 . S
N86 C89 1.334 . S
N86 Tb95 2.617 . S
C87 C89 1.390 . S
C87 C90 1.339 . S
C87 H107 0.930 . S
C88 C85 1.416 . S
C88 C90 1.416 . S
C88 C94 1.448 . S
C89 N86 1.334 . S
C89 C87 1.390 . S
C89 H100 0.930 . S
C90 C87 1.339 . S
C90 C88 1.416 . S
C90 H111 0.930 . S
C91 C92 1.413 . S
C91 C93 1.431 . S
C91 C97 1.416 . S
C92 C85 1.424 . S
C92 C91 1.413 . S
C92 N96 1.361 . S
C93 C91 1.431 . S
C93 C94 1.330 . S
C93 H108 0.923 1_545 S
C94 C88 1.448 . S
C94 C93 1.330 . S
C94 H109 0.930 1_545 S
Tb95 N86 2.617 . S
Tb95 N96 2.572 . S
Tb95 O130 2.349 . S
Tb95 O133 2.393 . S
Tb95 O134 2.465 . S
Tb95 O135 2.387 . S
Tb95 O137 2.428 . S
Tb95 O138 2.308 . S
Tb95 C159 2.802 . S
N96 C92 1.361 . S
N96 Tb95 2.572 . S
N96 C98 1.340 . S
C97 C91 1.416 . S
C97 C99 1.332 . S
C97 H105 0.931 1_545 S
C98 N96 1.340 . S
C98 C99 1.407 . S
C98 H104 0.930 . S
C99 C97 1.332 . S
C99 C98 1.407 . S
C99 H101 0.929 . S
H100 C89 0.930 . S
H101 C99 0.929 . S
H102 C117 0.930 . S
H103 C124 0.930 . S
H104 C98 0.930 . S
H105 C97 0.931 1_565 S
H106 C120 0.930 . S
H107 C87 0.930 . S
H108 C93 0.923 1_565 S
H109 C94 0.930 1_565 S
H110 C115 0.930 . S
H111 C90 0.930 . S
H112 C123 0.931 . S
N113 Tb84 2.617 . S
N113 C114 1.379 . S
N113 C117 1.334 . S
C114 N113 1.379 . S
C114 C116 1.416 . S
C114 C122 1.424 . S
C115 H110 0.930 . S
C115 C117 1.390 . S
C115 C118 1.339 . S
C116 C114 1.416 . S
C116 C118 1.416 . S
C116 C149 1.448 . S
C117 H102 0.930 . S
C117 N113 1.334 . S
C117 C115 1.390 . S
C118 C115 1.339 . S
C118 C116 1.416 . S
C118 H125 0.930 . S
N119 Tb84 2.572 . S
N119 C120 1.340 . S
N119 C122 1.361 . S
C120 H106 0.930 . S
C120 N119 1.340 . S
C120 C124 1.407 1_655 S
C121 C122 1.417 . S
C121 C123 1.411 1_655 S
C121 C150 1.429 1_655 S
C122 C114 1.424 . S
C122 N119 1.361 . S
C122 C121 1.417 . S
C123 H112 0.931 . S
C123 C121 1.411 1_455 S
C123 C124 1.332 . S
C124 H103 0.930 . S
C124 C120 1.407 1_455 S
C124 C123 1.332 . S
H125 C118 0.930 . S
H126 C149 0.930 1_455 S
H127 C150 0.929 . S
O128 Tb84 2.465 . S
O128 C148 1.264 . S
O129 Tb84 2.387 . S
O129 C140 1.264 . S
O130 Tb95 2.349 . S
O130 C140 1.243 . S
O131 Tb84 2.428 . S
O131 C148 1.256 . S
O132 Tb84 2.308 . S
O132 C147 1.266 . S
O133 Tb95 2.393 . S
O133 C147 1.248 . S
O134 Tb95 2.465 . S
O134 C159 1.264 . S
O135 Tb95 2.387 . S
O135 C151 1.264 . S
O136 Tb84 2.349 . S
O136 C151 1.243 . S
O137 Tb95 2.428 . S
O137 C159 1.256 . S
O138 Tb95 2.308 . S
O138 C158 1.266 . S
O139 Tb84 2.393 . S
O139 C158 1.248 . S
C140 O129 1.264 . S
C140 O130 1.243 . S
C141 C144 1.399 . S
C141 C146 1.383 . S
C141 C148 1.496 1_455 S
C142 C143 1.399 . S
C142 C146 1.389 . S
C143 C142 1.399 . S
C143 C145 1.380 . S
C143 H160 0.929 . S
C144 C141 1.399 . S
C144 C145 1.392 . S
C144 H161 0.929 . S
C145 C143 1.380 . S
C145 C144 1.392 . S
C145 H162 0.929 . S
C146 C141 1.383 . S
C146 C142 1.389 . S
C146 H163 0.931 . S
C147 O132 1.266 . S
C147 O133 1.248 . S
C148 Tb84 2.802 . S
C148 O128 1.264 . S
C148 O131 1.256 . S
C148 C141 1.496 1_655 S
C149 C116 1.448 . S
C149 H126 0.930 1_655 S
C149 C150 1.328 1_655 S
C150 C121 1.429 1_455 S
C150 H127 0.929 . S
C150 C149 1.328 1_455 S
C151 O135 1.264 . S
C151 O136 1.243 . S
C152 C155 1.399 . S
C152 C156 1.383 . S
C152 C159 1.496 . S
C153 C154 1.399 . S
C153 C156 1.389 . S
C154 C153 1.399 . S
C154 C157 1.380 . S
C154 H164 0.929 . S
C155 C152 1.399 . S
C155 C157 1.392 . S
C155 H165 0.929 . S
C156 C152 1.383 . S
C156 C153 1.389 . S
C156 H166 0.931 . S
C157 C154 1.380 . S
C157 C155 1.392 . S
C157 H167 0.929 . S
C158 O138 1.266 . S
C158 O139 1.248 . S
C159 Tb95 2.802 . S
C159 O134 1.264 . S
C159 O137 1.256 . S
C159 C152 1.496 . S
H160 C143 0.929 . S
H161 C144 0.929 . S
H162 C145 0.929 . S
H163 C146 0.931 . S
H164 C154 0.929 . S
H165 C155 0.929 . S
H166 C156 0.931 . S
H167 C157 0.929 . S
Tb168 N197 2.617 . S
Tb168 N203 2.572 . S
Tb168 O212 2.465 . S
Tb168 O213 2.387 . S
Tb168 O215 2.428 . S
Tb168 O216 2.308 . S
Tb168 O220 2.349 . S
Tb168 O223 2.393 . S
Tb168 C232 2.802 . S
C169 N170 1.379 . S
C169 C172 1.416 . S
C169 C176 1.424 . S
N170 C169 1.379 . S
N170 C173 1.334 . S
N170 Tb179 2.617 . S
C171 C173 1.390 . S
C171 C174 1.339 . S
C171 H191 0.930 1_554 S
C172 C169 1.416 . S
C172 C174 1.416 . S
C172 C178 1.448 . S
C173 N170 1.334 . S
C173 C171 1.390 . S
C173 H184 0.930 . S
C174 C171 1.339 . S
C174 C172 1.416 . S
C174 H195 0.930 . S
C175 C176 1.413 . S
C175 C177 1.427 . S
C175 C181 1.416 . S
C176 C169 1.424 . S
C176 C175 1.413 . S
C176 N180 1.361 . S
C177 C175 1.427 . S
C177 C178 1.328 . S
C177 H192 0.929 . S
C178 C172 1.448 . S
C178 C177 1.328 . S
C178 H193 0.930 . S
Tb179 N170 2.617 . S
Tb179 N180 2.572 . S
Tb179 O214 2.349 . S
Tb179 O217 2.393 . S
Tb179 O218 2.465 . S
Tb179 O219 2.387 . S
Tb179 O221 2.428 . S
Tb179 O222 2.308 . S
Tb179 C243 2.802 . S
N180 C176 1.361 . S
N180 Tb179 2.572 . S
N180 C182 1.340 . S
C181 C175 1.416 . S
C181 C183 1.332 . S
C181 H189 0.931 . S
C182 N180 1.340 . S
C182 C183 1.407 . S
C182 H188 0.930 . S
C183 C181 1.332 . S
C183 C182 1.407 . S
C183 H185 0.929 . S
H184 C173 0.930 . S
H185 C183 0.929 . S
H186 C201 0.930 . S
H187 C208 0.931 . S
H188 C182 0.930 . S
H189 C181 0.931 . S
H190 C204 0.930 . S
H191 C171 0.930 1_556 S
H192 C177 0.929 . S
H193 C178 0.930 . S
H194 C199 0.930 . S
H195 C174 0.930 . S
H196 C207 0.931 . S
N197 Tb168 2.617 . S
N197 C198 1.379 . S
N197 C201 1.334 . S
C198 N197 1.379 . S
C198 C200 1.416 . S
C198 C206 1.424 . S
C199 H194 0.930 . S
C199 C201 1.390 . S
C199 C202 1.339 . S
C200 C198 1.416 . S
C200 C202 1.416 . S
C200 C233 1.448 . S
C201 H186 0.930 . S
C201 N197 1.334 . S
C201 C199 1.390 . S
C202 C199 1.339 . S
C202 C200 1.416 . S
C202 H209 0.930 . S
N203 Tb168 2.572 . S
N203 C204 1.340 . S
N203 C206 1.361 . S
C204 H190 0.930 . S
C204 N203 1.340 . S
C204 C208 1.403 1_565 S
C205 C206 1.440 . S
C205 C207 1.407 1_565 S
C205 C234 1.411 1_565 S
C206 C198 1.424 . S
C206 N203 1.361 . S
C206 C205 1.440 . S
C207 H196 0.931 . S
C207 C205 1.407 1_545 S
C207 C208 1.335 . S
C208 H187 0.931 . S
C208 C204 1.403 1_545 S
C208 C207 1.335 . S
H209 C202 0.930 . S
H210 C233 0.930 1_545 S
H211 C234 0.929 . S
O212 Tb168 2.465 . S
O212 C232 1.264 . S
O213 Tb168 2.387 . S
O213 C224 1.264 . S
O214 Tb179 2.349 . S
O214 C224 1.243 . S
O215 Tb168 2.428 . S
O215 C232 1.256 . S
O216 Tb168 2.308 . S
O216 C231 1.266 . S
O217 Tb179 2.393 . S
O217 C231 1.248 . S
O218 Tb179 2.465 . S
O218 C243 1.264 . S
O219 Tb179 2.387 . S
O219 C235 1.264 . S
O220 Tb168 2.349 . S
O220 C235 1.243 . S
O221 Tb179 2.428 . S
O221 C243 1.256 . S
O222 Tb179 2.308 . S
O222 C242 1.266 . S
O223 Tb168 2.393 . S
O223 C242 1.248 . S
C224 O213 1.264 . S
C224 O214 1.243 . S
C225 C228 1.399 . S
C225 C230 1.383 . S
C225 C232 1.496 1_545 S
C226 C227 1.399 . S
C226 C230 1.389 . S
C227 C226 1.399 . S
C227 C229 1.380 . S
C227 H244 0.929 . S
C228 C225 1.399 . S
C228 C229 1.392 . S
C228 H245 0.929 . S
C229 C227 1.380 . S
C229 C228 1.392 . S
C229 H246 0.929 . S
C230 C225 1.383 . S
C230 C226 1.389 . S
C230 H247 0.931 . S
C231 O216 1.266 . S
C231 O217 1.248 . S
C232 Tb168 2.802 . S
C232 O212 1.264 . S
C232 O215 1.256 . S
C232 C225 1.496 1_565 S
C233 C200 1.448 . S
C233 H210 0.930 1_565 S
C233 C234 1.328 1_565 S
C234 C205 1.411 1_545 S
C234 H211 0.929 . S
C234 C233 1.328 1_545 S
C235 O219 1.264 . S
C235 O220 1.243 . S
C236 C239 1.399 . S
C236 C240 1.383 . S
C236 C243 1.496 . S
C237 C238 1.399 . S
C237 C240 1.389 . S
C238 C237 1.399 . S
C238 C241 1.380 . S
C238 H248 0.929 . S
C239 C236 1.399 . S
C239 C241 1.392 . S
C239 H249 0.929 . S
C240 C236 1.383 . S
C240 C237 1.389 . S
C240 H250 0.931 . S
C241 C238 1.380 . S
C241 C239 1.392 . S
C241 H251 0.929 . S
C242 O222 1.266 . S
C242 O223 1.248 . S
C243 Tb179 2.802 . S
C243 O218 1.264 . S
C243 O221 1.256 . S
C243 C236 1.496 . S
H244 C227 0.929 . S
H245 C228 0.929 . S
H246 C229 0.929 . S
H247 C230 0.931 . S
H248 C238 0.929 . S
H249 C239 0.929 . S
H250 C240 0.931 . S
H251 C241 0.929 . S
Tb252 N281 2.617 . S
Tb252 N287 2.572 . S
Tb252 O296 2.465 . S
Tb252 O297 2.387 . S
Tb252 O299 2.428 . S
Tb252 O300 2.308 . S
Tb252 O304 2.349 . S
Tb252 O307 2.393 . S
Tb252 C316 2.802 . S
C253 N254 1.379 . S
C253 C256 1.416 . S
C253 C260 1.424 . S
N254 C253 1.379 . S
N254 C257 1.334 . S
N254 Tb263 2.617 . S
C255 C257 1.390 . S
C255 C258 1.339 . S
C255 H275 0.930 . S
C256 C253 1.416 . S
C256 C258 1.416 . S
C256 C262 1.448 . S
C257 N254 1.334 . S
C257 C255 1.390 . S
C257 H268 0.930 . S
C258 C255 1.339 . S
C258 C256 1.416 . S
C258 H279 0.930 . S
C259 C260 1.413 . S
C259 C261 1.431 . S
C259 C265 1.416 . S
C260 C253 1.424 . S
C260 C259 1.413 . S
C260 N264 1.361 . S
C261 C259 1.431 . S
C261 C262 1.331 . S
C261 H276 0.922 1_655 S
C262 C256 1.448 . S
C262 C261 1.331 . S
C262 H277 0.930 1_655 S
Tb263 N254 2.617 . S
Tb263 N264 2.572 . S
Tb263 O298 2.349 . S
Tb263 O301 2.393 . S
Tb263 O302 2.465 . S
Tb263 O303 2.387 . S
Tb263 O305 2.428 . S
Tb263 O306 2.308 . S
Tb263 C327 2.802 . S
N264 C260 1.361 . S
N264 Tb263 2.572 . S
N264 C266 1.340 . S
C265 C259 1.416 . S
C265 C267 1.332 . S
C265 H273 0.931 1_655 S
C266 N264 1.340 . S
C266 C267 1.407 . S
C266 H272 0.930 . S
C267 C265 1.332 . S
C267 C266 1.407 . S
C267 H269 0.929 . S
H268 C257 0.930 . S
H269 C267 0.929 . S
H270 C285 0.930 . S
H271 C292 0.929 . S
H272 C266 0.930 . S
H273 C265 0.931 1_455 S
H274 C288 0.930 . S
H275 C255 0.930 . S
H276 C261 0.922 1_455 S
H277 C262 0.930 1_455 S
H278 C283 0.930 . S
H279 C258 0.930 . S
H280 C291 0.931 . S
N281 Tb252 2.617 . S
N281 C282 1.379 . S
N281 C285 1.334 . S
C282 N281 1.379 . S
C282 C284 1.416 . S
C282 C290 1.424 . S
C283 H278 0.930 . S
C283 C285 1.390 . S
C283 C286 1.339 . S
C284 C282 1.416 . S
C284 C286 1.416 . S
C284 C317 1.448 . S
C285 H270 0.930 . S
C285 N281 1.334 . S
C285 C283 1.390 . S
C286 C283 1.339 . S
C286 C284 1.416 . S
C286 H293 0.930 . S
N287 Tb252 2.572 . S
N287 C288 1.340 . S
N287 C290 1.361 . S
C288 H274 0.930 . S
C288 N287 1.340 . S
C288 C292 1.407 . S
C289 C290 1.413 . S
C289 C291 1.416 . S
C289 C318 1.427 . S
C290 C282 1.424 . S
C290 N287 1.361 . S
C290 C289 1.413 . S
C291 H280 0.931 . S
C291 C289 1.416 . S
C291 C292 1.332 . S
C292 H271 0.929 . S
C292 C288 1.407 . S
C292 C291 1.332 . S
H293 C286 0.930 . S
H294 C317 0.930 . S
H295 C318 0.929 . S
O296 Tb252 2.465 . S
O296 C316 1.264 . S
O297 Tb252 2.387 . S
O297 C308 1.264 . S
O298 Tb263 2.349 . S
O298 C308 1.243 . S
O299 Tb252 2.428 . S
O299 C316 1.256 . S
O300 Tb252 2.308 . S
O300 C315 1.266 . S
O301 Tb263 2.393 . S
O301 C315 1.248 . S
O302 Tb263 2.465 . S
O302 C327 1.264 . S
O303 Tb263 2.387 . S
O303 C319 1.264 . S
O304 Tb252 2.349 . S
O304 C319 1.243 . S
O305 Tb263 2.428 . S
O305 C327 1.256 . S
O306 Tb263 2.308 . S
O306 C326 1.266 . S
O307 Tb252 2.393 . S
O307 C326 1.248 . S
C308 O297 1.264 . S
C308 O298 1.243 . S
C309 C312 1.399 . S
C309 C314 1.383 . S
C309 C316 1.496 . S
C310 C311 1.399 . S
C310 C314 1.389 . S
C311 C310 1.399 . S
C311 C313 1.380 . S
C311 H328 0.929 . S
C312 C309 1.399 . S
C312 C313 1.392 . S
C312 H329 0.929 . S
C313 C311 1.380 . S
C313 C312 1.392 . S
C313 H330 0.929 . S
C314 C309 1.383 . S
C314 C310 1.389 . S
C314 H331 0.931 . S
C315 O300 1.266 . S
C315 O301 1.248 . S
C316 Tb252 2.802 . S
C316 O296 1.264 . S
C316 O299 1.256 . S
C316 C309 1.496 . S
C317 C284 1.448 . S
C317 H294 0.930 . S
C317 C318 1.328 . S
C318 C289 1.427 . S
C318 H295 0.929 . S
C318 C317 1.328 . S
C319 O303 1.264 . S
C319 O304 1.243 . S
C320 C323 1.399 . S
C320 C324 1.383 . S
C320 C327 1.496 . S
C321 C322 1.399 . S
C321 C324 1.389 . S
C322 C321 1.399 . S
C322 C325 1.380 . S
C322 H332 0.929 . S
C323 C320 1.399 . S
C323 C325 1.392 . S
C323 H333 0.929 . S
C324 C320 1.383 . S
C324 C321 1.389 . S
C324 H334 0.931 . S
C325 C322 1.380 . S
C325 C323 1.392 . S
C325 H335 0.929 . S
C326 O306 1.266 . S
C326 O307 1.248 . S
C327 Tb263 2.802 . S
C327 O302 1.264 . S
C327 O305 1.256 . S
C327 C320 1.496 . S
H328 C311 0.929 . S
H329 C312 0.929 . S
H330 C313 0.929 . S
H331 C314 0.931 . S
H332 C322 0.929 . S
H333 C323 0.929 . S
H334 C324 0.931 . S
H335 C325 0.929 . S
Tb336 N365 2.617 . S
Tb336 N371 2.572 . S
Tb336 O380 2.465 . S
Tb336 O381 2.387 . S
Tb336 O383 2.428 . S
Tb336 O384 2.308 . S
Tb336 O388 2.349 . S
Tb336 O391 2.393 . S
Tb336 C400 2.802 . S
C337 N338 1.379 . S
C337 C340 1.416 . S
C337 C344 1.424 . S
N338 C337 1.379 . S
N338 C341 1.334 . S
N338 Tb347 2.617 . S
C339 C341 1.390 . S
C339 C342 1.339 . S
C339 H359 0.930 1_554 S
C340 C337 1.416 . S
C340 C342 1.416 . S
C340 C346 1.448 . S
C341 N338 1.334 . S
C341 C339 1.390 . S
C341 H352 0.930 . S
C342 C339 1.339 . S
C342 C340 1.416 . S
C342 H363 0.930 . S
C343 C344 1.413 . S
C343 C345 1.431 . S
C343 C349 1.416 . S
C344 C337 1.424 . S
C344 C343 1.413 . S
C344 N348 1.361 . S
C345 C343 1.431 . S
C345 C346 1.330 . S
C345 H360 0.923 1_565 S
C346 C340 1.448 . S
C346 C345 1.330 . S
C346 H361 0.930 1_565 S
Tb347 N338 2.617 . S
Tb347 N348 2.572 . S
Tb347 O382 2.349 . S
Tb347 O385 2.393 . S
Tb347 O386 2.465 . S
Tb347 O387 2.387 . S
Tb347 O389 2.428 . S
Tb347 O390 2.308 . S
Tb347 C411 2.802 . S
N348 C344 1.361 . S
N348 Tb347 2.572 . S
N348 C350 1.340 . S
C349 C343 1.416 . S
C349 C351 1.332 . S
C349 H357 0.931 1_565 S
C350 N348 1.340 . S
C350 C351 1.407 . S
C350 H356 0.930 . S
C351 C349 1.332 . S
C351 C350 1.407 . S
C351 H353 0.929 . S
H352 C341 0.930 . S
H353 C351 0.929 . S
H354 C369 0.930 . S
H355 C376 0.930 . S
H356 C350 0.930 . S
H357 C349 0.931 1_545 S
H358 C372 0.930 . S
H359 C339 0.930 1_556 S
H360 C345 0.923 1_545 S
H361 C346 0.930 1_545 S
H362 C367 0.930 . S
H363 C342 0.930 . S
H364 C375 0.931 . S
N365 Tb336 2.617 . S
N365 C366 1.379 . S
N365 C369 1.334 . S
C366 N365 1.379 . S
C366 C368 1.416 . S
C366 C374 1.424 . S
C367 H362 0.930 . S
C367 C369 1.390 . S
C367 C370 1.339 . S
C368 C366 1.416 . S
C368 C370 1.416 . S
C368 C401 1.448 . S
C369 H354 0.930 . S
C369 N365 1.334 . S
C369 C367 1.390 . S
C370 C367 1.339 . S
C370 C368 1.416 . S
C370 H377 0.930 . S
N371 Tb336 2.572 . S
N371 C372 1.340 . S
N371 C374 1.361 . S
C372 H358 0.930 . S
C372 N371 1.340 . S
C372 C376 1.407 1_455 S
C373 C374 1.417 . S
C373 C375 1.411 1_455 S
C373 C402 1.429 1_455 S
C374 C366 1.424 . S
C374 N371 1.361 . S
C374 C373 1.417 . S
C375 H364 0.931 . S
C375 C373 1.411 1_655 S
C375 C376 1.332 . S
C376 H355 0.930 . S
C376 C372 1.407 1_655 S
C376 C375 1.332 . S
H377 C370 0.930 . S
H378 C401 0.930 1_655 S
H379 C402 0.929 . S
O380 Tb336 2.465 . S
O380 C400 1.264 . S
O381 Tb336 2.387 . S
O381 C392 1.264 . S
O382 Tb347 2.349 . S
O382 C392 1.243 . S
O383 Tb336 2.428 . S
O383 C400 1.256 . S
O384 Tb336 2.308 . S
O384 C399 1.266 . S
O385 Tb347 2.393 . S
O385 C399 1.248 . S
O386 Tb347 2.465 . S
O386 C411 1.264 . S
O387 Tb347 2.387 . S
O387 C403 1.264 . S
O388 Tb336 2.349 . S
O388 C403 1.243 . S
O389 Tb347 2.428 . S
O389 C411 1.256 . S
O390 Tb347 2.308 . S
O390 C410 1.266 . S
O391 Tb336 2.393 . S
O391 C410 1.248 . S
C392 O381 1.264 . S
C392 O382 1.243 . S
C393 C396 1.399 . S
C393 C398 1.383 . S
C393 C400 1.496 1_655 S
C394 C395 1.399 . S
C394 C398 1.389 . S
C395 C394 1.399 . S
C395 C397 1.380 . S
C395 H412 0.929 . S
C396 C393 1.399 . S
C396 C397 1.392 . S
C396 H413 0.929 . S
C397 C395 1.380 . S
C397 C396 1.392 . S
C397 H414 0.929 . S
C398 C393 1.383 . S
C398 C394 1.389 . S
C398 H415 0.931 . S
C399 O384 1.266 . S
C399 O385 1.248 . S
C400 Tb336 2.802 . S
C400 O380 1.264 . S
C400 O383 1.256 . S
C400 C393 1.496 1_455 S
C401 C368 1.448 . S
C401 H378 0.930 1_455 S
C401 C402 1.328 1_455 S
C402 C373 1.429 1_655 S
C402 H379 0.929 . S
C402 C401 1.328 1_655 S
C403 O387 1.264 . S
C403 O388 1.243 . S
C404 C407 1.399 . S
C404 C408 1.383 . S
C404 C411 1.496 . S
C405 C406 1.399 . S
C405 C408 1.389 . S
C406 C405 1.399 . S
C406 C409 1.380 . S
C406 H416 0.929 . S
C407 C404 1.399 . S
C407 C409 1.392 . S
C407 H417 0.929 . S
C408 C404 1.383 . S
C408 C405 1.389 . S
C408 H418 0.931 . S
C409 C406 1.380 . S
C409 C407 1.392 . S
C409 H419 0.929 . S
C410 O390 1.266 . S
C410 O391 1.248 . S
C411 Tb347 2.802 . S
C411 O386 1.264 . S
C411 O389 1.256 . S
C411 C404 1.496 . S
H412 C395 0.929 . S
H413 C396 0.929 . S
H414 C397 0.929 . S
H415 C398 0.931 . S
H416 C406 0.929 . S
H417 C407 0.929 . S
H418 C408 0.931 . S
H419 C409 0.929 . S
Tb420 N449 2.617 . S
Tb420 N455 2.572 . S
Tb420 O464 2.465 . S
Tb420 O465 2.387 . S
Tb420 O467 2.428 . S
Tb420 O468 2.308 . S
Tb420 O472 2.349 . S
Tb420 O475 2.393 . S
Tb420 C484 2.802 . S
C421 N422 1.379 . S
C421 C424 1.416 . S
C421 C428 1.424 . S
N422 C421 1.379 . S
N422 C425 1.334 . S
N422 Tb431 2.617 . S
C423 C425 1.390 . S
C423 C426 1.339 . S
C423 H443 0.930 . S
C424 C421 1.416 . S
C424 C426 1.416 . S
C424 C430 1.448 . S
C425 N422 1.334 . S
C425 C423 1.390 . S
C425 H436 0.930 . S
C426 C423 1.339 . S
C426 C424 1.416 . S
C426 H447 0.930 . S
C427 C428 1.413 . S
C427 C429 1.427 . S
C427 C433 1.416 . S
C428 C421 1.424 . S
C428 C427 1.413 . S
C428 N432 1.361 . S
C429 C427 1.427 . S
C429 C430 1.328 . S
C429 H444 0.929 . S
C430 C424 1.448 . S
C430 C429 1.328 . S
C430 H445 0.930 . S
Tb431 N422 2.617 . S
Tb431 N432 2.572 . S
Tb431 O466 2.349 . S
Tb431 O469 2.393 . S
Tb431 O470 2.465 . S
Tb431 O471 2.387 . S
Tb431 O473 2.428 . S
Tb431 O474 2.308 . S
Tb431 C495 2.802 . S
N432 C428 1.361 . S
N432 Tb431 2.572 . S
N432 C434 1.340 . S
C433 C427 1.416 . S
C433 C435 1.332 . S
C433 H441 0.931 . S
C434 N432 1.340 . S
C434 C435 1.407 . S
C434 H440 0.930 . S
C435 C433 1.332 . S
C435 C434 1.407 . S
C435 H437 0.929 . S
H436 C425 0.930 . S
H437 C435 0.929 . S
H438 C453 0.930 . S
H439 C460 0.931 . S
H440 C434 0.930 . S
H441 C433 0.931 . S
H442 C456 0.930 . S
H443 C423 0.930 . S
H444 C429 0.929 . S
H445 C430 0.930 . S
H446 C451 0.930 . S
H447 C426 0.930 . S
H448 C459 0.931 . S
N449 Tb420 2.617 . S
N449 C450 1.379 . S
N449 C453 1.334 . S
C450 N449 1.379 . S
C450 C452 1.416 . S
C450 C458 1.424 . S
C451 H446 0.930 . S
C451 C453 1.390 . S
C451 C454 1.339 . S
C452 C450 1.416 . S
C452 C454 1.416 . S
C452 C485 1.448 . S
C453 H438 0.930 . S
C453 N449 1.334 . S
C453 C451 1.390 . S
C454 C451 1.339 . S
C454 C452 1.416 . S
C454 H461 0.930 . S
N455 Tb420 2.572 . S
N455 C456 1.340 . S
N455 C458 1.361 . S
C456 H442 0.930 . S
C456 N455 1.340 . S
C456 C460 1.403 1_545 S
C457 C458 1.440 . S
C457 C459 1.407 1_545 S
C457 C486 1.411 1_545 S
C458 C450 1.424 . S
C458 N455 1.361 . S
C458 C457 1.440 . S
C459 H448 0.931 . S
C459 C457 1.407 1_565 S
C459 C460 1.335 . S
C460 H439 0.931 . S
C460 C456 1.403 1_565 S
C460 C459 1.335 . S
H461 C454 0.930 . S
H462 C485 0.930 1_565 S
H463 C486 0.929 . S
O464 Tb420 2.465 . S
O464 C484 1.264 . S
O465 Tb420 2.387 . S
O465 C476 1.264 . S
O466 Tb431 2.349 . S
O466 C476 1.243 . S
O467 Tb420 2.428 . S
O467 C484 1.256 . S
O468 Tb420 2.308 . S
O468 C483 1.266 . S
O469 Tb431 2.393 . S
O469 C483 1.248 . S
O470 Tb431 2.465 . S
O470 C495 1.264 . S
O471 Tb431 2.387 . S
O471 C487 1.264 . S
O472 Tb420 2.349 . S
O472 C487 1.243 . S
O473 Tb431 2.428 . S
O473 C495 1.256 . S
O474 Tb431 2.308 . S
O474 C494 1.266 . S
O475 Tb420 2.393 . S
O475 C494 1.248 . S
C476 O465 1.264 . S
C476 O466 1.243 . S
C477 C480 1.399 . S
C477 C482 1.383 . S
C477 C484 1.496 1_565 S
C478 C479 1.399 . S
C478 C482 1.389 . S
C479 C478 1.399 . S
C479 C481 1.380 . S
C479 H496 0.929 . S
C480 C477 1.399 . S
C480 C481 1.392 . S
C480 H497 0.929 . S
C481 C479 1.380 . S
C481 C480 1.392 . S
C481 H498 0.929 . S
C482 C477 1.383 . S
C482 C478 1.389 . S
C482 H499 0.931 . S
C483 O468 1.266 . S
C483 O469 1.248 . S
C484 Tb420 2.802 . S
C484 O464 1.264 . S
C484 O467 1.256 . S
C484 C477 1.496 1_545 S
C485 C452 1.448 . S
C485 H462 0.930 1_545 S
C485 C486 1.328 1_545 S
C486 C457 1.411 1_565 S
C486 H463 0.929 . S
C486 C485 1.328 1_565 S
C487 O471 1.264 . S
C487 O472 1.243 . S
C488 C491 1.399 . S
C488 C492 1.383 . S
C488 C495 1.496 . S
C489 C490 1.399 . S
C489 C492 1.389 . S
C490 C489 1.399 . S
C490 C493 1.380 . S
C490 H500 0.929 . S
C491 C488 1.399 . S
C491 C493 1.392 . S
C491 H501 0.929 . S
C492 C488 1.383 . S
C492 C489 1.389 . S
C492 H502 0.931 . S
C493 C490 1.380 . S
C493 C491 1.392 . S
C493 H503 0.929 . S
C494 O474 1.266 . S
C494 O475 1.248 . S
C495 Tb431 2.802 . S
C495 O470 1.264 . S
C495 O473 1.256 . S
C495 C488 1.496 . S
H496 C479 0.929 . S
H497 C480 0.929 . S
H498 C481 0.929 . S
H499 C482 0.931 . S
H500 C490 0.929 . S
H501 C491 0.929 . S
H502 C492 0.931 . S
H503 C493 0.929 . S
Tb504 N533 2.617 . S
Tb504 N539 2.572 . S
Tb504 O548 2.465 . S
Tb504 O549 2.387 . S
Tb504 O551 2.428 . S
Tb504 O552 2.308 . S
Tb504 O556 2.349 . S
Tb504 O559 2.393 . S
Tb504 C568 2.802 . S
C505 N506 1.379 . S
C505 C508 1.416 . S
C505 C512 1.424 . S
N506 C505 1.379 . S
N506 C509 1.334 . S
N506 Tb515 2.617 . S
C507 C509 1.390 . S
C507 C510 1.339 . S
C507 H527 0.930 . S
C508 C505 1.416 . S
C508 C510 1.416 . S
C508 C514 1.448 . S
C509 N506 1.334 . S
C509 C507 1.390 . S
C509 H520 0.930 . S
C510 C507 1.339 . S
C510 C508 1.416 . S
C510 H531 0.930 . S
C511 C512 1.413 . S
C511 C513 1.431 . S
C511 C517 1.416 . S
C512 C505 1.424 . S
C512 C511 1.413 . S
C512 N516 1.361 . S
C513 C511 1.431 . S
C513 C514 1.331 . S
C513 H528 0.922 1_565 S
C514 C508 1.448 . S
C514 C513 1.331 . S
C514 H529 0.930 1_565 S
Tb515 N506 2.617 . S
Tb515 N516 2.572 . S
Tb515 O550 2.349 . S
Tb515 O553 2.393 . S
Tb515 O554 2.465 . S
Tb515 O555 2.387 . S
Tb515 O557 2.428 . S
Tb515 O558 2.308 . S
Tb515 C579 2.802 . S
N516 C512 1.361 . S
N516 Tb515 2.572 . S
N516 C518 1.340 . S
C517 C511 1.416 . S
C517 C519 1.332 . S
C517 H525 0.931 1_565 S
C518 N516 1.340 . S
C518 C519 1.407 . S
C518 H524 0.930 . S
C519 C517 1.332 . S
C519 C518 1.407 . S
C519 H521 0.929 . S
H520 C509 0.930 . S
H521 C519 0.929 . S
H522 C537 0.930 . S
H523 C544 0.929 . S
H524 C518 0.930 . S
H525 C517 0.931 1_545 S
H526 C540 0.930 . S
H527 C507 0.930 . S
H528 C513 0.922 1_545 S
H529 C514 0.930 1_545 S
H530 C535 0.930 . S
H531 C510 0.930 . S
H532 C543 0.931 . S
N533 Tb504 2.617 . S
N533 C534 1.379 . S
N533 C537 1.334 . S
C534 N533 1.379 . S
C534 C536 1.416 . S
C534 C542 1.424 . S
C535 H530 0.930 . S
C535 C537 1.390 . S
C535 C538 1.339 . S
C536 C534 1.416 . S
C536 C538 1.416 . S
C536 C569 1.448 . S
C537 H522 0.930 . S
C537 N533 1.334 . S
C537 C535 1.390 . S
C538 C535 1.339 . S
C538 C536 1.416 . S
C538 H545 0.930 . S
N539 Tb504 2.572 . S
N539 C540 1.340 . S
N539 C542 1.361 . S
C540 H526 0.930 . S
C540 N539 1.340 . S
C540 C544 1.407 . S
C541 C542 1.413 . S
C541 C543 1.416 . S
C541 C570 1.427 . S
C542 C534 1.424 . S
C542 N539 1.361 . S
C542 C541 1.413 . S
C543 H532 0.931 . S
C543 C541 1.416 . S
C543 C544 1.332 . S
C544 H523 0.929 . S
C544 C540 1.407 . S
C544 C543 1.332 . S
H545 C538 0.930 . S
H546 C569 0.930 . S
H547 C570 0.929 . S
O548 Tb504 2.465 . S
O548 C568 1.264 . S
O549 Tb504 2.387 . S
O549 C560 1.264 . S
O550 Tb515 2.349 . S
O550 C560 1.243 . S
O551 Tb504 2.428 . S
O551 C568 1.256 . S
O552 Tb504 2.308 . S
O552 C567 1.266 . S
O553 Tb515 2.393 . S
O553 C567 1.248 . S
O554 Tb515 2.465 . S
O554 C579 1.264 . S
O555 Tb515 2.387 . S
O555 C571 1.264 . S
O556 Tb504 2.349 . S
O556 C571 1.243 . S
O557 Tb515 2.428 . S
O557 C579 1.256 . S
O558 Tb515 2.308 . S
O558 C578 1.266 . S
O559 Tb504 2.393 . S
O559 C578 1.248 . S
C560 O549 1.264 . S
C560 O550 1.243 . S
C561 C564 1.399 . S
C561 C566 1.383 . S
C561 C568 1.496 . S
C562 C563 1.399 . S
C562 C566 1.389 . S
C563 C562 1.399 . S
C563 C565 1.380 . S
C563 H580 0.929 . S
C564 C561 1.399 . S
C564 C565 1.392 . S
C564 H581 0.929 . S
C565 C563 1.380 . S
C565 C564 1.392 . S
C565 H582 0.929 . S
C566 C561 1.383 . S
C566 C562 1.389 . S
C566 H583 0.931 . S
C567 O552 1.266 . S
C567 O553 1.248 . S
C568 Tb504 2.802 . S
C568 O548 1.264 . S
C568 O551 1.256 . S
C568 C561 1.496 . S
C569 C536 1.448 . S
C569 H546 0.930 . S
C569 C570 1.328 . S
C570 C541 1.427 . S
C570 H547 0.929 . S
C570 C569 1.328 . S
C571 O555 1.264 . S
C571 O556 1.243 . S
C572 C575 1.399 . S
C572 C576 1.383 . S
C572 C579 1.496 . S
C573 C574 1.399 . S
C573 C576 1.389 . S
C574 C573 1.399 . S
C574 C577 1.380 . S
C574 H584 0.929 . S
C575 C572 1.399 . S
C575 C577 1.392 . S
C575 H585 0.929 . S
C576 C572 1.383 . S
C576 C573 1.389 . S
C576 H586 0.931 . S
C577 C574 1.380 . S
C577 C575 1.392 . S
C577 H587 0.929 . S
C578 O558 1.266 . S
C578 O559 1.248 . S
C579 Tb515 2.802 . S
C579 O554 1.264 . S
C579 O557 1.256 . S
C579 C572 1.496 . S
H580 C563 0.929 . S
H581 C564 0.929 . S
H582 C565 0.929 . S
H583 C566 0.931 . S
H584 C574 0.929 . S
H585 C575 0.929 . S
H586 C576 0.931 . S
H587 C577 0.929 . S
Tb588 N617 2.617 . S
Tb588 N623 2.572 . S
Tb588 O632 2.465 . S
Tb588 O633 2.387 . S
Tb588 O635 2.428 . S
Tb588 O636 2.308 . S
Tb588 O640 2.349 . S
Tb588 O643 2.393 . S
Tb588 C652 2.802 . S
C589 N590 1.379 . S
C589 C592 1.416 . S
C589 C596 1.424 . S
N590 C589 1.379 . S
N590 C593 1.334 . S
N590 Tb599 2.617 . S
C591 C593 1.390 . S
C591 C594 1.339 . S
C591 H611 0.930 1_556 S
C592 C589 1.416 . S
C592 C594 1.416 . S
C592 C598 1.448 . S
C593 N590 1.334 . S
C593 C591 1.390 . S
C593 H604 0.930 . S
C594 C591 1.339 . S
C594 C592 1.416 . S
C594 H615 0.930 . S
C595 C596 1.413 . S
C595 C597 1.427 . S
C595 C601 1.416 . S
C596 C589 1.424 . S
C596 C595 1.413 . S
C596 N600 1.361 . S
C597 C595 1.427 . S
C597 C598 1.328 . S
C597 H612 0.929 . S
C598 C592 1.448 . S
C598 C597 1.328 . S
C598 H613 0.930 . S
Tb599 N590 2.617 . S
Tb599 N600 2.572 . S
Tb599 O634 2.349 . S
Tb599 O637 2.393 . S
Tb599 O638 2.465 . S
Tb599 O639 2.387 . S
Tb599 O641 2.428 . S
Tb599 O642 2.308 . S
Tb599 C663 2.802 . S
N600 C596 1.361 . S
N600 Tb599 2.572 . S
N600 C602 1.340 . S
C601 C595 1.416 . S
C601 C603 1.332 . S
C601 H609 0.931 . S
C602 N600 1.340 . S
C602 C603 1.407 . S
C602 H608 0.930 . S
C603 C601 1.332 . S
C603 C602 1.407 . S
C603 H605 0.929 . S
H604 C593 0.930 . S
H605 C603 0.929 . S
H606 C621 0.930 . S
H607 C628 0.931 . S
H608 C602 0.930 . S
H609 C601 0.931 . S
H610 C624 0.930 . S
H611 C591 0.930 1_554 S
H612 C597 0.929 . S
H613 C598 0.930 . S
H614 C619 0.930 . S
H615 C594 0.930 . S
H616 C627 0.931 . S
N617 Tb588 2.617 . S
N617 C618 1.379 . S
N617 C621 1.334 . S
C618 N617 1.379 . S
C618 C620 1.416 . S
C618 C626 1.424 . S
C619 H614 0.930 . S
C619 C621 1.390 . S
C619 C622 1.339 . S
C620 C618 1.416 . S
C620 C622 1.416 . S
C620 C653 1.448 . S
C621 H606 0.930 . S
C621 N617 1.334 . S
C621 C619 1.390 . S
C622 C619 1.339 . S
C622 C620 1.416 . S
C622 H629 0.930 . S
N623 Tb588 2.572 . S
N623 C624 1.340 . S
N623 C626 1.361 . S
C624 H610 0.930 . S
C624 N623 1.340 . S
C624 C628 1.403 1_655 S
C625 C626 1.440 . S
C625 C627 1.407 1_655 S
C625 C654 1.411 1_655 S
C626 C618 1.424 . S
C626 N623 1.361 . S
C626 C625 1.440 . S
C627 H616 0.931 . S
C627 C625 1.407 1_455 S
C627 C628 1.335 . S
C628 H607 0.931 . S
C628 C624 1.403 1_455 S
C628 C627 1.335 . S
H629 C622 0.930 . S
H630 C653 0.930 1_455 S
H631 C654 0.929 . S
O632 Tb588 2.465 . S
O632 C652 1.264 . S
O633 Tb588 2.387 . S
O633 C644 1.264 . S
O634 Tb599 2.349 . S
O634 C644 1.243 . S
O635 Tb588 2.428 . S
O635 C652 1.256 . S
O636 Tb588 2.308 . S
O636 C651 1.266 . S
O637 Tb599 2.393 . S
O637 C651 1.248 . S
O638 Tb599 2.465 . S
O638 C663 1.264 . S
O639 Tb599 2.387 . S
O639 C655 1.264 . S
O640 Tb588 2.349 . S
O640 C655 1.243 . S
O641 Tb599 2.428 . S
O641 C663 1.256 . S
O642 Tb599 2.308 . S
O642 C662 1.266 . S
O643 Tb588 2.393 . S
O643 C662 1.248 . S
C644 O633 1.264 . S
C644 O634 1.243 . S
C645 C648 1.399 . S
C645 C650 1.383 . S
C645 C652 1.496 1_455 S
C646 C647 1.399 . S
C646 C650 1.389 . S
C647 C646 1.399 . S
C647 C649 1.380 . S
C647 H664 0.929 . S
C648 C645 1.399 . S
C648 C649 1.392 . S
C648 H665 0.929 . S
C649 C647 1.380 . S
C649 C648 1.392 . S
C649 H666 0.929 . S
C650 C645 1.383 . S
C650 C646 1.389 . S
C650 H667 0.931 . S
C651 O636 1.266 . S
C651 O637 1.248 . S
C652 Tb588 2.802 . S
C652 O632 1.264 . S
C652 O635 1.256 . S
C652 C645 1.496 1_655 S
C653 C620 1.448 . S
C653 H630 0.930 1_655 S
C653 C654 1.328 1_655 S
C654 C625 1.411 1_455 S
C654 H631 0.929 . S
C654 C653 1.328 1_455 S
C655 O639 1.264 . S
C655 O640 1.243 . S
C656 C659 1.399 . S
C656 C660 1.383 . S
C656 C663 1.496 . S
C657 C658 1.399 . S
C657 C660 1.389 . S
C658 C657 1.399 . S
C658 C661 1.380 . S
C658 H668 0.929 . S
C659 C656 1.399 . S
C659 C661 1.392 . S
C659 H669 0.929 . S
C660 C656 1.383 . S
C660 C657 1.389 . S
C660 H670 0.931 . S
C661 C658 1.380 . S
C661 C659 1.392 . S
C661 H671 0.929 . S
C662 O642 1.266 . S
C662 O643 1.248 . S
C663 Tb599 2.802 . S
C663 O638 1.264 . S
C663 O641 1.256 . S
C663 C656 1.496 . S
H664 C647 0.929 . S
H665 C648 0.929 . S
H666 C649 0.929 . S
H667 C650 0.931 . S
H668 C658 0.929 . S
H669 C659 0.929 . S
H670 C660 0.931 . S
H671 C661 0.929 . S
Tb672 N701 2.617 . S
Tb672 N707 2.572 . S
Tb672 O716 2.465 . S
Tb672 O717 2.387 . S
Tb672 O719 2.428 . S
Tb672 O720 2.308 . S
Tb672 O724 2.349 . S
Tb672 O727 2.393 . S
Tb672 C736 2.802 . S
C673 N674 1.379 . S
C673 C676 1.416 . S
C673 C680 1.424 . S
N674 C673 1.379 . S
N674 C677 1.334 . S
N674 Tb683 2.617 . S
C675 C677 1.390 . S
C675 C678 1.339 . S
C675 H695 0.930 . S
C676 C673 1.416 . S
C676 C678 1.416 . S
C676 C682 1.448 . S
C677 N674 1.334 . S
C677 C675 1.390 . S
C677 H688 0.930 . S
C678 C675 1.339 . S
C678 C676 1.416 . S
C678 H699 0.930 . S
C679 C680 1.413 . S
C679 C681 1.431 . S
C679 C685 1.416 . S
C680 C673 1.424 . S
C680 C679 1.413 . S
C680 N684 1.361 . S
C681 C679 1.431 . S
C681 C682 1.330 . S
C681 H696 0.923 1_455 S
C682 C676 1.448 . S
C682 C681 1.330 . S
C682 H697 0.930 1_455 S
Tb683 N674 2.617 . S
Tb683 N684 2.572 . S
Tb683 O718 2.349 . S
Tb683 O721 2.393 . S
Tb683 O722 2.465 . S
Tb683 O723 2.387 . S
Tb683 O725 2.428 . S
Tb683 O726 2.308 . S
Tb683 C747 2.802 . S
N684 C680 1.361 . S
N684 Tb683 2.572 . S
N684 C686 1.340 . S
C685 C679 1.416 . S
C685 C687 1.332 . S
C685 H693 0.931 1_455 S
C686 N684 1.340 . S
C686 C687 1.407 . S
C686 H692 0.930 . S
C687 C685 1.332 . S
C687 C686 1.407 . S
C687 H689 0.929 . S
H688 C677 0.930 . S
H689 C687 0.929 . S
H690 C705 0.930 . S
H691 C712 0.930 . S
H692 C686 0.930 . S
H693 C685 0.931 1_655 S
H694 C708 0.930 . S
H695 C675 0.930 . S
H696 C681 0.923 1_655 S
H697 C682 0.930 1_655 S
H698 C703 0.930 . S
H699 C678 0.930 . S
H700 C711 0.931 . S
N701 Tb672 2.617 . S
N701 C702 1.379 . S
N701 C705 1.334 . S
C702 N701 1.379 . S
C702 C704 1.416 . S
C702 C710 1.424 . S
C703 H698 0.930 . S
C703 C705 1.390 . S
C703 C706 1.339 . S
C704 C702 1.416 . S
C704 C706 1.416 . S
C704 C737 1.448 . S
C705 H690 0.930 . S
C705 N701 1.334 . S
C705 C703 1.390 . S
C706 C703 1.339 . S
C706 C704 1.416 . S
C706 H713 0.930 . S
N707 Tb672 2.572 . S
N707 C708 1.340 . S
N707 C710 1.361 . S
C708 H694 0.930 . S
C708 N707 1.340 . S
C708 C712 1.407 1_565 S
C709 C710 1.417 . S
C709 C711 1.411 1_565 S
C709 C738 1.429 1_565 S
C710 C702 1.424 . S
C710 N707 1.361 . S
C710 C709 1.417 . S
C711 H700 0.931 . S
C711 C709 1.411 1_545 S
C711 C712 1.332 . S
C712 H691 0.930 . S
C712 C708 1.407 1_545 S
C712 C711 1.332 . S
H713 C706 0.930 . S
H714 C737 0.930 1_545 S
H715 C738 0.929 . S
O716 Tb672 2.465 . S
O716 C736 1.264 . S
O717 Tb672 2.387 . S
O717 C728 1.264 . S
O718 Tb683 2.349 . S
O718 C728 1.243 . S
O719 Tb672 2.428 . S
O719 C736 1.256 . S
O720 Tb672 2.308 . S
O720 C735 1.266 . S
O721 Tb683 2.393 . S
O721 C735 1.248 . S
O722 Tb683 2.465 . S
O722 C747 1.264 . S
O723 Tb683 2.387 . S
O723 C739 1.264 . S
O724 Tb672 2.349 . S
O724 C739 1.243 . S
O725 Tb683 2.428 . S
O725 C747 1.256 . S
O726 Tb683 2.308 . S
O726 C746 1.266 . S
O727 Tb672 2.393 . S
O727 C746 1.248 . S
C728 O717 1.264 . S
C728 O718 1.243 . S
C729 C732 1.399 . S
C729 C734 1.383 . S
C729 C736 1.496 1_545 S
C730 C731 1.399 . S
C730 C734 1.389 . S
C731 C730 1.399 . S
C731 C733 1.380 . S
C731 H748 0.929 . S
C732 C729 1.399 . S
C732 C733 1.392 . S
C732 H749 0.929 . S
C733 C731 1.380 . S
C733 C732 1.392 . S
C733 H750 0.929 . S
C734 C729 1.383 . S
C734 C730 1.389 . S
C734 H751 0.931 . S
C735 O720 1.266 . S
C735 O721 1.248 . S
C736 Tb672 2.802 . S
C736 O716 1.264 . S
C736 O719 1.256 . S
C736 C729 1.496 1_565 S
C737 C704 1.448 . S
C737 H714 0.930 1_565 S
C737 C738 1.328 1_565 S
C738 C709 1.429 1_545 S
C738 H715 0.929 . S
C738 C737 1.328 1_545 S
C739 O723 1.264 . S
C739 O724 1.243 . S
C740 C743 1.399 . S
C740 C744 1.383 . S
C740 C747 1.496 . S
C741 C742 1.399 . S
C741 C744 1.389 . S
C742 C741 1.399 . S
C742 C745 1.380 . S
C742 H752 0.929 . S
C743 C740 1.399 . S
C743 C745 1.392 . S
C743 H753 0.929 . S
C744 C740 1.383 . S
C744 C741 1.389 . S
C744 H754 0.931 . S
C745 C742 1.380 . S
C745 C743 1.392 . S
C745 H755 0.929 . S
C746 O726 1.266 . S
C746 O727 1.248 . S
C747 Tb683 2.802 . S
C747 O722 1.264 . S
C747 O725 1.256 . S
C747 C740 1.496 . S
H748 C731 0.929 . S
H749 C732 0.929 . S
H750 C733 0.929 . S
H751 C734 0.931 . S
H752 C742 0.929 . S
H753 C743 0.929 . S
H754 C744 0.931 . S
H755 C745 0.929 . S
Tb756 N785 2.617 . S
Tb756 N791 2.572 . S
Tb756 O800 2.465 . S
Tb756 O801 2.387 . S
Tb756 O803 2.428 . S
Tb756 O804 2.308 . S
Tb756 O808 2.349 . S
Tb756 O811 2.393 . S
Tb756 C820 2.802 . S
C757 N758 1.379 . S
C757 C760 1.416 . S
C757 C764 1.424 . S
N758 C757 1.379 . S
N758 C761 1.334 . S
N758 Tb767 2.617 . S
C759 C761 1.390 . S
C759 C762 1.339 . S
C759 H779 0.930 1_556 S
C760 C757 1.416 . S
C760 C762 1.416 . S
C760 C766 1.448 . S
C761 N758 1.334 . S
C761 C759 1.390 . S
C761 H772 0.930 . S
C762 C759 1.339 . S
C762 C760 1.416 . S
C762 H783 0.930 . S
C763 C764 1.413 . S
C763 C765 1.431 . S
C763 C769 1.416 . S
C764 C757 1.424 . S
C764 C763 1.413 . S
C764 N768 1.361 . S
C765 C763 1.431 . S
C765 C766 1.331 . S
C765 H780 0.922 1_545 S
C766 C760 1.448 . S
C766 C765 1.331 . S
C766 H781 0.930 1_545 S
Tb767 N758 2.617 . S
Tb767 N768 2.572 . S
Tb767 O802 2.349 . S
Tb767 O805 2.393 . S
Tb767 O806 2.465 . S
Tb767 O807 2.387 . S
Tb767 O809 2.428 . S
Tb767 O810 2.308 . S
Tb767 C831 2.802 . S
N768 C764 1.361 . S
N768 Tb767 2.572 . S
N768 C770 1.340 . S
C769 C763 1.416 . S
C769 C771 1.332 . S
C769 H777 0.931 1_545 S
C770 N768 1.340 . S
C770 C771 1.407 . S
C770 H776 0.930 . S
C771 C769 1.332 . S
C771 C770 1.407 . S
C771 H773 0.929 . S
H772 C761 0.930 . S
H773 C771 0.929 . S
H774 C789 0.930 . S
H775 C796 0.929 . S
H776 C770 0.930 . S
H777 C769 0.931 1_565 S
H778 C792 0.930 . S
H779 C759 0.930 1_554 S
H780 C765 0.922 1_565 S
H781 C766 0.930 1_565 S
H782 C787 0.930 . S
H783 C762 0.930 . S
H784 C795 0.931 . S
N785 Tb756 2.617 . S
N785 C786 1.379 . S
N785 C789 1.334 . S
C786 N785 1.379 . S
C786 C788 1.416 . S
C786 C794 1.424 . S
C787 H782 0.930 . S
C787 C789 1.390 . S
C787 C790 1.339 . S
C788 C786 1.416 . S
C788 C790 1.416 . S
C788 C821 1.448 . S
C789 H774 0.930 . S
C789 N785 1.334 . S
C789 C787 1.390 . S
C790 C787 1.339 . S
C790 C788 1.416 . S
C790 H797 0.930 . S
N791 Tb756 2.572 . S
N791 C792 1.340 . S
N791 C794 1.361 . S
C792 H778 0.930 . S
C792 N791 1.340 . S
C792 C796 1.407 . S
C793 C794 1.413 . S
C793 C795 1.416 . S
C793 C822 1.427 . S
C794 C786 1.424 . S
C794 N791 1.361 . S
C794 C793 1.413 . S
C795 H784 0.931 . S
C795 C793 1.416 . S
C795 C796 1.332 . S
C796 H775 0.929 . S
C796 C792 1.407 . S
C796 C795 1.332 . S
H797 C790 0.930 . S
H798 C821 0.930 . S
H799 C822 0.929 . S
O800 Tb756 2.465 . S
O800 C820 1.264 . S
O801 Tb756 2.387 . S
O801 C812 1.264 . S
O802 Tb767 2.349 . S
O802 C812 1.243 . S
O803 Tb756 2.428 . S
O803 C820 1.256 . S
O804 Tb756 2.308 . S
O804 C819 1.266 . S
O805 Tb767 2.393 . S
O805 C819 1.248 . S
O806 Tb767 2.465 . S
O806 C831 1.264 . S
O807 Tb767 2.387 . S
O807 C823 1.264 . S
O808 Tb756 2.349 . S
O808 C823 1.243 . S
O809 Tb767 2.428 . S
O809 C831 1.256 . S
O810 Tb767 2.308 . S
O810 C830 1.266 . S
O811 Tb756 2.393 . S
O811 C830 1.248 . S
C812 O801 1.264 . S
C812 O802 1.243 . S
C813 C816 1.399 . S
C813 C818 1.383 . S
C813 C820 1.496 . S
C814 C815 1.399 . S
C814 C818 1.389 . S
C815 C814 1.399 . S
C815 C817 1.380 . S
C815 H832 0.929 . S
C816 C813 1.399 . S
C816 C817 1.392 . S
C816 H833 0.929 . S
C817 C815 1.380 . S
C817 C816 1.392 . S
C817 H834 0.929 . S
C818 C813 1.383 . S
C818 C814 1.389 . S
C818 H835 0.931 . S
C819 O804 1.266 . S
C819 O805 1.248 . S
C820 Tb756 2.802 . S
C820 O800 1.264 . S
C820 O803 1.256 . S
C820 C813 1.496 . S
C821 C788 1.448 . S
C821 H798 0.930 . S
C821 C822 1.328 . S
C822 C793 1.427 . S
C822 H799 0.929 . S
C822 C821 1.328 . S
C823 O807 1.264 . S
C823 O808 1.243 . S
C824 C827 1.399 . S
C824 C828 1.383 . S
C824 C831 1.496 . S
C825 C826 1.399 . S
C825 C828 1.389 . S
C826 C825 1.399 . S
C826 C829 1.380 . S
C826 H836 0.929 . S
C827 C824 1.399 . S
C827 C829 1.392 . S
C827 H837 0.929 . S
C828 C824 1.383 . S
C828 C825 1.389 . S
C828 H838 0.931 . S
C829 C826 1.380 . S
C829 C827 1.392 . S
C829 H839 0.929 . S
C830 O810 1.266 . S
C830 O811 1.248 . S
C831 Tb767 2.802 . S
C831 O806 1.264 . S
C831 O809 1.256 . S
C831 C824 1.496 . S
H832 C815 0.929 . S
H833 C816 0.929 . S
H834 C817 0.929 . S
H835 C818 0.931 . S
H836 C826 0.929 . S
H837 C827 0.929 . S
H838 C828 0.931 . S
H839 C829 0.929 . S
Tb840 N869 2.617 . S
Tb840 N875 2.572 . S
Tb840 O884 2.465 . S
Tb840 O885 2.387 . S
Tb840 O887 2.428 . S
Tb840 O888 2.308 . S
Tb840 O892 2.349 . S
Tb840 O895 2.393 . S
Tb840 C904 2.802 . S
C841 N842 1.379 . S
C841 C844 1.416 . S
C841 C848 1.424 . S
N842 C841 1.379 . S
N842 C845 1.334 . S
N842 Tb851 2.617 . S
C843 C845 1.390 . S
C843 C846 1.339 . S
C843 H863 0.930 . S
C844 C841 1.416 . S
C844 C846 1.416 . S
C844 C850 1.448 . S
C845 N842 1.334 . S
C845 C843 1.390 . S
C845 H856 0.930 . S
C846 C843 1.339 . S
C846 C844 1.416 . S
C846 H867 0.930 . S
C847 C848 1.413 . S
C847 C849 1.427 . S
C847 C853 1.416 . S
C848 C841 1.424 . S
C848 C847 1.413 . S
C848 N852 1.361 . S
C849 C847 1.427 . S
C849 C850 1.328 . S
C849 H864 0.929 . S
C850 C844 1.448 . S
C850 C849 1.328 . S
C850 H865 0.930 . S
Tb851 N842 2.617 . S
Tb851 N852 2.572 . S
Tb851 O886 2.349 . S
Tb851 O889 2.393 . S
Tb851 O890 2.465 . S
Tb851 O891 2.387 . S
Tb851 O893 2.428 . S
Tb851 O894 2.308 . S
Tb851 C915 2.802 . S
N852 C848 1.361 . S
N852 Tb851 2.572 . S
N852 C854 1.340 . S
C853 C847 1.416 . S
C853 C855 1.332 . S
C853 H861 0.931 . S
C854 N852 1.340 . S
C854 C855 1.407 . S
C854 H860 0.930 . S
C855 C853 1.332 . S
C855 C854 1.407 . S
C855 H857 0.929 . S
H856 C845 0.930 . S
H857 C855 0.929 . S
H858 C873 0.930 . S
H859 C880 0.931 . S
H860 C854 0.930 . S
H861 C853 0.931 . S
H862 C876 0.930 . S
H863 C843 0.930 . S
H864 C849 0.929 . S
H865 C850 0.930 . S
H866 C871 0.930 . S
H867 C846 0.930 . S
H868 C879 0.931 . S
N869 Tb840 2.617 . S
N869 C870 1.379 . S
N869 C873 1.334 . S
C870 N869 1.379 . S
C870 C872 1.416 . S
C870 C878 1.424 . S
C871 H866 0.930 . S
C871 C873 1.390 . S
C871 C874 1.339 . S
C872 C870 1.416 . S
C872 C874 1.416 . S
C872 C905 1.448 . S
C873 H858 0.930 . S
C873 N869 1.334 . S
C873 C871 1.390 . S
C874 C871 1.339 . S
C874 C872 1.416 . S
C874 H881 0.930 . S
N875 Tb840 2.572 . S
N875 C876 1.340 . S
N875 C878 1.361 . S
C876 H862 0.930 . S
C876 N875 1.340 . S
C876 C880 1.403 1_455 S
C877 C878 1.440 . S
C877 C879 1.407 1_455 S
C877 C906 1.411 1_455 S
C878 C870 1.424 . S
C878 N875 1.361 . S
C878 C877 1.440 . S
C879 H868 0.931 . S
C879 C877 1.407 1_655 S
C879 C880 1.335 . S
C880 H859 0.931 . S
C880 C876 1.403 1_655 S
C880 C879 1.335 . S
H881 C874 0.930 . S
H882 C905 0.930 1_655 S
H883 C906 0.929 . S
O884 Tb840 2.465 . S
O884 C904 1.264 . S
O885 Tb840 2.387 . S
O885 C896 1.264 . S
O886 Tb851 2.349 . S
O886 C896 1.243 . S
O887 Tb840 2.428 . S
O887 C904 1.256 . S
O888 Tb840 2.308 . S
O888 C903 1.266 . S
O889 Tb851 2.393 . S
O889 C903 1.248 . S
O890 Tb851 2.465 . S
O890 C915 1.264 . S
O891 Tb851 2.387 . S
O891 C907 1.264 . S
O892 Tb840 2.349 . S
O892 C907 1.243 . S
O893 Tb851 2.428 . S
O893 C915 1.256 . S
O894 Tb851 2.308 . S
O894 C914 1.266 . S
O895 Tb840 2.393 . S
O895 C914 1.248 . S
C896 O885 1.264 . S
C896 O886 1.243 . S
C897 C900 1.399 . S
C897 C902 1.383 . S
C897 C904 1.496 1_655 S
C898 C899 1.399 . S
C898 C902 1.389 . S
C899 C898 1.399 . S
C899 C901 1.380 . S
C899 H916 0.929 . S
C900 C897 1.399 . S
C900 C901 1.392 . S
C900 H917 0.929 . S
C901 C899 1.380 . S
C901 C900 1.392 . S
C901 H918 0.929 . S
C902 C897 1.383 . S
C902 C898 1.389 . S
C902 H919 0.931 . S
C903 O888 1.266 . S
C903 O889 1.248 . S
C904 Tb840 2.802 . S
C904 O884 1.264 . S
C904 O887 1.256 . S
C904 C897 1.496 1_455 S
C905 C872 1.448 . S
C905 H882 0.930 1_455 S
C905 C906 1.328 1_455 S
C906 C877 1.411 1_655 S
C906 H883 0.929 . S
C906 C905 1.328 1_655 S
C907 O891 1.264 . S
C907 O892 1.243 . S
C908 C911 1.399 . S
C908 C912 1.383 . S
C908 C915 1.496 . S
C909 C910 1.399 . S
C909 C912 1.389 . S
C910 C909 1.399 . S
C910 C913 1.380 . S
C910 H920 0.929 . S
C911 C908 1.399 . S
C911 C913 1.392 . S
C911 H921 0.929 . S
C912 C908 1.383 . S
C912 C909 1.389 . S
C912 H922 0.931 . S
C913 C910 1.380 . S
C913 C911 1.392 . S
C913 H923 0.929 . S
C914 O894 1.266 . S
C914 O895 1.248 . S
C915 Tb851 2.802 . S
C915 O890 1.264 . S
C915 O893 1.256 . S
C915 C908 1.496 . S
H916 C899 0.929 . S
H917 C900 0.929 . S
H918 C901 0.929 . S
H919 C902 0.931 . S
H920 C910 0.929 . S
H921 C911 0.929 . S
H922 C912 0.931 . S
H923 C913 0.929 . S
Tb924 N953 2.617 . S
Tb924 N959 2.572 . S
Tb924 O968 2.465 . S
Tb924 O969 2.387 . S
Tb924 O971 2.428 . S
Tb924 O972 2.308 . S
Tb924 O976 2.349 . S
Tb924 O979 2.393 . S
Tb924 C988 2.802 . S
C925 N926 1.379 . S
C925 C928 1.416 . S
C925 C932 1.424 . S
N926 C925 1.379 . S
N926 C929 1.334 . S
N926 Tb935 2.617 . S
C927 C929 1.390 . S
C927 C930 1.339 . S
C927 H947 0.930 1_556 S
C928 C925 1.416 . S
C928 C930 1.416 . S
C928 C934 1.448 . S
C929 N926 1.334 . S
C929 C927 1.390 . S
C929 H940 0.930 . S
C930 C927 1.339 . S
C930 C928 1.416 . S
C930 H951 0.930 . S
C931 C932 1.413 . S
C931 C933 1.431 . S
C931 C937 1.416 . S
C932 C925 1.424 . S
C932 C931 1.413 . S
C932 N936 1.361 . S
C933 C931 1.431 . S
C933 C934 1.330 . S
C933 H948 0.923 1_655 S
C934 C928 1.448 . S
C934 C933 1.330 . S
C934 H949 0.930 1_655 S
Tb935 N926 2.617 . S
Tb935 N936 2.572 . S
Tb935 O970 2.349 . S
Tb935 O973 2.393 . S
Tb935 O974 2.465 . S
Tb935 O975 2.387 . S
Tb935 O977 2.428 . S
Tb935 O978 2.308 . S
Tb935 C999 2.802 . S
N936 C932 1.361 . S
N936 Tb935 2.572 . S
N936 C938 1.340 . S
C937 C931 1.416 . S
C937 C939 1.332 . S
C937 H945 0.931 1_655 S
C938 N936 1.340 . S
C938 C939 1.407 . S
C938 H944 0.930 . S
C939 C937 1.332 . S
C939 C938 1.407 . S
C939 H941 0.929 . S
H940 C929 0.930 . S
H941 C939 0.929 . S
H942 C957 0.930 . S
H943 C964 0.930 . S
H944 C938 0.930 . S
H945 C937 0.931 1_455 S
H946 C960 0.930 . S
H947 C927 0.930 1_554 S
H948 C933 0.923 1_455 S
H949 C934 0.930 1_455 S
H950 C955 0.930 . S
H951 C930 0.930 . S
H952 C963 0.931 . S
N953 Tb924 2.617 . S
N953 C954 1.379 . S
N953 C957 1.334 . S
C954 N953 1.379 . S
C954 C956 1.416 . S
C954 C962 1.424 . S
C955 H950 0.930 . S
C955 C957 1.390 . S
C955 C958 1.339 . S
C956 C954 1.416 . S
C956 C958 1.416 . S
C956 C989 1.448 . S
C957 H942 0.930 . S
C957 N953 1.334 . S
C957 C955 1.390 . S
C958 C955 1.339 . S
C958 C956 1.416 . S
C958 H965 0.930 . S
N959 Tb924 2.572 . S
N959 C960 1.340 . S
N959 C962 1.361 . S
C960 H946 0.930 . S
C960 N959 1.340 . S
C960 C964 1.407 1_545 S
C961 C962 1.417 . S
C961 C963 1.411 1_545 S
C961 C990 1.429 1_545 S
C962 C954 1.424 . S
C962 N959 1.361 . S
C962 C961 1.417 . S
C963 H952 0.931 . S
C963 C961 1.411 1_565 S
C963 C964 1.332 . S
C964 H943 0.930 . S
C964 C960 1.407 1_565 S
C964 C963 1.332 . S
H965 C958 0.930 . S
H966 C989 0.930 1_565 S
H967 C990 0.929 . S
O968 Tb924 2.465 . S
O968 C988 1.264 . S
O969 Tb924 2.387 . S
O969 C980 1.264 . S
O970 Tb935 2.349 . S
O970 C980 1.243 . S
O971 Tb924 2.428 . S
O971 C988 1.256 . S
O972 Tb924 2.308 . S
O972 C987 1.266 . S
O973 Tb935 2.393 . S
O973 C987 1.248 . S
O974 Tb935 2.465 . S
O974 C999 1.264 . S
O975 Tb935 2.387 . S
O975 C991 1.264 . S
O976 Tb924 2.349 . S
O976 C991 1.243 . S
O977 Tb935 2.428 . S
O977 C999 1.256 . S
O978 Tb935 2.308 . S
O978 C998 1.266 . S
O979 Tb924 2.393 . S
O979 C998 1.248 . S
C980 O969 1.264 . S
C980 O970 1.243 . S
C981 C984 1.399 . S
C981 C986 1.383 . S
C981 C988 1.496 1_565 S
C982 C983 1.399 . S
C982 C986 1.389 . S
C983 C982 1.399 . S
C983 C985 1.380 . S
C983 H1000 0.929 . S
C984 C981 1.399 . S
C984 C985 1.392 . S
C984 H1001 0.929 . S
C985 C983 1.380 . S
C985 C984 1.392 . S
C985 H1002 0.929 . S
C986 C981 1.383 . S
C986 C982 1.389 . S
C986 H1003 0.931 . S
C987 O972 1.266 . S
C987 O973 1.248 . S
C988 Tb924 2.802 . S
C988 O968 1.264 . S
C988 O971 1.256 . S
C988 C981 1.496 1_545 S
C989 C956 1.448 . S
C989 H966 0.930 1_545 S
C989 C990 1.328 1_545 S
C990 C961 1.429 1_565 S
C990 H967 0.929 . S
C990 C989 1.328 1_565 S
C991 O975 1.264 . S
C991 O976 1.243 . S
C992 C995 1.399 . S
C992 C996 1.383 . S
C992 C999 1.496 . S
C993 C994 1.399 . S
C993 C996 1.389 . S
C994 C993 1.399 . S
C994 C997 1.380 . S
C994 H1004 0.929 . S
C995 C992 1.399 . S
C995 C997 1.392 . S
C995 H1005 0.929 . S
C996 C992 1.383 . S
C996 C993 1.389 . S
C996 H1006 0.931 . S
C997 C994 1.380 . S
C997 C995 1.392 . S
C997 H1007 0.929 . S
C998 O978 1.266 . S
C998 O979 1.248 . S
C999 Tb935 2.802 . S
C999 O974 1.264 . S
C999 O977 1.256 . S
C999 C992 1.496 . S
H1000 C983 0.929 . S
H1001 C984 0.929 . S
H1002 C985 0.929 . S
H1003 C986 0.931 . S
H1004 C994 0.929 . S
H1005 C995 0.929 . S
H1006 C996 0.931 . S
H1007 C997 0.929 . S
C1008 C1009 1.391 . S
C1008 C1010 1.394 . S
C1008 H1024 0.931 . S
C1009 C1008 1.391 . S
C1009 C1013 1.376 . S
C1010 C1008 1.394 . S
C1010 C1011 1.369 . S
C1010 C1014 1.531 1_565 S
C1011 C1010 1.369 . S
C1011 C1012 1.410 . S
C1011 C1019 1.503 1_565 S
C1012 C1011 1.410 . S
C1012 C1013 1.392 . S
C1012 C1015 1.511 . S
C1013 C1009 1.376 . S
C1013 C1012 1.392 . S
C1013 H1025 0.929 . S
C1014 C1010 1.531 1_545 S
C1014 H1026 0.960 . S
C1014 H1027 0.962 . S
C1014 H1028 0.960 1_545 S
C1015 C1012 1.511 . S
C1015 H1029 0.961 . S
C1015 H1030 0.961 . S
C1015 H1031 0.961 . S
C1016 C1017 1.370 . S
C1016 C1018 1.363 . S
C1016 H1032 0.931 . S
C1017 C1016 1.370 . S
C1017 C1021 1.408 . S
C1018 C1016 1.363 . S
C1018 C1019 1.370 . S
C1018 C1022 1.524 . S
C1019 C1011 1.503 1_545 S
C1019 C1018 1.370 . S
C1019 C1020 1.403 . S
C1020 C1019 1.403 . S
C1020 C1021 1.404 . S
C1020 C1023 1.539 . S
C1021 C1017 1.408 . S
C1021 C1020 1.404 . S
C1021 H1033 0.930 . S
C1022 C1018 1.524 . S
C1022 H1034 0.956 . S
C1022 H1035 0.961 . S
C1022 H1036 0.961 . S
C1023 C1020 1.539 . S
C1023 H1037 0.958 . S
C1023 H1038 0.961 . S
C1023 H1039 0.960 1_545 S
H1024 C1008 0.931 . S
H1025 C1013 0.929 . S
H1026 C1014 0.960 . S
H1027 C1014 0.962 . S
H1028 C1014 0.960 1_565 S
H1029 C1015 0.961 . S
H1030 C1015 0.961 . S
H1031 C1015 0.961 . S
H1032 C1016 0.931 . S
H1033 C1021 0.930 . S
H1034 C1022 0.956 . S
H1035 C1022 0.961 . S
H1036 C1022 0.961 . S
H1037 C1023 0.958 . S
H1038 C1023 0.961 . S
H1039 C1023 0.960 1_565 S
C1040 C1041 1.391 . S
C1040 C1042 1.394 . S
C1040 H1056 0.931 . S
C1041 C1040 1.391 . S
C1041 C1045 1.376 . S
C1042 C1040 1.394 . S
C1042 C1043 1.369 . S
C1042 C1046 1.531 . S
C1043 C1042 1.369 . S
C1043 C1044 1.410 . S
C1043 C1051 1.503 . S
C1044 C1043 1.410 . S
C1044 C1045 1.392 . S
C1044 C1047 1.511 . S
C1045 C1041 1.376 . S
C1045 C1044 1.392 . S
C1045 H1057 0.929 . S
C1046 C1042 1.531 . S
C1046 H1058 0.960 . S
C1046 H1059 0.962 . S
C1046 H1060 0.960 . S
C1047 C1044 1.511 . S
C1047 H1061 0.961 . S
C1047 H1062 0.961 . S
C1047 H1063 0.961 . S
C1048 C1049 1.370 . S
C1048 C1050 1.363 . S
C1048 H1064 0.931 . S
C1049 C1048 1.370 . S
C1049 C1053 1.408 . S
C1050 C1048 1.363 . S
C1050 C1051 1.370 . S
C1050 C1054 1.524 . S
C1051 C1043 1.503 . S
C1051 C1050 1.370 . S
C1051 C1052 1.403 . S
C1052 C1051 1.403 . S
C1052 C1053 1.404 . S
C1052 C1055 1.539 . S
C1053 C1049 1.408 . S
C1053 C1052 1.404 . S
C1053 H1065 0.930 . S
C1054 C1050 1.524 . S
C1054 H1066 0.956 . S
C1054 H1067 0.961 . S
C1054 H1068 0.961 . S
C1055 C1052 1.539 . S
C1055 H1069 0.958 . S
C1055 H1070 0.961 . S
C1055 H1071 0.960 . S
H1056 C1040 0.931 . S
H1057 C1045 0.929 . S
H1058 C1046 0.960 . S
H1059 C1046 0.962 . S
H1060 C1046 0.960 . S
H1061 C1047 0.961 . S
H1062 C1047 0.961 . S
H1063 C1047 0.961 . S
H1064 C1048 0.931 . S
H1065 C1053 0.930 . S
H1066 C1054 0.956 . S
H1067 C1054 0.961 . S
H1068 C1054 0.961 . S
H1069 C1055 0.958 . S
H1070 C1055 0.961 . S
H1071 C1055 0.960 . S
C1072 C1073 1.391 . S
C1072 C1074 1.394 . S
C1072 H1088 0.931 . S
C1073 C1072 1.391 . S
C1073 C1077 1.376 . S
C1074 C1072 1.394 . S
C1074 C1075 1.369 . S
C1074 C1078 1.531 . S
C1075 C1074 1.369 . S
C1075 C1076 1.410 . S
C1075 C1083 1.503 1_655 S
C1076 C1075 1.410 . S
C1076 C1077 1.392 . S
C1076 C1079 1.511 . S
C1077 C1073 1.376 . S
C1077 C1076 1.392 . S
C1077 H1089 0.929 . S
C1078 C1074 1.531 . S
C1078 H1090 0.960 . S
C1078 H1091 0.962 . S
C1078 H1092 0.960 . S
C1079 C1076 1.511 . S
C1079 H1093 0.961 . S
C1079 H1094 0.961 1_655 S
C1079 H1095 0.962 1_655 S
C1080 C1081 1.370 . S
C1080 C1082 1.363 . S
C1080 H1096 0.931 . S
C1081 C1080 1.370 . S
C1081 C1085 1.408 . S
C1082 C1080 1.363 . S
C1082 C1083 1.370 . S
C1082 C1086 1.524 1_455 S
C1083 C1075 1.503 1_455 S
C1083 C1082 1.370 . S
C1083 C1084 1.403 . S
C1084 C1083 1.403 . S
C1084 C1085 1.404 . S
C1084 C1087 1.539 . S
C1085 C1081 1.408 . S
C1085 C1084 1.404 . S
C1085 H1097 0.930 . S
C1086 C1082 1.524 1_655 S
C1086 H1098 0.956 . S
C1086 H1099 0.961 . S
C1086 H1100 0.961 1_655 S
C1087 C1084 1.539 . S
C1087 H1101 0.958 . S
C1087 H1102 0.961 . S
C1087 H1103 0.960 . S
H1088 C1072 0.931 . S
H1089 C1077 0.929 . S
H1090 C1078 0.960 . S
H1091 C1078 0.962 . S
H1092 C1078 0.960 . S
H1093 C1079 0.961 . S
H1094 C1079 0.961 1_455 S
H1095 C1079 0.962 1_455 S
H1096 C1080 0.931 . S
H1097 C1085 0.930 . S
H1098 C1086 0.956 . S
H1099 C1086 0.961 . S
H1100 C1086 0.961 1_455 S
H1101 C1087 0.958 . S
H1102 C1087 0.961 . S
H1103 C1087 0.960 . S
C1104 C1105 1.391 . S
C1104 C1106 1.394 . S
C1104 H1120 0.931 . S
C1105 C1104 1.391 . S
C1105 C1109 1.376 . S
C1106 C1104 1.394 . S
C1106 C1107 1.369 . S
C1106 C1110 1.531 . S
C1107 C1106 1.369 . S
C1107 C1108 1.410 . S
C1107 C1115 1.503 1_565 S
C1108 C1107 1.410 . S
C1108 C1109 1.392 . S
C1108 C1111 1.511 . S
C1109 C1105 1.376 . S
C1109 C1108 1.392 . S
C1109 H1121 0.929 . S
C1110 C1106 1.531 . S
C1110 H1122 0.960 1_565 S
C1110 H1123 0.962 1_565 S
C1110 H1124 0.960 . S
C1111 C1108 1.511 . S
C1111 H1125 0.961 . S
C1111 H1126 0.961 . S
C1111 H1127 0.961 . S
C1112 C1113 1.370 . S
C1112 C1114 1.363 . S
C1112 H1128 0.931 . S
C1113 C1112 1.370 . S
C1113 C1117 1.408 . S
C1114 C1112 1.363 . S
C1114 C1115 1.370 . S
C1114 C1118 1.524 . S
C1115 C1107 1.503 1_545 S
C1115 C1114 1.370 . S
C1115 C1116 1.403 . S
C1116 C1115 1.403 . S
C1116 C1117 1.404 . S
C1116 C1119 1.539 . S
C1117 C1113 1.408 . S
C1117 C1116 1.404 . S
C1117 H1129 0.930 . S
C1118 C1114 1.524 . S
C1118 H1130 0.956 1_545 S
C1118 H1131 0.961 1_545 S
C1118 H1132 0.961 . S
C1119 C1116 1.539 . S
C1119 H1133 0.958 . S
C1119 H1134 0.961 . S
C1119 H1135 0.960 1_545 S
H1120 C1104 0.931 . S
H1121 C1109 0.929 . S
H1122 C1110 0.960 1_545 S
H1123 C1110 0.962 1_545 S
H1124 C1110 0.960 . S
H1125 C1111 0.961 . S
H1126 C1111 0.961 . S
H1127 C1111 0.961 . S
H1128 C1112 0.931 . S
H1129 C1117 0.930 . S
H1130 C1118 0.956 1_565 S
H1131 C1118 0.961 1_565 S
H1132 C1118 0.961 . S
H1133 C1119 0.958 . S
H1134 C1119 0.961 . S
H1135 C1119 0.960 1_565 S
C1136 C1137 1.391 . S
C1136 C1138 1.394 . S
C1136 H1152 0.931 . S
C1137 C1136 1.391 . S
C1137 C1141 1.376 . S
C1138 C1136 1.394 . S
C1138 C1139 1.369 . S
C1138 C1142 1.531 . S
C1139 C1138 1.369 . S
C1139 C1140 1.410 . S
C1139 C1147 1.503 . S
C1140 C1139 1.410 . S
C1140 C1141 1.392 . S
C1140 C1143 1.511 . S
C1141 C1137 1.376 . S
C1141 C1140 1.392 . S
C1141 H1153 0.929 . S
C1142 C1138 1.531 . S
C1142 H1154 0.960 . S
C1142 H1155 0.962 . S
C1142 H1156 0.960 . S
C1143 C1140 1.511 . S
C1143 H1157 0.961 . S
C1143 H1158 0.961 . S
C1143 H1159 0.961 . S
C1144 C1145 1.370 . S
C1144 C1146 1.363 . S
C1144 H1160 0.931 . S
C1145 C1144 1.370 . S
C1145 C1149 1.408 . S
C1146 C1144 1.363 . S
C1146 C1147 1.370 . S
C1146 C1150 1.524 . S
C1147 C1139 1.503 . S
C1147 C1146 1.370 . S
C1147 C1148 1.403 . S
C1148 C1147 1.403 . S
C1148 C1149 1.404 . S
C1148 C1151 1.539 . S
C1149 C1145 1.408 . S
C1149 C1148 1.404 . S
C1149 H1161 0.930 . S
C1150 C1146 1.524 . S
C1150 H1162 0.956 . S
C1150 H1163 0.961 . S
C1150 H1164 0.961 . S
C1151 C1148 1.539 . S
C1151 H1165 0.958 . S
C1151 H1166 0.961 . S
C1151 H1167 0.960 . S
H1152 C1136 0.931 . S
H1153 C1141 0.929 . S
H1154 C1142 0.960 . S
H1155 C1142 0.962 . S
H1156 C1142 0.960 . S
H1157 C1143 0.961 . S
H1158 C1143 0.961 . S
H1159 C1143 0.961 . S
H1160 C1144 0.931 . S
H1161 C1149 0.930 . S
H1162 C1150 0.956 . S
H1163 C1150 0.961 . S
H1164 C1150 0.961 . S
H1165 C1151 0.958 . S
H1166 C1151 0.961 . S
H1167 C1151 0.960 . S
C1168 C1169 1.391 . S
C1168 C1170 1.394 . S
C1168 H1184 0.931 . S
C1169 C1168 1.391 . S
C1169 C1173 1.376 . S
C1170 C1168 1.394 . S
C1170 C1171 1.369 . S
C1170 C1174 1.531 1_655 S
C1171 C1170 1.369 . S
C1171 C1172 1.410 . S
C1171 C1179 1.503 1_655 S
C1172 C1171 1.410 . S
C1172 C1173 1.392 . S
C1172 C1175 1.511 . S
C1173 C1169 1.376 . S
C1173 C1172 1.392 . S
C1173 H1185 0.929 . S
C1174 C1170 1.531 1_455 S
C1174 H1186 0.960 . S
C1174 H1187 0.962 . S
C1174 H1188 0.960 1_455 S
C1175 C1172 1.511 . S
C1175 H1189 0.961 . S
C1175 H1190 0.961 . S
C1175 H1191 0.961 . S
C1176 C1177 1.370 . S
C1176 C1178 1.363 . S
C1176 H1192 0.931 . S
C1177 C1176 1.370 . S
C1177 C1181 1.408 . S
C1178 C1176 1.363 . S
C1178 C1179 1.370 . S
C1178 C1182 1.524 . S
C1179 C1171 1.503 1_455 S
C1179 C1178 1.370 . S
C1179 C1180 1.403 . S
C1180 C1179 1.403 . S
C1180 C1181 1.404 . S
C1180 C1183 1.539 . S
C1181 C1177 1.408 . S
C1181 C1180 1.404 . S
C1181 H1193 0.930 . S
C1182 C1178 1.524 . S
C1182 H1194 0.956 . S
C1182 H1195 0.961 . S
C1182 H1196 0.961 . S
C1183 C1180 1.539 . S
C1183 H1197 0.958 . S
C1183 H1198 0.961 . S
C1183 H1199 0.960 1_455 S
H1184 C1168 0.931 . S
H1185 C1173 0.929 . S
H1186 C1174 0.960 . S
H1187 C1174 0.962 . S
H1188 C1174 0.960 1_655 S
H1189 C1175 0.961 . S
H1190 C1175 0.961 . S
H1191 C1175 0.961 . S
H1192 C1176 0.931 . S
H1193 C1181 0.930 . S
H1194 C1182 0.956 . S
H1195 C1182 0.961 . S
H1196 C1182 0.961 . S
H1197 C1183 0.958 . S
H1198 C1183 0.961 . S
H1199 C1183 0.960 1_655 S
C1200 C1201 1.391 . S
C1200 C1202 1.394 . S
C1200 H1216 0.931 . S
C1201 C1200 1.391 . S
C1201 C1205 1.376 . S
C1202 C1200 1.394 . S
C1202 C1203 1.369 . S
C1202 C1206 1.531 . S
C1203 C1202 1.369 . S
C1203 C1204 1.410 . S
C1203 C1211 1.503 1_455 S
C1204 C1203 1.410 . S
C1204 C1205 1.392 . S
C1204 C1207 1.511 1_455 S
C1205 C1201 1.376 . S
C1205 C1204 1.392 . S
C1205 H1217 0.929 . S
C1206 C1202 1.531 . S
C1206 H1218 0.960 1_455 S
C1206 H1219 0.962 . S
C1206 H1220 0.960 . S
C1207 C1204 1.511 1_655 S
C1207 H1221 0.961 1_655 S
C1207 H1222 0.961 . S
C1207 H1223 0.961 . S
C1208 C1209 1.370 . S
C1208 C1210 1.363 . S
C1208 H1224 0.931 . S
C1209 C1208 1.370 . S
C1209 C1213 1.408 . S
C1210 C1208 1.363 . S
C1210 C1211 1.370 . S
C1210 C1214 1.524 . S
C1211 C1203 1.503 1_655 S
C1211 C1210 1.370 . S
C1211 C1212 1.403 . S
C1212 C1211 1.403 . S
C1212 C1213 1.404 . S
C1212 C1215 1.539 . S
C1213 C1209 1.408 . S
C1213 C1212 1.404 . S
C1213 H1225 0.930 . S
C1214 C1210 1.524 . S
C1214 H1226 0.956 1_655 S
C1214 H1227 0.961 1_655 S
C1214 H1228 0.961 . S
C1215 C1212 1.539 . S
C1215 H1229 0.958 . S
C1215 H1230 0.961 . S
C1215 H1231 0.960 . S
H1216 C1200 0.931 . S
H1217 C1205 0.929 . S
H1218 C1206 0.960 1_655 S
H1219 C1206 0.962 . S
H1220 C1206 0.960 . S
H1221 C1207 0.961 1_455 S
H1222 C1207 0.961 . S
H1223 C1207 0.961 . S
H1224 C1208 0.931 . S
H1225 C1213 0.930 . S
H1226 C1214 0.956 1_455 S
H1227 C1214 0.961 1_455 S
H1228 C1214 0.961 . S
H1229 C1215 0.958 . S
H1230 C1215 0.961 . S
H1231 C1215 0.960 . S
C1232 C1233 1.391 . S
C1232 C1234 1.394 . S
C1232 H1248 0.931 . S
C1233 C1232 1.391 . S
C1233 C1237 1.376 . S
C1234 C1232 1.394 . S
C1234 C1235 1.369 . S
C1234 C1238 1.531 . S
C1235 C1234 1.369 . S
C1235 C1236 1.410 . S
C1235 C1243 1.503 1_565 S
C1236 C1235 1.410 . S
C1236 C1237 1.392 . S
C1236 C1239 1.511 . S
C1237 C1233 1.376 . S
C1237 C1236 1.392 . S
C1237 H1249 0.929 . S
C1238 C1234 1.531 . S
C1238 H1250 0.960 . S
C1238 H1251 0.962 . S
C1238 H1252 0.960 . S
C1239 C1236 1.511 . S
C1239 H1253 0.961 . S
C1239 H1254 0.961 1_565 S
C1239 H1255 0.961 . S
C1240 C1241 1.370 . S
C1240 C1242 1.363 . S
C1240 H1256 0.931 . S
C1241 C1240 1.370 . S
C1241 C1245 1.408 . S
C1242 C1240 1.363 . S
C1242 C1243 1.370 . S
C1242 C1246 1.524 . S
C1243 C1235 1.503 1_545 S
C1243 C1242 1.370 . S
C1243 C1244 1.403 . S
C1244 C1243 1.403 . S
C1244 C1245 1.404 . S
C1244 C1247 1.539 1_545 S
C1245 C1241 1.408 . S
C1245 C1244 1.404 . S
C1245 H1257 0.930 . S
C1246 C1242 1.524 . S
C1246 H1258 0.956 . S
C1246 H1259 0.961 . S
C1246 H1260 0.961 . S
C1247 C1244 1.539 1_565 S
C1247 H1261 0.958 . S
C1247 H1262 0.961 1_565 S
C1247 H1263 0.960 . S
H1248 C1232 0.931 . S
H1249 C1237 0.929 . S
H1250 C1238 0.960 . S
H1251 C1238 0.962 . S
H1252 C1238 0.960 . S
H1253 C1239 0.961 . S
H1254 C1239 0.961 1_545 S
H1255 C1239 0.961 . S
H1256 C1240 0.931 . S
H1257 C1245 0.930 . S
H1258 C1246 0.956 . S
H1259 C1246 0.961 . S
H1260 C1246 0.961 . S
H1261 C1247 0.958 . S
H1262 C1247 0.961 1_545 S
H1263 C1247 0.960 . S
C1264 C1265 1.391 . S
C1264 C1266 1.394 . S
C1264 H1280 0.931 . S
C1265 C1264 1.391 . S
C1265 C1269 1.376 . S
C1266 C1264 1.394 . S
C1266 C1267 1.369 . S
C1266 C1270 1.531 . S
C1267 C1266 1.369 . S
C1267 C1268 1.410 . S
C1267 C1275 1.503 . S
C1268 C1267 1.410 . S
C1268 C1269 1.392 . S
C1268 C1271 1.511 . S
C1269 C1265 1.376 . S
C1269 C1268 1.392 . S
C1269 H1281 0.929 . S
C1270 C1266 1.531 . S
C1270 H1282 0.960 . S
C1270 H1283 0.962 . S
C1270 H1284 0.960 . S
C1271 C1268 1.511 . S
C1271 H1285 0.961 . S
C1271 H1286 0.961 . S
C1271 H1287 0.961 . S
C1272 C1273 1.370 . S
C1272 C1274 1.363 . S
C1272 H1288 0.931 . S
C1273 C1272 1.370 . S
C1273 C1277 1.408 . S
C1274 C1272 1.363 . S
C1274 C1275 1.370 . S
C1274 C1278 1.524 . S
C1275 C1267 1.503 . S
C1275 C1274 1.370 . S
C1275 C1276 1.403 . S
C1276 C1275 1.403 . S
C1276 C1277 1.404 . S
C1276 C1279 1.539 . S
C1277 C1273 1.408 . S
C1277 C1276 1.404 . S
C1277 H1289 0.930 . S
C1278 C1274 1.524 . S
C1278 H1290 0.956 . S
C1278 H1291 0.961 . S
C1278 H1292 0.961 . S
C1279 C1276 1.539 . S
C1279 H1293 0.958 . S
C1279 H1294 0.961 . S
C1279 H1295 0.960 . S
H1280 C1264 0.931 . S
H1281 C1269 0.929 . S
H1282 C1270 0.960 . S
H1283 C1270 0.962 . S
H1284 C1270 0.960 . S
H1285 C1271 0.961 . S
H1286 C1271 0.961 . S
H1287 C1271 0.961 . S
H1288 C1272 0.931 . S
H1289 C1277 0.930 . S
H1290 C1278 0.956 . S
H1291 C1278 0.961 . S
H1292 C1278 0.961 . S
H1293 C1279 0.958 . S
H1294 C1279 0.961 . S
H1295 C1279 0.960 . S
C1296 C1297 1.391 . S
C1296 C1298 1.394 . S
C1296 H1312 0.931 . S
C1297 C1296 1.391 . S
C1297 C1301 1.376 . S
C1298 C1296 1.394 . S
C1298 C1299 1.369 . S
C1298 C1302 1.531 . S
C1299 C1298 1.369 . S
C1299 C1300 1.410 . S
C1299 C1307 1.503 1_455 S
C1300 C1299 1.410 . S
C1300 C1301 1.392 . S
C1300 C1303 1.511 . S
C1301 C1297 1.376 . S
C1301 C1300 1.392 . S
C1301 H1313 0.929 . S
C1302 C1298 1.531 . S
C1302 H1314 0.960 . S
C1302 H1315 0.962 . S
C1302 H1316 0.960 . S
C1303 C1300 1.511 . S
C1303 H1317 0.961 . S
C1303 H1318 0.961 1_455 S
C1303 H1319 0.961 . S
C1304 C1305 1.370 . S
C1304 C1306 1.363 . S
C1304 H1320 0.931 . S
C1305 C1304 1.370 . S
C1305 C1309 1.408 . S
C1306 C1304 1.363 . S
C1306 C1307 1.370 . S
C1306 C1310 1.524 . S
C1307 C1299 1.503 1_655 S
C1307 C1306 1.370 . S
C1307 C1308 1.403 . S
C1308 C1307 1.403 . S
C1308 C1309 1.404 . S
C1308 C1311 1.539 . S
C1309 C1305 1.408 . S
C1309 C1308 1.404 . S
C1309 H1321 0.930 . S
C1310 C1306 1.524 . S
C1310 H1322 0.956 1_655 S
C1310 H1323 0.961 1_655 S
C1310 H1324 0.961 . S
C1311 C1308 1.539 . S
C1311 H1325 0.958 . S
C1311 H1326 0.961 . S
C1311 H1327 0.960 1_655 S
H1312 C1296 0.931 . S
H1313 C1301 0.929 . S
H1314 C1302 0.960 . S
H1315 C1302 0.962 . S
H1316 C1302 0.960 . S
H1317 C1303 0.961 . S
H1318 C1303 0.961 1_655 S
H1319 C1303 0.961 . S
H1320 C1304 0.931 . S
H1321 C1309 0.930 . S
H1322 C1310 0.956 1_455 S
H1323 C1310 0.961 1_455 S
H1324 C1310 0.961 . S
H1325 C1311 0.958 . S
H1326 C1311 0.961 . S
H1327 C1311 0.960 1_455 S
C1328 C1329 1.391 . S
C1328 C1330 1.394 . S
C1328 H1344 0.931 . S
C1329 C1328 1.391 . S
C1329 C1333 1.376 . S
C1330 C1328 1.394 . S
C1330 C1331 1.369 . S
C1330 C1334 1.531 . S
C1331 C1330 1.369 . S
C1331 C1332 1.410 . S
C1331 C1339 1.503 1_545 S
C1332 C1331 1.410 . S
C1332 C1333 1.392 . S
C1332 C1335 1.511 . S
C1333 C1329 1.376 . S
C1333 C1332 1.392 . S
C1333 H1345 0.929 . S
C1334 C1330 1.531 . S
C1334 H1346 0.960 1_545 S
C1334 H1347 0.962 . S
C1334 H1348 0.960 . S
C1335 C1332 1.511 . S
C1335 H1349 0.961 . S
C1335 H1350 0.961 . S
C1335 H1351 0.961 . S
C1336 C1337 1.370 . S
C1336 C1338 1.363 . S
C1336 H1352 0.931 . S
C1337 C1336 1.370 . S
C1337 C1341 1.408 . S
C1338 C1336 1.363 . S
C1338 C1339 1.370 . S
C1338 C1342 1.524 . S
C1339 C1331 1.503 1_565 S
C1339 C1338 1.370 . S
C1339 C1340 1.403 . S
C1340 C1339 1.403 . S
C1340 C1341 1.404 . S
C1340 C1343 1.539 1_565 S
C1341 C1337 1.408 . S
C1341 C1340 1.404 . S
C1341 H1353 0.930 . S
C1342 C1338 1.524 . S
C1342 H1354 0.956 . S
C1342 H1355 0.961 1_565 S
C1342 H1356 0.961 . S
C1343 C1340 1.539 1_545 S
C1343 H1357 0.958 . S
C1343 H1358 0.961 1_545 S
C1343 H1359 0.960 . S
H1344 C1328 0.931 . S
H1345 C1333 0.929 . S
H1346 C1334 0.960 1_565 S
H1347 C1334 0.962 . S
H1348 C1334 0.960 . S
H1349 C1335 0.961 . S
H1350 C1335 0.961 . S
H1351 C1335 0.961 . S
H1352 C1336 0.931 . S
H1353 C1341 0.930 . S
H1354 C1342 0.956 . S
H1355 C1342 0.961 1_545 S
H1356 C1342 0.961 . S
H1357 C1343 0.958 . S
H1358 C1343 0.961 1_565 S
H1359 C1343 0.960 . S
C1360 C1361 1.391 . S
C1360 C1362 1.394 . S
C1360 H1376 0.931 . S
C1361 C1360 1.391 . S
C1361 C1365 1.376 . S
C1362 C1360 1.394 . S
C1362 C1363 1.369 . S
C1362 C1366 1.531 . S
C1363 C1362 1.369 . S
C1363 C1364 1.410 . S
C1363 C1371 1.503 . S
C1364 C1363 1.410 . S
C1364 C1365 1.392 . S
C1364 C1367 1.511 . S
C1365 C1361 1.376 . S
C1365 C1364 1.392 . S
C1365 H1377 0.929 . S
C1366 C1362 1.531 . S
C1366 H1378 0.960 . S
C1366 H1379 0.962 . S
C1366 H1380 0.960 . S
C1367 C1364 1.511 . S
C1367 H1381 0.961 . S
C1367 H1382 0.961 . S
C1367 H1383 0.961 . S
C1368 C1369 1.370 . S
C1368 C1370 1.363 . S
C1368 H1384 0.931 . S
C1369 C1368 1.370 . S
C1369 C1373 1.408 . S
C1370 C1368 1.363 . S
C1370 C1371 1.370 . S
C1370 C1374 1.524 . S
C1371 C1363 1.503 . S
C1371 C1370 1.370 . S
C1371 C1372 1.403 . S
C1372 C1371 1.403 . S
C1372 C1373 1.404 . S
C1372 C1375 1.539 . S
C1373 C1369 1.408 . S
C1373 C1372 1.404 . S
C1373 H1385 0.930 . S
C1374 C1370 1.524 . S
C1374 H1386 0.956 . S
C1374 H1387 0.961 . S
C1374 H1388 0.961 . S
C1375 C1372 1.539 . S
C1375 H1389 0.958 . S
C1375 H1390 0.961 . S
C1375 H1391 0.960 . S
H1376 C1360 0.931 . S
H1377 C1365 0.929 . S
H1378 C1366 0.960 . S
H1379 C1366 0.962 . S
H1380 C1366 0.960 . S
H1381 C1367 0.961 . S
H1382 C1367 0.961 . S
H1383 C1367 0.961 . S
H1384 C1368 0.931 . S
H1385 C1373 0.930 . S
H1386 C1374 0.956 . S
H1387 C1374 0.961 . S
H1388 C1374 0.961 . S
H1389 C1375 0.958 . S
H1390 C1375 0.961 . S
H1391 C1375 0.960 . S
C1392 C1393 1.391 . S
C1392 C1394 1.394 . S
C1392 H1408 0.931 . S
C1393 C1392 1.391 . S
C1393 C1397 1.376 . S
C1394 C1392 1.394 . S
C1394 C1395 1.369 . S
C1394 C1398 1.531 . S
C1395 C1394 1.369 . S
C1395 C1396 1.410 . S
C1395 C1403 1.503 . S
C1396 C1395 1.410 . S
C1396 C1397 1.392 . S
C1396 C1399 1.511 . S
C1397 C1393 1.376 . S
C1397 C1396 1.392 . S
C1397 H1409 0.929 . S
C1398 C1394 1.531 . S
C1398 H1410 0.960 . S
C1398 H1411 0.962 . S
C1398 H1412 0.960 . S
C1399 C1396 1.511 . S
C1399 H1413 0.961 . S
C1399 H1414 0.961 . S
C1399 H1415 0.961 . S
C1400 C1401 1.370 . S
C1400 C1402 1.363 . S
C1400 H1416 0.931 . S
C1401 C1400 1.370 . S
C1401 C1405 1.408 . S
C1402 C1400 1.363 . S
C1402 C1403 1.370 . S
C1402 C1406 1.524 . S
C1403 C1395 1.503 . S
C1403 C1402 1.370 . S
C1403 C1404 1.403 . S
C1404 C1403 1.403 . S
C1404 C1405 1.404 . S
C1404 C1407 1.539 . S
C1405 C1401 1.408 . S
C1405 C1404 1.404 . S
C1405 H1417 0.930 . S
C1406 C1402 1.524 . S
C1406 H1418 0.956 . S
C1406 H1419 0.961 . S
C1406 H1420 0.961 . S
C1407 C1404 1.539 . S
C1407 H1421 0.958 . S
C1407 H1422 0.961 . S
C1407 H1423 0.960 . S
H1408 C1392 0.931 . S
H1409 C1397 0.929 . S
H1410 C1398 0.960 . S
H1411 C1398 0.962 . S
H1412 C1398 0.960 . S
H1413 C1399 0.961 . S
H1414 C1399 0.961 . S
H1415 C1399 0.961 . S
H1416 C1400 0.931 . S
H1417 C1405 0.930 . S
H1418 C1406 0.956 . S
H1419 C1406 0.961 . S
H1420 C1406 0.961 . S
H1421 C1407 0.958 . S
H1422 C1407 0.961 . S
H1423 C1407 0.960 . S
C1424 C1425 1.391 . S
C1424 C1426 1.394 . S
C1424 H1440 0.931 . S
C1425 C1424 1.391 . S
C1425 C1429 1.376 . S
C1426 C1424 1.394 . S
C1426 C1427 1.369 . S
C1426 C1430 1.531 . S
C1427 C1426 1.369 . S
C1427 C1428 1.410 . S
C1427 C1435 1.503 . S
C1428 C1427 1.410 . S
C1428 C1429 1.392 . S
C1428 C1431 1.511 . S
C1429 C1425 1.376 . S
C1429 C1428 1.392 . S
C1429 H1441 0.929 . S
C1430 C1426 1.531 . S
C1430 H1442 0.960 . S
C1430 H1443 0.962 . S
C1430 H1444 0.960 . S
C1431 C1428 1.511 . S
C1431 H1445 0.961 . S
C1431 H1446 0.961 . S
C1431 H1447 0.961 . S
C1432 C1433 1.370 . S
C1432 C1434 1.363 . S
C1432 H1448 0.931 . S
C1433 C1432 1.370 . S
C1433 C1437 1.408 . S
C1434 C1432 1.363 . S
C1434 C1435 1.370 . S
C1434 C1438 1.524 . S
C1435 C1427 1.503 . S
C1435 C1434 1.370 . S
C1435 C1436 1.403 . S
C1436 C1435 1.403 . S
C1436 C1437 1.404 . S
C1436 C1439 1.539 . S
C1437 C1433 1.408 . S
C1437 C1436 1.404 . S
C1437 H1449 0.930 . S
C1438 C1434 1.524 . S
C1438 H1450 0.956 . S
C1438 H1451 0.961 . S
C1438 H1452 0.961 . S
C1439 C1436 1.539 . S
C1439 H1453 0.958 . S
C1439 H1454 0.961 . S
C1439 H1455 0.960 . S
H1440 C1424 0.931 . S
H1441 C1429 0.929 . S
H1442 C1430 0.960 . S
H1443 C1430 0.962 . S
H1444 C1430 0.960 . S
H1445 C1431 0.961 . S
H1446 C1431 0.961 . S
H1447 C1431 0.961 . S
H1448 C1432 0.931 . S
H1449 C1437 0.930 . S
H1450 C1438 0.956 . S
H1451 C1438 0.961 . S
H1452 C1438 0.961 . S
H1453 C1439 0.958 . S
H1454 C1439 0.961 . S
H1455 C1439 0.960 . S
C1456 C1457 1.391 . S
C1456 C1458 1.394 . S
C1456 H1472 0.931 . S
C1457 C1456 1.391 . S
C1457 C1461 1.376 . S
C1458 C1456 1.394 . S
C1458 C1459 1.369 . S
C1458 C1462 1.531 . S
C1459 C1458 1.369 . S
C1459 C1460 1.410 . S
C1459 C1467 1.503 . S
C1460 C1459 1.410 . S
C1460 C1461 1.392 . S
C1460 C1463 1.511 . S
C1461 C1457 1.376 . S
C1461 C1460 1.392 . S
C1461 H1473 0.929 . S
C1462 C1458 1.531 . S
C1462 H1474 0.960 . S
C1462 H1475 0.962 . S
C1462 H1476 0.960 . S
C1463 C1460 1.511 . S
C1463 H1477 0.961 . S
C1463 H1478 0.961 . S
C1463 H1479 0.961 . S
C1464 C1465 1.370 . S
C1464 C1466 1.363 . S
C1464 H1480 0.931 . S
C1465 C1464 1.370 . S
C1465 C1469 1.408 . S
C1466 C1464 1.363 . S
C1466 C1467 1.370 . S
C1466 C1470 1.524 . S
C1467 C1459 1.503 . S
C1467 C1466 1.370 . S
C1467 C1468 1.403 . S
C1468 C1467 1.403 . S
C1468 C1469 1.404 . S
C1468 C1471 1.539 . S
C1469 C1465 1.408 . S
C1469 C1468 1.404 . S
C1469 H1481 0.930 . S
C1470 C1466 1.524 . S
C1470 H1482 0.956 . S
C1470 H1483 0.961 . S
C1470 H1484 0.961 . S
C1471 C1468 1.539 . S
C1471 H1485 0.958 . S
C1471 H1486 0.961 . S
C1471 H1487 0.960 . S
H1472 C1456 0.931 . S
H1473 C1461 0.929 . S
H1474 C1462 0.960 . S
H1475 C1462 0.962 . S
H1476 C1462 0.960 . S
H1477 C1463 0.961 . S
H1478 C1463 0.961 . S
H1479 C1463 0.961 . S
H1480 C1464 0.931 . S
H1481 C1469 0.930 . S
H1482 C1470 0.956 . S
H1483 C1470 0.961 . S
H1484 C1470 0.961 . S
H1485 C1471 0.958 . S
H1486 C1471 0.961 . S
H1487 C1471 0.960 . S
C1488 C1489 1.391 . S
C1488 C1490 1.394 . S
C1488 H1504 0.931 . S
C1489 C1488 1.391 . S
C1489 C1493 1.376 . S
C1490 C1488 1.394 . S
C1490 C1491 1.369 . S
C1490 C1494 1.531 . S
C1491 C1490 1.369 . S
C1491 C1492 1.410 . S
C1491 C1499 1.503 . S
C1492 C1491 1.410 . S
C1492 C1493 1.392 . S
C1492 C1495 1.511 . S
C1493 C1489 1.376 . S
C1493 C1492 1.392 . S
C1493 H1505 0.929 . S
C1494 C1490 1.531 . S
C1494 H1506 0.960 . S
C1494 H1507 0.962 . S
C1494 H1508 0.960 . S
C1495 C1492 1.511 . S
C1495 H1509 0.961 . S
C1495 H1510 0.961 . S
C1495 H1511 0.961 . S
C1496 C1497 1.370 . S
C1496 C1498 1.363 . S
C1496 H1512 0.931 . S
C1497 C1496 1.370 . S
C1497 C1501 1.408 . S
C1498 C1496 1.363 . S
C1498 C1499 1.370 . S
C1498 C1502 1.524 . S
C1499 C1491 1.503 . S
C1499 C1498 1.370 . S
C1499 C1500 1.403 . S
C1500 C1499 1.403 . S
C1500 C1501 1.404 . S
C1500 C1503 1.539 . S
C1501 C1497 1.408 . S
C1501 C1500 1.404 . S
C1501 H1513 0.930 . S
C1502 C1498 1.524 . S
C1502 H1514 0.956 . S
C1502 H1515 0.961 . S
C1502 H1516 0.961 . S
C1503 C1500 1.539 . S
C1503 H1517 0.958 . S
C1503 H1518 0.961 . S
C1503 H1519 0.960 . S
H1504 C1488 0.931 . S
H1505 C1493 0.929 . S
H1506 C1494 0.960 . S
H1507 C1494 0.962 . S
H1508 C1494 0.960 . S
H1509 C1495 0.961 . S
H1510 C1495 0.961 . S
H1511 C1495 0.961 . S
H1512 C1496 0.931 . S
H1513 C1501 0.930 . S
H1514 C1502 0.956 . S
H1515 C1502 0.961 . S
H1516 C1502 0.961 . S
H1517 C1503 0.958 . S
H1518 C1503 0.961 . S
H1519 C1503 0.960 . S
C1520 C1521 1.391 . S
C1520 C1522 1.394 . S
C1520 H1536 0.931 . S
C1521 C1520 1.391 . S
C1521 C1525 1.376 . S
C1522 C1520 1.394 . S
C1522 C1523 1.369 . S
C1522 C1526 1.531 . S
C1523 C1522 1.369 . S
C1523 C1524 1.410 . S
C1523 C1531 1.503 . S
C1524 C1523 1.410 . S
C1524 C1525 1.392 . S
C1524 C1527 1.511 . S
C1525 C1521 1.376 . S
C1525 C1524 1.392 . S
C1525 H1537 0.929 . S
C1526 C1522 1.531 . S
C1526 H1538 0.960 . S
C1526 H1539 0.962 . S
C1526 H1540 0.960 . S
C1527 C1524 1.511 . S
C1527 H1541 0.961 . S
C1527 H1542 0.961 . S
C1527 H1543 0.961 . S
C1528 C1529 1.370 . S
C1528 C1530 1.363 . S
C1528 H1544 0.931 . S
C1529 C1528 1.370 . S
C1529 C1533 1.408 . S
C1530 C1528 1.363 . S
C1530 C1531 1.370 . S
C1530 C1534 1.524 . S
C1531 C1523 1.503 . S
C1531 C1530 1.370 . S
C1531 C1532 1.403 . S
C1532 C1531 1.403 . S
C1532 C1533 1.404 . S
C1532 C1535 1.539 . S
C1533 C1529 1.408 . S
C1533 C1532 1.404 . S
C1533 H1545 0.930 . S
C1534 C1530 1.524 . S
C1534 H1546 0.956 . S
C1534 H1547 0.961 . S
C1534 H1548 0.961 . S
C1535 C1532 1.539 . S
C1535 H1549 0.958 . S
C1535 H1550 0.961 . S
C1535 H1551 0.960 . S
H1536 C1520 0.931 . S
H1537 C1525 0.929 . S
H1538 C1526 0.960 . S
H1539 C1526 0.962 . S
H1540 C1526 0.960 . S
H1541 C1527 0.961 . S
H1542 C1527 0.961 . S
H1543 C1527 0.961 . S
H1544 C1528 0.931 . S
H1545 C1533 0.930 . S
H1546 C1534 0.956 . S
H1547 C1534 0.961 . S
H1548 C1534 0.961 . S
H1549 C1535 0.958 . S
H1550 C1535 0.961 . S
H1551 C1535 0.960 . S
C1552 C1553 1.391 . S
C1552 C1554 1.394 . S
C1552 H1568 0.931 . S
C1553 C1552 1.391 . S
C1553 C1557 1.376 . S
C1554 C1552 1.394 . S
C1554 C1555 1.369 . S
C1554 C1558 1.531 . S
C1555 C1554 1.369 . S
C1555 C1556 1.410 . S
C1555 C1563 1.503 . S
C1556 C1555 1.410 . S
C1556 C1557 1.392 . S
C1556 C1559 1.511 . S
C1557 C1553 1.376 . S
C1557 C1556 1.392 . S
C1557 H1569 0.929 . S
C1558 C1554 1.531 . S
C1558 H1570 0.960 . S
C1558 H1571 0.962 . S
C1558 H1572 0.960 . S
C1559 C1556 1.511 . S
C1559 H1573 0.961 . S
C1559 H1574 0.961 . S
C1559 H1575 0.961 . S
C1560 C1561 1.370 . S
C1560 C1562 1.363 . S
C1560 H1576 0.931 . S
C1561 C1560 1.370 . S
C1561 C1565 1.408 . S
C1562 C1560 1.363 . S
C1562 C1563 1.370 . S
C1562 C1566 1.524 . S
C1563 C1555 1.503 . S
C1563 C1562 1.370 . S
C1563 C1564 1.403 . S
C1564 C1563 1.403 . S
C1564 C1565 1.404 . S
C1564 C1567 1.539 . S
C1565 C1561 1.408 . S
C1565 C1564 1.404 . S
C1565 H1577 0.930 . S
C1566 C1562 1.524 . S
C1566 H1578 0.956 . S
C1566 H1579 0.961 . S
C1566 H1580 0.961 . S
C1567 C1564 1.539 . S
C1567 H1581 0.958 . S
C1567 H1582 0.961 . S
C1567 H1583 0.960 . S
H1568 C1552 0.931 . S
H1569 C1557 0.929 . S
H1570 C1558 0.960 . S
H1571 C1558 0.962 . S
H1572 C1558 0.960 . S
H1573 C1559 0.961 . S
H1574 C1559 0.961 . S
H1575 C1559 0.961 . S
H1576 C1560 0.931 . S
H1577 C1565 0.930 . S
H1578 C1566 0.956 . S
H1579 C1566 0.961 . S
H1580 C1566 0.961 . S
H1581 C1567 0.958 . S
H1582 C1567 0.961 . S
H1583 C1567 0.960 . S
C1584 C1585 1.391 . S
C1584 C1586 1.394 . S
C1584 H1600 0.931 . S
C1585 C1584 1.391 . S
C1585 C1589 1.376 . S
C1586 C1584 1.394 . S
C1586 C1587 1.369 . S
C1586 C1590 1.531 . S
C1587 C1586 1.369 . S
C1587 C1588 1.410 . S
C1587 C1595 1.503 . S
C1588 C1587 1.410 . S
C1588 C1589 1.392 . S
C1588 C1591 1.511 . S
C1589 C1585 1.376 . S
C1589 C1588 1.392 . S
C1589 H1601 0.929 . S
C1590 C1586 1.531 . S
C1590 H1602 0.960 . S
C1590 H1603 0.962 . S
C1590 H1604 0.960 . S
C1591 C1588 1.511 . S
C1591 H1605 0.961 . S
C1591 H1606 0.961 . S
C1591 H1607 0.961 . S
C1592 C1593 1.370 . S
C1592 C1594 1.363 . S
C1592 H1608 0.931 . S
C1593 C1592 1.370 . S
C1593 C1597 1.408 . S
C1594 C1592 1.363 . S
C1594 C1595 1.370 . S
C1594 C1598 1.524 . S
C1595 C1587 1.503 . S
C1595 C1594 1.370 . S
C1595 C1596 1.403 . S
C1596 C1595 1.403 . S
C1596 C1597 1.404 . S
C1596 C1599 1.539 . S
C1597 C1593 1.408 . S
C1597 C1596 1.404 . S
C1597 H1609 0.930 . S
C1598 C1594 1.524 . S
C1598 H1610 0.956 . S
C1598 H1611 0.961 . S
C1598 H1612 0.961 . S
C1599 C1596 1.539 . S
C1599 H1613 0.958 . S
C1599 H1614 0.961 . S
C1599 H1615 0.960 . S
H1600 C1584 0.931 . S
H1601 C1589 0.929 . S
H1602 C1590 0.960 . S
H1603 C1590 0.962 . S
H1604 C1590 0.960 . S
H1605 C1591 0.961 . S
H1606 C1591 0.961 . S
H1607 C1591 0.961 . S
H1608 C1592 0.931 . S
H1609 C1597 0.930 . S
H1610 C1598 0.956 . S
H1611 C1598 0.961 . S
H1612 C1598 0.961 . S
H1613 C1599 0.958 . S
H1614 C1599 0.961 . S
H1615 C1599 0.960 . S
C1616 C1617 1.391 . S
C1616 C1618 1.394 . S
C1616 H1632 0.931 . S
C1617 C1616 1.391 . S
C1617 C1621 1.376 . S
C1618 C1616 1.394 . S
C1618 C1619 1.369 . S
C1618 C1622 1.531 . S
C1619 C1618 1.369 . S
C1619 C1620 1.410 . S
C1619 C1627 1.503 . S
C1620 C1619 1.410 . S
C1620 C1621 1.392 . S
C1620 C1623 1.511 . S
C1621 C1617 1.376 . S
C1621 C1620 1.392 . S
C1621 H1633 0.929 . S
C1622 C1618 1.531 . S
C1622 H1634 0.960 . S
C1622 H1635 0.962 . S
C1622 H1636 0.960 . S
C1623 C1620 1.511 . S
C1623 H1637 0.961 . S
C1623 H1638 0.961 . S
C1623 H1639 0.961 . S
C1624 C1625 1.370 . S
C1624 C1626 1.363 . S
C1624 H1640 0.931 . S
C1625 C1624 1.370 . S
C1625 C1629 1.408 . S
C1626 C1624 1.363 . S
C1626 C1627 1.370 . S
C1626 C1630 1.524 . S
C1627 C1619 1.503 . S
C1627 C1626 1.370 . S
C1627 C1628 1.403 . S
C1628 C1627 1.403 . S
C1628 C1629 1.404 . S
C1628 C1631 1.539 . S
C1629 C1625 1.408 . S
C1629 C1628 1.404 . S
C1629 H1641 0.930 . S
C1630 C1626 1.524 . S
C1630 H1642 0.956 . S
C1630 H1643 0.961 . S
C1630 H1644 0.961 . S
C1631 C1628 1.539 . S
C1631 H1645 0.958 . S
C1631 H1646 0.961 . S
C1631 H1647 0.960 . S
H1632 C1616 0.931 . S
H1633 C1621 0.929 . S
H1634 C1622 0.960 . S
H1635 C1622 0.962 . S
H1636 C1622 0.960 . S
H1637 C1623 0.961 . S
H1638 C1623 0.961 . S
H1639 C1623 0.961 . S
H1640 C1624 0.931 . S
H1641 C1629 0.930 . S
H1642 C1630 0.956 . S
H1643 C1630 0.961 . S
H1644 C1630 0.961 . S
H1645 C1631 0.958 . S
H1646 C1631 0.961 . S
H1647 C1631 0.960 . S
C1648 C1649 1.391 . S
C1648 C1650 1.394 . S
C1648 H1664 0.931 . S
C1649 C1648 1.391 . S
C1649 C1653 1.376 . S
C1650 C1648 1.394 . S
C1650 C1651 1.369 . S
C1650 C1654 1.531 . S
C1651 C1650 1.369 . S
C1651 C1652 1.410 . S
C1651 C1659 1.503 . S
C1652 C1651 1.410 . S
C1652 C1653 1.392 . S
C1652 C1655 1.511 . S
C1653 C1649 1.376 . S
C1653 C1652 1.392 . S
C1653 H1665 0.929 . S
C1654 C1650 1.531 . S
C1654 H1666 0.960 . S
C1654 H1667 0.962 . S
C1654 H1668 0.960 . S
C1655 C1652 1.511 . S
C1655 H1669 0.961 . S
C1655 H1670 0.961 . S
C1655 H1671 0.961 . S
C1656 C1657 1.370 . S
C1656 C1658 1.363 . S
C1656 H1672 0.931 . S
C1657 C1656 1.370 . S
C1657 C1661 1.408 . S
C1658 C1656 1.363 . S
C1658 C1659 1.370 . S
C1658 C1662 1.524 . S
C1659 C1651 1.503 . S
C1659 C1658 1.370 . S
C1659 C1660 1.403 . S
C1660 C1659 1.403 . S
C1660 C1661 1.404 . S
C1660 C1663 1.539 . S
C1661 C1657 1.408 . S
C1661 C1660 1.404 . S
C1661 H1673 0.930 . S
C1662 C1658 1.524 . S
C1662 H1674 0.956 . S
C1662 H1675 0.961 . S
C1662 H1676 0.961 . S
C1663 C1660 1.539 . S
C1663 H1677 0.958 . S
C1663 H1678 0.961 . S
C1663 H1679 0.960 . S
H1664 C1648 0.931 . S
H1665 C1653 0.929 . S
H1666 C1654 0.960 . S
H1667 C1654 0.962 . S
H1668 C1654 0.960 . S
H1669 C1655 0.961 . S
H1670 C1655 0.961 . S
H1671 C1655 0.961 . S
H1672 C1656 0.931 . S
H1673 C1661 0.930 . S
H1674 C1662 0.956 . S
H1675 C1662 0.961 . S
H1676 C1662 0.961 . S
H1677 C1663 0.958 . S
H1678 C1663 0.961 . S
H1679 C1663 0.960 . S
C1680 C1681 1.391 . S
C1680 C1682 1.394 . S
C1680 H1696 0.931 . S
C1681 C1680 1.391 . S
C1681 C1685 1.376 . S
C1682 C1680 1.394 . S
C1682 C1683 1.369 . S
C1682 C1686 1.531 . S
C1683 C1682 1.369 . S
C1683 C1684 1.410 . S
C1683 C1691 1.503 . S
C1684 C1683 1.410 . S
C1684 C1685 1.392 . S
C1684 C1687 1.511 . S
C1685 C1681 1.376 . S
C1685 C1684 1.392 . S
C1685 H1697 0.929 . S
C1686 C1682 1.531 . S
C1686 H1698 0.960 . S
C1686 H1699 0.962 . S
C1686 H1700 0.960 . S
C1687 C1684 1.511 . S
C1687 H1701 0.961 . S
C1687 H1702 0.961 . S
C1687 H1703 0.961 . S
C1688 C1689 1.370 . S
C1688 C1690 1.363 . S
C1688 H1704 0.931 . S
C1689 C1688 1.370 . S
C1689 C1693 1.408 . S
C1690 C1688 1.363 . S
C1690 C1691 1.370 . S
C1690 C1694 1.524 . S
C1691 C1683 1.503 . S
C1691 C1690 1.370 . S
C1691 C1692 1.403 . S
C1692 C1691 1.403 . S
C1692 C1693 1.404 . S
C1692 C1695 1.539 . S
C1693 C1689 1.408 . S
C1693 C1692 1.404 . S
C1693 H1705 0.930 . S
C1694 C1690 1.524 . S
C1694 H1706 0.956 . S
C1694 H1707 0.961 . S
C1694 H1708 0.961 . S
C1695 C1692 1.539 . S
C1695 H1709 0.958 . S
C1695 H1710 0.961 . S
C1695 H1711 0.960 . S
H1696 C1680 0.931 . S
H1697 C1685 0.929 . S
H1698 C1686 0.960 . S
H1699 C1686 0.962 . S
H1700 C1686 0.960 . S
H1701 C1687 0.961 . S
H1702 C1687 0.961 . S
H1703 C1687 0.961 . S
H1704 C1688 0.931 . S
H1705 C1693 0.930 . S
H1706 C1694 0.956 . S
H1707 C1694 0.961 . S
H1708 C1694 0.961 . S
H1709 C1695 0.958 . S
H1710 C1695 0.961 . S
H1711 C1695 0.960 . S
C1712 C1713 1.391 . S
C1712 C1714 1.394 . S
C1712 H1728 0.931 . S
C1713 C1712 1.391 . S
C1713 C1717 1.376 . S
C1714 C1712 1.394 . S
C1714 C1715 1.369 . S
C1714 C1718 1.531 . S
C1715 C1714 1.369 . S
C1715 C1716 1.410 . S
C1715 C1723 1.503 . S
C1716 C1715 1.410 . S
C1716 C1717 1.392 . S
C1716 C1719 1.511 . S
C1717 C1713 1.376 . S
C1717 C1716 1.392 . S
C1717 H1729 0.929 . S
C1718 C1714 1.531 . S
C1718 H1730 0.960 . S
C1718 H1731 0.962 . S
C1718 H1732 0.960 . S
C1719 C1716 1.511 . S
C1719 H1733 0.961 . S
C1719 H1734 0.961 . S
C1719 H1735 0.961 . S
C1720 C1721 1.370 . S
C1720 C1722 1.363 . S
C1720 H1736 0.931 . S
C1721 C1720 1.370 . S
C1721 C1725 1.408 . S
C1722 C1720 1.363 . S
C1722 C1723 1.370 . S
C1722 C1726 1.524 . S
C1723 C1715 1.503 . S
C1723 C1722 1.370 . S
C1723 C1724 1.403 . S
C1724 C1723 1.403 . S
C1724 C1725 1.404 . S
C1724 C1727 1.539 . S
C1725 C1721 1.408 . S
C1725 C1724 1.404 . S
C1725 H1737 0.930 . S
C1726 C1722 1.524 . S
C1726 H1738 0.956 . S
C1726 H1739 0.961 . S
C1726 H1740 0.961 . S
C1727 C1724 1.539 . S
C1727 H1741 0.958 . S
C1727 H1742 0.961 . S
C1727 H1743 0.960 . S
H1728 C1712 0.931 . S
H1729 C1717 0.929 . S
H1730 C1718 0.960 . S
H1731 C1718 0.962 . S
H1732 C1718 0.960 . S
H1733 C1719 0.961 . S
H1734 C1719 0.961 . S
H1735 C1719 0.961 . S
H1736 C1720 0.931 . S
H1737 C1725 0.930 . S
H1738 C1726 0.956 . S
H1739 C1726 0.961 . S
H1740 C1726 0.961 . S
H1741 C1727 0.958 . S
H1742 C1727 0.961 . S
H1743 C1727 0.960 . S
C1744 C1745 1.391 . S
C1744 C1746 1.394 . S
C1744 H1760 0.931 . S
C1745 C1744 1.391 . S
C1745 C1749 1.376 . S
C1746 C1744 1.394 . S
C1746 C1747 1.369 . S
C1746 C1750 1.531 . S
C1747 C1746 1.369 . S
C1747 C1748 1.410 . S
C1747 C1755 1.503 . S
C1748 C1747 1.410 . S
C1748 C1749 1.392 . S
C1748 C1751 1.511 . S
C1749 C1745 1.376 . S
C1749 C1748 1.392 . S
C1749 H1761 0.929 . S
C1750 C1746 1.531 . S
C1750 H1762 0.960 . S
C1750 H1763 0.962 . S
C1750 H1764 0.960 . S
C1751 C1748 1.511 . S
C1751 H1765 0.961 . S
C1751 H1766 0.961 . S
C1751 H1767 0.961 . S
C1752 C1753 1.370 . S
C1752 C1754 1.363 . S
C1752 H1768 0.931 . S
C1753 C1752 1.370 . S
C1753 C1757 1.408 . S
C1754 C1752 1.363 . S
C1754 C1755 1.370 . S
C1754 C1758 1.524 . S
C1755 C1747 1.503 . S
C1755 C1754 1.370 . S
C1755 C1756 1.403 . S
C1756 C1755 1.403 . S
C1756 C1757 1.404 . S
C1756 C1759 1.539 . S
C1757 C1753 1.408 . S
C1757 C1756 1.404 . S
C1757 H1769 0.930 . S
C1758 C1754 1.524 . S
C1758 H1770 0.956 . S
C1758 H1771 0.961 . S
C1758 H1772 0.961 . S
C1759 C1756 1.539 . S
C1759 H1773 0.958 . S
C1759 H1774 0.961 . S
C1759 H1775 0.960 . S
H1760 C1744 0.931 . S
H1761 C1749 0.929 . S
H1762 C1750 0.960 . S
H1763 C1750 0.962 . S
H1764 C1750 0.960 . S
H1765 C1751 0.961 . S
H1766 C1751 0.961 . S
H1767 C1751 0.961 . S
H1768 C1752 0.931 . S
H1769 C1757 0.930 . S
H1770 C1758 0.956 . S
H1771 C1758 0.961 . S
H1772 C1758 0.961 . S
H1773 C1759 0.958 . S
H1774 C1759 0.961 . S
H1775 C1759 0.960 . S
C1776 C1777 1.391 . S
C1776 C1778 1.394 . S
C1776 H1792 0.931 . S
C1777 C1776 1.391 . S
C1777 C1781 1.376 . S
C1778 C1776 1.394 . S
C1778 C1779 1.369 . S
C1778 C1782 1.531 . S
C1779 C1778 1.369 . S
C1779 C1780 1.410 . S
C1779 C1787 1.503 . S
C1780 C1779 1.410 . S
C1780 C1781 1.392 . S
C1780 C1783 1.511 . S
C1781 C1777 1.376 . S
C1781 C1780 1.392 . S
C1781 H1793 0.929 . S
C1782 C1778 1.531 . S
C1782 H1794 0.960 . S
C1782 H1795 0.962 . S
C1782 H1796 0.960 . S
C1783 C1780 1.511 . S
C1783 H1797 0.961 . S
C1783 H1798 0.961 . S
C1783 H1799 0.961 . S
C1784 C1785 1.370 . S
C1784 C1786 1.363 . S
C1784 H1800 0.931 . S
C1785 C1784 1.370 . S
C1785 C1789 1.408 . S
C1786 C1784 1.363 . S
C1786 C1787 1.370 . S
C1786 C1790 1.524 . S
C1787 C1779 1.503 . S
C1787 C1786 1.370 . S
C1787 C1788 1.403 . S
C1788 C1787 1.403 . S
C1788 C1789 1.404 . S
C1788 C1791 1.539 . S
C1789 C1785 1.408 . S
C1789 C1788 1.404 . S
C1789 H1801 0.930 . S
C1790 C1786 1.524 . S
C1790 H1802 0.956 . S
C1790 H1803 0.961 . S
C1790 H1804 0.961 . S
C1791 C1788 1.539 . S
C1791 H1805 0.958 . S
C1791 H1806 0.961 . S
C1791 H1807 0.960 . S
H1792 C1776 0.931 . S
H1793 C1781 0.929 . S
H1794 C1782 0.960 . S
H1795 C1782 0.962 . S
H1796 C1782 0.960 . S
H1797 C1783 0.961 . S
H1798 C1783 0.961 . S
H1799 C1783 0.961 . S
H1800 C1784 0.931 . S
H1801 C1789 0.930 . S
H1802 C1790 0.956 . S
H1803 C1790 0.961 . S
H1804 C1790 0.961 . S
H1805 C1791 0.958 . S
H1806 C1791 0.961 . S
H1807 C1791 0.960 . S
C1808 C1809 1.391 . S
C1808 C1810 1.394 . S
C1808 H1824 0.931 . S
C1809 C1808 1.391 . S
C1809 C1813 1.376 . S
C1810 C1808 1.394 . S
C1810 C1811 1.369 . S
C1810 C1814 1.531 . S
C1811 C1810 1.369 . S
C1811 C1812 1.410 . S
C1811 C1819 1.503 . S
C1812 C1811 1.410 . S
C1812 C1813 1.392 . S
C1812 C1815 1.511 . S
C1813 C1809 1.376 . S
C1813 C1812 1.392 . S
C1813 H1825 0.929 . S
C1814 C1810 1.531 . S
C1814 H1826 0.960 . S
C1814 H1827 0.962 . S
C1814 H1828 0.960 . S
C1815 C1812 1.511 . S
C1815 H1829 0.961 . S
C1815 H1830 0.961 . S
C1815 H1831 0.961 . S
C1816 C1817 1.370 . S
C1816 C1818 1.363 . S
C1816 H1832 0.931 . S
C1817 C1816 1.370 . S
C1817 C1821 1.408 . S
C1818 C1816 1.363 . S
C1818 C1819 1.370 . S
C1818 C1822 1.524 . S
C1819 C1811 1.503 . S
C1819 C1818 1.370 . S
C1819 C1820 1.403 . S
C1820 C1819 1.403 . S
C1820 C1821 1.404 . S
C1820 C1823 1.539 . S
C1821 C1817 1.408 . S
C1821 C1820 1.404 . S
C1821 H1833 0.930 . S
C1822 C1818 1.524 . S
C1822 H1834 0.956 . S
C1822 H1835 0.961 . S
C1822 H1836 0.961 . S
C1823 C1820 1.539 . S
C1823 H1837 0.958 . S
C1823 H1838 0.961 . S
C1823 H1839 0.960 . S
H1824 C1808 0.931 . S
H1825 C1813 0.929 . S
H1826 C1814 0.960 . S
H1827 C1814 0.962 . S
H1828 C1814 0.960 . S
H1829 C1815 0.961 . S
H1830 C1815 0.961 . S
H1831 C1815 0.961 . S
H1832 C1816 0.931 . S
H1833 C1821 0.930 . S
H1834 C1822 0.956 . S
H1835 C1822 0.961 . S
H1836 C1822 0.961 . S
H1837 C1823 0.958 . S
H1838 C1823 0.961 . S
H1839 C1823 0.960 . S
C1840 C1841 1.391 . S
C1840 C1842 1.394 . S
C1840 H1856 0.931 . S
C1841 C1840 1.391 . S
C1841 C1845 1.376 . S
C1842 C1840 1.394 . S
C1842 C1843 1.369 . S
C1842 C1846 1.531 . S
C1843 C1842 1.369 . S
C1843 C1844 1.410 . S
C1843 C1851 1.503 . S
C1844 C1843 1.410 . S
C1844 C1845 1.392 . S
C1844 C1847 1.511 . S
C1845 C1841 1.376 . S
C1845 C1844 1.392 . S
C1845 H1857 0.929 . S
C1846 C1842 1.531 . S
C1846 H1858 0.960 . S
C1846 H1859 0.962 . S
C1846 H1860 0.960 . S
C1847 C1844 1.511 . S
C1847 H1861 0.961 . S
C1847 H1862 0.961 . S
C1847 H1863 0.961 . S
C1848 C1849 1.370 . S
C1848 C1850 1.363 . S
C1848 H1864 0.931 . S
C1849 C1848 1.370 . S
C1849 C1853 1.408 . S
C1850 C1848 1.363 . S
C1850 C1851 1.370 . S
C1850 C1854 1.524 . S
C1851 C1843 1.503 . S
C1851 C1850 1.370 . S
C1851 C1852 1.403 . S
C1852 C1851 1.403 . S
C1852 C1853 1.404 . S
C1852 C1855 1.539 . S
C1853 C1849 1.408 . S
C1853 C1852 1.404 . S
C1853 H1865 0.930 . S
C1854 C1850 1.524 . S
C1854 H1866 0.956 . S
C1854 H1867 0.961 . S
C1854 H1868 0.961 . S
C1855 C1852 1.539 . S
C1855 H1869 0.958 . S
C1855 H1870 0.961 . S
C1855 H1871 0.960 . S
H1856 C1840 0.931 . S
H1857 C1845 0.929 . S
H1858 C1846 0.960 . S
H1859 C1846 0.962 . S
H1860 C1846 0.960 . S
H1861 C1847 0.961 . S
H1862 C1847 0.961 . S
H1863 C1847 0.961 . S
H1864 C1848 0.931 . S
H1865 C1853 0.930 . S
H1866 C1854 0.956 . S
H1867 C1854 0.961 . S
H1868 C1854 0.961 . S
H1869 C1855 0.958 . S
H1870 C1855 0.961 . S
H1871 C1855 0.960 . S
C1872 C1873 1.391 . S
C1872 C1874 1.394 . S
C1872 H1888 0.931 . S
C1873 C1872 1.391 . S
C1873 C1877 1.376 . S
C1874 C1872 1.394 . S
C1874 C1875 1.369 . S
C1874 C1878 1.531 . S
C1875 C1874 1.369 . S
C1875 C1876 1.410 . S
C1875 C1883 1.503 . S
C1876 C1875 1.410 . S
C1876 C1877 1.392 . S
C1876 C1879 1.511 . S
C1877 C1873 1.376 . S
C1877 C1876 1.392 . S
C1877 H1889 0.929 . S
C1878 C1874 1.531 . S
C1878 H1890 0.960 . S
C1878 H1891 0.962 . S
C1878 H1892 0.960 . S
C1879 C1876 1.511 . S
C1879 H1893 0.961 . S
C1879 H1894 0.961 . S
C1879 H1895 0.961 . S
C1880 C1881 1.370 . S
C1880 C1882 1.363 . S
C1880 H1896 0.931 . S
C1881 C1880 1.370 . S
C1881 C1885 1.408 . S
C1882 C1880 1.363 . S
C1882 C1883 1.370 . S
C1882 C1886 1.524 . S
C1883 C1875 1.503 . S
C1883 C1882 1.370 . S
C1883 C1884 1.403 . S
C1884 C1883 1.403 . S
C1884 C1885 1.404 . S
C1884 C1887 1.539 . S
C1885 C1881 1.408 . S
C1885 C1884 1.404 . S
C1885 H1897 0.930 . S
C1886 C1882 1.524 . S
C1886 H1898 0.956 . S
C1886 H1899 0.961 . S
C1886 H1900 0.961 . S
C1887 C1884 1.539 . S
C1887 H1901 0.958 . S
C1887 H1902 0.961 . S
C1887 H1903 0.960 . S
H1888 C1872 0.931 . S
H1889 C1877 0.929 . S
H1890 C1878 0.960 . S
H1891 C1878 0.962 . S
H1892 C1878 0.960 . S
H1893 C1879 0.961 . S
H1894 C1879 0.961 . S
H1895 C1879 0.961 . S
H1896 C1880 0.931 . S
H1897 C1885 0.930 . S
H1898 C1886 0.956 . S
H1899 C1886 0.961 . S
H1900 C1886 0.961 . S
H1901 C1887 0.958 . S
H1902 C1887 0.961 . S
H1903 C1887 0.960 . S
C1904 C1905 1.391 . S
C1904 C1906 1.394 . S
C1904 H1920 0.931 . S
C1905 C1904 1.391 . S
C1905 C1909 1.376 . S
C1906 C1904 1.394 . S
C1906 C1907 1.369 . S
C1906 C1910 1.531 . S
C1907 C1906 1.369 . S
C1907 C1908 1.410 . S
C1907 C1915 1.503 . S
C1908 C1907 1.410 . S
C1908 C1909 1.392 . S
C1908 C1911 1.511 . S
C1909 C1905 1.376 . S
C1909 C1908 1.392 . S
C1909 H1921 0.929 . S
C1910 C1906 1.531 . S
C1910 H1922 0.960 . S
C1910 H1923 0.962 . S
C1910 H1924 0.960 . S
C1911 C1908 1.511 . S
C1911 H1925 0.961 . S
C1911 H1926 0.961 . S
C1911 H1927 0.961 . S
C1912 C1913 1.370 . S
C1912 C1914 1.363 . S
C1912 H1928 0.931 . S
C1913 C1912 1.370 . S
C1913 C1917 1.408 . S
C1914 C1912 1.363 . S
C1914 C1915 1.370 . S
C1914 C1918 1.524 . S
C1915 C1907 1.503 . S
C1915 C1914 1.370 . S
C1915 C1916 1.403 . S
C1916 C1915 1.403 . S
C1916 C1917 1.404 . S
C1916 C1919 1.539 . S
C1917 C1913 1.408 . S
C1917 C1916 1.404 . S
C1917 H1929 0.930 . S
C1918 C1914 1.524 . S
C1918 H1930 0.956 . S
C1918 H1931 0.961 . S
C1918 H1932 0.961 . S
C1919 C1916 1.539 . S
C1919 H1933 0.958 . S
C1919 H1934 0.961 . S
C1919 H1935 0.960 . S
H1920 C1904 0.931 . S
H1921 C1909 0.929 . S
H1922 C1910 0.960 . S
H1923 C1910 0.962 . S
H1924 C1910 0.960 . S
H1925 C1911 0.961 . S
H1926 C1911 0.961 . S
H1927 C1911 0.961 . S
H1928 C1912 0.931 . S
H1929 C1917 0.930 . S
H1930 C1918 0.956 . S
H1931 C1918 0.961 . S
H1932 C1918 0.961 . S
H1933 C1919 0.958 . S
H1934 C1919 0.961 . S
H1935 C1919 0.960 . S
C1936 C1937 1.391 . S
C1936 C1938 1.394 . S
C1936 H1952 0.931 . S
C1937 C1936 1.391 . S
C1937 C1941 1.376 . S
C1938 C1936 1.394 . S
C1938 C1939 1.369 . S
C1938 C1942 1.531 . S
C1939 C1938 1.369 . S
C1939 C1940 1.410 . S
C1939 C1947 1.503 . S
C1940 C1939 1.410 . S
C1940 C1941 1.392 . S
C1940 C1943 1.511 . S
C1941 C1937 1.376 . S
C1941 C1940 1.392 . S
C1941 H1953 0.929 . S
C1942 C1938 1.531 . S
C1942 H1954 0.960 . S
C1942 H1955 0.962 . S
C1942 H1956 0.960 . S
C1943 C1940 1.511 . S
C1943 H1957 0.961 . S
C1943 H1958 0.961 . S
C1943 H1959 0.961 . S
C1944 C1945 1.370 . S
C1944 C1946 1.363 . S
C1944 H1960 0.931 . S
C1945 C1944 1.370 . S
C1945 C1949 1.408 . S
C1946 C1944 1.363 . S
C1946 C1947 1.370 . S
C1946 C1950 1.524 . S
C1947 C1939 1.503 . S
C1947 C1946 1.370 . S
C1947 C1948 1.403 . S
C1948 C1947 1.403 . S
C1948 C1949 1.404 . S
C1948 C1951 1.539 . S
C1949 C1945 1.408 . S
C1949 C1948 1.404 . S
C1949 H1961 0.930 . S
C1950 C1946 1.524 . S
C1950 H1962 0.956 . S
C1950 H1963 0.961 . S
C1950 H1964 0.961 . S
C1951 C1948 1.539 . S
C1951 H1965 0.958 . S
C1951 H1966 0.961 . S
C1951 H1967 0.960 . S
H1952 C1936 0.931 . S
H1953 C1941 0.929 . S
H1954 C1942 0.960 . S
H1955 C1942 0.962 . S
H1956 C1942 0.960 . S
H1957 C1943 0.961 . S
H1958 C1943 0.961 . S
H1959 C1943 0.961 . S
H1960 C1944 0.931 . S
H1961 C1949 0.930 . S
H1962 C1950 0.956 . S
H1963 C1950 0.961 . S
H1964 C1950 0.961 . S
H1965 C1951 0.958 . S
H1966 C1951 0.961 . S
H1967 C1951 0.960 . S
C1968 C1969 1.391 . S
C1968 C1970 1.394 . S
C1968 H1984 0.931 . S
C1969 C1968 1.391 . S
C1969 C1973 1.376 . S
C1970 C1968 1.394 . S
C1970 C1971 1.369 . S
C1970 C1974 1.531 1_556 S
C1971 C1970 1.369 . S
C1971 C1972 1.410 . S
C1971 C1979 1.503 1_556 S
C1972 C1971 1.410 . S
C1972 C1973 1.392 . S
C1972 C1975 1.511 . S
C1973 C1969 1.376 . S
C1973 C1972 1.392 . S
C1973 H1985 0.929 . S
C1974 C1970 1.531 1_554 S
C1974 H1986 0.960 . S
C1974 H1987 0.962 . S
C1974 H1988 0.960 . S
C1975 C1972 1.511 . S
C1975 H1989 0.961 . S
C1975 H1990 0.961 . S
C1975 H1991 0.961 . S
C1976 C1977 1.370 . S
C1976 C1978 1.363 . S
C1976 H1992 0.931 . S
C1977 C1976 1.370 . S
C1977 C1981 1.408 . S
C1978 C1976 1.363 . S
C1978 C1979 1.370 . S
C1978 C1982 1.524 . S
C1979 C1971 1.503 1_554 S
C1979 C1978 1.370 . S
C1979 C1980 1.403 . S
C1980 C1979 1.403 . S
C1980 C1981 1.404 . S
C1980 C1983 1.539 1_554 S
C1981 C1977 1.408 . S
C1981 C1980 1.404 . S
C1981 H1993 0.930 . S
C1982 C1978 1.524 . S
C1982 H1994 0.956 . S
C1982 H1995 0.961 . S
C1982 H1996 0.961 . S
C1983 C1980 1.539 1_556 S
C1983 H1997 0.958 . S
C1983 H1998 0.961 . S
C1983 H1999 0.960 . S
H1984 C1968 0.931 . S
H1985 C1973 0.929 . S
H1986 C1974 0.960 . S
H1987 C1974 0.962 . S
H1988 C1974 0.960 . S
H1989 C1975 0.961 . S
H1990 C1975 0.961 . S
H1991 C1975 0.961 . S
H1992 C1976 0.931 . S
H1993 C1981 0.930 . S
H1994 C1982 0.956 . S
H1995 C1982 0.961 . S
H1996 C1982 0.961 . S
H1997 C1983 0.958 . S
H1998 C1983 0.961 . S
H1999 C1983 0.960 . S
C2000 C2001 1.391 . S
C2000 C2002 1.394 . S
C2000 H2016 0.931 . S
C2001 C2000 1.391 . S
C2001 C2005 1.376 . S
C2002 C2000 1.394 . S
C2002 C2003 1.369 . S
C2002 C2006 1.531 1_455 S
C2003 C2002 1.369 . S
C2003 C2004 1.410 . S
C2003 C2011 1.503 1_455 S
C2004 C2003 1.410 . S
C2004 C2005 1.392 . S
C2004 C2007 1.511 . S
C2005 C2001 1.376 . S
C2005 C2004 1.392 . S
C2005 H2017 0.929 . S
C2006 C2002 1.531 1_655 S
C2006 H2018 0.960 . S
C2006 H2019 0.962 . S
C2006 H2020 0.960 . S
C2007 C2004 1.511 . S
C2007 H2021 0.961 . S
C2007 H2022 0.961 . S
C2007 H2023 0.961 . S
C2008 C2009 1.370 . S
C2008 C2010 1.363 . S
C2008 H2024 0.931 . S
C2009 C2008 1.370 . S
C2009 C2013 1.408 . S
C2010 C2008 1.363 . S
C2010 C2011 1.370 . S
C2010 C2014 1.524 1_655 S
C2011 C2003 1.503 1_655 S
C2011 C2010 1.370 . S
C2011 C2012 1.403 . S
C2012 C2011 1.403 . S
C2012 C2013 1.404 . S
C2012 C2015 1.539 . S
C2013 C2009 1.408 . S
C2013 C2012 1.404 . S
C2013 H2025 0.930 . S
C2014 C2010 1.524 1_455 S
C2014 H2026 0.963 . S
C2014 H2027 0.961 . S
C2014 H2028 0.961 1_455 S
C2015 C2012 1.539 . S
C2015 H2029 0.958 . S
C2015 H2030 0.961 . S
C2015 H2031 0.960 . S
H2016 C2000 0.931 . S
H2017 C2005 0.929 . S
H2018 C2006 0.960 . S
H2019 C2006 0.962 . S
H2020 C2006 0.960 . S
H2021 C2007 0.961 . S
H2022 C2007 0.961 . S
H2023 C2007 0.961 . S
H2024 C2008 0.931 . S
H2025 C2013 0.930 . S
H2026 C2014 0.963 . S
H2027 C2014 0.961 . S
H2028 C2014 0.961 1_655 S
H2029 C2015 0.958 . S
H2030 C2015 0.961 . S
H2031 C2015 0.960 . S
C2032 C2033 1.391 . S
C2032 C2034 1.394 . S
C2032 H2048 0.931 . S
C2033 C2032 1.391 . S
C2033 C2037 1.376 . S
C2034 C2032 1.394 . S
C2034 C2035 1.369 . S
C2034 C2038 1.531 1_565 S
C2035 C2034 1.369 . S
C2035 C2036 1.410 . S
C2035 C2043 1.503 1_564 S
C2036 C2035 1.410 . S
C2036 C2037 1.392 . S
C2036 C2039 1.511 1_554 S
C2037 C2033 1.376 . S
C2037 C2036 1.392 . S
C2037 H2049 0.929 . S
C2038 C2034 1.531 1_545 S
C2038 H2050 0.960 . S
C2038 H2051 0.962 . S
C2038 H2052 0.960 . S
C2039 C2036 1.511 1_556 S
C2039 H2053 0.961 . S
C2039 H2054 0.961 . S
C2039 H2055 0.961 . S
C2040 C2041 1.370 . S
C2040 C2042 1.363 . S
C2040 H2056 0.931 . S
C2041 C2040 1.370 . S
C2041 C2045 1.408 . S
C2042 C2040 1.363 . S
C2042 C2043 1.370 . S
C2042 C2046 1.525 . S
C2043 C2035 1.503 1_546 S
C2043 C2042 1.370 . S
C2043 C2044 1.403 . S
C2044 C2043 1.403 . S
C2044 C2045 1.404 . S
C2044 C2047 1.547 . S
C2045 C2041 1.408 . S
C2045 C2044 1.404 . S
C2045 H2057 0.930 . S
C2046 C2042 1.525 . S
C2046 H2058 0.959 1_556 S
C2046 H2059 0.949 1_545 S
C2046 H2060 0.968 . S
C2047 C2044 1.547 . S
C2047 H2061 0.943 1_556 S
C2047 H2062 0.973 . S
C2047 H2063 0.956 1_556 S
H2048 C2032 0.931 . S
H2049 C2037 0.929 . S
H2050 C2038 0.960 . S
H2051 C2038 0.962 . S
H2052 C2038 0.960 . S
H2053 C2039 0.961 . S
H2054 C2039 0.961 . S
H2055 C2039 0.961 . S
H2056 C2040 0.931 . S
H2057 C2045 0.930 . S
H2058 C2046 0.959 1_554 S
H2059 C2046 0.949 1_565 S
H2060 C2046 0.968 . S
H2061 C2047 0.943 1_554 S
H2062 C2047 0.973 . S
H2063 C2047 0.956 1_554 S
C2064 C2065 1.391 . S
C2064 C2066 1.394 . S
C2064 H2080 0.931 . S
C2065 C2064 1.391 . S
C2065 C2069 1.376 . S
C2066 C2064 1.394 . S
C2066 C2067 1.369 . S
C2066 C2070 1.531 . S
C2067 C2066 1.369 . S
C2067 C2068 1.410 . S
C2067 C2075 1.503 . S
C2068 C2067 1.410 . S
C2068 C2069 1.392 . S
C2068 C2071 1.511 . S
C2069 C2065 1.376 . S
C2069 C2068 1.392 . S
C2069 H2081 0.929 . S
C2070 C2066 1.531 . S
C2070 H2082 0.960 . S
C2070 H2083 0.962 . S
C2070 H2084 0.960 . S
C2071 C2068 1.511 . S
C2071 H2085 0.961 . S
C2071 H2086 0.961 . S
C2071 H2087 0.961 . S
C2072 C2073 1.370 . S
C2072 C2074 1.363 . S
C2072 H2088 0.931 . S
C2073 C2072 1.370 . S
C2073 C2077 1.408 . S
C2074 C2072 1.363 . S
C2074 C2075 1.370 . S
C2074 C2078 1.524 . S
C2075 C2067 1.503 . S
C2075 C2074 1.370 . S
C2075 C2076 1.403 . S
C2076 C2075 1.403 . S
C2076 C2077 1.404 . S
C2076 C2079 1.539 . S
C2077 C2073 1.408 . S
C2077 C2076 1.404 . S
C2077 H2089 0.930 . S
C2078 C2074 1.524 . S
C2078 H2090 0.956 . S
C2078 H2091 0.961 . S
C2078 H2092 0.961 . S
C2079 C2076 1.539 . S
C2079 H2093 0.958 . S
C2079 H2094 0.961 . S
C2079 H2095 0.960 . S
H2080 C2064 0.931 . S
H2081 C2069 0.929 . S
H2082 C2070 0.960 . S
H2083 C2070 0.962 . S
H2084 C2070 0.960 . S
H2085 C2071 0.961 . S
H2086 C2071 0.961 . S
H2087 C2071 0.961 . S
H2088 C2072 0.931 . S
H2089 C2077 0.930 . S
H2090 C2078 0.956 . S
H2091 C2078 0.961 . S
H2092 C2078 0.961 . S
H2093 C2079 0.958 . S
H2094 C2079 0.961 . S
H2095 C2079 0.960 . S
C2096 C2097 1.391 . S
C2096 C2098 1.394 . S
C2096 H2112 0.931 . S
C2097 C2096 1.391 . S
C2097 C2101 1.376 . S
C2098 C2096 1.394 . S
C2098 C2099 1.369 . S
C2098 C2102 1.531 1_556 S
C2099 C2098 1.369 . S
C2099 C2100 1.410 . S
C2099 C2107 1.503 1_656 S
C2100 C2099 1.410 . S
C2100 C2101 1.392 . S
C2100 C2103 1.511 1_655 S
C2101 C2097 1.376 . S
C2101 C2100 1.392 . S
C2101 H2113 0.929 . S
C2102 C2098 1.531 1_554 S
C2102 H2114 0.960 . S
C2102 H2115 0.962 . S
C2102 H2116 0.960 . S
C2103 C2100 1.511 1_455 S
C2103 H2117 0.961 . S
C2103 H2118 0.961 . S
C2103 H2119 0.961 . S
C2104 C2105 1.370 . S
C2104 C2106 1.363 . S
C2104 H2120 0.931 . S
C2105 C2104 1.370 . S
C2105 C2109 1.408 . S
C2106 C2104 1.363 . S
C2106 C2107 1.370 . S
C2106 C2110 1.524 1_455 S
C2107 C2099 1.503 1_454 S
C2107 C2106 1.370 . S
C2107 C2108 1.403 . S
C2108 C2107 1.403 . S
C2108 C2109 1.404 . S
C2108 C2111 1.539 1_554 S
C2109 C2105 1.408 . S
C2109 C2108 1.404 . S
C2109 H2121 0.930 . S
C2110 C2106 1.524 1_655 S
C2110 H2122 0.956 . S
C2110 H2123 0.961 . S
C2110 H2124 0.961 . S
C2111 C2108 1.539 1_556 S
C2111 H2125 0.958 . S
C2111 H2126 0.961 . S
C2111 H2127 0.960 . S
H2112 C2096 0.931 . S
H2113 C2101 0.929 . S
H2114 C2102 0.960 . S
H2115 C2102 0.962 . S
H2116 C2102 0.960 . S
H2117 C2103 0.961 . S
H2118 C2103 0.961 . S
H2119 C2103 0.961 . S
H2120 C2104 0.931 . S
H2121 C2109 0.930 . S
H2122 C2110 0.956 . S
H2123 C2110 0.961 . S
H2124 C2110 0.961 . S
H2125 C2111 0.958 . S
H2126 C2111 0.961 . S
H2127 C2111 0.960 . S
C2128 C2129 1.391 . S
C2128 C2130 1.394 . S
C2128 H2144 0.931 . S
C2129 C2128 1.391 . S
C2129 C2133 1.376 . S
C2130 C2128 1.394 . S
C2130 C2131 1.369 . S
C2130 C2134 1.531 . S
C2131 C2130 1.369 . S
C2131 C2132 1.410 . S
C2131 C2139 1.503 1_565 S
C2132 C2131 1.410 . S
C2132 C2133 1.392 . S
C2132 C2135 1.511 1_565 S
C2133 C2129 1.376 . S
C2133 C2132 1.392 . S
C2133 H2145 0.929 . S
C2134 C2130 1.531 . S
C2134 H2146 0.960 . S
C2134 H2147 0.962 . S
C2134 H2148 0.960 . S
C2135 C2132 1.511 1_545 S
C2135 H2149 0.961 . S
C2135 H2150 0.961 . S
C2135 H2151 0.961 . S
C2136 C2137 1.370 . S
C2136 C2138 1.363 . S
C2136 H2152 0.931 . S
C2137 C2136 1.370 . S
C2137 C2141 1.408 . S
C2138 C2136 1.363 . S
C2138 C2139 1.370 . S
C2138 C2142 1.524 1_545 S
C2139 C2131 1.503 1_545 S
C2139 C2138 1.370 . S
C2139 C2140 1.403 . S
C2140 C2139 1.403 . S
C2140 C2141 1.404 . S
C2140 C2143 1.539 . S
C2141 C2137 1.408 . S
C2141 C2140 1.404 . S
C2141 H2153 0.930 . S
C2142 C2138 1.524 1_565 S
C2142 H2154 0.956 . S
C2142 H2155 0.961 . S
C2142 H2156 0.961 . S
C2143 C2140 1.539 . S
C2143 H2157 0.958 . S
C2143 H2158 0.961 . S
C2143 H2159 0.960 . S
H2144 C2128 0.931 . S
H2145 C2133 0.929 . S
H2146 C2134 0.960 . S
H2147 C2134 0.962 . S
H2148 C2134 0.960 . S
H2149 C2135 0.961 . S
H2150 C2135 0.961 . S
H2151 C2135 0.961 . S
H2152 C2136 0.931 . S
H2153 C2141 0.930 . S
H2154 C2142 0.956 . S
H2155 C2142 0.961 . S
H2156 C2142 0.961 . S
H2157 C2143 0.958 . S
H2158 C2143 0.961 . S
H2159 C2143 0.960 . S
C1009 C403 1.351 . S
C1017 C58 1.217 . S
C1041 C487 1.345 . S
C1049 C142 1.226 . S
C1073 C226 1.138 . S
C1081 C67 1.365 . S
C1105 C310 1.260 . S
C1113 C151 1.354 . S
C1137 C394 1.260 . S
C1145 C235 1.354 . S
C1169 C319 1.351 . S
C1177 C478 1.217 . S
C1201 C739 1.355 . S
C1209 C562 1.197 . S
C1233 C646 1.161 . S
C1241 C823 1.362 . S
C1265 C907 1.359 . S
C1273 C730 1.201 . S
C1297 C814 1.136 . S
C1305 C991 1.365 . S
C1329 C898 1.250 . S
C1337 C571 1.354 . S
C1361 C655 1.368 . S
C1369 C982 1.176 . S
C1393 C392 1.414 . S
C1401 C69 1.306 . S
C1425 C153 1.337 . S
C1433 C476 1.429 . S
C1457 C237 1.227 . S
C1465 C56 1.440 . S
C1489 C321 1.268 . S
C1497 C140 1.442 . S
C1521 C224 1.443 . S
C1529 C405 1.263 . S
C1553 C308 1.441 . S
C1561 C489 1.264 . S
C1585 C728 1.431 . S
C1593 C573 1.305 . S
C1617 C657 1.273 . S
C1625 C812 1.431 . S
C1649 C741 1.340 . S
C1657 C896 1.430 . S
C1681 C980 1.417 . S
C1689 C825 1.310 . S
C1713 C909 1.244 . S
C1721 C560 1.443 . S
C1745 C644 1.431 . S
C1753 C993 1.304 . S
C1777 C914 1.776 . S
C1785 C74 1.809 . S
C1809 C158 1.824 . S
C1817 C998 1.824 . S
C1841 C242 1.784 . S
C1849 C578 1.822 . S
C1873 C326 1.841 . S
C1881 C662 1.815 . S
C1905 C410 1.809 . S
C1913 C746 1.798 . S
C1937 C830 1.819 . S
C1945 C494 1.826 . S
C1969 C819 1.926 . S
C1977 C63 1.945 . S
C2001 C903 1.947 . S
C2009 C147 1.950 . S
C2033 C231 1.948 . S
C2041 C987 1.950 . S
C2065 C315 1.955 . S
C2073 C567 1.945 . S
C2097 C651 1.925 . S
C2105 C399 1.945 . S
C2129 C735 1.925 . S
C2137 C483 1.945 . S
