# Generated by pormake.
# Topology wjg, (4)-cn, num edge types: 1
# Building blocks:
#     Node 0, Type 0, BuildingBlock: NAHDIM_clean_sbu_0, # of connection points: 4
#     Node 1, Type 0, BuildingBlock: NAHDIM_clean_sbu_0, # of connection points: 4
#     Node 2, Type 0, BuildingBlock: NAHDIM_clean_sbu_0, # of connection points: 4
#     Node 3, Type 0, BuildingBlock: NAHDIM_clean_sbu_0, # of connection points: 4
#     Node 4, Type 0, BuildingBlock: NAHDIM_clean_sbu_0, # of connection points: 4
#     Node 5, Type 0, BuildingBlock: NAHDIM_clean_sbu_0, # of connection points: 4
#     Node 6, Type 0, BuildingBlock: NAHDIM_clean_sbu_0, # of connection points: 4
#     Node 7, Type 0, BuildingBlock: NAHDIM_clean_sbu_0, # of connection points: 4
#     Node 8, Type 0, BuildingBlock: NAHDIM_clean_sbu_0, # of connection points: 4
#     Node 9, Type 0, BuildingBlock: NAHDIM_clean_sbu_0, # of connection points: 4
#     Node 10, Type 0, BuildingBlock: NAHDIM_clean_sbu_0, # of connection points: 4
#     Node 11, Type 0, BuildingBlock: NAHDIM_clean_sbu_0, # of connection points: 4
#     Edge 12, Type (0, 0), BuildingBlock: XUDNAN_clean_linker_2, # of connection points: 2
#     Edge 13, Type (0, 0), BuildingBlock: XUDNAN_clean_linker_2, # of connection points: 2
#     Edge 14, Type (0, 0), BuildingBlock: XUDNAN_clean_linker_2, # of connection points: 2
#     Edge 15, Type (0, 0), BuildingBlock: XUDNAN_clean_linker_2, # of connection points: 2
#     Edge 16, Type (0, 0), BuildingBlock: XUDNAN_clean_linker_2, # of connection points: 2
#     Edge 17, Type (0, 0), BuildingBlock: XUDNAN_clean_linker_2, # of connection points: 2
#     Edge 18, Type (0, 0), BuildingBlock: XUDNAN_clean_linker_2, # of connection points: 2
#     Edge 19, Type (0, 0), BuildingBlock: XUDNAN_clean_linker_2, # of connection points: 2
#     Edge 20, Type (0, 0), BuildingBlock: XUDNAN_clean_linker_2, # of connection points: 2
#     Edge 21, Type (0, 0), BuildingBlock: XUDNAN_clean_linker_2, # of connection points: 2
#     Edge 22, Type (0, 0), BuildingBlock: XUDNAN_clean_linker_2, # of connection points: 2
#     Edge 23, Type (0, 0), BuildingBlock: XUDNAN_clean_linker_2, # of connection points: 2
#     Edge 24, Type (0, 0), BuildingBlock: XUDNAN_clean_linker_2, # of connection points: 2
#     Edge 25, Type (0, 0), BuildingBlock: XUDNAN_clean_linker_2, # of connection points: 2
#     Edge 26, Type (0, 0), BuildingBlock: XUDNAN_clean_linker_2, # of connection points: 2
#     Edge 27, Type (0, 0), BuildingBlock: XUDNAN_clean_linker_2, # of connection points: 2
#     Edge 28, Type (0, 0), BuildingBlock: XUDNAN_clean_linker_2, # of connection points: 2
#     Edge 29, Type (0, 0), BuildingBlock: XUDNAN_clean_linker_2, # of connection points: 2
#     Edge 30, Type (0, 0), BuildingBlock: XUDNAN_clean_linker_2, # of connection points: 2
#     Edge 31, Type (0, 0), BuildingBlock: XUDNAN_clean_linker_2, # of connection points: 2
#     Edge 32, Type (0, 0), BuildingBlock: XUDNAN_clean_linker_2, # of connection points: 2
#     Edge 33, Type (0, 0), BuildingBlock: XUDNAN_clean_linker_2, # of connection points: 2
#     Edge 34, Type (0, 0), BuildingBlock: XUDNAN_clean_linker_2, # of connection points: 2
#     Edge 35, Type (0, 0), BuildingBlock: XUDNAN_clean_linker_2, # of connection points: 2
# Relax obj value: 0.293
# Max RMSD: 0.131
# Mean RMSD: 0.129
data_MOF--net-wjg--node1-NAHDIM_clean_sbu_0--edge1-XUDNAN_clean_linker_2
_symmetry_space_group_name_H-M    P1
_symmetry_Int_Tables_number       1
_symmetry_cell_setting            triclinic
loop_
_symmetry_equiv_pos_as_xyz
'x, y, z'
_cell_length_a     34.027154
_cell_length_b     34.000845
_cell_length_c     38.211043
_cell_angle_alpha  90.065836
_cell_angle_beta   89.972641
_cell_angle_gamma 120.07512
loop_
_atom_site_label
_atom_site_type_symbol
_atom_site_fract_x
_atom_site_fract_y
_atom_site_fract_z
_atom_type_partial_charge
C0 C 0.10169 0.41612 0.27811 0.0
O1 O 0.13753 0.45637 0.28327 0.0
O2 O 0.20392 0.44585 0.32266 0.0
Zn3 Zn 0.14352 0.38966 0.33202 0.0
O4 O 0.15222 0.33546 0.3298 0.0
C5 C 0.14805 0.43686 0.39385 0.0
O6 O 0.15985 0.47005 0.37128 0.0
O7 O 0.09607 0.38298 0.29708 0.0
C8 C 0.17693 0.33271 0.35352 0.0
O9 O 0.19412 0.36428 0.37784 0.0
C10 C 0.23986 0.44684 0.31225 0.0
O11 O 0.23809 0.40898 0.30239 0.0
O12 O 0.13051 0.39644 0.38233 0.0
C13 C 0.68504 0.10785 0.58904 0.0
O14 O 0.70043 0.15092 0.58197 0.0
O15 O 0.73359 0.20426 0.64215 0.0
Zn16 Zn 0.73692 0.14793 0.6511 0.0
O17 O 0.80181 0.16252 0.64668 0.0
C18 C 0.74784 0.13947 0.72497 0.0
O19 O 0.7833 0.13679 0.71482 0.0
O20 O 0.69573 0.09719 0.61799 0.0
C21 C 0.83239 0.19731 0.63089 0.0
O22 O 0.82105 0.22356 0.61367 0.0
C23 C 0.69573 0.20218 0.64753 0.0
O24 O 0.66 0.16278 0.65518 0.0
O25 O 0.71942 0.13676 0.7021 0.0
C26 C 0.61096 0.72842 0.91866 0.0
O27 O 0.60737 0.76193 0.90499 0.0
O28 O 0.53529 0.76263 0.964 0.0
Zn29 Zn 0.59316 0.76486 0.97903 0.0
O30 O 0.6462 0.82811 0.97418 0.0
C31 C 0.54647 0.72683 0.04365 0.0
O32 O 0.51317 0.70082 0.02236 0.0
O33 O 0.60528 0.72146 0.95145 0.0
C34 C 0.64612 0.85838 0.95481 0.0
O35 O 0.61037 0.84796 0.93536 0.0
C36 C 0.50178 0.72774 0.95053 0.0
O37 O 0.50654 0.69306 0.94149 0.0
O38 O 0.5857 0.75301 0.03101 0.0
C39 C 0.88264 0.61507 0.26879 0.0
O40 O 0.8403 0.60597 0.26775 0.0
O41 O 0.80852 0.58488 0.34452 0.0
Zn42 Zn 0.87282 0.63624 0.33924 0.0
O43 O 0.86755 0.69209 0.33373 0.0
C44 C 0.88685 0.5985 0.39853 0.0
O45 O 0.88563 0.56661 0.37835 0.0
O46 O 0.90438 0.62827 0.29748 0.0
C47 C 0.87553 0.72004 0.35855 0.0
O48 O 0.89203 0.71495 0.38818 0.0
C49 C 0.79354 0.5432 0.33769 0.0
O50 O 0.82039 0.53072 0.32281 0.0
O51 O 0.90167 0.63771 0.38537 0.0
C52 C 0.29972 0.88028 0.57899 0.0
O53 O 0.28641 0.83716 0.5739 0.0
O54 O 0.26598 0.79463 0.64492 0.0
Zn55 Zn 0.24725 0.8419 0.64006 0.0
O56 O 0.18321 0.80925 0.62175 0.0
C57 C 0.26691 0.85711 0.71309 0.0
O58 O 0.29985 0.84937 0.7046 0.0
O59 O 0.28791 0.89185 0.60697 0.0
C60 C 0.1531 0.81645 0.63498 0.0
O61 O 0.16505 0.84855 0.65862 0.0
C62 C 0.23946 0.76009 0.66316 0.0
O63 O 0.20225 0.75721 0.67595 0.0
O64 O 0.24463 0.8627 0.68889 0.0
C65 C 0.38682 0.25267 0.91776 0.0
O66 O 0.367 0.20911 0.91036 0.0
O67 O 0.45758 0.21032 0.97419 0.0
Zn68 Zn 0.40557 0.22157 0.98197 0.0
O69 O 0.3483 0.16066 0.97952 0.0
C70 C 0.4563 0.27009 0.0413 0.0
O71 O 0.48819 0.28817 0.01732 0.0
O72 O 0.40596 0.26649 0.94736 0.0
C73 C 0.31985 0.14546 0.00453 0.0
O74 O 0.32463 0.17241 0.03083 0.0
C75 C 0.45579 0.1791 0.99363 0.0
O76 O 0.41931 0.1549 0.0127 0.0
O77 O 0.41549 0.24401 0.03166 0.0
C78 C 0.58227 0.8701 0.41243 0.0
O79 O 0.59267 0.83958 0.42278 0.0
O80 O 0.53927 0.7644 0.35635 0.0
Zn81 Zn 0.58354 0.83056 0.34786 0.0
O82 O 0.64598 0.83982 0.35524 0.0
C83 C 0.53714 0.82358 0.28375 0.0
O84 O 0.50224 0.809 0.30498 0.0
O85 O 0.57456 0.87218 0.38013 0.0
C86 C 0.662 0.82503 0.33198 0.0
O87 O 0.63771 0.80553 0.30387 0.0
C88 C 0.4985 0.74767 0.36669 0.0
O89 O 0.48375 0.77504 0.37651 0.0
O90 O 0.57668 0.84002 0.29672 0.0
C91 C 0.71242 0.5954 0.73625 0.0
O92 O 0.72896 0.56801 0.73943 0.0
O93 O 0.71523 0.52344 0.67125 0.0
Zn94 Zn 0.7368 0.5904 0.66655 0.0
O95 O 0.8052 0.6255 0.66582 0.0
C96 C 0.6954 0.56583 0.59897 0.0
O97 O 0.66789 0.52711 0.61446 0.0
O98 O 0.7119 0.61105 0.70612 0.0
C99 C 0.82283 0.61582 0.64024 0.0
O100 O 0.79607 0.58338 0.61852 0.0
C101 C 0.74053 0.50769 0.68044 0.0
O102 O 0.78257 0.53573 0.69011 0.0
O103 O 0.72033 0.60025 0.61791 0.0
C104 C 0.08887 0.68104 0.07185 0.0
O105 O 0.13062 0.70727 0.08307 0.0
O106 O 0.18314 0.70271 0.00854 0.0
Zn107 Zn 0.13384 0.71937 0.00817 0.0
O108 O 0.15806 0.78427 0.02337 0.0
C109 C 0.13161 0.70482 0.93392 0.0
O110 O 0.15059 0.68083 0.94273 0.0
O111 O 0.08115 0.6788 0.03915 0.0
C112 C 0.18271 0.81503 0.00152 0.0
O113 O 0.19388 0.80323 0.97204 0.0
C114 C 0.22434 0.72992 0.01659 0.0
O115 O 0.23559 0.76983 0.02991 0.0
O116 O 0.1157 0.71891 0.95783 0.0
C117 C 0.42006 0.13155 0.41147 0.0
O118 O 0.42024 0.16666 0.42605 0.0
O119 O 0.49449 0.24363 0.37036 0.0
Zn120 Zn 0.43743 0.18862 0.35367 0.0
O121 O 0.38413 0.19742 0.36175 0.0
C122 C 0.48303 0.20557 0.28743 0.0
O123 O 0.519 0.22123 0.30765 0.0
O124 O 0.42755 0.13253 0.3788 0.0
C125 C 0.34747 0.17331 0.34497 0.0
O126 O 0.34452 0.14141 0.32384 0.0
C127 C 0.496 0.27773 0.38533 0.0
O128 O 0.45796 0.27631 0.39403 0.0
O129 O 0.44382 0.18624 0.30138 0.0
C130 C 0.32186 0.4129 0.73367 0.0
O131 O 0.33467 0.45615 0.73045 0.0
O132 O 0.2677 0.46683 0.69558 0.0
Zn133 Zn 0.25402 0.40341 0.6838 0.0
O134 O 0.18695 0.35962 0.68781 0.0
C135 C 0.29155 0.44245 0.61731 0.0
O136 O 0.31815 0.47794 0.63666 0.0
O137 O 0.28909 0.38388 0.71507 0.0
C138 C 0.16182 0.3643 0.66553 0.0
O139 O 0.18049 0.39824 0.64325 0.0
C140 C 0.24088 0.47865 0.7087 0.0
O141 O 0.20023 0.44731 0.71894 0.0
O142 O 0.26691 0.40441 0.63224 0.0
C143 C 0.89736 0.29518 0.07608 0.0
O144 O 0.86814 0.25194 0.08136 0.0
O145 O 0.78807 0.26113 0.02421 0.0
Zn146 Zn 0.85018 0.27229 0.0114 0.0
O147 O 0.84481 0.2106 0.00786 0.0
C148 C 0.83482 0.30516 0.94701 0.0
O149 O 0.80969 0.31565 0.96664 0.0
O150 O 0.89712 0.31277 0.04679 0.0
C151 C 0.81662 0.18577 0.98446 0.0
O152 O 0.79549 0.20234 0.96625 0.0
C153 C 0.7592 0.22578 0.04048 0.0
O154 O 0.77175 0.19803 0.05349 0.0
O155 O 0.86239 0.29549 0.9618 0.0
H156 H 0.25523 0.52856 0.33811 0.0
H157 H 0.32456 0.46032 0.29716 0.0
H158 H 0.39849 0.52876 0.30972 0.0
H159 H 0.33357 0.63988 0.30454 0.0
H160 H 0.32892 0.6688 0.34251 0.0
H161 H 0.28186 0.61455 0.3298 0.0
H162 H 0.28116 0.58335 0.39168 0.0
H163 H 0.32889 0.63711 0.40454 0.0
H164 H 0.33185 0.58582 0.40844 0.0
H165 H 0.46462 0.60407 0.32752 0.0
H166 H 0.51852 0.68302 0.34489 0.0
H167 H 0.4057 0.70178 0.37446 0.0
C168 C 0.2859 0.52804 0.33144 0.0
C169 C 0.28409 0.48906 0.31655 0.0
C170 C 0.32509 0.48982 0.30845 0.0
C171 C 0.36723 0.52843 0.31566 0.0
C172 C 0.36772 0.56589 0.33099 0.0
C173 C 0.32815 0.56615 0.3385 0.0
C174 C 0.33797 0.61086 0.35465 0.0
C175 C 0.3195 0.63494 0.33149 0.0
C176 C 0.31884 0.60385 0.39205 0.0
C177 C 0.38936 0.63595 0.35479 0.0
C178 C 0.40581 0.60927 0.34129 0.0
C179 C 0.45215 0.62528 0.33815 0.0
C180 C 0.48249 0.67018 0.3482 0.0
C181 C 0.46638 0.69867 0.36109 0.0
C182 C 0.41915 0.68085 0.36499 0.0
H183 H 0.766 0.2892 0.65501 0.0
H184 H 0.61933 0.20948 0.64504 0.0
H185 H 0.61455 0.2792 0.65263 0.0
H186 H 0.76708 0.36165 0.7224 0.0
H187 H 0.81716 0.4115 0.70657 0.0
H188 H 0.80937 0.35593 0.69808 0.0
H189 H 0.8179 0.37243 0.63145 0.0
H190 H 0.82625 0.42826 0.63974 0.0
H191 H 0.782 0.39021 0.61034 0.0
H192 H 0.62598 0.35759 0.66187 0.0
H193 H 0.65272 0.43892 0.67222 0.0
H194 H 0.7915 0.46607 0.67895 0.0
C195 C 0.73292 0.28648 0.65387 0.0
C196 C 0.69302 0.24407 0.64914 0.0
C197 C 0.65031 0.24174 0.64851 0.0
C198 C 0.64726 0.2811 0.65282 0.0
C199 C 0.68722 0.32229 0.65804 0.0
C200 C 0.72922 0.32523 0.6586 0.0
C201 C 0.76685 0.37326 0.66594 0.0
C202 C 0.79155 0.3757 0.70029 0.0
C203 C 0.80021 0.39215 0.63502 0.0
C204 C 0.73946 0.39695 0.66935 0.0
C205 C 0.69364 0.36705 0.66454 0.0
C206 C 0.66177 0.38131 0.66579 0.0
C207 C 0.67726 0.4275 0.67173 0.0
C208 C 0.72412 0.45869 0.67665 0.0
C209 C 0.75542 0.44296 0.67574 0.0
H210 H 0.47785 0.78476 0.98261 0.0
H211 H 0.42175 0.65748 0.92537 0.0
H212 H 0.34426 0.64345 0.93687 0.0
H213 H 0.39569 0.74447 0.04965 0.0
H214 H 0.39378 0.79631 0.05368 0.0
H215 H 0.44492 0.79819 0.03881 0.0
H216 H 0.44452 0.8402 0.98235 0.0
H217 H 0.39385 0.83925 0.99731 0.0
H218 H 0.39452 0.81582 0.95512 0.0
H219 H 0.27289 0.64155 0.95742 0.0
H220 H 0.21305 0.65456 0.98149 0.0
H221 H 0.31644 0.7827 0.02591 0.0
C222 C 0.44939 0.75432 0.97185 0.0
C223 C 0.45591 0.72229 0.9529 0.0
C224 C 0.41761 0.6826 0.9398 0.0
C225 C 0.37347 0.67425 0.94633 0.0
C226 C 0.36829 0.70589 0.96603 0.0
C227 C 0.40523 0.74533 0.9783 0.0
C228 C 0.39054 0.77328 -0.00036 0.0
C229 C 0.40722 0.77834 0.03769 0.0
C230 C 0.40681 0.81989 0.98257 0.0
C231 C 0.33947 0.74345 0.9974 0.0
C232 C 0.32731 0.70465 0.97804 0.0
C233 C 0.28202 0.6719 0.9725 0.0
C234 C 0.24827 0.67953 0.98645 0.0
C235 C 0.25999 0.71967 0.00563 0.0
C236 C 0.30628 0.75163 0.01149 0.0
H237 H 0.57731 0.2961 0.35713 0.0
H238 H 0.51321 0.35734 0.41696 0.0
H239 H 0.58407 0.43171 0.41364 0.0
H240 H 0.69253 0.3653 0.39318 0.0
H241 H 0.71877 0.36831 0.35152 0.0
H242 H 0.66485 0.31931 0.36223 0.0
H243 H 0.63021 0.33123 0.30558 0.0
H244 H 0.68378 0.38055 0.29492 0.0
H245 H 0.63335 0.3851 0.2982 0.0
H246 H 0.65974 0.50025 0.39972 0.0
H247 H 0.73514 0.55756 0.37769 0.0
H248 H 0.74869 0.45119 0.32589 0.0
C249 C 0.57836 0.32486 0.37024 0.0
C250 C 0.53975 0.32086 0.38748 0.0
C251 C 0.54243 0.35957 0.40376 0.0
C252 C 0.5825 0.40193 0.40199 0.0
C253 C 0.61947 0.40488 0.38388 0.0
C254 C 0.61783 0.3673 0.36851 0.0
C255 C 0.66111 0.37994 0.34872 0.0
C256 C 0.68577 0.35685 0.36489 0.0
C257 C 0.65151 0.36853 0.30954 0.0
C258 C 0.68714 0.43071 0.35482 0.0
C259 C 0.66269 0.4444 0.37537 0.0
C260 C 0.67927 0.48989 0.38376 0.0
C261 C 0.72203 0.52221 0.3709 0.0
C262 C 0.74772 0.50889 0.34985 0.0
C263 C 0.72991 0.46247 0.34186 0.0
H264 H 0.18636 0.67951 0.69691 0.0
H265 H 0.31798 0.75993 0.64731 0.0
H266 H 0.33594 0.69941 0.65994 0.0
H267 H 0.22263 0.62911 0.76549 0.0
H268 H 0.17118 0.57472 0.76285 0.0
H269 H 0.17005 0.62596 0.75298 0.0
H270 H 0.13529 0.59399 0.69212 0.0
H271 H 0.13564 0.54241 0.70177 0.0
H272 H 0.16372 0.57447 0.66305 0.0
H273 H 0.33754 0.62852 0.67442 0.0
H274 H 0.3211 0.55054 0.68622 0.0
H275 H 0.1877 0.51568 0.7255 0.0
C276 C 0.2192 0.68468 0.68902 0.0
C277 C 0.25082 0.72446 0.67115 0.0
C278 C 0.29322 0.7297 0.66101 0.0
C279 C 0.30383 0.69566 0.66826 0.0
C280 C 0.27173 0.65672 0.68572 0.0
C281 C 0.23022 0.651 0.69588 0.0
C282 C 0.20039 0.60461 0.71196 0.0
C283 C 0.1905 0.60887 0.75062 0.0
C284 C 0.15617 0.57727 0.69096 0.0
C285 C 0.23112 0.58456 0.70833 0.0
C286 C 0.2724 0.61549 0.6937 0.0
C287 C 0.30552 0.60415 0.68619 0.0
C288 C 0.29581 0.55969 0.693 0.0
C289 C 0.25307 0.52692 0.70682 0.0
C290 C 0.22081 0.53999 0.71528 0.0
H291 H 0.721 0.27063 0.00838 0.0
H292 H 0.68741 0.14945 0.06857 0.0
H293 H 0.60582 0.12267 0.06062 0.0
H294 H 0.62931 0.28573 0.04089 0.0
H295 H 0.62054 0.30497 0.99925 0.0
H296 H 0.67607 0.31489 0.01086 0.0
H297 H 0.67783 0.27426 0.95386 0.0
H298 H 0.62197 0.26356 0.9424 0.0
H299 H 0.63288 0.21698 0.94542 0.0
H300 H 0.52819 0.10846 0.04521 0.0
H301 H 0.45958 0.11025 0.02697 0.0
H302 H 0.54405 0.24015 0.97599 0.0
C303 C 0.69657 0.23871 0.02029 0.0
C304 C 0.71061 0.21217 0.03919 0.0
C305 C 0.67747 0.17045 0.05411 0.0
C306 C 0.63106 0.15484 0.04959 0.0
C307 C 0.61845 0.18135 0.03009 0.0
C308 C 0.6502 0.22258 0.01597 0.0
C309 C 0.62771 0.24451 0.99609 0.0
C310 C 0.63908 0.29022 0.01278 0.0
C311 C 0.64089 0.25014 0.95714 0.0
C312 C 0.57826 0.20913 0.00126 0.0
C313 C 0.57369 0.17292 0.02086 0.0
C314 C 0.53132 0.13659 0.02981 0.0
C315 C 0.49257 0.13788 0.01924 0.0
C316 C 0.49649 0.17521 -9e-05 0.0
C317 C 0.53994 0.21084 0.99029 0.0
H318 H 0.24337 0.3296 0.39122 0.0
H319 H 0.14195 0.25763 0.31092 0.0
H320 H 0.16953 0.20313 0.30462 0.0
H321 H 0.33082 0.32372 0.34968 0.0
H322 H 0.35583 0.31674 0.38906 0.0
H323 H 0.32407 0.34594 0.39069 0.0
H324 H 0.2715 0.29012 0.43836 0.0
H325 H 0.30327 0.26075 0.43696 0.0
H326 H 0.2427 0.2298 0.43011 0.0
H327 H 0.21264 0.16086 0.30346 0.0
H328 H 0.26936 0.13589 0.30596 0.0
H329 H 0.3433 0.23701 0.38615 0.0
C330 C 0.22624 0.3018 0.37284 0.0
C331 C 0.19032 0.29763 0.35172 0.0
C332 C 0.16943 0.26132 0.32747 0.0
C333 C 0.18474 0.23013 0.32381 0.0
C334 C 0.22087 0.23577 0.3446 0.0
C335 C 0.24131 0.27071 0.36866 0.0
C336 C 0.28204 0.27186 0.38561 0.0
C337 C 0.32575 0.31724 0.3783 0.0
C338 C 0.2744 0.26256 0.4251 0.0
C339 C 0.2821 0.23284 0.36665 0.0
C340 C 0.24618 0.21198 0.3435 0.0
C341 C 0.2406 0.17657 0.32179 0.0
C342 C 0.27301 0.16265 0.32339 0.0
C343 C 0.31074 0.18446 0.34627 0.0
C344 C 0.3147 0.21944 0.36855 0.0
H345 H 0.90714 0.27073 0.60224 0.0
H346 H 0.86709 0.15658 0.67257 0.0
H347 H 0.94745 0.18525 0.68734 0.0
H348 H 0.01329 0.277 0.57137 0.0
H349 H 0.04312 0.33818 0.56954 0.0
H350 H 0.9827 0.30638 0.56209 0.0
H351 H 0.97101 0.35196 0.61142 0.0
H352 H 0.03125 0.3835 0.61925 0.0
H353 H 0.99287 0.35298 0.65459 0.0
H354 H 0.03134 0.23002 0.69872 0.0
H355 H 0.11354 0.28522 0.7027 0.0
H356 H 0.09881 0.36917 0.62416 0.0
C357 C 0.91528 0.25128 0.62024 0.0
C358 C 0.88076 0.21141 0.63624 0.0
C359 C 0.8929 0.18714 0.65987 0.0
C360 C 0.93848 0.20317 0.66848 0.0
C361 C 0.97156 0.24322 0.65296 0.0
C362 C 0.96063 0.26663 0.62896 0.0
C363 C 0.00254 0.30969 0.61703 0.0
C364 C 0.0109 0.30767 0.57767 0.0
C365 C -0.0008 0.35202 0.62613 0.0
C366 C 0.03849 0.3074 0.63877 0.0
C367 C 0.02 0.26874 0.65923 0.0
C368 C 0.04633 0.26016 0.68251 0.0
C369 C 0.09292 0.2918 0.68472 0.0
C370 C 0.1126 0.33145 0.66373 0.0
C371 C 0.08486 0.33911 0.64046 0.0
H372 H 0.75285 0.12446 0.93995 0.0
H373 H 0.85117 0.13846 0.01852 0.0
H374 H 0.8242 0.05622 0.01363 0.0
H375 H 0.66457 0.0241 0.97089 0.0
H376 H 0.64132 0.00025 0.9286 0.0
H377 H 0.67312 0.06088 0.93422 0.0
H378 H 0.72706 0.067 0.88427 0.0
H379 H 0.69622 0.00623 0.87854 0.0
H380 H 0.7565 0.03536 0.88677 0.0
H381 H 0.78072 0.97156 0.00493 0.0
H382 H 0.72331 0.89125 0.99452 0.0
H383 H 0.65294 0.93328 0.92223 0.0
C384 C 0.76951 0.11055 0.95561 0.0
C385 C 0.80424 0.13786 0.97954 0.0
C386 C 0.82463 0.11815 -0.0001 0.0
C387 C 0.80965 0.07155 0.99719 0.0
C388 C 0.77455 0.0454 0.97386 0.0
C389 C 0.7549 0.0643 0.95332 0.0
C390 C 0.71492 0.0284 0.93281 0.0
C391 C 0.6709 0.02842 0.94222 0.0
C392 C 0.72427 0.03463 0.89326 0.0
C393 C 0.71403 0.98606 0.94596 0.0
C394 C 0.74915 0.99658 0.96915 0.0
C395 C 0.7535 0.96294 0.98644 0.0
C396 C 0.72062 0.9174 0.98039 0.0
C397 C 0.68362 0.90596 0.95751 0.0
C398 C 0.68102 0.94084 0.93958 0.0
H399 H 0.70101 0.78918 0.28988 0.0
H400 H 0.71934 0.86017 0.38832 0.0
H401 H 0.78576 0.85174 0.40155 0.0
H402 H 0.7204 0.70708 0.32161 0.0
H403 H 0.74981 0.70316 0.2837 0.0
H404 H 0.70962 0.72236 0.27898 0.0
H405 H 0.77132 0.79651 0.24963 0.0
H406 H 0.81185 0.77743 0.25422 0.0
H407 H 0.82437 0.83166 0.27193 0.0
H408 H 0.84195 0.82512 0.40818 0.0
H409 H 0.88247 0.78188 0.40789 0.0
H410 H 0.82774 0.7291 0.30481 0.0
C411 C 0.71972 0.80411 0.31378 0.0
C412 C 0.70508 0.82542 0.33802 0.0
C413 C 0.73006 0.84383 0.36928 0.0
C414 C 0.76796 0.8394 0.37695 0.0
C415 C 0.78068 0.81693 0.35292 0.0
C416 C 0.75749 0.79992 0.32182 0.0
C417 C 0.77466 0.77285 0.30221 0.0
C418 C 0.73635 0.72346 0.29632 0.0
C419 C 0.79688 0.79602 0.26744 0.0
C420 C 0.80963 0.7754 0.32792 0.0
C421 C 0.81326 0.80166 0.35672 0.0
C422 C 0.84016 0.8053 0.38543 0.0
C423 C 0.86301 0.78055 0.38505 0.0
C424 C 0.85847 0.75228 0.35626 0.0
C425 C 0.83251 0.75093 0.32698 0.0
H426 H 0.07966 0.81236 0.66795 0.0
H427 H 0.11688 0.74869 0.58583 0.0
H428 H 0.03603 0.69135 0.57755 0.0
H429 H 0.99446 0.71097 0.70594 0.0
H430 H 0.95696 0.73247 0.71617 0.0
H431 H 0.01731 0.77082 0.71387 0.0
H432 H 0.00518 0.81955 0.66772 0.0
H433 H 0.94472 0.78164 0.67016 0.0
H434 H 0.97333 0.79287 0.62855 0.0
H435 H 0.95212 0.63843 0.58072 0.0
H436 H 0.87009 0.59504 0.59333 0.0
H437 H 0.88745 0.69318 0.67344 0.0
C438 C 0.07081 0.78687 0.64778 0.0
C439 C 0.10458 0.78511 0.62742 0.0
C440 C 0.09158 0.75079 0.60166 0.0
C441 C 0.04577 0.71805 0.59679 0.0
C442 C 0.01347 0.72017 0.61786 0.0
C443 C 0.02532 0.75385 0.64268 0.0
C444 C 0.98417 0.74745 0.66282 0.0
C445 C 0.9885 0.73998 0.70202 0.0
C446 C 0.9764 0.78777 0.65695 0.0
C447 C 0.94737 0.70463 0.64566 0.0
C448 C 0.96501 0.68954 0.61975 0.0
C449 C 0.93784 0.65014 0.60071 0.0
C450 C 0.89128 0.62576 0.60808 0.0
C451 C 0.87232 0.64096 0.63414 0.0
C452 C 0.90092 0.68076 0.65331 0.0
H453 H 0.31072 0.07918 0.9591 0.0
H454 H 0.2587 0.09975 0.05703 0.0
H455 H 0.21501 0.01665 0.06607 0.0
H456 H 0.20773 0.97301 0.93323 0.0
H457 H 0.24044 0.94942 0.91521 0.0
H458 H 0.26307 0.01 0.91479 0.0
H459 H 0.33482 0.0213 0.94738 0.0
H460 H 0.31217 0.96082 0.94842 0.0
H461 H 0.32858 0.99299 0.98859 0.0
H462 H 0.18288 0.93154 0.06699 0.0
H463 H 0.16123 0.85112 0.0578 0.0
H464 H 0.23554 0.88771 0.95965 0.0
C465 C 0.2893 0.0663 0.98205 0.0
C466 C 0.28802 0.09601 0.0073 0.0
C467 C 0.26003 0.07765 0.03722 0.0
C468 C 0.23518 0.03049 0.04263 0.0
C469 C 0.23854 0.00227 0.0178 0.0
C470 C 0.2645 0.0195 0.9879 0.0
C471 C 0.26456 0.98232 0.9662 0.0
C472 C 0.24263 0.97846 0.93023 0.0
C473 C 0.3129 0.98982 0.96245 0.0
C474 C 0.23523 0.94152 0.98883 0.0
C475 C 0.22035 0.95357 0.01842 0.0
C476 C 0.19394 0.92165 0.04372 0.0
C477 C 0.18202 0.87613 0.03836 0.0
C478 C 0.19664 0.86313 0.008 0.0
C479 C 0.22367 0.89645 0.98309 0.0
H480 H 0.911 0.26521 0.13885 0.0
H481 H 0.95681 0.38727 0.07659 0.0
H482 H 0.01071 0.43262 0.12349 0.0
H483 H 0.91878 0.31682 0.22375 0.0
H484 H 0.93872 0.28303 0.2454 0.0
H485 H 0.90218 0.26072 0.20774 0.0
H486 H 0.96175 0.24649 0.17678 0.0
H487 H 0.99833 0.26854 0.21437 0.0
H488 H 0.01914 0.29288 0.17178 0.0
H489 H 0.0614 0.46409 0.17659 0.0
H490 H 0.1072 0.47867 0.2302 0.0
H491 H 0.02813 0.33558 0.25714 0.0
C492 C 0.9321 0.30153 0.1351 0.0
C493 C 0.9296 0.32272 0.10406 0.0
C494 C 0.95813 0.37029 0.10014 0.0
C495 C 0.98872 0.39635 0.12669 0.0
C496 C 0.99032 0.37431 0.15695 0.0
C497 C 0.96284 0.32795 0.16121 0.0
C498 C 0.97243 0.31213 0.19551 0.0
C499 C 0.93053 0.29199 0.21952 0.0
C500 C 0.9889 0.27801 0.18922 0.0
C501 C 0.01009 0.35675 0.20973 0.0
C502 C 0.01965 0.3923 0.18729 0.0
C503 C 0.05405 0.43654 0.19442 0.0
C504 C 0.07985 0.44448 0.22499 0.0
C505 C 0.07128 0.4083 0.24794 0.0
C506 C 0.03542 0.36405 0.2403 0.0
H507 H 0.6693 0.02045 0.58477 0.0
H508 H 0.64173 0.11727 0.53243 0.0
H509 H 0.60376 0.0625 0.48445 0.0
H510 H 0.69903 0.98367 0.51017 0.0
H511 H 0.67392 0.92499 0.52313 0.0
H512 H 0.69267 0.96873 0.55591 0.0
H513 H 0.6123 0.92852 0.58356 0.0
H514 H 0.59328 0.88448 0.55084 0.0
H515 H 0.56371 0.9156 0.55672 0.0
H516 H 0.57645 0.00114 0.43927 0.0
H517 H 0.56315 0.93815 0.39973 0.0
H518 H 0.60902 0.8814 0.48106 0.0
C519 C 0.65423 0.02962 0.56366 0.0
C520 C 0.65823 0.073 0.56241 0.0
C521 C 0.63901 0.08419 0.53394 0.0
C522 C 0.61717 0.05322 0.50664 0.0
C523 C 0.61474 0.01115 0.50819 0.0
C524 C 0.6326 -0.00079 0.53602 0.0
C525 C 0.6292 0.9536 0.52976 0.0
C526 C 0.67651 0.95805 0.52973 0.0
C527 C 0.59774 0.91847 0.55683 0.0
C528 C 0.60807 0.94255 0.49362 0.0
C529 C 0.59933 0.97582 0.48187 0.0
C530 C 0.58252 0.97452 0.44837 0.0
C531 C 0.57516 0.93864 0.42606 0.0
C532 C 0.58491 0.90476 0.4373 0.0
C533 C 0.60073 0.90645 0.47178 0.0
H534 H 0.62585 0.73594 0.84789 0.0
H535 H 0.6239 0.65823 0.93866 0.0
H536 H 0.6473 0.61414 0.90133 0.0
H537 H 0.58298 0.6428 0.78536 0.0
H538 H 0.61887 0.67818 0.75043 0.0
H539 H 0.60019 0.70229 0.78406 0.0
H540 H 0.68387 0.76256 0.79738 0.0
H541 H 0.70282 0.73859 0.76389 0.0
H542 H 0.72383 0.74423 0.80798 0.0
H543 H 0.6741 0.58098 0.85471 0.0
H544 H 0.70113 0.55991 0.80199 0.0
H545 H 0.68499 0.6589 0.7414 0.0
C546 C 0.62998 0.70942 0.85994 0.0
C547 C 0.62302 0.70052 0.89623 0.0
C548 C 0.62897 0.66563 0.91093 0.0
C549 C 0.64225 0.6404 0.88994 0.0
C550 C 0.64924 0.65039 0.85433 0.0
C551 C 0.64313 0.68392 0.8394 0.0
C552 C 0.65382 0.6886 0.80061 0.0
C553 C 0.61144 0.67728 0.77884 0.0
C554 C 0.69344 0.73632 0.79198 0.0
C555 C 0.66741 0.65278 0.7961 0.0
C556 C 0.66443 0.63108 0.82739 0.0
C557 C 0.67631 0.59754 0.83002 0.0
C558 C 0.69173 0.58589 0.7999 0.0
C559 C 0.69512 0.60769 0.76751 0.0
C560 C 0.68253 0.64142 0.76569 0.0
H561 H 0.09389 0.68577 0.14337 0.0
H562 H 0.99807 0.627 0.05752 0.0
H563 H 0.93453 0.59702 0.09966 0.0
H564 H 0.028 0.59454 0.20799 0.0
H565 H 0.0443 0.63455 0.24359 0.0
H566 H 0.0822 0.64636 0.2071 0.0
H567 H 0.08524 0.72326 0.19732 0.0
H568 H 0.04724 0.71163 0.23356 0.0
H569 H 0.03305 0.72392 0.19107 0.0
H570 H 0.88157 0.581 0.15027 0.0
H571 H 0.84317 0.57885 0.20564 0.0
H572 H 0.97363 0.64761 0.25848 0.0
C573 C 0.0596 0.66576 0.13343 0.0
C574 C 0.05098 0.65865 0.09712 0.0
C575 C 0.00555 0.63276 0.08521 0.0
C576 C 0.96922 0.61552 0.10896 0.0
C577 C 0.97891 0.62414 0.14451 0.0
C578 C 0.02301 0.64833 0.15674 0.0
C579 C 0.02424 0.65564 0.19592 0.0
C580 C 0.04597 0.63131 0.21476 0.0
C581 C 0.04889 0.70663 0.20497 0.0
C582 C 0.97394 0.63309 0.20368 0.0
C583 C 0.94834 0.61471 0.17375 0.0
C584 C 0.90122 0.59465 0.17397 0.0
C585 C 0.87973 0.59374 0.20554 0.0
C586 C 0.90537 0.61288 0.23643 0.0
C587 C 0.95303 0.63216 0.23545 0.0
H588 H 0.39477 0.11665 0.48031 0.0
H589 H 0.41955 0.05412 0.39025 0.0
H590 H 0.39693 0.98472 0.42501 0.0
H591 H 0.43348 0.06647 0.54725 0.0
H592 H 0.38991 0.05915 0.57776 0.0
H593 H 0.41178 0.10516 0.54668 0.0
H594 H 0.33015 0.07721 0.52406 0.0
H595 H 0.30806 0.03117 0.55499 0.0
H596 H 0.29613 0.01942 0.509 0.0
H597 H 0.36683 0.92054 0.46842 0.0
H598 H 0.33041 0.86596 0.51674 0.0
H599 H 0.32507 0.9707 0.57818 0.0
C600 C 0.39608 0.08865 0.46797 0.0
C601 C 0.40907 0.09086 0.43258 0.0
C602 C 0.40981 0.05323 0.41736 0.0
C603 C 0.39714 0.01373 0.43691 0.0
C604 C 0.38399 0.01251 0.47163 0.0
C605 C 0.38347 0.04903 0.48704 0.0
C606 C 0.3656 0.03825 0.52416 0.0
C607 C 0.40239 0.06909 0.55051 0.0
C608 C 0.32242 0.04171 0.52827 0.0
C609 C 0.35516 0.98958 0.52699 0.0
C610 C 0.36643 0.9755 0.49656 0.0
C611 C 0.35823 0.9313 0.49248 0.0
C612 C 0.33747 0.90054 0.52008 0.0
C613 C 0.32493 0.91405 0.55129 0.0
C614 C 0.33453 0.95938 0.55481 0.0
H615 H 0.34023 0.23275 0.8557 0.0
H616 H 0.43156 0.34569 0.92204 0.0
H617 H 0.42895 0.39937 0.87989 0.0
H618 H 0.38468 0.28944 0.77192 0.0
H619 H 0.32935 0.26339 0.7518 0.0
H620 H 0.34078 0.23405 0.78601 0.0
H621 H 0.27245 0.22658 0.82153 0.0
H622 H 0.26077 0.25577 0.78745 0.0
H623 H 0.26966 0.27692 0.83171 0.0
H624 H 0.41419 0.4405 0.83163 0.0
H625 H 0.38571 0.4659 0.78229 0.0
H626 H 0.30297 0.3259 0.74799 0.0
C627 C 0.36007 0.26879 0.86124 0.0
C628 C 0.38624 0.28502 0.89213 0.0
C629 C 0.4113 0.33244 0.89854 0.0
C630 C 0.41017 0.36321 0.8747 0.0
C631 C 0.38384 0.34603 0.84459 0.0
C632 C 0.35916 0.29993 0.83783 0.0
C633 C 0.33186 0.29013 0.80441 0.0
C634 C 0.34762 0.26794 0.77691 0.0
C635 C 0.28066 0.26062 0.81173 0.0
C636 C 0.34436 0.33789 0.79375 0.0
C637 C 0.37482 0.36967 0.81704 0.0
C638 C 0.39052 0.41593 0.81313 0.0
C639 C 0.37415 0.43002 0.78496 0.0
C640 C 0.34209 0.39793 0.76122 0.0
C641 C 0.32757 0.35132 0.76556 0.0
H642 H 0.13667 0.3768 0.44643 0.0
H643 H 0.20826 0.52049 0.42046 0.0
H644 H 0.25521 0.53677 0.47339 0.0
H645 H 0.13721 0.39284 0.54226 0.0
H646 H 0.14461 0.34492 0.55112 0.0
H647 H 0.11462 0.34536 0.51243 0.0
H648 H 0.16994 0.3317 0.47448 0.0
H649 H 0.20084 0.33242 0.51294 0.0
H650 H 0.23015 0.37089 0.47736 0.0
H651 H 0.29875 0.5368 0.52624 0.0
H652 H 0.32803 0.52229 0.58079 0.0
H653 H 0.22733 0.37877 0.5731 0.0
C654 C 0.16143 0.41183 0.4523 0.0
C655 C 0.16878 0.44734 0.42917 0.0
C656 C 0.2018 0.49268 0.43775 0.0
C657 C 0.22892 0.50228 0.46767 0.0
C658 C 0.22217 0.46627 0.48904 0.0
C659 C 0.18853 0.42209 0.48226 0.0
C660 C 0.1885 0.38963 0.50942 0.0
C661 C 0.14359 0.36686 0.53003 0.0
C662 C 0.19792 0.35407 0.49253 0.0
C663 C 0.22783 0.42242 0.53219 0.0
C664 C 0.24694 0.46639 0.51983 0.0
C665 C 0.28383 0.50257 0.53637 0.0
C666 C 0.30046 0.49388 0.56722 0.0
C667 C 0.28004 0.4494 0.58133 0.0
C668 C 0.24395 0.41313 0.56296 0.0
H669 H 0.86402 0.26002 0.90428 0.0
H670 H 0.76952 0.3106 0.90879 0.0
H671 H 0.73365 0.2695 0.8541 0.0
H672 H 0.8775 0.26381 0.80971 0.0
H673 H 0.87981 0.212 0.80872 0.0
H674 H 0.89936 0.24804 0.84679 0.0
H675 H 0.84411 0.17948 0.88515 0.0
H676 H 0.82321 0.14343 0.84709 0.0
H677 H 0.78432 0.14989 0.87525 0.0
H678 H 0.70527 0.21913 0.80074 0.0
H679 H 0.69322 0.17201 0.74832 0.0
H680 H 0.80567 0.1536 0.7796 0.0
C681 C 0.83652 0.26348 0.8934 0.0
C682 C 0.81977 0.28881 0.91084 0.0
C683 C 0.7832 0.2917 0.89585 0.0
C684 C 0.76231 0.26813 0.86495 0.0
C685 C 0.77838 0.24182 0.84938 0.0
C686 C 0.8151 0.23995 0.8628 0.0
C687 C 0.82531 0.20858 0.84147 0.0
C688 C 0.87333 0.23468 0.82573 0.0
C689 C 0.81887 0.16794 0.86355 0.0
C690 C 0.78908 0.19369 0.81353 0.0
C691 C 0.76195 0.21272 0.81883 0.0
C692 C 0.72639 0.20416 0.79626 0.0
C693 C 0.71959 0.177 0.76667 0.0
C694 C 0.74853 0.15907 0.75976 0.0
C695 C 0.78284 0.1666 0.78414 0.0
H696 H 0.60143 0.83939 0.23371 0.0
H697 H 0.45585 0.77709 0.24944 0.0
H698 H 0.44262 0.74424 0.19012 0.0
H699 H 0.6011 0.86571 0.1404 0.0
H700 H 0.64551 0.85338 0.13008 0.0
H701 H 0.64324 0.87454 0.17283 0.0
H702 H 0.64258 0.80488 0.20095 0.0
H703 H 0.64389 0.783 0.15829 0.0
H704 H 0.5991 0.74841 0.18857 0.0
H705 H 0.44494 0.71301 0.13124 0.0
H706 H 0.46273 0.69331 0.07357 0.0
H707 H 0.60687 0.77669 0.09576 0.0
C708 C 0.56677 0.81966 0.22445 0.0
C709 C 0.52967 0.81085 0.24629 0.0
C710 C 0.48485 0.7845 0.23321 0.0
C711 C 0.47695 0.76545 0.1996 0.0
C712 C 0.51422 0.77335 0.17931 0.0
C713 C 0.55826 0.80049 0.19095 0.0
C714 C 0.59228 0.80305 0.16413 0.0
C715 C 0.62229 0.85208 0.15108 0.0
C716 C 0.62115 0.78368 0.17888 0.0
C717 C 0.56043 0.7727 0.13575 0.0
C718 C 0.51557 0.75572 0.14515 0.0
C719 C 0.47994 0.72635 0.12347 0.0
C720 C 0.49045 0.71507 0.09085 0.0
C721 C 0.53622 0.73338 0.08011 0.0
C722 C 0.57156 0.76204 0.1032 0.0
H723 H 0.88085 0.65294 0.4487 0.0
H724 H 0.81496 0.51333 0.41188 0.0
H725 H 0.75284 0.49264 0.45405 0.0
H726 H 0.85604 0.62512 0.53823 0.0
H727 H 0.84689 0.67165 0.54864 0.0
H728 H 0.88466 0.67715 0.51359 0.0
H729 H 0.83897 0.69657 0.4699 0.0
H730 H 0.80087 0.6919 0.50453 0.0
H731 H 0.77874 0.65853 0.46523 0.0
H732 H 0.69816 0.4868 0.50049 0.0
H733 H 0.66148 0.49322 0.55411 0.0
H734 H 0.76386 0.63613 0.56197 0.0
C735 C 0.85343 0.61798 0.44962 0.0
C736 C 0.8528 0.58486 0.42689 0.0
C737 C 0.81648 0.53935 0.42912 0.0
C738 C 0.78069 0.52733 0.45273 0.0
C739 C 0.78187 0.56104 0.47419 0.0
C740 C 0.81768 0.60525 0.4733 0.0
C741 C 0.8124 0.63422 0.50095 0.0
C742 C 0.85235 0.65317 0.52691 0.0
C743 C 0.80745 0.67258 0.48414 0.0
C744 C 0.76843 0.59915 0.51798 0.0
C745 C 0.75088 0.55742 0.50163 0.0
C746 C 0.7115 0.51932 0.51349 0.0
C747 C 0.69074 0.52341 0.54391 0.0
C748 C 0.70976 0.56514 0.56242 0.0
C749 C 0.74813 0.60383 0.54835 0.0
H750 H 0.18747 0.70327 0.88322 0.0
H751 H 0.0983 0.75688 0.90644 0.0
H752 H 0.12477 0.80382 0.85289 0.0
H753 H 0.27964 0.80551 0.85516 0.0
H754 H 0.297 0.78098 0.8209 0.0
H755 H 0.26754 0.74761 0.85869 0.0
H756 H 0.20564 0.68559 0.81898 0.0
H757 H 0.23552 0.71822 0.781 0.0
H758 H 0.17672 0.70145 0.7874 0.0
H759 H 0.16376 0.84742 0.7979 0.0
H760 H 0.20886 0.88057 0.74402 0.0
H761 H 0.27532 0.80141 0.75989 0.0
C762 C 0.17254 0.72393 0.87666 0.0
C763 C 0.14053 0.72613 0.89892 0.0
C764 C 0.12259 0.75437 0.88963 0.0
C765 C 0.1376 0.78133 0.85938 0.0
C766 C 0.17059 0.77971 0.83881 0.0
C767 C 0.18746 0.75134 0.84687 0.0
C768 C 0.2241 0.75726 0.82141 0.0
C769 C 0.26976 0.77383 0.84018 0.0
C770 C 0.20962 0.71302 0.80099 0.0
C771 C 0.22559 0.79376 0.79798 0.0
C772 C 0.19429 0.80609 0.80822 0.0
C773 C 0.1885 0.83815 0.78972 0.0
C774 C 0.21444 0.85703 0.75935 0.0
C775 C 0.2461 0.84417 0.74814 0.0
C776 C 0.25226 0.81284 0.76822 0.0
H777 H 0.41572 0.1827 0.23859 0.0
H778 H 0.5623 0.25644 0.25143 0.0
H779 H 0.5711 0.28386 0.19061 0.0
H780 H 0.41532 0.14871 0.14819 0.0
H781 H 0.36759 0.15517 0.13637 0.0
H782 H 0.37324 0.14032 0.18056 0.0
H783 H 0.36865 0.20976 0.20335 0.0
H784 H 0.36381 0.22527 0.15917 0.0
H785 H 0.40836 0.26573 0.18724 0.0
H786 H 0.56396 0.30554 0.12919 0.0
H787 H 0.5417 0.31397 0.06949 0.0
H788 H 0.39977 0.22619 0.09677 0.0
C789 C 0.44971 0.20415 0.22851 0.0
C790 C 0.48833 0.21738 0.24981 0.0
C791 C 0.53219 0.24567 0.23561 0.0
C792 C 0.53756 0.26165 0.20114 0.0
C793 C 0.49876 0.24893 0.18119 0.0
C794 C 0.45571 0.22036 0.19416 0.0
C795 C 0.41963 0.21168 0.1672 0.0
C796 C 0.39235 0.16097 0.15751 0.0
C797 C 0.38827 0.22916 0.18002 0.0
C798 C 0.44913 0.24 0.13708 0.0
C799 C 0.49465 0.26139 0.14576 0.0
C800 C 0.52842 0.28894 0.12207 0.0
C801 C 0.51538 0.29373 0.08827 0.0
C802 C 0.46897 0.27093 0.07844 0.0
C803 C 0.4355 0.24443 0.1035 0.0
loop_
_geom_bond_atom_site_label_1
_geom_bond_atom_site_label_2
_geom_bond_distance
_geom_bond_site_symmetry_2
_ccdc_geom_bond_type
C0 O1 1.160 . S
C0 O7 1.185 . S
O1 C0 1.160 . S
O2 Zn3 1.899 . S
O2 C10 1.284 . S
Zn3 O2 1.899 . S
Zn3 O4 2.032 . S
Zn3 O7 2.086 . S
Zn3 O12 1.977 . S
O4 Zn3 2.032 . S
O4 C8 1.278 . S
C5 O6 1.203 . S
C5 O12 1.267 . S
O6 C5 1.203 . S
O7 C0 1.185 . S
O7 Zn3 2.086 . S
C8 O4 1.278 . S
C8 O9 1.211 . S
O9 C8 1.211 . S
C10 O2 1.284 . S
C10 O11 1.273 . S
O11 C10 1.273 . S
O12 Zn3 1.977 . S
O12 C5 1.267 . S
C13 O14 1.160 . S
C13 O20 1.185 . S
O14 C13 1.160 . S
O15 Zn16 1.899 . S
O15 C23 1.284 . S
Zn16 O15 1.899 . S
Zn16 O17 2.032 . S
Zn16 O20 2.086 . S
Zn16 O25 1.977 . S
O17 Zn16 2.032 . S
O17 C21 1.278 . S
C18 O19 1.203 . S
C18 O25 1.267 . S
O19 C18 1.203 . S
O20 C13 1.185 . S
O20 Zn16 2.086 . S
C21 O17 1.278 . S
C21 O22 1.211 . S
O22 C21 1.211 . S
C23 O15 1.284 . S
C23 O24 1.273 . S
O24 C23 1.273 . S
O25 Zn16 1.977 . S
O25 C18 1.267 . S
C26 O27 1.160 . S
C26 O33 1.185 . S
O27 C26 1.160 . S
O28 Zn29 1.904 . S
O28 C36 1.284 . S
Zn29 O28 1.904 . S
Zn29 O30 2.045 . S
Zn29 O33 2.103 . S
Zn29 O38 1.946 1_556 S
O30 Zn29 2.045 . S
O30 C34 1.278 . S
C31 O32 1.203 . S
C31 O38 1.267 . S
O32 C31 1.203 . S
O33 C26 1.185 . S
O33 Zn29 2.103 . S
C34 O30 1.278 . S
C34 O35 1.211 1_556 S
O35 C34 1.211 1_554 S
C36 O28 1.284 . S
C36 O37 1.273 . S
O37 C36 1.273 . S
O38 Zn29 1.946 1_554 S
O38 C31 1.267 . S
C39 O40 1.160 . S
C39 O46 1.185 . S
O40 C39 1.160 . S
O41 Zn42 1.899 . S
O41 C49 1.284 . S
Zn42 O41 1.899 . S
Zn42 O43 2.032 . S
Zn42 O46 2.086 . S
Zn42 O51 1.977 . S
O43 Zn42 2.032 . S
O43 C47 1.278 . S
C44 O45 1.203 . S
C44 O51 1.267 . S
O45 C44 1.203 . S
O46 C39 1.185 . S
O46 Zn42 2.086 . S
C47 O43 1.278 . S
C47 O48 1.211 . S
O48 C47 1.211 . S
C49 O41 1.284 . S
C49 O50 1.273 . S
O50 C49 1.273 . S
O51 Zn42 1.977 . S
O51 C44 1.267 . S
C52 O53 1.160 . S
C52 O59 1.185 . S
O53 C52 1.160 . S
O54 Zn55 1.899 . S
O54 C62 1.284 . S
Zn55 O54 1.899 . S
Zn55 O56 2.032 . S
Zn55 O59 2.086 . S
Zn55 O64 1.977 . S
O56 Zn55 2.032 . S
O56 C60 1.278 . S
C57 O58 1.203 . S
C57 O64 1.267 . S
O58 C57 1.203 . S
O59 C52 1.185 . S
O59 Zn55 2.086 . S
C60 O56 1.278 . S
C60 O61 1.211 . S
O61 C60 1.211 . S
C62 O54 1.284 . S
C62 O63 1.273 . S
O63 C62 1.273 . S
O64 Zn55 1.977 . S
O64 C57 1.267 . S
C65 O66 1.160 . S
C65 O72 1.185 . S
O66 C65 1.160 . S
O67 Zn68 1.904 . S
O67 C75 1.284 . S
Zn68 O67 1.904 . S
Zn68 O69 2.045 . S
Zn68 O72 2.103 . S
Zn68 O77 1.946 1_556 S
O69 Zn68 2.045 . S
O69 C73 1.278 . S
C70 O71 1.203 . S
C70 O77 1.267 . S
O71 C70 1.203 . S
O72 C65 1.185 . S
O72 Zn68 2.103 . S
C73 O69 1.278 . S
C73 O74 1.211 1_556 S
O74 C73 1.211 1_554 S
C75 O67 1.284 . S
C75 O76 1.273 . S
O76 C75 1.273 . S
O77 Zn68 1.946 1_554 S
O77 C70 1.267 . S
C78 O79 1.160 . S
C78 O85 1.185 . S
O79 C78 1.160 . S
O80 Zn81 1.899 . S
O80 C88 1.284 . S
Zn81 O80 1.899 . S
Zn81 O82 2.032 . S
Zn81 O85 2.086 . S
Zn81 O90 1.977 . S
O82 Zn81 2.032 . S
O82 C86 1.278 . S
C83 O84 1.203 . S
C83 O90 1.267 . S
O84 C83 1.203 . S
O85 C78 1.185 . S
O85 Zn81 2.086 . S
C86 O82 1.278 . S
C86 O87 1.211 . S
O87 C86 1.211 . S
C88 O80 1.284 . S
C88 O89 1.273 . S
O89 C88 1.273 . S
O90 Zn81 1.977 . S
O90 C83 1.267 . S
C91 O92 1.160 . S
C91 O98 1.185 . S
O92 C91 1.160 . S
O93 Zn94 1.899 . S
O93 C101 1.284 . S
Zn94 O93 1.899 . S
Zn94 O95 2.032 . S
Zn94 O98 2.086 . S
Zn94 O103 1.977 . S
O95 Zn94 2.032 . S
O95 C99 1.278 . S
C96 O97 1.203 . S
C96 O103 1.267 . S
O97 C96 1.203 . S
O98 C91 1.185 . S
O98 Zn94 2.086 . S
C99 O95 1.278 . S
C99 O100 1.211 . S
O100 C99 1.211 . S
C101 O93 1.284 . S
C101 O102 1.273 . S
O102 C101 1.273 . S
O103 Zn94 1.977 . S
O103 C96 1.267 . S
C104 O105 1.160 . S
C104 O111 1.185 . S
O105 C104 1.160 . S
O106 Zn107 1.904 . S
O106 C114 1.284 . S
Zn107 O106 1.904 . S
Zn107 O108 2.045 . S
Zn107 O111 2.103 . S
Zn107 O116 1.946 1_554 S
O108 Zn107 2.045 . S
O108 C112 1.278 . S
C109 O110 1.203 . S
C109 O116 1.267 . S
O110 C109 1.203 . S
O111 C104 1.185 . S
O111 Zn107 2.103 . S
C112 O108 1.278 . S
C112 O113 1.211 1_554 S
O113 C112 1.211 1_556 S
C114 O106 1.284 . S
C114 O115 1.273 . S
O115 C114 1.273 . S
O116 Zn107 1.946 1_556 S
O116 C109 1.267 . S
C117 O118 1.160 . S
C117 O124 1.185 . S
O118 C117 1.160 . S
O119 Zn120 1.899 . S
O119 C127 1.284 . S
Zn120 O119 1.899 . S
Zn120 O121 2.032 . S
Zn120 O124 2.086 . S
Zn120 O129 1.977 . S
O121 Zn120 2.032 . S
O121 C125 1.278 . S
C122 O123 1.203 . S
C122 O129 1.267 . S
O123 C122 1.203 . S
O124 C117 1.185 . S
O124 Zn120 2.086 . S
C125 O121 1.278 . S
C125 O126 1.211 . S
O126 C125 1.211 . S
C127 O119 1.284 . S
C127 O128 1.273 . S
O128 C127 1.273 . S
O129 Zn120 1.977 . S
O129 C122 1.267 . S
C130 O131 1.160 . S
C130 O137 1.185 . S
O131 C130 1.160 . S
O132 Zn133 1.899 . S
O132 C140 1.284 . S
Zn133 O132 1.899 . S
Zn133 O134 2.032 . S
Zn133 O137 2.086 . S
Zn133 O142 1.977 . S
O134 Zn133 2.032 . S
O134 C138 1.278 . S
C135 O136 1.203 . S
C135 O142 1.267 . S
O136 C135 1.203 . S
O137 C130 1.185 . S
O137 Zn133 2.086 . S
C138 O134 1.278 . S
C138 O139 1.211 . S
O139 C138 1.211 . S
C140 O132 1.284 . S
C140 O141 1.273 . S
O141 C140 1.273 . S
O142 Zn133 1.977 . S
O142 C135 1.267 . S
C143 O144 1.160 . S
C143 O150 1.185 . S
O144 C143 1.160 . S
O145 Zn146 1.904 . S
O145 C153 1.284 . S
Zn146 O145 1.904 . S
Zn146 O147 2.045 . S
Zn146 O150 2.103 . S
Zn146 O155 1.946 1_554 S
O147 Zn146 2.045 . S
O147 C151 1.278 . S
C148 O149 1.203 . S
C148 O155 1.267 . S
O149 C148 1.203 . S
O150 C143 1.185 . S
O150 Zn146 2.103 . S
C151 O147 1.278 . S
C151 O152 1.211 1_554 S
O152 C151 1.211 1_556 S
C153 O145 1.284 . S
C153 O154 1.273 . S
O154 C153 1.273 . S
O155 Zn146 1.946 1_556 S
O155 C148 1.267 . S
H156 C168 0.930 . S
H157 C170 0.930 . S
H158 C171 0.930 . S
H159 C175 0.959 . S
H160 C175 0.959 . S
H161 C175 0.961 . S
H162 C176 0.960 . S
H163 C176 0.961 . S
H164 C176 0.959 . S
H165 C179 0.929 . S
H166 C180 0.931 . S
H167 C182 0.930 . S
C168 H156 0.930 . S
C168 C169 1.399 . S
C168 C173 1.399 . S
C169 C168 1.399 . S
C169 C170 1.376 . S
C170 H157 0.930 . S
C170 C169 1.376 . S
C170 C171 1.388 . S
C171 H158 0.930 . S
C171 C170 1.388 . S
C171 C172 1.390 . S
C172 C171 1.390 . S
C172 C173 1.394 . S
C172 C178 1.465 . S
C173 C168 1.399 . S
C173 C172 1.394 . S
C173 C174 1.516 . S
C174 C173 1.516 . S
C174 C175 1.502 . S
C174 C176 1.561 . S
C174 C177 1.526 . S
C175 H159 0.959 . S
C175 H160 0.959 . S
C175 H161 0.961 . S
C175 C174 1.502 . S
C176 H162 0.960 . S
C176 H163 0.961 . S
C176 H164 0.959 . S
C176 C174 1.561 . S
C177 C174 1.526 . S
C177 C178 1.396 . S
C177 C182 1.390 . S
C178 C172 1.465 . S
C178 C177 1.396 . S
C178 C179 1.399 . S
C179 H165 0.929 . S
C179 C178 1.399 . S
C179 C180 1.385 . S
C180 H166 0.931 . S
C180 C179 1.385 . S
C180 C181 1.389 . S
C181 C180 1.389 . S
C181 C182 1.387 . S
C182 H167 0.930 . S
C182 C177 1.390 . S
C182 C181 1.387 . S
H183 C195 0.930 . S
H184 C197 0.930 . S
H185 C198 0.930 . S
H186 C202 0.959 . S
H187 C202 0.959 . S
H188 C202 0.961 . S
H189 C203 0.960 . S
H190 C203 0.961 . S
H191 C203 0.959 . S
H192 C206 0.929 . S
H193 C207 0.931 . S
H194 C209 0.930 . S
C195 H183 0.930 . S
C195 C196 1.399 . S
C195 C200 1.399 . S
C196 C195 1.399 . S
C196 C197 1.376 . S
C197 H184 0.930 . S
C197 C196 1.376 . S
C197 C198 1.388 . S
C198 H185 0.930 . S
C198 C197 1.388 . S
C198 C199 1.390 . S
C199 C198 1.390 . S
C199 C200 1.394 . S
C199 C205 1.465 . S
C200 C195 1.399 . S
C200 C199 1.394 . S
C200 C201 1.516 . S
C201 C200 1.516 . S
C201 C202 1.502 . S
C201 C203 1.561 . S
C201 C204 1.526 . S
C202 H186 0.959 . S
C202 H187 0.959 . S
C202 H188 0.961 . S
C202 C201 1.502 . S
C203 H189 0.960 . S
C203 H190 0.961 . S
C203 H191 0.959 . S
C203 C201 1.561 . S
C204 C201 1.526 . S
C204 C205 1.396 . S
C204 C209 1.390 . S
C205 C199 1.465 . S
C205 C204 1.396 . S
C205 C206 1.399 . S
C206 H192 0.929 . S
C206 C205 1.399 . S
C206 C207 1.385 . S
C207 H193 0.931 . S
C207 C206 1.385 . S
C207 C208 1.389 . S
C208 C207 1.389 . S
C208 C209 1.387 . S
C209 H194 0.930 . S
C209 C204 1.390 . S
C209 C208 1.387 . S
H210 C222 0.922 1_554 S
H211 C224 0.930 . S
H212 C225 0.930 . S
H213 C229 0.959 . S
H214 C229 0.959 . S
H215 C229 0.961 . S
H216 C230 0.960 . S
H217 C230 0.961 . S
H218 C230 0.959 . S
H219 C233 0.929 . S
H220 C234 0.931 . S
H221 C236 0.930 . S
C222 H210 0.922 1_556 S
C222 C223 1.408 . S
C222 C227 1.399 . S
C223 C222 1.408 . S
C223 C224 1.376 . S
C224 H211 0.930 . S
C224 C223 1.376 . S
C224 C225 1.388 . S
C225 H212 0.930 . S
C225 C224 1.388 . S
C225 C226 1.390 . S
C226 C225 1.390 . S
C226 C227 1.394 . S
C226 C232 1.465 . S
C227 C222 1.399 . S
C227 C226 1.394 . S
C227 C228 1.516 1_556 S
C228 C227 1.516 1_554 S
C228 C229 1.502 . S
C228 C230 1.561 1_554 S
C228 C231 1.526 . S
C229 H213 0.959 . S
C229 H214 0.959 . S
C229 H215 0.961 . S
C229 C228 1.502 . S
C230 H216 0.960 . S
C230 H217 0.961 . S
C230 H218 0.959 . S
C230 C228 1.561 1_556 S
C231 C228 1.526 . S
C231 C232 1.396 1_554 S
C231 C236 1.390 . S
C232 C226 1.465 . S
C232 C231 1.396 1_556 S
C232 C233 1.399 . S
C233 H219 0.929 . S
C233 C232 1.399 . S
C233 C234 1.385 . S
C234 H220 0.931 . S
C234 C233 1.385 . S
C234 C235 1.389 1_556 S
C235 C234 1.389 1_554 S
C235 C236 1.387 . S
C236 H221 0.930 . S
C236 C231 1.390 . S
C236 C235 1.387 . S
H237 C249 0.930 . S
H238 C251 0.930 . S
H239 C252 0.930 . S
H240 C256 0.959 . S
H241 C256 0.959 . S
H242 C256 0.961 . S
H243 C257 0.960 . S
H244 C257 0.961 . S
H245 C257 0.959 . S
H246 C260 0.929 . S
H247 C261 0.931 . S
H248 C263 0.930 . S
C249 H237 0.930 . S
C249 C250 1.399 . S
C249 C254 1.399 . S
C250 C249 1.399 . S
C250 C251 1.376 . S
C251 H238 0.930 . S
C251 C250 1.376 . S
C251 C252 1.388 . S
C252 H239 0.930 . S
C252 C251 1.388 . S
C252 C253 1.390 . S
C253 C252 1.390 . S
C253 C254 1.394 . S
C253 C259 1.465 . S
C254 C249 1.399 . S
C254 C253 1.394 . S
C254 C255 1.516 . S
C255 C254 1.516 . S
C255 C256 1.502 . S
C255 C257 1.561 . S
C255 C258 1.526 . S
C256 H240 0.959 . S
C256 H241 0.959 . S
C256 H242 0.961 . S
C256 C255 1.502 . S
C257 H243 0.960 . S
C257 H244 0.961 . S
C257 H245 0.959 . S
C257 C255 1.561 . S
C258 C255 1.526 . S
C258 C259 1.396 . S
C258 C263 1.390 . S
C259 C253 1.465 . S
C259 C258 1.396 . S
C259 C260 1.399 . S
C260 H246 0.929 . S
C260 C259 1.399 . S
C260 C261 1.385 . S
C261 H247 0.931 . S
C261 C260 1.385 . S
C261 C262 1.389 . S
C262 C261 1.389 . S
C262 C263 1.387 . S
C263 H248 0.930 . S
C263 C258 1.390 . S
C263 C262 1.387 . S
H264 C276 0.930 . S
H265 C278 0.930 . S
H266 C279 0.930 . S
H267 C283 0.959 . S
H268 C283 0.959 . S
H269 C283 0.961 . S
H270 C284 0.960 . S
H271 C284 0.961 . S
H272 C284 0.959 . S
H273 C287 0.929 . S
H274 C288 0.931 . S
H275 C290 0.930 . S
C276 H264 0.930 . S
C276 C277 1.399 . S
C276 C281 1.399 . S
C277 C276 1.399 . S
C277 C278 1.376 . S
C278 H265 0.930 . S
C278 C277 1.376 . S
C278 C279 1.388 . S
C279 H266 0.930 . S
C279 C278 1.388 . S
C279 C280 1.390 . S
C280 C279 1.390 . S
C280 C281 1.394 . S
C280 C286 1.465 . S
C281 C276 1.399 . S
C281 C280 1.394 . S
C281 C282 1.516 . S
C282 C281 1.516 . S
C282 C283 1.502 . S
C282 C284 1.561 . S
C282 C285 1.526 . S
C283 H267 0.959 . S
C283 H268 0.959 . S
C283 H269 0.961 . S
C283 C282 1.502 . S
C284 H270 0.960 . S
C284 H271 0.961 . S
C284 H272 0.959 . S
C284 C282 1.561 . S
C285 C282 1.526 . S
C285 C286 1.396 . S
C285 C290 1.390 . S
C286 C280 1.465 . S
C286 C285 1.396 . S
C286 C287 1.399 . S
C287 H273 0.929 . S
C287 C286 1.399 . S
C287 C288 1.385 . S
C288 H274 0.931 . S
C288 C287 1.385 . S
C288 C289 1.389 . S
C289 C288 1.389 . S
C289 C290 1.387 . S
C290 H275 0.930 . S
C290 C285 1.390 . S
C290 C289 1.387 . S
H291 C303 0.930 . S
H292 C305 0.930 . S
H293 C306 0.930 . S
H294 C310 0.959 . S
H295 C310 0.959 . S
H296 C310 0.961 . S
H297 C311 0.960 . S
H298 C311 0.961 . S
H299 C311 0.959 . S
H300 C314 0.929 . S
H301 C315 0.931 . S
H302 C317 0.930 . S
C303 H291 0.930 . S
C303 C304 1.399 . S
C303 C308 1.399 . S
C304 C303 1.399 . S
C304 C305 1.376 1_554 S
C305 H292 0.930 . S
C305 C304 1.376 1_556 S
C305 C306 1.388 . S
C306 H293 0.930 . S
C306 C305 1.388 . S
C306 C307 1.390 . S
C307 C306 1.390 . S
C307 C308 1.394 1_556 S
C307 C313 1.465 . S
C308 C303 1.399 . S
C308 C307 1.394 1_554 S
C308 C309 1.516 . S
C309 C308 1.516 . S
C309 C310 1.502 . S
C309 C311 1.561 1_554 S
C309 C312 1.531 . S
C310 H294 0.959 . S
C310 H295 0.959 . S
C310 H296 0.961 . S
C310 C309 1.502 . S
C311 H297 0.960 . S
C311 H298 0.961 . S
C311 H299 0.959 . S
C311 C309 1.561 1_556 S
C312 C309 1.531 . S
C312 C313 1.390 1_554 S
C312 C317 1.390 . S
C313 C307 1.465 . S
C313 C312 1.390 1_556 S
C313 C314 1.399 . S
C314 H300 0.929 . S
C314 C313 1.399 . S
C314 C315 1.385 . S
C315 H301 0.931 . S
C315 C314 1.385 . S
C315 C316 1.389 . S
C316 C315 1.389 . S
C316 C317 1.387 1_556 S
C317 H302 0.930 . S
C317 C312 1.390 . S
C317 C316 1.387 1_554 S
H318 C330 0.930 . S
H319 C332 0.930 . S
H320 C333 0.930 . S
H321 C337 0.959 . S
H322 C337 0.959 . S
H323 C337 0.961 . S
H324 C338 0.960 . S
H325 C338 0.961 . S
H326 C338 0.959 . S
H327 C341 0.929 . S
H328 C342 0.931 . S
H329 C344 0.930 . S
C330 H318 0.930 . S
C330 C331 1.399 . S
C330 C335 1.399 . S
C331 C330 1.399 . S
C331 C332 1.376 . S
C332 H319 0.930 . S
C332 C331 1.376 . S
C332 C333 1.388 . S
C333 H320 0.930 . S
C333 C332 1.388 . S
C333 C334 1.390 . S
C334 C333 1.390 . S
C334 C335 1.394 . S
C334 C340 1.465 . S
C335 C330 1.399 . S
C335 C334 1.394 . S
C335 C336 1.516 . S
C336 C335 1.516 . S
C336 C337 1.502 . S
C336 C338 1.561 . S
C336 C339 1.526 . S
C337 H321 0.959 . S
C337 H322 0.959 . S
C337 H323 0.961 . S
C337 C336 1.502 . S
C338 H324 0.960 . S
C338 H325 0.961 . S
C338 H326 0.959 . S
C338 C336 1.561 . S
C339 C336 1.526 . S
C339 C340 1.396 . S
C339 C344 1.390 . S
C340 C334 1.465 . S
C340 C339 1.396 . S
C340 C341 1.399 . S
C341 H327 0.929 . S
C341 C340 1.399 . S
C341 C342 1.385 . S
C342 H328 0.931 . S
C342 C341 1.385 . S
C342 C343 1.389 . S
C343 C342 1.389 . S
C343 C344 1.387 . S
C344 H329 0.930 . S
C344 C339 1.390 . S
C344 C343 1.387 . S
H345 C357 0.930 . S
H346 C359 0.930 . S
H347 C360 0.930 . S
H348 C364 0.959 . S
H349 C364 0.959 . S
H350 C364 0.961 1_655 S
H351 C365 0.960 1_655 S
H352 C365 0.961 . S
H353 C365 0.959 . S
H354 C368 0.929 . S
H355 C369 0.931 . S
H356 C371 0.930 . S
C357 H345 0.930 . S
C357 C358 1.399 . S
C357 C362 1.399 . S
C358 C357 1.399 . S
C358 C359 1.376 . S
C359 H346 0.930 . S
C359 C358 1.376 . S
C359 C360 1.388 . S
C360 H347 0.930 . S
C360 C359 1.388 . S
C360 C361 1.390 . S
C361 C360 1.390 . S
C361 C362 1.394 . S
C361 C367 1.465 1_655 S
C362 C357 1.399 . S
C362 C361 1.394 . S
C362 C363 1.516 1_655 S
C363 C362 1.516 1_455 S
C363 C364 1.502 . S
C363 C365 1.561 . S
C363 C366 1.526 . S
C364 H348 0.959 . S
C364 H349 0.959 . S
C364 H350 0.961 1_455 S
C364 C363 1.502 . S
C365 H351 0.960 1_455 S
C365 H352 0.961 . S
C365 H353 0.959 . S
C365 C363 1.561 . S
C366 C363 1.526 . S
C366 C367 1.396 . S
C366 C371 1.390 . S
C367 C361 1.465 1_455 S
C367 C366 1.396 . S
C367 C368 1.399 . S
C368 H354 0.929 . S
C368 C367 1.399 . S
C368 C369 1.385 . S
C369 H355 0.931 . S
C369 C368 1.385 . S
C369 C370 1.389 . S
C370 C369 1.389 . S
C370 C371 1.387 . S
C371 H356 0.930 . S
C371 C366 1.390 . S
C371 C370 1.387 . S
H372 C384 0.930 . S
H373 C386 0.930 . S
H374 C387 0.930 . S
H375 C391 0.959 . S
H376 C391 0.959 1_565 S
H377 C391 0.961 . S
H378 C392 0.960 . S
H379 C392 0.961 1_565 S
H380 C392 0.959 . S
H381 C395 0.929 . S
H382 C396 0.931 . S
H383 C398 0.930 . S
C384 H372 0.930 . S
C384 C385 1.399 1_556 S
C384 C389 1.399 . S
C385 C384 1.399 1_554 S
C385 C386 1.376 . S
C386 H373 0.930 . S
C386 C385 1.376 . S
C386 C387 1.388 . S
C387 H374 0.930 . S
C387 C386 1.388 . S
C387 C388 1.390 . S
C388 C387 1.390 . S
C388 C389 1.394 1_554 S
C388 C394 1.465 1_545 S
C389 C384 1.399 . S
C389 C388 1.394 1_556 S
C389 C390 1.516 . S
C390 C389 1.516 . S
C390 C391 1.502 . S
C390 C392 1.561 . S
C390 C393 1.526 1_545 S
C391 H375 0.959 . S
C391 H376 0.959 1_545 S
C391 H377 0.961 . S
C391 C390 1.502 . S
C392 H378 0.960 . S
C392 H379 0.961 1_545 S
C392 H380 0.959 . S
C392 C390 1.561 . S
C393 C390 1.526 1_565 S
C393 C394 1.396 1_556 S
C393 C398 1.390 . S
C394 C388 1.465 1_565 S
C394 C393 1.396 1_554 S
C394 C395 1.399 . S
C395 H381 0.929 . S
C395 C394 1.399 . S
C395 C396 1.385 . S
C396 H382 0.931 . S
C396 C395 1.385 . S
C396 C397 1.389 1_554 S
C397 C396 1.389 1_556 S
C397 C398 1.387 . S
C398 H383 0.930 . S
C398 C393 1.390 . S
C398 C397 1.387 . S
H399 C411 0.930 . S
H400 C413 0.930 . S
H401 C414 0.930 . S
H402 C418 0.959 . S
H403 C418 0.959 . S
H404 C418 0.961 . S
H405 C419 0.960 . S
H406 C419 0.961 . S
H407 C419 0.959 . S
H408 C422 0.929 . S
H409 C423 0.931 . S
H410 C425 0.930 . S
C411 H399 0.930 . S
C411 C412 1.399 . S
C411 C416 1.399 . S
C412 C411 1.399 . S
C412 C413 1.376 . S
C413 H400 0.930 . S
C413 C412 1.376 . S
C413 C414 1.388 . S
C414 H401 0.930 . S
C414 C413 1.388 . S
C414 C415 1.390 . S
C415 C414 1.390 . S
C415 C416 1.394 . S
C415 C421 1.465 . S
C416 C411 1.399 . S
C416 C415 1.394 . S
C416 C417 1.516 . S
C417 C416 1.516 . S
C417 C418 1.502 . S
C417 C419 1.561 . S
C417 C420 1.526 . S
C418 H402 0.959 . S
C418 H403 0.959 . S
C418 H404 0.961 . S
C418 C417 1.502 . S
C419 H405 0.960 . S
C419 H406 0.961 . S
C419 H407 0.959 . S
C419 C417 1.561 . S
C420 C417 1.526 . S
C420 C421 1.396 . S
C420 C425 1.390 . S
C421 C415 1.465 . S
C421 C420 1.396 . S
C421 C422 1.399 . S
C422 H408 0.929 . S
C422 C421 1.399 . S
C422 C423 1.385 . S
C423 H409 0.931 . S
C423 C422 1.385 . S
C423 C424 1.389 . S
C424 C423 1.389 . S
C424 C425 1.387 . S
C425 H410 0.930 . S
C425 C420 1.390 . S
C425 C424 1.387 . S
H426 C438 0.930 . S
H427 C440 0.930 . S
H428 C441 0.930 . S
H429 C445 0.959 . S
H430 C445 0.959 1_655 S
H431 C445 0.961 . S
H432 C446 0.960 . S
H433 C446 0.961 1_655 S
H434 C446 0.973 . S
H435 C449 0.929 . S
H436 C450 0.931 . S
H437 C452 0.930 . S
C438 H426 0.930 . S
C438 C439 1.399 . S
C438 C443 1.399 . S
C439 C438 1.399 . S
C439 C440 1.376 . S
C440 H427 0.930 . S
C440 C439 1.376 . S
C440 C441 1.388 . S
C441 H428 0.930 . S
C441 C440 1.388 . S
C441 C442 1.390 . S
C442 C441 1.390 . S
C442 C443 1.394 . S
C442 C448 1.465 1_455 S
C443 C438 1.399 . S
C443 C442 1.394 . S
C443 C444 1.516 . S
C444 C443 1.516 . S
C444 C445 1.502 . S
C444 C446 1.561 . S
C444 C447 1.526 1_455 S
C445 H429 0.959 . S
C445 H430 0.959 1_455 S
C445 H431 0.961 . S
C445 C444 1.502 . S
C446 H432 0.960 . S
C446 H433 0.961 1_455 S
C446 H434 0.973 . S
C446 C444 1.561 . S
C447 C444 1.526 1_655 S
C447 C448 1.396 . S
C447 C452 1.390 . S
C448 C442 1.465 1_655 S
C448 C447 1.396 . S
C448 C449 1.399 . S
C449 H435 0.929 . S
C449 C448 1.399 . S
C449 C450 1.385 . S
C450 H436 0.931 . S
C450 C449 1.385 . S
C450 C451 1.389 . S
C451 C450 1.389 . S
C451 C452 1.387 . S
C452 H437 0.930 . S
C452 C447 1.390 . S
C452 C451 1.387 . S
H453 C465 0.930 . S
H454 C467 0.930 . S
H455 C468 0.930 . S
H456 C472 0.959 . S
H457 C472 0.959 . S
H458 C472 0.961 1_545 S
H459 C473 0.960 1_545 S
H460 C473 0.961 . S
H461 C473 0.959 . S
H462 C476 0.929 . S
H463 C477 0.931 . S
H464 C479 0.930 . S
C465 H453 0.930 . S
C465 C466 1.399 . S
C465 C470 1.399 . S
C466 C465 1.399 . S
C466 C467 1.376 1_556 S
C467 H454 0.930 . S
C467 C466 1.376 1_554 S
C467 C468 1.388 . S
C468 H455 0.930 . S
C468 C467 1.388 . S
C468 C469 1.390 . S
C469 C468 1.390 . S
C469 C470 1.394 1_554 S
C469 C475 1.465 1_545 S
C470 C465 1.399 . S
C470 C469 1.394 1_556 S
C470 C471 1.516 1_545 S
C471 C470 1.516 1_565 S
C471 C472 1.502 . S
C471 C473 1.561 . S
C471 C474 1.526 . S
C472 H456 0.959 . S
C472 H457 0.959 . S
C472 H458 0.961 1_565 S
C472 C471 1.502 . S
C473 H459 0.960 1_565 S
C473 H460 0.961 . S
C473 H461 0.959 . S
C473 C471 1.561 . S
C474 C471 1.526 . S
C474 C475 1.396 1_556 S
C474 C479 1.390 . S
C475 C469 1.465 1_565 S
C475 C474 1.396 1_554 S
C475 C476 1.399 . S
C476 H462 0.929 . S
C476 C475 1.399 . S
C476 C477 1.385 . S
C477 H463 0.931 . S
C477 C476 1.385 . S
C477 C478 1.389 . S
C478 C477 1.389 . S
C478 C479 1.387 1_554 S
C479 H464 0.930 . S
C479 C474 1.390 . S
C479 C478 1.387 1_556 S
H480 C492 0.930 . S
H481 C494 0.930 . S
H482 C495 0.930 . S
H483 C499 0.959 . S
H484 C499 0.959 . S
H485 C499 0.961 . S
H486 C500 0.960 . S
H487 C500 0.961 . S
H488 C500 0.959 . S
H489 C503 0.929 . S
H490 C504 0.931 . S
H491 C506 0.930 . S
C492 H480 0.930 . S
C492 C493 1.399 . S
C492 C497 1.399 . S
C493 C492 1.399 . S
C493 C494 1.376 . S
C494 H481 0.930 . S
C494 C493 1.376 . S
C494 C495 1.388 1_655 S
C495 H482 0.930 . S
C495 C494 1.388 1_455 S
C495 C496 1.390 . S
C496 C495 1.390 . S
C496 C497 1.394 1_455 S
C496 C502 1.465 . S
C497 C492 1.399 . S
C497 C496 1.394 1_655 S
C497 C498 1.516 . S
C498 C497 1.516 . S
C498 C499 1.502 . S
C498 C500 1.561 . S
C498 C501 1.526 1_655 S
C499 H483 0.959 . S
C499 H484 0.959 . S
C499 H485 0.961 . S
C499 C498 1.502 . S
C500 H486 0.960 . S
C500 H487 0.961 . S
C500 H488 0.959 . S
C500 C498 1.561 . S
C501 C498 1.526 1_455 S
C501 C502 1.396 . S
C501 C506 1.390 . S
C502 C496 1.465 . S
C502 C501 1.396 . S
C502 C503 1.399 . S
C503 H489 0.929 . S
C503 C502 1.399 . S
C503 C504 1.385 . S
C504 H490 0.931 . S
C504 C503 1.385 . S
C504 C505 1.389 . S
C505 C504 1.389 . S
C505 C506 1.387 . S
C506 H491 0.930 . S
C506 C501 1.390 . S
C506 C505 1.387 . S
H507 C519 0.930 . S
H508 C521 0.930 . S
H509 C522 0.930 . S
H510 C526 0.959 . S
H511 C526 0.959 . S
H512 C526 0.961 . S
H513 C527 0.960 . S
H514 C527 0.961 . S
H515 C527 0.959 . S
H516 C530 0.929 . S
H517 C531 0.931 . S
H518 C533 0.930 . S
C519 H507 0.930 . S
C519 C520 1.399 . S
C519 C524 1.399 . S
C520 C519 1.399 . S
C520 C521 1.376 . S
C521 H508 0.930 . S
C521 C520 1.376 . S
C521 C522 1.388 . S
C522 H509 0.930 . S
C522 C521 1.388 . S
C522 C523 1.390 . S
C523 C522 1.390 . S
C523 C524 1.394 . S
C523 C529 1.465 . S
C524 C519 1.399 . S
C524 C523 1.394 . S
C524 C525 1.516 1_545 S
C525 C524 1.516 1_565 S
C525 C526 1.502 . S
C525 C527 1.561 . S
C525 C528 1.526 . S
C526 H510 0.959 . S
C526 H511 0.959 . S
C526 H512 0.961 . S
C526 C525 1.502 . S
C527 H513 0.960 . S
C527 H514 0.961 . S
C527 H515 0.959 . S
C527 C525 1.561 . S
C528 C525 1.526 . S
C528 C529 1.396 1_565 S
C528 C533 1.390 . S
C529 C523 1.465 . S
C529 C528 1.396 1_545 S
C529 C530 1.399 . S
C530 H516 0.929 . S
C530 C529 1.399 . S
C530 C531 1.385 1_545 S
C531 H517 0.931 . S
C531 C530 1.385 1_565 S
C531 C532 1.389 . S
C532 C531 1.389 . S
C532 C533 1.387 . S
C533 H518 0.930 . S
C533 C528 1.390 . S
C533 C532 1.387 . S
H534 C546 0.930 . S
H535 C548 0.930 . S
H536 C549 0.930 . S
H537 C553 0.959 . S
H538 C553 0.959 . S
H539 C553 0.961 . S
H540 C554 0.960 . S
H541 C554 0.961 . S
H542 C554 0.959 . S
H543 C557 0.929 . S
H544 C558 0.931 . S
H545 C560 0.930 . S
C546 H534 0.930 . S
C546 C547 1.399 . S
C546 C551 1.399 . S
C547 C546 1.399 . S
C547 C548 1.376 . S
C548 H535 0.930 . S
C548 C547 1.376 . S
C548 C549 1.388 . S
C549 H536 0.930 . S
C549 C548 1.388 . S
C549 C550 1.390 . S
C550 C549 1.390 . S
C550 C551 1.394 . S
C550 C556 1.465 . S
C551 C546 1.399 . S
C551 C550 1.394 . S
C551 C552 1.516 . S
C552 C551 1.516 . S
C552 C553 1.502 . S
C552 C554 1.561 . S
C552 C555 1.526 . S
C553 H537 0.959 . S
C553 H538 0.959 . S
C553 H539 0.961 . S
C553 C552 1.502 . S
C554 H540 0.960 . S
C554 H541 0.961 . S
C554 H542 0.959 . S
C554 C552 1.561 . S
C555 C552 1.526 . S
C555 C556 1.396 . S
C555 C560 1.390 . S
C556 C550 1.465 . S
C556 C555 1.396 . S
C556 C557 1.399 . S
C557 H543 0.929 . S
C557 C556 1.399 . S
C557 C558 1.385 . S
C558 H544 0.931 . S
C558 C557 1.385 . S
C558 C559 1.389 . S
C559 C558 1.389 . S
C559 C560 1.387 . S
C560 H545 0.930 . S
C560 C555 1.390 . S
C560 C559 1.387 . S
H561 C573 0.930 . S
H562 C575 0.930 . S
H563 C576 0.930 . S
H564 C580 0.959 . S
H565 C580 0.959 . S
H566 C580 0.961 . S
H567 C581 0.960 . S
H568 C581 0.961 . S
H569 C581 0.959 . S
H570 C584 0.929 . S
H571 C585 0.931 . S
H572 C587 0.950 . S
C573 H561 0.930 . S
C573 C574 1.399 . S
C573 C578 1.399 . S
C574 C573 1.399 . S
C574 C575 1.376 . S
C575 H562 0.930 . S
C575 C574 1.376 . S
C575 C576 1.388 1_455 S
C576 H563 0.930 . S
C576 C575 1.388 1_655 S
C576 C577 1.390 . S
C577 C576 1.390 . S
C577 C578 1.394 1_655 S
C577 C583 1.465 . S
C578 C573 1.399 . S
C578 C577 1.394 1_455 S
C578 C579 1.516 . S
C579 C578 1.516 . S
C579 C580 1.502 . S
C579 C581 1.561 . S
C579 C582 1.526 1_455 S
C580 H564 0.959 . S
C580 H565 0.959 . S
C580 H566 0.961 . S
C580 C579 1.502 . S
C581 H567 0.960 . S
C581 H568 0.961 . S
C581 H569 0.959 . S
C581 C579 1.561 . S
C582 C579 1.526 1_655 S
C582 C583 1.396 . S
C582 C587 1.390 . S
C583 C577 1.465 . S
C583 C582 1.396 . S
C583 C584 1.399 . S
C584 H570 0.929 . S
C584 C583 1.399 . S
C584 C585 1.385 . S
C585 H571 0.931 . S
C585 C584 1.385 . S
C585 C586 1.389 . S
C586 C585 1.389 . S
C586 C587 1.387 . S
C587 H572 0.950 . S
C587 C582 1.390 . S
C587 C586 1.387 . S
H588 C600 0.930 . S
H589 C602 0.930 . S
H590 C603 0.930 . S
H591 C607 0.959 . S
H592 C607 0.959 . S
H593 C607 0.961 . S
H594 C608 0.960 . S
H595 C608 0.961 . S
H596 C608 0.959 . S
H597 C611 0.929 . S
H598 C612 0.931 . S
H599 C614 0.930 . S
C600 H588 0.930 . S
C600 C601 1.399 . S
C600 C605 1.399 . S
C601 C600 1.399 . S
C601 C602 1.376 . S
C602 H589 0.930 . S
C602 C601 1.376 . S
C602 C603 1.388 1_545 S
C603 H590 0.930 . S
C603 C602 1.388 1_565 S
C603 C604 1.390 . S
C604 C603 1.390 . S
C604 C605 1.394 1_565 S
C604 C610 1.465 . S
C605 C600 1.399 . S
C605 C604 1.394 1_545 S
C605 C606 1.516 . S
C606 C605 1.516 . S
C606 C607 1.502 . S
C606 C608 1.561 . S
C606 C609 1.526 1_545 S
C607 H591 0.959 . S
C607 H592 0.959 . S
C607 H593 0.961 . S
C607 C606 1.502 . S
C608 H594 0.960 . S
C608 H595 0.961 . S
C608 H596 0.959 . S
C608 C606 1.561 . S
C609 C606 1.526 1_565 S
C609 C610 1.396 . S
C609 C614 1.390 . S
C610 C604 1.465 . S
C610 C609 1.396 . S
C610 C611 1.399 . S
C611 H597 0.929 . S
C611 C610 1.399 . S
C611 C612 1.385 . S
C612 H598 0.931 . S
C612 C611 1.385 . S
C612 C613 1.389 . S
C613 C612 1.389 . S
C613 C614 1.387 . S
C614 H599 0.930 . S
C614 C609 1.390 . S
C614 C613 1.387 . S
H615 C627 0.930 . S
H616 C629 0.930 . S
H617 C630 0.930 . S
H618 C634 0.959 . S
H619 C634 0.959 . S
H620 C634 0.961 . S
H621 C635 0.960 . S
H622 C635 0.961 . S
H623 C635 0.959 . S
H624 C638 0.929 . S
H625 C639 0.931 . S
H626 C641 0.930 . S
C627 H615 0.930 . S
C627 C628 1.399 . S
C627 C632 1.399 . S
C628 C627 1.399 . S
C628 C629 1.376 . S
C629 H616 0.930 . S
C629 C628 1.376 . S
C629 C630 1.388 . S
C630 H617 0.930 . S
C630 C629 1.388 . S
C630 C631 1.390 . S
C631 C630 1.390 . S
C631 C632 1.394 . S
C631 C637 1.465 . S
C632 C627 1.399 . S
C632 C631 1.394 . S
C632 C633 1.516 . S
C633 C632 1.516 . S
C633 C634 1.502 . S
C633 C635 1.561 . S
C633 C636 1.526 . S
C634 H618 0.959 . S
C634 H619 0.959 . S
C634 H620 0.961 . S
C634 C633 1.502 . S
C635 H621 0.960 . S
C635 H622 0.961 . S
C635 H623 0.959 . S
C635 C633 1.561 . S
C636 C633 1.526 . S
C636 C637 1.396 . S
C636 C641 1.390 . S
C637 C631 1.465 . S
C637 C636 1.396 . S
C637 C638 1.399 . S
C638 H624 0.929 . S
C638 C637 1.399 . S
C638 C639 1.385 . S
C639 H625 0.931 . S
C639 C638 1.385 . S
C639 C640 1.389 . S
C640 C639 1.389 . S
C640 C641 1.387 . S
C641 H626 0.930 . S
C641 C636 1.390 . S
C641 C640 1.387 . S
H642 C654 0.930 . S
H643 C656 0.930 . S
H644 C657 0.930 . S
H645 C661 0.959 . S
H646 C661 0.959 . S
H647 C661 0.961 . S
H648 C662 0.960 . S
H649 C662 0.961 . S
H650 C662 0.959 . S
H651 C665 0.929 . S
H652 C666 0.931 . S
H653 C668 0.930 . S
C654 H642 0.930 . S
C654 C655 1.399 . S
C654 C659 1.399 . S
C655 C654 1.399 . S
C655 C656 1.376 . S
C656 H643 0.930 . S
C656 C655 1.376 . S
C656 C657 1.388 . S
C657 H644 0.930 . S
C657 C656 1.388 . S
C657 C658 1.390 . S
C658 C657 1.390 . S
C658 C659 1.394 . S
C658 C664 1.465 . S
C659 C654 1.399 . S
C659 C658 1.394 . S
C659 C660 1.516 . S
C660 C659 1.516 . S
C660 C661 1.502 . S
C660 C662 1.561 . S
C660 C663 1.526 . S
C661 H645 0.959 . S
C661 H646 0.959 . S
C661 H647 0.961 . S
C661 C660 1.502 . S
C662 H648 0.960 . S
C662 H649 0.961 . S
C662 H650 0.959 . S
C662 C660 1.561 . S
C663 C660 1.526 . S
C663 C664 1.396 . S
C663 C668 1.390 . S
C664 C658 1.465 . S
C664 C663 1.396 . S
C664 C665 1.399 . S
C665 H651 0.929 . S
C665 C664 1.399 . S
C665 C666 1.385 . S
C666 H652 0.931 . S
C666 C665 1.385 . S
C666 C667 1.389 . S
C667 C666 1.389 . S
C667 C668 1.387 . S
C668 H653 0.930 . S
C668 C663 1.390 . S
C668 C667 1.387 . S
H669 C681 0.930 . S
H670 C683 0.930 . S
H671 C684 0.930 . S
H672 C688 0.959 . S
H673 C688 0.959 . S
H674 C688 0.961 . S
H675 C689 0.960 . S
H676 C689 0.961 . S
H677 C689 0.959 . S
H678 C692 0.929 . S
H679 C693 0.931 . S
H680 C695 0.930 . S
C681 H669 0.930 . S
C681 C682 1.399 . S
C681 C686 1.399 . S
C682 C681 1.399 . S
C682 C683 1.376 . S
C683 H670 0.930 . S
C683 C682 1.376 . S
C683 C684 1.388 . S
C684 H671 0.930 . S
C684 C683 1.388 . S
C684 C685 1.390 . S
C685 C684 1.390 . S
C685 C686 1.394 . S
C685 C691 1.465 . S
C686 C681 1.399 . S
C686 C685 1.394 . S
C686 C687 1.516 . S
C687 C686 1.516 . S
C687 C688 1.502 . S
C687 C689 1.561 . S
C687 C690 1.526 . S
C688 H672 0.959 . S
C688 H673 0.959 . S
C688 H674 0.961 . S
C688 C687 1.502 . S
C689 H675 0.960 . S
C689 H676 0.961 . S
C689 H677 0.959 . S
C689 C687 1.561 . S
C690 C687 1.526 . S
C690 C691 1.396 . S
C690 C695 1.390 . S
C691 C685 1.465 . S
C691 C690 1.396 . S
C691 C692 1.399 . S
C692 H678 0.929 . S
C692 C691 1.399 . S
C692 C693 1.385 . S
C693 H679 0.931 . S
C693 C692 1.385 . S
C693 C694 1.389 . S
C694 C693 1.389 . S
C694 C695 1.387 . S
C695 H680 0.930 . S
C695 C690 1.390 . S
C695 C694 1.387 . S
H696 C708 0.930 . S
H697 C710 0.930 . S
H698 C711 0.930 . S
H699 C715 0.959 . S
H700 C715 0.959 . S
H701 C715 0.961 . S
H702 C716 0.960 . S
H703 C716 0.961 . S
H704 C716 0.959 . S
H705 C719 0.929 . S
H706 C720 0.931 . S
H707 C722 0.930 . S
C708 H696 0.930 . S
C708 C709 1.399 . S
C708 C713 1.399 . S
C709 C708 1.399 . S
C709 C710 1.376 . S
C710 H697 0.930 . S
C710 C709 1.376 . S
C710 C711 1.388 . S
C711 H698 0.930 . S
C711 C710 1.388 . S
C711 C712 1.390 . S
C712 C711 1.390 . S
C712 C713 1.394 . S
C712 C718 1.465 . S
C713 C708 1.399 . S
C713 C712 1.394 . S
C713 C714 1.516 . S
C714 C713 1.516 . S
C714 C715 1.502 . S
C714 C716 1.561 . S
C714 C717 1.526 . S
C715 H699 0.959 . S
C715 H700 0.959 . S
C715 H701 0.961 . S
C715 C714 1.502 . S
C716 H702 0.960 . S
C716 H703 0.961 . S
C716 H704 0.959 . S
C716 C714 1.561 . S
C717 C714 1.526 . S
C717 C718 1.396 . S
C717 C722 1.390 . S
C718 C712 1.465 . S
C718 C717 1.396 . S
C718 C719 1.399 . S
C719 H705 0.929 . S
C719 C718 1.399 . S
C719 C720 1.385 . S
C720 H706 0.931 . S
C720 C719 1.385 . S
C720 C721 1.389 . S
C721 C720 1.389 . S
C721 C722 1.387 . S
C722 H707 0.930 . S
C722 C717 1.390 . S
C722 C721 1.387 . S
H723 C735 0.930 . S
H724 C737 0.930 . S
H725 C738 0.930 . S
H726 C742 0.959 . S
H727 C742 0.959 . S
H728 C742 0.961 . S
H729 C743 0.960 . S
H730 C743 0.961 . S
H731 C743 0.959 . S
H732 C746 0.929 . S
H733 C747 0.931 . S
H734 C749 0.930 . S
C735 H723 0.930 . S
C735 C736 1.399 . S
C735 C740 1.399 . S
C736 C735 1.399 . S
C736 C737 1.376 . S
C737 H724 0.930 . S
C737 C736 1.376 . S
C737 C738 1.388 . S
C738 H725 0.930 . S
C738 C737 1.388 . S
C738 C739 1.390 . S
C739 C738 1.390 . S
C739 C740 1.394 . S
C739 C745 1.465 . S
C740 C735 1.399 . S
C740 C739 1.394 . S
C740 C741 1.516 . S
C741 C740 1.516 . S
C741 C742 1.502 . S
C741 C743 1.561 . S
C741 C744 1.526 . S
C742 H726 0.959 . S
C742 H727 0.959 . S
C742 H728 0.961 . S
C742 C741 1.502 . S
C743 H729 0.960 . S
C743 H730 0.961 . S
C743 H731 0.959 . S
C743 C741 1.561 . S
C744 C741 1.526 . S
C744 C745 1.396 . S
C744 C749 1.390 . S
C745 C739 1.465 . S
C745 C744 1.396 . S
C745 C746 1.399 . S
C746 H732 0.929 . S
C746 C745 1.399 . S
C746 C747 1.385 . S
C747 H733 0.931 . S
C747 C746 1.385 . S
C747 C748 1.389 . S
C748 C747 1.389 . S
C748 C749 1.387 . S
C749 H734 0.930 . S
C749 C744 1.390 . S
C749 C748 1.387 . S
H750 C762 0.930 . S
H751 C764 0.930 . S
H752 C765 0.930 . S
H753 C769 0.959 . S
H754 C769 0.959 . S
H755 C769 0.961 . S
H756 C770 0.960 . S
H757 C770 0.961 . S
H758 C770 0.959 . S
H759 C773 0.929 . S
H760 C774 0.931 . S
H761 C776 0.930 . S
C762 H750 0.930 . S
C762 C763 1.399 . S
C762 C767 1.399 . S
C763 C762 1.399 . S
C763 C764 1.376 . S
C764 H751 0.930 . S
C764 C763 1.376 . S
C764 C765 1.388 . S
C765 H752 0.930 . S
C765 C764 1.388 . S
C765 C766 1.390 . S
C766 C765 1.390 . S
C766 C767 1.394 . S
C766 C772 1.465 . S
C767 C762 1.399 . S
C767 C766 1.394 . S
C767 C768 1.516 . S
C768 C767 1.516 . S
C768 C769 1.502 . S
C768 C770 1.561 . S
C768 C771 1.526 . S
C769 H753 0.959 . S
C769 H754 0.959 . S
C769 H755 0.961 . S
C769 C768 1.502 . S
C770 H756 0.960 . S
C770 H757 0.961 . S
C770 H758 0.959 . S
C770 C768 1.561 . S
C771 C768 1.526 . S
C771 C772 1.396 . S
C771 C776 1.390 . S
C772 C766 1.465 . S
C772 C771 1.396 . S
C772 C773 1.399 . S
C773 H759 0.929 . S
C773 C772 1.399 . S
C773 C774 1.385 . S
C774 H760 0.931 . S
C774 C773 1.385 . S
C774 C775 1.389 . S
C775 C774 1.389 . S
C775 C776 1.387 . S
C776 H761 0.930 . S
C776 C771 1.390 . S
C776 C775 1.387 . S
H777 C789 0.930 . S
H778 C791 0.930 . S
H779 C792 0.930 . S
H780 C796 0.959 . S
H781 C796 0.959 . S
H782 C796 0.961 . S
H783 C797 0.960 . S
H784 C797 0.961 . S
H785 C797 0.959 . S
H786 C800 0.929 . S
H787 C801 0.931 . S
H788 C803 0.930 . S
C789 H777 0.930 . S
C789 C790 1.399 . S
C789 C794 1.399 . S
C790 C789 1.399 . S
C790 C791 1.376 . S
C791 H778 0.930 . S
C791 C790 1.376 . S
C791 C792 1.388 . S
C792 H779 0.930 . S
C792 C791 1.388 . S
C792 C793 1.390 . S
C793 C792 1.390 . S
C793 C794 1.394 . S
C793 C799 1.465 . S
C794 C789 1.399 . S
C794 C793 1.394 . S
C794 C795 1.516 . S
C795 C794 1.516 . S
C795 C796 1.502 . S
C795 C797 1.561 . S
C795 C798 1.526 . S
C796 H780 0.959 . S
C796 H781 0.959 . S
C796 H782 0.961 . S
C796 C795 1.502 . S
C797 H783 0.960 . S
C797 H784 0.961 . S
C797 H785 0.959 . S
C797 C795 1.561 . S
C798 C795 1.526 . S
C798 C799 1.396 . S
C798 C803 1.390 . S
C799 C793 1.465 . S
C799 C798 1.396 . S
C799 C800 1.399 . S
C800 H786 0.929 . S
C800 C799 1.399 . S
C800 C801 1.385 . S
C801 H787 0.931 . S
C801 C800 1.385 . S
C801 C802 1.389 . S
C802 C801 1.389 . S
C802 C803 1.387 . S
C803 H788 0.930 . S
C803 C798 1.390 . S
C803 C802 1.387 . S
C169 C10 1.310 . S
C181 C88 1.304 . S
C196 C23 1.312 . S
C208 C101 1.302 . S
C223 C36 1.357 . S
C235 C114 1.348 . S
C250 C127 1.319 . S
C262 C49 1.307 . S
C277 C62 1.309 . S
C289 C140 1.300 . S
C304 C153 1.281 . S
C316 C75 1.292 . S
C331 C8 0.865 . S
C343 C125 0.753 . S
C358 C21 0.738 . S
C370 C138 0.874 . S
C385 C151 0.863 . S
C397 C34 0.733 . S
C412 C86 0.880 . S
C424 C47 0.730 . S
C439 C60 0.882 . S
C451 C99 0.727 . S
C466 C73 0.730 . S
C478 C112 0.850 . S
C493 C143 1.813 . S
C505 C0 1.751 . S
C520 C13 1.791 . S
C532 C78 1.838 . S
C547 C26 1.809 . S
C559 C91 1.752 . S
C574 C104 1.814 . S
C586 C39 1.761 . S
C601 C117 1.846 . S
C613 C52 1.801 . S
C628 C65 1.813 . S
C640 C130 1.762 . S
C655 C5 0.601 . S
C667 C135 0.749 . S
C682 C148 0.742 . S
C694 C18 0.636 . S
C709 C83 0.831 . S
C721 C31 0.607 . S
C736 C44 0.649 . S
C748 C96 0.686 . S
C763 C109 0.726 . S
C775 C57 0.858 . S
C790 C122 0.611 . S
C802 C70 0.850 . S
