# Generated by pormake.
# Topology bcg, (8)-cn, num edge types: 1
# Building blocks:
#     Node 0, Type 0, BuildingBlock: NUHRAL_clean_sbu_3, # of connection points: 8
#     Node 1, Type 0, BuildingBlock: NUHRAL_clean_sbu_3, # of connection points: 8
#     Node 2, Type 0, BuildingBlock: NUHRAL_clean_sbu_3, # of connection points: 8
#     Node 3, Type 0, BuildingBlock: NUHRAL_clean_sbu_3, # of connection points: 8
#     Edge 4, Type (0, 0), BuildingBlock: CIFDUS_clean_linker_0, # of connection points: 2
#     Edge 5, Type (0, 0), BuildingBlock: CIFDUS_clean_linker_0, # of connection points: 2
#     Edge 6, Type (0, 0), BuildingBlock: CIFDUS_clean_linker_0, # of connection points: 2
#     Edge 7, Type (0, 0), BuildingBlock: CIFDUS_clean_linker_0, # of connection points: 2
#     Edge 8, Type (0, 0), BuildingBlock: CIFDUS_clean_linker_0, # of connection points: 2
#     Edge 9, Type (0, 0), BuildingBlock: CIFDUS_clean_linker_0, # of connection points: 2
#     Edge 10, Type (0, 0), BuildingBlock: CIFDUS_clean_linker_0, # of connection points: 2
#     Edge 11, Type (0, 0), BuildingBlock: CIFDUS_clean_linker_0, # of connection points: 2
#     Edge 12, Type (0, 0), BuildingBlock: CIFDUS_clean_linker_0, # of connection points: 2
#     Edge 13, Type (0, 0), BuildingBlock: CIFDUS_clean_linker_0, # of connection points: 2
#     Edge 14, Type (0, 0), BuildingBlock: CIFDUS_clean_linker_0, # of connection points: 2
#     Edge 15, Type (0, 0), BuildingBlock: CIFDUS_clean_linker_0, # of connection points: 2
#     Edge 16, Type (0, 0), BuildingBlock: CIFDUS_clean_linker_0, # of connection points: 2
#     Edge 17, Type (0, 0), BuildingBlock: CIFDUS_clean_linker_0, # of connection points: 2
#     Edge 18, Type (0, 0), BuildingBlock: CIFDUS_clean_linker_0, # of connection points: 2
#     Edge 19, Type (0, 0), BuildingBlock: CIFDUS_clean_linker_0, # of connection points: 2
# Relax obj value: 0.178
# Max RMSD: 0.252
# Mean RMSD: 0.252
data_MOF--net-bcg--node1-NUHRAL_clean_sbu_3--edge1-CIFDUS_clean_linker_0
_symmetry_space_group_name_H-M    P1
_symmetry_Int_Tables_number       1
_symmetry_cell_setting            triclinic
loop_
_symmetry_equiv_pos_as_xyz
'x, y, z'
_cell_length_a     20.000215
_cell_length_b     13.911857
_cell_length_c     30.074289
_cell_angle_alpha  79.289139
_cell_angle_beta   89.752747
_cell_angle_gamma 90.122276
loop_
_atom_site_label
_atom_site_type_symbol
_atom_site_fract_x
_atom_site_fract_y
_atom_site_fract_z
_atom_type_partial_charge
C0 C 0.07807 0.36849 0.075 0.0
C1 C 1.02165 0.34283 0.05257 0.0
C2 C 0.96118 0.32013 0.07617 0.0
C3 C 0.95779 0.32596 0.12223 0.0
C4 C 1.01356 0.35476 0.14486 0.0
C5 C 0.07379 0.37605 0.12075 0.0
O6 O 0.24623 0.19117 0.99401 0.0
Tb7 Tb 0.20111 0.33682 0.98397 0.0
O8 O 0.13759 0.34268 0.92471 0.0
O9 O 0.27353 0.06906 0.05101 0.0
Eu10 Eu 0.37224 0.14753 0.04496 0.0
O11 O 0.15174 0.4394 0.01553 0.0
C12 C 0.43703 0.12088 0.97353 0.0
O13 O 0.17045 0.28955 0.0508 0.0
O14 O 0.32104 0.29383 0.03575 0.0
O15 O 0.29724 0.41231 0.97703 0.0
C16 C 0.14376 0.3745 0.05307 0.0
C17 C 0.41049 0.18905 0.13846 0.0
O18 O 0.3494 0.22378 0.13313 0.0
C19 C 0.22719 0.1147 0.02423 0.0
C20 C 0.3415 0.37017 0.00648 0.0
O21 O 0.43634 0.14829 0.10632 0.0
C22 C 0.5055 0.13616 0.95677 0.0
C23 C 0.58264 0.17741 0.89316 0.0
C24 C 0.51823 0.15104 0.90996 0.0
C25 C 0.55669 0.14849 0.9869 0.0
C26 C 0.62113 0.17338 0.9706 0.0
C27 C 0.63381 0.18514 0.92406 0.0
C28 C 0.15452 0.29243 0.89339 0.0
O29 O 0.20973 0.24062 0.89863 0.0
O30 O 0.42754 0.05082 0.00905 0.0
O31 O 0.40515 0.20189 0.97617 0.0
H32 H 0.02581 0.33765 0.01715 0.0
H33 H 0.91242 0.3033 0.14112 0.0
H34 H 0.11792 0.3964 0.13769 0.0
H35 H 0.47748 0.14634 0.88682 0.0
H36 H 0.54598 0.1405 0.02279 0.0
H37 H 0.6839 0.20408 0.91161 0.0
C38 C 0.58121 0.85452 0.05043 0.0
C39 C 0.52883 0.81912 0.02626 0.0
C40 C 0.46558 0.79712 0.04679 0.0
C41 C 0.45704 0.80615 0.09205 0.0
C42 C 0.50605 0.84815 0.11541 0.0
C43 C 0.56892 0.87033 0.09485 0.0
O44 O 0.71082 0.70386 0.9524 0.0
Tb45 Tb 0.72383 0.84931 0.96728 0.0
O46 O 0.69006 0.91053 0.89994 0.0
O47 O 0.73374 0.61178 0.02152 0.0
Eu48 Eu 0.83663 0.67802 0.02436 0.0
O49 O 0.64735 0.93443 0.98772 0.0
C50 C 0.91968 0.63917 0.96342 0.0
O51 O 0.69505 0.81673 0.03574 0.0
O52 O 0.85106 0.83271 0.03389 0.0
O53 O 0.82311 0.91411 0.96408 0.0
C54 C 0.64736 0.88306 0.02919 0.0
C55 C 0.83002 0.66484 0.12608 0.0
O56 O 0.77254 0.70377 0.11148 0.0
C57 C 0.69802 0.62805 0.98422 0.0
C58 C 0.86329 0.90181 0.99899 0.0
O59 O 0.87035 0.63638 0.09651 0.0
C60 C 0.98577 0.66793 0.94233 0.0
C61 C 0.05246 0.71598 0.87328 0.0
C62 C 0.99103 0.68749 0.89469 0.0
C63 C 0.04308 0.67696 0.96852 0.0
C64 C 0.1053 0.70271 0.94736 0.0
C65 C 0.10923 0.7208 0.90004 0.0
C66 C 0.63505 0.87795 0.88424 0.0
O67 O 0.5956 0.81942 0.91208 0.0
O68 O 0.9182 0.58987 1.00537 0.0
O69 O 0.8714 0.70404 0.95444 0.0
H70 H 0.53658 0.81205 0.9914 0.0
H71 H 0.4098 0.78492 0.10893 0.0
H72 H 0.60723 0.90331 0.11259 0.0
H73 H 0.94695 0.68282 0.87433 0.0
H74 H 0.03944 0.66395 1.00512 0.0
H75 H 0.15691 0.74186 0.88379 0.0
C76 C 0.0525 0.6411 0.43823 0.0
C77 C 0.99795 0.64336 0.46729 0.0
C78 C 0.93288 0.63821 0.4511 0.0
C79 C 0.92321 0.62519 0.40645 0.0
C80 C 0.97703 0.63006 0.37577 0.0
C81 C 0.04217 0.63644 0.39251 0.0
O82 O 0.23218 0.83063 0.50904 0.0
Tb83 Tb 0.17652 0.69448 0.52255 0.0
O84 O 0.11498 0.68709 0.58295 0.0
O85 O 0.26351 0.95682 0.45664 0.0
Eu86 Eu 0.35865 0.86856 0.46546 0.0
O87 O 0.14297 0.58845 0.48681 0.0
C88 C 0.42217 0.89831 0.53652 0.0
O89 O 0.13295 0.74537 0.45971 0.0
O90 O 0.31399 0.71661 0.47412 0.0
O91 O 0.27043 0.61541 0.53484 0.0
C92 C 0.12008 0.65598 0.45384 0.0
C93 C 0.40469 0.91656 0.36502 0.0
O94 O 0.35033 0.96988 0.36382 0.0
C95 C 0.21493 0.91177 0.48172 0.0
C96 C 0.32316 0.64731 0.50989 0.0
O97 O 0.42391 0.86624 0.40423 0.0
C98 C 0.48573 0.87308 0.55927 0.0
C99 C 0.55117 0.84821 0.62833 0.0
C100 C 0.4911 0.8747 0.60543 0.0
C101 C 0.54006 0.84424 0.53563 0.0
C102 C 0.60131 0.82045 0.55748 0.0
C103 C 0.60637 0.8227 0.60393 0.0
C104 C 0.13819 0.73083 0.61493 0.0
O105 O 0.19585 0.77686 0.60809 0.0
O106 O 0.42476 0.95897 0.49734 0.0
O107 O 0.38084 0.82494 0.53697 0.0
H108 H 1.00627 0.65469 0.50155 0.0
H109 H 0.87264 0.61519 0.39542 0.0
H110 H 0.0849 0.64224 0.36992 0.0
H111 H 0.44843 0.897 0.6234 0.0
H112 H 0.53407 0.83979 0.50026 0.0
H113 H 0.65326 0.80447 0.62127 0.0
C114 C 0.57129 0.1655 0.45961 0.0
C115 C 0.51589 0.17641 0.48756 0.0
C116 C 0.45238 0.20005 0.46846 0.0
C117 C 0.44546 0.21123 0.4214 0.0
C118 C 0.50045 0.20589 0.39288 0.0
C119 C 0.56326 0.18129 0.41233 0.0
O120 O 0.68793 0.32766 0.54925 0.0
Tb121 Tb 0.7104 0.17906 0.54025 0.0
O122 O 0.6634 0.13896 0.60607 0.0
O123 O 0.72991 0.41836 0.484 0.0
Eu124 Eu 0.82776 0.33762 0.48764 0.0
O125 O 0.64015 0.08495 0.51975 0.0
C126 C 0.90877 0.36364 0.55191 0.0
O127 O 0.68397 0.2083 0.47172 0.0
O128 O 0.83661 0.18512 0.47458 0.0
O129 O 0.80911 0.10951 0.54532 0.0
C130 C 0.6382 0.13859 0.47869 0.0
C131 C 0.92005 0.36789 0.40197 0.0
O132 O 0.96095 0.31379 0.43014 0.0
C133 C 0.68488 0.40436 0.51643 0.0
C134 C 0.847 0.11446 0.50903 0.0
O135 O 0.86378 0.39765 0.41739 0.0
C136 C 0.97175 0.32552 0.57478 0.0
C137 C 0.0354 0.27633 0.64465 0.0
C138 C 0.97513 0.30722 0.62255 0.0
C139 C 0.02964 0.31262 0.54948 0.0
C140 C 0.09082 0.28448 0.57121 0.0
C141 C 0.0926 0.2674 0.61865 0.0
C142 C 0.6883 0.17986 0.63833 0.0
O143 O 0.74386 0.2308 0.63002 0.0
O144 O 0.91359 0.41129 0.50986 0.0
O145 O 0.85502 0.30797 0.55934 0.0
H146 H 0.52236 0.1671 0.52385 0.0
H147 H 0.39619 0.22319 0.4066 0.0
H148 H 0.60613 0.17579 0.39078 0.0
H149 H 0.9311 0.31681 0.64238 0.0
H150 H 0.02713 0.32549 0.51291 0.0
H151 H 0.13965 0.24982 0.63595 0.0
H152 H 0.74998 0.11807 0.96945 0.0
H153 H 0.61309 0.27984 0.03856 0.0
H154 H 0.70665 0.33987 0.07816 0.0
H155 H 0.82845 0.35646 0.08775 0.0
H156 H 0.96336 0.1997 0.01419 0.0
H157 H 0.86867 0.13764 0.97763 0.0
C158 C 0.74054 0.16664 0.99315 0.0
C159 C 0.67501 0.19543 1.00069 0.0
C160 C 0.79428 0.20442 0.01384 0.0
C161 C 0.66324 0.25609 0.03243 0.0
C162 C 0.71674 0.2914 0.05459 0.0
C163 C 0.83727 0.30668 0.06456 0.0
C164 C 0.90317 0.28282 0.05391 0.0
C165 C 0.78267 0.26747 0.04479 0.0
C166 C 0.91352 0.22044 0.02276 0.0
C167 C 0.85957 0.1827 1.00261 0.0
H168 H 0.23179 0.63427 0.93867 0.0
H169 H 0.11531 0.81313 0.01277 0.0
H170 H 0.21714 0.86232 0.04731 0.0
H171 H 0.33845 0.86138 0.05344 0.0
H172 H 0.45692 0.67732 0.9832 0.0
H173 H 0.35509 0.62742 0.94794 0.0
C174 C 0.22881 0.68326 0.96276 0.0
C175 C 0.16596 0.71967 0.97336 0.0
C176 C 0.28781 0.71201 0.98218 0.0
C177 C 0.16272 0.78283 1.00466 0.0
C178 C 0.22104 0.81199 0.02391 0.0
C179 C 0.34233 0.80874 0.0311 0.0
C180 C 0.40554 0.77159 0.02177 0.0
C181 C 0.28372 0.77793 0.0125 0.0
C182 C 0.40924 0.70694 0.99109 0.0
C183 C 0.35091 0.67768 0.97133 0.0
H184 H 0.69981 0.68768 0.58671 0.0
H185 H 0.63547 0.89653 0.4698 0.0
H186 H 0.72975 0.85301 0.42655 0.0
H187 H 0.8318 0.76048 0.42226 0.0
H188 H 0.90673 0.57151 0.54158 0.0
H189 H 0.80767 0.60492 0.58415 0.0
C190 C 0.7068 0.72514 0.55205 0.0
C191 C 0.65984 0.79466 0.53161 0.0
C192 C 0.76299 0.70337 0.52782 0.0
C193 C 0.6695 0.84078 0.48626 0.0
C194 C 0.7239 0.81683 0.46152 0.0
C195 C 0.82599 0.72535 0.45743 0.0
C196 C 0.87471 0.6596 0.47817 0.0
C197 C 0.77085 0.74842 0.482 0.0
C198 C 0.86843 0.61894 0.52436 0.0
C199 C 0.81215 0.63877 0.54877 0.0
H200 H 0.19533 0.15694 0.59339 0.0
H201 H 0.13021 0.39703 0.49027 0.0
H202 H 0.23775 0.39695 0.45192 0.0
H203 H 0.35073 0.33141 0.44829 0.0
H204 H 0.41748 0.0949 0.55238 0.0
H205 H 0.31008 0.09556 0.59129 0.0
C206 C 0.20463 0.21042 0.56287 0.0
C207 C 0.15428 0.27795 0.54531 0.0
C208 C 0.26738 0.21173 0.54153 0.0
C209 C 0.16726 0.34391 0.50472 0.0
C210 C 0.22921 0.34462 0.48293 0.0
C211 C 0.34182 0.27922 0.47931 0.0
C212 C 0.3917 0.21065 0.49638 0.0
C213 C 0.27969 0.27929 0.5012 0.0
C214 C 0.37998 0.14718 0.53783 0.0
C215 C 0.31827 0.14715 0.56 0.0
H216 H 0.62794 0.51216 0.051 0.0
H217 H 0.63121 0.6157 0.90661 0.0
H218 H 0.52193 0.54148 0.89973 0.0
H219 H 0.42074 0.45785 0.93582 0.0
H220 H 0.41678 0.36383 0.08047 0.0
H221 H 0.53048 0.42217 0.08621 0.0
C222 C 0.60534 0.51688 0.01794 0.0
C223 C 0.63749 0.56967 0.97951 0.0
C224 C 0.54184 0.47601 0.01429 0.0
C225 C 0.60725 0.5758 0.93688 0.0
C226 C 0.54463 0.53362 0.93286 0.0
C227 C 0.44523 0.4497 0.9684 0.0
C228 C 0.41111 0.40468 0.00765 0.0
C229 C 0.51064 0.4855 0.97149 0.0
C230 C 0.44302 0.39491 0.04972 0.0
C231 C 0.50778 0.42953 0.05309 0.0
H232 H 0.57103 0.37415 0.56635 0.0
H233 H 0.6669 0.58398 0.46161 0.0
H234 H 0.56476 0.68239 0.45239 0.0
H235 H 0.44468 0.70079 0.46975 0.0
H236 H 0.35032 0.4867 0.57355 0.0
H237 H 0.45517 0.39815 0.58713 0.0
C238 C 0.57016 0.4421 0.54189 0.0
C239 C 0.6266 0.47111 0.51452 0.0
C240 C 0.51101 0.49712 0.53614 0.0
C241 C 0.62409 0.55936 0.48292 0.0
C242 C 0.56558 0.61559 0.47753 0.0
C243 C 0.44728 0.63537 0.49562 0.0
C244 C 0.38936 0.60046 0.52039 0.0
C245 C 0.50812 0.58394 0.50322 0.0
C246 C 0.39386 0.51563 0.55396 0.0
C247 C 0.4539 0.46457 0.56175 0.0
H248 H 0.1381 0.12209 0.95691 0.0
H249 H 0.16151 0.02663 0.10051 0.0
H250 H 0.04871 0.95637 0.10579 0.0
H251 H 0.94595 0.91604 0.06873 0.0
H252 H 0.92544 1.0052 0.92409 0.0
H253 H 0.03454 0.08575 0.91994 0.0
C254 C 0.11774 0.08847 0.98943 0.0
C255 C 0.15721 0.08118 0.02831 0.0
C256 C 0.0538 0.04642 0.99187 0.0
C257 C 0.13155 0.03358 0.07016 0.0
C258 C 0.06729 0.99328 0.07314 0.0
C259 C 0.96519 0.95351 0.03632 0.0
C260 C 0.92741 0.95535 0.99684 0.0
C261 C 0.02835 0.99816 0.03408 0.0
C262 C 0.95325 1.00355 0.95504 0.0
C263 C 1.01567 0.04938 0.95262 0.0
H264 H 0.93699 0.12199 0.44064 0.0
H265 H 0.89701 0.97433 0.57754 0.0
H266 H 1.00594 0.89316 0.5797 0.0
H267 H 0.11616 0.87635 0.54466 0.0
H268 H 0.15797 0.03265 0.41006 0.0
H269 H 0.04511 0.10131 0.40531 0.0
C270 C 0.9518 0.07209 0.47107 0.0
C271 C 0.90894 0.05538 0.50913 0.0
C272 C 1.01516 0.0284 0.47254 0.0
C273 C 0.92888 0.98892 0.54784 0.0
C274 C 0.99134 0.94288 0.54914 0.0
C275 C 0.09998 0.9233 0.51403 0.0
C276 C 0.14505 0.94787 0.47762 0.0
C277 C 0.03537 0.96363 0.51198 0.0
C278 C 0.12419 0.0121 0.43851 0.0
C279 C 0.05965 0.05128 0.43579 0.0
H280 H 0.55414 0.11275 0.32751 0.0
H281 H 0.42447 0.35077 0.34552 0.0
H282 H 0.38853 0.37014 0.26741 0.0
H283 H 0.3839 0.30831 0.19704 0.0
H284 H 0.52119 0.08449 0.17364 0.0
H285 H 0.56576 0.07286 0.25038 0.0
C286 C 0.51927 0.17029 0.31406 0.0
C287 C 0.49011 0.22763 0.34299 0.0
C288 C 0.49973 0.18311 0.26833 0.0
C289 C 0.44566 0.30282 0.32463 0.0
C290 C 0.42529 0.31455 0.27982 0.0
C291 C 0.42402 0.25746 0.20851 0.0
C292 C 0.44703 0.19403 0.18063 0.0
C293 C 0.45015 0.25288 0.25193 0.0
C294 C 0.50117 0.13199 0.19512 0.0
C295 C 0.52665 0.12536 0.23898 0.0
H296 H 0.56877 0.81265 0.19874 0.0
H297 H 0.39598 0.9503 0.12874 0.0
H298 H 0.35097 0.98515 0.19907 0.0
H299 H 0.35783 0.97348 0.28028 0.0
H300 H 0.52655 0.83219 0.35354 0.0
H301 H 0.57669 0.80439 0.28235 0.0
C302 C 0.52193 0.85163 0.19898 0.0
C303 C 0.48574 0.87839 0.15849 0.0
C304 C 0.49548 0.87098 0.24013 0.0
C305 C 0.42458 0.92793 0.15944 0.0
C306 C 0.39855 0.94773 0.19969 0.0
C307 C 0.40577 0.93696 0.28086 0.0
C308 C 0.43825 0.90488 0.32222 0.0
C309 C 0.43319 0.91904 0.24023 0.0
C310 C 0.50035 0.85754 0.32212 0.0
C311 C 0.52897 0.84144 0.28141 0.0
H312 H 0.65474 0.9129 0.6732 0.0
H313 H 0.4587 0.78156 0.69415 0.0
H314 H 0.46583 0.78351 0.77501 0.0
H315 H 0.52834 0.82097 0.83982 0.0
H316 H 0.72281 0.95755 0.81787 0.0
H317 H 0.71566 0.95455 0.73733 0.0
C318 C 0.61398 0.88319 0.69552 0.0
C319 C 0.55626 0.84735 0.67761 0.0
C320 C 0.61814 0.88532 0.74182 0.0
C321 C 0.50325 0.81127 0.70693 0.0
C322 C 0.50739 0.81191 0.75319 0.0
C323 C 0.56887 0.85089 0.81734 0.0
C324 C 0.62611 0.88881 0.8349 0.0
C325 C 0.56445 0.84928 0.77096 0.0
C326 C 0.67813 0.92774 0.80531 0.0
C327 C 0.67446 0.9252 0.75927 0.0
H328 H 0.53224 0.09259 0.82417 0.0
H329 H 0.66512 0.32155 0.84988 0.0
H330 H 0.70969 0.34062 0.77381 0.0
H331 H 0.71889 0.2828 0.70285 0.0
H332 H 0.57421 0.07776 0.66954 0.0
H333 H 0.52404 0.06233 0.74524 0.0
C334 C 0.5698 0.14817 0.8129 0.0
C335 C 0.59794 0.20139 0.84381 0.0
C336 C 0.59343 0.16268 0.76794 0.0
C337 C 0.64538 0.27495 0.82792 0.0
C338 C 0.67057 0.28696 0.78415 0.0
C339 C 0.6765 0.23428 0.71202 0.0
C340 C 0.65289 0.17667 0.68178 0.0
C341 C 0.64673 0.22869 0.75453 0.0
C342 C 0.59548 0.11886 0.69328 0.0
C343 C 0.56646 0.11076 0.73636 0.0
H344 H 0.86767 0.70745 0.32822 0.0
H345 H 0.05743 0.57126 0.30998 0.0
H346 H 0.03194 0.579 0.23011 0.0
H347 H 0.9502 0.60907 0.16696 0.0
H348 H 0.75553 0.72398 0.19123 0.0
H349 H 0.78701 0.73249 0.26814 0.0
C350 C 0.90307 0.67584 0.30773 0.0
C351 C 0.96375 0.63608 0.32631 0.0
C352 C 0.88645 0.67439 0.26277 0.0
C353 C 1.01028 0.60277 0.29727 0.0
C354 C 0.99551 0.60635 0.25143 0.0
C355 C 0.91471 0.63556 0.1892 0.0
C356 C 0.85036 0.66497 0.17332 0.0
C357 C 0.93282 0.63935 0.2341 0.0
C358 C 0.80517 0.7 0.20247 0.0
C359 C 0.82317 0.70542 0.24652 0.0
H360 H 0.03121 0.32293 0.35725 0.0
H361 H 0.83123 0.43843 0.33573 0.0
H362 H 0.84242 0.44266 0.25486 0.0
H363 H 0.90852 0.4151 0.19018 0.0
H364 H 0.10832 0.29878 0.21055 0.0
H365 H 0.09843 0.29716 0.29161 0.0
C366 C 0.99034 0.34979 0.33479 0.0
C367 C 0.9305 0.38007 0.3526 0.0
C368 C 0.99716 0.35277 0.28803 0.0
C369 C 0.87794 0.41465 0.32304 0.0
C370 C 0.88403 0.41651 0.27674 0.0
C371 C 0.94975 0.38819 0.2123 0.0
C372 C 1.00903 0.35715 0.19406 0.0
C373 C 0.94331 0.3856 0.2589 0.0
C374 C 0.06245 0.32487 0.22334 0.0
C375 C 0.05663 0.32295 0.26985 0.0
H376 H 0.14964 0.15591 0.84014 0.0
H377 H 0.06737 0.435 0.85406 0.0
H378 H 1.01255 0.44801 0.78063 0.0
H379 H 1.00391 0.39248 0.70645 0.0
H380 H 0.08442 0.11056 0.69515 0.0
H381 H 0.12412 0.08703 0.77292 0.0
C382 C 0.11951 0.21962 0.82713 0.0
C383 C 0.11405 0.29553 0.85195 0.0
C384 C 0.08872 0.22716 0.78472 0.0
C385 C 0.07322 0.37613 0.83531 0.0
C386 C 0.04233 0.38412 0.79301 0.0
C387 C 0.02827 0.32477 0.72157 0.0
C388 C 0.04211 0.25399 0.69483 0.0
C389 C 0.05177 0.31187 0.76655 0.0
C390 C 0.07393 0.1666 0.71487 0.0
C391 C 0.09702 0.15329 0.75927 0.0
H392 H 0.15628 0.85082 0.6747 0.0
H393 H 0.03904 0.60368 0.65261 0.0
H394 H 0.99261 0.58594 0.7292 0.0
H395 H 1.00228 0.62238 0.80737 0.0
H396 H 0.11689 0.87495 0.82628 0.0
H397 H 0.14892 0.90636 0.74679 0.0
C398 C 0.12061 0.79278 0.68664 0.0
C399 C 0.10271 0.72681 0.65854 0.0
C400 C 0.0955 0.7816 0.7309 0.0
C401 C 0.05468 0.65428 0.67394 0.0
C402 C 0.02882 0.64324 0.71802 0.0
C403 C 0.03301 0.68541 0.79381 0.0
C404 C 0.05913 0.74412 0.82316 0.0
C405 C 0.05124 0.7037 0.74757 0.0
C406 C 0.09811 0.82647 0.80484 0.0
C407 C 0.11636 0.84478 0.75931 0.0
loop_
_geom_bond_atom_site_label_1
_geom_bond_atom_site_label_2
_geom_bond_distance
_geom_bond_site_symmetry_2
_ccdc_geom_bond_type
C0 C1 1.387 1_455 S
C0 C5 1.380 . S
C0 C16 1.494 . S
C1 C0 1.387 1_655 S
C1 C2 1.386 . S
C1 H32 0.930 . S
C2 C1 1.386 . S
C2 C3 1.397 . S
C3 C2 1.397 . S
C3 C4 1.393 1_655 S
C3 H33 0.930 . S
C4 C3 1.393 1_455 S
C4 C5 1.395 . S
C5 C0 1.380 . S
C5 C4 1.395 . S
C5 H34 0.930 . S
O6 Tb7 2.295 . S
O6 C19 1.239 1_556 S
Tb7 O6 2.295 . S
Tb7 O8 2.312 . S
Tb7 O11 2.438 . S
Tb7 O13 2.472 1_556 S
Tb7 O15 2.308 . S
Tb7 C16 2.821 1_556 S
O8 Tb7 2.312 . S
O8 C28 1.264 . S
O9 Eu10 2.308 . S
O9 C19 1.249 . S
Eu10 O9 2.308 . S
Eu10 C12 2.821 1_554 S
Eu10 O14 2.295 . S
Eu10 O21 2.312 . S
Eu10 O30 2.438 . S
Eu10 O31 2.472 1_554 S
O11 Tb7 2.438 . S
O11 C16 1.263 1_556 S
C12 Eu10 2.821 1_556 S
C12 C22 1.494 . S
C12 O30 1.263 1_556 S
C12 O31 1.264 . S
O13 Tb7 2.472 1_554 S
O13 C16 1.264 . S
O14 Eu10 2.295 . S
O14 C20 1.242 . S
O15 Tb7 2.308 . S
O15 C20 1.243 1_556 S
C16 C0 1.494 . S
C16 Tb7 2.821 1_554 S
C16 O11 1.263 1_554 S
C16 O13 1.264 . S
C17 O18 1.260 . S
C17 O21 1.264 . S
O18 C17 1.260 . S
C19 O6 1.239 1_554 S
C19 O9 1.249 . S
C20 O14 1.242 . S
C20 O15 1.243 1_554 S
O21 Eu10 2.312 . S
O21 C17 1.264 . S
C22 C12 1.494 . S
C22 C24 1.380 . S
C22 C25 1.387 . S
C23 C24 1.395 . S
C23 C27 1.393 . S
C24 C22 1.380 . S
C24 C23 1.395 . S
C24 H35 0.930 . S
C25 C22 1.387 . S
C25 C26 1.386 . S
C25 H36 0.930 . S
C26 C25 1.386 . S
C26 C27 1.397 . S
C27 C23 1.393 . S
C27 C26 1.397 . S
C27 H37 0.930 . S
C28 O8 1.264 . S
C28 O29 1.260 . S
O29 C28 1.260 . S
O30 Eu10 2.438 . S
O30 C12 1.263 1_554 S
O31 Eu10 2.472 1_556 S
O31 C12 1.264 . S
H32 C1 0.930 . S
H33 C3 0.930 . S
H34 C5 0.930 . S
H35 C24 0.930 . S
H36 C25 0.930 . S
H37 C27 0.930 . S
C38 C39 1.387 . S
C38 C43 1.380 . S
C38 C54 1.494 . S
C39 C38 1.387 . S
C39 C40 1.386 . S
C39 H70 0.930 . S
C40 C39 1.386 . S
C40 C41 1.397 . S
C41 C40 1.397 . S
C41 C42 1.393 . S
C41 H71 0.930 . S
C42 C41 1.393 . S
C42 C43 1.395 . S
C43 C38 1.380 . S
C43 C42 1.395 . S
C43 H72 0.930 . S
O44 Tb45 2.295 . S
O44 C57 1.239 1_556 S
Tb45 O44 2.295 . S
Tb45 O46 2.312 . S
Tb45 O49 2.438 . S
Tb45 O51 2.472 1_556 S
Tb45 O53 2.308 . S
Tb45 C54 2.821 1_556 S
O46 Tb45 2.312 . S
O46 C66 1.264 . S
O47 Eu48 2.308 . S
O47 C57 1.249 . S
Eu48 O47 2.308 . S
Eu48 C50 2.821 1_554 S
Eu48 O52 2.295 . S
Eu48 O59 2.312 . S
Eu48 O68 2.438 . S
Eu48 O69 2.472 1_554 S
O49 Tb45 2.438 . S
O49 C54 1.263 1_556 S
C50 Eu48 2.821 1_556 S
C50 C60 1.494 . S
C50 O68 1.263 1_556 S
C50 O69 1.264 . S
O51 Tb45 2.472 1_554 S
O51 C54 1.264 . S
O52 Eu48 2.295 . S
O52 C58 1.242 . S
O53 Tb45 2.308 . S
O53 C58 1.243 1_556 S
C54 C38 1.494 . S
C54 Tb45 2.821 1_554 S
C54 O49 1.263 1_554 S
C54 O51 1.264 . S
C55 O56 1.260 . S
C55 O59 1.264 . S
O56 C55 1.260 . S
C57 O44 1.239 1_554 S
C57 O47 1.249 . S
C58 O52 1.242 . S
C58 O53 1.243 1_554 S
O59 Eu48 2.312 . S
O59 C55 1.264 . S
C60 C50 1.494 . S
C60 C62 1.380 . S
C60 C63 1.387 1_655 S
C61 C62 1.395 . S
C61 C65 1.393 1_655 S
C62 C60 1.380 . S
C62 C61 1.395 . S
C62 H73 0.930 . S
C63 C60 1.387 1_455 S
C63 C64 1.386 . S
C63 H74 0.930 . S
C64 C63 1.386 . S
C64 C65 1.397 . S
C65 C61 1.393 1_455 S
C65 C64 1.397 . S
C65 H75 0.930 . S
C66 O46 1.264 . S
C66 O67 1.260 . S
O67 C66 1.260 . S
O68 Eu48 2.438 . S
O68 C50 1.263 1_554 S
O69 Eu48 2.472 1_556 S
O69 C50 1.264 . S
H70 C39 0.930 . S
H71 C41 0.930 . S
H72 C43 0.930 . S
H73 C62 0.930 . S
H74 C63 0.930 . S
H75 C65 0.930 . S
C76 C77 1.387 1_455 S
C76 C81 1.380 . S
C76 C92 1.494 . S
C77 C76 1.387 1_655 S
C77 C78 1.386 . S
C77 H108 0.930 . S
C78 C77 1.386 . S
C78 C79 1.397 . S
C79 C78 1.397 . S
C79 C80 1.393 1_655 S
C79 H109 0.930 . S
C80 C79 1.393 1_455 S
C80 C81 1.395 . S
C81 C76 1.380 . S
C81 C80 1.395 . S
C81 H110 0.930 . S
O82 Tb83 2.295 . S
O82 C95 1.242 . S
Tb83 O82 2.295 . S
Tb83 O84 2.312 . S
Tb83 O87 2.438 . S
Tb83 O89 2.472 . S
Tb83 O91 2.308 . S
Tb83 C92 2.821 . S
O84 Tb83 2.312 . S
O84 C104 1.264 . S
O85 Eu86 2.308 . S
O85 C95 1.243 . S
Eu86 O85 2.308 . S
Eu86 C88 2.821 . S
Eu86 O90 2.295 . S
Eu86 O97 2.312 . S
Eu86 O106 2.438 . S
Eu86 O107 2.472 . S
O87 Tb83 2.438 . S
O87 C92 1.263 . S
C88 Eu86 2.821 . S
C88 C98 1.494 . S
C88 O106 1.263 . S
C88 O107 1.264 . S
O89 Tb83 2.472 . S
O89 C92 1.264 . S
O90 Eu86 2.295 . S
O90 C96 1.242 . S
O91 Tb83 2.308 . S
O91 C96 1.243 . S
C92 C76 1.494 . S
C92 Tb83 2.821 . S
C92 O87 1.263 . S
C92 O89 1.264 . S
C93 O94 1.260 . S
C93 O97 1.264 . S
O94 C93 1.260 . S
C95 O82 1.242 . S
C95 O85 1.243 . S
C96 O90 1.242 . S
C96 O91 1.243 . S
O97 Eu86 2.312 . S
O97 C93 1.264 . S
C98 C88 1.494 . S
C98 C100 1.380 . S
C98 C101 1.387 . S
C99 C100 1.395 . S
C99 C103 1.393 . S
C100 C98 1.380 . S
C100 C99 1.395 . S
C100 H111 0.930 . S
C101 C98 1.387 . S
C101 C102 1.386 . S
C101 H112 0.930 . S
C102 C101 1.386 . S
C102 C103 1.397 . S
C103 C99 1.393 . S
C103 C102 1.397 . S
C103 H113 0.930 . S
C104 O84 1.264 . S
C104 O105 1.260 . S
O105 C104 1.260 . S
O106 Eu86 2.438 . S
O106 C88 1.263 . S
O107 Eu86 2.472 . S
O107 C88 1.264 . S
H108 C77 0.930 . S
H109 C79 0.930 . S
H110 C81 0.930 . S
H111 C100 0.930 . S
H112 C101 0.930 . S
H113 C103 0.930 . S
C114 C115 1.387 . S
C114 C119 1.380 . S
C114 C130 1.494 . S
C115 C114 1.387 . S
C115 C116 1.386 . S
C115 H146 0.930 . S
C116 C115 1.386 . S
C116 C117 1.397 . S
C117 C116 1.397 . S
C117 C118 1.393 . S
C117 H147 0.930 . S
C118 C117 1.393 . S
C118 C119 1.395 . S
C119 C114 1.380 . S
C119 C118 1.395 . S
C119 H148 0.930 . S
O120 Tb121 2.295 . S
O120 C133 1.242 . S
Tb121 O120 2.295 . S
Tb121 O122 2.312 . S
Tb121 O125 2.438 . S
Tb121 O127 2.472 . S
Tb121 O129 2.308 . S
Tb121 C130 2.821 . S
O122 Tb121 2.312 . S
O122 C142 1.264 . S
O123 Eu124 2.308 . S
O123 C133 1.243 . S
Eu124 O123 2.308 . S
Eu124 C126 2.821 . S
Eu124 O128 2.295 . S
Eu124 O135 2.312 . S
Eu124 O144 2.438 . S
Eu124 O145 2.472 . S
O125 Tb121 2.438 . S
O125 C130 1.263 . S
C126 Eu124 2.821 . S
C126 C136 1.494 . S
C126 O144 1.263 . S
C126 O145 1.264 . S
O127 Tb121 2.472 . S
O127 C130 1.264 . S
O128 Eu124 2.295 . S
O128 C134 1.242 . S
O129 Tb121 2.308 . S
O129 C134 1.243 . S
C130 C114 1.494 . S
C130 Tb121 2.821 . S
C130 O125 1.263 . S
C130 O127 1.264 . S
C131 O132 1.260 . S
C131 O135 1.264 . S
O132 C131 1.260 . S
C133 O120 1.242 . S
C133 O123 1.243 . S
C134 O128 1.242 . S
C134 O129 1.243 . S
O135 Eu124 2.312 . S
O135 C131 1.264 . S
C136 C126 1.494 . S
C136 C138 1.380 . S
C136 C139 1.387 1_655 S
C137 C138 1.395 . S
C137 C141 1.393 1_655 S
C138 C136 1.380 . S
C138 C137 1.395 . S
C138 H149 0.930 . S
C139 C136 1.387 1_455 S
C139 C140 1.386 . S
C139 H150 0.930 . S
C140 C139 1.386 . S
C140 C141 1.397 . S
C141 C137 1.393 1_455 S
C141 C140 1.397 . S
C141 H151 0.930 . S
C142 O122 1.264 . S
C142 O143 1.260 . S
O143 C142 1.260 . S
O144 Eu124 2.438 . S
O144 C126 1.263 . S
O145 Eu124 2.472 . S
O145 C126 1.264 . S
H146 C115 0.930 . S
H147 C117 0.930 . S
H148 C119 0.930 . S
H149 C138 0.930 . S
H150 C139 0.930 . S
H151 C141 0.930 . S
H152 C158 0.930 . S
H153 C161 0.930 . S
H154 C162 0.930 . S
H155 C163 0.930 . S
H156 C166 0.930 . S
H157 C167 0.930 . S
C158 H152 0.930 . S
C158 C159 1.355 . S
C158 C160 1.415 1_556 S
C159 C158 1.355 . S
C159 C161 1.419 . S
C160 C158 1.415 1_554 S
C160 C165 1.425 1_554 S
C160 C167 1.409 . S
C161 H153 0.930 . S
C161 C159 1.419 . S
C161 C162 1.362 . S
C162 H154 0.930 . S
C162 C161 1.362 . S
C162 C165 1.409 . S
C163 H155 0.930 . S
C163 C164 1.355 . S
C163 C165 1.415 1_554 S
C164 C163 1.355 . S
C164 C166 1.419 . S
C165 C160 1.425 1_556 S
C165 C162 1.409 . S
C165 C163 1.415 1_556 S
C166 H156 0.930 . S
C166 C164 1.419 . S
C166 C167 1.362 . S
C167 H157 0.930 . S
C167 C160 1.409 . S
C167 C166 1.362 . S
H168 C174 0.930 . S
H169 C177 0.930 . S
H170 C178 0.930 . S
H171 C179 0.930 . S
H172 C182 0.930 . S
H173 C183 0.930 . S
C174 H168 0.930 . S
C174 C175 1.355 . S
C174 C176 1.415 . S
C175 C174 1.355 . S
C175 C177 1.419 . S
C176 C174 1.415 . S
C176 C181 1.425 1_556 S
C176 C183 1.409 . S
C177 H169 0.930 . S
C177 C175 1.419 . S
C177 C178 1.362 1_556 S
C178 H170 0.930 . S
C178 C177 1.362 1_554 S
C178 C181 1.409 . S
C179 H171 0.930 . S
C179 C180 1.355 . S
C179 C181 1.415 . S
C180 C179 1.355 . S
C180 C182 1.419 . S
C181 C176 1.425 1_554 S
C181 C178 1.409 . S
C181 C179 1.415 . S
C182 H172 0.930 . S
C182 C180 1.419 . S
C182 C183 1.362 1_554 S
C183 H173 0.930 . S
C183 C176 1.409 . S
C183 C182 1.362 1_556 S
H184 C190 0.930 . S
H185 C193 0.930 . S
H186 C194 0.930 . S
H187 C195 0.930 . S
H188 C198 0.930 . S
H189 C199 0.930 . S
C190 H184 0.930 . S
C190 C191 1.355 . S
C190 C192 1.415 . S
C191 C190 1.355 . S
C191 C193 1.419 . S
C192 C190 1.415 . S
C192 C197 1.425 . S
C192 C199 1.409 . S
C193 H185 0.930 . S
C193 C191 1.419 . S
C193 C194 1.362 . S
C194 H186 0.930 . S
C194 C193 1.362 . S
C194 C197 1.409 . S
C195 H187 0.930 . S
C195 C196 1.355 . S
C195 C197 1.415 . S
C196 C195 1.355 . S
C196 C198 1.419 . S
C197 C192 1.425 . S
C197 C194 1.409 . S
C197 C195 1.415 . S
C198 H188 0.930 . S
C198 C196 1.419 . S
C198 C199 1.362 . S
C199 H189 0.930 . S
C199 C192 1.409 . S
C199 C198 1.362 . S
H200 C206 0.930 . S
H201 C209 0.930 . S
H202 C210 0.930 . S
H203 C211 0.930 . S
H204 C214 0.930 . S
H205 C215 0.930 . S
C206 H200 0.930 . S
C206 C207 1.355 . S
C206 C208 1.415 . S
C207 C206 1.355 . S
C207 C209 1.419 . S
C208 C206 1.415 . S
C208 C213 1.425 . S
C208 C215 1.409 . S
C209 H201 0.930 . S
C209 C207 1.419 . S
C209 C210 1.362 . S
C210 H202 0.930 . S
C210 C209 1.362 . S
C210 C213 1.409 . S
C211 H203 0.930 . S
C211 C212 1.355 . S
C211 C213 1.415 . S
C212 C211 1.355 . S
C212 C214 1.419 . S
C213 C208 1.425 . S
C213 C210 1.409 . S
C213 C211 1.415 . S
C214 H204 0.930 . S
C214 C212 1.419 . S
C214 C215 1.362 . S
C215 H205 0.930 . S
C215 C208 1.409 . S
C215 C214 1.362 . S
H216 C222 0.930 . S
H217 C225 0.930 . S
H218 C226 0.930 . S
H219 C227 0.930 . S
H220 C230 0.930 . S
H221 C231 0.930 . S
C222 H216 0.930 . S
C222 C223 1.355 1_554 S
C222 C224 1.415 . S
C223 C222 1.355 1_556 S
C223 C225 1.419 . S
C224 C222 1.415 . S
C224 C229 1.425 1_554 S
C224 C231 1.409 . S
C225 H217 0.930 . S
C225 C223 1.419 . S
C225 C226 1.362 . S
C226 H218 0.930 . S
C226 C225 1.362 . S
C226 C229 1.409 . S
C227 H219 0.930 . S
C227 C228 1.355 1_556 S
C227 C229 1.415 . S
C228 C227 1.355 1_554 S
C228 C230 1.419 . S
C229 C224 1.425 1_556 S
C229 C226 1.409 . S
C229 C227 1.415 . S
C230 H220 0.930 . S
C230 C228 1.419 . S
C230 C231 1.362 . S
C231 H221 0.930 . S
C231 C224 1.409 . S
C231 C230 1.362 . S
H232 C238 0.930 . S
H233 C241 0.930 . S
H234 C242 0.930 . S
H235 C243 0.930 . S
H236 C246 0.930 . S
H237 C247 0.930 . S
C238 H232 0.930 . S
C238 C239 1.355 . S
C238 C240 1.415 . S
C239 C238 1.355 . S
C239 C241 1.419 . S
C240 C238 1.415 . S
C240 C245 1.425 . S
C240 C247 1.409 . S
C241 H233 0.930 . S
C241 C239 1.419 . S
C241 C242 1.362 . S
C242 H234 0.930 . S
C242 C241 1.362 . S
C242 C245 1.409 . S
C243 H235 0.930 . S
C243 C244 1.355 . S
C243 C245 1.415 . S
C244 C243 1.355 . S
C244 C246 1.419 . S
C245 C240 1.425 . S
C245 C242 1.409 . S
C245 C243 1.415 . S
C246 H236 0.930 . S
C246 C244 1.419 . S
C246 C247 1.362 . S
C247 H237 0.930 . S
C247 C240 1.409 . S
C247 C246 1.362 . S
H248 C254 0.930 . S
H249 C257 0.930 . S
H250 C258 0.930 . S
H251 C259 0.930 . S
H252 C262 0.930 . S
H253 C263 0.930 . S
C254 H248 0.930 . S
C254 C255 1.355 1_556 S
C254 C256 1.425 . S
C255 C254 1.355 1_554 S
C255 C257 1.419 1_545 S
C256 C254 1.425 . S
C256 C261 1.425 1_446 S
C256 C263 1.399 1_455 S
C257 H249 0.930 . S
C257 C255 1.419 1_565 S
C257 C258 1.362 . S
C258 H250 0.930 . S
C258 C257 1.362 . S
C258 C261 1.399 1_455 S
C259 H251 0.930 . S
C259 C260 1.356 . S
C259 C261 1.425 . S
C260 C259 1.356 . S
C260 C262 1.418 1_564 S
C261 C256 1.425 1_664 S
C261 C258 1.399 1_655 S
C261 C259 1.425 . S
C262 H252 0.930 . S
C262 C260 1.418 1_546 S
C262 C263 1.362 . S
C263 H253 0.930 . S
C263 C256 1.399 1_655 S
C263 C262 1.362 . S
H264 C270 0.930 . S
H265 C273 0.930 . S
H266 C274 0.930 . S
H267 C275 0.930 . S
H268 C278 0.930 . S
H269 C279 0.930 . S
C270 H264 0.930 . S
C270 C271 1.355 . S
C270 C272 1.415 1_655 S
C271 C270 1.355 . S
C271 C273 1.419 1_545 S
C272 C270 1.415 1_455 S
C272 C277 1.425 1_445 S
C272 C279 1.409 . S
C273 H265 0.930 . S
C273 C271 1.419 1_565 S
C273 C274 1.362 . S
C274 H266 0.930 . S
C274 C273 1.362 . S
C274 C277 1.409 . S
C275 H267 0.930 . S
C275 C276 1.355 . S
C275 C277 1.415 1_455 S
C276 C275 1.355 . S
C276 C278 1.419 1_565 S
C277 C272 1.425 1_665 S
C277 C274 1.409 . S
C277 C275 1.415 1_655 S
C278 H268 0.930 . S
C278 C276 1.419 1_545 S
C278 C279 1.362 . S
C279 H269 0.930 . S
C279 C272 1.409 . S
C279 C278 1.362 . S
H280 C286 0.930 . S
H281 C289 0.930 . S
H282 C290 0.930 . S
H283 C291 0.930 . S
H284 C294 0.930 . S
H285 C295 0.930 . S
C286 H280 0.930 . S
C286 C287 1.355 . S
C286 C288 1.415 . S
C287 C286 1.355 . S
C287 C289 1.419 . S
C288 C286 1.415 . S
C288 C293 1.425 . S
C288 C295 1.409 . S
C289 H281 0.930 . S
C289 C287 1.419 . S
C289 C290 1.362 . S
C290 H282 0.930 . S
C290 C289 1.362 . S
C290 C293 1.409 . S
C291 H283 0.930 . S
C291 C292 1.355 . S
C291 C293 1.415 . S
C292 C291 1.355 . S
C292 C294 1.419 . S
C293 C288 1.425 . S
C293 C290 1.409 . S
C293 C291 1.415 . S
C294 H284 0.930 . S
C294 C292 1.419 . S
C294 C295 1.362 . S
C295 H285 0.930 . S
C295 C288 1.409 . S
C295 C294 1.362 . S
H296 C302 0.930 . S
H297 C305 0.930 . S
H298 C306 0.930 . S
H299 C307 0.930 . S
H300 C310 0.930 . S
H301 C311 0.930 . S
C302 H296 0.930 . S
C302 C303 1.355 . S
C302 C304 1.415 . S
C303 C302 1.355 . S
C303 C305 1.419 . S
C304 C302 1.415 . S
C304 C309 1.425 . S
C304 C311 1.409 . S
C305 H297 0.930 . S
C305 C303 1.419 . S
C305 C306 1.362 . S
C306 H298 0.930 . S
C306 C305 1.362 . S
C306 C309 1.409 . S
C307 H299 0.930 . S
C307 C308 1.355 . S
C307 C309 1.415 . S
C308 C307 1.355 . S
C308 C310 1.419 . S
C309 C304 1.425 . S
C309 C306 1.409 . S
C309 C307 1.415 . S
C310 H300 0.930 . S
C310 C308 1.419 . S
C310 C311 1.362 . S
C311 H301 0.930 . S
C311 C304 1.409 . S
C311 C310 1.362 . S
H312 C318 0.930 . S
H313 C321 0.930 . S
H314 C322 0.930 . S
H315 C323 0.930 . S
H316 C326 0.930 . S
H317 C327 0.930 . S
C318 H312 0.930 . S
C318 C319 1.355 . S
C318 C320 1.415 . S
C319 C318 1.355 . S
C319 C321 1.419 . S
C320 C318 1.415 . S
C320 C325 1.425 . S
C320 C327 1.409 . S
C321 H313 0.930 . S
C321 C319 1.419 . S
C321 C322 1.362 . S
C322 H314 0.930 . S
C322 C321 1.362 . S
C322 C325 1.409 . S
C323 H315 0.930 . S
C323 C324 1.355 . S
C323 C325 1.415 . S
C324 C323 1.355 . S
C324 C326 1.419 . S
C325 C320 1.425 . S
C325 C322 1.409 . S
C325 C323 1.415 . S
C326 H316 0.930 . S
C326 C324 1.419 . S
C326 C327 1.362 . S
C327 H317 0.930 . S
C327 C320 1.409 . S
C327 C326 1.362 . S
H328 C334 0.930 . S
H329 C337 0.930 . S
H330 C338 0.930 . S
H331 C339 0.930 . S
H332 C342 0.930 . S
H333 C343 0.930 . S
C334 H328 0.930 . S
C334 C335 1.355 . S
C334 C336 1.415 . S
C335 C334 1.355 . S
C335 C337 1.419 . S
C336 C334 1.415 . S
C336 C341 1.425 . S
C336 C343 1.409 . S
C337 H329 0.930 . S
C337 C335 1.419 . S
C337 C338 1.362 . S
C338 H330 0.930 . S
C338 C337 1.362 . S
C338 C341 1.409 . S
C339 H331 0.930 . S
C339 C340 1.355 . S
C339 C341 1.415 . S
C340 C339 1.355 . S
C340 C342 1.419 . S
C341 C336 1.425 . S
C341 C338 1.409 . S
C341 C339 1.415 . S
C342 H332 0.930 . S
C342 C340 1.419 . S
C342 C343 1.362 . S
C343 H333 0.930 . S
C343 C336 1.409 . S
C343 C342 1.362 . S
H344 C350 0.930 . S
H345 C353 0.930 . S
H346 C354 0.930 . S
H347 C355 0.930 . S
H348 C358 0.930 . S
H349 C359 0.930 . S
C350 H344 0.930 . S
C350 C351 1.355 1_655 S
C350 C352 1.415 . S
C351 C350 1.355 1_455 S
C351 C353 1.419 . S
C352 C350 1.415 . S
C352 C357 1.425 . S
C352 C359 1.409 . S
C353 H345 0.930 . S
C353 C351 1.419 . S
C353 C354 1.362 . S
C354 H346 0.930 . S
C354 C353 1.362 . S
C354 C357 1.409 1_455 S
C355 H347 0.930 . S
C355 C356 1.355 . S
C355 C357 1.415 . S
C356 C355 1.355 . S
C356 C358 1.419 . S
C357 C352 1.425 . S
C357 C354 1.409 1_655 S
C357 C355 1.415 . S
C358 H348 0.930 . S
C358 C356 1.419 . S
C358 C359 1.362 . S
C359 H349 0.930 . S
C359 C352 1.409 . S
C359 C358 1.362 . S
H360 C366 0.930 . S
H361 C369 0.930 . S
H362 C370 0.930 . S
H363 C371 0.930 . S
H364 C374 0.930 . S
H365 C375 0.930 . S
C366 H360 0.930 . S
C366 C367 1.355 . S
C366 C368 1.415 . S
C367 C366 1.355 . S
C367 C369 1.419 . S
C368 C366 1.415 . S
C368 C373 1.425 . S
C368 C375 1.409 1_655 S
C369 H361 0.930 . S
C369 C367 1.419 . S
C369 C370 1.362 . S
C370 H362 0.930 . S
C370 C369 1.362 . S
C370 C373 1.409 . S
C371 H363 0.930 . S
C371 C372 1.355 1_655 S
C371 C373 1.415 . S
C372 C371 1.355 1_455 S
C372 C374 1.419 . S
C373 C368 1.425 . S
C373 C370 1.409 . S
C373 C371 1.415 . S
C374 H364 0.930 . S
C374 C372 1.419 . S
C374 C375 1.362 . S
C375 H365 0.930 . S
C375 C368 1.409 1_455 S
C375 C374 1.362 . S
H376 C382 0.930 . S
H377 C385 0.930 . S
H378 C386 0.938 . S
H379 C387 0.930 . S
H380 C390 0.930 . S
H381 C391 0.930 . S
C382 H376 0.930 . S
C382 C383 1.355 . S
C382 C384 1.415 . S
C383 C382 1.355 . S
C383 C385 1.419 . S
C384 C382 1.415 . S
C384 C389 1.425 . S
C384 C391 1.409 . S
C385 H377 0.930 . S
C385 C383 1.419 . S
C385 C386 1.362 . S
C386 H378 0.938 . S
C386 C385 1.362 . S
C386 C389 1.409 . S
C387 H379 0.930 . S
C387 C388 1.355 . S
C387 C389 1.415 1_655 S
C388 C387 1.355 . S
C388 C390 1.419 1_655 S
C389 C384 1.425 . S
C389 C386 1.409 . S
C389 C387 1.415 1_455 S
C390 H380 0.930 . S
C390 C388 1.419 1_455 S
C390 C391 1.362 . S
C391 H381 0.930 . S
C391 C384 1.409 . S
C391 C390 1.362 . S
H392 C398 0.930 . S
H393 C401 0.930 . S
H394 C402 0.930 1_655 S
H395 C403 0.930 . S
H396 C406 0.930 . S
H397 C407 0.930 . S
C398 H392 0.930 . S
C398 C399 1.355 . S
C398 C400 1.415 . S
C399 C398 1.355 . S
C399 C401 1.419 . S
C400 C398 1.415 . S
C400 C405 1.425 . S
C400 C407 1.409 . S
C401 H393 0.930 . S
C401 C399 1.419 . S
C401 C402 1.362 . S
C402 H394 0.930 1_455 S
C402 C401 1.362 . S
C402 C405 1.409 . S
C403 H395 0.930 . S
C403 C404 1.355 . S
C403 C405 1.415 1_655 S
C404 C403 1.355 . S
C404 C406 1.419 1_655 S
C405 C400 1.425 . S
C405 C402 1.409 . S
C405 C403 1.415 1_455 S
C406 H396 0.930 . S
C406 C404 1.419 1_455 S
C406 C407 1.362 . S
C407 H397 0.930 . S
C407 C400 1.409 . S
C407 C406 1.362 . S
C159 C26 2.207 . S
C164 C2 2.207 . S
C175 C64 2.198 . S
C180 C40 2.198 . S
C191 C102 2.231 . S
C196 C78 2.231 . S
C207 C140 2.202 . S
C212 C116 2.202 . S
C223 C57 1.728 1_556 S
C228 C20 1.729 . S
C239 C133 1.699 . S
C244 C96 1.699 . S
C255 C19 1.722 . S
C260 C58 1.722 . S
C271 C134 1.731 . S
C276 C95 1.731 . S
C287 C118 1.222 . S
C292 C17 1.240 . S
C303 C42 1.179 . S
C308 C93 1.306 . S
C319 C99 1.246 . S
C324 C66 1.227 . S
C335 C23 1.177 . S
C340 C142 1.303 . S
C351 C80 1.245 . S
C356 C55 1.291 . S
C367 C131 1.227 . S
C372 C4 1.246 . S
C383 C28 1.238 . S
C388 C137 1.226 . S
C399 C104 1.240 . S
C404 C61 1.223 . S
