# Generated by pormake.
# Topology wmc, (6)-cn, num edge types: 1
# Building blocks:
#     Node 0, Type 0, BuildingBlock: IZENUY_clean_sbu_0, # of connection points: 6
#     Node 1, Type 0, BuildingBlock: IZENUY_clean_sbu_0, # of connection points: 6
#     Node 2, Type 0, BuildingBlock: IZENUY_clean_sbu_0, # of connection points: 6
#     Node 3, Type 0, BuildingBlock: IZENUY_clean_sbu_0, # of connection points: 6
#     Node 4, Type 0, BuildingBlock: IZENUY_clean_sbu_0, # of connection points: 6
#     Node 5, Type 0, BuildingBlock: IZENUY_clean_sbu_0, # of connection points: 6
#     Node 6, Type 0, BuildingBlock: IZENUY_clean_sbu_0, # of connection points: 6
#     Node 7, Type 0, BuildingBlock: IZENUY_clean_sbu_0, # of connection points: 6
#     Node 8, Type 0, BuildingBlock: IZENUY_clean_sbu_0, # of connection points: 6
#     Node 9, Type 0, BuildingBlock: IZENUY_clean_sbu_0, # of connection points: 6
#     Node 10, Type 0, BuildingBlock: IZENUY_clean_sbu_0, # of connection points: 6
#     Node 11, Type 0, BuildingBlock: IZENUY_clean_sbu_0, # of connection points: 6
#     Node 12, Type 0, BuildingBlock: IZENUY_clean_sbu_0, # of connection points: 6
#     Node 13, Type 0, BuildingBlock: IZENUY_clean_sbu_0, # of connection points: 6
#     Node 14, Type 0, BuildingBlock: IZENUY_clean_sbu_0, # of connection points: 6
#     Node 15, Type 0, BuildingBlock: IZENUY_clean_sbu_0, # of connection points: 6
#     Node 16, Type 0, BuildingBlock: IZENUY_clean_sbu_0, # of connection points: 6
#     Node 17, Type 0, BuildingBlock: IZENUY_clean_sbu_0, # of connection points: 6
#     Edge 18, Type (0, 0), BuildingBlock: ZUJKAS_clean_linker_0, # of connection points: 2
#     Edge 19, Type (0, 0), BuildingBlock: ZUJKAS_clean_linker_0, # of connection points: 2
#     Edge 20, Type (0, 0), BuildingBlock: ZUJKAS_clean_linker_0, # of connection points: 2
#     Edge 21, Type (0, 0), BuildingBlock: ZUJKAS_clean_linker_0, # of connection points: 2
#     Edge 22, Type (0, 0), BuildingBlock: ZUJKAS_clean_linker_0, # of connection points: 2
#     Edge 23, Type (0, 0), BuildingBlock: ZUJKAS_clean_linker_0, # of connection points: 2
#     Edge 24, Type (0, 0), BuildingBlock: ZUJKAS_clean_linker_0, # of connection points: 2
#     Edge 25, Type (0, 0), BuildingBlock: ZUJKAS_clean_linker_0, # of connection points: 2
#     Edge 26, Type (0, 0), BuildingBlock: ZUJKAS_clean_linker_0, # of connection points: 2
#     Edge 27, Type (0, 0), BuildingBlock: ZUJKAS_clean_linker_0, # of connection points: 2
#     Edge 28, Type (0, 0), BuildingBlock: ZUJKAS_clean_linker_0, # of connection points: 2
#     Edge 29, Type (0, 0), BuildingBlock: ZUJKAS_clean_linker_0, # of connection points: 2
#     Edge 30, Type (0, 0), BuildingBlock: ZUJKAS_clean_linker_0, # of connection points: 2
#     Edge 31, Type (0, 0), BuildingBlock: ZUJKAS_clean_linker_0, # of connection points: 2
#     Edge 32, Type (0, 0), BuildingBlock: ZUJKAS_clean_linker_0, # of connection points: 2
#     Edge 33, Type (0, 0), BuildingBlock: ZUJKAS_clean_linker_0, # of connection points: 2
#     Edge 34, Type (0, 0), BuildingBlock: ZUJKAS_clean_linker_0, # of connection points: 2
#     Edge 35, Type (0, 0), BuildingBlock: ZUJKAS_clean_linker_0, # of connection points: 2
#     Edge 36, Type (0, 0), BuildingBlock: ZUJKAS_clean_linker_0, # of connection points: 2
#     Edge 37, Type (0, 0), BuildingBlock: ZUJKAS_clean_linker_0, # of connection points: 2
#     Edge 38, Type (0, 0), BuildingBlock: ZUJKAS_clean_linker_0, # of connection points: 2
#     Edge 39, Type (0, 0), BuildingBlock: ZUJKAS_clean_linker_0, # of connection points: 2
#     Edge 40, Type (0, 0), BuildingBlock: ZUJKAS_clean_linker_0, # of connection points: 2
#     Edge 41, Type (0, 0), BuildingBlock: ZUJKAS_clean_linker_0, # of connection points: 2
#     Edge 42, Type (0, 0), BuildingBlock: ZUJKAS_clean_linker_0, # of connection points: 2
#     Edge 43, Type (0, 0), BuildingBlock: ZUJKAS_clean_linker_0, # of connection points: 2
#     Edge 44, Type (0, 0), BuildingBlock: ZUJKAS_clean_linker_0, # of connection points: 2
#     Edge 45, Type (0, 0), BuildingBlock: ZUJKAS_clean_linker_0, # of connection points: 2
#     Edge 46, Type (0, 0), BuildingBlock: ZUJKAS_clean_linker_0, # of connection points: 2
#     Edge 47, Type (0, 0), BuildingBlock: ZUJKAS_clean_linker_0, # of connection points: 2
#     Edge 48, Type (0, 0), BuildingBlock: ZUJKAS_clean_linker_0, # of connection points: 2
#     Edge 49, Type (0, 0), BuildingBlock: ZUJKAS_clean_linker_0, # of connection points: 2
#     Edge 50, Type (0, 0), BuildingBlock: ZUJKAS_clean_linker_0, # of connection points: 2
#     Edge 51, Type (0, 0), BuildingBlock: ZUJKAS_clean_linker_0, # of connection points: 2
#     Edge 52, Type (0, 0), BuildingBlock: ZUJKAS_clean_linker_0, # of connection points: 2
#     Edge 53, Type (0, 0), BuildingBlock: ZUJKAS_clean_linker_0, # of connection points: 2
#     Edge 54, Type (0, 0), BuildingBlock: ZUJKAS_clean_linker_0, # of connection points: 2
#     Edge 55, Type (0, 0), BuildingBlock: ZUJKAS_clean_linker_0, # of connection points: 2
#     Edge 56, Type (0, 0), BuildingBlock: ZUJKAS_clean_linker_0, # of connection points: 2
#     Edge 57, Type (0, 0), BuildingBlock: ZUJKAS_clean_linker_0, # of connection points: 2
#     Edge 58, Type (0, 0), BuildingBlock: ZUJKAS_clean_linker_0, # of connection points: 2
#     Edge 59, Type (0, 0), BuildingBlock: ZUJKAS_clean_linker_0, # of connection points: 2
#     Edge 60, Type (0, 0), BuildingBlock: ZUJKAS_clean_linker_0, # of connection points: 2
#     Edge 61, Type (0, 0), BuildingBlock: ZUJKAS_clean_linker_0, # of connection points: 2
#     Edge 62, Type (0, 0), BuildingBlock: ZUJKAS_clean_linker_0, # of connection points: 2
#     Edge 63, Type (0, 0), BuildingBlock: ZUJKAS_clean_linker_0, # of connection points: 2
#     Edge 64, Type (0, 0), BuildingBlock: ZUJKAS_clean_linker_0, # of connection points: 2
#     Edge 65, Type (0, 0), BuildingBlock: ZUJKAS_clean_linker_0, # of connection points: 2
#     Edge 66, Type (0, 0), BuildingBlock: ZUJKAS_clean_linker_0, # of connection points: 2
#     Edge 67, Type (0, 0), BuildingBlock: ZUJKAS_clean_linker_0, # of connection points: 2
#     Edge 68, Type (0, 0), BuildingBlock: ZUJKAS_clean_linker_0, # of connection points: 2
#     Edge 69, Type (0, 0), BuildingBlock: ZUJKAS_clean_linker_0, # of connection points: 2
#     Edge 70, Type (0, 0), BuildingBlock: ZUJKAS_clean_linker_0, # of connection points: 2
#     Edge 71, Type (0, 0), BuildingBlock: ZUJKAS_clean_linker_0, # of connection points: 2
# Relax obj value: 0.350
# Max RMSD: 0.273
# Mean RMSD: 0.273
data_MOF--net-wmc--node1-IZENUY_clean_sbu_0--edge1-ZUJKAS_clean_linker_0
_symmetry_space_group_name_H-M    P1
_symmetry_Int_Tables_number       1
_symmetry_cell_setting            triclinic
loop_
_symmetry_equiv_pos_as_xyz
'x, y, z'
_cell_length_a     58.8547
_cell_length_b     58.821279
_cell_length_c     37.881623
_cell_angle_alpha  89.938696
_cell_angle_beta   90.128091
_cell_angle_gamma 119.96301
loop_
_atom_site_label
_atom_site_type_symbol
_atom_site_fract_x
_atom_site_fract_y
_atom_site_fract_z
_atom_type_partial_charge
Fe0 Fe 0.66519 0.13548 0.97912 0.0
Fe1 Fe 0.61276 0.12554 0.01032 0.0
O2 O 0.64724 0.14479 0.0076 0.0
Fe3 Fe 0.66385 0.17361 0.03294 0.0
O4 O 0.67583 0.19301 0.99357 0.0
O5 O 0.69178 0.16983 0.97022 0.0
O6 O 0.64834 0.13849 0.94099 0.0
C7 C 0.62375 0.12648 0.93691 0.0
C8 C 0.69838 0.15232 0.0358 0.0
O9 O 0.60843 0.1162 0.96306 0.0
C10 C 0.62878 0.14103 0.08158 0.0
O11 O 0.64067 0.09932 0.98107 0.0
O12 O 0.61557 0.09769 0.02401 0.0
O13 O 0.69374 0.17118 0.03846 0.0
O14 O 0.68402 0.13274 0.0161 0.0
C15 C 0.61886 0.17467 0.00958 0.0
O16 O 0.61114 0.13223 0.0578 0.0
O17 O 0.65251 0.15565 0.07365 0.0
C18 C 0.62113 0.08575 0.00131 0.0
O19 O 0.60825 0.15217 0.99624 0.0
O20 O 0.63722 0.18164 0.03192 0.0
C21 C 0.69045 0.19075 0.97152 0.0
Fe22 Fe 0.91002 0.53484 0.98491 0.0
Fe23 Fe 0.90899 0.48779 0.0223 0.0
O24 O 0.89814 0.51095 0.01895 0.0
Fe25 Fe 0.87394 0.50882 0.04879 0.0
O26 O 0.85807 0.52021 0.01793 0.0
O27 O 0.8767 0.52191 0.9673 0.0
O28 O 0.91361 0.51378 0.95265 0.0
C29 C 0.90346 0.48911 0.95058 0.0
C30 C 0.90302 0.56187 0.04452 0.0
O31 O 0.89691 0.47504 0.97812 0.0
C32 C 0.90808 0.49981 0.09152 0.0
O33 O 0.94476 0.5484 0.99842 0.0
O34 O 0.94149 0.5096 0.00535 0.0
O35 O 0.89512 0.54209 0.06448 0.0
O36 O 0.90748 0.56012 0.01189 0.0
C37 C 0.85545 0.4568 0.03391 0.0
O38 O 0.92184 0.49921 0.06638 0.0
O39 O 0.88576 0.49741 0.08577 0.0
C40 C 0.95534 0.53404 0.0011 0.0
O41 O 0.87837 0.46133 0.04002 0.0
O42 O 0.85071 0.47548 0.03377 0.0
C43 C 0.85718 0.51893 0.98481 0.0
Fe44 Fe 0.5123 0.38748 0.98465 0.0
Fe45 Fe 0.5573 0.43447 0.0246 0.0
O46 O 0.53526 0.40021 0.02003 0.0
Fe47 Fe 0.53748 0.37839 0.05041 0.0
O48 O 0.52693 0.35133 0.01985 0.0
O49 O 0.5265 0.36777 0.96851 0.0
O50 O 0.53367 0.41228 0.9529 0.0
C51 C 0.55807 0.42839 0.95267 0.0
C52 C 0.48451 0.3536 0.04402 0.0
O53 O 0.57112 0.43682 0.98091 0.0
C54 C 0.54497 0.42053 0.09358 0.0
O55 O 0.49734 0.40769 0.9961 0.0
O56 O 0.53467 0.44409 0.00723 0.0
O57 O 0.50383 0.36573 0.0648 0.0
O58 O 0.48693 0.35956 0.01121 0.0
C59 C 0.58943 0.41292 0.03645 0.0
O60 O 0.54495 0.43474 0.06858 0.0
O61 O 0.5482 0.40123 0.08745 0.0
C62 C 0.51056 0.43257 0.99991 0.0
O63 O 0.58438 0.43105 0.04243 0.0
O64 O 0.57113 0.38932 0.03647 0.0
C65 C 0.53043 0.35228 0.98716 0.0
Fe66 Fe 0.91985 0.43598 0.52065 0.0
Fe67 Fe 0.87221 0.38412 0.54231 0.0
O68 O 0.90065 0.4015 0.51648 0.0
Fe69 Fe 0.90946 0.38422 0.486 0.0
O70 O 0.90587 0.40197 0.4495 0.0
O71 O 0.92804 0.44147 0.47313 0.0
O72 O 0.89278 0.44077 0.50945 0.0
C73 C 0.87062 0.42974 0.52379 0.0
C74 C 0.95959 0.42803 0.50755 0.0
O75 O 0.86407 0.41055 0.54446 0.0
C76 C 0.89344 0.34958 0.54101 0.0
O77 O 0.91427 0.43622 0.56873 0.0
O78 O 0.89084 0.39438 0.58264 0.0
O79 O 0.94556 0.40862 0.48733 0.0
O80 O 0.94828 0.4333 0.53154 0.0
C81 C 0.85431 0.35945 0.47964 0.0
O82 O 0.87465 0.35414 0.54498 0.0
O83 O 0.91276 0.36442 0.52126 0.0
C84 C 0.90575 0.4179 0.59153 0.0
O85 O 0.85223 0.37324 0.50327 0.0
O86 O 0.87506 0.35794 0.47715 0.0
C87 C 0.91755 0.42665 0.44655 0.0
Fe88 Fe 0.61528 0.48839 0.52296 0.0
Fe89 Fe 0.67192 0.50832 0.54598 0.0
O90 O 0.64904 0.51203 0.51943 0.0
Fe91 Fe 0.66009 0.53828 0.48874 0.0
O92 O 0.63521 0.51924 0.45558 0.0
O93 O 0.6134 0.47895 0.4767 0.0
O94 O 0.62039 0.46099 0.53412 0.0
C95 C 0.6391 0.45742 0.52552 0.0
C96 C 0.61386 0.5354 0.50948 0.0
O97 O 0.66232 0.47647 0.52585 0.0
C98 C 0.69434 0.56138 0.5495 0.0
O99 O 0.615 0.49662 0.56926 0.0
O100 O 0.64943 0.49327 0.58309 0.0
O101 O 0.63866 0.55013 0.50664 0.0
O102 O 0.60369 0.51087 0.51206 0.0
C103 C 0.69815 0.52439 0.48157 0.0
O104 O 0.68342 0.54009 0.56675 0.0
O105 O 0.68779 0.56187 0.5174 0.0
C106 C 0.62961 0.49484 0.59224 0.0
O107 O 0.69875 0.52279 0.51456 0.0
O108 O 0.68088 0.52767 0.46654 0.0
C109 C 0.62003 0.49486 0.45111 0.0
Fe110 Fe 0.55556 0.13448 0.51306 0.0
Fe111 Fe 0.53564 0.17025 0.54105 0.0
O112 O 0.5331 0.14624 0.51041 0.0
Fe113 Fe 0.50946 0.13554 0.47605 0.0
O114 O 0.52983 0.13121 0.44357 0.0
O115 O 0.56841 0.14671 0.46891 0.0
O116 O 0.58263 0.1647 0.53091 0.0
C117 C 0.58751 0.18792 0.52622 0.0
C118 C 0.50829 0.08919 0.49122 0.0
O119 O 0.56916 0.19312 0.52691 0.0
C120 C 0.48264 0.14245 0.53578 0.0
O121 O 0.5443 0.12149 0.55713 0.0
O122 O 0.54646 0.15751 0.57765 0.0
O123 O 0.49472 0.10062 0.4888 0.0
O124 O 0.53279 0.1022 0.49574 0.0
C125 C 0.5275 0.18884 0.47749 0.0
O126 O 0.50213 0.14942 0.55608 0.0
O127 O 0.48467 0.13878 0.50298 0.0
C128 C 0.54443 0.13527 0.58279 0.0
O129 O 0.5251 0.18716 0.5105 0.0
O130 O 0.52385 0.16927 0.45942 0.0
C131 C 0.55438 0.14084 0.44137 0.0
Fe132 Fe 0.33077 0.46714 0.31878 0.0
Fe133 Fe 0.2779 0.45616 0.35 0.0
O134 O 0.31243 0.47551 0.348 0.0
Fe135 Fe 0.32878 0.50356 0.37482 0.0
O136 O 0.34093 0.52408 0.3364 0.0
O137 O 0.35725 0.50172 0.31153 0.0
O138 O 0.31418 0.47105 0.28104 0.0
C139 C 0.28962 0.45914 0.27659 0.0
C140 C 0.36359 0.48262 0.37586 0.0
O141 O 0.27403 0.4484 0.30233 0.0
C142 C 0.29339 0.46933 0.42184 0.0
O143 O 0.30642 0.43095 0.31889 0.0
O144 O 0.28045 0.42777 0.3616 0.0
O145 O 0.35871 0.50123 0.3796 0.0
O146 O 0.34947 0.46352 0.35531 0.0
C147 C 0.28359 0.50513 0.35336 0.0
O148 O 0.27594 0.4612 0.39784 0.0
O149 O 0.31719 0.48436 0.41453 0.0
C150 C 0.28657 0.41669 0.33826 0.0
O151 O 0.27334 0.48328 0.33812 0.0
O152 O 0.30217 0.51152 0.37512 0.0
C153 C 0.35591 0.52258 0.31414 0.0
Fe154 Fe 0.5768 0.86831 0.3142 0.0
Fe155 Fe 0.58115 0.82441 0.35277 0.0
O156 O 0.56795 0.84569 0.34962 0.0
Fe157 Fe 0.54438 0.84297 0.38109 0.0
O158 O 0.5258 0.8517 0.35099 0.0
O159 O 0.54254 0.85255 0.29921 0.0
O160 O 0.58098 0.84756 0.28221 0.0
C161 C 0.57258 0.82315 0.28126 0.0
C162 C 0.5703 0.89586 0.37344 0.0
O163 O 0.56822 0.81002 0.30943 0.0
C164 C 0.58161 0.83731 0.42204 0.0
O165 O 0.61218 0.88453 0.325 0.0
O166 O 0.61254 0.84756 0.33373 0.0
O167 O 0.56451 0.87702 0.39447 0.0
O168 O 0.57334 0.89322 0.34059 0.0
C169 C 0.52842 0.79112 0.36865 0.0
O170 O 0.59504 0.83727 0.39608 0.0
O171 O 0.55882 0.83399 0.41755 0.0
C172 C 0.62453 0.87185 0.32753 0.0
O173 O 0.55204 0.79711 0.37241 0.0
O174 O 0.52222 0.80878 0.36865 0.0
C175 C 0.52334 0.84883 0.31809 0.0
Fe176 Fe 0.17467 0.71832 0.31522 0.0
Fe177 Fe 0.22439 0.7638 0.34871 0.0
O178 O 0.1999 0.73013 0.34763 0.0
Fe179 Fe 0.20172 0.70815 0.3781 0.0
O180 O 0.18833 0.68012 0.34837 0.0
O181 O 0.18509 0.69604 0.29737 0.0
O182 O 0.19516 0.7416 0.28117 0.0
C183 C 0.21981 0.75471 0.27738 0.0
C184 C 0.14878 0.68624 0.37667 0.0
O185 O 0.23491 0.76233 0.30393 0.0
C186 C 0.21502 0.75347 0.41905 0.0
O187 O 0.16327 0.74107 0.32919 0.0
O188 O 0.20303 0.7756 0.33274 0.0
O189 O 0.16925 0.69802 0.39544 0.0
O190 O 0.14967 0.69186 0.34394 0.0
C191 C 0.25371 0.73899 0.36078 0.0
O192 O 0.21536 0.76735 0.39336 0.0
O193 O 0.21527 0.7323 0.41391 0.0
C194 C 0.17853 0.76588 0.33034 0.0
O195 O 0.25071 0.75859 0.3649 0.0
O196 O 0.23415 0.71612 0.36193 0.0
C197 C 0.18754 0.67926 0.31519 0.0
Fe198 Fe 0.57724 0.71693 0.81704 0.0
Fe199 Fe 0.59259 0.77015 0.85114 0.0
O200 O 0.57138 0.73591 0.84836 0.0
Fe201 Fe 0.54412 0.72055 0.87664 0.0
O202 O 0.5222 0.70982 0.83941 0.0
O203 O 0.5419 0.69198 0.81118 0.0
O204 O 0.57335 0.73489 0.78101 0.0
C205 C 0.58663 0.75949 0.77716 0.0
C206 C 0.56207 0.68329 0.87302 0.0
O207 O 0.59899 0.77438 0.80302 0.0
C208 C 0.58073 0.7541 0.92307 0.0
O209 O 0.61377 0.73965 0.81545 0.0
O210 O 0.61982 0.76505 0.86015 0.0
O211 O 0.54453 0.68941 0.87903 0.0
O212 O 0.58072 0.697 0.85175 0.0
C213 C 0.54533 0.76768 0.85807 0.0
O214 O 0.58912 0.77189 0.89955 0.0
O215 O 0.56468 0.73062 0.9153 0.0
C216 C 0.62945 0.75878 0.83506 0.0
O217 O 0.56665 0.77689 0.84178 0.0
O218 O 0.5384 0.74873 0.8794 0.0
C219 C 0.52196 0.69465 0.81593 0.0
Fe220 Fe 0.28111 0.82684 0.8461 0.0
Fe221 Fe 0.33478 0.83505 0.86646 0.0
O222 O 0.31562 0.84566 0.84385 0.0
Fe223 Fe 0.33115 0.87508 0.81841 0.0
O224 O 0.31627 0.85673 0.77848 0.0
O225 O 0.27618 0.83357 0.79981 0.0
O226 O 0.28013 0.79782 0.8288 0.0
C227 C 0.29246 0.78722 0.84096 0.0
C228 C 0.28371 0.87313 0.84311 0.0
O229 O 0.31135 0.79959 0.86222 0.0
C230 C 0.36396 0.89109 0.87535 0.0
O231 O 0.28028 0.8165 0.89242 0.0
O232 O 0.32173 0.83691 0.9086 0.0
O233 O 0.30358 0.88241 0.82271 0.0
O234 O 0.27999 0.85475 0.8634 0.0
C235 C 0.36296 0.85214 0.80648 0.0
O236 O 0.36192 0.86851 0.87514 0.0
O237 O 0.34808 0.89529 0.85733 0.0
C238 C 0.29775 0.8253 0.91639 0.0
O239 O 0.3487 0.83254 0.82533 0.0
O240 O 0.36059 0.87243 0.80786 0.0
C241 C 0.29193 0.84181 0.77382 0.0
Fe242 Fe 0.17215 0.46218 0.81723 0.0
Fe243 Fe 0.2201 0.4628 0.85144 0.0
O244 O 0.19753 0.47446 0.84951 0.0
Fe245 Fe 0.20158 0.49959 0.87911 0.0
O246 O 0.1899 0.51557 0.8489 0.0
O247 O 0.18456 0.49506 0.79858 0.0
O248 O 0.19163 0.45746 0.78344 0.0
C249 C 0.21614 0.46691 0.77995 0.0
C250 C 0.14841 0.47186 0.87841 0.0
O251 O 0.23114 0.47374 0.80656 0.0
C252 C 0.21135 0.46565 0.92141 0.0
O253 O 0.15858 0.4277 0.83164 0.0
O254 O 0.19707 0.43005 0.83608 0.0
O255 O 0.1689 0.4795 0.89684 0.0
O256 O 0.14832 0.46595 0.84593 0.0
C257 C 0.25275 0.5166 0.86127 0.0
O258 O 0.21033 0.45107 0.89628 0.0
O259 O 0.21377 0.48795 0.91542 0.0
C260 C 0.17251 0.41664 0.83305 0.0
O261 O 0.24786 0.4935 0.86704 0.0
O262 O 0.23448 0.52188 0.86229 0.0
C263 C 0.18876 0.51515 0.81576 0.0
Fe264 Fe 0.9915 0.80154 0.65528 0.0
Fe265 Fe 0.9469 0.80787 0.68812 0.0
O266 O 0.98071 0.81803 0.68424 0.0
Fe267 Fe 1.00366 0.84575 0.70885 0.0
O268 O 0.03001 0.85727 0.67697 0.0
O269 O 1.01254 0.83184 0.63088 0.0
O270 O 0.96635 0.79485 0.62187 0.0
C271 C 0.95133 0.80421 0.61657 0.0
C272 C 1.02661 0.81567 0.71562 0.0
O273 O 0.94473 0.81406 0.64148 0.0
C274 C 0.96261 0.81779 0.75684 0.0
O275 O 0.9701 0.76908 0.67541 0.0
O276 O 0.93518 0.7735 0.67915 0.0
O277 O 1.01581 0.82677 0.7313 0.0
O278 O 1.01939 0.80649 0.68444 0.0
C279 C 0.97014 0.8625 0.68687 0.0
O280 O 0.94725 0.80086 0.73491 0.0
O281 O 0.98166 0.83925 0.74623 0.0
C282 C 0.94533 0.75908 0.67811 0.0
O283 O 0.95183 0.84058 0.6973 0.0
O284 O 0.9934 0.86686 0.68686 0.0
C285 C 0.02961 0.85318 0.64443 0.0
Fe286 Fe 0.24215 0.20289 0.64427 0.0
Fe287 Fe 0.25577 0.163 0.67603 0.0
O288 O 0.23529 0.17694 0.67423 0.0
Fe289 Fe 0.20773 0.16469 0.70202 0.0
O290 O 0.18628 0.15512 0.66438 0.0
O291 O 0.20711 0.19333 0.6377 0.0
O292 O 0.23836 0.18198 0.60707 0.0
C293 C 0.251 0.17005 0.60286 0.0
C294 C 0.22656 0.22016 0.70123 0.0
O295 O 0.26305 0.16679 0.62841 0.0
C296 C 0.24377 0.16561 0.74789 0.0
O297 O 0.27862 0.21604 0.64369 0.0
O298 O 0.2834 0.19459 0.68702 0.0
O299 O 0.20881 0.19644 0.7062 0.0
O300 O 0.24544 0.22546 0.68018 0.0
C301 C 0.20773 0.11873 0.68051 0.0
O302 O 0.25156 0.15621 0.72375 0.0
O303 O 0.22789 0.1735 0.74114 0.0
C304 C 0.29369 0.21158 0.66325 0.0
O305 O 0.22931 0.13086 0.66476 0.0
O306 O 0.20118 0.13051 0.70272 0.0
C307 C 0.18694 0.17073 0.64119 0.0
Fe308 Fe 0.84198 0.05318 0.64632 0.0
Fe309 Fe 0.88904 0.09723 0.6864 0.0
O310 O 0.86594 0.06354 0.68024 0.0
Fe311 Fe 0.86815 0.0399 0.70698 0.0
O312 O 0.85594 1.0141 0.67372 0.0
O313 O 0.8553 0.03415 0.62557 0.0
O314 O 0.86261 0.07947 0.61573 0.0
C315 C 0.88716 0.0946 0.61402 0.0
C316 C 0.81526 1.01688 0.70401 0.0
O317 O 0.90138 0.1005 0.64136 0.0
C318 C 0.8784 0.08075 0.75478 0.0
O319 O 0.82827 0.07336 0.66292 0.0
O320 O 0.86678 0.10861 0.67299 0.0
O321 O 0.83525 0.02773 0.72381 0.0
O322 O 0.8169 0.02408 0.67176 0.0
C323 C 0.9199 0.07372 0.69184 0.0
O324 O 0.87825 0.09622 0.7317 0.0
O325 O 0.88048 0.06115 0.74581 0.0
C326 C 0.84241 0.09811 0.66766 0.0
O327 O 0.91572 0.09198 0.70067 0.0
O328 O 0.90113 0.05038 0.69059 0.0
C329 C 0.85816 1.01667 0.6408 0.0
Fe330 Fe 0.24417 0.04965 0.1445 0.0
Fe331 Fe 0.2559 0.10255 0.1763 0.0
O332 O 0.23642 0.06803 0.17447 0.0
Fe333 Fe 0.20895 0.05191 0.20228 0.0
O334 O 0.18754 0.0395 0.16469 0.0
O335 O 0.20944 0.02339 0.1378 0.0
O336 O 0.23974 0.06641 0.10731 0.0
C337 C 0.25174 0.09098 0.10312 0.0
C338 C 0.22953 1.01677 0.20146 0.0
O339 O 0.26336 0.10637 0.12873 0.0
C340 C 0.24428 0.08767 0.24812 0.0
O341 O 0.28041 0.07386 0.14416 0.0
O342 O 0.28421 0.09976 0.18745 0.0
O343 O 0.21121 0.02191 0.20643 0.0
O344 O 0.2482 0.03078 0.18036 0.0
C345 C 0.20704 0.09682 0.18064 0.0
O346 O 0.25141 0.10483 0.22398 0.0
O347 O 0.22909 0.06376 0.24139 0.0
C348 C 0.29497 0.09343 0.16391 0.0
O349 O 0.22868 0.10705 0.16491 0.0
O350 O 0.2012 0.07868 0.20299 0.0
C351 C 0.1888 0.02501 0.14139 0.0
Fe352 Fe 0.99368 0.2026 0.148 0.0
Fe353 Fe 0.94996 0.15346 0.18515 0.0
O354 O 0.98353 0.17742 0.18025 0.0
Fe355 Fe 1.00714 0.17505 0.20688 0.0
O356 O 0.03337 0.18876 0.17449 0.0
O357 O 1.01442 0.19173 0.12631 0.0
O358 O 0.9683 0.18222 0.11596 0.0
C359 C 0.9537 0.15761 0.11292 0.0
C360 C 0.02897 0.22803 0.20721 0.0
O361 O 0.94767 0.14267 0.13951 0.0
C362 C 0.96541 0.16238 0.25409 0.0
O363 O 0.97225 0.21455 0.16543 0.0
O364 O 0.9377 0.17524 0.17299 0.0
O365 O 1.01843 0.20734 0.22569 0.0
O366 O 1.02181 0.2274 0.17512 0.0
C367 C 0.97465 0.12342 0.18924 0.0
O368 O 0.9501 0.16283 0.231 0.0
O369 O 0.98542 0.1611 0.245 0.0
C370 C 0.94755 0.19967 0.16914 0.0
O371 O 0.95584 0.12681 0.19785 0.0
O372 O 0.99772 0.14272 0.18862 0.0
C373 C 0.03217 0.1893 0.14143 0.0
Fe374 Fe 0.89046 0.80303 0.18939 0.0
Fe375 Fe 0.87043 0.83979 0.21184 0.0
O376 O 0.86807 0.81459 0.18367 0.0
Fe377 Fe 0.84477 0.80261 0.14888 0.0
O378 O 0.86567 0.79744 0.1182 0.0
O379 O 0.90383 0.81352 0.14515 0.0
O380 O 0.91729 0.83409 0.20582 0.0
C381 C 0.92221 0.85694 0.19796 0.0
C382 C 0.84369 0.75684 0.16775 0.0
O383 O 0.90386 0.86215 0.1969 0.0
C384 C 0.81753 0.81123 0.20676 0.0
O385 O 0.8785 0.79176 0.23382 0.0
O386 O 0.88152 0.82898 0.25023 0.0
O387 O 0.83008 0.76809 0.16352 0.0
O388 O 0.868 0.77007 0.17378 0.0
C389 C 0.86227 0.85574 0.14637 0.0
O390 O 0.83708 0.81922 0.22722 0.0
O391 O 0.81961 0.80649 0.1743 0.0
C392 C 0.87874 0.80676 0.25785 0.0
O393 O 0.85951 0.85511 0.17928 0.0
O394 O 0.85912 0.83571 0.13002 0.0
C395 C 0.89018 0.80645 0.11725 0.0
H396 H 0.6316 0.22287 0.03725 0.0
H397 H 0.61668 0.25273 0.01634 0.0
H398 H 0.57186 0.19802 0.93379 0.0
H399 H 0.58593 0.1679 0.95493 0.0
H400 H 0.62273 0.27668 0.9512 0.0
H401 H 0.51686 0.20996 0.9799 0.0
H402 H 0.54208 0.20393 0.99662 0.0
H403 H 0.53172 0.19677 0.95135 0.0
C404 C 0.61836 0.2171 0.0149 0.0
C405 C 0.60961 0.1928 0.99822 0.0
C406 C 0.60997 0.23422 0.00283 0.0
C407 C 0.59281 0.2274 0.97383 0.0
C408 C 0.58454 0.20342 0.95672 0.0
H409 H 0.52133 0.32621 0.9228 0.0
H410 H 0.5374 0.29595 0.90602 0.0
C411 C 0.59267 0.18623 0.96891 0.0
C412 C 0.58348 0.24535 0.96179 0.0
H413 H 0.52883 0.25151 0.95717 0.0
C414 C 0.60214 0.27102 0.95193 0.0
C415 C 0.55655 0.23785 0.96218 0.0
C416 C 0.53561 0.21071 0.97331 0.0
C417 C 0.59475 0.28984 0.94468 0.0
C418 C 0.5681 0.28281 0.9475 0.0
C419 C 0.54921 0.25668 0.95456 0.0
C420 C 0.56066 0.30305 0.95342 0.0
C421 C 0.61568 0.31759 0.93637 0.0
C422 C 0.56835 0.31671 0.98534 0.0
C423 C 0.5588 0.33302 0.99516 0.0
C424 C 0.54163 0.33662 0.97306 0.0
C425 C 0.53468 0.32389 0.94015 0.0
C426 C 0.54383 0.30672 0.93061 0.0
H427 H 0.63319 0.31819 0.92439 0.0
H428 H 0.60813 0.3271 0.91814 0.0
H429 H 0.62197 0.32915 0.9612 0.0
H430 H 0.5809 0.3138 0.00359 0.0
H431 H 0.56447 0.34238 0.02078 0.0
H432 H 0.74299 0.21573 0.98292 0.0
H433 H 0.77134 0.26354 0.98073 0.0
H434 H 0.71066 0.27025 0.92593 0.0
H435 H 0.68213 0.22259 0.9289 0.0
H436 H 0.79042 0.30668 0.93114 0.0
H437 H 0.71532 0.30353 0.02332 0.0
H438 H 0.71611 0.27441 0.01054 0.0
H439 H 0.70348 0.28916 0.98063 0.0
C440 C 0.73633 0.2273 0.96865 0.0
C441 C 0.71051 0.21556 0.95584 0.0
C442 C 0.75239 0.25465 0.96779 0.0
C443 C 0.74279 0.27045 0.95402 0.0
C444 C 0.71824 0.25844 0.93726 0.0
H445 H 0.80822 0.43959 0.9997 0.0
H446 H 0.77914 0.39513 0.97644 0.0
C447 C 0.70212 0.2312 0.93845 0.0
C448 C 0.75663 0.29899 0.96191 0.0
H449 H 0.75221 0.34476 0.01255 0.0
C450 C 0.78197 0.31507 0.94861 0.0
C451 C 0.74554 0.30993 0.98476 0.0
C452 C 0.71871 0.29341 0.00093 0.0
C453 C 0.7967 0.34169 0.95808 0.0
C454 C 0.78599 0.35232 0.98199 0.0
C455 C 0.7603 0.33654 0.99418 0.0
C456 C 0.80218 0.37883 0.99748 0.0
C457 C 0.82381 0.35817 0.94283 0.0
C458 C 0.82392 0.38396 0.0183 0.0
C459 C 0.84025 0.409 0.03177 0.0
C460 C 0.83518 0.42957 0.0249 0.0
C461 C 0.81255 0.42413 0.00561 0.0
C462 C 0.79609 0.39885 0.99206 0.0
H463 H 0.82605 0.34979 0.91767 0.0
H464 H 0.82826 0.37861 0.93796 0.0
H465 H 0.83849 0.3588 0.96183 0.0
H466 H 0.82856 0.36862 0.02362 0.0
H467 H 0.85737 0.41241 0.04677 0.0
H468 H 0.63349 0.46075 0.04371 0.0
H469 H 0.67734 0.47463 0.02162 0.0
H470 H 0.65159 0.39599 0.98531 0.0
H471 H 0.60739 0.38176 0.00774 0.0
H472 H 0.70082 0.41985 0.01858 0.0
H473 H 0.69755 0.48582 0.91723 0.0
H474 H 0.68952 0.49239 0.96027 0.0
H475 H 0.66853 0.4612 0.93955 0.0
C476 C 0.63708 0.44625 0.03132 0.0
C477 C 0.61677 0.4201 0.02741 0.0
C478 C 0.66217 0.45432 0.01837 0.0
C479 C 0.66757 0.43655 0.00089 0.0
C480 C 0.64775 0.41013 0.9983 0.0
H481 H 0.82879 0.47679 0.94211 0.0
H482 H 0.78078 0.45394 0.93595 0.0
C483 C 0.62253 0.40198 0.01137 0.0
C484 C 0.69412 0.44587 0.98594 0.0
H485 H 0.74065 0.49411 0.93394 0.0
C486 C 0.70941 0.43568 0.99947 0.0
C487 C 0.70519 0.46634 0.96068 0.0
C488 C 0.68924 0.47688 0.9433 0.0
C489 C 0.73606 0.44678 0.99054 0.0
C490 C 0.74758 0.46844 0.96708 0.0
C491 C 0.73184 0.47756 0.95193 0.0
C492 C 0.77646 0.48418 0.96238 0.0
C493 C 0.75207 0.43634 0.00803 0.0
C494 C 0.79 0.50948 0.97691 0.0
C495 C 0.81726 0.52254 0.98016 0.0
C496 C 0.83152 0.51069 0.96848 0.0
C497 C 0.81828 0.48658 0.95059 0.0
C498 C 0.79084 0.47333 0.94762 0.0
H499 H 0.74105 0.422 0.02928 0.0
H500 H 0.75774 0.42635 0.98799 0.0
H501 H 0.77034 0.45264 0.01951 0.0
H502 H 0.77934 0.51826 0.98837 0.0
H503 H 0.827 0.54092 0.99454 0.0
H504 H 0.68679 0.48147 0.44281 0.0
H505 H 0.71639 0.46355 0.43791 0.0
H506 H 0.78038 0.53664 0.47606 0.0
H507 H 0.7508 0.55439 0.48149 0.0
H508 H 0.77828 0.48678 0.41195 0.0
H509 H 0.75181 0.47167 0.55453 0.0
H510 H 0.73091 0.47408 0.52155 0.0
H511 H 0.76017 0.503 0.53564 0.0
C512 C 0.70754 0.49425 0.44783 0.0
C513 C 0.71669 0.5194 0.46204 0.0
C514 C 0.72436 0.4839 0.44541 0.0
C515 C 0.75046 0.49876 0.4569 0.0
C516 C 0.76032 0.52497 0.46694 0.0
H517 H 0.88156 0.47528 0.49056 0.0
H518 H 0.8509 0.48962 0.47269 0.0
C519 C 0.74349 0.5352 0.46966 0.0
C520 C 0.76572 0.48572 0.46548 0.0
H521 H 0.78495 0.46308 0.53589 0.0
C522 C 0.77966 0.4814 0.43893 0.0
C523 C 0.767 0.4783 0.50062 0.0
C524 C 0.75159 0.48178 0.52985 0.0
C525 C 0.79564 0.47055 0.44694 0.0
C526 C 0.79805 0.46445 0.4825 0.0
C527 C 0.78326 0.46792 0.50872 0.0
C528 C 0.81656 0.45549 0.49343 0.0
C529 C 0.80964 0.46561 0.41722 0.0
C530 C 0.80768 0.43205 0.51252 0.0
C531 C 0.8253 0.42397 0.52343 0.0
C532 C 0.85215 0.43924 0.51548 0.0
C533 C 0.861 0.46296 0.49702 0.0
C534 C 0.84344 0.47107 0.48636 0.0
H535 H 0.79942 0.46315 0.39161 0.0
H536 H 0.82974 0.4827 0.41469 0.0
H537 H 0.81122 0.44785 0.42227 0.0
H538 H 0.78704 0.41984 0.51861 0.0
H539 H 0.81781 0.40551 0.53735 0.0
H540 H 0.50862 0.22193 0.48581 0.0
H541 H 0.53344 0.26955 0.4785 0.0
H542 H 0.59718 0.26378 0.43195 0.0
H543 H 0.57196 0.21578 0.43869 0.0
H544 H 0.61068 0.2965 0.49315 0.0
H545 H 0.55696 0.32257 0.39637 0.0
H546 H 0.53562 0.29896 0.42821 0.0
H547 H 0.55375 0.29038 0.39811 0.0
C548 C 0.52736 0.23072 0.47237 0.0
C549 C 0.53814 0.21521 0.46206 0.0
C550 C 0.54161 0.25795 0.46835 0.0
C551 C 0.56711 0.27026 0.45443 0.0
C552 C 0.57742 0.25468 0.44234 0.0
H553 H 0.67143 0.44151 0.49466 0.0
H554 H 0.65864 0.39726 0.47287 0.0
C555 C 0.56288 0.22727 0.44577 0.0
C556 C 0.58374 0.29925 0.45724 0.0
H557 H 0.58284 0.35571 0.43967 0.0
C558 C 0.60511 0.30964 0.48075 0.0
C559 C 0.57647 0.31633 0.44103 0.0
C560 C 0.5546 0.30654 0.41424 0.0
C561 C 0.61797 0.33628 0.49065 0.0
C562 C 0.60942 0.35294 0.47629 0.0
C563 C 0.58929 0.3429 0.45089 0.0
C564 C 0.61838 0.37966 0.49054 0.0
C565 C 0.63932 0.34599 0.51823 0.0
C566 C 0.60014 0.38442 0.50782 0.0
C567 C 0.60732 0.40943 0.52017 0.0
C568 C 0.63299 0.43051 0.51553 0.0
C569 C 0.65156 0.42568 0.49892 0.0
C570 C 0.64428 0.40042 0.48643 0.0
H571 H 0.64163 0.32985 0.52964 0.0
H572 H 0.65825 0.36054 0.50617 0.0
H573 H 0.63503 0.35597 0.53991 0.0
H574 H 0.58011 0.36871 0.51145 0.0
H575 H 0.59245 0.41229 0.53285 0.0
H576 H 0.6058 0.23812 0.50114 0.0
H577 H 0.65047 0.26879 0.48044 0.0
H578 H 0.67527 0.21409 0.51212 0.0
H579 H 0.63118 0.18357 0.53251 0.0
H580 H 0.69915 0.2913 0.51762 0.0
H581 H 0.69735 0.22838 0.40783 0.0
H582 H 0.66793 0.22339 0.42962 0.0
H583 H 0.68777 0.21138 0.44929 0.0
C584 C 0.62086 0.2328 0.50401 0.0
C585 C 0.61486 0.20831 0.51824 0.0
C586 C 0.64629 0.25023 0.49196 0.0
C587 C 0.66593 0.24331 0.49381 0.0
C588 C 0.66021 0.21946 0.50947 0.0
H589 H 0.82977 0.30623 0.48301 0.0
H590 H 0.78214 0.27741 0.47785 0.0
C591 C 0.63499 0.20214 0.52143 0.0
C592 C 0.69278 0.26105 0.48051 0.0
H593 H 0.73998 0.2625 0.42656 0.0
C594 C 0.70798 0.28531 0.49722 0.0
C595 C 0.7042 0.25306 0.45392 0.0
C596 C 0.68839 0.22773 0.43387 0.0
C597 C 0.73474 0.30117 0.48952 0.0
C598 C 0.74643 0.29272 0.46386 0.0
C599 C 0.73098 0.2689 0.44618 0.0
C600 C 0.77505 0.30766 0.45724 0.0
C601 C 0.75058 0.32618 0.5103 0.0
C602 C 0.7869 0.33354 0.44482 0.0
C603 C 0.81398 0.34993 0.44778 0.0
C604 C 0.82961 0.3405 0.46256 0.0
C605 C 0.81817 0.31376 0.47087 0.0
C606 C 0.79095 0.2974 0.46828 0.0
H607 H 0.73981 0.32712 0.53379 0.0
H608 H 0.76943 0.32807 0.51925 0.0
H609 H 0.75512 0.34326 0.4932 0.0
H610 H 0.77499 0.34168 0.43568 0.0
H611 H 0.8224 0.37059 0.44162 0.0
H612 H 0.15745 0.62687 0.32239 0.0
H613 H 0.17372 0.59596 0.31842 0.0
H614 H 0.24554 0.65632 0.272 0.0
H615 H 0.22894 0.68716 0.27519 0.0
H616 H 0.22733 0.60112 0.24855 0.0
H617 H 0.23342 0.6163 0.39373 0.0
H618 H 0.20148 0.60532 0.37513 0.0
H619 H 0.22832 0.63704 0.36342 0.0
C620 C 0.17605 0.63304 0.30945 0.0
C621 C 0.19186 0.6592 0.29871 0.0
C622 C 0.18547 0.61551 0.30759 0.0
C623 C 0.21102 0.62406 0.2956 0.0
C624 C 0.22576 0.64937 0.28133 0.0
H625 H 0.30429 0.55654 0.37364 0.0
H626 H 0.28864 0.58672 0.35743 0.0
C627 C 0.21617 0.66688 0.28279 0.0
C628 C 0.22359 0.60819 0.30335 0.0
H629 H 0.24255 0.58394 0.37224 0.0
C630 C 0.23076 0.59738 0.27553 0.0
C631 C 0.22865 0.60396 0.33859 0.0
C632 C 0.22283 0.61644 0.36949 0.0
C633 C 0.24204 0.5816 0.28214 0.0
C634 C 0.24582 0.57624 0.3175 0.0
C635 C 0.23943 0.58783 0.34519 0.0
C636 C 0.25572 0.55816 0.32655 0.0
C637 C 0.25006 0.57107 0.25121 0.0
C638 C 0.24211 0.53197 0.31523 0.0
C639 C 0.25098 0.51473 0.32443 0.0
C640 C 0.27349 0.5232 0.34559 0.0
C641 C 0.28683 0.54933 0.3575 0.0
C642 C 0.27798 0.56663 0.3481 0.0
H643 H 0.2535 0.58322 0.22719 0.0
H644 H 0.26815 0.5703 0.25719 0.0
H645 H 0.2341 0.55087 0.24516 0.0
H646 H 0.22446 0.52476 0.29948 0.0
H647 H 0.24015 0.49471 0.31487 0.0
H648 H 0.53417 0.74892 0.38195 0.0
H649 H 0.50523 0.70361 0.36441 0.0
H650 H 0.44921 0.72412 0.32413 0.0
H651 H 0.47854 0.7701 0.34121 0.0
H652 H 0.45468 0.66862 0.38388 0.0
H653 H 0.4613 0.68772 0.23942 0.0
H654 H 0.48333 0.71182 0.27076 0.0
H655 H 0.45052 0.70604 0.26556 0.0
C656 C 0.5156 0.74387 0.36963 0.0
C657 C 0.50871 0.76318 0.36284 0.0
C658 C 0.49911 0.71791 0.35954 0.0
C659 C 0.47535 0.71059 0.3423 0.0
C660 C 0.46777 0.72951 0.33671 0.0
H661 H 0.34868 0.56006 0.28418 0.0
H662 H 0.38081 0.60691 0.28427 0.0
C663 C 0.48435 0.75567 0.34691 0.0
C664 C 0.45877 0.68299 0.33068 0.0
H665 H 0.43349 0.64379 0.25791 0.0
C666 C 0.45011 0.6632 0.35633 0.0
C667 C 0.45295 0.67599 0.29467 0.0
C668 C 0.46265 0.69644 0.26589 0.0
C669 C 0.43555 0.6366 0.3471 0.0
C670 C 0.42986 0.62955 0.31111 0.0
C671 C 0.43828 0.6493 0.28538 0.0
C672 C 0.41317 0.60174 0.3006 0.0
C673 C 0.42582 0.61626 0.3761 0.0
C674 C 0.42123 0.58329 0.30713 0.0
C675 C 0.40288 0.55639 0.30674 0.0
C676 C 0.37636 0.54784 0.2999 0.0
C677 C 0.36908 0.56623 0.28929 0.0
C678 C 0.38739 0.593 0.28951 0.0
H679 H 0.42765 0.62511 0.40259 0.0
H680 H 0.40496 0.6012 0.37167 0.0
H681 H 0.43753 0.60621 0.37611 0.0
H682 H 0.44116 0.58974 0.31542 0.0
H683 H 0.40888 0.54264 0.31552 0.0
H684 H 0.49569 0.80486 0.27809 0.0
H685 H 0.4475 0.77895 0.27481 0.0
H686 H 0.44245 0.84162 0.32615 0.0
H687 H 0.49028 0.86724 0.3299 0.0
H688 H 0.41981 0.78434 0.36051 0.0
H689 H 0.38456 0.79126 0.22642 0.0
H690 H 0.41436 0.78992 0.23242 0.0
H691 H 0.41359 0.81893 0.24465 0.0
C692 C 0.48427 0.81361 0.2869 0.0
C693 C 0.49663 0.83817 0.3038 0.0
C694 C 0.45678 0.7987 0.28537 0.0
C695 C 0.44148 0.80842 0.30028 0.0
C696 C 0.45392 0.83387 0.31433 0.0
H697 H 0.29939 0.78156 0.38097 0.0
H698 H 0.34389 0.79274 0.36507 0.0
C699 C 0.48123 0.84857 0.31619 0.0
C700 C 0.41303 0.79108 0.30664 0.0
H701 H 0.35259 0.7716 0.27134 0.0
C702 C 0.40506 0.78106 0.34082 0.0
C703 C 0.39393 0.78676 0.28086 0.0
C704 C 0.4018 0.79717 0.2439 0.0
C705 C 0.3785 0.76803 0.35044 0.0
C706 C 0.35945 0.76514 0.32533 0.0
C707 C 0.36725 0.77377 0.29051 0.0
C708 C 0.33221 0.75686 0.33622 0.0
C709 C 0.37103 0.7584 0.38785 0.0
C710 C 0.31081 0.73274 0.32558 0.0
C711 C 0.28515 0.72605 0.33513 0.0
C712 C 0.28059 0.74367 0.35482 0.0
C713 C 0.3022 0.76754 0.36583 0.0
C714 C 0.32767 0.77399 0.35674 0.0
H715 H 0.3866 0.75614 0.40124 0.0
H716 H 0.36803 0.77282 0.403 0.0
H717 H 0.35242 0.7393 0.38844 0.0
H718 H 0.31396 0.71928 0.30965 0.0
H719 H 0.26887 0.70766 0.32594 0.0
H720 H 0.5055 0.76512 0.89909 0.0
H721 H 0.47774 0.78426 0.88565 0.0
H722 H 0.51888 0.81442 0.7873 0.0
H723 H 0.54721 0.79655 0.80121 0.0
H724 H 0.51099 0.84985 0.81647 0.0
H725 H 0.41758 0.75507 0.8184 0.0
H726 H 0.43466 0.76218 0.85975 0.0
H727 H 0.44904 0.75692 0.82091 0.0
C728 C 0.50861 0.77591 0.87471 0.0
C729 C 0.52853 0.77933 0.85127 0.0
C730 C 0.49265 0.78669 0.8669 0.0
C731 C 0.49588 0.80039 0.8351 0.0
C732 C 0.51597 0.80398 0.81198 0.0
H733 H 0.36908 0.82129 0.75902 0.0
H734 H 0.40548 0.81239 0.75906 0.0
C735 C 0.53216 0.7937 0.82001 0.0
C736 C 0.47841 0.81092 0.82542 0.0
H737 H 0.41427 0.79354 0.81433 0.0
C738 C 0.48982 0.83749 0.81577 0.0
C739 C 0.45084 0.79473 0.82371 0.0
C740 C 0.43731 0.7656 0.83087 0.0
C741 C 0.47443 0.84837 0.80493 0.0
C742 C 0.44678 0.83246 0.80487 0.0
C743 C 0.43545 0.80584 0.81424 0.0
C744 C 0.42889 0.84286 0.7969 0.0
C745 C 0.48808 0.87662 0.79301 0.0
C746 C 0.43072 0.86416 0.81612 0.0
C747 C 0.4104 0.86994 0.81483 0.0
C748 C 0.38764 0.85402 0.79517 0.0
C749 C 0.3867 0.83415 0.77376 0.0
C750 C 0.40734 0.82884 0.77424 0.0
H751 H 0.50778 0.88264 0.78202 0.0
H752 H 0.4765 0.88003 0.77267 0.0
H753 H 0.49092 0.88942 0.81605 0.0
H754 H 0.44669 0.8749 0.83449 0.0
H755 H 0.41119 0.88486 0.83238 0.0
H756 H 0.23007 0.54563 0.77342 0.0
H757 H 0.24934 0.59334 0.76704 0.0
H758 H 0.18114 0.58855 0.8164 0.0
H759 H 0.16221 0.54115 0.82344 0.0
H760 H 0.23258 0.63166 0.74157 0.0
H761 H 0.24481 0.62861 0.88659 0.0
H762 H 0.23732 0.60112 0.85814 0.0
H763 H 0.21189 0.60788 0.87092 0.0
C764 C 0.21862 0.55463 0.78105 0.0
C765 C 0.19455 0.53981 0.79848 0.0
C766 C 0.22975 0.58188 0.77776 0.0
C767 C 0.2168 0.59444 0.79177 0.0
C768 C 0.19149 0.57922 0.80566 0.0
H769 H 0.24962 0.75394 0.80159 0.0
H770 H 0.23408 0.70812 0.78727 0.0
C771 C 0.18055 0.55213 0.80929 0.0
C772 C 0.23102 0.62326 0.79707 0.0
H773 H 0.25419 0.6695 0.86226 0.0
C774 C 0.23748 0.64002 0.76787 0.0
C775 C 0.23797 0.6341 0.83139 0.0
C776 C 0.2329 0.61707 0.86359 0.0
C777 C 0.24979 0.66741 0.77228 0.0
C778 C 0.25533 0.67814 0.80683 0.0
C779 C 0.24977 0.66133 0.83583 0.0
C780 C 0.26585 0.70654 0.81383 0.0
C781 C 0.25685 0.68456 0.73991 0.0
C782 C 0.28856 0.72084 0.83443 0.0
C783 C 0.29734 0.74707 0.84322 0.0
C784 C 0.2835 0.75948 0.83168 0.0
C785 C 0.26085 0.74509 0.81089 0.0
C786 C 0.25205 0.7189 0.80229 0.0
H787 H 0.2594 0.67469 0.7165 0.0
H788 H 0.24076 0.68863 0.73394 0.0
H789 H 0.27518 0.70356 0.74405 0.0
H790 H 0.29941 0.71164 0.84391 0.0
H791 H 0.31489 0.75757 0.85915 0.0
H792 H 0.27142 0.56756 0.83895 0.0
H793 H 0.31644 0.5991 0.82038 0.0
H794 H 0.34053 0.54275 0.84556 0.0
H795 H 0.29613 0.5114 0.86397 0.0
H796 H 0.36394 0.61924 0.86018 0.0
H797 H 0.36596 0.56376 0.7433 0.0
H798 H 0.33582 0.55724 0.76449 0.0
H799 H 0.35533 0.54441 0.78287 0.0
C800 C 0.28638 0.56201 0.84079 0.0
C801 C 0.28012 0.53693 0.85294 0.0
C802 C 0.31202 0.57996 0.82996 0.0
C803 C 0.33165 0.57298 0.83079 0.0
C804 C 0.32555 0.54828 0.8438 0.0
H805 H 0.49794 0.64119 0.8159 0.0
H806 H 0.45031 0.61139 0.81293 0.0
C807 C 0.30013 0.53046 0.85464 0.0
C808 C 0.35888 0.59163 0.81951 0.0
H809 H 0.40764 0.59767 0.76459 0.0
C810 C 0.3734 0.6148 0.8389 0.0
C811 C 0.37119 0.58564 0.79186 0.0
C812 C 0.35622 0.56153 0.76919 0.0
C813 C 0.40024 0.63157 0.8325 0.0
C814 C 0.41274 0.62528 0.80536 0.0
C815 C 0.39804 0.60245 0.78533 0.0
C816 C 0.44134 0.64173 0.79883 0.0
C817 C 0.41522 0.65525 0.85597 0.0
C818 C 0.4521 0.66822 0.78955 0.0
C819 C 0.47915 0.68517 0.79135 0.0
C820 C 0.49593 0.6758 0.80173 0.0
C821 C 0.48544 0.64878 0.80724 0.0
C822 C 0.45824 0.63182 0.80587 0.0
H823 H 0.4042 0.65392 0.8804 0.0
H824 H 0.43452 0.65763 0.8636 0.0
H825 H 0.41879 0.67314 0.84146 0.0
H826 H 0.43945 0.67615 0.78333 0.0
H827 H 0.48682 0.70598 0.78722 0.0
H828 H 0.90222 0.03564 0.60087 0.0
H829 H 0.92728 1.01307 0.59086 0.0
H830 H 0.86324 0.94183 0.63349 0.0
H831 H 0.83851 0.96434 0.64372 0.0
H832 H 0.94137 0.99372 0.64834 0.0
H833 H 0.88738 0.91357 0.55287 0.0
H834 H 0.88262 0.94158 0.55584 0.0
H835 H 0.86572 0.91422 0.58553 0.0
C836 C 0.89299 1.01478 0.60617 0.0
C837 C 0.86826 1.00152 0.62242 0.0
C838 C 0.90744 1.00199 0.60088 0.0
C839 C 0.89707 0.97566 0.61112 0.0
C840 C 0.87146 0.96193 0.62462 0.0
H841 H 0.9232 0.86062 0.69287 0.0
H842 H 0.91056 0.89122 0.66953 0.0
C843 C 0.85726 0.97477 0.63036 0.0
C844 C 0.91394 0.96352 0.61344 0.0
H845 H 0.91276 0.90587 0.59733 0.0
C846 C 0.93563 0.97485 0.63639 0.0
C847 C 0.90651 0.93897 0.5978 0.0
C848 C 0.88443 0.92653 0.57135 0.0
C849 C 0.94857 0.9612 0.64653 0.0
C850 C 0.93974 0.93573 0.63301 0.0
C851 C 0.91937 0.92531 0.60797 0.0
C852 C 0.94871 0.91814 0.64787 0.0
C853 C 0.97029 0.97327 0.67357 0.0
C854 C 0.97459 0.92324 0.64388 0.0
C855 C 0.98204 0.90568 0.6575 0.0
C856 C 0.96366 0.88272 0.67517 0.0
C857 C 0.93793 0.87805 0.67947 0.0
C858 C 0.93058 0.8955 0.66599 0.0
H859 H 0.97273 0.99189 0.68449 0.0
H860 H 0.96632 0.95935 0.69566 0.0
H861 H 0.98906 0.97749 0.66116 0.0
H862 H 0.98884 0.94046 0.62965 0.0
H863 H 1.00193 0.90973 0.65343 0.0
H864 H 0.15884 0.0851 0.70767 0.0
H865 H 0.12964 0.03898 0.69176 0.0
H866 H 0.18762 0.04255 0.61911 0.0
H867 H 0.21676 0.08844 0.63451 0.0
H868 H 0.13594 1.01828 0.59077 0.0
H869 H 0.14019 0.97717 0.72117 0.0
H870 H 0.131 1.00206 0.72267 0.0
H871 H 0.16335 1.01043 0.70837 0.0
C872 C 0.16547 0.07601 0.68855 0.0
C873 C 0.19028 0.09044 0.6727 0.0
C874 C 0.14876 0.04967 0.67946 0.0
C875 C 0.15658 0.03732 0.65444 0.0
C876 C 0.18121 0.0517 0.63847 0.0
H877 H 0.08109 0.86912 0.63946 0.0
H878 H 0.115 0.91515 0.63291 0.0
C879 C 0.19791 0.07793 0.64753 0.0
C880 C 0.13929 1.00932 0.64504 0.0
H881 H 0.1101 0.94754 0.67943 0.0
C882 C 0.13032 1.00275 0.61007 0.0
C883 C 0.13235 0.98913 0.67012 0.0
C884 C 0.14236 0.99492 0.70763 0.0
C885 C 0.11411 0.97646 0.59973 0.0
C886 C 0.10661 0.95633 0.6251 0.0
C887 C 0.11595 0.96296 0.6599 0.0
C888 C 0.08804 0.92826 0.61722 0.0
C889 C 0.10533 0.97046 0.56179 0.0
C890 C 0.06192 0.92006 0.60806 0.0
C891 C 0.04263 0.89359 0.61096 0.0
C892 C 0.0492 0.87513 0.62343 0.0
C893 C 0.07568 0.88289 0.62884 0.0
C894 C 0.09499 0.90926 0.62563 0.0
H895 H 0.11859 0.9867 0.54396 0.0
H896 H 0.10449 0.95207 0.55293 0.0
H897 H 0.08538 0.96788 0.55927 0.0
H898 H 0.05595 0.93434 0.60218 0.0
H899 H 1.02223 0.8882 0.6078 0.0
H900 H 0.96394 0.12149 0.69735 0.0
H901 H 1.00758 0.13484 0.67543 0.0
H902 H 0.98144 0.05568 0.64105 0.0
H903 H 0.93714 0.04188 0.6632 0.0
H904 H 0.03038 0.08097 0.67891 0.0
H905 H 0.02945 0.1438 0.57067 0.0
H906 H 1.01966 0.1506 0.61236 0.0
H907 H 0.99986 0.1191 0.59188 0.0
C908 C 0.96732 0.10675 0.6853 0.0
C909 C 0.94693 0.08058 0.68192 0.0
C910 C 0.9923 0.11454 0.67244 0.0
C911 C 0.99755 0.09644 0.65575 0.0
C912 C 0.97762 0.07003 0.65339 0.0
H913 H 0.15485 0.12674 0.60502 0.0
H914 H 0.10733 0.10758 0.59919 0.0
C915 C 0.95241 0.06216 0.66625 0.0
C916 C 1.02432 0.10539 0.64231 0.0
H917 H 0.07195 0.15191 0.58958 0.0
C918 C 0.03938 0.09606 0.65884 0.0
C919 C 0.03595 0.12519 0.61622 0.0
C920 C 1.02032 0.1351 0.5965 0.0
C921 C 0.06622 0.10709 0.65155 0.0
C922 C 0.07813 0.12762 0.6264 0.0
C923 C 0.0628 0.13622 0.60881 0.0
C924 C 0.10685 0.1415 0.62027 0.0
C925 C 0.08187 0.09767 0.67234 0.0
C926 C 0.12248 0.16775 0.63104 0.0
C927 C 0.14976 0.17898 0.63351 0.0
C928 C 0.16154 0.16398 0.62536 0.0
C929 C 0.14614 0.13873 0.61112 0.0
C930 C 0.119 0.12767 0.60822 0.0
H931 H 0.07095 0.08582 0.69567 0.0
H932 H 0.08642 0.0852 0.65518 0.0
H933 H 0.1007 0.1145 0.68155 0.0
H934 H 0.11345 0.17879 0.64032 0.0
H935 H 0.1612 0.19828 0.64519 0.0
H936 H 0.15527 0.0746 0.19961 0.0
H937 H 0.12412 0.08866 0.18181 0.0
H938 H 0.18558 0.15406 0.12519 0.0
H939 H 0.2166 0.13997 0.14219 0.0
H940 H 0.1248 0.13397 0.19567 0.0
H941 H 0.12847 0.12317 0.05098 0.0
H942 H 0.14167 0.10933 0.08185 0.0
H943 H 0.16037 0.14345 0.06984 0.0
C944 C 0.16217 0.09203 0.18349 0.0
C945 C 0.18844 0.10617 0.17239 0.0
C946 C 0.14431 0.09994 0.17314 0.0
C947 C 0.15237 0.12206 0.15144 0.0
C948 C 0.1787 0.13649 0.14101 0.0
H949 H 0.08472 0.21997 0.14025 0.0
H950 H 0.11495 0.203 0.13468 0.0
C951 C 0.1965 0.12855 0.15115 0.0
C952 C 0.1337 0.131 0.14136 0.0
H953 H 0.10937 0.14873 0.07094 0.0
C954 C 0.12124 0.13691 0.16838 0.0
C955 C 0.12883 0.1346 0.10568 0.0
C956 C 0.14033 0.12704 0.07541 0.0
C957 C 0.10482 0.14719 0.16083 0.0
C958 C 0.10108 0.1521 0.12533 0.0
C959 C 0.1127 0.14534 0.09813 0.0
C960 C 0.08525 0.16456 0.11685 0.0
C961 C 0.09173 0.15301 0.19095 0.0
C962 C 0.05906 0.14915 0.10597 0.0
C963 C 0.04186 0.15906 0.10843 0.0
C964 C 0.05076 0.18433 0.12203 0.0
C965 C 0.0776 0.20064 0.12897 0.0
C966 C 0.09478 0.19086 0.12618 0.0
H967 H 0.09261 0.14356 0.21594 0.0
H968 H 0.10177 0.17453 0.19532 0.0
H969 H 0.07086 0.14618 0.18461 0.0
H970 H 0.05135 0.12874 0.09893 0.0
H971 H 1.02112 0.14592 0.10387 0.0
H972 H 0.84359 0.88916 0.15158 0.0
H973 H 0.8687 0.93651 0.1423 0.0
H974 H 0.9321 0.92904 0.09796 0.0
H975 H 0.90663 0.88128 0.10694 0.0
H976 H 0.9467 0.96274 0.1561 0.0
H977 H 0.89224 0.98857 0.06064 0.0
H978 H 0.87084 0.96616 0.09347 0.0
H979 H 0.88777 0.95591 0.06359 0.0
C980 C 0.8623 0.89748 0.13816 0.0
C981 C 0.87295 0.88157 0.12929 0.0
C982 C 0.87673 0.92458 0.13297 0.0
C983 C 0.90223 0.93638 0.11913 0.0
C984 C 0.91234 0.92034 0.10825 0.0
H985 H 1.00672 0.10799 0.15654 0.0
H986 H 0.99397 0.06379 0.13464 0.0
C987 C 0.89766 0.89304 0.11295 0.0
C988 C 0.91916 0.96539 0.12123 0.0
H989 H 0.91808 0.02185 0.10437 0.0
C990 C 0.94096 0.97585 0.14401 0.0
C991 C 0.91172 0.98247 0.10537 0.0
C992 C 0.88951 0.97272 0.07911 0.0
C993 C 0.95404 1.00252 0.15371 0.0
C994 C 0.9452 0.01912 0.13999 0.0
C995 C 0.9247 1.00905 0.11515 0.0
C996 C 0.95424 0.04576 0.15451 0.0
C997 C 0.97593 1.01236 0.1805 0.0
C998 C 0.9363 0.05022 0.17316 0.0
C999 C 0.94346 0.07521 0.18561 0.0
C1000 C 0.9688 0.09653 0.17967 0.0
C1001 C 0.98712 0.09197 0.16181 0.0
C1002 C 0.97986 0.06675 0.14923 0.0
H1003 H 0.97883 0.99636 0.19106 0.0
H1004 H 0.9945 0.02729 0.16805 0.0
H1005 H 0.97176 0.02194 0.20283 0.0
H1006 H 0.9165 0.03432 0.17771 0.0
H1007 H 0.92881 0.07788 0.19927 0.0
H1008 H 0.15637 0.03573 0.10392 0.0
H1009 H 0.10883 1.00704 0.09952 0.0
H1010 H 0.11602 0.94327 0.14351 0.0
H1011 H 0.16379 0.97186 0.14707 0.0
H1012 H 0.07319 0.92754 0.09327 0.0
H1013 H 0.07493 0.99468 0.19813 0.0
H1014 H 0.08971 1.00994 0.15689 0.0
H1015 H 0.10425 0.99516 0.18329 0.0
C1016 C 0.14789 1.01519 0.11085 0.0
C1017 C 0.16361 1.00586 0.12559 0.0
C1018 C 0.12074 0.99893 0.10877 0.0
C1019 C 0.1089 0.97328 0.12208 0.0
C1020 C 0.12481 0.96307 0.13323 0.0
H1021 H 0.9656 0.85198 0.20337 0.0
H1022 H 1.00935 0.88144 0.18094 0.0
C1023 C 0.1521 0.97929 0.13493 0.0
C1024 C 0.08035 0.95864 0.1294 0.0
H1025 H 0.03392 0.95884 0.18329 0.0
C1026 C 0.06453 0.93448 0.11268 0.0
C1027 C 0.06909 0.96778 0.15477 0.0
C1028 C 0.08533 0.99319 0.17457 0.0
C1029 C 0.03781 0.91899 0.12108 0.0
C1030 C 1.02684 0.92771 0.14736 0.0
C1031 C 0.0424 0.95228 0.16311 0.0
C1032 C 1.00012 0.91046 0.16143 0.0
C1033 C 1.02159 0.89326 0.10205 0.0
C1034 C 0.98065 0.9176 0.15943 0.0
C1035 C 0.95542 0.90078 0.17262 0.0
C1036 C 0.94943 0.8767 0.18823 0.0
C1037 C 0.9694 0.87027 0.19136 0.0
C1038 C 0.99442 0.88697 0.1782 0.0
H1039 H 0.03022 0.89322 0.07601 0.0
H1040 H 1.02094 0.87717 0.11814 0.0
H1041 H 1.00115 0.88904 0.09796 0.0
H1042 H 0.98482 0.93589 0.14703 0.0
H1043 H 0.94049 0.90629 0.16974 0.0
H1044 H 0.60513 0.1543 0.42308 0.0
H1045 H 0.62194 0.15564 0.36312 0.0
H1046 H 0.54558 0.13246 0.3199 0.0
H1047 H 0.52884 0.13128 0.37865 0.0
H1048 H 0.60215 0.11329 0.31169 0.0
H1049 H 0.59511 0.19837 0.26297 0.0
H1050 H 0.59504 0.19131 0.3094 0.0
H1051 H 0.56551 0.17389 0.28366 0.0
C1052 C 0.59203 0.14967 0.40073 0.0
C1053 C 0.56565 0.14272 0.40576 0.0
C1054 C 0.60163 0.15039 0.36657 0.0
C1055 C 0.58505 0.14449 0.33709 0.0
C1056 C 0.55883 0.13755 0.34218 0.0
H1057 H 0.58056 0.12469 0.11157 0.0
H1058 H 0.57083 0.1242 0.17462 0.0
C1059 C 0.54927 0.13676 0.37598 0.0
C1060 C 0.5944 0.1447 0.30074 0.0
H1061 H 0.59768 0.17057 0.21892 0.0
C1062 C 0.60162 0.12607 0.29146 0.0
C1063 C 0.59353 0.16133 0.27441 0.0
C1064 C 0.58713 0.18253 0.28312 0.0
C1065 C 0.60692 0.12292 0.25618 0.0
C1066 C 0.60514 0.13895 0.22973 0.0
C1067 C 0.59865 0.15805 0.2392 0.0
C1068 C 0.61039 0.13668 0.19204 0.0
C1069 C 0.61352 0.1019 0.24723 0.0
C1070 C 0.63576 0.1436 0.18108 0.0
C1071 C 0.64138 0.14399 0.14523 0.0
C1072 C 0.62173 0.1375 0.11953 0.0
C1073 C 0.59609 0.12968 0.13065 0.0
C1074 C 0.59053 0.12948 0.16662 0.0
H1075 H 0.60866 0.08766 0.26918 0.0
H1076 H 0.60285 0.09106 0.22313 0.0
H1077 H 0.63485 0.1112 0.24188 0.0
H1078 H 0.65144 0.14956 0.20021 0.0
H1079 H 0.66133 0.15003 0.1376 0.0
H1080 H 0.94224 0.47882 0.42824 0.0
H1081 H 0.94556 0.49732 0.36911 0.0
H1082 H 0.90394 0.41923 0.32545 0.0
H1083 H 0.90018 0.40061 0.38401 0.0
H1084 H 0.96703 0.49087 0.30435 0.0
H1085 H 0.85997 0.45256 0.29526 0.0
H1086 H 0.87621 0.45419 0.33643 0.0
H1087 H 0.86801 0.42769 0.30603 0.0
C1088 C 0.93382 0.4656 0.40602 0.0
C1089 C 0.92067 0.43823 0.41093 0.0
C1090 C 0.93582 0.47621 0.37229 0.0
C1091 C 0.92461 0.45959 0.3431 0.0
C1092 C 0.91229 0.43235 0.34778 0.0
H1093 H 0.93972 0.48182 0.11775 0.0
H1094 H 0.94704 0.47616 0.18007 0.0
C1095 C 0.91021 0.42176 0.38132 0.0
C1096 C 0.92488 0.47037 0.3077 0.0
H1097 H 0.88401 0.46699 0.24154 0.0
C1098 C 0.94895 0.48596 0.29064 0.0
C1099 C 0.90127 0.46427 0.29022 0.0
C1100 C 0.87491 0.44898 0.30803 0.0
C1101 C 0.94993 0.49478 0.25585 0.0
C1102 C 0.92619 0.48736 0.23766 0.0
C1103 C 0.90223 0.47253 0.25532 0.0
C1104 C 0.9253 0.49416 0.20014 0.0
C1105 C 0.97631 0.51201 0.23906 0.0
C1106 C 0.91069 0.50614 0.19064 0.0
C1107 C 0.90601 0.50881 0.15521 0.0
C1108 C 0.91604 0.49977 0.12849 0.0
C1109 C 0.93188 0.48907 0.13783 0.0
C1110 C 0.93622 0.48601 0.17344 0.0
H1111 H 0.99177 0.52256 0.25931 0.0
H1112 H 0.98192 0.4996 0.22351 0.0
H1113 H 0.9758 0.52664 0.22103 0.0
H1114 H 0.90209 0.5126 0.21073 0.0
H1115 H 0.89396 0.51739 0.14874 0.0
H1116 H 0.62159 0.52544 0.39634 0.0
H1117 H 0.60337 0.51191 0.33751 0.0
H1118 H 0.57338 0.43083 0.36582 0.0
H1119 H 0.59144 0.44425 0.42566 0.0
H1120 H 0.61705 0.48508 0.29046 0.0
H1121 H 0.51006 0.4303 0.31812 0.0
H1122 H 0.53389 0.45222 0.34985 0.0
H1123 H 0.52936 0.42 0.34306 0.0
C1124 C 0.61106 0.50466 0.39032 0.0
C1125 C 0.60812 0.4859 0.41574 0.0
C1126 C 0.60057 0.49699 0.35661 0.0
C1127 C 0.58685 0.4704 0.34739 0.0
C1128 C 0.58353 0.45146 0.37265 0.0
H1129 H 0.53291 0.3892 0.15105 0.0
H1130 H 0.54058 0.40245 0.21285 0.0
C1131 C 0.59399 0.45915 0.40671 0.0
C1132 C 0.57767 0.46304 0.31054 0.0
H1133 H 0.52311 0.42919 0.25913 0.0
C1134 C 0.5965 0.47299 0.28357 0.0
C1135 C 0.55085 0.44732 0.30174 0.0
C1136 C 0.52978 0.43697 0.32962 0.0
C1137 C 0.58931 0.46726 0.24802 0.0
C1138 C 0.5625 0.45149 0.23916 0.0
C1139 C 0.54361 0.44153 0.26608 0.0
C1140 C 0.55415 0.44337 0.20225 0.0
C1141 C 0.61054 0.47745 0.22029 0.0
C1142 C 0.55829 0.4619 0.1759 0.0
C1143 C 0.55392 0.45438 0.14033 0.0
C1144 C 0.5455 0.42827 0.1308 0.0
C1145 C 0.53979 0.40956 0.15754 0.0
C1146 C 0.54401 0.41704 0.1929 0.0
H1147 H 0.63035 0.48503 0.23204 0.0
H1148 H 0.607 0.46178 0.20105 0.0
H1149 H 0.61041 0.49372 0.20562 0.0
H1150 H 0.56581 0.4823 0.18275 0.0
H1151 H 0.55838 0.46919 0.12032 0.0
H1152 H 0.91424 0.51423 0.88745 0.0
H1153 H 0.91589 0.4974 0.82963 0.0
H1154 H 0.89258 0.4216 0.87494 0.0
H1155 H 0.8907 0.43835 0.93372 0.0
H1156 H 0.94825 0.47577 0.81062 0.0
H1157 H 0.84162 0.40621 0.79009 0.0
H1158 H 0.85345 0.43191 0.82286 0.0
H1159 H 0.85625 0.4033 0.83038 0.0
C1160 C 0.90931 0.4939 0.88537 0.0
C1161 C 0.90247 0.47767 0.91538 0.0
C1162 C 0.91032 0.48436 0.85218 0.0
C1163 C 0.90439 0.45833 0.84802 0.0
C1164 C 0.89705 0.44175 0.87764 0.0
H1165 H 0.89501 0.3834 0.64563 0.0
H1166 H 0.8973 0.39213 0.70883 0.0
C1167 C 0.89602 0.45134 0.91116 0.0
C1168 C 0.90655 0.44923 0.81243 0.0
H1169 H 0.86995 0.41171 0.74317 0.0
C1170 C 0.93119 0.46154 0.79594 0.0
C1171 C 0.88427 0.43065 0.79349 0.0
C1172 C 0.85731 0.41727 0.80985 0.0
C1173 C 0.93407 0.45624 0.76064 0.0
C1174 C 0.91161 0.43851 0.7412 0.0
C1175 C 0.88712 0.42542 0.75811 0.0
C1176 C 0.91279 0.43388 0.70295 0.0
C1177 C 0.96109 0.46972 0.7445 0.0
C1178 C 0.92108 0.45456 0.67859 0.0
C1179 C 0.91989 0.44968 0.64228 0.0
C1180 C 0.91008 0.42396 0.62974 0.0
C1181 C 0.90252 0.40344 0.65433 0.0
C1182 C 0.9038 0.40836 0.69051 0.0
H1183 H 0.97661 0.47616 0.76503 0.0
H1184 H 0.96344 0.45662 0.7256 0.0
H1185 H 0.96412 0.48742 0.72999 0.0
H1186 H 0.92762 0.47435 0.68761 0.0
H1187 H 0.92571 0.46587 0.62409 0.0
H1188 H 0.64438 0.47198 0.64254 0.0
H1189 H 0.63355 0.46672 0.70498 0.0
H1190 H 0.58891 0.5061 0.69074 0.0
H1191 H 0.59888 0.51048 0.62731 0.0
H1192 H 0.64457 0.50139 0.75578 0.0
H1193 H 0.53633 0.44093 0.74062 0.0
H1194 H 0.55836 0.44852 0.70389 0.0
H1195 H 0.55075 0.47266 0.72019 0.0
C1196 C 0.63213 0.47944 0.65257 0.0
C1197 C 0.62231 0.49149 0.62996 0.0
C1198 C 0.62604 0.4765 0.68837 0.0
C1199 C 0.61022 0.48579 0.7026 0.0
C1200 C 0.60067 0.49824 0.68024 0.0
H1201 H 0.59351 0.47927 0.93545 0.0
H1202 H 0.60765 0.49691 0.87564 0.0
C1203 C 0.60641 0.5008 0.64406 0.0
C1204 C 0.60379 0.48187 0.74079 0.0
H1205 H 0.55294 0.45046 0.7984 0.0
C1206 C 0.62452 0.49038 0.76518 0.0
C1207 C 0.57763 0.46743 0.75297 0.0
C1208 C 0.55447 0.45664 0.7281 0.0
C1209 C 0.61986 0.48381 0.80112 0.0
C1210 C 0.5937 0.46908 0.81317 0.0
C1211 C 0.57299 0.4617 0.78907 0.0
C1212 C 0.5871 0.45899 0.84984 0.0
C1213 C 0.64298 0.49153 0.82535 0.0
C1214 C 0.57087 0.43192 0.85523 0.0
C1215 C 0.56243 0.42201 0.88903 0.0
C1216 C 0.57037 0.43889 0.91826 0.0
C1217 C 0.58751 0.46587 0.91329 0.0
C1218 C 0.59558 0.47591 0.87918 0.0
H1219 H 0.66122 0.49698 0.8104 0.0
H1220 H 0.6464 0.50879 0.84125 0.0
H1221 H 0.63922 0.47531 0.84374 0.0
H1222 H 0.5642 0.41846 0.83309 0.0
H1223 H 0.5492 0.40113 0.89227 0.0
H1224 H 0.57224 0.1055 0.91685 0.0
H1225 H 0.55511 0.10173 0.85683 0.0
H1226 H 0.63345 0.13452 0.81518 0.0
H1227 H 0.65075 0.13901 0.8748 0.0
H1228 H 0.60909 0.15888 0.78939 0.0
H1229 H 0.54367 0.05126 0.77689 0.0
H1230 H 0.53673 0.06528 0.81455 0.0
H1231 H 0.56754 0.0659 0.8119 0.0
C1232 C 0.58578 0.11171 0.89487 0.0
C1233 C 0.61289 0.1227 0.90068 0.0
C1234 C 0.57592 0.10932 0.86054 0.0
C1235 C 0.59296 0.11753 0.83144 0.0
C1236 C 0.61992 0.12799 0.83721 0.0
H1237 H 0.56024 0.10092 0.60562 0.0
H1238 H 0.5699 0.09442 0.66668 0.0
C1239 C 0.62979 0.13059 0.87139 0.0
C1240 C 0.58324 0.11725 0.79514 0.0
H1241 H 0.54095 0.0777 0.7311 0.0
C1242 C 0.59425 0.14109 0.77666 0.0
C1243 C 0.56406 0.09398 0.77839 0.0
C1244 C 0.55246 0.0676 0.79628 0.0
C1245 C 0.58655 0.14241 0.74205 0.0
C1246 C 0.56675 0.11934 0.72568 0.0
C1247 C 0.5559 0.09538 0.7439 0.0
C1248 C 0.55739 0.12007 0.68955 0.0
C1249 C 0.6001 0.16848 0.72311 0.0
C1250 C 0.54617 0.13574 0.68242 0.0
C1251 C 0.54092 0.13969 0.64773 0.0
C1252 C 0.54643 0.12773 0.61946 0.0
C1253 C 0.55588 0.11048 0.62683 0.0
C1254 C 0.56139 0.10674 0.66167 0.0
H1255 H 0.61925 0.1823 0.73552 0.0
H1256 H 0.60352 0.16594 0.69493 0.0
H1257 H 0.58754 0.17758 0.72425 0.0
H1258 H 0.54238 0.14572 0.70364 0.0
H1259 H 0.53323 0.15274 0.64298 0.0
H1260 H 0.32586 0.48025 0.47853 0.0
H1261 H 0.31448 0.47675 0.54092 0.0
H1262 H 0.23297 0.44455 0.51333 0.0
H1263 H 0.24411 0.44769 0.4506 0.0
H1264 H 0.29167 0.50274 0.57234 0.0
H1265 H 0.23023 0.39523 0.59155 0.0
H1266 H 0.25137 0.40945 0.55376 0.0
H1267 H 0.21996 0.40761 0.55521 0.0
C1268 C 0.30542 0.47208 0.48565 0.0
C1269 C 0.28588 0.46437 0.45953 0.0
C1270 C 0.29899 0.4701 0.52136 0.0
C1271 C 0.2729 0.46024 0.53174 0.0
C1272 C 0.25319 0.45178 0.50587 0.0
H1273 H 0.18864 0.45188 0.7183 0.0
H1274 H 0.20469 0.45067 0.65963 0.0
C1275 C 0.2596 0.45369 0.47002 0.0
C1276 C 0.26666 0.46079 0.56946 0.0
H1277 H 0.22904 0.42243 0.63738 0.0
C1278 C 0.27821 0.48516 0.58674 0.0
C1279 C 0.24915 0.43781 0.58809 0.0
C1280 C 0.23714 0.411 0.57135 0.0
C1281 C 0.27192 0.48731 0.62182 0.0
C1282 C 0.25392 0.46441 0.64017 0.0
C1283 C 0.24285 0.43996 0.62316 0.0
C1284 C 0.24486 0.46555 0.67617 0.0
C1285 C 0.28376 0.51416 0.63849 0.0
C1286 C 0.2622 0.47437 0.70502 0.0
C1287 C 0.25311 0.47522 0.73885 0.0
C1288 C 0.22648 0.46709 0.74429 0.0
C1289 C 0.20927 0.45831 0.71518 0.0
C1290 C 0.21837 0.45751 0.68156 0.0
H1291 H 0.29311 0.53011 0.61862 0.0
H1292 H 0.26861 0.51644 0.65287 0.0
H1293 H 0.29901 0.51655 0.6578 0.0
H1294 H 0.28269 0.48035 0.70142 0.0
H1295 H 0.26684 0.48199 0.7607 0.0
H1296 H 0.61324 0.8185 0.44583 0.0
H1297 H 0.61957 0.81003 0.50758 0.0
H1298 H 0.57584 0.84679 0.54218 0.0
H1299 H 0.56883 0.85459 0.48083 0.0
H1300 H 0.63938 0.83968 0.57077 0.0
H1301 H 0.53199 0.77128 0.5772 0.0
H1302 H 0.54886 0.78491 0.53619 0.0
H1303 H 0.54063 0.80408 0.56486 0.0
C1304 C 0.60547 0.82523 0.46667 0.0
C1305 C 0.59016 0.83678 0.45859 0.0
C1306 C 0.60907 0.82038 0.5019 0.0
C1307 C 0.59762 0.82723 0.52937 0.0
C1308 C 0.5843 0.84078 0.52135 0.0
H1309 H 0.61216 0.81139 0.75734 0.0
H1310 H 0.61676 0.82909 0.69754 0.0
C1311 C 0.58037 0.84528 0.4863 0.0
C1312 C 0.59731 0.81808 0.56596 0.0
H1313 H 0.5555 0.77971 0.63075 0.0
C1314 C 0.62109 0.82654 0.58396 0.0
C1315 C 0.57341 0.8006 0.58286 0.0
C1316 C 0.54728 0.78945 0.56422 0.0
C1317 C 0.62155 0.81818 0.61866 0.0
C1318 C 0.59756 0.8013 0.63586 0.0
C1319 C 0.57387 0.79281 0.61768 0.0
C1320 C 0.59626 0.79107 0.6721 0.0
C1321 C 0.64767 0.82695 0.63622 0.0
C1322 C 0.58277 0.76387 0.67781 0.0
C1323 C 0.57968 0.75374 0.71187 0.0
C1324 C 0.59009 0.77058 0.74112 0.0
C1325 C 0.60389 0.79787 0.73539 0.0
C1326 C 0.60678 0.80803 0.70118 0.0
H1327 H 0.66381 0.83389 0.61663 0.0
H1328 H 0.65216 0.84347 0.65439 0.0
H1329 H 0.64727 0.8108 0.65191 0.0
H1330 H 0.57442 0.7504 0.65581 0.0
H1331 H 0.56905 0.73263 0.71518 0.0
H1332 H 0.24072 0.8113 0.75254 0.0
H1333 H 0.22448 0.79766 0.69223 0.0
H1334 H 0.30325 0.84356 0.65232 0.0
H1335 H 0.31974 0.85696 0.71226 0.0
H1336 H 0.22843 0.82622 0.62937 0.0
H1337 H 0.27958 0.76886 0.61757 0.0
H1338 H 0.27526 0.78095 0.65931 0.0
H1339 H 0.30075 0.80257 0.6296 0.0
C1340 C 0.25459 0.81856 0.73093 0.0
C1341 C 0.2816 0.83493 0.73732 0.0
C1342 C 0.24524 0.81083 0.69649 0.0
C1343 C 0.26274 0.81925 0.66794 0.0
C1344 C 0.2895 0.83646 0.67409 0.0
H1345 H 0.23225 0.80396 0.44153 0.0
H1346 H 0.24145 0.82014 0.50247 0.0
C1347 C 0.29887 0.84414 0.70841 0.0
C1348 C 0.25334 0.80916 0.63189 0.0
H1349 H 0.26075 0.77444 0.56529 0.0
C1350 C 0.23536 0.8148 0.61532 0.0
C1351 C 0.26215 0.79395 0.6139 0.0
C1352 C 0.2803 0.78598 0.63107 0.0
C1353 C 0.22634 0.80602 0.58083 0.0
C1354 C 0.23589 0.79159 0.56243 0.0
C1355 C 0.25357 0.78567 0.57931 0.0
C1356 C 0.22766 0.78185 0.52586 0.0
C1357 C 0.20639 0.81189 0.56468 0.0
C1358 C 0.21689 0.75501 0.51874 0.0
C1359 C 0.21203 0.74583 0.48407 0.0
C1360 C 0.21777 0.76327 0.45568 0.0
C1361 C 0.22753 0.79003 0.46284 0.0
C1362 C 0.23265 0.79928 0.49768 0.0
H1363 H 0.19591 0.81665 0.58514 0.0
H1364 H 0.21654 0.82911 0.54692 0.0
H1365 H 0.19174 0.79503 0.54882 0.0
H1366 H 0.21285 0.7412 0.54004 0.0
H1367 H 0.20425 0.72505 0.47948 0.0
H1368 H 0.59534 0.80142 0.95454 0.0
H1369 H 0.59529 0.80977 0.01799 0.0
H1370 H 0.57631 0.73039 0.04065 0.0
H1371 H 0.57613 0.72178 0.97748 0.0
H1372 H 0.5454 0.77314 0.06031 0.0
H1373 H 0.63779 0.781 0.11205 0.0
H1374 H 0.6349 0.78949 0.06702 0.0
H1375 H 0.61873 0.75574 0.08024 0.0
C1376 C 0.59182 0.78596 0.97306 0.0
C1377 C 0.5856 0.76091 0.961 0.0
C1378 C 0.59169 0.79072 0.00925 0.0
C1379 C 0.58584 0.77068 0.03388 0.0
C1380 C 0.58107 0.74613 0.02204 0.0
H1381 H 0.56888 0.77551 0.26515 0.0
H1382 H 0.5696 0.75877 0.20577 0.0
C1383 C 0.5809 0.74127 0.98594 0.0
C1384 C 0.58194 0.77452 0.07149 0.0
H1385 H 0.60952 0.78403 0.15343 0.0
C1386 C 0.55937 0.77546 0.08072 0.0
C1387 C 0.5999 0.7769 0.09802 0.0
C1388 C 0.62431 0.77585 0.08911 0.0
C1389 C 0.55456 0.77935 0.1158 0.0
C1390 C 0.57314 0.78303 0.1422 0.0
C1391 C 0.59529 0.78115 0.13316 0.0
C1392 C 0.5714 0.79189 0.17821 0.0
C1393 C 0.52966 0.77964 0.12424 0.0
C1394 C 0.5722 0.81593 0.18225 0.0
C1395 C 0.57175 0.8254 0.21572 0.0
C1396 C 0.57072 0.81119 0.24618 0.0
C1397 C 0.56954 0.78684 0.24222 0.0
C1398 C 0.57008 0.77734 0.20839 0.0
H1399 H 0.51401 0.76812 0.10462 0.0
H1400 H 0.52231 0.77158 0.15098 0.0
H1401 H 0.53362 0.80016 0.1234 0.0
H1402 H 0.57372 0.82771 0.15942 0.0
H1403 H 0.57263 0.8442 0.21765 0.0
H1404 H 0.33024 0.84304 0.97372 0.0
H1405 H 0.31877 0.83194 0.03565 0.0
H1406 H 0.23727 0.78439 0.007 0.0
H1407 H 0.24856 0.79514 0.94464 0.0
H1408 H 0.28445 0.83951 0.0793 0.0
H1409 H 0.25297 0.73396 0.06377 0.0
H1410 H 0.27157 0.75813 0.03046 0.0
H1411 H 0.23689 0.74557 0.03453 0.0
C1412 C 0.30983 0.83022 0.98047 0.0
C1413 C 0.29033 0.81975 0.9541 0.0
C1414 C 0.30334 0.82396 0.01594 0.0
C1415 C 0.27727 0.80702 0.02581 0.0
C1416 C 0.2576 0.79712 0.99979 0.0
H1417 H 0.19206 0.74183 0.216 0.0
H1418 H 0.20832 0.75566 0.15641 0.0
C1419 C 0.26407 0.8034 0.96421 0.0
C1420 C 0.27078 0.79961 0.06336 0.0
H1421 H 0.24473 0.7471 0.11925 0.0
C1422 C 0.27592 0.81935 0.08816 0.0
C1423 C 0.2599 0.77332 0.07477 0.0
C1424 C 0.25521 0.75152 0.0496 0.0
C1425 C 0.26954 0.81332 0.12396 0.0
C1426 C 0.25814 0.78695 0.1352 0.0
C1427 C 0.25351 0.76731 0.11051 0.0
C1428 C 0.249 0.77893 0.1719 0.0
C1429 C 0.27417 0.83504 0.14924 0.0
C1430 C 0.2666 0.78726 0.20049 0.0
C1431 C 0.25734 0.77937 0.23496 0.0
C1432 C 0.23035 0.76299 0.24124 0.0
C1433 C 0.21296 0.75453 0.21232 0.0
C1434 C 0.2222 0.76237 0.17811 0.0
H1435 H 0.27854 0.85338 0.13522 0.0
H1436 H 0.25678 0.82896 0.16637 0.0
H1437 H 0.29111 0.83937 0.16651 0.0
H1438 H 0.28745 0.79973 0.19613 0.0
H1439 H 0.27126 0.78612 0.2566 0.0
H1440 H 0.20178 0.48506 0.98095 0.0
H1441 H 0.21094 0.47855 0.04182 0.0
H1442 H 0.2359 0.42481 0.00648 0.0
H1443 H 0.22619 0.43079 0.94521 0.0
H1444 H 0.20706 0.40979 0.0711 0.0
H1445 H 0.2879 0.51334 0.07292 0.0
H1446 H 0.25663 0.50967 0.06152 0.0
H1447 H 0.27166 0.49669 0.03272 0.0
C1448 C 0.20895 0.47162 0.98611 0.0
C1449 C 0.21371 0.45878 0.95826 0.0
C1450 C 0.21418 0.46795 0.0209 0.0
C1451 C 0.22466 0.45169 0.02849 0.0
C1452 C 0.22797 0.43758 0.00106 0.0
H1453 H 0.317 0.47085 0.21486 0.0
H1454 H 0.30006 0.46601 0.15497 0.0
C1455 C 0.22245 0.44103 0.96612 0.0
C1456 C 0.23396 0.45113 0.06465 0.0
H1457 H 0.27704 0.49079 0.12755 0.0
C1458 C 0.22243 0.42742 0.0835 0.0
C1459 C 0.25429 0.47412 0.08045 0.0
C1460 C 0.26854 0.49985 0.06078 0.0
C1461 C 0.23043 0.42622 0.11814 0.0
C1462 C 0.25012 0.44946 0.13434 0.0
C1463 C 0.26182 0.47303 0.1152 0.0
C1464 C 0.25959 0.45 0.17081 0.0
C1465 C 0.21807 0.40006 0.13676 0.0
C1466 C 0.24244 0.4425 0.19972 0.0
C1467 C 0.25207 0.44506 0.23417 0.0
C1468 C 0.27908 0.45558 0.24026 0.0
C1469 C 0.29612 0.46285 0.21119 0.0
C1470 C 0.28646 0.46003 0.17688 0.0
H1471 H 0.20909 0.38348 0.11775 0.0
H1472 H 0.23272 0.3981 0.15303 0.0
H1473 H 0.20233 0.39842 0.15448 0.0
H1474 H 0.22172 0.43529 0.19574 0.0
H1475 H 0.23844 0.43932 0.256 0.0
H1476 H 0.99665 0.84545 0.80938 0.0
H1477 H 0.98889 0.84139 0.87275 0.0
H1478 H 0.90983 0.7783 0.85516 0.0
H1479 H 0.91765 0.78185 0.79125 0.0
H1480 H 0.95374 0.84926 0.9075 0.0
H1481 H 0.93452 0.74841 0.93314 0.0
H1482 H 0.94879 0.76557 0.89241 0.0
H1483 H 0.91392 0.74979 0.8992 0.0
C1484 C 0.9776 0.83056 0.8189 0.0
C1485 C 0.95766 0.81407 0.79525 0.0
C1486 C 0.97327 0.82823 0.85519 0.0
C1487 C 0.94891 0.8094 0.86873 0.0
C1488 C 0.92899 0.79261 0.8453 0.0
H1489 H 0.86465 0.77886 0.05881 0.0
H1490 H 0.88275 0.77999 0.00084 0.0
C1491 C 0.93339 0.79478 0.8088 0.0
C1492 C 0.94397 0.80874 0.90716 0.0
H1493 H 0.92292 0.76857 0.97923 0.0
C1494 C 0.94736 0.83172 0.92331 0.0
C1495 C 0.93584 0.7859 0.92774 0.0
C1496 C 0.9333 0.76109 0.91234 0.0
C1497 C 0.94169 0.83215 0.95915 0.0
C1498 C 0.93265 0.80905 0.9794 0.0
C1499 C 0.92999 0.78628 0.96357 0.0
C1500 C 0.92282 0.8073 0.01575 0.0
C1501 C 0.94421 0.85693 0.97471 0.0
C1502 C 0.93953 0.82201 0.0436 0.0
C1503 C 0.92919 0.82143 0.07712 0.0
C1504 C 0.90203 0.80625 0.08298 0.0
C1505 C 0.88562 0.79102 0.05515 0.0
C1506 C 0.89593 0.79149 0.02198 0.0
H1507 H 0.94793 0.87192 0.95422 0.0
H1508 H 0.92611 0.85251 0.98929 0.0
H1509 H 0.96078 0.86547 0.99375 0.0
H1510 H 0.96042 0.83417 0.03926 0.0
H1511 H 0.9423 0.83331 0.09808 0.0
H1512 H 0.23502 0.18832 0.80514 0.0
H1513 H 0.24193 0.18226 0.86722 0.0
H1514 H 0.27358 0.13291 0.83716 0.0
H1515 H 0.26729 0.13931 0.77496 0.0
H1516 H 0.21775 0.13577 0.90032 0.0
H1517 H 0.32523 0.17856 0.91238 0.0
H1518 H 0.31015 0.18503 0.87507 0.0
H1519 H 0.31157 0.15519 0.87708 0.0
C1520 C 0.24384 0.1765 0.81169 0.0
C1521 C 0.25045 0.16414 0.78513 0.0
C1522 C 0.24782 0.17312 0.84718 0.0
C1523 C 0.2585 0.15736 0.85678 0.0
C1524 C 0.26587 0.14565 0.83032 0.0
H1525 H 0.22835 0.06429 0.04257 0.0
H1526 H 0.23121 0.08246 0.98374 0.0
C1527 C 0.26207 0.14917 0.79477 0.0
C1528 C 0.25928 0.1509 0.89436 0.0
H1529 H 0.29907 0.14909 0.95867 0.0
C1530 C 0.2356 0.13899 0.91319 0.0
C1531 C 0.28263 0.15539 0.91123 0.0
C1532 C 0.30888 0.16949 0.893 0.0
C1533 C 0.23445 0.13055 0.94804 0.0
C1534 C 0.25748 0.13361 0.96417 0.0
C1535 C 0.28138 0.14646 0.94594 0.0
C1536 C 0.25683 0.12277 0.99956 0.0
C1537 C 0.20854 0.11832 0.96723 0.0
C1538 C 0.27096 0.1394 0.02762 0.0
C1539 C 0.26946 0.12908 0.06132 0.0
C1540 C 0.25395 0.10191 0.06735 0.0
C1541 C 0.24035 0.08529 0.03889 0.0
C1542 C 0.24186 0.09564 0.00529 0.0
H1543 H 0.19492 0.12409 0.95521 0.0
H1544 H 0.19911 0.09664 0.96573 0.0
H1545 H 0.21134 0.12407 0.99551 0.0
H1546 H 0.28276 0.1604 0.02358 0.0
H1547 H 0.28032 0.14239 0.08264 0.0
H1548 H 0.86762 0.04721 0.80961 0.0
H1549 H 0.87448 0.05759 0.87237 0.0
H1550 H 0.90008 0.13868 0.84921 0.0
H1551 H 0.89272 0.12828 0.78606 0.0
H1552 H 0.92138 0.09031 0.90192 0.0
H1553 H 0.85141 0.12471 0.93227 0.0
H1554 H 0.84935 0.10705 0.89233 0.0
H1555 H 0.87256 0.14157 0.89573 0.0
C1556 C 0.87437 0.06722 0.81785 0.0
C1557 C 0.87981 0.08699 0.79284 0.0
C1558 C 0.87824 0.07309 0.85377 0.0
C1559 C 0.88764 0.09885 0.86556 0.0
C1560 C 0.89232 0.11855 0.84079 0.0
H1561 H 0.9555 0.18537 0.05441 0.0
H1562 H 0.93731 0.16871 0.99619 0.0
C1563 C 0.88823 0.11262 0.8047 0.0
C1564 C 0.89465 0.1053 0.90331 0.0
H1565 H 0.88436 0.13352 0.97568 0.0
C1566 C 0.91305 0.09948 0.91818 0.0
C1567 C 0.88374 0.11722 0.92447 0.0
C1568 C 0.86298 0.12279 0.91053 0.0
C1569 C 0.92148 0.10602 0.95326 0.0
C1570 C 0.911 0.11845 0.97417 0.0
C1571 C 0.89227 0.12389 0.95956 0.0
C1572 C 0.92082 0.12785 0.01031 0.0
C1573 C 0.94228 0.10051 0.96728 0.0
C1574 C 0.91732 0.11031 0.03776 0.0
C1575 C 0.9278 0.11979 0.07136 0.0
C1576 C 0.94195 0.14696 0.07789 0.0
C1577 C 0.94494 0.16433 0.05034 0.0
C1578 C 0.93443 0.15487 0.01701 0.0
H1579 H 0.9517 0.09522 0.9459 0.0
H1580 H 0.95771 0.11785 0.98161 0.0
H1581 H 0.93322 0.08389 0.98615 0.0
H1582 H 0.90658 0.08934 0.03316 0.0
H1583 H 0.92506 0.10591 0.09202 0.0
H1584 H 0.26657 0.13742 0.27497 0.0
H1585 H 0.27275 0.15019 0.33708 0.0
H1586 H 0.24333 0.06957 0.36752 0.0
H1587 H 0.23652 0.0565 0.3055 0.0
H1588 H 0.21821 0.0908 0.40073 0.0
H1589 H 0.32533 0.15788 0.41191 0.0
H1590 H 0.31103 0.16696 0.37665 0.0
H1591 H 0.31055 0.13614 0.37474 0.0
C1592 C 0.26181 0.12245 0.29483 0.0
C1593 C 0.25084 0.09592 0.28532 0.0
C1594 C 0.26556 0.12983 0.33034 0.0
C1595 C 0.2588 0.11086 0.35688 0.0
C1596 C 0.24876 0.08451 0.3474 0.0
H1597 H 0.28116 0.149 0.58217 0.0
H1598 H 0.28382 0.13353 0.52321 0.0
C1599 C 0.24483 0.07708 0.31196 0.0
C1600 C 0.25951 0.11809 0.39441 0.0
H1601 H 0.29883 0.16055 0.45822 0.0
C1602 C 0.23592 0.10581 0.41343 0.0
C1603 C 0.28268 0.13746 0.41105 0.0
C1604 C 0.30888 0.15017 0.39263 0.0
C1605 C 0.23465 0.11308 0.44822 0.0
C1606 C 0.25746 0.13355 0.4641 0.0
C1607 C 0.2813 0.14512 0.44569 0.0
C1608 C 0.25662 0.14368 0.49941 0.0
C1609 C 0.20886 0.09882 0.46762 0.0
C1610 C 0.24085 0.15497 0.50522 0.0
C1611 C 0.23919 0.16372 0.53878 0.0
C1612 C 0.25342 0.1615 0.56711 0.0
C1613 C 0.26975 0.15078 0.56098 0.0
C1614 C 0.27139 0.14201 0.52733 0.0
H1615 H 0.19569 0.07923 0.45588 0.0
H1616 H 0.21193 0.09623 0.49594 0.0
H1617 H 0.19878 0.11047 0.46591 0.0
H1618 H 0.22972 0.15689 0.48377 0.0
H1619 H 0.22656 0.17201 0.54254 0.0
H1620 H 0.99644 0.16595 0.30964 0.0
H1621 H 0.98476 0.15842 0.37195 0.0
H1622 H 0.90786 0.14623 0.34764 0.0
H1623 H 0.91929 0.15351 0.28477 0.0
H1624 H 0.96669 0.18318 0.41998 0.0
H1625 H 0.89396 0.07787 0.39784 0.0
H1626 H 0.91791 0.09782 0.36507 0.0
H1627 H 0.88915 0.10057 0.37152 0.0
C1628 C 0.97703 0.16175 0.31743 0.0
C1629 C 0.95864 0.15994 0.29209 0.0
C1630 C 0.97046 0.15758 0.35313 0.0
C1631 C 0.94537 0.1514 0.36431 0.0
C1632 C 0.92724 0.15059 0.3394 0.0
H1633 H 0.86128 0.10106 0.55926 0.0
H1634 H 0.87759 0.11722 0.5003 0.0
C1635 C 0.93382 0.15485 0.30354 0.0
C1636 C 0.93795 0.14467 0.40181 0.0
H1637 H 0.89717 0.09415 0.45562 0.0
C1638 C 0.95149 0.16374 0.42788 0.0
C1639 C 0.91838 0.11919 0.41195 0.0
C1640 C 0.90412 0.09756 0.38524 0.0
C1641 C 0.94541 0.15816 0.46386 0.0
C1642 C 0.92559 0.13275 0.47391 0.0
C1643 C 0.91233 0.11364 0.44782 0.0
C1644 C 0.91714 0.12563 0.51107 0.0
C1645 C 0.9597 0.17961 0.49073 0.0
C1646 C 0.93414 0.1254 0.53705 0.0
C1647 C 0.92485 0.1162 0.57119 0.0
C1648 C 0.89836 0.10681 0.57951 0.0
C1649 C 0.88172 0.10783 0.55362 0.0
C1650 C 0.89101 0.11714 0.51987 0.0
H1651 H 0.9703 0.19931 0.47824 0.0
H1652 H 0.94584 0.17954 0.51063 0.0
H1653 H 0.97429 0.17617 0.50477 0.0
H1654 H 0.95431 0.1315 0.53063 0.0
H1655 H 0.93806 0.11552 0.59057 0.0
H1656 H 0.87219 0.83072 0.31508 0.0
H1657 H 0.87965 0.82488 0.37696 0.0
H1658 H 0.89542 0.76322 0.34809 0.0
H1659 H 0.88813 0.76902 0.28572 0.0
H1660 H 0.85706 0.77927 0.42344 0.0
H1661 H 0.96365 0.82101 0.39722 0.0
H1662 H 0.94202 0.82425 0.36637 0.0
H1663 H 0.94156 0.7936 0.37029 0.0
C1664 C 0.87701 0.81572 0.32183 0.0
C1665 C 0.87999 0.80061 0.29542 0.0
C1666 C 0.88113 0.81235 0.35724 0.0
C1667 C 0.88842 0.7939 0.36693 0.0
C1668 C 0.89009 0.77778 0.34095 0.0
H1669 H 0.95134 0.77348 0.56295 0.0
H1670 H 0.93365 0.76916 0.50366 0.0
C1671 C 0.88584 0.78106 0.3054 0.0
C1672 C 0.89612 0.79308 0.40387 0.0
H1673 H 0.94941 0.80857 0.45557 0.0
C1674 C 0.8772 0.78552 0.43057 0.0
C1675 C 0.92245 0.80147 0.41292 0.0
C1676 C 0.94372 0.81075 0.38533 0.0
C1677 C 0.88393 0.78587 0.46626 0.0
C1678 C 0.91035 0.79455 0.47532 0.0
C1679 C 0.92917 0.80194 0.44852 0.0
C1680 C 0.9191 0.79597 0.51233 0.0
C1681 C 0.8627 0.7766 0.49385 0.0
C1682 C 0.91674 0.81248 0.53701 0.0
C1683 C 0.92682 0.81498 0.57121 0.0
C1684 C 0.9397 0.80123 0.58103 0.0
C1685 C 0.94175 0.78454 0.55625 0.0
C1686 C 0.93156 0.78195 0.52232 0.0
H1687 H 0.84289 0.7643 0.48215 0.0
H1688 H 0.86572 0.7651 0.51474 0.0
H1689 H 0.86324 0.79389 0.50645 0.0
H1690 H 0.90768 0.82391 0.52959 0.0
H1691 H 0.92503 0.82806 0.58965 0.0
H1692 H 0.39008 0.94457 0.8599 0.0
H1693 H 0.43468 0.9777 0.87882 0.0
H1694 H 0.43892 0.91991 0.94408 0.0
H1695 H 0.39491 0.88709 0.92553 0.0
H1696 H 0.45877 0.99774 0.9453 0.0
H1697 H 0.50361 0.94511 0.88132 0.0
H1698 H 0.47039 0.93745 0.87225 0.0
H1699 H 0.47771 0.9248 0.91124 0.0
C1700 C 0.40031 0.93908 0.87881 0.0
C1701 C 0.38874 0.91299 0.89098 0.0
C1702 C 0.42596 0.95801 0.88942 0.0
C1703 C 0.44066 0.95124 0.91222 0.0
C1704 C 0.42851 0.92561 0.92576 0.0
H1705 H 0.5788 0.04956 0.03882 0.0
H1706 H 0.53599 1.01694 0.01545 0.0
C1707 C 0.40308 0.90684 0.91528 0.0
C1708 C 0.46867 0.97053 0.92188 0.0
H1709 H 0.53078 0.97901 0.92205 0.0
C1710 C 0.47449 0.99368 0.93996 0.0
C1711 C 0.48953 0.96567 0.91457 0.0
C1712 C 0.48512 0.94205 0.89347 0.0
C1713 C 0.50014 1.01139 0.95201 0.0
C1714 C 0.52071 1.00581 0.94636 0.0
C1715 C 0.51511 0.98321 0.92702 0.0
C1716 C 0.54793 0.02313 0.96072 0.0
C1717 C 0.50504 0.03612 0.97058 0.0
C1718 C 0.56966 0.0364 0.93812 0.0
C1719 C 0.5945 0.05493 0.95156 0.0
C1720 C 0.59823 0.06065 0.98801 0.0
C1721 C 0.57685 0.04576 0.01068 0.0
C1722 C 0.55214 0.02729 0.99726 0.0
H1723 H 0.48944 0.04096 0.9647 0.0
H1724 H 0.5053 0.03333 0.99953 0.0
H1725 H 0.52428 0.05304 0.96284 0.0
H1726 H 0.56712 0.03346 0.90985 0.0
H1727 H 0.61022 0.06614 0.93309 0.0
H1728 H 0.98878 0.52665 0.04109 0.0
H1729 H 1.02378 0.52019 0.01904 0.0
H1730 H 1.01944 0.5518 0.91809 0.0
H1731 H 0.98266 0.55651 0.93988 0.0
H1732 H 1.02084 0.51069 0.90516 0.0
H1733 H 0.09861 0.56001 0.00413 0.0
H1734 H 0.06932 0.537 0.02651 0.0
H1735 H 0.07046 0.56441 0.00327 0.0
C1736 C 0.99619 0.5336 0.01475 0.0
C1737 C 0.98327 0.54289 0.99271 0.0
C1738 C 1.01633 0.52971 0.00193 0.0
C1739 C 1.02501 0.53577 0.96678 0.0
C1740 C 1.01343 0.54694 0.94534 0.0
H1741 H 0.15943 0.51811 0.90778 0.0
H1742 H 0.12983 0.53357 0.92542 0.0
C1743 C 0.99276 0.55035 0.95809 0.0
C1744 C 0.04402 0.52793 0.95195 0.0
H1745 H 0.09903 0.52463 0.97237 0.0
C1746 C 0.0382 0.5142 0.91966 0.0
C1747 C 0.06709 0.53255 0.97011 0.0
C1748 C 0.07684 0.54957 0.00268 0.0
C1749 C 0.05418 0.50468 0.90566 0.0
C1750 C 0.07615 0.50759 0.92522 0.0
C1751 C 0.08215 0.52174 0.95719 0.0
C1752 C 0.09404 0.49755 0.91268 0.0
C1753 C 0.04757 0.49234 0.86947 0.0
C1754 C 0.08444 0.47192 0.8991 0.0
C1755 C 0.10173 0.46326 0.88764 0.0
C1756 C 0.12904 0.47953 0.89103 0.0
C1757 C 0.13852 0.50479 0.9053 0.0
C1758 C 0.12143 0.51372 0.91549 0.0
H1759 H 0.03662 0.49965 0.85361 0.0
H1760 H 0.06548 0.49645 0.85468 0.0
H1761 H 0.03478 0.47079 0.8722 0.0
H1762 H 0.06357 0.4584 0.8976 0.0
H1763 H 0.09374 0.44372 0.87675 0.0
H1764 H 0.58538 0.65407 0.85325 0.0
H1765 H 0.57284 0.60918 0.87198 0.0
H1766 H 0.51509 0.60853 0.94229 0.0
H1767 H 0.52723 0.65282 0.92378 0.0
H1768 H 0.5722 0.58691 0.93697 0.0
H1769 H 0.47067 0.542 0.88597 0.0
H1770 H 0.49574 0.57484 0.87427 0.0
H1771 H 0.4787 0.56872 0.91566 0.0
C1772 C 0.57019 0.64447 0.87293 0.0
C1773 C 0.55727 0.65724 0.88669 0.0
C1774 C 0.5629 0.61867 0.88353 0.0
C1775 C 0.54242 0.60496 0.90794 0.0
C1776 C 0.53033 0.61813 0.92267 0.0
H1777 H 0.50987 0.471 0.03815 0.0
H1778 H 0.51549 0.51206 0.01387 0.0
C1779 C 0.53754 0.64373 0.91217 0.0
C1780 C 0.53376 0.57712 0.9186 0.0
H1781 H 0.47964 0.51555 0.92535 0.0
C1782 C 0.552 0.57134 0.93414 0.0
C1783 C 0.50742 0.55642 0.91466 0.0
C1784 C 0.48705 0.56068 0.89641 0.0
C1785 C 0.54451 0.54597 0.94689 0.0
C1786 C 0.51796 0.52563 0.94447 0.0
C1787 C 0.49989 0.5311 0.92777 0.0
C1788 C 0.50891 0.49884 0.95966 0.0
C1789 C 0.56517 0.54106 0.9629 0.0
C1790 C 0.50139 0.47689 0.93772 0.0
C1791 C 0.49763 0.45302 0.95179 0.0
C1792 C 0.50116 0.4506 0.98812 0.0
C1793 C 0.50626 0.47187 0.01025 0.0
C1794 C 0.51003 0.49562 0.99625 0.0
H1795 H 0.58531 0.55672 0.95587 0.0
H1796 H 0.56336 0.54051 0.99208 0.0
H1797 H 0.56247 0.52186 0.95408 0.0
H1798 H 0.50032 0.47877 0.90941 0.0
H1799 H 0.49469 0.43748 0.9338 0.0
H1800 H 0.9973 0.47028 0.54416 0.0
H1801 H 0.02985 0.51294 0.52014 0.0
H1802 H 1.00934 0.48196 0.41462 0.0
H1803 H 0.97676 0.43918 0.43845 0.0
H1804 H 0.07394 0.53111 0.47457 0.0
H1805 H 0.99543 0.544 0.41266 0.0
H1806 H 0.98855 0.51897 0.44525 0.0
H1807 H 0.99586 0.51469 0.40057 0.0
C1808 C 1.00022 0.47224 0.51586 0.0
C1809 C 0.98428 0.451 0.49343 0.0
C1810 C 1.01876 0.49683 0.50208 0.0
C1811 C 1.02176 0.50109 0.46544 0.0
C1812 C 1.00715 0.4795 0.44296 0.0
H1813 H 0.10987 0.64501 0.33898 0.0
H1814 H 0.07936 0.60066 0.36012 0.0
C1815 C 0.98875 0.45478 0.45674 0.0
C1816 C 0.03934 0.52827 0.45108 0.0
H1817 H 0.03901 0.57794 0.40388 0.0
C1818 C 0.06627 0.54131 0.4591 0.0
C1819 C 0.02955 0.54179 0.4307 0.0
C1820 C 1.00075 0.52933 0.42192 0.0
C1821 C 0.08358 0.56709 0.4471 0.0
C1822 C 0.07372 0.5809 0.4274 0.0
C1823 C 0.04678 0.56771 0.41908 0.0
C1824 C 0.09102 0.60882 0.41496 0.0
C1825 C 0.11245 0.57889 0.45489 0.0
C1826 C 0.1072 0.62894 0.43865 0.0
C1827 C 0.12482 0.65444 0.42656 0.0
C1828 C 0.1265 0.66085 0.39041 0.0
C1829 C 0.10912 0.6411 0.36702 0.0
C1830 C 0.09169 0.61552 0.37911 0.0
H1831 H 0.11773 0.56347 0.45983 0.0
H1832 H 0.12463 0.59141 0.43276 0.0
H1833 H 0.11742 0.59116 0.47901 0.0
H1834 H 0.10661 0.62484 0.4666 0.0
H1835 H 0.13772 0.66898 0.4455 0.0
H1836 H 0.57327 0.5305 0.54879 0.0
H1837 H 0.53177 0.52408 0.52498 0.0
H1838 H 0.56707 0.54815 0.42225 0.0
H1839 H 0.60883 0.55491 0.44627 0.0
H1840 H 0.52942 0.56401 0.43629 0.0
H1841 H 0.48855 0.45822 0.46443 0.0
H1842 H 0.5021 0.47881 0.50257 0.0
H1843 H 0.52322 0.48157 0.46659 0.0
C1844 C 0.57264 0.53584 0.52157 0.0
C1845 C 0.59472 0.54392 0.49976 0.0
C1846 C 0.54863 0.53153 0.50771 0.0
C1847 C 0.54587 0.53485 0.47149 0.0
C1848 C 0.56849 0.54525 0.45023 0.0
H1849 H 0.3927 0.45856 0.35864 0.0
H1850 H 0.43699 0.47068 0.37988 0.0
C1851 C 0.59262 0.54965 0.46417 0.0
C1852 C 0.51915 0.52568 0.45565 0.0
H1853 H 0.45812 0.47128 0.44592 0.0
C1854 C 0.5139 0.54372 0.43835 0.0
C1855 C 0.49881 0.49904 0.45737 0.0
C1856 C 0.50343 0.47819 0.47341 0.0
C1857 C 0.48886 0.53613 0.42409 0.0
C1858 C 0.46814 0.50975 0.42744 0.0
C1859 C 0.47368 0.49153 0.44357 0.0
C1860 C 0.44051 0.50105 0.41551 0.0
C1861 C 0.48495 0.5565 0.40516 0.0
C1862 C 0.42708 0.51318 0.42926 0.0
C1863 C 0.40184 0.5062 0.41736 0.0
C1864 C 0.38892 0.48666 0.39137 0.0
C1865 C 0.40184 0.47359 0.37869 0.0
C1866 C 0.4273 0.48066 0.39071 0.0
H1867 H 0.50383 0.57291 0.39532 0.0
H1868 H 0.47128 0.5478 0.38249 0.0
H1869 H 0.4765 0.56484 0.42378 0.0
H1870 H 0.43624 0.52835 0.44914 0.0
H1871 H 0.39261 0.51662 0.42819 0.0
H1872 H 0.56379 0.90837 0.44132 0.0
H1873 H 0.54923 0.93885 0.46013 0.0
H1874 H 0.55138 0.96312 0.35229 0.0
H1875 H 0.5658 0.93257 0.33316 0.0
H1876 H 0.57076 0.99303 0.4536 0.0
H1877 H 0.47623 0.94148 0.38118 0.0
H1878 H 0.49673 0.92708 0.38806 0.0
H1879 H 0.50478 0.95142 0.3543 0.0
C1880 C 0.56156 0.92043 0.42154 0.0
C1881 C 0.56606 0.91781 0.38559 0.0
C1882 C 0.55306 0.93784 0.43239 0.0
C1883 C 0.5485 0.95297 0.40765 0.0
C1884 C 0.55407 0.95129 0.37194 0.0
H1885 H 0.49872 0.07021 0.4242 0.0
H1886 H 0.50626 0.03499 0.40365 0.0
C1887 C 0.56272 0.93398 0.36106 0.0
C1888 C 0.53791 0.97037 0.41933 0.0
H1889 H 0.48622 0.98143 0.40929 0.0
C1890 C 0.55221 0.99037 0.44399 0.0
C1891 C 0.5137 0.96714 0.40683 0.0
C1892 C 0.49679 0.9455 0.38136 0.0
C1893 C 0.54338 1.00737 0.45591 0.0
C1894 C 0.51901 1.00399 0.44377 0.0
C1895 C 0.50474 0.98405 0.41894 0.0
C1896 C 0.50863 0.02149 0.45594 0.0
C1897 C 0.5608 0.0294 0.48064 0.0
C1898 C 0.50533 0.02454 0.49209 0.0
C1899 C 0.50072 0.04455 0.50384 0.0
C1900 C 0.49869 0.06171 0.47977 0.0
C1901 C 0.49917 0.05681 0.44346 0.0
C1902 C 0.50404 0.03692 0.43168 0.0
H1903 H 0.58147 0.0338 0.47953 0.0
H1904 H 0.56035 0.04761 0.47429 0.0
H1905 H 0.55379 0.02359 0.50813 0.0
H1906 H 0.50803 1.01255 0.51148 0.0
H1907 H 0.50128 0.04822 0.53194 0.0
H1908 H 0.24512 0.37779 0.37422 0.0
H1909 H 0.20274 0.34504 0.34987 0.0
H1910 H 0.23307 0.36788 0.24447 0.0
H1911 H 0.27568 0.40066 0.26872 0.0
H1912 H 0.1859 0.36808 0.25522 0.0
H1913 H 0.17499 0.27391 0.30187 0.0
H1914 H 0.18354 0.2978 0.33629 0.0
H1915 H 0.20627 0.30392 0.30099 0.0
C1916 C 0.24316 0.37519 0.34585 0.0
C1917 C 0.26417 0.39182 0.32362 0.0
C1918 C 0.21874 0.35645 0.33187 0.0
C1919 C 0.21445 0.35372 0.29519 0.0
C1920 C 0.23573 0.3694 0.27284 0.0
H1921 H 0.06928 0.26678 0.1683 0.0
H1922 H 0.11385 0.29771 0.18813 0.0
C1923 C 0.26032 0.38798 0.28683 0.0
C1924 C 0.18737 0.33608 0.28052 0.0
H1925 H 0.13631 0.2727 0.28067 0.0
C1926 C 0.17515 0.34717 0.26053 0.0
C1927 C 0.17306 0.30877 0.2875 0.0
C1928 C 0.18517 0.2953 0.30755 0.0
C1929 C 0.14898 0.33202 0.24842 0.0
C1930 C 0.13454 0.30467 0.25559 0.0
C1931 C 0.14699 0.29358 0.27517 0.0
C1932 C 0.10659 0.28714 0.24342 0.0
C1933 C 0.13684 0.34583 0.22922 0.0
C1934 C 0.08717 0.27042 0.26747 0.0
C1935 C 0.06159 0.25243 0.25605 0.0
C1936 C 0.05447 0.25058 0.22015 0.0
C1937 C 0.07367 0.26792 0.19623 0.0
C1938 C 0.09936 0.28574 0.20764 0.0
H1939 H 0.147 0.3671 0.23567 0.0
H1940 H 0.13862 0.344 0.20035 0.0
H1941 H 0.11574 0.33714 0.23582 0.0
H1942 H 0.09193 0.27088 0.29519 0.0
H1943 H 0.04756 0.23933 0.27531 0.0
H1944 H 0.66688 0.87998 0.36568 0.0
H1945 H 0.70214 0.87352 0.343 0.0
H1946 H 0.67606 0.87375 0.23668 0.0
H1947 H 0.6412 0.88084 0.25948 0.0
H1948 H 0.69139 0.82931 0.30954 0.0
H1949 H 0.75408 0.91211 0.221 0.0
H1950 H 0.73189 0.91378 0.25233 0.0
H1951 H 0.71979 0.89714 0.21084 0.0
C1952 C 0.66977 0.88047 0.33739 0.0
C1953 C 0.65168 0.88191 0.31445 0.0
C1954 C 0.68965 0.87616 0.32437 0.0
C1955 C 0.69203 0.87305 0.28796 0.0
C1956 C 0.67528 0.87659 0.26478 0.0
H1957 H 0.77974 0.81387 0.1663 0.0
H1958 H 0.74844 0.82747 0.18528 0.0
C1959 C 0.65545 0.88108 0.27786 0.0
C1960 C 0.7095 0.86284 0.27502 0.0
H1961 H 0.75887 0.87427 0.21716 0.0
C1962 C 0.70627 0.83935 0.28952 0.0
C1963 C 0.72878 0.87548 0.24846 0.0
C1964 C 0.73407 0.90115 0.23245 0.0
C1965 C 0.72142 0.82819 0.27828 0.0
C1966 C 0.74091 0.84096 0.25205 0.0
C1967 C 0.744 0.86431 0.2372 0.0
C1968 C 0.7588 0.8309 0.24062 0.0
C1969 C 0.71594 0.80241 0.29419 0.0
C1970 C 0.77502 0.82784 0.26524 0.0
C1971 C 0.79282 0.81988 0.25449 0.0
C1972 C 0.79514 0.81479 0.21868 0.0
C1973 C 0.77837 0.81717 0.19414 0.0
C1974 C 0.76059 0.82525 0.20494 0.0
H1975 H 0.6958 0.79138 0.30523 0.0
H1976 H 0.7183 0.78986 0.27434 0.0
H1977 H 0.72997 0.80627 0.31608 0.0
H1978 H 0.77455 0.83246 0.29279 0.0
H1979 H 0.80549 0.81862 0.27423 0.0
H1980 H 0.18389 0.8064 0.37 0.0
H1981 H 0.18958 0.84785 0.34718 0.0
H1982 H 0.16542 0.81313 0.24397 0.0
H1983 H 0.1594 0.77146 0.26708 0.0
H1984 H 0.22621 0.87631 0.29711 0.0
H1985 H 0.12854 0.85604 0.24999 0.0
H1986 H 0.13256 0.83439 0.27992 0.0
H1987 H 0.13858 0.83379 0.23354 0.0
C1988 C 0.17829 0.80713 0.34293 0.0
C1989 C 0.17027 0.78522 0.32074 0.0
C1990 C 0.18208 0.83108 0.32966 0.0
C1991 C 0.17803 0.83393 0.29371 0.0
C1992 C 0.16828 0.81156 0.27191 0.0
H1993 H 0.25462 0.98867 0.18424 0.0
H1994 H 0.24339 0.94457 0.20499 0.0
C1995 C 0.16443 0.78748 0.28529 0.0
C1996 C 0.18651 0.86077 0.2788 0.0
H1997 H 0.16491 0.89726 0.23451 0.0
C1998 C 0.21274 0.88083 0.2834 0.0
C1999 C 0.16912 0.86695 0.26089 0.0
C2000 C 0.14057 0.84677 0.25598 0.0
C2001 C 0.22194 0.90662 0.2709 0.0
C2002 C 0.20461 0.91277 0.25277 0.0
C2003 C 0.17839 0.8927 0.24807 0.0
C2004 C 0.21269 0.94018 0.24059 0.0
C2005 C 0.25001 0.92728 0.2782 0.0
C2006 C 0.19941 0.9527 0.25348 0.0
C2007 C 0.20583 0.97782 0.24176 0.0
C2008 C 0.2257 0.99139 0.21646 0.0
C2009 C 0.23945 0.97911 0.20397 0.0
C2010 C 0.23298 0.95379 0.21585 0.0
H2011 H 0.25901 0.92099 0.29905 0.0
H2012 H 0.26168 0.93106 0.25373 0.0
H2013 H 0.2513 0.94599 0.28651 0.0
H2014 H 0.18382 0.94292 0.27262 0.0
H2015 H 0.19472 0.98643 0.25222 0.0
H2016 H 0.80291 0.99771 0.77163 0.0
H2017 H 0.77164 0.95294 0.79036 0.0
H2018 H 0.74572 0.93193 0.6828 0.0
H2019 H 0.77712 0.97675 0.66374 0.0
H2020 H 0.71693 0.92138 0.78441 0.0
H2021 H 0.76659 0.87718 0.71021 0.0
H2022 H 0.7817 0.91208 0.71759 0.0
H2023 H 0.7568 0.89648 0.68434 0.0
C2024 C 0.79029 0.98375 0.75191 0.0
C2025 C 0.7927 0.9911 0.71605 0.0
C2026 C 0.77243 0.958 0.76271 0.0
C2027 C 0.75659 0.93866 0.73801 0.0
C2028 C 0.75804 0.94619 0.7024 0.0
H2029 H 0.64308 0.76983 0.76461 0.0
H2030 H 0.67429 0.81287 0.73999 0.0
C2031 C 0.77581 0.97205 0.69157 0.0
C2032 C 0.73897 0.91074 0.74971 0.0
H2033 H 0.72803 0.84795 0.7411 0.0
C2034 C 0.71941 0.90537 0.7749 0.0
C2035 C 0.74193 0.8896 0.7373 0.0
C2036 C 0.76299 0.89401 0.71108 0.0
C2037 C 0.70281 0.87974 0.78776 0.0
C2038 C 0.70618 0.85867 0.77607 0.0
C2039 C 0.72544 0.86393 0.7504 0.0
C2040 C 0.68996 0.83128 0.7905 0.0
C2041 C 0.68137 0.87541 0.8133 0.0
C2042 C 0.6893 0.8265 0.82698 0.0
C2043 C 0.67146 0.80186 0.84117 0.0
C2044 C 0.65388 0.78105 0.81931 0.0
C2045 C 0.65634 0.78514 0.78244 0.0
C2046 C 0.67408 0.80996 0.76826 0.0
H2047 H 0.67644 0.89132 0.81155 0.0
H2048 H 0.66327 0.85635 0.80833 0.0
H2049 H 0.68809 0.87526 0.84064 0.0
H2050 H 0.70184 0.84223 0.84479 0.0
H2051 H 0.67024 0.79959 0.86961 0.0
H2052 H 0.05164 0.78645 0.7067 0.0
H2053 H 0.09512 0.79686 0.72928 0.0
H2054 H 0.10467 0.86813 0.77535 0.0
H2055 H 0.06111 0.85689 0.75555 0.0
H2056 H 0.14248 0.83194 0.71932 0.0
H2057 H 0.1253 0.84458 0.85872 0.0
H2058 H 0.09909 0.83176 0.82685 0.0
H2059 H 0.11996 0.86677 0.83247 0.0
C2060 C 0.06282 0.80398 0.72241 0.0
C2061 C 0.05234 0.82032 0.73017 0.0
C2062 C 0.08785 0.8101 0.73515 0.0
C2063 C 0.10328 0.833 0.7553 0.0
C2064 C 0.09306 0.84971 0.76165 0.0
H2065 H 0.27478 0.89595 0.78411 0.0
H2066 H 0.23222 0.88838 0.76241 0.0
C2067 C 0.06794 0.84324 0.75 0.0
C2068 C 0.13019 0.84002 0.76897 0.0
H2069 H 0.1703 0.86434 0.84134 0.0
C2070 C 0.1484 0.83873 0.74617 0.0
C2071 C 0.13827 0.84851 0.80423 0.0
C2072 C 0.11949 0.84768 0.832 0.0
C2073 C 0.17412 0.84589 0.75731 0.0
C2074 C 0.18269 0.85605 0.79189 0.0
C2075 C 0.16435 0.85712 0.81465 0.0
C2076 C 0.20962 0.86369 0.80621 0.0
C2077 C 0.19136 0.84146 0.7321 0.0
C2078 C 0.21198 0.8545 0.83955 0.0
C2079 C 0.23644 0.85991 0.85275 0.0
C2080 C 0.25958 0.87428 0.83285 0.0
C2081 C 0.25757 0.88485 0.80035 0.0
C2082 C 0.23297 0.87992 0.78746 0.0
H2083 H 0.17956 0.82635 0.71199 0.0
H2084 H 0.20431 0.85999 0.71786 0.0
H2085 H 0.20377 0.83509 0.74625 0.0
H2086 H 0.19468 0.84216 0.85508 0.0
H2087 H 0.23692 0.85139 0.87791 0.0
H2088 H 0.1904 0.21432 0.75077 0.0
H2089 H 0.17814 0.246 0.7708 0.0
H2090 H 0.23849 0.30556 0.70576 0.0
H2091 H 0.25109 0.2736 0.68528 0.0
H2092 H 0.23556 0.32416 0.77323 0.0
H2093 H 0.13654 0.27164 0.71337 0.0
H2094 H 0.14321 0.25116 0.74167 0.0
H2095 H 0.16202 0.26439 0.70197 0.0
C2096 C 0.20129 0.23415 0.74061 0.0
C2097 C 0.22174 0.24115 0.71603 0.0
C2098 C 0.19402 0.2523 0.75202 0.0
C2099 C 0.20681 0.27816 0.73925 0.0
C2100 C 0.22801 0.28568 0.71581 0.0
H2101 H 0.156 0.39511 0.76766 0.0
H2102 H 0.16261 0.36008 0.74352 0.0
C2103 C 0.23532 0.26738 0.70421 0.0
C2104 C 0.198 0.29705 0.75083 0.0
H2105 H 0.14414 0.30512 0.75522 0.0
C2106 C 0.21561 0.32002 0.76905 0.0
C2107 C 0.17202 0.29206 0.74518 0.0
C2108 C 0.1524 0.26862 0.72418 0.0
C2109 C 0.20782 0.33746 0.78264 0.0
C2110 C 0.18151 0.33182 0.77843 0.0
C2111 C 0.16414 0.30936 0.75912 0.0
C2112 C 0.17205 0.34926 0.79374 0.0
C2113 C 0.22801 0.36202 0.80118 0.0
C2114 C 0.17317 0.35372 0.83034 0.0
C2115 C 0.16885 0.3734 0.84422 0.0
C2116 C 0.16303 0.38905 0.82201 0.0
C2117 C 0.15941 0.38285 0.78576 0.0
C2118 C 0.16378 0.36312 0.77181 0.0
H2119 H 0.24832 0.3669 0.79446 0.0
H2120 H 0.22555 0.37902 0.79424 0.0
H2121 H 0.22554 0.359 0.83015 0.0
H2122 H 0.179 0.34308 0.84805 0.0
H2123 H 0.17262 0.37811 0.87203 0.0
H2124 H 0.71138 0.57132 0.61852 0.0
H2125 H 0.75503 0.60325 0.64056 0.0
H2126 H 0.77927 0.63186 0.53462 0.0
H2127 H 0.73544 0.60082 0.51278 0.0
H2128 H 0.80044 0.60766 0.63016 0.0
H2129 H 0.8092 0.70042 0.58198 0.0
H2130 H 0.77855 0.66987 0.58064 0.0
H2131 H 0.80269 0.67788 0.54649 0.0
C2132 C 0.72578 0.5849 0.6 0.0
C2133 C 0.7195 0.58363 0.56384 0.0
C2134 C 0.75095 0.6031 0.61264 0.0
C2135 C 0.77079 0.62053 0.58956 0.0
C2136 C 0.76443 0.61944 0.55347 0.0
H2137 H 0.9387 0.73509 0.61461 0.0
H2138 H 0.89688 0.69906 0.5926 0.0
C2139 C 0.73914 0.60152 0.54089 0.0
C2140 C 0.79827 0.63875 0.60299 0.0
H2141 H 0.84872 0.70262 0.60184 0.0
C2142 C 0.81081 0.62845 0.62406 0.0
C2143 C 0.81227 0.66606 0.59532 0.0
C2144 C 0.79989 0.67925 0.5752 0.0
C2145 C 0.8366 0.64437 0.6371 0.0
C2146 C 0.8506 0.67146 0.62893 0.0
C2147 C 0.83823 0.6818 0.60782 0.0
C2148 C 0.87754 0.68977 0.64335 0.0
C2149 C 0.84888 0.63205 0.65925 0.0
C2150 C 0.88121 0.69605 0.6795 0.0
C2151 C 0.90521 0.71665 0.69212 0.0
C2152 C 0.92638 0.73126 0.6691 0.0
C2153 C 0.92331 0.7236 0.63339 0.0
C2154 C 0.89914 0.70328 0.62062 0.0
H2155 H 0.83785 0.61029 0.6574 0.0
H2156 H 0.86949 0.63934 0.65105 0.0
H2157 H 0.84911 0.63759 0.6873 0.0
H2158 H 0.8649 0.68633 0.69761 0.0
H2159 H 0.90647 0.72267 0.71941 0.0
H2160 H 0.33389 0.21152 0.69932 0.0
H2161 H 0.36691 0.20216 0.67553 0.0
H2162 H 0.34205 0.20621 0.56979 0.0
H2163 H 0.30892 0.21568 0.59351 0.0
H2164 H 0.34295 0.16003 0.58215 0.0
H2165 H 0.43706 0.24438 0.62629 0.0
H2166 H 0.41383 0.22946 0.66145 0.0
H2167 H 0.40685 0.24529 0.62579 0.0
C2168 C 0.33611 0.21151 0.67094 0.0
C2169 C 0.31877 0.21473 0.6485 0.0
C2170 C 0.35502 0.20598 0.65729 0.0
C2171 C 0.35725 0.20349 0.62072 0.0
C2172 C 0.34093 0.20808 0.59809 0.0
H2173 H 0.44446 0.14489 0.49632 0.0
H2174 H 0.41367 0.15879 0.51564 0.0
C2175 C 0.32215 0.2139 0.61174 0.0
C2176 C 0.37495 0.19397 0.60658 0.0
H2177 H 0.43842 0.2065 0.60707 0.0
C2178 C 0.36388 0.17036 0.58732 0.0
C2179 C 0.4023 0.20717 0.6134 0.0
C2180 C 0.41579 0.2331 0.63257 0.0
C2181 C 0.37908 0.15928 0.57575 0.0
C2182 C 0.40644 0.17238 0.5828 0.0
C2183 C 0.41752 0.19619 0.60168 0.0
C2184 C 0.42398 0.16191 0.57103 0.0
C2185 C 0.36535 0.13309 0.55722 0.0
C2186 C 0.44046 0.15899 0.59536 0.0
C2187 C 0.45834 0.15116 0.58428 0.0
C2188 C 0.46038 0.14601 0.54841 0.0
C2189 C 0.44329 0.14817 0.52422 0.0
C2190 C 0.42552 0.15617 0.53531 0.0
H2191 H 0.34409 0.12205 0.56355 0.0
H2192 H 0.36727 0.13632 0.52826 0.0
H2193 H 0.37409 0.12081 0.56453 0.0
H2194 H 0.43986 0.16324 0.62305 0.0
H2195 H 0.47119 0.14997 0.60378 0.0
H2196 H 0.85743 0.31797 0.5897 0.0
H2197 H 0.8466 0.2743 0.60926 0.0
H2198 H 0.90851 0.27809 0.54455 0.0
H2199 H 0.91967 0.32238 0.52465 0.0
H2200 H 0.82936 0.22935 0.57011 0.0
H2201 H 0.92203 0.25338 0.63916 0.0
H2202 H 0.9142 0.27825 0.62639 0.0
H2203 H 0.92572 0.26408 0.59402 0.0
C2204 C 0.86906 0.3098 0.5797 0.0
C2205 C 0.88956 0.32403 0.55546 0.0
C2206 C 0.86268 0.28458 0.59093 0.0
C2207 C 0.87664 0.2726 0.57863 0.0
C2208 C 0.89755 0.28686 0.55495 0.0
H2209 H 0.82467 0.10391 0.6034 0.0
H2210 H 0.83083 0.1456 0.58018 0.0
C2211 C 0.90398 0.3123 0.54356 0.0
C2212 C 0.8686 0.24509 0.59033 0.0
H2213 H 0.88962 0.20862 0.6359 0.0
C2214 C 0.84262 0.22484 0.58436 0.0
C2215 C 0.88564 0.23898 0.60933 0.0
C2216 C 0.9134 0.25979 0.61795 0.0
C2217 C 0.83331 0.19899 0.5968 0.0
C2218 C 0.85039 0.19286 0.61565 0.0
C2219 C 0.87639 0.21309 0.62148 0.0
C2220 C 0.84178 0.16593 0.63036 0.0
C2221 C 0.80499 0.17861 0.59051 0.0
C2222 C 0.8448 0.16278 0.66656 0.0
C2223 C 0.84092 0.1388 0.67989 0.0
C2224 C 0.83388 0.11717 0.6575 0.0
C2225 C 0.82895 0.11969 0.62172 0.0
C2226 C 0.83291 0.14379 0.60829 0.0
H2227 H 0.79294 0.18771 0.58367 0.0
H2228 H 0.8038 0.16587 0.56819 0.0
H2229 H 0.79642 0.16602 0.61416 0.0
H2230 H 0.85157 0.17935 0.68431 0.0
H2231 H 0.84575 0.1379 0.70729 0.0
H2232 H 0.3344 0.13376 0.20084 0.0
H2233 H 0.3672 0.17654 0.17761 0.0
H2234 H 0.3442 0.14785 0.07145 0.0
H2235 H 0.31122 0.10496 0.09455 0.0
H2236 H 0.40998 0.19573 0.13189 0.0
H2237 H 0.33121 0.20995 0.07373 0.0
H2238 H 0.32442 0.18386 0.10447 0.0
H2239 H 0.33172 0.18116 0.05916 0.0
C2240 C 0.33687 0.13622 0.1725 0.0
C2241 C 0.32006 0.11567 0.14972 0.0
C2242 C 0.35554 0.16088 0.1592 0.0
C2243 C 0.35783 0.16588 0.12271 0.0
C2244 C 0.34251 0.14484 0.09974 0.0
H2245 H 0.44681 0.31338 0.00356 0.0
H2246 H 0.41621 0.26829 0.02203 0.0
C2247 C 0.32391 0.12004 0.11304 0.0
C2248 C 0.37532 0.19332 0.10922 0.0
H2249 H 0.37474 0.24411 0.06539 0.0
C2250 C 0.40223 0.20626 0.1173 0.0
C2251 C 0.36541 0.20728 0.09007 0.0
C2252 C 0.33659 0.19503 0.08152 0.0
C2253 C 0.41941 0.2324 0.10664 0.0
C2254 C 0.40943 0.2466 0.08817 0.0
C2255 C 0.38255 0.23352 0.07966 0.0
C2256 C 0.42658 0.27488 0.0774 0.0
C2257 C 0.44826 0.24428 0.11464 0.0
C2258 C 0.44197 0.29429 0.10236 0.0
C2259 C 0.45957 0.3202 0.09184 0.0
C2260 C 0.46211 0.32768 0.05604 0.0
C2261 C 0.44546 0.30861 0.03138 0.0
C2262 C 0.42797 0.28262 0.04192 0.0
H2263 H 0.45374 0.22892 0.11871 0.0
H2264 H 0.46048 0.25743 0.093 0.0
H2265 H 0.45296 0.25595 0.13929 0.0
H2266 H 0.44078 0.28929 0.13006 0.0
H2267 H 0.47186 0.3342 0.11174 0.0
H2268 H 0.9068 0.19431 0.20861 0.0
H2269 H 0.86555 0.18899 0.1855 0.0
H2270 H 0.90058 0.21333 0.08263 0.0
H2271 H 0.94215 0.21916 0.10604 0.0
H2272 H 0.86457 0.23004 0.09608 0.0
H2273 H 0.81994 0.12417 0.12618 0.0
H2274 H 0.83376 0.14465 0.16431 0.0
H2275 H 0.85481 0.14651 0.12872 0.0
C2276 C 0.90615 0.19985 0.1815 0.0
C2277 C 0.92811 0.20783 0.15948 0.0
C2278 C 0.88228 0.19618 0.16803 0.0
C2279 C 0.87948 0.19992 0.13195 0.0
C2280 C 0.902 0.21009 0.1105 0.0
H2281 H 0.72587 0.12621 0.02131 0.0
H2282 H 0.76977 0.1374 0.0429 0.0
C2283 C 0.92602 0.21392 0.12408 0.0
C2284 C 0.85283 0.1916 0.11644 0.0
H2285 H 0.79065 0.13877 0.10794 0.0
C2286 C 0.84847 0.21007 0.09865 0.0
C2287 C 0.83171 0.16535 0.11879 0.0
C2288 C 0.83527 0.14394 0.13519 0.0
C2289 C 0.82363 0.20331 0.08441 0.0
C2290 C 0.80216 0.17738 0.08841 0.0
C2291 C 0.80678 0.15871 0.10513 0.0
C2292 C 0.77479 0.16951 0.07618 0.0
C2293 C 0.82079 0.22405 0.06468 0.0
C2294 C 0.76228 0.183 0.08847 0.0
C2295 C 0.73725 0.1766 0.07626 0.0
C2296 C 0.72361 0.15626 0.05153 0.0
C2297 C 0.7356 0.14191 0.04034 0.0
C2298 C 0.76084 0.14843 0.05259 0.0
H2299 H 0.83995 0.23964 0.05432 0.0
H2300 H 0.80686 0.21545 0.04226 0.0
H2301 H 0.81323 0.23347 0.08294 0.0
H2302 H 0.77198 0.19873 0.10747 0.0
H2303 H 0.72873 0.18801 0.08594 0.0
H2304 H 0.89671 0.57406 0.11264 0.0
H2305 H 0.8832 0.60521 0.13217 0.0
H2306 H 0.88651 0.63096 0.02486 0.0
H2307 H 0.89999 0.59979 0.00504 0.0
H2308 H 0.9063 0.66013 0.12607 0.0
H2309 H 0.81137 0.61031 0.05429 0.0
H2310 H 0.83117 0.59513 0.06112 0.0
H2311 H 0.83985 0.61966 0.02749 0.0
C2312 C 0.89501 0.58661 0.09314 0.0
C2313 C 0.89959 0.58425 0.05713 0.0
C2314 C 0.8871 0.6044 0.1044 0.0
C2315 C 0.88316 0.62018 0.08002 0.0
C2316 C 0.88878 0.6187 0.04425 0.0
H2317 H 0.83353 0.7378 0.10059 0.0
H2318 H 0.84128 0.70296 0.07893 0.0
C2319 C 0.8969 0.60104 0.03297 0.0
C2320 C 0.87311 0.63796 0.09214 0.0
H2321 H 0.82191 0.64994 0.08359 0.0
C2322 C 0.8878 0.6578 0.11683 0.0
C2323 C 0.84898 0.63519 0.08011 0.0
C2324 C 0.83175 0.61381 0.05452 0.0
C2325 C 0.87941 0.67504 0.12929 0.0
C2326 C 0.85504 0.67205 0.11775 0.0
C2327 C 0.84042 0.6523 0.09282 0.0
C2328 C 0.84496 0.68964 0.13079 0.0
C2329 C 0.89729 0.6969 0.15392 0.0
C2330 C 0.84237 0.69275 0.16715 0.0
C2331 C 0.83773 0.7126 0.17954 0.0
C2332 C 0.83485 0.72953 0.15597 0.0
C2333 C 0.83469 0.72461 0.11955 0.0
C2334 C 0.83966 0.70491 0.10711 0.0
H2335 H 0.9179 0.70123 0.15194 0.0
H2336 H 0.89683 0.71519 0.14824 0.0
H2337 H 0.89077 0.69094 0.18154 0.0
H2338 H 0.84556 0.68086 0.18616 0.0
H2339 H 0.83876 0.71625 0.20769 0.0
loop_
_geom_bond_atom_site_label_1
_geom_bond_atom_site_label_2
_geom_bond_distance
_geom_bond_site_symmetry_2
_ccdc_geom_bond_type
Fe0 O2 1.918 1_556 S
Fe0 O5 1.997 . S
Fe0 O6 2.002 . S
Fe0 O11 1.976 . S
Fe0 O14 1.996 1_556 S
Fe1 O2 1.918 . S
Fe1 O9 1.997 1_554 S
Fe1 O12 1.996 1_554 S
Fe1 O16 1.976 . S
Fe1 O19 2.002 . S
O2 Fe0 1.918 1_554 S
O2 Fe1 1.918 . S
O2 Fe3 1.918 . S
Fe3 O2 1.918 . S
Fe3 O4 2.002 . S
Fe3 O13 1.976 . S
Fe3 O17 1.996 . S
Fe3 O20 1.997 . S
O4 Fe3 2.002 . S
O4 C21 1.295 1_554 S
O5 Fe0 1.997 . S
O5 C21 1.235 . S
O6 Fe0 2.002 . S
O6 C7 1.295 . S
C7 O6 1.295 . S
C7 O9 1.235 . S
C8 O13 1.287 . S
C8 O14 1.255 . S
O9 Fe1 1.997 1_556 S
O9 C7 1.235 . S
C10 O16 1.287 . S
C10 O17 1.255 . S
O11 Fe0 1.976 . S
O11 C18 1.287 . S
O12 Fe1 1.996 1_556 S
O12 C18 1.255 . S
O13 Fe3 1.976 . S
O13 C8 1.287 . S
O14 Fe0 1.996 1_554 S
O14 C8 1.255 . S
C15 O19 1.295 . S
C15 O20 1.235 . S
O16 Fe1 1.976 . S
O16 C10 1.287 . S
O17 Fe3 1.996 . S
O17 C10 1.255 . S
C18 O11 1.287 . S
C18 O12 1.255 . S
O19 Fe1 2.002 . S
O19 C15 1.295 . S
O20 Fe3 1.997 . S
O20 C15 1.235 . S
C21 O4 1.295 1_556 S
C21 O5 1.235 . S
Fe22 O24 1.918 1_556 S
Fe22 O27 1.997 . S
Fe22 O28 2.002 . S
Fe22 O33 1.976 . S
Fe22 O36 1.996 1_556 S
Fe23 O24 1.918 . S
Fe23 O31 1.997 1_554 S
Fe23 O34 1.996 1_554 S
Fe23 O38 1.976 . S
Fe23 O41 2.002 . S
O24 Fe22 1.918 1_554 S
O24 Fe23 1.918 . S
O24 Fe25 1.918 . S
Fe25 O24 1.918 . S
Fe25 O26 2.002 . S
Fe25 O35 1.976 . S
Fe25 O39 1.996 . S
Fe25 O42 1.997 . S
O26 Fe25 2.002 . S
O26 C43 1.295 1_554 S
O27 Fe22 1.997 . S
O27 C43 1.235 . S
O28 Fe22 2.002 . S
O28 C29 1.295 . S
C29 O28 1.295 . S
C29 O31 1.235 . S
C30 O35 1.287 . S
C30 O36 1.255 . S
O31 Fe23 1.997 1_556 S
O31 C29 1.235 . S
C32 O38 1.287 . S
C32 O39 1.255 . S
O33 Fe22 1.976 . S
O33 C40 1.287 . S
O34 Fe23 1.996 1_556 S
O34 C40 1.255 . S
O35 Fe25 1.976 . S
O35 C30 1.287 . S
O36 Fe22 1.996 1_554 S
O36 C30 1.255 . S
C37 O41 1.295 . S
C37 O42 1.235 . S
O38 Fe23 1.976 . S
O38 C32 1.287 . S
O39 Fe25 1.996 . S
O39 C32 1.255 . S
C40 O33 1.287 . S
C40 O34 1.255 . S
O41 Fe23 2.002 . S
O41 C37 1.295 . S
O42 Fe25 1.997 . S
O42 C37 1.235 . S
C43 O26 1.295 1_556 S
C43 O27 1.235 . S
Fe44 O46 1.918 1_556 S
Fe44 O49 1.997 . S
Fe44 O50 2.002 . S
Fe44 O55 1.976 . S
Fe44 O58 1.996 1_556 S
Fe45 O46 1.918 . S
Fe45 O53 1.997 1_554 S
Fe45 O56 1.996 1_554 S
Fe45 O60 1.976 . S
Fe45 O63 2.002 . S
O46 Fe44 1.918 1_554 S
O46 Fe45 1.918 . S
O46 Fe47 1.918 . S
Fe47 O46 1.918 . S
Fe47 O48 2.002 . S
Fe47 O57 1.976 . S
Fe47 O61 1.996 . S
Fe47 O64 1.997 . S
O48 Fe47 2.002 . S
O48 C65 1.295 1_554 S
O49 Fe44 1.997 . S
O49 C65 1.235 . S
O50 Fe44 2.002 . S
O50 C51 1.295 . S
C51 O50 1.295 . S
C51 O53 1.235 . S
C52 O57 1.287 . S
C52 O58 1.255 . S
O53 Fe45 1.997 1_556 S
O53 C51 1.235 . S
C54 O60 1.287 . S
C54 O61 1.255 . S
O55 Fe44 1.976 . S
O55 C62 1.287 . S
O56 Fe45 1.996 1_556 S
O56 C62 1.255 . S
O57 Fe47 1.976 . S
O57 C52 1.287 . S
O58 Fe44 1.996 1_554 S
O58 C52 1.255 . S
C59 O63 1.295 . S
C59 O64 1.235 . S
O60 Fe45 1.976 . S
O60 C54 1.287 . S
O61 Fe47 1.996 . S
O61 C54 1.255 . S
C62 O55 1.287 . S
C62 O56 1.255 . S
O63 Fe45 2.002 . S
O63 C59 1.295 . S
O64 Fe47 1.997 . S
O64 C59 1.235 . S
C65 O48 1.295 1_556 S
C65 O49 1.235 . S
Fe66 O68 1.918 . S
Fe66 O71 1.997 . S
Fe66 O72 2.002 . S
Fe66 O77 1.976 . S
Fe66 O80 1.996 . S
Fe67 O68 1.918 . S
Fe67 O75 1.997 . S
Fe67 O78 1.996 . S
Fe67 O82 1.976 . S
Fe67 O85 2.002 . S
O68 Fe66 1.918 . S
O68 Fe67 1.918 . S
O68 Fe69 1.918 . S
Fe69 O68 1.918 . S
Fe69 O70 2.002 . S
Fe69 O79 1.976 . S
Fe69 O83 1.996 . S
Fe69 O86 1.997 . S
O70 Fe69 2.002 . S
O70 C87 1.295 . S
O71 Fe66 1.997 . S
O71 C87 1.235 . S
O72 Fe66 2.002 . S
O72 C73 1.295 . S
C73 O72 1.295 . S
C73 O75 1.235 . S
C74 O79 1.287 . S
C74 O80 1.255 . S
O75 Fe67 1.997 . S
O75 C73 1.235 . S
C76 O82 1.287 . S
C76 O83 1.255 . S
O77 Fe66 1.976 . S
O77 C84 1.287 . S
O78 Fe67 1.996 . S
O78 C84 1.255 . S
O79 Fe69 1.976 . S
O79 C74 1.287 . S
O80 Fe66 1.996 . S
O80 C74 1.255 . S
C81 O85 1.295 . S
C81 O86 1.235 . S
O82 Fe67 1.976 . S
O82 C76 1.287 . S
O83 Fe69 1.996 . S
O83 C76 1.255 . S
C84 O77 1.287 . S
C84 O78 1.255 . S
O85 Fe67 2.002 . S
O85 C81 1.295 . S
O86 Fe69 1.997 . S
O86 C81 1.235 . S
C87 O70 1.295 . S
C87 O71 1.235 . S
Fe88 O90 1.918 . S
Fe88 O93 1.997 . S
Fe88 O94 2.002 . S
Fe88 O99 1.976 . S
Fe88 O102 1.996 . S
Fe89 O90 1.918 . S
Fe89 O97 1.997 . S
Fe89 O100 1.996 . S
Fe89 O104 1.976 . S
Fe89 O107 2.002 . S
O90 Fe88 1.918 . S
O90 Fe89 1.918 . S
O90 Fe91 1.918 . S
Fe91 O90 1.918 . S
Fe91 O92 2.002 . S
Fe91 O101 1.976 . S
Fe91 O105 1.996 . S
Fe91 O108 1.997 . S
O92 Fe91 2.002 . S
O92 C109 1.295 . S
O93 Fe88 1.997 . S
O93 C109 1.235 . S
O94 Fe88 2.002 . S
O94 C95 1.295 . S
C95 O94 1.295 . S
C95 O97 1.235 . S
C96 O101 1.287 . S
C96 O102 1.255 . S
O97 Fe89 1.997 . S
O97 C95 1.235 . S
C98 O104 1.287 . S
C98 O105 1.255 . S
O99 Fe88 1.976 . S
O99 C106 1.287 . S
O100 Fe89 1.996 . S
O100 C106 1.255 . S
O101 Fe91 1.976 . S
O101 C96 1.287 . S
O102 Fe88 1.996 . S
O102 C96 1.255 . S
C103 O107 1.295 . S
C103 O108 1.235 . S
O104 Fe89 1.976 . S
O104 C98 1.287 . S
O105 Fe91 1.996 . S
O105 C98 1.255 . S
C106 O99 1.287 . S
C106 O100 1.255 . S
O107 Fe89 2.002 . S
O107 C103 1.295 . S
O108 Fe91 1.997 . S
O108 C103 1.235 . S
C109 O92 1.295 . S
C109 O93 1.235 . S
Fe110 O112 1.918 . S
Fe110 O115 1.997 . S
Fe110 O116 2.002 . S
Fe110 O121 1.976 . S
Fe110 O124 1.996 . S
Fe111 O112 1.918 . S
Fe111 O119 1.997 . S
Fe111 O122 1.996 . S
Fe111 O126 1.976 . S
Fe111 O129 2.002 . S
O112 Fe110 1.918 . S
O112 Fe111 1.918 . S
O112 Fe113 1.918 . S
Fe113 O112 1.918 . S
Fe113 O114 2.002 . S
Fe113 O123 1.976 . S
Fe113 O127 1.996 . S
Fe113 O130 1.997 . S
O114 Fe113 2.002 . S
O114 C131 1.295 . S
O115 Fe110 1.997 . S
O115 C131 1.235 . S
O116 Fe110 2.002 . S
O116 C117 1.295 . S
C117 O116 1.295 . S
C117 O119 1.235 . S
C118 O123 1.287 . S
C118 O124 1.255 . S
O119 Fe111 1.997 . S
O119 C117 1.235 . S
C120 O126 1.287 . S
C120 O127 1.255 . S
O121 Fe110 1.976 . S
O121 C128 1.287 . S
O122 Fe111 1.996 . S
O122 C128 1.255 . S
O123 Fe113 1.976 . S
O123 C118 1.287 . S
O124 Fe110 1.996 . S
O124 C118 1.255 . S
C125 O129 1.295 . S
C125 O130 1.235 . S
O126 Fe111 1.976 . S
O126 C120 1.287 . S
O127 Fe113 1.996 . S
O127 C120 1.255 . S
C128 O121 1.287 . S
C128 O122 1.255 . S
O129 Fe111 2.002 . S
O129 C125 1.295 . S
O130 Fe113 1.997 . S
O130 C125 1.235 . S
C131 O114 1.295 . S
C131 O115 1.235 . S
Fe132 O134 1.918 . S
Fe132 O137 1.997 . S
Fe132 O138 2.002 . S
Fe132 O143 1.976 . S
Fe132 O146 1.996 . S
Fe133 O134 1.918 . S
Fe133 O141 1.997 . S
Fe133 O144 1.996 . S
Fe133 O148 1.976 . S
Fe133 O151 2.002 . S
O134 Fe132 1.918 . S
O134 Fe133 1.918 . S
O134 Fe135 1.918 . S
Fe135 O134 1.918 . S
Fe135 O136 2.002 . S
Fe135 O145 1.976 . S
Fe135 O149 1.996 . S
Fe135 O152 1.997 . S
O136 Fe135 2.002 . S
O136 C153 1.295 . S
O137 Fe132 1.997 . S
O137 C153 1.235 . S
O138 Fe132 2.002 . S
O138 C139 1.295 . S
C139 O138 1.295 . S
C139 O141 1.235 . S
C140 O145 1.287 . S
C140 O146 1.255 . S
O141 Fe133 1.997 . S
O141 C139 1.235 . S
C142 O148 1.287 . S
C142 O149 1.255 . S
O143 Fe132 1.976 . S
O143 C150 1.287 . S
O144 Fe133 1.996 . S
O144 C150 1.255 . S
O145 Fe135 1.976 . S
O145 C140 1.287 . S
O146 Fe132 1.996 . S
O146 C140 1.255 . S
C147 O151 1.295 . S
C147 O152 1.235 . S
O148 Fe133 1.976 . S
O148 C142 1.287 . S
O149 Fe135 1.996 . S
O149 C142 1.255 . S
C150 O143 1.287 . S
C150 O144 1.255 . S
O151 Fe133 2.002 . S
O151 C147 1.295 . S
O152 Fe135 1.997 . S
O152 C147 1.235 . S
C153 O136 1.295 . S
C153 O137 1.235 . S
Fe154 O156 1.918 . S
Fe154 O159 1.997 . S
Fe154 O160 2.002 . S
Fe154 O165 1.976 . S
Fe154 O168 1.996 . S
Fe155 O156 1.918 . S
Fe155 O163 1.997 . S
Fe155 O166 1.996 . S
Fe155 O170 1.976 . S
Fe155 O173 2.002 . S
O156 Fe154 1.918 . S
O156 Fe155 1.918 . S
O156 Fe157 1.918 . S
Fe157 O156 1.918 . S
Fe157 O158 2.002 . S
Fe157 O167 1.976 . S
Fe157 O171 1.996 . S
Fe157 O174 1.997 . S
O158 Fe157 2.002 . S
O158 C175 1.295 . S
O159 Fe154 1.997 . S
O159 C175 1.235 . S
O160 Fe154 2.002 . S
O160 C161 1.295 . S
C161 O160 1.295 . S
C161 O163 1.235 . S
C162 O167 1.287 . S
C162 O168 1.255 . S
O163 Fe155 1.997 . S
O163 C161 1.235 . S
C164 O170 1.287 . S
C164 O171 1.255 . S
O165 Fe154 1.976 . S
O165 C172 1.287 . S
O166 Fe155 1.996 . S
O166 C172 1.255 . S
O167 Fe157 1.976 . S
O167 C162 1.287 . S
O168 Fe154 1.996 . S
O168 C162 1.255 . S
C169 O173 1.295 . S
C169 O174 1.235 . S
O170 Fe155 1.976 . S
O170 C164 1.287 . S
O171 Fe157 1.996 . S
O171 C164 1.255 . S
C172 O165 1.287 . S
C172 O166 1.255 . S
O173 Fe155 2.002 . S
O173 C169 1.295 . S
O174 Fe157 1.997 . S
O174 C169 1.235 . S
C175 O158 1.295 . S
C175 O159 1.235 . S
Fe176 O178 1.918 . S
Fe176 O181 1.997 . S
Fe176 O182 2.002 . S
Fe176 O187 1.976 . S
Fe176 O190 1.996 . S
Fe177 O178 1.918 . S
Fe177 O185 1.997 . S
Fe177 O188 1.996 . S
Fe177 O192 1.976 . S
Fe177 O195 2.002 . S
O178 Fe176 1.918 . S
O178 Fe177 1.918 . S
O178 Fe179 1.918 . S
Fe179 O178 1.918 . S
Fe179 O180 2.002 . S
Fe179 O189 1.976 . S
Fe179 O193 1.996 . S
Fe179 O196 1.997 . S
O180 Fe179 2.002 . S
O180 C197 1.295 . S
O181 Fe176 1.997 . S
O181 C197 1.235 . S
O182 Fe176 2.002 . S
O182 C183 1.295 . S
C183 O182 1.295 . S
C183 O185 1.235 . S
C184 O189 1.287 . S
C184 O190 1.255 . S
O185 Fe177 1.997 . S
O185 C183 1.235 . S
C186 O192 1.287 . S
C186 O193 1.255 . S
O187 Fe176 1.976 . S
O187 C194 1.287 . S
O188 Fe177 1.996 . S
O188 C194 1.255 . S
O189 Fe179 1.976 . S
O189 C184 1.287 . S
O190 Fe176 1.996 . S
O190 C184 1.255 . S
C191 O195 1.295 . S
C191 O196 1.235 . S
O192 Fe177 1.976 . S
O192 C186 1.287 . S
O193 Fe179 1.996 . S
O193 C186 1.255 . S
C194 O187 1.287 . S
C194 O188 1.255 . S
O195 Fe177 2.002 . S
O195 C191 1.295 . S
O196 Fe179 1.997 . S
O196 C191 1.235 . S
C197 O180 1.295 . S
C197 O181 1.235 . S
Fe198 O200 1.918 . S
Fe198 O203 1.997 . S
Fe198 O204 2.002 . S
Fe198 O209 1.976 . S
Fe198 O212 1.996 . S
Fe199 O200 1.918 . S
Fe199 O207 1.997 . S
Fe199 O210 1.996 . S
Fe199 O214 1.976 . S
Fe199 O217 2.002 . S
O200 Fe198 1.918 . S
O200 Fe199 1.918 . S
O200 Fe201 1.918 . S
Fe201 O200 1.918 . S
Fe201 O202 2.002 . S
Fe201 O211 1.976 . S
Fe201 O215 1.996 . S
Fe201 O218 1.997 . S
O202 Fe201 2.002 . S
O202 C219 1.295 . S
O203 Fe198 1.997 . S
O203 C219 1.235 . S
O204 Fe198 2.002 . S
O204 C205 1.295 . S
C205 O204 1.295 . S
C205 O207 1.235 . S
C206 O211 1.287 . S
C206 O212 1.255 . S
O207 Fe199 1.997 . S
O207 C205 1.235 . S
C208 O214 1.287 . S
C208 O215 1.255 . S
O209 Fe198 1.976 . S
O209 C216 1.287 . S
O210 Fe199 1.996 . S
O210 C216 1.255 . S
O211 Fe201 1.976 . S
O211 C206 1.287 . S
O212 Fe198 1.996 . S
O212 C206 1.255 . S
C213 O217 1.295 . S
C213 O218 1.235 . S
O214 Fe199 1.976 . S
O214 C208 1.287 . S
O215 Fe201 1.996 . S
O215 C208 1.255 . S
C216 O209 1.287 . S
C216 O210 1.255 . S
O217 Fe199 2.002 . S
O217 C213 1.295 . S
O218 Fe201 1.997 . S
O218 C213 1.235 . S
C219 O202 1.295 . S
C219 O203 1.235 . S
Fe220 O222 1.918 . S
Fe220 O225 1.997 . S
Fe220 O226 2.002 . S
Fe220 O231 1.976 . S
Fe220 O234 1.996 . S
Fe221 O222 1.918 . S
Fe221 O229 1.997 . S
Fe221 O232 1.996 . S
Fe221 O236 1.976 . S
Fe221 O239 2.002 . S
O222 Fe220 1.918 . S
O222 Fe221 1.918 . S
O222 Fe223 1.918 . S
Fe223 O222 1.918 . S
Fe223 O224 2.002 . S
Fe223 O233 1.976 . S
Fe223 O237 1.996 . S
Fe223 O240 1.997 . S
O224 Fe223 2.002 . S
O224 C241 1.295 . S
O225 Fe220 1.997 . S
O225 C241 1.235 . S
O226 Fe220 2.002 . S
O226 C227 1.295 . S
C227 O226 1.295 . S
C227 O229 1.235 . S
C228 O233 1.287 . S
C228 O234 1.255 . S
O229 Fe221 1.997 . S
O229 C227 1.235 . S
C230 O236 1.287 . S
C230 O237 1.255 . S
O231 Fe220 1.976 . S
O231 C238 1.287 . S
O232 Fe221 1.996 . S
O232 C238 1.255 . S
O233 Fe223 1.976 . S
O233 C228 1.287 . S
O234 Fe220 1.996 . S
O234 C228 1.255 . S
C235 O239 1.295 . S
C235 O240 1.235 . S
O236 Fe221 1.976 . S
O236 C230 1.287 . S
O237 Fe223 1.996 . S
O237 C230 1.255 . S
C238 O231 1.287 . S
C238 O232 1.255 . S
O239 Fe221 2.002 . S
O239 C235 1.295 . S
O240 Fe223 1.997 . S
O240 C235 1.235 . S
C241 O224 1.295 . S
C241 O225 1.235 . S
Fe242 O244 1.918 . S
Fe242 O247 1.997 . S
Fe242 O248 2.002 . S
Fe242 O253 1.976 . S
Fe242 O256 1.996 . S
Fe243 O244 1.918 . S
Fe243 O251 1.997 . S
Fe243 O254 1.996 . S
Fe243 O258 1.976 . S
Fe243 O261 2.002 . S
O244 Fe242 1.918 . S
O244 Fe243 1.918 . S
O244 Fe245 1.918 . S
Fe245 O244 1.918 . S
Fe245 O246 2.002 . S
Fe245 O255 1.976 . S
Fe245 O259 1.996 . S
Fe245 O262 1.997 . S
O246 Fe245 2.002 . S
O246 C263 1.295 . S
O247 Fe242 1.997 . S
O247 C263 1.235 . S
O248 Fe242 2.002 . S
O248 C249 1.295 . S
C249 O248 1.295 . S
C249 O251 1.235 . S
C250 O255 1.287 . S
C250 O256 1.255 . S
O251 Fe243 1.997 . S
O251 C249 1.235 . S
C252 O258 1.287 . S
C252 O259 1.255 . S
O253 Fe242 1.976 . S
O253 C260 1.287 . S
O254 Fe243 1.996 . S
O254 C260 1.255 . S
O255 Fe245 1.976 . S
O255 C250 1.287 . S
O256 Fe242 1.996 . S
O256 C250 1.255 . S
C257 O261 1.295 . S
C257 O262 1.235 . S
O258 Fe243 1.976 . S
O258 C252 1.287 . S
O259 Fe245 1.996 . S
O259 C252 1.255 . S
C260 O253 1.287 . S
C260 O254 1.255 . S
O261 Fe243 2.002 . S
O261 C257 1.295 . S
O262 Fe245 1.997 . S
O262 C257 1.235 . S
C263 O246 1.295 . S
C263 O247 1.235 . S
Fe264 O266 1.918 . S
Fe264 O269 1.997 . S
Fe264 O270 2.002 . S
Fe264 O275 1.976 . S
Fe264 O278 1.996 . S
Fe265 O266 1.918 . S
Fe265 O273 1.997 . S
Fe265 O276 1.996 . S
Fe265 O280 1.976 . S
Fe265 O283 2.002 . S
O266 Fe264 1.918 . S
O266 Fe265 1.918 . S
O266 Fe267 1.918 . S
Fe267 O266 1.918 . S
Fe267 O268 2.002 . S
Fe267 O277 1.976 . S
Fe267 O281 1.996 . S
Fe267 O284 1.997 . S
O268 Fe267 2.002 . S
O268 C285 1.295 . S
O269 Fe264 1.997 . S
O269 C285 1.235 . S
O270 Fe264 2.002 . S
O270 C271 1.295 . S
C271 O270 1.295 . S
C271 O273 1.235 . S
C272 O277 1.287 . S
C272 O278 1.255 . S
O273 Fe265 1.997 . S
O273 C271 1.235 . S
C274 O280 1.287 . S
C274 O281 1.255 . S
O275 Fe264 1.976 . S
O275 C282 1.287 . S
O276 Fe265 1.996 . S
O276 C282 1.255 . S
O277 Fe267 1.976 . S
O277 C272 1.287 . S
O278 Fe264 1.996 . S
O278 C272 1.255 . S
C279 O283 1.295 . S
C279 O284 1.235 . S
O280 Fe265 1.976 . S
O280 C274 1.287 . S
O281 Fe267 1.996 . S
O281 C274 1.255 . S
C282 O275 1.287 . S
C282 O276 1.255 . S
O283 Fe265 2.002 . S
O283 C279 1.295 . S
O284 Fe267 1.997 . S
O284 C279 1.235 . S
C285 O268 1.295 . S
C285 O269 1.235 . S
Fe286 O288 1.918 . S
Fe286 O291 1.997 . S
Fe286 O292 2.002 . S
Fe286 O297 1.976 . S
Fe286 O300 1.996 . S
Fe287 O288 1.918 . S
Fe287 O295 1.997 . S
Fe287 O298 1.996 . S
Fe287 O302 1.976 . S
Fe287 O305 2.002 . S
O288 Fe286 1.918 . S
O288 Fe287 1.918 . S
O288 Fe289 1.918 . S
Fe289 O288 1.918 . S
Fe289 O290 2.002 . S
Fe289 O299 1.976 . S
Fe289 O303 1.996 . S
Fe289 O306 1.997 . S
O290 Fe289 2.002 . S
O290 C307 1.295 . S
O291 Fe286 1.997 . S
O291 C307 1.235 . S
O292 Fe286 2.002 . S
O292 C293 1.295 . S
C293 O292 1.295 . S
C293 O295 1.235 . S
C294 O299 1.287 . S
C294 O300 1.255 . S
O295 Fe287 1.997 . S
O295 C293 1.235 . S
C296 O302 1.287 . S
C296 O303 1.255 . S
O297 Fe286 1.976 . S
O297 C304 1.287 . S
O298 Fe287 1.996 . S
O298 C304 1.255 . S
O299 Fe289 1.976 . S
O299 C294 1.287 . S
O300 Fe286 1.996 . S
O300 C294 1.255 . S
C301 O305 1.295 . S
C301 O306 1.235 . S
O302 Fe287 1.976 . S
O302 C296 1.287 . S
O303 Fe289 1.996 . S
O303 C296 1.255 . S
C304 O297 1.287 . S
C304 O298 1.255 . S
O305 Fe287 2.002 . S
O305 C301 1.295 . S
O306 Fe289 1.997 . S
O306 C301 1.235 . S
C307 O290 1.295 . S
C307 O291 1.235 . S
Fe308 O310 1.918 . S
Fe308 O313 1.997 . S
Fe308 O314 2.002 . S
Fe308 O319 1.976 . S
Fe308 O322 1.996 . S
Fe309 O310 1.918 . S
Fe309 O317 1.997 . S
Fe309 O320 1.996 . S
Fe309 O324 1.976 . S
Fe309 O327 2.002 . S
O310 Fe308 1.918 . S
O310 Fe309 1.918 . S
O310 Fe311 1.918 . S
Fe311 O310 1.918 . S
Fe311 O312 2.002 . S
Fe311 O321 1.976 . S
Fe311 O325 1.996 . S
Fe311 O328 1.997 . S
O312 Fe311 2.002 . S
O312 C329 1.295 . S
O313 Fe308 1.997 . S
O313 C329 1.235 . S
O314 Fe308 2.002 . S
O314 C315 1.295 . S
C315 O314 1.295 . S
C315 O317 1.235 . S
C316 O321 1.287 . S
C316 O322 1.255 . S
O317 Fe309 1.997 . S
O317 C315 1.235 . S
C318 O324 1.287 . S
C318 O325 1.255 . S
O319 Fe308 1.976 . S
O319 C326 1.287 . S
O320 Fe309 1.996 . S
O320 C326 1.255 . S
O321 Fe311 1.976 . S
O321 C316 1.287 . S
O322 Fe308 1.996 . S
O322 C316 1.255 . S
C323 O327 1.295 . S
C323 O328 1.235 . S
O324 Fe309 1.976 . S
O324 C318 1.287 . S
O325 Fe311 1.996 . S
O325 C318 1.255 . S
C326 O319 1.287 . S
C326 O320 1.255 . S
O327 Fe309 2.002 . S
O327 C323 1.295 . S
O328 Fe311 1.997 . S
O328 C323 1.235 . S
C329 O312 1.295 . S
C329 O313 1.235 . S
Fe330 O332 1.918 . S
Fe330 O335 1.997 . S
Fe330 O336 2.002 . S
Fe330 O341 1.976 . S
Fe330 O344 1.996 . S
Fe331 O332 1.918 . S
Fe331 O339 1.997 . S
Fe331 O342 1.996 . S
Fe331 O346 1.976 . S
Fe331 O349 2.002 . S
O332 Fe330 1.918 . S
O332 Fe331 1.918 . S
O332 Fe333 1.918 . S
Fe333 O332 1.918 . S
Fe333 O334 2.002 . S
Fe333 O343 1.976 . S
Fe333 O347 1.996 . S
Fe333 O350 1.997 . S
O334 Fe333 2.002 . S
O334 C351 1.295 . S
O335 Fe330 1.997 . S
O335 C351 1.235 . S
O336 Fe330 2.002 . S
O336 C337 1.295 . S
C337 O336 1.295 . S
C337 O339 1.235 . S
C338 O343 1.287 . S
C338 O344 1.255 . S
O339 Fe331 1.997 . S
O339 C337 1.235 . S
C340 O346 1.287 . S
C340 O347 1.255 . S
O341 Fe330 1.976 . S
O341 C348 1.287 . S
O342 Fe331 1.996 . S
O342 C348 1.255 . S
O343 Fe333 1.976 . S
O343 C338 1.287 . S
O344 Fe330 1.996 . S
O344 C338 1.255 . S
C345 O349 1.295 . S
C345 O350 1.235 . S
O346 Fe331 1.976 . S
O346 C340 1.287 . S
O347 Fe333 1.996 . S
O347 C340 1.255 . S
C348 O341 1.287 . S
C348 O342 1.255 . S
O349 Fe331 2.002 . S
O349 C345 1.295 . S
O350 Fe333 1.997 . S
O350 C345 1.235 . S
C351 O334 1.295 . S
C351 O335 1.235 . S
Fe352 O354 1.918 . S
Fe352 O357 1.997 . S
Fe352 O358 2.002 . S
Fe352 O363 1.976 . S
Fe352 O366 1.996 . S
Fe353 O354 1.918 . S
Fe353 O361 1.997 . S
Fe353 O364 1.996 . S
Fe353 O368 1.976 . S
Fe353 O371 2.002 . S
O354 Fe352 1.918 . S
O354 Fe353 1.918 . S
O354 Fe355 1.918 . S
Fe355 O354 1.918 . S
Fe355 O356 2.002 . S
Fe355 O365 1.976 . S
Fe355 O369 1.996 . S
Fe355 O372 1.997 . S
O356 Fe355 2.002 . S
O356 C373 1.295 . S
O357 Fe352 1.997 . S
O357 C373 1.235 . S
O358 Fe352 2.002 . S
O358 C359 1.295 . S
C359 O358 1.295 . S
C359 O361 1.235 . S
C360 O365 1.287 . S
C360 O366 1.255 . S
O361 Fe353 1.997 . S
O361 C359 1.235 . S
C362 O368 1.287 . S
C362 O369 1.255 . S
O363 Fe352 1.976 . S
O363 C370 1.287 . S
O364 Fe353 1.996 . S
O364 C370 1.255 . S
O365 Fe355 1.976 . S
O365 C360 1.287 . S
O366 Fe352 1.996 . S
O366 C360 1.255 . S
C367 O371 1.295 . S
C367 O372 1.235 . S
O368 Fe353 1.976 . S
O368 C362 1.287 . S
O369 Fe355 1.996 . S
O369 C362 1.255 . S
C370 O363 1.287 . S
C370 O364 1.255 . S
O371 Fe353 2.002 . S
O371 C367 1.295 . S
O372 Fe355 1.997 . S
O372 C367 1.235 . S
C373 O356 1.295 . S
C373 O357 1.235 . S
Fe374 O376 1.918 . S
Fe374 O379 1.997 . S
Fe374 O380 2.002 . S
Fe374 O385 1.976 . S
Fe374 O388 1.996 . S
Fe375 O376 1.918 . S
Fe375 O383 1.997 . S
Fe375 O386 1.996 . S
Fe375 O390 1.976 . S
Fe375 O393 2.002 . S
O376 Fe374 1.918 . S
O376 Fe375 1.918 . S
O376 Fe377 1.918 . S
Fe377 O376 1.918 . S
Fe377 O378 2.002 . S
Fe377 O387 1.976 . S
Fe377 O391 1.996 . S
Fe377 O394 1.997 . S
O378 Fe377 2.002 . S
O378 C395 1.295 . S
O379 Fe374 1.997 . S
O379 C395 1.235 . S
O380 Fe374 2.002 . S
O380 C381 1.295 . S
C381 O380 1.295 . S
C381 O383 1.235 . S
C382 O387 1.287 . S
C382 O388 1.255 . S
O383 Fe375 1.997 . S
O383 C381 1.235 . S
C384 O390 1.287 . S
C384 O391 1.255 . S
O385 Fe374 1.976 . S
O385 C392 1.287 . S
O386 Fe375 1.996 . S
O386 C392 1.255 . S
O387 Fe377 1.976 . S
O387 C382 1.287 . S
O388 Fe374 1.996 . S
O388 C382 1.255 . S
C389 O393 1.295 . S
C389 O394 1.235 . S
O390 Fe375 1.976 . S
O390 C384 1.287 . S
O391 Fe377 1.996 . S
O391 C384 1.255 . S
C392 O385 1.287 . S
C392 O386 1.255 . S
O393 Fe375 2.002 . S
O393 C389 1.295 . S
O394 Fe377 1.997 . S
O394 C389 1.235 . S
C395 O378 1.295 . S
C395 O379 1.235 . S
H396 C404 0.929 . S
H397 C406 0.930 . S
H398 C408 0.930 . S
H399 C411 0.929 . S
H400 C414 0.930 . S
H401 C416 0.960 . S
H402 C416 0.960 . S
H403 C416 0.960 1_556 S
C404 H396 0.929 . S
C404 C405 1.377 . S
C404 C406 1.384 . S
C405 C404 1.377 . S
C405 C411 1.390 1_554 S
C406 H397 0.930 . S
C406 C404 1.384 . S
C406 C407 1.372 . S
C407 C406 1.372 . S
C407 C408 1.400 1_554 S
C407 C412 1.490 . S
C408 H398 0.930 . S
C408 C407 1.400 1_556 S
C408 C411 1.386 . S
H409 C425 0.930 . S
H410 C426 0.931 . S
C411 H399 0.929 . S
C411 C405 1.390 1_556 S
C411 C408 1.386 . S
C412 C407 1.490 . S
C412 C414 1.395 . S
C412 C415 1.403 . S
H413 C419 0.930 . S
C414 H400 0.930 . S
C414 C412 1.395 . S
C414 C417 1.403 1_554 S
C415 C412 1.403 . S
C415 C416 1.524 . S
C415 C419 1.400 1_554 S
C416 H401 0.960 . S
C416 H402 0.960 . S
C416 H403 0.960 1_554 S
C416 C415 1.524 . S
C417 C414 1.403 1_556 S
C417 C418 1.392 . S
C417 C421 1.495 . S
C418 C417 1.392 . S
C418 C419 1.385 . S
C418 C420 1.478 . S
C419 H413 0.930 . S
C419 C415 1.400 1_556 S
C419 C418 1.385 . S
C420 C418 1.478 . S
C420 C422 1.381 1_556 S
C420 C426 1.383 . S
C421 C417 1.495 . S
C421 H427 0.959 . S
C421 H428 0.961 . S
C421 H429 0.960 1_556 S
C422 C420 1.381 1_554 S
C422 C423 1.394 . S
C422 H430 0.930 . S
C423 C422 1.394 . S
C423 C424 1.383 1_554 S
C423 H431 0.929 . S
C424 C423 1.383 1_556 S
C424 C425 1.377 . S
C425 H409 0.930 . S
C425 C424 1.377 . S
C425 C426 1.379 . S
C426 H410 0.931 . S
C426 C420 1.383 . S
C426 C425 1.379 . S
H427 C421 0.959 . S
H428 C421 0.961 . S
H429 C421 0.960 1_554 S
H430 C422 0.930 . S
H431 C423 0.929 . S
H432 C440 0.929 . S
H433 C442 0.930 . S
H434 C444 0.930 . S
H435 C447 0.929 . S
H436 C450 0.930 . S
H437 C452 0.960 . S
H438 C452 0.960 . S
H439 C452 0.960 . S
C440 H432 0.929 . S
C440 C441 1.377 1_554 S
C440 C442 1.384 . S
C441 C440 1.377 1_556 S
C441 C447 1.390 . S
C442 H433 0.930 . S
C442 C440 1.384 . S
C442 C443 1.372 1_554 S
C443 C442 1.372 1_556 S
C443 C444 1.400 . S
C443 C448 1.490 . S
C444 H434 0.930 . S
C444 C443 1.400 . S
C444 C447 1.386 . S
H445 C461 0.930 . S
H446 C462 0.931 . S
C447 H435 0.929 . S
C447 C441 1.390 . S
C447 C444 1.386 . S
C448 C443 1.490 . S
C448 C450 1.395 1_556 S
C448 C451 1.403 . S
H449 C455 0.930 . S
C450 H436 0.930 . S
C450 C448 1.395 1_554 S
C450 C453 1.403 . S
C451 C448 1.403 . S
C451 C452 1.524 . S
C451 C455 1.400 . S
C452 H437 0.960 . S
C452 H438 0.960 . S
C452 H439 0.960 . S
C452 C451 1.524 . S
C453 C450 1.403 . S
C453 C454 1.392 . S
C453 C457 1.495 . S
C454 C453 1.392 . S
C454 C455 1.385 1_554 S
C454 C456 1.478 . S
C455 H449 0.930 . S
C455 C451 1.400 . S
C455 C454 1.385 1_556 S
C456 C454 1.478 . S
C456 C458 1.381 . S
C456 C462 1.383 1_554 S
C457 C453 1.495 . S
C457 H463 0.959 . S
C457 H464 0.961 . S
C457 H465 0.960 . S
C458 C456 1.381 . S
C458 C459 1.394 . S
C458 H466 0.930 . S
C459 C458 1.394 . S
C459 C460 1.383 . S
C459 H467 0.929 . S
C460 C459 1.383 . S
C460 C461 1.377 1_554 S
C461 H445 0.930 . S
C461 C460 1.377 1_556 S
C461 C462 1.379 . S
C462 H446 0.931 . S
C462 C456 1.383 1_556 S
C462 C461 1.379 . S
H463 C457 0.959 . S
H464 C457 0.961 . S
H465 C457 0.960 . S
H466 C458 0.930 . S
H467 C459 0.929 . S
H468 C476 0.929 . S
H469 C478 0.930 . S
H470 C480 0.930 . S
H471 C483 0.929 . S
H472 C486 0.930 . S
H473 C488 0.960 . S
H474 C488 0.960 . S
H475 C488 0.960 1_556 S
C476 H468 0.929 . S
C476 C477 1.377 . S
C476 C478 1.384 . S
C477 C476 1.377 . S
C477 C483 1.390 1_554 S
C478 H469 0.930 . S
C478 C476 1.384 . S
C478 C479 1.372 . S
C479 C478 1.372 . S
C479 C480 1.400 1_554 S
C479 C484 1.490 . S
C480 H470 0.930 . S
C480 C479 1.400 1_556 S
C480 C483 1.386 . S
H481 C497 0.930 . S
H482 C498 0.931 . S
C483 H471 0.929 . S
C483 C477 1.390 1_556 S
C483 C480 1.386 . S
C484 C479 1.490 . S
C484 C486 1.395 . S
C484 C487 1.403 . S
H485 C491 0.930 . S
C486 H472 0.930 . S
C486 C484 1.395 . S
C486 C489 1.403 1_554 S
C487 C484 1.403 . S
C487 C488 1.524 . S
C487 C491 1.400 1_554 S
C488 H473 0.960 . S
C488 H474 0.960 . S
C488 H475 0.960 1_554 S
C488 C487 1.524 . S
C489 C486 1.403 1_556 S
C489 C490 1.392 . S
C489 C493 1.495 . S
C490 C489 1.392 . S
C490 C491 1.385 . S
C490 C492 1.478 . S
C491 H485 0.930 . S
C491 C487 1.400 1_556 S
C491 C490 1.385 . S
C492 C490 1.478 . S
C492 C494 1.381 1_556 S
C492 C498 1.383 . S
C493 C489 1.495 . S
C493 H499 0.959 . S
C493 H500 0.961 . S
C493 H501 0.960 1_556 S
C494 C492 1.381 1_554 S
C494 C495 1.394 . S
C494 H502 0.930 . S
C495 C494 1.394 . S
C495 C496 1.383 1_554 S
C495 H503 0.929 . S
C496 C495 1.383 1_556 S
C496 C497 1.377 . S
C497 H481 0.930 . S
C497 C496 1.377 . S
C497 C498 1.379 . S
C498 H482 0.931 . S
C498 C492 1.383 . S
C498 C497 1.379 . S
H499 C493 0.959 . S
H500 C493 0.961 . S
H501 C493 0.960 1_554 S
H502 C494 0.930 . S
H503 C495 0.929 . S
H504 C512 0.929 . S
H505 C514 0.930 . S
H506 C516 0.930 . S
H507 C519 0.929 . S
H508 C522 0.930 . S
H509 C524 0.960 . S
H510 C524 0.960 . S
H511 C524 0.960 . S
C512 H504 0.929 . S
C512 C513 1.377 . S
C512 C514 1.384 . S
C513 C512 1.377 . S
C513 C519 1.390 . S
C514 H505 0.930 . S
C514 C512 1.384 . S
C514 C515 1.372 . S
C515 C514 1.372 . S
C515 C516 1.400 . S
C515 C520 1.490 . S
C516 H506 0.930 . S
C516 C515 1.400 . S
C516 C519 1.386 . S
H517 C533 0.930 . S
H518 C534 0.931 . S
C519 H507 0.929 . S
C519 C513 1.390 . S
C519 C516 1.386 . S
C520 C515 1.490 . S
C520 C522 1.395 . S
C520 C523 1.403 . S
H521 C527 0.930 . S
C522 H508 0.930 . S
C522 C520 1.395 . S
C522 C525 1.403 . S
C523 C520 1.403 . S
C523 C524 1.524 . S
C523 C527 1.400 . S
C524 H509 0.960 . S
C524 H510 0.960 . S
C524 H511 0.960 . S
C524 C523 1.524 . S
C525 C522 1.403 . S
C525 C526 1.392 . S
C525 C529 1.495 . S
C526 C525 1.392 . S
C526 C527 1.385 . S
C526 C528 1.478 . S
C527 H521 0.930 . S
C527 C523 1.400 . S
C527 C526 1.385 . S
C528 C526 1.478 . S
C528 C530 1.381 . S
C528 C534 1.383 . S
C529 C525 1.495 . S
C529 H535 0.959 . S
C529 H536 0.961 . S
C529 H537 0.960 . S
C530 C528 1.381 . S
C530 C531 1.394 . S
C530 H538 0.930 . S
C531 C530 1.394 . S
C531 C532 1.383 . S
C531 H539 0.929 . S
C532 C531 1.383 . S
C532 C533 1.377 . S
C533 H517 0.930 . S
C533 C532 1.377 . S
C533 C534 1.379 . S
C534 H518 0.931 . S
C534 C528 1.383 . S
C534 C533 1.379 . S
H535 C529 0.959 . S
H536 C529 0.961 . S
H537 C529 0.960 . S
H538 C530 0.930 . S
H539 C531 0.929 . S
H540 C548 0.929 . S
H541 C550 0.930 . S
H542 C552 0.930 . S
H543 C555 0.929 . S
H544 C558 0.930 . S
H545 C560 0.960 . S
H546 C560 0.960 . S
H547 C560 0.960 . S
C548 H540 0.929 . S
C548 C549 1.377 . S
C548 C550 1.384 . S
C549 C548 1.377 . S
C549 C555 1.390 . S
C550 H541 0.930 . S
C550 C548 1.384 . S
C550 C551 1.372 . S
C551 C550 1.372 . S
C551 C552 1.400 . S
C551 C556 1.490 . S
C552 H542 0.930 . S
C552 C551 1.400 . S
C552 C555 1.386 . S
H553 C569 0.930 . S
H554 C570 0.931 . S
C555 H543 0.929 . S
C555 C549 1.390 . S
C555 C552 1.386 . S
C556 C551 1.490 . S
C556 C558 1.395 . S
C556 C559 1.403 . S
H557 C563 0.930 . S
C558 H544 0.930 . S
C558 C556 1.395 . S
C558 C561 1.403 . S
C559 C556 1.403 . S
C559 C560 1.524 . S
C559 C563 1.400 . S
C560 H545 0.960 . S
C560 H546 0.960 . S
C560 H547 0.960 . S
C560 C559 1.524 . S
C561 C558 1.403 . S
C561 C562 1.392 . S
C561 C565 1.495 . S
C562 C561 1.392 . S
C562 C563 1.385 . S
C562 C564 1.478 . S
C563 H557 0.930 . S
C563 C559 1.400 . S
C563 C562 1.385 . S
C564 C562 1.478 . S
C564 C566 1.381 . S
C564 C570 1.383 . S
C565 C561 1.495 . S
C565 H571 0.959 . S
C565 H572 0.961 . S
C565 H573 0.960 . S
C566 C564 1.381 . S
C566 C567 1.394 . S
C566 H574 0.930 . S
C567 C566 1.394 . S
C567 C568 1.383 . S
C567 H575 0.929 . S
C568 C567 1.383 . S
C568 C569 1.377 . S
C569 H553 0.930 . S
C569 C568 1.377 . S
C569 C570 1.379 . S
C570 H554 0.931 . S
C570 C564 1.383 . S
C570 C569 1.379 . S
H571 C565 0.959 . S
H572 C565 0.961 . S
H573 C565 0.960 . S
H574 C566 0.930 . S
H575 C567 0.929 . S
H576 C584 0.929 . S
H577 C586 0.930 . S
H578 C588 0.930 . S
H579 C591 0.929 . S
H580 C594 0.930 . S
H581 C596 0.960 . S
H582 C596 0.960 . S
H583 C596 0.960 . S
C584 H576 0.929 . S
C584 C585 1.377 . S
C584 C586 1.384 . S
C585 C584 1.377 . S
C585 C591 1.390 . S
C586 H577 0.930 . S
C586 C584 1.384 . S
C586 C587 1.372 . S
C587 C586 1.372 . S
C587 C588 1.400 . S
C587 C592 1.490 . S
C588 H578 0.930 . S
C588 C587 1.400 . S
C588 C591 1.386 . S
H589 C605 0.930 . S
H590 C606 0.931 . S
C591 H579 0.929 . S
C591 C585 1.390 . S
C591 C588 1.386 . S
C592 C587 1.490 . S
C592 C594 1.395 . S
C592 C595 1.403 . S
H593 C599 0.930 . S
C594 H580 0.930 . S
C594 C592 1.395 . S
C594 C597 1.403 . S
C595 C592 1.403 . S
C595 C596 1.524 . S
C595 C599 1.400 . S
C596 H581 0.960 . S
C596 H582 0.960 . S
C596 H583 0.960 . S
C596 C595 1.524 . S
C597 C594 1.403 . S
C597 C598 1.392 . S
C597 C601 1.495 . S
C598 C597 1.392 . S
C598 C599 1.385 . S
C598 C600 1.478 . S
C599 H593 0.930 . S
C599 C595 1.400 . S
C599 C598 1.385 . S
C600 C598 1.478 . S
C600 C602 1.381 . S
C600 C606 1.383 . S
C601 C597 1.495 . S
C601 H607 0.959 . S
C601 H608 0.961 . S
C601 H609 0.960 . S
C602 C600 1.381 . S
C602 C603 1.394 . S
C602 H610 0.930 . S
C603 C602 1.394 . S
C603 C604 1.383 . S
C603 H611 0.929 . S
C604 C603 1.383 . S
C604 C605 1.377 . S
C605 H589 0.930 . S
C605 C604 1.377 . S
C605 C606 1.379 . S
C606 H590 0.931 . S
C606 C600 1.383 . S
C606 C605 1.379 . S
H607 C601 0.959 . S
H608 C601 0.961 . S
H609 C601 0.960 . S
H610 C602 0.930 . S
H611 C603 0.929 . S
H612 C620 0.929 . S
H613 C622 0.930 . S
H614 C624 0.930 . S
H615 C627 0.929 . S
H616 C630 0.930 . S
H617 C632 0.960 . S
H618 C632 0.960 . S
H619 C632 0.960 . S
C620 H612 0.929 . S
C620 C621 1.377 . S
C620 C622 1.384 . S
C621 C620 1.377 . S
C621 C627 1.390 . S
C622 H613 0.930 . S
C622 C620 1.384 . S
C622 C623 1.372 . S
C623 C622 1.372 . S
C623 C624 1.400 . S
C623 C628 1.490 . S
C624 H614 0.930 . S
C624 C623 1.400 . S
C624 C627 1.386 . S
H625 C641 0.930 . S
H626 C642 0.931 . S
C627 H615 0.929 . S
C627 C621 1.390 . S
C627 C624 1.386 . S
C628 C623 1.490 . S
C628 C630 1.395 . S
C628 C631 1.403 . S
H629 C635 0.930 . S
C630 H616 0.930 . S
C630 C628 1.395 . S
C630 C633 1.403 . S
C631 C628 1.403 . S
C631 C632 1.524 . S
C631 C635 1.400 . S
C632 H617 0.960 . S
C632 H618 0.960 . S
C632 H619 0.960 . S
C632 C631 1.524 . S
C633 C630 1.403 . S
C633 C634 1.392 . S
C633 C637 1.495 . S
C634 C633 1.392 . S
C634 C635 1.385 . S
C634 C636 1.478 . S
C635 H629 0.930 . S
C635 C631 1.400 . S
C635 C634 1.385 . S
C636 C634 1.478 . S
C636 C638 1.381 . S
C636 C642 1.383 . S
C637 C633 1.495 . S
C637 H643 0.959 . S
C637 H644 0.961 . S
C637 H645 0.960 . S
C638 C636 1.381 . S
C638 C639 1.394 . S
C638 H646 0.930 . S
C639 C638 1.394 . S
C639 C640 1.383 . S
C639 H647 0.929 . S
C640 C639 1.383 . S
C640 C641 1.377 . S
C641 H625 0.930 . S
C641 C640 1.377 . S
C641 C642 1.379 . S
C642 H626 0.931 . S
C642 C636 1.383 . S
C642 C641 1.379 . S
H643 C637 0.959 . S
H644 C637 0.961 . S
H645 C637 0.960 . S
H646 C638 0.930 . S
H647 C639 0.929 . S
H648 C656 0.929 . S
H649 C658 0.930 . S
H650 C660 0.930 . S
H651 C663 0.929 . S
H652 C666 0.930 . S
H653 C668 0.960 . S
H654 C668 0.960 . S
H655 C668 0.960 . S
C656 H648 0.929 . S
C656 C657 1.377 . S
C656 C658 1.384 . S
C657 C656 1.377 . S
C657 C663 1.390 . S
C658 H649 0.930 . S
C658 C656 1.384 . S
C658 C659 1.372 . S
C659 C658 1.372 . S
C659 C660 1.400 . S
C659 C664 1.490 . S
C660 H650 0.930 . S
C660 C659 1.400 . S
C660 C663 1.386 . S
H661 C677 0.930 . S
H662 C678 0.931 . S
C663 H651 0.929 . S
C663 C657 1.390 . S
C663 C660 1.386 . S
C664 C659 1.490 . S
C664 C666 1.395 . S
C664 C667 1.403 . S
H665 C671 0.930 . S
C666 H652 0.930 . S
C666 C664 1.395 . S
C666 C669 1.403 . S
C667 C664 1.403 . S
C667 C668 1.524 . S
C667 C671 1.400 . S
C668 H653 0.960 . S
C668 H654 0.960 . S
C668 H655 0.960 . S
C668 C667 1.524 . S
C669 C666 1.403 . S
C669 C670 1.392 . S
C669 C673 1.495 . S
C670 C669 1.392 . S
C670 C671 1.385 . S
C670 C672 1.478 . S
C671 H665 0.930 . S
C671 C667 1.400 . S
C671 C670 1.385 . S
C672 C670 1.478 . S
C672 C674 1.381 . S
C672 C678 1.383 . S
C673 C669 1.495 . S
C673 H679 0.959 . S
C673 H680 0.961 . S
C673 H681 0.960 . S
C674 C672 1.381 . S
C674 C675 1.394 . S
C674 H682 0.930 . S
C675 C674 1.394 . S
C675 C676 1.383 . S
C675 H683 0.929 . S
C676 C675 1.383 . S
C676 C677 1.377 . S
C677 H661 0.930 . S
C677 C676 1.377 . S
C677 C678 1.379 . S
C678 H662 0.931 . S
C678 C672 1.383 . S
C678 C677 1.379 . S
H679 C673 0.959 . S
H680 C673 0.961 . S
H681 C673 0.960 . S
H682 C674 0.930 . S
H683 C675 0.929 . S
H684 C692 0.929 . S
H685 C694 0.930 . S
H686 C696 0.930 . S
H687 C699 0.929 . S
H688 C702 0.930 . S
H689 C704 0.960 . S
H690 C704 0.960 . S
H691 C704 0.960 . S
C692 H684 0.929 . S
C692 C693 1.377 . S
C692 C694 1.384 . S
C693 C692 1.377 . S
C693 C699 1.390 . S
C694 H685 0.930 . S
C694 C692 1.384 . S
C694 C695 1.372 . S
C695 C694 1.372 . S
C695 C696 1.400 . S
C695 C700 1.490 . S
C696 H686 0.930 . S
C696 C695 1.400 . S
C696 C699 1.386 . S
H697 C713 0.930 . S
H698 C714 0.931 . S
C699 H687 0.929 . S
C699 C693 1.390 . S
C699 C696 1.386 . S
C700 C695 1.490 . S
C700 C702 1.395 . S
C700 C703 1.403 . S
H701 C707 0.930 . S
C702 H688 0.930 . S
C702 C700 1.395 . S
C702 C705 1.403 . S
C703 C700 1.403 . S
C703 C704 1.524 . S
C703 C707 1.400 . S
C704 H689 0.960 . S
C704 H690 0.960 . S
C704 H691 0.960 . S
C704 C703 1.524 . S
C705 C702 1.403 . S
C705 C706 1.392 . S
C705 C709 1.495 . S
C706 C705 1.392 . S
C706 C707 1.385 . S
C706 C708 1.478 . S
C707 H701 0.930 . S
C707 C703 1.400 . S
C707 C706 1.385 . S
C708 C706 1.478 . S
C708 C710 1.381 . S
C708 C714 1.383 . S
C709 C705 1.495 . S
C709 H715 0.959 . S
C709 H716 0.961 . S
C709 H717 0.960 . S
C710 C708 1.381 . S
C710 C711 1.394 . S
C710 H718 0.930 . S
C711 C710 1.394 . S
C711 C712 1.383 . S
C711 H719 0.929 . S
C712 C711 1.383 . S
C712 C713 1.377 . S
C713 H697 0.930 . S
C713 C712 1.377 . S
C713 C714 1.379 . S
C714 H698 0.931 . S
C714 C708 1.383 . S
C714 C713 1.379 . S
H715 C709 0.959 . S
H716 C709 0.961 . S
H717 C709 0.960 . S
H718 C710 0.930 . S
H719 C711 0.929 . S
H720 C728 0.929 . S
H721 C730 0.930 . S
H722 C732 0.930 . S
H723 C735 0.929 . S
H724 C738 0.930 . S
H725 C740 0.960 . S
H726 C740 0.960 . S
H727 C740 0.960 . S
C728 H720 0.929 . S
C728 C729 1.377 . S
C728 C730 1.384 . S
C729 C728 1.377 . S
C729 C735 1.390 . S
C730 H721 0.930 . S
C730 C728 1.384 . S
C730 C731 1.372 . S
C731 C730 1.372 . S
C731 C732 1.400 . S
C731 C736 1.490 . S
C732 H722 0.930 . S
C732 C731 1.400 . S
C732 C735 1.386 . S
H733 C749 0.930 . S
H734 C750 0.931 . S
C735 H723 0.929 . S
C735 C729 1.390 . S
C735 C732 1.386 . S
C736 C731 1.490 . S
C736 C738 1.395 . S
C736 C739 1.403 . S
H737 C743 0.930 . S
C738 H724 0.930 . S
C738 C736 1.395 . S
C738 C741 1.403 . S
C739 C736 1.403 . S
C739 C740 1.524 . S
C739 C743 1.400 . S
C740 H725 0.960 . S
C740 H726 0.960 . S
C740 H727 0.960 . S
C740 C739 1.524 . S
C741 C738 1.403 . S
C741 C742 1.392 . S
C741 C745 1.495 . S
C742 C741 1.392 . S
C742 C743 1.385 . S
C742 C744 1.478 . S
C743 H737 0.930 . S
C743 C739 1.400 . S
C743 C742 1.385 . S
C744 C742 1.478 . S
C744 C746 1.381 . S
C744 C750 1.383 . S
C745 C741 1.495 . S
C745 H751 0.959 . S
C745 H752 0.961 . S
C745 H753 0.960 . S
C746 C744 1.381 . S
C746 C747 1.394 . S
C746 H754 0.930 . S
C747 C746 1.394 . S
C747 C748 1.383 . S
C747 H755 0.929 . S
C748 C747 1.383 . S
C748 C749 1.377 . S
C749 H733 0.930 . S
C749 C748 1.377 . S
C749 C750 1.379 . S
C750 H734 0.931 . S
C750 C744 1.383 . S
C750 C749 1.379 . S
H751 C745 0.959 . S
H752 C745 0.961 . S
H753 C745 0.960 . S
H754 C746 0.930 . S
H755 C747 0.929 . S
H756 C764 0.929 . S
H757 C766 0.930 . S
H758 C768 0.930 . S
H759 C771 0.929 . S
H760 C774 0.930 . S
H761 C776 0.960 . S
H762 C776 0.960 . S
H763 C776 0.960 . S
C764 H756 0.929 . S
C764 C765 1.377 . S
C764 C766 1.384 . S
C765 C764 1.377 . S
C765 C771 1.390 . S
C766 H757 0.930 . S
C766 C764 1.384 . S
C766 C767 1.372 . S
C767 C766 1.372 . S
C767 C768 1.400 . S
C767 C772 1.490 . S
C768 H758 0.930 . S
C768 C767 1.400 . S
C768 C771 1.386 . S
H769 C785 0.930 . S
H770 C786 0.931 . S
C771 H759 0.929 . S
C771 C765 1.390 . S
C771 C768 1.386 . S
C772 C767 1.490 . S
C772 C774 1.395 . S
C772 C775 1.403 . S
H773 C779 0.930 . S
C774 H760 0.930 . S
C774 C772 1.395 . S
C774 C777 1.403 . S
C775 C772 1.403 . S
C775 C776 1.524 . S
C775 C779 1.400 . S
C776 H761 0.960 . S
C776 H762 0.960 . S
C776 H763 0.960 . S
C776 C775 1.524 . S
C777 C774 1.403 . S
C777 C778 1.392 . S
C777 C781 1.495 . S
C778 C777 1.392 . S
C778 C779 1.385 . S
C778 C780 1.478 . S
C779 H773 0.930 . S
C779 C775 1.400 . S
C779 C778 1.385 . S
C780 C778 1.478 . S
C780 C782 1.381 . S
C780 C786 1.383 . S
C781 C777 1.495 . S
C781 H787 0.959 . S
C781 H788 0.961 . S
C781 H789 0.960 . S
C782 C780 1.381 . S
C782 C783 1.394 . S
C782 H790 0.930 . S
C783 C782 1.394 . S
C783 C784 1.383 . S
C783 H791 0.929 . S
C784 C783 1.383 . S
C784 C785 1.377 . S
C785 H769 0.930 . S
C785 C784 1.377 . S
C785 C786 1.379 . S
C786 H770 0.931 . S
C786 C780 1.383 . S
C786 C785 1.379 . S
H787 C781 0.959 . S
H788 C781 0.961 . S
H789 C781 0.960 . S
H790 C782 0.930 . S
H791 C783 0.929 . S
H792 C800 0.929 . S
H793 C802 0.930 . S
H794 C804 0.930 . S
H795 C807 0.929 . S
H796 C810 0.930 . S
H797 C812 0.960 . S
H798 C812 0.960 . S
H799 C812 0.960 . S
C800 H792 0.929 . S
C800 C801 1.377 . S
C800 C802 1.384 . S
C801 C800 1.377 . S
C801 C807 1.390 . S
C802 H793 0.930 . S
C802 C800 1.384 . S
C802 C803 1.372 . S
C803 C802 1.372 . S
C803 C804 1.400 . S
C803 C808 1.490 . S
C804 H794 0.930 . S
C804 C803 1.400 . S
C804 C807 1.386 . S
H805 C821 0.930 . S
H806 C822 0.931 . S
C807 H795 0.929 . S
C807 C801 1.390 . S
C807 C804 1.386 . S
C808 C803 1.490 . S
C808 C810 1.395 . S
C808 C811 1.403 . S
H809 C815 0.930 . S
C810 H796 0.930 . S
C810 C808 1.395 . S
C810 C813 1.403 . S
C811 C808 1.403 . S
C811 C812 1.524 . S
C811 C815 1.400 . S
C812 H797 0.960 . S
C812 H798 0.960 . S
C812 H799 0.960 . S
C812 C811 1.524 . S
C813 C810 1.403 . S
C813 C814 1.392 . S
C813 C817 1.495 . S
C814 C813 1.392 . S
C814 C815 1.385 . S
C814 C816 1.478 . S
C815 H809 0.930 . S
C815 C811 1.400 . S
C815 C814 1.385 . S
C816 C814 1.478 . S
C816 C818 1.381 . S
C816 C822 1.383 . S
C817 C813 1.495 . S
C817 H823 0.959 . S
C817 H824 0.961 . S
C817 H825 0.960 . S
C818 C816 1.381 . S
C818 C819 1.394 . S
C818 H826 0.930 . S
C819 C818 1.394 . S
C819 C820 1.383 . S
C819 H827 0.929 . S
C820 C819 1.383 . S
C820 C821 1.377 . S
C821 H805 0.930 . S
C821 C820 1.377 . S
C821 C822 1.379 . S
C822 H806 0.931 . S
C822 C816 1.383 . S
C822 C821 1.379 . S
H823 C817 0.959 . S
H824 C817 0.961 . S
H825 C817 0.960 . S
H826 C818 0.930 . S
H827 C819 0.929 . S
H828 C836 0.929 . S
H829 C838 0.930 . S
H830 C840 0.930 . S
H831 C843 0.929 . S
H832 C846 0.930 . S
H833 C848 0.960 . S
H834 C848 0.960 . S
H835 C848 0.960 . S
C836 H828 0.929 . S
C836 C837 1.377 1_545 S
C836 C838 1.384 1_545 S
C837 C836 1.377 1_565 S
C837 C843 1.390 . S
C838 H829 0.930 . S
C838 C836 1.384 1_565 S
C838 C839 1.372 . S
C839 C838 1.372 . S
C839 C840 1.400 . S
C839 C844 1.490 . S
C840 H830 0.930 . S
C840 C839 1.400 . S
C840 C843 1.386 . S
H841 C857 0.930 . S
H842 C858 0.931 . S
C843 H831 0.929 . S
C843 C837 1.390 . S
C843 C840 1.386 . S
C844 C839 1.490 . S
C844 C846 1.395 . S
C844 C847 1.403 . S
H845 C851 0.930 . S
C846 H832 0.930 . S
C846 C844 1.395 . S
C846 C849 1.403 . S
C847 C844 1.403 . S
C847 C848 1.524 . S
C847 C851 1.400 . S
C848 H833 0.960 . S
C848 H834 0.960 . S
C848 H835 0.960 . S
C848 C847 1.524 . S
C849 C846 1.403 . S
C849 C850 1.392 . S
C849 C853 1.495 . S
C850 C849 1.392 . S
C850 C851 1.385 . S
C850 C852 1.478 . S
C851 H845 0.930 . S
C851 C847 1.400 . S
C851 C850 1.385 . S
C852 C850 1.478 . S
C852 C854 1.381 . S
C852 C858 1.383 . S
C853 C849 1.495 . S
C853 H859 0.959 . S
C853 H860 0.961 . S
C853 H861 0.960 . S
C854 C852 1.381 . S
C854 C855 1.394 . S
C854 H862 0.930 . S
C855 C854 1.394 . S
C855 C856 1.383 . S
C855 H863 0.929 . S
C856 C855 1.383 . S
C856 C857 1.377 . S
C857 H841 0.930 . S
C857 C856 1.377 . S
C857 C858 1.379 . S
C858 H842 0.931 . S
C858 C852 1.383 . S
C858 C857 1.379 . S
H859 C853 0.959 . S
H860 C853 0.961 . S
H861 C853 0.960 . S
H862 C854 0.930 . S
H863 C855 0.929 . S
H864 C872 0.929 . S
H865 C874 0.930 . S
H866 C876 0.930 . S
H867 C879 0.929 . S
H868 C882 0.930 . S
H869 C884 0.960 . S
H870 C884 0.960 . S
H871 C884 0.960 . S
C872 H864 0.929 . S
C872 C873 1.377 . S
C872 C874 1.384 . S
C873 C872 1.377 . S
C873 C879 1.390 . S
C874 H865 0.930 . S
C874 C872 1.384 . S
C874 C875 1.372 . S
C875 C874 1.372 . S
C875 C876 1.400 . S
C875 C880 1.490 1_545 S
C876 H866 0.930 . S
C876 C875 1.400 . S
C876 C879 1.386 . S
H877 C893 0.930 . S
H878 C894 0.931 . S
C879 H867 0.929 . S
C879 C873 1.390 . S
C879 C876 1.386 . S
C880 C875 1.490 1_565 S
C880 C882 1.395 . S
C880 C883 1.403 . S
H881 C887 0.930 . S
C882 H868 0.930 . S
C882 C880 1.395 . S
C882 C885 1.403 . S
C883 C880 1.403 . S
C883 C884 1.524 . S
C883 C887 1.400 . S
C884 H869 0.960 . S
C884 H870 0.960 . S
C884 H871 0.960 . S
C884 C883 1.524 . S
C885 C882 1.403 . S
C885 C886 1.392 . S
C885 C889 1.495 . S
C886 C885 1.392 . S
C886 C887 1.385 . S
C886 C888 1.478 . S
C887 H881 0.930 . S
C887 C883 1.400 . S
C887 C886 1.385 . S
C888 C886 1.478 . S
C888 C890 1.381 . S
C888 C894 1.383 . S
C889 C885 1.495 . S
C889 H895 0.959 . S
C889 H896 0.961 . S
C889 H897 0.960 . S
C890 C888 1.381 . S
C890 C891 1.394 1_455 S
C890 H898 0.930 . S
C891 C890 1.394 1_655 S
C891 C892 1.372 1_655 S
C891 H899 0.929 . S
C892 C891 1.372 1_455 S
C892 C893 1.391 . S
C893 H877 0.930 . S
C893 C892 1.391 . S
C893 C894 1.379 . S
C894 H878 0.931 . S
C894 C888 1.383 . S
C894 C893 1.379 . S
H895 C889 0.959 . S
H896 C889 0.961 . S
H897 C889 0.960 . S
H898 C890 0.930 . S
H899 C891 0.929 . S
H900 C908 0.929 . S
H901 C910 0.930 . S
H902 C912 0.930 . S
H903 C915 0.929 . S
H904 C918 0.930 . S
H905 C920 0.960 . S
H906 C920 0.960 . S
H907 C920 0.960 . S
C908 H900 0.929 . S
C908 C909 1.377 . S
C908 C910 1.384 . S
C909 C908 1.377 . S
C909 C915 1.390 . S
C910 H901 0.930 . S
C910 C908 1.384 . S
C910 C911 1.372 . S
C911 C910 1.372 . S
C911 C912 1.400 . S
C911 C916 1.490 1_655 S
C912 H902 0.930 . S
C912 C911 1.400 . S
C912 C915 1.386 . S
H913 C929 0.930 . S
H914 C930 0.931 . S
C915 H903 0.929 . S
C915 C909 1.390 . S
C915 C912 1.386 . S
C916 C911 1.490 1_455 S
C916 C918 1.395 . S
C916 C919 1.403 . S
H917 C923 0.930 . S
C918 H904 0.930 . S
C918 C916 1.395 . S
C918 C921 1.403 . S
C919 C916 1.403 . S
C919 C920 1.524 . S
C919 C923 1.400 . S
C920 H905 0.960 . S
C920 H906 0.960 . S
C920 H907 0.960 . S
C920 C919 1.524 . S
C921 C918 1.403 . S
C921 C922 1.392 . S
C921 C925 1.495 . S
C922 C921 1.392 . S
C922 C923 1.385 . S
C922 C924 1.478 . S
C923 H917 0.930 . S
C923 C919 1.400 . S
C923 C922 1.385 . S
C924 C922 1.478 . S
C924 C926 1.381 . S
C924 C930 1.383 . S
C925 C921 1.495 . S
C925 H931 0.959 . S
C925 H932 0.961 . S
C925 H933 0.960 . S
C926 C924 1.381 . S
C926 C927 1.394 . S
C926 H934 0.930 . S
C927 C926 1.394 . S
C927 C928 1.383 . S
C927 H935 0.929 . S
C928 C927 1.383 . S
C928 C929 1.377 . S
C929 H913 0.930 . S
C929 C928 1.377 . S
C929 C930 1.379 . S
C930 H914 0.931 . S
C930 C924 1.383 . S
C930 C929 1.379 . S
H931 C925 0.959 . S
H932 C925 0.961 . S
H933 C925 0.960 . S
H934 C926 0.930 . S
H935 C927 0.929 . S
H936 C944 0.929 . S
H937 C946 0.930 . S
H938 C948 0.930 . S
H939 C951 0.929 . S
H940 C954 0.930 . S
H941 C956 0.960 . S
H942 C956 0.960 . S
H943 C956 0.960 . S
C944 H936 0.929 . S
C944 C945 1.377 . S
C944 C946 1.384 . S
C945 C944 1.377 . S
C945 C951 1.390 . S
C946 H937 0.930 . S
C946 C944 1.384 . S
C946 C947 1.372 . S
C947 C946 1.372 . S
C947 C948 1.400 . S
C947 C952 1.490 . S
C948 H938 0.930 . S
C948 C947 1.400 . S
C948 C951 1.386 . S
H949 C965 0.930 . S
H950 C966 0.931 . S
C951 H939 0.929 . S
C951 C945 1.390 . S
C951 C948 1.386 . S
C952 C947 1.490 . S
C952 C954 1.395 . S
C952 C955 1.403 . S
H953 C959 0.930 . S
C954 H940 0.930 . S
C954 C952 1.395 . S
C954 C957 1.403 . S
C955 C952 1.403 . S
C955 C956 1.524 . S
C955 C959 1.400 . S
C956 H941 0.960 . S
C956 H942 0.960 . S
C956 H943 0.960 . S
C956 C955 1.524 . S
C957 C954 1.403 . S
C957 C958 1.392 . S
C957 C961 1.495 . S
C958 C957 1.392 . S
C958 C959 1.385 . S
C958 C960 1.478 . S
C959 H953 0.930 . S
C959 C955 1.400 . S
C959 C958 1.385 . S
C960 C958 1.478 . S
C960 C962 1.381 . S
C960 C966 1.383 . S
C961 C957 1.495 . S
C961 H967 0.959 . S
C961 H968 0.961 . S
C961 H969 0.960 . S
C962 C960 1.381 . S
C962 C963 1.394 1_455 S
C962 H970 0.930 . S
C963 C962 1.394 1_655 S
C963 C964 1.383 1_655 S
C963 H971 0.929 . S
C964 C963 1.383 1_455 S
C964 C965 1.377 . S
C965 H949 0.930 . S
C965 C964 1.377 . S
C965 C966 1.379 . S
C966 H950 0.931 . S
C966 C960 1.383 . S
C966 C965 1.379 . S
H967 C961 0.959 . S
H968 C961 0.961 . S
H969 C961 0.960 . S
H970 C962 0.930 . S
H971 C963 0.929 . S
H972 C980 0.929 . S
H973 C982 0.930 . S
H974 C984 0.930 . S
H975 C987 0.929 . S
H976 C990 0.930 . S
H977 C992 0.960 . S
H978 C992 0.960 . S
H979 C992 0.960 . S
C980 H972 0.929 . S
C980 C981 1.377 . S
C980 C982 1.384 . S
C981 C980 1.377 . S
C981 C987 1.390 . S
C982 H973 0.930 . S
C982 C980 1.384 . S
C982 C983 1.372 . S
C983 C982 1.372 . S
C983 C984 1.400 . S
C983 C988 1.490 . S
C984 H974 0.930 . S
C984 C983 1.400 . S
C984 C987 1.386 . S
H985 C1001 0.930 . S
H986 C1002 0.931 . S
C987 H975 0.929 . S
C987 C981 1.390 . S
C987 C984 1.386 . S
C988 C983 1.490 . S
C988 C990 1.395 . S
C988 C991 1.403 . S
H989 C995 0.930 . S
C990 H976 0.930 . S
C990 C988 1.395 . S
C990 C993 1.403 . S
C991 C988 1.403 . S
C991 C992 1.524 . S
C991 C995 1.400 . S
C992 H977 0.960 . S
C992 H978 0.960 . S
C992 H979 0.960 . S
C992 C991 1.524 . S
C993 C990 1.403 . S
C993 C994 1.392 . S
C993 C997 1.495 . S
C994 C993 1.392 . S
C994 C995 1.385 . S
C994 C996 1.478 1_565 S
C995 H989 0.930 . S
C995 C991 1.400 . S
C995 C994 1.385 . S
C996 C994 1.478 1_545 S
C996 C998 1.381 . S
C996 C1002 1.383 . S
C997 C993 1.495 . S
C997 H1003 0.959 . S
C997 H1004 0.961 . S
C997 H1005 0.960 . S
C998 C996 1.381 . S
C998 C999 1.394 . S
C998 H1006 0.930 . S
C999 C998 1.394 . S
C999 C1000 1.383 . S
C999 H1007 0.929 . S
C1000 C999 1.383 . S
C1000 C1001 1.377 . S
C1001 H985 0.930 . S
C1001 C1000 1.377 . S
C1001 C1002 1.379 . S
C1002 H986 0.931 . S
C1002 C996 1.383 . S
C1002 C1001 1.379 . S
H1003 C997 0.959 . S
H1004 C997 0.961 . S
H1005 C997 0.960 . S
H1006 C998 0.930 . S
H1007 C999 0.929 . S
H1008 C1016 0.929 1_545 S
H1009 C1018 0.930 . S
H1010 C1020 0.930 . S
H1011 C1023 0.929 . S
H1012 C1026 0.930 . S
H1013 C1028 0.960 . S
H1014 C1028 0.960 . S
H1015 C1028 0.960 . S
C1016 H1008 0.929 1_565 S
C1016 C1017 1.377 . S
C1016 C1018 1.384 . S
C1017 C1016 1.377 . S
C1017 C1023 1.390 . S
C1018 H1009 0.930 . S
C1018 C1016 1.384 . S
C1018 C1019 1.372 . S
C1019 C1018 1.372 . S
C1019 C1020 1.400 . S
C1019 C1024 1.490 . S
C1020 H1010 0.930 . S
C1020 C1019 1.400 . S
C1020 C1023 1.386 . S
H1021 C1037 0.930 . S
H1022 C1038 0.931 . S
C1023 H1011 0.929 . S
C1023 C1017 1.390 . S
C1023 C1020 1.386 . S
C1024 C1019 1.490 . S
C1024 C1026 1.395 . S
C1024 C1027 1.403 . S
H1025 C1031 0.930 . S
C1026 H1012 0.930 . S
C1026 C1024 1.395 . S
C1026 C1029 1.403 . S
C1027 C1024 1.403 . S
C1027 C1028 1.524 . S
C1027 C1031 1.400 . S
C1028 H1013 0.960 . S
C1028 H1014 0.960 . S
C1028 H1015 0.960 . S
C1028 C1027 1.524 . S
C1029 C1026 1.403 . S
C1029 C1030 1.392 . S
C1029 C1033 1.495 . S
C1030 C1029 1.392 . S
C1030 C1031 1.385 . S
C1030 C1032 1.478 1_455 S
C1031 H1025 0.930 . S
C1031 C1027 1.400 . S
C1031 C1030 1.385 . S
C1032 C1030 1.478 1_655 S
C1032 C1034 1.381 . S
C1032 C1038 1.383 . S
C1033 C1029 1.495 . S
C1033 H1039 0.959 . S
C1033 H1040 0.961 . S
C1033 H1041 0.960 1_455 S
C1034 C1032 1.381 . S
C1034 C1035 1.394 . S
C1034 H1042 0.930 . S
C1035 C1034 1.394 . S
C1035 C1036 1.383 . S
C1035 H1043 0.929 . S
C1036 C1035 1.383 . S
C1036 C1037 1.377 . S
C1037 H1021 0.930 . S
C1037 C1036 1.377 . S
C1037 C1038 1.379 . S
C1038 H1022 0.931 . S
C1038 C1032 1.383 . S
C1038 C1037 1.379 . S
H1039 C1033 0.959 . S
H1040 C1033 0.961 . S
H1041 C1033 0.960 1_655 S
H1042 C1034 0.930 . S
H1043 C1035 0.929 . S
H1044 C1052 0.929 . S
H1045 C1054 0.930 . S
H1046 C1056 0.930 . S
H1047 C1059 0.929 . S
H1048 C1062 0.930 . S
H1049 C1064 0.960 . S
H1050 C1064 0.960 . S
H1051 C1064 0.960 . S
C1052 H1044 0.929 . S
C1052 C1053 1.377 . S
C1052 C1054 1.384 . S
C1053 C1052 1.377 . S
C1053 C1059 1.390 . S
C1054 H1045 0.930 . S
C1054 C1052 1.384 . S
C1054 C1055 1.372 . S
C1055 C1054 1.372 . S
C1055 C1056 1.400 . S
C1055 C1060 1.490 . S
C1056 H1046 0.930 . S
C1056 C1055 1.400 . S
C1056 C1059 1.386 . S
H1057 C1073 0.930 . S
H1058 C1074 0.931 . S
C1059 H1047 0.929 . S
C1059 C1053 1.390 . S
C1059 C1056 1.386 . S
C1060 C1055 1.490 . S
C1060 C1062 1.395 . S
C1060 C1063 1.403 . S
H1061 C1067 0.930 . S
C1062 H1048 0.930 . S
C1062 C1060 1.395 . S
C1062 C1065 1.403 . S
C1063 C1060 1.403 . S
C1063 C1064 1.524 . S
C1063 C1067 1.400 . S
C1064 H1049 0.960 . S
C1064 H1050 0.960 . S
C1064 H1051 0.960 . S
C1064 C1063 1.524 . S
C1065 C1062 1.403 . S
C1065 C1066 1.392 . S
C1065 C1069 1.495 . S
C1066 C1065 1.392 . S
C1066 C1067 1.385 . S
C1066 C1068 1.478 . S
C1067 H1061 0.930 . S
C1067 C1063 1.400 . S
C1067 C1066 1.385 . S
C1068 C1066 1.478 . S
C1068 C1070 1.381 . S
C1068 C1074 1.383 . S
C1069 C1065 1.495 . S
C1069 H1075 0.959 . S
C1069 H1076 0.961 . S
C1069 H1077 0.960 . S
C1070 C1068 1.381 . S
C1070 C1071 1.394 . S
C1070 H1078 0.930 . S
C1071 C1070 1.394 . S
C1071 C1072 1.383 . S
C1071 H1079 0.929 . S
C1072 C1071 1.383 . S
C1072 C1073 1.377 . S
C1073 H1057 0.930 . S
C1073 C1072 1.377 . S
C1073 C1074 1.379 . S
C1074 H1058 0.931 . S
C1074 C1068 1.383 . S
C1074 C1073 1.379 . S
H1075 C1069 0.959 . S
H1076 C1069 0.961 . S
H1077 C1069 0.960 . S
H1078 C1070 0.930 . S
H1079 C1071 0.929 . S
H1080 C1088 0.929 . S
H1081 C1090 0.930 . S
H1082 C1092 0.930 . S
H1083 C1095 0.929 . S
H1084 C1098 0.930 . S
H1085 C1100 0.960 . S
H1086 C1100 0.960 . S
H1087 C1100 0.960 . S
C1088 H1080 0.929 . S
C1088 C1089 1.377 . S
C1088 C1090 1.384 . S
C1089 C1088 1.377 . S
C1089 C1095 1.390 . S
C1090 H1081 0.930 . S
C1090 C1088 1.384 . S
C1090 C1091 1.372 . S
C1091 C1090 1.372 . S
C1091 C1092 1.400 . S
C1091 C1096 1.490 . S
C1092 H1082 0.930 . S
C1092 C1091 1.400 . S
C1092 C1095 1.386 . S
H1093 C1109 0.930 . S
H1094 C1110 0.931 . S
C1095 H1083 0.929 . S
C1095 C1089 1.390 . S
C1095 C1092 1.386 . S
C1096 C1091 1.490 . S
C1096 C1098 1.395 . S
C1096 C1099 1.403 . S
H1097 C1103 0.930 . S
C1098 H1084 0.930 . S
C1098 C1096 1.395 . S
C1098 C1101 1.403 . S
C1099 C1096 1.403 . S
C1099 C1100 1.524 . S
C1099 C1103 1.400 . S
C1100 H1085 0.960 . S
C1100 H1086 0.960 . S
C1100 H1087 0.960 . S
C1100 C1099 1.524 . S
C1101 C1098 1.403 . S
C1101 C1102 1.392 . S
C1101 C1105 1.495 . S
C1102 C1101 1.392 . S
C1102 C1103 1.385 . S
C1102 C1104 1.478 . S
C1103 H1097 0.930 . S
C1103 C1099 1.400 . S
C1103 C1102 1.385 . S
C1104 C1102 1.478 . S
C1104 C1106 1.381 . S
C1104 C1110 1.383 . S
C1105 C1101 1.495 . S
C1105 H1111 0.959 . S
C1105 H1112 0.961 . S
C1105 H1113 0.960 . S
C1106 C1104 1.381 . S
C1106 C1107 1.394 . S
C1106 H1114 0.930 . S
C1107 C1106 1.394 . S
C1107 C1108 1.383 . S
C1107 H1115 0.929 . S
C1108 C1107 1.383 . S
C1108 C1109 1.377 . S
C1109 H1093 0.930 . S
C1109 C1108 1.377 . S
C1109 C1110 1.379 . S
C1110 H1094 0.931 . S
C1110 C1104 1.383 . S
C1110 C1109 1.379 . S
H1111 C1105 0.959 . S
H1112 C1105 0.961 . S
H1113 C1105 0.960 . S
H1114 C1106 0.930 . S
H1115 C1107 0.929 . S
H1116 C1124 0.929 . S
H1117 C1126 0.930 . S
H1118 C1128 0.930 . S
H1119 C1131 0.929 . S
H1120 C1134 0.930 . S
H1121 C1136 0.960 . S
H1122 C1136 0.960 . S
H1123 C1136 0.960 . S
C1124 H1116 0.929 . S
C1124 C1125 1.377 . S
C1124 C1126 1.384 . S
C1125 C1124 1.377 . S
C1125 C1131 1.390 . S
C1126 H1117 0.930 . S
C1126 C1124 1.384 . S
C1126 C1127 1.372 . S
C1127 C1126 1.372 . S
C1127 C1128 1.400 . S
C1127 C1132 1.490 . S
C1128 H1118 0.930 . S
C1128 C1127 1.400 . S
C1128 C1131 1.386 . S
H1129 C1145 0.930 . S
H1130 C1146 0.931 . S
C1131 H1119 0.929 . S
C1131 C1125 1.390 . S
C1131 C1128 1.386 . S
C1132 C1127 1.490 . S
C1132 C1134 1.395 . S
C1132 C1135 1.403 . S
H1133 C1139 0.930 . S
C1134 H1120 0.930 . S
C1134 C1132 1.395 . S
C1134 C1137 1.403 . S
C1135 C1132 1.403 . S
C1135 C1136 1.524 . S
C1135 C1139 1.400 . S
C1136 H1121 0.960 . S
C1136 H1122 0.960 . S
C1136 H1123 0.960 . S
C1136 C1135 1.524 . S
C1137 C1134 1.403 . S
C1137 C1138 1.392 . S
C1137 C1141 1.495 . S
C1138 C1137 1.392 . S
C1138 C1139 1.385 . S
C1138 C1140 1.478 . S
C1139 H1133 0.930 . S
C1139 C1135 1.400 . S
C1139 C1138 1.385 . S
C1140 C1138 1.478 . S
C1140 C1142 1.381 . S
C1140 C1146 1.383 . S
C1141 C1137 1.495 . S
C1141 H1147 0.959 . S
C1141 H1148 0.961 . S
C1141 H1149 0.960 . S
C1142 C1140 1.381 . S
C1142 C1143 1.394 . S
C1142 H1150 0.930 . S
C1143 C1142 1.394 . S
C1143 C1144 1.383 . S
C1143 H1151 0.929 . S
C1144 C1143 1.383 . S
C1144 C1145 1.377 . S
C1145 H1129 0.930 . S
C1145 C1144 1.377 . S
C1145 C1146 1.379 . S
C1146 H1130 0.931 . S
C1146 C1140 1.383 . S
C1146 C1145 1.379 . S
H1147 C1141 0.959 . S
H1148 C1141 0.961 . S
H1149 C1141 0.960 . S
H1150 C1142 0.930 . S
H1151 C1143 0.929 . S
H1152 C1160 0.929 . S
H1153 C1162 0.930 . S
H1154 C1164 0.930 . S
H1155 C1167 0.929 . S
H1156 C1170 0.930 . S
H1157 C1172 0.960 . S
H1158 C1172 0.960 . S
H1159 C1172 0.960 . S
C1160 H1152 0.929 . S
C1160 C1161 1.377 . S
C1160 C1162 1.384 . S
C1161 C1160 1.377 . S
C1161 C1167 1.390 . S
C1162 H1153 0.930 . S
C1162 C1160 1.384 . S
C1162 C1163 1.372 . S
C1163 C1162 1.372 . S
C1163 C1164 1.400 . S
C1163 C1168 1.490 . S
C1164 H1154 0.930 . S
C1164 C1163 1.400 . S
C1164 C1167 1.386 . S
H1165 C1181 0.930 . S
H1166 C1182 0.931 . S
C1167 H1155 0.929 . S
C1167 C1161 1.390 . S
C1167 C1164 1.386 . S
C1168 C1163 1.490 . S
C1168 C1170 1.395 . S
C1168 C1171 1.403 . S
H1169 C1175 0.930 . S
C1170 H1156 0.930 . S
C1170 C1168 1.395 . S
C1170 C1173 1.403 . S
C1171 C1168 1.403 . S
C1171 C1172 1.524 . S
C1171 C1175 1.400 . S
C1172 H1157 0.960 . S
C1172 H1158 0.960 . S
C1172 H1159 0.960 . S
C1172 C1171 1.524 . S
C1173 C1170 1.403 . S
C1173 C1174 1.392 . S
C1173 C1177 1.495 . S
C1174 C1173 1.392 . S
C1174 C1175 1.385 . S
C1174 C1176 1.478 . S
C1175 H1169 0.930 . S
C1175 C1171 1.400 . S
C1175 C1174 1.385 . S
C1176 C1174 1.478 . S
C1176 C1178 1.381 . S
C1176 C1182 1.383 . S
C1177 C1173 1.495 . S
C1177 H1183 0.959 . S
C1177 H1184 0.961 . S
C1177 H1185 0.960 . S
C1178 C1176 1.381 . S
C1178 C1179 1.394 . S
C1178 H1186 0.930 . S
C1179 C1178 1.394 . S
C1179 C1180 1.383 . S
C1179 H1187 0.929 . S
C1180 C1179 1.383 . S
C1180 C1181 1.377 . S
C1181 H1165 0.930 . S
C1181 C1180 1.377 . S
C1181 C1182 1.379 . S
C1182 H1166 0.931 . S
C1182 C1176 1.383 . S
C1182 C1181 1.379 . S
H1183 C1177 0.959 . S
H1184 C1177 0.961 . S
H1185 C1177 0.960 . S
H1186 C1178 0.930 . S
H1187 C1179 0.929 . S
H1188 C1196 0.929 . S
H1189 C1198 0.930 . S
H1190 C1200 0.930 . S
H1191 C1203 0.929 . S
H1192 C1206 0.930 . S
H1193 C1208 0.960 . S
H1194 C1208 0.960 . S
H1195 C1208 0.960 . S
C1196 H1188 0.929 . S
C1196 C1197 1.377 . S
C1196 C1198 1.384 . S
C1197 C1196 1.377 . S
C1197 C1203 1.390 . S
C1198 H1189 0.930 . S
C1198 C1196 1.384 . S
C1198 C1199 1.372 . S
C1199 C1198 1.372 . S
C1199 C1200 1.400 . S
C1199 C1204 1.490 . S
C1200 H1190 0.930 . S
C1200 C1199 1.400 . S
C1200 C1203 1.386 . S
H1201 C1217 0.930 . S
H1202 C1218 0.931 . S
C1203 H1191 0.929 . S
C1203 C1197 1.390 . S
C1203 C1200 1.386 . S
C1204 C1199 1.490 . S
C1204 C1206 1.395 . S
C1204 C1207 1.403 . S
H1205 C1211 0.930 . S
C1206 H1192 0.930 . S
C1206 C1204 1.395 . S
C1206 C1209 1.403 . S
C1207 C1204 1.403 . S
C1207 C1208 1.524 . S
C1207 C1211 1.400 . S
C1208 H1193 0.960 . S
C1208 H1194 0.960 . S
C1208 H1195 0.960 . S
C1208 C1207 1.524 . S
C1209 C1206 1.403 . S
C1209 C1210 1.392 . S
C1209 C1213 1.495 . S
C1210 C1209 1.392 . S
C1210 C1211 1.385 . S
C1210 C1212 1.478 . S
C1211 H1205 0.930 . S
C1211 C1207 1.400 . S
C1211 C1210 1.385 . S
C1212 C1210 1.478 . S
C1212 C1214 1.381 . S
C1212 C1218 1.383 . S
C1213 C1209 1.495 . S
C1213 H1219 0.959 . S
C1213 H1220 0.961 . S
C1213 H1221 0.960 . S
C1214 C1212 1.381 . S
C1214 C1215 1.394 . S
C1214 H1222 0.930 . S
C1215 C1214 1.394 . S
C1215 C1216 1.383 . S
C1215 H1223 0.929 . S
C1216 C1215 1.383 . S
C1216 C1217 1.377 . S
C1217 H1201 0.930 . S
C1217 C1216 1.377 . S
C1217 C1218 1.379 . S
C1218 H1202 0.931 . S
C1218 C1212 1.383 . S
C1218 C1217 1.379 . S
H1219 C1213 0.959 . S
H1220 C1213 0.961 . S
H1221 C1213 0.960 . S
H1222 C1214 0.930 . S
H1223 C1215 0.929 . S
H1224 C1232 0.929 . S
H1225 C1234 0.930 . S
H1226 C1236 0.930 . S
H1227 C1239 0.929 . S
H1228 C1242 0.930 . S
H1229 C1244 0.960 . S
H1230 C1244 0.960 . S
H1231 C1244 0.960 . S
C1232 H1224 0.929 . S
C1232 C1233 1.377 . S
C1232 C1234 1.384 . S
C1233 C1232 1.377 . S
C1233 C1239 1.390 . S
C1234 H1225 0.930 . S
C1234 C1232 1.384 . S
C1234 C1235 1.372 . S
C1235 C1234 1.372 . S
C1235 C1236 1.400 . S
C1235 C1240 1.490 . S
C1236 H1226 0.930 . S
C1236 C1235 1.400 . S
C1236 C1239 1.386 . S
H1237 C1253 0.930 . S
H1238 C1254 0.931 . S
C1239 H1227 0.929 . S
C1239 C1233 1.390 . S
C1239 C1236 1.386 . S
C1240 C1235 1.490 . S
C1240 C1242 1.395 . S
C1240 C1243 1.403 . S
H1241 C1247 0.930 . S
C1242 H1228 0.930 . S
C1242 C1240 1.395 . S
C1242 C1245 1.403 . S
C1243 C1240 1.403 . S
C1243 C1244 1.524 . S
C1243 C1247 1.400 . S
C1244 H1229 0.960 . S
C1244 H1230 0.960 . S
C1244 H1231 0.960 . S
C1244 C1243 1.524 . S
C1245 C1242 1.403 . S
C1245 C1246 1.392 . S
C1245 C1249 1.495 . S
C1246 C1245 1.392 . S
C1246 C1247 1.385 . S
C1246 C1248 1.478 . S
C1247 H1241 0.930 . S
C1247 C1243 1.400 . S
C1247 C1246 1.385 . S
C1248 C1246 1.478 . S
C1248 C1250 1.381 . S
C1248 C1254 1.383 . S
C1249 C1245 1.495 . S
C1249 H1255 0.959 . S
C1249 H1256 0.961 . S
C1249 H1257 0.960 . S
C1250 C1248 1.381 . S
C1250 C1251 1.394 . S
C1250 H1258 0.930 . S
C1251 C1250 1.394 . S
C1251 C1252 1.383 . S
C1251 H1259 0.929 . S
C1252 C1251 1.383 . S
C1252 C1253 1.377 . S
C1253 H1237 0.930 . S
C1253 C1252 1.377 . S
C1253 C1254 1.379 . S
C1254 H1238 0.931 . S
C1254 C1248 1.383 . S
C1254 C1253 1.379 . S
H1255 C1249 0.959 . S
H1256 C1249 0.961 . S
H1257 C1249 0.960 . S
H1258 C1250 0.930 . S
H1259 C1251 0.929 . S
H1260 C1268 0.929 . S
H1261 C1270 0.930 . S
H1262 C1272 0.930 . S
H1263 C1275 0.929 . S
H1264 C1278 0.930 . S
H1265 C1280 0.960 . S
H1266 C1280 0.960 . S
H1267 C1280 0.960 . S
C1268 H1260 0.929 . S
C1268 C1269 1.377 . S
C1268 C1270 1.384 . S
C1269 C1268 1.377 . S
C1269 C1275 1.390 . S
C1270 H1261 0.930 . S
C1270 C1268 1.384 . S
C1270 C1271 1.372 . S
C1271 C1270 1.372 . S
C1271 C1272 1.400 . S
C1271 C1276 1.490 . S
C1272 H1262 0.930 . S
C1272 C1271 1.400 . S
C1272 C1275 1.386 . S
H1273 C1289 0.930 . S
H1274 C1290 0.931 . S
C1275 H1263 0.929 . S
C1275 C1269 1.390 . S
C1275 C1272 1.386 . S
C1276 C1271 1.490 . S
C1276 C1278 1.395 . S
C1276 C1279 1.403 . S
H1277 C1283 0.930 . S
C1278 H1264 0.930 . S
C1278 C1276 1.395 . S
C1278 C1281 1.403 . S
C1279 C1276 1.403 . S
C1279 C1280 1.524 . S
C1279 C1283 1.400 . S
C1280 H1265 0.960 . S
C1280 H1266 0.960 . S
C1280 H1267 0.960 . S
C1280 C1279 1.524 . S
C1281 C1278 1.403 . S
C1281 C1282 1.392 . S
C1281 C1285 1.495 . S
C1282 C1281 1.392 . S
C1282 C1283 1.385 . S
C1282 C1284 1.478 . S
C1283 H1277 0.930 . S
C1283 C1279 1.400 . S
C1283 C1282 1.385 . S
C1284 C1282 1.478 . S
C1284 C1286 1.381 . S
C1284 C1290 1.383 . S
C1285 C1281 1.495 . S
C1285 H1291 0.959 . S
C1285 H1292 0.961 . S
C1285 H1293 0.960 . S
C1286 C1284 1.381 . S
C1286 C1287 1.394 . S
C1286 H1294 0.930 . S
C1287 C1286 1.394 . S
C1287 C1288 1.383 . S
C1287 H1295 0.929 . S
C1288 C1287 1.383 . S
C1288 C1289 1.377 . S
C1289 H1273 0.930 . S
C1289 C1288 1.377 . S
C1289 C1290 1.379 . S
C1290 H1274 0.931 . S
C1290 C1284 1.383 . S
C1290 C1289 1.379 . S
H1291 C1285 0.959 . S
H1292 C1285 0.961 . S
H1293 C1285 0.960 . S
H1294 C1286 0.930 . S
H1295 C1287 0.929 . S
H1296 C1304 0.929 . S
H1297 C1306 0.930 . S
H1298 C1308 0.930 . S
H1299 C1311 0.929 . S
H1300 C1314 0.930 . S
H1301 C1316 0.960 . S
H1302 C1316 0.960 . S
H1303 C1316 0.960 . S
C1304 H1296 0.929 . S
C1304 C1305 1.377 . S
C1304 C1306 1.384 . S
C1305 C1304 1.377 . S
C1305 C1311 1.390 . S
C1306 H1297 0.930 . S
C1306 C1304 1.384 . S
C1306 C1307 1.372 . S
C1307 C1306 1.372 . S
C1307 C1308 1.400 . S
C1307 C1312 1.490 . S
C1308 H1298 0.930 . S
C1308 C1307 1.400 . S
C1308 C1311 1.386 . S
H1309 C1325 0.930 . S
H1310 C1326 0.931 . S
C1311 H1299 0.929 . S
C1311 C1305 1.390 . S
C1311 C1308 1.386 . S
C1312 C1307 1.490 . S
C1312 C1314 1.395 . S
C1312 C1315 1.403 . S
H1313 C1319 0.930 . S
C1314 H1300 0.930 . S
C1314 C1312 1.395 . S
C1314 C1317 1.403 . S
C1315 C1312 1.403 . S
C1315 C1316 1.524 . S
C1315 C1319 1.400 . S
C1316 H1301 0.960 . S
C1316 H1302 0.960 . S
C1316 H1303 0.960 . S
C1316 C1315 1.524 . S
C1317 C1314 1.403 . S
C1317 C1318 1.392 . S
C1317 C1321 1.495 . S
C1318 C1317 1.392 . S
C1318 C1319 1.385 . S
C1318 C1320 1.478 . S
C1319 H1313 0.930 . S
C1319 C1315 1.400 . S
C1319 C1318 1.385 . S
C1320 C1318 1.478 . S
C1320 C1322 1.381 . S
C1320 C1326 1.383 . S
C1321 C1317 1.495 . S
C1321 H1327 0.959 . S
C1321 H1328 0.961 . S
C1321 H1329 0.960 . S
C1322 C1320 1.381 . S
C1322 C1323 1.394 . S
C1322 H1330 0.930 . S
C1323 C1322 1.394 . S
C1323 C1324 1.383 . S
C1323 H1331 0.929 . S
C1324 C1323 1.383 . S
C1324 C1325 1.377 . S
C1325 H1309 0.930 . S
C1325 C1324 1.377 . S
C1325 C1326 1.379 . S
C1326 H1310 0.931 . S
C1326 C1320 1.383 . S
C1326 C1325 1.379 . S
H1327 C1321 0.959 . S
H1328 C1321 0.961 . S
H1329 C1321 0.960 . S
H1330 C1322 0.930 . S
H1331 C1323 0.929 . S
H1332 C1340 0.929 . S
H1333 C1342 0.930 . S
H1334 C1344 0.930 . S
H1335 C1347 0.929 . S
H1336 C1350 0.930 . S
H1337 C1352 0.960 . S
H1338 C1352 0.960 . S
H1339 C1352 0.960 . S
C1340 H1332 0.929 . S
C1340 C1341 1.377 . S
C1340 C1342 1.384 . S
C1341 C1340 1.377 . S
C1341 C1347 1.390 . S
C1342 H1333 0.930 . S
C1342 C1340 1.384 . S
C1342 C1343 1.372 . S
C1343 C1342 1.372 . S
C1343 C1344 1.400 . S
C1343 C1348 1.490 . S
C1344 H1334 0.930 . S
C1344 C1343 1.400 . S
C1344 C1347 1.386 . S
H1345 C1361 0.930 . S
H1346 C1362 0.931 . S
C1347 H1335 0.929 . S
C1347 C1341 1.390 . S
C1347 C1344 1.386 . S
C1348 C1343 1.490 . S
C1348 C1350 1.395 . S
C1348 C1351 1.403 . S
H1349 C1355 0.930 . S
C1350 H1336 0.930 . S
C1350 C1348 1.395 . S
C1350 C1353 1.403 . S
C1351 C1348 1.403 . S
C1351 C1352 1.524 . S
C1351 C1355 1.400 . S
C1352 H1337 0.960 . S
C1352 H1338 0.960 . S
C1352 H1339 0.960 . S
C1352 C1351 1.524 . S
C1353 C1350 1.403 . S
C1353 C1354 1.392 . S
C1353 C1357 1.495 . S
C1354 C1353 1.392 . S
C1354 C1355 1.385 . S
C1354 C1356 1.478 . S
C1355 H1349 0.930 . S
C1355 C1351 1.400 . S
C1355 C1354 1.385 . S
C1356 C1354 1.478 . S
C1356 C1358 1.381 . S
C1356 C1362 1.383 . S
C1357 C1353 1.495 . S
C1357 H1363 0.959 . S
C1357 H1364 0.961 . S
C1357 H1365 0.960 . S
C1358 C1356 1.381 . S
C1358 C1359 1.394 . S
C1358 H1366 0.930 . S
C1359 C1358 1.394 . S
C1359 C1360 1.383 . S
C1359 H1367 0.929 . S
C1360 C1359 1.383 . S
C1360 C1361 1.377 . S
C1361 H1345 0.930 . S
C1361 C1360 1.377 . S
C1361 C1362 1.379 . S
C1362 H1346 0.931 . S
C1362 C1356 1.383 . S
C1362 C1361 1.379 . S
H1363 C1357 0.959 . S
H1364 C1357 0.961 . S
H1365 C1357 0.960 . S
H1366 C1358 0.930 . S
H1367 C1359 0.929 . S
H1368 C1376 0.929 . S
H1369 C1378 0.930 . S
H1370 C1380 0.916 1_554 S
H1371 C1383 0.929 . S
H1372 C1386 0.930 . S
H1373 C1388 0.960 . S
H1374 C1388 0.960 . S
H1375 C1388 0.960 . S
C1376 H1368 0.929 . S
C1376 C1377 1.377 . S
C1376 C1378 1.384 . S
C1377 C1376 1.377 . S
C1377 C1383 1.390 . S
C1378 H1369 0.930 . S
C1378 C1376 1.384 . S
C1378 C1379 1.372 1_556 S
C1379 C1378 1.372 1_554 S
C1379 C1380 1.392 1_554 S
C1379 C1384 1.490 . S
C1380 H1370 0.916 1_556 S
C1380 C1379 1.392 1_556 S
C1380 C1383 1.408 . S
H1381 C1397 0.930 . S
H1382 C1398 0.931 . S
C1383 H1371 0.929 . S
C1383 C1377 1.390 . S
C1383 C1380 1.408 . S
C1384 C1379 1.490 . S
C1384 C1386 1.395 . S
C1384 C1387 1.403 . S
H1385 C1391 0.930 . S
C1386 H1372 0.930 . S
C1386 C1384 1.395 . S
C1386 C1389 1.403 . S
C1387 C1384 1.403 . S
C1387 C1388 1.524 . S
C1387 C1391 1.400 . S
C1388 H1373 0.960 . S
C1388 H1374 0.960 . S
C1388 H1375 0.960 . S
C1388 C1387 1.524 . S
C1389 C1386 1.403 . S
C1389 C1390 1.392 . S
C1389 C1393 1.495 . S
C1390 C1389 1.392 . S
C1390 C1391 1.385 . S
C1390 C1392 1.478 . S
C1391 H1385 0.930 . S
C1391 C1387 1.400 . S
C1391 C1390 1.385 . S
C1392 C1390 1.478 . S
C1392 C1394 1.381 . S
C1392 C1398 1.383 . S
C1393 C1389 1.495 . S
C1393 H1399 0.959 . S
C1393 H1400 0.961 . S
C1393 H1401 0.960 . S
C1394 C1392 1.381 . S
C1394 C1395 1.394 . S
C1394 H1402 0.930 . S
C1395 C1394 1.394 . S
C1395 C1396 1.383 . S
C1395 H1403 0.929 . S
C1396 C1395 1.383 . S
C1396 C1397 1.377 . S
C1397 H1381 0.930 . S
C1397 C1396 1.377 . S
C1397 C1398 1.379 . S
C1398 H1382 0.931 . S
C1398 C1392 1.383 . S
C1398 C1397 1.379 . S
H1399 C1393 0.959 . S
H1400 C1393 0.961 . S
H1401 C1393 0.960 . S
H1402 C1394 0.930 . S
H1403 C1395 0.929 . S
H1404 C1412 0.929 . S
H1405 C1414 0.930 1_554 S
H1406 C1416 0.930 1_554 S
H1407 C1419 0.929 . S
H1408 C1422 0.930 . S
H1409 C1424 0.960 . S
H1410 C1424 0.960 . S
H1411 C1424 0.960 . S
C1412 H1404 0.929 . S
C1412 C1413 1.377 . S
C1412 C1414 1.384 . S
C1413 C1412 1.377 . S
C1413 C1419 1.390 . S
C1414 H1405 0.930 1_556 S
C1414 C1412 1.384 . S
C1414 C1415 1.372 1_556 S
C1415 C1414 1.372 1_554 S
C1415 C1416 1.400 1_554 S
C1415 C1420 1.490 . S
C1416 H1406 0.930 1_556 S
C1416 C1415 1.400 1_556 S
C1416 C1419 1.386 . S
H1417 C1433 0.930 . S
H1418 C1434 0.931 . S
C1419 H1407 0.929 . S
C1419 C1413 1.390 . S
C1419 C1416 1.386 . S
C1420 C1415 1.490 . S
C1420 C1422 1.395 . S
C1420 C1423 1.403 . S
H1421 C1427 0.930 . S
C1422 H1408 0.930 . S
C1422 C1420 1.395 . S
C1422 C1425 1.403 . S
C1423 C1420 1.403 . S
C1423 C1424 1.524 . S
C1423 C1427 1.400 . S
C1424 H1409 0.960 . S
C1424 H1410 0.960 . S
C1424 H1411 0.960 . S
C1424 C1423 1.524 . S
C1425 C1422 1.403 . S
C1425 C1426 1.392 . S
C1425 C1429 1.495 . S
C1426 C1425 1.392 . S
C1426 C1427 1.385 . S
C1426 C1428 1.478 . S
C1427 H1421 0.930 . S
C1427 C1423 1.400 . S
C1427 C1426 1.385 . S
C1428 C1426 1.478 . S
C1428 C1430 1.381 . S
C1428 C1434 1.383 . S
C1429 C1425 1.495 . S
C1429 H1435 0.959 . S
C1429 H1436 0.961 . S
C1429 H1437 0.960 . S
C1430 C1428 1.381 . S
C1430 C1431 1.394 . S
C1430 H1438 0.930 . S
C1431 C1430 1.394 . S
C1431 C1432 1.383 . S
C1431 H1439 0.929 . S
C1432 C1431 1.383 . S
C1432 C1433 1.377 . S
C1433 H1417 0.930 . S
C1433 C1432 1.377 . S
C1433 C1434 1.379 . S
C1434 H1418 0.931 . S
C1434 C1428 1.383 . S
C1434 C1433 1.379 . S
H1435 C1429 0.959 . S
H1436 C1429 0.961 . S
H1437 C1429 0.960 . S
H1438 C1430 0.930 . S
H1439 C1431 0.929 . S
H1440 C1448 0.929 . S
H1441 C1450 0.930 1_554 S
H1442 C1452 0.930 . S
H1443 C1455 0.929 . S
H1444 C1458 0.930 . S
H1445 C1460 0.960 . S
H1446 C1460 0.960 . S
H1447 C1460 0.960 . S
C1448 H1440 0.929 . S
C1448 C1449 1.377 . S
C1448 C1450 1.384 . S
C1449 C1448 1.377 . S
C1449 C1455 1.390 . S
C1450 H1441 0.930 1_556 S
C1450 C1448 1.384 . S
C1450 C1451 1.372 1_556 S
C1451 C1450 1.372 1_554 S
C1451 C1452 1.400 1_554 S
C1451 C1456 1.490 . S
C1452 H1442 0.930 . S
C1452 C1451 1.400 1_556 S
C1452 C1455 1.386 . S
H1453 C1469 0.930 . S
H1454 C1470 0.931 . S
C1455 H1443 0.929 . S
C1455 C1449 1.390 . S
C1455 C1452 1.386 . S
C1456 C1451 1.490 . S
C1456 C1458 1.395 . S
C1456 C1459 1.403 . S
H1457 C1463 0.930 . S
C1458 H1444 0.930 . S
C1458 C1456 1.395 . S
C1458 C1461 1.403 . S
C1459 C1456 1.403 . S
C1459 C1460 1.524 . S
C1459 C1463 1.400 . S
C1460 H1445 0.960 . S
C1460 H1446 0.960 . S
C1460 H1447 0.960 . S
C1460 C1459 1.524 . S
C1461 C1458 1.403 . S
C1461 C1462 1.392 . S
C1461 C1465 1.495 . S
C1462 C1461 1.392 . S
C1462 C1463 1.385 . S
C1462 C1464 1.478 . S
C1463 H1457 0.930 . S
C1463 C1459 1.400 . S
C1463 C1462 1.385 . S
C1464 C1462 1.478 . S
C1464 C1466 1.381 . S
C1464 C1470 1.383 . S
C1465 C1461 1.495 . S
C1465 H1471 0.959 . S
C1465 H1472 0.961 . S
C1465 H1473 0.960 . S
C1466 C1464 1.381 . S
C1466 C1467 1.394 . S
C1466 H1474 0.930 . S
C1467 C1466 1.394 . S
C1467 C1468 1.383 . S
C1467 H1475 0.929 . S
C1468 C1467 1.383 . S
C1468 C1469 1.377 . S
C1469 H1453 0.930 . S
C1469 C1468 1.377 . S
C1469 C1470 1.379 . S
C1470 H1454 0.931 . S
C1470 C1464 1.383 . S
C1470 C1469 1.379 . S
H1471 C1465 0.959 . S
H1472 C1465 0.961 . S
H1473 C1465 0.960 . S
H1474 C1466 0.930 . S
H1475 C1467 0.929 . S
H1476 C1484 0.929 . S
H1477 C1486 0.930 . S
H1478 C1488 0.930 . S
H1479 C1491 0.929 . S
H1480 C1494 0.930 . S
H1481 C1496 0.960 . S
H1482 C1496 0.960 . S
H1483 C1496 0.960 . S
C1484 H1476 0.929 . S
C1484 C1485 1.377 . S
C1484 C1486 1.384 . S
C1485 C1484 1.377 . S
C1485 C1491 1.390 . S
C1486 H1477 0.930 . S
C1486 C1484 1.384 . S
C1486 C1487 1.372 . S
C1487 C1486 1.372 . S
C1487 C1488 1.400 . S
C1487 C1492 1.490 . S
C1488 H1478 0.930 . S
C1488 C1487 1.400 . S
C1488 C1491 1.386 . S
H1489 C1505 0.930 . S
H1490 C1506 0.931 1_556 S
C1491 H1479 0.929 . S
C1491 C1485 1.390 . S
C1491 C1488 1.386 . S
C1492 C1487 1.490 . S
C1492 C1494 1.395 . S
C1492 C1495 1.403 . S
H1493 C1499 0.930 . S
C1494 H1480 0.930 . S
C1494 C1492 1.395 . S
C1494 C1497 1.403 . S
C1495 C1492 1.403 . S
C1495 C1496 1.524 . S
C1495 C1499 1.400 . S
C1496 H1481 0.960 . S
C1496 H1482 0.960 . S
C1496 H1483 0.960 . S
C1496 C1495 1.524 . S
C1497 C1494 1.403 . S
C1497 C1498 1.392 . S
C1497 C1501 1.495 . S
C1498 C1497 1.392 . S
C1498 C1499 1.385 . S
C1498 C1500 1.478 . S
C1499 H1493 0.930 . S
C1499 C1495 1.400 . S
C1499 C1498 1.385 . S
C1500 C1498 1.478 . S
C1500 C1502 1.381 1_556 S
C1500 C1506 1.383 1_556 S
C1501 C1497 1.495 . S
C1501 H1507 0.959 . S
C1501 H1508 0.961 . S
C1501 H1509 0.960 . S
C1502 C1500 1.381 1_554 S
C1502 C1503 1.394 . S
C1502 H1510 0.930 . S
C1503 C1502 1.394 . S
C1503 C1504 1.383 . S
C1503 H1511 0.929 . S
C1504 C1503 1.383 . S
C1504 C1505 1.377 . S
C1505 H1489 0.930 . S
C1505 C1504 1.377 . S
C1505 C1506 1.379 . S
C1506 H1490 0.931 1_554 S
C1506 C1500 1.383 1_554 S
C1506 C1505 1.379 . S
H1507 C1501 0.959 . S
H1508 C1501 0.961 . S
H1509 C1501 0.960 . S
H1510 C1502 0.930 . S
H1511 C1503 0.929 . S
H1512 C1520 0.929 . S
H1513 C1522 0.930 . S
H1514 C1524 0.930 . S
H1515 C1527 0.929 . S
H1516 C1530 0.930 . S
H1517 C1532 0.960 . S
H1518 C1532 0.960 . S
H1519 C1532 0.960 . S
C1520 H1512 0.929 . S
C1520 C1521 1.377 . S
C1520 C1522 1.384 . S
C1521 C1520 1.377 . S
C1521 C1527 1.390 . S
C1522 H1513 0.930 . S
C1522 C1520 1.384 . S
C1522 C1523 1.372 . S
C1523 C1522 1.372 . S
C1523 C1524 1.400 . S
C1523 C1528 1.490 . S
C1524 H1514 0.930 . S
C1524 C1523 1.400 . S
C1524 C1527 1.386 . S
H1525 C1541 0.930 . S
H1526 C1542 0.931 1_556 S
C1527 H1515 0.929 . S
C1527 C1521 1.390 . S
C1527 C1524 1.386 . S
C1528 C1523 1.490 . S
C1528 C1530 1.395 . S
C1528 C1531 1.403 . S
H1529 C1535 0.930 . S
C1530 H1516 0.930 . S
C1530 C1528 1.395 . S
C1530 C1533 1.403 . S
C1531 C1528 1.403 . S
C1531 C1532 1.524 . S
C1531 C1535 1.400 . S
C1532 H1517 0.960 . S
C1532 H1518 0.960 . S
C1532 H1519 0.960 . S
C1532 C1531 1.524 . S
C1533 C1530 1.403 . S
C1533 C1534 1.392 . S
C1533 C1537 1.495 . S
C1534 C1533 1.392 . S
C1534 C1535 1.385 . S
C1534 C1536 1.478 . S
C1535 H1529 0.930 . S
C1535 C1531 1.400 . S
C1535 C1534 1.385 . S
C1536 C1534 1.478 . S
C1536 C1538 1.381 1_556 S
C1536 C1542 1.383 1_556 S
C1537 C1533 1.495 . S
C1537 H1543 0.959 . S
C1537 H1544 0.961 . S
C1537 H1545 0.960 . S
C1538 C1536 1.381 1_554 S
C1538 C1539 1.394 . S
C1538 H1546 0.930 . S
C1539 C1538 1.394 . S
C1539 C1540 1.383 . S
C1539 H1547 0.929 . S
C1540 C1539 1.383 . S
C1540 C1541 1.377 . S
C1541 H1525 0.930 . S
C1541 C1540 1.377 . S
C1541 C1542 1.379 . S
C1542 H1526 0.931 1_554 S
C1542 C1536 1.383 1_554 S
C1542 C1541 1.379 . S
H1543 C1537 0.959 . S
H1544 C1537 0.961 . S
H1545 C1537 0.960 . S
H1546 C1538 0.930 . S
H1547 C1539 0.929 . S
H1548 C1556 0.929 . S
H1549 C1558 0.930 . S
H1550 C1560 0.930 . S
H1551 C1563 0.929 . S
H1552 C1566 0.930 . S
H1553 C1568 0.960 . S
H1554 C1568 0.960 . S
H1555 C1568 0.960 . S
C1556 H1548 0.929 . S
C1556 C1557 1.377 . S
C1556 C1558 1.384 . S
C1557 C1556 1.377 . S
C1557 C1563 1.390 . S
C1558 H1549 0.930 . S
C1558 C1556 1.384 . S
C1558 C1559 1.372 . S
C1559 C1558 1.372 . S
C1559 C1560 1.400 . S
C1559 C1564 1.490 . S
C1560 H1550 0.930 . S
C1560 C1559 1.400 . S
C1560 C1563 1.386 . S
H1561 C1577 0.930 . S
H1562 C1578 0.931 . S
C1563 H1551 0.929 . S
C1563 C1557 1.390 . S
C1563 C1560 1.386 . S
C1564 C1559 1.490 . S
C1564 C1566 1.395 . S
C1564 C1567 1.403 . S
H1565 C1571 0.930 . S
C1566 H1552 0.930 . S
C1566 C1564 1.395 . S
C1566 C1569 1.403 . S
C1567 C1564 1.403 . S
C1567 C1568 1.524 . S
C1567 C1571 1.400 . S
C1568 H1553 0.960 . S
C1568 H1554 0.960 . S
C1568 H1555 0.960 . S
C1568 C1567 1.524 . S
C1569 C1566 1.403 . S
C1569 C1570 1.392 . S
C1569 C1573 1.495 . S
C1570 C1569 1.392 . S
C1570 C1571 1.385 . S
C1570 C1572 1.478 . S
C1571 H1565 0.930 . S
C1571 C1567 1.400 . S
C1571 C1570 1.385 . S
C1572 C1570 1.478 . S
C1572 C1574 1.381 1_556 S
C1572 C1578 1.383 1_556 S
C1573 C1569 1.495 . S
C1573 H1579 0.959 . S
C1573 H1580 0.961 . S
C1573 H1581 0.960 . S
C1574 C1572 1.381 1_554 S
C1574 C1575 1.394 . S
C1574 H1582 0.930 . S
C1575 C1574 1.394 . S
C1575 C1576 1.383 . S
C1575 H1583 0.929 . S
C1576 C1575 1.383 . S
C1576 C1577 1.377 . S
C1577 H1561 0.930 . S
C1577 C1576 1.377 . S
C1577 C1578 1.379 . S
C1578 H1562 0.931 . S
C1578 C1572 1.383 1_554 S
C1578 C1577 1.379 . S
H1579 C1573 0.959 . S
H1580 C1573 0.961 . S
H1581 C1573 0.960 . S
H1582 C1574 0.930 . S
H1583 C1575 0.929 . S
H1584 C1592 0.929 . S
H1585 C1594 0.930 . S
H1586 C1596 0.930 . S
H1587 C1599 0.929 . S
H1588 C1602 0.930 . S
H1589 C1604 0.960 . S
H1590 C1604 0.960 . S
H1591 C1604 0.960 . S
C1592 H1584 0.929 . S
C1592 C1593 1.377 . S
C1592 C1594 1.384 . S
C1593 C1592 1.377 . S
C1593 C1599 1.390 . S
C1594 H1585 0.930 . S
C1594 C1592 1.384 . S
C1594 C1595 1.372 . S
C1595 C1594 1.372 . S
C1595 C1596 1.400 . S
C1595 C1600 1.490 . S
C1596 H1586 0.930 . S
C1596 C1595 1.400 . S
C1596 C1599 1.386 . S
H1597 C1613 0.930 . S
H1598 C1614 0.931 . S
C1599 H1587 0.929 . S
C1599 C1593 1.390 . S
C1599 C1596 1.386 . S
C1600 C1595 1.490 . S
C1600 C1602 1.395 . S
C1600 C1603 1.403 . S
H1601 C1607 0.930 . S
C1602 H1588 0.930 . S
C1602 C1600 1.395 . S
C1602 C1605 1.403 . S
C1603 C1600 1.403 . S
C1603 C1604 1.524 . S
C1603 C1607 1.400 . S
C1604 H1589 0.960 . S
C1604 H1590 0.960 . S
C1604 H1591 0.960 . S
C1604 C1603 1.524 . S
C1605 C1602 1.403 . S
C1605 C1606 1.392 . S
C1605 C1609 1.495 . S
C1606 C1605 1.392 . S
C1606 C1607 1.385 . S
C1606 C1608 1.478 . S
C1607 H1601 0.930 . S
C1607 C1603 1.400 . S
C1607 C1606 1.385 . S
C1608 C1606 1.478 . S
C1608 C1610 1.381 . S
C1608 C1614 1.383 . S
C1609 C1605 1.495 . S
C1609 H1615 0.959 . S
C1609 H1616 0.961 . S
C1609 H1617 0.960 . S
C1610 C1608 1.381 . S
C1610 C1611 1.394 . S
C1610 H1618 0.930 . S
C1611 C1610 1.394 . S
C1611 C1612 1.383 . S
C1611 H1619 0.929 . S
C1612 C1611 1.383 . S
C1612 C1613 1.377 . S
C1613 H1597 0.930 . S
C1613 C1612 1.377 . S
C1613 C1614 1.379 . S
C1614 H1598 0.931 . S
C1614 C1608 1.383 . S
C1614 C1613 1.379 . S
H1615 C1609 0.959 . S
H1616 C1609 0.961 . S
H1617 C1609 0.960 . S
H1618 C1610 0.930 . S
H1619 C1611 0.929 . S
H1620 C1628 0.929 . S
H1621 C1630 0.930 . S
H1622 C1632 0.930 . S
H1623 C1635 0.929 . S
H1624 C1638 0.930 . S
H1625 C1640 0.960 . S
H1626 C1640 0.960 . S
H1627 C1640 0.960 . S
C1628 H1620 0.929 . S
C1628 C1629 1.377 . S
C1628 C1630 1.384 . S
C1629 C1628 1.377 . S
C1629 C1635 1.390 . S
C1630 H1621 0.930 . S
C1630 C1628 1.384 . S
C1630 C1631 1.372 . S
C1631 C1630 1.372 . S
C1631 C1632 1.400 . S
C1631 C1636 1.490 . S
C1632 H1622 0.930 . S
C1632 C1631 1.400 . S
C1632 C1635 1.386 . S
H1633 C1649 0.930 . S
H1634 C1650 0.931 . S
C1635 H1623 0.929 . S
C1635 C1629 1.390 . S
C1635 C1632 1.386 . S
C1636 C1631 1.490 . S
C1636 C1638 1.395 . S
C1636 C1639 1.403 . S
H1637 C1643 0.930 . S
C1638 H1624 0.930 . S
C1638 C1636 1.395 . S
C1638 C1641 1.403 . S
C1639 C1636 1.403 . S
C1639 C1640 1.524 . S
C1639 C1643 1.400 . S
C1640 H1625 0.960 . S
C1640 H1626 0.960 . S
C1640 H1627 0.960 . S
C1640 C1639 1.524 . S
C1641 C1638 1.403 . S
C1641 C1642 1.392 . S
C1641 C1645 1.495 . S
C1642 C1641 1.392 . S
C1642 C1643 1.385 . S
C1642 C1644 1.478 . S
C1643 H1637 0.930 . S
C1643 C1639 1.400 . S
C1643 C1642 1.385 . S
C1644 C1642 1.478 . S
C1644 C1646 1.381 . S
C1644 C1650 1.383 . S
C1645 C1641 1.495 . S
C1645 H1651 0.959 . S
C1645 H1652 0.961 . S
C1645 H1653 0.960 . S
C1646 C1644 1.381 . S
C1646 C1647 1.394 . S
C1646 H1654 0.930 . S
C1647 C1646 1.394 . S
C1647 C1648 1.383 . S
C1647 H1655 0.929 . S
C1648 C1647 1.383 . S
C1648 C1649 1.377 . S
C1649 H1633 0.930 . S
C1649 C1648 1.377 . S
C1649 C1650 1.379 . S
C1650 H1634 0.931 . S
C1650 C1644 1.383 . S
C1650 C1649 1.379 . S
H1651 C1645 0.959 . S
H1652 C1645 0.961 . S
H1653 C1645 0.960 . S
H1654 C1646 0.930 . S
H1655 C1647 0.929 . S
H1656 C1664 0.929 . S
H1657 C1666 0.930 . S
H1658 C1668 0.930 . S
H1659 C1671 0.929 . S
H1660 C1674 0.930 . S
H1661 C1676 0.960 . S
H1662 C1676 0.960 . S
H1663 C1676 0.960 . S
C1664 H1656 0.929 . S
C1664 C1665 1.377 . S
C1664 C1666 1.384 . S
C1665 C1664 1.377 . S
C1665 C1671 1.390 . S
C1666 H1657 0.930 . S
C1666 C1664 1.384 . S
C1666 C1667 1.372 . S
C1667 C1666 1.372 . S
C1667 C1668 1.400 . S
C1667 C1672 1.490 . S
C1668 H1658 0.930 . S
C1668 C1667 1.400 . S
C1668 C1671 1.386 . S
H1669 C1685 0.930 . S
H1670 C1686 0.931 . S
C1671 H1659 0.929 . S
C1671 C1665 1.390 . S
C1671 C1668 1.386 . S
C1672 C1667 1.490 . S
C1672 C1674 1.395 . S
C1672 C1675 1.403 . S
H1673 C1679 0.930 . S
C1674 H1660 0.930 . S
C1674 C1672 1.395 . S
C1674 C1677 1.403 . S
C1675 C1672 1.403 . S
C1675 C1676 1.524 . S
C1675 C1679 1.400 . S
C1676 H1661 0.960 . S
C1676 H1662 0.960 . S
C1676 H1663 0.960 . S
C1676 C1675 1.524 . S
C1677 C1674 1.403 . S
C1677 C1678 1.392 . S
C1677 C1681 1.495 . S
C1678 C1677 1.392 . S
C1678 C1679 1.385 . S
C1678 C1680 1.478 . S
C1679 H1673 0.930 . S
C1679 C1675 1.400 . S
C1679 C1678 1.385 . S
C1680 C1678 1.478 . S
C1680 C1682 1.381 . S
C1680 C1686 1.383 . S
C1681 C1677 1.495 . S
C1681 H1687 0.959 . S
C1681 H1688 0.961 . S
C1681 H1689 0.960 . S
C1682 C1680 1.381 . S
C1682 C1683 1.394 . S
C1682 H1690 0.930 . S
C1683 C1682 1.394 . S
C1683 C1684 1.383 . S
C1683 H1691 0.929 . S
C1684 C1683 1.383 . S
C1684 C1685 1.377 . S
C1685 H1669 0.930 . S
C1685 C1684 1.377 . S
C1685 C1686 1.379 . S
C1686 H1670 0.931 . S
C1686 C1680 1.383 . S
C1686 C1685 1.379 . S
H1687 C1681 0.959 . S
H1688 C1681 0.961 . S
H1689 C1681 0.960 . S
H1690 C1682 0.930 . S
H1691 C1683 0.929 . S
H1692 C1700 0.929 . S
H1693 C1702 0.930 . S
H1694 C1704 0.930 . S
H1695 C1707 0.929 . S
H1696 C1710 0.930 . S
H1697 C1712 0.960 . S
H1698 C1712 0.960 . S
H1699 C1712 0.960 . S
C1700 H1692 0.929 . S
C1700 C1701 1.377 . S
C1700 C1702 1.384 . S
C1701 C1700 1.377 . S
C1701 C1707 1.390 . S
C1702 H1693 0.930 . S
C1702 C1700 1.384 . S
C1702 C1703 1.372 . S
C1703 C1702 1.372 . S
C1703 C1704 1.400 . S
C1703 C1708 1.490 . S
C1704 H1694 0.930 . S
C1704 C1703 1.400 . S
C1704 C1707 1.386 . S
H1705 C1721 0.930 1_554 S
H1706 C1722 0.931 1_565 S
C1707 H1695 0.929 . S
C1707 C1701 1.390 . S
C1707 C1704 1.386 . S
C1708 C1703 1.490 . S
C1708 C1710 1.395 . S
C1708 C1711 1.403 . S
H1709 C1715 0.930 . S
C1710 H1696 0.930 . S
C1710 C1708 1.395 . S
C1710 C1713 1.403 . S
C1711 C1708 1.403 . S
C1711 C1712 1.524 . S
C1711 C1715 1.400 . S
C1712 H1697 0.960 . S
C1712 H1698 0.960 . S
C1712 H1699 0.960 . S
C1712 C1711 1.524 . S
C1713 C1710 1.403 . S
C1713 C1714 1.392 . S
C1713 C1717 1.495 1_565 S
C1714 C1713 1.392 . S
C1714 C1715 1.385 . S
C1714 C1716 1.478 1_565 S
C1715 H1709 0.930 . S
C1715 C1711 1.400 . S
C1715 C1714 1.385 . S
C1716 C1714 1.478 1_545 S
C1716 C1718 1.381 . S
C1716 C1722 1.383 . S
C1717 C1713 1.495 1_545 S
C1717 H1723 0.959 . S
C1717 H1724 0.961 . S
C1717 H1725 0.960 . S
C1718 C1716 1.381 . S
C1718 C1719 1.394 . S
C1718 H1726 0.930 . S
C1719 C1718 1.394 . S
C1719 C1720 1.383 . S
C1719 H1727 0.929 . S
C1720 C1719 1.383 . S
C1720 C1721 1.377 . S
C1721 H1705 0.930 1_556 S
C1721 C1720 1.377 . S
C1721 C1722 1.379 . S
C1722 H1706 0.931 1_545 S
C1722 C1716 1.383 . S
C1722 C1721 1.379 . S
H1723 C1717 0.959 . S
H1724 C1717 0.961 . S
H1725 C1717 0.960 . S
H1726 C1718 0.930 . S
H1727 C1719 0.929 . S
H1728 C1736 0.929 . S
H1729 C1738 0.930 . S
H1730 C1740 0.930 1_455 S
H1731 C1743 0.929 . S
H1732 C1746 0.930 1_655 S
H1733 C1748 0.960 . S
H1734 C1748 0.960 1_554 S
H1735 C1748 0.960 . S
C1736 H1728 0.929 . S
C1736 C1737 1.377 . S
C1736 C1738 1.384 . S
C1737 C1736 1.377 . S
C1737 C1743 1.390 . S
C1738 H1729 0.930 . S
C1738 C1736 1.384 . S
C1738 C1739 1.372 . S
C1739 C1738 1.372 . S
C1739 C1740 1.400 . S
C1739 C1744 1.490 1_655 S
C1740 H1730 0.930 1_655 S
C1740 C1739 1.400 . S
C1740 C1743 1.386 . S
H1741 C1757 0.930 . S
H1742 C1758 0.931 . S
C1743 H1731 0.929 . S
C1743 C1737 1.390 . S
C1743 C1740 1.386 . S
C1744 C1739 1.490 1_455 S
C1744 C1746 1.395 . S
C1744 C1747 1.403 . S
H1745 C1751 0.930 . S
C1746 H1732 0.930 1_455 S
C1746 C1744 1.395 . S
C1746 C1749 1.403 . S
C1747 C1744 1.403 . S
C1747 C1748 1.524 . S
C1747 C1751 1.400 . S
C1748 H1733 0.960 . S
C1748 H1734 0.960 1_556 S
C1748 H1735 0.960 . S
C1748 C1747 1.524 . S
C1749 C1746 1.403 . S
C1749 C1750 1.392 . S
C1749 C1753 1.495 . S
C1750 C1749 1.392 . S
C1750 C1751 1.385 . S
C1750 C1752 1.478 . S
C1751 H1745 0.930 . S
C1751 C1747 1.400 . S
C1751 C1750 1.385 . S
C1752 C1750 1.478 . S
C1752 C1754 1.381 . S
C1752 C1758 1.383 . S
C1753 C1749 1.495 . S
C1753 H1759 0.959 . S
C1753 H1760 0.961 . S
C1753 H1761 0.960 . S
C1754 C1752 1.381 . S
C1754 C1755 1.394 . S
C1754 H1762 0.930 . S
C1755 C1754 1.394 . S
C1755 C1756 1.383 . S
C1755 H1763 0.929 . S
C1756 C1755 1.383 . S
C1756 C1757 1.377 . S
C1757 H1741 0.930 . S
C1757 C1756 1.377 . S
C1757 C1758 1.379 . S
C1758 H1742 0.931 . S
C1758 C1752 1.383 . S
C1758 C1757 1.379 . S
H1759 C1753 0.959 . S
H1760 C1753 0.961 . S
H1761 C1753 0.960 . S
H1762 C1754 0.930 . S
H1763 C1755 0.929 . S
H1764 C1772 0.929 . S
H1765 C1774 0.930 . S
H1766 C1776 0.930 . S
H1767 C1779 0.929 . S
H1768 C1782 0.930 . S
H1769 C1784 0.960 . S
H1770 C1784 0.960 . S
H1771 C1784 0.960 . S
C1772 H1764 0.929 . S
C1772 C1773 1.377 . S
C1772 C1774 1.384 . S
C1773 C1772 1.377 . S
C1773 C1779 1.390 . S
C1774 H1765 0.930 . S
C1774 C1772 1.384 . S
C1774 C1775 1.372 . S
C1775 C1774 1.372 . S
C1775 C1776 1.400 . S
C1775 C1780 1.490 . S
C1776 H1766 0.930 . S
C1776 C1775 1.400 . S
C1776 C1779 1.386 . S
H1777 C1793 0.930 1_554 S
H1778 C1794 0.931 . S
C1779 H1767 0.929 . S
C1779 C1773 1.390 . S
C1779 C1776 1.386 . S
C1780 C1775 1.490 . S
C1780 C1782 1.395 . S
C1780 C1783 1.403 . S
H1781 C1787 0.930 . S
C1782 H1768 0.930 . S
C1782 C1780 1.395 . S
C1782 C1785 1.403 . S
C1783 C1780 1.403 . S
C1783 C1784 1.524 . S
C1783 C1787 1.400 . S
C1784 H1769 0.960 . S
C1784 H1770 0.960 . S
C1784 H1771 0.960 . S
C1784 C1783 1.524 . S
C1785 C1782 1.403 . S
C1785 C1786 1.392 . S
C1785 C1789 1.495 . S
C1786 C1785 1.392 . S
C1786 C1787 1.385 . S
C1786 C1788 1.478 . S
C1787 H1781 0.930 . S
C1787 C1783 1.400 . S
C1787 C1786 1.385 . S
C1788 C1786 1.478 . S
C1788 C1790 1.381 . S
C1788 C1794 1.383 . S
C1789 C1785 1.495 . S
C1789 H1795 0.959 . S
C1789 H1796 0.961 . S
C1789 H1797 0.960 . S
C1790 C1788 1.381 . S
C1790 C1791 1.394 . S
C1790 H1798 0.930 . S
C1791 C1790 1.394 . S
C1791 C1792 1.383 . S
C1791 H1799 0.929 . S
C1792 C1791 1.383 . S
C1792 C1793 1.377 . S
C1793 H1777 0.930 1_556 S
C1793 C1792 1.377 . S
C1793 C1794 1.379 . S
C1794 H1778 0.931 . S
C1794 C1788 1.383 . S
C1794 C1793 1.379 . S
H1795 C1789 0.959 . S
H1796 C1789 0.961 . S
H1797 C1789 0.960 . S
H1798 C1790 0.930 . S
H1799 C1791 0.929 . S
H1800 C1808 0.929 . S
H1801 C1810 0.930 . S
H1802 C1812 0.930 . S
H1803 C1815 0.929 . S
H1804 C1818 0.930 . S
H1805 C1820 0.960 . S
H1806 C1820 0.960 . S
H1807 C1820 0.960 . S
C1808 H1800 0.929 . S
C1808 C1809 1.377 . S
C1808 C1810 1.384 . S
C1809 C1808 1.377 . S
C1809 C1815 1.390 . S
C1810 H1801 0.930 . S
C1810 C1808 1.384 . S
C1810 C1811 1.372 . S
C1811 C1810 1.372 . S
C1811 C1812 1.400 . S
C1811 C1816 1.490 1_655 S
C1812 H1802 0.930 . S
C1812 C1811 1.400 . S
C1812 C1815 1.386 . S
H1813 C1829 0.930 . S
H1814 C1830 0.931 . S
C1815 H1803 0.929 . S
C1815 C1809 1.390 . S
C1815 C1812 1.386 . S
C1816 C1811 1.490 1_455 S
C1816 C1818 1.395 . S
C1816 C1819 1.403 . S
H1817 C1823 0.930 . S
C1818 H1804 0.930 . S
C1818 C1816 1.395 . S
C1818 C1821 1.403 . S
C1819 C1816 1.403 . S
C1819 C1820 1.524 1_455 S
C1819 C1823 1.400 . S
C1820 H1805 0.960 . S
C1820 H1806 0.960 . S
C1820 H1807 0.960 . S
C1820 C1819 1.524 1_655 S
C1821 C1818 1.403 . S
C1821 C1822 1.392 . S
C1821 C1825 1.495 . S
C1822 C1821 1.392 . S
C1822 C1823 1.385 . S
C1822 C1824 1.478 . S
C1823 H1817 0.930 . S
C1823 C1819 1.400 . S
C1823 C1822 1.385 . S
C1824 C1822 1.478 . S
C1824 C1826 1.381 . S
C1824 C1830 1.383 . S
C1825 C1821 1.495 . S
C1825 H1831 0.959 . S
C1825 H1832 0.961 . S
C1825 H1833 0.960 . S
C1826 C1824 1.381 . S
C1826 C1827 1.394 . S
C1826 H1834 0.930 . S
C1827 C1826 1.394 . S
C1827 C1828 1.383 . S
C1827 H1835 0.929 . S
C1828 C1827 1.383 . S
C1828 C1829 1.377 . S
C1829 H1813 0.930 . S
C1829 C1828 1.377 . S
C1829 C1830 1.379 . S
C1830 H1814 0.931 . S
C1830 C1824 1.383 . S
C1830 C1829 1.379 . S
H1831 C1825 0.959 . S
H1832 C1825 0.961 . S
H1833 C1825 0.960 . S
H1834 C1826 0.930 . S
H1835 C1827 0.929 . S
H1836 C1844 0.929 . S
H1837 C1846 0.930 . S
H1838 C1848 0.930 . S
H1839 C1851 0.929 . S
H1840 C1854 0.930 . S
H1841 C1856 0.960 . S
H1842 C1856 0.960 . S
H1843 C1856 0.960 . S
C1844 H1836 0.929 . S
C1844 C1845 1.377 . S
C1844 C1846 1.384 . S
C1845 C1844 1.377 . S
C1845 C1851 1.390 . S
C1846 H1837 0.930 . S
C1846 C1844 1.384 . S
C1846 C1847 1.372 . S
C1847 C1846 1.372 . S
C1847 C1848 1.400 . S
C1847 C1852 1.490 . S
C1848 H1838 0.930 . S
C1848 C1847 1.400 . S
C1848 C1851 1.386 . S
H1849 C1865 0.930 . S
H1850 C1866 0.931 . S
C1851 H1839 0.929 . S
C1851 C1845 1.390 . S
C1851 C1848 1.386 . S
C1852 C1847 1.490 . S
C1852 C1854 1.395 . S
C1852 C1855 1.403 . S
H1853 C1859 0.930 . S
C1854 H1840 0.930 . S
C1854 C1852 1.395 . S
C1854 C1857 1.403 . S
C1855 C1852 1.403 . S
C1855 C1856 1.524 . S
C1855 C1859 1.400 . S
C1856 H1841 0.960 . S
C1856 H1842 0.960 . S
C1856 H1843 0.960 . S
C1856 C1855 1.524 . S
C1857 C1854 1.403 . S
C1857 C1858 1.392 . S
C1857 C1861 1.495 . S
C1858 C1857 1.392 . S
C1858 C1859 1.385 . S
C1858 C1860 1.478 . S
C1859 H1853 0.930 . S
C1859 C1855 1.400 . S
C1859 C1858 1.385 . S
C1860 C1858 1.478 . S
C1860 C1862 1.381 . S
C1860 C1866 1.383 . S
C1861 C1857 1.495 . S
C1861 H1867 0.959 . S
C1861 H1868 0.961 . S
C1861 H1869 0.960 . S
C1862 C1860 1.381 . S
C1862 C1863 1.394 . S
C1862 H1870 0.930 . S
C1863 C1862 1.394 . S
C1863 C1864 1.383 . S
C1863 H1871 0.929 . S
C1864 C1863 1.383 . S
C1864 C1865 1.377 . S
C1865 H1849 0.930 . S
C1865 C1864 1.377 . S
C1865 C1866 1.379 . S
C1866 H1850 0.931 . S
C1866 C1860 1.383 . S
C1866 C1865 1.379 . S
H1867 C1861 0.959 . S
H1868 C1861 0.961 . S
H1869 C1861 0.960 . S
H1870 C1862 0.930 . S
H1871 C1863 0.929 . S
H1872 C1880 0.929 . S
H1873 C1882 0.930 . S
H1874 C1884 0.930 . S
H1875 C1887 0.929 . S
H1876 C1890 0.930 . S
H1877 C1892 0.960 . S
H1878 C1892 0.960 . S
H1879 C1892 0.960 . S
C1880 H1872 0.929 . S
C1880 C1881 1.377 . S
C1880 C1882 1.384 . S
C1881 C1880 1.377 . S
C1881 C1887 1.390 . S
C1882 H1873 0.930 . S
C1882 C1880 1.384 . S
C1882 C1883 1.372 . S
C1883 C1882 1.372 . S
C1883 C1884 1.400 . S
C1883 C1888 1.490 . S
C1884 H1874 0.930 . S
C1884 C1883 1.400 . S
C1884 C1887 1.386 . S
H1885 C1901 0.930 . S
H1886 C1902 0.931 . S
C1887 H1875 0.929 . S
C1887 C1881 1.390 . S
C1887 C1884 1.386 . S
C1888 C1883 1.490 . S
C1888 C1890 1.395 . S
C1888 C1891 1.403 . S
H1889 C1895 0.930 . S
C1890 H1876 0.930 . S
C1890 C1888 1.395 . S
C1890 C1893 1.403 . S
C1891 C1888 1.403 . S
C1891 C1892 1.524 . S
C1891 C1895 1.400 . S
C1892 H1877 0.960 . S
C1892 H1878 0.960 . S
C1892 H1879 0.960 . S
C1892 C1891 1.524 . S
C1893 C1890 1.403 . S
C1893 C1894 1.392 . S
C1893 C1897 1.495 1_565 S
C1894 C1893 1.392 . S
C1894 C1895 1.385 . S
C1894 C1896 1.478 1_565 S
C1895 H1889 0.930 . S
C1895 C1891 1.400 . S
C1895 C1894 1.385 . S
C1896 C1894 1.478 1_545 S
C1896 C1898 1.381 . S
C1896 C1902 1.383 . S
C1897 C1893 1.495 1_545 S
C1897 H1903 0.959 . S
C1897 H1904 0.961 . S
C1897 H1905 0.960 . S
C1898 C1896 1.381 . S
C1898 C1899 1.394 . S
C1898 H1906 0.930 . S
C1899 C1898 1.394 . S
C1899 C1900 1.383 . S
C1899 H1907 0.929 . S
C1900 C1899 1.383 . S
C1900 C1901 1.377 . S
C1901 H1885 0.930 . S
C1901 C1900 1.377 . S
C1901 C1902 1.379 . S
C1902 H1886 0.931 . S
C1902 C1896 1.383 . S
C1902 C1901 1.379 . S
H1903 C1897 0.959 . S
H1904 C1897 0.961 . S
H1905 C1897 0.960 . S
H1906 C1898 0.930 . S
H1907 C1899 0.929 . S
H1908 C1916 0.929 . S
H1909 C1918 0.930 . S
H1910 C1920 0.930 . S
H1911 C1923 0.929 . S
H1912 C1926 0.930 . S
H1913 C1928 0.960 . S
H1914 C1928 0.960 . S
H1915 C1928 0.960 . S
C1916 H1908 0.929 . S
C1916 C1917 1.377 . S
C1916 C1918 1.384 . S
C1917 C1916 1.377 . S
C1917 C1923 1.390 . S
C1918 H1909 0.930 . S
C1918 C1916 1.384 . S
C1918 C1919 1.372 . S
C1919 C1918 1.372 . S
C1919 C1920 1.400 . S
C1919 C1924 1.490 . S
C1920 H1910 0.930 . S
C1920 C1919 1.400 . S
C1920 C1923 1.386 . S
H1921 C1937 0.930 . S
H1922 C1938 0.931 . S
C1923 H1911 0.929 . S
C1923 C1917 1.390 . S
C1923 C1920 1.386 . S
C1924 C1919 1.490 . S
C1924 C1926 1.395 . S
C1924 C1927 1.403 . S
H1925 C1931 0.930 . S
C1926 H1912 0.930 . S
C1926 C1924 1.395 . S
C1926 C1929 1.403 . S
C1927 C1924 1.403 . S
C1927 C1928 1.524 . S
C1927 C1931 1.400 . S
C1928 H1913 0.960 . S
C1928 H1914 0.960 . S
C1928 H1915 0.960 . S
C1928 C1927 1.524 . S
C1929 C1926 1.403 . S
C1929 C1930 1.392 . S
C1929 C1933 1.495 . S
C1930 C1929 1.392 . S
C1930 C1931 1.385 . S
C1930 C1932 1.478 . S
C1931 H1925 0.930 . S
C1931 C1927 1.400 . S
C1931 C1930 1.385 . S
C1932 C1930 1.478 . S
C1932 C1934 1.381 . S
C1932 C1938 1.383 . S
C1933 C1929 1.495 . S
C1933 H1939 0.959 . S
C1933 H1940 0.961 . S
C1933 H1941 0.960 . S
C1934 C1932 1.381 . S
C1934 C1935 1.394 . S
C1934 H1942 0.930 . S
C1935 C1934 1.394 . S
C1935 C1936 1.383 . S
C1935 H1943 0.929 . S
C1936 C1935 1.383 . S
C1936 C1937 1.377 . S
C1937 H1921 0.930 . S
C1937 C1936 1.377 . S
C1937 C1938 1.379 . S
C1938 H1922 0.931 . S
C1938 C1932 1.383 . S
C1938 C1937 1.379 . S
H1939 C1933 0.959 . S
H1940 C1933 0.961 . S
H1941 C1933 0.960 . S
H1942 C1934 0.930 . S
H1943 C1935 0.929 . S
H1944 C1952 0.929 . S
H1945 C1954 0.930 . S
H1946 C1956 0.930 . S
H1947 C1959 0.929 . S
H1948 C1962 0.930 . S
H1949 C1964 0.960 . S
H1950 C1964 0.960 . S
H1951 C1964 0.960 . S
C1952 H1944 0.929 . S
C1952 C1953 1.377 . S
C1952 C1954 1.384 . S
C1953 C1952 1.377 . S
C1953 C1959 1.390 . S
C1954 H1945 0.930 . S
C1954 C1952 1.384 . S
C1954 C1955 1.372 . S
C1955 C1954 1.372 . S
C1955 C1956 1.400 . S
C1955 C1960 1.490 . S
C1956 H1946 0.930 . S
C1956 C1955 1.400 . S
C1956 C1959 1.386 . S
H1957 C1973 0.930 . S
H1958 C1974 0.931 . S
C1959 H1947 0.929 . S
C1959 C1953 1.390 . S
C1959 C1956 1.386 . S
C1960 C1955 1.490 . S
C1960 C1962 1.395 . S
C1960 C1963 1.403 . S
H1961 C1967 0.930 . S
C1962 H1948 0.930 . S
C1962 C1960 1.395 . S
C1962 C1965 1.403 . S
C1963 C1960 1.403 . S
C1963 C1964 1.524 . S
C1963 C1967 1.400 . S
C1964 H1949 0.960 . S
C1964 H1950 0.960 . S
C1964 H1951 0.960 . S
C1964 C1963 1.524 . S
C1965 C1962 1.403 . S
C1965 C1966 1.392 . S
C1965 C1969 1.495 . S
C1966 C1965 1.392 . S
C1966 C1967 1.385 . S
C1966 C1968 1.478 . S
C1967 H1961 0.930 . S
C1967 C1963 1.400 . S
C1967 C1966 1.385 . S
C1968 C1966 1.478 . S
C1968 C1970 1.381 . S
C1968 C1974 1.383 . S
C1969 C1965 1.495 . S
C1969 H1975 0.959 . S
C1969 H1976 0.961 . S
C1969 H1977 0.960 . S
C1970 C1968 1.381 . S
C1970 C1971 1.394 . S
C1970 H1978 0.930 . S
C1971 C1970 1.394 . S
C1971 C1972 1.383 . S
C1971 H1979 0.929 . S
C1972 C1971 1.383 . S
C1972 C1973 1.377 . S
C1973 H1957 0.930 . S
C1973 C1972 1.377 . S
C1973 C1974 1.379 . S
C1974 H1958 0.931 . S
C1974 C1968 1.383 . S
C1974 C1973 1.379 . S
H1975 C1969 0.959 . S
H1976 C1969 0.961 . S
H1977 C1969 0.960 . S
H1978 C1970 0.930 . S
H1979 C1971 0.929 . S
H1980 C1988 0.929 . S
H1981 C1990 0.930 . S
H1982 C1992 0.930 . S
H1983 C1995 0.929 . S
H1984 C1998 0.930 . S
H1985 C2000 0.960 . S
H1986 C2000 0.960 . S
H1987 C2000 0.960 . S
C1988 H1980 0.929 . S
C1988 C1989 1.377 . S
C1988 C1990 1.384 . S
C1989 C1988 1.377 . S
C1989 C1995 1.390 . S
C1990 H1981 0.930 . S
C1990 C1988 1.384 . S
C1990 C1991 1.372 . S
C1991 C1990 1.372 . S
C1991 C1992 1.400 . S
C1991 C1996 1.490 . S
C1992 H1982 0.930 . S
C1992 C1991 1.400 . S
C1992 C1995 1.386 . S
H1993 C2009 0.930 . S
H1994 C2010 0.931 . S
C1995 H1983 0.929 . S
C1995 C1989 1.390 . S
C1995 C1992 1.386 . S
C1996 C1991 1.490 . S
C1996 C1998 1.395 . S
C1996 C1999 1.403 . S
H1997 C2003 0.930 . S
C1998 H1984 0.930 . S
C1998 C1996 1.395 . S
C1998 C2001 1.403 . S
C1999 C1996 1.403 . S
C1999 C2000 1.524 . S
C1999 C2003 1.400 . S
C2000 H1985 0.960 . S
C2000 H1986 0.960 . S
C2000 H1987 0.960 . S
C2000 C1999 1.524 . S
C2001 C1998 1.403 . S
C2001 C2002 1.392 . S
C2001 C2005 1.495 . S
C2002 C2001 1.392 . S
C2002 C2003 1.385 . S
C2002 C2004 1.478 . S
C2003 H1997 0.930 . S
C2003 C1999 1.400 . S
C2003 C2002 1.385 . S
C2004 C2002 1.478 . S
C2004 C2006 1.381 . S
C2004 C2010 1.383 . S
C2005 C2001 1.495 . S
C2005 H2011 0.959 . S
C2005 H2012 0.961 . S
C2005 H2013 0.960 . S
C2006 C2004 1.381 . S
C2006 C2007 1.394 . S
C2006 H2014 0.930 . S
C2007 C2006 1.394 . S
C2007 C2008 1.383 . S
C2007 H2015 0.929 . S
C2008 C2007 1.383 . S
C2008 C2009 1.377 . S
C2009 H1993 0.930 . S
C2009 C2008 1.377 . S
C2009 C2010 1.379 . S
C2010 H1994 0.931 . S
C2010 C2004 1.383 . S
C2010 C2009 1.379 . S
H2011 C2005 0.959 . S
H2012 C2005 0.961 . S
H2013 C2005 0.960 . S
H2014 C2006 0.930 . S
H2015 C2007 0.929 . S
H2016 C2024 0.929 . S
H2017 C2026 0.930 . S
H2018 C2028 0.930 . S
H2019 C2031 0.929 . S
H2020 C2034 0.930 . S
H2021 C2036 0.960 . S
H2022 C2036 0.960 . S
H2023 C2036 0.960 . S
C2024 H2016 0.929 . S
C2024 C2025 1.377 . S
C2024 C2026 1.384 . S
C2025 C2024 1.377 . S
C2025 C2031 1.390 . S
C2026 H2017 0.930 . S
C2026 C2024 1.384 . S
C2026 C2027 1.372 . S
C2027 C2026 1.372 . S
C2027 C2028 1.400 . S
C2027 C2032 1.490 . S
C2028 H2018 0.930 . S
C2028 C2027 1.400 . S
C2028 C2031 1.386 . S
H2029 C2045 0.930 . S
H2030 C2046 0.931 . S
C2031 H2019 0.929 . S
C2031 C2025 1.390 . S
C2031 C2028 1.386 . S
C2032 C2027 1.490 . S
C2032 C2034 1.395 . S
C2032 C2035 1.403 . S
H2033 C2039 0.930 . S
C2034 H2020 0.930 . S
C2034 C2032 1.395 . S
C2034 C2037 1.403 . S
C2035 C2032 1.403 . S
C2035 C2036 1.524 . S
C2035 C2039 1.400 . S
C2036 H2021 0.960 . S
C2036 H2022 0.960 . S
C2036 H2023 0.960 . S
C2036 C2035 1.524 . S
C2037 C2034 1.403 . S
C2037 C2038 1.392 . S
C2037 C2041 1.495 . S
C2038 C2037 1.392 . S
C2038 C2039 1.385 . S
C2038 C2040 1.478 . S
C2039 H2033 0.930 . S
C2039 C2035 1.400 . S
C2039 C2038 1.385 . S
C2040 C2038 1.478 . S
C2040 C2042 1.381 . S
C2040 C2046 1.383 . S
C2041 C2037 1.495 . S
C2041 H2047 0.959 . S
C2041 H2048 0.961 . S
C2041 H2049 0.960 . S
C2042 C2040 1.381 . S
C2042 C2043 1.394 . S
C2042 H2050 0.930 . S
C2043 C2042 1.394 . S
C2043 C2044 1.383 . S
C2043 H2051 0.929 . S
C2044 C2043 1.383 . S
C2044 C2045 1.377 . S
C2045 H2029 0.930 . S
C2045 C2044 1.377 . S
C2045 C2046 1.379 . S
C2046 H2030 0.931 . S
C2046 C2040 1.383 . S
C2046 C2045 1.379 . S
H2047 C2041 0.959 . S
H2048 C2041 0.961 . S
H2049 C2041 0.960 . S
H2050 C2042 0.930 . S
H2051 C2043 0.929 . S
H2052 C2060 0.929 . S
H2053 C2062 0.930 . S
H2054 C2064 0.930 . S
H2055 C2067 0.929 . S
H2056 C2070 0.930 . S
H2057 C2072 0.960 . S
H2058 C2072 0.960 . S
H2059 C2072 0.960 . S
C2060 H2052 0.929 . S
C2060 C2061 1.377 . S
C2060 C2062 1.384 . S
C2061 C2060 1.377 . S
C2061 C2067 1.390 . S
C2062 H2053 0.930 . S
C2062 C2060 1.384 . S
C2062 C2063 1.372 . S
C2063 C2062 1.372 . S
C2063 C2064 1.400 . S
C2063 C2068 1.490 . S
C2064 H2054 0.930 . S
C2064 C2063 1.400 . S
C2064 C2067 1.386 . S
H2065 C2081 0.930 . S
H2066 C2082 0.931 . S
C2067 H2055 0.929 . S
C2067 C2061 1.390 . S
C2067 C2064 1.386 . S
C2068 C2063 1.490 . S
C2068 C2070 1.395 . S
C2068 C2071 1.403 . S
H2069 C2075 0.930 . S
C2070 H2056 0.930 . S
C2070 C2068 1.395 . S
C2070 C2073 1.403 . S
C2071 C2068 1.403 . S
C2071 C2072 1.524 . S
C2071 C2075 1.400 . S
C2072 H2057 0.960 . S
C2072 H2058 0.960 . S
C2072 H2059 0.960 . S
C2072 C2071 1.524 . S
C2073 C2070 1.403 . S
C2073 C2074 1.392 . S
C2073 C2077 1.495 . S
C2074 C2073 1.392 . S
C2074 C2075 1.385 . S
C2074 C2076 1.478 . S
C2075 H2069 0.930 . S
C2075 C2071 1.400 . S
C2075 C2074 1.385 . S
C2076 C2074 1.478 . S
C2076 C2078 1.381 . S
C2076 C2082 1.383 . S
C2077 C2073 1.495 . S
C2077 H2083 0.959 . S
C2077 H2084 0.961 . S
C2077 H2085 0.960 . S
C2078 C2076 1.381 . S
C2078 C2079 1.394 . S
C2078 H2086 0.930 . S
C2079 C2078 1.394 . S
C2079 C2080 1.383 . S
C2079 H2087 0.929 . S
C2080 C2079 1.383 . S
C2080 C2081 1.377 . S
C2081 H2065 0.930 . S
C2081 C2080 1.377 . S
C2081 C2082 1.379 . S
C2082 H2066 0.931 . S
C2082 C2076 1.383 . S
C2082 C2081 1.379 . S
H2083 C2077 0.959 . S
H2084 C2077 0.961 . S
H2085 C2077 0.960 . S
H2086 C2078 0.930 . S
H2087 C2079 0.929 . S
H2088 C2096 0.929 . S
H2089 C2098 0.930 . S
H2090 C2100 0.930 . S
H2091 C2103 0.929 . S
H2092 C2106 0.930 . S
H2093 C2108 0.960 . S
H2094 C2108 0.960 . S
H2095 C2108 0.960 . S
C2096 H2088 0.929 . S
C2096 C2097 1.377 . S
C2096 C2098 1.384 . S
C2097 C2096 1.377 . S
C2097 C2103 1.390 . S
C2098 H2089 0.930 . S
C2098 C2096 1.384 . S
C2098 C2099 1.372 . S
C2099 C2098 1.372 . S
C2099 C2100 1.400 . S
C2099 C2104 1.490 . S
C2100 H2090 0.930 . S
C2100 C2099 1.400 . S
C2100 C2103 1.386 . S
H2101 C2117 0.930 . S
H2102 C2118 0.931 . S
C2103 H2091 0.929 . S
C2103 C2097 1.390 . S
C2103 C2100 1.386 . S
C2104 C2099 1.490 . S
C2104 C2106 1.395 . S
C2104 C2107 1.403 . S
H2105 C2111 0.930 . S
C2106 H2092 0.930 . S
C2106 C2104 1.395 . S
C2106 C2109 1.403 . S
C2107 C2104 1.403 . S
C2107 C2108 1.524 . S
C2107 C2111 1.400 . S
C2108 H2093 0.960 . S
C2108 H2094 0.960 . S
C2108 H2095 0.960 . S
C2108 C2107 1.524 . S
C2109 C2106 1.403 . S
C2109 C2110 1.392 . S
C2109 C2113 1.495 . S
C2110 C2109 1.392 . S
C2110 C2111 1.385 . S
C2110 C2112 1.478 . S
C2111 H2105 0.930 . S
C2111 C2107 1.400 . S
C2111 C2110 1.385 . S
C2112 C2110 1.478 . S
C2112 C2114 1.381 . S
C2112 C2118 1.383 . S
C2113 C2109 1.495 . S
C2113 H2119 0.959 . S
C2113 H2120 0.961 . S
C2113 H2121 0.960 . S
C2114 C2112 1.381 . S
C2114 C2115 1.394 . S
C2114 H2122 0.930 . S
C2115 C2114 1.394 . S
C2115 C2116 1.383 . S
C2115 H2123 0.929 . S
C2116 C2115 1.383 . S
C2116 C2117 1.377 . S
C2117 H2101 0.930 . S
C2117 C2116 1.377 . S
C2117 C2118 1.379 . S
C2118 H2102 0.931 . S
C2118 C2112 1.383 . S
C2118 C2117 1.379 . S
H2119 C2113 0.959 . S
H2120 C2113 0.961 . S
H2121 C2113 0.960 . S
H2122 C2114 0.930 . S
H2123 C2115 0.929 . S
H2124 C2132 0.929 . S
H2125 C2134 0.930 . S
H2126 C2136 0.930 . S
H2127 C2139 0.929 . S
H2128 C2142 0.930 . S
H2129 C2144 0.960 . S
H2130 C2144 0.960 . S
H2131 C2144 0.960 . S
C2132 H2124 0.929 . S
C2132 C2133 1.377 . S
C2132 C2134 1.384 . S
C2133 C2132 1.377 . S
C2133 C2139 1.390 . S
C2134 H2125 0.930 . S
C2134 C2132 1.384 . S
C2134 C2135 1.372 . S
C2135 C2134 1.372 . S
C2135 C2136 1.400 . S
C2135 C2140 1.490 . S
C2136 H2126 0.930 . S
C2136 C2135 1.400 . S
C2136 C2139 1.386 . S
H2137 C2153 0.930 . S
H2138 C2154 0.931 . S
C2139 H2127 0.929 . S
C2139 C2133 1.390 . S
C2139 C2136 1.386 . S
C2140 C2135 1.490 . S
C2140 C2142 1.395 . S
C2140 C2143 1.403 . S
H2141 C2147 0.930 . S
C2142 H2128 0.930 . S
C2142 C2140 1.395 . S
C2142 C2145 1.403 . S
C2143 C2140 1.403 . S
C2143 C2144 1.524 . S
C2143 C2147 1.400 . S
C2144 H2129 0.960 . S
C2144 H2130 0.960 . S
C2144 H2131 0.960 . S
C2144 C2143 1.524 . S
C2145 C2142 1.403 . S
C2145 C2146 1.392 . S
C2145 C2149 1.495 . S
C2146 C2145 1.392 . S
C2146 C2147 1.385 . S
C2146 C2148 1.478 . S
C2147 H2141 0.930 . S
C2147 C2143 1.400 . S
C2147 C2146 1.385 . S
C2148 C2146 1.478 . S
C2148 C2150 1.381 . S
C2148 C2154 1.383 . S
C2149 C2145 1.495 . S
C2149 H2155 0.959 . S
C2149 H2156 0.961 . S
C2149 H2157 0.960 . S
C2150 C2148 1.381 . S
C2150 C2151 1.394 . S
C2150 H2158 0.930 . S
C2151 C2150 1.394 . S
C2151 C2152 1.383 . S
C2151 H2159 0.929 . S
C2152 C2151 1.383 . S
C2152 C2153 1.377 . S
C2153 H2137 0.930 . S
C2153 C2152 1.377 . S
C2153 C2154 1.379 . S
C2154 H2138 0.931 . S
C2154 C2148 1.383 . S
C2154 C2153 1.379 . S
H2155 C2149 0.959 . S
H2156 C2149 0.961 . S
H2157 C2149 0.960 . S
H2158 C2150 0.930 . S
H2159 C2151 0.929 . S
H2160 C2168 0.929 . S
H2161 C2170 0.930 . S
H2162 C2172 0.930 . S
H2163 C2175 0.929 . S
H2164 C2178 0.930 . S
H2165 C2180 0.960 . S
H2166 C2180 0.960 . S
H2167 C2180 0.960 . S
C2168 H2160 0.929 . S
C2168 C2169 1.377 . S
C2168 C2170 1.384 . S
C2169 C2168 1.377 . S
C2169 C2175 1.390 . S
C2170 H2161 0.930 . S
C2170 C2168 1.384 . S
C2170 C2171 1.372 . S
C2171 C2170 1.372 . S
C2171 C2172 1.400 . S
C2171 C2176 1.490 . S
C2172 H2162 0.930 . S
C2172 C2171 1.400 . S
C2172 C2175 1.386 . S
H2173 C2189 0.930 . S
H2174 C2190 0.931 . S
C2175 H2163 0.929 . S
C2175 C2169 1.390 . S
C2175 C2172 1.386 . S
C2176 C2171 1.490 . S
C2176 C2178 1.395 . S
C2176 C2179 1.403 . S
H2177 C2183 0.930 . S
C2178 H2164 0.930 . S
C2178 C2176 1.395 . S
C2178 C2181 1.403 . S
C2179 C2176 1.403 . S
C2179 C2180 1.524 . S
C2179 C2183 1.400 . S
C2180 H2165 0.960 . S
C2180 H2166 0.960 . S
C2180 H2167 0.960 . S
C2180 C2179 1.524 . S
C2181 C2178 1.403 . S
C2181 C2182 1.392 . S
C2181 C2185 1.495 . S
C2182 C2181 1.392 . S
C2182 C2183 1.385 . S
C2182 C2184 1.478 . S
C2183 H2177 0.930 . S
C2183 C2179 1.400 . S
C2183 C2182 1.385 . S
C2184 C2182 1.478 . S
C2184 C2186 1.381 . S
C2184 C2190 1.383 . S
C2185 C2181 1.495 . S
C2185 H2191 0.959 . S
C2185 H2192 0.961 . S
C2185 H2193 0.960 . S
C2186 C2184 1.381 . S
C2186 C2187 1.394 . S
C2186 H2194 0.930 . S
C2187 C2186 1.394 . S
C2187 C2188 1.383 . S
C2187 H2195 0.929 . S
C2188 C2187 1.383 . S
C2188 C2189 1.377 . S
C2189 H2173 0.930 . S
C2189 C2188 1.377 . S
C2189 C2190 1.379 . S
C2190 H2174 0.931 . S
C2190 C2184 1.383 . S
C2190 C2189 1.379 . S
H2191 C2185 0.959 . S
H2192 C2185 0.961 . S
H2193 C2185 0.960 . S
H2194 C2186 0.930 . S
H2195 C2187 0.929 . S
H2196 C2204 0.929 . S
H2197 C2206 0.930 . S
H2198 C2208 0.930 . S
H2199 C2211 0.929 . S
H2200 C2214 0.930 . S
H2201 C2216 0.960 . S
H2202 C2216 0.960 . S
H2203 C2216 0.960 . S
C2204 H2196 0.929 . S
C2204 C2205 1.377 . S
C2204 C2206 1.384 . S
C2205 C2204 1.377 . S
C2205 C2211 1.390 . S
C2206 H2197 0.930 . S
C2206 C2204 1.384 . S
C2206 C2207 1.372 . S
C2207 C2206 1.372 . S
C2207 C2208 1.400 . S
C2207 C2212 1.490 . S
C2208 H2198 0.930 . S
C2208 C2207 1.400 . S
C2208 C2211 1.386 . S
H2209 C2225 0.930 . S
H2210 C2226 0.931 . S
C2211 H2199 0.929 . S
C2211 C2205 1.390 . S
C2211 C2208 1.386 . S
C2212 C2207 1.490 . S
C2212 C2214 1.395 . S
C2212 C2215 1.403 . S
H2213 C2219 0.930 . S
C2214 H2200 0.930 . S
C2214 C2212 1.395 . S
C2214 C2217 1.403 . S
C2215 C2212 1.403 . S
C2215 C2216 1.524 . S
C2215 C2219 1.400 . S
C2216 H2201 0.960 . S
C2216 H2202 0.960 . S
C2216 H2203 0.960 . S
C2216 C2215 1.524 . S
C2217 C2214 1.403 . S
C2217 C2218 1.392 . S
C2217 C2221 1.495 . S
C2218 C2217 1.392 . S
C2218 C2219 1.385 . S
C2218 C2220 1.478 . S
C2219 H2213 0.930 . S
C2219 C2215 1.400 . S
C2219 C2218 1.385 . S
C2220 C2218 1.478 . S
C2220 C2222 1.381 . S
C2220 C2226 1.383 . S
C2221 C2217 1.495 . S
C2221 H2227 0.959 . S
C2221 H2228 0.961 . S
C2221 H2229 0.960 . S
C2222 C2220 1.381 . S
C2222 C2223 1.394 . S
C2222 H2230 0.930 . S
C2223 C2222 1.394 . S
C2223 C2224 1.383 . S
C2223 H2231 0.929 . S
C2224 C2223 1.383 . S
C2224 C2225 1.377 . S
C2225 H2209 0.930 . S
C2225 C2224 1.377 . S
C2225 C2226 1.379 . S
C2226 H2210 0.931 . S
C2226 C2220 1.383 . S
C2226 C2225 1.379 . S
H2227 C2221 0.959 . S
H2228 C2221 0.961 . S
H2229 C2221 0.960 . S
H2230 C2222 0.930 . S
H2231 C2223 0.929 . S
H2232 C2240 0.929 . S
H2233 C2242 0.930 . S
H2234 C2244 0.930 . S
H2235 C2247 0.929 . S
H2236 C2250 0.930 . S
H2237 C2252 0.960 . S
H2238 C2252 0.960 . S
H2239 C2252 0.960 . S
C2240 H2232 0.929 . S
C2240 C2241 1.377 . S
C2240 C2242 1.384 . S
C2241 C2240 1.377 . S
C2241 C2247 1.390 . S
C2242 H2233 0.930 . S
C2242 C2240 1.384 . S
C2242 C2243 1.372 . S
C2243 C2242 1.372 . S
C2243 C2244 1.400 . S
C2243 C2248 1.490 . S
C2244 H2234 0.930 . S
C2244 C2243 1.400 . S
C2244 C2247 1.386 . S
H2245 C2261 0.930 . S
H2246 C2262 0.931 . S
C2247 H2235 0.929 . S
C2247 C2241 1.390 . S
C2247 C2244 1.386 . S
C2248 C2243 1.490 . S
C2248 C2250 1.395 . S
C2248 C2251 1.403 . S
H2249 C2255 0.930 . S
C2250 H2236 0.930 . S
C2250 C2248 1.395 . S
C2250 C2253 1.403 . S
C2251 C2248 1.403 . S
C2251 C2252 1.524 . S
C2251 C2255 1.400 . S
C2252 H2237 0.960 . S
C2252 H2238 0.960 . S
C2252 H2239 0.960 . S
C2252 C2251 1.524 . S
C2253 C2250 1.403 . S
C2253 C2254 1.392 . S
C2253 C2257 1.495 . S
C2254 C2253 1.392 . S
C2254 C2255 1.385 . S
C2254 C2256 1.478 . S
C2255 H2249 0.930 . S
C2255 C2251 1.400 . S
C2255 C2254 1.385 . S
C2256 C2254 1.478 . S
C2256 C2258 1.381 . S
C2256 C2262 1.383 . S
C2257 C2253 1.495 . S
C2257 H2263 0.959 . S
C2257 H2264 0.961 . S
C2257 H2265 0.960 . S
C2258 C2256 1.381 . S
C2258 C2259 1.394 . S
C2258 H2266 0.930 . S
C2259 C2258 1.394 . S
C2259 C2260 1.383 . S
C2259 H2267 0.929 . S
C2260 C2259 1.383 . S
C2260 C2261 1.377 . S
C2261 H2245 0.930 . S
C2261 C2260 1.377 . S
C2261 C2262 1.379 . S
C2262 H2246 0.931 . S
C2262 C2256 1.383 . S
C2262 C2261 1.379 . S
H2263 C2257 0.959 . S
H2264 C2257 0.961 . S
H2265 C2257 0.960 . S
H2266 C2258 0.930 . S
H2267 C2259 0.929 . S
H2268 C2276 0.929 . S
H2269 C2278 0.930 . S
H2270 C2280 0.930 . S
H2271 C2283 0.929 . S
H2272 C2286 0.930 . S
H2273 C2288 0.960 . S
H2274 C2288 0.960 . S
H2275 C2288 0.960 . S
C2276 H2268 0.929 . S
C2276 C2277 1.377 . S
C2276 C2278 1.384 . S
C2277 C2276 1.377 . S
C2277 C2283 1.390 . S
C2278 H2269 0.930 . S
C2278 C2276 1.384 . S
C2278 C2279 1.372 . S
C2279 C2278 1.372 . S
C2279 C2280 1.400 . S
C2279 C2284 1.490 . S
C2280 H2270 0.930 . S
C2280 C2279 1.400 . S
C2280 C2283 1.386 . S
H2281 C2297 0.930 . S
H2282 C2298 0.931 . S
C2283 H2271 0.929 . S
C2283 C2277 1.390 . S
C2283 C2280 1.386 . S
C2284 C2279 1.490 . S
C2284 C2286 1.395 . S
C2284 C2287 1.403 . S
H2285 C2291 0.930 . S
C2286 H2272 0.930 . S
C2286 C2284 1.395 . S
C2286 C2289 1.403 . S
C2287 C2284 1.403 . S
C2287 C2288 1.524 . S
C2287 C2291 1.400 . S
C2288 H2273 0.960 . S
C2288 H2274 0.960 . S
C2288 H2275 0.960 . S
C2288 C2287 1.524 . S
C2289 C2286 1.403 . S
C2289 C2290 1.392 . S
C2289 C2293 1.495 . S
C2290 C2289 1.392 . S
C2290 C2291 1.385 . S
C2290 C2292 1.478 . S
C2291 H2285 0.930 . S
C2291 C2287 1.400 . S
C2291 C2290 1.385 . S
C2292 C2290 1.478 . S
C2292 C2294 1.381 . S
C2292 C2298 1.383 . S
C2293 C2289 1.495 . S
C2293 H2299 0.959 . S
C2293 H2300 0.961 . S
C2293 H2301 0.960 . S
C2294 C2292 1.381 . S
C2294 C2295 1.394 . S
C2294 H2302 0.930 . S
C2295 C2294 1.394 . S
C2295 C2296 1.383 . S
C2295 H2303 0.929 . S
C2296 C2295 1.383 . S
C2296 C2297 1.377 . S
C2297 H2281 0.930 . S
C2297 C2296 1.377 . S
C2297 C2298 1.379 . S
C2298 H2282 0.931 . S
C2298 C2292 1.383 . S
C2298 C2297 1.379 . S
H2299 C2293 0.959 . S
H2300 C2293 0.961 . S
H2301 C2293 0.960 . S
H2302 C2294 0.930 . S
H2303 C2295 0.929 . S
H2304 C2312 0.929 . S
H2305 C2314 0.930 . S
H2306 C2316 0.930 . S
H2307 C2319 0.929 . S
H2308 C2322 0.930 . S
H2309 C2324 0.960 . S
H2310 C2324 0.960 . S
H2311 C2324 0.960 . S
C2312 H2304 0.929 . S
C2312 C2313 1.377 . S
C2312 C2314 1.384 . S
C2313 C2312 1.377 . S
C2313 C2319 1.390 . S
C2314 H2305 0.930 . S
C2314 C2312 1.384 . S
C2314 C2315 1.372 . S
C2315 C2314 1.372 . S
C2315 C2316 1.400 . S
C2315 C2320 1.490 . S
C2316 H2306 0.930 . S
C2316 C2315 1.400 . S
C2316 C2319 1.386 . S
H2317 C2333 0.930 . S
H2318 C2334 0.931 . S
C2319 H2307 0.929 . S
C2319 C2313 1.390 . S
C2319 C2316 1.386 . S
C2320 C2315 1.490 . S
C2320 C2322 1.395 . S
C2320 C2323 1.403 . S
H2321 C2327 0.930 . S
C2322 H2308 0.930 . S
C2322 C2320 1.395 . S
C2322 C2325 1.403 . S
C2323 C2320 1.403 . S
C2323 C2324 1.524 . S
C2323 C2327 1.400 . S
C2324 H2309 0.960 . S
C2324 H2310 0.960 . S
C2324 H2311 0.960 . S
C2324 C2323 1.524 . S
C2325 C2322 1.403 . S
C2325 C2326 1.392 . S
C2325 C2329 1.495 . S
C2326 C2325 1.392 . S
C2326 C2327 1.385 . S
C2326 C2328 1.478 . S
C2327 H2321 0.930 . S
C2327 C2323 1.400 . S
C2327 C2326 1.385 . S
C2328 C2326 1.478 . S
C2328 C2330 1.381 . S
C2328 C2334 1.383 . S
C2329 C2325 1.495 . S
C2329 H2335 0.959 . S
C2329 H2336 0.961 . S
C2329 H2337 0.960 . S
C2330 C2328 1.381 . S
C2330 C2331 1.394 . S
C2330 H2338 0.930 . S
C2331 C2330 1.394 . S
C2331 C2332 1.383 . S
C2331 H2339 0.929 . S
C2332 C2331 1.383 . S
C2332 C2333 1.377 . S
C2333 H2317 0.930 . S
C2333 C2332 1.377 . S
C2333 C2334 1.379 . S
C2334 H2318 0.931 . S
C2334 C2328 1.383 . S
C2334 C2333 1.379 . S
H2335 C2329 0.959 . S
H2336 C2329 0.961 . S
H2337 C2329 0.960 . S
H2338 C2330 0.930 . S
H2339 C2331 0.929 . S
C405 C15 0.456 . S
C424 C65 0.528 . S
C441 C21 0.527 . S
C460 C37 0.436 . S
C477 C59 0.456 . S
C496 C43 0.532 . S
C513 C103 0.527 . S
C532 C73 0.477 . S
C549 C125 0.560 . S
C568 C95 0.442 . S
C585 C117 0.445 . S
C604 C81 0.541 . S
C621 C197 0.529 . S
C640 C147 0.418 . S
C657 C169 0.445 . S
C676 C153 0.473 . S
C693 C175 0.541 . S
C712 C191 0.471 . S
C729 C213 0.462 . S
C748 C235 0.562 . S
C765 C263 0.525 . S
C784 C227 0.463 . S
C801 C257 0.445 . S
C820 C219 0.556 . S
C837 C329 0.551 1_565 S
C856 C279 0.489 . S
C873 C301 0.458 . S
C892 C285 0.551 1_455 S
C909 C323 0.452 . S
C928 C307 0.487 . S
C945 C345 0.458 . S
C964 C373 0.464 1_455 S
C981 C389 0.560 . S
C1000 C367 0.437 . S
C1017 C351 0.542 1_565 S
C1036 C381 0.418 . S
C1053 C131 1.005 . S
C1072 C10 0.985 . S
C1089 C87 1.006 . S
C1108 C32 0.991 . S
C1125 C109 0.995 . S
C1144 C54 0.973 . S
C1161 C29 1.004 . S
C1180 C84 1.028 . S
C1197 C106 0.993 . S
C1216 C51 1.027 . S
C1233 C7 1.005 . S
C1252 C128 0.970 . S
C1269 C142 0.998 . S
C1288 C249 1.029 . S
C1305 C164 0.997 . S
C1324 C205 0.988 . S
C1341 C241 1.007 . S
C1360 C186 1.027 . S
C1377 C208 1.000 . S
C1396 C161 1.022 . S
C1413 C238 0.986 . S
C1432 C183 0.994 . S
C1449 C252 0.988 . S
C1468 C139 0.979 . S
C1485 C274 0.999 . S
C1504 C395 1.030 . S
C1521 C296 1.001 . S
C1540 C337 1.027 . S
C1557 C318 0.988 . S
C1576 C359 0.999 . S
C1593 C340 0.999 . S
C1612 C293 1.026 . S
C1629 C362 0.988 . S
C1648 C315 1.013 . S
C1665 C392 0.987 . S
C1684 C271 0.987 . S
C1701 C230 2.161 . S
C1720 C18 2.075 . S
C1737 C40 2.099 . S
C1756 C250 2.161 . S
C1773 C206 2.161 . S
C1792 C62 2.080 . S
C1809 C74 2.095 . S
C1828 C184 2.157 . S
C1845 C96 2.103 . S
C1864 C140 2.146 . S
C1881 C162 2.164 . S
C1900 C118 2.075 . S
C1917 C150 2.101 . S
C1936 C360 2.168 1_455 S
C1953 C172 2.103 . S
C1972 C384 2.162 . S
C1989 C194 2.104 . S
C2008 C338 2.175 1_565 S
C2025 C316 2.164 1_565 S
C2044 C216 2.073 . S
C2061 C272 2.167 1_455 S
C2080 C228 2.087 . S
C2097 C294 2.162 . S
C2116 C260 2.085 . S
C2133 C98 2.165 . S
C2152 C282 2.112 . S
C2169 C304 2.102 . S
C2188 C120 2.169 . S
C2205 C76 2.167 . S
C2224 C326 2.108 . S
C2241 C348 2.096 . S
C2260 C52 2.157 . S
C2277 C370 2.096 . S
C2296 C8 2.166 . S
C2313 C30 2.165 . S
C2332 C382 2.074 . S
