# Generated by pormake.
# Topology wir, (6)-cn, num edge types: 1
# Building blocks:
#     Node 0, Type 0, BuildingBlock: BETDIP_clean_sbu_0, # of connection points: 6
#     Node 1, Type 0, BuildingBlock: BETDIP_clean_sbu_0, # of connection points: 6
#     Node 2, Type 0, BuildingBlock: BETDIP_clean_sbu_0, # of connection points: 6
#     Node 3, Type 0, BuildingBlock: BETDIP_clean_sbu_0, # of connection points: 6
#     Node 4, Type 0, BuildingBlock: BETDIP_clean_sbu_0, # of connection points: 6
#     Node 5, Type 0, BuildingBlock: BETDIP_clean_sbu_0, # of connection points: 6
#     Node 6, Type 0, BuildingBlock: BETDIP_clean_sbu_0, # of connection points: 6
#     Node 7, Type 0, BuildingBlock: BETDIP_clean_sbu_0, # of connection points: 6
#     Node 8, Type 0, BuildingBlock: BETDIP_clean_sbu_0, # of connection points: 6
#     Node 9, Type 0, BuildingBlock: BETDIP_clean_sbu_0, # of connection points: 6
#     Node 10, Type 0, BuildingBlock: BETDIP_clean_sbu_0, # of connection points: 6
#     Node 11, Type 0, BuildingBlock: BETDIP_clean_sbu_0, # of connection points: 6
#     Node 12, Type 0, BuildingBlock: BETDIP_clean_sbu_0, # of connection points: 6
#     Node 13, Type 0, BuildingBlock: BETDIP_clean_sbu_0, # of connection points: 6
#     Node 14, Type 0, BuildingBlock: BETDIP_clean_sbu_0, # of connection points: 6
#     Node 15, Type 0, BuildingBlock: BETDIP_clean_sbu_0, # of connection points: 6
#     Node 16, Type 0, BuildingBlock: BETDIP_clean_sbu_0, # of connection points: 6
#     Node 17, Type 0, BuildingBlock: BETDIP_clean_sbu_0, # of connection points: 6
#     Node 18, Type 0, BuildingBlock: BETDIP_clean_sbu_0, # of connection points: 6
#     Node 19, Type 0, BuildingBlock: BETDIP_clean_sbu_0, # of connection points: 6
#     Node 20, Type 0, BuildingBlock: BETDIP_clean_sbu_0, # of connection points: 6
#     Node 21, Type 0, BuildingBlock: BETDIP_clean_sbu_0, # of connection points: 6
#     Node 22, Type 0, BuildingBlock: BETDIP_clean_sbu_0, # of connection points: 6
#     Node 23, Type 0, BuildingBlock: BETDIP_clean_sbu_0, # of connection points: 6
#     Node 24, Type 0, BuildingBlock: BETDIP_clean_sbu_0, # of connection points: 6
#     Node 25, Type 0, BuildingBlock: BETDIP_clean_sbu_0, # of connection points: 6
#     Node 26, Type 0, BuildingBlock: BETDIP_clean_sbu_0, # of connection points: 6
#     Node 27, Type 0, BuildingBlock: BETDIP_clean_sbu_0, # of connection points: 6
#     Node 28, Type 0, BuildingBlock: BETDIP_clean_sbu_0, # of connection points: 6
#     Node 29, Type 0, BuildingBlock: BETDIP_clean_sbu_0, # of connection points: 6
#     Node 30, Type 0, BuildingBlock: BETDIP_clean_sbu_0, # of connection points: 6
#     Node 31, Type 0, BuildingBlock: BETDIP_clean_sbu_0, # of connection points: 6
#     Edge 32, Type (0, 0), BuildingBlock: AJUNOK_clean_linker_0, # of connection points: 2
#     Edge 33, Type (0, 0), BuildingBlock: AJUNOK_clean_linker_0, # of connection points: 2
#     Edge 34, Type (0, 0), BuildingBlock: AJUNOK_clean_linker_0, # of connection points: 2
#     Edge 35, Type (0, 0), BuildingBlock: AJUNOK_clean_linker_0, # of connection points: 2
#     Edge 36, Type (0, 0), BuildingBlock: AJUNOK_clean_linker_0, # of connection points: 2
#     Edge 37, Type (0, 0), BuildingBlock: AJUNOK_clean_linker_0, # of connection points: 2
#     Edge 38, Type (0, 0), BuildingBlock: AJUNOK_clean_linker_0, # of connection points: 2
#     Edge 39, Type (0, 0), BuildingBlock: AJUNOK_clean_linker_0, # of connection points: 2
#     Edge 40, Type (0, 0), BuildingBlock: AJUNOK_clean_linker_0, # of connection points: 2
#     Edge 41, Type (0, 0), BuildingBlock: AJUNOK_clean_linker_0, # of connection points: 2
#     Edge 42, Type (0, 0), BuildingBlock: AJUNOK_clean_linker_0, # of connection points: 2
#     Edge 43, Type (0, 0), BuildingBlock: AJUNOK_clean_linker_0, # of connection points: 2
#     Edge 44, Type (0, 0), BuildingBlock: AJUNOK_clean_linker_0, # of connection points: 2
#     Edge 45, Type (0, 0), BuildingBlock: AJUNOK_clean_linker_0, # of connection points: 2
#     Edge 46, Type (0, 0), BuildingBlock: AJUNOK_clean_linker_0, # of connection points: 2
#     Edge 47, Type (0, 0), BuildingBlock: AJUNOK_clean_linker_0, # of connection points: 2
#     Edge 48, Type (0, 0), BuildingBlock: AJUNOK_clean_linker_0, # of connection points: 2
#     Edge 49, Type (0, 0), BuildingBlock: AJUNOK_clean_linker_0, # of connection points: 2
#     Edge 50, Type (0, 0), BuildingBlock: AJUNOK_clean_linker_0, # of connection points: 2
#     Edge 51, Type (0, 0), BuildingBlock: AJUNOK_clean_linker_0, # of connection points: 2
#     Edge 52, Type (0, 0), BuildingBlock: AJUNOK_clean_linker_0, # of connection points: 2
#     Edge 53, Type (0, 0), BuildingBlock: AJUNOK_clean_linker_0, # of connection points: 2
#     Edge 54, Type (0, 0), BuildingBlock: AJUNOK_clean_linker_0, # of connection points: 2
#     Edge 55, Type (0, 0), BuildingBlock: AJUNOK_clean_linker_0, # of connection points: 2
#     Edge 56, Type (0, 0), BuildingBlock: AJUNOK_clean_linker_0, # of connection points: 2
#     Edge 57, Type (0, 0), BuildingBlock: AJUNOK_clean_linker_0, # of connection points: 2
#     Edge 58, Type (0, 0), BuildingBlock: AJUNOK_clean_linker_0, # of connection points: 2
#     Edge 59, Type (0, 0), BuildingBlock: AJUNOK_clean_linker_0, # of connection points: 2
#     Edge 60, Type (0, 0), BuildingBlock: AJUNOK_clean_linker_0, # of connection points: 2
#     Edge 61, Type (0, 0), BuildingBlock: AJUNOK_clean_linker_0, # of connection points: 2
#     Edge 62, Type (0, 0), BuildingBlock: AJUNOK_clean_linker_0, # of connection points: 2
#     Edge 63, Type (0, 0), BuildingBlock: AJUNOK_clean_linker_0, # of connection points: 2
#     Edge 64, Type (0, 0), BuildingBlock: AJUNOK_clean_linker_0, # of connection points: 2
#     Edge 65, Type (0, 0), BuildingBlock: AJUNOK_clean_linker_0, # of connection points: 2
#     Edge 66, Type (0, 0), BuildingBlock: AJUNOK_clean_linker_0, # of connection points: 2
#     Edge 67, Type (0, 0), BuildingBlock: AJUNOK_clean_linker_0, # of connection points: 2
#     Edge 68, Type (0, 0), BuildingBlock: AJUNOK_clean_linker_0, # of connection points: 2
#     Edge 69, Type (0, 0), BuildingBlock: AJUNOK_clean_linker_0, # of connection points: 2
#     Edge 70, Type (0, 0), BuildingBlock: AJUNOK_clean_linker_0, # of connection points: 2
#     Edge 71, Type (0, 0), BuildingBlock: AJUNOK_clean_linker_0, # of connection points: 2
#     Edge 72, Type (0, 0), BuildingBlock: AJUNOK_clean_linker_0, # of connection points: 2
#     Edge 73, Type (0, 0), BuildingBlock: AJUNOK_clean_linker_0, # of connection points: 2
#     Edge 74, Type (0, 0), BuildingBlock: AJUNOK_clean_linker_0, # of connection points: 2
#     Edge 75, Type (0, 0), BuildingBlock: AJUNOK_clean_linker_0, # of connection points: 2
#     Edge 76, Type (0, 0), BuildingBlock: AJUNOK_clean_linker_0, # of connection points: 2
#     Edge 77, Type (0, 0), BuildingBlock: AJUNOK_clean_linker_0, # of connection points: 2
#     Edge 78, Type (0, 0), BuildingBlock: AJUNOK_clean_linker_0, # of connection points: 2
#     Edge 79, Type (0, 0), BuildingBlock: AJUNOK_clean_linker_0, # of connection points: 2
#     Edge 80, Type (0, 0), BuildingBlock: AJUNOK_clean_linker_0, # of connection points: 2
#     Edge 81, Type (0, 0), BuildingBlock: AJUNOK_clean_linker_0, # of connection points: 2
#     Edge 82, Type (0, 0), BuildingBlock: AJUNOK_clean_linker_0, # of connection points: 2
#     Edge 83, Type (0, 0), BuildingBlock: AJUNOK_clean_linker_0, # of connection points: 2
#     Edge 84, Type (0, 0), BuildingBlock: AJUNOK_clean_linker_0, # of connection points: 2
#     Edge 85, Type (0, 0), BuildingBlock: AJUNOK_clean_linker_0, # of connection points: 2
#     Edge 86, Type (0, 0), BuildingBlock: AJUNOK_clean_linker_0, # of connection points: 2
#     Edge 87, Type (0, 0), BuildingBlock: AJUNOK_clean_linker_0, # of connection points: 2
#     Edge 88, Type (0, 0), BuildingBlock: AJUNOK_clean_linker_0, # of connection points: 2
#     Edge 89, Type (0, 0), BuildingBlock: AJUNOK_clean_linker_0, # of connection points: 2
#     Edge 90, Type (0, 0), BuildingBlock: AJUNOK_clean_linker_0, # of connection points: 2
#     Edge 91, Type (0, 0), BuildingBlock: AJUNOK_clean_linker_0, # of connection points: 2
#     Edge 92, Type (0, 0), BuildingBlock: AJUNOK_clean_linker_0, # of connection points: 2
#     Edge 93, Type (0, 0), BuildingBlock: AJUNOK_clean_linker_0, # of connection points: 2
#     Edge 94, Type (0, 0), BuildingBlock: AJUNOK_clean_linker_0, # of connection points: 2
#     Edge 95, Type (0, 0), BuildingBlock: AJUNOK_clean_linker_0, # of connection points: 2
#     Edge 96, Type (0, 0), BuildingBlock: AJUNOK_clean_linker_0, # of connection points: 2
#     Edge 97, Type (0, 0), BuildingBlock: AJUNOK_clean_linker_0, # of connection points: 2
#     Edge 98, Type (0, 0), BuildingBlock: AJUNOK_clean_linker_0, # of connection points: 2
#     Edge 99, Type (0, 0), BuildingBlock: AJUNOK_clean_linker_0, # of connection points: 2
#     Edge 100, Type (0, 0), BuildingBlock: AJUNOK_clean_linker_0, # of connection points: 2
#     Edge 101, Type (0, 0), BuildingBlock: AJUNOK_clean_linker_0, # of connection points: 2
#     Edge 102, Type (0, 0), BuildingBlock: AJUNOK_clean_linker_0, # of connection points: 2
#     Edge 103, Type (0, 0), BuildingBlock: AJUNOK_clean_linker_0, # of connection points: 2
#     Edge 104, Type (0, 0), BuildingBlock: AJUNOK_clean_linker_0, # of connection points: 2
#     Edge 105, Type (0, 0), BuildingBlock: AJUNOK_clean_linker_0, # of connection points: 2
#     Edge 106, Type (0, 0), BuildingBlock: AJUNOK_clean_linker_0, # of connection points: 2
#     Edge 107, Type (0, 0), BuildingBlock: AJUNOK_clean_linker_0, # of connection points: 2
#     Edge 108, Type (0, 0), BuildingBlock: AJUNOK_clean_linker_0, # of connection points: 2
#     Edge 109, Type (0, 0), BuildingBlock: AJUNOK_clean_linker_0, # of connection points: 2
#     Edge 110, Type (0, 0), BuildingBlock: AJUNOK_clean_linker_0, # of connection points: 2
#     Edge 111, Type (0, 0), BuildingBlock: AJUNOK_clean_linker_0, # of connection points: 2
#     Edge 112, Type (0, 0), BuildingBlock: AJUNOK_clean_linker_0, # of connection points: 2
#     Edge 113, Type (0, 0), BuildingBlock: AJUNOK_clean_linker_0, # of connection points: 2
#     Edge 114, Type (0, 0), BuildingBlock: AJUNOK_clean_linker_0, # of connection points: 2
#     Edge 115, Type (0, 0), BuildingBlock: AJUNOK_clean_linker_0, # of connection points: 2
#     Edge 116, Type (0, 0), BuildingBlock: AJUNOK_clean_linker_0, # of connection points: 2
#     Edge 117, Type (0, 0), BuildingBlock: AJUNOK_clean_linker_0, # of connection points: 2
#     Edge 118, Type (0, 0), BuildingBlock: AJUNOK_clean_linker_0, # of connection points: 2
#     Edge 119, Type (0, 0), BuildingBlock: AJUNOK_clean_linker_0, # of connection points: 2
#     Edge 120, Type (0, 0), BuildingBlock: AJUNOK_clean_linker_0, # of connection points: 2
#     Edge 121, Type (0, 0), BuildingBlock: AJUNOK_clean_linker_0, # of connection points: 2
#     Edge 122, Type (0, 0), BuildingBlock: AJUNOK_clean_linker_0, # of connection points: 2
#     Edge 123, Type (0, 0), BuildingBlock: AJUNOK_clean_linker_0, # of connection points: 2
#     Edge 124, Type (0, 0), BuildingBlock: AJUNOK_clean_linker_0, # of connection points: 2
#     Edge 125, Type (0, 0), BuildingBlock: AJUNOK_clean_linker_0, # of connection points: 2
#     Edge 126, Type (0, 0), BuildingBlock: AJUNOK_clean_linker_0, # of connection points: 2
#     Edge 127, Type (0, 0), BuildingBlock: AJUNOK_clean_linker_0, # of connection points: 2
# Relax obj value: 0.598
# Max RMSD: 0.201
# Mean RMSD: 0.201
data_MOF--net-wir--node1-BETDIP_clean_sbu_0--edge1-AJUNOK_clean_linker_0
_symmetry_space_group_name_H-M    P1
_symmetry_Int_Tables_number       1
_symmetry_cell_setting            triclinic
loop_
_symmetry_equiv_pos_as_xyz
'x, y, z'
_cell_length_a     29.270376
_cell_length_b     29.196097
_cell_length_c     81.14976
_cell_angle_alpha  90.230852
_cell_angle_beta   89.861369
_cell_angle_gamma 90.033521
loop_
_atom_site_label
_atom_site_type_symbol
_atom_site_fract_x
_atom_site_fract_y
_atom_site_fract_z
_atom_type_partial_charge
Tb0 Tb 0.24637 0.2696 0.44547 0.0
Tb1 Tb 0.21821 0.23118 0.43697 0.0
C2 C 0.28559 0.3434 0.45375 0.0
C3 C 0.26687 0.38941 0.45176 0.0
C4 C 0.22688 0.39381 0.44232 0.0
C5 C 0.19174 0.42193 0.44804 0.0
C6 C 0.19758 0.44555 0.46289 0.0
C7 C 0.24225 0.45223 0.46886 0.0
C8 C 0.2768 0.42251 0.46371 0.0
C9 C 0.29096 0.2084 0.47209 0.0
C10 C 0.18572 0.21719 0.46934 0.0
C11 C 0.23743 0.17275 0.41503 0.0
C12 C 0.24989 0.17789 0.39747 0.0
C13 C 0.2961 0.18382 0.39316 0.0
C14 C 0.30874 0.19374 0.37704 0.0
C15 C 0.2758 0.19663 0.36454 0.0
C16 C 0.22954 0.18909 0.36882 0.0
C17 C 0.21669 0.18049 0.38512 0.0
C18 C 0.13293 0.27477 0.43987 0.0
C19 C 0.25525 0.28604 0.40723 0.0
O20 O 0.29445 0.32144 0.44023 0.0
O21 O 0.26204 0.31808 0.46374 0.0
O22 O 0.28068 0.21048 0.45559 0.0
O23 O 0.28225 0.20866 0.45602 0.0
O24 O 0.20226 0.25889 0.46755 0.0
O25 O 0.18839 0.19221 0.45619 0.0
O26 O 0.26703 0.19076 0.42503 0.0
O27 O 0.19558 0.18163 0.41968 0.0
O28 O 0.17408 0.29346 0.43886 0.0
O29 O 0.14137 0.23065 0.43976 0.0
O30 O 0.2151 0.27484 0.41312 0.0
O31 O 0.28251 0.27797 0.41979 0.0
H32 H 0.21956 0.36982 0.43247 0.0
H33 H 0.15809 0.41834 0.44274 0.0
H34 H 0.24775 0.47195 0.48003 0.0
H35 H 0.308 0.4205 0.47083 0.0
H36 H 0.32279 0.18187 0.40236 0.0
H37 H 0.34461 0.19897 0.37447 0.0
H38 H 0.20303 0.18794 0.35958 0.0
H39 H 0.18088 0.17559 0.38801 0.0
Tb40 Tb 0.12909 1.01538 0.70318 0.0
Tb41 Tb 0.17977 0.98579 0.69326 0.0
C42 C 0.05769 1.05289 0.7142 0.0
C43 C 1.01039 1.03964 0.7111 0.0
C44 C 1.00182 1.00536 0.69928 0.0
C45 C 0.96506 0.97563 0.70145 0.0
C46 C 0.93743 0.98031 0.71544 0.0
C47 C 0.94003 1.02066 0.7249 0.0
C48 C 0.97717 1.05003 0.72292 0.0
C49 C 0.20063 1.05682 0.72703 0.0
C50 C 0.18025 0.95429 0.72711 0.0
C51 C 0.25119 0.99402 0.67626 0.0
C52 C 0.25831 1.0325 0.66497 0.0
C53 C 0.22943 0.07096 0.66628 0.0
C54 C 0.22585 0.10195 0.6533 0.0
C55 C 0.25228 0.0957 0.63911 0.0
C56 C 0.28405 0.05946 0.63842 0.0
C57 C 0.28674 1.02776 0.65123 0.0
C58 C 0.13079 0.90279 0.69577 0.0
C59 C 0.11993 1.02725 0.66401 0.0
O60 O 0.08018 0.06788 0.70151 0.0
O61 O 0.08088 1.02212 0.72218 0.0
O62 O 0.19045 1.05181 0.71065 0.0
O63 O 0.1922 1.05333 0.71095 0.0
O64 O 0.13966 0.97262 0.72509 0.0
O65 O 0.20625 0.95217 0.71421 0.0
O66 O 0.24928 1.00479 0.69178 0.0
O67 O 0.21757 0.96729 0.67218 0.0
O68 O 0.11431 0.94425 0.6933 0.0
O69 O 0.17473 0.90947 0.69705 0.0
O70 O 0.15262 0.99786 0.66712 0.0
O71 O 0.10475 1.04386 0.67811 0.0
H72 H 1.02694 0.99732 0.68988 0.0
H73 H 0.96267 0.94537 0.69377 0.0
H74 H 0.91848 1.02497 0.73568 0.0
H75 H 0.98313 0.07663 0.73201 0.0
H76 H 0.20683 0.07499 0.67677 0.0
H77 H 0.20071 0.12912 0.65395 0.0
H78 H 0.30411 1.05348 0.62738 0.0
H79 H 0.30866 0.99808 0.6499 0.0
Tb80 Tb 0.30962 0.86002 0.95207 0.0
Tb81 Tb 0.33384 0.90254 0.94195 0.0
C82 C 0.27947 0.78718 0.96481 0.0
C83 C 0.30464 0.74443 0.96684 0.0
C84 C 0.34327 0.73671 0.95684 0.0
C85 C 0.38055 0.71267 0.96307 0.0
C86 C 0.37894 0.69619 0.97919 0.0
C87 C 0.33773 0.69749 0.98807 0.0
C88 C 0.30053 0.72158 0.98189 0.0
C89 C 0.26888 0.93106 0.97716 0.0
C90 C 0.37148 0.91545 0.97395 0.0
C91 C 0.31075 0.95909 0.9205 0.0
C92 C 0.30871 0.95342 0.90253 0.0
C93 C 0.26651 0.94341 0.89501 0.0
C94 C 0.26458 0.93104 0.87844 0.0
C95 C 0.30467 0.92975 0.86901 0.0
C96 C 0.34682 0.93961 0.87658 0.0
C97 C 0.34885 0.95117 0.89317 0.0
C98 C 0.4214 0.86279 0.9429 0.0
C99 C 0.29732 0.83996 0.91349 0.0
O100 O 0.27046 0.79956 0.94982 0.0
O101 O 0.29725 0.82063 0.97311 0.0
O102 O 0.27216 0.91974 0.96083 0.0
O103 O 0.27034 0.92164 0.96104 0.0
O104 O 0.35986 0.87233 0.97208 0.0
O105 O 0.36152 0.94145 0.96161 0.0
O106 O 0.28179 0.93301 0.92832 0.0
O107 O 0.35113 0.95957 0.92747 0.0
O108 O 0.38125 0.84201 0.94307 0.0
O109 O 0.41088 0.90637 0.94248 0.0
O110 O 0.33561 0.86043 0.91767 0.0
O111 O 0.27252 0.84098 0.92719 0.0
H112 H 0.34707 0.75412 0.94516 0.0
H113 H 0.41204 0.71136 0.95607 0.0
H114 H 0.33615 0.68458 1.00057 0.0
H115 H 0.2712 0.72745 0.98979 0.0
H116 H 0.23503 0.94419 0.90206 0.0
H117 H 0.23175 0.92366 0.87289 0.0
H118 H 0.37828 0.9402 0.86952 0.0
H119 H 0.38189 0.95808 0.89862 0.0
Tb120 Tb 0.53846 0.07836 0.20312 0.0
Tb121 Tb 0.49376 0.10396 0.19298 0.0
C122 C 0.61174 1.04749 0.21495 0.0
C123 C 0.65581 0.07103 0.21335 0.0
C124 C 0.66107 0.10159 0.20009 0.0
C125 C 0.682 0.14395 0.20265 0.0
C126 C 0.698 0.15523 0.21837 0.0
C127 C 0.70281 0.12038 0.23016 0.0
C128 C 0.68134 0.07822 0.2277 0.0
C129 C 0.46624 1.04064 0.22828 0.0
C130 C 0.48665 0.14353 0.2251 0.0
C131 C 0.43513 0.08247 0.17184 0.0
C132 C 0.43591 0.08108 0.15362 0.0
C133 C 0.45962 1.04613 0.14512 0.0
C134 C 0.46075 1.045 0.12794 0.0
C135 C 0.4367 0.07772 1.11883 0.0
C136 C 0.41327 0.11282 0.12737 0.0
C137 C 0.4131 0.1146 0.14454 0.0
C138 C 0.53607 0.19034 0.19417 0.0
C139 C 0.55706 0.06812 0.16436 0.0
O140 O 0.59374 1.03214 0.20139 0.0
O141 O 0.58215 0.07093 0.2234 0.0
O142 O 0.4779 1.04261 0.21199 0.0
O143 O 0.47601 1.04086 0.21219 0.0
O144 O 0.52855 0.12874 0.22311 0.0
O145 O 0.45824 0.13349 0.2134 0.0
O146 O 0.46214 1.05301 0.17899 0.0
O147 O 0.43601 0.12271 0.17907 0.0
O148 O 0.55581 0.14958 0.19367 0.0
O149 O 0.4923 0.18111 0.19397 0.0
O150 O 0.53337 0.10482 0.1683 0.0
O151 O 0.55937 1.04387 0.17808 0.0
H152 H 0.64252 0.09637 0.1887 0.0
H153 H 0.67989 0.16969 0.19315 0.0
H154 H 0.71586 0.12836 0.24233 0.0
H155 H 0.67815 1.05499 0.23802 0.0
H156 H 0.47747 1.01942 0.15171 0.0
H157 H 0.47992 1.01812 1.12185 0.0
H158 H 0.39327 0.13805 1.12083 0.0
H159 H 0.39428 0.14164 0.15071 0.0
Tb160 Tb 0.29174 0.83774 0.30068 0.0
Tb161 Tb 0.2622 0.89039 0.30891 0.0
C162 C 0.32431 0.7638 0.28994 0.0
C163 C 0.29707 0.72183 0.28845 0.0
C164 C 0.25777 0.71815 0.29844 0.0
C165 C 0.21728 0.70081 0.29182 0.0
C166 C 0.21635 0.68677 0.27537 0.0
C167 C 0.25777 0.68119 0.26676 0.0
C168 C 0.29821 0.69868 0.27332 0.0
C169 C 0.33421 0.90866 0.27582 0.0
C170 C 0.2321 0.87238 0.27472 0.0
C171 C 0.25608 0.96929 0.32115 0.0
C172 C 0.26221 1.01615 0.31515 0.0
C173 C 0.30224 1.03058 0.30712 0.0
C174 C 0.3096 0.07727 0.30429 0.0
C175 C 0.27747 0.1098 0.30987 0.0
C176 C 0.23463 0.09401 0.31547 0.0
C177 C 0.22737 1.04769 0.31823 0.0
C178 C 0.17923 0.84243 0.3081 0.0
C179 C 0.30457 0.83224 0.33949 0.0
O180 O 0.33192 0.77885 0.30482 0.0
O181 O 0.30926 0.79626 0.28051 0.0
O182 O 0.32828 0.89947 0.29217 0.0
O183 O 0.32969 0.90105 0.292 0.0
O184 O 0.2419 0.83242 0.28073 0.0
O185 O 0.24308 0.90719 0.28388 0.0
O186 O 0.222 0.94734 0.3147 0.0
O187 O 0.29231 0.94356 0.32269 0.0
O188 O 0.22031 0.82621 0.31149 0.0
O189 O 0.1868 0.88512 0.30479 0.0
O190 O 0.27288 0.86303 0.33571 0.0
O191 O 0.32331 0.81799 0.32562 0.0
H192 H 0.25616 0.73526 0.3103 0.0
H193 H 0.18585 0.70402 0.29871 0.0
H194 H 0.25769 0.66952 0.25406 0.0
H195 H 0.32808 0.70091 0.26544 0.0
H196 H 0.32891 1.00633 0.30406 0.0
H197 H 0.3425 0.08817 0.29957 0.0
H198 H 0.20857 0.11735 0.31987 0.0
H199 H 0.19566 1.03692 0.32397 0.0
Tb200 Tb 0.48653 1.03877 0.54781 0.0
Tb201 Tb 0.43774 1.00374 0.55442 0.0
C202 C 0.55343 0.08772 0.53996 0.0
C203 C 0.60123 0.07478 0.53892 0.0
C204 C 0.61686 1.03696 0.54799 0.0
C205 C 0.65228 1.00988 0.54181 0.0
C206 C 0.67148 1.02002 0.52639 0.0
C207 C 0.6586 0.0609 0.51839 0.0
C208 C 0.62476 0.08872 0.5249 0.0
C209 C 0.41387 0.07326 0.52184 0.0
C210 C 0.46986 0.9776 0.52074 0.0
C211 C 0.35805 0.99533 0.56599 0.0
C212 C 0.31452 1.01986 0.56475 0.0
C213 C 0.31271 0.06379 0.5578 0.0
C214 C 0.27981 0.09508 0.56323 0.0
C215 C 0.24959 0.08271 0.57594 0.0
C216 C 0.24531 1.03585 0.57986 0.0
C217 C 0.27818 1.0047 0.57447 0.0
C218 C 0.48886 0.92259 0.55423 0.0
C219 C 0.49194 1.04455 0.5865 0.0
O220 O 0.53517 0.08844 0.5546 0.0
O221 O 0.5283 0.0656 0.52939 0.0
O222 O 0.42322 0.06948 0.53826 0.0
O223 O 0.42143 0.07086 0.53811 0.0
O224 O 0.50599 0.99473 0.52751 0.0
O225 O 0.43203 0.98164 0.52906 0.0
O226 O 0.37247 0.97328 0.55304 0.0
O227 O 0.39068 1.0186 0.57305 0.0
O228 O 0.50418 0.96506 0.55639 0.0
O229 O 0.44532 0.92799 0.55212 0.0
O230 O 0.46408 1.01106 0.58167 0.0
O231 O 0.50394 0.06735 0.57334 0.0
H232 H 0.59848 1.02539 0.55881 0.0
H233 H 0.6616 0.97891 0.54828 0.0
H234 H 0.67049 0.06925 0.50615 0.0
H235 H 0.6124 0.11719 0.51762 0.0
H236 H 0.33969 0.07579 0.54983 0.0
H237 H 0.28251 0.13044 0.55934 0.0
H238 H 0.22157 1.0244 0.58924 0.0
H239 H 0.27846 0.97057 0.57968 0.0
Tb240 Tb 0.36978 0.25427 0.80219 0.0
Tb241 Tb 0.40782 0.21043 0.80749 0.0
C242 C 0.31269 0.31686 0.79781 0.0
C243 C 0.3186 0.3656 0.80011 0.0
C244 C 0.29523 0.39402 0.78934 0.0
C245 C 0.3176 0.43179 0.78297 0.0
C246 C 0.3637 0.44024 0.78723 0.0
C247 C 0.38146 0.41901 0.80129 0.0
C248 C 0.35896 0.38097 0.80767 0.0
C249 C 0.33504 0.18575 0.77491 0.0
C250 C 0.42993 0.24768 0.77426 0.0
C251 C 0.42565 0.13248 0.81871 0.0
C252 C 0.41475 0.08533 0.81472 0.0
C253 C 0.38052 0.07456 0.80329 0.0
C254 C 0.36107 1.03101 0.80336 0.0
C255 C 0.37526 0.99899 0.81516 0.0
C256 C 0.41522 1.00766 0.82428 0.0
C257 C 0.43456 1.051 0.82418 0.0
C258 C 0.48565 0.26375 0.80739 0.0
C259 C 0.36604 0.25911 0.84039 0.0
O260 O 0.31445 0.29261 0.81119 0.0
O261 O 0.33839 0.30005 0.78609 0.0
O262 O 0.34302 0.19037 0.79141 0.0
O263 O 0.34193 0.1887 0.79117 0.0
O264 O 0.40933 0.28112 0.78171 0.0
O265 O 0.42817 0.20848 0.78184 0.0
O266 O 0.45104 0.15349 0.80803 0.0
O267 O 0.39147 0.15763 0.82385 0.0
O268 O 0.44298 0.27736 0.81049 0.0
O269 O 0.48188 0.22077 0.80378 0.0
O270 O 0.40322 0.23807 0.83477 0.0
O271 O 0.33958 0.26528 0.82775 0.0
H272 H 0.26342 0.38301 0.78377 0.0
H273 H 0.30128 0.44855 0.77268 0.0
H274 H 0.41539 0.42717 0.80571 0.0
H275 H 0.37668 0.35971 0.81651 0.0
H276 H 0.36602 0.10068 0.79548 0.0
H277 H 0.33121 1.02473 0.79584 0.0
H278 H 0.42756 0.98352 0.83334 0.0
H279 H 0.46187 1.05885 0.83274 0.0
Tb280 Tb 0.06796 0.10778 1.0495 0.0
Tb281 Tb 0.1106 0.13745 1.05866 0.0
C282 C 0.99473 0.0696 1.0406 0.0
C283 C 0.94955 0.08869 1.04425 0.0
C284 C 0.94832 0.12377 1.05621 0.0
C285 C 0.92823 0.1656 1.05229 0.0
C286 C 0.90931 0.17112 1.03662 0.0
C287 C 0.89656 0.1314 1.0278 0.0
C288 C 0.91797 0.08994 1.03138 0.0
C289 C 0.13365 0.06086 1.02494 0.0
C290 C 0.12311 0.16566 1.02522 0.0
C291 C 0.18053 0.12962 1.07627 0.0
C292 C 0.22672 0.11111 1.07353 0.0
C293 C 0.25732 0.13114 1.06226 0.0
C294 C 0.30225 0.11525 1.06099 0.0
C295 C 0.31759 0.07971 1.0712 0.0
C296 C 0.28583 1.0581 1.08172 0.0
C297 C 0.241 0.0736 1.08283 0.0
C298 C 0.06335 0.22156 1.05589 0.0
C299 C 1.05472 0.10101 1.0885 0.0
O300 O 1.01816 1.05656 1.05329 0.0
O301 O 1.01921 0.09561 1.03108 0.0
O302 O 0.12838 0.07126 1.04135 0.0
O303 O 0.13015 0.06968 1.04103 0.0
O304 O 0.08244 0.1465 1.02637 0.0
O305 O 0.14508 0.16818 1.03886 0.0
O306 O 0.16997 0.16683 1.06833 0.0
O307 O 0.1473 0.09969 1.07622 0.0
O308 O 1.04619 0.17985 1.05744 0.0
O309 O 0.10715 0.21411 1.05567 0.0
O310 O 0.07606 0.13858 1.08413 0.0
O311 O 1.05196 0.07553 1.07508 0.0
H312 H 0.97073 0.12269 1.0668 0.0
H313 H 0.93561 0.19499 1.05997 0.0
H314 H 0.88061 0.1345 1.01584 0.0
H315 H 0.91714 0.06274 1.02226 0.0
H316 H 0.24717 0.16011 1.05483 0.0
H317 H 0.32574 0.13269 1.05281 0.0
H318 H 0.29624 1.03165 1.09023 0.0
H319 H 0.21805 1.05761 1.0916 0.0
Tb320 Tb 0.84825 0.91354 0.80234 0.0
Tb321 Tb 0.81638 0.85804 0.79504 0.0
C322 C 0.85645 0.9961 0.8113 0.0
C323 C 0.82195 1.02979 0.81601 0.0
C324 C 0.77567 1.01714 0.81644 0.0
C325 C 0.74512 1.04166 0.8263 0.0
C326 C 0.76134 0.07778 0.83616 0.0
C327 C 0.80523 0.09569 0.83289 0.0
C328 C 0.83572 0.0712 0.82305 0.0
C329 C 0.93047 0.86309 0.80218 0.0
C330 C 0.80403 0.85818 0.83405 0.0
C331 C 0.7767 0.78604 0.78606 0.0
C332 C 0.79808 0.74074 0.78676 0.0
C333 C 0.83548 0.7353 0.79748 0.0
C334 C 0.87264 0.70846 0.7927 0.0
C335 C 0.87203 0.68643 0.77739 0.0
C336 C 0.83117 0.68467 0.76834 0.0
C337 C 0.79419 0.712 0.77299 0.0
C338 C 0.77798 0.93297 0.77057 0.0
C339 C 0.87878 0.88283 0.7685 0.0
O340 O 0.85555 0.98298 0.79605 0.0
O341 O 0.85982 0.9614 0.82123 0.0
O342 O 0.88879 0.84762 0.80504 0.0
O343 O 0.92407 0.90621 0.79938 0.0
O344 O 0.82704 0.89568 0.82957 0.0
O345 O 0.79346 0.83489 0.82071 0.0
O346 O 0.76849 0.806 0.80017 0.0
O347 O 0.79775 0.81341 0.77594 0.0
O348 O 0.78135 0.92083 0.78672 0.0
O349 O 0.77996 0.92242 0.7866 0.0
O350 O 0.86255 0.84539 0.77465 0.0
O351 O 0.87352 0.9198 0.77726 0.0
H352 H 0.76435 0.98548 0.8108 0.0
H353 H 0.71125 1.02774 0.82833 0.0
H354 H 0.81883 0.12393 0.84005 0.0
H355 H 0.87118 0.08181 0.82252 0.0
H356 H 0.8393 0.75717 0.8082 0.0
H357 H 0.90386 0.71009 0.79981 0.0
H358 H 0.83033 0.66778 0.75642 0.0
H359 H 0.76588 0.71587 0.76453 0.0
Tb360 Tb 0.98834 0.11139 0.56364 0.0
Tb361 Tb 1.02739 0.08367 0.55394 0.0
C362 C 0.93221 0.0898 0.58577 0.0
C363 C 0.93609 0.08399 0.60384 0.0
C364 C 0.95069 1.04177 0.6104 0.0
C365 C 0.95442 1.03558 0.62738 0.0
C366 C 0.94244 0.07103 0.63824 0.0
C367 C 0.92896 0.11359 0.6317 0.0
C368 C 0.92591 0.12004 0.61469 0.0
C369 C 1.03294 0.19603 0.56116 0.0
C370 C 1.04769 0.07759 0.59238 0.0
C371 C 0.09611 1.04006 0.54373 0.0
C372 C 0.14443 1.05018 0.54525 0.0
C373 C 0.17204 1.03261 0.53278 0.0
C374 C 0.19991 0.06263 0.52418 0.0
C375 C 0.20021 0.10968 0.52849 0.0
C376 C 0.18502 0.12183 0.54433 0.0
C377 C 0.15625 0.09191 0.55275 0.0
C378 C 0.9615 1.04247 0.52823 0.0
C379 C 0.97364 0.14624 0.53159 0.0
O380 O 0.9556 0.06016 0.57713 0.0
O381 O 0.9348 0.13121 0.57963 0.0
O382 O 1.05146 0.15472 0.56159 0.0
O383 O 0.98887 0.18836 0.5618 0.0
O384 O 1.0284 0.11591 0.58792 0.0
O385 O 1.04568 1.0509 0.57927 0.0
O386 O 0.0749 1.03057 0.55731 0.0
O387 O 0.07392 0.06993 0.535 0.0
O388 O 0.96647 1.05014 0.54481 0.0
O389 O 0.96461 1.04863 0.54447 0.0
O390 O 1.01518 0.12902 0.53241 0.0
O391 O 0.95003 0.14327 0.54504 0.0
H392 H 0.9591 1.01318 0.60241 0.0
H393 H 0.96537 1.00265 0.63201 0.0
H394 H 0.91851 0.14138 0.63975 0.0
H395 H 0.91458 0.15287 0.61006 0.0
H396 H 0.16477 0.99936 0.52739 0.0
H397 H 0.21353 1.05001 0.51265 0.0
H398 H 0.18952 0.15621 0.54902 0.0
H399 H 0.13684 0.10488 0.56316 0.0
Tb400 Tb 0.70796 0.22932 0.30434 0.0
Tb401 Tb 0.74527 0.27159 0.29949 0.0
C402 C 0.69675 0.15243 0.31768 0.0
C403 C 0.71474 0.10615 0.31539 0.0
C404 C 0.75959 0.09927 0.3099 0.0
C405 C 0.77923 1.05591 0.31069 0.0
C406 C 0.75464 1.01876 0.31715 0.0
C407 C 0.70832 1.02543 0.32141 0.0
C408 C 0.68856 0.06876 0.32046 0.0
C409 C 0.62872 0.28044 0.30308 0.0
C410 C 0.74949 0.27672 0.33741 0.0
C411 C 0.79494 0.34033 0.29509 0.0
C412 C 0.77738 0.38671 0.29714 0.0
C413 C 0.74011 0.39319 0.3079 0.0
C414 C 0.70699 0.42568 0.30423 0.0
C415 C 0.71024 0.44991 0.28947 0.0
C416 C 0.7526 0.45143 0.28123 0.0
C417 C 0.78589 0.41888 0.28481 0.0
C418 C 0.78349 0.20575 0.27213 0.0
C419 C 0.69122 0.26234 0.27007 0.0
O420 O 0.72626 0.18295 0.32272 0.0
O421 O 0.67066 0.16794 0.30601 0.0
O422 O 0.67082 0.29486 0.30651 0.0
O423 O 0.63354 0.23717 0.29989 0.0
O424 O 0.70996 0.26283 0.33102 0.0
O425 O 0.77799 0.27599 0.32504 0.0
O426 O 0.79649 0.31584 0.30845 0.0
O427 O 0.77517 0.31831 0.28312 0.0
O428 O 0.77331 0.2086 0.28852 0.0
O429 O 0.77441 0.20696 0.28827 0.0
O430 O 0.71055 0.29591 0.27774 0.0
O431 O 0.68948 0.22418 0.27833 0.0
H432 H 0.78051 0.12794 0.30613 0.0
H433 H 0.815 1.05245 0.30768 0.0
H434 H 0.68829 0.99856 0.32705 0.0
H435 H 0.65385 0.07363 0.3248 0.0
H436 H 0.73333 0.36942 0.31783 0.0
H437 H 0.67574 0.42606 0.31132 0.0
H438 H 0.75614 0.47023 0.26984 0.0
H439 H 0.81454 0.41462 0.27646 0.0
Tb440 Tb 0.68088 0.97706 1.05781 0.0
Tb441 Tb 0.63372 1.01509 1.05329 0.0
C442 C 0.76207 0.96379 1.06731 0.0
C443 C 0.80503 0.98954 1.06605 0.0
C444 C 0.80781 1.02876 1.05613 0.0
C445 C 0.83552 0.06548 1.06093 0.0
C446 C 0.86079 0.06256 1.07557 0.0
C447 C 0.86589 1.01927 1.083 0.0
C448 C 0.8374 0.98316 1.07845 0.0
C449 C 0.62906 0.89748 1.05765 0.0
C450 C 0.6313 1.01904 1.09143 0.0
C451 C 0.56865 0.06824 1.04713 0.0
C452 C 0.52059 1.05806 1.04445 0.0
C453 C 0.5007 0.07789 1.03064 0.0
C454 C 0.46612 1.05502 1.02242 0.0
C455 C 0.44866 1.01327 1.02845 0.0
C456 C 0.46463 0.99669 1.0436 0.0
C457 C 0.50088 1.01878 1.05151 0.0
C458 C 0.70611 1.04875 1.02647 0.0
C459 C 0.63616 0.95952 1.02462 0.0
O460 O 0.74524 0.94619 1.05389 0.0
O461 O 0.73078 0.98457 1.076 0.0
O462 O 0.61465 0.9399 1.0607 0.0
O463 O 0.6721 0.90221 1.05434 0.0
O464 O 0.65531 0.98338 1.08564 0.0
O465 O 0.62189 1.04468 1.07881 0.0
O466 O 0.58462 0.06222 1.06195 0.0
O467 O 0.59478 1.04991 1.03593 0.0
O468 O 0.69744 1.04395 1.04289 0.0
O469 O 0.69925 1.04524 1.04279 0.0
O470 O 0.60398 0.97539 1.0338 0.0
O471 O 0.67673 0.96082 1.03129 0.0
H472 H 0.78489 1.03329 1.04591 0.0
H473 H 0.83204 0.09794 1.05465 0.0
H474 H 0.88582 1.0153 1.09414 0.0
H475 H 0.83645 0.95278 1.08607 0.0
H476 H 0.51619 0.10755 1.02486 0.0
H477 H 0.45673 0.06808 1.01044 0.0
H478 H 0.4517 0.96486 1.0486 0.0
H479 H 0.51634 1.00264 1.06212 0.0
Tb480 Tb 0.90577 0.20068 0.94398 0.0
Tb481 Tb 0.86904 0.24902 0.94967 0.0
C482 C 0.91124 0.12064 0.93256 0.0
C483 C 0.87265 0.09937 0.92375 0.0
C484 C 0.82857 0.11763 0.92607 0.0
C485 C 0.7939 0.10939 0.91476 0.0
C486 C 0.80266 0.08269 0.90083 0.0
C487 C 0.84542 0.06095 0.89914 0.0
C488 C 0.88039 0.06951 0.9105 0.0
C489 C 0.9855 0.25297 0.94433 0.0
C490 C 0.86338 0.25224 0.91099 0.0
C491 C 0.80887 0.30823 0.95431 0.0
C492 C 0.80775 0.35668 0.95083 0.0
C493 C 0.84541 0.3766 0.94288 0.0
C494 C 0.86078 0.41935 0.94807 0.0
C495 C 0.83932 0.4409 0.96153 0.0
C496 C 0.79552 0.42506 0.96636 0.0
C497 C 0.77967 0.38314 0.96082 0.0
C498 C 0.83446 0.18077 0.97709 0.0
C499 C 0.93044 0.24352 0.97714 0.0
O500 O 0.90496 0.12911 0.94813 0.0
O501 O 0.92791 0.1562 0.92513 0.0
O502 O 0.94313 0.26747 0.94143 0.0
O503 O 0.98067 0.20961 0.94759 0.0
O504 O 0.88931 0.21762 0.91609 0.0
O505 O 0.84802 0.27295 0.92409 0.0
O506 O 0.80948 0.28128 0.94146 0.0
O507 O 0.83931 0.2971 0.96538 0.0
O508 O 0.84131 0.18544 0.96049 0.0
O509 O 0.84027 0.18403 0.96079 0.0
O510 O 0.90788 0.27575 0.96988 0.0
O511 O 0.93253 0.20416 0.96924 0.0
H512 H 0.82149 0.14149 0.93581 0.0
H513 H 0.76129 0.12645 0.91631 0.0
H514 H 0.85298 1.0404 0.88832 0.0
H515 H 0.91418 1.05571 0.90824 0.0
H516 H 0.86687 0.35664 0.93469 0.0
H517 H 0.89296 0.43193 0.94328 0.0
H518 H 0.77648 0.43964 0.97647 0.0
H519 H 0.74995 0.36819 0.96673 0.0
Tb520 Tb 0.62062 0.1338 0.69091 0.0
Tb521 Tb 0.57039 0.09947 0.69808 0.0
C522 C 0.69944 0.14276 0.67882 0.0
C523 C 0.74612 0.13063 0.68358 0.0
C524 C 0.75543 0.09335 0.69394 0.0
C525 C 0.80049 0.07845 0.69612 0.0
C526 C 0.83649 0.10046 0.68779 0.0
C527 C 0.82693 0.14081 0.67893 0.0
C528 C 0.78218 0.15558 0.67683 0.0
C529 C 0.56822 0.21381 0.69162 0.0
C530 C 0.56503 0.09232 0.65933 0.0
C531 C 0.49946 1.05666 0.70638 0.0
C532 C 0.45359 0.07671 0.70548 0.0
C533 C 0.44945 0.11504 0.69509 0.0
C534 C 0.43464 0.15656 0.70178 0.0
C535 C 0.42192 0.15847 0.71831 0.0
C536 C 0.41187 0.11722 0.72653 0.0
C537 C 0.42776 0.07586 0.72002 0.0
C538 C 0.64154 0.061 0.72355 0.0
C539 C 0.59513 0.1611 0.72498 0.0
O540 O 0.67965 0.17367 0.68788 0.0
O541 O 0.67203 0.10888 0.6752 0.0
O542 O 0.55435 0.17164 0.68809 0.0
O543 O 0.61111 0.20886 0.6951 0.0
O544 O 0.59332 0.1258 0.66384 0.0
O545 O 0.553 0.07016 0.67267 0.0
O546 O 0.52027 1.04985 0.69238 0.0
O547 O 0.52575 0.07819 0.71677 0.0
O548 O 0.6339 0.06771 0.70714 0.0
O549 O 0.63552 0.06648 0.70733 0.0
O550 O 0.5575 0.14569 0.71863 0.0
O551 O 0.63182 0.15448 0.71623 0.0
H552 H 0.72782 0.07435 0.69957 0.0
H553 H 0.80675 1.04778 0.70323 0.0
H554 H 0.85347 0.15867 0.6722 0.0
H555 H 0.77559 0.18491 0.66904 0.0
H556 H 0.46701 0.11593 0.68332 0.0
H557 H 0.44037 0.18767 0.69509 0.0
H558 H 0.40026 0.11788 0.73923 0.0
H559 H 0.42878 1.04617 0.72798 0.0
Tb560 Tb 0.76672 0.8856 0.44312 0.0
Tb561 Tb 0.79266 0.84539 0.45289 0.0
C562 C 0.78747 0.94093 0.42078 0.0
C563 C 0.79098 0.93395 0.4028 0.0
C564 C 0.83395 0.92527 0.3956 0.0
C565 C 0.83784 0.91624 0.37878 0.0
C566 C 0.79901 0.91694 0.36869 0.0
C567 C 0.75585 0.92389 0.37602 0.0
C568 C 0.75186 0.93213 0.39289 0.0
C569 C 0.68036 0.8444 0.44514 0.0
C570 C 0.80337 0.82471 0.41463 0.0
C571 C 0.83035 0.77323 0.4633 0.0
C572 C 0.81489 0.72613 0.46117 0.0
C573 C 0.77628 0.7189 0.45123 0.0
C574 C 0.74188 0.68978 0.45679 0.0
C575 C 0.7467 0.66898 0.47216 0.0
C576 C 0.79087 0.66488 0.47884 0.0
C577 C 0.82497 0.69484 0.47361 0.0
C578 C 0.83199 0.91363 0.4787 0.0
C579 C 0.73089 0.90116 0.47519 0.0
O580 O 0.81757 0.91811 0.42925 0.0
O581 O 0.74686 0.93952 0.42755 0.0
O582 O 0.72094 0.82437 0.44457 0.0
O583 O 0.68987 0.88818 0.44493 0.0
O584 O 0.76404 0.84196 0.41929 0.0
O585 O 0.82931 0.8289 0.42782 0.0
O586 O 0.84258 0.7941 0.44995 0.0
O587 O 0.80248 0.79824 0.47198 0.0
O588 O 0.82769 0.90556 0.46215 0.0
O589 O 0.82937 0.90751 0.46244 0.0
O590 O 0.74653 0.85895 0.47427 0.0
O591 O 0.73626 0.92507 0.46195 0.0
H592 H 0.86473 0.9257 0.40299 0.0
H593 H 0.87151 0.91118 0.3735 0.0
H594 H 0.72523 0.92605 0.36861 0.0
H595 H 0.71823 0.93801 0.39807 0.0
H596 H 0.76878 0.74179 0.44111 0.0
H597 H 0.70899 0.69107 0.45089 0.0
H598 H 0.79566 0.64764 0.49049 0.0
H599 H 0.85514 0.69919 0.48117 0.0
Tb600 Tb 0.92833 1.00324 0.19042 0.0
Tb601 Tb 0.98311 1.03389 0.19961 0.0
C602 C 0.85261 1.00639 0.17582 0.0
C603 C 0.84111 1.04288 0.16413 0.0
C604 C 0.86726 0.08341 0.16423 0.0
C605 C 0.86788 0.11214 0.15052 0.0
C606 C 0.84155 0.10128 0.13667 0.0
C607 C 0.81184 0.06324 0.1373 0.0
C608 C 0.81191 1.03401 0.1509 0.0
C609 C 0.9785 0.92136 0.19155 0.0
C610 C 0.98734 1.04875 0.1608 0.0
C611 C 1.05413 0.06883 0.21168 0.0
C612 C 0.09753 1.04495 0.21371 0.0
C613 C 0.10531 1.00515 0.20427 0.0
C614 C 0.13372 0.97077 0.21024 0.0
C615 C 0.15482 0.97621 0.22552 0.0
C616 C 0.1512 1.01797 0.23405 0.0
C617 C 0.12251 1.0523 0.22817 0.0
C618 C 0.90653 0.07059 0.2232 0.0
C619 C 0.94707 0.96834 0.22421 0.0
O620 O 0.85796 1.01937 0.191 0.0
O621 O 0.88615 0.98039 0.17108 0.0
O622 O 0.99413 0.96297 0.18865 0.0
O623 O 0.93489 0.92727 0.19411 0.0
O624 O 0.95326 1.02067 0.16413 0.0
O625 O 1.00563 0.06331 0.17468 0.0
O626 O 1.04089 0.07631 0.19661 0.0
O627 O 1.02179 1.05062 0.22042 0.0
O628 O 0.92079 0.06921 0.20724 0.0
O629 O 0.91901 0.07088 0.20736 0.0
O630 O 0.98628 0.98508 0.21967 0.0
O631 O 0.91302 0.97319 0.21403 0.0
H632 H 0.89049 0.0907 0.17427 0.0
H633 H 0.89149 0.14073 0.15024 0.0
H634 H 0.79192 1.05342 0.12662 0.0
H635 H 0.79204 1.00271 0.15048 0.0
H636 H 0.08568 0.99844 0.19322 0.0
H637 H 0.13643 0.93865 0.20365 0.0
H638 H 0.16733 1.02236 0.24596 0.0
H639 H 0.11617 0.08226 0.23576 0.0
Tb640 Tb 0.74367 0.78126 0.94643 0.0
Tb641 Tb 0.71102 0.73251 0.93867 0.0
C642 C 0.78758 0.85176 0.95467 0.0
C643 C 0.77226 0.89902 0.95298 0.0
C644 C 0.73471 0.90726 0.9426 0.0
C645 C 0.70005 0.93668 0.94785 0.0
C646 C 0.70333 0.95746 0.96335 0.0
C647 C 0.74566 0.95744 0.97154 0.0
C648 C 0.78038 0.92836 0.96626 0.0
C649 C 0.78523 0.71239 0.97162 0.0
C650 C 0.68648 0.7481 0.97354 0.0
C651 C 0.70191 0.655 0.92549 0.0
C652 C 0.71308 0.6082 0.93017 0.0
C653 C 0.74531 0.59892 0.9425 0.0
C654 C 0.76181 0.5544 0.94448 0.0
C655 C 0.74646 0.51925 0.934 0.0
C656 C 0.70953 0.528 0.92335 0.0
C657 C 0.69325 0.57229 0.92137 0.0
C658 C 0.62911 0.78254 0.94116 0.0
C659 C 0.75175 0.78866 0.90732 0.0
O660 O 0.795 0.82952 0.94101 0.0
O661 O 0.76225 0.82823 0.96477 0.0
O662 O 0.77727 0.71853 0.95514 0.0
O663 O 0.77859 0.71691 0.95539 0.0
O664 O 0.70168 0.78763 0.96857 0.0
O665 O 0.69175 0.71429 0.9633 0.0
O666 O 0.67056 0.67457 0.93435 0.0
O667 O 0.7365 0.68215 0.92261 0.0
O668 O 0.67065 0.79815 0.93764 0.0
O669 O 0.63595 0.73925 0.94349 0.0
O670 O 0.71932 0.7591 0.91157 0.0
O671 O 0.7721 0.80168 0.92097 0.0
H672 H 0.7282 0.88533 0.93206 0.0
H673 H 0.66824 0.93738 0.94115 0.0
H674 H 0.74896 0.97248 0.98367 0.0
H675 H 0.80926 0.92262 0.97434 0.0
H676 H 0.75993 0.62637 0.94976 0.0
H677 H 0.78973 0.54851 0.95293 0.0
H678 H 0.69675 0.50185 0.91504 0.0
H679 H 0.66755 0.57893 0.91209 0.0
Tb680 Tb 0.62529 0.51236 0.20109 0.0
Tb681 Tb 0.67473 0.47484 0.19616 0.0
C682 C 0.55744 0.56368 0.20564 0.0
C683 C 0.50955 0.55083 0.20377 0.0
C684 C 0.49976 0.50904 0.19585 0.0
C685 C 0.46377 0.48209 0.20152 0.0
C686 C 0.43777 0.49742 0.21492 0.0
C687 C 0.44063 0.54359 0.21981 0.0
C688 C 0.47747 0.57004 0.21454 0.0
C689 C 0.69718 0.54576 0.22812 0.0
C690 C 0.63167 0.4552 0.22952 0.0
C691 C 0.75691 0.46376 0.18698 0.0
C692 C 0.79847 0.49182 0.18862 0.0
C693 C 0.79766 0.53151 0.19846 0.0
C694 C 0.82083 0.57078 0.19326 0.0
C695 C 0.8461 0.56942 0.17859 0.0
C696 C 0.85721 0.52634 0.1718 0.0
C697 C 0.83205 0.4878 0.17641 0.0
C698 C 0.62234 0.3953 0.19603 0.0
C699 C 0.62571 0.51672 0.16277 0.0
O700 O 0.58156 0.56371 0.19213 0.0
O701 O 0.57793 0.54156 0.21742 0.0
O702 O 0.68811 0.54187 0.21171 0.0
O703 O 0.68991 0.54322 0.21183 0.0
O704 O 0.59873 0.47363 0.22139 0.0
O705 O 0.67148 0.45536 0.22221 0.0
O706 O 0.73985 0.44588 0.20028 0.0
O707 O 0.72523 0.4828 0.17808 0.0
O708 O 0.60855 0.43764 0.19264 0.0
O709 O 0.66523 0.39991 0.19957 0.0
O710 O 0.65062 0.48161 0.16832 0.0
O711 O 0.61422 0.54132 0.17553 0.0
H712 H 0.52405 0.49389 0.18733 0.0
H713 H 0.4615 0.4468 0.19745 0.0
H714 H 0.42013 0.55607 0.23002 0.0
H715 H 0.48434 0.60238 0.22064 0.0
H716 H 0.77461 0.53417 0.20874 0.0
H717 H 0.81302 0.6033 0.19906 0.0
H718 H 0.87764 0.52411 0.16066 0.0
H719 H 0.83419 0.45714 0.16888 0.0
Tb720 Tb 0.8148 0.36703 0.44829 0.0
Tb721 Tb 0.84202 0.40678 0.43886 0.0
C722 C 0.77656 0.29693 0.46008 0.0
C723 C 0.79421 0.25175 0.4637 0.0
C724 C 0.83293 0.23516 0.45532 0.0
C725 C 0.86191 0.20401 0.46305 0.0
C726 C 0.85294 0.19059 0.47932 0.0
C727 C 0.8119 0.20474 0.48693 0.0
C728 C 0.78208 0.23373 0.47893 0.0
C729 C 0.77523 0.43513 0.47396 0.0
C730 C 0.87685 0.41994 0.47104 0.0
C731 C 0.82285 0.46358 0.41682 0.0
C732 C 0.81722 0.45671 0.39895 0.0
C733 C 0.77305 0.44999 0.39249 0.0
C734 C 0.76701 0.43663 0.37614 0.0
C735 C 0.80495 0.43117 0.36578 0.0
C736 C 0.84908 0.43821 0.37223 0.0
C737 C 0.85518 0.4506 0.38865 0.0
C738 C 0.92744 0.36244 0.4408 0.0
C739 C 0.80242 0.34759 0.41018 0.0
O740 O 0.77365 0.30849 0.44472 0.0
O741 O 0.79601 0.32856 0.46878 0.0
O742 O 0.78006 0.42734 0.45742 0.0
O743 O 0.77832 0.42936 0.45769 0.0
O744 O 0.86352 0.37728 0.46896 0.0
O745 O 0.86958 0.44624 0.45855 0.0
O746 O 0.79232 0.44198 0.42554 0.0
O747 O 0.86386 0.45979 0.42311 0.0
O748 O 0.88617 0.34394 0.44054 0.0
O749 O 0.91925 0.40657 0.44041 0.0
O750 O 0.84248 0.36291 0.41495 0.0
O751 O 0.77653 0.35293 0.42339 0.0
H752 H 0.84308 0.24947 0.44356 0.0
H753 H 0.89292 0.1933 0.45688 0.0
H754 H 0.8045 0.19748 0.49972 0.0
H755 H 0.75292 0.24713 0.48567 0.0
H756 H 0.74307 0.45389 0.40023 0.0
H757 H 0.73271 0.43119 0.37156 0.0
H758 H 0.87909 0.4356 0.36445 0.0
H759 H 0.88959 0.45506 0.39327 0.0
Tb760 Tb 1.0428 0.58693 0.70315 0.0
Tb761 Tb 0.99232 0.61603 0.69402 0.0
C762 C 0.1163 0.55533 0.71433 0.0
C763 C 0.15936 0.58125 0.71413 0.0
C764 C 0.16711 0.6119 0.70102 0.0
C765 C 0.18596 0.65508 0.70413 0.0
C766 C 0.19665 0.66761 0.72031 0.0
C767 C 0.19763 0.63357 0.73254 0.0
C768 C 0.17985 0.59016 0.72937 0.0
C769 C 0.97188 0.54408 0.72732 0.0
C770 C 0.99754 0.64528 0.72844 0.0
C771 C 0.91718 0.61784 0.67914 0.0
C772 C 0.86964 0.60502 0.68266 0.0
C773 C 0.85739 0.56052 0.68751 0.0
C774 C 0.81136 0.5476 0.68794 0.0
C775 C 0.77718 0.57881 0.68327 0.0
C776 C 0.78973 0.62461 0.68021 0.0
C777 C 0.83547 0.63746 0.67989 0.0
C778 C 1.04166 0.69923 0.69579 0.0
C779 C 1.05204 0.57438 0.66412 0.0
O780 O 0.09965 0.54309 0.70012 0.0
O781 O 0.08523 0.57472 0.72342 0.0
O782 O 0.98119 0.55008 0.71096 0.0
O783 O 0.97956 0.54862 0.71117 0.0
O784 O 1.03916 0.63394 0.72432 0.0
O785 O 0.96628 0.63642 0.71765 0.0
O786 O 0.93316 0.6521 0.68763 0.0
O787 O 0.94694 0.58477 0.67746 0.0
O788 O 0.05737 0.65773 0.69267 0.0
O789 O 0.99836 0.69212 0.69809 0.0
O790 O 1.02218 0.60703 0.66764 0.0
O791 O 0.06417 0.5551 0.67813 0.0
H792 H 0.15253 0.60551 0.68896 0.0
H793 H 0.18726 0.67999 0.69435 0.0
H794 H 0.2058 0.64247 0.74518 0.0
H795 H 0.1746 0.56706 0.73962 0.0
H796 H 0.88332 0.53503 0.68994 0.0
H797 H 0.80282 0.51219 0.69039 0.0
H798 H 0.76489 0.64967 0.67623 0.0
H799 H 0.84425 0.6721 0.6763 0.0
Tb800 Tb 0.80069 0.34123 0.79935 0.0
Tb801 Tb 0.77676 0.38809 0.81008 0.0
C802 C 0.82757 0.26882 0.78525 0.0
C803 C 0.7995 0.22802 0.78234 0.0
C804 C 0.76532 0.21681 0.7939 0.0
C805 C 0.72378 0.19864 0.78853 0.0
C806 C 0.71622 0.19234 0.77171 0.0
C807 C 0.7529 0.19608 0.76062 0.0
C808 C 0.79471 0.21333 0.76597 0.0
C809 C 0.8391 0.4152 0.77511 0.0
C810 C 0.73714 0.39514 0.77789 0.0
C811 C 0.79879 0.44715 0.83103 0.0
C812 C 0.80095 0.44442 0.84917 0.0
C813 C 0.8423 0.43212 0.85686 0.0
C814 C 0.84415 0.42506 0.87382 0.0
C815 C 0.8049 0.43106 0.88349 0.0
C816 C 0.76358 0.4433 0.8758 0.0
C817 C 0.76156 0.44975 0.85882 0.0
C818 C 0.69014 0.34683 0.80904 0.0
C819 C 0.81328 0.32391 0.83818 0.0
O820 O 0.83753 0.27898 0.80044 0.0
O821 O 0.81199 0.30429 0.7776 0.0
O822 O 0.83833 0.40136 0.79113 0.0
O823 O 0.84023 0.40321 0.79099 0.0
O824 O 0.74844 0.35224 0.78023 0.0
O825 O 0.74925 0.42353 0.78944 0.0
O826 O 0.82807 0.42045 0.82354 0.0
O827 O 0.75846 0.44634 0.82401 0.0
O828 O 0.73037 0.32656 0.80982 0.0
O829 O 0.6998 0.39059 0.80882 0.0
O830 O 0.77772 0.34972 0.83487 0.0
O831 O 0.83565 0.31892 0.82403 0.0
H832 H 0.76821 0.2275 0.80665 0.0
H833 H 0.69621 0.19404 0.79718 0.0
H834 H 0.74769 0.19039 0.74755 0.0
H835 H 0.82054 0.22166 0.75687 0.0
H836 H 0.87327 0.4274 0.84972 0.0
H837 H 0.87635 0.41567 0.87941 0.0
H838 H 0.73296 0.4495 0.883 0.0
H839 H 0.72922 0.45898 0.8533 0.0
Tb840 Tb 0.98192 0.53831 1.04593 0.0
Tb841 Tb 0.92924 0.51264 1.05576 0.0
C842 C 0.05646 0.57007 1.03551 0.0
C843 C 0.10212 0.5518 1.03837 0.0
C844 C 0.10587 0.50785 1.04521 0.0
C845 C 0.14201 0.47966 1.04053 0.0
C846 C 0.17443 0.49601 1.02934 0.0
C847 C 0.17694 0.54351 1.02639 0.0
C848 C 0.13964 0.5712 1.03036 0.0
C849 C 0.91263 0.58045 1.02085 0.0
C850 C 0.92911 0.48024 1.0217 0.0
C851 C 0.85392 0.52471 1.07062 0.0
C852 C 0.83943 0.53955 1.08703 0.0
C853 C 0.80894 0.5767 1.08825 0.0
C854 C 0.80445 0.60092 1.10304 0.0
C855 C 0.83075 0.5882 1.11662 0.0
C856 C 0.85832 0.54879 1.11574 0.0
C857 C 0.86272 0.52464 1.10104 0.0
C858 C 0.97647 0.4276 1.05428 0.0
C859 C 0.99068 0.55081 1.08543 0.0
O860 O 1.03542 0.58606 1.04841 0.0
O861 O 1.03041 0.54267 1.02702 0.0
O862 O 0.92317 0.57699 1.03726 0.0
O863 O 0.92137 0.5788 1.03697 0.0
O864 O 0.97155 0.4928 1.02446 0.0
O865 O 0.90104 0.48514 1.03387 0.0
O866 O 0.8767 0.55641 1.06305 0.0
O867 O 0.87299 0.48463 1.06874 0.0
O868 O 0.9929 0.46878 1.05745 0.0
O869 O 0.93315 0.43575 1.0517 0.0
O870 O 0.95787 0.52125 1.08211 0.0
O871 O 1.00493 0.56815 1.07127 0.0
H872 H 0.07752 0.49294 1.05188 0.0
H873 H 0.13976 0.44348 1.04315 0.0
H874 H 0.20273 0.55703 1.01813 0.0
H875 H 0.13767 0.60545 1.02532 0.0
H876 H 0.7909 0.58879 1.07746 0.0
H877 H 0.78218 0.6305 1.10368 0.0
H878 H 0.87749 0.53746 0.12637 0.0
H879 H 0.88611 0.49597 1.10042 0.0
Tb880 Tb 0.86028 0.74831 0.30403 0.0
Tb881 Tb 0.89827 0.70433 0.3093 0.0
C882 C 0.80697 0.81466 0.29962 0.0
C883 C 0.81848 0.86301 0.30097 0.0
C884 C 0.86218 0.87419 0.30691 0.0
C885 C 0.88666 0.90935 0.29943 0.0
C886 C 0.86667 0.93294 0.28633 0.0
C887 C 0.81894 0.93086 0.28433 0.0
C888 C 0.79514 0.89411 0.29106 0.0
C889 C 0.82502 0.67991 0.27671 0.0
C890 C 0.91901 0.73935 0.27568 0.0
C891 C 0.91476 0.62619 0.32063 0.0
C892 C 0.90504 0.5795 0.31552 0.0
C893 C 0.875 0.57014 0.30248 0.0
C894 C 0.85705 0.52617 0.30061 0.0
C895 C 0.86854 0.49218 0.31205 0.0
C896 C 0.90521 0.50002 0.32294 0.0
C897 C 0.92282 0.54381 0.32484 0.0
C898 C 0.97619 0.75706 0.30851 0.0
C899 C 0.85566 0.75204 0.34222 0.0
O900 O 0.80883 0.79173 0.31329 0.0
O901 O 0.82872 0.79382 0.28774 0.0
O902 O 0.83326 0.68448 0.2932 0.0
O903 O 0.83216 0.68279 0.29296 0.0
O904 O 0.89944 0.77329 0.28319 0.0
O905 O 0.91785 0.70061 0.28355 0.0
O906 O 0.94233 0.64833 0.31102 0.0
O907 O 0.87948 0.65082 0.3251 0.0
O908 O 0.93383 0.77095 0.31186 0.0
O909 O 0.9723 0.71395 0.30509 0.0
O910 O 0.89425 0.73421 0.33638 0.0
O911 O 0.82835 0.75514 0.32962 0.0
H912 H 0.88028 0.85091 0.31495 0.0
H913 H 0.92305 0.91164 0.30163 0.0
H914 H 0.80256 0.95042 0.27469 0.0
H915 H 0.76113 0.88639 0.28658 0.0
H916 H 0.86255 0.59733 0.2947 0.0
H917 H 0.82981 0.52056 0.29181 0.0
H918 H 0.91553 0.47439 0.3318 0.0
H919 H 0.94716 0.5505 0.33461 0.0
Tb920 Tb 0.57547 0.60318 0.54867 0.0
Tb921 Tb 0.61818 0.63111 0.55827 0.0
C922 C 0.50355 0.56535 0.53814 0.0
C923 C 0.45699 0.58221 0.54066 0.0
C924 C 0.44952 0.61227 0.55399 0.0
C925 C 0.4241 0.65203 0.55161 0.0
C926 C 0.40672 0.66135 0.53595 0.0
C927 C 0.40389 0.6254 0.52437 0.0
C928 C 0.42917 0.58559 0.52675 0.0
C929 C 0.64559 0.56525 0.52293 0.0
C930 C 0.62495 0.66621 0.52549 0.0
C931 C 0.67617 0.60914 0.57958 0.0
C932 C 0.67214 0.5995 0.59744 0.0
C933 C 0.65922 0.55528 0.60267 0.0
C934 C 0.65587 0.54483 0.61935 0.0
C935 C 0.66638 0.57793 0.63126 0.0
C936 C 0.67767 0.62263 0.62613 0.0
C937 C 0.68038 0.63336 0.60936 0.0
C938 C 0.57462 0.71645 0.55632 0.0
C939 C 0.55859 0.59447 0.58733 0.0
O940 O 0.52507 0.55201 0.55123 0.0
O941 O 0.52861 0.59307 0.5295 0.0
O942 O 0.63653 0.56933 0.53942 0.0
O943 O 0.63845 0.5677 0.53914 0.0
O944 O 0.58396 0.64899 0.52748 0.0
O945 O 0.65276 0.66061 0.5378 0.0
O946 O 0.65409 0.57997 0.57038 0.0
O947 O 0.67163 0.65132 0.57431 0.0
O948 O 0.55561 0.67521 0.55743 0.0
O949 O 0.61865 0.70805 0.55609 0.0
O950 O 0.57911 0.63255 0.58303 0.0
O951 O 0.55795 0.56903 0.57386 0.0
H952 H 0.46951 0.60948 0.56516 0.0
H953 H 0.42377 0.67777 0.56116 0.0
H954 H 0.39004 0.63152 0.51221 0.0
H955 H 0.43383 0.56234 0.51643 0.0
H956 H 0.65238 0.52815 0.59388 0.0
H957 H 0.6474 0.51013 0.62293 0.0
H958 H 0.68726 0.64862 0.63503 0.0
H959 H 0.69025 0.66765 0.60576 0.0
Tb960 Tb 0.34165 0.4122 0.30446 0.0
Tb961 Tb 0.31191 0.37035 0.29628 0.0
C962 C 0.32563 0.47315 0.32559 0.0
C963 C 0.32163 0.46888 0.34368 0.0
C964 C 0.27779 0.46632 0.35079 0.0
C965 C 0.27225 0.45527 0.36736 0.0
C966 C 0.31044 0.44773 0.37739 0.0
C967 C 0.35439 0.45107 0.37035 0.0
C968 C 0.35994 0.46106 0.35363 0.0
C969 C 0.42559 0.36837 0.30337 0.0
C970 C 0.30343 0.35556 0.33427 0.0
C971 C 0.27267 0.29785 0.2871 0.0
C972 C 0.29482 0.25315 0.28643 0.0
C973 C 0.33501 0.24703 0.29566 0.0
C974 C 0.36982 0.21919 0.28956 0.0
C975 C 0.36419 0.19761 0.27431 0.0
C976 C 0.32075 0.19637 0.26696 0.0
C977 C 0.28608 0.22457 0.27295 0.0
C978 C 0.27634 0.43908 0.2696 0.0
C979 C 0.37703 0.40532 0.27147 0.0
O980 O 0.29393 0.45073 0.31772 0.0
O981 O 0.36581 0.46795 0.31867 0.0
O982 O 0.38446 0.34944 0.30424 0.0
O983 O 0.41793 0.41256 0.30275 0.0
O984 O 0.34323 0.36917 0.32855 0.0
O985 O 0.27578 0.36074 0.32167 0.0
O986 O 0.26735 0.31562 0.30167 0.0
O987 O 0.291 0.32701 0.27706 0.0
O988 O 0.2804 0.43172 0.28612 0.0
O989 O 0.27889 0.43363 0.28589 0.0
O990 O 0.35987 0.36578 0.27561 0.0
O991 O 0.37073 0.43842 0.28202 0.0
H992 H 0.24751 0.47169 0.34339 0.0
H993 H 0.23799 0.45312 0.37238 0.0
H994 H 0.38471 0.44731 0.37784 0.0
H995 H 0.39413 0.46236 0.34853 0.0
H996 H 0.34195 0.26821 0.30635 0.0
H997 H 0.40282 0.21956 0.29554 0.0
H998 H 0.31587 0.17913 0.25524 0.0
H999 H 0.25526 0.22877 0.26574 0.0
Tb1000 Tb 0.49789 0.60869 1.06092 0.0
Tb1001 Tb 0.53968 0.57907 1.05177 0.0
C1002 C 0.43828 0.59127 1.08228 0.0
C1003 C 0.44183 0.58562 1.10038 0.0
C1004 C 0.45171 0.54209 1.10695 0.0
C1005 C 0.45547 0.53573 1.12391 0.0
C1006 C 0.44837 0.57246 0.13477 0.0
C1007 C 0.44007 0.61634 0.12821 0.0
C1008 C 0.43702 0.62289 1.11118 0.0
C1009 C 0.54211 0.69297 1.05946 0.0
C1010 C 0.55588 0.56847 1.09 0.0
C1011 C 0.60975 0.53695 1.04134 0.0
C1012 C 0.65647 0.55417 1.03983 0.0
C1013 C 0.66789 0.5927 1.04943 0.0
C1014 C 0.68735 0.63065 1.04177 0.0
C1015 C 0.69491 0.62936 1.0248 0.0
C1016 C 0.69643 0.58666 1.01676 0.0
C1017 C 0.67732 0.54852 1.02441 0.0
C1018 C 0.4695 0.54431 1.02567 0.0
C1019 C 0.49959 0.64546 1.02812 0.0
O1020 O 0.46018 0.56008 1.07388 0.0
O1021 O 0.44354 0.63219 1.07595 0.0
O1022 O 0.56094 0.65156 1.06006 0.0
O1023 O 0.49798 0.68535 1.05939 0.0
O1024 O 0.5397 0.60826 1.08521 0.0
O1025 O 0.55268 0.54224 1.07681 0.0
O1026 O 0.59362 0.53268 1.05616 0.0
O1027 O 0.58116 0.55868 1.03202 0.0
O1028 O 0.47744 0.54803 1.04219 0.0
O1029 O 0.47554 0.54657 1.04194 0.0
O1030 O 0.53984 0.62806 1.03125 0.0
O1031 O 0.46841 0.63855 1.03929 0.0
H1032 H 0.45597 0.51251 1.099 0.0
H1033 H 0.46162 0.50157 0.12856 0.0
H1034 H 0.43304 0.64522 0.13623 0.0
H1035 H 0.42966 0.65681 1.10654 0.0
H1036 H 0.65382 0.59709 1.0617 0.0
H1037 H 0.68916 0.6626 1.04836 0.0
H1038 H 0.70394 0.58475 1.00369 0.0
H1039 H 0.67018 0.51843 1.01699 0.0
Tb1040 Tb 0.20944 0.71933 0.80614 0.0
Tb1041 Tb 0.24908 0.75816 0.80253 0.0
C1042 C 0.19255 0.641 0.81746 0.0
C1043 C 0.20542 0.59353 0.81409 0.0
C1044 C 0.24023 0.58226 0.80284 0.0
C1045 C 0.25883 0.53815 0.80273 0.0
C1046 C 0.24302 0.50539 0.81403 0.0
C1047 C 0.20403 0.51548 0.8236 0.0
C1048 C 0.18561 0.55932 0.82369 0.0
C1049 C 0.13212 0.77224 0.80474 0.0
C1050 C 0.24826 0.76431 0.84048 0.0
C1051 C 0.31152 0.81647 0.8005 0.0
C1052 C 0.30935 0.86545 0.80212 0.0
C1053 C 0.26953 0.88514 0.80864 0.0
C1054 C 0.25309 0.9256 0.80192 0.0
C1055 C 0.27486 0.94415 0.78797 0.0
C1056 C 0.32014 0.92962 0.78451 0.0
C1057 C 0.33728 0.89042 0.79167 0.0
C1058 C 0.28133 0.69189 0.77393 0.0
C1059 C 0.19785 0.76318 0.77289 0.0
O1060 O 0.16776 0.66094 0.80633 0.0
O1061 O 0.22509 0.66757 0.82302 0.0
O1062 O 0.17459 0.78568 0.80836 0.0
O1063 O 0.1357 0.72891 0.80144 0.0
O1064 O 0.20922 0.75188 0.83325 0.0
O1065 O 0.2782 0.76145 0.82865 0.0
O1066 O 0.30321 0.7934 0.81383 0.0
O1067 O 0.28847 0.80134 0.78788 0.0
O1068 O 0.27364 0.69545 0.79044 0.0
O1069 O 0.27479 0.69351 0.79026 0.0
O1070 O 0.21911 0.79311 0.78178 0.0
O1071 O 0.19301 0.72312 0.77981 0.0
H1072 H 0.25508 0.60802 0.79498 0.0
H1073 H 0.28821 0.53107 0.79498 0.0
H1074 H 0.19086 0.49125 0.83251 0.0
H1075 H 0.15823 0.56737 0.83223 0.0
H1076 H 0.24822 0.86649 0.81726 0.0
H1077 H 0.2203 0.93821 0.80613 0.0
H1078 H 0.3405 0.94251 0.77452 0.0
H1079 H 0.3687 0.87578 0.78689 0.0
Tb1080 Tb 0.17355 0.47982 0.55811 0.0
Tb1081 Tb 0.12349 0.51646 0.55266 0.0
C1082 C 0.25543 0.4685 0.56722 0.0
C1083 C 0.2973 0.49612 0.56645 0.0
C1084 C 0.29902 0.53644 0.55706 0.0
C1085 C 0.32763 0.5725 0.56188 0.0
C1086 C 0.35418 0.56823 0.57618 0.0
C1087 C 0.35908 0.52446 0.58324 0.0
C1088 C 0.33034 0.48877 0.57852 0.0
C1089 C 0.12175 0.39962 0.55876 0.0
C1090 C 0.12251 0.52261 0.59117 0.0
C1091 C 0.05826 0.56831 0.54536 0.0
C1092 C 1.00975 0.55888 0.54386 0.0
C1093 C 0.99197 0.51836 0.55061 0.0
C1094 C 0.95486 0.4968 0.54311 0.0
C1095 C 0.9361 0.51526 0.52868 0.0
C1096 C 0.95052 0.55903 0.52346 0.0
C1097 C 0.98658 0.581 0.53122 0.0
C1098 C 0.19347 0.55173 0.52591 0.0
C1099 C 0.13169 0.45472 0.52536 0.0
O1100 O 0.23914 0.45261 0.55346 0.0
O1101 O 0.22343 0.48631 0.57639 0.0
O1102 O 0.10687 0.44216 0.56115 0.0
O1103 O 0.16501 0.40442 0.55591 0.0
O1104 O 0.15161 0.49035 0.58596 0.0
O1105 O 0.1072 0.54402 0.57823 0.0
O1106 O 0.07573 0.56636 0.56009 0.0
O1107 O 0.0825 0.54576 0.5346 0.0
O1108 O 0.18694 0.54605 0.54244 0.0
O1109 O 0.18852 0.54717 0.54225 0.0
O1110 O 0.09812 0.47299 0.53333 0.0
O1111 O 0.17164 0.45791 0.53236 0.0
H1112 H 0.27503 0.54204 0.54722 0.0
H1113 H 0.32418 0.60542 0.5559 0.0
H1114 H 0.37943 0.51962 0.59421 0.0
H1115 H 0.33001 0.45766 0.58576 0.0
H1116 H 1.00997 0.50066 0.56035 0.0
H1117 H 0.94413 0.46352 0.54753 0.0
H1118 H 0.93827 0.5741 0.51215 0.0
H1119 H 1.00041 0.61191 0.52577 0.0
Tb1120 Tb 0.39413 0.71132 0.44592 0.0
Tb1121 Tb 0.35704 0.75825 0.45081 0.0
C1122 C 0.40776 0.63102 0.43583 0.0
C1123 C 0.39171 0.5852 0.44004 0.0
C1124 C 0.34962 0.5782 0.44796 0.0
C1125 C 0.32886 0.53515 0.44738 0.0
C1126 C 0.34943 0.49953 0.43831 0.0
C1127 C 0.39523 0.50513 0.43313 0.0
C1128 C 0.41598 0.54786 0.43388 0.0
C1129 C 0.47382 0.76275 0.44644 0.0
C1130 C 0.35413 0.76097 0.41247 0.0
C1131 C 0.30734 0.82737 0.45469 0.0
C1132 C 0.32378 0.87383 0.45137 0.0
C1133 C 0.3657 0.87763 0.44293 0.0
C1134 C 0.39789 0.90967 0.44817 0.0
C1135 C 0.38732 0.93821 0.4615 0.0
C1136 C 0.34127 0.94313 0.46629 0.0
C1137 C 0.30961 0.90969 0.46164 0.0
C1138 C 0.32138 0.68639 0.47754 0.0
C1139 C 0.4098 0.74968 0.48014 0.0
O1140 O 0.43334 0.65125 0.4467 0.0
O1141 O 0.37728 0.65851 0.42954 0.0
O1142 O 0.43177 0.77713 0.44293 0.0
O1143 O 0.46848 0.71995 0.45004 0.0
O1144 O 0.38921 0.73642 0.41817 0.0
O1145 O 0.32874 0.77109 0.42515 0.0
O1146 O 0.30455 0.80064 0.44184 0.0
O1147 O 0.32893 0.80755 0.46677 0.0
O1148 O 0.32734 0.6947 0.46115 0.0
O1149 O 0.32603 0.69289 0.46126 0.0
O1150 O 0.39266 0.78342 0.47208 0.0
O1151 O 0.4104 0.7106 0.4723 0.0
H1152 H 0.3309 0.60659 0.45318 0.0
H1153 H 0.29424 0.53164 0.45194 0.0
H1154 H 0.41304 0.4789 0.42621 0.0
H1155 H 0.44903 0.55261 0.42807 0.0
H1156 H 0.37691 0.85084 0.43459 0.0
H1157 H 0.43294 0.90601 0.44404 0.0
H1158 H 0.33238 0.96589 0.47638 0.0
H1159 H 0.27727 0.90775 0.46812 0.0
Tb1160 Tb 0.12244 0.64026 0.18903 0.0
Tb1161 Tb 0.07262 0.60666 0.19728 0.0
C1162 C 0.20042 0.64511 0.17618 0.0
C1163 C 0.24656 0.63061 0.1808 0.0
C1164 C 0.2548 0.58866 0.18869 0.0
C1165 C 0.29958 0.57282 0.19059 0.0
C1166 C 0.33648 0.59866 0.18449 0.0
C1167 C 0.32782 0.6428 0.17822 0.0
C1168 C 0.28329 0.65848 0.17639 0.0
C1169 C 0.07076 0.7207 0.1902 0.0
C1170 C 0.0659 0.59953 0.15803 0.0
C1171 C 1.00225 0.56442 0.20645 0.0
C1172 C 0.95694 0.58496 0.20502 0.0
C1173 C 0.95456 0.62495 0.19551 0.0
C1174 C 0.92751 0.66147 0.20064 0.0
C1175 C 0.90628 0.65894 0.21598 0.0
C1176 C 0.89768 0.61516 0.22263 0.0
C1177 C 0.9246 0.57812 0.21749 0.0
C1178 C 0.14717 0.57144 0.222 0.0
C1179 C 0.10249 0.67026 0.22326 0.0
O1180 O 0.17102 0.6127 0.17277 0.0
O1181 O 0.18275 0.6775 0.18519 0.0
O1182 O 0.05552 0.67849 0.18786 0.0
O1183 O 0.11455 0.71589 0.19176 0.0
O1184 O 0.09468 0.63267 0.16221 0.0
O1185 O 1.05367 0.57824 0.17163 0.0
O1186 O 1.02297 0.55589 0.19256 0.0
O1187 O 1.02856 0.5872 0.21645 0.0
O1188 O 0.13637 0.57512 0.20574 0.0
O1189 O 0.13816 0.5737 0.20587 0.0
O1190 O 0.0639 0.65339 0.21813 0.0
O1191 O 0.13746 0.66391 0.21361 0.0
H1192 H 0.22672 0.567 0.19249 0.0
H1193 H 0.30511 0.53882 0.19549 0.0
H1194 H 0.35493 0.66356 0.17307 0.0
H1195 H 0.27751 0.69124 0.17051 0.0
H1196 H 0.97915 0.63099 0.18578 0.0
H1197 H 0.93148 0.69407 0.19457 0.0
H1198 H 0.87918 0.61207 0.23415 0.0
H1199 H 0.92552 0.54746 0.22496 0.0
Tb1200 Tb 0.27306 0.38959 0.94121 0.0
Tb1201 Tb 0.30119 0.34907 0.95055 0.0
C1202 C 0.29075 0.44831 0.91966 0.0
C1203 C 0.2938 0.44356 0.90155 0.0
C1204 C 0.3361 0.43291 0.8941 0.0
C1205 C 0.33899 0.42386 0.87724 0.0
C1206 C 0.29988 0.42654 0.86739 0.0
C1207 C 0.25761 0.43708 0.87484 0.0
C1208 C 0.25456 0.44532 0.89174 0.0
C1209 C 0.18865 0.344 0.94271 0.0
C1210 C 0.31268 0.33097 0.9124 0.0
C1211 C 0.34236 0.2794 0.96098 0.0
C1212 C 0.3257 0.23282 0.96233 0.0
C1213 C 0.28891 0.21867 0.9524 0.0
C1214 C 0.25576 0.18933 0.95885 0.0
C1215 C 0.25863 0.17557 0.97533 0.0
C1216 C 0.29909 0.18537 0.9842 0.0
C1217 C 0.33326 0.21191 0.97741 0.0
C1218 C 0.33623 0.41977 0.97645 0.0
C1219 C 0.23501 0.39392 0.97352 0.0
O1220 O 0.32194 0.42537 0.92757 0.0
O1221 O 0.25046 0.44473 0.92664 0.0
O1222 O 0.23017 0.32592 0.94226 0.0
O1223 O 0.19605 0.38827 0.94256 0.0
O1224 O 0.27303 0.3478 0.91691 0.0
O1225 O 0.33832 0.33441 0.92566 0.0
O1226 O 0.34764 0.29527 0.9462 0.0
O1227 O 0.31993 0.30776 0.97031 0.0
O1228 O 0.3336 0.41051 0.95998 0.0
O1229 O 0.33529 0.41255 0.96021 0.0
O1230 O 0.2514 0.35266 0.97106 0.0
O1231 O 0.2433 0.42308 0.96186 0.0
H1232 H 0.36703 0.43084 0.90136 0.0
H1233 H 0.37189 0.41553 0.87189 0.0
H1234 H 0.22694 0.44064 0.86751 0.0
H1235 H 0.22151 0.45319 0.89707 0.0
H1236 H 0.28268 0.23464 0.94059 0.0
H1237 H 0.22589 0.18136 0.95159 0.0
H1238 H 0.3027 0.17803 0.99717 0.0
H1239 H 0.36123 0.22294 0.98523 0.0
Tb1240 Tb 0.42979 0.4989 0.68998 0.0
Tb1241 Tb 0.48342 0.52881 0.69877 0.0
C1242 C 0.35425 0.50368 0.67535 0.0
C1243 C 0.34267 0.54143 0.66422 0.0
C1244 C 0.36976 0.58131 0.66455 0.0
C1245 C 0.36977 0.61141 0.65124 0.0
C1246 C 0.34197 0.60253 0.63759 0.0
C1247 C 0.31139 0.56516 0.63809 0.0
C1248 C 0.31201 0.53457 0.65129 0.0
C1249 C 0.4783 0.41587 0.69162 0.0
C1250 C 0.48798 0.54253 0.65973 0.0
C1251 C 0.55596 0.56575 0.70882 0.0
C1252 C 0.60171 0.5461 0.70852 0.0
C1253 C 0.60655 0.50026 0.70349 0.0
C1254 C 0.64103 0.47343 0.71023 0.0
C1255 C 0.67122 0.49295 0.72164 0.0
C1256 C 0.67243 0.54097 0.72345 0.0
C1257 C 0.63671 0.56739 0.71734 0.0
C1258 C 0.41442 0.57016 0.72356 0.0
C1259 C 0.44271 0.46711 0.72421 0.0
O1260 O 0.35948 0.51502 0.69069 0.0
O1261 O 0.38793 0.47838 0.67024 0.0
O1262 O 0.49502 0.45707 0.68895 0.0
O1263 O 0.43459 0.42268 0.69351 0.0
O1264 O 0.45386 0.51474 0.66335 0.0
O1265 O 0.50611 0.55731 0.67358 0.0
O1266 O 0.53798 0.57438 0.69454 0.0
O1267 O 0.52781 0.54347 0.71826 0.0
O1268 O 0.42226 0.56503 0.70704 0.0
O1269 O 0.42069 0.5664 0.70735 0.0
O1270 O 0.48297 0.48252 0.71991 0.0
O1271 O 0.41048 0.47056 0.7133 0.0
H1272 H 0.39405 0.58702 0.67439 0.0
H1273 H 0.39401 0.63947 0.65104 0.0
H1274 H 0.29025 0.55692 0.62754 0.0
H1275 H 0.29131 0.50383 0.65073 0.0
H1276 H 0.57995 0.48361 0.69641 0.0
H1277 H 0.63949 0.43668 0.70845 0.0
H1278 H 0.69645 0.55686 0.73186 0.0
H1279 H 0.63375 0.60293 0.72109 0.0
C1280 C 0.13362 0.47468 0.4805 0.0
C1281 C 0.16263 0.4389 0.47571 0.0
C1282 C 0.11633 0.47626 0.49663 0.0
C1283 C 0.12834 0.44223 0.50807 0.0
H1284 H 0.12823 0.50356 0.47243 0.0
H1285 H 0.09874 0.50696 0.5007 0.0
S1286 S 0.19349 0.33641 0.50004 0.0
N1287 N 0.1936 0.36396 0.48233 0.0
N1288 N 0.16298 0.36827 0.51279 0.0
C1289 C 0.15119 0.40319 0.50261 0.0
C1290 C 0.16776 0.40108 0.48624 0.0
C1291 C 0.87747 0.92819 0.72636 0.0
C1292 C 0.92375 0.93892 0.72435 0.0
C1293 C 0.86327 0.90149 0.73974 0.0
C1294 C 0.89485 0.8867 0.7516 0.0
H1295 H 0.85202 0.94394 0.71854 0.0
H1296 H 0.82703 0.89702 0.74188 0.0
S1297 S 1.02032 0.89942 0.75017 0.0
N1298 N 1.00178 0.92648 0.73365 0.0
N1299 N 0.9743 0.87871 0.75932 0.0
C1300 C 0.94142 0.89286 0.74869 0.0
C1301 C 0.95609 0.91861 0.73486 0.0
C1302 C 0.44382 0.64621 0.98747 0.0
C1303 C 0.42136 0.6885 0.9883 0.0
C1304 C 0.47644 0.63483 0.99937 0.0
C1305 C 0.48651 0.6651 1.01237 0.0
H1306 H 0.43358 0.62069 0.97848 0.0
H1307 H 0.49065 0.60068 0.99931 0.0
S1308 S 0.44342 0.78317 1.01775 0.0
N1309 N 0.41688 0.76367 1.0012 0.0
N1310 N 0.47703 0.74118 1.02391 0.0
C1311 C 0.46801 0.70918 1.01215 0.0
C1312 C 0.43549 0.72112 0.99998 0.0
C1313 C 0.72664 0.25851 0.24273 0.0
C1314 C 0.68634 0.26124 0.25219 0.0
C1315 C 0.72918 0.22852 0.22919 0.0
C1316 C 0.69129 0.20191 0.22483 0.0
H1317 H 0.75797 0.27369 0.24729 0.0
H1318 H 0.76182 0.22205 0.22337 0.0
S1319 S 0.57442 0.21176 0.242 0.0
N1320 N 0.6054 0.24638 0.25352 0.0
N1321 N 0.60953 0.19017 0.22803 0.0
C1322 C 0.64882 0.21215 0.2321 0.0
C1323 C 0.64647 0.24226 0.24584 0.0
C1324 C 0.17377 0.72618 0.25351 0.0
C1325 C 0.17421 0.69213 0.2657 0.0
C1326 C 0.14207 0.7246 0.24076 0.0
C1327 C 0.11049 0.68858 0.23977 0.0
H1328 H 0.20083 0.75152 0.25295 0.0
H1329 H 0.14664 0.74767 0.23044 0.0
S1330 S 0.08562 0.60365 0.27233 0.0
N1331 N 0.13169 0.63091 0.27896 0.0
N1332 N 0.0722 0.62713 0.25447 0.0
C1333 C 0.10495 0.65996 0.25349 0.0
C1334 C 0.13726 0.66171 0.26663 0.0
C1335 C 0.69491 0.9099 0.50326 0.0
C1336 C 0.72296 0.92637 0.4906 0.0
C1337 C 0.68164 0.93925 0.51621 0.0
C1338 C 0.69753 0.98504 0.517 0.0
H1339 H 0.68032 0.87586 0.50245 0.0
H1340 H 0.65592 0.92717 0.52477 0.0
S1341 S 0.77797 1.04072 0.48815 0.0
N1342 N 0.76874 0.98977 0.48028 0.0
N1343 N 0.74947 1.04157 0.50568 0.0
C1344 C 0.73041 0.99911 0.50555 0.0
C1345 C 0.74137 0.97077 0.49198 0.0
C1346 C 0.3904 0.48804 0.74657 0.0
C1347 C 0.42922 0.46354 0.7415 0.0
C1348 C 0.37587 0.48801 0.7628 0.0
C1349 C 0.39448 0.45715 0.77407 0.0
H1350 H 0.36983 0.50673 0.73786 0.0
H1351 H 0.34606 0.50827 0.76595 0.0
S1352 S 0.49671 0.38347 0.76664 0.0
N1353 N 0.48935 0.41101 0.74911 0.0
N1354 N 0.45589 0.40182 0.77912 0.0
C1355 C 0.43435 0.43261 0.76932 0.0
C1356 C 0.45239 0.43702 0.75302 0.0
C1357 C 0.96684 0.19705 1.01679 0.0
C1358 C 0.92791 0.20805 1.02624 0.0
C1359 C 0.97258 0.21504 1.00106 0.0
C1360 C 0.94048 0.24582 0.99479 0.0
H1361 H 0.98883 0.16926 1.02043 0.0
H1362 H 0.99847 0.20027 0.99308 0.0
S1363 S 0.84909 0.30427 1.01862 0.0
N1364 N 0.86847 0.26427 1.03116 0.0
N1365 N 0.87979 0.29998 1.00155 0.0
C1366 C 0.90857 0.26549 1.00574 0.0
C1367 C 0.90205 0.24603 1.02164 0.0
C1368 C 0.94029 0.64012 0.76889 0.0
C1369 C 0.91512 0.68093 0.7683 0.0
C1370 C 0.97461 0.63153 0.75715 0.0
C1371 C 0.98337 0.66301 0.74445 0.0
H1372 H 0.93118 0.61358 0.7776 0.0
H1373 H 0.99076 0.59822 0.75692 0.0
S1374 S 0.93089 0.77707 0.73923 0.0
N1375 N 0.90564 0.75566 0.75571 0.0
N1376 N 0.968 0.73801 0.73311 0.0
C1377 C 0.96139 0.70548 0.74482 0.0
C1378 C 0.92756 0.71475 0.75689 0.0
C1379 C 0.22501 0.13249 0.50054 0.0
C1380 C 0.20149 0.14416 0.515 0.0
C1381 C 0.21527 0.15383 0.48578 0.0
C1382 C 0.18771 0.1931 0.48512 0.0
H1383 H 0.24953 0.10477 0.50025 0.0
H1384 H 0.23146 0.14019 0.47479 0.0
S1385 S 0.1167 0.23937 0.51884 0.0
N1386 N 0.14447 0.19604 0.52716 0.0
N1387 N 0.13507 0.24257 0.49964 0.0
C1388 C 0.16553 0.20752 0.49942 0.0
C1389 C 0.1712 0.18231 0.51437 0.0
C1390 C 0.64397 0.4086 0.25409 0.0
C1391 C 0.62932 0.44995 0.24733 0.0
C1392 C 0.66329 0.40795 0.26976 0.0
C1393 C 0.67029 0.44892 0.27863 0.0
H1394 H 0.64523 0.3778 0.2466 0.0
H1395 H 0.67875 0.37644 0.27392 0.0
S1396 S 0.62498 0.56306 0.26819 0.0
N1397 N 0.61198 0.53044 0.25218 0.0
N1398 N 0.65146 0.52936 0.28141 0.0
C1399 C 0.64963 0.48899 0.27307 0.0
C1400 C 0.62836 0.48942 0.25733 0.0
C1401 C 0.41302 0.91406 1.0011 0.0
C1402 C 0.3855 0.9367 0.9896 0.0
C1403 C 0.43057 0.93796 1.01479 0.0
C1404 C 0.41983 0.98463 1.0175 0.0
H1405 H 0.42343 0.87895 0.99894 0.0
H1406 H 0.45515 0.92074 1.02256 0.0
S1407 S 0.34486 1.05675 0.99187 0.0
N1408 N 0.34597 1.00702 0.98237 0.0
N1409 N 0.37476 1.04985 1.00882 0.0
C1410 C 0.38833 1.00558 1.00699 0.0
C1411 C 0.37241 0.98222 0.9928 0.0
C1412 C 0.91309 0.4511 0.97669 0.0
C1413 C 0.86763 0.46592 0.97381 0.0
C1414 C 0.93399 0.45721 0.99204 0.0
C1415 C 0.90938 0.47622 1.00514 0.0
H1416 H 0.93159 0.43104 0.96765 0.0
H1417 H 0.96821 0.44416 0.99397 0.0
S1418 S 0.79422 0.53039 1.00292 0.0
N1419 N 0.805 0.51273 0.98401 0.0
N1420 N 0.83896 0.51471 1.0138 0.0
C1421 C 0.86532 0.49411 1.00208 0.0
C1422 C 0.84624 0.49205 0.98609 0.0
C1423 C 0.47357 0.18856 0.73951 0.0
C1424 C 0.43778 0.19729 0.72846 0.0
C1425 C 0.47934 0.21552 0.75348 0.0
C1426 C 0.44689 0.24915 0.75734 0.0
H1427 H 0.49326 0.15732 0.73856 0.0
H1428 H 0.50319 0.20383 0.76277 0.0
S1429 S 0.36419 0.30013 0.72832 0.0
N1430 N 0.38417 0.25449 0.71853 0.0
N1431 N 0.39046 0.30183 0.74634 0.0
C1432 C 0.41823 0.26485 0.74474 0.0
C1433 C 0.41421 0.23888 0.7299 0.0
C1434 C 0.71601 0.70316 0.49769 0.0
C1435 C 0.70872 0.67431 0.48399 0.0
C1436 C 0.68406 0.70635 0.51027 0.0
C1437 C 0.64372 0.68069 0.50965 0.0
H1438 H 0.74773 0.72193 0.49912 0.0
H1439 H 0.6931 0.72544 0.52128 0.0
S1440 S 0.59955 0.61725 0.47338 0.0
N1441 N 0.65234 0.63158 0.46818 0.0
N1442 N 0.59154 0.63724 0.49227 0.0
C1443 C 0.63233 0.65817 0.49488 0.0
C1444 C 0.66522 0.6549 0.48191 0.0
C1445 C 0.24047 0.9034 0.24706 0.0
C1446 C 0.21279 0.88019 0.25845 0.0
C1447 C 0.22139 0.93164 0.23506 0.0
C1448 C 0.17398 0.93658 0.23405 0.0
H1449 H 0.27704 0.90357 0.24857 0.0
H1450 H 0.24373 0.95255 0.22754 0.0
S1451 S 0.08656 0.87657 0.25901 0.0
N1452 N 0.13587 0.85903 0.2666 0.0
N1453 N 0.0994 0.91144 0.24368 0.0
C1454 C 0.14577 0.90939 0.24407 0.0
C1455 C 0.16538 0.88103 0.25639 0.0
C1456 C 0.6383 1.00179 0.99846 0.0
C1457 C 0.6315 0.96011 1.00674 0.0
C1458 C 0.65412 1.00214 0.98218 0.0
C1459 C 0.66257 0.9608 0.97391 0.0
H1460 H 0.6364 1.03396 1.00509 0.0
H1461 H 0.66542 1.03422 0.97688 0.0
S1462 S 0.63019 0.84486 0.98828 0.0
N1463 N 0.62083 0.87835 1.00435 0.0
N1464 N 0.64858 0.87855 0.97334 0.0
C1465 C 0.6463 0.91991 0.98101 0.0
C1466 C 0.63156 0.91958 0.9977 0.0
C1467 C 0.37295 0.41265 0.24121 0.0
C1468 C 0.39899 0.41424 0.25573 0.0
C1469 C 0.38633 0.43793 0.22732 0.0
C1470 C 0.42647 0.46413 0.22778 0.0
H1471 H 0.3404 0.39508 0.24113 0.0
H1472 H 0.36417 0.43916 0.21667 0.0
S1473 S 0.51126 0.46951 0.26162 0.0
N1474 N 0.46941 0.43752 0.26891 0.0
N1475 N 0.49621 0.48298 0.24265 0.0
C1476 C 0.45535 0.46096 0.24155 0.0
C1477 C 0.4412 0.43634 0.25564 0.0
C1478 C 0.96343 0.17608 0.50274 0.0
C1479 C 0.94776 0.15074 0.51625 0.0
C1480 C 0.93371 0.18558 0.48958 0.0
C1481 C 0.88844 0.16854 0.4895 0.0
H1482 H 0.99716 0.19137 0.50293 0.0
H1483 H 0.94505 0.20923 0.48017 0.0
S1484 S 0.83465 0.09409 0.52086 0.0
N1485 N 0.88552 0.10609 0.52815 0.0
N1486 N 0.83307 0.11888 0.50269 0.0
C1487 C 0.87511 0.13852 0.502 0.0
C1488 C 0.90378 0.1312 0.51565 0.0
C1489 C 0.23069 0.74054 0.73041 0.0
C1490 C 0.19164 0.71549 0.72599 0.0
C1491 C 0.23093 0.76618 0.74511 0.0
C1492 C 0.19167 0.76785 0.75512 0.0
H1493 H 0.26271 0.73452 0.72406 0.0
H1494 H 0.26343 0.77813 0.74984 0.0
S1495 S 0.07674 0.72698 0.74443 0.0
N1496 N 0.10969 0.70759 0.72942 0.0
N1497 N 0.11013 0.75687 0.75676 0.0
C1498 C 0.15037 0.75295 0.74853 0.0
C1499 C 0.15021 0.72661 0.73378 0.0
C1500 C 0.6089 0.14393 0.7537 0.0
C1501 C 0.59963 0.17756 0.74186 0.0
C1502 C 0.64454 0.15011 0.76503 0.0
C1503 C 0.66956 0.19102 0.7651 0.0
H1504 H 0.59354 0.11043 0.75244 0.0
H1505 H 0.65555 0.12148 0.77247 0.0
S1506 S 0.64427 0.2958 0.74125 0.0
N1507 N 0.60826 0.25703 0.73407 0.0
N1508 N 0.67353 0.27014 0.75596 0.0
C1509 C 0.65374 0.22802 0.7557 0.0
C1510 C 0.6184 0.22114 0.74401 0.0
C1511 C 0.18425 0.44898 0.98654 0.0
C1512 C 0.21164 0.41003 0.98835 0.0
C1513 C 0.17296 0.47597 0.99998 0.0
C1514 C 0.18827 0.46498 1.01588 0.0
H1515 H 0.17356 0.46038 0.97444 0.0
H1516 H 0.15243 0.50623 0.99781 0.0
S1517 S 0.24921 0.3589 1.02774 0.0
N1518 N 0.2465 0.35635 1.0074 0.0
N1519 N 0.22357 0.40713 1.03322 0.0
C1520 C 0.21102 0.4231 1.01821 0.0
C1521 C 0.22309 0.39548 1.00428 0.0
C1522 C 0.90332 0.91845 0.24233 0.0
C1523 C 0.9384 0.95059 0.24067 0.0
C1524 C 0.88174 0.9123 0.25738 0.0
C1525 C 0.89417 0.93846 0.27128 0.0
H1526 H 0.8903 0.90022 0.23166 0.0
H1527 H 0.85371 0.88808 0.25796 0.0
S1528 S 0.99087 1.01969 0.27405 0.0
N1529 N 0.99006 1.00353 0.2545 0.0
N1530 N 0.94902 0.99143 0.28321 0.0
C1531 C 0.93272 0.96678 0.27028 0.0
C1532 C 0.95501 0.97304 0.2548 0.0
C1533 C 0.37158 0.72905 0.52307 0.0
C1534 C 0.41099 0.70773 0.52901 0.0
C1535 C 0.37188 0.74868 0.50733 0.0
C1536 C 0.41253 0.75039 0.49806 0.0
H1537 H 0.33927 0.72401 0.52933 0.0
H1538 H 0.33964 0.75821 0.50178 0.0
S1539 S 0.52796 0.7226 0.51237 0.0
N1540 N 0.49394 0.70462 0.5273 0.0
N1541 N 0.49464 0.74509 0.49824 0.0
C1542 C 0.45347 0.7397 0.5057 0.0
C1543 C 0.45292 0.71844 0.5214 0.0
C1544 C 0.43567 0.15505 0.26674 0.0
C1545 C 0.40432 0.19038 0.26377 0.0
C1546 C 0.46876 0.14395 0.25481 0.0
C1547 C 0.46998 0.16725 0.23973 0.0
H1548 H 0.43272 0.13438 0.27774 0.0
H1549 H 0.49071 0.11469 0.25669 0.0
S1550 S 0.40469 0.2709 0.22857 0.0
N1551 N 0.38418 0.25568 0.24671 0.0
N1552 N 0.4446 0.2329 0.22402 0.0
C1553 C 0.44291 0.20618 0.23769 0.0
C1554 C 0.41022 0.21814 0.24983 0.0
C1555 C 0.71048 0.70973 1.01533 0.0
C1556 C 0.68351 0.67006 1.01496 0.0
C1557 C 0.70571 0.74304 1.00297 0.0
C1558 C 0.67325 0.73712 0.9904 0.0
H1559 H 0.73749 0.7129 1.02429 0.0
H1560 H 0.73107 0.76995 1.00205 0.0
S1561 S 0.58439 0.64776 0.98778 0.0
N1562 N 0.61565 0.63317 1.00381 0.0
N1563 N 0.60619 0.69627 0.98101 0.0
C1564 C 0.64045 0.70267 0.99208 0.0
C1565 C 0.64596 0.66846 1.00422 0.0
C1566 C 0.20026 0.94727 0.77281 0.0
C1567 C 0.24623 0.9624 0.77431 0.0
C1568 C 0.17863 0.94481 0.75751 0.0
C1569 C 0.20277 0.95521 0.74317 0.0
H1570 H 0.18137 0.93371 0.78315 0.0
H1571 H 0.14374 0.9325 0.75683 0.0
S1572 S 0.3177 1.00981 0.74062 0.0
N1573 N 0.30795 1.00314 0.76047 0.0
N1574 N 0.27274 0.98747 0.7314 0.0
C1575 C 0.24731 0.97352 0.74454 0.0
C1576 C 0.26717 0.98071 0.76022 0.0
C1577 C 0.92663 0.4412 0.51339 0.0
C1578 C 0.91058 0.48584 0.51697 0.0
C1579 C 0.91394 0.41846 0.49883 0.0
C1580 C 0.88672 0.44066 0.48716 0.0
H1581 H 0.95172 0.42497 0.52122 0.0
H1582 H 0.92796 0.38488 0.49618 0.0
S1583 S 0.8296 0.55365 0.49209 0.0
N1584 N 0.85804 0.54641 0.50938 0.0
N1585 N 0.84085 0.50801 0.48078 0.0
C1586 C 0.86851 0.48408 0.49107 0.0
C1587 C 0.87846 0.50536 0.50636 0.0
C1588 C 0.47689 0.98496 0.49053 0.0
C1589 C 0.46851 0.95737 0.50439 0.0
C1590 C 0.45365 0.97655 0.47567 0.0
C1591 C 0.42129 0.94115 0.47476 0.0
H1592 H 0.497 1.01596 0.49172 0.0
H1593 H 0.45779 1.00008 0.4655 0.0
S1594 S 0.39312 0.85698 0.50723 0.0
N1595 N 0.43211 0.8902 0.51561 0.0
N1596 N 0.38699 0.8752 0.48816 0.0
C1597 C 0.41737 0.91041 0.48797 0.0
C1598 C 0.44165 0.91829 0.50272 0.0
C1599 C 0.96294 0.70605 0.25329 0.0
C1600 C 0.93144 0.73947 0.25826 0.0
C1601 C 0.9572 0.68332 0.23838 0.0
C1602 C 0.92026 0.69405 0.22802 0.0
H1603 H 0.98774 0.6927 0.26194 0.0
H1604 H 0.97863 0.65388 0.23582 0.0
S1605 S 0.84543 0.79544 0.23171 0.0
N1606 N 0.87344 0.79364 0.24937 0.0
N1607 N 0.86459 0.75196 0.22053 0.0
C1608 C 0.89578 0.73433 0.23108 0.0
C1609 C 0.90115 0.7572 0.2465 0.0
C1610 C 0.17523 0.18302 0.98273 0.0
C1611 C 0.21753 0.15999 0.98451 0.0
C1612 C 0.14211 0.18228 0.99539 0.0
C1613 C 0.15243 0.16177 1.01051 0.0
H1614 H 0.16916 0.20483 0.97224 0.0
H1615 H 0.11054 0.20113 0.99389 0.0
S1616 S 0.2576 0.09533 1.02058 0.0
N1617 N 0.26182 0.10746 1.00088 0.0
N1618 N 0.20951 0.11953 1.02643 0.0
C1619 C 0.19445 0.13832 1.01209 0.0
C1620 C 0.22392 0.13327 0.9985 0.0
C1621 C 0.67573 0.47823 0.75145 0.0
C1622 C 0.68773 0.46451 0.73538 0.0
C1623 C 0.68898 0.45299 0.76505 0.0
C1624 C 0.71454 0.41277 0.7632 0.0
H1625 H 0.65591 0.50903 0.75361 0.0
H1626 H 0.68041 0.46603 0.7772 0.0
S1627 S 0.74901 0.35795 0.72386 0.0
N1628 N 0.72217 0.4052 0.71825 0.0
N1629 N 0.74785 0.35739 0.74423 0.0
C1630 C 0.72423 0.39655 0.74727 0.0
C1631 C 0.71061 0.42256 0.73323 0.0
C1632 C 0.06884 0.34577 0.43952 0.0
C1633 C 0.08048 0.29768 0.43996 0.0
C1634 C 1.02184 0.36492 0.43975 0.0
C1635 C 0.97955 0.33892 0.44039 0.0
H1636 H 0.09676 0.36985 0.43896 0.0
H1637 H 1.01887 0.40185 0.43941 0.0
S1638 S 0.98586 0.2108 0.44188 0.0
N1639 N 1.0405 0.22489 0.44122 0.0
N1640 N 0.95669 0.25923 0.44154 0.0
C1641 C 0.99063 0.2908 0.44085 0.0
C1642 C 1.03852 0.27126 0.44066 0.0
C1643 C 0.11253 0.76233 0.69314 0.0
C1644 C 0.06489 0.75118 0.6951 0.0
C1645 C 0.13208 0.80905 0.69338 0.0
C1646 C 0.10662 0.85135 0.69512 0.0
H1647 H 0.13583 0.73426 0.69146 0.0
H1648 H 0.16878 0.81181 0.69204 0.0
S1649 S 0.97967 0.8461 0.70054 0.0
N1650 N 0.99306 0.79133 0.699 0.0
N1651 N 1.02798 0.87506 0.69888 0.0
C1652 C 0.05881 0.84085 0.69688 0.0
C1653 C 1.03903 0.79316 0.69697 0.0
C1654 C 0.48811 0.795 0.94373 0.0
C1655 C 0.47457 0.84223 0.94202 0.0
C1656 C 0.53571 0.7778 0.94336 0.0
C1657 C 0.57674 0.80504 0.94102 0.0
H1658 H 0.46124 0.77013 0.94556 0.0
H1659 H 0.54025 0.74132 0.94501 0.0
S1660 S 0.56515 0.93188 0.93583 0.0
N1661 N 0.51127 0.91603 0.93797 0.0
N1662 N 0.59624 0.88477 0.93694 0.0
C1663 C 0.56377 0.85233 0.93922 0.0
C1664 C 0.51523 0.87004 0.93978 0.0
C1665 C 0.60538 0.25493 0.19529 0.0
C1666 C 0.55781 0.24307 0.19396 0.0
C1667 C 0.62406 0.30189 0.19582 0.0
C1668 C 0.59805 0.34398 0.19472 0.0
H1669 H 0.62939 0.22717 0.19615 0.0
H1670 H 0.66071 0.30501 0.19716 0.0
S1671 S 0.47073 0.33733 0.19098 0.0
N1672 N 0.48497 0.28258 0.19163 0.0
N1673 N 0.51881 0.36686 0.1922 0.0
C1674 C 0.55028 0.33294 0.19323 0.0
C1675 C 0.5311 0.28486 0.19294 0.0
C1676 C 0.06837 0.75525 0.31212 0.0
C1677 C 1.02692 0.78138 0.30964 0.0
C1678 C 0.11525 0.77372 0.31221 0.0
C1679 C 0.12715 0.82068 0.30918 0.0
H1680 H 0.06471 0.71882 0.31418 0.0
H1681 H 0.14274 0.75019 0.31473 0.0
S1682 S 1.03443 0.90701 0.3014 0.0
N1683 N 1.00458 0.85954 0.30402 0.0
N1684 N 0.08876 0.89288 0.30355 0.0
C1685 C 0.08596 0.84731 0.30662 0.0
C1686 C 1.03808 0.82858 0.30694 0.0
C1687 C 0.56014 0.85842 0.55364 0.0
C1688 C 0.5126 0.87077 0.55556 0.0
C1689 C 0.5785 0.81095 0.55394 0.0
C1690 C 0.55222 0.76918 0.55634 0.0
H1691 H 0.58422 0.88596 0.55154 0.0
H1692 H 0.61494 0.80713 0.55212 0.0
S1693 S 0.42601 0.77845 0.56326 0.0
N1694 N 0.44035 0.8325 0.56044 0.0
N1695 N 0.47363 0.74839 0.56166 0.0
C1696 C 0.50496 0.78136 0.55859 0.0
C1697 C 0.48612 0.82944 0.55803 0.0
C1698 C 0.59692 0.35191 0.8057 0.0
C1699 C 0.63767 0.32564 0.80941 0.0
C1700 C 0.5495 0.33419 0.80565 0.0
C1701 C 0.53669 0.28758 0.80918 0.0
H1702 H 0.60157 0.38759 0.80255 0.0
H1703 H 0.52251 0.35774 0.8024 0.0
S1704 S 0.6263 0.20296 0.82187 0.0
N1705 N 0.65729 0.24928 0.81841 0.0
N1706 N 0.57289 0.2168 0.8177 0.0
C1707 C 0.57702 0.26134 0.81322 0.0
C1708 C 0.62503 0.27956 0.81351 0.0
C1709 C 0.9933 0.28611 1.05267 0.0
C1710 C 1.04011 0.27396 1.05616 0.0
C1711 C 0.97451 0.33326 1.05219 0.0
C1712 C 0.99957 0.37532 1.05531 0.0
H1713 H 0.97011 0.2586 1.04993 0.0
H1714 H 0.93867 0.33655 1.04915 0.0
S1715 S 0.12387 0.36768 1.06598 0.0
N1716 N 0.11062 0.31323 1.06314 0.0
N1717 N 0.07668 0.39734 1.06273 0.0
C1718 C 1.04633 0.36377 1.05904 0.0
C1719 C 0.06561 0.3157 1.05932 0.0
C1720 C 1.03896 0.77214 0.80535 0.0
C1721 C 0.08152 0.79765 0.80503 0.0
C1722 C 0.99244 0.79173 0.80486 0.0
C1723 C 0.98202 0.83976 0.80364 0.0
H1724 H 1.04137 0.7352 0.806 0.0
H1725 H 0.96399 0.7681 0.8052 0.0
S1726 S 0.07805 0.92519 0.80118 0.0
N1727 N 0.10635 0.87648 0.80284 0.0
N1728 N 1.02313 0.91199 0.80151 0.0
C1729 C 1.02431 0.86575 0.80303 0.0
C1730 C 0.07173 0.8457 0.80381 0.0
C1731 C 1.03039 0.29018 0.55989 0.0
C1732 C 0.05628 0.24791 0.56108 0.0
C1733 C 1.04964 0.33715 0.55954 0.0
C1734 C 0.09765 0.3482 0.5602 0.0
H1735 H 0.99361 0.28717 0.55911 0.0
H1736 H 1.02588 0.36535 0.55844 0.0
S1737 S 0.1837 0.25329 0.56401 0.0
N1738 N 0.13517 0.22441 0.5636 0.0
N1739 N 0.17007 0.30798 0.56241 0.0
C1740 C 0.12382 0.30619 0.56144 0.0
C1741 C 0.10412 0.25855 0.56204 0.0
C1742 C 0.53544 0.27865 0.30324 0.0
C1743 C 0.57756 0.3048 0.30381 0.0
C1744 C 0.48864 0.29764 0.30333 0.0
C1745 C 0.47748 0.34564 0.30378 0.0
H1746 H 0.53841 0.24173 0.30268 0.0
H1747 H 0.46057 0.27362 0.30291 0.0
S1748 S 0.57182 0.4328 0.30469 0.0
N1749 N 0.60085 0.38428 0.30447 0.0
N1750 N 0.51718 0.4187 0.30449 0.0
C1751 C 0.51921 0.37229 0.3042 0.0
C1752 C 0.56688 0.35282 0.30425 0.0
C1753 C 0.55726 0.83442 1.05792 0.0
C1754 C 0.6051 0.84603 1.05901 0.0
C1755 C 0.53856 0.78719 1.05813 0.0
C1756 C 0.56486 0.7452 1.05958 0.0
H1757 H 0.53325 0.86233 1.05657 0.0
H1758 H 0.50188 0.78375 1.05702 0.0
S1759 S 0.69182 0.75249 1.06403 0.0
N1760 N 0.67767 0.8069 1.06208 0.0
N1761 N 0.64371 0.72299 1.06312 0.0
C1762 C 0.61242 0.75657 1.06103 0.0
C1763 C 0.63158 0.80442 1.06056 0.0
C1764 C 0.09437 0.34556 0.94389 0.0
C1765 C 0.13688 0.32006 0.9426 0.0
C1766 C 1.04758 0.32587 0.94407 0.0
C1767 C 1.03678 0.27765 0.94308 0.0
H1768 H 0.09703 0.38243 0.94491 0.0
H1769 H 1.01927 0.34948 0.94529 0.0
S1770 S 0.132 0.19239 0.93831 0.0
N1771 N 0.16063 0.24111 0.93941 0.0
N1772 N 0.07738 0.20563 0.94009 0.0
C1773 C 0.07894 0.25188 0.94164 0.0
C1774 C 0.12644 0.272 0.9413 0.0
C1775 C 0.5468 0.35277 0.69666 0.0
C1776 C 0.50219 0.36466 0.69061 0.0
C1777 C 0.56605 0.30605 0.69682 0.0
C1778 C 0.54383 0.26495 0.69076 0.0
H1779 H 0.56743 0.38004 0.70182 0.0
H1780 H 0.59988 0.30228 0.70199 0.0
S1781 S 0.42821 0.2742 0.67142 0.0
N1782 N 0.43748 0.32742 0.67757 0.0
N1783 N 0.47395 0.24444 0.67659 0.0
C1784 C 0.49993 0.27673 0.68407 0.0
C1785 C 0.47963 0.32411 0.68437 0.0
C1786 C 0.58642 0.85044 0.44726 0.0
C1787 C 0.62751 0.82322 0.4449 0.0
C1788 C 0.53875 0.83302 0.4473 0.0
C1789 C 0.5257 0.78571 0.44502 0.0
H1790 H 0.59096 0.8868 0.44931 0.0
H1791 H 0.51168 0.85753 0.44952 0.0
S1792 S 0.61626 0.69758 0.4367 0.0
N1793 N 0.64721 0.74448 0.43899 0.0
N1794 N 0.56249 0.7128 0.43949 0.0
C1795 C 0.56641 0.7584 0.44245 0.0
C1796 C 0.61471 0.77626 0.44225 0.0
C1797 C 0.9793 0.82827 0.19436 0.0
C1798 C 1.00298 0.87047 0.19054 0.0
C1799 C 0.99939 0.78193 0.19394 0.0
C1800 C 1.04592 0.7715 0.18958 0.0
H1801 H 0.94383 0.83086 0.19805 0.0
H1802 H 0.97787 0.75386 0.19765 0.0
S1803 S 0.12603 0.86663 0.17805 0.0
N1804 N 0.07829 0.89501 0.18185 0.0
N1805 N 0.11473 0.81198 0.18132 0.0
C1806 C 0.07007 0.81343 0.1858 0.0
C1807 C 1.04952 0.86063 0.18614 0.0
C1808 C 0.23525 0.31979 0.37672 0.0
C1809 C 0.26808 0.30352 0.38854 0.0
C1810 C 0.24617 0.33561 0.35995 0.0
C1811 C 0.29135 0.33729 0.35289 0.0
H1812 H 0.19976 0.3206 0.38047 0.0
H1813 H 0.21808 0.34717 0.35239 0.0
S1814 S 0.39157 0.29404 0.37674 0.0
N1815 N 0.34926 0.28734 0.39005 0.0
N1816 N 0.36898 0.3169 0.36005 0.0
C1817 C 0.32436 0.32034 0.36444 0.0
C1818 C 0.31321 0.30386 0.38145 0.0
C1819 C 0.0559 0.08987 0.62542 0.0
C1820 C 0.06684 0.06481 0.61062 0.0
C1821 C 0.07182 0.07791 0.64198 0.0
C1822 C 0.10174 1.04028 0.64564 0.0
H1823 H 1.0337 0.11931 0.6243 0.0
H1824 H 0.06046 0.09919 0.65214 0.0
S1825 S 0.14516 0.96384 0.61194 0.0
N1826 N 0.11213 0.99977 0.60176 0.0
N1827 N 0.14248 0.97923 0.63153 0.0
C1828 C 0.11377 1.01563 0.6309 0.0
C1829 C 0.09665 1.02716 0.6141 0.0
C1830 C 0.2384 0.80951 0.8891 0.0
C1831 C 0.28391 0.8198 0.895 0.0
C1832 C 0.22695 0.79233 0.87239 0.0
C1833 C 0.25959 0.7827 0.85943 0.0
H1834 H 0.21031 0.81533 0.89755 0.0
H1835 H 0.19123 0.78665 0.86965 0.0
S1836 S 0.38474 0.79925 0.86748 0.0
N1837 N 0.36191 0.81605 0.88512 0.0
N1838 N 0.34177 0.78438 0.85542 0.0
C1839 C 0.30515 0.79225 0.86532 0.0
C1840 C 0.31667 0.81015 0.8822 0.0
C1841 C 0.60301 1.01464 0.14157 0.0
C1842 C 0.57697 1.05507 0.14586 0.0
C1843 C 0.62026 1.00323 0.12489 0.0
C1844 C 0.61346 1.03073 1.11034 0.0
H1845 H 0.61048 0.99075 0.15136 0.0
H1846 H 0.63931 0.97171 1.12346 0.0
S1847 S 0.54697 0.14029 1.11328 0.0
N1848 N 0.54606 0.12234 0.13255 0.0
N1849 N 0.57614 0.10172 1.10268 0.0
C1850 C 0.58723 0.07099 1.11452 0.0
C1851 C 0.57008 0.08269 0.13145 0.0
C1852 C 0.30499 0.80805 0.38957 0.0
C1853 C 0.34284 0.77835 0.39357 0.0
C1854 C 0.29348 0.82483 0.37298 0.0
C1855 C 0.31813 0.81389 0.35809 0.0
H1856 H 0.28321 0.81908 0.39963 0.0
H1857 H 0.264 0.84695 0.37191 0.0
S1858 S 0.42128 0.73791 0.36003 0.0
N1859 N 0.40536 0.73996 0.37957 0.0
N1860 N 0.38444 0.76956 0.34969 0.0
C1861 C 0.35611 0.78417 0.36186 0.0
C1862 C 0.36803 0.76734 0.37882 0.0
C1863 C 0.55737 0.10492 0.6259 0.0
C1864 C 0.54649 0.07993 0.64067 0.0
C1865 C 0.54025 0.09376 0.60929 0.0
C1866 C 0.51 1.05624 0.60527 0.0
H1867 H 0.57981 0.13422 0.62709 0.0
H1868 H 0.55131 0.11554 0.59928 0.0
S1869 S 0.46911 0.97765 0.63852 0.0
N1870 N 0.50157 1.0139 0.64892 0.0
N1871 N 0.47095 0.99395 0.61905 0.0
C1872 C 0.49889 1.03096 0.61991 0.0
C1873 C 0.5163 1.0423 0.63683 0.0
C1874 C 0.31024 0.29611 0.86352 0.0
C1875 C 0.35373 0.2765 0.85907 0.0
C1876 C 0.29768 0.31252 0.88003 0.0
C1877 C 0.32724 0.31191 0.89415 0.0
H1878 H 0.2847 0.29897 0.85396 0.0
H1879 H 0.26371 0.32648 0.88165 0.0
S1880 S 0.44626 0.26594 0.89054 0.0
N1881 N 0.42674 0.25895 0.8716 0.0
N1882 N 0.40434 0.28922 0.90138 0.0
C1883 C 0.37101 0.29278 0.88988 0.0
C1884 C 0.38369 0.27565 0.87305 0.0
C1885 C 1.00988 1.04864 1.11101 0.0
C1886 C 1.03744 0.0879 1.10703 0.0
C1887 C 0.99395 1.03696 0.12764 0.0
C1888 C 1.00449 0.0626 0.14234 0.0
H1889 H 0.99971 1.02629 1.101 0.0
H1890 H 0.97301 1.00663 0.12894 0.0
S1891 S 0.07558 0.16892 0.1401 0.0
N1892 N 0.07353 0.1526 1.1206 0.0
N1893 N 1.04596 0.13075 0.15065 0.0
C1894 C 1.03232 0.10167 0.13854 0.0
C1895 C 1.04783 0.11402 1.12158 0.0
C1896 C 0.74679 0.78891 0.87338 0.0
C1897 C 0.76498 0.80692 0.8886 0.0
C1898 C 0.75907 0.80495 0.8567 0.0
C1899 C 0.79058 0.84166 0.85295 0.0
H1900 H 0.7224 0.76115 0.87424 0.0
H1901 H 0.74291 0.78781 0.8464 0.0
S1902 S 0.84997 0.90316 0.8874 0.0
N1903 N 0.8184 0.86562 0.89752 0.0
N1904 N 0.83957 0.89495 0.8676 0.0
C1905 C 0.80882 0.86019 0.86804 0.0
C1906 C 0.79681 0.84345 0.88504 0.0
C1907 C 0.7423 0.32247 0.3857 0.0
C1908 C 0.78832 0.32845 0.39174 0.0
C1909 C 0.72998 0.30622 0.36902 0.0
C1910 C 0.76215 0.29353 0.35629 0.0
H1911 H 0.7146 0.33113 0.394 0.0
H1912 H 0.69401 0.30401 0.36607 0.0
S1913 S 0.88788 0.2977 0.36487 0.0
N1914 N 0.86611 0.3171 0.38235 0.0
N1915 N 0.84414 0.28653 0.35266 0.0
C1916 C 0.80816 0.29839 0.36234 0.0
C1917 C 0.82064 0.31543 0.3792 0.0
C1918 C 0.80392 0.31707 0.87157 0.0
C1919 C 0.82692 0.30405 0.85655 0.0
C1920 C 0.81574 0.30097 0.8882 0.0
C1921 C 0.85127 0.26852 0.89204 0.0
H1922 H 0.77578 0.34089 0.87058 0.0
H1923 H 0.79577 0.31436 0.89837 0.0
S1924 S 0.92299 0.21935 0.85802 0.0
N1925 N 0.88861 0.25397 0.84781 0.0
N1926 N 0.90876 0.22364 0.87769 0.0
C1927 C 0.87408 0.25435 0.87711 0.0
C1928 C 0.86267 0.27162 0.86015 0.0
C1929 C 0.86272 0.79405 0.3908 0.0
C1930 C 0.81711 0.80531 0.39626 0.0
C1931 C 0.87487 0.77715 0.3742 0.0
C1932 C 0.84289 0.76944 0.36099 0.0
H1933 H 0.89023 0.79862 0.39954 0.0
H1934 H 0.91058 0.7704 0.37171 0.0
S1935 S 0.71779 0.78947 0.36789 0.0
N1936 N 0.73968 0.80455 0.38584 0.0
N1937 N 0.76124 0.77389 0.3561 0.0
C1938 C 0.79719 0.78013 0.36639 0.0
C1939 C 0.78492 0.79735 0.38324 0.0
C1940 C 0.60861 0.49854 0.12989 0.0
C1941 C 0.60942 0.52924 0.14387 0.0
C1942 C 0.59198 0.51053 1.11327 0.0
C1943 C 0.57449 0.55479 1.10848 0.0
H1944 H 0.62061 0.46391 0.13177 0.0
H1945 H 0.59298 0.48398 1.10393 0.0
S1946 S 0.56984 0.65063 0.13915 0.0
N1947 N 0.59053 0.60826 0.15031 0.0
N1948 N 0.56142 0.62966 1.12048 0.0
C1949 C 0.57559 0.58573 1.12227 0.0
C1950 C 0.59205 0.57352 0.13917 0.0
C1951 C 0.05724 0.58272 0.63061 0.0
C1952 C 0.07084 0.56038 0.6456 0.0
C1953 C 0.07366 0.57073 0.61398 0.0
C1954 C 0.1059 0.53485 0.6101 0.0
H1955 H 1.03299 0.61057 0.63162 0.0
H1956 H 0.06033 0.59052 0.60382 0.0
S1957 S 0.15463 0.46334 0.64398 0.0
N1958 N 0.12068 0.49856 0.65427 0.0
N1959 N 0.15016 0.47703 0.6243 0.0
C1960 C 0.11989 0.51214 0.62496 0.0
C1961 C 0.10313 0.52437 0.64195 0.0
C1962 C 0.05889 0.61111 0.12446 0.0
C1963 C 1.04752 0.58669 0.13936 0.0
C1964 C 1.04153 0.59996 1.10785 0.0
C1965 C 1.01029 0.56317 1.10398 0.0
H1966 H 0.08185 0.64001 0.12556 0.0
H1967 H 1.05296 0.62129 1.09777 0.0
S1968 S 0.96829 0.48595 0.13754 0.0
N1969 N 1.00151 0.52174 0.14781 0.0
N1970 N 0.97034 0.50187 1.11804 0.0
C1971 C 0.99889 0.53843 1.11875 0.0
C1972 C 1.01672 0.54958 0.13562 0.0
C1973 C 0.53461 0.59397 0.63723 0.0
C1974 C 0.50536 0.55579 0.64111 0.0
C1975 C 0.55043 0.6061 0.62058 0.0
C1976 C 0.53986 0.58098 0.60576 0.0
H1977 H 0.54545 0.6157 0.64732 0.0
H1978 H 0.57211 0.63596 0.61943 0.0
S1979 S 0.46521 0.477 0.60762 0.0
N1980 N 0.46693 0.49312 0.62715 0.0
N1981 N 0.49672 0.51405 0.59726 0.0
C1982 C 0.51097 0.54251 0.60946 0.0
C1983 C 0.4941 0.5307 0.62637 0.0
C1984 C 0.32928 0.1794 0.5018 0.0
C1985 C 0.323 0.172 0.48397 0.0
C1986 C 0.35532 0.15039 0.51389 0.0
C1987 C 0.37982 0.10831 0.51013 0.0
H1988 H 0.31295 0.20955 0.50689 0.0
H1989 H 0.35623 0.16212 0.52655 0.0
S1990 S 0.3773 0.06693 0.46592 0.0
N1991 N 0.34655 0.11407 0.46438 0.0
N1992 N 0.39282 0.06269 0.48543 0.0
C1993 C 0.37355 0.10034 0.49235 0.0
C1994 C 0.34691 0.12996 0.48009 0.0
C1995 C 0.26791 0.11549 0.76797 0.0
C1996 C 0.30006 0.15108 0.76337 0.0
C1997 C 0.23816 0.08861 0.75635 0.0
C1998 C 0.2359 0.09142 0.73827 0.0
H1999 H 0.26487 0.10788 0.78096 0.0
H2000 H 0.21562 0.06387 0.76204 0.0
S2001 S 0.30728 0.18119 0.71814 0.0
N2002 N 0.3218 0.18808 0.73768 0.0
N2003 N 0.27034 0.13867 0.71742 0.0
C2004 C 0.26706 0.1272 0.73353 0.0
C2005 C 0.29685 0.15537 0.74533 0.0
C2006 C 0.20435 0.99334 1.01827 0.0
C2007 C 0.16961 1.02639 1.01365 0.0
C2008 C 0.23339 0.96556 1.00661 0.0
C2009 C 0.23274 0.96515 0.98847 0.0
H2010 H 0.21 0.98854 1.03132 0.0
H2011 H 0.25787 0.94287 1.01231 0.0
S2012 S 0.15082 1.04591 0.96815 0.0
N2013 N 0.13974 1.05569 0.98783 0.0
N2014 N 0.19108 1.0063 0.96748 0.0
C2015 C 0.19843 0.99823 0.98369 0.0
C2016 C 0.16892 1.02676 0.99553 0.0
C2017 C 0.37215 0.9409 0.24664 0.0
C2018 C 0.36999 0.94322 0.26475 0.0
C2019 C 0.40057 0.96918 0.23507 0.0
C2020 C 0.43225 1.00508 0.23976 0.0
H2021 H 0.35093 0.91529 0.24081 0.0
H2022 H 0.39707 0.96224 0.22203 0.0
S2023 S 0.44638 1.02901 0.28534 0.0
N2024 N 0.40758 0.98798 0.28586 0.0
N2025 N 0.45851 1.03778 0.26571 0.0
C2026 C 0.43101 1.0074 0.25789 0.0
C2027 C 0.40184 0.97854 0.26963 0.0
C2028 C 0.74901 0.9762 0.74195 0.0
C2029 C 0.74188 0.96725 0.75961 0.0
C2030 C 0.71959 1.00338 0.73042 0.0
C2031 C 0.6773 1.0265 0.73468 0.0
H2032 H 0.77932 0.96139 0.73651 0.0
H2033 H 0.73114 1.00623 0.71779 0.0
S2034 S 0.63585 1.01612 0.77872 0.0
N2035 N 0.68393 0.98673 0.77971 0.0
N2036 N 0.63113 1.03417 0.75953 0.0
C2037 C 0.66947 1.01748 0.75231 0.0
C2038 C 0.69969 0.98985 0.76403 0.0
C2039 C 0.93133 1.00609 0.49851 0.0
C2040 C 0.92626 1.00886 0.51652 0.0
C2041 C 0.90372 0.9784 0.48647 0.0
C2042 C 0.86568 0.94859 0.49051 0.0
H2043 H 0.95851 1.02652 0.49325 0.0
H2044 H 0.91314 0.98068 0.4736 0.0
S2045 S 0.83067 0.94091 0.53526 0.0
N2046 N 0.87445 0.97646 0.53665 0.0
N2047 N 0.82538 0.9273 0.51558 0.0
C2048 C 0.85968 0.95152 0.50847 0.0
C2049 C 0.88796 0.97975 0.52071 0.0
C2050 C 0.85802 0.1531 0.23183 0.0
C2051 C 0.8732 0.10652 0.2345 0.0
C2052 C 0.83185 0.18189 0.24395 0.0
C2053 C 0.81619 0.16949 0.26056 0.0
H2054 H 0.86711 0.16871 0.22021 0.0
H2055 H 0.82443 0.21645 0.2401 0.0
S2056 S 0.84628 1.05182 0.27523 0.0
N2057 N 0.86912 1.05148 0.25665 0.0
N2058 N 0.8223 0.10251 0.27785 0.0
C2059 C 0.83164 0.12317 0.26334 0.0
C2060 C 0.85851 0.09382 0.25108 0.0
C2061 C 0.75068 0.07418 0.99744 0.0
C2062 C 0.74172 0.08289 1.01502 0.0
C2063 C 0.77793 0.10238 0.98543 0.0
C2064 C 0.80067 0.14554 0.98896 0.0
H2065 H 0.73545 1.04362 0.9925 0.0
H2066 H 0.78092 0.08932 0.97297 0.0
S2067 S 0.78721 0.19287 1.0322 0.0
N2068 N 0.75916 0.14416 1.03401 0.0
N2069 N 0.80637 0.19525 1.01303 0.0
C2070 C 0.79093 0.15545 1.00646 0.0
C2071 C 0.76358 0.12611 1.01869 0.0
C2072 C 0.84412 0.63558 0.97949 0.0
C2073 C 0.8204 0.67808 0.98313 0.0
C2074 C 0.87201 0.60803 0.99144 0.0
C2075 C 0.87956 0.61631 1.00916 0.0
H2076 H 0.84154 0.6226 0.96702 0.0
H2077 H 0.88865 0.57817 0.98631 0.0
S2078 S 0.83448 0.72701 1.02607 0.0
N2079 N 0.81532 0.72876 1.00694 0.0
N2080 N 0.86185 0.67793 1.02807 0.0
C2081 C 0.85735 0.65938 1.01282 0.0
C2082 C 0.83012 0.68842 1.00056 0.0
C2083 C 0.7427 0.57136 0.25693 0.0
C2084 C 0.73262 0.58014 0.23948 0.0
C2085 C 0.76996 0.60018 0.26878 0.0
C2086 C 0.79189 0.6436 0.26508 0.0
H2087 H 0.72842 0.54033 0.2619 0.0
H2088 H 0.77364 0.58739 0.2812 0.0
S2089 S 0.77643 0.69009 0.22203 0.0
N2090 N 0.7483 0.64135 0.22044 0.0
N2091 N 0.79675 0.69274 0.24101 0.0
C2092 C 0.78164 0.65306 0.24767 0.0
C2093 C 0.75379 0.62349 0.23569 0.0
C2094 C 0.70417 0.50035 0.4815 0.0
C2095 C 0.74106 0.46959 0.48573 0.0
C2096 C 0.67631 0.528 0.49345 0.0
C2097 C 0.68006 0.53024 0.51147 0.0
H2098 H 0.69586 0.5034 0.46856 0.0
H2099 H 0.64971 0.54848 0.48813 0.0
S2100 S 0.77132 0.45809 0.53076 0.0
N2101 N 0.77801 0.4453 0.51105 0.0
N2102 N 0.72879 0.49517 0.53193 0.0
C2103 C 0.71693 0.4997 0.51588 0.0
C2104 C 0.74535 0.47115 0.50376 0.0
C2105 C 0.91565 0.47404 0.76784 0.0
C2106 C 0.8749 0.44841 0.76362 0.0
C2107 C 0.944 0.50186 0.75615 0.0
C2108 C 0.93737 0.50846 0.73836 0.0
H2109 H 0.92639 0.47315 0.78058 0.0
H2110 H 0.97314 0.51904 0.76153 0.0
S2111 S 0.83564 0.45112 0.71934 0.0
N2112 N 0.83085 0.43471 0.73873 0.0
N2113 N 0.88185 0.48343 0.71821 0.0
C2114 C 0.89684 0.48293 0.73398 0.0
C2115 C 0.86751 0.45493 0.7459 0.0
C2116 C 0.21305 0.51185 0.26263 0.0
C2117 C 0.24246 0.47399 0.25805 0.0
C2118 C 0.18564 0.54051 0.25098 0.0
C2119 C 0.18213 0.53641 0.233 0.0
H2120 H 0.21102 0.52041 0.27559 0.0
H2121 H 0.16605 0.56772 0.25654 0.0
S2122 S 0.25146 0.4439 0.21281 0.0
N2123 N 0.2645 0.43646 0.23241 0.0
N2124 N 0.21522 0.48718 0.21209 0.0
C2125 C 0.21143 0.4988 0.22823 0.0
C2126 C 0.23984 0.46967 0.24003 0.0
C2127 C 0.43851 0.50858 0.99598 0.0
C2128 C 0.43407 0.51114 1.01401 0.0
C2129 C 0.40982 0.48185 0.98404 0.0
C2130 C 0.37116 0.45316 0.98825 0.0
H2131 H 0.46616 0.52801 0.99058 0.0
H2132 H 0.41881 0.48405 0.97112 0.0
S2133 S 0.33887 0.44406 1.03321 0.0
N2134 N 0.38324 0.47884 1.03441 0.0
N2135 N 0.33191 0.43156 1.01349 0.0
C2136 C 0.36611 0.4555 1.00624 0.0
C2137 C 0.39563 0.48262 1.01837 0.0
C2138 C 0.33874 0.62909 0.73183 0.0
C2139 C 0.37927 0.60288 0.73554 0.0
C2140 C 0.30993 0.65432 0.74416 0.0
C2141 C 0.31531 0.65739 0.7621 0.0
H2142 H 0.32826 0.63044 0.71907 0.0
H2143 H 0.28145 0.67236 0.7392 0.0
S2144 S 0.41658 0.59714 0.78007 0.0
N2145 N 0.42254 0.58493 0.76028 0.0
N2146 N 0.36997 0.62867 0.78185 0.0
C2147 C 0.35574 0.63124 0.76599 0.0
C2148 C 0.38584 0.60594 0.75348 0.0
C2149 C 0.26332 0.6187 0.51857 0.0
C2150 C 0.22793 0.58626 0.51418 0.0
C2151 C 0.29064 0.64719 0.50676 0.0
C2152 C 0.28808 0.64929 0.48871 0.0
H2153 H 0.27066 0.62275 0.53155 0.0
H2154 H 0.31553 0.66895 0.51229 0.0
S2155 S 0.20119 0.57289 0.46881 0.0
N2156 N 0.19363 0.56035 0.48848 0.0
N2157 N 0.24215 0.61166 0.46797 0.0
C2158 C 0.25276 0.61706 0.4841 0.0
C2159 C 0.22475 0.58749 0.49606 0.0
C2160 C 0.32965 0.17487 0.34183 0.0
C2161 C 0.29016 0.19882 0.34689 0.0
C2162 C 0.33175 0.15459 0.32624 0.0
C2163 C 0.29314 0.15526 0.31594 0.0
H2164 H 0.35606 0.16545 0.35046 0.0
H2165 H 0.35944 0.13076 0.32401 0.0
S2166 S 0.1977 0.23793 0.31926 0.0
N2167 N 0.22483 0.24239 0.33702 0.0
N2168 N 0.22638 0.19975 0.30828 0.0
C2169 C 0.26088 0.19002 0.31887 0.0
C2170 C 0.25958 0.21235 0.33449 0.0
C2171 C 0.20003 0.10898 0.61576 0.0
C2172 C 0.2412 0.12 0.62375 0.0
C2173 C 0.19791 0.10795 0.5985 0.0
C2174 C 0.23754 0.11631 0.58908 0.0
H2175 H 0.1719 0.09453 0.62269 0.0
H2176 H 0.16843 0.09201 0.5928 0.0
S2177 S 0.34495 0.16848 0.60461 0.0
N2178 N 0.31552 0.15572 0.62135 0.0
N2179 N 0.31192 0.15421 0.58895 0.0
C2180 C 0.2741 0.13898 0.59699 0.0
C2181 C 0.27623 0.13988 0.61449 0.0
C2182 C 0.35871 0.92498 0.82868 0.0
C2183 C 0.34234 0.96668 0.82245 0.0
C2184 C 0.33871 0.90543 0.84259 0.0
C2185 C 0.30312 0.92814 0.85089 0.0
H2186 H 0.39045 0.91066 0.82409 0.0
H2187 H 0.35634 0.87741 0.84842 0.0
S2188 S 0.23669 1.02711 0.83567 0.0
N2189 N 0.27967 1.02179 0.82263 0.0
N2190 N 0.24265 0.98484 0.84891 0.0
C2191 C 0.28036 0.96364 0.84273 0.0
C2192 C 0.30048 0.98363 0.82855 0.0
C2193 C 0.39279 0.11284 1.07824 0.0
C2194 C 0.36715 0.07339 1.07443 0.0
C2195 C 0.42402 0.11225 1.09125 0.0
C2196 C 0.42951 0.07251 1.10079 0.0
H2197 H 0.38343 0.14589 1.07328 0.0
H2198 H 0.43809 0.14459 1.09544 0.0
S2199 S 0.39046 0.95591 1.08896 0.0
N2200 N 0.36549 0.99037 1.07565 0.0
N2201 N 0.42161 0.98926 1.10098 0.0
C2202 C 0.41355 1.03084 1.09413 0.0
C2203 C 0.383 1.03137 1.0805 0.0
C2204 C 0.74434 1.04164 0.86275 0.0
C2205 C 0.74439 0.08212 0.85329 0.0
C2206 C 0.75838 1.04235 0.87917 0.0
C2207 C 0.77105 0.08364 0.88672 0.0
H2208 H 0.74084 1.00841 0.85689 0.0
H2209 H 0.76408 1.01008 0.8854 0.0
S2210 S 0.75923 0.20006 0.86908 0.0
N2211 N 0.7448 0.16516 0.8539 0.0
N2212 N 0.77094 0.16695 0.88499 0.0
C2213 C 0.76225 0.12496 0.87841 0.0
C2214 C 0.74822 0.12409 0.86163 0.0
C2215 C 0.91947 0.10327 0.68165 0.0
C2216 C 0.88006 0.07637 0.68407 0.0
C2217 C 0.94644 0.09685 0.66753 0.0
C2218 C 0.93546 0.0623 0.65607 0.0
H2219 H 0.92405 0.13451 0.68871 0.0
H2220 H 0.97134 0.12289 0.66439 0.0
S2221 S 0.853 0.96759 0.66255 0.0
N2222 N 0.84431 1.0029 0.67817 0.0
N2223 N 0.89514 0.99029 0.65178 0.0
C2224 C 0.90472 1.02797 0.66103 0.0
C2225 C 0.87719 1.03481 0.67532 0.0
C2226 C 0.83311 0.95839 0.34535 0.0
C2227 C 0.80385 0.92327 0.35068 0.0
C2228 C 0.82102 0.9857 0.33201 0.0
C2229 C 0.77949 0.97827 0.32363 0.0
H2230 H 0.86116 0.97 0.35298 0.0
H2231 H 0.84083 1.01656 0.33019 0.0
S2232 S 0.70682 0.87486 0.32721 0.0
N2233 N 0.74343 0.87091 0.3426 0.0
N2234 N 0.72048 0.92219 0.31726 0.0
C2235 C 0.75697 0.9364 0.32626 0.0
C2236 C 0.76941 0.90862 0.33988 0.0
C2237 C 0.89692 0.11316 1.11402 0.0
C2238 C 0.85281 0.121 1.12039 0.0
C2239 C 0.90326 0.10476 1.09715 0.0
C2240 C 0.86536 0.10311 1.08653 0.0
H2241 H 0.92506 0.10624 1.12227 0.0
H2242 H 0.93569 0.09084 1.09311 0.0
S2243 S 0.74871 0.14489 1.09625 0.0
N2244 N 0.7753 0.14419 1.11417 0.0
N2245 N 0.78708 0.12893 1.08242 0.0
C2246 C 0.82442 0.12332 1.09213 0.0
C2247 C 0.81789 0.13149 1.10928 0.0
C2248 C 0.75547 0.43871 0.92498 0.0
C2249 C 0.77633 0.4801 0.92977 0.0
C2250 C 0.77073 0.41548 0.9109 0.0
C2251 C 0.80746 0.43297 0.90165 0.0
H2252 H 0.72276 0.42908 0.93021 0.0
H2253 H 0.74937 0.38862 0.90582 0.0
S2254 S 0.88747 0.52441 0.91466 0.0
N2255 N 0.84575 0.52599 0.92835 0.0
N2256 N 0.87469 0.48192 0.90202 0.0
C2257 C 0.83541 0.46631 0.90899 0.0
C2258 C 0.81969 0.49016 0.92319 0.0
C2259 C 0.79058 0.60982 0.14219 0.0
C2260 C 0.82941 0.61396 0.13218 0.0
C2261 C 0.79538 0.60739 0.15932 0.0
C2262 C 0.83931 0.60627 0.16645 0.0
H2263 H 0.7578 0.60131 0.13679 0.0
H2264 H 0.76577 0.59694 0.16643 0.0
S2265 S 0.94699 0.63899 0.14572 0.0
N2266 N 0.9091 0.63609 0.13073 0.0
N2267 N 0.91894 0.62646 0.16277 0.0
C2268 C 0.87616 0.62108 0.15682 0.0
C2269 C 0.8709 0.62597 0.13955 0.0
C2270 C 0.83233 0.40123 0.3389 0.0
C2271 C 0.79964 0.42676 0.34773 0.0
C2272 C 0.84906 0.41709 0.32384 0.0
C2273 C 0.83375 0.45918 0.31761 0.0
H2274 H 0.85093 0.37417 0.3449 0.0
H2275 H 0.87965 0.40137 0.31884 0.0
S2276 S 0.73152 0.52361 0.33166 0.0
N2277 N 0.73965 0.4842 0.34586 0.0
N2278 N 0.77155 0.51468 0.31767 0.0
C2279 C 0.79288 0.47742 0.32406 0.0
C2280 C 0.77561 0.46096 0.33929 0.0
C2281 C 0.70771 0.52776 0.65067 0.0
C2282 C 0.67644 0.56372 0.64836 0.0
C2283 C 0.7355 0.52671 0.66463 0.0
C2284 C 0.73314 0.56208 0.67645 0.0
H2285 H 0.71564 0.50425 0.64071 0.0
H2286 H 0.76366 0.50268 0.66456 0.0
S2287 S 0.64148 0.64901 0.67978 0.0
N2288 N 0.63315 0.6245 0.66164 0.0
N2289 N 0.68559 0.62241 0.68806 0.0
C2290 C 0.69472 0.59097 0.67612 0.0
C2291 C 0.66651 0.59221 0.66186 0.0
C2292 C 0.28311 0.4859 0.42032 0.0
C2293 C 0.32041 0.46695 0.42888 0.0
C2294 C 0.27594 0.47501 0.40375 0.0
C2295 C 0.30502 0.44403 0.39554 0.0
H2296 H 0.26458 0.51496 0.42528 0.0
H2297 H 0.2517 0.49559 0.39697 0.0
S2298 S 0.38961 0.36795 0.41553 0.0
N2299 N 0.37183 0.40212 0.43046 0.0
N2300 N 0.36104 0.38338 0.39892 0.0
C2301 C 0.33446 0.41722 0.40518 0.0
C2302 C 0.34048 0.42746 0.42219 0.0
C2303 C 0.40511 0.53056 0.15623 0.0
C2304 C 0.4384 0.56369 0.15241 0.0
C2305 C 0.37644 0.53639 0.16987 0.0
C2306 C 0.37996 0.576 0.17974 0.0
H2307 H 0.39624 0.50409 0.1474 0.0
H2308 H 0.3468 0.5143 0.17074 0.0
S2309 S 0.47657 0.65779 0.17979 0.0
N2310 N 0.48477 0.62592 0.16318 0.0
N2311 N 0.43023 0.63729 0.18881 0.0
C2312 C 0.42023 0.60197 0.17848 0.0
C2313 C 0.4495 0.59601 0.16461 0.0
C2314 C 0.25249 0.42737 0.82544 0.0
C2315 C 0.27306 0.46808 0.81988 0.0
C2316 C 0.26732 0.40682 0.84002 0.0
C2317 C 0.30306 0.42658 0.84918 0.0
H2318 H 0.22042 0.41607 0.82015 0.0
H2319 H 0.24633 0.3802 0.84541 0.0
S2320 S 0.382 0.51755 0.83494 0.0
N2321 N 0.34133 0.51569 0.82092 0.0
N2322 N 0.36915 0.47712 0.84833 0.0
C2323 C 0.33076 0.45935 0.8414 0.0
C2324 C 0.31568 0.48022 0.82658 0.0
C2325 C 0.40014 0.60789 0.59743 0.0
C2326 C 0.36115 0.6081 0.5873 0.0
C2327 C 0.39563 0.6148 0.61446 0.0
C2328 C 0.35238 0.62345 0.62145 0.0
H2329 H 0.43176 0.59334 0.59285 0.0
H2330 H 0.42428 0.60598 0.62225 0.0
S2331 S 0.24674 0.65226 0.59896 0.0
N2332 N 0.28327 0.6364 0.58449 0.0
N2333 N 0.27505 0.6494 0.61651 0.0
C2334 C 0.31677 0.63598 0.61092 0.0
C2335 C 0.32139 0.62904 0.59363 0.0
loop_
_geom_bond_atom_site_label_1
_geom_bond_atom_site_label_2
_geom_bond_distance
_geom_bond_site_symmetry_2
_ccdc_geom_bond_type
Tb0 C2 2.809 . S
Tb0 O20 2.484 . S
Tb0 O21 2.440 . S
Tb0 O22 2.658 . S
Tb0 O23 2.409 . S
Tb0 O24 2.378 . S
Tb0 O28 2.325 . S
Tb0 O31 2.341 . S
Tb1 C11 2.809 . S
Tb1 O22 2.325 . S
Tb1 O25 2.341 . S
Tb1 O26 2.484 . S
Tb1 O27 2.440 . S
Tb1 O28 2.658 . S
Tb1 O29 2.409 . S
Tb1 O30 2.378 . S
C2 Tb0 2.809 . S
C2 C3 1.514 . S
C2 O20 1.248 . S
C2 O21 1.266 . S
C3 C2 1.514 . S
C3 C4 1.359 . S
C3 C8 1.348 . S
C4 C3 1.359 . S
C4 C5 1.380 . S
C4 H32 0.929 . S
C5 C4 1.380 . S
C5 C6 1.347 . S
C5 H33 0.931 . S
C6 C5 1.347 . S
C6 C7 1.369 . S
C7 C6 1.369 . S
C7 C8 1.408 . S
C7 H34 0.930 . S
C8 C3 1.348 . S
C8 C7 1.408 . S
C8 H35 0.930 . S
C9 O22 1.281 . S
C9 O23 1.254 . S
C10 O24 1.236 . S
C10 O25 1.266 . S
C11 Tb1 2.809 . S
C11 C12 1.514 . S
C11 O26 1.248 . S
C11 O27 1.266 . S
C12 C11 1.514 . S
C12 C13 1.359 . S
C12 C17 1.348 . S
C13 C12 1.359 . S
C13 C14 1.380 . S
C13 H36 0.929 . S
C14 C13 1.380 . S
C14 C15 1.347 . S
C14 H37 0.931 . S
C15 C14 1.347 . S
C15 C16 1.369 . S
C16 C15 1.369 . S
C16 C17 1.408 . S
C16 H38 0.930 . S
C17 C12 1.348 . S
C17 C16 1.408 . S
C17 H39 0.930 . S
C18 O28 1.281 . S
C18 O29 1.254 . S
C19 O30 1.236 . S
C19 O31 1.266 . S
O20 Tb0 2.484 . S
O20 C2 1.248 . S
O21 Tb0 2.440 . S
O21 C2 1.266 . S
O22 Tb0 2.658 . S
O22 Tb1 2.325 . S
O22 C9 1.281 . S
O23 Tb0 2.409 . S
O23 C9 1.254 . S
O24 Tb0 2.378 . S
O24 C10 1.236 . S
O25 Tb1 2.341 . S
O25 C10 1.266 . S
O26 Tb1 2.484 . S
O26 C11 1.248 . S
O27 Tb1 2.440 . S
O27 C11 1.266 . S
O28 Tb0 2.325 . S
O28 Tb1 2.658 . S
O28 C18 1.281 . S
O29 Tb1 2.409 . S
O29 C18 1.254 . S
O30 Tb1 2.378 . S
O30 C19 1.236 . S
O31 Tb0 2.341 . S
O31 C19 1.266 . S
H32 C4 0.929 . S
H33 C5 0.931 . S
H34 C7 0.930 . S
H35 C8 0.930 . S
H36 C13 0.929 . S
H37 C14 0.931 . S
H38 C16 0.930 . S
H39 C17 0.930 . S
Tb40 C42 2.809 . S
Tb40 O60 2.484 . S
Tb40 O61 2.440 . S
Tb40 O62 2.658 1_655 S
Tb40 O63 2.409 1_665 S
Tb40 O64 2.378 1_655 S
Tb40 O68 2.325 1_655 S
Tb40 O71 2.341 . S
Tb41 C51 2.809 . S
Tb41 O62 2.325 . S
Tb41 O65 2.341 . S
Tb41 O66 2.484 . S
Tb41 O67 2.440 . S
Tb41 O68 2.658 . S
Tb41 O69 2.409 . S
Tb41 O70 2.378 . S
C42 Tb40 2.809 . S
C42 C43 1.514 . S
C42 O60 1.248 . S
C42 O61 1.266 . S
C43 C42 1.514 . S
C43 C44 1.359 . S
C43 C48 1.348 . S
C44 C43 1.359 . S
C44 C45 1.380 . S
C44 H72 0.929 . S
C45 C44 1.380 . S
C45 C46 1.347 . S
C45 H73 0.931 . S
C46 C45 1.347 . S
C46 C47 1.369 . S
C47 C46 1.369 . S
C47 C48 1.408 . S
C47 H74 0.930 . S
C48 C43 1.348 . S
C48 C47 1.408 . S
C48 H75 0.930 . S
C49 O62 1.281 1_545 S
C49 O63 1.254 . S
C50 O64 1.236 . S
C50 O65 1.266 . S
C51 Tb41 2.809 . S
C51 C52 1.514 . S
C51 O66 1.248 . S
C51 O67 1.266 . S
C52 C51 1.514 . S
C52 C53 1.359 1_565 S
C52 C57 1.348 . S
C53 C52 1.359 1_545 S
C53 C54 1.380 . S
C53 H76 0.929 . S
C54 C53 1.380 . S
C54 C55 1.347 1_545 S
C54 H77 0.931 . S
C55 C54 1.347 1_565 S
C55 C56 1.369 . S
C56 C55 1.369 . S
C56 C57 1.408 . S
C56 H78 0.930 . S
C57 C52 1.348 . S
C57 C56 1.408 . S
C57 H79 0.930 . S
C58 O68 1.281 . S
C58 O69 1.254 . S
C59 O70 1.236 . S
C59 O71 1.266 1_455 S
O60 Tb40 2.484 . S
O60 C42 1.248 . S
O61 Tb40 2.440 . S
O61 C42 1.266 . S
O62 Tb40 2.658 1_455 S
O62 Tb41 2.325 . S
O62 C49 1.281 1_565 S
O63 Tb40 2.409 1_445 S
O63 C49 1.254 . S
O64 Tb40 2.378 1_455 S
O64 C50 1.236 . S
O65 Tb41 2.341 . S
O65 C50 1.266 . S
O66 Tb41 2.484 . S
O66 C51 1.248 . S
O67 Tb41 2.440 . S
O67 C51 1.266 . S
O68 Tb40 2.325 1_455 S
O68 Tb41 2.658 . S
O68 C58 1.281 . S
O69 Tb41 2.409 . S
O69 C58 1.254 . S
O70 Tb41 2.378 . S
O70 C59 1.236 . S
O71 Tb40 2.341 . S
O71 C59 1.266 1_655 S
H72 C44 0.929 . S
H73 C45 0.931 . S
H74 C47 0.930 . S
H75 C48 0.930 . S
H76 C53 0.929 . S
H77 C54 0.931 . S
H78 C56 0.930 . S
H79 C57 0.930 . S
Tb80 C82 2.809 . S
Tb80 O100 2.484 . S
Tb80 O101 2.440 . S
Tb80 O102 2.658 . S
Tb80 O103 2.409 . S
Tb80 O104 2.378 . S
Tb80 O108 2.325 . S
Tb80 O111 2.341 . S
Tb81 C91 2.809 . S
Tb81 O102 2.325 . S
Tb81 O105 2.341 . S
Tb81 O106 2.484 . S
Tb81 O107 2.440 . S
Tb81 O108 2.658 . S
Tb81 O109 2.409 . S
Tb81 O110 2.378 . S
C82 Tb80 2.809 . S
C82 C83 1.514 . S
C82 O100 1.248 . S
C82 O101 1.266 . S
C83 C82 1.514 . S
C83 C84 1.359 . S
C83 C88 1.348 . S
C84 C83 1.359 . S
C84 C85 1.380 . S
C84 H112 0.929 . S
C85 C84 1.380 . S
C85 C86 1.347 . S
C85 H113 0.931 . S
C86 C85 1.347 . S
C86 C87 1.369 . S
C87 C86 1.369 . S
C87 C88 1.408 . S
C87 H114 0.930 . S
C88 C83 1.348 . S
C88 C87 1.408 . S
C88 H115 0.930 . S
C89 O102 1.281 . S
C89 O103 1.254 . S
C90 O104 1.236 . S
C90 O105 1.266 . S
C91 Tb81 2.809 . S
C91 C92 1.514 . S
C91 O106 1.248 . S
C91 O107 1.266 . S
C92 C91 1.514 . S
C92 C93 1.359 . S
C92 C97 1.348 . S
C93 C92 1.359 . S
C93 C94 1.380 . S
C93 H116 0.929 . S
C94 C93 1.380 . S
C94 C95 1.347 . S
C94 H117 0.931 . S
C95 C94 1.347 . S
C95 C96 1.369 . S
C96 C95 1.369 . S
C96 C97 1.408 . S
C96 H118 0.930 . S
C97 C92 1.348 . S
C97 C96 1.408 . S
C97 H119 0.930 . S
C98 O108 1.281 . S
C98 O109 1.254 . S
C99 O110 1.236 . S
C99 O111 1.266 . S
O100 Tb80 2.484 . S
O100 C82 1.248 . S
O101 Tb80 2.440 . S
O101 C82 1.266 . S
O102 Tb80 2.658 . S
O102 Tb81 2.325 . S
O102 C89 1.281 . S
O103 Tb80 2.409 . S
O103 C89 1.254 . S
O104 Tb80 2.378 . S
O104 C90 1.236 . S
O105 Tb81 2.341 . S
O105 C90 1.266 . S
O106 Tb81 2.484 . S
O106 C91 1.248 . S
O107 Tb81 2.440 . S
O107 C91 1.266 . S
O108 Tb80 2.325 . S
O108 Tb81 2.658 . S
O108 C98 1.281 . S
O109 Tb81 2.409 . S
O109 C98 1.254 . S
O110 Tb81 2.378 . S
O110 C99 1.236 . S
O111 Tb80 2.341 . S
O111 C99 1.266 . S
H112 C84 0.929 . S
H113 C85 0.931 . S
H114 C87 0.930 . S
H115 C88 0.930 . S
H116 C93 0.929 . S
H117 C94 0.931 . S
H118 C96 0.930 . S
H119 C97 0.930 . S
Tb120 C122 2.809 . S
Tb120 O140 2.484 . S
Tb120 O141 2.440 . S
Tb120 O142 2.658 . S
Tb120 O143 2.409 1_545 S
Tb120 O144 2.378 . S
Tb120 O148 2.325 . S
Tb120 O151 2.341 . S
Tb121 C131 2.809 . S
Tb121 O142 2.325 . S
Tb121 O145 2.341 . S
Tb121 O146 2.484 . S
Tb121 O147 2.440 . S
Tb121 O148 2.658 . S
Tb121 O149 2.409 . S
Tb121 O150 2.378 . S
C122 Tb120 2.809 . S
C122 C123 1.514 . S
C122 O140 1.248 . S
C122 O141 1.266 . S
C123 C122 1.514 . S
C123 C124 1.359 . S
C123 C128 1.348 . S
C124 C123 1.359 . S
C124 C125 1.380 . S
C124 H152 0.929 . S
C125 C124 1.380 . S
C125 C126 1.347 . S
C125 H153 0.931 . S
C126 C125 1.347 . S
C126 C127 1.369 . S
C127 C126 1.369 . S
C127 C128 1.408 . S
C127 H154 0.930 . S
C128 C123 1.348 . S
C128 C127 1.408 . S
C128 H155 0.930 . S
C129 O142 1.281 1_565 S
C129 O143 1.254 . S
C130 O144 1.236 . S
C130 O145 1.266 . S
C131 Tb121 2.809 . S
C131 C132 1.514 . S
C131 O146 1.248 . S
C131 O147 1.266 . S
C132 C131 1.514 . S
C132 C133 1.359 1_545 S
C132 C137 1.348 . S
C133 C132 1.359 1_565 S
C133 C134 1.380 . S
C133 H156 0.929 . S
C134 C133 1.380 . S
C134 C135 1.347 1_565 S
C134 H157 0.931 . S
C135 C134 1.347 1_545 S
C135 C136 1.369 . S
C136 C135 1.369 . S
C136 C137 1.408 . S
C136 H158 0.930 . S
C137 C132 1.348 . S
C137 C136 1.408 . S
C137 H159 0.930 . S
C138 O148 1.281 . S
C138 O149 1.254 . S
C139 O150 1.236 . S
C139 O151 1.266 . S
O140 Tb120 2.484 . S
O140 C122 1.248 . S
O141 Tb120 2.440 . S
O141 C122 1.266 . S
O142 Tb120 2.658 . S
O142 Tb121 2.325 . S
O142 C129 1.281 1_545 S
O143 Tb120 2.409 1_565 S
O143 C129 1.254 . S
O144 Tb120 2.378 . S
O144 C130 1.236 . S
O145 Tb121 2.341 . S
O145 C130 1.266 . S
O146 Tb121 2.484 . S
O146 C131 1.248 . S
O147 Tb121 2.440 . S
O147 C131 1.266 . S
O148 Tb120 2.325 . S
O148 Tb121 2.658 . S
O148 C138 1.281 . S
O149 Tb121 2.409 . S
O149 C138 1.254 . S
O150 Tb121 2.378 . S
O150 C139 1.236 . S
O151 Tb120 2.341 . S
O151 C139 1.266 . S
H152 C124 0.929 . S
H153 C125 0.931 . S
H154 C127 0.930 . S
H155 C128 0.930 . S
H156 C133 0.929 . S
H157 C134 0.931 . S
H158 C136 0.930 . S
H159 C137 0.930 . S
Tb160 C162 2.809 . S
Tb160 O180 2.484 . S
Tb160 O181 2.440 . S
Tb160 O182 2.658 . S
Tb160 O183 2.409 . S
Tb160 O184 2.378 . S
Tb160 O188 2.325 . S
Tb160 O191 2.341 . S
Tb161 C171 2.809 . S
Tb161 O182 2.325 . S
Tb161 O185 2.341 . S
Tb161 O186 2.484 . S
Tb161 O187 2.440 . S
Tb161 O188 2.658 . S
Tb161 O189 2.409 . S
Tb161 O190 2.378 . S
C162 Tb160 2.809 . S
C162 C163 1.514 . S
C162 O180 1.248 . S
C162 O181 1.266 . S
C163 C162 1.514 . S
C163 C164 1.359 . S
C163 C168 1.348 . S
C164 C163 1.359 . S
C164 C165 1.380 . S
C164 H192 0.929 . S
C165 C164 1.380 . S
C165 C166 1.347 . S
C165 H193 0.931 . S
C166 C165 1.347 . S
C166 C167 1.369 . S
C167 C166 1.369 . S
C167 C168 1.408 . S
C167 H194 0.930 . S
C168 C163 1.348 . S
C168 C167 1.408 . S
C168 H195 0.930 . S
C169 O182 1.281 . S
C169 O183 1.254 . S
C170 O184 1.236 . S
C170 O185 1.266 . S
C171 Tb161 2.809 . S
C171 C172 1.514 . S
C171 O186 1.248 . S
C171 O187 1.266 . S
C172 C171 1.514 . S
C172 C173 1.359 . S
C172 C177 1.348 . S
C173 C172 1.359 . S
C173 C174 1.380 . S
C173 H196 0.929 . S
C174 C173 1.380 . S
C174 C175 1.347 . S
C174 H197 0.931 . S
C175 C174 1.347 . S
C175 C176 1.369 . S
C176 C175 1.369 . S
C176 C177 1.408 . S
C176 H198 0.930 . S
C177 C172 1.348 . S
C177 C176 1.408 . S
C177 H199 0.930 . S
C178 O188 1.281 . S
C178 O189 1.254 . S
C179 O190 1.236 . S
C179 O191 1.266 . S
O180 Tb160 2.484 . S
O180 C162 1.248 . S
O181 Tb160 2.440 . S
O181 C162 1.266 . S
O182 Tb160 2.658 . S
O182 Tb161 2.325 . S
O182 C169 1.281 . S
O183 Tb160 2.409 . S
O183 C169 1.254 . S
O184 Tb160 2.378 . S
O184 C170 1.236 . S
O185 Tb161 2.341 . S
O185 C170 1.266 . S
O186 Tb161 2.484 . S
O186 C171 1.248 . S
O187 Tb161 2.440 . S
O187 C171 1.266 . S
O188 Tb160 2.325 . S
O188 Tb161 2.658 . S
O188 C178 1.281 . S
O189 Tb161 2.409 . S
O189 C178 1.254 . S
O190 Tb161 2.378 . S
O190 C179 1.236 . S
O191 Tb160 2.341 . S
O191 C179 1.266 . S
H192 C164 0.929 . S
H193 C165 0.931 . S
H194 C167 0.930 . S
H195 C168 0.930 . S
H196 C173 0.929 . S
H197 C174 0.931 . S
H198 C176 0.930 . S
H199 C177 0.930 . S
Tb200 C202 2.809 . S
Tb200 O220 2.484 . S
Tb200 O221 2.440 . S
Tb200 O222 2.658 . S
Tb200 O223 2.409 1_565 S
Tb200 O224 2.378 . S
Tb200 O228 2.325 . S
Tb200 O231 2.341 . S
Tb201 C211 2.809 . S
Tb201 O222 2.325 . S
Tb201 O225 2.341 . S
Tb201 O226 2.484 . S
Tb201 O227 2.440 . S
Tb201 O228 2.658 . S
Tb201 O229 2.409 . S
Tb201 O230 2.378 . S
C202 Tb200 2.809 . S
C202 C203 1.514 . S
C202 O220 1.248 . S
C202 O221 1.266 . S
C203 C202 1.514 . S
C203 C204 1.359 . S
C203 C208 1.348 . S
C204 C203 1.359 . S
C204 C205 1.380 . S
C204 H232 0.929 . S
C205 C204 1.380 . S
C205 C206 1.347 . S
C205 H233 0.931 . S
C206 C205 1.347 . S
C206 C207 1.369 . S
C207 C206 1.369 . S
C207 C208 1.408 . S
C207 H234 0.930 . S
C208 C203 1.348 . S
C208 C207 1.408 . S
C208 H235 0.930 . S
C209 O222 1.281 1_545 S
C209 O223 1.254 . S
C210 O224 1.236 . S
C210 O225 1.266 . S
C211 Tb201 2.809 . S
C211 C212 1.514 . S
C211 O226 1.248 . S
C211 O227 1.266 . S
C212 C211 1.514 . S
C212 C213 1.359 1_565 S
C212 C217 1.348 . S
C213 C212 1.359 1_545 S
C213 C214 1.380 . S
C213 H236 0.929 . S
C214 C213 1.380 . S
C214 C215 1.347 1_545 S
C214 H237 0.931 . S
C215 C214 1.347 1_565 S
C215 C216 1.369 . S
C216 C215 1.369 . S
C216 C217 1.408 . S
C216 H238 0.930 . S
C217 C212 1.348 . S
C217 C216 1.408 . S
C217 H239 0.930 . S
C218 O228 1.281 . S
C218 O229 1.254 . S
C219 O230 1.236 . S
C219 O231 1.266 . S
O220 Tb200 2.484 . S
O220 C202 1.248 . S
O221 Tb200 2.440 . S
O221 C202 1.266 . S
O222 Tb200 2.658 . S
O222 Tb201 2.325 . S
O222 C209 1.281 1_565 S
O223 Tb200 2.409 1_545 S
O223 C209 1.254 . S
O224 Tb200 2.378 . S
O224 C210 1.236 . S
O225 Tb201 2.341 . S
O225 C210 1.266 . S
O226 Tb201 2.484 . S
O226 C211 1.248 . S
O227 Tb201 2.440 . S
O227 C211 1.266 . S
O228 Tb200 2.325 . S
O228 Tb201 2.658 . S
O228 C218 1.281 . S
O229 Tb201 2.409 . S
O229 C218 1.254 . S
O230 Tb201 2.378 . S
O230 C219 1.236 . S
O231 Tb200 2.341 . S
O231 C219 1.266 . S
H232 C204 0.929 . S
H233 C205 0.931 . S
H234 C207 0.930 . S
H235 C208 0.930 . S
H236 C213 0.929 . S
H237 C214 0.931 . S
H238 C216 0.930 . S
H239 C217 0.930 . S
Tb240 C242 2.809 . S
Tb240 O260 2.484 . S
Tb240 O261 2.440 . S
Tb240 O262 2.658 . S
Tb240 O263 2.409 . S
Tb240 O264 2.378 . S
Tb240 O268 2.325 . S
Tb240 O271 2.341 . S
Tb241 C251 2.809 . S
Tb241 O262 2.325 . S
Tb241 O265 2.341 . S
Tb241 O266 2.484 . S
Tb241 O267 2.440 . S
Tb241 O268 2.658 . S
Tb241 O269 2.409 . S
Tb241 O270 2.378 . S
C242 Tb240 2.809 . S
C242 C243 1.514 . S
C242 O260 1.248 . S
C242 O261 1.266 . S
C243 C242 1.514 . S
C243 C244 1.359 . S
C243 C248 1.348 . S
C244 C243 1.359 . S
C244 C245 1.380 . S
C244 H272 0.929 . S
C245 C244 1.380 . S
C245 C246 1.347 . S
C245 H273 0.931 . S
C246 C245 1.347 . S
C246 C247 1.369 . S
C247 C246 1.369 . S
C247 C248 1.408 . S
C247 H274 0.930 . S
C248 C243 1.348 . S
C248 C247 1.408 . S
C248 H275 0.930 . S
C249 O262 1.281 . S
C249 O263 1.254 . S
C250 O264 1.236 . S
C250 O265 1.266 . S
C251 Tb241 2.809 . S
C251 C252 1.514 . S
C251 O266 1.248 . S
C251 O267 1.266 . S
C252 C251 1.514 . S
C252 C253 1.359 . S
C252 C257 1.348 . S
C253 C252 1.359 . S
C253 C254 1.380 . S
C253 H276 0.929 . S
C254 C253 1.380 . S
C254 C255 1.347 . S
C254 H277 0.931 . S
C255 C254 1.347 . S
C255 C256 1.369 . S
C256 C255 1.369 . S
C256 C257 1.408 . S
C256 H278 0.930 . S
C257 C252 1.348 . S
C257 C256 1.408 . S
C257 H279 0.930 . S
C258 O268 1.281 . S
C258 O269 1.254 . S
C259 O270 1.236 . S
C259 O271 1.266 . S
O260 Tb240 2.484 . S
O260 C242 1.248 . S
O261 Tb240 2.440 . S
O261 C242 1.266 . S
O262 Tb240 2.658 . S
O262 Tb241 2.325 . S
O262 C249 1.281 . S
O263 Tb240 2.409 . S
O263 C249 1.254 . S
O264 Tb240 2.378 . S
O264 C250 1.236 . S
O265 Tb241 2.341 . S
O265 C250 1.266 . S
O266 Tb241 2.484 . S
O266 C251 1.248 . S
O267 Tb241 2.440 . S
O267 C251 1.266 . S
O268 Tb240 2.325 . S
O268 Tb241 2.658 . S
O268 C258 1.281 . S
O269 Tb241 2.409 . S
O269 C258 1.254 . S
O270 Tb241 2.378 . S
O270 C259 1.236 . S
O271 Tb240 2.341 . S
O271 C259 1.266 . S
H272 C244 0.929 . S
H273 C245 0.931 . S
H274 C247 0.930 . S
H275 C248 0.930 . S
H276 C253 0.929 . S
H277 C254 0.931 . S
H278 C256 0.930 . S
H279 C257 0.930 . S
Tb280 C282 2.809 . S
Tb280 O300 2.484 . S
Tb280 O301 2.440 . S
Tb280 O302 2.658 1_655 S
Tb280 O303 2.409 1_645 S
Tb280 O304 2.378 1_655 S
Tb280 O308 2.325 1_655 S
Tb280 O311 2.341 . S
Tb281 C291 2.809 . S
Tb281 O302 2.325 . S
Tb281 O305 2.341 . S
Tb281 O306 2.484 . S
Tb281 O307 2.440 . S
Tb281 O308 2.658 . S
Tb281 O309 2.409 . S
Tb281 O310 2.378 . S
C282 Tb280 2.809 . S
C282 C283 1.514 . S
C282 O300 1.248 . S
C282 O301 1.266 . S
C283 C282 1.514 . S
C283 C284 1.359 . S
C283 C288 1.348 . S
C284 C283 1.359 . S
C284 C285 1.380 . S
C284 H312 0.929 . S
C285 C284 1.380 . S
C285 C286 1.347 . S
C285 H313 0.931 . S
C286 C285 1.347 . S
C286 C287 1.369 . S
C287 C286 1.369 . S
C287 C288 1.408 . S
C287 H314 0.930 . S
C288 C283 1.348 . S
C288 C287 1.408 . S
C288 H315 0.930 . S
C289 O302 1.281 1_565 S
C289 O303 1.254 . S
C290 O304 1.236 . S
C290 O305 1.266 . S
C291 Tb281 2.809 . S
C291 C292 1.514 . S
C291 O306 1.248 . S
C291 O307 1.266 . S
C292 C291 1.514 . S
C292 C293 1.359 1_545 S
C292 C297 1.348 . S
C293 C292 1.359 1_565 S
C293 C294 1.380 . S
C293 H316 0.929 . S
C294 C293 1.380 . S
C294 C295 1.347 1_565 S
C294 H317 0.931 . S
C295 C294 1.347 1_545 S
C295 C296 1.369 . S
C296 C295 1.369 . S
C296 C297 1.408 . S
C296 H318 0.930 . S
C297 C292 1.348 . S
C297 C296 1.408 . S
C297 H319 0.930 . S
C298 O308 1.281 . S
C298 O309 1.254 . S
C299 O310 1.236 . S
C299 O311 1.266 1_455 S
O300 Tb280 2.484 . S
O300 C282 1.248 . S
O301 Tb280 2.440 . S
O301 C282 1.266 . S
O302 Tb280 2.658 1_455 S
O302 Tb281 2.325 . S
O302 C289 1.281 1_545 S
O303 Tb280 2.409 1_465 S
O303 C289 1.254 . S
O304 Tb280 2.378 1_455 S
O304 C290 1.236 . S
O305 Tb281 2.341 . S
O305 C290 1.266 . S
O306 Tb281 2.484 . S
O306 C291 1.248 . S
O307 Tb281 2.440 . S
O307 C291 1.266 . S
O308 Tb280 2.325 1_455 S
O308 Tb281 2.658 . S
O308 C298 1.281 . S
O309 Tb281 2.409 . S
O309 C298 1.254 . S
O310 Tb281 2.378 . S
O310 C299 1.236 . S
O311 Tb280 2.341 . S
O311 C299 1.266 1_655 S
H312 C284 0.929 . S
H313 C285 0.931 . S
H314 C287 0.930 . S
H315 C288 0.930 . S
H316 C293 0.929 . S
H317 C294 0.931 . S
H318 C296 0.930 . S
H319 C297 0.930 . S
Tb320 C322 2.809 . S
Tb320 O340 2.484 . S
Tb320 O341 2.440 . S
Tb320 O342 2.658 . S
Tb320 O343 2.409 . S
Tb320 O344 2.378 . S
Tb320 O348 2.325 . S
Tb320 O351 2.341 . S
Tb321 C331 2.809 . S
Tb321 O342 2.325 . S
Tb321 O345 2.341 . S
Tb321 O346 2.484 . S
Tb321 O347 2.440 . S
Tb321 O348 2.658 . S
Tb321 O349 2.409 . S
Tb321 O350 2.378 . S
C322 Tb320 2.809 . S
C322 C323 1.514 . S
C322 O340 1.248 . S
C322 O341 1.266 . S
C323 C322 1.514 . S
C323 C324 1.359 . S
C323 C328 1.348 . S
C324 C323 1.359 . S
C324 C325 1.380 . S
C324 H352 0.929 . S
C325 C324 1.380 . S
C325 C326 1.347 . S
C325 H353 0.931 . S
C326 C325 1.347 . S
C326 C327 1.369 . S
C327 C326 1.369 . S
C327 C328 1.408 . S
C327 H354 0.930 . S
C328 C323 1.348 . S
C328 C327 1.408 . S
C328 H355 0.930 . S
C329 O342 1.281 . S
C329 O343 1.254 . S
C330 O344 1.236 . S
C330 O345 1.266 . S
C331 Tb321 2.809 . S
C331 C332 1.514 . S
C331 O346 1.248 . S
C331 O347 1.266 . S
C332 C331 1.514 . S
C332 C333 1.359 . S
C332 C337 1.348 . S
C333 C332 1.359 . S
C333 C334 1.380 . S
C333 H356 0.929 . S
C334 C333 1.380 . S
C334 C335 1.347 . S
C334 H357 0.931 . S
C335 C334 1.347 . S
C335 C336 1.369 . S
C336 C335 1.369 . S
C336 C337 1.408 . S
C336 H358 0.930 . S
C337 C332 1.348 . S
C337 C336 1.408 . S
C337 H359 0.930 . S
C338 O348 1.281 . S
C338 O349 1.254 . S
C339 O350 1.236 . S
C339 O351 1.266 . S
O340 Tb320 2.484 . S
O340 C322 1.248 . S
O341 Tb320 2.440 . S
O341 C322 1.266 . S
O342 Tb320 2.658 . S
O342 Tb321 2.325 . S
O342 C329 1.281 . S
O343 Tb320 2.409 . S
O343 C329 1.254 . S
O344 Tb320 2.378 . S
O344 C330 1.236 . S
O345 Tb321 2.341 . S
O345 C330 1.266 . S
O346 Tb321 2.484 . S
O346 C331 1.248 . S
O347 Tb321 2.440 . S
O347 C331 1.266 . S
O348 Tb320 2.325 . S
O348 Tb321 2.658 . S
O348 C338 1.281 . S
O349 Tb321 2.409 . S
O349 C338 1.254 . S
O350 Tb321 2.378 . S
O350 C339 1.236 . S
O351 Tb320 2.341 . S
O351 C339 1.266 . S
H352 C324 0.929 . S
H353 C325 0.931 . S
H354 C327 0.930 . S
H355 C328 0.930 . S
H356 C333 0.929 . S
H357 C334 0.931 . S
H358 C336 0.930 . S
H359 C337 0.930 . S
Tb360 C362 2.809 . S
Tb360 O380 2.484 . S
Tb360 O381 2.440 . S
Tb360 O382 2.658 . S
Tb360 O383 2.409 . S
Tb360 O384 2.378 . S
Tb360 O388 2.325 . S
Tb360 O391 2.341 . S
Tb361 C371 2.809 . S
Tb361 O382 2.325 1_455 S
Tb361 O385 2.341 . S
Tb361 O386 2.484 . S
Tb361 O387 2.440 . S
Tb361 O388 2.658 1_455 S
Tb361 O389 2.409 1_445 S
Tb361 O390 2.378 1_455 S
C362 Tb360 2.809 . S
C362 C363 1.514 . S
C362 O380 1.248 . S
C362 O381 1.266 . S
C363 C362 1.514 . S
C363 C364 1.359 1_545 S
C363 C368 1.348 . S
C364 C363 1.359 1_565 S
C364 C365 1.380 . S
C364 H392 0.929 . S
C365 C364 1.380 . S
C365 C366 1.347 1_565 S
C365 H393 0.931 . S
C366 C365 1.347 1_545 S
C366 C367 1.369 . S
C367 C366 1.369 . S
C367 C368 1.408 . S
C367 H394 0.930 . S
C368 C363 1.348 . S
C368 C367 1.408 . S
C368 H395 0.930 . S
C369 O382 1.281 . S
C369 O383 1.254 . S
C370 O384 1.236 . S
C370 O385 1.266 1_655 S
C371 Tb361 2.809 . S
C371 C372 1.514 . S
C371 O386 1.248 . S
C371 O387 1.266 . S
C372 C371 1.514 . S
C372 C373 1.359 . S
C372 C377 1.348 . S
C373 C372 1.359 . S
C373 C374 1.380 . S
C373 H396 0.929 . S
C374 C373 1.380 . S
C374 C375 1.347 . S
C374 H397 0.931 . S
C375 C374 1.347 . S
C375 C376 1.369 . S
C376 C375 1.369 . S
C376 C377 1.408 . S
C376 H398 0.930 . S
C377 C372 1.348 . S
C377 C376 1.408 . S
C377 H399 0.930 . S
C378 O388 1.281 1_565 S
C378 O389 1.254 . S
C379 O390 1.236 . S
C379 O391 1.266 . S
O380 Tb360 2.484 . S
O380 C362 1.248 . S
O381 Tb360 2.440 . S
O381 C362 1.266 . S
O382 Tb360 2.658 . S
O382 Tb361 2.325 1_655 S
O382 C369 1.281 . S
O383 Tb360 2.409 . S
O383 C369 1.254 . S
O384 Tb360 2.378 . S
O384 C370 1.236 . S
O385 Tb361 2.341 . S
O385 C370 1.266 1_455 S
O386 Tb361 2.484 . S
O386 C371 1.248 . S
O387 Tb361 2.440 . S
O387 C371 1.266 . S
O388 Tb360 2.325 . S
O388 Tb361 2.658 1_655 S
O388 C378 1.281 1_545 S
O389 Tb361 2.409 1_665 S
O389 C378 1.254 . S
O390 Tb361 2.378 1_655 S
O390 C379 1.236 . S
O391 Tb360 2.341 . S
O391 C379 1.266 . S
H392 C364 0.929 . S
H393 C365 0.931 . S
H394 C367 0.930 . S
H395 C368 0.930 . S
H396 C373 0.929 . S
H397 C374 0.931 . S
H398 C376 0.930 . S
H399 C377 0.930 . S
Tb400 C402 2.809 . S
Tb400 O420 2.484 . S
Tb400 O421 2.440 . S
Tb400 O422 2.658 . S
Tb400 O423 2.409 . S
Tb400 O424 2.378 . S
Tb400 O428 2.325 . S
Tb400 O431 2.341 . S
Tb401 C411 2.809 . S
Tb401 O422 2.325 . S
Tb401 O425 2.341 . S
Tb401 O426 2.484 . S
Tb401 O427 2.440 . S
Tb401 O428 2.658 . S
Tb401 O429 2.409 . S
Tb401 O430 2.378 . S
C402 Tb400 2.809 . S
C402 C403 1.514 . S
C402 O420 1.248 . S
C402 O421 1.266 . S
C403 C402 1.514 . S
C403 C404 1.359 . S
C403 C408 1.348 . S
C404 C403 1.359 . S
C404 C405 1.380 . S
C404 H432 0.929 . S
C405 C404 1.380 . S
C405 C406 1.347 . S
C405 H433 0.931 . S
C406 C405 1.347 . S
C406 C407 1.369 . S
C407 C406 1.369 . S
C407 C408 1.408 . S
C407 H434 0.930 . S
C408 C403 1.348 . S
C408 C407 1.408 . S
C408 H435 0.930 . S
C409 O422 1.281 . S
C409 O423 1.254 . S
C410 O424 1.236 . S
C410 O425 1.266 . S
C411 Tb401 2.809 . S
C411 C412 1.514 . S
C411 O426 1.248 . S
C411 O427 1.266 . S
C412 C411 1.514 . S
C412 C413 1.359 . S
C412 C417 1.348 . S
C413 C412 1.359 . S
C413 C414 1.380 . S
C413 H436 0.929 . S
C414 C413 1.380 . S
C414 C415 1.347 . S
C414 H437 0.931 . S
C415 C414 1.347 . S
C415 C416 1.369 . S
C416 C415 1.369 . S
C416 C417 1.408 . S
C416 H438 0.930 . S
C417 C412 1.348 . S
C417 C416 1.408 . S
C417 H439 0.930 . S
C418 O428 1.281 . S
C418 O429 1.254 . S
C419 O430 1.236 . S
C419 O431 1.266 . S
O420 Tb400 2.484 . S
O420 C402 1.248 . S
O421 Tb400 2.440 . S
O421 C402 1.266 . S
O422 Tb400 2.658 . S
O422 Tb401 2.325 . S
O422 C409 1.281 . S
O423 Tb400 2.409 . S
O423 C409 1.254 . S
O424 Tb400 2.378 . S
O424 C410 1.236 . S
O425 Tb401 2.341 . S
O425 C410 1.266 . S
O426 Tb401 2.484 . S
O426 C411 1.248 . S
O427 Tb401 2.440 . S
O427 C411 1.266 . S
O428 Tb400 2.325 . S
O428 Tb401 2.658 . S
O428 C418 1.281 . S
O429 Tb401 2.409 . S
O429 C418 1.254 . S
O430 Tb401 2.378 . S
O430 C419 1.236 . S
O431 Tb400 2.341 . S
O431 C419 1.266 . S
H432 C404 0.929 . S
H433 C405 0.931 . S
H434 C407 0.930 . S
H435 C408 0.930 . S
H436 C413 0.929 . S
H437 C414 0.931 . S
H438 C416 0.930 . S
H439 C417 0.930 . S
Tb440 C442 2.809 . S
Tb440 O460 2.484 . S
Tb440 O461 2.440 . S
Tb440 O462 2.658 . S
Tb440 O463 2.409 . S
Tb440 O464 2.378 . S
Tb440 O468 2.325 . S
Tb440 O471 2.341 . S
Tb441 C451 2.809 . S
Tb441 O462 2.325 . S
Tb441 O465 2.341 . S
Tb441 O466 2.484 . S
Tb441 O467 2.440 . S
Tb441 O468 2.658 . S
Tb441 O469 2.409 1_565 S
Tb441 O470 2.378 . S
C442 Tb440 2.809 . S
C442 C443 1.514 . S
C442 O460 1.248 . S
C442 O461 1.266 . S
C443 C442 1.514 . S
C443 C444 1.359 1_565 S
C443 C448 1.348 . S
C444 C443 1.359 1_545 S
C444 C445 1.380 . S
C444 H472 0.929 . S
C445 C444 1.380 . S
C445 C446 1.347 1_545 S
C445 H473 0.931 . S
C446 C445 1.347 1_565 S
C446 C447 1.369 . S
C447 C446 1.369 . S
C447 C448 1.408 . S
C447 H474 0.930 . S
C448 C443 1.348 . S
C448 C447 1.408 . S
C448 H475 0.930 . S
C449 O462 1.281 . S
C449 O463 1.254 . S
C450 O464 1.236 . S
C450 O465 1.266 . S
C451 Tb441 2.809 . S
C451 C452 1.514 . S
C451 O466 1.248 . S
C451 O467 1.266 . S
C452 C451 1.514 . S
C452 C453 1.359 . S
C452 C457 1.348 . S
C453 C452 1.359 . S
C453 C454 1.380 . S
C453 H476 0.929 . S
C454 C453 1.380 . S
C454 C455 1.347 . S
C454 H477 0.931 . S
C455 C454 1.347 . S
C455 C456 1.369 . S
C456 C455 1.369 . S
C456 C457 1.408 . S
C456 H478 0.930 . S
C457 C452 1.348 . S
C457 C456 1.408 . S
C457 H479 0.930 . S
C458 O468 1.281 1_545 S
C458 O469 1.254 . S
C459 O470 1.236 . S
C459 O471 1.266 . S
O460 Tb440 2.484 . S
O460 C442 1.248 . S
O461 Tb440 2.440 . S
O461 C442 1.266 . S
O462 Tb440 2.658 . S
O462 Tb441 2.325 . S
O462 C449 1.281 . S
O463 Tb440 2.409 . S
O463 C449 1.254 . S
O464 Tb440 2.378 . S
O464 C450 1.236 . S
O465 Tb441 2.341 . S
O465 C450 1.266 . S
O466 Tb441 2.484 . S
O466 C451 1.248 . S
O467 Tb441 2.440 . S
O467 C451 1.266 . S
O468 Tb440 2.325 . S
O468 Tb441 2.658 . S
O468 C458 1.281 1_565 S
O469 Tb441 2.409 1_545 S
O469 C458 1.254 . S
O470 Tb441 2.378 . S
O470 C459 1.236 . S
O471 Tb440 2.341 . S
O471 C459 1.266 . S
H472 C444 0.929 . S
H473 C445 0.931 . S
H474 C447 0.930 . S
H475 C448 0.930 . S
H476 C453 0.929 . S
H477 C454 0.931 . S
H478 C456 0.930 . S
H479 C457 0.930 . S
Tb480 C482 2.809 . S
Tb480 O500 2.484 . S
Tb480 O501 2.440 . S
Tb480 O502 2.658 . S
Tb480 O503 2.409 . S
Tb480 O504 2.378 . S
Tb480 O508 2.325 . S
Tb480 O511 2.341 . S
Tb481 C491 2.809 . S
Tb481 O502 2.325 . S
Tb481 O505 2.341 . S
Tb481 O506 2.484 . S
Tb481 O507 2.440 . S
Tb481 O508 2.658 . S
Tb481 O509 2.409 . S
Tb481 O510 2.378 . S
C482 Tb480 2.809 . S
C482 C483 1.514 . S
C482 O500 1.248 . S
C482 O501 1.266 . S
C483 C482 1.514 . S
C483 C484 1.359 . S
C483 C488 1.348 . S
C484 C483 1.359 . S
C484 C485 1.380 . S
C484 H512 0.929 . S
C485 C484 1.380 . S
C485 C486 1.347 . S
C485 H513 0.931 . S
C486 C485 1.347 . S
C486 C487 1.369 . S
C487 C486 1.369 . S
C487 C488 1.408 . S
C487 H514 0.930 . S
C488 C483 1.348 . S
C488 C487 1.408 . S
C488 H515 0.930 . S
C489 O502 1.281 . S
C489 O503 1.254 . S
C490 O504 1.236 . S
C490 O505 1.266 . S
C491 Tb481 2.809 . S
C491 C492 1.514 . S
C491 O506 1.248 . S
C491 O507 1.266 . S
C492 C491 1.514 . S
C492 C493 1.359 . S
C492 C497 1.348 . S
C493 C492 1.359 . S
C493 C494 1.380 . S
C493 H516 0.929 . S
C494 C493 1.380 . S
C494 C495 1.347 . S
C494 H517 0.931 . S
C495 C494 1.347 . S
C495 C496 1.369 . S
C496 C495 1.369 . S
C496 C497 1.408 . S
C496 H518 0.930 . S
C497 C492 1.348 . S
C497 C496 1.408 . S
C497 H519 0.930 . S
C498 O508 1.281 . S
C498 O509 1.254 . S
C499 O510 1.236 . S
C499 O511 1.266 . S
O500 Tb480 2.484 . S
O500 C482 1.248 . S
O501 Tb480 2.440 . S
O501 C482 1.266 . S
O502 Tb480 2.658 . S
O502 Tb481 2.325 . S
O502 C489 1.281 . S
O503 Tb480 2.409 . S
O503 C489 1.254 . S
O504 Tb480 2.378 . S
O504 C490 1.236 . S
O505 Tb481 2.341 . S
O505 C490 1.266 . S
O506 Tb481 2.484 . S
O506 C491 1.248 . S
O507 Tb481 2.440 . S
O507 C491 1.266 . S
O508 Tb480 2.325 . S
O508 Tb481 2.658 . S
O508 C498 1.281 . S
O509 Tb481 2.409 . S
O509 C498 1.254 . S
O510 Tb481 2.378 . S
O510 C499 1.236 . S
O511 Tb480 2.341 . S
O511 C499 1.266 . S
H512 C484 0.929 . S
H513 C485 0.931 . S
H514 C487 0.930 . S
H515 C488 0.930 . S
H516 C493 0.929 . S
H517 C494 0.931 . S
H518 C496 0.930 . S
H519 C497 0.930 . S
Tb520 C522 2.809 . S
Tb520 O540 2.484 . S
Tb520 O541 2.440 . S
Tb520 O542 2.658 . S
Tb520 O543 2.409 . S
Tb520 O544 2.378 . S
Tb520 O548 2.325 . S
Tb520 O551 2.341 . S
Tb521 C531 2.809 . S
Tb521 O542 2.325 . S
Tb521 O545 2.341 . S
Tb521 O546 2.484 . S
Tb521 O547 2.440 . S
Tb521 O548 2.658 . S
Tb521 O549 2.409 1_545 S
Tb521 O550 2.378 . S
C522 Tb520 2.809 . S
C522 C523 1.514 . S
C522 O540 1.248 . S
C522 O541 1.266 . S
C523 C522 1.514 . S
C523 C524 1.359 1_545 S
C523 C528 1.348 . S
C524 C523 1.359 1_565 S
C524 C525 1.380 . S
C524 H552 0.929 . S
C525 C524 1.380 . S
C525 C526 1.347 1_565 S
C525 H553 0.931 . S
C526 C525 1.347 1_545 S
C526 C527 1.369 . S
C527 C526 1.369 . S
C527 C528 1.408 . S
C527 H554 0.930 . S
C528 C523 1.348 . S
C528 C527 1.408 . S
C528 H555 0.930 . S
C529 O542 1.281 . S
C529 O543 1.254 . S
C530 O544 1.236 . S
C530 O545 1.266 . S
C531 Tb521 2.809 . S
C531 C532 1.514 . S
C531 O546 1.248 . S
C531 O547 1.266 . S
C532 C531 1.514 . S
C532 C533 1.359 . S
C532 C537 1.348 . S
C533 C532 1.359 . S
C533 C534 1.380 . S
C533 H556 0.929 . S
C534 C533 1.380 . S
C534 C535 1.347 . S
C534 H557 0.931 . S
C535 C534 1.347 . S
C535 C536 1.369 . S
C536 C535 1.369 . S
C536 C537 1.408 . S
C536 H558 0.930 . S
C537 C532 1.348 . S
C537 C536 1.408 . S
C537 H559 0.930 . S
C538 O548 1.281 1_565 S
C538 O549 1.254 . S
C539 O550 1.236 . S
C539 O551 1.266 . S
O540 Tb520 2.484 . S
O540 C522 1.248 . S
O541 Tb520 2.440 . S
O541 C522 1.266 . S
O542 Tb520 2.658 . S
O542 Tb521 2.325 . S
O542 C529 1.281 . S
O543 Tb520 2.409 . S
O543 C529 1.254 . S
O544 Tb520 2.378 . S
O544 C530 1.236 . S
O545 Tb521 2.341 . S
O545 C530 1.266 . S
O546 Tb521 2.484 . S
O546 C531 1.248 . S
O547 Tb521 2.440 . S
O547 C531 1.266 . S
O548 Tb520 2.325 . S
O548 Tb521 2.658 . S
O548 C538 1.281 1_545 S
O549 Tb521 2.409 1_565 S
O549 C538 1.254 . S
O550 Tb521 2.378 . S
O550 C539 1.236 . S
O551 Tb520 2.341 . S
O551 C539 1.266 . S
H552 C524 0.929 . S
H553 C525 0.931 . S
H554 C527 0.930 . S
H555 C528 0.930 . S
H556 C533 0.929 . S
H557 C534 0.931 . S
H558 C536 0.930 . S
H559 C537 0.930 . S
Tb560 C562 2.809 . S
Tb560 O580 2.484 . S
Tb560 O581 2.440 . S
Tb560 O582 2.658 . S
Tb560 O583 2.409 . S
Tb560 O584 2.378 . S
Tb560 O588 2.325 . S
Tb560 O591 2.341 . S
Tb561 C571 2.809 . S
Tb561 O582 2.325 . S
Tb561 O585 2.341 . S
Tb561 O586 2.484 . S
Tb561 O587 2.440 . S
Tb561 O588 2.658 . S
Tb561 O589 2.409 . S
Tb561 O590 2.378 . S
C562 Tb560 2.809 . S
C562 C563 1.514 . S
C562 O580 1.248 . S
C562 O581 1.266 . S
C563 C562 1.514 . S
C563 C564 1.359 . S
C563 C568 1.348 . S
C564 C563 1.359 . S
C564 C565 1.380 . S
C564 H592 0.929 . S
C565 C564 1.380 . S
C565 C566 1.347 . S
C565 H593 0.931 . S
C566 C565 1.347 . S
C566 C567 1.369 . S
C567 C566 1.369 . S
C567 C568 1.408 . S
C567 H594 0.930 . S
C568 C563 1.348 . S
C568 C567 1.408 . S
C568 H595 0.930 . S
C569 O582 1.281 . S
C569 O583 1.254 . S
C570 O584 1.236 . S
C570 O585 1.266 . S
C571 Tb561 2.809 . S
C571 C572 1.514 . S
C571 O586 1.248 . S
C571 O587 1.266 . S
C572 C571 1.514 . S
C572 C573 1.359 . S
C572 C577 1.348 . S
C573 C572 1.359 . S
C573 C574 1.380 . S
C573 H596 0.929 . S
C574 C573 1.380 . S
C574 C575 1.347 . S
C574 H597 0.931 . S
C575 C574 1.347 . S
C575 C576 1.369 . S
C576 C575 1.369 . S
C576 C577 1.408 . S
C576 H598 0.930 . S
C577 C572 1.348 . S
C577 C576 1.408 . S
C577 H599 0.930 . S
C578 O588 1.281 . S
C578 O589 1.254 . S
C579 O590 1.236 . S
C579 O591 1.266 . S
O580 Tb560 2.484 . S
O580 C562 1.248 . S
O581 Tb560 2.440 . S
O581 C562 1.266 . S
O582 Tb560 2.658 . S
O582 Tb561 2.325 . S
O582 C569 1.281 . S
O583 Tb560 2.409 . S
O583 C569 1.254 . S
O584 Tb560 2.378 . S
O584 C570 1.236 . S
O585 Tb561 2.341 . S
O585 C570 1.266 . S
O586 Tb561 2.484 . S
O586 C571 1.248 . S
O587 Tb561 2.440 . S
O587 C571 1.266 . S
O588 Tb560 2.325 . S
O588 Tb561 2.658 . S
O588 C578 1.281 . S
O589 Tb561 2.409 . S
O589 C578 1.254 . S
O590 Tb561 2.378 . S
O590 C579 1.236 . S
O591 Tb560 2.341 . S
O591 C579 1.266 . S
H592 C564 0.929 . S
H593 C565 0.931 . S
H594 C567 0.930 . S
H595 C568 0.930 . S
H596 C573 0.929 . S
H597 C574 0.931 . S
H598 C576 0.930 . S
H599 C577 0.930 . S
Tb600 C602 2.809 . S
Tb600 O620 2.484 . S
Tb600 O621 2.440 . S
Tb600 O622 2.658 . S
Tb600 O623 2.409 . S
Tb600 O624 2.378 . S
Tb600 O628 2.325 . S
Tb600 O631 2.341 . S
Tb601 C611 2.809 . S
Tb601 O622 2.325 1_455 S
Tb601 O625 2.341 . S
Tb601 O626 2.484 . S
Tb601 O627 2.440 . S
Tb601 O628 2.658 1_455 S
Tb601 O629 2.409 1_465 S
Tb601 O630 2.378 1_455 S
C602 Tb600 2.809 . S
C602 C603 1.514 . S
C602 O620 1.248 . S
C602 O621 1.266 . S
C603 C602 1.514 . S
C603 C604 1.359 1_565 S
C603 C608 1.348 . S
C604 C603 1.359 1_545 S
C604 C605 1.380 . S
C604 H632 0.929 . S
C605 C604 1.380 . S
C605 C606 1.347 1_545 S
C605 H633 0.931 . S
C606 C605 1.347 1_565 S
C606 C607 1.369 . S
C607 C606 1.369 . S
C607 C608 1.408 . S
C607 H634 0.930 . S
C608 C603 1.348 . S
C608 C607 1.408 . S
C608 H635 0.930 . S
C609 O622 1.281 . S
C609 O623 1.254 . S
C610 O624 1.236 . S
C610 O625 1.266 1_655 S
C611 Tb601 2.809 . S
C611 C612 1.514 . S
C611 O626 1.248 . S
C611 O627 1.266 . S
C612 C611 1.514 . S
C612 C613 1.359 . S
C612 C617 1.348 . S
C613 C612 1.359 . S
C613 C614 1.380 . S
C613 H636 0.929 . S
C614 C613 1.380 . S
C614 C615 1.347 . S
C614 H637 0.931 . S
C615 C614 1.347 . S
C615 C616 1.369 . S
C616 C615 1.369 . S
C616 C617 1.408 . S
C616 H638 0.930 . S
C617 C612 1.348 . S
C617 C616 1.408 . S
C617 H639 0.930 . S
C618 O628 1.281 1_545 S
C618 O629 1.254 . S
C619 O630 1.236 . S
C619 O631 1.266 . S
O620 Tb600 2.484 . S
O620 C602 1.248 . S
O621 Tb600 2.440 . S
O621 C602 1.266 . S
O622 Tb600 2.658 . S
O622 Tb601 2.325 1_655 S
O622 C609 1.281 . S
O623 Tb600 2.409 . S
O623 C609 1.254 . S
O624 Tb600 2.378 . S
O624 C610 1.236 . S
O625 Tb601 2.341 . S
O625 C610 1.266 1_455 S
O626 Tb601 2.484 . S
O626 C611 1.248 . S
O627 Tb601 2.440 . S
O627 C611 1.266 . S
O628 Tb600 2.325 . S
O628 Tb601 2.658 1_655 S
O628 C618 1.281 1_565 S
O629 Tb601 2.409 1_645 S
O629 C618 1.254 . S
O630 Tb601 2.378 1_655 S
O630 C619 1.236 . S
O631 Tb600 2.341 . S
O631 C619 1.266 . S
H632 C604 0.929 . S
H633 C605 0.931 . S
H634 C607 0.930 . S
H635 C608 0.930 . S
H636 C613 0.929 . S
H637 C614 0.931 . S
H638 C616 0.930 . S
H639 C617 0.930 . S
Tb640 C642 2.809 . S
Tb640 O660 2.484 . S
Tb640 O661 2.440 . S
Tb640 O662 2.658 . S
Tb640 O663 2.409 . S
Tb640 O664 2.378 . S
Tb640 O668 2.325 . S
Tb640 O671 2.341 . S
Tb641 C651 2.809 . S
Tb641 O662 2.325 . S
Tb641 O665 2.341 . S
Tb641 O666 2.484 . S
Tb641 O667 2.440 . S
Tb641 O668 2.658 . S
Tb641 O669 2.409 . S
Tb641 O670 2.378 . S
C642 Tb640 2.809 . S
C642 C643 1.514 . S
C642 O660 1.248 . S
C642 O661 1.266 . S
C643 C642 1.514 . S
C643 C644 1.359 . S
C643 C648 1.348 . S
C644 C643 1.359 . S
C644 C645 1.380 . S
C644 H672 0.929 . S
C645 C644 1.380 . S
C645 C646 1.347 . S
C645 H673 0.931 . S
C646 C645 1.347 . S
C646 C647 1.369 . S
C647 C646 1.369 . S
C647 C648 1.408 . S
C647 H674 0.930 . S
C648 C643 1.348 . S
C648 C647 1.408 . S
C648 H675 0.930 . S
C649 O662 1.281 . S
C649 O663 1.254 . S
C650 O664 1.236 . S
C650 O665 1.266 . S
C651 Tb641 2.809 . S
C651 C652 1.514 . S
C651 O666 1.248 . S
C651 O667 1.266 . S
C652 C651 1.514 . S
C652 C653 1.359 . S
C652 C657 1.348 . S
C653 C652 1.359 . S
C653 C654 1.380 . S
C653 H676 0.929 . S
C654 C653 1.380 . S
C654 C655 1.347 . S
C654 H677 0.931 . S
C655 C654 1.347 . S
C655 C656 1.369 . S
C656 C655 1.369 . S
C656 C657 1.408 . S
C656 H678 0.930 . S
C657 C652 1.348 . S
C657 C656 1.408 . S
C657 H679 0.930 . S
C658 O668 1.281 . S
C658 O669 1.254 . S
C659 O670 1.236 . S
C659 O671 1.266 . S
O660 Tb640 2.484 . S
O660 C642 1.248 . S
O661 Tb640 2.440 . S
O661 C642 1.266 . S
O662 Tb640 2.658 . S
O662 Tb641 2.325 . S
O662 C649 1.281 . S
O663 Tb640 2.409 . S
O663 C649 1.254 . S
O664 Tb640 2.378 . S
O664 C650 1.236 . S
O665 Tb641 2.341 . S
O665 C650 1.266 . S
O666 Tb641 2.484 . S
O666 C651 1.248 . S
O667 Tb641 2.440 . S
O667 C651 1.266 . S
O668 Tb640 2.325 . S
O668 Tb641 2.658 . S
O668 C658 1.281 . S
O669 Tb641 2.409 . S
O669 C658 1.254 . S
O670 Tb641 2.378 . S
O670 C659 1.236 . S
O671 Tb640 2.341 . S
O671 C659 1.266 . S
H672 C644 0.929 . S
H673 C645 0.931 . S
H674 C647 0.930 . S
H675 C648 0.930 . S
H676 C653 0.929 . S
H677 C654 0.931 . S
H678 C656 0.930 . S
H679 C657 0.930 . S
Tb680 C682 2.809 . S
Tb680 O700 2.484 . S
Tb680 O701 2.440 . S
Tb680 O702 2.658 . S
Tb680 O703 2.409 . S
Tb680 O704 2.378 . S
Tb680 O708 2.325 . S
Tb680 O711 2.341 . S
Tb681 C691 2.809 . S
Tb681 O702 2.325 . S
Tb681 O705 2.341 . S
Tb681 O706 2.484 . S
Tb681 O707 2.440 . S
Tb681 O708 2.658 . S
Tb681 O709 2.409 . S
Tb681 O710 2.378 . S
C682 Tb680 2.809 . S
C682 C683 1.514 . S
C682 O700 1.248 . S
C682 O701 1.266 . S
C683 C682 1.514 . S
C683 C684 1.359 . S
C683 C688 1.348 . S
C684 C683 1.359 . S
C684 C685 1.380 . S
C684 H712 0.929 . S
C685 C684 1.380 . S
C685 C686 1.347 . S
C685 H713 0.931 . S
C686 C685 1.347 . S
C686 C687 1.369 . S
C687 C686 1.369 . S
C687 C688 1.408 . S
C687 H714 0.930 . S
C688 C683 1.348 . S
C688 C687 1.408 . S
C688 H715 0.930 . S
C689 O702 1.281 . S
C689 O703 1.254 . S
C690 O704 1.236 . S
C690 O705 1.266 . S
C691 Tb681 2.809 . S
C691 C692 1.514 . S
C691 O706 1.248 . S
C691 O707 1.266 . S
C692 C691 1.514 . S
C692 C693 1.359 . S
C692 C697 1.348 . S
C693 C692 1.359 . S
C693 C694 1.380 . S
C693 H716 0.929 . S
C694 C693 1.380 . S
C694 C695 1.347 . S
C694 H717 0.931 . S
C695 C694 1.347 . S
C695 C696 1.369 . S
C696 C695 1.369 . S
C696 C697 1.408 . S
C696 H718 0.930 . S
C697 C692 1.348 . S
C697 C696 1.408 . S
C697 H719 0.930 . S
C698 O708 1.281 . S
C698 O709 1.254 . S
C699 O710 1.236 . S
C699 O711 1.266 . S
O700 Tb680 2.484 . S
O700 C682 1.248 . S
O701 Tb680 2.440 . S
O701 C682 1.266 . S
O702 Tb680 2.658 . S
O702 Tb681 2.325 . S
O702 C689 1.281 . S
O703 Tb680 2.409 . S
O703 C689 1.254 . S
O704 Tb680 2.378 . S
O704 C690 1.236 . S
O705 Tb681 2.341 . S
O705 C690 1.266 . S
O706 Tb681 2.484 . S
O706 C691 1.248 . S
O707 Tb681 2.440 . S
O707 C691 1.266 . S
O708 Tb680 2.325 . S
O708 Tb681 2.658 . S
O708 C698 1.281 . S
O709 Tb681 2.409 . S
O709 C698 1.254 . S
O710 Tb681 2.378 . S
O710 C699 1.236 . S
O711 Tb680 2.341 . S
O711 C699 1.266 . S
H712 C684 0.929 . S
H713 C685 0.931 . S
H714 C687 0.930 . S
H715 C688 0.930 . S
H716 C693 0.929 . S
H717 C694 0.931 . S
H718 C696 0.930 . S
H719 C697 0.930 . S
Tb720 C722 2.809 . S
Tb720 O740 2.484 . S
Tb720 O741 2.440 . S
Tb720 O742 2.658 . S
Tb720 O743 2.409 . S
Tb720 O744 2.378 . S
Tb720 O748 2.325 . S
Tb720 O751 2.341 . S
Tb721 C731 2.809 . S
Tb721 O742 2.325 . S
Tb721 O745 2.341 . S
Tb721 O746 2.484 . S
Tb721 O747 2.440 . S
Tb721 O748 2.658 . S
Tb721 O749 2.409 . S
Tb721 O750 2.378 . S
C722 Tb720 2.809 . S
C722 C723 1.514 . S
C722 O740 1.248 . S
C722 O741 1.266 . S
C723 C722 1.514 . S
C723 C724 1.359 . S
C723 C728 1.348 . S
C724 C723 1.359 . S
C724 C725 1.380 . S
C724 H752 0.929 . S
C725 C724 1.380 . S
C725 C726 1.347 . S
C725 H753 0.931 . S
C726 C725 1.347 . S
C726 C727 1.369 . S
C727 C726 1.369 . S
C727 C728 1.408 . S
C727 H754 0.930 . S
C728 C723 1.348 . S
C728 C727 1.408 . S
C728 H755 0.930 . S
C729 O742 1.281 . S
C729 O743 1.254 . S
C730 O744 1.236 . S
C730 O745 1.266 . S
C731 Tb721 2.809 . S
C731 C732 1.514 . S
C731 O746 1.248 . S
C731 O747 1.266 . S
C732 C731 1.514 . S
C732 C733 1.359 . S
C732 C737 1.348 . S
C733 C732 1.359 . S
C733 C734 1.380 . S
C733 H756 0.929 . S
C734 C733 1.380 . S
C734 C735 1.347 . S
C734 H757 0.931 . S
C735 C734 1.347 . S
C735 C736 1.369 . S
C736 C735 1.369 . S
C736 C737 1.408 . S
C736 H758 0.930 . S
C737 C732 1.348 . S
C737 C736 1.408 . S
C737 H759 0.930 . S
C738 O748 1.281 . S
C738 O749 1.254 . S
C739 O750 1.236 . S
C739 O751 1.266 . S
O740 Tb720 2.484 . S
O740 C722 1.248 . S
O741 Tb720 2.440 . S
O741 C722 1.266 . S
O742 Tb720 2.658 . S
O742 Tb721 2.325 . S
O742 C729 1.281 . S
O743 Tb720 2.409 . S
O743 C729 1.254 . S
O744 Tb720 2.378 . S
O744 C730 1.236 . S
O745 Tb721 2.341 . S
O745 C730 1.266 . S
O746 Tb721 2.484 . S
O746 C731 1.248 . S
O747 Tb721 2.440 . S
O747 C731 1.266 . S
O748 Tb720 2.325 . S
O748 Tb721 2.658 . S
O748 C738 1.281 . S
O749 Tb721 2.409 . S
O749 C738 1.254 . S
O750 Tb721 2.378 . S
O750 C739 1.236 . S
O751 Tb720 2.341 . S
O751 C739 1.266 . S
H752 C724 0.929 . S
H753 C725 0.931 . S
H754 C727 0.930 . S
H755 C728 0.930 . S
H756 C733 0.929 . S
H757 C734 0.931 . S
H758 C736 0.930 . S
H759 C737 0.930 . S
Tb760 C762 2.809 . S
Tb760 O780 2.484 . S
Tb760 O781 2.440 . S
Tb760 O782 2.658 1_455 S
Tb760 O783 2.409 1_455 S
Tb760 O784 2.378 1_455 S
Tb760 O788 2.325 1_455 S
Tb760 O791 2.341 . S
Tb761 C771 2.809 . S
Tb761 O782 2.325 . S
Tb761 O785 2.341 . S
Tb761 O786 2.484 . S
Tb761 O787 2.440 . S
Tb761 O788 2.658 . S
Tb761 O789 2.409 . S
Tb761 O790 2.378 . S
C762 Tb760 2.809 . S
C762 C763 1.514 . S
C762 O780 1.248 . S
C762 O781 1.266 . S
C763 C762 1.514 . S
C763 C764 1.359 . S
C763 C768 1.348 . S
C764 C763 1.359 . S
C764 C765 1.380 . S
C764 H792 0.929 . S
C765 C764 1.380 . S
C765 C766 1.347 . S
C765 H793 0.931 . S
C766 C765 1.347 . S
C766 C767 1.369 . S
C767 C766 1.369 . S
C767 C768 1.408 . S
C767 H794 0.930 . S
C768 C763 1.348 . S
C768 C767 1.408 . S
C768 H795 0.930 . S
C769 O782 1.281 . S
C769 O783 1.254 . S
C770 O784 1.236 . S
C770 O785 1.266 . S
C771 Tb761 2.809 . S
C771 C772 1.514 . S
C771 O786 1.248 . S
C771 O787 1.266 . S
C772 C771 1.514 . S
C772 C773 1.359 . S
C772 C777 1.348 . S
C773 C772 1.359 . S
C773 C774 1.380 . S
C773 H796 0.929 . S
C774 C773 1.380 . S
C774 C775 1.347 . S
C774 H797 0.931 . S
C775 C774 1.347 . S
C775 C776 1.369 . S
C776 C775 1.369 . S
C776 C777 1.408 . S
C776 H798 0.930 . S
C777 C772 1.348 . S
C777 C776 1.408 . S
C777 H799 0.930 . S
C778 O788 1.281 . S
C778 O789 1.254 . S
C779 O790 1.236 . S
C779 O791 1.266 1_655 S
O780 Tb760 2.484 . S
O780 C762 1.248 . S
O781 Tb760 2.440 . S
O781 C762 1.266 . S
O782 Tb760 2.658 1_655 S
O782 Tb761 2.325 . S
O782 C769 1.281 . S
O783 Tb760 2.409 1_655 S
O783 C769 1.254 . S
O784 Tb760 2.378 1_655 S
O784 C770 1.236 . S
O785 Tb761 2.341 . S
O785 C770 1.266 . S
O786 Tb761 2.484 . S
O786 C771 1.248 . S
O787 Tb761 2.440 . S
O787 C771 1.266 . S
O788 Tb760 2.325 1_655 S
O788 Tb761 2.658 . S
O788 C778 1.281 . S
O789 Tb761 2.409 . S
O789 C778 1.254 . S
O790 Tb761 2.378 . S
O790 C779 1.236 . S
O791 Tb760 2.341 . S
O791 C779 1.266 1_455 S
H792 C764 0.929 . S
H793 C765 0.931 . S
H794 C767 0.930 . S
H795 C768 0.930 . S
H796 C773 0.929 . S
H797 C774 0.931 . S
H798 C776 0.930 . S
H799 C777 0.930 . S
Tb800 C802 2.809 . S
Tb800 O820 2.484 . S
Tb800 O821 2.440 . S
Tb800 O822 2.658 . S
Tb800 O823 2.409 . S
Tb800 O824 2.378 . S
Tb800 O828 2.325 . S
Tb800 O831 2.341 . S
Tb801 C811 2.809 . S
Tb801 O822 2.325 . S
Tb801 O825 2.341 . S
Tb801 O826 2.484 . S
Tb801 O827 2.440 . S
Tb801 O828 2.658 . S
Tb801 O829 2.409 . S
Tb801 O830 2.378 . S
C802 Tb800 2.809 . S
C802 C803 1.514 . S
C802 O820 1.248 . S
C802 O821 1.266 . S
C803 C802 1.514 . S
C803 C804 1.359 . S
C803 C808 1.348 . S
C804 C803 1.359 . S
C804 C805 1.380 . S
C804 H832 0.929 . S
C805 C804 1.380 . S
C805 C806 1.347 . S
C805 H833 0.931 . S
C806 C805 1.347 . S
C806 C807 1.369 . S
C807 C806 1.369 . S
C807 C808 1.408 . S
C807 H834 0.930 . S
C808 C803 1.348 . S
C808 C807 1.408 . S
C808 H835 0.930 . S
C809 O822 1.281 . S
C809 O823 1.254 . S
C810 O824 1.236 . S
C810 O825 1.266 . S
C811 Tb801 2.809 . S
C811 C812 1.514 . S
C811 O826 1.248 . S
C811 O827 1.266 . S
C812 C811 1.514 . S
C812 C813 1.359 . S
C812 C817 1.348 . S
C813 C812 1.359 . S
C813 C814 1.380 . S
C813 H836 0.929 . S
C814 C813 1.380 . S
C814 C815 1.347 . S
C814 H837 0.931 . S
C815 C814 1.347 . S
C815 C816 1.369 . S
C816 C815 1.369 . S
C816 C817 1.408 . S
C816 H838 0.930 . S
C817 C812 1.348 . S
C817 C816 1.408 . S
C817 H839 0.930 . S
C818 O828 1.281 . S
C818 O829 1.254 . S
C819 O830 1.236 . S
C819 O831 1.266 . S
O820 Tb800 2.484 . S
O820 C802 1.248 . S
O821 Tb800 2.440 . S
O821 C802 1.266 . S
O822 Tb800 2.658 . S
O822 Tb801 2.325 . S
O822 C809 1.281 . S
O823 Tb800 2.409 . S
O823 C809 1.254 . S
O824 Tb800 2.378 . S
O824 C810 1.236 . S
O825 Tb801 2.341 . S
O825 C810 1.266 . S
O826 Tb801 2.484 . S
O826 C811 1.248 . S
O827 Tb801 2.440 . S
O827 C811 1.266 . S
O828 Tb800 2.325 . S
O828 Tb801 2.658 . S
O828 C818 1.281 . S
O829 Tb801 2.409 . S
O829 C818 1.254 . S
O830 Tb801 2.378 . S
O830 C819 1.236 . S
O831 Tb800 2.341 . S
O831 C819 1.266 . S
H832 C804 0.929 . S
H833 C805 0.931 . S
H834 C807 0.930 . S
H835 C808 0.930 . S
H836 C813 0.929 . S
H837 C814 0.931 . S
H838 C816 0.930 . S
H839 C817 0.930 . S
Tb840 C842 2.809 . S
Tb840 O860 2.484 . S
Tb840 O861 2.440 . S
Tb840 O862 2.658 1_455 S
Tb840 O863 2.409 1_455 S
Tb840 O864 2.378 1_455 S
Tb840 O868 2.325 1_455 S
Tb840 O871 2.341 . S
Tb841 C851 2.809 . S
Tb841 O862 2.325 . S
Tb841 O865 2.341 . S
Tb841 O866 2.484 . S
Tb841 O867 2.440 . S
Tb841 O868 2.658 . S
Tb841 O869 2.409 . S
Tb841 O870 2.378 . S
C842 Tb840 2.809 . S
C842 C843 1.514 . S
C842 O860 1.248 . S
C842 O861 1.266 . S
C843 C842 1.514 . S
C843 C844 1.359 . S
C843 C848 1.348 . S
C844 C843 1.359 . S
C844 C845 1.380 . S
C844 H872 0.929 . S
C845 C844 1.380 . S
C845 C846 1.347 . S
C845 H873 0.931 . S
C846 C845 1.347 . S
C846 C847 1.369 . S
C847 C846 1.369 . S
C847 C848 1.408 . S
C847 H874 0.930 . S
C848 C843 1.348 . S
C848 C847 1.408 . S
C848 H875 0.930 . S
C849 O862 1.281 . S
C849 O863 1.254 . S
C850 O864 1.236 . S
C850 O865 1.266 . S
C851 Tb841 2.809 . S
C851 C852 1.514 . S
C851 O866 1.248 . S
C851 O867 1.266 . S
C852 C851 1.514 . S
C852 C853 1.359 . S
C852 C857 1.348 . S
C853 C852 1.359 . S
C853 C854 1.380 . S
C853 H876 0.929 . S
C854 C853 1.380 . S
C854 C855 1.347 . S
C854 H877 0.931 . S
C855 C854 1.347 . S
C855 C856 1.369 . S
C856 C855 1.369 . S
C856 C857 1.408 . S
C856 H878 0.930 . S
C857 C852 1.348 . S
C857 C856 1.408 . S
C857 H879 0.930 . S
C858 O868 1.281 . S
C858 O869 1.254 . S
C859 O870 1.236 . S
C859 O871 1.266 1_655 S
O860 Tb840 2.484 . S
O860 C842 1.248 . S
O861 Tb840 2.440 . S
O861 C842 1.266 . S
O862 Tb840 2.658 1_655 S
O862 Tb841 2.325 . S
O862 C849 1.281 . S
O863 Tb840 2.409 1_655 S
O863 C849 1.254 . S
O864 Tb840 2.378 1_655 S
O864 C850 1.236 . S
O865 Tb841 2.341 . S
O865 C850 1.266 . S
O866 Tb841 2.484 . S
O866 C851 1.248 . S
O867 Tb841 2.440 . S
O867 C851 1.266 . S
O868 Tb840 2.325 1_655 S
O868 Tb841 2.658 . S
O868 C858 1.281 . S
O869 Tb841 2.409 . S
O869 C858 1.254 . S
O870 Tb841 2.378 . S
O870 C859 1.236 . S
O871 Tb840 2.341 . S
O871 C859 1.266 1_455 S
H872 C844 0.929 . S
H873 C845 0.931 . S
H874 C847 0.930 . S
H875 C848 0.930 . S
H876 C853 0.929 . S
H877 C854 0.931 . S
H878 C856 0.930 . S
H879 C857 0.930 . S
Tb880 C882 2.809 . S
Tb880 O900 2.484 . S
Tb880 O901 2.440 . S
Tb880 O902 2.658 . S
Tb880 O903 2.409 . S
Tb880 O904 2.378 . S
Tb880 O908 2.325 . S
Tb880 O911 2.341 . S
Tb881 C891 2.809 . S
Tb881 O902 2.325 . S
Tb881 O905 2.341 . S
Tb881 O906 2.484 . S
Tb881 O907 2.440 . S
Tb881 O908 2.658 . S
Tb881 O909 2.409 . S
Tb881 O910 2.378 . S
C882 Tb880 2.809 . S
C882 C883 1.514 . S
C882 O900 1.248 . S
C882 O901 1.266 . S
C883 C882 1.514 . S
C883 C884 1.359 . S
C883 C888 1.348 . S
C884 C883 1.359 . S
C884 C885 1.380 . S
C884 H912 0.929 . S
C885 C884 1.380 . S
C885 C886 1.347 . S
C885 H913 0.931 . S
C886 C885 1.347 . S
C886 C887 1.369 . S
C887 C886 1.369 . S
C887 C888 1.408 . S
C887 H914 0.930 . S
C888 C883 1.348 . S
C888 C887 1.408 . S
C888 H915 0.930 . S
C889 O902 1.281 . S
C889 O903 1.254 . S
C890 O904 1.236 . S
C890 O905 1.266 . S
C891 Tb881 2.809 . S
C891 C892 1.514 . S
C891 O906 1.248 . S
C891 O907 1.266 . S
C892 C891 1.514 . S
C892 C893 1.359 . S
C892 C897 1.348 . S
C893 C892 1.359 . S
C893 C894 1.380 . S
C893 H916 0.929 . S
C894 C893 1.380 . S
C894 C895 1.347 . S
C894 H917 0.931 . S
C895 C894 1.347 . S
C895 C896 1.369 . S
C896 C895 1.369 . S
C896 C897 1.408 . S
C896 H918 0.930 . S
C897 C892 1.348 . S
C897 C896 1.408 . S
C897 H919 0.930 . S
C898 O908 1.281 . S
C898 O909 1.254 . S
C899 O910 1.236 . S
C899 O911 1.266 . S
O900 Tb880 2.484 . S
O900 C882 1.248 . S
O901 Tb880 2.440 . S
O901 C882 1.266 . S
O902 Tb880 2.658 . S
O902 Tb881 2.325 . S
O902 C889 1.281 . S
O903 Tb880 2.409 . S
O903 C889 1.254 . S
O904 Tb880 2.378 . S
O904 C890 1.236 . S
O905 Tb881 2.341 . S
O905 C890 1.266 . S
O906 Tb881 2.484 . S
O906 C891 1.248 . S
O907 Tb881 2.440 . S
O907 C891 1.266 . S
O908 Tb880 2.325 . S
O908 Tb881 2.658 . S
O908 C898 1.281 . S
O909 Tb881 2.409 . S
O909 C898 1.254 . S
O910 Tb881 2.378 . S
O910 C899 1.236 . S
O911 Tb880 2.341 . S
O911 C899 1.266 . S
H912 C884 0.929 . S
H913 C885 0.931 . S
H914 C887 0.930 . S
H915 C888 0.930 . S
H916 C893 0.929 . S
H917 C894 0.931 . S
H918 C896 0.930 . S
H919 C897 0.930 . S
Tb920 C922 2.809 . S
Tb920 O940 2.484 . S
Tb920 O941 2.440 . S
Tb920 O942 2.658 . S
Tb920 O943 2.409 . S
Tb920 O944 2.378 . S
Tb920 O948 2.325 . S
Tb920 O951 2.341 . S
Tb921 C931 2.809 . S
Tb921 O942 2.325 . S
Tb921 O945 2.341 . S
Tb921 O946 2.484 . S
Tb921 O947 2.440 . S
Tb921 O948 2.658 . S
Tb921 O949 2.409 . S
Tb921 O950 2.378 . S
C922 Tb920 2.809 . S
C922 C923 1.514 . S
C922 O940 1.248 . S
C922 O941 1.266 . S
C923 C922 1.514 . S
C923 C924 1.359 . S
C923 C928 1.348 . S
C924 C923 1.359 . S
C924 C925 1.380 . S
C924 H952 0.929 . S
C925 C924 1.380 . S
C925 C926 1.347 . S
C925 H953 0.931 . S
C926 C925 1.347 . S
C926 C927 1.369 . S
C927 C926 1.369 . S
C927 C928 1.408 . S
C927 H954 0.930 . S
C928 C923 1.348 . S
C928 C927 1.408 . S
C928 H955 0.930 . S
C929 O942 1.281 . S
C929 O943 1.254 . S
C930 O944 1.236 . S
C930 O945 1.266 . S
C931 Tb921 2.809 . S
C931 C932 1.514 . S
C931 O946 1.248 . S
C931 O947 1.266 . S
C932 C931 1.514 . S
C932 C933 1.359 . S
C932 C937 1.348 . S
C933 C932 1.359 . S
C933 C934 1.380 . S
C933 H956 0.929 . S
C934 C933 1.380 . S
C934 C935 1.347 . S
C934 H957 0.931 . S
C935 C934 1.347 . S
C935 C936 1.369 . S
C936 C935 1.369 . S
C936 C937 1.408 . S
C936 H958 0.930 . S
C937 C932 1.348 . S
C937 C936 1.408 . S
C937 H959 0.930 . S
C938 O948 1.281 . S
C938 O949 1.254 . S
C939 O950 1.236 . S
C939 O951 1.266 . S
O940 Tb920 2.484 . S
O940 C922 1.248 . S
O941 Tb920 2.440 . S
O941 C922 1.266 . S
O942 Tb920 2.658 . S
O942 Tb921 2.325 . S
O942 C929 1.281 . S
O943 Tb920 2.409 . S
O943 C929 1.254 . S
O944 Tb920 2.378 . S
O944 C930 1.236 . S
O945 Tb921 2.341 . S
O945 C930 1.266 . S
O946 Tb921 2.484 . S
O946 C931 1.248 . S
O947 Tb921 2.440 . S
O947 C931 1.266 . S
O948 Tb920 2.325 . S
O948 Tb921 2.658 . S
O948 C938 1.281 . S
O949 Tb921 2.409 . S
O949 C938 1.254 . S
O950 Tb921 2.378 . S
O950 C939 1.236 . S
O951 Tb920 2.341 . S
O951 C939 1.266 . S
H952 C924 0.929 . S
H953 C925 0.931 . S
H954 C927 0.930 . S
H955 C928 0.930 . S
H956 C933 0.929 . S
H957 C934 0.931 . S
H958 C936 0.930 . S
H959 C937 0.930 . S
Tb960 C962 2.809 . S
Tb960 O980 2.484 . S
Tb960 O981 2.440 . S
Tb960 O982 2.658 . S
Tb960 O983 2.409 . S
Tb960 O984 2.378 . S
Tb960 O988 2.325 . S
Tb960 O991 2.341 . S
Tb961 C971 2.809 . S
Tb961 O982 2.325 . S
Tb961 O985 2.341 . S
Tb961 O986 2.484 . S
Tb961 O987 2.440 . S
Tb961 O988 2.658 . S
Tb961 O989 2.409 . S
Tb961 O990 2.378 . S
C962 Tb960 2.809 . S
C962 C963 1.514 . S
C962 O980 1.248 . S
C962 O981 1.266 . S
C963 C962 1.514 . S
C963 C964 1.359 . S
C963 C968 1.348 . S
C964 C963 1.359 . S
C964 C965 1.380 . S
C964 H992 0.929 . S
C965 C964 1.380 . S
C965 C966 1.347 . S
C965 H993 0.931 . S
C966 C965 1.347 . S
C966 C967 1.369 . S
C967 C966 1.369 . S
C967 C968 1.408 . S
C967 H994 0.930 . S
C968 C963 1.348 . S
C968 C967 1.408 . S
C968 H995 0.930 . S
C969 O982 1.281 . S
C969 O983 1.254 . S
C970 O984 1.236 . S
C970 O985 1.266 . S
C971 Tb961 2.809 . S
C971 C972 1.514 . S
C971 O986 1.248 . S
C971 O987 1.266 . S
C972 C971 1.514 . S
C972 C973 1.359 . S
C972 C977 1.348 . S
C973 C972 1.359 . S
C973 C974 1.380 . S
C973 H996 0.929 . S
C974 C973 1.380 . S
C974 C975 1.347 . S
C974 H997 0.931 . S
C975 C974 1.347 . S
C975 C976 1.369 . S
C976 C975 1.369 . S
C976 C977 1.408 . S
C976 H998 0.930 . S
C977 C972 1.348 . S
C977 C976 1.408 . S
C977 H999 0.930 . S
C978 O988 1.281 . S
C978 O989 1.254 . S
C979 O990 1.236 . S
C979 O991 1.266 . S
O980 Tb960 2.484 . S
O980 C962 1.248 . S
O981 Tb960 2.440 . S
O981 C962 1.266 . S
O982 Tb960 2.658 . S
O982 Tb961 2.325 . S
O982 C969 1.281 . S
O983 Tb960 2.409 . S
O983 C969 1.254 . S
O984 Tb960 2.378 . S
O984 C970 1.236 . S
O985 Tb961 2.341 . S
O985 C970 1.266 . S
O986 Tb961 2.484 . S
O986 C971 1.248 . S
O987 Tb961 2.440 . S
O987 C971 1.266 . S
O988 Tb960 2.325 . S
O988 Tb961 2.658 . S
O988 C978 1.281 . S
O989 Tb961 2.409 . S
O989 C978 1.254 . S
O990 Tb961 2.378 . S
O990 C979 1.236 . S
O991 Tb960 2.341 . S
O991 C979 1.266 . S
H992 C964 0.929 . S
H993 C965 0.931 . S
H994 C967 0.930 . S
H995 C968 0.930 . S
H996 C973 0.929 . S
H997 C974 0.931 . S
H998 C976 0.930 . S
H999 C977 0.930 . S
Tb1000 C1002 2.809 . S
Tb1000 O1020 2.484 . S
Tb1000 O1021 2.440 . S
Tb1000 O1022 2.658 . S
Tb1000 O1023 2.409 . S
Tb1000 O1024 2.378 . S
Tb1000 O1028 2.325 . S
Tb1000 O1031 2.341 . S
Tb1001 C1011 2.809 . S
Tb1001 O1022 2.325 . S
Tb1001 O1025 2.341 . S
Tb1001 O1026 2.484 . S
Tb1001 O1027 2.440 . S
Tb1001 O1028 2.658 . S
Tb1001 O1029 2.409 . S
Tb1001 O1030 2.378 . S
C1002 Tb1000 2.809 . S
C1002 C1003 1.514 . S
C1002 O1020 1.248 . S
C1002 O1021 1.266 . S
C1003 C1002 1.514 . S
C1003 C1004 1.359 . S
C1003 C1008 1.348 . S
C1004 C1003 1.359 . S
C1004 C1005 1.380 . S
C1004 H1032 0.929 . S
C1005 C1004 1.380 . S
C1005 C1006 1.347 . S
C1005 H1033 0.931 . S
C1006 C1005 1.347 . S
C1006 C1007 1.369 . S
C1007 C1006 1.369 . S
C1007 C1008 1.408 . S
C1007 H1034 0.930 . S
C1008 C1003 1.348 . S
C1008 C1007 1.408 . S
C1008 H1035 0.930 . S
C1009 O1022 1.281 . S
C1009 O1023 1.254 . S
C1010 O1024 1.236 . S
C1010 O1025 1.266 . S
C1011 Tb1001 2.809 . S
C1011 C1012 1.514 . S
C1011 O1026 1.248 . S
C1011 O1027 1.266 . S
C1012 C1011 1.514 . S
C1012 C1013 1.359 . S
C1012 C1017 1.348 . S
C1013 C1012 1.359 . S
C1013 C1014 1.380 . S
C1013 H1036 0.929 . S
C1014 C1013 1.380 . S
C1014 C1015 1.347 . S
C1014 H1037 0.931 . S
C1015 C1014 1.347 . S
C1015 C1016 1.369 . S
C1016 C1015 1.369 . S
C1016 C1017 1.408 . S
C1016 H1038 0.930 . S
C1017 C1012 1.348 . S
C1017 C1016 1.408 . S
C1017 H1039 0.930 . S
C1018 O1028 1.281 . S
C1018 O1029 1.254 . S
C1019 O1030 1.236 . S
C1019 O1031 1.266 . S
O1020 Tb1000 2.484 . S
O1020 C1002 1.248 . S
O1021 Tb1000 2.440 . S
O1021 C1002 1.266 . S
O1022 Tb1000 2.658 . S
O1022 Tb1001 2.325 . S
O1022 C1009 1.281 . S
O1023 Tb1000 2.409 . S
O1023 C1009 1.254 . S
O1024 Tb1000 2.378 . S
O1024 C1010 1.236 . S
O1025 Tb1001 2.341 . S
O1025 C1010 1.266 . S
O1026 Tb1001 2.484 . S
O1026 C1011 1.248 . S
O1027 Tb1001 2.440 . S
O1027 C1011 1.266 . S
O1028 Tb1000 2.325 . S
O1028 Tb1001 2.658 . S
O1028 C1018 1.281 . S
O1029 Tb1001 2.409 . S
O1029 C1018 1.254 . S
O1030 Tb1001 2.378 . S
O1030 C1019 1.236 . S
O1031 Tb1000 2.341 . S
O1031 C1019 1.266 . S
H1032 C1004 0.929 . S
H1033 C1005 0.931 . S
H1034 C1007 0.930 . S
H1035 C1008 0.930 . S
H1036 C1013 0.929 . S
H1037 C1014 0.931 . S
H1038 C1016 0.930 . S
H1039 C1017 0.930 . S
Tb1040 C1042 2.809 . S
Tb1040 O1060 2.484 . S
Tb1040 O1061 2.440 . S
Tb1040 O1062 2.658 . S
Tb1040 O1063 2.409 . S
Tb1040 O1064 2.378 . S
Tb1040 O1068 2.325 . S
Tb1040 O1071 2.341 . S
Tb1041 C1051 2.809 . S
Tb1041 O1062 2.325 . S
Tb1041 O1065 2.341 . S
Tb1041 O1066 2.484 . S
Tb1041 O1067 2.440 . S
Tb1041 O1068 2.658 . S
Tb1041 O1069 2.409 . S
Tb1041 O1070 2.378 . S
C1042 Tb1040 2.809 . S
C1042 C1043 1.514 . S
C1042 O1060 1.248 . S
C1042 O1061 1.266 . S
C1043 C1042 1.514 . S
C1043 C1044 1.359 . S
C1043 C1048 1.348 . S
C1044 C1043 1.359 . S
C1044 C1045 1.380 . S
C1044 H1072 0.929 . S
C1045 C1044 1.380 . S
C1045 C1046 1.347 . S
C1045 H1073 0.931 . S
C1046 C1045 1.347 . S
C1046 C1047 1.369 . S
C1047 C1046 1.369 . S
C1047 C1048 1.408 . S
C1047 H1074 0.930 . S
C1048 C1043 1.348 . S
C1048 C1047 1.408 . S
C1048 H1075 0.930 . S
C1049 O1062 1.281 . S
C1049 O1063 1.254 . S
C1050 O1064 1.236 . S
C1050 O1065 1.266 . S
C1051 Tb1041 2.809 . S
C1051 C1052 1.514 . S
C1051 O1066 1.248 . S
C1051 O1067 1.266 . S
C1052 C1051 1.514 . S
C1052 C1053 1.359 . S
C1052 C1057 1.348 . S
C1053 C1052 1.359 . S
C1053 C1054 1.380 . S
C1053 H1076 0.929 . S
C1054 C1053 1.380 . S
C1054 C1055 1.347 . S
C1054 H1077 0.931 . S
C1055 C1054 1.347 . S
C1055 C1056 1.369 . S
C1056 C1055 1.369 . S
C1056 C1057 1.408 . S
C1056 H1078 0.930 . S
C1057 C1052 1.348 . S
C1057 C1056 1.408 . S
C1057 H1079 0.930 . S
C1058 O1068 1.281 . S
C1058 O1069 1.254 . S
C1059 O1070 1.236 . S
C1059 O1071 1.266 . S
O1060 Tb1040 2.484 . S
O1060 C1042 1.248 . S
O1061 Tb1040 2.440 . S
O1061 C1042 1.266 . S
O1062 Tb1040 2.658 . S
O1062 Tb1041 2.325 . S
O1062 C1049 1.281 . S
O1063 Tb1040 2.409 . S
O1063 C1049 1.254 . S
O1064 Tb1040 2.378 . S
O1064 C1050 1.236 . S
O1065 Tb1041 2.341 . S
O1065 C1050 1.266 . S
O1066 Tb1041 2.484 . S
O1066 C1051 1.248 . S
O1067 Tb1041 2.440 . S
O1067 C1051 1.266 . S
O1068 Tb1040 2.325 . S
O1068 Tb1041 2.658 . S
O1068 C1058 1.281 . S
O1069 Tb1041 2.409 . S
O1069 C1058 1.254 . S
O1070 Tb1041 2.378 . S
O1070 C1059 1.236 . S
O1071 Tb1040 2.341 . S
O1071 C1059 1.266 . S
H1072 C1044 0.929 . S
H1073 C1045 0.931 . S
H1074 C1047 0.930 . S
H1075 C1048 0.930 . S
H1076 C1053 0.929 . S
H1077 C1054 0.931 . S
H1078 C1056 0.930 . S
H1079 C1057 0.930 . S
Tb1080 C1082 2.809 . S
Tb1080 O1100 2.484 . S
Tb1080 O1101 2.440 . S
Tb1080 O1102 2.658 . S
Tb1080 O1103 2.409 . S
Tb1080 O1104 2.378 . S
Tb1080 O1108 2.325 . S
Tb1080 O1111 2.341 . S
Tb1081 C1091 2.809 . S
Tb1081 O1102 2.325 1_655 S
Tb1081 O1105 2.341 . S
Tb1081 O1106 2.484 . S
Tb1081 O1107 2.440 . S
Tb1081 O1108 2.658 1_655 S
Tb1081 O1109 2.409 1_655 S
Tb1081 O1110 2.378 1_655 S
C1082 Tb1080 2.809 . S
C1082 C1083 1.514 . S
C1082 O1100 1.248 . S
C1082 O1101 1.266 . S
C1083 C1082 1.514 . S
C1083 C1084 1.359 . S
C1083 C1088 1.348 . S
C1084 C1083 1.359 . S
C1084 C1085 1.380 . S
C1084 H1112 0.929 . S
C1085 C1084 1.380 . S
C1085 C1086 1.347 . S
C1085 H1113 0.931 . S
C1086 C1085 1.347 . S
C1086 C1087 1.369 . S
C1087 C1086 1.369 . S
C1087 C1088 1.408 . S
C1087 H1114 0.930 . S
C1088 C1083 1.348 . S
C1088 C1087 1.408 . S
C1088 H1115 0.930 . S
C1089 O1102 1.281 . S
C1089 O1103 1.254 . S
C1090 O1104 1.236 . S
C1090 O1105 1.266 1_455 S
C1091 Tb1081 2.809 . S
C1091 C1092 1.514 . S
C1091 O1106 1.248 . S
C1091 O1107 1.266 . S
C1092 C1091 1.514 . S
C1092 C1093 1.359 . S
C1092 C1097 1.348 . S
C1093 C1092 1.359 . S
C1093 C1094 1.380 . S
C1093 H1116 0.929 . S
C1094 C1093 1.380 . S
C1094 C1095 1.347 . S
C1094 H1117 0.931 . S
C1095 C1094 1.347 . S
C1095 C1096 1.369 . S
C1096 C1095 1.369 . S
C1096 C1097 1.408 . S
C1096 H1118 0.930 . S
C1097 C1092 1.348 . S
C1097 C1096 1.408 . S
C1097 H1119 0.930 . S
C1098 O1108 1.281 . S
C1098 O1109 1.254 . S
C1099 O1110 1.236 . S
C1099 O1111 1.266 . S
O1100 Tb1080 2.484 . S
O1100 C1082 1.248 . S
O1101 Tb1080 2.440 . S
O1101 C1082 1.266 . S
O1102 Tb1080 2.658 . S
O1102 Tb1081 2.325 1_455 S
O1102 C1089 1.281 . S
O1103 Tb1080 2.409 . S
O1103 C1089 1.254 . S
O1104 Tb1080 2.378 . S
O1104 C1090 1.236 . S
O1105 Tb1081 2.341 . S
O1105 C1090 1.266 1_655 S
O1106 Tb1081 2.484 . S
O1106 C1091 1.248 . S
O1107 Tb1081 2.440 . S
O1107 C1091 1.266 . S
O1108 Tb1080 2.325 . S
O1108 Tb1081 2.658 1_455 S
O1108 C1098 1.281 . S
O1109 Tb1081 2.409 1_455 S
O1109 C1098 1.254 . S
O1110 Tb1081 2.378 1_455 S
O1110 C1099 1.236 . S
O1111 Tb1080 2.341 . S
O1111 C1099 1.266 . S
H1112 C1084 0.929 . S
H1113 C1085 0.931 . S
H1114 C1087 0.930 . S
H1115 C1088 0.930 . S
H1116 C1093 0.929 . S
H1117 C1094 0.931 . S
H1118 C1096 0.930 . S
H1119 C1097 0.930 . S
Tb1120 C1122 2.809 . S
Tb1120 O1140 2.484 . S
Tb1120 O1141 2.440 . S
Tb1120 O1142 2.658 . S
Tb1120 O1143 2.409 . S
Tb1120 O1144 2.378 . S
Tb1120 O1148 2.325 . S
Tb1120 O1151 2.341 . S
Tb1121 C1131 2.809 . S
Tb1121 O1142 2.325 . S
Tb1121 O1145 2.341 . S
Tb1121 O1146 2.484 . S
Tb1121 O1147 2.440 . S
Tb1121 O1148 2.658 . S
Tb1121 O1149 2.409 . S
Tb1121 O1150 2.378 . S
C1122 Tb1120 2.809 . S
C1122 C1123 1.514 . S
C1122 O1140 1.248 . S
C1122 O1141 1.266 . S
C1123 C1122 1.514 . S
C1123 C1124 1.359 . S
C1123 C1128 1.348 . S
C1124 C1123 1.359 . S
C1124 C1125 1.380 . S
C1124 H1152 0.929 . S
C1125 C1124 1.380 . S
C1125 C1126 1.347 . S
C1125 H1153 0.931 . S
C1126 C1125 1.347 . S
C1126 C1127 1.369 . S
C1127 C1126 1.369 . S
C1127 C1128 1.408 . S
C1127 H1154 0.930 . S
C1128 C1123 1.348 . S
C1128 C1127 1.408 . S
C1128 H1155 0.930 . S
C1129 O1142 1.281 . S
C1129 O1143 1.254 . S
C1130 O1144 1.236 . S
C1130 O1145 1.266 . S
C1131 Tb1121 2.809 . S
C1131 C1132 1.514 . S
C1131 O1146 1.248 . S
C1131 O1147 1.266 . S
C1132 C1131 1.514 . S
C1132 C1133 1.359 . S
C1132 C1137 1.348 . S
C1133 C1132 1.359 . S
C1133 C1134 1.380 . S
C1133 H1156 0.929 . S
C1134 C1133 1.380 . S
C1134 C1135 1.347 . S
C1134 H1157 0.931 . S
C1135 C1134 1.347 . S
C1135 C1136 1.369 . S
C1136 C1135 1.369 . S
C1136 C1137 1.408 . S
C1136 H1158 0.930 . S
C1137 C1132 1.348 . S
C1137 C1136 1.408 . S
C1137 H1159 0.930 . S
C1138 O1148 1.281 . S
C1138 O1149 1.254 . S
C1139 O1150 1.236 . S
C1139 O1151 1.266 . S
O1140 Tb1120 2.484 . S
O1140 C1122 1.248 . S
O1141 Tb1120 2.440 . S
O1141 C1122 1.266 . S
O1142 Tb1120 2.658 . S
O1142 Tb1121 2.325 . S
O1142 C1129 1.281 . S
O1143 Tb1120 2.409 . S
O1143 C1129 1.254 . S
O1144 Tb1120 2.378 . S
O1144 C1130 1.236 . S
O1145 Tb1121 2.341 . S
O1145 C1130 1.266 . S
O1146 Tb1121 2.484 . S
O1146 C1131 1.248 . S
O1147 Tb1121 2.440 . S
O1147 C1131 1.266 . S
O1148 Tb1120 2.325 . S
O1148 Tb1121 2.658 . S
O1148 C1138 1.281 . S
O1149 Tb1121 2.409 . S
O1149 C1138 1.254 . S
O1150 Tb1121 2.378 . S
O1150 C1139 1.236 . S
O1151 Tb1120 2.341 . S
O1151 C1139 1.266 . S
H1152 C1124 0.929 . S
H1153 C1125 0.931 . S
H1154 C1127 0.930 . S
H1155 C1128 0.930 . S
H1156 C1133 0.929 . S
H1157 C1134 0.931 . S
H1158 C1136 0.930 . S
H1159 C1137 0.930 . S
Tb1160 C1162 2.809 . S
Tb1160 O1180 2.484 . S
Tb1160 O1181 2.440 . S
Tb1160 O1182 2.658 . S
Tb1160 O1183 2.409 . S
Tb1160 O1184 2.378 . S
Tb1160 O1188 2.325 . S
Tb1160 O1191 2.341 . S
Tb1161 C1171 2.809 . S
Tb1161 O1182 2.325 1_655 S
Tb1161 O1185 2.341 . S
Tb1161 O1186 2.484 . S
Tb1161 O1187 2.440 . S
Tb1161 O1188 2.658 1_655 S
Tb1161 O1189 2.409 1_655 S
Tb1161 O1190 2.378 1_655 S
C1162 Tb1160 2.809 . S
C1162 C1163 1.514 . S
C1162 O1180 1.248 . S
C1162 O1181 1.266 . S
C1163 C1162 1.514 . S
C1163 C1164 1.359 . S
C1163 C1168 1.348 . S
C1164 C1163 1.359 . S
C1164 C1165 1.380 . S
C1164 H1192 0.929 . S
C1165 C1164 1.380 . S
C1165 C1166 1.347 . S
C1165 H1193 0.931 . S
C1166 C1165 1.347 . S
C1166 C1167 1.369 . S
C1167 C1166 1.369 . S
C1167 C1168 1.408 . S
C1167 H1194 0.930 . S
C1168 C1163 1.348 . S
C1168 C1167 1.408 . S
C1168 H1195 0.930 . S
C1169 O1182 1.281 . S
C1169 O1183 1.254 . S
C1170 O1184 1.236 . S
C1170 O1185 1.266 1_455 S
C1171 Tb1161 2.809 . S
C1171 C1172 1.514 . S
C1171 O1186 1.248 . S
C1171 O1187 1.266 . S
C1172 C1171 1.514 . S
C1172 C1173 1.359 . S
C1172 C1177 1.348 . S
C1173 C1172 1.359 . S
C1173 C1174 1.380 . S
C1173 H1196 0.929 . S
C1174 C1173 1.380 . S
C1174 C1175 1.347 . S
C1174 H1197 0.931 . S
C1175 C1174 1.347 . S
C1175 C1176 1.369 . S
C1176 C1175 1.369 . S
C1176 C1177 1.408 . S
C1176 H1198 0.930 . S
C1177 C1172 1.348 . S
C1177 C1176 1.408 . S
C1177 H1199 0.930 . S
C1178 O1188 1.281 . S
C1178 O1189 1.254 . S
C1179 O1190 1.236 . S
C1179 O1191 1.266 . S
O1180 Tb1160 2.484 . S
O1180 C1162 1.248 . S
O1181 Tb1160 2.440 . S
O1181 C1162 1.266 . S
O1182 Tb1160 2.658 . S
O1182 Tb1161 2.325 1_455 S
O1182 C1169 1.281 . S
O1183 Tb1160 2.409 . S
O1183 C1169 1.254 . S
O1184 Tb1160 2.378 . S
O1184 C1170 1.236 . S
O1185 Tb1161 2.341 . S
O1185 C1170 1.266 1_655 S
O1186 Tb1161 2.484 . S
O1186 C1171 1.248 . S
O1187 Tb1161 2.440 . S
O1187 C1171 1.266 . S
O1188 Tb1160 2.325 . S
O1188 Tb1161 2.658 1_455 S
O1188 C1178 1.281 . S
O1189 Tb1161 2.409 1_455 S
O1189 C1178 1.254 . S
O1190 Tb1161 2.378 1_455 S
O1190 C1179 1.236 . S
O1191 Tb1160 2.341 . S
O1191 C1179 1.266 . S
H1192 C1164 0.929 . S
H1193 C1165 0.931 . S
H1194 C1167 0.930 . S
H1195 C1168 0.930 . S
H1196 C1173 0.929 . S
H1197 C1174 0.931 . S
H1198 C1176 0.930 . S
H1199 C1177 0.930 . S
Tb1200 C1202 2.809 . S
Tb1200 O1220 2.484 . S
Tb1200 O1221 2.440 . S
Tb1200 O1222 2.658 . S
Tb1200 O1223 2.409 . S
Tb1200 O1224 2.378 . S
Tb1200 O1228 2.325 . S
Tb1200 O1231 2.341 . S
Tb1201 C1211 2.809 . S
Tb1201 O1222 2.325 . S
Tb1201 O1225 2.341 . S
Tb1201 O1226 2.484 . S
Tb1201 O1227 2.440 . S
Tb1201 O1228 2.658 . S
Tb1201 O1229 2.409 . S
Tb1201 O1230 2.378 . S
C1202 Tb1200 2.809 . S
C1202 C1203 1.514 . S
C1202 O1220 1.248 . S
C1202 O1221 1.266 . S
C1203 C1202 1.514 . S
C1203 C1204 1.359 . S
C1203 C1208 1.348 . S
C1204 C1203 1.359 . S
C1204 C1205 1.380 . S
C1204 H1232 0.929 . S
C1205 C1204 1.380 . S
C1205 C1206 1.347 . S
C1205 H1233 0.931 . S
C1206 C1205 1.347 . S
C1206 C1207 1.369 . S
C1207 C1206 1.369 . S
C1207 C1208 1.408 . S
C1207 H1234 0.930 . S
C1208 C1203 1.348 . S
C1208 C1207 1.408 . S
C1208 H1235 0.930 . S
C1209 O1222 1.281 . S
C1209 O1223 1.254 . S
C1210 O1224 1.236 . S
C1210 O1225 1.266 . S
C1211 Tb1201 2.809 . S
C1211 C1212 1.514 . S
C1211 O1226 1.248 . S
C1211 O1227 1.266 . S
C1212 C1211 1.514 . S
C1212 C1213 1.359 . S
C1212 C1217 1.348 . S
C1213 C1212 1.359 . S
C1213 C1214 1.380 . S
C1213 H1236 0.929 . S
C1214 C1213 1.380 . S
C1214 C1215 1.347 . S
C1214 H1237 0.931 . S
C1215 C1214 1.347 . S
C1215 C1216 1.369 . S
C1216 C1215 1.369 . S
C1216 C1217 1.408 . S
C1216 H1238 0.930 . S
C1217 C1212 1.348 . S
C1217 C1216 1.408 . S
C1217 H1239 0.930 . S
C1218 O1228 1.281 . S
C1218 O1229 1.254 . S
C1219 O1230 1.236 . S
C1219 O1231 1.266 . S
O1220 Tb1200 2.484 . S
O1220 C1202 1.248 . S
O1221 Tb1200 2.440 . S
O1221 C1202 1.266 . S
O1222 Tb1200 2.658 . S
O1222 Tb1201 2.325 . S
O1222 C1209 1.281 . S
O1223 Tb1200 2.409 . S
O1223 C1209 1.254 . S
O1224 Tb1200 2.378 . S
O1224 C1210 1.236 . S
O1225 Tb1201 2.341 . S
O1225 C1210 1.266 . S
O1226 Tb1201 2.484 . S
O1226 C1211 1.248 . S
O1227 Tb1201 2.440 . S
O1227 C1211 1.266 . S
O1228 Tb1200 2.325 . S
O1228 Tb1201 2.658 . S
O1228 C1218 1.281 . S
O1229 Tb1201 2.409 . S
O1229 C1218 1.254 . S
O1230 Tb1201 2.378 . S
O1230 C1219 1.236 . S
O1231 Tb1200 2.341 . S
O1231 C1219 1.266 . S
H1232 C1204 0.929 . S
H1233 C1205 0.931 . S
H1234 C1207 0.930 . S
H1235 C1208 0.930 . S
H1236 C1213 0.929 . S
H1237 C1214 0.931 . S
H1238 C1216 0.930 . S
H1239 C1217 0.930 . S
Tb1240 C1242 2.809 . S
Tb1240 O1260 2.484 . S
Tb1240 O1261 2.440 . S
Tb1240 O1262 2.658 . S
Tb1240 O1263 2.409 . S
Tb1240 O1264 2.378 . S
Tb1240 O1268 2.325 . S
Tb1240 O1271 2.341 . S
Tb1241 C1251 2.809 . S
Tb1241 O1262 2.325 . S
Tb1241 O1265 2.341 . S
Tb1241 O1266 2.484 . S
Tb1241 O1267 2.440 . S
Tb1241 O1268 2.658 . S
Tb1241 O1269 2.409 . S
Tb1241 O1270 2.378 . S
C1242 Tb1240 2.809 . S
C1242 C1243 1.514 . S
C1242 O1260 1.248 . S
C1242 O1261 1.266 . S
C1243 C1242 1.514 . S
C1243 C1244 1.359 . S
C1243 C1248 1.348 . S
C1244 C1243 1.359 . S
C1244 C1245 1.380 . S
C1244 H1272 0.929 . S
C1245 C1244 1.380 . S
C1245 C1246 1.347 . S
C1245 H1273 0.931 . S
C1246 C1245 1.347 . S
C1246 C1247 1.369 . S
C1247 C1246 1.369 . S
C1247 C1248 1.408 . S
C1247 H1274 0.930 . S
C1248 C1243 1.348 . S
C1248 C1247 1.408 . S
C1248 H1275 0.930 . S
C1249 O1262 1.281 . S
C1249 O1263 1.254 . S
C1250 O1264 1.236 . S
C1250 O1265 1.266 . S
C1251 Tb1241 2.809 . S
C1251 C1252 1.514 . S
C1251 O1266 1.248 . S
C1251 O1267 1.266 . S
C1252 C1251 1.514 . S
C1252 C1253 1.359 . S
C1252 C1257 1.348 . S
C1253 C1252 1.359 . S
C1253 C1254 1.380 . S
C1253 H1276 0.929 . S
C1254 C1253 1.380 . S
C1254 C1255 1.347 . S
C1254 H1277 0.931 . S
C1255 C1254 1.347 . S
C1255 C1256 1.369 . S
C1256 C1255 1.369 . S
C1256 C1257 1.408 . S
C1256 H1278 0.930 . S
C1257 C1252 1.348 . S
C1257 C1256 1.408 . S
C1257 H1279 0.930 . S
C1258 O1268 1.281 . S
C1258 O1269 1.254 . S
C1259 O1270 1.236 . S
C1259 O1271 1.266 . S
O1260 Tb1240 2.484 . S
O1260 C1242 1.248 . S
O1261 Tb1240 2.440 . S
O1261 C1242 1.266 . S
O1262 Tb1240 2.658 . S
O1262 Tb1241 2.325 . S
O1262 C1249 1.281 . S
O1263 Tb1240 2.409 . S
O1263 C1249 1.254 . S
O1264 Tb1240 2.378 . S
O1264 C1250 1.236 . S
O1265 Tb1241 2.341 . S
O1265 C1250 1.266 . S
O1266 Tb1241 2.484 . S
O1266 C1251 1.248 . S
O1267 Tb1241 2.440 . S
O1267 C1251 1.266 . S
O1268 Tb1240 2.325 . S
O1268 Tb1241 2.658 . S
O1268 C1258 1.281 . S
O1269 Tb1241 2.409 . S
O1269 C1258 1.254 . S
O1270 Tb1241 2.378 . S
O1270 C1259 1.236 . S
O1271 Tb1240 2.341 . S
O1271 C1259 1.266 . S
H1272 C1244 0.929 . S
H1273 C1245 0.931 . S
H1274 C1247 0.930 . S
H1275 C1248 0.930 . S
H1276 C1253 0.929 . S
H1277 C1254 0.931 . S
H1278 C1256 0.930 . S
H1279 C1257 0.930 . S
C1280 C1281 1.369 . S
C1280 C1282 1.419 . S
C1280 H1284 0.930 . S
C1281 C1280 1.369 . S
C1281 C1290 1.429 . S
C1282 C1280 1.419 . S
C1282 C1283 1.363 . S
C1282 H1285 0.929 . S
C1283 C1282 1.363 . S
C1283 C1289 1.428 . S
H1284 C1280 0.930 . S
H1285 C1282 0.929 . S
S1286 N1287 1.613 . S
S1286 N1288 1.610 . S
N1287 S1286 1.613 . S
N1287 C1290 1.350 . S
N1288 S1286 1.610 . S
N1288 C1289 1.351 . S
C1289 C1283 1.428 . S
C1289 N1288 1.351 . S
C1289 C1290 1.434 . S
C1290 C1281 1.429 . S
C1290 N1287 1.350 . S
C1290 C1289 1.434 . S
C1291 C1292 1.369 . S
C1291 C1293 1.419 . S
C1291 H1295 0.930 . S
C1292 C1291 1.369 . S
C1292 C1301 1.429 . S
C1293 C1291 1.419 . S
C1293 C1294 1.363 . S
C1293 H1296 0.929 . S
C1294 C1293 1.363 . S
C1294 C1300 1.428 . S
H1295 C1291 0.930 . S
H1296 C1293 0.929 . S
S1297 N1298 1.613 . S
S1297 N1299 1.610 . S
N1298 S1297 1.613 . S
N1298 C1301 1.350 . S
N1299 S1297 1.610 . S
N1299 C1300 1.351 . S
C1300 C1294 1.428 . S
C1300 N1299 1.351 . S
C1300 C1301 1.434 . S
C1301 C1292 1.429 . S
C1301 N1298 1.350 . S
C1301 C1300 1.434 . S
C1302 C1303 1.369 . S
C1302 C1304 1.419 . S
C1302 H1306 0.930 . S
C1303 C1302 1.369 . S
C1303 C1312 1.429 . S
C1304 C1302 1.419 . S
C1304 C1305 1.363 . S
C1304 H1307 0.929 . S
C1305 C1304 1.363 . S
C1305 C1311 1.428 . S
H1306 C1302 0.930 . S
H1307 C1304 0.929 . S
S1308 N1309 1.613 . S
S1308 N1310 1.610 . S
N1309 S1308 1.613 . S
N1309 C1312 1.350 . S
N1310 S1308 1.610 . S
N1310 C1311 1.351 . S
C1311 C1305 1.428 . S
C1311 N1310 1.351 . S
C1311 C1312 1.434 . S
C1312 C1303 1.429 . S
C1312 N1309 1.350 . S
C1312 C1311 1.434 . S
C1313 C1314 1.369 . S
C1313 C1315 1.419 . S
C1313 H1317 0.930 . S
C1314 C1313 1.369 . S
C1314 C1323 1.429 . S
C1315 C1313 1.419 . S
C1315 C1316 1.363 . S
C1315 H1318 0.929 . S
C1316 C1315 1.363 . S
C1316 C1322 1.428 . S
H1317 C1313 0.930 . S
H1318 C1315 0.929 . S
S1319 N1320 1.613 . S
S1319 N1321 1.610 . S
N1320 S1319 1.613 . S
N1320 C1323 1.350 . S
N1321 S1319 1.610 . S
N1321 C1322 1.351 . S
C1322 C1316 1.428 . S
C1322 N1321 1.351 . S
C1322 C1323 1.434 . S
C1323 C1314 1.429 . S
C1323 N1320 1.350 . S
C1323 C1322 1.434 . S
C1324 C1325 1.369 . S
C1324 C1326 1.419 . S
C1324 H1328 0.930 . S
C1325 C1324 1.369 . S
C1325 C1334 1.429 . S
C1326 C1324 1.419 . S
C1326 C1327 1.363 . S
C1326 H1329 0.929 . S
C1327 C1326 1.363 . S
C1327 C1333 1.428 . S
H1328 C1324 0.930 . S
H1329 C1326 0.929 . S
S1330 N1331 1.613 . S
S1330 N1332 1.610 . S
N1331 S1330 1.613 . S
N1331 C1334 1.350 . S
N1332 S1330 1.610 . S
N1332 C1333 1.351 . S
C1333 C1327 1.428 . S
C1333 N1332 1.351 . S
C1333 C1334 1.434 . S
C1334 C1325 1.429 . S
C1334 N1331 1.350 . S
C1334 C1333 1.434 . S
C1335 C1336 1.369 . S
C1335 C1337 1.419 . S
C1335 H1339 0.930 . S
C1336 C1335 1.369 . S
C1336 C1345 1.429 . S
C1337 C1335 1.419 . S
C1337 C1338 1.363 . S
C1337 H1340 0.929 . S
C1338 C1337 1.363 . S
C1338 C1344 1.428 . S
H1339 C1335 0.930 . S
H1340 C1337 0.929 . S
S1341 N1342 1.613 . S
S1341 N1343 1.610 . S
N1342 S1341 1.613 . S
N1342 C1345 1.350 . S
N1343 S1341 1.610 . S
N1343 C1344 1.351 . S
C1344 C1338 1.428 . S
C1344 N1343 1.351 . S
C1344 C1345 1.434 . S
C1345 C1336 1.429 . S
C1345 N1342 1.350 . S
C1345 C1344 1.434 . S
C1346 C1347 1.369 . S
C1346 C1348 1.419 . S
C1346 H1350 0.930 . S
C1347 C1346 1.369 . S
C1347 C1356 1.429 . S
C1348 C1346 1.419 . S
C1348 C1349 1.363 . S
C1348 H1351 0.929 . S
C1349 C1348 1.363 . S
C1349 C1355 1.428 . S
H1350 C1346 0.930 . S
H1351 C1348 0.929 . S
S1352 N1353 1.613 . S
S1352 N1354 1.610 . S
N1353 S1352 1.613 . S
N1353 C1356 1.350 . S
N1354 S1352 1.610 . S
N1354 C1355 1.351 . S
C1355 C1349 1.428 . S
C1355 N1354 1.351 . S
C1355 C1356 1.434 . S
C1356 C1347 1.429 . S
C1356 N1353 1.350 . S
C1356 C1355 1.434 . S
C1357 C1358 1.369 . S
C1357 C1359 1.419 . S
C1357 H1361 0.930 . S
C1358 C1357 1.369 . S
C1358 C1367 1.429 . S
C1359 C1357 1.419 . S
C1359 C1360 1.363 . S
C1359 H1362 0.929 . S
C1360 C1359 1.363 . S
C1360 C1366 1.428 . S
H1361 C1357 0.930 . S
H1362 C1359 0.929 . S
S1363 N1364 1.613 . S
S1363 N1365 1.610 . S
N1364 S1363 1.613 . S
N1364 C1367 1.350 . S
N1365 S1363 1.610 . S
N1365 C1366 1.351 . S
C1366 C1360 1.428 . S
C1366 N1365 1.351 . S
C1366 C1367 1.434 . S
C1367 C1358 1.429 . S
C1367 N1364 1.350 . S
C1367 C1366 1.434 . S
C1368 C1369 1.369 . S
C1368 C1370 1.419 . S
C1368 H1372 0.930 . S
C1369 C1368 1.369 . S
C1369 C1378 1.429 . S
C1370 C1368 1.419 . S
C1370 C1371 1.363 . S
C1370 H1373 0.929 . S
C1371 C1370 1.363 . S
C1371 C1377 1.428 . S
H1372 C1368 0.930 . S
H1373 C1370 0.929 . S
S1374 N1375 1.613 . S
S1374 N1376 1.610 . S
N1375 S1374 1.613 . S
N1375 C1378 1.350 . S
N1376 S1374 1.610 . S
N1376 C1377 1.351 . S
C1377 C1371 1.428 . S
C1377 N1376 1.351 . S
C1377 C1378 1.434 . S
C1378 C1369 1.429 . S
C1378 N1375 1.350 . S
C1378 C1377 1.434 . S
C1379 C1380 1.369 . S
C1379 C1381 1.419 . S
C1379 H1383 0.930 . S
C1380 C1379 1.369 . S
C1380 C1389 1.429 . S
C1381 C1379 1.419 . S
C1381 C1382 1.363 . S
C1381 H1384 0.929 . S
C1382 C1381 1.363 . S
C1382 C1388 1.428 . S
H1383 C1379 0.930 . S
H1384 C1381 0.929 . S
S1385 N1386 1.613 . S
S1385 N1387 1.610 . S
N1386 S1385 1.613 . S
N1386 C1389 1.350 . S
N1387 S1385 1.610 . S
N1387 C1388 1.351 . S
C1388 C1382 1.428 . S
C1388 N1387 1.351 . S
C1388 C1389 1.434 . S
C1389 C1380 1.429 . S
C1389 N1386 1.350 . S
C1389 C1388 1.434 . S
C1390 C1391 1.369 . S
C1390 C1392 1.419 . S
C1390 H1394 0.930 . S
C1391 C1390 1.369 . S
C1391 C1400 1.429 . S
C1392 C1390 1.419 . S
C1392 C1393 1.363 . S
C1392 H1395 0.929 . S
C1393 C1392 1.363 . S
C1393 C1399 1.428 . S
H1394 C1390 0.930 . S
H1395 C1392 0.929 . S
S1396 N1397 1.613 . S
S1396 N1398 1.610 . S
N1397 S1396 1.613 . S
N1397 C1400 1.350 . S
N1398 S1396 1.610 . S
N1398 C1399 1.351 . S
C1399 C1393 1.428 . S
C1399 N1398 1.351 . S
C1399 C1400 1.434 . S
C1400 C1391 1.429 . S
C1400 N1397 1.350 . S
C1400 C1399 1.434 . S
C1401 C1402 1.369 . S
C1401 C1403 1.419 . S
C1401 H1405 0.930 . S
C1402 C1401 1.369 . S
C1402 C1411 1.429 . S
C1403 C1401 1.419 . S
C1403 C1404 1.363 . S
C1403 H1406 0.929 . S
C1404 C1403 1.363 . S
C1404 C1410 1.428 . S
H1405 C1401 0.930 . S
H1406 C1403 0.929 . S
S1407 N1408 1.613 . S
S1407 N1409 1.610 . S
N1408 S1407 1.613 . S
N1408 C1411 1.350 . S
N1409 S1407 1.610 . S
N1409 C1410 1.351 . S
C1410 C1404 1.428 . S
C1410 N1409 1.351 . S
C1410 C1411 1.434 . S
C1411 C1402 1.429 . S
C1411 N1408 1.350 . S
C1411 C1410 1.434 . S
C1412 C1413 1.369 . S
C1412 C1414 1.419 . S
C1412 H1416 0.930 . S
C1413 C1412 1.369 . S
C1413 C1422 1.429 . S
C1414 C1412 1.419 . S
C1414 C1415 1.363 . S
C1414 H1417 0.929 . S
C1415 C1414 1.363 . S
C1415 C1421 1.428 . S
H1416 C1412 0.930 . S
H1417 C1414 0.929 . S
S1418 N1419 1.613 . S
S1418 N1420 1.610 . S
N1419 S1418 1.613 . S
N1419 C1422 1.350 . S
N1420 S1418 1.610 . S
N1420 C1421 1.351 . S
C1421 C1415 1.428 . S
C1421 N1420 1.351 . S
C1421 C1422 1.434 . S
C1422 C1413 1.429 . S
C1422 N1419 1.350 . S
C1422 C1421 1.434 . S
C1423 C1424 1.369 . S
C1423 C1425 1.419 . S
C1423 H1427 0.930 . S
C1424 C1423 1.369 . S
C1424 C1433 1.429 . S
C1425 C1423 1.419 . S
C1425 C1426 1.363 . S
C1425 H1428 0.929 . S
C1426 C1425 1.363 . S
C1426 C1432 1.428 . S
H1427 C1423 0.930 . S
H1428 C1425 0.929 . S
S1429 N1430 1.613 . S
S1429 N1431 1.610 . S
N1430 S1429 1.613 . S
N1430 C1433 1.350 . S
N1431 S1429 1.610 . S
N1431 C1432 1.351 . S
C1432 C1426 1.428 . S
C1432 N1431 1.351 . S
C1432 C1433 1.434 . S
C1433 C1424 1.429 . S
C1433 N1430 1.350 . S
C1433 C1432 1.434 . S
C1434 C1435 1.369 . S
C1434 C1436 1.419 . S
C1434 H1438 0.930 . S
C1435 C1434 1.369 . S
C1435 C1444 1.429 . S
C1436 C1434 1.419 . S
C1436 C1437 1.363 . S
C1436 H1439 0.929 . S
C1437 C1436 1.363 . S
C1437 C1443 1.428 . S
H1438 C1434 0.930 . S
H1439 C1436 0.929 . S
S1440 N1441 1.613 . S
S1440 N1442 1.610 . S
N1441 S1440 1.613 . S
N1441 C1444 1.350 . S
N1442 S1440 1.610 . S
N1442 C1443 1.351 . S
C1443 C1437 1.428 . S
C1443 N1442 1.351 . S
C1443 C1444 1.434 . S
C1444 C1435 1.429 . S
C1444 N1441 1.350 . S
C1444 C1443 1.434 . S
C1445 C1446 1.369 . S
C1445 C1447 1.419 . S
C1445 H1449 0.930 . S
C1446 C1445 1.369 . S
C1446 C1455 1.429 . S
C1447 C1445 1.419 . S
C1447 C1448 1.363 . S
C1447 H1450 0.929 . S
C1448 C1447 1.363 . S
C1448 C1454 1.428 . S
H1449 C1445 0.930 . S
H1450 C1447 0.929 . S
S1451 N1452 1.613 . S
S1451 N1453 1.610 . S
N1452 S1451 1.613 . S
N1452 C1455 1.350 . S
N1453 S1451 1.610 . S
N1453 C1454 1.351 . S
C1454 C1448 1.428 . S
C1454 N1453 1.351 . S
C1454 C1455 1.434 . S
C1455 C1446 1.429 . S
C1455 N1452 1.350 . S
C1455 C1454 1.434 . S
C1456 C1457 1.369 . S
C1456 C1458 1.419 . S
C1456 H1460 0.930 . S
C1457 C1456 1.369 . S
C1457 C1466 1.429 . S
C1458 C1456 1.419 . S
C1458 C1459 1.363 . S
C1458 H1461 0.929 . S
C1459 C1458 1.363 . S
C1459 C1465 1.428 . S
H1460 C1456 0.930 . S
H1461 C1458 0.929 . S
S1462 N1463 1.613 . S
S1462 N1464 1.610 . S
N1463 S1462 1.613 . S
N1463 C1466 1.350 . S
N1464 S1462 1.610 . S
N1464 C1465 1.351 . S
C1465 C1459 1.428 . S
C1465 N1464 1.351 . S
C1465 C1466 1.434 . S
C1466 C1457 1.429 . S
C1466 N1463 1.350 . S
C1466 C1465 1.434 . S
C1467 C1468 1.369 . S
C1467 C1469 1.419 . S
C1467 H1471 0.930 . S
C1468 C1467 1.369 . S
C1468 C1477 1.429 . S
C1469 C1467 1.419 . S
C1469 C1470 1.363 . S
C1469 H1472 0.929 . S
C1470 C1469 1.363 . S
C1470 C1476 1.428 . S
H1471 C1467 0.930 . S
H1472 C1469 0.929 . S
S1473 N1474 1.613 . S
S1473 N1475 1.610 . S
N1474 S1473 1.613 . S
N1474 C1477 1.350 . S
N1475 S1473 1.610 . S
N1475 C1476 1.351 . S
C1476 C1470 1.428 . S
C1476 N1475 1.351 . S
C1476 C1477 1.434 . S
C1477 C1468 1.429 . S
C1477 N1474 1.350 . S
C1477 C1476 1.434 . S
C1478 C1479 1.369 . S
C1478 C1480 1.419 . S
C1478 H1482 0.930 . S
C1479 C1478 1.369 . S
C1479 C1488 1.429 . S
C1480 C1478 1.419 . S
C1480 C1481 1.363 . S
C1480 H1483 0.929 . S
C1481 C1480 1.363 . S
C1481 C1487 1.428 . S
H1482 C1478 0.930 . S
H1483 C1480 0.929 . S
S1484 N1485 1.613 1_565 S
S1484 N1486 1.610 1_565 S
N1485 S1484 1.613 1_545 S
N1485 C1488 1.350 . S
N1486 S1484 1.610 1_545 S
N1486 C1487 1.351 . S
C1487 C1481 1.428 . S
C1487 N1486 1.351 . S
C1487 C1488 1.434 . S
C1488 C1479 1.429 . S
C1488 N1485 1.350 . S
C1488 C1487 1.434 . S
C1489 C1490 1.369 . S
C1489 C1491 1.419 . S
C1489 H1493 0.930 . S
C1490 C1489 1.369 . S
C1490 C1499 1.429 . S
C1491 C1489 1.419 . S
C1491 C1492 1.363 . S
C1491 H1494 0.929 . S
C1492 C1491 1.363 . S
C1492 C1498 1.428 . S
H1493 C1489 0.930 . S
H1494 C1491 0.929 . S
S1495 N1496 1.613 . S
S1495 N1497 1.610 . S
N1496 S1495 1.613 . S
N1496 C1499 1.350 . S
N1497 S1495 1.610 . S
N1497 C1498 1.351 . S
C1498 C1492 1.428 . S
C1498 N1497 1.351 . S
C1498 C1499 1.434 . S
C1499 C1490 1.429 . S
C1499 N1496 1.350 . S
C1499 C1498 1.434 . S
C1500 C1501 1.369 . S
C1500 C1502 1.419 . S
C1500 H1504 0.930 . S
C1501 C1500 1.369 . S
C1501 C1510 1.429 . S
C1502 C1500 1.419 . S
C1502 C1503 1.363 . S
C1502 H1505 0.929 . S
C1503 C1502 1.363 . S
C1503 C1509 1.428 . S
H1504 C1500 0.930 . S
H1505 C1502 0.929 . S
S1506 N1507 1.613 . S
S1506 N1508 1.610 . S
N1507 S1506 1.613 . S
N1507 C1510 1.350 . S
N1508 S1506 1.610 . S
N1508 C1509 1.351 . S
C1509 C1503 1.428 . S
C1509 N1508 1.351 . S
C1509 C1510 1.434 . S
C1510 C1501 1.429 . S
C1510 N1507 1.350 . S
C1510 C1509 1.434 . S
C1511 C1512 1.369 . S
C1511 C1513 1.419 . S
C1511 H1515 0.930 . S
C1512 C1511 1.369 . S
C1512 C1521 1.429 . S
C1513 C1511 1.419 . S
C1513 C1514 1.363 . S
C1513 H1516 0.929 . S
C1514 C1513 1.363 . S
C1514 C1520 1.428 . S
H1515 C1511 0.930 . S
H1516 C1513 0.929 . S
S1517 N1518 1.613 . S
S1517 N1519 1.610 . S
N1518 S1517 1.613 . S
N1518 C1521 1.350 . S
N1519 S1517 1.610 . S
N1519 C1520 1.351 . S
C1520 C1514 1.428 . S
C1520 N1519 1.351 . S
C1520 C1521 1.434 . S
C1521 C1512 1.429 . S
C1521 N1518 1.350 . S
C1521 C1520 1.434 . S
C1522 C1523 1.369 . S
C1522 C1524 1.419 . S
C1522 H1526 0.930 . S
C1523 C1522 1.369 . S
C1523 C1532 1.429 . S
C1524 C1522 1.419 . S
C1524 C1525 1.363 . S
C1524 H1527 0.929 . S
C1525 C1524 1.363 . S
C1525 C1531 1.428 . S
H1526 C1522 0.930 . S
H1527 C1524 0.929 . S
S1528 N1529 1.613 1_545 S
S1528 N1530 1.610 1_545 S
N1529 S1528 1.613 1_565 S
N1529 C1532 1.350 . S
N1530 S1528 1.610 1_565 S
N1530 C1531 1.351 . S
C1531 C1525 1.428 . S
C1531 N1530 1.351 . S
C1531 C1532 1.434 . S
C1532 C1523 1.429 . S
C1532 N1529 1.350 . S
C1532 C1531 1.434 . S
C1533 C1534 1.369 . S
C1533 C1535 1.419 . S
C1533 H1537 0.930 . S
C1534 C1533 1.369 . S
C1534 C1543 1.429 . S
C1535 C1533 1.419 . S
C1535 C1536 1.363 . S
C1535 H1538 0.929 . S
C1536 C1535 1.363 . S
C1536 C1542 1.428 . S
H1537 C1533 0.930 . S
H1538 C1535 0.929 . S
S1539 N1540 1.613 . S
S1539 N1541 1.610 . S
N1540 S1539 1.613 . S
N1540 C1543 1.350 . S
N1541 S1539 1.610 . S
N1541 C1542 1.351 . S
C1542 C1536 1.428 . S
C1542 N1541 1.351 . S
C1542 C1543 1.434 . S
C1543 C1534 1.429 . S
C1543 N1540 1.350 . S
C1543 C1542 1.434 . S
C1544 C1545 1.369 . S
C1544 C1546 1.419 . S
C1544 H1548 0.930 . S
C1545 C1544 1.369 . S
C1545 C1554 1.429 . S
C1546 C1544 1.419 . S
C1546 C1547 1.363 . S
C1546 H1549 0.929 . S
C1547 C1546 1.363 . S
C1547 C1553 1.428 . S
H1548 C1544 0.930 . S
H1549 C1546 0.929 . S
S1550 N1551 1.613 . S
S1550 N1552 1.610 . S
N1551 S1550 1.613 . S
N1551 C1554 1.350 . S
N1552 S1550 1.610 . S
N1552 C1553 1.351 . S
C1553 C1547 1.428 . S
C1553 N1552 1.351 . S
C1553 C1554 1.434 . S
C1554 C1545 1.429 . S
C1554 N1551 1.350 . S
C1554 C1553 1.434 . S
C1555 C1556 1.369 . S
C1555 C1557 1.419 . S
C1555 H1559 0.930 . S
C1556 C1555 1.369 . S
C1556 C1565 1.429 . S
C1557 C1555 1.419 . S
C1557 C1558 1.363 . S
C1557 H1560 0.929 . S
C1558 C1557 1.363 . S
C1558 C1564 1.428 . S
H1559 C1555 0.930 . S
H1560 C1557 0.929 . S
S1561 N1562 1.613 . S
S1561 N1563 1.610 . S
N1562 S1561 1.613 . S
N1562 C1565 1.350 . S
N1563 S1561 1.610 . S
N1563 C1564 1.351 . S
C1564 C1558 1.428 . S
C1564 N1563 1.351 . S
C1564 C1565 1.434 . S
C1565 C1556 1.429 . S
C1565 N1562 1.350 . S
C1565 C1564 1.434 . S
C1566 C1567 1.369 . S
C1566 C1568 1.419 . S
C1566 H1570 0.930 . S
C1567 C1566 1.369 . S
C1567 C1576 1.429 . S
C1568 C1566 1.419 . S
C1568 C1569 1.363 . S
C1568 H1571 0.929 . S
C1569 C1568 1.363 . S
C1569 C1575 1.428 . S
H1570 C1566 0.930 . S
H1571 C1568 0.929 . S
S1572 N1573 1.613 . S
S1572 N1574 1.610 . S
N1573 S1572 1.613 . S
N1573 C1576 1.350 . S
N1574 S1572 1.610 . S
N1574 C1575 1.351 . S
C1575 C1569 1.428 . S
C1575 N1574 1.351 . S
C1575 C1576 1.434 . S
C1576 C1567 1.429 . S
C1576 N1573 1.350 . S
C1576 C1575 1.434 . S
C1577 C1578 1.369 . S
C1577 C1579 1.419 . S
C1577 H1581 0.930 . S
C1578 C1577 1.369 . S
C1578 C1587 1.429 . S
C1579 C1577 1.419 . S
C1579 C1580 1.363 . S
C1579 H1582 0.929 . S
C1580 C1579 1.363 . S
C1580 C1586 1.428 . S
H1581 C1577 0.930 . S
H1582 C1579 0.929 . S
S1583 N1584 1.613 . S
S1583 N1585 1.610 . S
N1584 S1583 1.613 . S
N1584 C1587 1.350 . S
N1585 S1583 1.610 . S
N1585 C1586 1.351 . S
C1586 C1580 1.428 . S
C1586 N1585 1.351 . S
C1586 C1587 1.434 . S
C1587 C1578 1.429 . S
C1587 N1584 1.350 . S
C1587 C1586 1.434 . S
C1588 C1589 1.369 . S
C1588 C1590 1.419 . S
C1588 H1592 0.930 . S
C1589 C1588 1.369 . S
C1589 C1598 1.429 . S
C1590 C1588 1.419 . S
C1590 C1591 1.363 . S
C1590 H1593 0.929 . S
C1591 C1590 1.363 . S
C1591 C1597 1.428 . S
H1592 C1588 0.930 . S
H1593 C1590 0.929 . S
S1594 N1595 1.613 . S
S1594 N1596 1.610 . S
N1595 S1594 1.613 . S
N1595 C1598 1.350 . S
N1596 S1594 1.610 . S
N1596 C1597 1.351 . S
C1597 C1591 1.428 . S
C1597 N1596 1.351 . S
C1597 C1598 1.434 . S
C1598 C1589 1.429 . S
C1598 N1595 1.350 . S
C1598 C1597 1.434 . S
C1599 C1600 1.369 . S
C1599 C1601 1.419 . S
C1599 H1603 0.930 . S
C1600 C1599 1.369 . S
C1600 C1609 1.429 . S
C1601 C1599 1.419 . S
C1601 C1602 1.363 . S
C1601 H1604 0.929 . S
C1602 C1601 1.363 . S
C1602 C1608 1.428 . S
H1603 C1599 0.930 . S
H1604 C1601 0.929 . S
S1605 N1606 1.613 . S
S1605 N1607 1.610 . S
N1606 S1605 1.613 . S
N1606 C1609 1.350 . S
N1607 S1605 1.610 . S
N1607 C1608 1.351 . S
C1608 C1602 1.428 . S
C1608 N1607 1.351 . S
C1608 C1609 1.434 . S
C1609 C1600 1.429 . S
C1609 N1606 1.350 . S
C1609 C1608 1.434 . S
C1610 C1611 1.369 . S
C1610 C1612 1.419 . S
C1610 H1614 0.930 . S
C1611 C1610 1.369 . S
C1611 C1620 1.429 . S
C1612 C1610 1.419 . S
C1612 C1613 1.363 . S
C1612 H1615 0.929 . S
C1613 C1612 1.363 . S
C1613 C1619 1.428 . S
H1614 C1610 0.930 . S
H1615 C1612 0.929 . S
S1616 N1617 1.613 . S
S1616 N1618 1.610 . S
N1617 S1616 1.613 . S
N1617 C1620 1.350 . S
N1618 S1616 1.610 . S
N1618 C1619 1.351 . S
C1619 C1613 1.428 . S
C1619 N1618 1.351 . S
C1619 C1620 1.434 . S
C1620 C1611 1.429 . S
C1620 N1617 1.350 . S
C1620 C1619 1.434 . S
C1621 C1622 1.369 . S
C1621 C1623 1.419 . S
C1621 H1625 0.930 . S
C1622 C1621 1.369 . S
C1622 C1631 1.429 . S
C1623 C1621 1.419 . S
C1623 C1624 1.363 . S
C1623 H1626 0.929 . S
C1624 C1623 1.363 . S
C1624 C1630 1.428 . S
H1625 C1621 0.930 . S
H1626 C1623 0.929 . S
S1627 N1628 1.613 . S
S1627 N1629 1.610 . S
N1628 S1627 1.613 . S
N1628 C1631 1.350 . S
N1629 S1627 1.610 . S
N1629 C1630 1.351 . S
C1630 C1624 1.428 . S
C1630 N1629 1.351 . S
C1630 C1631 1.434 . S
C1631 C1622 1.429 . S
C1631 N1628 1.350 . S
C1631 C1630 1.434 . S
C1632 C1633 1.369 . S
C1632 C1634 1.419 1_455 S
C1632 H1636 0.930 . S
C1633 C1632 1.369 . S
C1633 C1642 1.429 . S
C1634 C1632 1.419 1_655 S
C1634 C1635 1.363 . S
C1634 H1637 0.929 . S
C1635 C1634 1.363 . S
C1635 C1641 1.428 . S
H1636 C1632 0.930 . S
H1637 C1634 0.929 . S
S1638 N1639 1.613 . S
S1638 N1640 1.610 1_455 S
N1639 S1638 1.613 . S
N1639 C1642 1.350 . S
N1640 S1638 1.610 1_655 S
N1640 C1641 1.351 . S
C1641 C1635 1.428 . S
C1641 N1640 1.351 . S
C1641 C1642 1.434 1_655 S
C1642 C1633 1.429 . S
C1642 N1639 1.350 . S
C1642 C1641 1.434 1_455 S
C1643 C1644 1.369 . S
C1643 C1645 1.419 . S
C1643 H1647 0.930 . S
C1644 C1643 1.369 . S
C1644 C1653 1.429 1_455 S
C1645 C1643 1.419 . S
C1645 C1646 1.363 1_455 S
C1645 H1648 0.929 . S
C1646 C1645 1.363 1_655 S
C1646 C1652 1.428 . S
H1647 C1643 0.930 . S
H1648 C1645 0.929 . S
S1649 N1650 1.613 . S
S1649 N1651 1.610 . S
N1650 S1649 1.613 . S
N1650 C1653 1.350 . S
N1651 S1649 1.610 . S
N1651 C1652 1.351 . S
C1652 C1646 1.428 . S
C1652 N1651 1.351 . S
C1652 C1653 1.434 . S
C1653 C1644 1.429 1_655 S
C1653 N1650 1.350 . S
C1653 C1652 1.434 . S
C1654 C1655 1.369 . S
C1654 C1656 1.419 . S
C1654 H1658 0.930 . S
C1655 C1654 1.369 . S
C1655 C1664 1.429 . S
C1656 C1654 1.419 . S
C1656 C1657 1.363 . S
C1656 H1659 0.929 . S
C1657 C1656 1.363 . S
C1657 C1663 1.428 . S
H1658 C1654 0.930 . S
H1659 C1656 0.929 . S
S1660 N1661 1.613 . S
S1660 N1662 1.610 . S
N1661 S1660 1.613 . S
N1661 C1664 1.350 . S
N1662 S1660 1.610 . S
N1662 C1663 1.351 . S
C1663 C1657 1.428 . S
C1663 N1662 1.351 . S
C1663 C1664 1.434 . S
C1664 C1655 1.429 . S
C1664 N1661 1.350 . S
C1664 C1663 1.434 . S
C1665 C1666 1.369 . S
C1665 C1667 1.419 . S
C1665 H1669 0.930 . S
C1666 C1665 1.369 . S
C1666 C1675 1.429 . S
C1667 C1665 1.419 . S
C1667 C1668 1.363 . S
C1667 H1670 0.929 . S
C1668 C1667 1.363 . S
C1668 C1674 1.428 . S
H1669 C1665 0.930 . S
H1670 C1667 0.929 . S
S1671 N1672 1.613 . S
S1671 N1673 1.610 . S
N1672 S1671 1.613 . S
N1672 C1675 1.350 . S
N1673 S1671 1.610 . S
N1673 C1674 1.351 . S
C1674 C1668 1.428 . S
C1674 N1673 1.351 . S
C1674 C1675 1.434 . S
C1675 C1666 1.429 . S
C1675 N1672 1.350 . S
C1675 C1674 1.434 . S
C1676 C1677 1.369 . S
C1676 C1678 1.419 1_655 S
C1676 H1680 0.930 . S
C1677 C1676 1.369 . S
C1677 C1686 1.429 . S
C1678 C1676 1.419 1_455 S
C1678 C1679 1.363 . S
C1678 H1681 0.929 . S
C1679 C1678 1.363 . S
C1679 C1685 1.428 . S
H1680 C1676 0.930 . S
H1681 C1678 0.929 . S
S1682 N1683 1.613 1_455 S
S1682 N1684 1.610 . S
N1683 S1682 1.613 1_655 S
N1683 C1686 1.350 . S
N1684 S1682 1.610 . S
N1684 C1685 1.351 . S
C1685 C1679 1.428 . S
C1685 N1684 1.351 . S
C1685 C1686 1.434 1_455 S
C1686 C1677 1.429 . S
C1686 N1683 1.350 . S
C1686 C1685 1.434 1_655 S
C1687 C1688 1.369 . S
C1687 C1689 1.419 . S
C1687 H1691 0.930 . S
C1688 C1687 1.369 . S
C1688 C1697 1.429 . S
C1689 C1687 1.419 . S
C1689 C1690 1.363 . S
C1689 H1692 0.929 . S
C1690 C1689 1.363 . S
C1690 C1696 1.428 . S
H1691 C1687 0.930 . S
H1692 C1689 0.929 . S
S1693 N1694 1.613 . S
S1693 N1695 1.610 . S
N1694 S1693 1.613 . S
N1694 C1697 1.350 . S
N1695 S1693 1.610 . S
N1695 C1696 1.351 . S
C1696 C1690 1.428 . S
C1696 N1695 1.351 . S
C1696 C1697 1.434 . S
C1697 C1688 1.429 . S
C1697 N1694 1.350 . S
C1697 C1696 1.434 . S
C1698 C1699 1.369 . S
C1698 C1700 1.419 . S
C1698 H1702 0.930 . S
C1699 C1698 1.369 . S
C1699 C1708 1.429 . S
C1700 C1698 1.419 . S
C1700 C1701 1.363 . S
C1700 H1703 0.929 . S
C1701 C1700 1.363 . S
C1701 C1707 1.428 . S
H1702 C1698 0.930 . S
H1703 C1700 0.929 . S
S1704 N1705 1.613 . S
S1704 N1706 1.610 . S
N1705 S1704 1.613 . S
N1705 C1708 1.350 . S
N1706 S1704 1.610 . S
N1706 C1707 1.351 . S
C1707 C1701 1.428 . S
C1707 N1706 1.351 . S
C1707 C1708 1.434 . S
C1708 C1699 1.429 . S
C1708 N1705 1.350 . S
C1708 C1707 1.434 . S
C1709 C1710 1.369 . S
C1709 C1711 1.419 . S
C1709 H1713 0.930 . S
C1710 C1709 1.369 . S
C1710 C1719 1.429 1_655 S
C1711 C1709 1.419 . S
C1711 C1712 1.363 1_655 S
C1711 H1714 0.929 . S
C1712 C1711 1.363 1_455 S
C1712 C1718 1.428 . S
H1713 C1709 0.930 . S
H1714 C1711 0.929 . S
S1715 N1716 1.613 . S
S1715 N1717 1.610 . S
N1716 S1715 1.613 . S
N1716 C1719 1.350 . S
N1717 S1715 1.610 . S
N1717 C1718 1.351 . S
C1718 C1712 1.428 . S
C1718 N1717 1.351 . S
C1718 C1719 1.434 . S
C1719 C1710 1.429 1_455 S
C1719 N1716 1.350 . S
C1719 C1718 1.434 . S
C1720 C1721 1.369 . S
C1720 C1722 1.419 1_455 S
C1720 H1724 0.930 . S
C1721 C1720 1.369 . S
C1721 C1730 1.429 . S
C1722 C1720 1.419 1_655 S
C1722 C1723 1.363 . S
C1722 H1725 0.929 . S
C1723 C1722 1.363 . S
C1723 C1729 1.428 . S
H1724 C1720 0.930 . S
H1725 C1722 0.929 . S
S1726 N1727 1.613 1_655 S
S1726 N1728 1.610 . S
N1727 S1726 1.613 1_455 S
N1727 C1730 1.350 . S
N1728 S1726 1.610 . S
N1728 C1729 1.351 . S
C1729 C1723 1.428 . S
C1729 N1728 1.351 . S
C1729 C1730 1.434 1_655 S
C1730 C1721 1.429 . S
C1730 N1727 1.350 . S
C1730 C1729 1.434 1_455 S
C1731 C1732 1.369 1_655 S
C1731 C1733 1.419 . S
C1731 H1735 0.930 . S
C1732 C1731 1.369 1_455 S
C1732 C1741 1.429 . S
C1733 C1731 1.419 . S
C1733 C1734 1.363 . S
C1733 H1736 0.929 . S
C1734 C1733 1.363 . S
C1734 C1740 1.428 1_655 S
H1735 C1731 0.930 . S
H1736 C1733 0.929 . S
S1737 N1738 1.613 . S
S1737 N1739 1.610 . S
N1738 S1737 1.613 . S
N1738 C1741 1.350 . S
N1739 S1737 1.610 . S
N1739 C1740 1.351 . S
C1740 C1734 1.428 1_455 S
C1740 N1739 1.351 . S
C1740 C1741 1.434 . S
C1741 C1732 1.429 . S
C1741 N1738 1.350 . S
C1741 C1740 1.434 . S
C1742 C1743 1.369 . S
C1742 C1744 1.419 . S
C1742 H1746 0.930 . S
C1743 C1742 1.369 . S
C1743 C1752 1.429 . S
C1744 C1742 1.419 . S
C1744 C1745 1.363 . S
C1744 H1747 0.929 . S
C1745 C1744 1.363 . S
C1745 C1751 1.428 . S
H1746 C1742 0.930 . S
H1747 C1744 0.929 . S
S1748 N1749 1.613 . S
S1748 N1750 1.610 . S
N1749 S1748 1.613 . S
N1749 C1752 1.350 . S
N1750 S1748 1.610 . S
N1750 C1751 1.351 . S
C1751 C1745 1.428 . S
C1751 N1750 1.351 . S
C1751 C1752 1.434 . S
C1752 C1743 1.429 . S
C1752 N1749 1.350 . S
C1752 C1751 1.434 . S
C1753 C1754 1.369 . S
C1753 C1755 1.419 . S
C1753 H1757 0.930 . S
C1754 C1753 1.369 . S
C1754 C1763 1.429 . S
C1755 C1753 1.419 . S
C1755 C1756 1.363 . S
C1755 H1758 0.929 . S
C1756 C1755 1.363 . S
C1756 C1762 1.428 . S
H1757 C1753 0.930 . S
H1758 C1755 0.929 . S
S1759 N1760 1.613 . S
S1759 N1761 1.610 . S
N1760 S1759 1.613 . S
N1760 C1763 1.350 . S
N1761 S1759 1.610 . S
N1761 C1762 1.351 . S
C1762 C1756 1.428 . S
C1762 N1761 1.351 . S
C1762 C1763 1.434 . S
C1763 C1754 1.429 . S
C1763 N1760 1.350 . S
C1763 C1762 1.434 . S
C1764 C1765 1.369 . S
C1764 C1766 1.419 1_455 S
C1764 H1768 0.930 . S
C1765 C1764 1.369 . S
C1765 C1774 1.429 . S
C1766 C1764 1.419 1_655 S
C1766 C1767 1.363 . S
C1766 H1769 0.929 . S
C1767 C1766 1.363 . S
C1767 C1773 1.428 . S
H1768 C1764 0.930 . S
H1769 C1766 0.929 . S
S1770 N1771 1.613 1_655 S
S1770 N1772 1.610 . S
N1771 S1770 1.613 1_455 S
N1771 C1774 1.350 . S
N1772 S1770 1.610 . S
N1772 C1773 1.351 . S
C1773 C1767 1.428 . S
C1773 N1772 1.351 . S
C1773 C1774 1.434 1_655 S
C1774 C1765 1.429 . S
C1774 N1771 1.350 . S
C1774 C1773 1.434 1_455 S
C1775 C1776 1.369 . S
C1775 C1777 1.419 . S
C1775 H1779 0.930 . S
C1776 C1775 1.369 . S
C1776 C1785 1.429 . S
C1777 C1775 1.419 . S
C1777 C1778 1.363 . S
C1777 H1780 0.929 . S
C1778 C1777 1.363 . S
C1778 C1784 1.428 . S
H1779 C1775 0.930 . S
H1780 C1777 0.929 . S
S1781 N1782 1.613 . S
S1781 N1783 1.610 . S
N1782 S1781 1.613 . S
N1782 C1785 1.350 . S
N1783 S1781 1.610 . S
N1783 C1784 1.351 . S
C1784 C1778 1.428 . S
C1784 N1783 1.351 . S
C1784 C1785 1.434 . S
C1785 C1776 1.429 . S
C1785 N1782 1.350 . S
C1785 C1784 1.434 . S
C1786 C1787 1.369 . S
C1786 C1788 1.419 . S
C1786 H1790 0.930 . S
C1787 C1786 1.369 . S
C1787 C1796 1.429 . S
C1788 C1786 1.419 . S
C1788 C1789 1.363 . S
C1788 H1791 0.929 . S
C1789 C1788 1.363 . S
C1789 C1795 1.428 . S
H1790 C1786 0.930 . S
H1791 C1788 0.929 . S
S1792 N1793 1.613 . S
S1792 N1794 1.610 . S
N1793 S1792 1.613 . S
N1793 C1796 1.350 . S
N1794 S1792 1.610 . S
N1794 C1795 1.351 . S
C1795 C1789 1.428 . S
C1795 N1794 1.351 . S
C1795 C1796 1.434 . S
C1796 C1787 1.429 . S
C1796 N1793 1.350 . S
C1796 C1795 1.434 . S
C1797 C1798 1.369 1_655 S
C1797 C1799 1.419 . S
C1797 H1801 0.930 . S
C1798 C1797 1.369 1_455 S
C1798 C1807 1.429 . S
C1799 C1797 1.419 . S
C1799 C1800 1.363 . S
C1799 H1802 0.929 . S
C1800 C1799 1.363 . S
C1800 C1806 1.428 1_655 S
H1801 C1797 0.930 . S
H1802 C1799 0.929 . S
S1803 N1804 1.613 . S
S1803 N1805 1.610 . S
N1804 S1803 1.613 . S
N1804 C1807 1.350 . S
N1805 S1803 1.610 . S
N1805 C1806 1.351 . S
C1806 C1800 1.428 1_455 S
C1806 N1805 1.351 . S
C1806 C1807 1.434 . S
C1807 C1798 1.429 . S
C1807 N1804 1.350 . S
C1807 C1806 1.434 . S
C1808 C1809 1.369 . S
C1808 C1810 1.419 . S
C1808 H1812 0.930 . S
C1809 C1808 1.369 . S
C1809 C1818 1.429 . S
C1810 C1808 1.419 . S
C1810 C1811 1.363 . S
C1810 H1813 0.929 . S
C1811 C1810 1.363 . S
C1811 C1817 1.428 . S
H1812 C1808 0.930 . S
H1813 C1810 0.929 . S
S1814 N1815 1.613 . S
S1814 N1816 1.610 . S
N1815 S1814 1.613 . S
N1815 C1818 1.350 . S
N1816 S1814 1.610 . S
N1816 C1817 1.351 . S
C1817 C1811 1.428 . S
C1817 N1816 1.351 . S
C1817 C1818 1.434 . S
C1818 C1809 1.429 . S
C1818 N1815 1.350 . S
C1818 C1817 1.434 . S
C1819 C1820 1.368 1_545 S
C1819 C1821 1.419 . S
C1819 H1823 0.930 . S
C1820 C1819 1.368 1_565 S
C1820 C1829 1.430 1_655 S
C1821 C1819 1.419 . S
C1821 C1822 1.363 1_655 S
C1821 H1824 0.929 . S
C1822 C1821 1.363 1_455 S
C1822 C1828 1.429 1_545 S
H1823 C1819 0.930 . S
H1824 C1821 0.929 . S
S1825 N1826 1.613 . S
S1825 N1827 1.610 . S
N1826 S1825 1.613 . S
N1826 C1829 1.350 . S
N1827 S1825 1.610 . S
N1827 C1828 1.351 . S
C1828 C1822 1.429 1_565 S
C1828 N1827 1.351 . S
C1828 C1829 1.434 . S
C1829 C1820 1.430 1_455 S
C1829 N1826 1.350 . S
C1829 C1828 1.434 . S
C1830 C1831 1.369 . S
C1830 C1832 1.419 . S
C1830 H1834 0.930 . S
C1831 C1830 1.369 . S
C1831 C1840 1.429 . S
C1832 C1830 1.419 . S
C1832 C1833 1.363 . S
C1832 H1835 0.929 . S
C1833 C1832 1.363 . S
C1833 C1839 1.428 . S
H1834 C1830 0.930 . S
H1835 C1832 0.929 . S
S1836 N1837 1.613 . S
S1836 N1838 1.610 . S
N1837 S1836 1.613 . S
N1837 C1840 1.350 . S
N1838 S1836 1.610 . S
N1838 C1839 1.351 . S
C1839 C1833 1.428 . S
C1839 N1838 1.351 . S
C1839 C1840 1.434 . S
C1840 C1831 1.429 . S
C1840 N1837 1.350 . S
C1840 C1839 1.434 . S
C1841 C1842 1.368 1_565 S
C1841 C1843 1.419 1_554 S
C1841 H1845 0.930 . S
C1842 C1841 1.368 1_545 S
C1842 C1851 1.430 . S
C1843 C1841 1.419 1_556 S
C1843 C1844 1.359 1_565 S
C1843 H1846 0.929 . S
C1844 C1843 1.359 1_545 S
C1844 C1850 1.433 . S
H1845 C1841 0.930 . S
H1846 C1843 0.929 . S
S1847 N1848 1.613 . S
S1847 N1849 1.610 1_554 S
N1848 S1847 1.613 . S
N1848 C1851 1.350 . S
N1849 S1847 1.610 1_556 S
N1849 C1850 1.351 . S
C1850 C1844 1.433 . S
C1850 N1849 1.351 . S
C1850 C1851 1.434 1_556 S
C1851 C1842 1.430 . S
C1851 N1848 1.350 . S
C1851 C1850 1.434 1_554 S
C1852 C1853 1.369 . S
C1852 C1854 1.419 . S
C1852 H1856 0.930 . S
C1853 C1852 1.369 . S
C1853 C1862 1.429 . S
C1854 C1852 1.419 . S
C1854 C1855 1.363 . S
C1854 H1857 0.929 . S
C1855 C1854 1.363 . S
C1855 C1861 1.428 . S
H1856 C1852 0.930 . S
H1857 C1854 0.929 . S
S1858 N1859 1.613 . S
S1858 N1860 1.610 . S
N1859 S1858 1.613 . S
N1859 C1862 1.350 . S
N1860 S1858 1.610 . S
N1860 C1861 1.351 . S
C1861 C1855 1.428 . S
C1861 N1860 1.351 . S
C1861 C1862 1.434 . S
C1862 C1853 1.429 . S
C1862 N1859 1.350 . S
C1862 C1861 1.434 . S
C1863 C1864 1.362 1_545 S
C1863 C1865 1.419 . S
C1863 H1867 0.930 . S
C1864 C1863 1.362 1_565 S
C1864 C1873 1.436 . S
C1865 C1863 1.419 . S
C1865 C1866 1.363 1_545 S
C1865 H1868 0.929 . S
C1866 C1865 1.363 1_565 S
C1866 C1872 1.428 . S
H1867 C1863 0.930 . S
H1868 C1865 0.929 . S
S1869 N1870 1.613 . S
S1869 N1871 1.610 . S
N1870 S1869 1.613 . S
N1870 C1873 1.350 . S
N1871 S1869 1.610 . S
N1871 C1872 1.351 . S
C1872 C1866 1.428 . S
C1872 N1871 1.351 . S
C1872 C1873 1.434 . S
C1873 C1864 1.436 . S
C1873 N1870 1.350 . S
C1873 C1872 1.434 . S
C1874 C1875 1.369 . S
C1874 C1876 1.419 . S
C1874 H1878 0.930 . S
C1875 C1874 1.369 . S
C1875 C1884 1.429 . S
C1876 C1874 1.419 . S
C1876 C1877 1.363 . S
C1876 H1879 0.929 . S
C1877 C1876 1.363 . S
C1877 C1883 1.428 . S
H1878 C1874 0.930 . S
H1879 C1876 0.929 . S
S1880 N1881 1.613 . S
S1880 N1882 1.610 . S
N1881 S1880 1.613 . S
N1881 C1884 1.350 . S
N1882 S1880 1.610 . S
N1882 C1883 1.351 . S
C1883 C1877 1.428 . S
C1883 N1882 1.351 . S
C1883 C1884 1.434 . S
C1884 C1875 1.429 . S
C1884 N1881 1.350 . S
C1884 C1883 1.434 . S
C1885 C1886 1.366 1_565 S
C1885 C1887 1.419 1_556 S
C1885 H1889 0.930 . S
C1886 C1885 1.366 1_545 S
C1886 C1895 1.432 1_455 S
C1887 C1885 1.419 1_554 S
C1887 C1888 1.356 1_465 S
C1887 H1890 0.929 . S
C1888 C1887 1.356 1_645 S
C1888 C1894 1.436 . S
H1889 C1885 0.930 . S
H1890 C1887 0.929 . S
S1891 N1892 1.613 . S
S1891 N1893 1.610 1_556 S
N1892 S1891 1.613 . S
N1892 C1895 1.350 . S
N1893 S1891 1.610 1_554 S
N1893 C1894 1.351 . S
C1894 C1888 1.436 . S
C1894 N1893 1.351 . S
C1894 C1895 1.434 1_554 S
C1895 C1886 1.432 1_655 S
C1895 N1892 1.350 . S
C1895 C1894 1.434 1_556 S
C1896 C1897 1.369 . S
C1896 C1898 1.419 . S
C1896 H1900 0.930 . S
C1897 C1896 1.369 . S
C1897 C1906 1.429 . S
C1898 C1896 1.419 . S
C1898 C1899 1.363 . S
C1898 H1901 0.929 . S
C1899 C1898 1.363 . S
C1899 C1905 1.428 . S
H1900 C1896 0.930 . S
H1901 C1898 0.929 . S
S1902 N1903 1.613 . S
S1902 N1904 1.610 . S
N1903 S1902 1.613 . S
N1903 C1906 1.350 . S
N1904 S1902 1.610 . S
N1904 C1905 1.351 . S
C1905 C1899 1.428 . S
C1905 N1904 1.351 . S
C1905 C1906 1.434 . S
C1906 C1897 1.429 . S
C1906 N1903 1.350 . S
C1906 C1905 1.434 . S
C1907 C1908 1.369 . S
C1907 C1909 1.419 . S
C1907 H1911 0.930 . S
C1908 C1907 1.369 . S
C1908 C1917 1.429 . S
C1909 C1907 1.419 . S
C1909 C1910 1.363 . S
C1909 H1912 0.929 . S
C1910 C1909 1.363 . S
C1910 C1916 1.428 . S
H1911 C1907 0.930 . S
H1912 C1909 0.929 . S
S1913 N1914 1.613 . S
S1913 N1915 1.610 . S
N1914 S1913 1.613 . S
N1914 C1917 1.350 . S
N1915 S1913 1.610 . S
N1915 C1916 1.351 . S
C1916 C1910 1.428 . S
C1916 N1915 1.351 . S
C1916 C1917 1.434 . S
C1917 C1908 1.429 . S
C1917 N1914 1.350 . S
C1917 C1916 1.434 . S
C1918 C1919 1.369 . S
C1918 C1920 1.419 . S
C1918 H1922 0.930 . S
C1919 C1918 1.369 . S
C1919 C1928 1.429 . S
C1920 C1918 1.419 . S
C1920 C1921 1.363 . S
C1920 H1923 0.929 . S
C1921 C1920 1.363 . S
C1921 C1927 1.428 . S
H1922 C1918 0.930 . S
H1923 C1920 0.929 . S
S1924 N1925 1.613 . S
S1924 N1926 1.610 . S
N1925 S1924 1.613 . S
N1925 C1928 1.350 . S
N1926 S1924 1.610 . S
N1926 C1927 1.351 . S
C1927 C1921 1.428 . S
C1927 N1926 1.351 . S
C1927 C1928 1.434 . S
C1928 C1919 1.429 . S
C1928 N1925 1.350 . S
C1928 C1927 1.434 . S
C1929 C1930 1.369 . S
C1929 C1931 1.419 . S
C1929 H1933 0.930 . S
C1930 C1929 1.369 . S
C1930 C1939 1.429 . S
C1931 C1929 1.419 . S
C1931 C1932 1.363 . S
C1931 H1934 0.929 . S
C1932 C1931 1.363 . S
C1932 C1938 1.428 . S
H1933 C1929 0.930 . S
H1934 C1931 0.929 . S
S1935 N1936 1.613 . S
S1935 N1937 1.610 . S
N1936 S1935 1.613 . S
N1936 C1939 1.350 . S
N1937 S1935 1.610 . S
N1937 C1938 1.351 . S
C1938 C1932 1.428 . S
C1938 N1937 1.351 . S
C1938 C1939 1.434 . S
C1939 C1930 1.429 . S
C1939 N1936 1.350 . S
C1939 C1938 1.434 . S
C1940 C1941 1.369 . S
C1940 C1942 1.419 1_554 S
C1940 H1944 0.930 . S
C1941 C1940 1.369 . S
C1941 C1950 1.429 . S
C1942 C1940 1.419 1_556 S
C1942 C1943 1.363 . S
C1942 H1945 0.929 . S
C1943 C1942 1.363 . S
C1943 C1949 1.428 . S
H1944 C1940 0.930 . S
H1945 C1942 0.929 . S
S1946 N1947 1.599 1_556 S
S1946 N1948 1.624 . S
N1947 S1946 1.599 1_554 S
N1947 C1950 1.350 . S
N1948 S1946 1.624 . S
N1948 C1949 1.351 . S
C1949 C1943 1.428 . S
C1949 N1948 1.351 . S
C1949 C1950 1.434 1_556 S
C1950 C1941 1.429 . S
C1950 N1947 1.350 . S
C1950 C1949 1.434 1_554 S
C1951 C1952 1.369 . S
C1951 C1953 1.419 . S
C1951 H1955 0.930 . S
C1952 C1951 1.369 . S
C1952 C1961 1.429 1_655 S
C1953 C1951 1.419 . S
C1953 C1954 1.363 1_655 S
C1953 H1956 0.929 . S
C1954 C1953 1.363 1_455 S
C1954 C1960 1.428 . S
H1955 C1951 0.930 . S
H1956 C1953 0.929 . S
S1957 N1958 1.613 . S
S1957 N1959 1.610 . S
N1958 S1957 1.613 . S
N1958 C1961 1.350 . S
N1959 S1957 1.610 . S
N1959 C1960 1.351 . S
C1960 C1954 1.428 . S
C1960 N1959 1.351 . S
C1960 C1961 1.434 . S
C1961 C1952 1.429 1_455 S
C1961 N1958 1.350 . S
C1961 C1960 1.434 . S
C1962 C1963 1.369 . S
C1962 C1964 1.419 1_554 S
C1962 H1966 0.930 . S
C1963 C1962 1.369 . S
C1963 C1972 1.429 1_455 S
C1964 C1962 1.419 1_556 S
C1964 C1965 1.363 1_455 S
C1964 H1967 0.929 . S
C1965 C1964 1.363 1_655 S
C1965 C1971 1.428 . S
H1966 C1962 0.930 . S
H1967 C1964 0.929 . S
S1968 N1969 1.649 . S
S1968 N1970 1.574 1_554 S
N1969 S1968 1.649 . S
N1969 C1972 1.350 . S
N1970 S1968 1.574 1_556 S
N1970 C1971 1.351 . S
C1971 C1965 1.428 . S
C1971 N1970 1.351 . S
C1971 C1972 1.434 1_556 S
C1972 C1963 1.429 1_655 S
C1972 N1969 1.350 . S
C1972 C1971 1.434 1_554 S
C1973 C1974 1.369 . S
C1973 C1975 1.419 . S
C1973 H1977 0.930 . S
C1974 C1973 1.369 . S
C1974 C1983 1.429 . S
C1975 C1973 1.419 . S
C1975 C1976 1.363 . S
C1975 H1978 0.929 . S
C1976 C1975 1.363 . S
C1976 C1982 1.428 . S
H1977 C1973 0.930 . S
H1978 C1975 0.929 . S
S1979 N1980 1.613 . S
S1979 N1981 1.610 . S
N1980 S1979 1.613 . S
N1980 C1983 1.350 . S
N1981 S1979 1.610 . S
N1981 C1982 1.351 . S
C1982 C1976 1.428 . S
C1982 N1981 1.351 . S
C1982 C1983 1.434 . S
C1983 C1974 1.429 . S
C1983 N1980 1.350 . S
C1983 C1982 1.434 . S
C1984 C1985 1.369 . S
C1984 C1986 1.419 . S
C1984 H1988 0.930 . S
C1985 C1984 1.369 . S
C1985 C1994 1.429 . S
C1986 C1984 1.419 . S
C1986 C1987 1.363 . S
C1986 H1989 0.929 . S
C1987 C1986 1.363 . S
C1987 C1993 1.428 . S
H1988 C1984 0.930 . S
H1989 C1986 0.929 . S
S1990 N1991 1.613 . S
S1990 N1992 1.610 . S
N1991 S1990 1.613 . S
N1991 C1994 1.350 . S
N1992 S1990 1.610 . S
N1992 C1993 1.351 . S
C1993 C1987 1.428 . S
C1993 N1992 1.351 . S
C1993 C1994 1.434 . S
C1994 C1985 1.429 . S
C1994 N1991 1.350 . S
C1994 C1993 1.434 . S
C1995 C1996 1.369 . S
C1995 C1997 1.419 . S
C1995 H1999 0.930 . S
C1996 C1995 1.369 . S
C1996 C2005 1.429 . S
C1997 C1995 1.419 . S
C1997 C1998 1.363 . S
C1997 H2000 0.929 . S
C1998 C1997 1.363 . S
C1998 C2004 1.428 . S
H1999 C1995 0.930 . S
H2000 C1997 0.929 . S
S2001 N2002 1.613 . S
S2001 N2003 1.610 . S
N2002 S2001 1.613 . S
N2002 C2005 1.350 . S
N2003 S2001 1.610 . S
N2003 C2004 1.351 . S
C2004 C1998 1.428 . S
C2004 N2003 1.351 . S
C2004 C2005 1.434 . S
C2005 C1996 1.429 . S
C2005 N2002 1.350 . S
C2005 C2004 1.434 . S
C2006 C2007 1.369 . S
C2006 C2008 1.419 . S
C2006 H2010 0.930 . S
C2007 C2006 1.369 . S
C2007 C2016 1.429 . S
C2008 C2006 1.419 . S
C2008 C2009 1.363 . S
C2008 H2011 0.929 . S
C2009 C2008 1.363 . S
C2009 C2015 1.428 . S
H2010 C2006 0.930 . S
H2011 C2008 0.929 . S
S2012 N2013 1.613 . S
S2012 N2014 1.610 . S
N2013 S2012 1.613 . S
N2013 C2016 1.350 . S
N2014 S2012 1.610 . S
N2014 C2015 1.351 . S
C2015 C2009 1.428 . S
C2015 N2014 1.351 . S
C2015 C2016 1.434 . S
C2016 C2007 1.429 . S
C2016 N2013 1.350 . S
C2016 C2015 1.434 . S
C2017 C2018 1.369 . S
C2017 C2019 1.419 . S
C2017 H2021 0.930 . S
C2018 C2017 1.369 . S
C2018 C2027 1.429 . S
C2019 C2017 1.419 . S
C2019 C2020 1.363 . S
C2019 H2022 0.929 . S
C2020 C2019 1.363 . S
C2020 C2026 1.428 . S
H2021 C2017 0.930 . S
H2022 C2019 0.929 . S
S2023 N2024 1.613 . S
S2023 N2025 1.610 . S
N2024 S2023 1.613 . S
N2024 C2027 1.350 . S
N2025 S2023 1.610 . S
N2025 C2026 1.351 . S
C2026 C2020 1.428 . S
C2026 N2025 1.351 . S
C2026 C2027 1.434 . S
C2027 C2018 1.429 . S
C2027 N2024 1.350 . S
C2027 C2026 1.434 . S
C2028 C2029 1.369 . S
C2028 C2030 1.419 . S
C2028 H2032 0.930 . S
C2029 C2028 1.369 . S
C2029 C2038 1.429 . S
C2030 C2028 1.419 . S
C2030 C2031 1.363 . S
C2030 H2033 0.929 . S
C2031 C2030 1.363 . S
C2031 C2037 1.428 . S
H2032 C2028 0.930 . S
H2033 C2030 0.929 . S
S2034 N2035 1.613 . S
S2034 N2036 1.610 . S
N2035 S2034 1.613 . S
N2035 C2038 1.350 . S
N2036 S2034 1.610 . S
N2036 C2037 1.351 . S
C2037 C2031 1.428 . S
C2037 N2036 1.351 . S
C2037 C2038 1.434 . S
C2038 C2029 1.429 . S
C2038 N2035 1.350 . S
C2038 C2037 1.434 . S
C2039 C2040 1.369 . S
C2039 C2041 1.419 . S
C2039 H2043 0.930 . S
C2040 C2039 1.369 . S
C2040 C2049 1.429 . S
C2041 C2039 1.419 . S
C2041 C2042 1.363 . S
C2041 H2044 0.929 . S
C2042 C2041 1.363 . S
C2042 C2048 1.428 . S
H2043 C2039 0.930 . S
H2044 C2041 0.929 . S
S2045 N2046 1.613 . S
S2045 N2047 1.610 . S
N2046 S2045 1.613 . S
N2046 C2049 1.350 . S
N2047 S2045 1.610 . S
N2047 C2048 1.351 . S
C2048 C2042 1.428 . S
C2048 N2047 1.351 . S
C2048 C2049 1.434 . S
C2049 C2040 1.429 . S
C2049 N2046 1.350 . S
C2049 C2048 1.434 . S
C2050 C2051 1.369 . S
C2050 C2052 1.419 . S
C2050 H2054 0.930 . S
C2051 C2050 1.369 . S
C2051 C2060 1.429 . S
C2052 C2050 1.419 . S
C2052 C2053 1.363 . S
C2052 H2055 0.929 . S
C2053 C2052 1.363 . S
C2053 C2059 1.428 . S
H2054 C2050 0.930 . S
H2055 C2052 0.929 . S
S2056 N2057 1.613 . S
S2056 N2058 1.610 . S
N2057 S2056 1.613 . S
N2057 C2060 1.350 . S
N2058 S2056 1.610 . S
N2058 C2059 1.351 . S
C2059 C2053 1.428 . S
C2059 N2058 1.351 . S
C2059 C2060 1.434 . S
C2060 C2051 1.429 . S
C2060 N2057 1.350 . S
C2060 C2059 1.434 . S
C2061 C2062 1.369 . S
C2061 C2063 1.419 . S
C2061 H2065 0.930 . S
C2062 C2061 1.369 . S
C2062 C2071 1.429 . S
C2063 C2061 1.419 . S
C2063 C2064 1.363 . S
C2063 H2066 0.929 . S
C2064 C2063 1.363 . S
C2064 C2070 1.428 . S
H2065 C2061 0.930 . S
H2066 C2063 0.929 . S
S2067 N2068 1.613 . S
S2067 N2069 1.610 . S
N2068 S2067 1.613 . S
N2068 C2071 1.350 . S
N2069 S2067 1.610 . S
N2069 C2070 1.351 . S
C2070 C2064 1.428 . S
C2070 N2069 1.351 . S
C2070 C2071 1.434 . S
C2071 C2062 1.429 . S
C2071 N2068 1.350 . S
C2071 C2070 1.434 . S
C2072 C2073 1.369 . S
C2072 C2074 1.419 . S
C2072 H2076 0.930 . S
C2073 C2072 1.369 . S
C2073 C2082 1.429 . S
C2074 C2072 1.419 . S
C2074 C2075 1.363 . S
C2074 H2077 0.929 . S
C2075 C2074 1.363 . S
C2075 C2081 1.428 . S
H2076 C2072 0.930 . S
H2077 C2074 0.929 . S
S2078 N2079 1.613 . S
S2078 N2080 1.610 . S
N2079 S2078 1.613 . S
N2079 C2082 1.350 . S
N2080 S2078 1.610 . S
N2080 C2081 1.351 . S
C2081 C2075 1.428 . S
C2081 N2080 1.351 . S
C2081 C2082 1.434 . S
C2082 C2073 1.429 . S
C2082 N2079 1.350 . S
C2082 C2081 1.434 . S
C2083 C2084 1.369 . S
C2083 C2085 1.419 . S
C2083 H2087 0.930 . S
C2084 C2083 1.369 . S
C2084 C2093 1.429 . S
C2085 C2083 1.419 . S
C2085 C2086 1.363 . S
C2085 H2088 0.929 . S
C2086 C2085 1.363 . S
C2086 C2092 1.428 . S
H2087 C2083 0.930 . S
H2088 C2085 0.929 . S
S2089 N2090 1.613 . S
S2089 N2091 1.610 . S
N2090 S2089 1.613 . S
N2090 C2093 1.350 . S
N2091 S2089 1.610 . S
N2091 C2092 1.351 . S
C2092 C2086 1.428 . S
C2092 N2091 1.351 . S
C2092 C2093 1.434 . S
C2093 C2084 1.429 . S
C2093 N2090 1.350 . S
C2093 C2092 1.434 . S
C2094 C2095 1.369 . S
C2094 C2096 1.419 . S
C2094 H2098 0.930 . S
C2095 C2094 1.369 . S
C2095 C2104 1.429 . S
C2096 C2094 1.419 . S
C2096 C2097 1.363 . S
C2096 H2099 0.929 . S
C2097 C2096 1.363 . S
C2097 C2103 1.428 . S
H2098 C2094 0.930 . S
H2099 C2096 0.929 . S
S2100 N2101 1.613 . S
S2100 N2102 1.610 . S
N2101 S2100 1.613 . S
N2101 C2104 1.350 . S
N2102 S2100 1.610 . S
N2102 C2103 1.351 . S
C2103 C2097 1.428 . S
C2103 N2102 1.351 . S
C2103 C2104 1.434 . S
C2104 C2095 1.429 . S
C2104 N2101 1.350 . S
C2104 C2103 1.434 . S
C2105 C2106 1.369 . S
C2105 C2107 1.419 . S
C2105 H2109 0.930 . S
C2106 C2105 1.369 . S
C2106 C2115 1.429 . S
C2107 C2105 1.419 . S
C2107 C2108 1.363 . S
C2107 H2110 0.929 . S
C2108 C2107 1.363 . S
C2108 C2114 1.428 . S
H2109 C2105 0.930 . S
H2110 C2107 0.929 . S
S2111 N2112 1.613 . S
S2111 N2113 1.610 . S
N2112 S2111 1.613 . S
N2112 C2115 1.350 . S
N2113 S2111 1.610 . S
N2113 C2114 1.351 . S
C2114 C2108 1.428 . S
C2114 N2113 1.351 . S
C2114 C2115 1.434 . S
C2115 C2106 1.429 . S
C2115 N2112 1.350 . S
C2115 C2114 1.434 . S
C2116 C2117 1.369 . S
C2116 C2118 1.419 . S
C2116 H2120 0.930 . S
C2117 C2116 1.369 . S
C2117 C2126 1.429 . S
C2118 C2116 1.419 . S
C2118 C2119 1.363 . S
C2118 H2121 0.929 . S
C2119 C2118 1.363 . S
C2119 C2125 1.428 . S
H2120 C2116 0.930 . S
H2121 C2118 0.929 . S
S2122 N2123 1.613 . S
S2122 N2124 1.610 . S
N2123 S2122 1.613 . S
N2123 C2126 1.350 . S
N2124 S2122 1.610 . S
N2124 C2125 1.351 . S
C2125 C2119 1.428 . S
C2125 N2124 1.351 . S
C2125 C2126 1.434 . S
C2126 C2117 1.429 . S
C2126 N2123 1.350 . S
C2126 C2125 1.434 . S
C2127 C2128 1.369 . S
C2127 C2129 1.419 . S
C2127 H2131 0.930 . S
C2128 C2127 1.369 . S
C2128 C2137 1.429 . S
C2129 C2127 1.419 . S
C2129 C2130 1.363 . S
C2129 H2132 0.929 . S
C2130 C2129 1.363 . S
C2130 C2136 1.428 . S
H2131 C2127 0.930 . S
H2132 C2129 0.929 . S
S2133 N2134 1.613 . S
S2133 N2135 1.610 . S
N2134 S2133 1.613 . S
N2134 C2137 1.350 . S
N2135 S2133 1.610 . S
N2135 C2136 1.351 . S
C2136 C2130 1.428 . S
C2136 N2135 1.351 . S
C2136 C2137 1.434 . S
C2137 C2128 1.429 . S
C2137 N2134 1.350 . S
C2137 C2136 1.434 . S
C2138 C2139 1.369 . S
C2138 C2140 1.419 . S
C2138 H2142 0.930 . S
C2139 C2138 1.369 . S
C2139 C2148 1.429 . S
C2140 C2138 1.419 . S
C2140 C2141 1.363 . S
C2140 H2143 0.929 . S
C2141 C2140 1.363 . S
C2141 C2147 1.428 . S
H2142 C2138 0.930 . S
H2143 C2140 0.929 . S
S2144 N2145 1.613 . S
S2144 N2146 1.610 . S
N2145 S2144 1.613 . S
N2145 C2148 1.350 . S
N2146 S2144 1.610 . S
N2146 C2147 1.351 . S
C2147 C2141 1.428 . S
C2147 N2146 1.351 . S
C2147 C2148 1.434 . S
C2148 C2139 1.429 . S
C2148 N2145 1.350 . S
C2148 C2147 1.434 . S
C2149 C2150 1.369 . S
C2149 C2151 1.419 . S
C2149 H2153 0.930 . S
C2150 C2149 1.369 . S
C2150 C2159 1.429 . S
C2151 C2149 1.419 . S
C2151 C2152 1.363 . S
C2151 H2154 0.929 . S
C2152 C2151 1.363 . S
C2152 C2158 1.428 . S
H2153 C2149 0.930 . S
H2154 C2151 0.929 . S
S2155 N2156 1.613 . S
S2155 N2157 1.610 . S
N2156 S2155 1.613 . S
N2156 C2159 1.350 . S
N2157 S2155 1.610 . S
N2157 C2158 1.351 . S
C2158 C2152 1.428 . S
C2158 N2157 1.351 . S
C2158 C2159 1.434 . S
C2159 C2150 1.429 . S
C2159 N2156 1.350 . S
C2159 C2158 1.434 . S
C2160 C2161 1.369 . S
C2160 C2162 1.419 1_545 S
C2160 H2164 0.930 . S
C2161 C2160 1.369 . S
C2161 C2170 1.429 . S
C2162 C2160 1.419 1_565 S
C2162 C2163 1.363 . S
C2162 H2165 0.929 . S
C2163 C2162 1.363 . S
C2163 C2169 1.428 . S
H2164 C2160 0.930 . S
H2165 C2162 0.929 . S
S2166 N2167 1.613 . S
S2166 N2168 1.610 1_545 S
N2167 S2166 1.613 . S
N2167 C2170 1.350 . S
N2168 S2166 1.610 1_565 S
N2168 C2169 1.351 . S
C2169 C2163 1.428 . S
C2169 N2168 1.351 . S
C2169 C2170 1.434 1_565 S
C2170 C2161 1.429 . S
C2170 N2167 1.350 . S
C2170 C2169 1.434 1_545 S
C2171 C2172 1.371 . S
C2171 C2173 1.419 . S
C2171 H2175 0.930 . S
C2172 C2171 1.371 . S
C2172 C2181 1.427 1_565 S
C2173 C2171 1.419 . S
C2173 C2174 1.365 . S
C2173 H2176 0.929 . S
C2174 C2173 1.365 . S
C2174 C2180 1.426 1_565 S
H2175 C2171 0.930 . S
H2176 C2173 0.929 . S
S2177 N2178 1.613 . S
S2177 N2179 1.610 . S
N2178 S2177 1.613 . S
N2178 C2181 1.350 . S
N2179 S2177 1.610 . S
N2179 C2180 1.351 . S
C2180 C2174 1.426 1_545 S
C2180 N2179 1.351 . S
C2180 C2181 1.434 . S
C2181 C2172 1.427 1_545 S
C2181 N2178 1.350 . S
C2181 C2180 1.434 . S
C2182 C2183 1.369 . S
C2182 C2184 1.419 1_545 S
C2182 H2186 0.930 . S
C2183 C2182 1.369 . S
C2183 C2192 1.429 . S
C2184 C2182 1.419 1_565 S
C2184 C2185 1.363 . S
C2184 H2187 0.929 . S
C2185 C2184 1.363 . S
C2185 C2191 1.428 . S
H2186 C2182 0.930 . S
H2187 C2184 0.929 . S
S2188 N2189 1.613 . S
S2188 N2190 1.610 1_545 S
N2189 S2188 1.613 . S
N2189 C2192 1.350 . S
N2190 S2188 1.610 1_565 S
N2190 C2191 1.351 . S
C2191 C2185 1.428 . S
C2191 N2190 1.351 . S
C2191 C2192 1.434 1_565 S
C2192 C2183 1.429 . S
C2192 N2189 1.350 . S
C2192 C2191 1.434 1_545 S
C2193 C2194 1.375 . S
C2193 C2195 1.419 . S
C2193 H2197 0.930 . S
C2194 C2193 1.375 . S
C2194 C2203 1.423 1_546 S
C2195 C2193 1.419 . S
C2195 C2196 1.370 1_556 S
C2195 H2198 0.929 . S
C2196 C2195 1.370 1_554 S
C2196 C2202 1.421 1_545 S
H2197 C2193 0.930 . S
H2198 C2195 0.929 . S
S2199 N2200 1.613 . S
S2199 N2201 1.610 . S
N2200 S2199 1.613 . S
N2200 C2203 1.350 . S
N2201 S2199 1.610 . S
N2201 C2202 1.351 . S
C2202 C2196 1.421 1_565 S
C2202 N2201 1.351 . S
C2202 C2203 1.434 . S
C2203 C2194 1.423 1_564 S
C2203 N2200 1.350 . S
C2203 C2202 1.434 . S
C2204 C2205 1.369 . S
C2204 C2206 1.419 1_565 S
C2204 H2208 0.930 . S
C2205 C2204 1.369 . S
C2205 C2214 1.429 . S
C2206 C2204 1.419 1_545 S
C2206 C2207 1.363 . S
C2206 H2209 0.929 . S
C2207 C2206 1.363 . S
C2207 C2213 1.428 . S
H2208 C2204 0.930 . S
H2209 C2206 0.929 . S
S2210 N2211 1.613 1_545 S
S2210 N2212 1.610 . S
N2211 S2210 1.613 1_565 S
N2211 C2214 1.350 . S
N2212 S2210 1.610 . S
N2212 C2213 1.351 . S
C2213 C2207 1.428 . S
C2213 N2212 1.351 . S
C2213 C2214 1.434 1_545 S
C2214 C2205 1.429 . S
C2214 N2211 1.350 . S
C2214 C2213 1.434 1_565 S
C2215 C2216 1.370 . S
C2215 C2217 1.419 . S
C2215 H2219 0.930 . S
C2216 C2215 1.370 . S
C2216 C2225 1.428 1_545 S
C2217 C2215 1.419 . S
C2217 C2218 1.367 . S
C2217 H2220 0.929 . S
C2218 C2217 1.367 . S
C2218 C2224 1.424 1_545 S
H2219 C2215 0.930 . S
H2220 C2217 0.929 . S
S2221 N2222 1.613 . S
S2221 N2223 1.610 . S
N2222 S2221 1.613 . S
N2222 C2225 1.350 . S
N2223 S2221 1.610 . S
N2223 C2224 1.351 . S
C2224 C2218 1.424 1_565 S
C2224 N2223 1.351 . S
C2224 C2225 1.434 . S
C2225 C2216 1.428 1_565 S
C2225 N2222 1.350 . S
C2225 C2224 1.434 . S
C2226 C2227 1.369 . S
C2226 C2228 1.419 1_565 S
C2226 H2230 0.930 . S
C2227 C2226 1.369 . S
C2227 C2236 1.429 . S
C2228 C2226 1.419 1_545 S
C2228 C2229 1.363 . S
C2228 H2231 0.929 . S
C2229 C2228 1.363 . S
C2229 C2235 1.428 . S
H2230 C2226 0.930 . S
H2231 C2228 0.929 . S
S2232 N2233 1.613 . S
S2232 N2234 1.610 1_565 S
N2233 S2232 1.613 . S
N2233 C2236 1.350 . S
N2234 S2232 1.610 1_545 S
N2234 C2235 1.351 . S
C2235 C2229 1.428 . S
C2235 N2234 1.351 . S
C2235 C2236 1.434 1_545 S
C2236 C2227 1.429 . S
C2236 N2233 1.350 . S
C2236 C2235 1.434 1_565 S
C2237 C2238 1.376 1_556 S
C2237 C2239 1.419 . S
C2237 H2241 0.930 . S
C2238 C2237 1.376 1_554 S
C2238 C2247 1.422 1_565 S
C2239 C2237 1.419 . S
C2239 C2240 1.371 . S
C2239 H2242 0.929 . S
C2240 C2239 1.371 . S
C2240 C2246 1.420 1_566 S
H2241 C2237 0.930 . S
H2242 C2239 0.929 . S
S2243 N2244 1.613 . S
S2243 N2245 1.610 . S
N2244 S2243 1.613 . S
N2244 C2247 1.350 . S
N2245 S2243 1.610 . S
N2245 C2246 1.351 . S
C2246 C2240 1.420 1_544 S
C2246 N2245 1.351 . S
C2246 C2247 1.434 . S
C2247 C2238 1.422 1_545 S
C2247 N2244 1.350 . S
C2247 C2246 1.434 . S
C2248 C2249 1.369 . S
C2248 C2250 1.419 . S
C2248 H2252 0.930 . S
C2249 C2248 1.369 . S
C2249 C2258 1.429 . S
C2250 C2248 1.419 . S
C2250 C2251 1.363 . S
C2250 H2253 0.929 . S
C2251 C2250 1.363 . S
C2251 C2257 1.428 . S
H2252 C2248 0.930 . S
H2253 C2250 0.929 . S
S2254 N2255 1.613 . S
S2254 N2256 1.610 . S
N2255 S2254 1.613 . S
N2255 C2258 1.350 . S
N2256 S2254 1.610 . S
N2256 C2257 1.351 . S
C2257 C2251 1.428 . S
C2257 N2256 1.351 . S
C2257 C2258 1.434 . S
C2258 C2249 1.429 . S
C2258 N2255 1.350 . S
C2258 C2257 1.434 . S
C2259 C2260 1.369 . S
C2259 C2261 1.419 . S
C2259 H2263 0.930 . S
C2260 C2259 1.369 . S
C2260 C2269 1.429 1_556 S
C2261 C2259 1.419 . S
C2261 C2262 1.363 1_556 S
C2261 H2264 0.929 . S
C2262 C2261 1.363 1_554 S
C2262 C2268 1.428 . S
H2263 C2259 0.930 . S
H2264 C2261 0.929 . S
S2265 N2266 1.613 . S
S2265 N2267 1.610 . S
N2266 S2265 1.613 . S
N2266 C2269 1.350 . S
N2267 S2265 1.610 . S
N2267 C2268 1.351 . S
C2268 C2262 1.428 . S
C2268 N2267 1.351 . S
C2268 C2269 1.434 . S
C2269 C2260 1.429 1_554 S
C2269 N2266 1.350 . S
C2269 C2268 1.434 . S
C2270 C2271 1.369 . S
C2270 C2272 1.419 . S
C2270 H2274 0.930 . S
C2271 C2270 1.369 . S
C2271 C2280 1.429 . S
C2272 C2270 1.419 . S
C2272 C2273 1.363 . S
C2272 H2275 0.929 . S
C2273 C2272 1.363 . S
C2273 C2279 1.428 . S
H2274 C2270 0.930 . S
H2275 C2272 0.929 . S
S2276 N2277 1.613 . S
S2276 N2278 1.610 . S
N2277 S2276 1.613 . S
N2277 C2280 1.350 . S
N2278 S2276 1.610 . S
N2278 C2279 1.351 . S
C2279 C2273 1.428 . S
C2279 N2278 1.351 . S
C2279 C2280 1.434 . S
C2280 C2271 1.429 . S
C2280 N2277 1.350 . S
C2280 C2279 1.434 . S
C2281 C2282 1.369 . S
C2281 C2283 1.419 . S
C2281 H2285 0.930 . S
C2282 C2281 1.369 . S
C2282 C2291 1.429 . S
C2283 C2281 1.419 . S
C2283 C2284 1.363 . S
C2283 H2286 0.929 . S
C2284 C2283 1.363 . S
C2284 C2290 1.428 . S
H2285 C2281 0.930 . S
H2286 C2283 0.929 . S
S2287 N2288 1.613 . S
S2287 N2289 1.610 . S
N2288 S2287 1.613 . S
N2288 C2291 1.350 . S
N2289 S2287 1.610 . S
N2289 C2290 1.351 . S
C2290 C2284 1.428 . S
C2290 N2289 1.351 . S
C2290 C2291 1.434 . S
C2291 C2282 1.429 . S
C2291 N2288 1.350 . S
C2291 C2290 1.434 . S
C2292 C2293 1.369 . S
C2292 C2294 1.419 . S
C2292 H2296 0.930 . S
C2293 C2292 1.369 . S
C2293 C2302 1.429 . S
C2294 C2292 1.419 . S
C2294 C2295 1.363 . S
C2294 H2297 0.929 . S
C2295 C2294 1.363 . S
C2295 C2301 1.428 . S
H2296 C2292 0.930 . S
H2297 C2294 0.929 . S
S2298 N2299 1.613 . S
S2298 N2300 1.610 . S
N2299 S2298 1.613 . S
N2299 C2302 1.350 . S
N2300 S2298 1.610 . S
N2300 C2301 1.351 . S
C2301 C2295 1.428 . S
C2301 N2300 1.351 . S
C2301 C2302 1.434 . S
C2302 C2293 1.429 . S
C2302 N2299 1.350 . S
C2302 C2301 1.434 . S
C2303 C2304 1.369 . S
C2303 C2305 1.419 . S
C2303 H2307 0.930 . S
C2304 C2303 1.369 . S
C2304 C2313 1.429 1_556 S
C2305 C2303 1.419 . S
C2305 C2306 1.363 1_556 S
C2305 H2308 0.929 . S
C2306 C2305 1.363 1_554 S
C2306 C2312 1.428 . S
H2307 C2303 0.930 . S
H2308 C2305 0.929 . S
S2309 N2310 1.613 . S
S2309 N2311 1.610 . S
N2310 S2309 1.613 . S
N2310 C2313 1.350 . S
N2311 S2309 1.610 . S
N2311 C2312 1.351 . S
C2312 C2306 1.428 . S
C2312 N2311 1.351 . S
C2312 C2313 1.434 . S
C2313 C2304 1.429 1_554 S
C2313 N2310 1.350 . S
C2313 C2312 1.434 . S
C2314 C2315 1.369 . S
C2314 C2316 1.419 . S
C2314 H2318 0.930 . S
C2315 C2314 1.369 . S
C2315 C2324 1.429 . S
C2316 C2314 1.419 . S
C2316 C2317 1.363 . S
C2316 H2319 0.929 . S
C2317 C2316 1.363 . S
C2317 C2323 1.428 . S
H2318 C2314 0.930 . S
H2319 C2316 0.929 . S
S2320 N2321 1.613 . S
S2320 N2322 1.610 . S
N2321 S2320 1.613 . S
N2321 C2324 1.350 . S
N2322 S2320 1.610 . S
N2322 C2323 1.351 . S
C2323 C2317 1.428 . S
C2323 N2322 1.351 . S
C2323 C2324 1.434 . S
C2324 C2315 1.429 . S
C2324 N2321 1.350 . S
C2324 C2323 1.434 . S
C2325 C2326 1.369 . S
C2325 C2327 1.419 . S
C2325 H2329 0.930 . S
C2326 C2325 1.369 . S
C2326 C2335 1.429 . S
C2327 C2325 1.419 . S
C2327 C2328 1.363 . S
C2327 H2330 0.929 . S
C2328 C2327 1.363 . S
C2328 C2334 1.428 . S
H2329 C2325 0.930 . S
H2330 C2327 0.929 . S
S2331 N2332 1.613 . S
S2331 N2333 1.610 . S
N2332 S2331 1.613 . S
N2332 C2335 1.350 . S
N2333 S2331 1.610 . S
N2333 C2334 1.351 . S
C2334 C2328 1.428 . S
C2334 N2333 1.351 . S
C2334 C2335 1.434 . S
C2335 C2326 1.429 . S
C2335 N2332 1.350 . S
C2335 C2334 1.434 . S
C1281 C6 0.929 . S
C1283 C1099 0.913 . S
C1292 C46 0.924 . S
C1294 C339 0.918 . S
C1303 C86 0.945 . S
C1305 C1019 0.900 . S
C1314 C419 0.895 . S
C1316 C126 0.945 . S
C1325 C166 0.938 . S
C1327 C1179 0.907 . S
C1336 C579 0.904 . S
C1338 C206 0.940 . S
C1347 C1259 0.921 . S
C1349 C246 0.927 . S
C1358 C286 0.931 . S
C1360 C499 0.912 . S
C1369 C335 0.943 . S
C1371 C770 0.903 . S
C1380 C375 0.924 . S
C1382 C10 0.918 . S
C1391 C690 0.897 . S
C1393 C415 0.943 . S
C1402 C90 0.896 . S
C1404 C455 0.945 . S
C1413 C495 0.947 . S
C1415 C850 0.898 . S
C1424 C535 0.927 . S
C1426 C250 0.914 . S
C1435 C575 0.930 . S
C1437 C930 0.912 . S
C1446 C170 0.921 . S
C1448 C615 0.927 . S
C1457 C459 0.901 . S
C1459 C646 0.941 . S
C1468 C979 0.893 . S
C1470 C686 0.947 . S
C1479 C379 0.899 . S
C1481 C726 0.944 . S
C1490 C766 0.925 . S
C1492 C1059 0.916 . S
C1501 C539 0.894 . S
C1503 C806 0.946 . S
C1512 C1219 0.919 . S
C1514 C846 0.929 . S
C1523 C619 0.899 . S
C1525 C886 0.943 . S
C1534 C926 0.924 . S
C1536 C1139 0.918 . S
C1545 C975 0.940 . S
C1547 C130 0.906 . S
C1556 C1015 0.933 . S
C1558 C650 0.912 . S
C1567 C1055 0.949 . S
C1569 C50 0.897 . S
C1578 C1095 0.948 . S
C1580 C730 0.898 . S
C1589 C210 0.905 . S
C1591 C1135 0.940 . S
C1600 C890 0.914 . S
C1602 C1175 0.931 . S
C1611 C1215 0.949 . S
C1613 C290 0.896 . S
C1622 C1255 0.928 . S
C1624 C810 0.914 . S
C1633 C18 2.973 . S
C1635 C738 2.976 . S
C1644 C778 2.974 1_455 S
C1646 C58 2.975 1_655 S
C1655 C98 2.971 . S
C1657 C658 2.977 . S
C1666 C138 2.972 . S
C1668 C698 2.976 . S
C1677 C898 2.977 . S
C1679 C178 2.971 . S
C1688 C218 2.972 . S
C1690 C938 2.976 . S
C1699 C818 2.972 . S
C1701 C258 2.975 . S
C1710 C298 2.974 1_655 S
C1712 C858 2.975 1_455 S
C1721 C1049 2.978 . S
C1723 C329 2.971 . S
C1732 C369 2.975 1_455 S
C1734 C1089 2.974 1_655 S
C1743 C409 2.978 . S
C1745 C969 2.972 . S
C1754 C449 2.971 . S
C1756 C1009 2.975 . S
C1765 C1209 2.976 . S
C1767 C489 2.973 . S
C1776 C1249 2.972 . S
C1778 C529 2.974 . S
C1787 C569 2.978 . S
C1789 C1129 2.971 . S
C1798 C609 2.977 1_455 S
C1800 C1169 2.972 1_655 S
C1809 C19 3.469 . S
C1811 C970 3.467 . S
C1820 C370 3.468 1_565 S
C1822 C59 3.468 1_545 S
C1831 C99 3.466 . S
C1833 C1050 3.470 . S
C1842 C139 3.467 . S
C1844 C450 3.468 1_545 S
C1853 C1130 3.468 . S
C1855 C179 3.468 . S
C1864 C530 3.468 1_565 S
C1866 C219 3.467 . S
C1875 C259 3.468 . S
C1877 C1210 3.468 . S
C1886 C299 3.467 . S
C1888 C610 3.468 1_545 S
C1897 C659 3.468 . S
C1899 C330 3.468 . S
C1908 C739 3.466 . S
C1910 C410 3.470 . S
C1919 C819 3.469 . S
C1921 C490 3.467 . S
C1930 C570 3.467 . S
C1932 C899 3.469 . S
C1941 C699 3.470 . S
C1943 C1010 3.467 . S
C1952 C779 3.469 . S
C1954 C1090 3.468 . S
C1963 C1170 3.471 . S
C1965 C859 3.467 . S
C1974 C1250 3.466 . S
C1976 C939 3.470 . S
C1985 C9 4.560 . S
C1987 C209 4.556 . S
C1996 C249 4.556 . S
C1998 C49 4.559 . S
C2007 C289 4.557 . S
C2009 C89 4.558 . S
C2018 C169 4.560 . S
C2020 C129 4.556 . S
C2029 C338 4.558 . S
C2031 C538 4.557 . S
C2040 C378 4.559 . S
C2042 C578 4.557 . S
C2051 C618 4.556 . S
C2053 C418 4.559 . S
C2062 C458 4.560 . S
C2064 C498 4.557 . S
C2073 C649 4.558 . S
C2075 C849 4.558 . S
C2084 C689 4.559 . S
C2086 C889 4.557 . S
C2095 C729 4.556 . S
C2097 C929 4.559 . S
C2106 C809 4.556 . S
C2108 C769 4.559 . S
C2117 C978 4.557 . S
C2119 C1178 4.559 . S
C2128 C1018 4.558 . S
C2130 C1218 4.557 . S
C2139 C1258 4.558 . S
C2141 C1058 4.559 . S
C2150 C1098 4.557 . S
C2152 C1138 4.559 . S
C2161 C15 0.697 . S
C2163 C175 0.677 . S
C2172 C55 0.677 . S
C2174 C215 0.696 . S
C2183 C255 0.695 . S
C2185 C95 0.679 . S
C2194 C295 0.698 . S
C2196 C135 0.681 . S
C2205 C326 0.670 . S
C2207 C486 0.694 . S
C2216 C526 0.687 . S
C2218 C366 0.687 . S
C2227 C566 0.697 . S
C2229 C406 0.673 . S
C2238 C606 0.676 . S
C2240 C446 0.696 . S
C2249 C655 0.696 . S
C2251 C815 0.679 . S
C2260 C855 0.697 . S
C2262 C695 0.675 . S
C2271 C735 0.679 . S
C2273 C895 0.692 . S
C2282 C935 0.696 . S
C2284 C775 0.679 . S
C2293 C1126 0.671 . S
C2295 C966 0.694 . S
C2304 C1006 0.691 . S
C2306 C1166 0.674 . S
C2315 C1046 0.688 . S
C2317 C1206 0.685 . S
C2326 C1086 0.698 . S
C2328 C1246 0.674 . S
