# Generated by pormake.
# Topology umh, (4)-cn, num edge types: 1
# Building blocks:
#     Node 0, Type 0, BuildingBlock: MUDLON_clean_sbu_0, # of connection points: 4
#     Node 1, Type 0, BuildingBlock: MUDLON_clean_sbu_0, # of connection points: 4
#     Node 2, Type 0, BuildingBlock: MUDLON_clean_sbu_0, # of connection points: 4
#     Node 3, Type 0, BuildingBlock: MUDLON_clean_sbu_0, # of connection points: 4
#     Node 4, Type 0, BuildingBlock: MUDLON_clean_sbu_0, # of connection points: 4
#     Node 5, Type 0, BuildingBlock: MUDLON_clean_sbu_0, # of connection points: 4
#     Node 6, Type 0, BuildingBlock: MUDLON_clean_sbu_0, # of connection points: 4
#     Node 7, Type 0, BuildingBlock: MUDLON_clean_sbu_0, # of connection points: 4
#     Node 8, Type 0, BuildingBlock: MUDLON_clean_sbu_0, # of connection points: 4
#     Node 9, Type 0, BuildingBlock: MUDLON_clean_sbu_0, # of connection points: 4
#     Node 10, Type 0, BuildingBlock: MUDLON_clean_sbu_0, # of connection points: 4
#     Node 11, Type 0, BuildingBlock: MUDLON_clean_sbu_0, # of connection points: 4
#     Node 12, Type 0, BuildingBlock: MUDLON_clean_sbu_0, # of connection points: 4
#     Node 13, Type 0, BuildingBlock: MUDLON_clean_sbu_0, # of connection points: 4
#     Node 14, Type 0, BuildingBlock: MUDLON_clean_sbu_0, # of connection points: 4
#     Node 15, Type 0, BuildingBlock: MUDLON_clean_sbu_0, # of connection points: 4
#     Edge 16, Type (0, 0), BuildingBlock: AJUNOK_clean_linker_0, # of connection points: 2
#     Edge 17, Type (0, 0), BuildingBlock: AJUNOK_clean_linker_0, # of connection points: 2
#     Edge 18, Type (0, 0), BuildingBlock: AJUNOK_clean_linker_0, # of connection points: 2
#     Edge 19, Type (0, 0), BuildingBlock: AJUNOK_clean_linker_0, # of connection points: 2
#     Edge 20, Type (0, 0), BuildingBlock: AJUNOK_clean_linker_0, # of connection points: 2
#     Edge 21, Type (0, 0), BuildingBlock: AJUNOK_clean_linker_0, # of connection points: 2
#     Edge 22, Type (0, 0), BuildingBlock: AJUNOK_clean_linker_0, # of connection points: 2
#     Edge 23, Type (0, 0), BuildingBlock: AJUNOK_clean_linker_0, # of connection points: 2
#     Edge 24, Type (0, 0), BuildingBlock: AJUNOK_clean_linker_0, # of connection points: 2
#     Edge 25, Type (0, 0), BuildingBlock: AJUNOK_clean_linker_0, # of connection points: 2
#     Edge 26, Type (0, 0), BuildingBlock: AJUNOK_clean_linker_0, # of connection points: 2
#     Edge 27, Type (0, 0), BuildingBlock: AJUNOK_clean_linker_0, # of connection points: 2
#     Edge 28, Type (0, 0), BuildingBlock: AJUNOK_clean_linker_0, # of connection points: 2
#     Edge 29, Type (0, 0), BuildingBlock: AJUNOK_clean_linker_0, # of connection points: 2
#     Edge 30, Type (0, 0), BuildingBlock: AJUNOK_clean_linker_0, # of connection points: 2
#     Edge 31, Type (0, 0), BuildingBlock: AJUNOK_clean_linker_0, # of connection points: 2
#     Edge 32, Type (0, 0), BuildingBlock: AJUNOK_clean_linker_0, # of connection points: 2
#     Edge 33, Type (0, 0), BuildingBlock: AJUNOK_clean_linker_0, # of connection points: 2
#     Edge 34, Type (0, 0), BuildingBlock: AJUNOK_clean_linker_0, # of connection points: 2
#     Edge 35, Type (0, 0), BuildingBlock: AJUNOK_clean_linker_0, # of connection points: 2
#     Edge 36, Type (0, 0), BuildingBlock: AJUNOK_clean_linker_0, # of connection points: 2
#     Edge 37, Type (0, 0), BuildingBlock: AJUNOK_clean_linker_0, # of connection points: 2
#     Edge 38, Type (0, 0), BuildingBlock: AJUNOK_clean_linker_0, # of connection points: 2
#     Edge 39, Type (0, 0), BuildingBlock: AJUNOK_clean_linker_0, # of connection points: 2
#     Edge 40, Type (0, 0), BuildingBlock: AJUNOK_clean_linker_0, # of connection points: 2
#     Edge 41, Type (0, 0), BuildingBlock: AJUNOK_clean_linker_0, # of connection points: 2
#     Edge 42, Type (0, 0), BuildingBlock: AJUNOK_clean_linker_0, # of connection points: 2
#     Edge 43, Type (0, 0), BuildingBlock: AJUNOK_clean_linker_0, # of connection points: 2
#     Edge 44, Type (0, 0), BuildingBlock: AJUNOK_clean_linker_0, # of connection points: 2
#     Edge 45, Type (0, 0), BuildingBlock: AJUNOK_clean_linker_0, # of connection points: 2
#     Edge 46, Type (0, 0), BuildingBlock: AJUNOK_clean_linker_0, # of connection points: 2
#     Edge 47, Type (0, 0), BuildingBlock: AJUNOK_clean_linker_0, # of connection points: 2
# Relax obj value: 0.037
# Max RMSD: 0.081
# Mean RMSD: 0.081
data_MOF--net-umh--node1-MUDLON_clean_sbu_0--edge1-AJUNOK_clean_linker_0
_symmetry_space_group_name_H-M    P1
_symmetry_Int_Tables_number       1
_symmetry_cell_setting            triclinic
loop_
_symmetry_equiv_pos_as_xyz
'x, y, z'
_cell_length_a     31.245084
_cell_length_b     31.297202
_cell_length_c     40.36873
_cell_angle_alpha  89.974137
_cell_angle_beta   89.856449
_cell_angle_gamma 90.35021
loop_
_atom_site_label
_atom_site_type_symbol
_atom_site_fract_x
_atom_site_fract_y
_atom_site_fract_z
_atom_type_partial_charge
Mg0 Mg 0.36116 0.10733 0.19261 0.0
C1 C 0.37151 0.13837 0.12344 0.0
O2 O 0.3819 0.17196 0.14124 0.0
C3 C 0.32511 0.06211 0.25019 0.0
O4 O 0.36139 0.07802 0.26122 0.0
C5 C 0.45736 0.09097 0.1879 0.0
O6 O 0.45279 0.11325 0.16061 0.0
O7 O 0.4254 0.08709 0.20733 0.0
O8 O 0.35916 0.10464 0.13851 0.0
O9 O 0.33813 0.17118 0.20562 0.0
C10 C 0.29763 0.17386 0.20931 0.0
O11 O 0.27441 0.13897 0.20649 0.0
O12 O 0.3171 0.06554 0.21939 0.0
Mg13 Mg 0.40825 0.35778 0.68049 0.0
C14 C 0.3925 0.37585 0.61051 0.0
O15 O 0.37067 0.40492 0.62674 0.0
C16 C 0.43423 0.32018 0.74387 0.0
O17 O 0.40907 0.35188 0.75234 0.0
C18 C 0.45441 0.4341 0.70834 0.0
O19 O 0.4758 0.40333 0.72276 0.0
O20 O 0.42259 0.42447 0.69024 0.0
O21 O 0.41458 0.34933 0.62715 0.0
O22 O 0.34324 0.33837 0.69036 0.0
C23 C 0.33956 0.29787 0.68971 0.0
O24 O 0.37359 0.275 0.68298 0.0
O25 O 0.44362 0.31542 0.71337 0.0
Mg26 Mg 0.14469 0.40282 0.19162 0.0
C27 C 0.13326 0.3727 0.12233 0.0
O28 O 0.11932 0.34007 0.13987 0.0
C29 C 0.18186 0.44662 0.24911 0.0
O30 O 0.14525 0.43134 0.26013 0.0
C31 C 0.04846 0.42076 0.18757 0.0
O32 O 0.05216 0.3977 0.16058 0.0
O33 O 0.08087 0.4248 0.20639 0.0
O34 O 0.14821 0.40518 0.13755 0.0
O35 O 0.16676 0.33919 0.2055 0.0
C36 C 0.20696 0.33539 0.20079 0.0
O37 O 0.22809 0.36837 0.18876 0.0
O38 O 0.19014 0.44284 0.21835 0.0
Mg39 Mg 0.10327 0.15503 0.68559 0.0
C40 C 0.12738 0.14235 0.615 0.0
O41 O 0.16127 0.12881 0.631 0.0
C42 C 0.06448 0.19204 0.74562 0.0
O43 O 0.0785 0.15472 0.75563 0.0
C44 C 0.08208 0.05985 0.68569 0.0
O45 O 0.09595 0.06219 0.65501 0.0
O46 O 0.08529 0.09261 0.70409 0.0
O47 O 0.09594 0.15661 0.63179 0.0
O48 O 0.16828 0.17445 0.69511 0.0
C49 C 0.17342 0.21446 0.69115 0.0
O50 O 0.1402 0.23741 0.68248 0.0
O51 O 0.06703 0.20089 0.71487 0.0
Mg52 Mg 0.36036 0.40054 0.39696 0.0
C53 C 0.37421 0.37156 0.46641 0.0
O54 O 0.38529 0.33795 0.44898 0.0
C55 C 0.32017 0.45232 0.34334 0.0
O56 O 0.3591 0.44735 0.33164 0.0
C57 C 0.45616 0.42184 0.39905 0.0
O58 O 0.45341 0.3985 0.426 0.0
O59 O 0.42335 0.42468 0.38051 0.0
O60 O 0.36047 0.40432 0.45105 0.0
O61 O 0.33729 0.33538 0.38666 0.0
C62 C 0.31197 0.32699 0.36276 0.0
O63 O 0.30642 0.35563 0.33942 0.0
O64 O 0.31219 0.43946 0.37266 0.0
Mg65 Mg 0.1012 0.35765 0.90756 0.0
C66 C 0.12541 0.3702 0.97779 0.0
O67 O 0.15702 0.38845 0.96143 0.0
C68 C 0.06251 0.32245 0.84688 0.0
O69 O 0.07646 0.36036 0.83781 0.0
C70 C 0.07712 0.45218 0.90974 0.0
O71 O 0.08841 0.44869 0.94092 0.0
O72 O 0.08262 0.42053 0.89053 0.0
O73 O 0.09492 0.35327 0.96136 0.0
O74 O 0.16633 0.33944 0.89737 0.0
C75 C 0.17154 0.2994 0.90074 0.0
O76 O 0.13831 0.27577 0.90908 0.0
O77 O 0.06525 0.31222 0.87737 0.0
Mg78 Mg 0.15088 0.10734 0.40186 0.0
C79 C 0.12698 0.12743 0.47051 0.0
O80 O 0.09808 0.14673 0.45237 0.0
C81 C 0.18903 0.05482 0.34705 0.0
O82 O 0.14918 0.0574 0.33711 0.0
C83 C 0.06042 0.08226 0.36927 0.0
O84 O 0.06931 0.10673 0.34369 0.0
O85 O 0.08683 0.08025 0.39318 0.0
O86 O 0.15602 0.10623 0.45573 0.0
O87 O 0.16966 0.17321 0.38982 0.0
C88 C 0.19366 0.18174 0.36505 0.0
O89 O 0.19914 0.15263 0.34205 0.0
O90 O 0.19841 0.06928 0.37564 0.0
Mg91 Mg 0.4058 0.15749 0.90951 0.0
C92 C 0.39104 0.13728 0.97931 0.0
O93 O 0.37066 0.10723 0.96284 0.0
C94 C 0.43516 0.19179 0.84581 0.0
O95 O 0.41228 0.1579 0.83802 0.0
C96 C 0.45684 0.08329 0.88625 0.0
O97 O 0.48087 0.11543 0.87634 0.0
O98 O 0.42087 0.09111 0.89959 0.0
O99 O 0.4119 0.16535 0.96291 0.0
O100 O 0.34088 0.17677 0.89982 0.0
C101 C 0.33757 0.21727 0.90076 0.0
O102 O 0.37192 0.2401 0.90735 0.0
O103 O 0.44158 0.19974 0.87635 0.0
Mg104 Mg 0.65582 0.91096 0.90816 0.0
C105 C 0.63848 0.88299 0.97683 0.0
O106 O 0.62121 0.85264 0.95868 0.0
C107 C 0.69587 0.95291 0.8501 0.0
O108 O 0.65722 0.9438 0.83938 0.0
C109 C 0.56154 0.93645 0.90848 0.0
O110 O 0.56309 0.92237 0.93908 0.0
O111 O 0.59415 0.93194 0.88996 0.0
O112 O 0.65726 0.91399 0.9622 0.0
O113 O 0.67471 0.84648 0.89623 0.0
C114 C 0.71497 0.84225 0.89957 0.0
O115 O 0.73751 0.87521 0.90985 0.0
O116 O 0.70385 0.94742 0.88072 0.0
Mg117 Mg 0.60653 0.65144 0.39887 0.0
C118 C 0.67963 0.70047 0.36443 0.0
O119 O 0.6506 0.70627 0.34145 0.0
C120 C 0.58618 0.55524 0.40066 0.0
O121 O 0.60907 0.55786 0.42781 0.0
C122 C 0.55403 0.69137 0.3455 0.0
O123 O 0.55845 0.65237 0.33401 0.0
O124 O 0.56732 0.6994 0.37465 0.0
O125 O 0.67164 0.67476 0.38823 0.0
O126 O 0.60331 0.652 0.45296 0.0
C127 C 0.63581 0.63683 0.46782 0.0
O128 O 0.66844 0.62389 0.44995 0.0
O129 O 0.58302 0.58831 0.38242 0.0
Mg130 Mg 0.85742 0.60798 0.9066 0.0
C131 C 0.87557 0.62222 0.97673 0.0
O132 O 0.90557 0.64345 0.96072 0.0
C133 C 0.82392 0.57987 0.84258 0.0
O134 O 0.85515 0.60663 0.83533 0.0
C135 C 0.9342 0.56017 0.88253 0.0
O136 O 0.90348 0.53771 0.86866 0.0
O137 O 0.92453 0.5939 0.89827 0.0
O138 O 0.84815 0.60121 0.95987 0.0
O139 O 0.8384 0.67283 0.89667 0.0
C140 C 0.79793 0.67712 0.89721 0.0
O141 O 0.77408 0.64317 0.90293 0.0
O142 O 0.81691 0.57119 0.87296 0.0
Mg143 Mg 0.90078 0.86013 0.40132 0.0
C144 C 0.82491 0.81882 0.36571 0.0
O145 O 0.85329 0.81414 0.34197 0.0
C146 C 0.92662 0.95066 0.36907 0.0
O147 O 0.90214 0.94232 0.34345 0.0
C148 C 0.95122 0.82214 0.34499 0.0
O149 O 0.94828 0.86191 0.335 0.0
O150 O 0.93769 0.81278 0.37391 0.0
O151 O 0.8343 0.84197 0.39068 0.0
O152 O 0.90423 0.85364 0.45501 0.0
C153 C 0.88082 0.8794 0.47135 0.0
O154 O 0.85713 0.90659 0.45483 0.0
O155 O 0.92823 0.92403 0.39289 0.0
Mg156 Mg 0.65682 0.60226 0.68203 0.0
C157 C 0.64125 0.62733 0.61219 0.0
O158 O 0.62385 0.65875 0.62898 0.0
C159 C 0.69615 0.56189 0.74071 0.0
O160 O 0.65759 0.5713 0.75135 0.0
C161 C 0.56137 0.57943 0.6839 0.0
O162 O 0.56173 0.5944 0.6535 0.0
O163 O 0.59518 0.58225 0.70113 0.0
O164 O 0.65863 0.59692 0.62816 0.0
O165 O 0.67577 0.66706 0.69291 0.0
C166 C 0.71607 0.6716 0.6897 0.0
O167 O 0.73866 0.63872 0.6798 0.0
O168 O 0.70439 0.56675 0.71002 0.0
Mg169 Mg 0.90201 0.64815 0.19061 0.0
C170 C 0.83531 0.71164 0.20394 0.0
O171 O 0.87 0.7343 0.19805 0.0
C172 C 0.91854 0.55202 0.18704 0.0
O173 O 0.89626 0.55607 0.15971 0.0
C174 C 0.94432 0.68568 0.24868 0.0
O175 O 0.92757 0.64986 0.2599 0.0
O176 O 0.94257 0.69287 0.21767 0.0
O177 O 0.83789 0.67096 0.20308 0.0
O178 O 0.9057 0.65026 0.13653 0.0
C179 C 0.8724 0.63753 0.12112 0.0
O180 O 0.83856 0.62647 0.13857 0.0
O181 O 0.92249 0.5843 0.20599 0.0
Mg182 Mg 0.85906 0.90705 0.68489 0.0
C183 C 0.87603 0.88592 0.61624 0.0
O184 O 0.8996 0.86021 0.63422 0.0
C185 C 0.82439 0.93503 0.74846 0.0
O186 O 0.85489 0.90793 0.75583 0.0
C187 C 0.93631 0.95337 0.71053 0.0
O188 O 0.90583 0.97616 0.72414 0.0
O189 O 0.92615 0.92013 0.69426 0.0
O190 O 0.85241 0.91277 0.63131 0.0
O191 O 0.83927 0.84234 0.69488 0.0
C192 C 0.79885 0.83765 0.69394 0.0
O193 O 0.77517 0.87137 0.68806 0.0
O194 O 0.8182 0.94401 0.71805 0.0
Mg195 Mg 0.60511 0.86402 0.19139 0.0
C196 C 0.6729 0.80172 0.20003 0.0
O197 O 0.63928 0.78011 0.18975 0.0
C198 C 0.58747 0.95998 0.18641 0.0
O199 O 0.60904 0.95546 0.15872 0.0
C200 C 0.56197 0.82823 0.24998 0.0
O201 O 0.57784 0.86476 0.26043 0.0
O202 O 0.56531 0.81941 0.21929 0.0
O203 O 0.66925 0.84199 0.2039 0.0
O204 O 0.60096 0.85948 0.13751 0.0
C205 C 0.63331 0.87303 0.12122 0.0
O206 O 0.66669 0.88727 0.1377 0.0
O207 O 0.5842 0.92811 0.20588 0.0
C208 C 0.36926 0.10353 1.03309 0.0
C209 C 0.38773 0.13846 1.0161 0.0
C210 C 0.36407 0.10381 0.06762 0.0
C211 C 0.3769 0.13916 0.08675 0.0
H212 H 0.3586 0.07548 1.01965 0.0
H213 H 0.34975 0.07605 0.07934 0.0
S214 S 0.42716 0.23895 0.05443 0.0
N215 N 0.41906 0.20941 1.02115 0.0
N216 N 0.40928 0.21023 0.08591 0.0
C217 C 0.39555 0.17437 0.07009 0.0
C218 C 0.40102 0.17394 1.03487 0.0
C219 C 0.36424 0.40615 0.52195 0.0
C220 C 0.37963 0.37174 0.50307 0.0
C221 C 0.36899 0.40717 0.55648 0.0
C222 C 0.38959 0.37398 0.57373 0.0
H223 H 0.34812 0.43254 0.51003 0.0
H224 H 0.35625 0.4344 0.56971 0.0
S225 S 0.43642 0.27669 0.53606 0.0
N226 N 0.41692 0.30356 0.50438 0.0
N227 N 0.42587 0.30576 0.56916 0.0
C228 C 0.40553 0.33951 0.5552 0.0
C229 C 0.4005 0.33831 0.51997 0.0
C230 C 0.15403 0.39822 1.03153 0.0
C231 C 0.12572 0.37059 1.01465 0.0
C232 C 0.15592 0.3991 0.06626 0.0
C233 C 0.13004 0.37191 0.08559 0.0
H234 H 0.17497 0.4196 1.01785 0.0
H235 H 0.17832 0.42085 0.07799 0.0
S236 S 0.04963 0.29422 0.05378 0.0
N237 N 0.07047 0.316 1.02012 0.0
N238 N 0.07428 0.3172 0.08526 0.0
C239 C 0.10135 0.34427 0.06908 0.0
C240 C 0.09908 0.34375 1.03369 0.0
C241 C 0.15997 0.11947 0.56107 0.0
C242 C 0.12601 0.1392 0.57819 0.0
C243 C 0.15987 0.11551 0.52644 0.0
C244 C 0.1259 0.13129 0.50731 0.0
H245 H 0.18705 0.10675 0.57447 0.0
H246 H 0.18687 0.10017 0.51462 0.0
S247 S 0.02886 0.18548 0.53987 0.0
N248 N 0.05724 0.17451 0.5732 0.0
N249 N 0.05694 0.16726 0.50827 0.0
C250 C 0.09162 0.15107 0.52408 0.0
C251 C 0.09168 0.15497 0.55941 0.0
C252 C 0.66407 0.90053 0.06789 0.0
C253 C 0.63322 0.87521 0.08442 0.0
C254 C 0.66511 0.90349 1.03321 0.0
C255 C 0.63574 0.88075 1.01355 0.0
H256 H 0.68764 0.91851 0.08183 0.0
H257 H 0.68959 0.92324 1.02174 0.0
S258 S 0.54784 0.81064 0.04438 0.0
N259 N 0.57194 0.82766 0.07829 0.0
N260 N 0.57411 0.83275 1.0132 0.0
C261 C 0.60453 0.85548 1.0297 0.0
C262 C 0.60318 0.85286 0.06506 0.0
C263 C 0.61166 0.65585 0.55902 0.0
C264 C 0.63984 0.62789 0.57537 0.0
C265 C 0.61003 0.65808 0.52432 0.0
C266 C 0.63696 0.63289 0.5045 0.0
H267 H 0.59051 0.6763 0.57311 0.0
H268 H 0.58797 0.68026 0.51299 0.0
S269 S 0.71578 0.55355 0.53485 0.0
N270 N 0.69459 0.57366 0.5689 0.0
N271 N 0.69196 0.57809 0.50381 0.0
C272 C 0.66506 0.60448 0.52049 0.0
C273 C 0.66636 0.60188 0.55584 0.0
C274 C 0.90797 0.64375 1.03095 0.0
C275 C 0.87388 0.62446 1.01355 0.0
C276 C 0.90723 0.64782 0.06555 0.0
C277 C 0.87222 0.633 0.08436 0.0
H278 H 0.93571 0.65596 1.01778 0.0
H279 H 0.93432 0.66292 0.07758 0.0
S280 S 0.77476 0.57956 0.05099 0.0
N281 N 0.80418 0.59 1.01792 0.0
N282 N 0.80251 0.59765 0.08283 0.0
C283 C 0.83789 0.61343 0.06731 0.0
C284 C 0.8388 0.60911 1.03201 0.0
C285 C 0.8542 0.90943 0.52519 0.0
C286 C 0.88012 0.87978 0.50828 0.0
C287 C 0.85295 0.91117 0.55994 0.0
C288 C 0.87757 0.88332 0.57937 0.0
H289 H 0.83463 0.93177 0.51154 0.0
H290 H 0.83255 0.93466 0.57159 0.0
S291 S 0.95057 0.79921 0.54742 0.0
N292 N 0.93081 0.8216 0.51381 0.0
N293 N 0.92861 0.82469 0.57888 0.0
C294 C 0.90355 0.85331 0.56278 0.0
C295 C 0.90479 0.85157 0.52737 0.0
C296 C 0.27352 0.29145 0.19717 0.0
C297 C 0.23011 0.29462 0.20661 0.0
C298 C 0.29589 0.25289 0.19976 0.0
C299 C 0.27579 0.21576 0.21181 0.0
H300 H 0.2903 0.31871 0.18675 0.0
H301 H 0.32863 0.25182 0.1909 0.0
S302 S 0.16465 0.20797 0.24434 0.0
N303 N 0.16931 0.25798 0.2317 0.0
N304 N 0.21128 0.18549 0.23659 0.0
C305 C 0.23314 0.21891 0.22305 0.0
C306 C 0.21033 0.25827 0.22044 0.0
C307 C 0.25979 0.29988 0.68872 0.0
C308 C 0.29752 0.27662 0.69361 0.0
C309 C 0.21983 0.27951 0.68884 0.0
C310 C 0.216 0.23511 0.69401 0.0
H311 H 0.26114 0.33386 0.68366 0.0
H312 H 0.19182 0.29877 0.6841 0.0
S313 S 0.30498 0.1606 0.71202 0.0
N314 N 0.32853 0.20745 0.70667 0.0
N315 N 0.25333 0.16912 0.70685 0.0
C316 C 0.25337 0.21179 0.7005 0.0
C317 C 0.29415 0.23255 0.70029 0.0
C318 C 0.26658 0.27152 0.33445 0.0
C319 C 0.28322 0.28891 0.36395 0.0
C320 C 0.23706 0.23742 0.33501 0.0
C321 C 0.22188 0.22023 0.36511 0.0
H322 H 0.27669 0.28417 0.31067 0.0
H323 H 0.22593 0.22449 0.31165 0.0
S324 S 0.25454 0.25495 0.44937 0.0
N325 N 0.28204 0.28639 0.42416 0.0
N326 N 0.22586 0.22332 0.42524 0.0
C327 C 0.23779 0.23774 0.3948 0.0
C328 C 0.26864 0.27173 0.39421 0.0
C329 C 0.25768 0.21465 0.90057 0.0
C330 C 0.29565 0.23853 0.89734 0.0
C331 C 0.21776 0.23467 0.90076 0.0
C332 C 0.21417 0.27935 0.89755 0.0
H333 H 0.25875 0.18035 0.90403 0.0
H334 H 0.18955 0.21484 0.90412 0.0
S335 S 0.30385 0.35595 0.8848 0.0
N336 N 0.32714 0.30897 0.8882 0.0
N337 N 0.25204 0.34654 0.88862 0.0
C338 C 0.2518 0.30344 0.89281 0.0
C339 C 0.29254 0.28304 0.89271 0.0
C340 C 0.71236 0.76254 0.89764 0.0
C341 C 0.73613 0.80059 0.89496 0.0
C342 C 0.73266 0.72279 0.89733 0.0
C343 C 0.77748 0.71953 0.89418 0.0
H344 H 0.67801 0.76345 0.90126 0.0
H345 H 0.71297 0.69447 0.90049 0.0
S346 S 0.85352 0.80976 0.88179 0.0
N347 N 0.80634 0.83263 0.88576 0.0
N348 N 0.84449 0.75791 0.88518 0.0
C349 C 0.80136 0.75732 0.88969 0.0
C350 C 0.78068 0.79783 0.89011 0.0
C351 C 0.73432 0.74668 0.33581 0.0
C352 C 0.71773 0.72923 0.36538 0.0
C353 C 0.7684 0.77624 0.33615 0.0
C354 C 0.78639 0.79061 0.36613 0.0
H355 H 0.72105 0.7372 0.31213 0.0
H356 H 0.78067 0.78803 0.31271 0.0
S357 S 0.75397 0.75564 0.45053 0.0
N358 N 0.72187 0.72879 0.42554 0.0
N359 N 0.78494 0.78501 0.42623 0.0
C360 C 0.7697 0.77388 0.39591 0.0
C361 C 0.73571 0.74301 0.39552 0.0
C362 C 0.73364 0.79121 0.69315 0.0
C363 C 0.77841 0.79497 0.69646 0.0
C364 C 0.71343 0.7512 0.69228 0.0
C365 C 0.73723 0.71343 0.69451 0.0
H366 H 0.71395 0.81933 0.69035 0.0
H367 H 0.6791 0.74992 0.68864 0.0
S368 S 0.85452 0.70554 0.70769 0.0
N369 N 0.84542 0.75732 0.70501 0.0
N370 N 0.80741 0.68211 0.70335 0.0
C371 C 0.78173 0.71666 0.69945 0.0
C372 C 0.80233 0.75742 0.70045 0.0
C373 C 0.7554 0.71276 0.19902 0.0
C374 C 0.79365 0.73383 0.2074 0.0
C375 C 0.71654 0.73489 0.19764 0.0
C376 C 0.7142 0.779 0.2047 0.0
H377 H 0.75566 0.6793 0.19216 0.0
H378 H 0.68827 0.71727 0.19008 0.0
S379 S 0.80449 0.8476 0.23251 0.0
N380 N 0.82626 0.80037 0.22615 0.0
N381 N 0.75325 0.84186 0.22353 0.0
C382 C 0.75189 0.79993 0.21487 0.0
C383 C 0.79154 0.77738 0.21621 0.0
C384 C 0.26676 0.05088 0.33213 0.0
C385 C 0.22371 0.04623 0.3226 0.0
C386 C 0.2997 0.05267 0.30853 0.0
C387 C 0.29104 0.05003 0.27434 0.0
H388 H 0.27506 0.05562 0.35792 0.0
H389 H 0.33194 0.05859 0.31723 0.0
S390 S 0.18464 0.02963 0.23661 0.0
N391 N 0.1749 0.03275 0.27674 0.0
N392 N 0.23679 0.03651 0.23246 0.0
C393 C 0.24863 0.04149 0.26462 0.0
C394 C 0.21499 0.03949 0.2887 0.0
C395 C 0.4451 0.29872 0.80276 0.0
C396 C 0.44468 0.28737 0.769 0.0
C397 C 0.44573 0.26753 0.82772 0.0
C398 C 0.44517 0.22379 0.81981 0.0
H399 H 0.4429 0.33197 0.81 0.0
H400 H 0.44361 0.27781 0.85329 0.0
S401 S 0.44894 0.17725 0.7353 0.0
N402 N 0.44799 0.22937 0.72905 0.0
N403 N 0.44848 0.17073 0.77589 0.0
C404 C 0.44767 0.21207 0.78619 0.0
C405 C 0.44765 0.24386 0.76078 0.0
C406 C 0.25901 0.46019 0.26262 0.0
C407 C 0.21604 0.45843 0.27305 0.0
C408 C 0.29255 0.46169 0.28563 0.0
C409 C 0.28453 0.46133 0.32002 0.0
H410 H 0.26704 0.45773 0.23657 0.0
H411 H 0.32502 0.46041 0.27625 0.0
S412 S 0.17757 0.46604 0.36002 0.0
N413 N 0.16722 0.46332 0.31999 0.0
N414 N 0.23023 0.46576 0.36313 0.0
C415 C 0.24171 0.46363 0.33067 0.0
C416 C 0.2075 0.46225 0.30723 0.0
C417 C 0.05501 0.21456 0.80465 0.0
C418 C 0.05442 0.22535 0.77072 0.0
C419 C 0.05438 0.24605 0.82934 0.0
C420 C 0.05319 0.28969 0.82116 0.0
H421 H 0.0582 0.18158 0.81233 0.0
H422 H 0.05744 0.23606 0.85493 0.0
S423 S 0.04333 0.33474 0.73634 0.0
N424 N 0.04677 0.28268 0.7305 0.0
N425 N 0.04535 0.34182 0.77683 0.0
C426 C 0.04884 0.30079 0.78747 0.0
C427 C 0.04948 0.26865 0.76229 0.0
C428 C 0.72085 0.96401 0.79175 0.0
C429 C 0.73102 0.95855 0.82551 0.0
C430 C 0.75196 0.95952 0.76687 0.0
C431 C 0.7944 0.94909 0.77479 0.0
H432 H 0.68809 0.96952 0.78425 0.0
H433 H 0.74199 0.96151 0.74124 0.0
S434 S 0.83952 0.93894 0.85943 0.0
N435 N 0.7881 0.94793 0.86556 0.0
N436 N 0.84636 0.93927 0.81887 0.0
C437 C 0.80581 0.94712 0.80849 0.0
C438 C 0.77421 0.952 0.83384 0.0
C439 C 0.54427 0.71858 0.28769 0.0
C440 C 0.54547 0.72694 0.322 0.0
C441 C 0.5464 0.75177 0.26438 0.0
C442 C 0.54967 0.79471 0.2744 0.0
H443 H 0.54439 0.68605 0.27858 0.0
H444 H 0.54813 0.74341 0.23837 0.0
S445 S 0.5448 0.83425 0.36111 0.0
N446 N 0.54347 0.78172 0.36468 0.0
N447 N 0.54713 0.84407 0.32096 0.0
C448 C 0.5467 0.80371 0.30855 0.0
C449 C 0.54465 0.76986 0.3323 0.0
C450 C 0.75142 0.55537 0.82397 0.0
C451 C 0.79404 0.56595 0.81614 0.0
C452 C 0.7205 0.55085 0.79905 0.0
C453 C 0.73102 0.5564 0.76532 0.0
H454 H 0.7412 0.55324 0.84958 0.0
H455 H 0.68761 0.54518 0.80649 0.0
S456 S 0.83995 0.5766 0.73157 0.0
N457 N 0.84646 0.57613 0.77214 0.0
N458 N 0.78852 0.56742 0.72537 0.0
C459 C 0.77433 0.56316 0.75706 0.0
C460 C 0.80575 0.56807 0.78246 0.0
C461 C 0.95531 0.74451 0.33027 0.0
C462 C 0.95946 0.7875 0.32053 0.0
C463 C 0.95362 0.71152 0.30684 0.0
C464 C 0.95591 0.72003 0.27259 0.0
H465 H 0.951 0.73626 0.35614 0.0
H466 H 0.9482 0.67929 0.31572 0.0
S467 S 0.97426 0.8264 0.23418 0.0
N468 N 0.9716 0.83622 0.2743 0.0
N469 N 0.96806 0.77423 0.23034 0.0
C470 C 0.96372 0.76245 0.2626 0.0
C471 C 0.96559 0.79616 0.28651 0.0
C472 C 0.49412 0.02854 0.21444 0.0
C473 C 0.49551 0.06313 0.19209 0.0
C474 C 0.52566 0.99674 0.21405 0.0
C475 C 0.55992 0.99819 0.19129 0.0
H476 H 0.4672 0.02454 0.23113 0.0
H477 H 0.5217 0.96961 0.23047 0.0
S478 S 0.5829 0.08625 0.13203 0.0
N479 N 0.53744 0.1 0.14987 0.0
N480 N 0.59651 0.04041 0.14914 0.0
C481 C 0.56363 0.03446 0.1708 0.0
C482 C 0.53153 0.06685 0.1712 0.0
C483 C 0.49431 0.53813 0.67226 0.0
C484 C 0.52665 0.55 0.69475 0.0
C485 C 0.46803 0.5025 0.67824 0.0
C486 C 0.47337 0.47739 0.70683 0.0
H487 H 0.49113 0.55455 0.64878 0.0
H488 H 0.44578 0.49275 0.65911 0.0
S489 S 0.54594 0.50073 0.77713 0.0
N490 N 0.55678 0.53838 0.74967 0.0
N491 N 0.50786 0.47102 0.76044 0.0
C492 C 0.50228 0.49153 0.73108 0.0
C493 C 0.52876 0.52802 0.7252 0.0
C494 C 0.01256 0.48385 0.21398 0.0
C495 C 0.01053 0.44885 0.19208 0.0
C496 C 0.98103 0.51567 0.21387 0.0
C497 C 0.94616 0.51385 0.19183 0.0
H498 H 0.03992 0.48811 0.2301 0.0
H499 H 0.98547 0.54309 0.22989 0.0
S500 S 0.92151 0.42476 0.13405 0.0
N501 N 0.96743 0.41128 0.15114 0.0
N502 N 0.9084 0.47092 0.15091 0.0
C503 C 0.94187 0.47722 0.17183 0.0
C504 C 0.97395 0.4448 0.17196 0.0
C505 C 0.99202 1.00386 0.73076 0.0
C506 C 0.97995 0.9717 0.70834 0.0
C507 C 0.0279 0.02968 0.72484 0.0
C508 C 0.05277 0.02476 0.69595 0.0
H509 H 0.97217 0.01088 0.7521 0.0
H510 H 0.03412 0.05568 0.74191 0.0
S511 S 0.03969 0.9394 0.63288 0.0
N512 N 0.99951 0.93174 0.65889 0.0
N513 N 0.06685 0.98066 0.64752 0.0
C514 C 0.04366 0.98982 0.67512 0.0
C515 C 0.00723 0.96317 0.68136 0.0
C516 C 0.52146 0.52033 0.37482 0.0
C517 C 0.55786 0.51728 0.39525 0.0
C518 C 0.48997 0.48797 0.37441 0.0
C519 C 0.49356 0.45121 0.39439 0.0
H520 H 0.51596 0.54897 0.36041 0.0
H521 H 0.46149 0.49303 0.3597 0.0
S522 S 0.58635 0.42409 0.4476 0.0
N523 N 0.59825 0.47174 0.43251 0.0
N524 N 0.53937 0.41125 0.43173 0.0
C525 C 0.5314 0.44629 0.41287 0.0
C526 C 0.56341 0.47918 0.41329 0.0
C527 C 0.02422 0.48232 0.86999 0.0
C528 C 0.04837 0.48718 0.89918 0.0
C529 C 0.98915 0.50854 0.86347 0.0
C530 C 0.9772 0.54105 0.88558 0.0
H531 H 0.03038 0.45617 0.85311 0.0
H532 H 0.9698 0.50166 0.84185 0.0
S533 S 0.03519 0.57281 0.96194 0.0
N534 N 0.06184 0.5312 0.94778 0.0
N535 N 0.99605 0.58085 0.93529 0.0
C536 C 1.00375 0.54927 0.913 0.0
C537 C 0.03931 0.52221 0.91986 0.0
C538 C 0.98199 0.99596 0.39737 0.0
C539 C 0.95664 0.98808 0.36918 0.0
C540 C 0.01406 0.02747 0.39741 0.0
C541 C 0.02253 0.05281 0.36926 0.0
H542 H 0.9779 0.97686 0.41955 0.0
H543 H 0.03311 0.03113 0.41962 0.0
S544 S 0.96292 0.04798 0.28981 0.0
N545 N 0.94038 0.01049 0.31289 0.0
N546 N 1.00068 0.06974 0.31297 0.0
C547 C 0.99615 0.04676 0.34133 0.0
C548 C 0.96329 0.01448 0.34129 0.0
C549 C 0.53505 0.99422 0.87131 0.0
C550 C 0.52772 0.96693 0.89852 0.0
C551 C 0.5097 0.03027 0.86608 0.0
C552 C 0.47562 0.04008 0.88748 0.0
H553 H 0.56239 0.98959 0.85518 0.0
H554 H 0.51836 0.05186 0.84614 0.0
S555 S 0.43784 0.97455 0.95852 0.0
N556 N 0.48012 0.94891 0.94433 0.0
N557 N 0.43211 0.01655 0.9342 0.0
C558 C 0.46517 0.01081 0.91273 0.0
C559 C 0.49134 0.97424 0.91833 0.0
loop_
_geom_bond_atom_site_label_1
_geom_bond_atom_site_label_2
_geom_bond_distance
_geom_bond_site_symmetry_2
_ccdc_geom_bond_type
Mg0 O7 2.141 . S
Mg0 O8 2.048 . S
Mg0 O9 2.048 . S
Mg0 O12 2.141 . S
C1 O2 1.313 . S
C1 O8 1.195 . S
O2 C1 1.313 . S
C3 O4 1.245 . S
C3 O12 1.289 . S
O4 C3 1.245 . S
C5 O6 1.245 . S
C5 O7 1.289 . S
O6 C5 1.245 . S
O7 Mg0 2.141 . S
O7 C5 1.289 . S
O8 Mg0 2.048 . S
O8 C1 1.195 . S
O9 Mg0 2.048 . S
O9 C10 1.195 . S
C10 O9 1.195 . S
C10 O11 1.313 . S
O11 C10 1.313 . S
O12 Mg0 2.141 . S
O12 C3 1.289 . S
Mg13 O20 2.141 . S
Mg13 O21 2.048 . S
Mg13 O22 2.048 . S
Mg13 O25 2.141 . S
C14 O15 1.313 . S
C14 O21 1.195 . S
O15 C14 1.313 . S
C16 O17 1.245 . S
C16 O25 1.289 . S
O17 C16 1.245 . S
C18 O19 1.245 . S
C18 O20 1.289 . S
O19 C18 1.245 . S
O20 Mg13 2.141 . S
O20 C18 1.289 . S
O21 Mg13 2.048 . S
O21 C14 1.195 . S
O22 Mg13 2.048 . S
O22 C23 1.195 . S
C23 O22 1.195 . S
C23 O24 1.313 . S
O24 C23 1.313 . S
O25 Mg13 2.141 . S
O25 C16 1.289 . S
Mg26 O33 2.141 . S
Mg26 O34 2.048 . S
Mg26 O35 2.048 . S
Mg26 O38 2.141 . S
C27 O28 1.313 . S
C27 O34 1.195 . S
O28 C27 1.313 . S
C29 O30 1.245 . S
C29 O38 1.289 . S
O30 C29 1.245 . S
C31 O32 1.245 . S
C31 O33 1.289 . S
O32 C31 1.245 . S
O33 Mg26 2.141 . S
O33 C31 1.289 . S
O34 Mg26 2.048 . S
O34 C27 1.195 . S
O35 Mg26 2.048 . S
O35 C36 1.195 . S
C36 O35 1.195 . S
C36 O37 1.313 . S
O37 C36 1.313 . S
O38 Mg26 2.141 . S
O38 C29 1.289 . S
Mg39 O46 2.141 . S
Mg39 O47 2.048 . S
Mg39 O48 2.048 . S
Mg39 O51 2.141 . S
C40 O41 1.313 . S
C40 O47 1.195 . S
O41 C40 1.313 . S
C42 O43 1.245 . S
C42 O51 1.289 . S
O43 C42 1.245 . S
C44 O45 1.245 . S
C44 O46 1.289 . S
O45 C44 1.245 . S
O46 Mg39 2.141 . S
O46 C44 1.289 . S
O47 Mg39 2.048 . S
O47 C40 1.195 . S
O48 Mg39 2.048 . S
O48 C49 1.195 . S
C49 O48 1.195 . S
C49 O50 1.313 . S
O50 C49 1.313 . S
O51 Mg39 2.141 . S
O51 C42 1.289 . S
Mg52 O59 2.141 . S
Mg52 O60 2.048 . S
Mg52 O61 2.048 . S
Mg52 O64 2.141 . S
C53 O54 1.313 . S
C53 O60 1.195 . S
O54 C53 1.313 . S
C55 O56 1.245 . S
C55 O64 1.289 . S
O56 C55 1.245 . S
C57 O58 1.245 . S
C57 O59 1.289 . S
O58 C57 1.245 . S
O59 Mg52 2.141 . S
O59 C57 1.289 . S
O60 Mg52 2.048 . S
O60 C53 1.195 . S
O61 Mg52 2.048 . S
O61 C62 1.195 . S
C62 O61 1.195 . S
C62 O63 1.313 . S
O63 C62 1.313 . S
O64 Mg52 2.141 . S
O64 C55 1.289 . S
Mg65 O72 2.141 . S
Mg65 O73 2.048 . S
Mg65 O74 2.048 . S
Mg65 O77 2.141 . S
C66 O67 1.313 . S
C66 O73 1.195 . S
O67 C66 1.313 . S
C68 O69 1.245 . S
C68 O77 1.289 . S
O69 C68 1.245 . S
C70 O71 1.245 . S
C70 O72 1.289 . S
O71 C70 1.245 . S
O72 Mg65 2.141 . S
O72 C70 1.289 . S
O73 Mg65 2.048 . S
O73 C66 1.195 . S
O74 Mg65 2.048 . S
O74 C75 1.195 . S
C75 O74 1.195 . S
C75 O76 1.313 . S
O76 C75 1.313 . S
O77 Mg65 2.141 . S
O77 C68 1.289 . S
Mg78 O85 2.141 . S
Mg78 O86 2.048 . S
Mg78 O87 2.048 . S
Mg78 O90 2.141 . S
C79 O80 1.313 . S
C79 O86 1.195 . S
O80 C79 1.313 . S
C81 O82 1.245 . S
C81 O90 1.289 . S
O82 C81 1.245 . S
C83 O84 1.245 . S
C83 O85 1.289 . S
O84 C83 1.245 . S
O85 Mg78 2.141 . S
O85 C83 1.289 . S
O86 Mg78 2.048 . S
O86 C79 1.195 . S
O87 Mg78 2.048 . S
O87 C88 1.195 . S
C88 O87 1.195 . S
C88 O89 1.313 . S
O89 C88 1.313 . S
O90 Mg78 2.141 . S
O90 C81 1.289 . S
Mg91 O98 2.141 . S
Mg91 O99 2.048 . S
Mg91 O100 2.048 . S
Mg91 O103 2.141 . S
C92 O93 1.313 . S
C92 O99 1.195 . S
O93 C92 1.313 . S
C94 O95 1.245 . S
C94 O103 1.289 . S
O95 C94 1.245 . S
C96 O97 1.245 . S
C96 O98 1.289 . S
O97 C96 1.245 . S
O98 Mg91 2.141 . S
O98 C96 1.289 . S
O99 Mg91 2.048 . S
O99 C92 1.195 . S
O100 Mg91 2.048 . S
O100 C101 1.195 . S
C101 O100 1.195 . S
C101 O102 1.313 . S
O102 C101 1.313 . S
O103 Mg91 2.141 . S
O103 C94 1.289 . S
Mg104 O111 2.141 . S
Mg104 O112 2.048 . S
Mg104 O113 2.048 . S
Mg104 O116 2.141 . S
C105 O106 1.313 . S
C105 O112 1.195 . S
O106 C105 1.313 . S
C107 O108 1.245 . S
C107 O116 1.289 . S
O108 C107 1.245 . S
C109 O110 1.245 . S
C109 O111 1.289 1_545 S
O110 C109 1.245 . S
O111 Mg104 2.141 . S
O111 C109 1.289 1_565 S
O112 Mg104 2.048 . S
O112 C105 1.195 . S
O113 Mg104 2.048 . S
O113 C114 1.195 . S
C114 O113 1.195 . S
C114 O115 1.313 . S
O115 C114 1.313 . S
O116 Mg104 2.141 . S
O116 C107 1.289 . S
Mg117 O124 2.141 . S
Mg117 O125 2.048 . S
Mg117 O126 2.048 . S
Mg117 O129 2.141 . S
C118 O119 1.313 . S
C118 O125 1.195 . S
O119 C118 1.313 . S
C120 O121 1.245 . S
C120 O129 1.289 . S
O121 C120 1.245 . S
C122 O123 1.245 . S
C122 O124 1.289 . S
O123 C122 1.245 . S
O124 Mg117 2.141 . S
O124 C122 1.289 . S
O125 Mg117 2.048 . S
O125 C118 1.195 . S
O126 Mg117 2.048 . S
O126 C127 1.195 . S
C127 O126 1.195 . S
C127 O128 1.313 . S
O128 C127 1.313 . S
O129 Mg117 2.141 . S
O129 C120 1.289 . S
Mg130 O137 2.141 . S
Mg130 O138 2.048 . S
Mg130 O139 2.048 . S
Mg130 O142 2.141 . S
C131 O132 1.313 . S
C131 O138 1.195 . S
O132 C131 1.313 . S
C133 O134 1.245 . S
C133 O142 1.289 . S
O134 C133 1.245 . S
C135 O136 1.245 . S
C135 O137 1.289 . S
O136 C135 1.245 . S
O137 Mg130 2.141 . S
O137 C135 1.289 . S
O138 Mg130 2.048 . S
O138 C131 1.195 . S
O139 Mg130 2.048 . S
O139 C140 1.195 . S
C140 O139 1.195 . S
C140 O141 1.313 . S
O141 C140 1.313 . S
O142 Mg130 2.141 . S
O142 C133 1.289 . S
Mg143 O150 2.141 . S
Mg143 O151 2.048 . S
Mg143 O152 2.048 . S
Mg143 O155 2.141 . S
C144 O145 1.313 . S
C144 O151 1.195 . S
O145 C144 1.313 . S
C146 O147 1.245 . S
C146 O155 1.289 . S
O147 C146 1.245 . S
C148 O149 1.245 . S
C148 O150 1.289 . S
O149 C148 1.245 . S
O150 Mg143 2.141 . S
O150 C148 1.289 . S
O151 Mg143 2.048 . S
O151 C144 1.195 . S
O152 Mg143 2.048 . S
O152 C153 1.195 . S
C153 O152 1.195 . S
C153 O154 1.313 . S
O154 C153 1.313 . S
O155 Mg143 2.141 . S
O155 C146 1.289 . S
Mg156 O163 2.141 . S
Mg156 O164 2.048 . S
Mg156 O165 2.048 . S
Mg156 O168 2.141 . S
C157 O158 1.313 . S
C157 O164 1.195 . S
O158 C157 1.313 . S
C159 O160 1.245 . S
C159 O168 1.289 . S
O160 C159 1.245 . S
C161 O162 1.245 . S
C161 O163 1.289 . S
O162 C161 1.245 . S
O163 Mg156 2.141 . S
O163 C161 1.289 . S
O164 Mg156 2.048 . S
O164 C157 1.195 . S
O165 Mg156 2.048 . S
O165 C166 1.195 . S
C166 O165 1.195 . S
C166 O167 1.313 . S
O167 C166 1.313 . S
O168 Mg156 2.141 . S
O168 C159 1.289 . S
Mg169 O176 2.141 . S
Mg169 O177 2.048 . S
Mg169 O178 2.048 . S
Mg169 O181 2.141 . S
C170 O171 1.313 . S
C170 O177 1.195 . S
O171 C170 1.313 . S
C172 O173 1.245 . S
C172 O181 1.289 . S
O173 C172 1.245 . S
C174 O175 1.245 . S
C174 O176 1.289 . S
O175 C174 1.245 . S
O176 Mg169 2.141 . S
O176 C174 1.289 . S
O177 Mg169 2.048 . S
O177 C170 1.195 . S
O178 Mg169 2.048 . S
O178 C179 1.195 . S
C179 O178 1.195 . S
C179 O180 1.313 . S
O180 C179 1.313 . S
O181 Mg169 2.141 . S
O181 C172 1.289 . S
Mg182 O189 2.141 . S
Mg182 O190 2.048 . S
Mg182 O191 2.048 . S
Mg182 O194 2.141 . S
C183 O184 1.313 . S
C183 O190 1.195 . S
O184 C183 1.313 . S
C185 O186 1.245 . S
C185 O194 1.289 . S
O186 C185 1.245 . S
C187 O188 1.245 . S
C187 O189 1.289 1_545 S
O188 C187 1.245 . S
O189 Mg182 2.141 . S
O189 C187 1.289 1_565 S
O190 Mg182 2.048 . S
O190 C183 1.195 . S
O191 Mg182 2.048 . S
O191 C192 1.195 . S
C192 O191 1.195 . S
C192 O193 1.313 . S
O193 C192 1.313 . S
O194 Mg182 2.141 . S
O194 C185 1.289 . S
Mg195 O202 2.141 . S
Mg195 O203 2.048 . S
Mg195 O204 2.048 . S
Mg195 O207 2.141 . S
C196 O197 1.313 . S
C196 O203 1.195 . S
O197 C196 1.313 . S
C198 O199 1.245 . S
C198 O207 1.289 . S
O199 C198 1.245 . S
C200 O201 1.245 . S
C200 O202 1.289 . S
O201 C200 1.245 . S
O202 Mg195 2.141 . S
O202 C200 1.289 . S
O203 Mg195 2.048 . S
O203 C196 1.195 . S
O204 Mg195 2.048 . S
O204 C205 1.195 . S
C205 O204 1.195 . S
C205 O206 1.313 . S
O206 C205 1.313 . S
O207 Mg195 2.141 . S
O207 C198 1.289 . S
C208 C209 1.369 . S
C208 C210 1.419 1_556 S
C208 H212 0.930 . S
C209 C208 1.369 . S
C209 C218 1.429 . S
C210 C208 1.419 1_554 S
C210 C211 1.363 . S
C210 H213 0.929 . S
C211 C210 1.363 . S
C211 C217 1.428 . S
H212 C208 0.930 . S
H213 C210 0.929 . S
S214 N215 1.613 1_554 S
S214 N216 1.610 . S
N215 S214 1.613 1_556 S
N215 C218 1.350 . S
N216 S214 1.610 . S
N216 C217 1.351 . S
C217 C211 1.428 . S
C217 N216 1.351 . S
C217 C218 1.434 1_554 S
C218 C209 1.429 . S
C218 N215 1.350 . S
C218 C217 1.434 1_556 S
C219 C220 1.369 . S
C219 C221 1.419 . S
C219 H223 0.930 . S
C220 C219 1.369 . S
C220 C229 1.429 . S
C221 C219 1.419 . S
C221 C222 1.363 . S
C221 H224 0.929 . S
C222 C221 1.363 . S
C222 C228 1.428 . S
H223 C219 0.930 . S
H224 C221 0.929 . S
S225 N226 1.613 . S
S225 N227 1.610 . S
N226 S225 1.613 . S
N226 C229 1.350 . S
N227 S225 1.610 . S
N227 C228 1.351 . S
C228 C222 1.428 . S
C228 N227 1.351 . S
C228 C229 1.434 . S
C229 C220 1.429 . S
C229 N226 1.350 . S
C229 C228 1.434 . S
C230 C231 1.369 . S
C230 C232 1.419 1_556 S
C230 H234 0.930 . S
C231 C230 1.369 . S
C231 C240 1.429 . S
C232 C230 1.419 1_554 S
C232 C233 1.363 . S
C232 H235 0.929 . S
C233 C232 1.363 . S
C233 C239 1.428 . S
H234 C230 0.930 . S
H235 C232 0.929 . S
S236 N237 1.613 1_554 S
S236 N238 1.610 . S
N237 S236 1.613 1_556 S
N237 C240 1.350 . S
N238 S236 1.610 . S
N238 C239 1.351 . S
C239 C233 1.428 . S
C239 N238 1.351 . S
C239 C240 1.434 1_554 S
C240 C231 1.429 . S
C240 N237 1.350 . S
C240 C239 1.434 1_556 S
C241 C242 1.369 . S
C241 C243 1.419 . S
C241 H245 0.930 . S
C242 C241 1.369 . S
C242 C251 1.429 . S
C243 C241 1.419 . S
C243 C244 1.363 . S
C243 H246 0.929 . S
C244 C243 1.363 . S
C244 C250 1.428 . S
H245 C241 0.930 . S
H246 C243 0.929 . S
S247 N248 1.613 . S
S247 N249 1.610 . S
N248 S247 1.613 . S
N248 C251 1.350 . S
N249 S247 1.610 . S
N249 C250 1.351 . S
C250 C244 1.428 . S
C250 N249 1.351 . S
C250 C251 1.434 . S
C251 C242 1.429 . S
C251 N248 1.350 . S
C251 C250 1.434 . S
C252 C253 1.369 . S
C252 C254 1.422 . S
C252 H256 0.930 . S
C253 C252 1.369 . S
C253 C262 1.429 1_554 S
C254 C252 1.422 . S
C254 C255 1.359 1_554 S
C254 H257 0.929 . S
C255 C254 1.359 1_556 S
C255 C261 1.428 . S
H256 C252 0.930 . S
H257 C254 0.929 . S
S258 N259 1.613 . S
S258 N260 1.610 . S
N259 S258 1.613 . S
N259 C262 1.350 . S
N260 S258 1.610 . S
N260 C261 1.351 . S
C261 C255 1.428 . S
C261 N260 1.351 . S
C261 C262 1.434 . S
C262 C253 1.429 1_556 S
C262 N259 1.350 . S
C262 C261 1.434 . S
C263 C264 1.369 . S
C263 C265 1.419 . S
C263 H267 0.930 . S
C264 C263 1.369 . S
C264 C273 1.429 . S
C265 C263 1.419 . S
C265 C266 1.363 . S
C265 H268 0.929 . S
C266 C265 1.363 . S
C266 C272 1.428 . S
H267 C263 0.930 . S
H268 C265 0.929 . S
S269 N270 1.613 . S
S269 N271 1.610 . S
N270 S269 1.613 . S
N270 C273 1.350 . S
N271 S269 1.610 . S
N271 C272 1.351 . S
C272 C266 1.428 . S
C272 N271 1.351 . S
C272 C273 1.434 . S
C273 C264 1.429 . S
C273 N270 1.350 . S
C273 C272 1.434 . S
C274 C275 1.369 . S
C274 C276 1.419 1_556 S
C274 H278 0.930 . S
C275 C274 1.369 . S
C275 C284 1.436 . S
C276 C274 1.419 1_554 S
C276 C277 1.363 . S
C276 H279 0.929 . S
C277 C276 1.363 . S
C277 C283 1.428 . S
H278 C274 0.930 . S
H279 C276 0.929 . S
S280 N281 1.613 . S
S280 N282 1.610 . S
N281 S280 1.613 . S
N281 C284 1.349 1_554 S
N282 S280 1.610 . S
N282 C283 1.351 . S
C283 C277 1.428 . S
C283 N282 1.351 . S
C283 C284 1.427 1_554 S
C284 C275 1.436 . S
C284 N281 1.349 1_556 S
C284 C283 1.427 1_556 S
C285 C286 1.369 . S
C285 C287 1.419 . S
C285 H289 0.930 . S
C286 C285 1.369 . S
C286 C295 1.429 . S
C287 C285 1.419 . S
C287 C288 1.363 . S
C287 H290 0.929 . S
C288 C287 1.363 . S
C288 C294 1.428 . S
H289 C285 0.930 . S
H290 C287 0.929 . S
S291 N292 1.613 . S
S291 N293 1.610 . S
N292 S291 1.613 . S
N292 C295 1.350 . S
N293 S291 1.610 . S
N293 C294 1.351 . S
C294 C288 1.428 . S
C294 N293 1.351 . S
C294 C295 1.434 . S
C295 C286 1.429 . S
C295 N292 1.350 . S
C295 C294 1.434 . S
C296 C297 1.369 . S
C296 C298 1.419 . S
C296 H300 0.930 . S
C297 C296 1.369 . S
C297 C306 1.429 . S
C298 C296 1.419 . S
C298 C299 1.363 . S
C298 H301 0.929 . S
C299 C298 1.363 . S
C299 C305 1.428 . S
H300 C296 0.930 . S
H301 C298 0.929 . S
S302 N303 1.613 . S
S302 N304 1.610 . S
N303 S302 1.613 . S
N303 C306 1.350 . S
N304 S302 1.610 . S
N304 C305 1.351 . S
C305 C299 1.428 . S
C305 N304 1.351 . S
C305 C306 1.434 . S
C306 C297 1.429 . S
C306 N303 1.350 . S
C306 C305 1.434 . S
C307 C308 1.369 . S
C307 C309 1.419 . S
C307 H311 0.930 . S
C308 C307 1.369 . S
C308 C317 1.429 . S
C309 C307 1.419 . S
C309 C310 1.363 . S
C309 H312 0.929 . S
C310 C309 1.363 . S
C310 C316 1.428 . S
H311 C307 0.930 . S
H312 C309 0.929 . S
S313 N314 1.613 . S
S313 N315 1.610 . S
N314 S313 1.613 . S
N314 C317 1.350 . S
N315 S313 1.610 . S
N315 C316 1.351 . S
C316 C310 1.428 . S
C316 N315 1.351 . S
C316 C317 1.434 . S
C317 C308 1.429 . S
C317 N314 1.350 . S
C317 C316 1.434 . S
C318 C319 1.369 . S
C318 C320 1.419 . S
C318 H322 0.930 . S
C319 C318 1.369 . S
C319 C328 1.429 . S
C320 C318 1.419 . S
C320 C321 1.363 . S
C320 H323 0.929 . S
C321 C320 1.363 . S
C321 C327 1.428 . S
H322 C318 0.930 . S
H323 C320 0.929 . S
S324 N325 1.613 . S
S324 N326 1.610 . S
N325 S324 1.613 . S
N325 C328 1.350 . S
N326 S324 1.610 . S
N326 C327 1.351 . S
C327 C321 1.428 . S
C327 N326 1.351 . S
C327 C328 1.434 . S
C328 C319 1.429 . S
C328 N325 1.350 . S
C328 C327 1.434 . S
C329 C330 1.369 . S
C329 C331 1.419 . S
C329 H333 0.930 . S
C330 C329 1.369 . S
C330 C339 1.429 . S
C331 C329 1.419 . S
C331 C332 1.363 . S
C331 H334 0.929 . S
C332 C331 1.363 . S
C332 C338 1.428 . S
H333 C329 0.930 . S
H334 C331 0.929 . S
S335 N336 1.613 . S
S335 N337 1.610 . S
N336 S335 1.613 . S
N336 C339 1.350 . S
N337 S335 1.610 . S
N337 C338 1.351 . S
C338 C332 1.428 . S
C338 N337 1.351 . S
C338 C339 1.434 . S
C339 C330 1.429 . S
C339 N336 1.350 . S
C339 C338 1.434 . S
C340 C341 1.369 . S
C340 C342 1.419 . S
C340 H344 0.930 . S
C341 C340 1.369 . S
C341 C350 1.429 . S
C342 C340 1.419 . S
C342 C343 1.363 . S
C342 H345 0.929 . S
C343 C342 1.363 . S
C343 C349 1.428 . S
H344 C340 0.930 . S
H345 C342 0.929 . S
S346 N347 1.613 . S
S346 N348 1.610 . S
N347 S346 1.613 . S
N347 C350 1.350 . S
N348 S346 1.610 . S
N348 C349 1.351 . S
C349 C343 1.428 . S
C349 N348 1.351 . S
C349 C350 1.434 . S
C350 C341 1.429 . S
C350 N347 1.350 . S
C350 C349 1.434 . S
C351 C352 1.369 . S
C351 C353 1.419 . S
C351 H355 0.930 . S
C352 C351 1.369 . S
C352 C361 1.429 . S
C353 C351 1.419 . S
C353 C354 1.363 . S
C353 H356 0.929 . S
C354 C353 1.363 . S
C354 C360 1.428 . S
H355 C351 0.930 . S
H356 C353 0.929 . S
S357 N358 1.613 . S
S357 N359 1.610 . S
N358 S357 1.613 . S
N358 C361 1.350 . S
N359 S357 1.610 . S
N359 C360 1.351 . S
C360 C354 1.428 . S
C360 N359 1.351 . S
C360 C361 1.434 . S
C361 C352 1.429 . S
C361 N358 1.350 . S
C361 C360 1.434 . S
C362 C363 1.369 . S
C362 C364 1.419 . S
C362 H366 0.930 . S
C363 C362 1.369 . S
C363 C372 1.429 . S
C364 C362 1.419 . S
C364 C365 1.363 . S
C364 H367 0.929 . S
C365 C364 1.363 . S
C365 C371 1.428 . S
H366 C362 0.930 . S
H367 C364 0.929 . S
S368 N369 1.613 . S
S368 N370 1.610 . S
N369 S368 1.613 . S
N369 C372 1.350 . S
N370 S368 1.610 . S
N370 C371 1.351 . S
C371 C365 1.428 . S
C371 N370 1.351 . S
C371 C372 1.434 . S
C372 C363 1.429 . S
C372 N369 1.350 . S
C372 C371 1.434 . S
C373 C374 1.369 . S
C373 C375 1.419 . S
C373 H377 0.930 . S
C374 C373 1.369 . S
C374 C383 1.429 . S
C375 C373 1.419 . S
C375 C376 1.363 . S
C375 H378 0.929 . S
C376 C375 1.363 . S
C376 C382 1.428 . S
H377 C373 0.930 . S
H378 C375 0.929 . S
S379 N380 1.613 . S
S379 N381 1.610 . S
N380 S379 1.613 . S
N380 C383 1.350 . S
N381 S379 1.610 . S
N381 C382 1.351 . S
C382 C376 1.428 . S
C382 N381 1.351 . S
C382 C383 1.434 . S
C383 C374 1.429 . S
C383 N380 1.350 . S
C383 C382 1.434 . S
C384 C385 1.369 . S
C384 C386 1.419 . S
C384 H388 0.930 . S
C385 C384 1.369 . S
C385 C394 1.429 . S
C386 C384 1.419 . S
C386 C387 1.363 . S
C386 H389 0.954 . S
C387 C386 1.363 . S
C387 C393 1.428 . S
H388 C384 0.930 . S
H389 C386 0.954 . S
S390 N391 1.613 . S
S390 N392 1.610 . S
N391 S390 1.613 . S
N391 C394 1.350 . S
N392 S390 1.610 . S
N392 C393 1.351 . S
C393 C387 1.428 . S
C393 N392 1.351 . S
C393 C394 1.434 . S
C394 C385 1.429 . S
C394 N391 1.350 . S
C394 C393 1.434 . S
C395 C396 1.369 . S
C395 C397 1.419 . S
C395 H399 0.930 . S
C396 C395 1.369 . S
C396 C405 1.429 . S
C397 C395 1.419 . S
C397 C398 1.363 . S
C397 H400 0.929 . S
C398 C397 1.363 . S
C398 C404 1.428 . S
H399 C395 0.930 . S
H400 C397 0.929 . S
S401 N402 1.613 . S
S401 N403 1.610 . S
N402 S401 1.613 . S
N402 C405 1.350 . S
N403 S401 1.610 . S
N403 C404 1.351 . S
C404 C398 1.428 . S
C404 N403 1.351 . S
C404 C405 1.434 . S
C405 C396 1.429 . S
C405 N402 1.350 . S
C405 C404 1.434 . S
C406 C407 1.369 . S
C406 C408 1.419 . S
C406 H410 0.930 . S
C407 C406 1.369 . S
C407 C416 1.429 . S
C408 C406 1.419 . S
C408 C409 1.363 . S
C408 H411 0.929 . S
C409 C408 1.363 . S
C409 C415 1.428 . S
H410 C406 0.930 . S
H411 C408 0.929 . S
S412 N413 1.613 . S
S412 N414 1.610 . S
N413 S412 1.613 . S
N413 C416 1.350 . S
N414 S412 1.610 . S
N414 C415 1.351 . S
C415 C409 1.428 . S
C415 N414 1.351 . S
C415 C416 1.434 . S
C416 C407 1.429 . S
C416 N413 1.350 . S
C416 C415 1.434 . S
C417 C418 1.369 . S
C417 C419 1.419 . S
C417 H421 0.930 . S
C418 C417 1.369 . S
C418 C427 1.429 . S
C419 C417 1.419 . S
C419 C420 1.363 . S
C419 H422 0.929 . S
C420 C419 1.363 . S
C420 C426 1.428 . S
H421 C417 0.930 . S
H422 C419 0.929 . S
S423 N424 1.613 . S
S423 N425 1.610 . S
N424 S423 1.613 . S
N424 C427 1.350 1_655 S
N425 S423 1.610 . S
N425 C426 1.351 1_655 S
C426 C420 1.428 . S
C426 N425 1.351 1_455 S
C426 C427 1.434 . S
C427 C418 1.429 . S
C427 N424 1.350 1_455 S
C427 C426 1.434 . S
C428 C429 1.369 . S
C428 C430 1.419 . S
C428 H432 0.930 . S
C429 C428 1.369 . S
C429 C438 1.429 . S
C430 C428 1.419 . S
C430 C431 1.363 . S
C430 H433 0.929 . S
C431 C430 1.363 . S
C431 C437 1.428 . S
H432 C428 0.930 . S
H433 C430 0.929 . S
S434 N435 1.613 . S
S434 N436 1.610 . S
N435 S434 1.613 . S
N435 C438 1.350 1_545 S
N436 S434 1.610 . S
N436 C437 1.351 1_545 S
C437 C431 1.428 . S
C437 N436 1.351 1_565 S
C437 C438 1.434 . S
C438 C429 1.429 . S
C438 N435 1.350 1_565 S
C438 C437 1.434 . S
C439 C440 1.369 . S
C439 C441 1.419 . S
C439 H443 0.930 . S
C440 C439 1.369 . S
C440 C449 1.429 . S
C441 C439 1.419 . S
C441 C442 1.363 . S
C441 H444 0.929 . S
C442 C441 1.363 . S
C442 C448 1.428 . S
H443 C439 0.930 . S
H444 C441 0.929 . S
S445 N446 1.613 . S
S445 N447 1.610 . S
N446 S445 1.613 . S
N446 C449 1.350 . S
N447 S445 1.610 . S
N447 C448 1.351 . S
C448 C442 1.428 . S
C448 N447 1.351 . S
C448 C449 1.434 . S
C449 C440 1.429 . S
C449 N446 1.350 . S
C449 C448 1.434 . S
C450 C451 1.369 . S
C450 C452 1.419 . S
C450 H454 0.930 . S
C451 C450 1.369 . S
C451 C460 1.429 . S
C452 C450 1.419 . S
C452 C453 1.363 . S
C452 H455 0.929 . S
C453 C452 1.363 . S
C453 C459 1.428 . S
H454 C450 0.930 . S
H455 C452 0.929 . S
S456 N457 1.613 . S
S456 N458 1.610 . S
N457 S456 1.613 . S
N457 C460 1.350 . S
N458 S456 1.610 . S
N458 C459 1.351 . S
C459 C453 1.428 . S
C459 N458 1.351 . S
C459 C460 1.434 . S
C460 C451 1.429 . S
C460 N457 1.350 . S
C460 C459 1.434 . S
C461 C462 1.369 . S
C461 C463 1.419 . S
C461 H465 0.930 . S
C462 C461 1.369 . S
C462 C471 1.429 . S
C463 C461 1.419 . S
C463 C464 1.363 . S
C463 H466 0.929 . S
C464 C463 1.363 . S
C464 C470 1.428 . S
H465 C461 0.930 . S
H466 C463 0.929 . S
S467 N468 1.613 1_455 S
S467 N469 1.610 1_455 S
N468 S467 1.613 1_655 S
N468 C471 1.350 . S
N469 S467 1.610 1_655 S
N469 C470 1.351 . S
C470 C464 1.428 . S
C470 N469 1.351 . S
C470 C471 1.434 . S
C471 C462 1.429 . S
C471 N468 1.350 . S
C471 C470 1.434 . S
C472 C473 1.369 . S
C472 C474 1.419 . S
C472 H476 0.930 . S
C473 C472 1.369 . S
C473 C482 1.429 . S
C474 C472 1.419 . S
C474 C475 1.363 . S
C474 H477 0.929 . S
C475 C474 1.363 . S
C475 C481 1.428 . S
H476 C472 0.930 . S
H477 C474 0.929 . S
S478 N479 1.613 . S
S478 N480 1.610 1_545 S
N479 S478 1.613 . S
N479 C482 1.350 1_545 S
N480 S478 1.610 1_565 S
N480 C481 1.351 . S
C481 C475 1.428 . S
C481 N480 1.351 . S
C481 C482 1.434 . S
C482 C473 1.429 . S
C482 N479 1.350 1_565 S
C482 C481 1.434 . S
C483 C484 1.369 . S
C483 C485 1.419 . S
C483 H487 0.930 . S
C484 C483 1.369 . S
C484 C493 1.429 . S
C485 C483 1.419 . S
C485 C486 1.363 . S
C485 H488 0.929 . S
C486 C485 1.363 . S
C486 C492 1.428 . S
H487 C483 0.930 . S
H488 C485 0.929 . S
S489 N490 1.613 . S
S489 N491 1.610 . S
N490 S489 1.613 . S
N490 C493 1.350 . S
N491 S489 1.610 . S
N491 C492 1.351 . S
C492 C486 1.428 . S
C492 N491 1.351 . S
C492 C493 1.434 . S
C493 C484 1.429 . S
C493 N490 1.350 . S
C493 C492 1.434 . S
C494 C495 1.369 . S
C494 C496 1.419 . S
C494 H498 0.930 . S
C495 C494 1.369 . S
C495 C504 1.429 . S
C496 C494 1.419 . S
C496 C497 1.363 . S
C496 H499 0.929 . S
C497 C496 1.363 . S
C497 C503 1.428 . S
H498 C494 0.930 . S
H499 C496 0.929 . S
S500 N501 1.604 1_655 S
S500 N502 1.611 . S
N501 S500 1.604 1_455 S
N501 C504 1.350 . S
N502 S500 1.611 . S
N502 C503 1.351 1_655 S
C503 C497 1.428 . S
C503 N502 1.351 1_455 S
C503 C504 1.434 . S
C504 C495 1.429 . S
C504 N501 1.350 . S
C504 C503 1.434 . S
C505 C506 1.369 . S
C505 C507 1.419 . S
C505 H509 0.930 . S
C506 C505 1.369 . S
C506 C515 1.429 . S
C507 C505 1.419 . S
C507 C508 1.363 . S
C507 H510 0.929 . S
C508 C507 1.363 . S
C508 C514 1.428 . S
H509 C505 0.930 . S
H510 C507 0.929 . S
S511 N512 1.613 1_545 S
S511 N513 1.610 1_655 S
N512 S511 1.613 1_565 S
N512 C515 1.350 1_565 S
N513 S511 1.610 1_455 S
N513 C514 1.351 1_455 S
C514 C508 1.428 . S
C514 N513 1.351 1_655 S
C514 C515 1.434 . S
C515 C506 1.429 . S
C515 N512 1.350 1_545 S
C515 C514 1.434 . S
C516 C517 1.369 . S
C516 C518 1.419 . S
C516 H520 0.930 . S
C517 C516 1.369 . S
C517 C526 1.429 . S
C518 C516 1.419 . S
C518 C519 1.363 . S
C518 H521 0.929 . S
C519 C518 1.363 . S
C519 C525 1.428 . S
H520 C516 0.930 . S
H521 C518 0.929 . S
S522 N523 1.613 . S
S522 N524 1.610 . S
N523 S522 1.613 . S
N523 C526 1.350 . S
N524 S522 1.610 . S
N524 C525 1.351 . S
C525 C519 1.428 . S
C525 N524 1.351 . S
C525 C526 1.434 . S
C526 C517 1.429 . S
C526 N523 1.350 . S
C526 C525 1.434 . S
C527 C528 1.369 . S
C527 C529 1.419 . S
C527 H531 0.930 . S
C528 C527 1.369 . S
C528 C537 1.429 . S
C529 C527 1.419 . S
C529 C530 1.363 . S
C529 H532 0.929 . S
C530 C529 1.363 . S
C530 C536 1.428 . S
H531 C527 0.930 . S
H532 C529 0.929 . S
S533 N534 1.613 . S
S533 N535 1.610 1_455 S
N534 S533 1.613 . S
N534 C537 1.350 1_455 S
N535 S533 1.610 1_655 S
N535 C536 1.351 . S
C536 C530 1.428 . S
C536 N535 1.351 . S
C536 C537 1.434 . S
C537 C528 1.429 . S
C537 N534 1.350 1_655 S
C537 C536 1.434 . S
C538 C539 1.369 . S
C538 C540 1.419 . S
C538 H542 0.930 . S
C539 C538 1.369 . S
C539 C548 1.429 . S
C540 C538 1.419 . S
C540 C541 1.363 . S
C540 H543 0.929 . S
C541 C540 1.363 . S
C541 C547 1.428 . S
H542 C538 0.930 . S
H543 C540 0.929 . S
S544 N545 1.613 . S
S544 N546 1.610 . S
N545 S544 1.613 . S
N545 C548 1.350 . S
N546 S544 1.610 . S
N546 C547 1.351 . S
C547 C541 1.428 . S
C547 N546 1.351 . S
C547 C548 1.434 . S
C548 C539 1.429 . S
C548 N545 1.350 . S
C548 C547 1.434 . S
C549 C550 1.369 . S
C549 C551 1.419 . S
C549 H553 0.930 . S
C550 C549 1.369 . S
C550 C559 1.429 . S
C551 C549 1.419 . S
C551 C552 1.363 . S
C551 H554 0.929 . S
C552 C551 1.363 . S
C552 C558 1.428 . S
H553 C549 0.930 . S
H554 C551 0.929 . S
S555 N556 1.613 . S
S555 N557 1.610 . S
N556 S555 1.613 . S
N556 C559 1.350 . S
N557 S555 1.610 . S
N557 C558 1.351 . S
C558 C552 1.428 . S
C558 N557 1.351 . S
C558 C559 1.434 . S
C559 C550 1.429 . S
C559 N556 1.350 . S
C559 C558 1.434 . S
C209 C92 1.566 . S
C211 C1 1.562 . S
C220 C53 1.563 . S
C222 C14 1.564 . S
C231 C66 1.567 . S
C233 C27 1.562 . S
C242 C40 1.566 . S
C244 C79 1.562 . S
C253 C205 1.568 . S
C255 C105 1.596 . S
C264 C157 1.598 . S
C266 C127 1.565 . S
C275 C131 1.597 . S
C277 C179 1.562 . S
C286 C153 1.566 . S
C288 C183 1.595 . S
C297 C36 1.542 . S
C299 C10 1.549 . S
C308 C23 1.546 . S
C310 C49 1.546 . S
C319 C62 1.543 . S
C321 C88 1.548 . S
C330 C101 1.542 . S
C332 C75 1.548 . S
C341 C114 1.622 . S
C343 C140 1.621 . S
C352 C118 1.548 . S
C354 C144 1.545 . S
C363 C192 1.619 . S
C365 C166 1.621 . S
C374 C170 1.540 . S
C376 C196 1.550 . S
C385 C81 1.557 . S
C387 C3 1.559 . S
C396 C16 1.562 . S
C398 C94 1.560 . S
C407 C29 1.561 . S
C409 C55 1.561 . S
C418 C42 1.562 . S
C420 C68 1.561 . S
C429 C107 1.573 . S
C431 C185 1.573 . S
C440 C122 1.562 . S
C442 C200 1.561 . S
C451 C133 1.572 . S
C453 C159 1.573 . S
C462 C148 1.558 . S
C464 C174 1.561 . S
C473 C5 1.608 1_565 S
C475 C198 1.609 . S
C484 C161 1.652 . S
C486 C18 1.611 . S
C495 C31 1.609 . S
C497 C172 1.609 1_455 S
C506 C187 1.652 . S
C508 C44 1.609 1_655 S
C517 C120 1.608 . S
C519 C57 1.609 . S
C528 C70 1.608 1_655 S
C530 C135 1.652 . S
C539 C146 1.609 1_455 S
C541 C83 1.609 1_565 S
C550 C109 1.651 . S
C552 C96 1.612 . S
