# Generated by pormake.
# Topology crs, (6)-cn, num edge types: 1
# Building blocks:
#     Node 0, Type 0, BuildingBlock: CUWYAW_clean_sbu_0, # of connection points: 6
#     Node 1, Type 0, BuildingBlock: CUWYAW_clean_sbu_0, # of connection points: 6
#     Node 2, Type 0, BuildingBlock: CUWYAW_clean_sbu_0, # of connection points: 6
#     Node 3, Type 0, BuildingBlock: CUWYAW_clean_sbu_0, # of connection points: 6
#     Node 4, Type 0, BuildingBlock: CUWYAW_clean_sbu_0, # of connection points: 6
#     Node 5, Type 0, BuildingBlock: CUWYAW_clean_sbu_0, # of connection points: 6
#     Node 6, Type 0, BuildingBlock: CUWYAW_clean_sbu_0, # of connection points: 6
#     Node 7, Type 0, BuildingBlock: CUWYAW_clean_sbu_0, # of connection points: 6
#     Node 8, Type 0, BuildingBlock: CUWYAW_clean_sbu_0, # of connection points: 6
#     Node 9, Type 0, BuildingBlock: CUWYAW_clean_sbu_0, # of connection points: 6
#     Node 10, Type 0, BuildingBlock: CUWYAW_clean_sbu_0, # of connection points: 6
#     Node 11, Type 0, BuildingBlock: CUWYAW_clean_sbu_0, # of connection points: 6
#     Node 12, Type 0, BuildingBlock: CUWYAW_clean_sbu_0, # of connection points: 6
#     Node 13, Type 0, BuildingBlock: CUWYAW_clean_sbu_0, # of connection points: 6
#     Node 14, Type 0, BuildingBlock: CUWYAW_clean_sbu_0, # of connection points: 6
#     Node 15, Type 0, BuildingBlock: CUWYAW_clean_sbu_0, # of connection points: 6
#     Edge 16, Type (0, 0), BuildingBlock: ZUJKAS_clean_linker_0, # of connection points: 2
#     Edge 17, Type (0, 0), BuildingBlock: ZUJKAS_clean_linker_0, # of connection points: 2
#     Edge 18, Type (0, 0), BuildingBlock: ZUJKAS_clean_linker_0, # of connection points: 2
#     Edge 19, Type (0, 0), BuildingBlock: ZUJKAS_clean_linker_0, # of connection points: 2
#     Edge 20, Type (0, 0), BuildingBlock: ZUJKAS_clean_linker_0, # of connection points: 2
#     Edge 21, Type (0, 0), BuildingBlock: ZUJKAS_clean_linker_0, # of connection points: 2
#     Edge 22, Type (0, 0), BuildingBlock: ZUJKAS_clean_linker_0, # of connection points: 2
#     Edge 23, Type (0, 0), BuildingBlock: ZUJKAS_clean_linker_0, # of connection points: 2
#     Edge 24, Type (0, 0), BuildingBlock: ZUJKAS_clean_linker_0, # of connection points: 2
#     Edge 25, Type (0, 0), BuildingBlock: ZUJKAS_clean_linker_0, # of connection points: 2
#     Edge 26, Type (0, 0), BuildingBlock: ZUJKAS_clean_linker_0, # of connection points: 2
#     Edge 27, Type (0, 0), BuildingBlock: ZUJKAS_clean_linker_0, # of connection points: 2
#     Edge 28, Type (0, 0), BuildingBlock: ZUJKAS_clean_linker_0, # of connection points: 2
#     Edge 29, Type (0, 0), BuildingBlock: ZUJKAS_clean_linker_0, # of connection points: 2
#     Edge 30, Type (0, 0), BuildingBlock: ZUJKAS_clean_linker_0, # of connection points: 2
#     Edge 31, Type (0, 0), BuildingBlock: ZUJKAS_clean_linker_0, # of connection points: 2
#     Edge 32, Type (0, 0), BuildingBlock: ZUJKAS_clean_linker_0, # of connection points: 2
#     Edge 33, Type (0, 0), BuildingBlock: ZUJKAS_clean_linker_0, # of connection points: 2
#     Edge 34, Type (0, 0), BuildingBlock: ZUJKAS_clean_linker_0, # of connection points: 2
#     Edge 35, Type (0, 0), BuildingBlock: ZUJKAS_clean_linker_0, # of connection points: 2
#     Edge 36, Type (0, 0), BuildingBlock: ZUJKAS_clean_linker_0, # of connection points: 2
#     Edge 37, Type (0, 0), BuildingBlock: ZUJKAS_clean_linker_0, # of connection points: 2
#     Edge 38, Type (0, 0), BuildingBlock: ZUJKAS_clean_linker_0, # of connection points: 2
#     Edge 39, Type (0, 0), BuildingBlock: ZUJKAS_clean_linker_0, # of connection points: 2
#     Edge 40, Type (0, 0), BuildingBlock: ZUJKAS_clean_linker_0, # of connection points: 2
#     Edge 41, Type (0, 0), BuildingBlock: ZUJKAS_clean_linker_0, # of connection points: 2
#     Edge 42, Type (0, 0), BuildingBlock: ZUJKAS_clean_linker_0, # of connection points: 2
#     Edge 43, Type (0, 0), BuildingBlock: ZUJKAS_clean_linker_0, # of connection points: 2
#     Edge 44, Type (0, 0), BuildingBlock: ZUJKAS_clean_linker_0, # of connection points: 2
#     Edge 45, Type (0, 0), BuildingBlock: ZUJKAS_clean_linker_0, # of connection points: 2
#     Edge 46, Type (0, 0), BuildingBlock: ZUJKAS_clean_linker_0, # of connection points: 2
#     Edge 47, Type (0, 0), BuildingBlock: ZUJKAS_clean_linker_0, # of connection points: 2
#     Edge 48, Type (0, 0), BuildingBlock: ZUJKAS_clean_linker_0, # of connection points: 2
#     Edge 49, Type (0, 0), BuildingBlock: ZUJKAS_clean_linker_0, # of connection points: 2
#     Edge 50, Type (0, 0), BuildingBlock: ZUJKAS_clean_linker_0, # of connection points: 2
#     Edge 51, Type (0, 0), BuildingBlock: ZUJKAS_clean_linker_0, # of connection points: 2
#     Edge 52, Type (0, 0), BuildingBlock: ZUJKAS_clean_linker_0, # of connection points: 2
#     Edge 53, Type (0, 0), BuildingBlock: ZUJKAS_clean_linker_0, # of connection points: 2
#     Edge 54, Type (0, 0), BuildingBlock: ZUJKAS_clean_linker_0, # of connection points: 2
#     Edge 55, Type (0, 0), BuildingBlock: ZUJKAS_clean_linker_0, # of connection points: 2
#     Edge 56, Type (0, 0), BuildingBlock: ZUJKAS_clean_linker_0, # of connection points: 2
#     Edge 57, Type (0, 0), BuildingBlock: ZUJKAS_clean_linker_0, # of connection points: 2
#     Edge 58, Type (0, 0), BuildingBlock: ZUJKAS_clean_linker_0, # of connection points: 2
#     Edge 59, Type (0, 0), BuildingBlock: ZUJKAS_clean_linker_0, # of connection points: 2
#     Edge 60, Type (0, 0), BuildingBlock: ZUJKAS_clean_linker_0, # of connection points: 2
#     Edge 61, Type (0, 0), BuildingBlock: ZUJKAS_clean_linker_0, # of connection points: 2
#     Edge 62, Type (0, 0), BuildingBlock: ZUJKAS_clean_linker_0, # of connection points: 2
#     Edge 63, Type (0, 0), BuildingBlock: ZUJKAS_clean_linker_0, # of connection points: 2
# Relax obj value: 0.403
# Max RMSD: 0.342
# Mean RMSD: 0.291
data_MOF--net-crs--node1-CUWYAW_clean_sbu_0--edge1-ZUJKAS_clean_linker_0
_symmetry_space_group_name_H-M    P1
_symmetry_Int_Tables_number       1
_symmetry_cell_setting            triclinic
loop_
_symmetry_equiv_pos_as_xyz
'x, y, z'
_cell_length_a     65.524202
_cell_length_b     70.699766
_cell_length_c     52.271109
_cell_angle_alpha  76.849819
_cell_angle_beta   78.365435
_cell_angle_gamma 69.279217
loop_
_atom_site_label
_atom_site_type_symbol
_atom_site_fract_x
_atom_site_fract_y
_atom_site_fract_z
_atom_type_partial_charge
C0 C 0.03844 0.01835 0.95073 0.0
Eu1 Eu -0.00046 0.02346 0.97737 0.0
C2 C 0.05494 0.0284 0.95014 0.0
C3 C 0.07275 0.01841 0.96477 0.0
C4 C 0.08642 0.02893 0.96768 0.0
C5 C 0.08267 0.04959 0.95579 0.0
C6 C 0.06555 0.05924 0.94006 0.0
C7 C 0.05186 0.04877 0.93724 0.0
C8 C 0.95921 0.03816 0.96202 0.0
C9 C 0.97605 0.0639 0.00385 0.0
C10 C 0.92248 0.02675 0.0501 0.0
Eu11 Eu 0.96083 0.02305 0.02254 0.0
C12 C 0.9075 0.0149 0.05135 0.0
C13 C 0.90958 0.99646 0.06942 0.0
C14 C 0.89898 0.98304 0.06708 0.0
C15 C 0.88595 0.98782 0.04671 0.0
C16 C 0.88257 1.00693 0.02985 0.0
C17 C 0.89313 0.02038 0.03224 0.0
C18 C 0.00152 1.00946 0.03765 0.0
C19 C 0.98288 0.98316 0.99485 0.0
O20 O 0.03463 1.00636 0.97301 0.0
O21 O 0.02034 0.02988 0.94065 0.0
O22 O 0.97521 0.04497 0.94974 0.0
O23 O 0.96587 0.02299 0.97969 0.0
O24 O -0.00546 0.05281 0.99137 0.0
O25 O 0.9599 0.05632 0.0151 0.0
O26 O 0.92543 0.0388 0.02754 0.0
O27 O 0.94094 0.0165 0.06004 0.0
O28 O 0.98584 1.00234 0.0503 0.0
O29 O -0.00575 0.02418 0.01984 0.0
O30 O 0.96512 0.99406 0.00852 0.0
O31 O -0.00089 0.99055 0.98319 0.0
H32 H 0.07561 1.00268 0.97484 0.0
H33 H 0.09966 0.021 0.97964 0.0
H34 H 0.06206 0.07521 0.93085 0.0
H35 H 0.03834 0.05697 0.92576 0.0
H36 H 0.92034 0.99183 0.08455 0.0
H37 H 0.902 0.96843 0.08035 0.0
H38 H 0.87223 1.01126 0.01432 0.0
H39 H 0.89083 0.03463 0.01827 0.0
C40 C 0.96863 0.23083 0.21627 0.0
Eu41 Eu 0.98083 0.25381 0.23834 0.0
C42 C 0.97137 0.22515 0.1902 0.0
C43 C 0.95377 0.22187 0.1826 0.0
C44 C 0.95629 0.21509 0.15876 0.0
C45 C 0.97653 0.21142 0.1421 0.0
C46 C -0.00603 0.21537 0.14936 0.0
C47 C -0.00861 0.22228 0.17322 0.0
C48 C 0.96197 0.29491 0.23704 0.0
C49 C 0.02001 0.27171 0.21254 0.0
C50 C 0.00272 0.30039 0.29748 0.0
Eu51 Eu -0.0016 0.27368 0.27413 0.0
C52 C -0.01015 0.31336 0.31739 0.0
C53 C 0.98181 0.30476 0.34272 0.0
C54 C 0.97247 0.31678 0.36255 0.0
C55 C 0.97076 0.33762 0.35728 0.0
C56 C 0.97749 0.34647 0.33149 0.0
C57 C 0.98706 0.3344 0.31174 0.0
C58 C 0.02537 0.23419 0.27139 0.0
C59 C 0.96173 0.25215 0.30161 0.0
O60 O 0.98612 0.22407 0.22846 0.0
O61 O 0.95674 0.24976 0.21857 0.0
O62 O 0.96636 0.28607 0.2164 0.0
O63 O 0.96729 0.28162 0.25738 0.0
O64 O 0.01094 0.2579 0.21168 0.0
O65 O 0.01499 0.28186 0.2326 0.0
O66 O -0.00402 0.3053 0.27411 0.0
O67 O 0.00965 0.28055 0.306 0.0
O68 O 0.02846 0.24586 0.2851 0.0
O69 O 0.00833 0.24422 0.26068 0.0
O70 O 0.97199 0.26468 0.30377 0.0
O71 O 0.96404 0.24505 0.27946 0.0
H72 H 0.93822 0.22404 0.19547 0.0
H73 H 0.94266 0.21186 0.15397 0.0
H74 H 0.0097 0.21278 0.13683 0.0
H75 H 0.00513 0.22494 0.17865 0.0
H76 H 0.98348 0.28859 0.34756 0.0
H77 H 0.96726 0.30965 0.38224 0.0
H78 H 0.97656 0.36247 0.32698 0.0
H79 H -0.0069 0.34133 0.29234 0.0
C80 C 0.68566 0.2548 0.47628 0.0
Eu81 Eu 0.71941 0.26112 0.48753 0.0
C82 C 0.67705 0.23758 0.47992 0.0
C83 C 0.67324 0.23212 0.45757 0.0
C84 C 0.66543 0.2157 0.4603 0.0
C85 C 0.66107 0.20452 0.48549 0.0
C86 C 0.66461 0.21014 0.50794 0.0
C87 C 0.67264 0.22648 0.50519 0.0
C88 C 0.76095 0.24986 0.46216 0.0
C89 C 0.74299 0.22415 0.53411 0.0
C90 C 0.78769 0.27279 0.5257 0.0
Eu91 Eu 0.75426 0.26592 0.51452 0.0
C92 C 0.79573 0.29042 0.52136 0.0
C93 C 0.80023 0.29597 0.54319 0.0
C94 C 0.80673 0.31324 0.53999 0.0
C95 C 0.809 0.32524 0.51482 0.0
C96 C 0.80494 0.31945 0.49282 0.0
C97 C 0.79824 0.30223 0.49607 0.0
C98 C 0.71266 0.277 0.53994 0.0
C99 C 0.73071 0.3028 0.46805 0.0
O100 O 0.68529 0.26185 0.4975 0.0
O101 O 0.7038 0.25364 0.45981 0.0
O102 O 0.74371 0.25888 0.44999 0.0
O103 O 0.75544 0.24628 0.48682 0.0
O104 O 0.72599 0.23298 0.5205 0.0
O105 O 0.75828 0.2328 0.53223 0.0
O106 O 0.78846 0.26506 0.50488 0.0
O107 O 0.76945 0.27407 0.542 0.0
O108 O 0.72992 0.26805 0.55207 0.0
O109 O 0.71826 0.28066 0.51532 0.0
O110 O 0.74808 0.29364 0.48097 0.0
O111 O 0.71511 0.29443 0.47061 0.0
H112 H 0.67641 0.24054 0.43794 0.0
H113 H 0.66259 0.21185 0.4427 0.0
H114 H 0.66153 0.20168 0.52756 0.0
H115 H 0.67548 0.2303 0.5228 0.0
H116 H 0.79846 0.28705 0.56283 0.0
H117 H 0.81006 0.31718 0.55723 0.0
H118 H 0.80645 0.3285 0.47323 0.0
H119 H 0.79478 0.29834 0.47887 0.0
C120 C 0.73025 1.01106 0.67484 0.0
Eu121 Eu 0.73672 1.00867 0.72321 0.0
C122 C 0.7098 0.01583 0.66383 0.0
C123 C 0.68989 0.01869 0.6809 0.0
C124 C 0.67036 0.02245 0.67106 0.0
C125 C 0.67039 0.02326 0.64396 0.0
C126 C 0.69036 0.02063 0.62679 0.0
C127 C 0.70997 0.017 0.63669 0.0
C128 C 0.72805 0.97953 0.76387 0.0
C129 C 0.6924 0.03852 0.75257 0.0
C130 C 0.7402 0.01537 0.82548 0.0
Eu131 Eu 0.73697 0.01648 0.77621 0.0
C132 C 0.75389 0.02167 0.83847 0.0
C133 C 0.77097 0.02852 0.8234 0.0
C134 C 0.78319 0.03575 0.83549 0.0
C135 C 0.77843 0.03632 0.86282 0.0
C136 C 0.76134 0.0293 0.87786 0.0
C137 C 0.74911 0.02206 0.86571 0.0
C138 C 0.7466 0.04556 0.73602 0.0
C139 C 0.78108 0.98541 0.74717 0.0
O140 O 0.7324 0.02615 0.68339 0.0
O141 O 0.73544 0.99387 0.69158 0.0
O142 O 0.73947 0.97575 0.74128 0.0
O143 O 0.72042 0.99864 0.76364 0.0
O144 O 0.70456 0.03457 0.72984 0.0
O145 O 0.70032 0.0292 0.77504 0.0
O146 O 0.75035 0.99986 0.81296 0.0
O147 O 0.7264 0.0304 0.81171 0.0
O148 O 0.73629 0.04907 0.75913 0.0
O149 O 0.75349 0.02651 0.73585 0.0
O150 O 0.76917 0.99028 0.76983 0.0
O151 O 0.77316 0.99398 0.72445 0.0
H152 H 0.68951 0.01753 0.70198 0.0
H153 H 0.65534 0.02401 0.68486 0.0
H154 H 0.69081 0.02126 0.60579 0.0
H155 H 0.72525 0.01481 0.62329 0.0
H156 H 0.77473 0.0284 0.80225 0.0
H157 H 0.7965 0.0407 0.82348 0.0
H158 H 0.75723 0.02969 0.89891 0.0
H159 H 0.73578 0.017 0.87749 0.0
C160 C 0.47969 0.73517 0.20817 0.0
Eu161 Eu 0.48496 0.75457 0.24171 0.0
C162 C 0.49092 0.72389 0.18595 0.0
C163 C 0.49096 0.73433 0.15961 0.0
C164 C 0.4977 0.72342 0.13853 0.0
C165 C 0.50442 0.70186 0.14335 0.0
C166 C 0.5057 0.69144 0.16962 0.0
C167 C 0.49896 0.70234 0.19069 0.0
C168 C 0.45751 0.79171 0.2529 0.0
C169 C 0.52577 0.77352 0.22039 0.0
C170 C 0.50334 0.79887 0.30829 0.0
Eu171 Eu 0.50088 0.77415 0.27986 0.0
C172 C 0.48999 0.81214 0.32791 0.0
C173 C 0.49041 0.8044 0.35513 0.0
C174 C 0.48067 0.81739 0.37381 0.0
C175 C 0.47041 0.83849 0.36573 0.0
C176 C 0.46901 0.84609 0.33859 0.0
C177 C 0.47874 0.83305 0.31984 0.0
C178 C 0.52769 0.73435 0.27741 0.0
C179 C 0.46437 0.75112 0.30222 0.0
O180 O 0.4848 0.72628 0.23201 0.0
O181 O 0.4759 0.75507 0.20376 0.0
O182 O 0.45093 0.77741 0.24919 0.0
O183 O 0.47828 0.78626 0.24902 0.0
O184 O 0.51474 0.76198 0.21684 0.0
O185 O 0.5222 0.78131 0.24223 0.0
O186 O 0.49938 0.80477 0.2836 0.0
O187 O 0.50798 0.77903 0.31614 0.0
O188 O 0.53083 0.74609 0.29097 0.0
O189 O 0.51086 0.7446 0.26645 0.0
O190 O 0.47101 0.76649 0.30347 0.0
O191 O 0.47126 0.74115 0.28192 0.0
H192 H 0.48478 0.75093 0.15525 0.0
H193 H 0.49678 0.73188 0.1185 0.0
H194 H 0.51052 0.67485 0.17407 0.0
H195 H 0.49896 0.69383 0.21074 0.0
H196 H 0.49914 0.78842 0.36203 0.0
H197 H 0.48236 0.81107 0.39448 0.0
H198 H 0.46102 0.86225 0.33177 0.0
H199 H 0.47814 0.83951 0.29902 0.0
C200 C 0.18583 0.75245 0.48693 0.0
Eu201 Eu 0.22246 0.75738 0.49145 0.0
C202 C 0.17853 0.73508 0.48696 0.0
C203 C 0.19222 0.71482 0.49363 0.0
C204 C 0.18546 0.69839 0.4925 0.0
C205 C 0.16494 0.70196 0.48455 0.0
C206 C 0.15125 0.72235 0.4781 0.0
C207 C 0.158 0.73875 0.47932 0.0
C208 C 0.26142 0.74397 0.46066 0.0
C209 C 0.24984 0.71952 0.53473 0.0
C210 C 0.29944 0.76545 0.51241 0.0
Eu211 Eu 0.26245 0.76016 0.5104 0.0
C212 C 0.308 0.78279 0.50354 0.0
C213 C 0.2937 0.80269 0.49638 0.0
C214 C 0.30172 0.81927 0.48881 0.0
C215 C 0.32418 0.81627 0.4884 0.0
C216 C 0.33855 0.79618 0.49487 0.0
C217 C 0.3305 0.77956 0.50235 0.0
C218 C 0.22372 0.77281 0.54182 0.0
C219 C 0.23456 0.79831 0.46865 0.0
O220 O 0.1908 0.75359 0.50944 0.0
O221 O 0.20004 0.75623 0.46668 0.0
O222 O 0.24293 0.75363 0.45124 0.0
O223 O 0.25824 0.74093 0.48554 0.0
O224 O 0.23141 0.72895 0.52377 0.0
O225 O 0.26605 0.72744 0.52974 0.0
O226 O 0.29639 0.75771 0.49359 0.0
O227 O 0.28308 0.76764 0.53176 0.0
O228 O 0.24246 0.76341 0.55085 0.0
O229 O 0.22652 0.77628 0.51687 0.0
O230 O 0.25379 0.78791 0.47728 0.0
O231 O 0.21789 0.79095 0.47554 0.0
H232 H 0.20819 0.71173 0.49948 0.0
H233 H 0.19629 0.6829 0.4979 0.0
H234 H 0.1355 0.72566 0.47152 0.0
H235 H 0.14732 0.75432 0.47393 0.0
H236 H 0.27628 0.80546 0.49702 0.0
H237 H 0.29028 0.83448 0.4835 0.0
H238 H 0.35589 0.79334 0.49498 0.0
H239 H 0.34176 0.76425 0.50765 0.0
C240 C 0.22695 0.50304 0.68078 0.0
Eu241 Eu 0.23248 0.5054 0.72756 0.0
C242 C 0.21345 0.51465 0.65961 0.0
C243 C 0.19128 0.52615 0.6656 0.0
C244 C 0.1774 0.53326 0.64602 0.0
C245 C 0.18552 0.52905 0.62013 0.0
C246 C 0.20825 0.51941 0.61369 0.0
C247 C 0.22208 0.51215 0.63336 0.0
C248 C 0.23095 0.4762 0.77139 0.0
C249 C 0.19095 0.5389 0.75537 0.0
C250 C 0.23912 0.52375 0.82308 0.0
Eu251 Eu 0.23843 0.51663 0.77659 0.0
C252 C 0.25628 0.52511 0.83595 0.0
C253 C 0.27742 0.52281 0.82204 0.0
C254 C 0.29389 0.52404 0.83419 0.0
C255 C 0.2895 0.52751 0.8605 0.0
C256 C 0.2682 0.52989 0.87432 0.0
C257 C 0.25169 0.52868 0.8621 0.0
C258 C 0.25313 0.53794 0.73015 0.0
C259 C 0.27902 0.48376 0.74887 0.0
O260 O 0.24172 0.51031 0.68462 0.0
O261 O 0.21661 0.49569 0.70284 0.0
O262 O 0.23966 0.47242 0.74784 0.0
O263 O 0.22231 0.49536 0.77084 0.0
O264 O 0.19934 0.53003 0.73417 0.0
O265 O 0.20222 0.53452 0.77545 0.0
O266 O 0.24195 0.50552 0.8184 0.0
O267 O 0.23314 0.53825 0.80288 0.0
O268 O 0.26348 0.5313 0.7508 0.0
O269 O 0.23579 0.5333 0.73541 0.0
O270 O 0.26867 0.48887 0.77195 0.0
O271 O 0.26958 0.49223 0.7271 0.0
H272 H 0.18435 0.5284 0.68575 0.0
H273 H 0.15999 0.54049 0.65181 0.0
H274 H 0.21508 0.5163 0.59383 0.0
H275 H 0.23925 0.5035 0.62839 0.0
H276 H 0.28116 0.52008 0.80177 0.0
H277 H 0.31 0.52248 0.82286 0.0
H278 H 0.2644 0.53239 0.89468 0.0
H279 H 0.23541 0.53045 0.87305 0.0
C280 C 0.0534 0.49928 0.47057 0.0
Eu281 Eu 0.01195 0.50862 0.48911 0.0
C282 C 0.06649 0.51322 0.4605 0.0
C283 C 0.0563 0.53349 0.44861 0.0
C284 C 0.06668 0.54825 0.44482 0.0
C285 C 0.08737 0.54312 0.45314 0.0
C286 C 0.09816 0.5225 0.46347 0.0
C287 C 0.08774 0.50769 0.46723 0.0
C288 C 0.9773 0.53215 0.46283 0.0
C289 C -0.01076 0.55227 0.50842 0.0
C290 C 0.92411 0.52209 0.53974 0.0
Eu291 Eu 0.96506 0.51825 0.52303 0.0
C292 C 0.90995 0.51259 0.5324 0.0
C293 C 0.89441 0.50619 0.55164 0.0
C294 C 0.88326 0.49443 0.54576 0.0
C295 C 0.88749 0.48886 0.5205 0.0
C296 C 0.9026 0.49594 0.50104 0.0
C297 C 0.91377 0.50761 0.50695 0.0
C298 C -0.00081 0.50793 0.55059 0.0
C299 C -0.0124 0.47461 0.50065 0.0
O300 O 0.04612 0.49837 0.49589 0.0
O301 O 0.03829 0.50078 0.45642 0.0
O302 O -0.00311 0.53363 0.4557 0.0
O303 O 0.97779 0.51717 0.48118 0.0
O304 O 0.00785 0.53759 0.50304 0.0
O305 O 0.96975 0.54947 0.51287 0.0
O306 O 0.93043 0.53555 0.52106 0.0
O307 O 0.94016 0.5092 0.55267 0.0
O308 O 0.97978 0.5204 0.55734 0.0
O309 O -0.00109 0.50039 0.53104 0.0
O310 O 0.97029 0.48742 0.5127 0.0
O311 O 0.00609 0.47881 0.49091 0.0
H312 H 0.03975 0.53824 0.44361 0.0
H313 H 0.05807 0.5639 0.4364 0.0
H314 H 0.11397 0.51806 0.47041 0.0
H315 H 0.09568 0.49223 0.47693 0.0
H316 H 0.89153 0.50959 0.5715 0.0
H317 H 0.87208 0.48895 0.56143 0.0
H318 H 0.90618 0.49211 0.48135 0.0
H319 H 0.92595 0.51214 0.49185 0.0
C320 C 0.1874 0.25214 0.99223 0.0
Eu321 Eu 0.22365 0.25738 0.99733 0.0
C322 C 0.18037 0.23437 0.99345 0.0
C323 C 0.19579 0.21563 0.98793 0.0
C324 C 0.18887 0.19902 0.98823 0.0
C325 C 0.16641 0.20079 0.99428 0.0
C326 C 0.15111 0.21948 1.0005 0.0
C327 C 0.15806 0.23613 1.00005 0.0
C328 C 0.26348 0.24396 0.96841 0.0
C329 C 0.24977 0.21957 0.04138 0.0
C330 C 0.29746 0.2666 0.02573 0.0
Eu331 Eu 0.26193 0.26067 0.01931 0.0
C332 C 0.30374 0.28494 0.02329 0.0
C333 C 0.28829 0.30453 0.01803 0.0
C334 C 0.2941 0.32202 0.01625 0.0
C335 C 0.31545 0.3202 0.0199 0.0
C336 C 0.33092 0.30047 0.025 0.0
C337 C 0.3251 0.28298 0.02664 0.0
C338 C 0.22189 0.27363 0.04805 0.0
C339 C 0.23603 0.29841 0.97519 0.0
O340 O 0.19142 0.25454 0.0146 0.0
O341 O 0.20213 0.25525 0.97222 0.0
O342 O 0.24526 0.25273 0.95815 0.0
O343 O 0.25968 0.24119 0.99332 0.0
O344 O 0.23175 0.22895 0.02967 0.0
O345 O 0.26585 0.22757 0.03722 0.0
O346 O 0.29467 0.26271 0.00361 0.0
O347 O 0.28191 0.26447 0.0451 0.0
O348 O 0.23996 0.26431 0.05851 0.0
O349 O 0.22599 0.27682 0.0232 0.0
O350 O 0.25413 0.28886 0.98665 0.0
O351 O 0.21986 0.2905 0.97948 0.0
H352 H 0.21316 0.21394 0.98302 0.0
H353 H 0.20108 0.18496 0.98308 0.0
H354 H 0.13376 0.22126 0.00573 0.0
H355 H 0.14598 0.25042 0.0047 0.0
H356 H 0.27168 0.30628 0.0155 0.0
H357 H 0.28189 0.33695 0.01193 0.0
H358 H 0.3474 0.29852 0.02826 0.0
H359 H 0.33718 0.26793 0.03081 0.0
C360 C 0.23477 1.01245 0.18458 0.0
Eu361 Eu 0.23973 1.00903 0.23382 0.0
C362 C 0.21718 1.01178 0.17186 0.0
C363 C 0.1988 1.00737 0.18743 0.0
C364 C 0.18235 1.00597 0.17543 0.0
C365 C 0.18397 1.00903 0.14764 0.0
C366 C 0.2024 1.01361 0.13214 0.0
C367 C 0.21891 0.01495 0.14421 0.0
C368 C 0.22966 0.97973 0.27306 0.0
C369 C 0.19659 0.0403 0.26445 0.0
C370 C 0.24652 1.01058 0.33723 0.0
Eu371 Eu 0.24108 0.01485 0.28791 0.0
C372 C 0.26569 1.00233 0.35167 0.0
C373 C 0.28468 0.98723 0.34257 0.0
C374 C 0.30416 0.98213 0.35328 0.0
C375 C 0.30492 0.99206 0.37331 0.0
C376 C 0.28549 1.00622 0.38359 0.0
C377 C 0.26601 1.01137 0.37274 0.0
C378 C 0.25051 0.04423 0.24817 0.0
C379 C 0.28431 0.98479 0.2568 0.0
O380 O 0.23002 0.0282 0.19638 0.0
O381 O 0.24488 0.99519 0.19894 0.0
O382 O 0.24008 0.97646 0.2499 0.0
O383 O 0.22324 0.99869 0.27394 0.0
O384 O 0.20758 0.03493 0.24162 0.0
O385 O 0.20498 0.03175 0.28686 0.0
O386 O 0.24126 0.9974 0.32812 0.0
O387 O 0.2459 0.02723 0.31992 0.0
O388 O 0.23942 0.04776 0.27104 0.0
O389 O 0.25739 0.0252 0.24773 0.0
O390 O 0.27253 0.98848 0.27987 0.0
O391 O 0.27638 0.9949 0.23452 0.0
H392 H 0.19734 1.0048 0.20888 0.0
H393 H 0.16853 1.00215 0.18792 0.0
H394 H 0.20396 0.01632 0.1107 0.0
H395 H 0.23304 0.01838 0.13198 0.0
H396 H 0.28473 0.98003 0.32642 0.0
H397 H 0.31885 0.97101 0.34521 0.0
H398 H 0.28565 0.01425 0.39886 0.0
H399 H 0.25152 0.02314 0.37991 0.0
C400 C 0.4665 0.23099 0.6993 0.0
Eu401 Eu 0.47455 0.25054 0.73056 0.0
C402 C 0.47713 0.21927 0.67743 0.0
C403 C 0.46864 0.22614 0.65316 0.0
C404 C 0.47668 0.21425 0.63308 0.0
C405 C 0.4933 0.19515 0.63697 0.0
C406 C 0.50239 0.18863 0.66091 0.0
C407 C 0.49441 0.20058 0.68096 0.0
C408 C 0.4482 0.28777 0.74282 0.0
C409 C 0.51495 0.26901 0.70377 0.0
C410 C 0.50019 0.29524 0.78938 0.0
Eu411 Eu 0.49389 0.2702 0.7646 0.0
C412 C 0.48981 0.30929 0.80869 0.0
C413 C 0.49928 0.30518 0.83195 0.0
C414 C 0.49169 0.3191 0.84949 0.0
C415 C 0.47445 0.33756 0.84415 0.0
C416 C 0.46441 0.3414 0.82125 0.0
C417 C 0.47202 0.32735 0.80363 0.0
C418 C 0.5203 0.23046 0.76165 0.0
C419 C 0.45859 0.24679 0.79257 0.0
O420 O 0.47222 0.22247 0.72298 0.0
O421 O 0.46333 0.25079 0.69394 0.0
O422 O 0.441 0.27337 0.74084 0.0
O423 O 0.46885 0.28235 0.73671 0.0
O424 O 0.50321 0.2575 0.70222 0.0
O425 O 0.51304 0.27692 0.72505 0.0
O426 O 0.49411 0.30078 0.76565 0.0
O427 O 0.50401 0.27565 0.7986 0.0
O428 O 0.5244 0.24249 0.77382 0.0
O429 O 0.50277 0.24037 0.7519 0.0
O430 O 0.46576 0.26216 0.79232 0.0
O431 O 0.46336 0.2372 0.77207 0.0
H432 H 0.45522 0.24043 0.65003 0.0
H433 H 0.46915 0.21958 0.615 0.0
H434 H 0.51537 0.17407 0.66436 0.0
H435 H 0.50136 0.19488 0.69943 0.0
H436 H 0.51315 0.29146 0.83614 0.0
H437 H 0.50011 0.31581 0.86661 0.0
H438 H 0.45099 0.35542 0.81669 0.0
H439 H 0.46438 0.33089 0.78582 0.0
C440 C 0.97414 0.73382 0.70164 0.0
Eu441 Eu 0.98069 0.75601 0.73037 0.0
C442 C 0.98558 0.72081 0.68135 0.0
C443 C 0.98015 0.72793 0.65546 0.0
C444 C -0.01109 0.71536 0.63629 0.0
C445 C 0.00325 0.69531 0.6426 0.0
C446 C 0.00938 0.6884 0.66827 0.0
C447 C 0.00055 0.70103 0.68754 0.0
C448 C 0.95694 0.796 0.73562 0.0
C449 C 0.02293 0.77233 0.71189 0.0
C450 C 0.0075 0.79396 0.80034 0.0
Eu451 Eu -0.00119 0.7721 0.77301 0.0
C452 C -0.00122 0.80814 0.81931 0.0
C453 C 0.01373 0.81448 0.82801 0.0
C454 C 0.00674 0.82647 0.84779 0.0
C455 C 0.9846 0.83238 0.85925 0.0
C456 C 0.96939 0.82649 0.84998 0.0
C457 C 0.97651 0.81425 0.83017 0.0
C458 C 0.02233 0.73204 0.76738 0.0
C459 C 0.95651 0.75589 0.7914 0.0
O460 O 0.97856 0.72681 0.72615 0.0
O461 O 0.97149 0.75345 0.69414 0.0
O462 O 0.95345 0.78625 0.71959 0.0
O463 O 0.9729 0.78393 0.74726 0.0
O464 O 0.01177 0.76131 0.70725 0.0
O465 O 0.01911 0.77977 0.73415 0.0
O466 O 0.00277 0.80084 0.77598 0.0
O467 O 0.00746 0.77508 0.80939 0.0
O468 O 0.02588 0.74142 0.7838 0.0
O469 O 0.00655 0.7445 0.75585 0.0
O470 O 0.96748 0.76715 0.79592 0.0
O471 O 0.96051 0.74821 0.76926 0.0
H472 H 0.96846 0.74304 0.65025 0.0
H473 H 0.98349 0.72102 0.6169 0.0
H474 H 0.02051 0.67305 0.67365 0.0
H475 H 0.00497 0.69508 0.70738 0.0
H476 H 0.03098 0.80983 0.8198 0.0
H477 H 0.01871 0.83117 0.85413 0.0
H478 H 0.95222 0.83094 0.85846 0.0
H479 H 0.96482 0.80928 0.8237 0.0
C480 C 0.73065 0.51069 0.17775 0.0
Eu481 Eu 0.73926 0.50944 0.22479 0.0
C482 C 0.71274 0.5069 0.16916 0.0
C483 C 0.69504 0.50383 0.18779 0.0
C484 C 0.67845 0.49916 0.18006 0.0
C485 C 0.67934 0.49741 0.15357 0.0
C486 C 0.69712 0.50055 0.13495 0.0
C487 C 0.71372 0.50526 0.14272 0.0
C488 C 0.7308 0.48046 0.26606 0.0
C489 C 0.69766 0.54071 0.25618 0.0
C490 C 0.75066 0.51347 0.32457 0.0
Eu491 Eu 0.74318 0.51639 0.27646 0.0
C492 C 0.76917 0.514 0.33568 0.0
C493 C 0.78802 0.51629 0.31886 0.0
C494 C 0.80499 0.51844 0.32914 0.0
C495 C 0.80335 0.51832 0.35642 0.0
C496 C 0.7846 0.51551 0.37327 0.0
C497 C 0.76761 0.5134 0.36293 0.0
C498 C 0.75149 0.54562 0.23562 0.0
C499 C 0.78551 0.4864 0.24407 0.0
O500 O 0.72503 0.52692 0.18885 0.0
O501 O 0.74389 0.49463 0.19084 0.0
O502 O 0.74063 0.47684 0.24285 0.0
O503 O 0.72423 0.4995 0.2662 0.0
O504 O 0.7085 0.53648 0.23289 0.0
O505 O 0.70642 0.53086 0.27801 0.0
O506 O 0.7543 0.49757 0.31349 0.0
O507 O 0.74034 0.53067 0.3103 0.0
O508 O 0.7423 0.54894 0.25919 0.0
O509 O 0.75796 0.52662 0.23496 0.0
O510 O 0.77493 0.49057 0.2675 0.0
O511 O 0.77619 0.49579 0.22245 0.0
H512 H 0.69422 0.50482 0.20839 0.0
H513 H 0.66512 0.49659 0.19491 0.0
H514 H 0.6981 0.49956 0.11434 0.0
H515 H 0.72737 0.50748 0.12817 0.0
H516 H 0.78936 0.5169 0.2977 0.0
H517 H 0.81907 0.52083 0.3156 0.0
H518 H 0.78301 0.51507 0.39441 0.0
H519 H 0.75311 0.51163 0.37612 0.0
C520 C 0.68203 0.76226 0.99397 0.0
Eu521 Eu 0.71992 0.76548 0.99635 0.0
C522 C 0.67358 0.74549 0.99465 0.0
C523 C 0.68718 0.72762 0.98484 0.0
C524 C 0.67893 0.71179 0.98554 0.0
C525 C 0.657 0.71345 0.99633 0.0
C526 C 0.64355 0.73131 0.00649 0.0
C527 C 0.65179 0.7472 0.00561 0.0
C528 C 0.75807 0.75159 0.96441 0.0
C529 C 0.74753 0.72618 0.03739 0.0
C530 C 0.79809 0.77118 0.01789 0.0
Eu531 Eu 0.76088 0.76679 0.01465 0.0
C532 C 0.80541 0.78888 0.01587 0.0
C533 C 0.79083 0.8089 0.01042 0.0
C534 C 0.7975 0.82573 0.00974 0.0
C535 C 0.81887 0.82282 0.01457 0.0
C536 C 0.83352 0.80268 0.01957 0.0
C537 C 0.82681 0.78585 0.02024 0.0
C538 C 0.72246 0.78076 0.04629 0.0
C539 C 0.73352 0.80559 0.973 0.0
O540 O 0.6882 0.7627 0.01606 0.0
O541 O 0.69571 0.76601 0.97302 0.0
O542 O 0.7392 0.76106 0.9558 0.0
O543 O 0.75564 0.74843 0.98934 0.0
O544 O 0.72875 0.73645 0.02755 0.0
O545 O 0.76418 0.73359 0.03194 0.0
O546 O 0.7931 0.76887 0.99604 0.0
O547 O 0.7837 0.76845 0.03846 0.0
O548 O 0.74117 0.77098 0.05514 0.0
O549 O 0.72525 0.78393 0.02139 0.0
O550 O 0.7526 0.795 0.98197 0.0
O551 O 0.71655 0.79867 0.9799 0.0
H552 H 0.70414 0.72594 0.9765 0.0
H553 H 0.68965 0.6984 0.97723 0.0
H554 H 0.62671 0.73294 0.01533 0.0
H555 H 0.64117 0.76082 0.01354 0.0
H556 H 0.77421 0.81151 0.007 0.0
H557 H 0.78592 0.84103 0.00547 0.0
H558 H 0.84999 0.7999 0.02367 0.0
H559 H 0.83822 0.77046 0.02457 0.0
C560 C 0.55632 0.98942 0.4995 0.0
Eu561 Eu 0.51408 0.99737 0.50357 0.0
C562 C 0.56955 1.0025 0.49986 0.0
C563 C 0.57902 1.01168 0.47588 0.0
C564 C 0.58823 0.02679 0.47561 0.0
C565 C 0.58818 0.03295 0.49933 0.0
C566 C 0.58007 0.02284 0.52342 0.0
C567 C 0.57093 1.00771 0.52371 0.0
C568 C 0.49134 1.00294 0.46326 0.0
C569 C 0.49108 0.04714 0.50353 0.0
C570 C 0.42147 0.02516 0.51395 0.0
Eu571 Eu 0.46314 0.01706 0.51489 0.0
C572 C 0.40938 1.01141 0.51261 0.0
C573 C 0.41356 0.99201 0.52882 0.0
C574 C 0.40524 0.97754 0.52449 0.0
C575 C 0.39244 0.98216 0.50395 0.0
C576 C 0.3871 1.00205 0.48886 0.0
C577 C 0.39564 0.0165 0.49301 0.0
C578 C 0.48493 1.01161 0.55582 0.0
C579 C 0.48672 0.96674 0.51811 0.0
O580 O 0.54436 0.98465 0.52175 0.0
O581 O 0.54567 0.99448 0.479 0.0
O582 O 0.50884 0.98741 0.46804 0.0
O583 O 0.48751 0.01525 0.47906 0.0
O584 O 0.50861 0.0305 0.50585 0.0
O585 O 0.4713 0.04637 0.50298 0.0
O586 O 0.4351 0.02843 0.49268 0.0
O587 O 0.42994 0.02183 0.53587 0.0
O588 O 0.46671 0.02649 0.55167 0.0
O589 O 0.48959 0.99939 0.53959 0.0
O590 O 0.46906 0.98329 0.51583 0.0
O591 O 0.50662 0.96778 0.51721 0.0
H592 H 0.57844 1.00783 0.45718 0.0
H593 H 0.59443 0.03432 0.45674 0.0
H594 H 0.58043 0.02695 0.54199 0.0
H595 H 0.56429 1.00063 0.54253 0.0
H596 H 0.42407 0.98764 0.54416 0.0
H597 H 0.40972 0.9624 0.53651 0.0
H598 H 0.37663 1.00631 0.47353 0.0
H599 H 0.39213 0.0314 0.48033 0.0
C600 C 0.55122 0.50759 0.97268 0.0
Eu601 Eu 0.50955 0.51265 0.9866 0.0
C602 C 0.56425 0.51923 0.97761 0.0
C603 C 0.58056 0.52397 0.95793 0.0
C604 C 0.58981 0.53842 0.96049 0.0
C605 C 0.58252 0.54849 0.98257 0.0
C606 C 0.56693 0.54301 0.00271 0.0
C607 C 0.55796 0.52844 1.0003 0.0
C608 C 0.47758 0.53039 0.95498 0.0
C609 C 0.48714 0.55482 0.01274 0.0
C610 C 0.42036 0.52862 0.03157 0.0
Eu611 Eu 0.46191 0.52384 0.016 0.0
C612 C 0.40606 0.51818 0.02665 0.0
C613 C 0.39022 0.51335 0.04699 0.0
C614 C 0.37946 0.50014 0.0442 0.0
C615 C 0.38465 0.49137 0.02112 0.0
C616 C 0.39982 0.49702 1.00039 0.0
C617 C 0.41031 0.5104 0.00303 0.0
C618 C 0.49436 0.50595 0.04709 0.0
C619 C 0.4835 0.4827 0.98776 0.0
O620 O 0.54364 0.49649 0.99351 0.0
O621 O 0.53632 0.51823 0.95705 0.0
O622 O 0.49614 0.51662 0.94855 0.0
O623 O 0.47751 0.53512 0.97688 0.0
O624 O 0.50509 0.5399 0.00581 0.0
O625 O 0.46719 0.55375 0.01442 0.0
O626 O 0.42744 0.54036 0.01114 0.0
O627 O 0.43592 0.51689 0.04582 0.0
O628 O 0.47628 0.5203 0.05339 0.0
O629 O 0.49393 0.50112 0.02549 0.0
O630 O 0.46572 0.49752 0.99537 0.0
O631 O 0.50359 0.4833 0.9867 0.0
H632 H 0.58541 0.51721 0.9401 0.0
H633 H 0.60177 0.54248 0.94463 0.0
H634 H 0.5614 0.55026 0.02016 0.0
H635 H 0.54559 0.52483 0.01589 0.0
H636 H 0.3869 0.51904 0.06549 0.0
H637 H 0.36802 0.49592 0.06066 0.0
H638 H 0.40415 0.4905 0.98247 0.0
H639 H 0.42248 0.5139 0.98708 0.0
H640 H 0.94147 0.09101 0.02951 0.0
H641 H 0.94193 0.12118 0.04437 0.0
H642 H 0.00845 0.11215 0.00541 0.0
H643 H 0.00813 0.08213 0.99013 0.0
H644 H 0.97235 0.11623 0.07762 0.0
H645 H 0.97926 0.17487 0.98827 0.0
H646 H 0.96955 0.15392 0.98824 0.0
H647 H -0.00153 0.14954 0.98654 0.0
C648 C 0.95603 0.0957 0.02355 0.0
C649 C 0.97485 0.08402 0.0089 0.0
C650 C 0.95623 0.11297 0.03201 0.0
C651 C 0.97518 0.11892 0.02586 0.0
C652 C -0.00646 0.10802 0.00997 0.0
H653 H 0.01173 0.17961 0.12655 0.0
H654 H 0.01365 0.15882 0.09408 0.0
C655 C -0.00665 0.09076 1.00143 0.0
C656 C 0.97678 0.13454 0.03923 0.0
H657 H 0.98504 0.18093 0.02891 0.0
C658 C 0.97502 0.13042 0.06697 0.0
C659 C 0.98036 0.15295 0.0252 0.0
C660 C 0.98185 0.15824 0.99542 0.0
C661 C 0.97677 0.14419 0.08116 0.0
C662 C 0.98069 0.16246 0.06718 0.0
C663 C 0.9823 0.16675 0.03943 0.0
C664 C 0.98204 0.17752 0.08163 0.0
C665 C 0.97415 0.13923 0.11107 0.0
C666 C 0.96412 0.19542 0.08427 0.0
C667 C 0.963 0.20739 0.10272 0.0
C668 C 0.9798 0.20157 0.11875 0.0
C669 C -0.00141 0.18456 0.11441 0.0
C670 C -0.00032 0.17261 0.09597 0.0
H671 H 0.96736 0.12638 0.11885 0.0
H672 H -0.00953 0.13475 0.11786 0.0
H673 H 0.96313 0.15288 0.11977 0.0
H674 H 0.95038 0.19941 0.0733 0.0
H675 H 0.94849 0.22061 0.10537 0.0
H676 H 0.79899 0.2288 0.48378 0.0
H677 H 0.83664 0.22676 0.46289 0.0
H678 H 0.8116 0.26282 0.39064 0.0
H679 H 0.77406 0.26519 0.41149 0.0
H680 H 0.86073 0.21133 0.41683 0.0
H681 H 0.84829 0.29416 0.40706 0.0
H682 H 0.82957 0.28193 0.42848 0.0
H683 H 0.82779 0.28947 0.39351 0.0
C684 C 0.80159 0.23629 0.46345 0.0
C685 C 0.78368 0.24734 0.44929 0.0
C686 C 0.82304 0.2351 0.45157 0.0
C687 C 0.82679 0.24499 0.42544 0.0
C688 C 0.80896 0.25547 0.41104 0.0
H689 H 0.93395 0.23073 0.30283 0.0
H690 H 0.90378 0.22694 0.3371 0.0
C691 C 0.78757 0.25667 0.42288 0.0
C692 C 0.84932 0.24428 0.41284 0.0
H693 H 0.87949 0.27517 0.37984 0.0
C694 C 0.865 0.22524 0.40905 0.0
C695 C 0.85499 0.26239 0.40333 0.0
C696 C 0.83935 0.28313 0.40853 0.0
C697 C 0.88581 0.22395 0.39452 0.0
C698 C 0.8908 0.24223 0.3831 0.0
C699 C 0.87558 0.26116 0.38832 0.0
C700 C 0.91083 0.24236 0.36397 0.0
C701 C 0.9021 0.20306 0.39131 0.0
C702 C 0.92479 0.25245 0.36752 0.0
C703 C 0.94196 0.25492 0.34771 0.0
C704 C 0.94541 0.24739 0.32394 0.0
C705 C 0.93188 0.23664 0.3209 0.0
C706 C 0.91467 0.2343 0.34062 0.0
H707 H 0.89923 0.19116 0.40829 0.0
H708 H 0.90004 0.19878 0.37306 0.0
H709 H 0.91932 0.20291 0.38962 0.0
H710 H 0.92203 0.2589 0.38532 0.0
H711 H 0.95207 0.26326 0.35074 0.0
H712 H 0.76419 0.04252 0.68378 0.0
H713 H 0.76456 0.07094 0.6466 0.0
H714 H 0.73513 0.11427 0.70053 0.0
H715 H 0.73387 0.08622 0.73717 0.0
H716 H 0.7147 0.127 0.65852 0.0
H717 H 0.80451 0.10528 0.62465 0.0
H718 H 0.79278 0.0859 0.62449 0.0
H719 H 0.7931 0.09285 0.65541 0.0
C720 C 0.75788 0.05812 0.68763 0.0
C721 C 0.74892 0.0621 0.71341 0.0
C722 C 0.75827 0.07438 0.66639 0.0
C723 C 0.75008 0.09489 0.67065 0.0
C724 C 0.74152 0.0987 0.69655 0.0
H725 H 0.77089 0.20454 0.57164 0.0
H726 H 0.77228 0.17286 0.60313 0.0
C727 C 0.7409 0.08257 0.71758 0.0
C728 C 0.74952 0.1126 0.64839 0.0
H729 H 0.78168 0.13391 0.59867 0.0
C730 C 0.72938 0.12846 0.64542 0.0
C731 C 0.76865 0.11473 0.63136 0.0
C732 C 0.79103 0.0989 0.63422 0.0
C733 C 0.72785 0.14637 0.62637 0.0
C734 C 0.7469 0.14836 0.609 0.0
C735 C 0.76701 0.13241 0.61175 0.0
C736 C 0.7465 0.16726 0.58881 0.0
C737 C 0.70595 0.16332 0.62586 0.0
C738 C 0.73185 0.17465 0.56977 0.0
C739 C 0.73081 0.19298 0.55189 0.0
C740 C 0.74473 0.20418 0.55226 0.0
C741 C 0.75991 0.19638 0.57072 0.0
C742 C 0.76075 0.17818 0.58877 0.0
H743 H 0.69497 0.16192 0.6449 0.0
H744 H 0.7081 0.17866 0.62184 0.0
H745 H 0.69755 0.16241 0.60996 0.0
H746 H 0.7211 0.16629 0.56876 0.0
H747 H 0.71905 0.19838 0.53782 0.0
H748 H 0.92761 0.02019 0.98071 0.0
H749 H 0.89238 0.02908 0.96463 0.0
H750 H 0.90574 0.08009 0.90917 0.0
H751 H 0.94144 0.07095 0.92491 0.0
H752 H 0.85552 0.06461 0.9606 0.0
H753 H 0.89801 0.04503 0.86178 0.0
H754 H 0.91255 0.03865 0.89003 0.0
H755 H 0.90418 0.06458 0.87251 0.0
C756 C 0.92297 0.03341 0.96524 0.0
C757 C 0.93728 0.04476 0.95375 0.0
C758 C 0.90281 0.03852 0.95617 0.0
C759 C 0.89665 0.05506 0.9355 0.0
C760 C 0.91043 0.06706 0.92485 0.0
H761 H 0.79234 0.06973 0.8444 0.0
H762 H 0.81797 0.07935 0.86298 0.0
C763 C 0.93073 0.06186 0.93384 0.0
C764 C 0.87659 0.05849 0.92399 0.0
H765 H 0.85978 0.05289 0.86936 0.0
C766 C 0.85633 0.06239 0.94051 0.0
C767 C 0.87779 0.05554 0.89779 0.0
C768 C 0.89928 0.05057 0.87948 0.0
C769 C 0.83733 0.06268 0.93179 0.0
C770 C 0.8388 0.05875 0.90605 0.0
C771 C 0.85877 0.05595 0.88908 0.0
C772 C 0.82071 0.05513 0.89717 0.0
C773 C 0.816 0.06671 0.95036 0.0
C774 C 0.8137 0.03843 0.91041 0.0
C775 C 0.79926 0.03279 0.89977 0.0
C776 C 0.79174 0.04367 0.87558 0.0
C777 C 0.79814 0.06088 0.86289 0.0
C778 C 0.81259 0.06651 0.87355 0.0
H779 H 0.81577 0.07583 0.9652 0.0
H780 H 0.80165 0.07498 0.93934 0.0
H781 H 0.81419 0.05184 0.96127 0.0
H782 H 0.82026 0.02911 0.92829 0.0
H783 H 0.79485 0.0193 0.90981 0.0
H784 H 0.03425 0.02441 0.01222 0.0
H785 H 0.06831 0.02022 0.02797 0.0
H786 H 0.05036 0.98212 0.09994 0.0
H787 H 0.01661 0.98532 0.08338 0.0
H788 H 0.06995 0.03416 0.06903 0.0
H789 H 0.11444 0.95056 0.08403 0.0
H790 H 0.09134 0.96213 0.06545 0.0
H791 H 0.08688 0.95667 0.10111 0.0
C792 C 0.03787 0.01458 0.03102 0.0
C793 C 0.02292 1.00501 0.0465 0.0
C794 C 0.0573 1.0123 0.04007 0.0
C795 C 0.06202 1.0007 0.06502 0.0
C796 C 0.04734 0.99072 0.08034 0.0
H797 H 0.13949 0.02348 0.16203 0.0
H798 H 0.11065 0.02064 0.14143 0.0
C799 C 0.02799 0.99268 0.071 0.0
C800 C 0.08102 1.00106 0.07593 0.0
H801 H 0.12684 0.97084 0.10463 0.0
C802 C 0.08248 0.02028 0.07659 0.0
C803 C 0.09751 0.98298 0.08548 0.0
C804 C 0.09763 0.96193 0.08374 0.0
C805 C 0.09973 0.02195 0.08699 0.0
C806 C 0.11554 1.00389 0.09782 0.0
C807 C 0.11446 0.98464 0.09662 0.0
C808 C 0.13312 1.0048 0.11081 0.0
C809 C 0.10094 0.04303 0.08602 0.0
C810 C 0.15531 0.99629 0.10082 0.0
C811 C 0.17187 0.99766 0.11276 0.0
C812 C 0.16647 1.00747 0.13496 0.0
C813 C 0.1442 0.0157 0.14509 0.0
C814 C 0.12769 0.01427 0.1332 0.0
H815 H 0.09173 0.05453 0.07048 0.0
H816 H 0.0935 0.04804 0.10541 0.0
H817 H 0.11827 0.04295 0.08209 0.0
H818 H 0.15978 0.9888 0.08364 0.0
H819 H 0.18889 0.99087 0.10477 0.0
H820 H 0.018 0.44492 0.47437 0.0
H821 H 0.01081 0.41888 0.45708 0.0
H822 H 0.94393 0.43675 0.49585 0.0
H823 H 0.95087 0.46264 0.51355 0.0
H824 H 0.96161 0.39467 0.49512 0.0
H825 H 0.97365 0.44094 0.39575 0.0
H826 H -0.0029 0.43276 0.41317 0.0
H827 H 0.97146 0.4501 0.42602 0.0
C828 C 0.00187 0.44307 0.47968 0.0
C829 C 0.98489 0.45619 0.49483 0.0
C830 C -0.00222 0.42824 0.46971 0.0
C831 C 0.97664 0.42642 0.47454 0.0
C832 C 0.96023 0.4382 0.49157 0.0
H833 H 0.94175 0.37635 0.35894 0.0
H834 H 0.93764 0.39805 0.39135 0.0
C835 C 0.96429 0.45299 0.50164 0.0
C836 C 0.97107 0.41386 0.45971 0.0
H837 H 0.97075 0.40826 0.39681 0.0
C838 C 0.96347 0.39765 0.47363 0.0
C839 C 0.97272 0.4183 0.43174 0.0
C840 C 0.97894 0.43661 0.41578 0.0
C841 C 0.95852 0.38507 0.46014 0.0
C842 C 0.96172 0.38864 0.43208 0.0
C843 C 0.96839 0.40543 0.41831 0.0
C844 C 0.96008 0.37444 0.41627 0.0
C845 C 0.94988 0.36819 0.47606 0.0
C846 C 0.97344 0.3538 0.42002 0.0
C847 C 0.97559 0.34138 0.40173 0.0
C848 C 0.96472 0.34949 0.37913 0.0
C849 C 0.95038 0.36979 0.37615 0.0
C850 C 0.948 0.38214 0.39466 0.0
H851 H 0.9408 0.37217 0.49552 0.0
H852 H 0.93877 0.36503 0.4653 0.0
H853 H 0.96394 0.35395 0.48002 0.0
H854 H 0.9834 0.34764 0.43606 0.0
H855 H 0.98701 0.32586 0.40428 0.0
H856 H 0.70032 0.25936 0.58964 0.0
H857 H 0.66326 0.25969 0.61007 0.0
H858 H 0.63706 0.29767 0.53932 0.0
H859 H 0.67426 0.29777 0.51891 0.0
H860 H 0.61248 0.31091 0.58512 0.0
H861 H 0.62813 0.22785 0.59267 0.0
H862 H 0.64819 0.23262 0.60691 0.0
H863 H 0.64641 0.2409 0.57197 0.0
C864 C 0.68665 0.26786 0.57848 0.0
C865 C 0.69011 0.27837 0.55262 0.0
C866 C 0.66554 0.26785 0.59005 0.0
C867 C 0.64752 0.27825 0.57593 0.0
C868 C 0.65081 0.28932 0.55039 0.0
H869 H 0.52442 0.25609 0.65565 0.0
H870 H 0.55386 0.26025 0.61986 0.0
C871 C 0.672 0.28937 0.53879 0.0
C872 C 0.62524 0.278 0.58848 0.0
H873 H 0.5972 0.24539 0.62205 0.0
C874 C 0.60897 0.29663 0.59281 0.0
C875 C 0.62048 0.25941 0.59784 0.0
C876 C 0.63665 0.23909 0.59185 0.0
C877 C 0.58859 0.29702 0.60795 0.0
C878 C 0.58467 0.27826 0.61954 0.0
C879 C 0.60033 0.25976 0.61354 0.0
C880 C 0.56553 0.27732 0.63987 0.0
C881 C 0.57165 0.31751 0.61178 0.0
C882 C 0.56237 0.28546 0.663 0.0
C883 C 0.54559 0.28321 0.68335 0.0
C884 C 0.53173 0.27248 0.68123 0.0
C885 C 0.53476 0.26447 0.65793 0.0
C886 C 0.55156 0.26683 0.63745 0.0
H887 H 0.57349 0.32964 0.5946 0.0
H888 H 0.55464 0.31689 0.61446 0.0
H889 H 0.57406 0.32205 0.62965 0.0
H890 H 0.57334 0.29306 0.66569 0.0
H891 H 0.54389 0.28947 0.70104 0.0
H892 H 0.74634 0.93838 0.76596 0.0
H893 H 0.74481 0.91112 0.80372 0.0
H894 H 0.70455 0.95622 0.85227 0.0
H895 H 0.70641 0.98383 0.81432 0.0
H896 H 0.73731 0.92595 0.87822 0.0
H897 H 0.69344 0.89011 0.83385 0.0
H898 H 0.718 0.89257 0.81295 0.0
H899 H 0.69563 0.91524 0.82001 0.0
C900 C 0.737 0.94255 0.78461 0.0
C901 C 0.72627 0.96328 0.78705 0.0
C902 C 0.73606 0.9269 0.8062 0.0
C903 C 0.72417 0.9315 0.83078 0.0
C904 C 0.71366 0.95224 0.83346 0.0
H905 H 0.69621 0.83324 0.95365 0.0
H906 H 0.69292 0.8649 0.92147 0.0
C907 C 0.71465 0.968 0.81176 0.0
C908 C 0.72323 0.91456 0.85359 0.0
H909 H 0.71102 0.86975 0.87149 0.0
C910 C 0.73135 0.91377 0.87686 0.0
C911 C 0.71516 0.89876 0.8521 0.0
C912 C 0.70485 0.89928 0.82849 0.0
C913 C 0.73235 0.8973 0.89819 0.0
C914 C 0.72543 0.88091 0.89606 0.0
C915 C 0.7166 0.8821 0.87314 0.0
C916 C 0.72732 0.86228 0.9171 0.0
C917 C 0.74061 0.89777 0.9229 0.0
C918 C 0.74776 0.85011 0.92554 0.0
C919 C 0.74967 0.83202 0.94416 0.0
C920 C 0.73123 0.82548 0.95453 0.0
C921 C 0.71077 0.83775 0.94616 0.0
C922 C 0.70886 0.8559 0.92768 0.0
H923 H 0.73848 0.91371 0.92481 0.0
H924 H 0.73191 0.89075 0.94097 0.0
H925 H 0.75845 0.88899 0.92182 0.0
H926 H 0.7624 0.85431 0.91725 0.0
H927 H 0.76573 0.82292 0.94993 0.0
H928 H 0.21173 0.25533 0.09813 0.0
H929 H 0.17516 0.25772 0.1223 0.0
H930 H 0.14561 0.30037 0.0561 0.0
H931 H 0.18237 0.29729 0.03135 0.0
H932 H 0.14335 0.28885 0.13893 0.0
H933 H 0.11299 0.26 0.06878 0.0
H934 H 0.14137 0.25857 0.06585 0.0
H935 H 0.12106 0.28224 0.05406 0.0
C936 C 0.19743 0.26522 0.08875 0.0
C937 C 0.19978 0.2761 0.06291 0.0
C938 C 0.17654 0.26656 0.10254 0.0
C939 C 0.15761 0.27897 0.09088 0.0
C940 C 0.15995 0.29028 0.06524 0.0
H941 H 0.03217 0.30614 0.19591 0.0
H942 H 0.0637 0.31018 0.16364 0.0
C943 C 0.18091 0.28868 0.05124 0.0
C944 C 0.13558 0.28023 0.10604 0.0
H945 H 0.08731 0.27224 0.10514 0.0
C946 C 0.13108 0.28524 0.13153 0.0
C947 C 0.1197 0.27528 0.09645 0.0
C948 C 0.12405 0.26852 0.06991 0.0
C949 C 0.11138 0.28504 0.14795 0.0
C950 C 0.09524 0.28059 0.13817 0.0
C951 C 0.09958 0.2759 0.11249 0.0
C952 C 0.07445 0.27933 0.15498 0.0
C953 C 0.10862 0.28866 0.17602 0.0
C954 C 0.06914 0.26115 0.15951 0.0
C955 C 0.05078 0.25904 0.17734 0.0
C956 C 0.03757 0.27498 0.19121 0.0
C957 C 0.04229 0.2935 0.18578 0.0
C958 C 0.06038 0.29577 0.16749 0.0
H959 H 0.1247 0.286 0.1825 0.0
H960 H 0.09846 0.30483 0.17717 0.0
H961 H 0.10032 0.27847 0.19014 0.0
H962 H 0.07968 0.24829 0.14999 0.0
H963 H 0.04754 0.24458 0.18118 0.0
H964 H 0.70804 0.48396 0.31637 0.0
H965 H 0.70556 0.45578 0.35327 0.0
H966 H 0.7479 0.41177 0.3042 0.0
H967 H 0.74977 0.43956 0.26744 0.0
H968 H 0.71429 0.4 0.32912 0.0
H969 H 0.74992 0.42063 0.40233 0.0
H970 H 0.72604 0.44043 0.39073 0.0
H971 H 0.75086 0.43283 0.36802 0.0
C972 C 0.71677 0.46825 0.31357 0.0
C973 C 0.729 0.46399 0.28896 0.0
C974 C 0.71553 0.45214 0.33473 0.0
C975 C 0.72678 0.43153 0.33175 0.0
C976 C 0.73902 0.42743 0.30714 0.0
H977 H 0.76273 0.32106 0.44953 0.0
H978 H 0.76045 0.35275 0.41763 0.0
C979 C 0.74009 0.4434 0.28607 0.0
C980 C 0.72554 0.41397 0.35364 0.0
H981 H 0.73662 0.39236 0.41703 0.0
C982 C 0.71912 0.3984 0.34837 0.0
C983 C 0.73211 0.41163 0.37872 0.0
C984 C 0.74033 0.42714 0.3853 0.0
C985 C 0.71934 0.38057 0.36711 0.0
C986 C 0.72546 0.37839 0.3924 0.0
C987 C 0.73172 0.39403 0.3978 0.0
C988 C 0.72634 0.35964 0.41301 0.0
C989 C 0.71385 0.36389 0.35911 0.0
C990 C 0.70782 0.35304 0.42165 0.0
C991 C 0.70916 0.33473 0.43967 0.0
C992 C 0.72894 0.32277 0.44993 0.0
C993 C 0.74722 0.32983 0.44207 0.0
C994 C 0.74593 0.34801 0.4238 0.0
H995 H 0.71584 0.36527 0.33721 0.0
H996 H 0.72446 0.34842 0.36734 0.0
H997 H 0.69643 0.36518 0.36678 0.0
H998 H 0.69231 0.36196 0.41431 0.0
H999 H 0.69467 0.32994 0.4455 0.0
H1000 H 0.52237 0.98152 0.57017 0.0
H1001 H 0.55094 0.98526 0.5904 0.0
H1002 H 0.51067 0.04744 0.59847 0.0
H1003 H 0.48258 0.04399 0.57717 0.0
H1004 H 0.54897 0.04755 0.5764 0.0
H1005 H 0.56073 0.98478 0.66237 0.0
H1006 H 0.56377 0.97454 0.63299 0.0
H1007 H 0.53761 0.99219 0.64429 0.0
C1008 C 0.51961 0.99588 0.57651 0.0
C1009 C 0.50054 1.01254 0.57175 0.0
C1010 C 0.53576 0.99793 0.58849 0.0
C1011 C 0.53292 0.0166 0.5962 0.0
C1012 C 0.51327 0.0329 0.59266 0.0
H1013 H 0.62914 0.04962 0.65633 0.0
H1014 H 0.59449 0.04986 0.64507 0.0
C1015 C 0.4972 0.03088 0.58058 0.0
C1016 C 0.55133 0.01983 0.60517 0.0
H1017 H 0.59171 0.99738 0.64522 0.0
C1018 C 0.55799 0.03679 0.59187 0.0
C1019 C 0.56311 1.00589 0.62542 0.0
C1020 C 0.55574 0.98849 0.64225 0.0
C1021 C 0.57674 0.03954 0.59733 0.0
C1022 C 0.58923 0.02485 0.61623 0.0
C1023 C 0.5822 1.00838 0.63031 0.0
C1024 C 0.61005 0.02597 0.62122 0.0
C1025 C 0.58368 0.05759 0.58212 0.0
C1026 C 0.63011 1.01264 0.61116 0.0
C1027 C 0.64988 1.01242 0.61755 0.0
C1028 C 0.6498 0.02545 0.63429 0.0
C1029 C 0.62965 0.03928 0.6436 0.0
C1030 C 0.6099 0.0395 0.63714 0.0
H1031 H 0.57138 0.06822 0.56925 0.0
H1032 H 0.58588 0.06627 0.596 0.0
H1033 H 0.59974 0.05203 0.56966 0.0
H1034 H 0.63041 1.00207 0.59887 0.0
H1035 H 0.6651 1.00144 0.61036 0.0
H1036 H 0.94917 0.96707 0.00824 0.0
H1037 H 0.94589 0.93903 0.99146 0.0
H1038 H 0.01221 0.92737 0.95082 0.0
H1039 H 0.01548 0.95592 0.96691 0.0
H1040 H 0.98253 0.93321 0.91818 0.0
H1041 H 0.96965 0.87711 0.00806 0.0
H1042 H 0.95088 0.90269 0.00874 0.0
H1043 H 0.97979 0.89763 0.0087 0.0
C1044 C 0.96329 0.9583 0.99619 0.0
C1045 C 0.98258 0.96386 0.98871 0.0
C1046 C 0.96139 0.94214 0.98676 0.0
C1047 C 0.97884 0.93102 0.97006 0.0
C1048 C -0.00146 0.93579 0.96373 0.0
H1049 H 0.00461 0.82553 0.90275 0.0
H1050 H -0.00125 0.84972 0.93232 0.0
C1051 C 0.00041 0.95208 0.97297 0.0
C1052 C 0.97576 0.91606 0.95673 0.0
H1053 H 0.96387 0.87138 0.96733 0.0
C1054 C 0.97846 0.91968 0.92893 0.0
C1055 C 0.97026 0.89854 0.97086 0.0
C1056 C 0.96765 0.89362 1.00074 0.0
C1057 C 0.97633 0.90604 0.91478 0.0
C1058 C 0.97083 0.88852 0.92885 0.0
C1059 C 0.96775 0.88502 0.95667 0.0
C1060 C 0.97094 0.87254 0.91483 0.0
C1061 C 0.98088 0.9101 0.88488 0.0
C1062 C 0.95652 0.87697 0.8961 0.0
C1063 C 0.95996 0.86322 0.87898 0.0
C1064 C 0.97784 0.8449 0.8805 0.0
C1065 C -0.00903 0.83975 0.90086 0.0
C1066 C -0.01245 0.85347 0.91787 0.0
H1067 H -0.0111 0.92214 0.87747 0.0
H1068 H -0.00835 0.89588 0.87728 0.0
H1069 H 0.96513 0.91536 0.87653 0.0
H1070 H 0.94339 0.89153 0.89377 0.0
H1071 H 0.94957 0.8675 0.86351 0.0
H1072 H 0.09903 0.07748 0.92047 0.0
H1073 H 0.11639 0.10002 0.93014 0.0
H1074 H 0.11295 0.07132 0.01238 0.0
H1075 H 0.09488 0.04915 0.00304 0.0
H1076 H 0.09619 0.11345 0.00551 0.0
H1077 H 0.17823 0.0892 0.94593 0.0
H1078 H 0.15599 0.09534 0.92707 0.0
H1079 H 0.16007 0.07391 0.95395 0.0
C1080 C 0.10211 0.07586 0.94058 0.0
C1081 C 0.09557 0.06154 0.96098 0.0
C1082 C 0.11226 0.08859 0.94602 0.0
C1083 C 0.11623 0.08715 0.9719 0.0
C1084 C 0.11019 0.07256 0.99222 0.0
H1085 H 0.18631 0.15963 0.01092 0.0
H1086 H 0.17461 0.13113 0.0075 0.0
C1087 C 0.10002 0.0598 0.9868 0.0
C1088 C 0.12503 0.102 0.97803 0.0
H1089 H 0.16751 0.12169 0.96023 0.0
C1090 C 0.11191 0.11508 0.99587 0.0
C1091 C 0.14562 0.10399 0.9656 0.0
C1092 C 0.1609 0.08972 0.94727 0.0
C1093 C 0.11844 0.13064 1.00083 0.0
C1094 C 0.13849 0.13329 0.98736 0.0
C1095 C 0.15203 0.11971 0.97033 0.0
C1096 C 0.14532 0.15052 0.98999 0.0
C1097 C 0.10379 0.14419 0.02032 0.0
C1098 C 0.1328 0.17081 0.98104 0.0
C1099 C 0.13953 0.1871 0.98271 0.0
C1100 C 0.15894 0.18342 0.99334 0.0
C1101 C 0.17141 0.16302 0.00236 0.0
C1102 C 0.16471 0.14671 1.00056 0.0
H1103 H 0.0922 0.13694 0.03389 0.0
H1104 H 0.11371 0.14774 0.03235 0.0
H1105 H 0.09392 0.15887 0.00929 0.0
H1106 H 0.11801 0.17402 0.97232 0.0
H1107 H 0.12976 0.20256 0.97508 0.0
H1108 H 0.67681 0.56643 0.21471 0.0
H1109 H 0.64552 0.59806 0.21617 0.0
H1110 H 0.64008 0.58717 0.30142 0.0
H1111 H 0.67139 0.5554 0.30022 0.0
H1112 H 0.59829 0.60215 0.28012 0.0
H1113 H 0.65253 0.64953 0.23423 0.0
H1114 H 0.65381 0.63015 0.21634 0.0
H1115 H 0.66327 0.62271 0.24821 0.0
C1116 C 0.66882 0.57055 0.23385 0.0
C1117 C 0.67679 0.55835 0.25736 0.0
C1118 C 0.65096 0.58874 0.23461 0.0
C1119 C 0.64065 0.59518 0.25887 0.0
C1120 C 0.64783 0.58256 0.28245 0.0
H1121 H 0.56558 0.71391 0.29863 0.0
H1122 H 0.59167 0.68008 0.29274 0.0
C1123 C 0.66576 0.56437 0.28172 0.0
C1124 C 0.62317 0.61554 0.25961 0.0
H1125 H 0.61462 0.66719 0.24334 0.0
C1126 C 0.6018 0.61638 0.27193 0.0
C1127 C 0.62781 0.63412 0.24909 0.0
C1128 C 0.65061 0.63423 0.23638 0.0
C1129 C 0.58499 0.63529 0.27407 0.0
C1130 C 0.58966 0.65384 0.2636 0.0
C1131 C 0.611 0.65297 0.25116 0.0
C1132 C 0.5732 0.67428 0.26714 0.0
C1133 C 0.56252 0.63533 0.28825 0.0
C1134 C 0.55408 0.68243 0.25458 0.0
C1135 C 0.53909 0.70195 0.25784 0.0
C1136 C 0.54296 0.71358 0.27377 0.0
C1137 C 0.56208 0.70533 0.28628 0.0
C1138 C 0.57704 0.68598 0.28291 0.0
H1139 H 0.56248 0.61979 0.29873 0.0
H1140 H 0.55666 0.64597 0.30284 0.0
H1141 H 0.55065 0.64083 0.27362 0.0
H1142 H 0.5509 0.67381 0.24202 0.0
H1143 H 0.5246 0.70796 0.24782 0.0
H1144 H 0.30407 0.85292 0.50572 0.0
H1145 H 0.31799 0.88163 0.4989 0.0
H1146 H 0.37682 0.84889 0.45237 0.0
H1147 H 0.36286 0.81994 0.45898 0.0
H1148 H 0.38588 0.86415 0.49053 0.0
H1149 H 0.32331 0.92541 0.43502 0.0
H1150 H 0.31066 0.91288 0.46439 0.0
H1151 H 0.3264 0.89855 0.43848 0.0
C1152 C 0.31974 0.85196 0.4935 0.0
C1153 C 0.33228 0.83416 0.48276 0.0
C1154 C 0.32766 0.86844 0.48957 0.0
C1155 C 0.34824 0.86758 0.47468 0.0
C1156 C 0.3608 0.84992 0.46374 0.0
H1157 H 0.39139 0.97531 0.4549 0.0
H1158 H 0.3819 0.94784 0.444 0.0
C1159 C 0.35286 0.83337 0.46767 0.0
C1160 C 0.35721 0.88447 0.4727 0.0
H1161 H 0.34331 0.9367 0.45952 0.0
C1162 C 0.37678 0.87998 0.48329 0.0
C1163 C 0.34561 0.90509 0.46275 0.0
C1164 C 0.32546 0.91075 0.44925 0.0
C1165 C 0.38416 0.89569 0.486 0.0
C1166 C 0.3714 0.91637 0.47837 0.0
C1167 C 0.35277 0.92082 0.46593 0.0
C1168 C 0.37629 0.9335 0.48478 0.0
C1169 C 0.40523 0.89 0.49769 0.0
C1170 C 0.37539 0.93496 0.51133 0.0
C1171 C 0.38004 0.95104 0.51761 0.0
C1172 C 0.38586 0.96589 0.49744 0.0
C1173 C 0.38645 0.96447 0.47087 0.0
C1174 C 0.38138 0.9486 0.4646 0.0
H1175 H 0.4167 0.87482 0.49349 0.0
H1176 H 0.41371 0.90163 0.48989 0.0
H1177 H 0.40134 0.88899 0.51953 0.0
H1178 H 0.37098 0.92368 0.52721 0.0
H1179 H 0.37906 0.95181 0.5383 0.0
H1180 H 0.04916 0.70358 0.80042 0.0
H1181 H 0.07314 0.66914 0.79431 0.0
H1182 H 0.04941 0.67732 0.72004 0.0
H1183 H 0.02524 0.71228 0.72611 0.0
H1184 H 0.06278 0.6348 0.78725 0.0
H1185 H 0.11759 0.66086 0.70089 0.0
H1186 H 0.09879 0.67813 0.72229 0.0
H1187 H 0.08851 0.66996 0.69885 0.0
C1188 C 0.04887 0.69804 0.78284 0.0
C1189 C 0.03522 0.71061 0.76378 0.0
C1190 C 0.06261 0.6783 0.77939 0.0
C1191 C 0.0633 0.67061 0.75664 0.0
C1192 C 0.04936 0.68296 0.73767 0.0
H1193 H 0.1649 0.55652 0.7153 0.0
H1194 H 0.1319 0.58695 0.71421 0.0
C1195 C 0.03539 0.70283 0.74124 0.0
C1196 C 0.0791 0.64985 0.75311 0.0
H1197 H 0.12824 0.6257 0.71856 0.0
C1198 C 0.07694 0.63277 0.772 0.0
C1199 C 0.09758 0.64711 0.73319 0.0
C1200 C 0.10099 0.66493 0.71267 0.0
C1201 C 0.09296 0.61324 0.77196 0.0
C1202 C 0.11205 0.61071 0.75291 0.0
C1203 C 0.11372 0.62758 0.73327 0.0
C1204 C 0.1311 0.59118 0.75416 0.0
C1205 C 0.08929 0.59553 0.79251 0.0
C1206 C 0.14172 0.58323 0.77698 0.0
C1207 C 0.16052 0.56578 0.77773 0.0
C1208 C 0.16938 0.55584 0.75557 0.0
C1209 C 0.1585 0.56359 0.73285 0.0
C1210 C 0.13965 0.5811 0.73213 0.0
H1211 H 0.07146 0.59807 0.79919 0.0
H1212 H 0.09657 0.58084 0.78476 0.0
H1213 H 0.09713 0.59412 0.81009 0.0
H1214 H 0.13587 0.59092 0.79404 0.0
H1215 H 0.16847 0.56047 0.79549 0.0
H1216 H 0.79233 0.35519 0.54533 0.0
H1217 H 0.80396 0.38501 0.54203 0.0
H1218 H 0.85186 0.36695 0.47472 0.0
H1219 H 0.84001 0.3372 0.47769 0.0
H1220 H 0.84426 0.38428 0.54751 0.0
H1221 H 0.82323 0.42743 0.44831 0.0
H1222 H 0.81303 0.40664 0.46533 0.0
H1223 H 0.84059 0.40132 0.44805 0.0
C1224 C 0.80527 0.35765 0.52973 0.0
C1225 C 0.81532 0.34387 0.5118 0.0
C1226 C 0.81183 0.37472 0.5278 0.0
C1227 C 0.82859 0.37836 0.50794 0.0
C1228 C 0.83853 0.36474 0.4898 0.0
H1229 H 0.90639 0.45815 0.49074 0.0
H1230 H 0.89121 0.43244 0.48579 0.0
C1231 C 0.83182 0.34771 0.49158 0.0
C1232 C 0.83658 0.39561 0.50751 0.0
H1233 H 0.84474 0.43908 0.46908 0.0
C1234 C 0.84422 0.39632 0.53041 0.0
C1235 C 0.83658 0.41127 0.48513 0.0
C1236 C 0.82773 0.4118 0.46039 0.0
C1237 C 0.85199 0.41217 0.53148 0.0
C1238 C 0.85206 0.42773 0.50913 0.0
C1239 C 0.84459 0.42706 0.48615 0.0
C1240 C 0.86007 0.4447 0.50951 0.0
C1241 C 0.86035 0.41211 0.55638 0.0
C1242 C 0.84729 0.46035 0.52394 0.0
C1243 C 0.85583 0.4752 0.52668 0.0
C1244 C 0.87738 0.47455 0.51517 0.0
C1245 C 0.88973 0.45926 0.49977 0.0
C1246 C 0.88112 0.44449 0.49695 0.0
H1247 H 0.86181 0.39758 0.5707 0.0
H1248 H 0.8767 0.41442 0.55144 0.0
H1249 H 0.84884 0.42501 0.56616 0.0
H1250 H 0.83091 0.46077 0.53362 0.0
H1251 H 0.84567 0.48699 0.53817 0.0
H1252 H 0.3162 0.97523 0.21422 0.0
H1253 H 0.34925 0.94488 0.21304 0.0
H1254 H 0.33319 0.92483 0.29663 0.0
H1255 H 0.30054 0.95511 0.29806 0.0
H1256 H 0.37733 0.91748 0.28334 0.0
H1257 H 0.34568 0.88887 0.21405 0.0
H1258 H 0.34886 0.91364 0.20161 0.0
H1259 H 0.32894 0.91042 0.23002 0.0
C1260 C 0.31985 0.96449 0.23241 0.0
C1261 C 0.30564 0.96769 0.25623 0.0
C1262 C 0.33871 0.94705 0.23168 0.0
C1263 C 0.34356 0.9323 0.25466 0.0
C1264 C 0.32987 0.93593 0.27862 0.0
H1265 H 0.41324 0.80325 0.26571 0.0
H1266 H 0.38732 0.83782 0.26696 0.0
C1267 C 0.31116 0.95337 0.27941 0.0
C1268 C 0.36207 0.91255 0.2537 0.0
H1269 H 0.38067 0.86901 0.22619 0.0
C1270 C 0.37814 0.90691 0.27073 0.0
C1271 C 0.363 0.89858 0.23755 0.0
C1272 C 0.34562 0.90303 0.21995 0.0
C1273 C 0.39491 0.8877 0.27223 0.0
C1274 C 0.3959 0.87384 0.2559 0.0
C1275 C 0.38002 0.87963 0.23862 0.0
C1276 C 0.41227 0.85274 0.2574 0.0
C1277 C 0.4109 0.88212 0.29199 0.0
C1278 C 0.4351 0.8494 0.25209 0.0
C1279 C 0.45006 0.82946 0.2516 0.0
C1280 C 0.44241 0.8126 0.25607 0.0
C1281 C 0.41965 0.81594 0.26202 0.0
C1282 C 0.40479 0.83574 0.2627 0.0
H1283 H 0.40471 0.89212 0.30735 0.0
H1284 H 0.41419 0.86589 0.30197 0.0
H1285 H 0.42674 0.88399 0.28146 0.0
H1286 H 0.44134 0.86224 0.24748 0.0
H1287 H 0.46751 0.82735 0.24681 0.0
H1288 H 0.30727 0.47054 0.70514 0.0
H1289 H 0.3392 0.43931 0.70404 0.0
H1290 H 0.32981 0.42559 0.78944 0.0
H1291 H 0.29838 0.45706 0.79074 0.0
H1292 H 0.37315 0.41541 0.77074 0.0
H1293 H 0.33201 0.38369 0.71609 0.0
H1294 H 0.33569 0.40751 0.69882 0.0
H1295 H 0.31787 0.40683 0.72987 0.0
C1296 C 0.31216 0.46103 0.72371 0.0
C1297 C 0.30008 0.46631 0.74801 0.0
C1298 C 0.33036 0.44305 0.72305 0.0
C1299 C 0.33666 0.42972 0.74664 0.0
C1300 C 0.32528 0.43549 0.77094 0.0
H1301 H 0.40457 0.29935 0.76073 0.0
H1302 H 0.37906 0.33398 0.76292 0.0
C1303 C 0.30725 0.45356 0.77163 0.0
C1304 C 0.35429 0.40934 0.7461 0.0
H1305 H 0.36859 0.3642 0.72307 0.0
C1306 C 0.37218 0.40421 0.76028 0.0
C1307 C 0.35292 0.39451 0.73285 0.0
C1308 C 0.3335 0.39828 0.71877 0.0
C1309 C 0.38863 0.38479 0.76153 0.0
C1310 C 0.38747 0.37017 0.74775 0.0
C1311 C 0.36964 0.37537 0.73351 0.0
C1312 C 0.40381 0.34902 0.74868 0.0
C1313 C 0.40667 0.37991 0.77831 0.0
C1314 C 0.42646 0.34568 0.7404 0.0
C1315 C 0.44121 0.3257 0.73944 0.0
C1316 C 0.43351 0.30875 0.74633 0.0
C1317 C 0.411 0.31209 0.75516 0.0
C1318 C 0.39637 0.33193 0.75637 0.0
H1319 H 0.40193 0.39027 0.79314 0.0
H1320 H 0.41089 0.36379 0.78891 0.0
H1321 H 0.42165 0.38195 0.76535 0.0
H1322 H 0.43265 0.35853 0.73384 0.0
H1323 H 0.45846 0.32361 0.73241 0.0
H1324 H 0.18302 0.79178 0.52592 0.0
H1325 H 0.14729 0.79417 0.55309 0.0
H1326 H 0.1801 0.76325 0.62206 0.0
H1327 H 0.2158 0.76046 0.59493 0.0
H1328 H 0.14984 0.74636 0.6151 0.0
H1329 H 0.11312 0.83093 0.60839 0.0
H1330 H 0.12297 0.82222 0.57706 0.0
H1331 H 0.14216 0.8184 0.59942 0.0
C1332 C 0.18255 0.78567 0.54692 0.0
C1333 C 0.20213 0.77588 0.55835 0.0
C1334 C 0.16215 0.78715 0.56243 0.0
C1335 C 0.16106 0.77906 0.58963 0.0
C1336 C 0.1806 0.76964 0.60112 0.0
H1337 H 0.05149 0.79203 0.7147 0.0
H1338 H 0.0841 0.79429 0.68356 0.0
C1339 C 0.20096 0.7681 0.58563 0.0
C1340 C 0.1397 0.77935 0.60596 0.0
H1341 H 0.08984 0.81113 0.62938 0.0
C1342 C 0.1367 0.76052 0.61822 0.0
C1343 C 0.12269 0.79786 0.61011 0.0
C1344 C 0.12537 0.81853 0.59827 0.0
C1345 C 0.11715 0.75965 0.63458 0.0
C1346 C 0.09998 0.77813 0.63839 0.0
C1347 C 0.10296 0.79699 0.62617 0.0
C1348 C 0.07922 0.77813 0.65599 0.0
C1349 C 0.11529 0.73895 0.64822 0.0
C1350 C 0.06536 0.76876 0.65043 0.0
C1351 C 0.04672 0.76735 0.66823 0.0
C1352 C 0.04153 0.77542 0.69187 0.0
C1353 C 0.05499 0.78556 0.69679 0.0
C1354 C 0.07364 0.78691 0.67898 0.0
H1355 H 0.13163 0.72678 0.64819 0.0
H1356 H 0.10737 0.73943 0.66906 0.0
H1357 H 0.10497 0.73461 0.63767 0.0
H1358 H 0.06917 0.76223 0.63251 0.0
H1359 H 0.03665 0.75958 0.66367 0.0
H1360 H 0.24714 0.9389 0.27272 0.0
H1361 H 0.24456 0.91064 0.30851 0.0
H1362 H 0.20444 0.95377 0.35976 0.0
H1363 H 0.2072 0.98244 0.32367 0.0
H1364 H 0.23696 0.92157 0.38485 0.0
H1365 H 0.19196 0.8906 0.33497 0.0
H1366 H 0.21664 0.8934 0.31473 0.0
H1367 H 0.19464 0.91579 0.3235 0.0
C1368 C 0.2376 0.94246 0.29152 0.0
C1369 C 0.22723 0.96296 0.29526 0.0
C1370 C 0.23607 0.92622 0.31199 0.0
C1371 C 0.22394 0.92997 0.33675 0.0
C1372 C 0.21375 0.95045 0.34077 0.0
H1373 H 0.19674 0.82638 0.45071 0.0
H1374 H 0.19266 0.85945 0.42122 0.0
C1375 C 0.21531 0.96683 0.32015 0.0
C1376 C 0.22249 0.91234 0.35831 0.0
H1377 H 0.20978 0.86785 0.37138 0.0
C1378 C 0.23077 0.90995 0.38204 0.0
C1379 C 0.2141 0.89725 0.35495 0.0
C1380 C 0.20362 0.89947 0.33078 0.0
C1381 C 0.23176 0.89253 0.40193 0.0
C1382 C 0.22466 0.87681 0.39781 0.0
C1383 C 0.21551 0.87966 0.37454 0.0
C1384 C 0.22698 0.8571 0.41694 0.0
C1385 C 0.2403 0.89126 0.42721 0.0
C1386 C 0.24765 0.84453 0.42434 0.0
C1387 C 0.25001 0.82565 0.44134 0.0
C1388 C 0.2318 0.81868 0.45114 0.0
C1389 C 0.21113 0.83122 0.44362 0.0
C1390 C 0.20877 0.85018 0.42672 0.0
H1391 H 0.23805 0.90676 0.43099 0.0
H1392 H 0.23189 0.88323 0.44454 0.0
H1393 H 0.25819 0.88264 0.42542 0.0
H1394 H 0.26213 0.84911 0.41654 0.0
H1395 H 0.26624 0.81638 0.44642 0.0
H1396 H 0.01566 0.70308 0.5889 0.0
H1397 H 0.01862 0.68157 0.55667 0.0
H1398 H 0.00732 0.6342 0.62062 0.0
H1399 H 0.00408 0.65555 0.65279 0.0
H1400 H 0.0403 0.61988 0.57798 0.0
H1401 H 0.96129 0.67397 0.54459 0.0
H1402 H 0.98312 0.68425 0.54288 0.0
H1403 H 0.97026 0.67496 0.57457 0.0
C1404 C 0.01409 0.68797 0.59606 0.0
C1405 C 0.00942 0.68108 0.62337 0.0
C1406 C 0.01577 0.67575 0.57765 0.0
C1407 C 0.01279 0.65652 0.58635 0.0
C1408 C 0.00963 0.64906 0.61359 0.0
H1409 H 0.96059 0.5796 0.53909 0.0
H1410 H 0.96782 0.6073 0.55267 0.0
C1411 C 0.00792 0.66123 0.63196 0.0
C1412 C 0.01122 0.6446 0.56748 0.0
H1413 H 0.9761 0.6428 0.52863 0.0
C1414 C 0.02651 0.62495 0.56678 0.0
C1415 C -0.00694 0.65136 0.55314 0.0
C1416 C 0.97586 0.67223 0.55382 0.0
C1417 C 0.02357 0.61137 0.55316 0.0
C1418 C 0.00501 0.61787 0.53946 0.0
C1419 C -0.0097 0.63792 0.53911 0.0
C1420 C -0.00067 0.60339 0.52793 0.0
C1421 C 0.0397 0.58987 0.55492 0.0
C1422 C 0.01417 0.5927 0.50865 0.0
C1423 C 0.01019 0.57675 0.50114 0.0
C1424 C -0.00892 0.57154 0.51239 0.0
C1425 C 0.97539 0.58336 0.53004 0.0
C1426 C 0.97954 0.59913 0.53784 0.0
H1427 H 0.05106 0.58857 0.53607 0.0
H1428 H 0.04981 0.58596 0.57125 0.0
H1429 H 0.03101 0.57845 0.55809 0.0
H1430 H 0.02926 0.5961 0.50026 0.0
H1431 H 0.02249 0.56801 0.48724 0.0
H1432 H 0.30097 0.71847 0.47504 0.0
H1433 H 0.33751 0.71599 0.4501 0.0
H1434 H 0.30739 0.76168 0.38649 0.0
H1435 H 0.2709 0.76364 0.41097 0.0
H1436 H 0.34029 0.73135 0.3676 0.0
H1437 H 0.36829 0.7575 0.44264 0.0
H1438 H 0.36043 0.73493 0.45549 0.0
H1439 H 0.34012 0.75875 0.4442 0.0
C1440 C 0.30223 0.72783 0.45563 0.0
C1441 C 0.28323 0.74131 0.44491 0.0
C1442 C 0.32307 0.72656 0.44153 0.0
C1443 C 0.3252 0.739 0.4167 0.0
C1444 C 0.30614 0.75201 0.40567 0.0
H1445 H 0.43529 0.77667 0.33456 0.0
H1446 H 0.40272 0.77177 0.36342 0.0
C1447 C 0.28532 0.7531 0.41962 0.0
C1448 C 0.34719 0.7386 0.4021 0.0
H1449 H 0.39484 0.74642 0.40632 0.0
C1450 C 0.35226 0.73461 0.37606 0.0
C1451 C 0.36261 0.74318 0.41307 0.0
C1452 C 0.35755 0.74904 0.44027 0.0
C1453 C 0.37219 0.7353 0.36052 0.0
C1454 C 0.38791 0.73929 0.37171 0.0
C1455 C 0.38293 0.74307 0.39789 0.0
C1456 C 0.40885 0.74121 0.35595 0.0
C1457 C 0.37569 0.73265 0.33192 0.0
C1458 C 0.42357 0.72541 0.34274 0.0
C1459 C 0.44207 0.72833 0.32578 0.0
C1460 C 0.44645 0.74688 0.32234 0.0
C1461 C 0.43243 0.76216 0.33684 0.0
C1462 C 0.41376 0.75939 0.35336 0.0
H1463 H 0.35989 0.73542 0.32466 0.0
H1464 H 0.38399 0.74329 0.31887 0.0
H1465 H 0.38618 0.71668 0.33007 0.0
H1466 H 0.42052 0.71099 0.34508 0.0
H1467 H 0.45273 0.71619 0.31507 0.0
H1468 H 0.26686 0.04096 0.19589 0.0
H1469 H 0.26786 0.06907 0.15854 0.0
H1470 H 0.24078 0.11271 0.21227 0.0
H1471 H 0.23893 0.0849 0.24919 0.0
H1472 H 0.22019 0.12631 0.17064 0.0
H1473 H 0.30972 0.10127 0.13545 0.0
H1474 H 0.29699 0.08254 0.13569 0.0
H1475 H 0.29804 0.08936 0.16643 0.0
C1476 C 0.26128 0.05655 0.19968 0.0
C1477 C 0.25285 0.0607 0.2255 0.0
C1478 C 0.262 0.07263 0.17833 0.0
C1479 C 0.2547 0.09313 0.18248 0.0
C1480 C 0.24653 0.09712 0.20839 0.0
H1481 H 0.27886 0.19991 0.07759 0.0
H1482 H 0.27988 0.16898 0.11057 0.0
C1483 C 0.24556 0.08116 0.22956 0.0
C1484 C 0.25464 0.11062 0.16002 0.0
H1485 H 0.28735 0.12985 0.1087 0.0
C1486 C 0.23492 0.12704 0.15712 0.0
C1487 C 0.27386 0.11183 0.14245 0.0
C1488 C 0.2959 0.09542 0.14525 0.0
C1489 C 0.23387 0.14456 0.13748 0.0
C1490 C 0.25293 0.14554 0.11944 0.0
C1491 C 0.27266 0.1291 0.12226 0.0
C1492 C 0.25292 0.16382 0.09827 0.0
C1493 C 0.21245 0.16214 0.13699 0.0
C1494 C 0.23781 0.17111 0.07978 0.0
C1495 C 0.237 0.18899 0.06108 0.0
C1496 C 0.25162 0.19981 0.06001 0.0
C1497 C 0.26735 0.19201 0.07779 0.0
C1498 C 0.26796 0.17427 0.0967 0.0
H1499 H 0.20179 0.16154 0.15641 0.0
H1500 H 0.21538 0.17717 0.1319 0.0
H1501 H 0.20331 0.1612 0.12188 0.0
H1502 H 0.22647 0.16306 0.07991 0.0
H1503 H 0.22482 0.19438 0.04753 0.0
H1504 H 0.76516 0.76434 0.9113 0.0
H1505 H 0.80049 0.76201 0.88351 0.0
H1506 H 0.83449 0.73026 0.95138 0.0
H1507 H 0.79912 0.73209 0.97918 0.0
H1508 H 0.83031 0.77915 0.89026 0.0
H1509 H 0.86872 0.6949 0.8949 0.0
H1510 H 0.83969 0.7068 0.90476 0.0
H1511 H 0.85927 0.70303 0.9266 0.0
C1512 C 0.78018 0.75657 0.9202 0.0
C1513 C 0.77946 0.74847 0.94738 0.0
C1514 C 0.80034 0.75531 0.90434 0.0
C1515 C 0.82011 0.74585 0.91534 0.0
C1516 C 0.81946 0.73732 0.94239 0.0
H1517 H 0.94267 0.76866 0.83962 0.0
H1518 H 0.9106 0.76526 0.87117 0.0
C1519 C 0.79926 0.7385 0.95827 0.0
C1520 C 0.84122 0.74612 0.89871 0.0
H1521 H 0.89131 0.71543 0.87411 0.0
C1522 C 0.84366 0.76522 0.88672 0.0
C1523 C 0.85852 0.72791 0.89402 0.0
C1524 C 0.85644 0.70698 0.90553 0.0
C1525 C 0.86291 0.76665 0.87008 0.0
C1526 C 0.88038 0.74846 0.86575 0.0
C1527 C 0.87796 0.72934 0.87772 0.0
C1528 C 0.90085 0.74904 0.84783 0.0
C1529 C 0.86412 0.7876 0.85671 0.0
C1530 C 0.90645 0.74036 0.82475 0.0
C1531 C 0.92485 0.74213 0.80674 0.0
C1532 C 0.93805 0.7526 0.81151 0.0
C1533 C 0.9328 0.76064 0.83517 0.0
C1534 C 0.91442 0.7588 0.8532 0.0
H1535 H 0.84758 0.79947 0.85709 0.0
H1536 H 0.87431 0.79214 0.86724 0.0
H1537 H 0.87188 0.78746 0.83578 0.0
H1538 H 0.89622 0.73269 0.82031 0.0
H1539 H 0.9284 0.73567 0.78881 0.0
H1540 H 0.2852 0.55643 0.72004 0.0
H1541 H 0.28796 0.58576 0.68536 0.0
H1542 H 0.23063 0.58638 0.65618 0.0
H1543 H 0.22819 0.55689 0.69016 0.0
H1544 H 0.26143 0.59274 0.61577 0.0
H1545 H 0.24928 0.6444 0.68708 0.0
H1546 H 0.27255 0.62147 0.69095 0.0
H1547 H 0.2452 0.61971 0.69727 0.0
C1548 C 0.27333 0.56273 0.70606 0.0
C1549 C 0.25639 0.55443 0.70799 0.0
C1550 C 0.27478 0.57963 0.68639 0.0
C1551 C 0.25918 0.58868 0.66844 0.0
C1552 C 0.24278 0.57985 0.66982 0.0
H1553 H 0.2218 0.69666 0.54701 0.0
H1554 H 0.22526 0.66458 0.57843 0.0
C1555 C 0.2414 0.56296 0.68932 0.0
C1556 C 0.25959 0.60744 0.6484 0.0
H1557 H 0.25634 0.65771 0.64165 0.0
C1558 C 0.26034 0.60693 0.62148 0.0
C1559 C 0.25808 0.62606 0.65572 0.0
C1560 C 0.25602 0.62809 0.68433 0.0
C1561 C 0.25971 0.62437 0.6018 0.0
C1562 C 0.25806 0.64297 0.60916 0.0
C1563 C 0.25765 0.64344 0.63599 0.0
C1564 C 0.25629 0.66224 0.58944 0.0
C1565 C 0.26101 0.62269 0.57322 0.0
C1566 C 0.27239 0.67185 0.58535 0.0
C1567 C 0.27049 0.69023 0.56732 0.0
C1568 C 0.25228 0.69958 0.55316 0.0
C1569 C 0.23612 0.68992 0.55739 0.0
C1570 C 0.23811 0.67147 0.5753 0.0
H1571 H 0.26773 0.60646 0.57012 0.0
H1572 H 0.24423 0.62933 0.56727 0.0
H1573 H 0.27146 0.63135 0.56002 0.0
H1574 H 0.28649 0.6651 0.59611 0.0
H1575 H 0.28321 0.69723 0.56474 0.0
H1576 H 0.3151 0.98652 0.42338 0.0
H1577 H 0.34899 0.98751 0.43526 0.0
H1578 H 0.37636 0.99386 0.35269 0.0
H1579 H 0.34274 0.99268 0.34074 0.0
H1580 H 0.40692 0.96839 0.38433 0.0
H1581 H 0.36221 0.04117 0.42272 0.0
H1582 H 0.35093 0.02093 0.43797 0.0
H1583 H 0.35018 0.03089 0.40319 0.0
C1584 C 0.32846 0.98792 0.40784 0.0
C1585 C 0.32627 0.98967 0.38115 0.0
C1586 C 0.34773 0.98856 0.41461 0.0
C1587 C 0.36492 0.99125 0.39476 0.0
C1588 C 0.36322 0.9919 0.36826 0.0
H1589 H 0.46233 0.03441 0.4348 0.0
H1590 H 0.43322 0.03222 0.41361 0.0
C1591 C 0.34405 0.99111 0.3615 0.0
C1592 C 0.38428 0.99428 0.40141 0.0
H1593 H 0.399 0.02442 0.43173 0.0
C1594 C 0.40527 0.98068 0.3946 0.0
C1595 C 0.38213 1.01081 0.41383 0.0
C1596 C 0.36019 0.02693 0.41961 0.0
C1597 C 0.42415 0.98265 0.40091 0.0
C1598 C 0.42181 0.99812 0.41549 0.0
C1599 C 0.40087 1.01231 0.42106 0.0
C1600 C 0.44055 0.99934 0.42625 0.0
C1601 C 0.44635 0.9685 0.39116 0.0
C1602 C 0.45437 0.98171 0.44036 0.0
C1603 C 0.47156 0.98285 0.45118 0.0
C1604 C 0.47444 1.00183 0.44957 0.0
C1605 C 0.4604 0.0196 0.43611 0.0
C1606 C 0.44376 0.01833 0.42418 0.0
H1607 H 0.44581 0.96356 0.37266 0.0
H1608 H 0.45926 0.97595 0.38728 0.0
H1609 H 0.45111 0.95446 0.40627 0.0
H1610 H 0.45167 0.96707 0.44354 0.0
H1611 H 0.48209 0.96895 0.46167 0.0
H1612 H 0.79472 0.85671 0.03702 0.0
H1613 H 0.80607 0.88561 0.03934 0.0
H1614 H 0.86958 0.85817 0.99653 0.0
H1615 H 0.85832 0.82917 0.99401 0.0
H1616 H 0.87228 0.87106 0.04144 0.0
H1617 H 0.81343 0.93291 0.98079 0.0
H1618 H 0.80039 0.9182 0.00725 0.0
H1619 H 0.8188 0.90603 0.98084 0.0
C1620 C 0.81098 0.85697 0.02769 0.0
C1621 C 0.82558 0.84068 0.01521 0.0
C1622 C 0.81743 0.87352 0.02903 0.0
C1623 C 0.83853 0.87419 0.01774 0.0
C1624 C 0.85318 0.85798 0.00526 0.0
H1625 H 0.88529 0.97826 0.99911 0.0
H1626 H 0.87385 0.95087 0.99138 0.0
C1627 C 0.84675 0.84139 0.00395 0.0
C1628 C 0.84563 0.89136 0.02008 0.0
H1629 H 0.83244 0.94355 0.00641 0.0
C1630 C 0.86367 0.8869 0.03364 0.0
C1631 C 0.83454 0.91199 0.00958 0.0
C1632 C 0.81585 0.9176 0.99357 0.0
C1633 C 0.87052 0.90257 0.03763 0.0
C1634 C 0.85879 0.92324 0.0282 0.0
C1635 C 0.84118 0.92769 0.01395 0.0
C1636 C 0.86464 0.94044 0.0329 0.0
C1637 C 0.89037 0.8969 0.05172 0.0
C1638 C 0.86272 0.94393 0.05878 0.0
C1639 C 0.86906 0.95968 0.06327 0.0
C1640 C 0.87736 0.97227 0.04194 0.0
C1641 C 0.87867 0.96905 0.01596 0.0
C1642 C 0.87229 0.95332 0.0115 0.0
H1643 H 0.90054 0.88053 0.05202 0.0
H1644 H 0.90084 0.90663 0.04212 0.0
H1645 H 0.8848 0.89943 0.07254 0.0
H1646 H 0.85645 0.93437 0.07552 0.0
H1647 H 0.86756 0.96193 0.08347 0.0
H1648 H 0.67712 0.17346 0.45674 0.0
H1649 H 0.6634 0.1449 0.46018 0.0
H1650 H 0.61306 0.16742 0.5234 0.0
H1651 H 0.62705 0.19589 0.52037 0.0
H1652 H 0.63232 0.12632 0.53438 0.0
H1653 H 0.60881 0.14783 0.43316 0.0
H1654 H 0.63717 0.1449 0.4329 0.0
H1655 H 0.6159 0.16488 0.44814 0.0
C1656 C 0.66304 0.17238 0.47126 0.0
C1657 C 0.65301 0.18697 0.48813 0.0
C1658 C 0.65516 0.15612 0.47314 0.0
C1659 C 0.63687 0.15432 0.4916 0.0
C1660 C 0.6271 0.16862 0.50887 0.0
H1661 H 0.56649 0.06537 0.52482 0.0
H1662 H 0.57755 0.09527 0.52359 0.0
C1663 C 0.63512 0.18482 0.50718 0.0
C1664 C 0.62828 0.13727 0.49313 0.0
H1665 H 0.61034 0.114 0.45575 0.0
C1666 C 0.62732 0.12373 0.51727 0.0
C1667 C 0.62157 0.13402 0.47083 0.0
C1668 C 0.62068 0.14881 0.44489 0.0
C1669 C 0.62057 0.1066 0.51942 0.0
C1670 C 0.61465 0.10301 0.49685 0.0
C1671 C 0.61518 0.11672 0.47289 0.0
C1672 C 0.60797 0.08499 0.49765 0.0
C1673 C 0.62028 0.09221 0.5456 0.0
C1674 C 0.62119 0.06964 0.4829 0.0
C1675 C 0.61489 0.0526 0.48349 0.0
C1676 C 0.59527 0.05071 0.49887 0.0
C1677 C 0.58194 0.06626 0.51331 0.0
C1678 C 0.5882 0.08331 0.51263 0.0
H1679 H 0.62937 0.09486 0.55951 0.0
H1680 H 0.60298 0.09461 0.55498 0.0
H1681 H 0.6276 0.07597 0.54263 0.0
H1682 H 0.63644 0.0708 0.47107 0.0
H1683 H 0.62541 0.04084 0.47214 0.0
H1684 H 0.8097 0.46922 0.20067 0.0
H1685 H 0.84216 0.43834 0.20011 0.0
H1686 H 0.84234 0.43413 0.28363 0.0
H1687 H 0.80984 0.46477 0.28448 0.0
H1688 H 0.88479 0.42761 0.21414 0.0
H1689 H 0.83855 0.37842 0.2795 0.0
H1690 H 0.82503 0.40425 0.26386 0.0
H1691 H 0.83777 0.39988 0.29301 0.0
C1692 C 0.81679 0.4619 0.21887 0.0
C1693 C 0.80697 0.46946 0.24266 0.0
C1694 C 0.83536 0.44419 0.21852 0.0
C1695 C 0.84446 0.4336 0.24194 0.0
C1696 C 0.83535 0.44171 0.26542 0.0
H1697 H 0.94567 0.31457 0.28005 0.0
H1698 H 0.9188 0.34901 0.28148 0.0
C1699 C 0.8168 0.45937 0.26581 0.0
C1700 C 0.86295 0.41377 0.24203 0.0
H1701 H 0.87676 0.36265 0.26849 0.0
C1702 C 0.88303 0.41341 0.22601 0.0
C1703 C 0.86073 0.39518 0.25754 0.0
C1704 C 0.83932 0.39431 0.27429 0.0
C1705 C 0.90095 0.39507 0.22531 0.0
C1706 C 0.89865 0.37646 0.24065 0.0
C1707 C 0.87863 0.37688 0.25683 0.0
C1708 C 0.91639 0.35623 0.23944 0.0
C1709 C 0.92231 0.39589 0.20845 0.0
C1710 C 0.92414 0.34877 0.21536 0.0
C1711 C 0.93951 0.32913 0.21451 0.0
C1712 C 0.94737 0.31641 0.23775 0.0
C1713 C 0.93996 0.324 0.26179 0.0
C1714 C 0.92456 0.34368 0.26263 0.0
H1715 H 0.92363 0.41156 0.20461 0.0
H1716 H 0.9367 0.38497 0.218 0.0
H1717 H 0.92305 0.39163 0.18903 0.0
H1718 H 0.91779 0.35788 0.19729 0.0
H1719 H 0.94479 0.32371 0.19571 0.0
H1720 H 0.06485 0.58073 0.46711 0.0
H1721 H 0.07973 0.60676 0.47151 0.0
H1722 H 0.14529 0.56853 0.44657 0.0
H1723 H 0.13048 0.54241 0.44156 0.0
H1724 H 0.11212 0.60017 0.5054 0.0
H1725 H 0.13946 0.62579 0.39929 0.0
H1726 H 0.11973 0.61212 0.40954 0.0
H1727 H 0.14847 0.59857 0.41107 0.0
C1728 C 0.08238 0.57802 0.46187 0.0
C1729 C 0.09646 0.55952 0.45371 0.0
C1730 C 0.09087 0.59284 0.4647 0.0
C1731 C 0.11356 0.58963 0.45915 0.0
C1732 C 0.12769 0.57137 0.45064 0.0
H1733 H 0.19022 0.66675 0.46523 0.0
H1734 H 0.17857 0.63855 0.4607 0.0
C1735 C 0.11921 0.55643 0.44796 0.0
C1736 C 0.12239 0.60511 0.46331 0.0
H1737 H 0.14774 0.64018 0.43087 0.0
C1738 C 0.11993 0.60893 0.48914 0.0
C1739 C 0.13265 0.61638 0.44205 0.0
C1740 C 0.13516 0.6132 0.41386 0.0
C1741 C 0.12753 0.62374 0.49431 0.0
C1742 C 0.13742 0.63532 0.47298 0.0
C1743 C 0.14014 0.63129 0.44719 0.0
C1744 C 0.14461 0.65203 0.47686 0.0
C1745 C 0.12516 0.62663 0.52262 0.0
C1746 C 0.12936 0.66901 0.48735 0.0
C1747 C 0.13601 0.68506 0.49021 0.0
C1748 C 0.15801 0.68454 0.48239 0.0
C1749 C 0.17324 0.6675 0.47185 0.0
C1750 C 0.16658 0.65143 0.46906 0.0
H1751 H 0.12342 0.61282 0.5369 0.0
H1752 H 0.13953 0.62999 0.5263 0.0
H1753 H 0.11014 0.63975 0.52661 0.0
H1754 H 0.11223 0.66999 0.493 0.0
H1755 H 0.12389 0.69786 0.49857 0.0
H1756 H 0.66485 0.05488 0.79484 0.0
H1757 H 0.63202 0.08536 0.79344 0.0
H1758 H 0.63808 0.09062 0.70865 0.0
H1759 H 0.67101 0.06031 0.7098 0.0
H1760 H 0.63433 0.12642 0.72314 0.0
H1761 H 0.56866 0.0967 0.78273 0.0
H1762 H 0.59226 0.08986 0.79954 0.0
H1763 H 0.59491 0.08007 0.76971 0.0
C1764 C 0.65895 0.06224 0.77594 0.0
C1765 C 0.67066 0.05509 0.75244 0.0
C1766 C 0.64007 0.07967 0.77519 0.0
C1767 C 0.63237 0.09025 0.75096 0.0
C1768 C 0.64361 0.08272 0.7276 0.0
H1769 H 0.51464 0.20223 0.73715 0.0
H1770 H 0.54062 0.16768 0.73214 0.0
C1771 C 0.66247 0.06532 0.72832 0.0
C1772 C 0.61395 0.11017 0.74969 0.0
H1773 H 0.56074 0.13327 0.77555 0.0
C1774 C 0.61816 0.12782 0.73433 0.0
C1775 C 0.59272 0.1121 0.76403 0.0
C1776 C 0.58675 0.09364 0.77973 0.0
C1777 C 0.60214 0.14734 0.73389 0.0
C1778 C 0.58134 0.1494 0.74937 0.0
C1779 C 0.57672 0.1317 0.7638 0.0
C1780 C 0.5651 0.16997 0.75255 0.0
C1781 C 0.60772 0.16573 0.71721 0.0
C1782 C 0.57009 0.18255 0.7659 0.0
C1783 C 0.55536 0.20204 0.76882 0.0
C1784 C 0.53524 0.20951 0.75844 0.0
C1785 C 0.53005 0.19688 0.74525 0.0
C1786 C 0.54484 0.17717 0.74245 0.0
H1787 H 0.62189 0.16121 0.70157 0.0
H1788 H 0.59337 0.17673 0.70767 0.0
H1789 H 0.61221 0.17374 0.73009 0.0
H1790 H 0.58547 0.17725 0.77409 0.0
H1791 H 0.55984 0.21134 0.77917 0.0
H1792 H 0.74401 0.58533 0.2384 0.0
H1793 H 0.74477 0.61385 0.20225 0.0
H1794 H 0.76369 0.57284 0.1456 0.0
H1795 H 0.76354 0.54385 0.18217 0.0
H1796 H 0.78626 0.60043 0.13208 0.0
H1797 H 0.69769 0.64233 0.1548 0.0
H1798 H 0.71182 0.63677 0.18299 0.0
H1799 H 0.71008 0.61605 0.16979 0.0
C1800 C 0.74846 0.58229 0.21826 0.0
C1801 C 0.75363 0.56231 0.21316 0.0
C1802 C 0.7487 0.59871 0.19754 0.0
C1803 C 0.75371 0.59572 0.17104 0.0
C1804 C 0.75957 0.57563 0.16584 0.0
H1805 H 0.72058 0.70273 0.04502 0.0
H1806 H 0.72311 0.67022 0.07501 0.0
C1807 C 0.75952 0.55906 0.18673 0.0
C1808 C 0.75272 0.61368 0.14909 0.0
H1809 H 0.71939 0.66179 0.12635 0.0
C1810 C 0.77158 0.61377 0.13067 0.0
C1811 C 0.73346 0.63103 0.14679 0.0
C1812 C 0.71206 0.63149 0.16447 0.0
C1813 C 0.77192 0.63092 0.11072 0.0
C1814 C 0.75306 0.64875 0.10947 0.0
C1815 C 0.734 0.64834 0.12737 0.0
C1816 C 0.75255 0.66801 0.08988 0.0
C1817 C 0.79243 0.62955 0.09097 0.0
C1818 C 0.76824 0.67784 0.08799 0.0
C1819 C 0.76698 0.69642 0.07052 0.0
C1820 C 0.74975 0.70585 0.05484 0.0
C1821 C 0.73408 0.69599 0.05676 0.0
C1822 C 0.73549 0.67733 0.07398 0.0
H1823 H 0.80211 0.61336 0.08909 0.0
H1824 H 0.7884 0.63823 0.07109 0.0
H1825 H 0.80304 0.63609 0.09788 0.0
H1826 H 0.78121 0.67142 0.10049 0.0
H1827 H 0.77919 0.70365 0.06982 0.0
H1828 H 0.97984 0.52383 0.41415 0.0
H1829 H 0.94844 0.52738 0.39268 0.0
H1830 H 0.90417 0.56032 0.45294 0.0
H1831 H 0.93567 0.5566 0.47443 0.0
H1832 H 0.89551 0.52634 0.45021 0.0
H1833 H 0.90377 0.57113 0.34922 0.0
H1834 H 0.9286 0.55062 0.35634 0.0
H1835 H 0.91836 0.57139 0.37493 0.0
C1836 C 0.96346 0.53264 0.42201 0.0
C1837 C 0.95995 0.54001 0.44579 0.0
C1838 C 0.94553 0.53464 0.4098 0.0
C1839 C 0.92397 0.54422 0.42114 0.0
C1840 C 0.92067 0.55293 0.44385 0.0
H1841 H 0.79806 0.54226 0.39316 0.0
H1842 H 0.82675 0.54912 0.40949 0.0
C1843 C 0.93859 0.55081 0.4561 0.0
C1844 C 0.90504 0.54227 0.41186 0.0
H1845 H 0.88038 0.55023 0.35701 0.0
C1846 C 0.89202 0.53179 0.42992 0.0
C1847 C 0.90063 0.54931 0.38535 0.0
C1848 C 0.91345 0.56142 0.36541 0.0
C1849 C 0.87514 0.52754 0.42199 0.0
C1850 C 0.87101 0.53426 0.39538 0.0
C1851 C 0.88373 0.54505 0.37739 0.0
C1852 C 0.85369 0.52995 0.38577 0.0
C1853 C 0.86235 0.51533 0.44186 0.0
C1854 C 0.85943 0.51704 0.36692 0.0
C1855 C 0.84311 0.51297 0.35767 0.0
C1856 C 0.82077 0.52189 0.36702 0.0
C1857 C 0.81513 0.53485 0.38594 0.0
C1858 C 0.83146 0.53887 0.39521 0.0
H1859 H 0.87044 0.50783 0.45997 0.0
H1860 H 0.84569 0.52572 0.4479 0.0
H1861 H 0.86037 0.50333 0.43297 0.0
H1862 H 0.87655 0.51001 0.35948 0.0
H1863 H 0.848 0.50277 0.3433 0.0
H1864 H 0.14671 0.56016 0.61117 0.0
H1865 H 0.11655 0.5576 0.5925 0.0
H1866 H 0.15858 0.49998 0.56959 0.0
H1867 H 0.18846 0.50195 0.58879 0.0
H1868 H 0.11142 0.5465 0.54003 0.0
H1869 H 0.10865 0.4892 0.63255 0.0
H1870 H 0.1225 0.50789 0.62851 0.0
H1871 H 0.1349 0.48597 0.6122 0.0
C1872 C 0.1497 0.5472 0.60156 0.0
C1873 C 0.16986 0.53107 0.60197 0.0
C1874 C 0.13251 0.54585 0.59076 0.0
C1875 C 0.13538 0.52844 0.58015 0.0
C1876 C 0.15614 0.51347 0.57786 0.0
H1877 H 0.04028 0.47972 0.54694 0.0
H1878 H 0.07447 0.48407 0.55329 0.0
C1879 C 0.17326 0.51474 0.58872 0.0
C1880 C 0.11605 0.52416 0.57581 0.0
H1881 H 0.08314 0.49464 0.60356 0.0
C1882 C 0.10519 0.5352 0.55385 0.0
C1883 C 0.10813 0.50932 0.59396 0.0
C1884 C 0.11899 0.49746 0.61827 0.0
C1885 C 0.08647 0.53167 0.54957 0.0
C1886 C 0.07849 0.517 0.56787 0.0
C1887 C 0.08948 0.50583 0.58962 0.0
C1888 C 0.05811 0.51373 0.56532 0.0
C1889 C 0.07554 0.5432 0.52529 0.0
C1890 C 0.0378 0.52863 0.57099 0.0
C1891 C 0.01846 0.52622 0.56733 0.0
C1892 C 0.01922 0.50884 0.55797 0.0
C1893 C 0.03944 0.49338 0.55375 0.0
C1894 C 0.05886 0.49583 0.55735 0.0
H1895 H 0.08458 0.55321 0.51228 0.0
H1896 H 0.07445 0.53216 0.51398 0.0
H1897 H 0.05846 0.5528 0.53115 0.0
H1898 H 0.037 0.54229 0.57775 0.0
H1899 H 0.00303 0.53835 0.57083 0.0
H1900 H 0.53805 0.7613 0.17177 0.0
H1901 H 0.56925 0.76525 0.13886 0.0
H1902 H 0.5854 0.79726 0.18892 0.0
H1903 H 0.55411 0.79378 0.22168 0.0
H1904 H 0.58878 0.81517 0.13569 0.0
H1905 H 0.63283 0.73111 0.14967 0.0
H1906 H 0.60574 0.73878 0.14038 0.0
H1907 H 0.60901 0.74266 0.17193 0.0
C1908 C 0.54814 0.7693 0.17574 0.0
C1909 C 0.54367 0.77705 0.19953 0.0
C1910 C 0.56602 0.77147 0.15694 0.0
C1911 C 0.57983 0.78124 0.16169 0.0
C1912 C 0.57497 0.78961 0.18493 0.0
H1913 H 0.71477 0.7672 0.09908 0.0
H1914 H 0.67921 0.76901 0.12602 0.0
C1915 C 0.55708 0.78754 0.20367 0.0
C1916 C 0.59988 0.78212 0.14305 0.0
H1917 H 0.64984 0.75204 0.11737 0.0
C1918 C 0.60212 0.80139 0.13155 0.0
C1919 C 0.61732 0.76409 0.138 0.0
C1920 C 0.61629 0.74297 0.15078 0.0
C1921 C 0.62145 0.80312 0.11524 0.0
C1922 C 0.63881 0.78508 0.11005 0.0
C1923 C 0.63645 0.76584 0.12133 0.0
C1924 C 0.66 0.78565 0.09394 0.0
C1925 C 0.62341 0.82417 0.1044 0.0
C1926 C 0.66096 0.79467 0.06705 0.0
C1927 C 0.68128 0.79382 0.05167 0.0
C1928 C 0.70092 0.78365 0.06289 0.0
C1929 C 0.69988 0.77511 0.08993 0.0
C1930 C 0.6796 0.77606 0.1053 0.0
H1931 H 0.61094 0.83605 0.11518 0.0
H1932 H 0.64006 0.82438 0.10561 0.0
H1933 H 0.62083 0.82839 0.08324 0.0
H1934 H 0.64607 0.80186 0.05779 0.0
H1935 H 0.68167 0.80058 0.03086 0.0
H1936 H 0.63503 0.51319 0.16795 0.0
H1937 H 0.60569 0.50655 0.15288 0.0
H1938 H 0.65402 0.46432 0.10542 0.0
H1939 H 0.68357 0.47089 0.12048 0.0
H1940 H 0.62288 0.49304 0.0775 0.0
H1941 H 0.58213 0.45859 0.17019 0.0
H1942 H 0.58528 0.48211 0.17334 0.0
H1943 H 0.60934 0.46038 0.16753 0.0
C1944 C 0.63944 0.50216 0.15474 0.0
C1945 C 0.6616 0.49257 0.14538 0.0
C1946 C 0.62265 0.49829 0.14626 0.0
C1947 C 0.62769 0.48461 0.12847 0.0
C1948 C 0.64981 0.47478 0.11936 0.0
H1949 H 0.53207 0.47372 0.04006 0.0
H1950 H 0.56577 0.46473 0.06028 0.0
C1951 C 0.66663 0.47868 0.12779 0.0
C1952 C 0.6098 0.48245 0.11721 0.0
H1953 H 0.56012 0.47424 0.13417 0.0
C1954 C 0.60944 0.48839 0.08978 0.0
C1955 C 0.59224 0.47651 0.13333 0.0
C1956 C 0.59235 0.46883 0.1627 0.0
C1957 C 0.59132 0.48979 0.07824 0.0
C1958 C 0.57323 0.48492 0.09451 0.0
C1959 C 0.57402 0.47802 0.12178 0.0
C1960 C 0.55255 0.48894 0.08388 0.0
C1961 C 0.59076 0.49821 0.04913 0.0
C1962 C 0.53393 0.50519 0.09095 0.0
C1963 C 0.51481 0.51037 0.0794 0.0
C1964 C 0.51403 0.49936 0.0606 0.0
C1965 C 0.53242 0.48263 0.05421 0.0
C1966 C 0.55159 0.47746 0.06576 0.0
H1967 H 0.60539 0.50291 0.0396 0.0
H1968 H 0.58985 0.48656 0.03871 0.0
H1969 H 0.57578 0.51174 0.04673 0.0
H1970 H 0.5344 0.51425 0.10485 0.0
H1971 H 0.50086 0.52335 0.08467 0.0
H1972 H 0.40679 0.45578 0.00181 0.0
H1973 H 0.39275 0.4284 1.00038 0.0
H1974 H 0.32878 0.46213 0.03634 0.0
H1975 H 0.3425 0.49005 0.0371 0.0
H1976 H 0.37572 0.40537 0.04374 0.0
H1977 H 0.31452 0.44575 0.9732 0.0
H1978 H 0.33555 0.45571 0.9765 0.0
H1979 H 0.31143 0.45828 1.00072 0.0
C1980 C 0.38959 0.45764 0.00888 0.0
C1981 C 0.37569 0.4752 0.01938 0.0
C1982 C 0.38166 0.4419 0.00821 0.0
C1983 C 0.35971 0.44336 0.01792 0.0
C1984 C 0.3457 0.46087 0.0283 0.0
H1985 H 0.29032 0.35501 0.04018 0.0
H1986 H 0.30056 0.38523 0.03949 0.0
C1987 C 0.35361 0.4767 0.02898 0.0
C1988 C 0.35201 0.42595 0.01841 0.0
H1989 H 0.31581 0.41194 0.99413 0.0
C1990 C 0.36264 0.40679 0.03287 0.0
C1991 C 0.33492 0.42791 0.00424 0.0
C1992 C 0.32352 0.44796 0.98758 0.0
C1993 C 0.35661 0.38951 0.03362 0.0
C1994 C 0.33969 0.39141 0.01926 0.0
C1995 C 0.32882 0.4106 0.00507 0.0
C1996 C 0.33323 0.37351 0.01861 0.0
C1997 C 0.36824 0.36939 0.04999 0.0
C1998 C 0.34812 0.35713 0.00667 0.0
C1999 C 0.34229 0.33991 0.00684 0.0
C2000 C 0.32143 0.33879 0.01893 0.0
C2001 C 0.30642 0.35546 0.03044 0.0
C2002 C 0.31225 0.3727 0.03019 0.0
H2003 H 0.37715 0.37156 0.0645 0.0
H2004 H 0.35637 0.36141 0.06088 0.0
H2005 H 0.38044 0.3593 0.03666 0.0
H2006 H 0.36427 0.35766 0.99725 0.0
H2007 H 0.35408 0.32752 0.99738 0.0
H2008 H 0.02921 0.21109 0.23361 0.0
H2009 H 0.05506 0.1763 0.23006 0.0
H2010 H 0.08024 0.17489 0.30078 0.0
H2011 H 0.05478 0.20945 0.30426 0.0
H2012 H 0.10548 0.16422 0.22971 0.0
H2013 H 0.06356 0.11997 0.31151 0.0
H2014 H 0.04904 0.14481 0.29393 0.0
H2015 H 0.06571 0.143 0.31829 0.0
C2016 C 0.04004 0.20319 0.24856 0.0
C2017 C 0.03983 0.21288 0.26936 0.0
C2018 C 0.05487 0.1834 0.24644 0.0
C2019 C 0.06942 0.17292 0.26533 0.0
C2020 C 0.06902 0.18257 0.28617 0.0
H2021 H 0.17359 0.06093 0.30527 0.0
H2022 H 0.14187 0.09228 0.30359 0.0
C2023 C 0.05448 0.20235 0.28808 0.0
C2024 C 0.08576 0.15225 0.26304 0.0
H2025 H 0.10025 0.10237 0.29471 0.0
C2026 C 0.10424 0.15059 0.24362 0.0
C2027 C 0.08419 0.13458 0.28142 0.0
C2028 C 0.06451 0.1355 0.30241 0.0
C2029 C 0.12164 0.13192 0.24276 0.0
C2030 C 0.12024 0.11421 0.26141 0.0
C2031 C 0.1014 0.11583 0.28038 0.0
C2032 C 0.13865 0.09423 0.26258 0.0
C2033 C 0.14182 0.13167 0.22273 0.0
C2034 C 0.14712 0.08435 0.24037 0.0
C2035 C 0.16546 0.06643 0.24122 0.0
C2036 C 0.17552 0.05775 0.26445 0.0
C2037 C 0.1663 0.06709 0.28704 0.0
C2038 C 0.14812 0.0851 0.2861 0.0
H2039 H 0.14274 0.14737 0.21488 0.0
H2040 H 0.1571 0.1222 0.23153 0.0
H2041 H 0.14121 0.12499 0.20575 0.0
H2042 H 0.13977 0.09066 0.22222 0.0
H2043 H 0.17198 0.0596 0.22348 0.0
H2044 H 0.20636 0.31894 0.93977 0.0
H2045 H 0.20487 0.35055 0.9079 0.0
H2046 H 0.25905 0.35528 0.93829 0.0
H2047 H 0.26122 0.32332 0.96936 0.0
H2048 H 0.19757 0.38937 0.91134 0.0
H2049 H 0.28258 0.35876 0.86151 0.0
H2050 H 0.2693 0.34267 0.88563 0.0
H2051 H 0.28163 0.3582 0.89617 0.0
C2052 C 0.21795 0.32671 0.93971 0.0
C2053 C 0.23404 0.31841 0.95703 0.0
C2054 C 0.21707 0.34485 0.92146 0.0
C2055 C 0.23216 0.35519 0.92015 0.0
C2056 C 0.24764 0.34736 0.93821 0.0
H2057 H 0.21622 0.47949 0.82419 0.0
H2058 H 0.21629 0.45126 0.86181 0.0
C2059 C 0.24875 0.32909 0.95618 0.0
C2060 C 0.23189 0.3739 0.89966 0.0
H2061 H 0.26404 0.39414 0.84877 0.0
C2062 C 0.21211 0.3904 0.89764 0.0
C2063 C 0.25076 0.37528 0.88148 0.0
C2064 C 0.2722 0.35771 0.88107 0.0
C2065 C 0.21066 0.40805 0.87802 0.0
C2066 C 0.22967 0.40958 0.86023 0.0
C2067 C 0.24947 0.39316 0.86246 0.0
C2068 C 0.22922 0.4272 0.83785 0.0
C2069 C 0.18855 0.42449 0.87595 0.0
C2070 C 0.23696 0.42325 0.81189 0.0
C2071 C 0.23736 0.43924 0.79062 0.0
C2072 C 0.22984 0.45975 0.79458 0.0
C2073 C 0.22197 0.46387 0.82049 0.0
C2074 C 0.22185 0.44772 0.84198 0.0
H2075 H 0.17482 0.41863 0.88613 0.0
H2076 H 0.18779 0.43726 0.88552 0.0
H2077 H 0.18597 0.43072 0.85493 0.0
H2078 H 0.24275 0.40766 0.808 0.0
H2079 H 0.24357 0.43547 0.77095 0.0
H2080 H 0.30342 0.22527 0.98657 0.0
H2081 H 0.33985 0.22268 0.96096 0.0
H2082 H 0.30951 0.25191 0.88989 0.0
H2083 H 0.27319 0.25488 0.91534 0.0
H2084 H 0.36205 0.20425 0.91534 0.0
H2085 H 0.34487 0.2885 0.89543 0.0
H2086 H 0.3282 0.2761 0.92053 0.0
H2087 H 0.32432 0.28089 0.88625 0.0
C2088 C 0.30459 0.23107 0.96547 0.0
C2089 C 0.28553 0.24054 0.95295 0.0
C2090 C 0.32536 0.22954 0.9509 0.0
C2091 C 0.32727 0.23746 0.92367 0.0
C2092 C 0.30831 0.24608 0.91099 0.0
H2093 H 0.43325 0.22244 0.79637 0.0
H2094 H 0.40364 0.21816 0.83146 0.0
C2095 C 0.2876 0.24766 0.92552 0.0
C2096 C 0.34895 0.23726 0.90843 0.0
H2097 H 0.37611 0.26892 0.86939 0.0
C2098 C 0.36528 0.21836 0.90549 0.0
C2099 C 0.35323 0.2557 0.89608 0.0
C2100 C 0.33682 0.27646 0.89991 0.0
C2101 C 0.38549 0.21743 0.88948 0.0
C2102 C 0.38921 0.23588 0.87579 0.0
C2103 C 0.3732 0.25477 0.87971 0.0
C2104 C 0.40902 0.23617 0.85631 0.0
C2105 C 0.40261 0.19672 0.88739 0.0
C2106 C 0.42189 0.24777 0.85852 0.0
C2107 C 0.43866 0.2505 0.83829 0.0
C2108 C 0.44287 0.24168 0.81542 0.0
C2109 C 0.43056 0.22935 0.81376 0.0
C2110 C 0.41368 0.22676 0.83393 0.0
H2111 H 0.40043 0.18516 0.90515 0.0
H2112 H 0.40088 0.19132 0.86985 0.0
H2113 H 0.41953 0.19753 0.88502 0.0
H2114 H 0.41853 0.25524 0.87557 0.0
H2115 H 0.44787 0.26003 0.84026 0.0
H2116 H 0.47284 0.50941 0.92042 0.0
H2117 H 0.43883 0.51214 0.90549 0.0
H2118 H 0.40308 0.56178 0.94893 0.0
H2119 H 0.43745 0.55957 0.9632 0.0
H2120 H 0.40366 0.50552 0.9392 0.0
H2121 H 0.37898 0.58323 0.87797 0.0
H2122 H 0.40643 0.57049 0.88683 0.0
H2123 H 0.38445 0.58248 0.91058 0.0
C2124 C 0.45784 0.52125 0.92627 0.0
C2125 C 0.45763 0.53415 0.94322 0.0
C2126 C 0.43841 0.52273 0.91782 0.0
C2127 C 0.41847 0.53721 0.926 0.0
C2128 C 0.41835 0.55071 0.94206 0.0
H2129 H 0.28664 0.55454 0.89229 0.0
H2130 H 0.31648 0.55684 0.91191 0.0
C2131 C 0.43789 0.54929 0.95043 0.0
C2132 C 0.39773 0.53681 0.9195 0.0
H2133 H 0.35404 0.56457 0.88581 0.0
C2134 C 0.39257 0.51855 0.92802 0.0
C2135 C 0.38351 0.55379 0.90452 0.0
C2136 C 0.38863 0.57357 0.89422 0.0
C2137 C 0.37352 0.51674 0.92212 0.0
C2138 C 0.35978 0.53338 0.90615 0.0
C2139 C 0.36463 0.55185 0.89807 0.0
C2140 C 0.34141 0.53133 0.8958 0.0
C2141 C 0.36836 0.49701 0.93308 0.0
C2142 C 0.34562 0.51629 0.88022 0.0
C2143 C 0.32867 0.51482 0.86924 0.0
C2144 C 0.30719 0.52856 0.87332 0.0
C2145 C 0.30296 0.54358 0.88906 0.0
C2146 C 0.31998 0.545 0.90013 0.0
H2147 H 0.37555 0.48921 0.95175 0.0
H2148 H 0.35033 0.49978 0.93705 0.0
H2149 H 0.37565 0.48642 0.91848 0.0
H2150 H 0.36214 0.50587 0.87615 0.0
H2151 H 0.33241 0.50295 0.85745 0.0
H2152 H 0.61612 0.71702 0.98652 0.0
H2153 H 0.60216 0.68933 0.98564 0.0
H2154 H 0.66396 0.64451 0.0049 0.0
H2155 H 0.6779 0.67196 0.00674 0.0
H2156 H 0.6408 0.64669 0.95342 0.0
H2157 H 0.59388 0.6404 0.05489 0.0
H2158 H 0.59255 0.66537 0.03562 0.0
H2159 H 0.61771 0.64891 0.04784 0.0
C2160 C 0.62663 0.70128 0.99104 0.0
C2161 C 0.64817 0.69672 0.99665 0.0
C2162 C 0.61865 0.68553 0.99038 0.0
C2163 C 0.63208 0.66502 0.99524 0.0
C2164 C 0.65343 0.66033 1.0011 0.0
H2165 H 0.6247 0.54945 0.97447 0.0
H2166 H 0.63669 0.57797 0.97735 0.0
C2167 C 0.66139 0.67603 0.00193 0.0
C2168 C 0.62417 0.64843 0.99315 0.0
H2169 H 0.59399 0.61799 0.02772 0.0
C2170 C 0.63056 0.64035 0.96959 0.0
C2171 C 0.61062 0.64056 0.01422 0.0
C2172 C 0.60322 0.64913 0.03969 0.0
C2173 C 0.62371 0.62442 0.96651 0.0
C2174 C 0.61073 0.61598 0.98794 0.0
C2175 C 0.60411 0.62434 0.01141 0.0
C2176 C 0.60368 0.59859 0.98641 0.0
C2177 C 0.63002 0.61718 0.94011 0.0
C2178 C 0.58126 0.60048 0.99145 0.0
C2179 C 0.57447 0.58413 0.99031 0.0
C2180 C 0.58999 0.56561 0.98399 0.0
C2181 C 0.61244 0.56367 0.97905 0.0
C2182 C 0.61925 0.57997 0.98055 0.0
H2183 H 0.63377 0.62914 0.92384 0.0
H2184 H 0.64503 0.60349 0.94094 0.0
H2185 H 0.61669 0.61291 0.93518 0.0
H2186 H 0.56898 0.61468 0.99604 0.0
H2187 H 0.55703 0.58607 0.99402 0.0
H2188 H 0.95166 0.81635 0.77739 0.0
H2189 H 0.92409 0.85001 0.78402 0.0
H2190 H 0.90388 0.85678 0.70798 0.0
H2191 H 0.93073 0.82357 0.70156 0.0
H2192 H 0.91474 0.89173 0.75177 0.0
H2193 H 0.84718 0.85981 0.76082 0.0
H2194 H 0.87527 0.84374 0.76387 0.0
H2195 H 0.86669 0.8549 0.73165 0.0
C2196 C 0.94153 0.82525 0.76201 0.0
C2197 C 0.94321 0.81726 0.73907 0.0
C2198 C 0.92576 0.84441 0.76581 0.0
C2199 C 0.91156 0.85574 0.7467 0.0
C2200 C 0.91426 0.84819 0.72324 0.0
H2201 H 0.80679 0.96624 0.7061 0.0
H2202 H 0.8395 0.93563 0.70832 0.0
C2203 C 0.92973 0.82918 0.71957 0.0
C2204 C 0.89313 0.87497 0.75113 0.0
H2205 H 0.83739 0.89646 0.75141 0.0
C2206 C 0.89779 0.89271 0.75218 0.0
C2207 C 0.87094 0.87629 0.75176 0.0
C2208 C 0.86465 0.85762 0.75224 0.0
C2209 C 0.88094 0.91184 0.75251 0.0
C2210 C 0.85899 0.91325 0.7517 0.0
C2211 C 0.85427 0.89541 0.75169 0.0
C2212 C 0.84067 0.93315 0.75002 0.0
C2213 C 0.88669 0.93064 0.7527 0.0
C2214 C 0.83055 0.94208 0.77269 0.0
C2215 C 0.81171 0.95955 0.77155 0.0
C2216 C 0.80262 0.96851 0.74766 0.0
C2217 C 0.81332 0.9599 0.72479 0.0
C2218 C 0.83204 0.94234 0.72602 0.0
H2219 H 0.90467 0.92724 0.75202 0.0
H2220 H 0.88092 0.94259 0.73547 0.0
H2221 H 0.87807 0.93708 0.77093 0.0
H2222 H 0.83682 0.93514 0.79147 0.0
H2223 H 0.80392 0.9657 0.78959 0.0
H2224 H 0.4986 0.15433 0.64633 0.0
H2225 H 0.50477 0.13229 0.61398 0.0
H2226 H 0.5079 0.18257 0.55029 0.0
H2227 H 0.50139 0.20491 0.58281 0.0
H2228 H 0.48129 0.16509 0.54192 0.0
H2229 H 0.55778 0.10476 0.56641 0.0
H2230 H 0.53843 0.10555 0.59601 0.0
H2231 H 0.54732 0.12754 0.58116 0.0
C2232 C 0.50116 0.16059 0.62546 0.0
C2233 C 0.49961 0.18134 0.61712 0.0
C2234 C 0.50474 0.14794 0.60694 0.0
C2235 C 0.50719 0.15565 0.57966 0.0
C2236 C 0.50618 0.17625 0.57123 0.0
H2237 H 0.52827 0.05819 0.49013 0.0
H2238 H 0.53393 0.08759 0.50131 0.0
C2239 C 0.50242 0.189 0.5898 0.0
C2240 C 0.50864 0.14259 0.56034 0.0
H2241 H 0.53251 0.09363 0.54806 0.0
C2242 C 0.49282 0.14961 0.54282 0.0
C2243 C 0.52406 0.12261 0.5608 0.0
C2244 C 0.54295 0.11484 0.57696 0.0
C2245 C 0.49086 0.13663 0.52741 0.0
C2246 C 0.50456 0.11587 0.53033 0.0
C2247 C 0.52159 0.10938 0.54617 0.0
C2248 C 0.50032 0.10019 0.5193 0.0
C2249 C 0.47387 0.14529 0.50851 0.0
C2250 C 0.47938 0.0978 0.52489 0.0
C2251 C 0.47594 0.08136 0.51781 0.0
C2252 C 0.49354 0.06666 0.5057 0.0
C2253 C 0.51435 0.06937 0.49935 0.0
C2254 C 0.51765 0.08608 0.50588 0.0
H2255 H 0.47169 0.16176 0.50057 0.0
H2256 H 0.47846 0.13685 0.49161 0.0
H2257 H 0.45776 0.14431 0.51929 0.0
H2258 H 0.46588 0.108 0.536 0.0
H2259 H 0.45986 0.07944 0.52348 0.0
H2260 H 0.46595 0.37896 0.82856 0.0
H2261 H 0.46343 0.40375 0.85585 0.0
H2262 H 0.46887 0.35656 0.92526 0.0
H2263 H 0.47045 0.33185 0.89832 0.0
H2264 H 0.44001 0.3945 0.93554 0.0
H2265 H 0.52006 0.4004 0.88083 0.0
H2266 H 0.49903 0.40686 0.86003 0.0
H2267 H 0.50911 0.38108 0.87763 0.0
C2268 C 0.46595 0.37398 0.84974 0.0
C2269 C 0.46875 0.35335 0.86121 0.0
C2270 C 0.4648 0.38811 0.86525 0.0
C2271 C 0.46661 0.38181 0.8924 0.0
C2272 C 0.46772 0.36165 0.90426 0.0
H2273 H 0.5132 0.44483 0.98158 0.0
H2274 H 0.5084 0.41897 0.96115 0.0
C2275 C 0.46875 0.34754 0.88882 0.0
C2276 C 0.46897 0.39575 0.90806 0.0
H2277 H 0.50188 0.42292 0.91164 0.0
C2278 C 0.45354 0.4007 0.9304 0.0
C2279 C 0.48695 0.40341 0.90163 0.0
C2280 C 0.50487 0.39753 0.87889 0.0
C2281 C 0.45534 0.41352 0.94619 0.0
C2282 C 0.47282 0.42188 0.93909 0.0
C2283 C 0.48845 0.41658 0.91702 0.0
C2284 C 0.47498 0.43662 0.95368 0.0
C2285 C 0.43863 0.41778 0.97041 0.0
C2286 C 0.45782 0.45507 0.95629 0.0
C2287 C 0.46045 0.46966 0.96819 0.0
C2288 C 0.48043 0.4663 0.97733 0.0
C2289 C 0.4976 0.4478 0.97481 0.0
C2290 C 0.49487 0.43305 0.96315 0.0
H2291 H 0.43123 0.4053 0.97787 0.0
H2292 H 0.44603 0.4196 0.98666 0.0
H2293 H 0.42514 0.4322 0.96506 0.0
H2294 H 0.44261 0.45851 0.94838 0.0
H2295 H 0.44711 0.48395 0.96918 0.0
H2296 H 0.44903 0.83354 0.41653 0.0
H2297 H 0.44449 0.85391 0.45077 0.0
H2298 H 0.47326 0.89502 0.39357 0.0
H2299 H 0.4778 0.87493 0.35944 0.0
H2300 H 0.48157 0.85891 0.46505 0.0
H2301 H 0.42238 0.93557 0.43166 0.0
H2302 H 0.41977 0.91195 0.42702 0.0
H2303 H 0.4403 0.92198 0.40636 0.0
C2304 C 0.45395 0.84718 0.41116 0.0
C2305 C 0.46378 0.85263 0.38525 0.0
C2306 C 0.45128 0.85881 0.4307 0.0
C2307 C 0.45826 0.87612 0.42461 0.0
C2308 C 0.46718 0.88207 0.39853 0.0
H2309 H 0.51681 0.93506 0.4954 0.0
H2310 H 0.50807 0.90961 0.47869 0.0
C2311 C 0.46978 0.87053 0.37901 0.0
C2312 C 0.45907 0.88644 0.44586 0.0
H2313 H 0.4444 0.93361 0.4632 0.0
C2314 C 0.47315 0.87518 0.46496 0.0
C2315 C 0.44795 0.90759 0.44582 0.0
C2316 C 0.4316 0.92004 0.4268 0.0
C2317 C 0.47748 0.88482 0.48299 0.0
C2318 C 0.46755 0.90622 0.48173 0.0
C2319 C 0.45231 0.91723 0.46382 0.0
C2320 C 0.47408 0.91792 0.49697 0.0
C2321 C 0.49306 0.87212 0.50279 0.0
C2322 C 0.45815 0.9304 0.51368 0.0
C2323 C 0.46323 0.94478 0.52345 0.0
C2324 C 0.48411 0.94723 0.5162 0.0
C2325 C 0.50064 0.93341 0.50155 0.0
C2326 C 0.49561 0.91892 0.49186 0.0
H2327 H 0.49395 0.85574 0.50667 0.0
H2328 H 0.50982 0.87288 0.49474 0.0
H2329 H 0.48797 0.87801 0.52185 0.0
H2330 H 0.44148 0.92981 0.51795 0.0
H2331 H 0.45041 0.95493 0.53522 0.0
H2332 H 0.52113 0.55449 0.03512 0.0
H2333 H 0.52585 0.58283 0.04988 0.0
H2334 H 0.46426 0.6231 0.02345 0.0
H2335 H 0.45935 0.59449 0.00892 0.0
H2336 H 0.52896 0.62002 0.0259 0.0
H2337 H 0.45395 0.62884 0.10018 0.0
H2338 H 0.46527 0.6075 0.0825 0.0
H2339 H 0.44869 0.63204 0.06683 0.0
C2340 C 0.50878 0.56946 0.03203 0.0
C2341 C 0.48994 0.57235 0.02076 0.0
C2342 C 0.51144 0.58563 0.04059 0.0
C2343 C 0.49528 0.60502 0.0381 0.0
C2344 C 0.47672 0.60814 0.02608 0.0
H2345 H 0.47875 0.71215 0.10402 0.0
H2346 H 0.47885 0.69058 0.07361 0.0
C2347 C 0.47393 0.59184 0.01776 0.0
C2348 C 0.49749 0.62154 0.04935 0.0
H2349 H 0.47278 0.65246 0.09586 0.0
C2350 C 0.51663 0.62722 0.04109 0.0
C2351 C 0.4815 0.63072 0.06941 0.0
C2352 C 0.46131 0.62435 0.08047 0.0
C2353 C 0.52016 0.64187 0.05236 0.0
C2354 C 0.50413 0.651 0.07235 0.0
C2355 C 0.48491 0.64555 0.08029 0.0
C2356 C 0.50716 0.66549 0.08653 0.0
C2357 C 0.54097 0.64741 0.04291 0.0
C2358 C 0.52346 0.65873 0.10336 0.0
C2359 C 0.5235 0.67108 0.12079 0.0
C2360 C 0.5072 0.69035 0.12169 0.0
C2361 C 0.49173 0.69753 0.10363 0.0
C2362 C 0.49168 0.68518 0.0863 0.0
H2363 H 0.54854 0.64349 0.02298 0.0
H2364 H 0.53773 0.66404 0.04215 0.0
H2365 H 0.55307 0.6387 0.05697 0.0
H2366 H 0.53537 0.64345 0.10411 0.0
H2367 H 0.53573 0.6652 0.13432 0.0
loop_
_geom_bond_atom_site_label_1
_geom_bond_atom_site_label_2
_geom_bond_distance
_geom_bond_site_symmetry_2
_ccdc_geom_bond_type
C0 Eu1 2.835 . S
C0 C2 1.500 . S
C0 O20 1.257 . S
C0 O21 1.260 . S
Eu1 C0 2.835 . S
Eu1 O20 2.473 . S
Eu1 O21 2.480 . S
Eu1 O22 2.430 1_455 S
Eu1 O23 2.670 1_455 S
Eu1 O24 2.386 1_456 S
Eu1 O29 2.355 1_546 S
Eu1 O31 2.374 1_545 S
C2 C0 1.500 . S
C2 C3 1.377 . S
C2 C7 1.377 . S
C3 C2 1.377 . S
C3 C4 1.395 . S
C3 H32 0.931 . S
C4 C3 1.395 . S
C4 C5 1.383 . S
C4 H33 0.931 . S
C5 C4 1.383 . S
C5 C6 1.394 . S
C6 C5 1.394 . S
C6 C7 1.378 . S
C6 H34 0.931 . S
C7 C2 1.377 . S
C7 C6 1.378 . S
C7 H35 0.900 1_556 S
C8 O22 1.259 . S
C8 O23 1.270 . S
C9 O24 1.262 . S
C9 O25 1.251 . S
C10 Eu11 2.835 . S
C10 C12 1.500 . S
C10 O26 1.257 . S
C10 O27 1.260 . S
Eu11 C10 2.835 . S
Eu11 O23 2.355 1_564 S
Eu11 O25 2.374 1_565 S
Eu11 O26 2.473 . S
Eu11 O27 2.480 . S
Eu11 O28 2.430 1_655 S
Eu11 O29 2.670 1_655 S
Eu11 O30 2.403 1_655 S
C12 C10 1.500 . S
C12 C13 1.377 . S
C12 C17 1.377 . S
C13 C12 1.377 . S
C13 C14 1.395 . S
C13 H36 0.931 . S
C14 C13 1.395 . S
C14 C15 1.383 . S
C14 H37 0.931 . S
C15 C14 1.383 . S
C15 C16 1.394 . S
C16 C15 1.394 . S
C16 C17 1.378 . S
C16 H38 0.931 . S
C17 C12 1.377 . S
C17 C16 1.378 . S
C17 H39 0.925 1_554 S
C18 O28 1.259 . S
C18 O29 1.270 . S
C19 O30 1.237 1_556 S
C19 O31 1.251 . S
O20 C0 1.257 . S
O20 Eu1 2.473 . S
O21 C0 1.260 . S
O21 Eu1 2.480 . S
O22 Eu1 2.430 1_655 S
O22 C8 1.259 . S
O23 Eu1 2.670 1_655 S
O23 C8 1.270 . S
O23 Eu11 2.355 1_546 S
O24 Eu1 2.386 1_654 S
O24 C9 1.262 . S
O25 C9 1.251 . S
O25 Eu11 2.374 1_545 S
O26 C10 1.257 . S
O26 Eu11 2.473 . S
O27 C10 1.260 . S
O27 Eu11 2.480 . S
O28 Eu11 2.430 1_455 S
O28 C18 1.259 . S
O29 Eu1 2.355 1_564 S
O29 Eu11 2.670 1_455 S
O29 C18 1.270 . S
O30 Eu11 2.403 1_455 S
O30 C19 1.237 1_554 S
O31 Eu1 2.374 1_565 S
O31 C19 1.251 . S
H32 C3 0.931 . S
H33 C4 0.931 . S
H34 C6 0.931 . S
H35 C7 0.900 1_554 S
H36 C13 0.931 . S
H37 C14 0.931 . S
H38 C16 0.931 . S
H39 C17 0.925 1_556 S
C40 Eu41 2.835 . S
C40 C42 1.500 1_655 S
C40 O60 1.257 1_655 S
C40 O61 1.260 . S
Eu41 C40 2.835 . S
Eu41 O60 2.473 1_655 S
Eu41 O61 2.480 . S
Eu41 O62 2.430 . S
Eu41 O63 2.670 . S
Eu41 O64 2.394 1_655 S
Eu41 O69 2.355 1_655 S
Eu41 O71 2.374 . S
C42 C40 1.500 1_455 S
C42 C43 1.377 1_455 S
C42 C47 1.377 . S
C43 C42 1.377 1_655 S
C43 C44 1.395 . S
C43 H72 0.931 . S
C44 C43 1.395 . S
C44 C45 1.383 1_655 S
C44 H73 0.931 . S
C45 C44 1.383 1_455 S
C45 C46 1.394 . S
C46 C45 1.394 . S
C46 C47 1.378 . S
C46 H74 0.931 . S
C47 C42 1.377 . S
C47 C46 1.378 . S
C47 H75 0.931 . S
C48 O62 1.259 . S
C48 O63 1.270 . S
C49 O64 1.251 . S
C49 O65 1.251 . S
C50 Eu51 2.835 . S
C50 C52 1.502 1_455 S
C50 O66 1.257 1_455 S
C50 O67 1.260 . S
Eu51 C50 2.835 . S
Eu51 O63 2.355 1_455 S
Eu51 O65 2.374 . S
Eu51 O66 2.473 1_455 S
Eu51 O67 2.480 . S
Eu51 O68 2.430 . S
Eu51 O69 2.670 . S
Eu51 O70 2.394 1_455 S
C52 C50 1.502 1_655 S
C52 C53 1.358 1_655 S
C52 C57 1.393 . S
C53 C52 1.358 1_455 S
C53 C54 1.395 . S
C53 H76 0.931 . S
C54 C53 1.395 . S
C54 C55 1.383 1_455 S
C54 H77 0.931 . S
C55 C54 1.383 1_655 S
C55 C56 1.394 . S
C56 C55 1.394 . S
C56 C57 1.378 . S
C56 H78 0.931 . S
C57 C52 1.393 . S
C57 C56 1.378 . S
C57 H79 0.931 . S
C58 O68 1.259 . S
C58 O69 1.270 . S
C59 O70 1.251 . S
C59 O71 1.251 . S
O60 C40 1.257 1_455 S
O60 Eu41 2.473 1_455 S
O61 C40 1.260 . S
O61 Eu41 2.480 . S
O62 Eu41 2.430 . S
O62 C48 1.259 . S
O63 Eu41 2.670 . S
O63 C48 1.270 . S
O63 Eu51 2.355 1_655 S
O64 Eu41 2.394 1_455 S
O64 C49 1.251 . S
O65 C49 1.251 . S
O65 Eu51 2.374 . S
O66 C50 1.257 1_655 S
O66 Eu51 2.473 1_655 S
O67 C50 1.260 . S
O67 Eu51 2.480 . S
O68 Eu51 2.430 . S
O68 C58 1.259 . S
O69 Eu41 2.355 1_455 S
O69 Eu51 2.670 . S
O69 C58 1.270 . S
O70 Eu51 2.394 1_655 S
O70 C59 1.251 . S
O71 Eu41 2.374 . S
O71 C59 1.251 . S
H72 C43 0.931 . S
H73 C44 0.931 . S
H74 C46 0.931 . S
H75 C47 0.931 . S
H76 C53 0.931 . S
H77 C54 0.931 . S
H78 C56 0.931 . S
H79 C57 0.931 . S
C80 Eu81 2.835 . S
C80 C82 1.500 . S
C80 O100 1.257 . S
C80 O101 1.260 . S
Eu81 C80 2.835 . S
Eu81 O100 2.473 . S
Eu81 O101 2.480 . S
Eu81 O102 2.430 . S
Eu81 O103 2.670 . S
Eu81 O104 2.394 . S
Eu81 O109 2.355 . S
Eu81 O111 2.374 . S
C82 C80 1.500 . S
C82 C83 1.377 . S
C82 C87 1.377 . S
C83 C82 1.377 . S
C83 C84 1.395 . S
C83 H112 0.931 . S
C84 C83 1.395 . S
C84 C85 1.383 . S
C84 H113 0.931 . S
C85 C84 1.383 . S
C85 C86 1.394 . S
C86 C85 1.394 . S
C86 C87 1.378 . S
C86 H114 0.931 . S
C87 C82 1.377 . S
C87 C86 1.378 . S
C87 H115 0.931 . S
C88 O102 1.259 . S
C88 O103 1.270 . S
C89 O104 1.251 . S
C89 O105 1.251 . S
C90 Eu91 2.835 . S
C90 C92 1.500 . S
C90 O106 1.257 . S
C90 O107 1.260 . S
Eu91 C90 2.835 . S
Eu91 O103 2.355 . S
Eu91 O105 2.374 . S
Eu91 O106 2.473 . S
Eu91 O107 2.480 . S
Eu91 O108 2.430 . S
Eu91 O109 2.670 . S
Eu91 O110 2.394 . S
C92 C90 1.500 . S
C92 C93 1.377 . S
C92 C97 1.377 . S
C93 C92 1.377 . S
C93 C94 1.395 . S
C93 H116 0.931 . S
C94 C93 1.395 . S
C94 C95 1.383 . S
C94 H117 0.931 . S
C95 C94 1.383 . S
C95 C96 1.394 . S
C96 C95 1.394 . S
C96 C97 1.378 . S
C96 H118 0.931 . S
C97 C92 1.377 . S
C97 C96 1.378 . S
C97 H119 0.931 . S
C98 O108 1.259 . S
C98 O109 1.270 . S
C99 O110 1.251 . S
C99 O111 1.251 . S
O100 C80 1.257 . S
O100 Eu81 2.473 . S
O101 C80 1.260 . S
O101 Eu81 2.480 . S
O102 Eu81 2.430 . S
O102 C88 1.259 . S
O103 Eu81 2.670 . S
O103 C88 1.270 . S
O103 Eu91 2.355 . S
O104 Eu81 2.394 . S
O104 C89 1.251 . S
O105 C89 1.251 . S
O105 Eu91 2.374 . S
O106 C90 1.257 . S
O106 Eu91 2.473 . S
O107 C90 1.260 . S
O107 Eu91 2.480 . S
O108 Eu91 2.430 . S
O108 C98 1.259 . S
O109 Eu81 2.355 . S
O109 Eu91 2.670 . S
O109 C98 1.270 . S
O110 Eu91 2.394 . S
O110 C99 1.251 . S
O111 Eu81 2.374 . S
O111 C99 1.251 . S
H112 C83 0.931 . S
H113 C84 0.931 . S
H114 C86 0.931 . S
H115 C87 0.931 . S
H116 C93 0.931 . S
H117 C94 0.931 . S
H118 C96 0.931 . S
H119 C97 0.931 . S
C120 Eu121 2.834 . S
C120 C122 1.501 1_565 S
C120 O140 1.244 1_565 S
C120 O141 1.273 . S
Eu121 C120 2.834 . S
Eu121 O140 2.473 1_565 S
Eu121 O141 2.480 . S
Eu121 O142 2.430 . S
Eu121 O143 2.670 . S
Eu121 O144 2.394 1_565 S
Eu121 O149 2.355 1_565 S
Eu121 O151 2.374 . S
C122 C120 1.501 1_545 S
C122 C123 1.377 1_545 S
C122 C127 1.377 . S
C123 C122 1.377 1_565 S
C123 C124 1.395 . S
C123 H152 0.931 . S
C124 C123 1.395 . S
C124 C125 1.383 1_565 S
C124 H153 0.931 . S
C125 C124 1.383 1_545 S
C125 C126 1.394 . S
C126 C125 1.394 . S
C126 C127 1.378 . S
C126 H154 0.931 . S
C127 C122 1.377 . S
C127 C126 1.378 . S
C127 H155 0.931 . S
C128 O142 1.259 . S
C128 O143 1.270 . S
C129 O144 1.251 . S
C129 O145 1.251 . S
C130 Eu131 2.835 . S
C130 C132 1.500 1_545 S
C130 O146 1.257 1_545 S
C130 O147 1.260 . S
Eu131 C130 2.835 . S
Eu131 O143 2.355 1_545 S
Eu131 O145 2.374 . S
Eu131 O146 2.473 1_545 S
Eu131 O147 2.480 . S
Eu131 O148 2.430 . S
Eu131 O149 2.670 . S
Eu131 O150 2.394 1_545 S
C132 C130 1.500 1_565 S
C132 C133 1.377 1_565 S
C132 C137 1.377 . S
C133 C132 1.377 1_545 S
C133 C134 1.395 . S
C133 H156 0.931 . S
C134 C133 1.395 . S
C134 C135 1.383 1_545 S
C134 H157 0.931 . S
C135 C134 1.383 1_565 S
C135 C136 1.394 . S
C136 C135 1.394 . S
C136 C137 1.378 . S
C136 H158 0.931 . S
C137 C132 1.377 . S
C137 C136 1.378 . S
C137 H159 0.931 . S
C138 O148 1.259 . S
C138 O149 1.270 . S
C139 O150 1.251 . S
C139 O151 1.251 . S
O140 C120 1.244 1_545 S
O140 Eu121 2.473 1_545 S
O141 C120 1.273 . S
O141 Eu121 2.480 . S
O142 Eu121 2.430 . S
O142 C128 1.259 . S
O143 Eu121 2.670 . S
O143 C128 1.270 . S
O143 Eu131 2.355 1_565 S
O144 Eu121 2.394 1_545 S
O144 C129 1.251 . S
O145 C129 1.251 . S
O145 Eu131 2.374 . S
O146 C130 1.257 1_565 S
O146 Eu131 2.473 1_565 S
O147 C130 1.260 . S
O147 Eu131 2.480 . S
O148 Eu131 2.430 . S
O148 C138 1.259 . S
O149 Eu121 2.355 1_545 S
O149 Eu131 2.670 . S
O149 C138 1.270 . S
O150 Eu131 2.394 1_565 S
O150 C139 1.251 . S
O151 Eu121 2.374 . S
O151 C139 1.251 . S
H152 C123 0.931 . S
H153 C124 0.931 . S
H154 C126 0.931 . S
H155 C127 0.931 . S
H156 C133 0.931 . S
H157 C134 0.931 . S
H158 C136 0.931 . S
H159 C137 0.931 . S
C160 Eu161 2.835 . S
C160 C162 1.500 . S
C160 O180 1.257 . S
C160 O181 1.260 . S
Eu161 C160 2.835 . S
Eu161 O180 2.473 . S
Eu161 O181 2.480 . S
Eu161 O182 2.430 . S
Eu161 O183 2.670 . S
Eu161 O184 2.394 . S
Eu161 O189 2.355 . S
Eu161 O191 2.374 . S
C162 C160 1.500 . S
C162 C163 1.377 . S
C162 C167 1.377 . S
C163 C162 1.377 . S
C163 C164 1.395 . S
C163 H192 0.931 . S
C164 C163 1.395 . S
C164 C165 1.383 . S
C164 H193 0.931 . S
C165 C164 1.383 . S
C165 C166 1.394 . S
C166 C165 1.394 . S
C166 C167 1.378 . S
C166 H194 0.931 . S
C167 C162 1.377 . S
C167 C166 1.378 . S
C167 H195 0.931 . S
C168 O182 1.259 . S
C168 O183 1.270 . S
C169 O184 1.251 . S
C169 O185 1.251 . S
C170 Eu171 2.835 . S
C170 C172 1.500 . S
C170 O186 1.257 . S
C170 O187 1.260 . S
Eu171 C170 2.835 . S
Eu171 O183 2.355 . S
Eu171 O185 2.374 . S
Eu171 O186 2.473 . S
Eu171 O187 2.480 . S
Eu171 O188 2.430 . S
Eu171 O189 2.670 . S
Eu171 O190 2.394 . S
C172 C170 1.500 . S
C172 C173 1.377 . S
C172 C177 1.377 . S
C173 C172 1.377 . S
C173 C174 1.395 . S
C173 H196 0.931 . S
C174 C173 1.395 . S
C174 C175 1.383 . S
C174 H197 0.931 . S
C175 C174 1.383 . S
C175 C176 1.394 . S
C176 C175 1.394 . S
C176 C177 1.378 . S
C176 H198 0.931 . S
C177 C172 1.377 . S
C177 C176 1.378 . S
C177 H199 0.931 . S
C178 O188 1.259 . S
C178 O189 1.270 . S
C179 O190 1.251 . S
C179 O191 1.251 . S
O180 C160 1.257 . S
O180 Eu161 2.473 . S
O181 C160 1.260 . S
O181 Eu161 2.480 . S
O182 Eu161 2.430 . S
O182 C168 1.259 . S
O183 Eu161 2.670 . S
O183 C168 1.270 . S
O183 Eu171 2.355 . S
O184 Eu161 2.394 . S
O184 C169 1.251 . S
O185 C169 1.251 . S
O185 Eu171 2.374 . S
O186 C170 1.257 . S
O186 Eu171 2.473 . S
O187 C170 1.260 . S
O187 Eu171 2.480 . S
O188 Eu171 2.430 . S
O188 C178 1.259 . S
O189 Eu161 2.355 . S
O189 Eu171 2.670 . S
O189 C178 1.270 . S
O190 Eu171 2.394 . S
O190 C179 1.251 . S
O191 Eu161 2.374 . S
O191 C179 1.251 . S
H192 C163 0.931 . S
H193 C164 0.931 . S
H194 C166 0.931 . S
H195 C167 0.931 . S
H196 C173 0.931 . S
H197 C174 0.931 . S
H198 C176 0.931 . S
H199 C177 0.931 . S
C200 Eu201 2.835 . S
C200 C202 1.500 . S
C200 O220 1.257 . S
C200 O221 1.260 . S
Eu201 C200 2.835 . S
Eu201 O220 2.473 . S
Eu201 O221 2.480 . S
Eu201 O222 2.430 . S
Eu201 O223 2.670 . S
Eu201 O224 2.394 . S
Eu201 O229 2.355 . S
Eu201 O231 2.374 . S
C202 C200 1.500 . S
C202 C203 1.377 . S
C202 C207 1.377 . S
C203 C202 1.377 . S
C203 C204 1.395 . S
C203 H232 0.931 . S
C204 C203 1.395 . S
C204 C205 1.383 . S
C204 H233 0.931 . S
C205 C204 1.383 . S
C205 C206 1.394 . S
C206 C205 1.394 . S
C206 C207 1.378 . S
C206 H234 0.931 . S
C207 C202 1.377 . S
C207 C206 1.378 . S
C207 H235 0.931 . S
C208 O222 1.259 . S
C208 O223 1.270 . S
C209 O224 1.251 . S
C209 O225 1.251 . S
C210 Eu211 2.835 . S
C210 C212 1.500 . S
C210 O226 1.257 . S
C210 O227 1.260 . S
Eu211 C210 2.835 . S
Eu211 O223 2.355 . S
Eu211 O225 2.374 . S
Eu211 O226 2.473 . S
Eu211 O227 2.480 . S
Eu211 O228 2.430 . S
Eu211 O229 2.670 . S
Eu211 O230 2.394 . S
C212 C210 1.500 . S
C212 C213 1.377 . S
C212 C217 1.377 . S
C213 C212 1.377 . S
C213 C214 1.395 . S
C213 H236 0.931 . S
C214 C213 1.395 . S
C214 C215 1.383 . S
C214 H237 0.931 . S
C215 C214 1.383 . S
C215 C216 1.394 . S
C216 C215 1.394 . S
C216 C217 1.378 . S
C216 H238 0.931 . S
C217 C212 1.377 . S
C217 C216 1.378 . S
C217 H239 0.931 . S
C218 O228 1.259 . S
C218 O229 1.270 . S
C219 O230 1.251 . S
C219 O231 1.251 . S
O220 C200 1.257 . S
O220 Eu201 2.473 . S
O221 C200 1.260 . S
O221 Eu201 2.480 . S
O222 Eu201 2.430 . S
O222 C208 1.259 . S
O223 Eu201 2.670 . S
O223 C208 1.270 . S
O223 Eu211 2.355 . S
O224 Eu201 2.394 . S
O224 C209 1.251 . S
O225 C209 1.251 . S
O225 Eu211 2.374 . S
O226 C210 1.257 . S
O226 Eu211 2.473 . S
O227 C210 1.260 . S
O227 Eu211 2.480 . S
O228 Eu211 2.430 . S
O228 C218 1.259 . S
O229 Eu201 2.355 . S
O229 Eu211 2.670 . S
O229 C218 1.270 . S
O230 Eu211 2.394 . S
O230 C219 1.251 . S
O231 Eu201 2.374 . S
O231 C219 1.251 . S
H232 C203 0.931 . S
H233 C204 0.931 . S
H234 C206 0.931 . S
H235 C207 0.931 . S
H236 C213 0.931 . S
H237 C214 0.931 . S
H238 C216 0.931 . S
H239 C217 0.931 . S
C240 Eu241 2.835 . S
C240 C242 1.500 . S
C240 O260 1.257 . S
C240 O261 1.260 . S
Eu241 C240 2.835 . S
Eu241 O260 2.473 . S
Eu241 O261 2.480 . S
Eu241 O262 2.430 . S
Eu241 O263 2.670 . S
Eu241 O264 2.394 . S
Eu241 O269 2.355 . S
Eu241 O271 2.374 . S
C242 C240 1.500 . S
C242 C243 1.377 . S
C242 C247 1.377 . S
C243 C242 1.377 . S
C243 C244 1.395 . S
C243 H272 0.931 . S
C244 C243 1.395 . S
C244 C245 1.383 . S
C244 H273 0.931 . S
C245 C244 1.383 . S
C245 C246 1.394 . S
C246 C245 1.394 . S
C246 C247 1.378 . S
C246 H274 0.931 . S
C247 C242 1.377 . S
C247 C246 1.378 . S
C247 H275 0.931 . S
C248 O262 1.259 . S
C248 O263 1.270 . S
C249 O264 1.251 . S
C249 O265 1.251 . S
C250 Eu251 2.835 . S
C250 C252 1.500 . S
C250 O266 1.257 . S
C250 O267 1.260 . S
Eu251 C250 2.835 . S
Eu251 O263 2.355 . S
Eu251 O265 2.374 . S
Eu251 O266 2.473 . S
Eu251 O267 2.480 . S
Eu251 O268 2.430 . S
Eu251 O269 2.670 . S
Eu251 O270 2.394 . S
C252 C250 1.500 . S
C252 C253 1.377 . S
C252 C257 1.377 . S
C253 C252 1.377 . S
C253 C254 1.395 . S
C253 H276 0.931 . S
C254 C253 1.395 . S
C254 C255 1.383 . S
C254 H277 0.931 . S
C255 C254 1.383 . S
C255 C256 1.394 . S
C256 C255 1.394 . S
C256 C257 1.378 . S
C256 H278 0.931 . S
C257 C252 1.377 . S
C257 C256 1.378 . S
C257 H279 0.931 . S
C258 O268 1.259 . S
C258 O269 1.270 . S
C259 O270 1.251 . S
C259 O271 1.251 . S
O260 C240 1.257 . S
O260 Eu241 2.473 . S
O261 C240 1.260 . S
O261 Eu241 2.480 . S
O262 Eu241 2.430 . S
O262 C248 1.259 . S
O263 Eu241 2.670 . S
O263 C248 1.270 . S
O263 Eu251 2.355 . S
O264 Eu241 2.394 . S
O264 C249 1.251 . S
O265 C249 1.251 . S
O265 Eu251 2.374 . S
O266 C250 1.257 . S
O266 Eu251 2.473 . S
O267 C250 1.260 . S
O267 Eu251 2.480 . S
O268 Eu251 2.430 . S
O268 C258 1.259 . S
O269 Eu241 2.355 . S
O269 Eu251 2.670 . S
O269 C258 1.270 . S
O270 Eu251 2.394 . S
O270 C259 1.251 . S
O271 Eu241 2.374 . S
O271 C259 1.251 . S
H272 C243 0.931 . S
H273 C244 0.931 . S
H274 C246 0.931 . S
H275 C247 0.931 . S
H276 C253 0.931 . S
H277 C254 0.931 . S
H278 C256 0.931 . S
H279 C257 0.931 . S
C280 Eu281 2.835 . S
C280 C282 1.500 . S
C280 O300 1.257 . S
C280 O301 1.260 . S
Eu281 C280 2.835 . S
Eu281 O300 2.473 . S
Eu281 O301 2.480 . S
Eu281 O302 2.430 1_455 S
Eu281 O303 2.670 1_455 S
Eu281 O304 2.394 1_455 S
Eu281 O309 2.355 . S
Eu281 O311 2.374 . S
C282 C280 1.500 . S
C282 C283 1.377 . S
C282 C287 1.377 . S
C283 C282 1.377 . S
C283 C284 1.395 . S
C283 H312 0.931 . S
C284 C283 1.395 . S
C284 C285 1.383 . S
C284 H313 0.931 . S
C285 C284 1.383 . S
C285 C286 1.394 . S
C286 C285 1.394 . S
C286 C287 1.378 . S
C286 H314 0.931 . S
C287 C282 1.377 . S
C287 C286 1.378 . S
C287 H315 0.931 . S
C288 O302 1.259 . S
C288 O303 1.270 . S
C289 O304 1.251 . S
C289 O305 1.251 . S
C290 Eu291 2.835 . S
C290 C292 1.500 . S
C290 O306 1.257 . S
C290 O307 1.260 . S
Eu291 C290 2.835 . S
Eu291 O303 2.355 . S
Eu291 O305 2.374 . S
Eu291 O306 2.473 . S
Eu291 O307 2.480 . S
Eu291 O308 2.430 1_655 S
Eu291 O309 2.670 1_655 S
Eu291 O310 2.394 1_655 S
C292 C290 1.500 . S
C292 C293 1.377 . S
C292 C297 1.377 . S
C293 C292 1.377 . S
C293 C294 1.395 . S
C293 H316 0.931 . S
C294 C293 1.395 . S
C294 C295 1.383 . S
C294 H317 0.931 . S
C295 C294 1.383 . S
C295 C296 1.394 . S
C296 C295 1.394 . S
C296 C297 1.378 . S
C296 H318 0.931 . S
C297 C292 1.377 . S
C297 C296 1.378 . S
C297 H319 0.931 . S
C298 O308 1.259 . S
C298 O309 1.270 . S
C299 O310 1.251 . S
C299 O311 1.251 . S
O300 C280 1.257 . S
O300 Eu281 2.473 . S
O301 C280 1.260 . S
O301 Eu281 2.480 . S
O302 Eu281 2.430 1_655 S
O302 C288 1.259 . S
O303 Eu281 2.670 1_655 S
O303 C288 1.270 . S
O303 Eu291 2.355 . S
O304 Eu281 2.394 1_655 S
O304 C289 1.251 . S
O305 C289 1.251 . S
O305 Eu291 2.374 . S
O306 C290 1.257 . S
O306 Eu291 2.473 . S
O307 C290 1.260 . S
O307 Eu291 2.480 . S
O308 Eu291 2.430 1_455 S
O308 C298 1.259 . S
O309 Eu281 2.355 . S
O309 Eu291 2.670 1_455 S
O309 C298 1.270 . S
O310 Eu291 2.394 1_455 S
O310 C299 1.251 . S
O311 Eu281 2.374 . S
O311 C299 1.251 . S
H312 C283 0.931 . S
H313 C284 0.931 . S
H314 C286 0.931 . S
H315 C287 0.931 . S
H316 C293 0.931 . S
H317 C294 0.931 . S
H318 C296 0.931 . S
H319 C297 0.931 . S
C320 Eu321 2.835 . S
C320 C322 1.500 . S
C320 O340 1.257 . S
C320 O341 1.260 . S
Eu321 C320 2.835 . S
Eu321 O340 2.473 . S
Eu321 O341 2.480 . S
Eu321 O342 2.430 . S
Eu321 O343 2.670 . S
Eu321 O344 2.394 1_556 S
Eu321 O349 2.355 1_556 S
Eu321 O351 2.374 . S
C322 C320 1.500 . S
C322 C323 1.377 . S
C322 C327 1.377 1_556 S
C323 C322 1.377 . S
C323 C324 1.395 . S
C323 H352 0.931 . S
C324 C323 1.395 . S
C324 C325 1.383 . S
C324 H353 0.931 . S
C325 C324 1.383 . S
C325 C326 1.394 1_556 S
C326 C325 1.394 1_554 S
C326 C327 1.378 . S
C326 H354 0.931 . S
C327 C322 1.377 1_554 S
C327 C326 1.378 . S
C327 H355 0.931 . S
C328 O342 1.259 . S
C328 O343 1.270 . S
C329 O344 1.251 . S
C329 O345 1.251 . S
C330 Eu331 2.835 . S
C330 C332 1.500 . S
C330 O346 1.257 . S
C330 O347 1.260 . S
Eu331 C330 2.835 . S
Eu331 O343 2.355 1_554 S
Eu331 O345 2.374 . S
Eu331 O346 2.473 . S
Eu331 O347 2.480 . S
Eu331 O348 2.430 . S
Eu331 O349 2.670 . S
Eu331 O350 2.394 1_554 S
C332 C330 1.500 . S
C332 C333 1.377 . S
C332 C337 1.377 1_554 S
C333 C332 1.377 . S
C333 C334 1.395 . S
C333 H356 0.931 . S
C334 C333 1.395 . S
C334 C335 1.383 . S
C334 H357 0.931 . S
C335 C334 1.383 . S
C335 C336 1.394 1_554 S
C336 C335 1.394 1_556 S
C336 C337 1.378 . S
C336 H358 0.931 . S
C337 C332 1.377 1_556 S
C337 C336 1.378 . S
C337 H359 0.931 . S
C338 O348 1.259 . S
C338 O349 1.270 . S
C339 O350 1.251 . S
C339 O351 1.251 . S
O340 C320 1.257 . S
O340 Eu321 2.473 . S
O341 C320 1.260 . S
O341 Eu321 2.480 . S
O342 Eu321 2.430 . S
O342 C328 1.259 . S
O343 Eu321 2.670 . S
O343 C328 1.270 . S
O343 Eu331 2.355 1_556 S
O344 Eu321 2.394 1_554 S
O344 C329 1.251 . S
O345 C329 1.251 . S
O345 Eu331 2.374 . S
O346 C330 1.257 . S
O346 Eu331 2.473 . S
O347 C330 1.260 . S
O347 Eu331 2.480 . S
O348 Eu331 2.430 . S
O348 C338 1.259 . S
O349 Eu321 2.355 1_554 S
O349 Eu331 2.670 . S
O349 C338 1.270 . S
O350 Eu331 2.394 1_556 S
O350 C339 1.251 . S
O351 Eu321 2.374 . S
O351 C339 1.251 . S
H352 C323 0.931 . S
H353 C324 0.931 . S
H354 C326 0.931 . S
H355 C327 0.931 . S
H356 C333 0.931 . S
H357 C334 0.931 . S
H358 C336 0.931 . S
H359 C337 0.931 . S
C360 Eu361 2.834 . S
C360 C362 1.501 1_565 S
C360 O380 1.244 1_565 S
C360 O381 1.273 . S
Eu361 C360 2.834 . S
Eu361 O380 2.473 1_565 S
Eu361 O381 2.480 . S
Eu361 O382 2.430 . S
Eu361 O383 2.670 . S
Eu361 O384 2.394 1_565 S
Eu361 O389 2.355 1_565 S
Eu361 O391 2.374 . S
C362 C360 1.501 1_545 S
C362 C363 1.377 1_545 S
C362 C367 1.377 . S
C363 C362 1.377 1_565 S
C363 C364 1.395 . S
C363 H392 0.931 . S
C364 C363 1.395 . S
C364 C365 1.383 1_565 S
C364 H393 0.931 . S
C365 C364 1.383 1_545 S
C365 C366 1.394 . S
C366 C365 1.394 . S
C366 C367 1.378 . S
C366 H394 0.931 . S
C367 C362 1.377 . S
C367 C366 1.378 . S
C367 H395 0.931 . S
C368 O382 1.259 . S
C368 O383 1.270 . S
C369 O384 1.251 . S
C369 O385 1.251 . S
C370 Eu371 2.835 . S
C370 C372 1.500 1_545 S
C370 O386 1.257 1_545 S
C370 O387 1.260 . S
Eu371 C370 2.835 . S
Eu371 O383 2.355 1_545 S
Eu371 O385 2.374 . S
Eu371 O386 2.473 1_545 S
Eu371 O387 2.480 . S
Eu371 O388 2.430 . S
Eu371 O389 2.670 . S
Eu371 O390 2.394 1_545 S
C372 C370 1.500 1_565 S
C372 C373 1.377 1_565 S
C372 C377 1.377 . S
C373 C372 1.377 1_545 S
C373 C374 1.395 . S
C373 H396 0.931 . S
C374 C373 1.395 . S
C374 C375 1.383 1_545 S
C374 H397 0.931 . S
C375 C374 1.383 1_565 S
C375 C376 1.394 . S
C376 C375 1.394 . S
C376 C377 1.378 . S
C376 H398 0.931 . S
C377 C372 1.377 . S
C377 C376 1.378 . S
C377 H399 0.931 . S
C378 O388 1.259 . S
C378 O389 1.270 . S
C379 O390 1.251 . S
C379 O391 1.251 . S
O380 C360 1.244 1_545 S
O380 Eu361 2.473 1_545 S
O381 C360 1.273 . S
O381 Eu361 2.480 . S
O382 Eu361 2.430 . S
O382 C368 1.259 . S
O383 Eu361 2.670 . S
O383 C368 1.270 . S
O383 Eu371 2.355 1_565 S
O384 Eu361 2.394 1_545 S
O384 C369 1.251 . S
O385 C369 1.251 . S
O385 Eu371 2.374 . S
O386 C370 1.257 1_565 S
O386 Eu371 2.473 1_565 S
O387 C370 1.260 . S
O387 Eu371 2.480 . S
O388 Eu371 2.430 . S
O388 C378 1.259 . S
O389 Eu361 2.355 1_545 S
O389 Eu371 2.670 . S
O389 C378 1.270 . S
O390 Eu371 2.394 1_565 S
O390 C379 1.251 . S
O391 Eu361 2.374 . S
O391 C379 1.251 . S
H392 C363 0.931 . S
H393 C364 0.931 . S
H394 C366 0.931 . S
H395 C367 0.931 . S
H396 C373 0.931 . S
H397 C374 0.931 . S
H398 C376 0.931 . S
H399 C377 0.931 . S
C400 Eu401 2.835 . S
C400 C402 1.500 . S
C400 O420 1.257 . S
C400 O421 1.260 . S
Eu401 C400 2.835 . S
Eu401 O420 2.473 . S
Eu401 O421 2.480 . S
Eu401 O422 2.430 . S
Eu401 O423 2.670 . S
Eu401 O424 2.394 . S
Eu401 O429 2.355 . S
Eu401 O431 2.374 . S
C402 C400 1.500 . S
C402 C403 1.377 . S
C402 C407 1.377 . S
C403 C402 1.377 . S
C403 C404 1.395 . S
C403 H432 0.931 . S
C404 C403 1.395 . S
C404 C405 1.383 . S
C404 H433 0.931 . S
C405 C404 1.383 . S
C405 C406 1.394 . S
C406 C405 1.394 . S
C406 C407 1.378 . S
C406 H434 0.931 . S
C407 C402 1.377 . S
C407 C406 1.378 . S
C407 H435 0.931 . S
C408 O422 1.259 . S
C408 O423 1.270 . S
C409 O424 1.251 . S
C409 O425 1.251 . S
C410 Eu411 2.835 . S
C410 C412 1.500 . S
C410 O426 1.257 . S
C410 O427 1.260 . S
Eu411 C410 2.835 . S
Eu411 O423 2.355 . S
Eu411 O425 2.374 . S
Eu411 O426 2.473 . S
Eu411 O427 2.480 . S
Eu411 O428 2.430 . S
Eu411 O429 2.670 . S
Eu411 O430 2.394 . S
C412 C410 1.500 . S
C412 C413 1.377 . S
C412 C417 1.377 . S
C413 C412 1.377 . S
C413 C414 1.395 . S
C413 H436 0.931 . S
C414 C413 1.395 . S
C414 C415 1.383 . S
C414 H437 0.931 . S
C415 C414 1.383 . S
C415 C416 1.394 . S
C416 C415 1.394 . S
C416 C417 1.378 . S
C416 H438 0.931 . S
C417 C412 1.377 . S
C417 C416 1.378 . S
C417 H439 0.931 . S
C418 O428 1.259 . S
C418 O429 1.270 . S
C419 O430 1.251 . S
C419 O431 1.251 . S
O420 C400 1.257 . S
O420 Eu401 2.473 . S
O421 C400 1.260 . S
O421 Eu401 2.480 . S
O422 Eu401 2.430 . S
O422 C408 1.259 . S
O423 Eu401 2.670 . S
O423 C408 1.270 . S
O423 Eu411 2.355 . S
O424 Eu401 2.394 . S
O424 C409 1.251 . S
O425 C409 1.251 . S
O425 Eu411 2.374 . S
O426 C410 1.257 . S
O426 Eu411 2.473 . S
O427 C410 1.260 . S
O427 Eu411 2.480 . S
O428 Eu411 2.430 . S
O428 C418 1.259 . S
O429 Eu401 2.355 . S
O429 Eu411 2.670 . S
O429 C418 1.270 . S
O430 Eu411 2.394 . S
O430 C419 1.251 . S
O431 Eu401 2.374 . S
O431 C419 1.251 . S
H432 C403 0.931 . S
H433 C404 0.931 . S
H434 C406 0.931 . S
H435 C407 0.931 . S
H436 C413 0.931 . S
H437 C414 0.931 . S
H438 C416 0.931 . S
H439 C417 0.931 . S
C440 Eu441 2.835 . S
C440 C442 1.500 1_655 S
C440 O460 1.257 1_655 S
C440 O461 1.260 . S
Eu441 C440 2.835 . S
Eu441 O460 2.473 1_655 S
Eu441 O461 2.480 . S
Eu441 O462 2.430 . S
Eu441 O463 2.670 . S
Eu441 O464 2.394 1_655 S
Eu441 O469 2.355 1_655 S
Eu441 O471 2.374 . S
C442 C440 1.500 1_455 S
C442 C443 1.377 1_455 S
C442 C447 1.377 . S
C443 C442 1.377 1_655 S
C443 C444 1.395 . S
C443 H472 0.931 . S
C444 C443 1.395 . S
C444 C445 1.383 1_655 S
C444 H473 0.931 . S
C445 C444 1.383 1_455 S
C445 C446 1.394 . S
C446 C445 1.394 . S
C446 C447 1.378 . S
C446 H474 0.931 . S
C447 C442 1.377 . S
C447 C446 1.378 . S
C447 H475 0.931 . S
C448 O462 1.259 . S
C448 O463 1.270 . S
C449 O464 1.251 . S
C449 O465 1.251 . S
C450 Eu451 2.835 . S
C450 C452 1.502 1_455 S
C450 O466 1.257 1_455 S
C450 O467 1.260 . S
Eu451 C450 2.835 . S
Eu451 O463 2.355 1_455 S
Eu451 O465 2.374 . S
Eu451 O466 2.473 1_455 S
Eu451 O467 2.480 . S
Eu451 O468 2.430 . S
Eu451 O469 2.670 . S
Eu451 O470 2.394 1_455 S
C452 C450 1.502 1_655 S
C452 C453 1.358 1_655 S
C452 C457 1.393 . S
C453 C452 1.358 1_455 S
C453 C454 1.395 . S
C453 H476 0.931 . S
C454 C453 1.395 . S
C454 C455 1.383 1_455 S
C454 H477 0.931 . S
C455 C454 1.383 1_655 S
C455 C456 1.394 . S
C456 C455 1.394 . S
C456 C457 1.378 . S
C456 H478 0.931 . S
C457 C452 1.393 . S
C457 C456 1.378 . S
C457 H479 0.931 . S
C458 O468 1.259 . S
C458 O469 1.270 . S
C459 O470 1.251 . S
C459 O471 1.251 . S
O460 C440 1.257 1_455 S
O460 Eu441 2.473 1_455 S
O461 C440 1.260 . S
O461 Eu441 2.480 . S
O462 Eu441 2.430 . S
O462 C448 1.259 . S
O463 Eu441 2.670 . S
O463 C448 1.270 . S
O463 Eu451 2.355 1_655 S
O464 Eu441 2.394 1_455 S
O464 C449 1.251 . S
O465 C449 1.251 . S
O465 Eu451 2.374 . S
O466 C450 1.257 1_655 S
O466 Eu451 2.473 1_655 S
O467 C450 1.260 . S
O467 Eu451 2.480 . S
O468 Eu451 2.430 . S
O468 C458 1.259 . S
O469 Eu441 2.355 1_455 S
O469 Eu451 2.670 . S
O469 C458 1.270 . S
O470 Eu451 2.394 1_655 S
O470 C459 1.251 . S
O471 Eu441 2.374 . S
O471 C459 1.251 . S
H472 C443 0.931 . S
H473 C444 0.931 . S
H474 C446 0.931 . S
H475 C447 0.931 . S
H476 C453 0.931 . S
H477 C454 0.931 . S
H478 C456 0.931 . S
H479 C457 0.931 . S
C480 Eu481 2.835 . S
C480 C482 1.500 . S
C480 O500 1.257 . S
C480 O501 1.260 . S
Eu481 C480 2.835 . S
Eu481 O500 2.473 . S
Eu481 O501 2.480 . S
Eu481 O502 2.430 . S
Eu481 O503 2.670 . S
Eu481 O504 2.394 . S
Eu481 O509 2.355 . S
Eu481 O511 2.374 . S
C482 C480 1.500 . S
C482 C483 1.377 . S
C482 C487 1.377 . S
C483 C482 1.377 . S
C483 C484 1.395 . S
C483 H512 0.931 . S
C484 C483 1.395 . S
C484 C485 1.383 . S
C484 H513 0.931 . S
C485 C484 1.383 . S
C485 C486 1.394 . S
C486 C485 1.394 . S
C486 C487 1.378 . S
C486 H514 0.931 . S
C487 C482 1.377 . S
C487 C486 1.378 . S
C487 H515 0.931 . S
C488 O502 1.259 . S
C488 O503 1.270 . S
C489 O504 1.251 . S
C489 O505 1.251 . S
C490 Eu491 2.835 . S
C490 C492 1.500 . S
C490 O506 1.257 . S
C490 O507 1.260 . S
Eu491 C490 2.835 . S
Eu491 O503 2.355 . S
Eu491 O505 2.374 . S
Eu491 O506 2.473 . S
Eu491 O507 2.480 . S
Eu491 O508 2.430 . S
Eu491 O509 2.670 . S
Eu491 O510 2.394 . S
C492 C490 1.500 . S
C492 C493 1.377 . S
C492 C497 1.377 . S
C493 C492 1.377 . S
C493 C494 1.395 . S
C493 H516 0.931 . S
C494 C493 1.395 . S
C494 C495 1.383 . S
C494 H517 0.931 . S
C495 C494 1.383 . S
C495 C496 1.394 . S
C496 C495 1.394 . S
C496 C497 1.378 . S
C496 H518 0.931 . S
C497 C492 1.377 . S
C497 C496 1.378 . S
C497 H519 0.931 . S
C498 O508 1.259 . S
C498 O509 1.270 . S
C499 O510 1.251 . S
C499 O511 1.251 . S
O500 C480 1.257 . S
O500 Eu481 2.473 . S
O501 C480 1.260 . S
O501 Eu481 2.480 . S
O502 Eu481 2.430 . S
O502 C488 1.259 . S
O503 Eu481 2.670 . S
O503 C488 1.270 . S
O503 Eu491 2.355 . S
O504 Eu481 2.394 . S
O504 C489 1.251 . S
O505 C489 1.251 . S
O505 Eu491 2.374 . S
O506 C490 1.257 . S
O506 Eu491 2.473 . S
O507 C490 1.260 . S
O507 Eu491 2.480 . S
O508 Eu491 2.430 . S
O508 C498 1.259 . S
O509 Eu481 2.355 . S
O509 Eu491 2.670 . S
O509 C498 1.270 . S
O510 Eu491 2.394 . S
O510 C499 1.251 . S
O511 Eu481 2.374 . S
O511 C499 1.251 . S
H512 C483 0.931 . S
H513 C484 0.931 . S
H514 C486 0.931 . S
H515 C487 0.931 . S
H516 C493 0.931 . S
H517 C494 0.931 . S
H518 C496 0.931 . S
H519 C497 0.931 . S
C520 Eu521 2.835 . S
C520 C522 1.500 . S
C520 O540 1.257 . S
C520 O541 1.260 . S
Eu521 C520 2.835 . S
Eu521 O540 2.473 . S
Eu521 O541 2.480 . S
Eu521 O542 2.430 . S
Eu521 O543 2.670 . S
Eu521 O544 2.394 1_556 S
Eu521 O549 2.355 1_556 S
Eu521 O551 2.374 . S
C522 C520 1.500 . S
C522 C523 1.377 . S
C522 C527 1.377 1_556 S
C523 C522 1.377 . S
C523 C524 1.395 . S
C523 H552 0.931 . S
C524 C523 1.395 . S
C524 C525 1.383 . S
C524 H553 0.931 . S
C525 C524 1.383 . S
C525 C526 1.394 1_556 S
C526 C525 1.394 1_554 S
C526 C527 1.378 . S
C526 H554 0.931 . S
C527 C522 1.377 1_554 S
C527 C526 1.378 . S
C527 H555 0.931 . S
C528 O542 1.259 . S
C528 O543 1.270 . S
C529 O544 1.251 . S
C529 O545 1.251 . S
C530 Eu531 2.835 . S
C530 C532 1.500 . S
C530 O546 1.257 . S
C530 O547 1.260 . S
Eu531 C530 2.835 . S
Eu531 O543 2.355 1_554 S
Eu531 O545 2.374 . S
Eu531 O546 2.473 . S
Eu531 O547 2.480 . S
Eu531 O548 2.430 . S
Eu531 O549 2.670 . S
Eu531 O550 2.394 1_554 S
C532 C530 1.500 . S
C532 C533 1.377 . S
C532 C537 1.377 1_554 S
C533 C532 1.377 . S
C533 C534 1.395 . S
C533 H556 0.931 . S
C534 C533 1.395 . S
C534 C535 1.383 . S
C534 H557 0.931 . S
C535 C534 1.383 . S
C535 C536 1.394 1_554 S
C536 C535 1.394 1_556 S
C536 C537 1.378 . S
C536 H558 0.931 . S
C537 C532 1.377 1_556 S
C537 C536 1.378 . S
C537 H559 0.931 . S
C538 O548 1.259 . S
C538 O549 1.270 . S
C539 O550 1.251 . S
C539 O551 1.251 . S
O540 C520 1.257 . S
O540 Eu521 2.473 . S
O541 C520 1.260 . S
O541 Eu521 2.480 . S
O542 Eu521 2.430 . S
O542 C528 1.259 . S
O543 Eu521 2.670 . S
O543 C528 1.270 . S
O543 Eu531 2.355 1_556 S
O544 Eu521 2.394 1_554 S
O544 C529 1.251 . S
O545 C529 1.251 . S
O545 Eu531 2.374 . S
O546 C530 1.257 . S
O546 Eu531 2.473 . S
O547 C530 1.260 . S
O547 Eu531 2.480 . S
O548 Eu531 2.430 . S
O548 C538 1.259 . S
O549 Eu521 2.355 1_554 S
O549 Eu531 2.670 . S
O549 C538 1.270 . S
O550 Eu531 2.394 1_556 S
O550 C539 1.251 . S
O551 Eu521 2.374 . S
O551 C539 1.251 . S
H552 C523 0.931 . S
H553 C524 0.931 . S
H554 C526 0.931 . S
H555 C527 0.931 . S
H556 C533 0.931 . S
H557 C534 0.931 . S
H558 C536 0.931 . S
H559 C537 0.931 . S
C560 Eu561 2.835 . S
C560 C562 1.500 . S
C560 O580 1.257 . S
C560 O581 1.260 . S
Eu561 C560 2.835 . S
Eu561 O580 2.473 . S
Eu561 O581 2.480 . S
Eu561 O582 2.430 . S
Eu561 O583 2.670 . S
Eu561 O584 2.394 . S
Eu561 O589 2.355 1_545 S
Eu561 O591 2.374 1_545 S
C562 C560 1.500 . S
C562 C563 1.377 . S
C562 C567 1.377 . S
C563 C562 1.377 . S
C563 C564 1.395 . S
C563 H592 0.931 . S
C564 C563 1.395 . S
C564 C565 1.383 . S
C564 H593 0.931 . S
C565 C564 1.383 . S
C565 C566 1.394 . S
C566 C565 1.394 . S
C566 C567 1.378 . S
C566 H594 0.931 . S
C567 C562 1.377 . S
C567 C566 1.378 . S
C567 H595 0.931 . S
C568 O582 1.259 . S
C568 O583 1.270 . S
C569 O584 1.251 . S
C569 O585 1.251 . S
C570 Eu571 2.835 . S
C570 C572 1.500 . S
C570 O586 1.257 . S
C570 O587 1.260 . S
Eu571 C570 2.835 . S
Eu571 O583 2.355 1_565 S
Eu571 O585 2.374 1_565 S
Eu571 O586 2.473 . S
Eu571 O587 2.480 . S
Eu571 O588 2.430 . S
Eu571 O589 2.670 . S
Eu571 O590 2.394 . S
C572 C570 1.500 . S
C572 C573 1.377 . S
C572 C577 1.377 . S
C573 C572 1.377 . S
C573 C574 1.395 . S
C573 H596 0.931 . S
C574 C573 1.395 . S
C574 C575 1.383 . S
C574 H597 0.931 . S
C575 C574 1.383 . S
C575 C576 1.394 . S
C576 C575 1.394 . S
C576 C577 1.378 . S
C576 H598 0.931 . S
C577 C572 1.377 . S
C577 C576 1.378 . S
C577 H599 0.931 . S
C578 O588 1.259 . S
C578 O589 1.270 . S
C579 O590 1.251 . S
C579 O591 1.251 . S
O580 C560 1.257 . S
O580 Eu561 2.473 . S
O581 C560 1.260 . S
O581 Eu561 2.480 . S
O582 Eu561 2.430 . S
O582 C568 1.259 . S
O583 Eu561 2.670 . S
O583 C568 1.270 . S
O583 Eu571 2.355 1_545 S
O584 Eu561 2.394 . S
O584 C569 1.251 . S
O585 C569 1.251 . S
O585 Eu571 2.374 1_545 S
O586 C570 1.257 . S
O586 Eu571 2.473 . S
O587 C570 1.260 . S
O587 Eu571 2.480 . S
O588 Eu571 2.430 . S
O588 C578 1.259 . S
O589 Eu561 2.355 1_565 S
O589 Eu571 2.670 . S
O589 C578 1.270 . S
O590 Eu571 2.394 . S
O590 C579 1.251 . S
O591 Eu561 2.374 1_565 S
O591 C579 1.251 . S
H592 C563 0.931 . S
H593 C564 0.931 . S
H594 C566 0.931 . S
H595 C567 0.931 . S
H596 C573 0.931 . S
H597 C574 0.931 . S
H598 C576 0.931 . S
H599 C577 0.931 . S
C600 Eu601 2.835 . S
C600 C602 1.500 . S
C600 O620 1.257 . S
C600 O621 1.260 . S
Eu601 C600 2.835 . S
Eu601 O620 2.473 . S
Eu601 O621 2.480 . S
Eu601 O622 2.430 . S
Eu601 O623 2.670 . S
Eu601 O624 2.387 1_556 S
Eu601 O629 2.355 1_556 S
Eu601 O631 2.374 . S
C602 C600 1.500 . S
C602 C603 1.377 . S
C602 C607 1.377 . S
C603 C602 1.377 . S
C603 C604 1.395 . S
C603 H632 0.931 . S
C604 C603 1.395 . S
C604 C605 1.383 . S
C604 H633 0.931 . S
C605 C604 1.383 . S
C605 C606 1.394 . S
C606 C605 1.394 . S
C606 C607 1.378 . S
C606 H634 0.931 . S
C607 C602 1.377 . S
C607 C606 1.378 . S
C607 H635 0.900 1_556 S
C608 O622 1.259 . S
C608 O623 1.270 . S
C609 O624 1.261 . S
C609 O625 1.251 . S
C610 Eu611 2.835 . S
C610 C612 1.500 . S
C610 O626 1.257 . S
C610 O627 1.260 . S
Eu611 C610 2.835 . S
Eu611 O623 2.355 1_554 S
Eu611 O625 2.374 . S
Eu611 O626 2.473 . S
Eu611 O627 2.480 . S
Eu611 O628 2.430 . S
Eu611 O629 2.670 . S
Eu611 O630 2.403 . S
C612 C610 1.500 . S
C612 C613 1.377 . S
C612 C617 1.377 . S
C613 C612 1.377 . S
C613 C614 1.395 . S
C613 H636 0.931 . S
C614 C613 1.395 . S
C614 C615 1.383 . S
C614 H637 0.931 . S
C615 C614 1.383 . S
C615 C616 1.394 . S
C616 C615 1.394 . S
C616 C617 1.378 . S
C616 H638 0.931 . S
C617 C612 1.377 . S
C617 C616 1.378 . S
C617 H639 0.925 1_554 S
C618 O628 1.259 . S
C618 O629 1.270 . S
C619 O630 1.238 1_556 S
C619 O631 1.251 . S
O620 C600 1.257 . S
O620 Eu601 2.473 . S
O621 C600 1.260 . S
O621 Eu601 2.480 . S
O622 Eu601 2.430 . S
O622 C608 1.259 . S
O623 Eu601 2.670 . S
O623 C608 1.270 . S
O623 Eu611 2.355 1_556 S
O624 Eu601 2.387 1_554 S
O624 C609 1.261 . S
O625 C609 1.251 . S
O625 Eu611 2.374 . S
O626 C610 1.257 . S
O626 Eu611 2.473 . S
O627 C610 1.260 . S
O627 Eu611 2.480 . S
O628 Eu611 2.430 . S
O628 C618 1.259 . S
O629 Eu601 2.355 1_554 S
O629 Eu611 2.670 . S
O629 C618 1.270 . S
O630 Eu611 2.403 . S
O630 C619 1.238 1_554 S
O631 Eu601 2.374 . S
O631 C619 1.251 . S
H632 C603 0.931 . S
H633 C604 0.931 . S
H634 C606 0.931 . S
H635 C607 0.900 1_554 S
H636 C613 0.931 . S
H637 C614 0.931 . S
H638 C616 0.931 . S
H639 C617 0.925 1_556 S
H640 C648 0.929 . S
H641 C650 0.930 . S
H642 C652 0.930 . S
H643 C655 0.929 . S
H644 C658 0.930 . S
H645 C660 0.960 . S
H646 C660 0.960 . S
H647 C660 0.960 . S
C648 H640 0.929 . S
C648 C649 1.377 . S
C648 C650 1.384 . S
C649 C648 1.377 . S
C649 C655 1.390 1_655 S
C650 H641 0.930 . S
C650 C648 1.384 . S
C650 C651 1.372 . S
C651 C650 1.372 . S
C651 C652 1.400 1_655 S
C651 C656 1.490 . S
C652 H642 0.930 . S
C652 C651 1.400 1_455 S
C652 C655 1.386 . S
H653 C669 0.930 . S
H654 C670 0.931 . S
C655 H643 0.929 . S
C655 C649 1.390 1_455 S
C655 C652 1.386 . S
C656 C651 1.490 . S
C656 C658 1.395 . S
C656 C659 1.403 1_655 S
H657 C663 0.930 . S
C658 H644 0.930 . S
C658 C656 1.395 . S
C658 C661 1.403 . S
C659 C656 1.403 1_455 S
C659 C660 1.524 . S
C659 C663 1.400 . S
C660 H645 0.960 . S
C660 H646 0.960 . S
C660 H647 0.960 . S
C660 C659 1.524 . S
C661 C658 1.403 . S
C661 C662 1.392 . S
C661 C665 1.495 . S
C662 C661 1.392 . S
C662 C663 1.385 1_655 S
C662 C664 1.475 . S
C663 H657 0.930 . S
C663 C659 1.400 . S
C663 C662 1.385 1_455 S
C664 C662 1.475 . S
C664 C666 1.380 . S
C664 C670 1.387 1_655 S
C665 C661 1.495 . S
C665 H671 0.959 . S
C665 H672 0.961 . S
C665 H673 0.960 . S
C666 C664 1.380 . S
C666 C667 1.394 . S
C666 H674 0.930 . S
C667 C666 1.394 . S
C667 C668 1.383 1_655 S
C667 H675 0.929 . S
C668 C667 1.383 1_455 S
C668 C669 1.377 . S
C669 H653 0.930 . S
C669 C668 1.377 . S
C669 C670 1.379 . S
C670 H654 0.931 . S
C670 C664 1.387 1_455 S
C670 C669 1.379 . S
H671 C665 0.959 . S
H672 C665 0.961 . S
H673 C665 0.960 . S
H674 C666 0.930 . S
H675 C667 0.929 . S
H676 C684 0.929 . S
H677 C686 0.930 . S
H678 C688 0.930 . S
H679 C691 0.929 . S
H680 C694 0.930 . S
H681 C696 0.960 . S
H682 C696 0.960 . S
H683 C696 0.960 . S
C684 H676 0.929 . S
C684 C685 1.377 . S
C684 C686 1.384 . S
C685 C684 1.377 . S
C685 C691 1.390 . S
C686 H677 0.930 . S
C686 C684 1.384 . S
C686 C687 1.372 . S
C687 C686 1.372 . S
C687 C688 1.400 . S
C687 C692 1.490 . S
C688 H678 0.930 . S
C688 C687 1.400 . S
C688 C691 1.386 . S
H689 C705 0.930 . S
H690 C706 0.931 . S
C691 H679 0.929 . S
C691 C685 1.390 . S
C691 C688 1.386 . S
C692 C687 1.490 . S
C692 C694 1.395 . S
C692 C695 1.403 . S
H693 C699 0.930 . S
C694 H680 0.930 . S
C694 C692 1.395 . S
C694 C697 1.403 . S
C695 C692 1.403 . S
C695 C696 1.524 . S
C695 C699 1.400 . S
C696 H681 0.960 . S
C696 H682 0.960 . S
C696 H683 0.960 . S
C696 C695 1.524 . S
C697 C694 1.403 . S
C697 C698 1.392 . S
C697 C701 1.495 . S
C698 C697 1.392 . S
C698 C699 1.385 . S
C698 C700 1.478 . S
C699 H693 0.930 . S
C699 C695 1.400 . S
C699 C698 1.385 . S
C700 C698 1.478 . S
C700 C702 1.381 . S
C700 C706 1.383 . S
C701 C697 1.495 . S
C701 H707 0.959 . S
C701 H708 0.961 . S
C701 H709 0.960 . S
C702 C700 1.381 . S
C702 C703 1.394 . S
C702 H710 0.930 . S
C703 C702 1.394 . S
C703 C704 1.383 . S
C703 H711 0.929 . S
C704 C703 1.383 . S
C704 C705 1.377 . S
C705 H689 0.930 . S
C705 C704 1.377 . S
C705 C706 1.379 . S
C706 H690 0.931 . S
C706 C700 1.383 . S
C706 C705 1.379 . S
H707 C701 0.959 . S
H708 C701 0.961 . S
H709 C701 0.960 . S
H710 C702 0.930 . S
H711 C703 0.929 . S
H712 C720 0.929 . S
H713 C722 0.930 . S
H714 C724 0.930 . S
H715 C727 0.929 . S
H716 C730 0.930 . S
H717 C732 0.960 . S
H718 C732 0.960 . S
H719 C732 0.960 . S
C720 H712 0.929 . S
C720 C721 1.377 . S
C720 C722 1.384 . S
C721 C720 1.377 . S
C721 C727 1.390 . S
C722 H713 0.930 . S
C722 C720 1.384 . S
C722 C723 1.372 . S
C723 C722 1.372 . S
C723 C724 1.400 . S
C723 C728 1.490 . S
C724 H714 0.930 . S
C724 C723 1.400 . S
C724 C727 1.386 . S
H725 C741 0.930 . S
H726 C742 0.931 . S
C727 H715 0.929 . S
C727 C721 1.390 . S
C727 C724 1.386 . S
C728 C723 1.490 . S
C728 C730 1.395 . S
C728 C731 1.403 . S
H729 C735 0.930 . S
C730 H716 0.930 . S
C730 C728 1.395 . S
C730 C733 1.403 . S
C731 C728 1.403 . S
C731 C732 1.524 . S
C731 C735 1.400 . S
C732 H717 0.960 . S
C732 H718 0.960 . S
C732 H719 0.960 . S
C732 C731 1.524 . S
C733 C730 1.403 . S
C733 C734 1.392 . S
C733 C737 1.495 . S
C734 C733 1.392 . S
C734 C735 1.385 . S
C734 C736 1.478 . S
C735 H729 0.930 . S
C735 C731 1.400 . S
C735 C734 1.385 . S
C736 C734 1.478 . S
C736 C738 1.381 . S
C736 C742 1.383 . S
C737 C733 1.495 . S
C737 H743 0.959 . S
C737 H744 0.961 . S
C737 H745 0.960 . S
C738 C736 1.381 . S
C738 C739 1.394 . S
C738 H746 0.930 . S
C739 C738 1.394 . S
C739 C740 1.383 . S
C739 H747 0.929 . S
C740 C739 1.383 . S
C740 C741 1.377 . S
C741 H725 0.930 . S
C741 C740 1.377 . S
C741 C742 1.379 . S
C742 H726 0.931 . S
C742 C736 1.383 . S
C742 C741 1.379 . S
H743 C737 0.959 . S
H744 C737 0.961 . S
H745 C737 0.960 . S
H746 C738 0.930 . S
H747 C739 0.929 . S
H748 C756 0.929 1_565 S
H749 C758 0.876 1_565 S
H750 C760 0.930 . S
H751 C763 0.929 . S
H752 C766 0.930 . S
H753 C768 0.950 1_565 S
H754 C768 0.948 1_565 S
H755 C768 0.987 . S
C756 H748 0.929 1_545 S
C756 C757 1.377 . S
C756 C758 1.418 . S
C757 C756 1.377 . S
C757 C763 1.390 . S
C758 H749 0.876 1_545 S
C758 C756 1.418 . S
C758 C759 1.393 . S
C759 C758 1.393 . S
C759 C760 1.400 . S
C759 C764 1.490 . S
C760 H750 0.930 . S
C760 C759 1.400 . S
C760 C763 1.386 . S
H761 C777 0.946 . S
H762 C778 0.931 . S
C763 H751 0.929 . S
C763 C757 1.390 . S
C763 C760 1.386 . S
C764 C759 1.490 . S
C764 C766 1.395 . S
C764 C767 1.403 . S
H765 C771 0.930 . S
C766 H752 0.930 . S
C766 C764 1.395 . S
C766 C769 1.403 . S
C767 C764 1.403 . S
C767 C768 1.520 . S
C767 C771 1.400 1_545 S
C768 H753 0.950 1_545 S
C768 H754 0.948 1_545 S
C768 H755 0.987 . S
C768 C767 1.520 . S
C769 C766 1.403 . S
C769 C770 1.392 1_545 S
C769 C773 1.495 . S
C770 C769 1.392 1_565 S
C770 C771 1.385 . S
C770 C772 1.478 . S
C771 H765 0.930 . S
C771 C767 1.400 1_565 S
C771 C770 1.385 . S
C772 C770 1.478 . S
C772 C774 1.381 . S
C772 C778 1.383 1_565 S
C773 C769 1.495 . S
C773 H779 0.959 . S
C773 H780 0.961 . S
C773 H781 0.960 1_545 S
C774 C772 1.381 . S
C774 C775 1.394 . S
C774 H782 0.930 . S
C775 C774 1.394 . S
C775 C776 1.383 . S
C775 H783 0.929 . S
C776 C775 1.383 . S
C776 C777 1.342 1_565 S
C777 H761 0.946 . S
C777 C776 1.342 1_545 S
C777 C778 1.400 . S
C778 H762 0.931 . S
C778 C772 1.383 1_545 S
C778 C777 1.400 . S
H779 C773 0.959 . S
H780 C773 0.961 . S
H781 C773 0.960 1_565 S
H782 C774 0.930 . S
H783 C775 0.929 . S
H784 C792 0.929 1_545 S
H785 C794 0.937 . S
H786 C796 0.930 . S
H787 C799 0.929 . S
H788 C802 0.930 . S
H789 C804 0.960 . S
H790 C804 0.960 . S
H791 C804 0.960 . S
C792 H784 0.929 1_565 S
C792 C793 1.377 . S
C792 C794 1.380 1_565 S
C793 C792 1.377 . S
C793 C799 1.390 . S
C794 H785 0.937 . S
C794 C792 1.380 1_545 S
C794 C795 1.369 1_545 S
C795 C794 1.369 1_565 S
C795 C796 1.400 . S
C795 C800 1.490 . S
C796 H786 0.930 . S
C796 C795 1.400 . S
C796 C799 1.386 . S
H797 C813 0.930 1_565 S
H798 C814 0.877 1_565 S
C799 H787 0.929 . S
C799 C793 1.390 . S
C799 C796 1.386 . S
C800 C795 1.490 . S
C800 C802 1.395 1_565 S
C800 C803 1.403 . S
H801 C807 0.930 . S
C802 H788 0.930 . S
C802 C800 1.395 1_545 S
C802 C805 1.403 . S
C803 C800 1.403 . S
C803 C804 1.524 . S
C803 C807 1.400 . S
C804 H789 0.960 . S
C804 H790 0.960 . S
C804 H791 0.960 . S
C804 C803 1.524 . S
C805 C802 1.403 . S
C805 C806 1.392 . S
C805 C809 1.495 . S
C806 C805 1.392 . S
C806 C807 1.385 1_545 S
C806 C808 1.478 . S
C807 H801 0.930 . S
C807 C803 1.400 . S
C807 C806 1.385 1_565 S
C808 C806 1.478 . S
C808 C810 1.381 . S
C808 C814 1.406 . S
C809 C805 1.495 . S
C809 H815 0.959 . S
C809 H816 0.961 . S
C809 H817 0.960 . S
C810 C808 1.381 . S
C810 C811 1.394 . S
C810 H818 0.930 . S
C811 C810 1.394 . S
C811 C812 1.383 . S
C811 H819 0.929 . S
C812 C811 1.383 . S
C812 C813 1.377 . S
C813 H797 0.930 1_545 S
C813 C812 1.377 . S
C813 C814 1.412 . S
C814 H798 0.877 1_545 S
C814 C808 1.406 . S
C814 C813 1.412 . S
H815 C809 0.959 . S
H816 C809 0.961 . S
H817 C809 0.960 . S
H818 C810 0.930 . S
H819 C811 0.929 . S
H820 C828 0.929 . S
H821 C830 0.930 . S
H822 C832 0.930 . S
H823 C835 0.929 . S
H824 C838 0.930 . S
H825 C840 0.960 . S
H826 C840 0.960 1_455 S
H827 C840 0.960 . S
C828 H820 0.929 . S
C828 C829 1.377 . S
C828 C830 1.384 . S
C829 C828 1.377 . S
C829 C835 1.390 1_455 S
C830 H821 0.930 . S
C830 C828 1.384 . S
C830 C831 1.372 . S
C831 C830 1.372 . S
C831 C832 1.400 1_455 S
C831 C836 1.490 . S
C832 H822 0.930 . S
C832 C831 1.400 1_655 S
C832 C835 1.386 . S
H833 C849 0.930 . S
H834 C850 0.931 . S
C835 H823 0.929 . S
C835 C829 1.390 1_655 S
C835 C832 1.386 . S
C836 C831 1.490 . S
C836 C838 1.395 . S
C836 C839 1.421 . S
H837 C843 0.930 . S
C838 H824 0.930 . S
C838 C836 1.395 . S
C838 C841 1.403 . S
C839 C836 1.421 . S
C839 C840 1.524 1_455 S
C839 C843 1.383 1_455 S
C840 H825 0.960 . S
C840 H826 0.960 1_655 S
C840 H827 0.960 . S
C840 C839 1.524 1_655 S
C841 C838 1.403 . S
C841 C842 1.392 . S
C841 C845 1.495 . S
C842 C841 1.392 . S
C842 C843 1.385 1_455 S
C842 C844 1.478 1_455 S
C843 H837 0.930 . S
C843 C839 1.383 1_655 S
C843 C842 1.385 1_655 S
C844 C842 1.478 1_655 S
C844 C846 1.381 1_655 S
C844 C850 1.383 . S
C845 C841 1.495 . S
C845 H851 0.959 . S
C845 H852 0.976 . S
C845 H853 0.960 . S
C846 C844 1.381 1_455 S
C846 C847 1.394 . S
C846 H854 0.930 . S
C847 C846 1.394 . S
C847 C848 1.383 1_455 S
C847 H855 0.929 . S
C848 C847 1.383 1_655 S
C848 C849 1.377 . S
C849 H833 0.930 . S
C849 C848 1.377 . S
C849 C850 1.379 . S
C850 H834 0.931 . S
C850 C844 1.383 . S
C850 C849 1.379 . S
H851 C845 0.959 . S
H852 C845 0.976 . S
H853 C845 0.960 . S
H854 C846 0.930 . S
H855 C847 0.929 . S
H856 C864 0.929 . S
H857 C866 0.930 . S
H858 C868 0.930 . S
H859 C871 0.929 . S
H860 C874 0.930 . S
H861 C876 0.960 . S
H862 C876 0.960 . S
H863 C876 0.960 . S
C864 H856 0.929 . S
C864 C865 1.377 . S
C864 C866 1.384 . S
C865 C864 1.377 . S
C865 C871 1.390 . S
C866 H857 0.930 . S
C866 C864 1.384 . S
C866 C867 1.372 . S
C867 C866 1.372 . S
C867 C868 1.400 . S
C867 C872 1.490 . S
C868 H858 0.930 . S
C868 C867 1.400 . S
C868 C871 1.386 . S
H869 C885 0.930 . S
H870 C886 0.931 . S
C871 H859 0.929 . S
C871 C865 1.390 . S
C871 C868 1.386 . S
C872 C867 1.490 . S
C872 C874 1.395 . S
C872 C875 1.403 . S
H873 C879 0.930 . S
C874 H860 0.930 . S
C874 C872 1.395 . S
C874 C877 1.403 . S
C875 C872 1.403 . S
C875 C876 1.524 . S
C875 C879 1.400 . S
C876 H861 0.960 . S
C876 H862 0.960 . S
C876 H863 0.960 . S
C876 C875 1.524 . S
C877 C874 1.403 . S
C877 C878 1.392 . S
C877 C881 1.495 . S
C878 C877 1.392 . S
C878 C879 1.385 . S
C878 C880 1.478 . S
C879 H873 0.930 . S
C879 C875 1.400 . S
C879 C878 1.385 . S
C880 C878 1.478 . S
C880 C882 1.381 . S
C880 C886 1.383 . S
C881 C877 1.495 . S
C881 H887 0.959 . S
C881 H888 0.961 . S
C881 H889 0.960 . S
C882 C880 1.381 . S
C882 C883 1.394 . S
C882 H890 0.930 . S
C883 C882 1.394 . S
C883 C884 1.383 . S
C883 H891 0.929 . S
C884 C883 1.383 . S
C884 C885 1.377 . S
C885 H869 0.930 . S
C885 C884 1.377 . S
C885 C886 1.379 . S
C886 H870 0.931 . S
C886 C880 1.383 . S
C886 C885 1.379 . S
H887 C881 0.959 . S
H888 C881 0.961 . S
H889 C881 0.960 . S
H890 C882 0.930 . S
H891 C883 0.929 . S
H892 C900 0.929 . S
H893 C902 0.930 . S
H894 C904 0.930 . S
H895 C907 0.929 . S
H896 C910 0.930 . S
H897 C912 0.960 . S
H898 C912 0.960 . S
H899 C912 0.960 . S
C900 H892 0.929 . S
C900 C901 1.377 . S
C900 C902 1.384 . S
C901 C900 1.377 . S
C901 C907 1.390 . S
C902 H893 0.930 . S
C902 C900 1.384 . S
C902 C903 1.372 . S
C903 C902 1.372 . S
C903 C904 1.400 . S
C903 C908 1.490 . S
C904 H894 0.930 . S
C904 C903 1.400 . S
C904 C907 1.386 . S
H905 C921 0.930 . S
H906 C922 0.931 . S
C907 H895 0.929 . S
C907 C901 1.390 . S
C907 C904 1.386 . S
C908 C903 1.490 . S
C908 C910 1.395 . S
C908 C911 1.403 . S
H909 C915 0.930 . S
C910 H896 0.930 . S
C910 C908 1.395 . S
C910 C913 1.403 . S
C911 C908 1.403 . S
C911 C912 1.524 . S
C911 C915 1.400 . S
C912 H897 0.960 . S
C912 H898 0.960 . S
C912 H899 0.960 . S
C912 C911 1.524 . S
C913 C910 1.403 . S
C913 C914 1.392 . S
C913 C917 1.495 . S
C914 C913 1.392 . S
C914 C915 1.385 . S
C914 C916 1.478 . S
C915 H909 0.930 . S
C915 C911 1.400 . S
C915 C914 1.385 . S
C916 C914 1.478 . S
C916 C918 1.381 . S
C916 C922 1.383 . S
C917 C913 1.495 . S
C917 H923 0.959 . S
C917 H924 0.961 . S
C917 H925 0.960 . S
C918 C916 1.381 . S
C918 C919 1.394 . S
C918 H926 0.930 . S
C919 C918 1.394 . S
C919 C920 1.383 . S
C919 H927 0.929 . S
C920 C919 1.383 . S
C920 C921 1.377 . S
C921 H905 0.930 . S
C921 C920 1.377 . S
C921 C922 1.379 . S
C922 H906 0.931 . S
C922 C916 1.383 . S
C922 C921 1.379 . S
H923 C917 0.959 . S
H924 C917 0.961 . S
H925 C917 0.960 . S
H926 C918 0.930 . S
H927 C919 0.929 . S
H928 C936 0.929 . S
H929 C938 0.930 . S
H930 C940 0.930 . S
H931 C943 0.929 . S
H932 C946 0.930 . S
H933 C948 0.960 . S
H934 C948 0.960 . S
H935 C948 0.960 . S
C936 H928 0.929 . S
C936 C937 1.377 . S
C936 C938 1.384 . S
C937 C936 1.377 . S
C937 C943 1.390 . S
C938 H929 0.930 . S
C938 C936 1.384 . S
C938 C939 1.372 . S
C939 C938 1.372 . S
C939 C940 1.400 . S
C939 C944 1.490 . S
C940 H930 0.930 . S
C940 C939 1.400 . S
C940 C943 1.386 . S
H941 C957 0.930 . S
H942 C958 0.931 . S
C943 H931 0.929 . S
C943 C937 1.390 . S
C943 C940 1.386 . S
C944 C939 1.490 . S
C944 C946 1.395 . S
C944 C947 1.403 . S
H945 C951 0.930 . S
C946 H932 0.930 . S
C946 C944 1.395 . S
C946 C949 1.403 . S
C947 C944 1.403 . S
C947 C948 1.524 . S
C947 C951 1.400 . S
C948 H933 0.960 . S
C948 H934 0.960 . S
C948 H935 0.960 . S
C948 C947 1.524 . S
C949 C946 1.403 . S
C949 C950 1.392 . S
C949 C953 1.495 . S
C950 C949 1.392 . S
C950 C951 1.385 . S
C950 C952 1.478 . S
C951 H945 0.930 . S
C951 C947 1.400 . S
C951 C950 1.385 . S
C952 C950 1.478 . S
C952 C954 1.381 . S
C952 C958 1.383 . S
C953 C949 1.495 . S
C953 H959 0.959 . S
C953 H960 0.961 . S
C953 H961 0.960 . S
C954 C952 1.381 . S
C954 C955 1.394 . S
C954 H962 0.930 . S
C955 C954 1.394 . S
C955 C956 1.383 . S
C955 H963 0.929 . S
C956 C955 1.383 . S
C956 C957 1.377 . S
C957 H941 0.930 . S
C957 C956 1.377 . S
C957 C958 1.379 . S
C958 H942 0.931 . S
C958 C952 1.383 . S
C958 C957 1.379 . S
H959 C953 0.959 . S
H960 C953 0.961 . S
H961 C953 0.960 . S
H962 C954 0.930 . S
H963 C955 0.929 . S
H964 C972 0.929 . S
H965 C974 0.930 . S
H966 C976 0.930 . S
H967 C979 0.929 . S
H968 C982 0.930 . S
H969 C984 0.960 . S
H970 C984 0.960 . S
H971 C984 0.960 . S
C972 H964 0.929 . S
C972 C973 1.377 . S
C972 C974 1.384 . S
C973 C972 1.377 . S
C973 C979 1.390 . S
C974 H965 0.930 . S
C974 C972 1.384 . S
C974 C975 1.372 . S
C975 C974 1.372 . S
C975 C976 1.400 . S
C975 C980 1.490 . S
C976 H966 0.930 . S
C976 C975 1.400 . S
C976 C979 1.386 . S
H977 C993 0.930 . S
H978 C994 0.931 . S
C979 H967 0.929 . S
C979 C973 1.390 . S
C979 C976 1.386 . S
C980 C975 1.490 . S
C980 C982 1.395 . S
C980 C983 1.403 . S
H981 C987 0.930 . S
C982 H968 0.930 . S
C982 C980 1.395 . S
C982 C985 1.403 . S
C983 C980 1.403 . S
C983 C984 1.524 . S
C983 C987 1.400 . S
C984 H969 0.960 . S
C984 H970 0.960 . S
C984 H971 0.960 . S
C984 C983 1.524 . S
C985 C982 1.403 . S
C985 C986 1.392 . S
C985 C989 1.495 . S
C986 C985 1.392 . S
C986 C987 1.385 . S
C986 C988 1.478 . S
C987 H981 0.930 . S
C987 C983 1.400 . S
C987 C986 1.385 . S
C988 C986 1.478 . S
C988 C990 1.381 . S
C988 C994 1.383 . S
C989 C985 1.495 . S
C989 H995 0.959 . S
C989 H996 0.961 . S
C989 H997 0.960 . S
C990 C988 1.381 . S
C990 C991 1.394 . S
C990 H998 0.930 . S
C991 C990 1.394 . S
C991 C992 1.383 . S
C991 H999 0.929 . S
C992 C991 1.383 . S
C992 C993 1.377 . S
C993 H977 0.930 . S
C993 C992 1.377 . S
C993 C994 1.379 . S
C994 H978 0.931 . S
C994 C988 1.383 . S
C994 C993 1.379 . S
H995 C989 0.959 . S
H996 C989 0.961 . S
H997 C989 0.960 . S
H998 C990 0.930 . S
H999 C991 0.929 . S
H1000 C1008 0.929 . S
H1001 C1010 0.930 . S
H1002 C1012 0.930 . S
H1003 C1015 0.929 . S
H1004 C1018 0.930 . S
H1005 C1020 0.960 . S
H1006 C1020 0.960 . S
H1007 C1020 0.960 . S
C1008 H1000 0.929 . S
C1008 C1009 1.377 . S
C1008 C1010 1.384 . S
C1009 C1008 1.377 . S
C1009 C1015 1.390 . S
C1010 H1001 0.930 . S
C1010 C1008 1.384 . S
C1010 C1011 1.372 . S
C1011 C1010 1.372 . S
C1011 C1012 1.400 . S
C1011 C1016 1.490 . S
C1012 H1002 0.930 . S
C1012 C1011 1.400 . S
C1012 C1015 1.386 . S
H1013 C1029 0.930 . S
H1014 C1030 0.931 . S
C1015 H1003 0.929 . S
C1015 C1009 1.390 . S
C1015 C1012 1.386 . S
C1016 C1011 1.490 . S
C1016 C1018 1.395 1_565 S
C1016 C1019 1.403 . S
H1017 C1023 0.930 . S
C1018 H1004 0.930 . S
C1018 C1016 1.395 1_545 S
C1018 C1021 1.403 . S
C1019 C1016 1.403 . S
C1019 C1020 1.524 . S
C1019 C1023 1.400 . S
C1020 H1005 0.960 . S
C1020 H1006 0.960 . S
C1020 H1007 0.960 . S
C1020 C1019 1.524 . S
C1021 C1018 1.403 . S
C1021 C1022 1.392 . S
C1021 C1025 1.495 . S
C1022 C1021 1.392 . S
C1022 C1023 1.385 1_545 S
C1022 C1024 1.478 . S
C1023 H1017 0.930 . S
C1023 C1019 1.400 . S
C1023 C1022 1.385 1_565 S
C1024 C1022 1.478 . S
C1024 C1026 1.381 . S
C1024 C1030 1.383 . S
C1025 C1021 1.495 . S
C1025 H1031 0.959 . S
C1025 H1032 0.961 . S
C1025 H1033 0.960 . S
C1026 C1024 1.381 . S
C1026 C1027 1.394 . S
C1026 H1034 0.930 . S
C1027 C1026 1.394 . S
C1027 C1028 1.383 . S
C1027 H1035 0.929 . S
C1028 C1027 1.383 . S
C1028 C1029 1.377 . S
C1029 H1013 0.930 . S
C1029 C1028 1.377 . S
C1029 C1030 1.379 . S
C1030 H1014 0.931 . S
C1030 C1024 1.383 . S
C1030 C1029 1.379 . S
H1031 C1025 0.959 . S
H1032 C1025 0.961 . S
H1033 C1025 0.960 . S
H1034 C1026 0.930 . S
H1035 C1027 0.929 . S
H1036 C1044 0.926 1_655 S
H1037 C1046 0.930 . S
H1038 C1048 0.930 . S
H1039 C1051 0.929 . S
H1040 C1054 0.930 . S
H1041 C1056 0.960 . S
H1042 C1056 0.960 . S
H1043 C1056 0.960 1_455 S
C1044 H1036 0.926 1_455 S
C1044 C1045 1.387 . S
C1044 C1046 1.378 1_455 S
C1045 C1044 1.387 . S
C1045 C1051 1.390 . S
C1046 H1037 0.930 . S
C1046 C1044 1.378 1_655 S
C1046 C1047 1.372 1_655 S
C1047 C1046 1.372 1_455 S
C1047 C1048 1.400 . S
C1047 C1052 1.490 . S
C1048 H1038 0.930 . S
C1048 C1047 1.400 . S
C1048 C1051 1.386 . S
H1049 C1065 0.930 . S
H1050 C1066 0.931 . S
C1051 H1039 0.929 . S
C1051 C1045 1.390 . S
C1051 C1048 1.386 . S
C1052 C1047 1.490 . S
C1052 C1054 1.395 . S
C1052 C1055 1.403 1_455 S
H1053 C1059 0.930 . S
C1054 H1040 0.930 . S
C1054 C1052 1.395 . S
C1054 C1057 1.403 . S
C1055 C1052 1.403 1_655 S
C1055 C1056 1.524 . S
C1055 C1059 1.400 . S
C1056 H1041 0.960 . S
C1056 H1042 0.960 . S
C1056 H1043 0.960 1_655 S
C1056 C1055 1.524 . S
C1057 C1054 1.403 . S
C1057 C1058 1.410 . S
C1057 C1061 1.495 . S
C1058 C1057 1.410 . S
C1058 C1059 1.385 1_455 S
C1058 C1060 1.461 1_455 S
C1059 H1053 0.930 . S
C1059 C1055 1.400 . S
C1059 C1058 1.385 1_655 S
C1060 C1058 1.461 1_655 S
C1060 C1062 1.381 . S
C1060 C1066 1.383 1_655 S
C1061 C1057 1.495 . S
C1061 H1067 0.959 . S
C1061 H1068 0.961 . S
C1061 H1069 0.980 . S
C1062 C1060 1.381 . S
C1062 C1063 1.394 . S
C1062 H1070 0.930 . S
C1063 C1062 1.394 . S
C1063 C1064 1.383 . S
C1063 H1071 0.929 . S
C1064 C1063 1.383 . S
C1064 C1065 1.377 1_655 S
C1065 H1049 0.930 . S
C1065 C1064 1.377 1_455 S
C1065 C1066 1.379 . S
C1066 H1050 0.931 . S
C1066 C1060 1.383 1_455 S
C1066 C1065 1.379 . S
H1067 C1061 0.959 . S
H1068 C1061 0.961 . S
H1069 C1061 0.980 . S
H1070 C1062 0.930 . S
H1071 C1063 0.929 . S
H1072 C1080 0.929 . S
H1073 C1082 0.930 . S
H1074 C1084 0.930 . S
H1075 C1087 0.929 . S
H1076 C1090 0.930 1_554 S
H1077 C1092 0.960 . S
H1078 C1092 0.960 . S
H1079 C1092 0.960 . S
C1080 H1072 0.929 . S
C1080 C1081 1.377 . S
C1080 C1082 1.384 . S
C1081 C1080 1.377 . S
C1081 C1087 1.390 . S
C1082 H1073 0.930 . S
C1082 C1080 1.384 . S
C1082 C1083 1.372 . S
C1083 C1082 1.372 . S
C1083 C1084 1.400 . S
C1083 C1088 1.490 . S
C1084 H1074 0.930 . S
C1084 C1083 1.400 . S
C1084 C1087 1.386 . S
H1085 C1101 0.930 . S
H1086 C1102 0.931 . S
C1087 H1075 0.929 . S
C1087 C1081 1.390 . S
C1087 C1084 1.386 . S
C1088 C1083 1.490 . S
C1088 C1090 1.395 . S
C1088 C1091 1.403 . S
H1089 C1095 0.930 . S
C1090 H1076 0.930 1_556 S
C1090 C1088 1.395 . S
C1090 C1093 1.403 . S
C1091 C1088 1.403 . S
C1091 C1092 1.524 . S
C1091 C1095 1.400 . S
C1092 H1077 0.960 . S
C1092 H1078 0.960 . S
C1092 H1079 0.960 . S
C1092 C1091 1.524 . S
C1093 C1090 1.403 . S
C1093 C1094 1.392 . S
C1093 C1097 1.495 1_556 S
C1094 C1093 1.392 . S
C1094 C1095 1.385 . S
C1094 C1096 1.478 . S
C1095 H1089 0.930 . S
C1095 C1091 1.400 . S
C1095 C1094 1.385 . S
C1096 C1094 1.478 . S
C1096 C1098 1.381 . S
C1096 C1102 1.383 . S
C1097 C1093 1.495 1_554 S
C1097 H1103 0.959 . S
C1097 H1104 0.961 . S
C1097 H1105 0.960 . S
C1098 C1096 1.381 . S
C1098 C1099 1.394 . S
C1098 H1106 0.930 . S
C1099 C1098 1.394 . S
C1099 C1100 1.383 . S
C1099 H1107 0.929 . S
C1100 C1099 1.383 . S
C1100 C1101 1.377 . S
C1101 H1085 0.930 . S
C1101 C1100 1.377 . S
C1101 C1102 1.379 . S
C1102 H1086 0.931 . S
C1102 C1096 1.383 . S
C1102 C1101 1.379 . S
H1103 C1097 0.959 . S
H1104 C1097 0.961 . S
H1105 C1097 0.960 . S
H1106 C1098 0.930 . S
H1107 C1099 0.929 . S
H1108 C1116 0.929 . S
H1109 C1118 0.930 . S
H1110 C1120 0.930 . S
H1111 C1123 0.929 . S
H1112 C1126 0.930 . S
H1113 C1128 0.960 . S
H1114 C1128 0.960 . S
H1115 C1128 0.960 . S
C1116 H1108 0.929 . S
C1116 C1117 1.377 . S
C1116 C1118 1.384 . S
C1117 C1116 1.377 . S
C1117 C1123 1.390 . S
C1118 H1109 0.930 . S
C1118 C1116 1.384 . S
C1118 C1119 1.372 . S
C1119 C1118 1.372 . S
C1119 C1120 1.400 . S
C1119 C1124 1.490 . S
C1120 H1110 0.930 . S
C1120 C1119 1.400 . S
C1120 C1123 1.386 . S
H1121 C1137 0.930 . S
H1122 C1138 0.931 . S
C1123 H1111 0.929 . S
C1123 C1117 1.390 . S
C1123 C1120 1.386 . S
C1124 C1119 1.490 . S
C1124 C1126 1.395 . S
C1124 C1127 1.403 . S
H1125 C1131 0.930 . S
C1126 H1112 0.930 . S
C1126 C1124 1.395 . S
C1126 C1129 1.403 . S
C1127 C1124 1.403 . S
C1127 C1128 1.524 . S
C1127 C1131 1.400 . S
C1128 H1113 0.960 . S
C1128 H1114 0.960 . S
C1128 H1115 0.960 . S
C1128 C1127 1.524 . S
C1129 C1126 1.403 . S
C1129 C1130 1.392 . S
C1129 C1133 1.495 . S
C1130 C1129 1.392 . S
C1130 C1131 1.385 . S
C1130 C1132 1.478 . S
C1131 H1125 0.930 . S
C1131 C1127 1.400 . S
C1131 C1130 1.385 . S
C1132 C1130 1.478 . S
C1132 C1134 1.381 . S
C1132 C1138 1.383 . S
C1133 C1129 1.495 . S
C1133 H1139 0.959 . S
C1133 H1140 0.961 . S
C1133 H1141 0.960 . S
C1134 C1132 1.381 . S
C1134 C1135 1.394 . S
C1134 H1142 0.930 . S
C1135 C1134 1.394 . S
C1135 C1136 1.383 . S
C1135 H1143 0.929 . S
C1136 C1135 1.383 . S
C1136 C1137 1.377 . S
C1137 H1121 0.930 . S
C1137 C1136 1.377 . S
C1137 C1138 1.379 . S
C1138 H1122 0.931 . S
C1138 C1132 1.383 . S
C1138 C1137 1.379 . S
H1139 C1133 0.959 . S
H1140 C1133 0.961 . S
H1141 C1133 0.960 . S
H1142 C1134 0.930 . S
H1143 C1135 0.929 . S
H1144 C1152 0.929 . S
H1145 C1154 0.930 . S
H1146 C1156 0.930 . S
H1147 C1159 0.929 . S
H1148 C1162 0.930 . S
H1149 C1164 0.960 . S
H1150 C1164 0.960 . S
H1151 C1164 0.960 . S
C1152 H1144 0.929 . S
C1152 C1153 1.377 . S
C1152 C1154 1.384 . S
C1153 C1152 1.377 . S
C1153 C1159 1.390 . S
C1154 H1145 0.930 . S
C1154 C1152 1.384 . S
C1154 C1155 1.372 . S
C1155 C1154 1.372 . S
C1155 C1156 1.400 . S
C1155 C1160 1.490 . S
C1156 H1146 0.930 . S
C1156 C1155 1.400 . S
C1156 C1159 1.386 . S
H1157 C1173 0.930 . S
H1158 C1174 0.931 . S
C1159 H1147 0.929 . S
C1159 C1153 1.390 . S
C1159 C1156 1.386 . S
C1160 C1155 1.490 . S
C1160 C1162 1.395 . S
C1160 C1163 1.403 . S
H1161 C1167 0.930 . S
C1162 H1148 0.930 . S
C1162 C1160 1.395 . S
C1162 C1165 1.403 . S
C1163 C1160 1.403 . S
C1163 C1164 1.524 . S
C1163 C1167 1.400 . S
C1164 H1149 0.960 . S
C1164 H1150 0.960 . S
C1164 H1151 0.960 . S
C1164 C1163 1.524 . S
C1165 C1162 1.403 . S
C1165 C1166 1.392 . S
C1165 C1169 1.495 . S
C1166 C1165 1.392 . S
C1166 C1167 1.385 . S
C1166 C1168 1.478 . S
C1167 H1161 0.930 . S
C1167 C1163 1.400 . S
C1167 C1166 1.385 . S
C1168 C1166 1.478 . S
C1168 C1170 1.381 . S
C1168 C1174 1.383 . S
C1169 C1165 1.495 . S
C1169 H1175 0.959 . S
C1169 H1176 0.961 . S
C1169 H1177 0.960 . S
C1170 C1168 1.381 . S
C1170 C1171 1.394 . S
C1170 H1178 0.930 . S
C1171 C1170 1.394 . S
C1171 C1172 1.383 . S
C1171 H1179 0.929 . S
C1172 C1171 1.383 . S
C1172 C1173 1.377 . S
C1173 H1157 0.930 . S
C1173 C1172 1.377 . S
C1173 C1174 1.379 . S
C1174 H1158 0.931 . S
C1174 C1168 1.383 . S
C1174 C1173 1.379 . S
H1175 C1169 0.959 . S
H1176 C1169 0.961 . S
H1177 C1169 0.960 . S
H1178 C1170 0.930 . S
H1179 C1171 0.929 . S
H1180 C1188 0.929 . S
H1181 C1190 0.930 . S
H1182 C1192 0.930 . S
H1183 C1195 0.929 . S
H1184 C1198 0.930 . S
H1185 C1200 0.960 . S
H1186 C1200 0.960 . S
H1187 C1200 0.960 . S
C1188 H1180 0.929 . S
C1188 C1189 1.377 . S
C1188 C1190 1.384 . S
C1189 C1188 1.377 . S
C1189 C1195 1.390 . S
C1190 H1181 0.930 . S
C1190 C1188 1.384 . S
C1190 C1191 1.372 . S
C1191 C1190 1.372 . S
C1191 C1192 1.400 . S
C1191 C1196 1.490 . S
C1192 H1182 0.930 . S
C1192 C1191 1.400 . S
C1192 C1195 1.386 . S
H1193 C1209 0.930 . S
H1194 C1210 0.931 . S
C1195 H1183 0.929 . S
C1195 C1189 1.390 . S
C1195 C1192 1.386 . S
C1196 C1191 1.490 . S
C1196 C1198 1.395 . S
C1196 C1199 1.403 . S
H1197 C1203 0.930 . S
C1198 H1184 0.930 . S
C1198 C1196 1.395 . S
C1198 C1201 1.403 . S
C1199 C1196 1.403 . S
C1199 C1200 1.524 . S
C1199 C1203 1.400 . S
C1200 H1185 0.960 . S
C1200 H1186 0.960 . S
C1200 H1187 0.960 . S
C1200 C1199 1.524 . S
C1201 C1198 1.403 . S
C1201 C1202 1.392 . S
C1201 C1205 1.495 . S
C1202 C1201 1.392 . S
C1202 C1203 1.385 . S
C1202 C1204 1.478 . S
C1203 H1197 0.930 . S
C1203 C1199 1.400 . S
C1203 C1202 1.385 . S
C1204 C1202 1.478 . S
C1204 C1206 1.381 . S
C1204 C1210 1.383 . S
C1205 C1201 1.495 . S
C1205 H1211 0.959 . S
C1205 H1212 0.961 . S
C1205 H1213 0.960 . S
C1206 C1204 1.381 . S
C1206 C1207 1.394 . S
C1206 H1214 0.930 . S
C1207 C1206 1.394 . S
C1207 C1208 1.383 . S
C1207 H1215 0.929 . S
C1208 C1207 1.383 . S
C1208 C1209 1.377 . S
C1209 H1193 0.930 . S
C1209 C1208 1.377 . S
C1209 C1210 1.379 . S
C1210 H1194 0.931 . S
C1210 C1204 1.383 . S
C1210 C1209 1.379 . S
H1211 C1205 0.959 . S
H1212 C1205 0.961 . S
H1213 C1205 0.960 . S
H1214 C1206 0.930 . S
H1215 C1207 0.929 . S
H1216 C1224 0.929 . S
H1217 C1226 0.930 . S
H1218 C1228 0.930 . S
H1219 C1231 0.929 . S
H1220 C1234 0.930 . S
H1221 C1236 0.960 . S
H1222 C1236 0.960 . S
H1223 C1236 0.960 . S
C1224 H1216 0.929 . S
C1224 C1225 1.377 . S
C1224 C1226 1.384 . S
C1225 C1224 1.377 . S
C1225 C1231 1.390 . S
C1226 H1217 0.930 . S
C1226 C1224 1.384 . S
C1226 C1227 1.372 . S
C1227 C1226 1.372 . S
C1227 C1228 1.400 . S
C1227 C1232 1.490 . S
C1228 H1218 0.930 . S
C1228 C1227 1.400 . S
C1228 C1231 1.386 . S
H1229 C1245 0.930 . S
H1230 C1246 0.931 . S
C1231 H1219 0.929 . S
C1231 C1225 1.390 . S
C1231 C1228 1.386 . S
C1232 C1227 1.490 . S
C1232 C1234 1.395 . S
C1232 C1235 1.403 . S
H1233 C1239 0.930 . S
C1234 H1220 0.930 . S
C1234 C1232 1.395 . S
C1234 C1237 1.403 . S
C1235 C1232 1.403 . S
C1235 C1236 1.524 . S
C1235 C1239 1.400 . S
C1236 H1221 0.960 . S
C1236 H1222 0.960 . S
C1236 H1223 0.960 . S
C1236 C1235 1.524 . S
C1237 C1234 1.403 . S
C1237 C1238 1.392 . S
C1237 C1241 1.495 . S
C1238 C1237 1.392 . S
C1238 C1239 1.385 . S
C1238 C1240 1.478 . S
C1239 H1233 0.930 . S
C1239 C1235 1.400 . S
C1239 C1238 1.385 . S
C1240 C1238 1.478 . S
C1240 C1242 1.381 . S
C1240 C1246 1.383 . S
C1241 C1237 1.495 . S
C1241 H1247 0.959 . S
C1241 H1248 0.961 . S
C1241 H1249 0.960 . S
C1242 C1240 1.381 . S
C1242 C1243 1.394 . S
C1242 H1250 0.930 . S
C1243 C1242 1.394 . S
C1243 C1244 1.383 . S
C1243 H1251 0.929 . S
C1244 C1243 1.383 . S
C1244 C1245 1.377 . S
C1245 H1229 0.930 . S
C1245 C1244 1.377 . S
C1245 C1246 1.379 . S
C1246 H1230 0.931 . S
C1246 C1240 1.383 . S
C1246 C1245 1.379 . S
H1247 C1241 0.959 . S
H1248 C1241 0.961 . S
H1249 C1241 0.960 . S
H1250 C1242 0.930 . S
H1251 C1243 0.929 . S
H1252 C1260 0.929 . S
H1253 C1262 0.930 . S
H1254 C1264 0.930 . S
H1255 C1267 0.929 . S
H1256 C1270 0.930 . S
H1257 C1272 0.960 . S
H1258 C1272 0.960 . S
H1259 C1272 0.960 . S
C1260 H1252 0.929 . S
C1260 C1261 1.377 . S
C1260 C1262 1.384 . S
C1261 C1260 1.377 . S
C1261 C1267 1.390 . S
C1262 H1253 0.930 . S
C1262 C1260 1.384 . S
C1262 C1263 1.372 . S
C1263 C1262 1.372 . S
C1263 C1264 1.400 . S
C1263 C1268 1.490 . S
C1264 H1254 0.930 . S
C1264 C1263 1.400 . S
C1264 C1267 1.386 . S
H1265 C1281 0.930 . S
H1266 C1282 0.931 . S
C1267 H1255 0.929 . S
C1267 C1261 1.390 . S
C1267 C1264 1.386 . S
C1268 C1263 1.490 . S
C1268 C1270 1.395 . S
C1268 C1271 1.403 . S
H1269 C1275 0.930 . S
C1270 H1256 0.930 . S
C1270 C1268 1.395 . S
C1270 C1273 1.403 . S
C1271 C1268 1.403 . S
C1271 C1272 1.524 . S
C1271 C1275 1.400 . S
C1272 H1257 0.960 . S
C1272 H1258 0.960 . S
C1272 H1259 0.960 . S
C1272 C1271 1.524 . S
C1273 C1270 1.403 . S
C1273 C1274 1.392 . S
C1273 C1277 1.495 . S
C1274 C1273 1.392 . S
C1274 C1275 1.385 . S
C1274 C1276 1.478 . S
C1275 H1269 0.930 . S
C1275 C1271 1.400 . S
C1275 C1274 1.385 . S
C1276 C1274 1.478 . S
C1276 C1278 1.381 . S
C1276 C1282 1.383 . S
C1277 C1273 1.495 . S
C1277 H1283 0.959 . S
C1277 H1284 0.961 . S
C1277 H1285 0.960 . S
C1278 C1276 1.381 . S
C1278 C1279 1.394 . S
C1278 H1286 0.930 . S
C1279 C1278 1.394 . S
C1279 C1280 1.383 . S
C1279 H1287 0.929 . S
C1280 C1279 1.383 . S
C1280 C1281 1.377 . S
C1281 H1265 0.930 . S
C1281 C1280 1.377 . S
C1281 C1282 1.379 . S
C1282 H1266 0.931 . S
C1282 C1276 1.383 . S
C1282 C1281 1.379 . S
H1283 C1277 0.959 . S
H1284 C1277 0.961 . S
H1285 C1277 0.960 . S
H1286 C1278 0.930 . S
H1287 C1279 0.929 . S
H1288 C1296 0.929 . S
H1289 C1298 0.930 . S
H1290 C1300 0.930 . S
H1291 C1303 0.929 . S
H1292 C1306 0.930 . S
H1293 C1308 0.960 . S
H1294 C1308 0.960 . S
H1295 C1308 0.960 . S
C1296 H1288 0.929 . S
C1296 C1297 1.377 . S
C1296 C1298 1.384 . S
C1297 C1296 1.377 . S
C1297 C1303 1.390 . S
C1298 H1289 0.930 . S
C1298 C1296 1.384 . S
C1298 C1299 1.372 . S
C1299 C1298 1.372 . S
C1299 C1300 1.400 . S
C1299 C1304 1.490 . S
C1300 H1290 0.930 . S
C1300 C1299 1.400 . S
C1300 C1303 1.386 . S
H1301 C1317 0.930 . S
H1302 C1318 0.931 . S
C1303 H1291 0.929 . S
C1303 C1297 1.390 . S
C1303 C1300 1.386 . S
C1304 C1299 1.490 . S
C1304 C1306 1.395 . S
C1304 C1307 1.403 . S
H1305 C1311 0.930 . S
C1306 H1292 0.930 . S
C1306 C1304 1.395 . S
C1306 C1309 1.403 . S
C1307 C1304 1.403 . S
C1307 C1308 1.524 . S
C1307 C1311 1.400 . S
C1308 H1293 0.960 . S
C1308 H1294 0.960 . S
C1308 H1295 0.960 . S
C1308 C1307 1.524 . S
C1309 C1306 1.403 . S
C1309 C1310 1.392 . S
C1309 C1313 1.495 . S
C1310 C1309 1.392 . S
C1310 C1311 1.385 . S
C1310 C1312 1.478 . S
C1311 H1305 0.930 . S
C1311 C1307 1.400 . S
C1311 C1310 1.385 . S
C1312 C1310 1.478 . S
C1312 C1314 1.381 . S
C1312 C1318 1.383 . S
C1313 C1309 1.495 . S
C1313 H1319 0.959 . S
C1313 H1320 0.961 . S
C1313 H1321 0.960 . S
C1314 C1312 1.381 . S
C1314 C1315 1.394 . S
C1314 H1322 0.930 . S
C1315 C1314 1.394 . S
C1315 C1316 1.383 . S
C1315 H1323 0.929 . S
C1316 C1315 1.383 . S
C1316 C1317 1.377 . S
C1317 H1301 0.930 . S
C1317 C1316 1.377 . S
C1317 C1318 1.379 . S
C1318 H1302 0.931 . S
C1318 C1312 1.383 . S
C1318 C1317 1.379 . S
H1319 C1313 0.959 . S
H1320 C1313 0.961 . S
H1321 C1313 0.960 . S
H1322 C1314 0.930 . S
H1323 C1315 0.929 . S
H1324 C1332 0.929 . S
H1325 C1334 0.930 . S
H1326 C1336 0.930 . S
H1327 C1339 0.929 . S
H1328 C1342 0.930 . S
H1329 C1344 0.960 . S
H1330 C1344 0.960 . S
H1331 C1344 0.960 . S
C1332 H1324 0.929 . S
C1332 C1333 1.377 . S
C1332 C1334 1.384 . S
C1333 C1332 1.377 . S
C1333 C1339 1.390 . S
C1334 H1325 0.930 . S
C1334 C1332 1.384 . S
C1334 C1335 1.372 . S
C1335 C1334 1.372 . S
C1335 C1336 1.400 . S
C1335 C1340 1.490 . S
C1336 H1326 0.930 . S
C1336 C1335 1.400 . S
C1336 C1339 1.386 . S
H1337 C1353 0.930 . S
H1338 C1354 0.931 . S
C1339 H1327 0.929 . S
C1339 C1333 1.390 . S
C1339 C1336 1.386 . S
C1340 C1335 1.490 . S
C1340 C1342 1.395 . S
C1340 C1343 1.403 . S
H1341 C1347 0.930 . S
C1342 H1328 0.930 . S
C1342 C1340 1.395 . S
C1342 C1345 1.403 . S
C1343 C1340 1.403 . S
C1343 C1344 1.524 . S
C1343 C1347 1.400 . S
C1344 H1329 0.960 . S
C1344 H1330 0.960 . S
C1344 H1331 0.960 . S
C1344 C1343 1.524 . S
C1345 C1342 1.403 . S
C1345 C1346 1.392 . S
C1345 C1349 1.495 . S
C1346 C1345 1.392 . S
C1346 C1347 1.385 . S
C1346 C1348 1.478 . S
C1347 H1341 0.930 . S
C1347 C1343 1.400 . S
C1347 C1346 1.385 . S
C1348 C1346 1.478 . S
C1348 C1350 1.381 . S
C1348 C1354 1.383 . S
C1349 C1345 1.495 . S
C1349 H1355 0.959 . S
C1349 H1356 0.961 . S
C1349 H1357 0.960 . S
C1350 C1348 1.381 . S
C1350 C1351 1.394 . S
C1350 H1358 0.930 . S
C1351 C1350 1.394 . S
C1351 C1352 1.383 . S
C1351 H1359 0.929 . S
C1352 C1351 1.383 . S
C1352 C1353 1.377 . S
C1353 H1337 0.930 . S
C1353 C1352 1.377 . S
C1353 C1354 1.379 . S
C1354 H1338 0.931 . S
C1354 C1348 1.383 . S
C1354 C1353 1.379 . S
H1355 C1349 0.959 . S
H1356 C1349 0.961 . S
H1357 C1349 0.960 . S
H1358 C1350 0.930 . S
H1359 C1351 0.929 . S
H1360 C1368 0.929 . S
H1361 C1370 0.930 . S
H1362 C1372 0.930 . S
H1363 C1375 0.929 . S
H1364 C1378 0.930 . S
H1365 C1380 0.960 . S
H1366 C1380 0.960 . S
H1367 C1380 0.960 . S
C1368 H1360 0.929 . S
C1368 C1369 1.377 . S
C1368 C1370 1.384 . S
C1369 C1368 1.377 . S
C1369 C1375 1.390 . S
C1370 H1361 0.930 . S
C1370 C1368 1.384 . S
C1370 C1371 1.372 . S
C1371 C1370 1.372 . S
C1371 C1372 1.400 . S
C1371 C1376 1.490 . S
C1372 H1362 0.930 . S
C1372 C1371 1.400 . S
C1372 C1375 1.386 . S
H1373 C1389 0.930 . S
H1374 C1390 0.931 . S
C1375 H1363 0.929 . S
C1375 C1369 1.390 . S
C1375 C1372 1.386 . S
C1376 C1371 1.490 . S
C1376 C1378 1.395 . S
C1376 C1379 1.403 . S
H1377 C1383 0.930 . S
C1378 H1364 0.930 . S
C1378 C1376 1.395 . S
C1378 C1381 1.403 . S
C1379 C1376 1.403 . S
C1379 C1380 1.524 . S
C1379 C1383 1.400 . S
C1380 H1365 0.960 . S
C1380 H1366 0.960 . S
C1380 H1367 0.960 . S
C1380 C1379 1.524 . S
C1381 C1378 1.403 . S
C1381 C1382 1.392 . S
C1381 C1385 1.495 . S
C1382 C1381 1.392 . S
C1382 C1383 1.385 . S
C1382 C1384 1.478 . S
C1383 H1377 0.930 . S
C1383 C1379 1.400 . S
C1383 C1382 1.385 . S
C1384 C1382 1.478 . S
C1384 C1386 1.381 . S
C1384 C1390 1.383 . S
C1385 C1381 1.495 . S
C1385 H1391 0.959 . S
C1385 H1392 0.961 . S
C1385 H1393 0.960 . S
C1386 C1384 1.381 . S
C1386 C1387 1.394 . S
C1386 H1394 0.930 . S
C1387 C1386 1.394 . S
C1387 C1388 1.383 . S
C1387 H1395 0.929 . S
C1388 C1387 1.383 . S
C1388 C1389 1.377 . S
C1389 H1373 0.930 . S
C1389 C1388 1.377 . S
C1389 C1390 1.379 . S
C1390 H1374 0.931 . S
C1390 C1384 1.383 . S
C1390 C1389 1.379 . S
H1391 C1385 0.959 . S
H1392 C1385 0.961 . S
H1393 C1385 0.960 . S
H1394 C1386 0.930 . S
H1395 C1387 0.929 . S
H1396 C1404 0.929 . S
H1397 C1406 0.930 . S
H1398 C1408 0.930 . S
H1399 C1411 0.929 1_655 S
H1400 C1414 0.930 . S
H1401 C1416 0.960 . S
H1402 C1416 0.960 . S
H1403 C1416 0.960 . S
C1404 H1396 0.929 . S
C1404 C1405 1.377 . S
C1404 C1406 1.384 . S
C1405 C1404 1.377 . S
C1405 C1411 1.390 . S
C1406 H1397 0.930 . S
C1406 C1404 1.384 . S
C1406 C1407 1.372 . S
C1407 C1406 1.372 . S
C1407 C1408 1.400 1_455 S
C1407 C1412 1.490 . S
C1408 H1398 0.930 . S
C1408 C1407 1.400 1_655 S
C1408 C1411 1.386 1_655 S
H1409 C1425 0.930 . S
H1410 C1426 0.931 . S
C1411 H1399 0.929 1_455 S
C1411 C1405 1.390 . S
C1411 C1408 1.386 1_455 S
C1412 C1407 1.490 . S
C1412 C1414 1.395 . S
C1412 C1415 1.403 1_455 S
H1413 C1419 0.930 . S
C1414 H1400 0.930 . S
C1414 C1412 1.395 . S
C1414 C1417 1.403 . S
C1415 C1412 1.403 1_655 S
C1415 C1416 1.524 . S
C1415 C1419 1.400 . S
C1416 H1401 0.960 . S
C1416 H1402 0.960 . S
C1416 H1403 0.960 . S
C1416 C1415 1.524 . S
C1417 C1414 1.403 . S
C1417 C1418 1.338 1_455 S
C1417 C1421 1.495 . S
C1418 C1417 1.338 1_655 S
C1418 C1419 1.417 . S
C1418 C1420 1.503 . S
C1419 H1413 0.930 . S
C1419 C1415 1.400 . S
C1419 C1418 1.417 . S
C1420 C1418 1.503 . S
C1420 C1422 1.381 . S
C1420 C1426 1.383 . S
C1421 C1417 1.495 . S
C1421 H1427 0.959 . S
C1421 H1428 0.961 . S
C1421 H1429 0.960 . S
C1422 C1420 1.381 . S
C1422 C1423 1.394 . S
C1422 H1430 0.930 1_655 S
C1423 C1422 1.394 . S
C1423 C1424 1.383 . S
C1423 H1431 0.929 . S
C1424 C1423 1.383 . S
C1424 C1425 1.377 . S
C1425 H1409 0.930 . S
C1425 C1424 1.377 . S
C1425 C1426 1.379 . S
C1426 H1410 0.931 . S
C1426 C1420 1.383 . S
C1426 C1425 1.379 . S
H1427 C1421 0.959 . S
H1428 C1421 0.961 . S
H1429 C1421 0.960 . S
H1430 C1422 0.930 1_455 S
H1431 C1423 0.929 . S
H1432 C1440 0.929 . S
H1433 C1442 0.930 . S
H1434 C1444 0.930 . S
H1435 C1447 0.929 . S
H1436 C1450 0.930 . S
H1437 C1452 0.960 . S
H1438 C1452 0.960 . S
H1439 C1452 0.960 . S
C1440 H1432 0.929 . S
C1440 C1441 1.377 . S
C1440 C1442 1.384 . S
C1441 C1440 1.377 . S
C1441 C1447 1.390 . S
C1442 H1433 0.930 . S
C1442 C1440 1.384 . S
C1442 C1443 1.372 . S
C1443 C1442 1.372 . S
C1443 C1444 1.400 . S
C1443 C1448 1.490 . S
C1444 H1434 0.930 . S
C1444 C1443 1.400 . S
C1444 C1447 1.386 . S
H1445 C1461 0.930 . S
H1446 C1462 0.931 . S
C1447 H1435 0.929 . S
C1447 C1441 1.390 . S
C1447 C1444 1.386 . S
C1448 C1443 1.490 . S
C1448 C1450 1.395 . S
C1448 C1451 1.403 . S
H1449 C1455 0.930 . S
C1450 H1436 0.930 . S
C1450 C1448 1.395 . S
C1450 C1453 1.403 . S
C1451 C1448 1.403 . S
C1451 C1452 1.524 . S
C1451 C1455 1.400 . S
C1452 H1437 0.960 . S
C1452 H1438 0.960 . S
C1452 H1439 0.960 . S
C1452 C1451 1.524 . S
C1453 C1450 1.403 . S
C1453 C1454 1.392 . S
C1453 C1457 1.495 . S
C1454 C1453 1.392 . S
C1454 C1455 1.385 . S
C1454 C1456 1.478 . S
C1455 H1449 0.930 . S
C1455 C1451 1.400 . S
C1455 C1454 1.385 . S
C1456 C1454 1.478 . S
C1456 C1458 1.381 . S
C1456 C1462 1.383 . S
C1457 C1453 1.495 . S
C1457 H1463 0.959 . S
C1457 H1464 0.961 . S
C1457 H1465 0.960 . S
C1458 C1456 1.381 . S
C1458 C1459 1.394 . S
C1458 H1466 0.930 . S
C1459 C1458 1.394 . S
C1459 C1460 1.383 . S
C1459 H1467 0.929 . S
C1460 C1459 1.383 . S
C1460 C1461 1.377 . S
C1461 H1445 0.930 . S
C1461 C1460 1.377 . S
C1461 C1462 1.379 . S
C1462 H1446 0.931 . S
C1462 C1456 1.383 . S
C1462 C1461 1.379 . S
H1463 C1457 0.959 . S
H1464 C1457 0.961 . S
H1465 C1457 0.960 . S
H1466 C1458 0.930 . S
H1467 C1459 0.929 . S
H1468 C1476 0.929 . S
H1469 C1478 0.930 . S
H1470 C1480 0.930 . S
H1471 C1483 0.929 . S
H1472 C1486 0.930 . S
H1473 C1488 0.960 . S
H1474 C1488 0.960 . S
H1475 C1488 0.960 . S
C1476 H1468 0.929 . S
C1476 C1477 1.377 . S
C1476 C1478 1.384 . S
C1477 C1476 1.377 . S
C1477 C1483 1.390 . S
C1478 H1469 0.930 . S
C1478 C1476 1.384 . S
C1478 C1479 1.372 . S
C1479 C1478 1.372 . S
C1479 C1480 1.400 . S
C1479 C1484 1.490 . S
C1480 H1470 0.930 . S
C1480 C1479 1.400 . S
C1480 C1483 1.386 . S
H1481 C1497 0.930 . S
H1482 C1498 0.931 . S
C1483 H1471 0.929 . S
C1483 C1477 1.390 . S
C1483 C1480 1.386 . S
C1484 C1479 1.490 . S
C1484 C1486 1.395 . S
C1484 C1487 1.403 . S
H1485 C1491 0.930 . S
C1486 H1472 0.930 . S
C1486 C1484 1.395 . S
C1486 C1489 1.403 . S
C1487 C1484 1.403 . S
C1487 C1488 1.524 . S
C1487 C1491 1.400 . S
C1488 H1473 0.960 . S
C1488 H1474 0.960 . S
C1488 H1475 0.960 . S
C1488 C1487 1.524 . S
C1489 C1486 1.403 . S
C1489 C1490 1.392 . S
C1489 C1493 1.495 . S
C1490 C1489 1.392 . S
C1490 C1491 1.385 . S
C1490 C1492 1.478 . S
C1491 H1485 0.930 . S
C1491 C1487 1.400 . S
C1491 C1490 1.385 . S
C1492 C1490 1.478 . S
C1492 C1494 1.381 . S
C1492 C1498 1.383 . S
C1493 C1489 1.495 . S
C1493 H1499 0.959 . S
C1493 H1500 0.961 . S
C1493 H1501 0.960 . S
C1494 C1492 1.381 . S
C1494 C1495 1.394 . S
C1494 H1502 0.930 . S
C1495 C1494 1.394 . S
C1495 C1496 1.383 . S
C1495 H1503 0.929 . S
C1496 C1495 1.383 . S
C1496 C1497 1.377 . S
C1497 H1481 0.930 . S
C1497 C1496 1.377 . S
C1497 C1498 1.379 . S
C1498 H1482 0.931 . S
C1498 C1492 1.383 . S
C1498 C1497 1.379 . S
H1499 C1493 0.959 . S
H1500 C1493 0.961 . S
H1501 C1493 0.960 . S
H1502 C1494 0.930 . S
H1503 C1495 0.929 . S
H1504 C1512 0.929 . S
H1505 C1514 0.930 . S
H1506 C1516 0.930 . S
H1507 C1519 0.929 . S
H1508 C1522 0.930 . S
H1509 C1524 0.960 . S
H1510 C1524 0.960 . S
H1511 C1524 0.960 . S
C1512 H1504 0.929 . S
C1512 C1513 1.377 . S
C1512 C1514 1.384 . S
C1513 C1512 1.377 . S
C1513 C1519 1.390 . S
C1514 H1505 0.930 . S
C1514 C1512 1.384 . S
C1514 C1515 1.372 . S
C1515 C1514 1.372 . S
C1515 C1516 1.400 . S
C1515 C1520 1.490 . S
C1516 H1506 0.930 . S
C1516 C1515 1.400 . S
C1516 C1519 1.386 . S
H1517 C1533 0.930 . S
H1518 C1534 0.931 . S
C1519 H1507 0.929 . S
C1519 C1513 1.390 . S
C1519 C1516 1.386 . S
C1520 C1515 1.490 . S
C1520 C1522 1.395 . S
C1520 C1523 1.403 . S
H1521 C1527 0.930 . S
C1522 H1508 0.930 . S
C1522 C1520 1.395 . S
C1522 C1525 1.403 . S
C1523 C1520 1.403 . S
C1523 C1524 1.524 . S
C1523 C1527 1.400 . S
C1524 H1509 0.960 . S
C1524 H1510 0.960 . S
C1524 H1511 0.960 . S
C1524 C1523 1.524 . S
C1525 C1522 1.403 . S
C1525 C1526 1.392 . S
C1525 C1529 1.495 . S
C1526 C1525 1.392 . S
C1526 C1527 1.385 . S
C1526 C1528 1.478 . S
C1527 H1521 0.930 . S
C1527 C1523 1.400 . S
C1527 C1526 1.385 . S
C1528 C1526 1.478 . S
C1528 C1530 1.381 . S
C1528 C1534 1.383 . S
C1529 C1525 1.495 . S
C1529 H1535 0.959 . S
C1529 H1536 0.961 . S
C1529 H1537 0.960 . S
C1530 C1528 1.381 . S
C1530 C1531 1.394 . S
C1530 H1538 0.930 . S
C1531 C1530 1.394 . S
C1531 C1532 1.383 . S
C1531 H1539 0.929 . S
C1532 C1531 1.383 . S
C1532 C1533 1.377 . S
C1533 H1517 0.930 . S
C1533 C1532 1.377 . S
C1533 C1534 1.379 . S
C1534 H1518 0.931 . S
C1534 C1528 1.383 . S
C1534 C1533 1.379 . S
H1535 C1529 0.959 . S
H1536 C1529 0.961 . S
H1537 C1529 0.960 . S
H1538 C1530 0.930 . S
H1539 C1531 0.929 . S
H1540 C1548 0.929 . S
H1541 C1550 0.930 . S
H1542 C1552 0.930 . S
H1543 C1555 0.929 . S
H1544 C1558 0.930 . S
H1545 C1560 0.960 . S
H1546 C1560 0.960 . S
H1547 C1560 0.960 . S
C1548 H1540 0.929 . S
C1548 C1549 1.377 . S
C1548 C1550 1.384 . S
C1549 C1548 1.377 . S
C1549 C1555 1.390 . S
C1550 H1541 0.930 . S
C1550 C1548 1.384 . S
C1550 C1551 1.372 . S
C1551 C1550 1.372 . S
C1551 C1552 1.400 . S
C1551 C1556 1.490 . S
C1552 H1542 0.930 . S
C1552 C1551 1.400 . S
C1552 C1555 1.386 . S
H1553 C1569 0.930 . S
H1554 C1570 0.931 . S
C1555 H1543 0.929 . S
C1555 C1549 1.390 . S
C1555 C1552 1.386 . S
C1556 C1551 1.490 . S
C1556 C1558 1.395 . S
C1556 C1559 1.403 . S
H1557 C1563 0.930 . S
C1558 H1544 0.930 . S
C1558 C1556 1.395 . S
C1558 C1561 1.403 . S
C1559 C1556 1.403 . S
C1559 C1560 1.524 . S
C1559 C1563 1.400 . S
C1560 H1545 0.960 . S
C1560 H1546 0.960 . S
C1560 H1547 0.960 . S
C1560 C1559 1.524 . S
C1561 C1558 1.403 . S
C1561 C1562 1.392 . S
C1561 C1565 1.495 . S
C1562 C1561 1.392 . S
C1562 C1563 1.385 . S
C1562 C1564 1.478 . S
C1563 H1557 0.930 . S
C1563 C1559 1.400 . S
C1563 C1562 1.385 . S
C1564 C1562 1.478 . S
C1564 C1566 1.381 . S
C1564 C1570 1.383 . S
C1565 C1561 1.495 . S
C1565 H1571 0.959 . S
C1565 H1572 0.961 . S
C1565 H1573 0.960 . S
C1566 C1564 1.381 . S
C1566 C1567 1.394 . S
C1566 H1574 0.930 . S
C1567 C1566 1.394 . S
C1567 C1568 1.383 . S
C1567 H1575 0.929 . S
C1568 C1567 1.383 . S
C1568 C1569 1.377 . S
C1569 H1553 0.930 . S
C1569 C1568 1.377 . S
C1569 C1570 1.379 . S
C1570 H1554 0.931 . S
C1570 C1564 1.383 . S
C1570 C1569 1.379 . S
H1571 C1565 0.959 . S
H1572 C1565 0.961 . S
H1573 C1565 0.960 . S
H1574 C1566 0.930 . S
H1575 C1567 0.929 . S
H1576 C1584 0.929 . S
H1577 C1586 0.930 . S
H1578 C1588 0.930 . S
H1579 C1591 0.929 . S
H1580 C1594 0.930 . S
H1581 C1596 0.960 . S
H1582 C1596 0.960 . S
H1583 C1596 0.960 . S
C1584 H1576 0.929 . S
C1584 C1585 1.377 . S
C1584 C1586 1.384 . S
C1585 C1584 1.377 . S
C1585 C1591 1.390 1_565 S
C1586 H1577 0.930 . S
C1586 C1584 1.384 . S
C1586 C1587 1.372 . S
C1587 C1586 1.372 . S
C1587 C1588 1.400 1_565 S
C1587 C1592 1.490 . S
C1588 H1578 0.930 . S
C1588 C1587 1.400 1_545 S
C1588 C1591 1.386 . S
H1589 C1605 0.930 . S
H1590 C1606 0.931 . S
C1591 H1579 0.929 . S
C1591 C1585 1.390 1_545 S
C1591 C1588 1.386 . S
C1592 C1587 1.490 . S
C1592 C1594 1.395 . S
C1592 C1595 1.403 1_565 S
H1593 C1599 0.930 . S
C1594 H1580 0.930 . S
C1594 C1592 1.395 . S
C1594 C1597 1.403 . S
C1595 C1592 1.403 1_545 S
C1595 C1596 1.524 . S
C1595 C1599 1.400 . S
C1596 H1581 0.960 . S
C1596 H1582 0.960 . S
C1596 H1583 0.960 . S
C1596 C1595 1.524 . S
C1597 C1594 1.403 . S
C1597 C1598 1.392 1_565 S
C1597 C1601 1.495 . S
C1598 C1597 1.392 1_545 S
C1598 C1599 1.385 . S
C1598 C1600 1.478 . S
C1599 H1593 0.930 . S
C1599 C1595 1.400 . S
C1599 C1598 1.385 . S
C1600 C1598 1.478 . S
C1600 C1602 1.381 1_545 S
C1600 C1606 1.383 . S
C1601 C1597 1.495 . S
C1601 H1607 0.959 . S
C1601 H1608 0.961 . S
C1601 H1609 0.960 . S
C1602 C1600 1.381 1_565 S
C1602 C1603 1.394 1_565 S
C1602 H1610 0.930 . S
C1603 C1602 1.394 1_545 S
C1603 C1604 1.383 . S
C1603 H1611 0.929 1_545 S
C1604 C1603 1.383 . S
C1604 C1605 1.377 . S
C1605 H1589 0.930 . S
C1605 C1604 1.377 . S
C1605 C1606 1.379 . S
C1606 H1590 0.931 . S
C1606 C1600 1.383 . S
C1606 C1605 1.379 . S
H1607 C1601 0.959 . S
H1608 C1601 0.961 . S
H1609 C1601 0.960 . S
H1610 C1602 0.930 . S
H1611 C1603 0.929 1_565 S
H1612 C1620 0.929 . S
H1613 C1622 0.930 . S
H1614 C1624 0.930 1_556 S
H1615 C1627 0.929 . S
H1616 C1630 0.930 . S
H1617 C1632 0.960 . S
H1618 C1632 0.960 . S
H1619 C1632 0.960 . S
C1620 H1612 0.929 . S
C1620 C1621 1.377 . S
C1620 C1622 1.384 . S
C1621 C1620 1.377 . S
C1621 C1627 1.390 1_554 S
C1622 H1613 0.930 . S
C1622 C1620 1.384 . S
C1622 C1623 1.372 . S
C1623 C1622 1.372 . S
C1623 C1624 1.400 . S
C1623 C1628 1.490 . S
C1624 H1614 0.930 1_554 S
C1624 C1623 1.400 . S
C1624 C1627 1.386 1_554 S
H1625 C1641 0.930 . S
H1626 C1642 0.933 1_556 S
C1627 H1615 0.929 . S
C1627 C1621 1.390 1_556 S
C1627 C1624 1.386 1_556 S
C1628 C1623 1.490 . S
C1628 C1630 1.395 . S
C1628 C1631 1.403 . S
H1629 C1635 0.930 . S
C1630 H1616 0.930 . S
C1630 C1628 1.395 . S
C1630 C1633 1.403 . S
C1631 C1628 1.403 . S
C1631 C1632 1.524 . S
C1631 C1635 1.400 . S
C1632 H1617 0.960 . S
C1632 H1618 0.960 . S
C1632 H1619 0.960 . S
C1632 C1631 1.524 . S
C1633 C1630 1.403 . S
C1633 C1634 1.392 . S
C1633 C1637 1.495 . S
C1634 C1633 1.392 . S
C1634 C1635 1.385 . S
C1634 C1636 1.478 . S
C1635 H1629 0.930 . S
C1635 C1631 1.400 . S
C1635 C1634 1.385 . S
C1636 C1634 1.478 . S
C1636 C1638 1.381 . S
C1636 C1642 1.383 . S
C1637 C1633 1.495 . S
C1637 H1643 0.959 . S
C1637 H1644 0.961 . S
C1637 H1645 0.960 . S
C1638 C1636 1.381 . S
C1638 C1639 1.394 . S
C1638 H1646 0.930 . S
C1639 C1638 1.394 . S
C1639 C1640 1.383 . S
C1639 H1647 0.929 . S
C1640 C1639 1.383 . S
C1640 C1641 1.377 . S
C1641 H1625 0.930 . S
C1641 C1640 1.377 . S
C1641 C1642 1.379 . S
C1642 H1626 0.933 1_554 S
C1642 C1636 1.383 . S
C1642 C1641 1.379 . S
H1643 C1637 0.959 . S
H1644 C1637 0.961 . S
H1645 C1637 0.960 . S
H1646 C1638 0.930 . S
H1647 C1639 0.929 . S
H1648 C1656 0.929 . S
H1649 C1658 0.930 . S
H1650 C1660 0.930 . S
H1651 C1663 0.929 . S
H1652 C1666 0.930 . S
H1653 C1668 0.960 . S
H1654 C1668 0.960 . S
H1655 C1668 0.960 . S
C1656 H1648 0.929 . S
C1656 C1657 1.377 . S
C1656 C1658 1.384 . S
C1657 C1656 1.377 . S
C1657 C1663 1.390 . S
C1658 H1649 0.930 . S
C1658 C1656 1.384 . S
C1658 C1659 1.372 . S
C1659 C1658 1.372 . S
C1659 C1660 1.400 . S
C1659 C1664 1.490 . S
C1660 H1650 0.930 . S
C1660 C1659 1.400 . S
C1660 C1663 1.386 . S
H1661 C1677 0.930 . S
H1662 C1678 0.931 . S
C1663 H1651 0.929 . S
C1663 C1657 1.390 . S
C1663 C1660 1.386 . S
C1664 C1659 1.490 . S
C1664 C1666 1.395 . S
C1664 C1667 1.403 . S
H1665 C1671 0.930 . S
C1666 H1652 0.930 . S
C1666 C1664 1.395 . S
C1666 C1669 1.403 . S
C1667 C1664 1.403 . S
C1667 C1668 1.524 . S
C1667 C1671 1.400 . S
C1668 H1653 0.960 . S
C1668 H1654 0.960 . S
C1668 H1655 0.960 . S
C1668 C1667 1.524 . S
C1669 C1666 1.403 . S
C1669 C1670 1.392 . S
C1669 C1673 1.495 . S
C1670 C1669 1.392 . S
C1670 C1671 1.385 . S
C1670 C1672 1.478 . S
C1671 H1665 0.930 . S
C1671 C1667 1.400 . S
C1671 C1670 1.385 . S
C1672 C1670 1.478 . S
C1672 C1674 1.381 . S
C1672 C1678 1.383 . S
C1673 C1669 1.495 . S
C1673 H1679 0.959 . S
C1673 H1680 0.961 . S
C1673 H1681 0.960 . S
C1674 C1672 1.381 . S
C1674 C1675 1.394 . S
C1674 H1682 0.930 . S
C1675 C1674 1.394 . S
C1675 C1676 1.383 . S
C1675 H1683 0.929 . S
C1676 C1675 1.383 . S
C1676 C1677 1.377 . S
C1677 H1661 0.930 . S
C1677 C1676 1.377 . S
C1677 C1678 1.379 . S
C1678 H1662 0.931 . S
C1678 C1672 1.383 . S
C1678 C1677 1.379 . S
H1679 C1673 0.959 . S
H1680 C1673 0.961 . S
H1681 C1673 0.960 . S
H1682 C1674 0.930 . S
H1683 C1675 0.929 . S
H1684 C1692 0.929 . S
H1685 C1694 0.930 . S
H1686 C1696 0.930 . S
H1687 C1699 0.929 . S
H1688 C1702 0.930 . S
H1689 C1704 0.960 . S
H1690 C1704 0.960 . S
H1691 C1704 0.960 . S
C1692 H1684 0.929 . S
C1692 C1693 1.377 . S
C1692 C1694 1.384 . S
C1693 C1692 1.377 . S
C1693 C1699 1.390 . S
C1694 H1685 0.930 . S
C1694 C1692 1.384 . S
C1694 C1695 1.372 . S
C1695 C1694 1.372 . S
C1695 C1696 1.400 . S
C1695 C1700 1.490 . S
C1696 H1686 0.930 . S
C1696 C1695 1.400 . S
C1696 C1699 1.386 . S
H1697 C1713 0.930 . S
H1698 C1714 0.931 . S
C1699 H1687 0.929 . S
C1699 C1693 1.390 . S
C1699 C1696 1.386 . S
C1700 C1695 1.490 . S
C1700 C1702 1.395 . S
C1700 C1703 1.403 . S
H1701 C1707 0.930 . S
C1702 H1688 0.930 . S
C1702 C1700 1.395 . S
C1702 C1705 1.403 . S
C1703 C1700 1.403 . S
C1703 C1704 1.524 . S
C1703 C1707 1.400 . S
C1704 H1689 0.960 . S
C1704 H1690 0.960 . S
C1704 H1691 0.960 . S
C1704 C1703 1.524 . S
C1705 C1702 1.403 . S
C1705 C1706 1.392 . S
C1705 C1709 1.495 . S
C1706 C1705 1.392 . S
C1706 C1707 1.385 . S
C1706 C1708 1.478 . S
C1707 H1701 0.930 . S
C1707 C1703 1.400 . S
C1707 C1706 1.385 . S
C1708 C1706 1.478 . S
C1708 C1710 1.381 . S
C1708 C1714 1.383 . S
C1709 C1705 1.495 . S
C1709 H1715 0.959 . S
C1709 H1716 0.961 . S
C1709 H1717 0.960 . S
C1710 C1708 1.381 . S
C1710 C1711 1.394 . S
C1710 H1718 0.930 . S
C1711 C1710 1.394 . S
C1711 C1712 1.383 . S
C1711 H1719 0.929 . S
C1712 C1711 1.383 . S
C1712 C1713 1.377 . S
C1713 H1697 0.930 . S
C1713 C1712 1.377 . S
C1713 C1714 1.379 . S
C1714 H1698 0.931 . S
C1714 C1708 1.383 . S
C1714 C1713 1.379 . S
H1715 C1709 0.959 . S
H1716 C1709 0.961 . S
H1717 C1709 0.960 . S
H1718 C1710 0.930 . S
H1719 C1711 0.929 . S
H1720 C1728 0.929 . S
H1721 C1730 0.930 . S
H1722 C1732 0.930 . S
H1723 C1735 0.929 . S
H1724 C1738 0.930 . S
H1725 C1740 0.960 . S
H1726 C1740 0.960 . S
H1727 C1740 0.960 . S
C1728 H1720 0.929 . S
C1728 C1729 1.377 . S
C1728 C1730 1.384 . S
C1729 C1728 1.377 . S
C1729 C1735 1.390 . S
C1730 H1721 0.930 . S
C1730 C1728 1.384 . S
C1730 C1731 1.372 . S
C1731 C1730 1.372 . S
C1731 C1732 1.400 . S
C1731 C1736 1.490 . S
C1732 H1722 0.930 . S
C1732 C1731 1.400 . S
C1732 C1735 1.386 . S
H1733 C1749 0.930 . S
H1734 C1750 0.931 . S
C1735 H1723 0.929 . S
C1735 C1729 1.390 . S
C1735 C1732 1.386 . S
C1736 C1731 1.490 . S
C1736 C1738 1.395 . S
C1736 C1739 1.403 . S
H1737 C1743 0.930 . S
C1738 H1724 0.930 . S
C1738 C1736 1.395 . S
C1738 C1741 1.403 . S
C1739 C1736 1.403 . S
C1739 C1740 1.524 . S
C1739 C1743 1.400 . S
C1740 H1725 0.960 . S
C1740 H1726 0.960 . S
C1740 H1727 0.960 . S
C1740 C1739 1.524 . S
C1741 C1738 1.403 . S
C1741 C1742 1.392 . S
C1741 C1745 1.495 . S
C1742 C1741 1.392 . S
C1742 C1743 1.385 . S
C1742 C1744 1.478 . S
C1743 H1737 0.930 . S
C1743 C1739 1.400 . S
C1743 C1742 1.385 . S
C1744 C1742 1.478 . S
C1744 C1746 1.381 . S
C1744 C1750 1.383 . S
C1745 C1741 1.495 . S
C1745 H1751 0.959 . S
C1745 H1752 0.961 . S
C1745 H1753 0.960 . S
C1746 C1744 1.381 . S
C1746 C1747 1.394 . S
C1746 H1754 0.930 . S
C1747 C1746 1.394 . S
C1747 C1748 1.383 . S
C1747 H1755 0.929 . S
C1748 C1747 1.383 . S
C1748 C1749 1.377 . S
C1749 H1733 0.930 . S
C1749 C1748 1.377 . S
C1749 C1750 1.379 . S
C1750 H1734 0.931 . S
C1750 C1744 1.383 . S
C1750 C1749 1.379 . S
H1751 C1745 0.959 . S
H1752 C1745 0.961 . S
H1753 C1745 0.960 . S
H1754 C1746 0.930 . S
H1755 C1747 0.929 . S
H1756 C1764 0.929 . S
H1757 C1766 0.930 . S
H1758 C1768 0.930 . S
H1759 C1771 0.929 . S
H1760 C1774 0.930 . S
H1761 C1776 0.960 . S
H1762 C1776 0.960 . S
H1763 C1776 0.960 . S
C1764 H1756 0.929 . S
C1764 C1765 1.377 . S
C1764 C1766 1.384 . S
C1765 C1764 1.377 . S
C1765 C1771 1.390 . S
C1766 H1757 0.930 . S
C1766 C1764 1.384 . S
C1766 C1767 1.372 . S
C1767 C1766 1.372 . S
C1767 C1768 1.400 . S
C1767 C1772 1.490 . S
C1768 H1758 0.930 . S
C1768 C1767 1.400 . S
C1768 C1771 1.386 . S
H1769 C1785 0.930 . S
H1770 C1786 0.931 . S
C1771 H1759 0.929 . S
C1771 C1765 1.390 . S
C1771 C1768 1.386 . S
C1772 C1767 1.490 . S
C1772 C1774 1.395 . S
C1772 C1775 1.403 . S
H1773 C1779 0.930 . S
C1774 H1760 0.930 . S
C1774 C1772 1.395 . S
C1774 C1777 1.403 . S
C1775 C1772 1.403 . S
C1775 C1776 1.524 . S
C1775 C1779 1.400 . S
C1776 H1761 0.960 . S
C1776 H1762 0.960 . S
C1776 H1763 0.960 . S
C1776 C1775 1.524 . S
C1777 C1774 1.403 . S
C1777 C1778 1.392 . S
C1777 C1781 1.495 . S
C1778 C1777 1.392 . S
C1778 C1779 1.385 . S
C1778 C1780 1.478 . S
C1779 H1773 0.930 . S
C1779 C1775 1.400 . S
C1779 C1778 1.385 . S
C1780 C1778 1.478 . S
C1780 C1782 1.381 . S
C1780 C1786 1.383 . S
C1781 C1777 1.495 . S
C1781 H1787 0.959 . S
C1781 H1788 0.961 . S
C1781 H1789 0.960 . S
C1782 C1780 1.381 . S
C1782 C1783 1.394 . S
C1782 H1790 0.930 . S
C1783 C1782 1.394 . S
C1783 C1784 1.383 . S
C1783 H1791 0.929 . S
C1784 C1783 1.383 . S
C1784 C1785 1.377 . S
C1785 H1769 0.930 . S
C1785 C1784 1.377 . S
C1785 C1786 1.379 . S
C1786 H1770 0.931 . S
C1786 C1780 1.383 . S
C1786 C1785 1.379 . S
H1787 C1781 0.959 . S
H1788 C1781 0.961 . S
H1789 C1781 0.960 . S
H1790 C1782 0.930 . S
H1791 C1783 0.929 . S
H1792 C1800 0.929 . S
H1793 C1802 0.930 . S
H1794 C1804 0.930 . S
H1795 C1807 0.929 . S
H1796 C1810 0.930 . S
H1797 C1812 0.960 . S
H1798 C1812 0.960 . S
H1799 C1812 0.960 . S
C1800 H1792 0.929 . S
C1800 C1801 1.377 . S
C1800 C1802 1.384 . S
C1801 C1800 1.377 . S
C1801 C1807 1.390 . S
C1802 H1793 0.930 . S
C1802 C1800 1.384 . S
C1802 C1803 1.372 . S
C1803 C1802 1.372 . S
C1803 C1804 1.400 . S
C1803 C1808 1.490 . S
C1804 H1794 0.930 . S
C1804 C1803 1.400 . S
C1804 C1807 1.386 . S
H1805 C1821 0.930 . S
H1806 C1822 0.931 . S
C1807 H1795 0.929 . S
C1807 C1801 1.390 . S
C1807 C1804 1.386 . S
C1808 C1803 1.490 . S
C1808 C1810 1.395 . S
C1808 C1811 1.403 . S
H1809 C1815 0.930 . S
C1810 H1796 0.930 . S
C1810 C1808 1.395 . S
C1810 C1813 1.403 . S
C1811 C1808 1.403 . S
C1811 C1812 1.524 . S
C1811 C1815 1.400 . S
C1812 H1797 0.960 . S
C1812 H1798 0.960 . S
C1812 H1799 0.960 . S
C1812 C1811 1.524 . S
C1813 C1810 1.403 . S
C1813 C1814 1.392 . S
C1813 C1817 1.495 . S
C1814 C1813 1.392 . S
C1814 C1815 1.385 . S
C1814 C1816 1.478 . S
C1815 H1809 0.930 . S
C1815 C1811 1.400 . S
C1815 C1814 1.385 . S
C1816 C1814 1.478 . S
C1816 C1818 1.381 . S
C1816 C1822 1.383 . S
C1817 C1813 1.495 . S
C1817 H1823 0.959 . S
C1817 H1824 0.961 . S
C1817 H1825 0.960 . S
C1818 C1816 1.381 . S
C1818 C1819 1.394 . S
C1818 H1826 0.930 . S
C1819 C1818 1.394 . S
C1819 C1820 1.383 . S
C1819 H1827 0.929 . S
C1820 C1819 1.383 . S
C1820 C1821 1.377 . S
C1821 H1805 0.930 . S
C1821 C1820 1.377 . S
C1821 C1822 1.379 . S
C1822 H1806 0.931 . S
C1822 C1816 1.383 . S
C1822 C1821 1.379 . S
H1823 C1817 0.959 . S
H1824 C1817 0.961 . S
H1825 C1817 0.960 . S
H1826 C1818 0.930 . S
H1827 C1819 0.929 . S
H1828 C1836 0.929 . S
H1829 C1838 0.930 . S
H1830 C1840 0.930 . S
H1831 C1843 0.929 . S
H1832 C1846 0.930 . S
H1833 C1848 0.960 . S
H1834 C1848 0.960 . S
H1835 C1848 0.960 . S
C1836 H1828 0.929 . S
C1836 C1837 1.377 . S
C1836 C1838 1.384 . S
C1837 C1836 1.377 . S
C1837 C1843 1.390 . S
C1838 H1829 0.930 . S
C1838 C1836 1.384 . S
C1838 C1839 1.372 . S
C1839 C1838 1.372 . S
C1839 C1840 1.400 . S
C1839 C1844 1.490 . S
C1840 H1830 0.930 . S
C1840 C1839 1.400 . S
C1840 C1843 1.386 . S
H1841 C1857 0.930 . S
H1842 C1858 0.931 . S
C1843 H1831 0.929 . S
C1843 C1837 1.390 . S
C1843 C1840 1.386 . S
C1844 C1839 1.490 . S
C1844 C1846 1.395 . S
C1844 C1847 1.403 . S
H1845 C1851 0.930 . S
C1846 H1832 0.930 . S
C1846 C1844 1.395 . S
C1846 C1849 1.403 . S
C1847 C1844 1.403 . S
C1847 C1848 1.524 . S
C1847 C1851 1.400 . S
C1848 H1833 0.960 . S
C1848 H1834 0.960 . S
C1848 H1835 0.960 . S
C1848 C1847 1.524 . S
C1849 C1846 1.403 . S
C1849 C1850 1.392 . S
C1849 C1853 1.495 . S
C1850 C1849 1.392 . S
C1850 C1851 1.385 . S
C1850 C1852 1.478 . S
C1851 H1845 0.930 . S
C1851 C1847 1.400 . S
C1851 C1850 1.385 . S
C1852 C1850 1.478 . S
C1852 C1854 1.381 . S
C1852 C1858 1.383 . S
C1853 C1849 1.495 . S
C1853 H1859 0.959 . S
C1853 H1860 0.961 . S
C1853 H1861 0.960 . S
C1854 C1852 1.381 . S
C1854 C1855 1.394 . S
C1854 H1862 0.930 . S
C1855 C1854 1.394 . S
C1855 C1856 1.383 . S
C1855 H1863 0.929 . S
C1856 C1855 1.383 . S
C1856 C1857 1.377 . S
C1857 H1841 0.930 . S
C1857 C1856 1.377 . S
C1857 C1858 1.379 . S
C1858 H1842 0.931 . S
C1858 C1852 1.383 . S
C1858 C1857 1.379 . S
H1859 C1853 0.959 . S
H1860 C1853 0.961 . S
H1861 C1853 0.960 . S
H1862 C1854 0.930 . S
H1863 C1855 0.929 . S
H1864 C1872 0.929 . S
H1865 C1874 0.930 . S
H1866 C1876 0.930 . S
H1867 C1879 0.929 . S
H1868 C1882 0.930 . S
H1869 C1884 0.960 . S
H1870 C1884 0.960 . S
H1871 C1884 0.960 . S
C1872 H1864 0.929 . S
C1872 C1873 1.377 . S
C1872 C1874 1.384 . S
C1873 C1872 1.377 . S
C1873 C1879 1.390 . S
C1874 H1865 0.930 . S
C1874 C1872 1.384 . S
C1874 C1875 1.372 . S
C1875 C1874 1.372 . S
C1875 C1876 1.400 . S
C1875 C1880 1.490 . S
C1876 H1866 0.930 . S
C1876 C1875 1.400 . S
C1876 C1879 1.386 . S
H1877 C1893 0.930 . S
H1878 C1894 0.931 . S
C1879 H1867 0.929 . S
C1879 C1873 1.390 . S
C1879 C1876 1.386 . S
C1880 C1875 1.490 . S
C1880 C1882 1.395 . S
C1880 C1883 1.403 . S
H1881 C1887 0.930 . S
C1882 H1868 0.930 . S
C1882 C1880 1.395 . S
C1882 C1885 1.403 . S
C1883 C1880 1.403 . S
C1883 C1884 1.524 . S
C1883 C1887 1.400 . S
C1884 H1869 0.960 . S
C1884 H1870 0.960 . S
C1884 H1871 0.960 . S
C1884 C1883 1.524 . S
C1885 C1882 1.403 . S
C1885 C1886 1.392 . S
C1885 C1889 1.495 . S
C1886 C1885 1.392 . S
C1886 C1887 1.385 . S
C1886 C1888 1.478 . S
C1887 H1881 0.930 . S
C1887 C1883 1.400 . S
C1887 C1886 1.385 . S
C1888 C1886 1.478 . S
C1888 C1890 1.381 . S
C1888 C1894 1.383 . S
C1889 C1885 1.495 . S
C1889 H1895 0.959 . S
C1889 H1896 0.961 . S
C1889 H1897 0.960 . S
C1890 C1888 1.381 . S
C1890 C1891 1.394 . S
C1890 H1898 0.930 . S
C1891 C1890 1.394 . S
C1891 C1892 1.383 . S
C1891 H1899 0.929 . S
C1892 C1891 1.383 . S
C1892 C1893 1.377 . S
C1893 H1877 0.930 . S
C1893 C1892 1.377 . S
C1893 C1894 1.379 . S
C1894 H1878 0.931 . S
C1894 C1888 1.383 . S
C1894 C1893 1.379 . S
H1895 C1889 0.959 . S
H1896 C1889 0.961 . S
H1897 C1889 0.960 . S
H1898 C1890 0.930 . S
H1899 C1891 0.929 . S
H1900 C1908 0.929 . S
H1901 C1910 0.930 . S
H1902 C1912 0.930 . S
H1903 C1915 0.929 . S
H1904 C1918 0.930 . S
H1905 C1920 0.960 . S
H1906 C1920 0.960 . S
H1907 C1920 0.960 . S
C1908 H1900 0.929 . S
C1908 C1909 1.377 . S
C1908 C1910 1.384 . S
C1909 C1908 1.377 . S
C1909 C1915 1.390 . S
C1910 H1901 0.930 . S
C1910 C1908 1.384 . S
C1910 C1911 1.372 . S
C1911 C1910 1.372 . S
C1911 C1912 1.400 . S
C1911 C1916 1.490 . S
C1912 H1902 0.930 . S
C1912 C1911 1.400 . S
C1912 C1915 1.386 . S
H1913 C1929 0.930 . S
H1914 C1930 0.931 . S
C1915 H1903 0.929 . S
C1915 C1909 1.390 . S
C1915 C1912 1.386 . S
C1916 C1911 1.490 . S
C1916 C1918 1.395 . S
C1916 C1919 1.403 . S
H1917 C1923 0.930 . S
C1918 H1904 0.930 . S
C1918 C1916 1.395 . S
C1918 C1921 1.403 . S
C1919 C1916 1.403 . S
C1919 C1920 1.524 . S
C1919 C1923 1.400 . S
C1920 H1905 0.960 . S
C1920 H1906 0.960 . S
C1920 H1907 0.960 . S
C1920 C1919 1.524 . S
C1921 C1918 1.403 . S
C1921 C1922 1.392 . S
C1921 C1925 1.495 . S
C1922 C1921 1.392 . S
C1922 C1923 1.385 . S
C1922 C1924 1.478 . S
C1923 H1917 0.930 . S
C1923 C1919 1.400 . S
C1923 C1922 1.385 . S
C1924 C1922 1.478 . S
C1924 C1926 1.381 . S
C1924 C1930 1.383 . S
C1925 C1921 1.495 . S
C1925 H1931 0.959 . S
C1925 H1932 0.961 . S
C1925 H1933 0.960 . S
C1926 C1924 1.381 . S
C1926 C1927 1.394 . S
C1926 H1934 0.930 . S
C1927 C1926 1.394 . S
C1927 C1928 1.383 . S
C1927 H1935 0.929 . S
C1928 C1927 1.383 . S
C1928 C1929 1.377 . S
C1929 H1913 0.930 . S
C1929 C1928 1.377 . S
C1929 C1930 1.379 . S
C1930 H1914 0.931 . S
C1930 C1924 1.383 . S
C1930 C1929 1.379 . S
H1931 C1925 0.959 . S
H1932 C1925 0.961 . S
H1933 C1925 0.960 . S
H1934 C1926 0.930 . S
H1935 C1927 0.929 . S
H1936 C1944 0.929 . S
H1937 C1946 0.930 . S
H1938 C1948 0.930 . S
H1939 C1951 0.929 . S
H1940 C1954 0.930 . S
H1941 C1956 0.960 . S
H1942 C1956 0.960 . S
H1943 C1956 0.960 . S
C1944 H1936 0.929 . S
C1944 C1945 1.377 . S
C1944 C1946 1.384 . S
C1945 C1944 1.377 . S
C1945 C1951 1.390 . S
C1946 H1937 0.930 . S
C1946 C1944 1.384 . S
C1946 C1947 1.372 . S
C1947 C1946 1.372 . S
C1947 C1948 1.400 . S
C1947 C1952 1.490 . S
C1948 H1938 0.930 . S
C1948 C1947 1.400 . S
C1948 C1951 1.386 . S
H1949 C1965 0.930 . S
H1950 C1966 0.931 . S
C1951 H1939 0.929 . S
C1951 C1945 1.390 . S
C1951 C1948 1.386 . S
C1952 C1947 1.490 . S
C1952 C1954 1.395 . S
C1952 C1955 1.403 . S
H1953 C1959 0.930 . S
C1954 H1940 0.930 . S
C1954 C1952 1.395 . S
C1954 C1957 1.403 . S
C1955 C1952 1.403 . S
C1955 C1956 1.524 . S
C1955 C1959 1.400 . S
C1956 H1941 0.960 . S
C1956 H1942 0.960 . S
C1956 H1943 0.960 . S
C1956 C1955 1.524 . S
C1957 C1954 1.403 . S
C1957 C1958 1.392 . S
C1957 C1961 1.495 . S
C1958 C1957 1.392 . S
C1958 C1959 1.385 . S
C1958 C1960 1.478 . S
C1959 H1953 0.930 . S
C1959 C1955 1.400 . S
C1959 C1958 1.385 . S
C1960 C1958 1.478 . S
C1960 C1962 1.381 . S
C1960 C1966 1.383 . S
C1961 C1957 1.495 . S
C1961 H1967 0.959 . S
C1961 H1968 0.961 . S
C1961 H1969 0.960 . S
C1962 C1960 1.381 . S
C1962 C1963 1.394 . S
C1962 H1970 0.930 . S
C1963 C1962 1.394 . S
C1963 C1964 1.383 . S
C1963 H1971 0.929 . S
C1964 C1963 1.383 . S
C1964 C1965 1.377 . S
C1965 H1949 0.930 . S
C1965 C1964 1.377 . S
C1965 C1966 1.379 . S
C1966 H1950 0.931 . S
C1966 C1960 1.383 . S
C1966 C1965 1.379 . S
H1967 C1961 0.959 . S
H1968 C1961 0.961 . S
H1969 C1961 0.960 . S
H1970 C1962 0.930 . S
H1971 C1963 0.929 . S
H1972 C1980 0.929 . S
H1973 C1982 0.930 . S
H1974 C1984 0.930 . S
H1975 C1987 0.929 . S
H1976 C1990 0.930 . S
H1977 C1992 0.960 . S
H1978 C1992 0.960 . S
H1979 C1992 0.960 . S
C1980 H1972 0.929 . S
C1980 C1981 1.377 . S
C1980 C1982 1.384 . S
C1981 C1980 1.377 . S
C1981 C1987 1.390 . S
C1982 H1973 0.930 . S
C1982 C1980 1.384 . S
C1982 C1983 1.372 . S
C1983 C1982 1.372 . S
C1983 C1984 1.400 . S
C1983 C1988 1.490 . S
C1984 H1974 0.930 . S
C1984 C1983 1.400 . S
C1984 C1987 1.386 . S
H1985 C2001 0.930 . S
H1986 C2002 0.931 . S
C1987 H1975 0.929 . S
C1987 C1981 1.390 . S
C1987 C1984 1.386 . S
C1988 C1983 1.490 . S
C1988 C1990 1.395 . S
C1988 C1991 1.403 . S
H1989 C1995 0.930 . S
C1990 H1976 0.930 . S
C1990 C1988 1.395 . S
C1990 C1993 1.403 . S
C1991 C1988 1.403 . S
C1991 C1992 1.524 . S
C1991 C1995 1.400 . S
C1992 H1977 0.960 . S
C1992 H1978 0.960 . S
C1992 H1979 0.960 . S
C1992 C1991 1.524 . S
C1993 C1990 1.403 . S
C1993 C1994 1.392 . S
C1993 C1997 1.495 . S
C1994 C1993 1.392 . S
C1994 C1995 1.385 . S
C1994 C1996 1.478 . S
C1995 H1989 0.930 . S
C1995 C1991 1.400 . S
C1995 C1994 1.385 . S
C1996 C1994 1.478 . S
C1996 C1998 1.375 1_554 S
C1996 C2002 1.383 . S
C1997 C1993 1.495 . S
C1997 H2003 0.959 . S
C1997 H2004 0.961 . S
C1997 H2005 0.960 . S
C1998 C1996 1.375 1_556 S
C1998 C1999 1.396 . S
C1998 H2006 0.934 . S
C1999 C1998 1.396 . S
C1999 C2000 1.383 1_556 S
C1999 H2007 0.929 . S
C2000 C1999 1.383 1_554 S
C2000 C2001 1.377 . S
C2001 H1985 0.930 . S
C2001 C2000 1.377 . S
C2001 C2002 1.379 . S
C2002 H1986 0.931 . S
C2002 C1996 1.383 . S
C2002 C2001 1.379 . S
H2003 C1997 0.959 . S
H2004 C1997 0.961 . S
H2005 C1997 0.960 . S
H2006 C1998 0.934 . S
H2007 C1999 0.929 . S
H2008 C2016 0.929 . S
H2009 C2018 0.930 . S
H2010 C2020 0.930 . S
H2011 C2023 0.929 . S
H2012 C2026 0.930 . S
H2013 C2028 0.960 . S
H2014 C2028 0.960 . S
H2015 C2028 0.960 . S
C2016 H2008 0.929 . S
C2016 C2017 1.377 . S
C2016 C2018 1.384 . S
C2017 C2016 1.377 . S
C2017 C2023 1.390 . S
C2018 H2009 0.930 . S
C2018 C2016 1.384 . S
C2018 C2019 1.372 . S
C2019 C2018 1.372 . S
C2019 C2020 1.400 . S
C2019 C2024 1.490 . S
C2020 H2010 0.930 . S
C2020 C2019 1.400 . S
C2020 C2023 1.386 . S
H2021 C2037 0.930 . S
H2022 C2038 0.931 . S
C2023 H2011 0.929 . S
C2023 C2017 1.390 . S
C2023 C2020 1.386 . S
C2024 C2019 1.490 . S
C2024 C2026 1.395 . S
C2024 C2027 1.403 . S
H2025 C2031 0.930 . S
C2026 H2012 0.930 . S
C2026 C2024 1.395 . S
C2026 C2029 1.403 . S
C2027 C2024 1.403 . S
C2027 C2028 1.524 . S
C2027 C2031 1.400 . S
C2028 H2013 0.960 . S
C2028 H2014 0.960 . S
C2028 H2015 0.960 . S
C2028 C2027 1.524 . S
C2029 C2026 1.403 . S
C2029 C2030 1.392 . S
C2029 C2033 1.495 . S
C2030 C2029 1.392 . S
C2030 C2031 1.385 . S
C2030 C2032 1.478 . S
C2031 H2025 0.930 . S
C2031 C2027 1.400 . S
C2031 C2030 1.385 . S
C2032 C2030 1.478 . S
C2032 C2034 1.381 . S
C2032 C2038 1.383 . S
C2033 C2029 1.495 . S
C2033 H2039 0.959 . S
C2033 H2040 0.961 . S
C2033 H2041 0.960 . S
C2034 C2032 1.381 . S
C2034 C2035 1.394 . S
C2034 H2042 0.930 . S
C2035 C2034 1.394 . S
C2035 C2036 1.383 . S
C2035 H2043 0.929 . S
C2036 C2035 1.383 . S
C2036 C2037 1.377 . S
C2037 H2021 0.930 . S
C2037 C2036 1.377 . S
C2037 C2038 1.379 . S
C2038 H2022 0.931 . S
C2038 C2032 1.383 . S
C2038 C2037 1.379 . S
H2039 C2033 0.959 . S
H2040 C2033 0.961 . S
H2041 C2033 0.960 . S
H2042 C2034 0.930 . S
H2043 C2035 0.929 . S
H2044 C2052 0.929 . S
H2045 C2054 0.930 . S
H2046 C2056 0.930 . S
H2047 C2059 0.929 . S
H2048 C2062 0.930 . S
H2049 C2064 0.960 . S
H2050 C2064 0.960 . S
H2051 C2064 0.960 . S
C2052 H2044 0.929 . S
C2052 C2053 1.377 . S
C2052 C2054 1.384 . S
C2053 C2052 1.377 . S
C2053 C2059 1.390 . S
C2054 H2045 0.930 . S
C2054 C2052 1.384 . S
C2054 C2055 1.372 . S
C2055 C2054 1.372 . S
C2055 C2056 1.400 . S
C2055 C2060 1.490 . S
C2056 H2046 0.930 . S
C2056 C2055 1.400 . S
C2056 C2059 1.386 . S
H2057 C2073 0.930 . S
H2058 C2074 0.931 . S
C2059 H2047 0.929 . S
C2059 C2053 1.390 . S
C2059 C2056 1.386 . S
C2060 C2055 1.490 . S
C2060 C2062 1.395 . S
C2060 C2063 1.403 . S
H2061 C2067 0.930 . S
C2062 H2048 0.930 . S
C2062 C2060 1.395 . S
C2062 C2065 1.403 . S
C2063 C2060 1.403 . S
C2063 C2064 1.524 . S
C2063 C2067 1.400 . S
C2064 H2049 0.960 . S
C2064 H2050 0.960 . S
C2064 H2051 0.960 . S
C2064 C2063 1.524 . S
C2065 C2062 1.403 . S
C2065 C2066 1.392 . S
C2065 C2069 1.495 . S
C2066 C2065 1.392 . S
C2066 C2067 1.385 . S
C2066 C2068 1.478 . S
C2067 H2061 0.930 . S
C2067 C2063 1.400 . S
C2067 C2066 1.385 . S
C2068 C2066 1.478 . S
C2068 C2070 1.381 . S
C2068 C2074 1.383 . S
C2069 C2065 1.495 . S
C2069 H2075 0.959 . S
C2069 H2076 0.961 . S
C2069 H2077 0.960 . S
C2070 C2068 1.381 . S
C2070 C2071 1.394 . S
C2070 H2078 0.930 . S
C2071 C2070 1.394 . S
C2071 C2072 1.383 . S
C2071 H2079 0.929 . S
C2072 C2071 1.383 . S
C2072 C2073 1.377 . S
C2073 H2057 0.930 . S
C2073 C2072 1.377 . S
C2073 C2074 1.379 . S
C2074 H2058 0.931 . S
C2074 C2068 1.383 . S
C2074 C2073 1.379 . S
H2075 C2069 0.959 . S
H2076 C2069 0.961 . S
H2077 C2069 0.960 . S
H2078 C2070 0.930 . S
H2079 C2071 0.929 . S
H2080 C2088 0.929 . S
H2081 C2090 0.930 . S
H2082 C2092 0.930 . S
H2083 C2095 0.929 . S
H2084 C2098 0.930 . S
H2085 C2100 0.960 . S
H2086 C2100 0.960 . S
H2087 C2100 0.960 . S
C2088 H2080 0.929 . S
C2088 C2089 1.377 . S
C2088 C2090 1.384 . S
C2089 C2088 1.377 . S
C2089 C2095 1.390 . S
C2090 H2081 0.930 . S
C2090 C2088 1.384 . S
C2090 C2091 1.372 . S
C2091 C2090 1.372 . S
C2091 C2092 1.400 . S
C2091 C2096 1.490 . S
C2092 H2082 0.930 . S
C2092 C2091 1.400 . S
C2092 C2095 1.386 . S
H2093 C2109 0.930 . S
H2094 C2110 0.931 . S
C2095 H2083 0.929 . S
C2095 C2089 1.390 . S
C2095 C2092 1.386 . S
C2096 C2091 1.490 . S
C2096 C2098 1.395 . S
C2096 C2099 1.403 . S
H2097 C2103 0.930 . S
C2098 H2084 0.930 . S
C2098 C2096 1.395 . S
C2098 C2101 1.403 . S
C2099 C2096 1.403 . S
C2099 C2100 1.524 . S
C2099 C2103 1.400 . S
C2100 H2085 0.960 . S
C2100 H2086 0.960 . S
C2100 H2087 0.960 . S
C2100 C2099 1.524 . S
C2101 C2098 1.403 . S
C2101 C2102 1.392 . S
C2101 C2105 1.495 . S
C2102 C2101 1.392 . S
C2102 C2103 1.385 . S
C2102 C2104 1.478 . S
C2103 H2097 0.930 . S
C2103 C2099 1.400 . S
C2103 C2102 1.385 . S
C2104 C2102 1.478 . S
C2104 C2106 1.381 . S
C2104 C2110 1.383 . S
C2105 C2101 1.495 . S
C2105 H2111 0.959 . S
C2105 H2112 0.961 . S
C2105 H2113 0.960 . S
C2106 C2104 1.381 . S
C2106 C2107 1.394 . S
C2106 H2114 0.930 . S
C2107 C2106 1.394 . S
C2107 C2108 1.383 . S
C2107 H2115 0.929 . S
C2108 C2107 1.383 . S
C2108 C2109 1.377 . S
C2109 H2093 0.930 . S
C2109 C2108 1.377 . S
C2109 C2110 1.379 . S
C2110 H2094 0.931 . S
C2110 C2104 1.383 . S
C2110 C2109 1.379 . S
H2111 C2105 0.959 . S
H2112 C2105 0.961 . S
H2113 C2105 0.960 . S
H2114 C2106 0.930 . S
H2115 C2107 0.929 . S
H2116 C2124 0.929 . S
H2117 C2126 0.930 . S
H2118 C2128 0.930 . S
H2119 C2131 0.929 . S
H2120 C2134 0.930 . S
H2121 C2136 0.960 . S
H2122 C2136 0.960 . S
H2123 C2136 0.960 . S
C2124 H2116 0.929 . S
C2124 C2125 1.377 . S
C2124 C2126 1.384 . S
C2125 C2124 1.377 . S
C2125 C2131 1.390 . S
C2126 H2117 0.930 . S
C2126 C2124 1.384 . S
C2126 C2127 1.372 . S
C2127 C2126 1.372 . S
C2127 C2128 1.400 . S
C2127 C2132 1.490 . S
C2128 H2118 0.930 . S
C2128 C2127 1.400 . S
C2128 C2131 1.386 . S
H2129 C2145 0.930 . S
H2130 C2146 0.931 . S
C2131 H2119 0.929 . S
C2131 C2125 1.390 . S
C2131 C2128 1.386 . S
C2132 C2127 1.490 . S
C2132 C2134 1.395 . S
C2132 C2135 1.403 . S
H2133 C2139 0.930 . S
C2134 H2120 0.930 . S
C2134 C2132 1.395 . S
C2134 C2137 1.403 . S
C2135 C2132 1.403 . S
C2135 C2136 1.524 . S
C2135 C2139 1.400 . S
C2136 H2121 0.960 . S
C2136 H2122 0.960 . S
C2136 H2123 0.960 . S
C2136 C2135 1.524 . S
C2137 C2134 1.403 . S
C2137 C2138 1.392 . S
C2137 C2141 1.495 . S
C2138 C2137 1.392 . S
C2138 C2139 1.385 . S
C2138 C2140 1.478 . S
C2139 H2133 0.930 . S
C2139 C2135 1.400 . S
C2139 C2138 1.385 . S
C2140 C2138 1.478 . S
C2140 C2142 1.381 . S
C2140 C2146 1.383 . S
C2141 C2137 1.495 . S
C2141 H2147 0.959 . S
C2141 H2148 0.961 . S
C2141 H2149 0.960 . S
C2142 C2140 1.381 . S
C2142 C2143 1.394 . S
C2142 H2150 0.930 . S
C2143 C2142 1.394 . S
C2143 C2144 1.383 . S
C2143 H2151 0.929 . S
C2144 C2143 1.383 . S
C2144 C2145 1.377 . S
C2145 H2129 0.930 . S
C2145 C2144 1.377 . S
C2145 C2146 1.379 . S
C2146 H2130 0.931 . S
C2146 C2140 1.383 . S
C2146 C2145 1.379 . S
H2147 C2141 0.959 . S
H2148 C2141 0.961 . S
H2149 C2141 0.960 . S
H2150 C2142 0.930 . S
H2151 C2143 0.929 . S
H2152 C2160 0.929 . S
H2153 C2162 0.930 . S
H2154 C2164 0.930 . S
H2155 C2167 0.929 . S
H2156 C2170 0.930 . S
H2157 C2172 0.960 . S
H2158 C2172 0.960 . S
H2159 C2172 0.960 . S
C2160 H2152 0.929 . S
C2160 C2161 1.377 . S
C2160 C2162 1.384 . S
C2161 C2160 1.377 . S
C2161 C2167 1.390 . S
C2162 H2153 0.930 . S
C2162 C2160 1.384 . S
C2162 C2163 1.372 . S
C2163 C2162 1.372 . S
C2163 C2164 1.400 . S
C2163 C2168 1.490 . S
C2164 H2154 0.930 . S
C2164 C2163 1.400 . S
C2164 C2167 1.386 . S
H2165 C2181 0.930 . S
H2166 C2182 0.931 . S
C2167 H2155 0.929 . S
C2167 C2161 1.390 . S
C2167 C2164 1.386 . S
C2168 C2163 1.490 . S
C2168 C2170 1.395 . S
C2168 C2171 1.403 . S
H2169 C2175 0.930 . S
C2170 H2156 0.930 . S
C2170 C2168 1.395 . S
C2170 C2173 1.403 . S
C2171 C2168 1.403 . S
C2171 C2172 1.524 1_556 S
C2171 C2175 1.400 . S
C2172 H2157 0.960 . S
C2172 H2158 0.960 . S
C2172 H2159 0.960 . S
C2172 C2171 1.524 1_554 S
C2173 C2170 1.403 . S
C2173 C2174 1.392 . S
C2173 C2177 1.495 . S
C2174 C2173 1.392 . S
C2174 C2175 1.385 . S
C2174 C2176 1.478 . S
C2175 H2169 0.930 . S
C2175 C2171 1.400 . S
C2175 C2174 1.385 . S
C2176 C2174 1.478 . S
C2176 C2178 1.381 . S
C2176 C2182 1.383 . S
C2177 C2173 1.495 . S
C2177 H2183 0.959 . S
C2177 H2184 0.961 . S
C2177 H2185 0.960 . S
C2178 C2176 1.381 . S
C2178 C2179 1.394 . S
C2178 H2186 0.930 . S
C2179 C2178 1.394 . S
C2179 C2180 1.383 . S
C2179 H2187 0.929 . S
C2180 C2179 1.383 . S
C2180 C2181 1.377 . S
C2181 H2165 0.930 . S
C2181 C2180 1.377 . S
C2181 C2182 1.379 . S
C2182 H2166 0.931 . S
C2182 C2176 1.383 . S
C2182 C2181 1.379 . S
H2183 C2177 0.959 . S
H2184 C2177 0.961 . S
H2185 C2177 0.960 . S
H2186 C2178 0.930 . S
H2187 C2179 0.929 . S
H2188 C2196 0.929 . S
H2189 C2198 0.930 . S
H2190 C2200 0.930 . S
H2191 C2203 0.929 . S
H2192 C2206 0.930 . S
H2193 C2208 0.960 . S
H2194 C2208 0.960 . S
H2195 C2208 0.960 . S
C2196 H2188 0.929 . S
C2196 C2197 1.377 . S
C2196 C2198 1.384 . S
C2197 C2196 1.377 . S
C2197 C2203 1.390 . S
C2198 H2189 0.930 . S
C2198 C2196 1.384 . S
C2198 C2199 1.372 . S
C2199 C2198 1.372 . S
C2199 C2200 1.400 . S
C2199 C2204 1.490 . S
C2200 H2190 0.930 . S
C2200 C2199 1.400 . S
C2200 C2203 1.386 . S
H2201 C2217 0.930 . S
H2202 C2218 0.931 . S
C2203 H2191 0.929 . S
C2203 C2197 1.390 . S
C2203 C2200 1.386 . S
C2204 C2199 1.490 . S
C2204 C2206 1.395 . S
C2204 C2207 1.403 . S
H2205 C2211 0.930 . S
C2206 H2192 0.930 . S
C2206 C2204 1.395 . S
C2206 C2209 1.403 . S
C2207 C2204 1.403 . S
C2207 C2208 1.524 . S
C2207 C2211 1.400 . S
C2208 H2193 0.960 . S
C2208 H2194 0.960 . S
C2208 H2195 0.960 . S
C2208 C2207 1.524 . S
C2209 C2206 1.403 . S
C2209 C2210 1.392 . S
C2209 C2213 1.495 . S
C2210 C2209 1.392 . S
C2210 C2211 1.385 . S
C2210 C2212 1.478 . S
C2211 H2205 0.930 . S
C2211 C2207 1.400 . S
C2211 C2210 1.385 . S
C2212 C2210 1.478 . S
C2212 C2214 1.381 . S
C2212 C2218 1.383 . S
C2213 C2209 1.495 . S
C2213 H2219 0.959 . S
C2213 H2220 0.961 . S
C2213 H2221 0.960 . S
C2214 C2212 1.381 . S
C2214 C2215 1.394 . S
C2214 H2222 0.930 . S
C2215 C2214 1.394 . S
C2215 C2216 1.383 . S
C2215 H2223 0.929 . S
C2216 C2215 1.383 . S
C2216 C2217 1.377 . S
C2217 H2201 0.930 . S
C2217 C2216 1.377 . S
C2217 C2218 1.379 . S
C2218 H2202 0.931 . S
C2218 C2212 1.383 . S
C2218 C2217 1.379 . S
H2219 C2213 0.959 . S
H2220 C2213 0.961 . S
H2221 C2213 0.960 . S
H2222 C2214 0.930 . S
H2223 C2215 0.929 . S
H2224 C2232 0.929 . S
H2225 C2234 0.930 . S
H2226 C2236 0.930 . S
H2227 C2239 0.929 . S
H2228 C2242 0.930 . S
H2229 C2244 0.960 . S
H2230 C2244 0.960 . S
H2231 C2244 0.960 . S
C2232 H2224 0.929 . S
C2232 C2233 1.377 . S
C2232 C2234 1.384 . S
C2233 C2232 1.377 . S
C2233 C2239 1.390 . S
C2234 H2225 0.930 . S
C2234 C2232 1.384 . S
C2234 C2235 1.372 . S
C2235 C2234 1.372 . S
C2235 C2236 1.400 . S
C2235 C2240 1.490 . S
C2236 H2226 0.930 . S
C2236 C2235 1.400 . S
C2236 C2239 1.386 . S
H2237 C2253 0.930 . S
H2238 C2254 0.931 . S
C2239 H2227 0.929 . S
C2239 C2233 1.390 . S
C2239 C2236 1.386 . S
C2240 C2235 1.490 . S
C2240 C2242 1.395 . S
C2240 C2243 1.403 . S
H2241 C2247 0.930 . S
C2242 H2228 0.930 . S
C2242 C2240 1.395 . S
C2242 C2245 1.403 . S
C2243 C2240 1.403 . S
C2243 C2244 1.524 . S
C2243 C2247 1.400 . S
C2244 H2229 0.960 . S
C2244 H2230 0.960 . S
C2244 H2231 0.960 . S
C2244 C2243 1.524 . S
C2245 C2242 1.403 . S
C2245 C2246 1.392 . S
C2245 C2249 1.495 . S
C2246 C2245 1.392 . S
C2246 C2247 1.385 . S
C2246 C2248 1.478 . S
C2247 H2241 0.930 . S
C2247 C2243 1.400 . S
C2247 C2246 1.385 . S
C2248 C2246 1.478 . S
C2248 C2250 1.381 . S
C2248 C2254 1.383 . S
C2249 C2245 1.495 . S
C2249 H2255 0.959 . S
C2249 H2256 0.961 . S
C2249 H2257 0.960 . S
C2250 C2248 1.381 . S
C2250 C2251 1.394 . S
C2250 H2258 0.930 . S
C2251 C2250 1.394 . S
C2251 C2252 1.383 . S
C2251 H2259 0.929 . S
C2252 C2251 1.383 . S
C2252 C2253 1.377 . S
C2253 H2237 0.930 . S
C2253 C2252 1.377 . S
C2253 C2254 1.379 . S
C2254 H2238 0.931 . S
C2254 C2248 1.383 . S
C2254 C2253 1.379 . S
H2255 C2249 0.959 . S
H2256 C2249 0.961 . S
H2257 C2249 0.960 . S
H2258 C2250 0.930 . S
H2259 C2251 0.929 . S
H2260 C2268 0.929 . S
H2261 C2270 0.930 . S
H2262 C2272 0.930 . S
H2263 C2275 0.929 . S
H2264 C2278 0.930 . S
H2265 C2280 0.960 . S
H2266 C2280 0.960 . S
H2267 C2280 0.960 . S
C2268 H2260 0.929 . S
C2268 C2269 1.377 . S
C2268 C2270 1.384 . S
C2269 C2268 1.377 . S
C2269 C2275 1.390 . S
C2270 H2261 0.930 . S
C2270 C2268 1.384 . S
C2270 C2271 1.372 . S
C2271 C2270 1.372 . S
C2271 C2272 1.400 . S
C2271 C2276 1.490 . S
C2272 H2262 0.930 . S
C2272 C2271 1.400 . S
C2272 C2275 1.386 . S
H2273 C2289 0.930 . S
H2274 C2290 0.931 . S
C2275 H2263 0.929 . S
C2275 C2269 1.390 . S
C2275 C2272 1.386 . S
C2276 C2271 1.490 . S
C2276 C2278 1.395 . S
C2276 C2279 1.403 . S
H2277 C2283 0.930 . S
C2278 H2264 0.930 . S
C2278 C2276 1.395 . S
C2278 C2281 1.403 . S
C2279 C2276 1.403 . S
C2279 C2280 1.524 . S
C2279 C2283 1.400 . S
C2280 H2265 0.960 . S
C2280 H2266 0.960 . S
C2280 H2267 0.960 . S
C2280 C2279 1.524 . S
C2281 C2278 1.403 . S
C2281 C2282 1.392 . S
C2281 C2285 1.495 . S
C2282 C2281 1.392 . S
C2282 C2283 1.385 . S
C2282 C2284 1.478 . S
C2283 H2277 0.930 . S
C2283 C2279 1.400 . S
C2283 C2282 1.385 . S
C2284 C2282 1.478 . S
C2284 C2286 1.381 . S
C2284 C2290 1.383 . S
C2285 C2281 1.495 . S
C2285 H2291 0.959 . S
C2285 H2292 0.961 . S
C2285 H2293 0.960 . S
C2286 C2284 1.381 . S
C2286 C2287 1.394 . S
C2286 H2294 0.930 . S
C2287 C2286 1.394 . S
C2287 C2288 1.383 . S
C2287 H2295 0.929 . S
C2288 C2287 1.383 . S
C2288 C2289 1.377 . S
C2289 H2273 0.930 . S
C2289 C2288 1.377 . S
C2289 C2290 1.379 . S
C2290 H2274 0.931 . S
C2290 C2284 1.383 . S
C2290 C2289 1.379 . S
H2291 C2285 0.959 . S
H2292 C2285 0.961 . S
H2293 C2285 0.960 . S
H2294 C2286 0.930 . S
H2295 C2287 0.929 . S
H2296 C2304 0.929 . S
H2297 C2306 0.930 . S
H2298 C2308 0.930 . S
H2299 C2311 0.929 . S
H2300 C2314 0.930 . S
H2301 C2316 0.960 . S
H2302 C2316 0.960 . S
H2303 C2316 0.960 . S
C2304 H2296 0.929 . S
C2304 C2305 1.377 . S
C2304 C2306 1.384 . S
C2305 C2304 1.377 . S
C2305 C2311 1.390 . S
C2306 H2297 0.930 . S
C2306 C2304 1.384 . S
C2306 C2307 1.372 . S
C2307 C2306 1.372 . S
C2307 C2308 1.400 . S
C2307 C2312 1.490 . S
C2308 H2298 0.930 . S
C2308 C2307 1.400 . S
C2308 C2311 1.386 . S
H2309 C2325 0.930 . S
H2310 C2326 0.931 . S
C2311 H2299 0.929 . S
C2311 C2305 1.390 . S
C2311 C2308 1.386 . S
C2312 C2307 1.490 . S
C2312 C2314 1.395 . S
C2312 C2315 1.403 . S
H2313 C2319 0.930 . S
C2314 H2300 0.930 . S
C2314 C2312 1.395 . S
C2314 C2317 1.403 . S
C2315 C2312 1.403 . S
C2315 C2316 1.524 . S
C2315 C2319 1.400 . S
C2316 H2301 0.960 . S
C2316 H2302 0.960 . S
C2316 H2303 0.960 . S
C2316 C2315 1.524 . S
C2317 C2314 1.403 . S
C2317 C2318 1.392 . S
C2317 C2321 1.495 . S
C2318 C2317 1.392 . S
C2318 C2319 1.385 . S
C2318 C2320 1.478 . S
C2319 H2313 0.930 . S
C2319 C2315 1.400 . S
C2319 C2318 1.385 . S
C2320 C2318 1.478 . S
C2320 C2322 1.381 . S
C2320 C2326 1.383 . S
C2321 C2317 1.495 . S
C2321 H2327 0.959 . S
C2321 H2328 0.961 . S
C2321 H2329 0.960 . S
C2322 C2320 1.381 . S
C2322 C2323 1.394 . S
C2322 H2330 0.930 . S
C2323 C2322 1.394 . S
C2323 C2324 1.383 . S
C2323 H2331 0.929 . S
C2324 C2323 1.383 . S
C2324 C2325 1.377 . S
C2325 H2309 0.930 . S
C2325 C2324 1.377 . S
C2325 C2326 1.379 . S
C2326 H2310 0.931 . S
C2326 C2320 1.383 . S
C2326 C2325 1.379 . S
H2327 C2321 0.959 . S
H2328 C2321 0.961 . S
H2329 C2321 0.960 . S
H2330 C2322 0.930 . S
H2331 C2323 0.929 . S
H2332 C2340 0.929 . S
H2333 C2342 0.930 . S
H2334 C2344 0.930 . S
H2335 C2347 0.929 . S
H2336 C2350 0.930 . S
H2337 C2352 0.960 . S
H2338 C2352 0.960 . S
H2339 C2352 0.960 . S
C2340 H2332 0.929 . S
C2340 C2341 1.377 . S
C2340 C2342 1.384 . S
C2341 C2340 1.377 . S
C2341 C2347 1.390 . S
C2342 H2333 0.930 . S
C2342 C2340 1.384 . S
C2342 C2343 1.372 . S
C2343 C2342 1.372 . S
C2343 C2344 1.400 . S
C2343 C2348 1.490 . S
C2344 H2334 0.930 . S
C2344 C2343 1.400 . S
C2344 C2347 1.386 . S
H2345 C2361 0.930 . S
H2346 C2362 0.931 . S
C2347 H2335 0.929 . S
C2347 C2341 1.390 . S
C2347 C2344 1.386 . S
C2348 C2343 1.490 . S
C2348 C2350 1.395 . S
C2348 C2351 1.403 . S
H2349 C2355 0.930 . S
C2350 H2336 0.930 . S
C2350 C2348 1.395 . S
C2350 C2353 1.403 . S
C2351 C2348 1.403 . S
C2351 C2352 1.524 . S
C2351 C2355 1.400 . S
C2352 H2337 0.960 . S
C2352 H2338 0.960 . S
C2352 H2339 0.960 . S
C2352 C2351 1.524 . S
C2353 C2350 1.403 . S
C2353 C2354 1.392 . S
C2353 C2357 1.495 . S
C2354 C2353 1.392 . S
C2354 C2355 1.385 . S
C2354 C2356 1.478 . S
C2355 H2349 0.930 . S
C2355 C2351 1.400 . S
C2355 C2354 1.385 . S
C2356 C2354 1.478 . S
C2356 C2358 1.381 . S
C2356 C2362 1.383 . S
C2357 C2353 1.495 . S
C2357 H2363 0.959 . S
C2357 H2364 0.961 . S
C2357 H2365 0.960 . S
C2358 C2356 1.381 . S
C2358 C2359 1.394 . S
C2358 H2366 0.930 . S
C2359 C2358 1.394 . S
C2359 C2360 1.383 . S
C2359 H2367 0.929 . S
C2360 C2359 1.383 . S
C2360 C2361 1.377 . S
C2361 H2345 0.930 . S
C2361 C2360 1.377 . S
C2361 C2362 1.379 . S
C2362 H2346 0.931 . S
C2362 C2356 1.383 . S
C2362 C2361 1.379 . S
H2363 C2357 0.959 . S
H2364 C2357 0.961 . S
H2365 C2357 0.960 . S
H2366 C2358 0.930 . S
H2367 C2359 0.929 . S
C649 C9 0.987 . S
C668 C45 0.943 . S
C685 C88 1.300 . S
C704 C59 1.292 . S
C721 C138 1.855 . S
C740 C89 1.951 . S
C757 C8 0.515 . S
C776 C135 0.420 . S
C793 C18 0.545 . S
C812 C365 0.494 . S
C829 C299 0.994 . S
C848 C55 1.001 . S
C865 C98 1.292 . S
C884 C409 1.287 . S
C901 C128 1.844 . S
C920 C539 1.951 . S
C937 C338 1.299 . S
C956 C49 1.293 . S
C973 C488 1.851 . S
C992 C99 1.948 . S
C1009 C578 0.551 . S
C1028 C125 0.501 . S
C1045 C19 0.987 . S
C1064 C455 0.936 . S
C1081 C5 0.415 . S
C1100 C325 0.323 . S
C1117 C489 1.961 . S
C1136 C178 1.933 . S
C1153 C215 0.327 . S
C1172 C575 0.474 . S
C1189 C458 1.916 . S
C1208 C249 1.946 . S
C1225 C95 0.330 . S
C1244 C295 0.437 . S
C1261 C379 1.959 . S
C1280 C168 1.927 . S
C1297 C259 1.960 . S
C1316 C408 1.928 . S
C1333 C218 1.301 . S
C1352 C449 1.328 . S
C1369 C368 1.845 . S
C1388 C219 1.950 . S
C1405 C445 0.978 . S
C1424 C289 0.974 . S
C1441 C208 1.303 . S
C1460 C179 1.282 . S
C1477 C378 1.851 . S
C1496 C329 1.951 . S
C1513 C528 1.297 . S
C1532 C459 1.311 . S
C1549 C258 1.848 . S
C1568 C209 1.950 . S
C1585 C375 0.440 . S
C1604 C568 0.443 . S
C1621 C535 0.324 . S
C1640 C15 0.467 . S
C1657 C85 0.315 . S
C1676 C565 0.340 . S
C1693 C499 1.959 . S
C1712 C48 1.934 . S
C1729 C285 0.400 . S
C1748 C205 0.400 . S
C1765 C129 1.959 . S
C1784 C418 1.906 . S
C1801 C498 1.846 . S
C1820 C529 1.945 . S
C1837 C288 0.522 . S
C1856 C495 0.499 . S
C1873 C245 0.417 . S
C1892 C298 0.438 . S
C1909 C169 1.313 . S
C1928 C538 1.311 . S
C1945 C485 0.431 . S
C1964 C618 0.506 . S
C1981 C615 0.384 . S
C2000 C335 0.265 . S
C2017 C58 1.921 . S
C2036 C369 1.966 . S
C2053 C339 1.953 . S
C2072 C248 1.826 . S
C2089 C328 1.297 . S
C2108 C419 1.300 . S
C2125 C608 0.547 . S
C2144 C255 0.465 . S
C2161 C525 0.313 . S
C2180 C605 0.479 . S
C2197 C448 1.914 . S
C2216 C139 1.967 . S
C2233 C405 0.971 . S
C2252 C569 1.004 . S
C2269 C415 0.967 . S
C2288 C619 0.970 . S
C2305 C175 0.981 . S
C2324 C579 0.998 . S
C2341 C609 0.991 . S
C2360 C165 1.009 . S
