# Generated by pormake.
# Topology wjf, (4)-cn, num edge types: 1
# Building blocks:
#     Node 0, Type 0, BuildingBlock: CEKHIL_clean_sbu_0, # of connection points: 4
#     Node 1, Type 0, BuildingBlock: CEKHIL_clean_sbu_0, # of connection points: 4
#     Node 2, Type 0, BuildingBlock: CEKHIL_clean_sbu_0, # of connection points: 4
#     Node 3, Type 0, BuildingBlock: CEKHIL_clean_sbu_0, # of connection points: 4
#     Node 4, Type 0, BuildingBlock: CEKHIL_clean_sbu_0, # of connection points: 4
#     Node 5, Type 0, BuildingBlock: CEKHIL_clean_sbu_0, # of connection points: 4
#     Node 6, Type 0, BuildingBlock: CEKHIL_clean_sbu_0, # of connection points: 4
#     Node 7, Type 0, BuildingBlock: CEKHIL_clean_sbu_0, # of connection points: 4
#     Node 8, Type 0, BuildingBlock: CEKHIL_clean_sbu_0, # of connection points: 4
#     Node 9, Type 0, BuildingBlock: CEKHIL_clean_sbu_0, # of connection points: 4
#     Node 10, Type 0, BuildingBlock: CEKHIL_clean_sbu_0, # of connection points: 4
#     Node 11, Type 0, BuildingBlock: CEKHIL_clean_sbu_0, # of connection points: 4
#     Edge 12, Type (0, 0), BuildingBlock: XUDNAN_clean_linker_2, # of connection points: 2
#     Edge 13, Type (0, 0), BuildingBlock: XUDNAN_clean_linker_2, # of connection points: 2
#     Edge 14, Type (0, 0), BuildingBlock: XUDNAN_clean_linker_2, # of connection points: 2
#     Edge 15, Type (0, 0), BuildingBlock: XUDNAN_clean_linker_2, # of connection points: 2
#     Edge 16, Type (0, 0), BuildingBlock: XUDNAN_clean_linker_2, # of connection points: 2
#     Edge 17, Type (0, 0), BuildingBlock: XUDNAN_clean_linker_2, # of connection points: 2
#     Edge 18, Type (0, 0), BuildingBlock: XUDNAN_clean_linker_2, # of connection points: 2
#     Edge 19, Type (0, 0), BuildingBlock: XUDNAN_clean_linker_2, # of connection points: 2
#     Edge 20, Type (0, 0), BuildingBlock: XUDNAN_clean_linker_2, # of connection points: 2
#     Edge 21, Type (0, 0), BuildingBlock: XUDNAN_clean_linker_2, # of connection points: 2
#     Edge 22, Type (0, 0), BuildingBlock: XUDNAN_clean_linker_2, # of connection points: 2
#     Edge 23, Type (0, 0), BuildingBlock: XUDNAN_clean_linker_2, # of connection points: 2
#     Edge 24, Type (0, 0), BuildingBlock: XUDNAN_clean_linker_2, # of connection points: 2
#     Edge 25, Type (0, 0), BuildingBlock: XUDNAN_clean_linker_2, # of connection points: 2
#     Edge 26, Type (0, 0), BuildingBlock: XUDNAN_clean_linker_2, # of connection points: 2
#     Edge 27, Type (0, 0), BuildingBlock: XUDNAN_clean_linker_2, # of connection points: 2
#     Edge 28, Type (0, 0), BuildingBlock: XUDNAN_clean_linker_2, # of connection points: 2
#     Edge 29, Type (0, 0), BuildingBlock: XUDNAN_clean_linker_2, # of connection points: 2
#     Edge 30, Type (0, 0), BuildingBlock: XUDNAN_clean_linker_2, # of connection points: 2
#     Edge 31, Type (0, 0), BuildingBlock: XUDNAN_clean_linker_2, # of connection points: 2
#     Edge 32, Type (0, 0), BuildingBlock: XUDNAN_clean_linker_2, # of connection points: 2
#     Edge 33, Type (0, 0), BuildingBlock: XUDNAN_clean_linker_2, # of connection points: 2
#     Edge 34, Type (0, 0), BuildingBlock: XUDNAN_clean_linker_2, # of connection points: 2
#     Edge 35, Type (0, 0), BuildingBlock: XUDNAN_clean_linker_2, # of connection points: 2
# Relax obj value: 0.111
# Max RMSD: 0.133
# Mean RMSD: 0.133
data_MOF--net-wjf--node1-CEKHIL_clean_sbu_0--edge1-XUDNAN_clean_linker_2
_symmetry_space_group_name_H-M    P1
_symmetry_Int_Tables_number       1
_symmetry_cell_setting            triclinic
loop_
_symmetry_equiv_pos_as_xyz
'x, y, z'
_cell_length_a     50.423384
_cell_length_b     50.575497
_cell_length_c     26.998624
_cell_angle_alpha  90.000414
_cell_angle_beta   90.039577
_cell_angle_gamma 119.8705
loop_
_atom_site_label
_atom_site_type_symbol
_atom_site_fract_x
_atom_site_fract_y
_atom_site_fract_z
_atom_type_partial_charge
Co0 Co 0.33404 0.39021 0.07893 0.0
O1 O 0.29101 0.37723 0.07966 0.0
O2 O 0.32705 0.42157 0.05058 0.0
C3 C 0.33802 0.37677 0.15704 0.0
O4 O 0.38087 0.41163 0.07361 0.0
Co5 Co 0.35397 0.34144 0.0883 0.0
O6 O 0.39561 0.37735 0.0917 0.0
C7 C 0.33011 0.34838 0.99315 0.0
C8 C 0.29808 0.40291 0.05835 0.0
C9 C 0.40176 0.40442 0.08147 0.0
O10 O 0.32892 0.3713 0.0112 0.0
O11 O 0.33799 0.33206 0.0186 0.0
O12 O 0.3387 0.40237 0.14838 0.0
O13 O 0.33127 0.35866 0.11949 0.0
Co14 Co 0.944 0.33094 0.42602 0.0
O15 O 0.9168 0.28714 0.4228 0.0
O16 O 0.90778 0.3217 0.38876 0.0
C17 C 0.95432 0.33367 0.50746 0.0
O18 O 0.96485 0.37736 0.42156 0.0
Co19 Co 0.01249 0.36152 0.45484 0.0
O20 O 0.00949 0.39893 0.46275 0.0
C21 C 0.99285 0.33567 0.35465 0.0
C22 C 0.89853 0.29314 0.39734 0.0
C23 C 0.98822 0.40072 0.44045 0.0
O24 O 0.96532 0.32918 0.36441 0.0
O25 O 0.01488 0.34772 0.38584 0.0
O26 O 0.92913 0.33205 0.492 0.0
O27 O 0.97123 0.33111 0.47397 0.0
Co28 Co 0.61866 0.944 0.7533 0.0
O29 O 0.63719 0.91883 0.74206 0.0
O30 O 0.58778 0.90325 0.7358 0.0
C31 C 0.64302 0.96694 0.82377 0.0
O32 O 0.59039 0.96164 0.76308 0.0
Co33 Co 0.65549 0.01487 0.75243 0.0
O34 O 0.6164 0.01267 0.77111 0.0
C35 C 0.64383 0.98086 0.65917 0.0
C36 C 0.60969 0.8969 0.73204 0.0
C37 C 0.59145 0.98729 0.77089 0.0
O38 O 0.62498 0.95607 0.68152 0.0
O39 O 0.66013 0.00623 0.68156 0.0
O40 O 0.61969 0.93938 0.82496 0.0
O41 O 0.65271 0.97811 0.78022 0.0
Co42 Co 0.68146 0.61672 0.09309 0.0
O43 O 0.72516 0.64189 0.08927 0.0
O44 O 0.6989 0.59626 0.05497 0.0
C45 C 0.67704 0.62279 0.17477 0.0
O46 O 0.63611 0.58412 0.09053 0.0
Co47 Co 0.64208 0.64592 0.1226 0.0
O48 O 0.6079 0.60314 0.12281 0.0
C49 C 0.66843 0.65596 0.02246 0.0
C50 C 0.72528 0.62057 0.06277 0.0
C51 C 0.61028 0.58114 0.10463 0.0
O52 O 0.67705 0.63633 0.03099 0.0
O53 O 0.65655 0.66493 0.05565 0.0
O54 O 0.68407 0.60268 0.15941 0.0
O55 O 0.67605 0.64037 0.14113 0.0
Co56 Co 0.07571 0.68216 0.43101 0.0
O57 O 0.10231 0.72582 0.4351 0.0
O58 O 0.11269 0.69434 0.39329 0.0
C59 C 0.06425 0.67445 0.51223 0.0
O60 O 0.05528 0.63613 0.42011 0.0
Co61 Co 0.00687 0.6505 0.4568 0.0
O62 O 0.01109 0.61367 0.46259 0.0
C63 C 0.02749 0.67886 0.35858 0.0
C64 C 0.12117 0.72199 0.40745 0.0
C65 C 0.03228 0.61244 0.43902 0.0
O66 O 0.05515 0.68672 0.37038 0.0
O67 O 1.00474 0.66472 0.38795 0.0
O68 O 0.08975 0.67735 0.49559 0.0
O69 O 0.04781 0.67907 0.48031 0.0
Co70 Co 0.39261 0.06296 0.74687 0.0
O71 O 0.37683 0.09041 0.73912 0.0
O72 O 0.4254 0.10338 0.72931 0.0
C73 C 0.36856 0.04105 0.81805 0.0
O74 O 0.4172 0.04071 0.75368 0.0
Co75 Co 0.34743 0.99274 0.74382 0.0
O76 O 0.38358 0.99122 0.76851 0.0
C77 C 0.36287 0.02828 0.6519 0.0
C78 C 0.40451 0.11134 0.72826 0.0
C79 C 0.4109 0.01347 0.76588 0.0
O80 O 0.38396 0.05169 0.67467 0.0
O81 O 0.3443 0.00335 0.67364 0.0
O82 O 0.39358 0.06738 0.81891 0.0
O83 O 0.35733 0.03102 0.77469 0.0
Co84 Co 0.60877 0.67198 0.57802 0.0
O85 O 0.6281 0.71616 0.5812 0.0
O86 O 0.58037 0.68362 0.60283 0.0
C87 C 0.62431 0.6673 0.50196 0.0
O88 O 0.57982 0.62605 0.57902 0.0
Co89 Co 0.64509 0.63756 0.57347 0.0
O90 O 0.6046 0.59974 0.57078 0.0
C91 C 0.6434 0.66647 0.66652 0.0
C92 C 0.6022 0.71173 0.59904 0.0
C93 C 0.57998 0.60077 0.57498 0.0
O94 O 0.62307 0.6717 0.64758 0.0
O95 O 0.65688 0.65496 0.64195 0.0
O96 O 0.60129 0.67191 0.50704 0.0
O97 O 0.63912 0.66897 0.54208 0.0
Co98 Co 0.95246 0.61877 0.92132 0.0
O99 O 0.93514 0.64513 0.92 0.0
O100 O 0.91057 0.59733 0.94586 0.0
C101 C 0.97384 0.63023 0.84504 0.0
O102 O 0.96285 0.58446 0.92612 0.0
Co103 Co 0.02329 0.64696 0.91651 0.0
O104 O 0.01328 0.60384 0.91242 0.0
C105 C 0.99475 0.65515 0.00541 0.0
C106 C 0.91039 0.62267 0.93843 0.0
C107 C 0.98654 0.58132 0.91985 0.0
O108 O 0.96844 0.63369 0.99068 0.0
O109 O 0.01876 0.66606 0.97844 0.0
O110 O 0.94486 0.61065 0.84981 0.0
O111 O 0.98755 0.64419 0.8851 0.0
Co112 Co 0.33265 0.94386 0.22808 0.0
O113 O 0.29053 0.91516 0.24297 0.0
O114 O 0.33008 0.91184 0.27098 0.0
C115 C 0.32617 0.94753 0.14656 0.0
O116 O 0.3792 0.9687 0.21823 0.0
Co117 Co 0.34956 0.0085 0.18875 0.0
O118 O 0.39016 0.01218 0.17863 0.0
C119 C 0.33783 0.99524 0.29472 0.0
C120 C 0.30056 0.90052 0.26922 0.0
C121 C 0.39823 0.99398 0.19675 0.0
O122 O 0.33562 0.96902 0.28792 0.0
O123 O 0.34107 0.01347 0.25941 0.0
O124 O 0.32842 0.92462 0.16334 0.0
O125 O 0.32449 0.96501 0.17962 0.0
Co126 Co 0.3904 0.32604 0.5679 0.0
O127 O 0.37824 0.28368 0.57606 0.0
O128 O 0.41957 0.32205 0.60962 0.0
C129 C 0.38399 0.32572 0.48508 0.0
O130 O 0.41063 0.37254 0.56624 0.0
Co131 Co 0.34265 0.34346 0.53126 0.0
O132 O 0.37884 0.38493 0.5272 0.0
C133 C 0.34142 0.32591 0.63559 0.0
C134 C 0.40237 0.29275 0.60353 0.0
C135 C 0.40448 0.39232 0.54743 0.0
O136 O 0.36572 0.32415 0.62823 0.0
O137 O 0.32743 0.33123 0.60082 0.0
O138 O 0.40866 0.32757 0.50355 0.0
O139 O 0.36258 0.32012 0.51669 0.0
Co140 Co 0.06216 0.3841 0.91795 0.0
O141 O 0.09252 0.37147 0.92013 0.0
O142 O 0.10039 0.41658 0.94449 0.0
C143 C 0.04411 0.36749 0.84065 0.0
O144 O 0.03654 0.40538 0.92 0.0
Co145 Co 0.99318 0.33499 0.90889 0.0
O146 O 0.98756 0.37093 0.90228 0.0
C147 C 0.02575 0.3413 0.0019 0.0
C148 C 0.11101 0.39798 0.93917 0.0
C149 C 0.00853 0.3982 0.91129 0.0
O150 O 0.04816 0.36687 0.98683 0.0
O151 O 1.00335 0.32356 0.97404 0.0
O152 O 0.06924 0.39336 0.84669 0.0
O153 O 0.03339 0.35144 0.88027 0.0
Co154 Co 0.67806 0.06947 0.23218 0.0
O155 O 0.72102 0.0928 0.2499 0.0
O156 O 0.6859 0.10498 0.26999 0.0
C157 C 0.68428 0.06184 0.15206 0.0
O158 O 0.63252 0.05292 0.21969 0.0
Co159 Co 0.64676 1.00201 0.19666 0.0
O160 O 0.60944 0.00531 0.18853 0.0
C161 C 0.66296 0.01663 0.30169 0.0
C162 C 0.71438 0.11184 0.27121 0.0
C163 C 0.60883 0.02902 0.20264 0.0
O164 O 0.6692 0.04431 0.29424 0.0
O165 O 0.65648 0.99726 0.26677 0.0
O166 O 0.68707 0.08766 0.16625 0.0
O167 O 0.68088 0.04292 0.18689 0.0
H168 H 0.30734 0.33472 0.2299 0.0
H169 H 0.39656 0.40904 0.18865 0.0
H170 H 0.41852 0.40196 0.26612 0.0
H171 H 0.31439 0.35569 0.3585 0.0
H172 H 0.29373 0.317 0.38089 0.0
H173 H 0.28552 0.32606 0.32033 0.0
H174 H 0.29611 0.28539 0.28145 0.0
H175 H 0.30442 0.27625 0.34193 0.0
H176 H 0.33222 0.28723 0.29294 0.0
H177 H 0.43091 0.38619 0.34683 0.0
H178 H 0.43208 0.36704 0.43051 0.0
H179 H 0.33388 0.30656 0.42448 0.0
C180 C 0.33153 0.3492 0.23722 0.0
C181 C 0.35054 0.37201 0.20324 0.0
C182 C 0.38188 0.39116 0.21414 0.0
C183 C 0.3945 0.38729 0.25794 0.0
C184 C 0.37525 0.36458 0.29089 0.0
C185 C 0.34434 0.34618 0.28156 0.0
C186 C 0.32841 0.32506 0.32494 0.0
C187 C 0.30408 0.33134 0.34749 0.0
C188 C 0.31447 0.29149 0.30937 0.0
C189 C 0.35517 0.33448 0.35999 0.0
C190 C 0.38206 0.3569 0.33913 0.0
C191 C 0.41 0.36875 0.36368 0.0
C192 C 0.41046 0.35765 0.41105 0.0
C193 C 0.38308 0.3354 0.43381 0.0
C194 C 0.3551 0.32369 0.40791 0.0
H195 H 0.0114 0.36599 0.54926 0.0
H196 H 0.91531 0.30835 0.58444 0.0
H197 H 0.92832 0.31052 0.67318 0.0
H198 H 0.04259 0.33742 0.63892 0.0
H199 H 0.07459 0.37407 0.65506 0.0
H200 H 0.05806 0.36785 0.59405 0.0
H201 H 0.04931 0.41379 0.60543 0.0
H202 H 0.06604 0.42031 0.66636 0.0
H203 H 0.02818 0.41498 0.65841 0.0
H204 H 0.95178 0.31491 0.75561 0.0
H205 H 0.98318 0.32751 0.83054 0.0
H206 H 0.06412 0.38785 0.74546 0.0
C207 C 0.99318 0.35394 0.57582 0.0
C208 C 0.96237 0.33675 0.56033 0.0
C209 C 0.93901 0.32162 0.59584 0.0
C210 C 0.94619 0.32263 0.64616 0.0
C211 C 0.97678 0.33953 0.66031 0.0
C212 C 0.99988 0.35552 0.6265 0.0
C213 C 0.03069 0.37303 0.6522 0.0
C214 C 0.05278 0.36245 0.63396 0.0
C215 C 0.04435 0.40758 0.64518 0.0
C216 C 0.02132 0.36373 0.70561 0.0
C217 C 0.99015 0.34407 0.70906 0.0
C218 C 0.97611 0.33079 0.75364 0.0
C219 C 0.99427 0.33813 0.79614 0.0
C220 C 0.02608 0.35917 0.79424 0.0
C221 C 0.03978 0.37209 0.7482 0.0
H222 H 0.63067 0.9489 0.92091 0.0
H223 H 0.68139 0.0285 0.82759 0.0
H224 H 0.69775 0.06147 0.90144 0.0
H225 H 0.60449 0.98289 0.00905 0.0
H226 H 0.60919 0.96376 0.06179 0.0
H227 H 0.60165 0.94614 0.00159 0.0
H228 H 0.65058 0.94171 0.00831 0.0
H229 H 0.65817 0.95916 0.06869 0.0
H230 H 0.6868 0.97537 0.02084 0.0
H231 H 0.70545 0.08621 0.98478 0.0
H232 H 0.70823 0.10036 0.07322 0.0
H233 H 0.65594 0.00458 0.11241 0.0
C234 C 0.64538 0.97324 0.9161 0.0
C235 C 0.65452 0.98616 0.8685 0.0
C236 C 0.67394 0.01808 0.86366 0.0
C237 C 0.68336 0.03704 0.9054 0.0
C238 C 0.67359 0.02367 0.95174 0.0
C239 C 0.65544 0.99247 0.95746 0.0
C240 C 0.6485 0.98392 0.01152 0.0
C241 C 0.6139 0.96826 0.02156 0.0
C242 C 0.66182 0.96386 0.02832 0.0
C243 C 0.66529 0.0152 0.03514 0.0
C244 C 0.67935 0.03785 0.0 0.0
C245 C 0.6949 0.06867 0.01275 0.0
C246 C 0.69627 0.07649 0.0629 0.0
C247 C 0.68259 0.05356 0.09946 0.0
C248 C 0.66701 0.02258 0.0853 0.0
H249 H 0.68573 0.67263 0.22719 0.0
H250 H 0.6472 0.5747 0.23759 0.0
H251 H 0.62891 0.57553 0.32235 0.0
H252 H 0.71239 0.68774 0.35546 0.0
H253 H 0.70483 0.71883 0.3624 0.0
H254 H 0.7145 0.71039 0.30246 0.0
H255 H 0.66465 0.70539 0.26601 0.0
H256 H 0.65474 0.71364 0.32585 0.0
H257 H 0.62842 0.6791 0.2938 0.0
H258 H 0.6125 0.58668 0.40346 0.0
H259 H 0.60318 0.60786 0.47932 0.0
H260 H 0.6556 0.69915 0.41969 0.0
C261 C 0.6735 0.65142 0.24751 0.0
C262 C 0.6677 0.62355 0.22614 0.0
C263 C 0.65196 0.59625 0.25367 0.0
C264 C 0.6414 0.59651 0.30161 0.0
C265 C 0.64736 0.62436 0.32165 0.0
C266 C 0.66348 0.6514 0.29586 0.0
C267 C 0.6678 0.67833 0.32672 0.0
C268 C 0.7019 0.70011 0.33739 0.0
C269 C 0.65301 0.69509 0.30158 0.0
C270 C 0.65081 0.66211 0.37338 0.0
C271 C 0.63916 0.63098 0.36952 0.0
C272 C 0.62197 0.61105 0.40726 0.0
C273 C 0.61694 0.62329 0.4504 0.0
C274 C 0.62929 0.65508 0.45567 0.0
C275 C 0.6462 0.67474 0.41655 0.0
H276 H 0.95352 0.62635 0.74895 0.0
H277 H 0.03325 0.645 0.83629 0.0
H278 H 0.06347 0.65481 0.76031 0.0
H279 H 0.96953 0.59133 0.64179 0.0
H280 H 0.95711 0.6094 0.59715 0.0
H281 H 0.94036 0.60049 0.65813 0.0
H282 H 0.95513 0.65699 0.67054 0.0
H283 H 0.97197 0.66606 0.60971 0.0
H284 H 0.99445 0.68646 0.66297 0.0
H285 H 0.08572 0.66393 0.67636 0.0
H286 H 0.09992 0.67553 0.58849 0.0
H287 H 0.00748 0.65496 0.55374 0.0
C288 C 0.97719 0.63199 0.75181 0.0
C289 C 0.99095 0.63454 0.79854 0.0
C290 C 0.02216 0.64275 0.80103 0.0
C291 C 0.03954 0.64828 0.75799 0.0
C292 C 0.02554 0.64599 0.71257 0.0
C293 C 0.99519 0.63833 0.70897 0.0
C294 C 0.98667 0.63993 0.65551 0.0
C295 C 0.96195 0.60841 0.63707 0.0
C296 C 0.97646 0.66378 0.64934 0.0
C297 C 0.01707 0.64999 0.63003 0.0
C298 C 0.03896 0.65281 0.66371 0.0
C299 C 0.06881 0.6618 0.64953 0.0
C300 C 0.07665 0.66834 0.59953 0.0
C301 C 0.05487 0.66629 0.56438 0.0
C302 C 0.02464 0.65686 0.57987 0.0
H303 H 0.35239 0.00415 0.10597 0.0
H304 H 0.30578 0.90809 0.06812 0.0
H305 H 0.30913 0.92159 0.97905 0.0
H306 H 0.32169 0.03077 0.01225 0.0
H307 H 0.35734 0.0653 0.00088 0.0
H308 H 0.34945 0.0479 0.06127 0.0
H309 H 0.3996 0.04549 0.05776 0.0
H310 H 0.40779 0.06313 -0.00245 0.0
H311 H 0.40627 0.02705 0.00599 0.0
H312 H 0.31541 0.94615 0.89509 0.0
H313 H 0.33097 0.97917 0.82137 0.0
H314 H 0.37944 0.05907 0.91489 0.0
C315 C 0.34283 0.98591 0.0791 0.0
C316 C 0.32856 0.95508 0.09366 0.0
C317 C 0.31672 0.93186 0.05736 0.0
C318 C 0.31842 0.93932 0.00693 0.0
C319 C 0.33269 0.97008 0.99384 0.0
C320 C 0.34528 0.99297 0.02887 0.0
C321 C 0.3614 0.02423 0.00526 0.0
C322 C 0.34657 0.04315 0.02084 0.0
C323 C 0.3958 0.04095 0.01735 0.0
C324 C 0.35558 0.01542 0.95124 0.0
C325 C 0.3385 0.98412 0.94548 0.0
C326 C 0.3292 0.97064 0.89909 0.0
C327 C 0.33815 0.98964 0.85743 0.0
C328 C 0.35691 0.02165 0.86241 0.0
C329 C 0.36545 0.03464 0.91 0.0
H330 H 0.13088 0.35849 0.96454 0.0
H331 H 0.16106 0.4549 0.95321 0.0
H332 H 0.21274 0.46726 0.98192 0.0
H333 H 0.17174 0.36445 0.07691 0.0
H334 H 0.18017 0.33501 0.05951 0.0
H335 H 0.14626 0.3341 0.03617 0.0
H336 H 0.1633 0.33249 0.94619 0.0
H337 H 0.19724 0.33334 0.96925 0.0
H338 H 0.20047 0.3617 0.92547 0.0
H339 H 0.2622 0.46853 0.00922 0.0
H340 H 0.30309 0.45863 0.03872 0.0
H341 H 0.23856 0.36151 0.03788 0.0
C342 C 0.14842 0.38223 0.96774 0.0
C343 C 0.14208 0.40577 0.95609 0.0
C344 C 0.16547 0.43652 0.96175 0.0
C345 C 0.19489 0.44373 0.97794 0.0
C346 C 0.20037 0.41991 0.98915 0.0
C347 C 0.1776 0.38978 0.98479 0.0
C348 C 0.1888 0.36834 0.00098 0.0
C349 C 0.17066 0.34936 0.04607 0.0
C350 C 0.18737 0.34776 0.9579 0.0
C351 C 0.22153 0.39103 0.01476 0.0
C352 C 0.22799 0.42068 0.00724 0.0
C353 C 0.25723 0.44539 0.01569 0.0
C354 C 0.28033 0.43959 0.03236 0.0
C355 C 0.27392 0.40937 0.04118 0.0
C356 C 0.24407 0.38491 0.03229 0.0
H357 H 0.88 0.23291 0.3775 0.0
H358 H 0.84878 0.29883 0.37731 0.0
H359 H 0.79784 0.25898 0.34879 0.0
H360 H 0.84077 0.19504 0.26553 0.0
H361 H 0.83176 0.15758 0.28617 0.0
H362 H 0.86528 0.19076 0.30954 0.0
H363 H 0.84626 0.17411 0.39939 0.0
H364 H 0.81262 0.14092 0.37627 0.0
H365 H 0.80881 0.16712 0.41687 0.0
H366 H 0.75015 0.21211 0.32204 0.0
H367 H 0.71003 0.16236 0.29035 0.0
H368 H 0.77264 0.12711 0.30136 0.0
C369 C 0.86233 0.23882 0.37177 0.0
C370 C 0.86822 0.26889 0.37999 0.0
C371 C 0.84474 0.27594 0.37125 0.0
C372 C 0.8157 0.25343 0.35526 0.0
C373 C 0.81058 0.22402 0.34744 0.0
C374 C 0.8333 0.2167 0.35474 0.0
C375 C 0.82213 0.1837 0.34083 0.0
C376 C 0.84112 0.18166 0.29796 0.0
C377 C 0.82248 0.16538 0.38604 0.0
C378 C 0.78965 0.1737 0.32456 0.0
C379 C 0.78339 0.19724 0.32948 0.0
C380 C 0.75482 0.19354 0.31778 0.0
C381 C 0.73214 0.16514 0.29996 0.0
C382 C 0.73822 0.1409 0.29319 0.0
C383 C 0.76738 0.14528 0.30589 0.0
H384 H 0.65055 0.87981 0.69745 0.0
H385 H 0.55421 0.84515 0.7274 0.0
H386 H 0.54224 0.79473 0.69557 0.0
H387 H 0.63933 0.83895 0.58303 0.0
H388 H 0.6703 0.83143 0.59314 0.0
H389 H 0.67186 0.86484 0.61981 0.0
H390 H 0.67932 0.84824 0.70708 0.0
H391 H 0.67801 0.8149 0.68063 0.0
H392 H 0.65206 0.81086 0.72976 0.0
H393 H 0.54028 0.74836 0.66061 0.0
H394 H 0.54843 0.70813 0.62516 0.0
H395 H 0.64588 0.77214 0.61507 0.0
C396 C 0.627 0.8615 0.69771 0.0
C397 C 0.60331 0.86639 0.71515 0.0
C398 C 0.57273 0.84197 0.71428 0.0
C399 C 0.56568 0.81323 0.69624 0.0
C400 C 0.58943 0.80923 0.67879 0.0
C401 C 0.61948 0.8326 0.67931 0.0
C402 C 0.64046 0.82211 0.65742 0.0
C403 C 0.65643 0.84042 0.61057 0.0
C404 C 0.66384 0.82415 0.69603 0.0
C405 C 0.61749 0.78918 0.64489 0.0
C406 C 0.58821 0.78235 0.6576 0.0
C407 C 0.56309 0.75343 0.6504 0.0
C408 C 0.56797 0.73071 0.63015 0.0
C409 C 0.59776 0.73696 0.61708 0.0
C410 C 0.62281 0.76673 0.62422 0.0
H411 H 0.74194 0.5775 0.03728 0.0
H412 H 0.77422 0.67469 0.03863 0.0
H413 H 0.82344 0.68481 0.00367 0.0
H414 H 0.81351 0.58452 0.07545 0.0
H415 H 0.81018 0.55376 0.0373 0.0
H416 H 0.77627 0.55341 0.05918 0.0
H417 H 0.75693 0.54849 0.96894 0.0
H418 H 0.79081 0.54884 0.94678 0.0
H419 H 0.78092 0.57621 0.92345 0.0
H420 H 0.86891 0.6852 0.96955 0.0
H421 H 0.9103 0.67621 0.94274 0.0
H422 H 0.85153 0.57899 0.96686 0.0
C423 C 0.75932 0.60083 0.02965 0.0
C424 C 0.7542 0.62534 0.04044 0.0
C425 C 0.77764 0.65559 0.03079 0.0
C426 C 0.80566 0.66158 0.01071 0.0
C427 C 0.8102 0.63712 0.00092 0.0
C428 C 0.78791 0.60734 0.01034 0.0
C429 C 0.79978 0.58561 -0.00127 0.0
C430 C 0.79994 0.56831 0.04545 0.0
C431 C 0.78099 0.56348 0.95699 0.0
C432 C 0.83215 0.60794 0.98165 0.0
C433 C 0.83733 0.63745 0.9827 0.0
C434 C 0.86519 0.66221 0.96858 0.0
C435 C 0.88859 0.65681 0.95329 0.0
C436 C 0.88429 0.62691 0.95268 0.0
C437 C 0.85556 0.60211 0.96697 0.0
H438 H 0.14094 0.74893 0.31699 0.0
H439 H 0.16879 0.75345 0.46993 0.0
H440 H 0.2197 0.79755 0.44993 0.0
H441 H 0.21503 0.77232 0.25939 0.0
H442 H 0.21029 0.79508 0.21263 0.0
H443 H 0.17727 0.76223 0.23799 0.0
H444 H 0.15403 0.79596 0.26248 0.0
H445 H 0.18688 0.82884 0.23702 0.0
H446 H 0.17598 0.82923 0.30047 0.0
H447 H 0.2678 0.84111 0.41255 0.0
H448 H 0.30676 0.88465 0.36346 0.0
H449 H 0.24553 0.85463 0.23718 0.0
C450 C 0.15801 0.75908 0.34594 0.0
C451 C 0.15144 0.74776 0.39477 0.0
C452 C 0.17377 0.76184 0.43222 0.0
C453 C 0.20268 0.78675 0.42114 0.0
C454 C 0.20861 0.79753 0.37255 0.0
C455 C 0.18674 0.78441 0.33569 0.0
C456 C 0.19802 0.80183 0.28747 0.0
C457 C 0.20029 0.78166 0.24698 0.0
C458 C 0.17751 0.81473 0.27091 0.0
C459 C 0.22945 0.82697 0.30306 0.0
C460 C 0.23546 0.82369 0.35194 0.0
C461 C 0.2633 0.84394 0.37429 0.0
C462 C 0.28534 0.86846 0.34617 0.0
C463 C 0.27903 0.87286 0.29678 0.0
C464 C 0.25082 0.85174 0.27501 0.0
H465 H 0.36372 0.12803 0.69637 0.0
H466 H 0.4603 0.16428 0.72558 0.0
H467 H 0.47056 0.21567 0.70001 0.0
H468 H 0.37362 0.17121 0.58694 0.0
H469 H 0.3412 0.17616 0.59895 0.0
H470 H 0.34168 0.14307 0.62232 0.0
H471 H 0.3327 0.15619 0.71134 0.0
H472 H 0.33223 0.18937 0.68825 0.0
H473 H 0.3585 0.19328 0.73679 0.0
H474 H 0.4695 0.26365 0.67181 0.0
H475 H 0.45796 0.30226 0.63712 0.0
H476 H 0.36259 0.23279 0.62217 0.0
C477 C 0.38703 0.14681 0.69785 0.0
C478 C 0.4112 0.14227 0.71345 0.0
C479 C 0.44144 0.16731 0.71391 0.0
C480 C 0.44744 0.19656 0.6996 0.0
C481 C 0.42298 0.20023 0.68439 0.0
C482 C 0.39342 0.17587 0.68301 0.0
C483 C 0.37128 0.18524 0.66298 0.0
C484 C 0.35606 0.16789 0.61495 0.0
C485 C 0.34726 0.18076 0.70219 0.0
C486 C 0.39291 0.21869 0.65308 0.0
C487 C 0.42259 0.22713 0.66626 0.0
C488 C 0.44636 0.25718 0.66116 0.0
C489 C 0.43961 0.27897 0.64157 0.0
C490 C 0.40946 0.27044 0.62662 0.0
C491 C 0.38593 0.23993 0.6328 0.0
H492 H 0.36126 0.31061 0.72042 0.0
H493 H 0.29792 0.33921 0.66817 0.0
H494 H 0.28487 0.34374 0.75437 0.0
H495 H 0.31483 0.26694 0.82946 0.0
H496 H 0.3483 0.27854 0.86731 0.0
H497 H 0.3503 0.27435 0.80133 0.0
H498 H 0.39533 0.32987 0.7959 0.0
H499 H 0.39337 0.33431 0.86166 0.0
H500 H 0.3905 0.36051 0.81973 0.0
H501 H 0.28381 0.35195 0.84548 0.0
H502 H 0.29207 0.35947 0.93581 0.0
H503 H 0.35398 0.32323 0.9298 0.0
C504 C 0.34416 0.3172 0.72701 0.0
C505 C 0.33065 0.32453 0.68725 0.0
C506 C 0.30852 0.33328 0.69774 0.0
C507 C 0.30094 0.33597 0.7467 0.0
C508 C 0.31527 0.32938 0.78493 0.0
C509 C 0.33605 0.31971 0.77573 0.0
C510 C 0.34921 0.31544 0.82361 0.0
C511 C 0.34011 0.28181 0.83085 0.0
C512 C 0.38417 0.33628 0.8253 0.0
C513 C 0.3334 0.32528 0.86098 0.0
C514 C 0.31384 0.33314 0.83787 0.0
C515 C 0.29856 0.34525 0.86414 0.0
C516 C 0.30349 0.34957 0.91536 0.0
C517 C 0.32334 0.34156 0.93985 0.0
C518 C 0.33812 0.32888 0.91225 0.0
H519 H 0.03698 0.37439 0.29058 0.0
H520 H 0.96138 0.28208 0.30586 0.0
H521 H 0.96825 0.2713 0.21899 0.0
H522 H 0.01522 0.38611 0.17519 0.0
H523 H 0.05323 0.40939 0.15075 0.0
H524 H 0.04685 0.40813 0.21642 0.0
H525 H 0.08737 0.39163 0.23073 0.0
H526 H 0.09383 0.3928 0.16488 0.0
H527 H 0.08354 0.35846 0.19925 0.0
H528 H 0.97912 0.27198 0.13005 0.0
H529 H 0.98962 0.28502 0.04191 0.0
H530 H 0.05653 0.37816 0.08136 0.0
C531 C 0.02264 0.35167 0.27583 0.0
C532 C 0.99909 0.32877 0.30468 0.0
C533 C 0.97976 0.29967 0.28412 0.0
C534 C 0.98364 0.29334 0.23507 0.0
C535 C 0.00671 0.31652 0.20706 0.0
C536 C 0.02576 0.34521 0.22644 0.0
C537 C 0.04564 0.36722 0.18641 0.0
C538 C 0.03987 0.39429 0.18194 0.0
C539 C 0.07961 0.37817 0.19589 0.0
C540 C 0.03402 0.34666 0.14134 0.0
C541 C 0.01214 0.31735 0.15445 0.0
C542 C 0.99645 0.29473 0.11929 0.0
C543 C 1.00253 0.30245 0.06925 0.0
C544 C 0.02385 0.33266 0.05467 0.0
C545 C 0.04044 0.35479 0.09133 0.0
H546 H 0.66641 0.02929 0.59557 0.0
H547 H 0.62715 0.93094 0.60024 0.0
H548 H 0.63122 0.93004 0.50916 0.0
H549 H 0.62722 0.0308 0.48824 0.0
H550 H 0.65861 0.06563 0.46431 0.0
H551 H 0.65483 0.05881 0.53003 0.0
H552 H 0.70972 0.06676 0.53346 0.0
H553 H 0.71365 0.07356 0.46766 0.0
H554 H 0.71963 0.04421 0.49408 0.0
H555 H 0.63803 0.93961 0.41813 0.0
H556 H 0.64426 0.95836 0.33249 0.0
H557 H 0.67793 0.05049 0.38736 0.0
C558 C 0.65901 0.00759 0.57755 0.0
C559 C 0.64659 0.98019 0.60491 0.0
C560 C 0.63667 0.9522 0.57989 0.0
C561 C 0.63904 0.95147 0.52828 0.0
C562 C 0.65127 0.9789 0.50244 0.0
C563 C 0.66094 0.00641 0.52614 0.0
C564 C 0.67152 0.03239 0.48955 0.0
C565 C 0.65186 0.0478 0.49326 0.0
C566 C 0.70566 0.0556 0.49662 0.0
C567 C 0.66589 0.0151 0.44144 0.0
C568 C 0.65458 0.98436 0.44976 0.0
C569 C 0.64698 0.96365 0.4111 0.0
C570 C 0.65064 0.97459 0.36254 0.0
C571 C 0.66153 0.00595 0.35308 0.0
C572 C 0.66957 0.02642 0.39324 0.0
H573 H 0.66675 0.64072 0.72958 0.0
H574 H 0.63584 0.70688 0.72354 0.0
H575 H 0.64499 0.71585 0.8134 0.0
H576 H 0.63012 0.6071 0.84036 0.0
H577 H 0.6597 0.60023 0.86344 0.0
H578 H 0.65479 0.60207 0.79779 0.0
H579 H 0.71148 0.64458 0.78979 0.0
H580 H 0.71655 0.64288 0.85558 0.0
H581 H 0.72559 0.67859 0.82692 0.0
H582 H 0.65313 0.71441 0.90427 0.0
H583 H 0.65725 0.70096 0.9905 0.0
H584 H 0.68199 0.63494 0.93776 0.0
C585 C 0.66257 0.6576 0.74697 0.0
C586 C 0.65079 0.67327 0.71958 0.0
C587 C 0.64487 0.69462 0.74386 0.0
C588 C 0.65018 0.70001 0.79479 0.0
C589 C 0.66134 0.68383 0.82088 0.0
C590 C 0.66741 0.663 0.79786 0.0
C591 C 0.67648 0.64652 0.8351 0.0
C592 C 0.65392 0.61194 0.8341 0.0
C593 C 0.70949 0.65358 0.82631 0.0
C594 C 0.67387 0.66083 0.88275 0.0
C595 C 0.66555 0.68261 0.87364 0.0
C596 C 0.65997 0.69765 0.91189 0.0
C597 C 0.66232 0.68978 0.96079 0.0
C598 C 0.66997 0.66689 0.97107 0.0
C599 C 0.67645 0.65278 0.93132 0.0
H600 H 0.98 0.64121 0.29814 0.0
H601 H 0.06354 0.72878 0.30276 0.0
H602 H 0.05875 0.73545 0.21326 0.0
H603 H 0.99708 0.61745 0.1905 0.0
H604 H 0.95881 0.59724 0.1657 0.0
H605 H 0.96457 0.60201 0.23152 0.0
H606 H 0.93091 0.6274 0.23546 0.0
H607 H 0.92487 0.62252 0.16947 0.0
H608 H 0.94005 0.65985 0.19666 0.0
H609 H 0.04964 0.72963 0.12337 0.0
H610 H 0.03797 0.71118 0.03749 0.0
H611 H 0.96088 0.62625 0.0886 0.0
C612 C 0.99653 0.66229 0.28053 0.0
C613 C 0.02182 0.6848 0.30731 0.0
C614 C 0.04383 0.7115 0.28286 0.0
C615 C 0.04121 0.71551 0.23215 0.0
C616 C 0.01655 0.69251 0.20636 0.0
C617 C 0.99453 0.66638 0.22959 0.0
C618 C 0.97281 0.64338 0.19209 0.0
C619 C 0.97338 0.61326 0.19515 0.0
C620 C 0.94023 0.63798 0.19883 0.0
C621 C 0.98685 0.66017 0.14414 0.0
C622 C 0.01165 0.68871 0.15346 0.0
C623 C 0.02997 0.70757 0.11554 0.0
C624 C 0.02323 0.69678 0.06687 0.0
C625 C 0.99847 0.6673 0.05635 0.0
C626 C 0.97958 0.64908 0.09546 0.0
H627 H 0.32107 0.96095 0.37943 0.0
H628 H 0.35876 0.05385 0.32611 0.0
H629 H 0.36725 0.07247 0.41228 0.0
H630 H 0.28283 0.96992 0.48926 0.0
H631 H 0.2913 0.94543 0.52642 0.0
H632 H 0.28586 0.93934 0.46056 0.0
H633 H 0.33893 0.94324 0.45335 0.0
H634 H 0.34473 0.94967 0.51898 0.0
H635 H 0.37233 0.97679 0.47627 0.0
H636 H 0.37691 0.08144 0.50375 0.0
H637 H 0.38248 0.07943 0.59453 0.0
H638 H 0.33686 0.98061 0.58722 0.0
C639 C 0.33064 0.98516 0.38583 0.0
C640 C 0.33927 0.00592 0.34605 0.0
C641 C 0.35176 0.03745 0.35601 0.0
C642 C 0.35678 0.04829 0.40482 0.0
C643 C 0.34877 0.02727 0.44314 0.0
C644 C 0.3355 0.99632 0.43422 0.0
C645 C 0.32983 0.97858 0.48181 0.0
C646 C 0.29541 0.95705 0.48999 0.0
C647 C 0.34752 0.96106 0.48262 0.0
C648 C 0.34273 0.00446 0.51878 0.0
C649 C 0.35357 0.03238 0.49584 0.0
C650 C 0.36808 0.05968 0.52227 0.0
C651 C 0.37132 0.05833 0.57366 0.0
C652 C 0.35991 0.02987 0.59784 0.0
C653 C 0.3454 0.00269 0.56987 0.0
H654 H 0.429 0.46628 0.10082 0.0
H655 H 0.44889 0.39546 0.05662 0.0
H656 H 0.504 0.43282 0.05666 0.0
H657 H 0.48995 0.52823 0.03002 0.0
H658 H 0.49844 0.55624 0.0778 0.0
H659 H 0.46027 0.52425 0.07174 0.0
H660 H 0.46168 0.50987 0.16343 0.0
H661 H 0.49991 0.54169 0.16968 0.0
H662 H 0.49216 0.50372 0.18429 0.0
H663 H 0.55715 0.47741 0.06295 0.0
H664 H 0.60475 0.52647 0.0756 0.0
H665 H 0.55089 0.56826 0.11813 0.0
C666 C 0.44496 0.4588 0.09043 0.0
C667 C 0.43459 0.42796 0.07848 0.0
C668 C 0.45626 0.41894 0.06602 0.0
C669 C 0.48766 0.44 0.06584 0.0
C670 C 0.49722 0.47009 0.07854 0.0
C671 C 0.47658 0.47955 0.09066 0.0
C672 C 0.49315 0.51303 0.10475 0.0
C673 C 0.48496 0.53152 0.06893 0.0
C674 C 0.48631 0.51732 0.15875 0.0
C675 C 0.52618 0.52079 0.09851 0.0
C676 C 0.528 0.49572 0.08321 0.0
C677 C 0.55604 0.49725 0.07492 0.0
C678 C 0.58299 0.52524 0.08225 0.0
C679 C 0.58175 0.55133 0.09799 0.0
C680 C 0.55281 0.54882 0.1063 0.0
H681 H 0.02913 0.57092 0.50648 0.0
H682 H 0.02547 0.5858 0.34921 0.0
H683 H 0.01227 0.5324 0.33245 0.0
H684 H 0.06483 0.52341 0.49269 0.0
H685 H 0.04437 0.49939 0.54449 0.0
H686 H 0.0534 0.53863 0.54352 0.0
H687 H 0.99604 0.52122 0.55561 0.0
H688 H 0.98676 0.48192 0.55592 0.0
H689 H 0.9683 0.49459 0.51243 0.0
H690 H 0.99472 0.47618 0.33419 0.0
H691 H 0.98287 0.42339 0.35228 0.0
H692 H 1.00358 0.44672 0.50739 0.0
C693 C 0.02592 0.5629 0.46855 0.0
C694 C 0.02827 0.58214 0.42897 0.0
C695 C 0.02398 0.57123 0.37977 0.0
C696 C 0.01628 0.54098 0.37004 0.0
C697 C 0.01365 0.5223 0.40994 0.0
C698 C 0.01911 0.53305 0.45811 0.0
C699 C 0.01589 0.50862 0.49408 0.0
C700 C 0.04645 0.51808 0.52022 0.0
C701 C 0.99022 0.50116 0.53172 0.0
C702 C 0.00731 0.48231 0.45874 0.0
C703 C 1.00558 0.49053 0.4105 0.0
C704 C 0.99644 0.46962 0.37168 0.0
C705 C 0.98954 0.4397 0.3823 0.0
C706 C 0.99249 0.43126 0.43106 0.0
C707 C 1.00141 0.45281 0.46973 0.0
H708 H 0.5791 0.03367 0.7526 0.0
H709 H 0.53788 0.9405 0.80604 0.0
H710 H 0.4886 0.93913 0.81618 0.0
H711 H 0.5358 0.05803 0.83162 0.0
H712 H 0.53183 0.08053 0.78349 0.0
H713 H 0.56475 0.07543 0.78446 0.0
H714 H 0.5527 0.05435 0.69486 0.0
H715 H 0.51977 0.05937 0.69362 0.0
H716 H 0.51549 0.02246 0.68079 0.0
H717 H 0.44385 0.9467 0.81763 0.0
H718 H 0.40467 0.96132 0.80621 0.0
H719 H 0.47342 0.0494 0.74859 0.0
C720 C 0.55981 0.01317 0.76719 0.0
C721 C 0.56237 0.98722 0.77891 0.0
C722 C 0.53645 0.96061 0.79686 0.0
C723 C 0.50841 0.95967 0.80296 0.0
C724 C 0.50657 0.98546 0.79063 0.0
C725 C 0.53144 0.01168 0.77288 0.0
C726 C 0.52255 0.0354 0.75927 0.0
C727 C 0.53976 0.06404 0.79165 0.0
C728 C 0.52794 0.04335 0.70384 0.0
C729 C 0.48867 0.01819 0.77153 0.0
C730 C 0.4802 0.98959 0.79015 0.0
C731 C 0.45018 0.96904 0.80318 0.0
C732 C 0.42804 0.97763 0.79633 0.0
C733 C 0.43578 0.00653 0.77615 0.0
C734 C 0.46671 0.02724 0.76428 0.0
H735 H 0.56926 0.54172 0.58086 0.0
H736 H 0.52332 0.59448 0.5625 0.0
H737 H 0.47403 0.54696 0.55398 0.0
H738 H 0.5241 0.48295 0.49379 0.0
H739 H 0.52305 0.45254 0.53012 0.0
H740 H 0.55502 0.49068 0.53565 0.0
H741 H 0.54609 0.4895 0.63029 0.0
H742 H 0.51415 0.4513 0.6251 0.0
H743 H 0.50902 0.48078 0.65319 0.0
H744 H 0.43031 0.49454 0.54379 0.0
H745 H 0.39362 0.43969 0.53749 0.0
H746 H 0.46676 0.41973 0.56523 0.0
C747 C 0.54882 0.54329 0.57528 0.0
C748 C 0.55025 0.57194 0.57237 0.0
C749 C 0.52291 0.57291 0.56513 0.0
C750 C 0.49476 0.54602 0.56007 0.0
C751 C 0.4942 0.51826 0.56275 0.0
C752 C 0.52039 0.5166 0.57062 0.0
C753 C 0.51322 0.48367 0.57225 0.0
C754 C 0.52983 0.47708 0.53046 0.0
C755 C 0.52108 0.47586 0.62325 0.0
C756 C 0.47892 0.46715 0.56367 0.0
C757 C 0.46859 0.48767 0.55804 0.0
C758 C 0.43805 0.47822 0.54845 0.0
C759 C 0.41741 0.44694 0.54475 0.0
C760 C 0.42723 0.42529 0.55097 0.0
C761 C 0.45848 0.43565 0.56067 0.0
H762 H 0.03212 0.56675 0.9256 0.0
H763 H 0.93341 0.52579 0.9155 0.0
H764 H 0.92851 0.47465 0.9129 0.0
H765 H 0.03979 0.516 0.84336 0.0
H766 H 0.0696 0.51495 0.87867 0.0
H767 H 0.06532 0.54821 0.88095 0.0
H768 H 0.06072 0.54396 0.97656 0.0
H769 H 0.06512 0.51075 0.97461 0.0
H770 H 0.03219 0.50878 0.00436 0.0
H771 H 0.93462 0.42829 0.90823 0.0
H772 H 0.95059 0.38967 0.90548 0.0
H773 H 0.04561 0.46083 0.92021 0.0
C774 C 0.00939 0.54708 0.92299 0.0
C775 C 0.9831 0.55038 0.92064 0.0
C776 C 0.95386 0.52392 0.91752 0.0
C777 C 0.95087 0.49477 0.9159 0.0
C778 C 0.97731 0.49246 0.91782 0.0
C779 C 0.00599 0.51789 0.92168 0.0
C780 C 0.03077 0.50921 0.92316 0.0
C781 C 0.05265 0.5229 0.87889 0.0
C782 C 0.04822 0.51874 0.97262 0.0
C783 C 0.01158 0.47484 0.91897 0.0
C784 C 0.98082 0.46571 0.91588 0.0
C785 C 0.95862 0.43518 0.9109 0.0
C786 C 0.96804 0.41339 0.90926 0.0
C787 C 0.99946 0.42206 0.91273 0.0
C788 C 0.02145 0.45333 0.91768 0.0
H789 H 0.55083 0.98158 0.22012 0.0
H790 H 0.60124 0.07691 0.17763 0.0
H791 H 0.55268 0.0775 0.17011 0.0
H792 H 0.48493 0.95817 0.14246 0.0
H793 H 0.45779 0.93368 0.18825 0.0
H794 H 0.49635 0.94026 0.18903 0.0
H795 H 0.50261 0.95875 0.27997 0.0
H796 H 0.46405 0.95214 0.27953 0.0
H797 H 0.49536 0.98922 0.29567 0.0
H798 H 0.49945 0.06761 0.16471 0.0
H799 H 0.44453 0.04962 0.16805 0.0
H800 H 0.42735 0.96095 0.21936 0.0
C801 C 0.55152 1.00248 0.20899 0.0
C802 C 0.57969 0.02919 0.19897 0.0
C803 C 0.57988 0.05629 0.18545 0.0
C804 C 0.55244 0.05678 0.18094 0.0
C805 C 0.52507 0.03013 0.19102 0.0
C806 C 0.52433 0.00358 0.20546 0.0
C807 C 0.49179 0.97859 0.21633 0.0
C808 C 0.48215 0.95105 0.18195 0.0
C809 C 0.48825 0.96912 0.27113 0.0
C810 C 0.47431 0.9951 0.20467 0.0
C811 C 0.4941 0.02474 0.18995 0.0
C812 C 0.48373 0.04453 0.17648 0.0
C813 C 0.45232 0.03393 0.17844 0.0
C814 C 0.43134 0.00377 0.19414 0.0
C815 C 0.44266 0.98411 0.2074 0.0
loop_
_geom_bond_atom_site_label_1
_geom_bond_atom_site_label_2
_geom_bond_distance
_geom_bond_site_symmetry_2
_ccdc_geom_bond_type
Co0 O1 2.216 . S
Co0 O2 2.091 . S
Co0 O4 2.004 . S
Co0 O10 2.021 . S
Co0 O12 2.137 . S
Co0 O13 2.244 . S
O1 Co0 2.216 . S
O1 C8 1.247 . S
O2 Co0 2.091 . S
O2 C8 1.261 . S
C3 O12 1.247 . S
C3 O13 1.272 . S
O4 Co0 2.004 . S
O4 C9 1.259 . S
Co5 O6 2.061 . S
Co5 O11 2.052 . S
Co5 O13 2.135 . S
O6 Co5 2.061 . S
O6 C9 1.235 . S
C7 O10 1.238 1_556 S
C7 O11 1.241 1_556 S
C8 O1 1.247 . S
C8 O2 1.261 . S
C9 O4 1.259 . S
C9 O6 1.235 . S
O10 Co0 2.021 . S
O10 C7 1.238 1_554 S
O11 Co5 2.052 . S
O11 C7 1.241 1_554 S
O12 Co0 2.137 . S
O12 C3 1.247 . S
O13 Co0 2.244 . S
O13 C3 1.272 . S
O13 Co5 2.135 . S
Co14 O15 2.216 . S
Co14 O16 2.091 . S
Co14 O18 2.004 . S
Co14 O24 2.021 . S
Co14 O26 2.137 . S
Co14 O27 2.244 . S
O15 Co14 2.216 . S
O15 C22 1.247 . S
O16 Co14 2.091 . S
O16 C22 1.261 . S
C17 O26 1.247 . S
C17 O27 1.272 . S
O18 Co14 2.004 . S
O18 C23 1.259 . S
Co19 O20 2.061 . S
Co19 O25 2.052 . S
Co19 O27 2.135 1_455 S
O20 Co19 2.061 . S
O20 C23 1.235 1_455 S
C21 O24 1.238 . S
C21 O25 1.241 1_655 S
C22 O15 1.247 . S
C22 O16 1.261 . S
C23 O18 1.259 . S
C23 O20 1.235 1_655 S
O24 Co14 2.021 . S
O24 C21 1.238 . S
O25 Co19 2.052 . S
O25 C21 1.241 1_455 S
O26 Co14 2.137 . S
O26 C17 1.247 . S
O27 Co14 2.244 . S
O27 C17 1.272 . S
O27 Co19 2.135 1_655 S
Co28 O29 2.216 . S
Co28 O30 2.091 . S
Co28 O32 2.004 . S
Co28 O38 2.021 . S
Co28 O40 2.137 . S
Co28 O41 2.244 . S
O29 Co28 2.216 . S
O29 C36 1.247 . S
O30 Co28 2.091 . S
O30 C36 1.261 . S
C31 O40 1.247 . S
C31 O41 1.272 . S
O32 Co28 2.004 . S
O32 C37 1.259 . S
Co33 O34 2.061 . S
Co33 O39 2.052 . S
Co33 O41 2.135 1_545 S
O34 Co33 2.061 . S
O34 C37 1.235 1_545 S
C35 O38 1.238 . S
C35 O39 1.241 1_565 S
C36 O29 1.247 . S
C36 O30 1.261 . S
C37 O32 1.259 . S
C37 O34 1.235 1_565 S
O38 Co28 2.021 . S
O38 C35 1.238 . S
O39 Co33 2.052 . S
O39 C35 1.241 1_545 S
O40 Co28 2.137 . S
O40 C31 1.247 . S
O41 Co28 2.244 . S
O41 C31 1.272 . S
O41 Co33 2.135 1_565 S
Co42 O43 2.216 . S
Co42 O44 2.091 . S
Co42 O46 2.004 . S
Co42 O52 2.021 . S
Co42 O54 2.137 . S
Co42 O55 2.244 . S
O43 Co42 2.216 . S
O43 C50 1.247 . S
O44 Co42 2.091 . S
O44 C50 1.261 . S
C45 O54 1.247 . S
C45 O55 1.272 . S
O46 Co42 2.004 . S
O46 C51 1.259 . S
Co47 O48 2.061 . S
Co47 O53 2.052 . S
Co47 O55 2.135 . S
O48 Co47 2.061 . S
O48 C51 1.235 . S
C49 O52 1.238 1_556 S
C49 O53 1.241 1_556 S
C50 O43 1.247 . S
C50 O44 1.261 . S
C51 O46 1.259 . S
C51 O48 1.235 . S
O52 Co42 2.021 . S
O52 C49 1.238 1_554 S
O53 Co47 2.052 . S
O53 C49 1.241 1_554 S
O54 Co42 2.137 . S
O54 C45 1.247 . S
O55 Co42 2.244 . S
O55 C45 1.272 . S
O55 Co47 2.135 . S
Co56 O57 2.216 . S
Co56 O58 2.091 . S
Co56 O60 2.004 . S
Co56 O66 2.021 . S
Co56 O68 2.137 . S
Co56 O69 2.244 . S
O57 Co56 2.216 . S
O57 C64 1.247 . S
O58 Co56 2.091 . S
O58 C64 1.261 . S
C59 O68 1.247 . S
C59 O69 1.272 . S
O60 Co56 2.004 . S
O60 C65 1.259 . S
Co61 O62 2.061 . S
Co61 O67 2.052 . S
Co61 O69 2.135 1_655 S
O62 Co61 2.061 . S
O62 C65 1.235 1_655 S
C63 O66 1.238 . S
C63 O67 1.241 1_455 S
C64 O57 1.247 . S
C64 O58 1.261 . S
C65 O60 1.259 . S
C65 O62 1.235 1_455 S
O66 Co56 2.021 . S
O66 C63 1.238 . S
O67 Co61 2.052 . S
O67 C63 1.241 1_655 S
O68 Co56 2.137 . S
O68 C59 1.247 . S
O69 Co56 2.244 . S
O69 C59 1.272 . S
O69 Co61 2.135 1_455 S
Co70 O71 2.216 . S
Co70 O72 2.091 . S
Co70 O74 2.004 . S
Co70 O80 2.021 . S
Co70 O82 2.137 . S
Co70 O83 2.244 . S
O71 Co70 2.216 . S
O71 C78 1.247 . S
O72 Co70 2.091 . S
O72 C78 1.261 . S
C73 O82 1.247 . S
C73 O83 1.272 . S
O74 Co70 2.004 . S
O74 C79 1.259 . S
Co75 O76 2.061 . S
Co75 O81 2.052 . S
Co75 O83 2.135 1_565 S
O76 Co75 2.061 . S
O76 C79 1.235 1_565 S
C77 O80 1.238 . S
C77 O81 1.241 1_545 S
C78 O71 1.247 . S
C78 O72 1.261 . S
C79 O74 1.259 . S
C79 O76 1.235 1_545 S
O80 Co70 2.021 . S
O80 C77 1.238 . S
O81 Co75 2.052 . S
O81 C77 1.241 1_565 S
O82 Co70 2.137 . S
O82 C73 1.247 . S
O83 Co70 2.244 . S
O83 C73 1.272 . S
O83 Co75 2.135 1_545 S
Co84 O85 2.216 . S
Co84 O86 2.091 . S
Co84 O88 2.004 . S
Co84 O94 2.021 . S
Co84 O96 2.137 . S
Co84 O97 2.244 . S
O85 Co84 2.216 . S
O85 C92 1.247 . S
O86 Co84 2.091 . S
O86 C92 1.261 . S
C87 O96 1.247 . S
C87 O97 1.272 . S
O88 Co84 2.004 . S
O88 C93 1.259 . S
Co89 O90 2.061 . S
Co89 O95 2.052 . S
Co89 O97 2.135 . S
O90 Co89 2.061 . S
O90 C93 1.235 . S
C91 O94 1.238 . S
C91 O95 1.241 . S
C92 O85 1.247 . S
C92 O86 1.261 . S
C93 O88 1.259 . S
C93 O90 1.235 . S
O94 Co84 2.021 . S
O94 C91 1.238 . S
O95 Co89 2.052 . S
O95 C91 1.241 . S
O96 Co84 2.137 . S
O96 C87 1.247 . S
O97 Co84 2.244 . S
O97 C87 1.272 . S
O97 Co89 2.135 . S
Co98 O99 2.216 . S
Co98 O100 2.091 . S
Co98 O102 2.004 . S
Co98 O108 2.021 . S
Co98 O110 2.137 . S
Co98 O111 2.244 . S
O99 Co98 2.216 . S
O99 C106 1.247 . S
O100 Co98 2.091 . S
O100 C106 1.261 . S
C101 O110 1.247 . S
C101 O111 1.272 . S
O102 Co98 2.004 . S
O102 C107 1.259 . S
Co103 O104 2.061 . S
Co103 O109 2.052 . S
Co103 O111 2.135 1_455 S
O104 Co103 2.061 . S
O104 C107 1.235 1_455 S
C105 O108 1.238 1_554 S
C105 O109 1.241 1_654 S
C106 O99 1.247 . S
C106 O100 1.261 . S
C107 O102 1.259 . S
C107 O104 1.235 1_655 S
O108 Co98 2.021 . S
O108 C105 1.238 1_556 S
O109 Co103 2.052 . S
O109 C105 1.241 1_456 S
O110 Co98 2.137 . S
O110 C101 1.247 . S
O111 Co98 2.244 . S
O111 C101 1.272 . S
O111 Co103 2.135 1_655 S
Co112 O113 2.216 . S
Co112 O114 2.091 . S
Co112 O116 2.004 . S
Co112 O122 2.021 . S
Co112 O124 2.137 . S
Co112 O125 2.244 . S
O113 Co112 2.216 . S
O113 C120 1.247 . S
O114 Co112 2.091 . S
O114 C120 1.261 . S
C115 O124 1.247 . S
C115 O125 1.272 . S
O116 Co112 2.004 . S
O116 C121 1.259 . S
Co117 O118 2.061 . S
Co117 O123 2.052 . S
Co117 O125 2.135 1_545 S
O118 Co117 2.061 . S
O118 C121 1.235 1_545 S
C119 O122 1.238 . S
C119 O123 1.241 1_565 S
C120 O113 1.247 . S
C120 O114 1.261 . S
C121 O116 1.259 . S
C121 O118 1.235 1_565 S
O122 Co112 2.021 . S
O122 C119 1.238 . S
O123 Co117 2.052 . S
O123 C119 1.241 1_545 S
O124 Co112 2.137 . S
O124 C115 1.247 . S
O125 Co112 2.244 . S
O125 C115 1.272 . S
O125 Co117 2.135 1_565 S
Co126 O127 2.216 . S
Co126 O128 2.091 . S
Co126 O130 2.004 . S
Co126 O136 2.021 . S
Co126 O138 2.137 . S
Co126 O139 2.244 . S
O127 Co126 2.216 . S
O127 C134 1.247 . S
O128 Co126 2.091 . S
O128 C134 1.261 . S
C129 O138 1.247 . S
C129 O139 1.272 . S
O130 Co126 2.004 . S
O130 C135 1.259 . S
Co131 O132 2.061 . S
Co131 O137 2.052 . S
Co131 O139 2.135 . S
O132 Co131 2.061 . S
O132 C135 1.235 . S
C133 O136 1.238 . S
C133 O137 1.241 . S
C134 O127 1.247 . S
C134 O128 1.261 . S
C135 O130 1.259 . S
C135 O132 1.235 . S
O136 Co126 2.021 . S
O136 C133 1.238 . S
O137 Co131 2.052 . S
O137 C133 1.241 . S
O138 Co126 2.137 . S
O138 C129 1.247 . S
O139 Co126 2.244 . S
O139 C129 1.272 . S
O139 Co131 2.135 . S
Co140 O141 2.216 . S
Co140 O142 2.091 . S
Co140 O144 2.004 . S
Co140 O150 2.021 . S
Co140 O152 2.137 . S
Co140 O153 2.244 . S
O141 Co140 2.216 . S
O141 C148 1.247 . S
O142 Co140 2.091 . S
O142 C148 1.261 . S
C143 O152 1.247 . S
C143 O153 1.272 . S
O144 Co140 2.004 . S
O144 C149 1.259 . S
Co145 O146 2.061 . S
Co145 O151 2.052 . S
Co145 O153 2.135 1_655 S
O146 Co145 2.061 . S
O146 C149 1.235 1_655 S
C147 O150 1.238 1_554 S
C147 O151 1.241 1_454 S
C148 O141 1.247 . S
C148 O142 1.261 . S
C149 O144 1.259 . S
C149 O146 1.235 1_455 S
O150 Co140 2.021 . S
O150 C147 1.238 1_556 S
O151 Co145 2.052 . S
O151 C147 1.241 1_656 S
O152 Co140 2.137 . S
O152 C143 1.247 . S
O153 Co140 2.244 . S
O153 C143 1.272 . S
O153 Co145 2.135 1_455 S
Co154 O155 2.216 . S
Co154 O156 2.091 . S
Co154 O158 2.004 . S
Co154 O164 2.021 . S
Co154 O166 2.137 . S
Co154 O167 2.244 . S
O155 Co154 2.216 . S
O155 C162 1.247 . S
O156 Co154 2.091 . S
O156 C162 1.261 . S
C157 O166 1.247 . S
C157 O167 1.272 . S
O158 Co154 2.004 . S
O158 C163 1.259 . S
Co159 O160 2.061 . S
Co159 O165 2.052 . S
Co159 O167 2.135 1_565 S
O160 Co159 2.061 . S
O160 C163 1.235 1_565 S
C161 O164 1.238 . S
C161 O165 1.241 1_545 S
C162 O155 1.247 . S
C162 O156 1.261 . S
C163 O158 1.259 . S
C163 O160 1.235 1_545 S
O164 Co154 2.021 . S
O164 C161 1.238 . S
O165 Co159 2.052 . S
O165 C161 1.241 1_565 S
O166 Co154 2.137 . S
O166 C157 1.247 . S
O167 Co154 2.244 . S
O167 C157 1.272 . S
O167 Co159 2.135 1_545 S
H168 C180 0.930 . S
H169 C182 0.930 . S
H170 C183 0.930 . S
H171 C187 0.959 . S
H172 C187 0.959 . S
H173 C187 0.961 . S
H174 C188 0.960 . S
H175 C188 0.961 . S
H176 C188 0.959 . S
H177 C191 0.929 . S
H178 C192 0.931 . S
H179 C194 0.930 . S
C180 H168 0.930 . S
C180 C181 1.399 . S
C180 C185 1.399 . S
C181 C180 1.399 . S
C181 C182 1.376 . S
C182 H169 0.930 . S
C182 C181 1.376 . S
C182 C183 1.388 . S
C183 H170 0.930 . S
C183 C182 1.388 . S
C183 C184 1.390 . S
C184 C183 1.390 . S
C184 C185 1.394 . S
C184 C190 1.465 . S
C185 C180 1.399 . S
C185 C184 1.394 . S
C185 C186 1.516 . S
C186 C185 1.516 . S
C186 C187 1.502 . S
C186 C188 1.561 . S
C186 C189 1.526 . S
C187 H171 0.959 . S
C187 H172 0.959 . S
C187 H173 0.961 . S
C187 C186 1.502 . S
C188 H174 0.960 . S
C188 H175 0.961 . S
C188 H176 0.959 . S
C188 C186 1.561 . S
C189 C186 1.526 . S
C189 C190 1.396 . S
C189 C194 1.390 . S
C190 C184 1.465 . S
C190 C189 1.396 . S
C190 C191 1.399 . S
C191 H177 0.929 . S
C191 C190 1.399 . S
C191 C192 1.385 . S
C192 H178 0.931 . S
C192 C191 1.385 . S
C192 C193 1.389 . S
C193 C192 1.389 . S
C193 C194 1.387 . S
C194 H179 0.930 . S
C194 C189 1.390 . S
C194 C193 1.387 . S
H195 C207 0.930 . S
H196 C209 0.930 . S
H197 C210 0.930 . S
H198 C214 0.959 . S
H199 C214 0.959 . S
H200 C214 0.961 . S
H201 C215 0.960 . S
H202 C215 0.961 . S
H203 C215 0.959 1_655 S
H204 C218 0.929 . S
H205 C219 0.931 . S
H206 C221 0.930 . S
C207 H195 0.930 . S
C207 C208 1.399 1_455 S
C207 C212 1.399 . S
C208 C207 1.399 1_655 S
C208 C209 1.376 . S
C209 H196 0.930 . S
C209 C208 1.376 . S
C209 C210 1.388 . S
C210 H197 0.930 . S
C210 C209 1.388 . S
C210 C211 1.390 . S
C211 C210 1.390 . S
C211 C212 1.394 1_655 S
C211 C217 1.465 . S
C212 C207 1.399 . S
C212 C211 1.394 1_455 S
C212 C213 1.516 . S
C213 C212 1.516 . S
C213 C214 1.502 . S
C213 C215 1.561 . S
C213 C216 1.526 . S
C214 H198 0.959 . S
C214 H199 0.959 . S
C214 H200 0.961 . S
C214 C213 1.502 . S
C215 H201 0.960 . S
C215 H202 0.961 . S
C215 H203 0.959 1_455 S
C215 C213 1.561 . S
C216 C213 1.526 . S
C216 C217 1.396 1_455 S
C216 C221 1.390 . S
C217 C211 1.465 . S
C217 C216 1.396 1_655 S
C217 C218 1.399 . S
C218 H204 0.929 . S
C218 C217 1.399 . S
C218 C219 1.385 . S
C219 H205 0.931 . S
C219 C218 1.385 . S
C219 C220 1.389 1_655 S
C220 C219 1.389 1_455 S
C220 C221 1.387 . S
C221 H206 0.930 . S
C221 C216 1.390 . S
C221 C220 1.387 . S
H222 C234 0.930 . S
H223 C236 0.930 . S
H224 C237 0.930 . S
H225 C241 0.959 . S
H226 C241 0.959 . S
H227 C241 0.961 1_556 S
H228 C242 0.960 1_556 S
H229 C242 0.961 . S
H230 C242 0.959 . S
H231 C245 0.929 . S
H232 C246 0.931 . S
H233 C248 0.930 . S
C234 H222 0.930 . S
C234 C235 1.399 . S
C234 C239 1.399 . S
C235 C234 1.399 . S
C235 C236 1.376 1_565 S
C236 H223 0.930 . S
C236 C235 1.376 1_545 S
C236 C237 1.388 . S
C237 H224 0.930 . S
C237 C236 1.388 . S
C237 C238 1.390 . S
C238 C237 1.390 . S
C238 C239 1.394 1_545 S
C238 C244 1.465 1_556 S
C239 C234 1.399 . S
C239 C238 1.394 1_565 S
C239 C240 1.516 1_556 S
C240 C239 1.516 1_554 S
C240 C241 1.502 . S
C240 C242 1.561 . S
C240 C243 1.526 . S
C241 H225 0.959 . S
C241 H226 0.959 . S
C241 H227 0.961 1_554 S
C241 C240 1.502 . S
C242 H228 0.960 1_554 S
C242 H229 0.961 . S
C242 H230 0.959 . S
C242 C240 1.561 . S
C243 C240 1.526 . S
C243 C244 1.396 1_565 S
C243 C248 1.390 . S
C244 C238 1.465 1_554 S
C244 C243 1.396 1_545 S
C244 C245 1.399 . S
C245 H231 0.929 . S
C245 C244 1.399 . S
C245 C246 1.385 . S
C246 H232 0.931 . S
C246 C245 1.385 . S
C246 C247 1.389 . S
C247 C246 1.389 . S
C247 C248 1.387 1_545 S
C248 H233 0.930 . S
C248 C243 1.390 . S
C248 C247 1.387 1_565 S
H249 C261 0.930 . S
H250 C263 0.930 . S
H251 C264 0.930 . S
H252 C268 0.959 . S
H253 C268 0.959 . S
H254 C268 0.961 . S
H255 C269 0.960 . S
H256 C269 0.961 . S
H257 C269 0.959 . S
H258 C272 0.929 . S
H259 C273 0.931 . S
H260 C275 0.930 . S
C261 H249 0.930 . S
C261 C262 1.399 . S
C261 C266 1.399 . S
C262 C261 1.399 . S
C262 C263 1.376 . S
C263 H250 0.930 . S
C263 C262 1.376 . S
C263 C264 1.388 . S
C264 H251 0.930 . S
C264 C263 1.388 . S
C264 C265 1.390 . S
C265 C264 1.390 . S
C265 C266 1.394 . S
C265 C271 1.465 . S
C266 C261 1.399 . S
C266 C265 1.394 . S
C266 C267 1.516 . S
C267 C266 1.516 . S
C267 C268 1.502 . S
C267 C269 1.561 . S
C267 C270 1.526 . S
C268 H252 0.959 . S
C268 H253 0.959 . S
C268 H254 0.961 . S
C268 C267 1.502 . S
C269 H255 0.960 . S
C269 H256 0.961 . S
C269 H257 0.959 . S
C269 C267 1.561 . S
C270 C267 1.526 . S
C270 C271 1.396 . S
C270 C275 1.390 . S
C271 C265 1.465 . S
C271 C270 1.396 . S
C271 C272 1.399 . S
C272 H258 0.929 . S
C272 C271 1.399 . S
C272 C273 1.385 . S
C273 H259 0.931 . S
C273 C272 1.385 . S
C273 C274 1.389 . S
C274 C273 1.389 . S
C274 C275 1.387 . S
C275 H260 0.930 . S
C275 C270 1.390 . S
C275 C274 1.387 . S
H276 C288 0.930 . S
H277 C290 0.930 . S
H278 C291 0.930 . S
H279 C295 0.959 . S
H280 C295 0.959 . S
H281 C295 0.961 . S
H282 C296 0.960 . S
H283 C296 0.961 . S
H284 C296 0.959 . S
H285 C299 0.929 . S
H286 C300 0.931 . S
H287 C302 0.919 1_655 S
C288 H276 0.930 . S
C288 C289 1.399 . S
C288 C293 1.399 . S
C289 C288 1.399 . S
C289 C290 1.376 1_655 S
C290 H277 0.930 . S
C290 C289 1.376 1_455 S
C290 C291 1.388 . S
C291 H278 0.930 . S
C291 C290 1.388 . S
C291 C292 1.390 . S
C292 C291 1.390 . S
C292 C293 1.394 1_455 S
C292 C298 1.465 . S
C293 C288 1.399 . S
C293 C292 1.394 1_655 S
C293 C294 1.516 . S
C294 C293 1.516 . S
C294 C295 1.502 . S
C294 C296 1.561 1_655 S
C294 C297 1.534 . S
C295 H279 0.959 . S
C295 H280 0.959 . S
C295 H281 0.961 . S
C295 C294 1.502 . S
C296 H282 0.960 . S
C296 H283 0.961 . S
C296 H284 0.959 . S
C296 C294 1.561 1_455 S
C297 C294 1.534 . S
C297 C298 1.387 1_655 S
C297 C302 1.391 1_655 S
C298 C292 1.465 . S
C298 C297 1.387 1_455 S
C298 C299 1.399 . S
C299 H285 0.929 . S
C299 C298 1.399 . S
C299 C300 1.385 . S
C300 H286 0.931 . S
C300 C299 1.385 . S
C300 C301 1.389 . S
C301 C300 1.389 . S
C301 C302 1.397 . S
C302 H287 0.919 1_455 S
C302 C297 1.391 1_455 S
C302 C301 1.397 . S
H303 C315 0.930 . S
H304 C317 0.930 . S
H305 C318 0.930 . S
H306 C322 0.959 . S
H307 C322 0.959 1_556 S
H308 C322 0.961 . S
H309 C323 0.960 . S
H310 C323 0.961 1_556 S
H311 C323 0.959 . S
H312 C326 0.929 . S
H313 C327 0.931 . S
H314 C329 0.930 . S
C315 H303 0.930 . S
C315 C316 1.399 1_545 S
C315 C320 1.399 . S
C316 C315 1.399 1_565 S
C316 C317 1.376 . S
C317 H304 0.930 . S
C317 C316 1.376 . S
C317 C318 1.388 . S
C318 H305 0.930 . S
C318 C317 1.388 . S
C318 C319 1.390 . S
C319 C318 1.390 . S
C319 C320 1.394 1_565 S
C319 C325 1.465 1_554 S
C320 C315 1.399 . S
C320 C319 1.394 1_545 S
C320 C321 1.516 . S
C321 C320 1.516 . S
C321 C322 1.502 . S
C321 C323 1.561 . S
C321 C324 1.526 1_554 S
C322 H306 0.959 . S
C322 H307 0.959 1_554 S
C322 H308 0.961 . S
C322 C321 1.502 . S
C323 H309 0.960 . S
C323 H310 0.961 1_554 S
C323 H311 0.959 . S
C323 C321 1.561 . S
C324 C321 1.526 1_556 S
C324 C325 1.396 1_545 S
C324 C329 1.390 . S
C325 C319 1.465 1_556 S
C325 C324 1.396 1_565 S
C325 C326 1.399 . S
C326 H312 0.929 . S
C326 C325 1.399 . S
C326 C327 1.385 . S
C327 H313 0.931 . S
C327 C326 1.385 . S
C327 C328 1.389 1_565 S
C328 C327 1.389 1_545 S
C328 C329 1.387 . S
C329 H314 0.930 . S
C329 C324 1.390 . S
C329 C328 1.387 . S
H330 C342 0.930 . S
H331 C344 0.930 . S
H332 C345 0.930 . S
H333 C349 0.959 . S
H334 C349 0.959 . S
H335 C349 0.961 . S
H336 C350 0.960 . S
H337 C350 0.961 . S
H338 C350 0.959 . S
H339 C353 0.929 . S
H340 C354 0.931 . S
H341 C356 0.930 . S
C342 H330 0.930 . S
C342 C343 1.399 . S
C342 C347 1.399 . S
C343 C342 1.399 . S
C343 C344 1.376 . S
C344 H331 0.930 . S
C344 C343 1.376 . S
C344 C345 1.388 . S
C345 H332 0.930 . S
C345 C344 1.388 . S
C345 C346 1.390 . S
C346 C345 1.390 . S
C346 C347 1.394 . S
C346 C352 1.465 . S
C347 C342 1.399 . S
C347 C346 1.394 . S
C347 C348 1.516 1_556 S
C348 C347 1.516 1_554 S
C348 C349 1.502 . S
C348 C350 1.561 1_554 S
C348 C351 1.526 . S
C349 H333 0.959 . S
C349 H334 0.959 . S
C349 H335 0.961 . S
C349 C348 1.502 . S
C350 H336 0.960 . S
C350 H337 0.961 . S
C350 H338 0.959 . S
C350 C348 1.561 1_556 S
C351 C348 1.526 . S
C351 C352 1.396 1_554 S
C351 C356 1.390 . S
C352 C346 1.465 . S
C352 C351 1.396 1_556 S
C352 C353 1.399 . S
C353 H339 0.929 . S
C353 C352 1.399 . S
C353 C354 1.385 1_556 S
C354 H340 0.931 . S
C354 C353 1.385 1_554 S
C354 C355 1.389 . S
C355 C354 1.389 . S
C355 C356 1.387 . S
C356 H341 0.930 . S
C356 C351 1.390 . S
C356 C355 1.387 . S
H357 C369 0.930 . S
H358 C371 0.930 . S
H359 C372 0.930 . S
H360 C376 0.959 . S
H361 C376 0.959 . S
H362 C376 0.961 . S
H363 C377 0.960 . S
H364 C377 0.961 . S
H365 C377 0.959 . S
H366 C380 0.929 . S
H367 C381 0.931 . S
H368 C383 0.930 . S
C369 H357 0.930 . S
C369 C370 1.399 . S
C369 C374 1.399 . S
C370 C369 1.399 . S
C370 C371 1.376 . S
C371 H358 0.930 . S
C371 C370 1.376 . S
C371 C372 1.388 . S
C372 H359 0.930 . S
C372 C371 1.388 . S
C372 C373 1.390 . S
C373 C372 1.390 . S
C373 C374 1.394 . S
C373 C379 1.465 . S
C374 C369 1.399 . S
C374 C373 1.394 . S
C374 C375 1.516 . S
C375 C374 1.516 . S
C375 C376 1.502 . S
C375 C377 1.561 . S
C375 C378 1.526 . S
C376 H360 0.959 . S
C376 H361 0.959 . S
C376 H362 0.961 . S
C376 C375 1.502 . S
C377 H363 0.960 . S
C377 H364 0.961 . S
C377 H365 0.959 . S
C377 C375 1.561 . S
C378 C375 1.526 . S
C378 C379 1.396 . S
C378 C383 1.390 . S
C379 C373 1.465 . S
C379 C378 1.396 . S
C379 C380 1.399 . S
C380 H366 0.929 . S
C380 C379 1.399 . S
C380 C381 1.385 . S
C381 H367 0.931 . S
C381 C380 1.385 . S
C381 C382 1.389 . S
C382 C381 1.389 . S
C382 C383 1.387 . S
C383 H368 0.930 . S
C383 C378 1.390 . S
C383 C382 1.387 . S
H384 C396 0.930 . S
H385 C398 0.930 . S
H386 C399 0.930 . S
H387 C403 0.959 . S
H388 C403 0.959 . S
H389 C403 0.961 . S
H390 C404 0.960 . S
H391 C404 0.961 . S
H392 C404 0.959 . S
H393 C407 0.929 . S
H394 C408 0.931 . S
H395 C410 0.930 . S
C396 H384 0.930 . S
C396 C397 1.399 . S
C396 C401 1.399 . S
C397 C396 1.399 . S
C397 C398 1.376 . S
C398 H385 0.930 . S
C398 C397 1.376 . S
C398 C399 1.388 . S
C399 H386 0.930 . S
C399 C398 1.388 . S
C399 C400 1.390 . S
C400 C399 1.390 . S
C400 C401 1.394 . S
C400 C406 1.465 . S
C401 C396 1.399 . S
C401 C400 1.394 . S
C401 C402 1.516 . S
C402 C401 1.516 . S
C402 C403 1.502 . S
C402 C404 1.561 . S
C402 C405 1.526 . S
C403 H387 0.959 . S
C403 H388 0.959 . S
C403 H389 0.961 . S
C403 C402 1.502 . S
C404 H390 0.960 . S
C404 H391 0.961 . S
C404 H392 0.959 . S
C404 C402 1.561 . S
C405 C402 1.526 . S
C405 C406 1.396 . S
C405 C410 1.390 . S
C406 C400 1.465 . S
C406 C405 1.396 . S
C406 C407 1.399 . S
C407 H393 0.929 . S
C407 C406 1.399 . S
C407 C408 1.385 . S
C408 H394 0.931 . S
C408 C407 1.385 . S
C408 C409 1.389 . S
C409 C408 1.389 . S
C409 C410 1.387 . S
C410 H395 0.930 . S
C410 C405 1.390 . S
C410 C409 1.387 . S
H411 C423 0.930 . S
H412 C425 0.930 . S
H413 C426 0.930 . S
H414 C430 0.959 . S
H415 C430 0.959 1_556 S
H416 C430 0.961 . S
H417 C431 0.960 . S
H418 C431 0.961 . S
H419 C431 0.959 . S
H420 C434 0.929 1_554 S
H421 C435 0.931 . S
H422 C437 0.930 . S
C423 H411 0.930 . S
C423 C424 1.399 . S
C423 C428 1.399 . S
C424 C423 1.399 . S
C424 C425 1.376 . S
C425 H412 0.930 . S
C425 C424 1.376 . S
C425 C426 1.388 . S
C426 H413 0.930 . S
C426 C425 1.388 . S
C426 C427 1.390 . S
C427 C426 1.390 . S
C427 C428 1.394 . S
C427 C433 1.465 1_554 S
C428 C423 1.399 . S
C428 C427 1.394 . S
C428 C429 1.516 1_554 S
C429 C428 1.516 1_556 S
C429 C430 1.502 1_556 S
C429 C431 1.561 . S
C429 C432 1.526 . S
C430 H414 0.959 . S
C430 H415 0.959 1_554 S
C430 H416 0.961 . S
C430 C429 1.502 1_554 S
C431 H417 0.960 . S
C431 H418 0.961 . S
C431 H419 0.959 . S
C431 C429 1.561 . S
C432 C429 1.526 . S
C432 C433 1.396 . S
C432 C437 1.390 . S
C433 C427 1.465 1_556 S
C433 C432 1.396 . S
C433 C434 1.399 . S
C434 H420 0.929 1_556 S
C434 C433 1.399 . S
C434 C435 1.385 . S
C435 H421 0.931 . S
C435 C434 1.385 . S
C435 C436 1.389 . S
C436 C435 1.389 . S
C436 C437 1.387 . S
C437 H422 0.930 . S
C437 C432 1.390 . S
C437 C436 1.387 . S
H438 C450 0.930 . S
H439 C452 0.930 . S
H440 C453 0.930 . S
H441 C457 0.959 . S
H442 C457 0.959 . S
H443 C457 0.961 . S
H444 C458 0.960 . S
H445 C458 0.961 . S
H446 C458 0.959 . S
H447 C461 0.929 . S
H448 C462 0.931 . S
H449 C464 0.930 . S
C450 H438 0.930 . S
C450 C451 1.399 . S
C450 C455 1.399 . S
C451 C450 1.399 . S
C451 C452 1.376 . S
C452 H439 0.930 . S
C452 C451 1.376 . S
C452 C453 1.388 . S
C453 H440 0.930 . S
C453 C452 1.388 . S
C453 C454 1.390 . S
C454 C453 1.390 . S
C454 C455 1.394 . S
C454 C460 1.465 . S
C455 C450 1.399 . S
C455 C454 1.394 . S
C455 C456 1.516 . S
C456 C455 1.516 . S
C456 C457 1.502 . S
C456 C458 1.561 . S
C456 C459 1.526 . S
C457 H441 0.959 . S
C457 H442 0.959 . S
C457 H443 0.961 . S
C457 C456 1.502 . S
C458 H444 0.960 . S
C458 H445 0.961 . S
C458 H446 0.959 . S
C458 C456 1.561 . S
C459 C456 1.526 . S
C459 C460 1.396 . S
C459 C464 1.390 . S
C460 C454 1.465 . S
C460 C459 1.396 . S
C460 C461 1.399 . S
C461 H447 0.929 . S
C461 C460 1.399 . S
C461 C462 1.385 . S
C462 H448 0.931 . S
C462 C461 1.385 . S
C462 C463 1.389 . S
C463 C462 1.389 . S
C463 C464 1.387 . S
C464 H449 0.930 . S
C464 C459 1.390 . S
C464 C463 1.387 . S
H465 C477 0.930 . S
H466 C479 0.930 . S
H467 C480 0.930 . S
H468 C484 0.959 . S
H469 C484 0.959 . S
H470 C484 0.961 . S
H471 C485 0.960 . S
H472 C485 0.961 . S
H473 C485 0.959 . S
H474 C488 0.929 . S
H475 C489 0.931 . S
H476 C491 0.930 . S
C477 H465 0.930 . S
C477 C478 1.399 . S
C477 C482 1.399 . S
C478 C477 1.399 . S
C478 C479 1.376 . S
C479 H466 0.930 . S
C479 C478 1.376 . S
C479 C480 1.388 . S
C480 H467 0.930 . S
C480 C479 1.388 . S
C480 C481 1.390 . S
C481 C480 1.390 . S
C481 C482 1.394 . S
C481 C487 1.465 . S
C482 C477 1.399 . S
C482 C481 1.394 . S
C482 C483 1.516 . S
C483 C482 1.516 . S
C483 C484 1.502 . S
C483 C485 1.561 . S
C483 C486 1.526 . S
C484 H468 0.959 . S
C484 H469 0.959 . S
C484 H470 0.961 . S
C484 C483 1.502 . S
C485 H471 0.960 . S
C485 H472 0.961 . S
C485 H473 0.959 . S
C485 C483 1.561 . S
C486 C483 1.526 . S
C486 C487 1.396 . S
C486 C491 1.390 . S
C487 C481 1.465 . S
C487 C486 1.396 . S
C487 C488 1.399 . S
C488 H474 0.929 . S
C488 C487 1.399 . S
C488 C489 1.385 . S
C489 H475 0.931 . S
C489 C488 1.385 . S
C489 C490 1.389 . S
C490 C489 1.389 . S
C490 C491 1.387 . S
C491 H476 0.930 . S
C491 C486 1.390 . S
C491 C490 1.387 . S
H492 C504 0.930 . S
H493 C506 0.930 . S
H494 C507 0.930 . S
H495 C511 0.959 . S
H496 C511 0.959 . S
H497 C511 0.961 . S
H498 C512 0.960 . S
H499 C512 0.961 . S
H500 C512 0.959 . S
H501 C515 0.929 . S
H502 C516 0.931 . S
H503 C518 0.930 . S
C504 H492 0.930 . S
C504 C505 1.399 . S
C504 C509 1.399 . S
C505 C504 1.399 . S
C505 C506 1.376 . S
C506 H493 0.930 . S
C506 C505 1.376 . S
C506 C507 1.388 . S
C507 H494 0.930 . S
C507 C506 1.388 . S
C507 C508 1.390 . S
C508 C507 1.390 . S
C508 C509 1.394 . S
C508 C514 1.465 . S
C509 C504 1.399 . S
C509 C508 1.394 . S
C509 C510 1.516 . S
C510 C509 1.516 . S
C510 C511 1.502 . S
C510 C512 1.561 . S
C510 C513 1.526 . S
C511 H495 0.959 . S
C511 H496 0.959 . S
C511 H497 0.961 . S
C511 C510 1.502 . S
C512 H498 0.960 . S
C512 H499 0.961 . S
C512 H500 0.959 . S
C512 C510 1.561 . S
C513 C510 1.526 . S
C513 C514 1.396 . S
C513 C518 1.390 . S
C514 C508 1.465 . S
C514 C513 1.396 . S
C514 C515 1.399 . S
C515 H501 0.929 . S
C515 C514 1.399 . S
C515 C516 1.385 . S
C516 H502 0.931 . S
C516 C515 1.385 . S
C516 C517 1.389 . S
C517 C516 1.389 . S
C517 C518 1.387 . S
C518 H503 0.930 . S
C518 C513 1.390 . S
C518 C517 1.387 . S
H519 C531 0.930 . S
H520 C533 0.930 . S
H521 C534 0.930 . S
H522 C538 0.959 . S
H523 C538 0.959 . S
H524 C538 0.961 . S
H525 C539 0.960 . S
H526 C539 0.961 . S
H527 C539 0.959 . S
H528 C542 0.929 . S
H529 C543 0.922 . S
H530 C545 0.930 . S
C531 H519 0.930 . S
C531 C532 1.399 1_455 S
C531 C536 1.399 . S
C532 C531 1.399 1_655 S
C532 C533 1.376 . S
C533 H520 0.930 . S
C533 C532 1.376 . S
C533 C534 1.388 . S
C534 H521 0.930 . S
C534 C533 1.388 . S
C534 C535 1.386 . S
C535 C534 1.386 . S
C535 C536 1.400 1_655 S
C535 C541 1.464 1_655 S
C536 C531 1.399 . S
C536 C535 1.400 1_455 S
C536 C537 1.516 . S
C537 C536 1.516 . S
C537 C538 1.502 1_455 S
C537 C539 1.561 . S
C537 C540 1.526 . S
C538 H522 0.959 . S
C538 H523 0.959 . S
C538 H524 0.961 . S
C538 C537 1.502 1_655 S
C539 H525 0.960 . S
C539 H526 0.961 . S
C539 H527 0.959 . S
C539 C537 1.561 . S
C540 C537 1.526 . S
C540 C541 1.383 . S
C540 C545 1.390 . S
C541 C535 1.464 1_455 S
C541 C540 1.383 . S
C541 C542 1.412 1_455 S
C542 H528 0.929 . S
C542 C541 1.412 1_655 S
C542 C543 1.383 . S
C543 H529 0.922 . S
C543 C542 1.383 . S
C543 C544 1.402 1_655 S
C544 C543 1.402 1_455 S
C544 C545 1.387 . S
C545 H530 0.930 . S
C545 C540 1.390 . S
C545 C544 1.387 . S
H546 C558 0.930 . S
H547 C560 0.930 . S
H548 C561 0.930 . S
H549 C565 0.959 1_565 S
H550 C565 0.959 . S
H551 C565 0.961 . S
H552 C566 0.960 . S
H553 C566 0.961 . S
H554 C566 0.959 . S
H555 C569 0.929 . S
H556 C570 0.931 . S
H557 C572 0.930 . S
C558 H546 0.930 . S
C558 C559 1.399 1_545 S
C558 C563 1.399 . S
C559 C558 1.399 1_565 S
C559 C560 1.376 . S
C560 H547 0.930 . S
C560 C559 1.376 . S
C560 C561 1.388 . S
C561 H548 0.930 . S
C561 C560 1.388 . S
C561 C562 1.390 . S
C562 C561 1.390 . S
C562 C563 1.394 1_565 S
C562 C568 1.465 . S
C563 C558 1.399 . S
C563 C562 1.394 1_545 S
C563 C564 1.516 . S
C564 C563 1.516 . S
C564 C565 1.502 . S
C564 C566 1.561 . S
C564 C567 1.526 . S
C565 H549 0.959 1_545 S
C565 H550 0.959 . S
C565 H551 0.961 . S
C565 C564 1.502 . S
C566 H552 0.960 . S
C566 H553 0.961 . S
C566 H554 0.959 . S
C566 C564 1.561 . S
C567 C564 1.526 . S
C567 C568 1.396 1_545 S
C567 C572 1.390 . S
C568 C562 1.465 . S
C568 C567 1.396 1_565 S
C568 C569 1.399 . S
C569 H555 0.929 . S
C569 C568 1.399 . S
C569 C570 1.385 . S
C570 H556 0.931 . S
C570 C569 1.385 . S
C570 C571 1.389 1_565 S
C571 C570 1.389 1_545 S
C571 C572 1.387 . S
C572 H557 0.930 . S
C572 C567 1.390 . S
C572 C571 1.387 . S
H573 C585 0.930 . S
H574 C587 0.930 . S
H575 C588 0.930 . S
H576 C592 0.959 . S
H577 C592 0.959 . S
H578 C592 0.961 . S
H579 C593 0.960 . S
H580 C593 0.961 . S
H581 C593 0.959 . S
H582 C596 0.929 . S
H583 C597 0.931 . S
H584 C599 0.930 . S
C585 H573 0.930 . S
C585 C586 1.399 . S
C585 C590 1.399 . S
C586 C585 1.399 . S
C586 C587 1.376 . S
C587 H574 0.930 . S
C587 C586 1.376 . S
C587 C588 1.388 . S
C588 H575 0.930 . S
C588 C587 1.388 . S
C588 C589 1.390 . S
C589 C588 1.390 . S
C589 C590 1.394 . S
C589 C595 1.465 . S
C590 C585 1.399 . S
C590 C589 1.394 . S
C590 C591 1.516 . S
C591 C590 1.516 . S
C591 C592 1.502 . S
C591 C593 1.561 . S
C591 C594 1.526 . S
C592 H576 0.959 . S
C592 H577 0.959 . S
C592 H578 0.961 . S
C592 C591 1.502 . S
C593 H579 0.960 . S
C593 H580 0.961 . S
C593 H581 0.959 . S
C593 C591 1.561 . S
C594 C591 1.526 . S
C594 C595 1.396 . S
C594 C599 1.390 . S
C595 C589 1.465 . S
C595 C594 1.396 . S
C595 C596 1.399 . S
C596 H582 0.929 . S
C596 C595 1.399 . S
C596 C597 1.385 . S
C597 H583 0.931 . S
C597 C596 1.385 . S
C597 C598 1.389 . S
C598 C597 1.389 . S
C598 C599 1.387 . S
C599 H584 0.930 . S
C599 C594 1.390 . S
C599 C598 1.387 . S
H600 C612 0.920 . S
H601 C614 0.930 . S
H602 C615 0.930 . S
H603 C619 0.959 . S
H604 C619 0.959 . S
H605 C619 0.961 . S
H606 C620 0.960 . S
H607 C620 0.961 . S
H608 C620 0.959 . S
H609 C623 0.922 . S
H610 C624 0.941 1_455 S
H611 C626 0.930 . S
C612 H600 0.920 . S
C612 C613 1.405 1_655 S
C612 C617 1.403 . S
C613 C612 1.405 1_455 S
C613 C614 1.376 . S
C614 H601 0.930 . S
C614 C613 1.376 . S
C614 C615 1.388 . S
C615 H602 0.930 . S
C615 C614 1.388 . S
C615 C616 1.393 1_455 S
C616 C615 1.393 1_655 S
C616 C617 1.389 . S
C616 C622 1.466 . S
C617 C612 1.403 . S
C617 C616 1.389 . S
C617 C618 1.516 . S
C618 C617 1.516 . S
C618 C619 1.502 1_655 S
C618 C620 1.561 . S
C618 C621 1.526 . S
C619 H603 0.959 . S
C619 H604 0.959 . S
C619 H605 0.961 . S
C619 C618 1.502 1_455 S
C620 H606 0.960 . S
C620 H607 0.961 . S
C620 H608 0.959 . S
C620 C618 1.561 . S
C621 C618 1.526 . S
C621 C622 1.396 . S
C621 C626 1.390 . S
C622 C616 1.466 . S
C622 C621 1.396 . S
C622 C623 1.405 1_655 S
C623 H609 0.922 . S
C623 C622 1.405 1_455 S
C623 C624 1.390 1_455 S
C624 H610 0.941 1_655 S
C624 C623 1.390 1_655 S
C624 C625 1.378 . S
C625 C624 1.378 . S
C625 C626 1.387 . S
C626 H611 0.930 . S
C626 C621 1.390 . S
C626 C625 1.387 . S
H627 C639 0.930 . S
H628 C641 0.930 . S
H629 C642 0.930 . S
H630 C646 0.959 . S
H631 C646 0.959 . S
H632 C646 0.961 . S
H633 C647 0.960 . S
H634 C647 0.961 . S
H635 C647 0.959 . S
H636 C650 0.929 . S
H637 C651 0.931 . S
H638 C653 0.930 . S
C639 H627 0.930 . S
C639 C640 1.399 . S
C639 C644 1.399 . S
C640 C639 1.399 . S
C640 C641 1.376 1_565 S
C641 H628 0.930 . S
C641 C640 1.376 1_545 S
C641 C642 1.388 . S
C642 H629 0.930 . S
C642 C641 1.388 . S
C642 C643 1.390 . S
C643 C642 1.390 . S
C643 C644 1.394 1_545 S
C643 C649 1.465 . S
C644 C639 1.399 . S
C644 C643 1.394 1_565 S
C644 C645 1.516 . S
C645 C644 1.516 . S
C645 C646 1.502 . S
C645 C647 1.561 . S
C645 C648 1.526 . S
C646 H630 0.959 . S
C646 H631 0.959 . S
C646 H632 0.961 . S
C646 C645 1.502 . S
C647 H633 0.960 . S
C647 H634 0.961 . S
C647 H635 0.959 . S
C647 C645 1.561 . S
C648 C645 1.526 . S
C648 C649 1.396 1_565 S
C648 C653 1.390 . S
C649 C643 1.465 . S
C649 C648 1.396 1_545 S
C649 C650 1.399 . S
C650 H636 0.929 . S
C650 C649 1.399 . S
C650 C651 1.385 . S
C651 H637 0.931 . S
C651 C650 1.385 . S
C651 C652 1.389 . S
C652 C651 1.389 . S
C652 C653 1.387 1_545 S
C653 H638 0.930 . S
C653 C648 1.390 . S
C653 C652 1.387 1_565 S
H654 C666 0.930 . S
H655 C668 0.930 . S
H656 C669 0.930 1_556 S
H657 C673 0.959 . S
H658 C673 0.959 . S
H659 C673 0.961 . S
H660 C674 0.960 . S
H661 C674 0.961 . S
H662 C674 0.959 . S
H663 C677 0.929 1_556 S
H664 C678 0.931 . S
H665 C680 0.930 . S
C666 H654 0.930 . S
C666 C667 1.399 . S
C666 C671 1.399 . S
C667 C666 1.399 . S
C667 C668 1.376 . S
C668 H655 0.930 . S
C668 C667 1.376 . S
C668 C669 1.388 . S
C669 H656 0.930 1_554 S
C669 C668 1.388 . S
C669 C670 1.390 . S
C670 C669 1.390 . S
C670 C671 1.394 . S
C670 C676 1.465 . S
C671 C666 1.399 . S
C671 C670 1.394 . S
C671 C672 1.516 . S
C672 C671 1.516 . S
C672 C673 1.502 . S
C672 C674 1.561 . S
C672 C675 1.526 . S
C673 H657 0.959 . S
C673 H658 0.959 . S
C673 H659 0.961 . S
C673 C672 1.502 . S
C674 H660 0.960 . S
C674 H661 0.961 . S
C674 H662 0.959 . S
C674 C672 1.561 . S
C675 C672 1.526 . S
C675 C676 1.396 . S
C675 C680 1.390 . S
C676 C670 1.465 . S
C676 C675 1.396 . S
C676 C677 1.399 . S
C677 H663 0.929 1_554 S
C677 C676 1.399 . S
C677 C678 1.385 . S
C678 H664 0.931 . S
C678 C677 1.385 . S
C678 C679 1.389 . S
C679 C678 1.389 . S
C679 C680 1.387 . S
C680 H665 0.930 . S
C680 C675 1.390 . S
C680 C679 1.387 . S
H681 C693 0.930 . S
H682 C695 0.930 . S
H683 C696 0.930 . S
H684 C700 0.959 . S
H685 C700 0.959 . S
H686 C700 0.961 . S
H687 C701 0.960 . S
H688 C701 0.961 . S
H689 C701 0.959 . S
H690 C704 0.929 . S
H691 C705 0.931 . S
H692 C707 0.930 . S
C693 H681 0.930 . S
C693 C694 1.399 . S
C693 C698 1.399 . S
C694 C693 1.399 . S
C694 C695 1.376 . S
C695 H682 0.930 . S
C695 C694 1.376 . S
C695 C696 1.388 1_455 S
C696 H683 0.930 . S
C696 C695 1.388 1_655 S
C696 C697 1.390 . S
C697 C696 1.390 . S
C697 C698 1.394 1_655 S
C697 C703 1.465 . S
C698 C693 1.399 . S
C698 C697 1.394 1_455 S
C698 C699 1.516 . S
C699 C698 1.516 . S
C699 C700 1.502 . S
C699 C701 1.561 1_455 S
C699 C702 1.526 1_455 S
C700 H684 0.959 . S
C700 H685 0.959 . S
C700 H686 0.961 . S
C700 C699 1.502 . S
C701 H687 0.960 . S
C701 H688 0.961 . S
C701 H689 0.959 . S
C701 C699 1.561 1_655 S
C702 C699 1.526 1_655 S
C702 C703 1.396 . S
C702 C707 1.390 . S
C703 C697 1.465 . S
C703 C702 1.396 . S
C703 C704 1.399 . S
C704 H690 0.929 . S
C704 C703 1.399 . S
C704 C705 1.385 . S
C705 H691 0.931 . S
C705 C704 1.385 . S
C705 C706 1.389 . S
C706 C705 1.389 . S
C706 C707 1.387 . S
C707 H692 0.930 . S
C707 C702 1.390 . S
C707 C706 1.387 . S
H708 C720 0.930 . S
H709 C722 0.930 . S
H710 C723 0.930 . S
H711 C727 0.959 . S
H712 C727 0.959 . S
H713 C727 0.961 . S
H714 C728 0.960 . S
H715 C728 0.961 . S
H716 C728 0.959 1_565 S
H717 C731 0.929 . S
H718 C732 0.931 . S
H719 C734 0.930 . S
C720 H708 0.930 . S
C720 C721 1.399 1_545 S
C720 C725 1.399 . S
C721 C720 1.399 1_565 S
C721 C722 1.376 . S
C722 H709 0.930 . S
C722 C721 1.376 . S
C722 C723 1.388 . S
C723 H710 0.930 . S
C723 C722 1.388 . S
C723 C724 1.390 . S
C724 C723 1.390 . S
C724 C725 1.394 1_565 S
C724 C730 1.465 . S
C725 C720 1.399 . S
C725 C724 1.394 1_545 S
C725 C726 1.516 . S
C726 C725 1.516 . S
C726 C727 1.502 . S
C726 C728 1.561 . S
C726 C729 1.526 . S
C727 H711 0.959 . S
C727 H712 0.959 . S
C727 H713 0.961 . S
C727 C726 1.502 . S
C728 H714 0.960 . S
C728 H715 0.961 . S
C728 H716 0.959 1_545 S
C728 C726 1.561 . S
C729 C726 1.526 . S
C729 C730 1.396 1_545 S
C729 C734 1.390 . S
C730 C724 1.465 . S
C730 C729 1.396 1_565 S
C730 C731 1.399 . S
C731 H717 0.929 . S
C731 C730 1.399 . S
C731 C732 1.385 . S
C732 H718 0.931 . S
C732 C731 1.385 . S
C732 C733 1.389 1_565 S
C733 C732 1.389 1_545 S
C733 C734 1.387 . S
C734 H719 0.930 . S
C734 C729 1.390 . S
C734 C733 1.387 . S
H735 C747 0.930 . S
H736 C749 0.930 . S
H737 C750 0.930 . S
H738 C754 0.959 . S
H739 C754 0.959 . S
H740 C754 0.961 . S
H741 C755 0.960 . S
H742 C755 0.961 . S
H743 C755 0.959 . S
H744 C758 0.929 . S
H745 C759 0.931 . S
H746 C761 0.930 . S
C747 H735 0.930 . S
C747 C748 1.399 . S
C747 C752 1.399 . S
C748 C747 1.399 . S
C748 C749 1.376 . S
C749 H736 0.930 . S
C749 C748 1.376 . S
C749 C750 1.388 . S
C750 H737 0.930 . S
C750 C749 1.388 . S
C750 C751 1.390 . S
C751 C750 1.390 . S
C751 C752 1.394 . S
C751 C757 1.465 . S
C752 C747 1.399 . S
C752 C751 1.394 . S
C752 C753 1.516 . S
C753 C752 1.516 . S
C753 C754 1.502 . S
C753 C755 1.561 . S
C753 C756 1.526 . S
C754 H738 0.959 . S
C754 H739 0.959 . S
C754 H740 0.961 . S
C754 C753 1.502 . S
C755 H741 0.960 . S
C755 H742 0.961 . S
C755 H743 0.959 . S
C755 C753 1.561 . S
C756 C753 1.526 . S
C756 C757 1.396 . S
C756 C761 1.390 . S
C757 C751 1.465 . S
C757 C756 1.396 . S
C757 C758 1.399 . S
C758 H744 0.929 . S
C758 C757 1.399 . S
C758 C759 1.385 . S
C759 H745 0.931 . S
C759 C758 1.385 . S
C759 C760 1.389 . S
C760 C759 1.389 . S
C760 C761 1.387 . S
C761 H746 0.930 . S
C761 C756 1.390 . S
C761 C760 1.387 . S
H762 C774 0.930 1_455 S
H763 C776 0.930 . S
H764 C777 0.930 . S
H765 C781 0.959 . S
H766 C781 0.959 1_554 S
H767 C781 0.961 1_554 S
H768 C782 0.960 . S
H769 C782 0.961 . S
H770 C782 0.959 1_655 S
H771 C785 0.929 . S
H772 C786 0.931 . S
H773 C788 0.930 . S
C774 H762 0.930 1_655 S
C774 C775 1.399 . S
C774 C779 1.400 1_655 S
C775 C774 1.399 . S
C775 C776 1.376 . S
C776 H763 0.930 . S
C776 C775 1.376 . S
C776 C777 1.388 . S
C777 H764 0.930 . S
C777 C776 1.388 . S
C777 C778 1.390 . S
C778 C777 1.390 . S
C778 C779 1.394 1_655 S
C778 C784 1.465 . S
C779 C774 1.400 1_455 S
C779 C778 1.394 1_455 S
C779 C780 1.515 . S
C780 C779 1.515 . S
C780 C781 1.502 . S
C780 C782 1.561 1_556 S
C780 C783 1.526 . S
C781 H765 0.959 . S
C781 H766 0.959 1_556 S
C781 H767 0.961 1_556 S
C781 C780 1.502 . S
C782 H768 0.960 . S
C782 H769 0.961 . S
C782 H770 0.959 1_455 S
C782 C780 1.561 1_554 S
C783 C780 1.526 . S
C783 C784 1.396 1_455 S
C783 C788 1.390 . S
C784 C778 1.465 . S
C784 C783 1.396 1_655 S
C784 C785 1.399 . S
C785 H771 0.929 . S
C785 C784 1.399 . S
C785 C786 1.385 . S
C786 H772 0.931 . S
C786 C785 1.385 . S
C786 C787 1.389 1_655 S
C787 C786 1.389 1_455 S
C787 C788 1.387 . S
C788 H773 0.930 . S
C788 C783 1.390 . S
C788 C787 1.387 . S
H789 C801 0.930 . S
H790 C803 0.930 . S
H791 C804 0.930 . S
H792 C808 0.959 . S
H793 C808 0.959 . S
H794 C808 0.961 . S
H795 C809 0.960 . S
H796 C809 0.961 . S
H797 C809 0.959 . S
H798 C812 0.929 . S
H799 C813 0.931 . S
H800 C815 0.930 . S
C801 H789 0.930 . S
C801 C802 1.399 . S
C801 C806 1.399 . S
C802 C801 1.399 . S
C802 C803 1.376 . S
C803 H790 0.930 . S
C803 C802 1.376 . S
C803 C804 1.388 . S
C804 H791 0.930 . S
C804 C803 1.388 . S
C804 C805 1.390 . S
C805 C804 1.390 . S
C805 C806 1.394 . S
C805 C811 1.465 . S
C806 C801 1.399 . S
C806 C805 1.394 . S
C806 C807 1.516 1_545 S
C807 C806 1.516 1_565 S
C807 C808 1.502 . S
C807 C809 1.561 1_565 S
C807 C810 1.526 . S
C808 H792 0.959 . S
C808 H793 0.959 . S
C808 H794 0.961 . S
C808 C807 1.502 . S
C809 H795 0.960 . S
C809 H796 0.961 . S
C809 H797 0.959 . S
C809 C807 1.561 1_545 S
C810 C807 1.526 . S
C810 C811 1.396 1_565 S
C810 C815 1.390 . S
C811 C805 1.465 . S
C811 C810 1.396 1_545 S
C811 C812 1.399 . S
C812 H798 0.929 . S
C812 C811 1.399 . S
C812 C813 1.385 1_545 S
C813 H799 0.931 . S
C813 C812 1.385 1_565 S
C813 C814 1.389 . S
C814 C813 1.389 . S
C814 C815 1.387 . S
C815 H800 0.930 . S
C815 C810 1.390 . S
C815 C814 1.387 . S
C181 C3 1.476 . S
C193 C129 1.469 . S
C208 C17 1.474 . S
C220 C143 1.514 . S
C235 C31 1.515 . S
C247 C157 1.484 . S
C262 C45 1.473 . S
C274 C87 1.471 . S
C289 C101 1.492 . S
C301 C59 1.461 . S
C316 C115 1.460 . S
C328 C73 1.496 . S
C343 C148 1.582 . S
C355 C8 1.566 . S
C370 C22 1.564 . S
C382 C162 1.584 . S
C397 C36 1.592 . S
C409 C92 1.566 . S
C424 C50 1.583 . S
C436 C106 1.582 . S
C451 C64 1.592 . S
C463 C120 1.569 . S
C478 C78 1.577 . S
C490 C134 1.569 . S
C505 C133 0.696 . S
C517 C7 0.695 . S
C532 C21 0.792 . S
C544 C147 0.792 . S
C559 C35 0.792 . S
C571 C161 0.787 . S
C586 C91 0.792 . S
C598 C49 0.792 . S
C613 C63 0.792 . S
C625 C105 0.792 . S
C640 C119 0.713 . S
C652 C77 0.721 . S
C667 C9 1.489 . S
C679 C51 1.523 . S
C694 C65 1.495 . S
C706 C23 1.515 . S
C721 C37 1.529 . S
C733 C79 1.487 . S
C748 C93 1.526 . S
C760 C135 1.490 . S
C775 C107 1.526 . S
C787 C149 1.490 . S
C802 C163 1.521 . S
C814 C121 1.496 . S
