# Generated by pormake.
# Topology crr, (4)-cn, num edge types: 1
# Building blocks:
#     Node 0, Type 0, BuildingBlock: ESEHIV_clean_sbu_0, # of connection points: 4
#     Node 1, Type 0, BuildingBlock: ESEHIV_clean_sbu_0, # of connection points: 4
#     Node 2, Type 0, BuildingBlock: ESEHIV_clean_sbu_0, # of connection points: 4
#     Node 3, Type 0, BuildingBlock: ESEHIV_clean_sbu_0, # of connection points: 4
#     Node 4, Type 0, BuildingBlock: ESEHIV_clean_sbu_0, # of connection points: 4
#     Node 5, Type 0, BuildingBlock: ESEHIV_clean_sbu_0, # of connection points: 4
#     Node 6, Type 0, BuildingBlock: ESEHIV_clean_sbu_0, # of connection points: 4
#     Node 7, Type 0, BuildingBlock: ESEHIV_clean_sbu_0, # of connection points: 4
#     Node 8, Type 0, BuildingBlock: ESEHIV_clean_sbu_0, # of connection points: 4
#     Node 9, Type 0, BuildingBlock: ESEHIV_clean_sbu_0, # of connection points: 4
#     Node 10, Type 0, BuildingBlock: ESEHIV_clean_sbu_0, # of connection points: 4
#     Node 11, Type 0, BuildingBlock: ESEHIV_clean_sbu_0, # of connection points: 4
#     Edge 12, Type (0, 0), BuildingBlock: AJUNOK_clean_linker_0, # of connection points: 2
#     Edge 13, Type (0, 0), BuildingBlock: AJUNOK_clean_linker_0, # of connection points: 2
#     Edge 14, Type (0, 0), BuildingBlock: AJUNOK_clean_linker_0, # of connection points: 2
#     Edge 15, Type (0, 0), BuildingBlock: AJUNOK_clean_linker_0, # of connection points: 2
#     Edge 16, Type (0, 0), BuildingBlock: AJUNOK_clean_linker_0, # of connection points: 2
#     Edge 17, Type (0, 0), BuildingBlock: AJUNOK_clean_linker_0, # of connection points: 2
#     Edge 18, Type (0, 0), BuildingBlock: AJUNOK_clean_linker_0, # of connection points: 2
#     Edge 19, Type (0, 0), BuildingBlock: AJUNOK_clean_linker_0, # of connection points: 2
#     Edge 20, Type (0, 0), BuildingBlock: AJUNOK_clean_linker_0, # of connection points: 2
#     Edge 21, Type (0, 0), BuildingBlock: AJUNOK_clean_linker_0, # of connection points: 2
#     Edge 22, Type (0, 0), BuildingBlock: AJUNOK_clean_linker_0, # of connection points: 2
#     Edge 23, Type (0, 0), BuildingBlock: AJUNOK_clean_linker_0, # of connection points: 2
#     Edge 24, Type (0, 0), BuildingBlock: AJUNOK_clean_linker_0, # of connection points: 2
#     Edge 25, Type (0, 0), BuildingBlock: AJUNOK_clean_linker_0, # of connection points: 2
#     Edge 26, Type (0, 0), BuildingBlock: AJUNOK_clean_linker_0, # of connection points: 2
#     Edge 27, Type (0, 0), BuildingBlock: AJUNOK_clean_linker_0, # of connection points: 2
#     Edge 28, Type (0, 0), BuildingBlock: AJUNOK_clean_linker_0, # of connection points: 2
#     Edge 29, Type (0, 0), BuildingBlock: AJUNOK_clean_linker_0, # of connection points: 2
#     Edge 30, Type (0, 0), BuildingBlock: AJUNOK_clean_linker_0, # of connection points: 2
#     Edge 31, Type (0, 0), BuildingBlock: AJUNOK_clean_linker_0, # of connection points: 2
#     Edge 32, Type (0, 0), BuildingBlock: AJUNOK_clean_linker_0, # of connection points: 2
#     Edge 33, Type (0, 0), BuildingBlock: AJUNOK_clean_linker_0, # of connection points: 2
#     Edge 34, Type (0, 0), BuildingBlock: AJUNOK_clean_linker_0, # of connection points: 2
#     Edge 35, Type (0, 0), BuildingBlock: AJUNOK_clean_linker_0, # of connection points: 2
# Relax obj value: 0.034
# Max RMSD: 0.146
# Mean RMSD: 0.115
data_MOF--net-crr--node1-ESEHIV_clean_sbu_0--edge1-AJUNOK_clean_linker_0
_symmetry_space_group_name_H-M    P1
_symmetry_Int_Tables_number       1
_symmetry_cell_setting            triclinic
loop_
_symmetry_equiv_pos_as_xyz
'x, y, z'
_cell_length_a     31.272798
_cell_length_b     35.673279
_cell_length_c     31.613295
_cell_angle_alpha  92.916933
_cell_angle_beta   83.008389
_cell_angle_gamma 87.396654
loop_
_atom_site_label
_atom_site_type_symbol
_atom_site_fract_x
_atom_site_fract_y
_atom_site_fract_z
_atom_type_partial_charge
Cu0 Cu 0.13449 0.35986 0.36005 0.0
N1 N 0.08384 0.37762 0.33939 0.0
N2 N 0.03114 0.42016 0.33029 0.0
C3 C 0.07383 0.41378 0.33224 0.0
C4 C 1.01372 0.38655 0.33551 0.0
C5 C 0.04625 0.36043 0.34124 0.0
O6 O 0.11978 0.35852 0.42164 0.0
C7 C 0.22137 0.38346 0.34163 0.0
O8 O 0.23214 0.35317 0.36063 0.0
H9 H 0.09667 0.43569 0.33241 0.0
H10 H 0.04225 0.3316 0.34937 0.0
N11 N 0.15084 0.31001 0.34029 0.0
N12 N 0.18302 0.2522 0.33775 0.0
C13 C 0.17334 0.28511 0.36089 0.0
C14 C 0.14555 0.29212 0.30292 0.0
C15 C 0.16529 0.25647 0.30127 0.0
C16 C 0.09091 0.38066 0.44293 0.0
O17 O 0.07688 0.41056 0.42518 0.0
H18 H 0.18368 0.29152 0.39179 0.0
H19 H 0.12901 0.30431 0.27839 0.0
O20 O 0.18143 0.3921 0.3408 0.0
H21 H 0.97975 0.38148 0.33664 0.0
H22 H 0.1663 0.23539 0.27528 0.0
Cu23 Cu 0.35975 0.91217 0.68719 0.0
N24 N 0.306 0.89234 0.68343 0.0
N25 N 0.26111 0.84636 0.67545 0.0
C26 C 0.30172 0.85727 0.66703 0.0
C27 C 0.23882 0.87563 0.69802 0.0
C28 C 0.26664 0.90415 0.70278 0.0
O29 O 0.3869 0.87654 0.72251 0.0
C30 C 0.36071 0.93778 0.60565 0.0
O31 O 0.319 0.9363 0.61658 0.0
H32 H 0.32861 0.83903 0.65227 0.0
H33 H 0.25945 0.93041 0.72147 0.0
N34 N 0.36048 0.95814 0.71772 0.0
N35 N 0.39742 1.00364 0.74543 0.0
C36 C 0.39661 0.9668 0.73419 0.0
C37 C 0.33708 0.99076 0.71812 0.0
C38 C 0.35991 1.01901 0.73531 0.0
C39 C 0.36688 0.87859 0.76051 0.0
O40 O 0.33374 0.90284 0.76959 0.0
H41 H 0.42401 0.94696 0.73309 0.0
H42 H 0.30773 0.99434 0.70352 0.0
O43 O 0.38637 0.92422 0.63026 0.0
H44 H 0.20546 0.87556 0.71201 0.0
H45 H 0.35105 0.04879 0.73725 0.0
Cu46 Cu 0.91514 0.63986 0.3376 0.0
N47 N 0.91063 0.64788 0.28004 0.0
N48 N 0.87703 0.65599 0.22214 0.0
C49 C 0.8724 0.65103 0.26447 0.0
C50 C 0.92015 0.65558 0.21058 0.0
C51 C 0.94076 0.6508 0.24635 0.0
O52 O 0.86827 0.67294 0.36845 0.0
C53 C 0.95463 0.5706 0.32213 0.0
O54 O 0.97945 0.59299 0.29969 0.0
H55 H 0.84163 0.65027 0.28414 0.0
H56 H 0.9752 0.64928 0.24752 0.0
N57 N 0.96402 0.65667 0.36021 0.0
N58 N 1.00197 0.67094 0.41392 0.0
C59 C 0.96691 0.65464 0.40211 0.0
C60 C 0.99906 0.67438 0.34432 0.0
C61 C 0.02276 0.68302 0.37753 0.0
C62 C 0.8764 0.70727 0.36228 0.0
O63 O 0.91154 0.71416 0.33729 0.0
H64 H 0.94335 0.64127 0.42346 0.0
H65 H 1.00625 0.68136 0.31142 0.0
O66 O 0.91973 0.58511 0.34328 0.0
H67 H 0.93593 0.65792 0.17849 0.0
H68 H 0.05229 0.69791 0.37528 0.0
Cu69 Cu 0.65518 0.1186 0.68151 0.0
N70 N 0.71336 0.1219 0.69042 0.0
N71 N 0.77664 0.14846 0.69506 0.0
C72 C 0.73352 0.15427 0.69508 0.0
C73 C 0.78357 0.1107 0.69089 0.0
C74 C 0.74466 0.09447 0.68779 0.0
O75 O 0.62856 0.16963 0.69374 0.0
C76 C 0.65515 0.05888 0.61954 0.0
O77 O 0.66125 0.03971 0.65288 0.0
H78 H 0.71661 0.18155 0.69809 0.0
H79 H 0.73979 0.06486 0.68247 0.0
N80 N 0.62316 0.08913 0.71978 0.0
N81 N 0.56364 0.06321 0.74942 0.0
C82 C 0.58206 0.08143 0.71607 0.0
C83 C 0.63157 0.0752 0.75681 0.0
C84 C 0.59481 0.05931 0.7753 0.0
C85 C 0.62487 0.18041 0.73329 0.0
O86 O 0.63964 0.15773 0.76018 0.0
H87 H 0.56597 0.08938 0.68917 0.0
H88 H 0.66162 0.07777 0.77018 0.0
O89 O 0.65203 0.09487 0.62413 0.0
H90 H 0.81479 0.09584 0.68861 0.0
H91 H 0.59116 0.04724 0.80612 0.0
Cu92 Cu 0.1388 0.64452 0.66129 0.0
N93 N 0.13721 0.65176 0.72025 0.0
N94 N 0.16898 0.65675 0.77977 0.0
C95 C 0.17334 0.64489 0.73831 0.0
C96 C 0.12782 0.67092 0.78848 0.0
C97 C 0.10827 0.66798 0.75155 0.0
O98 O 0.18704 0.67529 0.64207 0.0
C99 C 0.10608 0.57656 0.66771 0.0
O100 O 0.07538 0.60006 0.68686 0.0
H101 H 0.20265 0.63216 0.72067 0.0
H102 H 0.07606 0.67826 0.74761 0.0
N103 N 0.09089 0.66301 0.63659 0.0
N104 N 0.05163 0.67545 0.58369 0.0
C105 C 0.08662 0.65669 0.59497 0.0
C106 C 0.0573 0.68658 0.65247 0.0
C107 C 0.0332 0.69446 0.6199 0.0
C108 C 0.17738 0.70978 0.65399 0.0
O109 O 0.13808 0.71912 0.67207 0.0
H110 H 0.10924 0.63891 0.57327 0.0
H111 H 0.05164 0.69853 0.68486 0.0
O112 O 0.14132 0.58976 0.65142 0.0
H113 H 0.11348 0.68403 0.81884 0.0
H114 H 1.00544 0.71405 0.62255 0.0
Cu115 Cu 0.67166 0.91537 0.3925 0.0
N116 N 0.72797 0.89481 0.39203 0.0
N117 N 0.77891 0.84834 0.39194 0.0
C118 C 0.73655 0.85882 0.40092 0.0
C119 C 0.79759 0.87957 0.37755 0.0
C120 C 0.7662 0.90806 0.37758 0.0
O121 O 0.64183 0.87462 0.36657 0.0
C122 C 0.6686 0.97048 0.45716 0.0
O123 O 0.69694 0.98255 0.4275 0.0
H124 H 0.71163 0.84066 0.41277 0.0
H125 H 0.77073 0.93578 0.36604 0.0
N126 N 0.66304 0.95337 0.35542 0.0
N127 N 0.6212 0.99422 0.32558 0.0
C128 C 0.62255 0.96544 0.35132 0.0
C129 C 0.68882 0.97517 0.33109 0.0
C130 C 0.6629 1.00086 0.31301 0.0
C131 C 0.66135 0.86562 0.32915 0.0
O132 O 0.69581 0.8833 0.31542 0.0
H133 H 0.5945 0.9547 0.36936 0.0
H134 H 0.72365 0.97361 0.32805 0.0
O135 O 0.65231 0.93876 0.45003 0.0
H136 H 0.83135 0.88129 0.36567 0.0
H137 H 0.67381 1.02353 0.29361 0.0
Cu138 Cu 0.95207 0.35888 0.68196 0.0
N139 N 0.94438 0.30956 0.69884 0.0
N140 N 0.90693 0.25751 0.70705 0.0
C141 C 0.91791 0.28585 0.68161 0.0
C142 C 0.92866 0.26304 0.74105 0.0
C143 C 0.95132 0.29526 0.73612 0.0
O144 O 0.90099 0.3881 0.70889 0.0
C145 C 0.99617 0.33985 0.60341 0.0
O146 O 1.01596 0.31787 0.6278 0.0
H147 H 0.90515 0.29066 0.65196 0.0
H148 H 0.96857 0.30894 0.75969 0.0
N149 N 0.99991 0.38273 0.69914 0.0
N150 N 0.04601 0.42929 0.69632 0.0
C151 C 1.02052 0.40786 0.67471 0.0
C152 C 1.01349 0.38779 0.73772 0.0
C153 C 0.04224 0.41632 0.73595 0.0
C154 C 0.86311 0.37996 0.70226 0.0
O155 O 0.85862 0.35544 0.67092 0.0
H156 H 1.01446 0.41209 0.6423 0.0
H157 H 1.00073 0.37411 0.76596 0.0
O158 O 0.96233 0.359 0.62012 0.0
H159 H 0.92575 0.24665 0.76906 0.0
H160 H 0.0562 0.42875 0.7627 0.0
Cu161 Cu 0.38572 0.11483 0.38607 0.0
N162 N 0.40311 0.1633 0.37647 0.0
N163 N 0.41394 0.21196 0.33517 0.0
C164 C 0.39603 0.17859 0.33986 0.0
C165 C 0.43325 0.21801 0.37081 0.0
C166 C 0.42631 0.18794 0.3964 0.0
O167 O 0.3276 0.11867 0.36909 0.0
C168 C 0.4672 0.08755 0.35835 0.0
O169 O 0.47284 0.11374 0.38755 0.0
H170 H 0.3786 0.16474 0.31659 0.0
H171 H 0.43898 0.18365 0.42622 0.0
N172 N 0.38576 0.0995 0.44211 0.0
N173 N 0.38785 0.05979 0.49478 0.0
C174 C 0.38444 0.06341 0.45292 0.0
C175 C 0.3906 0.11951 0.4783 0.0
C176 C 0.3919 0.0951 0.51081 0.0
C177 C 0.30087 0.14082 0.39332 0.0
O178 O 0.3107 0.15082 0.43138 0.0
H179 H 0.38215 0.04018 0.43007 0.0
H180 H 0.39327 0.14963 0.48087 0.0
O181 O 0.42879 0.08158 0.35089 0.0
H182 H 0.45278 0.24136 0.37727 0.0
H183 H 0.39496 0.10281 0.54383 0.0
Cu184 Cu 0.40028 0.40053 0.14571 0.0
N185 N 0.39808 0.34865 0.14883 0.0
N186 N 0.4051 0.29824 0.18718 0.0
C187 C 0.38698 0.33315 0.18626 0.0
C188 C 0.42692 0.29066 0.14795 0.0
C189 C 0.42291 0.322 0.12446 0.0
O190 O 0.38416 0.4187 0.2058 0.0
C191 C 0.46507 0.4083 0.07606 0.0
O192 O 0.43261 0.4023 0.05431 0.0
H193 H 0.36933 0.34856 0.21368 0.0
H194 H 0.44104 0.32656 0.09394 0.0
N195 N 0.35934 0.42144 0.11447 0.0
N196 N 0.32672 0.46841 0.08459 0.0
C197 C 0.36296 0.45578 0.09943 0.0
C198 C 0.31911 0.41173 0.10933 0.0
C199 C 0.29877 0.44087 0.09084 0.0
C200 C 0.35177 0.44156 0.21789 0.0
O201 O 0.3399 0.46559 0.19097 0.0
H202 H 0.39064 0.47235 0.10269 0.0
H203 H 0.30487 0.38638 0.12041 0.0
O204 O 0.45843 0.40972 0.11699 0.0
H205 H 0.44785 0.26588 0.1385 0.0
H206 H 0.26574 0.44221 0.0838 0.0
Cu207 Cu 0.35692 0.68142 0.9472 0.0
N208 N 0.3599 0.73287 0.93987 0.0
N209 N 0.37374 0.78269 0.90093 0.0
C210 C 0.36052 0.74723 0.90118 0.0
C211 C 0.38098 0.79126 0.94151 0.0
C212 C 0.373 0.76025 0.96534 0.0
O213 O 0.33216 0.66205 0.8971 0.0
C214 C 0.42298 0.66017 0.99614 0.0
O215 O 0.39195 0.66909 0.02714 0.0
H216 H 0.35253 0.73137 0.87343 0.0
H217 H 0.37879 0.75716 0.99806 0.0
N218 N 0.3184 0.66555 0.9919 0.0
N219 N 0.29884 0.61796 0.0318 0.0
C220 C 0.31414 0.62842 0.99286 0.0
C221 C 0.30229 0.68 0.03112 0.0
C222 C 0.2904 0.65032 0.05608 0.0
C223 C 0.29249 0.67332 0.8991 0.0
O224 O 0.27549 0.69597 0.93145 0.0
H225 H 0.3276 0.60894 0.96673 0.0
H226 H 0.30456 0.70892 0.04232 0.0
O227 O 0.41527 0.66272 0.9574 0.0
H228 H 0.39299 0.81746 0.95275 0.0
H229 H 0.28137 0.65207 0.09031 0.0
Cu230 Cu 0.65699 0.69087 0.0952 0.0
N231 N 0.68059 0.68722 0.03774 0.0
N232 N 0.67516 0.65133 0.9786 0.0
C233 C 0.68309 0.65217 1.01957 0.0
C234 C 0.6706 0.6877 0.96945 0.0
C235 C 0.67391 0.70989 1.00607 0.0
O236 O 0.60192 0.66748 0.09069 0.0
C237 C 0.7353 0.68472 0.12276 0.0
O238 O 0.73697 0.71367 0.09864 0.0
H239 H 0.68349 0.62756 0.03822 0.0
H240 H 0.66494 0.73956 1.0107 0.0
N241 N 0.64534 0.73886 0.12241 0.0
N242 N 0.63534 0.78082 0.17825 0.0
C243 C 0.64336 0.74439 0.16508 0.0
C244 C 0.63818 0.77316 0.1079 0.0
C245 C 0.63181 0.79913 0.14244 0.0
C246 C 0.57914 0.686 0.06706 0.0
O247 O 0.59057 0.71961 0.05691 0.0
H248 H 0.64859 0.72202 0.18606 0.0
H249 H 0.63835 0.77909 0.0747 0.0
O250 O 0.70039 0.66715 0.12659 0.0
H251 H 0.6598 0.69736 0.94042 0.0
H252 H 0.62695 0.82928 0.14117 0.0
Cu253 Cu 0.6351 0.40697 0.88017 0.0
N254 N 0.62014 0.45793 0.87702 0.0
N255 N 0.62379 0.51969 0.89045 0.0
C256 C 0.6286 0.48521 0.90533 0.0
C257 C 0.61239 0.51407 0.85095 0.0
C258 C 0.61008 0.4758 0.84275 0.0
O259 O 0.64815 0.39613 0.93791 0.0
C260 C 0.72041 0.41767 0.83716 0.0
O261 O 0.72237 0.44578 0.86525 0.0
H262 H 0.64086 0.47972 0.93513 0.0
H263 H 0.60425 0.46188 0.81294 0.0
N264 N 0.59664 0.37398 0.85877 0.0
N265 N 0.57737 0.32436 0.8202 0.0
C266 C 0.60833 0.34869 0.82565 0.0
C267 C 0.55665 0.36537 0.87483 0.0
C268 C 0.54481 0.33471 0.85125 0.0
C269 C 0.63735 0.39284 0.978 0.0
O270 O 0.66856 0.38297 1.00015 0.0
H271 H 0.64036 0.34613 0.80813 0.0
H272 H 0.53837 0.37862 0.90322 0.0
O273 O 0.68759 0.39769 0.84022 0.0
H274 H 0.60749 0.5359 0.82922 0.0
H275 H 0.51557 0.3198 0.85797 0.0
C276 C 0.20649 0.21142 0.39252 0.0
C277 C 0.20868 0.22038 0.34951 0.0
C278 C 0.23432 0.18354 0.40569 0.0
C279 C 0.26574 0.16323 0.3765 0.0
H280 H 0.18369 0.22679 0.41646 0.0
H281 H 0.2323 0.17895 0.43948 0.0
S282 S 0.2839 0.17473 0.25972 0.0
N283 N 0.24415 0.20578 0.27737 0.0
N284 N 0.29578 0.15292 0.30195 0.0
C285 C 0.26683 0.1705 0.33299 0.0
C286 C 0.23857 0.19918 0.31956 0.0
C287 C 0.24527 0.7924 0.62845 0.0
C288 C 0.24698 0.80886 0.66961 0.0
C289 C 0.22647 0.75757 0.62276 0.0
C290 C 0.20976 0.73808 0.65816 0.0
H291 H 0.25628 0.80758 0.60071 0.0
H292 H 0.22238 0.74718 0.59078 0.0
S293 S 0.21201 0.76721 0.77215 0.0
N294 N 0.23458 0.80151 0.74581 0.0
N295 N 0.19948 0.73643 0.73542 0.0
C296 C 0.2142 0.75324 0.69924 0.0
C297 C 0.23278 0.78856 0.70493 0.0
C298 C 0.84462 0.80834 0.39617 0.0
C299 C 0.80016 0.81132 0.39291 0.0
C300 C 0.86805 0.77373 0.38985 0.0
C301 C 0.84819 0.74023 0.38032 0.0
H302 H 0.862 0.83324 0.40209 0.0
H303 H 0.90265 0.77351 0.39038 0.0
S304 S 0.73165 0.73065 0.37479 0.0
N305 N 0.73617 0.77615 0.38449 0.0
N306 N 0.78084 0.71116 0.3726 0.0
C307 C 0.80329 0.74192 0.38055 0.0
C308 C 0.77911 0.77742 0.38687 0.0
C309 C 0.87874 0.19437 0.71841 0.0
C310 C 0.87426 0.23037 0.70261 0.0
C311 C 0.84696 0.16792 0.7157 0.0
C312 C 0.809 0.17629 0.69731 0.0
H313 H 0.90722 0.1865 0.7329 0.0
H314 H 0.85195 0.14081 0.7287 0.0
S315 S 0.78106 0.26681 0.6514 0.0
N316 N 0.82793 0.27327 0.66887 0.0
N317 N 0.7695 0.22336 0.66207 0.0
C318 C 0.80417 0.2122 0.68119 0.0
C319 C 0.83644 0.2392 0.68418 0.0
C320 C 0.40668 0.2379 0.22186 0.0
C321 C 0.40843 0.27714 0.22452 0.0
C322 C 0.40923 0.21692 0.25787 0.0
C323 C 0.41355 0.23431 0.29821 0.0
H324 H 0.40283 0.22338 0.19174 0.0
H325 H 0.408 0.18672 0.25381 0.0
S326 S 0.42334 0.33639 0.3212 0.0
N327 N 0.41874 0.33241 0.26973 0.0
N328 N 0.4207 0.2934 0.33791 0.0
C329 C 0.41623 0.27357 0.30102 0.0
C330 C 0.41426 0.29487 0.26414 0.0
C331 C 0.22127 0.65545 0.8805 0.0
C332 C 0.26445 0.66266 0.86666 0.0
C333 C 0.19073 0.65248 0.85177 0.0
C334 C 0.20201 0.65687 0.80801 0.0
H335 H 0.21066 0.6532 0.91417 0.0
H336 H 0.15777 0.6474 0.86403 0.0
S337 S 0.31099 0.67728 0.75579 0.0
N338 N 0.31723 0.67426 0.80666 0.0
N339 N 0.25994 0.66912 0.75224 0.0
C340 C 0.24555 0.66318 0.79352 0.0
C341 C 0.27675 0.66595 0.82296 0.0
C342 C 0.60673 0.82552 0.2388 0.0
C343 C 0.63739 0.79731 0.22051 0.0
C344 C 0.61148 0.8449 0.27781 0.0
C345 C 0.64735 0.83691 0.29933 0.0
H346 H 0.57986 0.83353 0.22199 0.0
H347 H 0.58892 0.86818 0.28934 0.0
S348 S 0.73683 0.7661 0.26445 0.0
N349 N 0.70418 0.76205 0.22738 0.0
N350 N 0.71375 0.79907 0.29949 0.0
C351 C 0.67725 0.80792 0.282 0.0
C352 C 0.67213 0.78793 0.24289 0.0
C353 C 0.79749 0.42171 0.80484 0.0
C354 C 0.75575 0.4097 0.80136 0.0
C355 C 0.83164 0.41323 0.77203 0.0
C356 C 0.8254 0.39268 0.73414 0.0
H357 H 0.80417 0.43698 0.83361 0.0
H358 H 0.86341 0.4221 0.77698 0.0
S359 S 0.72096 0.35891 0.70702 0.0
N360 N 0.70931 0.37893 0.7555 0.0
N361 N 0.77307 0.36338 0.69388 0.0
C362 C 0.78333 0.38201 0.72954 0.0
C363 C 0.74868 0.39035 0.76309 0.0
C364 C 0.36808 0.86865 0.83751 0.0
C365 C 0.37748 0.85426 0.79486 0.0
C366 C 0.36872 0.84539 0.87183 0.0
C367 C 0.37839 0.80656 0.86509 0.0
H368 H 0.35846 0.8981 0.84448 0.0
H369 H 0.35946 0.85767 0.90384 0.0
S370 S 0.41032 0.75545 0.75964 0.0
N371 N 0.40016 0.79928 0.74778 0.0
N372 N 0.40221 0.75533 0.81227 0.0
C373 C 0.39036 0.79206 0.82261 0.0
C374 C 0.38985 0.81597 0.78753 0.0
C375 C 0.76905 0.6507 0.17986 0.0
C376 C 0.77268 0.67536 0.14637 0.0
C377 C 0.80333 0.64418 0.20416 0.0
C378 C 0.84274 0.66182 0.19578 0.0
H379 H 0.73926 0.63687 0.18794 0.0
H380 H 0.79893 0.62515 0.22975 0.0
S381 S 0.86902 0.72902 0.1118 0.0
N382 N 0.81965 0.71714 0.10592 0.0
N383 N 0.88288 0.70546 0.15199 0.0
C384 C 0.8469 0.6862 0.16217 0.0
C385 C 0.81222 0.69282 0.13744 0.0
C386 C 0.58356 0.22066 0.79214 0.0
C387 C 0.60596 0.21776 0.75057 0.0
C388 C 0.57205 0.25565 0.81366 0.0
C389 C 0.58315 0.28925 0.79481 0.0
H390 H 0.57621 0.19554 0.80891 0.0
H391 H 0.55654 0.2563 0.84625 0.0
S392 S 0.63763 0.29737 0.68492 0.0
N393 N 0.63552 0.25159 0.68993 0.0
N394 N 0.61451 0.31764 0.73073 0.0
C395 C 0.60363 0.28691 0.75245 0.0
C396 C 0.61475 0.25111 0.73018 0.0
C397 C 0.33058 0.40441 0.28219 0.0
C398 C 0.32043 0.43313 0.25559 0.0
C399 C 0.29889 0.38992 0.31148 0.0
C400 C 0.25548 0.40371 0.31581 0.0
H401 H 0.36295 0.39184 0.27907 0.0
H402 H 0.30834 0.36657 0.32951 0.0
S403 S 0.2131 0.48362 0.25948 0.0
N404 N 0.26451 0.47831 0.23984 0.0
N405 N 0.20532 0.45134 0.29482 0.0
C406 C 0.24557 0.4346 0.29204 0.0
C407 C 0.27788 0.44931 0.26212 0.0
C408 C 1.00892 0.38227 0.54266 0.0
C409 C 1.01862 0.34828 0.561 0.0
C410 C 0.03316 0.39282 0.50521 0.0
C411 C 0.06808 0.36981 0.48433 0.0
H412 H 0.98303 0.40139 0.55786 0.0
H413 H 0.02421 0.4193 0.49252 0.0
S414 S 0.10567 0.27705 0.51838 0.0
N415 N 0.06486 0.29103 0.55472 0.0
N416 N 0.1103 0.31079 0.48455 0.0
C417 C 0.07781 0.3355 0.5021 0.0
C418 C 0.05311 0.32476 0.54026 0.0
C419 C 0.41044 1.02111 0.55226 0.0
C420 C 0.38579 1.02587 0.51819 0.0
C421 C 0.40541 0.99028 0.5783 0.0
C422 C 0.37512 0.96328 0.57154 0.0
H423 H 0.43293 0.04198 0.55957 0.0
H424 H 0.42323 0.98901 0.60556 0.0
S425 S 0.30442 0.96132 0.48542 0.0
N426 N 0.33154 0.99959 0.47813 0.0
N427 N 0.32212 0.94207 0.52682 0.0
C428 C 0.35188 0.96675 0.53639 0.0
C429 C 0.35718 0.99787 0.50978 0.0
C430 C 0.06957 0.67149 0.50486 0.0
C431 C 0.03852 0.67607 0.5413 0.0
C432 C 0.05758 0.67082 0.4634 0.0
C433 C 1.01402 0.67451 0.45664 0.0
H434 H 0.10354 0.66844 0.50832 0.0
H435 H 0.08251 0.66645 0.43646 0.0
S436 S 0.92011 0.68931 0.54081 0.0
N437 N 0.96214 0.68509 0.56744 0.0
N438 N 0.93988 0.68547 0.48986 0.0
C439 C 0.98272 0.68019 0.4927 0.0
C440 C 0.99487 0.68062 0.53488 0.0
C441 C 0.6494 0.99839 0.57626 0.0
C442 C 0.65345 0.0378 0.57761 0.0
C443 C 0.65162 0.97682 0.53738 0.0
C444 C 0.65855 0.99366 0.49812 0.0
H445 H 0.64541 0.98378 0.60557 0.0
H446 H 0.64997 0.94659 0.53812 0.0
S447 S 0.66662 0.09596 0.48337 0.0
N448 N 0.66106 0.09282 0.53566 0.0
N449 N 0.66571 0.05253 0.46288 0.0
C450 C 0.66062 0.03317 0.49894 0.0
C451 C 0.65791 0.05515 0.53851 0.0
C452 C 0.54634 0.07963 0.33706 0.0
C453 C 0.50552 0.06413 0.33881 0.0
C454 C 0.58449 0.05694 0.32879 0.0
C455 C 0.58324 1.01783 0.32232 0.0
H456 H 0.54889 0.10936 0.34458 0.0
H457 H 0.61495 0.06976 0.33084 0.0
S458 S 0.48517 0.96402 0.31635 0.0
N459 N 0.46639 1.00786 0.32792 0.0
N460 N 0.53828 0.96508 0.31222 0.0
C461 C 0.54284 1.00237 0.32017 0.0
C462 C 0.50389 1.02556 0.32836 0.0
C463 C 0.12021 0.51022 0.68746 0.0
C464 C 0.09719 0.53618 0.6656 0.0
C465 C 0.10406 0.47473 0.69624 0.0
C466 C 0.06461 0.46398 0.68317 0.0
H467 H 0.14929 0.51826 0.70022 0.0
H468 H 0.12183 0.456 0.7145 0.0
S469 S 0.99305 0.52218 0.62387 0.0
N470 N 0.0341 0.54855 0.62997 0.0
N471 N 1.0036 0.48267 0.64646 0.0
C472 C 0.0424 0.48939 0.65975 0.0
C473 C 0.05875 0.52526 0.65102 0.0
C474 C 0.4875 0.06989 0.7353 0.0
C475 C 0.51985 0.05097 0.75486 0.0
C476 C 0.44639 0.0558 0.73481 0.0
C477 C 0.43571 1.02232 0.75418 0.0
H478 H 0.49433 0.0953 0.71903 0.0
H479 H 0.42372 0.07013 0.71707 0.0
S480 S 0.50583 0.9648 0.81524 0.0
N481 N 0.53653 0.99846 0.79738 0.0
N482 N 0.45865 0.97325 0.79828 0.0
C483 C 0.46643 1.00475 0.77677 0.0
C484 C 0.50856 1.01875 0.77675 0.0
C485 C 1.00849 0.51786 0.29694 0.0
C486 C 0.97037 0.53051 0.3235 0.0
C487 C 0.02748 0.4818 0.29902 0.0
C488 C 1.00909 0.45628 0.32728 0.0
H489 H 0.02461 0.53619 0.27456 0.0
H490 H 0.05707 0.47379 0.27839 0.0
S491 S 0.90952 0.47441 0.40382 0.0
N492 N 0.9148 0.51394 0.37905 0.0
N493 N 0.95045 0.44579 0.38267 0.0
C494 C 0.97048 0.46789 0.35348 0.0
C495 C 0.95116 0.50502 0.35164 0.0
C496 C 0.27906 0.52546 0.08119 0.0
C497 C 0.31909 0.50542 0.06992 0.0
C498 C 0.27267 0.56273 0.06963 0.0
C499 C 0.30601 0.58086 0.04629 0.0
H500 H 0.25288 0.51251 0.0997 0.0
H501 H 0.24149 0.57731 0.07844 0.0
S502 S 0.4168 0.54085 1.00934 0.0
N503 N 0.39204 0.50646 0.03339 0.0
N504 N 0.38078 0.57651 1.01365 0.0
C505 C 0.34619 0.56117 0.03527 0.0
C506 C 0.3525 0.52343 0.04651 0.0
C507 C 0.50126 0.67304 0.98552 0.0
C508 C 0.46718 0.6555 1.00827 0.0
C509 C 0.53881 0.68028 1.00407 0.0
C510 C 0.54386 0.66992 0.04579 0.0
H511 H 0.49747 0.68421 0.95488 0.0
H512 H 0.56318 0.69602 0.98641 0.0
S513 S 0.46775 0.6163 0.11492 0.0
N514 N 0.44352 0.62276 0.07205 0.0
N515 N 0.5145 0.63617 0.10643 0.0
C516 C 0.51216 0.64875 0.0669 0.0
C517 C 0.47369 0.64162 0.04821 0.0
C518 C 0.66073 0.57973 0.89015 0.0
C519 C 0.63342 0.55449 0.91141 0.0
C520 C 0.67374 0.61183 0.91203 0.0
C521 C 0.65988 0.61953 0.95575 0.0
H522 H 0.6732 0.57389 0.85688 0.0
H523 H 0.69566 0.63016 0.89508 0.0
S524 S 0.58229 0.5651 1.02351 0.0
N525 N 0.58931 0.54134 0.97681 0.0
N526 N 0.61296 0.60142 1.01787 0.0
C527 C 0.6307 0.59537 0.97655 0.0
C528 C 0.61772 0.56289 0.95437 0.0
C529 C 0.54391 0.38902 0.06736 0.0
C530 C 0.50923 0.40817 0.05222 0.0
C531 C 0.58444 0.38415 0.04256 0.0
C532 C 0.59256 0.39846 1.00151 0.0
H533 H 0.53937 0.3765 0.098 0.0
H534 H 0.60962 0.36846 0.05582 0.0
S535 S 0.51339 0.45521 0.94981 0.0
N536 N 0.486 0.444 0.99502 0.0
N537 N 0.56243 0.43573 0.94916 0.0
C538 C 0.55836 0.41886 0.98675 0.0
C539 C 0.51678 0.42349 1.01188 0.0
loop_
_geom_bond_atom_site_label_1
_geom_bond_atom_site_label_2
_geom_bond_distance
_geom_bond_site_symmetry_2
_ccdc_geom_bond_type
Cu0 N1 1.999 . S
Cu0 O6 1.974 . S
Cu0 N11 1.985 . S
Cu0 O20 1.959 . S
N1 Cu0 1.999 . S
N1 C3 1.263 . S
N1 C5 1.389 . S
N2 C3 1.358 . S
N2 C4 1.400 . S
C3 N1 1.263 . S
C3 N2 1.358 . S
C3 H9 0.930 . S
C4 N2 1.400 . S
C4 C5 1.351 . S
C4 H21 0.930 . S
C5 N1 1.389 . S
C5 C4 1.351 . S
C5 H10 0.930 . S
O6 Cu0 1.974 . S
O6 C16 1.282 . S
C7 O8 1.261 . S
C7 O20 1.251 . S
O8 C7 1.261 . S
H9 C3 0.930 . S
H10 C5 0.930 . S
N11 Cu0 1.985 . S
N11 C13 1.335 . S
N11 C14 1.390 . S
N12 C13 1.345 . S
N12 C15 1.336 . S
C13 N11 1.335 . S
C13 N12 1.345 . S
C13 H18 0.930 . S
C14 N11 1.390 . S
C14 C15 1.346 . S
C14 H19 0.930 . S
C15 N12 1.336 . S
C15 C14 1.346 . S
C15 H22 0.929 . S
C16 O6 1.282 . S
C16 O17 1.216 . S
O17 C16 1.216 . S
H18 C13 0.930 . S
H19 C14 0.930 . S
O20 Cu0 1.959 . S
O20 C7 1.251 . S
H21 C4 0.930 . S
H22 C15 0.929 . S
Cu23 N24 1.999 . S
Cu23 O29 1.974 . S
Cu23 N34 1.985 . S
Cu23 O43 1.959 . S
N24 Cu23 1.999 . S
N24 C26 1.263 . S
N24 C28 1.389 . S
N25 C26 1.358 . S
N25 C27 1.400 . S
C26 N24 1.263 . S
C26 N25 1.358 . S
C26 H32 0.930 . S
C27 N25 1.400 . S
C27 C28 1.351 . S
C27 H44 0.930 . S
C28 N24 1.389 . S
C28 C27 1.351 . S
C28 H33 0.930 . S
O29 Cu23 1.974 . S
O29 C39 1.282 . S
C30 O31 1.261 . S
C30 O43 1.251 . S
O31 C30 1.261 . S
H32 C26 0.930 . S
H33 C28 0.930 . S
N34 Cu23 1.985 . S
N34 C36 1.335 . S
N34 C37 1.390 . S
N35 C36 1.345 . S
N35 C38 1.336 . S
C36 N34 1.335 . S
C36 N35 1.345 . S
C36 H41 0.930 . S
C37 N34 1.390 . S
C37 C38 1.346 . S
C37 H42 0.930 . S
C38 N35 1.336 . S
C38 C37 1.346 . S
C38 H45 0.929 . S
C39 O29 1.282 . S
C39 O40 1.216 . S
O40 C39 1.216 . S
H41 C36 0.930 . S
H42 C37 0.930 . S
O43 Cu23 1.959 . S
O43 C30 1.251 . S
H44 C27 0.930 . S
H45 C38 0.929 . S
Cu46 N47 1.999 . S
Cu46 O52 1.974 . S
Cu46 N57 1.985 . S
Cu46 O66 1.959 . S
N47 Cu46 1.999 . S
N47 C49 1.263 . S
N47 C51 1.389 . S
N48 C49 1.358 . S
N48 C50 1.400 . S
C49 N47 1.263 . S
C49 N48 1.358 . S
C49 H55 0.930 . S
C50 N48 1.400 . S
C50 C51 1.351 . S
C50 H67 0.930 . S
C51 N47 1.389 . S
C51 C50 1.351 . S
C51 H56 0.930 . S
O52 Cu46 1.974 . S
O52 C62 1.282 . S
C53 O54 1.261 . S
C53 O66 1.251 . S
O54 C53 1.261 . S
H55 C49 0.930 . S
H56 C51 0.930 . S
N57 Cu46 1.985 . S
N57 C59 1.335 . S
N57 C60 1.390 . S
N58 C59 1.345 . S
N58 C61 1.336 . S
C59 N57 1.335 . S
C59 N58 1.345 . S
C59 H64 0.930 . S
C60 N57 1.390 . S
C60 C61 1.346 . S
C60 H65 0.930 . S
C61 N58 1.336 . S
C61 C60 1.346 . S
C61 H68 0.929 . S
C62 O52 1.282 . S
C62 O63 1.216 . S
O63 C62 1.216 . S
H64 C59 0.930 . S
H65 C60 0.930 . S
O66 Cu46 1.959 . S
O66 C53 1.251 . S
H67 C50 0.930 . S
H68 C61 0.929 . S
Cu69 N70 1.999 . S
Cu69 O75 1.974 . S
Cu69 N80 1.985 . S
Cu69 O89 1.959 . S
N70 Cu69 1.999 . S
N70 C72 1.263 . S
N70 C74 1.389 . S
N71 C72 1.358 . S
N71 C73 1.400 . S
C72 N70 1.263 . S
C72 N71 1.358 . S
C72 H78 0.930 . S
C73 N71 1.400 . S
C73 C74 1.351 . S
C73 H90 0.930 . S
C74 N70 1.389 . S
C74 C73 1.351 . S
C74 H79 0.930 . S
O75 Cu69 1.974 . S
O75 C85 1.282 . S
C76 O77 1.261 . S
C76 O89 1.251 . S
O77 C76 1.261 . S
H78 C72 0.930 . S
H79 C74 0.930 . S
N80 Cu69 1.985 . S
N80 C82 1.335 . S
N80 C83 1.390 . S
N81 C82 1.345 . S
N81 C84 1.336 . S
C82 N80 1.335 . S
C82 N81 1.345 . S
C82 H87 0.930 . S
C83 N80 1.390 . S
C83 C84 1.346 . S
C83 H88 0.930 . S
C84 N81 1.336 . S
C84 C83 1.346 . S
C84 H91 0.929 . S
C85 O75 1.282 . S
C85 O86 1.216 . S
O86 C85 1.216 . S
H87 C82 0.930 . S
H88 C83 0.930 . S
O89 Cu69 1.959 . S
O89 C76 1.251 . S
H90 C73 0.930 . S
H91 C84 0.929 . S
Cu92 N93 1.999 . S
Cu92 O98 1.974 . S
Cu92 N103 1.985 . S
Cu92 O112 1.959 . S
N93 Cu92 1.999 . S
N93 C95 1.263 . S
N93 C97 1.389 . S
N94 C95 1.358 . S
N94 C96 1.400 . S
C95 N93 1.263 . S
C95 N94 1.358 . S
C95 H101 0.930 . S
C96 N94 1.400 . S
C96 C97 1.351 . S
C96 H113 0.930 . S
C97 N93 1.389 . S
C97 C96 1.351 . S
C97 H102 0.930 . S
O98 Cu92 1.974 . S
O98 C108 1.282 . S
C99 O100 1.261 . S
C99 O112 1.251 . S
O100 C99 1.261 . S
H101 C95 0.930 . S
H102 C97 0.930 . S
N103 Cu92 1.985 . S
N103 C105 1.335 . S
N103 C106 1.390 . S
N104 C105 1.345 . S
N104 C107 1.336 . S
C105 N103 1.335 . S
C105 N104 1.345 . S
C105 H110 0.930 . S
C106 N103 1.390 . S
C106 C107 1.346 . S
C106 H111 0.930 . S
C107 N104 1.336 . S
C107 C106 1.346 . S
C107 H114 0.929 . S
C108 O98 1.282 . S
C108 O109 1.216 . S
O109 C108 1.216 . S
H110 C105 0.930 . S
H111 C106 0.930 . S
O112 Cu92 1.959 . S
O112 C99 1.251 . S
H113 C96 0.930 . S
H114 C107 0.929 . S
Cu115 N116 1.999 . S
Cu115 O121 1.974 . S
Cu115 N126 1.985 . S
Cu115 O135 1.959 . S
N116 Cu115 1.999 . S
N116 C118 1.263 . S
N116 C120 1.389 . S
N117 C118 1.358 . S
N117 C119 1.400 . S
C118 N116 1.263 . S
C118 N117 1.358 . S
C118 H124 0.930 . S
C119 N117 1.400 . S
C119 C120 1.351 . S
C119 H136 0.930 . S
C120 N116 1.389 . S
C120 C119 1.351 . S
C120 H125 0.930 . S
O121 Cu115 1.974 . S
O121 C131 1.282 . S
C122 O123 1.261 . S
C122 O135 1.251 . S
O123 C122 1.261 . S
H124 C118 0.930 . S
H125 C120 0.930 . S
N126 Cu115 1.985 . S
N126 C128 1.335 . S
N126 C129 1.390 . S
N127 C128 1.345 . S
N127 C130 1.336 . S
C128 N126 1.335 . S
C128 N127 1.345 . S
C128 H133 0.930 . S
C129 N126 1.390 . S
C129 C130 1.346 . S
C129 H134 0.930 . S
C130 N127 1.336 . S
C130 C129 1.346 . S
C130 H137 0.929 . S
C131 O121 1.282 . S
C131 O132 1.216 . S
O132 C131 1.216 . S
H133 C128 0.930 . S
H134 C129 0.930 . S
O135 Cu115 1.959 . S
O135 C122 1.251 . S
H136 C119 0.930 . S
H137 C130 0.929 . S
Cu138 N139 1.999 . S
Cu138 O144 1.974 . S
Cu138 N149 1.985 . S
Cu138 O158 1.959 . S
N139 Cu138 1.999 . S
N139 C141 1.263 . S
N139 C143 1.389 . S
N140 C141 1.358 . S
N140 C142 1.400 . S
C141 N139 1.263 . S
C141 N140 1.358 . S
C141 H147 0.930 . S
C142 N140 1.400 . S
C142 C143 1.351 . S
C142 H159 0.930 . S
C143 N139 1.389 . S
C143 C142 1.351 . S
C143 H148 0.930 . S
O144 Cu138 1.974 . S
O144 C154 1.282 . S
C145 O146 1.261 . S
C145 O158 1.251 . S
O146 C145 1.261 . S
H147 C141 0.930 . S
H148 C143 0.930 . S
N149 Cu138 1.985 . S
N149 C151 1.335 . S
N149 C152 1.390 . S
N150 C151 1.345 . S
N150 C153 1.336 . S
C151 N149 1.335 . S
C151 N150 1.345 . S
C151 H156 0.930 1_655 S
C152 N149 1.390 . S
C152 C153 1.346 . S
C152 H157 0.930 . S
C153 N150 1.336 . S
C153 C152 1.346 . S
C153 H160 0.929 . S
C154 O144 1.282 . S
C154 O155 1.216 . S
O155 C154 1.216 . S
H156 C151 0.930 1_455 S
H157 C152 0.930 . S
O158 Cu138 1.959 . S
O158 C145 1.251 . S
H159 C142 0.930 . S
H160 C153 0.929 . S
Cu161 N162 1.999 . S
Cu161 O167 1.974 . S
Cu161 N172 1.985 . S
Cu161 O181 1.959 . S
N162 Cu161 1.999 . S
N162 C164 1.263 . S
N162 C166 1.389 . S
N163 C164 1.358 . S
N163 C165 1.400 . S
C164 N162 1.263 . S
C164 N163 1.358 . S
C164 H170 0.930 . S
C165 N163 1.400 . S
C165 C166 1.351 . S
C165 H182 0.930 . S
C166 N162 1.389 . S
C166 C165 1.351 . S
C166 H171 0.930 . S
O167 Cu161 1.974 . S
O167 C177 1.282 . S
C168 O169 1.261 . S
C168 O181 1.251 . S
O169 C168 1.261 . S
H170 C164 0.930 . S
H171 C166 0.930 . S
N172 Cu161 1.985 . S
N172 C174 1.335 . S
N172 C175 1.390 . S
N173 C174 1.345 . S
N173 C176 1.336 . S
C174 N172 1.335 . S
C174 N173 1.345 . S
C174 H179 0.930 1_545 S
C175 N172 1.390 . S
C175 C176 1.346 . S
C175 H180 0.930 . S
C176 N173 1.336 . S
C176 C175 1.346 . S
C176 H183 0.929 . S
C177 O167 1.282 . S
C177 O178 1.216 . S
O178 C177 1.216 . S
H179 C174 0.930 1_565 S
H180 C175 0.930 . S
O181 Cu161 1.959 . S
O181 C168 1.251 . S
H182 C165 0.930 . S
H183 C176 0.929 . S
Cu184 N185 1.999 . S
Cu184 O190 1.974 . S
Cu184 N195 1.985 . S
Cu184 O204 1.959 . S
N185 Cu184 1.999 . S
N185 C187 1.263 . S
N185 C189 1.389 . S
N186 C187 1.358 . S
N186 C188 1.400 . S
C187 N185 1.263 . S
C187 N186 1.358 . S
C187 H193 0.930 . S
C188 N186 1.400 . S
C188 C189 1.351 . S
C188 H205 0.930 . S
C189 N185 1.389 . S
C189 C188 1.351 . S
C189 H194 0.930 . S
O190 Cu184 1.974 . S
O190 C200 1.282 . S
C191 O192 1.261 . S
C191 O204 1.251 . S
O192 C191 1.261 . S
H193 C187 0.930 . S
H194 C189 0.930 . S
N195 Cu184 1.985 . S
N195 C197 1.335 . S
N195 C198 1.390 . S
N196 C197 1.345 . S
N196 C199 1.336 . S
C197 N195 1.335 . S
C197 N196 1.345 . S
C197 H202 0.930 . S
C198 N195 1.390 . S
C198 C199 1.346 . S
C198 H203 0.930 . S
C199 N196 1.336 . S
C199 C198 1.346 . S
C199 H206 0.929 . S
C200 O190 1.282 . S
C200 O201 1.216 . S
O201 C200 1.216 . S
H202 C197 0.930 . S
H203 C198 0.930 . S
O204 Cu184 1.959 . S
O204 C191 1.251 . S
H205 C188 0.930 . S
H206 C199 0.929 . S
Cu207 N208 1.999 . S
Cu207 O213 1.974 . S
Cu207 N218 1.985 . S
Cu207 O227 1.959 . S
N208 Cu207 1.999 . S
N208 C210 1.263 . S
N208 C212 1.389 . S
N209 C210 1.358 . S
N209 C211 1.400 . S
C210 N208 1.263 . S
C210 N209 1.358 . S
C210 H216 0.930 . S
C211 N209 1.400 . S
C211 C212 1.351 . S
C211 H228 0.930 . S
C212 N208 1.389 . S
C212 C211 1.351 . S
C212 H217 0.930 . S
O213 Cu207 1.974 . S
O213 C223 1.282 . S
C214 O215 1.261 . S
C214 O227 1.251 . S
O215 C214 1.261 . S
H216 C210 0.930 . S
H217 C212 0.930 . S
N218 Cu207 1.985 . S
N218 C220 1.335 . S
N218 C221 1.390 . S
N219 C220 1.345 . S
N219 C222 1.336 . S
C220 N218 1.335 . S
C220 N219 1.345 . S
C220 H225 0.930 . S
C221 N218 1.390 . S
C221 C222 1.346 . S
C221 H226 0.930 . S
C222 N219 1.336 . S
C222 C221 1.346 . S
C222 H229 0.929 . S
C223 O213 1.282 . S
C223 O224 1.216 . S
O224 C223 1.216 . S
H225 C220 0.930 . S
H226 C221 0.930 . S
O227 Cu207 1.959 . S
O227 C214 1.251 . S
H228 C211 0.930 . S
H229 C222 0.929 . S
Cu230 N231 1.999 . S
Cu230 O236 1.974 . S
Cu230 N241 1.985 . S
Cu230 O250 1.959 . S
N231 Cu230 1.999 . S
N231 C233 1.263 . S
N231 C235 1.389 . S
N232 C233 1.358 . S
N232 C234 1.400 . S
C233 N231 1.263 . S
C233 N232 1.358 . S
C233 H239 0.930 . S
C234 N232 1.400 . S
C234 C235 1.351 . S
C234 H251 0.930 . S
C235 N231 1.389 . S
C235 C234 1.351 . S
C235 H240 0.930 . S
O236 Cu230 1.974 . S
O236 C246 1.282 . S
C237 O238 1.261 . S
C237 O250 1.251 . S
O238 C237 1.261 . S
H239 C233 0.930 . S
H240 C235 0.930 . S
N241 Cu230 1.985 . S
N241 C243 1.335 . S
N241 C244 1.390 . S
N242 C243 1.345 . S
N242 C245 1.336 . S
C243 N241 1.335 . S
C243 N242 1.345 . S
C243 H248 0.930 . S
C244 N241 1.390 . S
C244 C245 1.346 . S
C244 H249 0.930 . S
C245 N242 1.336 . S
C245 C244 1.346 . S
C245 H252 0.929 . S
C246 O236 1.282 . S
C246 O247 1.216 . S
O247 C246 1.216 . S
H248 C243 0.930 . S
H249 C244 0.930 . S
O250 Cu230 1.959 . S
O250 C237 1.251 . S
H251 C234 0.930 . S
H252 C245 0.929 . S
Cu253 N254 1.999 . S
Cu253 O259 1.974 . S
Cu253 N264 1.985 . S
Cu253 O273 1.959 . S
N254 Cu253 1.999 . S
N254 C256 1.263 . S
N254 C258 1.389 . S
N255 C256 1.358 . S
N255 C257 1.400 . S
C256 N254 1.263 . S
C256 N255 1.358 . S
C256 H262 0.930 . S
C257 N255 1.400 . S
C257 C258 1.351 . S
C257 H274 0.930 . S
C258 N254 1.389 . S
C258 C257 1.351 . S
C258 H263 0.930 . S
O259 Cu253 1.974 . S
O259 C269 1.282 . S
C260 O261 1.261 . S
C260 O273 1.251 . S
O261 C260 1.261 . S
H262 C256 0.930 . S
H263 C258 0.930 . S
N264 Cu253 1.985 . S
N264 C266 1.335 . S
N264 C267 1.390 . S
N265 C266 1.345 . S
N265 C268 1.336 . S
C266 N264 1.335 . S
C266 N265 1.345 . S
C266 H271 0.930 . S
C267 N264 1.390 . S
C267 C268 1.346 . S
C267 H272 0.930 . S
C268 N265 1.336 . S
C268 C267 1.346 . S
C268 H275 0.929 . S
C269 O259 1.282 . S
C269 O270 1.216 . S
O270 C269 1.216 . S
H271 C266 0.930 . S
H272 C267 0.930 . S
O273 Cu253 1.959 . S
O273 C260 1.251 . S
H274 C257 0.930 . S
H275 C268 0.929 . S
C276 C277 1.369 . S
C276 C278 1.419 . S
C276 H280 0.930 . S
C277 C276 1.369 . S
C277 C286 1.429 . S
C278 C276 1.419 . S
C278 C279 1.363 . S
C278 H281 0.929 . S
C279 C278 1.363 . S
C279 C285 1.428 . S
H280 C276 0.930 . S
H281 C278 0.929 . S
S282 N283 1.613 . S
S282 N284 1.610 . S
N283 S282 1.613 . S
N283 C286 1.350 . S
N284 S282 1.610 . S
N284 C285 1.351 . S
C285 C279 1.428 . S
C285 N284 1.351 . S
C285 C286 1.434 . S
C286 C277 1.429 . S
C286 N283 1.350 . S
C286 C285 1.434 . S
C287 C288 1.369 . S
C287 C289 1.419 . S
C287 H291 0.930 . S
C288 C287 1.369 . S
C288 C297 1.429 . S
C289 C287 1.419 . S
C289 C290 1.363 . S
C289 H292 0.929 . S
C290 C289 1.363 . S
C290 C296 1.428 . S
H291 C287 0.930 . S
H292 C289 0.929 . S
S293 N294 1.613 . S
S293 N295 1.610 . S
N294 S293 1.613 . S
N294 C297 1.350 . S
N295 S293 1.610 . S
N295 C296 1.351 . S
C296 C290 1.428 . S
C296 N295 1.351 . S
C296 C297 1.434 . S
C297 C288 1.429 . S
C297 N294 1.350 . S
C297 C296 1.434 . S
C298 C299 1.369 . S
C298 C300 1.419 . S
C298 H302 0.930 . S
C299 C298 1.369 . S
C299 C308 1.429 . S
C300 C298 1.419 . S
C300 C301 1.363 . S
C300 H303 0.929 . S
C301 C300 1.363 . S
C301 C307 1.428 . S
H302 C298 0.930 . S
H303 C300 0.929 . S
S304 N305 1.613 . S
S304 N306 1.610 . S
N305 S304 1.613 . S
N305 C308 1.350 . S
N306 S304 1.610 . S
N306 C307 1.351 . S
C307 C301 1.428 . S
C307 N306 1.351 . S
C307 C308 1.434 . S
C308 C299 1.429 . S
C308 N305 1.350 . S
C308 C307 1.434 . S
C309 C310 1.369 . S
C309 C311 1.419 . S
C309 H313 0.930 . S
C310 C309 1.369 . S
C310 C319 1.429 . S
C311 C309 1.419 . S
C311 C312 1.363 . S
C311 H314 0.929 . S
C312 C311 1.363 . S
C312 C318 1.428 . S
H313 C309 0.930 . S
H314 C311 0.929 . S
S315 N316 1.613 . S
S315 N317 1.610 . S
N316 S315 1.613 . S
N316 C319 1.350 . S
N317 S315 1.610 . S
N317 C318 1.351 . S
C318 C312 1.428 . S
C318 N317 1.351 . S
C318 C319 1.434 . S
C319 C310 1.429 . S
C319 N316 1.350 . S
C319 C318 1.434 . S
C320 C321 1.369 . S
C320 C322 1.419 . S
C320 H324 0.930 . S
C321 C320 1.369 . S
C321 C330 1.429 . S
C322 C320 1.419 . S
C322 C323 1.363 . S
C322 H325 0.929 . S
C323 C322 1.363 . S
C323 C329 1.428 . S
H324 C320 0.930 . S
H325 C322 0.929 . S
S326 N327 1.613 . S
S326 N328 1.610 . S
N327 S326 1.613 . S
N327 C330 1.350 . S
N328 S326 1.610 . S
N328 C329 1.351 . S
C329 C323 1.428 . S
C329 N328 1.351 . S
C329 C330 1.434 . S
C330 C321 1.429 . S
C330 N327 1.350 . S
C330 C329 1.434 . S
C331 C332 1.369 . S
C331 C333 1.419 . S
C331 H335 0.930 . S
C332 C331 1.369 . S
C332 C341 1.429 . S
C333 C331 1.419 . S
C333 C334 1.363 . S
C333 H336 0.929 . S
C334 C333 1.363 . S
C334 C340 1.428 . S
H335 C331 0.930 . S
H336 C333 0.929 . S
S337 N338 1.613 . S
S337 N339 1.610 . S
N338 S337 1.613 . S
N338 C341 1.350 . S
N339 S337 1.610 . S
N339 C340 1.351 . S
C340 C334 1.428 . S
C340 N339 1.351 . S
C340 C341 1.434 . S
C341 C332 1.429 . S
C341 N338 1.350 . S
C341 C340 1.434 . S
C342 C343 1.369 . S
C342 C344 1.419 . S
C342 H346 0.930 . S
C343 C342 1.369 . S
C343 C352 1.429 . S
C344 C342 1.419 . S
C344 C345 1.363 . S
C344 H347 0.929 . S
C345 C344 1.363 . S
C345 C351 1.428 . S
H346 C342 0.930 . S
H347 C344 0.929 . S
S348 N349 1.613 . S
S348 N350 1.610 . S
N349 S348 1.613 . S
N349 C352 1.350 . S
N350 S348 1.610 . S
N350 C351 1.351 . S
C351 C345 1.428 . S
C351 N350 1.351 . S
C351 C352 1.434 . S
C352 C343 1.429 . S
C352 N349 1.350 . S
C352 C351 1.434 . S
C353 C354 1.369 . S
C353 C355 1.419 . S
C353 H357 0.930 . S
C354 C353 1.369 . S
C354 C363 1.429 . S
C355 C353 1.419 . S
C355 C356 1.363 . S
C355 H358 0.929 . S
C356 C355 1.363 . S
C356 C362 1.428 . S
H357 C353 0.930 . S
H358 C355 0.929 . S
S359 N360 1.613 . S
S359 N361 1.610 . S
N360 S359 1.613 . S
N360 C363 1.350 . S
N361 S359 1.610 . S
N361 C362 1.351 . S
C362 C356 1.428 . S
C362 N361 1.351 . S
C362 C363 1.434 . S
C363 C354 1.429 . S
C363 N360 1.350 . S
C363 C362 1.434 . S
C364 C365 1.369 . S
C364 C366 1.419 . S
C364 H368 0.930 . S
C365 C364 1.369 . S
C365 C374 1.429 . S
C366 C364 1.419 . S
C366 C367 1.363 . S
C366 H369 0.929 . S
C367 C366 1.363 . S
C367 C373 1.428 . S
H368 C364 0.930 . S
H369 C366 0.929 . S
S370 N371 1.613 . S
S370 N372 1.610 . S
N371 S370 1.613 . S
N371 C374 1.350 . S
N372 S370 1.610 . S
N372 C373 1.351 . S
C373 C367 1.428 . S
C373 N372 1.351 . S
C373 C374 1.434 . S
C374 C365 1.429 . S
C374 N371 1.350 . S
C374 C373 1.434 . S
C375 C376 1.369 . S
C375 C377 1.419 . S
C375 H379 0.930 . S
C376 C375 1.369 . S
C376 C385 1.429 . S
C377 C375 1.419 . S
C377 C378 1.363 . S
C377 H380 0.929 . S
C378 C377 1.363 . S
C378 C384 1.428 . S
H379 C375 0.930 . S
H380 C377 0.929 . S
S381 N382 1.613 . S
S381 N383 1.610 . S
N382 S381 1.613 . S
N382 C385 1.350 . S
N383 S381 1.610 . S
N383 C384 1.351 . S
C384 C378 1.428 . S
C384 N383 1.351 . S
C384 C385 1.434 . S
C385 C376 1.429 . S
C385 N382 1.350 . S
C385 C384 1.434 . S
C386 C387 1.369 . S
C386 C388 1.419 . S
C386 H390 0.930 . S
C387 C386 1.369 . S
C387 C396 1.429 . S
C388 C386 1.419 . S
C388 C389 1.363 . S
C388 H391 0.929 . S
C389 C388 1.363 . S
C389 C395 1.428 . S
H390 C386 0.930 . S
H391 C388 0.929 . S
S392 N393 1.613 . S
S392 N394 1.610 . S
N393 S392 1.613 . S
N393 C396 1.350 . S
N394 S392 1.610 . S
N394 C395 1.351 . S
C395 C389 1.428 . S
C395 N394 1.351 . S
C395 C396 1.434 . S
C396 C387 1.429 . S
C396 N393 1.350 . S
C396 C395 1.434 . S
C397 C398 1.369 . S
C397 C399 1.419 . S
C397 H401 0.930 . S
C398 C397 1.369 . S
C398 C407 1.429 . S
C399 C397 1.419 . S
C399 C400 1.363 . S
C399 H402 0.929 . S
C400 C399 1.363 . S
C400 C406 1.428 . S
H401 C397 0.930 . S
H402 C399 0.929 . S
S403 N404 1.613 . S
S403 N405 1.610 . S
N404 S403 1.613 . S
N404 C407 1.350 . S
N405 S403 1.610 . S
N405 C406 1.351 . S
C406 C400 1.428 . S
C406 N405 1.351 . S
C406 C407 1.434 . S
C407 C398 1.429 . S
C407 N404 1.350 . S
C407 C406 1.434 . S
C408 C409 1.369 1_455 S
C408 C410 1.419 . S
C408 H412 0.930 . S
C409 C408 1.369 1_655 S
C409 C418 1.429 . S
C410 C408 1.419 . S
C410 C411 1.363 . S
C410 H413 0.929 . S
C411 C410 1.363 . S
C411 C417 1.428 1_455 S
H412 C408 0.930 . S
H413 C410 0.929 . S
S414 N415 1.613 . S
S414 N416 1.610 . S
N415 S414 1.613 . S
N415 C418 1.350 . S
N416 S414 1.610 . S
N416 C417 1.351 . S
C417 C411 1.428 1_655 S
C417 N416 1.351 . S
C417 C418 1.434 . S
C418 C409 1.429 . S
C418 N415 1.350 . S
C418 C417 1.434 . S
C419 C420 1.369 . S
C419 C421 1.419 . S
C419 H423 0.930 . S
C420 C419 1.369 . S
C420 C429 1.429 . S
C421 C419 1.419 . S
C421 C422 1.363 . S
C421 H424 0.929 . S
C422 C421 1.363 . S
C422 C428 1.428 . S
H423 C419 0.930 . S
H424 C421 0.929 . S
S425 N426 1.613 . S
S425 N427 1.610 . S
N426 S425 1.613 . S
N426 C429 1.350 . S
N427 S425 1.610 . S
N427 C428 1.351 . S
C428 C422 1.428 . S
C428 N427 1.351 . S
C428 C429 1.434 . S
C429 C420 1.429 . S
C429 N426 1.350 . S
C429 C428 1.434 . S
C430 C431 1.369 . S
C430 C432 1.419 . S
C430 H434 0.930 . S
C431 C430 1.369 . S
C431 C440 1.429 1_455 S
C432 C430 1.419 . S
C432 C433 1.363 1_455 S
C432 H435 0.929 . S
C433 C432 1.363 1_655 S
C433 C439 1.428 . S
H434 C430 0.930 . S
H435 C432 0.929 . S
S436 N437 1.613 . S
S436 N438 1.610 . S
N437 S436 1.613 . S
N437 C440 1.350 . S
N438 S436 1.610 . S
N438 C439 1.351 . S
C439 C433 1.428 . S
C439 N438 1.351 . S
C439 C440 1.434 . S
C440 C431 1.429 1_655 S
C440 N437 1.350 . S
C440 C439 1.434 . S
C441 C442 1.369 1_565 S
C441 C443 1.419 . S
C441 H445 0.930 . S
C442 C441 1.369 1_545 S
C442 C451 1.429 . S
C443 C441 1.419 . S
C443 C444 1.363 . S
C443 H446 0.929 . S
C444 C443 1.363 . S
C444 C450 1.428 1_565 S
H445 C441 0.930 . S
H446 C443 0.929 . S
S447 N448 1.613 . S
S447 N449 1.610 . S
N448 S447 1.613 . S
N448 C451 1.350 . S
N449 S447 1.610 . S
N449 C450 1.351 . S
C450 C444 1.428 1_545 S
C450 N449 1.351 . S
C450 C451 1.434 . S
C451 C442 1.429 . S
C451 N448 1.350 . S
C451 C450 1.434 . S
C452 C453 1.369 . S
C452 C454 1.419 . S
C452 H456 0.930 . S
C453 C452 1.369 . S
C453 C462 1.429 1_545 S
C454 C452 1.419 . S
C454 C455 1.363 . S
C454 H457 0.929 . S
C455 C454 1.363 . S
C455 C461 1.428 1_545 S
H456 C452 0.930 . S
H457 C454 0.929 . S
S458 N459 1.613 . S
S458 N460 1.610 . S
N459 S458 1.613 . S
N459 C462 1.350 . S
N460 S458 1.610 . S
N460 C461 1.351 . S
C461 C455 1.428 1_565 S
C461 N460 1.351 . S
C461 C462 1.434 . S
C462 C453 1.429 1_565 S
C462 N459 1.350 . S
C462 C461 1.434 . S
C463 C464 1.369 . S
C463 C465 1.419 . S
C463 H467 0.930 . S
C464 C463 1.369 . S
C464 C473 1.429 1_455 S
C465 C463 1.419 . S
C465 C466 1.363 . S
C465 H468 0.929 . S
C466 C465 1.363 . S
C466 C472 1.428 1_455 S
H467 C463 0.930 . S
H468 C465 0.929 . S
S469 N470 1.613 . S
S469 N471 1.610 . S
N470 S469 1.613 . S
N470 C473 1.350 . S
N471 S469 1.610 . S
N471 C472 1.351 . S
C472 C466 1.428 1_655 S
C472 N471 1.351 . S
C472 C473 1.434 . S
C473 C464 1.429 1_655 S
C473 N470 1.350 . S
C473 C472 1.434 . S
C474 C475 1.351 1_545 S
C474 C476 1.419 . S
C474 H478 0.930 . S
C475 C474 1.351 1_565 S
C475 C484 1.455 . S
C476 C474 1.419 . S
C476 C477 1.363 1_545 S
C476 H479 0.929 . S
C477 C476 1.363 1_565 S
C477 C483 1.428 . S
H478 C474 0.930 . S
H479 C476 0.929 . S
S480 N481 1.613 . S
S480 N482 1.610 . S
N481 S480 1.613 . S
N481 C484 1.350 . S
N482 S480 1.610 . S
N482 C483 1.351 . S
C483 C477 1.428 . S
C483 N482 1.351 . S
C483 C484 1.434 . S
C484 C475 1.455 . S
C484 N481 1.350 . S
C484 C483 1.434 . S
C485 C486 1.369 1_455 S
C485 C487 1.419 . S
C485 H489 0.930 . S
C486 C485 1.369 1_655 S
C486 C495 1.429 . S
C487 C485 1.419 . S
C487 C488 1.363 1_455 S
C487 H490 0.929 . S
C488 C487 1.363 1_655 S
C488 C494 1.428 . S
H489 C485 0.930 . S
H490 C487 0.929 . S
S491 N492 1.613 . S
S491 N493 1.610 . S
N492 S491 1.613 . S
N492 C495 1.350 . S
N493 S491 1.610 . S
N493 C494 1.351 . S
C494 C488 1.428 . S
C494 N493 1.351 . S
C494 C495 1.434 . S
C495 C486 1.429 . S
C495 N492 1.350 . S
C495 C494 1.434 . S
C496 C497 1.369 . S
C496 C498 1.419 . S
C496 H500 0.930 . S
C497 C496 1.369 . S
C497 C506 1.429 . S
C498 C496 1.419 . S
C498 C499 1.369 . S
C498 H501 0.929 . S
C499 C498 1.369 . S
C499 C505 1.427 1_554 S
H500 C496 0.930 . S
H501 C498 0.929 . S
S502 N503 1.613 . S
S502 N504 1.610 . S
N503 S502 1.613 . S
N503 C506 1.350 1_556 S
N504 S502 1.610 . S
N504 C505 1.351 . S
C505 C499 1.427 1_556 S
C505 N504 1.351 . S
C505 C506 1.434 1_556 S
C506 C497 1.429 . S
C506 N503 1.350 1_554 S
C506 C505 1.434 1_554 S
C507 C508 1.369 . S
C507 C509 1.419 . S
C507 H511 0.930 . S
C508 C507 1.369 . S
C508 C517 1.429 1_556 S
C509 C507 1.419 . S
C509 C510 1.363 1_556 S
C509 H512 0.929 . S
C510 C509 1.363 1_554 S
C510 C516 1.428 . S
H511 C507 0.930 . S
H512 C509 0.929 . S
S513 N514 1.613 . S
S513 N515 1.610 . S
N514 S513 1.613 . S
N514 C517 1.350 . S
N515 S513 1.610 . S
N515 C516 1.351 . S
C516 C510 1.428 . S
C516 N515 1.351 . S
C516 C517 1.434 . S
C517 C508 1.429 1_554 S
C517 N514 1.350 . S
C517 C516 1.434 . S
C518 C519 1.369 1_554 S
C518 C520 1.419 . S
C518 H522 0.930 . S
C519 C518 1.369 1_556 S
C519 C528 1.429 . S
C520 C518 1.419 . S
C520 C521 1.370 . S
C520 H523 0.929 . S
C521 C520 1.370 . S
C521 C527 1.418 1_554 S
H522 C518 0.930 . S
H523 C520 0.929 . S
S524 N525 1.613 . S
S524 N526 1.610 . S
N525 S524 1.613 . S
N525 C528 1.350 . S
N526 S524 1.610 . S
N526 C527 1.351 . S
C527 C521 1.418 1_556 S
C527 N526 1.351 . S
C527 C528 1.434 . S
C528 C519 1.429 . S
C528 N525 1.350 . S
C528 C527 1.434 . S
C529 C530 1.369 . S
C529 C531 1.419 . S
C529 H533 0.930 . S
C530 C529 1.369 . S
C530 C539 1.429 1_554 S
C531 C529 1.419 . S
C531 C532 1.363 1_554 S
C531 H534 0.929 . S
C532 C531 1.363 1_556 S
C532 C538 1.428 . S
H533 C529 0.930 . S
H534 C531 0.929 . S
S535 N536 1.613 . S
S535 N537 1.610 . S
N536 S535 1.613 . S
N536 C539 1.350 . S
N537 S535 1.610 . S
N537 C538 1.351 . S
C538 C532 1.428 . S
C538 N537 1.351 . S
C538 C539 1.434 . S
C539 C530 1.429 1_556 S
C539 N536 1.350 . S
C539 C538 1.434 . S
C277 N12 1.451 . S
C279 C177 1.506 . S
C288 N25 1.422 . S
C290 C108 1.456 . S
C299 N117 1.437 . S
C301 C62 1.475 . S
C310 N140 1.358 . S
C312 N71 1.353 . S
C321 N186 1.353 . S
C323 N163 1.352 . S
C332 C223 1.475 . S
C334 N94 1.453 . S
C343 N242 1.525 . S
C345 C131 1.530 . S
C354 C260 1.681 . S
C356 C154 1.690 . S
C365 C39 1.528 . S
C367 N209 1.526 . S
C376 C237 1.471 . S
C378 N48 1.465 . S
C387 C85 1.464 . S
C389 N265 1.449 . S
C398 C200 1.656 . S
C400 C7 1.656 . S
C409 C145 1.570 . S
C411 C16 1.541 . S
C420 N173 1.745 1_565 S
C422 C30 1.839 . S
C431 N104 1.341 . S
C433 N58 1.331 . S
C442 C76 1.949 . S
C444 C122 1.951 . S
C453 C168 1.607 . S
C455 N127 1.551 1_545 S
C464 C99 1.798 . S
C466 N150 1.696 1_455 S
C475 N81 1.429 1_565 S
C477 N35 1.463 . S
C486 C53 1.793 . S
C488 N2 1.758 1_655 S
C497 N196 1.411 . S
C499 N219 1.407 1_554 S
C508 C214 1.839 . S
C510 C246 1.856 . S
C519 N255 1.391 . S
C521 N232 1.410 . S
C530 C191 1.767 . S
C532 C269 1.777 . S
