# Generated by pormake.
# Topology cag, (4)-cn, num edge types: 1
# Building blocks:
#     Node 0, Type 0, BuildingBlock: AZAVOO_clean_sbu_0, # of connection points: 4
#     Node 1, Type 0, BuildingBlock: AZAVOO_clean_sbu_0, # of connection points: 4
#     Node 2, Type 0, BuildingBlock: AZAVOO_clean_sbu_0, # of connection points: 4
#     Node 3, Type 0, BuildingBlock: AZAVOO_clean_sbu_0, # of connection points: 4
#     Node 4, Type 0, BuildingBlock: AZAVOO_clean_sbu_0, # of connection points: 4
#     Node 5, Type 0, BuildingBlock: AZAVOO_clean_sbu_0, # of connection points: 4
#     Node 6, Type 0, BuildingBlock: AZAVOO_clean_sbu_0, # of connection points: 4
#     Node 7, Type 0, BuildingBlock: AZAVOO_clean_sbu_0, # of connection points: 4
#     Node 8, Type 0, BuildingBlock: AZAVOO_clean_sbu_0, # of connection points: 4
#     Node 9, Type 0, BuildingBlock: AZAVOO_clean_sbu_0, # of connection points: 4
#     Node 10, Type 0, BuildingBlock: AZAVOO_clean_sbu_0, # of connection points: 4
#     Node 11, Type 0, BuildingBlock: AZAVOO_clean_sbu_0, # of connection points: 4
#     Node 12, Type 0, BuildingBlock: AZAVOO_clean_sbu_0, # of connection points: 4
#     Node 13, Type 0, BuildingBlock: AZAVOO_clean_sbu_0, # of connection points: 4
#     Node 14, Type 0, BuildingBlock: AZAVOO_clean_sbu_0, # of connection points: 4
#     Node 15, Type 0, BuildingBlock: AZAVOO_clean_sbu_0, # of connection points: 4
#     Edge 16, Type (0, 0), BuildingBlock: CIFDUS_clean_linker_0, # of connection points: 2
#     Edge 17, Type (0, 0), BuildingBlock: CIFDUS_clean_linker_0, # of connection points: 2
#     Edge 18, Type (0, 0), BuildingBlock: CIFDUS_clean_linker_0, # of connection points: 2
#     Edge 19, Type (0, 0), BuildingBlock: CIFDUS_clean_linker_0, # of connection points: 2
#     Edge 20, Type (0, 0), BuildingBlock: CIFDUS_clean_linker_0, # of connection points: 2
#     Edge 21, Type (0, 0), BuildingBlock: CIFDUS_clean_linker_0, # of connection points: 2
#     Edge 22, Type (0, 0), BuildingBlock: CIFDUS_clean_linker_0, # of connection points: 2
#     Edge 23, Type (0, 0), BuildingBlock: CIFDUS_clean_linker_0, # of connection points: 2
#     Edge 24, Type (0, 0), BuildingBlock: CIFDUS_clean_linker_0, # of connection points: 2
#     Edge 25, Type (0, 0), BuildingBlock: CIFDUS_clean_linker_0, # of connection points: 2
#     Edge 26, Type (0, 0), BuildingBlock: CIFDUS_clean_linker_0, # of connection points: 2
#     Edge 27, Type (0, 0), BuildingBlock: CIFDUS_clean_linker_0, # of connection points: 2
#     Edge 28, Type (0, 0), BuildingBlock: CIFDUS_clean_linker_0, # of connection points: 2
#     Edge 29, Type (0, 0), BuildingBlock: CIFDUS_clean_linker_0, # of connection points: 2
#     Edge 30, Type (0, 0), BuildingBlock: CIFDUS_clean_linker_0, # of connection points: 2
#     Edge 31, Type (0, 0), BuildingBlock: CIFDUS_clean_linker_0, # of connection points: 2
#     Edge 32, Type (0, 0), BuildingBlock: CIFDUS_clean_linker_0, # of connection points: 2
#     Edge 33, Type (0, 0), BuildingBlock: CIFDUS_clean_linker_0, # of connection points: 2
#     Edge 34, Type (0, 0), BuildingBlock: CIFDUS_clean_linker_0, # of connection points: 2
#     Edge 35, Type (0, 0), BuildingBlock: CIFDUS_clean_linker_0, # of connection points: 2
#     Edge 36, Type (0, 0), BuildingBlock: CIFDUS_clean_linker_0, # of connection points: 2
#     Edge 37, Type (0, 0), BuildingBlock: CIFDUS_clean_linker_0, # of connection points: 2
#     Edge 38, Type (0, 0), BuildingBlock: CIFDUS_clean_linker_0, # of connection points: 2
#     Edge 39, Type (0, 0), BuildingBlock: CIFDUS_clean_linker_0, # of connection points: 2
#     Edge 40, Type (0, 0), BuildingBlock: CIFDUS_clean_linker_0, # of connection points: 2
#     Edge 41, Type (0, 0), BuildingBlock: CIFDUS_clean_linker_0, # of connection points: 2
#     Edge 42, Type (0, 0), BuildingBlock: CIFDUS_clean_linker_0, # of connection points: 2
#     Edge 43, Type (0, 0), BuildingBlock: CIFDUS_clean_linker_0, # of connection points: 2
#     Edge 44, Type (0, 0), BuildingBlock: CIFDUS_clean_linker_0, # of connection points: 2
#     Edge 45, Type (0, 0), BuildingBlock: CIFDUS_clean_linker_0, # of connection points: 2
#     Edge 46, Type (0, 0), BuildingBlock: CIFDUS_clean_linker_0, # of connection points: 2
#     Edge 47, Type (0, 0), BuildingBlock: CIFDUS_clean_linker_0, # of connection points: 2
# Relax obj value: 0.058
# Max RMSD: 0.099
# Mean RMSD: 0.095
data_MOF--net-cag--node1-AZAVOO_clean_sbu_0--edge1-CIFDUS_clean_linker_0
_symmetry_space_group_name_H-M    P1
_symmetry_Int_Tables_number       1
_symmetry_cell_setting            triclinic
loop_
_symmetry_equiv_pos_as_xyz
'x, y, z'
_cell_length_a     39.549675
_cell_length_b     40.637154
_cell_length_c     38.617555
_cell_angle_alpha  89.916587
_cell_angle_beta   90.110288
_cell_angle_gamma 90.31586
loop_
_atom_site_label
_atom_site_type_symbol
_atom_site_fract_x
_atom_site_fract_y
_atom_site_fract_z
_atom_type_partial_charge
Mg0 Mg 0.33929 0.13131 0.10549 0.0
O1 O 0.32789 0.0874 0.06967 0.0
O2 O 0.27185 0.07994 0.0712 0.0
Mg3 Mg 0.24801 0.11502 0.11045 0.0
C4 C 0.30108 0.07245 0.05966 0.0
C5 C 0.41582 0.11743 0.09387 0.0
O6 O 0.40769 0.09328 0.11496 0.0
O7 O 0.31631 0.16714 0.06546 0.0
O8 O 0.26121 0.15876 0.07563 0.0
O9 O 0.34555 0.09855 0.15229 0.0
O10 O 0.29716 0.11983 0.13566 0.0
C11 C 0.2852 0.17453 0.06083 0.0
C12 C 0.31336 0.10154 0.15706 0.0
O13 O 0.39277 0.13688 0.08352 0.0
Mg14 Mg 0.17835 0.86295 0.59839 0.0
O15 O 0.18485 0.90789 0.56262 0.0
O16 O 0.239 0.92339 0.56645 0.0
Mg17 Mg 0.26634 0.8913 0.60618 0.0
C18 C 0.20937 0.92665 0.55372 0.0
C19 C 0.10253 0.8712 0.58134 0.0
O20 O 0.1093 0.89799 0.59909 0.0
O21 O 0.20722 0.83004 0.56001 0.0
O22 O 0.26021 0.84675 0.57057 0.0
O23 O 0.16644 0.89476 0.64437 0.0
O24 O 0.21777 0.8793 0.63014 0.0
C25 C 0.23918 0.82749 0.55555 0.0
C26 C 0.19855 0.89547 0.65071 0.0
O27 O 0.12651 0.85147 0.57457 0.0
Mg28 Mg 0.32412 0.87335 0.87481 0.0
O29 O 0.30839 0.91697 0.90964 0.0
O30 O 0.25318 0.92455 0.90005 0.0
Mg31 Mg 0.23351 0.88892 0.85907 0.0
C32 C 0.28067 0.93203 0.91564 0.0
C33 C 0.40131 0.87957 0.88439 0.0
O34 O 0.39559 0.89264 0.85386 0.0
O35 O 0.29705 0.83636 0.91161 0.0
O36 O 0.24363 0.84667 0.8962 0.0
O37 O 0.33414 0.90688 0.82896 0.0
O38 O 0.28492 0.88408 0.84001 0.0
C39 C 0.26526 0.83018 0.91348 0.0
C40 C 0.3028 0.90287 0.82054 0.0
O41 O 0.3762 0.86888 0.90186 0.0
Mg42 Mg 0.1633 0.12084 0.36677 0.0
O43 O 0.18337 0.07968 0.40264 0.0
O44 O 0.23969 0.08198 0.39721 0.0
Mg45 Mg 0.25564 0.12006 0.35672 0.0
C46 C 0.213 0.06974 0.41085 0.0
C47 C 0.09453 0.14637 0.38958 0.0
O48 O 0.11133 0.17296 0.38039 0.0
O49 O 0.18221 0.16008 0.4057 0.0
O50 O 0.23733 0.1608 0.39268 0.0
O51 O 0.1599 0.08694 0.3206 0.0
O52 O 0.20516 0.11558 0.33496 0.0
C53 C 0.21192 0.17238 0.40889 0.0
C54 C 0.19109 0.09472 0.3145 0.0
O55 O 0.10986 0.11896 0.38954 0.0
Mg56 Mg 0.67934 0.84974 0.90174 0.0
O57 O 0.70164 0.89786 0.92417 0.0
O58 O 0.75775 0.89153 0.92547 0.0
Mg59 Mg 0.77151 0.84061 0.90511 0.0
C60 C 0.73135 0.9087 0.93096 0.0
C61 C 0.60067 0.86263 0.91046 0.0
O62 O 0.62579 0.87502 0.89258 0.0
O63 O 0.69691 0.86403 0.84736 0.0
O64 O 0.7526 0.85543 0.85085 0.0
O65 O 0.677 0.82834 0.95467 0.0
O66 O 0.72098 0.82324 0.92002 0.0
C67 C 0.72627 0.86345 0.83358 0.0
C68 C 0.70759 0.81805 0.9499 0.0
O69 O 0.62589 0.87402 0.89349 0.0
Mg70 Mg 0.81832 0.13557 0.39864 0.0
O71 O 0.79968 0.08963 0.42848 0.0
O72 O 0.74393 0.09593 0.43508 0.0
Mg73 Mg 0.7269 0.14429 0.41078 0.0
C74 C 0.77098 0.07943 0.43953 0.0
C75 C 0.89266 0.13774 0.39351 0.0
O76 O 0.88097 0.16759 0.39839 0.0
O77 O 0.79616 0.11515 0.34812 0.0
O78 O 0.74111 0.12408 0.35711 0.0
O79 O 0.82548 0.16249 0.448 0.0
O80 O 0.77811 0.16369 0.4178 0.0
C81 C 0.76536 0.1143 0.33791 0.0
C82 C 0.79459 0.17241 0.44509 0.0
O83 O 0.87136 0.11429 0.39036 0.0
Mg84 Mg 0.69412 0.14016 0.07944 0.0
O85 O 0.70296 0.09518 0.04501 0.0
O86 O 0.75822 0.09248 0.03409 0.0
Mg87 Mg 0.78445 0.13721 0.05872 0.0
C88 C 0.72823 0.08101 0.03112 0.0
C89 C 0.61631 0.13896 0.07957 0.0
O90 O 0.62367 0.1662 0.06279 0.0
O91 O 0.7177 0.11419 0.12595 0.0
O92 O 0.77287 0.11775 0.11366 0.0
O93 O 0.68712 0.17253 0.03376 0.0
O94 O 0.7366 0.16463 0.0588 0.0
C95 C 0.74873 0.11011 0.13424 0.0
C96 C 0.71922 0.17869 0.03483 0.0
O97 O 0.64042 0.12151 0.0913 0.0
Mg98 Mg 0.82464 0.8403 0.56952 0.0
O99 O 0.8117 0.88964 0.54422 0.0
O100 O 0.75557 0.89256 0.53936 0.0
Mg101 Mg 0.73266 0.84475 0.56088 0.0
C102 C 0.78503 0.90491 0.53503 0.0
C103 C 0.90297 0.84238 0.56525 0.0
O104 O 0.89589 0.81575 0.54735 0.0
O105 O 0.80694 0.85873 0.62208 0.0
O106 O 0.7507 0.85789 0.61618 0.0
O107 O 0.8262 0.81712 0.51774 0.0
O108 O 0.78017 0.81857 0.55004 0.0
C109 C 0.77729 0.8625 0.6345 0.0
C110 C 0.79429 0.81066 0.52121 0.0
O111 O 0.8788 0.85856 0.57857 0.0
Mg112 Mg 0.84208 0.62864 0.1051 0.0
O113 O 0.82104 0.59209 0.06449 0.0
O114 O 0.76466 0.59637 0.06841 0.0
Mg115 Mg 0.74903 0.63187 0.11108 0.0
C116 C 0.79114 0.58415 0.05461 0.0
C117 C 0.91473 0.60071 0.08892 0.0
O118 O 0.90056 0.57402 0.10168 0.0
O119 O 0.82741 0.67219 0.06901 0.0
O120 O 0.77179 0.67345 0.07958 0.0
O121 O 0.83992 0.5896 0.14743 0.0
O122 O 0.79811 0.62257 0.13348 0.0
C123 C 0.79829 0.68551 0.0656 0.0
C124 C 0.80875 0.59821 0.15142 0.0
O125 O 0.89669 0.62629 0.0846 0.0
Mg126 Mg 0.66992 0.3726 0.59323 0.0
O127 O 0.68931 0.4119 0.55523 0.0
O128 O 0.74581 0.41168 0.55875 0.0
Mg129 Mg 0.76282 0.37427 0.59936 0.0
C130 C 0.71832 0.42277 0.54591 0.0
C131 C 0.5925 0.38176 0.59045 0.0
O132 O 0.59966 0.3887 0.62286 0.0
O133 O 0.68663 0.33131 0.55613 0.0
O134 O 0.74234 0.33237 0.56628 0.0
O135 O 0.66933 0.40964 0.63682 0.0
O136 O 0.71324 0.37927 0.62305 0.0
C137 C 0.71628 0.31948 0.55213 0.0
C138 C 0.70072 0.40218 0.64182 0.0
O139 O 0.61654 0.37425 0.57011 0.0
Mg140 Mg 0.81541 0.37476 0.8699 0.0
O141 O 0.81112 0.42007 0.9053 0.0
O142 O 0.7564 0.43324 0.90742 0.0
Mg143 Mg 0.72567 0.3979 0.87402 0.0
C144 C 0.78714 0.43824 0.91619 0.0
C145 C 0.89134 0.39103 0.8803 0.0
O146 O 0.87978 0.41878 0.86754 0.0
O147 O 0.7942 0.341 0.91305 0.0
O148 O 0.73998 0.35597 0.91009 0.0
O149 O 0.81884 0.40649 0.82205 0.0
O150 O 0.7711 0.38797 0.84403 0.0
C151 C 0.76334 0.33795 0.92261 0.0
C152 C 0.78617 0.40522 0.8208 0.0
O153 O 0.87059 0.36761 0.88614 0.0
Mg154 Mg 0.66247 0.6247 0.35909 0.0
O155 O 0.67454 0.58404 0.39848 0.0
O156 O 0.73085 0.58221 0.40355 0.0
Mg157 Mg 0.75524 0.61983 0.36717 0.0
C158 C 0.70135 0.57189 0.41176 0.0
C159 C 0.58562 0.6237 0.34775 0.0
O160 O 0.59815 0.62586 0.31633 0.0
O161 O 0.67539 0.66494 0.39972 0.0
O162 O 0.73185 0.66181 0.39728 0.0
O163 O 0.66709 0.58877 0.31444 0.0
O164 O 0.70949 0.61745 0.33596 0.0
C165 C 0.70489 0.67558 0.40788 0.0
C166 C 0.6991 0.59549 0.31458 0.0
O167 O 0.60603 0.62313 0.37329 0.0
Mg168 Mg 0.16004 0.34003 0.90082 0.0
O169 O 0.1741 0.38955 0.92622 0.0
O170 O 0.23041 0.39076 0.93032 0.0
Mg171 Mg 0.25204 0.34251 0.90948 0.0
C172 C 0.20158 0.40406 0.9349 0.0
C173 C 0.08404 0.33431 0.89889 0.0
O174 O 0.09527 0.3052 0.9081 0.0
O175 O 0.17811 0.35827 0.84792 0.0
O176 O 0.23426 0.35576 0.85416 0.0
O177 O 0.15749 0.31621 0.95234 0.0
O178 O 0.20378 0.3175 0.92055 0.0
C179 C 0.20799 0.36108 0.83562 0.0
C180 C 0.18916 0.30903 0.94903 0.0
O181 O 0.10552 0.3569 0.89229 0.0
Mg182 Mg 0.31631 0.63785 0.39043 0.0
O183 O 0.30695 0.5922 0.42479 0.0
O184 O 0.25148 0.59024 0.43528 0.0
Mg185 Mg 0.22577 0.63505 0.41105 0.0
C186 C 0.28113 0.57828 0.43841 0.0
C187 C 0.3907 0.61764 0.4038 0.0
O188 O 0.37873 0.6205 0.43536 0.0
O189 O 0.29232 0.61191 0.34349 0.0
O190 O 0.23735 0.61573 0.35641 0.0
O191 O 0.32346 0.67056 0.43626 0.0
O192 O 0.27412 0.66175 0.41133 0.0
C193 C 0.26108 0.60798 0.33556 0.0
C194 C 0.29128 0.67609 0.43534 0.0
O195 O 0.3705 0.62111 0.37833 0.0
Mg196 Mg 0.18785 0.63559 0.07373 0.0
O197 O 0.20133 0.59009 0.04047 0.0
O198 O 0.25741 0.59217 0.03384 0.0
Mg199 Mg 0.2797 0.63788 0.05964 0.0
C200 C 0.22888 0.5781 0.02875 0.0
C201 C 0.11304 0.64243 0.08019 0.0
O202 O 0.12658 0.67187 0.07689 0.0
O203 O 0.20939 0.61077 0.12267 0.0
O204 O 0.2648 0.61717 0.11283 0.0
O205 O 0.18274 0.66766 0.02707 0.0
O206 O 0.23046 0.6617 0.0557 0.0
C207 C 0.24031 0.60808 0.13225 0.0
C208 C 0.21444 0.67503 0.03036 0.0
O209 O 0.13285 0.61783 0.08164 0.0
Mg210 Mg 0.31746 0.34744 0.57414 0.0
O211 O 0.29832 0.39499 0.54804 0.0
O212 O 0.24228 0.38918 0.54342 0.0
Mg213 Mg 0.22583 0.3387 0.56394 0.0
C214 C 0.26936 0.40595 0.53904 0.0
C215 C 0.39269 0.36887 0.56303 0.0
O216 O 0.38563 0.35597 0.53269 0.0
O217 O 0.29605 0.36344 0.62634 0.0
O218 O 0.24067 0.35414 0.61957 0.0
O219 O 0.32365 0.32377 0.52279 0.0
O220 O 0.27688 0.32005 0.55353 0.0
C221 C 0.26593 0.36273 0.6383 0.0
C222 C 0.29282 0.31327 0.5254 0.0
O223 O 0.36931 0.37082 0.58555 0.0
H224 H 0.2312 0.21343 0.06887 0.0
H225 H 0.31783 0.19898 0.00316 0.0
H226 H 0.29733 0.24209 0.96376 0.0
H227 H 0.25169 0.28032 0.94573 0.0
H228 H 0.16564 0.29355 0.01292 0.0
H229 H 0.18926 0.25471 0.05421 0.0
C230 C 0.24574 0.21978 0.04599 0.0
C231 C 0.27565 0.20268 0.03856 0.0
C232 C 0.23385 0.24436 0.02373 0.0
C233 C 0.29462 0.21171 0.0093 0.0
C234 C 0.28282 0.23625 -0.01324 0.0
C235 C 0.23843 0.2751 0.96968 0.0
C236 C 0.20672 0.28959 0.97601 0.0
C237 C 0.25205 0.25228 -0.00663 0.0
C238 C 0.1899 0.2826 0.00721 0.0
C239 C 0.20334 0.26029 0.03085 0.0
H240 H 0.32347 0.72084 0.47522 0.0
H241 H 0.22371 0.68654 0.44732 0.0
H242 H 0.19842 0.73026 0.48202 0.0
H243 H 0.20489 0.77961 0.51906 0.0
H244 H 0.30556 0.81441 0.54382 0.0
H245 H 0.32996 0.76947 0.51134 0.0
C246 C 0.29617 0.72262 0.47703 0.0
C247 C 0.27556 0.70026 0.45892 0.0
C248 C 0.28186 0.74829 0.49617 0.0
C249 C 0.24022 0.70329 0.46116 0.0
C250 C 0.22572 0.72843 0.48088 0.0
C251 C 0.23214 0.77742 0.51725 0.0
C252 C 0.25319 0.80057 0.53398 0.0
C253 C 0.24632 0.75136 0.49821 0.0
C254 C 0.28853 0.79718 0.53128 0.0
C255 C 0.30266 0.77134 0.51275 0.0
H256 H 0.30051 0.78352 0.95108 0.0
H257 H 0.19934 0.81427 0.92383 0.0
H258 H 0.17564 0.76807 0.95501 0.0
H259 H 0.18255 0.71922 -0.00973 0.0
H260 H 0.28223 0.6885 0.02142 0.0
H261 H 0.30736 0.73386 -0.01178 0.0
C262 C 0.27331 0.78017 0.95212 0.0
C263 C 0.25196 0.80251 0.93484 0.0
C264 C 0.25941 0.75327 0.97053 0.0
C265 C 0.21668 0.79764 0.9366 0.0
C266 C 0.20289 0.77106 0.95443 0.0
C267 C 0.20982 0.72213 -0.01049 0.0
C268 C 0.23045 0.70029 0.008 0.0
C269 C 0.22393 0.74869 0.97133 0.0
C270 C 0.26573 0.70485 0.00721 0.0
C271 C 0.28011 0.73091 -0.01164 0.0
H272 H 0.2337 0.27772 0.52734 0.0
H273 H 0.31831 0.30218 0.46139 0.0
H274 H 0.2989 0.26245 0.41863 0.0
H275 H 0.26137 0.21757 0.4022 0.0
H276 H 0.17662 0.19149 0.46695 0.0
H277 H 0.19235 0.23534 0.50777 0.0
C278 C 0.24753 0.27471 0.50335 0.0
C279 C 0.27764 0.29269 0.49777 0.0
C280 C 0.23641 0.25135 0.47882 0.0
C281 C 0.29526 0.28851 0.46654 0.0
C282 C 0.28422 0.26573 0.44204 0.0
C283 C 0.24615 0.22152 0.42517 0.0
C284 C 0.21821 0.20095 0.43186 0.0
C285 C 0.25542 0.24645 0.44834 0.0
C286 C 0.19835 0.2069 0.46131 0.0
C287 C 0.20744 0.23188 0.48468 0.0
H288 H 0.75404 0.73381 0.07706 0.0
H289 H 0.83015 0.70254 0.00468 0.0
H290 H 0.81083 0.74423 0.963 0.0
H291 H 0.76684 0.78399 0.94464 0.0
H292 H 0.68944 0.81219 0.01739 0.0
H293 H 0.71473 0.7772 0.06149 0.0
C294 C 0.76683 0.7365 0.05237 0.0
C295 C 0.79317 0.71494 0.0437 0.0
C296 C 0.75497 0.75962 0.02846 0.0
C297 C 0.80987 0.71894 0.01192 0.0
C298 C 0.79855 0.74252 -0.01199 0.0
C299 C 0.75589 0.78289 0.97033 0.0
C300 C 0.726 0.80037 0.97757 0.0
C301 C 0.77029 0.76216 -0.00445 0.0
C302 C 0.71215 0.79874 0.01099 0.0
C303 C 0.72662 0.77874 0.03626 0.0
H304 H 0.73572 0.20734 0.44111 0.0
H305 H 0.82063 0.18701 0.50821 0.0
H306 H 0.80173 0.22898 0.54849 0.0
H307 H 0.76477 0.27465 0.56196 0.0
H308 H 0.67999 0.29697 0.49578 0.0
H309 H 0.69486 0.25064 0.45797 0.0
C310 C 0.74971 0.21175 0.46484 0.0
C311 C 0.77976 0.1943 0.47146 0.0
C312 C 0.73893 0.2364 0.48783 0.0
C313 C 0.79762 0.20026 0.50231 0.0
C314 C 0.78688 0.22431 0.52537 0.0
C315 C 0.74936 0.26932 0.53934 0.0
C316 C 0.7217 0.2895 0.53126 0.0
C317 C 0.75819 0.24308 0.51789 0.0
C318 C 0.70152 0.28184 0.50239 0.0
C319 C 0.71013 0.25547 0.48075 0.0
H320 H 0.79954 0.28424 0.9458 0.0
H321 H 0.70262 0.3323 0.95433 0.0
H322 H 0.68065 0.28659 -0.01232 0.0
H323 H 0.68743 0.23245 0.01281 0.0
H324 H 0.78414 0.18433 0.00959 0.0
H325 H 0.80758 0.23028 0.97553 0.0
C326 C 0.7738 0.28484 0.95535 0.0
C327 C 0.75274 0.31162 0.94701 0.0
C328 C 0.76103 0.25823 0.97499 0.0
C329 C 0.71941 0.31197 0.9598 0.0
C330 C 0.70665 0.28575 0.97889 0.0
C331 C 0.71358 0.23183 0.00436 0.0
C332 C 0.73387 0.20487 0.01297 0.0
C333 C 0.72697 0.25858 -0.01392 0.0
C334 C 0.76796 0.20478 0.00284 0.0
C335 C 0.78135 0.23108 0.98353 0.0
H336 H 0.734 0.77759 0.52625 0.0
H337 H 0.81285 0.8043 0.4541 0.0
H338 H 0.78814 0.76811 0.41062 0.0
H339 H 0.74942 0.72361 0.39598 0.0
H340 H 0.67175 0.69369 0.46764 0.0
H341 H 0.69015 0.73689 0.50828 0.0
C342 C 0.74531 0.77595 0.50076 0.0
C343 C 0.77552 0.79325 0.49356 0.0
C344 C 0.73133 0.75437 0.47596 0.0
C345 C 0.78989 0.79094 0.46044 0.0
C346 C 0.77579 0.77024 0.43555 0.0
C347 C 0.7361 0.72696 0.42027 0.0
C348 C 0.70961 0.7054 0.42913 0.0
C349 C 0.74733 0.75102 0.44349 0.0
C350 C 0.69219 0.71012 0.46033 0.0
C351 C 0.70295 0.73458 0.48362 0.0
H352 H 0.24958 0.04289 0.02493 0.0
H353 H 0.35831 0.04248 0.03493 0.0
H354 H 0.36184 -0.00104 -0.00862 0.0
H355 H 0.33378 0.96088 0.95033 0.0
H356 H 0.22493 0.96306 0.94052 0.0
H357 H 0.22194 0.00597 0.98406 0.0
C358 C 0.27412 0.03329 0.01776 0.0
C359 C 0.3036 0.04594 0.03337 0.0
C360 C 0.276 0.00853 -0.0074 0.0
C361 C 0.33516 0.03326 0.02338 0.0
C362 C 0.3372 0.00833 -0.00153 0.0
C363 C 0.30942 0.97073 0.95771 0.0
C364 C 0.27967 0.95858 0.94202 0.0
C365 C 0.30776 0.99576 0.98287 0.0
C366 C 0.24833 0.97184 0.95193 0.0
C367 C 0.24651 0.99643 0.97696 0.0
H368 H 0.25683 0.96483 0.52245 0.0
H369 H 0.14915 0.94704 0.52541 0.0
H370 H 0.14052 0.98978 0.48163 0.0
H371 H 0.1638 0.03226 0.44225 0.0
H372 H 0.27188 0.0484 0.4396 0.0
H373 H 0.27986 0.00627 0.48343 0.0
C374 C 0.23139 0.97027 0.51369 0.0
C375 C 0.20371 0.95272 0.52737 0.0
C376 C 0.22662 0.99462 0.48841 0.0
C377 C 0.17098 0.9601 0.51537 0.0
C378 C 0.16601 0.98457 0.49032 0.0
C379 C 0.18908 0.02657 0.45126 0.0
C380 C 0.21713 0.04362 0.43746 0.0
C381 C 0.19367 0.002 0.4766 0.0
C382 C 0.24974 0.03575 0.4495 0.0
C383 C 0.25441 0.01163 0.4747 0.0
H384 H 0.68249 0.94902 0.95726 0.0
H385 H 0.79021 0.94287 0.94032 0.0
H386 H 0.79845 0.99571 0.96874 0.0
H387 H 0.77569 0.04283 4e-05 0.0
H388 H 0.6682 0.04915 0.01814 0.0
H389 H 0.65943 -0.00277 -0.01239 0.0
C390 C 0.70774 0.95932 0.95957 0.0
C391 C 0.73565 0.94178 0.9467 0.0
C392 C 0.71245 0.98975 0.97631 0.0
C393 C 0.76821 0.95559 0.95008 0.0
C394 C 0.77301 0.98589 0.96636 0.0
C395 C 0.75028 0.033 -0.00274 0.0
C396 C 0.72272 0.04997 0.01155 0.0
C397 C 0.74539 0.00303 0.97986 0.0
C398 C 0.68999 0.03669 0.00754 0.0
C399 C 0.6849 0.00694 -0.00995 0.0
H400 H 0.82244 0.03883 0.45992 0.0
H401 H 0.71363 0.04779 0.46074 0.0
H402 H 0.70858 0.99526 0.49051 0.0
H403 H 0.73457 0.94644 0.51585 0.0
H404 H 0.84327 0.93699 0.51583 0.0
H405 H 0.84866 0.98996 0.4864 0.0
C406 C 0.79762 0.02931 0.46659 0.0
C407 C 0.76851 0.04738 0.45793 0.0
C408 C 0.79478 -0.00107 0.48393 0.0
C409 C 0.73656 0.03459 0.46699 0.0
C410 C 0.73357 0.00445 0.48406 0.0
C411 C 0.75949 0.9559 0.50949 0.0
C412 C 0.78841 0.93758 0.51805 0.0
C413 C 0.76247 0.98638 0.49259 0.0
C414 C 0.82049 0.95047 0.50964 0.0
C415 C 0.82363 0.98079 0.49272 0.0
H416 H 0.74312 0.48295 0.94146 0.0
H417 H 0.84824 0.45506 0.9457 0.0
H418 H 0.85932 0.49866 -0.01204 0.0
H419 H 0.83838 0.54346 0.02548 0.0
H420 H 0.73271 0.56973 0.02057 0.0
H421 H 0.72285 0.52799 0.97678 0.0
C422 C 0.76855 0.48633 0.95146 0.0
C423 C 0.79472 0.46554 0.9405 0.0
C424 C 0.77468 0.51117 0.97578 0.0
C425 C 0.82753 0.47061 0.9537 0.0
C426 C 0.83389 0.49553 0.97792 0.0
C427 C 0.81326 0.54018 0.01466 0.0
C428 C 0.78633 0.55965 0.0266 0.0
C429 C 0.80755 0.51579 -0.01058 0.0
C430 C 0.75393 0.555 0.01223 0.0
C431 C 0.74819 0.53112 -0.01293 0.0
H432 H 0.66625 0.45663 0.5161 0.0
H433 H 0.77527 0.44993 0.51777 0.0
H434 H 0.77937 0.49537 0.47691 0.0
H435 H 0.75246 0.53721 0.44112 0.0
H436 H 0.64356 0.54447 0.43883 0.0
H437 H 0.63913 0.49864 0.47961 0.0
C438 C 0.69092 0.465 0.50746 0.0
C439 C 0.72037 0.44977 0.52012 0.0
C440 C 0.6932 0.49134 0.48394 0.0
C441 C 0.75211 0.4611 0.5086 0.0
C442 C 0.75454 0.48716 0.4852 0.0
C443 C 0.72769 0.5289 0.44952 0.0
C444 C 0.69842 0.54441 0.4369 0.0
C445 C 0.72529 0.50252 0.47283 0.0
C446 C 0.66657 0.53308 0.44809 0.0
C447 C 0.66399 0.50682 0.47141 0.0
H448 H 0.17414 0.5395 0.01109 0.0
H449 H 0.28297 0.54526 0.00256 0.0
H450 H 0.28378 0.49283 0.97257 0.0
H451 H 0.25437 0.44469 0.9498 0.0
H452 H 0.14568 0.43786 0.95731 0.0
H453 H 0.1442 0.49127 -0.01359 0.0
C454 C 0.19802 0.52935 0.00258 0.0
C455 C 0.22843 0.54649 0.00933 0.0
C456 C 0.19844 0.49889 -0.01485 0.0
C457 C 0.2591 0.53283 -0.00207 0.0
C458 C 0.25967 0.50271 0.98072 0.0
C459 C 0.23027 0.45479 0.95772 0.0
C460 C 0.20022 0.43706 0.95144 0.0
C461 C 0.22958 0.48544 0.97439 0.0
C462 C 0.16926 0.45086 0.96175 0.0
C463 C 0.16838 0.48143 0.97848 0.0
H464 H 0.23172 0.5404 0.46713 0.0
H465 H 0.33997 0.54544 0.4536 0.0
H466 H 0.34615 0.4932 0.48446 0.0
H467 H 0.32052 0.44527 0.51419 0.0
H468 H 0.21199 0.44079 0.52623 0.0
H469 H 0.20644 0.4936 0.49716 0.0
C470 C 0.25676 0.53025 0.47095 0.0
C471 C 0.2853 0.54696 0.45792 0.0
C472 C 0.26012 0.50016 0.48848 0.0
C473 C 0.31748 0.53319 0.46323 0.0
C474 C 0.32106 0.50327 0.4809 0.0
C475 C 0.29567 0.45593 0.51063 0.0
C476 C 0.26674 0.43886 0.5224 0.0
C477 C 0.29251 0.48641 0.4935 0.0
C478 C 0.23474 0.45311 0.51737 0.0
C479 C 0.23149 0.48342 0.50073 0.0
H480 H 0.56104 0.1686 0.0523 0.0
H481 H 0.59084 0.0873 0.11742 0.0
H482 H 0.53139 0.07252 0.12613 0.0
H483 H 0.47101 0.0839 0.11678 0.0
H484 H 0.44166 0.16557 0.05187 0.0
H485 H 0.50104 0.17877 0.04133 0.0
C486 C 0.55463 0.14759 0.0684 0.0
C487 C 0.58043 0.12922 0.08437 0.0
C488 C 0.52048 0.13927 0.07327 0.0
C489 C 0.57154 0.10194 0.1049 0.0
C490 C 0.53753 0.09347 0.10989 0.0
C491 C 0.47754 0.10445 0.10011 0.0
C492 C 0.45181 0.12378 0.08526 0.0
C493 C 0.51179 0.11211 0.09439 0.0
C494 C 0.46086 0.1503 0.06371 0.0
C495 C 0.49484 0.15793 0.05773 0.0
H496 H 0.95959 0.81222 0.54134 0.0
H497 H 0.92654 0.89679 0.59949 0.0
H498 H 0.98526 0.91392 0.60792 0.0
H499 H 0.04589 0.90408 0.60031 0.0
H500 H 0.07915 0.81895 0.54325 0.0
H501 H 0.02035 0.80304 0.53262 0.0
C502 C 0.96517 0.83445 0.55581 0.0
C503 C 0.93861 0.85311 0.56987 0.0
C504 C 0.99903 0.8441 0.5607 0.0
C505 C 0.94642 0.88188 0.58847 0.0
C506 C 0.98002 0.89173 0.59328 0.0
C507 C 0.04036 0.88216 0.58531 0.0
C508 C 0.06698 0.86272 0.57264 0.0
C509 C 0.00651 0.87293 0.5797 0.0
C510 C 0.05922 0.83435 0.55335 0.0
C511 C 0.02557 0.8252 0.54732 0.0
H512 H 0.45748 0.90567 0.855 0.0
H513 H 0.42508 0.84511 0.94077 0.0
H514 H 0.48422 0.836 0.9571 0.0
H515 H 0.54536 0.84292 0.94487 0.0
H516 H 0.57665 0.90349 0.85869 0.0
H517 H 0.5177 0.91491 0.8447 0.0
C518 C 0.46322 0.89058 0.87741 0.0
C519 C 0.43679 0.87589 0.89647 0.0
C520 C 0.49715 0.88536 0.88649 0.0
C521 C 0.44486 0.85667 0.9256 0.0
C522 C 0.4787 0.85139 0.93488 0.0
C523 C 0.53917 0.85886 0.92324 0.0
C524 C 0.56534 0.87223 0.9029 0.0
C525 C 0.50507 0.86525 0.91521 0.0
C526 C 0.55708 0.89286 0.87486 0.0
C527 C 0.52333 0.89936 0.86678 0.0
H528 H 0.04718 0.09689 0.38552 0.0
H529 H 0.05882 0.20073 0.40623 0.0
H530 H 0.99771 0.20669 0.40972 0.0
H531 H 0.94124 0.1835 0.40423 0.0
H532 H 0.92772 0.08014 0.38243 0.0
H533 H 0.98931 0.07293 0.38187 0.0
C534 C 0.0363 0.12069 0.39129 0.0
C535 C 0.05759 0.14835 0.39561 0.0
C536 C 0.00084 0.12413 0.39263 0.0
C537 C 0.04308 0.17908 0.4027 0.0
C538 C 0.00809 0.18255 0.40461 0.0
C539 C 0.95159 0.15929 0.39935 0.0
C540 C 0.92979 0.13243 0.39315 0.0
C541 C 0.98678 0.1554 0.39907 0.0
C542 C 0.94388 0.10128 0.38711 0.0
C543 C 0.9791 0.09715 0.38686 0.0
H544 H 0.07434 0.58592 0.08511 0.0
H545 H 0.06705 0.69157 0.0757 0.0
H546 H 0.00579 0.6878 0.07519 0.0
H547 H 0.95385 0.65518 0.07878 0.0
H548 H 0.95977 0.54973 0.08983 0.0
H549 H 0.02152 0.5528 0.08792 0.0
C550 C 0.05933 0.60808 0.08299 0.0
C551 C 0.07554 0.63897 0.08057 0.0
C552 C 0.02366 0.60585 0.0828 0.0
C553 C 0.05553 0.66741 0.07773 0.0
C554 C 0.02032 0.66535 0.07734 0.0
C555 C 0.96857 0.63279 0.08039 0.0
C556 C 0.95205 0.60228 0.08437 0.0
C557 C 0.00408 0.63476 0.07994 0.0
C558 C 0.97172 0.57359 0.08673 0.0
C559 C 0.00712 0.57532 0.08576 0.0
H560 H 0.53655 0.39701 0.62785 0.0
H561 H 0.568 0.36461 0.52653 0.0
H562 H 0.50891 0.35999 0.50848 0.0
H563 H 0.44843 0.36222 0.52247 0.0
H564 H 0.41705 0.39363 0.62417 0.0
H565 H 0.47608 0.40186 0.6409 0.0
C566 C 0.53056 0.3891 0.60173 0.0
C567 C 0.55676 0.38095 0.57867 0.0
C568 C 0.49652 0.38629 0.59159 0.0
C569 C 0.54841 0.37094 0.54487 0.0
C570 C 0.51459 0.36826 0.53453 0.0
C571 C 0.45441 0.37116 0.54822 0.0
C572 C 0.42824 0.37711 0.57208 0.0
C573 C 0.48845 0.37545 0.55782 0.0
C574 C 0.4366 0.38876 0.60529 0.0
C575 C 0.47039 0.39339 0.61492 0.0
H576 H 0.0513 0.39182 0.88391 0.0
H577 H 0.03353 0.28998 0.91065 0.0
H578 H 0.97274 0.29878 0.90878 0.0
H579 H 0.92432 0.33491 0.89857 0.0
H580 H 0.94156 0.43667 0.87136 0.0
H581 H 0.00255 0.42838 0.87467 0.0
C582 C 0.03412 0.37157 0.8893 0.0
C583 C 0.04709 0.34028 0.89728 0.0
C584 C 0.99896 0.37676 0.88822 0.0
C585 C 0.02439 0.31434 0.90433 0.0
C586 C 0.98951 0.31932 0.90332 0.0
C587 C 0.94138 0.35535 0.89359 0.0
C588 C 0.92828 0.38634 0.8847 0.0
C589 C 0.97649 0.35038 0.89522 0.0
C590 C 0.95086 0.41251 0.87825 0.0
C591 C 0.98582 0.4078 0.88005 0.0
H592 H 0.55059 0.61414 0.40809 0.0
H593 H 0.53672 0.62881 0.29825 0.0
H594 H 0.47558 0.62631 0.30541 0.0
H595 H 0.42568 0.62171 0.34295 0.0
H596 H 0.43931 0.60733 0.45284 0.0
H597 H 0.50054 0.60762 0.44544 0.0
C598 C 0.5342 0.61677 0.38572 0.0
C599 C 0.54839 0.62183 0.35272 0.0
C600 C 0.49885 0.61524 0.38996 0.0
C601 C 0.52665 0.62499 0.32401 0.0
C602 C 0.49157 0.62353 0.32804 0.0
C603 C 0.442 0.6183 0.36524 0.0
C604 C 0.42776 0.61458 0.3984 0.0
C605 C 0.47734 0.61884 0.3609 0.0
C606 C 0.44945 0.61031 0.42699 0.0
C607 C 0.48457 0.61057 0.42282 0.0
H608 H 0.24701 0.085 0.1645 0.0
H609 H 0.34173 0.08889 0.21983 0.0
H610 H 0.31188 0.08152 0.27467 0.0
H611 H 0.25838 0.08385 0.30692 0.0
H612 H 0.16365 0.08087 0.25162 0.0
H613 H 0.19393 0.07728 0.19661 0.0
C614 C 0.26115 0.08369 0.18847 0.0
C615 C 0.29641 0.08834 0.18822 0.0
C616 C 0.24377 0.07988 0.21989 0.0
C617 C 0.31454 0.08557 0.21938 0.0
C618 C 0.29745 0.08162 0.25078 0.0
C619 C 0.2444 0.0819 0.28287 0.0
C620 C 0.20891 0.0835 0.28317 0.0
C621 C 0.26199 0.08032 0.2514 0.0
C622 C 0.19101 0.07985 0.25198 0.0
C623 C 0.20832 0.07809 0.22051 0.0
H624 H 0.23737 0.91716 0.80501 0.0
H625 H 0.3375 0.91515 0.76117 0.0
H626 H 0.31351 0.91869 0.70294 0.0
H627 H 0.26408 0.91117 0.66519 0.0
H628 H 0.16389 0.91153 0.70915 0.0
H629 H 0.18787 0.92029 0.76672 0.0
C630 C 0.25396 0.91808 0.78278 0.0
C631 C 0.28907 0.91493 0.78731 0.0
C632 C 0.23994 0.9194 0.74942 0.0
C633 C 0.31035 0.9173 0.75833 0.0
C634 C 0.29662 0.91901 0.725 0.0
C635 C 0.24743 0.91389 0.68718 0.0
C636 C 0.21231 0.90984 0.68299 0.0
C637 C 0.26143 0.91833 0.72027 0.0
C638 C 0.19104 0.91424 0.7117 0.0
C639 C 0.20476 0.91901 0.74469 0.0
H640 H 0.78466 0.87054 0.79709 0.0
H641 H 0.67608 0.8703 0.78502 0.0
H642 H 0.68241 0.87326 0.7222 0.0
H643 H 0.71867 0.87044 0.67074 0.0
H644 H 0.82727 0.86961 0.68314 0.0
H645 H 0.82087 0.87289 0.74579 0.0
C646 C 0.76231 0.87144 0.78081 0.0
C647 C 0.72993 0.86971 0.79587 0.0
C648 C 0.76611 0.87277 0.7447 0.0
C649 C 0.70132 0.8714 0.77425 0.0
C650 C 0.70492 0.87298 0.73826 0.0
C651 C 0.74101 0.87137 0.68705 0.0
C652 C 0.77341 0.86931 0.67208 0.0
C653 C 0.73719 0.87283 0.72319 0.0
C654 C 0.80199 0.87089 0.69378 0.0
C655 C 0.79838 0.87268 0.72971 0.0
H656 H 0.80919 0.10323 0.28443 0.0
H657 H 0.70287 0.10386 0.3098 0.0
H658 H 0.68836 0.0977 0.24892 0.0
H659 H 0.70546 0.09974 0.18812 0.0
H660 H 0.81165 0.10065 0.16226 0.0
H661 H 0.82636 0.09787 0.2235 0.0
C662 C 0.78286 0.10141 0.27675 0.0
C663 C 0.75723 0.10468 0.30174 0.0
C664 C 0.77453 0.09838 0.24145 0.0
C665 C 0.72322 0.10198 0.29119 0.0
C666 C 0.71481 0.09846 0.25629 0.0
C667 C 0.73184 0.09867 0.19574 0.0
C668 C 0.75733 0.10105 0.17048 0.0
C669 C 0.74022 0.09781 0.2311 0.0
C670 C 0.79139 0.09928 0.18104 0.0
C671 C 0.79989 0.09783 0.21615 0.0
H672 H 0.68613 0.5786 0.24803 0.0
H673 H 0.76561 0.58034 0.32444 0.0
H674 H 0.8081 0.57463 0.27933 0.0
H675 H 0.82269 0.58126 0.21768 0.0
H676 H 0.74325 0.58016 0.14126 0.0
H677 H 0.70087 0.57261 0.18646 0.0
C678 C 0.71267 0.57658 0.25484 0.0
C679 C 0.72285 0.58126 0.28932 0.0
C680 C 0.73707 0.57389 0.22859 0.0
C681 C 0.75725 0.57833 0.2979 0.0
C682 C 0.78161 0.57485 0.27209 0.0
C683 C 0.79622 0.5781 0.21094 0.0
C684 C 0.78586 0.58235 0.17649 0.0
C685 C 0.7719 0.57455 0.23721 0.0
C686 C 0.75158 0.57818 0.16788 0.0
C687 C 0.72734 0.57377 0.1937 0.0
H688 H 0.6787 0.42089 0.70491 0.0
H689 H 0.76834 0.41586 0.64199 0.0
H690 H 0.80389 0.42308 0.69308 0.0
H691 H 0.80916 0.41916 0.75634 0.0
H692 H 0.71924 0.42185 0.8192 0.0
H693 H 0.68433 0.42811 0.7678 0.0
C694 C 0.70597 0.42249 0.70231 0.0
C695 C 0.72097 0.4167 0.67003 0.0
C696 C 0.72628 0.42575 0.73199 0.0
C697 C 0.75629 0.41897 0.66684 0.0
C698 C 0.77664 0.42324 0.69605 0.0
C699 C 0.78204 0.42218 0.75886 0.0
C700 C 0.76677 0.419 0.79149 0.0
C701 C 0.76193 0.42476 0.72897 0.0
C702 C 0.73162 0.42317 0.79436 0.0
C703 C 0.71154 0.4268 0.76488 0.0
H704 H 0.20569 0.36621 0.6725 0.0
H705 H 0.31357 0.37363 0.68866 0.0
H706 H 0.3048 0.3769 0.75105 0.0
H707 H 0.26707 0.37236 0.80116 0.0
H708 H 0.15924 0.36413 0.78514 0.0
H709 H 0.16756 0.36688 0.7226 0.0
C710 C 0.22733 0.3689 0.68957 0.0
C711 C 0.2603 0.36922 0.67573 0.0
C712 C 0.22216 0.37044 0.72554 0.0
C713 C 0.28792 0.3731 0.69842 0.0
C714 C 0.28294 0.37488 0.73419 0.0
C715 C 0.24528 0.37153 0.78408 0.0
C716 C 0.21259 0.36759 0.79801 0.0
C717 C 0.25025 0.37274 0.74807 0.0
C718 C 0.18472 0.36697 0.77531 0.0
C719 C 0.18946 0.36842 0.73945 0.0
H720 H 0.3029 0.59508 0.28093 0.0
H721 H 0.19739 0.59988 0.30902 0.0
H722 H 0.1812 0.59587 0.24835 0.0
H723 H 0.19712 0.59913 0.1869 0.0
H724 H 0.30269 0.59481 0.159 0.0
H725 H 0.31838 0.59001 0.21971 0.0
C726 C 0.27634 0.5946 0.27392 0.0
C727 C 0.25155 0.59849 0.29964 0.0
C728 C 0.26706 0.59274 0.23878 0.0
C729 C 0.2172 0.5974 0.28988 0.0
C730 C 0.20781 0.5952 0.25507 0.0
C731 C 0.2235 0.59642 0.194 0.0
C732 C 0.24863 0.59805 0.1683 0.0
C733 C 0.23255 0.59412 0.22919 0.0
C734 C 0.28271 0.59421 0.17814 0.0
C735 C 0.29182 0.59152 0.21296 0.0
loop_
_geom_bond_atom_site_label_1
_geom_bond_atom_site_label_2
_geom_bond_distance
_geom_bond_site_symmetry_2
_ccdc_geom_bond_type
Mg0 O1 2.028 . S
Mg0 O7 1.986 . S
Mg0 O9 2.114 . S
Mg0 O10 2.251 . S
Mg0 O13 2.010 . S
O1 Mg0 2.028 . S
O1 C4 1.250 . S
O2 Mg3 2.028 . S
O2 C4 1.248 . S
Mg3 O2 2.028 . S
Mg3 O8 2.032 . S
Mg3 O10 2.079 . S
C4 O1 1.250 . S
C4 O2 1.248 . S
C5 O6 1.264 . S
C5 O13 1.249 . S
O6 C5 1.264 . S
O7 Mg0 1.986 . S
O7 C11 1.246 . S
O8 Mg3 2.032 . S
O8 C11 1.259 . S
O9 Mg0 2.114 . S
O9 C12 1.252 . S
O10 Mg0 2.251 . S
O10 Mg3 2.079 . S
O10 C12 1.273 . S
C11 O7 1.246 . S
C11 O8 1.259 . S
C12 O9 1.252 . S
C12 O10 1.273 . S
O13 Mg0 2.010 . S
O13 C5 1.249 . S
Mg14 O15 2.028 . S
Mg14 O21 1.986 . S
Mg14 O23 2.114 . S
Mg14 O24 2.251 . S
Mg14 O27 2.010 . S
O15 Mg14 2.028 . S
O15 C18 1.250 . S
O16 Mg17 2.028 . S
O16 C18 1.248 . S
Mg17 O16 2.028 . S
Mg17 O22 2.032 . S
Mg17 O24 2.079 . S
C18 O15 1.250 . S
C18 O16 1.248 . S
C19 O20 1.264 . S
C19 O27 1.249 . S
O20 C19 1.264 . S
O21 Mg14 1.986 . S
O21 C25 1.246 . S
O22 Mg17 2.032 . S
O22 C25 1.259 . S
O23 Mg14 2.114 . S
O23 C26 1.252 . S
O24 Mg14 2.251 . S
O24 Mg17 2.079 . S
O24 C26 1.273 . S
C25 O21 1.246 . S
C25 O22 1.259 . S
C26 O23 1.252 . S
C26 O24 1.273 . S
O27 Mg14 2.010 . S
O27 C19 1.249 . S
Mg28 O29 2.028 . S
Mg28 O35 1.986 . S
Mg28 O37 2.114 . S
Mg28 O38 2.251 . S
Mg28 O41 2.010 . S
O29 Mg28 2.028 . S
O29 C32 1.250 . S
O30 Mg31 2.028 . S
O30 C32 1.248 . S
Mg31 O30 2.028 . S
Mg31 O36 2.032 . S
Mg31 O38 2.079 . S
C32 O29 1.250 . S
C32 O30 1.248 . S
C33 O34 1.264 . S
C33 O41 1.249 . S
O34 C33 1.264 . S
O35 Mg28 1.986 . S
O35 C39 1.246 . S
O36 Mg31 2.032 . S
O36 C39 1.259 . S
O37 Mg28 2.114 . S
O37 C40 1.252 . S
O38 Mg28 2.251 . S
O38 Mg31 2.079 . S
O38 C40 1.273 . S
C39 O35 1.246 . S
C39 O36 1.259 . S
C40 O37 1.252 . S
C40 O38 1.273 . S
O41 Mg28 2.010 . S
O41 C33 1.249 . S
Mg42 O43 2.028 . S
Mg42 O49 1.986 . S
Mg42 O51 2.114 . S
Mg42 O52 2.251 . S
Mg42 O55 2.010 . S
O43 Mg42 2.028 . S
O43 C46 1.250 . S
O44 Mg45 2.028 . S
O44 C46 1.248 . S
Mg45 O44 2.028 . S
Mg45 O50 2.032 . S
Mg45 O52 2.079 . S
C46 O43 1.250 . S
C46 O44 1.248 . S
C47 O48 1.264 . S
C47 O55 1.249 . S
O48 C47 1.264 . S
O49 Mg42 1.986 . S
O49 C53 1.246 . S
O50 Mg45 2.032 . S
O50 C53 1.259 . S
O51 Mg42 2.114 . S
O51 C54 1.252 . S
O52 Mg42 2.251 . S
O52 Mg45 2.079 . S
O52 C54 1.273 . S
C53 O49 1.246 . S
C53 O50 1.259 . S
C54 O51 1.252 . S
C54 O52 1.273 . S
O55 Mg42 2.010 . S
O55 C47 1.249 . S
Mg56 O57 2.028 . S
Mg56 O63 1.986 . S
Mg56 O65 2.114 . S
Mg56 O66 2.251 . S
Mg56 O69 2.010 . S
O57 Mg56 2.028 . S
O57 C60 1.250 . S
O58 Mg59 2.028 . S
O58 C60 1.248 . S
Mg59 O58 2.028 . S
Mg59 O64 2.032 . S
Mg59 O66 2.079 . S
C60 O57 1.250 . S
C60 O58 1.248 . S
C61 O62 1.264 . S
C61 O69 1.249 . S
O62 C61 1.264 . S
O63 Mg56 1.986 . S
O63 C67 1.246 . S
O64 Mg59 2.032 . S
O64 C67 1.259 . S
O65 Mg56 2.114 . S
O65 C68 1.252 . S
O66 Mg56 2.251 . S
O66 Mg59 2.079 . S
O66 C68 1.273 . S
C67 O63 1.246 . S
C67 O64 1.259 . S
C68 O65 1.252 . S
C68 O66 1.273 . S
O69 Mg56 2.010 . S
O69 C61 1.249 . S
Mg70 O71 2.028 . S
Mg70 O77 1.986 . S
Mg70 O79 2.114 . S
Mg70 O80 2.251 . S
Mg70 O83 2.010 . S
O71 Mg70 2.028 . S
O71 C74 1.250 . S
O72 Mg73 2.028 . S
O72 C74 1.248 . S
Mg73 O72 2.028 . S
Mg73 O78 2.032 . S
Mg73 O80 2.079 . S
C74 O71 1.250 . S
C74 O72 1.248 . S
C75 O76 1.264 . S
C75 O83 1.249 . S
O76 C75 1.264 . S
O77 Mg70 1.986 . S
O77 C81 1.246 . S
O78 Mg73 2.032 . S
O78 C81 1.259 . S
O79 Mg70 2.114 . S
O79 C82 1.252 . S
O80 Mg70 2.251 . S
O80 Mg73 2.079 . S
O80 C82 1.273 . S
C81 O77 1.246 . S
C81 O78 1.259 . S
C82 O79 1.252 . S
C82 O80 1.273 . S
O83 Mg70 2.010 . S
O83 C75 1.249 . S
Mg84 O85 2.028 . S
Mg84 O91 1.986 . S
Mg84 O93 2.114 . S
Mg84 O94 2.251 . S
Mg84 O97 2.010 . S
O85 Mg84 2.028 . S
O85 C88 1.250 . S
O86 Mg87 2.028 . S
O86 C88 1.248 . S
Mg87 O86 2.028 . S
Mg87 O92 2.032 . S
Mg87 O94 2.079 . S
C88 O85 1.250 . S
C88 O86 1.248 . S
C89 O90 1.264 . S
C89 O97 1.249 . S
O90 C89 1.264 . S
O91 Mg84 1.986 . S
O91 C95 1.246 . S
O92 Mg87 2.032 . S
O92 C95 1.259 . S
O93 Mg84 2.114 . S
O93 C96 1.252 . S
O94 Mg84 2.251 . S
O94 Mg87 2.079 . S
O94 C96 1.273 . S
C95 O91 1.246 . S
C95 O92 1.259 . S
C96 O93 1.252 . S
C96 O94 1.273 . S
O97 Mg84 2.010 . S
O97 C89 1.249 . S
Mg98 O99 2.028 . S
Mg98 O105 1.986 . S
Mg98 O107 2.114 . S
Mg98 O108 2.251 . S
Mg98 O111 2.010 . S
O99 Mg98 2.028 . S
O99 C102 1.250 . S
O100 Mg101 2.028 . S
O100 C102 1.248 . S
Mg101 O100 2.028 . S
Mg101 O106 2.032 . S
Mg101 O108 2.079 . S
C102 O99 1.250 . S
C102 O100 1.248 . S
C103 O104 1.264 . S
C103 O111 1.249 . S
O104 C103 1.264 . S
O105 Mg98 1.986 . S
O105 C109 1.246 . S
O106 Mg101 2.032 . S
O106 C109 1.259 . S
O107 Mg98 2.114 . S
O107 C110 1.252 . S
O108 Mg98 2.251 . S
O108 Mg101 2.079 . S
O108 C110 1.273 . S
C109 O105 1.246 . S
C109 O106 1.259 . S
C110 O107 1.252 . S
C110 O108 1.273 . S
O111 Mg98 2.010 . S
O111 C103 1.249 . S
Mg112 O113 2.028 . S
Mg112 O119 1.986 . S
Mg112 O121 2.114 . S
Mg112 O122 2.251 . S
Mg112 O125 2.010 . S
O113 Mg112 2.028 . S
O113 C116 1.250 . S
O114 Mg115 2.028 . S
O114 C116 1.248 . S
Mg115 O114 2.028 . S
Mg115 O120 2.032 . S
Mg115 O122 2.079 . S
C116 O113 1.250 . S
C116 O114 1.248 . S
C117 O118 1.264 . S
C117 O125 1.249 . S
O118 C117 1.264 . S
O119 Mg112 1.986 . S
O119 C123 1.246 . S
O120 Mg115 2.032 . S
O120 C123 1.259 . S
O121 Mg112 2.114 . S
O121 C124 1.252 . S
O122 Mg112 2.251 . S
O122 Mg115 2.079 . S
O122 C124 1.273 . S
C123 O119 1.246 . S
C123 O120 1.259 . S
C124 O121 1.252 . S
C124 O122 1.273 . S
O125 Mg112 2.010 . S
O125 C117 1.249 . S
Mg126 O127 2.028 . S
Mg126 O133 1.986 . S
Mg126 O135 2.114 . S
Mg126 O136 2.251 . S
Mg126 O139 2.010 . S
O127 Mg126 2.028 . S
O127 C130 1.250 . S
O128 Mg129 2.028 . S
O128 C130 1.248 . S
Mg129 O128 2.028 . S
Mg129 O134 2.032 . S
Mg129 O136 2.079 . S
C130 O127 1.250 . S
C130 O128 1.248 . S
C131 O132 1.264 . S
C131 O139 1.249 . S
O132 C131 1.264 . S
O133 Mg126 1.986 . S
O133 C137 1.246 . S
O134 Mg129 2.032 . S
O134 C137 1.259 . S
O135 Mg126 2.114 . S
O135 C138 1.252 . S
O136 Mg126 2.251 . S
O136 Mg129 2.079 . S
O136 C138 1.273 . S
C137 O133 1.246 . S
C137 O134 1.259 . S
C138 O135 1.252 . S
C138 O136 1.273 . S
O139 Mg126 2.010 . S
O139 C131 1.249 . S
Mg140 O141 2.028 . S
Mg140 O147 1.986 . S
Mg140 O149 2.114 . S
Mg140 O150 2.251 . S
Mg140 O153 2.010 . S
O141 Mg140 2.028 . S
O141 C144 1.250 . S
O142 Mg143 2.028 . S
O142 C144 1.248 . S
Mg143 O142 2.028 . S
Mg143 O148 2.032 . S
Mg143 O150 2.079 . S
C144 O141 1.250 . S
C144 O142 1.248 . S
C145 O146 1.264 . S
C145 O153 1.249 . S
O146 C145 1.264 . S
O147 Mg140 1.986 . S
O147 C151 1.246 . S
O148 Mg143 2.032 . S
O148 C151 1.259 . S
O149 Mg140 2.114 . S
O149 C152 1.252 . S
O150 Mg140 2.251 . S
O150 Mg143 2.079 . S
O150 C152 1.273 . S
C151 O147 1.246 . S
C151 O148 1.259 . S
C152 O149 1.252 . S
C152 O150 1.273 . S
O153 Mg140 2.010 . S
O153 C145 1.249 . S
Mg154 O155 2.028 . S
Mg154 O161 1.986 . S
Mg154 O163 2.114 . S
Mg154 O164 2.251 . S
Mg154 O167 2.010 . S
O155 Mg154 2.028 . S
O155 C158 1.250 . S
O156 Mg157 2.028 . S
O156 C158 1.248 . S
Mg157 O156 2.028 . S
Mg157 O162 2.032 . S
Mg157 O164 2.079 . S
C158 O155 1.250 . S
C158 O156 1.248 . S
C159 O160 1.264 . S
C159 O167 1.249 . S
O160 C159 1.264 . S
O161 Mg154 1.986 . S
O161 C165 1.246 . S
O162 Mg157 2.032 . S
O162 C165 1.259 . S
O163 Mg154 2.114 . S
O163 C166 1.252 . S
O164 Mg154 2.251 . S
O164 Mg157 2.079 . S
O164 C166 1.273 . S
C165 O161 1.246 . S
C165 O162 1.259 . S
C166 O163 1.252 . S
C166 O164 1.273 . S
O167 Mg154 2.010 . S
O167 C159 1.249 . S
Mg168 O169 2.028 . S
Mg168 O175 1.986 . S
Mg168 O177 2.114 . S
Mg168 O178 2.251 . S
Mg168 O181 2.010 . S
O169 Mg168 2.028 . S
O169 C172 1.250 . S
O170 Mg171 2.028 . S
O170 C172 1.248 . S
Mg171 O170 2.028 . S
Mg171 O176 2.032 . S
Mg171 O178 2.079 . S
C172 O169 1.250 . S
C172 O170 1.248 . S
C173 O174 1.264 . S
C173 O181 1.249 . S
O174 C173 1.264 . S
O175 Mg168 1.986 . S
O175 C179 1.246 . S
O176 Mg171 2.032 . S
O176 C179 1.259 . S
O177 Mg168 2.114 . S
O177 C180 1.252 . S
O178 Mg168 2.251 . S
O178 Mg171 2.079 . S
O178 C180 1.273 . S
C179 O175 1.246 . S
C179 O176 1.259 . S
C180 O177 1.252 . S
C180 O178 1.273 . S
O181 Mg168 2.010 . S
O181 C173 1.249 . S
Mg182 O183 2.028 . S
Mg182 O189 1.986 . S
Mg182 O191 2.114 . S
Mg182 O192 2.251 . S
Mg182 O195 2.010 . S
O183 Mg182 2.028 . S
O183 C186 1.250 . S
O184 Mg185 2.028 . S
O184 C186 1.248 . S
Mg185 O184 2.028 . S
Mg185 O190 2.032 . S
Mg185 O192 2.079 . S
C186 O183 1.250 . S
C186 O184 1.248 . S
C187 O188 1.264 . S
C187 O195 1.249 . S
O188 C187 1.264 . S
O189 Mg182 1.986 . S
O189 C193 1.246 . S
O190 Mg185 2.032 . S
O190 C193 1.259 . S
O191 Mg182 2.114 . S
O191 C194 1.252 . S
O192 Mg182 2.251 . S
O192 Mg185 2.079 . S
O192 C194 1.273 . S
C193 O189 1.246 . S
C193 O190 1.259 . S
C194 O191 1.252 . S
C194 O192 1.273 . S
O195 Mg182 2.010 . S
O195 C187 1.249 . S
Mg196 O197 2.028 . S
Mg196 O203 1.986 . S
Mg196 O205 2.114 . S
Mg196 O206 2.251 . S
Mg196 O209 2.010 . S
O197 Mg196 2.028 . S
O197 C200 1.250 . S
O198 Mg199 2.028 . S
O198 C200 1.248 . S
Mg199 O198 2.028 . S
Mg199 O204 2.032 . S
Mg199 O206 2.079 . S
C200 O197 1.250 . S
C200 O198 1.248 . S
C201 O202 1.264 . S
C201 O209 1.249 . S
O202 C201 1.264 . S
O203 Mg196 1.986 . S
O203 C207 1.246 . S
O204 Mg199 2.032 . S
O204 C207 1.259 . S
O205 Mg196 2.114 . S
O205 C208 1.252 . S
O206 Mg196 2.251 . S
O206 Mg199 2.079 . S
O206 C208 1.273 . S
C207 O203 1.246 . S
C207 O204 1.259 . S
C208 O205 1.252 . S
C208 O206 1.273 . S
O209 Mg196 2.010 . S
O209 C201 1.249 . S
Mg210 O211 2.028 . S
Mg210 O217 1.986 . S
Mg210 O219 2.114 . S
Mg210 O220 2.251 . S
Mg210 O223 2.010 . S
O211 Mg210 2.028 . S
O211 C214 1.250 . S
O212 Mg213 2.028 . S
O212 C214 1.248 . S
Mg213 O212 2.028 . S
Mg213 O218 2.032 . S
Mg213 O220 2.079 . S
C214 O211 1.250 . S
C214 O212 1.248 . S
C215 O216 1.264 . S
C215 O223 1.249 . S
O216 C215 1.264 . S
O217 Mg210 1.986 . S
O217 C221 1.246 . S
O218 Mg213 2.032 . S
O218 C221 1.259 . S
O219 Mg210 2.114 . S
O219 C222 1.252 . S
O220 Mg210 2.251 . S
O220 Mg213 2.079 . S
O220 C222 1.273 . S
C221 O217 1.246 . S
C221 O218 1.259 . S
C222 O219 1.252 . S
C222 O220 1.273 . S
O223 Mg210 2.010 . S
O223 C215 1.249 . S
H224 C230 0.930 . S
H225 C233 0.930 . S
H226 C234 0.930 . S
H227 C235 0.930 . S
H228 C238 0.930 . S
H229 C239 0.930 . S
C230 H224 0.930 . S
C230 C231 1.355 . S
C230 C232 1.415 1_554 S
C231 C230 1.355 . S
C231 C233 1.419 . S
C232 C230 1.415 1_556 S
C232 C237 1.425 1_556 S
C232 C239 1.409 . S
C233 H225 0.930 . S
C233 C231 1.419 . S
C233 C234 1.362 . S
C234 H226 0.930 . S
C234 C233 1.362 . S
C234 C237 1.409 . S
C235 H227 0.930 . S
C235 C236 1.355 . S
C235 C237 1.415 1_556 S
C236 C235 1.355 . S
C236 C238 1.419 . S
C237 C232 1.425 1_554 S
C237 C234 1.409 . S
C237 C235 1.415 1_554 S
C238 H228 0.930 . S
C238 C236 1.419 . S
C238 C239 1.362 . S
C239 H229 0.930 . S
C239 C232 1.409 . S
C239 C238 1.362 . S
H240 C246 0.930 . S
H241 C249 0.930 . S
H242 C250 0.930 . S
H243 C251 0.930 . S
H244 C254 0.930 . S
H245 C255 0.930 . S
C246 H240 0.930 . S
C246 C247 1.355 . S
C246 C248 1.415 . S
C247 C246 1.355 . S
C247 C249 1.419 . S
C248 C246 1.415 . S
C248 C253 1.425 . S
C248 C255 1.409 . S
C249 H241 0.930 . S
C249 C247 1.419 . S
C249 C250 1.362 . S
C250 H242 0.930 . S
C250 C249 1.362 . S
C250 C253 1.409 . S
C251 H243 0.930 . S
C251 C252 1.355 . S
C251 C253 1.415 . S
C252 C251 1.355 . S
C252 C254 1.419 . S
C253 C248 1.425 . S
C253 C250 1.409 . S
C253 C251 1.415 . S
C254 H244 0.930 . S
C254 C252 1.419 . S
C254 C255 1.362 . S
C255 H245 0.930 . S
C255 C248 1.409 . S
C255 C254 1.362 . S
H256 C262 0.930 . S
H257 C265 0.930 . S
H258 C266 0.930 . S
H259 C267 0.930 . S
H260 C270 0.930 . S
H261 C271 0.930 . S
C262 H256 0.930 . S
C262 C263 1.355 . S
C262 C264 1.415 . S
C263 C262 1.355 . S
C263 C265 1.419 . S
C264 C262 1.415 . S
C264 C269 1.425 1_556 S
C264 C271 1.409 1_556 S
C265 H257 0.930 . S
C265 C263 1.419 . S
C265 C266 1.362 . S
C266 H258 0.930 . S
C266 C265 1.362 . S
C266 C269 1.409 1_556 S
C267 H259 0.930 . S
C267 C268 1.355 . S
C267 C269 1.415 . S
C268 C267 1.355 . S
C268 C270 1.419 . S
C269 C264 1.425 1_554 S
C269 C266 1.409 1_554 S
C269 C267 1.415 . S
C270 H260 0.930 . S
C270 C268 1.419 . S
C270 C271 1.362 . S
C271 H261 0.930 . S
C271 C264 1.409 1_554 S
C271 C270 1.362 . S
H272 C278 0.930 . S
H273 C281 0.930 . S
H274 C282 0.930 . S
H275 C283 0.930 . S
H276 C286 0.930 . S
H277 C287 0.930 . S
C278 H272 0.930 . S
C278 C279 1.355 . S
C278 C280 1.415 . S
C279 C278 1.355 . S
C279 C281 1.419 . S
C280 C278 1.415 . S
C280 C285 1.425 . S
C280 C287 1.409 . S
C281 H273 0.930 . S
C281 C279 1.419 . S
C281 C282 1.362 . S
C282 H274 0.930 . S
C282 C281 1.362 . S
C282 C285 1.409 . S
C283 H275 0.930 . S
C283 C284 1.355 . S
C283 C285 1.415 . S
C284 C283 1.355 . S
C284 C286 1.419 . S
C285 C280 1.425 . S
C285 C282 1.409 . S
C285 C283 1.415 . S
C286 H276 0.930 . S
C286 C284 1.419 . S
C286 C287 1.362 . S
C287 H277 0.930 . S
C287 C280 1.409 . S
C287 C286 1.362 . S
H288 C294 0.930 . S
H289 C297 0.930 . S
H290 C298 0.930 . S
H291 C299 0.930 . S
H292 C302 0.930 . S
H293 C303 0.930 . S
C294 H288 0.930 . S
C294 C295 1.355 . S
C294 C296 1.415 . S
C295 C294 1.355 . S
C295 C297 1.419 1_554 S
C296 C294 1.415 . S
C296 C301 1.425 1_554 S
C296 C303 1.409 . S
C297 H289 0.930 . S
C297 C295 1.419 1_556 S
C297 C298 1.362 . S
C298 H290 0.930 . S
C298 C297 1.362 . S
C298 C301 1.409 . S
C299 H291 0.930 . S
C299 C300 1.355 . S
C299 C301 1.415 . S
C300 C299 1.355 . S
C300 C302 1.419 1_556 S
C301 C296 1.425 1_556 S
C301 C298 1.409 . S
C301 C299 1.415 . S
C302 H292 0.930 . S
C302 C300 1.419 1_554 S
C302 C303 1.362 . S
C303 H293 0.930 . S
C303 C296 1.409 . S
C303 C302 1.362 . S
H304 C310 0.930 . S
H305 C313 0.930 . S
H306 C314 0.930 . S
H307 C315 0.930 . S
H308 C318 0.930 . S
H309 C319 0.930 . S
C310 H304 0.930 . S
C310 C311 1.355 . S
C310 C312 1.415 . S
C311 C310 1.355 . S
C311 C313 1.419 . S
C312 C310 1.415 . S
C312 C317 1.425 . S
C312 C319 1.409 . S
C313 H305 0.930 . S
C313 C311 1.419 . S
C313 C314 1.362 . S
C314 H306 0.930 . S
C314 C313 1.362 . S
C314 C317 1.409 . S
C315 H307 0.930 . S
C315 C316 1.355 . S
C315 C317 1.415 . S
C316 C315 1.355 . S
C316 C318 1.419 . S
C317 C312 1.425 . S
C317 C314 1.409 . S
C317 C315 1.415 . S
C318 H308 0.930 . S
C318 C316 1.419 . S
C318 C319 1.362 . S
C319 H309 0.930 . S
C319 C312 1.409 . S
C319 C318 1.362 . S
H320 C326 0.930 . S
H321 C329 0.930 . S
H322 C330 0.930 . S
H323 C331 0.930 . S
H324 C334 0.930 . S
H325 C335 0.930 . S
C326 H320 0.930 . S
C326 C327 1.355 . S
C326 C328 1.415 1_556 S
C327 C326 1.355 . S
C327 C329 1.419 . S
C328 C326 1.415 1_554 S
C328 C333 1.425 1_554 S
C328 C335 1.409 . S
C329 H321 0.930 . S
C329 C327 1.419 . S
C329 C330 1.362 . S
C330 H322 0.930 . S
C330 C329 1.362 . S
C330 C333 1.409 . S
C331 H323 0.930 . S
C331 C332 1.355 . S
C331 C333 1.415 1_554 S
C332 C331 1.355 . S
C332 C334 1.419 . S
C333 C328 1.425 1_556 S
C333 C330 1.409 . S
C333 C331 1.415 1_556 S
C334 H324 0.930 . S
C334 C332 1.419 . S
C334 C335 1.362 . S
C335 H325 0.930 . S
C335 C328 1.409 . S
C335 C334 1.362 . S
H336 C342 0.930 . S
H337 C345 0.930 . S
H338 C346 0.930 . S
H339 C347 0.930 . S
H340 C350 0.930 . S
H341 C351 0.930 . S
C342 H336 0.930 . S
C342 C343 1.355 . S
C342 C344 1.415 . S
C343 C342 1.355 . S
C343 C345 1.419 . S
C344 C342 1.415 . S
C344 C349 1.425 . S
C344 C351 1.409 . S
C345 H337 0.930 . S
C345 C343 1.419 . S
C345 C346 1.362 . S
C346 H338 0.930 . S
C346 C345 1.362 . S
C346 C349 1.409 . S
C347 H339 0.930 . S
C347 C348 1.355 . S
C347 C349 1.415 . S
C348 C347 1.355 . S
C348 C350 1.419 . S
C349 C344 1.425 . S
C349 C346 1.409 . S
C349 C347 1.415 . S
C350 H340 0.930 . S
C350 C348 1.419 . S
C350 C351 1.362 . S
C351 H341 0.930 . S
C351 C344 1.409 . S
C351 C350 1.362 . S
H352 C358 0.930 . S
H353 C361 0.930 . S
H354 C362 0.930 . S
H355 C363 0.930 . S
H356 C366 0.930 . S
H357 C367 0.930 . S
C358 H352 0.930 . S
C358 C359 1.355 . S
C358 C360 1.415 1_545 S
C359 C358 1.355 . S
C359 C361 1.419 . S
C360 C358 1.415 1_565 S
C360 C365 1.425 1_564 S
C360 C367 1.409 . S
C361 H353 0.930 . S
C361 C359 1.419 . S
C361 C362 1.362 1_554 S
C362 H354 0.930 . S
C362 C361 1.362 1_556 S
C362 C365 1.409 . S
C363 H355 0.930 . S
C363 C364 1.355 . S
C363 C365 1.415 1_565 S
C364 C363 1.355 . S
C364 C366 1.419 . S
C365 C360 1.425 1_546 S
C365 C362 1.409 . S
C365 C363 1.415 1_545 S
C366 H356 0.930 . S
C366 C364 1.419 . S
C366 C367 1.362 1_556 S
C367 H357 0.930 . S
C367 C360 1.409 . S
C367 C366 1.362 1_554 S
H368 C374 0.930 . S
H369 C377 0.930 . S
H370 C378 0.930 . S
H371 C379 0.930 . S
H372 C382 0.930 . S
H373 C383 0.930 . S
C374 H368 0.930 . S
C374 C375 1.355 . S
C374 C376 1.412 1_565 S
C375 C374 1.355 . S
C375 C377 1.419 . S
C376 C374 1.412 1_545 S
C376 C381 1.425 1_545 S
C376 C383 1.412 . S
C377 H369 0.930 . S
C377 C375 1.419 . S
C377 C378 1.362 . S
C378 H370 0.930 . S
C378 C377 1.362 . S
C378 C381 1.412 . S
C379 H371 0.930 . S
C379 C380 1.355 . S
C379 C381 1.412 1_545 S
C380 C379 1.355 . S
C380 C382 1.419 . S
C381 C376 1.425 1_565 S
C381 C378 1.412 . S
C381 C379 1.412 1_565 S
C382 H372 0.930 . S
C382 C380 1.419 . S
C382 C383 1.362 . S
C383 H373 0.930 . S
C383 C376 1.412 . S
C383 C382 1.362 . S
H384 C390 0.930 1_554 S
H385 C393 0.930 . S
H386 C394 0.930 . S
H387 C395 0.930 1_556 S
H388 C398 0.930 . S
H389 C399 0.930 . S
C390 H384 0.930 1_556 S
C390 C391 1.355 . S
C390 C392 1.415 1_556 S
C391 C390 1.355 . S
C391 C393 1.419 . S
C392 C390 1.415 1_554 S
C392 C397 1.425 1_564 S
C392 C399 1.409 . S
C393 H385 0.930 . S
C393 C391 1.419 . S
C393 C394 1.362 1_565 S
C394 H386 0.930 . S
C394 C393 1.362 1_545 S
C394 C397 1.409 . S
C395 H387 0.930 1_554 S
C395 C396 1.355 . S
C395 C397 1.415 1_554 S
C396 C395 1.355 . S
C396 C398 1.419 . S
C397 C392 1.425 1_546 S
C397 C394 1.409 . S
C397 C395 1.415 1_556 S
C398 H388 0.930 . S
C398 C396 1.419 . S
C398 C399 1.362 1_545 S
C399 H389 0.930 . S
C399 C392 1.409 . S
C399 C398 1.362 1_565 S
H400 C406 0.930 . S
H401 C409 0.930 . S
H402 C410 0.930 . S
H403 C411 0.930 . S
H404 C414 0.930 . S
H405 C415 0.930 . S
C406 H400 0.930 . S
C406 C407 1.355 . S
C406 C408 1.415 1_545 S
C407 C406 1.355 . S
C407 C409 1.419 . S
C408 C406 1.415 1_565 S
C408 C413 1.425 1_565 S
C408 C415 1.409 . S
C409 H401 0.930 . S
C409 C407 1.419 . S
C409 C410 1.362 . S
C410 H402 0.930 . S
C410 C409 1.362 . S
C410 C413 1.409 . S
C411 H403 0.930 . S
C411 C412 1.355 . S
C411 C413 1.415 1_565 S
C412 C411 1.355 . S
C412 C414 1.419 . S
C413 C408 1.425 1_545 S
C413 C410 1.409 . S
C413 C411 1.415 1_545 S
C414 H404 0.930 . S
C414 C412 1.419 . S
C414 C415 1.362 . S
C415 H405 0.930 . S
C415 C408 1.409 . S
C415 C414 1.362 . S
H416 C422 0.930 . S
H417 C425 0.930 . S
H418 C426 0.930 . S
H419 C427 0.930 . S
H420 C430 0.930 . S
H421 C431 0.930 . S
C422 H416 0.930 . S
C422 C423 1.355 . S
C422 C424 1.415 . S
C423 C422 1.355 . S
C423 C425 1.419 . S
C424 C422 1.415 . S
C424 C429 1.425 1_556 S
C424 C431 1.409 . S
C425 H417 0.930 . S
C425 C423 1.419 . S
C425 C426 1.362 1_556 S
C426 H418 0.930 . S
C426 C425 1.362 1_554 S
C426 C429 1.409 . S
C427 H419 0.930 . S
C427 C428 1.355 . S
C427 C429 1.415 . S
C428 C427 1.355 . S
C428 C430 1.419 . S
C429 C424 1.425 1_554 S
C429 C426 1.409 . S
C429 C427 1.415 . S
C430 H420 0.930 . S
C430 C428 1.419 . S
C430 C431 1.362 1_554 S
C431 H421 0.930 . S
C431 C424 1.409 . S
C431 C430 1.362 1_556 S
H432 C438 0.930 . S
H433 C441 0.930 . S
H434 C442 0.930 . S
H435 C443 0.930 . S
H436 C446 0.930 . S
H437 C447 0.930 . S
C438 H432 0.930 . S
C438 C439 1.355 . S
C438 C440 1.415 . S
C439 C438 1.355 . S
C439 C441 1.419 . S
C440 C438 1.415 . S
C440 C445 1.425 . S
C440 C447 1.409 . S
C441 H433 0.930 . S
C441 C439 1.419 . S
C441 C442 1.362 . S
C442 H434 0.930 . S
C442 C441 1.362 . S
C442 C445 1.409 . S
C443 H435 0.930 . S
C443 C444 1.355 . S
C443 C445 1.415 . S
C444 C443 1.355 . S
C444 C446 1.419 . S
C445 C440 1.425 . S
C445 C442 1.409 . S
C445 C443 1.415 . S
C446 H436 0.930 . S
C446 C444 1.419 . S
C446 C447 1.362 . S
C447 H437 0.930 . S
C447 C440 1.409 . S
C447 C446 1.362 . S
H448 C454 0.930 1_556 S
H449 C457 0.930 . S
H450 C458 0.930 . S
H451 C459 0.930 1_554 S
H452 C462 0.930 . S
H453 C463 0.930 . S
C454 H448 0.930 1_554 S
C454 C455 1.355 . S
C454 C456 1.415 1_554 S
C455 C454 1.355 . S
C455 C457 1.419 . S
C456 C454 1.415 1_556 S
C456 C461 1.425 1_556 S
C456 C463 1.409 . S
C457 H449 0.930 . S
C457 C455 1.419 . S
C457 C458 1.362 . S
C458 H450 0.930 . S
C458 C457 1.362 . S
C458 C461 1.409 . S
C459 H451 0.930 1_556 S
C459 C460 1.355 . S
C459 C461 1.415 1_556 S
C460 C459 1.355 . S
C460 C462 1.419 . S
C461 C456 1.425 1_554 S
C461 C458 1.409 . S
C461 C459 1.415 1_554 S
C462 H452 0.930 . S
C462 C460 1.419 . S
C462 C463 1.362 . S
C463 H453 0.930 . S
C463 C456 1.409 . S
C463 C462 1.362 . S
H464 C470 0.930 . S
H465 C473 0.930 . S
H466 C474 0.930 . S
H467 C475 0.930 . S
H468 C478 0.930 . S
H469 C479 0.930 . S
C470 H464 0.930 . S
C470 C471 1.355 . S
C470 C472 1.415 . S
C471 C470 1.355 . S
C471 C473 1.419 . S
C472 C470 1.415 . S
C472 C477 1.425 . S
C472 C479 1.409 . S
C473 H465 0.930 . S
C473 C471 1.419 . S
C473 C474 1.362 . S
C474 H466 0.930 . S
C474 C473 1.362 . S
C474 C477 1.409 . S
C475 H467 0.930 . S
C475 C476 1.355 . S
C475 C477 1.415 . S
C476 C475 1.355 . S
C476 C478 1.419 . S
C477 C472 1.425 . S
C477 C474 1.409 . S
C477 C475 1.415 . S
C478 H468 0.930 . S
C478 C476 1.419 . S
C478 C479 1.362 . S
C479 H469 0.930 . S
C479 C472 1.409 . S
C479 C478 1.362 . S
H480 C486 0.930 . S
H481 C489 0.930 . S
H482 C490 0.930 . S
H483 C491 0.930 . S
H484 C494 0.930 . S
H485 C495 0.930 . S
C486 H480 0.930 . S
C486 C487 1.355 . S
C486 C488 1.415 . S
C487 C486 1.355 . S
C487 C489 1.419 . S
C488 C486 1.415 . S
C488 C493 1.425 . S
C488 C495 1.409 . S
C489 H481 0.930 . S
C489 C487 1.419 . S
C489 C490 1.362 . S
C490 H482 0.930 . S
C490 C489 1.362 . S
C490 C493 1.409 . S
C491 H483 0.930 . S
C491 C492 1.355 . S
C491 C493 1.415 . S
C492 C491 1.355 . S
C492 C494 1.419 . S
C493 C488 1.425 . S
C493 C490 1.409 . S
C493 C491 1.415 . S
C494 H484 0.930 . S
C494 C492 1.419 . S
C494 C495 1.362 . S
C495 H485 0.930 . S
C495 C488 1.409 . S
C495 C494 1.362 . S
H496 C502 0.930 . S
H497 C505 0.930 . S
H498 C506 0.930 . S
H499 C507 0.930 . S
H500 C510 0.930 . S
H501 C511 0.930 . S
C502 H496 0.930 . S
C502 C503 1.355 . S
C502 C504 1.415 . S
C503 C502 1.355 . S
C503 C505 1.419 . S
C504 C502 1.415 . S
C504 C509 1.425 1_655 S
C504 C511 1.409 1_655 S
C505 H497 0.930 . S
C505 C503 1.419 . S
C505 C506 1.362 . S
C506 H498 0.930 . S
C506 C505 1.362 . S
C506 C509 1.409 1_655 S
C507 H499 0.930 . S
C507 C508 1.355 . S
C507 C509 1.415 . S
C508 C507 1.355 . S
C508 C510 1.419 . S
C509 C504 1.425 1_455 S
C509 C506 1.409 1_455 S
C509 C507 1.415 . S
C510 H500 0.930 . S
C510 C508 1.419 . S
C510 C511 1.362 . S
C511 H501 0.930 . S
C511 C504 1.409 1_455 S
C511 C510 1.362 . S
H512 C518 0.930 . S
H513 C521 0.930 . S
H514 C522 0.930 . S
H515 C523 0.930 . S
H516 C526 0.930 . S
H517 C527 0.930 . S
C518 H512 0.930 . S
C518 C519 1.355 . S
C518 C520 1.415 . S
C519 C518 1.355 . S
C519 C521 1.419 . S
C520 C518 1.415 . S
C520 C525 1.425 . S
C520 C527 1.409 . S
C521 H513 0.930 . S
C521 C519 1.419 . S
C521 C522 1.362 . S
C522 H514 0.930 . S
C522 C521 1.362 . S
C522 C525 1.409 . S
C523 H515 0.930 . S
C523 C524 1.355 . S
C523 C525 1.415 . S
C524 C523 1.355 . S
C524 C526 1.419 . S
C525 C520 1.425 . S
C525 C522 1.409 . S
C525 C523 1.415 . S
C526 H516 0.930 . S
C526 C524 1.419 . S
C526 C527 1.362 . S
C527 H517 0.930 . S
C527 C520 1.409 . S
C527 C526 1.362 . S
H528 C534 0.930 . S
H529 C537 0.930 . S
H530 C538 0.930 . S
H531 C539 0.930 . S
H532 C542 0.930 . S
H533 C543 0.930 . S
C534 H528 0.930 . S
C534 C535 1.355 . S
C534 C536 1.415 . S
C535 C534 1.355 . S
C535 C537 1.419 . S
C536 C534 1.415 . S
C536 C541 1.425 1_455 S
C536 C543 1.409 1_455 S
C537 H529 0.930 . S
C537 C535 1.419 . S
C537 C538 1.362 . S
C538 H530 0.930 . S
C538 C537 1.362 . S
C538 C541 1.409 1_455 S
C539 H531 0.930 . S
C539 C540 1.355 . S
C539 C541 1.415 . S
C540 C539 1.355 . S
C540 C542 1.419 . S
C541 C536 1.425 1_655 S
C541 C538 1.409 1_655 S
C541 C539 1.415 . S
C542 H532 0.930 . S
C542 C540 1.419 . S
C542 C543 1.362 . S
C543 H533 0.930 . S
C543 C536 1.409 1_655 S
C543 C542 1.362 . S
H544 C550 0.930 . S
H545 C553 0.930 . S
H546 C554 0.930 . S
H547 C555 0.930 . S
H548 C558 0.930 . S
H549 C559 0.930 . S
C550 H544 0.930 . S
C550 C551 1.355 . S
C550 C552 1.415 . S
C551 C550 1.355 . S
C551 C553 1.419 . S
C552 C550 1.415 . S
C552 C557 1.425 1_455 S
C552 C559 1.409 1_455 S
C553 H545 0.930 . S
C553 C551 1.419 . S
C553 C554 1.362 . S
C554 H546 0.930 . S
C554 C553 1.362 . S
C554 C557 1.409 1_455 S
C555 H547 0.930 . S
C555 C556 1.355 . S
C555 C557 1.415 . S
C556 C555 1.355 . S
C556 C558 1.419 . S
C557 C552 1.425 1_655 S
C557 C554 1.409 1_655 S
C557 C555 1.415 . S
C558 H548 0.930 . S
C558 C556 1.419 . S
C558 C559 1.362 . S
C559 H549 0.930 . S
C559 C552 1.409 1_655 S
C559 C558 1.362 . S
H560 C566 0.930 . S
H561 C569 0.930 . S
H562 C570 0.930 . S
H563 C571 0.930 . S
H564 C574 0.930 . S
H565 C575 0.930 . S
C566 H560 0.930 . S
C566 C567 1.355 . S
C566 C568 1.415 . S
C567 C566 1.355 . S
C567 C569 1.419 . S
C568 C566 1.415 . S
C568 C573 1.425 . S
C568 C575 1.409 . S
C569 H561 0.930 . S
C569 C567 1.419 . S
C569 C570 1.362 . S
C570 H562 0.930 . S
C570 C569 1.362 . S
C570 C573 1.409 . S
C571 H563 0.930 . S
C571 C572 1.355 . S
C571 C573 1.415 . S
C572 C571 1.355 . S
C572 C574 1.419 . S
C573 C568 1.425 . S
C573 C570 1.409 . S
C573 C571 1.415 . S
C574 H564 0.930 . S
C574 C572 1.419 . S
C574 C575 1.362 . S
C575 H565 0.930 . S
C575 C568 1.409 . S
C575 C574 1.362 . S
H576 C582 0.930 . S
H577 C585 0.930 . S
H578 C586 0.930 . S
H579 C587 0.930 . S
H580 C590 0.930 . S
H581 C591 0.930 . S
C582 H576 0.930 . S
C582 C583 1.355 . S
C582 C584 1.415 . S
C583 C582 1.355 . S
C583 C585 1.419 . S
C584 C582 1.415 . S
C584 C589 1.425 1_455 S
C584 C591 1.409 1_455 S
C585 H577 0.930 . S
C585 C583 1.419 . S
C585 C586 1.362 . S
C586 H578 0.930 . S
C586 C585 1.362 . S
C586 C589 1.409 1_455 S
C587 H579 0.930 . S
C587 C588 1.355 . S
C587 C589 1.415 . S
C588 C587 1.355 . S
C588 C590 1.419 . S
C589 C584 1.425 1_655 S
C589 C586 1.409 1_655 S
C589 C587 1.415 . S
C590 H580 0.930 . S
C590 C588 1.419 . S
C590 C591 1.362 . S
C591 H581 0.930 . S
C591 C584 1.409 1_655 S
C591 C590 1.362 . S
H592 C598 0.930 . S
H593 C601 0.930 . S
H594 C602 0.930 . S
H595 C603 0.930 . S
H596 C606 0.930 . S
H597 C607 0.930 . S
C598 H592 0.930 . S
C598 C599 1.355 . S
C598 C600 1.415 . S
C599 C598 1.355 . S
C599 C601 1.419 . S
C600 C598 1.415 . S
C600 C605 1.425 . S
C600 C607 1.409 . S
C601 H593 0.930 . S
C601 C599 1.419 . S
C601 C602 1.362 . S
C602 H594 0.930 . S
C602 C601 1.362 . S
C602 C605 1.409 . S
C603 H595 0.930 . S
C603 C604 1.355 . S
C603 C605 1.415 . S
C604 C603 1.355 . S
C604 C606 1.419 . S
C605 C600 1.425 . S
C605 C602 1.409 . S
C605 C603 1.415 . S
C606 H596 0.930 . S
C606 C604 1.419 . S
C606 C607 1.362 . S
C607 H597 0.930 . S
C607 C600 1.409 . S
C607 C606 1.362 . S
H608 C614 0.930 . S
H609 C617 0.930 . S
H610 C618 0.930 . S
H611 C619 0.930 . S
H612 C622 0.930 . S
H613 C623 0.930 . S
C614 H608 0.930 . S
C614 C615 1.355 . S
C614 C616 1.415 . S
C615 C614 1.355 . S
C615 C617 1.419 . S
C616 C614 1.415 . S
C616 C621 1.425 . S
C616 C623 1.409 . S
C617 H609 0.930 . S
C617 C615 1.419 . S
C617 C618 1.362 . S
C618 H610 0.930 . S
C618 C617 1.362 . S
C618 C621 1.409 . S
C619 H611 0.930 . S
C619 C620 1.355 . S
C619 C621 1.415 . S
C620 C619 1.355 . S
C620 C622 1.419 . S
C621 C616 1.425 . S
C621 C618 1.409 . S
C621 C619 1.415 . S
C622 H612 0.930 . S
C622 C620 1.419 . S
C622 C623 1.362 . S
C623 H613 0.930 . S
C623 C616 1.409 . S
C623 C622 1.362 . S
H624 C630 0.930 . S
H625 C633 0.930 . S
H626 C634 0.930 . S
H627 C635 0.930 . S
H628 C638 0.930 . S
H629 C639 0.930 . S
C630 H624 0.930 . S
C630 C631 1.355 . S
C630 C632 1.415 . S
C631 C630 1.355 . S
C631 C633 1.419 . S
C632 C630 1.415 . S
C632 C637 1.425 . S
C632 C639 1.409 . S
C633 H625 0.930 . S
C633 C631 1.419 . S
C633 C634 1.362 . S
C634 H626 0.930 . S
C634 C633 1.362 . S
C634 C637 1.409 . S
C635 H627 0.930 . S
C635 C636 1.355 . S
C635 C637 1.415 . S
C636 C635 1.355 . S
C636 C638 1.419 . S
C637 C632 1.425 . S
C637 C634 1.409 . S
C637 C635 1.415 . S
C638 H628 0.930 . S
C638 C636 1.419 . S
C638 C639 1.362 . S
C639 H629 0.930 . S
C639 C632 1.409 . S
C639 C638 1.362 . S
H640 C646 0.930 . S
H641 C649 0.930 . S
H642 C650 0.930 . S
H643 C651 0.930 . S
H644 C654 0.930 . S
H645 C655 0.930 . S
C646 H640 0.930 . S
C646 C647 1.355 . S
C646 C648 1.415 . S
C647 C646 1.355 . S
C647 C649 1.419 . S
C648 C646 1.415 . S
C648 C653 1.425 . S
C648 C655 1.409 . S
C649 H641 0.930 . S
C649 C647 1.419 . S
C649 C650 1.362 . S
C650 H642 0.930 . S
C650 C649 1.362 . S
C650 C653 1.409 . S
C651 H643 0.930 . S
C651 C652 1.355 . S
C651 C653 1.415 . S
C652 C651 1.355 . S
C652 C654 1.419 . S
C653 C648 1.425 . S
C653 C650 1.409 . S
C653 C651 1.415 . S
C654 H644 0.930 . S
C654 C652 1.419 . S
C654 C655 1.362 . S
C655 H645 0.930 . S
C655 C648 1.409 . S
C655 C654 1.362 . S
H656 C662 0.930 . S
H657 C665 0.930 . S
H658 C666 0.930 . S
H659 C667 0.930 . S
H660 C670 0.930 . S
H661 C671 0.930 . S
C662 H656 0.930 . S
C662 C663 1.355 . S
C662 C664 1.415 . S
C663 C662 1.355 . S
C663 C665 1.419 . S
C664 C662 1.415 . S
C664 C669 1.425 . S
C664 C671 1.409 . S
C665 H657 0.930 . S
C665 C663 1.419 . S
C665 C666 1.362 . S
C666 H658 0.930 . S
C666 C665 1.362 . S
C666 C669 1.409 . S
C667 H659 0.930 . S
C667 C668 1.355 . S
C667 C669 1.415 . S
C668 C667 1.355 . S
C668 C670 1.419 . S
C669 C664 1.425 . S
C669 C666 1.409 . S
C669 C667 1.415 . S
C670 H660 0.930 . S
C670 C668 1.419 . S
C670 C671 1.362 . S
C671 H661 0.930 . S
C671 C664 1.409 . S
C671 C670 1.362 . S
H672 C678 0.930 . S
H673 C681 0.930 . S
H674 C682 0.930 . S
H675 C683 0.930 . S
H676 C686 0.930 . S
H677 C687 0.930 . S
C678 H672 0.930 . S
C678 C679 1.355 . S
C678 C680 1.415 . S
C679 C678 1.355 . S
C679 C681 1.419 . S
C680 C678 1.415 . S
C680 C685 1.425 . S
C680 C687 1.409 . S
C681 H673 0.930 . S
C681 C679 1.419 . S
C681 C682 1.362 . S
C682 H674 0.930 . S
C682 C681 1.362 . S
C682 C685 1.409 . S
C683 H675 0.930 . S
C683 C684 1.355 . S
C683 C685 1.415 . S
C684 C683 1.355 . S
C684 C686 1.419 . S
C685 C680 1.425 . S
C685 C682 1.409 . S
C685 C683 1.415 . S
C686 H676 0.930 . S
C686 C684 1.419 . S
C686 C687 1.362 . S
C687 H677 0.930 . S
C687 C680 1.409 . S
C687 C686 1.362 . S
H688 C694 0.930 . S
H689 C697 0.930 . S
H690 C698 0.930 . S
H691 C699 0.930 . S
H692 C702 0.930 . S
H693 C703 0.930 . S
C694 H688 0.930 . S
C694 C695 1.355 . S
C694 C696 1.415 . S
C695 C694 1.355 . S
C695 C697 1.419 . S
C696 C694 1.415 . S
C696 C701 1.425 . S
C696 C703 1.409 . S
C697 H689 0.930 . S
C697 C695 1.419 . S
C697 C698 1.362 . S
C698 H690 0.930 . S
C698 C697 1.362 . S
C698 C701 1.409 . S
C699 H691 0.930 . S
C699 C700 1.355 . S
C699 C701 1.415 . S
C700 C699 1.355 . S
C700 C702 1.419 . S
C701 C696 1.425 . S
C701 C698 1.409 . S
C701 C699 1.415 . S
C702 H692 0.930 . S
C702 C700 1.419 . S
C702 C703 1.362 . S
C703 H693 0.930 . S
C703 C696 1.409 . S
C703 C702 1.362 . S
H704 C710 0.930 . S
H705 C713 0.930 . S
H706 C714 0.930 . S
H707 C715 0.930 . S
H708 C718 0.930 . S
H709 C719 0.930 . S
C710 H704 0.930 . S
C710 C711 1.355 . S
C710 C712 1.415 . S
C711 C710 1.355 . S
C711 C713 1.419 . S
C712 C710 1.415 . S
C712 C717 1.425 . S
C712 C719 1.409 . S
C713 H705 0.930 . S
C713 C711 1.419 . S
C713 C714 1.362 . S
C714 H706 0.930 . S
C714 C713 1.362 . S
C714 C717 1.409 . S
C715 H707 0.930 . S
C715 C716 1.355 . S
C715 C717 1.415 . S
C716 C715 1.355 . S
C716 C718 1.419 . S
C717 C712 1.425 . S
C717 C714 1.409 . S
C717 C715 1.415 . S
C718 H708 0.930 . S
C718 C716 1.419 . S
C718 C719 1.362 . S
C719 H709 0.930 . S
C719 C712 1.409 . S
C719 C718 1.362 . S
H720 C726 0.930 . S
H721 C729 0.930 . S
H722 C730 0.930 . S
H723 C731 0.930 . S
H724 C734 0.930 . S
H725 C735 0.930 . S
C726 H720 0.930 . S
C726 C727 1.355 . S
C726 C728 1.415 . S
C727 C726 1.355 . S
C727 C729 1.419 . S
C728 C726 1.415 . S
C728 C733 1.425 . S
C728 C735 1.409 . S
C729 H721 0.930 . S
C729 C727 1.419 . S
C729 C730 1.362 . S
C730 H722 0.930 . S
C730 C729 1.362 . S
C730 C733 1.409 . S
C731 H723 0.930 . S
C731 C732 1.355 . S
C731 C733 1.415 . S
C732 C731 1.355 . S
C732 C734 1.419 . S
C733 C728 1.425 . S
C733 C730 1.409 . S
C733 C731 1.415 . S
C734 H724 0.930 . S
C734 C732 1.419 . S
C734 C735 1.362 . S
C735 H725 0.930 . S
C735 C728 1.409 . S
C735 C734 1.362 . S
C231 C11 1.405 . S
C236 C180 1.393 . S
C247 C194 1.402 . S
C252 C25 1.363 . S
C263 C39 1.362 . S
C268 C208 1.403 . S
C279 C222 1.392 . S
C284 C53 1.403 . S
C295 C123 1.389 . S
C300 C68 1.405 . S
C311 C82 1.403 . S
C316 C137 1.398 . S
C327 C151 1.365 . S
C332 C96 1.401 . S
C343 C110 1.408 . S
C348 C165 1.368 . S
C359 C4 1.476 . S
C364 C32 1.445 . S
C375 C18 1.483 . S
C380 C46 1.445 . S
C391 C60 1.405 . S
C396 C88 1.401 . S
C407 C74 1.376 . S
C412 C102 1.408 . S
C423 C144 1.480 . S
C428 C116 1.445 . S
C439 C130 1.458 . S
C444 C158 1.485 . S
C455 C200 1.400 . S
C460 C172 1.406 . S
C471 C186 1.417 . S
C476 C214 1.376 . S
C487 C89 1.339 . S
C492 C5 1.277 . S
C503 C103 1.346 . S
C508 C19 1.269 . S
C519 C33 1.371 . S
C524 C61 1.238 . S
C535 C47 1.238 . S
C540 C75 1.371 . S
C551 C201 1.280 . S
C556 C117 1.326 . S
C567 C131 1.341 . S
C572 C215 1.275 . S
C583 C173 1.306 . S
C588 C145 1.301 . S
C599 C159 1.322 . S
C604 C187 1.284 . S
C615 C12 1.424 . S
C620 C54 1.440 . S
C631 C40 1.425 . S
C636 C26 1.425 . S
C647 C67 1.339 . S
C652 C109 1.334 . S
C663 C81 1.320 . S
C668 C95 1.324 . S
C679 C166 1.444 . S
C684 C124 1.437 . S
C695 C138 1.438 . S
C700 C152 1.443 . S
C711 C221 1.356 . S
C716 C179 1.354 . S
C727 C193 1.315 . S
C732 C207 1.313 . S
