# Generated by pormake.
# Topology wjh, (4)-cn, num edge types: 1
# Building blocks:
#     Node 0, Type 0, BuildingBlock: CEKHIL_clean_sbu_0, # of connection points: 4
#     Node 1, Type 0, BuildingBlock: CEKHIL_clean_sbu_0, # of connection points: 4
#     Node 2, Type 0, BuildingBlock: CEKHIL_clean_sbu_0, # of connection points: 4
#     Node 3, Type 0, BuildingBlock: CEKHIL_clean_sbu_0, # of connection points: 4
#     Node 4, Type 0, BuildingBlock: CEKHIL_clean_sbu_0, # of connection points: 4
#     Node 5, Type 0, BuildingBlock: CEKHIL_clean_sbu_0, # of connection points: 4
#     Node 6, Type 0, BuildingBlock: CEKHIL_clean_sbu_0, # of connection points: 4
#     Node 7, Type 0, BuildingBlock: CEKHIL_clean_sbu_0, # of connection points: 4
#     Node 8, Type 0, BuildingBlock: CEKHIL_clean_sbu_0, # of connection points: 4
#     Node 9, Type 0, BuildingBlock: CEKHIL_clean_sbu_0, # of connection points: 4
#     Node 10, Type 0, BuildingBlock: CEKHIL_clean_sbu_0, # of connection points: 4
#     Node 11, Type 0, BuildingBlock: CEKHIL_clean_sbu_0, # of connection points: 4
#     Edge 12, Type (0, 0), BuildingBlock: MIFKUJ_clean_linker_0, # of connection points: 2
#     Edge 13, Type (0, 0), BuildingBlock: MIFKUJ_clean_linker_0, # of connection points: 2
#     Edge 14, Type (0, 0), BuildingBlock: MIFKUJ_clean_linker_0, # of connection points: 2
#     Edge 15, Type (0, 0), BuildingBlock: MIFKUJ_clean_linker_0, # of connection points: 2
#     Edge 16, Type (0, 0), BuildingBlock: MIFKUJ_clean_linker_0, # of connection points: 2
#     Edge 17, Type (0, 0), BuildingBlock: MIFKUJ_clean_linker_0, # of connection points: 2
#     Edge 18, Type (0, 0), BuildingBlock: MIFKUJ_clean_linker_0, # of connection points: 2
#     Edge 19, Type (0, 0), BuildingBlock: MIFKUJ_clean_linker_0, # of connection points: 2
#     Edge 20, Type (0, 0), BuildingBlock: MIFKUJ_clean_linker_0, # of connection points: 2
#     Edge 21, Type (0, 0), BuildingBlock: MIFKUJ_clean_linker_0, # of connection points: 2
#     Edge 22, Type (0, 0), BuildingBlock: MIFKUJ_clean_linker_0, # of connection points: 2
#     Edge 23, Type (0, 0), BuildingBlock: MIFKUJ_clean_linker_0, # of connection points: 2
#     Edge 24, Type (0, 0), BuildingBlock: MIFKUJ_clean_linker_0, # of connection points: 2
#     Edge 25, Type (0, 0), BuildingBlock: MIFKUJ_clean_linker_0, # of connection points: 2
#     Edge 26, Type (0, 0), BuildingBlock: MIFKUJ_clean_linker_0, # of connection points: 2
#     Edge 27, Type (0, 0), BuildingBlock: MIFKUJ_clean_linker_0, # of connection points: 2
#     Edge 28, Type (0, 0), BuildingBlock: MIFKUJ_clean_linker_0, # of connection points: 2
#     Edge 29, Type (0, 0), BuildingBlock: MIFKUJ_clean_linker_0, # of connection points: 2
#     Edge 30, Type (0, 0), BuildingBlock: MIFKUJ_clean_linker_0, # of connection points: 2
#     Edge 31, Type (0, 0), BuildingBlock: MIFKUJ_clean_linker_0, # of connection points: 2
#     Edge 32, Type (0, 0), BuildingBlock: MIFKUJ_clean_linker_0, # of connection points: 2
#     Edge 33, Type (0, 0), BuildingBlock: MIFKUJ_clean_linker_0, # of connection points: 2
#     Edge 34, Type (0, 0), BuildingBlock: MIFKUJ_clean_linker_0, # of connection points: 2
#     Edge 35, Type (0, 0), BuildingBlock: MIFKUJ_clean_linker_0, # of connection points: 2
# Relax obj value: 0.079
# Max RMSD: 0.099
# Mean RMSD: 0.099
data_MOF--net-wjh--node1-CEKHIL_clean_sbu_0--edge1-MIFKUJ_clean_linker_0
_symmetry_space_group_name_H-M    P1
_symmetry_Int_Tables_number       1
_symmetry_cell_setting            triclinic
loop_
_symmetry_equiv_pos_as_xyz
'x, y, z'
_cell_length_a     78.821811
_cell_length_b     78.822223
_cell_length_c     34.380471
_cell_angle_alpha  89.963111
_cell_angle_beta   90.022964
_cell_angle_gamma 119.98983
loop_
_atom_site_label
_atom_site_type_symbol
_atom_site_fract_x
_atom_site_fract_y
_atom_site_fract_z
_atom_type_partial_charge
Co0 Co 0.52309 0.15084 0.04376 0.0
O1 O 0.53596 0.17896 0.05008 0.0
O2 O 0.50547 0.15824 0.06771 0.0
C3 C 0.53297 0.15106 0.98199 0.0
O4 O 0.50446 0.12115 0.04128 0.0
Co5 Co 0.54638 0.12915 0.02701 0.0
O6 O 0.52015 0.1066 0.01527 0.0
C7 C 0.54686 0.14461 0.10571 0.0
C8 C 0.51971 0.17626 0.06528 0.0
C9 C 0.5046 0.10604 0.02733 0.0
O10 O 0.53326 0.14839 0.09622 0.0
O11 O 0.55492 0.1385 0.08142 0.0
O12 O 0.518 0.15337 0.9886 0.0
O13 O 0.54215 0.15036 0.01233 0.0
Co14 Co 0.37248 0.52059 0.20534 0.0
O15 O 0.35281 0.52824 0.2074 0.0
O16 O 0.34852 0.49981 0.22843 0.0
C17 C 0.38232 0.53138 0.14402 0.0
O18 O 0.3891 0.50727 0.20635 0.0
Co19 Co 0.41639 0.55203 0.19323 0.0
O20 O 0.41968 0.5288 0.1866 0.0
C21 C 0.3972 0.54903 0.26837 0.0
C22 C 0.34136 0.5114 0.22338 0.0
C23 C 0.4066 0.51154 0.19653 0.0
O24 O 0.38247 0.53243 0.25837 0.0
O25 O 0.41105 0.56003 0.24508 0.0
O26 O 0.36706 0.51415 0.14965 0.0
O27 O 0.38993 0.54161 0.17484 0.0
Co28 Co 0.85513 0.37233 0.37568 0.0
O29 O 0.82767 0.35368 0.38034 0.0
O30 O 0.85129 0.34805 0.39868 0.0
C31 C 0.85337 0.38173 0.31452 0.0
O32 O 0.88518 0.38808 0.37413 0.0
Co33 Co 0.86884 0.41656 0.36158 0.0
O34 O 0.89478 0.41876 0.3539 0.0
C35 C 0.8536 0.39844 0.43817 0.0
C36 C 0.83258 0.3417 0.39555 0.0
C37 C 0.89861 0.40541 0.36368 0.0
O38 O 0.85476 0.38324 0.42858 0.0
O39 O 0.85655 0.4121 0.41425 0.0
O40 O 0.85465 0.36606 0.32002 0.0
O41 O 0.85182 0.38994 0.34548 0.0
Co42 Co 0.48581 0.85573 0.54423 0.0
O43 O 0.47645 0.82805 0.54578 0.0
O44 O 0.50575 0.85068 0.56599 0.0
C45 C 0.47505 0.85602 0.48338 0.0
O46 O 0.50036 0.88587 0.5462 0.0
Co47 Co 0.45499 0.86948 0.53462 0.0
O48 O 0.47866 0.89583 0.53284 0.0
C49 C 0.4573 0.85107 0.60722 0.0
C50 C 0.49299 0.83215 0.56156 0.0
C51 C 0.49601 0.89948 0.54055 0.0
O52 O 0.47429 0.85387 0.59752 0.0
O53 O 0.44634 0.85409 0.58413 0.0
O54 O 0.49179 0.85674 0.48817 0.0
O55 O 0.46521 0.8536 0.51464 0.0
Co56 Co 0.63763 0.48658 0.70688 0.0
O57 O 0.6553 0.47643 0.70797 0.0
O58 O 0.663 0.5062 0.72712 0.0
C59 C 0.62566 0.47548 0.64684 0.0
O60 O 0.62324 0.50222 0.70858 0.0
Co61 Co 0.59258 0.4578 0.69927 0.0
O62 O 0.59205 0.48236 0.68952 0.0
C63 C 0.6134 0.45964 0.77168 0.0
C64 C 0.66832 0.49313 0.72237 0.0
C65 C 0.6062 0.49927 0.69843 0.0
O66 O 0.62829 0.47593 0.76087 0.0
O67 O 0.59875 0.44916 0.74958 0.0
O68 O 0.64215 0.49185 0.65067 0.0
O69 O 0.61823 0.46604 0.67856 0.0
Co70 Co 0.15456 0.63067 0.87585 0.0
O71 O 0.18234 0.64834 0.87902 0.0
O72 O 0.15987 0.65539 0.89882 0.0
C73 C 0.15442 0.62037 0.81464 0.0
O74 O 0.1245 0.61619 0.87596 0.0
Co75 Co 0.13866 0.5859 0.86337 0.0
O76 O 0.11319 0.58489 0.85765 0.0
C77 C 0.15593 0.60444 0.93851 0.0
C78 C 0.17835 0.66085 0.89499 0.0
C79 C 0.11038 0.59897 0.86687 0.0
O80 O 0.15528 0.6199 0.92872 0.0
O81 O 0.15183 0.5903 0.91506 0.0
O82 O 0.15447 0.63673 0.82027 0.0
O83 O 0.15618 0.61214 0.84543 0.0
Co84 Co 0.86317 0.48774 0.89244 0.0
O85 O 0.83522 0.47564 0.88553 0.0
O86 O 0.85661 0.50623 0.86947 0.0
C87 C 0.86214 0.4767 0.95351 0.0
O88 O 0.89301 0.50546 0.89584 0.0
Co89 Co 0.88304 0.46256 0.90765 0.0
O90 O 0.90622 0.48816 0.92021 0.0
C91 C 0.86746 0.46327 0.8298 0.0
C92 C 0.83846 0.49218 0.87088 0.0
C93 C 0.90769 0.50429 0.90928 0.0
O94 O 0.86531 0.47788 0.83949 0.0
O95 O 0.87262 0.45427 0.85383 0.0
O96 O 0.86066 0.49225 0.948 0.0
O97 O 0.86259 0.46785 0.92249 0.0
Co98 Co 0.3769 0.85932 0.0584 0.0
O99 O 0.36162 0.83121 0.05336 0.0
O100 O 0.35155 0.85175 0.03588 0.0
C101 C 0.38751 0.85938 0.11941 0.0
O102 O 0.38805 0.88901 0.05964 0.0
Co103 Co 0.42204 0.88133 0.07284 0.0
O104 O 0.41847 0.90393 0.08496 0.0
C105 C 0.40573 0.86409 -0.00433 0.0
C106 C 0.34791 0.83378 0.03855 0.0
C107 C 0.40331 0.90423 0.07319 0.0
O108 O 0.38863 0.86095 0.00552 0.0
O109 O 0.42024 0.8706 0.01923 0.0
O110 O 0.37029 0.85747 0.11401 0.0
O111 O 0.39686 0.85993 0.08836 0.0
Co112 Co 0.52398 0.37787 0.22359 0.0
O113 O 0.53444 0.36052 0.21997 0.0
O114 O 0.50479 0.35298 0.20041 0.0
C115 C 0.5342 0.38786 0.28508 0.0
O116 O 0.50834 0.3924 0.22382 0.0
Co117 Co 0.55323 0.42264 0.23707 0.0
O118 O 0.52879 0.42366 0.2422 0.0
C119 C 0.55003 0.40513 0.15969 0.0
C120 C 0.51805 0.34781 0.20409 0.0
C121 C 0.51184 0.40982 0.23256 0.0
O122 O 0.53513 0.38885 0.17059 0.0
O123 O 0.56005 0.41949 0.18269 0.0
O124 O 0.51796 0.3715 0.27914 0.0
O125 O 0.54413 0.3963 0.25437 0.0
Co126 Co 0.14852 0.51916 0.39102 0.0
O127 O 0.17608 0.52781 0.39245 0.0
O128 O 0.15346 0.49946 0.36815 0.0
C129 C 0.14645 0.52821 0.45231 0.0
O130 O 0.11852 0.50503 0.38623 0.0
Co131 Co 0.13467 0.5498 0.40142 0.0
O132 O 0.10838 0.52614 0.40328 0.0
C133 C 0.15476 0.5493 0.32989 0.0
C134 C 0.1719 0.51149 0.37546 0.0
C135 C 0.10483 0.50905 0.39355 0.0
O136 O 0.15209 0.53222 0.33865 0.0
O137 O 0.15082 0.55951 0.35318 0.0
O138 O 0.14588 0.51162 0.4464 0.0
O139 O 0.15 0.53905 0.42208 0.0
Co140 Co 0.63354 0.14976 0.56254 0.0
O141 O 0.65213 0.17707 0.55498 0.0
O142 O 0.65726 0.15293 0.53809 0.0
C143 C 0.62577 0.15318 0.624 0.0
O144 O 0.61771 0.11976 0.56669 0.0
Co145 Co 0.58984 0.13655 0.57968 0.0
O146 O 0.58761 0.11072 0.58954 0.0
C147 C 0.6062 0.15002 0.50119 0.0
C148 C 0.66366 0.17169 0.53938 0.0
C149 C 0.60066 0.1066 0.57909 0.0
O150 O 0.62157 0.14908 0.51025 0.0
O151 O 0.59297 0.1475 0.52584 0.0
O152 O 0.64106 0.15137 0.61758 0.0
O153 O 0.61676 0.15409 0.59363 0.0
Co154 Co 0.48856 0.6307 0.7219 0.0
O155 O 0.47632 0.64647 0.71469 0.0
O156 O 0.50704 0.65598 0.69961 0.0
C157 C 0.47703 0.62039 0.78272 0.0
O158 O 0.50665 0.61895 0.72611 0.0
Co159 Co 0.46411 0.58561 0.73616 0.0
O160 O 0.48962 0.58902 0.75314 0.0
C161 C 0.46627 0.60167 0.65731 0.0
C162 C 0.49295 0.66004 0.70089 0.0
C163 C 0.50568 0.60362 0.74185 0.0
O164 O 0.4794 0.61895 0.66843 0.0
O165 O 0.45768 0.58703 0.68043 0.0
O166 O 0.49245 0.63753 0.77754 0.0
O167 O 0.4685 0.61102 0.75147 0.0
H168 H 0.53554 0.15874 0.16784 0.0
H169 H 0.5468 0.16204 0.23538 0.0
H170 H 0.58469 0.1395 0.20324 0.0
H171 H 0.57352 0.13594 0.1364 0.0
H172 H 0.56414 0.12191 0.26738 0.0
H173 H 0.60328 0.18779 0.21971 0.0
H174 H 0.60895 0.2185 0.18913 0.0
H175 H 0.5758 0.22616 0.27954 0.0
H176 H 0.56971 0.19534 0.31041 0.0
H177 H 0.62277 0.14447 0.43588 0.0
H178 H 0.61414 0.14626 0.3681 0.0
H179 H 0.5736 0.1645 0.40624 0.0
H180 H 0.58204 0.16273 0.47383 0.0
H181 H 0.5951 0.18474 0.33994 0.0
H182 H 0.55584 0.11873 0.38702 0.0
H183 H 0.55019 0.08802 0.41754 0.0
H184 H 0.58367 0.08063 0.32748 0.0
H185 H 0.58978 0.11148 0.29673 0.0
C186 C 0.54627 0.15451 0.17517 0.0
C187 C 0.55358 0.14706 0.14662 0.0
C188 C 0.55275 0.15648 0.21371 0.0
C189 C 0.56665 0.1511 0.22418 0.0
C190 C 0.57393 0.1437 0.19577 0.0
C191 C 0.56753 0.14174 0.15746 0.0
C192 C 0.57343 0.15267 0.26484 0.0
C193 C 0.57112 0.13571 0.28306 0.0
C194 C 0.58215 0.17058 0.28552 0.0
C195 C 0.58586 0.18915 0.26713 0.0
C196 C 0.59706 0.19594 0.2329 0.0
C197 C 0.60038 0.21339 0.21554 0.0
C198 C 0.59269 0.22425 0.23231 0.0
C199 C 0.58172 0.21772 0.26655 0.0
C200 C 0.57834 0.20027 0.284 0.0
C201 C 0.61225 0.14914 0.42979 0.0
C202 C 0.6029 0.15322 0.46019 0.0
C203 C 0.6073 0.15011 0.39113 0.0
C204 C 0.59309 0.15531 0.38236 0.0
C205 C 0.58457 0.16043 0.4125 0.0
C206 C 0.58933 0.15928 0.45109 0.0
C207 C 0.58603 0.15405 0.34208 0.0
C208 C 0.58818 0.171 0.3241 0.0
C209 C 0.57716 0.13613 0.32151 0.0
C210 C 0.57345 0.11753 0.33983 0.0
C211 C 0.56214 0.11065 0.37392 0.0
C212 C 0.55883 0.0932 0.39122 0.0
C213 C 0.56662 0.08241 0.37453 0.0
C214 C 0.57769 0.08902 0.34042 0.0
C215 C 0.58107 0.10648 0.32303 0.0
H216 H 0.56403 0.06889 0.38796 0.0
H217 H 0.59527 0.23775 0.21884 0.0
H218 H 0.41203 0.58604 0.29599 0.0
H219 H 0.42128 0.59703 0.36309 0.0
H220 H 0.3984 0.53707 0.39969 0.0
H221 H 0.38814 0.52598 0.33284 0.0
H222 H 0.39233 0.5559 0.45425 0.0
H223 H 0.44862 0.56915 0.37645 0.0
H224 H 0.47137 0.58329 0.32106 0.0
H225 H 0.48523 0.64112 0.35597 0.0
H226 H 0.46237 0.62729 0.41132 0.0
H227 H 0.44863 0.56681 0.61919 0.0
H228 H 0.43557 0.56018 0.55337 0.0
H229 H 0.45639 0.62171 0.53604 0.0
H230 H 0.46996 0.62861 0.60222 0.0
H231 H 0.46266 0.60488 0.47264 0.0
H232 H 0.40807 0.59009 0.55628 0.0
H233 H 0.38631 0.57445 0.61249 0.0
H234 H 0.37021 0.51761 0.56714 0.0
H235 H 0.39207 0.53291 0.51091 0.0
C236 C 0.4086 0.5752 0.31858 0.0
C237 C 0.39953 0.5552 0.30935 0.0
C238 C 0.41403 0.58149 0.35682 0.0
C239 C 0.41112 0.56794 0.38625 0.0
C240 C 0.40093 0.54783 0.37744 0.0
C241 C 0.39504 0.54149 0.33929 0.0
C242 C 0.41973 0.57471 0.4255 0.0
C243 C 0.40773 0.56651 0.45823 0.0
C244 C 0.43979 0.58885 0.43081 0.0
C245 C 0.45365 0.59718 0.39776 0.0
C246 C 0.45644 0.58487 0.37217 0.0
C247 C 0.46936 0.59283 0.3408 0.0
C248 C 0.4797 0.61309 0.33494 0.0
C249 C 0.47719 0.62543 0.36051 0.0
C250 C 0.46427 0.61755 0.39189 0.0
C251 C 0.45053 0.579 0.60142 0.0
C252 C 0.46014 0.59823 0.61608 0.0
C253 C 0.44296 0.57514 0.56383 0.0
C254 C 0.44455 0.59037 0.54022 0.0
C255 C 0.45485 0.60973 0.55402 0.0
C256 C 0.46263 0.61365 0.59173 0.0
C257 C 0.43531 0.58586 0.50123 0.0
C258 C 0.44721 0.59447 0.46859 0.0
C259 C 0.41524 0.57189 0.49602 0.0
C260 C 0.40179 0.56266 0.52947 0.0
C261 C 0.39996 0.57426 0.55838 0.0
C262 C 0.3876 0.56545 0.59024 0.0
C263 C 0.3769 0.54505 0.59341 0.0
C264 C 0.3785 0.53341 0.56465 0.0
C265 C 0.39085 0.54214 0.53274 0.0
H266 H 0.36736 0.53827 0.61812 0.0
H267 H 0.48968 0.61922 0.31063 0.0
H268 H 0.87096 0.43319 0.7999 0.0
H269 H 0.86577 0.42146 0.73344 0.0
H270 H 0.8509 0.46519 0.70013 0.0
H271 H 0.85588 0.47713 0.7675 0.0
H272 H 0.82583 0.42805 0.66837 0.0
H273 H 0.89449 0.47305 0.67709 0.0
H274 H 0.92752 0.48799 0.70583 0.0
H275 H 0.92733 0.43372 0.69275 0.0
H276 H 0.89416 0.41837 0.66435 0.0
H277 H 0.84135 0.42286 0.4658 0.0
H278 H 0.84021 0.43155 0.53325 0.0
H279 H 0.85671 0.3896 0.57106 0.0
H280 H 0.85809 0.38085 0.50317 0.0
H281 H 0.8805 0.42641 0.60024 0.0
H282 H 0.81143 0.38179 0.58962 0.0
H283 H 0.77868 0.36778 0.55991 0.0
H284 H 0.78002 0.42251 0.57496 0.0
H285 H 0.81292 0.43695 0.60428 0.0
C286 C 0.86658 0.44042 0.77868 0.0
C287 C 0.86401 0.45627 0.78909 0.0
C288 C 0.86364 0.43366 0.7406 0.0
C289 C 0.85822 0.44263 0.7119 0.0
C290 C 0.85517 0.45816 0.72203 0.0
C291 C 0.85811 0.465 0.7604 0.0
C292 C 0.85615 0.43578 0.67131 0.0
C293 C 0.83783 0.42795 0.65312 0.0
C294 C 0.87175 0.43532 0.652 0.0
C295 C 0.89176 0.44452 0.66888 0.0
C296 C 0.90142 0.46426 0.68061 0.0
C297 C 0.92018 0.4728 0.6968 0.0
C298 C 0.9295 0.46179 0.70121 0.0
C299 C 0.92009 0.44222 0.68934 0.0
C300 C 0.90132 0.4336 0.67314 0.0
C301 C 0.84447 0.41524 0.48843 0.0
C302 C 0.85002 0.4013 0.47915 0.0
C303 C 0.84367 0.42015 0.527 0.0
C304 C 0.84833 0.41119 0.55706 0.0
C305 C 0.85305 0.39665 0.54812 0.0
C306 C 0.85375 0.39162 0.50941 0.0
C307 C 0.8501 0.41842 0.59733 0.0
C308 C 0.86845 0.42643 0.61543 0.0
C309 C 0.83457 0.41919 0.6163 0.0
C310 C 0.81473 0.4105 0.59885 0.0
C311 C 0.80482 0.39089 0.58632 0.0
C312 C 0.78621 0.38286 0.5696 0.0
C313 C 0.77729 0.39426 0.56547 0.0
C314 C 0.78695 0.4137 0.57815 0.0
C315 C 0.80557 0.42181 0.59486 0.0
H316 H 0.76289 0.38802 0.55251 0.0
H317 H 0.94403 0.46843 0.71373 0.0
H318 H 0.47928 0.8582 0.67318 0.0
H319 H 0.46757 0.85429 0.7403 0.0
H320 H 0.40794 0.82738 0.69903 0.0
H321 H 0.41958 0.83173 0.63208 0.0
H322 H 0.41559 0.85672 0.74479 0.0
H323 H 0.42492 0.8014 0.75194 0.0
H324 H 0.44279 0.78334 0.74476 0.0
H325 H 0.48626 0.82218 0.82602 0.0
H326 H 0.4688 0.84066 0.83328 0.0
H327 H 0.37843 0.84509 0.9382 0.0
H328 H 0.38438 0.83728 0.87244 0.0
H329 H 0.4463 0.86539 0.89673 0.0
H330 H 0.44057 0.87301 0.9622 0.0
H331 H 0.43397 0.83123 0.85951 0.0
H332 H 0.42726 0.88872 0.84521 0.0
H333 H 0.4103 0.90774 0.85149 0.0
H334 H 0.36253 0.86508 0.78258 0.0
H335 H 0.37911 0.84568 0.77632 0.0
C336 C 0.46366 0.85104 0.67853 0.0
C337 C 0.45035 0.84552 0.6475 0.0
C338 C 0.45697 0.84874 0.71687 0.0
C339 C 0.43687 0.84055 0.72463 0.0
C340 C 0.42351 0.83385 0.69367 0.0
C341 C 0.43019 0.83636 0.65547 0.0
C342 C 0.42995 0.84106 0.76439 0.0
C343 C 0.41924 0.85073 0.76976 0.0
C344 C 0.43512 0.83368 0.79703 0.0
C345 C 0.4456 0.82251 0.79295 0.0
C346 C 0.43836 0.80618 0.76808 0.0
C347 C 0.44841 0.79585 0.76403 0.0
C348 C 0.46567 0.80163 0.78487 0.0
C349 C 0.47289 0.81772 0.80989 0.0
C350 C 0.46291 0.82812 0.81403 0.0
C351 C 0.39331 0.84965 0.92948 0.0
C352 C 0.40902 0.85974 0.95545 0.0
C353 C 0.39667 0.84514 0.89197 0.0
C354 C 0.41579 0.85081 0.87978 0.0
C355 C 0.43143 0.86077 0.90567 0.0
C356 C 0.4281 0.86521 0.94307 0.0
C357 C 0.41981 0.84702 0.8397 0.0
C358 C 0.43003 0.83684 0.83434 0.0
C359 C 0.41426 0.85397 0.80697 0.0
C360 C 0.4043 0.86563 0.81071 0.0
C361 C 0.41306 0.88332 0.83168 0.0
C362 C 0.40353 0.89418 0.83518 0.0
C363 C 0.38532 0.88759 0.81756 0.0
C364 C 0.37662 0.87015 0.79629 0.0
C365 C 0.38608 0.85922 0.79275 0.0
H366 H 0.37797 0.89602 0.82029 0.0
H367 H 0.47343 0.79361 0.78168 0.0
H368 H 0.56946 0.43974 0.12165 0.0
H369 H 0.57997 0.44542 0.05412 0.0
H370 H 0.55447 0.38322 0.03617 0.0
H371 H 0.5436 0.37728 0.10448 0.0
H372 H 0.59455 0.40777 0.00787 0.0
H373 H 0.53159 0.40167 -0.00318 0.0
H374 H 0.50449 0.40732 0.01427 0.0
H375 H 0.54108 0.46878 0.99145 0.0
H376 H 0.56853 0.46356 0.97447 0.0
H377 H 0.59735 0.42222 0.79745 0.0
H378 H 0.58916 0.41082 0.86472 0.0
H379 H 0.61701 0.47068 0.90436 0.0
H380 H 0.62577 0.48223 0.83705 0.0
H381 H 0.57367 0.44371 0.9194 0.0
H382 H 0.63732 0.45051 0.94006 0.0
H383 H 0.6654 0.44565 0.92761 0.0
H384 H 0.62742 0.38328 0.93198 0.0
H385 H 0.59912 0.3878 0.94503 0.0
C386 C 0.56605 0.42721 0.10346 0.0
C387 C 0.55575 0.40805 0.11835 0.0
C388 C 0.57199 0.4305 0.06484 0.0
C389 C 0.56788 0.41474 0.0403 0.0
C390 C 0.55769 0.39553 0.05485 0.0
C391 C 0.55144 0.39218 0.09366 0.0
C392 C 0.57473 0.41883 -0.00032 0.0
C393 C 0.58968 0.4152 0.98809 0.0
C394 C 0.56867 0.42898 0.97452 0.0
C395 C 0.55218 0.43223 0.98465 0.0
C396 C 0.53393 0.41642 -0.00415 0.0
C397 C 0.51848 0.41954 0.0056 0.0
C398 C 0.52107 0.4384 0.00405 0.0
C399 C 0.5391 0.45418 0.99267 0.0
C400 C 0.55461 0.45114 0.98293 0.0
C401 C 0.6022 0.43294 0.82065 0.0
C402 C 0.61203 0.45308 0.81222 0.0
C403 C 0.59759 0.42641 0.85896 0.0
C404 C 0.60246 0.43994 0.88923 0.0
C405 C 0.61325 0.46008 0.88119 0.0
C406 C 0.61826 0.46664 0.84288 0.0
C407 C 0.59375 0.43302 0.92798 0.0
C408 C 0.57836 0.43605 0.93901 0.0
C409 C 0.59937 0.42232 0.9525 0.0
C410 C 0.6161 0.41949 0.94296 0.0
C411 C 0.63493 0.43576 0.9379 0.0
C412 C 0.6509 0.43307 0.931 0.0
C413 C 0.64818 0.41417 0.92874 0.0
C414 C 0.62949 0.39791 0.93362 0.0
C415 C 0.6135 0.40053 0.94095 0.0
H416 H 0.66057 0.41213 0.9233 0.0
H417 H 0.5091 0.44079 0.01159 0.0
H418 H 0.16853 0.58688 0.3063 0.0
H419 H 0.17462 0.59932 0.24002 0.0
H420 H 0.16238 0.54285 0.19752 0.0
H421 H 0.15617 0.53007 0.26428 0.0
H422 H 0.19413 0.57654 0.15798 0.0
H423 H 0.12666 0.55062 0.19651 0.0
H424 H 0.10033 0.54738 0.24 0.0
H425 H 0.12032 0.60873 0.2271 0.0
H426 H 0.14698 0.61238 0.18399 0.0
H427 H 0.16039 0.57482 0.96811 0.0
H428 H 0.16634 0.56971 0.03514 0.0
H429 H 0.16928 0.62393 0.0681 0.0
H430 H 0.16294 0.62911 0.00058 0.0
H431 H 0.14504 0.59438 0.11409 0.0
H432 H 0.21039 0.61972 0.06934 0.0
H433 H 0.23669 0.62299 0.02577 0.0
H434 H 0.22123 0.56348 0.04954 0.0
H435 H 0.19463 0.55974 0.09284 0.0
C436 C 0.16735 0.57709 0.28303 0.0
C437 C 0.16145 0.55733 0.29046 0.0
C438 C 0.17093 0.58429 0.24519 0.0
C439 C 0.16864 0.5719 0.21405 0.0
C440 C 0.16416 0.55258 0.22138 0.0
C441 C 0.16057 0.5453 0.25944 0.0
C442 C 0.16885 0.57863 0.17393 0.0
C443 C 0.18334 0.58029 0.1481 0.0
C444 C 0.15505 0.58402 0.16173 0.0
C445 C 0.13894 0.58182 0.1874 0.0
C446 C 0.12554 0.56345 0.20322 0.0
C447 C 0.11054 0.56154 0.22775 0.0
C448 C 0.10869 0.57785 0.2364 0.0
C449 C 0.1218 0.59611 0.22043 0.0
C450 C 0.13685 0.59811 0.19594 0.0
C451 C 0.16246 0.58582 0.98938 0.0
C452 C 0.16103 0.60233 0.97894 0.0
C453 C 0.16605 0.58293 0.02774 0.0
C454 C 0.1685 0.59655 0.05648 0.0
C455 C 0.16753 0.61329 0.04619 0.0
C456 C 0.1639 0.61622 0.00765 0.0
C457 C 0.1703 0.59224 0.09765 0.0
C458 C 0.15607 0.59093 0.12385 0.0
C459 C 0.18436 0.58722 0.11006 0.0
C460 C 0.20041 0.58941 0.08416 0.0
C461 C 0.2125 0.60728 0.06507 0.0
C462 C 0.22748 0.60923 0.04045 0.0
C463 C 0.23061 0.59345 0.03484 0.0
C464 C 0.21878 0.57569 0.05391 0.0
C465 C 0.20377 0.57366 0.07854 0.0
H466 H 0.24222 0.59499 0.01576 0.0
H467 H 0.09706 0.57634 0.25539 0.0
H468 H 0.54603 0.33751 0.19743 0.0
H469 H 0.54281 0.30723 0.1719 0.0
H470 H 0.48117 0.28465 0.15234 0.0
H471 H 0.48432 0.31536 0.17767 0.0
H472 H 0.49224 0.25743 0.18957 0.0
H473 H 0.50718 0.29886 0.07735 0.0
H474 H 0.52581 0.32987 0.04128 0.0
H475 H 0.57826 0.32648 0.05323 0.0
H476 H 0.56001 0.29561 0.09002 0.0
H477 H 0.48594 0.17642 0.08366 0.0
H478 H 0.48263 0.20427 0.10486 0.0
H479 H 0.54544 0.24155 0.1004 0.0
H480 H 0.54871 0.21397 0.07767 0.0
H481 H 0.53009 0.26063 0.07177 0.0
H482 H 0.51791 0.22258 0.18843 0.0
H483 H 0.50151 0.19299 0.22945 0.0
H484 H 0.4465 0.19103 0.21383 0.0
H485 H 0.46255 0.22049 0.1723 0.0
C486 C 0.53172 0.32614 0.18788 0.0
C487 C 0.51542 0.3289 0.18954 0.0
C488 C 0.52993 0.30882 0.1732 0.0
C489 C 0.51179 0.29373 0.16002 0.0
C490 C 0.49532 0.29615 0.16237 0.0
C491 C 0.49715 0.31369 0.1767 0.0
C492 C 0.51049 0.27574 0.14313 0.0
C493 C 0.50015 0.25796 0.16335 0.0
C494 C 0.5213 0.27663 0.10959 0.0
C495 C 0.53224 0.29497 0.08669 0.0
C496 C 0.52271 0.30478 0.07251 0.0
C497 C 0.5332 0.32234 0.05192 0.0
C498 C 0.55321 0.33016 0.04502 0.0
C499 C 0.56275 0.3204 0.05861 0.0
C500 C 0.55234 0.30287 0.0793 0.0
C501 C 0.49904 0.19056 0.08727 0.0
C502 C 0.5176 0.19297 0.07903 0.0
C503 C 0.49714 0.20649 0.0996 0.0
C504 C 0.5138 0.22509 0.10483 0.0
C505 C 0.53233 0.22745 0.09656 0.0
C506 C 0.5342 0.21162 0.08367 0.0
C507 C 0.51207 0.24218 0.11852 0.0
C508 C 0.52191 0.25988 0.09771 0.0
C509 C 0.50104 0.24127 0.1519 0.0
C510 C 0.49138 0.2236 0.17691 0.0
C511 C 0.50229 0.21575 0.19351 0.0
C512 C 0.49306 0.19902 0.21689 0.0
C513 C 0.47297 0.1901 0.22414 0.0
C514 C 0.46206 0.19793 0.20812 0.0
C515 C 0.47121 0.21465 0.18469 0.0
H516 H 0.46585 0.17715 0.24224 0.0
H517 H 0.56131 0.34376 0.02912 0.0
H518 H 0.31719 0.52238 0.19001 0.0
H519 H 0.28638 0.51808 0.21549 0.0
H520 H 0.29061 0.48625 0.31368 0.0
H521 H 0.321 0.48955 0.28674 0.0
H522 H 0.25382 0.47166 0.29706 0.0
H523 H 0.30658 0.53699 0.31732 0.0
H524 H 0.33475 0.56888 0.29856 0.0
H525 H 0.29792 0.57933 0.22186 0.0
H526 H 0.26957 0.54737 0.2398 0.0
H527 H 0.20988 0.53083 0.39916 0.0
H528 H 0.2369 0.5269 0.37586 0.0
H529 H 0.19729 0.48019 0.29997 0.0
H530 H 0.16993 0.48372 0.32424 0.0
H531 H 0.25214 0.53353 0.30859 0.0
H532 H 0.21596 0.44991 0.27933 0.0
H533 H 0.18992 0.41879 0.30687 0.0
H534 H 0.19685 0.44641 0.41793 0.0
H535 H 0.22309 0.4776 0.39122 0.0
C536 C 0.31136 0.51417 0.2167 0.0
C537 C 0.32155 0.50644 0.2366 0.0
C538 C 0.2938 0.51182 0.23142 0.0
C539 C 0.28639 0.50237 0.26723 0.0
C540 C 0.29603 0.49372 0.28615 0.0
C541 C 0.3134 0.49561 0.27079 0.0
C542 C 0.26944 0.50271 0.28588 0.0
C543 C 0.25344 0.48518 0.29952 0.0
C544 C 0.26903 0.5204 0.29018 0.0
C545 C 0.286 0.53973 0.27966 0.0
C546 C 0.30452 0.54605 0.29631 0.0
C547 C 0.32051 0.56414 0.28583 0.0
C548 C 0.31813 0.57611 0.25898 0.0
C549 C 0.29974 0.57004 0.24263 0.0
C550 C 0.2837 0.55195 0.25297 0.0
C551 C 0.20683 0.51953 0.37785 0.0
C552 C 0.18774 0.50762 0.36347 0.0
C553 C 0.22234 0.51734 0.36443 0.0
C554 C 0.21926 0.50326 0.33606 0.0
C555 C 0.20009 0.49099 0.32224 0.0
C556 C 0.18445 0.49305 0.33604 0.0
C557 C 0.23636 0.50244 0.31949 0.0
C558 C 0.25243 0.51995 0.30613 0.0
C559 C 0.23705 0.48485 0.31676 0.0
C560 C 0.22133 0.46614 0.33311 0.0
C561 C 0.21195 0.44932 0.30965 0.0
C562 C 0.19716 0.43168 0.32511 0.0
C563 C 0.19168 0.43065 0.36408 0.0
C564 C 0.20104 0.44725 0.38771 0.0
C565 C 0.21585 0.46492 0.3724 0.0
H566 H 0.18023 0.41698 0.37599 0.0
H567 H 0.33054 0.5901 0.25088 0.0
H568 H 0.6966 0.16878 0.52548 0.0
H569 H 0.72823 0.19448 0.4991 0.0
H570 H 0.70482 0.23335 0.48831 0.0
H571 H 0.6737 0.20823 0.51538 0.0
H572 H 0.72524 0.22915 0.41903 0.0
H573 H 0.73166 0.24152 0.55925 0.0
H574 H 0.73245 0.23212 0.62737 0.0
H575 H 0.77951 0.22152 0.60011 0.0
H576 H 0.77879 0.2306 0.53163 0.0
H577 H 0.79331 0.32733 0.39705 0.0
H578 H 0.7677 0.29537 0.4188 0.0
H579 H 0.81103 0.27902 0.44614 0.0
H580 H 0.83711 0.31156 0.42496 0.0
H581 H 0.78378 0.26686 0.5024 0.0
H582 H 0.78184 0.25988 0.36572 0.0
H583 H 0.78159 0.26871 0.297 0.0
H584 H 0.727 0.26732 0.31475 0.0
H585 H 0.72705 0.25878 0.38374 0.0
C586 C 0.69827 0.18281 0.51742 0.0
C587 C 0.68271 0.18652 0.52262 0.0
C588 C 0.7163 0.19746 0.50247 0.0
C589 C 0.71882 0.2158 0.49178 0.0
C590 C 0.70318 0.21931 0.49634 0.0
C591 C 0.68542 0.20494 0.51196 0.0
C592 C 0.73763 0.23162 0.47588 0.0
C593 C 0.73807 0.23741 0.43716 0.0
C594 C 0.75458 0.24191 0.49918 0.0
C595 C 0.75497 0.23644 0.54025 0.0
C596 C 0.74202 0.23697 0.56769 0.0
C597 C 0.74249 0.23175 0.60638 0.0
C598 C 0.75597 0.22615 0.61803 0.0
C599 C 0.76904 0.22581 0.59103 0.0
C600 C 0.76861 0.23099 0.55228 0.0
C601 C 0.7975 0.31699 0.40754 0.0
C602 C 0.8173 0.32199 0.40896 0.0
C603 C 0.78276 0.2986 0.41983 0.0
C604 C 0.78733 0.28455 0.43337 0.0
C605 C 0.80712 0.28955 0.43552 0.0
C606 C 0.822 0.30812 0.42333 0.0
C607 C 0.7712 0.26491 0.44574 0.0
C608 C 0.7712 0.25838 0.48379 0.0
C609 C 0.7547 0.25373 0.42159 0.0
C610 C 0.7545 0.25877 0.38001 0.0
C611 C 0.76984 0.26158 0.35505 0.0
C612 C 0.76972 0.26652 0.31603 0.0
C613 C 0.7543 0.2686 0.30153 0.0
C614 C 0.73893 0.2657 0.32602 0.0
C615 C 0.73898 0.26078 0.36508 0.0
H616 H 0.75424 0.27243 0.27132 0.0
H617 H 0.75632 0.22213 0.64801 0.0
H618 H 0.52768 0.8336 0.58157 0.0
H619 H 0.53169 0.80646 0.60655 0.0
H620 H 0.46921 0.76782 0.60047 0.0
H621 H 0.46516 0.79442 0.57488 0.0
H622 H 0.4877 0.76783 0.67412 0.0
H623 H 0.49392 0.76291 0.53428 0.0
H624 H 0.50926 0.77556 0.47036 0.0
H625 H 0.56437 0.78525 0.51451 0.0
H626 H 0.5494 0.7729 0.57891 0.0
H627 H 0.46482 0.67032 0.69326 0.0
H628 H 0.46869 0.70152 0.67163 0.0
H629 H 0.53075 0.72449 0.65687 0.0
H630 H 0.52683 0.69292 0.67759 0.0
H631 H 0.5177 0.736 0.59836 0.0
H632 H 0.51196 0.73797 0.7352 0.0
H633 H 0.49822 0.72665 0.80072 0.0
H634 H 0.44494 0.72475 0.76618 0.0
H635 H 0.45823 0.73576 0.70024 0.0
C636 C 0.51486 0.81929 0.58542 0.0
C637 C 0.49612 0.81616 0.57608 0.0
C638 C 0.51715 0.80381 0.59963 0.0
C639 C 0.50072 0.78512 0.60539 0.0
C640 C 0.48208 0.7821 0.59632 0.0
C641 C 0.47982 0.79735 0.5815 0.0
C642 C 0.50256 0.76854 0.62121 0.0
C643 C 0.49418 0.76079 0.65755 0.0
C644 C 0.51164 0.75981 0.60018 0.0
C645 C 0.52061 0.76724 0.56153 0.0
C646 C 0.50936 0.76794 0.53048 0.0
C647 C 0.51797 0.77501 0.49413 0.0
C648 C 0.5378 0.78128 0.48841 0.0
C649 C 0.54903 0.78043 0.51901 0.0
C650 C 0.54049 0.7734 0.55543 0.0
C651 C 0.47932 0.68199 0.68548 0.0
C652 C 0.49553 0.67913 0.6874 0.0
C653 C 0.48154 0.69992 0.67329 0.0
C654 C 0.50009 0.71561 0.66329 0.0
C655 C 0.5163 0.7127 0.66459 0.0
C656 C 0.51405 0.69465 0.67653 0.0
C657 C 0.50231 0.73483 0.65105 0.0
C658 C 0.51146 0.74313 0.61539 0.0
C659 C 0.49419 0.74428 0.67303 0.0
C660 C 0.48605 0.73754 0.71263 0.0
C661 C 0.49725 0.73498 0.74146 0.0
C662 C 0.48955 0.72864 0.7787 0.0
C663 C 0.4707 0.72494 0.78758 0.0
C664 C 0.45953 0.7276 0.75925 0.0
C665 C 0.46715 0.73391 0.72194 0.0
H666 H 0.46477 0.72004 0.81644 0.0
H667 H 0.54444 0.78673 0.46025 0.0
H668 H 0.68235 0.46811 0.7133 0.0
H669 H 0.71288 0.47153 0.73805 0.0
H670 H 0.72905 0.52852 0.784 0.0
H671 H 0.69829 0.52524 0.75901 0.0
H672 H 0.76093 0.52481 0.74648 0.0
H673 H 0.70993 0.49271 0.84397 0.0
H674 H 0.67627 0.46743 0.86151 0.0
H675 H 0.68855 0.4223 0.82716 0.0
H676 H 0.72214 0.44731 0.80859 0.0
H677 H 0.837 0.52602 0.86197 0.0
H678 H 0.80942 0.52925 0.83821 0.0
H679 H 0.77603 0.46675 0.81946 0.0
H680 H 0.80301 0.46344 0.84543 0.0
H681 H 0.75288 0.47614 0.84701 0.0
H682 H 0.79975 0.50372 0.74359 0.0
H683 H 0.83162 0.52593 0.713 0.0
H684 H 0.82659 0.57563 0.74716 0.0
H685 H 0.79478 0.55371 0.77839 0.0
C686 C 0.69244 0.4815 0.72831 0.0
C687 C 0.68778 0.49634 0.73449 0.0
C688 C 0.70991 0.48342 0.74241 0.0
C689 C 0.72313 0.50018 0.76322 0.0
C690 C 0.71902 0.51546 0.76803 0.0
C691 C 0.70143 0.51354 0.75387 0.0
C692 C 0.74044 0.50087 0.7821 0.0
C693 C 0.75929 0.51445 0.769 0.0
C694 C 0.73818 0.48692 0.81055 0.0
C695 C 0.71851 0.4719 0.82464 0.0
C696 C 0.70545 0.47739 0.84017 0.0
C697 C 0.68637 0.46312 0.85019 0.0
C698 C 0.68026 0.44328 0.84522 0.0
C699 C 0.6933 0.43767 0.83085 0.0
C700 C 0.71236 0.45189 0.82062 0.0
C701 C 0.82374 0.51301 0.85276 0.0
C702 C 0.82215 0.49449 0.85559 0.0
C703 C 0.808 0.51486 0.8389 0.0
C704 C 0.79058 0.49828 0.82637 0.0
C705 C 0.78915 0.4798 0.82905 0.0
C706 C 0.80465 0.47791 0.84381 0.0
C707 C 0.77368 0.4999 0.81097 0.0
C708 C 0.75477 0.48675 0.82485 0.0
C709 C 0.77589 0.51388 0.78236 0.0
C710 C 0.79502 0.52709 0.76373 0.0
C711 C 0.80552 0.5194 0.74484 0.0
C712 C 0.82355 0.53193 0.72735 0.0
C713 C 0.83115 0.55218 0.72825 0.0
C714 C 0.8207 0.55994 0.74657 0.0
C715 C 0.80267 0.54747 0.76415 0.0
H716 H 0.84511 0.56186 0.71468 0.0
H717 H 0.66541 0.43225 0.85238 0.0
H718 H 0.17594 0.69241 0.92258 0.0
H719 H 0.20278 0.72323 0.9489 0.0
H720 H 0.24336 0.70263 0.92786 0.0
H721 H 0.21692 0.67216 0.90135 0.0
H722 H 0.2458 0.71764 0.00333 0.0
H723 H 0.24312 0.73527 0.8686 0.0
H724 H 0.22667 0.73961 0.81157 0.0
H725 H 0.2154 0.77952 0.87628 0.0
H726 H 0.23156 0.7752 0.93388 0.0
H727 H 0.34064 0.79704 0.02157 0.0
H728 H 0.31011 0.76915 -0.00101 0.0
H729 H 0.28208 0.80419 0.00317 0.0
H730 H 0.31308 0.83255 0.02405 0.0
H731 H 0.26989 0.78272 0.94205 0.0
H732 H 0.27414 0.76822 0.07452 0.0
H733 H 0.28923 0.7641 0.13396 0.0
H734 H 0.29519 0.7185 0.07876 0.0
H735 H 0.28038 0.72252 0.01878 0.0
C736 C 0.19061 0.69454 0.9234 0.0
C737 C 0.1943 0.67985 0.9098 0.0
C738 C 0.20592 0.71214 0.93838 0.0
C739 C 0.22507 0.71521 0.94032 0.0
C740 C 0.2287 0.70056 0.92673 0.0
C741 C 0.21355 0.68316 0.91142 0.0
C742 C 0.24148 0.73344 0.95701 0.0
C743 C 0.25117 0.73187 0.98984 0.0
C744 C 0.24797 0.7521 0.94032 0.0
C745 C 0.23833 0.75473 0.90566 0.0
C746 C 0.23697 0.74483 0.87077 0.0
C747 C 0.22774 0.74732 0.83832 0.0
C748 C 0.21994 0.75978 0.84033 0.0
C749 C 0.22141 0.76984 0.87478 0.0
C750 C 0.23061 0.76738 0.90732 0.0
C751 C 0.32797 0.79882 0.01777 0.0
C752 C 0.32922 0.81695 0.02491 0.0
C753 C 0.31043 0.78279 0.00506 0.0
C754 C 0.29353 0.78431 0.00026 0.0
C755 C 0.29483 0.80254 0.00684 0.0
C756 C 0.31254 0.81874 0.01887 0.0
C757 C 0.27469 0.7669 0.98793 0.0
C758 C 0.26446 0.76859 0.956 0.0
C759 C 0.26744 0.74834 0.00592 0.0
C760 C 0.27626 0.74578 0.04204 0.0
C761 C 0.27878 0.75739 0.07497 0.0
C762 C 0.28727 0.75506 0.10877 0.0
C763 C 0.2932 0.74107 0.11011 0.0
C764 C 0.2906 0.72934 0.07768 0.0
C765 C 0.28213 0.73162 0.04378 0.0
H766 H 0.29978 0.7393 0.1363 0.0
H767 H 0.2128 0.76169 0.81518 0.0
H768 H 0.62436 0.13255 0.68936 0.0
H769 H 0.60804 0.13151 0.75124 0.0
H770 H 0.59498 0.175 0.7074 0.0
H771 H 0.61055 0.17558 0.64555 0.0
H772 H 0.60977 0.18056 0.78812 0.0
H773 H 0.56083 0.13375 0.70087 0.0
H774 H 0.54765 0.10574 0.65568 0.0
H775 H 0.54788 0.06869 0.74705 0.0
H776 H 0.56147 0.09663 0.79263 0.0
H777 H 0.53274 0.16945 0.91466 0.0
H778 H 0.54805 0.16908 0.85245 0.0
H779 H 0.5621 0.12684 0.89936 0.0
H780 H 0.54766 0.12773 0.96147 0.0
H781 H 0.54674 0.12025 0.81726 0.0
H782 H 0.5964 0.16687 0.90379 0.0
H783 H 0.61072 0.19494 0.94883 0.0
H784 H 0.60964 0.2322 0.85885 0.0
H785 H 0.59498 0.20421 0.81342 0.0
C786 C 0.61827 0.14207 0.69336 0.0
C787 C 0.61862 0.15412 0.66295 0.0
C788 C 0.60892 0.14143 0.72847 0.0
C789 C 0.60031 0.15316 0.73363 0.0
C790 C 0.60158 0.16589 0.70391 0.0
C791 C 0.61042 0.16615 0.66866 0.0
C792 C 0.58888 0.15144 0.76896 0.0
C793 C 0.59592 0.16745 0.79435 0.0
C794 C 0.57092 0.13425 0.77709 0.0
C795 C 0.56242 0.11734 0.75001 0.0
C796 C 0.55826 0.11968 0.71123 0.0
C797 C 0.55069 0.10381 0.68556 0.0
C798 C 0.547 0.08547 0.69844 0.0
C799 C 0.5508 0.08293 0.73709 0.0
C800 C 0.55844 0.09878 0.76286 0.0
C801 C 0.53877 0.15984 0.91132 0.0
C802 C 0.53908 0.14867 0.94283 0.0
C803 C 0.54753 0.15967 0.87595 0.0
C804 C 0.5562 0.14795 0.87154 0.0
C805 C 0.55542 0.13592 0.90223 0.0
C806 C 0.54721 0.1365 0.93775 0.0
C807 C 0.56761 0.14942 0.83632 0.0
C808 C 0.56057 0.13336 0.81098 0.0
C809 C 0.5856 0.16656 0.82822 0.0
C810 C 0.59432 0.18339 0.85541 0.0
C811 C 0.59898 0.18099 0.89376 0.0
C812 C 0.60721 0.1969 0.91932 0.0
C813 C 0.61101 0.21533 0.90676 0.0
C814 C 0.60663 0.2179 0.86857 0.0
C815 C 0.59836 0.20202 0.8429 0.0
H816 H 0.61742 0.22764 0.92658 0.0
H817 H 0.54115 0.0732 0.67851 0.0
H818 H 0.48027 0.63879 0.85228 0.0
H819 H 0.46472 0.62323 0.91415 0.0
H820 H 0.44263 0.56623 0.86179 0.0
H821 H 0.45699 0.58164 0.79998 0.0
H822 H 0.41496 0.56565 0.89948 0.0
H823 H 0.48261 0.58812 0.93126 0.0
H824 H 0.51765 0.61263 0.93828 0.0
H825 H 0.50333 0.64529 0.01855 0.0
H826 H 0.46818 0.6211 0.01166 0.0
H827 H 0.38073 0.51122 0.07742 0.0
H828 H 0.39782 0.52541 0.01578 0.0
H829 H 0.42006 0.58351 0.06285 0.0
H830 H 0.40394 0.56946 0.12441 0.0
H831 H 0.44806 0.58258 0.02776 0.0
H832 H 0.38041 0.56068 -0.00603 0.0
H833 H 0.34536 0.53619 0.98684 0.0
H834 H 0.3599 0.50234 0.91021 0.0
H835 H 0.39505 0.52653 0.91724 0.0
C836 C 0.47227 0.62295 0.85428 0.0
C837 C 0.46983 0.61144 0.82133 0.0
C838 C 0.46344 0.61404 0.88965 0.0
C839 C 0.45258 0.59347 0.89289 0.0
C840 C 0.45077 0.58208 0.86015 0.0
C841 C 0.45911 0.59094 0.82476 0.0
C842 C 0.44225 0.58363 0.92955 0.0
C843 C 0.42233 0.56919 0.92744 0.0
C844 C 0.45162 0.58844 0.96628 0.0
C845 C 0.47276 0.60288 0.97069 0.0
C846 C 0.48693 0.60059 0.95024 0.0
C847 C 0.50681 0.61441 0.95422 0.0
C848 C 0.51271 0.63053 0.97878 0.0
C849 C 0.49874 0.63281 -0.00049 0.0
C850 C 0.47885 0.61904 -0.00438 0.0
C851 C 0.38917 0.527 0.0743 0.0
C852 C 0.39104 0.53924 0.10558 0.0
C853 C 0.3989 0.53512 0.03912 0.0
C854 C 0.41016 0.5556 0.03446 0.0
C855 C 0.41163 0.56771 0.06565 0.0
C856 C 0.40231 0.55964 0.10082 0.0
C857 C 0.4208 0.56469 -0.00236 0.0
C858 C 0.44076 0.57899 -0.00027 0.0
C859 C 0.41149 0.55975 0.96088 0.0
C860 C 0.39035 0.54531 0.95643 0.0
C861 C 0.37613 0.54796 0.97578 0.0
C862 C 0.35625 0.53414 0.97173 0.0
C863 C 0.35041 0.51769 0.94816 0.0
C864 C 0.36444 0.51507 0.92849 0.0
C865 C 0.38434 0.52884 0.93247 0.0
H866 H 0.33502 0.507 0.94509 0.0
H867 H 0.52811 0.64122 0.98179 0.0
H868 H 0.87495 0.45127 0.9686 0.0
H869 H 0.87532 0.43659 0.0303 0.0
H870 H 0.8532 0.47022 0.08785 0.0
H871 H 0.85339 0.48568 0.02544 0.0
H872 H 0.88094 0.46749 0.13154 0.0
H873 H 0.82224 0.42288 0.06261 0.0
H874 H 0.8032 0.40332 0.00618 0.0
H875 H 0.83403 0.37126 0.0088 0.0
H876 H 0.85345 0.39082 0.06494 0.0
H877 H 0.84431 0.40975 0.29844 0.0
H878 H 0.84749 0.42631 0.23704 0.0
H879 H 0.86867 0.39118 0.18233 0.0
H880 H 0.86508 0.37403 0.24435 0.0
H881 H 0.84247 0.39484 0.13694 0.0
H882 H 0.90028 0.43848 0.20766 0.0
H883 H 0.91899 0.45769 0.26466 0.0
H884 H 0.88998 0.49147 0.25907 0.0
H885 H 0.87083 0.47222 0.20243 0.0
C886 C 0.87036 0.4558 -0.0057 0.0
C887 C 0.86396 0.46953 0.99208 0.0
C888 C 0.8705 0.44728 0.02961 0.0
C889 C 0.86383 0.45193 0.06346 0.0
C890 C 0.85826 0.46632 0.0619 0.0
C891 C 0.85836 0.47512 0.02634 0.0
C892 C 0.86205 0.44111 0.09988 0.0
C893 C 0.87232 0.45163 0.13294 0.0
C894 C 0.85124 0.42036 0.10127 0.0
C895 C 0.83941 0.40842 0.06779 0.0
C896 C 0.82504 0.41174 0.05101 0.0
C897 C 0.81417 0.40064 0.01909 0.0
C898 C 0.81743 0.38608 0.00387 0.0
C899 C 0.83153 0.38255 0.0206 0.0
C900 C 0.84246 0.39362 0.0525 0.0
C901 C 0.84965 0.40548 0.27341 0.0
C902 C 0.85462 0.3907 0.27622 0.0
C903 C 0.85154 0.41505 0.23834 0.0
C904 C 0.85875 0.41031 0.20537 0.0
C905 C 0.86324 0.39516 0.20763 0.0
C906 C 0.86118 0.38539 0.24293 0.0
C907 C 0.86131 0.4212 0.16869 0.0
C908 C 0.85117 0.41069 0.13555 0.0
C909 C 0.87224 0.44195 0.16727 0.0
C910 C 0.88401 0.4538 0.20092 0.0
C911 C 0.8978 0.44992 0.21871 0.0
C912 C 0.9085 0.46083 0.25096 0.0
C913 C 0.90566 0.47577 0.2655 0.0
C914 C 0.89216 0.47988 0.24777 0.0
C915 C 0.88139 0.46899 0.21556 0.0
H916 H 0.91394 0.48419 0.29049 0.0
H917 H 0.80901 0.37752 0.97914 0.0
H918 H 0.49252 0.86324 0.41108 0.0
H919 H 0.47814 0.86518 0.3488 0.0
H920 H 0.42563 0.85459 0.40861 0.0
H921 H 0.43966 0.85258 0.47012 0.0
H922 H 0.41722 0.83175 0.34473 0.0
H923 H 0.45809 0.89981 0.37856 0.0
H924 H 0.48899 0.92948 0.39582 0.0
H925 H 0.51472 0.92599 0.28817 0.0
H926 H 0.48399 0.89605 0.27054 0.0
H927 H 0.37084 0.85495 0.19183 0.0
H928 H 0.38604 0.85584 0.25488 0.0
H929 H 0.43948 0.86841 0.19624 0.0
H930 H 0.42464 0.8677 0.13396 0.0
H931 H 0.44742 0.89048 0.25975 0.0
H932 H 0.40748 0.82249 0.22595 0.0
H933 H 0.37693 0.79252 0.20781 0.0
H934 H 0.35001 0.79543 0.31426 0.0
H935 H 0.38034 0.82559 0.33279 0.0
C936 C 0.47795 0.86139 0.4108 0.0
C937 C 0.46725 0.85778 0.44545 0.0
C938 C 0.46978 0.86254 0.37533 0.0
C939 C 0.45081 0.86005 0.37418 0.0
C940 C 0.44022 0.85648 0.4088 0.0
C941 C 0.44835 0.85542 0.444 0.0
C942 C 0.44168 0.86094 0.33712 0.0
C943 C 0.42372 0.84467 0.32634 0.0
C944 C 0.45034 0.87764 0.31283 0.0
C945 C 0.46883 0.89558 0.32345 0.0
C946 C 0.4704 0.90526 0.35874 0.0
C947 C 0.48788 0.92216 0.36855 0.0
C948 C 0.50385 0.92961 0.34314 0.0
C949 C 0.50235 0.92018 0.30785 0.0
C950 C 0.4849 0.90325 0.29793 0.0
C951 C 0.38587 0.85808 0.19257 0.0
C952 C 0.3965 0.86118 0.15797 0.0
C953 C 0.39451 0.85851 0.22848 0.0
C954 C 0.41385 0.86203 0.23015 0.0
C955 C 0.42458 0.8657 0.19568 0.0
C956 C 0.416 0.86522 0.16002 0.0
C957 C 0.42293 0.86131 0.26741 0.0
C958 C 0.44089 0.87757 0.27819 0.0
C959 C 0.41434 0.84454 0.29159 0.0
C960 C 0.39609 0.82642 0.28054 0.0
C961 C 0.39499 0.81683 0.24533 0.0
C962 C 0.37772 0.7998 0.23501 0.0
C963 C 0.36152 0.79211 0.25981 0.0
C964 C 0.36256 0.80142 0.29504 0.0
C965 C 0.37979 0.81848 0.30548 0.0
H966 H 0.34817 0.77892 0.25178 0.0
H967 H 0.51738 0.94271 0.35069 0.0
H968 H 0.59065 0.44259 0.63605 0.0
H969 H 0.57364 0.4287 0.57528 0.0
H970 H 0.61985 0.47689 0.51195 0.0
H971 H 0.63711 0.49122 0.57347 0.0
H972 H 0.5821 0.46644 0.48552 0.0
H973 H 0.61918 0.43472 0.51383 0.0
H974 H 0.63081 0.41682 0.55455 0.0
H975 H 0.57188 0.36894 0.56567 0.0
H976 H 0.55986 0.38669 0.52546 0.0
H977 H 0.5656 0.42347 0.30024 0.0
H978 H 0.57831 0.43853 0.36303 0.0
H979 H 0.53146 0.38829 0.42058 0.0
H980 H 0.51846 0.37289 0.35698 0.0
H981 H 0.56789 0.3994 0.45132 0.0
H982 H 0.53097 0.43035 0.41967 0.0
H983 H 0.51948 0.44811 0.37821 0.0
H984 H 0.57792 0.49731 0.37275 0.0
H985 H 0.58984 0.47972 0.41367 0.0
C986 C 0.59724 0.45038 0.60932 0.0
C987 C 0.61533 0.46797 0.60951 0.0
C988 C 0.58747 0.44235 0.57457 0.0
C989 C 0.59562 0.4516 0.53914 0.0
C990 C 0.61339 0.4695 0.5391 0.0
C991 C 0.62324 0.47763 0.57413 0.0
C992 C 0.58567 0.4421 0.50234 0.0
C993 C 0.57921 0.4519 0.4777 0.0
C994 C 0.58139 0.42288 0.49291 0.0
C995 C 0.5886 0.41212 0.51694 0.0
C996 C 0.60868 0.42044 0.52522 0.0
C997 C 0.61535 0.41031 0.54816 0.0
C998 C 0.60209 0.39178 0.56277 0.0
C999 C 0.58213 0.38331 0.55438 0.0
C1000 C 0.57539 0.39339 0.53148 0.0
C1001 C 0.5578 0.41562 0.32611 0.0
C1002 C 0.54096 0.39698 0.32366 0.0
C1003 C 0.56508 0.42434 0.36205 0.0
C1004 C 0.5557 0.41465 0.39641 0.0
C1005 C 0.53882 0.39604 0.39427 0.0
C1006 C 0.53141 0.38729 0.35805 0.0
C1007 C 0.56436 0.42375 0.43432 0.0
C1008 C 0.57063 0.41389 0.4592 0.0
C1009 C 0.56846 0.44291 0.4439 0.0
C1010 C 0.56133 0.45364 0.41953 0.0
C1011 C 0.54141 0.44489 0.40939 0.0
C1012 C 0.53481 0.45494 0.38602 0.0
C1013 C 0.54797 0.47381 0.37279 0.0
C1014 C 0.56775 0.48269 0.383 0.0
C1015 C 0.57443 0.47269 0.40633 0.0
H1016 H 0.54283 0.48157 0.35469 0.0
H1017 H 0.60728 0.38396 0.58053 0.0
H1018 H 0.13883 0.55761 0.4651 0.0
H1019 H 0.13688 0.57138 0.5268 0.0
H1020 H 0.145 0.52814 0.58787 0.0
H1021 H 0.14658 0.51378 0.52527 0.0
H1022 H 0.11767 0.53621 0.62363 0.0
H1023 H 0.18343 0.5722 0.57424 0.0
H1024 H 0.20879 0.59048 0.52481 0.0
H1025 H 0.19096 0.63375 0.51886 0.0
H1026 H 0.1653 0.61556 0.56787 0.0
H1027 H 0.15381 0.58638 0.79981 0.0
H1028 H 0.149 0.56983 0.73792 0.0
H1029 H 0.14325 0.61544 0.68076 0.0
H1030 H 0.14826 0.63242 0.74342 0.0
H1031 H 0.16791 0.60615 0.64228 0.0
H1032 H 0.10337 0.57119 0.69493 0.0
H1033 H 0.07844 0.55315 0.74519 0.0
H1034 H 0.09398 0.50813 0.74582 0.0
H1035 H 0.11925 0.52607 0.69601 0.0
C1036 C 0.13997 0.55078 0.49151 0.0
C1037 C 0.14309 0.53471 0.49031 0.0
C1038 C 0.13888 0.55874 0.52682 0.0
C1039 C 0.14121 0.55105 0.5618 0.0
C1040 C 0.14329 0.53434 0.56104 0.0
C1041 C 0.14421 0.52618 0.52539 0.0
C1042 C 0.1426 0.56135 0.59867 0.0
C1043 C 0.12878 0.55141 0.62801 0.0
C1044 C 0.15679 0.58136 0.60374 0.0
C1045 C 0.17232 0.59242 0.57447 0.0
C1046 C 0.18482 0.58553 0.56218 0.0
C1047 C 0.19927 0.59589 0.53427 0.0
C1048 C 0.20145 0.61324 0.51863 0.0
C1049 C 0.18924 0.6203 0.53096 0.0
C1050 C 0.17475 0.60998 0.55883 0.0
C1051 C 0.1514 0.59292 0.77422 0.0
C1052 C 0.15132 0.6107 0.7765 0.0
C1053 C 0.14855 0.58334 0.73884 0.0
C1054 C 0.14543 0.59121 0.7049 0.0
C1055 C 0.14549 0.60907 0.7068 0.0
C1056 C 0.14834 0.61873 0.74248 0.0
C1057 C 0.14301 0.58103 0.66741 0.0
C1058 C 0.15668 0.59098 0.63789 0.0
C1059 C 0.1287 0.56105 0.66228 0.0
C1060 C 0.11332 0.55007 0.6919 0.0
C1061 C 0.10157 0.55751 0.70596 0.0
C1062 C 0.08736 0.54729 0.73436 0.0
C1063 C 0.08465 0.52952 0.74873 0.0
C1064 C 0.09611 0.52191 0.73466 0.0
C1065 C 0.11036 0.53209 0.70631 0.0
H1066 H 0.07365 0.52164 0.77073 0.0
H1067 H 0.21265 0.62124 0.49703 0.0
H1068 H 0.47597 0.09198 0.083 0.0
H1069 H 0.45055 0.05762 0.09279 0.0
H1070 H 0.46762 0.04185 0.98573 0.0
H1071 H 0.49327 0.07595 0.97628 0.0
H1072 H 0.42473 0.02096 0.00284 0.0
H1073 H 0.48873 0.03872 0.06031 0.0
H1074 H 0.51653 0.05889 0.10382 0.0
H1075 H 0.4773 0.04252 0.20117 0.0
H1076 H 0.44922 0.02247 0.15804 0.0
H1077 H 0.40674 0.92423 0.00728 0.0
H1078 H 0.41649 0.95879 0.00169 0.0
H1079 H 0.41295 0.96229 0.12661 0.0
H1080 H 0.40472 0.92797 0.13204 0.0
H1081 H 0.44405 0.99067 0.10758 0.0
H1082 H 0.38069 0.96772 0.05559 0.0
H1083 H 0.35162 0.94819 0.01461 0.0
H1084 H 0.38585 0.97428 0.91189 0.0
H1085 H 0.4152 0.99379 0.95219 0.0
C1086 C 0.4739 0.08127 0.06101 0.0
C1087 C 0.48665 0.08658 0.029 0.0
C1088 C 0.45942 0.06167 0.06668 0.0
C1089 C 0.45729 0.04722 0.04004 0.0
C1090 C 0.46898 0.05279 0.00652 0.0
C1091 C 0.48367 0.07225 0.00125 0.0
C1092 C 0.44497 0.0261 0.04933 0.0
C1093 C 0.42881 0.01421 0.02573 0.0
C1094 C 0.44998 0.0175 0.08002 0.0
C1095 C 0.46689 0.02931 0.10593 0.0
C1096 C 0.48603 0.03955 0.09094 0.0
C1097 C 0.50184 0.05094 0.11553 0.0
C1098 C 0.49868 0.05204 0.15522 0.0
C1099 C 0.47972 0.04169 0.17041 0.0
C1100 C 0.46386 0.03031 0.14592 0.0
C1101 C 0.40756 0.93231 0.03337 0.0
C1102 C 0.40479 0.92352 0.07002 0.0
C1103 C 0.41302 0.95209 0.03023 0.0
C1104 C 0.41521 0.96332 0.06367 0.0
C1105 C 0.41141 0.95409 0.10029 0.0
C1106 C 0.40655 0.93445 0.10346 0.0
C1107 C 0.42364 0.985 0.06065 0.0
C1108 C 0.43931 0.99715 0.0853 0.0
C1109 C 0.41782 0.9938 0.03142 0.0
C1110 C 0.40019 0.98215 0.00697 0.0
C1111 C 0.38205 0.96922 0.02426 0.0
C1112 C 0.36552 0.95816 0.00114 0.0
C1113 C 0.36689 0.95997 0.96067 0.0
C1114 C 0.38481 0.97289 0.94324 0.0
C1115 C 0.40139 0.98398 0.96622 0.0
H1116 H 0.35408 0.95139 0.94283 0.0
H1117 H 0.51093 0.06087 0.17421 0.0
H1118 H 0.47161 0.38691 0.24355 0.0
H1119 H 0.44748 0.39819 0.24168 0.0
H1120 H 0.49344 0.45605 0.20953 0.0
H1121 H 0.5172 0.44519 0.21235 0.0
H1122 H 0.47332 0.45873 0.26679 0.0
H1123 H 0.45747 0.42205 0.14443 0.0
H1124 H 0.44593 0.39187 0.1058 0.0
H1125 H 0.39152 0.36473 0.16849 0.0
H1126 H 0.40285 0.39469 0.20779 0.0
H1127 H 0.44131 0.51481 0.17387 0.0
H1128 H 0.45263 0.49155 0.18364 0.0
H1129 H 0.39703 0.45024 0.23423 0.0
H1130 H 0.38536 0.47365 0.22462 0.0
H1131 H 0.41499 0.4334 0.18119 0.0
H1132 H 0.42963 0.47293 0.29561 0.0
H1133 H 0.44145 0.50389 0.33156 0.0
H1134 H 0.49881 0.52598 0.28264 0.0
H1135 H 0.48725 0.49527 0.2459 0.0
C1136 C 0.47642 0.40197 0.23587 0.0
C1137 C 0.49636 0.41521 0.22869 0.0
C1138 C 0.46265 0.40841 0.23475 0.0
C1139 C 0.46864 0.42807 0.22576 0.0
C1140 C 0.48842 0.44093 0.21717 0.0
C1141 C 0.50204 0.43465 0.21878 0.0
C1142 C 0.455 0.43606 0.22623 0.0
C1143 C 0.46056 0.45311 0.24807 0.0
C1144 C 0.43786 0.42841 0.20305 0.0
C1145 C 0.43109 0.41049 0.17934 0.0
C1146 C 0.44311 0.40958 0.15016 0.0
C1147 C 0.43659 0.39254 0.12811 0.0
C1148 C 0.41803 0.37637 0.13478 0.0
C1149 C 0.40591 0.37724 0.16342 0.0
C1150 C 0.41237 0.39425 0.18557 0.0
C1151 C 0.4313 0.50075 0.18678 0.0
C1152 C 0.41245 0.49627 0.1989 0.0
C1153 C 0.43784 0.48742 0.19226 0.0
C1154 C 0.42576 0.46925 0.21003 0.0
C1155 C 0.40658 0.4642 0.22047 0.0
C1156 C 0.39998 0.47763 0.21505 0.0
C1157 C 0.43411 0.45655 0.22003 0.0
C1158 C 0.4275 0.43868 0.20052 0.0
C1159 C 0.45041 0.46344 0.24524 0.0
C1160 C 0.45753 0.48181 0.26787 0.0
C1161 C 0.44473 0.48443 0.29236 0.0
C1162 C 0.45139 0.50194 0.31289 0.0
C1163 C 0.47086 0.5169 0.30936 0.0
C1164 C 0.48373 0.51437 0.28536 0.0
C1165 C 0.47714 0.49691 0.26472 0.0
H1166 H 0.47599 0.53045 0.32525 0.0
H1167 H 0.41301 0.36319 0.11769 0.0
H1168 H 0.07343 0.51448 0.39031 0.0
H1169 H 0.03898 0.49009 0.38826 0.0
H1170 H 0.0533 0.44397 0.38727 0.0
H1171 H 0.08847 0.4687 0.38879 0.0
H1172 H 0.0225 0.43631 0.33687 0.0
H1173 H 0.03639 0.4518 0.46978 0.0
H1174 H 0.05074 0.47269 0.52754 0.0
H1175 H 0.01694 0.50071 0.50536 0.0
H1176 H 1.00261 0.48021 0.44709 0.0
H1177 H 0.91478 0.38179 0.37767 0.0
H1178 H 0.94981 0.39235 0.38474 0.0
H1179 H 0.96476 0.45198 0.36177 0.0
H1180 H 0.93038 0.44179 0.35397 0.0
H1181 H 0.98042 0.44376 0.43476 0.0
H1182 H 0.97246 0.4313 0.29365 0.0
H1183 H 0.95824 0.40939 0.23712 0.0
H1184 H 0.98052 0.37305 0.27966 0.0
H1185 H 0.99464 0.39464 0.33675 0.0
C1186 C 0.06944 0.49919 0.38971 0.0
C1187 C 0.08384 0.49361 0.39027 0.0
C1188 C 0.04962 0.4852 0.3886 0.0
C1189 C 0.04348 0.46516 0.38853 0.0
C1190 C 0.05771 0.45937 0.38767 0.0
C1191 C 0.07777 0.47351 0.38857 0.0
C1192 C 0.0221 0.45075 0.38981 0.0
C1193 C 0.01331 0.43756 0.35885 0.0
C1194 C 0.01002 0.45217 0.41865 0.0
C1195 C 0.01845 0.46447 0.45394 0.0
C1196 C 0.03208 0.46249 0.47708 0.0
C1197 C 0.04021 0.47426 0.50993 0.0
C1198 C 0.03476 0.48803 0.5201 0.0
C1199 C 0.02113 0.49002 0.49746 0.0
C1200 C 0.01297 0.4783 0.46455 0.0
C1201 C 0.92556 0.39711 0.37374 0.0
C1202 C 0.91964 0.41091 0.36541 0.0
C1203 C 0.94554 0.40309 0.37777 0.0
C1204 C 0.95982 0.42295 0.37395 0.0
C1205 C 0.95396 0.4366 0.36496 0.0
C1206 C 0.9342 0.43067 0.36044 0.0
C1207 C 0.98093 0.43019 0.38089 0.0
C1208 C 0.98964 0.44206 0.41353 0.0
C1209 C 0.99281 0.42727 0.35402 0.0
C1210 C 0.98434 0.4144 0.31971 0.0
C1211 C 0.97413 0.41852 0.29116 0.0
C1212 C 0.96614 0.40619 0.25897 0.0
C1213 C 0.96841 0.38979 0.25488 0.0
C1214 C 0.97873 0.38573 0.28291 0.0
C1215 C 0.98673 0.398 0.31518 0.0
H1216 H 0.96222 0.38027 0.22993 0.0
H1217 H 0.04108 0.49713 0.54554 0.0
H1218 H 0.48985 0.92949 0.55774 0.0
H1219 H 0.5134 0.96415 0.56194 0.0
H1220 H 0.56039 0.95271 0.5371 0.0
H1221 H 0.5365 0.91727 0.53376 0.0
H1222 H 0.57163 0.98184 0.59183 0.0
H1223 H 0.54565 0.97192 0.46515 0.0
H1224 H 0.5208 0.95895 0.41339 0.0
H1225 H 0.49236 0.98809 0.46356 0.0
H1226 H 0.5171 1.00126 0.51585 0.0
H1227 H 0.62207 0.08966 0.55319 0.0
H1228 H 0.61041 0.05446 0.54551 0.0
H1229 H 0.55473 0.04075 0.59477 0.0
H1230 H 0.56612 0.07541 0.60321 0.0
H1231 H 0.55471 0.02496 0.5161 0.0
H1232 H 0.58179 0.032 0.64757 0.0
H1233 H 0.6092 0.04576 0.69431 0.0
H1234 H 0.63901 0.02286 0.62664 0.0
H1235 H 0.61188 0.00921 0.57919 0.0
C1236 C 0.50516 0.93419 0.55305 0.0
C1237 C 0.5112 0.92053 0.54472 0.0
C1238 C 0.51867 0.95413 0.55544 0.0
C1239 C 0.53866 0.9612 0.54883 0.0
C1240 C 0.54501 0.94764 0.54195 0.0
C1241 C 0.53136 0.92741 0.53998 0.0
C1242 C 0.55235 0.98282 0.54853 0.0
C1243 C 0.5682 0.99127 0.57463 0.0
C1244 C 0.54815 0.99529 0.52582 0.0
C1245 C 0.53319 0.98749 0.49451 0.0
C1246 C 0.53404 0.97548 0.46528 0.0
C1247 C 0.51997 0.96811 0.4358 0.0
C1248 C 0.50493 0.97261 0.4352 0.0
C1249 C 0.50401 0.9846 0.46405 0.0
C1250 C 0.5181 0.99209 0.49355 0.0
C1251 C 0.60747 0.07914 0.563 0.0
C1252 C 0.59501 0.0855 0.57845 0.0
C1253 C 0.60084 0.05904 0.55859 0.0
C1254 C 0.58166 0.04503 0.56938 0.0
C1255 C 0.56955 0.05132 0.58611 0.0
C1256 C 0.57615 0.07124 0.59087 0.0
C1257 C 0.57327 0.02386 0.56068 0.0
C1258 C 0.5584 0.01553 0.53267 0.0
C1259 C 0.57876 0.0117 0.5809 0.0
C1260 C 0.59494 0.01981 0.60959 0.0
C1261 C 0.59428 0.03008 0.64245 0.0
C1262 C 0.60974 0.03781 0.66912 0.0
C1263 C 0.62587 0.03525 0.66338 0.0
C1264 C 0.62653 0.02488 0.63102 0.0
C1265 C 0.61112 0.01713 0.60425 0.0
H1266 H 0.63782 0.04124 0.68406 0.0
H1267 H 0.49403 0.96684 0.41235 0.0
H1268 H 0.62443 0.5333 0.74148 0.0
H1269 H 0.6132 0.55706 0.75056 0.0
H1270 H 0.56744 0.52603 0.66618 0.0
H1271 H 0.57824 0.50221 0.65755 0.0
H1272 H 0.6055 0.58245 0.70501 0.0
H1273 H 0.5253 0.51896 0.70294 0.0
H1274 H 0.50667 0.48345 0.71631 0.0
H1275 H 0.55127 0.48933 0.79597 0.0
H1276 H 0.57 0.52489 0.78351 0.0
H1277 H 0.53428 0.61396 0.68667 0.0
H1278 H 0.55775 0.60219 0.68262 0.0
H1279 H 0.53977 0.57606 0.79642 0.0
H1280 H 0.51586 0.58708 0.79968 0.0
H1281 H 0.53639 0.54988 0.74939 0.0
H1282 H 0.58756 0.61501 0.77522 0.0
H1283 H 0.60711 0.65082 0.76674 0.0
H1284 H 0.6221 0.64306 0.65063 0.0
H1285 H 0.60241 0.60719 0.65821 0.0
C1286 C 0.61223 0.5318 0.72431 0.0
C1287 C 0.60201 0.51566 0.69932 0.0
C1288 C 0.60586 0.54541 0.72946 0.0
C1289 C 0.58926 0.54311 0.70956 0.0
C1290 C 0.58007 0.52792 0.68234 0.0
C1291 C 0.58626 0.51427 0.6775 0.0
C1292 C 0.58003 0.555 0.71998 0.0
C1293 C 0.59041 0.57541 0.71482 0.0
C1294 C 0.5605 0.54587 0.73366 0.0
C1295 C 0.54912 0.52455 0.74202 0.0
C1296 C 0.53107 0.51268 0.72346 0.0
C1297 C 0.5205 0.49255 0.73086 0.0
C1298 C 0.5278 0.48414 0.75689 0.0
C1299 C 0.54565 0.49585 0.77572 0.0
C1300 C 0.55626 0.51599 0.76848 0.0
C1301 C 0.53583 0.60625 0.71127 0.0
C1302 C 0.52319 0.60132 0.74339 0.0
C1303 C 0.54926 0.59951 0.70897 0.0
C1304 C 0.55052 0.58809 0.73913 0.0
C1305 C 0.53899 0.58464 0.77257 0.0
C1306 C 0.52538 0.59103 0.77452 0.0
C1307 C 0.56166 0.57751 0.73399 0.0
C1308 C 0.55155 0.55715 0.73995 0.0
C1309 C 0.58151 0.58683 0.72188 0.0
C1310 C 0.59336 0.60839 0.71719 0.0
C1311 C 0.59489 0.62093 0.74776 0.0
C1312 C 0.60602 0.64125 0.74314 0.0
C1313 C 0.6158 0.64921 0.70814 0.0
C1314 C 0.6145 0.63687 0.67772 0.0
C1315 C 0.60338 0.61654 0.68218 0.0
H1316 H 0.62442 0.66494 0.70462 0.0
H1317 H 0.51962 0.46854 0.76252 0.0
H1318 H 0.0961 0.62471 0.86588 0.0
H1319 H 0.06157 0.61634 0.868 0.0
H1320 H 0.04386 0.55503 0.87578 0.0
H1321 H 0.07777 0.56313 0.87222 0.0
H1322 H 0.02118 0.55834 0.82768 0.0
H1323 H 0.04635 0.5855 0.95667 0.0
H1324 H 0.06795 0.61174 0.00202 0.0
H1325 H 0.04669 0.64864 0.95781 0.0
H1326 H 0.0251 0.62266 0.91192 0.0
H1327 H 0.93958 0.50969 0.95017 0.0
H1328 H 0.97366 0.5345 0.93915 0.0
H1329 H 0.95573 0.56313 0.85539 0.0
H1330 H 0.92127 0.53805 0.86587 0.0
H1331 H 0.99524 0.58327 0.93069 0.0
H1332 H 0.96971 0.55285 0.79834 0.0
H1333 H 0.94697 0.52334 0.76101 0.0
H1334 H 0.96895 0.4902 0.81992 0.0
H1335 H 0.99164 0.51949 0.85785 0.0
C1336 C 0.08479 0.60947 0.86797 0.0
C1337 C 0.08974 0.59461 0.86869 0.0
C1338 C 0.06506 0.60469 0.8693 0.0
C1339 C 0.05 0.58501 0.87215 0.0
C1340 C 0.05507 0.5703 0.87313 0.0
C1341 C 0.07459 0.57499 0.8712 0.0
C1342 C 0.02888 0.5792 0.87447 0.0
C1343 C 0.01565 0.56413 0.84983 0.0
C1344 C 0.0214 0.58673 0.90299 0.0
C1345 C 0.03433 0.60226 0.93058 0.0
C1346 C 0.04639 0.59926 0.95647 0.0
C1347 C 0.05861 0.61407 0.98229 0.0
C1348 C 0.05874 0.63187 0.9827 0.0
C1349 C 0.04661 0.63487 0.95739 0.0
C1350 C 0.03438 0.62011 0.93149 0.0
C1351 C 0.94276 0.52147 0.92997 0.0
C1352 C 0.92768 0.5217 0.90847 0.0
C1353 C 0.96228 0.53571 0.92392 0.0
C1354 C 0.96718 0.55053 0.89635 0.0
C1355 C 0.95218 0.55177 0.87685 0.0
C1356 C 0.93251 0.53745 0.88292 0.0
C1357 C 0.98793 0.56244 0.88431 0.0
C1358 C 1.00099 0.57832 0.90739 0.0
C1359 C 0.99537 0.55562 0.85463 0.0
C1360 C 0.98223 0.53826 0.83097 0.0
C1361 C 0.96962 0.53924 0.80335 0.0
C1362 C 0.95676 0.52257 0.78211 0.0
C1363 C 0.95649 0.50491 0.78816 0.0
C1364 C 0.96916 0.50389 0.81529 0.0
C1365 C 0.98203 0.52051 0.83662 0.0
H1366 H 0.94647 0.492 0.77185 0.0
H1367 H 0.06821 0.64332 0.00271 0.0
loop_
_geom_bond_atom_site_label_1
_geom_bond_atom_site_label_2
_geom_bond_distance
_geom_bond_site_symmetry_2
_ccdc_geom_bond_type
Co0 O1 2.216 . S
Co0 O2 2.091 . S
Co0 O4 2.004 . S
Co0 O10 2.021 . S
Co0 O12 2.137 . S
Co0 O13 2.244 . S
O1 Co0 2.216 . S
O1 C8 1.247 . S
O2 Co0 2.091 . S
O2 C8 1.261 . S
C3 O12 1.247 1_556 S
C3 O13 1.270 1_556 S
O4 Co0 2.004 . S
O4 C9 1.259 . S
Co5 O6 2.061 . S
Co5 O11 2.052 . S
Co5 O13 2.135 . S
O6 Co5 2.061 . S
O6 C9 1.235 . S
C7 O10 1.238 . S
C7 O11 1.241 . S
C8 O1 1.247 . S
C8 O2 1.261 . S
C9 O4 1.259 . S
C9 O6 1.235 . S
O10 Co0 2.021 . S
O10 C7 1.238 . S
O11 Co5 2.052 . S
O11 C7 1.241 . S
O12 Co0 2.137 . S
O12 C3 1.247 1_554 S
O13 Co0 2.244 . S
O13 C3 1.270 1_554 S
O13 Co5 2.135 . S
Co14 O15 2.216 . S
Co14 O16 2.091 . S
Co14 O18 2.004 . S
Co14 O24 2.021 . S
Co14 O26 2.137 . S
Co14 O27 2.244 . S
O15 Co14 2.216 . S
O15 C22 1.247 . S
O16 Co14 2.091 . S
O16 C22 1.261 . S
C17 O26 1.247 . S
C17 O27 1.272 . S
O18 Co14 2.004 . S
O18 C23 1.259 . S
Co19 O20 2.061 . S
Co19 O25 2.052 . S
Co19 O27 2.135 . S
O20 Co19 2.061 . S
O20 C23 1.235 . S
C21 O24 1.238 . S
C21 O25 1.241 . S
C22 O15 1.247 . S
C22 O16 1.261 . S
C23 O18 1.259 . S
C23 O20 1.235 . S
O24 Co14 2.021 . S
O24 C21 1.238 . S
O25 Co19 2.052 . S
O25 C21 1.241 . S
O26 Co14 2.137 . S
O26 C17 1.247 . S
O27 Co14 2.244 . S
O27 C17 1.272 . S
O27 Co19 2.135 . S
Co28 O29 2.216 . S
Co28 O30 2.091 . S
Co28 O32 2.004 . S
Co28 O38 2.021 . S
Co28 O40 2.137 . S
Co28 O41 2.244 . S
O29 Co28 2.216 . S
O29 C36 1.247 . S
O30 Co28 2.091 . S
O30 C36 1.261 . S
C31 O40 1.247 . S
C31 O41 1.272 . S
O32 Co28 2.004 . S
O32 C37 1.259 . S
Co33 O34 2.061 . S
Co33 O39 2.052 . S
Co33 O41 2.135 . S
O34 Co33 2.061 . S
O34 C37 1.235 . S
C35 O38 1.238 . S
C35 O39 1.241 . S
C36 O29 1.247 . S
C36 O30 1.261 . S
C37 O32 1.259 . S
C37 O34 1.235 . S
O38 Co28 2.021 . S
O38 C35 1.238 . S
O39 Co33 2.052 . S
O39 C35 1.241 . S
O40 Co28 2.137 . S
O40 C31 1.247 . S
O41 Co28 2.244 . S
O41 C31 1.272 . S
O41 Co33 2.135 . S
Co42 O43 2.216 . S
Co42 O44 2.091 . S
Co42 O46 2.004 . S
Co42 O52 2.021 . S
Co42 O54 2.137 . S
Co42 O55 2.244 . S
O43 Co42 2.216 . S
O43 C50 1.247 . S
O44 Co42 2.091 . S
O44 C50 1.261 . S
C45 O54 1.247 . S
C45 O55 1.272 . S
O46 Co42 2.004 . S
O46 C51 1.259 . S
Co47 O48 2.061 . S
Co47 O53 2.052 . S
Co47 O55 2.135 . S
O48 Co47 2.061 . S
O48 C51 1.235 . S
C49 O52 1.238 . S
C49 O53 1.241 . S
C50 O43 1.247 . S
C50 O44 1.261 . S
C51 O46 1.259 . S
C51 O48 1.235 . S
O52 Co42 2.021 . S
O52 C49 1.238 . S
O53 Co47 2.052 . S
O53 C49 1.241 . S
O54 Co42 2.137 . S
O54 C45 1.247 . S
O55 Co42 2.244 . S
O55 C45 1.272 . S
O55 Co47 2.135 . S
Co56 O57 2.216 . S
Co56 O58 2.091 . S
Co56 O60 2.004 . S
Co56 O66 2.021 . S
Co56 O68 2.137 . S
Co56 O69 2.244 . S
O57 Co56 2.216 . S
O57 C64 1.247 . S
O58 Co56 2.091 . S
O58 C64 1.261 . S
C59 O68 1.247 . S
C59 O69 1.272 . S
O60 Co56 2.004 . S
O60 C65 1.259 . S
Co61 O62 2.061 . S
Co61 O67 2.052 . S
Co61 O69 2.135 . S
O62 Co61 2.061 . S
O62 C65 1.235 . S
C63 O66 1.238 . S
C63 O67 1.241 . S
C64 O57 1.247 . S
C64 O58 1.261 . S
C65 O60 1.259 . S
C65 O62 1.235 . S
O66 Co56 2.021 . S
O66 C63 1.238 . S
O67 Co61 2.052 . S
O67 C63 1.241 . S
O68 Co56 2.137 . S
O68 C59 1.247 . S
O69 Co56 2.244 . S
O69 C59 1.272 . S
O69 Co61 2.135 . S
Co70 O71 2.216 . S
Co70 O72 2.091 . S
Co70 O74 2.004 . S
Co70 O80 2.021 . S
Co70 O82 2.137 . S
Co70 O83 2.244 . S
O71 Co70 2.216 . S
O71 C78 1.247 . S
O72 Co70 2.091 . S
O72 C78 1.261 . S
C73 O82 1.247 . S
C73 O83 1.272 . S
O74 Co70 2.004 . S
O74 C79 1.259 . S
Co75 O76 2.061 . S
Co75 O81 2.052 . S
Co75 O83 2.135 . S
O76 Co75 2.061 . S
O76 C79 1.235 . S
C77 O80 1.238 . S
C77 O81 1.241 . S
C78 O71 1.247 . S
C78 O72 1.261 . S
C79 O74 1.259 . S
C79 O76 1.235 . S
O80 Co70 2.021 . S
O80 C77 1.238 . S
O81 Co75 2.052 . S
O81 C77 1.241 . S
O82 Co70 2.137 . S
O82 C73 1.247 . S
O83 Co70 2.244 . S
O83 C73 1.272 . S
O83 Co75 2.135 . S
Co84 O85 2.216 . S
Co84 O86 2.091 . S
Co84 O88 2.004 . S
Co84 O94 2.021 . S
Co84 O96 2.137 . S
Co84 O97 2.244 . S
O85 Co84 2.216 . S
O85 C92 1.247 . S
O86 Co84 2.091 . S
O86 C92 1.261 . S
C87 O96 1.247 . S
C87 O97 1.272 . S
O88 Co84 2.004 . S
O88 C93 1.259 . S
Co89 O90 2.061 . S
Co89 O95 2.052 . S
Co89 O97 2.135 . S
O90 Co89 2.061 . S
O90 C93 1.235 . S
C91 O94 1.238 . S
C91 O95 1.241 . S
C92 O85 1.247 . S
C92 O86 1.261 . S
C93 O88 1.259 . S
C93 O90 1.235 . S
O94 Co84 2.021 . S
O94 C91 1.238 . S
O95 Co89 2.052 . S
O95 C91 1.241 . S
O96 Co84 2.137 . S
O96 C87 1.247 . S
O97 Co84 2.244 . S
O97 C87 1.272 . S
O97 Co89 2.135 . S
Co98 O99 2.216 . S
Co98 O100 2.091 . S
Co98 O102 2.004 . S
Co98 O108 2.021 1_554 S
Co98 O110 2.137 . S
Co98 O111 2.244 . S
O99 Co98 2.216 . S
O99 C106 1.247 . S
O100 Co98 2.091 . S
O100 C106 1.261 . S
C101 O110 1.247 . S
C101 O111 1.272 . S
O102 Co98 2.004 . S
O102 C107 1.259 . S
Co103 O104 2.061 . S
Co103 O109 2.052 . S
Co103 O111 2.135 . S
O104 Co103 2.061 . S
O104 C107 1.235 . S
C105 O108 1.238 . S
C105 O109 1.241 1_556 S
C106 O99 1.247 . S
C106 O100 1.261 . S
C107 O102 1.259 . S
C107 O104 1.235 . S
O108 Co98 2.021 1_556 S
O108 C105 1.238 . S
O109 Co103 2.052 . S
O109 C105 1.241 1_554 S
O110 Co98 2.137 . S
O110 C101 1.247 . S
O111 Co98 2.244 . S
O111 C101 1.272 . S
O111 Co103 2.135 . S
Co112 O113 2.216 . S
Co112 O114 2.091 . S
Co112 O116 2.004 . S
Co112 O122 2.021 . S
Co112 O124 2.137 . S
Co112 O125 2.244 . S
O113 Co112 2.216 . S
O113 C120 1.247 . S
O114 Co112 2.091 . S
O114 C120 1.261 . S
C115 O124 1.247 . S
C115 O125 1.272 . S
O116 Co112 2.004 . S
O116 C121 1.259 . S
Co117 O118 2.061 . S
Co117 O123 2.052 . S
Co117 O125 2.135 . S
O118 Co117 2.061 . S
O118 C121 1.235 . S
C119 O122 1.238 . S
C119 O123 1.241 . S
C120 O113 1.247 . S
C120 O114 1.261 . S
C121 O116 1.259 . S
C121 O118 1.235 . S
O122 Co112 2.021 . S
O122 C119 1.238 . S
O123 Co117 2.052 . S
O123 C119 1.241 . S
O124 Co112 2.137 . S
O124 C115 1.247 . S
O125 Co112 2.244 . S
O125 C115 1.272 . S
O125 Co117 2.135 . S
Co126 O127 2.216 . S
Co126 O128 2.091 . S
Co126 O130 2.004 . S
Co126 O136 2.021 . S
Co126 O138 2.137 . S
Co126 O139 2.244 . S
O127 Co126 2.216 . S
O127 C134 1.247 . S
O128 Co126 2.091 . S
O128 C134 1.261 . S
C129 O138 1.247 . S
C129 O139 1.272 . S
O130 Co126 2.004 . S
O130 C135 1.259 . S
Co131 O132 2.061 . S
Co131 O137 2.052 . S
Co131 O139 2.135 . S
O132 Co131 2.061 . S
O132 C135 1.235 . S
C133 O136 1.238 . S
C133 O137 1.241 . S
C134 O127 1.247 . S
C134 O128 1.261 . S
C135 O130 1.259 . S
C135 O132 1.235 . S
O136 Co126 2.021 . S
O136 C133 1.238 . S
O137 Co131 2.052 . S
O137 C133 1.241 . S
O138 Co126 2.137 . S
O138 C129 1.247 . S
O139 Co126 2.244 . S
O139 C129 1.272 . S
O139 Co131 2.135 . S
Co140 O141 2.216 . S
Co140 O142 2.091 . S
Co140 O144 2.004 . S
Co140 O150 2.021 . S
Co140 O152 2.137 . S
Co140 O153 2.244 . S
O141 Co140 2.216 . S
O141 C148 1.247 . S
O142 Co140 2.091 . S
O142 C148 1.261 . S
C143 O152 1.247 . S
C143 O153 1.272 . S
O144 Co140 2.004 . S
O144 C149 1.259 . S
Co145 O146 2.061 . S
Co145 O151 2.052 . S
Co145 O153 2.135 . S
O146 Co145 2.061 . S
O146 C149 1.235 . S
C147 O150 1.238 . S
C147 O151 1.241 . S
C148 O141 1.247 . S
C148 O142 1.261 . S
C149 O144 1.259 . S
C149 O146 1.235 . S
O150 Co140 2.021 . S
O150 C147 1.238 . S
O151 Co145 2.052 . S
O151 C147 1.241 . S
O152 Co140 2.137 . S
O152 C143 1.247 . S
O153 Co140 2.244 . S
O153 C143 1.272 . S
O153 Co145 2.135 . S
Co154 O155 2.216 . S
Co154 O156 2.091 . S
Co154 O158 2.004 . S
Co154 O164 2.021 . S
Co154 O166 2.137 . S
Co154 O167 2.244 . S
O155 Co154 2.216 . S
O155 C162 1.247 . S
O156 Co154 2.091 . S
O156 C162 1.261 . S
C157 O166 1.247 . S
C157 O167 1.272 . S
O158 Co154 2.004 . S
O158 C163 1.259 . S
Co159 O160 2.061 . S
Co159 O165 2.052 . S
Co159 O167 2.135 . S
O160 Co159 2.061 . S
O160 C163 1.235 . S
C161 O164 1.238 . S
C161 O165 1.241 . S
C162 O155 1.247 . S
C162 O156 1.261 . S
C163 O158 1.259 . S
C163 O160 1.235 . S
O164 Co154 2.021 . S
O164 C161 1.238 . S
O165 Co159 2.052 . S
O165 C161 1.241 . S
O166 Co154 2.137 . S
O166 C157 1.247 . S
O167 Co154 2.244 . S
O167 C157 1.272 . S
O167 Co159 2.135 . S
H168 C186 0.951 . S
H169 C188 0.951 . S
H170 C190 0.950 . S
H171 C191 0.950 . S
H172 C193 0.950 . S
H173 C196 0.950 . S
H174 C197 0.950 . S
H175 C199 0.950 . S
H176 C200 0.950 . S
H177 C201 0.951 . S
H178 C203 0.951 . S
H179 C205 0.950 . S
H180 C206 0.950 . S
H181 C208 0.950 . S
H182 C211 0.950 . S
H183 C212 0.950 . S
H184 C214 0.950 . S
H185 C215 0.950 . S
C186 H168 0.951 . S
C186 C187 1.366 . S
C186 C188 1.388 . S
C187 C186 1.366 . S
C187 C191 1.385 . S
C188 H169 0.951 . S
C188 C186 1.388 . S
C188 C189 1.366 . S
C189 C188 1.366 . S
C189 C190 1.414 . S
C189 C192 1.499 . S
C190 H170 0.950 . S
C190 C189 1.414 . S
C190 C191 1.374 . S
C191 H171 0.950 . S
C191 C187 1.385 . S
C191 C190 1.374 . S
C192 C189 1.499 . S
C192 C193 1.373 . S
C192 C194 1.389 . S
C193 H172 0.950 . S
C193 C192 1.373 . S
C193 C209 1.377 . S
C194 C192 1.389 . S
C194 C195 1.524 . S
C194 C208 1.377 . S
C195 C194 1.524 . S
C195 C196 1.397 . S
C195 C200 1.363 . S
C196 H173 0.950 . S
C196 C195 1.397 . S
C196 C197 1.334 . S
C197 H174 0.950 . S
C197 C196 1.334 . S
C197 C198 1.287 . S
C198 C197 1.287 . S
C198 C199 1.524 . S
C198 H217 0.913 . S
C199 H175 0.950 . S
C199 C198 1.524 . S
C199 C200 1.415 . S
C200 H176 0.950 . S
C200 C195 1.363 . S
C200 C199 1.415 . S
C201 H177 0.951 . S
C201 C202 1.366 . S
C201 C203 1.388 . S
C202 C201 1.366 . S
C202 C206 1.385 . S
C203 H178 0.951 . S
C203 C201 1.388 . S
C203 C204 1.366 . S
C204 C203 1.366 . S
C204 C205 1.414 . S
C204 C207 1.499 . S
C205 H179 0.950 . S
C205 C204 1.414 . S
C205 C206 1.374 . S
C206 H180 0.950 . S
C206 C202 1.385 . S
C206 C205 1.374 . S
C207 C204 1.499 . S
C207 C208 1.373 . S
C207 C209 1.389 . S
C208 H181 0.950 . S
C208 C194 1.377 . S
C208 C207 1.373 . S
C209 C193 1.377 . S
C209 C207 1.389 . S
C209 C210 1.524 . S
C210 C209 1.524 . S
C210 C211 1.397 . S
C210 C215 1.363 . S
C211 H182 0.950 . S
C211 C210 1.397 . S
C211 C212 1.334 . S
C212 H183 0.950 . S
C212 C211 1.334 . S
C212 C213 1.287 . S
C213 C212 1.287 . S
C213 C214 1.524 . S
C213 H216 0.999 . S
C214 H184 0.950 . S
C214 C213 1.524 . S
C214 C215 1.415 . S
C215 H185 0.950 . S
C215 C210 1.363 . S
C215 C214 1.415 . S
H216 C213 0.999 . S
H217 C198 0.913 . S
H218 C236 0.951 . S
H219 C238 0.951 . S
H220 C240 0.950 . S
H221 C241 0.950 . S
H222 C243 0.950 . S
H223 C246 0.950 . S
H224 C247 0.950 . S
H225 C249 0.950 . S
H226 C250 0.950 . S
H227 C251 0.951 . S
H228 C253 0.951 . S
H229 C255 0.950 . S
H230 C256 0.950 . S
H231 C258 0.950 . S
H232 C261 0.950 . S
H233 C262 0.950 . S
H234 C264 0.950 . S
H235 C265 0.950 . S
C236 H218 0.951 . S
C236 C237 1.366 . S
C236 C238 1.388 . S
C237 C236 1.366 . S
C237 C241 1.385 . S
C238 H219 0.951 . S
C238 C236 1.388 . S
C238 C239 1.366 . S
C239 C238 1.366 . S
C239 C240 1.414 . S
C239 C242 1.499 . S
C240 H220 0.950 . S
C240 C239 1.414 . S
C240 C241 1.374 . S
C241 H221 0.950 . S
C241 C237 1.385 . S
C241 C240 1.374 . S
C242 C239 1.499 . S
C242 C243 1.373 . S
C242 C244 1.389 . S
C243 H222 0.950 . S
C243 C242 1.373 . S
C243 C259 1.377 . S
C244 C242 1.389 . S
C244 C245 1.524 . S
C244 C258 1.377 . S
C245 C244 1.524 . S
C245 C246 1.397 . S
C245 C250 1.363 . S
C246 H223 0.950 . S
C246 C245 1.397 . S
C246 C247 1.334 . S
C247 H224 0.950 . S
C247 C246 1.334 . S
C247 C248 1.287 . S
C248 C247 1.287 . S
C248 C249 1.524 . S
C248 H267 0.913 . S
C249 H225 0.950 . S
C249 C248 1.524 . S
C249 C250 1.415 . S
C250 H226 0.950 . S
C250 C245 1.363 . S
C250 C249 1.415 . S
C251 H227 0.951 . S
C251 C252 1.366 . S
C251 C253 1.388 . S
C252 C251 1.366 . S
C252 C256 1.385 . S
C253 H228 0.951 . S
C253 C251 1.388 . S
C253 C254 1.366 . S
C254 C253 1.366 . S
C254 C255 1.414 . S
C254 C257 1.499 . S
C255 H229 0.950 . S
C255 C254 1.414 . S
C255 C256 1.374 . S
C256 H230 0.950 . S
C256 C252 1.385 . S
C256 C255 1.374 . S
C257 C254 1.499 . S
C257 C258 1.373 . S
C257 C259 1.389 . S
C258 H231 0.950 . S
C258 C244 1.377 . S
C258 C257 1.373 . S
C259 C243 1.377 . S
C259 C257 1.389 . S
C259 C260 1.524 . S
C260 C259 1.524 . S
C260 C261 1.397 . S
C260 C265 1.363 . S
C261 H232 0.950 . S
C261 C260 1.397 . S
C261 C262 1.334 . S
C262 H233 0.950 . S
C262 C261 1.334 . S
C262 C263 1.287 . S
C263 C262 1.287 . S
C263 C264 1.524 . S
C263 H266 0.999 . S
C264 H234 0.950 . S
C264 C263 1.524 . S
C264 C265 1.415 . S
C265 H235 0.950 . S
C265 C260 1.363 . S
C265 C264 1.415 . S
H266 C263 0.999 . S
H267 C248 0.913 . S
H268 C286 0.951 . S
H269 C288 0.951 . S
H270 C290 0.950 . S
H271 C291 0.950 . S
H272 C293 0.950 . S
H273 C296 0.950 . S
H274 C297 0.950 . S
H275 C299 0.950 . S
H276 C300 0.950 . S
H277 C301 0.951 . S
H278 C303 0.951 . S
H279 C305 0.950 . S
H280 C306 0.950 . S
H281 C308 0.950 . S
H282 C311 0.950 . S
H283 C312 0.950 . S
H284 C314 0.950 . S
H285 C315 0.950 . S
C286 H268 0.951 . S
C286 C287 1.366 . S
C286 C288 1.388 . S
C287 C286 1.366 . S
C287 C291 1.385 . S
C288 H269 0.951 . S
C288 C286 1.388 . S
C288 C289 1.366 . S
C289 C288 1.366 . S
C289 C290 1.414 . S
C289 C292 1.499 . S
C290 H270 0.950 . S
C290 C289 1.414 . S
C290 C291 1.374 . S
C291 H271 0.950 . S
C291 C287 1.385 . S
C291 C290 1.374 . S
C292 C289 1.499 . S
C292 C293 1.373 . S
C292 C294 1.389 . S
C293 H272 0.950 . S
C293 C292 1.373 . S
C293 C309 1.377 . S
C294 C292 1.389 . S
C294 C295 1.524 . S
C294 C308 1.377 . S
C295 C294 1.524 . S
C295 C296 1.397 . S
C295 C300 1.363 . S
C296 H273 0.950 . S
C296 C295 1.397 . S
C296 C297 1.334 . S
C297 H274 0.950 . S
C297 C296 1.334 . S
C297 C298 1.287 . S
C298 C297 1.287 . S
C298 C299 1.524 . S
C298 H317 0.913 . S
C299 H275 0.950 . S
C299 C298 1.524 . S
C299 C300 1.415 . S
C300 H276 0.950 . S
C300 C295 1.363 . S
C300 C299 1.415 . S
C301 H277 0.951 . S
C301 C302 1.366 . S
C301 C303 1.388 . S
C302 C301 1.366 . S
C302 C306 1.385 . S
C303 H278 0.951 . S
C303 C301 1.388 . S
C303 C304 1.366 . S
C304 C303 1.366 . S
C304 C305 1.414 . S
C304 C307 1.499 . S
C305 H279 0.950 . S
C305 C304 1.414 . S
C305 C306 1.374 . S
C306 H280 0.950 . S
C306 C302 1.385 . S
C306 C305 1.374 . S
C307 C304 1.499 . S
C307 C308 1.373 . S
C307 C309 1.389 . S
C308 H281 0.950 . S
C308 C294 1.377 . S
C308 C307 1.373 . S
C309 C293 1.377 . S
C309 C307 1.389 . S
C309 C310 1.524 . S
C310 C309 1.524 . S
C310 C311 1.397 . S
C310 C315 1.363 . S
C311 H282 0.950 . S
C311 C310 1.397 . S
C311 C312 1.334 . S
C312 H283 0.950 . S
C312 C311 1.334 . S
C312 C313 1.287 . S
C313 C312 1.287 . S
C313 C314 1.524 . S
C313 H316 0.999 . S
C314 H284 0.950 . S
C314 C313 1.524 . S
C314 C315 1.415 . S
C315 H285 0.950 . S
C315 C310 1.363 . S
C315 C314 1.415 . S
H316 C313 0.999 . S
H317 C298 0.913 . S
H318 C336 0.951 . S
H319 C338 0.951 . S
H320 C340 0.950 . S
H321 C341 0.950 . S
H322 C343 0.950 . S
H323 C346 0.950 . S
H324 C347 0.950 . S
H325 C349 0.950 . S
H326 C350 0.950 . S
H327 C351 0.951 . S
H328 C353 0.951 . S
H329 C355 0.950 . S
H330 C356 0.950 . S
H331 C358 0.950 . S
H332 C361 0.950 . S
H333 C362 0.950 . S
H334 C364 0.950 . S
H335 C365 0.950 . S
C336 H318 0.951 . S
C336 C337 1.366 . S
C336 C338 1.388 . S
C337 C336 1.366 . S
C337 C341 1.385 . S
C338 H319 0.951 . S
C338 C336 1.388 . S
C338 C339 1.366 . S
C339 C338 1.366 . S
C339 C340 1.414 . S
C339 C342 1.499 . S
C340 H320 0.950 . S
C340 C339 1.414 . S
C340 C341 1.374 . S
C341 H321 0.950 . S
C341 C337 1.385 . S
C341 C340 1.374 . S
C342 C339 1.499 . S
C342 C343 1.373 . S
C342 C344 1.389 . S
C343 H322 0.950 . S
C343 C342 1.373 . S
C343 C359 1.377 . S
C344 C342 1.389 . S
C344 C345 1.524 . S
C344 C358 1.377 . S
C345 C344 1.524 . S
C345 C346 1.397 . S
C345 C350 1.363 . S
C346 H323 0.950 . S
C346 C345 1.397 . S
C346 C347 1.334 . S
C347 H324 0.950 . S
C347 C346 1.334 . S
C347 C348 1.287 . S
C348 C347 1.287 . S
C348 C349 1.524 . S
C348 H367 0.913 . S
C349 H325 0.950 . S
C349 C348 1.524 . S
C349 C350 1.415 . S
C350 H326 0.950 . S
C350 C345 1.363 . S
C350 C349 1.415 . S
C351 H327 0.951 . S
C351 C352 1.366 . S
C351 C353 1.388 . S
C352 C351 1.366 . S
C352 C356 1.385 . S
C353 H328 0.951 . S
C353 C351 1.388 . S
C353 C354 1.366 . S
C354 C353 1.366 . S
C354 C355 1.414 . S
C354 C357 1.499 . S
C355 H329 0.950 . S
C355 C354 1.414 . S
C355 C356 1.374 . S
C356 H330 0.950 . S
C356 C352 1.385 . S
C356 C355 1.374 . S
C357 C354 1.499 . S
C357 C358 1.373 . S
C357 C359 1.389 . S
C358 H331 0.950 . S
C358 C344 1.377 . S
C358 C357 1.373 . S
C359 C343 1.377 . S
C359 C357 1.389 . S
C359 C360 1.524 . S
C360 C359 1.524 . S
C360 C361 1.397 . S
C360 C365 1.363 . S
C361 H332 0.950 . S
C361 C360 1.397 . S
C361 C362 1.334 . S
C362 H333 0.950 . S
C362 C361 1.334 . S
C362 C363 1.287 . S
C363 C362 1.287 . S
C363 C364 1.524 . S
C363 H366 0.999 . S
C364 H334 0.950 . S
C364 C363 1.524 . S
C364 C365 1.415 . S
C365 H335 0.950 . S
C365 C360 1.363 . S
C365 C364 1.415 . S
H366 C363 0.999 . S
H367 C348 0.913 . S
H368 C386 0.951 . S
H369 C388 0.951 . S
H370 C390 0.950 . S
H371 C391 0.950 . S
H372 C393 0.950 1_554 S
H373 C396 0.950 . S
H374 C397 0.950 . S
H375 C399 0.950 . S
H376 C400 0.950 . S
H377 C401 0.951 . S
H378 C403 0.951 . S
H379 C405 0.950 . S
H380 C406 0.950 . S
H381 C408 0.950 . S
H382 C411 0.950 . S
H383 C412 0.950 . S
H384 C414 0.950 . S
H385 C415 0.950 . S
C386 H368 0.951 . S
C386 C387 1.366 . S
C386 C388 1.388 . S
C387 C386 1.366 . S
C387 C391 1.385 . S
C388 H369 0.951 . S
C388 C386 1.388 . S
C388 C389 1.366 . S
C389 C388 1.366 . S
C389 C390 1.414 . S
C389 C392 1.499 . S
C390 H370 0.950 . S
C390 C389 1.414 . S
C390 C391 1.374 . S
C391 H371 0.950 . S
C391 C387 1.385 . S
C391 C390 1.374 . S
C392 C389 1.499 . S
C392 C393 1.373 1_554 S
C392 C394 1.389 1_554 S
C393 H372 0.950 1_556 S
C393 C392 1.373 1_556 S
C393 C409 1.377 . S
C394 C392 1.389 1_556 S
C394 C395 1.524 . S
C394 C408 1.377 . S
C395 C394 1.524 . S
C395 C396 1.397 1_556 S
C395 C400 1.363 . S
C396 H373 0.950 . S
C396 C395 1.397 1_554 S
C396 C397 1.334 . S
C397 H374 0.950 . S
C397 C396 1.334 . S
C397 C398 1.287 . S
C398 C397 1.287 . S
C398 C399 1.524 . S
C398 H417 0.913 . S
C399 H375 0.950 . S
C399 C398 1.524 . S
C399 C400 1.415 1_554 S
C400 H376 0.950 . S
C400 C395 1.363 . S
C400 C399 1.415 1_556 S
C401 H377 0.951 . S
C401 C402 1.366 . S
C401 C403 1.388 . S
C402 C401 1.366 . S
C402 C406 1.385 . S
C403 H378 0.951 . S
C403 C401 1.388 . S
C403 C404 1.366 . S
C404 C403 1.366 . S
C404 C405 1.414 . S
C404 C407 1.499 . S
C405 H379 0.950 . S
C405 C404 1.414 . S
C405 C406 1.374 . S
C406 H380 0.950 . S
C406 C402 1.385 . S
C406 C405 1.374 . S
C407 C404 1.499 . S
C407 C408 1.373 . S
C407 C409 1.389 . S
C408 H381 0.950 . S
C408 C394 1.377 . S
C408 C407 1.373 . S
C409 C393 1.377 . S
C409 C407 1.389 . S
C409 C410 1.524 . S
C410 C409 1.524 . S
C410 C411 1.397 . S
C410 C415 1.363 . S
C411 H382 0.950 . S
C411 C410 1.397 . S
C411 C412 1.334 . S
C412 H383 0.950 . S
C412 C411 1.334 . S
C412 C413 1.287 . S
C413 C412 1.287 . S
C413 C414 1.524 . S
C413 H416 0.999 . S
C414 H384 0.950 . S
C414 C413 1.524 . S
C414 C415 1.415 . S
C415 H385 0.950 . S
C415 C410 1.363 . S
C415 C414 1.415 . S
H416 C413 0.999 . S
H417 C398 0.913 . S
H418 C436 0.951 . S
H419 C438 0.951 . S
H420 C440 0.950 . S
H421 C441 0.950 . S
H422 C443 0.950 . S
H423 C446 0.950 . S
H424 C447 0.950 . S
H425 C449 0.950 . S
H426 C450 0.950 . S
H427 C451 0.951 . S
H428 C453 0.951 . S
H429 C455 0.950 . S
H430 C456 0.950 . S
H431 C458 0.950 . S
H432 C461 0.950 . S
H433 C462 0.950 . S
H434 C464 0.950 . S
H435 C465 0.950 . S
C436 H418 0.951 . S
C436 C437 1.366 . S
C436 C438 1.388 . S
C437 C436 1.366 . S
C437 C441 1.385 . S
C438 H419 0.951 . S
C438 C436 1.388 . S
C438 C439 1.366 . S
C439 C438 1.366 . S
C439 C440 1.414 . S
C439 C442 1.499 . S
C440 H420 0.950 . S
C440 C439 1.414 . S
C440 C441 1.374 . S
C441 H421 0.950 . S
C441 C437 1.385 . S
C441 C440 1.374 . S
C442 C439 1.499 . S
C442 C443 1.373 . S
C442 C444 1.389 . S
C443 H422 0.950 . S
C443 C442 1.373 . S
C443 C459 1.377 . S
C444 C442 1.389 . S
C444 C445 1.524 . S
C444 C458 1.377 . S
C445 C444 1.524 . S
C445 C446 1.397 . S
C445 C450 1.363 . S
C446 H423 0.950 . S
C446 C445 1.397 . S
C446 C447 1.334 . S
C447 H424 0.950 . S
C447 C446 1.334 . S
C447 C448 1.287 . S
C448 C447 1.287 . S
C448 C449 1.524 . S
C448 H467 0.913 . S
C449 H425 0.950 . S
C449 C448 1.524 . S
C449 C450 1.415 . S
C450 H426 0.950 . S
C450 C445 1.363 . S
C450 C449 1.415 . S
C451 H427 0.951 . S
C451 C452 1.366 . S
C451 C453 1.388 1_556 S
C452 C451 1.366 . S
C452 C456 1.385 1_556 S
C453 H428 0.951 . S
C453 C451 1.388 1_554 S
C453 C454 1.366 . S
C454 C453 1.366 . S
C454 C455 1.414 . S
C454 C457 1.499 . S
C455 H429 0.950 . S
C455 C454 1.414 . S
C455 C456 1.374 . S
C456 H430 0.950 . S
C456 C452 1.385 1_554 S
C456 C455 1.374 . S
C457 C454 1.499 . S
C457 C458 1.373 . S
C457 C459 1.389 . S
C458 H431 0.950 . S
C458 C444 1.377 . S
C458 C457 1.373 . S
C459 C443 1.377 . S
C459 C457 1.389 . S
C459 C460 1.524 . S
C460 C459 1.524 . S
C460 C461 1.397 . S
C460 C465 1.363 . S
C461 H432 0.950 . S
C461 C460 1.397 . S
C461 C462 1.334 . S
C462 H433 0.950 . S
C462 C461 1.334 . S
C462 C463 1.287 . S
C463 C462 1.287 . S
C463 C464 1.524 . S
C463 H466 0.999 . S
C464 H434 0.950 . S
C464 C463 1.524 . S
C464 C465 1.415 . S
C465 H435 0.950 . S
C465 C460 1.363 . S
C465 C464 1.415 . S
H466 C463 0.999 . S
H467 C448 0.913 . S
H468 C486 0.951 . S
H469 C488 0.951 . S
H470 C490 0.950 . S
H471 C491 0.950 . S
H472 C493 0.950 . S
H473 C496 0.950 . S
H474 C497 0.950 . S
H475 C499 0.950 . S
H476 C500 0.950 . S
H477 C501 0.951 . S
H478 C503 0.951 . S
H479 C505 0.950 . S
H480 C506 0.950 . S
H481 C508 0.950 . S
H482 C511 0.950 . S
H483 C512 0.950 . S
H484 C514 0.950 . S
H485 C515 0.950 . S
C486 H468 0.951 . S
C486 C487 1.366 . S
C486 C488 1.388 . S
C487 C486 1.366 . S
C487 C491 1.385 . S
C488 H469 0.951 . S
C488 C486 1.388 . S
C488 C489 1.366 . S
C489 C488 1.366 . S
C489 C490 1.414 . S
C489 C492 1.499 . S
C490 H470 0.950 . S
C490 C489 1.414 . S
C490 C491 1.374 . S
C491 H471 0.950 . S
C491 C487 1.385 . S
C491 C490 1.374 . S
C492 C489 1.499 . S
C492 C493 1.373 . S
C492 C494 1.389 . S
C493 H472 0.950 . S
C493 C492 1.373 . S
C493 C509 1.377 . S
C494 C492 1.389 . S
C494 C495 1.524 . S
C494 C508 1.377 . S
C495 C494 1.524 . S
C495 C496 1.397 . S
C495 C500 1.363 . S
C496 H473 0.950 . S
C496 C495 1.397 . S
C496 C497 1.334 . S
C497 H474 0.950 . S
C497 C496 1.334 . S
C497 C498 1.287 . S
C498 C497 1.287 . S
C498 C499 1.524 . S
C498 H517 0.913 . S
C499 H475 0.950 . S
C499 C498 1.524 . S
C499 C500 1.415 . S
C500 H476 0.950 . S
C500 C495 1.363 . S
C500 C499 1.415 . S
C501 H477 0.951 . S
C501 C502 1.366 . S
C501 C503 1.388 . S
C502 C501 1.366 . S
C502 C506 1.385 . S
C503 H478 0.951 . S
C503 C501 1.388 . S
C503 C504 1.366 . S
C504 C503 1.366 . S
C504 C505 1.414 . S
C504 C507 1.499 . S
C505 H479 0.950 . S
C505 C504 1.414 . S
C505 C506 1.374 . S
C506 H480 0.950 . S
C506 C502 1.385 . S
C506 C505 1.374 . S
C507 C504 1.499 . S
C507 C508 1.373 . S
C507 C509 1.389 . S
C508 H481 0.950 . S
C508 C494 1.377 . S
C508 C507 1.373 . S
C509 C493 1.377 . S
C509 C507 1.389 . S
C509 C510 1.524 . S
C510 C509 1.524 . S
C510 C511 1.397 . S
C510 C515 1.363 . S
C511 H482 0.950 . S
C511 C510 1.397 . S
C511 C512 1.334 . S
C512 H483 0.950 . S
C512 C511 1.334 . S
C512 C513 1.287 . S
C513 C512 1.287 . S
C513 C514 1.524 . S
C513 H516 0.999 . S
C514 H484 0.950 . S
C514 C513 1.524 . S
C514 C515 1.415 . S
C515 H485 0.950 . S
C515 C510 1.363 . S
C515 C514 1.415 . S
H516 C513 0.999 . S
H517 C498 0.913 . S
H518 C536 0.951 . S
H519 C538 0.951 . S
H520 C540 0.950 . S
H521 C541 0.950 . S
H522 C543 0.950 . S
H523 C546 0.950 . S
H524 C547 0.950 . S
H525 C549 0.950 . S
H526 C550 0.950 . S
H527 C551 0.951 . S
H528 C553 0.951 . S
H529 C555 0.950 . S
H530 C556 0.950 . S
H531 C558 0.950 . S
H532 C561 0.950 . S
H533 C562 0.950 . S
H534 C564 0.950 . S
H535 C565 0.950 . S
C536 H518 0.951 . S
C536 C537 1.366 . S
C536 C538 1.388 . S
C537 C536 1.366 . S
C537 C541 1.385 . S
C538 H519 0.951 . S
C538 C536 1.388 . S
C538 C539 1.366 . S
C539 C538 1.366 . S
C539 C540 1.414 . S
C539 C542 1.499 . S
C540 H520 0.950 . S
C540 C539 1.414 . S
C540 C541 1.374 . S
C541 H521 0.950 . S
C541 C537 1.385 . S
C541 C540 1.374 . S
C542 C539 1.499 . S
C542 C543 1.373 . S
C542 C544 1.389 . S
C543 H522 0.950 . S
C543 C542 1.373 . S
C543 C559 1.377 . S
C544 C542 1.389 . S
C544 C545 1.524 . S
C544 C558 1.377 . S
C545 C544 1.524 . S
C545 C546 1.397 . S
C545 C550 1.363 . S
C546 H523 0.950 . S
C546 C545 1.397 . S
C546 C547 1.334 . S
C547 H524 0.950 . S
C547 C546 1.334 . S
C547 C548 1.287 . S
C548 C547 1.287 . S
C548 C549 1.524 . S
C548 H567 0.913 . S
C549 H525 0.950 . S
C549 C548 1.524 . S
C549 C550 1.415 . S
C550 H526 0.950 . S
C550 C545 1.363 . S
C550 C549 1.415 . S
C551 H527 0.951 . S
C551 C552 1.366 . S
C551 C553 1.388 . S
C552 C551 1.366 . S
C552 C556 1.385 . S
C553 H528 0.951 . S
C553 C551 1.388 . S
C553 C554 1.366 . S
C554 C553 1.366 . S
C554 C555 1.414 . S
C554 C557 1.499 . S
C555 H529 0.950 . S
C555 C554 1.414 . S
C555 C556 1.374 . S
C556 H530 0.950 . S
C556 C552 1.385 . S
C556 C555 1.374 . S
C557 C554 1.499 . S
C557 C558 1.373 . S
C557 C559 1.389 . S
C558 H531 0.950 . S
C558 C544 1.377 . S
C558 C557 1.373 . S
C559 C543 1.377 . S
C559 C557 1.389 . S
C559 C560 1.524 . S
C560 C559 1.524 . S
C560 C561 1.397 . S
C560 C565 1.363 . S
C561 H532 0.950 . S
C561 C560 1.397 . S
C561 C562 1.334 . S
C562 H533 0.950 . S
C562 C561 1.334 . S
C562 C563 1.287 . S
C563 C562 1.287 . S
C563 C564 1.524 . S
C563 H566 0.999 . S
C564 H534 0.950 . S
C564 C563 1.524 . S
C564 C565 1.415 . S
C565 H535 0.950 . S
C565 C560 1.363 . S
C565 C564 1.415 . S
H566 C563 0.999 . S
H567 C548 0.913 . S
H568 C586 0.951 . S
H569 C588 0.951 . S
H570 C590 0.950 . S
H571 C591 0.950 . S
H572 C593 0.950 . S
H573 C596 0.950 . S
H574 C597 0.950 . S
H575 C599 0.950 . S
H576 C600 0.950 . S
H577 C601 0.951 . S
H578 C603 0.951 . S
H579 C605 0.950 . S
H580 C606 0.950 . S
H581 C608 0.950 . S
H582 C611 0.950 . S
H583 C612 0.950 . S
H584 C614 0.950 . S
H585 C615 0.950 . S
C586 H568 0.951 . S
C586 C587 1.366 . S
C586 C588 1.388 . S
C587 C586 1.366 . S
C587 C591 1.385 . S
C588 H569 0.951 . S
C588 C586 1.388 . S
C588 C589 1.366 . S
C589 C588 1.366 . S
C589 C590 1.414 . S
C589 C592 1.499 . S
C590 H570 0.950 . S
C590 C589 1.414 . S
C590 C591 1.374 . S
C591 H571 0.950 . S
C591 C587 1.385 . S
C591 C590 1.374 . S
C592 C589 1.499 . S
C592 C593 1.373 . S
C592 C594 1.389 . S
C593 H572 0.950 . S
C593 C592 1.373 . S
C593 C609 1.377 . S
C594 C592 1.389 . S
C594 C595 1.524 . S
C594 C608 1.377 . S
C595 C594 1.524 . S
C595 C596 1.397 . S
C595 C600 1.363 . S
C596 H573 0.950 . S
C596 C595 1.397 . S
C596 C597 1.334 . S
C597 H574 0.950 . S
C597 C596 1.334 . S
C597 C598 1.287 . S
C598 C597 1.287 . S
C598 C599 1.524 . S
C598 H617 0.913 . S
C599 H575 0.950 . S
C599 C598 1.524 . S
C599 C600 1.415 . S
C600 H576 0.950 . S
C600 C595 1.363 . S
C600 C599 1.415 . S
C601 H577 0.951 . S
C601 C602 1.366 . S
C601 C603 1.388 . S
C602 C601 1.366 . S
C602 C606 1.385 . S
C603 H578 0.951 . S
C603 C601 1.388 . S
C603 C604 1.366 . S
C604 C603 1.366 . S
C604 C605 1.414 . S
C604 C607 1.499 . S
C605 H579 0.950 . S
C605 C604 1.414 . S
C605 C606 1.374 . S
C606 H580 0.950 . S
C606 C602 1.385 . S
C606 C605 1.374 . S
C607 C604 1.499 . S
C607 C608 1.373 . S
C607 C609 1.389 . S
C608 H581 0.950 . S
C608 C594 1.377 . S
C608 C607 1.373 . S
C609 C593 1.377 . S
C609 C607 1.389 . S
C609 C610 1.524 . S
C610 C609 1.524 . S
C610 C611 1.397 . S
C610 C615 1.363 . S
C611 H582 0.950 . S
C611 C610 1.397 . S
C611 C612 1.334 . S
C612 H583 0.950 . S
C612 C611 1.334 . S
C612 C613 1.287 . S
C613 C612 1.287 . S
C613 C614 1.524 . S
C613 H616 0.999 . S
C614 H584 0.950 . S
C614 C613 1.524 . S
C614 C615 1.415 . S
C615 H585 0.950 . S
C615 C610 1.363 . S
C615 C614 1.415 . S
H616 C613 0.999 . S
H617 C598 0.913 . S
H618 C636 0.951 . S
H619 C638 0.951 . S
H620 C640 0.950 . S
H621 C641 0.950 . S
H622 C643 0.950 . S
H623 C646 0.950 . S
H624 C647 0.950 . S
H625 C649 0.950 . S
H626 C650 0.950 . S
H627 C651 0.951 . S
H628 C653 0.951 . S
H629 C655 0.950 . S
H630 C656 0.950 . S
H631 C658 0.950 . S
H632 C661 0.950 . S
H633 C662 0.950 . S
H634 C664 0.950 . S
H635 C665 0.950 . S
C636 H618 0.951 . S
C636 C637 1.366 . S
C636 C638 1.388 . S
C637 C636 1.366 . S
C637 C641 1.385 . S
C638 H619 0.951 . S
C638 C636 1.388 . S
C638 C639 1.366 . S
C639 C638 1.366 . S
C639 C640 1.414 . S
C639 C642 1.499 . S
C640 H620 0.950 . S
C640 C639 1.414 . S
C640 C641 1.374 . S
C641 H621 0.950 . S
C641 C637 1.385 . S
C641 C640 1.374 . S
C642 C639 1.499 . S
C642 C643 1.373 . S
C642 C644 1.389 . S
C643 H622 0.950 . S
C643 C642 1.373 . S
C643 C659 1.377 . S
C644 C642 1.389 . S
C644 C645 1.524 . S
C644 C658 1.377 . S
C645 C644 1.524 . S
C645 C646 1.397 . S
C645 C650 1.363 . S
C646 H623 0.950 . S
C646 C645 1.397 . S
C646 C647 1.334 . S
C647 H624 0.950 . S
C647 C646 1.334 . S
C647 C648 1.287 . S
C648 C647 1.287 . S
C648 C649 1.524 . S
C648 H667 0.913 . S
C649 H625 0.950 . S
C649 C648 1.524 . S
C649 C650 1.415 . S
C650 H626 0.950 . S
C650 C645 1.363 . S
C650 C649 1.415 . S
C651 H627 0.951 . S
C651 C652 1.366 . S
C651 C653 1.388 . S
C652 C651 1.366 . S
C652 C656 1.385 . S
C653 H628 0.951 . S
C653 C651 1.388 . S
C653 C654 1.366 . S
C654 C653 1.366 . S
C654 C655 1.414 . S
C654 C657 1.499 . S
C655 H629 0.950 . S
C655 C654 1.414 . S
C655 C656 1.374 . S
C656 H630 0.950 . S
C656 C652 1.385 . S
C656 C655 1.374 . S
C657 C654 1.499 . S
C657 C658 1.373 . S
C657 C659 1.389 . S
C658 H631 0.950 . S
C658 C644 1.377 . S
C658 C657 1.373 . S
C659 C643 1.377 . S
C659 C657 1.389 . S
C659 C660 1.524 . S
C660 C659 1.524 . S
C660 C661 1.397 . S
C660 C665 1.363 . S
C661 H632 0.950 . S
C661 C660 1.397 . S
C661 C662 1.334 . S
C662 H633 0.950 . S
C662 C661 1.334 . S
C662 C663 1.287 . S
C663 C662 1.287 . S
C663 C664 1.524 . S
C663 H666 0.999 . S
C664 H634 0.950 . S
C664 C663 1.524 . S
C664 C665 1.415 . S
C665 H635 0.950 . S
C665 C660 1.363 . S
C665 C664 1.415 . S
H666 C663 0.999 . S
H667 C648 0.913 . S
H668 C686 0.951 . S
H669 C688 0.951 . S
H670 C690 0.950 . S
H671 C691 0.950 . S
H672 C693 0.950 . S
H673 C696 0.950 . S
H674 C697 0.950 . S
H675 C699 0.950 . S
H676 C700 0.950 . S
H677 C701 0.951 . S
H678 C703 0.951 . S
H679 C705 0.950 . S
H680 C706 0.950 . S
H681 C708 0.950 . S
H682 C711 0.950 . S
H683 C712 0.950 . S
H684 C714 0.950 . S
H685 C715 0.950 . S
C686 H668 0.951 . S
C686 C687 1.366 . S
C686 C688 1.388 . S
C687 C686 1.366 . S
C687 C691 1.385 . S
C688 H669 0.951 . S
C688 C686 1.388 . S
C688 C689 1.366 . S
C689 C688 1.366 . S
C689 C690 1.414 . S
C689 C692 1.499 . S
C690 H670 0.950 . S
C690 C689 1.414 . S
C690 C691 1.374 . S
C691 H671 0.950 . S
C691 C687 1.385 . S
C691 C690 1.374 . S
C692 C689 1.499 . S
C692 C693 1.373 . S
C692 C694 1.389 . S
C693 H672 0.950 . S
C693 C692 1.373 . S
C693 C709 1.377 . S
C694 C692 1.389 . S
C694 C695 1.524 . S
C694 C708 1.377 . S
C695 C694 1.524 . S
C695 C696 1.397 . S
C695 C700 1.363 . S
C696 H673 0.950 . S
C696 C695 1.397 . S
C696 C697 1.334 . S
C697 H674 0.950 . S
C697 C696 1.334 . S
C697 C698 1.287 . S
C698 C697 1.287 . S
C698 C699 1.524 . S
C698 H717 0.913 . S
C699 H675 0.950 . S
C699 C698 1.524 . S
C699 C700 1.415 . S
C700 H676 0.950 . S
C700 C695 1.363 . S
C700 C699 1.415 . S
C701 H677 0.951 . S
C701 C702 1.366 . S
C701 C703 1.388 . S
C702 C701 1.366 . S
C702 C706 1.385 . S
C703 H678 0.951 . S
C703 C701 1.388 . S
C703 C704 1.366 . S
C704 C703 1.366 . S
C704 C705 1.414 . S
C704 C707 1.499 . S
C705 H679 0.950 . S
C705 C704 1.414 . S
C705 C706 1.374 . S
C706 H680 0.950 . S
C706 C702 1.385 . S
C706 C705 1.374 . S
C707 C704 1.499 . S
C707 C708 1.373 . S
C707 C709 1.389 . S
C708 H681 0.950 . S
C708 C694 1.377 . S
C708 C707 1.373 . S
C709 C693 1.377 . S
C709 C707 1.389 . S
C709 C710 1.524 . S
C710 C709 1.524 . S
C710 C711 1.397 . S
C710 C715 1.363 . S
C711 H682 0.950 . S
C711 C710 1.397 . S
C711 C712 1.334 . S
C712 H683 0.950 . S
C712 C711 1.334 . S
C712 C713 1.287 . S
C713 C712 1.287 . S
C713 C714 1.524 . S
C713 H716 0.999 . S
C714 H684 0.950 . S
C714 C713 1.524 . S
C714 C715 1.415 . S
C715 H685 0.950 . S
C715 C710 1.363 . S
C715 C714 1.415 . S
H716 C713 0.999 . S
H717 C698 0.913 . S
H718 C736 0.951 . S
H719 C738 0.951 . S
H720 C740 0.950 . S
H721 C741 0.950 . S
H722 C743 0.950 . S
H723 C746 0.950 . S
H724 C747 0.950 . S
H725 C749 0.950 . S
H726 C750 0.950 . S
H727 C751 0.951 . S
H728 C753 0.951 1_556 S
H729 C755 0.950 . S
H730 C756 0.950 . S
H731 C758 0.950 . S
H732 C761 0.950 . S
H733 C762 0.950 . S
H734 C764 0.950 . S
H735 C765 0.965 . S
C736 H718 0.951 . S
C736 C737 1.366 . S
C736 C738 1.388 . S
C737 C736 1.366 . S
C737 C741 1.385 . S
C738 H719 0.951 . S
C738 C736 1.388 . S
C738 C739 1.366 . S
C739 C738 1.366 . S
C739 C740 1.414 . S
C739 C742 1.499 . S
C740 H720 0.950 . S
C740 C739 1.414 . S
C740 C741 1.374 . S
C741 H721 0.950 . S
C741 C737 1.385 . S
C741 C740 1.374 . S
C742 C739 1.499 . S
C742 C743 1.373 . S
C742 C744 1.389 . S
C743 H722 0.950 . S
C743 C742 1.373 . S
C743 C759 1.370 1_556 S
C744 C742 1.389 . S
C744 C745 1.524 . S
C744 C758 1.377 . S
C745 C744 1.524 . S
C745 C746 1.397 . S
C745 C750 1.363 . S
C746 H723 0.950 . S
C746 C745 1.397 . S
C746 C747 1.334 . S
C747 H724 0.950 . S
C747 C746 1.334 . S
C747 C748 1.287 . S
C748 C747 1.287 . S
C748 C749 1.524 . S
C748 H767 0.913 . S
C749 H725 0.950 . S
C749 C748 1.524 . S
C749 C750 1.415 . S
C750 H726 0.950 . S
C750 C745 1.363 . S
C750 C749 1.415 . S
C751 H727 0.951 . S
C751 C752 1.366 . S
C751 C753 1.388 . S
C752 C751 1.366 . S
C752 C756 1.385 . S
C753 H728 0.951 1_554 S
C753 C751 1.388 . S
C753 C754 1.366 . S
C754 C753 1.366 . S
C754 C755 1.414 . S
C754 C757 1.499 1_554 S
C755 H729 0.950 . S
C755 C754 1.414 . S
C755 C756 1.374 . S
C756 H730 0.950 . S
C756 C752 1.385 . S
C756 C755 1.374 . S
C757 C754 1.499 1_556 S
C757 C758 1.373 . S
C757 C759 1.386 1_556 S
C758 H731 0.950 . S
C758 C744 1.377 . S
C758 C757 1.373 . S
C759 C743 1.370 1_554 S
C759 C757 1.386 1_554 S
C759 C760 1.535 . S
C760 C759 1.535 . S
C760 C761 1.397 . S
C760 C765 1.363 . S
C761 H732 0.950 . S
C761 C760 1.397 . S
C761 C762 1.334 . S
C762 H733 0.950 . S
C762 C761 1.334 . S
C762 C763 1.287 . S
C763 C762 1.287 . S
C763 C764 1.524 . S
C763 H766 0.999 . S
C764 H734 0.950 . S
C764 C763 1.524 . S
C764 C765 1.415 . S
C765 H735 0.965 . S
C765 C760 1.363 . S
C765 C764 1.415 . S
H766 C763 0.999 . S
H767 C748 0.913 . S
H768 C786 0.951 . S
H769 C788 0.951 . S
H770 C790 0.950 . S
H771 C791 0.950 . S
H772 C793 0.950 . S
H773 C796 0.950 . S
H774 C797 0.950 . S
H775 C799 0.950 . S
H776 C800 0.950 . S
H777 C801 0.951 . S
H778 C803 0.951 . S
H779 C805 0.950 . S
H780 C806 0.950 . S
H781 C808 0.950 . S
H782 C811 0.950 . S
H783 C812 0.950 . S
H784 C814 0.950 . S
H785 C815 0.950 . S
C786 H768 0.951 . S
C786 C787 1.366 . S
C786 C788 1.388 . S
C787 C786 1.366 . S
C787 C791 1.385 . S
C788 H769 0.951 . S
C788 C786 1.388 . S
C788 C789 1.366 . S
C789 C788 1.366 . S
C789 C790 1.414 . S
C789 C792 1.499 . S
C790 H770 0.950 . S
C790 C789 1.414 . S
C790 C791 1.374 . S
C791 H771 0.950 . S
C791 C787 1.385 . S
C791 C790 1.374 . S
C792 C789 1.499 . S
C792 C793 1.373 . S
C792 C794 1.389 . S
C793 H772 0.950 . S
C793 C792 1.373 . S
C793 C809 1.377 . S
C794 C792 1.389 . S
C794 C795 1.524 . S
C794 C808 1.377 . S
C795 C794 1.524 . S
C795 C796 1.397 . S
C795 C800 1.363 . S
C796 H773 0.950 . S
C796 C795 1.397 . S
C796 C797 1.334 . S
C797 H774 0.950 . S
C797 C796 1.334 . S
C797 C798 1.287 . S
C798 C797 1.287 . S
C798 C799 1.524 . S
C798 H817 0.913 . S
C799 H775 0.950 . S
C799 C798 1.524 . S
C799 C800 1.415 . S
C800 H776 0.950 . S
C800 C795 1.363 . S
C800 C799 1.415 . S
C801 H777 0.951 . S
C801 C802 1.366 . S
C801 C803 1.388 . S
C802 C801 1.366 . S
C802 C806 1.385 . S
C803 H778 0.951 . S
C803 C801 1.388 . S
C803 C804 1.366 . S
C804 C803 1.366 . S
C804 C805 1.414 . S
C804 C807 1.499 . S
C805 H779 0.950 . S
C805 C804 1.414 . S
C805 C806 1.374 . S
C806 H780 0.950 . S
C806 C802 1.385 . S
C806 C805 1.374 . S
C807 C804 1.499 . S
C807 C808 1.373 . S
C807 C809 1.389 . S
C808 H781 0.950 . S
C808 C794 1.377 . S
C808 C807 1.373 . S
C809 C793 1.377 . S
C809 C807 1.389 . S
C809 C810 1.524 . S
C810 C809 1.524 . S
C810 C811 1.397 . S
C810 C815 1.363 . S
C811 H782 0.950 . S
C811 C810 1.397 . S
C811 C812 1.334 . S
C812 H783 0.950 . S
C812 C811 1.334 . S
C812 C813 1.287 . S
C813 C812 1.287 . S
C813 C814 1.524 . S
C813 H816 0.999 . S
C814 H784 0.950 . S
C814 C813 1.524 . S
C814 C815 1.415 . S
C815 H785 0.950 . S
C815 C810 1.363 . S
C815 C814 1.415 . S
H816 C813 0.999 . S
H817 C798 0.913 . S
H818 C836 0.951 . S
H819 C838 0.951 . S
H820 C840 0.950 . S
H821 C841 0.950 . S
H822 C843 0.950 . S
H823 C846 0.950 . S
H824 C847 0.950 . S
H825 C849 0.950 1_554 S
H826 C850 0.941 1_554 S
H827 C851 0.951 . S
H828 C853 0.951 . S
H829 C855 0.950 . S
H830 C856 0.950 . S
H831 C858 0.950 . S
H832 C861 0.950 . S
H833 C862 0.950 . S
H834 C864 0.950 . S
H835 C865 0.950 . S
C836 H818 0.951 . S
C836 C837 1.366 . S
C836 C838 1.388 . S
C837 C836 1.366 . S
C837 C841 1.385 . S
C838 H819 0.951 . S
C838 C836 1.388 . S
C838 C839 1.366 . S
C839 C838 1.366 . S
C839 C840 1.414 . S
C839 C842 1.499 . S
C840 H820 0.950 . S
C840 C839 1.414 . S
C840 C841 1.374 . S
C841 H821 0.950 . S
C841 C837 1.385 . S
C841 C840 1.374 . S
C842 C839 1.499 . S
C842 C843 1.373 . S
C842 C844 1.389 . S
C843 H822 0.950 . S
C843 C842 1.373 . S
C843 C859 1.377 . S
C844 C842 1.389 . S
C844 C845 1.524 . S
C844 C858 1.377 1_556 S
C845 C844 1.524 . S
C845 C846 1.397 . S
C845 C850 1.363 . S
C846 H823 0.950 . S
C846 C845 1.397 . S
C846 C847 1.334 . S
C847 H824 0.950 . S
C847 C846 1.334 . S
C847 C848 1.287 . S
C848 C847 1.287 . S
C848 C849 1.524 . S
C848 H867 0.913 . S
C849 H825 0.950 1_556 S
C849 C848 1.524 . S
C849 C850 1.415 . S
C850 H826 0.941 1_556 S
C850 C845 1.363 . S
C850 C849 1.415 . S
C851 H827 0.951 . S
C851 C852 1.366 . S
C851 C853 1.388 . S
C852 C851 1.366 . S
C852 C856 1.385 . S
C853 H828 0.951 . S
C853 C851 1.388 . S
C853 C854 1.366 . S
C854 C853 1.366 . S
C854 C855 1.414 . S
C854 C857 1.499 . S
C855 H829 0.950 . S
C855 C854 1.414 . S
C855 C856 1.374 . S
C856 H830 0.950 . S
C856 C852 1.385 . S
C856 C855 1.374 . S
C857 C854 1.499 . S
C857 C858 1.373 . S
C857 C859 1.389 1_554 S
C858 H831 0.950 . S
C858 C844 1.377 1_554 S
C858 C857 1.373 . S
C859 C843 1.377 . S
C859 C857 1.389 1_556 S
C859 C860 1.524 . S
C860 C859 1.524 . S
C860 C861 1.397 . S
C860 C865 1.363 . S
C861 H832 0.950 . S
C861 C860 1.397 . S
C861 C862 1.334 . S
C862 H833 0.950 . S
C862 C861 1.334 . S
C862 C863 1.287 . S
C863 C862 1.287 . S
C863 C864 1.524 . S
C863 H866 0.999 . S
C864 H834 0.950 . S
C864 C863 1.524 . S
C864 C865 1.415 . S
C865 H835 0.950 . S
C865 C860 1.363 . S
C865 C864 1.415 . S
H866 C863 0.999 . S
H867 C848 0.913 . S
H868 C886 0.951 . S
H869 C888 0.951 . S
H870 C890 0.950 . S
H871 C891 0.950 . S
H872 C893 0.950 . S
H873 C896 0.950 . S
H874 C897 0.950 . S
H875 C899 0.950 . S
H876 C900 0.950 . S
H877 C901 0.951 . S
H878 C903 0.951 . S
H879 C905 0.950 . S
H880 C906 0.950 . S
H881 C908 0.950 . S
H882 C911 0.950 . S
H883 C912 0.950 . S
H884 C914 0.950 . S
H885 C915 0.950 . S
C886 H868 0.951 . S
C886 C887 1.366 . S
C886 C888 1.388 1_556 S
C887 C886 1.366 . S
C887 C891 1.385 1_556 S
C888 H869 0.951 . S
C888 C886 1.388 1_554 S
C888 C889 1.366 . S
C889 C888 1.366 . S
C889 C890 1.414 . S
C889 C892 1.499 . S
C890 H870 0.950 . S
C890 C889 1.414 . S
C890 C891 1.374 . S
C891 H871 0.950 . S
C891 C887 1.385 1_554 S
C891 C890 1.374 . S
C892 C889 1.499 . S
C892 C893 1.373 . S
C892 C894 1.389 . S
C893 H872 0.950 . S
C893 C892 1.373 . S
C893 C909 1.377 . S
C894 C892 1.389 . S
C894 C895 1.524 . S
C894 C908 1.377 . S
C895 C894 1.524 . S
C895 C896 1.397 . S
C895 C900 1.363 . S
C896 H873 0.950 . S
C896 C895 1.397 . S
C896 C897 1.334 . S
C897 H874 0.950 . S
C897 C896 1.334 . S
C897 C898 1.287 . S
C898 C897 1.287 . S
C898 C899 1.524 . S
C898 H917 0.913 1_554 S
C899 H875 0.950 . S
C899 C898 1.524 . S
C899 C900 1.415 . S
C900 H876 0.950 . S
C900 C895 1.363 . S
C900 C899 1.415 . S
C901 H877 0.951 . S
C901 C902 1.366 . S
C901 C903 1.388 . S
C902 C901 1.366 . S
C902 C906 1.385 . S
C903 H878 0.951 . S
C903 C901 1.388 . S
C903 C904 1.366 . S
C904 C903 1.366 . S
C904 C905 1.414 . S
C904 C907 1.499 . S
C905 H879 0.950 . S
C905 C904 1.414 . S
C905 C906 1.374 . S
C906 H880 0.950 . S
C906 C902 1.385 . S
C906 C905 1.374 . S
C907 C904 1.499 . S
C907 C908 1.373 . S
C907 C909 1.389 . S
C908 H881 0.950 . S
C908 C894 1.377 . S
C908 C907 1.373 . S
C909 C893 1.377 . S
C909 C907 1.389 . S
C909 C910 1.524 . S
C910 C909 1.524 . S
C910 C911 1.397 . S
C910 C915 1.363 . S
C911 H882 0.950 . S
C911 C910 1.397 . S
C911 C912 1.334 . S
C912 H883 0.950 . S
C912 C911 1.334 . S
C912 C913 1.287 . S
C913 C912 1.287 . S
C913 C914 1.524 . S
C913 H916 0.999 . S
C914 H884 0.950 . S
C914 C913 1.524 . S
C914 C915 1.415 . S
C915 H885 0.950 . S
C915 C910 1.363 . S
C915 C914 1.415 . S
H916 C913 0.999 . S
H917 C898 0.913 1_556 S
H918 C936 0.951 . S
H919 C938 0.951 . S
H920 C940 0.950 . S
H921 C941 0.950 . S
H922 C943 0.950 . S
H923 C946 0.950 . S
H924 C947 0.950 . S
H925 C949 0.950 . S
H926 C950 0.950 . S
H927 C951 0.951 . S
H928 C953 0.951 . S
H929 C955 0.950 . S
H930 C956 0.950 . S
H931 C958 0.950 . S
H932 C961 0.950 . S
H933 C962 0.950 . S
H934 C964 0.950 . S
H935 C965 0.950 . S
C936 H918 0.951 . S
C936 C937 1.366 . S
C936 C938 1.388 . S
C937 C936 1.366 . S
C937 C941 1.385 . S
C938 H919 0.951 . S
C938 C936 1.388 . S
C938 C939 1.366 . S
C939 C938 1.366 . S
C939 C940 1.414 . S
C939 C942 1.499 . S
C940 H920 0.950 . S
C940 C939 1.414 . S
C940 C941 1.374 . S
C941 H921 0.950 . S
C941 C937 1.385 . S
C941 C940 1.374 . S
C942 C939 1.499 . S
C942 C943 1.373 . S
C942 C944 1.389 . S
C943 H922 0.950 . S
C943 C942 1.373 . S
C943 C959 1.377 . S
C944 C942 1.389 . S
C944 C945 1.524 . S
C944 C958 1.377 . S
C945 C944 1.524 . S
C945 C946 1.397 . S
C945 C950 1.363 . S
C946 H923 0.950 . S
C946 C945 1.397 . S
C946 C947 1.334 . S
C947 H924 0.950 . S
C947 C946 1.334 . S
C947 C948 1.287 . S
C948 C947 1.287 . S
C948 C949 1.524 . S
C948 H967 0.913 . S
C949 H925 0.950 . S
C949 C948 1.524 . S
C949 C950 1.415 . S
C950 H926 0.950 . S
C950 C945 1.363 . S
C950 C949 1.415 . S
C951 H927 0.951 . S
C951 C952 1.366 . S
C951 C953 1.388 . S
C952 C951 1.366 . S
C952 C956 1.385 . S
C953 H928 0.951 . S
C953 C951 1.388 . S
C953 C954 1.366 . S
C954 C953 1.366 . S
C954 C955 1.414 . S
C954 C957 1.499 . S
C955 H929 0.950 . S
C955 C954 1.414 . S
C955 C956 1.374 . S
C956 H930 0.950 . S
C956 C952 1.385 . S
C956 C955 1.374 . S
C957 C954 1.499 . S
C957 C958 1.373 . S
C957 C959 1.389 . S
C958 H931 0.950 . S
C958 C944 1.377 . S
C958 C957 1.373 . S
C959 C943 1.377 . S
C959 C957 1.389 . S
C959 C960 1.524 . S
C960 C959 1.524 . S
C960 C961 1.397 . S
C960 C965 1.363 . S
C961 H932 0.950 . S
C961 C960 1.397 . S
C961 C962 1.334 . S
C962 H933 0.950 . S
C962 C961 1.334 . S
C962 C963 1.287 . S
C963 C962 1.287 . S
C963 C964 1.524 . S
C963 H966 0.999 . S
C964 H934 0.950 . S
C964 C963 1.524 . S
C964 C965 1.415 . S
C965 H935 0.950 . S
C965 C960 1.363 . S
C965 C964 1.415 . S
H966 C963 0.999 . S
H967 C948 0.913 . S
H968 C986 0.951 . S
H969 C988 0.951 . S
H970 C990 0.950 . S
H971 C991 0.950 . S
H972 C993 0.950 . S
H973 C996 0.950 . S
H974 C997 0.950 . S
H975 C999 0.950 . S
H976 C1000 0.950 . S
H977 C1001 0.951 . S
H978 C1003 0.951 . S
H979 C1005 0.950 . S
H980 C1006 0.950 . S
H981 C1008 0.950 . S
H982 C1011 0.950 . S
H983 C1012 0.950 . S
H984 C1014 0.950 . S
H985 C1015 0.950 . S
C986 H968 0.951 . S
C986 C987 1.366 . S
C986 C988 1.388 . S
C987 C986 1.366 . S
C987 C991 1.385 . S
C988 H969 0.951 . S
C988 C986 1.388 . S
C988 C989 1.366 . S
C989 C988 1.366 . S
C989 C990 1.414 . S
C989 C992 1.499 . S
C990 H970 0.950 . S
C990 C989 1.414 . S
C990 C991 1.374 . S
C991 H971 0.950 . S
C991 C987 1.385 . S
C991 C990 1.374 . S
C992 C989 1.499 . S
C992 C993 1.373 . S
C992 C994 1.389 . S
C993 H972 0.950 . S
C993 C992 1.373 . S
C993 C1009 1.377 . S
C994 C992 1.389 . S
C994 C995 1.524 . S
C994 C1008 1.377 . S
C995 C994 1.524 . S
C995 C996 1.397 . S
C995 C1000 1.363 . S
C996 H973 0.950 . S
C996 C995 1.397 . S
C996 C997 1.334 . S
C997 H974 0.950 . S
C997 C996 1.334 . S
C997 C998 1.287 . S
C998 C997 1.287 . S
C998 C999 1.524 . S
C998 H1017 0.913 . S
C999 H975 0.950 . S
C999 C998 1.524 . S
C999 C1000 1.415 . S
C1000 H976 0.950 . S
C1000 C995 1.363 . S
C1000 C999 1.415 . S
C1001 H977 0.951 . S
C1001 C1002 1.366 . S
C1001 C1003 1.388 . S
C1002 C1001 1.366 . S
C1002 C1006 1.385 . S
C1003 H978 0.951 . S
C1003 C1001 1.388 . S
C1003 C1004 1.366 . S
C1004 C1003 1.366 . S
C1004 C1005 1.414 . S
C1004 C1007 1.499 . S
C1005 H979 0.950 . S
C1005 C1004 1.414 . S
C1005 C1006 1.374 . S
C1006 H980 0.950 . S
C1006 C1002 1.385 . S
C1006 C1005 1.374 . S
C1007 C1004 1.499 . S
C1007 C1008 1.373 . S
C1007 C1009 1.389 . S
C1008 H981 0.950 . S
C1008 C994 1.377 . S
C1008 C1007 1.373 . S
C1009 C993 1.377 . S
C1009 C1007 1.389 . S
C1009 C1010 1.524 . S
C1010 C1009 1.524 . S
C1010 C1011 1.397 . S
C1010 C1015 1.363 . S
C1011 H982 0.950 . S
C1011 C1010 1.397 . S
C1011 C1012 1.334 . S
C1012 H983 0.950 . S
C1012 C1011 1.334 . S
C1012 C1013 1.287 . S
C1013 C1012 1.287 . S
C1013 C1014 1.524 . S
C1013 H1016 0.999 . S
C1014 H984 0.950 . S
C1014 C1013 1.524 . S
C1014 C1015 1.415 . S
C1015 H985 0.950 . S
C1015 C1010 1.363 . S
C1015 C1014 1.415 . S
H1016 C1013 0.999 . S
H1017 C998 0.913 . S
H1018 C1036 0.951 . S
H1019 C1038 0.951 . S
H1020 C1040 0.950 . S
H1021 C1041 0.950 . S
H1022 C1043 0.950 . S
H1023 C1046 0.950 . S
H1024 C1047 0.950 . S
H1025 C1049 0.950 . S
H1026 C1050 0.950 . S
H1027 C1051 0.951 . S
H1028 C1053 0.951 . S
H1029 C1055 0.950 . S
H1030 C1056 0.950 . S
H1031 C1058 0.950 . S
H1032 C1061 0.950 . S
H1033 C1062 0.950 . S
H1034 C1064 0.950 . S
H1035 C1065 0.950 . S
C1036 H1018 0.951 . S
C1036 C1037 1.366 . S
C1036 C1038 1.388 . S
C1037 C1036 1.366 . S
C1037 C1041 1.385 . S
C1038 H1019 0.951 . S
C1038 C1036 1.388 . S
C1038 C1039 1.366 . S
C1039 C1038 1.366 . S
C1039 C1040 1.414 . S
C1039 C1042 1.499 . S
C1040 H1020 0.950 . S
C1040 C1039 1.414 . S
C1040 C1041 1.374 . S
C1041 H1021 0.950 . S
C1041 C1037 1.385 . S
C1041 C1040 1.374 . S
C1042 C1039 1.499 . S
C1042 C1043 1.373 . S
C1042 C1044 1.389 . S
C1043 H1022 0.950 . S
C1043 C1042 1.373 . S
C1043 C1059 1.377 . S
C1044 C1042 1.389 . S
C1044 C1045 1.524 . S
C1044 C1058 1.377 . S
C1045 C1044 1.524 . S
C1045 C1046 1.397 . S
C1045 C1050 1.363 . S
C1046 H1023 0.950 . S
C1046 C1045 1.397 . S
C1046 C1047 1.334 . S
C1047 H1024 0.950 . S
C1047 C1046 1.334 . S
C1047 C1048 1.287 . S
C1048 C1047 1.287 . S
C1048 C1049 1.524 . S
C1048 H1067 0.913 . S
C1049 H1025 0.950 . S
C1049 C1048 1.524 . S
C1049 C1050 1.415 . S
C1050 H1026 0.950 . S
C1050 C1045 1.363 . S
C1050 C1049 1.415 . S
C1051 H1027 0.951 . S
C1051 C1052 1.366 . S
C1051 C1053 1.388 . S
C1052 C1051 1.366 . S
C1052 C1056 1.385 . S
C1053 H1028 0.951 . S
C1053 C1051 1.388 . S
C1053 C1054 1.366 . S
C1054 C1053 1.366 . S
C1054 C1055 1.414 . S
C1054 C1057 1.499 . S
C1055 H1029 0.950 . S
C1055 C1054 1.414 . S
C1055 C1056 1.374 . S
C1056 H1030 0.950 . S
C1056 C1052 1.385 . S
C1056 C1055 1.374 . S
C1057 C1054 1.499 . S
C1057 C1058 1.373 . S
C1057 C1059 1.389 . S
C1058 H1031 0.950 . S
C1058 C1044 1.377 . S
C1058 C1057 1.373 . S
C1059 C1043 1.377 . S
C1059 C1057 1.389 . S
C1059 C1060 1.524 . S
C1060 C1059 1.524 . S
C1060 C1061 1.397 . S
C1060 C1065 1.363 . S
C1061 H1032 0.950 . S
C1061 C1060 1.397 . S
C1061 C1062 1.334 . S
C1062 H1033 0.950 . S
C1062 C1061 1.334 . S
C1062 C1063 1.287 . S
C1063 C1062 1.287 . S
C1063 C1064 1.524 . S
C1063 H1066 0.999 . S
C1064 H1034 0.950 . S
C1064 C1063 1.524 . S
C1064 C1065 1.415 . S
C1065 H1035 0.950 . S
C1065 C1060 1.363 . S
C1065 C1064 1.415 . S
H1066 C1063 0.999 . S
H1067 C1048 0.913 . S
H1068 C1086 0.951 . S
H1069 C1088 0.951 . S
H1070 C1090 0.950 . S
H1071 C1091 0.950 . S
H1072 C1093 0.950 . S
H1073 C1096 0.950 . S
H1074 C1097 0.950 . S
H1075 C1099 0.950 . S
H1076 C1100 0.950 . S
H1077 C1101 0.951 1_556 S
H1078 C1103 0.927 1_556 S
H1079 C1105 0.950 . S
H1080 C1106 0.950 . S
H1081 C1108 0.950 . S
H1082 C1111 0.950 . S
H1083 C1112 0.950 . S
H1084 C1114 0.950 . S
H1085 C1115 0.950 . S
C1086 H1068 0.951 . S
C1086 C1087 1.366 . S
C1086 C1088 1.388 . S
C1087 C1086 1.366 . S
C1087 C1091 1.385 . S
C1088 H1069 0.951 . S
C1088 C1086 1.388 . S
C1088 C1089 1.366 . S
C1089 C1088 1.366 . S
C1089 C1090 1.414 . S
C1089 C1092 1.499 . S
C1090 H1070 0.950 . S
C1090 C1089 1.414 . S
C1090 C1091 1.374 . S
C1091 H1071 0.950 . S
C1091 C1087 1.385 . S
C1091 C1090 1.374 . S
C1092 C1089 1.499 . S
C1092 C1093 1.373 . S
C1092 C1094 1.389 . S
C1093 H1072 0.950 . S
C1093 C1092 1.373 . S
C1093 C1109 1.377 1_545 S
C1094 C1092 1.389 . S
C1094 C1095 1.524 . S
C1094 C1108 1.377 1_545 S
C1095 C1094 1.524 . S
C1095 C1096 1.397 . S
C1095 C1100 1.363 . S
C1096 H1073 0.950 . S
C1096 C1095 1.397 . S
C1096 C1097 1.334 . S
C1097 H1074 0.950 . S
C1097 C1096 1.334 . S
C1097 C1098 1.287 . S
C1098 C1097 1.287 . S
C1098 C1099 1.524 . S
C1098 H1117 0.913 . S
C1099 H1075 0.950 . S
C1099 C1098 1.524 . S
C1099 C1100 1.415 . S
C1100 H1076 0.950 . S
C1100 C1095 1.363 . S
C1100 C1099 1.415 . S
C1101 H1077 0.951 1_554 S
C1101 C1102 1.366 . S
C1101 C1103 1.388 . S
C1102 C1101 1.366 . S
C1102 C1106 1.385 . S
C1103 H1078 0.927 1_554 S
C1103 C1101 1.388 . S
C1103 C1104 1.366 . S
C1104 C1103 1.366 . S
C1104 C1105 1.414 . S
C1104 C1107 1.499 . S
C1105 H1079 0.950 . S
C1105 C1104 1.414 . S
C1105 C1106 1.374 . S
C1106 H1080 0.950 . S
C1106 C1102 1.385 . S
C1106 C1105 1.374 . S
C1107 C1104 1.499 . S
C1107 C1108 1.373 . S
C1107 C1109 1.389 . S
C1108 H1081 0.950 . S
C1108 C1094 1.377 1_565 S
C1108 C1107 1.373 . S
C1109 C1093 1.377 1_565 S
C1109 C1107 1.389 . S
C1109 C1110 1.524 1_554 S
C1110 C1109 1.524 1_556 S
C1110 C1111 1.397 1_556 S
C1110 C1115 1.363 . S
C1111 H1082 0.950 . S
C1111 C1110 1.397 1_554 S
C1111 C1112 1.334 1_554 S
C1112 H1083 0.950 . S
C1112 C1111 1.334 1_556 S
C1112 C1113 1.287 . S
C1113 C1112 1.287 . S
C1113 C1114 1.524 . S
C1113 H1116 0.999 . S
C1114 H1084 0.950 . S
C1114 C1113 1.524 . S
C1114 C1115 1.415 . S
C1115 H1085 0.950 . S
C1115 C1110 1.363 . S
C1115 C1114 1.415 . S
H1116 C1113 0.999 . S
H1117 C1098 0.913 . S
H1118 C1136 0.951 . S
H1119 C1138 0.951 . S
H1120 C1140 0.950 . S
H1121 C1141 0.950 . S
H1122 C1143 0.950 . S
H1123 C1146 0.950 . S
H1124 C1147 0.950 . S
H1125 C1149 0.950 . S
H1126 C1150 0.950 . S
H1127 C1151 0.951 . S
H1128 C1153 0.951 . S
H1129 C1155 0.950 . S
H1130 C1156 0.950 . S
H1131 C1158 0.950 . S
H1132 C1161 0.950 . S
H1133 C1162 0.950 . S
H1134 C1164 0.950 . S
H1135 C1165 0.950 . S
C1136 H1118 0.951 . S
C1136 C1137 1.366 . S
C1136 C1138 1.388 . S
C1137 C1136 1.366 . S
C1137 C1141 1.385 . S
C1138 H1119 0.951 . S
C1138 C1136 1.388 . S
C1138 C1139 1.366 . S
C1139 C1138 1.366 . S
C1139 C1140 1.414 . S
C1139 C1142 1.499 . S
C1140 H1120 0.950 . S
C1140 C1139 1.414 . S
C1140 C1141 1.374 . S
C1141 H1121 0.950 . S
C1141 C1137 1.385 . S
C1141 C1140 1.374 . S
C1142 C1139 1.499 . S
C1142 C1143 1.373 . S
C1142 C1144 1.389 . S
C1143 H1122 0.950 . S
C1143 C1142 1.373 . S
C1143 C1159 1.377 . S
C1144 C1142 1.389 . S
C1144 C1145 1.524 . S
C1144 C1158 1.377 . S
C1145 C1144 1.524 . S
C1145 C1146 1.397 . S
C1145 C1150 1.363 . S
C1146 H1123 0.950 . S
C1146 C1145 1.397 . S
C1146 C1147 1.334 . S
C1147 H1124 0.950 . S
C1147 C1146 1.334 . S
C1147 C1148 1.287 . S
C1148 C1147 1.287 . S
C1148 C1149 1.524 . S
C1148 H1167 0.913 . S
C1149 H1125 0.950 . S
C1149 C1148 1.524 . S
C1149 C1150 1.415 . S
C1150 H1126 0.950 . S
C1150 C1145 1.363 . S
C1150 C1149 1.415 . S
C1151 H1127 0.951 . S
C1151 C1152 1.366 . S
C1151 C1153 1.388 . S
C1152 C1151 1.366 . S
C1152 C1156 1.385 . S
C1153 H1128 0.951 . S
C1153 C1151 1.388 . S
C1153 C1154 1.366 . S
C1154 C1153 1.366 . S
C1154 C1155 1.414 . S
C1154 C1157 1.499 . S
C1155 H1129 0.950 . S
C1155 C1154 1.414 . S
C1155 C1156 1.374 . S
C1156 H1130 0.950 . S
C1156 C1152 1.385 . S
C1156 C1155 1.374 . S
C1157 C1154 1.499 . S
C1157 C1158 1.373 . S
C1157 C1159 1.389 . S
C1158 H1131 0.950 . S
C1158 C1144 1.377 . S
C1158 C1157 1.373 . S
C1159 C1143 1.377 . S
C1159 C1157 1.389 . S
C1159 C1160 1.524 . S
C1160 C1159 1.524 . S
C1160 C1161 1.397 . S
C1160 C1165 1.363 . S
C1161 H1132 0.950 . S
C1161 C1160 1.397 . S
C1161 C1162 1.334 . S
C1162 H1133 0.950 . S
C1162 C1161 1.334 . S
C1162 C1163 1.287 . S
C1163 C1162 1.287 . S
C1163 C1164 1.524 . S
C1163 H1166 0.999 . S
C1164 H1134 0.950 . S
C1164 C1163 1.524 . S
C1164 C1165 1.415 . S
C1165 H1135 0.950 . S
C1165 C1160 1.363 . S
C1165 C1164 1.415 . S
H1166 C1163 0.999 . S
H1167 C1148 0.913 . S
H1168 C1186 0.951 . S
H1169 C1188 0.951 . S
H1170 C1190 0.950 . S
H1171 C1191 0.950 . S
H1172 C1193 0.950 . S
H1173 C1196 0.950 . S
H1174 C1197 0.950 . S
H1175 C1199 0.950 . S
H1176 C1200 0.950 . S
H1177 C1201 0.951 . S
H1178 C1203 0.951 . S
H1179 C1205 0.950 . S
H1180 C1206 0.950 . S
H1181 C1208 0.950 . S
H1182 C1211 0.950 . S
H1183 C1212 0.950 . S
H1184 C1214 0.950 . S
H1185 C1215 0.950 . S
C1186 H1168 0.951 . S
C1186 C1187 1.366 . S
C1186 C1188 1.388 . S
C1187 C1186 1.366 . S
C1187 C1191 1.385 . S
C1188 H1169 0.951 . S
C1188 C1186 1.388 . S
C1188 C1189 1.366 . S
C1189 C1188 1.366 . S
C1189 C1190 1.414 . S
C1189 C1192 1.499 . S
C1190 H1170 0.950 . S
C1190 C1189 1.414 . S
C1190 C1191 1.374 . S
C1191 H1171 0.950 . S
C1191 C1187 1.385 . S
C1191 C1190 1.374 . S
C1192 C1189 1.499 . S
C1192 C1193 1.373 . S
C1192 C1194 1.389 . S
C1193 H1172 0.950 . S
C1193 C1192 1.373 . S
C1193 C1209 1.377 1_455 S
C1194 C1192 1.389 . S
C1194 C1195 1.524 . S
C1194 C1208 1.377 1_455 S
C1195 C1194 1.524 . S
C1195 C1196 1.397 . S
C1195 C1200 1.363 . S
C1196 H1173 0.950 . S
C1196 C1195 1.397 . S
C1196 C1197 1.334 . S
C1197 H1174 0.950 . S
C1197 C1196 1.334 . S
C1197 C1198 1.287 . S
C1198 C1197 1.287 . S
C1198 C1199 1.524 . S
C1198 H1217 0.913 . S
C1199 H1175 0.950 . S
C1199 C1198 1.524 . S
C1199 C1200 1.415 . S
C1200 H1176 0.950 . S
C1200 C1195 1.363 . S
C1200 C1199 1.415 . S
C1201 H1177 0.951 . S
C1201 C1202 1.366 . S
C1201 C1203 1.388 . S
C1202 C1201 1.366 . S
C1202 C1206 1.385 . S
C1203 H1178 0.951 . S
C1203 C1201 1.388 . S
C1203 C1204 1.366 . S
C1204 C1203 1.366 . S
C1204 C1205 1.414 . S
C1204 C1207 1.499 . S
C1205 H1179 0.950 . S
C1205 C1204 1.414 . S
C1205 C1206 1.374 . S
C1206 H1180 0.950 . S
C1206 C1202 1.385 . S
C1206 C1205 1.374 . S
C1207 C1204 1.499 . S
C1207 C1208 1.373 . S
C1207 C1209 1.389 . S
C1208 H1181 0.950 . S
C1208 C1194 1.377 1_655 S
C1208 C1207 1.373 . S
C1209 C1193 1.377 1_655 S
C1209 C1207 1.389 . S
C1209 C1210 1.524 . S
C1210 C1209 1.524 . S
C1210 C1211 1.397 . S
C1210 C1215 1.363 . S
C1211 H1182 0.950 . S
C1211 C1210 1.397 . S
C1211 C1212 1.334 . S
C1212 H1183 0.950 . S
C1212 C1211 1.334 . S
C1212 C1213 1.287 . S
C1213 C1212 1.287 . S
C1213 C1214 1.524 . S
C1213 H1216 0.999 . S
C1214 H1184 0.950 . S
C1214 C1213 1.524 . S
C1214 C1215 1.415 . S
C1215 H1185 0.950 . S
C1215 C1210 1.363 . S
C1215 C1214 1.415 . S
H1216 C1213 0.999 . S
H1217 C1198 0.913 . S
H1218 C1236 0.951 . S
H1219 C1238 0.951 . S
H1220 C1240 0.950 . S
H1221 C1241 0.950 . S
H1222 C1243 0.950 . S
H1223 C1246 0.950 . S
H1224 C1247 0.950 . S
H1225 C1249 0.950 . S
H1226 C1250 0.950 . S
H1227 C1251 0.951 . S
H1228 C1253 0.951 . S
H1229 C1255 0.950 . S
H1230 C1256 0.950 . S
H1231 C1258 0.950 . S
H1232 C1261 0.950 . S
H1233 C1262 0.950 . S
H1234 C1264 0.950 . S
H1235 C1265 0.950 . S
C1236 H1218 0.951 . S
C1236 C1237 1.366 . S
C1236 C1238 1.388 . S
C1237 C1236 1.366 . S
C1237 C1241 1.385 . S
C1238 H1219 0.951 . S
C1238 C1236 1.388 . S
C1238 C1239 1.366 . S
C1239 C1238 1.366 . S
C1239 C1240 1.414 . S
C1239 C1242 1.499 . S
C1240 H1220 0.950 . S
C1240 C1239 1.414 . S
C1240 C1241 1.374 . S
C1241 H1221 0.950 . S
C1241 C1237 1.385 . S
C1241 C1240 1.374 . S
C1242 C1239 1.499 . S
C1242 C1243 1.373 . S
C1242 C1244 1.389 . S
C1243 H1222 0.950 . S
C1243 C1242 1.373 . S
C1243 C1259 1.377 1_565 S
C1244 C1242 1.389 . S
C1244 C1245 1.524 . S
C1244 C1258 1.377 1_565 S
C1245 C1244 1.524 . S
C1245 C1246 1.397 . S
C1245 C1250 1.363 . S
C1246 H1223 0.950 . S
C1246 C1245 1.397 . S
C1246 C1247 1.334 . S
C1247 H1224 0.950 . S
C1247 C1246 1.334 . S
C1247 C1248 1.287 . S
C1248 C1247 1.287 . S
C1248 C1249 1.524 . S
C1248 H1267 0.913 . S
C1249 H1225 0.950 . S
C1249 C1248 1.524 . S
C1249 C1250 1.415 . S
C1250 H1226 0.950 . S
C1250 C1245 1.363 . S
C1250 C1249 1.415 . S
C1251 H1227 0.951 . S
C1251 C1252 1.366 . S
C1251 C1253 1.388 . S
C1252 C1251 1.366 . S
C1252 C1256 1.385 . S
C1253 H1228 0.951 . S
C1253 C1251 1.388 . S
C1253 C1254 1.366 . S
C1254 C1253 1.366 . S
C1254 C1255 1.414 . S
C1254 C1257 1.499 . S
C1255 H1229 0.950 . S
C1255 C1254 1.414 . S
C1255 C1256 1.374 . S
C1256 H1230 0.950 . S
C1256 C1252 1.385 . S
C1256 C1255 1.374 . S
C1257 C1254 1.499 . S
C1257 C1258 1.373 . S
C1257 C1259 1.389 . S
C1258 H1231 0.950 . S
C1258 C1244 1.377 1_545 S
C1258 C1257 1.373 . S
C1259 C1243 1.377 1_545 S
C1259 C1257 1.389 . S
C1259 C1260 1.524 . S
C1260 C1259 1.524 . S
C1260 C1261 1.397 . S
C1260 C1265 1.363 . S
C1261 H1232 0.950 . S
C1261 C1260 1.397 . S
C1261 C1262 1.334 . S
C1262 H1233 0.950 . S
C1262 C1261 1.334 . S
C1262 C1263 1.287 . S
C1263 C1262 1.287 . S
C1263 C1264 1.524 . S
C1263 H1266 0.999 . S
C1264 H1234 0.950 . S
C1264 C1263 1.524 . S
C1264 C1265 1.415 . S
C1265 H1235 0.950 . S
C1265 C1260 1.363 . S
C1265 C1264 1.415 . S
H1266 C1263 0.999 . S
H1267 C1248 0.913 . S
H1268 C1286 0.951 . S
H1269 C1288 0.951 . S
H1270 C1290 0.950 . S
H1271 C1291 0.950 . S
H1272 C1293 0.950 . S
H1273 C1296 0.950 . S
H1274 C1297 0.950 . S
H1275 C1299 0.950 . S
H1276 C1300 0.950 . S
H1277 C1301 0.951 . S
H1278 C1303 0.951 . S
H1279 C1305 0.950 . S
H1280 C1306 0.950 . S
H1281 C1308 0.950 . S
H1282 C1311 0.950 . S
H1283 C1312 0.950 . S
H1284 C1314 0.950 . S
H1285 C1315 0.950 . S
C1286 H1268 0.951 . S
C1286 C1287 1.366 . S
C1286 C1288 1.388 . S
C1287 C1286 1.366 . S
C1287 C1291 1.385 . S
C1288 H1269 0.951 . S
C1288 C1286 1.388 . S
C1288 C1289 1.366 . S
C1289 C1288 1.366 . S
C1289 C1290 1.414 . S
C1289 C1292 1.499 . S
C1290 H1270 0.950 . S
C1290 C1289 1.414 . S
C1290 C1291 1.374 . S
C1291 H1271 0.950 . S
C1291 C1287 1.385 . S
C1291 C1290 1.374 . S
C1292 C1289 1.499 . S
C1292 C1293 1.373 . S
C1292 C1294 1.389 . S
C1293 H1272 0.950 . S
C1293 C1292 1.373 . S
C1293 C1309 1.377 . S
C1294 C1292 1.389 . S
C1294 C1295 1.524 . S
C1294 C1308 1.377 . S
C1295 C1294 1.524 . S
C1295 C1296 1.397 . S
C1295 C1300 1.363 . S
C1296 H1273 0.950 . S
C1296 C1295 1.397 . S
C1296 C1297 1.334 . S
C1297 H1274 0.950 . S
C1297 C1296 1.334 . S
C1297 C1298 1.287 . S
C1298 C1297 1.287 . S
C1298 C1299 1.524 . S
C1298 H1317 0.913 . S
C1299 H1275 0.950 . S
C1299 C1298 1.524 . S
C1299 C1300 1.415 . S
C1300 H1276 0.950 . S
C1300 C1295 1.363 . S
C1300 C1299 1.415 . S
C1301 H1277 0.951 . S
C1301 C1302 1.366 . S
C1301 C1303 1.388 . S
C1302 C1301 1.366 . S
C1302 C1306 1.385 . S
C1303 H1278 0.951 . S
C1303 C1301 1.388 . S
C1303 C1304 1.366 . S
C1304 C1303 1.366 . S
C1304 C1305 1.414 . S
C1304 C1307 1.499 . S
C1305 H1279 0.950 . S
C1305 C1304 1.414 . S
C1305 C1306 1.374 . S
C1306 H1280 0.950 . S
C1306 C1302 1.385 . S
C1306 C1305 1.374 . S
C1307 C1304 1.499 . S
C1307 C1308 1.373 . S
C1307 C1309 1.389 . S
C1308 H1281 0.950 . S
C1308 C1294 1.377 . S
C1308 C1307 1.373 . S
C1309 C1293 1.377 . S
C1309 C1307 1.389 . S
C1309 C1310 1.524 . S
C1310 C1309 1.524 . S
C1310 C1311 1.397 . S
C1310 C1315 1.363 . S
C1311 H1282 0.950 . S
C1311 C1310 1.397 . S
C1311 C1312 1.334 . S
C1312 H1283 0.950 . S
C1312 C1311 1.334 . S
C1312 C1313 1.287 . S
C1313 C1312 1.287 . S
C1313 C1314 1.524 . S
C1313 H1316 0.999 . S
C1314 H1284 0.950 . S
C1314 C1313 1.524 . S
C1314 C1315 1.415 . S
C1315 H1285 0.950 . S
C1315 C1310 1.363 . S
C1315 C1314 1.415 . S
H1316 C1313 0.999 . S
H1317 C1298 0.913 . S
H1318 C1336 0.951 . S
H1319 C1338 0.951 . S
H1320 C1340 0.950 . S
H1321 C1341 0.950 . S
H1322 C1343 0.950 . S
H1323 C1346 0.950 . S
H1324 C1347 0.950 1_554 S
H1325 C1349 0.950 . S
H1326 C1350 0.950 . S
H1327 C1351 0.951 . S
H1328 C1353 0.951 . S
H1329 C1355 0.950 . S
H1330 C1356 0.950 . S
H1331 C1358 0.950 . S
H1332 C1361 0.950 . S
H1333 C1362 0.950 . S
H1334 C1364 0.950 . S
H1335 C1365 0.950 . S
C1336 H1318 0.951 . S
C1336 C1337 1.366 . S
C1336 C1338 1.388 . S
C1337 C1336 1.366 . S
C1337 C1341 1.385 . S
C1338 H1319 0.951 . S
C1338 C1336 1.388 . S
C1338 C1339 1.366 . S
C1339 C1338 1.366 . S
C1339 C1340 1.414 . S
C1339 C1342 1.499 . S
C1340 H1320 0.950 . S
C1340 C1339 1.414 . S
C1340 C1341 1.374 . S
C1341 H1321 0.950 . S
C1341 C1337 1.385 . S
C1341 C1340 1.374 . S
C1342 C1339 1.499 . S
C1342 C1343 1.373 . S
C1342 C1344 1.389 . S
C1343 H1322 0.950 . S
C1343 C1342 1.373 . S
C1343 C1359 1.377 1_455 S
C1344 C1342 1.389 . S
C1344 C1345 1.524 . S
C1344 C1358 1.377 1_455 S
C1345 C1344 1.524 . S
C1345 C1346 1.397 . S
C1345 C1350 1.363 . S
C1346 H1323 0.950 . S
C1346 C1345 1.397 . S
C1346 C1347 1.334 . S
C1347 H1324 0.950 1_556 S
C1347 C1346 1.334 . S
C1347 C1348 1.287 . S
C1348 C1347 1.287 . S
C1348 C1349 1.524 . S
C1348 H1367 0.915 . S
C1349 H1325 0.950 . S
C1349 C1348 1.524 . S
C1349 C1350 1.415 . S
C1350 H1326 0.950 . S
C1350 C1345 1.363 . S
C1350 C1349 1.415 . S
C1351 H1327 0.951 . S
C1351 C1352 1.366 . S
C1351 C1353 1.388 . S
C1352 C1351 1.366 . S
C1352 C1356 1.385 . S
C1353 H1328 0.951 . S
C1353 C1351 1.388 . S
C1353 C1354 1.366 . S
C1354 C1353 1.366 . S
C1354 C1355 1.414 . S
C1354 C1357 1.499 . S
C1355 H1329 0.950 . S
C1355 C1354 1.414 . S
C1355 C1356 1.374 . S
C1356 H1330 0.950 . S
C1356 C1352 1.385 . S
C1356 C1355 1.374 . S
C1357 C1354 1.499 . S
C1357 C1358 1.373 . S
C1357 C1359 1.389 . S
C1358 H1331 0.950 . S
C1358 C1344 1.377 1_655 S
C1358 C1357 1.373 . S
C1359 C1343 1.377 1_655 S
C1359 C1357 1.389 . S
C1359 C1360 1.524 . S
C1360 C1359 1.524 . S
C1360 C1361 1.397 . S
C1360 C1365 1.363 . S
C1361 H1332 0.950 . S
C1361 C1360 1.397 . S
C1361 C1362 1.334 . S
C1362 H1333 0.950 . S
C1362 C1361 1.334 . S
C1362 C1363 1.287 . S
C1363 C1362 1.287 . S
C1363 C1364 1.524 . S
C1363 H1366 0.999 . S
C1364 H1334 0.950 . S
C1364 C1363 1.524 . S
C1364 C1365 1.415 . S
C1365 H1335 0.950 . S
C1365 C1360 1.363 . S
C1365 C1364 1.415 . S
H1366 C1363 0.999 . S
H1367 C1348 0.915 . S
C187 C7 0.965 . S
C202 C147 0.966 . S
C237 C21 0.966 . S
C252 C161 0.966 . S
C287 C91 0.966 . S
C302 C35 0.965 . S
C337 C49 0.965 . S
C352 C105 0.966 . S
C387 C119 0.966 . S
C402 C63 0.965 . S
C437 C133 0.966 . S
C452 C77 0.965 . S
C487 C120 1.292 . S
C502 C8 1.292 . S
C537 C22 1.291 . S
C552 C134 1.291 . S
C587 C148 1.291 . S
C602 C36 1.291 . S
C637 C50 1.291 . S
C652 C162 1.291 . S
C687 C64 1.291 . S
C702 C92 1.291 . S
C737 C78 1.291 . S
C752 C106 1.291 . S
C787 C143 1.664 . S
C802 C3 1.666 . S
C837 C157 1.664 . S
C852 C17 1.664 . S
C887 C87 1.664 . S
C902 C31 1.664 . S
C937 C45 1.664 . S
C952 C101 1.664 . S
C987 C59 1.664 . S
C1002 C115 1.664 . S
C1037 C129 1.664 . S
C1052 C73 1.664 . S
C1087 C9 1.275 . S
C1102 C107 1.274 . S
C1137 C121 1.273 . S
C1152 C23 1.274 . S
C1187 C135 1.274 . S
C1202 C37 1.274 . S
C1237 C51 1.275 . S
C1252 C149 1.274 . S
C1287 C65 1.275 . S
C1302 C163 1.273 . S
C1337 C79 1.273 . S
C1352 C93 1.274 . S
