# Generated by pormake.
# Topology umh, (4)-cn, num edge types: 1
# Building blocks:
#     Node 0, Type 0, BuildingBlock: MUDLON_clean_sbu_0, # of connection points: 4
#     Node 1, Type 0, BuildingBlock: MUDLON_clean_sbu_0, # of connection points: 4
#     Node 2, Type 0, BuildingBlock: MUDLON_clean_sbu_0, # of connection points: 4
#     Node 3, Type 0, BuildingBlock: MUDLON_clean_sbu_0, # of connection points: 4
#     Node 4, Type 0, BuildingBlock: MUDLON_clean_sbu_0, # of connection points: 4
#     Node 5, Type 0, BuildingBlock: MUDLON_clean_sbu_0, # of connection points: 4
#     Node 6, Type 0, BuildingBlock: MUDLON_clean_sbu_0, # of connection points: 4
#     Node 7, Type 0, BuildingBlock: MUDLON_clean_sbu_0, # of connection points: 4
#     Node 8, Type 0, BuildingBlock: MUDLON_clean_sbu_0, # of connection points: 4
#     Node 9, Type 0, BuildingBlock: MUDLON_clean_sbu_0, # of connection points: 4
#     Node 10, Type 0, BuildingBlock: MUDLON_clean_sbu_0, # of connection points: 4
#     Node 11, Type 0, BuildingBlock: MUDLON_clean_sbu_0, # of connection points: 4
#     Node 12, Type 0, BuildingBlock: MUDLON_clean_sbu_0, # of connection points: 4
#     Node 13, Type 0, BuildingBlock: MUDLON_clean_sbu_0, # of connection points: 4
#     Node 14, Type 0, BuildingBlock: MUDLON_clean_sbu_0, # of connection points: 4
#     Node 15, Type 0, BuildingBlock: MUDLON_clean_sbu_0, # of connection points: 4
#     Edge 16, Type (0, 0), BuildingBlock: CIFDUS_clean_linker_0, # of connection points: 2
#     Edge 17, Type (0, 0), BuildingBlock: CIFDUS_clean_linker_0, # of connection points: 2
#     Edge 18, Type (0, 0), BuildingBlock: CIFDUS_clean_linker_0, # of connection points: 2
#     Edge 19, Type (0, 0), BuildingBlock: CIFDUS_clean_linker_0, # of connection points: 2
#     Edge 20, Type (0, 0), BuildingBlock: CIFDUS_clean_linker_0, # of connection points: 2
#     Edge 21, Type (0, 0), BuildingBlock: CIFDUS_clean_linker_0, # of connection points: 2
#     Edge 22, Type (0, 0), BuildingBlock: CIFDUS_clean_linker_0, # of connection points: 2
#     Edge 23, Type (0, 0), BuildingBlock: CIFDUS_clean_linker_0, # of connection points: 2
#     Edge 24, Type (0, 0), BuildingBlock: CIFDUS_clean_linker_0, # of connection points: 2
#     Edge 25, Type (0, 0), BuildingBlock: CIFDUS_clean_linker_0, # of connection points: 2
#     Edge 26, Type (0, 0), BuildingBlock: CIFDUS_clean_linker_0, # of connection points: 2
#     Edge 27, Type (0, 0), BuildingBlock: CIFDUS_clean_linker_0, # of connection points: 2
#     Edge 28, Type (0, 0), BuildingBlock: CIFDUS_clean_linker_0, # of connection points: 2
#     Edge 29, Type (0, 0), BuildingBlock: CIFDUS_clean_linker_0, # of connection points: 2
#     Edge 30, Type (0, 0), BuildingBlock: CIFDUS_clean_linker_0, # of connection points: 2
#     Edge 31, Type (0, 0), BuildingBlock: CIFDUS_clean_linker_0, # of connection points: 2
#     Edge 32, Type (0, 0), BuildingBlock: CIFDUS_clean_linker_0, # of connection points: 2
#     Edge 33, Type (0, 0), BuildingBlock: CIFDUS_clean_linker_0, # of connection points: 2
#     Edge 34, Type (0, 0), BuildingBlock: CIFDUS_clean_linker_0, # of connection points: 2
#     Edge 35, Type (0, 0), BuildingBlock: CIFDUS_clean_linker_0, # of connection points: 2
#     Edge 36, Type (0, 0), BuildingBlock: CIFDUS_clean_linker_0, # of connection points: 2
#     Edge 37, Type (0, 0), BuildingBlock: CIFDUS_clean_linker_0, # of connection points: 2
#     Edge 38, Type (0, 0), BuildingBlock: CIFDUS_clean_linker_0, # of connection points: 2
#     Edge 39, Type (0, 0), BuildingBlock: CIFDUS_clean_linker_0, # of connection points: 2
#     Edge 40, Type (0, 0), BuildingBlock: CIFDUS_clean_linker_0, # of connection points: 2
#     Edge 41, Type (0, 0), BuildingBlock: CIFDUS_clean_linker_0, # of connection points: 2
#     Edge 42, Type (0, 0), BuildingBlock: CIFDUS_clean_linker_0, # of connection points: 2
#     Edge 43, Type (0, 0), BuildingBlock: CIFDUS_clean_linker_0, # of connection points: 2
#     Edge 44, Type (0, 0), BuildingBlock: CIFDUS_clean_linker_0, # of connection points: 2
#     Edge 45, Type (0, 0), BuildingBlock: CIFDUS_clean_linker_0, # of connection points: 2
#     Edge 46, Type (0, 0), BuildingBlock: CIFDUS_clean_linker_0, # of connection points: 2
#     Edge 47, Type (0, 0), BuildingBlock: CIFDUS_clean_linker_0, # of connection points: 2
# Relax obj value: 0.037
# Max RMSD: 0.081
# Mean RMSD: 0.081
data_MOF--net-umh--node1-MUDLON_clean_sbu_0--edge1-CIFDUS_clean_linker_0
_symmetry_space_group_name_H-M    P1
_symmetry_Int_Tables_number       1
_symmetry_cell_setting            triclinic
loop_
_symmetry_equiv_pos_as_xyz
'x, y, z'
_cell_length_a     36.819137
_cell_length_b     37.429692
_cell_length_c     48.348393
_cell_angle_alpha  90.114434
_cell_angle_beta   90.013005
_cell_angle_gamma 90.408349
loop_
_atom_site_label
_atom_site_type_symbol
_atom_site_fract_x
_atom_site_fract_y
_atom_site_fract_z
_atom_type_partial_charge
Mg0 Mg 0.37064 0.10863 0.17459 0.0
C1 C 0.39948 0.13384 0.12205 0.0
O2 O 0.36687 0.12096 0.1171 0.0
C3 C 0.36121 0.0872 0.23504 0.0
O4 O 0.36724 0.05568 0.2241 0.0
C5 C 0.41227 0.04615 0.17199 0.0
O6 O 0.43258 0.07242 0.18158 0.0
O7 O 0.37927 0.05263 0.16619 0.0
O8 O 0.41147 0.13336 0.14686 0.0
O9 O 0.32116 0.13396 0.16126 0.0
C10 C 0.32646 0.16759 0.16046 0.0
O11 O 0.35877 0.18021 0.16692 0.0
O12 O 0.36537 0.11493 0.21995 0.0
Mg13 Mg 0.38441 0.36204 0.67045 0.0
C14 C 0.35535 0.37572 0.61367 0.0
O15 O 0.32875 0.38643 0.62971 0.0
C16 C 0.42925 0.32561 0.7142 0.0
O17 O 0.43169 0.35909 0.7222 0.0
C18 C 0.40646 0.44099 0.67113 0.0
O19 O 0.38579 0.44268 0.64904 0.0
O20 O 0.4082 0.41184 0.68448 0.0
O21 O 0.38369 0.36273 0.62494 0.0
O22 O 0.32849 0.3535 0.68295 0.0
C23 C 0.32157 0.33264 0.70301 0.0
O24 O 0.34823 0.32202 0.71893 0.0
O25 O 0.41396 0.3187 0.69107 0.0
Mg26 Mg 0.14265 0.38635 0.16517 0.0
C27 C 0.10674 0.33082 0.12537 0.0
O28 O 0.13147 0.30914 0.13505 0.0
C29 C 0.14857 0.40747 0.22695 0.0
O30 O 0.1377 0.43875 0.21812 0.0
C31 C 0.10074 0.44913 0.16273 0.0
O32 O 0.07967 0.42273 0.17098 0.0
O33 O 0.13388 0.44246 0.15754 0.0
O34 O 0.10232 0.36105 0.13711 0.0
O35 O 0.19344 0.36282 0.15227 0.0
C36 C 0.19594 0.33278 0.16438 0.0
O37 O 0.17072 0.32354 0.18226 0.0
O38 O 0.14741 0.38074 0.21052 0.0
Mg39 Mg 0.10993 0.13348 0.68597 0.0
C40 C 0.12958 0.12411 0.62618 0.0
O41 O 0.15999 0.11584 0.63879 0.0
C42 C 0.06917 0.15648 0.73636 0.0
O43 O 0.07732 0.12328 0.74231 0.0
C44 C 0.09768 0.05288 0.68479 0.0
O45 O 0.10446 0.05703 0.65832 0.0
O46 O 0.10147 0.07947 0.70093 0.0
O47 O 0.1026 0.13403 0.64083 0.0
O48 O 0.16268 0.15613 0.69464 0.0
C49 C 0.16272 0.18955 0.68995 0.0
O50 O 0.13329 0.20399 0.67956 0.0
O51 O 0.07613 0.16801 0.7121 0.0
Mg52 Mg 0.34418 0.39075 0.3913 0.0
C53 C 0.36781 0.38816 0.44824 0.0
O54 O 0.39203 0.37122 0.43328 0.0
C55 C 0.31154 0.40526 0.33646 0.0
O56 O 0.34495 0.39571 0.33061 0.0
C57 C 0.40974 0.43329 0.36946 0.0
O58 O 0.38418 0.45433 0.36004 0.0
O59 O 0.40072 0.40391 0.38088 0.0
O60 O 0.34108 0.40256 0.43575 0.0
O61 O 0.32958 0.33454 0.39259 0.0
C62 C 0.3204 0.31547 0.37191 0.0
O63 O 0.32754 0.32672 0.34681 0.0
O64 O 0.30339 0.41063 0.36174 0.0
Mg65 Mg 0.08792 0.33285 0.90818 0.0
C66 C 0.05501 0.34312 0.96582 0.0
O67 O 0.0386 0.36926 0.95288 0.0
C68 C 0.07014 0.30793 0.85209 0.0
O69 O 0.08321 0.34041 0.8488 0.0
C70 C 0.07419 0.41572 0.90753 0.0
O71 O 0.09961 0.41783 0.92655 0.0
O72 O 0.06643 0.38543 0.89694 0.0
O73 O 0.07485 0.3219 0.95186 0.0
O74 O 0.14672 0.32609 0.90466 0.0
C75 C 0.1571 0.29365 0.90378 0.0
O76 O 0.13234 0.26824 0.90485 0.0
O77 O 0.06665 0.29604 0.87666 0.0
Mg78 Mg 0.16591 0.09275 0.40277 0.0
C79 C 0.14491 0.08939 0.46272 0.0
O80 O 0.11439 0.09822 0.45056 0.0
C81 C 0.21083 0.10254 0.35317 0.0
O82 O 0.18064 0.12012 0.34871 0.0
C83 C 0.0857 0.07138 0.3899 0.0
O84 O 0.07814 0.10331 0.39954 0.0
O85 O 0.11876 0.06183 0.38803 0.0
O86 O 0.17257 0.08313 0.44756 0.0
O87 O 0.16294 0.15047 0.3983 0.0
C88 C 0.17411 0.17028 0.41797 0.0
O89 O 0.17688 0.1567 0.44286 0.0
O90 O 0.2132 0.08402 0.37527 0.0
Mg91 Mg 0.4263 0.17271 0.90493 0.0
C92 C 0.45046 0.16868 0.96641 0.0
O93 O 0.46887 0.14076 0.95799 0.0
C94 C 0.43711 0.20323 0.84876 0.0
O95 O 0.41856 0.17372 0.84402 0.0
C96 C 0.47756 0.11679 0.88259 0.0
O97 O 0.49107 0.14597 0.87145 0.0
O98 O 0.4492 0.11928 0.89756 0.0
O99 O 0.43379 0.18757 0.94859 0.0
O100 O 0.36747 0.17752 0.9001 0.0
C101 C 0.35673 0.20979 0.90169 0.0
O102 O 0.38119 0.23508 0.90543 0.0
O103 O 0.44649 0.21034 0.87359 0.0
Mg104 Mg 0.6672 0.90991 0.89385 0.0
C105 C 0.6551 0.87908 0.949 0.0
O106 O 0.64269 0.85413 0.93227 0.0
C107 C 0.70406 0.95296 0.85087 0.0
O108 O 0.67135 0.94929 0.84032 0.0
C109 C 0.58883 0.93607 0.89891 0.0
O110 O 0.5907 0.9184 0.92229 0.0
O111 O 0.61517 0.93393 0.88189 0.0
O112 O 0.66857 0.90744 0.93861 0.0
O113 O 0.68515 0.85665 0.8804 0.0
C114 C 0.71934 0.85346 0.88412 0.0
O115 O 0.73732 0.88073 0.8946 0.0
O116 O 0.7092 0.9433 0.87575 0.0
Mg117 Mg 0.60819 0.63808 0.38786 0.0
C118 C 0.66486 0.69194 0.39445 0.0
O119 O 0.63743 0.70194 0.40996 0.0
C120 C 0.58065 0.56044 0.38696 0.0
O121 O 0.58392 0.56371 0.41389 0.0
C122 C 0.56344 0.66471 0.34159 0.0
O123 O 0.57255 0.63268 0.33309 0.0
O124 O 0.57289 0.67456 0.36577 0.0
O125 O 0.66199 0.66248 0.38125 0.0
O126 O 0.59926 0.63792 0.43225 0.0
C127 C 0.62387 0.62354 0.44687 0.0
O128 O 0.6524 0.61009 0.4344 0.0
O129 O 0.59319 0.58514 0.37148 0.0
Mg130 Mg 0.85447 0.60057 0.89215 0.0
C131 C 0.87082 0.62525 0.9477 0.0
O132 O 0.88941 0.64667 0.9314 0.0
C133 C 0.82078 0.56164 0.84578 0.0
O134 O 0.85206 0.57225 0.83547 0.0
C135 C 0.90775 0.54447 0.88241 0.0
O136 O 0.87675 0.52785 0.88673 0.0
O137 O 0.90831 0.57854 0.88268 0.0
O138 O 0.85135 0.60082 0.93678 0.0
O139 O 0.83661 0.65438 0.88036 0.0
C140 C 0.80224 0.65693 0.88336 0.0
O141 O 0.78424 0.6288 0.89226 0.0
O142 O 0.81451 0.56723 0.87128 0.0
Mg143 Mg 0.90471 0.85335 0.3909 0.0
C144 C 0.84464 0.80825 0.36471 0.0
O145 O 0.87209 0.79853 0.34915 0.0
C146 C 0.91884 0.93489 0.39601 0.0
O147 O 0.89806 0.93235 0.41799 0.0
C148 C 0.95392 0.83029 0.3455 0.0
O149 O 0.94801 0.86374 0.33879 0.0
O150 O 0.94088 0.81848 0.3681 0.0
O151 O 0.84937 0.83351 0.38215 0.0
O152 O 0.9114 0.84808 0.43524 0.0
C153 C 0.88513 0.85836 0.45031 0.0
O154 O 0.85562 0.87039 0.43833 0.0
O155 O 0.92258 0.90773 0.38041 0.0
Mg156 Mg 0.65178 0.58745 0.66939 0.0
C157 C 0.63526 0.59713 0.61057 0.0
O158 O 0.60983 0.61548 0.62318 0.0
C159 C 0.6856 0.56175 0.72046 0.0
O160 O 0.65717 0.5795 0.72926 0.0
C161 C 0.59271 0.54112 0.69161 0.0
O162 O 0.62153 0.52178 0.69677 0.0
O163 O 0.59674 0.57146 0.68021 0.0
O164 O 0.65832 0.58049 0.62519 0.0
O165 O 0.66501 0.64294 0.67763 0.0
C166 C 0.69908 0.64889 0.67763 0.0
O167 O 0.72107 0.62208 0.67287 0.0
O168 O 0.69043 0.55844 0.69454 0.0
Mg169 Mg 0.93206 0.68657 0.16215 0.0
C170 C 0.86309 0.72014 0.17908 0.0
O171 O 0.88475 0.74796 0.17638 0.0
C172 C 0.98742 0.6297 0.16145 0.0
O173 O 1.00518 0.65611 0.1496 0.0
C174 C 0.97058 0.71572 0.21023 0.0
O175 O 0.96573 0.68191 0.21662 0.0
O176 O 0.96121 0.72618 0.18628 0.0
O177 O 0.87594 0.68911 0.17516 0.0
O178 O 0.93108 0.6926 0.1177 0.0
C179 C 0.91088 0.66893 0.1065 0.0
O180 O 0.89416 0.64578 0.12255 0.0
O181 O 0.95508 0.63479 0.16963 0.0
Mg182 Mg 0.86462 0.88888 0.67369 0.0
C183 C 0.8747 0.87706 0.61469 0.0
O184 O 0.89996 0.85774 0.62654 0.0
C185 C 0.83391 0.91678 0.72582 0.0
O186 O 0.85443 0.89044 0.7344 0.0
C187 C 0.93758 0.91585 0.69718 0.0
O188 O 0.9177 0.92625 0.71819 0.0
O189 O 0.92266 0.89864 0.6775 0.0
O190 O 0.85349 0.8951 0.62998 0.0
O191 O 0.84778 0.8348 0.68299 0.0
C192 C 0.81355 0.83003 0.6837 0.0
O193 O 0.79232 0.8577 0.68006 0.0
O194 O 0.83282 0.92372 0.7001 0.0
Mg195 Mg 0.58792 0.81401 0.16158 0.0
C196 C 0.65667 0.78054 0.17874 0.0
O197 O 0.63512 0.75273 0.17536 0.0
C198 C 0.53129 0.86964 0.16235 0.0
O199 O 0.51382 0.84304 0.15041 0.0
C200 C 0.54931 0.78379 0.20905 0.0
O201 O 0.55464 0.81733 0.21612 0.0
O202 O 0.55858 0.77387 0.1849 0.0
O203 O 0.6438 0.81161 0.17519 0.0
O204 O 0.59006 0.80876 0.11707 0.0
C205 C 0.60891 0.83384 0.10644 0.0
O206 O 0.62335 0.85795 0.12298 0.0
O207 O 0.56404 0.86522 0.16982 0.0
H208 H 0.48558 0.1386 1.01063 0.0
H209 H 0.39778 0.20963 0.98996 0.0
H210 H 0.3774 0.20911 0.03787 0.0
H211 H 0.37905 0.18166 0.08396 0.0
H212 H 0.46681 0.11175 0.10574 0.0
H213 H 0.49309 0.1191 0.05937 0.0
C214 C 0.46241 0.15452 1.01672 0.0
C215 C 0.44293 0.17365 0.99647 0.0
C216 C 0.45074 0.15418 0.04454 0.0
C217 C 0.41323 0.19447 1.00489 0.0
C218 C 0.40141 0.1941 1.03235 0.0
C219 C 0.4046 0.16901 0.07879 0.0
C220 C 0.42111 0.14633 0.09816 0.0
C221 C 0.41919 0.17313 0.05211 0.0
C222 C 0.45398 0.12978 0.09127 0.0
C223 C 0.46869 0.13363 0.06463 0.0
H224 H 0.3161 0.40285 0.48765 0.0
H225 H 0.42791 0.37144 0.47779 0.0
H226 H 0.43412 0.36453 0.52758 0.0
H227 H 0.40762 0.36551 0.57421 0.0
H228 H 0.29582 0.39669 0.58446 0.0
H229 H 0.28994 0.40534 0.53471 0.0
C230 C 0.3419 0.39489 0.49645 0.0
C231 C 0.3714 0.38763 0.47888 0.0
C232 C 0.34531 0.39053 0.52534 0.0
C233 C 0.4046 0.37707 0.4907 0.0
C234 C 0.40825 0.37302 0.51927 0.0
C235 C 0.38195 0.37411 0.56557 0.0
C236 C 0.35224 0.38024 0.58318 0.0
C237 C 0.3787 0.37924 0.53681 0.0
C238 C 0.31924 0.39167 0.57151 0.0
C239 C 0.31579 0.3967 0.54297 0.0
H240 H 0.08215 0.29138 0.99999 0.0
H241 H 0.02826 0.3934 1.00118 0.0
H242 H 0.03572 0.39695 0.05119 0.0
H243 H 0.06335 0.37427 0.09405 0.0
H244 H 0.11659 0.27188 0.09294 0.0
H245 H 0.103 0.26521 0.0439 0.0
C246 C 0.07158 0.31415 1.01122 0.0
C247 C 0.05508 0.34224 0.99663 0.0
C248 C 0.07597 0.31613 0.04017 0.0
C249 C 0.04125 0.37138 1.01169 0.0
C250 C 0.04559 0.37354 0.04039 0.0
C251 C 0.07134 0.35015 0.08326 0.0
C252 C 0.09144 0.32389 0.09729 0.0
C253 C 0.06373 0.34652 0.05479 0.0
C254 C 0.10135 0.29275 0.08281 0.0
C255 C 0.09374 0.28892 0.05461 0.0
H256 H 0.18174 0.10087 0.59048 0.0
H257 H 0.07057 0.13665 0.59307 0.0
H258 H 0.06539 0.12766 0.54312 0.0
H259 H 0.09238 0.11014 0.49877 0.0
H260 H 0.20375 0.07506 0.49583 0.0
H261 H 0.20871 0.08297 0.54598 0.0
C262 C 0.15634 0.1068 0.58017 0.0
C263 C 0.12658 0.11955 0.59565 0.0
C264 C 0.15352 0.10149 0.5514 0.0
C265 C 0.09393 0.12694 0.58179 0.0
C266 C 0.09093 0.12171 0.5532 0.0
C267 C 0.11776 0.10397 0.50903 0.0
C268 C 0.14766 0.09188 0.49341 0.0
C269 C 0.12053 0.10899 0.53781 0.0
C270 C 0.18028 0.08426 0.50723 0.0
C271 C 0.18315 0.08891 0.53593 0.0
H272 H 0.64573 0.88572 0.07908 0.0
H273 H 0.58543 0.78779 0.06593 0.0
H274 H 0.5954 0.79279 1.01605 0.0
H275 H 0.62053 0.82541 0.97633 0.0
H276 H 0.67997 0.92382 0.98969 0.0
H277 H 0.67112 0.91803 0.03955 0.0
C278 C 0.63475 0.86538 0.06536 0.0
C279 C 0.61481 0.83642 0.07623 0.0
C280 C 0.64048 0.8685 0.0368 0.0
C281 C 0.60081 0.81038 0.0581 0.0
C282 C 0.60653 0.81321 1.0296 0.0
C283 C 0.6317 0.84555 0.99012 0.0
C284 C 0.65091 0.87503 0.97927 0.0
C285 C 0.62625 0.84221 1.01873 0.0
C286 C 0.66508 0.9009 0.99747 0.0
C287 C 0.66 0.89762 1.02598 0.0
H288 H 0.5891 0.62897 0.57461 0.0
H289 H 0.68685 0.56606 0.57778 0.0
H290 H 0.69174 0.56863 0.52741 0.0
H291 H 0.66885 0.5896 0.48264 0.0
H292 H 0.57095 0.65231 0.47957 0.0
H293 H 0.56561 0.64895 0.52985 0.0
C294 C 0.61146 0.61571 0.56433 0.0
C295 C 0.63762 0.59741 0.57999 0.0
C296 C 0.61414 0.61736 0.5354 0.0
C297 C 0.66633 0.58033 0.56626 0.0
C298 C 0.66918 0.58184 0.53745 0.0
C299 C 0.64632 0.60256 0.49293 0.0
C300 C 0.6204 0.62129 0.47733 0.0
C301 C 0.64335 0.60044 0.52184 0.0
C302 C 0.5913 0.63775 0.49104 0.0
C303 C 0.58822 0.63585 0.51981 0.0
H304 H 0.91029 0.67467 0.97608 0.0
H305 H 0.83736 0.58507 0.9876 0.0
H306 H 0.84303 0.59129 0.03773 0.0
H307 H 0.86937 0.62144 0.07806 0.0
H308 H 0.94259 0.71084 0.0667 0.0
H309 H 0.93602 0.70541 1.01652 0.0
C310 C 0.89555 0.6565 0.98952 0.0
C311 C 0.87347 0.62937 0.97808 0.0
C312 C 0.89901 0.66018 1.01829 0.0
C313 C 0.85455 0.60614 0.99584 0.0
C314 C 0.85779 0.60968 1.02451 0.0
C315 C 0.88389 0.63983 0.06466 0.0
C316 C 0.90651 0.66648 0.07614 0.0
C317 C 0.88006 0.63649 0.03592 0.0
C318 C 0.92503 0.69008 0.05842 0.0
C319 C 0.9213 0.68697 1.02974 0.0
H320 H 0.83886 0.88845 0.48727 0.0
H321 H 0.93832 0.8284 0.48192 0.0
H322 H 0.94362 0.829 0.53227 0.0
H323 H 0.92023 0.84664 0.57762 0.0
H324 H 0.82146 0.90771 0.58321 0.0
H325 H 0.81575 0.90673 0.5328 0.0
C326 C 0.86165 0.87538 0.4971 0.0
C327 C 0.8881 0.8583 0.48083 0.0
C328 C 0.8647 0.8761 0.52605 0.0
C329 C 0.91759 0.84174 0.49393 0.0
C330 C 0.92064 0.84207 0.52272 0.0
C331 C 0.8974 0.85975 0.56787 0.0
C332 C 0.87126 0.87717 0.58419 0.0
C333 C 0.89439 0.8592 0.53895 0.0
C334 C 0.84199 0.89415 0.57114 0.0
C335 C 0.83868 0.89354 0.54233 0.0
H336 H 0.18724 0.26178 0.16418 0.0
H337 H 0.26606 0.34479 0.14764 0.0
H338 H 0.31339 0.29952 0.14168 0.0
H339 H 0.3329 0.23713 0.14651 0.0
H340 H 0.25351 0.15458 0.16344 0.0
H341 H 0.20527 0.19911 0.16341 0.0
C342 C 0.21476 0.26994 0.15905 0.0
C343 C 0.22359 0.30642 0.15689 0.0
C344 C 0.24146 0.24396 0.15578 0.0
C345 C 0.25893 0.31678 0.14956 0.0
C346 C 0.28587 0.29096 0.14627 0.0
C347 C 0.30495 0.22884 0.14985 0.0
C348 C 0.29672 0.1928 0.15549 0.0
C349 C 0.27757 0.25459 0.15014 0.0
C350 C 0.26044 0.18221 0.15922 0.0
C351 C 0.23295 0.20766 0.15937 0.0
H352 H 0.30905 0.26649 0.72335 0.0
H353 H 0.25649 0.35442 0.68231 0.0
H354 H 0.20177 0.3179 0.67586 0.0
H355 H 0.17113 0.25983 0.6785 0.0
H356 H 0.22517 0.17065 0.7168 0.0
H357 H 0.27746 0.2089 0.7275 0.0
C358 C 0.28536 0.27792 0.71351 0.0
C359 C 0.28667 0.31313 0.7034 0.0
C360 C 0.25465 0.25637 0.70892 0.0
C361 C 0.25601 0.32739 0.6903 0.0
C362 C 0.22487 0.30647 0.68646 0.0
C363 C 0.19427 0.24871 0.68928 0.0
C364 C 0.19439 0.21237 0.69667 0.0
C365 C 0.22428 0.27069 0.69506 0.0
C366 C 0.22456 0.19846 0.71068 0.0
C367 C 0.25437 0.22034 0.71689 0.0
H368 H 0.28092 0.30122 0.41788 0.0
H369 H 0.30054 0.26354 0.33481 0.0
H370 H 0.25353 0.21756 0.34058 0.0
H371 H 0.20793 0.18743 0.36973 0.0
H372 H 0.1891 0.22533 0.45283 0.0
H373 H 0.23405 0.27284 0.44616 0.0
C374 C 0.27525 0.28275 0.40108 0.0
C375 C 0.29458 0.28549 0.37607 0.0
C376 C 0.24777 0.25701 0.40434 0.0
C377 C 0.2863 0.26175 0.35437 0.0
C378 C 0.25925 0.23566 0.35758 0.0
C379 C 0.21302 0.2066 0.38615 0.0
C380 C 0.19503 0.20305 0.41171 0.0
C381 C 0.23972 0.23315 0.38245 0.0
C382 C 0.20245 0.22769 0.43294 0.0
C383 C 0.22839 0.2546 0.42923 0.0
H384 H 0.32783 0.27638 0.90261 0.0
H385 H 0.2976 0.16489 0.89786 0.0
H386 H 0.23334 0.18124 0.89752 0.0
H387 H 0.18589 0.22707 0.89973 0.0
H388 H 0.21631 0.33853 0.90456 0.0
H389 H 0.2805 0.3222 0.90366 0.0
C390 C 0.30726 0.25556 0.90143 0.0
C391 C 0.31764 0.21937 0.90037 0.0
C392 C 0.27041 0.26516 0.90132 0.0
C393 C 0.29047 0.19289 0.89873 0.0
C394 C 0.25371 0.20225 0.89857 0.0
C395 C 0.20651 0.24788 0.90053 0.0
C396 C 0.19617 0.28405 0.90232 0.0
C397 C 0.24337 0.23828 0.90005 0.0
C398 C 0.22338 0.31054 0.90322 0.0
C399 C 0.26012 0.3012 0.90272 0.0
H400 H 0.69187 0.78542 0.87873 0.0
H401 H 0.7921 0.8458 0.8781 0.0
H402 H 0.82691 0.79082 0.87556 0.0
H403 H 0.82944 0.72506 0.87752 0.0
H404 H 0.72918 0.6647 0.87926 0.0
H405 H 0.69434 0.71963 0.87715 0.0
C406 C 0.72128 0.78651 0.87759 0.0
C407 C 0.73923 0.81972 0.87886 0.0
C408 C 0.74139 0.75458 0.87658 0.0
C409 C 0.77746 0.8206 0.87747 0.0
C410 C 0.79751 0.78911 0.87602 0.0
C411 C 0.8 0.72394 0.87705 0.0
C412 C 0.78211 0.69073 0.87883 0.0
C413 C 0.77986 0.75586 0.8762 0.0
C414 C 0.74384 0.68986 0.87823 0.0
C415 C 0.72374 0.72133 0.877 0.0
H416 H 0.71871 0.6923 0.35493 0.0
H417 H 0.68343 0.74601 0.42918 0.0
H418 H 0.73406 0.78788 0.42573 0.0
H419 H 0.78906 0.80927 0.40219 0.0
H420 H 0.82489 0.75618 0.32786 0.0
H421 H 0.77346 0.71481 0.3306 0.0
C422 C 0.72228 0.71303 0.37042 0.0
C423 C 0.69726 0.71578 0.39233 0.0
C424 C 0.75148 0.73756 0.36819 0.0
C425 C 0.70215 0.74314 0.41205 0.0
C426 C 0.73113 0.76726 0.4101 0.0
C427 C 0.78541 0.78896 0.38638 0.0
C428 C 0.81091 0.78602 0.36484 0.0
C429 C 0.75594 0.76484 0.38824 0.0
C430 C 0.80576 0.75921 0.3447 0.0
C431 C 0.77637 0.73534 0.3463 0.0
H432 H 0.74197 0.81201 0.68511 0.0
H433 H 0.84939 0.76649 0.68729 0.0
H434 H 0.82303 0.70646 0.68702 0.0
H435 H 0.76991 0.66713 0.68348 0.0
H436 H 0.66239 0.71226 0.68071 0.0
H437 H 0.6885 0.77241 0.68405 0.0
C438 C 0.75966 0.78899 0.68573 0.0
C439 C 0.79763 0.79376 0.68601 0.0
C440 C 0.74434 0.75455 0.68532 0.0
C441 C 0.8201 0.76361 0.68697 0.0
C442 C 0.80505 0.72926 0.68675 0.0
C443 C 0.7521 0.69008 0.68371 0.0
C444 C 0.71426 0.68523 0.68158 0.0
C445 C 0.76727 0.72446 0.68548 0.0
C446 C 0.69161 0.71526 0.68222 0.0
C447 C 0.70652 0.74965 0.68408 0.0
H448 H 0.82743 0.78299 0.18471 0.0
H449 H 0.81017 0.66876 0.18316 0.0
H450 H 0.74459 0.67757 0.18533 0.0
H451 H 0.69228 0.71763 0.18382 0.0
H452 H 0.70952 0.83187 0.18389 0.0
H453 H 0.77509 0.82303 0.18639 0.0
C454 C 0.80938 0.75997 0.18512 0.0
C455 C 0.82371 0.72527 0.18349 0.0
C456 C 0.77171 0.76522 0.18595 0.0
C457 C 0.79989 0.69577 0.18422 0.0
C458 C 0.76236 0.70078 0.18541 0.0
C459 C 0.71032 0.74065 0.18466 0.0
C460 C 0.696 0.77536 0.18339 0.0
C461 C 0.74798 0.73538 0.18568 0.0
C462 C 0.7198 0.80485 0.18467 0.0
C463 C 0.75732 0.79982 0.18605 0.0
H464 H 0.26835 0.05735 0.34272 0.0
H465 H 0.22167 0.15785 0.31822 0.0
H466 H 0.26708 0.16463 0.28208 0.0
H467 H 0.31641 0.1396 0.25415 0.0
H468 H 0.36147 0.0376 0.27631 0.0
H469 H 0.32119 0.03417 0.31644 0.0
C470 C 0.26845 0.08087 0.32966 0.0
C471 C 0.24124 0.10678 0.33307 0.0
C472 C 0.29447 0.08439 0.30826 0.0
C473 C 0.24184 0.13713 0.31589 0.0
C474 C 0.26795 0.14117 0.29517 0.0
C475 C 0.31806 0.11703 0.26812 0.0
C476 C 0.34205 0.08896 0.26216 0.0
C477 C 0.29391 0.11463 0.2907 0.0
C478 C 0.3433 0.05964 0.28035 0.0
C479 C 0.32008 0.05754 0.30328 0.0
H480 H 0.45729 0.33243 0.76615 0.0
H481 H 0.41553 0.25381 0.70869 0.0
H482 H 0.41689 0.20847 0.74495 0.0
H483 H 0.42443 0.19256 0.79389 0.0
H484 H 0.4648 0.27141 0.85168 0.0
H485 H 0.46962 0.31515 0.81431 0.0
C486 C 0.44899 0.30526 0.76137 0.0
C487 C 0.43607 0.29672 0.73465 0.0
C488 C 0.44922 0.27941 0.78249 0.0
C489 C 0.42559 0.26126 0.72897 0.0
C490 C 0.42615 0.23531 0.74978 0.0
C491 C 0.43461 0.21921 0.79834 0.0
C492 C 0.44389 0.22872 0.82571 0.0
C493 C 0.43702 0.24432 0.77678 0.0
C494 C 0.45734 0.26333 0.83091 0.0
C495 C 0.46002 0.2884 0.80952 0.0
H496 H 0.21089 0.37085 0.23372 0.0
H497 H 0.13924 0.44341 0.27576 0.0
H498 H 0.18246 0.44846 0.31428 0.0
H499 H 0.24291 0.43475 0.33476 0.0
H500 H 0.31602 0.3669 0.28912 0.0
H501 H 0.27042 0.35785 0.25347 0.0
C502 C 0.20436 0.38714 0.2516 0.0
C503 C 0.17157 0.40614 0.25215 0.0
C504 C 0.2301 0.39134 0.2729 0.0
C505 C 0.16409 0.42809 0.27506 0.0
C506 C 0.18894 0.4312 0.29698 0.0
C507 C 0.24878 0.41807 0.31698 0.0
C508 C 0.28308 0.40179 0.31468 0.0
C509 C 0.22244 0.41346 0.29592 0.0
C510 C 0.29018 0.38023 0.29142 0.0
C511 C 0.26396 0.37476 0.27099 0.0
H512 H 0.07017 0.22961 0.73638 0.0
H513 H 0.04732 0.13864 0.78838 0.0
H514 H 0.0426 0.17761 0.82866 0.0
H515 H 0.05144 0.23684 0.85014 0.0
H516 H 0.0751 0.32758 0.79803 0.0
H517 H 0.07275 0.2896 0.75714 0.0
C518 C 0.06338 0.21838 0.7564 0.0
C519 C 0.05943 0.18116 0.75928 0.0
C520 C 0.06131 0.24093 0.77971 0.0
C521 C 0.05077 0.16715 0.7855 0.0
C522 C 0.04819 0.18943 0.80865 0.0
C523 C 0.05556 0.24839 0.82982 0.0
C524 C 0.06387 0.285 0.82734 0.0
C525 C 0.05447 0.22626 0.80618 0.0
C526 C 0.06899 0.29945 0.80073 0.0
C527 C 0.06767 0.27773 0.77722 0.0
H528 H 0.70304 0.97146 0.79651 0.0
H529 H 0.77582 0.94223 0.86264 0.0
H530 H 0.82435 0.93237 0.8293 0.0
H531 H 0.84287 0.92269 0.78113 0.0
H532 H 0.77024 0.95108 0.71483 0.0
H533 H 0.72501 0.97089 0.74848 0.0
C534 C 0.72976 0.96375 0.80371 0.0
C535 C 0.7355 0.95687 0.83199 0.0
C536 C 0.75742 0.9574 0.78435 0.0
C537 C 0.77046 0.94743 0.841 0.0
C538 C 0.79822 0.94149 0.8219 0.0
C539 C 0.81735 0.93375 0.77406 0.0
C540 C 0.80957 0.9348 0.74561 0.0
C541 C 0.79147 0.94485 0.79348 0.0
C542 C 0.77675 0.94981 0.73665 0.0
C543 C 0.75083 0.96099 0.75589 0.0
H544 H 0.54562 0.65197 0.2881 0.0
H545 H 0.55056 0.73612 0.34924 0.0
H546 H 0.54035 0.7806 0.3132 0.0
H547 H 0.53978 0.79583 0.26393 0.0
H548 H 0.53949 0.7117 0.20266 0.0
H549 H 0.53761 0.6669 0.23928 0.0
C550 C 0.54385 0.67999 0.29368 0.0
C551 C 0.54956 0.69077 0.32127 0.0
C552 C 0.53919 0.70543 0.27278 0.0
C553 C 0.54663 0.72712 0.32814 0.0
C554 C 0.54097 0.75259 0.30751 0.0
C555 C 0.53861 0.76771 0.25852 0.0
C556 C 0.54045 0.75712 0.23059 0.0
C557 C 0.53873 0.74212 0.27966 0.0
C558 C 0.53852 0.72058 0.22399 0.0
C559 C 0.53758 0.69494 0.24492 0.0
H560 H 0.82636 0.54417 0.79149 0.0
H561 H 0.7483 0.55602 0.85745 0.0
H562 H 0.69867 0.55218 0.8241 0.0
H563 H 0.67822 0.5547 0.77586 0.0
H564 H 0.75627 0.54454 0.70978 0.0
H565 H 0.80512 0.53802 0.74358 0.0
C566 C 0.79846 0.54523 0.79864 0.0
C567 C 0.79107 0.55106 0.82684 0.0
C568 C 0.77009 0.54373 0.7793 0.0
C569 C 0.75478 0.55179 0.83584 0.0
C570 C 0.72637 0.54983 0.81675 0.0
C571 C 0.70585 0.55048 0.76885 0.0
C572 C 0.71375 0.55077 0.7404 0.0
C573 C 0.73381 0.54728 0.78837 0.0
C574 C 0.74953 0.54464 0.73159 0.0
C575 C 0.7775 0.5411 0.7509 0.0
H576 H 0.97129 0.84519 0.29218 0.0
H577 H 0.96766 0.75895 0.35133 0.0
H578 H 0.97873 0.71587 0.31435 0.0
H579 H 0.98003 0.70225 0.26484 0.0
H580 H 0.97894 0.7882 0.20541 0.0
H581 H 0.97974 0.8319 0.24299 0.0
C582 C 0.9736 0.81704 0.29712 0.0
C583 C 0.96804 0.80525 0.32444 0.0
C584 C 0.97876 0.79234 0.27565 0.0
C585 C 0.97145 0.76871 0.33045 0.0
C586 C 0.97765 0.74404 0.30929 0.0
C587 C 0.98066 0.73054 0.26004 0.0
C588 C 0.97879 0.74193 0.23234 0.0
C589 C 0.97988 0.75546 0.28172 0.0
C590 C 0.97999 0.7787 0.22654 0.0
C591 C 0.98029 0.80371 0.24803 0.0
H592 H 0.47975 0.02625 0.18647 0.0
H593 H 0.38056 0.98557 0.15023 0.0
H594 H 0.40864 0.92685 0.14435 0.0
H595 H 0.46191 0.88768 0.14898 0.0
H596 H 0.56057 0.92969 0.18539 0.0
H597 H 0.53191 0.98753 0.19174 0.0
C598 C 0.46413 0.00461 0.17727 0.0
C599 C 0.42815 0.01028 0.1687 0.0
C600 C 0.48036 0.97123 0.17398 0.0
C601 C 0.40833 0.98186 0.15697 0.0
C602 C 0.42438 0.94834 0.15359 0.0
C603 C 0.47711 0.90947 0.15835 0.0
C604 C 0.51337 0.90437 0.16663 0.0
C605 C 0.46046 0.9428 0.16194 0.0
C606 C 0.53267 0.93286 0.17879 0.0
C607 C 0.51632 0.96598 0.18243 0.0
H608 H 0.52984 0.55713 0.66481 0.0
H609 H 0.57445 0.48943 0.72827 0.0
H610 H 0.51752 0.45591 0.73072 0.0
H611 H 0.45886 0.44073 0.71048 0.0
H612 H 0.41545 0.50498 0.64437 0.0
H613 H 0.46771 0.54543 0.64774 0.0
C614 C 0.52674 0.53554 0.67957 0.0
C615 C 0.55634 0.52547 0.69613 0.0
C616 C 0.49427 0.51558 0.68023 0.0
C617 C 0.55212 0.49737 0.71509 0.0
C618 C 0.51961 0.47818 0.7165 0.0
C619 C 0.46039 0.46392 0.6971 0.0
C620 C 0.43355 0.46946 0.6769 0.0
C621 C 0.49103 0.48624 0.69847 0.0
C622 C 0.43591 0.49987 0.65995 0.0
C623 C 0.46588 0.52293 0.66177 0.0
H624 H 0.03407 0.47009 0.17856 0.0
H625 H 0.13389 0.50993 0.14294 0.0
H626 H 0.10769 0.56981 0.1398 0.0
H627 H 0.05593 0.61032 0.14669 0.0
H628 H 0.95669 0.56933 0.1827 0.0
H629 H 0.98342 0.5102 0.18624 0.0
C630 C 0.05021 0.4918 0.17006 0.0
C631 C 0.08582 0.48555 0.16086 0.0
C632 C 0.0351 0.52589 0.16843 0.0
C633 C 0.10637 0.51407 0.15011 0.0
C634 C 0.09141 0.54826 0.14832 0.0
C635 C 0.04018 0.58847 0.15537 0.0
C636 C 1.00431 0.59424 0.16434 0.0
C637 C 0.05572 0.55442 0.15735 0.0
C638 C 0.98432 0.56566 0.17561 0.0
C639 C 0.99956 0.5318 0.17763 0.0
H640 H 0.97748 0.954 0.7344 0.0
H641 H 0.98131 0.91049 0.65167 0.0
H642 H 0.03611 0.94517 0.64204 0.0
H643 H 0.0764 0.99511 0.65447 0.0
H644 H 0.07133 0.03997 0.73673 0.0
H645 H 0.0242 0.99695 0.74927 0.0
C646 C 0.99069 0.95155 0.71444 0.0
C647 C 0.97479 0.93034 0.69361 0.0
C648 C 0.02187 0.97207 0.70883 0.0
C649 C 0.99264 0.92698 0.66801 0.0
C650 C 0.02397 0.94692 0.66242 0.0
C651 C 0.06562 0.99498 0.67534 0.0
C652 C 0.07677 0.02132 0.69437 0.0
C653 C 0.03786 0.9707 0.68226 0.0
C654 C 0.06289 0.02035 0.72148 0.0
C655 C 0.03575 0.99585 0.72867 0.0
H656 H 0.55836 0.4979 0.41045 0.0
H657 H 0.54301 0.5637 0.33827 0.0
H658 H 0.49021 0.52789 0.32494 0.0
H659 H 0.44362 0.48288 0.33715 0.0
H660 H 0.46025 0.41554 0.40827 0.0
H661 H 0.51733 0.44655 0.41839 0.0
C662 C 0.54394 0.50392 0.39148 0.0
C663 C 0.55442 0.5338 0.37564 0.0
C664 C 0.51349 0.48313 0.38386 0.0
C665 C 0.53563 0.54096 0.35094 0.0
C666 C 0.50517 0.52061 0.34337 0.0
C667 C 0.46012 0.47456 0.35454 0.0
C668 C 0.44744 0.44722 0.3721 0.0
C669 C 0.49311 0.49242 0.36019 0.0
C670 C 0.46932 0.43646 0.39439 0.0
C671 C 0.50191 0.45437 0.40031 0.0
H672 H 0.01791 0.41889 0.87121 0.0
H673 H 0.0774 0.48301 0.93031 0.0
H674 H 0.03372 0.53143 0.92472 0.0
H675 H 0.97431 0.55275 0.90699 0.0
H676 H 0.91383 0.48605 0.85037 0.0
H677 H 0.96228 0.44192 0.85067 0.0
C678 C 0.0217 0.4436 0.88264 0.0
C679 C 0.05078 0.44702 0.90139 0.0
C680 C 0.99609 0.47102 0.87976 0.0
C681 C 0.05521 0.47944 0.91584 0.0
C682 C 0.03014 0.50719 0.9127 0.0
C683 C 0.97237 0.52901 0.89416 0.0
C684 C 0.94069 0.52267 0.87855 0.0
C685 C 0.9999 0.50294 0.89525 0.0
C686 C 0.93804 0.49148 0.86247 0.0
C687 C 0.96564 0.46614 0.86275 0.0
H688 H 0.98278 0.93863 0.36775 0.0
H689 H 0.91013 0.00177 0.41757 0.0
H690 H 0.95408 0.05107 0.41777 0.0
H691 H 0.01537 0.07412 0.40742 0.0
H692 H 0.08963 0.00906 0.36054 0.0
H693 H 0.04288 0.96284 0.35547 0.0
C694 C 0.97624 0.96342 0.37822 0.0
C695 C 0.94311 0.96648 0.3926 0.0
C696 C 1.00218 0.99123 0.37904 0.0
C697 C 0.93539 -0.00134 0.40636 0.0
C698 C 0.96059 0.02684 0.40656 0.0
C699 C 0.02119 0.05006 0.39575 0.0
C700 C 0.05607 0.0451 0.38443 0.0
C701 C 0.99443 0.02312 0.39353 0.0
C702 C 0.06314 0.01356 0.36958 0.0
C703 C 0.03639 0.98707 0.36668 0.0
H704 H 0.58711 0.99066 0.86153 0.0
H705 H 0.52641 0.94387 0.92882 0.0
H706 H 0.48455 0.99419 0.92832 0.0
H707 H 0.4686 0.05451 0.91179 0.0
H708 H 0.53119 0.10191 0.84572 0.0
H709 H 0.56846 0.04854 0.84272 0.0
C710 C 0.56434 0.99108 0.87575 0.0
C711 C 0.56013 0.96349 0.89527 0.0
C712 C 0.5408 0.02059 0.87582 0.0
C713 C 0.53049 0.96475 0.91363 0.0
C714 C 0.50655 0.99364 0.91344 0.0
C715 C 0.49007 0.05295 0.89649 0.0
C716 C 0.49718 0.08243 0.87919 0.0
C717 C 0.51197 0.02221 0.89512 0.0
C718 C 0.52522 0.07987 0.85952 0.0
C719 C 0.54663 0.04927 0.85774 0.0
loop_
_geom_bond_atom_site_label_1
_geom_bond_atom_site_label_2
_geom_bond_distance
_geom_bond_site_symmetry_2
_ccdc_geom_bond_type
Mg0 O7 2.141 . S
Mg0 O8 2.048 . S
Mg0 O9 2.048 . S
Mg0 O12 2.141 . S
C1 O2 1.313 . S
C1 O8 1.195 . S
O2 C1 1.313 . S
C3 O4 1.245 . S
C3 O12 1.289 . S
O4 C3 1.245 . S
C5 O6 1.245 . S
C5 O7 1.289 . S
O6 C5 1.245 . S
O7 Mg0 2.141 . S
O7 C5 1.289 . S
O8 Mg0 2.048 . S
O8 C1 1.195 . S
O9 Mg0 2.048 . S
O9 C10 1.195 . S
C10 O9 1.195 . S
C10 O11 1.313 . S
O11 C10 1.313 . S
O12 Mg0 2.141 . S
O12 C3 1.289 . S
Mg13 O20 2.141 . S
Mg13 O21 2.048 . S
Mg13 O22 2.048 . S
Mg13 O25 2.141 . S
C14 O15 1.313 . S
C14 O21 1.195 . S
O15 C14 1.313 . S
C16 O17 1.245 . S
C16 O25 1.289 . S
O17 C16 1.245 . S
C18 O19 1.245 . S
C18 O20 1.289 . S
O19 C18 1.245 . S
O20 Mg13 2.141 . S
O20 C18 1.289 . S
O21 Mg13 2.048 . S
O21 C14 1.195 . S
O22 Mg13 2.048 . S
O22 C23 1.195 . S
C23 O22 1.195 . S
C23 O24 1.313 . S
O24 C23 1.313 . S
O25 Mg13 2.141 . S
O25 C16 1.289 . S
Mg26 O33 2.141 . S
Mg26 O34 2.048 . S
Mg26 O35 2.048 . S
Mg26 O38 2.141 . S
C27 O28 1.313 . S
C27 O34 1.195 . S
O28 C27 1.313 . S
C29 O30 1.245 . S
C29 O38 1.289 . S
O30 C29 1.245 . S
C31 O32 1.245 . S
C31 O33 1.289 . S
O32 C31 1.245 . S
O33 Mg26 2.141 . S
O33 C31 1.289 . S
O34 Mg26 2.048 . S
O34 C27 1.195 . S
O35 Mg26 2.048 . S
O35 C36 1.195 . S
C36 O35 1.195 . S
C36 O37 1.313 . S
O37 C36 1.313 . S
O38 Mg26 2.141 . S
O38 C29 1.289 . S
Mg39 O46 2.141 . S
Mg39 O47 2.048 . S
Mg39 O48 2.048 . S
Mg39 O51 2.141 . S
C40 O41 1.313 . S
C40 O47 1.195 . S
O41 C40 1.313 . S
C42 O43 1.245 . S
C42 O51 1.289 . S
O43 C42 1.245 . S
C44 O45 1.245 . S
C44 O46 1.289 . S
O45 C44 1.245 . S
O46 Mg39 2.141 . S
O46 C44 1.289 . S
O47 Mg39 2.048 . S
O47 C40 1.195 . S
O48 Mg39 2.048 . S
O48 C49 1.195 . S
C49 O48 1.195 . S
C49 O50 1.313 . S
O50 C49 1.313 . S
O51 Mg39 2.141 . S
O51 C42 1.289 . S
Mg52 O59 2.141 . S
Mg52 O60 2.048 . S
Mg52 O61 2.048 . S
Mg52 O64 2.141 . S
C53 O54 1.313 . S
C53 O60 1.195 . S
O54 C53 1.313 . S
C55 O56 1.245 . S
C55 O64 1.289 . S
O56 C55 1.245 . S
C57 O58 1.245 . S
C57 O59 1.289 . S
O58 C57 1.245 . S
O59 Mg52 2.141 . S
O59 C57 1.289 . S
O60 Mg52 2.048 . S
O60 C53 1.195 . S
O61 Mg52 2.048 . S
O61 C62 1.195 . S
C62 O61 1.195 . S
C62 O63 1.313 . S
O63 C62 1.313 . S
O64 Mg52 2.141 . S
O64 C55 1.289 . S
Mg65 O72 2.141 . S
Mg65 O73 2.048 . S
Mg65 O74 2.048 . S
Mg65 O77 2.141 . S
C66 O67 1.313 . S
C66 O73 1.195 . S
O67 C66 1.313 . S
C68 O69 1.245 . S
C68 O77 1.289 . S
O69 C68 1.245 . S
C70 O71 1.245 . S
C70 O72 1.289 . S
O71 C70 1.245 . S
O72 Mg65 2.141 . S
O72 C70 1.289 . S
O73 Mg65 2.048 . S
O73 C66 1.195 . S
O74 Mg65 2.048 . S
O74 C75 1.195 . S
C75 O74 1.195 . S
C75 O76 1.313 . S
O76 C75 1.313 . S
O77 Mg65 2.141 . S
O77 C68 1.289 . S
Mg78 O85 2.141 . S
Mg78 O86 2.048 . S
Mg78 O87 2.048 . S
Mg78 O90 2.141 . S
C79 O80 1.313 . S
C79 O86 1.195 . S
O80 C79 1.313 . S
C81 O82 1.245 . S
C81 O90 1.289 . S
O82 C81 1.245 . S
C83 O84 1.245 . S
C83 O85 1.289 . S
O84 C83 1.245 . S
O85 Mg78 2.141 . S
O85 C83 1.289 . S
O86 Mg78 2.048 . S
O86 C79 1.195 . S
O87 Mg78 2.048 . S
O87 C88 1.195 . S
C88 O87 1.195 . S
C88 O89 1.313 . S
O89 C88 1.313 . S
O90 Mg78 2.141 . S
O90 C81 1.289 . S
Mg91 O98 2.141 . S
Mg91 O99 2.048 . S
Mg91 O100 2.048 . S
Mg91 O103 2.141 . S
C92 O93 1.313 . S
C92 O99 1.195 . S
O93 C92 1.313 . S
C94 O95 1.245 . S
C94 O103 1.289 . S
O95 C94 1.245 . S
C96 O97 1.245 . S
C96 O98 1.289 . S
O97 C96 1.245 . S
O98 Mg91 2.141 . S
O98 C96 1.289 . S
O99 Mg91 2.048 . S
O99 C92 1.195 . S
O100 Mg91 2.048 . S
O100 C101 1.195 . S
C101 O100 1.195 . S
C101 O102 1.313 . S
O102 C101 1.313 . S
O103 Mg91 2.141 . S
O103 C94 1.289 . S
Mg104 O111 2.141 . S
Mg104 O112 2.048 . S
Mg104 O113 2.048 . S
Mg104 O116 2.141 . S
C105 O106 1.313 . S
C105 O112 1.195 . S
O106 C105 1.313 . S
C107 O108 1.245 . S
C107 O116 1.289 . S
O108 C107 1.245 . S
C109 O110 1.243 1_565 S
C109 O111 1.289 . S
O110 C109 1.243 1_545 S
O111 Mg104 2.141 . S
O111 C109 1.289 . S
O112 Mg104 2.048 . S
O112 C105 1.195 . S
O113 Mg104 2.048 . S
O113 C114 1.195 . S
C114 O113 1.195 . S
C114 O115 1.313 . S
O115 C114 1.313 . S
O116 Mg104 2.141 . S
O116 C107 1.289 . S
Mg117 O124 2.141 . S
Mg117 O125 2.048 . S
Mg117 O126 2.048 . S
Mg117 O129 2.141 . S
C118 O119 1.313 . S
C118 O125 1.195 . S
O119 C118 1.313 . S
C120 O121 1.245 . S
C120 O129 1.289 . S
O121 C120 1.245 . S
C122 O123 1.245 . S
C122 O124 1.289 . S
O123 C122 1.245 . S
O124 Mg117 2.141 . S
O124 C122 1.289 . S
O125 Mg117 2.048 . S
O125 C118 1.195 . S
O126 Mg117 2.048 . S
O126 C127 1.195 . S
C127 O126 1.195 . S
C127 O128 1.313 . S
O128 C127 1.313 . S
O129 Mg117 2.141 . S
O129 C120 1.289 . S
Mg130 O137 2.141 . S
Mg130 O138 2.048 . S
Mg130 O139 2.048 . S
Mg130 O142 2.141 . S
C131 O132 1.313 . S
C131 O138 1.195 . S
O132 C131 1.313 . S
C133 O134 1.245 . S
C133 O142 1.289 . S
O134 C133 1.245 . S
C135 O136 1.245 . S
C135 O137 1.289 . S
O136 C135 1.245 . S
O137 Mg130 2.141 . S
O137 C135 1.289 . S
O138 Mg130 2.048 . S
O138 C131 1.195 . S
O139 Mg130 2.048 . S
O139 C140 1.195 . S
C140 O139 1.195 . S
C140 O141 1.313 . S
O141 C140 1.313 . S
O142 Mg130 2.141 . S
O142 C133 1.289 . S
Mg143 O150 2.141 . S
Mg143 O151 2.048 . S
Mg143 O152 2.048 . S
Mg143 O155 2.141 . S
C144 O145 1.313 . S
C144 O151 1.195 . S
O145 C144 1.313 . S
C146 O147 1.245 . S
C146 O155 1.289 . S
O147 C146 1.245 . S
C148 O149 1.245 . S
C148 O150 1.289 . S
O149 C148 1.245 . S
O150 Mg143 2.141 . S
O150 C148 1.289 . S
O151 Mg143 2.048 . S
O151 C144 1.195 . S
O152 Mg143 2.048 . S
O152 C153 1.195 . S
C153 O152 1.195 . S
C153 O154 1.313 . S
O154 C153 1.313 . S
O155 Mg143 2.141 . S
O155 C146 1.289 . S
Mg156 O163 2.141 . S
Mg156 O164 2.048 . S
Mg156 O165 2.048 . S
Mg156 O168 2.141 . S
C157 O158 1.313 . S
C157 O164 1.195 . S
O158 C157 1.313 . S
C159 O160 1.245 . S
C159 O168 1.289 . S
O160 C159 1.245 . S
C161 O162 1.245 . S
C161 O163 1.289 . S
O162 C161 1.245 . S
O163 Mg156 2.141 . S
O163 C161 1.289 . S
O164 Mg156 2.048 . S
O164 C157 1.195 . S
O165 Mg156 2.048 . S
O165 C166 1.195 . S
C166 O165 1.195 . S
C166 O167 1.313 . S
O167 C166 1.313 . S
O168 Mg156 2.141 . S
O168 C159 1.289 . S
Mg169 O176 2.141 . S
Mg169 O177 2.048 . S
Mg169 O178 2.048 . S
Mg169 O181 2.141 . S
C170 O171 1.313 . S
C170 O177 1.195 . S
O171 C170 1.313 . S
C172 O173 1.245 . S
C172 O181 1.289 . S
O173 C172 1.245 . S
C174 O175 1.245 . S
C174 O176 1.289 . S
O175 C174 1.245 . S
O176 Mg169 2.141 . S
O176 C174 1.289 . S
O177 Mg169 2.048 . S
O177 C170 1.195 . S
O178 Mg169 2.048 . S
O178 C179 1.195 . S
C179 O178 1.195 . S
C179 O180 1.313 . S
O180 C179 1.313 . S
O181 Mg169 2.141 . S
O181 C172 1.289 . S
Mg182 O189 2.141 . S
Mg182 O190 2.048 . S
Mg182 O191 2.048 . S
Mg182 O194 2.141 . S
C183 O184 1.313 . S
C183 O190 1.195 . S
O184 C183 1.313 . S
C185 O186 1.245 . S
C185 O194 1.289 . S
O186 C185 1.245 . S
C187 O188 1.243 1_565 S
C187 O189 1.289 . S
O188 C187 1.243 1_545 S
O189 Mg182 2.141 . S
O189 C187 1.289 . S
O190 Mg182 2.048 . S
O190 C183 1.195 . S
O191 Mg182 2.048 . S
O191 C192 1.195 . S
C192 O191 1.195 . S
C192 O193 1.313 . S
O193 C192 1.313 . S
O194 Mg182 2.141 . S
O194 C185 1.289 . S
Mg195 O202 2.141 . S
Mg195 O203 2.048 . S
Mg195 O204 2.048 . S
Mg195 O207 2.141 . S
C196 O197 1.313 . S
C196 O203 1.195 . S
O197 C196 1.313 . S
C198 O199 1.245 . S
C198 O207 1.289 . S
O199 C198 1.245 . S
C200 O201 1.245 . S
C200 O202 1.289 . S
O201 C200 1.245 . S
O202 Mg195 2.141 . S
O202 C200 1.289 . S
O203 Mg195 2.048 . S
O203 C196 1.195 . S
O204 Mg195 2.048 . S
O204 C205 1.195 . S
C205 O204 1.195 . S
C205 O206 1.313 . S
O206 C205 1.313 . S
O207 Mg195 2.141 . S
O207 C198 1.289 . S
H208 C214 0.930 . S
H209 C217 0.930 . S
H210 C218 0.930 . S
H211 C219 0.930 . S
H212 C222 0.930 . S
H213 C223 0.930 . S
C214 H208 0.930 . S
C214 C215 1.355 . S
C214 C216 1.415 . S
C215 C214 1.355 . S
C215 C217 1.419 . S
C216 C214 1.415 . S
C216 C221 1.425 1_556 S
C216 C223 1.409 1_556 S
C217 H209 0.930 . S
C217 C215 1.419 . S
C217 C218 1.362 . S
C218 H210 0.930 . S
C218 C217 1.362 . S
C218 C221 1.409 1_556 S
C219 H211 0.930 . S
C219 C220 1.355 . S
C219 C221 1.415 . S
C220 C219 1.355 . S
C220 C222 1.419 . S
C221 C216 1.425 1_554 S
C221 C218 1.409 1_554 S
C221 C219 1.415 . S
C222 H212 0.930 . S
C222 C220 1.419 . S
C222 C223 1.362 . S
C223 H213 0.930 . S
C223 C216 1.409 1_554 S
C223 C222 1.362 . S
H224 C230 0.930 . S
H225 C233 0.930 . S
H226 C234 0.930 . S
H227 C235 0.930 . S
H228 C238 0.930 . S
H229 C239 0.930 . S
C230 H224 0.930 . S
C230 C231 1.355 . S
C230 C232 1.415 . S
C231 C230 1.355 . S
C231 C233 1.419 . S
C232 C230 1.415 . S
C232 C237 1.425 . S
C232 C239 1.409 . S
C233 H225 0.930 . S
C233 C231 1.419 . S
C233 C234 1.362 . S
C234 H226 0.930 . S
C234 C233 1.362 . S
C234 C237 1.409 . S
C235 H227 0.930 . S
C235 C236 1.355 . S
C235 C237 1.415 . S
C236 C235 1.355 . S
C236 C238 1.419 . S
C237 C232 1.425 . S
C237 C234 1.409 . S
C237 C235 1.415 . S
C238 H228 0.930 . S
C238 C236 1.419 . S
C238 C239 1.362 . S
C239 H229 0.930 . S
C239 C232 1.409 . S
C239 C238 1.362 . S
H240 C246 0.930 . S
H241 C249 0.930 . S
H242 C250 0.930 . S
H243 C251 0.930 . S
H244 C254 0.930 . S
H245 C255 0.930 . S
C246 H240 0.930 . S
C246 C247 1.355 . S
C246 C248 1.415 1_556 S
C247 C246 1.355 . S
C247 C249 1.419 . S
C248 C246 1.415 1_554 S
C248 C253 1.425 1_554 S
C248 C255 1.409 . S
C249 H241 0.930 . S
C249 C247 1.419 . S
C249 C250 1.362 . S
C250 H242 0.930 . S
C250 C249 1.362 . S
C250 C253 1.409 . S
C251 H243 0.930 . S
C251 C252 1.355 . S
C251 C253 1.415 1_554 S
C252 C251 1.355 . S
C252 C254 1.419 . S
C253 C248 1.425 1_556 S
C253 C250 1.409 . S
C253 C251 1.415 1_556 S
C254 H244 0.930 . S
C254 C252 1.419 . S
C254 C255 1.362 . S
C255 H245 0.930 . S
C255 C248 1.409 . S
C255 C254 1.362 . S
H256 C262 0.930 . S
H257 C265 0.930 . S
H258 C266 0.930 . S
H259 C267 0.930 . S
H260 C270 0.930 . S
H261 C271 0.930 . S
C262 H256 0.930 . S
C262 C263 1.355 . S
C262 C264 1.415 . S
C263 C262 1.355 . S
C263 C265 1.419 . S
C264 C262 1.415 . S
C264 C269 1.425 . S
C264 C271 1.409 . S
C265 H257 0.930 . S
C265 C263 1.419 . S
C265 C266 1.362 . S
C266 H258 0.930 . S
C266 C265 1.362 . S
C266 C269 1.409 . S
C267 H259 0.930 . S
C267 C268 1.355 . S
C267 C269 1.415 . S
C268 C267 1.355 . S
C268 C270 1.419 . S
C269 C264 1.425 . S
C269 C266 1.409 . S
C269 C267 1.415 . S
C270 H260 0.930 . S
C270 C268 1.419 . S
C270 C271 1.362 . S
C271 H261 0.930 . S
C271 C264 1.409 . S
C271 C270 1.362 . S
H272 C278 0.930 . S
H273 C281 0.930 . S
H274 C282 0.930 . S
H275 C283 0.930 . S
H276 C286 0.930 . S
H277 C287 0.930 . S
C278 H272 0.930 . S
C278 C279 1.355 . S
C278 C280 1.415 . S
C279 C278 1.355 . S
C279 C281 1.419 . S
C280 C278 1.415 . S
C280 C285 1.425 1_554 S
C280 C287 1.409 1_554 S
C281 H273 0.930 . S
C281 C279 1.419 . S
C281 C282 1.362 . S
C282 H274 0.930 . S
C282 C281 1.362 . S
C282 C285 1.409 1_554 S
C283 H275 0.930 . S
C283 C284 1.355 . S
C283 C285 1.415 . S
C284 C283 1.355 . S
C284 C286 1.419 . S
C285 C280 1.425 1_556 S
C285 C282 1.409 1_556 S
C285 C283 1.415 . S
C286 H276 0.930 . S
C286 C284 1.419 . S
C286 C287 1.362 . S
C287 H277 0.930 . S
C287 C280 1.409 1_556 S
C287 C286 1.362 . S
H288 C294 0.930 . S
H289 C297 0.930 . S
H290 C298 0.930 . S
H291 C299 0.930 . S
H292 C302 0.930 . S
H293 C303 0.930 . S
C294 H288 0.930 . S
C294 C295 1.355 . S
C294 C296 1.415 . S
C295 C294 1.355 . S
C295 C297 1.419 . S
C296 C294 1.415 . S
C296 C301 1.425 . S
C296 C303 1.409 . S
C297 H289 0.930 . S
C297 C295 1.419 . S
C297 C298 1.362 . S
C298 H290 0.930 . S
C298 C297 1.362 . S
C298 C301 1.409 . S
C299 H291 0.930 . S
C299 C300 1.355 . S
C299 C301 1.415 . S
C300 C299 1.355 . S
C300 C302 1.419 . S
C301 C296 1.425 . S
C301 C298 1.409 . S
C301 C299 1.415 . S
C302 H292 0.930 . S
C302 C300 1.419 . S
C302 C303 1.362 . S
C303 H293 0.930 . S
C303 C296 1.409 . S
C303 C302 1.362 . S
H304 C310 0.930 . S
H305 C313 0.930 . S
H306 C314 0.930 . S
H307 C315 0.930 . S
H308 C318 0.930 . S
H309 C319 0.930 . S
C310 H304 0.930 . S
C310 C311 1.355 . S
C310 C312 1.415 . S
C311 C310 1.355 . S
C311 C313 1.419 . S
C312 C310 1.415 . S
C312 C317 1.425 1_556 S
C312 C319 1.409 1_556 S
C313 H305 0.930 . S
C313 C311 1.419 . S
C313 C314 1.362 . S
C314 H306 0.930 . S
C314 C313 1.362 . S
C314 C317 1.409 1_556 S
C315 H307 0.930 . S
C315 C316 1.355 . S
C315 C317 1.415 . S
C316 C315 1.355 . S
C316 C318 1.419 . S
C317 C312 1.425 1_554 S
C317 C314 1.409 1_554 S
C317 C315 1.415 . S
C318 H308 0.930 . S
C318 C316 1.419 . S
C318 C319 1.362 . S
C319 H309 0.930 . S
C319 C312 1.409 1_554 S
C319 C318 1.362 . S
H320 C326 0.930 . S
H321 C329 0.930 . S
H322 C330 0.930 . S
H323 C331 0.930 . S
H324 C334 0.930 . S
H325 C335 0.930 . S
C326 H320 0.930 . S
C326 C327 1.355 . S
C326 C328 1.415 . S
C327 C326 1.355 . S
C327 C329 1.419 . S
C328 C326 1.415 . S
C328 C333 1.425 . S
C328 C335 1.409 . S
C329 H321 0.930 . S
C329 C327 1.419 . S
C329 C330 1.362 . S
C330 H322 0.930 . S
C330 C329 1.362 . S
C330 C333 1.409 . S
C331 H323 0.930 . S
C331 C332 1.355 . S
C331 C333 1.415 . S
C332 C331 1.355 . S
C332 C334 1.419 . S
C333 C328 1.425 . S
C333 C330 1.409 . S
C333 C331 1.415 . S
C334 H324 0.930 . S
C334 C332 1.419 . S
C334 C335 1.362 . S
C335 H325 0.930 . S
C335 C328 1.409 . S
C335 C334 1.362 . S
H336 C342 0.930 . S
H337 C345 0.930 . S
H338 C346 0.930 . S
H339 C347 0.930 . S
H340 C350 0.930 . S
H341 C351 0.930 . S
C342 H336 0.930 . S
C342 C343 1.355 . S
C342 C344 1.415 . S
C343 C342 1.355 . S
C343 C345 1.419 . S
C344 C342 1.415 . S
C344 C349 1.425 . S
C344 C351 1.409 . S
C345 H337 0.930 . S
C345 C343 1.419 . S
C345 C346 1.362 . S
C346 H338 0.930 . S
C346 C345 1.362 . S
C346 C349 1.409 . S
C347 H339 0.930 . S
C347 C348 1.355 . S
C347 C349 1.415 . S
C348 C347 1.355 . S
C348 C350 1.419 . S
C349 C344 1.425 . S
C349 C346 1.409 . S
C349 C347 1.415 . S
C350 H340 0.930 . S
C350 C348 1.419 . S
C350 C351 1.362 . S
C351 H341 0.930 . S
C351 C344 1.409 . S
C351 C350 1.362 . S
H352 C358 0.930 . S
H353 C361 0.930 . S
H354 C362 0.930 . S
H355 C363 0.930 . S
H356 C366 0.930 . S
H357 C367 0.930 . S
C358 H352 0.930 . S
C358 C359 1.355 . S
C358 C360 1.415 . S
C359 C358 1.355 . S
C359 C361 1.419 . S
C360 C358 1.415 . S
C360 C365 1.425 . S
C360 C367 1.409 . S
C361 H353 0.930 . S
C361 C359 1.419 . S
C361 C362 1.362 . S
C362 H354 0.930 . S
C362 C361 1.362 . S
C362 C365 1.409 . S
C363 H355 0.930 . S
C363 C364 1.355 . S
C363 C365 1.415 . S
C364 C363 1.355 . S
C364 C366 1.419 . S
C365 C360 1.425 . S
C365 C362 1.409 . S
C365 C363 1.415 . S
C366 H356 0.930 . S
C366 C364 1.419 . S
C366 C367 1.362 . S
C367 H357 0.930 . S
C367 C360 1.409 . S
C367 C366 1.362 . S
H368 C374 0.930 . S
H369 C377 0.930 . S
H370 C378 0.930 . S
H371 C379 0.930 . S
H372 C382 0.930 . S
H373 C383 0.930 . S
C374 H368 0.930 . S
C374 C375 1.355 . S
C374 C376 1.415 . S
C375 C374 1.355 . S
C375 C377 1.419 . S
C376 C374 1.415 . S
C376 C381 1.425 . S
C376 C383 1.409 . S
C377 H369 0.930 . S
C377 C375 1.419 . S
C377 C378 1.362 . S
C378 H370 0.930 . S
C378 C377 1.362 . S
C378 C381 1.409 . S
C379 H371 0.930 . S
C379 C380 1.355 . S
C379 C381 1.415 . S
C380 C379 1.355 . S
C380 C382 1.419 . S
C381 C376 1.425 . S
C381 C378 1.409 . S
C381 C379 1.415 . S
C382 H372 0.930 . S
C382 C380 1.419 . S
C382 C383 1.362 . S
C383 H373 0.930 . S
C383 C376 1.409 . S
C383 C382 1.362 . S
H384 C390 0.930 . S
H385 C393 0.930 . S
H386 C394 0.930 . S
H387 C395 0.930 . S
H388 C398 0.930 . S
H389 C399 0.930 . S
C390 H384 0.930 . S
C390 C391 1.355 . S
C390 C392 1.415 . S
C391 C390 1.355 . S
C391 C393 1.419 . S
C392 C390 1.415 . S
C392 C397 1.425 . S
C392 C399 1.409 . S
C393 H385 0.930 . S
C393 C391 1.419 . S
C393 C394 1.362 . S
C394 H386 0.930 . S
C394 C393 1.362 . S
C394 C397 1.409 . S
C395 H387 0.930 . S
C395 C396 1.355 . S
C395 C397 1.415 . S
C396 C395 1.355 . S
C396 C398 1.419 . S
C397 C392 1.425 . S
C397 C394 1.409 . S
C397 C395 1.415 . S
C398 H388 0.930 . S
C398 C396 1.419 . S
C398 C399 1.362 . S
C399 H389 0.930 . S
C399 C392 1.409 . S
C399 C398 1.362 . S
H400 C406 0.930 . S
H401 C409 0.930 . S
H402 C410 0.930 . S
H403 C411 0.930 . S
H404 C414 0.930 . S
H405 C415 0.930 . S
C406 H400 0.930 . S
C406 C407 1.355 . S
C406 C408 1.415 . S
C407 C406 1.355 . S
C407 C409 1.419 . S
C408 C406 1.415 . S
C408 C413 1.425 . S
C408 C415 1.409 . S
C409 H401 0.930 . S
C409 C407 1.419 . S
C409 C410 1.362 . S
C410 H402 0.930 . S
C410 C409 1.362 . S
C410 C413 1.409 . S
C411 H403 0.930 . S
C411 C412 1.355 . S
C411 C413 1.415 . S
C412 C411 1.355 . S
C412 C414 1.419 . S
C413 C408 1.425 . S
C413 C410 1.409 . S
C413 C411 1.415 . S
C414 H404 0.930 . S
C414 C412 1.419 . S
C414 C415 1.362 . S
C415 H405 0.930 . S
C415 C408 1.409 . S
C415 C414 1.362 . S
H416 C422 0.930 . S
H417 C425 0.930 . S
H418 C426 0.930 . S
H419 C427 0.930 . S
H420 C430 0.930 . S
H421 C431 0.930 . S
C422 H416 0.930 . S
C422 C423 1.355 . S
C422 C424 1.415 . S
C423 C422 1.355 . S
C423 C425 1.419 . S
C424 C422 1.415 . S
C424 C429 1.425 . S
C424 C431 1.409 . S
C425 H417 0.930 . S
C425 C423 1.419 . S
C425 C426 1.362 . S
C426 H418 0.930 . S
C426 C425 1.362 . S
C426 C429 1.409 . S
C427 H419 0.930 . S
C427 C428 1.355 . S
C427 C429 1.415 . S
C428 C427 1.355 . S
C428 C430 1.419 . S
C429 C424 1.425 . S
C429 C426 1.409 . S
C429 C427 1.415 . S
C430 H420 0.930 . S
C430 C428 1.419 . S
C430 C431 1.362 . S
C431 H421 0.930 . S
C431 C424 1.409 . S
C431 C430 1.362 . S
H432 C438 0.930 . S
H433 C441 0.930 . S
H434 C442 0.930 . S
H435 C443 0.930 . S
H436 C446 0.930 . S
H437 C447 0.930 . S
C438 H432 0.930 . S
C438 C439 1.355 . S
C438 C440 1.415 . S
C439 C438 1.355 . S
C439 C441 1.419 . S
C440 C438 1.415 . S
C440 C445 1.425 . S
C440 C447 1.409 . S
C441 H433 0.930 . S
C441 C439 1.419 . S
C441 C442 1.362 . S
C442 H434 0.930 . S
C442 C441 1.362 . S
C442 C445 1.409 . S
C443 H435 0.930 . S
C443 C444 1.355 . S
C443 C445 1.415 . S
C444 C443 1.355 . S
C444 C446 1.419 . S
C445 C440 1.425 . S
C445 C442 1.409 . S
C445 C443 1.415 . S
C446 H436 0.930 . S
C446 C444 1.419 . S
C446 C447 1.362 . S
C447 H437 0.930 . S
C447 C440 1.409 . S
C447 C446 1.362 . S
H448 C454 0.930 . S
H449 C457 0.930 . S
H450 C458 0.930 . S
H451 C459 0.930 . S
H452 C462 0.930 . S
H453 C463 0.930 . S
C454 H448 0.930 . S
C454 C455 1.355 . S
C454 C456 1.415 . S
C455 C454 1.355 . S
C455 C457 1.419 . S
C456 C454 1.415 . S
C456 C461 1.425 . S
C456 C463 1.409 . S
C457 H449 0.930 . S
C457 C455 1.419 . S
C457 C458 1.362 . S
C458 H450 0.930 . S
C458 C457 1.362 . S
C458 C461 1.409 . S
C459 H451 0.930 . S
C459 C460 1.355 . S
C459 C461 1.415 . S
C460 C459 1.355 . S
C460 C462 1.419 . S
C461 C456 1.425 . S
C461 C458 1.409 . S
C461 C459 1.415 . S
C462 H452 0.930 . S
C462 C460 1.419 . S
C462 C463 1.362 . S
C463 H453 0.930 . S
C463 C456 1.409 . S
C463 C462 1.362 . S
H464 C470 0.930 . S
H465 C473 0.930 . S
H466 C474 0.930 . S
H467 C475 0.930 . S
H468 C478 0.930 . S
H469 C479 0.930 . S
C470 H464 0.930 . S
C470 C471 1.355 . S
C470 C472 1.415 . S
C471 C470 1.355 . S
C471 C473 1.419 . S
C472 C470 1.415 . S
C472 C477 1.425 . S
C472 C479 1.409 . S
C473 H465 0.930 . S
C473 C471 1.419 . S
C473 C474 1.362 . S
C474 H466 0.930 . S
C474 C473 1.362 . S
C474 C477 1.409 . S
C475 H467 0.930 . S
C475 C476 1.355 . S
C475 C477 1.415 . S
C476 C475 1.355 . S
C476 C478 1.419 . S
C477 C472 1.425 . S
C477 C474 1.409 . S
C477 C475 1.415 . S
C478 H468 0.930 . S
C478 C476 1.419 . S
C478 C479 1.362 . S
C479 H469 0.930 . S
C479 C472 1.409 . S
C479 C478 1.362 . S
H480 C486 0.930 . S
H481 C489 0.930 . S
H482 C490 0.930 . S
H483 C491 0.930 . S
H484 C494 0.930 . S
H485 C495 0.930 . S
C486 H480 0.930 . S
C486 C487 1.355 . S
C486 C488 1.415 . S
C487 C486 1.355 . S
C487 C489 1.419 . S
C488 C486 1.415 . S
C488 C493 1.425 . S
C488 C495 1.409 . S
C489 H481 0.930 . S
C489 C487 1.419 . S
C489 C490 1.362 . S
C490 H482 0.930 . S
C490 C489 1.362 . S
C490 C493 1.409 . S
C491 H483 0.930 . S
C491 C492 1.355 . S
C491 C493 1.415 . S
C492 C491 1.355 . S
C492 C494 1.419 . S
C493 C488 1.425 . S
C493 C490 1.409 . S
C493 C491 1.415 . S
C494 H484 0.930 . S
C494 C492 1.419 . S
C494 C495 1.362 . S
C495 H485 0.930 . S
C495 C488 1.409 . S
C495 C494 1.362 . S
H496 C502 0.930 . S
H497 C505 0.930 . S
H498 C506 0.930 . S
H499 C507 0.930 . S
H500 C510 0.930 . S
H501 C511 0.930 . S
C502 H496 0.930 . S
C502 C503 1.355 . S
C502 C504 1.415 . S
C503 C502 1.355 . S
C503 C505 1.419 . S
C504 C502 1.415 . S
C504 C509 1.425 . S
C504 C511 1.409 . S
C505 H497 0.930 . S
C505 C503 1.419 . S
C505 C506 1.362 . S
C506 H498 0.930 . S
C506 C505 1.362 . S
C506 C509 1.409 . S
C507 H499 0.930 . S
C507 C508 1.355 . S
C507 C509 1.415 . S
C508 C507 1.355 . S
C508 C510 1.419 . S
C509 C504 1.425 . S
C509 C506 1.409 . S
C509 C507 1.415 . S
C510 H500 0.930 . S
C510 C508 1.419 . S
C510 C511 1.362 . S
C511 H501 0.930 . S
C511 C504 1.409 . S
C511 C510 1.362 . S
H512 C518 0.930 . S
H513 C521 0.930 . S
H514 C522 0.930 . S
H515 C523 0.930 . S
H516 C526 0.930 . S
H517 C527 0.930 . S
C518 H512 0.930 . S
C518 C519 1.355 . S
C518 C520 1.415 . S
C519 C518 1.355 . S
C519 C521 1.419 . S
C520 C518 1.415 . S
C520 C525 1.425 . S
C520 C527 1.409 . S
C521 H513 0.930 . S
C521 C519 1.419 . S
C521 C522 1.362 . S
C522 H514 0.930 . S
C522 C521 1.362 . S
C522 C525 1.409 . S
C523 H515 0.930 . S
C523 C524 1.355 . S
C523 C525 1.415 . S
C524 C523 1.355 . S
C524 C526 1.419 . S
C525 C520 1.425 . S
C525 C522 1.409 . S
C525 C523 1.415 . S
C526 H516 0.930 . S
C526 C524 1.419 . S
C526 C527 1.362 . S
C527 H517 0.930 . S
C527 C520 1.409 . S
C527 C526 1.362 . S
H528 C534 0.930 . S
H529 C537 0.930 . S
H530 C538 0.930 . S
H531 C539 0.930 . S
H532 C542 0.930 . S
H533 C543 0.930 . S
C534 H528 0.930 . S
C534 C535 1.355 . S
C534 C536 1.415 . S
C535 C534 1.355 . S
C535 C537 1.419 . S
C536 C534 1.415 . S
C536 C541 1.425 . S
C536 C543 1.409 . S
C537 H529 0.930 . S
C537 C535 1.419 . S
C537 C538 1.362 . S
C538 H530 0.930 . S
C538 C537 1.362 . S
C538 C541 1.409 . S
C539 H531 0.930 . S
C539 C540 1.355 . S
C539 C541 1.415 . S
C540 C539 1.355 . S
C540 C542 1.419 . S
C541 C536 1.425 . S
C541 C538 1.409 . S
C541 C539 1.415 . S
C542 H532 0.930 . S
C542 C540 1.419 . S
C542 C543 1.362 . S
C543 H533 0.930 . S
C543 C536 1.409 . S
C543 C542 1.362 . S
H544 C550 0.930 . S
H545 C553 0.930 . S
H546 C554 0.930 . S
H547 C555 0.930 . S
H548 C558 0.930 . S
H549 C559 0.930 . S
C550 H544 0.930 . S
C550 C551 1.355 . S
C550 C552 1.415 . S
C551 C550 1.355 . S
C551 C553 1.419 . S
C552 C550 1.415 . S
C552 C557 1.425 . S
C552 C559 1.409 . S
C553 H545 0.930 . S
C553 C551 1.419 . S
C553 C554 1.362 . S
C554 H546 0.930 . S
C554 C553 1.362 . S
C554 C557 1.409 . S
C555 H547 0.930 . S
C555 C556 1.355 . S
C555 C557 1.415 . S
C556 C555 1.355 . S
C556 C558 1.419 . S
C557 C552 1.425 . S
C557 C554 1.409 . S
C557 C555 1.415 . S
C558 H548 0.930 . S
C558 C556 1.419 . S
C558 C559 1.362 . S
C559 H549 0.930 . S
C559 C552 1.409 . S
C559 C558 1.362 . S
H560 C566 0.930 . S
H561 C569 0.930 . S
H562 C570 0.930 . S
H563 C571 0.930 . S
H564 C574 0.930 . S
H565 C575 0.930 . S
C566 H560 0.930 . S
C566 C567 1.355 . S
C566 C568 1.415 . S
C567 C566 1.355 . S
C567 C569 1.419 . S
C568 C566 1.415 . S
C568 C573 1.425 . S
C568 C575 1.409 . S
C569 H561 0.930 . S
C569 C567 1.419 . S
C569 C570 1.362 . S
C570 H562 0.930 . S
C570 C569 1.362 . S
C570 C573 1.409 . S
C571 H563 0.930 . S
C571 C572 1.355 . S
C571 C573 1.415 . S
C572 C571 1.355 . S
C572 C574 1.419 . S
C573 C568 1.425 . S
C573 C570 1.409 . S
C573 C571 1.415 . S
C574 H564 0.930 . S
C574 C572 1.419 . S
C574 C575 1.362 . S
C575 H565 0.930 . S
C575 C568 1.409 . S
C575 C574 1.362 . S
H576 C582 0.930 . S
H577 C585 0.930 . S
H578 C586 0.930 1_455 S
H579 C587 0.930 . S
H580 C590 0.930 . S
H581 C591 0.930 . S
C582 H576 0.930 . S
C582 C583 1.355 . S
C582 C584 1.415 . S
C583 C582 1.355 . S
C583 C585 1.419 . S
C584 C582 1.415 . S
C584 C589 1.425 . S
C584 C591 1.409 . S
C585 H577 0.930 . S
C585 C583 1.419 . S
C585 C586 1.362 . S
C586 H578 0.930 1_655 S
C586 C585 1.362 . S
C586 C589 1.409 . S
C587 H579 0.930 . S
C587 C588 1.355 . S
C587 C589 1.415 . S
C588 C587 1.355 . S
C588 C590 1.419 . S
C589 C584 1.425 . S
C589 C586 1.409 . S
C589 C587 1.415 . S
C590 H580 0.930 . S
C590 C588 1.419 . S
C590 C591 1.362 . S
C591 H581 0.930 . S
C591 C584 1.409 . S
C591 C590 1.362 . S
H592 C598 0.930 . S
H593 C601 0.930 . S
H594 C602 0.930 . S
H595 C603 0.930 . S
H596 C606 0.930 . S
H597 C607 0.930 . S
C598 H592 0.930 . S
C598 C599 1.355 . S
C598 C600 1.415 . S
C599 C598 1.355 . S
C599 C601 1.419 . S
C600 C598 1.415 . S
C600 C605 1.425 . S
C600 C607 1.409 . S
C601 H593 0.930 . S
C601 C599 1.419 . S
C601 C602 1.362 . S
C602 H594 0.930 . S
C602 C601 1.362 . S
C602 C605 1.409 . S
C603 H595 0.930 . S
C603 C604 1.355 . S
C603 C605 1.415 . S
C604 C603 1.355 . S
C604 C606 1.419 . S
C605 C600 1.425 . S
C605 C602 1.409 . S
C605 C603 1.415 . S
C606 H596 0.930 . S
C606 C604 1.419 . S
C606 C607 1.362 . S
C607 H597 0.930 . S
C607 C600 1.409 . S
C607 C606 1.362 . S
H608 C614 0.930 . S
H609 C617 0.930 . S
H610 C618 0.930 . S
H611 C619 0.930 . S
H612 C622 0.930 . S
H613 C623 0.930 . S
C614 H608 0.930 . S
C614 C615 1.355 . S
C614 C616 1.415 . S
C615 C614 1.355 . S
C615 C617 1.419 . S
C616 C614 1.415 . S
C616 C621 1.425 . S
C616 C623 1.409 . S
C617 H609 0.930 . S
C617 C615 1.419 . S
C617 C618 1.362 . S
C618 H610 0.930 . S
C618 C617 1.362 . S
C618 C621 1.409 . S
C619 H611 0.930 . S
C619 C620 1.355 . S
C619 C621 1.415 . S
C620 C619 1.355 . S
C620 C622 1.419 . S
C621 C616 1.425 . S
C621 C618 1.409 . S
C621 C619 1.415 . S
C622 H612 0.930 . S
C622 C620 1.419 . S
C622 C623 1.362 . S
C623 H613 0.930 . S
C623 C616 1.409 . S
C623 C622 1.362 . S
H624 C630 0.930 . S
H625 C633 0.930 . S
H626 C634 0.930 . S
H627 C635 0.930 . S
H628 C638 0.930 1_655 S
H629 C639 0.930 . S
C630 H624 0.930 . S
C630 C631 1.355 . S
C630 C632 1.415 . S
C631 C630 1.355 . S
C631 C633 1.419 . S
C632 C630 1.415 . S
C632 C637 1.425 . S
C632 C639 1.409 . S
C633 H625 0.930 . S
C633 C631 1.419 . S
C633 C634 1.362 . S
C634 H626 0.930 . S
C634 C633 1.362 . S
C634 C637 1.409 . S
C635 H627 0.930 . S
C635 C636 1.355 . S
C635 C637 1.415 . S
C636 C635 1.355 . S
C636 C638 1.419 . S
C637 C632 1.425 . S
C637 C634 1.409 . S
C637 C635 1.415 . S
C638 H628 0.930 1_455 S
C638 C636 1.419 . S
C638 C639 1.362 . S
C639 H629 0.930 . S
C639 C632 1.409 . S
C639 C638 1.362 . S
H640 C646 0.930 . S
H641 C649 0.942 . S
H642 C650 0.930 . S
H643 C651 0.930 . S
H644 C654 0.930 . S
H645 C655 0.930 . S
C646 H640 0.930 . S
C646 C647 1.355 . S
C646 C648 1.415 . S
C647 C646 1.355 . S
C647 C649 1.419 . S
C648 C646 1.415 . S
C648 C653 1.425 . S
C648 C655 1.409 . S
C649 H641 0.942 . S
C649 C647 1.419 . S
C649 C650 1.362 . S
C650 H642 0.930 . S
C650 C649 1.362 . S
C650 C653 1.409 . S
C651 H643 0.930 . S
C651 C652 1.355 . S
C651 C653 1.415 . S
C652 C651 1.355 . S
C652 C654 1.419 . S
C653 C648 1.425 . S
C653 C650 1.409 . S
C653 C651 1.415 . S
C654 H644 0.930 . S
C654 C652 1.419 . S
C654 C655 1.362 . S
C655 H645 0.930 . S
C655 C648 1.409 . S
C655 C654 1.362 . S
H656 C662 0.930 . S
H657 C665 0.930 . S
H658 C666 0.930 . S
H659 C667 0.930 . S
H660 C670 0.930 . S
H661 C671 0.930 . S
C662 H656 0.930 . S
C662 C663 1.355 . S
C662 C664 1.415 . S
C663 C662 1.355 . S
C663 C665 1.419 . S
C664 C662 1.415 . S
C664 C669 1.425 . S
C664 C671 1.409 . S
C665 H657 0.930 . S
C665 C663 1.419 . S
C665 C666 1.362 . S
C666 H658 0.930 . S
C666 C665 1.362 . S
C666 C669 1.409 . S
C667 H659 0.930 . S
C667 C668 1.355 . S
C667 C669 1.415 . S
C668 C667 1.355 . S
C668 C670 1.419 . S
C669 C664 1.425 . S
C669 C666 1.409 . S
C669 C667 1.415 . S
C670 H660 0.930 . S
C670 C668 1.419 . S
C670 C671 1.362 . S
C671 H661 0.930 . S
C671 C664 1.409 . S
C671 C670 1.362 . S
H672 C678 0.930 . S
H673 C681 0.930 1_455 S
H674 C682 0.930 . S
H675 C683 0.930 . S
H676 C686 0.930 . S
H677 C687 0.930 . S
C678 H672 0.930 . S
C678 C679 1.355 . S
C678 C680 1.415 . S
C679 C678 1.355 . S
C679 C681 1.419 . S
C680 C678 1.415 . S
C680 C685 1.425 . S
C680 C687 1.409 . S
C681 H673 0.930 1_655 S
C681 C679 1.419 . S
C681 C682 1.362 . S
C682 H674 0.930 . S
C682 C681 1.362 . S
C682 C685 1.409 . S
C683 H675 0.930 . S
C683 C684 1.355 . S
C683 C685 1.415 . S
C684 C683 1.355 . S
C684 C686 1.419 . S
C685 C680 1.425 . S
C685 C682 1.409 . S
C685 C683 1.415 . S
C686 H676 0.930 . S
C686 C684 1.419 . S
C686 C687 1.362 . S
C687 H677 0.930 . S
C687 C680 1.409 . S
C687 C686 1.362 . S
H688 C694 0.930 . S
H689 C697 0.930 1_655 S
H690 C698 0.930 . S
H691 C699 0.930 . S
H692 C702 0.930 . S
H693 C703 0.930 . S
C694 H688 0.930 . S
C694 C695 1.355 . S
C694 C696 1.415 . S
C695 C694 1.355 . S
C695 C697 1.419 . S
C696 C694 1.415 . S
C696 C701 1.425 . S
C696 C703 1.409 . S
C697 H689 0.930 1_455 S
C697 C695 1.419 . S
C697 C698 1.362 . S
C698 H690 0.930 . S
C698 C697 1.362 . S
C698 C701 1.409 . S
C699 H691 0.930 . S
C699 C700 1.355 . S
C699 C701 1.415 . S
C700 C699 1.355 . S
C700 C702 1.419 . S
C701 C696 1.425 . S
C701 C698 1.409 . S
C701 C699 1.415 . S
C702 H692 0.930 . S
C702 C700 1.419 . S
C702 C703 1.362 . S
C703 H693 0.930 . S
C703 C696 1.409 . S
C703 C702 1.362 . S
H704 C710 0.930 . S
H705 C713 0.930 . S
H706 C714 0.930 . S
H707 C715 0.930 . S
H708 C718 0.930 . S
H709 C719 0.930 . S
C710 H704 0.930 . S
C710 C711 1.355 . S
C710 C712 1.415 . S
C711 C710 1.355 . S
C711 C713 1.419 . S
C712 C710 1.415 . S
C712 C717 1.425 . S
C712 C719 1.409 . S
C713 H705 0.930 . S
C713 C711 1.419 . S
C713 C714 1.362 . S
C714 H706 0.930 . S
C714 C713 1.362 . S
C714 C717 1.409 . S
C715 H707 0.930 . S
C715 C716 1.355 . S
C715 C717 1.415 . S
C716 C715 1.355 . S
C716 C718 1.419 . S
C717 C712 1.425 . S
C717 C714 1.409 . S
C717 C715 1.415 . S
C718 H708 0.930 . S
C718 C716 1.419 . S
C718 C719 1.362 . S
C719 H709 0.930 . S
C719 C712 1.409 . S
C719 C718 1.362 . S
C215 C92 1.545 . S
C220 C1 1.558 . S
C231 C53 1.540 . S
C236 C14 1.544 . S
C247 C66 1.555 . S
C252 C27 1.543 . S
C263 C40 1.562 . S
C268 C79 1.547 . S
C279 C205 1.567 . S
C284 C105 1.603 . S
C295 C157 1.589 . S
C300 C127 1.591 . S
C311 C131 1.601 . S
C316 C179 1.548 . S
C327 C153 1.570 . S
C332 C183 1.578 . S
C343 C36 1.559 . S
C348 C10 1.559 . S
C359 C23 1.544 . S
C364 C49 1.542 . S
C375 C62 1.480 . S
C380 C88 1.480 . S
C391 C101 1.555 . S
C396 C75 1.556 . S
C407 C114 1.599 . S
C412 C140 1.595 . S
C423 C118 1.480 . S
C428 C144 1.480 . S
C439 C192 1.577 . S
C444 C166 1.564 . S
C455 C170 1.538 . S
C460 C196 1.540 . S
C471 C81 1.544 . S
C476 C3 1.551 . S
C487 C16 1.576 . S
C492 C94 1.574 . S
C503 C29 1.541 . S
C508 C55 1.565 . S
C519 C42 1.541 . S
C524 C68 1.568 . S
C535 C107 1.580 . S
C540 C185 1.581 . S
C551 C122 1.561 . S
C556 C200 1.582 . S
C567 C133 1.579 . S
C572 C159 1.579 . S
C583 C148 1.581 . S
C588 C174 1.556 . S
C599 C5 1.642 1_565 S
C604 C198 1.589 . S
C615 C161 1.656 . S
C620 C18 1.593 . S
C631 C31 1.637 . S
C636 C172 1.595 1_455 S
C647 C187 1.654 1_545 S
C652 C44 1.614 1_655 S
C663 C120 1.613 . S
C668 C57 1.619 . S
C679 C70 1.590 1_655 S
C684 C135 1.656 . S
C695 C146 1.588 1_455 S
C700 C83 1.643 1_565 S
C711 C109 1.655 1_545 S
C716 C96 1.588 . S
