# Generated by pormake.
# Topology uki, (4)-cn, num edge types: 1
# Building blocks:
#     Node 0, Type 0, BuildingBlock: KOZSID_clean_sbu_0, # of connection points: 4
#     Node 1, Type 0, BuildingBlock: KOZSID_clean_sbu_0, # of connection points: 4
#     Node 2, Type 0, BuildingBlock: KOZSID_clean_sbu_0, # of connection points: 4
#     Node 3, Type 0, BuildingBlock: KOZSID_clean_sbu_0, # of connection points: 4
#     Node 4, Type 0, BuildingBlock: KOZSID_clean_sbu_0, # of connection points: 4
#     Node 5, Type 0, BuildingBlock: KOZSID_clean_sbu_0, # of connection points: 4
#     Node 6, Type 0, BuildingBlock: KOZSID_clean_sbu_0, # of connection points: 4
#     Node 7, Type 0, BuildingBlock: KOZSID_clean_sbu_0, # of connection points: 4
#     Node 8, Type 0, BuildingBlock: KOZSID_clean_sbu_0, # of connection points: 4
#     Node 9, Type 0, BuildingBlock: KOZSID_clean_sbu_0, # of connection points: 4
#     Node 10, Type 0, BuildingBlock: KOZSID_clean_sbu_0, # of connection points: 4
#     Node 11, Type 0, BuildingBlock: KOZSID_clean_sbu_0, # of connection points: 4
#     Node 12, Type 0, BuildingBlock: KOZSID_clean_sbu_0, # of connection points: 4
#     Node 13, Type 0, BuildingBlock: KOZSID_clean_sbu_0, # of connection points: 4
#     Node 14, Type 0, BuildingBlock: KOZSID_clean_sbu_0, # of connection points: 4
#     Node 15, Type 0, BuildingBlock: KOZSID_clean_sbu_0, # of connection points: 4
#     Edge 16, Type (0, 0), BuildingBlock: CIFDUS_clean_linker_0, # of connection points: 2
#     Edge 17, Type (0, 0), BuildingBlock: CIFDUS_clean_linker_0, # of connection points: 2
#     Edge 18, Type (0, 0), BuildingBlock: CIFDUS_clean_linker_0, # of connection points: 2
#     Edge 19, Type (0, 0), BuildingBlock: CIFDUS_clean_linker_0, # of connection points: 2
#     Edge 20, Type (0, 0), BuildingBlock: CIFDUS_clean_linker_0, # of connection points: 2
#     Edge 21, Type (0, 0), BuildingBlock: CIFDUS_clean_linker_0, # of connection points: 2
#     Edge 22, Type (0, 0), BuildingBlock: CIFDUS_clean_linker_0, # of connection points: 2
#     Edge 23, Type (0, 0), BuildingBlock: CIFDUS_clean_linker_0, # of connection points: 2
#     Edge 24, Type (0, 0), BuildingBlock: CIFDUS_clean_linker_0, # of connection points: 2
#     Edge 25, Type (0, 0), BuildingBlock: CIFDUS_clean_linker_0, # of connection points: 2
#     Edge 26, Type (0, 0), BuildingBlock: CIFDUS_clean_linker_0, # of connection points: 2
#     Edge 27, Type (0, 0), BuildingBlock: CIFDUS_clean_linker_0, # of connection points: 2
#     Edge 28, Type (0, 0), BuildingBlock: CIFDUS_clean_linker_0, # of connection points: 2
#     Edge 29, Type (0, 0), BuildingBlock: CIFDUS_clean_linker_0, # of connection points: 2
#     Edge 30, Type (0, 0), BuildingBlock: CIFDUS_clean_linker_0, # of connection points: 2
#     Edge 31, Type (0, 0), BuildingBlock: CIFDUS_clean_linker_0, # of connection points: 2
#     Edge 32, Type (0, 0), BuildingBlock: CIFDUS_clean_linker_0, # of connection points: 2
#     Edge 33, Type (0, 0), BuildingBlock: CIFDUS_clean_linker_0, # of connection points: 2
#     Edge 34, Type (0, 0), BuildingBlock: CIFDUS_clean_linker_0, # of connection points: 2
#     Edge 35, Type (0, 0), BuildingBlock: CIFDUS_clean_linker_0, # of connection points: 2
#     Edge 36, Type (0, 0), BuildingBlock: CIFDUS_clean_linker_0, # of connection points: 2
#     Edge 37, Type (0, 0), BuildingBlock: CIFDUS_clean_linker_0, # of connection points: 2
#     Edge 38, Type (0, 0), BuildingBlock: CIFDUS_clean_linker_0, # of connection points: 2
#     Edge 39, Type (0, 0), BuildingBlock: CIFDUS_clean_linker_0, # of connection points: 2
#     Edge 40, Type (0, 0), BuildingBlock: CIFDUS_clean_linker_0, # of connection points: 2
#     Edge 41, Type (0, 0), BuildingBlock: CIFDUS_clean_linker_0, # of connection points: 2
#     Edge 42, Type (0, 0), BuildingBlock: CIFDUS_clean_linker_0, # of connection points: 2
#     Edge 43, Type (0, 0), BuildingBlock: CIFDUS_clean_linker_0, # of connection points: 2
#     Edge 44, Type (0, 0), BuildingBlock: CIFDUS_clean_linker_0, # of connection points: 2
#     Edge 45, Type (0, 0), BuildingBlock: CIFDUS_clean_linker_0, # of connection points: 2
#     Edge 46, Type (0, 0), BuildingBlock: CIFDUS_clean_linker_0, # of connection points: 2
#     Edge 47, Type (0, 0), BuildingBlock: CIFDUS_clean_linker_0, # of connection points: 2
# Relax obj value: 0.123
# Max RMSD: 0.239
# Mean RMSD: 0.239
data_MOF--net-uki--node1-KOZSID_clean_sbu_0--edge1-CIFDUS_clean_linker_0
_symmetry_space_group_name_H-M    P1
_symmetry_Int_Tables_number       1
_symmetry_cell_setting            triclinic
loop_
_symmetry_equiv_pos_as_xyz
'x, y, z'
_cell_length_a     33.906021
_cell_length_b     33.83225
_cell_length_c     78.348163
_cell_angle_alpha  90.037471
_cell_angle_beta   89.966499
_cell_angle_gamma 90.007052
loop_
_atom_site_label
_atom_site_type_symbol
_atom_site_fract_x
_atom_site_fract_y
_atom_site_fract_z
_atom_type_partial_charge
C0 C 0.18286 0.2314 0.34024 0.0
C1 C 0.2116 0.20237 0.33828 0.0
C2 C 0.20489 0.18437 0.32292 0.0
C3 C 0.17212 0.20258 0.31642 0.0
N4 N 0.15778 0.23125 0.32664 0.0
Co5 Co 0.10628 0.25857 0.32308 0.0
N6 N 0.10374 0.24268 0.29863 0.0
C7 C 0.12543 0.2141 0.29126 0.0
C8 C 0.1179 0.20985 0.27414 0.0
C9 C 0.08932 0.23725 0.27054 0.0
C10 C 0.08076 0.25653 0.28574 0.0
N11 N 0.05454 0.28533 0.3197 0.0
C12 C 0.03524 0.29508 0.30515 0.0
C13 C 0.99899 0.31237 0.3088 0.0
C14 C 0.99571 0.31362 0.32618 0.0
C15 C 0.02979 0.29689 0.33218 0.0
N16 N 0.10893 0.27488 0.34749 0.0
C17 C 0.07924 0.29119 0.35653 0.0
C18 C 0.09118 0.30642 0.37187 0.0
C19 C 0.13062 0.29856 0.37275 0.0
C20 C 0.14046 0.27721 0.35817 0.0
N21 N 0.13358 0.30738 0.31628 0.0
C22 C 0.16187 0.37725 0.30109 0.0
C23 C 0.13321 0.37848 0.31401 0.0
C24 C 0.11973 0.34339 0.3215 0.0
C25 C 0.17798 0.34033 0.29684 0.0
C26 C 0.1635 0.30589 0.30457 0.0
N27 N 0.0785 0.20941 0.32933 0.0
C28 C 0.07459 0.14805 0.34508 0.0
C29 C 0.0433 0.13499 0.33479 0.0
C30 C 0.02944 0.16056 0.32209 0.0
C31 C 0.04728 0.19726 0.31958 0.0
C32 C 0.0914 0.18555 0.3423 0.0
H33 H 0.0363 0.21526 0.30932 0.0
H34 H 0.11534 0.1948 0.35042 0.0
H35 H 0.09676 0.34543 0.33094 0.0
H36 H 0.17518 0.27788 0.30041 0.0
C37 C 0.15568 0.19558 0.30033 0.0
C38 C 0.17824 0.25579 0.35583 0.0
C39 C 0.04842 0.28518 0.28779 0.0
C40 C 0.04274 0.29863 0.34902 0.0
H41 H 0.23436 0.19381 0.34718 0.0
H42 H 0.22181 0.16065 0.31722 0.0
H43 H 0.13215 0.18995 0.26525 0.0
H44 H 0.07595 0.24209 0.25817 0.0
H45 H 0.97696 0.32276 0.29988 0.0
H46 H 0.97199 0.32662 0.33354 0.0
H47 H 0.0738 0.32327 0.3809 0.0
H48 H 0.14968 0.30772 0.38307 0.0
H49 H 0.12047 0.40632 0.31803 0.0
H50 H 0.20013 0.33772 0.28694 0.0
H51 H 0.08593 0.12952 0.35522 0.0
H52 H 1.0056 0.15181 0.3137 0.0
C53 C 0.29227 0.99584 0.72064 0.0
C54 C 0.31377 0.02938 0.71639 0.0
C55 C 0.31658 0.02989 0.69896 0.0
C56 C 0.2966 0.99691 0.69357 0.0
N57 N 0.28139 0.97561 0.70648 0.0
Co58 Co 0.24967 0.92645 0.70414 0.0
N59 N 0.26826 0.91755 0.68034 0.0
C60 C 0.28822 0.94382 0.67073 0.0
C61 C 0.30251 0.92793 0.65589 0.0
C62 C 0.29033 0.88943 0.65598 0.0
C63 C 0.26784 0.88414 0.67066 0.0
N64 N 0.21682 0.87806 0.70151 0.0
C65 C 0.2167 0.84989 0.68911 0.0
C66 C 0.18503 0.82427 0.69136 0.0
C67 C 0.1653 0.83646 0.7057 0.0
C68 C 0.18542 0.8691 0.71133 0.0
N69 N 0.23192 0.93507 0.72805 0.0
C70 C 0.20004 0.91857 0.73535 0.0
C71 C 0.19508 0.92993 0.75206 0.0
C72 C 0.22569 0.95538 0.75543 0.0
C73 C 0.24756 0.95825 0.74052 0.0
N74 N 0.20454 0.95793 0.69589 0.0
C75 C 0.13035 0.99266 0.68972 0.0
C76 C 0.15633 1.00866 0.70182 0.0
C77 C 0.19308 0.99098 0.70469 0.0
C78 C 0.14367 0.96063 0.6799 0.0
C79 C 0.18101 0.94418 0.68298 0.0
N80 N 0.29397 0.89469 0.71297 0.0
C81 C 0.31592 0.84192 0.73131 0.0
C82 C 0.35535 0.85465 0.73035 0.0
C83 C 0.36334 0.88658 0.71931 0.0
C84 C 0.33248 0.90547 0.71048 0.0
C85 C 0.286 0.86283 0.72311 0.0
H86 H 0.33979 0.92975 0.70216 0.0
H87 H 0.25618 0.85362 0.72554 0.0
H88 H 0.21129 1.00291 0.71471 0.0
H89 H 0.18992 0.91904 0.67545 0.0
C90 C 0.29874 0.98076 0.67723 0.0
C91 C 0.28108 0.98534 0.73814 0.0
C92 C 0.24377 0.84858 0.6743 0.0
C93 C 0.17874 0.8892 0.72674 0.0
H94 H 0.32629 0.0511 0.72496 0.0
H95 H 0.33298 0.05071 0.69123 0.0
H96 H 0.32136 0.94203 0.64654 0.0
H97 H 0.29779 0.86794 0.64631 0.0
H98 H 0.17636 0.7998 0.68331 0.0
H99 H 0.13963 0.82283 0.71142 0.0
H100 H 0.17254 0.92013 0.76088 0.0
H101 H 0.23101 0.97045 0.76739 0.0
H102 H 0.14757 0.03348 0.70969 0.0
H103 H 0.12507 0.94785 0.67011 0.0
H104 H 0.30737 0.81634 0.73868 0.0
H105 H 0.39289 0.89804 0.7178 0.0
C106 C 0.83979 0.80504 0.3334 0.0
C107 C 0.80503 0.82412 0.32899 0.0
C108 C 0.80893 0.83558 0.31237 0.0
C109 C 0.84564 0.82285 0.30752 0.0
N110 N 0.86557 0.80402 0.32008 0.0
Co111 Co 0.9197 0.77993 0.31822 0.0
N112 N 0.92363 0.79274 0.29323 0.0
C113 C 0.89608 0.81128 0.28366 0.0
C114 C 0.90603 0.81421 0.26674 0.0
C115 C 0.94186 0.79601 0.26535 0.0
C116 C 0.95184 0.78308 0.28158 0.0
N117 N 0.97399 0.75643 0.31654 0.0
C118 C 0.99774 0.75077 0.3028 0.0
C119 C 0.03325 0.73328 0.3074 0.0
C120 C 0.03164 0.72707 0.32457 0.0
C121 C 0.99554 0.74122 0.32949 0.0
N122 N 0.91547 0.76605 0.34307 0.0
C123 C 0.94339 0.74837 0.35272 0.0
C124 C 0.93234 0.74246 0.36934 0.0
C125 C 0.89486 0.7568 0.37038 0.0
C126 C 0.88507 0.7705 0.35422 0.0
N127 N 0.89614 0.72794 0.31203 0.0
C128 C 0.86855 0.65486 0.29915 0.0
C129 C 0.89962 0.65639 0.31093 0.0
C130 C 0.91252 0.69298 0.31735 0.0
C131 C 0.85044 0.69042 0.29467 0.0
C132 C 0.86451 0.72615 0.30116 0.0
N133 N 0.9435 0.83247 0.32415 0.0
C134 C 0.98941 0.87322 0.34027 0.0
C135 C 0.97756 0.90732 0.33154 0.0
C136 C 0.94835 0.90311 0.31912 0.0
C137 C 0.93205 0.86602 0.31567 0.0
C138 C 0.97199 0.8365 0.33648 0.0
H139 H 0.91041 0.86545 0.30592 0.0
H140 H 0.98218 0.81187 0.34369 0.0
H141 H 0.93633 0.69249 0.3263 0.0
H142 H 0.84997 0.75204 0.29676 0.0
C143 C 0.86079 0.82479 0.2909 0.0
C144 C 0.84631 0.78701 0.35017 0.0
C145 C 0.98788 0.76078 0.28518 0.0
C146 C 0.97977 0.73771 0.34584 0.0
H147 H 0.77916 0.8286 0.33685 0.0
H148 H 0.78707 0.85033 0.30457 0.0
H149 H 0.88894 0.82739 0.25656 0.0
H150 H 0.95852 0.79215 0.25368 0.0
H151 H 0.0576 0.72527 0.29916 0.0
H152 H 0.05374 0.71298 0.33246 0.0
H153 H 0.94946 0.72917 0.37949 0.0
H154 H 0.87672 0.75701 0.38175 0.0
H155 H 0.91419 0.62956 0.31505 0.0
H156 H 0.82647 0.69101 0.28554 0.0
H157 H 1.01176 0.87483 0.35011 0.0
H158 H 0.9385 0.92829 0.31173 0.0
C159 C 0.73514 0.03322 0.72053 0.0
C160 C 0.71498 0.99924 0.71574 0.0
C161 C 0.71363 0.99924 0.69827 0.0
C162 C 0.73308 0.03297 0.69339 0.0
N163 N 0.74652 0.05425 0.70667 0.0
Co164 Co 0.77666 0.10448 0.7052 0.0
N165 N 0.75946 0.11391 0.68127 0.0
C166 C 0.74134 0.08734 0.67112 0.0
C167 C 0.72611 0.10384 0.6566 0.0
C168 C 0.73577 0.14301 0.6575 0.0
C169 C 0.75807 0.14818 0.67223 0.0
N170 N 0.80737 0.15438 0.70361 0.0
C171 C 0.80713 0.18318 0.6915 0.0
C172 C 0.83807 0.20948 0.69423 0.0
C173 C 0.85746 0.19719 0.70861 0.0
C174 C 0.83801 0.16377 0.71378 0.0
N175 N 0.79339 0.09508 0.72917 0.0
C176 C 0.82456 0.11187 0.73689 0.0
C177 C 0.82906 0.09966 0.7535 0.0
C178 C 0.79892 0.0733 0.75633 0.0
C179 C 0.77778 0.07083 0.74122 0.0
N180 N 0.82346 0.07522 0.69714 0.0
C181 C 0.89825 0.04204 0.69065 0.0
C182 C 0.87231 0.02479 0.70245 0.0
C183 C 0.83527 0.04173 0.70549 0.0
C184 C 0.88478 0.07484 0.68139 0.0
C185 C 0.84718 0.09055 0.68462 0.0
N186 N 0.73063 0.1339 0.71364 0.0
C187 C 0.70385 0.18241 0.73298 0.0
C188 C 0.6653 0.17392 0.72762 0.0
C189 C 0.66031 0.14502 0.71493 0.0
C190 C 0.6933 0.12556 0.70805 0.0
C191 C 0.73585 0.16219 0.7259 0.0
H192 H 0.68853 0.10347 0.69835 0.0
H193 H 0.7649 0.16905 0.7306 0.0
H194 H 0.81697 0.02867 0.71522 0.0
H195 H 0.83804 0.11616 0.67747 0.0
C196 C 0.73181 0.04967 0.67714 0.0
C197 C 0.745 0.04324 0.73823 0.0
C198 C 0.78052 0.18451 0.6765 0.0
C199 C 0.8451 0.14265 0.72888 0.0
H200 H 0.70246 0.97687 0.72399 0.0
H201 H 0.69852 0.97821 0.69016 0.0
H202 H 0.70782 0.08968 0.64707 0.0
H203 H 0.72657 0.16502 0.64835 0.0
H204 H 0.84669 0.23438 0.68643 0.0
H205 H 0.88266 0.21109 0.7146 0.0
H206 H 0.85088 0.10956 0.76263 0.0
H207 H 0.79341 0.05744 0.76808 0.0
H208 H 0.88123 0.99938 0.70992 0.0
H209 H 0.90335 0.08864 0.67185 0.0
H210 H 0.70936 0.20393 0.74293 0.0
H211 H 0.63117 0.13762 0.71026 0.0
C212 C 0.18879 0.30011 0.94087 0.0
C213 C 0.21764 0.3284 0.94415 0.0
C214 C 0.20753 0.34681 0.95906 0.0
C215 C 0.17282 0.32956 0.96398 0.0
N216 N 0.16045 0.30109 0.95319 0.0
Co217 Co 0.10766 0.27531 0.95424 0.0
N218 N 0.09942 0.29134 0.97844 0.0
C219 C 0.11968 0.31956 0.98677 0.0
C220 C 0.10773 0.3243 1.00338 0.0
C221 C 0.07777 0.29757 1.00563 0.0
C222 C 0.07296 0.27815 0.99016 0.0
N223 N 0.05455 0.25029 0.95516 0.0
C224 C 0.03158 0.24096 0.96875 0.0
C225 C 0.99608 0.22445 0.9635 0.0
C226 C 0.997 0.22333 0.94605 0.0
C227 C 0.03275 0.23929 0.94162 0.0
N228 N 0.11596 0.25875 0.93008 0.0
C229 C 0.08822 0.2434 0.9197 0.0
C230 C 0.10339 0.22836 0.90485 0.0
C231 C 0.14303 0.23532 0.90575 0.0
C232 C 0.14983 0.25585 0.92085 0.0
N233 N 0.13182 0.22578 0.9622 0.0
C234 C 0.15977 0.15516 0.97688 0.0
C235 C 0.13212 0.15452 0.96356 0.0
C236 C 0.11881 0.18999 0.95633 0.0
C237 C 0.1743 0.192 0.98215 0.0
C238 C 0.15993 0.22679 0.97472 0.0
N239 N 0.08349 0.32537 0.94671 0.0
C240 C 0.08947 0.3871 0.9315 0.0
C241 C 0.05867 0.4037 0.94109 0.0
C242 C 0.03871 0.37917 0.95264 0.0
C243 C 0.05149 0.34026 0.95523 0.0
C244 C 0.10103 0.34786 0.93433 0.0
H245 H 0.03655 0.32294 0.96479 0.0
H246 H 0.12536 0.33641 0.927 0.0
H247 H 0.09712 0.1884 0.94632 0.0
H248 H 0.17065 0.2546 0.97955 0.0
C249 C 0.15252 0.33727 0.97917 0.0
C250 C 0.18746 0.27574 0.92515 0.0
C251 C 0.04099 0.24994 0.98662 0.0
C252 C 0.04983 0.23701 0.92548 0.0
H253 H 0.24278 0.33621 0.93636 0.0
H254 H 0.22351 0.37018 0.96549 0.0
H255 H 0.11995 0.34409 0.01286 0.0
H256 H 0.06104 0.29329 0.01725 0.0
H257 H 0.97197 0.21429 0.97142 0.0
H258 H 0.97499 0.21072 0.93765 0.0
H259 H 0.08785 0.21229 0.89498 0.0
H260 H 0.16423 0.22598 0.89627 0.0
H261 H 0.12043 0.12677 0.95886 0.0
H262 H 0.19542 0.19414 0.99248 0.0
H263 H 0.10516 0.40458 0.92212 0.0
H264 H 1.01465 0.39051 0.96031 0.0
C265 C 0.239 0.99476 0.05333 0.0
C266 C 0.22226 0.03079 0.05787 0.0
C267 C 0.22127 0.03192 0.07533 0.0
C268 C 0.23742 0.99675 0.08049 0.0
N269 N 0.24827 0.97337 0.06739 0.0
Co270 Co 0.27378 0.92072 0.06944 0.0
N271 N 0.25651 0.91509 0.09356 0.0
C272 C 0.24495 0.94483 0.10383 0.0
C273 C 0.23644 0.93276 0.12012 0.0
C274 C 0.24335 0.89291 0.12019 0.0
C275 C 0.25558 0.88281 0.10382 0.0
N276 N 0.2995 0.86806 0.07171 0.0
C277 C 0.29453 0.83939 0.08369 0.0
C278 C 0.31833 0.80702 0.08014 0.0
C279 C 0.33954 0.81626 0.06576 0.0
C280 C 0.32738 0.8535 0.0612 0.0
N281 N 0.29109 0.92674 0.04534 0.0
C282 C 0.31993 0.90584 0.03772 0.0
C283 C 0.32567 0.91652 0.02099 0.0
C284 C 0.29902 0.94624 0.01796 0.0
C285 C 0.27852 0.9522 0.03308 0.0
N286 N 0.32318 0.94604 0.07698 0.0
C287 C 0.40074 0.9724 0.08296 0.0
C288 C 0.37635 0.99162 0.07114 0.0
C289 C 0.33783 0.97804 0.06835 0.0
C290 C 0.38437 0.9415 0.09257 0.0
C291 C 0.34557 0.92911 0.08953 0.0
N292 N 0.2252 0.89493 0.06145 0.0
C293 C 0.19503 0.84679 0.04293 0.0
C294 C 0.15728 0.85863 0.048 0.0
C295 C 0.15418 0.88926 0.06005 0.0
C296 C 0.18857 0.90675 0.06677 0.0
C297 C 0.22827 0.86528 0.04966 0.0
H298 H 0.18559 0.93001 0.07612 0.0
H299 H 0.25656 0.85574 0.04505 0.0
H300 H 0.32064 0.9923 0.05856 0.0
H301 H 0.33441 0.90454 0.09683 0.0
C302 C 0.2376 0.9824 0.09719 0.0
C303 C 0.24939 0.98396 0.03573 0.0
C304 C 0.26969 0.84322 0.09907 0.0
C305 C 0.33645 0.87285 0.04586 0.0
H306 H 0.21244 0.0542 0.04948 0.0
H307 H 0.20927 0.05517 0.08328 0.0
H308 H 0.22574 0.95062 0.13062 0.0
H309 H 0.24049 0.87372 0.13116 0.0
H310 H 0.32036 0.77963 0.0872 0.0
H311 H 0.36025 0.79744 0.05909 0.0
H312 H 0.34587 0.90343 1.01191 0.0
H313 H 0.2953 0.96187 1.00603 0.0
H314 H 0.38757 1.01565 0.06341 0.0
H315 H 0.40176 0.92629 0.10212 0.0
H316 H 0.19898 0.82377 0.03346 0.0
H317 H 0.12553 0.89931 0.06436 0.0
C318 C 0.84236 0.72703 0.94085 0.0
C319 C 0.81405 0.69809 0.94394 0.0
C320 C 0.82421 0.67971 0.95887 0.0
C321 C 0.8584 0.69768 0.96399 0.0
N322 N 0.87029 0.72656 0.95331 0.0
Co323 Co 0.9223 0.75349 0.95464 0.0
N324 N 0.92972 0.7384 0.97893 0.0
C325 C 0.91039 0.70946 0.98716 0.0
C326 C 0.92097 0.70664 1.00405 0.0
C327 C 0.94882 0.73558 1.00653 0.0
C328 C 0.95383 0.75432 0.99093 0.0
N329 N 0.97465 0.77953 0.95592 0.0
C330 C 0.9955 0.79129 0.96975 0.0
C331 C 0.03112 0.80818 0.96493 0.0
C332 C 0.03221 0.80726 0.94744 0.0
C333 C 0.99744 0.78974 0.94258 0.0
N334 N 0.91491 0.76929 0.9304 0.0
C335 C 0.94311 0.78427 0.92014 0.0
C336 C 0.92848 0.79849 0.90505 0.0
C337 C 0.88881 0.79131 0.90568 0.0
C338 C 0.88141 0.7715 0.92091 0.0
N339 N 0.89682 0.80259 0.9622 0.0
C340 C 0.86783 0.87271 0.97686 0.0
C341 C 0.89576 0.87379 0.96364 0.0
C342 C 0.90958 0.83851 0.9564 0.0
C343 C 0.85346 0.83571 0.98198 0.0
C344 C 0.86832 0.80117 0.97455 0.0
N345 N 0.94776 0.70382 0.94745 0.0
C346 C 0.94385 0.64241 0.93188 0.0
C347 C 0.97414 0.62602 0.94179 0.0
C348 C 0.99292 0.65055 0.95373 0.0
C349 C 0.97934 0.68925 0.95634 0.0
C350 C 0.93147 0.68132 0.93476 0.0
H351 H 0.99325 0.70673 0.96616 0.0
H352 H 0.90743 0.69248 0.92719 0.0
H353 H 0.93158 0.84033 0.9465 0.0
H354 H 0.85782 0.77321 0.97931 0.0
C355 C 0.87843 0.69052 0.97935 0.0
C356 C 0.84371 0.75156 0.92518 0.0
C357 C 0.98311 0.7854 0.98751 0.0
C358 C 0.9813 0.79108 0.92621 0.0
H359 H 0.78927 0.68988 0.93602 0.0
H360 H 0.80855 0.65598 0.96518 0.0
H361 H 0.90875 0.68704 0.0136 0.0
H362 H 0.96368 0.74206 0.01842 0.0
H363 H 0.05371 0.8203 0.97317 0.0
H364 H 0.05458 0.82003 0.93927 0.0
H365 H 0.94437 0.81417 0.89517 0.0
H366 H 0.86801 0.80011 0.89596 0.0
H367 H 0.9073 0.90169 0.95906 0.0
H368 H 0.83213 0.83327 0.99222 0.0
H369 H 0.92909 0.62494 0.92221 0.0
H370 H 0.01657 0.63932 0.96164 0.0
C371 C 0.78334 0.03239 0.05336 0.0
C372 C 0.79988 0.99675 0.05848 0.0
C373 C 0.8012 0.99746 0.07593 0.0
C374 C 0.78533 0.03323 0.0805 0.0
N375 N 0.77415 0.05518 0.06703 0.0
Co376 Co 0.74926 0.10836 0.06811 0.0
N377 N 0.76667 0.11675 0.09211 0.0
C378 C 0.78241 0.08899 0.10239 0.0
C379 C 0.79888 0.10445 0.11688 0.0
C380 C 0.79244 0.14425 0.11587 0.0
C381 C 0.77064 0.15091 0.10111 0.0
N382 N 0.72359 0.16123 0.06932 0.0
C383 C 0.72512 0.18971 0.08159 0.0
C384 C 0.69651 0.21841 0.07859 0.0
C385 C 0.67744 0.20812 0.06386 0.0
C386 C 0.6946 0.17343 0.05879 0.0
N387 N 0.73245 0.10008 0.04404 0.0
C388 C 0.70385 0.12017 0.03594 0.0
C389 C 0.69881 0.10832 0.01932 0.0
C390 C 0.72577 0.07864 0.01686 0.0
C391 C 0.74563 0.07387 0.03221 0.0
N392 N 0.69962 0.08412 0.07601 0.0
C393 C 0.62195 0.05866 0.08244 0.0
C394 C 0.64595 0.03885 0.07064 0.0
C395 C 0.68453 0.05197 0.06763 0.0
C396 C 0.63877 0.08972 0.09183 0.0
C397 C 0.67768 0.1016 0.08859 0.0
N398 N 0.79839 0.13248 0.05982 0.0
C399 C 0.83166 0.17471 0.0396 0.0
C400 C 0.8685 0.16011 0.04473 0.0
C401 C 0.86943 0.13261 0.05812 0.0
C402 C 0.83421 0.11944 0.06554 0.0
C403 C 0.7971 0.1605 0.04725 0.0
H404 H 0.83602 0.09781 0.07558 0.0
H405 H 0.76923 0.17124 0.04256 0.0
H406 H 0.70144 0.03711 0.05791 0.0
H407 H 0.68933 0.12609 0.0958 0.0
C408 C 0.78827 0.0504 0.09662 0.0
C409 C 0.77438 0.04227 0.03554 0.0
C410 C 0.75044 0.18863 0.09701 0.0
C411 C 0.68631 0.15299 0.04368 0.0
H412 H 0.81 0.97275 0.05046 0.0
H413 H 0.81403 0.97537 0.08423 0.0
H414 H 0.81567 0.08898 0.12654 0.0
H415 H 0.80294 0.16567 0.12504 0.0
H416 H 0.68887 0.24354 0.08643 0.0
H417 H 0.6537 0.22396 0.05767 0.0
H418 H 0.67874 0.12051 1.00997 0.0
H419 H 0.72998 0.06212 1.00517 0.0
H420 H 0.63441 1.01464 0.06309 0.0
H421 H 0.6217 0.10533 0.10139 0.0
H422 H 0.82934 0.19575 0.02924 0.0
H423 H 0.8972 0.12093 0.06272 0.0
C424 C 0.68182 0.72091 0.83355 0.0
C425 C 0.70771 0.6896 0.83088 0.0
C426 C 0.6952 0.67012 0.81654 0.0
C427 C 0.6621 0.68997 0.81133 0.0
N428 N 0.65307 0.72094 0.82142 0.0
Co429 Co 0.60376 0.7526 0.81962 0.0
N430 N 0.59414 0.73539 0.79569 0.0
C431 C 0.61049 0.70359 0.78819 0.0
C432 C 0.59757 0.69785 0.77177 0.0
C433 C 0.57112 0.72775 0.7688 0.0
C434 C 0.56943 0.75022 0.78362 0.0
N435 N 0.55425 0.78402 0.81794 0.0
C436 C 0.53386 0.79612 0.80399 0.0
C437 C 0.50305 0.82103 0.80867 0.0
C438 C 0.50319 0.82309 0.82608 0.0
C439 C 0.53439 0.80017 0.8311 0.0
N440 N 0.61353 0.77015 0.84354 0.0
C441 C 0.58764 0.78955 0.85357 0.0
C442 C 0.60446 0.80485 0.868 0.0
C443 C 0.64318 0.794 0.86721 0.0
C444 C 0.64769 0.77094 0.85263 0.0
N445 N 0.63411 0.79796 0.81099 0.0
C446 C 0.67428 0.86241 0.79625 0.0
C447 C 0.64611 0.86824 0.80914 0.0
C448 C 0.6266 0.8357 0.81641 0.0
C449 C 0.68223 0.82345 0.79117 0.0
C450 C 0.66195 0.7919 0.79863 0.0
N451 N 0.57352 0.70636 0.82779 0.0
C452 C 0.57252 0.64419 0.84301 0.0
C453 C 0.53951 0.63143 0.8337 0.0
C454 C 0.52241 0.65827 0.82223 0.0
C455 C 0.53973 0.69535 0.81949 0.0
C456 C 0.58861 0.68188 0.84008 0.0
H457 H 0.52677 0.71425 0.80996 0.0
H458 H 0.61439 0.69042 0.84723 0.0
H459 H 0.60504 0.84121 0.82623 0.0
H460 H 0.66829 0.76253 0.79409 0.0
C461 C 0.6409 0.68285 0.79629 0.0
C462 C 0.68342 0.74755 0.84855 0.0
C463 C 0.541 0.78251 0.78638 0.0
C464 C 0.55097 0.80098 0.84732 0.0
H465 H 0.73247 0.6808 0.83869 0.0
H466 H 0.70875 0.64462 0.8106 0.0
H467 H 0.60672 0.67507 0.76291 0.0
H468 H 0.55435 0.73196 0.7572 0.0
H469 H 0.48271 0.83658 0.80045 0.0
H470 H 0.48437 0.84123 0.83404 0.0
H471 H 0.59093 0.82418 0.87734 0.0
H472 H 0.66539 0.80304 0.87628 0.0
H473 H 0.63922 0.89772 0.81365 0.0
H474 H 0.70327 0.81728 0.78111 0.0
H475 H 0.58622 0.62497 0.85233 0.0
H476 H 0.49684 0.65003 0.81476 0.0
C477 C 0.7818 0.49801 0.22281 0.0
C478 C 0.79755 0.5343 0.2181 0.0
C479 C 0.80342 0.53286 0.2009 0.0
C480 C 0.79068 0.49608 0.19607 0.0
N481 N 0.77678 0.47401 0.20911 0.0
Co482 Co 0.75414 0.41939 0.20744 0.0
N483 N 0.76913 0.41453 0.18271 0.0
C484 C 0.78924 0.44175 0.17355 0.0
C485 C 0.80333 0.42785 0.15834 0.0
C486 C 0.79143 0.38944 0.15766 0.0
C487 C 0.76914 0.38232 0.17225 0.0
N488 N 0.72981 0.36558 0.20549 0.0
C489 C 0.7254 0.34159 0.19166 0.0
C490 C 0.69949 0.3108 0.19525 0.0
C491 C 0.68957 0.3139 0.21207 0.0
C492 C 0.70867 0.34702 0.21774 0.0
N493 N 0.74144 0.42313 0.23245 0.0
C494 C 0.72374 0.39507 0.24206 0.0
C495 C 0.72183 0.40433 0.25907 0.0
C496 C 0.74005 0.44019 0.2605 0.0
C497 C 0.75179 0.45091 0.24418 0.0
N498 N 0.70182 0.44313 0.20134 0.0
C499 C 0.62754 0.47812 0.19411 0.0
C500 C 0.6323 0.45193 0.20768 0.0
C501 C 0.66909 0.43523 0.21107 0.0
C502 C 0.66075 0.48645 0.18407 0.0
C503 C 0.69724 0.46842 0.18777 0.0
N504 N 0.8059 0.3961 0.21385 0.0
C505 C 0.84334 0.35067 0.23135 0.0
C506 C 0.87857 0.37051 0.22767 0.0
C507 C 0.87691 0.40191 0.21605 0.0
C508 C 0.84062 0.41396 0.20925 0.0
C509 C 0.80773 0.36368 0.22429 0.0
H510 H 0.84116 0.4385 0.20067 0.0
H511 H 0.7818 0.34788 0.22794 0.0
H512 H 0.67007 0.41632 0.22183 0.0
H513 H 0.72132 0.47549 0.17953 0.0
C514 C 0.79691 0.4793 0.18007 0.0
C515 C 0.77336 0.48734 0.24049 0.0
C516 C 0.74717 0.34533 0.1754 0.0
C517 C 0.70823 0.36093 0.23455 0.0
H518 H 0.80498 0.55894 0.22632 0.0
H519 H 0.81699 0.55527 0.19298 0.0
H520 H 0.82149 0.44334 0.14915 0.0
H521 H 0.79935 0.36915 0.14758 0.0
H522 H 0.68905 0.28797 0.18671 0.0
H523 H 0.67069 0.29429 0.21931 0.0
H524 H 0.70898 0.38695 0.26925 0.0
H525 H 0.74451 0.45645 0.27224 0.0
H526 H 0.6078 0.44494 0.21604 0.0
H527 H 0.65854 0.50645 0.17333 0.0
H528 H 0.8428 0.32621 0.24026 0.0
H529 H 0.90342 0.41763 0.21239 0.0
C530 C 0.34679 0.30714 0.83287 0.0
C531 C 0.32036 0.3381 0.83047 0.0
C532 C 0.33187 0.35773 0.81601 0.0
C533 C 0.36497 0.33837 0.81046 0.0
N534 N 0.3749 0.30755 0.82046 0.0
Co535 Co 0.42465 0.2769 0.8183 0.0
N536 N 0.43284 0.29401 0.7943 0.0
C537 C 0.4157 0.32533 0.78682 0.0
C538 C 0.42709 0.33006 0.77011 0.0
C539 C 0.45326 0.2999 0.76695 0.0
C540 C 0.45644 0.27851 0.78198 0.0
N541 N 0.47471 0.24679 0.81629 0.0
C542 C 0.49499 0.23556 0.8022 0.0
C543 C 0.52917 0.21538 0.80662 0.0
C544 C 0.53006 0.21385 0.82407 0.0
C545 C 0.49663 0.23322 0.82932 0.0
N546 N 0.41645 0.2593 0.84226 0.0
C547 C 0.44345 0.24095 0.85209 0.0
C548 C 0.42769 0.2253 0.86669 0.0
C549 C 0.38857 0.23491 0.86619 0.0
C550 C 0.38271 0.25766 0.85162 0.0
N551 N 0.39489 0.2308 0.80996 0.0
C552 C 0.35462 0.16556 0.79581 0.0
C553 C 0.38395 0.16027 0.80827 0.0
C554 C 0.40353 0.19321 0.81524 0.0
C555 C 0.34586 0.20438 0.7908 0.0
C556 C 0.36616 0.23629 0.79796 0.0
N557 N 0.45423 0.32385 0.82618 0.0
C558 C 0.45545 0.38539 0.84191 0.0
C559 C 0.48786 0.39886 0.83239 0.0
C560 C 0.50442 0.37279 0.82043 0.0
C561 C 0.48729 0.33568 0.81753 0.0
C562 C 0.43952 0.3477 0.83881 0.0
H563 H 0.49987 0.31735 0.80768 0.0
H564 H 0.41426 0.33858 0.84618 0.0
H565 H 0.42598 0.18819 0.82473 0.0
H566 H 0.35903 0.26552 0.79348 0.0
C567 C 0.38532 0.34574 0.79518 0.0
C568 C 0.34631 0.28032 0.84784 0.0
C569 C 0.48405 0.24558 0.78463 0.0
C570 C 0.48075 0.23162 0.84571 0.0
H571 H 0.29589 0.34658 0.83853 0.0
H572 H 0.31765 0.38303 0.81022 0.0
H573 H 0.41675 0.35202 0.76112 0.0
H574 H 0.46851 0.29451 0.75504 0.0
H575 H 0.5511 0.20295 0.79813 0.0
H576 H 0.55146 0.19863 0.83193 0.0
H577 H 0.44228 0.20677 0.876 0.0
H578 H 0.36705 0.22543 0.8755 0.0
H579 H 0.39162 0.13095 0.81269 0.0
H580 H 0.32404 0.21022 0.78103 0.0
H581 H 0.44215 0.40402 0.85157 0.0
H582 H 0.52948 0.38163 0.81275 0.0
C583 C 0.2393 0.53666 0.22258 0.0
C584 C 0.22283 0.50065 0.21784 0.0
C585 C 0.22433 0.49892 0.20041 0.0
C586 C 0.24156 0.53374 0.19547 0.0
N587 N 0.25074 0.55756 0.20866 0.0
Co588 Co 0.27696 0.6101 0.20688 0.0
N589 N 0.26424 0.61449 0.18213 0.0
C590 C 0.25377 0.58423 0.1719 0.0
C591 C 0.24896 0.59499 0.15518 0.0
C592 C 0.25726 0.63451 0.15473 0.0
C593 C 0.26653 0.64581 0.17132 0.0
N594 N 0.30333 0.66256 0.20494 0.0
C595 C 0.30128 0.69042 0.19245 0.0
C596 C 0.32341 0.72348 0.19683 0.0
C597 C 0.341 0.71537 0.21217 0.0
C598 C 0.32831 0.67821 0.21649 0.0
N599 N 0.28973 0.60539 0.23161 0.0
C600 C 0.31657 0.62716 0.24008 0.0
C601 C 0.31924 0.61746 0.25705 0.0
C602 C 0.29268 0.5874 0.25939 0.0
C603 C 0.27533 0.58029 0.24364 0.0
N604 N 0.3273 0.58383 0.20127 0.0
C605 C 0.40155 0.54848 0.19551 0.0
C606 C 0.38928 0.58138 0.18597 0.0
C607 C 0.35207 0.59844 0.18897 0.0
C608 C 0.37547 0.53365 0.20785 0.0
C609 C 0.33883 0.5515 0.21047 0.0
N610 N 0.22703 0.63624 0.21296 0.0
C611 C 0.19203 0.68129 0.23145 0.0
C612 C 0.15563 0.66627 0.22605 0.0
C613 C 0.15581 0.63711 0.21326 0.0
C614 C 0.19175 0.62283 0.20676 0.0
C615 C 0.22713 0.66591 0.22484 0.0
H616 H 0.19099 0.59996 0.19717 0.0
H617 H 0.25437 0.67704 0.22994 0.0
H618 H 0.34361 0.62373 0.18145 0.0
H619 H 0.32016 0.53933 0.22026 0.0
C620 C 0.24465 0.54726 0.17872 0.0
C621 C 0.24762 0.54764 0.24036 0.0
C622 C 0.28142 0.68532 0.17582 0.0
C623 C 0.33416 0.65991 0.23229 0.0
H624 H 0.21166 0.47761 0.2261 0.0
H625 H 0.21335 0.47545 0.19231 0.0
H626 H 0.24004 0.57645 0.1446 0.0
H627 H 0.25746 0.65255 0.14334 0.0
H628 H 0.32677 0.75062 0.18969 0.0
H629 H 0.35965 0.73488 0.21957 0.0
H630 H 0.3374 0.63137 0.26669 0.0
H631 H 0.28697 0.57225 0.2713 0.0
H632 H 0.40812 0.59375 0.17616 0.0
H633 H 0.38357 0.50876 0.2158 0.0
H634 H 0.19361 0.7035 0.24139 0.0
H635 H 0.12841 0.62492 0.20849 0.0
C636 C 0.68945 0.80195 0.4416 0.0
C637 C 0.72633 0.81431 0.44716 0.0
C638 C 0.72544 0.81366 0.46461 0.0
C639 C 0.68828 0.80086 0.46877 0.0
N640 N 0.66539 0.7937 0.45506 0.0
Co641 Co 0.61024 0.77278 0.45572 0.0
N642 N 0.60476 0.78388 0.4807 0.0
C643 C 0.63455 0.79275 0.49141 0.0
C644 C 0.62275 0.7972 0.50805 0.0
C645 C 0.58306 0.78998 0.50796 0.0
C646 C 0.57289 0.78139 0.49121 0.0
N647 N 0.55504 0.7519 0.45627 0.0
C648 C 0.52713 0.7534 0.46872 0.0
C649 C 0.49261 0.73475 0.46356 0.0
C650 C 0.49928 0.72043 0.44753 0.0
C651 C 0.53727 0.73112 0.44377 0.0
N652 N 0.61583 0.7613 0.4308 0.0
C653 C 0.59099 0.73931 0.4213 0.0
C654 C 0.60115 0.73757 0.40439 0.0
C655 C 0.63481 0.75948 0.40306 0.0
C656 C 0.64368 0.77297 0.41938 0.0
N657 N 0.63089 0.71977 0.46132 0.0
C658 C 0.66778 0.65152 0.47442 0.0
C659 C 0.63112 0.66417 0.48062 0.0
C660 C 0.61326 0.69791 0.47387 0.0
C661 C 0.68416 0.67236 0.46062 0.0
C662 C 0.66516 0.7061 0.45419 0.0
N663 N 0.58989 0.8261 0.45054 0.0
C664 C 0.54468 0.86945 0.43574 0.0
C665 C 0.5586 0.90241 0.44486 0.0
C666 C 0.58905 0.89613 0.45666 0.0
C667 C 0.60413 0.85808 0.45929 0.0
C668 C 0.56074 0.83177 0.43871 0.0
H669 H 0.62701 0.85464 0.46866 0.0
H670 H 0.54922 0.80724 0.43152 0.0
H671 H 0.586 0.70716 0.47949 0.0
H672 H 0.67909 0.7219 0.44389 0.0
C673 C 0.67262 0.79917 0.48522 0.0
C674 C 0.68007 0.79448 0.42356 0.0
C675 C 0.53384 0.76637 0.48636 0.0
C676 C 0.55571 0.72547 0.4281 0.0
H677 H 0.75161 0.82213 0.43943 0.0
H678 H 0.74894 0.82202 0.47324 0.0
H679 H 0.64083 0.80475 0.51896 0.0
H680 H 0.56394 0.78977 0.51903 0.0
H681 H 0.4658 0.7307 0.47086 0.0
H682 H 0.47877 0.70437 0.43953 0.0
H683 H 0.58523 0.72326 0.39414 0.0
H684 H 0.65095 0.76478 0.39137 0.0
H685 H 0.61707 0.64946 0.49128 0.0
H686 H 0.71196 0.66327 0.45505 0.0
H687 H 0.52156 0.87266 0.42632 0.0
H688 H 0.60059 0.92029 0.46423 0.0
C689 C 0.74121 0.49807 0.55544 0.0
C690 C 0.72387 0.53378 0.55991 0.0
C691 C 0.72517 0.53603 0.57738 0.0
C692 C 0.74331 0.50179 0.58257 0.0
N693 N 0.75343 0.4782 0.56947 0.0
Co694 Co 0.78021 0.42623 0.57125 0.0
N695 N 0.76535 0.4203 0.59568 0.0
C696 C 0.75082 0.4492 0.60573 0.0
C697 C 0.7369 0.43536 0.62101 0.0
C698 C 0.74368 0.3955 0.6207 0.0
C699 C 0.76302 0.38716 0.60545 0.0
N700 N 0.80762 0.37458 0.57307 0.0
C701 C 0.80691 0.34705 0.5857 0.0
C702 C 0.83581 0.31856 0.58287 0.0
C703 C 0.85431 0.32817 0.56788 0.0
C704 C 0.83644 0.36225 0.56248 0.0
N705 N 0.79467 0.43213 0.54682 0.0
C706 C 0.82377 0.4127 0.53875 0.0
C707 C 0.82658 0.42263 0.52178 0.0
C708 C 0.79748 0.4502 0.51909 0.0
C709 C 0.77864 0.45562 0.53463 0.0
N710 N 0.82953 0.45307 0.57779 0.0
C711 C 0.90453 0.4861 0.58378 0.0
C712 C 0.87897 0.50232 0.57159 0.0
C713 C 0.84187 0.48545 0.56879 0.0
C714 C 0.89099 0.45384 0.59338 0.0
C715 C 0.85331 0.43813 0.59035 0.0
N716 N 0.73125 0.39969 0.56435 0.0
C717 C 0.6974 0.35603 0.54491 0.0
C718 C 0.66071 0.37073 0.55023 0.0
C719 C 0.66018 0.39864 0.56348 0.0
C720 C 0.69563 0.41244 0.57044 0.0
C721 C 0.7322 0.37089 0.5521 0.0
H722 H 0.69417 0.43461 0.58029 0.0
H723 H 0.75997 0.3603 0.54719 0.0
H724 H 0.82366 0.49801 0.55891 0.0
H725 H 0.84388 0.41322 0.59789 0.0
C726 C 0.74316 0.48689 0.59918 0.0
C727 C 0.74751 0.4849 0.53781 0.0
C728 C 0.78188 0.3488 0.6012 0.0
C729 C 0.84322 0.38141 0.54687 0.0
H730 H 0.71137 0.55573 0.55144 0.0
H731 H 0.71244 0.55887 0.58534 0.0
H732 H 0.72127 0.4518 0.63075 0.0
H733 H 0.73447 0.37523 0.63056 0.0
H734 H 0.84368 0.29392 0.59095 0.0
H735 H 0.87789 0.3121 0.56167 0.0
H736 H 0.8464 0.41029 0.51235 0.0
H737 H 0.79105 0.46475 0.50712 0.0
H738 H 0.88807 0.52712 0.56379 0.0
H739 H 0.90941 0.44073 0.60315 0.0
H740 H 0.69938 0.33461 0.53467 0.0
H741 H 0.63255 0.41037 0.56822 0.0
C742 C 0.35606 0.22894 0.43845 0.0
C743 C 0.32718 0.2001 0.44051 0.0
C744 C 0.33436 0.18179 0.45577 0.0
C745 C 0.36748 0.19972 0.46211 0.0
N746 N 0.38158 0.22846 0.4519 0.0
Co747 Co 0.43296 0.25604 0.45534 0.0
N748 N 0.43601 0.24009 0.47977 0.0
C749 C 0.41476 0.21117 0.48712 0.0
C750 C 0.42304 0.20647 0.50415 0.0
C751 C 0.45164 0.23393 0.5077 0.0
C752 C 0.45939 0.25375 0.49256 0.0
N753 N 0.48452 0.28326 0.4586 0.0
C754 C 0.50394 0.29319 0.47311 0.0
C755 C 0.53985 0.31108 0.46938 0.0
C756 C 0.54289 0.31237 0.452 0.0
C757 C 0.50896 0.29515 0.44607 0.0
N758 N 0.4299 0.27232 0.43095 0.0
C759 C 0.45938 0.28874 0.42182 0.0
C760 C 0.4471 0.30412 0.40658 0.0
C761 C 0.40765 0.2963 0.40585 0.0
C762 C 0.39813 0.2748 0.42042 0.0
N763 N 0.40524 0.30465 0.46222 0.0
C764 C 0.3739 0.37455 0.47647 0.0
C765 C 0.40272 0.37589 0.46359 0.0
C766 C 0.41786 0.34081 0.45665 0.0
C767 C 0.35963 0.33723 0.4813 0.0
C768 C 0.37551 0.30285 0.47402 0.0
N769 N 0.46101 0.20695 0.44901 0.0
C770 C 0.46425 0.145 0.43357 0.0
C771 C 0.49569 0.13199 0.44381 0.0
C772 C 0.51007 0.15803 0.45625 0.0
C773 C 0.4925 0.19497 0.45863 0.0
C774 C 0.44771 0.18271 0.43622 0.0
H775 H 0.50384 0.21326 0.46873 0.0
H776 H 0.42356 0.19179 0.42818 0.0
H777 H 0.44082 0.34306 0.4472 0.0
H778 H 0.36482 0.27472 0.4785 0.0
C779 C 0.38435 0.1926 0.47812 0.0
C780 C 0.36034 0.25351 0.42291 0.0
C781 C 0.49135 0.2828 0.49047 0.0
C782 C 0.49586 0.2966 0.42926 0.0
H783 H 0.30398 0.19194 0.43174 0.0
H784 H 0.31745 0.15815 0.46151 0.0
H785 H 0.40932 0.18616 0.51302 0.0
H786 H 0.4656 0.23843 0.51997 0.0
H787 H 0.56183 0.32179 0.47826 0.0
H788 H 0.56633 0.3257 0.44459 0.0
H789 H 0.46424 0.32118 0.39754 0.0
H790 H 0.38835 0.30567 0.39566 0.0
H791 H 0.41417 0.40387 0.45907 0.0
H792 H 0.3376 0.33433 0.49123 0.0
H793 H 0.4525 0.12622 0.4236 0.0
H794 H 0.53405 0.14945 0.46459 0.0
C795 C 0.29455 0.53855 0.55243 0.0
C796 C 0.3175 0.50621 0.55704 0.0
C797 C 0.3223 0.50803 0.57433 0.0
C798 C 0.30199 0.54107 0.57936 0.0
N799 N 0.28483 0.56048 0.56634 0.0
Co800 Co 0.25153 0.60878 0.56844 0.0
N801 N 0.27092 0.61983 0.592 0.0
C802 C 0.29193 0.59475 0.60178 0.0
C803 C 0.30638 0.61194 0.61631 0.0
C804 C 0.29322 0.65006 0.61585 0.0
C805 C 0.27003 0.6538 0.6013 0.0
N806 N 0.21803 0.65691 0.57068 0.0
C807 C 0.21792 0.686 0.58271 0.0
C808 C 0.18599 0.71118 0.58029 0.0
C809 C 0.166 0.69778 0.56625 0.0
C810 C 0.18628 0.66495 0.56096 0.0
N811 N 0.23229 0.59764 0.54489 0.0
C812 C 0.19973 0.61325 0.53776 0.0
C813 C 0.19341 0.60032 0.52138 0.0
C814 C 0.22362 0.57452 0.51805 0.0
C815 C 0.24661 0.57287 0.53269 0.0
N816 N 0.20777 0.57678 0.57761 0.0
C817 C 0.13509 0.54032 0.58496 0.0
C818 C 0.16128 0.52378 0.57309 0.0
C819 C 0.1973 0.54233 0.56963 0.0
C820 C 0.14753 0.57385 0.59402 0.0
C821 C 0.18416 0.59121 0.59035 0.0
N822 N 0.29437 0.64102 0.55887 0.0
C823 C 0.31544 0.68986 0.53841 0.0
C824 C 0.35494 0.68553 0.54339 0.0
C825 C 0.36323 0.65847 0.55653 0.0
C826 C 0.33262 0.63654 0.56406 0.0
C827 C 0.28587 0.66771 0.54631 0.0
H828 H 0.33999 0.61574 0.57397 0.0
H829 H 0.25604 0.67182 0.54198 0.0
H830 H 0.21558 0.52984 0.55977 0.0
H831 H 0.19239 0.61748 0.59727 0.0
C832 C 0.30386 0.55812 0.5955 0.0
C833 C 0.27954 0.54497 0.53505 0.0
C834 C 0.24505 0.68853 0.59746 0.0
C835 C 0.17887 0.64333 0.54606 0.0
H836 H 0.32916 0.48329 0.54883 0.0
H837 H 0.33957 0.48829 0.58222 0.0
H838 H 0.32611 0.59901 0.62562 0.0
H839 H 0.30053 0.67239 0.62519 0.0
H840 H 0.17721 0.73607 0.58808 0.0
H841 H 0.13994 0.71063 0.56054 0.0
H842 H 0.17017 0.60925 0.51274 0.0
H843 H 0.22785 0.55833 0.50627 0.0
H844 H 0.15316 0.49784 0.56578 0.0
H845 H 0.12873 0.58713 0.60362 0.0
H846 H 0.30722 0.70957 0.52813 0.0
H847 H 0.3931 0.65425 0.56105 0.0
H848 H 0.23513 0.40106 0.29021 0.0
H849 H 0.11254 0.43525 0.28956 0.0
H850 H 0.12846 0.49251 0.27194 0.0
H851 H 0.17671 0.531 0.25504 0.0
H852 H 0.29885 0.49634 0.25522 0.0
H853 H 0.28382 0.4415 0.27459 0.0
C854 C 0.21191 0.42109 0.28625 0.0
C855 C 0.17266 0.41366 0.29129 0.0
C856 C 0.22125 0.45405 0.27599 0.0
C857 C 0.14308 0.44033 0.28613 0.0
C858 C 0.15211 0.47304 0.27592 0.0
C859 C 0.20001 0.5118 0.25963 0.0
C860 C 0.23889 0.51795 0.25398 0.0
C861 C 0.191 0.48001 0.27061 0.0
C862 C 0.26884 0.49251 0.25969 0.0
C863 C 0.26018 0.461 0.27064 0.0
H864 H 0.46204 0.76993 0.78614 0.0
H865 H 0.5556 0.81913 0.75571 0.0
H866 H 0.50708 0.84299 0.73476 0.0
H867 H 0.43739 0.85337 0.72625 0.0
H868 H 0.34529 0.81447 0.76077 0.0
H869 H 0.3936 0.78336 0.77866 0.0
C870 C 0.47179 0.78605 0.77494 0.0
C871 C 0.51223 0.79348 0.77264 0.0
C872 C 0.44375 0.80167 0.7636 0.0
C873 C 0.52455 0.81343 0.75785 0.0
C874 C 0.49677 0.82726 0.74594 0.0
C875 C 0.42751 0.83854 0.73772 0.0
C876 C 0.38666 0.83589 0.74149 0.0
C877 C 0.45607 0.82237 0.7489 0.0
C878 C 0.37562 0.81597 0.75662 0.0
C879 C 0.40355 0.79839 0.76722 0.0
H880 H 0.84644 0.50286 0.25298 0.0
H881 H 0.7244 0.5356 0.25842 0.0
H882 H 0.74266 0.58851 0.27833 0.0
H883 H 0.79391 0.62869 0.2923 0.0
H884 H 0.91635 0.59678 0.28639 0.0
H885 H 0.89751 0.53995 0.26891 0.0
C886 C 0.82395 0.52124 0.25881 0.0
C887 C 0.78417 0.51548 0.25438 0.0
C888 C 0.83479 0.5518 0.2701 0.0
C889 C 0.75513 0.53948 0.26181 0.0
C890 C 0.76562 0.56979 0.2731 0.0
C891 C 0.81647 0.60914 0.28729 0.0
C892 C 0.85655 0.61727 0.29059 0.0
C893 C 0.80543 0.57677 0.27705 0.0
C894 C 0.88531 0.59118 0.2842 0.0
C895 C 0.87456 0.55881 0.27407 0.0
H896 H 0.54501 0.28176 0.76845 0.0
H897 H 0.48041 0.1724 0.77052 0.0
H898 H 0.5293 0.14081 0.75186 0.0
H899 H 0.59407 0.14269 0.73741 0.0
H900 H 0.65923 0.25221 0.73597 0.0
H901 H 0.60679 0.28524 0.75184 0.0
C902 C 0.54116 0.25138 0.76434 0.0
C903 C 0.50887 0.22955 0.77051 0.0
C904 C 0.56994 0.23323 0.75398 0.0
C905 C 0.50468 0.18986 0.7656 0.0
C906 C 0.53283 0.17176 0.75509 0.0
C907 C 0.59648 0.17396 0.74027 0.0
C908 C 0.63096 0.1947 0.73563 0.0
C909 C 0.56613 0.19288 0.74953 0.0
C910 C 0.63352 0.2352 0.73964 0.0
C911 C 0.6034 0.25424 0.74866 0.0
H912 H 0.17876 0.99819 0.02047 0.0
H913 H 0.29969 0.03689 0.02124 0.0
H914 H 0.28333 0.09232 1.00242 0.0
H915 H 0.23353 0.13258 0.9874 0.0
H916 H 0.11218 0.0943 0.98701 0.0
H917 H 0.12969 0.03602 1.00374 0.0
C918 C 0.20157 0.01832 0.01614 0.0
C919 C 0.24048 1.01315 0.02194 0.0
C920 C 0.19175 0.05049 1.00551 0.0
C921 C 0.26973 0.03985 0.01661 0.0
C922 C 0.26028 0.07175 1.006 0.0
C923 C 0.21095 0.11141 0.99092 0.0
C924 C 0.17153 0.11805 0.98594 0.0
C925 C 0.22123 0.07785 1.00063 0.0
C926 C 0.14278 0.08991 0.99047 0.0
C927 C 0.15274 0.0566 1.00016 0.0
H928 H 0.09158 0.89289 0.0339 0.0
H929 H 0.14458 0.77968 0.04446 0.0
H930 H 0.09316 0.74651 0.02804 0.0
H931 H 0.03708 0.75002 1.00814 0.0
H932 H 0.98441 0.86272 0.99685 0.0
H933 H 0.03126 0.8957 0.01603 0.0
C934 C 0.0913 0.86092 0.0329 0.0
C935 C 0.12213 0.83886 0.04031 0.0
C936 C 0.06178 0.84193 0.02316 0.0
C937 C 0.12152 0.79742 0.03874 0.0
C938 C 0.0921 0.77839 0.02933 0.0
C939 C 0.03521 0.78163 1.01031 0.0
C940 C 1.00697 0.8039 1.00139 0.0
C941 C 0.06265 0.80036 0.02113 0.0
C942 C 1.00558 0.84501 1.00383 0.0
C943 C 0.03251 0.86384 0.01471 0.0
H944 H 0.79368 0.89411 0.98713 0.0
H945 H 0.91454 0.93392 0.98738 0.0
H946 H 0.8959 0.99163 1.00432 0.0
H947 H 0.84584 0.0286 0.02093 0.0
H948 H 0.72548 0.98809 0.0211 0.0
H949 H 0.7431 0.9331 1.00222 0.0
C950 C 0.81592 0.91548 0.99085 0.0
C951 C 0.8555 0.90951 0.98598 0.0
C952 C 0.80501 0.94859 1.0007 0.0
C953 C 0.88381 0.93787 0.99075 0.0
C954 C 0.87321 0.97081 1.00056 0.0
C955 C 0.82348 1.00809 0.0165 0.0
C956 C 0.78434 1.01262 0.0221 0.0
C957 C 0.83401 0.97624 1.00581 0.0
C958 C 0.75562 0.98553 0.01663 0.0
C959 C 0.76578 0.95394 1.00597 0.0
H960 H 0.89091 0.23385 0.03401 0.0
H961 H 0.92896 0.11219 0.03451 0.0
H962 H 0.98728 0.12961 0.01782 0.0
H963 H 0.02559 0.17884 1.00135 0.0
H964 H 0.98717 0.30008 1.00052 0.0
H965 H 0.9312 0.28365 0.01901 0.0
C966 C 0.91201 0.21117 0.0305 0.0
C967 C 0.90537 0.17172 0.03552 0.0
C968 C 0.94557 0.2214 0.02083 0.0
C969 C 0.93339 0.14284 0.03101 0.0
C970 C 0.96671 0.15274 0.02136 0.0
C971 C 1.00531 0.20166 1.00556 0.0
C972 C 1.01071 0.2407 0.99988 0.0
C973 C 0.97292 0.19182 0.01602 0.0
C974 C 0.98391 0.27001 1.00505 0.0
C975 C 0.95177 0.26053 0.01549 0.0
H976 H 0.64297 0.93343 0.7861 0.0
H977 H 0.75203 0.86774 0.78712 0.0
H978 H 0.78456 0.91963 0.7707 0.0
H979 H 0.78089 0.9814 0.754 0.0
H980 H 0.67196 0.04651 0.75237 0.0
H981 H 0.64075 0.99782 0.77125 0.0
C982 C 0.67403 0.93077 0.78301 0.0
C983 C 0.6948 0.89634 0.78774 0.0
C984 C 0.69265 0.96079 0.77342 0.0
C985 C 0.73501 0.89343 0.78341 0.0
C986 C 0.75376 0.92324 0.77407 0.0
C987 C 0.75066 0.98534 0.7582 0.0
C988 C 0.72886 0.01778 0.75213 0.0
C989 C 0.73275 0.95672 0.76873 0.0
C990 C 0.68939 0.02211 0.75719 0.0
C991 C 0.67151 0.9941 0.76785 0.0
H992 H 0.03219 0.35644 0.2734 0.0
H993 H 1.00102 0.23318 0.27103 0.0
H994 H 0.94763 0.24812 0.25102 0.0
H995 H 0.90629 0.29693 0.23616 0.0
H996 H 0.93509 0.42091 0.23993 0.0
H997 H 0.99296 0.40507 0.25709 0.0
C998 C 1.01421 0.33288 0.26813 0.0
C999 C 0.02089 0.29372 0.27338 0.0
C1000 C 0.98282 0.34189 0.25701 0.0
C1001 C 0.99693 0.26342 0.26684 0.0
C1002 C 0.96615 0.27203 0.25556 0.0
C1003 C 0.92523 0.32053 0.24069 0.0
C1004 C 0.916 0.36012 0.23674 0.0
C1005 C 0.95822 0.31127 0.25086 0.0
C1006 C 0.94148 0.39014 0.24254 0.0
C1007 C 0.97453 0.38114 0.2525 0.0
H1008 H 0.24563 0.04662 0.75464 0.0
H1009 H 0.35404 0.98075 0.75226 0.0
H1010 H 0.38615 0.02913 0.77101 0.0
H1011 H 0.38507 0.09389 0.78567 0.0
H1012 H 0.27633 0.16003 0.78761 0.0
H1013 H 0.24286 0.10818 0.77156 0.0
C1014 C 0.27591 0.04234 0.7587 0.0
C1015 C 0.29729 1.00982 0.75239 0.0
C1016 C 0.29437 0.07082 0.76915 0.0
C1017 C 0.33687 1.00517 0.75726 0.0
C1018 C 0.35529 0.03304 0.76784 0.0
C1019 C 0.35388 0.09666 0.78288 0.0
C1020 C 0.33355 0.13133 0.78771 0.0
C1021 C 0.33462 0.06656 0.77354 0.0
C1022 C 0.2931 0.13426 0.78379 0.0
C1023 C 0.27378 0.10444 0.77466 0.0
H1024 H 1.0011 0.68895 0.27065 0.0
H1025 H 0.03991 0.81004 0.2695 0.0
H1026 H 0.09394 0.79222 0.25012 0.0
H1027 H 0.1331 0.74113 0.2353 0.0
H1028 H 0.09445 0.61969 0.23668 0.0
H1029 H 0.03726 0.63861 0.25383 0.0
C1030 C 0.02102 0.71142 0.26584 0.0
C1031 C 0.01657 0.75077 0.27135 0.0
C1032 C 0.05219 0.7008 0.25482 0.0
C1033 C 0.04267 0.77969 0.26525 0.0
C1034 C 0.07366 0.76942 0.25428 0.0
C1035 C 0.11203 0.71883 0.23925 0.0
C1036 C 0.11834 0.67894 0.23472 0.0
C1037 C 0.07922 0.72992 0.24925 0.0
C1038 C 0.09031 0.65061 0.2398 0.0
C1039 C 0.05767 0.66138 0.24974 0.0
H1040 H 0.78098 0.54197 0.51808 0.0
H1041 H 0.67185 0.48026 0.52689 0.0
H1042 H 0.63782 0.52419 0.50682 0.0
H1043 H 0.63826 0.58321 0.48844 0.0
H1044 H 0.74714 0.64699 0.4808 0.0
H1045 H 0.78222 0.59875 0.49821 0.0
C1046 C 0.74997 0.53771 0.51523 0.0
C1047 C 0.72893 0.50768 0.52368 0.0
C1048 C 0.73053 0.56357 0.50392 0.0
C1049 C 0.68859 0.50289 0.52031 0.0
C1050 C 0.66916 0.52813 0.50892 0.0
C1051 C 0.66969 0.58659 0.49053 0.0
C1052 C 0.6898 0.61907 0.4833 0.0
C1053 C 0.68966 0.55911 0.50092 0.0
C1054 C 0.73075 0.62224 0.48595 0.0
C1055 C 0.75088 0.59479 0.49608 0.0
H1056 H 0.63748 0.29692 0.53989 0.0
H1057 H 0.60073 0.41899 0.53995 0.0
H1058 H 0.5426 0.40194 0.5231 0.0
H1059 H 0.5049 0.35315 0.50618 0.0
H1060 H 0.54239 0.23161 0.50551 0.0
H1061 H 0.59706 0.24735 0.52478 0.0
C1062 C 0.61663 0.31974 0.53629 0.0
C1063 C 0.62364 0.35921 0.54119 0.0
C1064 C 0.58322 0.30975 0.52648 0.0
C1065 C 0.59599 0.38832 0.53655 0.0
C1066 C 0.56278 0.37863 0.52681 0.0
C1067 C 0.52453 0.33007 0.51066 0.0
C1068 C 0.51935 0.29119 0.50472 0.0
C1069 C 0.55638 0.33957 0.52147 0.0
C1070 C 0.5454 0.26156 0.51023 0.0
C1071 C 0.57688 0.27067 0.52109 0.0
H1072 H 0.34945 0.53343 0.51861 0.0
H1073 H 0.23166 0.48687 0.52271 0.0
H1074 H 0.24945 0.43132 0.50417 0.0
H1075 H 0.29976 0.39365 0.48825 0.0
H1076 H 0.41873 0.43869 0.48548 0.0
H1077 H 0.39922 0.49696 0.50172 0.0
C1078 C 0.32758 0.51148 0.51512 0.0
C1079 C 0.28909 0.51464 0.52172 0.0
C1080 C 0.33835 0.47904 0.50478 0.0
C1081 C 0.26119 0.48555 0.51745 0.0
C1082 C 0.2715 0.45357 0.507 0.0
C1083 C 0.32149 0.41615 0.49119 0.0
C1084 C 0.36076 0.41142 0.48553 0.0
C1085 C 0.3102 0.44959 0.50082 0.0
C1086 C 0.38818 0.44146 0.48934 0.0
C1087 C 0.37712 0.47483 0.49879 0.0
H1088 H 0.46434 0.79661 0.49823 0.0
H1089 H 0.54366 0.69819 0.50406 0.0
H1090 H 0.49649 0.66507 0.52286 0.0
H1091 H 0.4304 0.66165 0.53571 0.0
H1092 H 0.35181 0.76146 0.53094 0.0
H1093 H 0.40057 0.7961 0.51369 0.0
C1094 C 0.47142 0.76828 0.50393 0.0
C1095 C 0.50734 0.74984 0.49983 0.0
C1096 C 0.444 0.74931 0.51472 0.0
C1097 C 0.51622 0.71297 0.50711 0.0
C1098 C 0.48917 0.69395 0.51779 0.0
C1099 C 0.42409 0.69128 0.53123 0.0
C1100 C 0.38687 0.70835 0.53448 0.0
C1101 C 0.4526 0.71147 0.52144 0.0
C1102 C 0.37955 0.74683 0.52833 0.0
C1103 C 0.40763 0.76694 0.51852 0.0
H1104 H 0.27889 0.257 0.42453 0.0
H1105 H 0.37359 0.23885 0.38858 0.0
H1106 H 0.32754 0.24551 0.36491 0.0
H1107 H 0.25962 0.25847 0.3544 0.0
H1108 H 0.1644 0.24131 0.39018 0.0
H1109 H 0.21054 0.24627 0.4139 0.0
C1110 C 0.28959 0.2537 0.41157 0.0
C1111 C 0.33054 0.25079 0.4085 0.0
C1112 C 0.26232 0.25175 0.39795 0.0
C1113 C 0.34296 0.24481 0.39149 0.0
C1114 C 0.31644 0.24775 0.37785 0.0
C1115 C 0.24878 0.255 0.36733 0.0
C1116 C 0.20777 0.25278 0.37034 0.0
C1117 C 0.27595 0.25188 0.38093 0.0
C1118 C 0.19515 0.24675 0.38732 0.0
C1119 C 0.22171 0.24863 0.40098 0.0
H1120 H 0.23523 0.68727 0.63257 0.0
H1121 H 0.24666 0.76774 0.59017 0.0
H1122 H 0.24075 0.82387 0.60975 0.0
H1123 H 0.23399 0.84987 0.63913 0.0
H1124 H 0.24713 0.76951 0.68148 0.0
H1125 H 0.24189 0.71335 0.6619 0.0
C1126 C 0.23813 0.71697 0.62756 0.0
C1127 C 0.24222 0.72289 0.60978 0.0
C1128 C 0.23896 0.74912 0.63902 0.0
C1129 C 0.2435 0.76201 0.6037 0.0
C1130 C 0.24037 0.79418 0.61492 0.0
C1131 C 0.23753 0.82024 0.64412 0.0
C1132 C 0.24184 0.81434 0.6619 0.0
C1133 C 0.23865 0.7881 0.63265 0.0
C1134 C 0.24381 0.77523 0.66795 0.0
C1135 C 0.24102 0.74304 0.65673 0.0
H1136 H 0.71845 0.73777 0.40526 0.0
H1137 H 0.71173 0.86388 0.412 0.0
H1138 H 0.76198 0.87333 0.38976 0.0
H1139 H 0.8082 0.84519 0.36824 0.0
H1140 H 0.81179 0.7191 0.36079 0.0
H1141 H 0.76208 0.71002 0.38314 0.0
C1142 C 0.72781 0.76732 0.40173 0.0
C1143 C 0.71116 0.80015 0.41013 0.0
C1144 C 0.75598 0.77245 0.38869 0.0
C1145 C 0.724 0.83823 0.40565 0.0
C1146 C 0.75263 0.84358 0.39291 0.0
C1147 C 0.79761 0.81585 0.37141 0.0
C1148 C 0.81341 0.78281 0.36283 0.0
C1149 C 0.76876 0.81091 0.38427 0.0
C1150 C 0.79987 0.74489 0.36717 0.0
C1151 C 0.77159 0.73972 0.37998 0.0
H1152 H 0.78832 0.18552 0.64114 0.0
H1153 H 0.77787 0.26345 0.68457 0.0
H1154 H 0.78442 0.32054 0.66561 0.0
H1155 H 0.79323 0.34766 0.63647 0.0
H1156 H 0.77173 0.27052 0.59354 0.0
H1157 H 0.77706 0.21318 0.61237 0.0
C1158 C 0.78498 0.21474 0.64659 0.0
C1159 C 0.78183 0.21956 0.66447 0.0
C1160 C 0.78335 0.24753 0.63553 0.0
C1161 C 0.78065 0.25839 0.67097 0.0
C1162 C 0.78405 0.29116 0.6601 0.0
C1163 C 0.78711 0.31875 0.63118 0.0
C1164 C 0.78138 0.31408 0.6134 0.0
C1165 C 0.78504 0.28607 0.64231 0.0
C1166 C 0.77659 0.27542 0.60704 0.0
C1167 C 0.77938 0.24253 0.61783 0.0
H1168 H 0.18606 0.28916 0.89011 0.0
H1169 H 0.26641 0.26682 0.93174 0.0
H1170 H 0.3222 0.27448 0.91223 0.0
H1171 H 0.34762 0.28754 0.8832 0.0
H1172 H 0.267 0.2778 0.84078 0.0
H1173 H 0.2113 0.28291 0.86054 0.0
C1174 C 0.21546 0.28376 0.89495 0.0
C1175 C 0.22146 0.2771 0.9126 0.0
C1176 C 0.2473 0.28296 0.88337 0.0
C1177 C 0.26052 0.27259 0.91839 0.0
C1178 C 0.29252 0.27667 0.90719 0.0
C1179 C 0.31813 0.28414 0.87813 0.0
C1180 C 0.31212 0.28148 0.8603 0.0
C1181 C 0.28623 0.28157 0.88961 0.0
C1182 C 0.27296 0.2802 0.85432 0.0
C1183 C 0.241 0.28274 0.86565 0.0
H1184 H 0.22334 0.72103 0.1572 0.0
H1185 H 0.34969 0.71526 0.16234 0.0
H1186 H 0.35753 0.76283 0.13908 0.0
H1187 H 0.32834 0.80705 0.11736 0.0
H1188 H 0.20239 0.80835 0.11038 0.0
H1189 H 0.19438 0.7615 0.134 0.0
C1190 C 0.25252 0.73047 0.15326 0.0
C1191 C 0.28582 0.71567 0.16192 0.0
C1192 C 0.25687 0.75665 0.13934 0.0
C1193 C 0.32353 0.72728 0.15634 0.0
C1194 C 0.32805 0.75414 0.14289 0.0
C1195 C 0.29926 0.79625 0.12074 0.0
C1196 C 0.26601 0.81055 0.11191 0.0
C1197 C 0.29495 0.76905 0.13427 0.0
C1198 C 0.22841 0.79725 0.11681 0.0
C1199 C 0.22384 0.7707 0.13039 0.0
H1200 H 0.84462 0.73807 0.89008 0.0
H1201 H 0.76499 0.76027 0.93204 0.0
H1202 H 0.70887 0.75258 0.91275 0.0
H1203 H 0.68288 0.73979 0.88384 0.0
H1204 H 0.76263 0.74902 0.84107 0.0
H1205 H 0.81876 0.7439 0.8606 0.0
C1206 C 0.81532 0.74352 0.89504 0.0
C1207 C 0.80962 0.75025 0.9127 0.0
C1208 C 0.78323 0.74413 0.88358 0.0
C1209 C 0.77065 0.7546 0.91865 0.0
C1210 C 0.73846 0.75044 0.90759 0.0
C1211 C 0.71231 0.74295 0.87865 0.0
C1212 C 0.71794 0.74566 0.8608 0.0
C1213 C 0.74443 0.7455 0.88999 0.0
C1214 C 0.75697 0.74668 0.85463 0.0
C1215 C 0.78916 0.74414 0.86583 0.0
H1216 H 0.74036 0.18638 0.13222 0.0
H1217 H 0.75665 0.26842 0.09061 0.0
H1218 H 0.74884 0.32364 0.11053 0.0
H1219 H 0.73765 0.34799 0.1401 0.0
H1220 H 0.75742 0.26588 0.18144 0.0
H1221 H 0.75142 0.21079 0.16153 0.0
C1222 C 0.74466 0.21602 0.12738 0.0
C1223 C 0.74936 0.22256 0.10967 0.0
C1224 C 0.74605 0.24761 0.13908 0.0
C1225 C 0.75224 0.26201 0.10401 0.0
C1226 C 0.74816 0.29371 0.11544 0.0
C1227 C 0.74258 0.31833 0.14484 0.0
C1228 C 0.7472 0.31171 0.16256 0.0
C1229 C 0.74527 0.28683 0.13307 0.0
C1230 C 0.75212 0.27237 0.16811 0.0
C1231 C 0.74929 0.24069 0.15667 0.0
H1232 H 0.94075 0.97893 0.33347 0.0
H1233 H 0.05569 0.925 0.33701 0.0
H1234 H 0.08608 0.99032 0.33981 0.0
H1235 H 0.08043 0.06345 0.33895 0.0
H1236 H 0.96509 0.11641 0.33486 0.0
H1237 H 0.93469 0.05109 0.33444 0.0
C1238 C 0.97248 0.98138 0.33485 0.0
C1239 C 0.99583 0.94691 0.33485 0.0
C1240 C 0.98981 0.01907 0.33624 0.0
C1241 C 0.03685 0.95085 0.33704 0.0
C1242 C 0.05432 0.9883 0.33853 0.0
C1243 C 0.04861 0.06067 0.33827 0.0
C1244 C 0.02517 0.09495 0.33677 0.0
C1245 C 0.03117 0.02272 0.33787 0.0
C1246 C 0.98394 0.09065 0.33576 0.0
C1247 C 0.96648 0.05325 0.33556 0.0
H1248 H 0.96691 0.08436 0.68873 0.0
H1249 H 0.9224 0.96495 0.6883 0.0
H1250 H 0.98975 0.93931 0.68701 0.0
H1251 H 0.06168 0.95058 0.68737 0.0
H1252 H 0.10624 0.06992 0.68869 0.0
H1253 H 0.03885 0.09566 0.68818 0.0
C1254 C 0.97191 0.05273 0.68811 0.0
C1255 C 0.93943 0.02668 0.68861 0.0
C1256 C 1.01091 0.03811 0.68761 0.0
C1257 C 0.94669 0.98574 0.68808 0.0
C1258 C 0.98528 0.97103 0.6873 0.0
C1259 C 0.05667 0.98224 0.68728 0.0
C1260 C 0.08918 1.00823 0.68805 0.0
C1261 C 0.01768 0.99689 0.68725 0.0
C1262 C 0.08193 0.04918 0.68823 0.0
C1263 C 0.04333 0.06395 0.68791 0.0
H1264 H 0.9859 0.43885 0.9398 0.0
H1265 H 0.11024 0.46571 0.94003 0.0
H1266 H 0.09554 0.53641 0.93998 0.0
H1267 H 0.04721 0.59111 0.94082 0.0
H1268 H 0.92292 0.56402 0.94015 0.0
H1269 H 0.93771 0.49342 0.93942 0.0
C1270 C 1.00978 0.46018 0.93982 0.0
C1271 C 0.04914 0.4468 0.93992 0.0
C1272 C 1.00111 0.50097 0.93975 0.0
C1273 C 0.07968 0.475 0.93975 0.0
C1274 C 0.07129 0.51554 0.93984 0.0
C1275 C 0.0234 0.56973 0.9405 0.0
C1276 C 0.98399 0.58302 0.94052 0.0
C1277 C 0.03211 0.52893 0.93998 0.0
C1278 C 0.95351 0.55479 0.93993 0.0
C1279 C 0.96194 0.51431 0.93961 0.0
H1280 H 0.43515 0.0458 0.08416 0.0
H1281 H 0.46299 0.92141 0.08453 0.0
H1282 H 0.53336 0.93672 0.08495 0.0
H1283 H 0.58748 0.98544 0.08412 0.0
H1284 H 0.55977 0.10985 0.08411 0.0
H1285 H 0.48936 0.09459 0.08473 0.0
C1286 C 0.45663 0.02206 0.08437 0.0
C1287 C 0.4436 0.98248 0.08432 0.0
C1288 C 0.49727 0.03108 0.08466 0.0
C1289 C 0.47198 0.95213 0.08477 0.0
C1290 C 0.51234 0.96086 0.08489 0.0
C1291 C 0.56603 1.00921 0.08429 0.0
C1292 C 0.57909 0.04877 0.08405 0.0
C1293 C 0.52539 1.00022 0.08469 0.0
C1294 C 0.55074 0.07915 0.08448 0.0
C1295 C 0.51036 0.07045 0.08472 0.0
H1296 H 0.44645 0.46822 0.83514 0.0
H1297 H 0.56513 0.42247 0.83383 0.0
H1298 H 0.59145 0.48968 0.83501 0.0
H1299 H 0.58097 0.56195 0.83509 0.0
H1300 H 0.46229 0.60775 0.83566 0.0
H1301 H 0.436 0.54047 0.83618 0.0
C1302 C 0.47808 0.4729 0.83536 0.0
C1303 C 0.50368 0.44005 0.83438 0.0
C1304 C 0.49312 0.51187 0.83581 0.0
C1305 C 0.54463 0.44699 0.83441 0.0
C1306 C 0.55975 0.48552 0.83513 0.0
C1307 C 0.54936 0.55725 0.83558 0.0
C1308 C 0.52373 0.59014 0.83533 0.0
C1309 C 0.53432 0.51827 0.83564 0.0
C1310 C 0.48279 0.58321 0.83569 0.0
C1311 C 0.46769 0.54463 0.83602 0.0
H1312 H 0.55549 0.44264 0.19406 0.0
H1313 H 0.61112 0.55619 0.18757 0.0
H1314 H 0.54623 0.58804 0.1863 0.0
H1315 H 0.47345 0.58408 0.1895 0.0
H1316 H 0.41892 0.46964 0.19567 0.0
H1317 H 0.48336 0.438 0.19479 0.0
C1318 C 0.55345 0.47436 0.19227 0.0
C1319 C 0.58824 0.49699 0.19108 0.0
C1320 C 0.51609 0.49247 0.1917 0.0
C1321 C 0.58493 0.53798 0.18846 0.0
C1322 C 0.54776 0.55626 0.18785 0.0
C1323 C 0.47558 0.55218 0.19037 0.0
C1324 C 0.44109 0.52949 0.19297 0.0
C1325 C 0.51307 0.53389 0.18979 0.0
C1326 C 0.44476 0.48811 0.1941 0.0
C1327 C 0.4817 0.46986 0.1935 0.0
H1328 H 0.45779 0.06074 0.43955 0.0
H1329 H 0.57376 0.11211 0.44418 0.0
H1330 H 0.60328 0.04637 0.44432 0.0
H1331 H 0.59639 0.97408 0.44439 0.0
H1332 H 0.48063 0.92202 0.44026 0.0
H1333 H 0.4512 0.9878 0.43828 0.0
C1334 C 0.48956 0.05757 0.44032 0.0
C1335 C 0.51339 0.09158 0.442 0.0
C1336 C 0.50653 0.01936 0.44052 0.0
C1337 C 0.55454 0.08664 0.44314 0.0
C1338 C 0.57153 0.04896 0.44318 0.0
C1339 C 0.56469 0.97701 0.44311 0.0
C1340 C 0.54091 0.94278 0.44257 0.0
C1341 C 0.54782 1.01506 0.44217 0.0
C1342 C 0.4999 0.94753 0.44055 0.0
C1343 C 0.48293 0.98529 0.43954 0.0
H1344 H 0.97381 0.4452 0.58683 0.0
H1345 H 0.92695 0.56366 0.58544 0.0
H1346 H 0.99368 0.59077 0.58677 0.0
H1347 H 0.06567 0.58099 0.58672 0.0
H1348 H 0.1128 0.46262 0.58735 0.0
H1349 H 0.04596 0.43546 0.58803 0.0
C1350 C 0.97818 0.47695 0.58707 0.0
C1351 C 0.94526 0.50231 0.58599 0.0
C1352 C 0.01682 0.49242 0.58761 0.0
C1353 C 0.95164 0.54341 0.58608 0.0
C1354 C 0.98985 0.55897 0.58688 0.0
C1355 C 0.06135 0.54926 0.5873 0.0
C1356 C 0.09437 0.52394 0.587 0.0
C1357 C 0.02272 0.53379 0.58743 0.0
C1358 C 0.08804 0.48284 0.58744 0.0
C1359 C 0.04976 0.46726 0.58785 0.0
loop_
_geom_bond_atom_site_label_1
_geom_bond_atom_site_label_2
_geom_bond_distance
_geom_bond_site_symmetry_2
_ccdc_geom_bond_type
C0 C1 1.443 . S
C0 N4 1.376 . S
C0 C38 1.389 . S
C1 C0 1.443 . S
C1 C2 1.340 . S
C1 H41 0.951 . S
C2 C1 1.340 . S
C2 C3 1.439 . S
C2 H42 0.950 . S
C3 C2 1.439 . S
C3 N4 1.374 . S
C3 C37 1.395 . S
N4 C0 1.376 . S
N4 C3 1.374 . S
N4 Co5 2.008 . S
Co5 N4 2.008 . S
Co5 N6 1.995 . S
Co5 N11 2.008 . S
Co5 N16 1.995 . S
Co5 N21 2.282 . S
Co5 N27 2.282 . S
N6 Co5 1.995 . S
N6 C7 1.376 . S
N6 C10 1.383 . S
C7 N6 1.376 . S
C7 C8 1.446 . S
C7 C37 1.391 . S
C8 C7 1.446 . S
C8 C9 1.339 . S
C8 H43 0.949 . S
C9 C8 1.339 . S
C9 C10 1.439 . S
C9 H44 0.950 . S
C10 N6 1.383 . S
C10 C9 1.439 . S
C10 C39 1.392 . S
N11 Co5 2.008 . S
N11 C12 1.376 . S
N11 C15 1.374 . S
C12 N11 1.376 . S
C12 C13 1.443 1_455 S
C12 C39 1.389 . S
C13 C12 1.443 1_655 S
C13 C14 1.340 . S
C13 H45 0.951 . S
C14 C13 1.340 . S
C14 C15 1.439 1_655 S
C14 H46 0.950 . S
C15 N11 1.374 . S
C15 C14 1.439 1_455 S
C15 C40 1.395 . S
N16 Co5 1.995 . S
N16 C17 1.376 . S
N16 C20 1.383 . S
C17 N16 1.376 . S
C17 C18 1.446 . S
C17 C40 1.391 . S
C18 C17 1.446 . S
C18 C19 1.339 . S
C18 H47 0.949 . S
C19 C18 1.339 . S
C19 C20 1.439 . S
C19 H48 0.950 . S
C20 N16 1.383 . S
C20 C19 1.439 . S
C20 C38 1.392 . S
N21 Co5 2.282 . S
N21 C24 1.332 . S
N21 C26 1.332 . S
C22 C23 1.386 . S
C22 C25 1.388 . S
C23 C22 1.386 . S
C23 C24 1.382 . S
C23 H49 0.950 . S
C24 N21 1.332 . S
C24 C23 1.382 . S
C24 H35 0.952 . S
C25 C22 1.388 . S
C25 C26 1.382 . S
C25 H50 0.950 . S
C26 N21 1.332 . S
C26 C25 1.382 . S
C26 H36 0.948 . S
N27 Co5 2.282 . S
N27 C31 1.332 . S
N27 C32 1.332 . S
C28 C29 1.388 . S
C28 C32 1.382 . S
C28 H51 0.950 . S
C29 C28 1.388 . S
C29 C30 1.386 . S
C30 C29 1.386 . S
C30 C31 1.382 . S
C30 H52 0.950 . S
C31 N27 1.332 . S
C31 C30 1.382 . S
C31 H33 0.952 . S
C32 N27 1.332 . S
C32 C28 1.382 . S
C32 H34 0.948 . S
H33 C31 0.952 . S
H34 C32 0.948 . S
H35 C24 0.952 . S
H36 C26 0.948 . S
C37 C3 1.395 . S
C37 C7 1.391 . S
C38 C0 1.389 . S
C38 C20 1.392 . S
C39 C10 1.392 . S
C39 C12 1.389 . S
C40 C15 1.395 . S
C40 C17 1.391 . S
H41 C1 0.951 . S
H42 C2 0.950 . S
H43 C8 0.949 . S
H44 C9 0.950 . S
H45 C13 0.951 . S
H46 C14 0.950 . S
H47 C18 0.949 . S
H48 C19 0.950 . S
H49 C23 0.950 . S
H50 C25 0.950 . S
H51 C28 0.950 . S
H52 C30 0.950 . S
C53 C54 1.443 1_565 S
C53 N57 1.376 . S
C53 C91 1.389 . S
C54 C53 1.443 1_545 S
C54 C55 1.340 . S
C54 H94 0.951 . S
C55 C54 1.340 . S
C55 C56 1.439 1_545 S
C55 H95 0.950 . S
C56 C55 1.439 1_565 S
C56 N57 1.374 . S
C56 C90 1.395 . S
N57 C53 1.376 . S
N57 C56 1.374 . S
N57 Co58 2.008 . S
Co58 N57 2.008 . S
Co58 N59 1.995 . S
Co58 N64 2.008 . S
Co58 N69 1.995 . S
Co58 N74 2.282 . S
Co58 N80 2.282 . S
N59 Co58 1.995 . S
N59 C60 1.376 . S
N59 C63 1.383 . S
C60 N59 1.376 . S
C60 C61 1.446 . S
C60 C90 1.391 . S
C61 C60 1.446 . S
C61 C62 1.339 . S
C61 H96 0.949 . S
C62 C61 1.339 . S
C62 C63 1.439 . S
C62 H97 0.950 . S
C63 N59 1.383 . S
C63 C62 1.439 . S
C63 C92 1.392 . S
N64 Co58 2.008 . S
N64 C65 1.376 . S
N64 C68 1.374 . S
C65 N64 1.376 . S
C65 C66 1.443 . S
C65 C92 1.389 . S
C66 C65 1.443 . S
C66 C67 1.340 . S
C66 H98 0.951 . S
C67 C66 1.340 . S
C67 C68 1.439 . S
C67 H99 0.950 . S
C68 N64 1.374 . S
C68 C67 1.439 . S
C68 C93 1.395 . S
N69 Co58 1.995 . S
N69 C70 1.376 . S
N69 C73 1.383 . S
C70 N69 1.376 . S
C70 C71 1.446 . S
C70 C93 1.391 . S
C71 C70 1.446 . S
C71 C72 1.339 . S
C71 H100 0.949 . S
C72 C71 1.339 . S
C72 C73 1.439 . S
C72 H101 0.950 . S
C73 N69 1.383 . S
C73 C72 1.439 . S
C73 C91 1.392 . S
N74 Co58 2.282 . S
N74 C77 1.332 . S
N74 C79 1.332 . S
C75 C76 1.386 . S
C75 C78 1.388 . S
C76 C75 1.386 . S
C76 C77 1.382 . S
C76 H102 0.950 . S
C77 N74 1.332 . S
C77 C76 1.382 . S
C77 H88 0.952 . S
C78 C75 1.388 . S
C78 C79 1.382 . S
C78 H103 0.950 . S
C79 N74 1.332 . S
C79 C78 1.382 . S
C79 H89 0.948 . S
N80 Co58 2.282 . S
N80 C84 1.332 . S
N80 C85 1.332 . S
C81 C82 1.388 . S
C81 C85 1.382 . S
C81 H104 0.950 . S
C82 C81 1.388 . S
C82 C83 1.386 . S
C83 C82 1.386 . S
C83 C84 1.382 . S
C83 H105 0.950 . S
C84 N80 1.332 . S
C84 C83 1.382 . S
C84 H86 0.952 . S
C85 N80 1.332 . S
C85 C81 1.382 . S
C85 H87 0.948 . S
H86 C84 0.952 . S
H87 C85 0.948 . S
H88 C77 0.952 . S
H89 C79 0.948 . S
C90 C56 1.395 . S
C90 C60 1.391 . S
C91 C53 1.389 . S
C91 C73 1.392 . S
C92 C63 1.392 . S
C92 C65 1.389 . S
C93 C68 1.395 . S
C93 C70 1.391 . S
H94 C54 0.951 . S
H95 C55 0.950 . S
H96 C61 0.949 . S
H97 C62 0.950 . S
H98 C66 0.951 . S
H99 C67 0.950 . S
H100 C71 0.949 . S
H101 C72 0.950 . S
H102 C76 0.950 . S
H103 C78 0.950 . S
H104 C81 0.950 . S
H105 C83 0.950 . S
C106 C107 1.443 . S
C106 N110 1.376 . S
C106 C144 1.389 . S
C107 C106 1.443 . S
C107 C108 1.340 . S
C107 H147 0.951 . S
C108 C107 1.340 . S
C108 C109 1.439 . S
C108 H148 0.950 . S
C109 C108 1.439 . S
C109 N110 1.374 . S
C109 C143 1.395 . S
N110 C106 1.376 . S
N110 C109 1.374 . S
N110 Co111 2.008 . S
Co111 N110 2.008 . S
Co111 N112 1.995 . S
Co111 N117 2.008 . S
Co111 N122 1.995 . S
Co111 N127 2.282 . S
Co111 N133 2.282 . S
N112 Co111 1.995 . S
N112 C113 1.376 . S
N112 C116 1.383 . S
C113 N112 1.376 . S
C113 C114 1.446 . S
C113 C143 1.391 . S
C114 C113 1.446 . S
C114 C115 1.339 . S
C114 H149 0.949 . S
C115 C114 1.339 . S
C115 C116 1.439 . S
C115 H150 0.950 . S
C116 N112 1.383 . S
C116 C115 1.439 . S
C116 C145 1.392 . S
N117 Co111 2.008 . S
N117 C118 1.376 . S
N117 C121 1.374 . S
C118 N117 1.376 . S
C118 C119 1.443 1_655 S
C118 C145 1.389 . S
C119 C118 1.443 1_455 S
C119 C120 1.340 . S
C119 H151 0.951 . S
C120 C119 1.340 . S
C120 C121 1.439 1_455 S
C120 H152 0.950 . S
C121 N117 1.374 . S
C121 C120 1.439 1_655 S
C121 C146 1.395 . S
N122 Co111 1.995 . S
N122 C123 1.376 . S
N122 C126 1.383 . S
C123 N122 1.376 . S
C123 C124 1.446 . S
C123 C146 1.391 . S
C124 C123 1.446 . S
C124 C125 1.339 . S
C124 H153 0.949 . S
C125 C124 1.339 . S
C125 C126 1.439 . S
C125 H154 0.950 . S
C126 N122 1.383 . S
C126 C125 1.439 . S
C126 C144 1.392 . S
N127 Co111 2.282 . S
N127 C130 1.332 . S
N127 C132 1.332 . S
C128 C129 1.386 . S
C128 C131 1.388 . S
C129 C128 1.386 . S
C129 C130 1.382 . S
C129 H155 0.950 . S
C130 N127 1.332 . S
C130 C129 1.382 . S
C130 H141 0.952 . S
C131 C128 1.388 . S
C131 C132 1.382 . S
C131 H156 0.950 . S
C132 N127 1.332 . S
C132 C131 1.382 . S
C132 H142 0.948 . S
N133 Co111 2.282 . S
N133 C137 1.332 . S
N133 C138 1.332 . S
C134 C135 1.388 . S
C134 C138 1.382 . S
C134 H157 0.950 . S
C135 C134 1.388 . S
C135 C136 1.386 . S
C136 C135 1.386 . S
C136 C137 1.382 . S
C136 H158 0.950 . S
C137 N133 1.332 . S
C137 C136 1.382 . S
C137 H139 0.952 . S
C138 N133 1.332 . S
C138 C134 1.382 . S
C138 H140 0.948 . S
H139 C137 0.952 . S
H140 C138 0.948 . S
H141 C130 0.952 . S
H142 C132 0.948 . S
C143 C109 1.395 . S
C143 C113 1.391 . S
C144 C106 1.389 . S
C144 C126 1.392 . S
C145 C116 1.392 . S
C145 C118 1.389 . S
C146 C121 1.395 . S
C146 C123 1.391 . S
H147 C107 0.951 . S
H148 C108 0.950 . S
H149 C114 0.949 . S
H150 C115 0.950 . S
H151 C119 0.951 . S
H152 C120 0.950 . S
H153 C124 0.949 . S
H154 C125 0.950 . S
H155 C129 0.950 . S
H156 C131 0.950 . S
H157 C134 0.950 . S
H158 C136 0.950 . S
C159 C160 1.443 1_545 S
C159 N163 1.376 . S
C159 C197 1.389 . S
C160 C159 1.443 1_565 S
C160 C161 1.340 . S
C160 H200 0.951 . S
C161 C160 1.340 . S
C161 C162 1.439 1_565 S
C161 H201 0.950 . S
C162 C161 1.439 1_545 S
C162 N163 1.374 . S
C162 C196 1.395 . S
N163 C159 1.376 . S
N163 C162 1.374 . S
N163 Co164 2.008 . S
Co164 N163 2.008 . S
Co164 N165 1.995 . S
Co164 N170 2.008 . S
Co164 N175 1.995 . S
Co164 N180 2.282 . S
Co164 N186 2.282 . S
N165 Co164 1.995 . S
N165 C166 1.376 . S
N165 C169 1.383 . S
C166 N165 1.376 . S
C166 C167 1.446 . S
C166 C196 1.391 . S
C167 C166 1.446 . S
C167 C168 1.339 . S
C167 H202 0.949 . S
C168 C167 1.339 . S
C168 C169 1.439 . S
C168 H203 0.950 . S
C169 N165 1.383 . S
C169 C168 1.439 . S
C169 C198 1.392 . S
N170 Co164 2.008 . S
N170 C171 1.376 . S
N170 C174 1.374 . S
C171 N170 1.376 . S
C171 C172 1.443 . S
C171 C198 1.389 . S
C172 C171 1.443 . S
C172 C173 1.340 . S
C172 H204 0.951 . S
C173 C172 1.340 . S
C173 C174 1.439 . S
C173 H205 0.950 . S
C174 N170 1.374 . S
C174 C173 1.439 . S
C174 C199 1.395 . S
N175 Co164 1.995 . S
N175 C176 1.376 . S
N175 C179 1.383 . S
C176 N175 1.376 . S
C176 C177 1.446 . S
C176 C199 1.391 . S
C177 C176 1.446 . S
C177 C178 1.339 . S
C177 H206 0.949 . S
C178 C177 1.339 . S
C178 C179 1.439 . S
C178 H207 0.950 . S
C179 N175 1.383 . S
C179 C178 1.439 . S
C179 C197 1.392 . S
N180 Co164 2.282 . S
N180 C183 1.332 . S
N180 C185 1.332 . S
C181 C182 1.386 . S
C181 C184 1.388 . S
C182 C181 1.386 . S
C182 C183 1.382 . S
C182 H208 0.950 . S
C183 N180 1.332 . S
C183 C182 1.382 . S
C183 H194 0.952 . S
C184 C181 1.388 . S
C184 C185 1.382 . S
C184 H209 0.950 . S
C185 N180 1.332 . S
C185 C184 1.382 . S
C185 H195 0.948 . S
N186 Co164 2.282 . S
N186 C190 1.332 . S
N186 C191 1.332 . S
C187 C188 1.388 . S
C187 C191 1.382 . S
C187 H210 0.950 . S
C188 C187 1.388 . S
C188 C189 1.386 . S
C189 C188 1.386 . S
C189 C190 1.382 . S
C189 H211 0.950 . S
C190 N186 1.332 . S
C190 C189 1.382 . S
C190 H192 0.952 . S
C191 N186 1.332 . S
C191 C187 1.382 . S
C191 H193 0.948 . S
H192 C190 0.952 . S
H193 C191 0.948 . S
H194 C183 0.952 . S
H195 C185 0.948 . S
C196 C162 1.395 . S
C196 C166 1.391 . S
C197 C159 1.389 . S
C197 C179 1.392 . S
C198 C169 1.392 . S
C198 C171 1.389 . S
C199 C174 1.395 . S
C199 C176 1.391 . S
H200 C160 0.951 . S
H201 C161 0.950 . S
H202 C167 0.949 . S
H203 C168 0.950 . S
H204 C172 0.951 . S
H205 C173 0.950 . S
H206 C177 0.949 . S
H207 C178 0.950 . S
H208 C182 0.950 . S
H209 C184 0.950 . S
H210 C187 0.950 . S
H211 C189 0.950 . S
C212 C213 1.443 . S
C212 N216 1.376 . S
C212 C250 1.389 . S
C213 C212 1.443 . S
C213 C214 1.340 . S
C213 H253 0.951 . S
C214 C213 1.340 . S
C214 C215 1.439 . S
C214 H254 0.950 . S
C215 C214 1.439 . S
C215 N216 1.374 . S
C215 C249 1.395 . S
N216 C212 1.376 . S
N216 C215 1.374 . S
N216 Co217 2.008 . S
Co217 N216 2.008 . S
Co217 N218 1.995 . S
Co217 N223 2.008 . S
Co217 N228 1.995 . S
Co217 N233 2.282 . S
Co217 N239 2.282 . S
N218 Co217 1.995 . S
N218 C219 1.376 . S
N218 C222 1.383 . S
C219 N218 1.376 . S
C219 C220 1.446 . S
C219 C249 1.391 . S
C220 C219 1.446 . S
C220 C221 1.339 . S
C220 H255 0.949 . S
C221 C220 1.339 . S
C221 C222 1.439 . S
C221 H256 0.950 . S
C222 N218 1.383 . S
C222 C221 1.439 . S
C222 C251 1.392 . S
N223 Co217 2.008 . S
N223 C224 1.376 . S
N223 C227 1.374 . S
C224 N223 1.376 . S
C224 C225 1.443 1_455 S
C224 C251 1.389 . S
C225 C224 1.443 1_655 S
C225 C226 1.340 . S
C225 H257 0.951 . S
C226 C225 1.340 . S
C226 C227 1.439 1_655 S
C226 H258 0.950 . S
C227 N223 1.374 . S
C227 C226 1.439 1_455 S
C227 C252 1.395 . S
N228 Co217 1.995 . S
N228 C229 1.376 . S
N228 C232 1.383 . S
C229 N228 1.376 . S
C229 C230 1.446 . S
C229 C252 1.391 . S
C230 C229 1.446 . S
C230 C231 1.339 . S
C230 H259 0.949 . S
C231 C230 1.339 . S
C231 C232 1.439 . S
C231 H260 0.950 . S
C232 N228 1.383 . S
C232 C231 1.439 . S
C232 C250 1.392 . S
N233 Co217 2.282 . S
N233 C236 1.332 . S
N233 C238 1.332 . S
C234 C235 1.386 . S
C234 C237 1.388 . S
C235 C234 1.386 . S
C235 C236 1.382 . S
C235 H261 0.950 . S
C236 N233 1.332 . S
C236 C235 1.382 . S
C236 H247 0.952 . S
C237 C234 1.388 . S
C237 C238 1.382 . S
C237 H262 0.950 . S
C238 N233 1.332 . S
C238 C237 1.382 . S
C238 H248 0.948 . S
N239 Co217 2.282 . S
N239 C243 1.332 . S
N239 C244 1.332 . S
C240 C241 1.388 . S
C240 C244 1.382 . S
C240 H263 0.950 . S
C241 C240 1.388 . S
C241 C242 1.386 . S
C242 C241 1.386 . S
C242 C243 1.382 . S
C242 H264 0.950 . S
C243 N239 1.332 . S
C243 C242 1.382 . S
C243 H245 0.952 . S
C244 N239 1.332 . S
C244 C240 1.382 . S
C244 H246 0.948 . S
H245 C243 0.952 . S
H246 C244 0.948 . S
H247 C236 0.952 . S
H248 C238 0.948 . S
C249 C215 1.395 . S
C249 C219 1.391 . S
C250 C212 1.389 . S
C250 C232 1.392 . S
C251 C222 1.392 . S
C251 C224 1.389 . S
C252 C227 1.395 . S
C252 C229 1.391 . S
H253 C213 0.951 . S
H254 C214 0.950 . S
H255 C220 0.949 . S
H256 C221 0.950 . S
H257 C225 0.951 . S
H258 C226 0.950 . S
H259 C230 0.949 . S
H260 C231 0.950 . S
H261 C235 0.950 . S
H262 C237 0.950 . S
H263 C240 0.950 . S
H264 C242 0.950 . S
C265 C266 1.443 1_565 S
C265 N269 1.376 . S
C265 C303 1.389 . S
C266 C265 1.443 1_545 S
C266 C267 1.340 . S
C266 H306 0.951 . S
C267 C266 1.340 . S
C267 C268 1.439 1_545 S
C267 H307 0.950 . S
C268 C267 1.439 1_565 S
C268 N269 1.374 . S
C268 C302 1.395 . S
N269 C265 1.376 . S
N269 C268 1.374 . S
N269 Co270 2.008 . S
Co270 N269 2.008 . S
Co270 N271 1.995 . S
Co270 N276 2.008 . S
Co270 N281 1.995 . S
Co270 N286 2.282 . S
Co270 N292 2.282 . S
N271 Co270 1.995 . S
N271 C272 1.376 . S
N271 C275 1.383 . S
C272 N271 1.376 . S
C272 C273 1.446 . S
C272 C302 1.391 . S
C273 C272 1.446 . S
C273 C274 1.339 . S
C273 H308 0.949 . S
C274 C273 1.339 . S
C274 C275 1.439 . S
C274 H309 0.950 . S
C275 N271 1.383 . S
C275 C274 1.439 . S
C275 C304 1.392 . S
N276 Co270 2.008 . S
N276 C277 1.376 . S
N276 C280 1.374 . S
C277 N276 1.376 . S
C277 C278 1.443 . S
C277 C304 1.389 . S
C278 C277 1.443 . S
C278 C279 1.340 . S
C278 H310 0.951 . S
C279 C278 1.340 . S
C279 C280 1.439 . S
C279 H311 0.950 . S
C280 N276 1.374 . S
C280 C279 1.439 . S
C280 C305 1.395 . S
N281 Co270 1.995 . S
N281 C282 1.376 . S
N281 C285 1.383 . S
C282 N281 1.376 . S
C282 C283 1.446 . S
C282 C305 1.391 . S
C283 C282 1.446 . S
C283 C284 1.339 . S
C283 H312 0.949 . S
C284 C283 1.339 . S
C284 C285 1.439 . S
C284 H313 0.950 . S
C285 N281 1.383 . S
C285 C284 1.439 . S
C285 C303 1.392 . S
N286 Co270 2.282 . S
N286 C289 1.332 . S
N286 C291 1.332 . S
C287 C288 1.386 . S
C287 C290 1.388 . S
C288 C287 1.386 . S
C288 C289 1.382 . S
C288 H314 0.950 . S
C289 N286 1.332 . S
C289 C288 1.382 . S
C289 H300 0.952 . S
C290 C287 1.388 . S
C290 C291 1.382 . S
C290 H315 0.950 . S
C291 N286 1.332 . S
C291 C290 1.382 . S
C291 H301 0.948 . S
N292 Co270 2.282 . S
N292 C296 1.332 . S
N292 C297 1.332 . S
C293 C294 1.388 . S
C293 C297 1.382 . S
C293 H316 0.950 . S
C294 C293 1.388 . S
C294 C295 1.386 . S
C295 C294 1.386 . S
C295 C296 1.382 . S
C295 H317 0.950 . S
C296 N292 1.332 . S
C296 C295 1.382 . S
C296 H298 0.952 . S
C297 N292 1.332 . S
C297 C293 1.382 . S
C297 H299 0.948 . S
H298 C296 0.952 . S
H299 C297 0.948 . S
H300 C289 0.952 . S
H301 C291 0.948 . S
C302 C268 1.395 . S
C302 C272 1.391 . S
C303 C265 1.389 . S
C303 C285 1.392 . S
C304 C275 1.392 . S
C304 C277 1.389 . S
C305 C280 1.395 . S
C305 C282 1.391 . S
H306 C266 0.951 . S
H307 C267 0.950 . S
H308 C273 0.949 . S
H309 C274 0.950 . S
H310 C278 0.951 . S
H311 C279 0.950 . S
H312 C283 0.949 . S
H313 C284 0.950 . S
H314 C288 0.950 . S
H315 C290 0.950 . S
H316 C293 0.950 . S
H317 C295 0.950 . S
C318 C319 1.443 . S
C318 N322 1.376 . S
C318 C356 1.389 . S
C319 C318 1.443 . S
C319 C320 1.340 . S
C319 H359 0.951 . S
C320 C319 1.340 . S
C320 C321 1.439 . S
C320 H360 0.950 . S
C321 C320 1.439 . S
C321 N322 1.374 . S
C321 C355 1.395 . S
N322 C318 1.376 . S
N322 C321 1.374 . S
N322 Co323 2.008 . S
Co323 N322 2.008 . S
Co323 N324 1.995 . S
Co323 N329 2.008 . S
Co323 N334 1.995 . S
Co323 N339 2.282 . S
Co323 N345 2.282 . S
N324 Co323 1.995 . S
N324 C325 1.376 . S
N324 C328 1.383 . S
C325 N324 1.376 . S
C325 C326 1.446 . S
C325 C355 1.391 . S
C326 C325 1.446 . S
C326 C327 1.339 . S
C326 H361 0.949 . S
C327 C326 1.339 . S
C327 C328 1.439 . S
C327 H362 0.950 . S
C328 N324 1.383 . S
C328 C327 1.439 . S
C328 C357 1.392 . S
N329 Co323 2.008 . S
N329 C330 1.376 . S
N329 C333 1.374 . S
C330 N329 1.376 . S
C330 C331 1.443 1_655 S
C330 C357 1.389 . S
C331 C330 1.443 1_455 S
C331 C332 1.340 . S
C331 H363 0.951 . S
C332 C331 1.340 . S
C332 C333 1.439 1_455 S
C332 H364 0.950 . S
C333 N329 1.374 . S
C333 C332 1.439 1_655 S
C333 C358 1.395 . S
N334 Co323 1.995 . S
N334 C335 1.376 . S
N334 C338 1.383 . S
C335 N334 1.376 . S
C335 C336 1.446 . S
C335 C358 1.391 . S
C336 C335 1.446 . S
C336 C337 1.339 . S
C336 H365 0.949 . S
C337 C336 1.339 . S
C337 C338 1.439 . S
C337 H366 0.950 . S
C338 N334 1.383 . S
C338 C337 1.439 . S
C338 C356 1.392 . S
N339 Co323 2.282 . S
N339 C342 1.332 . S
N339 C344 1.332 . S
C340 C341 1.386 . S
C340 C343 1.388 . S
C341 C340 1.386 . S
C341 C342 1.382 . S
C341 H367 0.950 . S
C342 N339 1.332 . S
C342 C341 1.382 . S
C342 H353 0.952 . S
C343 C340 1.388 . S
C343 C344 1.382 . S
C343 H368 0.950 . S
C344 N339 1.332 . S
C344 C343 1.382 . S
C344 H354 0.948 . S
N345 Co323 2.282 . S
N345 C349 1.332 . S
N345 C350 1.332 . S
C346 C347 1.388 . S
C346 C350 1.382 . S
C346 H369 0.950 . S
C347 C346 1.388 . S
C347 C348 1.386 . S
C348 C347 1.386 . S
C348 C349 1.382 . S
C348 H370 0.950 . S
C349 N345 1.332 . S
C349 C348 1.382 . S
C349 H351 0.952 . S
C350 N345 1.332 . S
C350 C346 1.382 . S
C350 H352 0.948 . S
H351 C349 0.952 . S
H352 C350 0.948 . S
H353 C342 0.952 . S
H354 C344 0.948 . S
C355 C321 1.395 . S
C355 C325 1.391 . S
C356 C318 1.389 . S
C356 C338 1.392 . S
C357 C328 1.392 . S
C357 C330 1.389 . S
C358 C333 1.395 . S
C358 C335 1.391 . S
H359 C319 0.951 . S
H360 C320 0.950 . S
H361 C326 0.949 . S
H362 C327 0.950 . S
H363 C331 0.951 . S
H364 C332 0.950 . S
H365 C336 0.949 . S
H366 C337 0.950 . S
H367 C341 0.950 . S
H368 C343 0.950 . S
H369 C346 0.950 . S
H370 C348 0.950 . S
C371 C372 1.443 1_545 S
C371 N375 1.376 . S
C371 C409 1.389 . S
C372 C371 1.443 1_565 S
C372 C373 1.340 . S
C372 H412 0.951 . S
C373 C372 1.340 . S
C373 C374 1.439 1_565 S
C373 H413 0.950 . S
C374 C373 1.439 1_545 S
C374 N375 1.374 . S
C374 C408 1.395 . S
N375 C371 1.376 . S
N375 C374 1.374 . S
N375 Co376 2.008 . S
Co376 N375 2.008 . S
Co376 N377 1.995 . S
Co376 N382 2.008 . S
Co376 N387 1.995 . S
Co376 N392 2.282 . S
Co376 N398 2.282 . S
N377 Co376 1.995 . S
N377 C378 1.376 . S
N377 C381 1.383 . S
C378 N377 1.376 . S
C378 C379 1.446 . S
C378 C408 1.391 . S
C379 C378 1.446 . S
C379 C380 1.339 . S
C379 H414 0.949 . S
C380 C379 1.339 . S
C380 C381 1.439 . S
C380 H415 0.950 . S
C381 N377 1.383 . S
C381 C380 1.439 . S
C381 C410 1.392 . S
N382 Co376 2.008 . S
N382 C383 1.376 . S
N382 C386 1.374 . S
C383 N382 1.376 . S
C383 C384 1.443 . S
C383 C410 1.389 . S
C384 C383 1.443 . S
C384 C385 1.340 . S
C384 H416 0.951 . S
C385 C384 1.340 . S
C385 C386 1.439 . S
C385 H417 0.950 . S
C386 N382 1.374 . S
C386 C385 1.439 . S
C386 C411 1.395 . S
N387 Co376 1.995 . S
N387 C388 1.376 . S
N387 C391 1.383 . S
C388 N387 1.376 . S
C388 C389 1.446 . S
C388 C411 1.391 . S
C389 C388 1.446 . S
C389 C390 1.339 . S
C389 H418 0.949 . S
C390 C389 1.339 . S
C390 C391 1.439 . S
C390 H419 0.950 . S
C391 N387 1.383 . S
C391 C390 1.439 . S
C391 C409 1.392 . S
N392 Co376 2.282 . S
N392 C395 1.332 . S
N392 C397 1.332 . S
C393 C394 1.386 . S
C393 C396 1.388 . S
C394 C393 1.386 . S
C394 C395 1.382 . S
C394 H420 0.950 . S
C395 N392 1.332 . S
C395 C394 1.382 . S
C395 H406 0.952 . S
C396 C393 1.388 . S
C396 C397 1.382 . S
C396 H421 0.950 . S
C397 N392 1.332 . S
C397 C396 1.382 . S
C397 H407 0.948 . S
N398 Co376 2.282 . S
N398 C402 1.332 . S
N398 C403 1.332 . S
C399 C400 1.388 . S
C399 C403 1.382 . S
C399 H422 0.950 . S
C400 C399 1.388 . S
C400 C401 1.386 . S
C401 C400 1.386 . S
C401 C402 1.382 . S
C401 H423 0.950 . S
C402 N398 1.332 . S
C402 C401 1.382 . S
C402 H404 0.952 . S
C403 N398 1.332 . S
C403 C399 1.382 . S
C403 H405 0.948 . S
H404 C402 0.952 . S
H405 C403 0.948 . S
H406 C395 0.952 . S
H407 C397 0.948 . S
C408 C374 1.395 . S
C408 C378 1.391 . S
C409 C371 1.389 . S
C409 C391 1.392 . S
C410 C381 1.392 . S
C410 C383 1.389 . S
C411 C386 1.395 . S
C411 C388 1.391 . S
H412 C372 0.951 . S
H413 C373 0.950 . S
H414 C379 0.949 . S
H415 C380 0.950 . S
H416 C384 0.951 . S
H417 C385 0.950 . S
H418 C389 0.949 . S
H419 C390 0.950 . S
H420 C394 0.950 . S
H421 C396 0.950 . S
H422 C399 0.950 . S
H423 C401 0.950 . S
C424 C425 1.443 . S
C424 N428 1.376 . S
C424 C462 1.389 . S
C425 C424 1.443 . S
C425 C426 1.340 . S
C425 H465 0.951 . S
C426 C425 1.340 . S
C426 C427 1.439 . S
C426 H466 0.950 . S
C427 C426 1.439 . S
C427 N428 1.374 . S
C427 C461 1.395 . S
N428 C424 1.376 . S
N428 C427 1.374 . S
N428 Co429 2.008 . S
Co429 N428 2.008 . S
Co429 N430 1.995 . S
Co429 N435 2.008 . S
Co429 N440 1.995 . S
Co429 N445 2.282 . S
Co429 N451 2.282 . S
N430 Co429 1.995 . S
N430 C431 1.376 . S
N430 C434 1.383 . S
C431 N430 1.376 . S
C431 C432 1.446 . S
C431 C461 1.391 . S
C432 C431 1.446 . S
C432 C433 1.339 . S
C432 H467 0.949 . S
C433 C432 1.339 . S
C433 C434 1.439 . S
C433 H468 0.950 . S
C434 N430 1.383 . S
C434 C433 1.439 . S
C434 C463 1.392 . S
N435 Co429 2.008 . S
N435 C436 1.376 . S
N435 C439 1.374 . S
C436 N435 1.376 . S
C436 C437 1.443 . S
C436 C463 1.389 . S
C437 C436 1.443 . S
C437 C438 1.340 . S
C437 H469 0.951 . S
C438 C437 1.340 . S
C438 C439 1.439 . S
C438 H470 0.950 . S
C439 N435 1.374 . S
C439 C438 1.439 . S
C439 C464 1.395 . S
N440 Co429 1.995 . S
N440 C441 1.376 . S
N440 C444 1.383 . S
C441 N440 1.376 . S
C441 C442 1.446 . S
C441 C464 1.391 . S
C442 C441 1.446 . S
C442 C443 1.339 . S
C442 H471 0.949 . S
C443 C442 1.339 . S
C443 C444 1.439 . S
C443 H472 0.950 . S
C444 N440 1.383 . S
C444 C443 1.439 . S
C444 C462 1.392 . S
N445 Co429 2.282 . S
N445 C448 1.332 . S
N445 C450 1.332 . S
C446 C447 1.386 . S
C446 C449 1.388 . S
C447 C446 1.386 . S
C447 C448 1.382 . S
C447 H473 0.950 . S
C448 N445 1.332 . S
C448 C447 1.382 . S
C448 H459 0.952 . S
C449 C446 1.388 . S
C449 C450 1.382 . S
C449 H474 0.950 . S
C450 N445 1.332 . S
C450 C449 1.382 . S
C450 H460 0.948 . S
N451 Co429 2.282 . S
N451 C455 1.332 . S
N451 C456 1.332 . S
C452 C453 1.388 . S
C452 C456 1.382 . S
C452 H475 0.950 . S
C453 C452 1.388 . S
C453 C454 1.386 . S
C454 C453 1.386 . S
C454 C455 1.382 . S
C454 H476 0.950 . S
C455 N451 1.332 . S
C455 C454 1.382 . S
C455 H457 0.952 . S
C456 N451 1.332 . S
C456 C452 1.382 . S
C456 H458 0.948 . S
H457 C455 0.952 . S
H458 C456 0.948 . S
H459 C448 0.952 . S
H460 C450 0.948 . S
C461 C427 1.395 . S
C461 C431 1.391 . S
C462 C424 1.389 . S
C462 C444 1.392 . S
C463 C434 1.392 . S
C463 C436 1.389 . S
C464 C439 1.395 . S
C464 C441 1.391 . S
H465 C425 0.951 . S
H466 C426 0.950 . S
H467 C432 0.949 . S
H468 C433 0.950 . S
H469 C437 0.951 . S
H470 C438 0.950 . S
H471 C442 0.949 . S
H472 C443 0.950 . S
H473 C447 0.950 . S
H474 C449 0.950 . S
H475 C452 0.950 . S
H476 C454 0.950 . S
C477 C478 1.443 . S
C477 N481 1.376 . S
C477 C515 1.389 . S
C478 C477 1.443 . S
C478 C479 1.340 . S
C478 H518 0.951 . S
C479 C478 1.340 . S
C479 C480 1.439 . S
C479 H519 0.950 . S
C480 C479 1.439 . S
C480 N481 1.374 . S
C480 C514 1.395 . S
N481 C477 1.376 . S
N481 C480 1.374 . S
N481 Co482 2.008 . S
Co482 N481 2.008 . S
Co482 N483 1.995 . S
Co482 N488 2.008 . S
Co482 N493 1.995 . S
Co482 N498 2.282 . S
Co482 N504 2.282 . S
N483 Co482 1.995 . S
N483 C484 1.376 . S
N483 C487 1.383 . S
C484 N483 1.376 . S
C484 C485 1.446 . S
C484 C514 1.391 . S
C485 C484 1.446 . S
C485 C486 1.339 . S
C485 H520 0.949 . S
C486 C485 1.339 . S
C486 C487 1.439 . S
C486 H521 0.950 . S
C487 N483 1.383 . S
C487 C486 1.439 . S
C487 C516 1.392 . S
N488 Co482 2.008 . S
N488 C489 1.376 . S
N488 C492 1.374 . S
C489 N488 1.376 . S
C489 C490 1.443 . S
C489 C516 1.389 . S
C490 C489 1.443 . S
C490 C491 1.340 . S
C490 H522 0.951 . S
C491 C490 1.340 . S
C491 C492 1.439 . S
C491 H523 0.950 . S
C492 N488 1.374 . S
C492 C491 1.439 . S
C492 C517 1.395 . S
N493 Co482 1.995 . S
N493 C494 1.376 . S
N493 C497 1.383 . S
C494 N493 1.376 . S
C494 C495 1.446 . S
C494 C517 1.391 . S
C495 C494 1.446 . S
C495 C496 1.339 . S
C495 H524 0.949 . S
C496 C495 1.339 . S
C496 C497 1.439 . S
C496 H525 0.950 . S
C497 N493 1.383 . S
C497 C496 1.439 . S
C497 C515 1.392 . S
N498 Co482 2.282 . S
N498 C501 1.332 . S
N498 C503 1.332 . S
C499 C500 1.386 . S
C499 C502 1.388 . S
C500 C499 1.386 . S
C500 C501 1.382 . S
C500 H526 0.950 . S
C501 N498 1.332 . S
C501 C500 1.382 . S
C501 H512 0.952 . S
C502 C499 1.388 . S
C502 C503 1.382 . S
C502 H527 0.950 . S
C503 N498 1.332 . S
C503 C502 1.382 . S
C503 H513 0.948 . S
N504 Co482 2.282 . S
N504 C508 1.332 . S
N504 C509 1.332 . S
C505 C506 1.388 . S
C505 C509 1.382 . S
C505 H528 0.950 . S
C506 C505 1.388 . S
C506 C507 1.386 . S
C507 C506 1.386 . S
C507 C508 1.382 . S
C507 H529 0.950 . S
C508 N504 1.332 . S
C508 C507 1.382 . S
C508 H510 0.952 . S
C509 N504 1.332 . S
C509 C505 1.382 . S
C509 H511 0.948 . S
H510 C508 0.952 . S
H511 C509 0.948 . S
H512 C501 0.952 . S
H513 C503 0.948 . S
C514 C480 1.395 . S
C514 C484 1.391 . S
C515 C477 1.389 . S
C515 C497 1.392 . S
C516 C487 1.392 . S
C516 C489 1.389 . S
C517 C492 1.395 . S
C517 C494 1.391 . S
H518 C478 0.951 . S
H519 C479 0.950 . S
H520 C485 0.949 . S
H521 C486 0.950 . S
H522 C490 0.951 . S
H523 C491 0.950 . S
H524 C495 0.949 . S
H525 C496 0.950 . S
H526 C500 0.950 . S
H527 C502 0.950 . S
H528 C505 0.950 . S
H529 C507 0.950 . S
C530 C531 1.443 . S
C530 N534 1.376 . S
C530 C568 1.389 . S
C531 C530 1.443 . S
C531 C532 1.340 . S
C531 H571 0.951 . S
C532 C531 1.340 . S
C532 C533 1.439 . S
C532 H572 0.950 . S
C533 C532 1.439 . S
C533 N534 1.374 . S
C533 C567 1.395 . S
N534 C530 1.376 . S
N534 C533 1.374 . S
N534 Co535 2.008 . S
Co535 N534 2.008 . S
Co535 N536 1.995 . S
Co535 N541 2.008 . S
Co535 N546 1.995 . S
Co535 N551 2.282 . S
Co535 N557 2.282 . S
N536 Co535 1.995 . S
N536 C537 1.376 . S
N536 C540 1.383 . S
C537 N536 1.376 . S
C537 C538 1.446 . S
C537 C567 1.391 . S
C538 C537 1.446 . S
C538 C539 1.339 . S
C538 H573 0.949 . S
C539 C538 1.339 . S
C539 C540 1.439 . S
C539 H574 0.950 . S
C540 N536 1.383 . S
C540 C539 1.439 . S
C540 C569 1.392 . S
N541 Co535 2.008 . S
N541 C542 1.376 . S
N541 C545 1.374 . S
C542 N541 1.376 . S
C542 C543 1.443 . S
C542 C569 1.389 . S
C543 C542 1.443 . S
C543 C544 1.340 . S
C543 H575 0.951 . S
C544 C543 1.340 . S
C544 C545 1.439 . S
C544 H576 0.950 . S
C545 N541 1.374 . S
C545 C544 1.439 . S
C545 C570 1.395 . S
N546 Co535 1.995 . S
N546 C547 1.376 . S
N546 C550 1.383 . S
C547 N546 1.376 . S
C547 C548 1.446 . S
C547 C570 1.391 . S
C548 C547 1.446 . S
C548 C549 1.339 . S
C548 H577 0.949 . S
C549 C548 1.339 . S
C549 C550 1.439 . S
C549 H578 0.950 . S
C550 N546 1.383 . S
C550 C549 1.439 . S
C550 C568 1.392 . S
N551 Co535 2.282 . S
N551 C554 1.332 . S
N551 C556 1.332 . S
C552 C553 1.386 . S
C552 C555 1.388 . S
C553 C552 1.386 . S
C553 C554 1.382 . S
C553 H579 0.950 . S
C554 N551 1.332 . S
C554 C553 1.382 . S
C554 H565 0.952 . S
C555 C552 1.388 . S
C555 C556 1.382 . S
C555 H580 0.950 . S
C556 N551 1.332 . S
C556 C555 1.382 . S
C556 H566 0.948 . S
N557 Co535 2.282 . S
N557 C561 1.332 . S
N557 C562 1.332 . S
C558 C559 1.388 . S
C558 C562 1.382 . S
C558 H581 0.950 . S
C559 C558 1.388 . S
C559 C560 1.386 . S
C560 C559 1.386 . S
C560 C561 1.382 . S
C560 H582 0.950 . S
C561 N557 1.332 . S
C561 C560 1.382 . S
C561 H563 0.952 . S
C562 N557 1.332 . S
C562 C558 1.382 . S
C562 H564 0.948 . S
H563 C561 0.952 . S
H564 C562 0.948 . S
H565 C554 0.952 . S
H566 C556 0.948 . S
C567 C533 1.395 . S
C567 C537 1.391 . S
C568 C530 1.389 . S
C568 C550 1.392 . S
C569 C540 1.392 . S
C569 C542 1.389 . S
C570 C545 1.395 . S
C570 C547 1.391 . S
H571 C531 0.951 . S
H572 C532 0.950 . S
H573 C538 0.949 . S
H574 C539 0.950 . S
H575 C543 0.951 . S
H576 C544 0.950 . S
H577 C548 0.949 . S
H578 C549 0.950 . S
H579 C553 0.950 . S
H580 C555 0.950 . S
H581 C558 0.950 . S
H582 C560 0.950 . S
C583 C584 1.443 . S
C583 N587 1.376 . S
C583 C621 1.389 . S
C584 C583 1.443 . S
C584 C585 1.340 . S
C584 H624 0.951 . S
C585 C584 1.340 . S
C585 C586 1.439 . S
C585 H625 0.950 . S
C586 C585 1.439 . S
C586 N587 1.374 . S
C586 C620 1.395 . S
N587 C583 1.376 . S
N587 C586 1.374 . S
N587 Co588 2.008 . S
Co588 N587 2.008 . S
Co588 N589 1.995 . S
Co588 N594 2.008 . S
Co588 N599 1.995 . S
Co588 N604 2.282 . S
Co588 N610 2.282 . S
N589 Co588 1.995 . S
N589 C590 1.376 . S
N589 C593 1.383 . S
C590 N589 1.376 . S
C590 C591 1.446 . S
C590 C620 1.391 . S
C591 C590 1.446 . S
C591 C592 1.339 . S
C591 H626 0.949 . S
C592 C591 1.339 . S
C592 C593 1.439 . S
C592 H627 0.950 . S
C593 N589 1.383 . S
C593 C592 1.439 . S
C593 C622 1.392 . S
N594 Co588 2.008 . S
N594 C595 1.376 . S
N594 C598 1.374 . S
C595 N594 1.376 . S
C595 C596 1.443 . S
C595 C622 1.389 . S
C596 C595 1.443 . S
C596 C597 1.340 . S
C596 H628 0.951 . S
C597 C596 1.340 . S
C597 C598 1.439 . S
C597 H629 0.950 . S
C598 N594 1.374 . S
C598 C597 1.439 . S
C598 C623 1.395 . S
N599 Co588 1.995 . S
N599 C600 1.376 . S
N599 C603 1.383 . S
C600 N599 1.376 . S
C600 C601 1.446 . S
C600 C623 1.391 . S
C601 C600 1.446 . S
C601 C602 1.339 . S
C601 H630 0.949 . S
C602 C601 1.339 . S
C602 C603 1.439 . S
C602 H631 0.950 . S
C603 N599 1.383 . S
C603 C602 1.439 . S
C603 C621 1.392 . S
N604 Co588 2.282 . S
N604 C607 1.332 . S
N604 C609 1.332 . S
C605 C606 1.386 . S
C605 C608 1.388 . S
C606 C605 1.386 . S
C606 C607 1.382 . S
C606 H632 0.950 . S
C607 N604 1.332 . S
C607 C606 1.382 . S
C607 H618 0.952 . S
C608 C605 1.388 . S
C608 C609 1.382 . S
C608 H633 0.950 . S
C609 N604 1.332 . S
C609 C608 1.382 . S
C609 H619 0.948 . S
N610 Co588 2.282 . S
N610 C614 1.332 . S
N610 C615 1.332 . S
C611 C612 1.388 . S
C611 C615 1.382 . S
C611 H634 0.950 . S
C612 C611 1.388 . S
C612 C613 1.386 . S
C613 C612 1.386 . S
C613 C614 1.382 . S
C613 H635 0.950 . S
C614 N610 1.332 . S
C614 C613 1.382 . S
C614 H616 0.952 . S
C615 N610 1.332 . S
C615 C611 1.382 . S
C615 H617 0.948 . S
H616 C614 0.952 . S
H617 C615 0.948 . S
H618 C607 0.952 . S
H619 C609 0.948 . S
C620 C586 1.395 . S
C620 C590 1.391 . S
C621 C583 1.389 . S
C621 C603 1.392 . S
C622 C593 1.392 . S
C622 C595 1.389 . S
C623 C598 1.395 . S
C623 C600 1.391 . S
H624 C584 0.951 . S
H625 C585 0.950 . S
H626 C591 0.949 . S
H627 C592 0.950 . S
H628 C596 0.951 . S
H629 C597 0.950 . S
H630 C601 0.949 . S
H631 C602 0.950 . S
H632 C606 0.950 . S
H633 C608 0.950 . S
H634 C611 0.950 . S
H635 C613 0.950 . S
C636 C637 1.443 . S
C636 N640 1.376 . S
C636 C674 1.389 . S
C637 C636 1.443 . S
C637 C638 1.340 . S
C637 H677 0.951 . S
C638 C637 1.340 . S
C638 C639 1.439 . S
C638 H678 0.950 . S
C639 C638 1.439 . S
C639 N640 1.374 . S
C639 C673 1.395 . S
N640 C636 1.376 . S
N640 C639 1.374 . S
N640 Co641 2.008 . S
Co641 N640 2.008 . S
Co641 N642 1.995 . S
Co641 N647 2.008 . S
Co641 N652 1.995 . S
Co641 N657 2.282 . S
Co641 N663 2.282 . S
N642 Co641 1.995 . S
N642 C643 1.376 . S
N642 C646 1.383 . S
C643 N642 1.376 . S
C643 C644 1.446 . S
C643 C673 1.391 . S
C644 C643 1.446 . S
C644 C645 1.339 . S
C644 H679 0.949 . S
C645 C644 1.339 . S
C645 C646 1.439 . S
C645 H680 0.950 . S
C646 N642 1.383 . S
C646 C645 1.439 . S
C646 C675 1.392 . S
N647 Co641 2.008 . S
N647 C648 1.376 . S
N647 C651 1.374 . S
C648 N647 1.376 . S
C648 C649 1.443 . S
C648 C675 1.389 . S
C649 C648 1.443 . S
C649 C650 1.340 . S
C649 H681 0.951 . S
C650 C649 1.340 . S
C650 C651 1.439 . S
C650 H682 0.950 . S
C651 N647 1.374 . S
C651 C650 1.439 . S
C651 C676 1.395 . S
N652 Co641 1.995 . S
N652 C653 1.376 . S
N652 C656 1.383 . S
C653 N652 1.376 . S
C653 C654 1.446 . S
C653 C676 1.391 . S
C654 C653 1.446 . S
C654 C655 1.339 . S
C654 H683 0.949 . S
C655 C654 1.339 . S
C655 C656 1.439 . S
C655 H684 0.950 . S
C656 N652 1.383 . S
C656 C655 1.439 . S
C656 C674 1.392 . S
N657 Co641 2.282 . S
N657 C660 1.332 . S
N657 C662 1.332 . S
C658 C659 1.386 . S
C658 C661 1.388 . S
C659 C658 1.386 . S
C659 C660 1.382 . S
C659 H685 0.950 . S
C660 N657 1.332 . S
C660 C659 1.382 . S
C660 H671 0.952 . S
C661 C658 1.388 . S
C661 C662 1.382 . S
C661 H686 0.950 . S
C662 N657 1.332 . S
C662 C661 1.382 . S
C662 H672 0.948 . S
N663 Co641 2.282 . S
N663 C667 1.332 . S
N663 C668 1.332 . S
C664 C665 1.388 . S
C664 C668 1.382 . S
C664 H687 0.950 . S
C665 C664 1.388 . S
C665 C666 1.386 . S
C666 C665 1.386 . S
C666 C667 1.382 . S
C666 H688 0.950 . S
C667 N663 1.332 . S
C667 C666 1.382 . S
C667 H669 0.952 . S
C668 N663 1.332 . S
C668 C664 1.382 . S
C668 H670 0.948 . S
H669 C667 0.952 . S
H670 C668 0.948 . S
H671 C660 0.952 . S
H672 C662 0.948 . S
C673 C639 1.395 . S
C673 C643 1.391 . S
C674 C636 1.389 . S
C674 C656 1.392 . S
C675 C646 1.392 . S
C675 C648 1.389 . S
C676 C651 1.395 . S
C676 C653 1.391 . S
H677 C637 0.951 . S
H678 C638 0.950 . S
H679 C644 0.949 . S
H680 C645 0.950 . S
H681 C649 0.951 . S
H682 C650 0.950 . S
H683 C654 0.949 . S
H684 C655 0.950 . S
H685 C659 0.950 . S
H686 C661 0.950 . S
H687 C664 0.950 . S
H688 C666 0.950 . S
C689 C690 1.443 . S
C689 N693 1.376 . S
C689 C727 1.389 . S
C690 C689 1.443 . S
C690 C691 1.340 . S
C690 H730 0.951 . S
C691 C690 1.340 . S
C691 C692 1.439 . S
C691 H731 0.950 . S
C692 C691 1.439 . S
C692 N693 1.374 . S
C692 C726 1.395 . S
N693 C689 1.376 . S
N693 C692 1.374 . S
N693 Co694 2.008 . S
Co694 N693 2.008 . S
Co694 N695 1.995 . S
Co694 N700 2.008 . S
Co694 N705 1.995 . S
Co694 N710 2.282 . S
Co694 N716 2.282 . S
N695 Co694 1.995 . S
N695 C696 1.376 . S
N695 C699 1.383 . S
C696 N695 1.376 . S
C696 C697 1.446 . S
C696 C726 1.391 . S
C697 C696 1.446 . S
C697 C698 1.339 . S
C697 H732 0.949 . S
C698 C697 1.339 . S
C698 C699 1.439 . S
C698 H733 0.950 . S
C699 N695 1.383 . S
C699 C698 1.439 . S
C699 C728 1.392 . S
N700 Co694 2.008 . S
N700 C701 1.376 . S
N700 C704 1.374 . S
C701 N700 1.376 . S
C701 C702 1.443 . S
C701 C728 1.389 . S
C702 C701 1.443 . S
C702 C703 1.340 . S
C702 H734 0.951 . S
C703 C702 1.340 . S
C703 C704 1.439 . S
C703 H735 0.950 . S
C704 N700 1.374 . S
C704 C703 1.439 . S
C704 C729 1.395 . S
N705 Co694 1.995 . S
N705 C706 1.376 . S
N705 C709 1.383 . S
C706 N705 1.376 . S
C706 C707 1.446 . S
C706 C729 1.391 . S
C707 C706 1.446 . S
C707 C708 1.339 . S
C707 H736 0.949 . S
C708 C707 1.339 . S
C708 C709 1.439 . S
C708 H737 0.950 . S
C709 N705 1.383 . S
C709 C708 1.439 . S
C709 C727 1.392 . S
N710 Co694 2.282 . S
N710 C713 1.332 . S
N710 C715 1.332 . S
C711 C712 1.386 . S
C711 C714 1.388 . S
C712 C711 1.386 . S
C712 C713 1.382 . S
C712 H738 0.950 . S
C713 N710 1.332 . S
C713 C712 1.382 . S
C713 H724 0.952 . S
C714 C711 1.388 . S
C714 C715 1.382 . S
C714 H739 0.950 . S
C715 N710 1.332 . S
C715 C714 1.382 . S
C715 H725 0.948 . S
N716 Co694 2.282 . S
N716 C720 1.332 . S
N716 C721 1.332 . S
C717 C718 1.388 . S
C717 C721 1.382 . S
C717 H740 0.950 . S
C718 C717 1.388 . S
C718 C719 1.386 . S
C719 C718 1.386 . S
C719 C720 1.382 . S
C719 H741 0.950 . S
C720 N716 1.332 . S
C720 C719 1.382 . S
C720 H722 0.952 . S
C721 N716 1.332 . S
C721 C717 1.382 . S
C721 H723 0.948 . S
H722 C720 0.952 . S
H723 C721 0.948 . S
H724 C713 0.952 . S
H725 C715 0.948 . S
C726 C692 1.395 . S
C726 C696 1.391 . S
C727 C689 1.389 . S
C727 C709 1.392 . S
C728 C699 1.392 . S
C728 C701 1.389 . S
C729 C704 1.395 . S
C729 C706 1.391 . S
H730 C690 0.951 . S
H731 C691 0.950 . S
H732 C697 0.949 . S
H733 C698 0.950 . S
H734 C702 0.951 . S
H735 C703 0.950 . S
H736 C707 0.949 . S
H737 C708 0.950 . S
H738 C712 0.950 . S
H739 C714 0.950 . S
H740 C717 0.950 . S
H741 C719 0.950 . S
C742 C743 1.443 . S
C742 N746 1.376 . S
C742 C780 1.389 . S
C743 C742 1.443 . S
C743 C744 1.340 . S
C743 H783 0.951 . S
C744 C743 1.340 . S
C744 C745 1.439 . S
C744 H784 0.950 . S
C745 C744 1.439 . S
C745 N746 1.374 . S
C745 C779 1.395 . S
N746 C742 1.376 . S
N746 C745 1.374 . S
N746 Co747 2.008 . S
Co747 N746 2.008 . S
Co747 N748 1.995 . S
Co747 N753 2.008 . S
Co747 N758 1.995 . S
Co747 N763 2.282 . S
Co747 N769 2.282 . S
N748 Co747 1.995 . S
N748 C749 1.376 . S
N748 C752 1.383 . S
C749 N748 1.376 . S
C749 C750 1.446 . S
C749 C779 1.391 . S
C750 C749 1.446 . S
C750 C751 1.339 . S
C750 H785 0.949 . S
C751 C750 1.339 . S
C751 C752 1.439 . S
C751 H786 0.950 . S
C752 N748 1.383 . S
C752 C751 1.439 . S
C752 C781 1.392 . S
N753 Co747 2.008 . S
N753 C754 1.376 . S
N753 C757 1.374 . S
C754 N753 1.376 . S
C754 C755 1.443 . S
C754 C781 1.389 . S
C755 C754 1.443 . S
C755 C756 1.340 . S
C755 H787 0.951 . S
C756 C755 1.340 . S
C756 C757 1.439 . S
C756 H788 0.950 . S
C757 N753 1.374 . S
C757 C756 1.439 . S
C757 C782 1.395 . S
N758 Co747 1.995 . S
N758 C759 1.376 . S
N758 C762 1.383 . S
C759 N758 1.376 . S
C759 C760 1.446 . S
C759 C782 1.391 . S
C760 C759 1.446 . S
C760 C761 1.339 . S
C760 H789 0.949 . S
C761 C760 1.339 . S
C761 C762 1.439 . S
C761 H790 0.950 . S
C762 N758 1.383 . S
C762 C761 1.439 . S
C762 C780 1.392 . S
N763 Co747 2.282 . S
N763 C766 1.332 . S
N763 C768 1.332 . S
C764 C765 1.386 . S
C764 C767 1.388 . S
C765 C764 1.386 . S
C765 C766 1.382 . S
C765 H791 0.950 . S
C766 N763 1.332 . S
C766 C765 1.382 . S
C766 H777 0.952 . S
C767 C764 1.388 . S
C767 C768 1.382 . S
C767 H792 0.950 . S
C768 N763 1.332 . S
C768 C767 1.382 . S
C768 H778 0.948 . S
N769 Co747 2.282 . S
N769 C773 1.332 . S
N769 C774 1.332 . S
C770 C771 1.388 . S
C770 C774 1.382 . S
C770 H793 0.950 . S
C771 C770 1.388 . S
C771 C772 1.386 . S
C772 C771 1.386 . S
C772 C773 1.382 . S
C772 H794 0.950 . S
C773 N769 1.332 . S
C773 C772 1.382 . S
C773 H775 0.952 . S
C774 N769 1.332 . S
C774 C770 1.382 . S
C774 H776 0.948 . S
H775 C773 0.952 . S
H776 C774 0.948 . S
H777 C766 0.952 . S
H778 C768 0.948 . S
C779 C745 1.395 . S
C779 C749 1.391 . S
C780 C742 1.389 . S
C780 C762 1.392 . S
C781 C752 1.392 . S
C781 C754 1.389 . S
C782 C757 1.395 . S
C782 C759 1.391 . S
H783 C743 0.951 . S
H784 C744 0.950 . S
H785 C750 0.949 . S
H786 C751 0.950 . S
H787 C755 0.951 . S
H788 C756 0.950 . S
H789 C760 0.949 . S
H790 C761 0.950 . S
H791 C765 0.950 . S
H792 C767 0.950 . S
H793 C770 0.950 . S
H794 C772 0.950 . S
C795 C796 1.443 . S
C795 N799 1.376 . S
C795 C833 1.389 . S
C796 C795 1.443 . S
C796 C797 1.340 . S
C796 H836 0.951 . S
C797 C796 1.340 . S
C797 C798 1.439 . S
C797 H837 0.950 . S
C798 C797 1.439 . S
C798 N799 1.374 . S
C798 C832 1.395 . S
N799 C795 1.376 . S
N799 C798 1.374 . S
N799 Co800 2.008 . S
Co800 N799 2.008 . S
Co800 N801 1.995 . S
Co800 N806 2.008 . S
Co800 N811 1.995 . S
Co800 N816 2.282 . S
Co800 N822 2.282 . S
N801 Co800 1.995 . S
N801 C802 1.376 . S
N801 C805 1.383 . S
C802 N801 1.376 . S
C802 C803 1.446 . S
C802 C832 1.391 . S
C803 C802 1.446 . S
C803 C804 1.339 . S
C803 H838 0.949 . S
C804 C803 1.339 . S
C804 C805 1.439 . S
C804 H839 0.950 . S
C805 N801 1.383 . S
C805 C804 1.439 . S
C805 C834 1.392 . S
N806 Co800 2.008 . S
N806 C807 1.376 . S
N806 C810 1.374 . S
C807 N806 1.376 . S
C807 C808 1.443 . S
C807 C834 1.389 . S
C808 C807 1.443 . S
C808 C809 1.340 . S
C808 H840 0.951 . S
C809 C808 1.340 . S
C809 C810 1.439 . S
C809 H841 0.950 . S
C810 N806 1.374 . S
C810 C809 1.439 . S
C810 C835 1.395 . S
N811 Co800 1.995 . S
N811 C812 1.376 . S
N811 C815 1.383 . S
C812 N811 1.376 . S
C812 C813 1.446 . S
C812 C835 1.391 . S
C813 C812 1.446 . S
C813 C814 1.339 . S
C813 H842 0.949 . S
C814 C813 1.339 . S
C814 C815 1.439 . S
C814 H843 0.950 . S
C815 N811 1.383 . S
C815 C814 1.439 . S
C815 C833 1.392 . S
N816 Co800 2.282 . S
N816 C819 1.332 . S
N816 C821 1.332 . S
C817 C818 1.386 . S
C817 C820 1.388 . S
C818 C817 1.386 . S
C818 C819 1.382 . S
C818 H844 0.950 . S
C819 N816 1.332 . S
C819 C818 1.382 . S
C819 H830 0.952 . S
C820 C817 1.388 . S
C820 C821 1.382 . S
C820 H845 0.950 . S
C821 N816 1.332 . S
C821 C820 1.382 . S
C821 H831 0.948 . S
N822 Co800 2.282 . S
N822 C826 1.332 . S
N822 C827 1.332 . S
C823 C824 1.388 . S
C823 C827 1.382 . S
C823 H846 0.950 . S
C824 C823 1.388 . S
C824 C825 1.386 . S
C825 C824 1.386 . S
C825 C826 1.382 . S
C825 H847 0.950 . S
C826 N822 1.332 . S
C826 C825 1.382 . S
C826 H828 0.952 . S
C827 N822 1.332 . S
C827 C823 1.382 . S
C827 H829 0.948 . S
H828 C826 0.952 . S
H829 C827 0.948 . S
H830 C819 0.952 . S
H831 C821 0.948 . S
C832 C798 1.395 . S
C832 C802 1.391 . S
C833 C795 1.389 . S
C833 C815 1.392 . S
C834 C805 1.392 . S
C834 C807 1.389 . S
C835 C810 1.395 . S
C835 C812 1.391 . S
H836 C796 0.951 . S
H837 C797 0.950 . S
H838 C803 0.949 . S
H839 C804 0.950 . S
H840 C808 0.951 . S
H841 C809 0.950 . S
H842 C813 0.949 . S
H843 C814 0.950 . S
H844 C818 0.950 . S
H845 C820 0.950 . S
H846 C823 0.950 . S
H847 C825 0.950 . S
H848 C854 0.930 . S
H849 C857 0.930 . S
H850 C858 0.930 . S
H851 C859 0.930 . S
H852 C862 0.930 . S
H853 C863 0.930 . S
C854 H848 0.930 . S
C854 C855 1.355 . S
C854 C856 1.415 . S
C855 C854 1.355 . S
C855 C857 1.419 . S
C856 C854 1.415 . S
C856 C861 1.425 . S
C856 C863 1.409 . S
C857 H849 0.930 . S
C857 C855 1.419 . S
C857 C858 1.362 . S
C858 H850 0.930 . S
C858 C857 1.362 . S
C858 C861 1.409 . S
C859 H851 0.930 . S
C859 C860 1.355 . S
C859 C861 1.415 . S
C860 C859 1.355 . S
C860 C862 1.419 . S
C861 C856 1.425 . S
C861 C858 1.409 . S
C861 C859 1.415 . S
C862 H852 0.930 . S
C862 C860 1.419 . S
C862 C863 1.362 . S
C863 H853 0.930 . S
C863 C856 1.409 . S
C863 C862 1.362 . S
H864 C870 0.930 . S
H865 C873 0.930 . S
H866 C874 0.930 . S
H867 C875 0.930 . S
H868 C878 0.930 . S
H869 C879 0.930 . S
C870 H864 0.930 . S
C870 C871 1.355 . S
C870 C872 1.415 . S
C871 C870 1.355 . S
C871 C873 1.419 . S
C872 C870 1.415 . S
C872 C877 1.425 . S
C872 C879 1.409 . S
C873 H865 0.930 . S
C873 C871 1.419 . S
C873 C874 1.362 . S
C874 H866 0.930 . S
C874 C873 1.362 . S
C874 C877 1.409 . S
C875 H867 0.930 . S
C875 C876 1.355 . S
C875 C877 1.415 . S
C876 C875 1.355 . S
C876 C878 1.419 . S
C877 C872 1.425 . S
C877 C874 1.409 . S
C877 C875 1.415 . S
C878 H868 0.930 . S
C878 C876 1.419 . S
C878 C879 1.362 . S
C879 H869 0.930 . S
C879 C872 1.409 . S
C879 C878 1.362 . S
H880 C886 0.930 . S
H881 C889 0.930 . S
H882 C890 0.930 . S
H883 C891 0.930 . S
H884 C894 0.930 . S
H885 C895 0.930 . S
C886 H880 0.930 . S
C886 C887 1.355 . S
C886 C888 1.415 . S
C887 C886 1.355 . S
C887 C889 1.419 . S
C888 C886 1.415 . S
C888 C893 1.425 . S
C888 C895 1.409 . S
C889 H881 0.930 . S
C889 C887 1.419 . S
C889 C890 1.362 . S
C890 H882 0.930 . S
C890 C889 1.362 . S
C890 C893 1.409 . S
C891 H883 0.930 . S
C891 C892 1.355 . S
C891 C893 1.415 . S
C892 C891 1.355 . S
C892 C894 1.419 . S
C893 C888 1.425 . S
C893 C890 1.409 . S
C893 C891 1.415 . S
C894 H884 0.930 . S
C894 C892 1.419 . S
C894 C895 1.362 . S
C895 H885 0.930 . S
C895 C888 1.409 . S
C895 C894 1.362 . S
H896 C902 0.930 . S
H897 C905 0.930 . S
H898 C906 0.930 . S
H899 C907 0.930 . S
H900 C910 0.930 . S
H901 C911 0.930 . S
C902 H896 0.930 . S
C902 C903 1.355 . S
C902 C904 1.415 . S
C903 C902 1.355 . S
C903 C905 1.419 . S
C904 C902 1.415 . S
C904 C909 1.425 . S
C904 C911 1.409 . S
C905 H897 0.930 . S
C905 C903 1.419 . S
C905 C906 1.362 . S
C906 H898 0.930 . S
C906 C905 1.362 . S
C906 C909 1.409 . S
C907 H899 0.930 . S
C907 C908 1.355 . S
C907 C909 1.415 . S
C908 C907 1.355 . S
C908 C910 1.419 . S
C909 C904 1.425 . S
C909 C906 1.409 . S
C909 C907 1.415 . S
C910 H900 0.930 . S
C910 C908 1.419 . S
C910 C911 1.362 . S
C911 H901 0.930 . S
C911 C904 1.409 . S
C911 C910 1.362 . S
H912 C918 0.930 . S
H913 C921 0.930 . S
H914 C922 0.930 . S
H915 C923 0.930 . S
H916 C926 0.930 . S
H917 C927 0.930 . S
C918 H912 0.930 . S
C918 C919 1.355 . S
C918 C920 1.415 . S
C919 C918 1.355 . S
C919 C921 1.419 . S
C920 C918 1.415 . S
C920 C925 1.425 1_554 S
C920 C927 1.409 . S
C921 H913 0.930 . S
C921 C919 1.419 . S
C921 C922 1.362 1_554 S
C922 H914 0.930 . S
C922 C921 1.362 1_556 S
C922 C925 1.409 . S
C923 H915 0.930 . S
C923 C924 1.355 . S
C923 C925 1.415 . S
C924 C923 1.355 . S
C924 C926 1.419 . S
C925 C920 1.425 1_556 S
C925 C922 1.409 . S
C925 C923 1.415 . S
C926 H916 0.930 . S
C926 C924 1.419 . S
C926 C927 1.362 1_556 S
C927 H917 0.930 . S
C927 C920 1.409 . S
C927 C926 1.362 1_554 S
H928 C934 0.930 . S
H929 C937 0.930 . S
H930 C938 0.960 . S
H931 C939 0.930 . S
H932 C942 0.930 . S
H933 C943 0.930 1_655 S
C934 H928 0.930 . S
C934 C935 1.355 . S
C934 C936 1.415 . S
C935 C934 1.355 . S
C935 C937 1.419 . S
C936 C934 1.415 . S
C936 C941 1.425 1_554 S
C936 C943 1.409 . S
C937 H929 0.930 . S
C937 C935 1.419 . S
C937 C938 1.327 1_554 S
C938 H930 0.960 . S
C938 C937 1.327 1_556 S
C938 C941 1.417 . S
C939 H931 0.930 . S
C939 C940 1.355 . S
C939 C941 1.415 . S
C940 C939 1.355 . S
C940 C942 1.419 1_455 S
C941 C936 1.425 1_556 S
C941 C938 1.417 . S
C941 C939 1.415 . S
C942 H932 0.930 . S
C942 C940 1.419 1_655 S
C942 C943 1.362 1_656 S
C943 H933 0.930 1_455 S
C943 C936 1.409 . S
C943 C942 1.362 1_454 S
H944 C950 0.930 . S
H945 C953 0.930 . S
H946 C954 0.930 1_545 S
H947 C955 0.930 1_545 S
H948 C958 0.930 . S
H949 C959 0.930 . S
C950 H944 0.930 . S
C950 C951 1.355 . S
C950 C952 1.415 . S
C951 C950 1.355 . S
C951 C953 1.419 . S
C952 C950 1.415 . S
C952 C957 1.425 . S
C952 C959 1.409 1_556 S
C953 H945 0.930 . S
C953 C951 1.419 . S
C953 C954 1.362 . S
C954 H946 0.930 1_565 S
C954 C953 1.362 . S
C954 C957 1.409 . S
C955 H947 0.930 1_565 S
C955 C956 1.355 . S
C955 C957 1.415 1_554 S
C956 C955 1.355 . S
C956 C958 1.419 . S
C957 C952 1.425 . S
C957 C954 1.409 . S
C957 C955 1.415 1_556 S
C958 H948 0.930 . S
C958 C956 1.419 . S
C958 C959 1.362 . S
C959 H949 0.930 . S
C959 C952 1.409 1_554 S
C959 C958 1.362 . S
H960 C966 0.930 . S
H961 C969 0.930 . S
H962 C970 0.930 1_455 S
H963 C971 0.930 1_455 S
H964 C974 0.930 . S
H965 C975 0.930 . S
C966 H960 0.930 . S
C966 C967 1.355 . S
C966 C968 1.415 . S
C967 C966 1.355 . S
C967 C969 1.419 . S
C968 C966 1.415 . S
C968 C973 1.425 . S
C968 C975 1.409 1_554 S
C969 H961 0.930 . S
C969 C967 1.419 . S
C969 C970 1.362 . S
C970 H962 0.930 1_655 S
C970 C969 1.362 . S
C970 C973 1.409 . S
C971 H963 0.930 1_655 S
C971 C972 1.355 . S
C971 C973 1.415 1_556 S
C972 C971 1.355 . S
C972 C974 1.419 . S
C973 C968 1.425 . S
C973 C970 1.409 . S
C973 C971 1.415 1_554 S
C974 H964 0.930 . S
C974 C972 1.419 . S
C974 C975 1.362 . S
C975 H965 0.930 . S
C975 C968 1.409 1_556 S
C975 C974 1.362 . S
H976 C982 0.930 . S
H977 C985 0.930 . S
H978 C986 0.930 . S
H979 C987 0.930 . S
H980 C990 0.930 . S
H981 C991 0.930 . S
C982 H976 0.930 . S
C982 C983 1.355 . S
C982 C984 1.415 . S
C983 C982 1.355 . S
C983 C985 1.419 . S
C984 C982 1.415 . S
C984 C989 1.425 . S
C984 C991 1.409 . S
C985 H977 0.930 . S
C985 C983 1.419 . S
C985 C986 1.362 . S
C986 H978 0.930 . S
C986 C985 1.362 . S
C986 C989 1.409 . S
C987 H979 0.930 . S
C987 C988 1.355 . S
C987 C989 1.415 . S
C988 C987 1.355 . S
C988 C990 1.419 . S
C989 C984 1.425 . S
C989 C986 1.409 . S
C989 C987 1.415 . S
C990 H980 0.930 . S
C990 C988 1.419 . S
C990 C991 1.362 . S
C991 H981 0.930 . S
C991 C984 1.409 . S
C991 C990 1.362 . S
H992 C998 0.930 1_455 S
H993 C1001 0.930 . S
H994 C1002 0.930 . S
H995 C1003 0.930 . S
H996 C1006 0.930 . S
H997 C1007 0.930 . S
C998 H992 0.930 1_655 S
C998 C999 1.355 . S
C998 C1000 1.415 . S
C999 C998 1.355 . S
C999 C1001 1.419 . S
C1000 C998 1.415 . S
C1000 C1005 1.425 . S
C1000 C1007 1.409 . S
C1001 H993 0.930 . S
C1001 C999 1.419 . S
C1001 C1002 1.362 . S
C1002 H994 0.930 . S
C1002 C1001 1.362 . S
C1002 C1005 1.409 . S
C1003 H995 0.930 . S
C1003 C1004 1.355 . S
C1003 C1005 1.415 . S
C1004 C1003 1.355 . S
C1004 C1006 1.419 . S
C1005 C1000 1.425 . S
C1005 C1002 1.409 . S
C1005 C1003 1.415 . S
C1006 H996 0.930 . S
C1006 C1004 1.419 . S
C1006 C1007 1.362 . S
C1007 H997 0.930 . S
C1007 C1000 1.409 . S
C1007 C1006 1.362 . S
H1008 C1014 0.930 . S
H1009 C1017 0.930 1_565 S
H1010 C1018 0.930 . S
H1011 C1019 0.930 . S
H1012 C1022 0.930 . S
H1013 C1023 0.930 . S
C1014 H1008 0.930 . S
C1014 C1015 1.355 . S
C1014 C1016 1.415 . S
C1015 C1014 1.355 . S
C1015 C1017 1.419 . S
C1016 C1014 1.415 . S
C1016 C1021 1.425 . S
C1016 C1023 1.409 . S
C1017 H1009 0.930 1_545 S
C1017 C1015 1.419 . S
C1017 C1018 1.362 . S
C1018 H1010 0.930 . S
C1018 C1017 1.362 . S
C1018 C1021 1.409 . S
C1019 H1011 0.930 . S
C1019 C1020 1.355 . S
C1019 C1021 1.415 . S
C1020 C1019 1.355 . S
C1020 C1022 1.419 . S
C1021 C1016 1.425 . S
C1021 C1018 1.409 . S
C1021 C1019 1.415 . S
C1022 H1012 0.930 . S
C1022 C1020 1.419 . S
C1022 C1023 1.362 . S
C1023 H1013 0.930 . S
C1023 C1016 1.409 . S
C1023 C1022 1.362 . S
H1024 C1030 0.930 1_655 S
H1025 C1033 0.930 . S
H1026 C1034 0.930 . S
H1027 C1035 0.930 . S
H1028 C1038 0.930 . S
H1029 C1039 0.938 . S
C1030 H1024 0.930 1_455 S
C1030 C1031 1.355 . S
C1030 C1032 1.415 . S
C1031 C1030 1.355 . S
C1031 C1033 1.419 . S
C1032 C1030 1.415 . S
C1032 C1037 1.425 . S
C1032 C1039 1.409 . S
C1033 H1025 0.930 . S
C1033 C1031 1.419 . S
C1033 C1034 1.362 . S
C1034 H1026 0.930 . S
C1034 C1033 1.362 . S
C1034 C1037 1.409 . S
C1035 H1027 0.930 . S
C1035 C1036 1.355 . S
C1035 C1037 1.415 . S
C1036 C1035 1.355 . S
C1036 C1038 1.419 . S
C1037 C1032 1.425 . S
C1037 C1034 1.409 . S
C1037 C1035 1.415 . S
C1038 H1028 0.930 . S
C1038 C1036 1.419 . S
C1038 C1039 1.362 . S
C1039 H1029 0.938 . S
C1039 C1032 1.409 . S
C1039 C1038 1.362 . S
H1040 C1046 0.930 . S
H1041 C1049 0.930 . S
H1042 C1050 0.930 . S
H1043 C1051 0.930 . S
H1044 C1054 0.930 . S
H1045 C1055 0.930 . S
C1046 H1040 0.930 . S
C1046 C1047 1.355 . S
C1046 C1048 1.415 . S
C1047 C1046 1.355 . S
C1047 C1049 1.419 . S
C1048 C1046 1.415 . S
C1048 C1053 1.425 . S
C1048 C1055 1.409 . S
C1049 H1041 0.930 . S
C1049 C1047 1.419 . S
C1049 C1050 1.362 . S
C1050 H1042 0.930 . S
C1050 C1049 1.362 . S
C1050 C1053 1.409 . S
C1051 H1043 0.930 . S
C1051 C1052 1.355 . S
C1051 C1053 1.415 . S
C1052 C1051 1.355 . S
C1052 C1054 1.419 . S
C1053 C1048 1.425 . S
C1053 C1050 1.409 . S
C1053 C1051 1.415 . S
C1054 H1044 0.930 . S
C1054 C1052 1.419 . S
C1054 C1055 1.362 . S
C1055 H1045 0.930 . S
C1055 C1048 1.409 . S
C1055 C1054 1.362 . S
H1056 C1062 0.930 . S
H1057 C1065 0.930 . S
H1058 C1066 0.930 . S
H1059 C1067 0.930 . S
H1060 C1070 0.930 . S
H1061 C1071 0.930 . S
C1062 H1056 0.930 . S
C1062 C1063 1.355 . S
C1062 C1064 1.415 . S
C1063 C1062 1.355 . S
C1063 C1065 1.419 . S
C1064 C1062 1.415 . S
C1064 C1069 1.425 . S
C1064 C1071 1.409 . S
C1065 H1057 0.930 . S
C1065 C1063 1.419 . S
C1065 C1066 1.362 . S
C1066 H1058 0.930 . S
C1066 C1065 1.362 . S
C1066 C1069 1.409 . S
C1067 H1059 0.930 . S
C1067 C1068 1.355 . S
C1067 C1069 1.415 . S
C1068 C1067 1.355 . S
C1068 C1070 1.419 . S
C1069 C1064 1.425 . S
C1069 C1066 1.409 . S
C1069 C1067 1.415 . S
C1070 H1060 0.930 . S
C1070 C1068 1.419 . S
C1070 C1071 1.362 . S
C1071 H1061 0.930 . S
C1071 C1064 1.409 . S
C1071 C1070 1.362 . S
H1072 C1078 0.930 . S
H1073 C1081 0.930 . S
H1074 C1082 0.930 . S
H1075 C1083 0.930 . S
H1076 C1086 0.930 . S
H1077 C1087 0.930 . S
C1078 H1072 0.930 . S
C1078 C1079 1.355 . S
C1078 C1080 1.415 . S
C1079 C1078 1.355 . S
C1079 C1081 1.419 . S
C1080 C1078 1.415 . S
C1080 C1085 1.425 . S
C1080 C1087 1.409 . S
C1081 H1073 0.930 . S
C1081 C1079 1.419 . S
C1081 C1082 1.362 . S
C1082 H1074 0.930 . S
C1082 C1081 1.362 . S
C1082 C1085 1.409 . S
C1083 H1075 0.930 . S
C1083 C1084 1.355 . S
C1083 C1085 1.415 . S
C1084 C1083 1.355 . S
C1084 C1086 1.419 . S
C1085 C1080 1.425 . S
C1085 C1082 1.409 . S
C1085 C1083 1.415 . S
C1086 H1076 0.930 . S
C1086 C1084 1.419 . S
C1086 C1087 1.362 . S
C1087 H1077 0.930 . S
C1087 C1080 1.409 . S
C1087 C1086 1.362 . S
H1088 C1094 0.930 . S
H1089 C1097 0.930 . S
H1090 C1098 0.930 . S
H1091 C1099 0.930 . S
H1092 C1102 0.930 . S
H1093 C1103 0.930 . S
C1094 H1088 0.930 . S
C1094 C1095 1.355 . S
C1094 C1096 1.415 . S
C1095 C1094 1.355 . S
C1095 C1097 1.419 . S
C1096 C1094 1.415 . S
C1096 C1101 1.425 . S
C1096 C1103 1.409 . S
C1097 H1089 0.930 . S
C1097 C1095 1.419 . S
C1097 C1098 1.362 . S
C1098 H1090 0.930 . S
C1098 C1097 1.362 . S
C1098 C1101 1.409 . S
C1099 H1091 0.930 . S
C1099 C1100 1.355 . S
C1099 C1101 1.415 . S
C1100 C1099 1.355 . S
C1100 C1102 1.419 . S
C1101 C1096 1.425 . S
C1101 C1098 1.409 . S
C1101 C1099 1.415 . S
C1102 H1092 0.930 . S
C1102 C1100 1.419 . S
C1102 C1103 1.362 . S
C1103 H1093 0.930 . S
C1103 C1096 1.409 . S
C1103 C1102 1.362 . S
H1104 C1110 0.930 . S
H1105 C1113 0.930 . S
H1106 C1114 0.930 . S
H1107 C1115 0.930 . S
H1108 C1118 0.930 . S
H1109 C1119 0.930 . S
C1110 H1104 0.930 . S
C1110 C1111 1.355 . S
C1110 C1112 1.415 . S
C1111 C1110 1.355 . S
C1111 C1113 1.419 . S
C1112 C1110 1.415 . S
C1112 C1117 1.425 . S
C1112 C1119 1.409 . S
C1113 H1105 0.930 . S
C1113 C1111 1.419 . S
C1113 C1114 1.362 . S
C1114 H1106 0.930 . S
C1114 C1113 1.362 . S
C1114 C1117 1.409 . S
C1115 H1107 0.930 . S
C1115 C1116 1.355 . S
C1115 C1117 1.415 . S
C1116 C1115 1.355 . S
C1116 C1118 1.419 . S
C1117 C1112 1.425 . S
C1117 C1114 1.409 . S
C1117 C1115 1.415 . S
C1118 H1108 0.930 . S
C1118 C1116 1.419 . S
C1118 C1119 1.362 . S
C1119 H1109 0.930 . S
C1119 C1112 1.409 . S
C1119 C1118 1.362 . S
H1120 C1126 0.930 . S
H1121 C1129 0.930 . S
H1122 C1130 0.930 . S
H1123 C1131 0.930 . S
H1124 C1134 0.930 . S
H1125 C1135 0.930 . S
C1126 H1120 0.930 . S
C1126 C1127 1.355 . S
C1126 C1128 1.415 . S
C1127 C1126 1.355 . S
C1127 C1129 1.419 . S
C1128 C1126 1.415 . S
C1128 C1133 1.425 . S
C1128 C1135 1.409 . S
C1129 H1121 0.930 . S
C1129 C1127 1.419 . S
C1129 C1130 1.362 . S
C1130 H1122 0.930 . S
C1130 C1129 1.362 . S
C1130 C1133 1.409 . S
C1131 H1123 0.930 . S
C1131 C1132 1.355 . S
C1131 C1133 1.415 . S
C1132 C1131 1.355 . S
C1132 C1134 1.419 . S
C1133 C1128 1.425 . S
C1133 C1130 1.409 . S
C1133 C1131 1.415 . S
C1134 H1124 0.930 . S
C1134 C1132 1.419 . S
C1134 C1135 1.362 . S
C1135 H1125 0.930 . S
C1135 C1128 1.409 . S
C1135 C1134 1.362 . S
H1136 C1142 0.930 . S
H1137 C1145 0.930 . S
H1138 C1146 0.930 . S
H1139 C1147 0.930 . S
H1140 C1150 0.930 . S
H1141 C1151 0.930 . S
C1142 H1136 0.930 . S
C1142 C1143 1.355 . S
C1142 C1144 1.415 . S
C1143 C1142 1.355 . S
C1143 C1145 1.419 . S
C1144 C1142 1.415 . S
C1144 C1149 1.425 . S
C1144 C1151 1.409 . S
C1145 H1137 0.930 . S
C1145 C1143 1.419 . S
C1145 C1146 1.362 . S
C1146 H1138 0.930 . S
C1146 C1145 1.362 . S
C1146 C1149 1.409 . S
C1147 H1139 0.930 . S
C1147 C1148 1.355 . S
C1147 C1149 1.415 . S
C1148 C1147 1.355 . S
C1148 C1150 1.419 . S
C1149 C1144 1.425 . S
C1149 C1146 1.409 . S
C1149 C1147 1.415 . S
C1150 H1140 0.930 . S
C1150 C1148 1.419 . S
C1150 C1151 1.362 . S
C1151 H1141 0.930 . S
C1151 C1144 1.409 . S
C1151 C1150 1.362 . S
H1152 C1158 0.930 . S
H1153 C1161 0.930 . S
H1154 C1162 0.930 . S
H1155 C1163 0.930 . S
H1156 C1166 0.930 . S
H1157 C1167 0.930 . S
C1158 H1152 0.930 . S
C1158 C1159 1.355 . S
C1158 C1160 1.415 . S
C1159 C1158 1.355 . S
C1159 C1161 1.419 . S
C1160 C1158 1.415 . S
C1160 C1165 1.425 . S
C1160 C1167 1.409 . S
C1161 H1153 0.930 . S
C1161 C1159 1.419 . S
C1161 C1162 1.362 . S
C1162 H1154 0.930 . S
C1162 C1161 1.362 . S
C1162 C1165 1.409 . S
C1163 H1155 0.930 . S
C1163 C1164 1.355 . S
C1163 C1165 1.415 . S
C1164 C1163 1.355 . S
C1164 C1166 1.419 . S
C1165 C1160 1.425 . S
C1165 C1162 1.409 . S
C1165 C1163 1.415 . S
C1166 H1156 0.930 . S
C1166 C1164 1.419 . S
C1166 C1167 1.362 . S
C1167 H1157 0.930 . S
C1167 C1160 1.409 . S
C1167 C1166 1.362 . S
H1168 C1174 0.930 . S
H1169 C1177 0.930 . S
H1170 C1178 0.930 . S
H1171 C1179 0.930 . S
H1172 C1182 0.930 . S
H1173 C1183 0.930 . S
C1174 H1168 0.930 . S
C1174 C1175 1.355 . S
C1174 C1176 1.415 . S
C1175 C1174 1.355 . S
C1175 C1177 1.419 . S
C1176 C1174 1.415 . S
C1176 C1181 1.425 . S
C1176 C1183 1.409 . S
C1177 H1169 0.930 . S
C1177 C1175 1.419 . S
C1177 C1178 1.362 . S
C1178 H1170 0.930 . S
C1178 C1177 1.362 . S
C1178 C1181 1.409 . S
C1179 H1171 0.930 . S
C1179 C1180 1.355 . S
C1179 C1181 1.415 . S
C1180 C1179 1.355 . S
C1180 C1182 1.419 . S
C1181 C1176 1.425 . S
C1181 C1178 1.409 . S
C1181 C1179 1.415 . S
C1182 H1172 0.930 . S
C1182 C1180 1.419 . S
C1182 C1183 1.362 . S
C1183 H1173 0.930 . S
C1183 C1176 1.409 . S
C1183 C1182 1.362 . S
H1184 C1190 0.930 . S
H1185 C1193 0.930 . S
H1186 C1194 0.930 . S
H1187 C1195 0.930 . S
H1188 C1198 0.930 . S
H1189 C1199 0.930 . S
C1190 H1184 0.930 . S
C1190 C1191 1.355 . S
C1190 C1192 1.415 . S
C1191 C1190 1.355 . S
C1191 C1193 1.419 . S
C1192 C1190 1.415 . S
C1192 C1197 1.425 . S
C1192 C1199 1.409 . S
C1193 H1185 0.930 . S
C1193 C1191 1.419 . S
C1193 C1194 1.362 . S
C1194 H1186 0.930 . S
C1194 C1193 1.362 . S
C1194 C1197 1.409 . S
C1195 H1187 0.930 . S
C1195 C1196 1.355 . S
C1195 C1197 1.415 . S
C1196 C1195 1.355 . S
C1196 C1198 1.419 . S
C1197 C1192 1.425 . S
C1197 C1194 1.409 . S
C1197 C1195 1.415 . S
C1198 H1188 0.930 . S
C1198 C1196 1.419 . S
C1198 C1199 1.362 . S
C1199 H1189 0.930 . S
C1199 C1192 1.409 . S
C1199 C1198 1.362 . S
H1200 C1206 0.930 . S
H1201 C1209 0.930 . S
H1202 C1210 0.930 . S
H1203 C1211 0.930 . S
H1204 C1214 0.930 . S
H1205 C1215 0.930 . S
C1206 H1200 0.930 . S
C1206 C1207 1.355 . S
C1206 C1208 1.415 . S
C1207 C1206 1.355 . S
C1207 C1209 1.419 . S
C1208 C1206 1.415 . S
C1208 C1213 1.425 . S
C1208 C1215 1.409 . S
C1209 H1201 0.930 . S
C1209 C1207 1.419 . S
C1209 C1210 1.362 . S
C1210 H1202 0.930 . S
C1210 C1209 1.362 . S
C1210 C1213 1.409 . S
C1211 H1203 0.930 . S
C1211 C1212 1.355 . S
C1211 C1213 1.415 . S
C1212 C1211 1.355 . S
C1212 C1214 1.419 . S
C1213 C1208 1.425 . S
C1213 C1210 1.409 . S
C1213 C1211 1.415 . S
C1214 H1204 0.930 . S
C1214 C1212 1.419 . S
C1214 C1215 1.362 . S
C1215 H1205 0.930 . S
C1215 C1208 1.409 . S
C1215 C1214 1.362 . S
H1216 C1222 0.930 . S
H1217 C1225 0.930 . S
H1218 C1226 0.930 . S
H1219 C1227 0.930 . S
H1220 C1230 0.930 . S
H1221 C1231 0.930 . S
C1222 H1216 0.930 . S
C1222 C1223 1.355 . S
C1222 C1224 1.415 . S
C1223 C1222 1.355 . S
C1223 C1225 1.419 . S
C1224 C1222 1.415 . S
C1224 C1229 1.425 . S
C1224 C1231 1.409 . S
C1225 H1217 0.930 . S
C1225 C1223 1.419 . S
C1225 C1226 1.362 . S
C1226 H1218 0.930 . S
C1226 C1225 1.362 . S
C1226 C1229 1.409 . S
C1227 H1219 0.930 . S
C1227 C1228 1.355 . S
C1227 C1229 1.415 . S
C1228 C1227 1.355 . S
C1228 C1230 1.419 . S
C1229 C1224 1.425 . S
C1229 C1226 1.409 . S
C1229 C1227 1.415 . S
C1230 H1220 0.930 . S
C1230 C1228 1.419 . S
C1230 C1231 1.362 . S
C1231 H1221 0.930 . S
C1231 C1224 1.409 . S
C1231 C1230 1.362 . S
H1232 C1238 0.930 . S
H1233 C1241 0.930 . S
H1234 C1242 0.930 . S
H1235 C1243 0.930 . S
H1236 C1246 0.930 . S
H1237 C1247 0.930 . S
C1238 H1232 0.930 . S
C1238 C1239 1.355 . S
C1238 C1240 1.415 . S
C1239 C1238 1.355 . S
C1239 C1241 1.419 1_655 S
C1240 C1238 1.415 . S
C1240 C1245 1.425 1_665 S
C1240 C1247 1.409 1_565 S
C1241 H1233 0.930 . S
C1241 C1239 1.419 1_455 S
C1241 C1242 1.362 . S
C1242 H1234 0.930 . S
C1242 C1241 1.362 . S
C1242 C1245 1.409 1_565 S
C1243 H1235 0.930 . S
C1243 C1244 1.355 . S
C1243 C1245 1.415 . S
C1244 C1243 1.355 . S
C1244 C1246 1.419 1_455 S
C1245 C1240 1.425 1_445 S
C1245 C1242 1.409 1_545 S
C1245 C1243 1.415 . S
C1246 H1236 0.930 . S
C1246 C1244 1.419 1_655 S
C1246 C1247 1.362 . S
C1247 H1237 0.930 . S
C1247 C1240 1.409 1_545 S
C1247 C1246 1.362 . S
H1248 C1254 0.930 . S
H1249 C1257 0.930 . S
H1250 C1258 0.930 . S
H1251 C1259 0.930 . S
H1252 C1262 0.930 . S
H1253 C1263 0.930 . S
C1254 H1248 0.930 . S
C1254 C1255 1.355 . S
C1254 C1256 1.415 . S
C1255 C1254 1.355 . S
C1255 C1257 1.419 1_545 S
C1256 C1254 1.415 . S
C1256 C1261 1.425 1_645 S
C1256 C1263 1.409 1_655 S
C1257 H1249 0.930 . S
C1257 C1255 1.419 1_565 S
C1257 C1258 1.362 . S
C1258 H1250 0.930 . S
C1258 C1257 1.362 . S
C1258 C1261 1.409 1_655 S
C1259 H1251 0.930 . S
C1259 C1260 1.355 . S
C1259 C1261 1.415 . S
C1260 C1259 1.355 . S
C1260 C1262 1.419 1_565 S
C1261 C1256 1.425 1_465 S
C1261 C1258 1.409 1_455 S
C1261 C1259 1.415 . S
C1262 H1252 0.930 . S
C1262 C1260 1.419 1_545 S
C1262 C1263 1.362 . S
C1263 H1253 0.930 . S
C1263 C1256 1.409 1_455 S
C1263 C1262 1.362 . S
H1264 C1270 0.930 . S
H1265 C1273 0.930 . S
H1266 C1274 0.930 . S
H1267 C1275 0.930 . S
H1268 C1278 0.930 . S
H1269 C1279 0.930 . S
C1270 H1264 0.930 . S
C1270 C1271 1.355 1_655 S
C1270 C1272 1.415 . S
C1271 C1270 1.355 1_455 S
C1271 C1273 1.419 . S
C1272 C1270 1.415 . S
C1272 C1277 1.425 1_655 S
C1272 C1279 1.409 . S
C1273 H1265 0.930 . S
C1273 C1271 1.419 . S
C1273 C1274 1.362 . S
C1274 H1266 0.930 . S
C1274 C1273 1.362 . S
C1274 C1277 1.409 . S
C1275 H1267 0.930 . S
C1275 C1276 1.355 1_455 S
C1275 C1277 1.415 . S
C1276 C1275 1.355 1_655 S
C1276 C1278 1.419 . S
C1277 C1272 1.425 1_455 S
C1277 C1274 1.409 . S
C1277 C1275 1.415 . S
C1278 H1268 0.930 . S
C1278 C1276 1.419 . S
C1278 C1279 1.362 . S
C1279 H1269 0.930 . S
C1279 C1272 1.409 . S
C1279 C1278 1.362 . S
H1280 C1286 0.930 . S
H1281 C1289 0.930 . S
H1282 C1290 0.930 . S
H1283 C1291 0.930 . S
H1284 C1294 0.930 . S
H1285 C1295 0.930 . S
C1286 H1280 0.930 . S
C1286 C1287 1.355 1_545 S
C1286 C1288 1.415 . S
C1287 C1286 1.355 1_565 S
C1287 C1289 1.419 . S
C1288 C1286 1.415 . S
C1288 C1293 1.425 1_545 S
C1288 C1295 1.409 . S
C1289 H1281 0.930 . S
C1289 C1287 1.419 . S
C1289 C1290 1.362 . S
C1290 H1282 0.930 . S
C1290 C1289 1.362 . S
C1290 C1293 1.409 . S
C1291 H1283 0.930 . S
C1291 C1292 1.355 1_565 S
C1291 C1293 1.415 . S
C1292 C1291 1.355 1_545 S
C1292 C1294 1.419 . S
C1293 C1288 1.425 1_565 S
C1293 C1290 1.409 . S
C1293 C1291 1.415 . S
C1294 H1284 0.930 . S
C1294 C1292 1.419 . S
C1294 C1295 1.362 . S
C1295 H1285 0.930 . S
C1295 C1288 1.409 . S
C1295 C1294 1.362 . S
H1296 C1302 0.930 . S
H1297 C1305 0.930 . S
H1298 C1306 0.930 . S
H1299 C1307 0.930 . S
H1300 C1310 0.930 . S
H1301 C1311 0.930 . S
C1302 H1296 0.930 . S
C1302 C1303 1.355 . S
C1302 C1304 1.415 . S
C1303 C1302 1.355 . S
C1303 C1305 1.419 . S
C1304 C1302 1.415 . S
C1304 C1309 1.425 . S
C1304 C1311 1.409 . S
C1305 H1297 0.930 . S
C1305 C1303 1.419 . S
C1305 C1306 1.362 . S
C1306 H1298 0.930 . S
C1306 C1305 1.362 . S
C1306 C1309 1.409 . S
C1307 H1299 0.930 . S
C1307 C1308 1.355 . S
C1307 C1309 1.415 . S
C1308 C1307 1.355 . S
C1308 C1310 1.419 . S
C1309 C1304 1.425 . S
C1309 C1306 1.409 . S
C1309 C1307 1.415 . S
C1310 H1300 0.930 . S
C1310 C1308 1.419 . S
C1310 C1311 1.362 . S
C1311 H1301 0.930 . S
C1311 C1304 1.409 . S
C1311 C1310 1.362 . S
H1312 C1318 0.930 . S
H1313 C1321 0.930 . S
H1314 C1322 0.930 . S
H1315 C1323 0.930 . S
H1316 C1326 0.930 . S
H1317 C1327 0.930 . S
C1318 H1312 0.930 . S
C1318 C1319 1.355 . S
C1318 C1320 1.415 . S
C1319 C1318 1.355 . S
C1319 C1321 1.419 . S
C1320 C1318 1.415 . S
C1320 C1325 1.425 . S
C1320 C1327 1.409 . S
C1321 H1313 0.930 . S
C1321 C1319 1.419 . S
C1321 C1322 1.362 . S
C1322 H1314 0.930 . S
C1322 C1321 1.362 . S
C1322 C1325 1.409 . S
C1323 H1315 0.930 . S
C1323 C1324 1.355 . S
C1323 C1325 1.415 . S
C1324 C1323 1.355 . S
C1324 C1326 1.419 . S
C1325 C1320 1.425 . S
C1325 C1322 1.409 . S
C1325 C1323 1.415 . S
C1326 H1316 0.930 . S
C1326 C1324 1.419 . S
C1326 C1327 1.362 . S
C1327 H1317 0.930 . S
C1327 C1320 1.409 . S
C1327 C1326 1.362 . S
H1328 C1334 0.930 . S
H1329 C1337 0.930 . S
H1330 C1338 0.930 . S
H1331 C1339 0.930 . S
H1332 C1342 0.930 . S
H1333 C1343 0.930 . S
C1334 H1328 0.930 . S
C1334 C1335 1.355 . S
C1334 C1336 1.415 . S
C1335 C1334 1.355 . S
C1335 C1337 1.419 . S
C1336 C1334 1.415 . S
C1336 C1341 1.425 1_545 S
C1336 C1343 1.409 1_545 S
C1337 H1329 0.930 . S
C1337 C1335 1.419 . S
C1337 C1338 1.362 . S
C1338 H1330 0.930 . S
C1338 C1337 1.362 . S
C1338 C1341 1.409 1_545 S
C1339 H1331 0.930 . S
C1339 C1340 1.355 . S
C1339 C1341 1.415 . S
C1340 C1339 1.355 . S
C1340 C1342 1.419 . S
C1341 C1336 1.425 1_565 S
C1341 C1338 1.409 1_565 S
C1341 C1339 1.415 . S
C1342 H1332 0.930 . S
C1342 C1340 1.419 . S
C1342 C1343 1.362 . S
C1343 H1333 0.930 . S
C1343 C1336 1.409 1_565 S
C1343 C1342 1.362 . S
H1344 C1350 0.930 . S
H1345 C1353 0.930 . S
H1346 C1354 0.930 . S
H1347 C1355 0.930 . S
H1348 C1358 0.930 . S
H1349 C1359 0.930 . S
C1350 H1344 0.930 . S
C1350 C1351 1.355 . S
C1350 C1352 1.415 . S
C1351 C1350 1.355 . S
C1351 C1353 1.419 . S
C1352 C1350 1.415 . S
C1352 C1357 1.425 1_655 S
C1352 C1359 1.409 1_655 S
C1353 H1345 0.930 . S
C1353 C1351 1.419 . S
C1353 C1354 1.362 . S
C1354 H1346 0.930 . S
C1354 C1353 1.362 . S
C1354 C1357 1.409 1_655 S
C1355 H1347 0.930 . S
C1355 C1356 1.355 . S
C1355 C1357 1.415 . S
C1356 C1355 1.355 . S
C1356 C1358 1.419 . S
C1357 C1352 1.425 1_455 S
C1357 C1354 1.409 1_455 S
C1357 C1355 1.415 . S
C1358 H1348 0.930 . S
C1358 C1356 1.419 . S
C1358 C1359 1.362 . S
C1359 H1349 0.930 . S
C1359 C1352 1.409 1_455 S
C1359 C1358 1.362 . S
C855 C22 1.725 . S
C860 C621 1.773 . S
C871 C463 1.752 . S
C876 C82 1.671 . S
C887 C515 1.773 . S
C892 C128 1.723 . S
C903 C569 1.744 . S
C908 C188 1.660 . S
C919 C303 1.760 1_545 S
C924 C234 1.686 . S
C935 C294 1.660 . S
C940 C357 1.743 1_455 S
C951 C340 1.726 . S
C956 C409 1.770 1_565 S
C967 C400 1.722 . S
C972 C251 1.772 1_655 S
C983 C446 1.690 . S
C988 C197 1.751 1_565 S
C999 C39 1.773 1_655 S
C1004 C506 1.725 . S
C1015 C91 1.749 1_545 S
C1020 C552 1.685 . S
C1031 C145 1.773 1_455 S
C1036 C612 1.728 . S
C1047 C727 1.746 . S
C1052 C658 1.661 . S
C1063 C718 1.673 . S
C1068 C781 1.753 . S
C1079 C833 1.755 . S
C1084 C764 1.677 . S
C1095 C675 1.750 . S
C1100 C824 1.688 . S
C1111 C780 2.086 . S
C1116 C38 2.067 . S
C1127 C834 2.062 . S
C1132 C92 2.060 . S
C1143 C674 2.086 . S
C1148 C144 2.056 . S
C1159 C198 2.063 . S
C1164 C728 2.059 . S
C1175 C250 2.059 . S
C1180 C568 2.064 . S
C1191 C622 2.081 . S
C1196 C304 2.052 . S
C1207 C356 2.058 . S
C1212 C462 2.065 . S
C1223 C410 2.062 . S
C1228 C516 2.061 . S
C1239 C135 1.991 . S
C1244 C29 1.988 . S
C1255 C181 1.984 . S
C1260 C75 1.995 . S
C1271 C241 1.982 . S
C1276 C347 1.998 . S
C1287 C287 1.980 . S
C1292 C393 1.999 . S
C1303 C559 1.973 . S
C1308 C453 2.006 . S
C1319 C499 1.997 . S
C1324 C605 1.983 . S
C1335 C771 1.976 . S
C1340 C665 2.003 . S
C1351 C711 1.978 . S
C1356 C817 2.002 . S
