# Generated by pormake.
# Topology lcy-e, (6)-cn, num edge types: 1
# Building blocks:
#     Node 0, Type 0, BuildingBlock: BETDIP_clean_sbu_0, # of connection points: 6
#     Node 1, Type 0, BuildingBlock: BETDIP_clean_sbu_0, # of connection points: 6
#     Node 2, Type 0, BuildingBlock: BETDIP_clean_sbu_0, # of connection points: 6
#     Node 3, Type 0, BuildingBlock: BETDIP_clean_sbu_0, # of connection points: 6
#     Node 4, Type 0, BuildingBlock: BETDIP_clean_sbu_0, # of connection points: 6
#     Node 5, Type 0, BuildingBlock: BETDIP_clean_sbu_0, # of connection points: 6
#     Node 6, Type 0, BuildingBlock: BETDIP_clean_sbu_0, # of connection points: 6
#     Node 7, Type 0, BuildingBlock: BETDIP_clean_sbu_0, # of connection points: 6
#     Node 8, Type 0, BuildingBlock: BETDIP_clean_sbu_0, # of connection points: 6
#     Node 9, Type 0, BuildingBlock: BETDIP_clean_sbu_0, # of connection points: 6
#     Node 10, Type 0, BuildingBlock: BETDIP_clean_sbu_0, # of connection points: 6
#     Node 11, Type 0, BuildingBlock: BETDIP_clean_sbu_0, # of connection points: 6
#     Edge 12, Type (0, 0), BuildingBlock: MIFKUJ_clean_linker_0, # of connection points: 2
#     Edge 13, Type (0, 0), BuildingBlock: MIFKUJ_clean_linker_0, # of connection points: 2
#     Edge 14, Type (0, 0), BuildingBlock: MIFKUJ_clean_linker_0, # of connection points: 2
#     Edge 15, Type (0, 0), BuildingBlock: MIFKUJ_clean_linker_0, # of connection points: 2
#     Edge 16, Type (0, 0), BuildingBlock: MIFKUJ_clean_linker_0, # of connection points: 2
#     Edge 17, Type (0, 0), BuildingBlock: MIFKUJ_clean_linker_0, # of connection points: 2
#     Edge 18, Type (0, 0), BuildingBlock: MIFKUJ_clean_linker_0, # of connection points: 2
#     Edge 19, Type (0, 0), BuildingBlock: MIFKUJ_clean_linker_0, # of connection points: 2
#     Edge 20, Type (0, 0), BuildingBlock: MIFKUJ_clean_linker_0, # of connection points: 2
#     Edge 21, Type (0, 0), BuildingBlock: MIFKUJ_clean_linker_0, # of connection points: 2
#     Edge 22, Type (0, 0), BuildingBlock: MIFKUJ_clean_linker_0, # of connection points: 2
#     Edge 23, Type (0, 0), BuildingBlock: MIFKUJ_clean_linker_0, # of connection points: 2
#     Edge 24, Type (0, 0), BuildingBlock: MIFKUJ_clean_linker_0, # of connection points: 2
#     Edge 25, Type (0, 0), BuildingBlock: MIFKUJ_clean_linker_0, # of connection points: 2
#     Edge 26, Type (0, 0), BuildingBlock: MIFKUJ_clean_linker_0, # of connection points: 2
#     Edge 27, Type (0, 0), BuildingBlock: MIFKUJ_clean_linker_0, # of connection points: 2
#     Edge 28, Type (0, 0), BuildingBlock: MIFKUJ_clean_linker_0, # of connection points: 2
#     Edge 29, Type (0, 0), BuildingBlock: MIFKUJ_clean_linker_0, # of connection points: 2
#     Edge 30, Type (0, 0), BuildingBlock: MIFKUJ_clean_linker_0, # of connection points: 2
#     Edge 31, Type (0, 0), BuildingBlock: MIFKUJ_clean_linker_0, # of connection points: 2
#     Edge 32, Type (0, 0), BuildingBlock: MIFKUJ_clean_linker_0, # of connection points: 2
#     Edge 33, Type (0, 0), BuildingBlock: MIFKUJ_clean_linker_0, # of connection points: 2
#     Edge 34, Type (0, 0), BuildingBlock: MIFKUJ_clean_linker_0, # of connection points: 2
#     Edge 35, Type (0, 0), BuildingBlock: MIFKUJ_clean_linker_0, # of connection points: 2
#     Edge 36, Type (0, 0), BuildingBlock: MIFKUJ_clean_linker_0, # of connection points: 2
#     Edge 37, Type (0, 0), BuildingBlock: MIFKUJ_clean_linker_0, # of connection points: 2
#     Edge 38, Type (0, 0), BuildingBlock: MIFKUJ_clean_linker_0, # of connection points: 2
#     Edge 39, Type (0, 0), BuildingBlock: MIFKUJ_clean_linker_0, # of connection points: 2
#     Edge 40, Type (0, 0), BuildingBlock: MIFKUJ_clean_linker_0, # of connection points: 2
#     Edge 41, Type (0, 0), BuildingBlock: MIFKUJ_clean_linker_0, # of connection points: 2
#     Edge 42, Type (0, 0), BuildingBlock: MIFKUJ_clean_linker_0, # of connection points: 2
#     Edge 43, Type (0, 0), BuildingBlock: MIFKUJ_clean_linker_0, # of connection points: 2
#     Edge 44, Type (0, 0), BuildingBlock: MIFKUJ_clean_linker_0, # of connection points: 2
#     Edge 45, Type (0, 0), BuildingBlock: MIFKUJ_clean_linker_0, # of connection points: 2
#     Edge 46, Type (0, 0), BuildingBlock: MIFKUJ_clean_linker_0, # of connection points: 2
#     Edge 47, Type (0, 0), BuildingBlock: MIFKUJ_clean_linker_0, # of connection points: 2
# Relax obj value: 0.204
# Max RMSD: 0.292
# Mean RMSD: 0.271
data_MOF--net-lcy-e--node1-BETDIP_clean_sbu_0--edge1-MIFKUJ_clean_linker_0
_symmetry_space_group_name_H-M    P1
_symmetry_Int_Tables_number       1
_symmetry_cell_setting            triclinic
loop_
_symmetry_equiv_pos_as_xyz
'x, y, z'
_cell_length_a     51.63083
_cell_length_b     56.131907
_cell_length_c     56.228685
_cell_angle_alpha  90.827368
_cell_angle_beta   90.539935
_cell_angle_gamma 88.438255
loop_
_atom_site_label
_atom_site_type_symbol
_atom_site_fract_x
_atom_site_fract_y
_atom_site_fract_z
_atom_type_partial_charge
Tb0 Tb 0.14574 0.24509 0.54835 0.0
Tb1 Tb 0.1314 0.27789 0.50752 0.0
C2 C 0.15097 0.22367 0.58726 0.0
C3 C 0.14459 0.19964 0.59528 0.0
C4 C 0.1358 0.18235 0.57905 0.0
C5 C 0.12753 0.16031 0.58707 0.0
C6 C 0.12792 0.15512 0.6115 0.0
C7 C 0.13692 0.17251 0.62765 0.0
C8 C 0.14508 0.19456 0.61962 0.0
C9 C 0.16907 0.23494 0.50748 0.0
C10 C 0.0998 0.22992 0.51461 0.0
C11 C 0.1264 0.29368 0.46602 0.0
C12 C 0.14147 0.30577 0.44756 0.0
C13 C 0.15504 0.29236 0.43014 0.0
C14 C 0.16655 0.3036 0.41101 0.0
C15 C 0.16473 0.32851 0.40878 0.0
C16 C 0.15188 0.34198 0.4266 0.0
C17 C 0.14028 0.33074 0.44569 0.0
C18 C 0.10969 0.28996 0.54831 0.0
C19 C 0.17332 0.29531 0.54267 0.0
O20 O 0.13084 0.23714 0.5817 0.0
O21 O 0.16959 0.22512 0.5717 0.0
O22 O 0.16404 0.25541 0.51603 0.0
O23 O 0.1623 0.21927 0.52278 0.0
O24 O 0.11355 0.22495 0.53395 0.0
O25 O 0.10354 0.24934 0.50208 0.0
O26 O 0.13308 0.27154 0.47077 0.0
O27 O 0.12002 0.306 0.48518 0.0
O28 O 0.1145 0.26905 0.5406 0.0
O29 O 0.11366 0.30489 0.53141 0.0
O30 O 0.16593 0.2952 0.52009 0.0
O31 O 0.16617 0.27837 0.55742 0.0
H32 H 0.13499 0.18602 0.56019 0.0
H33 H 0.12093 0.14731 0.57412 0.0
H34 H 0.13709 0.1693 0.6466 0.0
H35 H 0.15131 0.20784 0.63247 0.0
H36 H 0.15621 0.27309 0.43089 0.0
H37 H 0.17656 0.29272 0.39774 0.0
H38 H 0.14985 0.36117 0.4253 0.0
H39 H 0.1297 0.34161 0.45859 0.0
Tb40 Tb 0.00694 0.89966 0.73715 0.0
Tb41 Tb 0.05207 0.91149 0.76961 0.0
C42 C 0.96671 0.90049 0.71137 0.0
C43 C 0.95746 0.91074 0.68874 0.0
C44 C 0.93082 0.91142 0.6838 0.0
C45 C 0.92139 0.92006 0.66211 0.0
C46 C 0.93841 0.9283 0.64482 0.0
C47 C 0.9652 0.92779 0.64993 0.0
C48 C 0.97464 0.91912 0.67174 0.0
C49 C 0.04581 0.86874 0.73546 0.0
C50 C 0.04669 0.94027 0.72278 0.0
C51 C 0.09298 0.91156 0.79444 0.0
C52 C 0.11064 0.89697 0.80949 0.0
C53 C 0.13736 0.90023 0.80757 0.0
C54 C 0.15487 0.88842 0.8227 0.0
C55 C 0.1461 0.87291 0.84012 0.0
C56 C 0.11926 0.86929 0.84177 0.0
C57 C 0.10166 0.8812 0.82655 0.0
C58 C 0.00971 0.93932 0.77368 0.0
C59 C 0.01191 0.87345 0.78565 0.0
O60 O 0.97062 0.91548 0.72901 0.0
O61 O 0.98503 0.88398 0.70988 0.0
O62 O 0.0479 0.89115 0.73729 0.0
O63 O 0.02171 0.86347 0.7327 0.0
O64 O 0.02442 0.92961 0.71865 0.0
O65 O 0.06195 0.93448 0.74084 0.0
O66 O 0.09248 0.90643 0.77165 0.0
O67 O 0.07001 0.91746 0.80273 0.0
O68 O 0.01125 0.91734 0.7701 0.0
O69 O 0.03304 0.9468 0.77707 0.0
O70 O 0.03655 0.87955 0.78585 0.0
O71 O 0.99519 0.88236 0.76979 0.0
H72 H 0.91727 0.90492 0.69664 0.0
H73 H 0.90072 0.91977 0.65871 0.0
H74 H 0.97884 0.93419 0.63714 0.0
H75 H 0.99531 0.91875 0.67523 0.0
H76 H 0.1447 0.91242 0.79463 0.0
H77 H 0.1753 0.89192 0.8211 0.0
H78 H 0.11187 0.85728 0.85482 0.0
H79 H 0.08111 0.87834 0.82835 0.0
Tb80 Tb 0.37859 0.79527 0.04079 0.0
Tb81 Tb 0.39157 0.76461 0.99736 0.0
C82 C 0.37635 0.82181 0.0772 0.0
C83 C 0.3907 0.84085 0.08922 0.0
C84 C 0.41312 0.85024 0.07944 0.0
C85 C 0.42397 0.87077 0.08947 0.0
C86 C 0.41243 0.88219 0.10933 0.0
C87 C 0.39081 0.87186 0.1197 0.0
C88 C 0.38004 0.85146 0.10969 0.0
C89 C 0.34241 0.79451 1.00734 0.0
C90 C 0.42193 0.81233 1.00505 0.0
C91 C 0.39404 0.75027 0.95459 0.0
C92 C 0.38297 0.73383 0.93644 0.0
C93 C 0.36719 0.74345 0.91826 0.0
C94 C 0.35907 0.7293 0.89909 0.0
C95 C 0.3664 0.70502 0.89751 0.0
C96 C 0.38167 0.6952 0.91606 0.0
C97 C 0.38997 0.70946 0.93526 0.0
C98 C 0.41688 0.75273 0.03671 0.0
C99 C 0.35616 0.74403 0.03611 0.0
O100 O 0.38663 0.8002 0.07727 0.0
O101 O 0.36605 0.82738 0.05659 0.0
O102 O 0.36656 0.79493 1.00423 0.0
O103 O 0.33793 0.79517 0.02991 0.0
O104 O 0.40732 0.81743 0.02381 0.0
O105 O 0.41993 0.79213 0.99283 0.0
O106 O 0.37867 0.76754 0.96222 0.0
O107 O 0.40912 0.74182 0.97154 0.0
O108 O 0.41073 0.77351 0.03003 0.0
O109 O 0.41031 0.73756 0.02016 0.0
O110 O 0.36012 0.74508 0.01286 0.0
O111 O 0.36487 0.76049 0.05113 0.0
H112 H 0.42167 0.8422 0.06366 0.0
H113 H 0.44066 0.87825 0.0811 0.0
H114 H 0.38182 0.87986 0.13532 0.0
H115 H 0.36278 0.84443 0.11751 0.0
H116 H 0.36181 0.76225 0.9184 0.0
H117 H 0.34786 0.73772 0.88502 0.0
H118 H 0.38747 0.67652 0.91564 0.0
H119 H 0.40229 0.70151 0.94885 0.0
Tb120 Tb 0.51939 0.14103 0.24549 0.0
Tb121 Tb 0.47203 0.13081 0.27497 0.0
C122 C 0.56113 0.13711 0.22251 0.0
C123 C 0.57022 0.12924 0.19872 0.0
C124 C 0.55623 0.11333 0.18434 0.0
C125 C 0.56579 0.10586 0.16205 0.0
C126 C 0.58956 0.11415 0.15376 0.0
C127 C 0.60323 0.13032 0.16822 0.0
C128 C 0.59368 0.13771 0.1904 0.0
C129 C 0.48025 0.17093 0.23845 0.0
C130 C 0.48027 0.10008 0.22913 0.0
C131 C 0.43063 0.13222 0.29876 0.0
C132 C 0.41356 0.14713 0.3146 0.0
C133 C 0.39621 0.16454 0.30543 0.0
C134 C 0.3773 0.17554 0.32 0.0
C135 C 0.37521 0.16952 0.34416 0.0
C136 C 0.39315 0.1526 0.35339 0.0
C137 C 0.41196 0.14156 0.33883 0.0
C138 C 0.51426 0.10374 0.28272 0.0
C139 C 0.51138 0.16942 0.29295 0.0
O140 O 0.55264 0.12064 0.23646 0.0
O141 O 0.54671 0.15662 0.22344 0.0
O142 O 0.47826 0.14878 0.24203 0.0
O143 O 0.50442 0.17595 0.2363 0.0
O144 O 0.50273 0.11055 0.22657 0.0
O145 O 0.46354 0.10664 0.24576 0.0
O146 O 0.43186 0.13766 0.27624 0.0
O147 O 0.45306 0.1247 0.3072 0.0
O148 O 0.51276 0.1255 0.27855 0.0
O149 O 0.49089 0.09599 0.28423 0.0
O150 O 0.48668 0.16379 0.29088 0.0
O151 O 0.52913 0.15954 0.27869 0.0
H152 H 0.53803 0.10657 0.19036 0.0
H153 H 0.55481 0.0933 0.15151 0.0
H154 H 0.62133 0.13744 0.16232 0.0
H155 H 0.60476 0.15004 0.20115 0.0
H156 H 0.39664 0.16916 0.2868 0.0
H157 H 0.36405 0.18852 0.31216 0.0
H158 H 0.39203 0.14701 0.37168 0.0
H159 H 0.42463 0.1279 0.34638 0.0
Tb160 Tb 0.64476 0.25602 0.56228 0.0
Tb161 Tb 0.64877 0.30067 0.53102 0.0
C162 C 0.64552 0.21619 0.5826 0.0
C163 C 0.65319 0.20692 0.6065 0.0
C164 C 0.6785 0.19786 0.61071 0.0
C165 C 0.68564 0.18851 0.6329 0.0
C166 C 0.66765 0.18775 0.65152 0.0
C167 C 0.64231 0.19676 0.64727 0.0
C168 C 0.63517 0.20616 0.62508 0.0
C169 C 0.61839 0.29441 0.57669 0.0
C170 C 0.68322 0.29496 0.57842 0.0
C171 C 0.64699 0.34265 0.51532 0.0
C172 C 0.63863 0.35882 0.49583 0.0
C173 C 0.61282 0.3601 0.48755 0.0
C174 C 0.60444 0.37842 0.4723 0.0
C175 C 0.62162 0.39594 0.46498 0.0
C176 C 0.64766 0.39397 0.47259 0.0
C177 C 0.65599 0.37569 0.48781 0.0
C178 C 0.6751 0.26245 0.51617 0.0
C179 C 0.61283 0.26079 0.51317 0.0
O180 O 0.66417 0.22353 0.56918 0.0
O181 O 0.62486 0.23023 0.58125 0.0
O182 O 0.62169 0.28752 0.55553 0.0
O183 O 0.62765 0.27813 0.59069 0.0
O184 O 0.67756 0.27219 0.57978 0.0
O185 O 0.67233 0.30931 0.56245 0.0
O186 O 0.6289 0.33342 0.52817 0.0
O187 O 0.66672 0.32782 0.51191 0.0
O188 O 0.67162 0.2691 0.53747 0.0
O189 O 0.66546 0.27872 0.50217 0.0
O190 O 0.61696 0.28394 0.51296 0.0
O191 O 0.62345 0.24642 0.52943 0.0
H192 H 0.69283 0.19779 0.59676 0.0
H193 H 0.70519 0.18141 0.63527 0.0
H194 H 0.62796 0.19674 0.66119 0.0
H195 H 0.61546 0.21276 0.62249 0.0
H196 H 0.59889 0.34743 0.49347 0.0
H197 H 0.58437 0.37906 0.46655 0.0
H198 H 0.66144 0.40719 0.46766 0.0
H199 H 0.67588 0.37537 0.49417 0.0
Tb200 Tb 0.98672 0.39911 0.78845 0.0
Tb201 Tb 0.02519 0.38715 0.82742 0.0
C202 C 0.96198 0.40738 0.75051 0.0
C203 C 0.93547 0.40391 0.74185 0.0
C204 C 0.9177 0.39174 0.75559 0.0
C205 C 0.89387 0.38531 0.74579 0.0
C206 C 0.88747 0.39096 0.72212 0.0
C207 C 0.90495 0.40408 0.70882 0.0
C208 C 0.92879 0.41043 0.71861 0.0
C209 C 0.97689 0.41937 0.83049 0.0
C210 C 0.97474 0.3552 0.81942 0.0
C211 C 0.04449 0.3807 0.86819 0.0
C212 C 0.0564 0.39287 0.88887 0.0
C213 C 0.04624 0.41447 0.89831 0.0
C214 C 0.05635 0.42403 0.91954 0.0
C215 C 0.07656 0.41201 0.9318 0.0
C216 C 0.08708 0.39077 0.92188 0.0
C217 C 0.07711 0.38134 0.90068 0.0
C218 C 0.03783 0.36873 0.78558 0.0
C219 C 0.03829 0.42809 0.79443 0.0
O220 O 0.97511 0.38765 0.75464 0.0
O221 O 0.96507 0.42332 0.76744 0.0
O222 O 0.99862 0.41597 0.82098 0.0
O223 O 0.95933 0.41194 0.81573 0.0
O224 O 0.96792 0.36743 0.80038 0.0
O225 O 0.99557 0.3603 0.83226 0.0
O226 O 0.01978 0.38505 0.86413 0.0
O227 O 0.05797 0.37887 0.8486 0.0
O228 O 0.01519 0.37146 0.79377 0.0
O229 O 0.05443 0.37316 0.8024 0.0
O230 O 0.03945 0.42131 0.81685 0.0
O231 O 0.02142 0.41881 0.77922 0.0
H232 H 0.92265 0.38649 0.77357 0.0
H233 H 0.88069 0.37547 0.75657 0.0
H234 H 0.90075 0.40845 0.69046 0.0
H235 H 0.94243 0.41962 0.70772 0.0
H236 H 0.03011 0.42362 0.88967 0.0
H237 H 0.04779 0.44039 0.92674 0.0
H238 H 0.10297 0.3813 0.93062 0.0
H239 H 0.08519 0.36464 0.89379 0.0
Tb240 Tb 0.89569 0.77865 0.05384 0.0
Tb241 Tb 0.8884 0.73459 0.02289 0.0
C242 C 0.89754 0.81904 0.07379 0.0
C243 C 0.88911 0.82908 0.0972 0.0
C244 C 0.86522 0.84157 0.09923 0.0
C245 C 0.85701 0.85093 0.12121 0.0
C246 C 0.8725 0.84811 0.14176 0.0
C247 C 0.89651 0.8358 0.13966 0.0
C248 C 0.90474 0.82646 0.11767 0.0
C249 C 0.92529 0.74106 0.0644 0.0
C250 C 0.85646 0.74198 0.07173 0.0
C251 C 0.88739 0.69202 1.00797 0.0
C252 C 0.90005 0.67374 0.99231 0.0
C253 C 0.92363 0.6623 0.99875 0.0
C254 C 0.93307 0.64247 0.9857 0.0
C255 C 0.91913 0.63356 0.96599 0.0
C256 C 0.89601 0.64556 0.95917 0.0
C257 C 0.88659 0.66532 0.9722 0.0
C258 C 0.8591 0.77192 0.0114 0.0
C259 C 0.92253 0.77346 1.00288 0.0
O260 O 0.87912 0.81282 0.05903 0.0
O261 O 0.91694 0.80351 0.07375 0.0
O262 O 0.9193 0.74807 0.04388 0.0
O263 O 0.91553 0.75589 0.07997 0.0
O264 O 0.86443 0.76406 0.07388 0.0
O265 O 0.86456 0.72752 0.05428 0.0
O266 O 0.89967 0.69874 0.02734 0.0
O267 O 0.87462 0.7097 0.99786 0.0
O268 O 0.86537 0.76539 0.03207 0.0
O269 O 0.86766 0.75606 0.99617 0.0
O270 O 0.91966 0.75011 1.00339 0.0
O271 O 0.91243 0.78797 0.01942 0.0
H272 H 0.85282 0.84416 0.08378 0.0
H273 H 0.83863 0.86066 0.12201 0.0
H274 H 0.90887 0.83308 0.15511 0.0
H275 H 0.92332 0.81707 0.11679 0.0
H276 H 0.93442 0.66816 0.01427 0.0
H277 H 0.95111 0.6339 0.99129 0.0
H278 H 0.88453 0.63907 0.94434 0.0
H279 H 0.86814 0.67345 0.96705 0.0
Tb280 Tb 0.5068 0.64834 0.31557 0.0
Tb281 Tb 0.55116 0.63263 0.28392 0.0
C282 C 0.46464 0.65552 0.33681 0.0
C283 C 0.45598 0.65118 0.36122 0.0
C284 C 0.42978 0.6545 0.36697 0.0
C285 C 0.42075 0.64778 0.38923 0.0
C286 C 0.43777 0.63751 0.40619 0.0
C287 C 0.46419 0.63471 0.40047 0.0
C288 C 0.4732 0.64146 0.37819 0.0
C289 C 0.55217 0.6673 0.32697 0.0
C290 C 0.54393 0.60588 0.33143 0.0
C291 C 0.59149 0.62898 0.25931 0.0
C292 C 0.60816 0.64303 0.2438 0.0
C293 C 0.62521 0.65993 0.25326 0.0
C294 C 0.64325 0.67062 0.23868 0.0
C295 C 0.6448 0.66447 0.21438 0.0
C296 C 0.62706 0.64828 0.2048 0.0
C297 C 0.60902 0.63764 0.21935 0.0
C298 C 0.50892 0.60657 0.28108 0.0
C299 C 0.51245 0.67296 0.2651 0.0
O300 O 0.47036 0.63612 0.32452 0.0
O301 O 0.48178 0.67209 0.33413 0.0
O302 O 0.54345 0.66313 0.30636 0.0
O303 O 0.53469 0.66126 0.34194 0.0
O304 O 0.51987 0.61468 0.33176 0.0
O305 O 0.56114 0.61401 0.31656 0.0
O306 O 0.59156 0.63409 0.28217 0.0
O307 O 0.56836 0.62395 0.25117 0.0
O308 O 0.51045 0.6286 0.28364 0.0
O309 O 0.53223 0.59782 0.27849 0.0
O310 O 0.53542 0.66207 0.263 0.0
O311 O 0.49735 0.66956 0.28374 0.0
H312 H 0.41614 0.66166 0.35398 0.0
H313 H 0.40024 0.64989 0.39283 0.0
H314 H 0.47791 0.62714 0.41314 0.0
H315 H 0.49348 0.63854 0.37399 0.0
H316 H 0.62533 0.6643 0.27207 0.0
H317 H 0.65677 0.68287 0.24667 0.0
H318 H 0.62746 0.64343 0.18609 0.0
H319 H 0.59626 0.62458 0.21157 0.0
Tb320 Tb 0.27248 0.47772 0.16108 0.0
Tb321 Tb 0.22587 0.50835 0.17542 0.0
C322 C 0.31209 0.45063 0.15744 0.0
C323 C 0.32208 0.42808 0.1676 0.0
C324 C 0.31408 0.42014 0.18986 0.0
C325 C 0.32279 0.39789 0.19833 0.0
C326 C 0.33981 0.38331 0.1847 0.0
C327 C 0.34778 0.39151 0.16246 0.0
C328 C 0.339 0.41361 0.15403 0.0
C329 C 0.23353 0.4778 0.1307 0.0
C330 C 0.23423 0.46043 0.20172 0.0
C331 C 0.18337 0.53155 0.17687 0.0
C332 C 0.1645 0.54642 0.16343 0.0
C333 C 0.17147 0.56036 0.14407 0.0
C334 C 0.15288 0.57535 0.13295 0.0
C335 C 0.12715 0.57665 0.14114 0.0
C336 C 0.12028 0.56204 0.16005 0.0
C337 C 0.13873 0.54714 0.17102 0.0
C338 C 0.26677 0.51079 0.20434 0.0
C339 C 0.26645 0.5281 0.13905 0.0
O340 O 0.31083 0.4694 0.17153 0.0
O341 O 0.29146 0.44888 0.14398 0.0
O342 O 0.23156 0.4775 0.1531 0.0
O343 O 0.2577 0.4769 0.12492 0.0
O344 O 0.25714 0.45829 0.19136 0.0
O345 O 0.21733 0.47758 0.19631 0.0
O346 O 0.18545 0.509 0.1708 0.0
O347 O 0.20573 0.54066 0.18252 0.0
O348 O 0.26662 0.50877 0.18213 0.0
O349 O 0.24304 0.51479 0.211 0.0
O350 O 0.24177 0.52752 0.14537 0.0
O351 O 0.28358 0.51154 0.14608 0.0
H352 H 0.30106 0.43107 0.2006 0.0
H353 H 0.3164 0.39222 0.21559 0.0
H354 H 0.36047 0.38062 0.15127 0.0
H355 H 0.34518 0.4193 0.13669 0.0
H356 H 0.19125 0.55995 0.13784 0.0
H357 H 0.15878 0.58635 0.11841 0.0
H358 H 0.10057 0.56218 0.16648 0.0
H359 H 0.1329 0.53639 0.18581 0.0
Tb360 Tb 0.77392 0.05376 0.91418 0.0
Tb361 Tb 0.72751 0.02539 0.9005 0.0
C362 C 0.81452 0.07766 0.9154 0.0
C363 C 0.82439 0.10001 0.90575 0.0
C364 C 0.82384 0.10489 0.88128 0.0
C365 C 0.83447 0.12585 0.87282 0.0
C366 C 0.84581 0.14234 0.88864 0.0
C367 C 0.84572 0.13753 0.91314 0.0
C368 C 0.83525 0.1166 0.92154 0.0
C369 C 0.73581 0.05675 0.94489 0.0
C370 C 0.73432 0.0725 0.87334 0.0
C371 C 0.68595 1.00284 0.90017 0.0
C372 C 0.66924 0.98864 0.91564 0.0
C373 C 0.64896 0.9999 0.92846 0.0
C374 C 0.6306 0.98646 0.94004 0.0
C375 C 0.63196 0.96142 0.93905 0.0
C376 C 0.65289 0.95014 0.92713 0.0
C377 C 0.67124 0.96359 0.91546 0.0
C378 C 0.76834 0.02036 0.8724 0.0
C379 C 0.76862 1.0042 0.93754 0.0
O380 O 0.81081 0.05988 0.90051 0.0
O381 O 0.796 0.08003 0.93102 0.0
O382 O 0.73311 0.05641 0.92245 0.0
O383 O 0.7602 0.05697 0.95036 0.0
O384 O 0.75721 0.07418 0.88411 0.0
O385 O 0.71795 0.05587 0.87883 0.0
O386 O 0.68736 0.02565 0.90508 0.0
O387 O 0.70827 0.99345 0.89346 0.0
O388 O 0.76798 0.02221 0.89455 0.0
O389 O 0.74461 0.01949 0.86468 0.0
O390 O 0.74383 1.00597 0.93118 0.0
O391 O 0.78551 0.01973 0.92997 0.0
H392 H 0.8155 0.09243 0.86867 0.0
H393 H 0.83434 0.12884 0.85384 0.0
H394 H 0.85373 0.14999 0.92593 0.0
H395 H 0.8358 0.11329 0.94048 0.0
H396 H 0.64667 0.01914 0.92888 0.0
H397 H 0.61494 0.99571 0.94932 0.0
H398 H 0.65439 0.93088 0.92584 0.0
H399 H 0.68642 0.95433 0.90553 0.0
Tb400 Tb 0.75439 0.97949 0.40274 0.0
Tb401 Tb 0.80049 1.00968 0.39008 0.0
C402 C 0.71697 0.95148 0.40461 0.0
C403 C 0.70653 0.93019 0.39214 0.0
C404 C 0.67964 0.92838 0.3891 0.0
C405 C 0.66891 0.90716 0.38063 0.0
C406 C 0.68479 0.88704 0.37506 0.0
C407 C 0.71187 0.88929 0.37709 0.0
C408 C 0.7226 0.91059 0.38551 0.0
C409 C 0.7921 0.98065 0.43441 0.0
C410 C 0.79516 0.96186 0.36268 0.0
C411 C 0.84171 0.03293 0.3918 0.0
C412 C 0.85726 0.04975 0.40635 0.0
C413 C 0.86645 0.04415 0.42931 0.0
C414 C 0.88408 0.05895 0.44116 0.0
C415 C 0.89297 0.07968 0.43035 0.0
C416 C 0.8831 0.0855 0.40767 0.0
C417 C 0.86555 0.07074 0.39587 0.0
C418 C 0.76093 0.01134 0.35957 0.0
C419 C 0.75656 0.031 0.42444 0.0
O420 O 0.71556 0.97198 0.39376 0.0
O421 O 0.73891 0.94842 0.41613 0.0
O422 O 0.79493 0.97954 0.41211 0.0
O423 O 0.76775 0.97998 0.43945 0.0
O424 O 0.77157 0.9606 0.37173 0.0
O425 O 0.81151 0.97825 0.36969 0.0
O426 O 0.83987 0.01104 0.39927 0.0
O427 O 0.82008 0.04102 0.38214 0.0
O428 O 0.7601 1.00973 0.38176 0.0
O429 O 0.78471 0.01539 0.35382 0.0
O430 O 0.78141 0.03026 0.4186 0.0
O431 O 0.74067 0.01376 0.41789 0.0
H432 H 0.66681 0.9432 0.39402 0.0
H433 H 0.64805 0.90642 0.37881 0.0
H434 H 0.72481 0.87428 0.37315 0.0
H435 H 0.74343 0.91141 0.38761 0.0
H436 H 0.86053 0.02805 0.4379 0.0
H437 H 0.89093 0.054 0.45871 0.0
H438 H 0.88969 0.10103 0.39853 0.0
H439 H 0.85911 0.07534 0.37808 0.0
Tb440 Tb 0.30787 0.52308 0.66421 0.0
Tb441 Tb 0.26937 0.56346 0.65437 0.0
C442 C 0.33342 0.48441 0.66196 0.0
C443 C 0.35901 0.47441 0.65521 0.0
C444 C 0.36992 0.47849 0.63287 0.0
C445 C 0.39301 0.46664 0.62625 0.0
C446 C 0.40547 0.45051 0.64183 0.0
C447 C 0.39495 0.44727 0.66448 0.0
C448 C 0.37194 0.45905 0.67105 0.0
C449 C 0.31537 0.56103 0.69078 0.0
C450 C 0.31718 0.55734 0.62032 0.0
C451 C 0.2413 0.60089 0.65326 0.0
C452 C 0.23048 0.62176 0.66642 0.0
C453 C 0.22032 0.62048 0.68945 0.0
C454 C 0.20916 0.64094 0.70041 0.0
C455 C 0.20803 0.66294 0.68851 0.0
C456 C 0.21847 0.66391 0.66555 0.0
C457 C 0.22956 0.64364 0.65473 0.0
C458 C 0.26144 0.52237 0.63122 0.0
C459 C 0.26041 0.53055 0.69748 0.0
O460 O 0.31811 0.49218 0.64485 0.0
O461 O 0.33262 0.49814 0.68097 0.0
O462 O 0.30769 0.56127 0.66932 0.0
O463 O 0.32258 0.53958 0.69645 0.0
O464 O 0.32465 0.538 0.63208 0.0
O465 O 0.2969 0.57067 0.62675 0.0
O466 O 0.26631 0.60038 0.64979 0.0
O467 O 0.23226 0.57974 0.65721 0.0
O468 O 0.26928 0.52562 0.65201 0.0
O469 O 0.25527 0.5431 0.62269 0.0
O470 O 0.25952 0.55301 0.69059 0.0
O471 O 0.27519 0.51444 0.68626 0.0
H472 H 0.36031 0.4903 0.62031 0.0
H473 H 0.40056 0.46941 0.60863 0.0
H474 H 0.40433 0.43531 0.67705 0.0
H475 H 0.36387 0.45569 0.68837 0.0
H476 H 0.22083 0.60376 0.69884 0.0
H477 H 0.20143 0.63952 0.71815 0.0
H478 H 0.21746 0.68025 0.65553 0.0
H479 H 0.23708 0.64498 0.63687 0.0
H480 H 0.19357 0.30347 0.58764 0.0
H481 H 0.21191 0.34049 0.60316 0.0
H482 H 0.20126 0.37261 0.53438 0.0
H483 H 0.18432 0.33563 0.5186 0.0
H484 H 0.24371 0.38735 0.55178 0.0
H485 H 0.15761 0.37953 0.58462 0.0
H486 H 0.12447 0.35934 0.60776 0.0
H487 H 0.17242 0.3638 0.67038 0.0
H488 H 0.20608 0.3835 0.64753 0.0
H489 H 0.24235 0.51107 0.58662 0.0
H490 H 0.22982 0.4715 0.57172 0.0
H491 H 0.25153 0.44091 0.63918 0.0
H492 H 0.26411 0.48 0.65394 0.0
H493 H 0.20489 0.425 0.62386 0.0
H494 H 0.29007 0.43244 0.59269 0.0
H495 H 0.32475 0.45166 0.57074 0.0
H496 H 0.27955 0.44765 0.50637 0.0
H497 H 0.2444 0.42872 0.52804 0.0
C498 C 0.19557 0.31829 0.57574 0.0
C499 C 0.18735 0.31646 0.55186 0.0
C500 C 0.20582 0.3396 0.5847 0.0
C501 C 0.20745 0.35973 0.57014 0.0
C502 C 0.2002 0.35752 0.5461 0.0
C503 C 0.19042 0.33621 0.53707 0.0
C504 C 0.21593 0.38336 0.57974 0.0
C505 C 0.23493 0.39563 0.56739 0.0
C506 C 0.20508 0.39416 0.6005 0.0
C507 C 0.1845 0.38276 0.61428 0.0
C508 C 0.16114 0.37609 0.60329 0.0
C509 C 0.14227 0.36471 0.61636 0.0
C510 C 0.14641 0.36023 0.6405 0.0
C511 C 0.16931 0.36722 0.65167 0.0
C512 C 0.18828 0.37847 0.63866 0.0
C513 C 0.2445 0.49586 0.59818 0.0
C514 C 0.25424 0.49869 0.62144 0.0
C515 C 0.23738 0.47326 0.58967 0.0
C516 C 0.23975 0.45314 0.60433 0.0
C517 C 0.24939 0.45608 0.62755 0.0
C518 C 0.25669 0.4785 0.63593 0.0
C519 C 0.23225 0.42899 0.59564 0.0
C520 C 0.21353 0.41666 0.6082 0.0
C521 C 0.24336 0.41811 0.57516 0.0
C522 C 0.26449 0.42939 0.56205 0.0
C523 C 0.28743 0.43584 0.5739 0.0
C524 C 0.30718 0.44665 0.5615 0.0
C525 C 0.30432 0.45093 0.53719 0.0
C526 C 0.28172 0.44435 0.52521 0.0
C527 C 0.26188 0.43357 0.53754 0.0
H528 H 0.31964 0.4593 0.52761 0.0
H529 H 0.13193 0.35133 0.65061 0.0
H530 H 0.77757 0.02852 0.82503 0.0
H531 H 0.81865 0.02153 0.80384 0.0
H532 H 0.85352 0.9935 0.86812 0.0
H533 H 0.8134 1.00174 0.88929 0.0
H534 H 0.8871 0.01777 0.84927 0.0
H535 H 0.82964 0.95762 0.81794 0.0
H536 H 0.7902 0.9435 0.79768 0.0
H537 H 0.80911 0.98267 0.73543 0.0
H538 H 0.84856 0.99719 0.75543 0.0
H539 H 0.96275 0.91995 0.77915 0.0
H540 H 0.92239 0.93938 0.79132 0.0
H541 H 0.95967 1.00729 0.7936 0.0
H542 H 1.00089 0.98744 0.78207 0.0
H543 H 0.89029 0.96991 0.77454 0.0
H544 H 0.93069 0.04295 0.8362 0.0
H545 H 0.96967 0.05112 0.86043 0.0
H546 H 0.98432 0.97599 0.86856 0.0
H547 H 0.94529 0.96742 0.84462 0.0
C548 C 0.79409 0.02085 0.83448 0.0
C549 C 0.7923 0.01555 0.85873 0.0
C550 C 0.81757 0.0168 0.8224 0.0
C551 C 0.83936 1.00672 0.83424 0.0
C552 C 0.83729 1.00147 0.85849 0.0
C553 C 0.8142 1.00604 0.87059 0.0
C554 C 0.86431 1.00095 0.82177 0.0
C555 C 0.88771 1.00746 0.83281 0.0
C556 C 0.86544 0.98744 0.8003 0.0
C557 C 0.84184 0.97868 0.78825 0.0
C558 C 0.82529 0.96331 0.79998 0.0
C559 C 0.80296 0.95523 0.78854 0.0
C560 C 0.79711 0.96225 0.76531 0.0
C561 C 0.81364 0.9773 0.75344 0.0
C562 C 0.83598 0.98544 0.76481 0.0
C563 C 0.96246 0.93906 0.78208 0.0
C564 C 0.9851 0.95215 0.77974 0.0
C565 C 0.9392 0.95022 0.78896 0.0
C566 C 0.93779 0.97485 0.79358 0.0
C567 C 0.96024 0.9882 0.79052 0.0
C568 C 0.98378 0.97689 0.78386 0.0
C569 C 0.913 0.98585 0.80262 0.0
C570 C 0.88966 0.98056 0.79079 0.0
C571 C 0.91188 0.99964 0.8239 0.0
C572 C 0.93532 1.00458 0.83835 0.0
C573 C 0.94225 0.0282 0.84318 0.0
C574 C 0.96433 0.03289 0.85686 0.0
C575 C 0.97953 0.01408 0.86593 0.0
C576 C 0.97261 0.99054 0.86143 0.0
C577 C 0.95053 0.98576 0.84779 0.0
H578 H 0.99662 0.01775 0.87651 0.0
H579 H 0.77981 0.95597 0.75649 0.0
H580 H 0.34578 0.70227 0.01268 0.0
H581 H 0.33017 0.66562 0.02956 0.0
H582 H 0.32388 0.70028 0.09834 0.0
H583 H 0.3403 0.73686 0.08172 0.0
H584 H 0.34498 0.65821 0.1037 0.0
H585 H 0.2697 0.68833 0.06283 0.0
H586 H 0.24446 0.70418 0.02884 0.0
H587 H 0.26016 0.63959 0.98908 0.0
H588 H 0.28579 0.62347 0.02274 0.0
H589 H 0.23733 0.56683 0.1251 0.0
H590 H 0.2522 0.60321 0.10733 0.0
H591 H 0.33015 0.57358 0.105 0.0
H592 H 0.31547 0.53716 0.12349 0.0
H593 H 0.27249 0.61385 0.06733 0.0
H594 H 0.37351 0.61968 0.11354 0.0
H595 H 0.39538 0.60677 0.15057 0.0
H596 H 0.32192 0.60406 0.18542 0.0
H597 H 0.29965 0.61747 0.14881 0.0
C598 C 0.34079 0.70224 0.03134 0.0
C599 C 0.34416 0.72259 0.04581 0.0
C600 C 0.33184 0.68121 0.04099 0.0
C601 C 0.32559 0.68019 0.06521 0.0
C602 C 0.32862 0.70059 0.07962 0.0
C603 C 0.33785 0.72155 0.07005 0.0
C604 C 0.31635 0.65774 0.07557 0.0
C605 C 0.32913 0.6485 0.09574 0.0
C606 C 0.29541 0.64522 0.06546 0.0
C607 C 0.27986 0.65478 0.04523 0.0
C608 C 0.26792 0.67757 0.04678 0.0
C609 C 0.25352 0.68659 0.02758 0.0
C610 C 0.25077 0.67292 1.00679 0.0
C611 C 0.26234 0.65017 1.00519 0.0
C612 C 0.27678 0.64107 0.02433 0.0
C613 C 0.25763 0.56789 0.12071 0.0
C614 C 0.27523 0.54907 0.12589 0.0
C615 C 0.2661 0.58877 0.11048 0.0
C616 C 0.29236 0.59133 0.10512 0.0
C617 C 0.30987 0.57222 0.1094 0.0
C618 C 0.30141 0.55132 0.11982 0.0
C619 C 0.30123 0.61419 0.09537 0.0
C620 C 0.28841 0.62349 0.07526 0.0
C621 C 0.32165 0.62709 0.106 0.0
C622 C 0.33487 0.61923 0.12826 0.0
C623 C 0.36202 0.61639 0.12911 0.0
C624 C 0.37449 0.60901 0.15005 0.0
C625 C 0.36003 0.60445 0.17028 0.0
C626 C 0.33309 0.60747 0.16969 0.0
C627 C 0.32053 0.61496 0.14885 0.0
H628 H 0.36971 0.59864 0.18643 0.0
H629 H 0.23963 0.67995 0.99194 0.0
H630 H 0.56195 0.12252 0.28509 0.0
H631 H 0.6031 0.10277 0.29471 0.0
H632 H 0.56427 0.03666 0.30464 0.0
H633 H 0.52242 0.05655 0.29464 0.0
H634 H 0.60181 0.04903 0.34146 0.0
H635 H 0.5966 0.04122 0.25653 0.0
H636 H 0.58878 0.05609 0.21598 0.0
H637 H 0.65156 0.10416 0.22444 0.0
H638 H 0.65949 0.08989 0.26525 0.0
H639 H 0.71962 0.98358 0.3515 0.0
H640 H 0.67734 0.99597 0.33502 0.0
H641 H 0.70785 0.06432 0.31777 0.0
H642 H 0.75008 0.05199 0.33487 0.0
H643 H 0.67334 0.04772 0.28297 0.0
H644 H 0.67604 0.06033 0.36703 0.0
H645 H 0.68399 0.04932 0.40873 0.0
H646 H 0.62652 0.99561 0.40286 0.0
H647 H 0.61831 1.0063 0.36096 0.0
C648 C 0.56202 0.10372 0.28912 0.0
C649 C 0.53891 0.09101 0.28878 0.0
C650 C 0.58565 0.09246 0.29466 0.0
C651 C 0.58684 0.06818 0.3001 0.0
C652 C 0.56377 0.05541 0.30035 0.0
C653 C 0.53993 0.06673 0.29459 0.0
C654 C 0.6124 0.05655 0.30547 0.0
C655 C 0.61726 0.04816 0.3285 0.0
C656 C 0.63284 0.0563 0.2888 0.0
C657 C 0.62856 0.06454 0.26403 0.0
C658 C 0.60866 0.05505 0.24981 0.0
C659 C 0.6042 0.06337 0.22677 0.0
C660 C 0.61968 0.08104 0.21764 0.0
C661 C 0.63962 0.09044 0.23154 0.0
C662 C 0.64413 0.08222 0.25462 0.0
C663 C 0.71722 1.00122 0.34421 0.0
C664 C 0.73777 0.01704 0.34496 0.0
C665 C 0.69318 1.00823 0.3346 0.0
C666 C 0.68925 0.03125 0.32554 0.0
C667 C 0.71039 0.0465 0.3247 0.0
C668 C 0.7345 0.03945 0.3344 0.0
C669 C 0.66269 0.04 0.31892 0.0
C670 C 0.65774 0.04808 0.29576 0.0
C671 C 0.6422 0.04028 0.33555 0.0
C672 C 0.64674 0.03397 0.36081 0.0
C673 C 0.66519 0.04609 0.3746 0.0
C674 C 0.66974 0.03991 0.39828 0.0
C675 C 0.65585 0.0217 0.40845 0.0
C676 C 0.63729 1.00971 0.39495 0.0
C677 C 0.63264 0.01585 0.37124 0.0
H678 H 0.65944 0.01693 0.42679 0.0
H679 H 0.61626 0.08737 0.19977 0.0
H680 H 0.70069 0.22788 0.54171 0.0
H681 H 0.71014 0.18664 0.52949 0.0
H682 H 0.68139 0.20226 0.45885 0.0
H683 H 0.66885 0.24252 0.47214 0.0
H684 H 0.66838 0.16123 0.46627 0.0
H685 H 0.75034 0.19837 0.47736 0.0
H686 H 0.78401 0.22052 0.49903 0.0
H687 H 0.78884 0.16598 0.55179 0.0
H688 H 0.75497 0.14363 0.53055 0.0
H689 H 0.78035 0.07342 0.42774 0.0
H690 H 0.76417 0.1107 0.44469 0.0
H691 H 0.69405 0.07686 0.46571 0.0
H692 H 0.71 0.03911 0.4477 0.0
H693 H 0.75462 0.12527 0.48564 0.0
H694 H 0.64454 0.11762 0.4689 0.0
H695 H 0.61444 0.09933 0.44001 0.0
H696 H 0.6724 0.10129 0.38589 0.0
H697 H 0.70286 0.11941 0.41447 0.0
C698 C 0.69558 0.22221 0.52386 0.0
C699 C 0.68331 0.23818 0.50816 0.0
C700 C 0.7016 0.19875 0.51662 0.0
C701 C 0.69691 0.19113 0.49302 0.0
C702 C 0.68512 0.2074 0.47718 0.0
C703 C 0.67824 0.23057 0.4847 0.0
C704 C 0.70472 0.16654 0.48463 0.0
C705 C 0.68727 0.15343 0.47056 0.0
C706 C 0.72946 0.15617 0.4898 0.0
C707 C 0.74994 0.16947 0.50251 0.0
C708 C 0.75849 0.19117 0.49365 0.0
C709 C 0.77762 0.20375 0.50585 0.0
C710 C 0.7885 0.1947 0.52681 0.0
C711 C 0.78035 0.17299 0.53557 0.0
C712 C 0.76122 0.16035 0.52346 0.0
C713 C 0.7615 0.07368 0.43605 0.0
C714 C 0.7465 0.05313 0.43636 0.0
C715 C 0.75224 0.09518 0.44581 0.0
C716 C 0.7278 0.09685 0.45649 0.0
C717 C 0.71281 0.07625 0.45726 0.0
C718 C 0.722 0.05461 0.44711 0.0
C719 C 0.7186 0.12027 0.46676 0.0
C720 C 0.73569 0.13305 0.48143 0.0
C721 C 0.69411 0.1308 0.46108 0.0
C722 C 0.67606 0.11955 0.44391 0.0
C723 C 0.65086 0.11406 0.45085 0.0
C724 C 0.63376 0.10368 0.43454 0.0
C725 C 0.64158 0.09895 0.41118 0.0
C726 C 0.66647 0.1047 0.40405 0.0
C727 C 0.68368 0.11494 0.42032 0.0
H728 H 0.62834 0.09089 0.3986 0.0
H729 H 0.80328 0.20447 0.53624 0.0
H730 H 0.05425 0.4344 0.74891 0.0
H731 H 0.09071 0.45799 0.73617 0.0
H732 H 0.10172 0.48367 0.80803 0.0
H733 H 0.06551 0.45991 0.8211 0.0
H734 H 0.10789 0.51726 0.75803 0.0
H735 H 0.13793 0.44655 0.80625 0.0
H736 H 0.13296 0.40376 0.81413 0.0
H737 H 0.14635 0.38707 0.7404 0.0
H738 H 0.15117 0.42979 0.73212 0.0
H739 H 0.23568 0.55439 0.73418 0.0
H740 H 0.198 0.54087 0.75615 0.0
H741 H 0.19973 0.47522 0.71499 0.0
H742 H 0.23812 0.48772 0.6948 0.0
H743 H 0.18632 0.46421 0.75454 0.0
H744 H 0.15839 0.52798 0.70306 0.0
H745 H 0.15874 0.56884 0.68747 0.0
H746 H 0.13673 0.59708 0.75595 0.0
H747 H 0.13663 0.55639 0.77204 0.0
C748 C 0.06398 0.44554 0.7619 0.0
C749 C 0.05724 0.44516 0.78604 0.0
C750 C 0.08471 0.45902 0.75456 0.0
C751 C 0.09871 0.4725 0.77119 0.0
C752 C 0.09091 0.47349 0.79498 0.0
C753 C 0.07042 0.45975 0.80241 0.0
C754 C 0.12382 0.48213 0.76446 0.0
C755 C 0.12525 0.50593 0.75758 0.0
C756 C 0.14603 0.467 0.76322 0.0
C757 C 0.14477 0.44129 0.76857 0.0
C758 C 0.1398 0.43372 0.79175 0.0
C759 C 0.13701 0.4095 0.79628 0.0
C760 C 0.13931 0.3927 0.77777 0.0
C761 C 0.14462 0.40008 0.75473 0.0
C762 C 0.14744 0.42428 0.75013 0.0
C763 C 0.22822 0.53688 0.73034 0.0
C764 C 0.23983 0.52206 0.71292 0.0
C765 C 0.20655 0.52925 0.74266 0.0
C766 C 0.19555 0.50718 0.73692 0.0
C767 C 0.20776 0.49223 0.71996 0.0
C768 C 0.22981 0.49944 0.70835 0.0
C769 C 0.17085 0.49964 0.74759 0.0
C770 C 0.16933 0.47599 0.75527 0.0
C771 C 0.14836 0.51477 0.74858 0.0
C772 C 0.14781 0.53918 0.73882 0.0
C773 C 0.15373 0.54292 0.71481 0.0
C774 C 0.1539 0.56604 0.70589 0.0
C775 C 0.14786 0.58555 0.72073 0.0
C776 C 0.14148 0.58196 0.74449 0.0
C777 C 0.14136 0.55887 0.75352 0.0
H778 H 0.14806 0.60344 0.71381 0.0
H779 H 0.13701 0.37397 0.78129 0.0
H780 H 0.81886 0.98969 0.94688 0.0
H781 H 0.83401 0.95114 0.96224 0.0
H782 H 0.75491 0.93109 0.97247 0.0
H783 H 0.73958 0.96936 0.95684 0.0
H784 H 0.82972 0.92546 1.0026 0.0
H785 H 0.74857 0.87391 0.95488 0.0
H786 H 0.71911 0.87873 0.92035 0.0
H787 H 0.77432 0.92256 0.88643 0.0
H788 H 0.80422 0.91774 0.92059 0.0
H789 H 0.83328 0.80426 0.04003 0.0
H790 H 0.8181 0.84468 0.02976 0.0
H791 H 0.84481 0.83323 0.95792 0.0
H792 H 0.86023 0.79303 0.96821 0.0
H793 H 0.79766 0.85491 0.95821 0.0
H794 H 0.87973 0.86562 0.99644 0.0
H795 H 0.91218 0.8611 0.02861 0.0
H796 H 0.86143 0.899 0.07693 0.0
H797 H 0.82846 0.90344 0.04511 0.0
C798 C 0.80467 0.97727 0.95277 0.0
C799 C 0.77797 0.98259 0.95037 0.0
C800 C 0.81339 0.95521 0.9616 0.0
C801 C 0.79562 0.93802 0.96815 0.0
C802 C 0.769 0.94388 0.96715 0.0
C803 C 0.76027 0.96586 0.95826 0.0
C804 C 0.80475 0.9134 0.97424 0.0
C805 C 0.8226 0.91004 0.99299 0.0
C806 C 0.796 0.89323 0.96136 0.0
C807 C 0.7785 0.89563 0.9404 0.0
C808 C 0.75447 0.88445 0.93999 0.0
C809 C 0.73768 0.88722 0.9205 0.0
C810 C 0.7448 0.90101 0.90125 0.0
C811 C 0.76879 0.91195 0.90138 0.0
C812 C 0.78565 0.90922 0.92081 0.0
C813 C 0.83605 0.81048 0.02211 0.0
C814 C 0.84831 0.79569 1.00503 0.0
C815 C 0.82732 0.83353 0.01624 0.0
C816 C 0.83057 0.84213 0.99312 0.0
C817 C 0.84208 0.82703 0.97586 0.0
C818 C 0.85087 0.80405 0.98176 0.0
C819 C 0.82222 0.8669 0.9869 0.0
C820 C 0.80459 0.8703 0.96801 0.0
C821 C 0.83164 0.88708 0.99933 0.0
C822 C 0.85154 0.88471 0.01843 0.0
C823 C 0.87541 0.87288 0.01396 0.0
C824 C 0.89392 0.87036 0.03212 0.0
C825 C 0.88888 0.8798 0.05478 0.0
C826 C 0.86532 0.89177 0.05933 0.0
C827 C 0.84672 0.89429 0.04124 0.0
H828 H 0.90321 0.8778 0.06884 0.0
H829 H 0.73176 0.90317 0.88621 0.0
H830 H 0.50131 0.5591 0.27094 0.0
H831 H 0.46005 0.5404 0.26047 0.0
H832 H 0.42015 0.60858 0.26786 0.0
H833 H 0.46096 0.62719 0.27802 0.0
H834 H 0.39355 0.5739 0.28908 0.0
H835 H 0.43326 0.58652 0.2136 0.0
H836 H 0.46767 0.58326 0.18347 0.0
H837 H 0.4638 0.50696 0.18415 0.0
H838 H 0.42953 0.50979 0.21445 0.0
H839 H 0.27568 0.55425 0.22442 0.0
H840 H 0.31695 0.56833 0.24067 0.0
H841 H 0.35141 0.49813 0.22994 0.0
H842 H 0.31008 0.48414 0.21397 0.0
H843 H 0.38142 0.53166 0.21186 0.0
H844 H 0.33836 0.52003 0.28584 0.0
H845 H 0.30307 0.52469 0.31492 0.0
H846 H 0.31248 0.60046 0.3165 0.0
H847 H 0.3476 0.5963 0.28716 0.0
C848 C 0.48368 0.56999 0.27042 0.0
C849 C 0.48434 0.59454 0.27553 0.0
C850 C 0.46015 0.55935 0.26437 0.0
C851 C 0.43695 0.5731 0.26336 0.0
C852 C 0.43768 0.59756 0.2687 0.0
C853 C 0.46108 0.60816 0.27457 0.0
C854 C 0.41185 0.56233 0.25649 0.0
C855 C 0.39085 0.56479 0.27213 0.0
C856 C 0.40836 0.55013 0.23454 0.0
C857 C 0.42909 0.54836 0.21649 0.0
C858 C 0.43993 0.56906 0.20747 0.0
C859 C 0.45935 0.56729 0.19033 0.0
C860 C 0.46798 0.54492 0.18197 0.0
C861 C 0.45714 0.52428 0.19068 0.0
C862 C 0.43771 0.52595 0.20782 0.0
C863 C 0.29195 0.54177 0.22608 0.0
C864 C 0.28991 0.51819 0.21779 0.0
C865 C 0.31554 0.5498 0.23529 0.0
C866 C 0.33738 0.5343 0.23653 0.0
C867 C 0.33496 0.51049 0.22899 0.0
C868 C 0.31141 0.50251 0.21978 0.0
C869 C 0.36306 0.54318 0.24447 0.0
C870 C 0.38416 0.54049 0.22896 0.0
C871 C 0.36657 0.5553 0.26648 0.0
C872 C 0.34546 0.55786 0.28413 0.0
C873 C 0.33276 0.53771 0.29224 0.0
C874 C 0.31282 0.54025 0.3088 0.0
C875 C 0.3055 0.56286 0.31751 0.0
C876 C 0.31815 0.58296 0.30971 0.0
C877 C 0.3381 0.58052 0.29314 0.0
H878 H 0.29005 0.5648 0.33033 0.0
H879 H 0.48302 0.54359 0.1687 0.0
H880 H 0.56015 0.18396 0.30493 0.0
H881 H 0.57474 0.1989 0.34375 0.0
H882 H 0.49638 0.19711 0.3696 0.0
H883 H 0.48155 0.18325 0.33078 0.0
H884 H 0.51669 0.23347 0.3872 0.0
H885 H 0.54348 0.15228 0.38042 0.0
H886 H 0.56475 0.11639 0.36289 0.0
H887 H 0.63905 0.14803 0.37172 0.0
H888 H 0.6182 0.18439 0.38873 0.0
H889 H 0.59774 0.21448 0.50603 0.0
H890 H 0.57677 0.19778 0.4704 0.0
H891 H 0.57632 0.26702 0.43801 0.0
H892 H 0.59596 0.28387 0.47347 0.0
H893 H 0.59151 0.19274 0.42681 0.0
H894 H 0.52776 0.27626 0.40117 0.0
H895 H 0.50247 0.3084 0.42133 0.0
H896 H 0.49447 0.26446 0.48256 0.0
H897 H 0.5194 0.23195 0.46267 0.0
C898 C 0.54596 0.18721 0.31875 0.0
C899 C 0.51971 0.18227 0.31475 0.0
C900 C 0.55437 0.19548 0.34103 0.0
C901 C 0.53678 0.19852 0.35984 0.0
C902 C 0.51039 0.19477 0.35547 0.0
C903 C 0.50192 0.18686 0.33316 0.0
C904 C 0.54576 0.20535 0.38414 0.0
C905 C 0.53304 0.22452 0.39583 0.0
C906 C 0.56652 0.19313 0.39586 0.0
C907 C 0.5792 0.17124 0.3856 0.0
C908 C 0.56433 0.15172 0.3784 0.0
C909 C 0.57632 0.13127 0.36855 0.0
C910 C 0.60322 0.12998 0.36608 0.0
C911 C 0.6182 0.1491 0.37353 0.0
C912 C 0.6063 0.16965 0.38327 0.0
C913 C 0.5927 0.22619 0.49147 0.0
C914 C 0.59827 0.25057 0.49279 0.0
C915 C 0.58088 0.2166 0.47105 0.0
C916 C 0.57457 0.2312 0.45161 0.0
C917 C 0.58028 0.25547 0.45295 0.0
C918 C 0.59166 0.26509 0.47334 0.0
C919 C 0.56286 0.22126 0.42946 0.0
C920 C 0.57506 0.20154 0.41819 0.0
C921 C 0.54095 0.23233 0.41848 0.0
C922 C 0.52563 0.25172 0.43047 0.0
C923 C 0.52048 0.2734 0.41888 0.0
C924 C 0.50624 0.2917 0.43028 0.0
C925 C 0.49693 0.2885 0.45323 0.0
C926 C 0.50177 0.26695 0.46481 0.0
C927 C 0.51598 0.24859 0.4535 0.0
H928 H 0.48593 0.30269 0.46203 0.0
H929 H 0.61246 0.11413 0.35847 0.0
H930 H 0.13425 0.27948 0.5905 0.0
H931 H 0.12192 0.29215 0.63048 0.0
H932 H 0.05647 0.33182 0.60167 0.0
H933 H 0.0689 0.3188 0.5613 0.0
H934 H 0.08199 0.35728 0.6357 0.0
H935 H 0.04871 0.27753 0.62946 0.0
H936 H 0.05358 0.23451 0.6204 0.0
H937 H 0.11205 0.22753 0.67484 0.0
H938 H 0.10772 0.27057 0.68407 0.0
H939 H 0.01867 0.3834 0.74268 0.0
H940 H 0.02972 0.3684 0.70314 0.0
H941 H 0.08824 0.32165 0.73397 0.0
H942 H 0.07521 0.33539 0.77392 0.0
H943 H 0.06655 0.29873 0.69896 0.0
H944 H 0.10298 0.37493 0.70622 0.0
H945 H 0.10429 0.41798 0.71517 0.0
H946 H 0.04853 0.43197 0.65966 0.0
H947 H 0.04651 0.38891 0.65061 0.0
C948 C 0.1167 0.29006 0.59262 0.0
C949 C 0.10179 0.29704 0.57278 0.0
C950 C 0.10983 0.29765 0.61558 0.0
C951 C 0.08781 0.31244 0.61928 0.0
C952 C 0.07334 0.32015 0.59938 0.0
C953 C 0.08035 0.31261 0.57634 0.0
C954 C 0.08017 0.32005 0.64388 0.0
C955 C 0.07818 0.34449 0.64943 0.0
C956 C 0.07627 0.30338 0.66213 0.0
C957 C 0.07798 0.2773 0.65737 0.0
C958 C 0.06261 0.26682 0.63949 0.0
C959 C 0.06529 0.24244 0.63431 0.0
C960 C 0.08315 0.22831 0.64701 0.0
C961 C 0.09822 0.2385 0.66503 0.0
C962 C 0.09562 0.26288 0.67028 0.0
C963 C 0.03275 0.36902 0.74115 0.0
C964 C 0.04489 0.35965 0.76149 0.0
C965 C 0.03982 0.36095 0.71839 0.0
C966 C 0.06001 0.34389 0.71532 0.0
C967 C 0.07248 0.33467 0.73571 0.0
C968 C 0.0651 0.3426 0.75855 0.0
C969 C 0.06823 0.33608 0.69085 0.0
C970 C 0.07028 0.31159 0.68528 0.0
C971 C 0.07306 0.3527 0.67273 0.0
C972 C 0.07439 0.37865 0.6779 0.0
C973 C 0.09085 0.38716 0.69603 0.0
C974 C 0.09174 0.41157 0.70111 0.0
C975 C 0.07647 0.4277 0.68804 0.0
C976 C 0.06032 0.41945 0.66979 0.0
C977 C 0.0593 0.39504 0.66467 0.0
H978 H 0.07718 0.4466 0.692 0.0
H979 H 0.08529 0.20946 0.64289 0.0
H980 H 0.03943 0.8421 0.8135 0.0
H981 H 0.02486 0.82322 0.84997 0.0
H982 H 0.94902 0.85594 0.84071 0.0
H983 H 0.96314 0.87431 0.80391 0.0
H984 H 0.9796 0.86305 0.8883 0.0
H985 H 0.94716 0.80428 0.83174 0.0
H986 H 0.95219 0.77543 0.79851 0.0
H987 H 0.0096 0.73587 0.83853 0.0
H988 H 0.00518 0.76473 0.87188 0.0
H989 H 0.909 0.81519 0.98186 0.0
H990 H 0.9248 0.83053 0.94456 0.0
H991 H 0.97954 0.77113 0.93929 0.0
H992 H 0.96204 0.7547 0.97578 0.0
H993 H 0.96211 0.77738 0.89862 0.0
H994 H 0.99595 0.83292 0.95513 0.0
H995 H 0.99481 0.86139 0.98895 0.0
H996 H 0.94132 0.90688 0.9507 0.0
H997 H 0.9419 0.87855 0.91675 0.0
C998 C 0.01951 0.8449 0.81902 0.0
C999 C 1.00238 0.85958 0.8058 0.0
C1000 C 0.01126 0.83416 0.83984 0.0
C1001 C 0.98592 0.83829 0.848 0.0
C1002 C 0.96865 0.85255 0.83463 0.0
C1003 C 0.9767 0.86288 0.81355 0.0
C1004 C 0.97781 0.82868 0.87109 0.0
C1005 C 0.97547 0.84438 0.89061 0.0
C1006 C 0.9735 0.8042 0.87417 0.0
C1007 C 0.97607 0.78682 0.85418 0.0
C1008 C 0.96106 0.78958 0.83335 0.0
C1009 C 0.96375 0.77319 0.81452 0.0
C1010 C 0.98127 0.75388 0.81637 0.0
C1011 C 0.99607 0.75087 0.8371 0.0
C1012 C 0.99347 0.76722 0.85598 0.0
C1013 C 0.92462 0.80556 0.97288 0.0
C1014 C 0.9345 0.78388 0.98181 0.0
C1015 C 0.9338 0.81442 0.95155 0.0
C1016 C 0.95391 0.80239 0.93917 0.0
C1017 C 0.96407 0.78086 0.94838 0.0
C1018 C 0.95423 0.77154 0.96933 0.0
C1019 C 0.96356 0.81178 0.91623 0.0
C1020 C 0.96631 0.79607 0.89662 0.0
C1021 C 0.96891 0.83623 0.91323 0.0
C1022 C 0.96883 0.85351 0.93346 0.0
C1023 C 0.98386 0.84894 0.95397 0.0
C1024 C 0.98331 0.86506 0.97317 0.0
C1025 C 0.96796 0.8859 0.972 0.0
C1026 C 0.95319 0.89072 0.95159 0.0
C1027 C 0.95366 0.87466 0.93235 0.0
H1028 H 0.96753 0.89833 0.98689 0.0
H1029 H 0.98332 0.7412 0.80178 0.0
H1030 H 0.4629 0.69074 0.25663 0.0
H1031 H 0.44582 0.70763 0.21947 0.0
H1032 H 0.5221 0.70192 0.18891 0.0
H1033 H 0.53932 0.68585 0.22591 0.0
H1034 H 0.50037 0.7403 0.17382 0.0
H1035 H 0.47474 0.65976 0.18006 0.0
H1036 H 0.45416 0.62528 0.19787 0.0
H1037 H 0.37958 0.66047 0.19172 0.0
H1038 H 0.39984 0.69558 0.17457 0.0
H1039 H 0.42596 0.70824 0.05445 0.0
H1040 H 0.44227 0.69764 0.09398 0.0
H1041 H 0.44504 0.77233 0.11313 0.0
H1042 H 0.43176 0.78277 0.07275 0.0
H1043 H 0.42641 0.7003 0.1349 0.0
H1044 H 0.48561 0.78382 0.15752 0.0
H1045 H 0.51085 0.81398 0.13707 0.0
H1046 H 0.52671 0.76427 0.07996 0.0
H1047 H 0.50177 0.73374 0.10018 0.0
C1048 C 0.47613 0.69356 0.24217 0.0
C1049 C 0.50248 0.68674 0.24431 0.0
C1050 C 0.46629 0.70302 0.22081 0.0
C1051 C 0.48252 0.70566 0.20108 0.0
C1052 C 0.50906 0.70004 0.2037 0.0
C1053 C 0.5189 0.69074 0.22499 0.0
C1054 C 0.47202 0.71317 0.17735 0.0
C1055 C 0.4841 0.7316 0.16539 0.0
C1056 C 0.45116 0.70153 0.16592 0.0
C1057 C 0.43889 0.68049 0.17637 0.0
C1058 C 0.45399 0.6603 0.18277 0.0
C1059 C 0.44237 0.64062 0.19272 0.0
C1060 C 0.41559 0.64071 0.19601 0.0
C1061 C 0.40035 0.66049 0.18928 0.0
C1062 C 0.41191 0.68031 0.1795 0.0
C1063 C 0.43045 0.72238 0.06702 0.0
C1064 C 0.42721 0.74637 0.06059 0.0
C1065 C 0.43955 0.71631 0.08977 0.0
C1066 C 0.44523 0.73409 0.10683 0.0
C1067 C 0.44156 0.75811 0.1004 0.0
C1068 C 0.43336 0.76415 0.07737 0.0
C1069 C 0.45489 0.72738 0.13119 0.0
C1070 C 0.44258 0.70913 0.14334 0.0
C1071 C 0.47624 0.73852 0.14241 0.0
C1072 C 0.49163 0.75659 0.13026 0.0
C1073 C 0.49458 0.7793 0.14065 0.0
C1074 C 0.5088 0.79647 0.12909 0.0
C1075 C 0.52031 0.79106 0.10721 0.0
C1076 C 0.51771 0.76845 0.09687 0.0
C1077 C 0.50352 0.75122 0.10836 0.0
H1078 H 0.53133 0.80437 0.0983 0.0
H1079 H 0.40663 0.62545 0.2037 0.0
H1080 H 0.19155 0.36999 0.40654 0.0
H1081 H 0.20533 0.39057 0.37091 0.0
H1082 H 0.17404 0.33459 0.32681 0.0
H1083 H 0.16048 0.31385 0.36232 0.0
H1084 H 0.21825 0.34804 0.30886 0.0
H1085 H 0.14048 0.3879 0.33657 0.0
H1086 H 0.11243 0.40891 0.36579 0.0
H1087 H 0.16753 0.46457 0.37276 0.0
H1088 H 0.19609 0.44372 0.3438 0.0
H1089 H 0.18637 0.45139 0.21928 0.0
H1090 H 0.17599 0.42686 0.25325 0.0
H1091 H 0.25717 0.40901 0.26309 0.0
H1092 H 0.26757 0.43312 0.22884 0.0
H1093 H 0.18765 0.43171 0.29771 0.0
H1094 H 0.26503 0.35556 0.28956 0.0
H1095 H 0.28908 0.3332 0.25831 0.0
H1096 H 0.22751 0.34778 0.20831 0.0
H1097 H 0.20302 0.37002 0.23928 0.0
C1098 C 0.18766 0.36204 0.38925 0.0
C1099 C 0.17481 0.34031 0.3873 0.0
C1100 C 0.19556 0.37383 0.36888 0.0
C1101 C 0.19042 0.36433 0.3461 0.0
C1102 C 0.1783 0.34228 0.34415 0.0
C1103 C 0.17058 0.33041 0.3645 0.0
C1104 C 0.19671 0.37773 0.3243 0.0
C1105 C 0.21163 0.36637 0.30646 0.0
C1106 C 0.18771 0.40151 0.32087 0.0
C1107 C 0.17053 0.41413 0.3382 0.0
C1108 C 0.14669 0.40454 0.34446 0.0
C1109 C 0.13069 0.41642 0.36096 0.0
C1110 C 0.13823 0.43802 0.37117 0.0
C1111 C 0.16175 0.44781 0.36486 0.0
C1112 C 0.17784 0.43598 0.3484 0.0
C1113 C 0.202 0.44202 0.2285 0.0
C1114 C 0.22781 0.44406 0.22117 0.0
C1115 C 0.19604 0.42805 0.248 0.0
C1116 C 0.21574 0.41589 0.26073 0.0
C1117 C 0.24152 0.41777 0.25334 0.0
C1118 C 0.24747 0.43157 0.23367 0.0
C1119 C 0.20929 0.40209 0.28225 0.0
C1120 C 0.19438 0.41342 0.3001 0.0
C1121 C 0.21781 0.37812 0.28541 0.0
C1122 C 0.2323 0.36462 0.2667 0.0
C1123 C 0.2566 0.35392 0.27192 0.0
C1124 C 0.27031 0.34129 0.25425 0.0
C1125 C 0.25983 0.33909 0.23135 0.0
C1126 C 0.23563 0.34954 0.22605 0.0
C1127 C 0.22185 0.3622 0.24363 0.0
H1128 H 0.27041 0.32922 0.21773 0.0
H1129 H 0.12581 0.4472 0.38394 0.0
H1130 H 0.95843 0.92015 0.60011 0.0
H1131 H 0.9389 0.93126 0.56178 0.0
H1132 H 0.87521 0.96642 0.59835 0.0
H1133 H 0.8947 0.95575 0.63656 0.0
H1134 H 0.85871 0.93524 0.56465 0.0
H1135 H 0.9209 0.99794 0.57018 0.0
H1136 H 0.96469 0.0141 0.57416 0.0
H1137 H 0.98814 0.97664 0.51047 0.0
H1138 H 0.94456 0.95997 0.50629 0.0
H1139 H 0.78766 0.99555 0.47986 0.0
H1140 H 0.81809 0.98888 0.51261 0.0
H1141 H 0.87321 0.95647 0.46398 0.0
H1142 H 0.84271 0.96385 0.43066 0.0
H1143 H 0.8973 0.98253 0.50072 0.0
H1144 H 0.83542 0.92111 0.49394 0.0
H1145 H 0.79187 0.90456 0.48943 0.0
H1146 H 0.76867 0.93804 0.55528 0.0
H1147 H 0.81197 0.9551 0.56001 0.0
C1148 C 0.94053 0.93065 0.6 0.0
C1149 C 0.92802 0.93684 0.62148 0.0
C1150 C 0.92936 0.93695 0.57805 0.0
C1151 C 0.90554 0.94964 0.57715 0.0
C1152 C 0.8935 0.95648 0.59856 0.0
C1153 C 0.90463 0.95025 0.62043 0.0
C1154 C 0.89209 0.95454 0.55411 0.0
C1155 C 0.8671 0.94578 0.5508 0.0
C1156 C 0.90339 0.96746 0.53558 0.0
C1157 C 0.92956 0.97749 0.53808 0.0
C1158 C 0.93546 0.99297 0.55715 0.0
C1159 C 0.96023 1.00226 0.55941 0.0
C1160 C 0.97921 0.99634 0.54262 0.0
C1161 C 0.97343 0.98117 0.52349 0.0
C1162 C 0.9487 0.97181 0.52116 0.0
C1163 C 0.80645 0.98737 0.47603 0.0
C1164 C 0.8127 0.97987 0.45282 0.0
C1165 C 0.82382 0.98352 0.49479 0.0
C1166 C 0.84767 0.9716 0.49089 0.0
C1167 C 0.85482 0.96553 0.46743 0.0
C1168 C 0.83742 0.96972 0.44844 0.0
C1169 C 0.86366 0.96385 0.51172 0.0
C1170 C 0.88906 0.97186 0.51454 0.0
C1171 C 0.85289 0.95001 0.52984 0.0
C1172 C 0.8269 0.93951 0.52724 0.0
C1173 C 0.82098 0.92506 0.50739 0.0
C1174 C 0.79634 0.91558 0.5048 0.0
C1175 C 0.7775 0.92028 0.52204 0.0
C1176 C 0.78328 0.93442 0.54193 0.0
C1177 C 0.80788 0.94398 0.54459 0.0
H1178 H 0.75843 0.91293 0.51999 0.0
H1179 H 0.99836 1.00356 0.5444 0.0
H1180 H 0.35912 0.56803 0.71572 0.0
H1181 H 0.36542 0.5959 0.74877 0.0
H1182 H 0.28948 0.62731 0.73584 0.0
H1183 H 0.2835 0.59964 0.70185 0.0
H1184 H 0.32422 0.66092 0.75219 0.0
H1185 H 0.29617 0.58526 0.77667 0.0
H1186 H 0.29619 0.54139 0.77804 0.0
H1187 H 0.37315 0.54043 0.80771 0.0
H1188 H 0.37376 0.58431 0.80614 0.0
H1189 H 0.32072 0.70675 0.87182 0.0
H1190 H 0.30998 0.68512 0.83528 0.0
H1191 H 0.38445 0.64855 0.83765 0.0
H1192 H 0.39554 0.67042 0.87409 0.0
H1193 H 0.34535 0.61827 0.82696 0.0
H1194 H 0.37264 0.69529 0.80025 0.0
H1195 H 0.37059 0.73921 0.79911 0.0
H1196 H 0.29158 0.7375 0.77475 0.0
H1197 H 0.29305 0.69356 0.77606 0.0
C1198 C 0.34408 0.58137 0.71945 0.0
C1199 C 0.32086 0.58174 0.70628 0.0
C1200 C 0.34761 0.59718 0.73847 0.0
C1201 C 0.32766 0.61328 0.74526 0.0
C1202 C 0.30509 0.61493 0.73104 0.0
C1203 C 0.30172 0.59924 0.71157 0.0
C1204 C 0.32992 0.62659 0.7683 0.0
C1205 C 0.32842 0.6516 0.76861 0.0
C1206 C 0.33548 0.61448 0.78979 0.0
C1207 C 0.33507 0.58809 0.79114 0.0
C1208 C 0.31316 0.57569 0.78336 0.0
C1209 C 0.31305 0.55082 0.78417 0.0
C1210 C 0.33467 0.53813 0.79292 0.0
C1211 C 0.35642 0.55029 0.80093 0.0
C1212 C 0.35665 0.57517 0.8001 0.0
C1213 C 0.33492 0.69423 0.8646 0.0
C1214 C 0.35908 0.69052 0.87604 0.0
C1215 C 0.32871 0.68183 0.84363 0.0
C1216 C 0.34652 0.66541 0.83348 0.0
C1217 C 0.37037 0.66115 0.84512 0.0
C1218 C 0.37662 0.6736 0.86608 0.0
C1219 C 0.34039 0.65262 0.81078 0.0
C1220 C 0.34102 0.62762 0.81058 0.0
C1221 C 0.33366 0.66477 0.78955 0.0
C1222 C 0.33288 0.69116 0.78848 0.0
C1223 C 0.35478 0.70429 0.79481 0.0
C1224 C 0.35372 0.72918 0.7941 0.0
C1225 C 0.33094 0.74114 0.78692 0.0
C1226 C 0.3092 0.72822 0.78034 0.0
C1227 C 0.31014 0.70332 0.78104 0.0
H1228 H 0.33016 0.76041 0.7864 0.0
H1229 H 0.33456 0.51887 0.79353 0.0
H1230 H 0.56368 0.10717 0.11112 0.0
H1231 H 0.58242 0.09659 0.0723 0.0
H1232 H 0.65851 0.09234 0.10451 0.0
H1233 H 0.64002 0.10269 0.14313 0.0
H1234 H 0.65925 0.11856 0.06567 0.0
H1235 H 0.62523 0.04184 0.08609 0.0
H1236 H 0.5909 0.0144 0.09692 0.0
H1237 H 0.54881 0.03193 0.03301 0.0
H1238 H 0.58291 0.05957 0.02185 0.0
H1239 H 0.74246 0.05506 0.99232 0.0
H1240 H 0.71126 0.06424 0.02341 0.0
H1241 H 0.65128 0.07534 0.97055 0.0
H1242 H 0.68297 0.06605 0.93878 0.0
H1243 H 0.63586 0.04962 0.01435 0.0
H1244 H 0.67357 0.12254 0.99172 0.0
H1245 H 0.7092 0.14858 0.98096 0.0
H1246 H 0.74448 0.13811 0.0496 0.0
H1247 H 0.70927 0.11169 0.06065 0.0
C1248 C 0.58436 0.10366 0.10999 0.0
C1249 C 0.60035 0.10609 0.13029 0.0
C1250 C 0.59507 0.09763 0.08774 0.0
C1251 C 0.62195 0.09371 0.08536 0.0
C1252 C 0.63777 0.09551 0.10574 0.0
C1253 C 0.62714 0.10153 0.12787 0.0
C1254 C 0.63412 0.08873 0.06171 0.0
C1255 C 0.65412 0.10342 0.05455 0.0
C1256 C 0.6269 0.06953 0.0466 0.0
C1257 C 0.60644 0.05296 0.05328 0.0
C1258 C 0.60856 0.03997 0.07444 0.0
C1259 C 0.58918 0.02434 0.0806 0.0
C1260 C 0.56763 0.0215 0.06571 0.0
C1261 C 0.56549 0.03419 0.04455 0.0
C1262 C 0.58486 0.0498 0.03827 0.0
C1263 C 0.72261 0.05927 0.98716 0.0
C1264 C 0.71529 0.06015 0.96304 0.0
C1265 C 0.70476 0.0645 1.00503 0.0
C1266 C 0.67901 0.07081 0.99937 0.0
C1267 C 0.67111 0.07058 0.97532 0.0
C1268 C 0.68919 0.06534 0.95721 0.0
C1269 C 0.66144 0.07901 0.0189 0.0
C1270 C 0.64053 0.06502 0.02528 0.0
C1271 C 0.66775 0.0989 0.0334 0.0
C1272 C 0.68883 0.11503 0.02696 0.0
C1273 C 0.68901 0.12567 1.00447 0.0
C1274 C 0.70912 0.14051 0.99832 0.0
C1275 C 0.72911 0.14497 0.01457 0.0
C1276 C 0.72898 0.13464 0.03703 0.0
C1277 C 0.70893 0.11975 0.04326 0.0
H1278 H 0.74467 0.15647 0.00978 0.0
H1279 H 0.55262 1.00943 0.07054 0.0
H1280 H 0.6389 0.15967 0.68038 0.0
H1281 H 0.65118 0.14278 0.7188 0.0
H1282 H 0.72589 0.17488 0.71468 0.0
H1283 H 0.7137 0.19197 0.67623 0.0
H1284 H 0.73116 0.12995 0.73028 0.0
H1285 H 0.67797 0.19837 0.75116 0.0
H1286 H 0.63891 0.22462 0.74984 0.0
H1287 H 0.59285 0.16772 0.77482 0.0
H1288 H 0.63158 0.14102 0.77598 0.0
H1289 H 0.76507 0.10448 0.85079 0.0
H1290 H 0.75479 0.12679 0.81459 0.0
H1291 H 0.67821 0.09795 0.81305 0.0
H1292 H 0.68811 0.07602 0.84924 0.0
H1293 H 0.67565 0.1435 0.801 0.0
H1294 H 0.72747 0.07455 0.77825 0.0
H1295 H 0.76604 0.0477 0.78016 0.0
H1296 H 0.81408 0.10469 0.75873 0.0
H1297 H 0.77582 0.13199 0.75707 0.0
C1298 C 0.65786 0.16341 0.68771 0.0
C1299 C 0.6752 0.17737 0.67512 0.0
C1300 C 0.6649 0.15365 0.70974 0.0
C1301 C 0.68939 0.15774 0.71992 0.0
C1302 C 0.70689 0.17141 0.70728 0.0
C1303 C 0.69988 0.18114 0.68521 0.0
C1304 C 0.69668 0.14775 0.74369 0.0
C1305 C 0.71922 0.13325 0.74581 0.0
C1306 C 0.68094 0.15157 0.764 0.0
C1307 C 0.65765 0.16764 0.76346 0.0
C1308 C 0.65948 0.19141 0.75622 0.0
C1309 C 0.6374 0.20638 0.75552 0.0
C1310 C 0.6134 0.19783 0.76219 0.0
C1311 C 0.61145 0.17431 0.76964 0.0
C1312 C 0.63346 0.15926 0.77034 0.0
C1313 C 0.74591 0.10314 0.84295 0.0
C1314 C 0.72749 0.0883 0.85298 0.0
C1315 C 0.74011 0.1158 0.82211 0.0
C1316 C 0.71581 0.11381 0.81077 0.0
C1317 C 0.6971 0.09979 0.82132 0.0
C1318 C 0.70286 0.08717 0.84209 0.0
C1319 C 0.70998 0.12556 0.78753 0.0
C1320 C 0.6877 0.14036 0.7855 0.0
C1321 C 0.72588 0.12189 0.7673 0.0
C1322 C 0.74882 0.10538 0.76777 0.0
C1323 C 0.74628 0.08139 0.77408 0.0
C1324 C 0.76808 0.06609 0.77511 0.0
C1325 C 0.7925 0.0745 0.76964 0.0
C1326 C 0.79515 0.09821 0.76301 0.0
C1327 C 0.77342 0.11361 0.76201 0.0
H1328 H 0.80935 0.06263 0.77048 0.0
H1329 H 0.59634 0.20944 0.76164 0.0
H1330 H 0.2377 0.48318 0.0835 0.0
H1331 H 0.2057 0.47507 0.05264 0.0
H1332 H 0.14966 0.45909 0.10614 0.0
H1333 H 0.18206 0.46737 0.13754 0.0
H1334 H 0.18495 0.43199 0.04508 0.0
H1335 H 0.0877 0.47243 0.07798 0.0
H1336 H 0.07167 0.50524 0.10408 0.0
H1337 H 0.13979 0.54472 0.08996 0.0
H1338 H 0.15596 0.51239 0.06348 0.0
H1339 H 0.08738 0.38652 0.97183 0.0
H1340 H 0.10791 0.40032 1.00865 0.0
H1341 H 0.10882 0.47176 0.98155 0.0
H1342 H 0.08809 0.45803 0.94453 0.0
H1343 H 0.099 0.47113 0.03075 0.0
H1344 H 0.16101 0.43715 0.97503 0.0
H1345 H 0.17856 0.40584 0.94799 0.0
H1346 H 0.18439 0.35698 1.00598 0.0
H1347 H 0.16651 0.38793 0.0333 0.0
C1348 C 0.21849 0.47818 0.0888 0.0
C1349 C 0.21244 0.47563 0.11292 0.0
C1350 C 0.20022 0.47353 0.0711 0.0
C1351 C 0.17537 0.46627 0.07702 0.0
C1352 C 0.16874 0.46473 0.10118 0.0
C1353 C 0.18719 0.46945 0.11907 0.0
C1354 C 0.15749 0.4588 0.05759 0.0
C1355 C 0.16608 0.44048 0.04211 0.0
C1356 C 0.13297 0.46999 0.05353 0.0
C1357 C 0.12317 0.48983 0.06898 0.0
C1358 C 0.09919 0.48816 0.08038 0.0
C1359 C 0.09008 0.50668 0.09524 0.0
C1360 C 0.10474 0.52701 0.09876 0.0
C1361 C 0.12848 0.52893 0.08732 0.0
C1362 C 0.13764 0.5105 0.07239 0.0
C1363 C 0.09181 0.40521 0.97373 0.0
C1364 C 0.08655 0.4211 0.95507 0.0
C1365 C 0.10338 0.4131 0.99487 0.0
C1366 C 0.1102 0.43701 0.99776 0.0
C1367 C 0.10367 0.45324 0.97973 0.0
C1368 C 0.09191 0.44535 0.95856 0.0
C1369 C 0.12659 0.44436 0.01836 0.0
C1370 C 0.11775 0.46254 0.03399 0.0
C1371 C 0.15116 0.43331 0.02248 0.0
C1372 C 0.16219 0.41477 1.00614 0.0
C1373 C 0.16588 0.41968 0.98197 0.0
C1374 C 0.1759 0.40201 0.9666 0.0
C1375 C 0.18252 0.37942 0.97525 0.0
C1376 C 0.17921 0.37448 0.9993 0.0
C1377 C 0.16915 0.39208 0.01474 0.0
H1378 H 0.19028 0.36575 0.96332 0.0
H1379 H 0.09764 0.54129 0.11029 0.0
H1380 H 0.76401 0.9338 0.33469 0.0
H1381 H 0.77593 0.91235 0.29801 0.0
H1382 H 0.85528 0.93289 0.30773 0.0
H1383 H 0.84345 0.95475 0.34397 0.0
H1384 H 0.84011 0.94168 0.26405 0.0
H1385 H 0.83451 0.87434 0.31603 0.0
H1386 H 0.81278 0.84891 0.3447 0.0
H1387 H 0.75253 0.83534 0.29352 0.0
H1388 H 0.77376 0.86092 0.26462 0.0
H1389 H 0.90167 0.8703 0.17614 0.0
H1390 H 0.88737 0.88701 0.21429 0.0
H1391 H 0.80921 0.86615 0.19861 0.0
H1392 H 0.82356 0.84863 0.16067 0.0
H1393 H 0.82145 0.85739 0.24448 0.0
H1394 H 0.82651 0.92367 0.19252 0.0
H1395 H 0.84675 0.94993 0.16367 0.0
H1396 H 0.90633 0.96638 0.21463 0.0
H1397 H 0.88665 0.93994 0.24369 0.0
C1398 C 0.78408 0.93344 0.32923 0.0
C1399 C 0.80274 0.94609 0.34229 0.0
C1400 C 0.79089 0.92111 0.30822 0.0
C1401 C 0.81657 0.9209 0.30004 0.0
C1402 C 0.83533 0.93286 0.31353 0.0
C1403 C 0.82852 0.9453 0.33436 0.0
C1404 C 0.82382 0.90939 0.27685 0.0
C1405 C 0.83636 0.92313 0.25997 0.0
C1406 C 0.81813 0.88543 0.27104 0.0
C1407 C 0.8056 0.86972 0.28824 0.0
C1408 C 0.81655 0.86603 0.31093 0.0
C1409 C 0.80434 0.85158 0.32722 0.0
C1410 C 0.78125 0.84057 0.32096 0.0
C1411 C 0.7704 0.8439 0.29835 0.0
C1412 C 0.78253 0.85835 0.282 0.0
C1413 C 0.88149 0.86898 0.18087 0.0
C1414 C 0.86378 0.85816 0.1652 0.0
C1415 C 0.87327 0.87876 0.20265 0.0
C1416 C 0.84711 0.87814 0.20926 0.0
C1417 C 0.82946 0.86695 0.1939 0.0
C1418 C 0.83767 0.85714 0.17209 0.0
C1419 C 0.83822 0.88958 0.23198 0.0
C1420 C 0.82525 0.87591 0.24865 0.0
C1421 C 0.84337 0.91367 0.23761 0.0
C1422 C 0.85524 0.92964 0.2202 0.0
C1423 C 0.84404 0.93274 0.19751 0.0
C1424 C 0.85539 0.94768 0.18113 0.0
C1425 C 0.87784 0.95976 0.18729 0.0
C1426 C 0.88896 0.95698 0.20987 0.0
C1427 C 0.8777 0.94203 0.22631 0.0
H1428 H 0.8866 0.97133 0.17459 0.0
H1429 H 0.77179 0.82943 0.33361 0.0
H1430 H 0.35819 0.53386 0.59826 0.0
H1431 H 0.38082 0.54584 0.56237 0.0
H1432 H 0.33217 0.6094 0.55871 0.0
H1433 H 0.30936 0.59752 0.59409 0.0
H1434 H 0.33535 0.58859 0.5163 0.0
H1435 H 0.39608 0.61053 0.57809 0.0
H1436 H 0.42467 0.60324 0.61276 0.0
H1437 H 0.46877 0.55107 0.57244 0.0
H1438 H 0.44022 0.55785 0.5376 0.0
H1439 H 0.40097 0.65895 0.43486 0.0
H1440 H 0.38271 0.64373 0.4714 0.0
H1441 H 0.43356 0.58166 0.4667 0.0
H1442 H 0.45179 0.59664 0.42997 0.0
H1443 H 0.43039 0.59849 0.51233 0.0
H1444 H 0.37107 0.57773 0.4501 0.0
H1445 H 0.34262 0.58485 0.41531 0.0
H1446 H 0.29574 0.63421 0.45643 0.0
H1447 H 0.32414 0.62765 0.49139 0.0
C1448 C 0.35241 0.55045 0.58988 0.0
C1449 C 0.3319 0.56468 0.59914 0.0
C1450 C 0.36542 0.55732 0.56938 0.0
C1451 C 0.35831 0.57862 0.55785 0.0
C1452 C 0.33799 0.59286 0.56719 0.0
C1453 C 0.32498 0.58602 0.58754 0.0
C1454 C 0.37144 0.58606 0.53575 0.0
C1455 C 0.3561 0.591 0.51556 0.0
C1456 C 0.39862 0.58853 0.53445 0.0
C1457 C 0.41585 0.58451 0.55533 0.0
C1458 C 0.41175 0.59737 0.57668 0.0
C1459 C 0.42797 0.59336 0.59635 0.0
C1460 C 0.44847 0.57665 0.59483 0.0
C1461 C 0.45285 0.56398 0.57361 0.0
C1462 C 0.43667 0.56791 0.55389 0.0
C1463 C 0.40823 0.64201 0.44151 0.0
C1464 C 0.42775 0.62897 0.4293 0.0
C1465 C 0.3978 0.63335 0.46246 0.0
C1466 C 0.4065 0.61137 0.47166 0.0
C1467 C 0.42652 0.59864 0.45997 0.0
C1468 C 0.43699 0.6073 0.43898 0.0
C1469 C 0.39419 0.60149 0.49312 0.0
C1470 C 0.40965 0.596 0.51309 0.0
C1471 C 0.36709 0.59846 0.49426 0.0
C1472 C 0.34987 0.60235 0.47331 0.0
C1473 C 0.3548 0.59024 0.45168 0.0
C1474 C 0.33867 0.59415 0.43193 0.0
C1475 C 0.31742 0.61002 0.43364 0.0
C1476 C 0.31222 0.62195 0.45512 0.0
C1477 C 0.32832 0.61812 0.47492 0.0
H1478 H 0.30495 0.61302 0.41834 0.0
H1479 H 0.46101 0.57357 0.61008 0.0
H1480 H 0.19051 0.19185 0.49465 0.0
H1481 H 0.22421 0.18338 0.4653 0.0
H1482 H 0.22328 0.25759 0.44623 0.0
H1483 H 0.19003 0.26625 0.4763 0.0
H1484 H 0.22855 0.18547 0.41992 0.0
H1485 H 0.28362 0.2733 0.42907 0.0
H1486 H 0.29101 0.30519 0.45885 0.0
H1487 H 0.27829 0.25616 0.51522 0.0
H1488 H 0.27115 0.22394 0.48579 0.0
H1489 H 0.32486 0.18148 0.33108 0.0
H1490 H 0.28942 0.1957 0.3564 0.0
H1491 H 0.34051 0.19382 0.41747 0.0
H1492 H 0.37647 0.18098 0.39208 0.0
H1493 H 0.30972 0.23076 0.42196 0.0
H1494 H 0.29671 0.14812 0.4036 0.0
H1495 H 0.29127 0.11289 0.37749 0.0
H1496 H 0.22342 0.14572 0.34593 0.0
H1497 H 0.22866 0.18129 0.37167 0.0
C1498 C 0.19739 0.20637 0.48414 0.0
C1499 C 0.18774 0.22976 0.48797 0.0
C1500 C 0.21666 0.20149 0.46726 0.0
C1501 C 0.22676 0.21984 0.45365 0.0
C1502 C 0.21634 0.24313 0.45678 0.0
C1503 C 0.19718 0.24806 0.47388 0.0
C1504 C 0.24854 0.21446 0.43676 0.0
C1505 C 0.2462 0.19552 0.42031 0.0
C1506 C 0.27192 0.22717 0.43736 0.0
C1507 C 0.27657 0.24631 0.45521 0.0
C1508 C 0.28249 0.26933 0.44782 0.0
C1509 C 0.28662 0.28746 0.46464 0.0
C1510 C 0.28502 0.28273 0.48891 0.0
C1511 C 0.27942 0.25983 0.49642 0.0
C1512 C 0.27531 0.24163 0.47968 0.0
C1513 C 0.32883 0.18453 0.3498 0.0
C1514 C 0.35374 0.17976 0.35941 0.0
C1515 C 0.30832 0.1924 0.36438 0.0
C1516 C 0.31197 0.19541 0.38906 0.0
C1517 C 0.33698 0.19153 0.39857 0.0
C1518 C 0.35756 0.18387 0.38398 0.0
C1519 C 0.28968 0.2018 0.40509 0.0
C1520 C 0.29194 0.2209 0.42138 0.0
C1521 C 0.26647 0.18883 0.4048 0.0
C1522 C 0.26323 0.16745 0.38937 0.0
C1523 C 0.28073 0.14788 0.39098 0.0
C1524 C 0.27767 0.12785 0.37626 0.0
C1525 C 0.25705 0.12709 0.36002 0.0
C1526 C 0.23941 0.14635 0.3585 0.0
C1527 C 0.24241 0.16644 0.37315 0.0
H1528 H 0.25472 0.11157 0.34864 0.0
H1529 H 0.28819 0.29679 0.5019 0.0
H1530 H 0.0855 0.1302 0.59642 0.0
H1531 H 0.07056 0.09212 0.61109 0.0
H1532 H 0.13429 0.08937 0.6612 0.0
H1533 H 0.14971 0.12706 0.64622 0.0
H1534 H 0.1278 0.04648 0.63981 0.0
H1535 H 0.07263 0.10623 0.67855 0.0
H1536 H 0.04185 0.14062 0.67883 0.0
H1537 H 0.98772 0.10063 0.63703 0.0
H1538 H 0.01833 0.06607 0.63629 0.0
H1539 H 0.09066 0.96612 0.72645 0.0
H1540 H 0.10252 1.0005 0.70361 0.0
H1541 H 0.03276 0.9947 0.66138 0.0
H1542 H 0.0203 0.96027 0.68471 0.0
H1543 H 0.03996 0.04012 0.67378 0.0
H1544 H 0.09271 0.97902 0.63818 0.0
H1545 H 0.12343 0.94464 0.63669 0.0
H1546 H 0.1819 0.9866 0.67055 0.0
H1547 H 0.15142 0.02116 0.67255 0.0
C1548 C 0.0965 0.12138 0.6104 0.0
C1549 C 0.11881 0.13177 0.62017 0.0
C1550 C 0.08779 0.09968 0.61892 0.0
C1551 C 0.10114 0.08792 0.63744 0.0
C1552 C 0.12361 0.09808 0.64695 0.0
C1553 C 0.13229 0.11977 0.63849 0.0
C1554 C 0.09174 0.06515 0.64716 0.0
C1555 C 0.10867 0.04515 0.64742 0.0
C1556 C 0.06645 0.06308 0.65634 0.0
C1557 C 0.04785 0.08366 0.65718 0.0
C1558 C 0.05422 0.10482 0.66932 0.0
C1559 C 0.0368 0.12433 0.66957 0.0
C1560 C 0.01288 0.12283 0.6579 0.0
C1561 C 0.00627 0.10177 0.64604 0.0
C1562 C 0.02363 0.08221 0.64572 0.0
C1563 C 0.07782 0.97191 0.7122 0.0
C1564 C 0.05451 0.96022 0.70743 0.0
C1565 C 0.08475 0.99162 0.69902 0.0
C1566 C 0.06878 1.00011 0.68047 0.0
C1567 C 0.04549 0.98848 0.67553 0.0
C1568 C 0.03845 0.96869 0.68882 0.0
C1569 C 0.07626 0.02154 0.66694 0.0
C1570 C 0.05899 0.0413 0.66594 0.0
C1571 C 0.10122 0.02336 0.65691 0.0
C1572 C 0.11969 1.00264 0.65566 0.0
C1573 C 0.11206 0.98088 0.64546 0.0
C1574 C 0.12944 0.96136 0.6445 0.0
C1575 C 0.15458 0.96342 0.65356 0.0
C1576 C 0.16241 0.98503 0.66355 0.0
C1577 C 0.1451 1.0046 0.66457 0.0
H1578 H 0.16801 0.94829 0.6528 0.0
H1579 H 0.99943 0.13796 0.65809 0.0
H1580 H 0.14142 0.86668 0.8882 0.0
H1581 H 0.17408 0.85067 0.91592 0.0
H1582 H 0.22658 0.83742 0.85772 0.0
H1583 H 0.1938 0.85277 0.82987 0.0
H1584 H 0.2299 0.80148 0.8887 0.0
H1585 H 0.23244 0.88643 0.89286 0.0
H1586 H 0.21495 0.9275 0.89775 0.0
H1587 H 0.1911 0.912 0.9687 0.0
H1588 H 0.20812 0.8707 0.9641 0.0
H1589 H 0.34843 0.80367 0.95972 0.0
H1590 H 0.31428 0.81369 0.93061 0.0
H1591 H 0.25675 0.80952 0.98532 0.0
H1592 H 0.29052 0.79822 0.01415 0.0
H1593 H 0.25659 0.85379 0.95597 0.0
H1594 H 0.25563 0.76817 0.95089 0.0
H1595 H 0.27576 0.72818 0.94548 0.0
H1596 H 0.29906 0.74632 0.87503 0.0
H1597 H 0.27966 0.78663 0.88028 0.0
C1598 C 0.15973 0.85997 0.88123 0.0
C1599 C 0.16502 0.86123 0.85679 0.0
C1600 C 0.1785 0.85101 0.89714 0.0
C1601 C 0.20299 0.84319 0.88898 0.0
C1602 C 0.20792 0.84346 0.86449 0.0
C1603 C 0.18919 0.85244 0.84859 0.0
C1604 C 0.2238 0.83564 0.90605 0.0
C1605 C 0.23588 0.81304 0.90325 0.0
C1606 C 0.23159 0.85059 0.9252 0.0
C1607 C 0.22129 0.8754 0.92804 0.0
C1608 C 0.22326 0.89172 0.90943 0.0
C1609 C 0.21347 0.91505 0.91216 0.0
C1610 C 0.20185 0.92234 0.9335 0.0
C1611 C 0.20006 0.90631 0.95217 0.0
C1612 C 0.20978 0.88294 0.94951 0.0
C1613 C 0.32847 0.80419 0.96539 0.0
C1614 C 0.32215 0.79969 0.98915 0.0
C1615 C 0.30901 0.81019 0.9488 0.0
C1616 C 0.28301 0.81233 0.95585 0.0
C1617 C 0.27669 0.80797 0.97955 0.0
C1618 C 0.29602 0.80146 0.99597 0.0
C1619 C 0.26239 0.81966 0.93868 0.0
C1620 C 0.25048 0.84226 0.94144 0.0
C1621 C 0.255 0.80483 0.91939 0.0
C1622 C 0.26649 0.78053 0.9161 0.0
C1623 C 0.26533 0.76373 0.93436 0.0
C1624 C 0.27659 0.74098 0.93132 0.0
C1625 C 0.28881 0.73472 0.90999 0.0
C1626 C 0.28971 0.75118 0.89161 0.0
C1627 C 0.2786 0.774 0.89461 0.0
H1628 H 0.29748 0.71708 0.90774 0.0
H1629 H 0.1943 0.94041 0.93559 0.0
H1630 H 0.5148 0.07007 0.20667 0.0
H1631 H 0.50574 0.03359 0.18438 0.0
H1632 H 0.4237 0.04671 0.19399 0.0
H1633 H 0.4328 0.08268 0.21734 0.0
H1634 H 0.43451 1.00299 0.20312 0.0
H1635 H 0.45778 0.05381 0.1378 0.0
H1636 H 0.48687 0.08098 0.11749 0.0
H1637 H 0.54705 0.02668 0.11685 0.0
H1638 H 0.51834 0.99919 0.13707 0.0
H1639 H 0.38313 0.92112 0.12252 0.0
H1640 H 0.39747 0.95833 0.14043 0.0
H1641 H 0.47707 0.93368 0.1349 0.0
H1642 H 0.46273 0.89607 0.11681 0.0
H1643 H 0.4708 0.9816 0.124 0.0
H1644 H 0.44772 0.93043 0.18711 0.0
H1645 H 0.42001 0.90305 0.20863 0.0
H1646 H 0.36095 0.95805 0.21505 0.0
H1647 H 0.38815 0.98567 0.19325 0.0
C1648 C 0.4948 0.06538 0.20372 0.0
C1649 C 0.47448 0.07932 0.21365 0.0
C1650 C 0.48963 0.04451 0.19086 0.0
C1651 C 0.46398 0.03747 0.18709 0.0
C1652 C 0.44365 0.0517 0.19661 0.0
C1653 C 0.44885 0.07231 0.2099 0.0
C1654 C 0.45828 0.01464 0.17444 0.0
C1655 C 0.44214 0.99858 0.18564 0.0
C1656 C 0.46906 1.00826 0.15205 0.0
C1657 C 0.48596 0.0245 0.13906 0.0
C1658 C 0.47722 0.04767 0.13329 0.0
C1659 C 0.49364 0.06312 0.12176 0.0
C1660 C 0.5188 0.05555 0.11583 0.0
C1661 C 0.52754 0.03248 0.12131 0.0
C1662 C 0.51118 0.01694 0.13274 0.0
C1663 C 0.4037 0.9235 0.1252 0.0
C1664 C 0.42176 0.9054 0.11871 0.0
C1665 C 0.41188 0.94486 0.13534 0.0
C1666 C 0.43831 0.94862 0.13944 0.0
C1667 C 0.45656 0.93109 0.13201 0.0
C1668 C 0.44835 0.90962 0.12171 0.0
C1669 C 0.44643 0.97048 0.15243 0.0
C1670 C 0.46314 0.98619 0.14142 0.0
C1671 C 0.43626 0.97658 0.17508 0.0
C1672 C 0.4199 0.96006 0.18837 0.0
C1673 C 0.42875 0.93664 0.19296 0.0
C1674 C 0.41314 0.92108 0.20523 0.0
C1675 C 0.38871 0.92879 0.21316 0.0
C1676 C 0.37986 0.9521 0.20888 0.0
C1677 C 0.39538 0.96772 0.19659 0.0
H1678 H 0.37665 0.91672 0.22265 0.0
H1679 H 0.53154 0.06755 0.10701 0.0
H1680 H 0.85366 0.41433 0.69203 0.0
H1681 H 0.81689 0.39769 0.67034 0.0
H1682 H 0.83059 0.33022 0.70468 0.0
H1683 H 0.86779 0.34652 0.72591 0.0
H1684 H 0.82478 0.32459 0.65738 0.0
H1685 H 0.77904 0.36577 0.71992 0.0
H1686 H 0.76683 0.40001 0.74578 0.0
H1687 H 0.73973 0.43907 0.68491 0.0
H1688 H 0.75213 0.40517 0.65863 0.0
H1689 H 0.71038 0.27155 0.61352 0.0
H1690 H 0.74301 0.28783 0.64049 0.0
H1691 H 0.73276 0.35673 0.60821 0.0
H1692 H 0.69988 0.34077 0.58138 0.0
H1693 H 0.73597 0.36064 0.65613 0.0
H1694 H 0.78374 0.32066 0.59355 0.0
H1695 H 0.79589 0.28664 0.56735 0.0
H1696 H 0.81937 0.24568 0.62815 0.0
H1697 H 0.807 0.27937 0.65475 0.0
C1698 C 0.84877 0.39598 0.69503 0.0
C1699 C 0.86363 0.38175 0.7107 0.0
C1700 C 0.82763 0.38655 0.68277 0.0
C1701 C 0.8209 0.36276 0.68603 0.0
C1702 C 0.83541 0.34864 0.70196 0.0
C1703 C 0.85651 0.35806 0.71425 0.0
C1704 C 0.79957 0.35225 0.67189 0.0
C1705 C 0.80525 0.33223 0.65743 0.0
C1706 C 0.77426 0.36258 0.67151 0.0
C1707 C 0.76674 0.383 0.68728 0.0
C1708 C 0.77068 0.38173 0.71202 0.0
C1709 C 0.76368 0.40107 0.72676 0.0
C1710 C 0.75257 0.42173 0.71699 0.0
C1711 C 0.74837 0.42307 0.69246 0.0
C1712 C 0.75535 0.40379 0.67763 0.0
C1713 C 0.71499 0.29019 0.61216 0.0
C1714 C 0.70262 0.30481 0.59515 0.0
C1715 C 0.7337 0.29944 0.62757 0.0
C1716 C 0.7405 0.32342 0.62616 0.0
C1717 C 0.7278 0.33817 0.60957 0.0
C1718 C 0.70908 0.32896 0.59418 0.0
C1719 C 0.76124 0.33307 0.64162 0.0
C1720 C 0.75547 0.35293 0.65626 0.0
C1721 C 0.78651 0.32265 0.64212 0.0
C1722 C 0.79419 0.30245 0.62615 0.0
C1723 C 0.79131 0.30433 0.60134 0.0
C1724 C 0.79827 0.28512 0.58642 0.0
C1725 C 0.80832 0.26398 0.59608 0.0
C1726 C 0.81153 0.26205 0.62069 0.0
C1727 C 0.80457 0.2812 0.6357 0.0
H1728 H 0.81368 0.24912 0.5845 0.0
H1729 H 0.74716 0.43668 0.72844 0.0
H1730 H 0.01258 0.44533 0.85471 0.0
H1731 H 1.00478 0.47986 0.88089 0.0
H1732 H 0.92231 0.47194 0.8723 0.0
H1733 H 0.9301 0.43697 0.84647 0.0
H1734 H 0.98281 0.52118 0.87034 0.0
H1735 H 0.89111 0.49434 0.92133 0.0
H1736 H 0.8719 0.4581 0.9371 0.0
H1737 H 0.94743 0.4245 0.94209 0.0
H1738 H 0.96712 0.46063 0.92667 0.0
H1739 H 0.91744 0.62356 0.918 0.0
H1740 H 0.9289 0.58602 0.8977 0.0
H1741 H 0.95233 0.55536 0.96468 0.0
H1742 H 0.94001 0.59258 0.98525 0.0
H1743 H 0.92456 0.52454 0.94003 0.0
H1744 H 0.99727 0.5724 0.92385 0.0
H1745 H 0.01987 0.60781 0.9103 0.0
H1746 H 0.98868 0.59781 0.83991 0.0
H1747 H 0.96559 0.56251 0.85313 0.0
C1748 C 0.99278 0.45063 0.8588 0.0
C1749 C 0.97195 0.43836 0.84861 0.0
C1750 C 0.98834 0.47051 0.87363 0.0
C1751 C 0.96296 0.47859 0.87864 0.0
C1752 C 0.94208 0.46594 0.86898 0.0
C1753 C 0.94654 0.44596 0.85418 0.0
C1754 C 0.9584 0.50091 0.8929 0.0
C1755 C 0.97009 0.52187 0.8856 0.0
C1756 C 0.94216 0.50185 0.91307 0.0
C1757 C 0.93054 0.48013 0.92262 0.0
C1758 C 0.90362 0.47925 0.92588 0.0
C1759 C 0.89265 0.45872 0.93475 0.0
C1760 C 0.90843 0.43898 0.94053 0.0
C1761 C 0.93522 0.43976 0.93753 0.0
C1762 C 0.94629 0.46025 0.92869 0.0
C1763 C 0.92496 0.60883 0.92846 0.0
C1764 C 0.92781 0.6112 0.95331 0.0
C1765 C 0.93172 0.58739 0.91678 0.0
C1766 C 0.94171 0.56783 0.92959 0.0
C1767 C 0.94471 0.57016 0.95437 0.0
C1768 C 0.93792 0.59159 0.96608 0.0
C1769 C 0.94861 0.54488 0.9172 0.0
C1770 C 0.93732 0.52382 0.9248 0.0
C1771 C 0.96563 0.54374 0.89758 0.0
C1772 C 0.97952 0.56493 0.88954 0.0
C1773 C 0.99507 0.57786 0.90553 0.0
C1774 C 0.008 0.59789 0.8979 0.0
C1775 C 0.00566 0.60509 0.87427 0.0
C1776 C 0.99044 0.59223 0.85821 0.0
C1777 C 0.97746 0.57219 0.86576 0.0
H1778 H 0.01569 0.6206 0.8684 0.0
H1779 H 0.89989 0.4231 0.94737 0.0
H1780 H 0.83629 0.69744 0.07465 0.0
H1781 H 0.80068 0.68512 0.09959 0.0
H1782 H 0.79438 0.75599 0.13006 0.0
H1783 H 0.83031 0.76834 0.10561 0.0
H1784 H 0.78891 0.72388 0.16361 0.0
H1785 H 0.75238 0.7372 0.0861 0.0
H1786 H 0.74883 0.7324 0.04253 0.0
H1787 H 0.73738 0.65742 0.05018 0.0
H1788 H 0.74122 0.66172 0.09379 0.0
H1789 H 0.66352 0.70984 0.21335 0.0
H1790 H 0.69946 0.72401 0.18967 0.0
H1791 H 0.70984 0.65387 0.15827 0.0
H1792 H 0.67411 0.63963 0.18179 0.0
H1793 H 0.71255 0.68717 0.12515 0.0
H1794 H 0.74995 0.67418 0.20301 0.0
H1795 H 0.75313 0.67955 0.24654 0.0
H1796 H 0.76232 0.75475 0.23811 0.0
H1797 H 0.75884 0.74987 0.19452 0.0
C1798 C 0.82746 0.71039 0.08675 0.0
C1799 C 0.83607 0.73393 0.08797 0.0
C1800 C 0.80699 0.70334 0.10093 0.0
C1801 C 0.7945 0.71975 0.1164 0.0
C1802 C 0.80362 0.74304 0.11821 0.0
C1803 C 0.82418 0.75007 0.10415 0.0
C1804 C 0.77166 0.71277 0.13036 0.0
C1805 C 0.77207 0.71614 0.15516 0.0
C1806 C 0.74979 0.70237 0.11942 0.0
C1807 C 0.74733 0.69975 0.0932 0.0
C1808 C 0.74929 0.71966 0.07848 0.0
C1809 C 0.7472 0.71703 0.05378 0.0
C1810 C 0.74295 0.69461 0.04359 0.0
C1811 C 0.74071 0.67478 0.05809 0.0
C1812 C 0.74281 0.6773 0.0828 0.0
C1813 C 0.67352 0.69744 0.20144 0.0
C1814 C 0.66589 0.67362 0.19943 0.0
C1815 C 0.69406 0.70555 0.18792 0.0
C1816 C 0.70754 0.68993 0.17234 0.0
C1817 C 0.6997 0.66627 0.17009 0.0
C1818 C 0.67917 0.65818 0.1835 0.0
C1819 C 0.72991 0.69805 0.15841 0.0
C1820 C 0.72937 0.69495 0.1336 0.0
C1821 C 0.75159 0.70877 0.16934 0.0
C1822 C 0.75387 0.71169 0.19553 0.0
C1823 C 0.75246 0.69189 0.21045 0.0
C1824 C 0.75435 0.69484 0.23513 0.0
C1825 C 0.75785 0.71748 0.24509 0.0
C1826 C 0.75956 0.73722 0.23038 0.0
C1827 C 0.75765 0.73437 0.20569 0.0
H1828 H 0.75931 0.71973 0.2642 0.0
H1829 H 0.74134 0.69261 0.02447 0.0
H1830 H 0.57543 0.42139 0.46848 0.0
H1831 H 0.56129 0.45671 0.44646 0.0
H1832 H 0.63259 0.45381 0.4071 0.0
H1833 H 0.64679 0.41833 0.42889 0.0
H1834 H 0.62202 0.49835 0.42222 0.0
H1835 H 0.57427 0.4374 0.38173 0.0
H1836 H 0.54456 0.40381 0.3786 0.0
H1837 H 0.48321 0.44765 0.40832 0.0
H1838 H 0.51266 0.48142 0.41193 0.0
H1839 H 0.58969 0.58004 0.33141 0.0
H1840 H 0.60149 0.54505 0.35466 0.0
H1841 H 0.52759 0.54972 0.38976 0.0
H1842 H 0.5153 0.58462 0.36599 0.0
H1843 H 0.53845 0.50487 0.37827 0.0
H1844 H 0.58558 0.56608 0.41804 0.0
H1845 H 0.61512 0.59977 0.42147 0.0
H1846 H 0.67743 0.55568 0.39385 0.0
H1847 H 0.64817 0.5218 0.38995 0.0
C1848 C 0.58797 0.42796 0.45486 0.0
C1849 C 0.6123 0.41681 0.45053 0.0
C1850 C 0.57985 0.44829 0.44229 0.0
C1851 C 0.59576 0.45798 0.42493 0.0
C1852 C 0.61996 0.44682 0.42044 0.0
C1853 C 0.62809 0.42649 0.433 0.0
C1854 C 0.58752 0.48003 0.41186 0.0
C1855 C 0.60389 0.49963 0.41236 0.0
C1856 C 0.5635 0.48213 0.39954 0.0
C1857 C 0.54574 0.46187 0.39732 0.0
C1858 C 0.5545 0.43982 0.38777 0.0
C1859 C 0.5377 0.42076 0.38588 0.0
C1860 C 0.51203 0.42357 0.39332 0.0
C1861 C 0.5031 0.44548 0.4026 0.0
C1862 C 0.51983 0.4646 0.40456 0.0
C1863 C 0.57593 0.57383 0.34419 0.0
C1864 C 0.55153 0.58535 0.34684 0.0
C1865 C 0.5828 0.55376 0.3576 0.0
C1866 C 0.56565 0.54477 0.37432 0.0
C1867 C 0.54125 0.55624 0.37705 0.0
C1868 C 0.53427 0.5763 0.3635 0.0
C1869 C 0.57306 0.52315 0.38847 0.0
C1870 C 0.55654 0.50364 0.3882 0.0
C1871 C 0.59693 0.52114 0.40109 0.0
C1872 C 0.61461 0.54146 0.40351 0.0
C1873 C 0.60553 0.56361 0.41254 0.0
C1874 C 0.62224 0.58274 0.41459 0.0
C1875 C 0.64812 0.57988 0.40783 0.0
C1876 C 0.65737 0.55788 0.39906 0.0
C1877 C 0.64074 0.5387 0.39695 0.0
H1878 H 0.66102 0.59471 0.40943 0.0
H1879 H 0.49906 0.40879 0.39184 0.0
H1880 H 0.38873 0.36387 0.18155 0.0
H1881 H 0.40359 0.32377 0.19198 0.0
H1882 H 0.3276 0.30862 0.21808 0.0
H1883 H 0.31243 0.34901 0.20743 0.0
H1884 H 0.36748 0.28974 0.24707 0.0
H1885 H 0.3432 0.28653 0.16563 0.0
H1886 H 0.34061 0.29977 0.12404 0.0
H1887 H 0.42316 0.29117 0.11783 0.0
H1888 H 0.42632 0.27824 0.1595 0.0
H1889 H 0.42674 0.16712 0.24255 0.0
H1890 H 0.39369 0.19897 0.23548 0.0
H1891 H 0.4538 0.2462 0.21503 0.0
H1892 H 0.48642 0.21538 0.22287 0.0
H1893 H 0.40957 0.24238 0.18226 0.0
H1894 H 0.43273 0.25169 0.26655 0.0
H1895 H 0.43432 0.23848 0.30816 0.0
H1896 H 0.35138 0.2347 0.30862 0.0
H1897 H 0.34935 0.24719 0.26673 0.0
C1898 C 0.37508 0.35205 0.18943 0.0
C1899 C 0.34924 0.35955 0.19326 0.0
C1900 C 0.38364 0.32911 0.19547 0.0
C1901 C 0.36658 0.31299 0.20536 0.0
C1902 C 0.34106 0.32069 0.21032 0.0
C1903 C 0.33245 0.34379 0.20428 0.0
C1904 C 0.37567 0.28798 0.20957 0.0
C1905 C 0.37613 0.2791 0.23282 0.0
C1906 C 0.38676 0.27396 0.19096 0.0
C1907 C 0.38499 0.28149 0.16576 0.0
C1908 C 0.36082 0.28758 0.15545 0.0
C1909 C 0.35925 0.29503 0.13185 0.0
C1910 C 0.38171 0.29633 0.11831 0.0
C1911 C 0.40578 0.29014 0.12833 0.0
C1912 C 0.40747 0.28271 0.15194 0.0
C1913 C 0.4328 0.18435 0.2368 0.0
C1914 C 0.45922 0.18875 0.23353 0.0
C1915 C 0.41395 0.20248 0.23267 0.0
C1916 C 0.42137 0.22493 0.22474 0.0
C1917 C 0.44764 0.22902 0.2211 0.0
C1918 C 0.46629 0.2113 0.22563 0.0
C1919 C 0.40245 0.24468 0.21986 0.0
C1920 C 0.40016 0.25263 0.19639 0.0
C1921 C 0.38956 0.25763 0.23824 0.0
C1922 C 0.39092 0.24995 0.26335 0.0
C1923 C 0.41485 0.24767 0.27537 0.0
C1924 C 0.41583 0.24037 0.29904 0.0
C1925 C 0.39297 0.23567 0.311 0.0
C1926 C 0.36908 0.23828 0.29931 0.0
C1927 C 0.36801 0.24539 0.27559 0.0
H1928 H 0.39376 0.23005 0.32934 0.0
H1929 H 0.38045 0.3021 0.10004 0.0
H1930 H 0.98372 0.32483 0.85642 0.0
H1931 H 0.96024 0.28918 0.86607 0.0
H1932 H 0.90805 0.30181 0.807 0.0
H1933 H 0.93132 0.33779 0.79726 0.0
H1934 H 0.88226 0.28797 0.8467 0.0
H1935 H 0.95588 0.26019 0.80194 0.0
H1936 H 1.00224 0.25666 0.79193 0.0
H1937 H 0.01907 0.22631 0.86019 0.0
H1938 H 0.97285 0.22998 0.87076 0.0
H1939 H 0.82956 0.17165 0.8522 0.0
H1940 H 0.85008 0.20762 0.83826 0.0
H1941 H 0.91001 0.19903 0.89166 0.0
H1942 H 0.89041 0.16258 0.90488 0.0
H1943 H 0.93083 0.21067 0.85149 0.0
H1944 H 0.85822 0.24043 0.89739 0.0
H1945 H 0.81214 0.24458 0.90828 0.0
H1946 H 0.79358 0.27146 0.83889 0.0
H1947 H 0.83953 0.26718 0.82748 0.0
C1948 C 0.96721 0.32015 0.84547 0.0
C1949 C 0.95958 0.33415 0.82592 0.0
C1950 C 0.95384 0.29966 0.85099 0.0
C1951 C 0.93262 0.29258 0.83704 0.0
C1952 C 0.92444 0.30686 0.81794 0.0
C1953 C 0.93783 0.32741 0.81237 0.0
C1954 C 0.91935 0.27007 0.84229 0.0
C1955 C 0.89277 0.27099 0.84738 0.0
C1956 C 0.93314 0.24797 0.84359 0.0
C1957 C 0.96092 0.24554 0.8372 0.0
C1958 C 0.96949 0.25292 0.81488 0.0
C1959 C 0.99574 0.25087 0.8091 0.0
C1960 C 0.01359 0.24131 0.82543 0.0
C1961 C 0.00522 0.23373 0.84756 0.0
C1962 C 0.97899 0.23576 0.85345 0.0
C1963 C 0.84726 0.17726 0.86082 0.0
C1964 C 0.85817 0.16423 0.87982 0.0
C1965 C 0.85883 0.19802 0.85299 0.0
C1966 C 0.88143 0.2063 0.86412 0.0
C1967 C 0.89254 0.19312 0.88283 0.0
C1968 C 0.88111 0.17236 0.89055 0.0
C1969 C 0.89377 0.22856 0.85635 0.0
C1970 C 0.92022 0.2276 0.85069 0.0
C1971 C 0.87986 0.25061 0.85465 0.0
C1972 C 0.85226 0.25324 0.8615 0.0
C1973 C 0.84428 0.24705 0.88439 0.0
C1974 C 0.81819 0.24946 0.89067 0.0
C1975 C 0.79993 0.25821 0.87426 0.0
C1976 C 0.80774 0.26464 0.85157 0.0
C1977 C 0.8338 0.26225 0.84519 0.0
H1978 H 0.77975 0.26006 0.87916 0.0
H1979 H 0.03391 0.23975 0.82092 0.0
H1980 H 0.11729 0.58619 0.09389 0.0
H1981 H 0.08288 0.61222 0.07736 0.0
H1982 H 0.05832 0.63138 0.1484 0.0
H1983 H 0.09227 0.6053 0.16488 0.0
H1984 H 0.01769 0.62155 0.12208 0.0
H1985 H 0.09343 0.66929 0.11216 0.0
H1986 H 0.1371 0.67755 0.09747 0.0
H1987 H 0.11075 0.66738 0.02547 0.0
H1988 H 0.06698 0.65877 0.03976 0.0
H1989 H 0.94176 0.72658 0.10806 0.0
H1990 H 0.97562 0.69683 0.11745 0.0
H1991 H 0.98719 0.68296 0.04258 0.0
H1992 H 0.95342 0.7131 0.03308 0.0
H1993 H 0.03323 0.68706 0.06614 0.0
H1994 H 0.95653 0.64304 0.07588 0.0
H1995 H 0.91271 0.63539 0.09049 0.0
H1996 H 0.94071 0.63846 0.16259 0.0
H1997 H 0.98465 0.64648 0.14843 0.0
C1998 C 0.10469 0.59613 0.10595 0.0
C1999 C 0.10742 0.59349 0.13071 0.0
C2000 C 0.085 0.61102 0.09649 0.0
C2001 C 0.06794 0.62388 0.11161 0.0
C2002 C 0.07101 0.62154 0.13631 0.0
C2003 C 0.09047 0.60657 0.14573 0.0
C2004 C 0.04651 0.63948 0.10204 0.0
C2005 C 0.02119 0.636 0.11001 0.0
C2006 C 0.05076 0.65787 0.08562 0.0
C2007 C 0.07703 0.66312 0.07704 0.0
C2008 C 0.09701 0.66864 0.0932 0.0
C2009 C 0.12176 0.67341 0.08495 0.0
C2010 C 0.12672 0.67291 0.06056 0.0
C2011 C 0.1069 0.66771 0.04436 0.0
C2012 C 0.08211 0.6629 0.05252 0.0
C2013 C 0.95141 0.7171 0.09359 0.0
C2014 C 0.94489 0.72211 0.06985 0.0
C2015 C 0.97073 0.70003 0.09897 0.0
C2016 C 0.98386 0.68745 0.08074 0.0
C2017 C 0.97735 0.69241 0.05696 0.0
C2018 C 0.95797 0.70953 0.05155 0.0
C2019 C 1.00463 0.66949 0.08673 0.0
C2020 C 0.02975 0.67247 0.07803 0.0
C2021 C 1.00023 0.6506 0.10248 0.0
C2022 C 0.97387 0.64553 0.11108 0.0
C2023 C 0.95332 0.64224 0.09486 0.0
C2024 C 0.92846 0.63782 0.10306 0.0
C2025 C 0.92392 0.63648 0.12746 0.0
C2026 C 0.94425 0.6395 0.1437 0.0
C2027 C 0.96915 0.64396 0.13559 0.0
H2028 H 0.90465 0.63307 0.13378 0.0
H2029 H 0.1459 0.67662 0.0542 0.0
H2030 H 0.64069 0.86764 0.39265 0.0
H2031 H 0.62212 0.82924 0.383 0.0
H2032 H 0.68399 0.81377 0.33373 0.0
H2033 H 0.70229 0.85279 0.34263 0.0
H2034 H 0.63827 0.79927 0.31538 0.0
H2035 H 0.68404 0.78847 0.38899 0.0
H2036 H 0.69637 0.798 0.43046 0.0
H2037 H 0.61782 0.78919 0.45243 0.0
H2038 H 0.60495 0.77992 0.41103 0.0
H2039 H 0.59526 0.67974 0.30238 0.0
H2040 H 0.62285 0.71399 0.3099 0.0
H2041 H 0.57498 0.73508 0.36959 0.0
H2042 H 0.54916 0.69984 0.36333 0.0
H2043 H 0.61946 0.74493 0.38142 0.0
H2044 H 0.57265 0.76066 0.30694 0.0
H2045 H 0.56033 0.75045 0.26557 0.0
H2046 H 0.64037 0.7496 0.24536 0.0
H2047 H 0.65313 0.75967 0.28664 0.0
C2048 C 0.65024 0.85635 0.37946 0.0
C2049 C 0.6731 0.86357 0.36846 0.0
C2050 C 0.6397 0.83414 0.37415 0.0
C2051 C 0.6518 0.81828 0.35788 0.0
C2052 C 0.6743 0.82555 0.34644 0.0
C2053 C 0.68489 0.84786 0.35172 0.0
C2054 C 0.641 0.7941 0.3532 0.0
C2055 C 0.63443 0.78727 0.3298 0.0
C2056 C 0.63576 0.77834 0.37191 0.0
C2057 C 0.64351 0.78366 0.39687 0.0
C2058 C 0.66937 0.7887 0.40264 0.0
C2059 C 0.67646 0.79404 0.42614 0.0
C2060 C 0.65788 0.79424 0.44406 0.0
C2061 C 0.63219 0.78904 0.43853 0.0
C2062 C 0.62499 0.78371 0.41506 0.0
C2063 C 0.59102 0.69152 0.31732 0.0
C2064 C 0.57012 0.68701 0.33227 0.0
C2065 C 0.60655 0.71138 0.32145 0.0
C2066 C 0.60076 0.72785 0.33998 0.0
C2067 C 0.58011 0.72291 0.35516 0.0
C2068 C 0.56523 0.70267 0.35154 0.0
C2069 C 0.61561 0.75036 0.34366 0.0
C2070 C 0.62319 0.75686 0.36692 0.0
C2071 C 0.62161 0.76584 0.32482 0.0
C2072 C 0.61383 0.76075 0.29987 0.0
C2073 C 0.58759 0.75831 0.29364 0.0
C2074 C 0.58054 0.75253 0.27023 0.0
C2075 C 0.59956 0.74934 0.25286 0.0
C2076 C 0.62566 0.75208 0.25883 0.0
C2077 C 0.6328 0.75787 0.28221 0.0
H2078 H 0.59407 0.74477 0.23477 0.0
H2079 H 0.6634 0.79839 0.46224 0.0
H2080 H 0.61757 0.34233 0.56988 0.0
H2081 H 0.58218 0.37086 0.57909 0.0
H2082 H 0.53968 0.3146 0.61109 0.0
H2083 H 0.57456 0.28591 0.60068 0.0
H2084 H 0.50899 0.34043 0.58242 0.0
H2085 H 0.57121 0.35706 0.64461 0.0
H2086 H 0.6141 0.3676 0.66063 0.0
H2087 H 0.60954 0.43407 0.62377 0.0
H2088 H 0.56675 0.42378 0.60727 0.0
H2089 H 0.41518 0.40324 0.6492 0.0
H2090 H 0.45275 0.37913 0.63679 0.0
H2091 H 0.48517 0.44046 0.604 0.0
H2092 H 0.44771 0.46503 0.617 0.0
H2093 H 0.52154 0.41459 0.62974 0.0
H2094 H 0.45805 0.39906 0.56964 0.0
H2095 H 0.41509 0.38858 0.55379 0.0
H2096 H 0.42207 0.32005 0.58655 0.0
H2097 H 0.46492 0.33025 0.60291 0.0
C2098 C 0.60039 0.33605 0.57833 0.0
C2099 C 0.59829 0.31194 0.58392 0.0
C2100 C 0.58041 0.35239 0.58402 0.0
C2101 C 0.55826 0.34486 0.59579 0.0
C2102 C 0.55652 0.32078 0.60189 0.0
C2103 C 0.57644 0.30446 0.59609 0.0
C2104 C 0.53659 0.36186 0.60136 0.0
C2105 C 0.5117 0.35651 0.59299 0.0
C2106 C 0.54028 0.38326 0.61446 0.0
C2107 C 0.56591 0.38954 0.62451 0.0
C2108 C 0.57944 0.37385 0.63978 0.0
C2109 C 0.60372 0.37979 0.64897 0.0
C2110 C 0.61457 0.40146 0.64317 0.0
C2111 C 0.60113 0.41727 0.62822 0.0
C2112 C 0.57685 0.41141 0.61896 0.0
C2113 C 0.43041 0.41172 0.63959 0.0
C2114 C 0.42851 0.43608 0.63417 0.0
C2115 C 0.45176 0.39784 0.6323 0.0
C2116 C 0.47159 0.40795 0.61924 0.0
C2117 C 0.46999 0.43232 0.61398 0.0
C2118 C 0.44853 0.44627 0.62127 0.0
C2119 C 0.49392 0.39284 0.61123 0.0
C2120 C 0.5189 0.39859 0.61904 0.0
C2121 C 0.49035 0.37178 0.5976 0.0
C2122 C 0.46463 0.3655 0.58766 0.0
C2123 C 0.45035 0.38182 0.57361 0.0
C2124 C 0.42603 0.37591 0.56452 0.0
C2125 C 0.41584 0.35368 0.5692 0.0
C2126 C 0.42998 0.33727 0.58295 0.0
C2127 C 0.4543 0.34309 0.59212 0.0
H2128 H 0.397 0.34914 0.56214 0.0
H2129 H 0.63337 0.40603 0.65029 0.0
H2130 H 0.16373 0.66597 0.71538 0.0
H2131 H 0.13989 0.70202 0.72826 0.0
H2132 H 0.19824 0.74534 0.6975 0.0
H2133 H 0.2229 0.70944 0.68577 0.0
H2134 H 0.18091 0.76645 0.7367 0.0
H2135 H 0.14128 0.73178 0.66703 0.0
H2136 H 0.1215 0.69972 0.64317 0.0
H2137 H 0.06101 0.69454 0.69458 0.0
H2138 H 0.08063 0.72636 0.71891 0.0
H2139 H 0.09713 0.8715 0.72234 0.0
H2140 H 0.12839 0.83774 0.7182 0.0
H2141 H 0.0723 0.79077 0.74725 0.0
H2142 H 0.04116 0.82396 0.75054 0.0
H2143 H 0.08983 0.77231 0.70816 0.0
H2144 H 0.12962 0.80734 0.77792 0.0
H2145 H 0.14897 0.84005 0.80094 0.0
H2146 H 0.20856 0.8456 0.74869 0.0
H2147 H 0.1894 0.81289 0.72523 0.0
C2148 C 0.17186 0.68312 0.71186 0.0
C2149 C 0.19508 0.68469 0.69913 0.0
C2150 C 0.15803 0.70379 0.71901 0.0
C2151 C 0.16688 0.72649 0.71331 0.0
C2152 C 0.19081 0.72811 0.70192 0.0
C2153 C 0.20477 0.70749 0.69497 0.0
C2154 C 0.1505 0.74841 0.71779 0.0
C2155 C 0.16105 0.7678 0.7303 0.0
C2156 C 0.12451 0.75027 0.7096 0.0
C2157 C 0.11256 0.73129 0.69488 0.0
C2158 C 0.12385 0.7237 0.67331 0.0
C2159 C 0.11266 0.70559 0.6597 0.0
C2160 C 0.09005 0.69506 0.66739 0.0
C2161 C 0.07854 0.70268 0.68867 0.0
C2162 C 0.08967 0.72077 0.70236 0.0
C2163 C 0.0918 0.85402 0.72821 0.0
C2164 C 0.0667 0.85024 0.73652 0.0
C2165 C 0.10963 0.83472 0.72587 0.0
C2166 C 0.10271 0.81155 0.73229 0.0
C2167 C 0.07809 0.8083 0.74187 0.0
C2168 C 0.0603 0.82733 0.74383 0.0
C2169 C 0.11996 0.79022 0.72759 0.0
C2170 C 0.10963 0.77097 0.71475 0.0
C2171 C 0.14608 0.78858 0.73543 0.0
C2172 C 0.15793 0.80786 0.74972 0.0
C2173 C 0.14678 0.81562 0.77128 0.0
C2174 C 0.15773 0.83416 0.78442 0.0
C2175 C 0.17992 0.84504 0.77623 0.0
C2176 C 0.19133 0.83721 0.75498 0.0
C2177 C 0.18047 0.81863 0.74178 0.0
H2178 H 0.1883 0.8595 0.78633 0.0
H2179 H 0.08142 0.68103 0.65683 0.0
H2180 H 0.46045 0.80459 0.97261 0.0
H2181 H 0.496 0.83046 0.96336 0.0
H2182 H 0.46609 0.88346 0.01298 0.0
H2183 H 0.43058 0.8574 0.02272 0.0
H2184 H 0.49823 0.87266 0.94455 0.0
H2185 H 0.51578 0.91348 0.03769 0.0
H2186 H 0.50868 0.9032 0.07964 0.0
H2187 H 0.51579 0.82871 0.06165 0.0
H2188 H 0.52323 0.83856 0.01971 0.0
H2189 H 0.57987 0.97046 0.93506 0.0
H2190 H 0.54458 0.94603 0.94849 0.0
H2191 H 0.60001 0.89545 0.97789 0.0
H2192 H 0.63561 0.92006 0.96469 0.0
H2193 H 0.55648 0.9042 1.00757 0.0
H2194 H 0.57527 0.8828 0.9264 0.0
H2195 H 0.58256 0.89042 0.88394 0.0
H2196 H 0.50562 0.92075 0.8774 0.0
H2197 H 0.49801 0.91363 0.91995 0.0
C2198 C 0.4613 0.82177 0.98156 0.0
C2199 C 0.44268 0.8288 0.99857 0.0
C2200 C 0.48169 0.83658 0.9762 0.0
C2201 C 0.48398 0.85881 0.98766 0.0
C2202 C 0.46506 0.8662 1.00422 0.0
C2203 C 0.44469 0.85129 0.00972 0.0
C2204 C 0.50626 0.87407 0.98221 0.0
C2205 C 0.51088 0.87959 0.95837 0.0
C2206 C 0.52308 0.88286 1.00016 0.0
C2207 C 0.51987 0.87678 0.02554 0.0
C2208 C 0.51604 0.89492 0.04274 0.0
C2209 C 0.5119 0.88916 0.0665 0.0
C2210 C 0.51174 0.86532 0.0733 0.0
C2211 C 0.51588 0.84717 0.05637 0.0
C2212 C 0.52004 0.85283 0.0326 0.0
C2213 C 0.58462 0.95438 0.94477 0.0
C2214 C 0.61061 0.94722 0.94879 0.0
C2215 C 0.56439 0.94035 0.95232 0.0
C2216 C 0.56965 0.91885 0.96407 0.0
C2217 C 0.59552 0.912 0.96887 0.0
C2218 C 0.61583 0.92597 0.96115 0.0
C2219 C 0.54815 0.90292 0.96996 0.0
C2220 C 0.54371 0.89731 0.99382 0.0
C2221 C 0.53169 0.89367 0.95201 0.0
C2222 C 0.53617 0.89791 0.92641 0.0
C2223 C 0.55999 0.89128 0.91596 0.0
C2224 C 0.56416 0.89547 0.89187 0.0
C2225 C 0.54459 0.90612 0.878 0.0
C2226 C 0.52077 0.91254 0.88818 0.0
C2227 C 0.51651 0.90842 0.91228 0.0
H2228 H 0.54785 0.90934 0.85935 0.0
H2229 H 0.50843 0.86089 0.09168 0.0
H2230 H 0.89645 0.12853 0.43052 0.0
H2231 H 0.93141 0.15268 0.44645 0.0
H2232 H 0.97049 0.08944 0.47283 0.0
H2233 H 0.93571 0.06503 0.45665 0.0
H2234 H 0.9736 0.12647 0.50498 0.0
H2235 H 0.9901 0.11407 0.42191 0.0
H2236 H 0.97963 0.11421 0.37903 0.0
H2237 H 0.96593 0.18998 0.38222 0.0
H2238 H 0.97596 0.19024 0.42521 0.0
H2239 H 0.09455 0.18278 0.52546 0.0
H2240 H 0.06021 0.15618 0.51262 0.0
H2241 H 0.02227 0.21416 0.47518 0.0
H2242 H 0.0573 0.24036 0.48686 0.0
H2243 H 0.01951 0.17767 0.44889 0.0
H2244 H 1.00194 0.19002 0.5326 0.0
H2245 H 0.01296 0.1897 0.57539 0.0
H2246 H 0.02897 0.1143 0.57131 0.0
H2247 H 0.01829 0.11421 0.52842 0.0
C2248 C 0.91248 0.11966 0.43963 0.0
C2249 C 0.91324 0.0947 0.44201 0.0
C2250 C 0.93248 0.13356 0.44883 0.0
C2251 C 0.95388 0.12291 0.46058 0.0
C2252 C 0.95425 0.09812 0.46383 0.0
C2253 C 0.93423 0.08417 0.45461 0.0
C2254 C 0.97621 0.13756 0.46862 0.0
C2255 C 0.98383 0.13749 0.49268 0.0
C2256 C 0.98945 0.15221 0.45271 0.0
C2257 C 0.98354 0.15213 0.42683 0.0
C2258 C 0.98467 0.13073 0.4135 0.0
C2259 C 0.97884 0.13075 0.38917 0.0
C2260 C 0.97206 0.15208 0.37792 0.0
C2261 C 0.97116 0.17346 0.39097 0.0
C2262 C 0.97693 0.17354 0.41531 0.0
C2263 C 0.07886 0.18986 0.51451 0.0
C2264 C 0.07871 0.21374 0.50722 0.0
C2265 C 0.05905 0.17464 0.5073 0.0
C2266 C 0.03813 0.18311 0.49323 0.0
C2267 C 0.03804 0.20701 0.48599 0.0
C2268 C 0.05813 0.22206 0.49274 0.0
C2269 C 0.01666 0.16715 0.48547 0.0
C2270 C 0.00927 0.16681 0.46133 0.0
C2271 C 1.00363 0.1522 0.50137 0.0
C2272 C 0.00953 0.15216 0.52726 0.0
C2273 C 0.00791 0.17339 0.54081 0.0
C2274 C 0.01409 0.17328 0.56508 0.0
C2275 C 0.02172 0.152 0.57605 0.0
C2276 C 0.02307 0.13077 0.56279 0.0
C2277 C 0.01692 0.13078 0.53851 0.0
H2278 H 0.02655 0.15195 0.59483 0.0
H2279 H 0.96756 0.15206 0.35908 0.0
loop_
_geom_bond_atom_site_label_1
_geom_bond_atom_site_label_2
_geom_bond_distance
_geom_bond_site_symmetry_2
_ccdc_geom_bond_type
Tb0 C2 2.809 . S
Tb0 O20 2.484 . S
Tb0 O21 2.440 . S
Tb0 O22 2.658 . S
Tb0 O23 2.409 . S
Tb0 O24 2.378 . S
Tb0 O28 2.325 . S
Tb0 O31 2.341 . S
Tb1 C11 2.809 . S
Tb1 O22 2.325 . S
Tb1 O25 2.341 . S
Tb1 O26 2.484 . S
Tb1 O27 2.440 . S
Tb1 O28 2.658 . S
Tb1 O29 2.409 . S
Tb1 O30 2.378 . S
C2 Tb0 2.809 . S
C2 C3 1.514 . S
C2 O20 1.248 . S
C2 O21 1.266 . S
C3 C2 1.514 . S
C3 C4 1.359 . S
C3 C8 1.348 . S
C4 C3 1.359 . S
C4 C5 1.380 . S
C4 H32 0.929 . S
C5 C4 1.380 . S
C5 C6 1.347 . S
C5 H33 0.931 . S
C6 C5 1.347 . S
C6 C7 1.369 . S
C7 C6 1.369 . S
C7 C8 1.408 . S
C7 H34 0.930 . S
C8 C3 1.348 . S
C8 C7 1.408 . S
C8 H35 0.930 . S
C9 O22 1.281 . S
C9 O23 1.254 . S
C10 O24 1.236 . S
C10 O25 1.266 . S
C11 Tb1 2.809 . S
C11 C12 1.514 . S
C11 O26 1.248 . S
C11 O27 1.266 . S
C12 C11 1.514 . S
C12 C13 1.359 . S
C12 C17 1.348 . S
C13 C12 1.359 . S
C13 C14 1.380 . S
C13 H36 0.929 . S
C14 C13 1.380 . S
C14 C15 1.347 . S
C14 H37 0.931 . S
C15 C14 1.347 . S
C15 C16 1.369 . S
C16 C15 1.369 . S
C16 C17 1.408 . S
C16 H38 0.930 . S
C17 C12 1.348 . S
C17 C16 1.408 . S
C17 H39 0.930 . S
C18 O28 1.281 . S
C18 O29 1.254 . S
C19 O30 1.236 . S
C19 O31 1.266 . S
O20 Tb0 2.484 . S
O20 C2 1.248 . S
O21 Tb0 2.440 . S
O21 C2 1.266 . S
O22 Tb0 2.658 . S
O22 Tb1 2.325 . S
O22 C9 1.281 . S
O23 Tb0 2.409 . S
O23 C9 1.254 . S
O24 Tb0 2.378 . S
O24 C10 1.236 . S
O25 Tb1 2.341 . S
O25 C10 1.266 . S
O26 Tb1 2.484 . S
O26 C11 1.248 . S
O27 Tb1 2.440 . S
O27 C11 1.266 . S
O28 Tb0 2.325 . S
O28 Tb1 2.658 . S
O28 C18 1.281 . S
O29 Tb1 2.409 . S
O29 C18 1.254 . S
O30 Tb1 2.378 . S
O30 C19 1.236 . S
O31 Tb0 2.341 . S
O31 C19 1.266 . S
H32 C4 0.929 . S
H33 C5 0.931 . S
H34 C7 0.930 . S
H35 C8 0.930 . S
H36 C13 0.929 . S
H37 C14 0.931 . S
H38 C16 0.930 . S
H39 C17 0.930 . S
Tb40 C42 2.809 . S
Tb40 O60 2.484 . S
Tb40 O61 2.440 . S
Tb40 O62 2.658 1_655 S
Tb40 O63 2.409 1_655 S
Tb40 O64 2.378 1_655 S
Tb40 O68 2.325 . S
Tb40 O71 2.341 . S
Tb41 C51 2.809 . S
Tb41 O62 2.325 . S
Tb41 O65 2.341 . S
Tb41 O66 2.484 . S
Tb41 O67 2.440 . S
Tb41 O68 2.658 1_455 S
Tb41 O69 2.409 . S
Tb41 O70 2.378 . S
C42 Tb40 2.809 . S
C42 C43 1.514 . S
C42 O60 1.248 . S
C42 O61 1.266 . S
C43 C42 1.514 . S
C43 C44 1.359 . S
C43 C48 1.348 . S
C44 C43 1.359 . S
C44 C45 1.380 . S
C44 H72 0.929 . S
C45 C44 1.380 . S
C45 C46 1.347 . S
C45 H73 0.931 . S
C46 C45 1.347 . S
C46 C47 1.369 . S
C47 C46 1.369 . S
C47 C48 1.408 . S
C47 H74 0.930 . S
C48 C43 1.348 . S
C48 C47 1.408 . S
C48 H75 0.930 . S
C49 O62 1.281 . S
C49 O63 1.254 . S
C50 O64 1.236 . S
C50 O65 1.266 . S
C51 Tb41 2.809 . S
C51 C52 1.514 . S
C51 O66 1.248 . S
C51 O67 1.266 . S
C52 C51 1.514 . S
C52 C53 1.359 . S
C52 C57 1.348 . S
C53 C52 1.359 . S
C53 C54 1.380 . S
C53 H76 0.929 . S
C54 C53 1.380 . S
C54 C55 1.347 . S
C54 H77 0.931 . S
C55 C54 1.347 . S
C55 C56 1.369 . S
C56 C55 1.369 . S
C56 C57 1.408 . S
C56 H78 0.930 . S
C57 C52 1.348 . S
C57 C56 1.408 . S
C57 H79 0.930 . S
C58 O68 1.281 . S
C58 O69 1.254 1_655 S
C59 O70 1.236 1_655 S
C59 O71 1.266 . S
O60 Tb40 2.484 . S
O60 C42 1.248 . S
O61 Tb40 2.440 . S
O61 C42 1.266 . S
O62 Tb40 2.658 1_455 S
O62 Tb41 2.325 . S
O62 C49 1.281 . S
O63 Tb40 2.409 1_455 S
O63 C49 1.254 . S
O64 Tb40 2.378 1_455 S
O64 C50 1.236 . S
O65 Tb41 2.341 . S
O65 C50 1.266 . S
O66 Tb41 2.484 . S
O66 C51 1.248 . S
O67 Tb41 2.440 . S
O67 C51 1.266 . S
O68 Tb40 2.325 . S
O68 Tb41 2.658 1_655 S
O68 C58 1.281 . S
O69 Tb41 2.409 . S
O69 C58 1.254 1_455 S
O70 Tb41 2.378 . S
O70 C59 1.236 1_455 S
O71 Tb40 2.341 . S
O71 C59 1.266 . S
H72 C44 0.929 . S
H73 C45 0.931 . S
H74 C47 0.930 . S
H75 C48 0.930 . S
H76 C53 0.929 . S
H77 C54 0.931 . S
H78 C56 0.930 . S
H79 C57 0.930 . S
Tb80 C82 2.809 . S
Tb80 O100 2.484 . S
Tb80 O101 2.440 . S
Tb80 O102 2.658 1_554 S
Tb80 O103 2.409 1_554 S
Tb80 O104 2.378 1_554 S
Tb80 O108 2.325 . S
Tb80 O111 2.341 . S
Tb81 C91 2.809 . S
Tb81 O102 2.325 . S
Tb81 O105 2.341 . S
Tb81 O106 2.484 . S
Tb81 O107 2.440 . S
Tb81 O108 2.658 1_556 S
Tb81 O109 2.409 1_556 S
Tb81 O110 2.378 . S
C82 Tb80 2.809 . S
C82 C83 1.514 . S
C82 O100 1.248 . S
C82 O101 1.266 . S
C83 C82 1.514 . S
C83 C84 1.359 . S
C83 C88 1.348 . S
C84 C83 1.359 . S
C84 C85 1.380 . S
C84 H112 0.929 . S
C85 C84 1.380 . S
C85 C86 1.347 . S
C85 H113 0.931 . S
C86 C85 1.347 . S
C86 C87 1.369 . S
C87 C86 1.369 . S
C87 C88 1.408 . S
C87 H114 0.930 . S
C88 C83 1.348 . S
C88 C87 1.408 . S
C88 H115 0.930 . S
C89 O102 1.281 . S
C89 O103 1.254 . S
C90 O104 1.236 . S
C90 O105 1.266 . S
C91 Tb81 2.809 . S
C91 C92 1.514 . S
C91 O106 1.248 . S
C91 O107 1.266 . S
C92 C91 1.514 . S
C92 C93 1.359 . S
C92 C97 1.348 . S
C93 C92 1.359 . S
C93 C94 1.380 . S
C93 H116 0.929 . S
C94 C93 1.380 . S
C94 C95 1.347 . S
C94 H117 0.931 . S
C95 C94 1.347 . S
C95 C96 1.369 . S
C96 C95 1.369 . S
C96 C97 1.408 . S
C96 H118 0.930 . S
C97 C92 1.348 . S
C97 C96 1.408 . S
C97 H119 0.930 . S
C98 O108 1.281 . S
C98 O109 1.254 . S
C99 O110 1.236 1_554 S
C99 O111 1.266 . S
O100 Tb80 2.484 . S
O100 C82 1.248 . S
O101 Tb80 2.440 . S
O101 C82 1.266 . S
O102 Tb80 2.658 1_556 S
O102 Tb81 2.325 . S
O102 C89 1.281 . S
O103 Tb80 2.409 1_556 S
O103 C89 1.254 . S
O104 Tb80 2.378 1_556 S
O104 C90 1.236 . S
O105 Tb81 2.341 . S
O105 C90 1.266 . S
O106 Tb81 2.484 . S
O106 C91 1.248 . S
O107 Tb81 2.440 . S
O107 C91 1.266 . S
O108 Tb80 2.325 . S
O108 Tb81 2.658 1_554 S
O108 C98 1.281 . S
O109 Tb81 2.409 1_554 S
O109 C98 1.254 . S
O110 Tb81 2.378 . S
O110 C99 1.236 1_556 S
O111 Tb80 2.341 . S
O111 C99 1.266 . S
H112 C84 0.929 . S
H113 C85 0.931 . S
H114 C87 0.930 . S
H115 C88 0.930 . S
H116 C93 0.929 . S
H117 C94 0.931 . S
H118 C96 0.930 . S
H119 C97 0.930 . S
Tb120 C122 2.809 . S
Tb120 O140 2.484 . S
Tb120 O141 2.440 . S
Tb120 O142 2.658 . S
Tb120 O143 2.409 . S
Tb120 O144 2.378 . S
Tb120 O148 2.325 . S
Tb120 O151 2.341 . S
Tb121 C131 2.809 . S
Tb121 O142 2.325 . S
Tb121 O145 2.341 . S
Tb121 O146 2.484 . S
Tb121 O147 2.440 . S
Tb121 O148 2.658 . S
Tb121 O149 2.409 . S
Tb121 O150 2.378 . S
C122 Tb120 2.809 . S
C122 C123 1.514 . S
C122 O140 1.248 . S
C122 O141 1.266 . S
C123 C122 1.514 . S
C123 C124 1.359 . S
C123 C128 1.348 . S
C124 C123 1.359 . S
C124 C125 1.380 . S
C124 H152 0.929 . S
C125 C124 1.380 . S
C125 C126 1.347 . S
C125 H153 0.931 . S
C126 C125 1.347 . S
C126 C127 1.369 . S
C127 C126 1.369 . S
C127 C128 1.408 . S
C127 H154 0.930 . S
C128 C123 1.348 . S
C128 C127 1.408 . S
C128 H155 0.930 . S
C129 O142 1.281 . S
C129 O143 1.254 . S
C130 O144 1.236 . S
C130 O145 1.266 . S
C131 Tb121 2.809 . S
C131 C132 1.514 . S
C131 O146 1.248 . S
C131 O147 1.266 . S
C132 C131 1.514 . S
C132 C133 1.359 . S
C132 C137 1.348 . S
C133 C132 1.359 . S
C133 C134 1.380 . S
C133 H156 0.929 . S
C134 C133 1.380 . S
C134 C135 1.347 . S
C134 H157 0.931 . S
C135 C134 1.347 . S
C135 C136 1.369 . S
C136 C135 1.369 . S
C136 C137 1.408 . S
C136 H158 0.930 . S
C137 C132 1.348 . S
C137 C136 1.408 . S
C137 H159 0.930 . S
C138 O148 1.281 . S
C138 O149 1.254 . S
C139 O150 1.236 . S
C139 O151 1.266 . S
O140 Tb120 2.484 . S
O140 C122 1.248 . S
O141 Tb120 2.440 . S
O141 C122 1.266 . S
O142 Tb120 2.658 . S
O142 Tb121 2.325 . S
O142 C129 1.281 . S
O143 Tb120 2.409 . S
O143 C129 1.254 . S
O144 Tb120 2.378 . S
O144 C130 1.236 . S
O145 Tb121 2.341 . S
O145 C130 1.266 . S
O146 Tb121 2.484 . S
O146 C131 1.248 . S
O147 Tb121 2.440 . S
O147 C131 1.266 . S
O148 Tb120 2.325 . S
O148 Tb121 2.658 . S
O148 C138 1.281 . S
O149 Tb121 2.409 . S
O149 C138 1.254 . S
O150 Tb121 2.378 . S
O150 C139 1.236 . S
O151 Tb120 2.341 . S
O151 C139 1.266 . S
H152 C124 0.929 . S
H153 C125 0.931 . S
H154 C127 0.930 . S
H155 C128 0.930 . S
H156 C133 0.929 . S
H157 C134 0.931 . S
H158 C136 0.930 . S
H159 C137 0.930 . S
Tb160 C162 2.809 . S
Tb160 O180 2.484 . S
Tb160 O181 2.440 . S
Tb160 O182 2.658 . S
Tb160 O183 2.409 . S
Tb160 O184 2.378 . S
Tb160 O188 2.325 . S
Tb160 O191 2.341 . S
Tb161 C171 2.809 . S
Tb161 O182 2.325 . S
Tb161 O185 2.341 . S
Tb161 O186 2.484 . S
Tb161 O187 2.440 . S
Tb161 O188 2.658 . S
Tb161 O189 2.409 . S
Tb161 O190 2.378 . S
C162 Tb160 2.809 . S
C162 C163 1.514 . S
C162 O180 1.248 . S
C162 O181 1.266 . S
C163 C162 1.514 . S
C163 C164 1.359 . S
C163 C168 1.348 . S
C164 C163 1.359 . S
C164 C165 1.380 . S
C164 H192 0.929 . S
C165 C164 1.380 . S
C165 C166 1.347 . S
C165 H193 0.931 . S
C166 C165 1.347 . S
C166 C167 1.369 . S
C167 C166 1.369 . S
C167 C168 1.408 . S
C167 H194 0.930 . S
C168 C163 1.348 . S
C168 C167 1.408 . S
C168 H195 0.930 . S
C169 O182 1.281 . S
C169 O183 1.254 . S
C170 O184 1.236 . S
C170 O185 1.266 . S
C171 Tb161 2.809 . S
C171 C172 1.514 . S
C171 O186 1.248 . S
C171 O187 1.266 . S
C172 C171 1.514 . S
C172 C173 1.359 . S
C172 C177 1.348 . S
C173 C172 1.359 . S
C173 C174 1.380 . S
C173 H196 0.929 . S
C174 C173 1.380 . S
C174 C175 1.347 . S
C174 H197 0.931 . S
C175 C174 1.347 . S
C175 C176 1.369 . S
C176 C175 1.369 . S
C176 C177 1.408 . S
C176 H198 0.930 . S
C177 C172 1.348 . S
C177 C176 1.408 . S
C177 H199 0.930 . S
C178 O188 1.281 . S
C178 O189 1.254 . S
C179 O190 1.236 . S
C179 O191 1.266 . S
O180 Tb160 2.484 . S
O180 C162 1.248 . S
O181 Tb160 2.440 . S
O181 C162 1.266 . S
O182 Tb160 2.658 . S
O182 Tb161 2.325 . S
O182 C169 1.281 . S
O183 Tb160 2.409 . S
O183 C169 1.254 . S
O184 Tb160 2.378 . S
O184 C170 1.236 . S
O185 Tb161 2.341 . S
O185 C170 1.266 . S
O186 Tb161 2.484 . S
O186 C171 1.248 . S
O187 Tb161 2.440 . S
O187 C171 1.266 . S
O188 Tb160 2.325 . S
O188 Tb161 2.658 . S
O188 C178 1.281 . S
O189 Tb161 2.409 . S
O189 C178 1.254 . S
O190 Tb161 2.378 . S
O190 C179 1.236 . S
O191 Tb160 2.341 . S
O191 C179 1.266 . S
H192 C164 0.929 . S
H193 C165 0.931 . S
H194 C167 0.930 . S
H195 C168 0.930 . S
H196 C173 0.929 . S
H197 C174 0.931 . S
H198 C176 0.930 . S
H199 C177 0.930 . S
Tb200 C202 2.809 . S
Tb200 O220 2.484 . S
Tb200 O221 2.440 . S
Tb200 O222 2.658 . S
Tb200 O223 2.409 . S
Tb200 O224 2.378 . S
Tb200 O228 2.325 1_655 S
Tb200 O231 2.341 1_655 S
Tb201 C211 2.809 . S
Tb201 O222 2.325 1_455 S
Tb201 O225 2.341 1_455 S
Tb201 O226 2.484 . S
Tb201 O227 2.440 . S
Tb201 O228 2.658 . S
Tb201 O229 2.409 . S
Tb201 O230 2.378 . S
C202 Tb200 2.809 . S
C202 C203 1.514 . S
C202 O220 1.248 . S
C202 O221 1.266 . S
C203 C202 1.514 . S
C203 C204 1.359 . S
C203 C208 1.348 . S
C204 C203 1.359 . S
C204 C205 1.380 . S
C204 H232 0.929 . S
C205 C204 1.380 . S
C205 C206 1.347 . S
C205 H233 0.931 . S
C206 C205 1.347 . S
C206 C207 1.369 . S
C207 C206 1.369 . S
C207 C208 1.408 . S
C207 H234 0.930 . S
C208 C203 1.348 . S
C208 C207 1.408 . S
C208 H235 0.930 . S
C209 O222 1.281 . S
C209 O223 1.254 . S
C210 O224 1.236 . S
C210 O225 1.266 . S
C211 Tb201 2.809 . S
C211 C212 1.514 . S
C211 O226 1.248 . S
C211 O227 1.266 . S
C212 C211 1.514 . S
C212 C213 1.359 . S
C212 C217 1.348 . S
C213 C212 1.359 . S
C213 C214 1.380 . S
C213 H236 0.929 . S
C214 C213 1.380 . S
C214 C215 1.347 . S
C214 H237 0.931 . S
C215 C214 1.347 . S
C215 C216 1.369 . S
C216 C215 1.369 . S
C216 C217 1.408 . S
C216 H238 0.930 . S
C217 C212 1.348 . S
C217 C216 1.408 . S
C217 H239 0.930 . S
C218 O228 1.281 . S
C218 O229 1.254 . S
C219 O230 1.236 . S
C219 O231 1.266 . S
O220 Tb200 2.484 . S
O220 C202 1.248 . S
O221 Tb200 2.440 . S
O221 C202 1.266 . S
O222 Tb200 2.658 . S
O222 Tb201 2.325 1_655 S
O222 C209 1.281 . S
O223 Tb200 2.409 . S
O223 C209 1.254 . S
O224 Tb200 2.378 . S
O224 C210 1.236 . S
O225 Tb201 2.341 1_655 S
O225 C210 1.266 . S
O226 Tb201 2.484 . S
O226 C211 1.248 . S
O227 Tb201 2.440 . S
O227 C211 1.266 . S
O228 Tb200 2.325 1_455 S
O228 Tb201 2.658 . S
O228 C218 1.281 . S
O229 Tb201 2.409 . S
O229 C218 1.254 . S
O230 Tb201 2.378 . S
O230 C219 1.236 . S
O231 Tb200 2.341 1_455 S
O231 C219 1.266 . S
H232 C204 0.929 . S
H233 C205 0.931 . S
H234 C207 0.930 . S
H235 C208 0.930 . S
H236 C213 0.929 . S
H237 C214 0.931 . S
H238 C216 0.930 . S
H239 C217 0.930 . S
Tb240 C242 2.809 . S
Tb240 O260 2.484 . S
Tb240 O261 2.440 . S
Tb240 O262 2.658 . S
Tb240 O263 2.409 . S
Tb240 O264 2.378 . S
Tb240 O268 2.325 . S
Tb240 O271 2.341 . S
Tb241 C251 2.809 1_554 S
Tb241 O262 2.325 . S
Tb241 O265 2.341 . S
Tb241 O266 2.484 1_554 S
Tb241 O267 2.440 1_554 S
Tb241 O268 2.658 . S
Tb241 O269 2.409 1_554 S
Tb241 O270 2.378 1_554 S
C242 Tb240 2.809 . S
C242 C243 1.514 . S
C242 O260 1.248 . S
C242 O261 1.266 . S
C243 C242 1.514 . S
C243 C244 1.359 . S
C243 C248 1.348 . S
C244 C243 1.359 . S
C244 C245 1.380 . S
C244 H272 0.929 . S
C245 C244 1.380 . S
C245 C246 1.347 . S
C245 H273 0.931 . S
C246 C245 1.347 . S
C246 C247 1.369 . S
C247 C246 1.369 . S
C247 C248 1.408 . S
C247 H274 0.930 . S
C248 C243 1.348 . S
C248 C247 1.408 . S
C248 H275 0.930 . S
C249 O262 1.281 . S
C249 O263 1.254 . S
C250 O264 1.236 . S
C250 O265 1.266 . S
C251 Tb241 2.809 1_556 S
C251 C252 1.514 . S
C251 O266 1.248 . S
C251 O267 1.266 . S
C252 C251 1.514 . S
C252 C253 1.359 . S
C252 C257 1.348 . S
C253 C252 1.359 . S
C253 C254 1.380 . S
C253 H276 0.929 . S
C254 C253 1.380 . S
C254 C255 1.347 . S
C254 H277 0.931 . S
C255 C254 1.347 . S
C255 C256 1.369 . S
C256 C255 1.369 . S
C256 C257 1.408 . S
C256 H278 0.930 . S
C257 C252 1.348 . S
C257 C256 1.408 . S
C257 H279 0.930 . S
C258 O268 1.281 . S
C258 O269 1.254 1_554 S
C259 O270 1.236 . S
C259 O271 1.266 1_556 S
O260 Tb240 2.484 . S
O260 C242 1.248 . S
O261 Tb240 2.440 . S
O261 C242 1.266 . S
O262 Tb240 2.658 . S
O262 Tb241 2.325 . S
O262 C249 1.281 . S
O263 Tb240 2.409 . S
O263 C249 1.254 . S
O264 Tb240 2.378 . S
O264 C250 1.236 . S
O265 Tb241 2.341 . S
O265 C250 1.266 . S
O266 Tb241 2.484 1_556 S
O266 C251 1.248 . S
O267 Tb241 2.440 1_556 S
O267 C251 1.266 . S
O268 Tb240 2.325 . S
O268 Tb241 2.658 . S
O268 C258 1.281 . S
O269 Tb241 2.409 1_556 S
O269 C258 1.254 1_556 S
O270 Tb241 2.378 1_556 S
O270 C259 1.236 . S
O271 Tb240 2.341 . S
O271 C259 1.266 1_554 S
H272 C244 0.929 . S
H273 C245 0.931 . S
H274 C247 0.930 . S
H275 C248 0.930 . S
H276 C253 0.929 . S
H277 C254 0.931 . S
H278 C256 0.930 . S
H279 C257 0.930 . S
Tb280 C282 2.809 . S
Tb280 O300 2.484 . S
Tb280 O301 2.440 . S
Tb280 O302 2.658 . S
Tb280 O303 2.409 . S
Tb280 O304 2.378 . S
Tb280 O308 2.325 . S
Tb280 O311 2.341 . S
Tb281 C291 2.809 . S
Tb281 O302 2.325 . S
Tb281 O305 2.341 . S
Tb281 O306 2.484 . S
Tb281 O307 2.440 . S
Tb281 O308 2.658 . S
Tb281 O309 2.409 . S
Tb281 O310 2.378 . S
C282 Tb280 2.809 . S
C282 C283 1.514 . S
C282 O300 1.248 . S
C282 O301 1.266 . S
C283 C282 1.514 . S
C283 C284 1.359 . S
C283 C288 1.348 . S
C284 C283 1.359 . S
C284 C285 1.380 . S
C284 H312 0.929 . S
C285 C284 1.380 . S
C285 C286 1.347 . S
C285 H313 0.931 . S
C286 C285 1.347 . S
C286 C287 1.369 . S
C287 C286 1.369 . S
C287 C288 1.408 . S
C287 H314 0.930 . S
C288 C283 1.348 . S
C288 C287 1.408 . S
C288 H315 0.930 . S
C289 O302 1.281 . S
C289 O303 1.254 . S
C290 O304 1.236 . S
C290 O305 1.266 . S
C291 Tb281 2.809 . S
C291 C292 1.514 . S
C291 O306 1.248 . S
C291 O307 1.266 . S
C292 C291 1.514 . S
C292 C293 1.359 . S
C292 C297 1.348 . S
C293 C292 1.359 . S
C293 C294 1.380 . S
C293 H316 0.929 . S
C294 C293 1.380 . S
C294 C295 1.347 . S
C294 H317 0.931 . S
C295 C294 1.347 . S
C295 C296 1.369 . S
C296 C295 1.369 . S
C296 C297 1.408 . S
C296 H318 0.930 . S
C297 C292 1.348 . S
C297 C296 1.408 . S
C297 H319 0.930 . S
C298 O308 1.281 . S
C298 O309 1.254 . S
C299 O310 1.236 . S
C299 O311 1.266 . S
O300 Tb280 2.484 . S
O300 C282 1.248 . S
O301 Tb280 2.440 . S
O301 C282 1.266 . S
O302 Tb280 2.658 . S
O302 Tb281 2.325 . S
O302 C289 1.281 . S
O303 Tb280 2.409 . S
O303 C289 1.254 . S
O304 Tb280 2.378 . S
O304 C290 1.236 . S
O305 Tb281 2.341 . S
O305 C290 1.266 . S
O306 Tb281 2.484 . S
O306 C291 1.248 . S
O307 Tb281 2.440 . S
O307 C291 1.266 . S
O308 Tb280 2.325 . S
O308 Tb281 2.658 . S
O308 C298 1.281 . S
O309 Tb281 2.409 . S
O309 C298 1.254 . S
O310 Tb281 2.378 . S
O310 C299 1.236 . S
O311 Tb280 2.341 . S
O311 C299 1.266 . S
H312 C284 0.929 . S
H313 C285 0.931 . S
H314 C287 0.930 . S
H315 C288 0.930 . S
H316 C293 0.929 . S
H317 C294 0.931 . S
H318 C296 0.930 . S
H319 C297 0.930 . S
Tb320 C322 2.809 . S
Tb320 O340 2.484 . S
Tb320 O341 2.440 . S
Tb320 O342 2.658 . S
Tb320 O343 2.409 . S
Tb320 O344 2.378 . S
Tb320 O348 2.325 . S
Tb320 O351 2.341 . S
Tb321 C331 2.809 . S
Tb321 O342 2.325 . S
Tb321 O345 2.341 . S
Tb321 O346 2.484 . S
Tb321 O347 2.440 . S
Tb321 O348 2.658 . S
Tb321 O349 2.409 . S
Tb321 O350 2.378 . S
C322 Tb320 2.809 . S
C322 C323 1.514 . S
C322 O340 1.248 . S
C322 O341 1.266 . S
C323 C322 1.514 . S
C323 C324 1.359 . S
C323 C328 1.348 . S
C324 C323 1.359 . S
C324 C325 1.380 . S
C324 H352 0.929 . S
C325 C324 1.380 . S
C325 C326 1.347 . S
C325 H353 0.931 . S
C326 C325 1.347 . S
C326 C327 1.369 . S
C327 C326 1.369 . S
C327 C328 1.408 . S
C327 H354 0.930 . S
C328 C323 1.348 . S
C328 C327 1.408 . S
C328 H355 0.930 . S
C329 O342 1.281 . S
C329 O343 1.254 . S
C330 O344 1.236 . S
C330 O345 1.266 . S
C331 Tb321 2.809 . S
C331 C332 1.514 . S
C331 O346 1.248 . S
C331 O347 1.266 . S
C332 C331 1.514 . S
C332 C333 1.359 . S
C332 C337 1.348 . S
C333 C332 1.359 . S
C333 C334 1.380 . S
C333 H356 0.929 . S
C334 C333 1.380 . S
C334 C335 1.347 . S
C334 H357 0.931 . S
C335 C334 1.347 . S
C335 C336 1.369 . S
C336 C335 1.369 . S
C336 C337 1.408 . S
C336 H358 0.930 . S
C337 C332 1.348 . S
C337 C336 1.408 . S
C337 H359 0.930 . S
C338 O348 1.281 . S
C338 O349 1.254 . S
C339 O350 1.236 . S
C339 O351 1.266 . S
O340 Tb320 2.484 . S
O340 C322 1.248 . S
O341 Tb320 2.440 . S
O341 C322 1.266 . S
O342 Tb320 2.658 . S
O342 Tb321 2.325 . S
O342 C329 1.281 . S
O343 Tb320 2.409 . S
O343 C329 1.254 . S
O344 Tb320 2.378 . S
O344 C330 1.236 . S
O345 Tb321 2.341 . S
O345 C330 1.266 . S
O346 Tb321 2.484 . S
O346 C331 1.248 . S
O347 Tb321 2.440 . S
O347 C331 1.266 . S
O348 Tb320 2.325 . S
O348 Tb321 2.658 . S
O348 C338 1.281 . S
O349 Tb321 2.409 . S
O349 C338 1.254 . S
O350 Tb321 2.378 . S
O350 C339 1.236 . S
O351 Tb320 2.341 . S
O351 C339 1.266 . S
H352 C324 0.929 . S
H353 C325 0.931 . S
H354 C327 0.930 . S
H355 C328 0.930 . S
H356 C333 0.929 . S
H357 C334 0.931 . S
H358 C336 0.930 . S
H359 C337 0.930 . S
Tb360 C362 2.809 . S
Tb360 O380 2.484 . S
Tb360 O381 2.440 . S
Tb360 O382 2.658 . S
Tb360 O383 2.409 . S
Tb360 O384 2.378 . S
Tb360 O388 2.325 . S
Tb360 O391 2.341 . S
Tb361 C371 2.809 1_545 S
Tb361 O382 2.325 . S
Tb361 O385 2.341 . S
Tb361 O386 2.484 1_545 S
Tb361 O387 2.440 1_545 S
Tb361 O388 2.658 . S
Tb361 O389 2.409 1_545 S
Tb361 O390 2.378 1_545 S
C362 Tb360 2.809 . S
C362 C363 1.514 . S
C362 O380 1.248 . S
C362 O381 1.266 . S
C363 C362 1.514 . S
C363 C364 1.359 . S
C363 C368 1.348 . S
C364 C363 1.359 . S
C364 C365 1.380 . S
C364 H392 0.929 . S
C365 C364 1.380 . S
C365 C366 1.347 . S
C365 H393 0.931 . S
C366 C365 1.347 . S
C366 C367 1.369 . S
C367 C366 1.369 . S
C367 C368 1.408 . S
C367 H394 0.930 . S
C368 C363 1.348 . S
C368 C367 1.408 . S
C368 H395 0.930 . S
C369 O382 1.281 . S
C369 O383 1.254 . S
C370 O384 1.236 . S
C370 O385 1.266 . S
C371 Tb361 2.809 1_565 S
C371 C372 1.514 . S
C371 O386 1.248 . S
C371 O387 1.266 . S
C372 C371 1.514 . S
C372 C373 1.359 . S
C372 C377 1.348 . S
C373 C372 1.359 . S
C373 C374 1.380 . S
C373 H396 0.929 . S
C374 C373 1.380 . S
C374 C375 1.347 . S
C374 H397 0.931 . S
C375 C374 1.347 . S
C375 C376 1.369 . S
C376 C375 1.369 . S
C376 C377 1.408 . S
C376 H398 0.930 . S
C377 C372 1.348 . S
C377 C376 1.408 . S
C377 H399 0.930 . S
C378 O388 1.281 . S
C378 O389 1.254 1_545 S
C379 O390 1.236 . S
C379 O391 1.266 1_565 S
O380 Tb360 2.484 . S
O380 C362 1.248 . S
O381 Tb360 2.440 . S
O381 C362 1.266 . S
O382 Tb360 2.658 . S
O382 Tb361 2.325 . S
O382 C369 1.281 . S
O383 Tb360 2.409 . S
O383 C369 1.254 . S
O384 Tb360 2.378 . S
O384 C370 1.236 . S
O385 Tb361 2.341 . S
O385 C370 1.266 . S
O386 Tb361 2.484 1_565 S
O386 C371 1.248 . S
O387 Tb361 2.440 1_565 S
O387 C371 1.266 . S
O388 Tb360 2.325 . S
O388 Tb361 2.658 . S
O388 C378 1.281 . S
O389 Tb361 2.409 1_565 S
O389 C378 1.254 1_565 S
O390 Tb361 2.378 1_565 S
O390 C379 1.236 . S
O391 Tb360 2.341 . S
O391 C379 1.266 1_545 S
H392 C364 0.929 . S
H393 C365 0.931 . S
H394 C367 0.930 . S
H395 C368 0.930 . S
H396 C373 0.929 . S
H397 C374 0.931 . S
H398 C376 0.930 . S
H399 C377 0.930 . S
Tb400 C402 2.809 . S
Tb400 O420 2.484 . S
Tb400 O421 2.440 . S
Tb400 O422 2.658 . S
Tb400 O423 2.409 . S
Tb400 O424 2.378 . S
Tb400 O428 2.325 . S
Tb400 O431 2.341 1_565 S
Tb401 C411 2.809 . S
Tb401 O422 2.325 1_545 S
Tb401 O425 2.341 1_545 S
Tb401 O426 2.484 . S
Tb401 O427 2.440 . S
Tb401 O428 2.658 1_545 S
Tb401 O429 2.409 . S
Tb401 O430 2.378 . S
C402 Tb400 2.809 . S
C402 C403 1.514 . S
C402 O420 1.248 . S
C402 O421 1.266 . S
C403 C402 1.514 . S
C403 C404 1.359 . S
C403 C408 1.348 . S
C404 C403 1.359 . S
C404 C405 1.380 . S
C404 H432 0.929 . S
C405 C404 1.380 . S
C405 C406 1.347 . S
C405 H433 0.931 . S
C406 C405 1.347 . S
C406 C407 1.369 . S
C407 C406 1.369 . S
C407 C408 1.408 . S
C407 H434 0.930 . S
C408 C403 1.348 . S
C408 C407 1.408 . S
C408 H435 0.930 . S
C409 O422 1.281 . S
C409 O423 1.254 . S
C410 O424 1.236 . S
C410 O425 1.266 . S
C411 Tb401 2.809 . S
C411 C412 1.514 . S
C411 O426 1.248 . S
C411 O427 1.266 . S
C412 C411 1.514 . S
C412 C413 1.359 . S
C412 C417 1.348 . S
C413 C412 1.359 . S
C413 C414 1.380 . S
C413 H436 0.929 . S
C414 C413 1.380 . S
C414 C415 1.347 . S
C414 H437 0.931 . S
C415 C414 1.347 . S
C415 C416 1.369 . S
C416 C415 1.369 . S
C416 C417 1.408 . S
C416 H438 0.930 . S
C417 C412 1.348 . S
C417 C416 1.408 . S
C417 H439 0.930 . S
C418 O428 1.281 1_545 S
C418 O429 1.254 . S
C419 O430 1.236 . S
C419 O431 1.266 . S
O420 Tb400 2.484 . S
O420 C402 1.248 . S
O421 Tb400 2.440 . S
O421 C402 1.266 . S
O422 Tb400 2.658 . S
O422 Tb401 2.325 1_565 S
O422 C409 1.281 . S
O423 Tb400 2.409 . S
O423 C409 1.254 . S
O424 Tb400 2.378 . S
O424 C410 1.236 . S
O425 Tb401 2.341 1_565 S
O425 C410 1.266 . S
O426 Tb401 2.484 . S
O426 C411 1.248 . S
O427 Tb401 2.440 . S
O427 C411 1.266 . S
O428 Tb400 2.325 . S
O428 Tb401 2.658 1_565 S
O428 C418 1.281 1_565 S
O429 Tb401 2.409 . S
O429 C418 1.254 . S
O430 Tb401 2.378 . S
O430 C419 1.236 . S
O431 Tb400 2.341 1_545 S
O431 C419 1.266 . S
H432 C404 0.929 . S
H433 C405 0.931 . S
H434 C407 0.930 . S
H435 C408 0.930 . S
H436 C413 0.929 . S
H437 C414 0.931 . S
H438 C416 0.930 . S
H439 C417 0.930 . S
Tb440 C442 2.809 . S
Tb440 O460 2.484 . S
Tb440 O461 2.440 . S
Tb440 O462 2.658 . S
Tb440 O463 2.409 . S
Tb440 O464 2.378 . S
Tb440 O468 2.325 . S
Tb440 O471 2.341 . S
Tb441 C451 2.809 . S
Tb441 O462 2.325 . S
Tb441 O465 2.341 . S
Tb441 O466 2.484 . S
Tb441 O467 2.440 . S
Tb441 O468 2.658 . S
Tb441 O469 2.409 . S
Tb441 O470 2.378 . S
C442 Tb440 2.809 . S
C442 C443 1.514 . S
C442 O460 1.248 . S
C442 O461 1.266 . S
C443 C442 1.514 . S
C443 C444 1.359 . S
C443 C448 1.348 . S
C444 C443 1.359 . S
C444 C445 1.380 . S
C444 H472 0.929 . S
C445 C444 1.380 . S
C445 C446 1.347 . S
C445 H473 0.931 . S
C446 C445 1.347 . S
C446 C447 1.369 . S
C447 C446 1.369 . S
C447 C448 1.408 . S
C447 H474 0.930 . S
C448 C443 1.348 . S
C448 C447 1.408 . S
C448 H475 0.930 . S
C449 O462 1.281 . S
C449 O463 1.254 . S
C450 O464 1.236 . S
C450 O465 1.266 . S
C451 Tb441 2.809 . S
C451 C452 1.514 . S
C451 O466 1.248 . S
C451 O467 1.266 . S
C452 C451 1.514 . S
C452 C453 1.359 . S
C452 C457 1.348 . S
C453 C452 1.359 . S
C453 C454 1.380 . S
C453 H476 0.929 . S
C454 C453 1.380 . S
C454 C455 1.347 . S
C454 H477 0.931 . S
C455 C454 1.347 . S
C455 C456 1.369 . S
C456 C455 1.369 . S
C456 C457 1.408 . S
C456 H478 0.930 . S
C457 C452 1.348 . S
C457 C456 1.408 . S
C457 H479 0.930 . S
C458 O468 1.281 . S
C458 O469 1.254 . S
C459 O470 1.236 . S
C459 O471 1.266 . S
O460 Tb440 2.484 . S
O460 C442 1.248 . S
O461 Tb440 2.440 . S
O461 C442 1.266 . S
O462 Tb440 2.658 . S
O462 Tb441 2.325 . S
O462 C449 1.281 . S
O463 Tb440 2.409 . S
O463 C449 1.254 . S
O464 Tb440 2.378 . S
O464 C450 1.236 . S
O465 Tb441 2.341 . S
O465 C450 1.266 . S
O466 Tb441 2.484 . S
O466 C451 1.248 . S
O467 Tb441 2.440 . S
O467 C451 1.266 . S
O468 Tb440 2.325 . S
O468 Tb441 2.658 . S
O468 C458 1.281 . S
O469 Tb441 2.409 . S
O469 C458 1.254 . S
O470 Tb441 2.378 . S
O470 C459 1.236 . S
O471 Tb440 2.341 . S
O471 C459 1.266 . S
H472 C444 0.929 . S
H473 C445 0.931 . S
H474 C447 0.930 . S
H475 C448 0.930 . S
H476 C453 0.929 . S
H477 C454 0.931 . S
H478 C456 0.930 . S
H479 C457 0.930 . S
H480 C498 0.951 . S
H481 C500 0.951 . S
H482 C502 0.950 . S
H483 C503 0.950 . S
H484 C505 0.950 . S
H485 C508 0.950 . S
H486 C509 0.950 . S
H487 C511 0.950 . S
H488 C512 0.950 . S
H489 C513 0.951 . S
H490 C515 0.951 . S
H491 C517 0.950 . S
H492 C518 0.950 . S
H493 C520 0.950 . S
H494 C523 0.950 . S
H495 C524 0.950 . S
H496 C526 0.950 . S
H497 C527 0.950 . S
C498 H480 0.951 . S
C498 C499 1.366 . S
C498 C500 1.388 . S
C499 C498 1.366 . S
C499 C503 1.385 . S
C500 H481 0.951 . S
C500 C498 1.388 . S
C500 C501 1.366 . S
C501 C500 1.366 . S
C501 C502 1.414 . S
C501 C504 1.499 . S
C502 H482 0.950 . S
C502 C501 1.414 . S
C502 C503 1.374 . S
C503 H483 0.950 . S
C503 C499 1.385 . S
C503 C502 1.374 . S
C504 C501 1.499 . S
C504 C505 1.373 . S
C504 C506 1.389 . S
C505 H484 0.950 . S
C505 C504 1.373 . S
C505 C521 1.377 . S
C506 C504 1.389 . S
C506 C507 1.524 . S
C506 C520 1.377 . S
C507 C506 1.524 . S
C507 C508 1.397 . S
C507 C512 1.363 . S
C508 H485 0.950 . S
C508 C507 1.397 . S
C508 C509 1.334 . S
C509 H486 0.950 . S
C509 C508 1.334 . S
C509 C510 1.287 . S
C510 C509 1.287 . S
C510 C511 1.524 . S
C510 H529 0.913 . S
C511 H487 0.950 . S
C511 C510 1.524 . S
C511 C512 1.415 . S
C512 H488 0.950 . S
C512 C507 1.363 . S
C512 C511 1.415 . S
C513 H489 0.951 . S
C513 C514 1.366 . S
C513 C515 1.388 . S
C514 C513 1.366 . S
C514 C518 1.385 . S
C515 H490 0.951 . S
C515 C513 1.388 . S
C515 C516 1.366 . S
C516 C515 1.366 . S
C516 C517 1.414 . S
C516 C519 1.499 . S
C517 H491 0.950 . S
C517 C516 1.414 . S
C517 C518 1.374 . S
C518 H492 0.950 . S
C518 C514 1.385 . S
C518 C517 1.374 . S
C519 C516 1.499 . S
C519 C520 1.373 . S
C519 C521 1.389 . S
C520 H493 0.950 . S
C520 C506 1.377 . S
C520 C519 1.373 . S
C521 C505 1.377 . S
C521 C519 1.389 . S
C521 C522 1.524 . S
C522 C521 1.524 . S
C522 C523 1.397 . S
C522 C527 1.363 . S
C523 H494 0.950 . S
C523 C522 1.397 . S
C523 C524 1.334 . S
C524 H495 0.950 . S
C524 C523 1.334 . S
C524 C525 1.287 . S
C525 C524 1.287 . S
C525 C526 1.524 . S
C525 H528 0.999 . S
C526 H496 0.950 . S
C526 C525 1.524 . S
C526 C527 1.415 . S
C527 H497 0.950 . S
C527 C522 1.363 . S
C527 C526 1.415 . S
H528 C525 0.999 . S
H529 C510 0.913 . S
H530 C548 0.951 . S
H531 C550 0.951 . S
H532 C552 0.950 . S
H533 C553 0.950 . S
H534 C555 0.950 . S
H535 C558 0.950 . S
H536 C559 0.950 . S
H537 C561 0.950 . S
H538 C562 0.950 . S
H539 C563 0.951 . S
H540 C565 0.951 . S
H541 C567 0.950 . S
H542 C568 0.950 . S
H543 C570 0.950 . S
H544 C573 0.950 . S
H545 C574 0.950 . S
H546 C576 0.950 . S
H547 C577 0.950 . S
C548 H530 0.951 . S
C548 C549 1.366 1_545 S
C548 C550 1.388 1_545 S
C549 C548 1.366 1_565 S
C549 C553 1.383 . S
C550 H531 0.951 . S
C550 C548 1.388 1_565 S
C550 C551 1.366 . S
C551 C550 1.366 . S
C551 C552 1.414 . S
C551 C554 1.499 . S
C552 H532 0.950 . S
C552 C551 1.414 . S
C552 C553 1.374 . S
C553 H533 0.950 . S
C553 C549 1.383 . S
C553 C552 1.374 . S
C554 C551 1.499 . S
C554 C555 1.373 . S
C554 C556 1.389 . S
C555 H534 0.950 . S
C555 C554 1.373 . S
C555 C571 1.377 . S
C556 C554 1.389 . S
C556 C557 1.524 . S
C556 C570 1.377 . S
C557 C556 1.524 . S
C557 C558 1.397 . S
C557 C562 1.363 . S
C558 H535 0.950 . S
C558 C557 1.397 . S
C558 C559 1.334 . S
C559 H536 0.950 . S
C559 C558 1.334 . S
C559 C560 1.287 . S
C560 C559 1.287 . S
C560 C561 1.524 . S
C560 H579 0.913 . S
C561 H537 0.950 . S
C561 C560 1.524 . S
C561 C562 1.415 . S
C562 H538 0.950 . S
C562 C557 1.363 . S
C562 C561 1.415 . S
C563 H539 0.951 . S
C563 C564 1.366 . S
C563 C565 1.388 . S
C564 C563 1.366 . S
C564 C568 1.385 . S
C565 H540 0.951 . S
C565 C563 1.388 . S
C565 C566 1.366 . S
C566 C565 1.366 . S
C566 C567 1.414 . S
C566 C569 1.499 . S
C567 H541 0.950 . S
C567 C566 1.414 . S
C567 C568 1.374 . S
C568 H542 0.950 . S
C568 C564 1.385 . S
C568 C567 1.374 . S
C569 C566 1.499 . S
C569 C570 1.373 . S
C569 C571 1.389 . S
C570 H543 0.950 . S
C570 C556 1.377 . S
C570 C569 1.373 . S
C571 C555 1.377 . S
C571 C569 1.389 . S
C571 C572 1.524 . S
C572 C571 1.524 . S
C572 C573 1.397 . S
C572 C577 1.363 . S
C573 H544 0.950 . S
C573 C572 1.397 . S
C573 C574 1.334 . S
C574 H545 0.950 . S
C574 C573 1.334 . S
C574 C575 1.287 . S
C575 C574 1.287 . S
C575 C576 1.524 . S
C575 H578 0.999 . S
C576 H546 0.950 . S
C576 C575 1.524 . S
C576 C577 1.415 . S
C577 H547 0.950 . S
C577 C572 1.363 . S
C577 C576 1.415 . S
H578 C575 0.999 . S
H579 C560 0.913 . S
H580 C598 0.951 1_556 S
H581 C600 0.951 . S
H582 C602 0.950 . S
H583 C603 0.950 . S
H584 C605 0.950 . S
H585 C608 0.950 1_554 S
H586 C609 0.950 . S
H587 C611 0.950 . S
H588 C612 0.928 1_554 S
H589 C613 0.951 . S
H590 C615 0.951 . S
H591 C617 0.950 . S
H592 C618 0.950 . S
H593 C620 0.950 . S
H594 C623 0.950 . S
H595 C624 0.950 . S
H596 C626 0.950 . S
H597 C627 0.950 . S
C598 H580 0.951 1_554 S
C598 C599 1.366 . S
C598 C600 1.388 . S
C599 C598 1.366 . S
C599 C603 1.385 . S
C600 H581 0.951 . S
C600 C598 1.388 . S
C600 C601 1.366 . S
C601 C600 1.366 . S
C601 C602 1.414 . S
C601 C604 1.499 . S
C602 H582 0.950 . S
C602 C601 1.414 . S
C602 C603 1.374 . S
C603 H583 0.950 . S
C603 C599 1.385 . S
C603 C602 1.374 . S
C604 C601 1.499 . S
C604 C605 1.373 . S
C604 C606 1.389 . S
C605 H584 0.950 . S
C605 C604 1.373 . S
C605 C621 1.377 . S
C606 C604 1.389 . S
C606 C607 1.524 . S
C606 C620 1.377 . S
C607 C606 1.524 . S
C607 C608 1.397 1_554 S
C607 C612 1.363 1_554 S
C608 H585 0.950 1_556 S
C608 C607 1.397 1_556 S
C608 C609 1.334 . S
C609 H586 0.950 . S
C609 C608 1.334 . S
C609 C610 1.287 . S
C610 C609 1.287 . S
C610 C611 1.524 . S
C610 H629 0.913 . S
C611 H587 0.950 . S
C611 C610 1.524 . S
C611 C612 1.415 . S
C612 H588 0.928 1_556 S
C612 C607 1.363 1_556 S
C612 C611 1.415 . S
C613 H589 0.951 . S
C613 C614 1.366 . S
C613 C615 1.388 . S
C614 C613 1.366 . S
C614 C618 1.385 . S
C615 H590 0.951 . S
C615 C613 1.388 . S
C615 C616 1.366 . S
C616 C615 1.366 . S
C616 C617 1.414 . S
C616 C619 1.499 . S
C617 H591 0.950 . S
C617 C616 1.414 . S
C617 C618 1.374 . S
C618 H592 0.950 . S
C618 C614 1.385 . S
C618 C617 1.374 . S
C619 C616 1.499 . S
C619 C620 1.373 . S
C619 C621 1.389 . S
C620 H593 0.950 . S
C620 C606 1.377 . S
C620 C619 1.373 . S
C621 C605 1.377 . S
C621 C619 1.389 . S
C621 C622 1.524 . S
C622 C621 1.524 . S
C622 C623 1.397 . S
C622 C627 1.363 . S
C623 H594 0.950 . S
C623 C622 1.397 . S
C623 C624 1.334 . S
C624 H595 0.950 . S
C624 C623 1.334 . S
C624 C625 1.287 . S
C625 C624 1.287 . S
C625 C626 1.524 . S
C625 H628 0.999 . S
C626 H596 0.950 . S
C626 C625 1.524 . S
C626 C627 1.415 . S
C627 H597 0.950 . S
C627 C622 1.363 . S
C627 C626 1.415 . S
H628 C625 0.999 . S
H629 C610 0.913 . S
H630 C648 0.951 . S
H631 C650 0.951 . S
H632 C652 0.950 . S
H633 C653 0.950 . S
H634 C655 0.950 . S
H635 C658 0.950 . S
H636 C659 0.950 . S
H637 C661 0.950 . S
H638 C662 0.950 . S
H639 C663 0.951 1_565 S
H640 C665 0.951 . S
H641 C667 0.950 . S
H642 C668 0.950 . S
H643 C670 0.950 . S
H644 C673 0.950 . S
H645 C674 0.950 . S
H646 C676 0.950 1_565 S
H647 C677 0.950 . S
C648 H630 0.951 . S
C648 C649 1.366 . S
C648 C650 1.388 . S
C649 C648 1.366 . S
C649 C653 1.385 . S
C650 H631 0.951 . S
C650 C648 1.388 . S
C650 C651 1.366 . S
C651 C650 1.366 . S
C651 C652 1.414 . S
C651 C654 1.499 . S
C652 H632 0.950 . S
C652 C651 1.414 . S
C652 C653 1.374 . S
C653 H633 0.950 . S
C653 C649 1.385 . S
C653 C652 1.374 . S
C654 C651 1.499 . S
C654 C655 1.373 . S
C654 C656 1.389 . S
C655 H634 0.950 . S
C655 C654 1.373 . S
C655 C671 1.377 . S
C656 C654 1.389 . S
C656 C657 1.524 . S
C656 C670 1.377 . S
C657 C656 1.524 . S
C657 C658 1.397 . S
C657 C662 1.363 . S
C658 H635 0.950 . S
C658 C657 1.397 . S
C658 C659 1.334 . S
C659 H636 0.950 . S
C659 C658 1.334 . S
C659 C660 1.287 . S
C660 C659 1.287 . S
C660 C661 1.524 . S
C660 H679 0.913 . S
C661 H637 0.950 . S
C661 C660 1.524 . S
C661 C662 1.415 . S
C662 H638 0.950 . S
C662 C657 1.363 . S
C662 C661 1.415 . S
C663 H639 0.951 1_545 S
C663 C664 1.366 . S
C663 C665 1.388 . S
C664 C663 1.366 . S
C664 C668 1.385 . S
C665 H640 0.951 . S
C665 C663 1.388 . S
C665 C666 1.366 . S
C666 C665 1.366 . S
C666 C667 1.414 . S
C666 C669 1.499 . S
C667 H641 0.950 . S
C667 C666 1.414 . S
C667 C668 1.374 . S
C668 H642 0.950 . S
C668 C664 1.385 . S
C668 C667 1.374 . S
C669 C666 1.499 . S
C669 C670 1.373 . S
C669 C671 1.389 . S
C670 H643 0.950 . S
C670 C656 1.377 . S
C670 C669 1.373 . S
C671 C655 1.377 . S
C671 C669 1.389 . S
C671 C672 1.524 . S
C672 C671 1.524 . S
C672 C673 1.397 . S
C672 C677 1.363 . S
C673 H644 0.950 . S
C673 C672 1.397 . S
C673 C674 1.334 . S
C674 H645 0.950 . S
C674 C673 1.334 . S
C674 C675 1.287 . S
C675 C674 1.287 . S
C675 C676 1.524 . S
C675 H678 0.999 . S
C676 H646 0.950 1_545 S
C676 C675 1.524 . S
C676 C677 1.415 . S
C677 H647 0.950 . S
C677 C672 1.363 . S
C677 C676 1.415 . S
H678 C675 0.999 . S
H679 C660 0.913 . S
H680 C698 0.951 . S
H681 C700 0.951 . S
H682 C702 0.950 . S
H683 C703 0.950 . S
H684 C705 0.950 . S
H685 C708 0.950 . S
H686 C709 0.950 . S
H687 C711 0.950 . S
H688 C712 0.950 . S
H689 C713 0.951 . S
H690 C715 0.951 . S
H691 C717 0.950 . S
H692 C718 0.950 . S
H693 C720 0.950 . S
H694 C723 0.950 . S
H695 C724 0.950 . S
H696 C726 0.950 . S
H697 C727 0.950 . S
C698 H680 0.951 . S
C698 C699 1.366 . S
C698 C700 1.388 . S
C699 C698 1.366 . S
C699 C703 1.385 . S
C700 H681 0.951 . S
C700 C698 1.388 . S
C700 C701 1.366 . S
C701 C700 1.366 . S
C701 C702 1.414 . S
C701 C704 1.499 . S
C702 H682 0.950 . S
C702 C701 1.414 . S
C702 C703 1.374 . S
C703 H683 0.950 . S
C703 C699 1.385 . S
C703 C702 1.374 . S
C704 C701 1.499 . S
C704 C705 1.373 . S
C704 C706 1.389 . S
C705 H684 0.950 . S
C705 C704 1.373 . S
C705 C721 1.377 . S
C706 C704 1.389 . S
C706 C707 1.524 . S
C706 C720 1.377 . S
C707 C706 1.524 . S
C707 C708 1.397 . S
C707 C712 1.363 . S
C708 H685 0.950 . S
C708 C707 1.397 . S
C708 C709 1.334 . S
C709 H686 0.950 . S
C709 C708 1.334 . S
C709 C710 1.287 . S
C710 C709 1.287 . S
C710 C711 1.524 . S
C710 H729 0.913 . S
C711 H687 0.950 . S
C711 C710 1.524 . S
C711 C712 1.415 . S
C712 H688 0.950 . S
C712 C707 1.363 . S
C712 C711 1.415 . S
C713 H689 0.951 . S
C713 C714 1.366 . S
C713 C715 1.388 . S
C714 C713 1.366 . S
C714 C718 1.385 . S
C715 H690 0.951 . S
C715 C713 1.388 . S
C715 C716 1.366 . S
C716 C715 1.366 . S
C716 C717 1.414 . S
C716 C719 1.499 . S
C717 H691 0.950 . S
C717 C716 1.414 . S
C717 C718 1.374 . S
C718 H692 0.950 . S
C718 C714 1.385 . S
C718 C717 1.374 . S
C719 C716 1.499 . S
C719 C720 1.373 . S
C719 C721 1.389 . S
C720 H693 0.950 . S
C720 C706 1.377 . S
C720 C719 1.373 . S
C721 C705 1.377 . S
C721 C719 1.389 . S
C721 C722 1.524 . S
C722 C721 1.524 . S
C722 C723 1.397 . S
C722 C727 1.363 . S
C723 H694 0.950 . S
C723 C722 1.397 . S
C723 C724 1.334 . S
C724 H695 0.950 . S
C724 C723 1.334 . S
C724 C725 1.287 . S
C725 C724 1.287 . S
C725 C726 1.524 . S
C725 H728 0.999 . S
C726 H696 0.950 . S
C726 C725 1.524 . S
C726 C727 1.415 . S
C727 H697 0.950 . S
C727 C722 1.363 . S
C727 C726 1.415 . S
H728 C725 0.999 . S
H729 C710 0.913 . S
H730 C748 0.951 . S
H731 C750 0.951 . S
H732 C752 0.950 . S
H733 C753 0.950 . S
H734 C755 0.950 . S
H735 C758 0.950 . S
H736 C759 0.950 . S
H737 C761 0.950 . S
H738 C762 0.950 . S
H739 C763 0.951 . S
H740 C765 0.951 . S
H741 C767 0.950 . S
H742 C768 0.950 . S
H743 C770 0.950 . S
H744 C773 0.950 . S
H745 C774 0.950 . S
H746 C776 0.950 . S
H747 C777 0.950 . S
C748 H730 0.951 . S
C748 C749 1.366 . S
C748 C750 1.388 . S
C749 C748 1.366 . S
C749 C753 1.385 . S
C750 H731 0.951 . S
C750 C748 1.388 . S
C750 C751 1.366 . S
C751 C750 1.366 . S
C751 C752 1.414 . S
C751 C754 1.499 . S
C752 H732 0.950 . S
C752 C751 1.414 . S
C752 C753 1.374 . S
C753 H733 0.950 . S
C753 C749 1.385 . S
C753 C752 1.374 . S
C754 C751 1.499 . S
C754 C755 1.373 . S
C754 C756 1.389 . S
C755 H734 0.950 . S
C755 C754 1.373 . S
C755 C771 1.377 . S
C756 C754 1.389 . S
C756 C757 1.524 . S
C756 C770 1.377 . S
C757 C756 1.524 . S
C757 C758 1.397 . S
C757 C762 1.363 . S
C758 H735 0.950 . S
C758 C757 1.397 . S
C758 C759 1.334 . S
C759 H736 0.950 . S
C759 C758 1.334 . S
C759 C760 1.287 . S
C760 C759 1.287 . S
C760 C761 1.524 . S
C760 H779 0.913 . S
C761 H737 0.950 . S
C761 C760 1.524 . S
C761 C762 1.415 . S
C762 H738 0.950 . S
C762 C757 1.363 . S
C762 C761 1.415 . S
C763 H739 0.951 . S
C763 C764 1.366 . S
C763 C765 1.388 . S
C764 C763 1.366 . S
C764 C768 1.385 . S
C765 H740 0.951 . S
C765 C763 1.388 . S
C765 C766 1.366 . S
C766 C765 1.366 . S
C766 C767 1.414 . S
C766 C769 1.499 . S
C767 H741 0.950 . S
C767 C766 1.414 . S
C767 C768 1.374 . S
C768 H742 0.950 . S
C768 C764 1.385 . S
C768 C767 1.374 . S
C769 C766 1.499 . S
C769 C770 1.373 . S
C769 C771 1.389 . S
C770 H743 0.950 . S
C770 C756 1.377 . S
C770 C769 1.373 . S
C771 C755 1.377 . S
C771 C769 1.389 . S
C771 C772 1.524 . S
C772 C771 1.524 . S
C772 C773 1.397 . S
C772 C777 1.363 . S
C773 H744 0.950 . S
C773 C772 1.397 . S
C773 C774 1.334 . S
C774 H745 0.950 . S
C774 C773 1.334 . S
C774 C775 1.287 . S
C775 C774 1.287 . S
C775 C776 1.524 . S
C775 H778 0.999 . S
C776 H746 0.950 . S
C776 C775 1.524 . S
C776 C777 1.415 . S
C777 H747 0.950 . S
C777 C772 1.363 . S
C777 C776 1.415 . S
H778 C775 0.999 . S
H779 C760 0.913 . S
H780 C798 0.951 . S
H781 C800 0.951 . S
H782 C802 0.950 . S
H783 C803 0.950 . S
H784 C805 0.950 . S
H785 C808 0.950 . S
H786 C809 0.950 . S
H787 C811 0.950 . S
H788 C812 0.950 . S
H789 C813 0.951 . S
H790 C815 0.951 . S
H791 C817 0.950 . S
H792 C818 0.950 . S
H793 C820 0.950 . S
H794 C823 0.950 . S
H795 C824 0.950 . S
H796 C826 0.950 . S
H797 C827 0.950 . S
C798 H780 0.951 . S
C798 C799 1.366 . S
C798 C800 1.388 . S
C799 C798 1.366 . S
C799 C803 1.385 . S
C800 H781 0.951 . S
C800 C798 1.388 . S
C800 C801 1.366 . S
C801 C800 1.366 . S
C801 C802 1.414 . S
C801 C804 1.499 . S
C802 H782 0.950 . S
C802 C801 1.414 . S
C802 C803 1.374 . S
C803 H783 0.950 . S
C803 C799 1.385 . S
C803 C802 1.374 . S
C804 C801 1.499 . S
C804 C805 1.373 . S
C804 C806 1.389 . S
C805 H784 0.950 . S
C805 C804 1.373 . S
C805 C821 1.377 . S
C806 C804 1.389 . S
C806 C807 1.524 . S
C806 C820 1.377 . S
C807 C806 1.524 . S
C807 C808 1.397 . S
C807 C812 1.363 . S
C808 H785 0.950 . S
C808 C807 1.397 . S
C808 C809 1.334 . S
C809 H786 0.950 . S
C809 C808 1.334 . S
C809 C810 1.287 . S
C810 C809 1.287 . S
C810 C811 1.524 . S
C810 H829 0.913 . S
C811 H787 0.950 . S
C811 C810 1.524 . S
C811 C812 1.415 . S
C812 H788 0.950 . S
C812 C807 1.363 . S
C812 C811 1.415 . S
C813 H789 0.951 . S
C813 C814 1.366 1_554 S
C813 C815 1.388 . S
C814 C813 1.366 1_556 S
C814 C818 1.385 . S
C815 H790 0.951 . S
C815 C813 1.388 . S
C815 C816 1.366 1_554 S
C816 C815 1.366 1_556 S
C816 C817 1.414 . S
C816 C819 1.499 . S
C817 H791 0.950 . S
C817 C816 1.414 . S
C817 C818 1.374 . S
C818 H792 0.950 . S
C818 C814 1.385 . S
C818 C817 1.374 . S
C819 C816 1.499 . S
C819 C820 1.373 . S
C819 C821 1.389 . S
C820 H793 0.950 . S
C820 C806 1.377 . S
C820 C819 1.373 . S
C821 C805 1.377 . S
C821 C819 1.389 . S
C821 C822 1.524 1_556 S
C822 C821 1.524 1_554 S
C822 C823 1.397 . S
C822 C827 1.363 . S
C823 H794 0.950 . S
C823 C822 1.397 . S
C823 C824 1.334 . S
C824 H795 0.950 . S
C824 C823 1.334 . S
C824 C825 1.287 . S
C825 C824 1.287 . S
C825 C826 1.524 . S
C825 H828 0.999 . S
C826 H796 0.950 . S
C826 C825 1.524 . S
C826 C827 1.415 . S
C827 H797 0.950 . S
C827 C822 1.363 . S
C827 C826 1.415 . S
H828 C825 0.999 . S
H829 C810 0.913 . S
H830 C848 0.951 . S
H831 C850 0.951 . S
H832 C852 0.950 . S
H833 C853 0.950 . S
H834 C855 0.950 . S
H835 C858 0.950 . S
H836 C859 0.950 . S
H837 C861 0.950 . S
H838 C862 0.950 . S
H839 C863 0.951 . S
H840 C865 0.951 . S
H841 C867 0.950 . S
H842 C868 0.950 . S
H843 C870 0.950 . S
H844 C873 0.950 . S
H845 C874 0.950 . S
H846 C876 0.950 . S
H847 C877 0.950 . S
C848 H830 0.951 . S
C848 C849 1.366 . S
C848 C850 1.388 . S
C849 C848 1.366 . S
C849 C853 1.385 . S
C850 H831 0.951 . S
C850 C848 1.388 . S
C850 C851 1.366 . S
C851 C850 1.366 . S
C851 C852 1.414 . S
C851 C854 1.499 . S
C852 H832 0.950 . S
C852 C851 1.414 . S
C852 C853 1.374 . S
C853 H833 0.950 . S
C853 C849 1.385 . S
C853 C852 1.374 . S
C854 C851 1.499 . S
C854 C855 1.373 . S
C854 C856 1.389 . S
C855 H834 0.950 . S
C855 C854 1.373 . S
C855 C871 1.377 . S
C856 C854 1.389 . S
C856 C857 1.524 . S
C856 C870 1.377 . S
C857 C856 1.524 . S
C857 C858 1.397 . S
C857 C862 1.363 . S
C858 H835 0.950 . S
C858 C857 1.397 . S
C858 C859 1.334 . S
C859 H836 0.950 . S
C859 C858 1.334 . S
C859 C860 1.287 . S
C860 C859 1.287 . S
C860 C861 1.524 . S
C860 H879 0.913 . S
C861 H837 0.950 . S
C861 C860 1.524 . S
C861 C862 1.415 . S
C862 H838 0.950 . S
C862 C857 1.363 . S
C862 C861 1.415 . S
C863 H839 0.951 . S
C863 C864 1.366 . S
C863 C865 1.388 . S
C864 C863 1.366 . S
C864 C868 1.385 . S
C865 H840 0.951 . S
C865 C863 1.388 . S
C865 C866 1.366 . S
C866 C865 1.366 . S
C866 C867 1.414 . S
C866 C869 1.499 . S
C867 H841 0.950 . S
C867 C866 1.414 . S
C867 C868 1.374 . S
C868 H842 0.950 . S
C868 C864 1.385 . S
C868 C867 1.374 . S
C869 C866 1.499 . S
C869 C870 1.373 . S
C869 C871 1.389 . S
C870 H843 0.950 . S
C870 C856 1.377 . S
C870 C869 1.373 . S
C871 C855 1.377 . S
C871 C869 1.389 . S
C871 C872 1.524 . S
C872 C871 1.524 . S
C872 C873 1.397 . S
C872 C877 1.363 . S
C873 H844 0.950 . S
C873 C872 1.397 . S
C873 C874 1.334 . S
C874 H845 0.950 . S
C874 C873 1.334 . S
C874 C875 1.287 . S
C875 C874 1.287 . S
C875 C876 1.524 . S
C875 H878 0.999 . S
C876 H846 0.950 . S
C876 C875 1.524 . S
C876 C877 1.415 . S
C877 H847 0.950 . S
C877 C872 1.363 . S
C877 C876 1.415 . S
H878 C875 0.999 . S
H879 C860 0.913 . S
H880 C898 0.951 . S
H881 C900 0.951 . S
H882 C902 0.950 . S
H883 C903 0.950 . S
H884 C905 0.950 . S
H885 C908 0.950 . S
H886 C909 0.950 . S
H887 C911 0.950 . S
H888 C912 0.950 . S
H889 C913 0.951 . S
H890 C915 0.951 . S
H891 C917 0.950 . S
H892 C918 0.950 . S
H893 C920 0.950 . S
H894 C923 0.950 . S
H895 C924 0.950 . S
H896 C926 0.950 . S
H897 C927 0.950 . S
C898 H880 0.951 . S
C898 C899 1.366 . S
C898 C900 1.388 . S
C899 C898 1.366 . S
C899 C903 1.385 . S
C900 H881 0.951 . S
C900 C898 1.388 . S
C900 C901 1.366 . S
C901 C900 1.366 . S
C901 C902 1.414 . S
C901 C904 1.499 . S
C902 H882 0.950 . S
C902 C901 1.414 . S
C902 C903 1.374 . S
C903 H883 0.950 . S
C903 C899 1.385 . S
C903 C902 1.374 . S
C904 C901 1.499 . S
C904 C905 1.373 . S
C904 C906 1.389 . S
C905 H884 0.950 . S
C905 C904 1.373 . S
C905 C921 1.377 . S
C906 C904 1.389 . S
C906 C907 1.524 . S
C906 C920 1.377 . S
C907 C906 1.524 . S
C907 C908 1.397 . S
C907 C912 1.363 . S
C908 H885 0.950 . S
C908 C907 1.397 . S
C908 C909 1.334 . S
C909 H886 0.950 . S
C909 C908 1.334 . S
C909 C910 1.287 . S
C910 C909 1.287 . S
C910 C911 1.524 . S
C910 H929 0.913 . S
C911 H887 0.950 . S
C911 C910 1.524 . S
C911 C912 1.415 . S
C912 H888 0.950 . S
C912 C907 1.363 . S
C912 C911 1.415 . S
C913 H889 0.951 . S
C913 C914 1.366 . S
C913 C915 1.388 . S
C914 C913 1.366 . S
C914 C918 1.385 . S
C915 H890 0.951 . S
C915 C913 1.388 . S
C915 C916 1.366 . S
C916 C915 1.366 . S
C916 C917 1.414 . S
C916 C919 1.499 . S
C917 H891 0.950 . S
C917 C916 1.414 . S
C917 C918 1.374 . S
C918 H892 0.950 . S
C918 C914 1.385 . S
C918 C917 1.374 . S
C919 C916 1.499 . S
C919 C920 1.373 . S
C919 C921 1.389 . S
C920 H893 0.950 . S
C920 C906 1.377 . S
C920 C919 1.373 . S
C921 C905 1.377 . S
C921 C919 1.389 . S
C921 C922 1.524 . S
C922 C921 1.524 . S
C922 C923 1.397 . S
C922 C927 1.363 . S
C923 H894 0.950 . S
C923 C922 1.397 . S
C923 C924 1.334 . S
C924 H895 0.950 . S
C924 C923 1.334 . S
C924 C925 1.287 . S
C925 C924 1.287 . S
C925 C926 1.524 . S
C925 H928 0.999 . S
C926 H896 0.950 . S
C926 C925 1.524 . S
C926 C927 1.415 . S
C927 H897 0.950 . S
C927 C922 1.363 . S
C927 C926 1.415 . S
H928 C925 0.999 . S
H929 C910 0.913 . S
H930 C948 0.951 . S
H931 C950 0.951 . S
H932 C952 0.950 . S
H933 C953 0.950 . S
H934 C955 0.950 . S
H935 C958 0.950 . S
H936 C959 0.950 . S
H937 C961 0.950 . S
H938 C962 0.950 . S
H939 C963 0.951 . S
H940 C965 0.951 . S
H941 C967 0.950 . S
H942 C968 0.950 . S
H943 C970 0.950 . S
H944 C973 0.950 . S
H945 C974 0.950 . S
H946 C976 0.950 . S
H947 C977 0.950 . S
C948 H930 0.951 . S
C948 C949 1.366 . S
C948 C950 1.388 . S
C949 C948 1.366 . S
C949 C953 1.385 . S
C950 H931 0.951 . S
C950 C948 1.388 . S
C950 C951 1.366 . S
C951 C950 1.366 . S
C951 C952 1.414 . S
C951 C954 1.499 . S
C952 H932 0.950 . S
C952 C951 1.414 . S
C952 C953 1.374 . S
C953 H933 0.950 . S
C953 C949 1.385 . S
C953 C952 1.374 . S
C954 C951 1.499 . S
C954 C955 1.373 . S
C954 C956 1.389 . S
C955 H934 0.950 . S
C955 C954 1.373 . S
C955 C971 1.377 . S
C956 C954 1.389 . S
C956 C957 1.524 . S
C956 C970 1.377 . S
C957 C956 1.524 . S
C957 C958 1.397 . S
C957 C962 1.363 . S
C958 H935 0.950 . S
C958 C957 1.397 . S
C958 C959 1.334 . S
C959 H936 0.950 . S
C959 C958 1.334 . S
C959 C960 1.287 . S
C960 C959 1.287 . S
C960 C961 1.524 . S
C960 H979 0.913 . S
C961 H937 0.950 . S
C961 C960 1.524 . S
C961 C962 1.415 . S
C962 H938 0.950 . S
C962 C957 1.363 . S
C962 C961 1.415 . S
C963 H939 0.951 . S
C963 C964 1.366 . S
C963 C965 1.388 . S
C964 C963 1.366 . S
C964 C968 1.385 . S
C965 H940 0.951 . S
C965 C963 1.388 . S
C965 C966 1.366 . S
C966 C965 1.366 . S
C966 C967 1.414 . S
C966 C969 1.499 . S
C967 H941 0.950 . S
C967 C966 1.414 . S
C967 C968 1.374 . S
C968 H942 0.950 . S
C968 C964 1.385 . S
C968 C967 1.374 . S
C969 C966 1.499 . S
C969 C970 1.373 . S
C969 C971 1.389 . S
C970 H943 0.950 . S
C970 C956 1.377 . S
C970 C969 1.373 . S
C971 C955 1.377 . S
C971 C969 1.389 . S
C971 C972 1.524 . S
C972 C971 1.524 . S
C972 C973 1.397 . S
C972 C977 1.363 . S
C973 H944 0.950 . S
C973 C972 1.397 . S
C973 C974 1.334 . S
C974 H945 0.950 . S
C974 C973 1.334 . S
C974 C975 1.287 . S
C975 C974 1.287 . S
C975 C976 1.524 . S
C975 H978 0.999 . S
C976 H946 0.950 . S
C976 C975 1.524 . S
C976 C977 1.415 . S
C977 H947 0.950 . S
C977 C972 1.363 . S
C977 C976 1.415 . S
H978 C975 0.999 . S
H979 C960 0.913 . S
H980 C998 0.951 . S
H981 C1000 0.951 1_455 S
H982 C1002 0.950 . S
H983 C1003 0.950 . S
H984 C1005 0.950 . S
H985 C1008 0.950 . S
H986 C1009 0.950 . S
H987 C1011 0.950 . S
H988 C1012 0.950 . S
H989 C1013 0.951 . S
H990 C1015 0.951 . S
H991 C1017 0.950 . S
H992 C1018 0.950 . S
H993 C1020 0.950 . S
H994 C1023 0.950 . S
H995 C1024 0.950 . S
H996 C1026 0.950 . S
H997 C1027 0.950 . S
C998 H980 0.951 . S
C998 C999 1.366 1_455 S
C998 C1000 1.388 1_455 S
C999 C998 1.366 1_655 S
C999 C1003 1.385 . S
C1000 H981 0.951 1_655 S
C1000 C998 1.388 1_655 S
C1000 C1001 1.366 . S
C1001 C1000 1.366 . S
C1001 C1002 1.414 . S
C1001 C1004 1.499 . S
C1002 H982 0.950 . S
C1002 C1001 1.414 . S
C1002 C1003 1.374 . S
C1003 H983 0.950 . S
C1003 C999 1.385 . S
C1003 C1002 1.374 . S
C1004 C1001 1.499 . S
C1004 C1005 1.373 . S
C1004 C1006 1.389 . S
C1005 H984 0.950 . S
C1005 C1004 1.373 . S
C1005 C1021 1.377 . S
C1006 C1004 1.389 . S
C1006 C1007 1.524 . S
C1006 C1020 1.377 . S
C1007 C1006 1.524 . S
C1007 C1008 1.397 . S
C1007 C1012 1.363 . S
C1008 H985 0.950 . S
C1008 C1007 1.397 . S
C1008 C1009 1.334 . S
C1009 H986 0.950 . S
C1009 C1008 1.334 . S
C1009 C1010 1.287 . S
C1010 C1009 1.287 . S
C1010 C1011 1.524 . S
C1010 H1029 0.913 . S
C1011 H987 0.950 . S
C1011 C1010 1.524 . S
C1011 C1012 1.415 . S
C1012 H988 0.950 . S
C1012 C1007 1.363 . S
C1012 C1011 1.415 . S
C1013 H989 0.951 . S
C1013 C1014 1.366 . S
C1013 C1015 1.388 . S
C1014 C1013 1.366 . S
C1014 C1018 1.385 . S
C1015 H990 0.951 . S
C1015 C1013 1.388 . S
C1015 C1016 1.366 . S
C1016 C1015 1.366 . S
C1016 C1017 1.414 . S
C1016 C1019 1.499 . S
C1017 H991 0.950 . S
C1017 C1016 1.414 . S
C1017 C1018 1.374 . S
C1018 H992 0.950 . S
C1018 C1014 1.385 . S
C1018 C1017 1.374 . S
C1019 C1016 1.499 . S
C1019 C1020 1.373 . S
C1019 C1021 1.389 . S
C1020 H993 0.950 . S
C1020 C1006 1.377 . S
C1020 C1019 1.373 . S
C1021 C1005 1.377 . S
C1021 C1019 1.389 . S
C1021 C1022 1.524 . S
C1022 C1021 1.524 . S
C1022 C1023 1.397 . S
C1022 C1027 1.363 . S
C1023 H994 0.950 . S
C1023 C1022 1.397 . S
C1023 C1024 1.334 . S
C1024 H995 0.950 . S
C1024 C1023 1.334 . S
C1024 C1025 1.287 . S
C1025 C1024 1.287 . S
C1025 C1026 1.524 . S
C1025 H1028 0.999 . S
C1026 H996 0.950 . S
C1026 C1025 1.524 . S
C1026 C1027 1.415 . S
C1027 H997 0.950 . S
C1027 C1022 1.363 . S
C1027 C1026 1.415 . S
H1028 C1025 0.999 . S
H1029 C1010 0.913 . S
H1030 C1048 0.951 . S
H1031 C1050 0.951 . S
H1032 C1052 0.950 . S
H1033 C1053 0.950 . S
H1034 C1055 0.950 . S
H1035 C1058 0.950 . S
H1036 C1059 0.950 . S
H1037 C1061 0.950 . S
H1038 C1062 0.950 . S
H1039 C1063 0.951 . S
H1040 C1065 0.951 . S
H1041 C1067 0.950 . S
H1042 C1068 0.950 . S
H1043 C1070 0.950 . S
H1044 C1073 0.950 . S
H1045 C1074 0.950 . S
H1046 C1076 0.950 . S
H1047 C1077 0.950 . S
C1048 H1030 0.951 . S
C1048 C1049 1.366 . S
C1048 C1050 1.388 . S
C1049 C1048 1.366 . S
C1049 C1053 1.385 . S
C1050 H1031 0.951 . S
C1050 C1048 1.388 . S
C1050 C1051 1.366 . S
C1051 C1050 1.366 . S
C1051 C1052 1.414 . S
C1051 C1054 1.499 . S
C1052 H1032 0.950 . S
C1052 C1051 1.414 . S
C1052 C1053 1.374 . S
C1053 H1033 0.950 . S
C1053 C1049 1.385 . S
C1053 C1052 1.374 . S
C1054 C1051 1.499 . S
C1054 C1055 1.373 . S
C1054 C1056 1.389 . S
C1055 H1034 0.950 . S
C1055 C1054 1.373 . S
C1055 C1071 1.377 . S
C1056 C1054 1.389 . S
C1056 C1057 1.524 . S
C1056 C1070 1.377 . S
C1057 C1056 1.524 . S
C1057 C1058 1.397 . S
C1057 C1062 1.363 . S
C1058 H1035 0.950 . S
C1058 C1057 1.397 . S
C1058 C1059 1.334 . S
C1059 H1036 0.950 . S
C1059 C1058 1.334 . S
C1059 C1060 1.287 . S
C1060 C1059 1.287 . S
C1060 C1061 1.524 . S
C1060 H1079 0.913 . S
C1061 H1037 0.950 . S
C1061 C1060 1.524 . S
C1061 C1062 1.415 . S
C1062 H1038 0.950 . S
C1062 C1057 1.363 . S
C1062 C1061 1.415 . S
C1063 H1039 0.951 . S
C1063 C1064 1.366 . S
C1063 C1065 1.388 . S
C1064 C1063 1.366 . S
C1064 C1068 1.385 . S
C1065 H1040 0.951 . S
C1065 C1063 1.388 . S
C1065 C1066 1.366 . S
C1066 C1065 1.366 . S
C1066 C1067 1.414 . S
C1066 C1069 1.499 . S
C1067 H1041 0.950 . S
C1067 C1066 1.414 . S
C1067 C1068 1.374 . S
C1068 H1042 0.950 . S
C1068 C1064 1.385 . S
C1068 C1067 1.374 . S
C1069 C1066 1.499 . S
C1069 C1070 1.373 . S
C1069 C1071 1.389 . S
C1070 H1043 0.950 . S
C1070 C1056 1.377 . S
C1070 C1069 1.373 . S
C1071 C1055 1.377 . S
C1071 C1069 1.389 . S
C1071 C1072 1.524 . S
C1072 C1071 1.524 . S
C1072 C1073 1.397 . S
C1072 C1077 1.363 . S
C1073 H1044 0.950 . S
C1073 C1072 1.397 . S
C1073 C1074 1.334 . S
C1074 H1045 0.950 . S
C1074 C1073 1.334 . S
C1074 C1075 1.287 . S
C1075 C1074 1.287 . S
C1075 C1076 1.524 . S
C1075 H1078 0.999 . S
C1076 H1046 0.950 . S
C1076 C1075 1.524 . S
C1076 C1077 1.415 . S
C1077 H1047 0.950 . S
C1077 C1072 1.363 . S
C1077 C1076 1.415 . S
H1078 C1075 0.999 . S
H1079 C1060 0.913 . S
H1080 C1098 0.951 . S
H1081 C1100 0.951 . S
H1082 C1102 0.950 . S
H1083 C1103 0.950 . S
H1084 C1105 0.950 . S
H1085 C1108 0.950 . S
H1086 C1109 0.950 . S
H1087 C1111 0.950 . S
H1088 C1112 0.950 . S
H1089 C1113 0.951 . S
H1090 C1115 0.951 . S
H1091 C1117 0.950 . S
H1092 C1118 0.950 . S
H1093 C1120 0.950 . S
H1094 C1123 0.950 . S
H1095 C1124 0.950 . S
H1096 C1126 0.950 . S
H1097 C1127 0.950 . S
C1098 H1080 0.951 . S
C1098 C1099 1.366 . S
C1098 C1100 1.388 . S
C1099 C1098 1.366 . S
C1099 C1103 1.385 . S
C1100 H1081 0.951 . S
C1100 C1098 1.388 . S
C1100 C1101 1.366 . S
C1101 C1100 1.366 . S
C1101 C1102 1.414 . S
C1101 C1104 1.499 . S
C1102 H1082 0.950 . S
C1102 C1101 1.414 . S
C1102 C1103 1.374 . S
C1103 H1083 0.950 . S
C1103 C1099 1.385 . S
C1103 C1102 1.374 . S
C1104 C1101 1.499 . S
C1104 C1105 1.373 . S
C1104 C1106 1.389 . S
C1105 H1084 0.950 . S
C1105 C1104 1.373 . S
C1105 C1121 1.377 . S
C1106 C1104 1.389 . S
C1106 C1107 1.524 . S
C1106 C1120 1.377 . S
C1107 C1106 1.524 . S
C1107 C1108 1.397 . S
C1107 C1112 1.363 . S
C1108 H1085 0.950 . S
C1108 C1107 1.397 . S
C1108 C1109 1.334 . S
C1109 H1086 0.950 . S
C1109 C1108 1.334 . S
C1109 C1110 1.287 . S
C1110 C1109 1.287 . S
C1110 C1111 1.524 . S
C1110 H1129 0.913 . S
C1111 H1087 0.950 . S
C1111 C1110 1.524 . S
C1111 C1112 1.415 . S
C1112 H1088 0.950 . S
C1112 C1107 1.363 . S
C1112 C1111 1.415 . S
C1113 H1089 0.951 . S
C1113 C1114 1.366 . S
C1113 C1115 1.388 . S
C1114 C1113 1.366 . S
C1114 C1118 1.385 . S
C1115 H1090 0.951 . S
C1115 C1113 1.388 . S
C1115 C1116 1.366 . S
C1116 C1115 1.366 . S
C1116 C1117 1.414 . S
C1116 C1119 1.499 . S
C1117 H1091 0.950 . S
C1117 C1116 1.414 . S
C1117 C1118 1.374 . S
C1118 H1092 0.950 . S
C1118 C1114 1.385 . S
C1118 C1117 1.374 . S
C1119 C1116 1.499 . S
C1119 C1120 1.373 . S
C1119 C1121 1.389 . S
C1120 H1093 0.950 . S
C1120 C1106 1.377 . S
C1120 C1119 1.373 . S
C1121 C1105 1.377 . S
C1121 C1119 1.389 . S
C1121 C1122 1.524 . S
C1122 C1121 1.524 . S
C1122 C1123 1.397 . S
C1122 C1127 1.363 . S
C1123 H1094 0.950 . S
C1123 C1122 1.397 . S
C1123 C1124 1.334 . S
C1124 H1095 0.950 . S
C1124 C1123 1.334 . S
C1124 C1125 1.287 . S
C1125 C1124 1.287 . S
C1125 C1126 1.524 . S
C1125 H1128 0.999 . S
C1126 H1096 0.950 . S
C1126 C1125 1.524 . S
C1126 C1127 1.415 . S
C1127 H1097 0.950 . S
C1127 C1122 1.363 . S
C1127 C1126 1.415 . S
H1128 C1125 0.999 . S
H1129 C1110 0.913 . S
H1130 C1148 0.951 . S
H1131 C1150 0.951 . S
H1132 C1152 0.950 . S
H1133 C1153 0.950 . S
H1134 C1155 0.950 . S
H1135 C1158 0.950 . S
H1136 C1159 0.950 . S
H1137 C1161 0.950 . S
H1138 C1162 0.950 . S
H1139 C1163 0.951 . S
H1140 C1165 0.951 . S
H1141 C1167 0.950 . S
H1142 C1168 0.950 . S
H1143 C1170 0.950 . S
H1144 C1173 0.950 . S
H1145 C1174 0.950 . S
H1146 C1176 0.950 . S
H1147 C1177 0.950 . S
C1148 H1130 0.951 . S
C1148 C1149 1.366 . S
C1148 C1150 1.388 . S
C1149 C1148 1.366 . S
C1149 C1153 1.385 . S
C1150 H1131 0.951 . S
C1150 C1148 1.388 . S
C1150 C1151 1.366 . S
C1151 C1150 1.366 . S
C1151 C1152 1.414 . S
C1151 C1154 1.499 . S
C1152 H1132 0.950 . S
C1152 C1151 1.414 . S
C1152 C1153 1.374 . S
C1153 H1133 0.950 . S
C1153 C1149 1.385 . S
C1153 C1152 1.374 . S
C1154 C1151 1.499 . S
C1154 C1155 1.373 . S
C1154 C1156 1.389 . S
C1155 H1134 0.950 . S
C1155 C1154 1.373 . S
C1155 C1171 1.377 . S
C1156 C1154 1.389 . S
C1156 C1157 1.524 . S
C1156 C1170 1.377 . S
C1157 C1156 1.524 . S
C1157 C1158 1.397 . S
C1157 C1162 1.363 . S
C1158 H1135 0.950 . S
C1158 C1157 1.397 . S
C1158 C1159 1.334 . S
C1159 H1136 0.950 . S
C1159 C1158 1.334 . S
C1159 C1160 1.287 . S
C1160 C1159 1.287 . S
C1160 C1161 1.524 . S
C1160 H1179 0.913 . S
C1161 H1137 0.950 . S
C1161 C1160 1.524 . S
C1161 C1162 1.415 . S
C1162 H1138 0.950 . S
C1162 C1157 1.363 . S
C1162 C1161 1.415 . S
C1163 H1139 0.951 . S
C1163 C1164 1.366 . S
C1163 C1165 1.388 . S
C1164 C1163 1.366 . S
C1164 C1168 1.385 . S
C1165 H1140 0.951 . S
C1165 C1163 1.388 . S
C1165 C1166 1.366 . S
C1166 C1165 1.366 . S
C1166 C1167 1.414 . S
C1166 C1169 1.499 . S
C1167 H1141 0.950 . S
C1167 C1166 1.414 . S
C1167 C1168 1.374 . S
C1168 H1142 0.950 . S
C1168 C1164 1.385 . S
C1168 C1167 1.374 . S
C1169 C1166 1.499 . S
C1169 C1170 1.373 . S
C1169 C1171 1.389 . S
C1170 H1143 0.950 . S
C1170 C1156 1.377 . S
C1170 C1169 1.373 . S
C1171 C1155 1.377 . S
C1171 C1169 1.389 . S
C1171 C1172 1.524 . S
C1172 C1171 1.524 . S
C1172 C1173 1.397 . S
C1172 C1177 1.363 . S
C1173 H1144 0.950 . S
C1173 C1172 1.397 . S
C1173 C1174 1.334 . S
C1174 H1145 0.950 . S
C1174 C1173 1.334 . S
C1174 C1175 1.287 . S
C1175 C1174 1.287 . S
C1175 C1176 1.524 . S
C1175 H1178 0.999 . S
C1176 H1146 0.950 . S
C1176 C1175 1.524 . S
C1176 C1177 1.415 . S
C1177 H1147 0.950 . S
C1177 C1172 1.363 . S
C1177 C1176 1.415 . S
H1178 C1175 0.999 . S
H1179 C1160 0.913 . S
H1180 C1198 0.951 . S
H1181 C1200 0.951 . S
H1182 C1202 0.950 . S
H1183 C1203 0.950 . S
H1184 C1205 0.950 . S
H1185 C1208 0.950 . S
H1186 C1209 0.950 . S
H1187 C1211 0.950 . S
H1188 C1212 0.950 . S
H1189 C1213 0.951 . S
H1190 C1215 0.951 . S
H1191 C1217 0.950 . S
H1192 C1218 0.950 . S
H1193 C1220 0.950 . S
H1194 C1223 0.950 . S
H1195 C1224 0.950 . S
H1196 C1226 0.950 . S
H1197 C1227 0.950 . S
C1198 H1180 0.951 . S
C1198 C1199 1.366 . S
C1198 C1200 1.388 . S
C1199 C1198 1.366 . S
C1199 C1203 1.385 . S
C1200 H1181 0.951 . S
C1200 C1198 1.388 . S
C1200 C1201 1.366 . S
C1201 C1200 1.366 . S
C1201 C1202 1.414 . S
C1201 C1204 1.499 . S
C1202 H1182 0.950 . S
C1202 C1201 1.414 . S
C1202 C1203 1.374 . S
C1203 H1183 0.950 . S
C1203 C1199 1.385 . S
C1203 C1202 1.374 . S
C1204 C1201 1.499 . S
C1204 C1205 1.373 . S
C1204 C1206 1.389 . S
C1205 H1184 0.950 . S
C1205 C1204 1.373 . S
C1205 C1221 1.377 . S
C1206 C1204 1.389 . S
C1206 C1207 1.524 . S
C1206 C1220 1.377 . S
C1207 C1206 1.524 . S
C1207 C1208 1.397 . S
C1207 C1212 1.363 . S
C1208 H1185 0.950 . S
C1208 C1207 1.397 . S
C1208 C1209 1.334 . S
C1209 H1186 0.950 . S
C1209 C1208 1.334 . S
C1209 C1210 1.287 . S
C1210 C1209 1.287 . S
C1210 C1211 1.524 . S
C1210 H1229 0.913 . S
C1211 H1187 0.950 . S
C1211 C1210 1.524 . S
C1211 C1212 1.415 . S
C1212 H1188 0.950 . S
C1212 C1207 1.363 . S
C1212 C1211 1.415 . S
C1213 H1189 0.951 . S
C1213 C1214 1.366 . S
C1213 C1215 1.388 . S
C1214 C1213 1.366 . S
C1214 C1218 1.385 . S
C1215 H1190 0.951 . S
C1215 C1213 1.388 . S
C1215 C1216 1.366 . S
C1216 C1215 1.366 . S
C1216 C1217 1.414 . S
C1216 C1219 1.499 . S
C1217 H1191 0.950 . S
C1217 C1216 1.414 . S
C1217 C1218 1.374 . S
C1218 H1192 0.950 . S
C1218 C1214 1.385 . S
C1218 C1217 1.374 . S
C1219 C1216 1.499 . S
C1219 C1220 1.373 . S
C1219 C1221 1.389 . S
C1220 H1193 0.950 . S
C1220 C1206 1.377 . S
C1220 C1219 1.373 . S
C1221 C1205 1.377 . S
C1221 C1219 1.389 . S
C1221 C1222 1.524 . S
C1222 C1221 1.524 . S
C1222 C1223 1.397 . S
C1222 C1227 1.363 . S
C1223 H1194 0.950 . S
C1223 C1222 1.397 . S
C1223 C1224 1.334 . S
C1224 H1195 0.950 . S
C1224 C1223 1.334 . S
C1224 C1225 1.287 . S
C1225 C1224 1.287 . S
C1225 C1226 1.524 . S
C1225 H1228 0.999 . S
C1226 H1196 0.950 . S
C1226 C1225 1.524 . S
C1226 C1227 1.415 . S
C1227 H1197 0.950 . S
C1227 C1222 1.363 . S
C1227 C1226 1.415 . S
H1228 C1225 0.999 . S
H1229 C1210 0.913 . S
H1230 C1248 0.951 . S
H1231 C1250 0.951 . S
H1232 C1252 0.950 . S
H1233 C1253 0.950 . S
H1234 C1255 0.950 . S
H1235 C1258 0.950 . S
H1236 C1259 0.950 . S
H1237 C1261 0.935 1_565 S
H1238 C1262 0.950 . S
H1239 C1263 0.951 . S
H1240 C1265 0.951 . S
H1241 C1267 0.950 . S
H1242 C1268 0.950 . S
H1243 C1270 0.950 . S
H1244 C1273 0.950 . S
H1245 C1274 0.950 . S
H1246 C1276 0.950 . S
H1247 C1277 0.950 . S
C1248 H1230 0.951 . S
C1248 C1249 1.366 . S
C1248 C1250 1.388 . S
C1249 C1248 1.366 . S
C1249 C1253 1.385 . S
C1250 H1231 0.951 . S
C1250 C1248 1.388 . S
C1250 C1251 1.366 . S
C1251 C1250 1.366 . S
C1251 C1252 1.414 . S
C1251 C1254 1.499 . S
C1252 H1232 0.950 . S
C1252 C1251 1.414 . S
C1252 C1253 1.374 . S
C1253 H1233 0.950 . S
C1253 C1249 1.385 . S
C1253 C1252 1.374 . S
C1254 C1251 1.499 . S
C1254 C1255 1.373 . S
C1254 C1256 1.389 . S
C1255 H1234 0.950 . S
C1255 C1254 1.373 . S
C1255 C1271 1.377 . S
C1256 C1254 1.389 . S
C1256 C1257 1.524 . S
C1256 C1270 1.377 . S
C1257 C1256 1.524 . S
C1257 C1258 1.397 . S
C1257 C1262 1.363 . S
C1258 H1235 0.950 . S
C1258 C1257 1.397 . S
C1258 C1259 1.334 . S
C1259 H1236 0.950 . S
C1259 C1258 1.334 . S
C1259 C1260 1.287 . S
C1260 C1259 1.287 . S
C1260 C1261 1.524 . S
C1260 H1279 0.913 1_545 S
C1261 H1237 0.935 1_545 S
C1261 C1260 1.524 . S
C1261 C1262 1.415 . S
C1262 H1238 0.950 . S
C1262 C1257 1.363 . S
C1262 C1261 1.415 . S
C1263 H1239 0.951 . S
C1263 C1264 1.366 . S
C1263 C1265 1.388 . S
C1264 C1263 1.366 . S
C1264 C1268 1.385 . S
C1265 H1240 0.951 . S
C1265 C1263 1.388 . S
C1265 C1266 1.366 . S
C1266 C1265 1.366 . S
C1266 C1267 1.414 . S
C1266 C1269 1.499 1_556 S
C1267 H1241 0.950 . S
C1267 C1266 1.414 . S
C1267 C1268 1.374 . S
C1268 H1242 0.950 . S
C1268 C1264 1.385 . S
C1268 C1267 1.374 . S
C1269 C1266 1.499 1_554 S
C1269 C1270 1.373 . S
C1269 C1271 1.389 . S
C1270 H1243 0.950 . S
C1270 C1256 1.377 . S
C1270 C1269 1.373 . S
C1271 C1255 1.377 . S
C1271 C1269 1.389 . S
C1271 C1272 1.524 . S
C1272 C1271 1.524 . S
C1272 C1273 1.397 1_554 S
C1272 C1277 1.363 . S
C1273 H1244 0.950 . S
C1273 C1272 1.397 1_556 S
C1273 C1274 1.334 . S
C1274 H1245 0.950 . S
C1274 C1273 1.334 . S
C1274 C1275 1.287 . S
C1275 C1274 1.287 . S
C1275 C1276 1.524 1_556 S
C1275 H1278 0.999 . S
C1276 H1246 0.950 . S
C1276 C1275 1.524 1_554 S
C1276 C1277 1.415 . S
C1277 H1247 0.950 . S
C1277 C1272 1.363 . S
C1277 C1276 1.415 . S
H1278 C1275 0.999 . S
H1279 C1260 0.913 1_565 S
H1280 C1298 0.951 . S
H1281 C1300 0.951 . S
H1282 C1302 0.950 . S
H1283 C1303 0.950 . S
H1284 C1305 0.950 . S
H1285 C1308 0.950 . S
H1286 C1309 0.950 . S
H1287 C1311 0.950 . S
H1288 C1312 0.950 . S
H1289 C1313 0.951 . S
H1290 C1315 0.951 . S
H1291 C1317 0.950 . S
H1292 C1318 0.950 . S
H1293 C1320 0.950 . S
H1294 C1323 0.950 . S
H1295 C1324 0.950 . S
H1296 C1326 0.950 . S
H1297 C1327 0.950 . S
C1298 H1280 0.951 . S
C1298 C1299 1.366 . S
C1298 C1300 1.388 . S
C1299 C1298 1.366 . S
C1299 C1303 1.385 . S
C1300 H1281 0.951 . S
C1300 C1298 1.388 . S
C1300 C1301 1.366 . S
C1301 C1300 1.366 . S
C1301 C1302 1.414 . S
C1301 C1304 1.499 . S
C1302 H1282 0.950 . S
C1302 C1301 1.414 . S
C1302 C1303 1.374 . S
C1303 H1283 0.950 . S
C1303 C1299 1.385 . S
C1303 C1302 1.374 . S
C1304 C1301 1.499 . S
C1304 C1305 1.373 . S
C1304 C1306 1.389 . S
C1305 H1284 0.950 . S
C1305 C1304 1.373 . S
C1305 C1321 1.377 . S
C1306 C1304 1.389 . S
C1306 C1307 1.524 . S
C1306 C1320 1.377 . S
C1307 C1306 1.524 . S
C1307 C1308 1.397 . S
C1307 C1312 1.363 . S
C1308 H1285 0.950 . S
C1308 C1307 1.397 . S
C1308 C1309 1.334 . S
C1309 H1286 0.950 . S
C1309 C1308 1.334 . S
C1309 C1310 1.287 . S
C1310 C1309 1.287 . S
C1310 C1311 1.524 . S
C1310 H1329 0.913 . S
C1311 H1287 0.950 . S
C1311 C1310 1.524 . S
C1311 C1312 1.415 . S
C1312 H1288 0.950 . S
C1312 C1307 1.363 . S
C1312 C1311 1.415 . S
C1313 H1289 0.951 . S
C1313 C1314 1.366 . S
C1313 C1315 1.388 . S
C1314 C1313 1.366 . S
C1314 C1318 1.385 . S
C1315 H1290 0.951 . S
C1315 C1313 1.388 . S
C1315 C1316 1.366 . S
C1316 C1315 1.366 . S
C1316 C1317 1.414 . S
C1316 C1319 1.499 . S
C1317 H1291 0.950 . S
C1317 C1316 1.414 . S
C1317 C1318 1.374 . S
C1318 H1292 0.950 . S
C1318 C1314 1.385 . S
C1318 C1317 1.374 . S
C1319 C1316 1.499 . S
C1319 C1320 1.373 . S
C1319 C1321 1.389 . S
C1320 H1293 0.950 . S
C1320 C1306 1.377 . S
C1320 C1319 1.373 . S
C1321 C1305 1.377 . S
C1321 C1319 1.389 . S
C1321 C1322 1.524 . S
C1322 C1321 1.524 . S
C1322 C1323 1.397 . S
C1322 C1327 1.363 . S
C1323 H1294 0.950 . S
C1323 C1322 1.397 . S
C1323 C1324 1.334 . S
C1324 H1295 0.950 . S
C1324 C1323 1.334 . S
C1324 C1325 1.287 . S
C1325 C1324 1.287 . S
C1325 C1326 1.524 . S
C1325 H1328 0.999 . S
C1326 H1296 0.950 . S
C1326 C1325 1.524 . S
C1326 C1327 1.415 . S
C1327 H1297 0.950 . S
C1327 C1322 1.363 . S
C1327 C1326 1.415 . S
H1328 C1325 0.999 . S
H1329 C1310 0.913 . S
H1330 C1348 0.951 . S
H1331 C1350 0.951 . S
H1332 C1352 0.950 . S
H1333 C1353 0.950 . S
H1334 C1355 0.950 . S
H1335 C1358 0.950 . S
H1336 C1359 0.950 . S
H1337 C1361 0.950 . S
H1338 C1362 0.950 . S
H1339 C1363 0.951 . S
H1340 C1365 0.951 . S
H1341 C1367 0.950 . S
H1342 C1368 0.950 . S
H1343 C1370 0.950 . S
H1344 C1373 0.950 . S
H1345 C1374 0.950 . S
H1346 C1376 0.950 . S
H1347 C1377 0.950 . S
C1348 H1330 0.951 . S
C1348 C1349 1.366 . S
C1348 C1350 1.388 . S
C1349 C1348 1.366 . S
C1349 C1353 1.385 . S
C1350 H1331 0.951 . S
C1350 C1348 1.388 . S
C1350 C1351 1.366 . S
C1351 C1350 1.366 . S
C1351 C1352 1.414 . S
C1351 C1354 1.499 . S
C1352 H1332 0.950 . S
C1352 C1351 1.414 . S
C1352 C1353 1.374 . S
C1353 H1333 0.950 . S
C1353 C1349 1.385 . S
C1353 C1352 1.374 . S
C1354 C1351 1.499 . S
C1354 C1355 1.373 . S
C1354 C1356 1.389 . S
C1355 H1334 0.950 . S
C1355 C1354 1.373 . S
C1355 C1371 1.377 1_554 S
C1356 C1354 1.389 . S
C1356 C1357 1.524 . S
C1356 C1370 1.377 1_554 S
C1357 C1356 1.524 . S
C1357 C1358 1.397 . S
C1357 C1362 1.363 . S
C1358 H1335 0.950 . S
C1358 C1357 1.397 . S
C1358 C1359 1.334 . S
C1359 H1336 0.950 . S
C1359 C1358 1.334 . S
C1359 C1360 1.287 . S
C1360 C1359 1.287 . S
C1360 C1361 1.524 . S
C1360 H1379 0.913 . S
C1361 H1337 0.950 . S
C1361 C1360 1.524 . S
C1361 C1362 1.415 . S
C1362 H1338 0.950 . S
C1362 C1357 1.363 . S
C1362 C1361 1.415 . S
C1363 H1339 0.951 . S
C1363 C1364 1.366 . S
C1363 C1365 1.388 . S
C1364 C1363 1.366 . S
C1364 C1368 1.385 . S
C1365 H1340 0.951 . S
C1365 C1363 1.388 . S
C1365 C1366 1.366 . S
C1366 C1365 1.366 . S
C1366 C1367 1.414 . S
C1366 C1369 1.499 . S
C1367 H1341 0.950 . S
C1367 C1366 1.414 . S
C1367 C1368 1.374 . S
C1368 H1342 0.950 . S
C1368 C1364 1.385 . S
C1368 C1367 1.374 . S
C1369 C1366 1.499 . S
C1369 C1370 1.373 . S
C1369 C1371 1.389 . S
C1370 H1343 0.950 . S
C1370 C1356 1.377 1_556 S
C1370 C1369 1.373 . S
C1371 C1355 1.377 1_556 S
C1371 C1369 1.389 . S
C1371 C1372 1.524 . S
C1372 C1371 1.524 . S
C1372 C1373 1.397 . S
C1372 C1377 1.363 . S
C1373 H1344 0.950 . S
C1373 C1372 1.397 . S
C1373 C1374 1.334 . S
C1374 H1345 0.950 . S
C1374 C1373 1.334 . S
C1374 C1375 1.287 . S
C1375 C1374 1.287 . S
C1375 C1376 1.524 . S
C1375 H1378 0.999 . S
C1376 H1346 0.950 . S
C1376 C1375 1.524 . S
C1376 C1377 1.415 . S
C1377 H1347 0.950 . S
C1377 C1372 1.363 . S
C1377 C1376 1.415 . S
H1378 C1375 0.999 . S
H1379 C1360 0.913 . S
H1380 C1398 0.951 . S
H1381 C1400 0.951 . S
H1382 C1402 0.950 . S
H1383 C1403 0.950 . S
H1384 C1405 0.950 . S
H1385 C1408 0.950 . S
H1386 C1409 0.950 . S
H1387 C1411 0.950 . S
H1388 C1412 0.950 . S
H1389 C1413 0.951 . S
H1390 C1415 0.951 . S
H1391 C1417 0.950 . S
H1392 C1418 0.950 . S
H1393 C1420 0.950 . S
H1394 C1423 0.950 . S
H1395 C1424 0.950 . S
H1396 C1426 0.950 . S
H1397 C1427 0.950 . S
C1398 H1380 0.951 . S
C1398 C1399 1.366 . S
C1398 C1400 1.388 . S
C1399 C1398 1.366 . S
C1399 C1403 1.385 . S
C1400 H1381 0.951 . S
C1400 C1398 1.388 . S
C1400 C1401 1.366 . S
C1401 C1400 1.366 . S
C1401 C1402 1.414 . S
C1401 C1404 1.499 . S
C1402 H1382 0.950 . S
C1402 C1401 1.414 . S
C1402 C1403 1.374 . S
C1403 H1383 0.950 . S
C1403 C1399 1.385 . S
C1403 C1402 1.374 . S
C1404 C1401 1.499 . S
C1404 C1405 1.373 . S
C1404 C1406 1.389 . S
C1405 H1384 0.950 . S
C1405 C1404 1.373 . S
C1405 C1421 1.377 . S
C1406 C1404 1.389 . S
C1406 C1407 1.524 . S
C1406 C1420 1.377 . S
C1407 C1406 1.524 . S
C1407 C1408 1.397 . S
C1407 C1412 1.363 . S
C1408 H1385 0.950 . S
C1408 C1407 1.397 . S
C1408 C1409 1.334 . S
C1409 H1386 0.950 . S
C1409 C1408 1.334 . S
C1409 C1410 1.287 . S
C1410 C1409 1.287 . S
C1410 C1411 1.524 . S
C1410 H1429 0.913 . S
C1411 H1387 0.950 . S
C1411 C1410 1.524 . S
C1411 C1412 1.415 . S
C1412 H1388 0.950 . S
C1412 C1407 1.363 . S
C1412 C1411 1.415 . S
C1413 H1389 0.951 . S
C1413 C1414 1.366 . S
C1413 C1415 1.388 . S
C1414 C1413 1.366 . S
C1414 C1418 1.385 . S
C1415 H1390 0.951 . S
C1415 C1413 1.388 . S
C1415 C1416 1.366 . S
C1416 C1415 1.366 . S
C1416 C1417 1.414 . S
C1416 C1419 1.499 . S
C1417 H1391 0.950 . S
C1417 C1416 1.414 . S
C1417 C1418 1.374 . S
C1418 H1392 0.950 . S
C1418 C1414 1.385 . S
C1418 C1417 1.374 . S
C1419 C1416 1.499 . S
C1419 C1420 1.373 . S
C1419 C1421 1.389 . S
C1420 H1393 0.950 . S
C1420 C1406 1.377 . S
C1420 C1419 1.373 . S
C1421 C1405 1.377 . S
C1421 C1419 1.389 . S
C1421 C1422 1.524 . S
C1422 C1421 1.524 . S
C1422 C1423 1.397 . S
C1422 C1427 1.363 . S
C1423 H1394 0.950 . S
C1423 C1422 1.397 . S
C1423 C1424 1.334 . S
C1424 H1395 0.950 . S
C1424 C1423 1.334 . S
C1424 C1425 1.287 . S
C1425 C1424 1.287 . S
C1425 C1426 1.524 . S
C1425 H1428 0.999 . S
C1426 H1396 0.950 . S
C1426 C1425 1.524 . S
C1426 C1427 1.415 . S
C1427 H1397 0.950 . S
C1427 C1422 1.363 . S
C1427 C1426 1.415 . S
H1428 C1425 0.999 . S
H1429 C1410 0.913 . S
H1430 C1448 0.951 . S
H1431 C1450 0.951 . S
H1432 C1452 0.950 . S
H1433 C1453 0.950 . S
H1434 C1455 0.950 . S
H1435 C1458 0.950 . S
H1436 C1459 0.950 . S
H1437 C1461 0.950 . S
H1438 C1462 0.950 . S
H1439 C1463 0.951 . S
H1440 C1465 0.951 . S
H1441 C1467 0.950 . S
H1442 C1468 0.950 . S
H1443 C1470 0.950 . S
H1444 C1473 0.950 . S
H1445 C1474 0.950 . S
H1446 C1476 0.950 . S
H1447 C1477 0.950 . S
C1448 H1430 0.951 . S
C1448 C1449 1.366 . S
C1448 C1450 1.388 . S
C1449 C1448 1.366 . S
C1449 C1453 1.385 . S
C1450 H1431 0.951 . S
C1450 C1448 1.388 . S
C1450 C1451 1.366 . S
C1451 C1450 1.366 . S
C1451 C1452 1.414 . S
C1451 C1454 1.499 . S
C1452 H1432 0.950 . S
C1452 C1451 1.414 . S
C1452 C1453 1.374 . S
C1453 H1433 0.950 . S
C1453 C1449 1.385 . S
C1453 C1452 1.374 . S
C1454 C1451 1.499 . S
C1454 C1455 1.373 . S
C1454 C1456 1.389 . S
C1455 H1434 0.950 . S
C1455 C1454 1.373 . S
C1455 C1471 1.377 . S
C1456 C1454 1.389 . S
C1456 C1457 1.524 . S
C1456 C1470 1.377 . S
C1457 C1456 1.524 . S
C1457 C1458 1.397 . S
C1457 C1462 1.363 . S
C1458 H1435 0.950 . S
C1458 C1457 1.397 . S
C1458 C1459 1.334 . S
C1459 H1436 0.950 . S
C1459 C1458 1.334 . S
C1459 C1460 1.287 . S
C1460 C1459 1.287 . S
C1460 C1461 1.524 . S
C1460 H1479 0.913 . S
C1461 H1437 0.950 . S
C1461 C1460 1.524 . S
C1461 C1462 1.415 . S
C1462 H1438 0.950 . S
C1462 C1457 1.363 . S
C1462 C1461 1.415 . S
C1463 H1439 0.951 . S
C1463 C1464 1.366 . S
C1463 C1465 1.388 . S
C1464 C1463 1.366 . S
C1464 C1468 1.385 . S
C1465 H1440 0.951 . S
C1465 C1463 1.388 . S
C1465 C1466 1.366 . S
C1466 C1465 1.366 . S
C1466 C1467 1.414 . S
C1466 C1469 1.499 . S
C1467 H1441 0.950 . S
C1467 C1466 1.414 . S
C1467 C1468 1.374 . S
C1468 H1442 0.950 . S
C1468 C1464 1.385 . S
C1468 C1467 1.374 . S
C1469 C1466 1.499 . S
C1469 C1470 1.373 . S
C1469 C1471 1.389 . S
C1470 H1443 0.950 . S
C1470 C1456 1.377 . S
C1470 C1469 1.373 . S
C1471 C1455 1.377 . S
C1471 C1469 1.389 . S
C1471 C1472 1.524 . S
C1472 C1471 1.524 . S
C1472 C1473 1.397 . S
C1472 C1477 1.363 . S
C1473 H1444 0.950 . S
C1473 C1472 1.397 . S
C1473 C1474 1.334 . S
C1474 H1445 0.950 . S
C1474 C1473 1.334 . S
C1474 C1475 1.287 . S
C1475 C1474 1.287 . S
C1475 C1476 1.524 . S
C1475 H1478 0.999 . S
C1476 H1446 0.950 . S
C1476 C1475 1.524 . S
C1476 C1477 1.415 . S
C1477 H1447 0.950 . S
C1477 C1472 1.363 . S
C1477 C1476 1.415 . S
H1478 C1475 0.999 . S
H1479 C1460 0.913 . S
H1480 C1498 0.951 . S
H1481 C1500 0.951 . S
H1482 C1502 0.950 . S
H1483 C1503 0.950 . S
H1484 C1505 0.950 . S
H1485 C1508 0.950 . S
H1486 C1509 0.950 . S
H1487 C1511 0.950 . S
H1488 C1512 0.950 . S
H1489 C1513 0.951 . S
H1490 C1515 0.951 . S
H1491 C1517 0.950 . S
H1492 C1518 0.950 . S
H1493 C1520 0.950 . S
H1494 C1523 0.950 . S
H1495 C1524 0.950 . S
H1496 C1526 0.950 . S
H1497 C1527 0.950 . S
C1498 H1480 0.951 . S
C1498 C1499 1.366 . S
C1498 C1500 1.388 . S
C1499 C1498 1.366 . S
C1499 C1503 1.385 . S
C1500 H1481 0.951 . S
C1500 C1498 1.388 . S
C1500 C1501 1.366 . S
C1501 C1500 1.366 . S
C1501 C1502 1.414 . S
C1501 C1504 1.499 . S
C1502 H1482 0.950 . S
C1502 C1501 1.414 . S
C1502 C1503 1.374 . S
C1503 H1483 0.950 . S
C1503 C1499 1.385 . S
C1503 C1502 1.374 . S
C1504 C1501 1.499 . S
C1504 C1505 1.373 . S
C1504 C1506 1.389 . S
C1505 H1484 0.950 . S
C1505 C1504 1.373 . S
C1505 C1521 1.377 . S
C1506 C1504 1.389 . S
C1506 C1507 1.524 . S
C1506 C1520 1.377 . S
C1507 C1506 1.524 . S
C1507 C1508 1.397 . S
C1507 C1512 1.363 . S
C1508 H1485 0.950 . S
C1508 C1507 1.397 . S
C1508 C1509 1.334 . S
C1509 H1486 0.950 . S
C1509 C1508 1.334 . S
C1509 C1510 1.287 . S
C1510 C1509 1.287 . S
C1510 C1511 1.524 . S
C1510 H1529 0.913 . S
C1511 H1487 0.950 . S
C1511 C1510 1.524 . S
C1511 C1512 1.415 . S
C1512 H1488 0.950 . S
C1512 C1507 1.363 . S
C1512 C1511 1.415 . S
C1513 H1489 0.951 . S
C1513 C1514 1.366 . S
C1513 C1515 1.388 . S
C1514 C1513 1.366 . S
C1514 C1518 1.385 . S
C1515 H1490 0.951 . S
C1515 C1513 1.388 . S
C1515 C1516 1.366 . S
C1516 C1515 1.366 . S
C1516 C1517 1.414 . S
C1516 C1519 1.499 . S
C1517 H1491 0.950 . S
C1517 C1516 1.414 . S
C1517 C1518 1.374 . S
C1518 H1492 0.950 . S
C1518 C1514 1.385 . S
C1518 C1517 1.374 . S
C1519 C1516 1.499 . S
C1519 C1520 1.373 . S
C1519 C1521 1.389 . S
C1520 H1493 0.950 . S
C1520 C1506 1.377 . S
C1520 C1519 1.373 . S
C1521 C1505 1.377 . S
C1521 C1519 1.389 . S
C1521 C1522 1.524 . S
C1522 C1521 1.524 . S
C1522 C1523 1.397 . S
C1522 C1527 1.363 . S
C1523 H1494 0.950 . S
C1523 C1522 1.397 . S
C1523 C1524 1.334 . S
C1524 H1495 0.950 . S
C1524 C1523 1.334 . S
C1524 C1525 1.287 . S
C1525 C1524 1.287 . S
C1525 C1526 1.524 . S
C1525 H1528 0.999 . S
C1526 H1496 0.950 . S
C1526 C1525 1.524 . S
C1526 C1527 1.415 . S
C1527 H1497 0.950 . S
C1527 C1522 1.363 . S
C1527 C1526 1.415 . S
H1528 C1525 0.999 . S
H1529 C1510 0.913 . S
H1530 C1548 0.951 . S
H1531 C1550 0.951 . S
H1532 C1552 0.950 . S
H1533 C1553 0.950 . S
H1534 C1555 0.950 . S
H1535 C1558 0.950 . S
H1536 C1559 0.950 . S
H1537 C1561 0.950 . S
H1538 C1562 0.950 . S
H1539 C1563 0.951 . S
H1540 C1565 0.951 . S
H1541 C1567 0.950 . S
H1542 C1568 0.950 . S
H1543 C1570 0.950 . S
H1544 C1573 0.950 . S
H1545 C1574 0.950 . S
H1546 C1576 0.950 . S
H1547 C1577 0.950 . S
C1548 H1530 0.951 . S
C1548 C1549 1.366 . S
C1548 C1550 1.388 . S
C1549 C1548 1.366 . S
C1549 C1553 1.385 . S
C1550 H1531 0.951 . S
C1550 C1548 1.388 . S
C1550 C1551 1.366 . S
C1551 C1550 1.366 . S
C1551 C1552 1.414 . S
C1551 C1554 1.499 . S
C1552 H1532 0.950 . S
C1552 C1551 1.414 . S
C1552 C1553 1.374 . S
C1553 H1533 0.950 . S
C1553 C1549 1.385 . S
C1553 C1552 1.374 . S
C1554 C1551 1.499 . S
C1554 C1555 1.373 . S
C1554 C1556 1.389 . S
C1555 H1534 0.950 . S
C1555 C1554 1.373 . S
C1555 C1571 1.377 1_545 S
C1556 C1554 1.389 . S
C1556 C1557 1.524 . S
C1556 C1570 1.377 . S
C1557 C1556 1.524 . S
C1557 C1558 1.397 . S
C1557 C1562 1.363 . S
C1558 H1535 0.950 . S
C1558 C1557 1.397 . S
C1558 C1559 1.334 . S
C1559 H1536 0.950 . S
C1559 C1558 1.334 . S
C1559 C1560 1.287 . S
C1560 C1559 1.287 . S
C1560 C1561 1.524 . S
C1560 H1579 0.913 . S
C1561 H1537 0.950 . S
C1561 C1560 1.524 . S
C1561 C1562 1.415 . S
C1562 H1538 0.950 . S
C1562 C1557 1.363 . S
C1562 C1561 1.415 . S
C1563 H1539 0.951 . S
C1563 C1564 1.366 . S
C1563 C1565 1.388 . S
C1564 C1563 1.366 . S
C1564 C1568 1.385 . S
C1565 H1540 0.951 . S
C1565 C1563 1.388 . S
C1565 C1566 1.366 . S
C1566 C1565 1.366 . S
C1566 C1567 1.414 . S
C1566 C1569 1.499 . S
C1567 H1541 0.950 . S
C1567 C1566 1.414 . S
C1567 C1568 1.374 . S
C1568 H1542 0.950 . S
C1568 C1564 1.385 . S
C1568 C1567 1.374 . S
C1569 C1566 1.499 . S
C1569 C1570 1.373 1_565 S
C1569 C1571 1.389 . S
C1570 H1543 0.950 . S
C1570 C1556 1.377 . S
C1570 C1569 1.373 1_545 S
C1571 C1555 1.377 1_565 S
C1571 C1569 1.389 . S
C1571 C1572 1.524 . S
C1572 C1571 1.524 . S
C1572 C1573 1.397 . S
C1572 C1577 1.363 . S
C1573 H1544 0.950 . S
C1573 C1572 1.397 . S
C1573 C1574 1.334 . S
C1574 H1545 0.950 . S
C1574 C1573 1.334 . S
C1574 C1575 1.287 . S
C1575 C1574 1.287 . S
C1575 C1576 1.524 . S
C1575 H1578 0.999 . S
C1576 H1546 0.950 . S
C1576 C1575 1.524 . S
C1576 C1577 1.415 . S
C1577 H1547 0.950 . S
C1577 C1572 1.363 . S
C1577 C1576 1.415 . S
H1578 C1575 0.999 . S
H1579 C1560 0.913 . S
H1580 C1598 0.951 . S
H1581 C1600 0.951 . S
H1582 C1602 0.950 . S
H1583 C1603 0.950 . S
H1584 C1605 0.950 . S
H1585 C1608 0.950 . S
H1586 C1609 0.950 . S
H1587 C1611 0.950 . S
H1588 C1612 0.950 . S
H1589 C1613 0.951 . S
H1590 C1615 0.951 . S
H1591 C1617 0.950 . S
H1592 C1618 0.950 . S
H1593 C1620 0.950 . S
H1594 C1623 0.950 . S
H1595 C1624 0.950 1_554 S
H1596 C1626 0.950 . S
H1597 C1627 0.950 . S
C1598 H1580 0.951 . S
C1598 C1599 1.366 . S
C1598 C1600 1.388 . S
C1599 C1598 1.366 . S
C1599 C1603 1.385 . S
C1600 H1581 0.951 . S
C1600 C1598 1.388 . S
C1600 C1601 1.366 . S
C1601 C1600 1.366 . S
C1601 C1602 1.414 . S
C1601 C1604 1.499 . S
C1602 H1582 0.950 . S
C1602 C1601 1.414 . S
C1602 C1603 1.374 . S
C1603 H1583 0.950 . S
C1603 C1599 1.385 . S
C1603 C1602 1.374 . S
C1604 C1601 1.499 . S
C1604 C1605 1.373 . S
C1604 C1606 1.389 . S
C1605 H1584 0.950 . S
C1605 C1604 1.373 . S
C1605 C1621 1.377 . S
C1606 C1604 1.389 . S
C1606 C1607 1.524 . S
C1606 C1620 1.377 . S
C1607 C1606 1.524 . S
C1607 C1608 1.397 . S
C1607 C1612 1.363 . S
C1608 H1585 0.950 . S
C1608 C1607 1.397 . S
C1608 C1609 1.334 . S
C1609 H1586 0.950 . S
C1609 C1608 1.334 . S
C1609 C1610 1.287 . S
C1610 C1609 1.287 . S
C1610 C1611 1.524 . S
C1610 H1629 0.913 . S
C1611 H1587 0.950 . S
C1611 C1610 1.524 . S
C1611 C1612 1.415 . S
C1612 H1588 0.950 . S
C1612 C1607 1.363 . S
C1612 C1611 1.415 . S
C1613 H1589 0.951 . S
C1613 C1614 1.366 . S
C1613 C1615 1.388 . S
C1614 C1613 1.366 . S
C1614 C1618 1.385 . S
C1615 H1590 0.951 . S
C1615 C1613 1.388 . S
C1615 C1616 1.366 . S
C1616 C1615 1.366 . S
C1616 C1617 1.414 . S
C1616 C1619 1.499 . S
C1617 H1591 0.950 . S
C1617 C1616 1.414 . S
C1617 C1618 1.374 . S
C1618 H1592 0.950 . S
C1618 C1614 1.385 . S
C1618 C1617 1.374 . S
C1619 C1616 1.499 . S
C1619 C1620 1.373 . S
C1619 C1621 1.389 . S
C1620 H1593 0.950 . S
C1620 C1606 1.377 . S
C1620 C1619 1.373 . S
C1621 C1605 1.377 . S
C1621 C1619 1.389 . S
C1621 C1622 1.524 . S
C1622 C1621 1.524 . S
C1622 C1623 1.397 . S
C1622 C1627 1.363 . S
C1623 H1594 0.950 . S
C1623 C1622 1.397 . S
C1623 C1624 1.334 . S
C1624 H1595 0.950 1_556 S
C1624 C1623 1.334 . S
C1624 C1625 1.287 . S
C1625 C1624 1.287 . S
C1625 C1626 1.524 . S
C1625 H1628 0.999 1_556 S
C1626 H1596 0.950 . S
C1626 C1625 1.524 . S
C1626 C1627 1.415 . S
C1627 H1597 0.950 . S
C1627 C1622 1.363 . S
C1627 C1626 1.415 . S
H1628 C1625 0.999 1_554 S
H1629 C1610 0.913 . S
H1630 C1648 0.951 . S
H1631 C1650 0.951 . S
H1632 C1652 0.950 . S
H1633 C1653 0.950 . S
H1634 C1655 0.950 . S
H1635 C1658 0.950 . S
H1636 C1659 0.950 . S
H1637 C1661 0.950 1_565 S
H1638 C1662 0.993 . S
H1639 C1663 0.951 . S
H1640 C1665 0.951 . S
H1641 C1667 0.950 . S
H1642 C1668 0.950 . S
H1643 C1670 0.950 . S
H1644 C1673 0.950 . S
H1645 C1674 0.950 . S
H1646 C1676 0.950 1_545 S
H1647 C1677 0.950 . S
C1648 H1630 0.951 . S
C1648 C1649 1.366 . S
C1648 C1650 1.388 . S
C1649 C1648 1.366 . S
C1649 C1653 1.385 . S
C1650 H1631 0.951 . S
C1650 C1648 1.388 . S
C1650 C1651 1.366 . S
C1651 C1650 1.366 . S
C1651 C1652 1.414 . S
C1651 C1654 1.499 . S
C1652 H1632 0.950 . S
C1652 C1651 1.414 . S
C1652 C1653 1.374 . S
C1653 H1633 0.950 . S
C1653 C1649 1.385 . S
C1653 C1652 1.374 . S
C1654 C1651 1.499 . S
C1654 C1655 1.373 . S
C1654 C1656 1.389 . S
C1655 H1634 0.950 . S
C1655 C1654 1.373 . S
C1655 C1671 1.377 1_545 S
C1656 C1654 1.389 . S
C1656 C1657 1.524 . S
C1656 C1670 1.377 1_545 S
C1657 C1656 1.524 . S
C1657 C1658 1.397 . S
C1657 C1662 1.333 1_545 S
C1658 H1635 0.950 . S
C1658 C1657 1.397 . S
C1658 C1659 1.334 . S
C1659 H1636 0.950 . S
C1659 C1658 1.334 . S
C1659 C1660 1.287 . S
C1660 C1659 1.287 . S
C1660 C1661 1.524 . S
C1660 H1679 0.913 . S
C1661 H1637 0.950 1_545 S
C1661 C1660 1.524 . S
C1661 C1662 1.404 1_545 S
C1662 H1638 0.993 . S
C1662 C1657 1.333 1_565 S
C1662 C1661 1.404 1_565 S
C1663 H1639 0.951 . S
C1663 C1664 1.366 . S
C1663 C1665 1.388 . S
C1664 C1663 1.366 . S
C1664 C1668 1.385 . S
C1665 H1640 0.951 . S
C1665 C1663 1.388 . S
C1665 C1666 1.366 . S
C1666 C1665 1.366 . S
C1666 C1667 1.414 . S
C1666 C1669 1.499 . S
C1667 H1641 0.950 . S
C1667 C1666 1.414 . S
C1667 C1668 1.374 . S
C1668 H1642 0.950 . S
C1668 C1664 1.385 . S
C1668 C1667 1.374 . S
C1669 C1666 1.499 . S
C1669 C1670 1.373 . S
C1669 C1671 1.389 . S
C1670 H1643 0.950 . S
C1670 C1656 1.377 1_565 S
C1670 C1669 1.373 . S
C1671 C1655 1.377 1_565 S
C1671 C1669 1.389 . S
C1671 C1672 1.524 . S
C1672 C1671 1.524 . S
C1672 C1673 1.397 . S
C1672 C1677 1.363 1_565 S
C1673 H1644 0.950 . S
C1673 C1672 1.397 . S
C1673 C1674 1.334 . S
C1674 H1645 0.950 . S
C1674 C1673 1.334 . S
C1674 C1675 1.287 . S
C1675 C1674 1.287 . S
C1675 C1676 1.524 . S
C1675 H1678 0.999 . S
C1676 H1646 0.950 1_565 S
C1676 C1675 1.524 . S
C1676 C1677 1.415 1_565 S
C1677 H1647 0.950 . S
C1677 C1672 1.363 1_545 S
C1677 C1676 1.415 1_545 S
H1678 C1675 0.999 . S
H1679 C1660 0.913 . S
H1680 C1698 0.951 . S
H1681 C1700 0.951 . S
H1682 C1702 0.950 . S
H1683 C1703 0.950 . S
H1684 C1705 0.950 . S
H1685 C1708 0.950 . S
H1686 C1709 0.950 . S
H1687 C1711 0.950 . S
H1688 C1712 0.950 . S
H1689 C1713 0.951 . S
H1690 C1715 0.951 . S
H1691 C1717 0.950 . S
H1692 C1718 0.950 . S
H1693 C1720 0.950 . S
H1694 C1723 0.950 . S
H1695 C1724 0.950 . S
H1696 C1726 0.950 . S
H1697 C1727 0.950 . S
C1698 H1680 0.951 . S
C1698 C1699 1.366 . S
C1698 C1700 1.388 . S
C1699 C1698 1.366 . S
C1699 C1703 1.385 . S
C1700 H1681 0.951 . S
C1700 C1698 1.388 . S
C1700 C1701 1.366 . S
C1701 C1700 1.366 . S
C1701 C1702 1.414 . S
C1701 C1704 1.499 . S
C1702 H1682 0.950 . S
C1702 C1701 1.414 . S
C1702 C1703 1.374 . S
C1703 H1683 0.950 . S
C1703 C1699 1.385 . S
C1703 C1702 1.374 . S
C1704 C1701 1.499 . S
C1704 C1705 1.373 . S
C1704 C1706 1.389 . S
C1705 H1684 0.950 . S
C1705 C1704 1.373 . S
C1705 C1721 1.377 . S
C1706 C1704 1.389 . S
C1706 C1707 1.524 . S
C1706 C1720 1.377 . S
C1707 C1706 1.524 . S
C1707 C1708 1.397 . S
C1707 C1712 1.363 . S
C1708 H1685 0.950 . S
C1708 C1707 1.397 . S
C1708 C1709 1.334 . S
C1709 H1686 0.950 . S
C1709 C1708 1.334 . S
C1709 C1710 1.287 . S
C1710 C1709 1.287 . S
C1710 C1711 1.524 . S
C1710 H1729 0.913 . S
C1711 H1687 0.950 . S
C1711 C1710 1.524 . S
C1711 C1712 1.415 . S
C1712 H1688 0.950 . S
C1712 C1707 1.363 . S
C1712 C1711 1.415 . S
C1713 H1689 0.951 . S
C1713 C1714 1.366 . S
C1713 C1715 1.388 . S
C1714 C1713 1.366 . S
C1714 C1718 1.385 . S
C1715 H1690 0.951 . S
C1715 C1713 1.388 . S
C1715 C1716 1.366 . S
C1716 C1715 1.366 . S
C1716 C1717 1.414 . S
C1716 C1719 1.499 . S
C1717 H1691 0.950 . S
C1717 C1716 1.414 . S
C1717 C1718 1.374 . S
C1718 H1692 0.950 . S
C1718 C1714 1.385 . S
C1718 C1717 1.374 . S
C1719 C1716 1.499 . S
C1719 C1720 1.373 . S
C1719 C1721 1.389 . S
C1720 H1693 0.950 . S
C1720 C1706 1.377 . S
C1720 C1719 1.373 . S
C1721 C1705 1.377 . S
C1721 C1719 1.389 . S
C1721 C1722 1.524 . S
C1722 C1721 1.524 . S
C1722 C1723 1.397 . S
C1722 C1727 1.363 . S
C1723 H1694 0.950 . S
C1723 C1722 1.397 . S
C1723 C1724 1.334 . S
C1724 H1695 0.950 . S
C1724 C1723 1.334 . S
C1724 C1725 1.287 . S
C1725 C1724 1.287 . S
C1725 C1726 1.524 . S
C1725 H1728 0.999 . S
C1726 H1696 0.950 . S
C1726 C1725 1.524 . S
C1726 C1727 1.415 . S
C1727 H1697 0.950 . S
C1727 C1722 1.363 . S
C1727 C1726 1.415 . S
H1728 C1725 0.999 . S
H1729 C1710 0.913 . S
H1730 C1748 0.951 . S
H1731 C1750 0.951 . S
H1732 C1752 0.950 . S
H1733 C1753 0.950 . S
H1734 C1755 0.950 . S
H1735 C1758 0.950 . S
H1736 C1759 0.950 . S
H1737 C1761 0.950 . S
H1738 C1762 0.950 . S
H1739 C1763 0.951 . S
H1740 C1765 0.951 . S
H1741 C1767 0.950 . S
H1742 C1768 0.950 . S
H1743 C1770 0.950 . S
H1744 C1773 0.950 . S
H1745 C1774 0.946 1_455 S
H1746 C1776 0.950 . S
H1747 C1777 0.950 . S
C1748 H1730 0.951 . S
C1748 C1749 1.366 . S
C1748 C1750 1.388 . S
C1749 C1748 1.366 . S
C1749 C1753 1.385 . S
C1750 H1731 0.951 . S
C1750 C1748 1.388 . S
C1750 C1751 1.366 . S
C1751 C1750 1.366 . S
C1751 C1752 1.414 . S
C1751 C1754 1.499 . S
C1752 H1732 0.950 . S
C1752 C1751 1.414 . S
C1752 C1753 1.374 . S
C1753 H1733 0.950 . S
C1753 C1749 1.385 . S
C1753 C1752 1.374 . S
C1754 C1751 1.499 . S
C1754 C1755 1.373 . S
C1754 C1756 1.389 . S
C1755 H1734 0.950 . S
C1755 C1754 1.373 . S
C1755 C1771 1.377 . S
C1756 C1754 1.389 . S
C1756 C1757 1.524 . S
C1756 C1770 1.377 . S
C1757 C1756 1.524 . S
C1757 C1758 1.397 . S
C1757 C1762 1.363 . S
C1758 H1735 0.950 . S
C1758 C1757 1.397 . S
C1758 C1759 1.334 . S
C1759 H1736 0.950 . S
C1759 C1758 1.334 . S
C1759 C1760 1.287 . S
C1760 C1759 1.287 . S
C1760 C1761 1.524 . S
C1760 H1779 0.913 . S
C1761 H1737 0.950 . S
C1761 C1760 1.524 . S
C1761 C1762 1.415 . S
C1762 H1738 0.950 . S
C1762 C1757 1.363 . S
C1762 C1761 1.415 . S
C1763 H1739 0.951 . S
C1763 C1764 1.366 . S
C1763 C1765 1.388 . S
C1764 C1763 1.366 . S
C1764 C1768 1.385 . S
C1765 H1740 0.951 . S
C1765 C1763 1.388 . S
C1765 C1766 1.366 . S
C1766 C1765 1.366 . S
C1766 C1767 1.414 . S
C1766 C1769 1.499 . S
C1767 H1741 0.950 . S
C1767 C1766 1.414 . S
C1767 C1768 1.374 . S
C1768 H1742 0.950 . S
C1768 C1764 1.385 . S
C1768 C1767 1.374 . S
C1769 C1766 1.499 . S
C1769 C1770 1.373 . S
C1769 C1771 1.389 . S
C1770 H1743 0.950 . S
C1770 C1756 1.377 . S
C1770 C1769 1.373 . S
C1771 C1755 1.377 . S
C1771 C1769 1.389 . S
C1771 C1772 1.524 . S
C1772 C1771 1.524 . S
C1772 C1773 1.397 . S
C1772 C1777 1.363 . S
C1773 H1744 0.950 . S
C1773 C1772 1.397 . S
C1773 C1774 1.334 . S
C1774 H1745 0.946 1_655 S
C1774 C1773 1.334 . S
C1774 C1775 1.287 . S
C1775 C1774 1.287 . S
C1775 C1776 1.524 . S
C1775 H1778 0.999 1_655 S
C1776 H1746 0.950 . S
C1776 C1775 1.524 . S
C1776 C1777 1.415 . S
C1777 H1747 0.950 . S
C1777 C1772 1.363 . S
C1777 C1776 1.415 . S
H1778 C1775 0.999 1_455 S
H1779 C1760 0.913 . S
H1780 C1798 0.951 . S
H1781 C1800 0.951 . S
H1782 C1802 0.950 . S
H1783 C1803 0.950 . S
H1784 C1805 0.950 . S
H1785 C1808 0.950 . S
H1786 C1809 0.950 . S
H1787 C1811 0.950 . S
H1788 C1812 0.950 . S
H1789 C1813 0.951 . S
H1790 C1815 0.951 . S
H1791 C1817 0.950 . S
H1792 C1818 0.950 . S
H1793 C1820 0.950 . S
H1794 C1823 0.950 . S
H1795 C1824 0.950 . S
H1796 C1826 0.950 . S
H1797 C1827 0.950 . S
C1798 H1780 0.951 . S
C1798 C1799 1.366 . S
C1798 C1800 1.388 . S
C1799 C1798 1.366 . S
C1799 C1803 1.385 . S
C1800 H1781 0.951 . S
C1800 C1798 1.388 . S
C1800 C1801 1.366 . S
C1801 C1800 1.366 . S
C1801 C1802 1.414 . S
C1801 C1804 1.499 . S
C1802 H1782 0.950 . S
C1802 C1801 1.414 . S
C1802 C1803 1.374 . S
C1803 H1783 0.950 . S
C1803 C1799 1.385 . S
C1803 C1802 1.374 . S
C1804 C1801 1.499 . S
C1804 C1805 1.373 . S
C1804 C1806 1.389 . S
C1805 H1784 0.950 . S
C1805 C1804 1.373 . S
C1805 C1821 1.377 . S
C1806 C1804 1.389 . S
C1806 C1807 1.524 . S
C1806 C1820 1.377 . S
C1807 C1806 1.524 . S
C1807 C1808 1.397 . S
C1807 C1812 1.363 . S
C1808 H1785 0.950 . S
C1808 C1807 1.397 . S
C1808 C1809 1.334 . S
C1809 H1786 0.950 . S
C1809 C1808 1.334 . S
C1809 C1810 1.287 . S
C1810 C1809 1.287 . S
C1810 C1811 1.524 . S
C1810 H1829 0.913 . S
C1811 H1787 0.950 . S
C1811 C1810 1.524 . S
C1811 C1812 1.415 . S
C1812 H1788 0.950 . S
C1812 C1807 1.363 . S
C1812 C1811 1.415 . S
C1813 H1789 0.951 . S
C1813 C1814 1.366 . S
C1813 C1815 1.388 . S
C1814 C1813 1.366 . S
C1814 C1818 1.385 . S
C1815 H1790 0.951 . S
C1815 C1813 1.388 . S
C1815 C1816 1.366 . S
C1816 C1815 1.366 . S
C1816 C1817 1.414 . S
C1816 C1819 1.499 . S
C1817 H1791 0.950 . S
C1817 C1816 1.414 . S
C1817 C1818 1.374 . S
C1818 H1792 0.950 . S
C1818 C1814 1.385 . S
C1818 C1817 1.374 . S
C1819 C1816 1.499 . S
C1819 C1820 1.373 . S
C1819 C1821 1.389 . S
C1820 H1793 0.950 . S
C1820 C1806 1.377 . S
C1820 C1819 1.373 . S
C1821 C1805 1.377 . S
C1821 C1819 1.389 . S
C1821 C1822 1.524 . S
C1822 C1821 1.524 . S
C1822 C1823 1.397 . S
C1822 C1827 1.363 . S
C1823 H1794 0.950 . S
C1823 C1822 1.397 . S
C1823 C1824 1.334 . S
C1824 H1795 0.950 . S
C1824 C1823 1.334 . S
C1824 C1825 1.287 . S
C1825 C1824 1.287 . S
C1825 C1826 1.524 . S
C1825 H1828 0.999 . S
C1826 H1796 0.950 . S
C1826 C1825 1.524 . S
C1826 C1827 1.415 . S
C1827 H1797 0.950 . S
C1827 C1822 1.363 . S
C1827 C1826 1.415 . S
H1828 C1825 0.999 . S
H1829 C1810 0.913 . S
H1830 C1848 0.951 . S
H1831 C1850 0.951 . S
H1832 C1852 0.950 . S
H1833 C1853 0.950 . S
H1834 C1855 0.950 . S
H1835 C1858 0.950 . S
H1836 C1859 0.950 . S
H1837 C1861 0.950 . S
H1838 C1862 0.950 . S
H1839 C1863 0.951 . S
H1840 C1865 0.951 . S
H1841 C1867 0.950 . S
H1842 C1868 0.950 . S
H1843 C1870 0.950 . S
H1844 C1873 0.950 . S
H1845 C1874 0.950 . S
H1846 C1876 0.950 . S
H1847 C1877 0.950 . S
C1848 H1830 0.951 . S
C1848 C1849 1.366 . S
C1848 C1850 1.388 . S
C1849 C1848 1.366 . S
C1849 C1853 1.385 . S
C1850 H1831 0.951 . S
C1850 C1848 1.388 . S
C1850 C1851 1.366 . S
C1851 C1850 1.366 . S
C1851 C1852 1.414 . S
C1851 C1854 1.499 . S
C1852 H1832 0.950 . S
C1852 C1851 1.414 . S
C1852 C1853 1.374 . S
C1853 H1833 0.950 . S
C1853 C1849 1.385 . S
C1853 C1852 1.374 . S
C1854 C1851 1.499 . S
C1854 C1855 1.373 . S
C1854 C1856 1.389 . S
C1855 H1834 0.950 . S
C1855 C1854 1.373 . S
C1855 C1871 1.377 . S
C1856 C1854 1.389 . S
C1856 C1857 1.524 . S
C1856 C1870 1.377 . S
C1857 C1856 1.524 . S
C1857 C1858 1.397 . S
C1857 C1862 1.363 . S
C1858 H1835 0.950 . S
C1858 C1857 1.397 . S
C1858 C1859 1.334 . S
C1859 H1836 0.950 . S
C1859 C1858 1.334 . S
C1859 C1860 1.287 . S
C1860 C1859 1.287 . S
C1860 C1861 1.524 . S
C1860 H1879 0.913 . S
C1861 H1837 0.950 . S
C1861 C1860 1.524 . S
C1861 C1862 1.415 . S
C1862 H1838 0.950 . S
C1862 C1857 1.363 . S
C1862 C1861 1.415 . S
C1863 H1839 0.951 . S
C1863 C1864 1.366 . S
C1863 C1865 1.388 . S
C1864 C1863 1.366 . S
C1864 C1868 1.385 . S
C1865 H1840 0.951 . S
C1865 C1863 1.388 . S
C1865 C1866 1.366 . S
C1866 C1865 1.366 . S
C1866 C1867 1.414 . S
C1866 C1869 1.499 . S
C1867 H1841 0.950 . S
C1867 C1866 1.414 . S
C1867 C1868 1.374 . S
C1868 H1842 0.950 . S
C1868 C1864 1.385 . S
C1868 C1867 1.374 . S
C1869 C1866 1.499 . S
C1869 C1870 1.373 . S
C1869 C1871 1.389 . S
C1870 H1843 0.950 . S
C1870 C1856 1.377 . S
C1870 C1869 1.373 . S
C1871 C1855 1.377 . S
C1871 C1869 1.389 . S
C1871 C1872 1.524 . S
C1872 C1871 1.524 . S
C1872 C1873 1.397 . S
C1872 C1877 1.363 . S
C1873 H1844 0.950 . S
C1873 C1872 1.397 . S
C1873 C1874 1.334 . S
C1874 H1845 0.950 . S
C1874 C1873 1.334 . S
C1874 C1875 1.287 . S
C1875 C1874 1.287 . S
C1875 C1876 1.524 . S
C1875 H1878 0.999 . S
C1876 H1846 0.950 . S
C1876 C1875 1.524 . S
C1876 C1877 1.415 . S
C1877 H1847 0.950 . S
C1877 C1872 1.363 . S
C1877 C1876 1.415 . S
H1878 C1875 0.999 . S
H1879 C1860 0.913 . S
H1880 C1898 0.951 . S
H1881 C1900 0.951 . S
H1882 C1902 0.950 . S
H1883 C1903 0.950 . S
H1884 C1905 0.950 . S
H1885 C1908 0.950 . S
H1886 C1909 0.950 . S
H1887 C1911 0.950 . S
H1888 C1912 0.950 . S
H1889 C1913 0.951 . S
H1890 C1915 0.951 . S
H1891 C1917 0.950 . S
H1892 C1918 0.950 . S
H1893 C1920 0.950 . S
H1894 C1923 0.950 . S
H1895 C1924 0.950 . S
H1896 C1926 0.950 . S
H1897 C1927 0.950 . S
C1898 H1880 0.951 . S
C1898 C1899 1.366 . S
C1898 C1900 1.388 . S
C1899 C1898 1.366 . S
C1899 C1903 1.385 . S
C1900 H1881 0.951 . S
C1900 C1898 1.388 . S
C1900 C1901 1.366 . S
C1901 C1900 1.366 . S
C1901 C1902 1.414 . S
C1901 C1904 1.499 . S
C1902 H1882 0.950 . S
C1902 C1901 1.414 . S
C1902 C1903 1.374 . S
C1903 H1883 0.950 . S
C1903 C1899 1.385 . S
C1903 C1902 1.374 . S
C1904 C1901 1.499 . S
C1904 C1905 1.373 . S
C1904 C1906 1.389 . S
C1905 H1884 0.950 . S
C1905 C1904 1.373 . S
C1905 C1921 1.377 . S
C1906 C1904 1.389 . S
C1906 C1907 1.524 . S
C1906 C1920 1.377 . S
C1907 C1906 1.524 . S
C1907 C1908 1.397 . S
C1907 C1912 1.363 . S
C1908 H1885 0.950 . S
C1908 C1907 1.397 . S
C1908 C1909 1.334 . S
C1909 H1886 0.950 . S
C1909 C1908 1.334 . S
C1909 C1910 1.287 . S
C1910 C1909 1.287 . S
C1910 C1911 1.524 . S
C1910 H1929 0.913 . S
C1911 H1887 0.950 . S
C1911 C1910 1.524 . S
C1911 C1912 1.415 . S
C1912 H1888 0.950 . S
C1912 C1907 1.363 . S
C1912 C1911 1.415 . S
C1913 H1889 0.951 . S
C1913 C1914 1.366 . S
C1913 C1915 1.388 . S
C1914 C1913 1.366 . S
C1914 C1918 1.385 . S
C1915 H1890 0.951 . S
C1915 C1913 1.388 . S
C1915 C1916 1.366 . S
C1916 C1915 1.366 . S
C1916 C1917 1.414 . S
C1916 C1919 1.499 . S
C1917 H1891 0.950 . S
C1917 C1916 1.414 . S
C1917 C1918 1.374 . S
C1918 H1892 0.950 . S
C1918 C1914 1.385 . S
C1918 C1917 1.374 . S
C1919 C1916 1.499 . S
C1919 C1920 1.373 . S
C1919 C1921 1.389 . S
C1920 H1893 0.950 . S
C1920 C1906 1.377 . S
C1920 C1919 1.373 . S
C1921 C1905 1.377 . S
C1921 C1919 1.389 . S
C1921 C1922 1.524 . S
C1922 C1921 1.524 . S
C1922 C1923 1.397 . S
C1922 C1927 1.363 . S
C1923 H1894 0.950 . S
C1923 C1922 1.397 . S
C1923 C1924 1.334 . S
C1924 H1895 0.950 . S
C1924 C1923 1.334 . S
C1924 C1925 1.287 . S
C1925 C1924 1.287 . S
C1925 C1926 1.524 . S
C1925 H1928 0.999 . S
C1926 H1896 0.950 . S
C1926 C1925 1.524 . S
C1926 C1927 1.415 . S
C1927 H1897 0.950 . S
C1927 C1922 1.363 . S
C1927 C1926 1.415 . S
H1928 C1925 0.999 . S
H1929 C1910 0.913 . S
H1930 C1948 0.951 . S
H1931 C1950 0.951 . S
H1932 C1952 0.950 . S
H1933 C1953 0.950 . S
H1934 C1955 0.950 . S
H1935 C1958 0.950 . S
H1936 C1959 0.950 . S
H1937 C1961 0.974 . S
H1938 C1962 0.950 . S
H1939 C1963 0.951 . S
H1940 C1965 0.951 . S
H1941 C1967 0.950 . S
H1942 C1968 0.950 . S
H1943 C1970 0.950 . S
H1944 C1973 0.950 . S
H1945 C1974 0.950 . S
H1946 C1976 0.950 . S
H1947 C1977 0.950 . S
C1948 H1930 0.951 . S
C1948 C1949 1.366 . S
C1948 C1950 1.388 . S
C1949 C1948 1.366 . S
C1949 C1953 1.385 . S
C1950 H1931 0.951 . S
C1950 C1948 1.388 . S
C1950 C1951 1.366 . S
C1951 C1950 1.366 . S
C1951 C1952 1.414 . S
C1951 C1954 1.499 . S
C1952 H1932 0.950 . S
C1952 C1951 1.414 . S
C1952 C1953 1.374 . S
C1953 H1933 0.950 . S
C1953 C1949 1.385 . S
C1953 C1952 1.374 . S
C1954 C1951 1.499 . S
C1954 C1955 1.373 . S
C1954 C1956 1.389 . S
C1955 H1934 0.950 . S
C1955 C1954 1.373 . S
C1955 C1971 1.377 . S
C1956 C1954 1.389 . S
C1956 C1957 1.524 . S
C1956 C1970 1.377 . S
C1957 C1956 1.524 . S
C1957 C1958 1.397 . S
C1957 C1962 1.363 . S
C1958 H1935 0.950 . S
C1958 C1957 1.397 . S
C1958 C1959 1.334 . S
C1959 H1936 0.950 . S
C1959 C1958 1.334 . S
C1959 C1960 1.287 1_655 S
C1960 C1959 1.287 1_455 S
C1960 C1961 1.524 1_455 S
C1960 H1979 0.913 . S
C1961 H1937 0.974 . S
C1961 C1960 1.524 1_655 S
C1961 C1962 1.415 . S
C1962 H1938 0.950 . S
C1962 C1957 1.363 . S
C1962 C1961 1.415 . S
C1963 H1939 0.951 . S
C1963 C1964 1.366 . S
C1963 C1965 1.388 . S
C1964 C1963 1.366 . S
C1964 C1968 1.385 . S
C1965 H1940 0.951 . S
C1965 C1963 1.388 . S
C1965 C1966 1.366 . S
C1966 C1965 1.366 . S
C1966 C1967 1.414 . S
C1966 C1969 1.499 . S
C1967 H1941 0.950 . S
C1967 C1966 1.414 . S
C1967 C1968 1.374 . S
C1968 H1942 0.950 . S
C1968 C1964 1.385 . S
C1968 C1967 1.374 . S
C1969 C1966 1.499 . S
C1969 C1970 1.373 . S
C1969 C1971 1.389 . S
C1970 H1943 0.950 . S
C1970 C1956 1.377 . S
C1970 C1969 1.373 . S
C1971 C1955 1.377 . S
C1971 C1969 1.389 . S
C1971 C1972 1.524 . S
C1972 C1971 1.524 . S
C1972 C1973 1.397 . S
C1972 C1977 1.363 . S
C1973 H1944 0.950 . S
C1973 C1972 1.397 . S
C1973 C1974 1.334 . S
C1974 H1945 0.950 . S
C1974 C1973 1.334 . S
C1974 C1975 1.287 . S
C1975 C1974 1.287 . S
C1975 C1976 1.524 . S
C1975 H1978 0.999 . S
C1976 H1946 0.950 . S
C1976 C1975 1.524 . S
C1976 C1977 1.415 . S
C1977 H1947 0.950 . S
C1977 C1972 1.363 . S
C1977 C1976 1.415 . S
H1978 C1975 0.999 . S
H1979 C1960 0.913 . S
H1980 C1998 0.951 . S
H1981 C2000 0.951 . S
H1982 C2002 0.950 . S
H1983 C2003 0.950 . S
H1984 C2005 0.950 . S
H1985 C2008 0.950 . S
H1986 C2009 0.950 . S
H1987 C2011 0.950 . S
H1988 C2012 0.950 . S
H1989 C2013 0.951 . S
H1990 C2015 0.951 . S
H1991 C2017 0.950 . S
H1992 C2018 0.950 . S
H1993 C2020 0.950 . S
H1994 C2023 0.950 . S
H1995 C2024 0.950 . S
H1996 C2026 0.950 . S
H1997 C2027 0.950 . S
C1998 H1980 0.951 . S
C1998 C1999 1.366 . S
C1998 C2000 1.388 . S
C1999 C1998 1.366 . S
C1999 C2003 1.385 . S
C2000 H1981 0.951 . S
C2000 C1998 1.388 . S
C2000 C2001 1.366 . S
C2001 C2000 1.366 . S
C2001 C2002 1.414 . S
C2001 C2004 1.499 . S
C2002 H1982 0.950 . S
C2002 C2001 1.414 . S
C2002 C2003 1.374 . S
C2003 H1983 0.950 . S
C2003 C1999 1.385 . S
C2003 C2002 1.374 . S
C2004 C2001 1.499 . S
C2004 C2005 1.373 . S
C2004 C2006 1.389 . S
C2005 H1984 0.950 . S
C2005 C2004 1.373 . S
C2005 C2021 1.377 . S
C2006 C2004 1.389 . S
C2006 C2007 1.524 . S
C2006 C2020 1.377 . S
C2007 C2006 1.524 . S
C2007 C2008 1.397 . S
C2007 C2012 1.363 . S
C2008 H1985 0.950 . S
C2008 C2007 1.397 . S
C2008 C2009 1.334 . S
C2009 H1986 0.950 . S
C2009 C2008 1.334 . S
C2009 C2010 1.287 . S
C2010 C2009 1.287 . S
C2010 C2011 1.524 . S
C2010 H2029 0.913 1_554 S
C2011 H1987 0.950 . S
C2011 C2010 1.524 . S
C2011 C2012 1.415 . S
C2012 H1988 0.950 . S
C2012 C2007 1.363 . S
C2012 C2011 1.415 . S
C2013 H1989 0.951 . S
C2013 C2014 1.366 . S
C2013 C2015 1.388 . S
C2014 C2013 1.366 . S
C2014 C2018 1.385 . S
C2015 H1990 0.951 . S
C2015 C2013 1.388 . S
C2015 C2016 1.366 . S
C2016 C2015 1.366 . S
C2016 C2017 1.414 . S
C2016 C2019 1.499 1_655 S
C2017 H1991 0.950 . S
C2017 C2016 1.414 . S
C2017 C2018 1.374 . S
C2018 H1992 0.950 . S
C2018 C2014 1.385 . S
C2018 C2017 1.374 . S
C2019 C2016 1.499 1_455 S
C2019 C2020 1.373 . S
C2019 C2021 1.389 . S
C2020 H1993 0.950 . S
C2020 C2006 1.377 . S
C2020 C2019 1.373 . S
C2021 C2005 1.377 . S
C2021 C2019 1.389 . S
C2021 C2022 1.524 . S
C2022 C2021 1.524 . S
C2022 C2023 1.397 1_455 S
C2022 C2027 1.363 . S
C2023 H1994 0.950 . S
C2023 C2022 1.397 1_655 S
C2023 C2024 1.334 . S
C2024 H1995 0.950 . S
C2024 C2023 1.334 . S
C2024 C2025 1.287 . S
C2025 C2024 1.287 . S
C2025 C2026 1.524 1_655 S
C2025 H2028 0.999 . S
C2026 H1996 0.950 . S
C2026 C2025 1.524 1_455 S
C2026 C2027 1.415 . S
C2027 H1997 0.950 . S
C2027 C2022 1.363 . S
C2027 C2026 1.415 . S
H2028 C2025 0.999 . S
H2029 C2010 0.913 1_556 S
H2030 C2048 0.951 . S
H2031 C2050 0.951 . S
H2032 C2052 0.950 . S
H2033 C2053 0.950 . S
H2034 C2055 0.950 . S
H2035 C2058 0.950 . S
H2036 C2059 0.950 . S
H2037 C2061 0.950 . S
H2038 C2062 0.950 . S
H2039 C2063 0.951 . S
H2040 C2065 0.951 . S
H2041 C2067 0.950 . S
H2042 C2068 0.950 . S
H2043 C2070 0.950 . S
H2044 C2073 0.950 . S
H2045 C2074 0.950 . S
H2046 C2076 0.950 . S
H2047 C2077 0.950 . S
C2048 H2030 0.951 . S
C2048 C2049 1.366 . S
C2048 C2050 1.388 . S
C2049 C2048 1.366 . S
C2049 C2053 1.385 . S
C2050 H2031 0.951 . S
C2050 C2048 1.388 . S
C2050 C2051 1.366 . S
C2051 C2050 1.366 . S
C2051 C2052 1.414 . S
C2051 C2054 1.499 . S
C2052 H2032 0.950 . S
C2052 C2051 1.414 . S
C2052 C2053 1.374 . S
C2053 H2033 0.950 . S
C2053 C2049 1.385 . S
C2053 C2052 1.374 . S
C2054 C2051 1.499 . S
C2054 C2055 1.373 . S
C2054 C2056 1.389 . S
C2055 H2034 0.950 . S
C2055 C2054 1.373 . S
C2055 C2071 1.377 . S
C2056 C2054 1.389 . S
C2056 C2057 1.524 . S
C2056 C2070 1.377 . S
C2057 C2056 1.524 . S
C2057 C2058 1.397 . S
C2057 C2062 1.363 . S
C2058 H2035 0.950 . S
C2058 C2057 1.397 . S
C2058 C2059 1.334 . S
C2059 H2036 0.950 . S
C2059 C2058 1.334 . S
C2059 C2060 1.287 . S
C2060 C2059 1.287 . S
C2060 C2061 1.524 . S
C2060 H2079 0.913 . S
C2061 H2037 0.950 . S
C2061 C2060 1.524 . S
C2061 C2062 1.415 . S
C2062 H2038 0.950 . S
C2062 C2057 1.363 . S
C2062 C2061 1.415 . S
C2063 H2039 0.951 . S
C2063 C2064 1.366 . S
C2063 C2065 1.388 . S
C2064 C2063 1.366 . S
C2064 C2068 1.385 . S
C2065 H2040 0.951 . S
C2065 C2063 1.388 . S
C2065 C2066 1.366 . S
C2066 C2065 1.366 . S
C2066 C2067 1.414 . S
C2066 C2069 1.499 . S
C2067 H2041 0.950 . S
C2067 C2066 1.414 . S
C2067 C2068 1.374 . S
C2068 H2042 0.950 . S
C2068 C2064 1.385 . S
C2068 C2067 1.374 . S
C2069 C2066 1.499 . S
C2069 C2070 1.373 . S
C2069 C2071 1.389 . S
C2070 H2043 0.950 . S
C2070 C2056 1.377 . S
C2070 C2069 1.373 . S
C2071 C2055 1.377 . S
C2071 C2069 1.389 . S
C2071 C2072 1.524 . S
C2072 C2071 1.524 . S
C2072 C2073 1.397 . S
C2072 C2077 1.363 . S
C2073 H2044 0.950 . S
C2073 C2072 1.397 . S
C2073 C2074 1.334 . S
C2074 H2045 0.950 . S
C2074 C2073 1.334 . S
C2074 C2075 1.287 . S
C2075 C2074 1.287 . S
C2075 C2076 1.524 . S
C2075 H2078 0.999 . S
C2076 H2046 0.950 . S
C2076 C2075 1.524 . S
C2076 C2077 1.415 . S
C2077 H2047 0.950 . S
C2077 C2072 1.363 . S
C2077 C2076 1.415 . S
H2078 C2075 0.999 . S
H2079 C2060 0.913 . S
H2080 C2098 0.951 . S
H2081 C2100 0.951 . S
H2082 C2102 0.950 . S
H2083 C2103 0.950 . S
H2084 C2105 0.950 . S
H2085 C2108 0.950 . S
H2086 C2109 0.950 . S
H2087 C2111 0.950 . S
H2088 C2112 0.950 . S
H2089 C2113 0.951 . S
H2090 C2115 0.951 . S
H2091 C2117 0.950 . S
H2092 C2118 0.950 . S
H2093 C2120 0.950 . S
H2094 C2123 0.950 . S
H2095 C2124 0.950 . S
H2096 C2126 0.950 . S
H2097 C2127 0.950 . S
C2098 H2080 0.951 . S
C2098 C2099 1.366 . S
C2098 C2100 1.388 . S
C2099 C2098 1.366 . S
C2099 C2103 1.385 . S
C2100 H2081 0.951 . S
C2100 C2098 1.388 . S
C2100 C2101 1.366 . S
C2101 C2100 1.366 . S
C2101 C2102 1.414 . S
C2101 C2104 1.499 . S
C2102 H2082 0.950 . S
C2102 C2101 1.414 . S
C2102 C2103 1.374 . S
C2103 H2083 0.950 . S
C2103 C2099 1.385 . S
C2103 C2102 1.374 . S
C2104 C2101 1.499 . S
C2104 C2105 1.373 . S
C2104 C2106 1.389 . S
C2105 H2084 0.950 . S
C2105 C2104 1.373 . S
C2105 C2121 1.377 . S
C2106 C2104 1.389 . S
C2106 C2107 1.524 . S
C2106 C2120 1.377 . S
C2107 C2106 1.524 . S
C2107 C2108 1.397 . S
C2107 C2112 1.363 . S
C2108 H2085 0.950 . S
C2108 C2107 1.397 . S
C2108 C2109 1.334 . S
C2109 H2086 0.950 . S
C2109 C2108 1.334 . S
C2109 C2110 1.287 . S
C2110 C2109 1.287 . S
C2110 C2111 1.524 . S
C2110 H2129 0.913 . S
C2111 H2087 0.950 . S
C2111 C2110 1.524 . S
C2111 C2112 1.415 . S
C2112 H2088 0.950 . S
C2112 C2107 1.363 . S
C2112 C2111 1.415 . S
C2113 H2089 0.951 . S
C2113 C2114 1.366 . S
C2113 C2115 1.388 . S
C2114 C2113 1.366 . S
C2114 C2118 1.385 . S
C2115 H2090 0.951 . S
C2115 C2113 1.388 . S
C2115 C2116 1.366 . S
C2116 C2115 1.366 . S
C2116 C2117 1.414 . S
C2116 C2119 1.499 . S
C2117 H2091 0.950 . S
C2117 C2116 1.414 . S
C2117 C2118 1.374 . S
C2118 H2092 0.950 . S
C2118 C2114 1.385 . S
C2118 C2117 1.374 . S
C2119 C2116 1.499 . S
C2119 C2120 1.373 . S
C2119 C2121 1.389 . S
C2120 H2093 0.950 . S
C2120 C2106 1.377 . S
C2120 C2119 1.373 . S
C2121 C2105 1.377 . S
C2121 C2119 1.389 . S
C2121 C2122 1.524 . S
C2122 C2121 1.524 . S
C2122 C2123 1.397 . S
C2122 C2127 1.363 . S
C2123 H2094 0.950 . S
C2123 C2122 1.397 . S
C2123 C2124 1.334 . S
C2124 H2095 0.950 . S
C2124 C2123 1.334 . S
C2124 C2125 1.287 . S
C2125 C2124 1.287 . S
C2125 C2126 1.524 . S
C2125 H2128 0.999 . S
C2126 H2096 0.950 . S
C2126 C2125 1.524 . S
C2126 C2127 1.415 . S
C2127 H2097 0.950 . S
C2127 C2122 1.363 . S
C2127 C2126 1.415 . S
H2128 C2125 0.999 . S
H2129 C2110 0.913 . S
H2130 C2148 0.951 . S
H2131 C2150 0.951 . S
H2132 C2152 0.950 . S
H2133 C2153 0.950 . S
H2134 C2155 0.950 . S
H2135 C2158 0.950 . S
H2136 C2159 0.950 . S
H2137 C2161 0.950 . S
H2138 C2162 0.950 . S
H2139 C2163 0.951 . S
H2140 C2165 0.951 . S
H2141 C2167 0.950 . S
H2142 C2168 0.950 . S
H2143 C2170 0.950 . S
H2144 C2173 0.950 . S
H2145 C2174 0.950 . S
H2146 C2176 0.950 . S
H2147 C2177 0.950 . S
C2148 H2130 0.951 . S
C2148 C2149 1.366 . S
C2148 C2150 1.388 . S
C2149 C2148 1.366 . S
C2149 C2153 1.385 . S
C2150 H2131 0.951 . S
C2150 C2148 1.388 . S
C2150 C2151 1.366 . S
C2151 C2150 1.366 . S
C2151 C2152 1.414 . S
C2151 C2154 1.499 . S
C2152 H2132 0.950 . S
C2152 C2151 1.414 . S
C2152 C2153 1.374 . S
C2153 H2133 0.950 . S
C2153 C2149 1.385 . S
C2153 C2152 1.374 . S
C2154 C2151 1.499 . S
C2154 C2155 1.373 . S
C2154 C2156 1.389 . S
C2155 H2134 0.950 . S
C2155 C2154 1.373 . S
C2155 C2171 1.377 . S
C2156 C2154 1.389 . S
C2156 C2157 1.524 . S
C2156 C2170 1.377 . S
C2157 C2156 1.524 . S
C2157 C2158 1.397 . S
C2157 C2162 1.363 . S
C2158 H2135 0.950 . S
C2158 C2157 1.397 . S
C2158 C2159 1.334 . S
C2159 H2136 0.950 . S
C2159 C2158 1.334 . S
C2159 C2160 1.287 . S
C2160 C2159 1.287 . S
C2160 C2161 1.524 . S
C2160 H2179 0.913 . S
C2161 H2137 0.950 . S
C2161 C2160 1.524 . S
C2161 C2162 1.415 . S
C2162 H2138 0.950 . S
C2162 C2157 1.363 . S
C2162 C2161 1.415 . S
C2163 H2139 0.951 . S
C2163 C2164 1.366 . S
C2163 C2165 1.388 . S
C2164 C2163 1.366 . S
C2164 C2168 1.385 . S
C2165 H2140 0.951 . S
C2165 C2163 1.388 . S
C2165 C2166 1.366 . S
C2166 C2165 1.366 . S
C2166 C2167 1.414 . S
C2166 C2169 1.499 . S
C2167 H2141 0.950 . S
C2167 C2166 1.414 . S
C2167 C2168 1.374 . S
C2168 H2142 0.950 . S
C2168 C2164 1.385 . S
C2168 C2167 1.374 . S
C2169 C2166 1.499 . S
C2169 C2170 1.373 . S
C2169 C2171 1.389 . S
C2170 H2143 0.950 . S
C2170 C2156 1.377 . S
C2170 C2169 1.373 . S
C2171 C2155 1.377 . S
C2171 C2169 1.389 . S
C2171 C2172 1.524 . S
C2172 C2171 1.524 . S
C2172 C2173 1.397 . S
C2172 C2177 1.363 . S
C2173 H2144 0.950 . S
C2173 C2172 1.397 . S
C2173 C2174 1.334 . S
C2174 H2145 0.950 . S
C2174 C2173 1.334 . S
C2174 C2175 1.287 . S
C2175 C2174 1.287 . S
C2175 C2176 1.524 . S
C2175 H2178 0.999 . S
C2176 H2146 0.950 . S
C2176 C2175 1.524 . S
C2176 C2177 1.415 . S
C2177 H2147 0.950 . S
C2177 C2172 1.363 . S
C2177 C2176 1.415 . S
H2178 C2175 0.999 . S
H2179 C2160 0.913 . S
H2180 C2198 0.951 . S
H2181 C2200 0.951 . S
H2182 C2202 0.950 . S
H2183 C2203 0.950 . S
H2184 C2205 0.950 . S
H2185 C2208 0.950 . S
H2186 C2209 0.950 . S
H2187 C2211 0.950 . S
H2188 C2212 0.950 . S
H2189 C2213 0.951 . S
H2190 C2215 0.951 . S
H2191 C2217 0.950 . S
H2192 C2218 0.950 . S
H2193 C2220 0.950 . S
H2194 C2223 0.950 . S
H2195 C2224 0.950 . S
H2196 C2226 0.950 . S
H2197 C2227 0.950 . S
C2198 H2180 0.951 . S
C2198 C2199 1.366 . S
C2198 C2200 1.388 . S
C2199 C2198 1.366 . S
C2199 C2203 1.385 . S
C2200 H2181 0.951 . S
C2200 C2198 1.388 . S
C2200 C2201 1.366 . S
C2201 C2200 1.366 . S
C2201 C2202 1.414 . S
C2201 C2204 1.499 . S
C2202 H2182 0.950 . S
C2202 C2201 1.414 . S
C2202 C2203 1.374 . S
C2203 H2183 0.950 . S
C2203 C2199 1.385 . S
C2203 C2202 1.374 . S
C2204 C2201 1.499 . S
C2204 C2205 1.373 . S
C2204 C2206 1.389 . S
C2205 H2184 0.950 . S
C2205 C2204 1.373 . S
C2205 C2221 1.377 . S
C2206 C2204 1.389 . S
C2206 C2207 1.524 1_556 S
C2206 C2220 1.377 . S
C2207 C2206 1.524 1_554 S
C2207 C2208 1.397 . S
C2207 C2212 1.363 . S
C2208 H2185 0.950 . S
C2208 C2207 1.397 . S
C2208 C2209 1.334 . S
C2209 H2186 0.950 . S
C2209 C2208 1.334 . S
C2209 C2210 1.287 . S
C2210 C2209 1.287 . S
C2210 C2211 1.524 . S
C2210 H2229 0.913 . S
C2211 H2187 0.950 . S
C2211 C2210 1.524 . S
C2211 C2212 1.415 . S
C2212 H2188 0.950 . S
C2212 C2207 1.363 . S
C2212 C2211 1.415 . S
C2213 H2189 0.951 . S
C2213 C2214 1.366 . S
C2213 C2215 1.388 . S
C2214 C2213 1.366 . S
C2214 C2218 1.385 . S
C2215 H2190 0.951 . S
C2215 C2213 1.388 . S
C2215 C2216 1.366 . S
C2216 C2215 1.366 . S
C2216 C2217 1.414 . S
C2216 C2219 1.499 . S
C2217 H2191 0.950 . S
C2217 C2216 1.414 . S
C2217 C2218 1.374 . S
C2218 H2192 0.950 . S
C2218 C2214 1.385 . S
C2218 C2217 1.374 . S
C2219 C2216 1.499 . S
C2219 C2220 1.373 . S
C2219 C2221 1.389 . S
C2220 H2193 0.950 . S
C2220 C2206 1.377 . S
C2220 C2219 1.373 . S
C2221 C2205 1.377 . S
C2221 C2219 1.389 . S
C2221 C2222 1.524 . S
C2222 C2221 1.524 . S
C2222 C2223 1.397 . S
C2222 C2227 1.363 . S
C2223 H2194 0.950 . S
C2223 C2222 1.397 . S
C2223 C2224 1.334 . S
C2224 H2195 0.950 . S
C2224 C2223 1.334 . S
C2224 C2225 1.287 . S
C2225 C2224 1.287 . S
C2225 C2226 1.524 . S
C2225 H2228 0.999 . S
C2226 H2196 0.950 . S
C2226 C2225 1.524 . S
C2226 C2227 1.415 . S
C2227 H2197 0.950 . S
C2227 C2222 1.363 . S
C2227 C2226 1.415 . S
H2228 C2225 0.999 . S
H2229 C2210 0.913 . S
H2230 C2248 0.951 . S
H2231 C2250 0.951 . S
H2232 C2252 0.950 . S
H2233 C2253 0.950 . S
H2234 C2255 0.950 . S
H2235 C2258 0.950 . S
H2236 C2259 0.950 . S
H2237 C2261 0.950 . S
H2238 C2262 0.950 . S
H2239 C2263 0.951 . S
H2240 C2265 0.951 . S
H2241 C2267 0.950 . S
H2242 C2268 0.950 . S
H2243 C2270 0.950 . S
H2244 C2273 0.950 . S
H2245 C2274 0.950 . S
H2246 C2276 0.950 . S
H2247 C2277 0.950 . S
C2248 H2230 0.951 . S
C2248 C2249 1.366 . S
C2248 C2250 1.388 . S
C2249 C2248 1.366 . S
C2249 C2253 1.385 . S
C2250 H2231 0.951 . S
C2250 C2248 1.388 . S
C2250 C2251 1.366 . S
C2251 C2250 1.366 . S
C2251 C2252 1.414 . S
C2251 C2254 1.499 . S
C2252 H2232 0.950 . S
C2252 C2251 1.414 . S
C2252 C2253 1.374 . S
C2253 H2233 0.950 . S
C2253 C2249 1.385 . S
C2253 C2252 1.374 . S
C2254 C2251 1.499 . S
C2254 C2255 1.373 . S
C2254 C2256 1.389 . S
C2255 H2234 0.950 . S
C2255 C2254 1.373 . S
C2255 C2271 1.377 . S
C2256 C2254 1.389 . S
C2256 C2257 1.524 . S
C2256 C2270 1.377 . S
C2257 C2256 1.524 . S
C2257 C2258 1.397 . S
C2257 C2262 1.363 . S
C2258 H2235 0.950 . S
C2258 C2257 1.397 . S
C2258 C2259 1.334 . S
C2259 H2236 0.950 . S
C2259 C2258 1.334 . S
C2259 C2260 1.287 . S
C2260 C2259 1.287 . S
C2260 C2261 1.524 . S
C2260 H2279 0.913 . S
C2261 H2237 0.950 . S
C2261 C2260 1.524 . S
C2261 C2262 1.415 . S
C2262 H2238 0.950 . S
C2262 C2257 1.363 . S
C2262 C2261 1.415 . S
C2263 H2239 0.951 . S
C2263 C2264 1.366 . S
C2263 C2265 1.388 . S
C2264 C2263 1.366 . S
C2264 C2268 1.385 . S
C2265 H2240 0.951 . S
C2265 C2263 1.388 . S
C2265 C2266 1.366 . S
C2266 C2265 1.366 . S
C2266 C2267 1.414 . S
C2266 C2269 1.499 1_455 S
C2267 H2241 0.950 . S
C2267 C2266 1.414 . S
C2267 C2268 1.374 . S
C2268 H2242 0.950 . S
C2268 C2264 1.385 . S
C2268 C2267 1.374 . S
C2269 C2266 1.499 1_655 S
C2269 C2270 1.373 . S
C2269 C2271 1.389 . S
C2270 H2243 0.950 . S
C2270 C2256 1.377 . S
C2270 C2269 1.373 . S
C2271 C2255 1.377 . S
C2271 C2269 1.389 . S
C2271 C2272 1.524 1_655 S
C2272 C2271 1.524 1_455 S
C2272 C2273 1.397 . S
C2272 C2277 1.363 . S
C2273 H2244 0.950 . S
C2273 C2272 1.397 . S
C2273 C2274 1.334 . S
C2274 H2245 0.950 . S
C2274 C2273 1.334 . S
C2274 C2275 1.287 . S
C2275 C2274 1.287 . S
C2275 C2276 1.524 . S
C2275 H2278 0.999 . S
C2276 H2246 0.950 . S
C2276 C2275 1.524 . S
C2276 C2277 1.415 . S
C2277 H2247 0.950 . S
C2277 C2272 1.363 . S
C2277 C2276 1.415 . S
H2278 C2275 0.999 . S
H2279 C2260 0.913 . S
C499 C19 1.555 . S
C514 C458 1.623 . S
C549 C378 1.581 1_565 S
C564 C58 1.584 . S
C599 C99 1.314 . S
C614 C339 1.323 . S
C649 C138 1.547 . S
C664 C418 1.546 . S
C699 C178 2.030 . S
C714 C419 1.951 . S
C749 C219 1.226 . S
C764 C459 1.224 . S
C799 C379 1.705 . S
C814 C258 1.780 1_556 S
C849 C298 1.159 . S
C864 C338 1.163 . S
C899 C139 1.915 . S
C914 C179 1.897 . S
C949 C18 1.658 . S
C964 C218 1.665 . S
C999 C59 1.379 . S
C1014 C259 1.389 . S
C1049 C299 1.653 . S
C1064 C98 1.703 . S
C1099 C15 2.703 . S
C1114 C330 2.793 . S
C1149 C46 0.934 . S
C1164 C409 0.908 . S
C1199 C449 1.458 . S
C1214 C95 1.511 . S
C1249 C126 1.319 . S
C1264 C369 1.256 . S
C1299 C166 1.482 . S
C1314 C370 1.475 . S
C1349 C329 1.573 . S
C1364 C215 1.624 . S
C1399 C410 2.024 . S
C1414 C246 2.039 . S
C1449 C450 1.822 . S
C1464 C286 1.840 . S
C1499 C9 1.405 . S
C1514 C135 1.455 . S
C1549 C6 2.362 . S
C1564 C50 2.337 . S
C1599 C55 1.927 . S
C1614 C89 1.872 . S
C1649 C130 2.003 . S
C1664 C86 2.013 . S
C1699 C206 0.894 . S
C1714 C170 0.889 . S
C1749 C209 1.529 . S
C1764 C255 1.582 . S
C1799 C250 1.115 . S
C1814 C295 1.099 . S
C1849 C175 1.633 . S
C1864 C290 1.684 . S
C1899 C326 1.078 . S
C1914 C129 1.028 . S
C1949 C210 1.677 . S
C1964 C366 1.695 . S
C1999 C335 1.828 . S
C2014 C249 1.772 . S
C2049 C406 1.565 . S
C2064 C289 1.468 . S
C2099 C169 0.563 . S
C2114 C446 0.505 . S
C2149 C455 1.381 . S
C2164 C49 1.345 . S
C2199 C90 1.194 . S
C2214 C375 1.176 . S
C2249 C415 1.783 . S
C2264 C10 1.825 . S
