# Generated by pormake.
# Topology uka, (4)-cn, num edge types: 1
# Building blocks:
#     Node 0, Type 0, BuildingBlock: KUFVIS_clean_sbu_0, # of connection points: 4
#     Node 1, Type 0, BuildingBlock: KUFVIS_clean_sbu_0, # of connection points: 4
#     Node 2, Type 0, BuildingBlock: KUFVIS_clean_sbu_0, # of connection points: 4
#     Node 3, Type 0, BuildingBlock: KUFVIS_clean_sbu_0, # of connection points: 4
#     Node 4, Type 0, BuildingBlock: KUFVIS_clean_sbu_0, # of connection points: 4
#     Node 5, Type 0, BuildingBlock: KUFVIS_clean_sbu_0, # of connection points: 4
#     Node 6, Type 0, BuildingBlock: KUFVIS_clean_sbu_0, # of connection points: 4
#     Node 7, Type 0, BuildingBlock: KUFVIS_clean_sbu_0, # of connection points: 4
#     Node 8, Type 0, BuildingBlock: KUFVIS_clean_sbu_0, # of connection points: 4
#     Node 9, Type 0, BuildingBlock: KUFVIS_clean_sbu_0, # of connection points: 4
#     Node 10, Type 0, BuildingBlock: KUFVIS_clean_sbu_0, # of connection points: 4
#     Node 11, Type 0, BuildingBlock: KUFVIS_clean_sbu_0, # of connection points: 4
#     Node 12, Type 0, BuildingBlock: KUFVIS_clean_sbu_0, # of connection points: 4
#     Node 13, Type 0, BuildingBlock: KUFVIS_clean_sbu_0, # of connection points: 4
#     Node 14, Type 0, BuildingBlock: KUFVIS_clean_sbu_0, # of connection points: 4
#     Node 15, Type 0, BuildingBlock: KUFVIS_clean_sbu_0, # of connection points: 4
#     Node 16, Type 0, BuildingBlock: KUFVIS_clean_sbu_0, # of connection points: 4
#     Node 17, Type 0, BuildingBlock: KUFVIS_clean_sbu_0, # of connection points: 4
#     Node 18, Type 0, BuildingBlock: KUFVIS_clean_sbu_0, # of connection points: 4
#     Node 19, Type 0, BuildingBlock: KUFVIS_clean_sbu_0, # of connection points: 4
#     Node 20, Type 0, BuildingBlock: KUFVIS_clean_sbu_0, # of connection points: 4
#     Node 21, Type 0, BuildingBlock: KUFVIS_clean_sbu_0, # of connection points: 4
#     Node 22, Type 0, BuildingBlock: KUFVIS_clean_sbu_0, # of connection points: 4
#     Node 23, Type 0, BuildingBlock: KUFVIS_clean_sbu_0, # of connection points: 4
#     Node 24, Type 0, BuildingBlock: KUFVIS_clean_sbu_0, # of connection points: 4
#     Node 25, Type 0, BuildingBlock: KUFVIS_clean_sbu_0, # of connection points: 4
#     Node 26, Type 0, BuildingBlock: KUFVIS_clean_sbu_0, # of connection points: 4
#     Node 27, Type 0, BuildingBlock: KUFVIS_clean_sbu_0, # of connection points: 4
#     Node 28, Type 0, BuildingBlock: KUFVIS_clean_sbu_0, # of connection points: 4
#     Node 29, Type 0, BuildingBlock: KUFVIS_clean_sbu_0, # of connection points: 4
#     Node 30, Type 0, BuildingBlock: KUFVIS_clean_sbu_0, # of connection points: 4
#     Node 31, Type 0, BuildingBlock: KUFVIS_clean_sbu_0, # of connection points: 4
#     Edge 32, Type (0, 0), BuildingBlock: KIFKEQ_clean_linker_1, # of connection points: 2
#     Edge 33, Type (0, 0), BuildingBlock: KIFKEQ_clean_linker_1, # of connection points: 2
#     Edge 34, Type (0, 0), BuildingBlock: KIFKEQ_clean_linker_1, # of connection points: 2
#     Edge 35, Type (0, 0), BuildingBlock: KIFKEQ_clean_linker_1, # of connection points: 2
#     Edge 36, Type (0, 0), BuildingBlock: KIFKEQ_clean_linker_1, # of connection points: 2
#     Edge 37, Type (0, 0), BuildingBlock: KIFKEQ_clean_linker_1, # of connection points: 2
#     Edge 38, Type (0, 0), BuildingBlock: KIFKEQ_clean_linker_1, # of connection points: 2
#     Edge 39, Type (0, 0), BuildingBlock: KIFKEQ_clean_linker_1, # of connection points: 2
#     Edge 40, Type (0, 0), BuildingBlock: KIFKEQ_clean_linker_1, # of connection points: 2
#     Edge 41, Type (0, 0), BuildingBlock: KIFKEQ_clean_linker_1, # of connection points: 2
#     Edge 42, Type (0, 0), BuildingBlock: KIFKEQ_clean_linker_1, # of connection points: 2
#     Edge 43, Type (0, 0), BuildingBlock: KIFKEQ_clean_linker_1, # of connection points: 2
#     Edge 44, Type (0, 0), BuildingBlock: KIFKEQ_clean_linker_1, # of connection points: 2
#     Edge 45, Type (0, 0), BuildingBlock: KIFKEQ_clean_linker_1, # of connection points: 2
#     Edge 46, Type (0, 0), BuildingBlock: KIFKEQ_clean_linker_1, # of connection points: 2
#     Edge 47, Type (0, 0), BuildingBlock: KIFKEQ_clean_linker_1, # of connection points: 2
#     Edge 48, Type (0, 0), BuildingBlock: KIFKEQ_clean_linker_1, # of connection points: 2
#     Edge 49, Type (0, 0), BuildingBlock: KIFKEQ_clean_linker_1, # of connection points: 2
#     Edge 50, Type (0, 0), BuildingBlock: KIFKEQ_clean_linker_1, # of connection points: 2
#     Edge 51, Type (0, 0), BuildingBlock: KIFKEQ_clean_linker_1, # of connection points: 2
#     Edge 52, Type (0, 0), BuildingBlock: KIFKEQ_clean_linker_1, # of connection points: 2
#     Edge 53, Type (0, 0), BuildingBlock: KIFKEQ_clean_linker_1, # of connection points: 2
#     Edge 54, Type (0, 0), BuildingBlock: KIFKEQ_clean_linker_1, # of connection points: 2
#     Edge 55, Type (0, 0), BuildingBlock: KIFKEQ_clean_linker_1, # of connection points: 2
#     Edge 56, Type (0, 0), BuildingBlock: KIFKEQ_clean_linker_1, # of connection points: 2
#     Edge 57, Type (0, 0), BuildingBlock: KIFKEQ_clean_linker_1, # of connection points: 2
#     Edge 58, Type (0, 0), BuildingBlock: KIFKEQ_clean_linker_1, # of connection points: 2
#     Edge 59, Type (0, 0), BuildingBlock: KIFKEQ_clean_linker_1, # of connection points: 2
#     Edge 60, Type (0, 0), BuildingBlock: KIFKEQ_clean_linker_1, # of connection points: 2
#     Edge 61, Type (0, 0), BuildingBlock: KIFKEQ_clean_linker_1, # of connection points: 2
#     Edge 62, Type (0, 0), BuildingBlock: KIFKEQ_clean_linker_1, # of connection points: 2
#     Edge 63, Type (0, 0), BuildingBlock: KIFKEQ_clean_linker_1, # of connection points: 2
#     Edge 64, Type (0, 0), BuildingBlock: KIFKEQ_clean_linker_1, # of connection points: 2
#     Edge 65, Type (0, 0), BuildingBlock: KIFKEQ_clean_linker_1, # of connection points: 2
#     Edge 66, Type (0, 0), BuildingBlock: KIFKEQ_clean_linker_1, # of connection points: 2
#     Edge 67, Type (0, 0), BuildingBlock: KIFKEQ_clean_linker_1, # of connection points: 2
#     Edge 68, Type (0, 0), BuildingBlock: KIFKEQ_clean_linker_1, # of connection points: 2
#     Edge 69, Type (0, 0), BuildingBlock: KIFKEQ_clean_linker_1, # of connection points: 2
#     Edge 70, Type (0, 0), BuildingBlock: KIFKEQ_clean_linker_1, # of connection points: 2
#     Edge 71, Type (0, 0), BuildingBlock: KIFKEQ_clean_linker_1, # of connection points: 2
#     Edge 72, Type (0, 0), BuildingBlock: KIFKEQ_clean_linker_1, # of connection points: 2
#     Edge 73, Type (0, 0), BuildingBlock: KIFKEQ_clean_linker_1, # of connection points: 2
#     Edge 74, Type (0, 0), BuildingBlock: KIFKEQ_clean_linker_1, # of connection points: 2
#     Edge 75, Type (0, 0), BuildingBlock: KIFKEQ_clean_linker_1, # of connection points: 2
#     Edge 76, Type (0, 0), BuildingBlock: KIFKEQ_clean_linker_1, # of connection points: 2
#     Edge 77, Type (0, 0), BuildingBlock: KIFKEQ_clean_linker_1, # of connection points: 2
#     Edge 78, Type (0, 0), BuildingBlock: KIFKEQ_clean_linker_1, # of connection points: 2
#     Edge 79, Type (0, 0), BuildingBlock: KIFKEQ_clean_linker_1, # of connection points: 2
#     Edge 80, Type (0, 0), BuildingBlock: KIFKEQ_clean_linker_1, # of connection points: 2
#     Edge 81, Type (0, 0), BuildingBlock: KIFKEQ_clean_linker_1, # of connection points: 2
#     Edge 82, Type (0, 0), BuildingBlock: KIFKEQ_clean_linker_1, # of connection points: 2
#     Edge 83, Type (0, 0), BuildingBlock: KIFKEQ_clean_linker_1, # of connection points: 2
#     Edge 84, Type (0, 0), BuildingBlock: KIFKEQ_clean_linker_1, # of connection points: 2
#     Edge 85, Type (0, 0), BuildingBlock: KIFKEQ_clean_linker_1, # of connection points: 2
#     Edge 86, Type (0, 0), BuildingBlock: KIFKEQ_clean_linker_1, # of connection points: 2
#     Edge 87, Type (0, 0), BuildingBlock: KIFKEQ_clean_linker_1, # of connection points: 2
#     Edge 88, Type (0, 0), BuildingBlock: KIFKEQ_clean_linker_1, # of connection points: 2
#     Edge 89, Type (0, 0), BuildingBlock: KIFKEQ_clean_linker_1, # of connection points: 2
#     Edge 90, Type (0, 0), BuildingBlock: KIFKEQ_clean_linker_1, # of connection points: 2
#     Edge 91, Type (0, 0), BuildingBlock: KIFKEQ_clean_linker_1, # of connection points: 2
#     Edge 92, Type (0, 0), BuildingBlock: KIFKEQ_clean_linker_1, # of connection points: 2
#     Edge 93, Type (0, 0), BuildingBlock: KIFKEQ_clean_linker_1, # of connection points: 2
#     Edge 94, Type (0, 0), BuildingBlock: KIFKEQ_clean_linker_1, # of connection points: 2
#     Edge 95, Type (0, 0), BuildingBlock: KIFKEQ_clean_linker_1, # of connection points: 2
# Relax obj value: 0.145
# Max RMSD: 0.209
# Mean RMSD: 0.204
data_MOF--net-uka--node1-KUFVIS_clean_sbu_0--edge1-KIFKEQ_clean_linker_1
_symmetry_space_group_name_H-M    P1
_symmetry_Int_Tables_number       1
_symmetry_cell_setting            triclinic
loop_
_symmetry_equiv_pos_as_xyz
'x, y, z'
_cell_length_a     58.632543
_cell_length_b     60.831308
_cell_length_c     42.940571
_cell_angle_alpha  90.020186
_cell_angle_beta   90.013976
_cell_angle_gamma 89.952519
loop_
_atom_site_label
_atom_site_type_symbol
_atom_site_fract_x
_atom_site_fract_y
_atom_site_fract_z
_atom_type_partial_charge
Mn0 Mn 0.1193 0.25805 0.28218 0.0
Mn1 Mn 0.11961 0.21536 0.23221 0.0
C2 C 0.12376 0.223 0.30109 0.0
C3 C 0.09818 0.28245 0.31213 0.0
C4 C 0.16047 0.24497 0.24313 0.0
O5 O 0.10702 0.27127 0.24242 0.0
O6 O 0.10561 0.24149 0.21141 0.0
C7 C 0.06982 0.20814 0.22732 0.0
N8 N 0.09101 0.20039 0.23429 0.0
C9 C 0.07591 0.16489 0.24789 0.0
C10 C 0.05394 0.17245 0.24062 0.0
C11 C 0.05089 0.19417 0.23033 0.0
C12 C 0.09415 0.17949 0.24413 0.0
H13 H 0.06738 0.22487 0.21961 0.0
C14 C 0.10208 0.26196 0.21674 0.0
O15 O 0.11873 0.28738 0.30314 0.0
O16 O 0.09006 0.26365 0.30334 0.0
N17 N 0.13241 0.189 0.24919 0.0
C18 C 0.15451 0.18468 0.25695 0.0
C19 C 0.16033 0.16389 0.26872 0.0
C20 C 0.14343 0.14773 0.27221 0.0
C21 C 0.12085 0.15248 0.26376 0.0
C22 C 0.1161 0.17343 0.25191 0.0
H23 H 0.16756 0.19707 0.25447 0.0
O24 O 0.12964 0.23987 0.31771 0.0
O25 O 0.11454 0.22721 0.27409 0.0
O26 O 0.15152 0.25724 0.26393 0.0
O27 O 0.14977 0.22944 0.22938 0.0
C28 C 0.1028 0.13741 0.26728 0.0
C29 C 0.08035 0.14361 0.25935 0.0
H30 H 0.03927 0.16178 0.24316 0.0
H31 H 0.03397 0.20016 0.22485 0.0
H32 H 0.17778 0.16036 0.27523 0.0
H33 H 0.14794 0.13178 0.2816 0.0
H34 H 0.10595 0.1211 0.27647 0.0
H35 H 0.06657 0.13197 0.26254 0.0
Mn36 Mn 0.95698 0.88079 0.523 0.0
Mn37 Mn -0.00069 0.8879 0.47086 0.0
C38 C 0.99388 0.88553 0.53996 0.0
C39 C 0.93483 0.85722 0.55302 0.0
C40 C 0.96729 0.92444 0.49083 0.0
O41 O 0.94244 0.87074 0.48251 0.0
O42 O 0.97204 0.87513 0.44969 0.0
C43 C 0.00864 0.84114 0.45648 0.0
N44 N 0.01606 0.86108 0.46674 0.0
C45 C 0.05387 0.84695 0.4755 0.0
C46 C 0.04667 0.82631 0.46479 0.0
C47 C 0.02395 0.8234 0.45526 0.0
C48 C 0.03792 0.86409 0.47584 0.0
H49 H 0.99115 0.83876 0.44936 0.0
C50 C 0.95147 0.86927 0.45557 0.0
O51 O 0.9277 0.87692 0.54641 0.0
O52 O 0.954 0.85106 0.5409 0.0
N53 N 0.02674 0.89974 0.4883 0.0
C54 C 0.0306 0.92029 0.49985 0.0
C55 C 0.05229 0.92563 0.51146 0.0
C56 C 0.0698 0.90987 0.51095 0.0
C57 C 0.06549 0.88892 0.49869 0.0
C58 C 0.04359 0.88458 0.48717 0.0
H59 H 0.01718 0.93243 0.50053 0.0
O60 O 0.97682 0.88931 0.55841 0.0
O61 O 0.98883 0.87862 0.51209 0.0
O62 O 0.95525 0.91314 0.50974 0.0
O63 O 0.98352 0.91637 0.47457 0.0
C64 C 0.08191 0.872 0.49812 0.0
C65 C 0.07611 0.85104 0.48652 0.0
H66 H 0.05838 0.81253 0.46408 0.0
H67 H 0.01823 0.80749 0.44714 0.0
H68 H 0.05546 0.94183 0.52095 0.0
H69 H 0.08643 0.91398 0.52025 0.0
H70 H 0.09896 0.87485 0.50696 0.0
H71 H 0.0888 0.83808 0.48659 0.0
Mn72 Mn 0.363 0.71786 0.78471 0.0
Mn73 Mn 0.37784 0.76029 0.73851 0.0
C74 C 0.37362 0.75094 0.80645 0.0
C75 C 0.3733 0.68665 0.81224 0.0
C76 C 0.32874 0.74698 0.75053 0.0
O77 O 0.36877 0.703 0.74307 0.0
O78 O 0.3802 0.73219 0.71476 0.0
C79 C 0.42666 0.74933 0.7298 0.0
N80 N 0.41026 0.76372 0.73932 0.0
C81 C 0.43854 0.79012 0.75513 0.0
C82 C 0.45572 0.77566 0.74527 0.0
C83 C 0.44974 0.75517 0.73258 0.0
C84 C 0.41582 0.7835 0.7515 0.0
H85 H 0.42218 0.73349 0.72025 0.0
C86 C 0.37644 0.71154 0.71804 0.0
O87 O 0.35219 0.68995 0.80431 0.0
O88 O 0.38827 0.701 0.80344 0.0
N89 N 0.3768 0.78828 0.7589 0.0
C90 C 0.35826 0.79981 0.76892 0.0
C91 C 0.36135 0.82039 0.78311 0.0
C92 C 0.38344 0.82893 0.78677 0.0
C93 C 0.40224 0.81686 0.77602 0.0
C94 C 0.39809 0.79654 0.76176 0.0
H95 H 0.34124 0.79328 0.76638 0.0
O96 O 0.36158 0.737 0.82227 0.0
O97 O 0.37938 0.74493 0.77846 0.0
O98 O 0.33309 0.73107 0.76896 0.0
O99 O 0.3442 0.75842 0.73721 0.0
C100 C 0.42495 0.824 0.77948 0.0
C101 C 0.44309 0.81064 0.76905 0.0
H102 H 0.47355 0.78001 0.74762 0.0
H103 H 0.46291 0.74386 0.72509 0.0
H104 H 0.34676 0.82959 0.7914 0.0
H105 H 0.38578 0.8447 0.79806 0.0
H106 H 0.42868 0.8396 0.79051 0.0
H107 H 0.46049 0.81617 0.77221 0.0
Mn108 Mn 0.53233 0.11679 0.01705 0.0
Mn109 Mn 0.48823 0.11233 0.96701 0.0
C110 C 0.49569 0.12078 0.03487 0.0
C111 C 0.5599 0.13821 0.04106 0.0
C112 C 0.51344 0.07314 0.99376 0.0
O113 O 0.54755 0.11942 0.97494 0.0
O114 O 0.51686 0.11853 0.94337 0.0
C115 C 0.48679 0.15822 0.9441 0.0
N116 N 0.47629 0.14092 0.95823 0.0
C117 C 0.44182 0.16185 0.96525 0.0
C118 C 0.45221 0.17982 0.95055 0.0
C119 C 0.4748 0.17799 0.93995 0.0
C120 C 0.45452 0.14247 0.96839 0.0
H121 H 0.50421 0.15697 0.93614 0.0
C122 C 0.53836 0.12071 0.94809 0.0
O123 O 0.5622 0.117 0.03931 0.0
O124 O 0.54213 0.14688 0.02796 0.0
N125 N 0.45959 0.10687 0.98701 0.0
C126 C 0.45249 0.08848 0.00232 0.0
C127 C 0.43054 0.08794 0.01538 0.0
C128 C 0.41609 0.10625 0.01246 0.0
C129 C 0.42367 0.1249 0.99633 0.0
C130 C 0.44565 0.12442 0.98355 0.0
H131 H 0.46356 0.07441 0.00488 0.0
O132 O 0.51213 0.11607 0.05394 0.0
O133 O 0.50131 0.12364 0.00581 0.0
O134 O 0.52724 0.08396 0.01081 0.0
O135 O 0.4989 0.08209 0.97557 0.0
C136 C 0.41049 0.14413 0.99307 0.0
C137 C 0.41954 0.16258 0.97752 0.0
H138 H 0.44309 0.19517 0.94757 0.0
H139 H 0.48298 0.19183 0.92875 0.0
H140 H 0.42483 0.0735 0.02785 0.0
H141 H 0.39927 0.10587 0.02289 0.0
H142 H 0.39347 0.145 0.00281 0.0
H143 H 0.40934 0.17736 0.97549 0.0
Mn144 Mn 0.12661 0.72229 0.20807 0.0
Mn145 Mn 0.11268 0.76544 0.25362 0.0
C146 C 0.11697 0.75547 0.18581 0.0
C147 C 0.11622 0.69091 0.18114 0.0
C148 C 0.16139 0.75081 0.24217 0.0
O149 O 0.12043 0.70792 0.24991 0.0
O150 O 0.10986 0.7376 0.27785 0.0
C151 C 0.06366 0.75538 0.26213 0.0
N152 N 0.08033 0.76943 0.25259 0.0
C153 C 0.05257 0.7962 0.23622 0.0
C154 C 0.03511 0.78208 0.24611 0.0
C155 C 0.04069 0.76158 0.25909 0.0
C156 C 0.07515 0.78921 0.24008 0.0
H157 H 0.06785 0.73952 0.27189 0.0
C158 C 0.11319 0.71686 0.27492 0.0
O159 O 0.13727 0.69409 0.1894 0.0
O160 O 0.10128 0.70557 0.18918 0.0
N161 N 0.11428 0.79328 0.23295 0.0
C162 C 0.13306 0.80452 0.22322 0.0
C163 C 0.13038 0.82513 0.20894 0.0
C164 C 0.10845 0.834 0.20494 0.0
C165 C 0.0894 0.82225 0.21548 0.0
C166 C 0.09313 0.8019 0.22985 0.0
H167 H 0.14996 0.79774 0.22605 0.0
O168 O 0.12866 0.7411 0.17024 0.0
O169 O 0.11087 0.74981 0.21382 0.0
O170 O 0.15659 0.73491 0.22398 0.0
O171 O 0.14629 0.76293 0.25512 0.0
C172 C 0.06682 0.82975 0.21176 0.0
C173 C 0.04842 0.81672 0.2221 0.0
H174 H 0.01737 0.78673 0.24358 0.0
H175 H 0.02731 0.75054 0.26658 0.0
H176 H 0.14517 0.83409 0.20084 0.0
H177 H 0.10643 0.84977 0.19357 0.0
H178 H 0.0634 0.84538 0.20061 0.0
H179 H 0.03113 0.82254 0.21875 0.0
Mn180 Mn 0.53838 0.8805 0.47288 0.0
Mn181 Mn 0.49516 0.88602 0.52419 0.0
C182 C 0.50137 0.87853 0.45572 0.0
C183 C 0.56475 0.85793 0.4481 0.0
C184 C 0.52151 0.9246 0.49775 0.0
O185 O 0.55403 0.87668 0.51461 0.0
O186 O 0.52379 0.8782 0.54687 0.0
C187 C 0.49206 0.8398 0.54538 0.0
N188 N 0.4821 0.85782 0.53231 0.0
C189 C 0.44653 0.83861 0.52593 0.0
C190 C 0.45636 0.81991 0.53955 0.0
C191 C 0.47923 0.82052 0.54929 0.0
C192 C 0.46008 0.85744 0.52294 0.0
H193 H 0.50968 0.84012 0.55269 0.0
C194 C 0.54512 0.87527 0.54162 0.0
O195 O 0.56804 0.87902 0.44998 0.0
O196 O 0.54663 0.85008 0.46125 0.0
N197 N 0.46646 0.89309 0.50536 0.0
C198 C 0.45988 0.91211 0.49116 0.0
C199 C 0.43769 0.91391 0.47912 0.0
C200 C 0.42245 0.89623 0.48196 0.0
C201 C 0.4295 0.87693 0.49701 0.0
C202 C 0.45177 0.87615 0.5088 0.0
H203 H 0.47153 0.92573 0.48871 0.0
O204 O 0.51784 0.88254 0.43641 0.0
O205 O 0.50714 0.87493 0.48458 0.0
O206 O 0.53468 0.91356 0.47997 0.0
O207 O 0.50704 0.91587 0.51624 0.0
C208 C 0.41547 0.85828 0.50016 0.0
C209 C 0.42398 0.83913 0.51462 0.0
H210 H 0.44658 0.80495 0.54237 0.0
H211 H 0.48697 0.80612 0.55966 0.0
H212 H 0.43238 0.92885 0.46751 0.0
H213 H 0.40543 0.89759 0.47232 0.0
H214 H 0.39821 0.85838 0.49117 0.0
H215 H 0.41311 0.8248 0.51656 0.0
Mn216 Mn 0.37312 0.27567 0.72219 0.0
Mn217 Mn 0.39267 0.23069 0.75946 0.0
C218 C 0.38141 0.24416 0.69445 0.0
C219 C 0.37942 0.30863 0.69695 0.0
C220 C 0.34297 0.24465 0.75947 0.0
O221 O 0.38319 0.28791 0.76407 0.0
O222 O 0.39829 0.25734 0.78547 0.0
C223 C 0.44208 0.24082 0.75871 0.0
N224 N 0.42452 0.22715 0.75123 0.0
C225 C 0.45016 0.20157 0.7266 0.0
C226 C 0.46853 0.21527 0.73437 0.0
C227 C 0.46445 0.23498 0.75048 0.0
C228 C 0.42826 0.20811 0.73578 0.0
H229 H 0.43905 0.25612 0.77076 0.0
C230 C 0.39402 0.27804 0.78576 0.0
O231 O 0.35965 0.30424 0.70902 0.0
O232 O 0.39562 0.29433 0.70057 0.0
N233 N 0.38878 0.20403 0.7363 0.0
C234 C 0.36912 0.19325 0.72904 0.0
C235 C 0.37018 0.17356 0.71203 0.0
C236 C 0.39141 0.16513 0.70271 0.0
C237 C 0.41143 0.1764 0.71067 0.0
C238 C 0.40934 0.19584 0.72795 0.0
H239 H 0.35272 0.19971 0.73592 0.0
O240 O 0.36776 0.25885 0.68298 0.0
O241 O 0.39003 0.24851 0.72167 0.0
O242 O 0.34555 0.26129 0.74192 0.0
O243 O 0.35951 0.23249 0.76845 0.0
C244 C 0.43333 0.16936 0.70156 0.0
C245 C 0.45268 0.18193 0.70953 0.0
H246 H 0.4858 0.21094 0.72781 0.0
H247 H 0.4785 0.2457 0.75643 0.0
H248 H 0.35465 0.16498 0.70592 0.0
H249 H 0.39214 0.15008 0.68926 0.0
H250 H 0.43546 0.15445 0.68807 0.0
H251 H 0.4694 0.17649 0.70206 0.0
Mn252 Mn 0.95938 0.12713 0.9825 0.0
Mn253 Mn 0.00246 0.11939 0.03356 0.0
C254 C 0.996 0.12256 0.96471 0.0
C255 C 0.93648 0.15076 0.9534 0.0
C256 C 0.97063 0.083 0.01304 0.0
O257 O 0.94533 0.13663 0.02351 0.0
O258 O 0.9753 0.13163 0.05553 0.0
C259 C 0.01134 0.16605 0.04907 0.0
N260 N 0.01891 0.14633 0.03815 0.0
C261 C 0.0565 0.16093 0.02936 0.0
C262 C 0.04914 0.18135 0.04073 0.0
C263 C 0.02646 0.18391 0.0506 0.0
C264 C 0.04074 0.14365 0.0287 0.0
H265 H 0.99388 0.16818 0.05648 0.0
C266 C 0.95469 0.13767 0.05028 0.0
O267 O 0.92974 0.13093 0.95994 0.0
O268 O 0.95577 0.15703 0.9651 0.0
N269 N 0.02991 0.10805 0.01544 0.0
C270 C 0.034 0.08765 0.00354 0.0
C271 C 0.0557 0.08264 0.99167 0.0
C272 C 0.07301 0.09857 0.99234 0.0
C273 C 0.0685 0.11935 0.00507 0.0
C274 C 0.04659 0.12335 0.01681 0.0
H275 H 0.02074 0.07535 0.00276 0.0
O276 O 0.97876 0.11907 0.94646 0.0
O277 O 0.99134 0.12922 0.99282 0.0
O278 O 0.95815 0.09467 0.99512 0.0
O279 O 0.98703 0.09076 0.02925 0.0
C280 C 0.08472 0.13642 0.0059 0.0
C281 C 0.07873 0.15718 0.01805 0.0
H282 H 0.06069 0.19522 0.0417 0.0
H283 H 0.02061 0.19965 0.05924 0.0
H284 H 0.05905 0.06656 0.98186 0.0
H285 H 0.08966 0.09473 0.98283 0.0
H286 H 0.10177 0.13383 0.99688 0.0
H287 H 0.09127 0.17025 0.01822 0.0
Mn288 Mn 0.87421 0.70606 0.71374 0.0
Mn289 Mn 0.85193 0.65499 0.71311 0.0
C290 C 0.89202 0.67871 0.68602 0.0
C291 C 0.87524 0.74133 0.69277 0.0
C292 C 0.87945 0.67328 0.76724 0.0
O293 O 0.84228 0.71067 0.73019 0.0
O294 O 0.82777 0.67663 0.72472 0.0
C295 C 0.82028 0.66039 0.65988 0.0
N296 N 0.83822 0.64979 0.67337 0.0
C297 C 0.84306 0.62662 0.62839 0.0
C298 C 0.82454 0.63719 0.61414 0.0
C299 C 0.81311 0.65415 0.62996 0.0
C300 C 0.84934 0.63345 0.65834 0.0
H301 H 0.81157 0.67358 0.6718 0.0
C302 C 0.82573 0.69713 0.73116 0.0
O303 O 0.88216 0.73752 0.72103 0.0
O304 O 0.86726 0.72479 0.67718 0.0
N305 N 0.87328 0.63258 0.70156 0.0
C306 C 0.89105 0.62426 0.71833 0.0
C307 C 0.90437 0.60727 0.70564 0.0
C308 C 0.89923 0.59894 0.67596 0.0
C309 C 0.88062 0.60748 0.65938 0.0
C310 C 0.86777 0.6242 0.67338 0.0
H311 H 0.89518 0.63064 0.7411 0.0
O312 O 0.90307 0.69634 0.69379 0.0
O313 O 0.87064 0.6779 0.69397 0.0
O314 O 0.88411 0.69179 0.75473 0.0
O315 O 0.86663 0.65886 0.75438 0.0
C316 C 0.8745 0.60024 0.62935 0.0
C317 C 0.85575 0.60983 0.61385 0.0
H318 H 0.81904 0.63252 0.59098 0.0
H319 H 0.79888 0.66247 0.61904 0.0
H320 H 0.91866 0.60073 0.71862 0.0
H321 H 0.90971 0.58603 0.66609 0.0
H322 H 0.8842 0.58743 0.61786 0.0
H323 H 0.85133 0.60426 0.59066 0.0
Mn324 Mn 0.03695 0.11781 0.48413 0.0
Mn325 Mn 0.99067 0.13055 0.52721 0.0
C326 C 0.00379 0.12898 0.46009 0.0
C327 C 0.07047 0.12785 0.45936 0.0
C328 C 0.00462 0.08373 0.51226 0.0
O329 O 0.05042 0.12156 0.52738 0.0
O330 O 0.01868 0.1311 0.5537 0.0
C331 C 0.00261 0.17684 0.54113 0.0
N332 N 0.98779 0.16185 0.52905 0.0
C333 C 0.9617 0.19042 0.51365 0.0
C334 C 0.97659 0.20613 0.52617 0.0
C335 C 0.99715 0.1993 0.53993 0.0
C336 C 0.96796 0.16825 0.51574 0.0
H337 H 0.01852 0.17173 0.55149 0.0
C338 C 0.04026 0.12763 0.55222 0.0
O339 O 0.06646 0.10743 0.46626 0.0
O340 O 0.05566 0.14238 0.46826 0.0
N341 N 0.96257 0.13119 0.50445 0.0
C342 C 0.95056 0.11409 0.49212 0.0
C343 C 0.92982 0.11821 0.47683 0.0
C344 C 0.92158 0.13983 0.47448 0.0
C345 C 0.93408 0.15712 0.48767 0.0
C346 C 0.95453 0.15199 0.50293 0.0
H347 H 0.95687 0.09745 0.49358 0.0
O348 O 0.01898 0.11786 0.44485 0.0
O349 O 0.00859 0.13361 0.48896 0.0
O350 O 0.02233 0.08874 0.49658 0.0
O351 O 0.99182 0.098 0.52543 0.0
C352 C 0.92728 0.1793 0.4857 0.0
C353 C 0.94109 0.19593 0.49866 0.0
H354 H 0.97252 0.22349 0.52509 0.0
H355 H 0.0088 0.21134 0.54946 0.0
H356 H 0.9203 0.10477 0.46666 0.0
H357 H 0.90573 0.14297 0.4623 0.0
H358 H 0.91161 0.18376 0.47392 0.0
H359 H 0.93582 0.21295 0.49665 0.0
Mn360 Mn 0.61857 0.28255 0.21651 0.0
Mn361 Mn 0.6454 0.33042 0.23113 0.0
C362 C 0.60669 0.31414 0.19217 0.0
C363 C 0.61699 0.25011 0.18787 0.0
C364 C 0.61047 0.31031 0.27485 0.0
O365 O 0.64773 0.27282 0.23733 0.0
O366 O 0.66548 0.30538 0.24334 0.0
C367 C 0.68241 0.32612 0.18462 0.0
N368 N 0.66421 0.33743 0.19615 0.0
C369 C 0.66718 0.36461 0.15566 0.0
C370 C 0.68606 0.35335 0.1435 0.0
C371 C 0.6937 0.33402 0.15805 0.0
C372 C 0.65671 0.35604 0.18232 0.0
H373 H 0.68823 0.31114 0.19553 0.0
C374 C 0.66486 0.28435 0.24529 0.0
O375 O 0.60729 0.25158 0.21503 0.0
O376 O 0.62771 0.26731 0.17783 0.0
N377 N 0.6281 0.35593 0.21988 0.0
C378 C 0.60948 0.36469 0.23429 0.0
C379 C 0.59962 0.38401 0.22245 0.0
C380 C 0.60904 0.39415 0.19605 0.0
C381 C 0.62845 0.38505 0.18197 0.0
C382 C 0.63771 0.36594 0.19504 0.0
H383 H 0.60208 0.35692 0.25449 0.0
O384 O 0.59324 0.29727 0.19392 0.0
O385 O 0.62694 0.31177 0.20401 0.0
O386 O 0.60573 0.29354 0.25812 0.0
O387 O 0.62559 0.32454 0.26743 0.0
C388 C 0.63881 0.39406 0.15527 0.0
C389 C 0.65814 0.38383 0.1421 0.0
H390 H 0.69473 0.35932 0.1229 0.0
H391 H 0.70818 0.32517 0.1487 0.0
H392 H 0.58468 0.39097 0.23351 0.0
H393 H 0.60123 0.40891 0.18678 0.0
H394 H 0.63195 0.40877 0.14455 0.0
H395 H 0.66585 0.39082 0.12143 0.0
Mn396 Mn 0.48599 0.86754 0.98288 0.0
Mn397 Mn 0.52971 0.86863 0.03396 0.0
C398 C 0.52274 0.86953 0.96477 0.0
C399 C 0.4603 0.84729 0.95328 0.0
C400 C 0.50214 0.90896 0.01679 0.0
O401 O 0.47089 0.85848 0.02313 0.0
O402 O 0.50105 0.85924 0.05545 0.0
C403 C 0.53201 0.82069 0.04553 0.0
N404 N 0.54231 0.83968 0.03637 0.0
C405 C 0.57761 0.82073 0.02638 0.0
C406 C 0.56742 0.80101 0.03596 0.0
C407 C 0.54451 0.801 0.04552 0.0
C408 C 0.56434 0.83988 0.02708 0.0
H409 H 0.51436 0.82055 0.05268 0.0
C410 C 0.47982 0.856 0.0499 0.0
O411 O 0.456 0.86761 0.96071 0.0
O412 O 0.479 0.83878 0.96389 0.0
N413 N 0.5586 0.87705 0.01693 0.0
C414 C 0.56565 0.89728 0.00727 0.0
C415 C 0.58802 0.89999 0.99629 0.0
C416 C 0.60298 0.88195 0.99561 0.0
C417 C 0.59547 0.86138 0.00615 0.0
C418 C 0.57303 0.85971 0.01708 0.0
H419 H 0.55419 0.91115 0.00744 0.0
O420 O 0.50572 0.87497 0.94713 0.0
O421 O 0.51773 0.86196 0.99238 0.0
O422 O 0.48827 0.8993 0.99834 0.0
O423 O 0.51805 0.89902 0.03158 0.0
C424 C 0.60922 0.84238 0.00562 0.0
C425 C 0.60029 0.82207 0.0157 0.0
H426 H 0.57697 0.78576 0.03581 0.0
H427 H 0.53649 0.78582 0.05277 0.0
H428 H 0.59368 0.91591 0.98817 0.0
H429 H 0.62015 0.88406 0.98681 0.0
H430 H 0.6266 0.84316 0.99717 0.0
H431 H 0.61095 0.80753 0.01488 0.0
Mn432 Mn 0.86587 0.29585 0.78548 0.0
Mn433 Mn 0.84112 0.34593 0.78422 0.0
C434 C 0.88273 0.32489 0.81061 0.0
C435 C 0.86971 0.26146 0.80887 0.0
C436 C 0.86839 0.32743 0.73011 0.0
O437 O 0.83383 0.28919 0.771 0.0
O438 O 0.81816 0.32297 0.77388 0.0
C439 C 0.81026 0.34015 0.83818 0.0
N440 N 0.8275 0.3513 0.82397 0.0
C441 C 0.8315 0.37558 0.86789 0.0
C442 C 0.81368 0.36445 0.88289 0.0
C443 C 0.80303 0.34666 0.86797 0.0
C444 C 0.83786 0.36846 0.83812 0.0
H445 H 0.80216 0.32632 0.82696 0.0
C446 C 0.81685 0.3022 0.76905 0.0
O447 O 0.87558 0.26458 0.78 0.0
O448 O 0.86102 0.27806 0.82359 0.0
N449 N 0.86138 0.36954 0.79448 0.0
C450 C 0.87865 0.37821 0.77718 0.0
C451 C 0.89124 0.39598 0.789 0.0
C452 C 0.88589 0.40471 0.81839 0.0
C453 C 0.86781 0.39574 0.83555 0.0
C454 C 0.85567 0.37823 0.8224 0.0
H455 H 0.88295 0.3715 0.75465 0.0
O456 O 0.89463 0.30768 0.80324 0.0
O457 O 0.86118 0.32434 0.80376 0.0
O458 O 0.87381 0.30926 0.7431 0.0
O459 O 0.8556 0.34186 0.74299 0.0
C460 C 0.86157 0.40331 0.86537 0.0
C461 C 0.84345 0.39322 0.88155 0.0
H462 H 0.80816 0.36932 0.90596 0.0
H463 H 0.78935 0.33791 0.87946 0.0
H464 H 0.90514 0.40283 0.77558 0.0
H465 H 0.89582 0.41824 0.82759 0.0
H466 H 0.87073 0.41675 0.8762 0.0
H467 H 0.83895 0.39904 0.90458 0.0
Mn468 Mn 0.48357 0.12916 0.5052 0.0
Mn469 Mn 0.52746 0.12879 0.45442 0.0
C470 C 0.52032 0.128 0.52354 0.0
C471 C 0.45758 0.14956 0.53435 0.0
C472 C 0.50074 0.0879 0.47177 0.0
O473 O 0.46842 0.13768 0.4647 0.0
O474 O 0.49884 0.13817 0.43285 0.0
C475 C 0.52944 0.17678 0.44316 0.0
N476 N 0.53985 0.15782 0.45228 0.0
C477 C 0.57495 0.17695 0.46272 0.0
C478 C 0.56465 0.19664 0.45316 0.0
C479 C 0.54179 0.19655 0.44338 0.0
C480 C 0.56184 0.15772 0.46177 0.0
H481 H 0.51182 0.17685 0.43586 0.0
C482 C 0.4775 0.1409 0.43819 0.0
O483 O 0.45355 0.12908 0.52758 0.0
O484 O 0.47613 0.15806 0.52338 0.0
N485 N 0.55633 0.12049 0.47171 0.0
C486 C 0.56347 0.10031 0.48148 0.0
C487 C 0.58579 0.09772 0.49276 0.0
C488 C 0.6006 0.11583 0.49364 0.0
C489 C 0.593 0.13636 0.48303 0.0
C490 C 0.57063 0.13792 0.47179 0.0
H491 H 0.55212 0.08637 0.48117 0.0
O492 O 0.50338 0.12243 0.54121 0.0
O493 O 0.51519 0.13525 0.49582 0.0
O494 O 0.4867 0.0972 0.49041 0.0
O495 O 0.51609 0.09831 0.45657 0.0
C496 C 0.60659 0.15544 0.4838 0.0
C497 C 0.59757 0.17572 0.47367 0.0
H498 H 0.57407 0.21195 0.4535 0.0
H499 H 0.53368 0.2117 0.43616 0.0
H500 H 0.59151 0.08182 0.50095 0.0
H501 H 0.61773 0.11382 0.50268 0.0
H502 H 0.62393 0.15476 0.49248 0.0
H503 H 0.60811 0.19032 0.47469 0.0
Mn504 Mn 0.62316 0.70496 0.28974 0.0
Mn505 Mn 0.64302 0.65296 0.28722 0.0
C506 C 0.60454 0.67761 0.31651 0.0
C507 C 0.62394 0.73945 0.31345 0.0
C508 C 0.61581 0.67384 0.2346 0.0
O509 O 0.65515 0.70874 0.27319 0.0
O510 O 0.66781 0.67381 0.27536 0.0
C511 C 0.67616 0.656 0.33911 0.0
N512 N 0.6575 0.64637 0.32604 0.0
C513 C 0.65306 0.62222 0.37 0.0
C514 C 0.67233 0.63177 0.3838 0.0
C515 C 0.68391 0.64874 0.36829 0.0
C516 C 0.64622 0.63003 0.34078 0.0
H517 H 0.68502 0.66918 0.32744 0.0
C518 C 0.67086 0.6944 0.2704 0.0
O519 O 0.61664 0.73712 0.28503 0.0
O520 O 0.63117 0.72193 0.32745 0.0
N521 N 0.62102 0.63119 0.29892 0.0
C522 C 0.60229 0.62418 0.28296 0.0
C523 C 0.58868 0.60739 0.2955 0.0
C524 C 0.59445 0.59797 0.3243 0.0
C525 C 0.61392 0.60529 0.34016 0.0
C526 C 0.62703 0.62185 0.32629 0.0
H527 H 0.59757 0.63152 0.26104 0.0
O528 O 0.59404 0.69575 0.30964 0.0
O529 O 0.62572 0.67619 0.3079 0.0
O530 O 0.61253 0.69244 0.24776 0.0
O531 O 0.6275 0.65833 0.24693 0.0
C532 C 0.62062 0.59703 0.36942 0.0
C533 C 0.64016 0.60551 0.38434 0.0
H534 H 0.67828 0.62631 0.4064 0.0
H535 H 0.69872 0.65628 0.37887 0.0
H536 H 0.57365 0.60187 0.28315 0.0
H537 H 0.58373 0.58524 0.33412 0.0
H538 H 0.61074 0.58432 0.38079 0.0
H539 H 0.64501 0.59919 0.40698 0.0
Mn540 Mn 0.00653 0.87745 0.01543 0.0
Mn541 Mn 0.96236 0.8781 0.96524 0.0
C542 C 0.96992 0.87604 0.03423 0.0
C543 C 0.03355 0.85688 0.04246 0.0
C544 C 0.98727 0.91932 0.98595 0.0
O545 O 0.02176 0.87128 0.97414 0.0
O546 O 0.99125 0.87092 0.94244 0.0
C547 C 0.96246 0.83071 0.94944 0.0
N548 N 0.95129 0.84873 0.96054 0.0
C549 C 0.91725 0.82763 0.96977 0.0
C550 C 0.92833 0.80891 0.95818 0.0
C551 C 0.95104 0.81045 0.948 0.0
C552 C 0.92943 0.84742 0.97038 0.0
H553 H 0.97997 0.83175 0.94183 0.0
C554 C 0.01272 0.8688 0.94743 0.0
O555 O 0.0367 0.87776 0.0375 0.0
O556 O 0.0153 0.84817 0.03089 0.0
N557 N 0.93334 0.88431 0.98376 0.0
C558 C 0.92548 0.9036 0.99588 0.0
C559 C 0.90325 0.90464 0.00794 0.0
C560 C 0.88928 0.88591 0.00727 0.0
C561 C 0.89763 0.86632 0.99439 0.0
C562 C 0.91987 0.8663 0.98246 0.0
H563 H 0.9362 0.91797 0.99684 0.0
O564 O 0.98669 0.88175 0.05213 0.0
O565 O 0.9752 0.87032 0.00585 0.0
O566 O 0.0019 0.90984 0.00353 0.0
O567 O 0.9723 0.90893 0.97003 0.0
C568 C 0.88495 0.84666 0.9936 0.0
C569 C 0.89476 0.82734 0.9813 0.0
H570 H 0.91963 0.79321 0.95725 0.0
H571 H 0.95975 0.79604 0.93921 0.0
H572 H 0.89696 0.91981 0.01794 0.0
H573 H 0.87223 0.88672 0.01691 0.0
H574 H 0.86775 0.84616 0.00275 0.0
H575 H 0.88493 0.81226 0.98116 0.0
Mn576 Mn 0.63301 0.7886 0.78329 0.0
Mn577 Mn 0.61648 0.74587 0.73869 0.0
C578 C 0.6214 0.75633 0.80629 0.0
C579 C 0.62425 0.82045 0.81023 0.0
C580 C 0.66604 0.7576 0.75012 0.0
O581 O 0.62761 0.80296 0.74125 0.0
O582 O 0.61542 0.77359 0.7139 0.0
C583 C 0.5682 0.75875 0.72962 0.0
N584 N 0.58393 0.74384 0.7396 0.0
C585 C 0.55449 0.71896 0.75634 0.0
C586 C 0.53798 0.73397 0.74601 0.0
C587 C 0.54487 0.75396 0.73262 0.0
C588 C 0.57749 0.72455 0.75249 0.0
H589 H 0.57339 0.77421 0.71953 0.0
C590 C 0.61987 0.79417 0.71644 0.0
O591 O 0.64512 0.81631 0.80193 0.0
O592 O 0.6086 0.80666 0.80182 0.0
N593 N 0.61626 0.7182 0.75994 0.0
C594 C 0.63428 0.70595 0.77005 0.0
C595 C 0.63026 0.68572 0.78478 0.0
C596 C 0.60781 0.67823 0.78882 0.0
C597 C 0.58956 0.69097 0.77787 0.0
C598 C 0.59461 0.71091 0.76309 0.0
H599 H 0.65158 0.71167 0.7672 0.0
O600 O 0.63402 0.77014 0.82145 0.0
O601 O 0.6156 0.76198 0.77814 0.0
O602 O 0.66228 0.7741 0.76772 0.0
O603 O 0.65019 0.74631 0.73739 0.0
C604 C 0.56654 0.68489 0.7816 0.0
C605 C 0.54902 0.69887 0.77085 0.0
H606 H 0.51997 0.73042 0.7485 0.0
H607 H 0.53223 0.76569 0.72477 0.0
H608 H 0.64444 0.67598 0.79319 0.0
H609 H 0.60477 0.66273 0.80053 0.0
H610 H 0.56212 0.66961 0.79305 0.0
H611 H 0.53139 0.69413 0.77419 0.0
Mn612 Mn 0.47947 0.38149 0.01498 0.0
Mn613 Mn 0.52555 0.38126 0.96805 0.0
C614 C 0.5155 0.38358 0.03607 0.0
C615 C 0.45277 0.36266 0.04468 0.0
C616 C 0.49669 0.42179 0.97966 0.0
O617 O 0.46644 0.37037 0.97428 0.0
O618 O 0.49822 0.37031 0.94479 0.0
C619 C 0.52969 0.33309 0.95953 0.0
N620 N 0.539 0.3526 0.96849 0.0
C621 C 0.57426 0.33492 0.9826 0.0
C622 C 0.56513 0.31469 0.97315 0.0
C623 C 0.54273 0.31378 0.96161 0.0
C624 C 0.56056 0.35368 0.97957 0.0
H625 H 0.5124 0.33222 0.951 0.0
C626 C 0.47684 0.36667 0.94876 0.0
O627 O 0.44853 0.38239 0.03461 0.0
O628 O 0.47183 0.35369 0.0362 0.0
N629 N 0.55315 0.39083 0.98773 0.0
C630 C 0.55873 0.41124 0.99838 0.0
C631 C 0.5802 0.41473 0.01198 0.0
C632 C 0.59572 0.39723 0.0145 0.0
C633 C 0.58963 0.37638 0.00335 0.0
C634 C 0.56807 0.37393 0.9897 0.0
H635 H 0.54676 0.42468 0.99699 0.0
O636 O 0.49791 0.39041 0.05161 0.0
O637 O 0.51144 0.37544 0.00856 0.0
O638 O 0.48209 0.41253 0.99732 0.0
O639 O 0.51339 0.41158 0.9671 0.0
C640 C 0.60386 0.35781 0.00605 0.0
C641 C 0.59619 0.3371 0.99566 0.0
H642 H 0.57505 0.29972 0.97503 0.0
H643 H 0.53549 0.2982 0.95453 0.0
H644 H 0.5847 0.43084 0.02074 0.0
H645 H 0.61216 0.39993 0.02536 0.0
H646 H 0.6206 0.3592 0.01656 0.0
H647 H 0.60715 0.32288 0.99831 0.0
Mn648 Mn 0.87053 0.23097 0.29098 0.0
Mn649 Mn 0.86333 0.27118 0.23786 0.0
C650 C 0.86705 0.2668 0.3073 0.0
C651 C 0.8949 0.20838 0.31924 0.0
C652 C 0.82521 0.2413 0.25964 0.0
O653 O 0.87885 0.21608 0.25029 0.0
O654 O 0.87608 0.24454 0.21702 0.0
C655 C 0.91177 0.27955 0.22254 0.0
N656 N 0.89124 0.28701 0.23296 0.0
C657 C 0.90618 0.32348 0.24032 0.0
C658 C 0.92744 0.31622 0.22944 0.0
C659 C 0.93025 0.29416 0.22055 0.0
C660 C 0.88833 0.30823 0.24149 0.0
H661 H 0.91404 0.26257 0.21587 0.0
C662 C 0.88083 0.22442 0.22319 0.0
O663 O 0.87381 0.2028 0.31431 0.0
O664 O 0.90183 0.22666 0.30697 0.0
N665 N 0.85138 0.29792 0.25482 0.0
C666 C 0.83015 0.30199 0.26639 0.0
C667 C 0.82478 0.32313 0.2773 0.0
C668 C 0.84123 0.33988 0.27604 0.0
C669 C 0.86288 0.33536 0.26372 0.0
C670 C 0.86719 0.31403 0.25295 0.0
H671 H 0.81747 0.28916 0.26758 0.0
O672 O 0.86358 0.25068 0.32646 0.0
O673 O 0.87339 0.26145 0.27919 0.0
O674 O 0.8367 0.23045 0.27963 0.0
O675 O 0.83367 0.25618 0.24212 0.0
C676 C 0.8805 0.35107 0.26233 0.0
C677 C 0.90213 0.34513 0.25063 0.0
H678 H 0.94179 0.3274 0.2281 0.0
H679 H 0.94664 0.28841 0.21229 0.0
H680 H 0.80804 0.32648 0.2868 0.0
H681 H 0.8371 0.35611 0.28476 0.0
H682 H 0.87768 0.36768 0.27056 0.0
H683 H 0.91562 0.35728 0.25003 0.0
Mn684 Mn 0.03876 0.62281 0.51929 0.0
Mn685 Mn 0.99412 0.61766 0.47029 0.0
C686 C 0.00235 0.62138 0.53902 0.0
C687 C 0.0644 0.64572 0.54473 0.0
C688 C 0.02444 0.57951 0.48949 0.0
O689 O 0.05247 0.63004 0.47714 0.0
O690 O 0.02108 0.62898 0.44692 0.0
C691 C 0.9865 0.66466 0.45575 0.0
N692 N 0.97853 0.64516 0.46688 0.0
C693 C 0.94179 0.66101 0.4779 0.0
C694 C 0.94954 0.68122 0.46632 0.0
C695 C 0.972 0.68305 0.45523 0.0
C696 C 0.95692 0.6432 0.47751 0.0
H697 H 0.0038 0.66619 0.44743 0.0
C698 C 0.04241 0.63267 0.45107 0.0
O699 O 0.06912 0.62507 0.54033 0.0
O700 O 0.04523 0.65297 0.53384 0.0
N701 N 0.96689 0.60721 0.48994 0.0
C702 C 0.96248 0.58694 0.50203 0.0
C703 C 0.941 0.58263 0.51513 0.0
C704 C 0.92425 0.59915 0.51552 0.0
C705 C 0.92908 0.61979 0.50261 0.0
C706 C 0.95073 0.62307 0.48961 0.0
H707 H 0.97531 0.57421 0.50199 0.0
O708 O 0.01977 0.61733 0.5567 0.0
O709 O 0.00681 0.62696 0.51037 0.0
O710 O 0.03722 0.59007 0.50837 0.0
O711 O 0.0087 0.58851 0.47328 0.0
C712 C 0.91346 0.6374 0.50282 0.0
C713 C 0.91981 0.65799 0.49046 0.0
H714 H 0.93848 0.69549 0.46614 0.0
H715 H 0.97815 0.69862 0.44643 0.0
H716 H 0.93741 0.56666 0.52508 0.0
H717 H 0.90779 0.59584 0.52597 0.0
H718 H 0.89664 0.63538 0.51282 0.0
H719 H 0.90775 0.67149 0.49112 0.0
Mn720 Mn 0.62579 0.21177 0.70969 0.0
Mn721 Mn 0.60867 0.25274 0.75719 0.0
C722 C 0.6144 0.24495 0.68906 0.0
C723 C 0.61765 0.18087 0.68042 0.0
C724 C 0.65829 0.24111 0.74635 0.0
O725 O 0.61988 0.19584 0.75041 0.0
O726 O 0.60721 0.22412 0.77968 0.0
C727 C 0.5602 0.23987 0.76381 0.0
N728 N 0.57616 0.25506 0.75558 0.0
C729 C 0.54712 0.28088 0.74031 0.0
C730 C 0.53038 0.26559 0.74886 0.0
C731 C 0.53695 0.24498 0.76061 0.0
C732 C 0.57001 0.27494 0.74425 0.0
H733 H 0.56516 0.22395 0.77263 0.0
C734 C 0.61183 0.2037 0.77567 0.0
O735 O 0.63836 0.18483 0.68955 0.0
O736 O 0.60176 0.19436 0.68911 0.0
N737 N 0.60891 0.2812 0.73814 0.0
C738 C 0.62714 0.29361 0.72931 0.0
C739 C 0.62345 0.31444 0.71615 0.0
C740 C 0.60111 0.32233 0.71233 0.0
C741 C 0.58264 0.30936 0.7219 0.0
C742 C 0.58736 0.28882 0.73517 0.0
H743 H 0.64435 0.28759 0.732 0.0
O744 O 0.62723 0.23177 0.67307 0.0
O745 O 0.6083 0.23816 0.71655 0.0
O746 O 0.65474 0.22549 0.72718 0.0
O747 O 0.6423 0.252 0.75946 0.0
C748 C 0.55972 0.31582 0.71819 0.0
C749 C 0.54197 0.30158 0.72737 0.0
H750 H 0.51245 0.26943 0.74619 0.0
H751 H 0.52412 0.23304 0.76705 0.0
H752 H 0.6378 0.32434 0.70879 0.0
H753 H 0.59833 0.3383 0.70183 0.0
H754 H 0.55555 0.33158 0.70791 0.0
H755 H 0.52442 0.30661 0.72401 0.0
Mn756 Mn 0.02716 0.36943 0.98252 0.0
Mn757 Mn 0.98098 0.37163 0.02941 0.0
C758 C 0.99156 0.37467 0.96153 0.0
C759 C 0.0524 0.34862 0.95268 0.0
C760 C 0.01249 0.41039 0.01888 0.0
O761 O 0.03907 0.35669 0.02292 0.0
O762 O 0.00731 0.3585 0.05225 0.0
C763 C 0.97334 0.32373 0.03611 0.0
N764 N 0.96549 0.34399 0.02785 0.0
C765 C 0.92899 0.32911 0.01329 0.0
C766 C 0.93663 0.30812 0.02189 0.0
C767 C 0.95891 0.30543 0.03331 0.0
C768 C 0.94405 0.34678 0.01692 0.0
H769 H 0.99049 0.32153 0.0447 0.0
C770 C 0.02831 0.3533 0.04824 0.0
O771 O 0.05822 0.36792 0.96301 0.0
O772 O 0.03255 0.34129 0.96075 0.0
N773 N 0.95411 0.3835 0.01035 0.0
C774 C 0.94985 0.40455 0.00116 0.0
C775 C 0.92857 0.40984 0.98814 0.0
C776 C 0.91185 0.39349 0.98483 0.0
C777 C 0.91653 0.37199 0.99473 0.0
C778 C 0.93798 0.36772 0.00782 0.0
H779 H 0.96268 0.41715 0.0033 0.0
O780 O 0.00966 0.38016 0.94603 0.0
O781 O 0.99482 0.36574 0.98873 0.0
O782 O 0.02666 0.4006 0.00096 0.0
O783 O 0.99537 0.40083 0.03133 0.0
C784 C 0.90098 0.35451 0.99135 0.0
C785 C 0.9072 0.33309 0.00063 0.0
H786 H 0.92562 0.29392 0.01951 0.0
H787 H 0.96498 0.28926 0.03981 0.0
H788 H 0.92512 0.42645 0.98046 0.0
H789 H 0.89556 0.39757 0.97442 0.0
H790 H 0.88431 0.3573 0.98119 0.0
H791 H 0.89521 0.31973 0.99751 0.0
Mn792 Mn 0.86667 0.77731 0.21462 0.0
Mn793 Mn 0.88232 0.7341 0.25892 0.0
C794 C 0.87688 0.74464 0.19138 0.0
C795 C 0.87587 0.80904 0.18769 0.0
C796 C 0.83306 0.74736 0.24851 0.0
O797 O 0.87296 0.79148 0.2566 0.0
O798 O 0.88447 0.76178 0.28374 0.0
C799 C 0.93106 0.74561 0.26687 0.0
N800 N 0.91478 0.73114 0.25728 0.0
C801 C 0.94328 0.70545 0.23982 0.0
C802 C 0.96034 0.72001 0.24973 0.0
C803 C 0.95419 0.74018 0.26328 0.0
C804 C 0.92051 0.71168 0.24422 0.0
H805 H 0.92643 0.76122 0.27707 0.0
C806 C 0.88061 0.78248 0.28133 0.0
O807 O 0.85504 0.80536 0.19654 0.0
O808 O 0.89131 0.7948 0.19544 0.0
N809 N 0.88148 0.7064 0.23774 0.0
C810 C 0.86299 0.6946 0.22823 0.0
C811 C 0.86623 0.67422 0.21352 0.0
C812 C 0.88842 0.66612 0.20889 0.0
C813 C 0.90716 0.67841 0.21927 0.0
C814 C 0.90287 0.69851 0.23406 0.0
H815 H 0.84589 0.70078 0.23155 0.0
O816 O 0.86461 0.75889 0.17646 0.0
O817 O 0.88325 0.75013 0.21938 0.0
O818 O 0.83722 0.76372 0.23086 0.0
O819 O 0.84864 0.73553 0.26091 0.0
C820 C 0.92994 0.67168 0.21497 0.0
C821 C 0.94799 0.6852 0.22522 0.0
H822 H 0.97821 0.71596 0.2468 0.0
H823 H 0.96726 0.75156 0.27081 0.0
H824 H 0.85168 0.66483 0.20559 0.0
H825 H 0.89086 0.65052 0.1972 0.0
H826 H 0.93378 0.65626 0.20348 0.0
H827 H 0.96544 0.67997 0.22146 0.0
Mn828 Mn 0.46128 0.61702 0.48096 0.0
Mn829 Mn 0.50376 0.61138 0.5333 0.0
C830 C 0.49839 0.6149 0.46422 0.0
C831 C 0.43715 0.63921 0.45183 0.0
C832 C 0.4748 0.57338 0.51096 0.0
O833 O 0.44594 0.62525 0.52148 0.0
O834 O 0.47534 0.62153 0.55479 0.0
C835 C 0.50902 0.65828 0.55037 0.0
N836 N 0.51815 0.63928 0.53908 0.0
C837 C 0.55463 0.65656 0.53142 0.0
C838 C 0.54566 0.67626 0.54319 0.0
C839 C 0.52275 0.67711 0.55268 0.0
C840 C 0.5402 0.63825 0.52999 0.0
H841 H 0.49138 0.6591 0.55748 0.0
C842 C 0.45451 0.62643 0.54869 0.0
O843 O 0.43178 0.61892 0.45785 0.0
O844 O 0.45585 0.64669 0.46391 0.0
N845 N 0.53222 0.60216 0.51571 0.0
C846 C 0.53793 0.58226 0.50333 0.0
C847 C 0.56006 0.57893 0.49175 0.0
C848 C 0.57612 0.59602 0.49317 0.0
C849 C 0.56993 0.61626 0.50631 0.0
C850 C 0.54768 0.61857 0.51772 0.0
H851 H 0.52563 0.5691 0.50196 0.0
O852 O 0.48167 0.61044 0.44548 0.0
O853 O 0.49286 0.62104 0.49232 0.0
O854 O 0.4619 0.58459 0.49306 0.0
O855 O 0.4905 0.5818 0.5278 0.0
C856 C 0.58483 0.63439 0.50791 0.0
C857 C 0.57719 0.65452 0.52047 0.0
H858 H 0.55614 0.69087 0.54476 0.0
H859 H 0.51567 0.69229 0.56163 0.0
H860 H 0.56469 0.56327 0.4816 0.0
H861 H 0.5931 0.59345 0.48391 0.0
H862 H 0.60211 0.6331 0.49919 0.0
H863 H 0.58872 0.66841 0.52125 0.0
Mn864 Mn 0.37422 0.22484 0.20468 0.0
Mn865 Mn 0.35446 0.17274 0.20313 0.0
C866 C 0.39305 0.19849 0.17613 0.0
C867 C 0.37443 0.26028 0.18438 0.0
C868 C 0.38111 0.19177 0.25744 0.0
O869 O 0.34201 0.2281 0.22122 0.0
O870 O 0.32969 0.19328 0.21532 0.0
C871 C 0.3224 0.17735 0.15023 0.0
N872 N 0.34071 0.16724 0.1635 0.0
C873 C 0.34565 0.14387 0.11876 0.0
C874 C 0.32674 0.15393 0.10472 0.0
C875 C 0.31509 0.17077 0.12051 0.0
C876 C 0.35209 0.15107 0.14846 0.0
H877 H 0.31347 0.1904 0.16217 0.0
C878 C 0.32638 0.21355 0.22216 0.0
O879 O 0.3811 0.25639 0.21272 0.0
O880 O 0.36675 0.24374 0.16849 0.0
N881 N 0.37659 0.15117 0.19112 0.0
C882 C 0.39466 0.14331 0.20772 0.0
C883 C 0.40814 0.12641 0.19514 0.0
C884 C 0.40282 0.11764 0.16577 0.0
C885 C 0.38392 0.12573 0.14934 0.0
C886 C 0.37093 0.14239 0.16324 0.0
H887 H 0.39886 0.14995 0.23032 0.0
O888 O 0.40347 0.21635 0.1844 0.0
O889 O 0.37182 0.19674 0.18431 0.0
O890 O 0.38473 0.21064 0.24542 0.0
O891 O 0.36916 0.17686 0.24422 0.0
C892 C 0.37762 0.11808 0.11959 0.0
C893 C 0.35854 0.12719 0.10427 0.0
H894 H 0.32112 0.14897 0.08174 0.0
H895 H 0.30056 0.17869 0.10975 0.0
H896 H 0.42266 0.12021 0.208 0.0
H897 H 0.41337 0.10474 0.15603 0.0
H898 H 0.38747 0.10534 0.10815 0.0
H899 H 0.35401 0.12132 0.08127 0.0
Mn900 Mn 0.51404 0.63113 0.97757 0.0
Mn901 Mn 0.47127 0.62285 0.02879 0.0
C902 C 0.47716 0.62873 0.96002 0.0
C903 C 0.53834 0.65445 0.9505 0.0
C904 C 0.50078 0.58611 0.00389 0.0
O905 O 0.52906 0.63809 0.0189 0.0
O906 O 0.49968 0.63167 0.05136 0.0
C907 C 0.46633 0.66906 0.04946 0.0
N908 N 0.45706 0.65058 0.0368 0.0
C909 C 0.42068 0.66839 0.03051 0.0
C910 C 0.42979 0.68756 0.04371 0.0
C911 C 0.45272 0.68789 0.05318 0.0
C912 C 0.43501 0.65009 0.02758 0.0
H913 H 0.48398 0.66947 0.05658 0.0
C914 C 0.52042 0.63724 0.04607 0.0
O915 O 0.54361 0.63396 0.95513 0.0
O916 O 0.51945 0.66149 0.96267 0.0
N917 N 0.44272 0.61449 0.0107 0.0
C918 C 0.43671 0.59491 0.99764 0.0
C919 C 0.41444 0.59204 0.98633 0.0
C920 C 0.39852 0.60922 0.98887 0.0
C921 C 0.40497 0.62906 0.00297 0.0
C922 C 0.42737 0.63092 0.01401 0.0
H923 H 0.44888 0.58167 0.99551 0.0
O924 O 0.49416 0.62552 0.94128 0.0
O925 O 0.48219 0.63416 0.98862 0.0
O926 O 0.51383 0.59821 0.98743 0.0
O927 O 0.48454 0.59361 0.02068 0.0
C928 C 0.39018 0.64719 0.00599 0.0
C929 C 0.39803 0.66685 0.01973 0.0
H930 H 0.4194 0.70216 0.04645 0.0
H931 H 0.45992 0.70266 0.06323 0.0
H932 H 0.40958 0.57666 0.97554 0.0
H933 H 0.38142 0.60701 0.97985 0.0
H934 H 0.3728 0.64627 0.99755 0.0
H935 H 0.38656 0.68075 0.02166 0.0
Mn936 Mn 0.12063 0.79672 0.70887 0.0
Mn937 Mn 0.14191 0.84794 0.71569 0.0
C938 C 0.10316 0.82539 0.68345 0.0
C939 C 0.1214 0.76296 0.68321 0.0
C940 C 0.11294 0.82611 0.76563 0.0
O941 O 0.15207 0.79162 0.72684 0.0
O942 O 0.1661 0.82604 0.7261 0.0
C943 C 0.17527 0.84618 0.66396 0.0
N944 N 0.15674 0.8557 0.67758 0.0
C945 C 0.15288 0.88142 0.63533 0.0
C946 C 0.17202 0.872 0.62099 0.0
C947 C 0.18325 0.8543 0.63537 0.0
C948 C 0.14579 0.87272 0.66392 0.0
H949 H 0.18384 0.83244 0.67476 0.0
C950 C 0.16832 0.80527 0.73036 0.0
O951 O 0.11338 0.76463 0.71135 0.0
O952 O 0.12931 0.78071 0.67057 0.0
N953 N 0.12052 0.87067 0.70561 0.0
C954 C 0.10212 0.87773 0.72226 0.0
C955 C 0.08892 0.89525 0.7109 0.0
C956 C 0.09481 0.9054 0.68266 0.0
C957 C 0.11405 0.89813 0.66623 0.0
C958 C 0.12674 0.88078 0.6789 0.0
H959 H 0.09742 0.86996 0.74392 0.0
O960 O 0.09226 0.80717 0.68825 0.0
O961 O 0.12421 0.82603 0.69287 0.0
O962 O 0.10899 0.80828 0.75081 0.0
O963 O 0.12598 0.84134 0.75531 0.0
C964 C 0.12098 0.90724 0.6376 0.0
C965 C 0.14036 0.89887 0.62214 0.0
H966 H 0.17815 0.87813 0.59884 0.0
H967 H 0.19796 0.84686 0.62436 0.0
H968 H 0.07413 0.90082 0.72377 0.0
H969 H 0.08443 0.91874 0.67378 0.0
H970 H 0.11142 0.92058 0.62715 0.0
H971 H 0.1454 0.90589 0.60001 0.0
Mn972 Mn 0.96223 0.38236 0.4728 0.0
Mn973 Mn 0.0086 0.37174 0.51682 0.0
C974 C 0.99583 0.37154 0.44964 0.0
C975 C 0.92901 0.3706 0.44877 0.0
C976 C 0.99287 0.41785 0.5007 0.0
O977 O 0.94877 0.37902 0.51609 0.0
O978 O 0.98052 0.37027 0.54299 0.0
C979 C -0.00117 0.32514 0.53171 0.0
N980 N 0.01296 0.34062 0.51936 0.0
C981 C 0.04043 0.31306 0.50477 0.0
C982 C 0.02627 0.29686 0.51757 0.0
C983 C 0.00537 0.30293 0.53106 0.0
C984 C 0.03313 0.33496 0.50637 0.0
H985 H 0.98265 0.32967 0.54186 0.0
C986 C 0.95888 0.37325 0.54111 0.0
O987 O 0.93235 0.39133 0.45444 0.0
O988 O 0.94445 0.35683 0.45803 0.0
N989 N 0.03672 0.37207 0.49411 0.0
C990 C 0.04773 0.38949 0.481 0.0
C991 C 0.06858 0.38608 0.46564 0.0
C992 C 0.07791 0.36485 0.46395 0.0
C993 C 0.06636 0.34721 0.47781 0.0
C994 C 0.04577 0.35163 0.49312 0.0
H995 H 0.04056 0.40581 0.48192 0.0
O996 O 0.98047 0.38194 0.43369 0.0
O997 O 0.99094 0.36755 0.47862 0.0
O998 O 0.97575 0.4121 0.48431 0.0
O999 O 0.00594 0.40416 0.51457 0.0
C1000 C 0.07421 0.32534 0.47639 0.0
C1001 C 0.06126 0.30828 0.48985 0.0
H1002 H 0.03114 0.27969 0.51687 0.0
H1003 H 0.99426 0.2905 0.54079 0.0
H1004 H 0.07734 0.39977 0.4549 0.0
H1005 H 0.09384 0.36224 0.45172 0.0
H1006 H 0.09003 0.32141 0.46459 0.0
H1007 H 0.06732 0.29149 0.48822 0.0
Mn1008 Mn 0.37269 0.78412 0.288 0.0
Mn1009 Mn 0.35457 0.83677 0.28634 0.0
C1010 C 0.39205 0.81049 0.3156 0.0
C1011 C 0.3713 0.74916 0.30968 0.0
C1012 C 0.38136 0.81555 0.23378 0.0
O1013 O 0.3407 0.78159 0.2708 0.0
O1014 O 0.32912 0.81681 0.27436 0.0
C1015 C 0.32159 0.83451 0.33847 0.0
N1016 N 0.3405 0.84362 0.32533 0.0
C1017 C 0.34597 0.86741 0.36951 0.0
C1018 C 0.32647 0.85839 0.38339 0.0
C1019 C 0.31425 0.84185 0.36781 0.0
C1020 C 0.35241 0.85951 0.34016 0.0
H1021 H 0.31224 0.82167 0.32672 0.0
C1022 C 0.32545 0.79644 0.26856 0.0
O1023 O 0.37853 0.75224 0.28142 0.0
O1024 O 0.36408 0.76627 0.32478 0.0
N1025 N 0.37731 0.8578 0.29802 0.0
C1026 C 0.3959 0.86463 0.28162 0.0
C1027 C 0.41003 0.88106 0.29408 0.0
C1028 C 0.40484 0.8904 0.32315 0.0
C1029 C 0.38539 0.88341 0.33932 0.0
C1030 C 0.37177 0.86718 0.32555 0.0
H1031 H 0.40004 0.85751 0.2593 0.0
O1032 O 0.40192 0.79207 0.30853 0.0
O1033 O 0.37095 0.81275 0.30689 0.0
O1034 O 0.38419 0.79695 0.24696 0.0
O1035 O 0.3697 0.83119 0.2458 0.0
C1036 C 0.37913 0.89172 0.36873 0.0
C1037 C 0.35946 0.88369 0.38384 0.0
H1038 H 0.32081 0.86392 0.4061 0.0
H1039 H 0.29924 0.83473 0.37845 0.0
H1040 H 0.42498 0.88642 0.28141 0.0
H1041 H 0.41593 0.90287 0.33287 0.0
H1042 H 0.38942 0.90415 0.38006 0.0
H1043 H 0.35494 0.89007 0.40658 0.0
Mn1044 Mn 0.98126 0.61829 0.01933 0.0
Mn1045 Mn 0.02443 0.61266 0.96804 0.0
C1046 C 0.0183 0.61913 0.03672 0.0
C1047 C 0.95558 0.64095 0.04537 0.0
C1048 C 0.99764 0.57415 0.99384 0.0
O1049 O 0.96559 0.62286 0.97772 0.0
O1050 O 0.99578 0.62074 0.94551 0.0
C1051 C 0.02754 0.6591 0.94779 0.0
N1052 N 0.03753 0.64092 0.96035 0.0
C1053 C 0.07314 0.66 0.96691 0.0
C1054 C 0.0633 0.67886 0.95377 0.0
C1055 C 0.04039 0.6784 0.94421 0.0
C1056 C 0.05956 0.64117 0.96962 0.0
H1057 H 0.00989 0.65891 0.94067 0.0
C1058 C 0.97449 0.62398 0.95069 0.0
O1059 O 0.95162 0.62004 0.04223 0.0
O1060 O 0.97378 0.64862 0.03222 0.0
N1061 N 0.05318 0.60535 0.98652 0.0
C1062 C 0.0598 0.58614 0.00014 0.0
C1063 C 0.08206 0.58414 0.01188 0.0
C1064 C 0.09732 0.60182 0.0093 0.0
C1065 C 0.09022 0.62132 0.99482 0.0
C1066 C 0.06789 0.6223 0.98332 0.0
H1067 H 0.04813 0.57251 0.00236 0.0
O1068 O 0.00166 0.61521 0.05576 0.0
O1069 O 0.0127 0.62341 0.00797 0.0
O1070 O 0.98429 0.58529 0.01126 0.0
O1071 O 0.01246 0.58278 0.97574 0.0
C1072 C 0.10429 0.63997 0.99193 0.0
C1073 C 0.09575 0.6593 0.978 0.0
H1074 H 0.0731 0.69383 0.9512 0.0
H1075 H 0.03263 0.69293 0.93424 0.0
H1076 H 0.0874 0.56904 0.02304 0.0
H1077 H 0.1144 0.6003 0.01867 0.0
H1078 H 0.12161 0.63972 0.0007 0.0
H1079 H 0.10665 0.67362 0.97625 0.0
Mn1080 Mn 0.13195 0.20271 0.79882 0.0
Mn1081 Mn 0.15292 0.15103 0.80101 0.0
C1082 C 0.11194 0.17539 0.82346 0.0
C1083 C 0.12923 0.23781 0.82037 0.0
C1084 C 0.12944 0.17033 0.74421 0.0
O1085 O 0.16507 0.20692 0.78727 0.0
O1086 O 0.178 0.17216 0.79191 0.0
C1087 C 0.18179 0.15567 0.85724 0.0
N1088 N 0.16443 0.14545 0.84194 0.0
C1089 C 0.15687 0.12219 0.88608 0.0
C1090 C 0.17478 0.13236 0.9022 0.0
C1091 C 0.18728 0.14918 0.88772 0.0
C1092 C 0.15229 0.12923 0.85567 0.0
H1093 H 0.19133 0.16876 0.84635 0.0
C1094 C 0.1811 0.19274 0.78701 0.0
O1095 O 0.12478 0.23433 0.79112 0.0
O1096 O 0.13605 0.2211 0.83662 0.0
N1097 N 0.13056 0.12905 0.81029 0.0
C1098 C 0.11345 0.12125 0.79186 0.0
C1099 C 0.09917 0.10451 0.80308 0.0
C1100 C 0.10266 0.09591 0.83305 0.0
C1101 C 0.1206 0.10394 0.8514 0.0
C1102 C 0.13449 0.12042 0.83881 0.0
H1103 H 0.11058 0.12786 0.76887 0.0
O1104 O 0.10164 0.19313 0.81436 0.0
O1105 O 0.13375 0.17434 0.81838 0.0
O1106 O 0.12501 0.18906 0.75623 0.0
O1107 O 0.14052 0.15526 0.7585 0.0
C1108 C 0.12504 0.09645 0.88185 0.0
C1109 C 0.14314 0.10559 0.89919 0.0
H1110 H 0.17897 0.12751 0.92579 0.0
H1111 H 0.20105 0.1572 0.90007 0.0
H1112 H 0.08538 0.09838 0.78876 0.0
H1113 H 0.09142 0.0832 0.84178 0.0
H1114 H 0.1145 0.08382 0.89226 0.0
H1115 H 0.14624 0.09986 0.92269 0.0
Mn1116 Mn 0.50219 0.36727 0.51977 0.0
Mn1117 Mn 0.45852 0.36888 0.46875 0.0
C1118 C 0.46551 0.36926 0.53788 0.0
C1119 C 0.52774 0.34631 0.54866 0.0
C1120 C 0.48608 0.40906 0.48679 0.0
O1121 O 0.51713 0.35837 0.47945 0.0
O1122 O 0.48708 0.35935 0.44699 0.0
C1123 C 0.45586 0.32107 0.45623 0.0
N1124 N 0.44572 0.34005 0.46589 0.0
C1125 C 0.41039 0.32124 0.47591 0.0
C1126 C 0.4204 0.30154 0.46582 0.0
C1127 C 0.44324 0.30147 0.45598 0.0
C1128 C 0.42375 0.34031 0.47541 0.0
H1129 H 0.47346 0.32087 0.44886 0.0
C1130 C 0.50826 0.35584 0.45267 0.0
O1131 O 0.53222 0.36672 0.54197 0.0
O1132 O 0.50889 0.33823 0.53794 0.0
N1133 N 0.42976 0.37735 0.48621 0.0
C1134 C 0.42295 0.39747 0.49669 0.0
C1135 C 0.40071 0.40019 0.50816 0.0
C1136 C 0.38564 0.38226 0.50857 0.0
C1137 C 0.39293 0.36178 0.49735 0.0
C1138 C 0.41524 0.36009 0.48595 0.0
H1139 H 0.43451 0.41124 0.49681 0.0
O1140 O 0.48255 0.3745 0.55562 0.0
O1141 O 0.4705 0.36187 0.51017 0.0
O1142 O 0.5 0.39925 0.50504 0.0
O1143 O 0.47033 0.39918 0.47164 0.0
C1144 C 0.37908 0.34287 0.49767 0.0
C1145 C 0.38781 0.32261 0.48697 0.0
H1146 H 0.41077 0.28635 0.4658 0.0
H1147 H 0.45113 0.28631 0.44834 0.0
H1148 H 0.39524 0.41604 0.51687 0.0
H1149 H 0.36857 0.38437 0.51775 0.0
H1150 H 0.36178 0.34366 0.50644 0.0
H1151 H 0.37708 0.30813 0.48765 0.0
H1152 H 0.09781 0.1636 0.46269 0.0
H1153 H 0.08183 0.10735 0.40552 0.0
H1154 H 0.11808 0.18037 0.41904 0.0
H1155 H 0.10126 0.12466 0.36125 0.0
H1156 H 0.08737 0.19576 0.30449 0.0
H1157 H 0.08249 0.16507 0.34049 0.0
H1158 H 0.15148 0.1738 0.3731 0.0
H1159 H 0.15682 0.2037 0.33547 0.0
C1160 C 0.09949 0.15447 0.44114 0.0
C1161 C 0.08842 0.13423 0.43736 0.0
C1162 C 0.11106 0.16401 0.4162 0.0
C1163 C 0.11112 0.15374 0.38692 0.0
C1164 C 0.10157 0.13272 0.38375 0.0
C1165 C 0.09058 0.12284 0.40905 0.0
C1166 C 0.10192 0.19016 0.31784 0.0
C1167 C 0.1227 0.20148 0.31647 0.0
C1168 C 0.09911 0.17273 0.3386 0.0
C1169 C 0.11672 0.16703 0.35926 0.0
C1170 C 0.13783 0.17772 0.35702 0.0
C1171 C 0.14083 0.19479 0.33565 0.0
H1172 H 0.0223 0.85077 0.53449 0.0
H1173 H 0.01485 0.91373 0.57952 0.0
H1174 H 0.05554 0.84278 0.56675 0.0
H1175 H 0.04744 0.90515 0.61334 0.0
H1176 H 0.11904 0.83783 0.62698 0.0
H1177 H 0.09789 0.85859 0.58722 0.0
H1178 H 0.0432 0.86909 0.65284 0.0
H1179 H 0.06393 0.84773 0.69197 0.0
C1180 C 0.02852 0.86334 0.5502 0.0
C1181 C 0.01663 0.88317 0.55381 0.0
C1182 C 0.04741 0.85872 0.56881 0.0
C1183 C 0.05405 0.87348 0.59224 0.0
C1184 C 0.04275 0.89372 0.59508 0.0
C1185 C 0.02417 0.89856 0.57588 0.0
C1186 C 0.10283 0.84525 0.63304 0.0
C1187 C 0.09316 0.84172 0.66251 0.0
C1188 C 0.09081 0.85704 0.61041 0.0
C1189 C 0.06915 0.86559 0.61726 0.0
C1190 C 0.06009 0.86301 0.6473 0.0
C1191 C 0.07183 0.85076 0.66957 0.0
H1192 H 0.46509 0.80443 0.93746 0.0
H1193 H 0.42261 0.86131 0.92066 0.0
H1194 H 0.44345 0.78367 0.8994 0.0
H1195 H 0.40088 0.84031 0.88187 0.0
H1196 H 0.35443 0.78188 0.84389 0.0
H1197 H 0.37457 0.80733 0.87869 0.0
H1198 H 0.439 0.78412 0.84247 0.0
H1199 H 0.41886 0.75839 0.8087 0.0
C1200 C 0.45106 0.81251 0.92567 0.0
C1201 C 0.44561 0.83455 0.93198 0.0
C1202 C 0.43879 0.80065 0.90362 0.0
C1203 C 0.42075 0.81049 0.88727 0.0
C1204 C 0.41475 0.83235 0.89414 0.0
C1205 C 0.42715 0.84432 0.91631 0.0
C1206 C 0.37288 0.78267 0.84307 0.0
C1207 C 0.38518 0.76873 0.82318 0.0
C1208 C 0.38438 0.79722 0.86282 0.0
C1209 C 0.40834 0.7976 0.86341 0.0
C1210 C 0.42052 0.78403 0.84276 0.0
C1211 C 0.40905 0.76955 0.82312 0.0
H1212 H 0.37832 0.18884 0.11799 0.0
H1213 H 0.43272 0.17663 0.18339 0.0
H1214 H 0.39834 0.16664 0.07857 0.0
H1215 H 0.45234 0.15397 0.14453 0.0
H1216 H 0.47039 0.09953 0.07783 0.0
H1217 H 0.44049 0.1159 0.11034 0.0
H1218 H 0.44346 0.17526 0.05556 0.0
H1219 H 0.47405 0.1593 0.02405 0.0
C1220 C 0.39431 0.18096 0.124 0.0
C1221 C 0.40385 0.18374 0.15373 0.0
C1222 C 0.40567 0.16841 0.1016 0.0
C1223 C 0.42651 0.15838 0.10896 0.0
C1224 C 0.43599 0.16122 0.13871 0.0
C1225 C 0.42492 0.17416 0.16078 0.0
C1226 C 0.46402 0.11577 0.07216 0.0
C1227 C 0.47394 0.12801 0.04804 0.0
C1228 C 0.44701 0.12506 0.09064 0.0
C1229 C 0.43977 0.14669 0.08515 0.0
C1230 C 0.44859 0.1584 0.05975 0.0
C1231 C 0.4659 0.14924 0.04164 0.0
H1232 H 0.07205 0.76423 0.18187 0.0
H1233 H 0.13785 0.78629 0.14984 0.0
H1234 H 0.0534 0.79109 0.14815 0.0
H1235 H 0.11917 0.81319 0.11551 0.0
H1236 H 0.03099 0.81302 0.05203 0.0
H1237 H 0.05228 0.79097 0.08896 0.0
H1238 H 0.0917 0.84785 0.11562 0.0
H1239 H 0.0701 0.87036 0.07819 0.0
C1240 C 0.08248 0.77529 0.16816 0.0
C1241 C 0.1063 0.77373 0.16893 0.0
C1242 C 0.07187 0.79046 0.14866 0.0
C1243 C 0.08488 0.80413 0.12918 0.0
C1244 C 0.10879 0.80299 0.13055 0.0
C1245 C 0.11943 0.78763 0.15 0.0
C1246 C 0.04427 0.82093 0.06553 0.0
C1247 C 0.04873 0.84351 0.06236 0.0
C1248 C 0.05636 0.80828 0.08685 0.0
C1249 C 0.0733 0.81781 0.10551 0.0
C1250 C 0.07861 0.84017 0.10152 0.0
C1251 C 0.06632 0.85299 0.08012 0.0
H1252 H 0.43247 0.83069 0.30766 0.0
H1253 H 0.37754 0.8219 0.37327 0.0
H1254 H 0.45366 0.852 0.34643 0.0
H1255 H 0.39917 0.84266 0.41267 0.0
H1256 H 0.47664 0.84158 0.46492 0.0
H1257 H 0.44408 0.82929 0.43382 0.0
H1258 H 0.44532 0.89037 0.38284 0.0
H1259 H 0.47726 0.90309 0.41503 0.0
C1260 C 0.42484 0.83375 0.33023 0.0
C1261 C 0.40326 0.82538 0.33742 0.0
C1262 C 0.43683 0.84592 0.35227 0.0
C1263 C 0.42776 0.84913 0.38217 0.0
C1264 C 0.40622 0.84061 0.38953 0.0
C1265 C 0.39394 0.82887 0.36712 0.0
C1266 C 0.46907 0.85283 0.44833 0.0
C1267 C 0.47884 0.8735 0.44291 0.0
C1268 C 0.4506 0.84578 0.43046 0.0
C1269 C 0.4423 0.85902 0.40623 0.0
C1270 C 0.45138 0.88008 0.40171 0.0
C1271 C 0.46957 0.88728 0.41998 0.0
H1272 H 0.42592 0.23798 0.68192 0.0
H1273 H 0.35873 0.21449 0.65838 0.0
H1274 H 0.44259 0.21351 0.64308 0.0
H1275 H 0.37538 0.19 0.61883 0.0
H1276 H 0.42257 0.13522 0.57201 0.0
H1277 H 0.40275 0.15667 0.61233 0.0
H1278 H 0.44048 0.21443 0.58491 0.0
H1279 H 0.46016 0.1933 0.54524 0.0
C1280 C 0.41481 0.22717 0.66881 0.0
C1281 C 0.39119 0.22754 0.67359 0.0
C1282 C 0.42427 0.21338 0.64635 0.0
C1283 C 0.41024 0.19994 0.62785 0.0
C1284 C 0.38657 0.20004 0.63298 0.0
C1285 C 0.37707 0.21402 0.65542 0.0
C1286 C 0.42632 0.15257 0.57437 0.0
C1287 C 0.44307 0.16253 0.55567 0.0
C1288 C 0.41503 0.1648 0.59741 0.0
C1289 C 0.42043 0.18708 0.60206 0.0
C1290 C 0.43637 0.19716 0.58233 0.0
C1291 C 0.44753 0.18505 0.55945 0.0
H1292 H 0.0728 0.15329 0.81294 0.0
H1293 H 0.12393 0.16624 0.88278 0.0
H1294 H 0.04958 0.13414 0.85172 0.0
H1295 H 0.10045 0.1475 0.92194 0.0
H1296 H 0.02483 0.1569 0.96947 0.0
H1297 H 0.05885 0.16355 0.93816 0.0
H1298 H 0.05008 0.1006 0.89332 0.0
H1299 H 0.01649 0.09351 0.92596 0.0
C1300 C 0.07927 0.15143 0.83643 0.0
C1301 C 0.1002 0.16066 0.84495 0.0
C1302 C 0.06615 0.14041 0.85849 0.0
C1303 C 0.07345 0.13923 0.8896 0.0
C1304 C 0.0947 0.14801 0.89796 0.0
C1305 C 0.10805 0.15865 0.87569 0.0
C1306 C 0.03094 0.14401 0.95418 0.0
C1307 C 0.01868 0.12441 0.95078 0.0
C1308 C 0.05028 0.14783 0.93618 0.0
C1309 C 0.05706 0.13245 0.91364 0.0
C1310 C 0.04523 0.11252 0.91088 0.0
C1311 C 0.02611 0.10852 0.92938 0.0
H1312 H 0.88967 0.85762 0.57082 0.0
H1313 H 0.95393 0.82466 0.58674 0.0
H1314 H 0.87132 0.83298 0.60889 0.0
H1315 H 0.93591 0.80082 0.62484 0.0
H1316 H 0.90345 0.7746 0.71092 0.0
H1317 H 0.91505 0.80626 0.67961 0.0
H1318 H 0.8665 0.7881 0.60863 0.0
H1319 H 0.85508 0.75623 0.63961 0.0
C1320 C 0.89983 0.84526 0.58255 0.0
C1321 C 0.92314 0.8429 0.57567 0.0
C1322 C 0.8894 0.83128 0.60427 0.0
C1323 C 0.90233 0.81526 0.61998 0.0
C1324 C 0.92565 0.81325 0.61339 0.0
C1325 C 0.93589 0.82676 0.59132 0.0
C1326 C 0.89481 0.77769 0.68905 0.0
C1327 C 0.8786 0.76281 0.67748 0.0
C1328 C 0.90147 0.79577 0.67115 0.0
C1329 C 0.89173 0.79945 0.6417 0.0
C1330 C 0.87415 0.78565 0.63134 0.0
C1331 C 0.86774 0.76737 0.64899 0.0
H1332 H 0.97346 0.10988 0.42091 0.0
H1333 H 0.99454 0.17245 0.45823 0.0
H1334 H 0.94588 0.12851 0.38704 0.0
H1335 H 0.96679 0.19115 0.42501 0.0
H1336 H 0.93927 0.21692 0.33277 0.0
H1337 H 0.96412 0.19723 0.36844 0.0
H1338 H 0.91004 0.15109 0.388 0.0
H1339 H 0.88503 0.17075 0.35174 0.0
C1340 C 0.97178 0.1276 0.42221 0.0
C1341 C 0.98544 0.13978 0.44271 0.0
C1342 C 0.95602 0.13823 0.40299 0.0
C1343 C 0.95418 0.16127 0.40341 0.0
C1344 C 0.96794 0.17339 0.42403 0.0
C1345 C 0.98356 0.16273 0.44332 0.0
C1346 C 0.93265 0.20252 0.34452 0.0
C1347 C 0.91017 0.19539 0.33946 0.0
C1348 C 0.94685 0.19136 0.36517 0.0
C1349 C 0.93894 0.17278 0.38125 0.0
C1350 C 0.9166 0.16533 0.37579 0.0
C1351 C 0.9023 0.17657 0.35509 0.0
H1352 H 0.5846 0.12618 0.09225 0.0
H1353 H 0.56881 0.18146 0.03297 0.0
H1354 H 0.60362 0.15101 0.12911 0.0
H1355 H 0.58797 0.20605 0.06928 0.0
H1356 H 0.63473 0.24414 0.13 0.0
H1357 H 0.6266 0.21444 0.09367 0.0
H1358 H 0.58599 0.18196 0.1637 0.0
H1359 H 0.59407 0.21181 0.20033 0.0
C1360 C 0.58579 0.14351 0.0867 0.0
C1361 C 0.57524 0.15199 0.05989 0.0
C1362 C 0.59648 0.15768 0.10785 0.0
C1363 C 0.59718 0.1804 0.10204 0.0
C1364 C 0.58786 0.18858 0.07421 0.0
C1365 C 0.57684 0.17453 0.05348 0.0
C1366 C 0.62436 0.23051 0.13791 0.0
C1367 C 0.61473 0.23047 0.16789 0.0
C1368 C 0.61975 0.21352 0.11706 0.0
C1369 C 0.60556 0.19603 0.12583 0.0
C1370 C 0.59713 0.1952 0.15646 0.0
C1371 C 0.60163 0.21233 0.17733 0.0
H1372 H 0.54348 0.90167 0.93217 0.0
H1373 H 0.5515 0.83464 0.96286 0.0
H1374 H 0.57599 0.89724 0.89687 0.0
H1375 H 0.58451 0.83043 0.92863 0.0
H1376 H 0.6443 0.82787 0.86601 0.0
H1377 H 0.62583 0.846 0.91041 0.0
H1378 H 0.57208 0.86876 0.84971 0.0
H1379 H 0.59001 0.84997 0.80588 0.0
C1380 C 0.55289 0.88633 0.93233 0.0
C1381 C 0.54549 0.86865 0.95071 0.0
C1382 C 0.57146 0.88385 0.91229 0.0
C1383 C 0.58283 0.8636 0.91034 0.0
C1384 C 0.57634 0.84637 0.93025 0.0
C1385 C 0.55752 0.84875 0.94989 0.0
C1386 C 0.62915 0.83768 0.862 0.0
C1387 C 0.61849 0.83767 0.83272 0.0
C1388 C 0.61855 0.84788 0.88737 0.0
C1389 C 0.59757 0.85867 0.88338 0.0
C1390 C 0.58838 0.86075 0.85331 0.0
C1391 C 0.59861 0.85004 0.82823 0.0
H1392 H 0.85055 0.24664 0.86269 0.0
H1393 H 0.90136 0.23036 0.79359 0.0
H1394 H 0.86439 0.21673 0.8958 0.0
H1395 H 0.91544 0.20074 0.82707 0.0
H1396 H 0.95387 0.18511 0.92127 0.0
H1397 H 0.93491 0.20812 0.88282 0.0
H1398 H 0.87231 0.17218 0.89655 0.0
H1399 H 0.89158 0.14844 0.93487 0.0
C1400 C 0.86433 0.23635 0.85429 0.0
C1401 C 0.87501 0.2409 0.82568 0.0
C1402 C 0.87216 0.21921 0.87318 0.0
C1403 C 0.89104 0.20661 0.86401 0.0
C1404 C 0.90087 0.21033 0.83463 0.0
C1405 C 0.89277 0.22719 0.81546 0.0
C1406 C 0.93605 0.18205 0.9162 0.0
C1407 C 0.92416 0.16503 0.9312 0.0
C1408 C 0.92529 0.1951 0.89394 0.0
C1409 C 0.90227 0.19173 0.88654 0.0
C1410 C 0.89014 0.17496 0.9018 0.0
C1411 C 0.90112 0.16148 0.92369 0.0
H1412 H 0.6389 0.17371 0.62536 0.0
H1413 H 0.58344 0.15132 0.68315 0.0
H1414 H 0.62203 0.15475 0.58043 0.0
H1415 H 0.56714 0.13169 0.63888 0.0
H1416 H 0.54192 0.09663 0.55664 0.0
H1417 H 0.57378 0.10237 0.59267 0.0
H1418 H 0.58033 0.16917 0.56006 0.0
H1419 H 0.54791 0.16367 0.52515 0.0
C1420 C 0.6238 0.16374 0.62876 0.0
C1421 C 0.61236 0.16384 0.65747 0.0
C1422 C 0.61415 0.15303 0.60312 0.0
C1423 C 0.59336 0.14182 0.60634 0.0
C1424 C 0.58334 0.14 0.63593 0.0
C1425 C 0.5926 0.15122 0.66123 0.0
C1426 C 0.55081 0.11225 0.55643 0.0
C1427 C 0.54298 0.12958 0.5377 0.0
C1428 C 0.569 0.11547 0.57686 0.0
C1429 C 0.57955 0.1361 0.57883 0.0
C1430 C 0.57278 0.15295 0.55843 0.0
C1431 C 0.55431 0.14983 0.53841 0.0
H1432 H 0.60306 0.77778 0.29512 0.0
H1433 H 0.64055 0.74837 0.37112 0.0
H1434 H 0.59411 0.80945 0.32825 0.0
H1435 H 0.63161 0.77985 0.40391 0.0
H1436 H 0.57215 0.81469 0.45812 0.0
H1437 H 0.59192 0.78885 0.42429 0.0
H1438 H 0.61009 0.84189 0.36229 0.0
H1439 H 0.59042 0.86805 0.39677 0.0
C1440 C 0.60986 0.77832 0.31856 0.0
C1441 C 0.62216 0.76043 0.33068 0.0
C1442 C 0.60482 0.79648 0.33746 0.0
C1443 C 0.61195 0.79692 0.36873 0.0
C1444 C 0.62568 0.77978 0.38001 0.0
C1445 C 0.63077 0.76176 0.36118 0.0
C1446 C 0.58077 0.82092 0.43763 0.0
C1447 C 0.5798 0.84332 0.43003 0.0
C1448 C 0.59216 0.80615 0.41831 0.0
C1449 C 0.60253 0.81339 0.39067 0.0
C1450 C 0.6022 0.83593 0.38346 0.0
C1451 C 0.59112 0.85086 0.40325 0.0
H1452 H 0.85421 0.81974 0.134 0.0
H1453 H 0.91158 0.83687 0.19203 0.0
H1454 H 0.87054 0.84136 0.09111 0.0
H1455 H 0.9273 0.8592 0.14989 0.0
H1456 H 0.94694 0.90355 0.07218 0.0
H1457 H 0.91668 0.89321 0.10869 0.0
H1458 H 0.91383 0.82867 0.06723 0.0
H1459 H 0.94486 0.83864 0.03194 0.0
C1460 C 0.8697 0.82901 0.138 0.0
C1461 C 0.88171 0.82683 0.16614 0.0
C1462 C 0.87903 0.84124 0.11352 0.0
C1463 C 0.90004 0.85193 0.11742 0.0
C1464 C 0.91091 0.85131 0.14654 0.0
C1465 C 0.90198 0.83857 0.17059 0.0
C1466 C 0.93918 0.88745 0.07017 0.0
C1467 C 0.94769 0.87204 0.04879 0.0
C1468 C 0.9219 0.88161 0.09091 0.0
C1469 C 0.91287 0.86028 0.09042 0.0
C1470 C 0.92022 0.84537 0.06753 0.0
C1471 C 0.93784 0.85109 0.04723 0.0
H1472 H 0.57632 0.64353 0.91668 0.0
H1473 H 0.53121 0.69772 0.93794 0.0
H1474 H 0.59673 0.66671 0.87939 0.0
H1475 H 0.55174 0.72083 0.90125 0.0
H1476 H 0.57604 0.74938 0.81064 0.0
H1477 H 0.55649 0.72337 0.84473 0.0
H1478 H 0.62162 0.69974 0.87802 0.0
H1479 H 0.64107 0.7255 0.84311 0.0
C1480 C 0.57094 0.66043 0.91367 0.0
C1481 C 0.55214 0.6688 0.93019 0.0
C1482 C 0.58261 0.67368 0.89235 0.0
C1483 C 0.57565 0.69549 0.88715 0.0
C1484 C 0.5572 0.70395 0.90425 0.0
C1485 C 0.54558 0.69076 0.92551 0.0
C1486 C 0.58608 0.73815 0.82462 0.0
C1487 C 0.60995 0.73879 0.82366 0.0
C1488 C 0.57496 0.72352 0.84447 0.0
C1489 C 0.58754 0.70958 0.86416 0.0
C1490 C 0.61149 0.71008 0.86285 0.0
C1491 C 0.6226 0.72479 0.84301 0.0
H1492 H 0.57009 0.34086 0.1965 0.0
H1493 H 0.62854 0.32593 0.13932 0.0
H1494 H 0.55491 0.36451 0.15534 0.0
H1495 H 0.61288 0.34898 0.09746 0.0
H1496 H 0.53978 0.34587 0.03661 0.0
H1497 H 0.56989 0.33573 0.07302 0.0
H1498 H 0.56598 0.40002 0.11511 0.0
H1499 H 0.53681 0.41074 0.0769 0.0
C1500 C 0.58001 0.34332 0.17549 0.0
C1501 C 0.60059 0.33208 0.17109 0.0
C1502 C 0.57144 0.35688 0.15209 0.0
C1503 C 0.5829 0.35861 0.1235 0.0
C1504 C 0.60401 0.34809 0.11955 0.0
C1505 C 0.61289 0.33498 0.14337 0.0
C1506 C 0.54643 0.35829 0.05222 0.0
C1507 C 0.53671 0.37933 0.05319 0.0
C1508 C 0.5635 0.35245 0.07322 0.0
C1509 C 0.57034 0.36724 0.09648 0.0
C1510 C 0.56119 0.38855 0.09694 0.0
C1511 C 0.54453 0.3946 0.07528 0.0
H1512 H 0.90247 0.29502 0.3015 0.0
H1513 H 0.83671 0.28712 0.34494 0.0
H1514 H 0.90959 0.32758 0.33331 0.0
H1515 H 0.84432 0.31912 0.3781 0.0
H1516 H 0.90211 0.33525 0.45848 0.0
H1517 H 0.87957 0.31612 0.4191 0.0
H1518 H 0.89369 0.36792 0.35323 0.0
H1519 H 0.91555 0.3876 0.39331 0.0
C1520 C 0.88909 0.30095 0.31673 0.0
C1521 C 0.86877 0.28909 0.32015 0.0
C1522 C 0.89319 0.31949 0.33506 0.0
C1523 C 0.8774 0.32587 0.35796 0.0
C1524 C 0.85658 0.31464 0.36032 0.0
C1525 C 0.85229 0.29638 0.34149 0.0
C1526 C 0.89946 0.34301 0.43606 0.0
C1527 C 0.91038 0.36284 0.42882 0.0
C1528 C 0.88656 0.33213 0.41356 0.0
C1529 C 0.88498 0.34061 0.38321 0.0
C1530 C 0.89457 0.36122 0.37658 0.0
C1531 C 0.90694 0.37246 0.39947 0.0
H1532 H 0.93073 0.65552 0.69415 0.0
H1533 H 0.87776 0.6697 0.62742 0.0
H1534 H 0.95228 0.63588 0.65404 0.0
H1535 H 0.8997 0.65059 0.58679 0.0
H1536 H 0.97506 0.65714 0.53542 0.0
H1537 H 0.94212 0.66537 0.56831 0.0
H1538 H 0.94877 0.60198 0.61248 0.0
H1539 H 0.98117 0.59335 0.57838 0.0
C1540 C 0.92348 0.65382 0.67106 0.0
C1541 C 0.90249 0.66351 0.66384 0.0
C1542 C 0.93569 0.64257 0.64821 0.0
C1543 C 0.92746 0.64163 0.61753 0.0
C1544 C 0.90617 0.65092 0.61042 0.0
C1545 C 0.89368 0.66174 0.63355 0.0
C1546 C 0.96866 0.64454 0.55094 0.0
C1547 C 0.98001 0.62435 0.55372 0.0
C1548 C 0.94994 0.64926 0.56984 0.0
C1549 C 0.94291 0.63419 0.59263 0.0
C1550 C 0.95379 0.61369 0.59476 0.0
C1551 C 0.97225 0.60882 0.57541 0.0
H1552 H 0.56506 0.35921 0.58304 0.0
H1553 H 0.52347 0.30281 0.56031 0.0
H1554 H 0.58681 0.33663 0.62006 0.0
H1555 H 0.54512 0.28051 0.59651 0.0
H1556 H 0.56905 0.25153 0.68543 0.0
H1557 H 0.54897 0.27828 0.65321 0.0
H1558 H 0.6135 0.30388 0.62093 0.0
H1559 H 0.63357 0.27735 0.65422 0.0
C1560 C 0.56073 0.34201 0.5857 0.0
C1561 C 0.54248 0.33281 0.56895 0.0
C1562 C 0.57313 0.32913 0.60685 0.0
C1563 C 0.56738 0.30693 0.61153 0.0
C1564 C 0.54959 0.2977 0.59401 0.0
C1565 C 0.53729 0.31047 0.57304 0.0
C1566 C 0.57888 0.26335 0.67218 0.0
C1567 C 0.60274 0.26295 0.67287 0.0
C1568 C 0.56744 0.27844 0.65342 0.0
C1569 C 0.57969 0.29307 0.63439 0.0
C1570 C 0.60364 0.29297 0.6356 0.0
C1571 C 0.6151 0.2778 0.65446 0.0
H1572 H 0.97217 0.40589 0.92494 0.0
H1573 H 0.9639 0.33949 0.95819 0.0
H1574 H 0.93972 0.4007 0.88938 0.0
H1575 H 0.93093 0.33472 0.92429 0.0
H1576 H 0.92057 0.34945 0.8025 0.0
H1577 H 0.94174 0.36875 0.8433 0.0
H1578 H 0.88903 0.35272 0.90966 0.0
H1579 H 0.86757 0.33388 0.86852 0.0
C1580 C 0.96281 0.39055 0.92546 0.0
C1581 C 0.96982 0.37332 0.94497 0.0
C1582 C 0.94431 0.38765 0.90537 0.0
C1583 C 0.93268 0.36752 0.90476 0.0
C1584 C 0.93926 0.35061 0.92508 0.0
C1585 C 0.95801 0.35334 0.94454 0.0
C1586 C 0.91315 0.35091 0.82552 0.0
C1587 C 0.89242 0.34066 0.83251 0.0
C1588 C 0.9251 0.36203 0.84872 0.0
C1589 C 0.91682 0.36225 0.87938 0.0
C1590 C 0.89549 0.35295 0.88602 0.0
C1591 C 0.88331 0.34223 0.86262 0.0
H1592 H 0.96095 0.68471 0.055 0.0
H1593 H 0.91882 0.62958 0.08174 0.0
H1594 H 0.94119 0.70789 0.09231 0.0
H1595 H 0.89894 0.65307 0.1195 0.0
H1596 H 0.92183 0.73615 0.1853 0.0
H1597 H 0.93975 0.70943 0.15053 0.0
H1598 H 0.87323 0.68733 0.12069 0.0
H1599 H 0.85537 0.71403 0.156 0.0
C1600 C 0.94733 0.67755 0.06868 0.0
C1601 C 0.94151 0.65527 0.0655 0.0
C1602 C 0.93615 0.69082 0.09026 0.0
C1603 C 0.91881 0.68218 0.10914 0.0
C1604 C 0.91229 0.66011 0.10522 0.0
C1605 C 0.92363 0.64671 0.08362 0.0
C1606 C 0.91112 0.72513 0.17192 0.0
C1607 C 0.88732 0.72655 0.17385 0.0
C1608 C 0.92131 0.71007 0.15176 0.0
C1609 C 0.90785 0.69638 0.13283 0.0
C1610 C 0.88398 0.69752 0.13525 0.0
C1611 C 0.87379 0.71275 0.15531 0.0
H1612 H 0.56447 0.6562 0.31087 0.0
H1613 H 0.62071 0.66724 0.37368 0.0
H1614 H 0.54453 0.63547 0.35145 0.0
H1615 H 0.60039 0.64708 0.41483 0.0
H1616 H 0.52086 0.5881 0.42446 0.0
H1617 H 0.55234 0.5988 0.39003 0.0
H1618 H 0.55709 0.6612 0.43734 0.0
H1619 H 0.52492 0.65101 0.47046 0.0
C1620 C 0.5727 0.6537 0.33318 0.0
C1621 C 0.59424 0.66265 0.33911 0.0
C1622 C 0.56143 0.64182 0.35626 0.0
C1623 C 0.57118 0.63951 0.38595 0.0
C1624 C 0.5928 0.64842 0.3919 0.0
C1625 C 0.60434 0.65984 0.36849 0.0
C1626 C 0.52925 0.60375 0.42816 0.0
C1627 C 0.52099 0.61854 0.45058 0.0
C1628 C 0.54718 0.60981 0.40858 0.0
C1629 C 0.55709 0.63069 0.41136 0.0
C1630 C 0.54995 0.64484 0.43526 0.0
C1631 C 0.5317 0.63896 0.45436 0.0
H1632 H 0.46545 0.33148 0.08577 0.0
H1633 H 0.40679 0.36854 0.05478 0.0
H1634 H 0.44193 0.31238 0.12362 0.0
H1635 H 0.38284 0.34865 0.09265 0.0
H1636 H 0.35813 0.27446 0.12834 0.0
H1637 H 0.37372 0.30436 0.09691 0.0
H1638 H 0.41707 0.32344 0.17345 0.0
H1639 H 0.40138 0.29374 0.20512 0.0
C1640 C 0.44747 0.33551 0.08702 0.0
C1641 C 0.43788 0.35136 0.0672 0.0
C1642 C 0.43408 0.32475 0.10895 0.0
C1643 C 0.41069 0.32929 0.11125 0.0
C1644 C 0.40092 0.34508 0.09141 0.0
C1645 C 0.41454 0.35633 0.06979 0.0
C1646 C 0.37041 0.28551 0.13884 0.0
C1647 C 0.37886 0.28154 0.16898 0.0
C1648 C 0.37921 0.30268 0.12088 0.0
C1649 C 0.39674 0.31594 0.13272 0.0
C1650 C 0.40362 0.31329 0.16384 0.0
C1651 C 0.39461 0.29632 0.18194 0.0
H1652 H 0.45692 0.59937 0.92191 0.0
H1653 H 0.44739 0.6627 0.96511 0.0
H1654 H 0.42424 0.60637 0.88779 0.0
H1655 H 0.41431 0.66945 0.93181 0.0
H1656 H 0.40862 0.65875 0.80495 0.0
H1657 H 0.42729 0.63784 0.84615 0.0
H1658 H 0.37377 0.65616 0.91017 0.0
H1659 H 0.35459 0.67656 0.86826 0.0
C1660 C 0.44716 0.61435 0.92498 0.0
C1661 C 0.45423 0.63032 0.9465 0.0
C1662 C 0.42851 0.61831 0.90557 0.0
C1663 C 0.41674 0.63838 0.90731 0.0
C1664 C 0.42282 0.65367 0.93042 0.0
C1665 C 0.44169 0.64982 0.94953 0.0
C1666 C 0.40033 0.6574 0.82742 0.0
C1667 C 0.38021 0.66906 0.83356 0.0
C1668 C 0.41095 0.64545 0.85099 0.0
C1669 C 0.40196 0.64548 0.88132 0.0
C1670 C 0.38093 0.65584 0.88691 0.0
C1671 C 0.36993 0.66735 0.86298 0.0
H1672 H 0.13736 0.75595 0.62464 0.0
H1673 H 0.10169 0.72375 0.69994 0.0
H1674 H 0.12903 0.725 0.59057 0.0
H1675 H 0.09343 0.69259 0.66554 0.0
H1676 H 0.09177 0.63534 0.59429 0.0
H1677 H 0.11094 0.66143 0.62942 0.0
H1678 H 0.08884 0.71521 0.57113 0.0
H1679 H 0.0695 0.68943 0.53674 0.0
C1680 C 0.12812 0.74208 0.63414 0.0
C1681 C 0.11983 0.74245 0.66485 0.0
C1682 C 0.1234 0.72436 0.61458 0.0
C1683 C 0.11043 0.70655 0.62536 0.0
C1684 C 0.10359 0.70609 0.65674 0.0
C1685 C 0.10821 0.72396 0.67635 0.0
C1686 C 0.09151 0.65271 0.58876 0.0
C1687 C 0.0792 0.66046 0.56291 0.0
C1688 C 0.10229 0.66758 0.6089 0.0
C1689 C 0.10136 0.69028 0.60292 0.0
C1690 C 0.09004 0.69779 0.57613 0.0
C1691 C 0.07891 0.68306 0.55651 0.0
H1692 H 0.0262 0.38836 0.40815 0.0
H1693 H 0.00445 0.32813 0.4519 0.0
H1694 H 0.05294 0.36754 0.37546 0.0
H1695 H 0.03146 0.3074 0.42025 0.0
H1696 H 0.11105 0.32117 0.34016 0.0
H1697 H 0.08819 0.34367 0.37596 0.0
H1698 H 0.03166 0.29886 0.36466 0.0
H1699 H 0.0543 0.27644 0.32973 0.0
C1700 C 0.0276 0.37073 0.41117 0.0
C1701 C 0.01391 0.3598 0.43299 0.0
C1702 C 0.0429 0.35886 0.39267 0.0
C1703 C 0.04424 0.33586 0.39529 0.0
C1704 C 0.03066 0.32508 0.41751 0.0
C1705 C 0.01545 0.33693 0.43591 0.0
C1706 C 0.09372 0.31624 0.34533 0.0
C1707 C 0.08451 0.297 0.33231 0.0
C1708 C 0.08066 0.3291 0.36573 0.0
C1709 C 0.05828 0.32282 0.37339 0.0
C1710 C 0.04904 0.30384 0.35978 0.0
C1711 C 0.06199 0.29108 0.33955 0.0
H1712 H 0.39232 0.63465 0.43402 0.0
H1713 H 0.45259 0.6742 0.41951 0.0
H1714 H 0.37154 0.65749 0.39596 0.0
H1715 H 0.43218 0.69623 0.3813 0.0
H1716 H 0.39792 0.71472 0.29168 0.0
H1717 H 0.41059 0.6843 0.32458 0.0
H1718 H 0.36459 0.70529 0.39709 0.0
H1719 H 0.35212 0.73607 0.36453 0.0
C1720 C 0.40108 0.64811 0.42268 0.0
C1721 C 0.42398 0.65278 0.42982 0.0
C1722 C 0.38927 0.66104 0.40097 0.0
C1723 C 0.40048 0.6783 0.38559 0.0
C1724 C 0.42334 0.68279 0.39262 0.0
C1725 C 0.4349 0.67031 0.4147 0.0
C1726 C 0.38995 0.71246 0.3142 0.0
C1727 C 0.3743 0.72793 0.32576 0.0
C1728 C 0.39721 0.69507 0.33297 0.0
C1729 C 0.38857 0.69265 0.36325 0.0
C1730 C 0.37132 0.70681 0.37369 0.0
C1731 C 0.36432 0.72444 0.35513 0.0
H1732 H 0.04454 0.65537 0.02922 0.0
H1733 H 0.04118 0.59305 0.07677 0.0
H1734 H 0.07646 0.66639 0.06234 0.0
H1735 H 0.07241 0.60449 0.11104 0.0
H1736 H 0.07991 0.66421 0.18825 0.0
H1737 H 0.06326 0.64032 0.14858 0.0
H1738 H 0.11937 0.65476 0.08686 0.0
H1739 H 0.13662 0.67803 0.12737 0.0
C1740 C 0.05146 0.64362 0.04566 0.0
C1741 C 0.04096 0.62316 0.04995 0.0
C1742 C 0.06961 0.64994 0.0647 0.0
C1743 C 0.07686 0.63619 0.08905 0.0
C1744 C 0.06724 0.6152 0.09216 0.0
C1745 C 0.04941 0.60873 0.07269 0.0
C1746 C 0.08912 0.66152 0.1667 0.0
C1747 C 0.10949 0.67274 0.16073 0.0
C1748 C 0.07968 0.64785 0.14409 0.0
C1749 C 0.09015 0.64574 0.11483 0.0
C1750 C 0.1112 0.65603 0.10941 0.0
C1751 C 0.12103 0.66921 0.13252 0.0
H1752 H 0.14275 0.25168 0.87793 0.0
H1753 H 0.10314 0.27142 0.79782 0.0
H1754 H 0.1273 0.28266 0.90748 0.0
H1755 H 0.08754 0.30222 0.82759 0.0
H1756 H 0.03776 0.31872 0.91085 0.0
H1757 H 0.06033 0.29639 0.87542 0.0
H1758 H 0.12197 0.32662 0.90982 0.0
H1759 H 0.09907 0.34968 0.94523 0.0
C1760 C 0.1312 0.26295 0.86639 0.0
C1761 C 0.12392 0.25898 0.83568 0.0
C1762 C 0.12247 0.28074 0.88328 0.0
C1763 C 0.10611 0.29466 0.86986 0.0
C1764 C 0.10007 0.29162 0.83847 0.0
C1765 C 0.10905 0.27403 0.82144 0.0
C1766 C 0.05612 0.32077 0.91079 0.0
C1767 C 0.0667 0.33583 0.93093 0.0
C1768 C 0.06901 0.30813 0.89026 0.0
C1769 C 0.09285 0.30993 0.88972 0.0
C1770 C 0.10357 0.32505 0.90974 0.0
C1771 C 0.09053 0.33817 0.92992 0.0
H1772 H 0.44454 0.39991 0.57304 0.0
H1773 H 0.43768 0.33378 0.53816 0.0
H1774 H 0.41452 0.39277 0.61136 0.0
H1775 H 0.4069 0.32701 0.57515 0.0
H1776 H 0.35327 0.31941 0.64737 0.0
H1777 H 0.36604 0.34116 0.60249 0.0
H1778 H 0.4262 0.36038 0.6536 0.0
H1779 H 0.41402 0.33788 0.69761 0.0
C1780 C 0.43569 0.38428 0.57247 0.0
C1781 C 0.44297 0.3675 0.55233 0.0
C1782 C 0.41852 0.38027 0.59422 0.0
C1783 C 0.4084 0.35944 0.59594 0.0
C1784 C 0.41416 0.34336 0.57379 0.0
C1785 C 0.43168 0.34723 0.55252 0.0
C1786 C 0.36868 0.32912 0.64939 0.0
C1787 C 0.38277 0.32712 0.67569 0.0
C1788 C 0.37595 0.34146 0.62378 0.0
C1789 C 0.39699 0.35241 0.62479 0.0
C1790 C 0.40975 0.35231 0.65249 0.0
C1791 C 0.40286 0.33944 0.6776 0.0
H1792 H 0.31055 0.2552 0.23525 0.0
H1793 H 0.28834 0.18788 0.2231 0.0
H1794 H 0.27063 0.2669 0.23897 0.0
H1795 H 0.24895 0.19967 0.22675 0.0
H1796 H 0.18384 0.22807 0.19391 0.0
H1797 H 0.22486 0.22325 0.18979 0.0
H1798 H 0.23445 0.26034 0.27449 0.0
H1799 H 0.19312 0.2653 0.27882 0.0
C1800 C 0.29726 0.24288 0.23374 0.0
C1801 C 0.30268 0.22061 0.22857 0.0
C1802 C 0.27447 0.24962 0.23584 0.0
C1803 C 0.25684 0.23423 0.23247 0.0
C1804 C 0.26228 0.21192 0.22869 0.0
C1805 C 0.2849 0.20518 0.22685 0.0
C1806 C 0.19464 0.2356 0.21139 0.0
C1807 C 0.18519 0.24671 0.23702 0.0
C1808 C 0.21812 0.23276 0.20905 0.0
C1809 C 0.23266 0.24099 0.23223 0.0
C1810 C 0.22351 0.25377 0.25641 0.0
C1811 C 0.19988 0.25661 0.25882 0.0
H1812 H 0.98032 0.95311 0.44555 0.0
H1813 H 0.95083 0.95056 0.53769 0.0
H1814 H 0.98693 0.99234 0.4517 0.0
H1815 H 0.9579 0.98988 0.54406 0.0
H1816 H 0.96433 0.06607 0.53364 0.0
H1817 H 0.95084 0.02835 0.5268 0.0
H1818 H 0.01514 0.0109 0.48439 0.0
H1819 H 0.02848 0.04834 0.49064 0.0
C1820 C 0.97477 0.96103 0.46686 0.0
C1821 C 0.9653 0.94867 0.49126 0.0
C1822 C 0.97878 0.98346 0.47051 0.0
C1823 C 0.97354 0.99405 0.49872 0.0
C1824 C 0.9622 0.98215 0.5221 0.0
C1825 C 0.95806 0.95964 0.51838 0.0
C1826 C 0.97568 0.05413 0.52313 0.0
C1827 C 0.99743 0.06035 0.5124 0.0
C1828 C 0.9679 0.03253 0.51918 0.0
C1829 C 0.98172 0.01679 0.5044 0.0
C1830 C 0.00381 0.02281 0.49501 0.0
C1831 C 0.01155 0.04428 0.49891 0.0
H1832 H 0.29074 0.73032 0.77934 0.0
H1833 H 0.31214 0.77951 0.71277 0.0
H1834 H 0.25187 0.74434 0.77665 0.0
H1835 H 0.27322 0.79314 0.70968 0.0
H1836 H 0.20826 0.82816 0.73722 0.0
H1837 H 0.24661 0.81324 0.74238 0.0
H1838 H 0.21922 0.74734 0.74212 0.0
H1839 H 0.18082 0.76217 0.7377 0.0
C1840 C 0.28714 0.74391 0.7638 0.0
C1841 C 0.30465 0.75381 0.74635 0.0
C1842 C 0.26482 0.75193 0.76226 0.0
C1843 C 0.2595 0.77002 0.74322 0.0
C1844 C 0.27686 0.77948 0.72509 0.0
C1845 C 0.29915 0.7715 0.72664 0.0
C1846 C 0.21034 0.8105 0.73866 0.0
C1847 C 0.19139 0.7964 0.73693 0.0
C1848 C 0.23237 0.80194 0.74131 0.0
C1849 C 0.23599 0.77909 0.74227 0.0
C1850 C 0.21702 0.76502 0.74163 0.0
C1851 C 0.19498 0.77356 0.73901 0.0
H1852 H 0.52762 0.04921 0.04371 0.0
H1853 H 0.49661 0.04276 0.95288 0.0
H1854 H 0.5227 0.01009 0.05256 0.0
H1855 H 0.49272 0.00332 0.961 0.0
H1856 H 0.46975 0.93688 0.99304 0.0
H1857 H 0.47198 0.97673 0.98908 0.0
H1858 H 0.53642 0.97566 0.03808 0.0
H1859 H 0.53354 0.93621 0.04362 0.0
C1860 C 0.52019 0.03933 0.02534 0.0
C1861 C 0.51263 0.04904 0.9975 0.0
C1862 C 0.51735 0.01685 0.03042 0.0
C1863 C 0.50723 0.00347 0.00756 0.0
C1864 C 0.5001 0.01316 0.97943 0.0
C1865 C 0.50259 0.03573 0.97458 0.0
C1866 C 0.48418 0.9452 0.00345 0.0
C1867 C 0.50158 0.93326 0.01834 0.0
C1868 C 0.48561 0.96805 0.00085 0.0
C1869 C 0.50459 0.97944 0.01275 0.0
C1870 C 0.52144 0.96756 0.02883 0.0
C1871 C 0.51984 0.9448 0.03186 0.0
H1872 H 0.19863 0.7315 0.21511 0.0
H1873 H 0.17932 0.78302 0.27942 0.0
H1874 H 0.23831 0.74261 0.21947 0.0
H1875 H 0.21914 0.79371 0.28433 0.0
H1876 H 0.28797 0.82263 0.25992 0.0
H1877 H 0.24856 0.81107 0.25322 0.0
H1878 H 0.26977 0.74305 0.25579 0.0
H1879 H 0.30924 0.75452 0.26169 0.0
C1880 C 0.20283 0.74503 0.23048 0.0
C1881 C 0.18572 0.75639 0.24688 0.0
C1882 C 0.22563 0.75135 0.23302 0.0
C1883 C 0.23186 0.76913 0.25207 0.0
C1884 C 0.21483 0.7802 0.26898 0.0
C1885 C 0.19202 0.77393 0.26639 0.0
C1886 C 0.2843 0.80521 0.25872 0.0
C1887 C 0.30182 0.78952 0.26142 0.0
C1888 C 0.26166 0.79859 0.25517 0.0
C1889 C 0.25602 0.77615 0.25432 0.0
C1890 C 0.27357 0.76047 0.25611 0.0
C1891 C 0.29622 0.76708 0.25956 0.0
H1892 H 0.50663 0.95504 0.53989 0.0
H1893 H 0.53345 0.94852 0.44666 0.0
H1894 H 0.50062 0.99417 0.53126 0.0
H1895 H 0.52639 0.98733 0.43736 0.0
H1896 H 0.53204 0.06194 0.44215 0.0
H1897 H 0.53798 0.0229 0.44876 0.0
H1898 H 0.4768 0.01897 0.50472 0.0
H1899 H 0.47159 0.05852 0.49964 0.0
C1900 C 0.51136 0.96202 0.5176 0.0
C1901 C 0.52069 0.94874 0.49407 0.0
C1902 C 0.5076 0.9844 0.51245 0.0
C1903 C 0.51271 0.99397 0.48344 0.0
C1904 C 0.52249 0.98069 0.46014 0.0
C1905 C 0.52661 0.95839 0.46548 0.0
C1906 C 0.51967 0.0528 0.45566 0.0
C1907 C 0.5015 0.06353 0.47076 0.0
C1908 C 0.52305 0.03026 0.45934 0.0
C1909 C 0.50809 0.0177 0.47769 0.0
C1910 C 0.48908 0.02819 0.49117 0.0
C1911 C 0.48589 0.05086 0.4879 0.0
H1912 H 0.19631 0.23511 0.78987 0.0
H1913 H 0.21955 0.16833 0.77609 0.0
H1914 H 0.23541 0.24805 0.78691 0.0
H1915 H 0.25868 0.18142 0.77203 0.0
H1916 H 0.32861 0.20912 0.79383 0.0
H1917 H 0.28942 0.19695 0.80205 0.0
H1918 H 0.26486 0.25286 0.74975 0.0
H1919 H 0.30362 0.26541 0.74254 0.0
C1920 C 0.20972 0.2232 0.78576 0.0
C1921 C 0.20475 0.20068 0.78303 0.0
C1922 C 0.23217 0.23064 0.78406 0.0
C1923 C 0.25021 0.21578 0.77926 0.0
C1924 C 0.24524 0.19327 0.7763 0.0
C1925 C 0.22277 0.18579 0.77829 0.0
C1926 C 0.31482 0.21898 0.78451 0.0
C1927 C 0.31933 0.23823 0.76747 0.0
C1928 C 0.29237 0.21189 0.78895 0.0
C1929 C 0.274 0.22384 0.77636 0.0
C1930 C 0.27853 0.24338 0.76012 0.0
C1931 C 0.30087 0.25053 0.75585 0.0
H1932 H 0.98436 0.05268 0.05612 0.0
H1933 H 0.9539 0.05867 0.96492 0.0
H1934 H 0.98805 0.01316 0.04864 0.0
H1935 H 0.95863 0.01946 0.95669 0.0
H1936 H 0.95392 0.94517 0.96057 0.0
H1937 H 0.94749 0.98398 0.96905 0.0
H1938 H 0.01063 0.98806 0.02079 0.0
H1939 H 0.01637 0.94871 0.01391 0.0
C1940 C 0.97819 0.04549 0.03463 0.0
C1941 C 0.96874 0.0588 0.01119 0.0
C1942 C 0.98063 0.02287 0.0301 0.0
C1943 C 0.97405 0.01305 0.0018 0.0
C1944 C 0.9637 0.02629 0.97892 0.0
C1945 C 0.96091 0.04885 0.98366 0.0
C1946 C 0.96656 0.95429 0.97364 0.0
C1947 C 0.98558 0.94366 0.98684 0.0
C1948 C 0.96288 0.9767 0.9784 0.0
C1949 C 0.97836 0.98925 0.99596 0.0
C1950 C -0.00203 0.97884 0.0079 0.0
C1951 C 0.00146 0.95629 0.00357 0.0
H1952 H 0.7855 0.6744 0.73597 0.0
H1953 H 0.81345 0.74015 0.73953 0.0
H1954 H 0.7472 0.68953 0.74087 0.0
H1955 H 0.77519 0.75519 0.74349 0.0
H1956 H 0.70424 0.77311 0.77952 0.0
H1957 H 0.74271 0.75826 0.77712 0.0
H1958 H 0.72055 0.71015 0.70953 0.0
H1959 H 0.6819 0.72456 0.71253 0.0
C1960 C 0.78353 0.69205 0.73798 0.0
C1961 C 0.80262 0.70602 0.73732 0.0
C1962 C 0.76154 0.70074 0.74048 0.0
C1963 C 0.75811 0.72359 0.74224 0.0
C1964 C 0.77721 0.73751 0.74246 0.0
C1965 C 0.79919 0.72884 0.74011 0.0
C1966 C 0.70756 0.75948 0.76392 0.0
C1967 C 0.6899 0.75003 0.74624 0.0
C1968 C 0.72967 0.75098 0.76253 0.0
C1969 C 0.73469 0.7329 0.74332 0.0
C1970 C 0.71717 0.7238 0.72506 0.0
C1971 C 0.69504 0.73223 0.72655 0.0
H1972 H 0.69958 0.29917 0.28212 0.0
H1973 H 0.67813 0.24349 0.22684 0.0
H1974 H 0.73704 0.28209 0.28915 0.0
H1975 H 0.71583 0.22684 0.23324 0.0
H1976 H 0.79687 0.24271 0.20961 0.0
H1977 H 0.75547 0.24777 0.2108 0.0
H1978 H 0.75615 0.24214 0.31094 0.0
H1979 H 0.79753 0.2363 0.30976 0.0
C1980 C 0.70273 0.28313 0.27202 0.0
C1981 C 0.68601 0.2727 0.25387 0.0
C1982 C 0.72405 0.27333 0.27618 0.0
C1983 C 0.7291 0.25321 0.26174 0.0
C1984 C 0.71215 0.24232 0.2447 0.0
C1985 C 0.69065 0.25185 0.24113 0.0
C1986 C 0.78804 0.24176 0.23173 0.0
C1987 C 0.80026 0.23906 0.25956 0.0
C1988 C 0.76444 0.24462 0.23241 0.0
C1989 C 0.75285 0.24536 0.26098 0.0
C1990 C 0.76484 0.2415 0.2887 0.0
C1991 C 0.7884 0.23805 0.28796 0.0
H1992 H 0.69709 0.22478 0.7194 0.0
H1993 H 0.67345 0.27368 0.78513 0.0
H1994 H 0.73564 0.23919 0.7238 0.0
H1995 H 0.71213 0.28769 0.78997 0.0
H1996 H 0.8056 0.25865 0.76382 0.0
H1997 H 0.76759 0.24287 0.7597 0.0
H1998 H 0.73848 0.30812 0.75704 0.0
H1999 H 0.77636 0.32398 0.76184 0.0
C2000 C 0.70013 0.23838 0.73513 0.0
C2001 C 0.6821 0.24815 0.75176 0.0
C2002 C 0.72226 0.2466 0.73768 0.0
C2003 C 0.72685 0.26472 0.75695 0.0
C2004 C 0.70901 0.27398 0.77442 0.0
C2005 C 0.68688 0.26581 0.77185 0.0
C2006 C 0.79113 0.26967 0.76208 0.0
C2007 C 0.79406 0.29261 0.76328 0.0
C2008 C 0.76935 0.2606 0.75968 0.0
C2009 C 0.75005 0.27425 0.75838 0.0
C2010 C 0.75301 0.29717 0.75866 0.0
C2011 C 0.77476 0.30625 0.76112 0.0
H2012 H 0.79513 0.76537 0.22143 0.0
H2013 H 0.81633 0.71401 0.28483 0.0
H2014 H 0.75604 0.75235 0.2246 0.0
H2015 H 0.77704 0.70141 0.28861 0.0
H2016 H 0.70966 0.66979 0.26257 0.0
H2017 H 0.74863 0.68305 0.25709 0.0
H2018 H 0.72425 0.75008 0.25962 0.0
H2019 H 0.68532 0.73693 0.2642 0.0
C2020 C 0.79145 0.75149 0.2364 0.0
C2021 C 0.80895 0.74074 0.25286 0.0
C2022 C 0.76898 0.74405 0.23824 0.0
C2023 C 0.76343 0.72575 0.25669 0.0
C2024 C 0.78082 0.7153 0.2737 0.0
C2025 C 0.80332 0.72268 0.27178 0.0
C2026 C 0.71256 0.68735 0.26157 0.0
C2027 C 0.69429 0.70226 0.26386 0.0
C2028 C 0.73494 0.69496 0.25875 0.0
C2029 C 0.73958 0.71763 0.25824 0.0
C2030 C 0.72128 0.73251 0.25966 0.0
C2031 C 0.69891 0.72493 0.26236 0.0
H2032 H 0.5298 0.44914 0.95681 0.0
H2033 H 0.46229 0.44957 0.99733 0.0
H2034 H 0.53199 0.48876 0.9628 0.0
H2035 H 0.46403 0.48936 0.00183 0.0
H2036 H 0.4841 0.55458 0.04299 0.0
H2037 H 0.48286 0.51512 0.03413 0.0
H2038 H 0.51893 0.52374 0.94717 0.0
H2039 H 0.521 0.5631 0.95673 0.0
C2040 C 0.51519 0.45771 0.96636 0.0
C2041 C 0.49602 0.44607 0.97713 0.0
C2042 C 0.51644 0.48051 0.96972 0.0
C2043 C 0.49838 0.49226 0.98343 0.0
C2044 C 0.47857 0.48077 0.99212 0.0
C2045 C 0.47745 0.45795 0.98918 0.0
C2046 C 0.49205 0.54801 0.0222 0.0
C2047 C 0.50268 0.56198 0.00061 0.0
C2048 C 0.49108 0.5254 0.01689 0.0
C2049 C 0.50043 0.51623 0.98963 0.0
C2050 C 0.51169 0.53016 0.96851 0.0
C2051 C 0.51291 0.55276 0.97403 0.0
H2052 H 0.03216 0.43699 0.52268 0.0
H2053 H 0.96711 0.45238 0.48041 0.0
H2054 H 0.0433 0.47554 0.51853 0.0
H2055 H 0.97803 0.49075 0.47702 0.0
H2056 H 0.00988 0.55218 0.44343 0.0
H2057 H 0.00426 0.51266 0.44677 0.0
H2058 H 0.03467 0.5124 0.53843 0.0
H2059 H 0.04084 0.55201 0.53476 0.0
C2060 C 0.02012 0.44859 0.51288 0.0
C2061 C -0.0012 0.44151 0.50162 0.0
C2062 C 0.02653 0.47068 0.51051 0.0
C2063 C 0.01173 0.48613 0.49692 0.0
C2064 C 0.99011 0.47916 0.4868 0.0
C2065 C 0.98375 0.45715 0.48903 0.0
C2066 C 0.01579 0.54364 0.46405 0.0
C2067 C 0.0256 0.55525 0.48895 0.0
C2068 C 0.01238 0.52102 0.46609 0.0
C2069 C 0.01849 0.50949 0.4932 0.0
C2070 C 0.02976 0.52081 0.51725 0.0
C2071 C 0.03334 0.54351 0.5151 0.0
H2072 H 0.98272 0.43745 0.04938 0.0
H2073 H 0.04404 0.43864 0.99346 0.0
H2074 H 0.97876 0.4767 0.0434 0.0
H2075 H 0.04083 0.47845 0.98908 0.0
H2076 H 0.01323 0.5433 0.95265 0.0
H2077 H 0.01852 0.50413 0.96191 0.0
H2078 H 0.99106 0.51184 0.05477 0.0
H2079 H 0.98466 0.55063 0.04477 0.0
C2080 C 0.99577 0.44614 0.03647 0.0
C2081 C 0.01352 0.4347 0.02146 0.0
C2082 C 0.99352 0.46883 0.03314 0.0
C2083 C 0.00923 0.48086 0.01526 0.0
C2084 C 0.02798 0.46967 0.00222 0.0
C2085 C 0.03004 0.44684 0.00513 0.0
C2086 C 0.00799 0.5365 0.97483 0.0
C2087 C -0.00172 0.55001 0.99782 0.0
C2088 C 0.01135 0.51409 0.98037 0.0
C2089 C 0.00548 0.50473 0.00926 0.0
C2090 C 0.9955 0.51828 0.03208 0.0
C2091 C 0.99176 0.54059 0.02632 0.0
H2092 H 0.45443 0.43619 0.46023 0.0
H2093 H 0.51743 0.43723 0.51261 0.0
H2094 H 0.45035 0.47537 0.46746 0.0
H2095 H 0.51412 0.47694 0.51808 0.0
H2096 H 0.49 0.54302 0.5532 0.0
H2097 H 0.49322 0.50342 0.54571 0.0
H2098 H 0.46302 0.50998 0.45423 0.0
H2099 H 0.45865 0.54914 0.46255 0.0
C2100 C 0.46772 0.44482 0.47275 0.0
C2101 C 0.48612 0.43341 0.48621 0.0
C2102 C 0.46542 0.46745 0.47677 0.0
C2103 C 0.48174 0.47942 0.49372 0.0
C2104 C 0.50085 0.4682 0.50567 0.0
C2105 C 0.50293 0.44544 0.50215 0.0
C2106 C 0.48365 0.53587 0.53178 0.0
C2107 C 0.47388 0.54917 0.50862 0.0
C2108 C 0.4858 0.51321 0.52724 0.0
C2109 C 0.47863 0.50341 0.49918 0.0
C2110 C 0.46842 0.51676 0.47634 0.0
C2111 C 0.46588 0.5393 0.48113 0.0
H2112 H 0.01411 0.34762 0.10845 0.0
H2113 H 0.06919 0.33155 0.04543 0.0
H2114 H 0.03223 0.32568 0.14902 0.0
H2115 H 0.08725 0.30967 0.08616 0.0
H2116 H 0.09565 0.2515 0.15518 0.0
H2117 H 0.07844 0.27437 0.11471 0.0
H2118 H 0.06761 0.32619 0.18183 0.0
H2119 H 0.08467 0.30348 0.22229 0.0
C2120 C 0.03015 0.33958 0.10329 0.0
C2121 C 0.04018 0.3414 0.07365 0.0
C2122 C 0.04056 0.32705 0.12658 0.0
C2123 C 0.0611 0.31589 0.12068 0.0
C2124 C 0.07129 0.3179 0.09123 0.0
C2125 C 0.06102 0.3306 0.06801 0.0
C2126 C 0.08959 0.26776 0.16133 0.0
C2127 C 0.09158 0.27563 0.192 0.0
C2128 C 0.07988 0.28089 0.1381 0.0
C2129 C 0.07173 0.30206 0.14514 0.0
C2130 C 0.07359 0.30988 0.17579 0.0
C2131 C 0.08349 0.29687 0.19892 0.0
H2132 H 0.88895 0.77023 0.34161 0.0
H2133 H 0.8873 0.82708 0.28125 0.0
H2134 H 0.90347 0.79304 0.3839 0.0
H2135 H 0.90191 0.84982 0.32368 0.0
H2136 H 0.96012 0.87058 0.39295 0.0
H2137 H 0.94005 0.85111 0.35155 0.0
H2138 H 0.89259 0.82501 0.41885 0.0
H2139 H 0.91258 0.84452 0.46042 0.0
C2140 C 0.89141 0.78763 0.33744 0.0
C2141 C 0.88701 0.79678 0.30795 0.0
C2142 C 0.89963 0.80071 0.36175 0.0
C2143 C 0.9039 0.82319 0.35706 0.0
C2144 C 0.89893 0.8325 0.32788 0.0
C2145 C 0.89042 0.81948 0.30365 0.0
C2146 C 0.94527 0.86089 0.39894 0.0
C2147 C 0.93803 0.85908 0.43007 0.0
C2148 C 0.93369 0.84984 0.37516 0.0
C2149 C 0.91479 0.8365 0.38198 0.0
C2150 C 0.90721 0.83505 0.41296 0.0
C2151 C 0.91861 0.84634 0.43672 0.0
H2152 H 0.38318 0.72217 0.6569 0.0
H2153 H 0.38634 0.66759 0.72119 0.0
H2154 H 0.39958 0.6991 0.6162 0.0
H2155 H 0.4029 0.64456 0.68032 0.0
H2156 H 0.46341 0.62722 0.61147 0.0
H2157 H 0.44138 0.64566 0.6521 0.0
H2158 H 0.39116 0.66508 0.58394 0.0
H2159 H 0.41298 0.64666 0.54329 0.0
C2160 C 0.38706 0.70517 0.66223 0.0
C2161 C 0.38346 0.69675 0.69232 0.0
C2162 C 0.39638 0.69193 0.63887 0.0
C2163 C 0.4026 0.67007 0.64515 0.0
C2164 C 0.3984 0.66141 0.67493 0.0
C2165 C 0.38875 0.67456 0.69822 0.0
C2166 C 0.44752 0.63516 0.60517 0.0
C2167 C 0.44007 0.63552 0.57403 0.0
C2168 C 0.43486 0.64563 0.62849 0.0
C2169 C 0.41462 0.65689 0.62112 0.0
C2170 C 0.4068 0.65668 0.59022 0.0
C2171 C 0.41929 0.64601 0.56698 0.0
H2172 H 0.60163 0.15992 0.77108 0.0
H2173 H 0.60799 0.21293 0.83755 0.0
H2174 H 0.58694 0.13595 0.81225 0.0
H2175 H 0.59358 0.18894 0.87852 0.0
H2176 H 0.58202 0.13648 0.95026 0.0
H2177 H 0.60343 0.15352 0.90809 0.0
H2178 H 0.54924 0.13791 0.84377 0.0
H2179 H 0.52759 0.12091 0.88592 0.0
C2180 C 0.60034 0.16632 0.79457 0.0
C2181 C 0.60588 0.18834 0.80108 0.0
C2182 C 0.59182 0.15264 0.81802 0.0
C2183 C 0.58914 0.16062 0.8485 0.0
C2184 C 0.59569 0.1823 0.85528 0.0
C2185 C 0.60381 0.19607 0.83179 0.0
C2186 C 0.5748 0.13623 0.92704 0.0
C2187 C 0.55293 0.1275 0.92157 0.0
C2188 C 0.58707 0.14609 0.90294 0.0
C2189 C 0.5779 0.14717 0.87279 0.0
C2190 C 0.55675 0.13719 0.8668 0.0
C2191 C 0.54432 0.12755 0.89099 0.0
H2192 H 0.03104 0.63303 0.38919 0.0
H2193 H 0.08367 0.65363 0.45341 0.0
H2194 H 0.0511 0.65147 0.3468 0.0
H2195 H 0.10357 0.67212 0.41093 0.0
H2196 H 0.10783 0.72844 0.33598 0.0
H2197 H 0.09322 0.70578 0.37836 0.0
H2198 H 0.08858 0.65026 0.31607 0.0
H2199 H 0.10336 0.67285 0.27354 0.0
C2200 C 0.047 0.64126 0.39423 0.0
C2201 C 0.05568 0.6419 0.42475 0.0
C2202 C 0.05854 0.65172 0.36989 0.0
C2203 C 0.07885 0.66328 0.37562 0.0
C2204 C 0.08787 0.66345 0.40592 0.0
C2205 C 0.0765 0.65274 0.43019 0.0
C2206 C 0.10398 0.71133 0.33137 0.0
C2207 C 0.10672 0.70248 0.30134 0.0
C2208 C 0.09572 0.69833 0.3557 0.0
C2209 C 0.08972 0.67629 0.35047 0.0
C2210 C 0.09296 0.66725 0.32068 0.0
C2211 C 0.10156 0.68016 0.29641 0.0
H2212 H 0.61102 0.83836 0.7177 0.0
H2213 H 0.61416 0.78259 0.65545 0.0
H2214 H 0.59585 0.86101 0.67542 0.0
H2215 H 0.59921 0.8053 0.61331 0.0
H2216 H 0.58734 0.8562 0.53813 0.0
H2217 H 0.60887 0.83897 0.58018 0.0
H2218 H 0.55755 0.85943 0.64615 0.0
H2219 H 0.53582 0.8766 0.60416 0.0
C2220 C 0.60892 0.83104 0.69488 0.0
C2221 C 0.61374 0.80864 0.68996 0.0
C2222 C 0.6001 0.84398 0.67077 0.0
C2223 C 0.59632 0.83489 0.64115 0.0
C2224 C 0.60214 0.81279 0.63585 0.0
C2225 C 0.6106 0.79977 0.66003 0.0
C2226 C 0.5808 0.85741 0.56166 0.0
C2227 C 0.55974 0.8677 0.56772 0.0
C2228 C 0.5931 0.84742 0.58569 0.0
C2229 C 0.58482 0.84777 0.61636 0.0
C2230 C 0.56442 0.85904 0.62274 0.0
C2231 C 0.55193 0.86878 0.59865 0.0
H2232 H 0.38396 0.32072 0.80194 0.0
H2233 H 0.42717 0.26585 0.82705 0.0
H2234 H 0.40334 0.34354 0.8408 0.0
H2235 H 0.44658 0.28878 0.86521 0.0
H2236 H 0.49385 0.34435 0.89854 0.0
H2237 H 0.47256 0.32346 0.8597 0.0
H2238 H 0.40923 0.34386 0.90194 0.0
H2239 H 0.43044 0.36457 0.94128 0.0
C2240 C 0.39743 0.31347 0.81582 0.0
C2241 C 0.40402 0.29144 0.81126 0.0
C2242 C 0.40849 0.32654 0.83804 0.0
C2243 C 0.4266 0.31795 0.85568 0.0
C2244 C 0.43286 0.29587 0.8516 0.0
C2245 C 0.42159 0.28271 0.82987 0.0
C2246 C 0.47539 0.34461 0.89944 0.0
C2247 C 0.46387 0.35605 0.92318 0.0
C2248 C 0.46323 0.33253 0.8773 0.0
C2249 C 0.43929 0.33193 0.87803 0.0
C2250 C 0.42769 0.34409 0.90087 0.0
C2251 C 0.43986 0.35588 0.9234 0.0
H2252 H 0.89693 0.18218 0.22733 0.0
H2253 H 0.88491 0.23457 0.16123 0.0
H2254 H 0.91283 0.15954 0.18585 0.0
H2255 H 0.90103 0.21192 0.11993 0.0
H2256 H 0.91312 0.15837 0.04778 0.0
H2257 H 0.89365 0.17795 0.08963 0.0
H2258 H 0.94757 0.16006 0.15329 0.0
H2259 H 0.96698 0.14032 0.11171 0.0
C2260 C 0.89756 0.18887 0.20398 0.0
C2261 C 0.88966 0.21027 0.19771 0.0
C2262 C 0.90679 0.17589 0.18023 0.0
C2263 C 0.90821 0.18394 0.14963 0.0
C2264 C 0.89992 0.20515 0.14321 0.0
C2265 C 0.89081 0.21818 0.16697 0.0
C2266 C 0.92072 0.15836 0.07077 0.0
C2267 C 0.9417 0.14778 0.07628 0.0
C2268 C 0.90962 0.16972 0.09469 0.0
C2269 C 0.91913 0.17065 0.12471 0.0
C2270 C 0.9397 0.15949 0.13048 0.0
C2271 C 0.95087 0.14825 0.10656 0.0
H2272 H 0.98767 0.63804 0.89288 0.0
H2273 H 0.92771 0.62496 0.94843 0.0
H2274 H 0.96347 0.65059 0.85028 0.0
H2275 H 0.90354 0.63752 0.90558 0.0
H2276 H 0.87106 0.63799 0.80542 0.0
H2277 H 0.89333 0.626 0.85041 0.0
H2278 H 0.93702 0.68263 0.84049 0.0
H2279 H 0.91487 0.69472 0.79563 0.0
C2280 C 0.96934 0.63769 0.89599 0.0
C2281 C 0.95967 0.63047 0.92416 0.0
C2282 C 0.95549 0.64507 0.87163 0.0
C2283 C 0.93162 0.64519 0.87468 0.0
C2284 C 0.92188 0.63755 0.90254 0.0
C2285 C 0.93575 0.63042 0.92709 0.0
C2286 C 0.88523 0.64806 0.81304 0.0
C2287 C 0.89116 0.66732 0.79677 0.0
C2288 C 0.89796 0.64119 0.83886 0.0
C2289 C 0.91705 0.65326 0.84876 0.0
C2290 C 0.92258 0.67282 0.83311 0.0
C2291 C 0.90973 0.67984 0.80754 0.0
H2292 H 0.10025 0.19543 0.70921 0.0
H2293 H 0.13514 0.13276 0.70952 0.0
H2294 H 0.07981 0.18468 0.66228 0.0
H2295 H 0.11446 0.12204 0.6626 0.0
H2296 H 0.08605 0.12004 0.56137 0.0
H2297 H 0.10927 0.13088 0.60609 0.0
H2298 H 0.04944 0.15743 0.65109 0.0
H2299 H 0.02627 0.1468 0.60662 0.0
C2300 C 0.10381 0.17947 0.69913 0.0
C2301 C 0.11931 0.16494 0.71338 0.0
C2302 C 0.09191 0.17324 0.67234 0.0
C2303 C 0.09529 0.1524 0.65896 0.0
C2304 C 0.11153 0.13824 0.6723 0.0
C2305 C 0.12335 0.1444 0.69925 0.0
C2306 C 0.0778 0.12806 0.58088 0.0
C2307 C 0.05423 0.13253 0.58028 0.0
C2308 C 0.09112 0.13424 0.60652 0.0
C2309 C 0.08124 0.14521 0.63197 0.0
C2310 C 0.05765 0.14934 0.6316 0.0
C2311 C 0.04432 0.14303 0.60617 0.0
H2312 H 0.55448 0.35003 0.45436 0.0
H2313 H 0.49622 0.34374 0.39319 0.0
H2314 H 0.57935 0.33713 0.41295 0.0
H2315 H 0.52138 0.33107 0.35151 0.0
H2316 H 0.57115 0.28963 0.29351 0.0
H2317 H 0.54646 0.29955 0.33712 0.0
H2318 H 0.59323 0.35123 0.36296 0.0
H2319 H 0.618 0.34127 0.31984 0.0
C2320 C 0.54693 0.34595 0.43207 0.0
C2321 C 0.5233 0.34808 0.42712 0.0
C2322 C 0.56125 0.33862 0.40829 0.0
C2323 C 0.55235 0.33313 0.37895 0.0
C2324 C 0.52871 0.33497 0.374 0.0
C2325 C 0.51434 0.34242 0.3978 0.0
C2326 C 0.57634 0.30291 0.30873 0.0
C2327 C 0.5966 0.31464 0.3031 0.0
C2328 C 0.56206 0.30872 0.33353 0.0
C2329 C 0.56784 0.32624 0.35337 0.0
C2330 C 0.58839 0.33752 0.34827 0.0
C2331 C 0.60257 0.33183 0.32344 0.0
H2332 H 0.43318 0.85657 0.0517 0.0
H2333 H 0.49234 0.83977 0.10696 0.0
H2334 H 0.40838 0.84567 0.09458 0.0
H2335 H 0.46741 0.8289 0.14981 0.0
H2336 H 0.41491 0.79057 0.20697 0.0
H2337 H 0.43812 0.79958 0.16167 0.0
H2338 H 0.39979 0.85951 0.14882 0.0
H2339 H 0.37648 0.85061 0.19416 0.0
C2340 C 0.44092 0.8505 0.07293 0.0
C2341 C 0.46479 0.8491 0.07589 0.0
C2342 C 0.42668 0.84436 0.09753 0.0
C2343 C 0.43595 0.83643 0.12551 0.0
C2344 C 0.45978 0.83477 0.12839 0.0
C2345 C 0.47405 0.84114 0.10392 0.0
C2346 C 0.41119 0.80555 0.19432 0.0
C2347 C 0.39379 0.81988 0.20431 0.0
C2348 C 0.42464 0.81077 0.1685 0.0
C2349 C 0.42087 0.83031 0.15186 0.0
C2350 C 0.40301 0.84427 0.16112 0.0
C2351 C 0.38969 0.83918 0.18715 0.0
H2352 H 0.91258 0.37816 0.54843 0.0
H2353 H 0.97315 0.35591 0.5966 0.0
H2354 H 0.88928 0.36635 0.59246 0.0
H2355 H 0.94986 0.34439 0.64047 0.0
H2356 H 0.90056 0.30399 0.69774 0.0
H2357 H 0.92145 0.31547 0.65152 0.0
H2358 H 0.88208 0.37543 0.64798 0.0
H2359 H 0.86094 0.36395 0.69401 0.0
C2360 C 0.92098 0.37097 0.56846 0.0
C2361 C 0.94479 0.368 0.56886 0.0
C2362 C 0.9076 0.36422 0.59369 0.0
C2363 C 0.91771 0.35423 0.61978 0.0
C2364 C 0.94152 0.35167 0.62046 0.0
C2365 C 0.95489 0.35851 0.59538 0.0
C2366 C 0.89609 0.31949 0.68694 0.0
C2367 C 0.8791 0.33307 0.69981 0.0
C2368 C 0.90823 0.32615 0.66058 0.0
C2369 C 0.90361 0.34648 0.64634 0.0
C2370 C 0.88598 0.35964 0.65835 0.0
C2371 C 0.8739 0.35304 0.68481 0.0
H2372 H 0.41541 0.21447 0.28648 0.0
H2373 H 0.3743 0.15576 0.2946 0.0
H2374 H 0.43807 0.20273 0.33112 0.0
H2375 H 0.39706 0.1441 0.33917 0.0
H2376 H 0.43082 0.14123 0.43601 0.0
H2377 H 0.40641 0.15478 0.39419 0.0
H2378 H 0.466 0.17198 0.34045 0.0
H2379 H 0.49052 0.15852 0.38224 0.0
C2380 C 0.41097 0.19922 0.29799 0.0
C2381 C 0.39303 0.18604 0.28684 0.0
C2382 C 0.42411 0.19242 0.32341 0.0
C2383 C 0.41946 0.17242 0.33845 0.0
C2384 C 0.40098 0.15966 0.32813 0.0
C2385 C 0.38797 0.16634 0.30253 0.0
C2386 C 0.43876 0.14789 0.4153 0.0
C2387 C 0.46267 0.14872 0.41248 0.0
C2388 C 0.42475 0.15558 0.39131 0.0
C2389 C 0.4343 0.1645 0.36412 0.0
C2390 C 0.45816 0.16543 0.36131 0.0
C2391 C 0.4722 0.15753 0.38515 0.0
H2392 H 0.55706 0.66505 0.04676 0.0
H2393 H 0.51679 0.62286 0.1061 0.0
H2394 H 0.58118 0.67478 0.09132 0.0
H2395 H 0.54131 0.63221 0.1503 0.0
H2396 H 0.60961 0.63392 0.2064 0.0
H2397 H 0.58676 0.62568 0.16046 0.0
H2398 H 0.57281 0.69473 0.14803 0.0
H2399 H 0.59512 0.70317 0.19481 0.0
C2400 C 0.55343 0.65778 0.06925 0.0
C2401 C 0.53505 0.64315 0.07293 0.0
C2402 C 0.56716 0.66345 0.0947 0.0
C2403 C 0.56309 0.65418 0.1241 0.0
C2404 C 0.54483 0.63948 0.12778 0.0
C2405 C 0.53078 0.63421 0.10254 0.0
C2406 C 0.60179 0.64745 0.19395 0.0
C2407 C 0.60405 0.66924 0.20462 0.0
C2408 C 0.58866 0.64266 0.16767 0.0
C2409 C 0.57794 0.65955 0.15095 0.0
C2410 C 0.58093 0.68142 0.16061 0.0
C2411 C 0.59367 0.68621 0.18738 0.0
H2412 H 0.07687 0.80294 0.78971 0.0
H2413 H 0.11944 0.8596 0.80737 0.0
H2414 H 0.05303 0.81281 0.83415 0.0
H2415 H 0.09549 0.86946 0.85154 0.0
H2416 H 0.05941 0.86848 0.94624 0.0
H2417 H 0.08435 0.85681 0.90402 0.0
H2418 H 0.02554 0.8428 0.84685 0.0
H2419 H 0.00044 0.8543 0.88921 0.0
C2420 C 0.08136 0.81733 0.80325 0.0
C2421 C 0.10012 0.83046 0.79486 0.0
C2422 C 0.06753 0.8231 0.82854 0.0
C2423 C 0.07225 0.84202 0.84621 0.0
C2424 C 0.09146 0.85471 0.83853 0.0
C2425 C 0.10518 0.84905 0.81312 0.0
C2426 C 0.05172 0.86295 0.92468 0.0
C2427 C 0.02785 0.86241 0.92117 0.0
C2428 C 0.06607 0.85633 0.90043 0.0
C2429 C 0.05694 0.84882 0.87211 0.0
C2430 C 0.0331 0.84824 0.86853 0.0
C2431 C 0.01872 0.85504 0.89273 0.0
loop_
_geom_bond_atom_site_label_1
_geom_bond_atom_site_label_2
_geom_bond_distance
_geom_bond_site_symmetry_2
_ccdc_geom_bond_type
Mn0 O5 2.095 . S
Mn0 O15 2.162 . S
Mn0 O16 2.297 . S
Mn0 O24 2.385 . S
Mn0 O25 2.209 . S
Mn0 O26 2.094 . S
Mn1 O6 2.121 . S
Mn1 N8 2.257 . S
Mn1 N17 2.282 . S
Mn1 O25 2.215 . S
Mn1 O27 2.117 . S
C2 O24 1.234 . S
C2 O25 1.283 . S
C3 O15 1.281 . S
C3 O16 1.236 . S
C4 O26 1.240 . S
C4 O27 1.264 . S
O5 Mn0 2.095 . S
O5 C14 1.250 . S
O6 Mn1 2.121 . S
O6 C14 1.258 . S
C7 N8 1.326 . S
C7 C11 1.460 . S
C7 H13 0.929 . S
N8 Mn1 2.257 . S
N8 C7 1.326 . S
N8 C12 1.362 . S
C9 C10 1.258 . S
C9 C12 1.431 . S
C9 C29 1.449 . S
C10 C9 1.258 . S
C10 C11 1.477 . S
C10 H30 0.931 . S
C11 C7 1.460 . S
C11 C10 1.477 . S
C11 H31 0.930 . S
C12 N8 1.362 . S
C12 C9 1.431 . S
C12 C22 1.476 . S
H13 C7 0.929 . S
C14 O5 1.250 . S
C14 O6 1.258 . S
O15 Mn0 2.162 . S
O15 C3 1.281 . S
O16 Mn0 2.297 . S
O16 C3 1.236 . S
N17 Mn1 2.282 . S
N17 C18 1.328 . S
N17 C22 1.318 . S
C18 N17 1.328 . S
C18 C19 1.457 . S
C18 H23 0.929 . S
C19 C18 1.457 . S
C19 C20 1.291 . S
C19 H32 0.931 . S
C20 C19 1.291 . S
C20 C21 1.373 . S
C20 H33 0.929 . S
C21 C20 1.373 . S
C21 C22 1.396 . S
C21 C28 1.403 . S
C22 C12 1.476 . S
C22 N17 1.318 . S
C22 C21 1.396 . S
H23 C18 0.929 . S
O24 Mn0 2.385 . S
O24 C2 1.234 . S
O25 Mn0 2.209 . S
O25 Mn1 2.215 . S
O25 C2 1.283 . S
O26 Mn0 2.094 . S
O26 C4 1.240 . S
O27 Mn1 2.117 . S
O27 C4 1.264 . S
C28 C21 1.403 . S
C28 C29 1.399 . S
C28 H34 0.929 . S
C29 C9 1.449 . S
C29 C28 1.399 . S
C29 H35 0.930 . S
H30 C10 0.931 . S
H31 C11 0.930 . S
H32 C19 0.931 . S
H33 C20 0.929 . S
H34 C28 0.929 . S
H35 C29 0.930 . S
Mn36 O41 2.095 . S
Mn36 O51 2.162 . S
Mn36 O52 2.297 . S
Mn36 O60 2.385 . S
Mn36 O61 2.209 . S
Mn36 O62 2.094 . S
Mn37 O42 2.121 . S
Mn37 N44 2.257 1_655 S
Mn37 N53 2.282 1_655 S
Mn37 O61 2.215 . S
Mn37 O63 2.117 . S
C38 O60 1.234 . S
C38 O61 1.283 . S
C39 O51 1.281 . S
C39 O52 1.236 . S
C40 O62 1.240 . S
C40 O63 1.264 . S
O41 Mn36 2.095 . S
O41 C50 1.250 . S
O42 Mn37 2.121 . S
O42 C50 1.258 . S
C43 N44 1.326 . S
C43 C47 1.460 . S
C43 H49 0.929 . S
N44 Mn37 2.257 1_455 S
N44 C43 1.326 . S
N44 C48 1.362 . S
C45 C46 1.258 . S
C45 C48 1.431 . S
C45 C65 1.449 . S
C46 C45 1.258 . S
C46 C47 1.477 . S
C46 H66 0.931 . S
C47 C43 1.460 . S
C47 C46 1.477 . S
C47 H67 0.930 . S
C48 N44 1.362 . S
C48 C45 1.431 . S
C48 C58 1.476 . S
H49 C43 0.929 . S
C50 O41 1.250 . S
C50 O42 1.258 . S
O51 Mn36 2.162 . S
O51 C39 1.281 . S
O52 Mn36 2.297 . S
O52 C39 1.236 . S
N53 Mn37 2.282 1_455 S
N53 C54 1.328 . S
N53 C58 1.318 . S
C54 N53 1.328 . S
C54 C55 1.457 . S
C54 H59 0.929 . S
C55 C54 1.457 . S
C55 C56 1.291 . S
C55 H68 0.931 . S
C56 C55 1.291 . S
C56 C57 1.373 . S
C56 H69 0.929 . S
C57 C56 1.373 . S
C57 C58 1.396 . S
C57 C64 1.403 . S
C58 C48 1.476 . S
C58 N53 1.318 . S
C58 C57 1.396 . S
H59 C54 0.929 . S
O60 Mn36 2.385 . S
O60 C38 1.234 . S
O61 Mn36 2.209 . S
O61 Mn37 2.215 . S
O61 C38 1.283 . S
O62 Mn36 2.094 . S
O62 C40 1.240 . S
O63 Mn37 2.117 . S
O63 C40 1.264 . S
C64 C57 1.403 . S
C64 C65 1.399 . S
C64 H70 0.929 . S
C65 C45 1.449 . S
C65 C64 1.399 . S
C65 H71 0.930 . S
H66 C46 0.931 . S
H67 C47 0.930 . S
H68 C55 0.931 . S
H69 C56 0.929 . S
H70 C64 0.929 . S
H71 C65 0.930 . S
Mn72 O77 2.095 . S
Mn72 O87 2.162 . S
Mn72 O88 2.297 . S
Mn72 O96 2.385 . S
Mn72 O97 2.209 . S
Mn72 O98 2.094 . S
Mn73 O78 2.121 . S
Mn73 N80 2.257 . S
Mn73 N89 2.282 . S
Mn73 O97 2.215 . S
Mn73 O99 2.117 . S
C74 O96 1.234 . S
C74 O97 1.283 . S
C75 O87 1.281 . S
C75 O88 1.236 . S
C76 O98 1.240 . S
C76 O99 1.264 . S
O77 Mn72 2.095 . S
O77 C86 1.250 . S
O78 Mn73 2.121 . S
O78 C86 1.258 . S
C79 N80 1.326 . S
C79 C83 1.460 . S
C79 H85 0.929 . S
N80 Mn73 2.257 . S
N80 C79 1.326 . S
N80 C84 1.362 . S
C81 C82 1.258 . S
C81 C84 1.431 . S
C81 C101 1.449 . S
C82 C81 1.258 . S
C82 C83 1.477 . S
C82 H102 0.931 . S
C83 C79 1.460 . S
C83 C82 1.477 . S
C83 H103 0.930 . S
C84 N80 1.362 . S
C84 C81 1.431 . S
C84 C94 1.476 . S
H85 C79 0.929 . S
C86 O77 1.250 . S
C86 O78 1.258 . S
O87 Mn72 2.162 . S
O87 C75 1.281 . S
O88 Mn72 2.297 . S
O88 C75 1.236 . S
N89 Mn73 2.282 . S
N89 C90 1.328 . S
N89 C94 1.318 . S
C90 N89 1.328 . S
C90 C91 1.457 . S
C90 H95 0.929 . S
C91 C90 1.457 . S
C91 C92 1.291 . S
C91 H104 0.931 . S
C92 C91 1.291 . S
C92 C93 1.373 . S
C92 H105 0.929 . S
C93 C92 1.373 . S
C93 C94 1.396 . S
C93 C100 1.403 . S
C94 C84 1.476 . S
C94 N89 1.318 . S
C94 C93 1.396 . S
H95 C90 0.929 . S
O96 Mn72 2.385 . S
O96 C74 1.234 . S
O97 Mn72 2.209 . S
O97 Mn73 2.215 . S
O97 C74 1.283 . S
O98 Mn72 2.094 . S
O98 C76 1.240 . S
O99 Mn73 2.117 . S
O99 C76 1.264 . S
C100 C93 1.403 . S
C100 C101 1.399 . S
C100 H106 0.929 . S
C101 C81 1.449 . S
C101 C100 1.399 . S
C101 H107 0.930 . S
H102 C82 0.931 . S
H103 C83 0.930 . S
H104 C91 0.931 . S
H105 C92 0.929 . S
H106 C100 0.929 . S
H107 C101 0.930 . S
Mn108 O113 2.095 1_554 S
Mn108 O123 2.162 . S
Mn108 O124 2.297 . S
Mn108 O132 2.385 . S
Mn108 O133 2.209 . S
Mn108 O134 2.094 . S
Mn109 O114 2.121 . S
Mn109 N116 2.257 . S
Mn109 N125 2.282 1_556 S
Mn109 O133 2.215 1_556 S
Mn109 O135 2.117 1_556 S
C110 O132 1.234 . S
C110 O133 1.283 . S
C111 O123 1.281 . S
C111 O124 1.236 . S
C112 O134 1.240 . S
C112 O135 1.264 . S
O113 Mn108 2.095 1_556 S
O113 C122 1.250 . S
O114 Mn109 2.121 . S
O114 C122 1.258 . S
C115 N116 1.326 . S
C115 C119 1.460 . S
C115 H121 0.929 . S
N116 Mn109 2.257 . S
N116 C115 1.326 . S
N116 C120 1.362 . S
C117 C118 1.258 . S
C117 C120 1.431 . S
C117 C137 1.449 . S
C118 C117 1.258 . S
C118 C119 1.477 . S
C118 H138 0.931 . S
C119 C115 1.460 . S
C119 C118 1.477 . S
C119 H139 0.930 . S
C120 N116 1.362 . S
C120 C117 1.431 . S
C120 C130 1.476 1_556 S
H121 C115 0.929 . S
C122 O113 1.250 . S
C122 O114 1.258 . S
O123 Mn108 2.162 . S
O123 C111 1.281 . S
O124 Mn108 2.297 . S
O124 C111 1.236 . S
N125 Mn109 2.282 1_554 S
N125 C126 1.328 . S
N125 C130 1.318 . S
C126 N125 1.328 . S
C126 C127 1.457 . S
C126 H131 0.929 . S
C127 C126 1.457 . S
C127 C128 1.291 . S
C127 H140 0.931 . S
C128 C127 1.291 . S
C128 C129 1.373 . S
C128 H141 0.929 . S
C129 C128 1.373 . S
C129 C130 1.396 . S
C129 C136 1.403 . S
C130 C120 1.476 1_554 S
C130 N125 1.318 . S
C130 C129 1.396 . S
H131 C126 0.929 . S
O132 Mn108 2.385 . S
O132 C110 1.234 . S
O133 Mn108 2.209 . S
O133 Mn109 2.215 1_554 S
O133 C110 1.283 . S
O134 Mn108 2.094 . S
O134 C112 1.240 . S
O135 Mn109 2.117 1_554 S
O135 C112 1.264 . S
C136 C129 1.403 . S
C136 C137 1.399 1_554 S
C136 H142 0.929 . S
C137 C117 1.449 . S
C137 C136 1.399 1_556 S
C137 H143 0.930 . S
H138 C118 0.931 . S
H139 C119 0.930 . S
H140 C127 0.931 . S
H141 C128 0.929 . S
H142 C136 0.929 . S
H143 C137 0.930 . S
Mn144 O149 2.095 . S
Mn144 O159 2.162 . S
Mn144 O160 2.297 . S
Mn144 O168 2.385 . S
Mn144 O169 2.209 . S
Mn144 O170 2.094 . S
Mn145 O150 2.121 . S
Mn145 N152 2.257 . S
Mn145 N161 2.282 . S
Mn145 O169 2.215 . S
Mn145 O171 2.117 . S
C146 O168 1.234 . S
C146 O169 1.283 . S
C147 O159 1.281 . S
C147 O160 1.236 . S
C148 O170 1.240 . S
C148 O171 1.264 . S
O149 Mn144 2.095 . S
O149 C158 1.250 . S
O150 Mn145 2.121 . S
O150 C158 1.258 . S
C151 N152 1.326 . S
C151 C155 1.460 . S
C151 H157 0.929 . S
N152 Mn145 2.257 . S
N152 C151 1.326 . S
N152 C156 1.362 . S
C153 C154 1.258 . S
C153 C156 1.431 . S
C153 C173 1.449 . S
C154 C153 1.258 . S
C154 C155 1.477 . S
C154 H174 0.931 . S
C155 C151 1.460 . S
C155 C154 1.477 . S
C155 H175 0.930 . S
C156 N152 1.362 . S
C156 C153 1.431 . S
C156 C166 1.476 . S
H157 C151 0.929 . S
C158 O149 1.250 . S
C158 O150 1.258 . S
O159 Mn144 2.162 . S
O159 C147 1.281 . S
O160 Mn144 2.297 . S
O160 C147 1.236 . S
N161 Mn145 2.282 . S
N161 C162 1.328 . S
N161 C166 1.318 . S
C162 N161 1.328 . S
C162 C163 1.457 . S
C162 H167 0.929 . S
C163 C162 1.457 . S
C163 C164 1.291 . S
C163 H176 0.931 . S
C164 C163 1.291 . S
C164 C165 1.373 . S
C164 H177 0.929 . S
C165 C164 1.373 . S
C165 C166 1.396 . S
C165 C172 1.403 . S
C166 C156 1.476 . S
C166 N161 1.318 . S
C166 C165 1.396 . S
H167 C162 0.929 . S
O168 Mn144 2.385 . S
O168 C146 1.234 . S
O169 Mn144 2.209 . S
O169 Mn145 2.215 . S
O169 C146 1.283 . S
O170 Mn144 2.094 . S
O170 C148 1.240 . S
O171 Mn145 2.117 . S
O171 C148 1.264 . S
C172 C165 1.403 . S
C172 C173 1.399 . S
C172 H178 0.929 . S
C173 C153 1.449 . S
C173 C172 1.399 . S
C173 H179 0.930 . S
H174 C154 0.931 . S
H175 C155 0.930 . S
H176 C163 0.931 . S
H177 C164 0.929 . S
H178 C172 0.929 . S
H179 C173 0.930 . S
Mn180 O185 2.095 . S
Mn180 O195 2.162 . S
Mn180 O196 2.297 . S
Mn180 O204 2.385 . S
Mn180 O205 2.209 . S
Mn180 O206 2.094 . S
Mn181 O186 2.121 . S
Mn181 N188 2.257 . S
Mn181 N197 2.282 . S
Mn181 O205 2.215 . S
Mn181 O207 2.117 . S
C182 O204 1.234 . S
C182 O205 1.283 . S
C183 O195 1.281 . S
C183 O196 1.236 . S
C184 O206 1.240 . S
C184 O207 1.264 . S
O185 Mn180 2.095 . S
O185 C194 1.250 . S
O186 Mn181 2.121 . S
O186 C194 1.258 . S
C187 N188 1.326 . S
C187 C191 1.460 . S
C187 H193 0.929 . S
N188 Mn181 2.257 . S
N188 C187 1.326 . S
N188 C192 1.362 . S
C189 C190 1.258 . S
C189 C192 1.431 . S
C189 C209 1.449 . S
C190 C189 1.258 . S
C190 C191 1.477 . S
C190 H210 0.931 . S
C191 C187 1.460 . S
C191 C190 1.477 . S
C191 H211 0.930 . S
C192 N188 1.362 . S
C192 C189 1.431 . S
C192 C202 1.476 . S
H193 C187 0.929 . S
C194 O185 1.250 . S
C194 O186 1.258 . S
O195 Mn180 2.162 . S
O195 C183 1.281 . S
O196 Mn180 2.297 . S
O196 C183 1.236 . S
N197 Mn181 2.282 . S
N197 C198 1.328 . S
N197 C202 1.318 . S
C198 N197 1.328 . S
C198 C199 1.457 . S
C198 H203 0.929 . S
C199 C198 1.457 . S
C199 C200 1.291 . S
C199 H212 0.931 . S
C200 C199 1.291 . S
C200 C201 1.373 . S
C200 H213 0.929 . S
C201 C200 1.373 . S
C201 C202 1.396 . S
C201 C208 1.403 . S
C202 C192 1.476 . S
C202 N197 1.318 . S
C202 C201 1.396 . S
H203 C198 0.929 . S
O204 Mn180 2.385 . S
O204 C182 1.234 . S
O205 Mn180 2.209 . S
O205 Mn181 2.215 . S
O205 C182 1.283 . S
O206 Mn180 2.094 . S
O206 C184 1.240 . S
O207 Mn181 2.117 . S
O207 C184 1.264 . S
C208 C201 1.403 . S
C208 C209 1.399 . S
C208 H214 0.929 . S
C209 C189 1.449 . S
C209 C208 1.399 . S
C209 H215 0.930 . S
H210 C190 0.931 . S
H211 C191 0.930 . S
H212 C199 0.931 . S
H213 C200 0.929 . S
H214 C208 0.929 . S
H215 C209 0.930 . S
Mn216 O221 2.095 . S
Mn216 O231 2.162 . S
Mn216 O232 2.297 . S
Mn216 O240 2.385 . S
Mn216 O241 2.209 . S
Mn216 O242 2.094 . S
Mn217 O222 2.121 . S
Mn217 N224 2.257 . S
Mn217 N233 2.282 . S
Mn217 O241 2.215 . S
Mn217 O243 2.117 . S
C218 O240 1.234 . S
C218 O241 1.283 . S
C219 O231 1.281 . S
C219 O232 1.236 . S
C220 O242 1.240 . S
C220 O243 1.264 . S
O221 Mn216 2.095 . S
O221 C230 1.250 . S
O222 Mn217 2.121 . S
O222 C230 1.258 . S
C223 N224 1.326 . S
C223 C227 1.460 . S
C223 H229 0.929 . S
N224 Mn217 2.257 . S
N224 C223 1.326 . S
N224 C228 1.362 . S
C225 C226 1.258 . S
C225 C228 1.431 . S
C225 C245 1.449 . S
C226 C225 1.258 . S
C226 C227 1.477 . S
C226 H246 0.931 . S
C227 C223 1.460 . S
C227 C226 1.477 . S
C227 H247 0.930 . S
C228 N224 1.362 . S
C228 C225 1.431 . S
C228 C238 1.476 . S
H229 C223 0.929 . S
C230 O221 1.250 . S
C230 O222 1.258 . S
O231 Mn216 2.162 . S
O231 C219 1.281 . S
O232 Mn216 2.297 . S
O232 C219 1.236 . S
N233 Mn217 2.282 . S
N233 C234 1.328 . S
N233 C238 1.318 . S
C234 N233 1.328 . S
C234 C235 1.457 . S
C234 H239 0.929 . S
C235 C234 1.457 . S
C235 C236 1.291 . S
C235 H248 0.931 . S
C236 C235 1.291 . S
C236 C237 1.373 . S
C236 H249 0.929 . S
C237 C236 1.373 . S
C237 C238 1.396 . S
C237 C244 1.403 . S
C238 C228 1.476 . S
C238 N233 1.318 . S
C238 C237 1.396 . S
H239 C234 0.929 . S
O240 Mn216 2.385 . S
O240 C218 1.234 . S
O241 Mn216 2.209 . S
O241 Mn217 2.215 . S
O241 C218 1.283 . S
O242 Mn216 2.094 . S
O242 C220 1.240 . S
O243 Mn217 2.117 . S
O243 C220 1.264 . S
C244 C237 1.403 . S
C244 C245 1.399 . S
C244 H250 0.929 . S
C245 C225 1.449 . S
C245 C244 1.399 . S
C245 H251 0.930 . S
H246 C226 0.931 . S
H247 C227 0.930 . S
H248 C235 0.931 . S
H249 C236 0.929 . S
H250 C244 0.929 . S
H251 C245 0.930 . S
Mn252 O257 2.095 1_556 S
Mn252 O267 2.162 . S
Mn252 O268 2.297 . S
Mn252 O276 2.385 . S
Mn252 O277 2.209 . S
Mn252 O278 2.094 . S
Mn253 O258 2.121 . S
Mn253 N260 2.257 1_655 S
Mn253 N269 2.282 1_654 S
Mn253 O277 2.215 1_554 S
Mn253 O279 2.117 1_554 S
C254 O276 1.234 . S
C254 O277 1.283 . S
C255 O267 1.281 . S
C255 O268 1.236 . S
C256 O278 1.240 . S
C256 O279 1.264 . S
O257 Mn252 2.095 1_554 S
O257 C266 1.250 . S
O258 Mn253 2.121 . S
O258 C266 1.258 . S
C259 N260 1.326 . S
C259 C263 1.460 . S
C259 H265 0.929 . S
N260 Mn253 2.257 1_455 S
N260 C259 1.326 . S
N260 C264 1.362 . S
C261 C262 1.258 . S
C261 C264 1.431 . S
C261 C281 1.449 . S
C262 C261 1.258 . S
C262 C263 1.477 . S
C262 H282 0.931 . S
C263 C259 1.460 . S
C263 C262 1.477 . S
C263 H283 0.930 . S
C264 N260 1.362 . S
C264 C261 1.431 . S
C264 C274 1.476 1_554 S
H265 C259 0.929 . S
C266 O257 1.250 . S
C266 O258 1.258 . S
O267 Mn252 2.162 . S
O267 C255 1.281 . S
O268 Mn252 2.297 . S
O268 C255 1.236 . S
N269 Mn253 2.282 1_456 S
N269 C270 1.328 . S
N269 C274 1.318 . S
C270 N269 1.328 . S
C270 C271 1.457 . S
C270 H275 0.929 . S
C271 C270 1.457 . S
C271 C272 1.291 . S
C271 H284 0.931 . S
C272 C271 1.291 . S
C272 C273 1.373 . S
C272 H285 0.929 . S
C273 C272 1.373 . S
C273 C274 1.396 . S
C273 C280 1.403 . S
C274 C264 1.476 1_556 S
C274 N269 1.318 . S
C274 C273 1.396 . S
H275 C270 0.929 . S
O276 Mn252 2.385 . S
O276 C254 1.234 . S
O277 Mn252 2.209 . S
O277 Mn253 2.215 1_556 S
O277 C254 1.283 . S
O278 Mn252 2.094 . S
O278 C256 1.240 . S
O279 Mn253 2.117 1_556 S
O279 C256 1.264 . S
C280 C273 1.403 . S
C280 C281 1.399 1_556 S
C280 H286 0.929 . S
C281 C261 1.449 . S
C281 C280 1.399 1_554 S
C281 H287 0.930 . S
H282 C262 0.931 . S
H283 C263 0.930 . S
H284 C271 0.931 . S
H285 C272 0.929 . S
H286 C280 0.929 . S
H287 C281 0.930 . S
Mn288 O293 2.095 . S
Mn288 O303 2.162 . S
Mn288 O304 2.297 . S
Mn288 O312 2.385 . S
Mn288 O313 2.209 . S
Mn288 O314 2.094 . S
Mn289 O294 2.121 . S
Mn289 N296 2.257 . S
Mn289 N305 2.282 . S
Mn289 O313 2.215 . S
Mn289 O315 2.117 . S
C290 O312 1.234 . S
C290 O313 1.283 . S
C291 O303 1.281 . S
C291 O304 1.236 . S
C292 O314 1.240 . S
C292 O315 1.264 . S
O293 Mn288 2.095 . S
O293 C302 1.250 . S
O294 Mn289 2.121 . S
O294 C302 1.258 . S
C295 N296 1.326 . S
C295 C299 1.460 . S
C295 H301 0.929 . S
N296 Mn289 2.257 . S
N296 C295 1.326 . S
N296 C300 1.362 . S
C297 C298 1.258 . S
C297 C300 1.431 . S
C297 C317 1.449 . S
C298 C297 1.258 . S
C298 C299 1.477 . S
C298 H318 0.931 . S
C299 C295 1.460 . S
C299 C298 1.477 . S
C299 H319 0.930 . S
C300 N296 1.362 . S
C300 C297 1.431 . S
C300 C310 1.476 . S
H301 C295 0.929 . S
C302 O293 1.250 . S
C302 O294 1.258 . S
O303 Mn288 2.162 . S
O303 C291 1.281 . S
O304 Mn288 2.297 . S
O304 C291 1.236 . S
N305 Mn289 2.282 . S
N305 C306 1.328 . S
N305 C310 1.318 . S
C306 N305 1.328 . S
C306 C307 1.457 . S
C306 H311 0.929 . S
C307 C306 1.457 . S
C307 C308 1.291 . S
C307 H320 0.931 . S
C308 C307 1.291 . S
C308 C309 1.373 . S
C308 H321 0.929 . S
C309 C308 1.373 . S
C309 C310 1.396 . S
C309 C316 1.403 . S
C310 C300 1.476 . S
C310 N305 1.318 . S
C310 C309 1.396 . S
H311 C306 0.929 . S
O312 Mn288 2.385 . S
O312 C290 1.234 . S
O313 Mn288 2.209 . S
O313 Mn289 2.215 . S
O313 C290 1.283 . S
O314 Mn288 2.094 . S
O314 C292 1.240 . S
O315 Mn289 2.117 . S
O315 C292 1.264 . S
C316 C309 1.403 . S
C316 C317 1.399 . S
C316 H322 0.929 . S
C317 C297 1.449 . S
C317 C316 1.399 . S
C317 H323 0.930 . S
H318 C298 0.931 . S
H319 C299 0.930 . S
H320 C307 0.931 . S
H321 C308 0.929 . S
H322 C316 0.929 . S
H323 C317 0.930 . S
Mn324 O329 2.095 . S
Mn324 O339 2.162 . S
Mn324 O340 2.297 . S
Mn324 O348 2.385 . S
Mn324 O349 2.209 . S
Mn324 O350 2.094 . S
Mn325 O330 2.121 . S
Mn325 N332 2.257 1_455 S
Mn325 N341 2.282 1_455 S
Mn325 O349 2.215 . S
Mn325 O351 2.117 . S
C326 O348 1.234 . S
C326 O349 1.283 . S
C327 O339 1.281 . S
C327 O340 1.236 . S
C328 O350 1.240 . S
C328 O351 1.264 . S
O329 Mn324 2.095 . S
O329 C338 1.250 . S
O330 Mn325 2.121 . S
O330 C338 1.258 . S
C331 N332 1.326 . S
C331 C335 1.460 . S
C331 H337 0.929 1_655 S
N332 Mn325 2.257 1_655 S
N332 C331 1.326 . S
N332 C336 1.362 . S
C333 C334 1.258 . S
C333 C336 1.431 . S
C333 C353 1.449 . S
C334 C333 1.258 . S
C334 C335 1.477 . S
C334 H354 0.931 . S
C335 C331 1.460 . S
C335 C334 1.477 . S
C335 H355 0.930 . S
C336 N332 1.362 . S
C336 C333 1.431 . S
C336 C346 1.476 . S
H337 C331 0.929 1_455 S
C338 O329 1.250 . S
C338 O330 1.258 . S
O339 Mn324 2.162 . S
O339 C327 1.281 . S
O340 Mn324 2.297 . S
O340 C327 1.236 . S
N341 Mn325 2.282 1_655 S
N341 C342 1.328 . S
N341 C346 1.318 . S
C342 N341 1.328 . S
C342 C343 1.457 . S
C342 H347 0.929 . S
C343 C342 1.457 . S
C343 C344 1.291 . S
C343 H356 0.931 . S
C344 C343 1.291 . S
C344 C345 1.373 . S
C344 H357 0.929 . S
C345 C344 1.373 . S
C345 C346 1.396 . S
C345 C352 1.403 . S
C346 C336 1.476 . S
C346 N341 1.318 . S
C346 C345 1.396 . S
H347 C342 0.929 . S
O348 Mn324 2.385 . S
O348 C326 1.234 . S
O349 Mn324 2.209 . S
O349 Mn325 2.215 . S
O349 C326 1.283 . S
O350 Mn324 2.094 . S
O350 C328 1.240 . S
O351 Mn325 2.117 . S
O351 C328 1.264 . S
C352 C345 1.403 . S
C352 C353 1.399 . S
C352 H358 0.929 . S
C353 C333 1.449 . S
C353 C352 1.399 . S
C353 H359 0.930 . S
H354 C334 0.931 . S
H355 C335 0.930 . S
H356 C343 0.931 . S
H357 C344 0.929 . S
H358 C352 0.929 . S
H359 C353 0.930 . S
Mn360 O365 2.095 . S
Mn360 O375 2.162 . S
Mn360 O376 2.297 . S
Mn360 O384 2.385 . S
Mn360 O385 2.209 . S
Mn360 O386 2.094 . S
Mn361 O366 2.121 . S
Mn361 N368 2.257 . S
Mn361 N377 2.282 . S
Mn361 O385 2.215 . S
Mn361 O387 2.117 . S
C362 O384 1.234 . S
C362 O385 1.283 . S
C363 O375 1.281 . S
C363 O376 1.236 . S
C364 O386 1.240 . S
C364 O387 1.264 . S
O365 Mn360 2.095 . S
O365 C374 1.250 . S
O366 Mn361 2.121 . S
O366 C374 1.258 . S
C367 N368 1.326 . S
C367 C371 1.460 . S
C367 H373 0.929 . S
N368 Mn361 2.257 . S
N368 C367 1.326 . S
N368 C372 1.362 . S
C369 C370 1.258 . S
C369 C372 1.431 . S
C369 C389 1.449 . S
C370 C369 1.258 . S
C370 C371 1.477 . S
C370 H390 0.931 . S
C371 C367 1.460 . S
C371 C370 1.477 . S
C371 H391 0.930 . S
C372 N368 1.362 . S
C372 C369 1.431 . S
C372 C382 1.476 . S
H373 C367 0.929 . S
C374 O365 1.250 . S
C374 O366 1.258 . S
O375 Mn360 2.162 . S
O375 C363 1.281 . S
O376 Mn360 2.297 . S
O376 C363 1.236 . S
N377 Mn361 2.282 . S
N377 C378 1.328 . S
N377 C382 1.318 . S
C378 N377 1.328 . S
C378 C379 1.457 . S
C378 H383 0.929 . S
C379 C378 1.457 . S
C379 C380 1.291 . S
C379 H392 0.931 . S
C380 C379 1.291 . S
C380 C381 1.373 . S
C380 H393 0.929 . S
C381 C380 1.373 . S
C381 C382 1.396 . S
C381 C388 1.403 . S
C382 C372 1.476 . S
C382 N377 1.318 . S
C382 C381 1.396 . S
H383 C378 0.929 . S
O384 Mn360 2.385 . S
O384 C362 1.234 . S
O385 Mn360 2.209 . S
O385 Mn361 2.215 . S
O385 C362 1.283 . S
O386 Mn360 2.094 . S
O386 C364 1.240 . S
O387 Mn361 2.117 . S
O387 C364 1.264 . S
C388 C381 1.403 . S
C388 C389 1.399 . S
C388 H394 0.929 . S
C389 C369 1.449 . S
C389 C388 1.399 . S
C389 H395 0.930 . S
H390 C370 0.931 . S
H391 C371 0.930 . S
H392 C379 0.931 . S
H393 C380 0.929 . S
H394 C388 0.929 . S
H395 C389 0.930 . S
Mn396 O401 2.095 . S
Mn396 O411 2.162 . S
Mn396 O412 2.297 . S
Mn396 O420 2.385 . S
Mn396 O421 2.209 . S
Mn396 O422 2.094 . S
Mn397 O402 2.121 . S
Mn397 N404 2.257 . S
Mn397 N413 2.282 1_554 S
Mn397 O421 2.215 1_554 S
Mn397 O423 2.117 1_554 S
C398 O420 1.234 . S
C398 O421 1.283 . S
C399 O411 1.281 . S
C399 O412 1.236 . S
C400 O422 1.240 . S
C400 O423 1.264 . S
O401 Mn396 2.095 . S
O401 C410 1.250 1_556 S
O402 Mn397 2.121 . S
O402 C410 1.258 . S
C403 N404 1.326 . S
C403 C407 1.460 . S
C403 H409 0.929 . S
N404 Mn397 2.257 . S
N404 C403 1.326 . S
N404 C408 1.362 . S
C405 C406 1.258 . S
C405 C408 1.431 . S
C405 C425 1.449 . S
C406 C405 1.258 . S
C406 C407 1.477 . S
C406 H426 0.931 . S
C407 C403 1.460 . S
C407 C406 1.477 . S
C407 H427 0.930 . S
C408 N404 1.362 . S
C408 C405 1.431 . S
C408 C418 1.476 1_554 S
H409 C403 0.929 . S
C410 O401 1.250 1_554 S
C410 O402 1.258 . S
O411 Mn396 2.162 . S
O411 C399 1.281 . S
O412 Mn396 2.297 . S
O412 C399 1.236 . S
N413 Mn397 2.282 1_556 S
N413 C414 1.328 . S
N413 C418 1.318 . S
C414 N413 1.328 . S
C414 C415 1.457 . S
C414 H419 0.929 . S
C415 C414 1.457 . S
C415 C416 1.291 . S
C415 H428 0.931 . S
C416 C415 1.291 . S
C416 C417 1.373 . S
C416 H429 0.929 . S
C417 C416 1.373 . S
C417 C418 1.396 . S
C417 C424 1.403 . S
C418 C408 1.476 1_556 S
C418 N413 1.318 . S
C418 C417 1.396 . S
H419 C414 0.929 . S
O420 Mn396 2.385 . S
O420 C398 1.234 . S
O421 Mn396 2.209 . S
O421 Mn397 2.215 1_556 S
O421 C398 1.283 . S
O422 Mn396 2.094 . S
O422 C400 1.240 . S
O423 Mn397 2.117 1_556 S
O423 C400 1.264 . S
C424 C417 1.403 . S
C424 C425 1.399 1_556 S
C424 H430 0.929 . S
C425 C405 1.449 . S
C425 C424 1.399 1_554 S
C425 H431 0.930 . S
H426 C406 0.931 . S
H427 C407 0.930 . S
H428 C415 0.931 . S
H429 C416 0.929 . S
H430 C424 0.929 . S
H431 C425 0.930 . S
Mn432 O437 2.095 . S
Mn432 O447 2.162 . S
Mn432 O448 2.297 . S
Mn432 O456 2.385 . S
Mn432 O457 2.209 . S
Mn432 O458 2.094 . S
Mn433 O438 2.121 . S
Mn433 N440 2.257 . S
Mn433 N449 2.282 . S
Mn433 O457 2.215 . S
Mn433 O459 2.117 . S
C434 O456 1.234 . S
C434 O457 1.283 . S
C435 O447 1.281 . S
C435 O448 1.236 . S
C436 O458 1.240 . S
C436 O459 1.264 . S
O437 Mn432 2.095 . S
O437 C446 1.250 . S
O438 Mn433 2.121 . S
O438 C446 1.258 . S
C439 N440 1.326 . S
C439 C443 1.460 . S
C439 H445 0.929 . S
N440 Mn433 2.257 . S
N440 C439 1.326 . S
N440 C444 1.362 . S
C441 C442 1.258 . S
C441 C444 1.431 . S
C441 C461 1.449 . S
C442 C441 1.258 . S
C442 C443 1.477 . S
C442 H462 0.931 . S
C443 C439 1.460 . S
C443 C442 1.477 . S
C443 H463 0.930 . S
C444 N440 1.362 . S
C444 C441 1.431 . S
C444 C454 1.476 . S
H445 C439 0.929 . S
C446 O437 1.250 . S
C446 O438 1.258 . S
O447 Mn432 2.162 . S
O447 C435 1.281 . S
O448 Mn432 2.297 . S
O448 C435 1.236 . S
N449 Mn433 2.282 . S
N449 C450 1.328 . S
N449 C454 1.318 . S
C450 N449 1.328 . S
C450 C451 1.457 . S
C450 H455 0.929 . S
C451 C450 1.457 . S
C451 C452 1.291 . S
C451 H464 0.931 . S
C452 C451 1.291 . S
C452 C453 1.373 . S
C452 H465 0.929 . S
C453 C452 1.373 . S
C453 C454 1.396 . S
C453 C460 1.403 . S
C454 C444 1.476 . S
C454 N449 1.318 . S
C454 C453 1.396 . S
H455 C450 0.929 . S
O456 Mn432 2.385 . S
O456 C434 1.234 . S
O457 Mn432 2.209 . S
O457 Mn433 2.215 . S
O457 C434 1.283 . S
O458 Mn432 2.094 . S
O458 C436 1.240 . S
O459 Mn433 2.117 . S
O459 C436 1.264 . S
C460 C453 1.403 . S
C460 C461 1.399 . S
C460 H466 0.929 . S
C461 C441 1.449 . S
C461 C460 1.399 . S
C461 H467 0.930 . S
H462 C442 0.931 . S
H463 C443 0.930 . S
H464 C451 0.931 . S
H465 C452 0.929 . S
H466 C460 0.929 . S
H467 C461 0.930 . S
Mn468 O473 2.095 . S
Mn468 O483 2.162 . S
Mn468 O484 2.297 . S
Mn468 O492 2.385 . S
Mn468 O493 2.209 . S
Mn468 O494 2.094 . S
Mn469 O474 2.121 . S
Mn469 N476 2.257 . S
Mn469 N485 2.282 . S
Mn469 O493 2.215 . S
Mn469 O495 2.117 . S
C470 O492 1.234 . S
C470 O493 1.283 . S
C471 O483 1.281 . S
C471 O484 1.236 . S
C472 O494 1.240 . S
C472 O495 1.264 . S
O473 Mn468 2.095 . S
O473 C482 1.250 . S
O474 Mn469 2.121 . S
O474 C482 1.258 . S
C475 N476 1.326 . S
C475 C479 1.460 . S
C475 H481 0.929 . S
N476 Mn469 2.257 . S
N476 C475 1.326 . S
N476 C480 1.362 . S
C477 C478 1.258 . S
C477 C480 1.431 . S
C477 C497 1.449 . S
C478 C477 1.258 . S
C478 C479 1.477 . S
C478 H498 0.931 . S
C479 C475 1.460 . S
C479 C478 1.477 . S
C479 H499 0.930 . S
C480 N476 1.362 . S
C480 C477 1.431 . S
C480 C490 1.476 . S
H481 C475 0.929 . S
C482 O473 1.250 . S
C482 O474 1.258 . S
O483 Mn468 2.162 . S
O483 C471 1.281 . S
O484 Mn468 2.297 . S
O484 C471 1.236 . S
N485 Mn469 2.282 . S
N485 C486 1.328 . S
N485 C490 1.318 . S
C486 N485 1.328 . S
C486 C487 1.457 . S
C486 H491 0.929 . S
C487 C486 1.457 . S
C487 C488 1.291 . S
C487 H500 0.931 . S
C488 C487 1.291 . S
C488 C489 1.373 . S
C488 H501 0.929 . S
C489 C488 1.373 . S
C489 C490 1.396 . S
C489 C496 1.403 . S
C490 C480 1.476 . S
C490 N485 1.318 . S
C490 C489 1.396 . S
H491 C486 0.929 . S
O492 Mn468 2.385 . S
O492 C470 1.234 . S
O493 Mn468 2.209 . S
O493 Mn469 2.215 . S
O493 C470 1.283 . S
O494 Mn468 2.094 . S
O494 C472 1.240 . S
O495 Mn469 2.117 . S
O495 C472 1.264 . S
C496 C489 1.403 . S
C496 C497 1.399 . S
C496 H502 0.929 . S
C497 C477 1.449 . S
C497 C496 1.399 . S
C497 H503 0.930 . S
H498 C478 0.931 . S
H499 C479 0.930 . S
H500 C487 0.931 . S
H501 C488 0.929 . S
H502 C496 0.929 . S
H503 C497 0.930 . S
Mn504 O509 2.095 . S
Mn504 O519 2.162 . S
Mn504 O520 2.297 . S
Mn504 O528 2.385 . S
Mn504 O529 2.209 . S
Mn504 O530 2.094 . S
Mn505 O510 2.121 . S
Mn505 N512 2.257 . S
Mn505 N521 2.282 . S
Mn505 O529 2.215 . S
Mn505 O531 2.117 . S
C506 O528 1.234 . S
C506 O529 1.283 . S
C507 O519 1.281 . S
C507 O520 1.236 . S
C508 O530 1.240 . S
C508 O531 1.264 . S
O509 Mn504 2.095 . S
O509 C518 1.250 . S
O510 Mn505 2.121 . S
O510 C518 1.258 . S
C511 N512 1.326 . S
C511 C515 1.460 . S
C511 H517 0.929 . S
N512 Mn505 2.257 . S
N512 C511 1.326 . S
N512 C516 1.362 . S
C513 C514 1.258 . S
C513 C516 1.431 . S
C513 C533 1.449 . S
C514 C513 1.258 . S
C514 C515 1.477 . S
C514 H534 0.931 . S
C515 C511 1.460 . S
C515 C514 1.477 . S
C515 H535 0.930 . S
C516 N512 1.362 . S
C516 C513 1.431 . S
C516 C526 1.476 . S
H517 C511 0.929 . S
C518 O509 1.250 . S
C518 O510 1.258 . S
O519 Mn504 2.162 . S
O519 C507 1.281 . S
O520 Mn504 2.297 . S
O520 C507 1.236 . S
N521 Mn505 2.282 . S
N521 C522 1.328 . S
N521 C526 1.318 . S
C522 N521 1.328 . S
C522 C523 1.457 . S
C522 H527 0.929 . S
C523 C522 1.457 . S
C523 C524 1.291 . S
C523 H536 0.931 . S
C524 C523 1.291 . S
C524 C525 1.373 . S
C524 H537 0.929 . S
C525 C524 1.373 . S
C525 C526 1.396 . S
C525 C532 1.403 . S
C526 C516 1.476 . S
C526 N521 1.318 . S
C526 C525 1.396 . S
H527 C522 0.929 . S
O528 Mn504 2.385 . S
O528 C506 1.234 . S
O529 Mn504 2.209 . S
O529 Mn505 2.215 . S
O529 C506 1.283 . S
O530 Mn504 2.094 . S
O530 C508 1.240 . S
O531 Mn505 2.117 . S
O531 C508 1.264 . S
C532 C525 1.403 . S
C532 C533 1.399 . S
C532 H538 0.929 . S
C533 C513 1.449 . S
C533 C532 1.399 . S
C533 H539 0.930 . S
H534 C514 0.931 . S
H535 C515 0.930 . S
H536 C523 0.931 . S
H537 C524 0.929 . S
H538 C532 0.929 . S
H539 C533 0.930 . S
Mn540 O545 2.095 . S
Mn540 O555 2.162 . S
Mn540 O556 2.297 . S
Mn540 O564 2.385 . S
Mn540 O565 2.209 . S
Mn540 O566 2.094 . S
Mn541 O546 2.121 . S
Mn541 N548 2.257 1_455 S
Mn541 N557 2.282 1_456 S
Mn541 O565 2.215 1_556 S
Mn541 O567 2.117 1_556 S
C542 O564 1.234 . S
C542 O565 1.283 . S
C543 O555 1.281 . S
C543 O556 1.236 . S
C544 O566 1.240 . S
C544 O567 1.264 . S
O545 Mn540 2.095 . S
O545 C554 1.250 1_554 S
O546 Mn541 2.121 . S
O546 C554 1.258 . S
C547 N548 1.326 . S
C547 C551 1.460 . S
C547 H553 0.929 1_655 S
N548 Mn541 2.257 1_655 S
N548 C547 1.326 . S
N548 C552 1.362 . S
C549 C550 1.258 . S
C549 C552 1.431 . S
C549 C569 1.449 . S
C550 C549 1.258 . S
C550 C551 1.477 . S
C550 H570 0.931 . S
C551 C547 1.460 . S
C551 C550 1.477 . S
C551 H571 0.930 . S
C552 N548 1.362 . S
C552 C549 1.431 . S
C552 C562 1.476 1_556 S
H553 C547 0.929 1_455 S
C554 O545 1.250 1_556 S
C554 O546 1.258 . S
O555 Mn540 2.162 . S
O555 C543 1.281 . S
O556 Mn540 2.297 . S
O556 C543 1.236 . S
N557 Mn541 2.282 1_654 S
N557 C558 1.328 . S
N557 C562 1.318 . S
C558 N557 1.328 . S
C558 C559 1.457 . S
C558 H563 0.929 . S
C559 C558 1.457 . S
C559 C560 1.291 . S
C559 H572 0.931 . S
C560 C559 1.291 . S
C560 C561 1.373 . S
C560 H573 0.929 . S
C561 C560 1.373 . S
C561 C562 1.396 . S
C561 C568 1.403 . S
C562 C552 1.476 1_554 S
C562 N557 1.318 . S
C562 C561 1.396 . S
H563 C558 0.929 . S
O564 Mn540 2.385 . S
O564 C542 1.234 . S
O565 Mn540 2.209 . S
O565 Mn541 2.215 1_554 S
O565 C542 1.283 . S
O566 Mn540 2.094 . S
O566 C544 1.240 . S
O567 Mn541 2.117 1_554 S
O567 C544 1.264 . S
C568 C561 1.403 . S
C568 C569 1.399 1_554 S
C568 H574 0.929 . S
C569 C549 1.449 . S
C569 C568 1.399 1_556 S
C569 H575 0.930 . S
H570 C550 0.931 . S
H571 C551 0.930 . S
H572 C559 0.931 . S
H573 C560 0.929 . S
H574 C568 0.929 . S
H575 C569 0.930 . S
Mn576 O581 2.095 . S
Mn576 O591 2.162 . S
Mn576 O592 2.297 . S
Mn576 O600 2.385 . S
Mn576 O601 2.209 . S
Mn576 O602 2.094 . S
Mn577 O582 2.121 . S
Mn577 N584 2.257 . S
Mn577 N593 2.282 . S
Mn577 O601 2.215 . S
Mn577 O603 2.117 . S
C578 O600 1.234 . S
C578 O601 1.283 . S
C579 O591 1.281 . S
C579 O592 1.236 . S
C580 O602 1.240 . S
C580 O603 1.264 . S
O581 Mn576 2.095 . S
O581 C590 1.250 . S
O582 Mn577 2.121 . S
O582 C590 1.258 . S
C583 N584 1.326 . S
C583 C587 1.460 . S
C583 H589 0.929 . S
N584 Mn577 2.257 . S
N584 C583 1.326 . S
N584 C588 1.362 . S
C585 C586 1.258 . S
C585 C588 1.431 . S
C585 C605 1.449 . S
C586 C585 1.258 . S
C586 C587 1.477 . S
C586 H606 0.931 . S
C587 C583 1.460 . S
C587 C586 1.477 . S
C587 H607 0.930 . S
C588 N584 1.362 . S
C588 C585 1.431 . S
C588 C598 1.476 . S
H589 C583 0.929 . S
C590 O581 1.250 . S
C590 O582 1.258 . S
O591 Mn576 2.162 . S
O591 C579 1.281 . S
O592 Mn576 2.297 . S
O592 C579 1.236 . S
N593 Mn577 2.282 . S
N593 C594 1.328 . S
N593 C598 1.318 . S
C594 N593 1.328 . S
C594 C595 1.457 . S
C594 H599 0.929 . S
C595 C594 1.457 . S
C595 C596 1.291 . S
C595 H608 0.931 . S
C596 C595 1.291 . S
C596 C597 1.373 . S
C596 H609 0.929 . S
C597 C596 1.373 . S
C597 C598 1.396 . S
C597 C604 1.403 . S
C598 C588 1.476 . S
C598 N593 1.318 . S
C598 C597 1.396 . S
H599 C594 0.929 . S
O600 Mn576 2.385 . S
O600 C578 1.234 . S
O601 Mn576 2.209 . S
O601 Mn577 2.215 . S
O601 C578 1.283 . S
O602 Mn576 2.094 . S
O602 C580 1.240 . S
O603 Mn577 2.117 . S
O603 C580 1.264 . S
C604 C597 1.403 . S
C604 C605 1.399 . S
C604 H610 0.929 . S
C605 C585 1.449 . S
C605 C604 1.399 . S
C605 H611 0.930 . S
H606 C586 0.931 . S
H607 C587 0.930 . S
H608 C595 0.931 . S
H609 C596 0.929 . S
H610 C604 0.929 . S
H611 C605 0.930 . S
Mn612 O617 2.095 1_554 S
Mn612 O627 2.162 . S
Mn612 O628 2.297 . S
Mn612 O636 2.385 . S
Mn612 O637 2.209 . S
Mn612 O638 2.094 . S
Mn613 O618 2.121 . S
Mn613 N620 2.257 . S
Mn613 N629 2.282 1_556 S
Mn613 O637 2.215 1_556 S
Mn613 O639 2.117 1_556 S
C614 O636 1.234 . S
C614 O637 1.283 . S
C615 O627 1.281 . S
C615 O628 1.236 . S
C616 O638 1.240 . S
C616 O639 1.264 . S
O617 Mn612 2.095 1_556 S
O617 C626 1.250 . S
O618 Mn613 2.121 . S
O618 C626 1.258 . S
C619 N620 1.326 . S
C619 C623 1.460 . S
C619 H625 0.929 . S
N620 Mn613 2.257 . S
N620 C619 1.326 . S
N620 C624 1.362 . S
C621 C622 1.258 . S
C621 C624 1.431 . S
C621 C641 1.449 . S
C622 C621 1.258 . S
C622 C623 1.477 . S
C622 H642 0.931 . S
C623 C619 1.460 . S
C623 C622 1.477 . S
C623 H643 0.930 . S
C624 N620 1.362 . S
C624 C621 1.431 . S
C624 C634 1.476 1_556 S
H625 C619 0.929 . S
C626 O617 1.250 . S
C626 O618 1.258 . S
O627 Mn612 2.162 . S
O627 C615 1.281 . S
O628 Mn612 2.297 . S
O628 C615 1.236 . S
N629 Mn613 2.282 1_554 S
N629 C630 1.328 . S
N629 C634 1.318 . S
C630 N629 1.328 . S
C630 C631 1.457 . S
C630 H635 0.929 . S
C631 C630 1.457 . S
C631 C632 1.291 . S
C631 H644 0.931 . S
C632 C631 1.291 . S
C632 C633 1.373 . S
C632 H645 0.929 . S
C633 C632 1.373 . S
C633 C634 1.396 . S
C633 C640 1.403 . S
C634 C624 1.476 1_554 S
C634 N629 1.318 . S
C634 C633 1.396 . S
H635 C630 0.929 . S
O636 Mn612 2.385 . S
O636 C614 1.234 . S
O637 Mn612 2.209 . S
O637 Mn613 2.215 1_554 S
O637 C614 1.283 . S
O638 Mn612 2.094 . S
O638 C616 1.240 . S
O639 Mn613 2.117 1_554 S
O639 C616 1.264 . S
C640 C633 1.403 . S
C640 C641 1.399 1_554 S
C640 H646 0.929 . S
C641 C621 1.449 . S
C641 C640 1.399 1_556 S
C641 H647 0.930 . S
H642 C622 0.931 . S
H643 C623 0.930 . S
H644 C631 0.931 . S
H645 C632 0.929 . S
H646 C640 0.929 . S
H647 C641 0.930 . S
Mn648 O653 2.095 . S
Mn648 O663 2.162 . S
Mn648 O664 2.297 . S
Mn648 O672 2.385 . S
Mn648 O673 2.209 . S
Mn648 O674 2.094 . S
Mn649 O654 2.121 . S
Mn649 N656 2.257 . S
Mn649 N665 2.282 . S
Mn649 O673 2.215 . S
Mn649 O675 2.117 . S
C650 O672 1.234 . S
C650 O673 1.283 . S
C651 O663 1.281 . S
C651 O664 1.236 . S
C652 O674 1.240 . S
C652 O675 1.264 . S
O653 Mn648 2.095 . S
O653 C662 1.250 . S
O654 Mn649 2.121 . S
O654 C662 1.258 . S
C655 N656 1.326 . S
C655 C659 1.460 . S
C655 H661 0.929 . S
N656 Mn649 2.257 . S
N656 C655 1.326 . S
N656 C660 1.362 . S
C657 C658 1.258 . S
C657 C660 1.431 . S
C657 C677 1.449 . S
C658 C657 1.258 . S
C658 C659 1.477 . S
C658 H678 0.931 . S
C659 C655 1.460 . S
C659 C658 1.477 . S
C659 H679 0.930 . S
C660 N656 1.362 . S
C660 C657 1.431 . S
C660 C670 1.476 . S
H661 C655 0.929 . S
C662 O653 1.250 . S
C662 O654 1.258 . S
O663 Mn648 2.162 . S
O663 C651 1.281 . S
O664 Mn648 2.297 . S
O664 C651 1.236 . S
N665 Mn649 2.282 . S
N665 C666 1.328 . S
N665 C670 1.318 . S
C666 N665 1.328 . S
C666 C667 1.457 . S
C666 H671 0.929 . S
C667 C666 1.457 . S
C667 C668 1.291 . S
C667 H680 0.931 . S
C668 C667 1.291 . S
C668 C669 1.373 . S
C668 H681 0.929 . S
C669 C668 1.373 . S
C669 C670 1.396 . S
C669 C676 1.403 . S
C670 C660 1.476 . S
C670 N665 1.318 . S
C670 C669 1.396 . S
H671 C666 0.929 . S
O672 Mn648 2.385 . S
O672 C650 1.234 . S
O673 Mn648 2.209 . S
O673 Mn649 2.215 . S
O673 C650 1.283 . S
O674 Mn648 2.094 . S
O674 C652 1.240 . S
O675 Mn649 2.117 . S
O675 C652 1.264 . S
C676 C669 1.403 . S
C676 C677 1.399 . S
C676 H682 0.929 . S
C677 C657 1.449 . S
C677 C676 1.399 . S
C677 H683 0.930 . S
H678 C658 0.931 . S
H679 C659 0.930 . S
H680 C667 0.931 . S
H681 C668 0.929 . S
H682 C676 0.929 . S
H683 C677 0.930 . S
Mn684 O689 2.095 . S
Mn684 O699 2.162 . S
Mn684 O700 2.297 . S
Mn684 O708 2.385 . S
Mn684 O709 2.209 . S
Mn684 O710 2.094 . S
Mn685 O690 2.121 . S
Mn685 N692 2.257 1_455 S
Mn685 N701 2.282 1_455 S
Mn685 O709 2.215 . S
Mn685 O711 2.117 . S
C686 O708 1.234 . S
C686 O709 1.283 . S
C687 O699 1.281 . S
C687 O700 1.236 . S
C688 O710 1.240 . S
C688 O711 1.264 . S
O689 Mn684 2.095 . S
O689 C698 1.250 . S
O690 Mn685 2.121 . S
O690 C698 1.258 . S
C691 N692 1.326 . S
C691 C695 1.460 . S
C691 H697 0.929 . S
N692 Mn685 2.257 1_655 S
N692 C691 1.326 . S
N692 C696 1.362 . S
C693 C694 1.258 . S
C693 C696 1.431 . S
C693 C713 1.449 . S
C694 C693 1.258 . S
C694 C695 1.477 . S
C694 H714 0.931 . S
C695 C691 1.460 . S
C695 C694 1.477 . S
C695 H715 0.930 . S
C696 N692 1.362 . S
C696 C693 1.431 . S
C696 C706 1.476 . S
H697 C691 0.929 . S
C698 O689 1.250 . S
C698 O690 1.258 . S
O699 Mn684 2.162 . S
O699 C687 1.281 . S
O700 Mn684 2.297 . S
O700 C687 1.236 . S
N701 Mn685 2.282 1_655 S
N701 C702 1.328 . S
N701 C706 1.318 . S
C702 N701 1.328 . S
C702 C703 1.457 . S
C702 H707 0.929 . S
C703 C702 1.457 . S
C703 C704 1.291 . S
C703 H716 0.931 . S
C704 C703 1.291 . S
C704 C705 1.373 . S
C704 H717 0.929 . S
C705 C704 1.373 . S
C705 C706 1.396 . S
C705 C712 1.403 . S
C706 C696 1.476 . S
C706 N701 1.318 . S
C706 C705 1.396 . S
H707 C702 0.929 . S
O708 Mn684 2.385 . S
O708 C686 1.234 . S
O709 Mn684 2.209 . S
O709 Mn685 2.215 . S
O709 C686 1.283 . S
O710 Mn684 2.094 . S
O710 C688 1.240 . S
O711 Mn685 2.117 . S
O711 C688 1.264 . S
C712 C705 1.403 . S
C712 C713 1.399 . S
C712 H718 0.929 . S
C713 C693 1.449 . S
C713 C712 1.399 . S
C713 H719 0.930 . S
H714 C694 0.931 . S
H715 C695 0.930 . S
H716 C703 0.931 . S
H717 C704 0.929 . S
H718 C712 0.929 . S
H719 C713 0.930 . S
Mn720 O725 2.095 . S
Mn720 O735 2.162 . S
Mn720 O736 2.297 . S
Mn720 O744 2.385 . S
Mn720 O745 2.209 . S
Mn720 O746 2.094 . S
Mn721 O726 2.121 . S
Mn721 N728 2.257 . S
Mn721 N737 2.282 . S
Mn721 O745 2.215 . S
Mn721 O747 2.117 . S
C722 O744 1.234 . S
C722 O745 1.283 . S
C723 O735 1.281 . S
C723 O736 1.236 . S
C724 O746 1.240 . S
C724 O747 1.264 . S
O725 Mn720 2.095 . S
O725 C734 1.250 . S
O726 Mn721 2.121 . S
O726 C734 1.258 . S
C727 N728 1.326 . S
C727 C731 1.460 . S
C727 H733 0.929 . S
N728 Mn721 2.257 . S
N728 C727 1.326 . S
N728 C732 1.362 . S
C729 C730 1.258 . S
C729 C732 1.431 . S
C729 C749 1.449 . S
C730 C729 1.258 . S
C730 C731 1.477 . S
C730 H750 0.931 . S
C731 C727 1.460 . S
C731 C730 1.477 . S
C731 H751 0.930 . S
C732 N728 1.362 . S
C732 C729 1.431 . S
C732 C742 1.476 . S
H733 C727 0.929 . S
C734 O725 1.250 . S
C734 O726 1.258 . S
O735 Mn720 2.162 . S
O735 C723 1.281 . S
O736 Mn720 2.297 . S
O736 C723 1.236 . S
N737 Mn721 2.282 . S
N737 C738 1.328 . S
N737 C742 1.318 . S
C738 N737 1.328 . S
C738 C739 1.457 . S
C738 H743 0.929 . S
C739 C738 1.457 . S
C739 C740 1.291 . S
C739 H752 0.931 . S
C740 C739 1.291 . S
C740 C741 1.373 . S
C740 H753 0.929 . S
C741 C740 1.373 . S
C741 C742 1.396 . S
C741 C748 1.403 . S
C742 C732 1.476 . S
C742 N737 1.318 . S
C742 C741 1.396 . S
H743 C738 0.929 . S
O744 Mn720 2.385 . S
O744 C722 1.234 . S
O745 Mn720 2.209 . S
O745 Mn721 2.215 . S
O745 C722 1.283 . S
O746 Mn720 2.094 . S
O746 C724 1.240 . S
O747 Mn721 2.117 . S
O747 C724 1.264 . S
C748 C741 1.403 . S
C748 C749 1.399 . S
C748 H754 0.929 . S
C749 C729 1.449 . S
C749 C748 1.399 . S
C749 H755 0.930 . S
H750 C730 0.931 . S
H751 C731 0.930 . S
H752 C739 0.931 . S
H753 C740 0.929 . S
H754 C748 0.929 . S
H755 C749 0.930 . S
Mn756 O761 2.095 1_556 S
Mn756 O771 2.162 . S
Mn756 O772 2.297 . S
Mn756 O780 2.385 . S
Mn756 O781 2.209 . S
Mn756 O782 2.094 . S
Mn757 O762 2.121 . S
Mn757 N764 2.257 1_455 S
Mn757 N773 2.282 1_454 S
Mn757 O781 2.215 1_554 S
Mn757 O783 2.117 1_554 S
C758 O780 1.234 . S
C758 O781 1.283 . S
C759 O771 1.281 . S
C759 O772 1.236 . S
C760 O782 1.240 . S
C760 O783 1.264 . S
O761 Mn756 2.095 1_554 S
O761 C770 1.250 . S
O762 Mn757 2.121 . S
O762 C770 1.258 . S
C763 N764 1.326 . S
C763 C767 1.460 . S
C763 H769 0.929 . S
N764 Mn757 2.257 1_655 S
N764 C763 1.326 . S
N764 C768 1.362 . S
C765 C766 1.258 . S
C765 C768 1.431 . S
C765 C785 1.449 . S
C766 C765 1.258 . S
C766 C767 1.477 . S
C766 H786 0.931 . S
C767 C763 1.460 . S
C767 C766 1.477 . S
C767 H787 0.930 . S
C768 N764 1.362 . S
C768 C765 1.431 . S
C768 C778 1.476 1_554 S
H769 C763 0.929 . S
C770 O761 1.250 . S
C770 O762 1.258 . S
O771 Mn756 2.162 . S
O771 C759 1.281 . S
O772 Mn756 2.297 . S
O772 C759 1.236 . S
N773 Mn757 2.282 1_656 S
N773 C774 1.328 . S
N773 C778 1.318 . S
C774 N773 1.328 . S
C774 C775 1.457 . S
C774 H779 0.929 . S
C775 C774 1.457 . S
C775 C776 1.291 . S
C775 H788 0.931 . S
C776 C775 1.291 . S
C776 C777 1.373 . S
C776 H789 0.929 . S
C777 C776 1.373 . S
C777 C778 1.396 . S
C777 C784 1.403 . S
C778 C768 1.476 1_556 S
C778 N773 1.318 . S
C778 C777 1.396 . S
H779 C774 0.929 . S
O780 Mn756 2.385 . S
O780 C758 1.234 . S
O781 Mn756 2.209 . S
O781 Mn757 2.215 1_556 S
O781 C758 1.283 . S
O782 Mn756 2.094 . S
O782 C760 1.240 . S
O783 Mn757 2.117 1_556 S
O783 C760 1.264 . S
C784 C777 1.403 . S
C784 C785 1.399 1_556 S
C784 H790 0.929 . S
C785 C765 1.449 . S
C785 C784 1.399 1_554 S
C785 H791 0.930 . S
H786 C766 0.931 . S
H787 C767 0.930 . S
H788 C775 0.931 . S
H789 C776 0.929 . S
H790 C784 0.929 . S
H791 C785 0.930 . S
Mn792 O797 2.095 . S
Mn792 O807 2.162 . S
Mn792 O808 2.297 . S
Mn792 O816 2.385 . S
Mn792 O817 2.209 . S
Mn792 O818 2.094 . S
Mn793 O798 2.121 . S
Mn793 N800 2.257 . S
Mn793 N809 2.282 . S
Mn793 O817 2.215 . S
Mn793 O819 2.117 . S
C794 O816 1.234 . S
C794 O817 1.283 . S
C795 O807 1.281 . S
C795 O808 1.236 . S
C796 O818 1.240 . S
C796 O819 1.264 . S
O797 Mn792 2.095 . S
O797 C806 1.250 . S
O798 Mn793 2.121 . S
O798 C806 1.258 . S
C799 N800 1.326 . S
C799 C803 1.460 . S
C799 H805 0.929 . S
N800 Mn793 2.257 . S
N800 C799 1.326 . S
N800 C804 1.362 . S
C801 C802 1.258 . S
C801 C804 1.431 . S
C801 C821 1.449 . S
C802 C801 1.258 . S
C802 C803 1.477 . S
C802 H822 0.931 . S
C803 C799 1.460 . S
C803 C802 1.477 . S
C803 H823 0.930 . S
C804 N800 1.362 . S
C804 C801 1.431 . S
C804 C814 1.476 . S
H805 C799 0.929 . S
C806 O797 1.250 . S
C806 O798 1.258 . S
O807 Mn792 2.162 . S
O807 C795 1.281 . S
O808 Mn792 2.297 . S
O808 C795 1.236 . S
N809 Mn793 2.282 . S
N809 C810 1.328 . S
N809 C814 1.318 . S
C810 N809 1.328 . S
C810 C811 1.457 . S
C810 H815 0.929 . S
C811 C810 1.457 . S
C811 C812 1.291 . S
C811 H824 0.931 . S
C812 C811 1.291 . S
C812 C813 1.373 . S
C812 H825 0.929 . S
C813 C812 1.373 . S
C813 C814 1.396 . S
C813 C820 1.403 . S
C814 C804 1.476 . S
C814 N809 1.318 . S
C814 C813 1.396 . S
H815 C810 0.929 . S
O816 Mn792 2.385 . S
O816 C794 1.234 . S
O817 Mn792 2.209 . S
O817 Mn793 2.215 . S
O817 C794 1.283 . S
O818 Mn792 2.094 . S
O818 C796 1.240 . S
O819 Mn793 2.117 . S
O819 C796 1.264 . S
C820 C813 1.403 . S
C820 C821 1.399 . S
C820 H826 0.929 . S
C821 C801 1.449 . S
C821 C820 1.399 . S
C821 H827 0.930 . S
H822 C802 0.931 . S
H823 C803 0.930 . S
H824 C811 0.931 . S
H825 C812 0.929 . S
H826 C820 0.929 . S
H827 C821 0.930 . S
Mn828 O833 2.095 . S
Mn828 O843 2.162 . S
Mn828 O844 2.297 . S
Mn828 O852 2.385 . S
Mn828 O853 2.209 . S
Mn828 O854 2.094 . S
Mn829 O834 2.121 . S
Mn829 N836 2.257 . S
Mn829 N845 2.282 . S
Mn829 O853 2.215 . S
Mn829 O855 2.117 . S
C830 O852 1.234 . S
C830 O853 1.283 . S
C831 O843 1.281 . S
C831 O844 1.236 . S
C832 O854 1.240 . S
C832 O855 1.264 . S
O833 Mn828 2.095 . S
O833 C842 1.250 . S
O834 Mn829 2.121 . S
O834 C842 1.258 . S
C835 N836 1.326 . S
C835 C839 1.460 . S
C835 H841 0.929 . S
N836 Mn829 2.257 . S
N836 C835 1.326 . S
N836 C840 1.362 . S
C837 C838 1.258 . S
C837 C840 1.431 . S
C837 C857 1.449 . S
C838 C837 1.258 . S
C838 C839 1.477 . S
C838 H858 0.931 . S
C839 C835 1.460 . S
C839 C838 1.477 . S
C839 H859 0.930 . S
C840 N836 1.362 . S
C840 C837 1.431 . S
C840 C850 1.476 . S
H841 C835 0.929 . S
C842 O833 1.250 . S
C842 O834 1.258 . S
O843 Mn828 2.162 . S
O843 C831 1.281 . S
O844 Mn828 2.297 . S
O844 C831 1.236 . S
N845 Mn829 2.282 . S
N845 C846 1.328 . S
N845 C850 1.318 . S
C846 N845 1.328 . S
C846 C847 1.457 . S
C846 H851 0.929 . S
C847 C846 1.457 . S
C847 C848 1.291 . S
C847 H860 0.931 . S
C848 C847 1.291 . S
C848 C849 1.373 . S
C848 H861 0.929 . S
C849 C848 1.373 . S
C849 C850 1.396 . S
C849 C856 1.403 . S
C850 C840 1.476 . S
C850 N845 1.318 . S
C850 C849 1.396 . S
H851 C846 0.929 . S
O852 Mn828 2.385 . S
O852 C830 1.234 . S
O853 Mn828 2.209 . S
O853 Mn829 2.215 . S
O853 C830 1.283 . S
O854 Mn828 2.094 . S
O854 C832 1.240 . S
O855 Mn829 2.117 . S
O855 C832 1.264 . S
C856 C849 1.403 . S
C856 C857 1.399 . S
C856 H862 0.929 . S
C857 C837 1.449 . S
C857 C856 1.399 . S
C857 H863 0.930 . S
H858 C838 0.931 . S
H859 C839 0.930 . S
H860 C847 0.931 . S
H861 C848 0.929 . S
H862 C856 0.929 . S
H863 C857 0.930 . S
Mn864 O869 2.095 . S
Mn864 O879 2.162 . S
Mn864 O880 2.297 . S
Mn864 O888 2.385 . S
Mn864 O889 2.209 . S
Mn864 O890 2.094 . S
Mn865 O870 2.121 . S
Mn865 N872 2.257 . S
Mn865 N881 2.282 . S
Mn865 O889 2.215 . S
Mn865 O891 2.117 . S
C866 O888 1.234 . S
C866 O889 1.283 . S
C867 O879 1.281 . S
C867 O880 1.236 . S
C868 O890 1.240 . S
C868 O891 1.264 . S
O869 Mn864 2.095 . S
O869 C878 1.250 . S
O870 Mn865 2.121 . S
O870 C878 1.258 . S
C871 N872 1.326 . S
C871 C875 1.460 . S
C871 H877 0.929 . S
N872 Mn865 2.257 . S
N872 C871 1.326 . S
N872 C876 1.362 . S
C873 C874 1.258 . S
C873 C876 1.431 . S
C873 C893 1.449 . S
C874 C873 1.258 . S
C874 C875 1.477 . S
C874 H894 0.931 . S
C875 C871 1.460 . S
C875 C874 1.477 . S
C875 H895 0.930 . S
C876 N872 1.362 . S
C876 C873 1.431 . S
C876 C886 1.476 . S
H877 C871 0.929 . S
C878 O869 1.250 . S
C878 O870 1.258 . S
O879 Mn864 2.162 . S
O879 C867 1.281 . S
O880 Mn864 2.297 . S
O880 C867 1.236 . S
N881 Mn865 2.282 . S
N881 C882 1.328 . S
N881 C886 1.318 . S
C882 N881 1.328 . S
C882 C883 1.457 . S
C882 H887 0.929 . S
C883 C882 1.457 . S
C883 C884 1.291 . S
C883 H896 0.931 . S
C884 C883 1.291 . S
C884 C885 1.373 . S
C884 H897 0.929 . S
C885 C884 1.373 . S
C885 C886 1.396 . S
C885 C892 1.403 . S
C886 C876 1.476 . S
C886 N881 1.318 . S
C886 C885 1.396 . S
H887 C882 0.929 . S
O888 Mn864 2.385 . S
O888 C866 1.234 . S
O889 Mn864 2.209 . S
O889 Mn865 2.215 . S
O889 C866 1.283 . S
O890 Mn864 2.094 . S
O890 C868 1.240 . S
O891 Mn865 2.117 . S
O891 C868 1.264 . S
C892 C885 1.403 . S
C892 C893 1.399 . S
C892 H898 0.929 . S
C893 C873 1.449 . S
C893 C892 1.399 . S
C893 H899 0.930 . S
H894 C874 0.931 . S
H895 C875 0.930 . S
H896 C883 0.931 . S
H897 C884 0.929 . S
H898 C892 0.929 . S
H899 C893 0.930 . S
Mn900 O905 2.095 . S
Mn900 O915 2.162 . S
Mn900 O916 2.297 . S
Mn900 O924 2.385 . S
Mn900 O925 2.209 . S
Mn900 O926 2.094 . S
Mn901 O906 2.121 . S
Mn901 N908 2.257 . S
Mn901 N917 2.282 1_554 S
Mn901 O925 2.215 1_554 S
Mn901 O927 2.117 1_554 S
C902 O924 1.234 . S
C902 O925 1.283 . S
C903 O915 1.281 . S
C903 O916 1.236 . S
C904 O926 1.240 . S
C904 O927 1.264 . S
O905 Mn900 2.095 . S
O905 C914 1.250 1_556 S
O906 Mn901 2.121 . S
O906 C914 1.258 . S
C907 N908 1.326 . S
C907 C911 1.460 . S
C907 H913 0.929 . S
N908 Mn901 2.257 . S
N908 C907 1.326 . S
N908 C912 1.362 . S
C909 C910 1.258 . S
C909 C912 1.431 . S
C909 C929 1.449 . S
C910 C909 1.258 . S
C910 C911 1.477 . S
C910 H930 0.931 . S
C911 C907 1.460 . S
C911 C910 1.477 . S
C911 H931 0.930 . S
C912 N908 1.362 . S
C912 C909 1.431 . S
C912 C922 1.476 1_554 S
H913 C907 0.929 . S
C914 O905 1.250 1_554 S
C914 O906 1.258 . S
O915 Mn900 2.162 . S
O915 C903 1.281 . S
O916 Mn900 2.297 . S
O916 C903 1.236 . S
N917 Mn901 2.282 1_556 S
N917 C918 1.328 . S
N917 C922 1.318 . S
C918 N917 1.328 . S
C918 C919 1.457 . S
C918 H923 0.929 . S
C919 C918 1.457 . S
C919 C920 1.291 . S
C919 H932 0.931 . S
C920 C919 1.291 . S
C920 C921 1.373 . S
C920 H933 0.929 . S
C921 C920 1.373 . S
C921 C922 1.396 . S
C921 C928 1.403 . S
C922 C912 1.476 1_556 S
C922 N917 1.318 . S
C922 C921 1.396 . S
H923 C918 0.929 . S
O924 Mn900 2.385 . S
O924 C902 1.234 . S
O925 Mn900 2.209 . S
O925 Mn901 2.215 1_556 S
O925 C902 1.283 . S
O926 Mn900 2.094 . S
O926 C904 1.240 . S
O927 Mn901 2.117 1_556 S
O927 C904 1.264 . S
C928 C921 1.403 . S
C928 C929 1.399 1_556 S
C928 H934 0.929 . S
C929 C909 1.449 . S
C929 C928 1.399 1_554 S
C929 H935 0.930 . S
H930 C910 0.931 . S
H931 C911 0.930 . S
H932 C919 0.931 . S
H933 C920 0.929 . S
H934 C928 0.929 . S
H935 C929 0.930 . S
Mn936 O941 2.095 . S
Mn936 O951 2.162 . S
Mn936 O952 2.297 . S
Mn936 O960 2.385 . S
Mn936 O961 2.209 . S
Mn936 O962 2.094 . S
Mn937 O942 2.121 . S
Mn937 N944 2.257 . S
Mn937 N953 2.282 . S
Mn937 O961 2.215 . S
Mn937 O963 2.117 . S
C938 O960 1.234 . S
C938 O961 1.283 . S
C939 O951 1.281 . S
C939 O952 1.236 . S
C940 O962 1.240 . S
C940 O963 1.264 . S
O941 Mn936 2.095 . S
O941 C950 1.250 . S
O942 Mn937 2.121 . S
O942 C950 1.258 . S
C943 N944 1.326 . S
C943 C947 1.460 . S
C943 H949 0.929 . S
N944 Mn937 2.257 . S
N944 C943 1.326 . S
N944 C948 1.362 . S
C945 C946 1.258 . S
C945 C948 1.431 . S
C945 C965 1.449 . S
C946 C945 1.258 . S
C946 C947 1.477 . S
C946 H966 0.931 . S
C947 C943 1.460 . S
C947 C946 1.477 . S
C947 H967 0.930 . S
C948 N944 1.362 . S
C948 C945 1.431 . S
C948 C958 1.476 . S
H949 C943 0.929 . S
C950 O941 1.250 . S
C950 O942 1.258 . S
O951 Mn936 2.162 . S
O951 C939 1.281 . S
O952 Mn936 2.297 . S
O952 C939 1.236 . S
N953 Mn937 2.282 . S
N953 C954 1.328 . S
N953 C958 1.318 . S
C954 N953 1.328 . S
C954 C955 1.457 . S
C954 H959 0.929 . S
C955 C954 1.457 . S
C955 C956 1.291 . S
C955 H968 0.931 . S
C956 C955 1.291 . S
C956 C957 1.373 . S
C956 H969 0.929 . S
C957 C956 1.373 . S
C957 C958 1.396 . S
C957 C964 1.403 . S
C958 C948 1.476 . S
C958 N953 1.318 . S
C958 C957 1.396 . S
H959 C954 0.929 . S
O960 Mn936 2.385 . S
O960 C938 1.234 . S
O961 Mn936 2.209 . S
O961 Mn937 2.215 . S
O961 C938 1.283 . S
O962 Mn936 2.094 . S
O962 C940 1.240 . S
O963 Mn937 2.117 . S
O963 C940 1.264 . S
C964 C957 1.403 . S
C964 C965 1.399 . S
C964 H970 0.929 . S
C965 C945 1.449 . S
C965 C964 1.399 . S
C965 H971 0.930 . S
H966 C946 0.931 . S
H967 C947 0.930 . S
H968 C955 0.931 . S
H969 C956 0.929 . S
H970 C964 0.929 . S
H971 C965 0.930 . S
Mn972 O977 2.095 . S
Mn972 O987 2.162 . S
Mn972 O988 2.297 . S
Mn972 O996 2.385 . S
Mn972 O997 2.209 . S
Mn972 O998 2.094 . S
Mn973 O978 2.121 . S
Mn973 N980 2.257 1_655 S
Mn973 N989 2.282 1_655 S
Mn973 O997 2.215 . S
Mn973 O999 2.117 . S
C974 O996 1.234 . S
C974 O997 1.283 . S
C975 O987 1.281 . S
C975 O988 1.236 . S
C976 O998 1.240 . S
C976 O999 1.264 . S
O977 Mn972 2.095 . S
O977 C986 1.250 . S
O978 Mn973 2.121 . S
O978 C986 1.258 . S
C979 N980 1.326 . S
C979 C983 1.460 . S
C979 H985 0.929 1_455 S
N980 Mn973 2.257 1_455 S
N980 C979 1.326 . S
N980 C984 1.362 . S
C981 C982 1.258 . S
C981 C984 1.431 . S
C981 C1001 1.449 . S
C982 C981 1.258 . S
C982 C983 1.477 . S
C982 H1002 0.931 . S
C983 C979 1.460 . S
C983 C982 1.477 . S
C983 H1003 0.930 . S
C984 N980 1.362 . S
C984 C981 1.431 . S
C984 C994 1.476 . S
H985 C979 0.929 1_655 S
C986 O977 1.250 . S
C986 O978 1.258 . S
O987 Mn972 2.162 . S
O987 C975 1.281 . S
O988 Mn972 2.297 . S
O988 C975 1.236 . S
N989 Mn973 2.282 1_455 S
N989 C990 1.328 . S
N989 C994 1.318 . S
C990 N989 1.328 . S
C990 C991 1.457 . S
C990 H995 0.929 . S
C991 C990 1.457 . S
C991 C992 1.291 . S
C991 H1004 0.931 . S
C992 C991 1.291 . S
C992 C993 1.373 . S
C992 H1005 0.929 . S
C993 C992 1.373 . S
C993 C994 1.396 . S
C993 C1000 1.403 . S
C994 C984 1.476 . S
C994 N989 1.318 . S
C994 C993 1.396 . S
H995 C990 0.929 . S
O996 Mn972 2.385 . S
O996 C974 1.234 . S
O997 Mn972 2.209 . S
O997 Mn973 2.215 . S
O997 C974 1.283 . S
O998 Mn972 2.094 . S
O998 C976 1.240 . S
O999 Mn973 2.117 . S
O999 C976 1.264 . S
C1000 C993 1.403 . S
C1000 C1001 1.399 . S
C1000 H1006 0.929 . S
C1001 C981 1.449 . S
C1001 C1000 1.399 . S
C1001 H1007 0.930 . S
H1002 C982 0.931 . S
H1003 C983 0.930 . S
H1004 C991 0.931 . S
H1005 C992 0.929 . S
H1006 C1000 0.929 . S
H1007 C1001 0.930 . S
Mn1008 O1013 2.095 . S
Mn1008 O1023 2.162 . S
Mn1008 O1024 2.297 . S
Mn1008 O1032 2.385 . S
Mn1008 O1033 2.209 . S
Mn1008 O1034 2.094 . S
Mn1009 O1014 2.121 . S
Mn1009 N1016 2.257 . S
Mn1009 N1025 2.282 . S
Mn1009 O1033 2.215 . S
Mn1009 O1035 2.117 . S
C1010 O1032 1.234 . S
C1010 O1033 1.283 . S
C1011 O1023 1.281 . S
C1011 O1024 1.236 . S
C1012 O1034 1.240 . S
C1012 O1035 1.264 . S
O1013 Mn1008 2.095 . S
O1013 C1022 1.250 . S
O1014 Mn1009 2.121 . S
O1014 C1022 1.258 . S
C1015 N1016 1.326 . S
C1015 C1019 1.460 . S
C1015 H1021 0.929 . S
N1016 Mn1009 2.257 . S
N1016 C1015 1.326 . S
N1016 C1020 1.362 . S
C1017 C1018 1.258 . S
C1017 C1020 1.431 . S
C1017 C1037 1.449 . S
C1018 C1017 1.258 . S
C1018 C1019 1.477 . S
C1018 H1038 0.931 . S
C1019 C1015 1.460 . S
C1019 C1018 1.477 . S
C1019 H1039 0.930 . S
C1020 N1016 1.362 . S
C1020 C1017 1.431 . S
C1020 C1030 1.476 . S
H1021 C1015 0.929 . S
C1022 O1013 1.250 . S
C1022 O1014 1.258 . S
O1023 Mn1008 2.162 . S
O1023 C1011 1.281 . S
O1024 Mn1008 2.297 . S
O1024 C1011 1.236 . S
N1025 Mn1009 2.282 . S
N1025 C1026 1.328 . S
N1025 C1030 1.318 . S
C1026 N1025 1.328 . S
C1026 C1027 1.457 . S
C1026 H1031 0.929 . S
C1027 C1026 1.457 . S
C1027 C1028 1.291 . S
C1027 H1040 0.931 . S
C1028 C1027 1.291 . S
C1028 C1029 1.373 . S
C1028 H1041 0.929 . S
C1029 C1028 1.373 . S
C1029 C1030 1.396 . S
C1029 C1036 1.403 . S
C1030 C1020 1.476 . S
C1030 N1025 1.318 . S
C1030 C1029 1.396 . S
H1031 C1026 0.929 . S
O1032 Mn1008 2.385 . S
O1032 C1010 1.234 . S
O1033 Mn1008 2.209 . S
O1033 Mn1009 2.215 . S
O1033 C1010 1.283 . S
O1034 Mn1008 2.094 . S
O1034 C1012 1.240 . S
O1035 Mn1009 2.117 . S
O1035 C1012 1.264 . S
C1036 C1029 1.403 . S
C1036 C1037 1.399 . S
C1036 H1042 0.929 . S
C1037 C1017 1.449 . S
C1037 C1036 1.399 . S
C1037 H1043 0.930 . S
H1038 C1018 0.931 . S
H1039 C1019 0.930 . S
H1040 C1027 0.931 . S
H1041 C1028 0.929 . S
H1042 C1036 0.929 . S
H1043 C1037 0.930 . S
Mn1044 O1049 2.095 . S
Mn1044 O1059 2.162 . S
Mn1044 O1060 2.297 . S
Mn1044 O1068 2.385 . S
Mn1044 O1069 2.209 . S
Mn1044 O1070 2.094 . S
Mn1045 O1050 2.121 . S
Mn1045 N1052 2.257 1_655 S
Mn1045 N1061 2.282 1_656 S
Mn1045 O1069 2.215 1_556 S
Mn1045 O1071 2.117 1_556 S
C1046 O1068 1.234 . S
C1046 O1069 1.283 . S
C1047 O1059 1.281 . S
C1047 O1060 1.236 . S
C1048 O1070 1.240 . S
C1048 O1071 1.264 . S
O1049 Mn1044 2.095 . S
O1049 C1058 1.250 1_554 S
O1050 Mn1045 2.121 . S
O1050 C1058 1.258 . S
C1051 N1052 1.326 . S
C1051 C1055 1.460 . S
C1051 H1057 0.929 1_455 S
N1052 Mn1045 2.257 1_455 S
N1052 C1051 1.326 . S
N1052 C1056 1.362 . S
C1053 C1054 1.258 . S
C1053 C1056 1.431 . S
C1053 C1073 1.449 . S
C1054 C1053 1.258 . S
C1054 C1055 1.477 . S
C1054 H1074 0.931 . S
C1055 C1051 1.460 . S
C1055 C1054 1.477 . S
C1055 H1075 0.930 . S
C1056 N1052 1.362 . S
C1056 C1053 1.431 . S
C1056 C1066 1.476 1_556 S
H1057 C1051 0.929 1_655 S
C1058 O1049 1.250 1_556 S
C1058 O1050 1.258 . S
O1059 Mn1044 2.162 . S
O1059 C1047 1.281 . S
O1060 Mn1044 2.297 . S
O1060 C1047 1.236 . S
N1061 Mn1045 2.282 1_454 S
N1061 C1062 1.328 . S
N1061 C1066 1.318 . S
C1062 N1061 1.328 . S
C1062 C1063 1.457 . S
C1062 H1067 0.929 . S
C1063 C1062 1.457 . S
C1063 C1064 1.291 . S
C1063 H1076 0.931 . S
C1064 C1063 1.291 . S
C1064 C1065 1.373 . S
C1064 H1077 0.929 . S
C1065 C1064 1.373 . S
C1065 C1066 1.396 . S
C1065 C1072 1.403 . S
C1066 C1056 1.476 1_554 S
C1066 N1061 1.318 . S
C1066 C1065 1.396 . S
H1067 C1062 0.929 . S
O1068 Mn1044 2.385 . S
O1068 C1046 1.234 . S
O1069 Mn1044 2.209 . S
O1069 Mn1045 2.215 1_554 S
O1069 C1046 1.283 . S
O1070 Mn1044 2.094 . S
O1070 C1048 1.240 . S
O1071 Mn1045 2.117 1_554 S
O1071 C1048 1.264 . S
C1072 C1065 1.403 . S
C1072 C1073 1.399 1_554 S
C1072 H1078 0.929 . S
C1073 C1053 1.449 . S
C1073 C1072 1.399 1_556 S
C1073 H1079 0.930 . S
H1074 C1054 0.931 . S
H1075 C1055 0.930 . S
H1076 C1063 0.931 . S
H1077 C1064 0.929 . S
H1078 C1072 0.929 . S
H1079 C1073 0.930 . S
Mn1080 O1085 2.095 . S
Mn1080 O1095 2.162 . S
Mn1080 O1096 2.297 . S
Mn1080 O1104 2.385 . S
Mn1080 O1105 2.209 . S
Mn1080 O1106 2.094 . S
Mn1081 O1086 2.121 . S
Mn1081 N1088 2.257 . S
Mn1081 N1097 2.282 . S
Mn1081 O1105 2.215 . S
Mn1081 O1107 2.117 . S
C1082 O1104 1.234 . S
C1082 O1105 1.283 . S
C1083 O1095 1.281 . S
C1083 O1096 1.236 . S
C1084 O1106 1.240 . S
C1084 O1107 1.264 . S
O1085 Mn1080 2.095 . S
O1085 C1094 1.250 . S
O1086 Mn1081 2.121 . S
O1086 C1094 1.258 . S
C1087 N1088 1.326 . S
C1087 C1091 1.460 . S
C1087 H1093 0.929 . S
N1088 Mn1081 2.257 . S
N1088 C1087 1.326 . S
N1088 C1092 1.362 . S
C1089 C1090 1.258 . S
C1089 C1092 1.431 . S
C1089 C1109 1.449 . S
C1090 C1089 1.258 . S
C1090 C1091 1.477 . S
C1090 H1110 0.931 . S
C1091 C1087 1.460 . S
C1091 C1090 1.477 . S
C1091 H1111 0.930 . S
C1092 N1088 1.362 . S
C1092 C1089 1.431 . S
C1092 C1102 1.476 . S
H1093 C1087 0.929 . S
C1094 O1085 1.250 . S
C1094 O1086 1.258 . S
O1095 Mn1080 2.162 . S
O1095 C1083 1.281 . S
O1096 Mn1080 2.297 . S
O1096 C1083 1.236 . S
N1097 Mn1081 2.282 . S
N1097 C1098 1.328 . S
N1097 C1102 1.318 . S
C1098 N1097 1.328 . S
C1098 C1099 1.457 . S
C1098 H1103 0.929 . S
C1099 C1098 1.457 . S
C1099 C1100 1.291 . S
C1099 H1112 0.931 . S
C1100 C1099 1.291 . S
C1100 C1101 1.373 . S
C1100 H1113 0.929 . S
C1101 C1100 1.373 . S
C1101 C1102 1.396 . S
C1101 C1108 1.403 . S
C1102 C1092 1.476 . S
C1102 N1097 1.318 . S
C1102 C1101 1.396 . S
H1103 C1098 0.929 . S
O1104 Mn1080 2.385 . S
O1104 C1082 1.234 . S
O1105 Mn1080 2.209 . S
O1105 Mn1081 2.215 . S
O1105 C1082 1.283 . S
O1106 Mn1080 2.094 . S
O1106 C1084 1.240 . S
O1107 Mn1081 2.117 . S
O1107 C1084 1.264 . S
C1108 C1101 1.403 . S
C1108 C1109 1.399 . S
C1108 H1114 0.929 . S
C1109 C1089 1.449 . S
C1109 C1108 1.399 . S
C1109 H1115 0.930 . S
H1110 C1090 0.931 . S
H1111 C1091 0.930 . S
H1112 C1099 0.931 . S
H1113 C1100 0.929 . S
H1114 C1108 0.929 . S
H1115 C1109 0.930 . S
Mn1116 O1121 2.095 . S
Mn1116 O1131 2.162 . S
Mn1116 O1132 2.297 . S
Mn1116 O1140 2.385 . S
Mn1116 O1141 2.209 . S
Mn1116 O1142 2.094 . S
Mn1117 O1122 2.121 . S
Mn1117 N1124 2.257 . S
Mn1117 N1133 2.282 . S
Mn1117 O1141 2.215 . S
Mn1117 O1143 2.117 . S
C1118 O1140 1.234 . S
C1118 O1141 1.283 . S
C1119 O1131 1.281 . S
C1119 O1132 1.236 . S
C1120 O1142 1.240 . S
C1120 O1143 1.264 . S
O1121 Mn1116 2.095 . S
O1121 C1130 1.250 . S
O1122 Mn1117 2.121 . S
O1122 C1130 1.258 . S
C1123 N1124 1.326 . S
C1123 C1127 1.460 . S
C1123 H1129 0.929 . S
N1124 Mn1117 2.257 . S
N1124 C1123 1.326 . S
N1124 C1128 1.362 . S
C1125 C1126 1.258 . S
C1125 C1128 1.431 . S
C1125 C1145 1.449 . S
C1126 C1125 1.258 . S
C1126 C1127 1.477 . S
C1126 H1146 0.931 . S
C1127 C1123 1.460 . S
C1127 C1126 1.477 . S
C1127 H1147 0.930 . S
C1128 N1124 1.362 . S
C1128 C1125 1.431 . S
C1128 C1138 1.476 . S
H1129 C1123 0.929 . S
C1130 O1121 1.250 . S
C1130 O1122 1.258 . S
O1131 Mn1116 2.162 . S
O1131 C1119 1.281 . S
O1132 Mn1116 2.297 . S
O1132 C1119 1.236 . S
N1133 Mn1117 2.282 . S
N1133 C1134 1.328 . S
N1133 C1138 1.318 . S
C1134 N1133 1.328 . S
C1134 C1135 1.457 . S
C1134 H1139 0.929 . S
C1135 C1134 1.457 . S
C1135 C1136 1.291 . S
C1135 H1148 0.931 . S
C1136 C1135 1.291 . S
C1136 C1137 1.373 . S
C1136 H1149 0.929 . S
C1137 C1136 1.373 . S
C1137 C1138 1.396 . S
C1137 C1144 1.403 . S
C1138 C1128 1.476 . S
C1138 N1133 1.318 . S
C1138 C1137 1.396 . S
H1139 C1134 0.929 . S
O1140 Mn1116 2.385 . S
O1140 C1118 1.234 . S
O1141 Mn1116 2.209 . S
O1141 Mn1117 2.215 . S
O1141 C1118 1.283 . S
O1142 Mn1116 2.094 . S
O1142 C1120 1.240 . S
O1143 Mn1117 2.117 . S
O1143 C1120 1.264 . S
C1144 C1137 1.403 . S
C1144 C1145 1.399 . S
C1144 H1150 0.929 . S
C1145 C1125 1.449 . S
C1145 C1144 1.399 . S
C1145 H1151 0.930 . S
H1146 C1126 0.931 . S
H1147 C1127 0.930 . S
H1148 C1135 0.931 . S
H1149 C1136 0.929 . S
H1150 C1144 0.929 . S
H1151 C1145 0.930 . S
H1152 C1160 0.950 . S
H1153 C1165 0.950 . S
H1154 C1162 0.950 . S
H1155 C1164 0.950 . S
H1156 C1166 0.950 . S
H1157 C1168 0.950 . S
H1158 C1170 0.950 . S
H1159 C1171 0.950 . S
C1160 H1152 0.950 . S
C1160 C1161 1.386 . S
C1160 C1162 1.391 . S
C1161 C1160 1.386 . S
C1161 C1165 1.393 . S
C1162 H1154 0.950 . S
C1162 C1160 1.391 . S
C1162 C1163 1.400 . S
C1163 C1162 1.400 . S
C1163 C1164 1.398 . S
C1163 C1169 1.491 . S
C1164 H1155 0.950 . S
C1164 C1163 1.398 . S
C1164 C1165 1.391 . S
C1165 H1153 0.950 . S
C1165 C1161 1.393 . S
C1165 C1164 1.391 . S
C1166 H1156 0.950 . S
C1166 C1167 1.386 . S
C1166 C1168 1.391 . S
C1167 C1166 1.386 . S
C1167 C1171 1.393 . S
C1168 H1157 0.950 . S
C1168 C1166 1.391 . S
C1168 C1169 1.400 . S
C1169 C1163 1.491 . S
C1169 C1168 1.400 . S
C1169 C1170 1.398 . S
C1170 H1158 0.950 . S
C1170 C1169 1.398 . S
C1170 C1171 1.391 . S
C1171 H1159 0.950 . S
C1171 C1167 1.393 . S
C1171 C1170 1.391 . S
H1172 C1180 0.950 . S
H1173 C1185 0.950 . S
H1174 C1182 0.950 . S
H1175 C1184 0.950 . S
H1176 C1186 0.950 . S
H1177 C1188 0.950 . S
H1178 C1190 0.950 . S
H1179 C1191 0.950 . S
C1180 H1172 0.950 . S
C1180 C1181 1.386 . S
C1180 C1182 1.391 . S
C1181 C1180 1.386 . S
C1181 C1185 1.393 . S
C1182 H1174 0.950 . S
C1182 C1180 1.391 . S
C1182 C1183 1.400 . S
C1183 C1182 1.400 . S
C1183 C1184 1.398 . S
C1183 C1189 1.491 . S
C1184 H1175 0.950 . S
C1184 C1183 1.398 . S
C1184 C1185 1.391 . S
C1185 H1173 0.950 . S
C1185 C1181 1.393 . S
C1185 C1184 1.391 . S
C1186 H1176 0.950 . S
C1186 C1187 1.386 . S
C1186 C1188 1.391 . S
C1187 C1186 1.386 . S
C1187 C1191 1.393 . S
C1188 H1177 0.950 . S
C1188 C1186 1.391 . S
C1188 C1189 1.400 . S
C1189 C1183 1.491 . S
C1189 C1188 1.400 . S
C1189 C1190 1.398 . S
C1190 H1178 0.950 . S
C1190 C1189 1.398 . S
C1190 C1191 1.391 . S
C1191 H1179 0.950 . S
C1191 C1187 1.393 . S
C1191 C1190 1.391 . S
H1192 C1200 0.950 . S
H1193 C1205 0.950 . S
H1194 C1202 0.950 . S
H1195 C1204 0.950 . S
H1196 C1206 0.950 . S
H1197 C1208 0.950 . S
H1198 C1210 0.950 . S
H1199 C1211 0.950 . S
C1200 H1192 0.950 . S
C1200 C1201 1.386 . S
C1200 C1202 1.391 . S
C1201 C1200 1.386 . S
C1201 C1205 1.393 . S
C1202 H1194 0.950 . S
C1202 C1200 1.391 . S
C1202 C1203 1.400 . S
C1203 C1202 1.400 . S
C1203 C1204 1.398 . S
C1203 C1209 1.491 . S
C1204 H1195 0.950 . S
C1204 C1203 1.398 . S
C1204 C1205 1.391 . S
C1205 H1193 0.950 . S
C1205 C1201 1.393 . S
C1205 C1204 1.391 . S
C1206 H1196 0.950 . S
C1206 C1207 1.386 . S
C1206 C1208 1.391 . S
C1207 C1206 1.386 . S
C1207 C1211 1.393 . S
C1208 H1197 0.950 . S
C1208 C1206 1.391 . S
C1208 C1209 1.400 . S
C1209 C1203 1.491 . S
C1209 C1208 1.400 . S
C1209 C1210 1.398 . S
C1210 H1198 0.950 . S
C1210 C1209 1.398 . S
C1210 C1211 1.391 . S
C1211 H1199 0.950 . S
C1211 C1207 1.393 . S
C1211 C1210 1.391 . S
H1212 C1220 0.950 . S
H1213 C1225 0.950 . S
H1214 C1222 0.950 . S
H1215 C1224 0.950 . S
H1216 C1226 0.950 . S
H1217 C1228 0.950 . S
H1218 C1230 0.950 . S
H1219 C1231 0.950 . S
C1220 H1212 0.950 . S
C1220 C1221 1.386 . S
C1220 C1222 1.391 . S
C1221 C1220 1.386 . S
C1221 C1225 1.393 . S
C1222 H1214 0.950 . S
C1222 C1220 1.391 . S
C1222 C1223 1.400 . S
C1223 C1222 1.400 . S
C1223 C1224 1.398 . S
C1223 C1229 1.491 . S
C1224 H1215 0.950 . S
C1224 C1223 1.398 . S
C1224 C1225 1.391 . S
C1225 H1213 0.950 . S
C1225 C1221 1.393 . S
C1225 C1224 1.391 . S
C1226 H1216 0.950 . S
C1226 C1227 1.386 . S
C1226 C1228 1.391 . S
C1227 C1226 1.386 . S
C1227 C1231 1.393 . S
C1228 H1217 0.950 . S
C1228 C1226 1.391 . S
C1228 C1229 1.400 . S
C1229 C1223 1.491 . S
C1229 C1228 1.400 . S
C1229 C1230 1.398 . S
C1230 H1218 0.950 . S
C1230 C1229 1.398 . S
C1230 C1231 1.391 . S
C1231 H1219 0.950 . S
C1231 C1227 1.393 . S
C1231 C1230 1.391 . S
H1232 C1240 0.950 . S
H1233 C1245 0.950 . S
H1234 C1242 0.950 . S
H1235 C1244 0.950 . S
H1236 C1246 0.950 . S
H1237 C1248 0.950 . S
H1238 C1250 0.950 . S
H1239 C1251 0.950 . S
C1240 H1232 0.950 . S
C1240 C1241 1.386 . S
C1240 C1242 1.391 . S
C1241 C1240 1.386 . S
C1241 C1245 1.393 . S
C1242 H1234 0.950 . S
C1242 C1240 1.391 . S
C1242 C1243 1.400 . S
C1243 C1242 1.400 . S
C1243 C1244 1.398 . S
C1243 C1249 1.491 . S
C1244 H1235 0.950 . S
C1244 C1243 1.398 . S
C1244 C1245 1.391 . S
C1245 H1233 0.950 . S
C1245 C1241 1.393 . S
C1245 C1244 1.391 . S
C1246 H1236 0.950 . S
C1246 C1247 1.386 . S
C1246 C1248 1.391 . S
C1247 C1246 1.386 . S
C1247 C1251 1.393 . S
C1248 H1237 0.950 . S
C1248 C1246 1.391 . S
C1248 C1249 1.400 . S
C1249 C1243 1.491 . S
C1249 C1248 1.400 . S
C1249 C1250 1.398 . S
C1250 H1238 0.950 . S
C1250 C1249 1.398 . S
C1250 C1251 1.391 . S
C1251 H1239 0.950 . S
C1251 C1247 1.393 . S
C1251 C1250 1.391 . S
H1252 C1260 0.950 . S
H1253 C1265 0.950 . S
H1254 C1262 0.950 . S
H1255 C1264 0.950 . S
H1256 C1266 0.950 . S
H1257 C1268 0.950 . S
H1258 C1270 0.950 . S
H1259 C1271 0.950 . S
C1260 H1252 0.950 . S
C1260 C1261 1.386 . S
C1260 C1262 1.391 . S
C1261 C1260 1.386 . S
C1261 C1265 1.393 . S
C1262 H1254 0.950 . S
C1262 C1260 1.391 . S
C1262 C1263 1.400 . S
C1263 C1262 1.400 . S
C1263 C1264 1.398 . S
C1263 C1269 1.491 . S
C1264 H1255 0.950 . S
C1264 C1263 1.398 . S
C1264 C1265 1.391 . S
C1265 H1253 0.950 . S
C1265 C1261 1.393 . S
C1265 C1264 1.391 . S
C1266 H1256 0.950 . S
C1266 C1267 1.386 . S
C1266 C1268 1.391 . S
C1267 C1266 1.386 . S
C1267 C1271 1.393 . S
C1268 H1257 0.950 . S
C1268 C1266 1.391 . S
C1268 C1269 1.400 . S
C1269 C1263 1.491 . S
C1269 C1268 1.400 . S
C1269 C1270 1.398 . S
C1270 H1258 0.950 . S
C1270 C1269 1.398 . S
C1270 C1271 1.391 . S
C1271 H1259 0.950 . S
C1271 C1267 1.393 . S
C1271 C1270 1.391 . S
H1272 C1280 0.950 . S
H1273 C1285 0.950 . S
H1274 C1282 0.950 . S
H1275 C1284 0.950 . S
H1276 C1286 0.950 . S
H1277 C1288 0.950 . S
H1278 C1290 0.950 . S
H1279 C1291 0.950 . S
C1280 H1272 0.950 . S
C1280 C1281 1.386 . S
C1280 C1282 1.391 . S
C1281 C1280 1.386 . S
C1281 C1285 1.393 . S
C1282 H1274 0.950 . S
C1282 C1280 1.391 . S
C1282 C1283 1.400 . S
C1283 C1282 1.400 . S
C1283 C1284 1.398 . S
C1283 C1289 1.491 . S
C1284 H1275 0.950 . S
C1284 C1283 1.398 . S
C1284 C1285 1.391 . S
C1285 H1273 0.950 . S
C1285 C1281 1.393 . S
C1285 C1284 1.391 . S
C1286 H1276 0.950 . S
C1286 C1287 1.386 . S
C1286 C1288 1.391 . S
C1287 C1286 1.386 . S
C1287 C1291 1.393 . S
C1288 H1277 0.950 . S
C1288 C1286 1.391 . S
C1288 C1289 1.400 . S
C1289 C1283 1.491 . S
C1289 C1288 1.400 . S
C1289 C1290 1.398 . S
C1290 H1278 0.950 . S
C1290 C1289 1.398 . S
C1290 C1291 1.391 . S
C1291 H1279 0.950 . S
C1291 C1287 1.393 . S
C1291 C1290 1.391 . S
H1292 C1300 0.950 . S
H1293 C1305 0.950 . S
H1294 C1302 0.950 . S
H1295 C1304 0.950 . S
H1296 C1306 0.950 . S
H1297 C1308 0.950 . S
H1298 C1310 0.950 . S
H1299 C1311 0.950 1_655 S
C1300 H1292 0.950 . S
C1300 C1301 1.386 . S
C1300 C1302 1.391 . S
C1301 C1300 1.386 . S
C1301 C1305 1.393 . S
C1302 H1294 0.950 . S
C1302 C1300 1.391 . S
C1302 C1303 1.400 . S
C1303 C1302 1.400 . S
C1303 C1304 1.398 . S
C1303 C1309 1.491 . S
C1304 H1295 0.950 . S
C1304 C1303 1.398 . S
C1304 C1305 1.391 . S
C1305 H1293 0.950 . S
C1305 C1301 1.393 . S
C1305 C1304 1.391 . S
C1306 H1296 0.950 . S
C1306 C1307 1.386 . S
C1306 C1308 1.391 . S
C1307 C1306 1.386 . S
C1307 C1311 1.393 . S
C1308 H1297 0.950 . S
C1308 C1306 1.391 . S
C1308 C1309 1.400 . S
C1309 C1303 1.491 . S
C1309 C1308 1.400 . S
C1309 C1310 1.398 . S
C1310 H1298 0.950 . S
C1310 C1309 1.398 . S
C1310 C1311 1.391 . S
C1311 H1299 0.950 1_455 S
C1311 C1307 1.393 . S
C1311 C1310 1.391 . S
H1312 C1320 0.950 . S
H1313 C1325 0.950 . S
H1314 C1322 0.950 . S
H1315 C1324 0.950 . S
H1316 C1326 0.950 . S
H1317 C1328 0.950 . S
H1318 C1330 0.950 . S
H1319 C1331 0.950 . S
C1320 H1312 0.950 . S
C1320 C1321 1.386 . S
C1320 C1322 1.391 . S
C1321 C1320 1.386 . S
C1321 C1325 1.393 . S
C1322 H1314 0.950 . S
C1322 C1320 1.391 . S
C1322 C1323 1.400 . S
C1323 C1322 1.400 . S
C1323 C1324 1.398 . S
C1323 C1329 1.491 . S
C1324 H1315 0.950 . S
C1324 C1323 1.398 . S
C1324 C1325 1.391 . S
C1325 H1313 0.950 . S
C1325 C1321 1.393 . S
C1325 C1324 1.391 . S
C1326 H1316 0.950 . S
C1326 C1327 1.386 . S
C1326 C1328 1.391 . S
C1327 C1326 1.386 . S
C1327 C1331 1.393 . S
C1328 H1317 0.950 . S
C1328 C1326 1.391 . S
C1328 C1329 1.400 . S
C1329 C1323 1.491 . S
C1329 C1328 1.400 . S
C1329 C1330 1.398 . S
C1330 H1318 0.950 . S
C1330 C1329 1.398 . S
C1330 C1331 1.391 . S
C1331 H1319 0.950 . S
C1331 C1327 1.393 . S
C1331 C1330 1.391 . S
H1332 C1340 0.950 . S
H1333 C1345 0.950 1_455 S
H1334 C1342 0.950 . S
H1335 C1344 0.950 . S
H1336 C1346 0.950 . S
H1337 C1348 0.950 . S
H1338 C1350 0.950 . S
H1339 C1351 0.950 . S
C1340 H1332 0.950 . S
C1340 C1341 1.369 1_655 S
C1340 C1342 1.391 . S
C1341 C1340 1.369 1_455 S
C1341 C1345 1.387 1_455 S
C1342 H1334 0.950 . S
C1342 C1340 1.391 . S
C1342 C1343 1.400 . S
C1343 C1342 1.400 . S
C1343 C1344 1.398 . S
C1343 C1349 1.491 . S
C1344 H1335 0.950 . S
C1344 C1343 1.398 . S
C1344 C1345 1.391 . S
C1345 H1333 0.950 1_655 S
C1345 C1341 1.387 1_655 S
C1345 C1344 1.391 . S
C1346 H1336 0.950 . S
C1346 C1347 1.386 . S
C1346 C1348 1.391 . S
C1347 C1346 1.386 . S
C1347 C1351 1.393 . S
C1348 H1337 0.950 . S
C1348 C1346 1.391 . S
C1348 C1349 1.400 . S
C1349 C1343 1.491 . S
C1349 C1348 1.400 . S
C1349 C1350 1.398 . S
C1350 H1338 0.950 . S
C1350 C1349 1.398 . S
C1350 C1351 1.391 . S
C1351 H1339 0.950 . S
C1351 C1347 1.393 . S
C1351 C1350 1.391 . S
H1352 C1360 0.950 . S
H1353 C1365 0.950 . S
H1354 C1362 0.950 . S
H1355 C1364 0.950 . S
H1356 C1366 0.950 . S
H1357 C1368 0.950 . S
H1358 C1370 0.950 . S
H1359 C1371 0.950 . S
C1360 H1352 0.950 . S
C1360 C1361 1.386 . S
C1360 C1362 1.391 . S
C1361 C1360 1.386 . S
C1361 C1365 1.393 . S
C1362 H1354 0.950 . S
C1362 C1360 1.391 . S
C1362 C1363 1.400 . S
C1363 C1362 1.400 . S
C1363 C1364 1.398 . S
C1363 C1369 1.491 . S
C1364 H1355 0.950 . S
C1364 C1363 1.398 . S
C1364 C1365 1.391 . S
C1365 H1353 0.950 . S
C1365 C1361 1.393 . S
C1365 C1364 1.391 . S
C1366 H1356 0.950 . S
C1366 C1367 1.386 . S
C1366 C1368 1.391 . S
C1367 C1366 1.386 . S
C1367 C1371 1.393 . S
C1368 H1357 0.950 . S
C1368 C1366 1.391 . S
C1368 C1369 1.400 . S
C1369 C1363 1.491 . S
C1369 C1368 1.400 . S
C1369 C1370 1.398 . S
C1370 H1358 0.950 . S
C1370 C1369 1.398 . S
C1370 C1371 1.391 . S
C1371 H1359 0.950 . S
C1371 C1367 1.393 . S
C1371 C1370 1.391 . S
H1372 C1380 0.950 . S
H1373 C1385 0.950 . S
H1374 C1382 0.950 . S
H1375 C1384 0.950 . S
H1376 C1386 0.950 . S
H1377 C1388 0.950 . S
H1378 C1390 0.950 . S
H1379 C1391 0.950 . S
C1380 H1372 0.950 . S
C1380 C1381 1.386 . S
C1380 C1382 1.391 . S
C1381 C1380 1.386 . S
C1381 C1385 1.393 . S
C1382 H1374 0.950 . S
C1382 C1380 1.391 . S
C1382 C1383 1.400 . S
C1383 C1382 1.400 . S
C1383 C1384 1.398 . S
C1383 C1389 1.491 . S
C1384 H1375 0.950 . S
C1384 C1383 1.398 . S
C1384 C1385 1.391 . S
C1385 H1373 0.950 . S
C1385 C1381 1.393 . S
C1385 C1384 1.391 . S
C1386 H1376 0.950 . S
C1386 C1387 1.386 . S
C1386 C1388 1.391 . S
C1387 C1386 1.386 . S
C1387 C1391 1.393 . S
C1388 H1377 0.950 . S
C1388 C1386 1.391 . S
C1388 C1389 1.400 . S
C1389 C1383 1.491 . S
C1389 C1388 1.400 . S
C1389 C1390 1.398 . S
C1390 H1378 0.950 . S
C1390 C1389 1.398 . S
C1390 C1391 1.391 . S
C1391 H1379 0.950 . S
C1391 C1387 1.393 . S
C1391 C1390 1.391 . S
H1392 C1400 0.950 . S
H1393 C1405 0.950 . S
H1394 C1402 0.950 . S
H1395 C1404 0.950 . S
H1396 C1406 0.950 . S
H1397 C1408 0.950 . S
H1398 C1410 0.950 . S
H1399 C1411 0.950 . S
C1400 H1392 0.950 . S
C1400 C1401 1.386 . S
C1400 C1402 1.391 . S
C1401 C1400 1.386 . S
C1401 C1405 1.393 . S
C1402 H1394 0.950 . S
C1402 C1400 1.391 . S
C1402 C1403 1.400 . S
C1403 C1402 1.400 . S
C1403 C1404 1.398 . S
C1403 C1409 1.491 . S
C1404 H1395 0.950 . S
C1404 C1403 1.398 . S
C1404 C1405 1.391 . S
C1405 H1393 0.950 . S
C1405 C1401 1.393 . S
C1405 C1404 1.391 . S
C1406 H1396 0.950 . S
C1406 C1407 1.386 . S
C1406 C1408 1.391 . S
C1407 C1406 1.386 . S
C1407 C1411 1.393 . S
C1408 H1397 0.950 . S
C1408 C1406 1.391 . S
C1408 C1409 1.400 . S
C1409 C1403 1.491 . S
C1409 C1408 1.400 . S
C1409 C1410 1.398 . S
C1410 H1398 0.950 . S
C1410 C1409 1.398 . S
C1410 C1411 1.391 . S
C1411 H1399 0.950 . S
C1411 C1407 1.393 . S
C1411 C1410 1.391 . S
H1412 C1420 0.950 . S
H1413 C1425 0.950 . S
H1414 C1422 0.950 . S
H1415 C1424 0.950 . S
H1416 C1426 0.950 . S
H1417 C1428 0.950 . S
H1418 C1430 0.950 . S
H1419 C1431 0.950 . S
C1420 H1412 0.950 . S
C1420 C1421 1.386 . S
C1420 C1422 1.391 . S
C1421 C1420 1.386 . S
C1421 C1425 1.393 . S
C1422 H1414 0.950 . S
C1422 C1420 1.391 . S
C1422 C1423 1.400 . S
C1423 C1422 1.400 . S
C1423 C1424 1.398 . S
C1423 C1429 1.491 . S
C1424 H1415 0.950 . S
C1424 C1423 1.398 . S
C1424 C1425 1.391 . S
C1425 H1413 0.950 . S
C1425 C1421 1.393 . S
C1425 C1424 1.391 . S
C1426 H1416 0.950 . S
C1426 C1427 1.386 . S
C1426 C1428 1.391 . S
C1427 C1426 1.386 . S
C1427 C1431 1.393 . S
C1428 H1417 0.950 . S
C1428 C1426 1.391 . S
C1428 C1429 1.400 . S
C1429 C1423 1.491 . S
C1429 C1428 1.400 . S
C1429 C1430 1.398 . S
C1430 H1418 0.950 . S
C1430 C1429 1.398 . S
C1430 C1431 1.391 . S
C1431 H1419 0.950 . S
C1431 C1427 1.393 . S
C1431 C1430 1.391 . S
H1432 C1440 0.950 . S
H1433 C1445 0.950 . S
H1434 C1442 0.950 . S
H1435 C1444 0.950 . S
H1436 C1446 0.950 . S
H1437 C1448 0.950 . S
H1438 C1450 0.950 . S
H1439 C1451 0.950 . S
C1440 H1432 0.950 . S
C1440 C1441 1.386 . S
C1440 C1442 1.391 . S
C1441 C1440 1.386 . S
C1441 C1445 1.393 . S
C1442 H1434 0.950 . S
C1442 C1440 1.391 . S
C1442 C1443 1.400 . S
C1443 C1442 1.400 . S
C1443 C1444 1.398 . S
C1443 C1449 1.491 . S
C1444 H1435 0.950 . S
C1444 C1443 1.398 . S
C1444 C1445 1.391 . S
C1445 H1433 0.950 . S
C1445 C1441 1.393 . S
C1445 C1444 1.391 . S
C1446 H1436 0.950 . S
C1446 C1447 1.386 . S
C1446 C1448 1.391 . S
C1447 C1446 1.386 . S
C1447 C1451 1.393 . S
C1448 H1437 0.950 . S
C1448 C1446 1.391 . S
C1448 C1449 1.400 . S
C1449 C1443 1.491 . S
C1449 C1448 1.400 . S
C1449 C1450 1.398 . S
C1450 H1438 0.950 . S
C1450 C1449 1.398 . S
C1450 C1451 1.391 . S
C1451 H1439 0.950 . S
C1451 C1447 1.393 . S
C1451 C1450 1.391 . S
H1452 C1460 0.950 . S
H1453 C1465 0.950 . S
H1454 C1462 0.950 . S
H1455 C1464 0.950 . S
H1456 C1466 0.950 . S
H1457 C1468 0.950 . S
H1458 C1470 0.950 . S
H1459 C1471 0.950 . S
C1460 H1452 0.950 . S
C1460 C1461 1.386 . S
C1460 C1462 1.391 . S
C1461 C1460 1.386 . S
C1461 C1465 1.393 . S
C1462 H1454 0.950 . S
C1462 C1460 1.391 . S
C1462 C1463 1.400 . S
C1463 C1462 1.400 . S
C1463 C1464 1.398 . S
C1463 C1469 1.491 . S
C1464 H1455 0.950 . S
C1464 C1463 1.398 . S
C1464 C1465 1.391 . S
C1465 H1453 0.950 . S
C1465 C1461 1.393 . S
C1465 C1464 1.391 . S
C1466 H1456 0.950 . S
C1466 C1467 1.386 . S
C1466 C1468 1.391 1_455 S
C1467 C1466 1.386 . S
C1467 C1471 1.393 1_455 S
C1468 H1457 0.950 . S
C1468 C1466 1.391 1_655 S
C1468 C1469 1.400 . S
C1469 C1463 1.491 . S
C1469 C1468 1.400 . S
C1469 C1470 1.398 . S
C1470 H1458 0.950 . S
C1470 C1469 1.398 . S
C1470 C1471 1.391 . S
C1471 H1459 0.950 . S
C1471 C1467 1.393 1_655 S
C1471 C1470 1.391 . S
H1472 C1480 0.950 . S
H1473 C1485 0.950 . S
H1474 C1482 0.950 . S
H1475 C1484 0.950 . S
H1476 C1486 0.950 . S
H1477 C1488 0.950 . S
H1478 C1490 0.950 . S
H1479 C1491 0.950 . S
C1480 H1472 0.950 . S
C1480 C1481 1.386 . S
C1480 C1482 1.391 . S
C1481 C1480 1.386 . S
C1481 C1485 1.393 . S
C1482 H1474 0.950 . S
C1482 C1480 1.391 . S
C1482 C1483 1.400 . S
C1483 C1482 1.400 . S
C1483 C1484 1.398 . S
C1483 C1489 1.491 . S
C1484 H1475 0.950 . S
C1484 C1483 1.398 . S
C1484 C1485 1.391 . S
C1485 H1473 0.950 . S
C1485 C1481 1.393 . S
C1485 C1484 1.391 . S
C1486 H1476 0.950 . S
C1486 C1487 1.386 . S
C1486 C1488 1.391 . S
C1487 C1486 1.386 . S
C1487 C1491 1.393 . S
C1488 H1477 0.950 . S
C1488 C1486 1.391 . S
C1488 C1489 1.400 . S
C1489 C1483 1.491 . S
C1489 C1488 1.400 . S
C1489 C1490 1.398 . S
C1490 H1478 0.950 . S
C1490 C1489 1.398 . S
C1490 C1491 1.391 . S
C1491 H1479 0.950 . S
C1491 C1487 1.393 . S
C1491 C1490 1.391 . S
H1492 C1500 0.950 . S
H1493 C1505 0.950 . S
H1494 C1502 0.950 . S
H1495 C1504 0.950 . S
H1496 C1506 0.950 . S
H1497 C1508 0.950 . S
H1498 C1510 0.950 . S
H1499 C1511 0.950 . S
C1500 H1492 0.950 . S
C1500 C1501 1.386 . S
C1500 C1502 1.391 . S
C1501 C1500 1.386 . S
C1501 C1505 1.393 . S
C1502 H1494 0.950 . S
C1502 C1500 1.391 . S
C1502 C1503 1.400 . S
C1503 C1502 1.400 . S
C1503 C1504 1.398 . S
C1503 C1509 1.491 . S
C1504 H1495 0.950 . S
C1504 C1503 1.398 . S
C1504 C1505 1.391 . S
C1505 H1493 0.950 . S
C1505 C1501 1.393 . S
C1505 C1504 1.391 . S
C1506 H1496 0.950 . S
C1506 C1507 1.386 . S
C1506 C1508 1.391 . S
C1507 C1506 1.386 . S
C1507 C1511 1.393 . S
C1508 H1497 0.950 . S
C1508 C1506 1.391 . S
C1508 C1509 1.400 . S
C1509 C1503 1.491 . S
C1509 C1508 1.400 . S
C1509 C1510 1.398 . S
C1510 H1498 0.950 . S
C1510 C1509 1.398 . S
C1510 C1511 1.391 . S
C1511 H1499 0.950 . S
C1511 C1507 1.393 . S
C1511 C1510 1.391 . S
H1512 C1520 0.950 . S
H1513 C1525 0.950 . S
H1514 C1522 0.950 . S
H1515 C1524 0.950 . S
H1516 C1526 0.950 . S
H1517 C1528 0.950 . S
H1518 C1530 0.950 . S
H1519 C1531 0.950 . S
C1520 H1512 0.950 . S
C1520 C1521 1.386 . S
C1520 C1522 1.391 . S
C1521 C1520 1.386 . S
C1521 C1525 1.393 . S
C1522 H1514 0.950 . S
C1522 C1520 1.391 . S
C1522 C1523 1.400 . S
C1523 C1522 1.400 . S
C1523 C1524 1.398 . S
C1523 C1529 1.491 . S
C1524 H1515 0.950 . S
C1524 C1523 1.398 . S
C1524 C1525 1.391 . S
C1525 H1513 0.950 . S
C1525 C1521 1.393 . S
C1525 C1524 1.391 . S
C1526 H1516 0.950 . S
C1526 C1527 1.386 . S
C1526 C1528 1.391 . S
C1527 C1526 1.386 . S
C1527 C1531 1.393 . S
C1528 H1517 0.950 . S
C1528 C1526 1.391 . S
C1528 C1529 1.400 . S
C1529 C1523 1.491 . S
C1529 C1528 1.400 . S
C1529 C1530 1.398 . S
C1530 H1518 0.950 . S
C1530 C1529 1.398 . S
C1530 C1531 1.391 . S
C1531 H1519 0.950 . S
C1531 C1527 1.393 . S
C1531 C1530 1.391 . S
H1532 C1540 0.950 . S
H1533 C1545 0.950 . S
H1534 C1542 0.950 . S
H1535 C1544 0.950 . S
H1536 C1546 0.950 . S
H1537 C1548 0.950 . S
H1538 C1550 0.950 . S
H1539 C1551 0.950 1_455 S
C1540 H1532 0.950 . S
C1540 C1541 1.386 . S
C1540 C1542 1.391 . S
C1541 C1540 1.386 . S
C1541 C1545 1.393 . S
C1542 H1534 0.950 . S
C1542 C1540 1.391 . S
C1542 C1543 1.400 . S
C1543 C1542 1.400 . S
C1543 C1544 1.398 . S
C1543 C1549 1.491 . S
C1544 H1535 0.950 . S
C1544 C1543 1.398 . S
C1544 C1545 1.391 . S
C1545 H1533 0.950 . S
C1545 C1541 1.393 . S
C1545 C1544 1.391 . S
C1546 H1536 0.950 . S
C1546 C1547 1.386 . S
C1546 C1548 1.391 . S
C1547 C1546 1.386 . S
C1547 C1551 1.393 . S
C1548 H1537 0.950 . S
C1548 C1546 1.391 . S
C1548 C1549 1.400 . S
C1549 C1543 1.491 . S
C1549 C1548 1.400 . S
C1549 C1550 1.398 . S
C1550 H1538 0.950 . S
C1550 C1549 1.398 . S
C1550 C1551 1.391 . S
C1551 H1539 0.950 1_655 S
C1551 C1547 1.393 . S
C1551 C1550 1.391 . S
H1552 C1560 0.950 . S
H1553 C1565 0.950 . S
H1554 C1562 0.950 . S
H1555 C1564 0.950 . S
H1556 C1566 0.950 . S
H1557 C1568 0.950 . S
H1558 C1570 0.950 . S
H1559 C1571 0.950 . S
C1560 H1552 0.950 . S
C1560 C1561 1.386 . S
C1560 C1562 1.391 . S
C1561 C1560 1.386 . S
C1561 C1565 1.393 . S
C1562 H1554 0.950 . S
C1562 C1560 1.391 . S
C1562 C1563 1.400 . S
C1563 C1562 1.400 . S
C1563 C1564 1.398 . S
C1563 C1569 1.491 . S
C1564 H1555 0.950 . S
C1564 C1563 1.398 . S
C1564 C1565 1.391 . S
C1565 H1553 0.950 . S
C1565 C1561 1.393 . S
C1565 C1564 1.391 . S
C1566 H1556 0.950 . S
C1566 C1567 1.386 . S
C1566 C1568 1.391 . S
C1567 C1566 1.386 . S
C1567 C1571 1.393 . S
C1568 H1557 0.950 . S
C1568 C1566 1.391 . S
C1568 C1569 1.400 . S
C1569 C1563 1.491 . S
C1569 C1568 1.400 . S
C1569 C1570 1.398 . S
C1570 H1558 0.950 . S
C1570 C1569 1.398 . S
C1570 C1571 1.391 . S
C1571 H1559 0.950 . S
C1571 C1567 1.393 . S
C1571 C1570 1.391 . S
H1572 C1580 0.950 . S
H1573 C1585 0.950 1_455 S
H1574 C1582 0.950 . S
H1575 C1584 0.950 . S
H1576 C1586 0.950 . S
H1577 C1588 0.950 . S
H1578 C1590 0.950 . S
H1579 C1591 0.950 . S
C1580 H1572 0.950 . S
C1580 C1581 1.386 . S
C1580 C1582 1.391 . S
C1581 C1580 1.386 . S
C1581 C1585 1.393 . S
C1582 H1574 0.950 . S
C1582 C1580 1.391 . S
C1582 C1583 1.400 . S
C1583 C1582 1.400 . S
C1583 C1584 1.398 . S
C1583 C1589 1.491 . S
C1584 H1575 0.950 . S
C1584 C1583 1.398 . S
C1584 C1585 1.391 . S
C1585 H1573 0.950 1_655 S
C1585 C1581 1.393 . S
C1585 C1584 1.391 . S
C1586 H1576 0.950 . S
C1586 C1587 1.386 . S
C1586 C1588 1.391 . S
C1587 C1586 1.386 . S
C1587 C1591 1.393 . S
C1588 H1577 0.950 . S
C1588 C1586 1.391 . S
C1588 C1589 1.400 . S
C1589 C1583 1.491 . S
C1589 C1588 1.400 . S
C1589 C1590 1.398 . S
C1590 H1578 0.950 . S
C1590 C1589 1.398 . S
C1590 C1591 1.391 . S
C1591 H1579 0.950 . S
C1591 C1587 1.393 . S
C1591 C1590 1.391 . S
H1592 C1600 0.950 . S
H1593 C1605 0.950 . S
H1594 C1602 0.950 . S
H1595 C1604 0.950 . S
H1596 C1606 0.950 . S
H1597 C1608 0.950 . S
H1598 C1610 0.950 . S
H1599 C1611 0.950 . S
C1600 H1592 0.950 . S
C1600 C1601 1.386 . S
C1600 C1602 1.391 . S
C1601 C1600 1.386 . S
C1601 C1605 1.393 . S
C1602 H1594 0.950 . S
C1602 C1600 1.391 . S
C1602 C1603 1.400 . S
C1603 C1602 1.400 . S
C1603 C1604 1.398 . S
C1603 C1609 1.491 . S
C1604 H1595 0.950 . S
C1604 C1603 1.398 . S
C1604 C1605 1.391 . S
C1605 H1593 0.950 . S
C1605 C1601 1.393 . S
C1605 C1604 1.391 . S
C1606 H1596 0.950 . S
C1606 C1607 1.386 . S
C1606 C1608 1.391 . S
C1607 C1606 1.386 . S
C1607 C1611 1.393 . S
C1608 H1597 0.950 . S
C1608 C1606 1.391 . S
C1608 C1609 1.400 . S
C1609 C1603 1.491 . S
C1609 C1608 1.400 . S
C1609 C1610 1.398 . S
C1610 H1598 0.950 . S
C1610 C1609 1.398 . S
C1610 C1611 1.391 . S
C1611 H1599 0.950 . S
C1611 C1607 1.393 . S
C1611 C1610 1.391 . S
H1612 C1620 0.950 . S
H1613 C1625 0.950 . S
H1614 C1622 0.950 . S
H1615 C1624 0.950 . S
H1616 C1626 0.950 . S
H1617 C1628 0.950 . S
H1618 C1630 0.950 . S
H1619 C1631 0.950 . S
C1620 H1612 0.950 . S
C1620 C1621 1.386 . S
C1620 C1622 1.391 . S
C1621 C1620 1.386 . S
C1621 C1625 1.393 . S
C1622 H1614 0.950 . S
C1622 C1620 1.391 . S
C1622 C1623 1.400 . S
C1623 C1622 1.400 . S
C1623 C1624 1.398 . S
C1623 C1629 1.491 . S
C1624 H1615 0.950 . S
C1624 C1623 1.398 . S
C1624 C1625 1.391 . S
C1625 H1613 0.950 . S
C1625 C1621 1.393 . S
C1625 C1624 1.391 . S
C1626 H1616 0.950 . S
C1626 C1627 1.386 . S
C1626 C1628 1.391 . S
C1627 C1626 1.386 . S
C1627 C1631 1.393 . S
C1628 H1617 0.950 . S
C1628 C1626 1.391 . S
C1628 C1629 1.400 . S
C1629 C1623 1.491 . S
C1629 C1628 1.400 . S
C1629 C1630 1.398 . S
C1630 H1618 0.950 . S
C1630 C1629 1.398 . S
C1630 C1631 1.391 . S
C1631 H1619 0.950 . S
C1631 C1627 1.393 . S
C1631 C1630 1.391 . S
H1632 C1640 0.950 . S
H1633 C1645 0.950 . S
H1634 C1642 0.950 . S
H1635 C1644 0.950 . S
H1636 C1646 0.950 . S
H1637 C1648 0.950 . S
H1638 C1650 0.950 . S
H1639 C1651 0.950 . S
C1640 H1632 0.950 . S
C1640 C1641 1.386 . S
C1640 C1642 1.391 . S
C1641 C1640 1.386 . S
C1641 C1645 1.393 . S
C1642 H1634 0.950 . S
C1642 C1640 1.391 . S
C1642 C1643 1.400 . S
C1643 C1642 1.400 . S
C1643 C1644 1.398 . S
C1643 C1649 1.491 . S
C1644 H1635 0.950 . S
C1644 C1643 1.398 . S
C1644 C1645 1.391 . S
C1645 H1633 0.950 . S
C1645 C1641 1.393 . S
C1645 C1644 1.391 . S
C1646 H1636 0.950 . S
C1646 C1647 1.386 . S
C1646 C1648 1.391 . S
C1647 C1646 1.386 . S
C1647 C1651 1.393 . S
C1648 H1637 0.950 . S
C1648 C1646 1.391 . S
C1648 C1649 1.400 . S
C1649 C1643 1.491 . S
C1649 C1648 1.400 . S
C1649 C1650 1.398 . S
C1650 H1638 0.950 . S
C1650 C1649 1.398 . S
C1650 C1651 1.391 . S
C1651 H1639 0.950 . S
C1651 C1647 1.393 . S
C1651 C1650 1.391 . S
H1652 C1660 0.950 . S
H1653 C1665 0.950 . S
H1654 C1662 0.950 . S
H1655 C1664 0.950 . S
H1656 C1666 0.950 . S
H1657 C1668 0.950 . S
H1658 C1670 0.950 . S
H1659 C1671 0.950 . S
C1660 H1652 0.950 . S
C1660 C1661 1.386 . S
C1660 C1662 1.391 . S
C1661 C1660 1.386 . S
C1661 C1665 1.393 . S
C1662 H1654 0.950 . S
C1662 C1660 1.391 . S
C1662 C1663 1.400 . S
C1663 C1662 1.400 . S
C1663 C1664 1.398 . S
C1663 C1669 1.491 . S
C1664 H1655 0.950 . S
C1664 C1663 1.398 . S
C1664 C1665 1.391 . S
C1665 H1653 0.950 . S
C1665 C1661 1.393 . S
C1665 C1664 1.391 . S
C1666 H1656 0.950 . S
C1666 C1667 1.386 . S
C1666 C1668 1.391 . S
C1667 C1666 1.386 . S
C1667 C1671 1.393 . S
C1668 H1657 0.950 . S
C1668 C1666 1.391 . S
C1668 C1669 1.400 . S
C1669 C1663 1.491 . S
C1669 C1668 1.400 . S
C1669 C1670 1.398 . S
C1670 H1658 0.950 . S
C1670 C1669 1.398 . S
C1670 C1671 1.391 . S
C1671 H1659 0.950 . S
C1671 C1667 1.393 . S
C1671 C1670 1.391 . S
H1672 C1680 0.950 . S
H1673 C1685 0.950 . S
H1674 C1682 0.950 . S
H1675 C1684 0.950 . S
H1676 C1686 0.950 . S
H1677 C1688 0.950 . S
H1678 C1690 0.950 . S
H1679 C1691 0.950 . S
C1680 H1672 0.950 . S
C1680 C1681 1.386 . S
C1680 C1682 1.391 . S
C1681 C1680 1.386 . S
C1681 C1685 1.393 . S
C1682 H1674 0.950 . S
C1682 C1680 1.391 . S
C1682 C1683 1.400 . S
C1683 C1682 1.400 . S
C1683 C1684 1.398 . S
C1683 C1689 1.491 . S
C1684 H1675 0.950 . S
C1684 C1683 1.398 . S
C1684 C1685 1.391 . S
C1685 H1673 0.950 . S
C1685 C1681 1.393 . S
C1685 C1684 1.391 . S
C1686 H1676 0.950 . S
C1686 C1687 1.386 . S
C1686 C1688 1.391 . S
C1687 C1686 1.386 . S
C1687 C1691 1.393 . S
C1688 H1677 0.950 . S
C1688 C1686 1.391 . S
C1688 C1689 1.400 . S
C1689 C1683 1.491 . S
C1689 C1688 1.400 . S
C1689 C1690 1.398 . S
C1690 H1678 0.950 . S
C1690 C1689 1.398 . S
C1690 C1691 1.391 . S
C1691 H1679 0.950 . S
C1691 C1687 1.393 . S
C1691 C1690 1.391 . S
H1692 C1700 0.950 . S
H1693 C1705 0.950 . S
H1694 C1702 0.950 . S
H1695 C1704 0.950 . S
H1696 C1706 0.950 . S
H1697 C1708 0.950 . S
H1698 C1710 0.950 . S
H1699 C1711 0.950 . S
C1700 H1692 0.950 . S
C1700 C1701 1.388 . S
C1700 C1702 1.391 1_655 S
C1701 C1700 1.388 . S
C1701 C1705 1.357 1_655 S
C1702 H1694 0.950 . S
C1702 C1700 1.391 1_455 S
C1702 C1703 1.400 . S
C1703 C1702 1.400 . S
C1703 C1704 1.398 . S
C1703 C1709 1.491 . S
C1704 H1695 0.950 . S
C1704 C1703 1.398 . S
C1704 C1705 1.391 . S
C1705 H1693 0.950 . S
C1705 C1701 1.357 1_455 S
C1705 C1704 1.391 . S
C1706 H1696 0.950 . S
C1706 C1707 1.386 . S
C1706 C1708 1.391 . S
C1707 C1706 1.386 . S
C1707 C1711 1.393 . S
C1708 H1697 0.950 . S
C1708 C1706 1.391 . S
C1708 C1709 1.400 . S
C1709 C1703 1.491 . S
C1709 C1708 1.400 . S
C1709 C1710 1.398 . S
C1710 H1698 0.950 . S
C1710 C1709 1.398 . S
C1710 C1711 1.391 . S
C1711 H1699 0.950 . S
C1711 C1707 1.393 . S
C1711 C1710 1.391 . S
H1712 C1720 0.950 . S
H1713 C1725 0.950 . S
H1714 C1722 0.950 . S
H1715 C1724 0.950 . S
H1716 C1726 0.950 . S
H1717 C1728 0.950 . S
H1718 C1730 0.950 . S
H1719 C1731 0.950 . S
C1720 H1712 0.950 . S
C1720 C1721 1.386 . S
C1720 C1722 1.391 . S
C1721 C1720 1.386 . S
C1721 C1725 1.393 . S
C1722 H1714 0.950 . S
C1722 C1720 1.391 . S
C1722 C1723 1.400 . S
C1723 C1722 1.400 . S
C1723 C1724 1.398 . S
C1723 C1729 1.491 . S
C1724 H1715 0.950 . S
C1724 C1723 1.398 . S
C1724 C1725 1.391 . S
C1725 H1713 0.950 . S
C1725 C1721 1.393 . S
C1725 C1724 1.391 . S
C1726 H1716 0.950 . S
C1726 C1727 1.386 . S
C1726 C1728 1.391 . S
C1727 C1726 1.386 . S
C1727 C1731 1.393 . S
C1728 H1717 0.950 . S
C1728 C1726 1.391 . S
C1728 C1729 1.400 . S
C1729 C1723 1.491 . S
C1729 C1728 1.400 . S
C1729 C1730 1.398 . S
C1730 H1718 0.950 . S
C1730 C1729 1.398 . S
C1730 C1731 1.391 . S
C1731 H1719 0.950 . S
C1731 C1727 1.393 . S
C1731 C1730 1.391 . S
H1732 C1740 0.950 . S
H1733 C1745 0.950 . S
H1734 C1742 0.950 . S
H1735 C1744 0.950 . S
H1736 C1746 0.950 . S
H1737 C1748 0.950 . S
H1738 C1750 0.950 . S
H1739 C1751 0.950 . S
C1740 H1732 0.950 . S
C1740 C1741 1.386 1_455 S
C1740 C1742 1.391 . S
C1741 C1740 1.386 1_655 S
C1741 C1745 1.393 . S
C1742 H1734 0.950 . S
C1742 C1740 1.391 . S
C1742 C1743 1.400 . S
C1743 C1742 1.400 . S
C1743 C1744 1.398 . S
C1743 C1749 1.491 . S
C1744 H1735 0.950 . S
C1744 C1743 1.398 . S
C1744 C1745 1.391 1_455 S
C1745 H1733 0.950 . S
C1745 C1741 1.393 . S
C1745 C1744 1.391 1_655 S
C1746 H1736 0.950 . S
C1746 C1747 1.386 . S
C1746 C1748 1.391 . S
C1747 C1746 1.386 . S
C1747 C1751 1.393 . S
C1748 H1737 0.950 . S
C1748 C1746 1.391 . S
C1748 C1749 1.400 . S
C1749 C1743 1.491 . S
C1749 C1748 1.400 . S
C1749 C1750 1.398 . S
C1750 H1738 0.950 . S
C1750 C1749 1.398 . S
C1750 C1751 1.391 . S
C1751 H1739 0.950 . S
C1751 C1747 1.393 . S
C1751 C1750 1.391 . S
H1752 C1760 0.950 . S
H1753 C1765 0.950 . S
H1754 C1762 0.950 . S
H1755 C1764 0.950 . S
H1756 C1766 0.950 . S
H1757 C1768 0.950 . S
H1758 C1770 0.950 . S
H1759 C1771 0.950 . S
C1760 H1752 0.950 . S
C1760 C1761 1.386 . S
C1760 C1762 1.391 . S
C1761 C1760 1.386 . S
C1761 C1765 1.393 . S
C1762 H1754 0.950 . S
C1762 C1760 1.391 . S
C1762 C1763 1.400 . S
C1763 C1762 1.400 . S
C1763 C1764 1.398 . S
C1763 C1769 1.491 . S
C1764 H1755 0.950 . S
C1764 C1763 1.398 . S
C1764 C1765 1.391 . S
C1765 H1753 0.950 . S
C1765 C1761 1.393 . S
C1765 C1764 1.391 . S
C1766 H1756 0.950 . S
C1766 C1767 1.386 . S
C1766 C1768 1.391 . S
C1767 C1766 1.386 . S
C1767 C1771 1.393 . S
C1768 H1757 0.950 . S
C1768 C1766 1.391 . S
C1768 C1769 1.400 . S
C1769 C1763 1.491 . S
C1769 C1768 1.400 . S
C1769 C1770 1.398 . S
C1770 H1758 0.950 . S
C1770 C1769 1.398 . S
C1770 C1771 1.391 . S
C1771 H1759 0.950 . S
C1771 C1767 1.393 . S
C1771 C1770 1.391 . S
H1772 C1780 0.950 . S
H1773 C1785 0.950 . S
H1774 C1782 0.950 . S
H1775 C1784 0.950 . S
H1776 C1786 0.950 . S
H1777 C1788 0.950 . S
H1778 C1790 0.950 . S
H1779 C1791 0.950 . S
C1780 H1772 0.950 . S
C1780 C1781 1.386 . S
C1780 C1782 1.391 . S
C1781 C1780 1.386 . S
C1781 C1785 1.393 . S
C1782 H1774 0.950 . S
C1782 C1780 1.391 . S
C1782 C1783 1.400 . S
C1783 C1782 1.400 . S
C1783 C1784 1.398 . S
C1783 C1789 1.491 . S
C1784 H1775 0.950 . S
C1784 C1783 1.398 . S
C1784 C1785 1.391 . S
C1785 H1773 0.950 . S
C1785 C1781 1.393 . S
C1785 C1784 1.391 . S
C1786 H1776 0.950 . S
C1786 C1787 1.386 . S
C1786 C1788 1.391 . S
C1787 C1786 1.386 . S
C1787 C1791 1.393 . S
C1788 H1777 0.950 . S
C1788 C1786 1.391 . S
C1788 C1789 1.400 . S
C1789 C1783 1.491 . S
C1789 C1788 1.400 . S
C1789 C1790 1.398 . S
C1790 H1778 0.950 . S
C1790 C1789 1.398 . S
C1790 C1791 1.391 . S
C1791 H1779 0.950 . S
C1791 C1787 1.393 . S
C1791 C1790 1.391 . S
H1792 C1800 0.950 . S
H1793 C1805 0.950 . S
H1794 C1802 0.950 . S
H1795 C1804 0.950 . S
H1796 C1806 0.950 . S
H1797 C1808 0.950 . S
H1798 C1810 0.950 . S
H1799 C1811 0.950 . S
C1800 H1792 0.950 . S
C1800 C1801 1.386 . S
C1800 C1802 1.391 . S
C1801 C1800 1.386 . S
C1801 C1805 1.393 . S
C1802 H1794 0.950 . S
C1802 C1800 1.391 . S
C1802 C1803 1.400 . S
C1803 C1802 1.400 . S
C1803 C1804 1.398 . S
C1803 C1809 1.491 . S
C1804 H1795 0.950 . S
C1804 C1803 1.398 . S
C1804 C1805 1.391 . S
C1805 H1793 0.950 . S
C1805 C1801 1.393 . S
C1805 C1804 1.391 . S
C1806 H1796 0.950 . S
C1806 C1807 1.386 . S
C1806 C1808 1.391 . S
C1807 C1806 1.386 . S
C1807 C1811 1.393 . S
C1808 H1797 0.950 . S
C1808 C1806 1.391 . S
C1808 C1809 1.400 . S
C1809 C1803 1.491 . S
C1809 C1808 1.400 . S
C1809 C1810 1.398 . S
C1810 H1798 0.950 . S
C1810 C1809 1.398 . S
C1810 C1811 1.391 . S
C1811 H1799 0.950 . S
C1811 C1807 1.393 . S
C1811 C1810 1.391 . S
H1812 C1820 0.950 . S
H1813 C1825 0.950 . S
H1814 C1822 0.950 . S
H1815 C1824 0.950 1_545 S
H1816 C1826 0.950 . S
H1817 C1828 0.950 1_655 S
H1818 C1830 0.950 1_565 S
H1819 C1831 0.950 . S
C1820 H1812 0.950 . S
C1820 C1821 1.386 . S
C1820 C1822 1.391 1_655 S
C1821 C1820 1.386 . S
C1821 C1825 1.393 . S
C1822 H1814 0.950 . S
C1822 C1820 1.391 1_455 S
C1822 C1823 1.400 1_455 S
C1823 C1822 1.400 1_655 S
C1823 C1824 1.398 . S
C1823 C1829 1.491 1_665 S
C1824 H1815 0.950 1_565 S
C1824 C1823 1.398 . S
C1824 C1825 1.391 . S
C1825 H1813 0.950 . S
C1825 C1821 1.393 . S
C1825 C1824 1.391 . S
C1826 H1816 0.950 . S
C1826 C1827 1.386 . S
C1826 C1828 1.391 . S
C1827 C1826 1.386 . S
C1827 C1831 1.393 . S
C1828 H1817 0.950 1_455 S
C1828 C1826 1.391 . S
C1828 C1829 1.400 . S
C1829 C1823 1.491 1_445 S
C1829 C1828 1.400 . S
C1829 C1830 1.398 . S
C1830 H1818 0.950 1_545 S
C1830 C1829 1.398 . S
C1830 C1831 1.391 . S
C1831 H1819 0.950 . S
C1831 C1827 1.393 . S
C1831 C1830 1.391 . S
H1832 C1840 0.950 . S
H1833 C1845 0.950 . S
H1834 C1842 0.950 . S
H1835 C1844 0.950 . S
H1836 C1846 0.950 . S
H1837 C1848 0.950 . S
H1838 C1850 0.950 . S
H1839 C1851 0.950 . S
C1840 H1832 0.950 . S
C1840 C1841 1.386 . S
C1840 C1842 1.391 . S
C1841 C1840 1.386 . S
C1841 C1845 1.393 . S
C1842 H1834 0.950 . S
C1842 C1840 1.391 . S
C1842 C1843 1.400 . S
C1843 C1842 1.400 . S
C1843 C1844 1.398 . S
C1843 C1849 1.491 . S
C1844 H1835 0.950 . S
C1844 C1843 1.398 . S
C1844 C1845 1.391 . S
C1845 H1833 0.950 . S
C1845 C1841 1.393 . S
C1845 C1844 1.391 . S
C1846 H1836 0.950 . S
C1846 C1847 1.386 . S
C1846 C1848 1.391 . S
C1847 C1846 1.386 . S
C1847 C1851 1.393 . S
C1848 H1837 0.950 . S
C1848 C1846 1.391 . S
C1848 C1849 1.400 . S
C1849 C1843 1.491 . S
C1849 C1848 1.400 . S
C1849 C1850 1.398 . S
C1850 H1838 0.950 . S
C1850 C1849 1.398 . S
C1850 C1851 1.391 . S
C1851 H1839 0.950 . S
C1851 C1847 1.393 . S
C1851 C1850 1.391 . S
H1852 C1860 0.950 . S
H1853 C1865 0.950 . S
H1854 C1862 0.950 1_565 S
H1855 C1864 0.950 . S
H1856 C1866 0.950 . S
H1857 C1868 0.950 1_545 S
H1858 C1870 0.950 . S
H1859 C1871 0.950 . S
C1860 H1852 0.950 . S
C1860 C1861 1.386 . S
C1860 C1862 1.391 . S
C1861 C1860 1.386 . S
C1861 C1865 1.393 . S
C1862 H1854 0.950 1_545 S
C1862 C1860 1.391 . S
C1862 C1863 1.400 . S
C1863 C1862 1.400 . S
C1863 C1864 1.398 . S
C1863 C1869 1.491 1_544 S
C1864 H1855 0.950 . S
C1864 C1863 1.398 . S
C1864 C1865 1.391 . S
C1865 H1853 0.950 . S
C1865 C1861 1.393 . S
C1865 C1864 1.391 . S
C1866 H1856 0.950 . S
C1866 C1867 1.386 . S
C1866 C1868 1.391 . S
C1867 C1866 1.386 . S
C1867 C1871 1.393 . S
C1868 H1857 0.950 1_565 S
C1868 C1866 1.391 . S
C1868 C1869 1.400 . S
C1869 C1863 1.491 1_566 S
C1869 C1868 1.400 . S
C1869 C1870 1.398 . S
C1870 H1858 0.950 . S
C1870 C1869 1.398 . S
C1870 C1871 1.391 . S
C1871 H1859 0.950 . S
C1871 C1867 1.393 . S
C1871 C1870 1.391 . S
H1872 C1880 0.950 . S
H1873 C1885 0.950 . S
H1874 C1882 0.950 . S
H1875 C1884 0.950 . S
H1876 C1886 0.950 . S
H1877 C1888 0.950 . S
H1878 C1890 0.950 . S
H1879 C1891 0.950 . S
C1880 H1872 0.950 . S
C1880 C1881 1.386 . S
C1880 C1882 1.391 . S
C1881 C1880 1.386 . S
C1881 C1885 1.393 . S
C1882 H1874 0.950 . S
C1882 C1880 1.391 . S
C1882 C1883 1.400 . S
C1883 C1882 1.400 . S
C1883 C1884 1.398 . S
C1883 C1889 1.491 . S
C1884 H1875 0.950 . S
C1884 C1883 1.398 . S
C1884 C1885 1.391 . S
C1885 H1873 0.950 . S
C1885 C1881 1.393 . S
C1885 C1884 1.391 . S
C1886 H1876 0.950 . S
C1886 C1887 1.386 . S
C1886 C1888 1.391 . S
C1887 C1886 1.386 . S
C1887 C1891 1.393 . S
C1888 H1877 0.950 . S
C1888 C1886 1.391 . S
C1888 C1889 1.400 . S
C1889 C1883 1.491 . S
C1889 C1888 1.400 . S
C1889 C1890 1.398 . S
C1890 H1878 0.950 . S
C1890 C1889 1.398 . S
C1890 C1891 1.391 . S
C1891 H1879 0.950 . S
C1891 C1887 1.393 . S
C1891 C1890 1.391 . S
H1892 C1900 0.950 . S
H1893 C1905 0.950 . S
H1894 C1902 0.950 . S
H1895 C1904 0.950 1_545 S
H1896 C1906 0.950 . S
H1897 C1908 0.950 . S
H1898 C1910 0.950 1_565 S
H1899 C1911 0.950 . S
C1900 H1892 0.950 . S
C1900 C1901 1.386 . S
C1900 C1902 1.391 . S
C1901 C1900 1.386 . S
C1901 C1905 1.393 . S
C1902 H1894 0.950 . S
C1902 C1900 1.391 . S
C1902 C1903 1.400 . S
C1903 C1902 1.400 . S
C1903 C1904 1.398 . S
C1903 C1909 1.491 1_565 S
C1904 H1895 0.950 1_565 S
C1904 C1903 1.398 . S
C1904 C1905 1.391 . S
C1905 H1893 0.950 . S
C1905 C1901 1.393 . S
C1905 C1904 1.391 . S
C1906 H1896 0.950 . S
C1906 C1907 1.386 . S
C1906 C1908 1.391 . S
C1907 C1906 1.386 . S
C1907 C1911 1.393 . S
C1908 H1897 0.950 . S
C1908 C1906 1.391 . S
C1908 C1909 1.400 . S
C1909 C1903 1.491 1_545 S
C1909 C1908 1.400 . S
C1909 C1910 1.398 . S
C1910 H1898 0.950 1_545 S
C1910 C1909 1.398 . S
C1910 C1911 1.391 . S
C1911 H1899 0.950 . S
C1911 C1907 1.393 . S
C1911 C1910 1.391 . S
H1912 C1920 0.950 . S
H1913 C1925 0.950 . S
H1914 C1922 0.950 . S
H1915 C1924 0.950 . S
H1916 C1926 0.950 . S
H1917 C1928 0.950 . S
H1918 C1930 0.950 . S
H1919 C1931 0.950 . S
C1920 H1912 0.950 . S
C1920 C1921 1.386 . S
C1920 C1922 1.391 . S
C1921 C1920 1.386 . S
C1921 C1925 1.393 . S
C1922 H1914 0.950 . S
C1922 C1920 1.391 . S
C1922 C1923 1.400 . S
C1923 C1922 1.400 . S
C1923 C1924 1.398 . S
C1923 C1929 1.491 . S
C1924 H1915 0.950 . S
C1924 C1923 1.398 . S
C1924 C1925 1.391 . S
C1925 H1913 0.950 . S
C1925 C1921 1.393 . S
C1925 C1924 1.391 . S
C1926 H1916 0.950 . S
C1926 C1927 1.386 . S
C1926 C1928 1.391 . S
C1927 C1926 1.386 . S
C1927 C1931 1.393 . S
C1928 H1917 0.950 . S
C1928 C1926 1.391 . S
C1928 C1929 1.400 . S
C1929 C1923 1.491 . S
C1929 C1928 1.400 . S
C1929 C1930 1.398 . S
C1930 H1918 0.950 . S
C1930 C1929 1.398 . S
C1930 C1931 1.391 . S
C1931 H1919 0.950 . S
C1931 C1927 1.393 . S
C1931 C1930 1.391 . S
H1932 C1940 0.950 . S
H1933 C1945 0.950 . S
H1934 C1942 0.942 1_455 S
H1935 C1944 0.950 1_565 S
H1936 C1946 0.950 . S
H1937 C1948 0.950 . S
H1938 C1950 0.950 1_545 S
H1939 C1951 0.950 . S
C1940 H1932 0.950 . S
C1940 C1941 1.386 1_554 S
C1940 C1942 1.391 . S
C1941 C1940 1.386 1_556 S
C1941 C1945 1.393 . S
C1942 H1934 0.942 1_655 S
C1942 C1940 1.391 . S
C1942 C1943 1.384 1_554 S
C1943 C1942 1.384 1_556 S
C1943 C1944 1.423 . S
C1943 C1949 1.483 1_646 S
C1944 H1935 0.950 1_545 S
C1944 C1943 1.423 . S
C1944 C1945 1.391 . S
C1945 H1933 0.950 . S
C1945 C1941 1.393 . S
C1945 C1944 1.391 . S
C1946 H1936 0.950 . S
C1946 C1947 1.386 1_556 S
C1946 C1948 1.391 . S
C1947 C1946 1.386 1_554 S
C1947 C1951 1.393 . S
C1948 H1937 0.950 . S
C1948 C1946 1.391 . S
C1948 C1949 1.400 1_556 S
C1949 C1943 1.483 1_464 S
C1949 C1948 1.400 1_554 S
C1949 C1950 1.398 . S
C1950 H1938 0.950 1_565 S
C1950 C1949 1.398 . S
C1950 C1951 1.391 . S
C1951 H1939 0.950 . S
C1951 C1947 1.393 . S
C1951 C1950 1.391 . S
H1952 C1960 0.950 . S
H1953 C1965 0.950 . S
H1954 C1962 0.950 . S
H1955 C1964 0.950 . S
H1956 C1966 0.950 . S
H1957 C1968 0.950 . S
H1958 C1970 0.950 . S
H1959 C1971 0.950 . S
C1960 H1952 0.950 . S
C1960 C1961 1.386 . S
C1960 C1962 1.391 . S
C1961 C1960 1.386 . S
C1961 C1965 1.393 . S
C1962 H1954 0.950 . S
C1962 C1960 1.391 . S
C1962 C1963 1.400 . S
C1963 C1962 1.400 . S
C1963 C1964 1.398 . S
C1963 C1969 1.491 . S
C1964 H1955 0.950 . S
C1964 C1963 1.398 . S
C1964 C1965 1.391 . S
C1965 H1953 0.950 . S
C1965 C1961 1.393 . S
C1965 C1964 1.391 . S
C1966 H1956 0.950 . S
C1966 C1967 1.386 . S
C1966 C1968 1.391 . S
C1967 C1966 1.386 . S
C1967 C1971 1.393 . S
C1968 H1957 0.950 . S
C1968 C1966 1.391 . S
C1968 C1969 1.400 . S
C1969 C1963 1.491 . S
C1969 C1968 1.400 . S
C1969 C1970 1.398 . S
C1970 H1958 0.950 . S
C1970 C1969 1.398 . S
C1970 C1971 1.391 . S
C1971 H1959 0.950 . S
C1971 C1967 1.393 . S
C1971 C1970 1.391 . S
H1972 C1980 0.950 . S
H1973 C1985 0.950 . S
H1974 C1982 0.950 . S
H1975 C1984 0.950 . S
H1976 C1986 0.950 . S
H1977 C1988 0.950 . S
H1978 C1990 0.950 . S
H1979 C1991 0.950 . S
C1980 H1972 0.950 . S
C1980 C1981 1.386 . S
C1980 C1982 1.391 . S
C1981 C1980 1.386 . S
C1981 C1985 1.393 . S
C1982 H1974 0.950 . S
C1982 C1980 1.391 . S
C1982 C1983 1.400 . S
C1983 C1982 1.400 . S
C1983 C1984 1.398 . S
C1983 C1989 1.491 . S
C1984 H1975 0.950 . S
C1984 C1983 1.398 . S
C1984 C1985 1.391 . S
C1985 H1973 0.950 . S
C1985 C1981 1.393 . S
C1985 C1984 1.391 . S
C1986 H1976 0.950 . S
C1986 C1987 1.386 . S
C1986 C1988 1.391 . S
C1987 C1986 1.386 . S
C1987 C1991 1.393 . S
C1988 H1977 0.950 . S
C1988 C1986 1.391 . S
C1988 C1989 1.400 . S
C1989 C1983 1.491 . S
C1989 C1988 1.400 . S
C1989 C1990 1.398 . S
C1990 H1978 0.950 . S
C1990 C1989 1.398 . S
C1990 C1991 1.391 . S
C1991 H1979 0.950 . S
C1991 C1987 1.393 . S
C1991 C1990 1.391 . S
H1992 C2000 0.950 . S
H1993 C2005 0.950 . S
H1994 C2002 0.950 . S
H1995 C2004 0.950 . S
H1996 C2006 0.950 . S
H1997 C2008 0.950 . S
H1998 C2010 0.950 . S
H1999 C2011 0.950 . S
C2000 H1992 0.950 . S
C2000 C2001 1.386 . S
C2000 C2002 1.391 . S
C2001 C2000 1.386 . S
C2001 C2005 1.393 . S
C2002 H1994 0.950 . S
C2002 C2000 1.391 . S
C2002 C2003 1.400 . S
C2003 C2002 1.400 . S
C2003 C2004 1.398 . S
C2003 C2009 1.491 . S
C2004 H1995 0.950 . S
C2004 C2003 1.398 . S
C2004 C2005 1.391 . S
C2005 H1993 0.950 . S
C2005 C2001 1.393 . S
C2005 C2004 1.391 . S
C2006 H1996 0.950 . S
C2006 C2007 1.386 . S
C2006 C2008 1.391 . S
C2007 C2006 1.386 . S
C2007 C2011 1.393 . S
C2008 H1997 0.950 . S
C2008 C2006 1.391 . S
C2008 C2009 1.400 . S
C2009 C2003 1.491 . S
C2009 C2008 1.400 . S
C2009 C2010 1.398 . S
C2010 H1998 0.950 . S
C2010 C2009 1.398 . S
C2010 C2011 1.391 . S
C2011 H1999 0.950 . S
C2011 C2007 1.393 . S
C2011 C2010 1.391 . S
H2012 C2020 0.950 . S
H2013 C2025 0.950 . S
H2014 C2022 0.950 . S
H2015 C2024 0.950 . S
H2016 C2026 0.950 . S
H2017 C2028 0.950 . S
H2018 C2030 0.950 . S
H2019 C2031 0.950 . S
C2020 H2012 0.950 . S
C2020 C2021 1.386 . S
C2020 C2022 1.391 . S
C2021 C2020 1.386 . S
C2021 C2025 1.393 . S
C2022 H2014 0.950 . S
C2022 C2020 1.391 . S
C2022 C2023 1.400 . S
C2023 C2022 1.400 . S
C2023 C2024 1.398 . S
C2023 C2029 1.491 . S
C2024 H2015 0.950 . S
C2024 C2023 1.398 . S
C2024 C2025 1.391 . S
C2025 H2013 0.950 . S
C2025 C2021 1.393 . S
C2025 C2024 1.391 . S
C2026 H2016 0.950 . S
C2026 C2027 1.386 . S
C2026 C2028 1.391 . S
C2027 C2026 1.386 . S
C2027 C2031 1.393 . S
C2028 H2017 0.950 . S
C2028 C2026 1.391 . S
C2028 C2029 1.400 . S
C2029 C2023 1.491 . S
C2029 C2028 1.400 . S
C2029 C2030 1.398 . S
C2030 H2018 0.950 . S
C2030 C2029 1.398 . S
C2030 C2031 1.391 . S
C2031 H2019 0.950 . S
C2031 C2027 1.393 . S
C2031 C2030 1.391 . S
H2032 C2040 0.950 . S
H2033 C2045 0.950 . S
H2034 C2042 0.950 . S
H2035 C2044 0.950 . S
H2036 C2046 0.950 . S
H2037 C2048 0.950 1_554 S
H2038 C2050 0.950 . S
H2039 C2051 0.950 . S
C2040 H2032 0.950 . S
C2040 C2041 1.386 . S
C2040 C2042 1.391 1_554 S
C2041 C2040 1.386 . S
C2041 C2045 1.393 . S
C2042 H2034 0.950 . S
C2042 C2040 1.391 1_556 S
C2042 C2043 1.400 1_556 S
C2043 C2042 1.400 1_554 S
C2043 C2044 1.398 . S
C2043 C2049 1.491 1_554 S
C2044 H2035 0.950 . S
C2044 C2043 1.398 . S
C2044 C2045 1.391 . S
C2045 H2033 0.950 . S
C2045 C2041 1.393 . S
C2045 C2044 1.391 . S
C2046 H2036 0.950 . S
C2046 C2047 1.386 . S
C2046 C2048 1.391 . S
C2047 C2046 1.386 . S
C2047 C2051 1.393 . S
C2048 H2037 0.950 1_556 S
C2048 C2046 1.391 . S
C2048 C2049 1.400 . S
C2049 C2043 1.491 1_556 S
C2049 C2048 1.400 . S
C2049 C2050 1.398 . S
C2050 H2038 0.950 . S
C2050 C2049 1.398 . S
C2050 C2051 1.391 . S
C2051 H2039 0.950 . S
C2051 C2047 1.393 . S
C2051 C2050 1.391 . S
H2052 C2060 0.950 . S
H2053 C2065 0.950 . S
H2054 C2062 0.950 . S
H2055 C2064 0.950 . S
H2056 C2066 0.950 . S
H2057 C2068 0.950 . S
H2058 C2070 0.950 1_655 S
H2059 C2071 0.950 . S
C2060 H2052 0.950 . S
C2060 C2061 1.386 . S
C2060 C2062 1.391 . S
C2061 C2060 1.386 . S
C2061 C2065 1.393 . S
C2062 H2054 0.950 . S
C2062 C2060 1.391 . S
C2062 C2063 1.400 . S
C2063 C2062 1.400 . S
C2063 C2064 1.398 . S
C2063 C2069 1.491 1_655 S
C2064 H2055 0.950 . S
C2064 C2063 1.398 . S
C2064 C2065 1.391 . S
C2065 H2053 0.950 . S
C2065 C2061 1.393 . S
C2065 C2064 1.391 . S
C2066 H2056 0.950 . S
C2066 C2067 1.386 . S
C2066 C2068 1.391 . S
C2067 C2066 1.386 . S
C2067 C2071 1.393 . S
C2068 H2057 0.950 . S
C2068 C2066 1.391 . S
C2068 C2069 1.400 . S
C2069 C2063 1.491 1_455 S
C2069 C2068 1.400 . S
C2069 C2070 1.398 . S
C2070 H2058 0.950 1_455 S
C2070 C2069 1.398 . S
C2070 C2071 1.391 . S
C2071 H2059 0.950 . S
C2071 C2067 1.393 . S
C2071 C2070 1.391 . S
H2072 C2080 0.950 . S
H2073 C2085 0.950 . S
H2074 C2082 0.950 . S
H2075 C2084 0.950 1_655 S
H2076 C2086 0.950 . S
H2077 C2088 0.950 . S
H2078 C2090 0.950 . S
H2079 C2091 0.950 . S
C2080 H2072 0.950 . S
C2080 C2081 1.386 1_554 S
C2080 C2082 1.391 . S
C2081 C2080 1.386 1_556 S
C2081 C2085 1.393 . S
C2082 H2074 0.950 . S
C2082 C2080 1.391 . S
C2082 C2083 1.400 1_554 S
C2083 C2082 1.400 1_556 S
C2083 C2084 1.398 . S
C2083 C2089 1.491 1_456 S
C2084 H2075 0.950 1_455 S
C2084 C2083 1.398 . S
C2084 C2085 1.391 . S
C2085 H2073 0.950 . S
C2085 C2081 1.393 . S
C2085 C2084 1.391 . S
C2086 H2076 0.950 . S
C2086 C2087 1.386 1_556 S
C2086 C2088 1.391 . S
C2087 C2086 1.386 1_554 S
C2087 C2091 1.393 . S
C2088 H2077 0.950 . S
C2088 C2086 1.391 . S
C2088 C2089 1.400 1_556 S
C2089 C2083 1.491 1_654 S
C2089 C2088 1.400 1_554 S
C2089 C2090 1.398 . S
C2090 H2078 0.950 . S
C2090 C2089 1.398 . S
C2090 C2091 1.391 . S
C2091 H2079 0.950 . S
C2091 C2087 1.393 . S
C2091 C2090 1.391 . S
H2092 C2100 0.950 . S
H2093 C2105 0.950 . S
H2094 C2102 0.950 . S
H2095 C2104 0.950 . S
H2096 C2106 0.950 . S
H2097 C2108 0.950 . S
H2098 C2110 0.950 . S
H2099 C2111 0.950 . S
C2100 H2092 0.950 . S
C2100 C2101 1.386 . S
C2100 C2102 1.391 . S
C2101 C2100 1.386 . S
C2101 C2105 1.393 . S
C2102 H2094 0.950 . S
C2102 C2100 1.391 . S
C2102 C2103 1.400 . S
C2103 C2102 1.400 . S
C2103 C2104 1.398 . S
C2103 C2109 1.491 . S
C2104 H2095 0.950 . S
C2104 C2103 1.398 . S
C2104 C2105 1.391 . S
C2105 H2093 0.950 . S
C2105 C2101 1.393 . S
C2105 C2104 1.391 . S
C2106 H2096 0.950 . S
C2106 C2107 1.386 . S
C2106 C2108 1.391 . S
C2107 C2106 1.386 . S
C2107 C2111 1.393 . S
C2108 H2097 0.950 . S
C2108 C2106 1.391 . S
C2108 C2109 1.400 . S
C2109 C2103 1.491 . S
C2109 C2108 1.400 . S
C2109 C2110 1.398 . S
C2110 H2098 0.950 . S
C2110 C2109 1.398 . S
C2110 C2111 1.391 . S
C2111 H2099 0.950 . S
C2111 C2107 1.393 . S
C2111 C2110 1.391 . S
H2112 C2120 0.950 . S
H2113 C2125 0.950 . S
H2114 C2122 0.950 . S
H2115 C2124 0.950 . S
H2116 C2126 0.950 . S
H2117 C2128 0.950 . S
H2118 C2130 0.950 . S
H2119 C2131 0.950 . S
C2120 H2112 0.950 . S
C2120 C2121 1.386 . S
C2120 C2122 1.391 . S
C2121 C2120 1.386 . S
C2121 C2125 1.393 . S
C2122 H2114 0.950 . S
C2122 C2120 1.391 . S
C2122 C2123 1.400 . S
C2123 C2122 1.400 . S
C2123 C2124 1.398 . S
C2123 C2129 1.491 . S
C2124 H2115 0.950 . S
C2124 C2123 1.398 . S
C2124 C2125 1.391 . S
C2125 H2113 0.950 . S
C2125 C2121 1.393 . S
C2125 C2124 1.391 . S
C2126 H2116 0.950 . S
C2126 C2127 1.386 . S
C2126 C2128 1.391 . S
C2127 C2126 1.386 . S
C2127 C2131 1.393 . S
C2128 H2117 0.950 . S
C2128 C2126 1.391 . S
C2128 C2129 1.400 . S
C2129 C2123 1.491 . S
C2129 C2128 1.400 . S
C2129 C2130 1.398 . S
C2130 H2118 0.950 . S
C2130 C2129 1.398 . S
C2130 C2131 1.391 . S
C2131 H2119 0.950 . S
C2131 C2127 1.393 . S
C2131 C2130 1.391 . S
H2132 C2140 0.950 . S
H2133 C2145 0.950 . S
H2134 C2142 0.950 . S
H2135 C2144 0.950 . S
H2136 C2146 0.950 . S
H2137 C2148 0.950 . S
H2138 C2150 0.950 . S
H2139 C2151 0.950 . S
C2140 H2132 0.950 . S
C2140 C2141 1.386 . S
C2140 C2142 1.391 . S
C2141 C2140 1.386 . S
C2141 C2145 1.393 . S
C2142 H2134 0.950 . S
C2142 C2140 1.391 . S
C2142 C2143 1.400 . S
C2143 C2142 1.400 . S
C2143 C2144 1.398 . S
C2143 C2149 1.491 . S
C2144 H2135 0.950 . S
C2144 C2143 1.398 . S
C2144 C2145 1.391 . S
C2145 H2133 0.950 . S
C2145 C2141 1.393 . S
C2145 C2144 1.391 . S
C2146 H2136 0.950 . S
C2146 C2147 1.386 . S
C2146 C2148 1.391 . S
C2147 C2146 1.386 . S
C2147 C2151 1.393 . S
C2148 H2137 0.950 . S
C2148 C2146 1.391 . S
C2148 C2149 1.400 . S
C2149 C2143 1.491 . S
C2149 C2148 1.400 . S
C2149 C2150 1.398 . S
C2150 H2138 0.950 . S
C2150 C2149 1.398 . S
C2150 C2151 1.391 . S
C2151 H2139 0.950 . S
C2151 C2147 1.393 . S
C2151 C2150 1.391 . S
H2152 C2160 0.950 . S
H2153 C2165 0.950 . S
H2154 C2162 0.950 . S
H2155 C2164 0.950 . S
H2156 C2166 0.950 . S
H2157 C2168 0.950 . S
H2158 C2170 0.950 . S
H2159 C2171 0.950 . S
C2160 H2152 0.950 . S
C2160 C2161 1.386 . S
C2160 C2162 1.391 . S
C2161 C2160 1.386 . S
C2161 C2165 1.393 . S
C2162 H2154 0.950 . S
C2162 C2160 1.391 . S
C2162 C2163 1.400 . S
C2163 C2162 1.400 . S
C2163 C2164 1.398 . S
C2163 C2169 1.491 . S
C2164 H2155 0.950 . S
C2164 C2163 1.398 . S
C2164 C2165 1.391 . S
C2165 H2153 0.950 . S
C2165 C2161 1.393 . S
C2165 C2164 1.391 . S
C2166 H2156 0.950 . S
C2166 C2167 1.386 . S
C2166 C2168 1.391 . S
C2167 C2166 1.386 . S
C2167 C2171 1.393 . S
C2168 H2157 0.950 . S
C2168 C2166 1.391 . S
C2168 C2169 1.400 . S
C2169 C2163 1.491 . S
C2169 C2168 1.400 . S
C2169 C2170 1.398 . S
C2170 H2158 0.950 . S
C2170 C2169 1.398 . S
C2170 C2171 1.391 . S
C2171 H2159 0.950 . S
C2171 C2167 1.393 . S
C2171 C2170 1.391 . S
H2172 C2180 0.950 . S
H2173 C2185 0.950 . S
H2174 C2182 0.950 . S
H2175 C2184 0.950 . S
H2176 C2186 0.950 . S
H2177 C2188 0.950 . S
H2178 C2190 0.950 . S
H2179 C2191 0.950 . S
C2180 H2172 0.950 . S
C2180 C2181 1.386 . S
C2180 C2182 1.391 . S
C2181 C2180 1.386 . S
C2181 C2185 1.393 . S
C2182 H2174 0.950 . S
C2182 C2180 1.391 . S
C2182 C2183 1.400 . S
C2183 C2182 1.400 . S
C2183 C2184 1.398 . S
C2183 C2189 1.491 . S
C2184 H2175 0.950 . S
C2184 C2183 1.398 . S
C2184 C2185 1.391 . S
C2185 H2173 0.950 . S
C2185 C2181 1.393 . S
C2185 C2184 1.391 . S
C2186 H2176 0.950 . S
C2186 C2187 1.386 . S
C2186 C2188 1.391 . S
C2187 C2186 1.386 . S
C2187 C2191 1.393 . S
C2188 H2177 0.950 . S
C2188 C2186 1.391 . S
C2188 C2189 1.400 . S
C2189 C2183 1.491 . S
C2189 C2188 1.400 . S
C2189 C2190 1.398 . S
C2190 H2178 0.950 . S
C2190 C2189 1.398 . S
C2190 C2191 1.391 . S
C2191 H2179 0.950 . S
C2191 C2187 1.393 . S
C2191 C2190 1.391 . S
H2192 C2200 0.950 . S
H2193 C2205 0.950 . S
H2194 C2202 0.950 . S
H2195 C2204 0.950 . S
H2196 C2206 0.950 . S
H2197 C2208 0.950 . S
H2198 C2210 0.950 . S
H2199 C2211 0.950 . S
C2200 H2192 0.950 . S
C2200 C2201 1.386 . S
C2200 C2202 1.391 . S
C2201 C2200 1.386 . S
C2201 C2205 1.393 . S
C2202 H2194 0.950 . S
C2202 C2200 1.391 . S
C2202 C2203 1.400 . S
C2203 C2202 1.400 . S
C2203 C2204 1.398 . S
C2203 C2209 1.491 . S
C2204 H2195 0.950 . S
C2204 C2203 1.398 . S
C2204 C2205 1.391 . S
C2205 H2193 0.950 . S
C2205 C2201 1.393 . S
C2205 C2204 1.391 . S
C2206 H2196 0.950 . S
C2206 C2207 1.386 . S
C2206 C2208 1.391 . S
C2207 C2206 1.386 . S
C2207 C2211 1.393 . S
C2208 H2197 0.950 . S
C2208 C2206 1.391 . S
C2208 C2209 1.400 . S
C2209 C2203 1.491 . S
C2209 C2208 1.400 . S
C2209 C2210 1.398 . S
C2210 H2198 0.950 . S
C2210 C2209 1.398 . S
C2210 C2211 1.391 . S
C2211 H2199 0.950 . S
C2211 C2207 1.393 . S
C2211 C2210 1.391 . S
H2212 C2220 0.950 . S
H2213 C2225 0.950 . S
H2214 C2222 0.950 . S
H2215 C2224 0.950 . S
H2216 C2226 0.950 . S
H2217 C2228 0.950 . S
H2218 C2230 0.950 . S
H2219 C2231 0.950 . S
C2220 H2212 0.950 . S
C2220 C2221 1.386 . S
C2220 C2222 1.391 . S
C2221 C2220 1.386 . S
C2221 C2225 1.393 . S
C2222 H2214 0.950 . S
C2222 C2220 1.391 . S
C2222 C2223 1.400 . S
C2223 C2222 1.400 . S
C2223 C2224 1.398 . S
C2223 C2229 1.491 . S
C2224 H2215 0.950 . S
C2224 C2223 1.398 . S
C2224 C2225 1.391 . S
C2225 H2213 0.950 . S
C2225 C2221 1.393 . S
C2225 C2224 1.391 . S
C2226 H2216 0.950 . S
C2226 C2227 1.386 . S
C2226 C2228 1.391 . S
C2227 C2226 1.386 . S
C2227 C2231 1.393 . S
C2228 H2217 0.950 . S
C2228 C2226 1.391 . S
C2228 C2229 1.400 . S
C2229 C2223 1.491 . S
C2229 C2228 1.400 . S
C2229 C2230 1.398 . S
C2230 H2218 0.950 . S
C2230 C2229 1.398 . S
C2230 C2231 1.391 . S
C2231 H2219 0.950 . S
C2231 C2227 1.393 . S
C2231 C2230 1.391 . S
H2232 C2240 0.950 . S
H2233 C2245 0.950 . S
H2234 C2242 0.950 . S
H2235 C2244 0.950 . S
H2236 C2246 0.950 . S
H2237 C2248 0.950 . S
H2238 C2250 0.950 . S
H2239 C2251 0.950 . S
C2240 H2232 0.950 . S
C2240 C2241 1.386 . S
C2240 C2242 1.391 . S
C2241 C2240 1.386 . S
C2241 C2245 1.393 . S
C2242 H2234 0.950 . S
C2242 C2240 1.391 . S
C2242 C2243 1.400 . S
C2243 C2242 1.400 . S
C2243 C2244 1.398 . S
C2243 C2249 1.491 . S
C2244 H2235 0.950 . S
C2244 C2243 1.398 . S
C2244 C2245 1.391 . S
C2245 H2233 0.950 . S
C2245 C2241 1.393 . S
C2245 C2244 1.391 . S
C2246 H2236 0.950 . S
C2246 C2247 1.386 . S
C2246 C2248 1.391 . S
C2247 C2246 1.386 . S
C2247 C2251 1.393 . S
C2248 H2237 0.950 . S
C2248 C2246 1.391 . S
C2248 C2249 1.400 . S
C2249 C2243 1.491 . S
C2249 C2248 1.400 . S
C2249 C2250 1.398 . S
C2250 H2238 0.950 . S
C2250 C2249 1.398 . S
C2250 C2251 1.391 . S
C2251 H2239 0.950 . S
C2251 C2247 1.393 . S
C2251 C2250 1.391 . S
H2252 C2260 0.950 . S
H2253 C2265 0.950 . S
H2254 C2262 0.950 . S
H2255 C2264 0.950 . S
H2256 C2266 0.950 . S
H2257 C2268 0.950 . S
H2258 C2270 0.950 . S
H2259 C2271 0.950 . S
C2260 H2252 0.950 . S
C2260 C2261 1.386 . S
C2260 C2262 1.391 . S
C2261 C2260 1.386 . S
C2261 C2265 1.393 . S
C2262 H2254 0.950 . S
C2262 C2260 1.391 . S
C2262 C2263 1.400 . S
C2263 C2262 1.400 . S
C2263 C2264 1.398 . S
C2263 C2269 1.491 . S
C2264 H2255 0.950 . S
C2264 C2263 1.398 . S
C2264 C2265 1.391 . S
C2265 H2253 0.950 . S
C2265 C2261 1.393 . S
C2265 C2264 1.391 . S
C2266 H2256 0.950 . S
C2266 C2267 1.386 . S
C2266 C2268 1.391 . S
C2267 C2266 1.386 . S
C2267 C2271 1.393 . S
C2268 H2257 0.950 . S
C2268 C2266 1.391 . S
C2268 C2269 1.400 . S
C2269 C2263 1.491 . S
C2269 C2268 1.400 . S
C2269 C2270 1.398 . S
C2270 H2258 0.950 . S
C2270 C2269 1.398 . S
C2270 C2271 1.391 . S
C2271 H2259 0.950 . S
C2271 C2267 1.393 . S
C2271 C2270 1.391 . S
H2272 C2280 0.950 . S
H2273 C2285 0.950 . S
H2274 C2282 0.950 . S
H2275 C2284 0.950 . S
H2276 C2286 0.950 . S
H2277 C2288 0.950 . S
H2278 C2290 0.950 . S
H2279 C2291 0.950 . S
C2280 H2272 0.950 . S
C2280 C2281 1.386 . S
C2280 C2282 1.391 . S
C2281 C2280 1.386 . S
C2281 C2285 1.393 . S
C2282 H2274 0.950 . S
C2282 C2280 1.391 . S
C2282 C2283 1.400 . S
C2283 C2282 1.400 . S
C2283 C2284 1.398 . S
C2283 C2289 1.491 . S
C2284 H2275 0.950 . S
C2284 C2283 1.398 . S
C2284 C2285 1.391 . S
C2285 H2273 0.950 . S
C2285 C2281 1.393 . S
C2285 C2284 1.391 . S
C2286 H2276 0.950 . S
C2286 C2287 1.386 . S
C2286 C2288 1.391 . S
C2287 C2286 1.386 . S
C2287 C2291 1.393 . S
C2288 H2277 0.950 . S
C2288 C2286 1.391 . S
C2288 C2289 1.400 . S
C2289 C2283 1.491 . S
C2289 C2288 1.400 . S
C2289 C2290 1.398 . S
C2290 H2278 0.950 . S
C2290 C2289 1.398 . S
C2290 C2291 1.391 . S
C2291 H2279 0.950 . S
C2291 C2287 1.393 . S
C2291 C2290 1.391 . S
H2292 C2300 0.950 . S
H2293 C2305 0.950 . S
H2294 C2302 0.950 . S
H2295 C2304 0.950 . S
H2296 C2306 0.950 . S
H2297 C2308 0.950 . S
H2298 C2310 0.950 . S
H2299 C2311 0.950 . S
C2300 H2292 0.950 . S
C2300 C2301 1.386 . S
C2300 C2302 1.391 . S
C2301 C2300 1.386 . S
C2301 C2305 1.393 . S
C2302 H2294 0.950 . S
C2302 C2300 1.391 . S
C2302 C2303 1.400 . S
C2303 C2302 1.400 . S
C2303 C2304 1.398 . S
C2303 C2309 1.491 . S
C2304 H2295 0.950 . S
C2304 C2303 1.398 . S
C2304 C2305 1.391 . S
C2305 H2293 0.950 . S
C2305 C2301 1.393 . S
C2305 C2304 1.391 . S
C2306 H2296 0.950 . S
C2306 C2307 1.386 . S
C2306 C2308 1.391 . S
C2307 C2306 1.386 . S
C2307 C2311 1.393 . S
C2308 H2297 0.950 . S
C2308 C2306 1.391 . S
C2308 C2309 1.400 . S
C2309 C2303 1.491 . S
C2309 C2308 1.400 . S
C2309 C2310 1.398 . S
C2310 H2298 0.950 . S
C2310 C2309 1.398 . S
C2310 C2311 1.391 . S
C2311 H2299 0.950 . S
C2311 C2307 1.393 . S
C2311 C2310 1.391 . S
H2312 C2320 0.950 . S
H2313 C2325 0.950 . S
H2314 C2322 0.950 . S
H2315 C2324 0.950 . S
H2316 C2326 0.950 . S
H2317 C2328 0.950 . S
H2318 C2330 0.950 . S
H2319 C2331 0.950 . S
C2320 H2312 0.950 . S
C2320 C2321 1.386 . S
C2320 C2322 1.391 . S
C2321 C2320 1.386 . S
C2321 C2325 1.393 . S
C2322 H2314 0.950 . S
C2322 C2320 1.391 . S
C2322 C2323 1.400 . S
C2323 C2322 1.400 . S
C2323 C2324 1.398 . S
C2323 C2329 1.491 . S
C2324 H2315 0.950 . S
C2324 C2323 1.398 . S
C2324 C2325 1.391 . S
C2325 H2313 0.950 . S
C2325 C2321 1.393 . S
C2325 C2324 1.391 . S
C2326 H2316 0.950 . S
C2326 C2327 1.386 . S
C2326 C2328 1.391 . S
C2327 C2326 1.386 . S
C2327 C2331 1.393 . S
C2328 H2317 0.950 . S
C2328 C2326 1.391 . S
C2328 C2329 1.400 . S
C2329 C2323 1.491 . S
C2329 C2328 1.400 . S
C2329 C2330 1.398 . S
C2330 H2318 0.950 . S
C2330 C2329 1.398 . S
C2330 C2331 1.391 . S
C2331 H2319 0.950 . S
C2331 C2327 1.393 . S
C2331 C2330 1.391 . S
H2332 C2340 0.950 . S
H2333 C2345 0.950 . S
H2334 C2342 0.950 . S
H2335 C2344 0.950 . S
H2336 C2346 0.950 . S
H2337 C2348 0.950 . S
H2338 C2350 0.950 . S
H2339 C2351 0.950 . S
C2340 H2332 0.950 . S
C2340 C2341 1.386 . S
C2340 C2342 1.391 . S
C2341 C2340 1.386 . S
C2341 C2345 1.393 . S
C2342 H2334 0.950 . S
C2342 C2340 1.391 . S
C2342 C2343 1.400 . S
C2343 C2342 1.400 . S
C2343 C2344 1.398 . S
C2343 C2349 1.491 . S
C2344 H2335 0.950 . S
C2344 C2343 1.398 . S
C2344 C2345 1.391 . S
C2345 H2333 0.950 . S
C2345 C2341 1.393 . S
C2345 C2344 1.391 . S
C2346 H2336 0.950 . S
C2346 C2347 1.386 . S
C2346 C2348 1.391 . S
C2347 C2346 1.386 . S
C2347 C2351 1.393 . S
C2348 H2337 0.950 . S
C2348 C2346 1.391 . S
C2348 C2349 1.400 . S
C2349 C2343 1.491 . S
C2349 C2348 1.400 . S
C2349 C2350 1.398 . S
C2350 H2338 0.950 . S
C2350 C2349 1.398 . S
C2350 C2351 1.391 . S
C2351 H2339 0.950 . S
C2351 C2347 1.393 . S
C2351 C2350 1.391 . S
H2352 C2360 0.950 . S
H2353 C2365 0.950 . S
H2354 C2362 0.950 . S
H2355 C2364 0.950 . S
H2356 C2366 0.950 . S
H2357 C2368 0.950 . S
H2358 C2370 0.950 . S
H2359 C2371 0.950 . S
C2360 H2352 0.950 . S
C2360 C2361 1.386 . S
C2360 C2362 1.391 . S
C2361 C2360 1.386 . S
C2361 C2365 1.393 . S
C2362 H2354 0.950 . S
C2362 C2360 1.391 . S
C2362 C2363 1.400 . S
C2363 C2362 1.400 . S
C2363 C2364 1.398 . S
C2363 C2369 1.491 . S
C2364 H2355 0.950 . S
C2364 C2363 1.398 . S
C2364 C2365 1.391 . S
C2365 H2353 0.950 . S
C2365 C2361 1.393 . S
C2365 C2364 1.391 . S
C2366 H2356 0.950 . S
C2366 C2367 1.386 . S
C2366 C2368 1.391 . S
C2367 C2366 1.386 . S
C2367 C2371 1.393 . S
C2368 H2357 0.950 . S
C2368 C2366 1.391 . S
C2368 C2369 1.400 . S
C2369 C2363 1.491 . S
C2369 C2368 1.400 . S
C2369 C2370 1.398 . S
C2370 H2358 0.950 . S
C2370 C2369 1.398 . S
C2370 C2371 1.391 . S
C2371 H2359 0.950 . S
C2371 C2367 1.393 . S
C2371 C2370 1.391 . S
H2372 C2380 0.950 . S
H2373 C2385 0.950 . S
H2374 C2382 0.950 . S
H2375 C2384 0.950 . S
H2376 C2386 0.950 . S
H2377 C2388 0.950 . S
H2378 C2390 0.950 . S
H2379 C2391 0.950 . S
C2380 H2372 0.950 . S
C2380 C2381 1.386 . S
C2380 C2382 1.391 . S
C2381 C2380 1.386 . S
C2381 C2385 1.393 . S
C2382 H2374 0.950 . S
C2382 C2380 1.391 . S
C2382 C2383 1.400 . S
C2383 C2382 1.400 . S
C2383 C2384 1.398 . S
C2383 C2389 1.491 . S
C2384 H2375 0.950 . S
C2384 C2383 1.398 . S
C2384 C2385 1.391 . S
C2385 H2373 0.950 . S
C2385 C2381 1.393 . S
C2385 C2384 1.391 . S
C2386 H2376 0.950 . S
C2386 C2387 1.386 . S
C2386 C2388 1.391 . S
C2387 C2386 1.386 . S
C2387 C2391 1.393 . S
C2388 H2377 0.950 . S
C2388 C2386 1.391 . S
C2388 C2389 1.400 . S
C2389 C2383 1.491 . S
C2389 C2388 1.400 . S
C2389 C2390 1.398 . S
C2390 H2378 0.950 . S
C2390 C2389 1.398 . S
C2390 C2391 1.391 . S
C2391 H2379 0.950 . S
C2391 C2387 1.393 . S
C2391 C2390 1.391 . S
H2392 C2400 0.950 . S
H2393 C2405 0.950 . S
H2394 C2402 0.950 . S
H2395 C2404 0.950 . S
H2396 C2406 0.950 . S
H2397 C2408 0.950 . S
H2398 C2410 0.950 . S
H2399 C2411 0.950 . S
C2400 H2392 0.950 . S
C2400 C2401 1.386 . S
C2400 C2402 1.391 . S
C2401 C2400 1.386 . S
C2401 C2405 1.393 . S
C2402 H2394 0.950 . S
C2402 C2400 1.391 . S
C2402 C2403 1.400 . S
C2403 C2402 1.400 . S
C2403 C2404 1.398 . S
C2403 C2409 1.491 . S
C2404 H2395 0.950 . S
C2404 C2403 1.398 . S
C2404 C2405 1.391 . S
C2405 H2393 0.950 . S
C2405 C2401 1.393 . S
C2405 C2404 1.391 . S
C2406 H2396 0.950 . S
C2406 C2407 1.386 . S
C2406 C2408 1.391 . S
C2407 C2406 1.386 . S
C2407 C2411 1.393 . S
C2408 H2397 0.950 . S
C2408 C2406 1.391 . S
C2408 C2409 1.400 . S
C2409 C2403 1.491 . S
C2409 C2408 1.400 . S
C2409 C2410 1.398 . S
C2410 H2398 0.950 . S
C2410 C2409 1.398 . S
C2410 C2411 1.391 . S
C2411 H2399 0.950 . S
C2411 C2407 1.393 . S
C2411 C2410 1.391 . S
H2412 C2420 0.950 . S
H2413 C2425 0.950 . S
H2414 C2422 0.950 . S
H2415 C2424 0.950 . S
H2416 C2426 0.950 . S
H2417 C2428 0.950 . S
H2418 C2430 0.950 . S
H2419 C2431 0.950 . S
C2420 H2412 0.950 . S
C2420 C2421 1.386 . S
C2420 C2422 1.391 . S
C2421 C2420 1.386 . S
C2421 C2425 1.393 . S
C2422 H2414 0.950 . S
C2422 C2420 1.391 . S
C2422 C2423 1.400 . S
C2423 C2422 1.400 . S
C2423 C2424 1.398 . S
C2423 C2429 1.491 . S
C2424 H2415 0.950 . S
C2424 C2423 1.398 . S
C2424 C2425 1.391 . S
C2425 H2413 0.950 . S
C2425 C2421 1.393 . S
C2425 C2424 1.391 . S
C2426 H2416 0.950 . S
C2426 C2427 1.386 . S
C2426 C2428 1.391 . S
C2427 C2426 1.386 . S
C2427 C2431 1.393 . S
C2428 H2417 0.950 . S
C2428 C2426 1.391 . S
C2428 C2429 1.400 . S
C2429 C2423 1.491 . S
C2429 C2428 1.400 . S
C2429 C2430 1.398 . S
C2430 H2418 0.950 . S
C2430 C2429 1.398 . S
C2430 C2431 1.391 . S
C2431 H2419 0.950 . S
C2431 C2427 1.393 . S
C2431 C2430 1.391 . S
C1161 C327 1.188 . S
C1167 C2 1.193 . S
C1181 C38 1.212 1_455 S
C1187 C938 1.118 . S
C1201 C399 1.175 . S
C1207 C74 1.202 . S
C1221 C866 1.120 . S
C1227 C110 1.213 . S
C1241 C146 1.185 . S
C1247 C543 1.161 . S
C1261 C1010 1.153 . S
C1267 C182 1.199 . S
C1281 C218 1.201 . S
C1287 C471 1.168 . S
C1301 C1082 1.150 . S
C1307 C254 1.208 1_455 S
C1321 C39 1.026 . S
C1327 C291 1.052 . S
C1341 C326 1.168 . S
C1347 C651 1.110 . S
C1361 C111 1.043 . S
C1367 C363 1.055 . S
C1381 C398 1.139 . S
C1387 C579 1.102 . S
C1401 C435 1.050 . S
C1407 C255 1.016 . S
C1421 C723 1.125 . S
C1427 C470 1.143 . S
C1441 C507 1.053 . S
C1447 C183 1.031 . S
C1461 C795 1.127 . S
C1467 C542 1.142 . S
C1481 C903 1.186 . S
C1487 C578 1.189 . S
C1501 C362 1.148 . S
C1507 C614 1.195 . S
C1521 C650 1.187 . S
C1527 C975 1.159 . S
C1541 C290 1.150 . S
C1547 C686 1.207 1_655 S
C1561 C1119 1.180 . S
C1567 C722 1.184 . S
C1581 C758 1.192 1_655 S
C1587 C434 1.129 . S
C1601 C1047 1.185 . S
C1607 C794 1.199 . S
C1621 C506 1.135 . S
C1627 C830 1.213 . S
C1641 C615 1.044 . S
C1647 C867 1.055 . S
C1661 C902 1.140 . S
C1667 C75 1.103 . S
C1681 C939 1.054 . S
C1687 C687 1.033 . S
C1701 C974 1.166 . S
C1707 C3 1.105 . S
C1721 C831 1.022 . S
C1727 C1011 1.052 . S
C1741 C1046 1.139 . S
C1747 C147 1.130 . S
C1761 C1083 1.050 . S
C1767 C759 1.015 . S
C1781 C1118 1.135 . S
C1787 C219 1.101 . S
C1801 C878 1.509 . S
C1807 C4 1.416 . S
C1821 C40 1.377 . S
C1827 C328 1.374 . S
C1841 C76 1.409 . S
C1847 C950 1.502 . S
C1861 C112 1.372 . S
C1867 C400 1.368 . S
C1881 C148 1.416 . S
C1887 C1022 1.509 . S
C1901 C184 1.376 . S
C1907 C472 1.372 . S
C1921 C1094 1.514 . S
C1927 C220 1.427 . S
C1941 C256 1.384 . S
C1947 C544 1.381 . S
C1961 C302 1.497 . S
C1967 C580 1.431 . S
C1981 C374 1.494 . S
C1987 C652 1.414 . S
C2001 C724 1.408 . S
C2007 C446 1.498 . S
C2021 C796 1.411 . S
C2027 C518 1.504 . S
C2041 C616 1.380 . S
C2047 C904 1.376 . S
C2061 C976 1.350 . S
C2067 C688 1.354 . S
C2081 C760 1.387 . S
C2087 C1048 1.384 . S
C2101 C1120 1.351 . S
C2107 C832 1.355 . S
C2121 C770 1.681 . S
C2127 C14 1.680 . S
C2141 C806 1.675 . S
C2147 C50 1.683 . S
C2161 C86 1.675 . S
C2167 C842 1.683 . S
C2181 C734 1.679 . S
C2187 C122 1.678 . S
C2201 C698 1.672 . S
C2207 C158 1.672 . S
C2221 C590 1.680 . S
C2227 C194 1.680 . S
C2241 C230 1.666 . S
C2247 C626 1.670 . S
C2261 C662 1.675 . S
C2267 C266 1.674 . S
C2281 C1058 1.640 . S
C2287 C292 1.673 . S
C2301 C1084 1.672 . S
C2307 C338 1.641 . S
C2321 C1130 1.652 . S
C2327 C364 1.664 . S
C2341 C410 1.640 . S
C2347 C1012 1.669 . S
C2361 C986 1.649 . S
C2367 C436 1.665 . S
C2381 C868 1.673 . S
C2387 C482 1.637 . S
C2401 C914 1.639 . S
C2407 C508 1.669 . S
C2421 C940 1.673 . S
C2427 C554 1.638 . S
