# Generated by pormake.
# Topology ske, (6)-cn, num edge types: 1
# Building blocks:
#     Node 0, Type 0, BuildingBlock: BETDEL_clean_sbu_0, # of connection points: 6
#     Node 1, Type 0, BuildingBlock: BETDEL_clean_sbu_0, # of connection points: 6
#     Node 2, Type 0, BuildingBlock: BETDEL_clean_sbu_0, # of connection points: 6
#     Node 3, Type 0, BuildingBlock: BETDEL_clean_sbu_0, # of connection points: 6
#     Node 4, Type 0, BuildingBlock: BETDEL_clean_sbu_0, # of connection points: 6
#     Node 5, Type 0, BuildingBlock: BETDEL_clean_sbu_0, # of connection points: 6
#     Node 6, Type 0, BuildingBlock: BETDEL_clean_sbu_0, # of connection points: 6
#     Node 7, Type 0, BuildingBlock: BETDEL_clean_sbu_0, # of connection points: 6
#     Edge 8, Type (0, 0), BuildingBlock: CIFDUS_clean_linker_0, # of connection points: 2
#     Edge 9, Type (0, 0), BuildingBlock: CIFDUS_clean_linker_0, # of connection points: 2
#     Edge 10, Type (0, 0), BuildingBlock: CIFDUS_clean_linker_0, # of connection points: 2
#     Edge 11, Type (0, 0), BuildingBlock: CIFDUS_clean_linker_0, # of connection points: 2
#     Edge 12, Type (0, 0), BuildingBlock: CIFDUS_clean_linker_0, # of connection points: 2
#     Edge 13, Type (0, 0), BuildingBlock: CIFDUS_clean_linker_0, # of connection points: 2
#     Edge 14, Type (0, 0), BuildingBlock: CIFDUS_clean_linker_0, # of connection points: 2
#     Edge 15, Type (0, 0), BuildingBlock: CIFDUS_clean_linker_0, # of connection points: 2
#     Edge 16, Type (0, 0), BuildingBlock: CIFDUS_clean_linker_0, # of connection points: 2
#     Edge 17, Type (0, 0), BuildingBlock: CIFDUS_clean_linker_0, # of connection points: 2
#     Edge 18, Type (0, 0), BuildingBlock: CIFDUS_clean_linker_0, # of connection points: 2
#     Edge 19, Type (0, 0), BuildingBlock: CIFDUS_clean_linker_0, # of connection points: 2
#     Edge 20, Type (0, 0), BuildingBlock: CIFDUS_clean_linker_0, # of connection points: 2
#     Edge 21, Type (0, 0), BuildingBlock: CIFDUS_clean_linker_0, # of connection points: 2
#     Edge 22, Type (0, 0), BuildingBlock: CIFDUS_clean_linker_0, # of connection points: 2
#     Edge 23, Type (0, 0), BuildingBlock: CIFDUS_clean_linker_0, # of connection points: 2
#     Edge 24, Type (0, 0), BuildingBlock: CIFDUS_clean_linker_0, # of connection points: 2
#     Edge 25, Type (0, 0), BuildingBlock: CIFDUS_clean_linker_0, # of connection points: 2
#     Edge 26, Type (0, 0), BuildingBlock: CIFDUS_clean_linker_0, # of connection points: 2
#     Edge 27, Type (0, 0), BuildingBlock: CIFDUS_clean_linker_0, # of connection points: 2
#     Edge 28, Type (0, 0), BuildingBlock: CIFDUS_clean_linker_0, # of connection points: 2
#     Edge 29, Type (0, 0), BuildingBlock: CIFDUS_clean_linker_0, # of connection points: 2
#     Edge 30, Type (0, 0), BuildingBlock: CIFDUS_clean_linker_0, # of connection points: 2
#     Edge 31, Type (0, 0), BuildingBlock: CIFDUS_clean_linker_0, # of connection points: 2
# Relax obj value: 0.148
# Max RMSD: 0.161
# Mean RMSD: 0.158
data_MOF--net-ske--node1-BETDEL_clean_sbu_0--edge1-CIFDUS_clean_linker_0
_symmetry_space_group_name_H-M    P1
_symmetry_Int_Tables_number       1
_symmetry_cell_setting            triclinic
loop_
_symmetry_equiv_pos_as_xyz
'x, y, z'
_cell_length_a     63.658935
_cell_length_b     25.006934
_cell_length_c     13.536131
_cell_angle_alpha  89.904479
_cell_angle_beta   89.623356
_cell_angle_gamma 83.991905
loop_
_atom_site_label
_atom_site_type_symbol
_atom_site_fract_x
_atom_site_fract_y
_atom_site_fract_z
_atom_type_partial_charge
Dy0 Dy 0.17285 0.26552 0.53658 0.0
C1 C 0.08157 0.26053 0.48177 0.0
C2 C 0.21328 0.28547 0.57649 0.0
Dy3 Dy 0.12337 0.26997 0.51347 0.0
O4 O 0.20762 0.25816 0.50118 0.0
O5 O 0.19664 0.30438 0.62658 0.0
O6 O 0.18037 0.17545 0.54979 0.0
O7 O 0.1495 0.20855 0.53156 0.0
C8 C 0.16101 0.1648 0.54017 0.0
C9 C 0.13852 0.3659 0.54091 0.0
O10 O 0.12728 0.25201 0.6749 0.0
O11 O 0.16078 0.27969 0.69094 0.0
O12 O 0.09321 0.28903 0.42805 0.0
O13 O 0.09297 0.23585 0.55065 0.0
O14 O 0.11986 0.35517 0.5682 0.0
O15 O 0.14732 0.32647 0.49301 0.0
O16 O 0.16902 0.27618 0.37282 0.0
O17 O 0.13509 0.24924 0.36023 0.0
C18 C 0.14317 0.26481 0.72991 0.0
C19 C 0.15305 0.26155 0.3196 0.0
Dy20 Dy 0.86601 0.25512 0.58066 0.0
C21 C 0.95695 0.27072 0.56196 0.0
C22 C 0.82498 0.24875 0.63824 0.0
Dy23 Dy 0.9153 0.25352 0.56108 0.0
O24 O 0.83664 0.28576 0.66439 0.0
O25 O 0.83572 0.2147 0.57922 0.0
O26 O 0.86178 0.33556 0.50636 0.0
O27 O 0.88901 0.3152 0.59055 0.0
C28 C 0.87997 0.34984 0.53232 0.0
C29 C 0.90514 0.1511 0.56308 0.0
O30 O 0.90982 0.2714 0.7214 0.0
O31 O 0.87701 0.23991 0.73599 0.0
O32 O 0.94668 0.2512 0.63419 0.0
O33 O 0.94421 0.28291 0.4883 0.0
O34 O 0.92422 0.16407 0.55631 0.0
O35 O 0.89275 0.1938 0.56956 0.0
O36 O 0.8709 0.23351 0.42138 0.0
O37 O 0.90424 0.26392 0.40441 0.0
C38 C 0.89425 0.25573 0.77584 0.0
C39 C 0.88686 0.24718 0.36609 0.0
Dy40 Dy 0.11548 0.77734 0.39715 0.0
C41 C 0.2039 0.7773 0.37092 0.0
C42 C 0.07269 0.7708 0.39887 0.0
Dy43 Dy 0.16195 0.77306 0.41349 0.0
O44 O 0.08299 0.79592 0.33401 0.0
O45 O 0.08586 0.74762 0.46255 0.0
O46 O 0.11344 0.86215 0.34143 0.0
O47 O 0.13661 0.83721 0.44389 0.0
C48 C 0.12951 0.87576 0.38941 0.0
C49 C 0.14793 0.67698 0.44035 0.0
O50 O 0.15468 0.78517 0.57392 0.0
O51 O 0.11991 0.76575 0.55999 0.0
O52 O 0.1925 0.74039 0.34239 0.0
O53 O 0.19251 0.81199 0.42617 0.0
O54 O 0.16424 0.69271 0.48427 0.0
O55 O 0.14062 0.7114 0.37683 0.0
O56 O 0.12537 0.7526 0.24431 0.0
O57 O 0.15498 0.79645 0.25723 0.0
C58 C 0.13649 0.77448 0.61414 0.0
C59 C 0.14117 0.77459 0.20253 0.0
Dy60 Dy 0.90702 0.75839 0.46471 0.0
C61 C 0.81848 0.73398 0.39977 0.0
C62 C 0.94877 0.77031 0.49361 0.0
Dy63 Dy 0.85786 0.76013 0.44289 0.0
O64 O 0.93788 0.73855 0.54423 0.0
O65 O 0.93662 0.79691 0.42965 0.0
O66 O 0.91098 0.67275 0.4101 0.0
O67 O 0.88365 0.70062 0.48714 0.0
C68 C 0.89256 0.66125 0.4395 0.0
C69 C 0.86801 0.86233 0.44231 0.0
O70 O 0.86158 0.75054 0.60662 0.0
O71 O 0.89543 0.77826 0.61852 0.0
O72 O 0.82268 0.76904 0.46573 0.0
O73 O 0.83592 0.71135 0.36103 0.0
O74 O 0.84894 0.84934 0.43306 0.0
O75 O 0.88043 0.81961 0.44865 0.0
O76 O 0.90326 0.776 0.30341 0.0
O77 O 0.86953 0.74992 0.28726 0.0
C78 C 0.87751 0.76576 0.65942 0.0
C79 C 0.88723 0.7643 0.24849 0.0
Dy80 Dy 0.66428 0.77018 0.09705 0.0
C81 C 0.57381 0.78658 0.06902 0.0
C82 C 0.70489 0.77977 0.15349 0.0
Dy83 Dy 0.61685 0.78166 0.08324 0.0
O84 O 0.69869 0.73887 0.10736 0.0
O85 O 0.68905 0.81638 0.16506 0.0
O86 O 0.66738 0.68953 0.03057 0.0
O87 O 0.64024 0.71332 0.11788 0.0
C88 C 0.64904 0.67753 0.06004 0.0
C89 C 0.63436 0.87525 0.10179 0.0
O90 O 0.62034 0.75463 0.23996 0.0
O91 O 0.65407 0.77862 0.25534 0.0
O92 O 0.58425 0.8179 0.12101 0.0
O93 O 0.58694 0.75153 0.02287 0.0
O94 O 0.61623 0.86686 0.13856 0.0
O95 O 0.64133 0.83512 0.05169 0.0
O96 O 0.66088 0.7897 0.93611 0.0
O97 O 0.62606 0.76994 0.92363 0.0
C98 C 0.63636 0.76549 0.29526 0.0
C99 C 0.64435 0.77919 0.88243 0.0
Dy100 Dy 0.35879 0.76888 0.0613 0.0
C101 C 0.44957 0.76873 0.03772 0.0
C102 C 0.31723 0.76383 0.10948 0.0
Dy103 Dy 0.40724 0.76338 0.06552 0.0
O104 O 0.32898 0.79943 0.14076 0.0
O105 O 0.32806 0.73092 0.04877 0.0
O106 O 0.35579 0.85156 0.00012 0.0
O107 O 0.38154 0.82677 0.09337 0.0
C108 C 0.37347 0.86364 0.03666 0.0
C109 C 0.39184 0.66779 0.07812 0.0
O110 O 0.40037 0.77295 0.22712 0.0
O111 O 0.36733 0.74286 0.21531 0.0
O112 O 0.43832 0.73609 0.99292 0.0
O113 O 0.43764 0.79931 0.09775 0.0
O114 O 0.40946 0.6778 0.11801 0.0
O115 O 0.3845 0.70739 0.02708 0.0
O116 O 0.36561 0.7588 0.89925 0.0
O117 O 0.3991 0.78785 0.91008 0.0
C118 C 0.38334 0.756 0.26848 0.0
C119 C 0.38281 0.77525 0.85746 0.0
Dy120 Dy 0.61958 0.27963 0.96319 0.0
C121 C 0.70923 0.2756 0.88039 0.0
C122 C 0.57759 0.27363 0.00255 0.0
Dy123 Dy 0.66808 0.27097 0.93874 0.0
O124 O 0.5888 0.30958 0.03759 0.0
O125 O 0.58945 0.24017 0.9474 0.0
O126 O 0.61658 0.36321 0.90123 0.0
O127 O 0.64372 0.33516 0.97913 0.0
C128 C 0.63523 0.37365 0.92829 0.0
C129 C 0.65294 0.17866 0.98551 0.0
O130 O 0.6654 0.28643 0.10144 0.0
O131 O 0.63107 0.26298 0.11775 0.0
O132 O 0.69758 0.238 0.85754 0.0
O133 O 0.69846 0.31093 0.93661 0.0
O134 O 0.67171 0.18993 0.00885 0.0
O135 O 0.64407 0.2144 0.92896 0.0
O136 O 0.62223 0.26518 0.8007 0.0
O137 O 0.65635 0.28871 0.78515 0.0
C138 C 0.64912 0.27481 0.15671 0.0
C139 C 0.63842 0.27688 0.74579 0.0
Dy140 Dy 0.41056 0.25844 0.93918 0.0
C141 C 0.32165 0.26424 0.8733 0.0
C142 C 0.45355 0.25468 0.95927 0.0
Dy143 Dy 0.36291 0.2699 0.92518 0.0
O144 O 0.44351 0.22136 0.90984 0.0
O145 O 0.44004 0.29129 0.99896 0.0
O146 O 0.41159 0.17354 0.88337 0.0
O147 O 0.38596 0.2047 0.96838 0.0
C148 C 0.39323 0.16515 0.91744 0.0
C149 C 0.37844 0.36304 0.95763 0.0
O150 O 0.36695 0.24619 0.08439 0.0
O151 O 0.40112 0.26978 0.09834 0.0
O152 O 0.3279 0.29163 0.94683 0.0
O153 O 0.33791 0.23808 0.83076 0.0
O154 O 0.35985 0.35232 0.98516 0.0
O155 O 0.38709 0.32617 0.90228 0.0
O156 O 0.40699 0.28347 0.78135 0.0
O157 O 0.37316 0.25936 0.76704 0.0
C158 C 0.38311 0.25818 0.139 0.0
C159 C 0.39094 0.27201 0.7266 0.0
H160 H 0.22609 0.31931 0.75444 0.0
H161 H 0.24937 0.24443 0.48276 0.0
H162 H 0.28488 0.229 0.55226 0.0
H163 H 0.3091 0.2343 0.69232 0.0
H164 H 0.28586 0.30971 0.96355 0.0
H165 H 0.25047 0.32654 0.89308 0.0
C166 C 0.23901 0.30035 0.70999 0.0
C167 C 0.23516 0.28333 0.61338 0.0
C168 C 0.25929 0.29075 0.75111 0.0
C169 C 0.25199 0.25824 0.55705 0.0
C170 C 0.27225 0.24903 0.59703 0.0
C171 C 0.29622 0.25394 0.73621 0.0
C172 C 0.29998 0.27021 0.83334 0.0
C173 C 0.27602 0.2644 0.69447 0.0
C174 C 0.28327 0.29642 0.88889 0.0
C175 C 0.26308 0.30634 0.84842 0.0
H176 H 0.73177 0.20586 0.7562 0.0
H177 H 0.73588 0.35094 0.9236 0.0
H178 H 0.77198 0.35539 0.86285 0.0
H179 H 0.80236 0.31806 0.76209 0.0
H180 H 0.79833 0.17324 0.59388 0.0
H181 H 0.76219 0.16864 0.65467 0.0
C182 C 0.7406 0.2384 0.7795 0.0
C183 C 0.73118 0.278 0.84458 0.0
C184 C 0.76132 0.24075 0.7439 0.0
C185 C 0.74277 0.31998 0.8738 0.0
C186 C 0.76341 0.32253 0.83898 0.0
C187 C 0.79356 0.2855 0.73861 0.0
C188 C 0.803 0.24601 0.67346 0.0
C189 C 0.77283 0.28317 0.77397 0.0
C190 C 0.79141 0.20411 0.64383 0.0
C191 C 0.77076 0.20148 0.67868 0.0
H192 H 0.2954 0.82817 0.24345 0.0
H193 H 0.29054 0.68946 0.0593 0.0
H194 H 0.25522 0.68076 0.12675 0.0
H195 H 0.22589 0.71253 0.23835 0.0
H196 H 0.2306 0.85164 0.42162 0.0
H197 H 0.26602 0.86005 0.35492 0.0
C198 C 0.28657 0.79615 0.21772 0.0
C199 C 0.29551 0.75957 0.14613 0.0
C200 C 0.26637 0.79132 0.25728 0.0
C201 C 0.28394 0.7182 0.1139 0.0
C202 C 0.2638 0.71315 0.15273 0.0
C203 C 0.23472 0.74454 0.26415 0.0
C204 C 0.22571 0.78132 0.33524 0.0
C205 C 0.25491 0.74937 0.22465 0.0
C206 C 0.23725 0.82276 0.36737 0.0
C207 C 0.25745 0.82763 0.32898 0.0
H208 H 0.73788 0.7018 0.148 0.0
H209 H 0.71774 0.85796 0.2709 0.0
H210 H 0.7504 0.85514 0.3656 0.0
H211 H 0.78471 0.80848 0.41304 0.0
H212 H 0.80581 0.65443 0.28443 0.0
H213 H 0.77255 0.65551 0.19396 0.0
C214 C 0.74077 0.73537 0.19489 0.0
C215 C 0.72552 0.78014 0.20223 0.0
C216 C 0.75955 0.73337 0.24932 0.0
C217 C 0.72934 0.82325 0.26356 0.0
C218 C 0.74793 0.82149 0.31826 0.0
C219 C 0.78185 0.77476 0.36647 0.0
C220 C 0.79748 0.73106 0.35629 0.0
C221 C 0.76307 0.77662 0.31221 0.0
C222 C 0.79385 0.68818 0.29406 0.0
C223 C 0.77494 0.68902 0.24182 0.0
H224 H 0.1565 0.91506 0.51922 0.0
H225 H 0.10938 0.96436 0.30075 0.0
H226 H 0.11305 0.05883 0.3353 0.0
H227 H 0.13054 0.1281 0.4248 0.0
H228 H 0.17897 0.07785 0.63622 0.0
H229 H 0.1736 0.98371 0.6093 0.0
C230 C 0.14708 0.94652 0.47909 0.0
C231 C 0.13273 0.93271 0.40751 0.0
C232 C 0.14931 1.00082 0.49914 0.0
C233 C 0.1206 0.97393 0.35613 0.0
C234 C 0.12261 0.02802 0.37614 0.0
C235 C 0.13955 0.09644 0.46616 0.0
C236 C 0.15493 0.10966 0.53318 0.0
C237 C 0.13692 0.04206 0.44752 0.0
C238 C 0.16692 0.06842 0.58474 0.0
C239 C 0.16397 1.0146 0.56892 0.0
H240 H 0.85395 0.44072 0.50214 0.0
H241 H 0.9198 0.38188 0.52551 0.0
H242 H 0.92966 0.47253 0.49127 0.0
H243 H 0.9193 0.56909 0.45619 0.0
H244 H 0.85329 0.62862 0.45466 0.0
H245 H 0.84364 0.53733 0.47793 0.0
C246 C 0.87047 0.44775 0.49963 0.0
C247 C 0.88617 0.40465 0.51539 0.0
C248 C 0.87592 0.50014 0.48323 0.0
C249 C 0.90747 0.41445 0.5135 0.0
C250 C 0.91308 0.46623 0.49371 0.0
C251 C 0.90281 0.5619 0.46011 0.0
C252 C 0.88696 0.60546 0.45121 0.0
C253 C 0.89742 0.50944 0.47838 0.0
C254 C 0.86571 0.59577 0.45927 0.0
C255 C 0.86021 0.54356 0.4732 0.0
H256 H 0.9038 0.89998 0.51613 0.0
H257 H 0.8421 0.95142 0.3997 0.0
H258 H 0.847 0.04504 0.43286 0.0
H259 H 0.86887 0.11355 0.49528 0.0
H260 H 0.93081 0.06237 0.6089 0.0
H261 H 0.92567 0.9685 0.57863 0.0
C262 C 0.89158 0.93181 0.4972 0.0
C263 C 0.87269 0.91872 0.45512 0.0
C264 C 0.89438 0.98598 0.51755 0.0
C265 C 0.85685 0.96039 0.43201 0.0
C266 C 0.85957 1.01408 0.45138 0.0
C267 C 0.88104 0.0817 0.51474 0.0
C268 C 0.90008 0.09483 0.55508 0.0
C269 C 0.87819 0.0275 0.49488 0.0
C270 C 0.91593 0.05321 0.57816 0.0
C271 C 0.91308 0.99945 0.56036 0.0
H272 H 0.17443 0.58986 0.48806 0.0
H273 H 0.10964 0.63887 0.41144 0.0
H274 H 0.10077 0.54676 0.44036 0.0
H275 H 0.11155 0.45277 0.49116 0.0
H276 H 0.17703 0.40289 0.55268 0.0
H277 H 0.18566 0.4952 0.52651 0.0
C278 C 0.15837 0.5803 0.47719 0.0
C279 C 0.14263 0.62099 0.44826 0.0
C280 C 0.15358 0.52734 0.49204 0.0
C281 C 0.12198 0.60806 0.43328 0.0
C282 C 0.11693 0.55556 0.45036 0.0
C283 C 0.12768 0.46232 0.49929 0.0
C284 C 0.14365 0.42154 0.52562 0.0
C285 C 0.13258 0.515 0.48062 0.0
C286 C 0.16454 0.43387 0.53348 0.0
C287 C 0.16944 0.48651 0.51831 0.0
H288 H 0.67384 0.59065 -0.0003 0.0
H289 H 0.60936 0.644 0.07971 0.0
H290 H 0.59898 0.55467 0.03825 0.0
H291 H 0.6087 0.46129 0.97967 0.0
H292 H 0.67383 0.4083 0.91209 0.0
H293 H 0.68364 0.49837 0.94718 0.0
C294 C 0.65748 0.58285 0.00832 0.0
C295 C 0.64232 0.62372 0.04243 0.0
C296 C 0.65183 0.53177 0.98567 0.0
C297 C 0.62127 0.61293 0.05403 0.0
C298 C 0.61537 0.56207 0.02983 0.0
C299 C 0.62497 0.4699 0.9715 0.0
C300 C 0.64058 0.42885 0.9419 0.0
C301 C 0.63054 0.52126 0.99521 0.0
C302 C 0.66166 0.43964 0.93396 0.0
C303 C 0.66723 0.49092 0.95435 0.0
H304 H 0.34971 0.95492 0.99206 0.0
H305 H 0.41403 0.89048 0.04683 0.0
H306 H 0.42618 0.97815 0.00741 0.0
H307 H 0.41815 0.07313 0.95607 0.0
H308 H 0.35332 0.13823 0.9168 0.0
H309 H 0.34154 0.04984 0.95029 0.0
C310 C 0.3664 0.96016 0.99571 0.0
C311 C 0.38104 0.91661 0.02186 0.0
C312 C 0.37307 1.0105 0.9747 0.0
C313 C 0.40255 0.92376 0.02745 0.0
C314 C 0.40945 0.97367 0.00429 0.0
C315 C 0.40149 0.06755 0.95388 0.0
C316 C 0.38655 0.11137 0.93215 0.0
C317 C 0.39484 0.01722 0.97721 0.0
C318 C 0.36499 0.10458 0.93215 0.0
C319 C 0.35829 0.05428 0.95171 0.0
H320 H 0.35304 0.45295 0.99162 0.0
H321 H 0.41867 0.39382 0.95348 0.0
H322 H 0.42887 0.4835 0.99364 0.0
H323 H 0.41867 0.57829 0.0431 0.0
H324 H 0.3527 0.63652 0.06928 0.0
H325 H 0.34288 0.54688 0.03128 0.0
C326 C 0.36961 0.45965 0.9916 0.0
C327 C 0.38515 0.41707 0.9704 0.0
C328 C 0.37517 0.51081 0.01362 0.0
C329 C 0.4065 0.42629 0.96936 0.0
C330 C 0.41227 0.47732 0.9929 0.0
C331 C 0.40218 0.57093 0.04126 0.0
C332 C 0.38632 0.61325 0.06025 0.0
C333 C 0.39671 0.51972 0.01618 0.0
C334 C 0.36503 0.60415 0.05543 0.0
C335 C 0.35947 0.55312 0.03351 0.0
H336 H 0.67708 0.08481 0.00361 0.0
H337 H 0.61238 0.15495 0.01423 0.0
H338 H 0.60085 0.06731 0.05864 0.0
H339 H 0.60954 0.97043 0.09445 0.0
H340 H 0.67402 0.89988 0.06529 0.0
H341 H 0.68548 0.98811 0.0296 0.0
C342 C 0.66044 0.0808 0.01546 0.0
C343 C 0.64552 0.12594 0.00584 0.0
C344 C 0.65403 0.03037 0.03874 0.0
C345 C 0.62403 0.12043 0.02027 0.0
C346 C 0.61751 0.07049 0.04633 0.0
C347 C 0.62611 0.97465 0.08129 0.0
C348 C 0.64107 0.92911 0.08495 0.0
C349 C 0.63241 0.02518 0.0561 0.0
C350 C 0.66237 0.9346 0.06497 0.0
C351 C 0.66888 0.98493 0.04382 0.0
H352 H 0.12281 0.24295 0.18539 0.0
H353 H 0.18728 0.28099 0.20681 0.0
H354 H 0.18976 0.28543 0.02719 0.0
H355 H 0.1736 0.27999 0.86443 0.0
H356 H 0.10913 0.24218 0.84202 0.0
H357 H 0.10675 0.23637 0.02187 0.0
C358 C 0.13747 0.25197 0.15102 0.0
C359 C 0.15483 0.26165 0.21011 0.0
C360 C 0.13877 0.25479 0.04742 0.0
C361 C 0.17364 0.27339 0.16367 0.0
C362 C 0.17507 0.27603 0.06074 0.0
C363 C 0.15897 0.27057 0.89854 0.0
C364 C 0.14154 0.26173 0.83928 0.0
C365 C 0.15771 0.26714 0.00196 0.0
C366 C 0.1228 0.24927 0.88542 0.0
C367 C 0.12142 0.24589 0.98842 0.0
H368 H 0.91546 0.27379 0.22878 0.0
H369 H 0.85421 0.21535 0.25729 0.0
H370 H 0.85114 0.21275 0.07781 0.0
H371 H 0.86571 0.22754 0.91271 0.0
H372 H 0.92699 0.28592 0.88503 0.0
H373 H 0.93009 0.28798 0.0643 0.0
C374 C 0.90142 0.26038 0.19605 0.0
C375 C 0.8851 0.24484 0.25694 0.0
C376 C 0.89973 0.25899 0.09273 0.0
C377 C 0.86705 0.22761 0.21262 0.0
C378 C 0.86526 0.2261 0.1098 0.0
C379 C 0.87977 0.24069 0.94569 0.0
C380 C 0.89607 0.25658 0.88502 0.0
C381 C 0.88149 0.24179 0.04912 0.0
C382 C 0.91416 0.27348 0.92952 0.0
C383 C 0.91597 0.27468 0.03224 0.0
H384 H 0.11311 0.74911 0.06403 0.0
H385 H 0.17486 0.80337 0.09788 0.0
H386 H 0.17896 0.80794 0.91922 0.0
H387 H 0.16495 0.7975 0.75304 0.0
H388 H 0.10299 0.74428 0.71924 0.0
H389 H 0.09912 0.73849 0.89772 0.0
C390 C 0.12748 0.76173 0.03227 0.0
C391 C 0.14359 0.77592 0.09416 0.0
C392 C 0.12973 0.76467 0.9293 0.0
C393 C 0.16212 0.79243 0.05191 0.0
C394 C 0.16453 0.79504 0.94965 0.0
C395 C 0.15061 0.78461 0.78464 0.0
C396 C 0.13432 0.77149 0.72266 0.0
C397 C 0.1484 0.78146 0.8876 0.0
C398 C 0.11581 0.7549 0.76503 0.0
C399 C 0.11355 0.75143 0.86727 0.0
H400 H 0.90769 0.78514 0.79321 0.0
H401 H 0.84323 0.74695 0.77216 0.0
H402 H 0.84067 0.74345 0.95175 0.0
H403 H 0.85678 0.74941 0.11424 0.0
H404 H 0.92126 0.78715 0.13655 0.0
H405 H 0.92369 0.79253 0.95665 0.0
C406 C 0.89302 0.77631 0.82767 0.0
C407 C 0.87569 0.76624 0.76876 0.0
C408 C 0.89167 0.77401 0.93124 0.0
C409 C 0.85685 0.75478 0.81523 0.0
C410 C 0.85537 0.75269 0.91812 0.0
C411 C 0.87142 0.75878 0.08012 0.0
C412 C 0.88884 0.76765 0.13927 0.0
C413 C 0.87271 0.76186 0.97676 0.0
C414 C 0.9076 0.78002 0.09316 0.0
C415 C 0.909 0.78314 0.99017 0.0
H416 H 0.66593 0.78741 0.42826 0.0
H417 H 0.60287 0.73939 0.40716 0.0
H418 H 0.59985 0.73945 0.58723 0.0
H419 H 0.61493 0.75433 0.74995 0.0
H420 H 0.67797 0.80274 0.7698 0.0
H421 H 0.68109 0.80138 0.59019 0.0
C422 C 0.65151 0.77675 0.46275 0.0
C423 C 0.63464 0.76343 0.40415 0.0
C424 C 0.64983 0.77715 0.56599 0.0
C425 C 0.61611 0.74979 0.45042 0.0
C426 C 0.61435 0.7499 0.55339 0.0
C427 C 0.62935 0.76473 0.71517 0.0
C428 C 0.64616 0.77884 0.77348 0.0
C429 C 0.63108 0.76379 0.61181 0.0
C430 C 0.66476 0.79184 0.72692 0.0
C431 C 0.66658 0.79104 0.62414 0.0
H432 H 0.35954 0.72955 0.71829 0.0
H433 H 0.41075 0.82827 0.75223 0.0
H434 H 0.41611 0.82923 0.5741 0.0
H435 H 0.40652 0.80171 0.40777 0.0
H436 H 0.35522 0.70329 0.37354 0.0
H437 H 0.34985 0.70228 0.55175 0.0
C438 C 0.37173 0.75165 0.68661 0.0
C439 C 0.38469 0.77869 0.74868 0.0
C440 C 0.37492 0.75173 0.58372 0.0
C441 C 0.40056 0.80681 0.70636 0.0
C442 C 0.4037 0.80738 0.6043 0.0
C443 C 0.3943 0.77966 0.43938 0.0
C444 C 0.38137 0.7526 0.37725 0.0
C445 C 0.39109 0.77965 0.54222 0.0
C446 C 0.36544 0.72463 0.41949 0.0
C447 C 0.36228 0.72407 0.52158 0.0
H448 H 0.61841 0.2596 0.29152 0.0
H449 H 0.68342 0.29347 0.26795 0.0
H450 H 0.68565 0.29777 0.44775 0.0
H451 H 0.66918 0.29219 0.61108 0.0
H452 H 0.60415 0.25837 0.63443 0.0
H453 H 0.60195 0.25405 0.45469 0.0
C454 C 0.63312 0.2678 0.32539 0.0
C455 C 0.65074 0.27615 0.26589 0.0
C456 C 0.63428 0.27046 0.42875 0.0
C457 C 0.66961 0.28686 0.31161 0.0
C458 C 0.6709 0.2894 0.41453 0.0
C459 C 0.65446 0.28404 0.57714 0.0
C460 C 0.63683 0.27572 0.63658 0.0
C461 C 0.65331 0.2814 0.47375 0.0
C462 C 0.61797 0.265 0.59081 0.0
C463 C 0.61669 0.26245 0.48792 0.0
H464 H 0.41233 0.28328 0.27199 0.0
H465 H 0.34975 0.23213 0.25131 0.0
H466 H 0.34664 0.23279 0.43114 0.0
H467 H 0.36163 0.24768 0.59356 0.0
H468 H 0.42424 0.29865 0.61441 0.0
H469 H 0.4273 0.29837 0.43451 0.0
C470 C 0.398 0.2721 0.30658 0.0
C471 C 0.38132 0.25753 0.24801 0.0
C472 C 0.39629 0.27268 0.40992 0.0
C473 C 0.36287 0.24342 0.29441 0.0
C474 C 0.36105 0.24383 0.3973 0.0
C475 C 0.37596 0.25889 0.55901 0.0
C476 C 0.39268 0.27322 0.6176 0.0
C477 C 0.37766 0.25844 0.45568 0.0
C478 C 0.41111 0.28749 0.57125 0.0
C479 C 0.41289 0.28728 0.46834 0.0
H480 H 0.05518 0.23466 0.62599 0.0
H481 H 0.05596 0.29536 0.32809 0.0
H482 H 0.01718 0.30585 0.32597 0.0
H483 H 0.98286 0.29766 0.41069 0.0
H484 H 0.98319 0.24126 0.71229 0.0
H485 H 0.02158 0.23008 0.71169 0.0
C486 C 0.04685 0.2497 0.56026 0.0
C487 C 0.05832 0.26352 0.47689 0.0
C488 C 0.0247 0.25709 0.5608 0.0
C489 C 0.04739 0.284 0.39288 0.0
C490 C 0.02524 0.29024 0.39187 0.0
C491 C 0.99141 0.28349 0.47634 0.0
C492 C 0.98019 0.27025 0.5613 0.0
C493 C 1.01369 0.27716 0.47574 0.0
C494 C 0.99142 0.25178 0.6459 0.0
C495 C 1.01342 0.24508 0.64561 0.0
H496 H 0.97373 0.81453 0.36085 0.0
H497 H 0.97592 0.72158 0.62969 0.0
H498 H 0.01463 0.71251 0.62441 0.0
H499 H 0.04801 0.72947 0.54022 0.0
H500 H 0.04512 0.82027 0.26847 0.0
H501 H 1.00665 0.83114 0.2773 0.0
C502 C 0.98269 0.79279 0.41886 0.0
C503 C 0.97203 0.7691 0.49591 0.0
C504 C 1.00486 0.78675 0.41404 0.0
C505 C 0.98381 0.74045 0.5699 0.0
C506 C 1.00593 0.73502 0.56661 0.0
C507 C 0.0389 0.75132 0.48284 0.0
C508 C 0.04938 0.77386 0.40365 0.0
C509 C 0.01665 0.75756 0.48841 0.0
C510 C 0.03742 0.80236 0.33002 0.0
C511 C 0.01541 0.80881 0.33515 0.0
H512 H 0.54813 0.7261 0.96438 0.0
H513 H 0.5472 0.85693 0.17229 0.0
H514 H 0.50881 0.86441 0.17882 0.0
H515 H 0.47531 0.83242 0.12975 0.0
H516 H 0.47564 0.70206 0.92163 0.0
H517 H 0.51418 0.696 0.91035 0.0
C518 C 0.53946 0.75627 0.01065 0.0
C519 C 0.55049 0.79071 0.06795 0.0
C520 C 0.51721 0.76051 0.01413 0.0
C521 C 0.53909 0.8298 0.12752 0.0
C522 C 0.51709 0.83418 0.13143 0.0
C523 C 0.48383 0.80295 0.08154 0.0
C524 C 0.47271 0.76771 0.02691 0.0
C525 C 0.50598 0.79957 0.07565 0.0
C526 C 0.48391 0.72968 0.96457 0.0
C527 C 0.50595 0.72609 0.95819 0.0
H528 H 0.47851 0.32034 0.05721 0.0
H529 H 0.48092 0.17855 0.87452 0.0
H530 H 0.51932 0.17009 0.87621 0.0
H531 H 0.55241 0.20445 0.92351 0.0
H532 H 0.55084 0.34625 0.105 0.0
H533 H 0.51218 0.35294 0.11077 0.0
C534 C 0.4875 0.28758 0.01827 0.0
C535 C 0.47687 0.25034 0.96545 0.0
C536 C 0.50979 0.28285 0.01935 0.0
C537 C 0.4887 0.20793 0.91549 0.0
C538 C 0.5107 0.20295 0.91637 0.0
C539 C 0.5436 0.23651 0.96505 0.0
C540 C 0.55442 0.2748 0.01355 0.0
C541 C 0.52143 0.24036 0.96725 0.0
C542 C 0.54283 0.3162 0.06706 0.0
C543 C 0.52072 0.32017 0.0701 0.0
loop_
_geom_bond_atom_site_label_1
_geom_bond_atom_site_label_2
_geom_bond_distance
_geom_bond_site_symmetry_2
_ccdc_geom_bond_type
Dy0 O4 2.398 . S
Dy0 O5 2.491 . S
Dy0 O6 2.403 . S
Dy0 O7 2.664 . S
Dy0 O11 2.326 . S
Dy0 O15 2.310 . S
Dy0 O16 2.351 . S
C1 O12 1.185 . S
C1 O13 1.355 . S
C2 O4 1.185 . S
C2 O5 1.355 . S
Dy3 O7 2.310 . S
Dy3 O10 2.351 . S
Dy3 O12 2.398 . S
Dy3 O13 2.491 . S
Dy3 O14 2.403 . S
Dy3 O15 2.664 . S
Dy3 O17 2.326 . S
O4 Dy0 2.398 . S
O4 C2 1.185 . S
O5 Dy0 2.491 . S
O5 C2 1.355 . S
O6 Dy0 2.403 . S
O6 C8 1.254 . S
O7 Dy0 2.664 . S
O7 Dy3 2.310 . S
O7 C8 1.268 . S
C8 O6 1.254 . S
C8 O7 1.268 . S
C9 O14 1.254 . S
C9 O15 1.268 . S
O10 Dy3 2.351 . S
O10 C18 1.249 . S
O11 Dy0 2.326 . S
O11 C18 1.267 . S
O12 C1 1.185 . S
O12 Dy3 2.398 . S
O13 C1 1.355 . S
O13 Dy3 2.491 . S
O14 Dy3 2.403 . S
O14 C9 1.254 . S
O15 Dy0 2.310 . S
O15 Dy3 2.664 . S
O15 C9 1.268 . S
O16 Dy0 2.351 . S
O16 C19 1.249 . S
O17 Dy3 2.326 . S
O17 C19 1.267 . S
C18 O10 1.249 . S
C18 O11 1.267 . S
C19 O16 1.249 . S
C19 O17 1.267 . S
Dy20 O24 2.398 . S
Dy20 O25 2.491 . S
Dy20 O26 2.403 . S
Dy20 O27 2.664 . S
Dy20 O31 2.326 . S
Dy20 O35 2.310 . S
Dy20 O36 2.351 . S
C21 O32 1.185 . S
C21 O33 1.355 . S
C22 O24 1.185 . S
C22 O25 1.355 . S
Dy23 O27 2.310 . S
Dy23 O30 2.351 . S
Dy23 O32 2.398 . S
Dy23 O33 2.491 . S
Dy23 O34 2.403 . S
Dy23 O35 2.664 . S
Dy23 O37 2.326 . S
O24 Dy20 2.398 . S
O24 C22 1.185 . S
O25 Dy20 2.491 . S
O25 C22 1.355 . S
O26 Dy20 2.403 . S
O26 C28 1.254 . S
O27 Dy20 2.664 . S
O27 Dy23 2.310 . S
O27 C28 1.268 . S
C28 O26 1.254 . S
C28 O27 1.268 . S
C29 O34 1.254 . S
C29 O35 1.268 . S
O30 Dy23 2.351 . S
O30 C38 1.249 . S
O31 Dy20 2.326 . S
O31 C38 1.267 . S
O32 C21 1.185 . S
O32 Dy23 2.398 . S
O33 C21 1.355 . S
O33 Dy23 2.491 . S
O34 Dy23 2.403 . S
O34 C29 1.254 . S
O35 Dy20 2.310 . S
O35 Dy23 2.664 . S
O35 C29 1.268 . S
O36 Dy20 2.351 . S
O36 C39 1.249 . S
O37 Dy23 2.326 . S
O37 C39 1.267 . S
C38 O30 1.249 . S
C38 O31 1.267 . S
C39 O36 1.249 . S
C39 O37 1.267 . S
Dy40 O44 2.398 . S
Dy40 O45 2.491 . S
Dy40 O46 2.403 . S
Dy40 O47 2.664 . S
Dy40 O51 2.326 . S
Dy40 O55 2.310 . S
Dy40 O56 2.351 . S
C41 O52 1.185 . S
C41 O53 1.355 . S
C42 O44 1.185 . S
C42 O45 1.355 . S
Dy43 O47 2.310 . S
Dy43 O50 2.351 . S
Dy43 O52 2.398 . S
Dy43 O53 2.491 . S
Dy43 O54 2.403 . S
Dy43 O55 2.664 . S
Dy43 O57 2.326 . S
O44 Dy40 2.398 . S
O44 C42 1.185 . S
O45 Dy40 2.491 . S
O45 C42 1.355 . S
O46 Dy40 2.403 . S
O46 C48 1.254 . S
O47 Dy40 2.664 . S
O47 Dy43 2.310 . S
O47 C48 1.268 . S
C48 O46 1.254 . S
C48 O47 1.268 . S
C49 O54 1.254 . S
C49 O55 1.268 . S
O50 Dy43 2.351 . S
O50 C58 1.249 . S
O51 Dy40 2.326 . S
O51 C58 1.267 . S
O52 C41 1.185 . S
O52 Dy43 2.398 . S
O53 C41 1.355 . S
O53 Dy43 2.491 . S
O54 Dy43 2.403 . S
O54 C49 1.254 . S
O55 Dy40 2.310 . S
O55 Dy43 2.664 . S
O55 C49 1.268 . S
O56 Dy40 2.351 . S
O56 C59 1.249 . S
O57 Dy43 2.326 . S
O57 C59 1.267 . S
C58 O50 1.249 . S
C58 O51 1.267 . S
C59 O56 1.249 . S
C59 O57 1.267 . S
Dy60 O64 2.398 . S
Dy60 O65 2.491 . S
Dy60 O66 2.403 . S
Dy60 O67 2.664 . S
Dy60 O71 2.326 . S
Dy60 O75 2.310 . S
Dy60 O76 2.351 . S
C61 O72 1.185 . S
C61 O73 1.355 . S
C62 O64 1.185 . S
C62 O65 1.355 . S
Dy63 O67 2.310 . S
Dy63 O70 2.351 . S
Dy63 O72 2.398 . S
Dy63 O73 2.491 . S
Dy63 O74 2.403 . S
Dy63 O75 2.664 . S
Dy63 O77 2.326 . S
O64 Dy60 2.398 . S
O64 C62 1.185 . S
O65 Dy60 2.491 . S
O65 C62 1.355 . S
O66 Dy60 2.403 . S
O66 C68 1.254 . S
O67 Dy60 2.664 . S
O67 Dy63 2.310 . S
O67 C68 1.268 . S
C68 O66 1.254 . S
C68 O67 1.268 . S
C69 O74 1.254 . S
C69 O75 1.268 . S
O70 Dy63 2.351 . S
O70 C78 1.249 . S
O71 Dy60 2.326 . S
O71 C78 1.267 . S
O72 C61 1.185 . S
O72 Dy63 2.398 . S
O73 C61 1.355 . S
O73 Dy63 2.491 . S
O74 Dy63 2.403 . S
O74 C69 1.254 . S
O75 Dy60 2.310 . S
O75 Dy63 2.664 . S
O75 C69 1.268 . S
O76 Dy60 2.351 . S
O76 C79 1.249 . S
O77 Dy63 2.326 . S
O77 C79 1.267 . S
C78 O70 1.249 . S
C78 O71 1.267 . S
C79 O76 1.249 . S
C79 O77 1.267 . S
Dy80 O84 2.398 1_556 S
Dy80 O85 2.491 1_556 S
Dy80 O86 2.403 . S
Dy80 O87 2.664 . S
Dy80 O91 2.326 1_556 S
Dy80 O95 2.310 1_556 S
Dy80 O96 2.351 . S
C81 O92 1.185 . S
C81 O93 1.355 . S
C82 O84 1.185 . S
C82 O85 1.355 . S
Dy83 O87 2.310 1_554 S
Dy83 O90 2.351 . S
Dy83 O92 2.398 1_554 S
Dy83 O93 2.491 1_554 S
Dy83 O94 2.403 . S
Dy83 O95 2.664 . S
Dy83 O97 2.326 1_554 S
O84 Dy80 2.398 1_554 S
O84 C82 1.185 . S
O85 Dy80 2.491 1_554 S
O85 C82 1.355 . S
O86 Dy80 2.403 . S
O86 C88 1.254 . S
O87 Dy80 2.664 . S
O87 Dy83 2.310 1_556 S
O87 C88 1.268 . S
C88 O86 1.254 . S
C88 O87 1.268 . S
C89 O94 1.254 . S
C89 O95 1.268 . S
O90 Dy83 2.351 . S
O90 C98 1.249 . S
O91 Dy80 2.326 1_554 S
O91 C98 1.267 . S
O92 C81 1.185 . S
O92 Dy83 2.398 1_556 S
O93 C81 1.355 . S
O93 Dy83 2.491 1_556 S
O94 Dy83 2.403 . S
O94 C89 1.254 . S
O95 Dy80 2.310 1_554 S
O95 Dy83 2.664 . S
O95 C89 1.268 . S
O96 Dy80 2.351 . S
O96 C99 1.249 . S
O97 Dy83 2.326 1_556 S
O97 C99 1.267 . S
C98 O90 1.249 . S
C98 O91 1.267 . S
C99 O96 1.249 . S
C99 O97 1.267 . S
Dy100 O104 2.398 1_556 S
Dy100 O105 2.491 1_556 S
Dy100 O106 2.403 . S
Dy100 O107 2.664 . S
Dy100 O111 2.326 1_556 S
Dy100 O115 2.310 1_556 S
Dy100 O116 2.351 . S
C101 O112 1.185 . S
C101 O113 1.355 . S
C102 O104 1.185 . S
C102 O105 1.355 . S
Dy103 O107 2.310 1_554 S
Dy103 O110 2.351 . S
Dy103 O112 2.398 1_554 S
Dy103 O113 2.491 1_554 S
Dy103 O114 2.403 . S
Dy103 O115 2.664 . S
Dy103 O117 2.326 1_554 S
O104 Dy100 2.398 1_554 S
O104 C102 1.185 . S
O105 Dy100 2.491 1_554 S
O105 C102 1.355 . S
O106 Dy100 2.403 . S
O106 C108 1.254 . S
O107 Dy100 2.664 . S
O107 Dy103 2.310 1_556 S
O107 C108 1.268 . S
C108 O106 1.254 . S
C108 O107 1.268 . S
C109 O114 1.254 . S
C109 O115 1.268 . S
O110 Dy103 2.351 . S
O110 C118 1.249 . S
O111 Dy100 2.326 1_554 S
O111 C118 1.267 . S
O112 C101 1.185 . S
O112 Dy103 2.398 1_556 S
O113 C101 1.355 . S
O113 Dy103 2.491 1_556 S
O114 Dy103 2.403 . S
O114 C109 1.254 . S
O115 Dy100 2.310 1_554 S
O115 Dy103 2.664 . S
O115 C109 1.268 . S
O116 Dy100 2.351 . S
O116 C119 1.249 . S
O117 Dy103 2.326 1_556 S
O117 C119 1.267 . S
C118 O110 1.249 . S
C118 O111 1.267 . S
C119 O116 1.249 . S
C119 O117 1.267 . S
Dy120 O124 2.398 1_556 S
Dy120 O125 2.491 1_556 S
Dy120 O126 2.403 . S
Dy120 O127 2.664 . S
Dy120 O131 2.326 1_556 S
Dy120 O135 2.310 1_556 S
Dy120 O136 2.351 . S
C121 O132 1.185 . S
C121 O133 1.355 . S
C122 O124 1.185 . S
C122 O125 1.355 . S
Dy123 O127 2.310 1_554 S
Dy123 O130 2.351 . S
Dy123 O132 2.398 1_554 S
Dy123 O133 2.491 1_554 S
Dy123 O134 2.403 . S
Dy123 O135 2.664 . S
Dy123 O137 2.326 1_554 S
O124 Dy120 2.398 1_554 S
O124 C122 1.185 . S
O125 Dy120 2.491 1_554 S
O125 C122 1.355 . S
O126 Dy120 2.403 . S
O126 C128 1.254 . S
O127 Dy120 2.664 . S
O127 Dy123 2.310 1_556 S
O127 C128 1.268 . S
C128 O126 1.254 . S
C128 O127 1.268 . S
C129 O134 1.254 . S
C129 O135 1.268 . S
O130 Dy123 2.351 . S
O130 C138 1.249 . S
O131 Dy120 2.326 1_554 S
O131 C138 1.267 . S
O132 C121 1.185 . S
O132 Dy123 2.398 1_556 S
O133 C121 1.355 . S
O133 Dy123 2.491 1_556 S
O134 Dy123 2.403 . S
O134 C129 1.254 . S
O135 Dy120 2.310 1_554 S
O135 Dy123 2.664 . S
O135 C129 1.268 . S
O136 Dy120 2.351 . S
O136 C139 1.249 . S
O137 Dy123 2.326 1_556 S
O137 C139 1.267 . S
C138 O130 1.249 . S
C138 O131 1.267 . S
C139 O136 1.249 . S
C139 O137 1.267 . S
Dy140 O144 2.398 1_556 S
Dy140 O145 2.491 1_556 S
Dy140 O146 2.403 . S
Dy140 O147 2.664 . S
Dy140 O151 2.326 1_556 S
Dy140 O155 2.310 1_556 S
Dy140 O156 2.351 . S
C141 O152 1.185 . S
C141 O153 1.355 . S
C142 O144 1.185 . S
C142 O145 1.355 . S
Dy143 O147 2.310 1_554 S
Dy143 O150 2.351 . S
Dy143 O152 2.398 1_554 S
Dy143 O153 2.491 1_554 S
Dy143 O154 2.403 . S
Dy143 O155 2.664 . S
Dy143 O157 2.326 1_554 S
O144 Dy140 2.398 1_554 S
O144 C142 1.185 . S
O145 Dy140 2.491 1_554 S
O145 C142 1.355 . S
O146 Dy140 2.403 . S
O146 C148 1.254 . S
O147 Dy140 2.664 . S
O147 Dy143 2.310 1_556 S
O147 C148 1.268 . S
C148 O146 1.254 . S
C148 O147 1.268 . S
C149 O154 1.254 . S
C149 O155 1.268 . S
O150 Dy143 2.351 . S
O150 C158 1.249 . S
O151 Dy140 2.326 1_554 S
O151 C158 1.267 . S
O152 C141 1.185 . S
O152 Dy143 2.398 1_556 S
O153 C141 1.355 . S
O153 Dy143 2.491 1_556 S
O154 Dy143 2.403 . S
O154 C149 1.254 . S
O155 Dy140 2.310 1_554 S
O155 Dy143 2.664 . S
O155 C149 1.268 . S
O156 Dy140 2.351 . S
O156 C159 1.249 . S
O157 Dy143 2.326 1_556 S
O157 C159 1.267 . S
C158 O150 1.249 . S
C158 O151 1.267 . S
C159 O156 1.249 . S
C159 O157 1.267 . S
H160 C166 0.930 . S
H161 C169 0.930 . S
H162 C170 0.930 . S
H163 C171 0.930 . S
H164 C174 0.930 . S
H165 C175 0.930 . S
C166 H160 0.930 . S
C166 C167 1.355 . S
C166 C168 1.415 . S
C167 C166 1.355 . S
C167 C169 1.419 . S
C168 C166 1.415 . S
C168 C173 1.425 . S
C168 C175 1.409 . S
C169 H161 0.930 . S
C169 C167 1.419 . S
C169 C170 1.362 . S
C170 H162 0.930 . S
C170 C169 1.362 . S
C170 C173 1.409 . S
C171 H163 0.930 . S
C171 C172 1.355 . S
C171 C173 1.415 . S
C172 C171 1.355 . S
C172 C174 1.419 . S
C173 C168 1.425 . S
C173 C170 1.409 . S
C173 C171 1.415 . S
C174 H164 0.930 . S
C174 C172 1.419 . S
C174 C175 1.362 . S
C175 H165 0.930 . S
C175 C168 1.409 . S
C175 C174 1.362 . S
H176 C182 0.930 . S
H177 C185 0.930 . S
H178 C186 0.930 . S
H179 C187 0.930 . S
H180 C190 0.930 . S
H181 C191 0.930 . S
C182 H176 0.930 . S
C182 C183 1.355 . S
C182 C184 1.415 . S
C183 C182 1.355 . S
C183 C185 1.419 . S
C184 C182 1.415 . S
C184 C189 1.425 . S
C184 C191 1.409 . S
C185 H177 0.930 . S
C185 C183 1.419 . S
C185 C186 1.362 . S
C186 H178 0.930 . S
C186 C185 1.362 . S
C186 C189 1.409 . S
C187 H179 0.930 . S
C187 C188 1.355 . S
C187 C189 1.415 . S
C188 C187 1.355 . S
C188 C190 1.419 . S
C189 C184 1.425 . S
C189 C186 1.409 . S
C189 C187 1.415 . S
C190 H180 0.930 . S
C190 C188 1.419 . S
C190 C191 1.362 . S
C191 H181 0.930 . S
C191 C184 1.409 . S
C191 C190 1.362 . S
H192 C198 0.930 . S
H193 C201 0.930 . S
H194 C202 0.930 . S
H195 C203 0.930 . S
H196 C206 0.930 . S
H197 C207 0.930 . S
C198 H192 0.930 . S
C198 C199 1.355 . S
C198 C200 1.415 . S
C199 C198 1.355 . S
C199 C201 1.419 . S
C200 C198 1.415 . S
C200 C205 1.425 . S
C200 C207 1.409 . S
C201 H193 0.930 . S
C201 C199 1.419 . S
C201 C202 1.362 . S
C202 H194 0.930 . S
C202 C201 1.362 . S
C202 C205 1.409 . S
C203 H195 0.930 . S
C203 C204 1.355 . S
C203 C205 1.415 . S
C204 C203 1.355 . S
C204 C206 1.419 . S
C205 C200 1.425 . S
C205 C202 1.409 . S
C205 C203 1.415 . S
C206 H196 0.930 . S
C206 C204 1.419 . S
C206 C207 1.362 . S
C207 H197 0.930 . S
C207 C200 1.409 . S
C207 C206 1.362 . S
H208 C214 0.930 . S
H209 C217 0.930 . S
H210 C218 0.930 . S
H211 C219 0.930 . S
H212 C222 0.930 . S
H213 C223 0.930 . S
C214 H208 0.930 . S
C214 C215 1.355 . S
C214 C216 1.415 . S
C215 C214 1.355 . S
C215 C217 1.419 . S
C216 C214 1.415 . S
C216 C221 1.425 . S
C216 C223 1.409 . S
C217 H209 0.930 . S
C217 C215 1.419 . S
C217 C218 1.362 . S
C218 H210 0.930 . S
C218 C217 1.362 . S
C218 C221 1.409 . S
C219 H211 0.930 . S
C219 C220 1.355 . S
C219 C221 1.415 . S
C220 C219 1.355 . S
C220 C222 1.419 . S
C221 C216 1.425 . S
C221 C218 1.409 . S
C221 C219 1.415 . S
C222 H212 0.930 . S
C222 C220 1.419 . S
C222 C223 1.362 . S
C223 H213 0.930 . S
C223 C216 1.409 . S
C223 C222 1.362 . S
H224 C230 0.930 . S
H225 C233 0.930 . S
H226 C234 0.930 . S
H227 C235 0.930 . S
H228 C238 0.930 . S
H229 C239 0.930 . S
C230 H224 0.930 . S
C230 C231 1.355 . S
C230 C232 1.415 . S
C231 C230 1.355 . S
C231 C233 1.419 . S
C232 C230 1.415 . S
C232 C237 1.425 1_565 S
C232 C239 1.409 1_565 S
C233 H225 0.930 . S
C233 C231 1.419 . S
C233 C234 1.362 . S
C234 H226 0.930 . S
C234 C233 1.362 . S
C234 C237 1.409 1_565 S
C235 H227 0.930 . S
C235 C236 1.355 . S
C235 C237 1.415 . S
C236 C235 1.355 . S
C236 C238 1.419 . S
C237 C232 1.425 1_545 S
C237 C234 1.409 1_545 S
C237 C235 1.415 . S
C238 H228 0.930 . S
C238 C236 1.419 . S
C238 C239 1.362 . S
C239 H229 0.930 . S
C239 C232 1.409 1_545 S
C239 C238 1.362 . S
H240 C246 0.930 . S
H241 C249 0.930 . S
H242 C250 0.930 . S
H243 C251 0.930 . S
H244 C254 0.930 . S
H245 C255 0.930 . S
C246 H240 0.930 . S
C246 C247 1.355 . S
C246 C248 1.415 . S
C247 C246 1.355 . S
C247 C249 1.419 . S
C248 C246 1.415 . S
C248 C253 1.425 . S
C248 C255 1.409 . S
C249 H241 0.930 . S
C249 C247 1.419 . S
C249 C250 1.362 . S
C250 H242 0.930 . S
C250 C249 1.362 . S
C250 C253 1.409 . S
C251 H243 0.930 . S
C251 C252 1.355 . S
C251 C253 1.415 . S
C252 C251 1.355 . S
C252 C254 1.419 . S
C253 C248 1.425 . S
C253 C250 1.409 . S
C253 C251 1.415 . S
C254 H244 0.930 . S
C254 C252 1.419 . S
C254 C255 1.362 . S
C255 H245 0.930 . S
C255 C248 1.409 . S
C255 C254 1.362 . S
H256 C262 0.930 . S
H257 C265 0.930 . S
H258 C266 0.930 . S
H259 C267 0.930 . S
H260 C270 0.930 . S
H261 C271 0.930 . S
C262 H256 0.930 . S
C262 C263 1.355 . S
C262 C264 1.415 . S
C263 C262 1.355 . S
C263 C265 1.419 . S
C264 C262 1.415 . S
C264 C269 1.425 1_565 S
C264 C271 1.409 1_565 S
C265 H257 0.930 . S
C265 C263 1.419 . S
C265 C266 1.362 . S
C266 H258 0.930 . S
C266 C265 1.362 . S
C266 C269 1.409 1_565 S
C267 H259 0.930 . S
C267 C268 1.355 . S
C267 C269 1.415 . S
C268 C267 1.355 . S
C268 C270 1.419 . S
C269 C264 1.425 1_545 S
C269 C266 1.409 1_545 S
C269 C267 1.415 . S
C270 H260 0.930 . S
C270 C268 1.419 . S
C270 C271 1.362 . S
C271 H261 0.930 . S
C271 C264 1.409 1_545 S
C271 C270 1.362 . S
H272 C278 0.930 . S
H273 C281 0.930 . S
H274 C282 0.930 . S
H275 C283 0.930 . S
H276 C286 0.930 . S
H277 C287 0.930 . S
C278 H272 0.930 . S
C278 C279 1.355 . S
C278 C280 1.415 . S
C279 C278 1.355 . S
C279 C281 1.419 . S
C280 C278 1.415 . S
C280 C285 1.425 . S
C280 C287 1.409 . S
C281 H273 0.930 . S
C281 C279 1.419 . S
C281 C282 1.362 . S
C282 H274 0.930 . S
C282 C281 1.362 . S
C282 C285 1.409 . S
C283 H275 0.930 . S
C283 C284 1.355 . S
C283 C285 1.415 . S
C284 C283 1.355 . S
C284 C286 1.419 . S
C285 C280 1.425 . S
C285 C282 1.409 . S
C285 C283 1.415 . S
C286 H276 0.930 . S
C286 C284 1.419 . S
C286 C287 1.362 . S
C287 H277 0.930 . S
C287 C280 1.409 . S
C287 C286 1.362 . S
H288 C294 0.930 . S
H289 C297 0.930 . S
H290 C298 0.930 . S
H291 C299 0.930 . S
H292 C302 0.930 . S
H293 C303 0.930 . S
C294 H288 0.930 . S
C294 C295 1.355 1_556 S
C294 C296 1.415 . S
C295 C294 1.355 1_554 S
C295 C297 1.419 . S
C296 C294 1.415 . S
C296 C301 1.425 1_556 S
C296 C303 1.409 . S
C297 H289 0.930 . S
C297 C295 1.419 . S
C297 C298 1.362 . S
C298 H290 0.930 . S
C298 C297 1.362 . S
C298 C301 1.409 . S
C299 H291 0.930 . S
C299 C300 1.355 1_554 S
C299 C301 1.415 . S
C300 C299 1.355 1_556 S
C300 C302 1.419 . S
C301 C296 1.425 1_554 S
C301 C298 1.409 . S
C301 C299 1.415 . S
C302 H292 0.930 . S
C302 C300 1.419 . S
C302 C303 1.362 . S
C303 H293 0.930 . S
C303 C296 1.409 . S
C303 C302 1.362 . S
H304 C310 0.930 . S
H305 C313 0.930 . S
H306 C314 0.930 . S
H307 C315 0.930 . S
H308 C318 0.930 . S
H309 C319 0.930 . S
C310 H304 0.930 . S
C310 C311 1.355 1_554 S
C310 C312 1.415 . S
C311 C310 1.355 1_556 S
C311 C313 1.419 . S
C312 C310 1.415 . S
C312 C317 1.425 1_564 S
C312 C319 1.409 1_565 S
C313 H305 0.930 . S
C313 C311 1.419 . S
C313 C314 1.362 . S
C314 H306 0.930 . S
C314 C313 1.362 . S
C314 C317 1.409 1_565 S
C315 H307 0.930 . S
C315 C316 1.355 1_556 S
C315 C317 1.415 . S
C316 C315 1.355 1_554 S
C316 C318 1.419 . S
C317 C312 1.425 1_546 S
C317 C314 1.409 1_545 S
C317 C315 1.415 . S
C318 H308 0.930 . S
C318 C316 1.419 . S
C318 C319 1.362 . S
C319 H309 0.930 . S
C319 C312 1.409 1_545 S
C319 C318 1.362 . S
H320 C326 0.930 . S
H321 C329 0.930 . S
H322 C330 0.930 . S
H323 C331 0.930 . S
H324 C334 0.930 . S
H325 C335 0.930 . S
C326 H320 0.930 . S
C326 C327 1.355 1_554 S
C326 C328 1.415 . S
C327 C326 1.355 1_556 S
C327 C329 1.419 . S
C328 C326 1.415 . S
C328 C333 1.425 1_554 S
C328 C335 1.409 . S
C329 H321 0.930 . S
C329 C327 1.419 . S
C329 C330 1.362 . S
C330 H322 0.930 . S
C330 C329 1.362 . S
C330 C333 1.409 . S
C331 H323 0.930 . S
C331 C332 1.355 1_556 S
C331 C333 1.415 . S
C332 C331 1.355 1_554 S
C332 C334 1.419 . S
C333 C328 1.425 1_556 S
C333 C330 1.409 . S
C333 C331 1.415 . S
C334 H324 0.930 . S
C334 C332 1.419 . S
C334 C335 1.362 . S
C335 H325 0.930 . S
C335 C328 1.409 . S
C335 C334 1.362 . S
H336 C342 0.930 . S
H337 C345 0.930 . S
H338 C346 0.930 . S
H339 C347 0.930 . S
H340 C350 0.930 . S
H341 C351 0.930 . S
C342 H336 0.930 . S
C342 C343 1.355 1_554 S
C342 C344 1.415 . S
C343 C342 1.355 1_556 S
C343 C345 1.419 . S
C344 C342 1.415 . S
C344 C349 1.425 1_544 S
C344 C351 1.409 1_545 S
C345 H337 0.930 . S
C345 C343 1.419 . S
C345 C346 1.362 . S
C346 H338 0.930 . S
C346 C345 1.362 . S
C346 C349 1.409 1_545 S
C347 H339 0.930 . S
C347 C348 1.355 1_556 S
C347 C349 1.415 . S
C348 C347 1.355 1_554 S
C348 C350 1.419 . S
C349 C344 1.425 1_566 S
C349 C346 1.409 1_565 S
C349 C347 1.415 . S
C350 H340 0.930 . S
C350 C348 1.419 . S
C350 C351 1.362 . S
C351 H341 0.930 . S
C351 C344 1.409 1_565 S
C351 C350 1.362 . S
H352 C358 0.930 . S
H353 C361 0.930 . S
H354 C362 0.930 . S
H355 C363 0.930 . S
H356 C366 0.930 . S
H357 C367 0.930 . S
C358 H352 0.930 . S
C358 C359 1.355 . S
C358 C360 1.415 1_554 S
C359 C358 1.355 . S
C359 C361 1.419 . S
C360 C358 1.415 1_556 S
C360 C365 1.425 . S
C360 C367 1.409 . S
C361 H353 0.930 . S
C361 C359 1.419 . S
C361 C362 1.362 . S
C362 H354 0.930 . S
C362 C361 1.362 . S
C362 C365 1.409 1_554 S
C363 H355 0.930 . S
C363 C364 1.355 . S
C363 C365 1.415 . S
C364 C363 1.355 . S
C364 C366 1.419 . S
C365 C360 1.425 . S
C365 C362 1.409 1_556 S
C365 C363 1.415 . S
C366 H356 0.930 . S
C366 C364 1.419 . S
C366 C367 1.362 . S
C367 H357 0.930 . S
C367 C360 1.409 . S
C367 C366 1.362 . S
H368 C374 0.930 . S
H369 C377 0.930 . S
H370 C378 0.930 . S
H371 C379 0.930 . S
H372 C382 0.930 . S
H373 C383 0.930 . S
C374 H368 0.930 . S
C374 C375 1.355 . S
C374 C376 1.405 1_554 S
C375 C374 1.355 . S
C375 C377 1.419 . S
C376 C374 1.405 1_556 S
C376 C381 1.428 . S
C376 C383 1.416 . S
C377 H369 0.930 . S
C377 C375 1.419 . S
C377 C378 1.362 . S
C378 H370 0.930 . S
C378 C377 1.362 . S
C378 C381 1.409 1_554 S
C379 H371 0.930 . S
C379 C380 1.355 . S
C379 C381 1.415 . S
C380 C379 1.355 . S
C380 C382 1.419 . S
C381 C376 1.428 . S
C381 C378 1.409 1_556 S
C381 C379 1.415 . S
C382 H372 0.930 . S
C382 C380 1.419 . S
C382 C383 1.362 . S
C383 H373 0.930 . S
C383 C376 1.416 . S
C383 C382 1.362 . S
H384 C390 0.930 . S
H385 C393 0.930 . S
H386 C394 0.930 . S
H387 C395 0.930 . S
H388 C398 0.930 . S
H389 C399 0.930 1_554 S
C390 H384 0.930 . S
C390 C391 1.355 . S
C390 C392 1.415 . S
C391 C390 1.355 . S
C391 C393 1.419 . S
C392 C390 1.415 . S
C392 C397 1.425 1_554 S
C392 C399 1.409 1_554 S
C393 H385 0.930 . S
C393 C391 1.419 . S
C393 C394 1.362 . S
C394 H386 0.930 . S
C394 C393 1.362 . S
C394 C397 1.409 1_554 S
C395 H387 0.930 . S
C395 C396 1.355 . S
C395 C397 1.415 . S
C396 C395 1.355 . S
C396 C398 1.419 . S
C397 C392 1.425 1_556 S
C397 C394 1.409 1_556 S
C397 C395 1.415 . S
C398 H388 0.930 . S
C398 C396 1.419 . S
C398 C399 1.362 . S
C399 H389 0.930 1_556 S
C399 C392 1.409 1_556 S
C399 C398 1.362 . S
H400 C406 0.930 . S
H401 C409 0.930 . S
H402 C410 0.930 . S
H403 C411 0.930 . S
H404 C414 0.930 . S
H405 C415 0.930 . S
C406 H400 0.930 . S
C406 C407 1.355 . S
C406 C408 1.415 1_556 S
C407 C406 1.355 . S
C407 C409 1.419 . S
C408 C406 1.415 1_554 S
C408 C413 1.425 . S
C408 C415 1.409 . S
C409 H401 0.930 . S
C409 C407 1.419 . S
C409 C410 1.362 . S
C410 H402 0.930 . S
C410 C409 1.362 . S
C410 C413 1.409 1_556 S
C411 H403 0.930 . S
C411 C412 1.355 . S
C411 C413 1.415 . S
C412 C411 1.355 . S
C412 C414 1.419 . S
C413 C408 1.425 . S
C413 C410 1.409 1_554 S
C413 C411 1.415 . S
C414 H404 0.930 . S
C414 C412 1.419 . S
C414 C415 1.362 . S
C415 H405 0.930 . S
C415 C408 1.409 . S
C415 C414 1.362 . S
H416 C422 0.930 . S
H417 C425 0.930 . S
H418 C426 0.930 . S
H419 C427 0.930 . S
H420 C430 0.930 . S
H421 C431 0.930 . S
C422 H416 0.930 . S
C422 C423 1.355 . S
C422 C424 1.415 . S
C423 C422 1.355 . S
C423 C425 1.419 . S
C424 C422 1.415 . S
C424 C429 1.425 . S
C424 C431 1.409 . S
C425 H417 0.930 . S
C425 C423 1.419 . S
C425 C426 1.362 . S
C426 H418 0.930 . S
C426 C425 1.362 . S
C426 C429 1.409 . S
C427 H419 0.930 . S
C427 C428 1.355 . S
C427 C429 1.415 . S
C428 C427 1.355 . S
C428 C430 1.419 . S
C429 C424 1.425 . S
C429 C426 1.409 . S
C429 C427 1.415 . S
C430 H420 0.930 . S
C430 C428 1.419 . S
C430 C431 1.362 . S
C431 H421 0.930 . S
C431 C424 1.409 . S
C431 C430 1.362 . S
H432 C438 0.930 . S
H433 C441 0.930 . S
H434 C442 0.930 . S
H435 C443 0.930 . S
H436 C446 0.930 . S
H437 C447 0.930 . S
C438 H432 0.930 . S
C438 C439 1.355 . S
C438 C440 1.415 . S
C439 C438 1.355 . S
C439 C441 1.419 . S
C440 C438 1.415 . S
C440 C445 1.425 . S
C440 C447 1.409 . S
C441 H433 0.930 . S
C441 C439 1.419 . S
C441 C442 1.362 . S
C442 H434 0.930 . S
C442 C441 1.362 . S
C442 C445 1.409 . S
C443 H435 0.930 . S
C443 C444 1.355 . S
C443 C445 1.415 . S
C444 C443 1.355 . S
C444 C446 1.419 . S
C445 C440 1.425 . S
C445 C442 1.409 . S
C445 C443 1.415 . S
C446 H436 0.930 . S
C446 C444 1.419 . S
C446 C447 1.362 . S
C447 H437 0.930 . S
C447 C440 1.409 . S
C447 C446 1.362 . S
H448 C454 0.930 . S
H449 C457 0.930 . S
H450 C458 0.930 . S
H451 C459 0.930 . S
H452 C462 0.930 . S
H453 C463 0.930 . S
C454 H448 0.930 . S
C454 C455 1.355 . S
C454 C456 1.415 . S
C455 C454 1.355 . S
C455 C457 1.419 . S
C456 C454 1.415 . S
C456 C461 1.425 . S
C456 C463 1.409 . S
C457 H449 0.930 . S
C457 C455 1.419 . S
C457 C458 1.362 . S
C458 H450 0.930 . S
C458 C457 1.362 . S
C458 C461 1.409 . S
C459 H451 0.930 . S
C459 C460 1.355 . S
C459 C461 1.415 . S
C460 C459 1.355 . S
C460 C462 1.419 . S
C461 C456 1.425 . S
C461 C458 1.409 . S
C461 C459 1.415 . S
C462 H452 0.930 . S
C462 C460 1.419 . S
C462 C463 1.362 . S
C463 H453 0.930 . S
C463 C456 1.409 . S
C463 C462 1.362 . S
H464 C470 0.930 . S
H465 C473 0.930 . S
H466 C474 0.930 . S
H467 C475 0.930 . S
H468 C478 0.930 . S
H469 C479 0.930 . S
C470 H464 0.930 . S
C470 C471 1.355 . S
C470 C472 1.415 . S
C471 C470 1.355 . S
C471 C473 1.419 . S
C472 C470 1.415 . S
C472 C477 1.425 . S
C472 C479 1.409 . S
C473 H465 0.930 . S
C473 C471 1.419 . S
C473 C474 1.362 . S
C474 H466 0.930 . S
C474 C473 1.362 . S
C474 C477 1.409 . S
C475 H467 0.930 . S
C475 C476 1.355 . S
C475 C477 1.415 . S
C476 C475 1.355 . S
C476 C478 1.419 . S
C477 C472 1.425 . S
C477 C474 1.409 . S
C477 C475 1.415 . S
C478 H468 0.930 . S
C478 C476 1.419 . S
C478 C479 1.362 . S
C479 H469 0.930 . S
C479 C472 1.409 . S
C479 C478 1.362 . S
H480 C486 0.930 . S
H481 C489 0.930 . S
H482 C490 0.930 . S
H483 C491 0.930 . S
H484 C494 0.930 . S
H485 C495 0.930 . S
C486 H480 0.930 . S
C486 C487 1.355 . S
C486 C488 1.415 . S
C487 C486 1.355 . S
C487 C489 1.419 . S
C488 C486 1.415 . S
C488 C493 1.425 1_455 S
C488 C495 1.409 1_455 S
C489 H481 0.930 . S
C489 C487 1.419 . S
C489 C490 1.362 . S
C490 H482 0.930 . S
C490 C489 1.362 . S
C490 C493 1.409 1_455 S
C491 H483 0.930 . S
C491 C492 1.355 . S
C491 C493 1.415 . S
C492 C491 1.355 . S
C492 C494 1.419 . S
C493 C488 1.425 1_655 S
C493 C490 1.409 1_655 S
C493 C491 1.415 . S
C494 H484 0.930 . S
C494 C492 1.419 . S
C494 C495 1.362 . S
C495 H485 0.930 . S
C495 C488 1.409 1_655 S
C495 C494 1.362 . S
H496 C502 0.930 . S
H497 C505 0.930 . S
H498 C506 0.930 . S
H499 C507 0.930 . S
H500 C510 0.930 . S
H501 C511 0.930 . S
C502 H496 0.930 . S
C502 C503 1.355 . S
C502 C504 1.415 . S
C503 C502 1.355 . S
C503 C505 1.419 . S
C504 C502 1.415 . S
C504 C509 1.425 1_655 S
C504 C511 1.409 1_655 S
C505 H497 0.930 . S
C505 C503 1.419 . S
C505 C506 1.362 . S
C506 H498 0.930 . S
C506 C505 1.362 . S
C506 C509 1.409 1_655 S
C507 H499 0.930 . S
C507 C508 1.355 . S
C507 C509 1.415 . S
C508 C507 1.355 . S
C508 C510 1.419 . S
C509 C504 1.425 1_455 S
C509 C506 1.409 1_455 S
C509 C507 1.415 . S
C510 H500 0.930 . S
C510 C508 1.419 . S
C510 C511 1.362 . S
C511 H501 0.930 . S
C511 C504 1.409 1_455 S
C511 C510 1.362 . S
H512 C518 0.930 . S
H513 C521 0.928 1_554 S
H514 C522 0.930 1_554 S
H515 C523 0.930 . S
H516 C526 0.930 . S
H517 C527 0.930 . S
C518 H512 0.930 . S
C518 C519 1.355 . S
C518 C520 1.415 . S
C519 C518 1.355 . S
C519 C521 1.419 . S
C520 C518 1.415 . S
C520 C525 1.425 . S
C520 C527 1.409 . S
C521 H513 0.928 1_556 S
C521 C519 1.419 . S
C521 C522 1.362 . S
C522 H514 0.930 1_556 S
C522 C521 1.362 . S
C522 C525 1.409 . S
C523 H515 0.930 . S
C523 C524 1.355 . S
C523 C525 1.415 . S
C524 C523 1.355 . S
C524 C526 1.419 . S
C525 C520 1.425 . S
C525 C522 1.409 . S
C525 C523 1.415 . S
C526 H516 0.930 . S
C526 C524 1.419 . S
C526 C527 1.362 . S
C527 H517 0.930 . S
C527 C520 1.409 . S
C527 C526 1.362 . S
H528 C534 0.930 . S
H529 C537 0.930 . S
H530 C538 0.930 . S
H531 C539 0.930 . S
H532 C542 0.930 . S
H533 C543 0.930 . S
C534 H528 0.930 . S
C534 C535 1.355 . S
C534 C536 1.415 . S
C535 C534 1.355 . S
C535 C537 1.419 . S
C536 C534 1.415 . S
C536 C541 1.425 . S
C536 C543 1.409 . S
C537 H529 0.930 . S
C537 C535 1.419 . S
C537 C538 1.362 . S
C538 H530 0.930 . S
C538 C537 1.362 . S
C538 C541 1.409 . S
C539 H531 0.930 . S
C539 C540 1.355 . S
C539 C541 1.415 . S
C540 C539 1.355 . S
C540 C542 1.419 . S
C541 C536 1.425 . S
C541 C538 1.409 . S
C541 C539 1.415 . S
C542 H532 0.930 . S
C542 C540 1.419 . S
C542 C543 1.362 . S
C543 H533 0.930 . S
C543 C536 1.409 . S
C543 C542 1.362 . S
C167 C2 1.631 . S
C172 C141 1.631 . S
C183 C121 1.650 . S
C188 C22 1.650 . S
C199 C102 1.650 . S
C204 C41 1.649 . S
C215 C82 1.649 . S
C220 C61 1.648 . S
C231 C48 1.433 . S
C236 C8 1.432 . S
C247 C28 1.476 . S
C252 C68 1.482 . S
C263 C69 1.433 . S
C268 C29 1.433 . S
C279 C49 1.492 . S
C284 C9 1.489 . S
C295 C88 1.469 1_554 S
C300 C128 1.458 . S
C311 C108 1.435 . S
C316 C148 1.446 1_554 S
C327 C149 1.444 1_556 S
C332 C109 1.434 . S
C343 C129 1.444 1_556 S
C348 C89 1.434 . S
C359 C19 1.628 . S
C364 C18 1.628 . S
C375 C39 1.609 . S
C380 C38 1.609 . S
C391 C59 1.660 . S
C396 C58 1.660 . S
C407 C78 1.615 . S
C412 C79 1.615 . S
C423 C98 1.618 . S
C428 C99 1.618 . S
C439 C119 1.661 . S
C444 C118 1.661 . S
C455 C138 1.628 . S
C460 C139 1.628 . S
C471 C158 1.611 . S
C476 C159 1.611 . S
C487 C1 1.876 . S
C492 C21 1.816 . S
C503 C62 1.858 . S
C508 C42 1.829 . S
C519 C81 1.822 . S
C524 C101 1.867 . S
C535 C142 1.828 . S
C540 C122 1.860 . S
