# Generated by pormake.
# Topology snl, (6)-cn, num edge types: 1
# Building blocks:
#     Node 0, Type 0, BuildingBlock: PAMTOO_clean_sbu_0, # of connection points: 6
#     Node 1, Type 0, BuildingBlock: PAMTOO_clean_sbu_0, # of connection points: 6
#     Node 2, Type 0, BuildingBlock: PAMTOO_clean_sbu_0, # of connection points: 6
#     Node 3, Type 0, BuildingBlock: PAMTOO_clean_sbu_0, # of connection points: 6
#     Node 4, Type 0, BuildingBlock: PAMTOO_clean_sbu_0, # of connection points: 6
#     Node 5, Type 0, BuildingBlock: PAMTOO_clean_sbu_0, # of connection points: 6
#     Node 6, Type 0, BuildingBlock: PAMTOO_clean_sbu_0, # of connection points: 6
#     Node 7, Type 0, BuildingBlock: PAMTOO_clean_sbu_0, # of connection points: 6
#     Node 8, Type 0, BuildingBlock: PAMTOO_clean_sbu_0, # of connection points: 6
#     Node 9, Type 0, BuildingBlock: PAMTOO_clean_sbu_0, # of connection points: 6
#     Node 10, Type 0, BuildingBlock: PAMTOO_clean_sbu_0, # of connection points: 6
#     Node 11, Type 0, BuildingBlock: PAMTOO_clean_sbu_0, # of connection points: 6
#     Node 12, Type 0, BuildingBlock: PAMTOO_clean_sbu_0, # of connection points: 6
#     Node 13, Type 0, BuildingBlock: PAMTOO_clean_sbu_0, # of connection points: 6
#     Node 14, Type 0, BuildingBlock: PAMTOO_clean_sbu_0, # of connection points: 6
#     Node 15, Type 0, BuildingBlock: PAMTOO_clean_sbu_0, # of connection points: 6
#     Edge 16, Type (0, 0), BuildingBlock: XUDNAN_clean_linker_2, # of connection points: 2
#     Edge 17, Type (0, 0), BuildingBlock: XUDNAN_clean_linker_2, # of connection points: 2
#     Edge 18, Type (0, 0), BuildingBlock: XUDNAN_clean_linker_2, # of connection points: 2
#     Edge 19, Type (0, 0), BuildingBlock: XUDNAN_clean_linker_2, # of connection points: 2
#     Edge 20, Type (0, 0), BuildingBlock: XUDNAN_clean_linker_2, # of connection points: 2
#     Edge 21, Type (0, 0), BuildingBlock: XUDNAN_clean_linker_2, # of connection points: 2
#     Edge 22, Type (0, 0), BuildingBlock: XUDNAN_clean_linker_2, # of connection points: 2
#     Edge 23, Type (0, 0), BuildingBlock: XUDNAN_clean_linker_2, # of connection points: 2
#     Edge 24, Type (0, 0), BuildingBlock: XUDNAN_clean_linker_2, # of connection points: 2
#     Edge 25, Type (0, 0), BuildingBlock: XUDNAN_clean_linker_2, # of connection points: 2
#     Edge 26, Type (0, 0), BuildingBlock: XUDNAN_clean_linker_2, # of connection points: 2
#     Edge 27, Type (0, 0), BuildingBlock: XUDNAN_clean_linker_2, # of connection points: 2
#     Edge 28, Type (0, 0), BuildingBlock: XUDNAN_clean_linker_2, # of connection points: 2
#     Edge 29, Type (0, 0), BuildingBlock: XUDNAN_clean_linker_2, # of connection points: 2
#     Edge 30, Type (0, 0), BuildingBlock: XUDNAN_clean_linker_2, # of connection points: 2
#     Edge 31, Type (0, 0), BuildingBlock: XUDNAN_clean_linker_2, # of connection points: 2
#     Edge 32, Type (0, 0), BuildingBlock: XUDNAN_clean_linker_2, # of connection points: 2
#     Edge 33, Type (0, 0), BuildingBlock: XUDNAN_clean_linker_2, # of connection points: 2
#     Edge 34, Type (0, 0), BuildingBlock: XUDNAN_clean_linker_2, # of connection points: 2
#     Edge 35, Type (0, 0), BuildingBlock: XUDNAN_clean_linker_2, # of connection points: 2
#     Edge 36, Type (0, 0), BuildingBlock: XUDNAN_clean_linker_2, # of connection points: 2
#     Edge 37, Type (0, 0), BuildingBlock: XUDNAN_clean_linker_2, # of connection points: 2
#     Edge 38, Type (0, 0), BuildingBlock: XUDNAN_clean_linker_2, # of connection points: 2
#     Edge 39, Type (0, 0), BuildingBlock: XUDNAN_clean_linker_2, # of connection points: 2
#     Edge 40, Type (0, 0), BuildingBlock: XUDNAN_clean_linker_2, # of connection points: 2
#     Edge 41, Type (0, 0), BuildingBlock: XUDNAN_clean_linker_2, # of connection points: 2
#     Edge 42, Type (0, 0), BuildingBlock: XUDNAN_clean_linker_2, # of connection points: 2
#     Edge 43, Type (0, 0), BuildingBlock: XUDNAN_clean_linker_2, # of connection points: 2
#     Edge 44, Type (0, 0), BuildingBlock: XUDNAN_clean_linker_2, # of connection points: 2
#     Edge 45, Type (0, 0), BuildingBlock: XUDNAN_clean_linker_2, # of connection points: 2
#     Edge 46, Type (0, 0), BuildingBlock: XUDNAN_clean_linker_2, # of connection points: 2
#     Edge 47, Type (0, 0), BuildingBlock: XUDNAN_clean_linker_2, # of connection points: 2
#     Edge 48, Type (0, 0), BuildingBlock: XUDNAN_clean_linker_2, # of connection points: 2
#     Edge 49, Type (0, 0), BuildingBlock: XUDNAN_clean_linker_2, # of connection points: 2
#     Edge 50, Type (0, 0), BuildingBlock: XUDNAN_clean_linker_2, # of connection points: 2
#     Edge 51, Type (0, 0), BuildingBlock: XUDNAN_clean_linker_2, # of connection points: 2
#     Edge 52, Type (0, 0), BuildingBlock: XUDNAN_clean_linker_2, # of connection points: 2
#     Edge 53, Type (0, 0), BuildingBlock: XUDNAN_clean_linker_2, # of connection points: 2
#     Edge 54, Type (0, 0), BuildingBlock: XUDNAN_clean_linker_2, # of connection points: 2
#     Edge 55, Type (0, 0), BuildingBlock: XUDNAN_clean_linker_2, # of connection points: 2
#     Edge 56, Type (0, 0), BuildingBlock: XUDNAN_clean_linker_2, # of connection points: 2
#     Edge 57, Type (0, 0), BuildingBlock: XUDNAN_clean_linker_2, # of connection points: 2
#     Edge 58, Type (0, 0), BuildingBlock: XUDNAN_clean_linker_2, # of connection points: 2
#     Edge 59, Type (0, 0), BuildingBlock: XUDNAN_clean_linker_2, # of connection points: 2
#     Edge 60, Type (0, 0), BuildingBlock: XUDNAN_clean_linker_2, # of connection points: 2
#     Edge 61, Type (0, 0), BuildingBlock: XUDNAN_clean_linker_2, # of connection points: 2
#     Edge 62, Type (0, 0), BuildingBlock: XUDNAN_clean_linker_2, # of connection points: 2
#     Edge 63, Type (0, 0), BuildingBlock: XUDNAN_clean_linker_2, # of connection points: 2
# Relax obj value: 0.150
# Max RMSD: 0.233
# Mean RMSD: 0.209
data_MOF--net-snl--node1-PAMTOO_clean_sbu_0--edge1-XUDNAN_clean_linker_2
_symmetry_space_group_name_H-M    P1
_symmetry_Int_Tables_number       1
_symmetry_cell_setting            triclinic
loop_
_symmetry_equiv_pos_as_xyz
'x, y, z'
_cell_length_a     56.823029
_cell_length_b     57.733181
_cell_length_c     25.845858
_cell_angle_alpha  87.918852
_cell_angle_beta   91.90932
_cell_angle_gamma 90.13975
loop_
_atom_site_label
_atom_site_type_symbol
_atom_site_fract_x
_atom_site_fract_y
_atom_site_fract_z
_atom_type_partial_charge
Dy0 Dy 0.14507 0.63828 0.04066 0.0
Dy1 Dy 0.13931 0.61461 0.15939 0.0
C2 C 0.09468 0.62775 0.08694 0.0
O3 O 0.13464 0.66753 0.08821 0.0
O4 O 0.1439 0.65288 0.17069 0.0
O5 O 0.13312 0.65952 0.9745 0.0
O6 O 0.16724 0.64276 0.97457 0.0
O7 O 0.17536 0.60952 0.13078 0.0
O8 O 0.17745 0.64459 0.09027 0.0
O9 O 0.13166 0.58549 0.10614 0.0
O10 O 0.14885 0.60033 0.0323 0.0
O11 O 0.15696 0.60603 0.23261 0.0
O12 O 0.1204 0.59622 0.21995 0.0
C13 C 0.1385 0.67031 0.13803 0.0
O14 O 0.10764 0.62632 0.04589 0.0
O15 O 0.10423 0.62887 0.13385 0.0
C16 C 0.14652 0.64724 0.89408 0.0
C17 C 0.13828 0.63293 0.79139 0.0
C18 C 0.1241 0.62465 0.83184 0.0
C19 C 0.12824 0.63165 0.88267 0.0
C20 C 0.16062 0.65563 0.85404 0.0
C21 C 0.15659 0.64855 0.80326 0.0
C22 C 0.15136 0.65466 0.94744 0.0
C23 C 0.18764 0.6279 0.1184 0.0
C24 C 0.13891 0.58334 0.05871 0.0
C25 C 0.13347 0.6026 0.30749 0.0
C26 C 0.128 0.60688 0.41544 0.0
C27 C 0.14635 0.61851 0.38997 0.0
C28 C 0.14908 0.61636 0.33667 0.0
C29 C 0.11459 0.59178 0.33248 0.0
C30 C 0.11182 0.59396 0.3857 0.0
C31 C 0.13819 0.59705 0.25315 0.0
H32 H 0.10965 0.61286 0.82425 0.0
H33 H 0.11717 0.62489 0.91306 0.0
H34 H 0.17492 0.66755 0.86214 0.0
H35 H 0.16814 0.65501 0.77352 0.0
H36 H 0.15927 0.62842 0.41157 0.0
H37 H 0.16395 0.62483 0.31881 0.0
H38 H 0.10237 0.58096 0.31116 0.0
H39 H 0.09724 0.5851 0.40375 0.0
Dy40 Dy 0.62813 0.89316 0.32304 0.0
Dy41 Dy 0.65303 0.88068 0.44139 0.0
C42 C 0.64294 0.84115 0.35822 0.0
O43 O 0.59936 0.87871 0.37086 0.0
O44 O 0.61443 0.88582 0.45287 0.0
O45 O 0.60914 0.88396 0.25263 0.0
O46 O 0.62292 0.9187 0.26001 0.0
O47 O 0.65195 0.91905 0.4275 0.0
O48 O 0.61858 0.92168 0.37542 0.0
O49 O 0.68106 0.87604 0.38284 0.0
O50 O 0.66563 0.90361 0.32641 0.0
O51 O 0.67847 0.88864 0.50265 0.0
O52 O 0.65434 0.85995 0.51301 0.0
C53 C 0.5968 0.88058 0.42097 0.0
O54 O 0.64161 0.85678 0.31982 0.0
O55 O 0.64383 0.8468 0.40712 0.0
C56 C 0.62006 0.9044 0.17457 0.0
C57 C 0.63217 0.90613 0.06845 0.0
C58 C 0.63748 0.88644 0.10058 0.0
C59 C 0.63156 0.88561 0.15312 0.0
C60 C 0.6147 0.92394 0.14253 0.0
C61 C 0.62066 0.92482 0.09034 0.0
C62 C 0.61266 0.90404 0.22932 0.0
C63 C 0.63334 0.93058 0.40969 0.0
C64 C 0.6827 0.88943 0.34079 0.0
C65 C 0.66645 0.8793 0.58887 0.0
C66 C 0.65953 0.89086 0.69342 0.0
C67 C 0.65381 0.90671 0.65202 0.0
C68 C 0.65718 0.90099 0.60038 0.0
C69 C 0.67189 0.86338 0.62988 0.0
C70 C 0.66847 0.86904 0.68144 0.0
C71 C 0.67049 0.87274 0.53481 0.0
H72 H 0.64651 0.8718 0.08532 0.0
H73 H 0.63597 0.87029 0.17687 0.0
H74 H 0.60567 0.93858 0.15785 0.0
H75 H 0.61591 0.94013 0.06688 0.0
H76 H 0.64656 0.92355 0.65945 0.0
H77 H 0.65259 0.91352 0.56949 0.0
H78 H 0.67901 0.84652 0.62201 0.0
H79 H 0.67334 0.85646 0.712 0.0
Dy80 Dy 0.36657 0.37088 0.5728 0.0
Dy81 Dy 0.3844 0.38745 0.69017 0.0
C82 C 0.42156 0.3754 0.60479 0.0
O83 O 0.36077 0.34051 0.62588 0.0
O84 O 0.38748 0.34856 0.69176 0.0
O85 O 0.36417 0.34606 0.51226 0.0
O86 O 0.34614 0.37905 0.50231 0.0
O87 O 0.34749 0.37564 0.69729 0.0
O88 O 0.3354 0.38453 0.61376 0.0
O89 O 0.37652 0.41979 0.64035 0.0
O90 O 0.3839 0.40492 0.56149 0.0
O91 O 0.37803 0.40756 0.75726 0.0
O92 O 0.41022 0.38764 0.75362 0.0
C93 C 0.37429 0.33384 0.66581 0.0
O94 O 0.40545 0.36368 0.57877 0.0
O95 O 0.41612 0.38909 0.64209 0.0
C96 C 0.35921 0.36188 0.42658 0.0
C97 C 0.37253 0.36408 0.32193 0.0
C98 C 0.38954 0.3659 0.36256 0.0
C99 C 0.38294 0.36485 0.41439 0.0
C100 C 0.34218 0.36043 0.3863 0.0
C101 C 0.34873 0.36155 0.33452 0.0
C102 C 0.35183 0.35985 0.48077 0.0
C103 C 0.3307 0.38049 0.66282 0.0
C104 C 0.38184 0.42259 0.59124 0.0
C105 C 0.39581 0.39335 0.83741 0.0
C106 C 0.39457 0.38152 0.94469 0.0
C107 C 0.37373 0.38191 0.91358 0.0
C108 C 0.37434 0.38769 0.86038 0.0
C109 C 0.41653 0.39303 0.86844 0.0
C110 C 0.41595 0.38717 0.92133 0.0
C111 C 0.39725 0.40044 0.78194 0.0
H112 H 0.40798 0.36819 0.35432 0.0
H113 H 0.39637 0.36619 0.44492 0.0
H114 H 0.32377 0.35814 0.39493 0.0
H115 H 0.3352 0.35983 0.3044 0.0
H116 H 0.35699 0.37747 0.93022 0.0
H117 H 0.35805 0.38779 0.83738 0.0
H118 H 0.43326 0.39752 0.85177 0.0
H119 H 0.43229 0.38744 0.94413 0.0
Dy120 Dy 0.88353 0.11863 0.8505 0.0
Dy121 Dy 0.86825 0.13178 0.96803 0.0
C122 C 0.87619 0.17107 0.87951 0.0
O123 O 0.91617 0.13007 0.89229 0.0
O124 O 0.90666 0.12288 0.97716 0.0
O125 O 0.90222 0.12624 0.78053 0.0
O126 O 0.88283 0.09407 0.78922 0.0
O127 O 0.86616 0.09303 0.96669 0.0
O128 O 0.89245 0.08798 0.90265 0.0
O129 O 0.83786 0.13966 0.91244 0.0
O130 O 0.84507 0.11178 0.85499 0.0
O131 O 0.84197 0.13017 0.02659 0.0
O132 O 0.87342 0.15112 0.03758 0.0
C133 C 0.92235 0.12687 0.94149 0.0
O134 O 0.87211 0.15589 0.84348 0.0
O135 O 0.88028 0.16438 0.92809 0.0
C136 C 0.88619 0.10998 0.70442 0.0
C137 C 0.87043 0.11444 0.5998 0.0
C138 C 0.86297 0.13017 0.63631 0.0
C139 C 0.87075 0.12793 0.68822 0.0
C140 C 0.89352 0.09418 0.66838 0.0
C141 C 0.88572 0.09636 0.61658 0.0
C142 C 0.89503 0.10743 0.75843 0.0
C143 C 0.8803 0.07972 0.94163 0.0
C144 C 0.83063 0.12624 0.87523 0.0
C145 C 0.85305 0.13937 0.11281 0.0
C146 C 0.85008 0.1315 0.22071 0.0
C147 C 0.86185 0.11559 0.19058 0.0
C148 C 0.86326 0.11947 0.13681 0.0
C149 C 0.84167 0.15534 0.14283 0.0
C150 C 0.84019 0.15148 0.19616 0.0
C151 C 0.85356 0.14418 0.0567 0.0
H152 H 0.85142 0.14445 0.62466 0.0
H153 H 0.86486 0.14028 0.71559 0.0
H154 H 0.90534 0.08014 0.68032 0.0
H155 H 0.89151 0.08372 0.58979 0.0
H156 H 0.86958 0.10001 0.20841 0.0
H157 H 0.87212 0.10696 0.11405 0.0
H158 H 0.83382 0.17087 0.12491 0.0
H159 H 0.83142 0.16429 0.21829 0.0
Dy160 Dy 0.12683 0.39043 0.82618 0.0
Dy161 Dy 0.15137 0.37922 0.94476 0.0
C162 C 0.14232 0.33952 0.86346 0.0
O163 O 0.09791 0.37692 0.8752 0.0
O164 O 0.11298 0.38551 0.95627 0.0
O165 O 0.10884 0.37911 0.75619 0.0
O166 O 0.12005 0.41478 0.76174 0.0
O167 O 0.14855 0.41758 0.93507 0.0
O168 O 0.1184 0.42097 0.87332 0.0
O169 O 0.18008 0.37627 0.88667 0.0
O170 O 0.1637 0.40274 0.82876 0.0
O171 O 0.17708 0.38649 1.00586 0.0
O172 O 0.15254 0.35807 1.01577 0.0
C173 C 0.09526 0.37997 0.92492 0.0
O174 O 0.14303 0.35507 0.82511 0.0
O175 O 0.14057 0.34561 0.91161 0.0
C176 C 0.1192 0.39947 0.67736 0.0
C177 C 0.1324 0.40134 0.57204 0.0
C178 C 0.13326 0.38029 0.60142 0.0
C179 C 0.12679 0.37936 0.65353 0.0
C180 C 0.11825 0.42039 0.64794 0.0
C181 C 0.12478 0.42134 0.59616 0.0
C182 C 0.1112 0.3991 0.73167 0.0
C183 C 0.1318 0.42964 0.91046 0.0
C184 C 0.18156 0.38989 0.84486 0.0
C185 C 0.16504 0.37696 0.09195 0.0
C186 C 0.15913 0.38806 0.19697 0.0
C187 C 0.15681 0.40523 0.15685 0.0
C188 C 0.15967 0.39973 0.10493 0.0
C189 C 0.16702 0.35977 0.13172 0.0
C190 C 0.16407 0.36521 0.18353 0.0
C191 C 0.16887 0.3706 0.03773 0.0
H192 H 0.13921 0.36458 0.58434 0.0
H193 H 0.12768 0.36291 0.67499 0.0
H194 H 0.1122 0.4361 0.66496 0.0
H195 H 0.12348 0.43779 0.57473 0.0
H196 H 0.15269 0.42294 0.16552 0.0
H197 H 0.1578 0.41332 0.07504 0.0
H198 H 0.17113 0.34208 0.12271 0.0
H199 H 0.16625 0.35158 0.2132 0.0
Dy200 Dy 0.88086 0.88334 0.17804 0.0
Dy201 Dy 0.86483 0.86473 0.06085 0.0
C202 C 0.87475 0.82872 0.15608 0.0
O203 O 0.91264 0.88679 0.13091 0.0
O204 O 0.90424 0.86126 0.0663 0.0
O205 O 0.90462 0.88405 0.24533 0.0
O206 O 0.87374 0.90619 0.23989 0.0
O207 O 0.87899 0.90012 0.04782 0.0
O208 O 0.87123 0.91476 0.12668 0.0
O209 O 0.83273 0.87673 0.10122 0.0
O210 O 0.84495 0.86912 0.18512 0.0
O211 O 0.84141 0.86917 0.99385 0.0
O212 O 0.86688 0.84131 0.99739 0.0
C213 C 0.91924 0.87394 0.09311 0.0
O214 O 0.88613 0.84467 0.18241 0.0
O215 O 0.86188 0.83381 0.11404 0.0
C216 C 0.88903 0.89636 0.32426 0.0
C217 C 0.88172 0.89427 0.43202 0.0
C218 C 0.87035 0.87844 0.39926 0.0
C219 C 0.87387 0.87956 0.34561 0.0
C220 C 0.90087 0.91161 0.35705 0.0
C221 C 0.89727 0.91061 0.41025 0.0
C222 C 0.89211 0.89941 0.26802 0.0
C223 C 0.8763 0.91776 0.0775 0.0
C224 C 0.82808 0.87278 0.15031 0.0
C225 C 0.85654 0.8581 0.91459 0.0
C226 C 0.86348 0.87061 0.80929 0.0
C227 C 0.87376 0.88367 0.84921 0.0
C228 C 0.87032 0.87747 0.90133 0.0
C229 C 0.84685 0.84463 0.87513 0.0
C230 C 0.85031 0.85077 0.82298 0.0
C231 C 0.85096 0.85253 0.96898 0.0
H232 H 0.8582 0.86572 0.41487 0.0
H233 H 0.8645 0.86767 0.32079 0.0
H234 H 0.91265 0.92466 0.34132 0.0
H235 H 0.90658 0.92281 0.43441 0.0
H236 H 0.88431 0.89883 0.84017 0.0
H237 H 0.87803 0.88807 0.93125 0.0
H238 H 0.83609 0.82964 0.88462 0.0
H239 H 0.84196 0.84044 0.7934 0.0
Dy240 Dy 0.384 0.61546 0.32664 0.0
Dy241 Dy 0.36512 0.62591 0.44376 0.0
C242 C 0.37839 0.6667 0.36577 0.0
O243 O 0.41655 0.6224 0.37364 0.0
O244 O 0.40415 0.62192 0.45818 0.0
O245 O 0.40543 0.62489 0.26195 0.0
O246 O 0.38361 0.59406 0.25954 0.0
O247 O 0.36059 0.58824 0.42883 0.0
O248 O 0.39188 0.58418 0.37738 0.0
O249 O 0.33531 0.63382 0.38669 0.0
O250 O 0.34529 0.60903 0.32401 0.0
O251 O 0.35481 0.61213 0.51811 0.0
O252 O 0.34982 0.64866 0.49875 0.0
C253 C 0.42089 0.62246 0.42395 0.0
O254 O 0.3737 0.65292 0.32729 0.0
O255 O 0.38171 0.65836 0.41338 0.0
C256 C 0.39132 0.61369 0.17987 0.0
C257 C 0.38178 0.62647 0.07481 0.0
C258 C 0.36958 0.63698 0.11433 0.0
C259 C 0.37431 0.63063 0.16647 0.0
C260 C 0.40318 0.60289 0.14072 0.0
C261 C 0.39847 0.60918 0.0887 0.0
C262 C 0.39782 0.6078 0.23426 0.0
C263 C 0.37755 0.57552 0.41179 0.0
C264 C 0.32993 0.62244 0.34479 0.0
C265 C 0.35542 0.63765 0.58817 0.0
C266 C 0.36385 0.64453 0.69493 0.0
C267 C 0.37752 0.6287 0.66871 0.0
C268 C 0.37339 0.62532 0.61582 0.0
C269 C 0.34231 0.65398 0.61387 0.0
C270 C 0.3465 0.65745 0.66664 0.0
C271 C 0.34843 0.6322 0.53442 0.0
H272 H 0.35642 0.65014 0.10497 0.0
H273 H 0.36496 0.63913 0.19631 0.0
H274 H 0.41645 0.58986 0.15044 0.0
H275 H 0.40842 0.60095 0.05944 0.0
H276 H 0.39124 0.61873 0.68923 0.0
H277 H 0.38383 0.61264 0.59696 0.0
H278 H 0.32825 0.66354 0.59345 0.0
H279 H 0.33551 0.6696 0.68571 0.0
Dy280 Dy 0.64449 0.12541 0.57859 0.0
Dy281 Dy 0.62917 0.108 0.69664 0.0
C282 C 0.5904 0.11992 0.60669 0.0
O283 O 0.63414 0.15744 0.61768 0.0
O284 O 0.63814 0.14565 0.70381 0.0
O285 O 0.63848 0.14428 0.50567 0.0
O286 O 0.67104 0.1252 0.52049 0.0
O287 O 0.66819 0.10444 0.69279 0.0
O288 O 0.67414 0.13405 0.63381 0.0
O289 O 0.61969 0.07961 0.64266 0.0
O290 O 0.64899 0.08703 0.58613 0.0
O291 O 0.63243 0.08251 0.75985 0.0
O292 O 0.60867 0.11155 0.76491 0.0
C293 C 0.63592 0.16204 0.66715 0.0
O294 O 0.60593 0.11683 0.57086 0.0
O295 O 0.59671 0.12141 0.65579 0.0
C296 C 0.65832 0.13087 0.43214 0.0
C297 C 0.66011 0.12433 0.3243 0.0
C298 C 0.63833 0.12583 0.34835 0.0
C299 C 0.63743 0.12914 0.40175 0.0
C300 C 0.68 0.1284 0.40848 0.0
C301 C 0.6809 0.1251 0.3553 0.0
C302 C 0.65829 0.13756 0.48691 0.0
C303 C 0.68171 0.1206 0.67282 0.0
C304 C 0.63302 0.07307 0.60534 0.0
C305 C 0.62646 0.09714 0.84329 0.0
C306 C 0.6406 0.10484 0.94731 0.0
C307 C 0.65742 0.10328 0.90869 0.0
C308 C 0.65042 0.09957 0.85716 0.0
C309 C 0.60968 0.09847 0.88162 0.0
C310 C 0.61663 0.10232 0.93302 0.0
C311 C 0.61844 0.0937 0.78922 0.0
H312 H 0.62199 0.12545 0.3256 0.0
H313 H 0.62042 0.13106 0.41882 0.0
H314 H 0.69636 0.12973 0.43094 0.0
H315 H 0.69796 0.12359 0.33826 0.0
H316 H 0.67604 0.10482 0.91825 0.0
H317 H 0.66372 0.0987 0.82821 0.0
H318 H 0.5911 0.09678 0.87165 0.0
H319 H 0.60314 0.10381 0.9613 0.0
Dy320 Dy 0.89008 0.39436 0.85378 0.0
Dy321 Dy 0.87013 0.37886 0.96987 0.0
C322 C 0.83617 0.3882 0.87123 0.0
O323 O 0.90074 0.42227 0.90887 0.0
O324 O 0.86931 0.41734 0.96097 0.0
O325 O 0.89141 0.42019 0.7912 0.0
O326 O 0.90998 0.38773 0.78573 0.0
O327 O 0.90924 0.38477 0.98101 0.0
O328 O 0.91994 0.37782 0.89805 0.0
O329 O 0.87901 0.34609 0.93199 0.0
O330 O 0.87636 0.35799 0.846 0.0
O331 O 0.87288 0.35845 0.04181 0.0
O332 O 0.84445 0.38309 0.02869 0.0
C333 C 0.88692 0.42994 0.9444 0.0
O334 O 0.85222 0.40308 0.85657 0.0
O335 O 0.84015 0.37409 0.91169 0.0
C336 C 0.89588 0.40577 0.7064 0.0
C337 C 0.88383 0.40595 0.59886 0.0
C338 C 0.86793 0.41424 0.63457 0.0
C339 C 0.87388 0.41418 0.68768 0.0
C340 C 0.91155 0.39705 0.67101 0.0
C341 C 0.9056 0.39708 0.61795 0.0
C342 C 0.90347 0.40704 0.76178 0.0
C343 C 0.92523 0.37949 0.94755 0.0
C344 C 0.87733 0.34144 0.88255 0.0
C345 C 0.85828 0.37599 0.11576 0.0
C346 C 0.86302 0.38916 0.22023 0.0
C347 C 0.86669 0.40538 0.17913 0.0
C348 C 0.86439 0.39886 0.12741 0.0
C349 C 0.85487 0.35975 0.15651 0.0
C350 C 0.85723 0.36622 0.20811 0.0
C351 C 0.85505 0.36865 0.06175 0.0
H352 H 0.85087 0.42089 0.62146 0.0
H353 H 0.86139 0.42104 0.71388 0.0
H354 H 0.92868 0.39061 0.68432 0.0
H355 H 0.91841 0.39081 0.59171 0.0
H356 H 0.87147 0.42312 0.1869 0.0
H357 H 0.86728 0.41168 0.0966 0.0
H358 H 0.85013 0.34203 0.14838 0.0
H359 H 0.85396 0.35333 0.23852 0.0
Dy360 Dy 0.36312 0.12595 0.58422 0.0
Dy361 Dy 0.38169 0.1105 0.70502 0.0
C362 C 0.37684 0.07419 0.6157 0.0
O363 O 0.33457 0.13438 0.6382 0.0
O364 O 0.34271 0.10553 0.69879 0.0
O365 O 0.3361 0.12378 0.52331 0.0
O366 O 0.36706 0.14515 0.51173 0.0
O367 O 0.37243 0.14806 0.70837 0.0
O368 O 0.37457 0.15854 0.62164 0.0
O369 O 0.41355 0.12222 0.663 0.0
O370 O 0.40137 0.11754 0.57798 0.0
O371 O 0.40187 0.11635 0.77577 0.0
O372 O 0.38098 0.08516 0.76881 0.0
C373 C 0.32832 0.12114 0.67775 0.0
O374 O 0.36029 0.08736 0.59371 0.0
O375 O 0.39046 0.08159 0.65369 0.0
C376 C 0.34732 0.13141 0.43626 0.0
C377 C 0.3467 0.12229 0.32918 0.0
C378 C 0.36347 0.11159 0.36367 0.0
C379 C 0.36375 0.11609 0.41683 0.0
C380 C 0.33071 0.1421 0.40204 0.0
C381 C 0.3304 0.13765 0.34924 0.0
C382 C 0.34739 0.13745 0.49131 0.0
C383 C 0.37396 0.16388 0.67066 0.0
C384 C 0.4181 0.12054 0.61363 0.0
C385 C 0.38598 0.10022 0.85252 0.0
C386 C 0.37101 0.10468 0.9552 0.0
C387 C 0.35898 0.11617 0.91309 0.0
C388 C 0.36639 0.11395 0.86228 0.0
C389 C 0.39807 0.08882 0.89419 0.0
C390 C 0.3907 0.09102 0.94497 0.0
C391 C 0.39414 0.09764 0.79941 0.0
H392 H 0.37618 0.09956 0.3497 0.0
H393 H 0.37679 0.1077 0.44264 0.0
H394 H 0.31804 0.15416 0.41613 0.0
H395 H 0.31755 0.1466 0.32395 0.0
H396 H 0.34395 0.12708 0.91941 0.0
H397 H 0.35686 0.12296 0.83062 0.0
H398 H 0.41321 0.0781 0.88743 0.0
H399 H 0.40019 0.08165 0.97612 0.0
Dy400 Dy 0.6323 0.6169 0.3558 0.0
Dy401 Dy 0.64763 0.63574 0.47281 0.0
C402 C 0.68551 0.62513 0.38705 0.0
O403 O 0.64196 0.58545 0.4073 0.0
O404 O 0.63298 0.60061 0.48485 0.0
O405 O 0.64019 0.59607 0.2905 0.0
O406 O 0.60762 0.61547 0.29065 0.0
O407 O 0.60843 0.64067 0.46436 0.0
O408 O 0.60012 0.61394 0.40234 0.0
O409 O 0.65413 0.66513 0.41754 0.0
O410 O 0.62838 0.6558 0.35103 0.0
O411 O 0.64767 0.66177 0.5312 0.0
O412 O 0.66727 0.62981 0.54499 0.0
C413 C 0.63787 0.58283 0.45714 0.0
O414 O 0.66926 0.62909 0.35077 0.0
O415 O 0.68003 0.6223 0.43601 0.0
C416 C 0.62428 0.60996 0.20932 0.0
C417 C 0.62742 0.62386 0.10359 0.0
C418 C 0.6318 0.63977 0.14291 0.0
C419 C 0.63028 0.63288 0.19527 0.0
C420 C 0.62038 0.59394 0.17044 0.0
C421 C 0.62197 0.60078 0.11812 0.0
C422 C 0.62127 0.60261 0.26399 0.0
C423 C 0.59336 0.6278 0.43821 0.0
C424 C 0.64114 0.67109 0.37634 0.0
C425 C 0.65312 0.64831 0.61893 0.0
C426 C 0.64227 0.64768 0.72524 0.0
C427 C 0.63997 0.62746 0.69654 0.0
C428 C 0.64529 0.62777 0.64384 0.0
C429 C 0.6553 0.66845 0.6474 0.0
C430 C 0.64994 0.66817 0.69983 0.0
C431 C 0.66033 0.64911 0.56438 0.0
H432 H 0.63638 0.65758 0.13323 0.0
H433 H 0.63351 0.64549 0.22474 0.0
H434 H 0.61571 0.57618 0.18052 0.0
H435 H 0.61824 0.58813 0.08901 0.0
H436 H 0.6339 0.61143 0.71469 0.0
H437 H 0.64344 0.61196 0.62278 0.0
H438 H 0.6615 0.68443 0.62919 0.0
H439 H 0.65228 0.68398 0.72074 0.0
Dy440 Dy 0.1467 0.88243 0.10275 0.0
Dy441 Dy 0.12283 0.88824 0.21887 0.0
C442 C 0.13147 0.93032 0.14135 0.0
O443 O 0.17634 0.87653 0.1613 0.0
O444 O 0.16096 0.89543 0.22957 0.0
O445 O 0.15517 0.89907 0.02978 0.0
O446 O 0.16592 0.86349 0.04653 0.0
O447 O 0.13621 0.85188 0.21583 0.0
O448 O 0.13253 0.84794 0.12789 0.0
O449 O 0.09276 0.87941 0.16649 0.0
O450 O 0.10784 0.88514 0.08471 0.0
O451 O 0.10145 0.87559 0.28143 0.0
O452 O 0.11846 0.90915 0.28572 0.0
C453 C 0.17846 0.88536 0.20746 0.0
O454 O 0.15005 0.91877 0.12854 0.0
O455 O 0.11531 0.92003 0.169 0.0
C456 C 0.15847 0.87492 0.95765 0.0
C457 C 0.1503 0.86735 0.85077 0.0
C458 C 0.13494 0.8813 0.87776 0.0
C459 C 0.13893 0.885 0.93064 0.0
C460 C 0.17353 0.86065 0.93103 0.0
C461 C 0.16948 0.85684 0.87829 0.0
C462 C 0.16464 0.88054 1.01194 0.0
C463 C 0.13432 0.83883 0.17522 0.0
C464 C 0.09017 0.88159 0.11582 0.0
C465 C 0.11272 0.88821 0.36477 0.0
C466 C 0.12398 0.87784 0.47061 0.0
C467 C 0.13707 0.86816 0.43135 0.0
C468 C 0.13148 0.87329 0.37894 0.0
C469 C 0.09982 0.89811 0.4036 0.0
C470 C 0.10536 0.89299 0.45595 0.0
C471 C 0.10605 0.89337 0.30992 0.0
H472 H 0.11983 0.88939 0.85796 0.0
H473 H 0.12696 0.89608 0.9501 0.0
H474 H 0.18883 0.85287 0.9508 0.0
H475 H 0.18183 0.84622 0.85871 0.0
H476 H 0.15172 0.85667 0.44108 0.0
H477 H 0.14168 0.86549 0.34948 0.0
H478 H 0.08523 0.90963 0.39341 0.0
H479 H 0.09468 0.90053 0.4849 0.0
Dy480 Dy 0.86752 0.61637 0.11721 0.0
Dy481 Dy 0.8934 0.60786 0.23468 0.0
C482 C 0.88722 0.56819 0.15522 0.0
O483 O 0.83881 0.62062 0.17436 0.0
O484 O 0.85587 0.59746 0.23875 0.0
O485 O 0.8533 0.60004 0.04909 0.0
O486 O 0.85203 0.63732 0.05326 0.0
O487 O 0.8791 0.64409 0.23095 0.0
O488 O 0.87961 0.651 0.14284 0.0
O489 O 0.92219 0.62045 0.18481 0.0
O490 O 0.90631 0.61429 0.10284 0.0
O491 O 0.91472 0.61903 0.29996 0.0
O492 O 0.89811 0.58525 0.30317 0.0
C493 C 0.83775 0.60917 0.21926 0.0
O494 O 0.86754 0.57898 0.14234 0.0
O495 O 0.90291 0.57818 0.18548 0.0
C496 C 0.85444 0.6218 0.96862 0.0
C497 C 0.85983 0.62457 0.8595 0.0
C498 C 0.86682 0.60459 0.88884 0.0
C499 C 0.86409 0.60318 0.94267 0.0
C500 C 0.84827 0.64205 0.93961 0.0
C501 C 0.851 0.64346 0.88589 0.0
C502 C 0.84839 0.61956 0.02425 0.0
C503 C 0.87919 0.65849 0.19024 0.0
C504 C 0.9243 0.61895 0.13449 0.0
C505 C 0.90184 0.60502 0.38206 0.0
C506 C 0.88737 0.61257 0.48434 0.0
C507 C 0.88273 0.62911 0.44379 0.0
C508 C 0.88976 0.62535 0.3933 0.0
C509 C 0.90658 0.58851 0.42224 0.0
C510 C 0.89943 0.59219 0.47274 0.0
C511 C 0.90972 0.60084 0.32903 0.0
H512 H 0.87349 0.58962 0.86999 0.0
H513 H 0.8689 0.58721 0.96361 0.0
H514 H 0.84067 0.65664 0.95828 0.0
H515 H 0.84582 0.6593 0.86488 0.0
H516 H 0.87385 0.64519 0.45104 0.0
H517 H 0.88582 0.6384 0.36309 0.0
H518 H 0.91579 0.57266 0.41452 0.0
H519 H 0.90304 0.57887 0.50247 0.0
Dy520 Dy 0.14985 0.13104 0.97125 0.0
Dy521 Dy 0.13189 0.11622 0.8532 0.0
C522 C 0.13589 0.07952 0.94773 0.0
O523 O 0.17935 0.13851 0.9176 0.0
O524 O 0.17063 0.10996 0.86115 0.0
O525 O 0.17582 0.12803 0.03413 0.0
O526 O 0.14589 0.15087 0.0399 0.0
O527 O 0.14315 0.15341 0.84438 0.0
O528 O 0.1386 0.16359 0.92863 0.0
O529 O 0.10006 0.12884 0.89194 0.0
O530 O 0.11145 0.12268 0.97762 0.0
O531 O 0.11334 0.12308 0.7799 0.0
O532 O 0.13073 0.09003 0.79526 0.0
C533 C 0.18551 0.12492 0.88071 0.0
O534 O 0.15244 0.09255 0.96803 0.0
O535 O 0.12239 0.08726 0.90868 0.0
C536 C 0.16206 0.13437 0.1183 0.0
C537 C 0.15884 0.12108 0.22431 0.0
C538 C 0.15529 0.10473 0.18555 0.0
C539 C 0.15683 0.11133 0.13301 0.0
C540 C 0.16535 0.15072 0.15668 0.0
C541 C 0.16374 0.14419 0.20909 0.0
C542 C 0.16449 0.14182 0.06352 0.0
C543 C 0.14088 0.16923 0.87931 0.0
C544 C 0.09502 0.12648 0.94119 0.0
C545 C 0.12724 0.10332 0.70723 0.0
C546 C 0.13975 0.10232 0.60211 0.0
C547 C 0.14136 0.12304 0.62917 0.0
C548 C 0.13523 0.12354 0.68128 0.0
C549 C 0.12576 0.08267 0.68037 0.0
C550 C 0.13195 0.08214 0.62854 0.0
C551 C 0.11927 0.10331 0.76119 0.0
H552 H 0.15119 0.08686 0.1958 0.0
H553 H 0.15406 0.09844 0.10395 0.0
H554 H 0.16941 0.16859 0.1461 0.0
H555 H 0.16687 0.15717 0.23776 0.0
H556 H 0.14752 0.13884 0.61016 0.0
H557 H 0.13657 0.13974 0.70106 0.0
H558 H 0.11946 0.06691 0.69938 0.0
H559 H 0.13014 0.06596 0.60883 0.0
Dy560 Dy 0.64808 0.37073 0.58043 0.0
Dy561 Dy 0.63117 0.38492 0.697 0.0
C562 C 0.64066 0.42292 0.60635 0.0
O563 O 0.68042 0.37974 0.62803 0.0
O564 O 0.6679 0.37247 0.71069 0.0
O565 O 0.66935 0.37805 0.51411 0.0
O566 O 0.64757 0.34722 0.51708 0.0
O567 O 0.62729 0.34629 0.69556 0.0
O568 O 0.65288 0.33891 0.63089 0.0
O569 O 0.60062 0.39103 0.64196 0.0
O570 O 0.60918 0.36475 0.5812 0.0
O571 O 0.60577 0.38354 0.75748 0.0
O572 O 0.63591 0.4066 0.76302 0.0
C573 C 0.68485 0.37578 0.67798 0.0
O574 O 0.63613 0.40751 0.57138 0.0
O575 O 0.64477 0.41657 0.65515 0.0
C576 C 0.6537 0.36463 0.4346 0.0
C577 C 0.63934 0.37205 0.32959 0.0
C578 C 0.63409 0.3884 0.3667 0.0
C579 C 0.64115 0.38469 0.41874 0.0
C580 C 0.65903 0.34833 0.39786 0.0
C581 C 0.65192 0.35197 0.34587 0.0
C582 C 0.66132 0.3603 0.4891 0.0
C583 C 0.6398 0.33185 0.66941 0.0
C584 C 0.59394 0.37741 0.60468 0.0
C585 C 0.61783 0.39546 0.84145 0.0
C586 C 0.61708 0.3901 0.95034 0.0
C587 C 0.62581 0.37226 0.92051 0.0
C588 C 0.62611 0.37489 0.86629 0.0
C589 C 0.60969 0.41339 0.87117 0.0
C590 C 0.60932 0.41077 0.92497 0.0
C591 C 0.61691 0.39894 0.7848 0.0
H592 H 0.62471 0.40419 0.35548 0.0
H593 H 0.63683 0.3975 0.44654 0.0
H594 H 0.66861 0.33268 0.40946 0.0
H595 H 0.65596 0.33886 0.31862 0.0
H596 H 0.63186 0.35611 0.93896 0.0
H597 H 0.63252 0.36088 0.84384 0.0
H598 H 0.60339 0.42945 0.85263 0.0
H599 H 0.60294 0.42501 0.94677 0.0
Dy600 Dy 0.38819 0.88962 0.35431 0.0
Dy601 Dy 0.37301 0.87332 0.47337 0.0
C602 C 0.33466 0.88011 0.38066 0.0
O603 O 0.39689 0.91872 0.40693 0.0
O604 O 0.36825 0.91162 0.46548 0.0
O605 O 0.38743 0.91533 0.29147 0.0
O606 O 0.40831 0.88418 0.2862 0.0
O607 O 0.41122 0.88296 0.47932 0.0
O608 O 0.41977 0.87468 0.39605 0.0
O609 O 0.38243 0.84104 0.43354 0.0
O610 O 0.37621 0.85289 0.34819 0.0
O611 O 0.38037 0.85527 0.54689 0.0
O612 O 0.34694 0.87274 0.53246 0.0
C613 C 0.38338 0.92568 0.44356 0.0
O614 O 0.34922 0.89352 0.35493 0.0
O615 O 0.34159 0.8674 0.4215 0.0
C616 C 0.39293 0.90119 0.20775 0.0
C617 C 0.37918 0.89889 0.10201 0.0
C618 C 0.36244 0.89618 0.1408 0.0
C619 C 0.36927 0.89725 0.19327 0.0
C620 C 0.40966 0.90365 0.16932 0.0
C621 C 0.40289 0.9025 0.117 0.0
C622 C 0.40063 0.90311 0.26239 0.0
C623 C 0.42646 0.87792 0.4443 0.0
C624 C 0.37914 0.83641 0.38432 0.0
C625 C 0.36078 0.86933 0.61992 0.0
C626 C 0.36005 0.88197 0.7246 0.0
C627 C 0.38129 0.88227 0.69799 0.0
C628 C 0.38165 0.87606 0.64606 0.0
C629 C 0.33962 0.86918 0.64635 0.0
C630 C 0.33922 0.87545 0.69799 0.0
C631 C 0.36048 0.86137 0.56619 0.0
H632 H 0.34408 0.8931 0.13063 0.0
H633 H 0.35609 0.89514 0.22243 0.0
H634 H 0.42801 0.90671 0.1798 0.0
H635 H 0.41619 0.90495 0.08822 0.0
H636 H 0.39759 0.88741 0.71722 0.0
H637 H 0.39824 0.87636 0.62659 0.0
H638 H 0.32334 0.86386 0.62715 0.0
H639 H 0.32263 0.87467 0.71743 0.0
H640 H 0.14235 0.65824 0.6991 0.0
H641 H 0.12562 0.58939 0.76085 0.0
H642 H 0.11954 0.57594 0.67199 0.0
H643 H 0.10116 0.65866 0.58938 0.0
H644 H 0.12089 0.6737 0.54647 0.0
H645 H 0.12292 0.67832 0.61504 0.0
H646 H 0.16697 0.66676 0.61708 0.0
H647 H 0.16509 0.66214 0.54853 0.0
H648 H 0.17534 0.63919 0.59274 0.0
H649 H 0.11644 0.56951 0.57646 0.0
H650 H 0.11719 0.57035 0.48116 0.0
H651 H 0.13641 0.64321 0.48071 0.0
C652 C 0.13752 0.64029 0.69409 0.0
C653 C 0.13433 0.62495 0.73739 0.0
C654 C 0.12773 0.60167 0.72867 0.0
C655 C 0.12438 0.59379 0.67822 0.0
C656 C 0.12773 0.60934 0.63661 0.0
C657 C 0.13419 0.63209 0.64394 0.0
C658 C 0.13721 0.64509 0.59248 0.0
C659 C 0.11948 0.66513 0.58544 0.0
C660 C 0.16267 0.6538 0.58742 0.0
C661 C 0.13163 0.62603 0.55509 0.0
C662 C 0.12608 0.60559 0.58141 0.0
C663 C 0.12059 0.58547 0.55542 0.0
C664 C 0.12089 0.58619 0.50113 0.0
C665 C 0.12666 0.60689 0.47307 0.0
C666 C 0.13202 0.62707 0.50078 0.0
H667 H 0.62925 0.87203 0.99509 0.0
H668 H 0.6501 0.94364 1.01481 0.0
H669 H 0.65915 0.94734 0.9223 0.0
H670 H 0.67419 0.85856 0.9031 0.0
H671 H 0.65497 0.84038 0.86527 0.0
H672 H 0.65042 0.8431 0.93344 0.0
H673 H 0.60741 0.85605 0.91299 0.0
H674 H 0.61186 0.85345 0.84477 0.0
H675 H 0.60176 0.88047 0.86889 0.0
H676 H 0.66528 0.94378 0.82697 0.0
H677 H 0.66903 0.93286 0.73629 0.0
H678 H 0.64435 0.8635 0.77669 0.0
C679 C 0.63598 0.88841 0.98012 0.0
C680 C 0.63876 0.9076 1.01262 0.0
C681 C 0.64739 0.92878 0.99093 0.0
C682 C 0.65273 0.93103 0.93831 0.0
C683 C 0.64946 0.91196 0.90733 0.0
C684 C 0.64139 0.891 0.92737 0.0
C685 C 0.63922 0.87332 0.88521 0.0
C686 C 0.65568 0.85262 0.8975 0.0
C687 C 0.61353 0.86536 0.87752 0.0
C688 C 0.64729 0.88764 0.83846 0.0
C689 C 0.65308 0.90988 0.85219 0.0
C690 C 0.66077 0.9264 0.8158 0.0
C691 C 0.66266 0.92005 0.76412 0.0
C692 C 0.65692 0.89732 0.74875 0.0
C693 C 0.64913 0.88096 0.78688 0.0
H694 H 0.35047 0.38556 0.23616 0.0
H695 H 0.4105 0.34234 0.28257 0.0
H696 H 0.42208 0.34159 0.19149 0.0
H697 H 0.33646 0.35764 0.11602 0.0
H698 H 0.32837 0.38421 0.08122 0.0
H699 H 0.32474 0.38149 0.15016 0.0
H700 H 0.35025 0.41821 0.1631 0.0
H701 H 0.35389 0.42109 0.09421 0.0
H702 H 0.37939 0.41951 0.13758 0.0
H703 H 0.42709 0.34525 0.09541 0.0
H704 H 0.42591 0.35401 1.00126 0.0
H705 H 0.36269 0.39496 1.0164 0.0
C706 C 0.36597 0.3758 0.22717 0.0
C707 C 0.37961 0.36405 0.2668 0.0
C708 C 0.39994 0.35177 0.25323 0.0
C709 C 0.40657 0.35109 0.20147 0.0
C710 C 0.39272 0.36279 0.16349 0.0
C711 C 0.37289 0.37498 0.17564 0.0
C712 C 0.36127 0.38631 0.1274 0.0
C713 C 0.33623 0.37684 0.11817 0.0
C714 C 0.36121 0.41285 0.13079 0.0
C715 C 0.37768 0.37857 0.08624 0.0
C716 C 0.39567 0.36497 0.10797 0.0
C717 C 0.41313 0.35594 0.078 0.0
C718 C 0.41236 0.36112 0.02452 0.0
C719 C 0.39429 0.37528 1.00125 0.0
C720 C 0.37661 0.3839 0.03276 0.0
H721 H 0.89634 0.10817 0.51326 0.0
H722 H 0.82637 0.12629 0.56086 0.0
H723 H 0.81323 0.13095 0.46909 0.0
H724 H 0.89864 0.14764 0.40534 0.0
H725 H 0.91403 0.12821 0.36519 0.0
H726 H 0.91774 0.12559 0.43459 0.0
H727 H 0.90493 0.08252 0.43249 0.0
H728 H 0.90114 0.08502 0.363 0.0
H729 H 0.87709 0.07511 0.40185 0.0
H730 H 0.80793 0.13453 0.37248 0.0
H731 H 0.81101 0.1377 0.27751 0.0
H732 H 0.88432 0.11684 0.29243 0.0
C733 C 0.87816 0.1128 0.50449 0.0
C734 C 0.86239 0.11687 0.54444 0.0
C735 C 0.83887 0.12335 0.53107 0.0
C736 C 0.83118 0.12586 0.47903 0.0
C737 C 0.84718 0.12172 0.44074 0.0
C738 C 0.87017 0.11531 0.45277 0.0
C739 C 0.88398 0.11246 0.40421 0.0
C740 C 0.90482 0.1295 0.40223 0.0
C741 C 0.89227 0.08728 0.40016 0.0
C742 C 0.86525 0.11863 0.36295 0.0
C743 C 0.84412 0.12376 0.38491 0.0
C744 C 0.82436 0.1305 0.35485 0.0
C745 C 0.82633 0.13236 0.30095 0.0
C746 C 0.84792 0.12759 0.27753 0.0
C747 C 0.86751 0.12032 0.3091 0.0
H748 H 0.13774 0.36303 0.27614 0.0
H749 H 0.17646 0.4266 0.24443 0.0
H750 H 0.17423 0.43644 0.33622 0.0
H751 H 0.09869 0.38659 0.36812 0.0
H752 H 0.09865 0.36075 0.40941 0.0
H753 H 0.10321 0.35865 0.3411 0.0
H754 H 0.14238 0.33683 0.36151 0.0
H755 H 0.13798 0.33893 0.42989 0.0
H756 H 0.16471 0.34988 0.40228 0.0
H757 H 0.1683 0.4393 0.43185 0.0
H758 H 0.15804 0.43559 0.52371 0.0
H759 H 0.1229 0.37027 0.49451 0.0
C760 C 0.14587 0.37897 0.28849 0.0
C761 C 0.15723 0.39407 0.25262 0.0
C762 C 0.16735 0.41489 0.27063 0.0
C763 C 0.16633 0.42056 0.32292 0.0
C764 C 0.15509 0.40529 0.35711 0.0
C765 C 0.14495 0.38496 0.34066 0.0
C766 C 0.13368 0.37173 0.38539 0.0
C767 C 0.10698 0.36929 0.3754 0.0
C768 C 0.14539 0.34793 0.39534 0.0
C769 C 0.13916 0.38776 0.42957 0.0
C770 C 0.15155 0.407 0.41231 0.0
C771 C 0.1585 0.42435 0.44569 0.0
C772 C 0.15246 0.42213 0.49789 0.0
C773 C 0.13949 0.40273 0.51666 0.0
C774 C 0.13299 0.38523 0.48176 0.0
H775 H 0.8705 0.84387 0.72424 0.0
H776 H 0.86052 0.91494 0.76845 0.0
H777 H 0.86318 0.92821 0.67715 0.0
H778 H 0.91223 0.85645 0.62535 0.0
H779 H 0.90087 0.8349 0.58236 0.0
H780 H 0.89806 0.83079 0.65129 0.0
H781 H 0.85294 0.82604 0.63817 0.0
H782 H 0.85561 0.83021 0.56918 0.0
H783 H 0.83623 0.84849 0.60346 0.0
H784 H 0.867 0.93404 0.58173 0.0
H785 H 0.87272 0.9322 0.48785 0.0
H786 H 0.87991 0.85744 0.50357 0.0
C787 C 0.86873 0.86221 0.71469 0.0
C788 C 0.86545 0.87837 0.75384 0.0
C789 C 0.86347 0.90224 0.73954 0.0
C790 C 0.86475 0.90995 0.68764 0.0
C791 C 0.86799 0.89362 0.65017 0.0
C792 C 0.87001 0.87025 0.66289 0.0
C793 C 0.87376 0.85643 0.61491 0.0
C794 C 0.89765 0.84391 0.61872 0.0
C795 C 0.85342 0.83928 0.60591 0.0
C796 C 0.87356 0.8757 0.57332 0.0
C797 C 0.87017 0.89699 0.59469 0.0
C798 C 0.8697 0.91748 0.56456 0.0
C799 C 0.87307 0.91626 0.51127 0.0
C800 C 0.8769 0.89471 0.48832 0.0
C801 C 0.87684 0.87413 0.51987 0.0
H802 H 0.37013 0.60972 0.76931 0.0
H803 H 0.36403 0.68446 0.7496 0.0
H804 H 0.36719 0.68801 0.84462 0.0
H805 H 0.3363 0.60379 0.88323 0.0
H806 H 0.35446 0.5811 0.91289 0.0
H807 H 0.35201 0.58448 0.84338 0.0
H808 H 0.3974 0.58787 0.83902 0.0
H809 H 0.39999 0.58437 0.9085 0.0
H810 H 0.41273 0.60936 0.87624 0.0
H811 H 0.37085 0.68328 0.94215 0.0
H812 H 0.37576 0.67076 0.03428 0.0
H813 H 0.37907 0.59907 0.98984 0.0
C814 C 0.36978 0.62687 0.78488 0.0
C815 C 0.36688 0.64683 0.75193 0.0
C816 C 0.36604 0.66891 0.77406 0.0
C817 C 0.36789 0.6711 0.82797 0.0
C818 C 0.37053 0.65105 0.85929 0.0
C819 C 0.37153 0.62936 0.83854 0.0
C820 C 0.37426 0.61053 0.88065 0.0
C821 C 0.35299 0.594 0.87998 0.0
C822 C 0.39748 0.59726 0.8758 0.0
C823 C 0.37479 0.62501 0.92837 0.0
C824 C 0.37254 0.64833 0.91527 0.0
C825 C 0.37256 0.66505 0.95284 0.0
C826 C 0.37519 0.65775 1.00513 0.0
C827 C 0.37777 0.63393 1.01945 0.0
C828 C 0.3774 0.61742 0.98028 0.0
H829 H 0.62163 0.0872 0.03771 0.0
H830 H 0.67586 0.13385 0.98093 0.0
H831 H 0.68742 0.14269 0.07082 0.0
H832 H 0.60397 0.12268 0.14039 0.0
H833 H 0.59865 0.09862 0.18488 0.0
H834 H 0.59535 0.09492 0.11613 0.0
H835 H 0.625 0.06083 0.12306 0.0
H836 H 0.62838 0.06441 0.19187 0.0
H837 H 0.65386 0.06527 0.15214 0.0
H838 H 0.69242 0.14746 0.16651 0.0
H839 H 0.69036 0.14807 0.26153 0.0
H840 H 0.6324 0.09896 0.25686 0.0
C841 C 0.63589 0.09935 0.04402 0.0
C842 C 0.6479 0.1097 1.00189 0.0
C843 C 0.66664 0.12531 1.01228 0.0
C844 C 0.67325 0.13059 0.06329 0.0
C845 C 0.66095 0.12019 0.10371 0.0
C846 C 0.64265 0.10492 0.09473 0.0
C847 C 0.63199 0.09655 0.14513 0.0
C848 C 0.60595 0.10362 0.14671 0.0
C849 C 0.63499 0.0702 0.15353 0.0
C850 C 0.64703 0.10967 0.18382 0.0
C851 C 0.6637 0.1231 0.15904 0.0
C852 C 0.67954 0.13689 0.18636 0.0
C853 C 0.67831 0.137 0.24043 0.0
C854 C 0.66135 0.12343 0.26689 0.0
C855 C 0.6455 0.10961 0.2379 0.0
H856 H 0.8821 0.36463 0.30538 0.0
H857 H 0.84728 0.42948 0.26049 0.0
H858 H 0.84879 0.44073 0.35179 0.0
H859 H 0.85245 0.35478 0.42509 0.0
H860 H 0.87799 0.34279 0.45947 0.0
H861 H 0.8746 0.34001 0.39043 0.0
H862 H 0.91526 0.35945 0.37804 0.0
H863 H 0.91879 0.36227 0.44704 0.0
H864 H 0.92093 0.38751 0.40429 0.0
H865 H 0.85336 0.44463 0.44865 0.0
H866 H 0.86192 0.44153 0.54287 0.0
H867 H 0.89316 0.37383 0.5253 0.0
C868 C 0.87468 0.38117 0.31468 0.0
C869 C 0.86459 0.39618 0.2754 0.0
C870 C 0.8554 0.41779 0.28949 0.0
C871 C 0.85602 0.42428 0.3414 0.0
C872 C 0.86594 0.40901 0.37905 0.0
C873 C 0.87519 0.38794 0.36633 0.0
C874 C 0.88492 0.37474 0.4142 0.0
C875 C 0.8717 0.35172 0.42279 0.0
C876 C 0.91156 0.37077 0.41067 0.0
C877 C 0.87964 0.39166 0.45587 0.0
C878 C 0.86863 0.41129 0.43477 0.0
C879 C 0.86194 0.42931 0.46556 0.0
C880 C 0.86673 0.4273 0.51921 0.0
C881 C 0.87815 0.4074 0.54188 0.0
C882 C 0.88461 0.38937 0.50939 0.0
H883 H 0.38394 0.11764 0.26366 0.0
H884 H 0.30757 0.11653 0.26601 0.0
H885 H 0.30562 0.1117 0.17166 0.0
H886 H 0.38874 0.14941 0.14405 0.0
H887 H 0.41345 0.13323 0.12253 0.0
H888 H 0.40908 0.13583 0.19076 0.0
H889 H 0.40917 0.09111 0.20329 0.0
H890 H 0.41366 0.08837 0.13509 0.0
H891 H 0.38904 0.07409 0.16485 0.0
H892 H 0.31169 0.10825 0.0765 0.0
H893 H 0.32547 0.10517 0.98755 0.0
H894 H 0.39793 0.10831 0.04588 0.0
C895 C 0.36681 0.11603 0.2445 0.0
C896 C 0.3459 0.11767 0.27255 0.0
C897 C 0.32386 0.11575 0.24555 0.0
C898 C 0.32255 0.11285 0.19188 0.0
C899 C 0.34342 0.11173 0.16536 0.0
C900 C 0.36516 0.11308 0.19072 0.0
C901 C 0.38488 0.11167 0.1527 0.0
C902 C 0.39992 0.13386 0.15251 0.0
C903 C 0.40008 0.09002 0.1647 0.0
C904 C 0.37081 0.10961 0.10206 0.0
C905 C 0.34693 0.10962 0.11034 0.0
C906 C 0.33036 0.1082 0.06956 0.0
C907 C 0.33839 0.10664 1.01901 0.0
C908 C 0.36281 0.10656 1.00931 0.0
C909 C 0.37915 0.10805 0.05176 0.0
H910 H 0.64526 0.60069 0.02171 0.0
H911 H 0.60976 0.6642 0.05873 0.0
H912 H 0.60921 0.67674 0.96643 0.0
H913 H 0.68175 0.62595 0.92326 0.0
H914 H 0.67956 0.60135 0.88237 0.0
H915 H 0.6772 0.59733 0.95143 0.0
H916 H 0.63683 0.57712 0.93766 0.0
H917 H 0.63903 0.58117 0.86854 0.0
H918 H 0.61374 0.59197 0.90031 0.0
H919 H 0.61206 0.68231 0.87004 0.0
H920 H 0.61924 0.68112 0.77661 0.0
H921 H 0.65312 0.61412 0.80139 0.0
C922 C 0.63725 0.61718 1.0104 0.0
C923 C 0.62762 0.63148 0.04776 0.0
C924 C 0.61757 0.65307 0.03118 0.0
C925 C 0.61701 0.66028 0.97871 0.0
C926 C 0.62658 0.64575 0.94301 0.0
C927 C 0.63659 0.62469 0.9581 0.0
C928 C 0.64588 0.61251 0.91187 0.0
C929 C 0.67269 0.60909 0.91759 0.0
C930 C 0.6331 0.58932 0.90415 0.0
C931 C 0.6395 0.63001 0.86845 0.0
C932 C 0.62833 0.64902 0.88733 0.0
C933 C 0.62088 0.66754 0.85486 0.0
C934 C 0.62516 0.66675 0.8018 0.0
C935 C 0.63687 0.6476 0.78142 0.0
C936 C 0.64392 0.62891 0.81546 0.0
H937 H 0.12337 0.90647 0.55394 0.0
H938 H 0.13634 0.8353 0.51423 0.0
H939 H 0.14437 0.82491 0.60658 0.0
H940 H 0.16791 0.90932 0.65588 0.0
H941 H 0.15038 0.92682 0.69619 0.0
H942 H 0.14601 0.92872 0.62682 0.0
H943 H 0.10179 0.91908 0.63645 0.0
H944 H 0.10603 0.91707 0.70585 0.0
H945 H 0.09344 0.89304 0.6719 0.0
H946 H 0.15058 0.8221 0.70377 0.0
H947 H 0.15503 0.82727 0.79804 0.0
H948 H 0.13764 0.90015 0.77472 0.0
C949 C 0.12775 0.88865 0.56458 0.0
C950 C 0.12927 0.87173 0.52647 0.0
C951 C 0.13541 0.84869 0.54234 0.0
C952 C 0.13983 0.84256 0.59484 0.0
C953 C 0.13806 0.85964 0.63128 0.0
C954 C 0.13221 0.88222 0.61685 0.0
C955 C 0.13152 0.89727 0.6637 0.0
C956 C 0.15006 0.91668 0.66044 0.0
C957 C 0.10672 0.90719 0.66982 0.0
C958 C 0.1378 0.8796 0.70676 0.0
C959 C 0.14154 0.858 0.68722 0.0
C960 C 0.14774 0.83896 0.71946 0.0
C961 C 0.15033 0.84209 0.77298 0.0
C962 C 0.14671 0.8641 0.79399 0.0
C963 C 0.14024 0.88303 0.76013 0.0
H964 H 0.89386 0.60725 0.79652 0.0
H965 H 0.82668 0.64311 0.79061 0.0
H966 H 0.82668 0.64409 0.69527 0.0
H967 H 0.91849 0.63768 0.68627 0.0
H968 H 0.93301 0.61249 0.6633 0.0
H969 H 0.92798 0.61475 0.73137 0.0
H970 H 0.90597 0.57542 0.7318 0.0
H971 H 0.91088 0.57306 0.66369 0.0
H972 H 0.88137 0.57146 0.68709 0.0
H973 H 0.83326 0.64046 0.60036 0.0
H974 H 0.84644 0.63331 0.51259 0.0
H975 H 0.90981 0.60038 0.57861 0.0
C976 C 0.8791 0.61524 0.77522 0.0
C977 C 0.86035 0.62529 0.80152 0.0
C978 C 0.8415 0.6357 0.7718 0.0
C979 C 0.84122 0.63619 0.71745 0.0
C980 C 0.85992 0.62618 0.69289 0.0
C981 C 0.87856 0.61594 0.72071 0.0
C982 C 0.89645 0.60647 0.68451 0.0
C983 C 0.9204 0.61858 0.69181 0.0
C984 C 0.8988 0.58003 0.69224 0.0
C985 C 0.88493 0.61298 0.63209 0.0
C986 C 0.86384 0.62428 0.63793 0.0
C987 C 0.84985 0.6318 0.59533 0.0
C988 C 0.85762 0.62778 0.54544 0.0
C989 C 0.87933 0.61645 0.53807 0.0
C990 C 0.89305 0.60892 0.58243 0.0
H991 H 0.1291 0.13441 0.52302 0.0
H992 H 0.16416 0.06848 0.55501 0.0
H993 H 0.17256 0.066 0.46232 0.0
H994 H 0.10217 0.12004 0.4015 0.0
H995 H 0.10626 0.14837 0.37147 0.0
H996 H 0.10336 0.14529 0.44056 0.0
H997 H 0.14314 0.16652 0.45494 0.0
H998 H 0.1461 0.16976 0.38587 0.0
H999 H 0.16911 0.1559 0.42537 0.0
H1000 H 0.17652 0.07024 0.36569 0.0
H1001 H 0.17684 0.08156 0.27267 0.0
H1002 H 0.13927 0.14475 0.30319 0.0
C1003 C 0.13882 0.1196 0.51069 0.0
C1004 C 0.14588 0.10159 0.54648 0.0
C1005 C 0.15826 0.08234 0.52839 0.0
C1006 C 0.16322 0.08082 0.47579 0.0
C1007 C 0.15574 0.0987 0.44152 0.0
C1008 C 0.1439 0.11778 0.45822 0.0
C1009 C 0.13761 0.13448 0.41324 0.0
C1010 C 0.11076 0.13719 0.4063 0.0
C1011 C 0.14972 0.15806 0.42029 0.0
C1012 C 0.14775 0.1218 0.3687 0.0
C1013 C 0.15809 0.10117 0.38584 0.0
C1014 C 0.16846 0.08636 0.35182 0.0
C1015 C 0.1684 0.09287 0.29893 0.0
C1016 C 0.15806 0.11403 0.28037 0.0
C1017 C 0.14756 0.12858 0.31604 0.0
H1018 H 0.66356 0.36254 0.24201 0.0
H1019 H 0.59719 0.38983 0.29187 0.0
H1020 H 0.58409 0.3963 0.20059 0.0
H1021 H 0.67017 0.40142 0.13314 0.0
H1022 H 0.68231 0.38001 0.09258 0.0
H1023 H 0.68641 0.37716 0.1619 0.0
H1024 H 0.66787 0.33612 0.1609 0.0
H1025 H 0.66367 0.33887 0.09153 0.0
H1026 H 0.63896 0.33232 0.13154 0.0
H1027 H 0.57826 0.40026 0.1044 0.0
H1028 H 0.58035 0.40219 1.00922 0.0
H1029 H 0.65027 0.37194 0.02096 0.0
C1030 C 0.64615 0.36964 0.23381 0.0
C1031 C 0.63144 0.37574 0.27434 0.0
C1032 C 0.60895 0.38534 0.26169 0.0
C1033 C 0.60126 0.3889 0.20991 0.0
C1034 C 0.61619 0.3827 0.17106 0.0
C1035 C 0.63815 0.37326 0.18228 0.0
C1036 C 0.65088 0.36846 0.1331 0.0
C1037 C 0.67379 0.38261 0.13001 0.0
C1038 C 0.65562 0.34239 0.12904 0.0
C1039 C 0.63271 0.37691 0.09249 0.0
C1040 C 0.6128 0.38495 0.11533 0.0
C1041 C 0.59375 0.39401 0.08607 0.0
C1042 C 0.59516 0.39514 0.03203 0.0
C1043 C 0.61551 0.38733 1.00759 0.0
C1044 C 0.6344 0.37783 0.03842 0.0
H1045 H 0.40193 0.87808 0.02357 0.0
H1046 H 0.34029 0.91911 0.05374 0.0
H1047 H 0.329 0.91968 0.96058 0.0
H1048 H 0.41564 0.90677 0.90256 0.0
H1049 H 0.42482 0.88063 0.87294 0.0
H1050 H 0.42789 0.88311 0.94211 0.0
H1051 H 0.40346 0.84554 0.95572 0.0
H1052 H 0.40043 0.84288 0.8866 0.0
H1053 H 0.37459 0.84346 0.92513 0.0
H1054 H 0.3248 0.91635 0.86383 0.0
H1055 H 0.32716 0.90816 0.77106 0.0
H1056 H 0.39151 0.86922 0.8039 0.0
C1057 C 0.38611 0.88729 1.0106 0.0
C1058 C 0.37199 0.89856 0.04609 0.0
C1059 C 0.35124 0.91011 0.02749 0.0
C1060 C 0.34477 0.91068 0.97456 0.0
C1061 C 0.3592 0.89956 0.94066 0.0
C1062 C 0.37938 0.88799 0.95794 0.0
C1063 C 0.3917 0.87727 0.91352 0.0
C1064 C 0.41648 0.88757 0.90744 0.0
C1065 C 0.39259 0.85071 0.92068 0.0
C1066 C 0.37535 0.88471 0.86847 0.0
C1067 C 0.35673 0.89757 0.88497 0.0
C1068 C 0.33926 0.90622 0.85051 0.0
C1069 C 0.3407 0.9014 0.79791 0.0
C1070 C 0.35947 0.88799 0.7801 0.0
C1071 C 0.3771 0.87974 0.81607 0.0
H1072 H 0.12858 0.70977 0.0802 0.0
H1073 H 0.1463 0.68535 0.23756 0.0
H1074 H 0.14589 0.72592 0.26585 0.0
H1075 H 0.16455 0.75963 0.08049 0.0
H1076 H 0.14406 0.77712 0.04141 0.0
H1077 H 0.14458 0.74621 0.03488 0.0
H1078 H 0.10009 0.74397 0.05387 0.0
H1079 H 0.09941 0.77492 0.06035 0.0
H1080 H 0.08964 0.75596 0.11231 0.0
H1081 H 0.14453 0.77001 0.27547 0.0
H1082 H 0.14287 0.8128 0.26537 0.0
H1083 H 0.12658 0.8069 0.10106 0.0
C1084 C 0.13223 0.71276 0.1208 0.0
C1085 C 0.13743 0.69427 0.15668 0.0
C1086 C 0.1422 0.69919 0.20933 0.0
C1087 C 0.142 0.72218 0.22574 0.0
C1088 C 0.13699 0.73998 0.18902 0.0
C1089 C 0.13217 0.73542 0.13765 0.0
C1090 C 0.128 0.75741 0.10518 0.0
C1091 C 0.1464 0.76025 0.06302 0.0
C1092 C 0.10279 0.7581 0.08156 0.0
C1093 C 0.1314 0.77522 0.14612 0.0
C1094 C 0.13644 0.76495 0.19435 0.0
C1095 C 0.14053 0.77817 0.23787 0.0
C1096 C 0.13953 0.80247 0.23175 0.0
C1097 C 0.13462 0.81325 0.1824 0.0
C1098 C 0.13041 0.79929 0.13932 0.0
H1099 H 0.55884 0.86127 0.37237 0.0
H1100 H 0.58022 0.8954 0.51321 0.0
H1101 H 0.53877 0.89506 0.54025 0.0
H1102 H 0.50785 0.8924 0.34678 0.0
H1103 H 0.49112 0.86846 0.32179 0.0
H1104 H 0.52261 0.86883 0.31749 0.0
H1105 H 0.52522 0.82879 0.36624 0.0
H1106 H 0.49364 0.82825 0.37054 0.0
H1107 H 0.51205 0.82493 0.42847 0.0
H1108 H 0.49374 0.89447 0.54652 0.0
H1109 H 0.45039 0.89353 0.5312 0.0
H1110 H 0.46022 0.85959 0.38641 0.0
C1111 C 0.55495 0.86836 0.40935 0.0
C1112 C 0.57274 0.87837 0.44066 0.0
C1113 C 0.56686 0.88748 0.48874 0.0
C1114 C 0.54337 0.88737 0.50439 0.0
C1115 C 0.52614 0.87783 0.47179 0.0
C1116 C 0.5318 0.8683 0.42548 0.0
C1117 C 0.51016 0.86046 0.39549 0.0
C1118 C 0.50781 0.87331 0.34228 0.0
C1119 C 0.51028 0.83404 0.38988 0.0
C1120 C 0.49129 0.86772 0.43121 0.0
C1121 C 0.50067 0.87747 0.47539 0.0
C1122 C 0.48625 0.88657 0.51238 0.0
C1123 C 0.46167 0.88596 0.50342 0.0
C1124 C 0.45193 0.87652 0.45761 0.0
C1125 C 0.46705 0.86694 0.42185 0.0
H1126 H 0.36154 0.29857 0.60398 0.0
H1127 H 0.38946 0.31229 0.75816 0.0
H1128 H 0.39112 0.26994 0.77852 0.0
H1129 H 0.3258 0.24907 0.6377 0.0
H1130 H 0.33248 0.23425 0.57979 0.0
H1131 H 0.33244 0.26545 0.57927 0.0
H1132 H 0.37521 0.2661 0.54723 0.0
H1133 H 0.37539 0.23492 0.54767 0.0
H1134 H 0.39781 0.25019 0.58386 0.0
H1135 H 0.38931 0.2253 0.78086 0.0
H1136 H 0.38695 0.1834 0.76304 0.0
H1137 H 0.36206 0.20052 0.60583 0.0
C1138 C 0.36775 0.29278 0.64235 0.0
C1139 C 0.37511 0.30875 0.67974 0.0
C1140 C 0.38363 0.30034 0.72901 0.0
C1141 C 0.38457 0.27634 0.74091 0.0
C1142 C 0.37716 0.26109 0.70289 0.0
C1143 C 0.3691 0.26909 0.65449 0.0
C1144 C 0.36322 0.24942 0.61927 0.0
C1145 C 0.33692 0.24956 0.60308 0.0
C1146 C 0.37884 0.25021 0.57172 0.0
C1147 C 0.36925 0.22895 0.65524 0.0
C1148 C 0.37701 0.23588 0.70354 0.0
C1149 C 0.38333 0.21975 0.74309 0.0
C1150 C 0.38188 0.19601 0.73269 0.0
C1151 C 0.3745 0.18872 0.68295 0.0
C1152 C 0.36801 0.20551 0.64409 0.0
H1153 H 0.95809 0.13779 0.87731 0.0
H1154 H 0.94464 0.11688 0.03666 0.0
H1155 H 0.9877 0.11608 0.05625 0.0
H1156 H 1.00709 0.10191 0.8628 0.0
H1157 H 0.0224 0.12271 0.82249 0.0
H1158 H 0.99075 0.1229 0.8228 0.0
H1159 H 0.9914 0.16608 0.84724 0.0
H1160 H 0.02309 0.16604 0.84691 0.0
H1161 H 0.00826 0.1746 0.90374 0.0
H1162 H 0.03319 0.11606 0.05603 0.0
H1163 H 0.07557 0.11669 0.03613 0.0
H1164 H 0.05737 0.13749 0.87675 0.0
C1165 C 0.96402 0.13318 0.91659 0.0
C1166 C 0.94789 0.12739 0.95547 0.0
C1167 C 0.95663 0.12146 1.00623 0.0
C1168 C 0.98106 0.12096 1.01767 0.0
C1169 C 0.99644 0.12652 0.97799 0.0
C1170 C 0.98812 0.13259 0.92853 0.0
C1171 C 0.00793 0.13715 0.89197 0.0
C1172 C 1.00698 0.12015 0.84741 0.0
C1173 C 0.00765 0.16247 0.87127 0.0
C1174 C 0.02887 0.13244 0.92825 0.0
C1175 C 0.02206 0.12645 0.97782 0.0
C1176 C 0.03863 0.12087 1.01737 0.0
C1177 C 0.06268 0.12129 1.00572 0.0
C1178 C 0.06987 0.12715 0.95487 0.0
C1179 C 0.0526 0.13294 0.91605 0.0
H1180 H 0.13882 0.30349 0.93393 0.0
H1181 H 0.1473 0.31861 0.76983 0.0
H1182 H 0.14787 0.27644 0.75457 0.0
H1183 H 0.17656 0.25405 0.94529 0.0
H1184 H 0.15825 0.23887 0.99099 0.0
H1185 H 0.15875 0.27006 0.988 0.0
H1186 H 0.11338 0.27073 0.97312 0.0
H1187 H 0.11275 0.23954 0.97596 0.0
H1188 H 0.10022 0.25525 0.92016 0.0
H1189 H 0.14742 0.23165 0.75867 0.0
H1190 H 0.14593 0.18959 0.78169 0.0
H1191 H 0.13736 0.20568 0.94277 0.0
C1192 C 0.14087 0.29809 0.89465 0.0
C1193 C 0.14307 0.31443 0.85309 0.0
C1194 C 0.14562 0.30643 0.80236 0.0
C1195 C 0.14595 0.28251 0.79333 0.0
C1196 C 0.14367 0.26689 0.83541 0.0
C1197 C 0.14117 0.27448 0.88503 0.0
C1198 C 0.13886 0.25451 0.92389 0.0
C1199 C 0.15932 0.25437 0.96441 0.0
C1200 C 0.11487 0.25505 0.94978 0.0
C1201 C 0.14046 0.23436 0.88859 0.0
C1202 C 0.14325 0.24166 0.83766 0.0
C1203 C 0.14521 0.22581 0.79848 0.0
C1204 C 0.14433 0.20195 0.81189 0.0
C1205 C 0.14149 0.19424 0.86403 0.0
C1206 C 0.13951 0.21083 0.9025 0.0
H1207 H 0.05287 0.90139 0.15717 0.0
H1208 H 0.07266 0.86056 0.02824 0.0
H1209 H 0.0303 0.85589 1.00275 0.0
H1210 H 1.00518 0.86886 0.19397 0.0
H1211 H 0.98752 0.89311 0.21126 0.0
H1212 H 0.01908 0.89523 0.21461 0.0
H1213 H 0.0174 0.93185 0.15337 0.0
H1214 H 0.98573 0.93 0.15028 0.0
H1215 H 1.00194 0.93066 0.09147 0.0
H1216 H 0.98473 0.85218 0.99942 0.0
H1217 H 0.94181 0.85207 1.01482 0.0
H1218 H 0.95421 0.89637 0.14518 0.0
C1219 C 0.04831 0.8918 0.12298 0.0
C1220 C 0.06582 0.88123 0.09469 0.0
C1221 C 0.05934 0.86889 0.0501 0.0
C1222 C 0.03539 0.86612 0.03557 0.0
C1223 C 0.01842 0.87621 0.06559 0.0
C1224 C 0.02478 0.88915 0.10784 0.0
C1225 C 1.00365 0.89746 0.13557 0.0
C1226 C 1.00388 0.88809 0.19217 0.0
C1227 C 1.00209 0.92407 0.13245 0.0
C1228 C 0.98423 0.8866 0.10352 0.0
C1229 C 0.99285 0.87447 0.06311 0.0
C1230 C 0.97784 0.86195 0.03049 0.0
C1231 C 0.95352 0.86191 0.03963 0.0
C1232 C 0.94456 0.87426 0.0811 0.0
C1233 C 0.96028 0.88686 0.11283 0.0
H1234 H 0.38611 0.69991 0.43726 0.0
H1235 H 0.37137 0.69121 0.27317 0.0
H1236 H 0.3706 0.73384 0.25911 0.0
H1237 H 0.34851 0.74811 0.45081 0.0
H1238 H 0.368 0.76216 0.49636 0.0
H1239 H 0.36828 0.73109 0.49275 0.0
H1240 H 0.41307 0.73213 0.47663 0.0
H1241 H 0.41295 0.76322 0.48036 0.0
H1242 H 0.42392 0.74997 0.42388 0.0
H1243 H 0.37053 0.77785 0.26404 0.0
H1244 H 0.37137 0.81903 0.28736 0.0
H1245 H 0.3859 0.79797 0.44826 0.0
C1246 C 0.38287 0.70687 0.39821 0.0
C1247 C 0.37885 0.69216 0.35628 0.0
C1248 C 0.37456 0.70211 0.30591 0.0
C1249 C 0.37408 0.7263 0.29755 0.0
C1250 C 0.37793 0.74028 0.33994 0.0
C1251 C 0.38229 0.73086 0.38923 0.0
C1252 C 0.38543 0.7495 0.42853 0.0
C1253 C 0.36642 0.7476 0.46951 0.0
C1254 C 0.41032 0.74865 0.45382 0.0
C1255 C 0.38203 0.77093 0.39378 0.0
C1256 C 0.37778 0.76534 0.34278 0.0
C1257 C 0.3739 0.7824 0.30386 0.0
C1258 C 0.37441 0.80576 0.3175 0.0
C1259 C 0.37869 0.81181 0.36966 0.0
C1260 C 0.38256 0.79404 0.40803 0.0
H1261 H 0.55537 0.13124 0.67026 0.0
H1262 H 0.56743 0.11088 0.51331 0.0
H1263 H 0.52422 0.11055 0.4953 0.0
H1264 H 0.5065 0.09555 0.6917 0.0
H1265 H 0.4916 0.11618 0.72977 0.0
H1266 H 0.52322 0.11636 0.72814 0.0
H1267 H 0.52252 0.15966 0.69762 0.0
H1268 H 0.49086 0.15965 0.69933 0.0
H1269 H 0.50519 0.16846 0.64062 0.0
H1270 H 0.47877 0.11064 0.49743 0.0
H1271 H 0.43661 0.11115 0.51914 0.0
H1272 H 0.45628 0.13119 0.67498 0.0
C1273 C 0.54911 0.12687 0.63181 0.0
C1274 C 0.56485 0.12106 0.59317 0.0
C1275 C 0.55571 0.11549 0.54347 0.0
C1276 C 0.53121 0.11524 0.53296 0.0
C1277 C 0.5162 0.12073 0.57248 0.0
C1278 C 0.52495 0.12653 0.62082 0.0
C1279 C 0.50551 0.13094 0.65762 0.0
C1280 C 0.50679 0.11373 0.70455 0.0
C1281 C 0.50606 0.15618 0.67478 0.0
C1282 C 0.48427 0.12641 0.62286 0.0
C1283 C 0.49061 0.12068 0.57376 0.0
C1284 C 0.47369 0.11526 0.53569 0.0
C1285 C 0.44978 0.11561 0.54836 0.0
C1286 C 0.44308 0.1212 0.59879 0.0
C1287 C 0.46069 0.12682 0.63607 0.0
H1288 H 0.88338 0.20606 0.94632 0.0
H1289 H 0.86811 0.19358 0.78402 0.0
H1290 H 0.86707 0.23607 0.76535 0.0
H1291 H 0.84571 0.25458 0.9555 0.0
H1292 H 0.86547 0.26931 0.99937 0.0
H1293 H 0.86549 0.23815 0.99863 0.0
H1294 H 0.91024 0.23853 0.98183 0.0
H1295 H 0.91037 0.2697 0.9826 0.0
H1296 H 0.92104 0.25526 0.92733 0.0
H1297 H 0.86758 0.28106 0.76609 0.0
H1298 H 0.86915 0.32276 0.78629 0.0
H1299 H 0.88367 0.30376 0.94822 0.0
C1300 C 0.87988 0.21209 0.90665 0.0
C1301 C 0.87588 0.19638 0.86661 0.0
C1302 C 0.87129 0.20524 0.81539 0.0
C1303 C 0.87067 0.22936 0.80445 0.0
C1304 C 0.87464 0.24433 0.84515 0.0
C1305 C 0.87915 0.23588 0.8952 0.0
C1306 C 0.88256 0.25522 0.93258 0.0
C1307 C 0.86368 0.25425 0.97394 0.0
C1308 C 0.90753 0.25464 0.95753 0.0
C1309 C 0.87921 0.27602 0.896 0.0
C1310 C 0.87472 0.26959 0.84564 0.0
C1311 C 0.87108 0.28619 0.80546 0.0
C1312 C 0.87202 0.30984 0.81727 0.0
C1313 C 0.87646 0.31665 0.86886 0.0
C1314 C 0.88012 0.29933 0.90836 0.0
H1315 H 0.65741 0.80533 0.42313 0.0
H1316 H 0.62839 0.82035 0.26821 0.0
H1317 H 0.62565 0.77819 0.25348 0.0
H1318 H 0.69233 0.75551 0.39065 0.0
H1319 H 0.68688 0.74038 0.45131 0.0
H1320 H 0.68737 0.77159 0.44778 0.0
H1321 H 0.64557 0.77243 0.48499 0.0
H1322 H 0.6449 0.74126 0.48838 0.0
H1323 H 0.62191 0.7571 0.45293 0.0
H1324 H 0.62345 0.73345 0.25944 0.0
H1325 H 0.62453 0.6914 0.2835 0.0
H1326 H 0.65622 0.70733 0.43315 0.0
C1327 C 0.65063 0.79984 0.38587 0.0
C1328 C 0.64303 0.81615 0.34688 0.0
C1329 C 0.63442 0.80816 0.2986 0.0
C1330 C 0.63273 0.78425 0.28997 0.0
C1331 C 0.64001 0.76861 0.32976 0.0
C1332 C 0.64907 0.77621 0.3765 0.0
C1333 C 0.65549 0.75618 0.41347 0.0
C1334 C 0.6821 0.7559 0.42655 0.0
C1335 C 0.6411 0.75679 0.46283 0.0
C1336 C 0.64831 0.73603 0.38073 0.0
C1337 C 0.63935 0.74337 0.33257 0.0
C1338 C 0.6307 0.72757 0.29687 0.0
C1339 C 0.6313 0.70373 0.31087 0.0
C1340 C 0.64065 0.696 0.35999 0.0
C1341 C 0.64927 0.71252 0.39495 0.0
H1342 H 0.86819 0.69264 0.11742 0.0
H1343 H 0.88968 0.68182 0.27916 0.0
H1344 H 0.8908 0.72433 0.28917 0.0
H1345 H 0.90357 0.74224 0.09077 0.0
H1346 H 0.88162 0.75641 0.04887 0.0
H1347 H 0.88234 0.72526 0.05512 0.0
H1348 H 0.83879 0.72479 0.08197 0.0
H1349 H 0.83791 0.75595 0.07566 0.0
H1350 H 0.83022 0.74153 0.13579 0.0
H1351 H 0.89132 0.76873 0.27942 0.0
H1352 H 0.88863 0.81033 0.25231 0.0
H1353 H 0.86525 0.79099 0.09824 0.0
C1354 C 0.87311 0.69914 0.15504 0.0
C1355 C 0.87896 0.68387 0.19745 0.0
C1356 C 0.88508 0.69317 0.2461 0.0
C1357 C 0.88583 0.7173 0.25211 0.0
C1358 C 0.88015 0.73187 0.20926 0.0
C1359 C 0.87367 0.72306 0.16183 0.0
C1360 C 0.8681 0.74222 0.12186 0.0
C1361 C 0.88492 0.74148 0.07649 0.0
C1362 C 0.84222 0.74105 0.10272 0.0
C1363 C 0.87266 0.76327 0.15394 0.0
C1364 C 0.87973 0.75706 0.20419 0.0
C1365 C 0.8856 0.77374 0.24025 0.0
C1366 C 0.8841 0.79732 0.2245 0.0
C1367 C 0.87654 0.80396 0.17331 0.0
C1368 C 0.87078 0.78658 0.13787 0.0
H1369 H 0.64843 0.19883 0.60539 0.0
H1370 H 0.62461 0.18101 0.75952 0.0
H1371 H 0.62376 0.2228 0.77897 0.0
H1372 H 0.68648 0.24614 0.64291 0.0
H1373 H 0.67974 0.26301 0.58426 0.0
H1374 H 0.67877 0.23184 0.58382 0.0
H1375 H 0.6357 0.23365 0.54746 0.0
H1376 H 0.63652 0.2648 0.54788 0.0
H1377 H 0.61395 0.2491 0.58186 0.0
H1378 H 0.62312 0.26742 0.77817 0.0
H1379 H 0.6254 0.30981 0.75948 0.0
H1380 H 0.65146 0.29685 0.60733 0.0
C1381 C 0.64304 0.20364 0.64334 0.0
C1382 C 0.63637 0.18671 0.68083 0.0
C1383 C 0.62979 0.19374 0.73024 0.0
C1384 C 0.62921 0.21742 0.74154 0.0
C1385 C 0.63564 0.2337 0.70325 0.0
C1386 C 0.6427 0.227 0.65539 0.0
C1387 C 0.64888 0.24761 0.62074 0.0
C1388 C 0.67502 0.24711 0.60716 0.0
C1389 C 0.6328 0.24886 0.5716 0.0
C1390 C 0.64384 0.26711 0.65612 0.0
C1391 C 0.63612 0.25889 0.70352 0.0
C1392 C 0.62942 0.27398 0.74139 0.0
C1393 C 0.6307 0.29801 0.73041 0.0
C1394 C 0.63884 0.30665 0.68218 0.0
C1395 C 0.64554 0.29086 0.64492 0.0
H1396 H 0.95859 0.35767 0.89524 0.0
H1397 H 0.94892 0.39627 0.03377 0.0
H1398 H 0.99229 0.39694 0.04955 0.0
H1399 H 0.01104 0.32396 0.94166 0.0
H1400 H 0.02369 0.32619 0.87864 0.0
H1401 H 0.99216 0.32554 0.88419 0.0
H1402 H 0.9889 0.36414 0.82995 0.0
H1403 H 0.02033 0.36506 0.82466 0.0
H1404 H 1.00519 0.38912 0.85105 0.0
H1405 H 0.03744 0.3972 0.04293 0.0
H1406 H 0.07877 0.39711 1.01507 0.0
H1407 H 0.05715 0.35933 0.87941 0.0
C1408 C 0.96547 0.36585 0.92965 0.0
C1409 C 0.95039 0.37691 0.96335 0.0
C1410 C 0.96016 0.38747 1.00777 0.0
C1411 C 0.98476 0.38797 1.01688 0.0
C1412 C 0.99917 0.37762 0.98148 0.0
C1413 C 0.98973 0.36657 0.93903 0.0
C1414 C 0.00858 0.35857 0.90391 0.0
C1415 C 0.00888 0.33199 0.90202 0.0
C1416 C 1.00556 0.36991 0.8492 0.0
C1417 C 0.03023 0.36752 0.93208 0.0
C1418 C 0.02466 0.37813 0.9772 0.0
C1419 C 0.04195 0.38866 1.00802 0.0
C1420 C 0.06537 0.38852 0.9919 0.0
C1421 C 0.07118 0.37825 0.94499 0.0
C1422 C 0.05333 0.36735 0.91542 0.0
H1423 H 0.45794 0.60662 0.37237 0.0
H1424 H 0.44059 0.6401 0.51364 0.0
H1425 H 0.4833 0.6444 0.53555 0.0
H1426 H 0.50919 0.57505 0.42526 0.0
H1427 H 0.5247 0.5787 0.36579 0.0
H1428 H 0.49301 0.57732 0.36409 0.0
H1429 H 0.49119 0.61683 0.31307 0.0
H1430 H 0.52282 0.61843 0.31497 0.0
H1431 H 0.50584 0.64165 0.33979 0.0
H1432 H 0.52883 0.64767 0.53684 0.0
H1433 H 0.57165 0.64697 0.52083 0.0
H1434 H 0.55727 0.61038 0.37947 0.0
C1435 C 0.46304 0.61471 0.40823 0.0
C1436 C 0.44598 0.62316 0.4412 0.0
C1437 C 0.45342 0.63341 0.48795 0.0
C1438 C 0.47761 0.636 0.50052 0.0
C1439 C 0.49399 0.62792 0.46626 0.0
C1440 C 0.48687 0.61719 0.42142 0.0
C1441 C 0.50756 0.61025 0.39027 0.0
C1442 C 0.50868 0.58376 0.38614 0.0
C1443 C 0.5068 0.62253 0.33636 0.0
C1444 C 0.5276 0.6191 0.42389 0.0
C1445 C 0.51961 0.62929 0.46759 0.0
C1446 C 0.5352 0.63948 0.50301 0.0
C1447 C 0.55948 0.63909 0.49351 0.0
C1448 C 0.56789 0.62848 0.44908 0.0
C1449 C 0.55157 0.61839 0.41416 0.0
H1450 H 0.45845 0.3994 0.64695 0.0
H1451 H 0.44178 0.34742 0.53407 0.0
H1452 H 0.48424 0.34386 0.51683 0.0
H1453 H 0.50639 0.42706 0.57847 0.0
H1454 H 0.52319 0.43198 0.63745 0.0
H1455 H 0.4915 0.43128 0.6379 0.0
H1456 H 0.49335 0.39911 0.7106 0.0
H1457 H 0.52499 0.39971 0.7104 0.0
H1458 H 0.50947 0.37287 0.70073 0.0
H1459 H 0.52932 0.34468 0.51635 0.0
H1460 H 0.57217 0.34951 0.5331 0.0
H1461 H 0.55793 0.40111 0.64604 0.0
C1462 C 0.46356 0.38736 0.6182 0.0
C1463 C 0.44671 0.37366 0.59189 0.0
C1464 C 0.45434 0.35813 0.55469 0.0
C1465 C 0.47842 0.35602 0.5446 0.0
C1466 C 0.49456 0.36967 0.57179 0.0
C1467 C 0.48734 0.38509 0.60769 0.0
C1468 C 0.50799 0.39718 0.6334 0.0
C1469 C 0.50722 0.42343 0.62104 0.0
C1470 C 0.509 0.39189 0.69225 0.0
C1471 C 0.52811 0.38589 0.60713 0.0
C1472 C 0.52012 0.37018 0.57143 0.0
C1473 C 0.53572 0.35708 0.54392 0.0
C1474 C 0.56003 0.35996 0.55368 0.0
C1475 C 0.56848 0.37573 0.59081 0.0
C1476 C 0.55217 0.389 0.61718 0.0
H1477 H 0.06289 0.63413 0.16209 0.0
H1478 H 0.06747 0.62069 0.99855 0.0
H1479 H 0.02395 0.61868 0.99088 0.0
H1480 H 0.01624 0.59562 0.18799 0.0
H1481 H 1.00269 0.61408 0.2332 0.0
H1482 H 0.03394 0.61566 0.22449 0.0
H1483 H 0.03051 0.65974 0.20245 0.0
H1484 H 0.99922 0.65829 0.21115 0.0
H1485 H 0.01043 0.66981 0.15106 0.0
H1486 H 0.97933 0.61625 1.0032 0.0
H1487 H 0.93855 0.61394 0.03422 0.0
H1488 H 0.96466 0.62943 0.189 0.0
C1489 C 0.05485 0.63092 0.12445 0.0
C1490 C 0.06865 0.62757 0.08092 0.0
C1491 C 0.05727 0.6234 0.03247 0.0
C1492 C 0.03256 0.62222 0.02773 0.0
C1493 C 0.01951 0.62539 0.07171 0.0
C1494 C 0.03035 0.62976 0.11904 0.0
C1495 C 0.01264 0.63195 0.16088 0.0
C1496 C 0.01662 0.61321 0.20417 0.0
C1497 C 0.01324 0.6564 0.18264 0.0
C1498 C 0.99008 0.62781 0.13001 0.0
C1499 C 0.99425 0.62414 0.07861 0.0
C1500 C 0.9759 0.61928 0.04333 0.0
C1501 C 0.95279 0.61801 0.06128 0.0
C1502 C 0.94829 0.62153 0.11404 0.0
C1503 C 0.96731 0.62669 0.14838 0.0
H1504 H 0.14596 0.53801 0.09307 0.0
H1505 H 0.12095 0.58079 0.96129 0.0
H1506 H 0.11342 0.54579 0.91122 0.0
H1507 H 0.17741 0.49879 1.01845 0.0
H1508 H 0.17111 0.47346 0.05851 0.0
H1509 H 0.17204 0.5016 0.0863 0.0
H1510 H 0.1298 0.49541 0.11908 0.0
H1511 H 0.12881 0.46722 0.09132 0.0
H1512 H 0.10632 0.4883 0.07372 0.0
H1513 H 0.10938 0.50647 0.87457 0.0
H1514 H 0.11265 0.46548 0.85102 0.0
H1515 H 0.14302 0.4483 1.00389 0.0
C1516 C 0.13854 0.53985 0.054 0.0
C1517 C 0.13381 0.56196 0.03101 0.0
C1518 C 0.12465 0.56391 0.97942 0.0
C1519 C 0.1202 0.54416 0.95081 0.0
C1520 C 0.12529 0.52257 0.97412 0.0
C1521 C 0.1345 0.52025 0.02433 0.0
C1522 C 0.14032 0.49514 0.03835 0.0
C1523 C 0.16679 0.49208 0.05113 0.0
C1524 C 0.12542 0.48598 0.08328 0.0
C1525 C 0.13317 0.48387 0.98809 0.0
C1526 C 0.12414 0.49994 0.95192 0.0
C1527 C 0.11642 0.49369 0.90255 0.0
C1528 C 0.11829 0.47039 0.88954 0.0
C1529 C 0.12821 0.45379 0.92545 0.0
C1530 C 0.13553 0.46066 0.97547 0.0
H1531 H 0.72789 0.87237 0.36089 0.0
H1532 H 0.6813 0.90118 0.23837 0.0
H1533 H 0.71252 0.89778 0.17587 0.0
H1534 H 0.77978 0.90185 0.31826 0.0
H1535 H 0.79942 0.87804 0.33469 0.0
H1536 H 0.77295 0.88142 0.37004 0.0
H1537 H 0.7602 0.83967 0.34809 0.0
H1538 H 0.78662 0.83623 0.31246 0.0
H1539 H 0.75822 0.83161 0.28134 0.0
H1540 H 0.7486 0.89224 0.12618 0.0
H1541 H 0.78856 0.88678 0.09386 0.0
H1542 H 0.81246 0.86245 0.24776 0.0
C1543 C 0.72431 0.87784 0.32089 0.0
C1544 C 0.70219 0.88716 0.30475 0.0
C1545 C 0.69819 0.89425 0.25201 0.0
C1546 C 0.71576 0.89225 0.21592 0.0
C1547 C 0.73739 0.8832 0.23295 0.0
C1548 C 0.74187 0.87624 0.28414 0.0
C1549 C 0.76712 0.86813 0.29226 0.0
C1550 C 0.78061 0.88327 0.3311 0.0
C1551 C 0.76809 0.84238 0.30955 0.0
C1552 C 0.77602 0.87189 0.23786 0.0
C1553 C 0.75849 0.88034 0.20417 0.0
C1554 C 0.76252 0.88555 0.15209 0.0
C1555 C 0.78525 0.88236 0.13405 0.0
C1556 C 0.80366 0.87423 0.16815 0.0
C1557 C 0.79879 0.86869 0.22058 0.0
H1558 H 0.35794 0.46392 0.60113 0.0
H1559 H 0.4166 0.43279 0.52605 0.0
H1560 H 0.42241 0.46888 0.47432 0.0
H1561 H 0.33426 0.493 0.48956 0.0
H1562 H 0.3255 0.51886 0.52085 0.0
H1563 H 0.3273 0.49167 0.55716 0.0
H1564 H 0.35608 0.50978 0.62424 0.0
H1565 H 0.3541 0.53715 0.58852 0.0
H1566 H 0.38244 0.52398 0.60243 0.0
H1567 H 0.4201 0.50643 0.42553 0.0
H1568 H 0.41123 0.54485 0.38538 0.0
H1569 H 0.35364 0.55257 0.48988 0.0
C1570 C 0.3724 0.46505 0.57489 0.0
C1571 C 0.38697 0.44569 0.56781 0.0
C1572 C 0.40531 0.44749 0.53208 0.0
C1573 C 0.40875 0.4679 0.50251 0.0
C1574 C 0.39366 0.48642 0.50889 0.0
C1575 C 0.37598 0.48539 0.54443 0.0
C1576 C 0.3615 0.50753 0.54108 0.0
C1577 C 0.33561 0.50245 0.52628 0.0
C1578 C 0.36366 0.52037 0.5921 0.0
C1579 C 0.3736 0.52084 0.49762 0.0
C1580 C 0.39216 0.5083 0.47991 0.0
C1581 C 0.40574 0.51654 0.4393 0.0
C1582 C 0.40047 0.53838 0.41655 0.0
C1583 C 0.38172 0.5518 0.43427 0.0
C1584 C 0.36806 0.54276 0.47527 0.0
H1585 H 0.80059 0.09333 0.83761 0.0
H1586 H 0.80852 0.16742 0.8542 0.0
H1587 H 0.77166 0.17412 0.80204 0.0
H1588 H 0.77717 0.09422 0.70915 0.0
H1589 H 0.75617 0.07124 0.71997 0.0
H1590 H 0.78297 0.07214 0.75905 0.0
H1591 H 0.75893 0.07171 0.84259 0.0
H1592 H 0.73206 0.07044 0.80378 0.0
H1593 H 0.73632 0.09315 0.84922 0.0
H1594 H 0.73602 0.17273 0.74133 0.0
H1595 H 0.70036 0.16326 0.68868 0.0
H1596 H 0.71341 0.08997 0.71892 0.0
C1597 C 0.79435 0.11092 0.8307 0.0
C1598 C 0.80727 0.1299 0.84975 0.0
C1599 C 0.79867 0.15268 0.84027 0.0
C1600 C 0.77789 0.15664 0.81039 0.0
C1601 C 0.76572 0.13757 0.79135 0.0
C1602 C 0.7733 0.11513 0.80223 0.0
C1603 C 0.75651 0.09767 0.77867 0.0
C1604 C 0.76896 0.08295 0.73938 0.0
C1605 C 0.74529 0.08234 0.8211 0.0
C1606 C 0.73856 0.1138 0.75198 0.0
C1607 C 0.7444 0.13675 0.7591 0.0
C1608 C 0.7311 0.15483 0.73607 0.0
C1609 C 0.71103 0.1493 0.7059 0.0
C1610 C 0.70422 0.12592 0.6999 0.0
C1611 C 0.71821 0.10798 0.72318 0.0
H1612 H 0.85611 0.53595 0.1192 0.0
H1613 H 0.93058 0.55229 0.12944 0.0
H1614 H 0.93893 0.51934 0.07395 0.0
H1615 H 0.86364 0.47281 0.12368 0.0
H1616 H 0.8388 0.46852 0.07989 0.0
H1617 H 0.83931 0.49285 0.1216 0.0
H1618 H 0.83277 0.52058 0.0412 0.0
H1619 H 0.83273 0.49638 0.99919 0.0
H1620 H 0.85308 0.51999 0.98913 0.0
H1621 H 0.93837 0.48589 1.01098 0.0
H1622 H 0.92962 0.45199 0.95715 0.0
H1623 H 0.8558 0.45706 0.99257 0.0
C1624 C 0.87422 0.53238 0.1104 0.0
C1625 C 0.89272 0.54661 0.12873 0.0
C1626 C 0.91618 0.54141 0.11634 0.0
C1627 C 0.92105 0.52287 0.08446 0.0
C1628 C 0.90229 0.50948 0.06599 0.0
C1629 C 0.8794 0.51374 0.07953 0.0
C1630 C 0.86238 0.49666 0.05554 0.0
C1631 C 0.85033 0.48183 0.09769 0.0
C1632 C 0.84417 0.50916 1.0191 0.0
C1633 C 0.87914 0.48233 0.0256 0.0
C1634 C 0.90208 0.49004 0.03158 0.0
C1635 C 0.92048 0.47964 1.00643 0.0
C1636 C 0.91534 0.46053 0.97554 0.0
C1637 C 0.89205 0.45191 0.9706 0.0
C1638 C 0.8738 0.46321 0.99564 0.0
H1639 H 0.21479 0.09232 0.84332 0.0
H1640 H 0.20643 0.16636 0.85862 0.0
H1641 H 0.24145 0.1735 0.80582 0.0
H1642 H 0.2794 0.09334 0.85409 0.0
H1643 H 0.28251 0.07053 0.80903 0.0
H1644 H 0.25687 0.07147 0.84805 0.0
H1645 H 0.23017 0.07115 0.76477 0.0
H1646 H 0.25573 0.07058 0.72547 0.0
H1647 H 0.23408 0.09314 0.71446 0.0
H1648 H 0.27513 0.17252 0.74475 0.0
H1649 H 0.30937 0.16351 0.69231 0.0
H1650 H 0.29832 0.09009 0.72404 0.0
C1651 C 0.22057 0.11 0.836 0.0
C1652 C 0.20803 0.12883 0.85493 0.0
C1653 C 0.21602 0.15173 0.84485 0.0
C1654 C 0.23573 0.15594 0.81458 0.0
C1655 C 0.24752 0.13701 0.79569 0.0
C1656 C 0.24062 0.11448 0.80711 0.0
C1657 C 0.2569 0.09723 0.78369 0.0
C1658 C 0.26968 0.08226 0.82626 0.0
C1659 C 0.24341 0.08214 0.74479 0.0
C1660 C 0.27378 0.11358 0.75654 0.0
C1661 C 0.26782 0.13646 0.76322 0.0
C1662 C 0.28015 0.15469 0.7398 0.0
C1663 C 0.29941 0.14941 0.70975 0.0
C1664 C 0.3064 0.12614 0.70427 0.0
C1665 C 0.29336 0.10803 0.72787 0.0
H1666 H 0.63407 0.53808 0.41933 0.0
H1667 H 0.64699 0.57607 0.55968 0.0
H1668 H 0.64972 0.53962 0.61064 0.0
H1669 H 0.59774 0.49387 0.47833 0.0
H1670 H 0.60899 0.47042 0.4422 0.0
H1671 H 0.60892 0.49953 0.41463 0.0
H1672 H 0.65378 0.49687 0.40116 0.0
H1673 H 0.65394 0.46772 0.42861 0.0
H1674 H 0.67327 0.48929 0.45559 0.0
H1675 H 0.65032 0.50024 0.64795 0.0
H1676 H 0.64865 0.45867 0.67046 0.0
H1677 H 0.63491 0.44408 0.50833 0.0
C1678 C 0.63766 0.53862 0.46068 0.0
C1679 C 0.64018 0.56005 0.48537 0.0
C1680 C 0.6447 0.56001 0.5397 0.0
C1681 C 0.64641 0.53934 0.56919 0.0
C1682 C 0.64352 0.51862 0.54414 0.0
C1683 C 0.63924 0.5179 0.49125 0.0
C1684 C 0.63624 0.49292 0.47516 0.0
C1685 C 0.6115 0.48896 0.45116 0.0
C1686 C 0.65545 0.48631 0.43792 0.0
C1687 C 0.63943 0.48 0.52733 0.0
C1688 C 0.6437 0.49533 0.5663 0.0
C1689 C 0.64706 0.48798 0.61785 0.0
C1690 C 0.64605 0.46424 0.63022 0.0
C1691 C 0.64166 0.44797 0.59129 0.0
C1692 C 0.63831 0.45604 0.53903 0.0
H1693 H 0.31613 0.88999 0.28274 0.0
H1694 H 0.29719 0.86704 0.43777 0.0
H1695 H 0.25552 0.86487 0.40861 0.0
H1696 H 0.26545 0.92518 0.25289 0.0
H1697 H 0.26258 0.91713 0.18624 0.0
H1698 H 0.29109 0.91678 0.21888 0.0
H1699 H 0.29648 0.87384 0.1964 0.0
H1700 H 0.26796 0.87398 0.16374 0.0
H1701 H 0.27456 0.85279 0.21508 0.0
H1702 H 0.21624 0.86733 0.36525 0.0
H1703 H 0.18091 0.87213 0.30817 0.0
H1704 H 0.22465 0.89098 0.17877 0.0
C1705 C 0.30318 0.88455 0.3105 0.0
C1706 C 0.30982 0.87879 0.36261 0.0
C1707 C 0.29246 0.87148 0.39769 0.0
C1708 C 0.26877 0.87022 0.38152 0.0
C1709 C 0.2628 0.87599 0.32999 0.0
C1710 C 0.27944 0.88281 0.29478 0.0
C1711 C 0.26815 0.88783 0.24149 0.0
C1712 C 0.27205 0.91324 0.22386 0.0
C1713 C 0.27733 0.87111 0.20184 0.0
C1714 C 0.2425 0.88311 0.2526 0.0
C1715 C 0.23994 0.87643 0.30407 0.0
C1716 C 0.218 0.87228 0.32477 0.0
C1717 C 0.19807 0.87514 0.29213 0.0
C1718 C 0.20018 0.8818 0.23924 0.0
C1719 C 0.22268 0.88556 0.21895 0.0
H1720 H 0.6648 0.96258 0.44485 0.0
H1721 H 0.59004 0.94806 0.43003 0.0
H1722 H 0.58167 0.98251 0.48093 0.0
H1723 H 0.66597 0.98185 0.57295 0.0
H1724 H 0.68715 0.00463 0.5618 0.0
H1725 H 0.68721 0.97928 0.5232 0.0
H1726 H 0.68296 0.00503 0.43915 0.0
H1727 H 0.6833 0.0305 0.47742 0.0
H1728 H 0.65917 0.02563 0.43203 0.0
H1729 H 0.58207 0.01678 0.54024 0.0
H1730 H 0.59056 0.05155 0.59116 0.0
H1731 H 0.66482 0.04504 0.56116 0.0
C1732 C 0.64665 0.96686 0.45173 0.0
C1733 C 0.62803 0.95277 0.43349 0.0
C1734 C 0.60451 0.95885 0.44317 0.0
C1735 C 0.59963 0.97823 0.47241 0.0
C1736 C 0.61847 0.99152 0.49082 0.0
C1737 C 0.64147 0.98637 0.47981 0.0
C1738 C 0.65853 0.00365 0.50302 0.0
C1739 C 0.67572 0.99163 0.54259 0.0
C1740 C 0.67176 0.017 0.46036 0.0
C1741 C 0.64159 0.01922 0.52935 0.0
C1742 C 0.61859 0.01176 0.52261 0.0
C1743 C 0.59998 0.02291 0.54524 0.0
C1744 C 0.60498 0.0425 0.57445 0.0
C1745 C 0.62832 0.05093 0.57996 0.0
C1746 C 0.6468 0.03902 0.55731 0.0
H1747 H 0.22735 0.37437 0.86754 0.0
H1748 H 0.18198 0.40432 0.74402 0.0
H1749 H 0.21456 0.40393 0.68455 0.0
H1750 H 0.27936 0.40675 0.83255 0.0
H1751 H 0.29949 0.38322 0.84783 0.0
H1752 H 0.27235 0.38502 0.88152 0.0
H1753 H 0.26122 0.34357 0.85412 0.0
H1754 H 0.28832 0.34169 0.82024 0.0
H1755 H 0.26056 0.33699 0.78642 0.0
H1756 H 0.25146 0.40057 0.63731 0.0
H1757 H 0.29177 0.39596 0.60656 0.0
H1758 H 0.31432 0.36919 0.75951 0.0
C1759 C 0.22434 0.3808 0.82801 0.0
C1760 C 0.20207 0.38949 0.81082 0.0
C1761 C 0.19888 0.39781 0.75865 0.0
C1762 C 0.21727 0.39756 0.72419 0.0
C1763 C 0.23896 0.38905 0.7422 0.0
C1764 C 0.24275 0.38094 0.79283 0.0
C1765 C 0.26816 0.37338 0.80196 0.0
C1766 C 0.28057 0.38797 0.84342 0.0
C1767 C 0.26964 0.34736 0.81654 0.0
C1768 C 0.27786 0.37862 0.7487 0.0
C1769 C 0.26062 0.38747 0.71479 0.0
C1770 C 0.26519 0.39366 0.66344 0.0
C1771 C 0.28813 0.39095 0.64629 0.0
C1772 C 0.30625 0.38227 0.68049 0.0
C1773 C 0.3009 0.37592 0.73231 0.0
H1774 H 0.85905 0.96045 0.1062 0.0
H1775 H 0.90319 0.92806 0.99542 0.0
H1776 H 0.90972 0.96587 0.95187 0.0
H1777 H 0.83109 1.00042 1.01444 0.0
H1778 H 0.83013 0.02416 0.05773 0.0
H1779 H 0.82981 0.99473 0.08335 0.0
H1780 H 0.86634 0.00326 0.14221 0.0
H1781 H 0.86673 0.03275 0.11685 0.0
H1782 H 0.89258 0.01489 0.11364 0.0
H1783 H 0.91095 0.00615 0.91812 0.0
H1784 H 0.90629 0.04747 0.89453 0.0
H1785 H 0.86065 0.05537 0.02444 0.0
C1786 C 0.8703 0.96145 0.07318 0.0
C1787 C 0.88059 0.94122 0.05428 0.0
C1788 C 0.89496 0.9432 1.01052 0.0
C1789 C 0.89889 0.96465 0.98551 0.0
C1790 C 0.88828 0.98414 1.0044 0.0
C1791 C 0.87425 0.9829 0.0471 0.0
C1792 C 0.86427 0.00666 0.05751 0.0
C1793 C 0.83722 0.00647 0.05297 0.0
C1794 C 0.87301 0.01487 0.11072 0.0
C1795 C 0.87479 0.02123 1.01375 0.0
C1796 C 0.88869 0.00778 0.98401 0.0
C1797 C 0.90017 0.01693 0.94115 0.0
C1798 C 0.89737 0.04051 0.92807 0.0
C1799 C 0.88309 0.05483 0.9575 0.0
C1800 C 0.87169 0.04496 1.00109 0.0
H1801 H 0.22099 0.59607 0.15169 0.0
H1802 H 0.20377 0.66917 0.1536 0.0
H1803 H 0.23766 0.67547 0.21402 0.0
H1804 H 0.23934 0.58821 0.28293 0.0
H1805 H 0.26356 0.56919 0.27128 0.0
H1806 H 0.23837 0.57036 0.2271 0.0
H1807 H 0.26532 0.58036 0.15048 0.0
H1808 H 0.29065 0.5788 0.19427 0.0
H1809 H 0.2852 0.60466 0.15454 0.0
H1810 H 0.27114 0.67297 0.28075 0.0
H1811 H 0.30602 0.66333 0.33721 0.0
H1812 H 0.30361 0.59261 0.28613 0.0
C1813 C 0.22463 0.61345 0.16422 0.0
C1814 C 0.20987 0.63216 0.1479 0.0
C1815 C 0.21507 0.65466 0.16511 0.0
C1816 C 0.23414 0.65836 0.19981 0.0
C1817 C 0.24808 0.63946 0.21608 0.0
C1818 C 0.24394 0.61755 0.19784 0.0
C1819 C 0.26197 0.60033 0.22032 0.0
C1820 C 0.25009 0.58088 0.2523 0.0
C1821 C 0.27666 0.59046 0.17734 0.0
C1822 C 0.27667 0.61587 0.25469 0.0
C1823 C 0.26812 0.6383 0.25233 0.0
C1824 C 0.27816 0.65554 0.2824 0.0
C1825 C 0.29781 0.64986 0.31471 0.0
C1826 C 0.30746 0.62725 0.31596 0.0
C1827 C 0.29662 0.61005 0.28573 0.0
H1828 H 0.34985 0.95479 0.47785 0.0
H1829 H 0.42501 0.94836 0.45831 0.0
H1830 H 0.43158 0.98536 0.50217 0.0
H1831 H 0.34806 0.01754 0.45231 0.0
H1832 H 0.32548 0.02194 0.49831 0.0
H1833 H 0.32689 0.99497 0.46563 0.0
H1834 H 0.32893 0.97261 0.55443 0.0
H1835 H 0.3278 0.99951 0.58739 0.0
H1836 H 0.35174 0.9796 0.60147 0.0
H1837 H 0.43005 0.02124 0.55471 0.0
H1838 H 0.42027 0.05677 0.60015 0.0
H1839 H 0.34585 0.04195 0.5778 0.0
C1840 C 0.36765 0.96133 0.48249 0.0
C1841 C 0.38697 0.94881 0.46494 0.0
C1842 C 0.41 0.95786 0.47122 0.0
C1843 C 0.41389 0.97874 0.49636 0.0
C1844 C 0.39449 0.99054 0.51391 0.0
C1845 C 0.37177 0.98245 0.5062 0.0
C1846 C 0.35395 0.99891 0.52709 0.0
C1847 C 0.33763 0.00894 0.48321 0.0
C1848 C 0.33977 0.98694 0.57016 0.0
C1849 C 0.3702 0.01732 0.54857 0.0
C1850 C 0.39354 0.01196 0.54129 0.0
C1851 C 0.41184 0.02576 0.56005 0.0
C1852 C 0.40614 0.04578 0.58614 0.0
C1853 C 0.38235 0.05201 0.59229 0.0
C1854 C 0.36418 0.03759 0.57324 0.0
H1855 H 0.79243 0.62446 0.19137 0.0
H1856 H 0.83533 0.59635 0.3211 0.0
H1857 H 0.80171 0.59859 0.37757 0.0
H1858 H 0.75884 0.66427 0.26491 0.0
H1859 H 0.73149 0.65944 0.22958 0.0
H1860 H 0.75908 0.6561 0.19826 0.0
H1861 H 0.74743 0.61425 0.17487 0.0
H1862 H 0.71977 0.61753 0.20589 0.0
H1863 H 0.73908 0.59385 0.2255 0.0
H1864 H 0.764 0.60403 0.42132 0.0
H1865 H 0.7233 0.61036 0.44803 0.0
H1866 H 0.7038 0.63401 0.29095 0.0
C1867 C 0.79469 0.61875 0.23159 0.0
C1868 C 0.8166 0.61013 0.25145 0.0
C1869 C 0.81877 0.60282 0.30447 0.0
C1870 C 0.79976 0.60412 0.3372 0.0
C1871 C 0.77849 0.61267 0.31662 0.0
C1872 C 0.77569 0.61971 0.26505 0.0
C1873 C 0.75059 0.62768 0.25302 0.0
C1874 C 0.74997 0.6534 0.23541 0.0
C1875 C 0.73851 0.61241 0.21242 0.0
C1876 C 0.73991 0.62394 0.3058 0.0
C1877 C 0.7564 0.61545 0.34195 0.0
C1878 C 0.75085 0.61065 0.39338 0.0
C1879 C 0.72769 0.61436 0.40824 0.0
C1880 C 0.71029 0.62264 0.37172 0.0
C1881 C 0.71664 0.62762 0.31989 0.0
H1882 H 0.16688 0.04973 0.99879 0.0
H1883 H 0.09296 0.05874 0.95568 0.0
H1884 H 0.08348 0.02262 1.00515 0.0
H1885 H 0.16706 0.9875 0.9863 0.0
H1886 H 0.18782 0.98251 0.03978 0.0
H1887 H 0.18846 0.00942 1.00238 0.0
H1888 H 0.18424 0.03203 0.0864 0.0
H1889 H 0.18326 0.00517 0.124 0.0
H1890 H 0.15971 0.02588 0.12722 0.0
H1891 H 0.08194 0.98649 0.06296 0.0
H1892 H 0.08903 0.94984 0.11363 0.0
H1893 H 0.16425 0.9628 0.11312 0.0
C1894 C 0.14872 0.04401 0.99966 0.0
C1895 C 0.13062 0.05697 0.97357 0.0
C1896 C 0.10709 0.04892 0.97512 0.0
C1897 C 0.10153 0.02855 1.00345 0.0
C1898 C 0.11976 0.01628 0.02929 0.0
C1899 C 0.14293 0.02345 0.02676 0.0
C1900 C 0.15934 0.00648 0.05576 0.0
C1901 C 0.17669 0.99584 1.01885 0.0
C1902 C 0.1724 0.01809 0.10103 0.0
C1903 C 0.14177 0.98868 0.07511 0.0
C1904 C 0.11899 0.99488 0.06027 0.0
C1905 C 0.09972 0.98138 0.07452 0.0
C1906 C 0.10389 0.96071 0.10361 0.0
C1907 C 0.12717 0.95356 0.11721 0.0
C1908 C 0.14628 0.96786 0.10313 0.0
H1909 H 0.70147 0.36865 0.779 0.0
H1910 H 0.72433 0.38412 0.62264 0.0
H1911 H 0.76526 0.38702 0.65582 0.0
H1912 H 0.74015 0.4075 0.84248 0.0
H1913 H 0.74614 0.38873 0.8986 0.0
H1914 H 0.71856 0.38643 0.86278 0.0
H1915 H 0.72628 0.34284 0.85023 0.0
H1916 H 0.75389 0.34497 0.88619 0.0
H1917 H 0.75322 0.33406 0.82169 0.0
H1918 H 0.80282 0.39088 0.70492 0.0
H1919 H 0.83597 0.39421 0.7675 0.0
H1920 H 0.79023 0.3753 0.89355 0.0
C1921 C 0.71511 0.37241 0.75163 0.0
C1922 C 0.7096 0.37617 0.69807 0.0
C1923 C 0.728 0.38114 0.66372 0.0
C1924 C 0.75136 0.38281 0.6822 0.0
C1925 C 0.75611 0.3793 0.73509 0.0
C1926 C 0.73863 0.37404 0.76941 0.0
C1927 C 0.74867 0.37169 0.82464 0.0
C1928 C 0.73773 0.38966 0.85915 0.0
C1929 C 0.74532 0.34691 0.847 0.0
C1930 C 0.77448 0.3769 0.81594 0.0
C1931 C 0.77821 0.3812 0.76384 0.0
C1932 C 0.80017 0.38741 0.74575 0.0
C1933 C 0.81886 0.38942 0.78175 0.0
C1934 C 0.81564 0.38517 0.83543 0.0
C1935 C 0.79319 0.37849 0.85274 0.0
loop_
_geom_bond_atom_site_label_1
_geom_bond_atom_site_label_2
_geom_bond_distance
_geom_bond_site_symmetry_2
_ccdc_geom_bond_type
Dy0 O3 2.298 1_556 S
Dy0 O5 2.405 . S
Dy0 O6 2.390 . S
Dy0 O8 2.335 1_556 S
Dy0 O10 2.297 1_556 S
Dy0 O14 2.269 1_556 S
Dy0 C22 2.750 . S
Dy1 O4 2.298 . S
Dy1 O7 2.275 . S
Dy1 O9 2.307 . S
Dy1 O11 2.395 . S
Dy1 O12 2.379 . S
Dy1 O15 2.339 . S
Dy1 C31 2.738 . S
C2 O14 1.254 . S
C2 O15 1.257 . S
O3 Dy0 2.298 1_554 S
O3 C13 1.266 . S
O4 Dy1 2.298 . S
O4 C13 1.236 . S
O5 Dy0 2.405 . S
O5 C22 1.255 . S
O6 Dy0 2.390 . S
O6 C22 1.249 . S
O7 Dy1 2.275 . S
O7 C23 1.254 . S
O8 Dy0 2.335 1_554 S
O8 C23 1.257 . S
O9 Dy1 2.307 . S
O9 C24 1.266 . S
O10 Dy0 2.297 1_554 S
O10 C24 1.236 . S
O11 Dy1 2.395 . S
O11 C31 1.255 . S
O12 Dy1 2.379 . S
O12 C31 1.249 . S
C13 O3 1.266 . S
C13 O4 1.236 . S
O14 Dy0 2.269 1_554 S
O14 C2 1.254 . S
O15 Dy1 2.339 . S
O15 C2 1.257 . S
C16 C19 1.344 . S
C16 C20 1.328 . S
C16 C22 1.516 . S
C17 C18 1.304 . S
C17 C21 1.323 . S
C18 C17 1.304 . S
C18 C19 1.371 . S
C18 H32 0.930 . S
C19 C16 1.344 . S
C19 C18 1.371 . S
C19 H33 0.931 . S
C20 C16 1.328 . S
C20 C21 1.433 . S
C20 H34 0.931 . S
C21 C17 1.323 . S
C21 C20 1.433 . S
C21 H35 0.933 . S
C22 Dy0 2.750 . S
C22 O5 1.255 . S
C22 O6 1.249 . S
C22 C16 1.516 . S
C23 O7 1.254 . S
C23 O8 1.257 . S
C24 O9 1.266 . S
C24 O10 1.236 . S
C25 C28 1.344 . S
C25 C29 1.328 . S
C25 C31 1.516 . S
C26 C27 1.304 . S
C26 C30 1.323 . S
C27 C26 1.304 . S
C27 C28 1.371 . S
C27 H36 0.930 . S
C28 C25 1.344 . S
C28 C27 1.371 . S
C28 H37 0.931 . S
C29 C25 1.328 . S
C29 C30 1.433 . S
C29 H38 0.931 . S
C30 C26 1.323 . S
C30 C29 1.433 . S
C30 H39 0.933 . S
C31 Dy1 2.738 . S
C31 O11 1.255 . S
C31 O12 1.249 . S
C31 C25 1.516 . S
H32 C18 0.930 . S
H33 C19 0.931 . S
H34 C20 0.931 . S
H35 C21 0.933 . S
H36 C27 0.930 . S
H37 C28 0.931 . S
H38 C29 0.931 . S
H39 C30 0.933 . S
Dy40 O43 2.307 . S
Dy40 O45 2.395 . S
Dy40 O46 2.379 . S
Dy40 O48 2.339 . S
Dy40 O50 2.298 . S
Dy40 O54 2.275 . S
Dy40 C62 2.738 . S
Dy41 O44 2.298 . S
Dy41 O47 2.275 . S
Dy41 O49 2.307 . S
Dy41 O51 2.395 . S
Dy41 O52 2.379 . S
Dy41 O55 2.339 . S
Dy41 C71 2.738 . S
C42 O54 1.254 . S
C42 O55 1.257 . S
O43 Dy40 2.307 . S
O43 C53 1.266 . S
O44 Dy41 2.298 . S
O44 C53 1.236 . S
O45 Dy40 2.395 . S
O45 C62 1.255 . S
O46 Dy40 2.379 . S
O46 C62 1.249 . S
O47 Dy41 2.275 . S
O47 C63 1.254 . S
O48 Dy40 2.339 . S
O48 C63 1.257 . S
O49 Dy41 2.307 . S
O49 C64 1.266 . S
O50 Dy40 2.298 . S
O50 C64 1.236 . S
O51 Dy41 2.395 . S
O51 C71 1.255 . S
O52 Dy41 2.379 . S
O52 C71 1.249 . S
C53 O43 1.266 . S
C53 O44 1.236 . S
O54 Dy40 2.275 . S
O54 C42 1.254 . S
O55 Dy41 2.339 . S
O55 C42 1.257 . S
C56 C59 1.344 . S
C56 C60 1.328 . S
C56 C62 1.516 . S
C57 C58 1.304 . S
C57 C61 1.323 . S
C58 C57 1.304 . S
C58 C59 1.371 . S
C58 H72 0.930 . S
C59 C56 1.344 . S
C59 C58 1.371 . S
C59 H73 0.931 . S
C60 C56 1.328 . S
C60 C61 1.433 . S
C60 H74 0.931 . S
C61 C57 1.323 . S
C61 C60 1.433 . S
C61 H75 0.933 . S
C62 Dy40 2.738 . S
C62 O45 1.255 . S
C62 O46 1.249 . S
C62 C56 1.516 . S
C63 O47 1.254 . S
C63 O48 1.257 . S
C64 O49 1.266 . S
C64 O50 1.236 . S
C65 C68 1.344 . S
C65 C69 1.328 . S
C65 C71 1.516 . S
C66 C67 1.304 . S
C66 C70 1.323 . S
C67 C66 1.304 . S
C67 C68 1.371 . S
C67 H76 0.930 . S
C68 C65 1.344 . S
C68 C67 1.371 . S
C68 H77 0.931 . S
C69 C65 1.328 . S
C69 C70 1.433 . S
C69 H78 0.931 . S
C70 C66 1.323 . S
C70 C69 1.433 . S
C70 H79 0.933 . S
C71 Dy41 2.738 . S
C71 O51 1.255 . S
C71 O52 1.249 . S
C71 C65 1.516 . S
H72 C58 0.930 . S
H73 C59 0.931 . S
H74 C60 0.931 . S
H75 C61 0.933 . S
H76 C67 0.930 . S
H77 C68 0.931 . S
H78 C69 0.931 . S
H79 C70 0.933 . S
Dy80 O83 2.307 . S
Dy80 O85 2.395 . S
Dy80 O86 2.379 . S
Dy80 O88 2.339 . S
Dy80 O90 2.298 . S
Dy80 O94 2.275 . S
Dy80 C102 2.738 . S
Dy81 O84 2.298 . S
Dy81 O87 2.275 . S
Dy81 O89 2.307 . S
Dy81 O91 2.395 . S
Dy81 O92 2.379 . S
Dy81 O95 2.339 . S
Dy81 C111 2.738 . S
C82 O94 1.254 . S
C82 O95 1.257 . S
O83 Dy80 2.307 . S
O83 C93 1.266 . S
O84 Dy81 2.298 . S
O84 C93 1.236 . S
O85 Dy80 2.395 . S
O85 C102 1.255 . S
O86 Dy80 2.379 . S
O86 C102 1.249 . S
O87 Dy81 2.275 . S
O87 C103 1.254 . S
O88 Dy80 2.339 . S
O88 C103 1.257 . S
O89 Dy81 2.307 . S
O89 C104 1.266 . S
O90 Dy80 2.298 . S
O90 C104 1.236 . S
O91 Dy81 2.395 . S
O91 C111 1.255 . S
O92 Dy81 2.379 . S
O92 C111 1.249 . S
C93 O83 1.266 . S
C93 O84 1.236 . S
O94 Dy80 2.275 . S
O94 C82 1.254 . S
O95 Dy81 2.339 . S
O95 C82 1.257 . S
C96 C99 1.344 . S
C96 C100 1.328 . S
C96 C102 1.516 . S
C97 C98 1.304 . S
C97 C101 1.323 . S
C98 C97 1.304 . S
C98 C99 1.371 . S
C98 H112 0.930 . S
C99 C96 1.344 . S
C99 C98 1.371 . S
C99 H113 0.931 . S
C100 C96 1.328 . S
C100 C101 1.433 . S
C100 H114 0.931 . S
C101 C97 1.323 . S
C101 C100 1.433 . S
C101 H115 0.933 . S
C102 Dy80 2.738 . S
C102 O85 1.255 . S
C102 O86 1.249 . S
C102 C96 1.516 . S
C103 O87 1.254 . S
C103 O88 1.257 . S
C104 O89 1.266 . S
C104 O90 1.236 . S
C105 C108 1.344 . S
C105 C109 1.328 . S
C105 C111 1.516 . S
C106 C107 1.304 . S
C106 C110 1.323 . S
C107 C106 1.304 . S
C107 C108 1.371 . S
C107 H116 0.930 . S
C108 C105 1.344 . S
C108 C107 1.371 . S
C108 H117 0.931 . S
C109 C105 1.328 . S
C109 C110 1.433 . S
C109 H118 0.931 . S
C110 C106 1.323 . S
C110 C109 1.433 . S
C110 H119 0.933 . S
C111 Dy81 2.738 . S
C111 O91 1.255 . S
C111 O92 1.249 . S
C111 C105 1.516 . S
H112 C98 0.930 . S
H113 C99 0.931 . S
H114 C100 0.931 . S
H115 C101 0.933 . S
H116 C107 0.930 . S
H117 C108 0.931 . S
H118 C109 0.931 . S
H119 C110 0.933 . S
Dy120 O123 2.307 . S
Dy120 O125 2.395 . S
Dy120 O126 2.379 . S
Dy120 O128 2.339 . S
Dy120 O130 2.298 . S
Dy120 O134 2.275 . S
Dy120 C142 2.738 . S
Dy121 O124 2.298 . S
Dy121 O127 2.275 . S
Dy121 O129 2.307 . S
Dy121 O131 2.395 1_556 S
Dy121 O132 2.379 1_556 S
Dy121 O135 2.339 . S
Dy121 C151 2.738 1_556 S
C122 O134 1.254 . S
C122 O135 1.257 . S
O123 Dy120 2.307 . S
O123 C133 1.266 . S
O124 Dy121 2.298 . S
O124 C133 1.236 . S
O125 Dy120 2.395 . S
O125 C142 1.255 . S
O126 Dy120 2.379 . S
O126 C142 1.249 . S
O127 Dy121 2.275 . S
O127 C143 1.254 . S
O128 Dy120 2.339 . S
O128 C143 1.257 . S
O129 Dy121 2.307 . S
O129 C144 1.266 . S
O130 Dy120 2.298 . S
O130 C144 1.236 . S
O131 Dy121 2.395 1_554 S
O131 C151 1.255 . S
O132 Dy121 2.379 1_554 S
O132 C151 1.249 . S
C133 O123 1.266 . S
C133 O124 1.236 . S
O134 Dy120 2.275 . S
O134 C122 1.254 . S
O135 Dy121 2.339 . S
O135 C122 1.257 . S
C136 C139 1.344 . S
C136 C140 1.328 . S
C136 C142 1.516 . S
C137 C138 1.304 . S
C137 C141 1.323 . S
C138 C137 1.304 . S
C138 C139 1.371 . S
C138 H152 0.930 . S
C139 C136 1.344 . S
C139 C138 1.371 . S
C139 H153 0.931 . S
C140 C136 1.328 . S
C140 C141 1.433 . S
C140 H154 0.931 . S
C141 C137 1.323 . S
C141 C140 1.433 . S
C141 H155 0.933 . S
C142 Dy120 2.738 . S
C142 O125 1.255 . S
C142 O126 1.249 . S
C142 C136 1.516 . S
C143 O127 1.254 . S
C143 O128 1.257 . S
C144 O129 1.266 . S
C144 O130 1.236 . S
C145 C148 1.344 . S
C145 C149 1.328 . S
C145 C151 1.516 . S
C146 C147 1.304 . S
C146 C150 1.323 . S
C147 C146 1.304 . S
C147 C148 1.371 . S
C147 H156 0.930 . S
C148 C145 1.344 . S
C148 C147 1.371 . S
C148 H157 0.931 . S
C149 C145 1.328 . S
C149 C150 1.433 . S
C149 H158 0.931 . S
C150 C146 1.323 . S
C150 C149 1.433 . S
C150 H159 0.933 . S
C151 Dy121 2.738 1_554 S
C151 O131 1.255 . S
C151 O132 1.249 . S
C151 C145 1.516 . S
H152 C138 0.930 . S
H153 C139 0.931 . S
H154 C140 0.931 . S
H155 C141 0.933 . S
H156 C147 0.930 . S
H157 C148 0.931 . S
H158 C149 0.931 . S
H159 C150 0.933 . S
Dy160 O163 2.307 . S
Dy160 O165 2.395 . S
Dy160 O166 2.379 . S
Dy160 O168 2.339 . S
Dy160 O170 2.298 . S
Dy160 O174 2.275 . S
Dy160 C182 2.738 . S
Dy161 O164 2.298 . S
Dy161 O167 2.275 . S
Dy161 O169 2.307 . S
Dy161 O171 2.395 . S
Dy161 O172 2.359 1_556 S
Dy161 O175 2.339 . S
Dy161 C191 2.738 1_556 S
C162 O174 1.254 . S
C162 O175 1.257 . S
O163 Dy160 2.307 . S
O163 C173 1.266 . S
O164 Dy161 2.298 . S
O164 C173 1.236 . S
O165 Dy160 2.395 . S
O165 C182 1.255 . S
O166 Dy160 2.379 . S
O166 C182 1.249 . S
O167 Dy161 2.275 . S
O167 C183 1.254 . S
O168 Dy160 2.339 . S
O168 C183 1.257 . S
O169 Dy161 2.307 . S
O169 C184 1.266 . S
O170 Dy160 2.298 . S
O170 C184 1.236 . S
O171 Dy161 2.395 . S
O171 C191 1.255 1_556 S
O172 Dy161 2.359 1_554 S
O172 C191 1.259 . S
C173 O163 1.266 . S
C173 O164 1.236 . S
O174 Dy160 2.275 . S
O174 C162 1.254 . S
O175 Dy161 2.339 . S
O175 C162 1.257 . S
C176 C179 1.344 . S
C176 C180 1.328 . S
C176 C182 1.516 . S
C177 C178 1.304 . S
C177 C181 1.323 . S
C178 C177 1.304 . S
C178 C179 1.371 . S
C178 H192 0.930 . S
C179 C176 1.344 . S
C179 C178 1.371 . S
C179 H193 0.931 . S
C180 C176 1.328 . S
C180 C181 1.433 . S
C180 H194 0.931 . S
C181 C177 1.323 . S
C181 C180 1.433 . S
C181 H195 0.933 . S
C182 Dy160 2.738 . S
C182 O165 1.255 . S
C182 O166 1.249 . S
C182 C176 1.516 . S
C183 O167 1.254 . S
C183 O168 1.257 . S
C184 O169 1.266 . S
C184 O170 1.236 . S
C185 C188 1.344 . S
C185 C189 1.328 . S
C185 C191 1.516 . S
C186 C187 1.304 . S
C186 C190 1.323 . S
C187 C186 1.304 . S
C187 C188 1.371 . S
C187 H196 0.930 . S
C188 C185 1.344 . S
C188 C187 1.371 . S
C188 H197 0.931 . S
C189 C185 1.328 . S
C189 C190 1.433 . S
C189 H198 0.931 . S
C190 C186 1.323 . S
C190 C189 1.433 . S
C190 H199 0.933 . S
C191 Dy161 2.738 1_554 S
C191 O171 1.255 1_554 S
C191 O172 1.259 . S
C191 C185 1.516 . S
H192 C178 0.930 . S
H193 C179 0.931 . S
H194 C180 0.931 . S
H195 C181 0.933 . S
H196 C187 0.930 . S
H197 C188 0.931 . S
H198 C189 0.931 . S
H199 C190 0.933 . S
Dy200 O203 2.307 . S
Dy200 O205 2.395 . S
Dy200 O206 2.379 . S
Dy200 O208 2.339 . S
Dy200 O210 2.298 . S
Dy200 O214 2.275 . S
Dy200 C222 2.738 . S
Dy201 O204 2.298 . S
Dy201 O207 2.275 . S
Dy201 O209 2.307 . S
Dy201 O211 2.395 1_554 S
Dy201 O212 2.379 1_554 S
Dy201 O215 2.339 . S
Dy201 C231 2.738 1_554 S
C202 O214 1.254 . S
C202 O215 1.257 . S
O203 Dy200 2.307 . S
O203 C213 1.266 . S
O204 Dy201 2.298 . S
O204 C213 1.236 . S
O205 Dy200 2.395 . S
O205 C222 1.255 . S
O206 Dy200 2.379 . S
O206 C222 1.249 . S
O207 Dy201 2.275 . S
O207 C223 1.254 . S
O208 Dy200 2.339 . S
O208 C223 1.257 . S
O209 Dy201 2.307 . S
O209 C224 1.266 . S
O210 Dy200 2.298 . S
O210 C224 1.236 . S
O211 Dy201 2.395 1_556 S
O211 C231 1.255 . S
O212 Dy201 2.379 1_556 S
O212 C231 1.249 . S
C213 O203 1.266 . S
C213 O204 1.236 . S
O214 Dy200 2.275 . S
O214 C202 1.254 . S
O215 Dy201 2.339 . S
O215 C202 1.257 . S
C216 C219 1.344 . S
C216 C220 1.328 . S
C216 C222 1.516 . S
C217 C218 1.304 . S
C217 C221 1.323 . S
C218 C217 1.304 . S
C218 C219 1.371 . S
C218 H232 0.930 . S
C219 C216 1.344 . S
C219 C218 1.371 . S
C219 H233 0.931 . S
C220 C216 1.328 . S
C220 C221 1.433 . S
C220 H234 0.931 . S
C221 C217 1.323 . S
C221 C220 1.433 . S
C221 H235 0.933 . S
C222 Dy200 2.738 . S
C222 O205 1.255 . S
C222 O206 1.249 . S
C222 C216 1.516 . S
C223 O207 1.254 . S
C223 O208 1.257 . S
C224 O209 1.266 . S
C224 O210 1.236 . S
C225 C228 1.344 . S
C225 C229 1.328 . S
C225 C231 1.516 . S
C226 C227 1.304 . S
C226 C230 1.323 . S
C227 C226 1.304 . S
C227 C228 1.371 . S
C227 H236 0.930 . S
C228 C225 1.344 . S
C228 C227 1.371 . S
C228 H237 0.931 . S
C229 C225 1.328 . S
C229 C230 1.433 . S
C229 H238 0.931 . S
C230 C226 1.323 . S
C230 C229 1.433 . S
C230 H239 0.933 . S
C231 Dy201 2.738 1_556 S
C231 O211 1.255 . S
C231 O212 1.249 . S
C231 C225 1.516 . S
H232 C218 0.930 . S
H233 C219 0.931 . S
H234 C220 0.931 . S
H235 C221 0.933 . S
H236 C227 0.930 . S
H237 C228 0.931 . S
H238 C229 0.931 . S
H239 C230 0.933 . S
Dy240 O243 2.307 . S
Dy240 O245 2.395 . S
Dy240 O246 2.379 . S
Dy240 O248 2.339 . S
Dy240 O250 2.298 . S
Dy240 O254 2.275 . S
Dy240 C262 2.738 . S
Dy241 O244 2.298 . S
Dy241 O247 2.275 . S
Dy241 O249 2.307 . S
Dy241 O251 2.395 . S
Dy241 O252 2.379 . S
Dy241 O255 2.339 . S
Dy241 C271 2.738 . S
C242 O254 1.254 . S
C242 O255 1.257 . S
O243 Dy240 2.307 . S
O243 C253 1.266 . S
O244 Dy241 2.298 . S
O244 C253 1.236 . S
O245 Dy240 2.395 . S
O245 C262 1.255 . S
O246 Dy240 2.379 . S
O246 C262 1.249 . S
O247 Dy241 2.275 . S
O247 C263 1.254 . S
O248 Dy240 2.339 . S
O248 C263 1.257 . S
O249 Dy241 2.307 . S
O249 C264 1.266 . S
O250 Dy240 2.298 . S
O250 C264 1.236 . S
O251 Dy241 2.395 . S
O251 C271 1.255 . S
O252 Dy241 2.379 . S
O252 C271 1.249 . S
C253 O243 1.266 . S
C253 O244 1.236 . S
O254 Dy240 2.275 . S
O254 C242 1.254 . S
O255 Dy241 2.339 . S
O255 C242 1.257 . S
C256 C259 1.344 . S
C256 C260 1.328 . S
C256 C262 1.516 . S
C257 C258 1.304 . S
C257 C261 1.323 . S
C258 C257 1.304 . S
C258 C259 1.371 . S
C258 H272 0.930 . S
C259 C256 1.344 . S
C259 C258 1.371 . S
C259 H273 0.931 . S
C260 C256 1.328 . S
C260 C261 1.433 . S
C260 H274 0.931 . S
C261 C257 1.323 . S
C261 C260 1.433 . S
C261 H275 0.933 . S
C262 Dy240 2.738 . S
C262 O245 1.255 . S
C262 O246 1.249 . S
C262 C256 1.516 . S
C263 O247 1.254 . S
C263 O248 1.257 . S
C264 O249 1.266 . S
C264 O250 1.236 . S
C265 C268 1.344 . S
C265 C269 1.328 . S
C265 C271 1.516 . S
C266 C267 1.304 . S
C266 C270 1.323 . S
C267 C266 1.304 . S
C267 C268 1.371 . S
C267 H276 0.930 . S
C268 C265 1.344 . S
C268 C267 1.371 . S
C268 H277 0.931 . S
C269 C265 1.328 . S
C269 C270 1.433 . S
C269 H278 0.931 . S
C270 C266 1.323 . S
C270 C269 1.433 . S
C270 H279 0.933 . S
C271 Dy241 2.738 . S
C271 O251 1.255 . S
C271 O252 1.249 . S
C271 C265 1.516 . S
H272 C258 0.930 . S
H273 C259 0.931 . S
H274 C260 0.931 . S
H275 C261 0.933 . S
H276 C267 0.930 . S
H277 C268 0.931 . S
H278 C269 0.931 . S
H279 C270 0.933 . S
Dy280 O283 2.307 . S
Dy280 O285 2.395 . S
Dy280 O286 2.379 . S
Dy280 O288 2.339 . S
Dy280 O290 2.298 . S
Dy280 O294 2.275 . S
Dy280 C302 2.738 . S
Dy281 O284 2.298 . S
Dy281 O287 2.275 . S
Dy281 O289 2.307 . S
Dy281 O291 2.395 . S
Dy281 O292 2.379 . S
Dy281 O295 2.339 . S
Dy281 C311 2.738 . S
C282 O294 1.254 . S
C282 O295 1.257 . S
O283 Dy280 2.307 . S
O283 C293 1.266 . S
O284 Dy281 2.298 . S
O284 C293 1.236 . S
O285 Dy280 2.395 . S
O285 C302 1.255 . S
O286 Dy280 2.379 . S
O286 C302 1.249 . S
O287 Dy281 2.275 . S
O287 C303 1.254 . S
O288 Dy280 2.339 . S
O288 C303 1.257 . S
O289 Dy281 2.307 . S
O289 C304 1.266 . S
O290 Dy280 2.298 . S
O290 C304 1.236 . S
O291 Dy281 2.395 . S
O291 C311 1.255 . S
O292 Dy281 2.379 . S
O292 C311 1.249 . S
C293 O283 1.266 . S
C293 O284 1.236 . S
O294 Dy280 2.275 . S
O294 C282 1.254 . S
O295 Dy281 2.339 . S
O295 C282 1.257 . S
C296 C299 1.344 . S
C296 C300 1.328 . S
C296 C302 1.516 . S
C297 C298 1.304 . S
C297 C301 1.323 . S
C298 C297 1.304 . S
C298 C299 1.371 . S
C298 H312 0.930 . S
C299 C296 1.344 . S
C299 C298 1.371 . S
C299 H313 0.931 . S
C300 C296 1.328 . S
C300 C301 1.433 . S
C300 H314 0.931 . S
C301 C297 1.323 . S
C301 C300 1.433 . S
C301 H315 0.933 . S
C302 Dy280 2.738 . S
C302 O285 1.255 . S
C302 O286 1.249 . S
C302 C296 1.516 . S
C303 O287 1.254 . S
C303 O288 1.257 . S
C304 O289 1.266 . S
C304 O290 1.236 . S
C305 C308 1.344 . S
C305 C309 1.328 . S
C305 C311 1.516 . S
C306 C307 1.304 . S
C306 C310 1.323 . S
C307 C306 1.304 . S
C307 C308 1.371 . S
C307 H316 0.930 . S
C308 C305 1.344 . S
C308 C307 1.371 . S
C308 H317 0.931 . S
C309 C305 1.328 . S
C309 C310 1.433 . S
C309 H318 0.931 . S
C310 C306 1.323 . S
C310 C309 1.433 . S
C310 H319 0.933 . S
C311 Dy281 2.738 . S
C311 O291 1.255 . S
C311 O292 1.249 . S
C311 C305 1.516 . S
H312 C298 0.930 . S
H313 C299 0.931 . S
H314 C300 0.931 . S
H315 C301 0.933 . S
H316 C307 0.930 . S
H317 C308 0.931 . S
H318 C309 0.931 . S
H319 C310 0.933 . S
Dy320 O323 2.307 . S
Dy320 O325 2.395 . S
Dy320 O326 2.379 . S
Dy320 O328 2.339 . S
Dy320 O330 2.298 . S
Dy320 O334 2.275 . S
Dy320 C342 2.738 . S
Dy321 O324 2.297 1_554 S
Dy321 O327 2.269 1_554 S
Dy321 O329 2.298 1_554 S
Dy321 O331 2.405 . S
Dy321 O332 2.390 . S
Dy321 O335 2.335 1_554 S
Dy321 C351 2.750 . S
C322 O334 1.254 . S
C322 O335 1.257 . S
O323 Dy320 2.307 . S
O323 C333 1.266 . S
O324 Dy321 2.297 1_556 S
O324 C333 1.236 . S
O325 Dy320 2.395 . S
O325 C342 1.255 . S
O326 Dy320 2.379 . S
O326 C342 1.249 . S
O327 Dy321 2.269 1_556 S
O327 C343 1.254 . S
O328 Dy320 2.339 . S
O328 C343 1.257 . S
O329 Dy321 2.298 1_556 S
O329 C344 1.266 . S
O330 Dy320 2.298 . S
O330 C344 1.236 . S
O331 Dy321 2.405 . S
O331 C351 1.255 . S
O332 Dy321 2.390 . S
O332 C351 1.249 . S
C333 O323 1.266 . S
C333 O324 1.236 . S
O334 Dy320 2.275 . S
O334 C322 1.254 . S
O335 Dy321 2.335 1_556 S
O335 C322 1.257 . S
C336 C339 1.344 . S
C336 C340 1.328 . S
C336 C342 1.516 . S
C337 C338 1.304 . S
C337 C341 1.323 . S
C338 C337 1.304 . S
C338 C339 1.371 . S
C338 H352 0.930 . S
C339 C336 1.344 . S
C339 C338 1.371 . S
C339 H353 0.931 . S
C340 C336 1.328 . S
C340 C341 1.433 . S
C340 H354 0.931 . S
C341 C337 1.323 . S
C341 C340 1.433 . S
C341 H355 0.933 . S
C342 Dy320 2.738 . S
C342 O325 1.255 . S
C342 O326 1.249 . S
C342 C336 1.516 . S
C343 O327 1.254 . S
C343 O328 1.257 . S
C344 O329 1.266 . S
C344 O330 1.236 . S
C345 C348 1.344 . S
C345 C349 1.328 . S
C345 C351 1.516 . S
C346 C347 1.304 . S
C346 C350 1.323 . S
C347 C346 1.304 . S
C347 C348 1.371 . S
C347 H356 0.930 . S
C348 C345 1.344 . S
C348 C347 1.371 . S
C348 H357 0.931 . S
C349 C345 1.328 . S
C349 C350 1.433 . S
C349 H358 0.931 . S
C350 C346 1.323 . S
C350 C349 1.433 . S
C350 H359 0.933 . S
C351 Dy321 2.750 . S
C351 O331 1.255 . S
C351 O332 1.249 . S
C351 C345 1.516 . S
H352 C338 0.930 . S
H353 C339 0.931 . S
H354 C340 0.931 . S
H355 C341 0.933 . S
H356 C347 0.930 . S
H357 C348 0.931 . S
H358 C349 0.931 . S
H359 C350 0.933 . S
Dy360 O363 2.307 . S
Dy360 O365 2.395 . S
Dy360 O366 2.379 . S
Dy360 O368 2.339 . S
Dy360 O370 2.298 . S
Dy360 O374 2.275 . S
Dy360 C382 2.738 . S
Dy361 O364 2.298 . S
Dy361 O367 2.275 . S
Dy361 O369 2.307 . S
Dy361 O371 2.395 . S
Dy361 O372 2.379 . S
Dy361 O375 2.339 . S
Dy361 C391 2.738 . S
C362 O374 1.254 . S
C362 O375 1.257 . S
O363 Dy360 2.307 . S
O363 C373 1.266 . S
O364 Dy361 2.298 . S
O364 C373 1.236 . S
O365 Dy360 2.395 . S
O365 C382 1.255 . S
O366 Dy360 2.379 . S
O366 C382 1.249 . S
O367 Dy361 2.275 . S
O367 C383 1.254 . S
O368 Dy360 2.339 . S
O368 C383 1.257 . S
O369 Dy361 2.307 . S
O369 C384 1.266 . S
O370 Dy360 2.298 . S
O370 C384 1.236 . S
O371 Dy361 2.395 . S
O371 C391 1.255 . S
O372 Dy361 2.379 . S
O372 C391 1.249 . S
C373 O363 1.266 . S
C373 O364 1.236 . S
O374 Dy360 2.275 . S
O374 C362 1.254 . S
O375 Dy361 2.339 . S
O375 C362 1.257 . S
C376 C379 1.344 . S
C376 C380 1.328 . S
C376 C382 1.516 . S
C377 C378 1.304 . S
C377 C381 1.323 . S
C378 C377 1.304 . S
C378 C379 1.371 . S
C378 H392 0.930 . S
C379 C376 1.344 . S
C379 C378 1.371 . S
C379 H393 0.931 . S
C380 C376 1.328 . S
C380 C381 1.433 . S
C380 H394 0.931 . S
C381 C377 1.323 . S
C381 C380 1.433 . S
C381 H395 0.933 . S
C382 Dy360 2.738 . S
C382 O365 1.255 . S
C382 O366 1.249 . S
C382 C376 1.516 . S
C383 O367 1.254 . S
C383 O368 1.257 . S
C384 O369 1.266 . S
C384 O370 1.236 . S
C385 C388 1.344 . S
C385 C389 1.328 . S
C385 C391 1.516 . S
C386 C387 1.304 . S
C386 C390 1.323 . S
C387 C386 1.304 . S
C387 C388 1.371 . S
C387 H396 0.930 . S
C388 C385 1.344 . S
C388 C387 1.371 . S
C388 H397 0.931 . S
C389 C385 1.328 . S
C389 C390 1.433 . S
C389 H398 0.931 . S
C390 C386 1.323 . S
C390 C389 1.433 . S
C390 H399 0.933 . S
C391 Dy361 2.738 . S
C391 O371 1.255 . S
C391 O372 1.249 . S
C391 C385 1.516 . S
H392 C378 0.930 . S
H393 C379 0.931 . S
H394 C380 0.931 . S
H395 C381 0.933 . S
H396 C387 0.930 . S
H397 C388 0.931 . S
H398 C389 0.931 . S
H399 C390 0.933 . S
Dy400 O403 2.307 . S
Dy400 O405 2.395 . S
Dy400 O406 2.379 . S
Dy400 O408 2.339 . S
Dy400 O410 2.298 . S
Dy400 O414 2.275 . S
Dy400 C422 2.738 . S
Dy401 O404 2.298 . S
Dy401 O407 2.275 . S
Dy401 O409 2.307 . S
Dy401 O411 2.395 . S
Dy401 O412 2.379 . S
Dy401 O415 2.339 . S
Dy401 C431 2.738 . S
C402 O414 1.254 . S
C402 O415 1.257 . S
O403 Dy400 2.307 . S
O403 C413 1.266 . S
O404 Dy401 2.298 . S
O404 C413 1.236 . S
O405 Dy400 2.395 . S
O405 C422 1.255 . S
O406 Dy400 2.379 . S
O406 C422 1.249 . S
O407 Dy401 2.275 . S
O407 C423 1.254 . S
O408 Dy400 2.339 . S
O408 C423 1.257 . S
O409 Dy401 2.307 . S
O409 C424 1.266 . S
O410 Dy400 2.298 . S
O410 C424 1.236 . S
O411 Dy401 2.395 . S
O411 C431 1.255 . S
O412 Dy401 2.379 . S
O412 C431 1.249 . S
C413 O403 1.266 . S
C413 O404 1.236 . S
O414 Dy400 2.275 . S
O414 C402 1.254 . S
O415 Dy401 2.339 . S
O415 C402 1.257 . S
C416 C419 1.344 . S
C416 C420 1.328 . S
C416 C422 1.516 . S
C417 C418 1.304 . S
C417 C421 1.323 . S
C418 C417 1.304 . S
C418 C419 1.371 . S
C418 H432 0.930 . S
C419 C416 1.344 . S
C419 C418 1.371 . S
C419 H433 0.931 . S
C420 C416 1.328 . S
C420 C421 1.433 . S
C420 H434 0.931 . S
C421 C417 1.323 . S
C421 C420 1.433 . S
C421 H435 0.933 . S
C422 Dy400 2.738 . S
C422 O405 1.255 . S
C422 O406 1.249 . S
C422 C416 1.516 . S
C423 O407 1.254 . S
C423 O408 1.257 . S
C424 O409 1.266 . S
C424 O410 1.236 . S
C425 C428 1.344 . S
C425 C429 1.328 . S
C425 C431 1.516 . S
C426 C427 1.304 . S
C426 C430 1.323 . S
C427 C426 1.304 . S
C427 C428 1.371 . S
C427 H436 0.930 . S
C428 C425 1.344 . S
C428 C427 1.371 . S
C428 H437 0.931 . S
C429 C425 1.328 . S
C429 C430 1.433 . S
C429 H438 0.931 . S
C430 C426 1.323 . S
C430 C429 1.433 . S
C430 H439 0.933 . S
C431 Dy401 2.738 . S
C431 O411 1.255 . S
C431 O412 1.249 . S
C431 C425 1.516 . S
H432 C418 0.930 . S
H433 C419 0.931 . S
H434 C420 0.931 . S
H435 C421 0.933 . S
H436 C427 0.930 . S
H437 C428 0.931 . S
H438 C429 0.931 . S
H439 C430 0.933 . S
Dy440 O443 2.307 . S
Dy440 O445 2.395 1_554 S
Dy440 O446 2.379 1_554 S
Dy440 O448 2.339 . S
Dy440 O450 2.298 . S
Dy440 O454 2.275 . S
Dy440 C462 2.738 1_554 S
Dy441 O444 2.298 . S
Dy441 O447 2.275 . S
Dy441 O449 2.307 . S
Dy441 O451 2.395 . S
Dy441 O452 2.379 . S
Dy441 O455 2.339 . S
Dy441 C471 2.738 . S
C442 O454 1.254 . S
C442 O455 1.257 . S
O443 Dy440 2.307 . S
O443 C453 1.266 . S
O444 Dy441 2.298 . S
O444 C453 1.236 . S
O445 Dy440 2.395 1_556 S
O445 C462 1.255 . S
O446 Dy440 2.379 1_556 S
O446 C462 1.249 . S
O447 Dy441 2.275 . S
O447 C463 1.254 . S
O448 Dy440 2.339 . S
O448 C463 1.257 . S
O449 Dy441 2.307 . S
O449 C464 1.266 . S
O450 Dy440 2.298 . S
O450 C464 1.236 . S
O451 Dy441 2.395 . S
O451 C471 1.255 . S
O452 Dy441 2.379 . S
O452 C471 1.249 . S
C453 O443 1.266 . S
C453 O444 1.236 . S
O454 Dy440 2.275 . S
O454 C442 1.254 . S
O455 Dy441 2.339 . S
O455 C442 1.257 . S
C456 C459 1.344 . S
C456 C460 1.328 . S
C456 C462 1.516 . S
C457 C458 1.304 . S
C457 C461 1.323 . S
C458 C457 1.304 . S
C458 C459 1.371 . S
C458 H472 0.930 . S
C459 C456 1.344 . S
C459 C458 1.371 . S
C459 H473 0.931 . S
C460 C456 1.328 . S
C460 C461 1.433 . S
C460 H474 0.931 . S
C461 C457 1.323 . S
C461 C460 1.433 . S
C461 H475 0.933 . S
C462 Dy440 2.738 1_556 S
C462 O445 1.255 . S
C462 O446 1.249 . S
C462 C456 1.516 . S
C463 O447 1.254 . S
C463 O448 1.257 . S
C464 O449 1.266 . S
C464 O450 1.236 . S
C465 C468 1.344 . S
C465 C469 1.328 . S
C465 C471 1.516 . S
C466 C467 1.304 . S
C466 C470 1.323 . S
C467 C466 1.304 . S
C467 C468 1.371 . S
C467 H476 0.930 . S
C468 C465 1.344 . S
C468 C467 1.371 . S
C468 H477 0.931 . S
C469 C465 1.328 . S
C469 C470 1.433 . S
C469 H478 0.931 . S
C470 C466 1.323 . S
C470 C469 1.433 . S
C470 H479 0.933 . S
C471 Dy441 2.738 . S
C471 O451 1.255 . S
C471 O452 1.249 . S
C471 C465 1.516 . S
H472 C458 0.930 . S
H473 C459 0.931 . S
H474 C460 0.931 . S
H475 C461 0.933 . S
H476 C467 0.930 . S
H477 C468 0.931 . S
H478 C469 0.931 . S
H479 C470 0.933 . S
Dy480 O483 2.307 . S
Dy480 O485 2.395 . S
Dy480 O486 2.359 1_554 S
Dy480 O488 2.339 . S
Dy480 O490 2.298 . S
Dy480 O494 2.275 . S
Dy480 C502 2.738 1_554 S
Dy481 O484 2.298 . S
Dy481 O487 2.275 . S
Dy481 O489 2.307 . S
Dy481 O491 2.395 . S
Dy481 O492 2.379 . S
Dy481 O495 2.339 . S
Dy481 C511 2.738 . S
C482 O494 1.254 . S
C482 O495 1.257 . S
O483 Dy480 2.307 . S
O483 C493 1.266 . S
O484 Dy481 2.298 . S
O484 C493 1.236 . S
O485 Dy480 2.395 . S
O485 C502 1.255 1_554 S
O486 Dy480 2.359 1_556 S
O486 C502 1.259 . S
O487 Dy481 2.275 . S
O487 C503 1.254 . S
O488 Dy480 2.339 . S
O488 C503 1.257 . S
O489 Dy481 2.307 . S
O489 C504 1.266 . S
O490 Dy480 2.298 . S
O490 C504 1.236 . S
O491 Dy481 2.395 . S
O491 C511 1.255 . S
O492 Dy481 2.379 . S
O492 C511 1.249 . S
C493 O483 1.266 . S
C493 O484 1.236 . S
O494 Dy480 2.275 . S
O494 C482 1.254 . S
O495 Dy481 2.339 . S
O495 C482 1.257 . S
C496 C499 1.344 . S
C496 C500 1.328 . S
C496 C502 1.516 . S
C497 C498 1.304 . S
C497 C501 1.323 . S
C498 C497 1.304 . S
C498 C499 1.371 . S
C498 H512 0.930 . S
C499 C496 1.344 . S
C499 C498 1.371 . S
C499 H513 0.931 . S
C500 C496 1.328 . S
C500 C501 1.433 . S
C500 H514 0.931 . S
C501 C497 1.323 . S
C501 C500 1.433 . S
C501 H515 0.933 . S
C502 Dy480 2.738 1_556 S
C502 O485 1.255 1_556 S
C502 O486 1.259 . S
C502 C496 1.516 . S
C503 O487 1.254 . S
C503 O488 1.257 . S
C504 O489 1.266 . S
C504 O490 1.236 . S
C505 C508 1.344 . S
C505 C509 1.328 . S
C505 C511 1.516 . S
C506 C507 1.304 . S
C506 C510 1.323 . S
C507 C506 1.304 . S
C507 C508 1.371 . S
C507 H516 0.930 . S
C508 C505 1.344 . S
C508 C507 1.371 . S
C508 H517 0.931 . S
C509 C505 1.328 . S
C509 C510 1.433 . S
C509 H518 0.931 . S
C510 C506 1.323 . S
C510 C509 1.433 . S
C510 H519 0.933 . S
C511 Dy481 2.738 . S
C511 O491 1.255 . S
C511 O492 1.249 . S
C511 C505 1.516 . S
H512 C498 0.930 . S
H513 C499 0.931 . S
H514 C500 0.931 . S
H515 C501 0.933 . S
H516 C507 0.930 . S
H517 C508 0.931 . S
H518 C509 0.931 . S
H519 C510 0.933 . S
Dy520 O523 2.307 . S
Dy520 O525 2.395 1_556 S
Dy520 O526 2.379 1_556 S
Dy520 O528 2.339 . S
Dy520 O530 2.298 . S
Dy520 O534 2.275 . S
Dy520 C542 2.738 1_556 S
Dy521 O524 2.298 . S
Dy521 O527 2.275 . S
Dy521 O529 2.307 . S
Dy521 O531 2.395 . S
Dy521 O532 2.379 . S
Dy521 O535 2.339 . S
Dy521 C551 2.738 . S
C522 O534 1.254 . S
C522 O535 1.257 . S
O523 Dy520 2.307 . S
O523 C533 1.266 . S
O524 Dy521 2.298 . S
O524 C533 1.236 . S
O525 Dy520 2.395 1_554 S
O525 C542 1.255 . S
O526 Dy520 2.379 1_554 S
O526 C542 1.249 . S
O527 Dy521 2.275 . S
O527 C543 1.254 . S
O528 Dy520 2.339 . S
O528 C543 1.257 . S
O529 Dy521 2.307 . S
O529 C544 1.266 . S
O530 Dy520 2.298 . S
O530 C544 1.236 . S
O531 Dy521 2.395 . S
O531 C551 1.255 . S
O532 Dy521 2.379 . S
O532 C551 1.249 . S
C533 O523 1.266 . S
C533 O524 1.236 . S
O534 Dy520 2.275 . S
O534 C522 1.254 . S
O535 Dy521 2.339 . S
O535 C522 1.257 . S
C536 C539 1.344 . S
C536 C540 1.328 . S
C536 C542 1.516 . S
C537 C538 1.304 . S
C537 C541 1.323 . S
C538 C537 1.304 . S
C538 C539 1.371 . S
C538 H552 0.930 . S
C539 C536 1.344 . S
C539 C538 1.371 . S
C539 H553 0.931 . S
C540 C536 1.328 . S
C540 C541 1.433 . S
C540 H554 0.931 . S
C541 C537 1.323 . S
C541 C540 1.433 . S
C541 H555 0.933 . S
C542 Dy520 2.738 1_554 S
C542 O525 1.255 . S
C542 O526 1.249 . S
C542 C536 1.516 . S
C543 O527 1.254 . S
C543 O528 1.257 . S
C544 O529 1.266 . S
C544 O530 1.236 . S
C545 C548 1.344 . S
C545 C549 1.328 . S
C545 C551 1.516 . S
C546 C547 1.304 . S
C546 C550 1.323 . S
C547 C546 1.304 . S
C547 C548 1.371 . S
C547 H556 0.930 . S
C548 C545 1.344 . S
C548 C547 1.371 . S
C548 H557 0.931 . S
C549 C545 1.328 . S
C549 C550 1.433 . S
C549 H558 0.931 . S
C550 C546 1.323 . S
C550 C549 1.433 . S
C550 H559 0.933 . S
C551 Dy521 2.738 . S
C551 O531 1.255 . S
C551 O532 1.249 . S
C551 C545 1.516 . S
H552 C538 0.930 . S
H553 C539 0.931 . S
H554 C540 0.931 . S
H555 C541 0.933 . S
H556 C547 0.930 . S
H557 C548 0.931 . S
H558 C549 0.931 . S
H559 C550 0.933 . S
Dy560 O563 2.307 . S
Dy560 O565 2.395 . S
Dy560 O566 2.379 . S
Dy560 O568 2.339 . S
Dy560 O570 2.298 . S
Dy560 O574 2.275 . S
Dy560 C582 2.738 . S
Dy561 O564 2.298 . S
Dy561 O567 2.275 . S
Dy561 O569 2.307 . S
Dy561 O571 2.395 . S
Dy561 O572 2.379 . S
Dy561 O575 2.339 . S
Dy561 C591 2.738 . S
C562 O574 1.254 . S
C562 O575 1.257 . S
O563 Dy560 2.307 . S
O563 C573 1.266 . S
O564 Dy561 2.298 . S
O564 C573 1.236 . S
O565 Dy560 2.395 . S
O565 C582 1.255 . S
O566 Dy560 2.379 . S
O566 C582 1.249 . S
O567 Dy561 2.275 . S
O567 C583 1.254 . S
O568 Dy560 2.339 . S
O568 C583 1.257 . S
O569 Dy561 2.307 . S
O569 C584 1.266 . S
O570 Dy560 2.298 . S
O570 C584 1.236 . S
O571 Dy561 2.395 . S
O571 C591 1.255 . S
O572 Dy561 2.379 . S
O572 C591 1.249 . S
C573 O563 1.266 . S
C573 O564 1.236 . S
O574 Dy560 2.275 . S
O574 C562 1.254 . S
O575 Dy561 2.339 . S
O575 C562 1.257 . S
C576 C579 1.344 . S
C576 C580 1.328 . S
C576 C582 1.516 . S
C577 C578 1.304 . S
C577 C581 1.323 . S
C578 C577 1.304 . S
C578 C579 1.371 . S
C578 H592 0.930 . S
C579 C576 1.344 . S
C579 C578 1.371 . S
C579 H593 0.931 . S
C580 C576 1.328 . S
C580 C581 1.433 . S
C580 H594 0.931 . S
C581 C577 1.323 . S
C581 C580 1.433 . S
C581 H595 0.933 . S
C582 Dy560 2.738 . S
C582 O565 1.255 . S
C582 O566 1.249 . S
C582 C576 1.516 . S
C583 O567 1.254 . S
C583 O568 1.257 . S
C584 O569 1.266 . S
C584 O570 1.236 . S
C585 C588 1.344 . S
C585 C589 1.328 . S
C585 C591 1.516 . S
C586 C587 1.304 . S
C586 C590 1.323 . S
C587 C586 1.304 . S
C587 C588 1.371 . S
C587 H596 0.930 . S
C588 C585 1.344 . S
C588 C587 1.371 . S
C588 H597 0.931 . S
C589 C585 1.328 . S
C589 C590 1.433 . S
C589 H598 0.931 . S
C590 C586 1.323 . S
C590 C589 1.433 . S
C590 H599 0.933 . S
C591 Dy561 2.738 . S
C591 O571 1.255 . S
C591 O572 1.249 . S
C591 C585 1.516 . S
H592 C578 0.930 . S
H593 C579 0.931 . S
H594 C580 0.931 . S
H595 C581 0.933 . S
H596 C587 0.930 . S
H597 C588 0.931 . S
H598 C589 0.931 . S
H599 C590 0.933 . S
Dy600 O603 2.307 . S
Dy600 O605 2.395 . S
Dy600 O606 2.379 . S
Dy600 O608 2.339 . S
Dy600 O610 2.298 . S
Dy600 O614 2.275 . S
Dy600 C622 2.738 . S
Dy601 O604 2.298 . S
Dy601 O607 2.275 . S
Dy601 O609 2.307 . S
Dy601 O611 2.395 . S
Dy601 O612 2.379 . S
Dy601 O615 2.339 . S
Dy601 C631 2.738 . S
C602 O614 1.254 . S
C602 O615 1.257 . S
O603 Dy600 2.307 . S
O603 C613 1.266 . S
O604 Dy601 2.298 . S
O604 C613 1.236 . S
O605 Dy600 2.395 . S
O605 C622 1.255 . S
O606 Dy600 2.379 . S
O606 C622 1.249 . S
O607 Dy601 2.275 . S
O607 C623 1.254 . S
O608 Dy600 2.339 . S
O608 C623 1.257 . S
O609 Dy601 2.307 . S
O609 C624 1.266 . S
O610 Dy600 2.298 . S
O610 C624 1.236 . S
O611 Dy601 2.395 . S
O611 C631 1.255 . S
O612 Dy601 2.379 . S
O612 C631 1.249 . S
C613 O603 1.266 . S
C613 O604 1.236 . S
O614 Dy600 2.275 . S
O614 C602 1.254 . S
O615 Dy601 2.339 . S
O615 C602 1.257 . S
C616 C619 1.344 . S
C616 C620 1.328 . S
C616 C622 1.516 . S
C617 C618 1.304 . S
C617 C621 1.323 . S
C618 C617 1.304 . S
C618 C619 1.371 . S
C618 H632 0.930 . S
C619 C616 1.344 . S
C619 C618 1.371 . S
C619 H633 0.931 . S
C620 C616 1.328 . S
C620 C621 1.433 . S
C620 H634 0.931 . S
C621 C617 1.323 . S
C621 C620 1.433 . S
C621 H635 0.933 . S
C622 Dy600 2.738 . S
C622 O605 1.255 . S
C622 O606 1.249 . S
C622 C616 1.516 . S
C623 O607 1.254 . S
C623 O608 1.257 . S
C624 O609 1.266 . S
C624 O610 1.236 . S
C625 C628 1.344 . S
C625 C629 1.328 . S
C625 C631 1.516 . S
C626 C627 1.304 . S
C626 C630 1.323 . S
C627 C626 1.304 . S
C627 C628 1.371 . S
C627 H636 0.930 . S
C628 C625 1.344 . S
C628 C627 1.371 . S
C628 H637 0.931 . S
C629 C625 1.328 . S
C629 C630 1.433 . S
C629 H638 0.931 . S
C630 C626 1.323 . S
C630 C629 1.433 . S
C630 H639 0.933 . S
C631 Dy601 2.738 . S
C631 O611 1.255 . S
C631 O612 1.249 . S
C631 C625 1.516 . S
H632 C618 0.930 . S
H633 C619 0.931 . S
H634 C620 0.931 . S
H635 C621 0.933 . S
H636 C627 0.930 . S
H637 C628 0.931 . S
H638 C629 0.931 . S
H639 C630 0.933 . S
H640 C652 0.930 . S
H641 C654 0.930 . S
H642 C655 0.930 . S
H643 C659 0.959 . S
H644 C659 0.959 . S
H645 C659 0.961 . S
H646 C660 0.960 . S
H647 C660 0.961 . S
H648 C660 0.959 . S
H649 C663 0.929 . S
H650 C664 0.931 . S
H651 C666 0.930 . S
C652 H640 0.930 . S
C652 C653 1.399 . S
C652 C657 1.399 . S
C653 C652 1.399 . S
C653 C654 1.376 . S
C654 H641 0.930 . S
C654 C653 1.376 . S
C654 C655 1.388 . S
C655 H642 0.930 . S
C655 C654 1.388 . S
C655 C656 1.390 . S
C656 C655 1.390 . S
C656 C657 1.394 . S
C656 C662 1.465 . S
C657 C652 1.399 . S
C657 C656 1.394 . S
C657 C658 1.516 . S
C658 C657 1.516 . S
C658 C659 1.502 . S
C658 C660 1.561 . S
C658 C661 1.526 . S
C659 H643 0.959 . S
C659 H644 0.959 . S
C659 H645 0.961 . S
C659 C658 1.502 . S
C660 H646 0.960 . S
C660 H647 0.961 . S
C660 H648 0.959 . S
C660 C658 1.561 . S
C661 C658 1.526 . S
C661 C662 1.396 . S
C661 C666 1.390 . S
C662 C656 1.465 . S
C662 C661 1.396 . S
C662 C663 1.399 . S
C663 H649 0.929 . S
C663 C662 1.399 . S
C663 C664 1.385 . S
C664 H650 0.931 . S
C664 C663 1.385 . S
C664 C665 1.389 . S
C665 C664 1.389 . S
C665 C666 1.387 . S
C666 H651 0.930 . S
C666 C661 1.390 . S
C666 C665 1.387 . S
H667 C679 0.930 . S
H668 C681 0.930 . S
H669 C682 0.930 . S
H670 C686 0.959 . S
H671 C686 0.959 . S
H672 C686 0.961 . S
H673 C687 0.960 . S
H674 C687 0.961 . S
H675 C687 0.959 . S
H676 C690 0.929 . S
H677 C691 0.931 . S
H678 C693 0.930 . S
C679 H667 0.930 . S
C679 C680 1.399 . S
C679 C684 1.399 . S
C680 C679 1.399 . S
C680 C681 1.376 . S
C681 H668 0.930 . S
C681 C680 1.376 . S
C681 C682 1.388 . S
C682 H669 0.930 . S
C682 C681 1.388 . S
C682 C683 1.390 . S
C683 C682 1.390 . S
C683 C684 1.394 . S
C683 C689 1.465 . S
C684 C679 1.399 . S
C684 C683 1.394 . S
C684 C685 1.516 . S
C685 C684 1.516 . S
C685 C686 1.502 . S
C685 C687 1.561 . S
C685 C688 1.526 . S
C686 H670 0.959 . S
C686 H671 0.959 . S
C686 H672 0.961 . S
C686 C685 1.502 . S
C687 H673 0.960 . S
C687 H674 0.961 . S
C687 H675 0.959 . S
C687 C685 1.561 . S
C688 C685 1.526 . S
C688 C689 1.396 . S
C688 C693 1.390 . S
C689 C683 1.465 . S
C689 C688 1.396 . S
C689 C690 1.399 . S
C690 H676 0.929 . S
C690 C689 1.399 . S
C690 C691 1.385 . S
C691 H677 0.931 . S
C691 C690 1.385 . S
C691 C692 1.389 . S
C692 C691 1.389 . S
C692 C693 1.387 . S
C693 H678 0.930 . S
C693 C688 1.390 . S
C693 C692 1.387 . S
H694 C706 0.930 . S
H695 C708 0.930 . S
H696 C709 0.930 . S
H697 C713 0.959 . S
H698 C713 0.959 . S
H699 C713 0.961 . S
H700 C714 0.960 . S
H701 C714 0.961 . S
H702 C714 0.959 . S
H703 C717 0.929 . S
H704 C718 0.931 . S
H705 C720 0.930 . S
C706 H694 0.930 . S
C706 C707 1.399 . S
C706 C711 1.399 . S
C707 C706 1.399 . S
C707 C708 1.376 . S
C708 H695 0.930 . S
C708 C707 1.376 . S
C708 C709 1.388 . S
C709 H696 0.930 . S
C709 C708 1.388 . S
C709 C710 1.390 . S
C710 C709 1.390 . S
C710 C711 1.394 . S
C710 C716 1.465 . S
C711 C706 1.399 . S
C711 C710 1.394 . S
C711 C712 1.516 . S
C712 C711 1.516 . S
C712 C713 1.502 . S
C712 C714 1.561 . S
C712 C715 1.526 . S
C713 H697 0.959 . S
C713 H698 0.959 . S
C713 H699 0.961 . S
C713 C712 1.502 . S
C714 H700 0.960 . S
C714 H701 0.961 . S
C714 H702 0.959 . S
C714 C712 1.561 . S
C715 C712 1.526 . S
C715 C716 1.396 . S
C715 C720 1.390 1_554 S
C716 C710 1.465 . S
C716 C715 1.396 . S
C716 C717 1.399 . S
C717 H703 0.929 . S
C717 C716 1.399 . S
C717 C718 1.385 1_554 S
C718 H704 0.931 . S
C718 C717 1.385 1_556 S
C718 C719 1.389 . S
C719 C718 1.389 . S
C719 C720 1.387 . S
C720 H705 0.930 . S
C720 C715 1.390 1_556 S
C720 C719 1.387 . S
H721 C733 0.930 . S
H722 C735 0.930 . S
H723 C736 0.930 . S
H724 C740 0.959 . S
H725 C740 0.959 . S
H726 C740 0.961 . S
H727 C741 0.960 . S
H728 C741 0.961 . S
H729 C741 0.959 . S
H730 C744 0.929 . S
H731 C745 0.931 . S
H732 C747 0.930 . S
C733 H721 0.930 . S
C733 C734 1.399 . S
C733 C738 1.399 . S
C734 C733 1.399 . S
C734 C735 1.376 . S
C735 H722 0.930 . S
C735 C734 1.376 . S
C735 C736 1.388 . S
C736 H723 0.930 . S
C736 C735 1.388 . S
C736 C737 1.390 . S
C737 C736 1.390 . S
C737 C738 1.394 . S
C737 C743 1.465 . S
C738 C733 1.399 . S
C738 C737 1.394 . S
C738 C739 1.516 . S
C739 C738 1.516 . S
C739 C740 1.502 . S
C739 C741 1.561 . S
C739 C742 1.526 . S
C740 H724 0.959 . S
C740 H725 0.959 . S
C740 H726 0.961 . S
C740 C739 1.502 . S
C741 H727 0.960 . S
C741 H728 0.961 . S
C741 H729 0.959 . S
C741 C739 1.561 . S
C742 C739 1.526 . S
C742 C743 1.396 . S
C742 C747 1.390 . S
C743 C737 1.465 . S
C743 C742 1.396 . S
C743 C744 1.399 . S
C744 H730 0.929 . S
C744 C743 1.399 . S
C744 C745 1.385 . S
C745 H731 0.931 . S
C745 C744 1.385 . S
C745 C746 1.389 . S
C746 C745 1.389 . S
C746 C747 1.387 . S
C747 H732 0.930 . S
C747 C742 1.390 . S
C747 C746 1.387 . S
H748 C760 0.930 . S
H749 C762 0.930 . S
H750 C763 0.930 . S
H751 C767 0.959 . S
H752 C767 0.959 . S
H753 C767 0.961 . S
H754 C768 0.960 . S
H755 C768 0.961 . S
H756 C768 0.959 . S
H757 C771 0.929 . S
H758 C772 0.931 . S
H759 C774 0.930 . S
C760 H748 0.930 . S
C760 C761 1.399 . S
C760 C765 1.399 . S
C761 C760 1.399 . S
C761 C762 1.376 . S
C762 H749 0.930 . S
C762 C761 1.376 . S
C762 C763 1.388 . S
C763 H750 0.930 . S
C763 C762 1.388 . S
C763 C764 1.390 . S
C764 C763 1.390 . S
C764 C765 1.394 . S
C764 C770 1.465 . S
C765 C760 1.399 . S
C765 C764 1.394 . S
C765 C766 1.516 . S
C766 C765 1.516 . S
C766 C767 1.502 . S
C766 C768 1.561 . S
C766 C769 1.526 . S
C767 H751 0.959 . S
C767 H752 0.959 . S
C767 H753 0.961 . S
C767 C766 1.502 . S
C768 H754 0.960 . S
C768 H755 0.961 . S
C768 H756 0.959 . S
C768 C766 1.561 . S
C769 C766 1.526 . S
C769 C770 1.396 . S
C769 C774 1.390 . S
C770 C764 1.465 . S
C770 C769 1.396 . S
C770 C771 1.399 . S
C771 H757 0.929 . S
C771 C770 1.399 . S
C771 C772 1.385 . S
C772 H758 0.931 . S
C772 C771 1.385 . S
C772 C773 1.389 . S
C773 C772 1.389 . S
C773 C774 1.387 . S
C774 H759 0.930 . S
C774 C769 1.390 . S
C774 C773 1.387 . S
H775 C787 0.930 . S
H776 C789 0.930 . S
H777 C790 0.930 . S
H778 C794 0.959 . S
H779 C794 0.959 . S
H780 C794 0.961 . S
H781 C795 0.960 . S
H782 C795 0.961 . S
H783 C795 0.959 . S
H784 C798 0.929 . S
H785 C799 0.931 . S
H786 C801 0.930 . S
C787 H775 0.930 . S
C787 C788 1.399 . S
C787 C792 1.399 . S
C788 C787 1.399 . S
C788 C789 1.376 . S
C789 H776 0.930 . S
C789 C788 1.376 . S
C789 C790 1.388 . S
C790 H777 0.930 . S
C790 C789 1.388 . S
C790 C791 1.390 . S
C791 C790 1.390 . S
C791 C792 1.394 . S
C791 C797 1.465 . S
C792 C787 1.399 . S
C792 C791 1.394 . S
C792 C793 1.516 . S
C793 C792 1.516 . S
C793 C794 1.502 . S
C793 C795 1.561 . S
C793 C796 1.526 . S
C794 H778 0.959 . S
C794 H779 0.959 . S
C794 H780 0.961 . S
C794 C793 1.502 . S
C795 H781 0.960 . S
C795 H782 0.961 . S
C795 H783 0.959 . S
C795 C793 1.561 . S
C796 C793 1.526 . S
C796 C797 1.396 . S
C796 C801 1.390 . S
C797 C791 1.465 . S
C797 C796 1.396 . S
C797 C798 1.399 . S
C798 H784 0.929 . S
C798 C797 1.399 . S
C798 C799 1.385 . S
C799 H785 0.931 . S
C799 C798 1.385 . S
C799 C800 1.389 . S
C800 C799 1.389 . S
C800 C801 1.387 . S
C801 H786 0.930 . S
C801 C796 1.390 . S
C801 C800 1.387 . S
H802 C814 0.930 . S
H803 C816 0.930 . S
H804 C817 0.930 . S
H805 C821 0.959 . S
H806 C821 0.959 . S
H807 C821 0.961 . S
H808 C822 0.960 . S
H809 C822 0.961 . S
H810 C822 0.959 . S
H811 C825 0.929 . S
H812 C826 0.931 . S
H813 C828 0.930 . S
C814 H802 0.930 . S
C814 C815 1.399 . S
C814 C819 1.399 . S
C815 C814 1.399 . S
C815 C816 1.376 . S
C816 H803 0.930 . S
C816 C815 1.376 . S
C816 C817 1.388 . S
C817 H804 0.930 . S
C817 C816 1.388 . S
C817 C818 1.390 . S
C818 C817 1.390 . S
C818 C819 1.394 . S
C818 C824 1.465 . S
C819 C814 1.399 . S
C819 C818 1.394 . S
C819 C820 1.516 . S
C820 C819 1.516 . S
C820 C821 1.502 . S
C820 C822 1.561 . S
C820 C823 1.526 . S
C821 H805 0.959 . S
C821 H806 0.959 . S
C821 H807 0.961 . S
C821 C820 1.502 . S
C822 H808 0.960 . S
C822 H809 0.961 . S
C822 H810 0.959 . S
C822 C820 1.561 . S
C823 C820 1.526 . S
C823 C824 1.396 . S
C823 C828 1.390 . S
C824 C818 1.465 . S
C824 C823 1.396 . S
C824 C825 1.399 . S
C825 H811 0.929 . S
C825 C824 1.399 . S
C825 C826 1.385 . S
C826 H812 0.931 . S
C826 C825 1.385 . S
C826 C827 1.389 . S
C827 C826 1.389 . S
C827 C828 1.387 . S
C828 H813 0.930 . S
C828 C823 1.390 . S
C828 C827 1.387 . S
H829 C841 0.930 . S
H830 C843 0.930 . S
H831 C844 0.930 . S
H832 C848 0.959 . S
H833 C848 0.959 . S
H834 C848 0.961 . S
H835 C849 0.960 . S
H836 C849 0.961 . S
H837 C849 0.959 . S
H838 C852 0.929 . S
H839 C853 0.931 . S
H840 C855 0.930 . S
C841 H829 0.930 . S
C841 C842 1.399 . S
C841 C846 1.399 1_556 S
C842 C841 1.399 . S
C842 C843 1.376 . S
C843 H830 0.930 . S
C843 C842 1.376 . S
C843 C844 1.388 1_556 S
C844 H831 0.930 . S
C844 C843 1.388 1_554 S
C844 C845 1.390 . S
C845 C844 1.390 . S
C845 C846 1.394 . S
C845 C851 1.465 . S
C846 C841 1.399 1_554 S
C846 C845 1.394 . S
C846 C847 1.516 . S
C847 C846 1.516 . S
C847 C848 1.502 . S
C847 C849 1.561 . S
C847 C850 1.526 . S
C848 H832 0.959 . S
C848 H833 0.959 . S
C848 H834 0.961 . S
C848 C847 1.502 . S
C849 H835 0.960 . S
C849 H836 0.961 . S
C849 H837 0.959 . S
C849 C847 1.561 . S
C850 C847 1.526 . S
C850 C851 1.396 . S
C850 C855 1.390 . S
C851 C845 1.465 . S
C851 C850 1.396 . S
C851 C852 1.399 . S
C852 H838 0.929 . S
C852 C851 1.399 . S
C852 C853 1.385 . S
C853 H839 0.931 . S
C853 C852 1.385 . S
C853 C854 1.389 . S
C854 C853 1.389 . S
C854 C855 1.387 . S
C855 H840 0.930 . S
C855 C850 1.390 . S
C855 C854 1.387 . S
H856 C868 0.930 . S
H857 C870 0.930 . S
H858 C871 0.930 . S
H859 C875 0.959 . S
H860 C875 0.959 . S
H861 C875 0.961 . S
H862 C876 0.960 . S
H863 C876 0.961 . S
H864 C876 0.959 . S
H865 C879 0.929 . S
H866 C880 0.931 . S
H867 C882 0.930 . S
C868 H856 0.930 . S
C868 C869 1.399 . S
C868 C873 1.399 . S
C869 C868 1.399 . S
C869 C870 1.376 . S
C870 H857 0.930 . S
C870 C869 1.376 . S
C870 C871 1.388 . S
C871 H858 0.930 . S
C871 C870 1.388 . S
C871 C872 1.390 . S
C872 C871 1.390 . S
C872 C873 1.394 . S
C872 C878 1.465 . S
C873 C868 1.399 . S
C873 C872 1.394 . S
C873 C874 1.516 . S
C874 C873 1.516 . S
C874 C875 1.502 . S
C874 C876 1.561 . S
C874 C877 1.526 . S
C875 H859 0.959 . S
C875 H860 0.959 . S
C875 H861 0.961 . S
C875 C874 1.502 . S
C876 H862 0.960 . S
C876 H863 0.961 . S
C876 H864 0.959 . S
C876 C874 1.561 . S
C877 C874 1.526 . S
C877 C878 1.396 . S
C877 C882 1.390 . S
C878 C872 1.465 . S
C878 C877 1.396 . S
C878 C879 1.399 . S
C879 H865 0.929 . S
C879 C878 1.399 . S
C879 C880 1.385 . S
C880 H866 0.931 . S
C880 C879 1.385 . S
C880 C881 1.389 . S
C881 C880 1.389 . S
C881 C882 1.387 . S
C882 H867 0.930 . S
C882 C877 1.390 . S
C882 C881 1.387 . S
H883 C895 0.930 . S
H884 C897 0.930 . S
H885 C898 0.930 . S
H886 C902 0.959 . S
H887 C902 0.959 . S
H888 C902 0.961 . S
H889 C903 0.960 . S
H890 C903 0.961 . S
H891 C903 0.959 . S
H892 C906 0.929 . S
H893 C907 0.931 . S
H894 C909 0.930 . S
C895 H883 0.930 . S
C895 C896 1.399 . S
C895 C900 1.399 . S
C896 C895 1.399 . S
C896 C897 1.376 . S
C897 H884 0.930 . S
C897 C896 1.376 . S
C897 C898 1.388 . S
C898 H885 0.930 . S
C898 C897 1.388 . S
C898 C899 1.390 . S
C899 C898 1.390 . S
C899 C900 1.394 . S
C899 C905 1.465 . S
C900 C895 1.399 . S
C900 C899 1.394 . S
C900 C901 1.516 . S
C901 C900 1.516 . S
C901 C902 1.502 . S
C901 C903 1.561 . S
C901 C904 1.526 . S
C902 H886 0.959 . S
C902 H887 0.959 . S
C902 H888 0.961 . S
C902 C901 1.502 . S
C903 H889 0.960 . S
C903 H890 0.961 . S
C903 H891 0.959 . S
C903 C901 1.561 . S
C904 C901 1.526 . S
C904 C905 1.396 . S
C904 C909 1.390 . S
C905 C899 1.465 . S
C905 C904 1.396 . S
C905 C906 1.399 . S
C906 H892 0.929 . S
C906 C905 1.399 . S
C906 C907 1.385 . S
C907 H893 0.931 . S
C907 C906 1.385 . S
C907 C908 1.389 . S
C908 C907 1.389 . S
C908 C909 1.387 . S
C909 H894 0.930 . S
C909 C904 1.390 . S
C909 C908 1.387 . S
H910 C922 0.930 . S
H911 C924 0.930 . S
H912 C925 0.930 . S
H913 C929 0.959 . S
H914 C929 0.959 . S
H915 C929 0.961 . S
H916 C930 0.960 . S
H917 C930 0.961 . S
H918 C930 0.959 . S
H919 C933 0.929 . S
H920 C934 0.931 . S
H921 C936 0.930 . S
C922 H910 0.930 . S
C922 C923 1.399 . S
C922 C927 1.399 1_554 S
C923 C922 1.399 . S
C923 C924 1.376 . S
C924 H911 0.930 . S
C924 C923 1.376 . S
C924 C925 1.388 1_554 S
C925 H912 0.930 . S
C925 C924 1.388 1_556 S
C925 C926 1.390 . S
C926 C925 1.390 . S
C926 C927 1.394 . S
C926 C932 1.465 . S
C927 C922 1.399 1_556 S
C927 C926 1.394 . S
C927 C928 1.516 . S
C928 C927 1.516 . S
C928 C929 1.502 . S
C928 C930 1.561 . S
C928 C931 1.526 . S
C929 H913 0.959 . S
C929 H914 0.959 . S
C929 H915 0.961 . S
C929 C928 1.502 . S
C930 H916 0.960 . S
C930 H917 0.961 . S
C930 H918 0.959 . S
C930 C928 1.561 . S
C931 C928 1.526 . S
C931 C932 1.396 . S
C931 C936 1.390 . S
C932 C926 1.465 . S
C932 C931 1.396 . S
C932 C933 1.399 . S
C933 H919 0.929 . S
C933 C932 1.399 . S
C933 C934 1.385 . S
C934 H920 0.931 . S
C934 C933 1.385 . S
C934 C935 1.389 . S
C935 C934 1.389 . S
C935 C936 1.387 . S
C936 H921 0.930 . S
C936 C931 1.390 . S
C936 C935 1.387 . S
H937 C949 0.930 . S
H938 C951 0.930 . S
H939 C952 0.930 . S
H940 C956 0.959 . S
H941 C956 0.959 . S
H942 C956 0.961 . S
H943 C957 0.960 . S
H944 C957 0.961 . S
H945 C957 0.959 . S
H946 C960 0.929 . S
H947 C961 0.931 . S
H948 C963 0.930 . S
C949 H937 0.930 . S
C949 C950 1.399 . S
C949 C954 1.399 . S
C950 C949 1.399 . S
C950 C951 1.376 . S
C951 H938 0.930 . S
C951 C950 1.376 . S
C951 C952 1.388 . S
C952 H939 0.930 . S
C952 C951 1.388 . S
C952 C953 1.390 . S
C953 C952 1.390 . S
C953 C954 1.394 . S
C953 C959 1.465 . S
C954 C949 1.399 . S
C954 C953 1.394 . S
C954 C955 1.516 . S
C955 C954 1.516 . S
C955 C956 1.502 . S
C955 C957 1.561 . S
C955 C958 1.526 . S
C956 H940 0.959 . S
C956 H941 0.959 . S
C956 H942 0.961 . S
C956 C955 1.502 . S
C957 H943 0.960 . S
C957 H944 0.961 . S
C957 H945 0.959 . S
C957 C955 1.561 . S
C958 C955 1.526 . S
C958 C959 1.396 . S
C958 C963 1.390 . S
C959 C953 1.465 . S
C959 C958 1.396 . S
C959 C960 1.399 . S
C960 H946 0.929 . S
C960 C959 1.399 . S
C960 C961 1.385 . S
C961 H947 0.931 . S
C961 C960 1.385 . S
C961 C962 1.389 . S
C962 C961 1.389 . S
C962 C963 1.387 . S
C963 H948 0.930 . S
C963 C958 1.390 . S
C963 C962 1.387 . S
H964 C976 0.930 . S
H965 C978 0.930 . S
H966 C979 0.930 . S
H967 C983 0.959 . S
H968 C983 0.959 . S
H969 C983 0.961 . S
H970 C984 0.960 . S
H971 C984 0.961 . S
H972 C984 0.959 . S
H973 C987 0.929 . S
H974 C988 0.931 . S
H975 C990 0.930 . S
C976 H964 0.930 . S
C976 C977 1.399 . S
C976 C981 1.399 . S
C977 C976 1.399 . S
C977 C978 1.376 . S
C978 H965 0.930 . S
C978 C977 1.376 . S
C978 C979 1.388 . S
C979 H966 0.930 . S
C979 C978 1.388 . S
C979 C980 1.390 . S
C980 C979 1.390 . S
C980 C981 1.394 . S
C980 C986 1.465 . S
C981 C976 1.399 . S
C981 C980 1.394 . S
C981 C982 1.516 . S
C982 C981 1.516 . S
C982 C983 1.502 . S
C982 C984 1.561 . S
C982 C985 1.526 . S
C983 H967 0.959 . S
C983 H968 0.959 . S
C983 H969 0.961 . S
C983 C982 1.502 . S
C984 H970 0.960 . S
C984 H971 0.961 . S
C984 H972 0.959 . S
C984 C982 1.561 . S
C985 C982 1.526 . S
C985 C986 1.396 . S
C985 C990 1.390 . S
C986 C980 1.465 . S
C986 C985 1.396 . S
C986 C987 1.399 . S
C987 H973 0.929 . S
C987 C986 1.399 . S
C987 C988 1.385 . S
C988 H974 0.931 . S
C988 C987 1.385 . S
C988 C989 1.389 . S
C989 C988 1.389 . S
C989 C990 1.387 . S
C990 H975 0.930 . S
C990 C985 1.390 . S
C990 C989 1.387 . S
H991 C1003 0.930 . S
H992 C1005 0.930 . S
H993 C1006 0.930 . S
H994 C1010 0.959 . S
H995 C1010 0.959 . S
H996 C1010 0.961 . S
H997 C1011 0.960 . S
H998 C1011 0.961 . S
H999 C1011 0.959 . S
H1000 C1014 0.929 . S
H1001 C1015 0.931 . S
H1002 C1017 0.930 . S
C1003 H991 0.930 . S
C1003 C1004 1.399 . S
C1003 C1008 1.399 . S
C1004 C1003 1.399 . S
C1004 C1005 1.376 . S
C1005 H992 0.930 . S
C1005 C1004 1.376 . S
C1005 C1006 1.388 . S
C1006 H993 0.930 . S
C1006 C1005 1.388 . S
C1006 C1007 1.390 . S
C1007 C1006 1.390 . S
C1007 C1008 1.394 . S
C1007 C1013 1.465 . S
C1008 C1003 1.399 . S
C1008 C1007 1.394 . S
C1008 C1009 1.516 . S
C1009 C1008 1.516 . S
C1009 C1010 1.502 . S
C1009 C1011 1.561 . S
C1009 C1012 1.526 . S
C1010 H994 0.959 . S
C1010 H995 0.959 . S
C1010 H996 0.961 . S
C1010 C1009 1.502 . S
C1011 H997 0.960 . S
C1011 H998 0.961 . S
C1011 H999 0.959 . S
C1011 C1009 1.561 . S
C1012 C1009 1.526 . S
C1012 C1013 1.396 . S
C1012 C1017 1.390 . S
C1013 C1007 1.465 . S
C1013 C1012 1.396 . S
C1013 C1014 1.399 . S
C1014 H1000 0.929 . S
C1014 C1013 1.399 . S
C1014 C1015 1.385 . S
C1015 H1001 0.931 . S
C1015 C1014 1.385 . S
C1015 C1016 1.389 . S
C1016 C1015 1.389 . S
C1016 C1017 1.387 . S
C1017 H1002 0.930 . S
C1017 C1012 1.390 . S
C1017 C1016 1.387 . S
H1018 C1030 0.930 . S
H1019 C1032 0.930 . S
H1020 C1033 0.930 . S
H1021 C1037 0.959 . S
H1022 C1037 0.959 . S
H1023 C1037 0.961 . S
H1024 C1038 0.960 . S
H1025 C1038 0.961 . S
H1026 C1038 0.959 . S
H1027 C1041 0.929 . S
H1028 C1042 0.931 . S
H1029 C1044 0.930 . S
C1030 H1018 0.930 . S
C1030 C1031 1.399 . S
C1030 C1035 1.399 . S
C1031 C1030 1.399 . S
C1031 C1032 1.376 . S
C1032 H1019 0.930 . S
C1032 C1031 1.376 . S
C1032 C1033 1.388 . S
C1033 H1020 0.930 . S
C1033 C1032 1.388 . S
C1033 C1034 1.390 . S
C1034 C1033 1.390 . S
C1034 C1035 1.394 . S
C1034 C1040 1.465 . S
C1035 C1030 1.399 . S
C1035 C1034 1.394 . S
C1035 C1036 1.516 . S
C1036 C1035 1.516 . S
C1036 C1037 1.502 . S
C1036 C1038 1.561 . S
C1036 C1039 1.526 . S
C1037 H1021 0.959 . S
C1037 H1022 0.959 . S
C1037 H1023 0.961 . S
C1037 C1036 1.502 . S
C1038 H1024 0.960 . S
C1038 H1025 0.961 . S
C1038 H1026 0.959 . S
C1038 C1036 1.561 . S
C1039 C1036 1.526 . S
C1039 C1040 1.396 . S
C1039 C1044 1.390 . S
C1040 C1034 1.465 . S
C1040 C1039 1.396 . S
C1040 C1041 1.399 . S
C1041 H1027 0.929 . S
C1041 C1040 1.399 . S
C1041 C1042 1.385 . S
C1042 H1028 0.931 . S
C1042 C1041 1.385 . S
C1042 C1043 1.389 . S
C1043 C1042 1.389 . S
C1043 C1044 1.387 . S
C1044 H1029 0.930 . S
C1044 C1039 1.390 . S
C1044 C1043 1.387 . S
H1045 C1057 0.930 . S
H1046 C1059 0.930 . S
H1047 C1060 0.930 . S
H1048 C1064 0.959 . S
H1049 C1064 0.959 . S
H1050 C1064 0.961 . S
H1051 C1065 0.960 . S
H1052 C1065 0.961 . S
H1053 C1065 0.959 . S
H1054 C1068 0.929 . S
H1055 C1069 0.931 . S
H1056 C1071 0.930 . S
C1057 H1045 0.930 . S
C1057 C1058 1.399 1_556 S
C1057 C1062 1.399 . S
C1058 C1057 1.399 1_554 S
C1058 C1059 1.376 . S
C1059 H1046 0.930 . S
C1059 C1058 1.376 . S
C1059 C1060 1.388 1_554 S
C1060 H1047 0.930 . S
C1060 C1059 1.388 1_556 S
C1060 C1061 1.390 . S
C1061 C1060 1.390 . S
C1061 C1062 1.394 . S
C1061 C1067 1.465 . S
C1062 C1057 1.399 . S
C1062 C1061 1.394 . S
C1062 C1063 1.516 . S
C1063 C1062 1.516 . S
C1063 C1064 1.502 . S
C1063 C1065 1.561 . S
C1063 C1066 1.526 . S
C1064 H1048 0.959 . S
C1064 H1049 0.959 . S
C1064 H1050 0.961 . S
C1064 C1063 1.502 . S
C1065 H1051 0.960 . S
C1065 H1052 0.961 . S
C1065 H1053 0.959 . S
C1065 C1063 1.561 . S
C1066 C1063 1.526 . S
C1066 C1067 1.396 . S
C1066 C1071 1.390 . S
C1067 C1061 1.465 . S
C1067 C1066 1.396 . S
C1067 C1068 1.399 . S
C1068 H1054 0.929 . S
C1068 C1067 1.399 . S
C1068 C1069 1.385 . S
C1069 H1055 0.931 . S
C1069 C1068 1.385 . S
C1069 C1070 1.389 . S
C1070 C1069 1.389 . S
C1070 C1071 1.387 . S
C1071 H1056 0.930 . S
C1071 C1066 1.390 . S
C1071 C1070 1.387 . S
H1072 C1084 0.930 . S
H1073 C1086 0.930 . S
H1074 C1087 0.930 . S
H1075 C1091 0.959 . S
H1076 C1091 0.959 . S
H1077 C1091 0.961 . S
H1078 C1092 0.960 . S
H1079 C1092 0.961 . S
H1080 C1092 0.959 . S
H1081 C1095 0.929 . S
H1082 C1096 0.931 . S
H1083 C1098 0.930 . S
C1084 H1072 0.930 . S
C1084 C1085 1.399 . S
C1084 C1089 1.399 . S
C1085 C1084 1.399 . S
C1085 C1086 1.376 . S
C1086 H1073 0.930 . S
C1086 C1085 1.376 . S
C1086 C1087 1.388 . S
C1087 H1074 0.930 . S
C1087 C1086 1.388 . S
C1087 C1088 1.390 . S
C1088 C1087 1.390 . S
C1088 C1089 1.394 . S
C1088 C1094 1.465 . S
C1089 C1084 1.399 . S
C1089 C1088 1.394 . S
C1089 C1090 1.516 . S
C1090 C1089 1.516 . S
C1090 C1091 1.502 . S
C1090 C1092 1.561 . S
C1090 C1093 1.526 . S
C1091 H1075 0.959 . S
C1091 H1076 0.959 . S
C1091 H1077 0.961 . S
C1091 C1090 1.502 . S
C1092 H1078 0.960 . S
C1092 H1079 0.961 . S
C1092 H1080 0.959 . S
C1092 C1090 1.561 . S
C1093 C1090 1.526 . S
C1093 C1094 1.396 . S
C1093 C1098 1.390 . S
C1094 C1088 1.465 . S
C1094 C1093 1.396 . S
C1094 C1095 1.399 . S
C1095 H1081 0.929 . S
C1095 C1094 1.399 . S
C1095 C1096 1.385 . S
C1096 H1082 0.931 . S
C1096 C1095 1.385 . S
C1096 C1097 1.389 . S
C1097 C1096 1.389 . S
C1097 C1098 1.387 . S
C1098 H1083 0.930 . S
C1098 C1093 1.390 . S
C1098 C1097 1.387 . S
H1099 C1111 0.930 . S
H1100 C1113 0.930 . S
H1101 C1114 0.930 . S
H1102 C1118 0.959 . S
H1103 C1118 0.959 . S
H1104 C1118 0.961 . S
H1105 C1119 0.960 . S
H1106 C1119 0.961 . S
H1107 C1119 0.959 . S
H1108 C1122 0.929 . S
H1109 C1123 0.931 . S
H1110 C1125 0.930 . S
C1111 H1099 0.930 . S
C1111 C1112 1.399 . S
C1111 C1116 1.399 . S
C1112 C1111 1.399 . S
C1112 C1113 1.376 . S
C1113 H1100 0.930 . S
C1113 C1112 1.376 . S
C1113 C1114 1.388 . S
C1114 H1101 0.930 . S
C1114 C1113 1.388 . S
C1114 C1115 1.390 . S
C1115 C1114 1.390 . S
C1115 C1116 1.394 . S
C1115 C1121 1.465 . S
C1116 C1111 1.399 . S
C1116 C1115 1.394 . S
C1116 C1117 1.516 . S
C1117 C1116 1.516 . S
C1117 C1118 1.502 . S
C1117 C1119 1.561 . S
C1117 C1120 1.526 . S
C1118 H1102 0.959 . S
C1118 H1103 0.959 . S
C1118 H1104 0.961 . S
C1118 C1117 1.502 . S
C1119 H1105 0.960 . S
C1119 H1106 0.961 . S
C1119 H1107 0.959 . S
C1119 C1117 1.561 . S
C1120 C1117 1.526 . S
C1120 C1121 1.396 . S
C1120 C1125 1.390 . S
C1121 C1115 1.465 . S
C1121 C1120 1.396 . S
C1121 C1122 1.399 . S
C1122 H1108 0.929 . S
C1122 C1121 1.399 . S
C1122 C1123 1.385 . S
C1123 H1109 0.931 . S
C1123 C1122 1.385 . S
C1123 C1124 1.389 . S
C1124 C1123 1.389 . S
C1124 C1125 1.387 . S
C1125 H1110 0.930 . S
C1125 C1120 1.390 . S
C1125 C1124 1.387 . S
H1126 C1138 0.930 . S
H1127 C1140 0.930 . S
H1128 C1141 0.930 . S
H1129 C1145 0.959 . S
H1130 C1145 0.959 . S
H1131 C1145 0.961 . S
H1132 C1146 0.960 . S
H1133 C1146 0.961 . S
H1134 C1146 0.959 . S
H1135 C1149 0.929 . S
H1136 C1150 0.931 . S
H1137 C1152 0.930 . S
C1138 H1126 0.930 . S
C1138 C1139 1.399 . S
C1138 C1143 1.399 . S
C1139 C1138 1.399 . S
C1139 C1140 1.376 . S
C1140 H1127 0.930 . S
C1140 C1139 1.376 . S
C1140 C1141 1.388 . S
C1141 H1128 0.930 . S
C1141 C1140 1.388 . S
C1141 C1142 1.390 . S
C1142 C1141 1.390 . S
C1142 C1143 1.394 . S
C1142 C1148 1.465 . S
C1143 C1138 1.399 . S
C1143 C1142 1.394 . S
C1143 C1144 1.516 . S
C1144 C1143 1.516 . S
C1144 C1145 1.502 . S
C1144 C1146 1.561 . S
C1144 C1147 1.526 . S
C1145 H1129 0.959 . S
C1145 H1130 0.959 . S
C1145 H1131 0.961 . S
C1145 C1144 1.502 . S
C1146 H1132 0.960 . S
C1146 H1133 0.961 . S
C1146 H1134 0.959 . S
C1146 C1144 1.561 . S
C1147 C1144 1.526 . S
C1147 C1148 1.396 . S
C1147 C1152 1.390 . S
C1148 C1142 1.465 . S
C1148 C1147 1.396 . S
C1148 C1149 1.399 . S
C1149 H1135 0.929 . S
C1149 C1148 1.399 . S
C1149 C1150 1.385 . S
C1150 H1136 0.931 . S
C1150 C1149 1.385 . S
C1150 C1151 1.389 . S
C1151 C1150 1.389 . S
C1151 C1152 1.387 . S
C1152 H1137 0.930 . S
C1152 C1147 1.390 . S
C1152 C1151 1.387 . S
H1153 C1165 0.930 . S
H1154 C1167 0.930 . S
H1155 C1168 0.930 . S
H1156 C1172 0.959 . S
H1157 C1172 0.959 . S
H1158 C1172 0.961 1_655 S
H1159 C1173 0.952 1_655 S
H1160 C1173 0.968 . S
H1161 C1173 0.960 . S
H1162 C1176 0.929 . S
H1163 C1177 0.931 . S
H1164 C1179 0.930 . S
C1165 H1153 0.930 . S
C1165 C1166 1.399 . S
C1165 C1170 1.399 . S
C1166 C1165 1.399 . S
C1166 C1167 1.376 . S
C1167 H1154 0.930 . S
C1167 C1166 1.376 . S
C1167 C1168 1.388 . S
C1168 H1155 0.930 . S
C1168 C1167 1.388 . S
C1168 C1169 1.390 . S
C1169 C1168 1.390 . S
C1169 C1170 1.394 . S
C1169 C1175 1.465 1_655 S
C1170 C1165 1.399 . S
C1170 C1169 1.394 . S
C1170 C1171 1.516 1_655 S
C1171 C1170 1.516 1_455 S
C1171 C1172 1.502 . S
C1171 C1173 1.562 1_556 S
C1171 C1174 1.526 . S
C1172 H1156 0.959 . S
C1172 H1157 0.959 . S
C1172 H1158 0.961 1_455 S
C1172 C1171 1.502 . S
C1173 H1159 0.952 1_455 S
C1173 H1160 0.968 . S
C1173 H1161 0.960 . S
C1173 C1171 1.562 1_554 S
C1174 C1171 1.526 . S
C1174 C1175 1.396 . S
C1174 C1179 1.390 . S
C1175 C1169 1.465 1_455 S
C1175 C1174 1.396 . S
C1175 C1176 1.399 . S
C1176 H1162 0.929 . S
C1176 C1175 1.399 . S
C1176 C1177 1.385 . S
C1177 H1163 0.931 . S
C1177 C1176 1.385 . S
C1177 C1178 1.389 . S
C1178 C1177 1.389 . S
C1178 C1179 1.387 . S
C1179 H1164 0.930 . S
C1179 C1174 1.390 . S
C1179 C1178 1.387 . S
H1180 C1192 0.930 . S
H1181 C1194 0.930 . S
H1182 C1195 0.930 . S
H1183 C1199 0.959 . S
H1184 C1199 0.959 . S
H1185 C1199 0.961 . S
H1186 C1200 0.960 . S
H1187 C1200 0.961 . S
H1188 C1200 0.959 . S
H1189 C1203 0.929 . S
H1190 C1204 0.931 . S
H1191 C1206 0.930 . S
C1192 H1180 0.930 . S
C1192 C1193 1.399 . S
C1192 C1197 1.399 . S
C1193 C1192 1.399 . S
C1193 C1194 1.376 . S
C1194 H1181 0.930 . S
C1194 C1193 1.376 . S
C1194 C1195 1.388 . S
C1195 H1182 0.930 . S
C1195 C1194 1.388 . S
C1195 C1196 1.390 . S
C1196 C1195 1.390 . S
C1196 C1197 1.394 . S
C1196 C1202 1.465 . S
C1197 C1192 1.399 . S
C1197 C1196 1.394 . S
C1197 C1198 1.516 . S
C1198 C1197 1.516 . S
C1198 C1199 1.502 . S
C1198 C1200 1.561 . S
C1198 C1201 1.526 . S
C1199 H1183 0.959 . S
C1199 H1184 0.959 . S
C1199 H1185 0.961 . S
C1199 C1198 1.502 . S
C1200 H1186 0.960 . S
C1200 H1187 0.961 . S
C1200 H1188 0.959 . S
C1200 C1198 1.561 . S
C1201 C1198 1.526 . S
C1201 C1202 1.396 . S
C1201 C1206 1.390 . S
C1202 C1196 1.465 . S
C1202 C1201 1.396 . S
C1202 C1203 1.399 . S
C1203 H1189 0.929 . S
C1203 C1202 1.399 . S
C1203 C1204 1.385 . S
C1204 H1190 0.931 . S
C1204 C1203 1.385 . S
C1204 C1205 1.389 . S
C1205 C1204 1.389 . S
C1205 C1206 1.387 . S
C1206 H1191 0.930 . S
C1206 C1201 1.390 . S
C1206 C1205 1.387 . S
H1207 C1219 0.930 . S
H1208 C1221 0.930 . S
H1209 C1222 0.930 . S
H1210 C1226 0.959 . S
H1211 C1226 0.959 . S
H1212 C1226 0.961 1_455 S
H1213 C1227 0.960 1_455 S
H1214 C1227 0.961 . S
H1215 C1227 0.959 . S
H1216 C1230 0.929 . S
H1217 C1231 0.931 . S
H1218 C1233 0.930 . S
C1219 H1207 0.930 . S
C1219 C1220 1.399 . S
C1219 C1224 1.399 . S
C1220 C1219 1.399 . S
C1220 C1221 1.376 . S
C1221 H1208 0.930 . S
C1221 C1220 1.376 . S
C1221 C1222 1.388 . S
C1222 H1209 0.930 . S
C1222 C1221 1.388 . S
C1222 C1223 1.390 . S
C1223 C1222 1.390 . S
C1223 C1224 1.394 . S
C1223 C1229 1.465 1_455 S
C1224 C1219 1.399 . S
C1224 C1223 1.394 . S
C1224 C1225 1.516 1_455 S
C1225 C1224 1.516 1_655 S
C1225 C1226 1.502 . S
C1225 C1227 1.561 1_554 S
C1225 C1228 1.526 . S
C1226 H1210 0.959 . S
C1226 H1211 0.959 . S
C1226 H1212 0.961 1_655 S
C1226 C1225 1.502 . S
C1227 H1213 0.960 1_655 S
C1227 H1214 0.961 . S
C1227 H1215 0.959 . S
C1227 C1225 1.561 1_556 S
C1228 C1225 1.526 . S
C1228 C1229 1.396 . S
C1228 C1233 1.390 . S
C1229 C1223 1.465 1_655 S
C1229 C1228 1.396 . S
C1229 C1230 1.399 . S
C1230 H1216 0.929 . S
C1230 C1229 1.399 . S
C1230 C1231 1.385 . S
C1231 H1217 0.931 . S
C1231 C1230 1.385 . S
C1231 C1232 1.389 . S
C1232 C1231 1.389 . S
C1232 C1233 1.387 . S
C1233 H1218 0.930 . S
C1233 C1228 1.390 . S
C1233 C1232 1.387 . S
H1234 C1246 0.930 . S
H1235 C1248 0.930 . S
H1236 C1249 0.930 . S
H1237 C1253 0.959 . S
H1238 C1253 0.959 . S
H1239 C1253 0.961 . S
H1240 C1254 0.960 . S
H1241 C1254 0.961 . S
H1242 C1254 0.959 . S
H1243 C1257 0.929 . S
H1244 C1258 0.931 . S
H1245 C1260 0.930 . S
C1246 H1234 0.930 . S
C1246 C1247 1.399 . S
C1246 C1251 1.399 . S
C1247 C1246 1.399 . S
C1247 C1248 1.376 . S
C1248 H1235 0.930 . S
C1248 C1247 1.376 . S
C1248 C1249 1.388 . S
C1249 H1236 0.930 . S
C1249 C1248 1.388 . S
C1249 C1250 1.390 . S
C1250 C1249 1.390 . S
C1250 C1251 1.394 . S
C1250 C1256 1.465 . S
C1251 C1246 1.399 . S
C1251 C1250 1.394 . S
C1251 C1252 1.516 . S
C1252 C1251 1.516 . S
C1252 C1253 1.502 . S
C1252 C1254 1.561 . S
C1252 C1255 1.526 . S
C1253 H1237 0.959 . S
C1253 H1238 0.959 . S
C1253 H1239 0.961 . S
C1253 C1252 1.502 . S
C1254 H1240 0.960 . S
C1254 H1241 0.961 . S
C1254 H1242 0.959 . S
C1254 C1252 1.561 . S
C1255 C1252 1.526 . S
C1255 C1256 1.396 . S
C1255 C1260 1.390 . S
C1256 C1250 1.465 . S
C1256 C1255 1.396 . S
C1256 C1257 1.399 . S
C1257 H1243 0.929 . S
C1257 C1256 1.399 . S
C1257 C1258 1.385 . S
C1258 H1244 0.931 . S
C1258 C1257 1.385 . S
C1258 C1259 1.389 . S
C1259 C1258 1.389 . S
C1259 C1260 1.387 . S
C1260 H1245 0.930 . S
C1260 C1255 1.390 . S
C1260 C1259 1.387 . S
H1261 C1273 0.930 . S
H1262 C1275 0.930 . S
H1263 C1276 0.930 . S
H1264 C1280 0.959 . S
H1265 C1280 0.959 . S
H1266 C1280 0.961 . S
H1267 C1281 0.960 . S
H1268 C1281 0.961 . S
H1269 C1281 0.959 . S
H1270 C1284 0.929 . S
H1271 C1285 0.931 . S
H1272 C1287 0.930 . S
C1273 H1261 0.930 . S
C1273 C1274 1.399 . S
C1273 C1278 1.399 . S
C1274 C1273 1.399 . S
C1274 C1275 1.376 . S
C1275 H1262 0.930 . S
C1275 C1274 1.376 . S
C1275 C1276 1.388 . S
C1276 H1263 0.930 . S
C1276 C1275 1.388 . S
C1276 C1277 1.390 . S
C1277 C1276 1.390 . S
C1277 C1278 1.394 . S
C1277 C1283 1.465 . S
C1278 C1273 1.399 . S
C1278 C1277 1.394 . S
C1278 C1279 1.516 . S
C1279 C1278 1.516 . S
C1279 C1280 1.502 . S
C1279 C1281 1.561 . S
C1279 C1282 1.526 . S
C1280 H1264 0.959 . S
C1280 H1265 0.959 . S
C1280 H1266 0.961 . S
C1280 C1279 1.502 . S
C1281 H1267 0.960 . S
C1281 H1268 0.961 . S
C1281 H1269 0.959 . S
C1281 C1279 1.561 . S
C1282 C1279 1.526 . S
C1282 C1283 1.396 . S
C1282 C1287 1.390 . S
C1283 C1277 1.465 . S
C1283 C1282 1.396 . S
C1283 C1284 1.399 . S
C1284 H1270 0.929 . S
C1284 C1283 1.399 . S
C1284 C1285 1.385 . S
C1285 H1271 0.931 . S
C1285 C1284 1.385 . S
C1285 C1286 1.389 . S
C1286 C1285 1.389 . S
C1286 C1287 1.387 . S
C1287 H1272 0.930 . S
C1287 C1282 1.390 . S
C1287 C1286 1.387 . S
H1288 C1300 0.930 . S
H1289 C1302 0.930 . S
H1290 C1303 0.930 . S
H1291 C1307 0.959 . S
H1292 C1307 0.959 . S
H1293 C1307 0.961 . S
H1294 C1308 0.960 . S
H1295 C1308 0.973 . S
H1296 C1308 0.959 . S
H1297 C1311 0.929 . S
H1298 C1312 0.931 . S
H1299 C1314 0.930 . S
C1300 H1288 0.930 . S
C1300 C1301 1.399 . S
C1300 C1305 1.399 . S
C1301 C1300 1.399 . S
C1301 C1302 1.376 . S
C1302 H1289 0.930 . S
C1302 C1301 1.376 . S
C1302 C1303 1.388 . S
C1303 H1290 0.930 . S
C1303 C1302 1.388 . S
C1303 C1304 1.390 . S
C1304 C1303 1.390 . S
C1304 C1305 1.394 . S
C1304 C1310 1.465 . S
C1305 C1300 1.399 . S
C1305 C1304 1.394 . S
C1305 C1306 1.516 . S
C1306 C1305 1.516 . S
C1306 C1307 1.502 . S
C1306 C1308 1.561 . S
C1306 C1309 1.526 . S
C1307 H1291 0.959 . S
C1307 H1292 0.959 . S
C1307 H1293 0.961 . S
C1307 C1306 1.502 . S
C1308 H1294 0.960 . S
C1308 H1295 0.973 . S
C1308 H1296 0.959 . S
C1308 C1306 1.561 . S
C1309 C1306 1.526 . S
C1309 C1310 1.396 . S
C1309 C1314 1.390 . S
C1310 C1304 1.465 . S
C1310 C1309 1.396 . S
C1310 C1311 1.399 . S
C1311 H1297 0.929 . S
C1311 C1310 1.399 . S
C1311 C1312 1.385 . S
C1312 H1298 0.931 . S
C1312 C1311 1.385 . S
C1312 C1313 1.389 . S
C1313 C1312 1.389 . S
C1313 C1314 1.387 . S
C1314 H1299 0.930 . S
C1314 C1309 1.390 . S
C1314 C1313 1.387 . S
H1315 C1327 0.930 . S
H1316 C1329 0.930 . S
H1317 C1330 0.930 . S
H1318 C1334 0.959 . S
H1319 C1334 0.959 . S
H1320 C1334 0.961 . S
H1321 C1335 0.960 . S
H1322 C1335 0.961 . S
H1323 C1335 0.959 . S
H1324 C1338 0.929 . S
H1325 C1339 0.931 . S
H1326 C1341 0.930 . S
C1327 H1315 0.930 . S
C1327 C1328 1.399 . S
C1327 C1332 1.399 . S
C1328 C1327 1.399 . S
C1328 C1329 1.376 . S
C1329 H1316 0.930 . S
C1329 C1328 1.376 . S
C1329 C1330 1.388 . S
C1330 H1317 0.930 . S
C1330 C1329 1.388 . S
C1330 C1331 1.390 . S
C1331 C1330 1.390 . S
C1331 C1332 1.394 . S
C1331 C1337 1.465 . S
C1332 C1327 1.399 . S
C1332 C1331 1.394 . S
C1332 C1333 1.516 . S
C1333 C1332 1.516 . S
C1333 C1334 1.502 . S
C1333 C1335 1.561 . S
C1333 C1336 1.526 . S
C1334 H1318 0.959 . S
C1334 H1319 0.959 . S
C1334 H1320 0.961 . S
C1334 C1333 1.502 . S
C1335 H1321 0.960 . S
C1335 H1322 0.961 . S
C1335 H1323 0.959 . S
C1335 C1333 1.561 . S
C1336 C1333 1.526 . S
C1336 C1337 1.396 . S
C1336 C1341 1.390 . S
C1337 C1331 1.465 . S
C1337 C1336 1.396 . S
C1337 C1338 1.399 . S
C1338 H1324 0.929 . S
C1338 C1337 1.399 . S
C1338 C1339 1.385 . S
C1339 H1325 0.931 . S
C1339 C1338 1.385 . S
C1339 C1340 1.389 . S
C1340 C1339 1.389 . S
C1340 C1341 1.387 . S
C1341 H1326 0.930 . S
C1341 C1336 1.390 . S
C1341 C1340 1.387 . S
H1342 C1354 0.930 . S
H1343 C1356 0.930 . S
H1344 C1357 0.930 . S
H1345 C1361 0.959 . S
H1346 C1361 0.959 . S
H1347 C1361 0.961 . S
H1348 C1362 0.960 . S
H1349 C1362 0.961 . S
H1350 C1362 0.959 . S
H1351 C1365 0.929 . S
H1352 C1366 0.931 . S
H1353 C1368 0.930 . S
C1354 H1342 0.930 . S
C1354 C1355 1.399 . S
C1354 C1359 1.399 . S
C1355 C1354 1.399 . S
C1355 C1356 1.376 . S
C1356 H1343 0.930 . S
C1356 C1355 1.376 . S
C1356 C1357 1.388 . S
C1357 H1344 0.930 . S
C1357 C1356 1.388 . S
C1357 C1358 1.390 . S
C1358 C1357 1.390 . S
C1358 C1359 1.394 . S
C1358 C1364 1.465 . S
C1359 C1354 1.399 . S
C1359 C1358 1.394 . S
C1359 C1360 1.516 . S
C1360 C1359 1.516 . S
C1360 C1361 1.502 . S
C1360 C1362 1.561 . S
C1360 C1363 1.526 . S
C1361 H1345 0.959 . S
C1361 H1346 0.959 . S
C1361 H1347 0.961 . S
C1361 C1360 1.502 . S
C1362 H1348 0.960 . S
C1362 H1349 0.961 . S
C1362 H1350 0.959 . S
C1362 C1360 1.561 . S
C1363 C1360 1.526 . S
C1363 C1364 1.396 . S
C1363 C1368 1.390 . S
C1364 C1358 1.465 . S
C1364 C1363 1.396 . S
C1364 C1365 1.399 . S
C1365 H1351 0.929 . S
C1365 C1364 1.399 . S
C1365 C1366 1.385 . S
C1366 H1352 0.931 . S
C1366 C1365 1.385 . S
C1366 C1367 1.389 . S
C1367 C1366 1.389 . S
C1367 C1368 1.387 . S
C1368 H1353 0.930 . S
C1368 C1363 1.390 . S
C1368 C1367 1.387 . S
H1369 C1381 0.930 . S
H1370 C1383 0.930 . S
H1371 C1384 0.930 . S
H1372 C1388 0.959 . S
H1373 C1388 0.959 . S
H1374 C1388 0.961 . S
H1375 C1389 0.960 . S
H1376 C1389 0.961 . S
H1377 C1389 0.959 . S
H1378 C1392 0.929 . S
H1379 C1393 0.931 . S
H1380 C1395 0.930 . S
C1381 H1369 0.930 . S
C1381 C1382 1.399 . S
C1381 C1386 1.399 . S
C1382 C1381 1.399 . S
C1382 C1383 1.376 . S
C1383 H1370 0.930 . S
C1383 C1382 1.376 . S
C1383 C1384 1.388 . S
C1384 H1371 0.930 . S
C1384 C1383 1.388 . S
C1384 C1385 1.390 . S
C1385 C1384 1.390 . S
C1385 C1386 1.394 . S
C1385 C1391 1.465 . S
C1386 C1381 1.399 . S
C1386 C1385 1.394 . S
C1386 C1387 1.516 . S
C1387 C1386 1.516 . S
C1387 C1388 1.502 . S
C1387 C1389 1.561 . S
C1387 C1390 1.526 . S
C1388 H1372 0.959 . S
C1388 H1373 0.959 . S
C1388 H1374 0.961 . S
C1388 C1387 1.502 . S
C1389 H1375 0.960 . S
C1389 H1376 0.961 . S
C1389 H1377 0.959 . S
C1389 C1387 1.561 . S
C1390 C1387 1.526 . S
C1390 C1391 1.396 . S
C1390 C1395 1.390 . S
C1391 C1385 1.465 . S
C1391 C1390 1.396 . S
C1391 C1392 1.399 . S
C1392 H1378 0.929 . S
C1392 C1391 1.399 . S
C1392 C1393 1.385 . S
C1393 H1379 0.931 . S
C1393 C1392 1.385 . S
C1393 C1394 1.389 . S
C1394 C1393 1.389 . S
C1394 C1395 1.387 . S
C1395 H1380 0.930 . S
C1395 C1390 1.390 . S
C1395 C1394 1.387 . S
H1396 C1408 0.930 . S
H1397 C1410 0.930 . S
H1398 C1411 0.930 . S
H1399 C1415 0.959 . S
H1400 C1415 0.959 1_455 S
H1401 C1415 0.961 . S
H1402 C1416 0.960 1_655 S
H1403 C1416 0.961 . S
H1404 C1416 0.959 . S
H1405 C1419 0.929 . S
H1406 C1420 0.931 . S
H1407 C1422 0.930 . S
C1408 H1396 0.930 . S
C1408 C1409 1.399 . S
C1408 C1413 1.399 . S
C1409 C1408 1.399 . S
C1409 C1410 1.376 . S
C1410 H1397 0.930 . S
C1410 C1409 1.376 . S
C1410 C1411 1.388 . S
C1411 H1398 0.930 . S
C1411 C1410 1.388 . S
C1411 C1412 1.390 . S
C1412 C1411 1.390 . S
C1412 C1413 1.394 . S
C1412 C1418 1.465 1_655 S
C1413 C1408 1.399 . S
C1413 C1412 1.394 . S
C1413 C1414 1.542 . S
C1414 C1413 1.542 . S
C1414 C1415 1.505 . S
C1414 C1416 1.557 1_656 S
C1414 C1417 1.501 1_655 S
C1415 H1399 0.959 . S
C1415 H1400 0.959 1_655 S
C1415 H1401 0.961 . S
C1415 C1414 1.505 . S
C1416 H1402 0.960 1_455 S
C1416 H1403 0.961 . S
C1416 H1404 0.959 . S
C1416 C1414 1.557 1_454 S
C1417 C1414 1.501 1_455 S
C1417 C1418 1.396 . S
C1417 C1422 1.390 . S
C1418 C1412 1.465 1_455 S
C1418 C1417 1.396 . S
C1418 C1419 1.399 . S
C1419 H1405 0.929 . S
C1419 C1418 1.399 . S
C1419 C1420 1.385 . S
C1420 H1406 0.931 . S
C1420 C1419 1.385 . S
C1420 C1421 1.389 . S
C1421 C1420 1.389 . S
C1421 C1422 1.387 . S
C1422 H1407 0.930 . S
C1422 C1417 1.390 . S
C1422 C1421 1.387 . S
H1423 C1435 0.930 . S
H1424 C1437 0.930 . S
H1425 C1438 0.930 . S
H1426 C1442 0.959 . S
H1427 C1442 0.959 . S
H1428 C1442 0.961 . S
H1429 C1443 0.960 . S
H1430 C1443 0.961 . S
H1431 C1443 0.959 . S
H1432 C1446 0.929 . S
H1433 C1447 0.931 . S
H1434 C1449 0.930 . S
C1435 H1423 0.930 . S
C1435 C1436 1.399 . S
C1435 C1440 1.399 . S
C1436 C1435 1.399 . S
C1436 C1437 1.376 . S
C1437 H1424 0.930 . S
C1437 C1436 1.376 . S
C1437 C1438 1.388 . S
C1438 H1425 0.930 . S
C1438 C1437 1.388 . S
C1438 C1439 1.390 . S
C1439 C1438 1.390 . S
C1439 C1440 1.394 . S
C1439 C1445 1.465 . S
C1440 C1435 1.399 . S
C1440 C1439 1.394 . S
C1440 C1441 1.516 . S
C1441 C1440 1.516 . S
C1441 C1442 1.502 . S
C1441 C1443 1.561 . S
C1441 C1444 1.526 . S
C1442 H1426 0.959 . S
C1442 H1427 0.959 . S
C1442 H1428 0.961 . S
C1442 C1441 1.502 . S
C1443 H1429 0.960 . S
C1443 H1430 0.961 . S
C1443 H1431 0.959 . S
C1443 C1441 1.561 . S
C1444 C1441 1.526 . S
C1444 C1445 1.396 . S
C1444 C1449 1.390 . S
C1445 C1439 1.465 . S
C1445 C1444 1.396 . S
C1445 C1446 1.399 . S
C1446 H1432 0.929 . S
C1446 C1445 1.399 . S
C1446 C1447 1.385 . S
C1447 H1433 0.931 . S
C1447 C1446 1.385 . S
C1447 C1448 1.389 . S
C1448 C1447 1.389 . S
C1448 C1449 1.387 . S
C1449 H1434 0.930 . S
C1449 C1444 1.390 . S
C1449 C1448 1.387 . S
H1450 C1462 0.930 . S
H1451 C1464 0.930 . S
H1452 C1465 0.930 . S
H1453 C1469 0.959 . S
H1454 C1469 0.959 . S
H1455 C1469 0.961 . S
H1456 C1470 0.960 . S
H1457 C1470 0.961 . S
H1458 C1470 0.959 . S
H1459 C1473 0.929 . S
H1460 C1474 0.931 . S
H1461 C1476 0.930 . S
C1462 H1450 0.930 . S
C1462 C1463 1.399 . S
C1462 C1467 1.399 . S
C1463 C1462 1.399 . S
C1463 C1464 1.376 . S
C1464 H1451 0.930 . S
C1464 C1463 1.376 . S
C1464 C1465 1.388 . S
C1465 H1452 0.930 . S
C1465 C1464 1.388 . S
C1465 C1466 1.390 . S
C1466 C1465 1.390 . S
C1466 C1467 1.394 . S
C1466 C1472 1.465 . S
C1467 C1462 1.399 . S
C1467 C1466 1.394 . S
C1467 C1468 1.516 . S
C1468 C1467 1.516 . S
C1468 C1469 1.502 . S
C1468 C1470 1.561 . S
C1468 C1471 1.526 . S
C1469 H1453 0.959 . S
C1469 H1454 0.959 . S
C1469 H1455 0.961 . S
C1469 C1468 1.502 . S
C1470 H1456 0.960 . S
C1470 H1457 0.961 . S
C1470 H1458 0.959 . S
C1470 C1468 1.561 . S
C1471 C1468 1.526 . S
C1471 C1472 1.396 . S
C1471 C1476 1.390 . S
C1472 C1466 1.465 . S
C1472 C1471 1.396 . S
C1472 C1473 1.399 . S
C1473 H1459 0.929 . S
C1473 C1472 1.399 . S
C1473 C1474 1.385 . S
C1474 H1460 0.931 . S
C1474 C1473 1.385 . S
C1474 C1475 1.389 . S
C1475 C1474 1.389 . S
C1475 C1476 1.387 . S
C1476 H1461 0.930 . S
C1476 C1471 1.390 . S
C1476 C1475 1.387 . S
H1477 C1489 0.930 . S
H1478 C1491 0.930 . S
H1479 C1492 0.930 . S
H1480 C1496 0.959 . S
H1481 C1496 0.959 1_655 S
H1482 C1496 0.961 . S
H1483 C1497 0.960 1_455 S
H1484 C1497 0.961 . S
H1485 C1497 0.959 . S
H1486 C1500 0.929 . S
H1487 C1501 0.931 . S
H1488 C1503 0.930 . S
C1489 H1477 0.930 . S
C1489 C1490 1.399 . S
C1489 C1494 1.399 . S
C1490 C1489 1.399 . S
C1490 C1491 1.376 . S
C1491 H1478 0.930 . S
C1491 C1490 1.376 . S
C1491 C1492 1.388 . S
C1492 H1479 0.930 . S
C1492 C1491 1.388 . S
C1492 C1493 1.390 . S
C1493 C1492 1.390 . S
C1493 C1494 1.394 . S
C1493 C1499 1.465 1_455 S
C1494 C1489 1.399 . S
C1494 C1493 1.394 . S
C1494 C1495 1.516 . S
C1495 C1494 1.516 . S
C1495 C1496 1.502 . S
C1495 C1497 1.561 1_455 S
C1495 C1498 1.526 1_455 S
C1496 H1480 0.959 . S
C1496 H1481 0.959 1_455 S
C1496 H1482 0.961 . S
C1496 C1495 1.502 . S
C1497 H1483 0.960 1_655 S
C1497 H1484 0.961 . S
C1497 H1485 0.959 . S
C1497 C1495 1.561 1_655 S
C1498 C1495 1.526 1_655 S
C1498 C1499 1.396 . S
C1498 C1503 1.390 . S
C1499 C1493 1.465 1_655 S
C1499 C1498 1.396 . S
C1499 C1500 1.399 . S
C1500 H1486 0.929 . S
C1500 C1499 1.399 . S
C1500 C1501 1.385 . S
C1501 H1487 0.931 . S
C1501 C1500 1.385 . S
C1501 C1502 1.389 . S
C1502 C1501 1.389 . S
C1502 C1503 1.387 . S
C1503 H1488 0.930 . S
C1503 C1498 1.390 . S
C1503 C1502 1.387 . S
H1504 C1516 0.930 . S
H1505 C1518 0.930 . S
H1506 C1519 0.930 . S
H1507 C1523 0.959 . S
H1508 C1523 0.959 . S
H1509 C1523 0.961 . S
H1510 C1524 0.960 . S
H1511 C1524 0.961 . S
H1512 C1524 0.959 . S
H1513 C1527 0.929 . S
H1514 C1528 0.931 . S
H1515 C1530 0.930 . S
C1516 H1504 0.930 . S
C1516 C1517 1.399 . S
C1516 C1521 1.399 1_554 S
C1517 C1516 1.399 . S
C1517 C1518 1.376 1_554 S
C1518 H1505 0.930 . S
C1518 C1517 1.376 1_556 S
C1518 C1519 1.388 . S
C1519 H1506 0.930 . S
C1519 C1518 1.388 . S
C1519 C1520 1.390 . S
C1520 C1519 1.390 . S
C1520 C1521 1.394 . S
C1520 C1526 1.465 . S
C1521 C1516 1.399 1_556 S
C1521 C1520 1.394 . S
C1521 C1522 1.516 . S
C1522 C1521 1.516 . S
C1522 C1523 1.502 1_556 S
C1522 C1524 1.561 1_556 S
C1522 C1525 1.526 . S
C1523 H1507 0.959 . S
C1523 H1508 0.959 . S
C1523 H1509 0.961 . S
C1523 C1522 1.502 1_554 S
C1524 H1510 0.960 . S
C1524 H1511 0.961 . S
C1524 H1512 0.959 . S
C1524 C1522 1.561 1_554 S
C1525 C1522 1.526 . S
C1525 C1526 1.396 . S
C1525 C1530 1.390 . S
C1526 C1520 1.465 . S
C1526 C1525 1.396 . S
C1526 C1527 1.399 . S
C1527 H1513 0.929 . S
C1527 C1526 1.399 . S
C1527 C1528 1.385 . S
C1528 H1514 0.931 . S
C1528 C1527 1.385 . S
C1528 C1529 1.389 . S
C1529 C1528 1.389 . S
C1529 C1530 1.387 . S
C1530 H1515 0.930 . S
C1530 C1525 1.390 . S
C1530 C1529 1.387 . S
H1531 C1543 0.930 . S
H1532 C1545 0.930 . S
H1533 C1546 0.930 . S
H1534 C1550 0.959 . S
H1535 C1550 0.959 . S
H1536 C1550 0.961 . S
H1537 C1551 0.960 . S
H1538 C1551 0.961 . S
H1539 C1551 0.959 . S
H1540 C1554 0.929 . S
H1541 C1555 0.931 . S
H1542 C1557 0.930 . S
C1543 H1531 0.930 . S
C1543 C1544 1.399 . S
C1543 C1548 1.399 . S
C1544 C1543 1.399 . S
C1544 C1545 1.376 . S
C1545 H1532 0.930 . S
C1545 C1544 1.376 . S
C1545 C1546 1.388 . S
C1546 H1533 0.930 . S
C1546 C1545 1.388 . S
C1546 C1547 1.390 . S
C1547 C1546 1.390 . S
C1547 C1548 1.394 . S
C1547 C1553 1.465 . S
C1548 C1543 1.399 . S
C1548 C1547 1.394 . S
C1548 C1549 1.516 . S
C1549 C1548 1.516 . S
C1549 C1550 1.502 . S
C1549 C1551 1.561 . S
C1549 C1552 1.526 . S
C1550 H1534 0.959 . S
C1550 H1535 0.959 . S
C1550 H1536 0.961 . S
C1550 C1549 1.502 . S
C1551 H1537 0.960 . S
C1551 H1538 0.961 . S
C1551 H1539 0.959 . S
C1551 C1549 1.561 . S
C1552 C1549 1.526 . S
C1552 C1553 1.396 . S
C1552 C1557 1.390 . S
C1553 C1547 1.465 . S
C1553 C1552 1.396 . S
C1553 C1554 1.399 . S
C1554 H1540 0.929 . S
C1554 C1553 1.399 . S
C1554 C1555 1.385 . S
C1555 H1541 0.931 . S
C1555 C1554 1.385 . S
C1555 C1556 1.389 . S
C1556 C1555 1.389 . S
C1556 C1557 1.387 . S
C1557 H1542 0.930 . S
C1557 C1552 1.390 . S
C1557 C1556 1.387 . S
H1558 C1570 0.930 . S
H1559 C1572 0.930 . S
H1560 C1573 0.930 . S
H1561 C1577 0.959 . S
H1562 C1577 0.959 . S
H1563 C1577 0.961 . S
H1564 C1578 0.960 . S
H1565 C1578 0.961 . S
H1566 C1578 0.959 . S
H1567 C1581 0.929 . S
H1568 C1582 0.931 . S
H1569 C1584 0.930 . S
C1570 H1558 0.930 . S
C1570 C1571 1.399 . S
C1570 C1575 1.399 . S
C1571 C1570 1.399 . S
C1571 C1572 1.376 . S
C1572 H1559 0.930 . S
C1572 C1571 1.376 . S
C1572 C1573 1.388 . S
C1573 H1560 0.930 . S
C1573 C1572 1.388 . S
C1573 C1574 1.390 . S
C1574 C1573 1.390 . S
C1574 C1575 1.394 . S
C1574 C1580 1.465 . S
C1575 C1570 1.399 . S
C1575 C1574 1.394 . S
C1575 C1576 1.516 . S
C1576 C1575 1.516 . S
C1576 C1577 1.502 . S
C1576 C1578 1.561 . S
C1576 C1579 1.526 . S
C1577 H1561 0.959 . S
C1577 H1562 0.959 . S
C1577 H1563 0.961 . S
C1577 C1576 1.502 . S
C1578 H1564 0.960 . S
C1578 H1565 0.961 . S
C1578 H1566 0.959 . S
C1578 C1576 1.561 . S
C1579 C1576 1.526 . S
C1579 C1580 1.396 . S
C1579 C1584 1.390 . S
C1580 C1574 1.465 . S
C1580 C1579 1.396 . S
C1580 C1581 1.399 . S
C1581 H1567 0.929 . S
C1581 C1580 1.399 . S
C1581 C1582 1.385 . S
C1582 H1568 0.931 . S
C1582 C1581 1.385 . S
C1582 C1583 1.389 . S
C1583 C1582 1.389 . S
C1583 C1584 1.387 . S
C1584 H1569 0.930 . S
C1584 C1579 1.390 . S
C1584 C1583 1.387 . S
H1585 C1597 0.930 . S
H1586 C1599 0.930 . S
H1587 C1600 0.930 . S
H1588 C1604 0.959 . S
H1589 C1604 0.959 . S
H1590 C1604 0.961 . S
H1591 C1605 0.960 . S
H1592 C1605 0.961 . S
H1593 C1605 0.959 . S
H1594 C1608 0.929 . S
H1595 C1609 0.931 . S
H1596 C1611 0.930 . S
C1597 H1585 0.930 . S
C1597 C1598 1.399 . S
C1597 C1602 1.399 . S
C1598 C1597 1.399 . S
C1598 C1599 1.376 . S
C1599 H1586 0.930 . S
C1599 C1598 1.376 . S
C1599 C1600 1.388 . S
C1600 H1587 0.930 . S
C1600 C1599 1.388 . S
C1600 C1601 1.390 . S
C1601 C1600 1.390 . S
C1601 C1602 1.394 . S
C1601 C1607 1.465 . S
C1602 C1597 1.399 . S
C1602 C1601 1.394 . S
C1602 C1603 1.516 . S
C1603 C1602 1.516 . S
C1603 C1604 1.502 . S
C1603 C1605 1.561 . S
C1603 C1606 1.526 . S
C1604 H1588 0.959 . S
C1604 H1589 0.959 . S
C1604 H1590 0.961 . S
C1604 C1603 1.502 . S
C1605 H1591 0.960 . S
C1605 H1592 0.961 . S
C1605 H1593 0.959 . S
C1605 C1603 1.561 . S
C1606 C1603 1.526 . S
C1606 C1607 1.396 . S
C1606 C1611 1.390 . S
C1607 C1601 1.465 . S
C1607 C1606 1.396 . S
C1607 C1608 1.399 . S
C1608 H1594 0.929 . S
C1608 C1607 1.399 . S
C1608 C1609 1.385 . S
C1609 H1595 0.931 . S
C1609 C1608 1.385 . S
C1609 C1610 1.389 . S
C1610 C1609 1.389 . S
C1610 C1611 1.387 . S
C1611 H1596 0.930 . S
C1611 C1606 1.390 . S
C1611 C1610 1.387 . S
H1612 C1624 0.930 . S
H1613 C1626 0.930 . S
H1614 C1627 0.930 . S
H1615 C1631 0.959 . S
H1616 C1631 0.959 . S
H1617 C1631 0.961 . S
H1618 C1632 0.960 . S
H1619 C1632 0.961 . S
H1620 C1632 0.959 1_554 S
H1621 C1635 0.929 . S
H1622 C1636 0.931 . S
H1623 C1638 0.930 . S
C1624 H1612 0.930 . S
C1624 C1625 1.399 . S
C1624 C1629 1.399 . S
C1625 C1624 1.399 . S
C1625 C1626 1.376 . S
C1626 H1613 0.930 . S
C1626 C1625 1.376 . S
C1626 C1627 1.388 . S
C1627 H1614 0.930 . S
C1627 C1626 1.388 . S
C1627 C1628 1.390 . S
C1628 C1627 1.390 . S
C1628 C1629 1.394 . S
C1628 C1634 1.465 . S
C1629 C1624 1.399 . S
C1629 C1628 1.394 . S
C1629 C1630 1.516 . S
C1630 C1629 1.516 . S
C1630 C1631 1.502 1_554 S
C1630 C1632 1.561 1_554 S
C1630 C1633 1.526 . S
C1631 H1615 0.959 . S
C1631 H1616 0.959 . S
C1631 H1617 0.961 . S
C1631 C1630 1.502 1_556 S
C1632 H1618 0.960 . S
C1632 H1619 0.961 . S
C1632 H1620 0.959 1_556 S
C1632 C1630 1.561 1_556 S
C1633 C1630 1.526 . S
C1633 C1634 1.396 . S
C1633 C1638 1.390 1_554 S
C1634 C1628 1.465 . S
C1634 C1633 1.396 . S
C1634 C1635 1.399 . S
C1635 H1621 0.929 . S
C1635 C1634 1.399 . S
C1635 C1636 1.385 . S
C1636 H1622 0.931 . S
C1636 C1635 1.385 . S
C1636 C1637 1.389 1_554 S
C1637 C1636 1.389 1_556 S
C1637 C1638 1.387 . S
C1638 H1623 0.930 . S
C1638 C1633 1.390 1_556 S
C1638 C1637 1.387 . S
H1639 C1651 0.930 . S
H1640 C1653 0.930 . S
H1641 C1654 0.930 . S
H1642 C1658 0.959 . S
H1643 C1658 0.959 . S
H1644 C1658 0.961 . S
H1645 C1659 0.960 . S
H1646 C1659 0.961 . S
H1647 C1659 0.959 . S
H1648 C1662 0.929 . S
H1649 C1663 0.931 . S
H1650 C1665 0.930 . S
C1651 H1639 0.930 . S
C1651 C1652 1.399 . S
C1651 C1656 1.399 . S
C1652 C1651 1.399 . S
C1652 C1653 1.376 . S
C1653 H1640 0.930 . S
C1653 C1652 1.376 . S
C1653 C1654 1.388 . S
C1654 H1641 0.930 . S
C1654 C1653 1.388 . S
C1654 C1655 1.390 . S
C1655 C1654 1.390 . S
C1655 C1656 1.394 . S
C1655 C1661 1.465 . S
C1656 C1651 1.399 . S
C1656 C1655 1.394 . S
C1656 C1657 1.516 . S
C1657 C1656 1.516 . S
C1657 C1658 1.502 . S
C1657 C1659 1.561 . S
C1657 C1660 1.526 . S
C1658 H1642 0.959 . S
C1658 H1643 0.959 . S
C1658 H1644 0.961 . S
C1658 C1657 1.502 . S
C1659 H1645 0.960 . S
C1659 H1646 0.961 . S
C1659 H1647 0.959 . S
C1659 C1657 1.561 . S
C1660 C1657 1.526 . S
C1660 C1661 1.396 . S
C1660 C1665 1.390 . S
C1661 C1655 1.465 . S
C1661 C1660 1.396 . S
C1661 C1662 1.399 . S
C1662 H1648 0.929 . S
C1662 C1661 1.399 . S
C1662 C1663 1.385 . S
C1663 H1649 0.931 . S
C1663 C1662 1.385 . S
C1663 C1664 1.389 . S
C1664 C1663 1.389 . S
C1664 C1665 1.387 . S
C1665 H1650 0.930 . S
C1665 C1660 1.390 . S
C1665 C1664 1.387 . S
H1666 C1678 0.930 . S
H1667 C1680 0.930 . S
H1668 C1681 0.930 . S
H1669 C1685 0.959 . S
H1670 C1685 0.959 . S
H1671 C1685 0.961 . S
H1672 C1686 0.960 . S
H1673 C1686 0.961 . S
H1674 C1686 0.959 . S
H1675 C1689 0.929 . S
H1676 C1690 0.931 . S
H1677 C1692 0.930 . S
C1678 H1666 0.930 . S
C1678 C1679 1.399 . S
C1678 C1683 1.399 . S
C1679 C1678 1.399 . S
C1679 C1680 1.376 . S
C1680 H1667 0.930 . S
C1680 C1679 1.376 . S
C1680 C1681 1.388 . S
C1681 H1668 0.930 . S
C1681 C1680 1.388 . S
C1681 C1682 1.390 . S
C1682 C1681 1.390 . S
C1682 C1683 1.394 . S
C1682 C1688 1.465 . S
C1683 C1678 1.399 . S
C1683 C1682 1.394 . S
C1683 C1684 1.516 . S
C1684 C1683 1.516 . S
C1684 C1685 1.502 . S
C1684 C1686 1.561 . S
C1684 C1687 1.526 . S
C1685 H1669 0.959 . S
C1685 H1670 0.959 . S
C1685 H1671 0.961 . S
C1685 C1684 1.502 . S
C1686 H1672 0.960 . S
C1686 H1673 0.961 . S
C1686 H1674 0.959 . S
C1686 C1684 1.561 . S
C1687 C1684 1.526 . S
C1687 C1688 1.396 . S
C1687 C1692 1.390 . S
C1688 C1682 1.465 . S
C1688 C1687 1.396 . S
C1688 C1689 1.399 . S
C1689 H1675 0.929 . S
C1689 C1688 1.399 . S
C1689 C1690 1.385 . S
C1690 H1676 0.931 . S
C1690 C1689 1.385 . S
C1690 C1691 1.389 . S
C1691 C1690 1.389 . S
C1691 C1692 1.387 . S
C1692 H1677 0.930 . S
C1692 C1687 1.390 . S
C1692 C1691 1.387 . S
H1693 C1705 0.930 . S
H1694 C1707 0.930 . S
H1695 C1708 0.930 . S
H1696 C1712 0.959 . S
H1697 C1712 0.959 . S
H1698 C1712 0.961 . S
H1699 C1713 0.960 . S
H1700 C1713 0.961 . S
H1701 C1713 0.959 . S
H1702 C1716 0.929 . S
H1703 C1717 0.931 . S
H1704 C1719 0.930 . S
C1705 H1693 0.930 . S
C1705 C1706 1.399 . S
C1705 C1710 1.399 . S
C1706 C1705 1.399 . S
C1706 C1707 1.376 . S
C1707 H1694 0.930 . S
C1707 C1706 1.376 . S
C1707 C1708 1.388 . S
C1708 H1695 0.930 . S
C1708 C1707 1.388 . S
C1708 C1709 1.390 . S
C1709 C1708 1.390 . S
C1709 C1710 1.394 . S
C1709 C1715 1.465 . S
C1710 C1705 1.399 . S
C1710 C1709 1.394 . S
C1710 C1711 1.516 . S
C1711 C1710 1.516 . S
C1711 C1712 1.502 . S
C1711 C1713 1.561 . S
C1711 C1714 1.526 . S
C1712 H1696 0.959 . S
C1712 H1697 0.959 . S
C1712 H1698 0.961 . S
C1712 C1711 1.502 . S
C1713 H1699 0.960 . S
C1713 H1700 0.961 . S
C1713 H1701 0.959 . S
C1713 C1711 1.561 . S
C1714 C1711 1.526 . S
C1714 C1715 1.396 . S
C1714 C1719 1.390 . S
C1715 C1709 1.465 . S
C1715 C1714 1.396 . S
C1715 C1716 1.399 . S
C1716 H1702 0.929 . S
C1716 C1715 1.399 . S
C1716 C1717 1.385 . S
C1717 H1703 0.931 . S
C1717 C1716 1.385 . S
C1717 C1718 1.389 . S
C1718 C1717 1.389 . S
C1718 C1719 1.387 . S
C1719 H1704 0.930 . S
C1719 C1714 1.390 . S
C1719 C1718 1.387 . S
H1720 C1732 0.930 . S
H1721 C1734 0.930 . S
H1722 C1735 0.930 . S
H1723 C1739 0.959 . S
H1724 C1739 0.959 . S
H1725 C1739 0.961 . S
H1726 C1740 0.960 . S
H1727 C1740 0.961 . S
H1728 C1740 0.959 . S
H1729 C1743 0.929 1_565 S
H1730 C1744 0.931 . S
H1731 C1746 0.930 . S
C1732 H1720 0.930 . S
C1732 C1733 1.399 . S
C1732 C1737 1.399 . S
C1733 C1732 1.399 . S
C1733 C1734 1.376 . S
C1734 H1721 0.930 . S
C1734 C1733 1.376 . S
C1734 C1735 1.388 . S
C1735 H1722 0.930 . S
C1735 C1734 1.388 . S
C1735 C1736 1.390 . S
C1736 C1735 1.390 . S
C1736 C1737 1.394 . S
C1736 C1742 1.465 1_565 S
C1737 C1732 1.399 . S
C1737 C1736 1.394 . S
C1737 C1738 1.516 1_565 S
C1738 C1737 1.516 1_545 S
C1738 C1739 1.502 . S
C1738 C1740 1.561 . S
C1738 C1741 1.526 . S
C1739 H1723 0.959 . S
C1739 H1724 0.959 . S
C1739 H1725 0.961 . S
C1739 C1738 1.502 . S
C1740 H1726 0.960 . S
C1740 H1727 0.961 . S
C1740 H1728 0.959 . S
C1740 C1738 1.561 . S
C1741 C1738 1.526 . S
C1741 C1742 1.396 . S
C1741 C1746 1.390 . S
C1742 C1736 1.465 1_545 S
C1742 C1741 1.396 . S
C1742 C1743 1.399 . S
C1743 H1729 0.929 1_545 S
C1743 C1742 1.399 . S
C1743 C1744 1.385 . S
C1744 H1730 0.931 . S
C1744 C1743 1.385 . S
C1744 C1745 1.389 . S
C1745 C1744 1.389 . S
C1745 C1746 1.387 . S
C1746 H1731 0.930 . S
C1746 C1741 1.390 . S
C1746 C1745 1.387 . S
H1747 C1759 0.930 . S
H1748 C1761 0.930 . S
H1749 C1762 0.930 . S
H1750 C1766 0.959 . S
H1751 C1766 0.959 . S
H1752 C1766 0.961 . S
H1753 C1767 0.960 . S
H1754 C1767 0.961 . S
H1755 C1767 0.959 . S
H1756 C1770 0.929 . S
H1757 C1771 0.931 . S
H1758 C1773 0.930 . S
C1759 H1747 0.930 . S
C1759 C1760 1.399 . S
C1759 C1764 1.399 . S
C1760 C1759 1.399 . S
C1760 C1761 1.376 . S
C1761 H1748 0.930 . S
C1761 C1760 1.376 . S
C1761 C1762 1.388 . S
C1762 H1749 0.930 . S
C1762 C1761 1.388 . S
C1762 C1763 1.390 . S
C1763 C1762 1.390 . S
C1763 C1764 1.394 . S
C1763 C1769 1.465 . S
C1764 C1759 1.399 . S
C1764 C1763 1.394 . S
C1764 C1765 1.516 . S
C1765 C1764 1.516 . S
C1765 C1766 1.502 . S
C1765 C1767 1.561 . S
C1765 C1768 1.526 . S
C1766 H1750 0.959 . S
C1766 H1751 0.959 . S
C1766 H1752 0.961 . S
C1766 C1765 1.502 . S
C1767 H1753 0.960 . S
C1767 H1754 0.961 . S
C1767 H1755 0.959 . S
C1767 C1765 1.561 . S
C1768 C1765 1.526 . S
C1768 C1769 1.396 . S
C1768 C1773 1.390 . S
C1769 C1763 1.465 . S
C1769 C1768 1.396 . S
C1769 C1770 1.399 . S
C1770 H1756 0.929 . S
C1770 C1769 1.399 . S
C1770 C1771 1.385 . S
C1771 H1757 0.931 . S
C1771 C1770 1.385 . S
C1771 C1772 1.389 . S
C1772 C1771 1.389 . S
C1772 C1773 1.387 . S
C1773 H1758 0.930 . S
C1773 C1768 1.390 . S
C1773 C1772 1.387 . S
H1774 C1786 0.930 . S
H1775 C1788 0.930 . S
H1776 C1789 0.930 . S
H1777 C1793 0.959 . S
H1778 C1793 0.959 . S
H1779 C1793 0.961 . S
H1780 C1794 0.960 . S
H1781 C1794 0.961 . S
H1782 C1794 0.959 . S
H1783 C1797 0.929 1_565 S
H1784 C1798 0.931 . S
H1785 C1800 0.930 . S
C1786 H1774 0.930 . S
C1786 C1787 1.399 . S
C1786 C1791 1.399 . S
C1787 C1786 1.399 . S
C1787 C1788 1.376 1_554 S
C1788 H1775 0.930 . S
C1788 C1787 1.376 1_556 S
C1788 C1789 1.388 . S
C1789 H1776 0.930 . S
C1789 C1788 1.388 . S
C1789 C1790 1.390 . S
C1790 C1789 1.390 . S
C1790 C1791 1.394 1_556 S
C1790 C1796 1.465 1_565 S
C1791 C1786 1.399 . S
C1791 C1790 1.394 1_554 S
C1791 C1792 1.516 1_565 S
C1792 C1791 1.516 1_545 S
C1792 C1793 1.502 . S
C1792 C1794 1.561 . S
C1792 C1795 1.526 1_554 S
C1793 H1777 0.959 . S
C1793 H1778 0.959 . S
C1793 H1779 0.961 . S
C1793 C1792 1.502 . S
C1794 H1780 0.960 . S
C1794 H1781 0.961 . S
C1794 H1782 0.959 . S
C1794 C1792 1.561 . S
C1795 C1792 1.526 1_556 S
C1795 C1796 1.396 . S
C1795 C1800 1.390 . S
C1796 C1790 1.465 1_545 S
C1796 C1795 1.396 . S
C1796 C1797 1.399 . S
C1797 H1783 0.929 1_545 S
C1797 C1796 1.399 . S
C1797 C1798 1.385 . S
C1798 H1784 0.931 . S
C1798 C1797 1.385 . S
C1798 C1799 1.389 . S
C1799 C1798 1.389 . S
C1799 C1800 1.387 . S
C1800 H1785 0.930 . S
C1800 C1795 1.390 . S
C1800 C1799 1.387 . S
H1801 C1813 0.930 . S
H1802 C1815 0.930 . S
H1803 C1816 0.930 . S
H1804 C1820 0.959 . S
H1805 C1820 0.959 . S
H1806 C1820 0.961 . S
H1807 C1821 0.960 . S
H1808 C1821 0.961 . S
H1809 C1821 0.959 . S
H1810 C1824 0.929 . S
H1811 C1825 0.931 . S
H1812 C1827 0.930 . S
C1813 H1801 0.930 . S
C1813 C1814 1.399 . S
C1813 C1818 1.399 . S
C1814 C1813 1.399 . S
C1814 C1815 1.376 . S
C1815 H1802 0.930 . S
C1815 C1814 1.376 . S
C1815 C1816 1.388 . S
C1816 H1803 0.930 . S
C1816 C1815 1.388 . S
C1816 C1817 1.390 . S
C1817 C1816 1.390 . S
C1817 C1818 1.394 . S
C1817 C1823 1.465 . S
C1818 C1813 1.399 . S
C1818 C1817 1.394 . S
C1818 C1819 1.516 . S
C1819 C1818 1.516 . S
C1819 C1820 1.502 . S
C1819 C1821 1.561 . S
C1819 C1822 1.526 . S
C1820 H1804 0.959 . S
C1820 H1805 0.959 . S
C1820 H1806 0.961 . S
C1820 C1819 1.502 . S
C1821 H1807 0.960 . S
C1821 H1808 0.961 . S
C1821 H1809 0.959 . S
C1821 C1819 1.561 . S
C1822 C1819 1.526 . S
C1822 C1823 1.396 . S
C1822 C1827 1.390 . S
C1823 C1817 1.465 . S
C1823 C1822 1.396 . S
C1823 C1824 1.399 . S
C1824 H1810 0.929 . S
C1824 C1823 1.399 . S
C1824 C1825 1.385 . S
C1825 H1811 0.931 . S
C1825 C1824 1.385 . S
C1825 C1826 1.389 . S
C1826 C1825 1.389 . S
C1826 C1827 1.387 . S
C1827 H1812 0.930 . S
C1827 C1822 1.390 . S
C1827 C1826 1.387 . S
H1828 C1840 0.930 . S
H1829 C1842 0.930 . S
H1830 C1843 0.930 . S
H1831 C1847 0.959 . S
H1832 C1847 0.959 . S
H1833 C1847 0.961 . S
H1834 C1848 0.960 . S
H1835 C1848 0.961 . S
H1836 C1848 0.959 . S
H1837 C1851 0.929 1_565 S
H1838 C1852 0.931 . S
H1839 C1854 0.930 . S
C1840 H1828 0.930 . S
C1840 C1841 1.399 . S
C1840 C1845 1.399 . S
C1841 C1840 1.399 . S
C1841 C1842 1.376 . S
C1842 H1829 0.930 . S
C1842 C1841 1.376 . S
C1842 C1843 1.388 . S
C1843 H1830 0.930 . S
C1843 C1842 1.388 . S
C1843 C1844 1.390 . S
C1844 C1843 1.390 . S
C1844 C1845 1.394 . S
C1844 C1850 1.461 . S
C1845 C1840 1.399 . S
C1845 C1844 1.394 . S
C1845 C1846 1.516 1_565 S
C1846 C1845 1.516 1_545 S
C1846 C1847 1.502 . S
C1846 C1848 1.561 . S
C1846 C1849 1.526 . S
C1847 H1831 0.959 . S
C1847 H1832 0.959 . S
C1847 H1833 0.961 . S
C1847 C1846 1.502 . S
C1848 H1834 0.960 . S
C1848 H1835 0.961 . S
C1848 H1836 0.959 . S
C1848 C1846 1.561 . S
C1849 C1846 1.526 . S
C1849 C1850 1.400 1_545 S
C1849 C1854 1.390 . S
C1850 C1844 1.461 . S
C1850 C1849 1.400 1_565 S
C1850 C1851 1.400 1_565 S
C1851 H1837 0.929 1_545 S
C1851 C1850 1.400 1_545 S
C1851 C1852 1.385 . S
C1852 H1838 0.931 . S
C1852 C1851 1.385 . S
C1852 C1853 1.389 . S
C1853 C1852 1.389 . S
C1853 C1854 1.387 . S
C1854 H1839 0.930 . S
C1854 C1849 1.390 . S
C1854 C1853 1.387 . S
H1855 C1867 0.930 . S
H1856 C1869 0.930 . S
H1857 C1870 0.930 . S
H1858 C1874 0.959 . S
H1859 C1874 0.959 . S
H1860 C1874 0.961 . S
H1861 C1875 0.960 . S
H1862 C1875 0.961 . S
H1863 C1875 0.959 . S
H1864 C1878 0.929 . S
H1865 C1879 0.931 . S
H1866 C1881 0.930 . S
C1867 H1855 0.930 . S
C1867 C1868 1.399 . S
C1867 C1872 1.399 . S
C1868 C1867 1.399 . S
C1868 C1869 1.376 . S
C1869 H1856 0.930 . S
C1869 C1868 1.376 . S
C1869 C1870 1.388 . S
C1870 H1857 0.930 . S
C1870 C1869 1.388 . S
C1870 C1871 1.390 . S
C1871 C1870 1.390 . S
C1871 C1872 1.394 . S
C1871 C1877 1.465 . S
C1872 C1867 1.399 . S
C1872 C1871 1.394 . S
C1872 C1873 1.516 . S
C1873 C1872 1.516 . S
C1873 C1874 1.502 . S
C1873 C1875 1.561 . S
C1873 C1876 1.526 . S
C1874 H1858 0.959 . S
C1874 H1859 0.959 . S
C1874 H1860 0.961 . S
C1874 C1873 1.502 . S
C1875 H1861 0.960 . S
C1875 H1862 0.961 . S
C1875 H1863 0.959 . S
C1875 C1873 1.561 . S
C1876 C1873 1.526 . S
C1876 C1877 1.396 . S
C1876 C1881 1.390 . S
C1877 C1871 1.465 . S
C1877 C1876 1.396 . S
C1877 C1878 1.399 . S
C1878 H1864 0.929 . S
C1878 C1877 1.399 . S
C1878 C1879 1.385 . S
C1879 H1865 0.931 . S
C1879 C1878 1.385 . S
C1879 C1880 1.389 . S
C1880 C1879 1.389 . S
C1880 C1881 1.387 . S
C1881 H1866 0.930 . S
C1881 C1876 1.390 . S
C1881 C1880 1.387 . S
H1882 C1894 0.930 . S
H1883 C1896 0.930 . S
H1884 C1897 0.930 . S
H1885 C1901 0.959 . S
H1886 C1901 0.959 . S
H1887 C1901 0.961 . S
H1888 C1902 0.960 . S
H1889 C1902 0.961 . S
H1890 C1902 0.959 . S
H1891 C1905 0.929 . S
H1892 C1906 0.931 . S
H1893 C1908 0.930 . S
C1894 H1882 0.930 . S
C1894 C1895 1.399 1_554 S
C1894 C1899 1.399 . S
C1895 C1894 1.399 1_556 S
C1895 C1896 1.376 . S
C1896 H1883 0.930 . S
C1896 C1895 1.376 . S
C1896 C1897 1.388 . S
C1897 H1884 0.930 . S
C1897 C1896 1.388 . S
C1897 C1898 1.390 . S
C1898 C1897 1.390 . S
C1898 C1899 1.394 1_556 S
C1898 C1904 1.465 1_546 S
C1899 C1894 1.399 . S
C1899 C1898 1.394 1_554 S
C1899 C1900 1.516 . S
C1900 C1899 1.516 . S
C1900 C1901 1.502 . S
C1900 C1902 1.561 . S
C1900 C1903 1.526 1_545 S
C1901 H1885 0.959 . S
C1901 H1886 0.959 . S
C1901 H1887 0.961 . S
C1901 C1900 1.502 . S
C1902 H1888 0.960 . S
C1902 H1889 0.961 . S
C1902 H1890 0.959 . S
C1902 C1900 1.561 . S
C1903 C1900 1.526 1_565 S
C1903 C1904 1.396 . S
C1903 C1908 1.390 . S
C1904 C1898 1.465 1_564 S
C1904 C1903 1.396 . S
C1904 C1905 1.399 1_554 S
C1905 H1891 0.929 . S
C1905 C1904 1.399 1_556 S
C1905 C1906 1.385 1_556 S
C1906 H1892 0.931 . S
C1906 C1905 1.385 1_554 S
C1906 C1907 1.389 . S
C1907 C1906 1.389 . S
C1907 C1908 1.387 . S
C1908 H1893 0.930 . S
C1908 C1903 1.390 . S
C1908 C1907 1.387 . S
H1909 C1921 0.930 . S
H1910 C1923 0.930 . S
H1911 C1924 0.930 . S
H1912 C1928 0.959 . S
H1913 C1928 0.959 . S
H1914 C1928 0.961 . S
H1915 C1929 0.960 . S
H1916 C1929 0.961 . S
H1917 C1929 0.959 . S
H1918 C1932 0.929 . S
H1919 C1933 0.931 . S
H1920 C1935 0.930 . S
C1921 H1909 0.930 . S
C1921 C1922 1.399 . S
C1921 C1926 1.399 . S
C1922 C1921 1.399 . S
C1922 C1923 1.376 . S
C1923 H1910 0.930 . S
C1923 C1922 1.376 . S
C1923 C1924 1.388 . S
C1924 H1911 0.930 . S
C1924 C1923 1.388 . S
C1924 C1925 1.390 . S
C1925 C1924 1.390 . S
C1925 C1926 1.394 . S
C1925 C1931 1.465 . S
C1926 C1921 1.399 . S
C1926 C1925 1.394 . S
C1926 C1927 1.516 . S
C1927 C1926 1.516 . S
C1927 C1928 1.502 . S
C1927 C1929 1.561 . S
C1927 C1930 1.526 . S
C1928 H1912 0.959 . S
C1928 H1913 0.959 . S
C1928 H1914 0.961 . S
C1928 C1927 1.502 . S
C1929 H1915 0.960 . S
C1929 H1916 0.961 . S
C1929 H1917 0.959 . S
C1929 C1927 1.561 . S
C1930 C1927 1.526 . S
C1930 C1931 1.396 . S
C1930 C1935 1.390 . S
C1931 C1925 1.465 . S
C1931 C1930 1.396 . S
C1931 C1932 1.399 . S
C1932 H1918 0.929 . S
C1932 C1931 1.399 . S
C1932 C1933 1.385 . S
C1933 H1919 0.931 . S
C1933 C1932 1.385 . S
C1933 C1934 1.389 . S
C1934 C1933 1.389 . S
C1934 C1935 1.387 . S
C1935 H1920 0.930 . S
C1935 C1930 1.390 . S
C1935 C1934 1.387 . S
C653 C17 1.540 . S
C665 C26 1.498 . S
C680 C57 1.450 1_556 S
C692 C66 1.447 . S
C707 C97 1.546 . S
C719 C106 1.586 . S
C734 C137 1.576 . S
C746 C146 1.547 . S
C761 C186 1.405 . S
C773 C177 1.439 . S
C788 C226 1.528 . S
C800 C217 1.574 . S
C815 C266 1.538 . S
C827 C257 1.499 1_556 S
C842 C306 1.459 . S
C854 C297 1.445 . S
C869 C346 1.534 . S
C881 C337 1.502 . S
C896 C377 1.447 . S
C908 C386 1.450 1_554 S
C923 C417 1.589 . S
C935 C426 1.537 . S
C950 C466 1.538 . S
C962 C457 1.573 . S
C977 C497 1.415 . S
C989 C506 1.422 . S
C1004 C546 1.580 . S
C1016 C537 1.530 . S
C1031 C577 1.530 . S
C1043 C586 1.509 1_554 S
C1058 C617 1.435 . S
C1070 C626 1.475 . S
C1085 C13 1.629 . S
C1097 C463 1.596 . S
C1112 C53 1.797 . S
C1124 C623 1.737 . S
C1139 C93 1.725 . S
C1151 C383 1.642 . S
C1166 C133 1.826 . S
C1178 C544 1.803 . S
C1193 C162 1.563 . S
C1205 C543 1.634 . S
C1220 C464 1.811 . S
C1232 C213 1.798 . S
C1247 C242 1.597 . S
C1259 C624 1.731 . S
C1274 C282 1.740 . S
C1286 C384 1.800 . S
C1301 C122 1.591 . S
C1313 C344 1.637 . S
C1328 C42 1.695 . S
C1340 C424 1.731 . S
C1355 C503 1.570 . S
C1367 C202 1.633 . S
C1382 C293 1.726 . S
C1394 C583 1.648 . S
C1409 C343 1.707 . S
C1421 C173 1.787 . S
C1436 C253 1.723 . S
C1448 C423 1.644 . S
C1463 C82 1.631 . S
C1475 C584 1.727 . S
C1490 C2 1.729 . S
C1502 C504 1.817 . S
C1517 C24 1.709 . S
C1529 C183 1.712 . S
C1544 C64 1.744 . S
C1556 C224 1.737 . S
C1571 C104 1.738 . S
C1583 C263 1.745 . S
C1598 C144 1.779 . S
C1610 C303 1.777 . S
C1625 C482 1.712 . S
C1637 C333 1.703 . S
C1652 C533 1.726 . S
C1664 C373 1.763 . S
C1679 C413 1.731 . S
C1691 C562 1.743 . S
C1706 C602 1.779 . S
C1718 C453 1.749 . S
C1733 C63 1.836 . S
C1745 C304 1.837 . S
C1760 C184 1.920 . S
C1772 C103 1.945 . S
C1787 C223 1.557 . S
C1799 C143 1.549 . S
C1814 C23 1.690 . S
C1826 C264 1.688 . S
C1841 C613 1.817 . S
C1853 C362 1.836 . S
C1868 C493 1.920 . S
C1880 C402 1.948 . S
C1895 C522 1.540 . S
C1907 C442 1.561 . S
C1922 C573 1.692 . S
C1934 C322 1.690 . S
