# Generated by pormake.
# Topology cag, (4)-cn, num edge types: 1
# Building blocks:
#     Node 0, Type 0, BuildingBlock: GALJAG_clean_sbu_0, # of connection points: 4
#     Node 1, Type 0, BuildingBlock: GALJAG_clean_sbu_0, # of connection points: 4
#     Node 2, Type 0, BuildingBlock: GALJAG_clean_sbu_0, # of connection points: 4
#     Node 3, Type 0, BuildingBlock: GALJAG_clean_sbu_0, # of connection points: 4
#     Node 4, Type 0, BuildingBlock: GALJAG_clean_sbu_0, # of connection points: 4
#     Node 5, Type 0, BuildingBlock: GALJAG_clean_sbu_0, # of connection points: 4
#     Node 6, Type 0, BuildingBlock: GALJAG_clean_sbu_0, # of connection points: 4
#     Node 7, Type 0, BuildingBlock: GALJAG_clean_sbu_0, # of connection points: 4
#     Node 8, Type 0, BuildingBlock: GALJAG_clean_sbu_0, # of connection points: 4
#     Node 9, Type 0, BuildingBlock: GALJAG_clean_sbu_0, # of connection points: 4
#     Node 10, Type 0, BuildingBlock: GALJAG_clean_sbu_0, # of connection points: 4
#     Node 11, Type 0, BuildingBlock: GALJAG_clean_sbu_0, # of connection points: 4
#     Node 12, Type 0, BuildingBlock: GALJAG_clean_sbu_0, # of connection points: 4
#     Node 13, Type 0, BuildingBlock: GALJAG_clean_sbu_0, # of connection points: 4
#     Node 14, Type 0, BuildingBlock: GALJAG_clean_sbu_0, # of connection points: 4
#     Node 15, Type 0, BuildingBlock: GALJAG_clean_sbu_0, # of connection points: 4
#     Edge 16, Type (0, 0), BuildingBlock: ZUJKAS_clean_linker_0, # of connection points: 2
#     Edge 17, Type (0, 0), BuildingBlock: ZUJKAS_clean_linker_0, # of connection points: 2
#     Edge 18, Type (0, 0), BuildingBlock: ZUJKAS_clean_linker_0, # of connection points: 2
#     Edge 19, Type (0, 0), BuildingBlock: ZUJKAS_clean_linker_0, # of connection points: 2
#     Edge 20, Type (0, 0), BuildingBlock: ZUJKAS_clean_linker_0, # of connection points: 2
#     Edge 21, Type (0, 0), BuildingBlock: ZUJKAS_clean_linker_0, # of connection points: 2
#     Edge 22, Type (0, 0), BuildingBlock: ZUJKAS_clean_linker_0, # of connection points: 2
#     Edge 23, Type (0, 0), BuildingBlock: ZUJKAS_clean_linker_0, # of connection points: 2
#     Edge 24, Type (0, 0), BuildingBlock: ZUJKAS_clean_linker_0, # of connection points: 2
#     Edge 25, Type (0, 0), BuildingBlock: ZUJKAS_clean_linker_0, # of connection points: 2
#     Edge 26, Type (0, 0), BuildingBlock: ZUJKAS_clean_linker_0, # of connection points: 2
#     Edge 27, Type (0, 0), BuildingBlock: ZUJKAS_clean_linker_0, # of connection points: 2
#     Edge 28, Type (0, 0), BuildingBlock: ZUJKAS_clean_linker_0, # of connection points: 2
#     Edge 29, Type (0, 0), BuildingBlock: ZUJKAS_clean_linker_0, # of connection points: 2
#     Edge 30, Type (0, 0), BuildingBlock: ZUJKAS_clean_linker_0, # of connection points: 2
#     Edge 31, Type (0, 0), BuildingBlock: ZUJKAS_clean_linker_0, # of connection points: 2
#     Edge 32, Type (0, 0), BuildingBlock: ZUJKAS_clean_linker_0, # of connection points: 2
#     Edge 33, Type (0, 0), BuildingBlock: ZUJKAS_clean_linker_0, # of connection points: 2
#     Edge 34, Type (0, 0), BuildingBlock: ZUJKAS_clean_linker_0, # of connection points: 2
#     Edge 35, Type (0, 0), BuildingBlock: ZUJKAS_clean_linker_0, # of connection points: 2
#     Edge 36, Type (0, 0), BuildingBlock: ZUJKAS_clean_linker_0, # of connection points: 2
#     Edge 37, Type (0, 0), BuildingBlock: ZUJKAS_clean_linker_0, # of connection points: 2
#     Edge 38, Type (0, 0), BuildingBlock: ZUJKAS_clean_linker_0, # of connection points: 2
#     Edge 39, Type (0, 0), BuildingBlock: ZUJKAS_clean_linker_0, # of connection points: 2
#     Edge 40, Type (0, 0), BuildingBlock: ZUJKAS_clean_linker_0, # of connection points: 2
#     Edge 41, Type (0, 0), BuildingBlock: ZUJKAS_clean_linker_0, # of connection points: 2
#     Edge 42, Type (0, 0), BuildingBlock: ZUJKAS_clean_linker_0, # of connection points: 2
#     Edge 43, Type (0, 0), BuildingBlock: ZUJKAS_clean_linker_0, # of connection points: 2
#     Edge 44, Type (0, 0), BuildingBlock: ZUJKAS_clean_linker_0, # of connection points: 2
#     Edge 45, Type (0, 0), BuildingBlock: ZUJKAS_clean_linker_0, # of connection points: 2
#     Edge 46, Type (0, 0), BuildingBlock: ZUJKAS_clean_linker_0, # of connection points: 2
#     Edge 47, Type (0, 0), BuildingBlock: ZUJKAS_clean_linker_0, # of connection points: 2
# Relax obj value: 0.084
# Max RMSD: 0.168
# Mean RMSD: 0.142
data_MOF--net-cag--node1-GALJAG_clean_sbu_0--edge1-ZUJKAS_clean_linker_0
_symmetry_space_group_name_H-M    P1
_symmetry_Int_Tables_number       1
_symmetry_cell_setting            triclinic
loop_
_symmetry_equiv_pos_as_xyz
'x, y, z'
_cell_length_a     60.47627
_cell_length_b     64.670417
_cell_length_c     50.014963
_cell_angle_alpha  90.007153
_cell_angle_beta   89.985984
_cell_angle_gamma 90.008352
loop_
_atom_site_label
_atom_site_type_symbol
_atom_site_fract_x
_atom_site_fract_y
_atom_site_fract_z
_atom_type_partial_charge
In0 In 0.33178 0.14164 0.07897 0.0
O1 O 0.30344 0.13235 0.10643 0.0
O2 O 0.32705 0.15368 0.12157 0.0
C3 C 0.33096 0.10358 0.05683 0.0
C4 C 0.30889 0.17115 0.05254 0.0
C5 C 0.37612 0.14688 0.08168 0.0
O6 O 0.32903 0.1066 0.08162 0.0
O7 O 0.33333 0.1198 0.04308 0.0
O8 O 0.3646 0.15409 0.06286 0.0
O9 O 0.36528 0.13724 0.09922 0.0
C10 C 0.30962 0.14345 0.12577 0.0
O11 O 0.32373 0.17532 0.06939 0.0
O12 O 0.30578 0.1521 0.04872 0.0
In13 In 0.17174 0.86089 0.57775 0.0
O14 O 0.17819 0.82752 0.56506 0.0
O15 O 0.19879 0.85084 0.54861 0.0
C16 C 0.12746 0.85604 0.58211 0.0
C17 C 0.19419 0.85768 0.62421 0.0
C18 C 0.17187 0.89906 0.55587 0.0
O19 O 0.13828 0.84964 0.56219 0.0
O20 O 0.13899 0.86468 0.59989 0.0
O21 O 0.17407 0.89599 0.58063 0.0
O22 O 0.16968 0.88285 0.54206 0.0
C23 C 0.19428 0.83184 0.55002 0.0
O24 O 0.19987 0.86987 0.60577 0.0
O25 O 0.1771 0.84715 0.61929 0.0
In26 In 0.33119 0.86112 0.92166 0.0
O27 O 0.3271 0.83121 0.94562 0.0
O28 O 0.29854 0.84957 0.93889 0.0
C29 C 0.37514 0.8537 0.91791 0.0
C30 C 0.31092 0.85839 0.87379 0.0
C31 C 0.33068 0.89944 0.94339 0.0
O32 O 0.36498 0.8538 0.93993 0.0
O33 O 0.3631 0.85703 0.8978 0.0
O34 O 0.33573 0.89607 0.91934 0.0
O35 O 0.32584 0.88346 0.9566 0.0
C36 C 0.30654 0.83334 0.94895 0.0
O37 O 0.30981 0.87428 0.88837 0.0
O38 O 0.32245 0.84385 0.88325 0.0
In39 In 0.16729 0.1413 0.42054 0.0
O40 O 0.19149 0.12819 0.38999 0.0
O41 O 0.1762 0.15689 0.38096 0.0
C42 C 0.16747 0.10327 0.44277 0.0
C43 C 0.19079 0.17008 0.44752 0.0
C44 C 0.12308 0.14733 0.41719 0.0
O45 O 0.16459 0.10624 0.41809 0.0
O46 O 0.17018 0.11953 0.45635 0.0
O47 O 0.13365 0.14941 0.43875 0.0
O48 O 0.13481 0.14245 0.39734 0.0
C49 C 0.18949 0.14294 0.37371 0.0
O50 O 0.1728 0.17416 0.43589 0.0
O51 O 0.19674 0.15144 0.44589 0.0
In52 In 0.65622 0.86204 0.91063 0.0
O53 O 0.6845 0.84982 0.93629 0.0
O54 O 0.66135 0.82802 0.92136 0.0
C55 C 0.65564 0.89874 0.93623 0.0
C56 C 0.67961 0.86431 0.86456 0.0
C57 C 0.61212 0.85528 0.90882 0.0
O58 O 0.66191 0.88223 0.94736 0.0
O59 O 0.64964 0.89672 0.9122 0.0
O60 O 0.62316 0.86053 0.88851 0.0
O61 O 0.62336 0.85319 0.92988 0.0
C62 C 0.67868 0.83113 0.9348 0.0
O63 O 0.66559 0.85029 0.86892 0.0
O64 O 0.68152 0.87733 0.88315 0.0
In65 In 0.84211 0.13478 0.40966 0.0
O66 O 0.83648 0.13869 0.36477 0.0
O67 O 0.81025 0.12625 0.38801 0.0
C68 C 0.88604 0.14269 0.40841 0.0
C69 C 0.82101 0.16712 0.43247 0.0
C70 C 0.84299 0.09687 0.43243 0.0
O71 O 0.87535 0.13696 0.38807 0.0
O72 O 0.87452 0.14474 0.42926 0.0
O73 O 0.84027 0.11324 0.44571 0.0
O74 O 0.84525 0.09958 0.40762 0.0
C75 C 0.81697 0.13175 0.36523 0.0
O76 O 0.81839 0.1487 0.44009 0.0
O77 O 0.83456 0.16934 0.41349 0.0
In78 In 0.65694 0.13627 0.08455 0.0
O79 O 0.67978 0.15099 0.05381 0.0
O80 O 0.66294 0.17111 0.08047 0.0
C81 C 0.65816 0.09786 0.06327 0.0
C82 C 0.68108 0.13238 0.12979 0.0
C83 C 0.61321 0.14495 0.08289 0.0
O84 O 0.66382 0.11379 0.05045 0.0
O85 O 0.65199 0.10125 0.08696 0.0
O86 O 0.62454 0.14678 0.10393 0.0
O87 O 0.624 0.13915 0.06267 0.0
C88 C 0.67648 0.16932 0.0614 0.0
O89 O 0.66023 0.13273 0.12995 0.0
O90 O 0.68966 0.13379 0.1069 0.0
In91 In 0.84614 0.86268 0.58909 0.0
O92 O 0.81753 0.85077 0.56369 0.0
O93 O 0.84019 0.82868 0.57901 0.0
C94 C 0.84706 0.89896 0.56247 0.0
C95 C 0.82279 0.86464 0.63511 0.0
C96 C 0.89027 0.85627 0.59207 0.0
O97 O 0.84474 0.88182 0.55075 0.0
O98 O 0.84896 0.89778 0.58754 0.0
O99 O 0.87937 0.86424 0.61096 0.0
O100 O 0.87887 0.85128 0.57198 0.0
C101 C 0.82294 0.83199 0.5655 0.0
O102 O 0.83799 0.85157 0.63148 0.0
O103 O 0.81967 0.87679 0.61579 0.0
In104 In 0.83274 0.64093 0.07979 0.0
O105 O 0.80483 0.63143 0.10778 0.0
O106 O 0.82735 0.65428 0.12157 0.0
C107 C 0.83243 0.60245 0.05882 0.0
C108 C 0.81014 0.6703 0.05272 0.0
C109 C 0.877 0.64641 0.08253 0.0
O110 O 0.83162 0.60582 0.08363 0.0
O111 O 0.83343 0.6185 0.04452 0.0
O112 O 0.86591 0.65059 0.06188 0.0
O113 O 0.86577 0.6396 0.10186 0.0
C114 C 0.81041 0.6435 0.1264 0.0
O115 O 0.82668 0.67438 0.06712 0.0
O116 O 0.80516 0.65139 0.05168 0.0
In117 In 0.67051 0.35985 0.57756 0.0
O118 O 0.70129 0.36596 0.60263 0.0
O119 O 0.67441 0.35052 0.62132 0.0
C120 C 0.67143 0.39801 0.55553 0.0
C121 C 0.69172 0.32963 0.55036 0.0
C122 C 0.62629 0.35494 0.58266 0.0
O123 O 0.67596 0.3947 0.57975 0.0
O124 O 0.6665 0.38205 0.5423 0.0
O125 O 0.63716 0.34687 0.56382 0.0
O126 O 0.63772 0.36528 0.59893 0.0
C127 C 0.69372 0.3577 0.62356 0.0
O128 O 0.67816 0.32591 0.56892 0.0
O129 O 0.69426 0.34857 0.54518 0.0
In130 In 0.83102 0.36118 0.92137 0.0
O131 O 0.82285 0.32747 0.93095 0.0
O132 O 0.80604 0.35068 0.95291 0.0
C133 C 0.87529 0.35691 0.91641 0.0
C134 C 0.80997 0.35921 0.87381 0.0
C135 C 0.83005 0.39873 0.94496 0.0
O136 O 0.86419 0.34707 0.93359 0.0
O137 O 0.86405 0.36874 0.90168 0.0
O138 O 0.82307 0.39561 0.92155 0.0
O139 O 0.83744 0.38287 0.95662 0.0
C140 C 0.80868 0.33164 0.94863 0.0
O141 O 0.80208 0.36855 0.89378 0.0
O142 O 0.82851 0.35083 0.8778 0.0
In143 In 0.66946 0.6408 0.42174 0.0
O144 O 0.67338 0.67323 0.43917 0.0
O145 O 0.69937 0.65176 0.4457 0.0
C146 C 0.62528 0.64686 0.41887 0.0
C147 C 0.6914 0.64287 0.37474 0.0
C148 C 0.66998 0.6026 0.44349 0.0
O149 O 0.6358 0.64761 0.44062 0.0
O150 O 0.63705 0.64326 0.39859 0.0
O151 O 0.66511 0.60587 0.41934 0.0
O152 O 0.67455 0.61863 0.45678 0.0
C153 C 0.69217 0.66986 0.44918 0.0
O154 O 0.69323 0.6278 0.39057 0.0
O155 O 0.6784 0.65688 0.38251 0.0
In156 In 0.15653 0.36359 0.91065 0.0
O157 O 0.1785 0.35008 0.94321 0.0
O158 O 0.1643 0.32923 0.91517 0.0
C159 C 0.158 0.40043 0.93631 0.0
C160 C 0.18111 0.36394 0.86553 0.0
C161 C 0.11243 0.35753 0.90582 0.0
O162 O 0.15201 0.38396 0.94765 0.0
O163 O 0.16326 0.39834 0.91209 0.0
O164 O 0.12296 0.37003 0.89124 0.0
O165 O 0.12418 0.34787 0.92246 0.0
C166 C 0.17664 0.33163 0.93529 0.0
O167 O 0.16049 0.36085 0.86519 0.0
O168 O 0.18914 0.36696 0.88845 0.0
In169 In 0.34432 0.63607 0.4116 0.0
O170 O 0.3396 0.63921 0.36644 0.0
O171 O 0.31239 0.62855 0.3895 0.0
C172 C 0.38828 0.64365 0.41081 0.0
C173 C 0.32365 0.66873 0.43427 0.0
C174 C 0.34469 0.59815 0.4344 0.0
O175 O 0.37745 0.63918 0.39004 0.0
O176 O 0.37689 0.64458 0.4319 0.0
O177 O 0.34193 0.61454 0.44761 0.0
O178 O 0.34726 0.60083 0.40962 0.0
C179 C 0.31974 0.6332 0.36668 0.0
O180 O 0.31981 0.65026 0.44085 0.0
O181 O 0.33818 0.67084 0.41636 0.0
In182 In 0.15793 0.63688 0.08791 0.0
O183 O 0.17162 0.6551 0.05253 0.0
O184 O 0.1712 0.66991 0.09043 0.0
C185 C 0.15977 0.59877 0.06568 0.0
C186 C 0.18327 0.63252 0.13193 0.0
C187 C 0.11404 0.64518 0.08868 0.0
O188 O 0.1694 0.61422 0.05567 0.0
O189 O 0.14937 0.60248 0.08697 0.0
O190 O 0.12459 0.63971 0.10923 0.0
O191 O 0.12567 0.64681 0.06789 0.0
C192 C 0.17619 0.67103 0.06598 0.0
O193 O 0.16336 0.63833 0.13297 0.0
O194 O 0.19036 0.62879 0.10869 0.0
In195 In 0.345 0.36237 0.58767 0.0
O196 O 0.33926 0.3562 0.63221 0.0
O197 O 0.31365 0.37092 0.61027 0.0
C198 C 0.38909 0.35599 0.5914 0.0
C199 C 0.32362 0.3306 0.56407 0.0
C200 C 0.34573 0.39931 0.56237 0.0
O201 O 0.37821 0.36545 0.6091 0.0
O202 O 0.37769 0.34944 0.57206 0.0
O203 O 0.34616 0.38232 0.55 0.0
O204 O 0.3449 0.39767 0.58747 0.0
C205 C 0.32007 0.36388 0.63245 0.0
O206 O 0.32003 0.34926 0.55818 0.0
O207 O 0.33831 0.32787 0.58164 0.0
H208 H 0.27691 0.16585 0.01459 0.0
H209 H 0.25438 0.19263 0.9932 0.0
H210 H 0.28803 0.23945 0.03921 0.0
H211 H 0.31087 0.21285 0.06028 0.0
H212 H 0.22576 0.22023 0.01693 0.0
H213 H 0.29251 0.26216 0.96366 0.0
H214 H 0.29645 0.23675 0.9778 0.0
H215 H 0.29764 0.25931 0.9988 0.0
C216 C 0.27964 0.18188 0.01996 0.0
C217 C 0.29573 0.18729 0.03899 0.0
C218 C 0.26674 0.19713 0.00777 0.0
C219 C 0.26977 0.21805 0.01432 0.0
C220 C 0.28577 0.22346 0.0334 0.0
H221 H 0.20618 0.33376 0.97636 0.0
H222 H 0.22787 0.30549 0.99558 0.0
C223 C 0.29872 0.20823 0.04552 0.0
C224 C 0.25565 0.23415 0.00196 0.0
H225 H 0.2575 0.279 0.96602 0.0
C226 C 0.23266 0.23299 0.0056 0.0
C227 C 0.26472 0.25076 0.98716 0.0
C228 C 0.28916 0.25226 0.98137 0.0
C229 C 0.21853 0.24832 0.99545 0.0
C230 C 0.22767 0.2651 0.9811 0.0
C231 C 0.25061 0.26615 0.97719 0.0
C232 C 0.21374 0.28188 0.97014 0.0
C233 C 0.19402 0.24677 0.00072 0.0
C234 C 0.19864 0.27791 0.94948 0.0
C235 C 0.18624 0.29404 0.93842 0.0
C236 C 0.18881 0.31438 0.94785 0.0
C237 C 0.20379 0.31824 0.96874 0.0
C238 C 0.21622 0.30213 0.9797 0.0
H239 H 0.19019 0.23535 0.01666 0.0
H240 H 0.18719 0.26204 0.00664 0.0
H241 H 0.18551 0.24181 0.98215 0.0
H242 H 0.19674 0.26242 0.94158 0.0
H243 H 0.17489 0.29062 0.92227 0.0
H244 H 0.32941 0.70996 0.42416 0.0
H245 H 0.30878 0.73895 0.4436 0.0
H246 H 0.26977 0.69614 0.48995 0.0
H247 H 0.29049 0.66721 0.47103 0.0
H248 H 0.26382 0.74696 0.44111 0.0
H249 H 0.29039 0.73708 0.54637 0.0
H250 H 0.30424 0.72447 0.51886 0.0
H251 H 0.279 0.71393 0.53218 0.0
C252 C 0.31655 0.70677 0.43866 0.0
C253 C 0.31165 0.68634 0.44622 0.0
C254 C 0.30477 0.72332 0.4497 0.0
C255 C 0.288 0.71971 0.46854 0.0
C256 C 0.28299 0.69931 0.47593 0.0
H257 H 0.18939 0.78999 0.55315 0.0
H258 H 0.21237 0.76345 0.53201 0.0
C259 C 0.29477 0.68279 0.46498 0.0
C260 C 0.27518 0.73715 0.47989 0.0
H261 H 0.25956 0.75938 0.53887 0.0
C262 C 0.26305 0.74983 0.46245 0.0
C263 C 0.27425 0.74086 0.50775 0.0
C264 C 0.28784 0.7285 0.52737 0.0
C265 C 0.24942 0.76571 0.47222 0.0
C266 C 0.24811 0.76907 0.5001 0.0
C267 C 0.26051 0.75663 0.5175 0.0
C268 C 0.23373 0.78524 0.51175 0.0
C269 C 0.23604 0.77839 0.45275 0.0
C270 C 0.23818 0.80625 0.50733 0.0
C271 C 0.22511 0.82144 0.51941 0.0
C272 C 0.20741 0.81584 0.53614 0.0
C273 C 0.20287 0.79477 0.54029 0.0
C274 C 0.21599 0.77961 0.52829 0.0
H275 H 0.23545 0.77117 0.43261 0.0
H276 H 0.21887 0.78047 0.46014 0.0
H277 H 0.24363 0.79393 0.45074 0.0
H278 H 0.25201 0.81089 0.49494 0.0
H279 H 0.22905 0.83756 0.51593 0.0
H280 H 0.32028 0.80059 0.97915 0.0
H281 H 0.29723 0.77403 0.00013 0.0
H282 H 0.23868 0.80381 0.96938 0.0
H283 H 0.26158 0.83083 0.94929 0.0
H284 H 0.23227 0.79165 0.01936 0.0
H285 H 0.26845 0.72674 0.96184 0.0
H286 H 0.2888 0.74062 0.98074 0.0
H287 H 0.27426 0.7534 0.95402 0.0
C288 C 0.30249 0.80148 0.97695 0.0
C289 C 0.29272 0.81769 0.96247 0.0
C290 C 0.28934 0.78622 0.98877 0.0
C291 C 0.26625 0.78664 0.9858 0.0
C292 C 0.25646 0.80309 0.97182 0.0
H293 H 0.18211 0.67981 0.01316 0.0
H294 H 0.20248 0.70887 0.99381 0.0
C295 C 0.26957 0.81851 0.96033 0.0
C296 C 0.25222 0.76999 0.99723 0.0
H297 H 0.24468 0.71769 0.99787 0.0
C298 C 0.23491 0.77547 0.01457 0.0
C299 C 0.25539 0.74892 0.99059 0.0
C300 C 0.27258 0.74206 0.97056 0.0
C301 C 0.2209 0.76046 0.02574 0.0
C302 C 0.22473 0.73932 0.02005 0.0
C303 C 0.24186 0.73388 0.00244 0.0
C304 C 0.21117 0.72251 0.03193 0.0
C305 C 0.20185 0.7675 0.04298 0.0
C306 C 0.2092 0.72051 0.0598 0.0
C307 C 0.19726 0.7041 0.07087 0.0
C308 C 0.18749 0.68913 0.05428 0.0
C309 C 0.18946 0.69113 0.02642 0.0
C310 C 0.20113 0.7077 0.01536 0.0
H311 H 0.19705 0.7837 0.03841 0.0
H312 H 0.18714 0.75743 0.04026 0.0
H313 H 0.20688 0.76689 0.0643 0.0
H314 H 0.21731 0.73137 0.07304 0.0
H315 H 0.19622 0.70281 0.09243 0.0
H316 H 0.28868 0.33336 0.52992 0.0
H317 H 0.26675 0.30507 0.51129 0.0
H318 H 0.30833 0.26079 0.55167 0.0
H319 H 0.33005 0.28908 0.57095 0.0
H320 H 0.27894 0.27334 0.4787 0.0
H321 H 0.24714 0.24261 0.57499 0.0
H322 H 0.26076 0.26735 0.57244 0.0
H323 H 0.27674 0.24391 0.5731 0.0
C324 C 0.29315 0.31759 0.53486 0.0
C325 C 0.311 0.31342 0.552 0.0
C326 C 0.2806 0.30145 0.5242 0.0
C327 C 0.28566 0.28084 0.53047 0.0
C328 C 0.3038 0.2766 0.54711 0.0
H329 H 0.22878 0.16449 0.4761 0.0
H330 H 0.25209 0.1912 0.49649 0.0
C331 C 0.31629 0.29276 0.55793 0.0
C332 C 0.27208 0.26387 0.51915 0.0
H333 H 0.23893 0.22312 0.53604 0.0
C334 C 0.27015 0.26239 0.49124 0.0
C335 C 0.26063 0.24961 0.53557 0.0
C336 C 0.26121 0.251 0.56569 0.0
C337 C 0.25718 0.24696 0.4793 0.0
C338 C 0.24572 0.23277 0.49571 0.0
C339 C 0.2478 0.23406 0.52358 0.0
C340 C 0.23124 0.21665 0.48421 0.0
C341 C 0.25597 0.2458 0.4492 0.0
C342 C 0.21164 0.22216 0.47104 0.0
C343 C 0.19825 0.20697 0.45952 0.0
C344 C 0.20429 0.18602 0.46096 0.0
C345 C 0.22374 0.18052 0.47462 0.0
C346 C 0.23705 0.19572 0.48627 0.0
H347 H 0.26924 0.25502 0.4395 0.0
H348 H 0.25726 0.22952 0.44231 0.0
H349 H 0.23978 0.25195 0.44244 0.0
H350 H 0.20676 0.23824 0.46956 0.0
H351 H 0.18334 0.21167 0.44917 0.0
H352 H 0.7735 0.66515 0.02154 0.0
H353 H 0.7513 0.69211 7e-05 0.0
H354 H 0.79493 0.7388 0.03184 0.0
H355 H 0.81734 0.71195 0.0531 0.0
H356 H 0.72934 0.72496 0.02537 0.0
H357 H 0.79122 0.75368 0.95228 0.0
H358 H 0.79414 0.72922 0.96933 0.0
H359 H 0.80095 0.75293 0.98619 0.0
C360 C 0.77847 0.68115 0.02375 0.0
C361 C 0.7972 0.68645 0.03891 0.0
C362 C 0.76576 0.69652 0.01151 0.0
C363 C 0.77164 0.71741 0.01409 0.0
C364 C 0.79036 0.72274 0.02917 0.0
H365 H 0.7161 0.83447 0.96489 0.0
H366 H 0.73792 0.80644 0.98446 0.0
C367 C 0.80308 0.70739 0.04141 0.0
C368 C 0.7577 0.7337 0.00191 0.0
H369 H 0.75867 0.77385 0.95764 0.0
C370 C 0.73568 0.73557 0.01042 0.0
C371 C 0.76607 0.74751 0.98247 0.0
C372 C 0.78933 0.74568 0.97181 0.0
C373 C 0.7219 0.75125 0.00046 0.0
C374 C 0.73032 0.76516 0.98115 0.0
C375 C 0.7523 0.76318 0.97251 0.0
C376 C 0.71667 0.78202 0.96981 0.0
C377 C 0.69867 0.75313 0.0112 0.0
C378 C 0.69756 0.77754 0.95498 0.0
C379 C 0.68502 0.79353 0.94385 0.0
C380 C 0.6915 0.81424 0.94722 0.0
C381 C 0.71067 0.81866 0.96203 0.0
C382 C 0.72317 0.80268 0.97317 0.0
H383 H 0.69664 0.74474 0.03044 0.0
H384 H 0.69411 0.76959 0.01427 0.0
H385 H 0.68694 0.74635 0.99656 0.0
H386 H 0.69251 0.76168 0.95171 0.0
H387 H 0.67041 0.78965 0.93238 0.0
H388 H 0.79108 0.16556 0.47314 0.0
H389 H 0.76956 0.19412 0.49184 0.0
H390 H 0.8015 0.23658 0.4377 0.0
H391 H 0.82296 0.208 0.41862 0.0
H392 H 0.78462 0.2305 0.51636 0.0
H393 H 0.73537 0.2475 0.42515 0.0
H394 H 0.75094 0.22388 0.42913 0.0
H395 H 0.76483 0.24751 0.42047 0.0
C396 C 0.79353 0.18098 0.4652 0.0
C397 C 0.80863 0.18454 0.44433 0.0
C398 C 0.78123 0.19727 0.47591 0.0
C399 C 0.7837 0.21739 0.46588 0.0
C400 C 0.79904 0.22108 0.44536 0.0
H401 H 0.72153 0.33404 0.50973 0.0
H402 H 0.74413 0.30698 0.489 0.0
C403 C 0.81137 0.20478 0.43461 0.0
C404 C 0.77038 0.23448 0.47725 0.0
H405 H 0.73064 0.27009 0.46195 0.0
C406 C 0.7728 0.23915 0.50449 0.0
C407 C 0.75502 0.24574 0.46166 0.0
C408 C 0.75117 0.24085 0.43253 0.0
C409 C 0.76034 0.25489 0.51656 0.0
C410 C 0.74481 0.26599 0.50106 0.0
C411 C 0.74256 0.2615 0.47375 0.0
C412 C 0.73058 0.28219 0.51296 0.0
C413 C 0.76411 0.2597 0.54574 0.0
C414 C 0.71516 0.27709 0.53287 0.0
C415 C 0.70221 0.29248 0.54469 0.0
C416 C 0.70443 0.31321 0.53673 0.0
C417 C 0.7195 0.3182 0.51632 0.0
C418 C 0.73241 0.30278 0.50446 0.0
H419 H 0.78017 0.25349 0.55294 0.0
H420 H 0.76375 0.27665 0.54934 0.0
H421 H 0.75074 0.25253 0.55779 0.0
H422 H 0.71322 0.26121 0.53936 0.0
H423 H 0.69068 0.28816 0.5603 0.0
H424 H 0.77665 0.3371 0.9865 0.0
H425 H 0.75398 0.31043 0.00793 0.0
H426 H 0.78799 0.26337 0.96272 0.0
H427 H 0.81089 0.28987 0.94151 0.0
H428 H 0.72559 0.28237 0.98326 0.0
H429 H 0.79153 0.24143 0.03916 0.0
H430 H 0.79544 0.26687 0.02508 0.0
H431 H 0.79745 0.24431 0.00419 0.0
C432 C 0.77944 0.32105 0.98134 0.0
C433 C 0.79561 0.31555 0.96243 0.0
C434 C 0.76645 0.30585 0.99354 0.0
C435 C 0.76952 0.28491 0.98718 0.0
C436 C 0.78567 0.2794 0.96834 0.0
H437 H 0.7077 0.16839 0.02219 0.0
H438 H 0.72922 0.19737 0.0046 0.0
C439 C 0.79866 0.29457 0.95614 0.0
C440 C 0.75526 0.26886 0.99942 0.0
H441 H 0.7568 0.22416 0.03568 0.0
C442 C 0.73235 0.26975 0.99495 0.0
C443 C 0.76416 0.25245 0.0147 0.0
C444 C 0.78846 0.25126 0.02132 0.0
C445 C 0.71818 0.25424 0.00461 0.0
C446 C 0.72717 0.2376 0.01935 0.0
C447 C 0.75 0.23691 0.02423 0.0
C448 C 0.71329 0.22041 0.02934 0.0
C449 C 0.69382 0.25541 0.99827 0.0
C450 C 0.69718 0.22381 0.04907 0.0
C451 C 0.68484 0.20726 0.05919 0.0
C452 C 0.68849 0.18706 0.04976 0.0
C453 C 0.70447 0.18378 0.0298 0.0
C454 C 0.71681 0.2003 0.01977 0.0
H455 H 0.69026 0.26684 0.98225 0.0
H456 H 0.68746 0.24006 0.99195 0.0
H457 H 0.68465 0.26015 0.01649 0.0
H458 H 0.69446 0.23919 0.05699 0.0
H459 H 0.67271 0.21023 0.07465 0.0
H460 H 0.83256 0.79074 0.56445 0.0
H461 H 0.81053 0.76295 0.5445 0.0
H462 H 0.76152 0.80745 0.51976 0.0
H463 H 0.78364 0.83533 0.53914 0.0
H464 H 0.76814 0.75075 0.55662 0.0
H465 H 0.77324 0.77615 0.45087 0.0
H466 H 0.79097 0.78653 0.47661 0.0
H467 H 0.76309 0.79581 0.47302 0.0
C468 C 0.81716 0.79461 0.55459 0.0
C469 C 0.80988 0.81521 0.55319 0.0
C470 C 0.80459 0.77872 0.54325 0.0
C471 C 0.78457 0.78318 0.53029 0.0
C472 C 0.77717 0.80373 0.52911 0.0
H473 H 0.68122 0.71047 0.4559 0.0
H474 H 0.70355 0.73763 0.47679 0.0
C475 C 0.78977 0.81962 0.54032 0.0
C476 C 0.77111 0.76626 0.51868 0.0
H477 H 0.74742 0.74944 0.46065 0.0
C478 C 0.76372 0.75038 0.5356 0.0
C479 C 0.76538 0.76583 0.49125 0.0
C480 C 0.77375 0.78188 0.47181 0.0
C481 C 0.75036 0.73427 0.52594 0.0
C482 C 0.74446 0.73399 0.4986 0.0
C483 C 0.75191 0.7498 0.48165 0.0
C484 C 0.73067 0.71733 0.48707 0.0
C485 C 0.74228 0.71792 0.54511 0.0
C486 C 0.73859 0.69696 0.48592 0.0
C487 C 0.72591 0.68143 0.47397 0.0
C488 C 0.70512 0.68605 0.46293 0.0
C489 C 0.69715 0.70644 0.46431 0.0
C490 C 0.70988 0.72196 0.47618 0.0
H491 H 0.7441 0.72284 0.56628 0.0
H492 H 0.72465 0.71415 0.54128 0.0
H493 H 0.7521 0.7036 0.54221 0.0
H494 H 0.75476 0.69316 0.49384 0.0
H495 H 0.73252 0.66588 0.47308 0.0
H496 H 0.33653 0.09303 0.00434 0.0
H497 H 0.33578 0.05824 0.98489 0.0
H498 H 0.32379 0.03225 0.06296 0.0
H499 H 0.32439 0.06692 0.08252 0.0
H500 H 0.36346 0.02397 0.99892 0.0
H501 H 0.27443 0.00717 0.01574 0.0
H502 H 0.28561 0.03306 0.01697 0.0
H503 H 0.28931 0.01581 0.04476 0.0
C504 C 0.33365 0.0799 0.01733 0.0
C505 C 0.33045 0.08268 0.04493 0.0
C506 C 0.33324 0.06007 0.0062 0.0
C507 C 0.32944 0.04275 0.02245 0.0
C508 C 0.32636 0.04547 0.05002 0.0
H509 H 0.32209 0.91039 0.99513 0.0
H510 H 0.3223 0.94527 0.0143 0.0
C511 C 0.32683 0.06527 0.06117 0.0
C512 C 0.32932 0.02174 0.01071 0.0
H513 H 0.29671 0.97937 0.00063 0.0
C514 C 0.34886 0.01423 0.99914 0.0
C515 C 0.31025 0.0091 0.0112 0.0
C516 C 0.28863 0.01669 0.02262 0.0
C517 C 0.34997 0.9942 0.98843 0.0
C518 C 0.33087 0.98156 0.98882 0.0
C519 C 0.31132 0.9891 0.00039 0.0
C520 C 0.33079 0.9605 0.97716 0.0
C521 C 0.37172 0.98659 0.97736 0.0
C522 C 0.33519 0.95757 0.94988 0.0
C523 C 0.33517 0.9377 0.93893 0.0
C524 C 0.33053 0.92042 0.95503 0.0
C525 C 0.32579 0.92341 0.98227 0.0
C526 C 0.32588 0.9433 0.99323 0.0
H527 H 0.38588 0.99577 0.98509 0.0
H528 H 0.37445 0.97007 0.98241 0.0
H529 H 0.37156 0.9881 0.95526 0.0
H530 H 0.33853 0.97067 0.93701 0.0
H531 H 0.33872 0.93589 0.91783 0.0
H532 H 0.17695 0.93587 0.58177 0.0
H533 H 0.17603 0.97061 0.56236 0.0
H534 H 0.16576 0.94433 0.48409 0.0
H535 H 0.16645 0.90952 0.50337 0.0
H536 H 0.20348 0.98739 0.52196 0.0
H537 H 0.11512 0.98653 0.49162 0.0
H538 H 0.12654 0.9681 0.51495 0.0
H539 H 0.13113 0.96503 0.47968 0.0
C540 C 0.17445 0.93749 0.56043 0.0
C541 C 0.17166 0.92 0.54409 0.0
C542 C 0.17395 0.95733 0.54939 0.0
C543 C 0.17052 0.96002 0.52188 0.0
C544 C 0.16802 0.94258 0.50545 0.0
H545 H 0.16214 0.06638 0.41718 0.0
H546 H 0.16343 0.03171 0.43672 0.0
C547 C 0.16854 0.92272 0.51647 0.0
C548 C 0.16988 0.98109 0.51034 0.0
H549 H 0.13658 0.01505 0.47706 0.0
C550 C 0.18885 0.99351 0.51223 0.0
C551 C 0.15075 0.98895 0.49767 0.0
C552 C 0.12964 0.97657 0.496 0.0
C553 C 0.18933 0.0135 0.50133 0.0
C554 C 0.17019 0.02136 0.48866 0.0
C555 C 0.15122 0.00895 0.48679 0.0
C556 C 0.16953 0.04241 0.47703 0.0
C557 C 0.21046 0.02585 0.50294 0.0
C558 C 0.17225 0.05991 0.49332 0.0
C559 C 0.17153 0.07973 0.48222 0.0
C560 C 0.16795 0.08238 0.45466 0.0
C561 C 0.16498 0.06483 0.43847 0.0
C562 C 0.16569 0.04503 0.44958 0.0
H563 H 0.22498 0.01585 0.50715 0.0
H564 H 0.21349 0.03439 0.48403 0.0
H565 H 0.20906 0.03732 0.51936 0.0
H566 H 0.1748 0.05822 0.51464 0.0
H567 H 0.17378 0.09298 0.4952 0.0
H568 H 0.64068 0.93574 0.91726 0.0
H569 H 0.6413 0.96927 0.94004 0.0
H570 H 0.67106 0.94083 0.00921 0.0
H571 H 0.67053 0.90724 0.98657 0.0
H572 H 0.62156 0.97987 0.99118 0.0
H573 H 0.7129 0.98986 0.98921 0.0
H574 H 0.69866 0.97177 0.96775 0.0
H575 H 0.70303 0.96568 0.00236 0.0
C576 C 0.64736 0.93663 0.93732 0.0
C577 C 0.65564 0.9189 0.95011 0.0
C578 C 0.64767 0.95576 0.9503 0.0
C579 C 0.65644 0.95751 0.97615 0.0
C580 C 0.6645 0.93981 0.9891 0.0
H581 H 0.64382 0.06171 0.08564 0.0
H582 H 0.64327 0.02733 0.06499 0.0
C583 C 0.6641 0.92065 0.97619 0.0
C584 C 0.65706 0.97787 0.98959 0.0
H585 H 0.69228 0.01499 0.01287 0.0
C586 C 0.63699 0.98757 0.99598 0.0
C587 C 0.67725 0.98788 0.99554 0.0
C588 C 0.69923 0.97841 0.98822 0.0
C589 C 0.63659 0.00702 0.00843 0.0
C590 C 0.65679 0.01689 0.01475 0.0
C591 C 0.67685 0.00726 0.00816 0.0
C592 C 0.65742 0.03751 0.0275 0.0
C593 C 0.61459 0.01707 0.01426 0.0
C594 C 0.66597 0.05447 0.01342 0.0
C595 C 0.66631 0.07408 0.02512 0.0
C596 C 0.65828 0.07701 0.05122 0.0
C597 C 0.65007 0.05992 0.06547 0.0
C598 C 0.64964 0.04031 0.05368 0.0
H599 H 0.60083 0.00943 0.00335 0.0
H600 H 0.61112 0.01601 0.036 0.0
H601 H 0.61493 0.0337 0.00873 0.0
H602 H 0.67212 0.05257 0.99322 0.0
H603 H 0.67279 0.08695 0.01368 0.0
H604 H 0.84676 0.05939 0.40765 0.0
H605 H 0.84697 0.02514 0.42861 0.0
H606 H 0.84096 0.0535 0.50633 0.0
H607 H 0.84033 0.08771 0.48553 0.0
H608 H 0.87597 0.00883 0.4658 0.0
H609 H 0.79085 0.0115 0.50688 0.0
H610 H 0.8006 0.02963 0.48211 0.0
H611 H 0.80754 0.03312 0.51679 0.0
C612 C 0.84539 0.0583 0.4292 0.0
C613 C 0.84338 0.0762 0.44496 0.0
C614 C 0.84553 0.03875 0.44112 0.0
C615 C 0.84359 0.03678 0.46897 0.0
C616 C 0.84195 0.05465 0.48476 0.0
H617 H 0.84838 0.93765 0.58403 0.0
H618 H 0.84797 0.97074 0.56027 0.0
C619 C 0.84173 0.07419 0.47286 0.0
C620 C 0.84376 0.01606 0.48161 0.0
H621 H 0.81398 0.98424 0.52251 0.0
C622 C 0.86235 0.00336 0.47802 0.0
C623 C 0.82592 0.00896 0.49747 0.0
C624 C 0.805 0.02142 0.50087 0.0
C625 C 0.86385 0.98397 0.49051 0.0
C626 C 0.84621 0.9771 0.50677 0.0
C627 C 0.82752 0.98966 0.51011 0.0
C628 C 0.84694 0.95701 0.52085 0.0
C629 C 0.8845 0.97119 0.48682 0.0
C630 C 0.84636 0.93839 0.50649 0.0
C631 C 0.84649 0.91946 0.52 0.0
C632 C 0.84723 0.9189 0.54808 0.0
C633 C 0.84786 0.9376 0.56238 0.0
C634 C 0.84761 0.9565 0.54887 0.0
H635 H 0.8982 0.98032 0.47788 0.0
H636 H 0.89012 0.96477 0.50626 0.0
H637 H 0.88082 0.95801 0.47333 0.0
H638 H 0.84554 0.93851 0.48485 0.0
H639 H 0.84594 0.9053 0.50847 0.0
H640 H 0.81131 0.43398 0.9255 0.0
H641 H 0.81172 0.46847 0.94574 0.0
H642 H 0.84878 0.44478 0.01268 0.0
H643 H 0.84837 0.41016 0.99265 0.0
H644 H 0.79607 0.47967 0.00075 0.0
H645 H 0.88513 0.49545 0.98111 0.0
H646 H 0.86967 0.47626 0.96268 0.0
H647 H 0.87838 0.47101 0.99628 0.0
C648 C 0.81952 0.4361 0.94455 0.0
C649 C 0.82987 0.41941 0.95748 0.0
C650 C 0.8197 0.45578 0.95607 0.0
C651 C 0.83043 0.45912 0.98053 0.0
C652 C 0.8406 0.44248 0.99364 0.0
H653 H 0.82605 0.5661 0.08538 0.0
H654 H 0.82522 0.53116 0.06644 0.0
C655 C 0.84029 0.42274 0.98223 0.0
C656 C 0.83096 0.48007 0.99229 0.0
H657 H 0.86536 0.52065 0.00559 0.0
C658 C 0.81119 0.48865 0.00189 0.0
C659 C 0.85072 0.49171 0.99345 0.0
C660 C 0.87222 0.48329 0.98271 0.0
C661 C 0.81072 0.5086 0.01292 0.0
C662 C 0.83053 0.52014 0.01437 0.0
C663 C 0.85025 0.51165 0.00453 0.0
C664 C 0.83103 0.54121 0.02579 0.0
C665 C 0.78904 0.51735 0.02264 0.0
C666 C 0.83483 0.55831 0.00918 0.0
C667 C 0.83523 0.57827 0.0199 0.0
C668 C 0.83207 0.58138 0.04745 0.0
C669 C 0.82851 0.56417 0.06407 0.0
C670 C 0.82795 0.54424 0.0533 0.0
H671 H 0.7747 0.50796 0.0159 0.0
H672 H 0.78903 0.51769 0.04483 0.0
H673 H 0.78688 0.53347 0.01546 0.0
H674 H 0.83732 0.55621 0.9879 0.0
H675 H 0.83807 0.59124 0.00663 0.0
H676 H 0.68234 0.43424 0.58012 0.0
H677 H 0.68207 0.46903 0.56084 0.0
H678 H 0.66111 0.44388 0.4851 0.0
H679 H 0.66115 0.40904 0.5043 0.0
H680 H 0.70597 0.48413 0.51627 0.0
H681 H 0.61519 0.48936 0.50069 0.0
H682 H 0.62768 0.4701 0.52201 0.0
H683 H 0.628 0.46689 0.48632 0.0
C684 C 0.67763 0.43612 0.55937 0.0
C685 C 0.67165 0.41895 0.54374 0.0
C686 C 0.67752 0.45599 0.5484 0.0
C687 C 0.67127 0.45903 0.52168 0.0
C688 C 0.66559 0.44189 0.50591 0.0
H689 H 0.65981 0.56623 0.4188 0.0
H690 H 0.66077 0.53142 0.43798 0.0
C691 C 0.66573 0.422 0.51686 0.0
C692 C 0.67099 0.48015 0.51025 0.0
H693 H 0.63698 0.51641 0.48256 0.0
C694 C 0.6909 0.49125 0.50898 0.0
C695 C 0.65127 0.48933 0.50079 0.0
C696 C 0.62926 0.47842 0.50268 0.0
C697 C 0.69169 0.51122 0.49803 0.0
C698 C 0.67197 0.5204 0.48854 0.0
C699 C 0.65206 0.5093 0.48983 0.0
C700 C 0.67163 0.5415 0.47707 0.0
C701 C 0.71367 0.52216 0.49617 0.0
C702 C 0.67718 0.55869 0.49283 0.0
C703 C 0.67663 0.5786 0.48194 0.0
C704 C 0.67043 0.58162 0.45514 0.0
C705 C 0.6647 0.56437 0.43949 0.0
C706 C 0.66522 0.5445 0.45041 0.0
H707 H 0.72776 0.51124 0.49823 0.0
H708 H 0.71527 0.53046 0.47683 0.0
H709 H 0.71489 0.53372 0.5125 0.0
H710 H 0.68177 0.55673 0.51361 0.0
H711 H 0.68104 0.5916 0.49451 0.0
H712 H 0.17841 0.58786 0.01801 0.0
H713 H 0.17808 0.55377 0.99673 0.0
H714 H 0.14238 0.52882 0.06408 0.0
H715 H 0.14224 0.56295 0.08522 0.0
H716 H 0.19507 0.51664 0.01417 0.0
H717 H 0.1041 0.51104 0.00139 0.0
H718 H 0.11776 0.53494 0.00997 0.0
H719 H 0.11261 0.51574 0.03523 0.0
C720 C 0.17046 0.57511 0.02826 0.0
C721 C 0.16022 0.57808 0.05319 0.0
C722 C 0.1703 0.55566 0.01609 0.0
C723 C 0.15987 0.53886 0.02861 0.0
C724 C 0.15006 0.54169 0.05378 0.0
H725 H 0.14441 0.40915 0.98714 0.0
H726 H 0.14547 0.44267 0.00999 0.0
C727 C 0.15012 0.56116 0.0659 0.0
C728 C 0.15952 0.51833 0.01544 0.0
H729 H 0.12493 0.48085 0.99165 0.0
C730 C 0.17975 0.50885 0.00915 0.0
C731 C 0.13948 0.50821 0.00891 0.0
C732 C 0.11725 0.51806 0.01397 0.0
C733 C 0.18047 0.48937 0.9968 0.0
C734 C 0.16045 0.47925 0.99038 0.0
C735 C 0.14023 0.48867 0.99673 0.0
C736 C 0.16013 0.459 0.97666 0.0
C737 C 0.20262 0.4796 0.99106 0.0
C738 C 0.16781 0.45721 0.9503 0.0
C739 C 0.16713 0.43814 0.93718 0.0
C740 C 0.15876 0.42056 0.95023 0.0
C741 C 0.15101 0.42242 0.97662 0.0
C742 C 0.15159 0.44153 0.98968 0.0
H743 H 0.21617 0.48716 0.00244 0.0
H744 H 0.20239 0.46287 0.99606 0.0
H745 H 0.20635 0.48111 0.96942 0.0
H746 H 0.17415 0.47061 0.9398 0.0
H747 H 0.17315 0.43719 0.91681 0.0
H748 H 0.34923 0.56064 0.40985 0.0
H749 H 0.34905 0.52642 0.4309 0.0
H750 H 0.34081 0.55485 0.50827 0.0
H751 H 0.34064 0.58904 0.48739 0.0
H752 H 0.37739 0.51058 0.46989 0.0
H753 H 0.29074 0.51246 0.5063 0.0
H754 H 0.30115 0.53048 0.48177 0.0
H755 H 0.30696 0.53428 0.51669 0.0
C756 C 0.34729 0.55958 0.43134 0.0
C757 C 0.34481 0.57749 0.44697 0.0
C758 C 0.34722 0.54005 0.44331 0.0
C759 C 0.34455 0.53811 0.47107 0.0
C760 C 0.34239 0.55599 0.48675 0.0
H761 H 0.34352 0.43764 0.58495 0.0
H762 H 0.34381 0.47111 0.56207 0.0
C763 C 0.34242 0.57551 0.4748 0.0
C764 C 0.34448 0.51741 0.48375 0.0
H765 H 0.31337 0.48513 0.52251 0.0
C766 C 0.36335 0.50493 0.48124 0.0
C767 C 0.32612 0.51012 0.49852 0.0
C768 C 0.305 0.52243 0.50082 0.0
C769 C 0.36456 0.48551 0.49371 0.0
C770 C 0.3463 0.47834 0.50873 0.0
C771 C 0.32737 0.49075 0.51105 0.0
C772 C 0.34652 0.45805 0.52238 0.0
C773 C 0.38556 0.47305 0.49127 0.0
C774 C 0.34775 0.43966 0.50758 0.0
C775 C 0.34756 0.42053 0.52058 0.0
C776 C 0.34606 0.4195 0.5486 0.0
C777 C 0.34474 0.43795 0.56335 0.0
C778 C 0.34489 0.45707 0.55033 0.0
H779 H 0.39967 0.48265 0.48432 0.0
H780 H 0.38999 0.46589 0.51073 0.0
H781 H 0.383 0.46044 0.47655 0.0
H782 H 0.34864 0.4401 0.48596 0.0
H783 H 0.34851 0.40655 0.50869 0.0
H784 H 0.58537 0.13916 0.04069 0.0
H785 H 0.54504 0.14213 0.04037 0.0
H786 H 0.54597 0.16054 0.12323 0.0
H787 H 0.58637 0.15768 0.12371 0.0
H788 H 0.51622 0.11932 0.07416 0.0
H789 H 0.50572 0.20416 0.08663 0.0
H790 H 0.53139 0.19264 0.07568 0.0
H791 H 0.52381 0.19196 0.11039 0.0
C792 C 0.57702 0.14408 0.05876 0.0
C793 C 0.58902 0.1482 0.08223 0.0
C794 C 0.55399 0.14574 0.05854 0.0
C795 C 0.54257 0.15174 0.08169 0.0
C796 C 0.55451 0.15621 0.10504 0.0
H797 H 0.40431 0.13044 0.11856 0.0
H798 H 0.44475 0.13222 0.11883 0.0
C799 C 0.57757 0.15448 0.10531 0.0
C800 C 0.51809 0.15204 0.08179 0.0
H801 H 0.47326 0.1836 0.08957 0.0
C802 C 0.50681 0.13337 0.07747 0.0
C803 C 0.50592 0.17043 0.08592 0.0
C804 C 0.51726 0.191 0.0897 0.0
C805 C 0.48364 0.13254 0.07752 0.0
C806 C 0.47146 0.15084 0.08226 0.0
C807 C 0.4827 0.16958 0.08618 0.0
C808 C 0.447 0.15074 0.08291 0.0
C809 C 0.47233 0.11215 0.07219 0.0
C810 C 0.43492 0.16101 0.063 0.0
C811 C 0.41182 0.16001 0.06278 0.0
C812 C 0.40045 0.14886 0.08261 0.0
C813 C 0.41261 0.13908 0.10296 0.0
C814 C 0.43569 0.14002 0.1031 0.0
H815 H 0.48381 0.10063 0.0633 0.0
H816 H 0.466 0.10577 0.09131 0.0
H817 H 0.45805 0.11425 0.05851 0.0
H818 H 0.44339 0.16941 0.0473 0.0
H819 H 0.40289 0.16775 0.0469 0.0
H820 H 0.91669 0.83912 0.55388 0.0
H821 H 0.95706 0.83687 0.55378 0.0
H822 H 0.95918 0.86619 0.6312 0.0
H823 H 0.91874 0.86823 0.63163 0.0
H824 H 0.98607 0.86991 0.55614 0.0
H825 H 1.00001 0.81647 0.64133 0.0
H826 H 0.97333 0.81951 0.62562 0.0
H827 H 0.98304 0.83843 0.64919 0.0
C828 C 0.92573 0.84487 0.57103 0.0
C829 C 0.91456 0.85381 0.5928 0.0
C830 C 0.94879 0.84359 0.57093 0.0
C831 C 0.9611 0.85113 0.59261 0.0
C832 C 0.94998 0.85988 0.61451 0.0
H833 H 0.10086 0.86945 0.62263 0.0
H834 H 0.06045 0.86777 0.62498 0.0
C835 C 0.92689 0.86114 0.61466 0.0
C836 C 0.98559 0.85094 0.59152 0.0
H837 H 0.03176 0.83319 0.62345 0.0
C838 C 0.99607 0.86177 0.57075 0.0
C839 C 0.99857 0.84039 0.61068 0.0
C840 C 0.9882 0.82788 0.63284 0.0
C841 C 0.01919 0.86263 0.56886 0.0
C842 C 0.03218 0.85207 0.588 0.0
C843 C 0.02173 0.84124 0.60879 0.0
C844 C 0.05665 0.85231 0.5869 0.0
C845 C 0.02953 0.87524 0.54675 0.0
C846 C 0.0679 0.84382 0.56493 0.0
C847 C 0.09096 0.84479 0.56351 0.0
C848 C 0.10317 0.85417 0.58412 0.0
C849 C 0.09189 0.86219 0.60641 0.0
C850 C 0.06883 0.86122 0.6078 0.0
H851 H 0.01759 0.88637 0.53792 0.0
H852 H 0.0441 0.88397 0.5542 0.0
H853 H 0.0352 0.86472 0.53062 0.0
H854 H 0.05881 0.83653 0.54882 0.0
H855 H 0.0992 0.83837 0.54616 0.0
H856 H 0.40056 0.85511 0.87288 0.0
H857 H 0.44088 0.85257 0.86988 0.0
H858 H 0.44471 0.84394 0.95525 0.0
H859 H 0.40438 0.84633 0.95841 0.0
H860 H 0.47107 0.87904 0.89609 0.0
H861 H 0.48379 0.79708 0.92536 0.0
H862 H 0.4573 0.80695 0.91463 0.0
H863 H 0.46695 0.81181 0.94802 0.0
C864 C 0.40997 0.85243 0.89098 0.0
C865 C 0.39933 0.85089 0.91589 0.0
C866 C 0.43299 0.85101 0.88922 0.0
C867 C 0.44574 0.84783 0.91229 0.0
C868 C 0.43514 0.84601 0.93714 0.0
H869 H 0.58489 0.84653 0.95081 0.0
H870 H 0.5445 0.84426 0.9505 0.0
C871 C 0.41212 0.84749 0.93893 0.0
C872 C 0.47019 0.84771 0.91056 0.0
H873 H 0.5159 0.81821 0.92283 0.0
C874 C 0.4809 0.86569 0.90171 0.0
C875 C 0.4829 0.8303 0.91805 0.0
C876 C 0.4722 0.81036 0.92684 0.0
C877 C 0.50405 0.86695 0.90078 0.0
C878 C 0.5168 0.84956 0.90834 0.0
C879 C 0.50608 0.8315 0.917 0.0
C880 C 0.54131 0.85003 0.90806 0.0
C881 C 0.51463 0.8871 0.89251 0.0
C882 C 0.55293 0.8536 0.8842 0.0
C883 C 0.576 0.85501 0.88433 0.0
C884 C 0.58785 0.85267 0.90832 0.0
C885 C 0.57621 0.84846 0.93203 0.0
C886 C 0.55315 0.84713 0.93189 0.0
H887 H 0.50288 0.90025 0.89396 0.0
H888 H 0.5293 0.89058 0.90508 0.0
H889 H 0.52016 0.88592 0.87141 0.0
H890 H 0.54413 0.85544 0.86549 0.0
H891 H 0.58453 0.85812 0.86572 0.0
H892 H 0.0971 0.14306 0.37297 0.0
H893 H 0.05674 0.14504 0.37053 0.0
H894 H 0.05383 0.15812 0.45501 0.0
H895 H 0.09422 0.1564 0.45757 0.0
H896 H 0.02718 0.12 0.39852 0.0
H897 H 0.01379 0.20282 0.42285 0.0
H898 H 0.04041 0.19275 0.41291 0.0
H899 H 0.03064 0.18912 0.44652 0.0
C900 C 0.08788 0.14658 0.39098 0.0
C901 C 0.09881 0.14961 0.41546 0.0
C902 C 0.06483 0.14769 0.38954 0.0
C903 C 0.05232 0.15198 0.41251 0.0
C904 C 0.0632 0.15521 0.43694 0.0
H905 H 0.91267 0.15279 0.4505 0.0
H906 H 0.95305 0.15557 0.45068 0.0
C907 C 0.08626 0.1541 0.4384 0.0
C908 C 0.02784 0.15181 0.41116 0.0
H909 H 0.98187 0.18136 0.42184 0.0
C910 C 0.01726 0.13345 0.40342 0.0
C911 C 0.01497 0.16936 0.41771 0.0
C912 C 0.02549 0.1897 0.42524 0.0
C913 C 0.99413 0.13201 0.40256 0.0
C914 C 0.98124 0.14956 0.4091 0.0
C915 C 0.9918 0.16795 0.41679 0.0
C916 C 0.95675 0.14895 0.40852 0.0
C917 C 0.98369 0.11155 0.39535 0.0
C918 C 0.94543 0.14478 0.38461 0.0
C919 C 0.92239 0.14311 0.38446 0.0
C920 C 0.91025 0.14576 0.40818 0.0
C921 C 0.92157 0.15062 0.43192 0.0
C922 C 0.94463 0.15223 0.43206 0.0
H923 H 0.99553 0.09853 0.39751 0.0
H924 H 0.96902 0.1084 0.40807 0.0
H925 H 0.97818 0.11203 0.3742 0.0
H926 H 0.95446 0.14262 0.36611 0.0
H927 H 0.91411 0.1395 0.36583 0.0
H928 H 0.0853 0.63995 0.13026 0.0
H929 H 0.04489 0.6424 0.12903 0.0
H930 H 0.04775 0.65993 0.04591 0.0
H931 H 0.0881 0.6572 0.04685 0.0
H932 H 0.01659 0.67533 0.11587 0.0
H933 H 0.00682 0.60948 0.04552 0.0
H934 H 0.03247 0.61478 0.06264 0.0
H935 H 0.02476 0.62965 0.03374 0.0
C936 C 0.07732 0.64442 0.11175 0.0
C937 C 0.08983 0.64822 0.08858 0.0
C938 C 0.05426 0.64583 0.1111 0.0
C939 C 0.04334 0.65099 0.08726 0.0
C940 C 0.05584 0.6555 0.06435 0.0
H941 H 0.90475 0.65858 0.04247 0.0
H942 H 0.94514 0.66113 0.04402 0.0
C943 C 0.07889 0.65405 0.06497 0.0
C944 C 0.01886 0.65125 0.08626 0.0
H945 H 0.97446 0.62829 0.0563 0.0
C946 C 0.00735 0.66504 0.10289 0.0
C947 C 0.00688 0.63775 0.06933 0.0
C948 C 0.01831 0.62194 0.05196 0.0
C949 C 0.98415 0.66588 0.10278 0.0
C950 C 0.97221 0.65239 0.08585 0.0
C951 C 0.98371 0.63867 0.06916 0.0
C952 C 0.94773 0.6519 0.08547 0.0
C953 C 0.97259 0.68139 0.12046 0.0
C954 C 0.93587 0.64578 0.10825 0.0
C955 C 0.91283 0.64426 0.10741 0.0
C956 C 0.90128 0.64877 0.08373 0.0
C957 C 0.91319 0.65505 0.06101 0.0
C958 C 0.93624 0.65651 0.06185 0.0
H959 H 0.98396 0.69388 0.12707 0.0
H960 H 0.95832 0.68848 0.10993 0.0
H961 H 0.96625 0.67341 0.13854 0.0
H962 H 0.94447 0.64179 0.12652 0.0
H963 H 0.90409 0.63931 0.1252 0.0
H964 H 0.59984 0.37109 0.62155 0.0
H965 H 0.55953 0.36903 0.62479 0.0
H966 H 0.55754 0.33286 0.55238 0.0
H967 H 0.59791 0.33461 0.54919 0.0
H968 H 0.52932 0.38357 0.58759 0.0
H969 H 0.51879 0.29918 0.60339 0.0
H970 H 0.54505 0.31207 0.60755 0.0
H971 H 0.53514 0.3058 0.57465 0.0
C972 C 0.59083 0.36252 0.60645 0.0
C973 C 0.60202 0.35297 0.58514 0.0
C974 C 0.56782 0.36138 0.60833 0.0
C975 C 0.55557 0.35057 0.58904 0.0
C976 C 0.5667 0.34091 0.5678 0.0
H977 H 0.41588 0.3366 0.55531 0.0
H978 H 0.45635 0.33492 0.55563 0.0
C979 C 0.58975 0.34203 0.56591 0.0
C980 C 0.53109 0.35039 0.5904 0.0
H981 H 0.48614 0.31855 0.59468 0.0
C982 C 0.51987 0.36937 0.58933 0.0
C983 C 0.51883 0.33183 0.59256 0.0
C984 C 0.53003 0.31106 0.59485 0.0
C985 C 0.4967 0.37028 0.58987 0.0
C986 C 0.48444 0.35173 0.59199 0.0
C987 C 0.49562 0.33274 0.59308 0.0
C988 C 0.45996 0.35179 0.59272 0.0
C989 C 0.48552 0.39107 0.58753 0.0
C990 C 0.44861 0.36143 0.61379 0.0
C991 C 0.42552 0.36241 0.61367 0.0
C992 C 0.41339 0.3537 0.59251 0.0
C993 C 0.42478 0.34351 0.57184 0.0
C994 C 0.44788 0.34251 0.572 0.0
H995 H 0.49694 0.40311 0.57977 0.0
H996 H 0.47091 0.39016 0.57412 0.0
H997 H 0.47972 0.39604 0.60758 0.0
H998 H 0.45764 0.36837 0.6302 0.0
H999 H 0.4172 0.37028 0.62993 0.0
H1000 H 0.08646 0.33232 0.93626 0.0
H1001 H 0.04607 0.32998 0.93614 0.0
H1002 H 0.0431 0.37535 0.87305 0.0
H1003 H 0.08351 0.37762 0.87285 0.0
H1004 H 0.01701 0.3626 0.94645 0.0
H1005 H 0.00219 0.32938 0.84569 0.0
H1006 H 0.02894 0.32873 0.8617 0.0
H1007 H 0.0194 0.35202 0.84585 0.0
C1008 C 0.07722 0.34161 0.92213 0.0
C1009 C 0.08814 0.35513 0.90453 0.0
C1010 C 0.05416 0.34027 0.92212 0.0
C1011 C 0.04161 0.3523 0.90438 0.0
C1012 C 0.05248 0.36562 0.88654 0.0
H1013 H 0.90244 0.37752 0.88196 0.0
H1014 H 0.9428 0.37569 0.87932 0.0
C1015 C 0.07556 0.36699 0.88655 0.0
C1016 C 0.01713 0.35184 0.90571 0.0
H1017 H 0.97068 0.34193 0.86908 0.0
C1018 C 0.00686 0.35793 0.92961 0.0
C1019 C 0.00398 0.34583 0.88367 0.0
C1020 C 0.01414 0.33844 0.85783 0.0
C1021 C 0.98374 0.3586 0.93191 0.0
C1022 C 0.97057 0.35265 0.90984 0.0
C1023 C 0.98084 0.34646 0.88596 0.0
C1024 C 0.94609 0.35313 0.91102 0.0
C1025 C 0.97364 0.36626 0.95767 0.0
C1026 C 0.93454 0.34078 0.9294 0.0
C1027 C 0.91148 0.34184 0.93102 0.0
C1028 C 0.89958 0.35517 0.91412 0.0
C1029 C 0.91116 0.36715 0.8953 0.0
C1030 C 0.9342 0.3661 0.89373 0.0
H1031 H 0.98577 0.37499 0.96997 0.0
H1032 H 0.95919 0.37639 0.95367 0.0
H1033 H 0.96787 0.35283 0.96958 0.0
H1034 H 0.94337 0.33036 0.94257 0.0
H1035 H 0.903 0.33233 0.94559 0.0
H1036 H 0.59934 0.64538 0.3743 0.0
H1037 H 0.55898 0.64767 0.37202 0.0
H1038 H 0.55604 0.65548 0.45759 0.0
H1039 H 0.59641 0.65344 0.46001 0.0
H1040 H 0.52925 0.62114 0.39731 0.0
H1041 H 0.51634 0.70224 0.43013 0.0
H1042 H 0.5429 0.69267 0.4192 0.0
H1043 H 0.5331 0.68707 0.45235 0.0
C1044 C 0.59011 0.64781 0.3926 0.0
C1045 C 0.60102 0.64927 0.41734 0.0
C1046 C 0.56707 0.6491 0.39126 0.0
C1047 C 0.55456 0.65201 0.41458 0.0
C1048 C 0.56542 0.65366 0.43929 0.0
H1049 H 0.41523 0.65096 0.45354 0.0
H1050 H 0.45562 0.65357 0.4536 0.0
C1051 C 0.58847 0.65237 0.44065 0.0
C1052 C 0.53009 0.65206 0.41322 0.0
H1053 H 0.4843 0.681 0.42722 0.0
C1054 C 0.51941 0.63428 0.40364 0.0
C1055 C 0.51733 0.66919 0.42164 0.0
C1056 C 0.52796 0.68896 0.4312 0.0
C1057 C 0.49627 0.63298 0.40277 0.0
C1058 C 0.48349 0.6501 0.41123 0.0
C1059 C 0.49416 0.66792 0.42072 0.0
C1060 C 0.459 0.64959 0.41084 0.0
C1061 C 0.48571 0.61307 0.39352 0.0
C1062 C 0.44751 0.64695 0.3867 0.0
C1063 C 0.42446 0.64538 0.38661 0.0
C1064 C 0.4125 0.64659 0.41067 0.0
C1065 C 0.424 0.64991 0.43471 0.0
C1066 C 0.44706 0.65142 0.43478 0.0
H1067 H 0.49751 0.59992 0.39418 0.0
H1068 H 0.47111 0.60916 0.406 0.0
H1069 H 0.48007 0.6149 0.37254 0.0
H1070 H 0.45639 0.64593 0.36794 0.0
H1071 H 0.41603 0.64297 0.36776 0.0
H1072 H 0.3172 0.16889 0.16841 0.0
H1073 H 0.2968 0.17006 0.21069 0.0
H1074 H 0.25442 0.12079 0.18317 0.0
H1075 H 0.27436 0.11991 0.14066 0.0
H1076 H 0.23112 0.15181 0.20643 0.0
H1077 H 0.30128 0.12882 0.27144 0.0
H1078 H 0.30675 0.15129 0.25142 0.0
H1079 H 0.30231 0.1267 0.23549 0.0
C1080 C 0.30356 0.15829 0.17142 0.0
C1081 C 0.29742 0.14424 0.15132 0.0
C1082 C 0.29201 0.15889 0.19563 0.0
C1083 C 0.27434 0.14526 0.20025 0.0
C1084 C 0.26806 0.13138 0.18006 0.0
H1085 H 0.21521 0.1128 0.35178 0.0
H1086 H 0.23531 0.11398 0.30938 0.0
C1087 C 0.27948 0.13088 0.15581 0.0
C1088 C 0.26214 0.14556 0.22595 0.0
H1089 H 0.26835 0.13934 0.2933 0.0
C1090 C 0.23924 0.14907 0.22544 0.0
C1091 C 0.27275 0.14173 0.25067 0.0
C1092 C 0.29708 0.13672 0.25238 0.0
C1093 C 0.22663 0.14889 0.249 0.0
C1094 C 0.23733 0.1456 0.27379 0.0
C1095 C 0.26022 0.14205 0.27429 0.0
C1096 C 0.225 0.14508 0.2994 0.0
C1097 C 0.2019 0.15166 0.247 0.0
C1098 C 0.2127 0.16226 0.30799 0.0
C1099 C 0.20103 0.16155 0.3321 0.0
C1100 C 0.20173 0.14376 0.34819 0.0
C1101 C 0.21434 0.12671 0.33977 0.0
C1102 C 0.22585 0.12737 0.31558 0.0
H1103 H 0.19576 0.14837 0.2265 0.0
H1104 H 0.19311 0.14141 0.26128 0.0
H1105 H 0.19763 0.16792 0.25187 0.0
H1106 H 0.21224 0.17626 0.29613 0.0
H1107 H 0.1916 0.17498 0.33822 0.0
H1108 H 0.28675 0.88831 0.849 0.0
H1109 H 0.26691 0.88574 0.80657 0.0
H1110 H 0.28857 0.82255 0.79785 0.0
H1111 H 0.30882 0.82511 0.84017 0.0
H1112 H 0.29315 0.8453 0.75145 0.0
H1113 H 0.20907 0.85498 0.79368 0.0
H1114 H 0.2276 0.87543 0.80297 0.0
H1115 H 0.2329 0.84947 0.81421 0.0
C1116 C 0.28727 0.87385 0.83807 0.0
C1117 C 0.29925 0.85687 0.84794 0.0
C1118 C 0.27581 0.87237 0.81393 0.0
C1119 C 0.27592 0.85384 0.79934 0.0
C1120 C 0.28815 0.83695 0.80892 0.0
H1121 H 0.18612 0.83139 0.6658 0.0
H1122 H 0.20658 0.82874 0.70792 0.0
C1123 C 0.29969 0.83843 0.83307 0.0
C1124 C 0.26365 0.8523 0.7738 0.0
H1125 H 0.21241 0.85828 0.7463 0.0
C1126 C 0.27547 0.84797 0.75032 0.0
C1127 C 0.24052 0.85544 0.77246 0.0
C1128 C 0.22672 0.85888 0.79721 0.0
C1129 C 0.26489 0.84739 0.72536 0.0
C1130 C 0.24197 0.85164 0.72386 0.0
C1131 C 0.23003 0.85527 0.74746 0.0
C1132 C 0.2301 0.85277 0.698 0.0
C1133 C 0.27832 0.84211 0.70086 0.0
C1134 C 0.23642 0.8673 0.6786 0.0
C1135 C 0.22482 0.86879 0.65453 0.0
C1136 C 0.20655 0.85593 0.64956 0.0
C1137 C 0.20015 0.84149 0.66908 0.0
C1138 C 0.21181 0.83995 0.69312 0.0
H1139 H 0.29355 0.83341 0.70616 0.0
H1140 H 0.26853 0.83276 0.68649 0.0
H1141 H 0.28343 0.85661 0.69076 0.0
H1142 H 0.25014 0.87769 0.68222 0.0
H1143 H 0.23005 0.88016 0.63993 0.0
H1144 H 0.70909 0.89419 0.85013 0.0
H1145 H 0.73305 0.89473 0.81073 0.0
H1146 H 0.70596 0.83628 0.78515 0.0
H1147 H 0.68159 0.83586 0.82424 0.0
H1148 H 0.76515 0.86716 0.79662 0.0
H1149 H 0.70074 0.87103 0.71784 0.0
H1150 H 0.69476 0.87576 0.75266 0.0
H1151 H 0.69729 0.84971 0.74043 0.0
C1152 C 0.70808 0.88155 0.83597 0.0
C1153 C 0.69339 0.86503 0.84018 0.0
C1154 C 0.72181 0.88186 0.81351 0.0
C1155 C 0.7211 0.86568 0.79483 0.0
C1156 C 0.70644 0.84915 0.799 0.0
H1157 H 0.82302 0.83754 0.67708 0.0
H1158 H 0.7988 0.83784 0.71635 0.0
C1159 C 0.69261 0.84888 0.8214 0.0
C1160 C 0.73625 0.86582 0.77152 0.0
H1161 H 0.73753 0.86463 0.70331 0.0
C1162 C 0.75913 0.86668 0.7762 0.0
C1163 C 0.72834 0.86543 0.74491 0.0
C1164 C 0.70394 0.86563 0.73857 0.0
C1165 C 0.77433 0.86694 0.75499 0.0
C1166 C 0.76644 0.86589 0.72841 0.0
C1167 C 0.74355 0.86525 0.72372 0.0
C1168 C 0.78157 0.86586 0.70507 0.0
C1169 C 0.79866 0.86877 0.76126 0.0
C1170 C 0.77966 0.88128 0.68547 0.0
C1171 C 0.79329 0.88101 0.66294 0.0
C1172 C 0.8091 0.8653 0.65957 0.0
C1173 C 0.81111 0.84993 0.67927 0.0
C1174 C 0.79736 0.85014 0.70177 0.0
H1175 H 0.80149 0.87505 0.78166 0.0
H1176 H 0.80635 0.85321 0.76029 0.0
H1177 H 0.80716 0.87891 0.74658 0.0
H1178 H 0.76754 0.89351 0.68759 0.0
H1179 H 0.79134 0.89305 0.64807 0.0
H1180 H 0.77345 0.12089 0.36253 0.0
H1181 H 0.74996 0.11946 0.32268 0.0
H1182 H 0.80511 0.13834 0.27379 0.0
H1183 H 0.82874 0.13985 0.31355 0.0
H1184 H 0.74203 0.1538 0.28572 0.0
H1185 H 0.77985 0.08505 0.23707 0.0
H1186 H 0.78313 0.09056 0.27227 0.0
H1187 H 0.79879 0.10478 0.24794 0.0
C1188 C 0.78061 0.12463 0.34327 0.0
C1189 C 0.80294 0.13044 0.34111 0.0
C1190 C 0.76717 0.12383 0.32057 0.0
C1191 C 0.77589 0.12858 0.29534 0.0
C1192 C 0.79818 0.13433 0.29309 0.0
H1193 H 0.72586 0.13534 0.13409 0.0
H1194 H 0.74811 0.13424 0.17487 0.0
C1195 C 0.81161 0.13527 0.3158 0.0
C1196 C 0.76147 0.12822 0.27146 0.0
H1197 H 0.75339 0.10369 0.21186 0.0
C1198 C 0.74438 0.14279 0.2696 0.0
C1199 C 0.76471 0.11386 0.25054 0.0
C1200 C 0.78249 0.09754 0.25199 0.0
C1201 C 0.73071 0.14375 0.24695 0.0
C1202 C 0.73393 0.12937 0.22595 0.0
C1203 C 0.75094 0.11467 0.22798 0.0
C1204 C 0.72024 0.12968 0.20136 0.0
C1205 C 0.71346 0.16056 0.24537 0.0
C1206 C 0.69719 0.12715 0.20267 0.0
C1207 C 0.68441 0.12794 0.1794 0.0
C1208 C 0.6945 0.13098 0.15439 0.0
C1209 C 0.71761 0.133 0.15308 0.0
C1210 C 0.73035 0.13236 0.17635 0.0
H1211 H 0.71707 0.17343 0.25943 0.0
H1212 H 0.71233 0.16696 0.22481 0.0
H1213 H 0.6971 0.15402 0.25078 0.0
H1214 H 0.6891 0.12456 0.22169 0.0
H1215 H 0.66665 0.12616 0.18098 0.0
H1216 H 0.71731 0.61312 0.35217 0.0
H1217 H 0.73773 0.6151 0.31005 0.0
H1218 H 0.71398 0.67729 0.29789 0.0
H1219 H 0.69307 0.67524 0.33976 0.0
H1220 H 0.71073 0.65393 0.25284 0.0
H1221 H 0.79466 0.64635 0.29612 0.0
H1222 H 0.77663 0.62555 0.30555 0.0
H1223 H 0.77056 0.65149 0.31634 0.0
C1224 C 0.71649 0.62724 0.34056 0.0
C1225 C 0.70368 0.64406 0.34928 0.0
C1226 C 0.72828 0.6284 0.3166 0.0
C1227 C 0.72772 0.64649 0.30112 0.0
C1228 C 0.71475 0.66323 0.30964 0.0
H1229 H 0.8179 0.66973 0.16823 0.0
H1230 H 0.79729 0.67184 0.21032 0.0
C1231 C 0.70283 0.66204 0.33354 0.0
C1232 C 0.74019 0.64771 0.27566 0.0
H1233 H 0.79176 0.64238 0.24878 0.0
C1234 C 0.72847 0.65156 0.25196 0.0
C1235 C 0.76338 0.64494 0.27461 0.0
C1236 C 0.77709 0.64207 0.29954 0.0
C1237 C 0.73924 0.65213 0.22711 0.0
C1238 C 0.76226 0.64831 0.22593 0.0
C1239 C 0.77407 0.64506 0.24971 0.0
C1240 C 0.77437 0.64734 0.20021 0.0
C1241 C 0.72589 0.65701 0.20242 0.0
C1242 C 0.76847 0.63272 0.18074 0.0
C1243 C 0.78013 0.63156 0.15669 0.0
C1244 C 0.79807 0.64484 0.15181 0.0
C1245 C 0.80412 0.65933 0.17143 0.0
C1246 C 0.79238 0.66054 0.19546 0.0
H1247 H 0.71044 0.66545 0.20746 0.0
H1248 H 0.73559 0.66646 0.18806 0.0
H1249 H 0.72117 0.64235 0.1924 0.0
H1250 H 0.75498 0.62205 0.18426 0.0
H1251 H 0.77519 0.62014 0.14201 0.0
H1252 H 0.73596 0.37083 0.63227 0.0
H1253 H 0.75679 0.36968 0.67418 0.0
H1254 H 0.70085 0.34179 0.71371 0.0
H1255 H 0.68004 0.34256 0.67176 0.0
H1256 H 0.74651 0.38854 0.72188 0.0
H1257 H 0.75153 0.30347 0.73478 0.0
H1258 H 0.74363 0.31538 0.70356 0.0
H1259 H 0.72386 0.3129 0.73023 0.0
C1260 C 0.72815 0.36432 0.64985 0.0
C1261 C 0.7064 0.35672 0.64874 0.0
C1262 C 0.74006 0.36369 0.67376 0.0
C1263 C 0.73047 0.35538 0.69694 0.0
C1264 C 0.70873 0.34784 0.69591 0.0
H1265 H 0.77031 0.37653 0.8608 0.0
H1266 H 0.75147 0.37549 0.81754 0.0
C1267 C 0.69682 0.34842 0.67198 0.0
C1268 C 0.74292 0.35541 0.72244 0.0
H1269 H 0.76234 0.32405 0.77208 0.0
C1270 C 0.75007 0.37444 0.7328 0.0
C1271 C 0.74777 0.33696 0.73646 0.0
C1272 C 0.7415 0.31599 0.7256 0.0
C1273 C 0.76155 0.37556 0.75712 0.0
C1274 C 0.76566 0.3572 0.77163 0.0
C1275 C 0.75895 0.33812 0.76101 0.0
C1276 C 0.7769 0.3575 0.79791 0.0
C1277 C 0.76941 0.39638 0.76692 0.0
C1278 C 0.79715 0.34727 0.80134 0.0
C1279 C 0.80791 0.34775 0.82607 0.0
C1280 C 0.79849 0.35838 0.84778 0.0
C1281 C 0.77803 0.36832 0.84438 0.0
C1282 C 0.7673 0.36784 0.81967 0.0
H1283 H 0.77007 0.40792 0.75049 0.0
H1284 H 0.75778 0.40221 0.78233 0.0
H1285 H 0.78608 0.39519 0.77612 0.0
H1286 H 0.80475 0.33911 0.7848 0.0
H1287 H 0.82363 0.33989 0.82814 0.0
H1288 H 0.27677 0.37524 0.63571 0.0
H1289 H 0.2531 0.37533 0.67546 0.0
H1290 H 0.30765 0.35364 0.7233 0.0
H1291 H 0.33146 0.35331 0.68355 0.0
H1292 H 0.24707 0.33719 0.71304 0.0
H1293 H 0.28042 0.40904 0.75943 0.0
H1294 H 0.28196 0.40432 0.72385 0.0
H1295 H 0.29978 0.39048 0.7462 0.0
C1296 C 0.28376 0.37054 0.6547 0.0
C1297 C 0.30598 0.36429 0.65657 0.0
C1298 C 0.27021 0.37057 0.67733 0.0
C1299 C 0.27871 0.36459 0.7022 0.0
C1300 C 0.30088 0.35841 0.70421 0.0
H1301 H 0.22603 0.36365 0.86284 0.0
H1302 H 0.24918 0.36313 0.82281 0.0
C1303 C 0.31442 0.35821 0.68154 0.0
C1304 C 0.26426 0.36452 0.72601 0.0
H1305 H 0.25331 0.39079 0.78361 0.0
C1306 C 0.24834 0.34889 0.72851 0.0
C1307 C 0.26615 0.37977 0.74605 0.0
C1308 C 0.2829 0.39698 0.7439 0.0
C1309 C 0.23439 0.34789 0.75092 0.0
C1310 C 0.23604 0.36334 0.77091 0.0
C1311 C 0.252 0.379 0.76827 0.0
C1312 C 0.22173 0.36335 0.79503 0.0
C1313 C 0.21851 0.32999 0.75328 0.0
C1314 C 0.19858 0.36383 0.79276 0.0
C1315 C 0.18528 0.36386 0.81567 0.0
C1316 C 0.19495 0.36382 0.8412 0.0
C1317 C 0.21811 0.3637 0.84342 0.0
C1318 C 0.23136 0.36341 0.82056 0.0
H1319 H 0.22375 0.31668 0.74073 0.0
H1320 H 0.21703 0.32468 0.77432 0.0
H1321 H 0.20192 0.33495 0.7463 0.0
H1322 H 0.19077 0.36435 0.7733 0.0
H1323 H 0.16747 0.36415 0.81338 0.0
H1324 H 0.33288 0.63879 0.3149 0.0
H1325 H 0.30974 0.63745 0.27464 0.0
H1326 H 0.25266 0.62381 0.32315 0.0
H1327 H 0.27563 0.62492 0.36346 0.0
H1328 H 0.27712 0.60039 0.25994 0.0
H1329 H 0.24039 0.67863 0.27433 0.0
H1330 H 0.26719 0.6718 0.28766 0.0
H1331 H 0.2426 0.66181 0.30294 0.0
C1332 C 0.31541 0.63545 0.31697 0.0
C1333 C 0.30604 0.632 0.34231 0.0
C1334 C 0.30227 0.63466 0.294 0.0
C1335 C 0.27956 0.63063 0.29608 0.0
C1336 C 0.27017 0.62702 0.32127 0.0
H1337 H 0.17051 0.63544 0.1841 0.0
H1338 H 0.19402 0.63365 0.22385 0.0
C1339 C 0.28331 0.62764 0.34421 0.0
C1340 C 0.26553 0.63042 0.27194 0.0
H1341 H 0.22723 0.65891 0.23811 0.0
C1342 C 0.26623 0.61316 0.25503 0.0
C1343 C 0.2513 0.64707 0.2659 0.0
C1344 C 0.25026 0.66599 0.2835 0.0
C1345 C 0.25273 0.61198 0.23223 0.0
C1346 C 0.23865 0.62878 0.22592 0.0
C1347 C 0.23803 0.64605 0.24295 0.0
C1348 C 0.2244 0.62887 0.20179 0.0
C1349 C 0.25329 0.59253 0.21556 0.0
C1350 C 0.23367 0.62685 0.17618 0.0
C1351 C 0.22023 0.62765 0.15346 0.0
C1352 C 0.19734 0.63084 0.15595 0.0
C1353 C 0.1881 0.63295 0.18158 0.0
C1354 C 0.20151 0.63195 0.20429 0.0
H1355 H 0.25961 0.57914 0.2272 0.0
H1356 H 0.2366 0.58864 0.20778 0.0
H1357 H 0.26452 0.5949 0.19829 0.0
H1358 H 0.25135 0.62501 0.1737 0.0
H1359 H 0.22784 0.62617 0.13395 0.0
loop_
_geom_bond_atom_site_label_1
_geom_bond_atom_site_label_2
_geom_bond_distance
_geom_bond_site_symmetry_2
_ccdc_geom_bond_type
In0 O1 2.294 . S
In0 O2 2.326 . S
In0 O6 2.266 . S
In0 O7 2.326 . S
In0 O8 2.266 . S
In0 O9 2.326 . S
In0 O11 2.294 . S
In0 O12 2.326 . S
O1 In0 2.294 . S
O1 C10 1.240 . S
O2 In0 2.326 . S
O2 C10 1.252 . S
C3 O6 1.252 . S
C3 O7 1.260 . S
C4 O11 1.240 . S
C4 O12 1.252 . S
C5 O8 1.252 . S
C5 O9 1.260 . S
O6 In0 2.266 . S
O6 C3 1.252 . S
O7 In0 2.326 . S
O7 C3 1.260 . S
O8 In0 2.266 . S
O8 C5 1.252 . S
O9 In0 2.326 . S
O9 C5 1.260 . S
C10 O1 1.240 . S
C10 O2 1.252 . S
O11 In0 2.294 . S
O11 C4 1.240 . S
O12 In0 2.326 . S
O12 C4 1.252 . S
In13 O14 2.294 . S
In13 O15 2.326 . S
In13 O19 2.266 . S
In13 O20 2.326 . S
In13 O21 2.266 . S
In13 O22 2.326 . S
In13 O24 2.294 . S
In13 O25 2.326 . S
O14 In13 2.294 . S
O14 C23 1.240 . S
O15 In13 2.326 . S
O15 C23 1.252 . S
C16 O19 1.252 . S
C16 O20 1.260 . S
C17 O24 1.240 . S
C17 O25 1.252 . S
C18 O21 1.252 . S
C18 O22 1.260 . S
O19 In13 2.266 . S
O19 C16 1.252 . S
O20 In13 2.326 . S
O20 C16 1.260 . S
O21 In13 2.266 . S
O21 C18 1.252 . S
O22 In13 2.326 . S
O22 C18 1.260 . S
C23 O14 1.240 . S
C23 O15 1.252 . S
O24 In13 2.294 . S
O24 C17 1.240 . S
O25 In13 2.326 . S
O25 C17 1.252 . S
In26 O27 2.294 . S
In26 O28 2.326 . S
In26 O32 2.266 . S
In26 O33 2.326 . S
In26 O34 2.266 . S
In26 O35 2.326 . S
In26 O37 2.294 . S
In26 O38 2.326 . S
O27 In26 2.294 . S
O27 C36 1.240 . S
O28 In26 2.326 . S
O28 C36 1.252 . S
C29 O32 1.252 . S
C29 O33 1.260 . S
C30 O37 1.240 . S
C30 O38 1.252 . S
C31 O34 1.252 . S
C31 O35 1.260 . S
O32 In26 2.266 . S
O32 C29 1.252 . S
O33 In26 2.326 . S
O33 C29 1.260 . S
O34 In26 2.266 . S
O34 C31 1.252 . S
O35 In26 2.326 . S
O35 C31 1.260 . S
C36 O27 1.240 . S
C36 O28 1.252 . S
O37 In26 2.294 . S
O37 C30 1.240 . S
O38 In26 2.326 . S
O38 C30 1.252 . S
In39 O40 2.294 . S
In39 O41 2.326 . S
In39 O45 2.266 . S
In39 O46 2.326 . S
In39 O47 2.266 . S
In39 O48 2.326 . S
In39 O50 2.294 . S
In39 O51 2.326 . S
O40 In39 2.294 . S
O40 C49 1.240 . S
O41 In39 2.326 . S
O41 C49 1.252 . S
C42 O45 1.252 . S
C42 O46 1.260 . S
C43 O50 1.240 . S
C43 O51 1.252 . S
C44 O47 1.252 . S
C44 O48 1.260 . S
O45 In39 2.266 . S
O45 C42 1.252 . S
O46 In39 2.326 . S
O46 C42 1.260 . S
O47 In39 2.266 . S
O47 C44 1.252 . S
O48 In39 2.326 . S
O48 C44 1.260 . S
C49 O40 1.240 . S
C49 O41 1.252 . S
O50 In39 2.294 . S
O50 C43 1.240 . S
O51 In39 2.326 . S
O51 C43 1.252 . S
In52 O53 2.294 . S
In52 O54 2.326 . S
In52 O58 2.266 . S
In52 O59 2.326 . S
In52 O60 2.266 . S
In52 O61 2.326 . S
In52 O63 2.294 . S
In52 O64 2.326 . S
O53 In52 2.294 . S
O53 C62 1.240 . S
O54 In52 2.326 . S
O54 C62 1.252 . S
C55 O58 1.252 . S
C55 O59 1.260 . S
C56 O63 1.240 . S
C56 O64 1.252 . S
C57 O60 1.252 . S
C57 O61 1.260 . S
O58 In52 2.266 . S
O58 C55 1.252 . S
O59 In52 2.326 . S
O59 C55 1.260 . S
O60 In52 2.266 . S
O60 C57 1.252 . S
O61 In52 2.326 . S
O61 C57 1.260 . S
C62 O53 1.240 . S
C62 O54 1.252 . S
O63 In52 2.294 . S
O63 C56 1.240 . S
O64 In52 2.326 . S
O64 C56 1.252 . S
In65 O66 2.294 . S
In65 O67 2.326 . S
In65 O71 2.266 . S
In65 O72 2.326 . S
In65 O73 2.266 . S
In65 O74 2.326 . S
In65 O76 2.294 . S
In65 O77 2.326 . S
O66 In65 2.294 . S
O66 C75 1.240 . S
O67 In65 2.326 . S
O67 C75 1.252 . S
C68 O71 1.252 . S
C68 O72 1.260 . S
C69 O76 1.240 . S
C69 O77 1.252 . S
C70 O73 1.252 . S
C70 O74 1.260 . S
O71 In65 2.266 . S
O71 C68 1.252 . S
O72 In65 2.326 . S
O72 C68 1.260 . S
O73 In65 2.266 . S
O73 C70 1.252 . S
O74 In65 2.326 . S
O74 C70 1.260 . S
C75 O66 1.240 . S
C75 O67 1.252 . S
O76 In65 2.294 . S
O76 C69 1.240 . S
O77 In65 2.326 . S
O77 C69 1.252 . S
In78 O79 2.294 . S
In78 O80 2.326 . S
In78 O84 2.266 . S
In78 O85 2.326 . S
In78 O86 2.266 . S
In78 O87 2.326 . S
In78 O89 2.294 . S
In78 O90 2.326 . S
O79 In78 2.294 . S
O79 C88 1.240 . S
O80 In78 2.326 . S
O80 C88 1.252 . S
C81 O84 1.252 . S
C81 O85 1.260 . S
C82 O89 1.240 . S
C82 O90 1.252 . S
C83 O86 1.252 . S
C83 O87 1.260 . S
O84 In78 2.266 . S
O84 C81 1.252 . S
O85 In78 2.326 . S
O85 C81 1.260 . S
O86 In78 2.266 . S
O86 C83 1.252 . S
O87 In78 2.326 . S
O87 C83 1.260 . S
C88 O79 1.240 . S
C88 O80 1.252 . S
O89 In78 2.294 . S
O89 C82 1.240 . S
O90 In78 2.326 . S
O90 C82 1.252 . S
In91 O92 2.294 . S
In91 O93 2.326 . S
In91 O97 2.266 . S
In91 O98 2.326 . S
In91 O99 2.266 . S
In91 O100 2.326 . S
In91 O102 2.294 . S
In91 O103 2.326 . S
O92 In91 2.294 . S
O92 C101 1.240 . S
O93 In91 2.326 . S
O93 C101 1.252 . S
C94 O97 1.252 . S
C94 O98 1.260 . S
C95 O102 1.240 . S
C95 O103 1.252 . S
C96 O99 1.252 . S
C96 O100 1.260 . S
O97 In91 2.266 . S
O97 C94 1.252 . S
O98 In91 2.326 . S
O98 C94 1.260 . S
O99 In91 2.266 . S
O99 C96 1.252 . S
O100 In91 2.326 . S
O100 C96 1.260 . S
C101 O92 1.240 . S
C101 O93 1.252 . S
O102 In91 2.294 . S
O102 C95 1.240 . S
O103 In91 2.326 . S
O103 C95 1.252 . S
In104 O105 2.294 . S
In104 O106 2.326 . S
In104 O110 2.266 . S
In104 O111 2.326 . S
In104 O112 2.266 . S
In104 O113 2.326 . S
In104 O115 2.294 . S
In104 O116 2.326 . S
O105 In104 2.294 . S
O105 C114 1.240 . S
O106 In104 2.326 . S
O106 C114 1.252 . S
C107 O110 1.252 . S
C107 O111 1.260 . S
C108 O115 1.240 . S
C108 O116 1.252 . S
C109 O112 1.252 . S
C109 O113 1.260 . S
O110 In104 2.266 . S
O110 C107 1.252 . S
O111 In104 2.326 . S
O111 C107 1.260 . S
O112 In104 2.266 . S
O112 C109 1.252 . S
O113 In104 2.326 . S
O113 C109 1.260 . S
C114 O105 1.240 . S
C114 O106 1.252 . S
O115 In104 2.294 . S
O115 C108 1.240 . S
O116 In104 2.326 . S
O116 C108 1.252 . S
In117 O118 2.294 . S
In117 O119 2.326 . S
In117 O123 2.266 . S
In117 O124 2.326 . S
In117 O125 2.266 . S
In117 O126 2.326 . S
In117 O128 2.294 . S
In117 O129 2.326 . S
O118 In117 2.294 . S
O118 C127 1.240 . S
O119 In117 2.326 . S
O119 C127 1.252 . S
C120 O123 1.252 . S
C120 O124 1.260 . S
C121 O128 1.240 . S
C121 O129 1.252 . S
C122 O125 1.252 . S
C122 O126 1.260 . S
O123 In117 2.266 . S
O123 C120 1.252 . S
O124 In117 2.326 . S
O124 C120 1.260 . S
O125 In117 2.266 . S
O125 C122 1.252 . S
O126 In117 2.326 . S
O126 C122 1.260 . S
C127 O118 1.240 . S
C127 O119 1.252 . S
O128 In117 2.294 . S
O128 C121 1.240 . S
O129 In117 2.326 . S
O129 C121 1.252 . S
In130 O131 2.294 . S
In130 O132 2.326 . S
In130 O136 2.266 . S
In130 O137 2.326 . S
In130 O138 2.266 . S
In130 O139 2.326 . S
In130 O141 2.294 . S
In130 O142 2.326 . S
O131 In130 2.294 . S
O131 C140 1.240 . S
O132 In130 2.326 . S
O132 C140 1.252 . S
C133 O136 1.252 . S
C133 O137 1.260 . S
C134 O141 1.240 . S
C134 O142 1.252 . S
C135 O138 1.252 . S
C135 O139 1.260 . S
O136 In130 2.266 . S
O136 C133 1.252 . S
O137 In130 2.326 . S
O137 C133 1.260 . S
O138 In130 2.266 . S
O138 C135 1.252 . S
O139 In130 2.326 . S
O139 C135 1.260 . S
C140 O131 1.240 . S
C140 O132 1.252 . S
O141 In130 2.294 . S
O141 C134 1.240 . S
O142 In130 2.326 . S
O142 C134 1.252 . S
In143 O144 2.294 . S
In143 O145 2.326 . S
In143 O149 2.266 . S
In143 O150 2.326 . S
In143 O151 2.266 . S
In143 O152 2.326 . S
In143 O154 2.294 . S
In143 O155 2.326 . S
O144 In143 2.294 . S
O144 C153 1.240 . S
O145 In143 2.326 . S
O145 C153 1.252 . S
C146 O149 1.252 . S
C146 O150 1.260 . S
C147 O154 1.240 . S
C147 O155 1.252 . S
C148 O151 1.252 . S
C148 O152 1.260 . S
O149 In143 2.266 . S
O149 C146 1.252 . S
O150 In143 2.326 . S
O150 C146 1.260 . S
O151 In143 2.266 . S
O151 C148 1.252 . S
O152 In143 2.326 . S
O152 C148 1.260 . S
C153 O144 1.240 . S
C153 O145 1.252 . S
O154 In143 2.294 . S
O154 C147 1.240 . S
O155 In143 2.326 . S
O155 C147 1.252 . S
In156 O157 2.294 . S
In156 O158 2.326 . S
In156 O162 2.266 . S
In156 O163 2.326 . S
In156 O164 2.266 . S
In156 O165 2.326 . S
In156 O167 2.294 . S
In156 O168 2.326 . S
O157 In156 2.294 . S
O157 C166 1.240 . S
O158 In156 2.326 . S
O158 C166 1.252 . S
C159 O162 1.252 . S
C159 O163 1.260 . S
C160 O167 1.240 . S
C160 O168 1.252 . S
C161 O164 1.252 . S
C161 O165 1.260 . S
O162 In156 2.266 . S
O162 C159 1.252 . S
O163 In156 2.326 . S
O163 C159 1.260 . S
O164 In156 2.266 . S
O164 C161 1.252 . S
O165 In156 2.326 . S
O165 C161 1.260 . S
C166 O157 1.240 . S
C166 O158 1.252 . S
O167 In156 2.294 . S
O167 C160 1.240 . S
O168 In156 2.326 . S
O168 C160 1.252 . S
In169 O170 2.294 . S
In169 O171 2.326 . S
In169 O175 2.266 . S
In169 O176 2.326 . S
In169 O177 2.266 . S
In169 O178 2.326 . S
In169 O180 2.294 . S
In169 O181 2.326 . S
O170 In169 2.294 . S
O170 C179 1.240 . S
O171 In169 2.326 . S
O171 C179 1.252 . S
C172 O175 1.252 . S
C172 O176 1.260 . S
C173 O180 1.240 . S
C173 O181 1.252 . S
C174 O177 1.252 . S
C174 O178 1.260 . S
O175 In169 2.266 . S
O175 C172 1.252 . S
O176 In169 2.326 . S
O176 C172 1.260 . S
O177 In169 2.266 . S
O177 C174 1.252 . S
O178 In169 2.326 . S
O178 C174 1.260 . S
C179 O170 1.240 . S
C179 O171 1.252 . S
O180 In169 2.294 . S
O180 C173 1.240 . S
O181 In169 2.326 . S
O181 C173 1.252 . S
In182 O183 2.294 . S
In182 O184 2.326 . S
In182 O188 2.266 . S
In182 O189 2.326 . S
In182 O190 2.266 . S
In182 O191 2.326 . S
In182 O193 2.294 . S
In182 O194 2.326 . S
O183 In182 2.294 . S
O183 C192 1.240 . S
O184 In182 2.326 . S
O184 C192 1.252 . S
C185 O188 1.252 . S
C185 O189 1.260 . S
C186 O193 1.240 . S
C186 O194 1.252 . S
C187 O190 1.252 . S
C187 O191 1.260 . S
O188 In182 2.266 . S
O188 C185 1.252 . S
O189 In182 2.326 . S
O189 C185 1.260 . S
O190 In182 2.266 . S
O190 C187 1.252 . S
O191 In182 2.326 . S
O191 C187 1.260 . S
C192 O183 1.240 . S
C192 O184 1.252 . S
O193 In182 2.294 . S
O193 C186 1.240 . S
O194 In182 2.326 . S
O194 C186 1.252 . S
In195 O196 2.294 . S
In195 O197 2.326 . S
In195 O201 2.266 . S
In195 O202 2.326 . S
In195 O203 2.266 . S
In195 O204 2.326 . S
In195 O206 2.294 . S
In195 O207 2.326 . S
O196 In195 2.294 . S
O196 C205 1.240 . S
O197 In195 2.326 . S
O197 C205 1.252 . S
C198 O201 1.252 . S
C198 O202 1.260 . S
C199 O206 1.240 . S
C199 O207 1.252 . S
C200 O203 1.252 . S
C200 O204 1.260 . S
O201 In195 2.266 . S
O201 C198 1.252 . S
O202 In195 2.326 . S
O202 C198 1.260 . S
O203 In195 2.266 . S
O203 C200 1.252 . S
O204 In195 2.326 . S
O204 C200 1.260 . S
C205 O196 1.240 . S
C205 O197 1.252 . S
O206 In195 2.294 . S
O206 C199 1.240 . S
O207 In195 2.326 . S
O207 C199 1.252 . S
H208 C216 0.929 . S
H209 C218 0.930 1_556 S
H210 C220 0.930 . S
H211 C223 0.929 . S
H212 C226 0.930 1_554 S
H213 C228 0.960 . S
H214 C228 0.960 . S
H215 C228 0.960 1_554 S
C216 H208 0.929 . S
C216 C217 1.377 . S
C216 C218 1.384 . S
C217 C216 1.377 . S
C217 C223 1.390 . S
C218 H209 0.930 1_554 S
C218 C216 1.384 . S
C218 C219 1.372 . S
C219 C218 1.372 . S
C219 C220 1.400 . S
C219 C224 1.490 . S
C220 H210 0.930 . S
C220 C219 1.400 . S
C220 C223 1.386 . S
H221 C237 0.930 . S
H222 C238 0.931 . S
C223 H211 0.929 . S
C223 C217 1.390 . S
C223 C220 1.386 . S
C224 C219 1.490 . S
C224 C226 1.395 1_554 S
C224 C227 1.403 1_554 S
H225 C231 0.930 . S
C226 H212 0.930 1_556 S
C226 C224 1.395 1_556 S
C226 C229 1.403 . S
C227 C224 1.403 1_556 S
C227 C228 1.524 . S
C227 C231 1.400 . S
C228 H213 0.960 . S
C228 H214 0.960 . S
C228 H215 0.960 1_556 S
C228 C227 1.524 . S
C229 C226 1.403 . S
C229 C230 1.392 . S
C229 C233 1.495 . S
C230 C229 1.392 . S
C230 C231 1.385 . S
C230 C232 1.478 . S
C231 H225 0.930 . S
C231 C227 1.400 . S
C231 C230 1.385 . S
C232 C230 1.478 . S
C232 C234 1.381 . S
C232 C238 1.383 . S
C233 C229 1.495 . S
C233 H239 0.959 . S
C233 H240 0.961 . S
C233 H241 0.960 . S
C234 C232 1.381 . S
C234 C235 1.394 . S
C234 H242 0.930 . S
C235 C234 1.394 . S
C235 C236 1.383 . S
C235 H243 0.929 . S
C236 C235 1.383 . S
C236 C237 1.377 . S
C237 H221 0.930 . S
C237 C236 1.377 . S
C237 C238 1.379 . S
C238 H222 0.931 . S
C238 C232 1.383 . S
C238 C237 1.379 . S
H239 C233 0.959 . S
H240 C233 0.961 . S
H241 C233 0.960 . S
H242 C234 0.930 . S
H243 C235 0.929 . S
H244 C252 0.929 . S
H245 C254 0.930 . S
H246 C256 0.930 . S
H247 C259 0.929 . S
H248 C262 0.930 . S
H249 C264 0.960 . S
H250 C264 0.960 . S
H251 C264 0.960 . S
C252 H244 0.929 . S
C252 C253 1.377 . S
C252 C254 1.384 . S
C253 C252 1.377 . S
C253 C259 1.390 . S
C254 H245 0.930 . S
C254 C252 1.384 . S
C254 C255 1.372 . S
C255 C254 1.372 . S
C255 C256 1.400 . S
C255 C260 1.490 . S
C256 H246 0.930 . S
C256 C255 1.400 . S
C256 C259 1.386 . S
H257 C273 0.930 . S
H258 C274 0.931 . S
C259 H247 0.929 . S
C259 C253 1.390 . S
C259 C256 1.386 . S
C260 C255 1.490 . S
C260 C262 1.395 . S
C260 C263 1.403 . S
H261 C267 0.930 . S
C262 H248 0.930 . S
C262 C260 1.395 . S
C262 C265 1.403 . S
C263 C260 1.403 . S
C263 C264 1.524 . S
C263 C267 1.400 . S
C264 H249 0.960 . S
C264 H250 0.960 . S
C264 H251 0.960 . S
C264 C263 1.524 . S
C265 C262 1.403 . S
C265 C266 1.392 . S
C265 C269 1.495 . S
C266 C265 1.392 . S
C266 C267 1.385 . S
C266 C268 1.478 . S
C267 H261 0.930 . S
C267 C263 1.400 . S
C267 C266 1.385 . S
C268 C266 1.478 . S
C268 C270 1.381 . S
C268 C274 1.383 . S
C269 C265 1.495 . S
C269 H275 0.959 . S
C269 H276 0.961 . S
C269 H277 0.960 . S
C270 C268 1.381 . S
C270 C271 1.394 . S
C270 H278 0.930 . S
C271 C270 1.394 . S
C271 C272 1.383 . S
C271 H279 0.929 . S
C272 C271 1.383 . S
C272 C273 1.377 . S
C273 H257 0.930 . S
C273 C272 1.377 . S
C273 C274 1.379 . S
C274 H258 0.931 . S
C274 C268 1.383 . S
C274 C273 1.379 . S
H275 C269 0.959 . S
H276 C269 0.961 . S
H277 C269 0.960 . S
H278 C270 0.930 . S
H279 C271 0.929 . S
H280 C288 0.929 . S
H281 C290 0.930 1_554 S
H282 C292 0.930 . S
H283 C295 0.929 . S
H284 C298 0.930 . S
H285 C300 0.960 . S
H286 C300 0.960 . S
H287 C300 0.960 . S
C288 H280 0.929 . S
C288 C289 1.377 . S
C288 C290 1.384 . S
C289 C288 1.377 . S
C289 C295 1.390 . S
C290 H281 0.930 1_556 S
C290 C288 1.384 . S
C290 C291 1.372 . S
C291 C290 1.372 . S
C291 C292 1.400 . S
C291 C296 1.490 . S
C292 H282 0.930 . S
C292 C291 1.400 . S
C292 C295 1.386 . S
H293 C309 0.930 . S
H294 C310 0.931 . S
C295 H283 0.929 . S
C295 C289 1.390 . S
C295 C292 1.386 . S
C296 C291 1.490 . S
C296 C298 1.395 1_556 S
C296 C299 1.403 . S
H297 C303 0.932 . S
C298 H284 0.930 . S
C298 C296 1.395 1_554 S
C298 C301 1.403 . S
C299 C296 1.403 . S
C299 C300 1.524 . S
C299 C303 1.400 1_556 S
C300 H285 0.960 . S
C300 H286 0.960 . S
C300 H287 0.960 . S
C300 C299 1.524 . S
C301 C298 1.403 . S
C301 C302 1.392 . S
C301 C305 1.495 . S
C302 C301 1.392 . S
C302 C303 1.385 . S
C302 C304 1.478 . S
C303 H297 0.932 . S
C303 C299 1.400 1_554 S
C303 C302 1.385 . S
C304 C302 1.478 . S
C304 C306 1.381 . S
C304 C310 1.383 . S
C305 C301 1.495 . S
C305 H311 0.959 . S
C305 H312 0.961 . S
C305 H313 0.960 . S
C306 C304 1.381 . S
C306 C307 1.394 . S
C306 H314 0.930 . S
C307 C306 1.394 . S
C307 C308 1.383 . S
C307 H315 0.929 . S
C308 C307 1.383 . S
C308 C309 1.377 . S
C309 H293 0.930 . S
C309 C308 1.377 . S
C309 C310 1.379 . S
C310 H294 0.931 . S
C310 C304 1.383 . S
C310 C309 1.379 . S
H311 C305 0.959 . S
H312 C305 0.961 . S
H313 C305 0.960 . S
H314 C306 0.930 . S
H315 C307 0.929 . S
H316 C324 0.929 . S
H317 C326 0.930 . S
H318 C328 0.930 . S
H319 C331 0.929 . S
H320 C334 0.930 . S
H321 C336 0.960 . S
H322 C336 0.960 . S
H323 C336 0.960 . S
C324 H316 0.929 . S
C324 C325 1.377 . S
C324 C326 1.384 . S
C325 C324 1.377 . S
C325 C331 1.390 . S
C326 H317 0.930 . S
C326 C324 1.384 . S
C326 C327 1.372 . S
C327 C326 1.372 . S
C327 C328 1.400 . S
C327 C332 1.490 . S
C328 H318 0.930 . S
C328 C327 1.400 . S
C328 C331 1.386 . S
H329 C345 0.930 . S
H330 C346 0.931 . S
C331 H319 0.929 . S
C331 C325 1.390 . S
C331 C328 1.386 . S
C332 C327 1.490 . S
C332 C334 1.395 . S
C332 C335 1.403 . S
H333 C339 0.930 . S
C334 H320 0.930 . S
C334 C332 1.395 . S
C334 C337 1.403 . S
C335 C332 1.403 . S
C335 C336 1.524 . S
C335 C339 1.400 . S
C336 H321 0.960 . S
C336 H322 0.960 . S
C336 H323 0.960 . S
C336 C335 1.524 . S
C337 C334 1.403 . S
C337 C338 1.392 . S
C337 C341 1.495 . S
C338 C337 1.392 . S
C338 C339 1.385 . S
C338 C340 1.478 . S
C339 H333 0.930 . S
C339 C335 1.400 . S
C339 C338 1.385 . S
C340 C338 1.478 . S
C340 C342 1.381 . S
C340 C346 1.383 . S
C341 C337 1.495 . S
C341 H347 0.959 . S
C341 H348 0.961 . S
C341 H349 0.960 . S
C342 C340 1.381 . S
C342 C343 1.394 . S
C342 H350 0.930 . S
C343 C342 1.394 . S
C343 C344 1.383 . S
C343 H351 0.929 . S
C344 C343 1.383 . S
C344 C345 1.377 . S
C345 H329 0.930 . S
C345 C344 1.377 . S
C345 C346 1.379 . S
C346 H330 0.931 . S
C346 C340 1.383 . S
C346 C345 1.379 . S
H347 C341 0.959 . S
H348 C341 0.961 . S
H349 C341 0.960 . S
H350 C342 0.930 . S
H351 C343 0.929 . S
H352 C360 0.929 . S
H353 C362 0.930 1_556 S
H354 C364 0.930 . S
H355 C367 0.929 . S
H356 C370 0.930 . S
H357 C372 0.960 1_556 S
H358 C372 0.960 1_556 S
H359 C372 0.960 . S
C360 H352 0.929 . S
C360 C361 1.377 . S
C360 C362 1.384 . S
C361 C360 1.377 . S
C361 C367 1.390 . S
C362 H353 0.930 1_554 S
C362 C360 1.384 . S
C362 C363 1.372 . S
C363 C362 1.372 . S
C363 C364 1.400 . S
C363 C368 1.490 . S
C364 H354 0.930 . S
C364 C363 1.400 . S
C364 C367 1.386 . S
H365 C381 0.930 . S
H366 C382 0.931 . S
C367 H355 0.929 . S
C367 C361 1.390 . S
C367 C364 1.386 . S
C368 C363 1.490 . S
C368 C370 1.395 1_554 S
C368 C371 1.403 1_554 S
H369 C375 0.930 . S
C370 H356 0.930 . S
C370 C368 1.395 1_556 S
C370 C373 1.403 . S
C371 C368 1.403 1_556 S
C371 C372 1.524 1_556 S
C371 C375 1.400 . S
C372 H357 0.960 1_554 S
C372 H358 0.960 1_554 S
C372 H359 0.960 . S
C372 C371 1.524 1_554 S
C373 C370 1.403 . S
C373 C374 1.392 . S
C373 C377 1.495 . S
C374 C373 1.392 . S
C374 C375 1.385 . S
C374 C376 1.478 . S
C375 H369 0.930 . S
C375 C371 1.400 . S
C375 C374 1.385 . S
C376 C374 1.478 . S
C376 C378 1.381 . S
C376 C382 1.383 . S
C377 C373 1.495 . S
C377 H383 0.959 . S
C377 H384 0.961 . S
C377 H385 0.960 . S
C378 C376 1.381 . S
C378 C379 1.394 . S
C378 H386 0.930 . S
C379 C378 1.394 . S
C379 C380 1.383 . S
C379 H387 0.929 . S
C380 C379 1.383 . S
C380 C381 1.377 . S
C381 H365 0.930 . S
C381 C380 1.377 . S
C381 C382 1.379 . S
C382 H366 0.931 . S
C382 C376 1.383 . S
C382 C381 1.379 . S
H383 C377 0.959 . S
H384 C377 0.961 . S
H385 C377 0.960 . S
H386 C378 0.930 . S
H387 C379 0.929 . S
H388 C396 0.929 . S
H389 C398 0.930 . S
H390 C400 0.930 . S
H391 C403 0.929 . S
H392 C406 0.930 . S
H393 C408 0.960 . S
H394 C408 0.960 . S
H395 C408 0.960 . S
C396 H388 0.929 . S
C396 C397 1.377 . S
C396 C398 1.384 . S
C397 C396 1.377 . S
C397 C403 1.390 . S
C398 H389 0.930 . S
C398 C396 1.384 . S
C398 C399 1.372 . S
C399 C398 1.372 . S
C399 C400 1.400 . S
C399 C404 1.490 . S
C400 H390 0.930 . S
C400 C399 1.400 . S
C400 C403 1.386 . S
H401 C417 0.930 . S
H402 C418 0.931 . S
C403 H391 0.929 . S
C403 C397 1.390 . S
C403 C400 1.386 . S
C404 C399 1.490 . S
C404 C406 1.395 . S
C404 C407 1.403 . S
H405 C411 0.930 . S
C406 H392 0.930 . S
C406 C404 1.395 . S
C406 C409 1.403 . S
C407 C404 1.403 . S
C407 C408 1.524 . S
C407 C411 1.400 . S
C408 H393 0.960 . S
C408 H394 0.960 . S
C408 H395 0.960 . S
C408 C407 1.524 . S
C409 C406 1.403 . S
C409 C410 1.392 . S
C409 C413 1.495 . S
C410 C409 1.392 . S
C410 C411 1.385 . S
C410 C412 1.478 . S
C411 H405 0.930 . S
C411 C407 1.400 . S
C411 C410 1.385 . S
C412 C410 1.478 . S
C412 C414 1.381 . S
C412 C418 1.383 . S
C413 C409 1.495 . S
C413 H419 0.959 . S
C413 H420 0.961 . S
C413 H421 0.960 . S
C414 C412 1.381 . S
C414 C415 1.394 . S
C414 H422 0.930 . S
C415 C414 1.394 . S
C415 C416 1.383 . S
C415 H423 0.929 . S
C416 C415 1.383 . S
C416 C417 1.377 . S
C417 H401 0.930 . S
C417 C416 1.377 . S
C417 C418 1.379 . S
C418 H402 0.931 . S
C418 C412 1.383 . S
C418 C417 1.379 . S
H419 C413 0.959 . S
H420 C413 0.961 . S
H421 C413 0.960 . S
H422 C414 0.930 . S
H423 C415 0.929 . S
H424 C432 0.929 . S
H425 C434 0.930 . S
H426 C436 0.930 . S
H427 C439 0.929 . S
H428 C442 0.930 . S
H429 C444 0.960 . S
H430 C444 0.960 . S
H431 C444 0.960 . S
C432 H424 0.929 . S
C432 C433 1.377 . S
C432 C434 1.384 . S
C433 C432 1.377 . S
C433 C439 1.390 . S
C434 H425 0.930 . S
C434 C432 1.384 . S
C434 C435 1.372 . S
C435 C434 1.372 . S
C435 C436 1.400 . S
C435 C440 1.490 . S
C436 H426 0.930 . S
C436 C435 1.400 . S
C436 C439 1.386 . S
H437 C453 0.930 . S
H438 C454 0.931 . S
C439 H427 0.929 . S
C439 C433 1.390 . S
C439 C436 1.386 . S
C440 C435 1.490 . S
C440 C442 1.395 . S
C440 C443 1.403 1_556 S
H441 C447 0.930 . S
C442 H428 0.930 . S
C442 C440 1.395 . S
C442 C445 1.403 . S
C443 C440 1.403 1_554 S
C443 C444 1.524 . S
C443 C447 1.400 . S
C444 H429 0.960 . S
C444 H430 0.960 . S
C444 H431 0.960 . S
C444 C443 1.524 . S
C445 C442 1.403 . S
C445 C446 1.392 1_556 S
C445 C449 1.495 . S
C446 C445 1.392 1_554 S
C446 C447 1.385 . S
C446 C448 1.478 . S
C447 H441 0.930 . S
C447 C443 1.400 . S
C447 C446 1.385 . S
C448 C446 1.478 . S
C448 C450 1.381 . S
C448 C454 1.383 . S
C449 C445 1.495 . S
C449 H455 0.959 . S
C449 H456 0.961 . S
C449 H457 0.960 . S
C450 C448 1.381 . S
C450 C451 1.394 . S
C450 H458 0.930 . S
C451 C450 1.394 . S
C451 C452 1.383 . S
C451 H459 0.929 . S
C452 C451 1.383 . S
C452 C453 1.377 . S
C453 H437 0.930 . S
C453 C452 1.377 . S
C453 C454 1.379 . S
C454 H438 0.931 . S
C454 C448 1.383 . S
C454 C453 1.379 . S
H455 C449 0.959 . S
H456 C449 0.961 . S
H457 C449 0.960 . S
H458 C450 0.930 . S
H459 C451 0.929 . S
H460 C468 0.929 . S
H461 C470 0.930 . S
H462 C472 0.930 . S
H463 C475 0.929 . S
H464 C478 0.930 . S
H465 C480 0.960 . S
H466 C480 0.960 . S
H467 C480 0.960 . S
C468 H460 0.929 . S
C468 C469 1.377 . S
C468 C470 1.384 . S
C469 C468 1.377 . S
C469 C475 1.390 . S
C470 H461 0.930 . S
C470 C468 1.384 . S
C470 C471 1.372 . S
C471 C470 1.372 . S
C471 C472 1.400 . S
C471 C476 1.490 . S
C472 H462 0.930 . S
C472 C471 1.400 . S
C472 C475 1.386 . S
H473 C489 0.930 . S
H474 C490 0.931 . S
C475 H463 0.929 . S
C475 C469 1.390 . S
C475 C472 1.386 . S
C476 C471 1.490 . S
C476 C478 1.395 . S
C476 C479 1.403 . S
H477 C483 0.930 . S
C478 H464 0.930 . S
C478 C476 1.395 . S
C478 C481 1.403 . S
C479 C476 1.403 . S
C479 C480 1.524 . S
C479 C483 1.400 . S
C480 H465 0.960 . S
C480 H466 0.960 . S
C480 H467 0.960 . S
C480 C479 1.524 . S
C481 C478 1.403 . S
C481 C482 1.392 . S
C481 C485 1.495 . S
C482 C481 1.392 . S
C482 C483 1.385 . S
C482 C484 1.478 . S
C483 H477 0.930 . S
C483 C479 1.400 . S
C483 C482 1.385 . S
C484 C482 1.478 . S
C484 C486 1.381 . S
C484 C490 1.383 . S
C485 C481 1.495 . S
C485 H491 0.959 . S
C485 H492 0.961 . S
C485 H493 0.960 . S
C486 C484 1.381 . S
C486 C487 1.394 . S
C486 H494 0.930 . S
C487 C486 1.394 . S
C487 C488 1.383 . S
C487 H495 0.929 . S
C488 C487 1.383 . S
C488 C489 1.377 . S
C489 H473 0.930 . S
C489 C488 1.377 . S
C489 C490 1.379 . S
C490 H474 0.931 . S
C490 C484 1.383 . S
C490 C489 1.379 . S
H491 C485 0.959 . S
H492 C485 0.961 . S
H493 C485 0.960 . S
H494 C486 0.930 . S
H495 C487 0.929 . S
H496 C504 0.929 1_556 S
H497 C506 0.930 . S
H498 C508 0.930 . S
H499 C511 0.929 . S
H500 C514 0.930 . S
H501 C516 0.960 . S
H502 C516 0.960 . S
H503 C516 0.960 . S
C504 H496 0.929 1_554 S
C504 C505 1.377 . S
C504 C506 1.384 1_554 S
C505 C504 1.377 . S
C505 C511 1.390 . S
C506 H497 0.930 . S
C506 C504 1.384 1_556 S
C506 C507 1.372 1_556 S
C507 C506 1.372 1_554 S
C507 C508 1.400 . S
C507 C512 1.490 . S
C508 H498 0.930 . S
C508 C507 1.400 . S
C508 C511 1.386 . S
H509 C525 0.930 1_554 S
H510 C526 0.912 1_554 S
C511 H499 0.929 . S
C511 C505 1.390 . S
C511 C508 1.386 . S
C512 C507 1.490 . S
C512 C514 1.395 1_554 S
C512 C515 1.403 . S
H513 C519 0.930 . S
C514 H500 0.930 . S
C514 C512 1.395 1_556 S
C514 C517 1.403 1_545 S
C515 C512 1.403 . S
C515 C516 1.524 . S
C515 C519 1.400 1_545 S
C516 H501 0.960 . S
C516 H502 0.960 . S
C516 H503 0.960 . S
C516 C515 1.524 . S
C517 C514 1.403 1_565 S
C517 C518 1.392 . S
C517 C521 1.495 . S
C518 C517 1.392 . S
C518 C519 1.385 1_556 S
C518 C520 1.478 . S
C519 H513 0.930 . S
C519 C515 1.400 1_565 S
C519 C518 1.385 1_554 S
C520 C518 1.478 . S
C520 C522 1.381 . S
C520 C526 1.396 . S
C521 C517 1.495 . S
C521 H527 0.998 . S
C521 H528 0.961 . S
C521 H529 0.960 . S
C522 C520 1.381 . S
C522 C523 1.394 . S
C522 H530 0.930 . S
C523 C522 1.394 . S
C523 C524 1.383 . S
C523 H531 0.929 . S
C524 C523 1.383 . S
C524 C525 1.377 . S
C525 H509 0.930 1_556 S
C525 C524 1.377 . S
C525 C526 1.385 . S
C526 H510 0.912 1_556 S
C526 C520 1.396 . S
C526 C525 1.385 . S
H527 C521 0.998 . S
H528 C521 0.961 . S
H529 C521 0.960 . S
H530 C522 0.930 . S
H531 C523 0.929 . S
H532 C540 0.929 . S
H533 C542 0.930 . S
H534 C544 0.930 . S
H535 C547 0.929 . S
H536 C550 0.930 . S
H537 C552 0.960 . S
H538 C552 0.960 . S
H539 C552 0.960 . S
C540 H532 0.929 . S
C540 C541 1.377 . S
C540 C542 1.384 . S
C541 C540 1.377 . S
C541 C547 1.390 . S
C542 H533 0.930 . S
C542 C540 1.384 . S
C542 C543 1.372 . S
C543 C542 1.372 . S
C543 C544 1.400 . S
C543 C548 1.490 . S
C544 H534 0.930 . S
C544 C543 1.400 . S
C544 C547 1.386 . S
H545 C561 0.930 . S
H546 C562 0.931 . S
C547 H535 0.929 . S
C547 C541 1.390 . S
C547 C544 1.386 . S
C548 C543 1.490 . S
C548 C550 1.395 . S
C548 C551 1.403 . S
H549 C555 0.930 . S
C550 H536 0.930 . S
C550 C548 1.395 . S
C550 C553 1.403 1_565 S
C551 C548 1.403 . S
C551 C552 1.524 . S
C551 C555 1.400 1_565 S
C552 H537 0.960 . S
C552 H538 0.960 . S
C552 H539 0.960 . S
C552 C551 1.524 . S
C553 C550 1.403 1_545 S
C553 C554 1.392 . S
C553 C557 1.495 . S
C554 C553 1.392 . S
C554 C555 1.385 . S
C554 C556 1.478 . S
C555 H549 0.930 . S
C555 C551 1.400 1_545 S
C555 C554 1.385 . S
C556 C554 1.478 . S
C556 C558 1.381 . S
C556 C562 1.383 . S
C557 C553 1.495 . S
C557 H563 0.959 . S
C557 H564 0.961 . S
C557 H565 0.960 . S
C558 C556 1.381 . S
C558 C559 1.394 . S
C558 H566 0.930 . S
C559 C558 1.394 . S
C559 C560 1.383 . S
C559 H567 0.929 . S
C560 C559 1.383 . S
C560 C561 1.377 . S
C561 H545 0.930 . S
C561 C560 1.377 . S
C561 C562 1.379 . S
C562 H546 0.931 . S
C562 C556 1.383 . S
C562 C561 1.379 . S
H563 C557 0.959 . S
H564 C557 0.961 . S
H565 C557 0.960 . S
H566 C558 0.930 . S
H567 C559 0.929 . S
H568 C576 0.929 . S
H569 C578 0.930 . S
H570 C580 0.930 . S
H571 C583 0.929 . S
H572 C586 0.930 . S
H573 C588 0.960 . S
H574 C588 0.960 . S
H575 C588 0.960 . S
C576 H568 0.929 . S
C576 C577 1.377 . S
C576 C578 1.384 . S
C577 C576 1.377 . S
C577 C583 1.390 . S
C578 H569 0.930 . S
C578 C576 1.384 . S
C578 C579 1.372 . S
C579 C578 1.372 . S
C579 C580 1.400 . S
C579 C584 1.490 . S
C580 H570 0.930 . S
C580 C579 1.400 . S
C580 C583 1.386 . S
H581 C597 0.930 . S
H582 C598 0.931 . S
C583 H571 0.929 . S
C583 C577 1.390 . S
C583 C580 1.386 . S
C584 C579 1.490 . S
C584 C586 1.395 . S
C584 C587 1.403 . S
H585 C591 0.930 . S
C586 H572 0.930 . S
C586 C584 1.395 . S
C586 C589 1.403 1_566 S
C587 C584 1.403 . S
C587 C588 1.524 . S
C587 C591 1.400 1_566 S
C588 H573 0.960 . S
C588 H574 0.960 . S
C588 H575 0.960 . S
C588 C587 1.524 . S
C589 C586 1.403 1_544 S
C589 C590 1.392 . S
C589 C593 1.495 . S
C590 C589 1.392 . S
C590 C591 1.385 . S
C590 C592 1.478 . S
C591 H585 0.930 . S
C591 C587 1.400 1_544 S
C591 C590 1.385 . S
C592 C590 1.478 . S
C592 C594 1.381 . S
C592 C598 1.383 . S
C593 C589 1.495 . S
C593 H599 0.959 . S
C593 H600 0.961 . S
C593 H601 0.960 . S
C594 C592 1.381 . S
C594 C595 1.394 . S
C594 H602 0.930 . S
C595 C594 1.394 . S
C595 C596 1.383 . S
C595 H603 0.929 . S
C596 C595 1.383 . S
C596 C597 1.377 . S
C597 H581 0.930 . S
C597 C596 1.377 . S
C597 C598 1.379 . S
C598 H582 0.931 . S
C598 C592 1.383 . S
C598 C597 1.379 . S
H599 C593 0.959 . S
H600 C593 0.961 . S
H601 C593 0.960 . S
H602 C594 0.930 . S
H603 C595 0.929 . S
H604 C612 0.929 . S
H605 C614 0.930 . S
H606 C616 0.930 . S
H607 C619 0.929 . S
H608 C622 0.930 . S
H609 C624 0.960 . S
H610 C624 0.960 . S
H611 C624 0.960 . S
C612 H604 0.929 . S
C612 C613 1.377 . S
C612 C614 1.384 . S
C613 C612 1.377 . S
C613 C619 1.390 . S
C614 H605 0.930 . S
C614 C612 1.384 . S
C614 C615 1.372 . S
C615 C614 1.372 . S
C615 C616 1.400 . S
C615 C620 1.490 . S
C616 H606 0.930 . S
C616 C615 1.400 . S
C616 C619 1.386 . S
H617 C633 0.930 . S
H618 C634 0.931 . S
C619 H607 0.929 . S
C619 C613 1.390 . S
C619 C616 1.386 . S
C620 C615 1.490 . S
C620 C622 1.395 . S
C620 C623 1.403 . S
H621 C627 0.930 . S
C622 H608 0.930 . S
C622 C620 1.395 . S
C622 C625 1.403 1_545 S
C623 C620 1.403 . S
C623 C624 1.524 . S
C623 C627 1.400 1_545 S
C624 H609 0.960 . S
C624 H610 0.960 . S
C624 H611 0.960 . S
C624 C623 1.524 . S
C625 C622 1.403 1_565 S
C625 C626 1.392 . S
C625 C629 1.495 . S
C626 C625 1.392 . S
C626 C627 1.385 . S
C626 C628 1.478 . S
C627 H621 0.930 . S
C627 C623 1.400 1_565 S
C627 C626 1.385 . S
C628 C626 1.478 . S
C628 C630 1.381 . S
C628 C634 1.383 . S
C629 C625 1.495 . S
C629 H635 0.959 . S
C629 H636 0.961 . S
C629 H637 0.960 . S
C630 C628 1.381 . S
C630 C631 1.394 . S
C630 H638 0.930 . S
C631 C630 1.394 . S
C631 C632 1.383 . S
C631 H639 0.929 . S
C632 C631 1.383 . S
C632 C633 1.377 . S
C633 H617 0.930 . S
C633 C632 1.377 . S
C633 C634 1.379 . S
C634 H618 0.931 . S
C634 C628 1.383 . S
C634 C633 1.379 . S
H635 C629 0.959 . S
H636 C629 0.961 . S
H637 C629 0.960 . S
H638 C630 0.930 . S
H639 C631 0.929 . S
H640 C648 0.929 . S
H641 C650 0.930 . S
H642 C652 0.907 1_554 S
H643 C655 0.929 . S
H644 C658 0.930 . S
H645 C660 0.960 . S
H646 C660 0.960 . S
H647 C660 0.960 . S
C648 H640 0.929 . S
C648 C649 1.377 . S
C648 C650 1.384 . S
C649 C648 1.377 . S
C649 C655 1.390 . S
C650 H641 0.930 . S
C650 C648 1.384 . S
C650 C651 1.372 . S
C651 C650 1.372 . S
C651 C652 1.400 . S
C651 C656 1.490 . S
C652 H642 0.907 1_556 S
C652 C651 1.400 . S
C652 C655 1.386 . S
H653 C669 0.930 . S
H654 C670 0.931 . S
C655 H643 0.929 . S
C655 C649 1.390 . S
C655 C652 1.386 . S
C656 C651 1.490 . S
C656 C658 1.395 1_556 S
C656 C659 1.403 . S
H657 C663 0.930 . S
C658 H644 0.930 . S
C658 C656 1.395 1_554 S
C658 C661 1.403 . S
C659 C656 1.403 . S
C659 C660 1.524 . S
C659 C663 1.400 . S
C660 H645 0.960 . S
C660 H646 0.960 . S
C660 H647 0.960 . S
C660 C659 1.524 . S
C661 C658 1.403 . S
C661 C662 1.392 . S
C661 C665 1.495 . S
C662 C661 1.392 . S
C662 C663 1.385 1_554 S
C662 C664 1.478 . S
C663 H657 0.930 . S
C663 C659 1.400 . S
C663 C662 1.385 1_556 S
C664 C662 1.478 . S
C664 C666 1.381 . S
C664 C670 1.383 . S
C665 C661 1.495 . S
C665 H671 0.959 . S
C665 H672 0.961 . S
C665 H673 0.960 . S
C666 C664 1.381 . S
C666 C667 1.394 . S
C666 H674 0.930 1_554 S
C667 C666 1.394 . S
C667 C668 1.383 . S
C667 H675 0.929 . S
C668 C667 1.383 . S
C668 C669 1.377 . S
C669 H653 0.930 . S
C669 C668 1.377 . S
C669 C670 1.379 . S
C670 H654 0.931 . S
C670 C664 1.383 . S
C670 C669 1.379 . S
H671 C665 0.959 . S
H672 C665 0.961 . S
H673 C665 0.960 . S
H674 C666 0.930 1_556 S
H675 C667 0.929 . S
H676 C684 0.929 . S
H677 C686 0.930 . S
H678 C688 0.930 . S
H679 C691 0.929 . S
H680 C694 0.930 . S
H681 C696 0.960 . S
H682 C696 0.960 . S
H683 C696 0.960 . S
C684 H676 0.929 . S
C684 C685 1.377 . S
C684 C686 1.384 . S
C685 C684 1.377 . S
C685 C691 1.390 . S
C686 H677 0.930 . S
C686 C684 1.384 . S
C686 C687 1.372 . S
C687 C686 1.372 . S
C687 C688 1.400 . S
C687 C692 1.490 . S
C688 H678 0.930 . S
C688 C687 1.400 . S
C688 C691 1.386 . S
H689 C705 0.930 . S
H690 C706 0.931 . S
C691 H679 0.929 . S
C691 C685 1.390 . S
C691 C688 1.386 . S
C692 C687 1.490 . S
C692 C694 1.395 . S
C692 C695 1.403 . S
H693 C699 0.930 . S
C694 H680 0.930 . S
C694 C692 1.395 . S
C694 C697 1.403 . S
C695 C692 1.403 . S
C695 C696 1.524 . S
C695 C699 1.400 . S
C696 H681 0.960 . S
C696 H682 0.960 . S
C696 H683 0.960 . S
C696 C695 1.524 . S
C697 C694 1.403 . S
C697 C698 1.392 . S
C697 C701 1.495 . S
C698 C697 1.392 . S
C698 C699 1.385 . S
C698 C700 1.478 . S
C699 H693 0.930 . S
C699 C695 1.400 . S
C699 C698 1.385 . S
C700 C698 1.478 . S
C700 C702 1.381 . S
C700 C706 1.383 . S
C701 C697 1.495 . S
C701 H707 0.959 . S
C701 H708 0.961 . S
C701 H709 0.960 . S
C702 C700 1.381 . S
C702 C703 1.394 . S
C702 H710 0.930 . S
C703 C702 1.394 . S
C703 C704 1.383 . S
C703 H711 0.929 . S
C704 C703 1.383 . S
C704 C705 1.377 . S
C705 H689 0.930 . S
C705 C704 1.377 . S
C705 C706 1.379 . S
C706 H690 0.931 . S
C706 C700 1.383 . S
C706 C705 1.379 . S
H707 C701 0.959 . S
H708 C701 0.961 . S
H709 C701 0.960 . S
H710 C702 0.930 . S
H711 C703 0.929 . S
H712 C720 0.929 . S
H713 C722 0.930 . S
H714 C724 0.930 . S
H715 C727 0.929 . S
H716 C730 0.930 . S
H717 C732 0.960 . S
H718 C732 0.960 . S
H719 C732 0.960 1_554 S
C720 H712 0.929 . S
C720 C721 1.377 . S
C720 C722 1.384 . S
C721 C720 1.377 . S
C721 C727 1.390 . S
C722 H713 0.930 . S
C722 C720 1.384 . S
C722 C723 1.372 . S
C723 C722 1.372 . S
C723 C724 1.400 . S
C723 C728 1.490 . S
C724 H714 0.930 . S
C724 C723 1.400 . S
C724 C727 1.386 . S
H725 C741 0.930 . S
H726 C742 0.931 . S
C727 H715 0.929 . S
C727 C721 1.390 . S
C727 C724 1.386 . S
C728 C723 1.490 . S
C728 C730 1.395 . S
C728 C731 1.403 . S
H729 C735 0.930 . S
C730 H716 0.930 . S
C730 C728 1.395 . S
C730 C733 1.403 1_554 S
C731 C728 1.403 . S
C731 C732 1.524 1_554 S
C731 C735 1.400 1_554 S
C732 H717 0.960 . S
C732 H718 0.960 . S
C732 H719 0.960 1_556 S
C732 C731 1.524 1_556 S
C733 C730 1.403 1_556 S
C733 C734 1.392 . S
C733 C737 1.495 . S
C734 C733 1.392 . S
C734 C735 1.385 . S
C734 C736 1.478 . S
C735 H729 0.930 . S
C735 C731 1.400 1_556 S
C735 C734 1.385 . S
C736 C734 1.478 . S
C736 C738 1.381 . S
C736 C742 1.383 . S
C737 C733 1.495 . S
C737 H743 0.959 1_556 S
C737 H744 0.961 1_556 S
C737 H745 0.960 . S
C738 C736 1.381 . S
C738 C739 1.394 . S
C738 H746 0.930 . S
C739 C738 1.394 . S
C739 C740 1.383 . S
C739 H747 0.929 . S
C740 C739 1.383 . S
C740 C741 1.377 . S
C741 H725 0.930 . S
C741 C740 1.377 . S
C741 C742 1.379 . S
C742 H726 0.931 . S
C742 C736 1.383 . S
C742 C741 1.379 . S
H743 C737 0.959 1_554 S
H744 C737 0.961 1_554 S
H745 C737 0.960 . S
H746 C738 0.930 . S
H747 C739 0.929 . S
H748 C756 0.929 . S
H749 C758 0.930 . S
H750 C760 0.930 . S
H751 C763 0.929 . S
H752 C766 0.930 . S
H753 C768 0.960 . S
H754 C768 0.960 . S
H755 C768 0.960 . S
C756 H748 0.929 . S
C756 C757 1.377 . S
C756 C758 1.384 . S
C757 C756 1.377 . S
C757 C763 1.390 . S
C758 H749 0.930 . S
C758 C756 1.384 . S
C758 C759 1.372 . S
C759 C758 1.372 . S
C759 C760 1.400 . S
C759 C764 1.490 . S
C760 H750 0.930 . S
C760 C759 1.400 . S
C760 C763 1.386 . S
H761 C777 0.930 . S
H762 C778 0.931 . S
C763 H751 0.929 . S
C763 C757 1.390 . S
C763 C760 1.386 . S
C764 C759 1.490 . S
C764 C766 1.395 . S
C764 C767 1.403 . S
H765 C771 0.930 . S
C766 H752 0.930 . S
C766 C764 1.395 . S
C766 C769 1.403 . S
C767 C764 1.403 . S
C767 C768 1.524 . S
C767 C771 1.400 . S
C768 H753 0.960 . S
C768 H754 0.960 . S
C768 H755 0.960 . S
C768 C767 1.524 . S
C769 C766 1.403 . S
C769 C770 1.392 . S
C769 C773 1.495 . S
C770 C769 1.392 . S
C770 C771 1.385 . S
C770 C772 1.478 . S
C771 H765 0.930 . S
C771 C767 1.400 . S
C771 C770 1.385 . S
C772 C770 1.478 . S
C772 C774 1.381 . S
C772 C778 1.383 . S
C773 C769 1.495 . S
C773 H779 0.959 . S
C773 H780 0.961 . S
C773 H781 0.960 . S
C774 C772 1.381 . S
C774 C775 1.394 . S
C774 H782 0.930 . S
C775 C774 1.394 . S
C775 C776 1.383 . S
C775 H783 0.929 . S
C776 C775 1.383 . S
C776 C777 1.377 . S
C777 H761 0.930 . S
C777 C776 1.377 . S
C777 C778 1.379 . S
C778 H762 0.931 . S
C778 C772 1.383 . S
C778 C777 1.379 . S
H779 C773 0.959 . S
H780 C773 0.961 . S
H781 C773 0.960 . S
H782 C774 0.930 . S
H783 C775 0.929 . S
H784 C792 0.929 . S
H785 C794 0.930 . S
H786 C796 0.930 . S
H787 C799 0.929 . S
H788 C802 0.930 . S
H789 C804 0.960 . S
H790 C804 0.960 . S
H791 C804 0.960 . S
C792 H784 0.929 . S
C792 C793 1.377 . S
C792 C794 1.384 . S
C793 C792 1.377 . S
C793 C799 1.390 . S
C794 H785 0.930 . S
C794 C792 1.384 . S
C794 C795 1.372 . S
C795 C794 1.372 . S
C795 C796 1.400 . S
C795 C800 1.490 . S
C796 H786 0.930 . S
C796 C795 1.400 . S
C796 C799 1.386 . S
H797 C813 0.930 . S
H798 C814 0.931 . S
C799 H787 0.929 . S
C799 C793 1.390 . S
C799 C796 1.386 . S
C800 C795 1.490 . S
C800 C802 1.395 . S
C800 C803 1.403 . S
H801 C807 0.930 . S
C802 H788 0.930 . S
C802 C800 1.395 . S
C802 C805 1.403 . S
C803 C800 1.403 . S
C803 C804 1.524 . S
C803 C807 1.400 . S
C804 H789 0.960 . S
C804 H790 0.960 . S
C804 H791 0.960 . S
C804 C803 1.524 . S
C805 C802 1.403 . S
C805 C806 1.392 . S
C805 C809 1.495 . S
C806 C805 1.392 . S
C806 C807 1.385 . S
C806 C808 1.478 . S
C807 H801 0.930 . S
C807 C803 1.400 . S
C807 C806 1.385 . S
C808 C806 1.478 . S
C808 C810 1.381 . S
C808 C814 1.383 . S
C809 C805 1.495 . S
C809 H815 0.959 . S
C809 H816 0.961 . S
C809 H817 0.960 . S
C810 C808 1.381 . S
C810 C811 1.394 . S
C810 H818 0.930 . S
C811 C810 1.394 . S
C811 C812 1.383 . S
C811 H819 0.929 . S
C812 C811 1.383 . S
C812 C813 1.377 . S
C813 H797 0.930 . S
C813 C812 1.377 . S
C813 C814 1.379 . S
C814 H798 0.931 . S
C814 C808 1.383 . S
C814 C813 1.379 . S
H815 C809 0.959 . S
H816 C809 0.961 . S
H817 C809 0.960 . S
H818 C810 0.930 . S
H819 C811 0.929 . S
H820 C828 0.929 . S
H821 C830 0.930 . S
H822 C832 0.930 . S
H823 C835 0.929 . S
H824 C838 0.930 1_655 S
H825 C840 0.960 1_455 S
H826 C840 0.960 . S
H827 C840 0.960 . S
C828 H820 0.929 . S
C828 C829 1.377 . S
C828 C830 1.384 . S
C829 C828 1.377 . S
C829 C835 1.390 . S
C830 H821 0.930 . S
C830 C828 1.384 . S
C830 C831 1.372 . S
C831 C830 1.372 . S
C831 C832 1.400 . S
C831 C836 1.490 . S
C832 H822 0.930 . S
C832 C831 1.400 . S
C832 C835 1.386 . S
H833 C849 0.930 . S
H834 C850 0.931 . S
C835 H823 0.929 . S
C835 C829 1.390 . S
C835 C832 1.386 . S
C836 C831 1.490 . S
C836 C838 1.395 1_655 S
C836 C839 1.403 1_655 S
H837 C843 0.930 . S
C838 H824 0.930 1_455 S
C838 C836 1.395 1_455 S
C838 C841 1.403 . S
C839 C836 1.403 1_455 S
C839 C840 1.524 1_455 S
C839 C843 1.400 . S
C840 H825 0.960 1_655 S
C840 H826 0.960 . S
C840 H827 0.960 . S
C840 C839 1.524 1_655 S
C841 C838 1.403 . S
C841 C842 1.392 . S
C841 C845 1.495 . S
C842 C841 1.392 . S
C842 C843 1.385 . S
C842 C844 1.478 . S
C843 H837 0.930 . S
C843 C839 1.400 . S
C843 C842 1.385 . S
C844 C842 1.478 . S
C844 C846 1.381 . S
C844 C850 1.383 . S
C845 C841 1.495 . S
C845 H851 0.959 . S
C845 H852 0.961 . S
C845 H853 0.960 . S
C846 C844 1.381 . S
C846 C847 1.394 . S
C846 H854 0.930 . S
C847 C846 1.394 . S
C847 C848 1.383 . S
C847 H855 0.929 . S
C848 C847 1.383 . S
C848 C849 1.377 . S
C849 H833 0.930 . S
C849 C848 1.377 . S
C849 C850 1.379 . S
C850 H834 0.931 . S
C850 C844 1.383 . S
C850 C849 1.379 . S
H851 C845 0.959 . S
H852 C845 0.961 . S
H853 C845 0.960 . S
H854 C846 0.930 . S
H855 C847 0.929 . S
H856 C864 0.929 . S
H857 C866 0.930 . S
H858 C868 0.930 . S
H859 C871 0.929 . S
H860 C874 0.930 . S
H861 C876 0.960 . S
H862 C876 0.960 . S
H863 C876 0.960 . S
C864 H856 0.929 . S
C864 C865 1.377 . S
C864 C866 1.384 . S
C865 C864 1.377 . S
C865 C871 1.390 . S
C866 H857 0.930 . S
C866 C864 1.384 . S
C866 C867 1.372 . S
C867 C866 1.372 . S
C867 C868 1.400 . S
C867 C872 1.490 . S
C868 H858 0.930 . S
C868 C867 1.400 . S
C868 C871 1.386 . S
H869 C885 0.930 . S
H870 C886 0.931 . S
C871 H859 0.929 . S
C871 C865 1.390 . S
C871 C868 1.386 . S
C872 C867 1.490 . S
C872 C874 1.395 . S
C872 C875 1.403 . S
H873 C879 0.930 . S
C874 H860 0.930 . S
C874 C872 1.395 . S
C874 C877 1.403 . S
C875 C872 1.403 . S
C875 C876 1.524 . S
C875 C879 1.400 . S
C876 H861 0.960 . S
C876 H862 0.960 . S
C876 H863 0.960 . S
C876 C875 1.524 . S
C877 C874 1.403 . S
C877 C878 1.392 . S
C877 C881 1.495 . S
C878 C877 1.392 . S
C878 C879 1.385 . S
C878 C880 1.478 . S
C879 H873 0.930 . S
C879 C875 1.400 . S
C879 C878 1.385 . S
C880 C878 1.478 . S
C880 C882 1.381 . S
C880 C886 1.383 . S
C881 C877 1.495 . S
C881 H887 0.959 . S
C881 H888 0.961 . S
C881 H889 0.960 . S
C882 C880 1.381 . S
C882 C883 1.394 . S
C882 H890 0.930 . S
C883 C882 1.394 . S
C883 C884 1.383 . S
C883 H891 0.929 . S
C884 C883 1.383 . S
C884 C885 1.377 . S
C885 H869 0.930 . S
C885 C884 1.377 . S
C885 C886 1.379 . S
C886 H870 0.931 . S
C886 C880 1.383 . S
C886 C885 1.379 . S
H887 C881 0.959 . S
H888 C881 0.961 . S
H889 C881 0.960 . S
H890 C882 0.930 . S
H891 C883 0.929 . S
H892 C900 0.929 . S
H893 C902 0.930 . S
H894 C904 0.930 . S
H895 C907 0.929 . S
H896 C910 0.930 . S
H897 C912 0.960 . S
H898 C912 0.960 . S
H899 C912 0.960 . S
C900 H892 0.929 . S
C900 C901 1.377 . S
C900 C902 1.384 . S
C901 C900 1.377 . S
C901 C907 1.390 . S
C902 H893 0.930 . S
C902 C900 1.384 . S
C902 C903 1.372 . S
C903 C902 1.372 . S
C903 C904 1.400 . S
C903 C908 1.490 . S
C904 H894 0.930 . S
C904 C903 1.400 . S
C904 C907 1.386 . S
H905 C921 0.930 . S
H906 C922 0.931 . S
C907 H895 0.929 . S
C907 C901 1.390 . S
C907 C904 1.386 . S
C908 C903 1.490 . S
C908 C910 1.395 . S
C908 C911 1.403 . S
H909 C915 0.930 1_655 S
C910 H896 0.930 . S
C910 C908 1.395 . S
C910 C913 1.403 . S
C911 C908 1.403 . S
C911 C912 1.524 . S
C911 C915 1.400 . S
C912 H897 0.960 . S
C912 H898 0.960 . S
C912 H899 0.960 . S
C912 C911 1.524 . S
C913 C910 1.403 . S
C913 C914 1.392 1_455 S
C913 C917 1.495 1_455 S
C914 C913 1.392 1_655 S
C914 C915 1.385 1_655 S
C914 C916 1.478 . S
C915 H909 0.930 1_455 S
C915 C911 1.400 . S
C915 C914 1.385 1_455 S
C916 C914 1.478 . S
C916 C918 1.381 . S
C916 C922 1.383 . S
C917 C913 1.495 1_655 S
C917 H923 0.959 1_655 S
C917 H924 0.961 . S
C917 H925 0.960 . S
C918 C916 1.381 . S
C918 C919 1.394 . S
C918 H926 0.930 . S
C919 C918 1.394 . S
C919 C920 1.383 . S
C919 H927 0.929 . S
C920 C919 1.383 . S
C920 C921 1.377 . S
C921 H905 0.930 . S
C921 C920 1.377 . S
C921 C922 1.379 . S
C922 H906 0.931 . S
C922 C916 1.383 . S
C922 C921 1.379 . S
H923 C917 0.959 1_455 S
H924 C917 0.961 . S
H925 C917 0.960 . S
H926 C918 0.930 . S
H927 C919 0.929 . S
H928 C936 0.929 . S
H929 C938 0.930 . S
H930 C940 0.930 . S
H931 C943 0.929 . S
H932 C946 0.930 1_455 S
H933 C948 0.960 1_655 S
H934 C948 0.960 . S
H935 C948 0.960 . S
C936 H928 0.929 . S
C936 C937 1.377 . S
C936 C938 1.384 . S
C937 C936 1.377 . S
C937 C943 1.390 . S
C938 H929 0.930 . S
C938 C936 1.384 . S
C938 C939 1.372 . S
C939 C938 1.372 . S
C939 C940 1.400 . S
C939 C944 1.490 . S
C940 H930 0.930 . S
C940 C939 1.400 . S
C940 C943 1.386 . S
H941 C957 0.930 . S
H942 C958 0.931 . S
C943 H931 0.929 . S
C943 C937 1.390 . S
C943 C940 1.386 . S
C944 C939 1.490 . S
C944 C946 1.395 1_455 S
C944 C947 1.403 1_455 S
H945 C951 0.930 . S
C946 H932 0.930 1_655 S
C946 C944 1.395 1_655 S
C946 C949 1.403 . S
C947 C944 1.403 1_655 S
C947 C948 1.524 1_655 S
C947 C951 1.400 . S
C948 H933 0.960 1_455 S
C948 H934 0.960 . S
C948 H935 0.960 . S
C948 C947 1.524 1_455 S
C949 C946 1.403 . S
C949 C950 1.392 . S
C949 C953 1.495 . S
C950 C949 1.392 . S
C950 C951 1.385 . S
C950 C952 1.478 . S
C951 H945 0.930 . S
C951 C947 1.400 . S
C951 C950 1.385 . S
C952 C950 1.478 . S
C952 C954 1.381 . S
C952 C958 1.383 . S
C953 C949 1.495 . S
C953 H959 0.959 . S
C953 H960 0.961 . S
C953 H961 0.960 . S
C954 C952 1.381 . S
C954 C955 1.394 . S
C954 H962 0.930 . S
C955 C954 1.394 . S
C955 C956 1.383 . S
C955 H963 0.929 . S
C956 C955 1.383 . S
C956 C957 1.377 . S
C957 H941 0.930 . S
C957 C956 1.377 . S
C957 C958 1.379 . S
C958 H942 0.931 . S
C958 C952 1.383 . S
C958 C957 1.379 . S
H959 C953 0.959 . S
H960 C953 0.961 . S
H961 C953 0.960 . S
H962 C954 0.930 . S
H963 C955 0.929 . S
H964 C972 0.929 . S
H965 C974 0.930 . S
H966 C976 0.930 . S
H967 C979 0.929 . S
H968 C982 0.930 . S
H969 C984 0.960 . S
H970 C984 0.960 . S
H971 C984 0.960 . S
C972 H964 0.929 . S
C972 C973 1.377 . S
C972 C974 1.384 . S
C973 C972 1.377 . S
C973 C979 1.390 . S
C974 H965 0.930 . S
C974 C972 1.384 . S
C974 C975 1.372 . S
C975 C974 1.372 . S
C975 C976 1.400 . S
C975 C980 1.490 . S
C976 H966 0.930 . S
C976 C975 1.400 . S
C976 C979 1.386 . S
H977 C993 0.930 . S
H978 C994 0.931 . S
C979 H967 0.929 . S
C979 C973 1.390 . S
C979 C976 1.386 . S
C980 C975 1.490 . S
C980 C982 1.395 . S
C980 C983 1.403 . S
H981 C987 0.930 . S
C982 H968 0.930 . S
C982 C980 1.395 . S
C982 C985 1.403 . S
C983 C980 1.403 . S
C983 C984 1.524 . S
C983 C987 1.400 . S
C984 H969 0.960 . S
C984 H970 0.960 . S
C984 H971 0.960 . S
C984 C983 1.524 . S
C985 C982 1.403 . S
C985 C986 1.392 . S
C985 C989 1.495 . S
C986 C985 1.392 . S
C986 C987 1.385 . S
C986 C988 1.478 . S
C987 H981 0.930 . S
C987 C983 1.400 . S
C987 C986 1.385 . S
C988 C986 1.478 . S
C988 C990 1.381 . S
C988 C994 1.383 . S
C989 C985 1.495 . S
C989 H995 0.959 . S
C989 H996 0.961 . S
C989 H997 0.960 . S
C990 C988 1.381 . S
C990 C991 1.394 . S
C990 H998 0.930 . S
C991 C990 1.394 . S
C991 C992 1.383 . S
C991 H999 0.929 . S
C992 C991 1.383 . S
C992 C993 1.377 . S
C993 H977 0.930 . S
C993 C992 1.377 . S
C993 C994 1.379 . S
C994 H978 0.931 . S
C994 C988 1.383 . S
C994 C993 1.379 . S
H995 C989 0.959 . S
H996 C989 0.961 . S
H997 C989 0.960 . S
H998 C990 0.930 . S
H999 C991 0.929 . S
H1000 C1008 0.929 . S
H1001 C1010 0.930 . S
H1002 C1012 0.930 . S
H1003 C1015 0.929 . S
H1004 C1018 0.930 1_455 S
H1005 C1020 0.960 1_655 S
H1006 C1020 0.960 . S
H1007 C1020 0.960 . S
C1008 H1000 0.929 . S
C1008 C1009 1.377 . S
C1008 C1010 1.384 . S
C1009 C1008 1.377 . S
C1009 C1015 1.390 . S
C1010 H1001 0.930 . S
C1010 C1008 1.384 . S
C1010 C1011 1.372 . S
C1011 C1010 1.372 . S
C1011 C1012 1.400 . S
C1011 C1016 1.490 . S
C1012 H1002 0.930 . S
C1012 C1011 1.400 . S
C1012 C1015 1.386 . S
H1013 C1029 0.930 . S
H1014 C1030 0.931 . S
C1015 H1003 0.929 . S
C1015 C1009 1.390 . S
C1015 C1012 1.386 . S
C1016 C1011 1.490 . S
C1016 C1018 1.395 1_455 S
C1016 C1019 1.403 1_455 S
H1017 C1023 0.930 . S
C1018 H1004 0.930 1_655 S
C1018 C1016 1.395 1_655 S
C1018 C1021 1.403 . S
C1019 C1016 1.403 1_655 S
C1019 C1020 1.524 1_655 S
C1019 C1023 1.400 . S
C1020 H1005 0.960 1_455 S
C1020 H1006 0.960 . S
C1020 H1007 0.960 . S
C1020 C1019 1.524 1_455 S
C1021 C1018 1.403 . S
C1021 C1022 1.392 . S
C1021 C1025 1.495 . S
C1022 C1021 1.392 . S
C1022 C1023 1.385 . S
C1022 C1024 1.478 . S
C1023 H1017 0.930 . S
C1023 C1019 1.400 . S
C1023 C1022 1.385 . S
C1024 C1022 1.478 . S
C1024 C1026 1.381 . S
C1024 C1030 1.383 . S
C1025 C1021 1.495 . S
C1025 H1031 0.959 . S
C1025 H1032 0.961 . S
C1025 H1033 0.960 . S
C1026 C1024 1.381 . S
C1026 C1027 1.394 . S
C1026 H1034 0.930 . S
C1027 C1026 1.394 . S
C1027 C1028 1.383 . S
C1027 H1035 0.929 . S
C1028 C1027 1.383 . S
C1028 C1029 1.377 . S
C1029 H1013 0.930 . S
C1029 C1028 1.377 . S
C1029 C1030 1.379 . S
C1030 H1014 0.931 . S
C1030 C1024 1.383 . S
C1030 C1029 1.379 . S
H1031 C1025 0.959 . S
H1032 C1025 0.961 . S
H1033 C1025 0.960 . S
H1034 C1026 0.930 . S
H1035 C1027 0.929 . S
H1036 C1044 0.929 . S
H1037 C1046 0.930 . S
H1038 C1048 0.930 . S
H1039 C1051 0.929 . S
H1040 C1054 0.930 . S
H1041 C1056 0.960 . S
H1042 C1056 0.960 . S
H1043 C1056 0.960 . S
C1044 H1036 0.929 . S
C1044 C1045 1.377 . S
C1044 C1046 1.384 . S
C1045 C1044 1.377 . S
C1045 C1051 1.390 . S
C1046 H1037 0.930 . S
C1046 C1044 1.384 . S
C1046 C1047 1.372 . S
C1047 C1046 1.372 . S
C1047 C1048 1.400 . S
C1047 C1052 1.490 . S
C1048 H1038 0.930 . S
C1048 C1047 1.400 . S
C1048 C1051 1.386 . S
H1049 C1065 0.930 . S
H1050 C1066 0.931 . S
C1051 H1039 0.929 . S
C1051 C1045 1.390 . S
C1051 C1048 1.386 . S
C1052 C1047 1.490 . S
C1052 C1054 1.395 . S
C1052 C1055 1.403 . S
H1053 C1059 0.930 . S
C1054 H1040 0.930 . S
C1054 C1052 1.395 . S
C1054 C1057 1.403 . S
C1055 C1052 1.403 . S
C1055 C1056 1.524 . S
C1055 C1059 1.400 . S
C1056 H1041 0.960 . S
C1056 H1042 0.960 . S
C1056 H1043 0.960 . S
C1056 C1055 1.524 . S
C1057 C1054 1.403 . S
C1057 C1058 1.392 . S
C1057 C1061 1.495 . S
C1058 C1057 1.392 . S
C1058 C1059 1.385 . S
C1058 C1060 1.478 . S
C1059 H1053 0.930 . S
C1059 C1055 1.400 . S
C1059 C1058 1.385 . S
C1060 C1058 1.478 . S
C1060 C1062 1.381 . S
C1060 C1066 1.383 . S
C1061 C1057 1.495 . S
C1061 H1067 0.959 . S
C1061 H1068 0.961 . S
C1061 H1069 0.960 . S
C1062 C1060 1.381 . S
C1062 C1063 1.394 . S
C1062 H1070 0.930 . S
C1063 C1062 1.394 . S
C1063 C1064 1.383 . S
C1063 H1071 0.929 . S
C1064 C1063 1.383 . S
C1064 C1065 1.377 . S
C1065 H1049 0.930 . S
C1065 C1064 1.377 . S
C1065 C1066 1.379 . S
C1066 H1050 0.931 . S
C1066 C1060 1.383 . S
C1066 C1065 1.379 . S
H1067 C1061 0.959 . S
H1068 C1061 0.961 . S
H1069 C1061 0.960 . S
H1070 C1062 0.930 . S
H1071 C1063 0.929 . S
H1072 C1080 0.929 . S
H1073 C1082 0.930 . S
H1074 C1084 0.930 . S
H1075 C1087 0.929 . S
H1076 C1090 0.930 . S
H1077 C1092 0.960 . S
H1078 C1092 0.960 . S
H1079 C1092 0.960 . S
C1080 H1072 0.929 . S
C1080 C1081 1.377 . S
C1080 C1082 1.384 . S
C1081 C1080 1.377 . S
C1081 C1087 1.390 . S
C1082 H1073 0.930 . S
C1082 C1080 1.384 . S
C1082 C1083 1.372 . S
C1083 C1082 1.372 . S
C1083 C1084 1.400 . S
C1083 C1088 1.490 . S
C1084 H1074 0.930 . S
C1084 C1083 1.400 . S
C1084 C1087 1.386 . S
H1085 C1101 0.930 . S
H1086 C1102 0.931 . S
C1087 H1075 0.929 . S
C1087 C1081 1.390 . S
C1087 C1084 1.386 . S
C1088 C1083 1.490 . S
C1088 C1090 1.395 . S
C1088 C1091 1.403 . S
H1089 C1095 0.930 . S
C1090 H1076 0.930 . S
C1090 C1088 1.395 . S
C1090 C1093 1.403 . S
C1091 C1088 1.403 . S
C1091 C1092 1.524 . S
C1091 C1095 1.400 . S
C1092 H1077 0.960 . S
C1092 H1078 0.960 . S
C1092 H1079 0.960 . S
C1092 C1091 1.524 . S
C1093 C1090 1.403 . S
C1093 C1094 1.392 . S
C1093 C1097 1.495 . S
C1094 C1093 1.392 . S
C1094 C1095 1.385 . S
C1094 C1096 1.478 . S
C1095 H1089 0.930 . S
C1095 C1091 1.400 . S
C1095 C1094 1.385 . S
C1096 C1094 1.478 . S
C1096 C1098 1.381 . S
C1096 C1102 1.383 . S
C1097 C1093 1.495 . S
C1097 H1103 0.959 . S
C1097 H1104 0.961 . S
C1097 H1105 0.960 . S
C1098 C1096 1.381 . S
C1098 C1099 1.394 . S
C1098 H1106 0.930 . S
C1099 C1098 1.394 . S
C1099 C1100 1.383 . S
C1099 H1107 0.929 . S
C1100 C1099 1.383 . S
C1100 C1101 1.377 . S
C1101 H1085 0.930 . S
C1101 C1100 1.377 . S
C1101 C1102 1.379 . S
C1102 H1086 0.931 . S
C1102 C1096 1.383 . S
C1102 C1101 1.379 . S
H1103 C1097 0.959 . S
H1104 C1097 0.961 . S
H1105 C1097 0.960 . S
H1106 C1098 0.930 . S
H1107 C1099 0.929 . S
H1108 C1116 0.929 . S
H1109 C1118 0.930 . S
H1110 C1120 0.930 . S
H1111 C1123 0.929 . S
H1112 C1126 0.930 . S
H1113 C1128 0.960 . S
H1114 C1128 0.960 . S
H1115 C1128 0.960 . S
C1116 H1108 0.929 . S
C1116 C1117 1.377 . S
C1116 C1118 1.384 . S
C1117 C1116 1.377 . S
C1117 C1123 1.390 . S
C1118 H1109 0.930 . S
C1118 C1116 1.384 . S
C1118 C1119 1.372 . S
C1119 C1118 1.372 . S
C1119 C1120 1.400 . S
C1119 C1124 1.490 . S
C1120 H1110 0.930 . S
C1120 C1119 1.400 . S
C1120 C1123 1.386 . S
H1121 C1137 0.930 . S
H1122 C1138 0.931 . S
C1123 H1111 0.929 . S
C1123 C1117 1.390 . S
C1123 C1120 1.386 . S
C1124 C1119 1.490 . S
C1124 C1126 1.395 . S
C1124 C1127 1.403 . S
H1125 C1131 0.930 . S
C1126 H1112 0.930 . S
C1126 C1124 1.395 . S
C1126 C1129 1.403 . S
C1127 C1124 1.403 . S
C1127 C1128 1.524 . S
C1127 C1131 1.400 . S
C1128 H1113 0.960 . S
C1128 H1114 0.960 . S
C1128 H1115 0.960 . S
C1128 C1127 1.524 . S
C1129 C1126 1.403 . S
C1129 C1130 1.392 . S
C1129 C1133 1.495 . S
C1130 C1129 1.392 . S
C1130 C1131 1.385 . S
C1130 C1132 1.478 . S
C1131 H1125 0.930 . S
C1131 C1127 1.400 . S
C1131 C1130 1.385 . S
C1132 C1130 1.478 . S
C1132 C1134 1.381 . S
C1132 C1138 1.383 . S
C1133 C1129 1.495 . S
C1133 H1139 0.959 . S
C1133 H1140 0.961 . S
C1133 H1141 0.960 . S
C1134 C1132 1.381 . S
C1134 C1135 1.394 . S
C1134 H1142 0.930 . S
C1135 C1134 1.394 . S
C1135 C1136 1.383 . S
C1135 H1143 0.929 . S
C1136 C1135 1.383 . S
C1136 C1137 1.377 . S
C1137 H1121 0.930 . S
C1137 C1136 1.377 . S
C1137 C1138 1.379 . S
C1138 H1122 0.931 . S
C1138 C1132 1.383 . S
C1138 C1137 1.379 . S
H1139 C1133 0.959 . S
H1140 C1133 0.961 . S
H1141 C1133 0.960 . S
H1142 C1134 0.930 . S
H1143 C1135 0.929 . S
H1144 C1152 0.929 . S
H1145 C1154 0.930 . S
H1146 C1156 0.930 . S
H1147 C1159 0.929 . S
H1148 C1162 0.930 . S
H1149 C1164 0.960 . S
H1150 C1164 0.960 . S
H1151 C1164 0.960 . S
C1152 H1144 0.929 . S
C1152 C1153 1.377 . S
C1152 C1154 1.384 . S
C1153 C1152 1.377 . S
C1153 C1159 1.390 . S
C1154 H1145 0.930 . S
C1154 C1152 1.384 . S
C1154 C1155 1.372 . S
C1155 C1154 1.372 . S
C1155 C1156 1.400 . S
C1155 C1160 1.490 . S
C1156 H1146 0.930 . S
C1156 C1155 1.400 . S
C1156 C1159 1.386 . S
H1157 C1173 0.930 . S
H1158 C1174 0.931 . S
C1159 H1147 0.929 . S
C1159 C1153 1.390 . S
C1159 C1156 1.386 . S
C1160 C1155 1.490 . S
C1160 C1162 1.395 . S
C1160 C1163 1.403 . S
H1161 C1167 0.930 . S
C1162 H1148 0.930 . S
C1162 C1160 1.395 . S
C1162 C1165 1.403 . S
C1163 C1160 1.403 . S
C1163 C1164 1.524 . S
C1163 C1167 1.400 . S
C1164 H1149 0.960 . S
C1164 H1150 0.960 . S
C1164 H1151 0.960 . S
C1164 C1163 1.524 . S
C1165 C1162 1.403 . S
C1165 C1166 1.392 . S
C1165 C1169 1.495 . S
C1166 C1165 1.392 . S
C1166 C1167 1.385 . S
C1166 C1168 1.478 . S
C1167 H1161 0.930 . S
C1167 C1163 1.400 . S
C1167 C1166 1.385 . S
C1168 C1166 1.478 . S
C1168 C1170 1.381 . S
C1168 C1174 1.383 . S
C1169 C1165 1.495 . S
C1169 H1175 0.959 . S
C1169 H1176 0.961 . S
C1169 H1177 0.960 . S
C1170 C1168 1.381 . S
C1170 C1171 1.394 . S
C1170 H1178 0.930 . S
C1171 C1170 1.394 . S
C1171 C1172 1.383 . S
C1171 H1179 0.929 . S
C1172 C1171 1.383 . S
C1172 C1173 1.377 . S
C1173 H1157 0.930 . S
C1173 C1172 1.377 . S
C1173 C1174 1.379 . S
C1174 H1158 0.931 . S
C1174 C1168 1.383 . S
C1174 C1173 1.379 . S
H1175 C1169 0.959 . S
H1176 C1169 0.961 . S
H1177 C1169 0.960 . S
H1178 C1170 0.930 . S
H1179 C1171 0.929 . S
H1180 C1188 0.929 . S
H1181 C1190 0.930 . S
H1182 C1192 0.930 . S
H1183 C1195 0.929 . S
H1184 C1198 0.930 . S
H1185 C1200 0.960 . S
H1186 C1200 0.960 . S
H1187 C1200 0.960 . S
C1188 H1180 0.929 . S
C1188 C1189 1.377 . S
C1188 C1190 1.384 . S
C1189 C1188 1.377 . S
C1189 C1195 1.390 . S
C1190 H1181 0.930 . S
C1190 C1188 1.384 . S
C1190 C1191 1.372 . S
C1191 C1190 1.372 . S
C1191 C1192 1.400 . S
C1191 C1196 1.490 . S
C1192 H1182 0.930 . S
C1192 C1191 1.400 . S
C1192 C1195 1.386 . S
H1193 C1209 0.930 . S
H1194 C1210 0.931 . S
C1195 H1183 0.929 . S
C1195 C1189 1.390 . S
C1195 C1192 1.386 . S
C1196 C1191 1.490 . S
C1196 C1198 1.395 . S
C1196 C1199 1.403 . S
H1197 C1203 0.930 . S
C1198 H1184 0.930 . S
C1198 C1196 1.395 . S
C1198 C1201 1.403 . S
C1199 C1196 1.403 . S
C1199 C1200 1.524 . S
C1199 C1203 1.400 . S
C1200 H1185 0.960 . S
C1200 H1186 0.960 . S
C1200 H1187 0.960 . S
C1200 C1199 1.524 . S
C1201 C1198 1.403 . S
C1201 C1202 1.392 . S
C1201 C1205 1.495 . S
C1202 C1201 1.392 . S
C1202 C1203 1.385 . S
C1202 C1204 1.478 . S
C1203 H1197 0.930 . S
C1203 C1199 1.400 . S
C1203 C1202 1.385 . S
C1204 C1202 1.478 . S
C1204 C1206 1.381 . S
C1204 C1210 1.383 . S
C1205 C1201 1.495 . S
C1205 H1211 0.959 . S
C1205 H1212 0.961 . S
C1205 H1213 0.960 . S
C1206 C1204 1.381 . S
C1206 C1207 1.394 . S
C1206 H1214 0.930 . S
C1207 C1206 1.394 . S
C1207 C1208 1.383 . S
C1207 H1215 0.929 . S
C1208 C1207 1.383 . S
C1208 C1209 1.377 . S
C1209 H1193 0.930 . S
C1209 C1208 1.377 . S
C1209 C1210 1.379 . S
C1210 H1194 0.931 . S
C1210 C1204 1.383 . S
C1210 C1209 1.379 . S
H1211 C1205 0.959 . S
H1212 C1205 0.961 . S
H1213 C1205 0.960 . S
H1214 C1206 0.930 . S
H1215 C1207 0.929 . S
H1216 C1224 0.929 . S
H1217 C1226 0.930 . S
H1218 C1228 0.930 . S
H1219 C1231 0.929 . S
H1220 C1234 0.930 . S
H1221 C1236 0.960 . S
H1222 C1236 0.960 . S
H1223 C1236 0.960 . S
C1224 H1216 0.929 . S
C1224 C1225 1.377 . S
C1224 C1226 1.384 . S
C1225 C1224 1.377 . S
C1225 C1231 1.390 . S
C1226 H1217 0.930 . S
C1226 C1224 1.384 . S
C1226 C1227 1.372 . S
C1227 C1226 1.372 . S
C1227 C1228 1.400 . S
C1227 C1232 1.490 . S
C1228 H1218 0.930 . S
C1228 C1227 1.400 . S
C1228 C1231 1.386 . S
H1229 C1245 0.930 . S
H1230 C1246 0.931 . S
C1231 H1219 0.929 . S
C1231 C1225 1.390 . S
C1231 C1228 1.386 . S
C1232 C1227 1.490 . S
C1232 C1234 1.395 . S
C1232 C1235 1.403 . S
H1233 C1239 0.930 . S
C1234 H1220 0.930 . S
C1234 C1232 1.395 . S
C1234 C1237 1.403 . S
C1235 C1232 1.403 . S
C1235 C1236 1.524 . S
C1235 C1239 1.400 . S
C1236 H1221 0.960 . S
C1236 H1222 0.960 . S
C1236 H1223 0.960 . S
C1236 C1235 1.524 . S
C1237 C1234 1.403 . S
C1237 C1238 1.392 . S
C1237 C1241 1.495 . S
C1238 C1237 1.392 . S
C1238 C1239 1.385 . S
C1238 C1240 1.478 . S
C1239 H1233 0.930 . S
C1239 C1235 1.400 . S
C1239 C1238 1.385 . S
C1240 C1238 1.478 . S
C1240 C1242 1.381 . S
C1240 C1246 1.383 . S
C1241 C1237 1.495 . S
C1241 H1247 0.959 . S
C1241 H1248 0.961 . S
C1241 H1249 0.960 . S
C1242 C1240 1.381 . S
C1242 C1243 1.394 . S
C1242 H1250 0.930 . S
C1243 C1242 1.394 . S
C1243 C1244 1.383 . S
C1243 H1251 0.929 . S
C1244 C1243 1.383 . S
C1244 C1245 1.377 . S
C1245 H1229 0.930 . S
C1245 C1244 1.377 . S
C1245 C1246 1.379 . S
C1246 H1230 0.931 . S
C1246 C1240 1.383 . S
C1246 C1245 1.379 . S
H1247 C1241 0.959 . S
H1248 C1241 0.961 . S
H1249 C1241 0.960 . S
H1250 C1242 0.930 . S
H1251 C1243 0.929 . S
H1252 C1260 0.929 . S
H1253 C1262 0.930 . S
H1254 C1264 0.930 . S
H1255 C1267 0.929 . S
H1256 C1270 0.930 . S
H1257 C1272 0.960 . S
H1258 C1272 0.960 . S
H1259 C1272 0.960 . S
C1260 H1252 0.929 . S
C1260 C1261 1.377 . S
C1260 C1262 1.384 . S
C1261 C1260 1.377 . S
C1261 C1267 1.390 . S
C1262 H1253 0.930 . S
C1262 C1260 1.384 . S
C1262 C1263 1.372 . S
C1263 C1262 1.372 . S
C1263 C1264 1.400 . S
C1263 C1268 1.490 . S
C1264 H1254 0.930 . S
C1264 C1263 1.400 . S
C1264 C1267 1.386 . S
H1265 C1281 0.930 . S
H1266 C1282 0.931 . S
C1267 H1255 0.929 . S
C1267 C1261 1.390 . S
C1267 C1264 1.386 . S
C1268 C1263 1.490 . S
C1268 C1270 1.395 . S
C1268 C1271 1.403 . S
H1269 C1275 0.930 . S
C1270 H1256 0.930 . S
C1270 C1268 1.395 . S
C1270 C1273 1.403 . S
C1271 C1268 1.403 . S
C1271 C1272 1.524 . S
C1271 C1275 1.400 . S
C1272 H1257 0.960 . S
C1272 H1258 0.960 . S
C1272 H1259 0.960 . S
C1272 C1271 1.524 . S
C1273 C1270 1.403 . S
C1273 C1274 1.392 . S
C1273 C1277 1.495 . S
C1274 C1273 1.392 . S
C1274 C1275 1.385 . S
C1274 C1276 1.478 . S
C1275 H1269 0.930 . S
C1275 C1271 1.400 . S
C1275 C1274 1.385 . S
C1276 C1274 1.478 . S
C1276 C1278 1.381 . S
C1276 C1282 1.383 . S
C1277 C1273 1.495 . S
C1277 H1283 0.959 . S
C1277 H1284 0.961 . S
C1277 H1285 0.960 . S
C1278 C1276 1.381 . S
C1278 C1279 1.394 . S
C1278 H1286 0.930 . S
C1279 C1278 1.394 . S
C1279 C1280 1.383 . S
C1279 H1287 0.929 . S
C1280 C1279 1.383 . S
C1280 C1281 1.377 . S
C1281 H1265 0.930 . S
C1281 C1280 1.377 . S
C1281 C1282 1.379 . S
C1282 H1266 0.931 . S
C1282 C1276 1.383 . S
C1282 C1281 1.379 . S
H1283 C1277 0.959 . S
H1284 C1277 0.961 . S
H1285 C1277 0.960 . S
H1286 C1278 0.930 . S
H1287 C1279 0.929 . S
H1288 C1296 0.929 . S
H1289 C1298 0.930 . S
H1290 C1300 0.930 . S
H1291 C1303 0.929 . S
H1292 C1306 0.930 . S
H1293 C1308 0.960 . S
H1294 C1308 0.960 . S
H1295 C1308 0.960 . S
C1296 H1288 0.929 . S
C1296 C1297 1.377 . S
C1296 C1298 1.384 . S
C1297 C1296 1.377 . S
C1297 C1303 1.390 . S
C1298 H1289 0.930 . S
C1298 C1296 1.384 . S
C1298 C1299 1.372 . S
C1299 C1298 1.372 . S
C1299 C1300 1.400 . S
C1299 C1304 1.490 . S
C1300 H1290 0.930 . S
C1300 C1299 1.400 . S
C1300 C1303 1.386 . S
H1301 C1317 0.930 . S
H1302 C1318 0.931 . S
C1303 H1291 0.929 . S
C1303 C1297 1.390 . S
C1303 C1300 1.386 . S
C1304 C1299 1.490 . S
C1304 C1306 1.395 . S
C1304 C1307 1.403 . S
H1305 C1311 0.930 . S
C1306 H1292 0.930 . S
C1306 C1304 1.395 . S
C1306 C1309 1.403 . S
C1307 C1304 1.403 . S
C1307 C1308 1.524 . S
C1307 C1311 1.400 . S
C1308 H1293 0.960 . S
C1308 H1294 0.960 . S
C1308 H1295 0.960 . S
C1308 C1307 1.524 . S
C1309 C1306 1.403 . S
C1309 C1310 1.392 . S
C1309 C1313 1.495 . S
C1310 C1309 1.392 . S
C1310 C1311 1.385 . S
C1310 C1312 1.478 . S
C1311 H1305 0.930 . S
C1311 C1307 1.400 . S
C1311 C1310 1.385 . S
C1312 C1310 1.478 . S
C1312 C1314 1.381 . S
C1312 C1318 1.383 . S
C1313 C1309 1.495 . S
C1313 H1319 0.959 . S
C1313 H1320 0.961 . S
C1313 H1321 0.960 . S
C1314 C1312 1.381 . S
C1314 C1315 1.394 . S
C1314 H1322 0.930 . S
C1315 C1314 1.394 . S
C1315 C1316 1.383 . S
C1315 H1323 0.929 . S
C1316 C1315 1.383 . S
C1316 C1317 1.377 . S
C1317 H1301 0.930 . S
C1317 C1316 1.377 . S
C1317 C1318 1.379 . S
C1318 H1302 0.931 . S
C1318 C1312 1.383 . S
C1318 C1317 1.379 . S
H1319 C1313 0.959 . S
H1320 C1313 0.961 . S
H1321 C1313 0.960 . S
H1322 C1314 0.930 . S
H1323 C1315 0.929 . S
H1324 C1332 0.929 . S
H1325 C1334 0.930 . S
H1326 C1336 0.930 . S
H1327 C1339 0.929 . S
H1328 C1342 0.930 . S
H1329 C1344 0.960 . S
H1330 C1344 0.960 . S
H1331 C1344 0.960 . S
C1332 H1324 0.929 . S
C1332 C1333 1.377 . S
C1332 C1334 1.384 . S
C1333 C1332 1.377 . S
C1333 C1339 1.390 . S
C1334 H1325 0.930 . S
C1334 C1332 1.384 . S
C1334 C1335 1.372 . S
C1335 C1334 1.372 . S
C1335 C1336 1.400 . S
C1335 C1340 1.490 . S
C1336 H1326 0.930 . S
C1336 C1335 1.400 . S
C1336 C1339 1.386 . S
H1337 C1353 0.930 . S
H1338 C1354 0.931 . S
C1339 H1327 0.929 . S
C1339 C1333 1.390 . S
C1339 C1336 1.386 . S
C1340 C1335 1.490 . S
C1340 C1342 1.395 . S
C1340 C1343 1.403 . S
H1341 C1347 0.930 . S
C1342 H1328 0.930 . S
C1342 C1340 1.395 . S
C1342 C1345 1.403 . S
C1343 C1340 1.403 . S
C1343 C1344 1.524 . S
C1343 C1347 1.400 . S
C1344 H1329 0.960 . S
C1344 H1330 0.960 . S
C1344 H1331 0.960 . S
C1344 C1343 1.524 . S
C1345 C1342 1.403 . S
C1345 C1346 1.392 . S
C1345 C1349 1.495 . S
C1346 C1345 1.392 . S
C1346 C1347 1.385 . S
C1346 C1348 1.478 . S
C1347 H1341 0.930 . S
C1347 C1343 1.400 . S
C1347 C1346 1.385 . S
C1348 C1346 1.478 . S
C1348 C1350 1.381 . S
C1348 C1354 1.383 . S
C1349 C1345 1.495 . S
C1349 H1355 0.959 . S
C1349 H1356 0.961 . S
C1349 H1357 0.960 . S
C1350 C1348 1.381 . S
C1350 C1351 1.394 . S
C1350 H1358 0.930 . S
C1351 C1350 1.394 . S
C1351 C1352 1.383 . S
C1351 H1359 0.929 . S
C1352 C1351 1.383 . S
C1352 C1353 1.377 . S
C1353 H1337 0.930 . S
C1353 C1352 1.377 . S
C1353 C1354 1.379 . S
C1354 H1338 0.931 . S
C1354 C1348 1.383 . S
C1354 C1353 1.379 . S
H1355 C1349 0.959 . S
H1356 C1349 0.961 . S
H1357 C1349 0.960 . S
H1358 C1350 0.930 . S
H1359 C1351 0.929 . S
C217 C4 1.646 . S
C236 C166 1.643 . S
C253 C173 1.639 . S
C272 C23 1.645 . S
C289 C36 1.645 . S
C308 C192 1.645 . S
C325 C199 1.637 . S
C344 C43 1.642 . S
C361 C108 1.646 . S
C380 C62 1.644 . S
C397 C69 1.636 . S
C416 C121 1.647 . S
C433 C140 1.647 . S
C452 C88 1.636 . S
C469 C101 1.638 . S
C488 C153 1.647 . S
C505 C3 1.617 . S
C524 C31 1.607 . S
C541 C18 1.612 . S
C560 C42 1.609 . S
C577 C55 1.671 . S
C596 C81 1.669 . S
C613 C70 1.671 . S
C632 C94 1.669 . S
C649 C135 1.612 . S
C668 C107 1.603 . S
C685 C120 1.612 . S
C704 C148 1.602 . S
C721 C185 1.668 . S
C740 C159 1.662 . S
C757 C174 1.671 . S
C776 C200 1.667 . S
C793 C83 1.477 . S
C812 C5 1.479 . S
C829 C96 1.477 . S
C848 C16 1.469 . S
C865 C29 1.478 . S
C884 C57 1.465 . S
C901 C44 1.478 . S
C920 C68 1.465 . S
C937 C187 1.475 . S
C956 C109 1.473 . S
C973 C122 1.479 . S
C992 C198 1.467 . S
C1009 C161 1.478 . S
C1028 C133 1.470 . S
C1045 C146 1.478 . S
C1064 C172 1.465 . S
C1081 C10 1.435 . S
C1100 C49 1.441 . S
C1117 C30 1.431 . S
C1136 C17 1.428 . S
C1153 C56 1.803 . S
C1172 C95 1.799 . S
C1189 C75 1.803 . S
C1208 C82 1.797 . S
C1225 C147 1.431 . S
C1244 C114 1.429 . S
C1261 C127 1.434 . S
C1280 C134 1.425 . S
C1297 C205 1.803 . S
C1316 C160 1.798 . S
C1333 C179 1.802 . S
C1352 C186 1.802 . S
