# Generated by pormake.
# Topology snk, (6)-cn, num edge types: 1
# Building blocks:
#     Node 0, Type 0, BuildingBlock: GEDQOX_clean_sbu_0, # of connection points: 6
#     Node 1, Type 0, BuildingBlock: GEDQOX_clean_sbu_0, # of connection points: 6
#     Node 2, Type 0, BuildingBlock: GEDQOX_clean_sbu_0, # of connection points: 6
#     Node 3, Type 0, BuildingBlock: GEDQOX_clean_sbu_0, # of connection points: 6
#     Node 4, Type 0, BuildingBlock: GEDQOX_clean_sbu_0, # of connection points: 6
#     Node 5, Type 0, BuildingBlock: GEDQOX_clean_sbu_0, # of connection points: 6
#     Node 6, Type 0, BuildingBlock: GEDQOX_clean_sbu_0, # of connection points: 6
#     Node 7, Type 0, BuildingBlock: GEDQOX_clean_sbu_0, # of connection points: 6
#     Edge 8, Type (0, 0), BuildingBlock: UVAHIK_clean_linker_0, # of connection points: 2
#     Edge 9, Type (0, 0), BuildingBlock: UVAHIK_clean_linker_0, # of connection points: 2
#     Edge 10, Type (0, 0), BuildingBlock: UVAHIK_clean_linker_0, # of connection points: 2
#     Edge 11, Type (0, 0), BuildingBlock: UVAHIK_clean_linker_0, # of connection points: 2
#     Edge 12, Type (0, 0), BuildingBlock: UVAHIK_clean_linker_0, # of connection points: 2
#     Edge 13, Type (0, 0), BuildingBlock: UVAHIK_clean_linker_0, # of connection points: 2
#     Edge 14, Type (0, 0), BuildingBlock: UVAHIK_clean_linker_0, # of connection points: 2
#     Edge 15, Type (0, 0), BuildingBlock: UVAHIK_clean_linker_0, # of connection points: 2
#     Edge 16, Type (0, 0), BuildingBlock: UVAHIK_clean_linker_0, # of connection points: 2
#     Edge 17, Type (0, 0), BuildingBlock: UVAHIK_clean_linker_0, # of connection points: 2
#     Edge 18, Type (0, 0), BuildingBlock: UVAHIK_clean_linker_0, # of connection points: 2
#     Edge 19, Type (0, 0), BuildingBlock: UVAHIK_clean_linker_0, # of connection points: 2
#     Edge 20, Type (0, 0), BuildingBlock: UVAHIK_clean_linker_0, # of connection points: 2
#     Edge 21, Type (0, 0), BuildingBlock: UVAHIK_clean_linker_0, # of connection points: 2
#     Edge 22, Type (0, 0), BuildingBlock: UVAHIK_clean_linker_0, # of connection points: 2
#     Edge 23, Type (0, 0), BuildingBlock: UVAHIK_clean_linker_0, # of connection points: 2
#     Edge 24, Type (0, 0), BuildingBlock: UVAHIK_clean_linker_0, # of connection points: 2
#     Edge 25, Type (0, 0), BuildingBlock: UVAHIK_clean_linker_0, # of connection points: 2
#     Edge 26, Type (0, 0), BuildingBlock: UVAHIK_clean_linker_0, # of connection points: 2
#     Edge 27, Type (0, 0), BuildingBlock: UVAHIK_clean_linker_0, # of connection points: 2
#     Edge 28, Type (0, 0), BuildingBlock: UVAHIK_clean_linker_0, # of connection points: 2
#     Edge 29, Type (0, 0), BuildingBlock: UVAHIK_clean_linker_0, # of connection points: 2
#     Edge 30, Type (0, 0), BuildingBlock: UVAHIK_clean_linker_0, # of connection points: 2
#     Edge 31, Type (0, 0), BuildingBlock: UVAHIK_clean_linker_0, # of connection points: 2
# Relax obj value: 0.117
# Max RMSD: 0.181
# Mean RMSD: 0.181
data_MOF--net-snk--node1-GEDQOX_clean_sbu_0--edge1-UVAHIK_clean_linker_0
_symmetry_space_group_name_H-M    P1
_symmetry_Int_Tables_number       1
_symmetry_cell_setting            triclinic
loop_
_symmetry_equiv_pos_as_xyz
'x, y, z'
_cell_length_a     68.970626
_cell_length_b     69.066954
_cell_length_c     20.150753
_cell_angle_alpha  89.87785
_cell_angle_beta   89.797691
_cell_angle_gamma 89.979255
loop_
_atom_site_label
_atom_site_type_symbol
_atom_site_fract_x
_atom_site_fract_y
_atom_site_fract_z
_atom_type_partial_charge
Nd0 Nd 0.02088 0.02643 0.52028 0.0
Nd1 Nd 0.99695 0.99027 0.51283 0.0
C2 C 0.0374 0.06112 0.50859 0.0
C3 C 0.05321 0.07231 0.47635 0.0
C4 C 0.04977 0.09156 0.45734 0.0
C5 C 0.06491 0.10327 0.43378 0.0
C6 C 0.08395 0.09602 0.42877 0.0
C7 C 0.08723 0.07649 0.44599 0.0
C8 C 0.07205 0.06477 0.46951 0.0
C9 C 0.04196 0.99286 0.53988 0.0
C10 C 0.01373 1.00604 0.37502 0.0
C11 C 0.98082 0.95534 0.52267 0.0
C12 C 0.96587 0.94318 0.55504 0.0
C13 C 0.96655 0.92309 0.54551 0.0
C14 C 0.95174 0.91115 0.56987 0.0
C15 C 0.93586 0.91901 0.60459 0.0
C16 C 0.9355 0.93917 0.61586 0.0
C17 C 0.95033 0.95116 0.59101 0.0
C18 C 0.9759 0.02386 0.49272 0.0
C19 C 1.00383 0.0108 0.65797 0.0
O20 O 0.02271 0.05561 0.47241 0.0
O21 O 0.0423 0.04824 0.55303 0.0
O22 O 0.04495 0.00892 0.57108 0.0
O23 O 0.02894 0.99502 0.49659 0.0
O24 O 0.01676 0.02237 0.40735 0.0
O25 O 0.00943 0.98998 0.4074 0.0
O26 O 0.99592 0.96064 0.55729 0.0
O27 O 0.97484 0.96883 0.48216 0.0
O28 O 0.97296 1.00776 0.46169 0.0
O29 O 0.98885 0.02172 0.5363 0.0
O30 O 1.00082 0.99443 0.6258 0.0
O31 O 1.00818 0.02683 0.62545 0.0
H32 H 0.03541 0.09776 0.46265 0.0
H33 H 0.06179 0.11824 0.42182 0.0
H34 H 0.10159 0.07026 0.44182 0.0
H35 H 0.07513 0.04995 0.48368 0.0
H36 H 0.97839 0.91662 0.51786 0.0
H37 H 0.95271 0.89571 0.56116 0.0
H38 H 0.92345 0.94574 0.64204 0.0
H39 H 0.94947 0.96666 0.59865 0.0
Nd40 Nd 0.24164 0.77093 0.77033 0.0
Nd41 Nd 0.27789 0.74719 0.76249 0.0
C42 C 0.20676 0.78712 0.75957 0.0
C43 C 0.19468 0.80188 0.72577 0.0
C44 C 0.17518 0.79761 0.71263 0.0
C45 C 0.1626 0.81193 0.68888 0.0
C46 C 0.16919 0.83095 0.67767 0.0
C47 C 0.18897 0.83502 0.68834 0.0
C48 C 0.20157 0.82065 0.71234 0.0
C49 C 0.27515 0.79202 0.79032 0.0
C50 C 0.26235 0.76408 0.62491 0.0
C51 C 0.3127 0.73089 0.77433 0.0
C52 C 0.32386 0.71531 0.80753 0.0
C53 C 0.34329 0.71868 0.82446 0.0
C54 C 0.35491 0.70367 0.84915 0.0
C55 C 0.34739 0.68486 0.8574 0.0
C56 C 0.3277 0.68168 0.84224 0.0
C57 C 0.31607 0.69673 0.81758 0.0
C58 C 0.2444 0.72597 0.74292 0.0
C59 C 0.25727 0.75427 0.90801 0.0
O60 O 0.21189 0.77162 0.72669 0.0
O61 O 0.22023 0.79321 0.79985 0.0
O62 O 0.25906 0.7948 0.82209 0.0
O63 O 0.27309 0.77911 0.74661 0.0
O64 O 0.24594 0.76708 0.65731 0.0
O65 O 0.27839 0.75973 0.6572 0.0
O66 O 0.30713 0.74575 0.80971 0.0
O67 O 0.29982 0.72571 0.73047 0.0
O68 O 0.26056 0.72309 0.71173 0.0
O69 O 0.24645 0.73895 0.78643 0.0
O70 O 0.27365 0.75124 0.87548 0.0
O71 O 0.24121 0.75858 0.87585 0.0
H72 H 0.16951 0.78326 0.72269 0.0
H73 H 0.14758 0.80814 0.68019 0.0
H74 H 0.19455 0.84951 0.6807 0.0
H75 H 0.21653 0.82438 0.72224 0.0
H76 H 0.34967 0.73284 0.81669 0.0
H77 H 0.37001 0.70669 0.85946 0.0
H78 H 0.32129 0.6675 0.84891 0.0
H79 H 0.30111 0.69373 0.80508 0.0
Nd80 Nd 0.49726 0.99135 0.0213 0.0
Nd81 Nd 0.52171 0.02727 1.01282 0.0
C82 C 0.48058 0.95675 1.0109 0.0
C83 C 0.46585 0.94473 0.97688 0.0
C84 C 0.47023 0.92533 0.96272 0.0
C85 C 0.45593 0.91277 0.9389 0.0
C86 C 0.43683 0.91929 0.92864 0.0
C87 C 0.43265 0.93897 0.94031 0.0
C88 C 0.44699 0.95155 0.96437 0.0
C89 C 0.47677 0.02519 0.04184 0.0
C90 C 0.50442 0.01194 0.8757 0.0
C91 C 0.53863 0.06174 0.02399 0.0
C92 C 0.55412 0.0729 0.05751 0.0
C93 C 0.55064 0.09226 0.07485 0.0
C94 C 0.56559 0.10392 0.09953 0.0
C95 C 0.58447 0.0965 0.10735 0.0
C96 C 0.58776 0.07687 0.09185 0.0
C97 C 0.57277 0.0652 0.06721 0.0
C98 C 0.54216 0.99336 0.99249 0.0
C99 C 0.51431 1.0068 0.15858 0.0
O100 O 0.49638 0.9615 0.97867 0.0
O101 O 0.47444 0.97044 0.05038 0.0
O102 O 0.47368 0.00918 0.0736 0.0
O103 O 0.48966 0.02289 0.99784 0.0
O104 O 0.50108 0.99563 0.90817 0.0
O105 O 0.50914 0.02788 0.90783 0.0
O106 O 0.52334 0.05669 0.05848 0.0
O107 O 0.54395 0.04852 0.9814 0.0
O108 O 0.54533 0.00937 0.96084 0.0
O109 O 0.52931 0.99576 0.03651 0.0
O110 O 0.51773 0.02307 0.12595 0.0
O111 O 0.50958 0.99085 0.12662 0.0
H112 H 0.48463 0.91971 0.97206 0.0
H113 H 0.4598 0.89783 0.92941 0.0
H114 H 0.4181 0.9445 0.93343 0.0
H115 H 0.44317 0.96644 0.97507 0.0
H116 H 0.53643 0.09858 0.06734 0.0
H117 H 0.56248 0.11897 0.11011 0.0
H118 H 0.602 0.07053 0.09819 0.0
H119 H 0.57588 0.05029 0.05439 0.0
Nd120 Nd 0.27794 0.24731 0.27328 0.0
Nd121 Nd 0.24145 0.27063 0.26598 0.0
C122 C 0.31305 0.23166 0.26168 0.0
C123 C 0.32506 0.21678 0.22821 0.0
C124 C 0.34442 0.22111 0.21279 0.0
C125 C 0.35695 0.20675 0.18895 0.0
C126 C 0.35042 0.18762 0.17996 0.0
C127 C 0.33076 0.18348 0.19297 0.0
C128 C 0.31821 0.19789 0.21702 0.0
C129 C 0.24471 0.22564 0.2932 0.0
C130 C 0.25734 0.25416 0.12816 0.0
C131 C 0.20639 0.28639 0.27739 0.0
C132 C 0.19441 0.30128 0.31088 0.0
C133 C 0.17492 0.29712 0.32501 0.0
C134 C 0.16245 0.31154 0.3488 0.0
C135 C 0.16916 0.33054 0.35906 0.0
C136 C 0.18893 0.3345 0.34737 0.0
C137 C 0.20142 0.32003 0.32335 0.0
C138 C 0.27476 0.2922 0.24591 0.0
C139 C 0.26202 0.26374 0.41114 0.0
O140 O 0.3075 0.24679 0.22752 0.0
O141 O 0.2999 0.22572 0.30385 0.0
O142 O 0.26088 0.22289 0.32416 0.0
O143 O 0.24661 0.23877 0.24988 0.0
O144 O 0.27374 0.25129 0.16034 0.0
O145 O 0.24123 0.2583 0.16063 0.0
O146 O 0.21186 0.27121 0.31146 0.0
O147 O 0.2196 0.29233 0.23546 0.0
O148 O 0.25862 0.29492 0.21471 0.0
O149 O 0.27277 0.27918 0.2895 0.0
O150 O 0.24562 0.26663 0.37892 0.0
O151 O 0.27813 0.25959 0.3787 0.0
H152 H 0.35005 0.23555 0.22106 0.0
H153 H 0.37187 0.21058 0.17841 0.0
H154 H 0.32523 0.16891 0.18708 0.0
H155 H 0.30334 0.19413 0.22867 0.0
H156 H 0.16917 0.28278 0.31575 0.0
H157 H 0.14744 0.30784 0.35831 0.0
H158 H 0.1946 0.34897 0.35427 0.0
H159 H 0.21639 0.32366 0.3127 0.0
Nd160 Nd 0.74128 0.27095 0.27333 0.0
Nd161 Nd 0.77774 0.2476 0.26576 0.0
C162 C 0.70629 0.28687 0.26125 0.0
C163 C 0.69515 0.30263 0.22902 0.0
C164 C 0.67571 0.29939 0.21202 0.0
C165 C 0.66412 0.31453 0.18807 0.0
C166 C 0.6717 0.33335 0.18065 0.0
C167 C 0.69141 0.3364 0.19594 0.0
C168 C 0.703 0.32122 0.21985 0.0
C169 C 0.77448 0.29264 0.29257 0.0
C170 C 0.762 0.2641 0.12809 0.0
C171 C 0.8127 0.23163 0.27777 0.0
C172 C 0.82384 0.21585 0.30992 0.0
C173 C 0.84314 0.21921 0.32837 0.0
C174 C 0.85477 0.20408 0.35213 0.0
C175 C 0.84738 0.18515 0.35787 0.0
C176 C 0.8278 0.18196 0.34118 0.0
C177 C 0.81616 0.19713 0.31749 0.0
C178 C 0.74448 0.22597 0.24637 0.0
C179 C 0.75704 0.2545 0.41102 0.0
O180 O 0.71225 0.27242 0.22461 0.0
O181 O 0.71888 0.2918 0.30642 0.0
O182 O 0.75823 0.29546 0.32327 0.0
O183 O 0.77266 0.27949 0.24954 0.0
O184 O 0.74554 0.26674 0.1605 0.0
O185 O 0.77813 0.26016 0.16046 0.0
O186 O 0.80677 0.24608 0.31446 0.0
O187 O 0.80011 0.22674 0.23256 0.0
O188 O 0.76071 0.22318 0.21553 0.0
O189 O 0.74636 0.23903 0.28965 0.0
O190 O 0.7735 0.25183 0.37859 0.0
O191 O 0.74092 0.25845 0.3787 0.0
H192 H 0.66929 0.28522 0.21911 0.0
H193 H 0.64902 0.3116 0.17766 0.0
H194 H 0.69786 0.35059 0.1899 0.0
H195 H 0.71797 0.32411 0.23244 0.0
H196 H 0.84944 0.23349 0.32254 0.0
H197 H 0.86978 0.20712 0.36368 0.0
H198 H 0.82147 0.16767 0.34593 0.0
H199 H 0.80129 0.19412 0.30377 0.0
Nd200 Nd 0.77952 0.74673 0.77698 0.0
Nd201 Nd 0.74014 0.77198 0.77408 0.0
C202 C 0.81499 0.7322 0.76345 0.0
C203 C 0.82617 0.71632 0.73228 0.0
C204 C 0.8457 0.7194 0.7157 0.0
C205 C 0.85718 0.7042 0.69163 0.0
C206 C 0.8494 0.68551 0.68366 0.0
C207 C 0.82963 0.68261 0.69876 0.0
C208 C 0.81813 0.69786 0.72278 0.0
C209 C 0.74565 0.72633 0.79809 0.0
C210 C 0.75842 0.75629 0.63275 0.0
C211 C 0.70351 0.78343 0.78128 0.0
C212 C 0.69106 0.799 0.80824 0.0
C213 C 0.67125 0.79542 0.81802 0.0
C214 C 0.6588 0.81022 0.83906 0.0
C215 C 0.66588 0.82903 0.85085 0.0
C216 C 0.6859 0.83244 0.84261 0.0
C217 C 0.69836 0.81758 0.82141 0.0
C218 C 0.77274 0.79591 0.77497 0.0
C219 C 0.7626 0.76374 0.91458 0.0
O220 O 0.80808 0.74579 0.72481 0.0
O221 O 0.8031 0.72751 0.81159 0.0
O222 O 0.76234 0.72153 0.82261 0.0
O223 O 0.74758 0.74033 0.75805 0.0
O224 O 0.77369 0.74935 0.66478 0.0
O225 O 0.74327 0.76394 0.66376 0.0
O226 O 0.71127 0.77129 0.82373 0.0
O227 O 0.71525 0.78812 0.73255 0.0
O228 O 0.75508 0.80243 0.77312 0.0
O229 O 0.77188 0.77779 0.77749 0.0
O230 O 0.74565 0.76573 0.88463 0.0
O231 O 0.7788 0.76038 0.88091 0.0
H232 H 0.85224 0.7335 0.72297 0.0
H233 H 0.87235 0.70699 0.68138 0.0
H234 H 0.82303 0.66852 0.69232 0.0
H235 H 0.80307 0.69513 0.73502 0.0
H236 H 0.66531 0.78118 0.80835 0.0
H237 H 0.64357 0.80693 0.84593 0.0
H238 H 0.69187 0.84674 0.85065 0.0
H239 H 0.71362 0.82069 0.81415 0.0
Nd240 Nd 0.52161 0.52779 0.02353 0.0
Nd241 Nd 0.49821 0.49128 1.01687 0.0
C242 C 0.53737 0.56282 1.01132 0.0
C243 C 0.553 0.57431 0.97941 0.0
C244 C 0.54954 0.5938 0.96365 0.0
C245 C 0.56456 0.60571 0.94043 0.0
C246 C 0.5835 0.59842 0.93245 0.0
C247 C 0.58678 0.57866 0.9464 0.0
C248 C 0.57171 0.56675 0.96964 0.0
C249 C 0.54334 0.49459 0.04285 0.0
C250 C 0.51469 0.50708 0.87878 0.0
C251 C 0.48223 0.45636 0.02937 0.0
C252 C 0.46641 0.44516 0.06142 0.0
C253 C 0.46983 0.42589 0.08025 0.0
C254 C 0.45469 0.4142 0.10387 0.0
C255 C 0.43567 0.42149 0.10912 0.0
C256 C 0.43242 0.44104 0.09204 0.0
C257 C 0.4476 0.45274 0.06846 0.0
C258 C 0.47655 0.52453 0.99739 0.0
C259 C 0.50525 0.51189 0.16168 0.0
O260 O 0.52295 0.55686 0.9747 0.0
O261 O 0.54246 0.55016 0.05622 0.0
O262 O 0.54626 0.51082 0.07311 0.0
O263 O 0.53012 0.49644 1.00012 0.0
O264 O 0.51734 0.52353 0.91081 0.0
O265 O 0.51078 0.49098 0.9115 0.0
O266 O 0.49664 0.46228 0.06613 0.0
O267 O 0.47737 0.46894 0.98391 0.0
O268 O 0.47368 0.50832 0.96693 0.0
O269 O 0.48969 0.52261 0.0404 0.0
O270 O 0.50259 0.49547 0.12956 0.0
O271 O 0.50914 0.52802 0.12903 0.0
H272 H 0.53527 0.60001 0.97125 0.0
H273 H 0.56144 0.62084 0.93107 0.0
H274 H 0.60105 0.57241 0.93988 0.0
H275 H 0.57479 0.55174 0.98132 0.0
H276 H 0.48418 0.41967 0.0748 0.0
H277 H 0.45779 0.39922 0.11571 0.0
H278 H 0.41807 0.44729 0.09639 0.0
H279 H 0.44455 0.46757 0.05444 0.0
Nd280 Nd 0.99794 0.49031 0.52474 0.0
Nd281 Nd 0.02171 0.52661 0.51672 0.0
C282 C 0.98181 0.45548 0.51284 0.0
C283 C 0.9661 0.44437 0.48034 0.0
C284 C 0.96943 0.42502 0.46264 0.0
C285 C 0.95434 0.41345 0.43851 0.0
C286 C 0.93546 0.42096 0.43163 0.0
C287 C 0.93231 0.44059 0.4476 0.0
C288 C 0.94745 0.45216 0.47168 0.0
C289 C 0.97656 0.52368 0.54403 0.0
C290 C 1.00505 0.51095 0.37938 0.0
C291 C 0.03805 0.56136 0.52809 0.0
C292 C 0.05367 0.57259 0.56065 0.0
C293 C 0.05007 0.59181 0.57945 0.0
C294 C 0.06507 0.60356 0.60328 0.0
C295 C 0.08411 0.59638 0.60875 0.0
C296 C 0.08754 0.57687 0.59178 0.0
C297 C 0.0725 0.56511 0.56801 0.0
C298 C 0.04287 0.49308 0.49714 0.0
C299 C 0.01452 0.50605 0.66217 0.0
O300 O 0.99648 0.46123 0.47656 0.0
O301 O 0.97676 0.46818 0.55761 0.0
O302 O 0.97348 0.5075 0.57467 0.0
O303 O 0.98976 0.52171 0.50097 0.0
O304 O 1.0022 0.49455 0.41181 0.0
O305 O 1.00917 0.52703 0.41165 0.0
O306 O 0.0232 0.55583 0.56393 0.0
O307 O 0.0432 0.54847 0.4841 0.0
O308 O 0.04584 0.50914 0.46559 0.0
O309 O 0.02987 0.49525 0.54073 0.0
O310 O 0.01746 0.52242 0.62967 0.0
O311 O 0.01035 0.48997 0.62999 0.0
H312 H 0.98365 0.41864 0.46932 0.0
H313 H 0.95734 0.3984 0.42755 0.0
H314 H 0.91807 0.447 0.44199 0.0
H315 H 0.94447 0.46707 0.48481 0.0
H316 H 0.03571 0.59796 0.57377 0.0
H317 H 0.06184 0.61851 0.61507 0.0
H318 H 0.10191 0.5707 0.59631 0.0
H319 H 0.0757 0.55031 0.55401 0.0
C320 C 0.1185 0.10764 0.43996 0.0
C321 C 0.10037 0.10899 0.40845 0.0
C322 C 0.13369 0.12021 0.42295 0.0
C323 C 0.14402 0.16783 0.34343 0.0
H324 H 0.19674 0.14842 0.34041 0.0
C325 C 0.21055 0.21535 0.26439 0.0
C326 C 0.22751 0.21293 0.30207 0.0
C327 C 0.19463 0.20287 0.27351 0.0
C328 C 0.18213 0.15417 0.34159 0.0
H329 H 0.0843 0.1246 0.33298 0.0
H330 H 0.11078 0.14646 0.30329 0.0
H331 H 0.17007 0.12629 0.36298 0.0
H332 H 0.24085 0.19579 0.37973 0.0
H333 H 0.21332 0.17433 0.39586 0.0
H334 H 0.15621 0.19578 0.32231 0.0
C335 C 0.11316 0.13584 0.342 0.0
C336 C 0.16678 0.14143 0.35463 0.0
C337 C 0.09794 0.12325 0.35903 0.0
C338 C 0.22809 0.19796 0.34939 0.0
C339 C 0.2123 0.18554 0.35838 0.0
C340 C 0.15941 0.18061 0.33031 0.0
C341 C 0.13125 0.13453 0.37383 0.0
C342 C 0.1475 0.14808 0.3566 0.0
C343 C 0.19537 0.18767 0.32034 0.0
C344 C 0.17873 0.174 0.3301 0.0
H345 H 0.12087 0.09716 0.47913 0.0
H346 H 0.14725 0.11894 0.44952 0.0
H347 H 0.12941 0.17356 0.34511 0.0
H348 H 0.20964 0.22679 0.22769 0.0
H349 H 0.18188 0.20492 0.24311 0.0
C350 C 0.05273 0.95914 0.50772 0.0
C351 C 0.0539 0.97522 0.55021 0.0
C352 C 0.06451 0.9428 0.51836 0.0
C353 C 0.09258 0.91783 0.64984 0.0
H354 H 0.12033 0.89343 0.50474 0.0
C355 C 0.13678 0.84757 0.68799 0.0
C356 C 0.15527 0.8466 0.65835 0.0
C357 C 0.12385 0.86249 0.672 0.0
C358 C 0.11272 0.90012 0.54583 0.0
H359 H 0.06817 0.98666 0.63738 0.0
H360 H 0.08845 0.95834 0.65608 0.0
H361 H 0.09861 0.92074 0.48226 0.0
H362 H 0.1744 0.86058 0.58737 0.0
H363 H 0.15184 0.88673 0.5597 0.0
H364 H 0.10679 0.8975 0.7136 0.0
C365 C 0.07848 0.95822 0.61467 0.0
C366 C 0.10012 0.91565 0.53284 0.0
C367 C 0.06691 0.97453 0.60368 0.0
C368 C 0.16035 0.86091 0.61156 0.0
C369 C 0.14733 0.87581 0.59519 0.0
C370 C 0.10501 0.90225 0.66272 0.0
C371 C 0.07749 0.94212 0.57223 0.0
C372 C 0.09003 0.92484 0.58483 0.0
C373 C 0.12896 0.87689 0.62569 0.0
C374 C 0.11537 0.89325 0.61104 0.0
H375 H 0.04282 0.95924 0.46614 0.0
H376 H 0.06329 0.93059 0.48498 0.0
H377 H 0.08493 0.92442 0.69104 0.0
H378 H 0.13239 0.83698 0.7248 0.0
H379 H 0.10978 0.86272 0.69603 0.0
C380 C 0.30884 0.80304 0.75779 0.0
C381 C 0.29278 0.80396 0.80085 0.0
C382 C 0.32516 0.81483 0.76853 0.0
C383 C 0.3502 0.84245 0.90055 0.0
H384 H 0.37424 0.87083 0.7559 0.0
C385 C 0.42039 0.88679 0.93809 0.0
C386 C 0.4212 0.90537 0.90927 0.0
C387 C 0.40549 0.87387 0.9221 0.0
C388 C 0.36765 0.86305 0.79688 0.0
H389 H 0.28136 0.81777 0.88922 0.0
H390 H 0.30965 0.83805 0.90812 0.0
H391 H 0.34697 0.8491 0.7334 0.0
H392 H 0.40698 0.92465 0.83975 0.0
H393 H 0.38087 0.9021 0.81209 0.0
H394 H 0.37059 0.85648 0.96423 0.0
C395 C 0.30977 0.82828 0.86614 0.0
C396 C 0.35215 0.85044 0.78386 0.0
C397 C 0.29347 0.81671 0.85505 0.0
C398 C 0.40676 0.91054 0.8633 0.0
C399 C 0.39189 0.89753 0.84693 0.0
C400 C 0.36576 0.85488 0.91345 0.0
C401 C 0.32584 0.82755 0.82309 0.0
C402 C 0.34309 0.84012 0.83569 0.0
C403 C 0.39095 0.87907 0.87661 0.0
C404 C 0.37463 0.86548 0.86194 0.0
H405 H 0.30873 0.79333 0.71565 0.0
H406 H 0.33734 0.8138 0.73467 0.0
H407 H 0.34371 0.83461 0.94161 0.0
H408 H 0.43108 0.88234 0.97427 0.0
H409 H 0.40537 0.85974 0.94548 0.0
C410 C 0.46608 0.05886 1.00882 0.0
C411 C 0.46507 0.04297 0.05242 0.0
C412 C 0.45445 0.0753 1.01948 0.0
C413 C 0.42722 0.10098 0.15155 0.0
H414 H 0.39848 0.12448 1.00726 0.0
C415 C 0.383 0.17129 0.18825 0.0
C416 C 0.36431 0.17196 0.16046 0.0
C417 C 0.39591 0.15635 0.17217 0.0
C418 C 0.40637 0.11805 0.04812 0.0
H419 H 0.4513 0.03197 0.14169 0.0
H420 H 0.43129 0.06048 0.16047 0.0
H421 H 0.42012 0.09709 0.98489 0.0
H422 H 0.3448 0.15748 0.09266 0.0
H423 H 0.36731 0.1313 0.06488 0.0
H424 H 0.41337 0.12165 0.215 0.0
C425 C 0.441 0.06037 0.11812 0.0
C426 C 0.41892 0.10248 0.03517 0.0
C427 C 0.45242 0.04396 0.10711 0.0
C428 C 0.359 0.15736 0.11541 0.0
C429 C 0.37199 0.14245 0.09895 0.0
C430 C 0.41484 0.11661 0.16437 0.0
C431 C 0.4418 0.07626 0.07449 0.0
C432 C 0.42935 0.09361 0.0869 0.0
C433 C 0.39056 0.14165 0.12763 0.0
C434 C 0.40412 0.12528 0.11299 0.0
H435 H 0.47573 0.05852 0.96629 0.0
H436 H 0.45551 0.08735 0.98517 0.0
H437 H 0.43514 0.09464 0.1925 0.0
H438 H 0.38757 0.18211 0.22371 0.0
H439 H 0.41013 0.15633 0.19474 0.0
C440 C 0.91257 0.8915 0.5851 0.0
C441 C 0.91957 0.9062 0.62691 0.0
C442 C 0.89745 0.87931 0.60555 0.0
C443 C 0.8572 0.8753 0.72916 0.0
H444 H 0.85642 0.82192 0.67008 0.0
C445 C 0.78849 0.82791 0.75404 0.0
C446 C 0.79039 0.80794 0.76565 0.0
C447 C 0.80479 0.83945 0.74176 0.0
C448 C 0.85646 0.8367 0.68787 0.0
H449 H 0.91609 0.91943 0.72359 0.0
H450 H 0.88992 0.898 0.75987 0.0
H451 H 0.8838 0.84254 0.64141 0.0
H452 H 0.81097 0.78444 0.77484 0.0
H453 H 0.83962 0.80464 0.75472 0.0
H454 H 0.83011 0.86933 0.77708 0.0
C455 C 0.89588 0.89609 0.71055 0.0
C456 C 0.8721 0.84868 0.67047 0.0
C457 C 0.91095 0.9084 0.68981 0.0
C458 C 0.80905 0.79978 0.76579 0.0
C459 C 0.82545 0.81138 0.7538 0.0
C460 C 0.84162 0.86329 0.74688 0.0
C461 C 0.88889 0.88132 0.66872 0.0
C462 C 0.87262 0.86825 0.69012 0.0
C463 C 0.82355 0.83141 0.74117 0.0
C464 C 0.84085 0.84386 0.7258 0.0
H465 H 0.91859 0.88959 0.53583 0.0
H466 H 0.89227 0.86849 0.57112 0.0
H467 H 0.85688 0.89027 0.74495 0.0
H468 H 0.7743 0.83463 0.75323 0.0
H469 H 0.80256 0.85466 0.73109 0.0
C470 C 0.96587 0.05804 0.52213 0.0
C471 C 0.96337 0.04119 0.4841 0.0
C472 C 0.95351 0.07406 0.51331 0.0
C473 C 0.90491 0.08692 0.44605 0.0
H474 H 0.92468 0.13942 0.44167 0.0
C475 C 0.85882 0.15056 0.34723 0.0
C476 C 0.86026 0.16872 0.37839 0.0
C477 C 0.8713 0.13536 0.36441 0.0
C478 C 0.91884 0.12488 0.44362 0.0
H479 H 0.94625 0.02811 0.40612 0.0
H480 H 0.92499 0.05579 0.39058 0.0
H481 H 0.94675 0.11252 0.46441 0.0
H482 H 0.87591 0.18483 0.45337 0.0
H483 H 0.89762 0.15831 0.4834 0.0
H484 H 0.87708 0.09914 0.42503 0.0
C485 C 0.93617 0.05667 0.42807 0.0
C486 C 0.93153 0.10943 0.45669 0.0
C487 C 0.94847 0.04079 0.43672 0.0
C488 C 0.8745 0.17116 0.42762 0.0
C489 C 0.887 0.15592 0.44484 0.0
C490 C 0.89226 0.10232 0.4331 0.0
C491 C 0.93836 0.0735 0.46649 0.0
C492 C 0.92478 0.0902 0.45711 0.0
C493 C 0.88561 0.1378 0.41337 0.0
C494 C 0.89905 0.12152 0.43077 0.0
H495 H 0.97727 0.05881 0.55887 0.0
H496 H 0.9556 0.08674 0.54396 0.0
H497 H 0.89906 0.07238 0.44742 0.0
H498 H 0.84834 0.14819 0.3082 0.0
H499 H 0.86997 0.12177 0.3381 0.0
C500 C 0.71018 0.21583 0.27474 0.0
C501 C 0.72732 0.21321 0.23789 0.0
C502 C 0.69427 0.20335 0.26574 0.0
C503 C 0.68205 0.1544 0.20058 0.0
H504 H 0.6295 0.17404 0.19082 0.0
C505 C 0.61922 0.10778 0.09931 0.0
C506 C 0.60075 0.10941 0.12871 0.0
C507 C 0.6343 0.12031 0.11711 0.0
C508 C 0.64405 0.16824 0.19429 0.0
H509 H 0.74107 0.19571 0.16194 0.0
H510 H 0.7136 0.17422 0.14616 0.0
H511 H 0.65619 0.19623 0.21437 0.0
H512 H 0.58396 0.12546 0.20133 0.0
H513 H 0.61026 0.14726 0.23245 0.0
H514 H 0.67005 0.12647 0.18027 0.0
C515 C 0.7124 0.1856 0.18282 0.0
C516 C 0.65938 0.181 0.20783 0.0
C517 C 0.72815 0.19804 0.19161 0.0
C518 C 0.59788 0.12389 0.1769 0.0
C519 C 0.61299 0.13644 0.19474 0.0
C520 C 0.66677 0.14167 0.18717 0.0
C521 C 0.69525 0.18795 0.21995 0.0
C522 C 0.67864 0.1743 0.21019 0.0
C523 C 0.63142 0.13487 0.16496 0.0
C524 C 0.64755 0.14841 0.1829 0.0
H525 H 0.70908 0.22744 0.31059 0.0
H526 H 0.68134 0.20556 0.29538 0.0
H527 H 0.69661 0.14859 0.20343 0.0
H528 H 0.62195 0.09711 0.0611 0.0
H529 H 0.64814 0.11883 0.09209 0.0
C530 C 0.634 0.84658 0.83922 0.0
C531 C 0.6523 0.84505 0.8695 0.0
C532 C 0.62134 0.86173 0.85535 0.0
C533 C 0.61067 0.89906 0.98297 0.0
H534 H 0.58348 0.92437 0.83876 0.0
C535 C 0.55216 0.95934 0.02385 0.0
C536 C 0.55365 0.97547 0.98147 0.0
C537 C 0.56353 0.94274 1.01251 0.0
C538 C 0.59098 0.9175 0.87968 0.0
H539 H 0.67138 0.85828 0.94167 0.0
H540 H 0.64936 0.88485 0.96931 0.0
H541 H 0.60483 0.89711 0.81523 0.0
H542 H 0.56804 0.98676 0.89377 0.0
H543 H 0.58761 0.95803 0.87395 0.0
H544 H 0.59697 0.91978 0.04722 0.0
C545 C 0.64476 0.87419 0.9333 0.0
C546 C 0.6031 0.90172 0.86625 0.0
C547 C 0.65749 0.85906 0.91689 0.0
C548 C 0.56654 0.97459 0.9274 0.0
C549 C 0.5777 0.95804 0.91577 0.0
C550 C 0.59839 0.91481 0.99651 0.0
C551 C 0.62655 0.87581 0.90239 0.0
C552 C 0.61325 0.89235 0.91757 0.0
C553 C 0.5764 0.94188 0.95808 0.0
C554 C 0.58855 0.92436 0.94489 0.0
H555 H 0.62953 0.83624 0.80197 0.0
H556 H 0.60738 0.86237 0.83098 0.0
H557 H 0.6181 0.89209 0.02383 0.0
H558 H 0.54232 0.95959 0.06585 0.0
H559 H 0.56206 0.9305 0.04582 0.0
C560 C 0.61825 0.6096 0.94161 0.0
C561 C 0.59984 0.61155 0.91247 0.0
C562 C 0.63339 0.62226 0.92494 0.0
C563 C 0.64358 0.67084 0.85261 0.0
H564 H 0.69587 0.65067 0.83883 0.0
C565 C 0.71052 0.71823 0.77414 0.0
C566 C 0.72784 0.71458 0.80859 0.0
C567 C 0.69427 0.70616 0.78337 0.0
C568 C 0.6814 0.65663 0.84309 0.0
H569 H 0.5832 0.62837 0.84161 0.0
H570 H 0.60959 0.65043 0.81266 0.0
H571 H 0.66909 0.62865 0.8607 0.0
H572 H 0.74144 0.69584 0.88126 0.0
H573 H 0.71338 0.67518 0.89775 0.0
H574 H 0.65605 0.69891 0.8353 0.0
C575 C 0.61224 0.63923 0.84921 0.0
C576 C 0.66599 0.64395 0.85571 0.0
C577 C 0.59707 0.62653 0.86583 0.0
C578 C 0.72841 0.69896 0.85333 0.0
C579 C 0.7123 0.68698 0.86249 0.0
C580 C 0.65906 0.68358 0.83996 0.0
C581 C 0.63062 0.63729 0.87859 0.0
C582 C 0.64687 0.65086 0.86159 0.0
C583 C 0.69505 0.69019 0.82709 0.0
C584 C 0.67824 0.67668 0.83603 0.0
H585 H 0.6209 0.59856 0.97869 0.0
H586 H 0.6472 0.62049 0.94962 0.0
H587 H 0.6291 0.67676 0.85728 0.0
H588 H 0.70962 0.7302 0.73946 0.0
H589 H 0.68125 0.70908 0.75516 0.0
C590 C 0.66071 0.36813 0.18944 0.0
C591 C 0.6589 0.3498 0.15975 0.0
C592 C 0.64828 0.38336 0.172 0.0
C593 C 0.60035 0.39376 0.09551 0.0
H594 H 0.62049 0.44607 0.08625 0.0
C595 C 0.55321 0.46026 1.01517 0.0
C596 C 0.55601 0.47737 0.05157 0.0
C597 C 0.56559 0.44427 0.02431 0.0
C598 C 0.61454 0.43159 0.08916 0.0
H599 H 0.64265 0.3334 0.08701 0.0
H600 H 0.62104 0.35995 0.05656 0.0
H601 H 0.64241 0.41929 0.10921 0.0
H602 H 0.57373 0.49097 0.12686 0.0
H603 H 0.59504 0.46334 0.14295 0.0
H604 H 0.57241 0.40619 0.07573 0.0
C605 C 0.63191 0.36246 0.0942 0.0
C606 C 0.62716 0.41618 0.10244 0.0
C607 C 0.64435 0.34721 0.11166 0.0
C608 C 0.57126 0.47808 0.09754 0.0
C609 C 0.5836 0.46223 0.1065 0.0
C610 C 0.5877 0.40922 0.08214 0.0
C611 C 0.63365 0.38076 0.12426 0.0
C612 C 0.62024 0.39705 0.10668 0.0
C613 C 0.58106 0.44512 0.06981 0.0
C614 C 0.59458 0.42839 0.0797 0.0
H615 H 0.67144 0.37063 0.22757 0.0
H616 H 0.6499 0.39709 0.1972 0.0
H617 H 0.59441 0.37928 0.09898 0.0
H618 H 0.54153 0.45925 0.97955 0.0
H619 H 0.56323 0.43138 0.99497 0.0
C620 C 0.90068 0.40983 0.44066 0.0
C621 C 0.91905 0.40816 0.4106 0.0
C622 C 0.88548 0.39741 0.42307 0.0
C623 C 0.87527 0.3497 0.34514 0.0
H624 H 0.82281 0.36968 0.33743 0.0
C625 C 0.80884 0.30263 0.2645 0.0
C626 C 0.7917 0.3053 0.30132 0.0
C627 C 0.82481 0.31501 0.27372 0.0
C628 C 0.83734 0.36378 0.33991 0.0
H629 H 0.93555 0.39217 0.33704 0.0
H630 H 0.90906 0.37057 0.30632 0.0
H631 H 0.84954 0.39159 0.36066 0.0
H632 H 0.77802 0.32279 0.37746 0.0
H633 H 0.80562 0.34409 0.39369 0.0
H634 H 0.86293 0.32182 0.32466 0.0
C635 C 0.90649 0.38133 0.34437 0.0
C636 C 0.85272 0.37639 0.35334 0.0
C637 C 0.92171 0.39376 0.36199 0.0
C638 C 0.79094 0.32042 0.3478 0.0
C639 C 0.80677 0.33275 0.35685 0.0
C640 C 0.85984 0.33706 0.33162 0.0
C641 C 0.88815 0.38293 0.37479 0.0
C642 C 0.8719 0.36952 0.35703 0.0
C643 C 0.82391 0.33035 0.31974 0.0
C644 C 0.84062 0.34388 0.32973 0.0
H645 H 0.89812 0.42044 0.47919 0.0
H646 H 0.87172 0.39892 0.44856 0.0
H647 H 0.88979 0.34381 0.34817 0.0
H648 H 0.80988 0.29105 0.22848 0.0
H649 H 0.83773 0.31275 0.24405 0.0
C650 C 0.87665 0.67163 0.61398 0.0
C651 C 0.86205 0.66902 0.66222 0.0
C652 C 0.88897 0.65633 0.59599 0.0
C653 C 0.89324 0.60259 0.60297 0.0
H654 H 0.94814 0.6122 0.57685 0.0
C655 C 0.94869 0.54037 0.59866 0.0
C656 C 0.96402 0.54099 0.5526 0.0
C657 C 0.93646 0.55629 0.60745 0.0
C658 C 0.93282 0.60929 0.58308 0.0
H659 H 0.84923 0.64808 0.72968 0.0
H660 H 0.87056 0.62153 0.69842 0.0
H661 H 0.92631 0.63922 0.60046 0.0
H662 H 0.97875 0.55901 0.48025 0.0
H663 H 0.95722 0.58703 0.49545 0.0
H664 H 0.89971 0.57268 0.58633 0.0
C665 C 0.87232 0.63533 0.67353 0.0
C666 C 0.92026 0.6248 0.59665 0.0
C667 C 0.86003 0.65061 0.69148 0.0
C668 C 0.967 0.55808 0.51594 0.0
C669 C 0.95473 0.57414 0.52494 0.0
C670 C 0.90576 0.58712 0.58951 0.0
C671 C 0.88702 0.63796 0.62567 0.0
C672 C 0.90032 0.62164 0.60766 0.0
C673 C 0.93918 0.57338 0.57052 0.0
C674 C 0.92577 0.59019 0.5803 0.0
H675 H 0.8785 0.6855 0.58964 0.0
H676 H 0.8999 0.65886 0.55828 0.0
H677 H 0.87795 0.59959 0.60961 0.0
H678 H 0.94608 0.52749 0.62815 0.0
H679 H 0.92494 0.55526 0.64395 0.0
C680 C 0.29143 0.31982 0.18961 0.0
C681 C 0.29199 0.30489 0.23703 0.0
C682 C 0.30724 0.33222 0.18058 0.0
C683 C 0.36012 0.33707 0.20847 0.0
H684 H 0.34956 0.39141 0.17583 0.0
C685 C 0.42169 0.39429 0.179 0.0
C686 C 0.41925 0.40855 0.12961 0.0
C687 C 0.40647 0.38174 0.19621 0.0
C688 C 0.35282 0.37626 0.18416 0.0
H689 H 0.30981 0.29104 0.31155 0.0
H690 H 0.33762 0.31285 0.29602 0.0
H691 H 0.32286 0.36933 0.19863 0.0
H692 H 0.3987 0.42042 0.05917 0.0
H693 H 0.37231 0.3987 0.08908 0.0
H694 H 0.39013 0.34405 0.19338 0.0
C695 C 0.32487 0.31491 0.26559 0.0
C696 C 0.33745 0.36355 0.19735 0.0
C697 C 0.30892 0.30246 0.27478 0.0
C698 C 0.40109 0.40994 0.09831 0.0
C699 C 0.38589 0.3974 0.1155 0.0
C700 C 0.37554 0.34981 0.19519 0.0
C701 C 0.32416 0.33008 0.21867 0.0
C702 C 0.34083 0.34372 0.20882 0.0
C703 C 0.38834 0.38308 0.1646 0.0
C704 C 0.37208 0.36957 0.18202 0.0
H705 H 0.27868 0.322 0.15922 0.0
H706 H 0.30625 0.34342 0.14303 0.0
H707 H 0.3633 0.32189 0.21647 0.0
H708 H 0.43535 0.39291 0.2049 0.0
H709 H 0.40886 0.3711 0.2349 0.0
C710 C 0.46653 0.55881 0.0253 0.0
C711 C 0.46382 0.5417 0.98881 0.0
C712 C 0.45407 0.57474 1.01625 0.0
C713 C 0.40503 0.58715 0.95175 0.0
H714 H 0.42488 0.63954 0.94061 0.0
C715 C 0.35852 0.6501 0.84989 0.0
C716 C 0.36025 0.66853 0.87893 0.0
C717 C 0.37101 0.63498 0.86783 0.0
C718 C 0.41902 0.62504 0.94448 0.0
H719 H 0.44615 0.52805 0.91347 0.0
H720 H 0.4247 0.55556 0.89758 0.0
H721 H 0.44703 0.61279 0.9643 0.0
H722 H 0.37643 0.68521 0.95107 0.0
H723 H 0.39817 0.65885 0.98242 0.0
H724 H 0.37708 0.59926 0.93167 0.0
C725 C 0.43615 0.55672 0.93401 0.0
C726 C 0.43176 0.60967 0.95809 0.0
C727 C 0.44856 0.54093 0.94285 0.0
C728 C 0.37479 0.67132 0.92692 0.0
C729 C 0.3873 0.65618 0.94489 0.0
C730 C 0.39232 0.60247 0.93826 0.0
C731 C 0.4386 0.57382 0.97077 0.0
C732 C 0.42498 0.59047 0.96094 0.0
C733 C 0.38564 0.63779 0.91545 0.0
C734 C 0.39914 0.62162 0.93349 0.0
H735 H 0.47821 0.55986 0.06091 0.0
H736 H 0.45637 0.58764 0.04561 0.0
H737 H 0.39917 0.57263 0.95499 0.0
H738 H 0.3478 0.64744 0.81186 0.0
H739 H 0.36946 0.62117 0.84309 0.0
C740 C 0.22768 0.69848 0.68704 0.0
C741 C 0.22714 0.71335 0.73449 0.0
C742 C 0.21188 0.68609 0.67849 0.0
C743 C 0.15905 0.68106 0.70766 0.0
H744 H 0.16986 0.62678 0.67544 0.0
C745 C 0.09778 0.62358 0.67859 0.0
C746 C 0.1004 0.6094 0.6292 0.0
C747 C 0.11289 0.6362 0.69577 0.0
C748 C 0.16653 0.64191 0.68367 0.0
H749 H 0.20934 0.72712 0.8095 0.0
H750 H 0.18153 0.7053 0.79479 0.0
H751 H 0.19644 0.64893 0.6978 0.0
H752 H 0.12114 0.59774 0.55867 0.0
H753 H 0.14735 0.61957 0.58852 0.0
H754 H 0.12909 0.67399 0.69285 0.0
C755 C 0.19427 0.70329 0.764 0.0
C756 C 0.18183 0.65466 0.69661 0.0
C757 C 0.21021 0.71574 0.7727 0.0
C758 C 0.11862 0.60816 0.59783 0.0
C759 C 0.13371 0.62075 0.61499 0.0
C760 C 0.1437 0.66827 0.69462 0.0
C761 C 0.19498 0.68816 0.71711 0.0
C762 C 0.17837 0.67448 0.70785 0.0
C763 C 0.13109 0.63499 0.66412 0.0
C764 C 0.14725 0.64854 0.68155 0.0
H765 H 0.24041 0.69634 0.65627 0.0
H766 H 0.21287 0.67493 0.64094 0.0
H767 H 0.15582 0.69623 0.71554 0.0
H768 H 0.08405 0.62485 0.70449 0.0
H769 H 0.11037 0.64677 0.73446 0.0
C770 C 0.16059 0.36063 0.42459 0.0
C771 C 0.15536 0.34629 0.37846 0.0
C772 C 0.14768 0.37561 0.44101 0.0
C773 C 0.10547 0.4022 0.3743 0.0
H774 H 0.0993 0.42087 0.55454 0.0
C775 C 0.06777 0.47469 0.43301 0.0
C776 C 0.05477 0.47542 0.48679 0.0
C777 C 0.07928 0.45833 0.42201 0.0
C778 C 0.10075 0.41573 0.50403 0.0
H779 H 0.13234 0.33669 0.31323 0.0
H780 H 0.10991 0.36259 0.34211 0.0
H781 H 0.12085 0.39342 0.53202 0.0
H782 H 0.04363 0.4595 0.5714 0.0
H783 H 0.06399 0.43078 0.55253 0.0
H784 H 0.08549 0.42446 0.34611 0.0
C785 C 0.12402 0.36231 0.36557 0.0
C786 C 0.11326 0.40012 0.49101 0.0
C787 C 0.13684 0.3473 0.34953 0.0
C788 C 0.05354 0.45936 0.52959 0.0
C789 C 0.06526 0.44298 0.51893 0.0
C790 C 0.09314 0.41786 0.38721 0.0
C791 C 0.12928 0.37675 0.41122 0.0
C792 C 0.11581 0.39319 0.42589 0.0
C793 C 0.07822 0.44225 0.46474 0.0
C794 C 0.09068 0.42492 0.45213 0.0
H795 H 0.17467 0.36024 0.44822 0.0
H796 H 0.15229 0.38655 0.47598 0.0
H797 H 0.10718 0.3974 0.32349 0.0
H798 H 0.06907 0.48681 0.39908 0.0
H799 H 0.08924 0.45841 0.38034 0.0
C800 C 0.99875 0.99382 0.76708 0.0
C801 C 1.00322 0.01084 0.73176 0.0
C802 C 0.99967 0.99337 0.83646 0.0
C803 C 1.00079 0.02483 0.98583 0.0
H804 H 0.02313 0.97946 0.06958 0.0
C805 C 0.01867 0.02311 0.26599 0.0
C806 C 0.01426 1.00606 0.30122 0.0
C807 C 0.01773 0.0236 0.19661 0.0
C808 C 0.01666 0.99216 0.04714 0.0
H809 H 0.01184 0.04088 0.74228 0.0
H810 H 0.01354 0.04006 0.86311 0.0
H811 H 0.02002 0.98065 0.94919 0.0
H812 H 1.00569 0.97601 0.29054 0.0
H813 H 1.00394 0.97689 0.16974 0.0
H814 H 0.99743 0.03634 0.08379 0.0
C815 C 1.00913 0.02708 0.8372 0.0
C816 C 0.01485 0.99284 0.97797 0.0
C817 C 1.00821 0.02753 0.76775 0.0
C818 C 1.00928 0.98938 0.26514 0.0
C819 C 1.00833 0.98987 0.19571 0.0
C820 C 1.0026 0.02415 0.05501 0.0
C821 C 1.00509 0.00993 0.87248 0.0
C822 C 1.00687 0.00918 0.94633 0.0
C823 C 0.01234 1.00705 0.16051 0.0
C824 C 0.01057 1.0078 0.08665 0.0
H825 H 0.99479 0.98069 0.74115 0.0
H826 H 0.99611 0.98 0.86191 0.0
H827 H 0.99432 0.03754 0.96339 0.0
H828 H 0.02262 0.03623 0.292 0.0
H829 H 0.02125 0.03699 0.17124 0.0
C830 C 0.24537 0.76908 0.51609 0.0
C831 C 0.26243 0.76469 0.55111 0.0
C832 C 0.24495 0.76821 0.4467 0.0
C833 C 0.2704 0.74586 0.30389 0.0
H834 H 0.24149 0.78348 0.20102 0.0
C835 C 0.27436 0.7494 1.01673 0.0
C836 C 0.25727 0.75374 0.98181 0.0
C837 C 0.27482 0.75031 0.08611 0.0
C838 C 0.24943 0.7727 0.229 0.0
H839 H 0.29258 0.75633 0.54006 0.0
H840 H 0.29191 0.75503 0.41908 0.0
H841 H 0.24304 0.78664 0.32137 0.0
H842 H 0.22711 0.76209 0.99306 0.0
H843 H 0.22787 0.76347 0.11401 0.0
H844 H 0.27679 0.73192 0.21151 0.0
C845 C 0.27875 0.75889 0.44538 0.0
C846 C 0.25035 0.77453 0.29812 0.0
C847 C 0.27918 0.75979 0.51483 0.0
C848 C 0.24054 0.75866 1.01819 0.0
C849 C 0.24102 0.75961 0.08763 0.0
C850 C 0.26949 0.74402 0.23476 0.0
C851 C 0.26157 0.76289 0.41039 0.0
C852 C 0.26085 0.76114 0.33655 0.0
C853 C 0.25822 0.75564 0.12251 0.0
C854 C 0.25898 0.75741 0.19634 0.0
H855 H 0.23216 0.77285 0.54226 0.0
H856 H 0.23141 0.7712 0.42163 0.0
H857 H 0.27834 0.73507 0.33186 0.0
H858 H 0.28755 0.74562 0.99048 0.0
H859 H 0.28838 0.74735 0.1111 0.0
C860 C 0.49898 0.99507 0.767 0.0
C861 C 0.50382 0.012 0.80193 0.0
C862 C 0.4999 0.99458 0.69761 0.0
C863 C 0.50176 0.02597 0.54767 0.0
H864 H 0.5231 0.98008 0.46429 0.0
C865 C 0.51967 0.02377 0.26719 0.0
C866 C 0.51485 1.00681 0.23237 0.0
C867 C 0.51874 0.02429 0.33658 0.0
C868 C 0.51692 0.99293 0.48663 0.0
H869 H 0.51309 0.04183 0.7907 0.0
H870 H 0.5148 0.04095 0.66985 0.0
H871 H 0.51999 0.98138 0.58471 0.0
H872 H 0.50558 0.97698 0.24377 0.0
H873 H 0.50384 0.97793 0.36459 0.0
H874 H 0.49869 0.03752 0.44957 0.0
C875 C 0.5101 0.02808 0.69608 0.0
C876 C 0.5151 0.99368 0.55582 0.0
C877 C 0.50918 0.02857 0.76554 0.0
C878 C 0.50948 0.99027 0.26884 0.0
C879 C 0.50855 0.99079 0.33829 0.0
C880 C 0.50357 0.02523 0.47847 0.0
C881 C 0.50569 0.01101 0.66119 0.0
C882 C 0.50748 0.0102 0.58732 0.0
C883 C 0.51296 1.00788 0.37309 0.0
C884 C 0.51118 1.0087 0.44697 0.0
H885 H 0.49473 0.98203 0.79325 0.0
H886 H 0.49606 0.98129 0.67249 0.0
H887 H 0.49557 0.03882 0.57001 0.0
H888 H 0.52393 0.03679 0.24087 0.0
H889 H 0.52258 0.0376 0.36164 0.0
C890 C 0.27443 0.24929 1.01916 0.0
C891 C 0.25733 0.25359 0.0544 0.0
C892 C 0.27488 0.25018 0.94977 0.0
C893 C 0.24339 0.25089 0.80058 0.0
H894 H 0.28859 0.27363 0.71605 0.0
C895 C 0.24492 0.26863 0.52012 0.0
C896 C 0.26202 0.26431 0.4849 0.0
C897 C 0.24446 0.26774 0.58951 0.0
C898 C 0.27594 0.26705 0.73872 0.0
H899 H 0.22716 0.26192 0.0438 0.0
H900 H 0.22799 0.2636 0.92293 0.0
H901 H 0.28741 0.2706 0.83653 0.0
H902 H 0.29218 0.25598 0.49555 0.0
H903 H 0.29134 0.25432 0.61642 0.0
H904 H 0.23192 0.24735 0.70277 0.0
C905 C 0.24103 0.25933 0.94892 0.0
C906 C 0.27527 0.26529 0.80793 0.0
C907 C 0.24057 0.25842 1.01837 0.0
C908 C 0.27877 0.25949 0.52095 0.0
C909 C 0.27831 0.2586 0.59041 0.0
C910 C 0.24406 0.25266 0.73137 0.0
C911 C 0.25825 0.25543 0.9137 0.0
C912 C 0.25899 0.25717 0.83983 0.0
C913 C 0.26108 0.2625 0.6256 0.0
C914 C 0.26034 0.26077 0.69947 0.0
H915 H 0.28761 0.24545 0.04514 0.0
H916 H 0.28831 0.24675 0.92437 0.0
H917 H 0.23074 0.24431 0.82326 0.0
H918 H 0.23174 0.27247 0.49411 0.0
H919 H 0.23103 0.27118 0.61489 0.0
C920 C 0.74488 0.26887 1.01944 0.0
C921 C 0.76202 0.26465 0.0543 0.0
C922 C 0.74441 0.26797 0.95009 0.0
C923 C 0.77581 0.26741 0.79989 0.0
H924 H 0.73061 0.2446 0.71705 0.0
C925 C 0.77418 0.24974 0.51966 0.0
C926 C 0.75704 0.25396 0.48482 0.0
C927 C 0.77466 0.25065 0.58902 0.0
C928 C 0.74326 0.2512 0.73924 0.0
H929 H 0.79221 0.25647 0.04298 0.0
H930 H 0.79135 0.25479 0.92209 0.0
H931 H 0.73188 0.24757 0.83746 0.0
H932 H 0.72684 0.26214 0.49618 0.0
H933 H 0.72772 0.26383 0.61705 0.0
H934 H 0.78719 0.27104 0.70166 0.0
C935 C 0.7783 0.259 0.9484 0.0
C936 C 0.74399 0.25293 0.80842 0.0
C937 C 0.77878 0.25991 1.01786 0.0
C938 C 0.74028 0.25871 0.52128 0.0
C939 C 0.74076 0.25962 0.59074 0.0
C940 C 0.77509 0.26568 0.7307 0.0
C941 C 0.76104 0.2628 0.91359 0.0
C942 C 0.76027 0.26107 0.83974 0.0
C943 C 0.75803 0.25581 0.62553 0.0
C944 C 0.7588 0.25755 0.69939 0.0
H945 H 0.7317 0.27265 0.04573 0.0
H946 H 0.73095 0.27134 0.92504 0.0
H947 H 0.78846 0.27401 0.82208 0.0
H948 H 0.78736 0.24597 0.49336 0.0
H949 H 0.78812 0.24728 0.61406 0.0
C950 C 0.77502 0.74937 0.52386 0.0
C951 C 0.75856 0.75587 0.55883 0.0
C952 C 0.77564 0.75005 0.45441 0.0
C953 C 0.74445 0.7534 0.3054 0.0
H954 H 0.79147 0.77125 0.21875 0.0
C955 C 0.74646 0.76974 0.0245 0.0
C956 C 0.76307 0.7643 0.98838 0.0
C957 C 0.74627 0.76901 0.09388 0.0
C958 C 0.77829 0.766 0.24198 0.0
H959 H 0.7297 0.76794 0.54738 0.0
H960 H 0.73081 0.76909 0.42651 0.0
H961 H 0.79027 0.76879 0.33948 0.0
H962 H 0.79268 0.75409 0.99754 0.0
H963 H 0.79228 0.75256 0.11856 0.0
H964 H 0.73248 0.75046 0.20814 0.0
C965 C 0.74321 0.76335 0.45286 0.0
C966 C 0.7776 0.7646 0.31134 0.0
C967 C 0.74261 0.76275 0.52234 0.0
C968 C 0.77966 0.75848 0.02364 0.0
C969 C 0.77944 0.75766 0.0932 0.0
C970 C 0.74515 0.75473 0.23609 0.0
C971 C 0.75979 0.75716 0.41797 0.0
C972 C 0.76064 0.75835 0.34399 0.0
C973 C 0.76266 0.76271 0.12929 0.0
C974 C 0.76205 0.76113 0.20333 0.0
H975 H 0.78759 0.74396 0.55007 0.0
H976 H 0.78854 0.7449 0.42921 0.0
H977 H 0.73125 0.74824 0.32873 0.0
H978 H 0.73344 0.77445 0.99919 0.0
H979 H 0.73322 0.77342 0.11977 0.0
C980 C 0.5192 0.52418 0.76963 0.0
C981 C 0.51524 0.50703 0.80498 0.0
C982 C 0.51836 0.52458 0.70025 0.0
C983 C 0.49682 0.4986 0.55773 0.0
H984 H 0.53385 0.52845 0.4547 0.0
C985 C 0.5008 0.49474 0.27075 0.0
C986 C 0.50474 0.51191 0.23548 0.0
C987 C 0.50166 0.49431 0.34013 0.0
C988 C 0.52322 0.52025 0.48271 0.0
H989 H 0.50766 0.47672 0.79449 0.0
H990 H 0.50641 0.47737 0.67347 0.0
H991 H 0.5369 0.52697 0.5751 0.0
H992 H 0.51231 0.54222 0.2461 0.0
H993 H 0.5136 0.54152 0.3671 0.0
H994 H 0.48315 0.49188 0.46533 0.0
C995 C 0.50991 0.4906 0.69954 0.0
C996 C 0.525 0.51937 0.55187 0.0
C997 C 0.51079 0.49019 0.76901 0.0
C998 C 0.5092 0.52873 0.27152 0.0
C999 C 0.5101 0.52829 0.34098 0.0
C1000 C 0.49504 0.49948 0.48857 0.0
C1001 C 0.5135 0.50785 0.66424 0.0
C1002 C 0.51182 0.50853 0.59036 0.0
C1003 C 0.50652 0.51103 0.37621 0.0
C1004 C 0.50822 0.51032 0.45008 0.0
H1005 H 0.52263 0.53746 0.79556 0.0
H1006 H 0.52101 0.53818 0.67494 0.0
H1007 H 0.48619 0.4904 0.58574 0.0
H1008 H 0.49736 0.48147 0.24477 0.0
H1009 H 0.49902 0.4807 0.36539 0.0
C1010 C 0.01941 0.52313 0.77078 0.0
C1011 C 0.01506 0.50606 0.73595 0.0
C1012 C 0.01852 0.52362 0.84016 0.0
C1013 C 0.0178 0.49224 0.99014 0.0
H1014 H 0.99524 0.5375 0.07385 0.0
C1015 C 1.00016 0.4939 0.27074 0.0
C1016 C 1.0045 0.51097 0.30561 0.0
C1017 C 1.00105 0.49343 0.20136 0.0
C1018 C 1.00177 0.52483 0.05141 0.0
H1019 H 1.00665 0.47597 0.74733 0.0
H1020 H 1.00499 0.47685 0.86822 0.0
H1021 H 0.99819 0.53626 0.95336 0.0
H1022 H 0.01288 0.54107 0.29431 0.0
H1023 H 0.01455 0.54022 0.17341 0.0
H1024 H 0.02138 0.48081 0.08819 0.0
C1025 C 1.00929 0.48984 0.84189 0.0
C1026 C 1.00349 0.52412 0.98219 0.0
C1027 C 0.01019 0.48936 0.77242 0.0
C1028 C 1.00936 0.52768 0.26918 0.0
C1029 C 0.01025 0.52721 0.19971 0.0
C1030 C 0.01609 0.49295 0.05937 0.0
C1031 C 0.01324 0.50705 0.87668 0.0
C1032 C 0.01154 0.50782 0.95057 0.0
C1033 C 1.00632 0.51001 0.16487 0.0
C1034 C 1.00804 0.50925 0.09098 0.0
H1035 H 0.02329 0.53627 0.74446 0.0
H1036 H 0.022 0.53703 0.86521 0.0
H1037 H 0.02433 0.47957 0.9677 0.0
H1038 H 0.9963 0.48075 0.29702 0.0
H1039 H 0.99758 0.48002 0.17628 0.0
loop_
_geom_bond_atom_site_label_1
_geom_bond_atom_site_label_2
_geom_bond_distance
_geom_bond_site_symmetry_2
_ccdc_geom_bond_type
Nd0 C2 2.836 . S
Nd0 O20 2.500 . S
Nd0 O21 2.492 . S
Nd0 O22 2.487 1_545 S
Nd0 O23 2.682 1_545 S
Nd0 O24 2.410 . S
Nd0 O29 2.414 1_455 S
Nd0 O31 2.424 . S
Nd1 C11 2.836 . S
Nd1 O23 2.414 1_655 S
Nd1 O25 2.424 . S
Nd1 O26 2.500 . S
Nd1 O27 2.492 . S
Nd1 O28 2.487 1_565 S
Nd1 O29 2.682 1_565 S
Nd1 O30 2.410 . S
C2 Nd0 2.836 . S
C2 C3 1.498 . S
C2 O20 1.258 . S
C2 O21 1.239 . S
C3 C2 1.498 . S
C3 C4 1.366 . S
C3 C8 1.407 . S
C4 C3 1.366 . S
C4 C5 1.392 . S
C4 H32 0.930 . S
C5 C4 1.392 . S
C5 C6 1.398 . S
C5 H33 0.929 . S
C6 C5 1.398 . S
C6 C7 1.352 . S
C7 C6 1.352 . S
C7 C8 1.384 . S
C7 H34 0.930 . S
C8 C3 1.407 . S
C8 C7 1.384 . S
C8 H35 0.929 . S
C9 O22 1.241 . S
C9 O23 1.273 . S
C10 O24 1.251 . S
C10 O25 1.268 1_445 S
C11 Nd1 2.836 . S
C11 C12 1.498 . S
C11 O26 1.258 . S
C11 O27 1.239 . S
C12 C11 1.498 . S
C12 C13 1.366 . S
C12 C17 1.407 . S
C13 C12 1.366 . S
C13 C14 1.392 . S
C13 H36 0.930 . S
C14 C13 1.392 . S
C14 C15 1.398 . S
C14 H37 0.929 . S
C15 C14 1.398 . S
C15 C16 1.352 . S
C16 C15 1.352 . S
C16 C17 1.384 . S
C16 H38 0.930 . S
C17 C12 1.407 . S
C17 C16 1.384 . S
C17 H39 0.929 . S
C18 O28 1.241 . S
C18 O29 1.273 . S
C19 O30 1.251 . S
C19 O31 1.268 1_665 S
O20 Nd0 2.500 . S
O20 C2 1.258 . S
O21 Nd0 2.492 . S
O21 C2 1.239 . S
O22 Nd0 2.487 1_565 S
O22 C9 1.241 . S
O23 Nd0 2.682 1_565 S
O23 Nd1 2.414 1_455 S
O23 C9 1.273 . S
O24 Nd0 2.410 . S
O24 C10 1.251 . S
O25 Nd1 2.424 . S
O25 C10 1.268 1_665 S
O26 Nd1 2.500 . S
O26 C11 1.258 . S
O27 Nd1 2.492 . S
O27 C11 1.239 . S
O28 Nd1 2.487 1_545 S
O28 C18 1.241 . S
O29 Nd0 2.414 1_655 S
O29 Nd1 2.682 1_545 S
O29 C18 1.273 . S
O30 Nd1 2.410 . S
O30 C19 1.251 . S
O31 Nd0 2.424 . S
O31 C19 1.268 1_445 S
H32 C4 0.930 . S
H33 C5 0.929 . S
H34 C7 0.930 . S
H35 C8 0.929 . S
H36 C13 0.930 . S
H37 C14 0.929 . S
H38 C16 0.930 . S
H39 C17 0.929 . S
Nd40 C42 2.836 . S
Nd40 O60 2.500 . S
Nd40 O61 2.492 . S
Nd40 O62 2.487 . S
Nd40 O63 2.682 . S
Nd40 O64 2.410 . S
Nd40 O69 2.414 . S
Nd40 O71 2.424 . S
Nd41 C51 2.836 . S
Nd41 O63 2.414 . S
Nd41 O65 2.424 . S
Nd41 O66 2.500 . S
Nd41 O67 2.492 . S
Nd41 O68 2.487 . S
Nd41 O69 2.682 . S
Nd41 O70 2.410 . S
C42 Nd40 2.836 . S
C42 C43 1.498 . S
C42 O60 1.258 . S
C42 O61 1.239 . S
C43 C42 1.498 . S
C43 C44 1.366 . S
C43 C48 1.407 . S
C44 C43 1.366 . S
C44 C45 1.392 . S
C44 H72 0.930 . S
C45 C44 1.392 . S
C45 C46 1.398 . S
C45 H73 0.929 . S
C46 C45 1.398 . S
C46 C47 1.352 . S
C47 C46 1.352 . S
C47 C48 1.384 . S
C47 H74 0.930 . S
C48 C43 1.407 . S
C48 C47 1.384 . S
C48 H75 0.929 . S
C49 O62 1.241 . S
C49 O63 1.273 . S
C50 O64 1.251 . S
C50 O65 1.268 . S
C51 Nd41 2.836 . S
C51 C52 1.498 . S
C51 O66 1.258 . S
C51 O67 1.239 . S
C52 C51 1.498 . S
C52 C53 1.366 . S
C52 C57 1.407 . S
C53 C52 1.366 . S
C53 C54 1.392 . S
C53 H76 0.930 . S
C54 C53 1.392 . S
C54 C55 1.398 . S
C54 H77 0.929 . S
C55 C54 1.398 . S
C55 C56 1.352 . S
C56 C55 1.352 . S
C56 C57 1.384 . S
C56 H78 0.930 . S
C57 C52 1.407 . S
C57 C56 1.384 . S
C57 H79 0.929 . S
C58 O68 1.241 . S
C58 O69 1.273 . S
C59 O70 1.251 . S
C59 O71 1.268 . S
O60 Nd40 2.500 . S
O60 C42 1.258 . S
O61 Nd40 2.492 . S
O61 C42 1.239 . S
O62 Nd40 2.487 . S
O62 C49 1.241 . S
O63 Nd40 2.682 . S
O63 Nd41 2.414 . S
O63 C49 1.273 . S
O64 Nd40 2.410 . S
O64 C50 1.251 . S
O65 Nd41 2.424 . S
O65 C50 1.268 . S
O66 Nd41 2.500 . S
O66 C51 1.258 . S
O67 Nd41 2.492 . S
O67 C51 1.239 . S
O68 Nd41 2.487 . S
O68 C58 1.241 . S
O69 Nd40 2.414 . S
O69 Nd41 2.682 . S
O69 C58 1.273 . S
O70 Nd41 2.410 . S
O70 C59 1.251 . S
O71 Nd40 2.424 . S
O71 C59 1.268 . S
H72 C44 0.930 . S
H73 C45 0.929 . S
H74 C47 0.930 . S
H75 C48 0.929 . S
H76 C53 0.930 . S
H77 C54 0.929 . S
H78 C56 0.930 . S
H79 C57 0.929 . S
Nd80 C82 2.836 1_554 S
Nd80 O100 2.500 1_554 S
Nd80 O101 2.492 1_554 S
Nd80 O102 2.487 1_565 S
Nd80 O103 2.682 1_565 S
Nd80 O104 2.410 1_554 S
Nd80 O109 2.414 1_554 S
Nd80 O111 2.424 . S
Nd81 C91 2.836 1_556 S
Nd81 O103 2.414 1_556 S
Nd81 O105 2.424 . S
Nd81 O106 2.500 1_556 S
Nd81 O107 2.492 1_556 S
Nd81 O108 2.487 1_545 S
Nd81 O109 2.682 1_545 S
Nd81 O110 2.410 1_556 S
C82 Nd80 2.836 1_556 S
C82 C83 1.498 . S
C82 O100 1.258 . S
C82 O101 1.239 . S
C83 C82 1.498 . S
C83 C84 1.366 . S
C83 C88 1.407 . S
C84 C83 1.366 . S
C84 C85 1.392 . S
C84 H112 0.930 . S
C85 C84 1.392 . S
C85 C86 1.398 . S
C85 H113 0.929 . S
C86 C85 1.398 . S
C86 C87 1.352 . S
C87 C86 1.352 . S
C87 C88 1.384 . S
C87 H114 0.930 . S
C88 C83 1.407 . S
C88 C87 1.384 . S
C88 H115 0.929 . S
C89 O102 1.241 . S
C89 O103 1.273 . S
C90 O104 1.251 . S
C90 O105 1.268 1_565 S
C91 Nd81 2.836 1_554 S
C91 C92 1.498 . S
C91 O106 1.258 . S
C91 O107 1.239 . S
C92 C91 1.498 . S
C92 C93 1.366 . S
C92 C97 1.407 . S
C93 C92 1.366 . S
C93 C94 1.392 . S
C93 H116 0.930 . S
C94 C93 1.392 . S
C94 C95 1.398 . S
C94 H117 0.929 . S
C95 C94 1.398 . S
C95 C96 1.352 . S
C96 C95 1.352 . S
C96 C97 1.384 . S
C96 H118 0.930 . S
C97 C92 1.407 . S
C97 C96 1.384 . S
C97 H119 0.929 . S
C98 O108 1.241 . S
C98 O109 1.273 . S
C99 O110 1.251 . S
C99 O111 1.268 1_545 S
O100 Nd80 2.500 1_556 S
O100 C82 1.258 . S
O101 Nd80 2.492 1_556 S
O101 C82 1.239 . S
O102 Nd80 2.487 1_545 S
O102 C89 1.241 . S
O103 Nd80 2.682 1_545 S
O103 Nd81 2.414 1_554 S
O103 C89 1.273 . S
O104 Nd80 2.410 1_556 S
O104 C90 1.251 . S
O105 Nd81 2.424 . S
O105 C90 1.268 1_545 S
O106 Nd81 2.500 1_554 S
O106 C91 1.258 . S
O107 Nd81 2.492 1_554 S
O107 C91 1.239 . S
O108 Nd81 2.487 1_565 S
O108 C98 1.241 . S
O109 Nd80 2.414 1_556 S
O109 Nd81 2.682 1_565 S
O109 C98 1.273 . S
O110 Nd81 2.410 1_554 S
O110 C99 1.251 . S
O111 Nd80 2.424 . S
O111 C99 1.268 1_565 S
H112 C84 0.930 . S
H113 C85 0.929 . S
H114 C87 0.930 . S
H115 C88 0.929 . S
H116 C93 0.930 . S
H117 C94 0.929 . S
H118 C96 0.930 . S
H119 C97 0.929 . S
Nd120 C122 2.836 . S
Nd120 O140 2.500 . S
Nd120 O141 2.492 . S
Nd120 O142 2.487 . S
Nd120 O143 2.682 . S
Nd120 O144 2.410 . S
Nd120 O149 2.414 . S
Nd120 O151 2.424 . S
Nd121 C131 2.836 . S
Nd121 O143 2.414 . S
Nd121 O145 2.424 . S
Nd121 O146 2.500 . S
Nd121 O147 2.492 . S
Nd121 O148 2.487 . S
Nd121 O149 2.682 . S
Nd121 O150 2.410 . S
C122 Nd120 2.836 . S
C122 C123 1.498 . S
C122 O140 1.258 . S
C122 O141 1.239 . S
C123 C122 1.498 . S
C123 C124 1.366 . S
C123 C128 1.407 . S
C124 C123 1.366 . S
C124 C125 1.392 . S
C124 H152 0.930 . S
C125 C124 1.392 . S
C125 C126 1.398 . S
C125 H153 0.929 . S
C126 C125 1.398 . S
C126 C127 1.352 . S
C127 C126 1.352 . S
C127 C128 1.384 . S
C127 H154 0.930 . S
C128 C123 1.407 . S
C128 C127 1.384 . S
C128 H155 0.929 . S
C129 O142 1.241 . S
C129 O143 1.273 . S
C130 O144 1.251 . S
C130 O145 1.268 . S
C131 Nd121 2.836 . S
C131 C132 1.498 . S
C131 O146 1.258 . S
C131 O147 1.239 . S
C132 C131 1.498 . S
C132 C133 1.366 . S
C132 C137 1.407 . S
C133 C132 1.366 . S
C133 C134 1.392 . S
C133 H156 0.930 . S
C134 C133 1.392 . S
C134 C135 1.398 . S
C134 H157 0.929 . S
C135 C134 1.398 . S
C135 C136 1.352 . S
C136 C135 1.352 . S
C136 C137 1.384 . S
C136 H158 0.930 . S
C137 C132 1.407 . S
C137 C136 1.384 . S
C137 H159 0.929 . S
C138 O148 1.241 . S
C138 O149 1.273 . S
C139 O150 1.251 . S
C139 O151 1.268 . S
O140 Nd120 2.500 . S
O140 C122 1.258 . S
O141 Nd120 2.492 . S
O141 C122 1.239 . S
O142 Nd120 2.487 . S
O142 C129 1.241 . S
O143 Nd120 2.682 . S
O143 Nd121 2.414 . S
O143 C129 1.273 . S
O144 Nd120 2.410 . S
O144 C130 1.251 . S
O145 Nd121 2.424 . S
O145 C130 1.268 . S
O146 Nd121 2.500 . S
O146 C131 1.258 . S
O147 Nd121 2.492 . S
O147 C131 1.239 . S
O148 Nd121 2.487 . S
O148 C138 1.241 . S
O149 Nd120 2.414 . S
O149 Nd121 2.682 . S
O149 C138 1.273 . S
O150 Nd121 2.410 . S
O150 C139 1.251 . S
O151 Nd120 2.424 . S
O151 C139 1.268 . S
H152 C124 0.930 . S
H153 C125 0.929 . S
H154 C127 0.930 . S
H155 C128 0.929 . S
H156 C133 0.930 . S
H157 C134 0.929 . S
H158 C136 0.930 . S
H159 C137 0.929 . S
Nd160 C162 2.836 . S
Nd160 O180 2.500 . S
Nd160 O181 2.492 . S
Nd160 O182 2.487 . S
Nd160 O183 2.682 . S
Nd160 O184 2.410 . S
Nd160 O189 2.414 . S
Nd160 O191 2.424 . S
Nd161 C171 2.836 . S
Nd161 O183 2.414 . S
Nd161 O185 2.424 . S
Nd161 O186 2.500 . S
Nd161 O187 2.492 . S
Nd161 O188 2.487 . S
Nd161 O189 2.682 . S
Nd161 O190 2.410 . S
C162 Nd160 2.836 . S
C162 C163 1.498 . S
C162 O180 1.258 . S
C162 O181 1.239 . S
C163 C162 1.498 . S
C163 C164 1.366 . S
C163 C168 1.407 . S
C164 C163 1.366 . S
C164 C165 1.392 . S
C164 H192 0.930 . S
C165 C164 1.392 . S
C165 C166 1.398 . S
C165 H193 0.929 . S
C166 C165 1.398 . S
C166 C167 1.352 . S
C167 C166 1.352 . S
C167 C168 1.384 . S
C167 H194 0.930 . S
C168 C163 1.407 . S
C168 C167 1.384 . S
C168 H195 0.929 . S
C169 O182 1.241 . S
C169 O183 1.273 . S
C170 O184 1.251 . S
C170 O185 1.268 . S
C171 Nd161 2.836 . S
C171 C172 1.498 . S
C171 O186 1.258 . S
C171 O187 1.239 . S
C172 C171 1.498 . S
C172 C173 1.366 . S
C172 C177 1.407 . S
C173 C172 1.366 . S
C173 C174 1.392 . S
C173 H196 0.930 . S
C174 C173 1.392 . S
C174 C175 1.398 . S
C174 H197 0.929 . S
C175 C174 1.398 . S
C175 C176 1.352 . S
C176 C175 1.352 . S
C176 C177 1.384 . S
C176 H198 0.930 . S
C177 C172 1.407 . S
C177 C176 1.384 . S
C177 H199 0.929 . S
C178 O188 1.241 . S
C178 O189 1.273 . S
C179 O190 1.251 . S
C179 O191 1.268 . S
O180 Nd160 2.500 . S
O180 C162 1.258 . S
O181 Nd160 2.492 . S
O181 C162 1.239 . S
O182 Nd160 2.487 . S
O182 C169 1.241 . S
O183 Nd160 2.682 . S
O183 Nd161 2.414 . S
O183 C169 1.273 . S
O184 Nd160 2.410 . S
O184 C170 1.251 . S
O185 Nd161 2.424 . S
O185 C170 1.268 . S
O186 Nd161 2.500 . S
O186 C171 1.258 . S
O187 Nd161 2.492 . S
O187 C171 1.239 . S
O188 Nd161 2.487 . S
O188 C178 1.241 . S
O189 Nd160 2.414 . S
O189 Nd161 2.682 . S
O189 C178 1.273 . S
O190 Nd161 2.410 . S
O190 C179 1.251 . S
O191 Nd160 2.424 . S
O191 C179 1.268 . S
H192 C164 0.930 . S
H193 C165 0.929 . S
H194 C167 0.930 . S
H195 C168 0.929 . S
H196 C173 0.930 . S
H197 C174 0.929 . S
H198 C176 0.930 . S
H199 C177 0.929 . S
Nd200 C202 2.836 . S
Nd200 O220 2.500 . S
Nd200 O221 2.492 . S
Nd200 O222 2.487 . S
Nd200 O223 2.682 . S
Nd200 O224 2.410 . S
Nd200 O229 2.414 . S
Nd200 O231 2.424 . S
Nd201 C211 2.836 . S
Nd201 O223 2.414 . S
Nd201 O225 2.424 . S
Nd201 O226 2.500 . S
Nd201 O227 2.492 . S
Nd201 O228 2.487 . S
Nd201 O229 2.682 . S
Nd201 O230 2.410 . S
C202 Nd200 2.836 . S
C202 C203 1.498 . S
C202 O220 1.258 . S
C202 O221 1.239 . S
C203 C202 1.498 . S
C203 C204 1.366 . S
C203 C208 1.407 . S
C204 C203 1.366 . S
C204 C205 1.392 . S
C204 H232 0.930 . S
C205 C204 1.392 . S
C205 C206 1.398 . S
C205 H233 0.929 . S
C206 C205 1.398 . S
C206 C207 1.352 . S
C207 C206 1.352 . S
C207 C208 1.384 . S
C207 H234 0.930 . S
C208 C203 1.407 . S
C208 C207 1.384 . S
C208 H235 0.929 . S
C209 O222 1.241 . S
C209 O223 1.273 . S
C210 O224 1.251 . S
C210 O225 1.268 . S
C211 Nd201 2.836 . S
C211 C212 1.498 . S
C211 O226 1.258 . S
C211 O227 1.239 . S
C212 C211 1.498 . S
C212 C213 1.366 . S
C212 C217 1.407 . S
C213 C212 1.366 . S
C213 C214 1.392 . S
C213 H236 0.930 . S
C214 C213 1.392 . S
C214 C215 1.398 . S
C214 H237 0.929 . S
C215 C214 1.398 . S
C215 C216 1.352 . S
C216 C215 1.352 . S
C216 C217 1.384 . S
C216 H238 0.930 . S
C217 C212 1.407 . S
C217 C216 1.384 . S
C217 H239 0.929 . S
C218 O228 1.241 . S
C218 O229 1.273 . S
C219 O230 1.251 . S
C219 O231 1.268 . S
O220 Nd200 2.500 . S
O220 C202 1.258 . S
O221 Nd200 2.492 . S
O221 C202 1.239 . S
O222 Nd200 2.487 . S
O222 C209 1.241 . S
O223 Nd200 2.682 . S
O223 Nd201 2.414 . S
O223 C209 1.273 . S
O224 Nd200 2.410 . S
O224 C210 1.251 . S
O225 Nd201 2.424 . S
O225 C210 1.268 . S
O226 Nd201 2.500 . S
O226 C211 1.258 . S
O227 Nd201 2.492 . S
O227 C211 1.239 . S
O228 Nd201 2.487 . S
O228 C218 1.241 . S
O229 Nd200 2.414 . S
O229 Nd201 2.682 . S
O229 C218 1.273 . S
O230 Nd201 2.410 . S
O230 C219 1.251 . S
O231 Nd200 2.424 . S
O231 C219 1.268 . S
H232 C204 0.930 . S
H233 C205 0.929 . S
H234 C207 0.930 . S
H235 C208 0.929 . S
H236 C213 0.930 . S
H237 C214 0.929 . S
H238 C216 0.930 . S
H239 C217 0.929 . S
Nd240 C242 2.836 1_554 S
Nd240 O260 2.500 1_554 S
Nd240 O261 2.492 1_554 S
Nd240 O262 2.487 . S
Nd240 O263 2.682 . S
Nd240 O264 2.410 1_554 S
Nd240 O269 2.414 1_554 S
Nd240 O271 2.424 . S
Nd241 C251 2.836 1_556 S
Nd241 O263 2.414 1_556 S
Nd241 O265 2.424 . S
Nd241 O266 2.500 1_556 S
Nd241 O267 2.492 1_556 S
Nd241 O268 2.487 . S
Nd241 O269 2.682 . S
Nd241 O270 2.410 1_556 S
C242 Nd240 2.836 1_556 S
C242 C243 1.498 . S
C242 O260 1.258 . S
C242 O261 1.239 . S
C243 C242 1.498 . S
C243 C244 1.366 . S
C243 C248 1.407 . S
C244 C243 1.366 . S
C244 C245 1.392 . S
C244 H272 0.930 . S
C245 C244 1.392 . S
C245 C246 1.398 . S
C245 H273 0.929 . S
C246 C245 1.398 . S
C246 C247 1.352 . S
C247 C246 1.352 . S
C247 C248 1.384 . S
C247 H274 0.930 . S
C248 C243 1.407 . S
C248 C247 1.384 . S
C248 H275 0.929 . S
C249 O262 1.241 . S
C249 O263 1.273 . S
C250 O264 1.251 . S
C250 O265 1.268 . S
C251 Nd241 2.836 1_554 S
C251 C252 1.498 . S
C251 O266 1.258 . S
C251 O267 1.239 . S
C252 C251 1.498 . S
C252 C253 1.366 . S
C252 C257 1.407 . S
C253 C252 1.366 . S
C253 C254 1.392 . S
C253 H276 0.930 . S
C254 C253 1.392 . S
C254 C255 1.398 . S
C254 H277 0.929 . S
C255 C254 1.398 . S
C255 C256 1.352 . S
C256 C255 1.352 . S
C256 C257 1.384 . S
C256 H278 0.930 . S
C257 C252 1.407 . S
C257 C256 1.384 . S
C257 H279 0.929 . S
C258 O268 1.241 . S
C258 O269 1.273 . S
C259 O270 1.251 . S
C259 O271 1.268 . S
O260 Nd240 2.500 1_556 S
O260 C242 1.258 . S
O261 Nd240 2.492 1_556 S
O261 C242 1.239 . S
O262 Nd240 2.487 . S
O262 C249 1.241 . S
O263 Nd240 2.682 . S
O263 Nd241 2.414 1_554 S
O263 C249 1.273 . S
O264 Nd240 2.410 1_556 S
O264 C250 1.251 . S
O265 Nd241 2.424 . S
O265 C250 1.268 . S
O266 Nd241 2.500 1_554 S
O266 C251 1.258 . S
O267 Nd241 2.492 1_554 S
O267 C251 1.239 . S
O268 Nd241 2.487 . S
O268 C258 1.241 . S
O269 Nd240 2.414 1_556 S
O269 Nd241 2.682 . S
O269 C258 1.273 . S
O270 Nd241 2.410 1_554 S
O270 C259 1.251 . S
O271 Nd240 2.424 . S
O271 C259 1.268 . S
H272 C244 0.930 . S
H273 C245 0.929 . S
H274 C247 0.930 . S
H275 C248 0.929 . S
H276 C253 0.930 . S
H277 C254 0.929 . S
H278 C256 0.930 . S
H279 C257 0.929 . S
Nd280 C282 2.836 . S
Nd280 O300 2.500 . S
Nd280 O301 2.492 . S
Nd280 O302 2.487 . S
Nd280 O303 2.682 . S
Nd280 O304 2.410 . S
Nd280 O309 2.414 1_655 S
Nd280 O311 2.424 . S
Nd281 C291 2.836 . S
Nd281 O303 2.414 1_455 S
Nd281 O305 2.424 . S
Nd281 O306 2.500 . S
Nd281 O307 2.492 . S
Nd281 O308 2.487 . S
Nd281 O309 2.682 . S
Nd281 O310 2.410 . S
C282 Nd280 2.836 . S
C282 C283 1.498 . S
C282 O300 1.258 . S
C282 O301 1.239 . S
C283 C282 1.498 . S
C283 C284 1.366 . S
C283 C288 1.407 . S
C284 C283 1.366 . S
C284 C285 1.392 . S
C284 H312 0.930 . S
C285 C284 1.392 . S
C285 C286 1.398 . S
C285 H313 0.929 . S
C286 C285 1.398 . S
C286 C287 1.352 . S
C287 C286 1.352 . S
C287 C288 1.384 . S
C287 H314 0.930 . S
C288 C283 1.407 . S
C288 C287 1.384 . S
C288 H315 0.929 . S
C289 O302 1.241 . S
C289 O303 1.273 . S
C290 O304 1.251 . S
C290 O305 1.268 1_655 S
C291 Nd281 2.836 . S
C291 C292 1.498 . S
C291 O306 1.258 . S
C291 O307 1.239 . S
C292 C291 1.498 . S
C292 C293 1.366 . S
C292 C297 1.407 . S
C293 C292 1.366 . S
C293 C294 1.392 . S
C293 H316 0.930 . S
C294 C293 1.392 . S
C294 C295 1.398 . S
C294 H317 0.929 . S
C295 C294 1.398 . S
C295 C296 1.352 . S
C296 C295 1.352 . S
C296 C297 1.384 . S
C296 H318 0.930 . S
C297 C292 1.407 . S
C297 C296 1.384 . S
C297 H319 0.929 . S
C298 O308 1.241 . S
C298 O309 1.273 . S
C299 O310 1.251 . S
C299 O311 1.268 1_455 S
O300 Nd280 2.500 . S
O300 C282 1.258 . S
O301 Nd280 2.492 . S
O301 C282 1.239 . S
O302 Nd280 2.487 . S
O302 C289 1.241 . S
O303 Nd280 2.682 . S
O303 Nd281 2.414 1_655 S
O303 C289 1.273 . S
O304 Nd280 2.410 . S
O304 C290 1.251 . S
O305 Nd281 2.424 . S
O305 C290 1.268 1_455 S
O306 Nd281 2.500 . S
O306 C291 1.258 . S
O307 Nd281 2.492 . S
O307 C291 1.239 . S
O308 Nd281 2.487 . S
O308 C298 1.241 . S
O309 Nd280 2.414 1_455 S
O309 Nd281 2.682 . S
O309 C298 1.273 . S
O310 Nd281 2.410 . S
O310 C299 1.251 . S
O311 Nd280 2.424 . S
O311 C299 1.268 1_655 S
H312 C284 0.930 . S
H313 C285 0.929 . S
H314 C287 0.930 . S
H315 C288 0.929 . S
H316 C293 0.930 . S
H317 C294 0.929 . S
H318 C296 0.930 . S
H319 C297 0.929 . S
C320 C321 1.349 . S
C320 C322 1.327 . S
C320 H345 0.950 . S
C321 C320 1.349 . S
C321 C337 1.349 . S
C322 C320 1.327 . S
C322 C341 1.429 . S
C322 H346 0.950 . S
C323 C340 1.574 . S
C323 C342 1.368 . S
C323 H347 0.949 . S
H324 C328 0.949 . S
C325 C326 1.349 . S
C325 C327 1.327 . S
C325 H348 0.950 . S
C326 C325 1.349 . S
C326 C338 1.349 . S
C327 C325 1.327 . S
C327 C343 1.429 . S
C327 H349 0.950 . S
C328 H324 0.949 . S
C328 C336 1.574 . S
C328 C344 1.368 . S
H329 C337 0.950 . S
H330 C335 0.950 . S
H331 C336 0.949 . S
H332 C338 0.950 . S
H333 C339 0.950 . S
H334 C340 0.949 . S
C335 H330 0.950 . S
C335 C337 1.327 . S
C335 C341 1.429 . S
C336 C328 1.574 . S
C336 H331 0.949 . S
C336 C342 1.368 . S
C337 C321 1.349 . S
C337 H329 0.950 . S
C337 C335 1.327 . S
C338 C326 1.349 . S
C338 H332 0.950 . S
C338 C339 1.327 . S
C339 H333 0.950 . S
C339 C338 1.327 . S
C339 C343 1.429 . S
C340 C323 1.574 . S
C340 H334 0.949 . S
C340 C344 1.368 . S
C341 C322 1.429 . S
C341 C335 1.429 . S
C341 C342 1.523 . S
C342 C323 1.368 . S
C342 C336 1.368 . S
C342 C341 1.523 . S
C343 C327 1.429 . S
C343 C339 1.429 . S
C343 C344 1.523 . S
C344 C328 1.368 . S
C344 C340 1.368 . S
C344 C343 1.523 . S
H345 C320 0.950 . S
H346 C322 0.950 . S
H347 C323 0.949 . S
H348 C325 0.950 . S
H349 C327 0.950 . S
C350 C351 1.349 . S
C350 C352 1.327 . S
C350 H375 0.950 . S
C351 C350 1.349 . S
C351 C367 1.349 . S
C352 C350 1.327 . S
C352 C371 1.429 . S
C352 H376 0.950 . S
C353 C370 1.574 . S
C353 C372 1.368 . S
C353 H377 0.949 . S
H354 C358 0.949 . S
C355 C356 1.349 . S
C355 C357 1.327 . S
C355 H378 0.950 . S
C356 C355 1.349 . S
C356 C368 1.349 . S
C357 C355 1.327 . S
C357 C373 1.429 . S
C357 H379 0.950 . S
C358 H354 0.949 . S
C358 C366 1.574 . S
C358 C374 1.368 . S
H359 C367 0.950 . S
H360 C365 0.950 . S
H361 C366 0.949 . S
H362 C368 0.950 . S
H363 C369 0.950 . S
H364 C370 0.949 . S
C365 H360 0.950 . S
C365 C367 1.327 . S
C365 C371 1.429 . S
C366 C358 1.574 . S
C366 H361 0.949 . S
C366 C372 1.368 . S
C367 C351 1.349 . S
C367 H359 0.950 . S
C367 C365 1.327 . S
C368 C356 1.349 . S
C368 H362 0.950 . S
C368 C369 1.327 . S
C369 H363 0.950 . S
C369 C368 1.327 . S
C369 C373 1.429 . S
C370 C353 1.574 . S
C370 H364 0.949 . S
C370 C374 1.368 . S
C371 C352 1.429 . S
C371 C365 1.429 . S
C371 C372 1.523 . S
C372 C353 1.368 . S
C372 C366 1.368 . S
C372 C371 1.523 . S
C373 C357 1.429 . S
C373 C369 1.429 . S
C373 C374 1.523 . S
C374 C358 1.368 . S
C374 C370 1.368 . S
C374 C373 1.523 . S
H375 C350 0.950 . S
H376 C352 0.950 . S
H377 C353 0.949 . S
H378 C355 0.950 . S
H379 C357 0.950 . S
C380 C381 1.349 . S
C380 C382 1.327 . S
C380 H405 0.950 . S
C381 C380 1.349 . S
C381 C397 1.349 . S
C382 C380 1.327 . S
C382 C401 1.429 . S
C382 H406 0.950 . S
C383 C400 1.574 . S
C383 C402 1.368 . S
C383 H407 0.949 . S
H384 C388 0.949 . S
C385 C386 1.349 . S
C385 C387 1.327 . S
C385 H408 0.950 . S
C386 C385 1.349 . S
C386 C398 1.349 . S
C387 C385 1.327 . S
C387 C403 1.429 . S
C387 H409 0.950 . S
C388 H384 0.949 . S
C388 C396 1.574 . S
C388 C404 1.368 . S
H389 C397 0.950 . S
H390 C395 0.950 . S
H391 C396 0.949 . S
H392 C398 0.950 . S
H393 C399 0.950 . S
H394 C400 0.949 . S
C395 H390 0.950 . S
C395 C397 1.327 . S
C395 C401 1.429 . S
C396 C388 1.574 . S
C396 H391 0.949 . S
C396 C402 1.368 . S
C397 C381 1.349 . S
C397 H389 0.950 . S
C397 C395 1.327 . S
C398 C386 1.349 . S
C398 H392 0.950 . S
C398 C399 1.327 . S
C399 H393 0.950 . S
C399 C398 1.327 . S
C399 C403 1.429 . S
C400 C383 1.574 . S
C400 H394 0.949 . S
C400 C404 1.368 . S
C401 C382 1.429 . S
C401 C395 1.429 . S
C401 C402 1.523 . S
C402 C383 1.368 . S
C402 C396 1.368 . S
C402 C401 1.523 . S
C403 C387 1.429 . S
C403 C399 1.429 . S
C403 C404 1.523 . S
C404 C388 1.368 . S
C404 C400 1.368 . S
C404 C403 1.523 . S
H405 C380 0.950 . S
H406 C382 0.950 . S
H407 C383 0.949 . S
H408 C385 0.950 . S
H409 C387 0.950 . S
C410 C411 1.349 1_556 S
C410 C412 1.327 . S
C410 H435 0.950 . S
C411 C410 1.349 1_554 S
C411 C427 1.349 . S
C412 C410 1.327 . S
C412 C431 1.429 1_556 S
C412 H436 0.950 . S
C413 C430 1.574 . S
C413 C432 1.368 . S
C413 H437 0.949 . S
H414 C418 0.949 . S
C415 C416 1.349 . S
C415 C417 1.327 . S
C415 H438 0.950 . S
C416 C415 1.349 . S
C416 C428 1.349 . S
C417 C415 1.327 . S
C417 C433 1.429 . S
C417 H439 0.950 . S
C418 H414 0.949 . S
C418 C426 1.574 . S
C418 C434 1.368 1_556 S
H419 C427 0.950 . S
H420 C425 0.950 . S
H421 C426 0.949 . S
H422 C428 0.950 1_556 S
H423 C429 0.950 1_556 S
H424 C430 0.949 . S
C425 H420 0.950 . S
C425 C427 1.327 . S
C425 C431 1.429 . S
C426 C418 1.574 . S
C426 H421 0.949 . S
C426 C432 1.368 1_556 S
C427 C411 1.349 . S
C427 H419 0.950 . S
C427 C425 1.327 . S
C428 C416 1.349 . S
C428 H422 0.950 1_554 S
C428 C429 1.327 . S
C429 H423 0.950 1_554 S
C429 C428 1.327 . S
C429 C433 1.429 . S
C430 C413 1.574 . S
C430 H424 0.949 . S
C430 C434 1.368 . S
C431 C412 1.429 1_554 S
C431 C425 1.429 . S
C431 C432 1.523 . S
C432 C413 1.368 . S
C432 C426 1.368 1_554 S
C432 C431 1.523 . S
C433 C417 1.429 . S
C433 C429 1.429 . S
C433 C434 1.523 . S
C434 C418 1.368 1_554 S
C434 C430 1.368 . S
C434 C433 1.523 . S
H435 C410 0.950 . S
H436 C412 0.950 . S
H437 C413 0.949 . S
H438 C415 0.950 . S
H439 C417 0.950 . S
C440 C441 1.349 . S
C440 C442 1.327 . S
C440 H465 0.950 . S
C441 C440 1.349 . S
C441 C457 1.349 . S
C442 C440 1.327 . S
C442 C461 1.429 . S
C442 H466 0.950 . S
C443 C460 1.574 . S
C443 C462 1.368 . S
C443 H467 0.949 . S
H444 C448 0.949 . S
C445 C446 1.349 . S
C445 C447 1.327 . S
C445 H468 0.950 . S
C446 C445 1.349 . S
C446 C458 1.349 . S
C447 C445 1.327 . S
C447 C463 1.429 . S
C447 H469 0.950 . S
C448 H444 0.949 . S
C448 C456 1.574 . S
C448 C464 1.368 . S
H449 C457 0.950 . S
H450 C455 0.950 . S
H451 C456 0.949 . S
H452 C458 0.950 . S
H453 C459 0.950 . S
H454 C460 0.949 . S
C455 H450 0.950 . S
C455 C457 1.327 . S
C455 C461 1.429 . S
C456 C448 1.574 . S
C456 H451 0.949 . S
C456 C462 1.368 . S
C457 C441 1.349 . S
C457 H449 0.950 . S
C457 C455 1.327 . S
C458 C446 1.349 . S
C458 H452 0.950 . S
C458 C459 1.327 . S
C459 H453 0.950 . S
C459 C458 1.327 . S
C459 C463 1.429 . S
C460 C443 1.574 . S
C460 H454 0.949 . S
C460 C464 1.368 . S
C461 C442 1.429 . S
C461 C455 1.429 . S
C461 C462 1.523 . S
C462 C443 1.368 . S
C462 C456 1.368 . S
C462 C461 1.523 . S
C463 C447 1.429 . S
C463 C459 1.429 . S
C463 C464 1.523 . S
C464 C448 1.368 . S
C464 C460 1.368 . S
C464 C463 1.523 . S
H465 C440 0.950 . S
H466 C442 0.950 . S
H467 C443 0.949 . S
H468 C445 0.950 . S
H469 C447 0.950 . S
C470 C471 1.349 . S
C470 C472 1.327 . S
C470 H495 0.950 . S
C471 C470 1.349 . S
C471 C487 1.349 . S
C472 C470 1.327 . S
C472 C491 1.429 . S
C472 H496 0.950 . S
C473 C490 1.574 . S
C473 C492 1.368 . S
C473 H497 0.949 . S
H474 C478 0.949 . S
C475 C476 1.349 . S
C475 C477 1.327 . S
C475 H498 0.950 . S
C476 C475 1.349 . S
C476 C488 1.349 . S
C477 C475 1.327 . S
C477 C493 1.429 . S
C477 H499 0.950 . S
C478 H474 0.949 . S
C478 C486 1.574 . S
C478 C494 1.368 . S
H479 C487 0.950 . S
H480 C485 0.950 . S
H481 C486 0.949 . S
H482 C488 0.950 . S
H483 C489 0.950 . S
H484 C490 0.949 . S
C485 H480 0.950 . S
C485 C487 1.327 . S
C485 C491 1.429 . S
C486 C478 1.574 . S
C486 H481 0.949 . S
C486 C492 1.368 . S
C487 C471 1.349 . S
C487 H479 0.950 . S
C487 C485 1.327 . S
C488 C476 1.349 . S
C488 H482 0.950 . S
C488 C489 1.327 . S
C489 H483 0.950 . S
C489 C488 1.327 . S
C489 C493 1.429 . S
C490 C473 1.574 . S
C490 H484 0.949 . S
C490 C494 1.368 . S
C491 C472 1.429 . S
C491 C485 1.429 . S
C491 C492 1.523 . S
C492 C473 1.368 . S
C492 C486 1.368 . S
C492 C491 1.523 . S
C493 C477 1.429 . S
C493 C489 1.429 . S
C493 C494 1.523 . S
C494 C478 1.368 . S
C494 C490 1.368 . S
C494 C493 1.523 . S
H495 C470 0.950 . S
H496 C472 0.950 . S
H497 C473 0.949 . S
H498 C475 0.950 . S
H499 C477 0.950 . S
C500 C501 1.349 . S
C500 C502 1.327 . S
C500 H525 0.950 . S
C501 C500 1.349 . S
C501 C517 1.349 . S
C502 C500 1.327 . S
C502 C521 1.429 . S
C502 H526 0.950 . S
C503 C520 1.574 . S
C503 C522 1.368 . S
C503 H527 0.949 . S
H504 C508 0.949 . S
C505 C506 1.349 . S
C505 C507 1.327 . S
C505 H528 0.950 . S
C506 C505 1.349 . S
C506 C518 1.349 . S
C507 C505 1.327 . S
C507 C523 1.429 . S
C507 H529 0.950 . S
C508 H504 0.949 . S
C508 C516 1.574 . S
C508 C524 1.368 . S
H509 C517 0.950 . S
H510 C515 0.950 . S
H511 C516 0.949 . S
H512 C518 0.950 . S
H513 C519 0.950 . S
H514 C520 0.949 . S
C515 H510 0.950 . S
C515 C517 1.327 . S
C515 C521 1.429 . S
C516 C508 1.574 . S
C516 H511 0.949 . S
C516 C522 1.368 . S
C517 C501 1.349 . S
C517 H509 0.950 . S
C517 C515 1.327 . S
C518 C506 1.349 . S
C518 H512 0.950 . S
C518 C519 1.327 . S
C519 H513 0.950 . S
C519 C518 1.327 . S
C519 C523 1.429 . S
C520 C503 1.574 . S
C520 H514 0.949 . S
C520 C524 1.368 . S
C521 C502 1.429 . S
C521 C515 1.429 . S
C521 C522 1.523 . S
C522 C503 1.368 . S
C522 C516 1.368 . S
C522 C521 1.523 . S
C523 C507 1.429 . S
C523 C519 1.429 . S
C523 C524 1.523 . S
C524 C508 1.368 . S
C524 C520 1.368 . S
C524 C523 1.523 . S
H525 C500 0.950 . S
H526 C502 0.950 . S
H527 C503 0.949 . S
H528 C505 0.950 . S
H529 C507 0.950 . S
C530 C531 1.349 . S
C530 C532 1.327 . S
C530 H555 0.950 . S
C531 C530 1.349 . S
C531 C547 1.349 . S
C532 C530 1.327 . S
C532 C551 1.429 . S
C532 H556 0.950 . S
C533 C550 1.573 1_556 S
C533 C552 1.378 . S
C533 H557 0.941 1_556 S
H534 C538 0.949 . S
C535 C536 1.349 1_554 S
C535 C537 1.327 . S
C535 H558 0.950 . S
C536 C535 1.349 1_556 S
C536 C548 1.349 . S
C537 C535 1.327 . S
C537 C553 1.429 1_554 S
C537 H559 0.950 . S
C538 H534 0.949 . S
C538 C546 1.574 . S
C538 C554 1.368 . S
H539 C547 0.950 1_554 S
H540 C545 0.950 1_554 S
H541 C546 0.949 . S
H542 C548 0.950 . S
H543 C549 0.950 . S
H544 C550 0.949 . S
C545 H540 0.950 1_556 S
C545 C547 1.327 . S
C545 C551 1.429 . S
C546 C538 1.574 . S
C546 H541 0.949 . S
C546 C552 1.368 . S
C547 C531 1.349 . S
C547 H539 0.950 1_556 S
C547 C545 1.327 . S
C548 C536 1.349 . S
C548 H542 0.950 . S
C548 C549 1.327 . S
C549 H543 0.950 . S
C549 C548 1.327 . S
C549 C553 1.429 . S
C550 C533 1.573 1_554 S
C550 H544 0.949 . S
C550 C554 1.368 1_554 S
C551 C532 1.429 . S
C551 C545 1.429 . S
C551 C552 1.523 . S
C552 C533 1.378 . S
C552 C546 1.368 . S
C552 C551 1.523 . S
C553 C537 1.429 1_556 S
C553 C549 1.429 . S
C553 C554 1.523 . S
C554 C538 1.368 . S
C554 C550 1.368 1_556 S
C554 C553 1.523 . S
H555 C530 0.950 . S
H556 C532 0.950 . S
H557 C533 0.941 1_554 S
H558 C535 0.950 . S
H559 C537 0.950 . S
C560 C561 1.349 . S
C560 C562 1.327 . S
C560 H585 0.950 . S
C561 C560 1.349 . S
C561 C577 1.349 . S
C562 C560 1.327 . S
C562 C581 1.429 . S
C562 H586 0.950 . S
C563 C580 1.574 . S
C563 C582 1.368 . S
C563 H587 0.949 . S
H564 C568 0.949 . S
C565 C566 1.349 . S
C565 C567 1.327 . S
C565 H588 0.950 . S
C566 C565 1.349 . S
C566 C578 1.349 . S
C567 C565 1.327 . S
C567 C583 1.429 . S
C567 H589 0.950 . S
C568 H564 0.949 . S
C568 C576 1.574 . S
C568 C584 1.368 . S
H569 C577 0.950 . S
H570 C575 0.950 . S
H571 C576 0.949 . S
H572 C578 0.950 . S
H573 C579 0.950 . S
H574 C580 0.949 . S
C575 H570 0.950 . S
C575 C577 1.327 . S
C575 C581 1.429 . S
C576 C568 1.574 . S
C576 H571 0.949 . S
C576 C582 1.368 . S
C577 C561 1.349 . S
C577 H569 0.950 . S
C577 C575 1.327 . S
C578 C566 1.349 . S
C578 H572 0.950 . S
C578 C579 1.327 . S
C579 H573 0.950 . S
C579 C578 1.327 . S
C579 C583 1.429 . S
C580 C563 1.574 . S
C580 H574 0.949 . S
C580 C584 1.368 . S
C581 C562 1.429 . S
C581 C575 1.429 . S
C581 C582 1.523 . S
C582 C563 1.368 . S
C582 C576 1.368 . S
C582 C581 1.523 . S
C583 C567 1.429 . S
C583 C579 1.429 . S
C583 C584 1.523 . S
C584 C568 1.368 . S
C584 C580 1.368 . S
C584 C583 1.523 . S
H585 C560 0.950 . S
H586 C562 0.950 . S
H587 C563 0.949 . S
H588 C565 0.950 . S
H589 C567 0.950 . S
C590 C591 1.349 . S
C590 C592 1.327 . S
C590 H615 0.950 . S
C591 C590 1.349 . S
C591 C607 1.349 . S
C592 C590 1.327 . S
C592 C611 1.429 . S
C592 H616 0.950 . S
C593 C610 1.574 . S
C593 C612 1.369 1_556 S
C593 H617 0.949 . S
H594 C598 0.949 . S
C595 C596 1.349 1_556 S
C595 C597 1.327 . S
C595 H618 0.950 . S
C596 C595 1.349 1_554 S
C596 C608 1.349 . S
C597 C595 1.327 . S
C597 C613 1.429 1_556 S
C597 H619 0.950 . S
C598 H594 0.949 . S
C598 C606 1.574 . S
C598 C614 1.368 . S
H599 C607 0.950 1_556 S
H600 C605 0.950 1_556 S
H601 C606 0.949 . S
H602 C608 0.950 . S
H603 C609 0.950 . S
H604 C610 0.949 . S
C605 H600 0.950 1_554 S
C605 C607 1.327 . S
C605 C611 1.429 . S
C606 C598 1.574 . S
C606 H601 0.949 . S
C606 C612 1.368 . S
C607 C591 1.349 . S
C607 H599 0.950 1_554 S
C607 C605 1.327 . S
C608 C596 1.349 . S
C608 H602 0.950 . S
C608 C609 1.327 . S
C609 H603 0.950 . S
C609 C608 1.327 . S
C609 C613 1.429 . S
C610 C593 1.574 . S
C610 H604 0.949 . S
C610 C614 1.368 1_556 S
C611 C592 1.429 . S
C611 C605 1.429 . S
C611 C612 1.523 . S
C612 C593 1.369 1_554 S
C612 C606 1.368 . S
C612 C611 1.523 . S
C613 C597 1.429 1_554 S
C613 C609 1.429 . S
C613 C614 1.523 . S
C614 C598 1.368 . S
C614 C610 1.368 1_554 S
C614 C613 1.523 . S
H615 C590 0.950 . S
H616 C592 0.950 . S
H617 C593 0.949 . S
H618 C595 0.950 . S
H619 C597 0.950 . S
C620 C621 1.349 . S
C620 C622 1.327 . S
C620 H645 0.950 . S
C621 C620 1.349 . S
C621 C637 1.349 . S
C622 C620 1.327 . S
C622 C641 1.429 . S
C622 H646 0.950 . S
C623 C640 1.574 . S
C623 C642 1.368 . S
C623 H647 0.949 . S
H624 C628 0.949 . S
C625 C626 1.349 . S
C625 C627 1.327 . S
C625 H648 0.950 . S
C626 C625 1.349 . S
C626 C638 1.349 . S
C627 C625 1.327 . S
C627 C643 1.429 . S
C627 H649 0.950 . S
C628 H624 0.949 . S
C628 C636 1.574 . S
C628 C644 1.368 . S
H629 C637 0.950 . S
H630 C635 0.950 . S
H631 C636 0.949 . S
H632 C638 0.950 . S
H633 C639 0.950 . S
H634 C640 0.949 . S
C635 H630 0.950 . S
C635 C637 1.327 . S
C635 C641 1.429 . S
C636 C628 1.574 . S
C636 H631 0.949 . S
C636 C642 1.368 . S
C637 C621 1.349 . S
C637 H629 0.950 . S
C637 C635 1.327 . S
C638 C626 1.349 . S
C638 H632 0.950 . S
C638 C639 1.327 . S
C639 H633 0.950 . S
C639 C638 1.327 . S
C639 C643 1.429 . S
C640 C623 1.574 . S
C640 H634 0.949 . S
C640 C644 1.368 . S
C641 C622 1.429 . S
C641 C635 1.429 . S
C641 C642 1.523 . S
C642 C623 1.368 . S
C642 C636 1.368 . S
C642 C641 1.523 . S
C643 C627 1.429 . S
C643 C639 1.429 . S
C643 C644 1.523 . S
C644 C628 1.368 . S
C644 C640 1.368 . S
C644 C643 1.523 . S
H645 C620 0.950 . S
H646 C622 0.950 . S
H647 C623 0.949 . S
H648 C625 0.950 . S
H649 C627 0.950 . S
C650 C651 1.349 . S
C650 C652 1.327 . S
C650 H675 0.950 . S
C651 C650 1.349 . S
C651 C667 1.349 . S
C652 C650 1.327 . S
C652 C671 1.429 . S
C652 H676 0.950 . S
C653 C670 1.574 . S
C653 C672 1.368 . S
C653 H677 0.949 . S
H654 C658 0.949 . S
C655 C656 1.349 . S
C655 C657 1.327 . S
C655 H678 0.950 . S
C656 C655 1.349 . S
C656 C668 1.349 . S
C657 C655 1.327 . S
C657 C673 1.429 . S
C657 H679 0.950 . S
C658 H654 0.949 . S
C658 C666 1.574 . S
C658 C674 1.368 . S
H659 C667 0.950 . S
H660 C665 0.950 . S
H661 C666 0.949 . S
H662 C668 0.950 . S
H663 C669 0.950 . S
H664 C670 0.949 . S
C665 H660 0.950 . S
C665 C667 1.327 . S
C665 C671 1.429 . S
C666 C658 1.574 . S
C666 H661 0.949 . S
C666 C672 1.368 . S
C667 C651 1.349 . S
C667 H659 0.950 . S
C667 C665 1.327 . S
C668 C656 1.349 . S
C668 H662 0.950 . S
C668 C669 1.327 . S
C669 H663 0.950 . S
C669 C668 1.327 . S
C669 C673 1.429 . S
C670 C653 1.574 . S
C670 H664 0.949 . S
C670 C674 1.368 . S
C671 C652 1.429 . S
C671 C665 1.429 . S
C671 C672 1.523 . S
C672 C653 1.368 . S
C672 C666 1.368 . S
C672 C671 1.523 . S
C673 C657 1.429 . S
C673 C669 1.429 . S
C673 C674 1.523 . S
C674 C658 1.368 . S
C674 C670 1.368 . S
C674 C673 1.523 . S
H675 C650 0.950 . S
H676 C652 0.950 . S
H677 C653 0.949 . S
H678 C655 0.950 . S
H679 C657 0.950 . S
C680 C681 1.349 . S
C680 C682 1.327 . S
C680 H705 0.950 . S
C681 C680 1.349 . S
C681 C697 1.349 . S
C682 C680 1.327 . S
C682 C701 1.429 . S
C682 H706 0.950 . S
C683 C700 1.574 . S
C683 C702 1.368 . S
C683 H707 0.949 . S
H684 C688 0.949 . S
C685 C686 1.349 . S
C685 C687 1.327 . S
C685 H708 0.950 . S
C686 C685 1.349 . S
C686 C698 1.349 . S
C687 C685 1.327 . S
C687 C703 1.429 . S
C687 H709 0.950 . S
C688 H684 0.949 . S
C688 C696 1.574 . S
C688 C704 1.368 . S
H689 C697 0.950 . S
H690 C695 0.950 . S
H691 C696 0.949 . S
H692 C698 0.950 . S
H693 C699 0.950 . S
H694 C700 0.949 . S
C695 H690 0.950 . S
C695 C697 1.327 . S
C695 C701 1.429 . S
C696 C688 1.574 . S
C696 H691 0.949 . S
C696 C702 1.368 . S
C697 C681 1.349 . S
C697 H689 0.950 . S
C697 C695 1.327 . S
C698 C686 1.349 . S
C698 H692 0.950 . S
C698 C699 1.327 . S
C699 H693 0.950 . S
C699 C698 1.327 . S
C699 C703 1.429 . S
C700 C683 1.574 . S
C700 H694 0.949 . S
C700 C704 1.368 . S
C701 C682 1.429 . S
C701 C695 1.429 . S
C701 C702 1.523 . S
C702 C683 1.368 . S
C702 C696 1.368 . S
C702 C701 1.523 . S
C703 C687 1.429 . S
C703 C699 1.429 . S
C703 C704 1.523 . S
C704 C688 1.368 . S
C704 C700 1.368 . S
C704 C703 1.523 . S
H705 C680 0.950 . S
H706 C682 0.950 . S
H707 C683 0.949 . S
H708 C685 0.950 . S
H709 C687 0.950 . S
C710 C711 1.349 1_554 S
C710 C712 1.327 . S
C710 H735 0.950 . S
C711 C710 1.349 1_556 S
C711 C727 1.349 . S
C712 C710 1.327 . S
C712 C731 1.429 1_554 S
C712 H736 0.950 . S
C713 C730 1.574 . S
C713 C732 1.368 . S
C713 H737 0.949 . S
H714 C718 0.949 . S
C715 C716 1.349 . S
C715 C717 1.327 . S
C715 H738 0.950 . S
C716 C715 1.349 . S
C716 C728 1.349 . S
C717 C715 1.327 . S
C717 C733 1.429 . S
C717 H739 0.950 . S
C718 H714 0.949 . S
C718 C726 1.574 . S
C718 C734 1.368 1_554 S
H719 C727 0.950 . S
H720 C725 0.950 . S
H721 C726 0.949 . S
H722 C728 0.950 1_554 S
H723 C729 0.950 1_554 S
H724 C730 0.949 . S
C725 H720 0.950 . S
C725 C727 1.327 . S
C725 C731 1.429 . S
C726 C718 1.574 . S
C726 H721 0.949 . S
C726 C732 1.368 1_554 S
C727 C711 1.349 . S
C727 H719 0.950 . S
C727 C725 1.327 . S
C728 C716 1.349 . S
C728 H722 0.950 1_556 S
C728 C729 1.327 . S
C729 H723 0.950 1_556 S
C729 C728 1.327 . S
C729 C733 1.429 . S
C730 C713 1.574 . S
C730 H724 0.949 . S
C730 C734 1.368 . S
C731 C712 1.429 1_556 S
C731 C725 1.429 . S
C731 C732 1.523 . S
C732 C713 1.368 . S
C732 C726 1.368 1_556 S
C732 C731 1.523 . S
C733 C717 1.429 . S
C733 C729 1.429 . S
C733 C734 1.523 . S
C734 C718 1.368 1_556 S
C734 C730 1.368 . S
C734 C733 1.523 . S
H735 C710 0.950 . S
H736 C712 0.950 . S
H737 C713 0.949 . S
H738 C715 0.950 . S
H739 C717 0.950 . S
C740 C741 1.349 . S
C740 C742 1.327 . S
C740 H765 0.950 . S
C741 C740 1.349 . S
C741 C757 1.349 . S
C742 C740 1.327 . S
C742 C761 1.429 . S
C742 H766 0.950 . S
C743 C760 1.574 . S
C743 C762 1.368 . S
C743 H767 0.949 . S
H744 C748 0.949 . S
C745 C746 1.349 . S
C745 C747 1.327 . S
C745 H768 0.950 . S
C746 C745 1.349 . S
C746 C758 1.349 . S
C747 C745 1.327 . S
C747 C763 1.429 . S
C747 H769 0.950 . S
C748 H744 0.949 . S
C748 C756 1.574 . S
C748 C764 1.368 . S
H749 C757 0.950 . S
H750 C755 0.950 . S
H751 C756 0.949 . S
H752 C758 0.950 . S
H753 C759 0.950 . S
H754 C760 0.949 . S
C755 H750 0.950 . S
C755 C757 1.327 . S
C755 C761 1.429 . S
C756 C748 1.574 . S
C756 H751 0.949 . S
C756 C762 1.368 . S
C757 C741 1.349 . S
C757 H749 0.950 . S
C757 C755 1.327 . S
C758 C746 1.349 . S
C758 H752 0.950 . S
C758 C759 1.327 . S
C759 H753 0.950 . S
C759 C758 1.327 . S
C759 C763 1.429 . S
C760 C743 1.574 . S
C760 H754 0.949 . S
C760 C764 1.368 . S
C761 C742 1.429 . S
C761 C755 1.429 . S
C761 C762 1.523 . S
C762 C743 1.368 . S
C762 C756 1.368 . S
C762 C761 1.523 . S
C763 C747 1.429 . S
C763 C759 1.429 . S
C763 C764 1.523 . S
C764 C748 1.368 . S
C764 C760 1.368 . S
C764 C763 1.523 . S
H765 C740 0.950 . S
H766 C742 0.950 . S
H767 C743 0.949 . S
H768 C745 0.950 . S
H769 C747 0.950 . S
C770 C771 1.349 . S
C770 C772 1.327 . S
C770 H795 0.950 . S
C771 C770 1.349 . S
C771 C787 1.349 . S
C772 C770 1.327 . S
C772 C791 1.429 . S
C772 H796 0.950 . S
C773 C790 1.574 . S
C773 C792 1.368 . S
C773 H797 0.949 . S
H774 C778 0.949 . S
C775 C776 1.349 . S
C775 C777 1.327 . S
C775 H798 0.950 . S
C776 C775 1.349 . S
C776 C788 1.349 . S
C777 C775 1.327 . S
C777 C793 1.429 . S
C777 H799 0.950 . S
C778 H774 0.949 . S
C778 C786 1.574 . S
C778 C794 1.368 . S
H779 C787 0.950 . S
H780 C785 0.950 . S
H781 C786 0.949 . S
H782 C788 0.950 . S
H783 C789 0.950 . S
H784 C790 0.949 . S
C785 H780 0.950 . S
C785 C787 1.327 . S
C785 C791 1.429 . S
C786 C778 1.574 . S
C786 H781 0.949 . S
C786 C792 1.368 . S
C787 C771 1.349 . S
C787 H779 0.950 . S
C787 C785 1.327 . S
C788 C776 1.349 . S
C788 H782 0.950 . S
C788 C789 1.327 . S
C789 H783 0.950 . S
C789 C788 1.327 . S
C789 C793 1.429 . S
C790 C773 1.574 . S
C790 H784 0.949 . S
C790 C794 1.368 . S
C791 C772 1.429 . S
C791 C785 1.429 . S
C791 C792 1.523 . S
C792 C773 1.368 . S
C792 C786 1.368 . S
C792 C791 1.523 . S
C793 C777 1.429 . S
C793 C789 1.429 . S
C793 C794 1.523 . S
C794 C778 1.368 . S
C794 C790 1.368 . S
C794 C793 1.523 . S
H795 C770 0.950 . S
H796 C772 0.950 . S
H797 C773 0.949 . S
H798 C775 0.950 . S
H799 C777 0.950 . S
C800 C801 1.349 1_455 S
C800 C802 1.327 . S
C800 H825 0.950 . S
C801 C800 1.349 1_655 S
C801 C817 1.349 1_565 S
C802 C800 1.327 . S
C802 C821 1.429 1_455 S
C802 H826 0.950 . S
C803 C820 1.574 1_556 S
C803 C822 1.368 1_545 S
C803 H827 0.949 . S
H804 C808 0.949 . S
C805 C806 1.349 1_655 S
C805 C807 1.327 . S
C805 H828 0.950 . S
C806 C805 1.349 1_455 S
C806 C818 1.349 1_545 S
C807 C805 1.327 . S
C807 C823 1.429 1_655 S
C807 H829 0.950 . S
C808 H804 0.949 . S
C808 C816 1.574 1_554 S
C808 C824 1.368 1_565 S
H809 C817 0.950 . S
H810 C815 0.950 . S
H811 C816 0.949 . S
H812 C818 0.950 . S
H813 C819 0.950 . S
H814 C820 0.949 . S
C815 H810 0.950 . S
C815 C817 1.327 . S
C815 C821 1.429 1_545 S
C816 C808 1.574 1_556 S
C816 H811 0.949 . S
C816 C822 1.368 1_455 S
C817 C801 1.349 1_545 S
C817 H809 0.950 . S
C817 C815 1.327 . S
C818 C806 1.349 1_565 S
C818 H812 0.950 . S
C818 C819 1.327 . S
C819 H813 0.950 . S
C819 C818 1.327 . S
C819 C823 1.429 1_565 S
C820 C803 1.574 1_554 S
C820 H814 0.949 . S
C820 C824 1.368 1_655 S
C821 C802 1.429 1_655 S
C821 C815 1.429 1_565 S
C821 C822 1.523 . S
C822 C803 1.368 1_565 S
C822 C816 1.368 1_655 S
C822 C821 1.523 . S
C823 C807 1.429 1_455 S
C823 C819 1.429 1_545 S
C823 C824 1.523 . S
C824 C808 1.368 1_545 S
C824 C820 1.368 1_455 S
C824 C823 1.523 . S
H825 C800 0.950 . S
H826 C802 0.950 . S
H827 C803 0.949 . S
H828 C805 0.950 . S
H829 C807 0.950 . S
C830 C831 1.349 . S
C830 C832 1.327 . S
C830 H855 0.950 . S
C831 C830 1.349 . S
C831 C847 1.349 . S
C832 C830 1.327 . S
C832 C851 1.429 . S
C832 H856 0.950 . S
C833 C850 1.574 . S
C833 C852 1.368 . S
C833 H857 0.949 . S
H834 C838 0.949 . S
C835 C836 1.349 1_554 S
C835 C837 1.327 . S
C835 H858 0.950 1_554 S
C836 C835 1.349 1_556 S
C836 C848 1.349 1_556 S
C837 C835 1.327 . S
C837 C853 1.429 . S
C837 H859 0.950 . S
C838 H834 0.949 . S
C838 C846 1.574 . S
C838 C854 1.368 . S
H839 C847 0.950 . S
H840 C845 0.950 . S
H841 C846 0.949 . S
H842 C848 0.950 1_556 S
H843 C849 0.950 . S
H844 C850 0.949 . S
C845 H840 0.950 . S
C845 C847 1.327 . S
C845 C851 1.429 . S
C846 C838 1.574 . S
C846 H841 0.949 . S
C846 C852 1.368 . S
C847 C831 1.349 . S
C847 H839 0.950 . S
C847 C845 1.327 . S
C848 C836 1.349 1_554 S
C848 H842 0.950 1_554 S
C848 C849 1.327 . S
C849 H843 0.950 . S
C849 C848 1.327 . S
C849 C853 1.429 . S
C850 C833 1.574 . S
C850 H844 0.949 . S
C850 C854 1.368 . S
C851 C832 1.429 . S
C851 C845 1.429 . S
C851 C852 1.523 . S
C852 C833 1.368 . S
C852 C846 1.368 . S
C852 C851 1.523 . S
C853 C837 1.429 . S
C853 C849 1.429 . S
C853 C854 1.523 . S
C854 C838 1.368 . S
C854 C850 1.368 . S
C854 C853 1.523 . S
H855 C830 0.950 . S
H856 C832 0.950 . S
H857 C833 0.949 . S
H858 C835 0.950 1_556 S
H859 C837 0.950 . S
C860 C861 1.349 . S
C860 C862 1.327 . S
C860 H885 0.950 . S
C861 C860 1.349 . S
C861 C877 1.349 1_565 S
C862 C860 1.327 . S
C862 C881 1.429 . S
C862 H886 0.950 . S
C863 C880 1.574 . S
C863 C882 1.368 1_545 S
C863 H887 0.949 . S
H864 C868 0.949 . S
C865 C866 1.349 . S
C865 C867 1.327 . S
C865 H888 0.950 . S
C866 C865 1.349 . S
C866 C878 1.349 1_545 S
C867 C865 1.327 . S
C867 C883 1.429 . S
C867 H889 0.950 . S
C868 H864 0.949 . S
C868 C876 1.574 . S
C868 C884 1.368 1_565 S
H869 C877 0.950 . S
H870 C875 0.950 . S
H871 C876 0.949 . S
H872 C878 0.950 . S
H873 C879 0.950 . S
H874 C880 0.949 . S
C875 H870 0.950 . S
C875 C877 1.327 . S
C875 C881 1.429 1_545 S
C876 C868 1.574 . S
C876 H871 0.949 . S
C876 C882 1.368 . S
C877 C861 1.349 1_545 S
C877 H869 0.950 . S
C877 C875 1.327 . S
C878 C866 1.349 1_565 S
C878 H872 0.950 . S
C878 C879 1.327 . S
C879 H873 0.950 . S
C879 C878 1.327 . S
C879 C883 1.429 1_565 S
C880 C863 1.574 . S
C880 H874 0.949 . S
C880 C884 1.368 . S
C881 C862 1.429 . S
C881 C875 1.429 1_565 S
C881 C882 1.523 . S
C882 C863 1.368 1_565 S
C882 C876 1.368 . S
C882 C881 1.523 . S
C883 C867 1.429 . S
C883 C879 1.429 1_545 S
C883 C884 1.523 . S
C884 C868 1.368 1_545 S
C884 C880 1.368 . S
C884 C883 1.523 . S
H885 C860 0.950 . S
H886 C862 0.950 . S
H887 C863 0.949 . S
H888 C865 0.950 . S
H889 C867 0.950 . S
C890 C891 1.349 1_556 S
C890 C892 1.327 . S
C890 H915 0.950 1_556 S
C891 C890 1.349 1_554 S
C891 C907 1.349 1_554 S
C892 C890 1.327 . S
C892 C911 1.429 . S
C892 H916 0.950 . S
C893 C910 1.574 . S
C893 C912 1.368 . S
C893 H917 0.949 . S
H894 C898 0.949 . S
C895 C896 1.349 . S
C895 C897 1.327 . S
C895 H918 0.950 . S
C896 C895 1.349 . S
C896 C908 1.349 . S
C897 C895 1.327 . S
C897 C913 1.429 . S
C897 H919 0.950 . S
C898 H894 0.949 . S
C898 C906 1.574 . S
C898 C914 1.368 . S
H899 C907 0.950 1_554 S
H900 C905 0.950 . S
H901 C906 0.949 . S
H902 C908 0.950 . S
H903 C909 0.950 . S
H904 C910 0.949 . S
C905 H900 0.950 . S
C905 C907 1.327 . S
C905 C911 1.429 . S
C906 C898 1.574 . S
C906 H901 0.949 . S
C906 C912 1.368 . S
C907 C891 1.349 1_556 S
C907 H899 0.950 1_556 S
C907 C905 1.327 . S
C908 C896 1.349 . S
C908 H902 0.950 . S
C908 C909 1.327 . S
C909 H903 0.950 . S
C909 C908 1.327 . S
C909 C913 1.429 . S
C910 C893 1.574 . S
C910 H904 0.949 . S
C910 C914 1.368 . S
C911 C892 1.429 . S
C911 C905 1.429 . S
C911 C912 1.523 . S
C912 C893 1.368 . S
C912 C906 1.368 . S
C912 C911 1.523 . S
C913 C897 1.429 . S
C913 C909 1.429 . S
C913 C914 1.523 . S
C914 C898 1.368 . S
C914 C910 1.368 . S
C914 C913 1.523 . S
H915 C890 0.950 1_554 S
H916 C892 0.950 . S
H917 C893 0.949 . S
H918 C895 0.950 . S
H919 C897 0.950 . S
C920 C921 1.349 1_556 S
C920 C922 1.327 . S
C920 H945 0.950 1_556 S
C921 C920 1.349 1_554 S
C921 C937 1.349 1_554 S
C922 C920 1.327 . S
C922 C941 1.429 . S
C922 H946 0.950 . S
C923 C940 1.574 . S
C923 C942 1.368 . S
C923 H947 0.949 . S
H924 C928 0.949 . S
C925 C926 1.349 . S
C925 C927 1.327 . S
C925 H948 0.950 . S
C926 C925 1.349 . S
C926 C938 1.349 . S
C927 C925 1.327 . S
C927 C943 1.429 . S
C927 H949 0.950 . S
C928 H924 0.949 . S
C928 C936 1.574 . S
C928 C944 1.368 . S
H929 C937 0.950 1_554 S
H930 C935 0.950 . S
H931 C936 0.949 . S
H932 C938 0.950 . S
H933 C939 0.950 . S
H934 C940 0.949 . S
C935 H930 0.950 . S
C935 C937 1.327 . S
C935 C941 1.429 . S
C936 C928 1.574 . S
C936 H931 0.949 . S
C936 C942 1.368 . S
C937 C921 1.349 1_556 S
C937 H929 0.950 1_556 S
C937 C935 1.327 . S
C938 C926 1.349 . S
C938 H932 0.950 . S
C938 C939 1.327 . S
C939 H933 0.950 . S
C939 C938 1.327 . S
C939 C943 1.429 . S
C940 C923 1.574 . S
C940 H934 0.949 . S
C940 C944 1.368 . S
C941 C922 1.429 . S
C941 C935 1.429 . S
C941 C942 1.523 . S
C942 C923 1.368 . S
C942 C936 1.368 . S
C942 C941 1.523 . S
C943 C927 1.429 . S
C943 C939 1.429 . S
C943 C944 1.523 . S
C944 C928 1.368 . S
C944 C940 1.368 . S
C944 C943 1.523 . S
H945 C920 0.950 1_554 S
H946 C922 0.950 . S
H947 C923 0.949 . S
H948 C925 0.950 . S
H949 C927 0.950 . S
C950 C951 1.349 . S
C950 C952 1.327 . S
C950 H975 0.950 . S
C951 C950 1.349 . S
C951 C967 1.349 . S
C952 C950 1.327 . S
C952 C971 1.429 . S
C952 H976 0.950 . S
C953 C970 1.574 . S
C953 C972 1.368 . S
C953 H977 0.949 . S
H954 C958 0.949 . S
C955 C956 1.349 1_554 S
C955 C957 1.327 . S
C955 H978 0.950 1_554 S
C956 C955 1.349 1_556 S
C956 C968 1.349 1_556 S
C957 C955 1.327 . S
C957 C973 1.429 . S
C957 H979 0.950 . S
C958 H954 0.949 . S
C958 C966 1.574 . S
C958 C974 1.368 . S
H959 C967 0.950 . S
H960 C965 0.950 . S
H961 C966 0.949 . S
H962 C968 0.950 1_556 S
H963 C969 0.950 . S
H964 C970 0.949 . S
C965 H960 0.950 . S
C965 C967 1.327 . S
C965 C971 1.429 . S
C966 C958 1.574 . S
C966 H961 0.949 . S
C966 C972 1.368 . S
C967 C951 1.349 . S
C967 H959 0.950 . S
C967 C965 1.327 . S
C968 C956 1.349 1_554 S
C968 H962 0.950 1_554 S
C968 C969 1.327 . S
C969 H963 0.950 . S
C969 C968 1.327 . S
C969 C973 1.429 . S
C970 C953 1.574 . S
C970 H964 0.949 . S
C970 C974 1.368 . S
C971 C952 1.429 . S
C971 C965 1.429 . S
C971 C972 1.523 . S
C972 C953 1.368 . S
C972 C966 1.368 . S
C972 C971 1.523 . S
C973 C957 1.429 . S
C973 C969 1.429 . S
C973 C974 1.523 . S
C974 C958 1.368 . S
C974 C970 1.368 . S
C974 C973 1.523 . S
H975 C950 0.950 . S
H976 C952 0.950 . S
H977 C953 0.949 . S
H978 C955 0.950 1_556 S
H979 C957 0.950 . S
C980 C981 1.349 . S
C980 C982 1.327 . S
C980 H1005 0.950 . S
C981 C980 1.349 . S
C981 C997 1.349 . S
C982 C980 1.327 . S
C982 C1001 1.429 . S
C982 H1006 0.950 . S
C983 C1000 1.574 . S
C983 C1002 1.368 . S
C983 H1007 0.949 . S
H984 C988 0.949 . S
C985 C986 1.349 . S
C985 C987 1.327 . S
C985 H1008 0.950 . S
C986 C985 1.349 . S
C986 C998 1.349 . S
C987 C985 1.327 . S
C987 C1003 1.429 . S
C987 H1009 0.950 . S
C988 H984 0.949 . S
C988 C996 1.574 . S
C988 C1004 1.368 . S
H989 C997 0.950 . S
H990 C995 0.950 . S
H991 C996 0.949 . S
H992 C998 0.950 . S
H993 C999 0.950 . S
H994 C1000 0.949 . S
C995 H990 0.950 . S
C995 C997 1.327 . S
C995 C1001 1.429 . S
C996 C988 1.574 . S
C996 H991 0.949 . S
C996 C1002 1.368 . S
C997 C981 1.349 . S
C997 H989 0.950 . S
C997 C995 1.327 . S
C998 C986 1.349 . S
C998 H992 0.950 . S
C998 C999 1.327 . S
C999 H993 0.950 . S
C999 C998 1.327 . S
C999 C1003 1.429 . S
C1000 C983 1.574 . S
C1000 H994 0.949 . S
C1000 C1004 1.368 . S
C1001 C982 1.429 . S
C1001 C995 1.429 . S
C1001 C1002 1.523 . S
C1002 C983 1.368 . S
C1002 C996 1.368 . S
C1002 C1001 1.523 . S
C1003 C987 1.429 . S
C1003 C999 1.429 . S
C1003 C1004 1.523 . S
C1004 C988 1.368 . S
C1004 C1000 1.368 . S
C1004 C1003 1.523 . S
H1005 C980 0.950 . S
H1006 C982 0.950 . S
H1007 C983 0.949 . S
H1008 C985 0.950 . S
H1009 C987 0.950 . S
C1010 C1011 1.349 1_655 S
C1010 C1012 1.327 . S
C1010 H1035 0.950 . S
C1011 C1010 1.349 1_455 S
C1011 C1027 1.349 . S
C1012 C1010 1.327 . S
C1012 C1031 1.429 1_655 S
C1012 H1036 0.950 . S
C1013 C1030 1.574 1_556 S
C1013 C1032 1.368 . S
C1013 H1037 0.949 . S
H1014 C1018 0.949 . S
C1015 C1016 1.349 1_455 S
C1015 C1017 1.327 . S
C1015 H1038 0.950 . S
C1016 C1015 1.349 1_655 S
C1016 C1028 1.349 . S
C1017 C1015 1.327 . S
C1017 C1033 1.429 1_455 S
C1017 H1039 0.950 . S
C1018 H1014 0.949 . S
C1018 C1026 1.574 1_554 S
C1018 C1034 1.368 . S
H1019 C1027 0.950 . S
H1020 C1025 0.950 . S
H1021 C1026 0.949 . S
H1022 C1028 0.950 . S
H1023 C1029 0.950 . S
H1024 C1030 0.949 . S
C1025 H1020 0.950 . S
C1025 C1027 1.327 . S
C1025 C1031 1.429 . S
C1026 C1018 1.574 1_556 S
C1026 H1021 0.949 . S
C1026 C1032 1.368 1_655 S
C1027 C1011 1.349 . S
C1027 H1019 0.950 . S
C1027 C1025 1.327 . S
C1028 C1016 1.349 . S
C1028 H1022 0.950 . S
C1028 C1029 1.327 . S
C1029 H1023 0.950 . S
C1029 C1028 1.327 . S
C1029 C1033 1.429 . S
C1030 C1013 1.574 1_554 S
C1030 H1024 0.949 . S
C1030 C1034 1.368 1_455 S
C1031 C1012 1.429 1_455 S
C1031 C1025 1.429 . S
C1031 C1032 1.523 . S
C1032 C1013 1.368 . S
C1032 C1026 1.368 1_455 S
C1032 C1031 1.523 . S
C1033 C1017 1.429 1_655 S
C1033 C1029 1.429 . S
C1033 C1034 1.523 . S
C1034 C1018 1.368 . S
C1034 C1030 1.368 1_655 S
C1034 C1033 1.523 . S
H1035 C1010 0.950 . S
H1036 C1012 0.950 . S
H1037 C1013 0.949 . S
H1038 C1015 0.950 . S
H1039 C1017 0.950 . S
C321 C6 1.639 . S
C326 C129 1.627 . S
C351 C9 1.629 . S
C356 C46 1.639 . S
C381 C49 1.629 . S
C386 C86 1.640 . S
C411 C89 1.629 . S
C416 C126 1.638 . S
C441 C15 1.639 . S
C446 C218 1.631 . S
C471 C18 1.629 . S
C476 C175 1.639 . S
C501 C178 1.629 . S
C506 C95 1.638 . S
C531 C215 1.639 . S
C536 C98 1.630 . S
C561 C246 1.639 . S
C566 C209 1.629 . S
C591 C166 1.639 . S
C596 C249 1.629 . S
C621 C286 1.639 . S
C626 C169 1.630 . S
C651 C206 1.639 . S
C656 C289 1.630 . S
C681 C138 1.629 . S
C686 C255 1.638 . S
C711 C258 1.629 . S
C716 C55 1.640 . S
C741 C58 1.629 . S
C746 C295 1.638 . S
C771 C135 1.639 . S
C776 C298 1.628 . S
C801 C19 2.192 . S
C806 C10 2.192 . S
C831 C50 2.192 . S
C836 C59 2.192 . S
C861 C90 2.192 . S
C866 C99 2.192 . S
C891 C130 2.192 . S
C896 C139 2.192 . S
C921 C170 2.192 . S
C926 C179 2.192 . S
C951 C210 2.192 . S
C956 C219 2.192 . S
C981 C250 2.192 . S
C986 C259 2.192 . S
C1011 C299 2.192 . S
C1016 C290 2.192 . S
