# Generated by pormake.
# Topology unf, (4)-cn, num edge types: 1
# Building blocks:
#     Node 0, Type 0, BuildingBlock: GALJAG_clean_sbu_0, # of connection points: 4
#     Node 1, Type 0, BuildingBlock: GALJAG_clean_sbu_0, # of connection points: 4
#     Node 2, Type 0, BuildingBlock: GALJAG_clean_sbu_0, # of connection points: 4
#     Node 3, Type 0, BuildingBlock: GALJAG_clean_sbu_0, # of connection points: 4
#     Node 4, Type 0, BuildingBlock: GALJAG_clean_sbu_0, # of connection points: 4
#     Node 5, Type 0, BuildingBlock: GALJAG_clean_sbu_0, # of connection points: 4
#     Node 6, Type 0, BuildingBlock: GALJAG_clean_sbu_0, # of connection points: 4
#     Node 7, Type 0, BuildingBlock: GALJAG_clean_sbu_0, # of connection points: 4
#     Node 8, Type 0, BuildingBlock: GALJAG_clean_sbu_0, # of connection points: 4
#     Node 9, Type 0, BuildingBlock: GALJAG_clean_sbu_0, # of connection points: 4
#     Node 10, Type 0, BuildingBlock: GALJAG_clean_sbu_0, # of connection points: 4
#     Node 11, Type 0, BuildingBlock: GALJAG_clean_sbu_0, # of connection points: 4
#     Edge 12, Type (0, 0), BuildingBlock: MIFKUJ_clean_linker_0, # of connection points: 2
#     Edge 13, Type (0, 0), BuildingBlock: MIFKUJ_clean_linker_0, # of connection points: 2
#     Edge 14, Type (0, 0), BuildingBlock: MIFKUJ_clean_linker_0, # of connection points: 2
#     Edge 15, Type (0, 0), BuildingBlock: MIFKUJ_clean_linker_0, # of connection points: 2
#     Edge 16, Type (0, 0), BuildingBlock: MIFKUJ_clean_linker_0, # of connection points: 2
#     Edge 17, Type (0, 0), BuildingBlock: MIFKUJ_clean_linker_0, # of connection points: 2
#     Edge 18, Type (0, 0), BuildingBlock: MIFKUJ_clean_linker_0, # of connection points: 2
#     Edge 19, Type (0, 0), BuildingBlock: MIFKUJ_clean_linker_0, # of connection points: 2
#     Edge 20, Type (0, 0), BuildingBlock: MIFKUJ_clean_linker_0, # of connection points: 2
#     Edge 21, Type (0, 0), BuildingBlock: MIFKUJ_clean_linker_0, # of connection points: 2
#     Edge 22, Type (0, 0), BuildingBlock: MIFKUJ_clean_linker_0, # of connection points: 2
#     Edge 23, Type (0, 0), BuildingBlock: MIFKUJ_clean_linker_0, # of connection points: 2
#     Edge 24, Type (0, 0), BuildingBlock: MIFKUJ_clean_linker_0, # of connection points: 2
#     Edge 25, Type (0, 0), BuildingBlock: MIFKUJ_clean_linker_0, # of connection points: 2
#     Edge 26, Type (0, 0), BuildingBlock: MIFKUJ_clean_linker_0, # of connection points: 2
#     Edge 27, Type (0, 0), BuildingBlock: MIFKUJ_clean_linker_0, # of connection points: 2
#     Edge 28, Type (0, 0), BuildingBlock: MIFKUJ_clean_linker_0, # of connection points: 2
#     Edge 29, Type (0, 0), BuildingBlock: MIFKUJ_clean_linker_0, # of connection points: 2
#     Edge 30, Type (0, 0), BuildingBlock: MIFKUJ_clean_linker_0, # of connection points: 2
#     Edge 31, Type (0, 0), BuildingBlock: MIFKUJ_clean_linker_0, # of connection points: 2
#     Edge 32, Type (0, 0), BuildingBlock: MIFKUJ_clean_linker_0, # of connection points: 2
#     Edge 33, Type (0, 0), BuildingBlock: MIFKUJ_clean_linker_0, # of connection points: 2
#     Edge 34, Type (0, 0), BuildingBlock: MIFKUJ_clean_linker_0, # of connection points: 2
#     Edge 35, Type (0, 0), BuildingBlock: MIFKUJ_clean_linker_0, # of connection points: 2
# Relax obj value: 0.104
# Max RMSD: 0.121
# Mean RMSD: 0.121
data_MOF--net-unf--node1-GALJAG_clean_sbu_0--edge1-MIFKUJ_clean_linker_0
_symmetry_space_group_name_H-M    P1
_symmetry_Int_Tables_number       1
_symmetry_cell_setting            triclinic
loop_
_symmetry_equiv_pos_as_xyz
'x, y, z'
_cell_length_a     51.48833
_cell_length_b     51.514315
_cell_length_c     45.299083
_cell_angle_alpha  89.996779
_cell_angle_beta   89.964344
_cell_angle_gamma 119.95791
loop_
_atom_site_label
_atom_site_type_symbol
_atom_site_fract_x
_atom_site_fract_y
_atom_site_fract_z
_atom_type_partial_charge
In0 In 0.097 0.39813 0.06849 0.0
O1 O 0.09266 0.38536 0.11728 0.0
O2 O 0.13605 0.41575 0.10044 0.0
C3 C 0.03991 0.35696 0.05596 0.0
C4 C 0.13144 0.38178 0.03848 0.0
C5 C 0.09396 0.44764 0.05536 0.0
O6 O 0.04848 0.36601 0.08195 0.0
O7 O 0.06024 0.36806 0.03664 0.0
O8 O 0.10165 0.43461 0.03673 0.0
O9 O 0.08951 0.4367 0.08093 0.0
C10 C 0.12035 0.40136 0.12233 0.0
O11 O 0.13872 0.4089 0.04221 0.0
O12 O 0.10672 0.36287 0.04987 0.0
In13 In 0.61534 0.70346 0.07984 0.0
O14 O 0.62461 0.71293 0.12864 0.0
O15 O 0.58149 0.70245 0.11281 0.0
C16 C 0.66512 0.7015 0.06544 0.0
C17 C 0.62335 0.75526 0.05748 0.0
C18 C 0.57496 0.64808 0.06146 0.0
O19 O 0.65408 0.69557 0.09105 0.0
O20 O 0.65175 0.70951 0.04754 0.0
O21 O 0.57935 0.6713 0.04783 0.0
O22 O 0.58988 0.65298 0.08488 0.0
C23 C 0.59915 0.7096 0.13451 0.0
O24 O 0.60464 0.73013 0.04675 0.0
O25 O 0.6381 0.7542 0.07922 0.0
In26 In 0.29101 0.897 0.06487 0.0
O27 O 0.26667 0.8576 0.03283 0.0
O28 O 0.24509 0.88183 0.04541 0.0
C29 C 0.34789 0.90932 0.05862 0.0
C30 C 0.27248 0.87152 0.11833 0.0
C31 C 0.30355 0.95291 0.05145 0.0
O32 O 0.32756 0.89321 0.04043 0.0
O33 O 0.33909 0.91785 0.08066 0.0
O34 O 0.29237 0.94085 0.07598 0.0
O35 O 0.30763 0.93652 0.03357 0.0
C36 C 0.24384 0.86053 0.03064 0.0
O37 O 0.27123 0.89429 0.1103 0.0
O38 O 0.28348 0.86169 0.0995 0.0
In39 In 0.60049 0.89655 0.43993 0.0
O40 O 0.58192 0.85108 0.46239 0.0
O41 O 0.62644 0.88471 0.47268 0.0
C42 C 0.55581 0.90797 0.45011 0.0
C43 C 0.59681 0.86999 0.38783 0.0
C44 C 0.6453 0.95346 0.44525 0.0
O45 O 0.56244 0.89344 0.46808 0.0
O46 O 0.57063 0.91518 0.42637 0.0
O47 O 0.6414 0.9386 0.42189 0.0
O48 O 0.6273 0.93934 0.46589 0.0
C49 C 0.60573 0.85804 0.4763 0.0
O50 O 0.62084 0.88353 0.40238 0.0
O51 O 0.57469 0.87054 0.39916 0.0
In52 In 0.09899 0.69985 0.43803 0.0
O53 O 0.10672 0.72811 0.39696 0.0
O54 O 0.13202 0.70596 0.40158 0.0
C55 C 0.04232 0.68723 0.44703 0.0
C56 C 0.13624 0.74499 0.47338 0.0
C57 C 0.08545 0.64315 0.44797 0.0
O58 O 0.05288 0.68937 0.42138 0.0
O59 O 0.06061 0.69239 0.46774 0.0
O60 O 0.0986 0.6636 0.46692 0.0
O61 O 0.08121 0.65188 0.42337 0.0
C62 C 0.12656 0.72322 0.38641 0.0
O63 O 0.14174 0.72469 0.46555 0.0
O64 O 0.112 0.74211 0.46369 0.0
In65 In 0.28797 0.39754 0.44292 0.0
O66 O 0.27179 0.38453 0.3957 0.0
O67 O 0.26772 0.41987 0.41536 0.0
C68 C 0.30444 0.35573 0.44707 0.0
C69 C 0.24011 0.38095 0.47774 0.0
C70 C 0.34234 0.44486 0.4546 0.0
O71 O 0.30273 0.36648 0.42259 0.0
O72 O 0.29695 0.3654 0.46918 0.0
O73 O 0.32304 0.43106 0.47435 0.0
O74 O 0.33344 0.43604 0.42871 0.0
C75 C 0.26326 0.4035 0.39308 0.0
O76 O 0.26044 0.40797 0.47482 0.0
O77 O 0.24419 0.36225 0.46342 0.0
In78 In 0.90144 0.59805 0.91492 0.0
O79 O 0.86676 0.58995 0.95043 0.0
O80 O 0.87751 0.62465 0.91894 0.0
C81 C 0.91375 0.55757 0.93853 0.0
C82 C 0.87286 0.58008 0.86296 0.0
C83 C 0.957 0.64616 0.91939 0.0
O84 O 0.90387 0.57127 0.95376 0.0
O85 O 0.91585 0.56317 0.91126 0.0
O86 O 0.95022 0.62641 0.89985 0.0
O87 O 0.93563 0.64213 0.93591 0.0
C88 C 0.86225 0.61053 0.94121 0.0
O89 O 0.89638 0.60509 0.86634 0.0
O90 O 0.86424 0.56366 0.88565 0.0
In91 In 0.39416 0.2966 0.93356 0.0
O92 O 0.37309 0.27021 0.89157 0.0
O93 O 0.42065 0.29501 0.89403 0.0
C94 C 0.3477 0.30568 0.94274 0.0
C95 C 0.39053 0.2523 0.96843 0.0
C96 C 0.43828 0.35318 0.94252 0.0
O97 O 0.34836 0.29044 0.9212 0.0
O98 O 0.3701 0.31576 0.95965 0.0
O99 O 0.43304 0.33213 0.96016 0.0
O100 O 0.42201 0.34538 0.91972 0.0
C101 C 0.39777 0.27737 0.8793 0.0
O102 O 0.41272 0.26794 0.95208 0.0
O103 O 0.37056 0.25958 0.96795 0.0
In104 In 0.6995 0.09556 0.92922 0.0
O105 O 0.71237 0.09485 0.88149 0.0
O106 O 0.70283 0.12898 0.89423 0.0
C107 C 0.69614 0.04385 0.94625 0.0
C108 C 0.74953 0.13887 0.95474 0.0
C109 C 0.64276 0.07992 0.94342 0.0
O110 O 0.69334 0.04932 0.91968 0.0
O111 O 0.70152 0.06479 0.964 0.0
O112 O 0.6649 0.0981 0.95872 0.0
O113 O 0.64946 0.07105 0.92024 0.0
C114 C 0.71088 0.11765 0.87398 0.0
O115 O 0.724 0.13567 0.96004 0.0
O116 O 0.74964 0.12015 0.93686 0.0
In117 In 0.39277 0.10176 0.55987 0.0
O118 O 0.41121 0.14448 0.53206 0.0
O119 O 0.36398 0.11661 0.5356 0.0
C120 C 0.43603 0.08806 0.5505 0.0
C121 C 0.39732 0.12712 0.61299 0.0
C122 C 0.34858 0.04552 0.54929 0.0
O123 O 0.43038 0.10314 0.53229 0.0
O124 O 0.42111 0.08159 0.57414 0.0
O125 O 0.35404 0.05671 0.57489 0.0
O126 O 0.36477 0.06299 0.52912 0.0
C127 C 0.38561 0.14022 0.52521 0.0
O128 O 0.37256 0.10837 0.60174 0.0
O129 O 0.42001 0.13293 0.59757 0.0
In130 In 0.88575 0.29357 0.55587 0.0
O131 O 0.84086 0.26632 0.53286 0.0
O132 O 0.87777 0.26315 0.51635 0.0
C133 C 0.89299 0.34828 0.54735 0.0
C134 C 0.85857 0.26819 0.60733 0.0
C135 C 0.9431 0.30547 0.55311 0.0
O136 O 0.87925 0.32711 0.5292 0.0
O137 O 0.90169 0.34129 0.57058 0.0
O138 O 0.92413 0.2857 0.57009 0.0
O139 O 0.93309 0.31878 0.53761 0.0
C140 C 0.85022 0.25455 0.51442 0.0
O141 O 0.868 0.25594 0.58958 0.0
O142 O 0.86338 0.29372 0.59949 0.0
In143 In 0.69512 0.59353 0.56465 0.0
O144 O 0.70121 0.59844 0.61435 0.0
O145 O 0.698 0.55955 0.59425 0.0
C146 C 0.68954 0.64153 0.55185 0.0
C147 C 0.7463 0.60441 0.53795 0.0
C148 C 0.63846 0.55248 0.55206 0.0
O149 O 0.70037 0.63931 0.57608 0.0
O150 O 0.68308 0.62052 0.53391 0.0
O151 O 0.66025 0.55496 0.53694 0.0
O152 O 0.64562 0.56947 0.57428 0.0
C153 C 0.70167 0.57432 0.61765 0.0
O154 O 0.7209 0.58556 0.52793 0.0
O155 O 0.74574 0.61813 0.56074 0.0
H156 H 0.19144 0.41553 0.02948 0.0
H157 H 0.22434 0.40008 0.00638 0.0
H158 H 0.14799 0.31301 0.98797 0.0
H159 H 0.11522 0.32797 0.01277 0.0
H160 H 0.1891 0.3049 0.0071 0.0
H161 H 0.18801 0.36841 0.93215 0.0
H162 H 0.19125 0.41363 0.90994 0.0
H163 H 0.28315 0.46563 0.93717 0.0
H164 H 0.28036 0.42082 0.95993 0.0
H165 H 0.29064 0.27521 0.92082 0.0
H166 H 0.24971 0.28564 0.93048 0.0
H167 H 0.309 0.36118 0.98451 0.0
H168 H 0.34958 0.35049 0.97566 0.0
H169 H 0.27171 0.37047 0.93912 0.0
H170 H 0.26696 0.30476 0.01989 0.0
H171 H 0.262 0.25769 0.03911 0.0
H172 H 0.17747 0.20732 0.99477 0.0
H173 H 0.18218 0.25412 0.97494 0.0
C174 C 0.18168 0.39319 0.02028 0.0
C175 C 0.15086 0.37293 0.02283 0.0
C176 C 0.20046 0.38442 0.00683 0.0
C177 C 0.18863 0.35554 0.9948 0.0
C178 C 0.15767 0.33542 0.99699 0.0
C179 C 0.13897 0.34397 0.0111 0.0
C180 C 0.20893 0.34589 0.98174 0.0
C181 C 0.20668 0.31899 0.99169 0.0
C182 C 0.23204 0.36417 0.96165 0.0
C183 C 0.2339 0.39124 0.94791 0.0
C184 C 0.20885 0.38952 0.93358 0.0
C185 C 0.21062 0.41508 0.92086 0.0
C186 C 0.23737 0.44249 0.92218 0.0
C187 C 0.26244 0.44438 0.93617 0.0
C188 C 0.26079 0.41889 0.94894 0.0
C189 C 0.29486 0.29404 0.93469 0.0
C190 C 0.32313 0.31197 0.94764 0.0
C191 C 0.27157 0.29996 0.94014 0.0
C192 C 0.27653 0.32419 0.95812 0.0
C193 C 0.3049 0.34246 0.97049 0.0
C194 C 0.32794 0.33622 0.96556 0.0
C195 C 0.25203 0.33016 0.96511 0.0
C196 C 0.2536 0.35628 0.95401 0.0
C197 C 0.22795 0.31091 0.98357 0.0
C198 C 0.2251 0.28287 0.99563 0.0
C199 C 0.24747 0.28362 0.01401 0.0
C200 C 0.24467 0.257 0.02507 0.0
C201 C 0.21949 0.22952 0.01808 0.0
C202 C 0.197 0.22861 0.0001 0.0
C203 C 0.19971 0.25517 0.98896 0.0
H204 H 0.21736 0.20893 0.02667 0.0
H205 H 0.23869 0.46226 0.91233 0.0
H206 H 0.64821 0.8091 0.08538 0.0
H207 H 0.65787 0.85708 0.06483 0.0
H208 H 0.61945 0.81399 0.98182 0.0
H209 H 0.60911 0.76569 0.00247 0.0
H210 H 0.67785 0.8669 0.97816 0.0
H211 H 0.58065 0.83363 0.01865 0.0
H212 H 0.54067 0.81444 0.05622 0.0
H213 H 0.59397 0.89124 0.11066 0.0
H214 H 0.63454 0.91068 0.07362 0.0
H215 H 0.67852 0.99354 0.91309 0.0
H216 H 0.66536 0.94356 0.93076 0.0
H217 H 0.68884 0.97777 0.01956 0.0
H218 H 0.70152 0.02763 0.00213 0.0
H219 H 0.6356 0.92762 0.01831 0.0
H220 H 0.73378 0.95983 0.97908 0.0
H221 H 0.7735 0.97967 0.9412 0.0
H222 H 0.71864 0.90519 0.88468 0.0
H223 H 0.67841 0.8851 0.92209 0.0
C224 C 0.64168 0.80985 0.06281 0.0
C225 C 0.62804 0.78381 0.04542 0.0
C226 C 0.64708 0.83718 0.05117 0.0
C227 C 0.63931 0.83894 0.02188 0.0
C228 C 0.62555 0.81296 0.0045 0.0
C229 C 0.61961 0.78547 0.01631 0.0
C230 C 0.64682 0.86825 0.00915 0.0
C231 C 0.6683 0.88004 0.98656 0.0
C232 C 0.63479 0.88549 0.02072 0.0
C233 C 0.61079 0.87347 0.04346 0.0
C234 C 0.58404 0.84626 0.03879 0.0
C235 C 0.5612 0.83539 0.05994 0.0
C236 C 0.56475 0.85165 0.08578 0.0
C237 C 0.59122 0.87873 0.09059 0.0
C238 C 0.61415 0.88967 0.06953 0.0
C239 C 0.68121 0.99046 0.93632 0.0
C240 C 0.69105 0.01444 0.95625 0.0
C241 C 0.67373 0.96192 0.94637 0.0
C242 C 0.67625 0.957 0.97646 0.0
C243 C 0.68665 0.98108 0.99627 0.0
C244 C 0.69402 0.00957 0.98626 0.0
C245 C 0.66699 0.92655 0.98753 0.0
C246 C 0.64515 0.9145 0.00982 0.0
C247 C 0.67878 0.90913 0.97577 0.0
C248 C 0.70296 0.92113 0.95326 0.0
C249 C 0.73008 0.94781 0.95847 0.0
C250 C 0.75271 0.95908 0.93711 0.0
C251 C 0.74856 0.94375 0.91051 0.0
C252 C 0.72181 0.91707 0.90527 0.0
C253 C 0.69909 0.90572 0.92656 0.0
H254 H 0.76611 0.9525 0.894 0.0
H255 H 0.54704 0.84322 0.10211 0.0
H256 H 0.19081 0.85978 0.02862 0.0
H257 H 0.1447 0.82315 0.0042 0.0
H258 H 0.18962 0.77793 0.96972 0.0
H259 H 0.23614 0.81456 0.99447 0.0
H260 H 0.14859 0.78586 0.92841 0.0
H261 H 0.15121 0.74694 0.02425 0.0
H262 H 0.15835 0.7499 0.07817 0.0
H263 H 0.08703 0.76955 0.08866 0.0
H264 H 0.07979 0.76715 0.03468 0.0
H265 H 0.00872 0.65183 0.89656 0.0
H266 H 0.06011 0.68904 0.91028 0.0
H267 H 0.02622 0.73233 0.96756 0.0
H268 H 0.97496 0.69492 0.95444 0.0
H269 H 0.06456 0.72236 0.99596 0.0
H270 H 0.0627 0.76373 0.90114 0.0
H271 H 0.05571 0.7628 0.84723 0.0
H272 H 0.12474 0.74024 0.83451 0.0
H273 H 0.13187 0.74066 0.88841 0.0
C274 C 0.19104 0.84225 0.01561 0.0
C275 C 0.21698 0.83984 0.01362 0.0
C276 C 0.16469 0.82139 0.00166 0.0
C277 C 0.16384 0.79785 0.98538 0.0
C278 C 0.18998 0.79605 0.98221 0.0
C279 C 0.21641 0.81684 0.99643 0.0
C280 C 0.13492 0.77413 0.97364 0.0
C281 C 0.13027 0.77155 0.94304 0.0
C282 C 0.11107 0.75599 0.9929 0.0
C283 C 0.11514 0.75712 0.0254 0.0
C284 C 0.13721 0.75213 0.03803 0.0
C285 C 0.14125 0.75367 0.06862 0.0
C286 C 0.1232 0.75999 0.08685 0.0
C287 C 0.10101 0.76469 0.07452 0.0
C288 C 0.09691 0.76321 0.04393 0.0
C289 C 0.01232 0.66961 0.91168 0.0
C290 C 0.98792 0.67053 0.9245 0.0
C291 C 0.04166 0.69085 0.91949 0.0
C292 C 0.047 0.71347 0.93994 0.0
C293 C 0.02261 0.71497 0.95186 0.0
C294 C 0.99335 0.69366 0.94428 0.0
C295 C 0.07771 0.73445 0.95057 0.0
C296 C 0.08279 0.73642 0.98113 0.0
C297 C 0.10179 0.7521 0.93121 0.0
C298 C 0.09759 0.75191 0.89882 0.0
C299 C 0.07621 0.75833 0.88686 0.0
C300 C 0.07226 0.75794 0.8563 0.0
C301 C 0.0897 0.75138 0.83746 0.0
C302 C 0.1112 0.74527 0.84914 0.0
C303 C 0.11523 0.74561 0.87969 0.0
H304 H 0.08661 0.75109 0.81381 0.0
H305 H 0.12633 0.76119 0.11053 0.0
H306 H 0.64283 0.63536 0.51954 0.0
H307 H 0.62709 0.67228 0.51159 0.0
H308 H 0.7028 0.73718 0.56223 0.0
H309 H 0.71735 0.69926 0.57214 0.0
H310 H 0.65727 0.74237 0.57529 0.0
H311 H 0.69922 0.73586 0.48323 0.0
H312 H 0.70623 0.71183 0.43924 0.0
H313 H 0.61507 0.68024 0.4133 0.0
H314 H 0.60728 0.70348 0.45748 0.0
H315 H 0.65347 0.86838 0.51058 0.0
H316 H 0.66557 0.83102 0.52905 0.0
H317 H 0.58161 0.76027 0.49513 0.0
H318 H 0.56926 0.79745 0.47676 0.0
H319 H 0.63206 0.75937 0.4741 0.0
H320 H 0.59121 0.767 0.56695 0.0
H321 H 0.58614 0.79359 0.60984 0.0
H322 H 0.67843 0.82674 0.63235 0.0
H323 H 0.68418 0.80069 0.58931 0.0
C324 C 0.65624 0.65759 0.52878 0.0
C325 C 0.68156 0.66475 0.54605 0.0
C326 C 0.64731 0.67871 0.5241 0.0
C327 C 0.66424 0.70782 0.53549 0.0
C328 C 0.68949 0.71494 0.553 0.0
C329 C 0.6979 0.69341 0.55852 0.0
C330 C 0.65521 0.73052 0.52932 0.0
C331 C 0.65221 0.74639 0.55308 0.0
C332 C 0.64801 0.73542 0.5004 0.0
C333 C 0.6526 0.72119 0.47388 0.0
C334 C 0.68057 0.72354 0.46831 0.0
C335 C 0.68469 0.71007 0.44332 0.0
C336 C 0.66108 0.69445 0.42353 0.0
C337 C 0.63332 0.69231 0.42866 0.0
C338 C 0.62904 0.7056 0.4537 0.0
C339 C 0.63728 0.84484 0.5077 0.0
C340 C 0.61052 0.83578 0.49209 0.0
C341 C 0.64419 0.82355 0.51832 0.0
C342 C 0.62448 0.79296 0.51337 0.0
C343 C 0.59706 0.78382 0.49913 0.0
C344 C 0.59002 0.80506 0.48876 0.0
C345 C 0.6339 0.77081 0.52002 0.0
C346 C 0.63712 0.75521 0.49628 0.0
C347 C 0.64164 0.76651 0.54879 0.0
C348 C 0.6382 0.78212 0.57473 0.0
C349 C 0.6105 0.78018 0.58088 0.0
C350 C 0.60749 0.79511 0.60526 0.0
C351 C 0.63196 0.81191 0.62377 0.0
C352 C 0.65949 0.81375 0.61797 0.0
C353 C 0.66264 0.79887 0.59361 0.0
H354 H 0.62958 0.82345 0.64263 0.0
H355 H 0.66433 0.68406 0.40419 0.0
H356 H 0.12608 0.78748 0.497 0.0
H357 H 0.16351 0.83656 0.51555 0.0
H358 H 0.23232 0.81283 0.50485 0.0
H359 H 0.19477 0.76331 0.48645 0.0
H360 H 0.24162 0.8501 0.55425 0.0
H361 H 0.22141 0.84521 0.45115 0.0
H362 H 0.18869 0.83168 0.40749 0.0
H363 H 0.15797 0.89142 0.43541 0.0
H364 H 0.18955 0.90435 0.47999 0.0
H365 H 0.34014 0.01492 0.49804 0.0
H366 H 0.30566 0.96182 0.48902 0.0
H367 H 0.27209 0.9517 0.57811 0.0
H368 H 0.30733 0.00477 0.58756 0.0
H369 H 0.24816 0.93004 0.48812 0.0
H370 H 0.25064 0.88177 0.60347 0.0
H371 H 0.28585 0.8932 0.64487 0.0
H372 H 0.36041 0.93978 0.58582 0.0
H373 H 0.32568 0.92827 0.54402 0.0
C374 C 0.14906 0.79243 0.49922 0.0
C375 C 0.15769 0.77186 0.48983 0.0
C376 C 0.17037 0.82043 0.50988 0.0
C377 C 0.20066 0.82838 0.51103 0.0
C378 C 0.20901 0.80703 0.50403 0.0
C379 C 0.18759 0.77885 0.49344 0.0
C380 C 0.22372 0.86001 0.51571 0.0
C381 C 0.2431 0.86766 0.53992 0.0
C382 C 0.22613 0.88265 0.49632 0.0
C383 C 0.20764 0.87551 0.46912 0.0
C384 C 0.20746 0.85525 0.44817 0.0
C385 C 0.18908 0.84765 0.42326 0.0
C386 C 0.17131 0.86072 0.41864 0.0
C387 C 0.17176 0.88131 0.43902 0.0
C388 C 0.18981 0.88869 0.46418 0.0
C389 C 0.32535 0.0014 0.51569 0.0
C390 C 0.3264 0.0139 0.54351 0.0
C391 C 0.30567 0.97106 0.51051 0.0
C392 C 0.28656 0.9527 0.53299 0.0
C393 C 0.28707 0.96532 0.56062 0.0
C394 C 0.30702 0.99565 0.56593 0.0
C395 C 0.26579 0.92049 0.52721 0.0
C396 C 0.24679 0.91263 0.50261 0.0
C397 C 0.26443 0.89767 0.54574 0.0
C398 C 0.28553 0.90441 0.57068 0.0
C399 C 0.27455 0.89435 0.59931 0.0
C400 C 0.29442 0.90085 0.62285 0.0
C401 C 0.32534 0.91729 0.618 0.0
C402 C 0.33646 0.92715 0.58957 0.0
C403 C 0.31668 0.92067 0.56596 0.0
H404 H 0.34068 0.92232 0.63625 0.0
H405 H 0.15722 0.85492 0.39925 0.0
H406 H 0.96678 0.27034 0.56909 0.0
H407 H 0.01851 0.28137 0.56158 0.0
H408 H 0.04162 0.36789 0.52551 0.0
H409 H 0.99004 0.35662 0.53239 0.0
H410 H 0.0622 0.34209 0.4912 0.0
H411 H 0.06395 0.35901 0.59552 0.0
H412 H 0.04733 0.34662 0.64723 0.0
H413 H 0.06471 0.27334 0.64477 0.0
H414 H 0.08106 0.28506 0.59287 0.0
H415 H 0.21926 0.41732 0.49631 0.0
H416 H 0.16927 0.40189 0.51572 0.0
H417 H 0.148 0.30963 0.51538 0.0
H418 H 0.19784 0.3248 0.49524 0.0
H419 H 0.12677 0.33513 0.56851 0.0
H420 H 0.12477 0.32015 0.462 0.0
H421 H 0.14559 0.33766 0.41222 0.0
H422 H 0.13065 0.41218 0.42081 0.0
H423 H 0.11044 0.39551 0.47102 0.0
C424 C 0.98304 0.29177 0.55978 0.0
C425 C 0.97447 0.31253 0.55095 0.0
C426 C 0.01256 0.29809 0.55558 0.0
C427 C 0.03397 0.3255 0.54301 0.0
C428 C 0.02546 0.3465 0.53498 0.0
C429 C -0.004 0.34005 0.53886 0.0
C430 C 0.06496 0.33205 0.53699 0.0
C431 C 0.07627 0.34073 0.50824 0.0
C432 C 0.08328 0.32984 0.55904 0.0
C433 C 0.07339 0.3227 0.5902 0.0
C434 C 0.06397 0.34009 0.60592 0.0
C435 C 0.05465 0.33322 0.63528 0.0
C436 C 0.05487 0.30915 0.64925 0.0
C437 C 0.06449 0.29194 0.6339 0.0
C438 C 0.07381 0.2987 0.60452 0.0
C439 C 0.20419 0.39383 0.50098 0.0
C440 C 0.21221 0.37219 0.49403 0.0
C441 C 0.17574 0.38509 0.51209 0.0
C442 C 0.15515 0.35469 0.51682 0.0
C443 C 0.16379 0.33321 0.51193 0.0
C444 C 0.1921 0.34188 0.50031 0.0
C445 C 0.12361 0.34528 0.52306 0.0
C446 C 0.11235 0.33613 0.55163 0.0
C447 C 0.10536 0.34736 0.50101 0.0
C448 C 0.11641 0.35677 0.4704 0.0
C449 C 0.12615 0.3404 0.45337 0.0
C450 C 0.13782 0.35016 0.42507 0.0
C451 C 0.13953 0.37607 0.41338 0.0
C452 C 0.12938 0.39215 0.42992 0.0
C453 C 0.11782 0.38257 0.45831 0.0
H454 H 0.14868 0.38365 0.39151 0.0
H455 H 0.04766 0.30388 0.67199 0.0
H456 H 0.69225 0.71309 0.0117 0.0
H457 H 0.72662 0.69693 0.99367 0.0
H458 H 0.72607 0.66007 0.07935 0.0
H459 H 0.69193 0.67661 0.09772 0.0
H460 H 0.78157 0.68682 0.05468 0.0
H461 H 0.68227 0.61465 0.02666 0.0
H462 H 0.63196 0.59599 0.0054 0.0
H463 H 0.67095 0.62864 0.92001 0.0
H464 H 0.72156 0.64796 0.94087 0.0
H465 H 0.83706 0.5939 0.99602 0.0
H466 H 0.80361 0.60855 0.02015 0.0
H467 H 0.80632 0.65833 0.94252 0.0
H468 H 0.83993 0.64415 0.91847 0.0
H469 H 0.74784 0.62097 0.96638 0.0
H470 H 0.84799 0.69559 0.99739 0.0
H471 H 0.89732 0.71217 0.02015 0.0
H472 H 0.85456 0.67103 0.10207 0.0
H473 H 0.80491 0.65382 0.07964 0.0
C474 C 0.69982 0.70198 0.02684 0.0
C475 C 0.68925 0.69586 0.05603 0.0
C476 C 0.71931 0.69262 0.01647 0.0
C477 C 0.72832 0.67675 0.03503 0.0
C478 C 0.71919 0.67212 0.06467 0.0
C479 C 0.69973 0.68159 0.07511 0.0
C480 C 0.74611 0.66386 0.02296 0.0
C481 C 0.77401 0.67206 0.03565 0.0
C482 C 0.73619 0.64463 0.9981 0.0
C483 C 0.70576 0.63301 0.98541 0.0
C484 C 0.68015 0.61809 0.0034 0.0
C485 C 0.65157 0.60735 0.99141 0.0
C486 C 0.64826 0.61118 0.96138 0.0
C487 C 0.67354 0.62572 0.94328 0.0
C488 C 0.70219 0.63655 0.95517 0.0
C489 C 0.83038 0.60785 0.98411 0.0
C490 C 0.84114 0.61804 0.95547 0.0
C491 C 0.8114 0.61624 0.99791 0.0
C492 C 0.80272 0.63462 0.9831 0.0
C493 C 0.81284 0.64415 0.95425 0.0
C494 C 0.83209 0.63613 0.94062 0.0
C495 C 0.78349 0.64448 0.9977 0.0
C496 C 0.75525 0.63557 0.98552 0.0
C497 C 0.79291 0.66268 0.02324 0.0
C498 C 0.82274 0.67311 0.03674 0.0
C499 C 0.84909 0.68984 0.02018 0.0
C500 C 0.87711 0.6994 0.03303 0.0
C501 C 0.87907 0.69257 0.06251 0.0
C502 C 0.85301 0.67625 0.07922 0.0
C503 C 0.82493 0.6666 0.06646 0.0
H504 H 0.90078 0.70001 0.07243 0.0
H505 H 0.62611 0.60283 0.95214 0.0
H506 H 0.34794 0.21862 0.00931 0.0
H507 H 0.33629 0.16941 0.02833 0.0
H508 H 0.41119 0.17524 0.97996 0.0
H509 H 0.42329 0.22458 0.96127 0.0
H510 H 0.35312 0.12391 0.96753 0.0
H511 H 0.41701 0.17765 0.04963 0.0
H512 H 0.43396 0.21314 0.09131 0.0
H513 H 0.34838 0.16123 0.13348 0.0
H514 H 0.33075 0.12564 0.09182 0.0
H515 H 0.34338 0.98834 0.00981 0.0
H516 H 0.36024 0.04086 -0.00052 0.0
H517 H 0.30067 0.04053 0.06682 0.0
H518 H 0.28489 0.9882 0.07828 0.0
H519 H 0.35072 0.08993 0.07047 0.0
H520 H 0.28516 0.03719 0.99043 0.0
H521 H 0.26482 0.00198 0.94862 0.0
H522 H 0.3482 0.05188 0.90215 0.0
H523 H 0.36921 0.08715 0.94388 0.0
C524 C 0.36231 0.20969 0.0033 0.0
C525 C 0.38641 0.22528 0.98372 0.0
C526 C 0.35567 0.18167 0.0142 0.0
C527 C 0.37288 0.16882 0.00543 0.0
C528 C 0.39772 0.18492 0.98694 0.0
C529 C 0.40463 0.21308 0.97638 0.0
C530 C 0.36312 0.13741 0.01297 0.0
C531 C 0.353 0.11645 0.98997 0.0
C532 C 0.36187 0.12778 0.04237 0.0
C533 C 0.37246 0.14915 0.06745 0.0
C534 C 0.4017 0.17396 0.06765 0.0
C535 C 0.41146 0.19406 0.0913 0.0
C536 C 0.39223 0.18949 0.11499 0.0
C537 C 0.36323 0.16477 0.1151 0.0
C538 C 0.35336 0.14461 0.09148 0.0
C539 C 0.33378 -0.00055 0.0223 0.0
C540 C 0.31265 0.98423 0.04465 0.0
C541 C 0.34335 0.02944 0.01632 0.0
C542 C 0.33128 0.04452 0.03195 0.0
C543 C 0.31024 0.02934 0.05442 0.0
C544 C 0.30114 -0.00054 0.06086 0.0
C545 C 0.34087 0.07619 0.02493 0.0
C546 C 0.35082 0.09724 0.048 0.0
C547 C 0.34141 0.08589 0.99556 0.0
C548 C 0.32886 0.06464 0.97043 0.0
C549 C 0.29925 0.04052 0.97141 0.0
C550 C 0.28758 0.02057 0.9477 0.0
C551 C 0.30523 0.02464 0.92278 0.0
C552 C 0.33457 0.04872 0.92149 0.0
C553 C 0.34636 0.06871 0.94515 0.0
H554 H 0.29616 0.00918 0.90445 0.0
H555 H 0.39983 0.20508 0.13329 0.0
H556 H 0.99003 0.34103 0.08948 0.0
H557 H 0.93772 0.30715 0.07556 0.0
H558 H 0.96698 0.29107 0.99165 0.0
H559 H 0.019 0.32565 0.00502 0.0
H560 H 0.92147 0.29873 0.98335 0.0
H561 H 0.94423 0.24031 0.05105 0.0
H562 H 0.96045 0.22943 0.09841 0.0
H563 H 0.88888 0.2332 0.14322 0.0
H564 H 0.87246 0.24447 0.09613 0.0
H565 H 0.80655 0.15724 0.9373 0.0
H566 H 0.8529 0.19772 0.95814 0.0
H567 H 0.80198 0.2152 0.02274 0.0
H568 H 0.75519 0.17483 0.0016 0.0
H569 H 0.85394 0.2107 0.04473 0.0
H570 H 0.82807 0.26258 0.97314 0.0
H571 H 0.81219 0.27029 0.92415 0.0
H572 H 0.89077 0.27589 0.88495 0.0
H573 H 0.90691 0.26774 0.93365 0.0
C574 C 0.98521 0.33009 0.06814 0.0
C575 C 0.00848 0.33573 0.04837 0.0
C576 C 0.95536 0.31075 0.06023 0.0
C577 C 0.94844 0.29631 0.03267 0.0
C578 C 0.97176 0.30202 0.01298 0.0
C579 C 0.00148 0.32165 0.02069 0.0
C580 C 0.91701 0.27514 0.02405 0.0
C581 C 0.9068 0.27943 0.99675 0.0
C582 C 0.89752 0.25037 0.04187 0.0
C583 C 0.90736 0.24359 0.07016 0.0
C584 C 0.93211 0.23905 0.07104 0.0
C585 C 0.94131 0.23277 0.09782 0.0
C586 C 0.92577 0.23073 0.12382 0.0
C587 C 0.90094 0.23486 0.12308 0.0
C588 C 0.89167 0.24118 0.09635 0.0
C589 C 0.80519 0.16966 0.95596 0.0
C590 C 0.77733 0.16298 0.96784 0.0
C591 C 0.83164 0.19279 0.96776 0.0
C592 C 0.83071 0.20943 0.99181 0.0
C593 C 0.803 0.20254 0.00412 0.0
C594 C 0.77641 0.17963 0.992 0.0
C595 C 0.85899 0.23398 0.00381 0.0
C596 C 0.86853 0.23033 0.03167 0.0
C597 C 0.87806 0.25911 0.98635 0.0
C598 C 0.86859 0.26433 0.95704 0.0
C599 C 0.84186 0.26522 0.95405 0.0
C600 C 0.83282 0.26971 0.92633 0.0
C601 C 0.85043 0.27352 0.90144 0.0
C602 C 0.87715 0.27293 0.90424 0.0
C603 C 0.88627 0.26841 0.93191 0.0
H604 H 0.84339 0.27699 0.88 0.0
H605 H 0.93292 0.22586 0.14454 0.0
H606 H 0.42825 0.19348 0.50127 0.0
H607 H 0.42 0.23187 0.47828 0.0
H608 H 0.32447 0.17462 0.48887 0.0
H609 H 0.33249 0.13612 0.51102 0.0
H610 H 0.33589 0.20449 0.43854 0.0
H611 H 0.36783 0.22708 0.54067 0.0
H612 H 0.40294 0.23736 0.58175 0.0
H613 H 0.47088 0.31458 0.53596 0.0
H614 H 0.43624 0.30426 0.49421 0.0
H615 H 0.30615 0.3273 0.49688 0.0
H616 H 0.32522 0.2927 0.50227 0.0
H617 H 0.34787 0.3023 0.40965 0.0
H618 H 0.32815 0.3366 0.40396 0.0
H619 H 0.37968 0.30005 0.49432 0.0
H620 H 0.33856 0.23418 0.38583 0.0
H621 H 0.29899 0.22074 0.34844 0.0
H622 H 0.24176 0.22644 0.414 0.0
H623 H 0.28083 0.23953 0.4518 0.0
C624 C 0.4055 0.18895 0.49819 0.0
C625 C 0.38101 0.16201 0.50825 0.0
C626 C 0.40082 0.21087 0.48509 0.0
C627 C 0.37164 0.20625 0.48225 0.0
C628 C 0.34717 0.17867 0.4908 0.0
C629 C 0.3518 0.15674 0.50365 0.0
C630 C 0.36629 0.23082 0.47324 0.0
C631 C 0.34579 0.22557 0.45043 0.0
C632 C 0.37896 0.25821 0.48897 0.0
C633 C 0.39962 0.26466 0.51418 0.0
C634 C 0.39033 0.24612 0.53928 0.0
C635 C 0.41015 0.25197 0.5627 0.0
C636 C 0.43919 0.2766 0.56147 0.0
C637 C 0.44842 0.29546 0.53684 0.0
C638 C 0.42872 0.2896 0.51328 0.0
C639 C 0.31504 0.32193 0.47762 0.0
C640 C 0.31545 0.3344 0.44996 0.0
C641 C 0.32611 0.30232 0.48076 0.0
C642 C 0.33788 0.29489 0.45635 0.0
C643 C 0.33861 0.30754 0.4287 0.0
C644 C 0.32733 0.32706 0.42549 0.0
C645 C 0.34873 0.27338 0.46013 0.0
C646 C 0.37037 0.27931 0.48188 0.0
C647 C 0.33653 0.24632 0.44394 0.0
C648 C 0.31277 0.23821 0.4215 0.0
C649 C 0.31751 0.23251 0.39224 0.0
C650 C 0.29517 0.22495 0.37099 0.0
C651 C 0.26793 0.22286 0.37881 0.0
C652 C 0.26292 0.2282 0.40793 0.0
C653 C 0.28516 0.23572 0.42927 0.0
H654 H 0.25067 0.21703 0.36233 0.0
H655 H 0.45455 0.28112 0.5796 0.0
H656 H 0.78938 0.22698 0.51302 0.0
H657 H 0.75546 0.17789 0.49183 0.0
H658 H 0.8305 0.17547 0.45256 0.0
H659 H 0.8648 0.22461 0.47396 0.0
H660 H 0.76899 0.14599 0.41895 0.0
H661 H 0.81867 0.14799 0.51194 0.0
H662 H 0.83463 0.16698 0.56255 0.0
H663 H 0.74299 0.13455 0.58737 0.0
H664 H 0.72657 0.1159 0.53671 0.0
H665 H 0.6961 0.98584 0.41229 0.0
H666 H 0.73297 0.0393 0.41728 0.0
H667 H 0.68041 0.04647 0.48783 0.0
H668 H 0.64471 0.99308 0.48397 0.0
H669 H 0.73454 0.07473 0.50314 0.0
H670 H 0.68281 0.07228 0.41377 0.0
H671 H 0.66377 0.05641 0.36319 0.0
H672 H 0.7537 0.09083 0.33148 0.0
H673 H 0.77325 0.10658 0.38197 0.0
C674 C 0.79862 0.21649 0.4991 0.0
C675 C 0.82974 0.22928 0.49557 0.0
C676 C 0.7792 0.18852 0.48694 0.0
C677 C 0.79065 0.17314 0.47096 0.0
C678 C 0.82139 0.18717 0.4648 0.0
C679 C 0.8409 0.21511 0.47717 0.0
C680 C 0.77145 0.14077 0.46578 0.0
C681 C 0.76165 0.1302 0.43715 0.0
C682 C 0.76165 0.12056 0.48977 0.0
C683 C 0.77143 0.13079 0.52049 0.0
C684 C 0.80195 0.14508 0.52815 0.0
C685 C 0.81108 0.15578 0.55684 0.0
C686 C 0.78984 0.15203 0.57815 0.0
C687 C 0.75942 0.13746 0.57083 0.0
C688 C 0.75019 0.12682 0.54214 0.0
C689 C 0.69261 -0.00106 0.42889 0.0
C690 C 0.66775 0.98543 0.44787 0.0
C691 C 0.71351 0.02948 0.43158 0.0
C692 C 0.7093 0.04705 0.4527 0.0
C693 C 0.68427 0.03342 0.47147 0.0
C694 C 0.66386 0.0029 0.46925 0.0
C695 C 0.73116 0.07944 0.45614 0.0
C696 C 0.74177 0.09019 0.48465 0.0
C697 C 0.74117 0.09975 0.43204 0.0
C698 C 0.72946 0.09029 0.40169 0.0
C699 C 0.6985 0.07625 0.39605 0.0
C700 C 0.68762 0.06732 0.36739 0.0
C701 C 0.7075 0.07252 0.34415 0.0
C702 C 0.73832 0.08676 0.34951 0.0
C703 C 0.74932 0.09571 0.37813 0.0
H704 H 0.69904 0.06559 0.32197 0.0
H705 H 0.79694 0.16035 0.60034 0.0
H706 H -0.00302 0.66977 0.40681 0.0
H707 H 0.9438 0.6511 0.41723 0.0
H708 H 0.96328 0.66432 0.51046 0.0
H709 H 0.01609 0.68245 0.50028 0.0
H710 H 0.9154 0.61081 0.50004 0.0
H711 H 0.951 0.71317 0.46954 0.0
H712 H 0.97468 0.7561 0.43533 0.0
H713 H 0.90788 0.70586 0.36987 0.0
H714 H 0.88403 0.66247 0.4036 0.0
H715 H 0.80001 0.62718 0.56543 0.0
H716 H 0.84728 0.63523 0.54462 0.0
H717 H 0.80408 0.60113 0.46066 0.0
H718 H 0.75625 0.59225 0.48167 0.0
H719 H 0.85992 0.65856 0.4594 0.0
H720 H 0.81984 0.55903 0.49456 0.0
H721 H 0.79689 0.5167 0.52941 0.0
H722 H 0.8727 0.56193 0.58712 0.0
H723 H 0.8958 0.60494 0.55301 0.0
C724 C 0.98988 0.66888 0.42948 0.0
C725 C 0.01063 0.6777 0.45273 0.0
C726 C 0.95956 0.65823 0.4354 0.0
C727 C 0.94967 0.65649 0.46461 0.0
C728 C 0.97044 0.66543 0.48777 0.0
C729 C 0.00064 0.67596 0.4819 0.0
C730 C 0.91769 0.64527 0.47141 0.0
C731 C 0.9033 0.62136 0.49134 0.0
C732 C 0.90168 0.6584 0.45918 0.0
C733 C 0.91597 0.68447 0.43893 0.0
C734 C 0.94152 0.7112 0.44775 0.0
C735 C 0.95494 0.73563 0.42847 0.0
C736 C 0.94285 0.73368 0.40041 0.0
C737 C 0.91726 0.70732 0.3916 0.0
C738 C 0.90378 0.68281 0.41078 0.0
C739 C 0.80056 0.62137 0.54254 0.0
C740 C 0.7746 0.60924 0.52505 0.0
C741 C 0.82749 0.62581 0.53077 0.0
C742 C 0.829 0.61861 0.50121 0.0
C743 C 0.80319 0.60668 0.48357 0.0
C744 C 0.776 0.60164 0.49555 0.0
C745 C 0.85803 0.62479 0.48878 0.0
C746 C 0.87186 0.64771 0.46777 0.0
C747 C 0.87362 0.6109 0.50022 0.0
C748 C 0.85943 0.58541 0.52128 0.0
C749 C 0.83144 0.56019 0.51487 0.0
C750 C 0.81844 0.53602 0.53447 0.0
C751 C 0.83333 0.53662 0.56045 0.0
C752 C 0.86122 0.56147 0.56695 0.0
C753 C 0.87424 0.58579 0.54751 0.0
H754 H 0.82326 0.51783 0.57553 0.0
H755 H 0.95327 0.75261 0.38551 0.0
H756 H 0.22411 0.42428 0.38883 0.0
H757 H 0.19774 0.42603 0.34435 0.0
H758 H 0.24293 0.39 0.29291 0.0
H759 H 0.2686 0.38727 0.33737 0.0
H760 H 0.24159 0.44787 0.27214 0.0
H761 H 0.18125 0.3431 0.3055 0.0
H762 H 0.15153 0.30551 0.34346 0.0
H763 H 0.09254 0.34166 0.35025 0.0
H764 H 0.12224 0.3798 0.31266 0.0
H765 H 0.17542 0.40927 0.13334 0.0
H766 H 0.19792 0.41148 0.18128 0.0
H767 H 0.11844 0.40093 0.22468 0.0
H768 H 0.09501 0.39636 0.17639 0.0
H769 H 0.13547 0.3711 0.25354 0.0
H770 H 0.18809 0.47128 0.21949 0.0
H771 H 0.2166 0.51324 0.18512 0.0
H772 H 0.28837 0.49354 0.18405 0.0
H773 H 0.26013 0.45119 0.21811 0.0
C774 C 0.22847 0.41689 0.36797 0.0
C775 C 0.24836 0.40571 0.36635 0.0
C776 C 0.2134 0.41783 0.34273 0.0
C777 C 0.21855 0.40817 0.31557 0.0
C778 C 0.23882 0.39755 0.3138 0.0
C779 C 0.25334 0.39595 0.33912 0.0
C780 C 0.20263 0.40878 0.28887 0.0
C781 C 0.21846 0.43105 0.2678 0.0
C782 C 0.17212 0.38763 0.28421 0.0
C783 C 0.15414 0.36448 0.30653 0.0
C784 C 0.16211 0.34321 0.3153 0.0
C785 C 0.14523 0.32176 0.33668 0.0
C786 C 0.12017 0.3212 0.34926 0.0
C787 C 0.11192 0.34208 0.34045 0.0
C788 C 0.12878 0.36362 0.31912 0.0
C789 C 0.16281 0.40743 0.15317 0.0
C790 C 0.13365 0.40286 0.15137 0.0
C791 C 0.17576 0.40897 0.18058 0.0
C792 C 0.16029 0.4073 0.20674 0.0
C793 C 0.13094 0.40246 0.20488 0.0
C794 C 0.11758 0.39991 0.17736 0.0
C795 C 0.17462 0.40987 0.23587 0.0
C796 C 0.1585 0.38827 0.25766 0.0
C797 C 0.20467 0.43234 0.24161 0.0
C798 C 0.22187 0.45791 0.22121 0.0
C799 C 0.20987 0.47577 0.21179 0.0
C800 C 0.226 0.49964 0.19237 0.0
C801 C 0.25425 0.50602 0.18237 0.0
C802 C 0.26648 0.48857 0.19181 0.0
C803 C 0.25044 0.46465 0.21121 0.0
H804 H 0.2667 0.5245 0.16733 0.0
H805 H 0.10714 0.3046 0.36583 0.0
H806 H 0.54992 0.71332 0.15008 0.0
H807 H 0.54305 0.73477 0.19561 0.0
H808 H 0.62585 0.74504 0.22982 0.0
H809 H 0.63281 0.72351 0.18449 0.0
H810 H 0.58318 0.72982 0.27337 0.0
H811 H 0.6289 0.80157 0.19588 0.0
H812 H 0.63284 0.82033 0.14506 0.0
H813 H 0.55032 0.82091 0.15629 0.0
H814 H 0.5456 0.80156 0.2071 0.0
H815 H 0.63789 0.85646 0.36628 0.0
H816 H 0.63217 0.82427 0.32427 0.0
H817 H 0.54457 0.8124 0.30672 0.0
H818 H 0.54994 0.84439 0.34912 0.0
H819 H 0.58423 0.82548 0.25553 0.0
H820 H 0.54515 0.75869 0.33915 0.0
H821 H 0.54721 0.74214 0.38974 0.0
H822 H 0.62492 0.73598 0.367 0.0
H823 H 0.62366 0.75303 0.31638 0.0
C824 C 0.56628 0.71949 0.16759 0.0
C825 C 0.5921 0.71716 0.16366 0.0
C826 C 0.56235 0.73176 0.19353 0.0
C827 C 0.58418 0.74184 0.2158 0.0
C828 C 0.60879 0.7374 0.21283 0.0
C829 C 0.61279 0.72524 0.18689 0.0
C830 C 0.58329 0.76007 0.24051 0.0
C831 C 0.58341 0.75072 0.26954 0.0
C832 C 0.58364 0.78735 0.23533 0.0
C833 C 0.5867 0.79975 0.20514 0.0
C834 C 0.61148 0.8055 0.18745 0.0
C835 C 0.61387 0.81624 0.15867 0.0
C836 C 0.59179 0.82168 0.14743 0.0
C837 C 0.56736 0.81658 0.16502 0.0
C838 C 0.56481 0.80573 0.19382 0.0
C839 C 0.61751 0.84722 0.35334 0.0
C840 C 0.5943 0.85281 0.36097 0.0
C841 C 0.61424 0.82877 0.32947 0.0
C842 C 0.58783 0.8158 0.31274 0.0
C843 C 0.56504 0.82218 0.31956 0.0
C844 C 0.56814 0.84038 0.34371 0.0
C845 C 0.58403 0.79518 0.28841 0.0
C846 C 0.5833 0.80424 0.2594 0.0
C847 C 0.58387 0.76801 0.29365 0.0
C848 C 0.58445 0.7574 0.32401 0.0
C849 C 0.56283 0.75405 0.34499 0.0
C850 C 0.56384 0.74455 0.37367 0.0
C851 C 0.58623 0.73808 0.3816 0.0
C852 C 0.60761 0.74103 0.36083 0.0
C853 C 0.60674 0.7506 0.33213 0.0
H854 H 0.58698 0.73073 0.40381 0.0
H855 H 0.59368 0.82986 0.12511 0.0
H856 H 0.2787 0.82682 0.14374 0.0
H857 H 0.2576 0.80163 0.1908 0.0
H858 H 0.21802 0.85746 0.20407 0.0
H859 H 0.23986 0.88331 0.15769 0.0
H860 H 0.24064 0.85209 0.25365 0.0
H861 H 0.1773 0.78386 0.17815 0.0
H862 H 0.1663 0.7526 0.13362 0.0
H863 H 0.20051 0.70124 0.17588 0.0
H864 H 0.21216 0.73251 0.22058 0.0
H865 H 0.12397 0.76669 0.35456 0.0
H866 H 0.15264 0.79199 0.31028 0.0
H867 H 0.19512 0.73799 0.31247 0.0
H868 H 0.16647 0.71251 0.35687 0.0
H869 H 0.17488 0.74163 0.25678 0.0
H870 H 0.23407 0.80842 0.33426 0.0
H871 H 0.24438 0.84029 0.37828 0.0
H872 H 0.21584 0.89434 0.33183 0.0
H873 H 0.20497 0.86257 0.28764 0.0
C874 C 0.26563 0.83378 0.15682 0.0
C875 C 0.26081 0.85692 0.14707 0.0
C876 C 0.25348 0.8193 0.18361 0.0
C877 C 0.23587 0.82737 0.20074 0.0
C878 C 0.23154 0.85087 0.19123 0.0
C879 C 0.24397 0.86557 0.16469 0.0
C880 C 0.22147 0.8112 0.22841 0.0
C881 C 0.22604 0.82796 0.25426 0.0
C882 C 0.20302 0.77963 0.22937 0.0
C883 C 0.19591 0.76074 0.20257 0.0
C884 C 0.18269 0.76604 0.17787 0.0
C885 C 0.1763 0.7483 0.15261 0.0
C886 C 0.18276 0.72499 0.15187 0.0
C887 C 0.19556 0.71933 0.17645 0.0
C888 C 0.20206 0.73705 0.20176 0.0
C889 C 0.13934 0.76013 0.34556 0.0
C890 C 0.14302 0.73765 0.35911 0.0
C891 C 0.15582 0.77472 0.3204 0.0
C892 C 0.17621 0.76705 0.30838 0.0
C893 C 0.17956 0.74425 0.32154 0.0
C894 C 0.16321 0.72977 0.34685 0.0
C895 C 0.19366 0.78262 0.28176 0.0
C896 C 0.18968 0.76573 0.25617 0.0
C897 C 0.21241 0.81409 0.28096 0.0
C898 C 0.21852 0.83298 0.30768 0.0
C899 C 0.22974 0.82694 0.3335 0.0
C900 C 0.23577 0.84505 0.35846 0.0
C901 C 0.23084 0.86936 0.35781 0.0
C902 C 0.21972 0.87554 0.33226 0.0
C903 C 0.21365 0.85751 0.30725 0.0
H904 H 0.23564 0.88343 0.3771 0.0
H905 H 0.17778 0.71128 0.13228 0.0
H906 H 0.88518 0.61381 0.81322 0.0
H907 H 0.85178 0.60485 0.77151 0.0
H908 H 0.78674 0.51993 0.80919 0.0
H909 H 0.81989 0.52907 0.85141 0.0
H910 H 0.82583 0.56469 0.72927 0.0
H911 H 0.71693 0.51178 0.79892 0.0
H912 H 0.70125 0.51142 0.8505 0.0
H913 H 0.77875 0.5979 0.86487 0.0
H914 H 0.79461 0.59896 0.81329 0.0
H915 H 0.70977 0.5268 0.62841 0.0
H916 H 0.73308 0.51912 0.67203 0.0
H917 H 0.73613 0.59588 0.71372 0.0
H918 H 0.71267 0.60362 0.67027 0.0
H919 H 0.72591 0.55143 0.75393 0.0
H920 H 0.79381 0.60713 0.67585 0.0
H921 H 0.81156 0.61572 0.62429 0.0
H922 H 0.82189 0.53806 0.62789 0.0
H923 H 0.80357 0.52866 0.67931 0.0
C924 C 0.86398 0.593 0.8124 0.0
C925 C 0.85495 0.57228 0.83569 0.0
C926 C 0.84495 0.58787 0.78851 0.0
C927 C 0.81662 0.56195 0.78751 0.0
C928 C 0.80835 0.5403 0.80981 0.0
C929 C 0.82734 0.54549 0.83382 0.0
C930 C 0.79506 0.55891 0.76432 0.0
C931 C 0.80385 0.56139 0.73466 0.0
C932 C 0.76669 0.55546 0.77142 0.0
C933 C 0.75714 0.55523 0.80237 0.0
C934 C 0.73056 0.53073 0.81308 0.0
C935 C 0.72165 0.53042 0.84231 0.0
C936 C 0.73906 0.55457 0.86098 0.0
C937 C 0.76535 0.57915 0.85042 0.0
C938 C 0.77432 0.57961 0.8212 0.0
C939 C 0.7147 0.54157 0.64717 0.0
C940 C 0.70987 0.56609 0.64583 0.0
C941 C 0.728 0.53715 0.67203 0.0
C942 C 0.73668 0.55721 0.69581 0.0
C943 C 0.72958 0.58019 0.69553 0.0
C944 C 0.71632 0.58466 0.67066 0.0
C945 C 0.75659 0.55679 0.71902 0.0
C946 C 0.74758 0.5539 0.7486 0.0
C947 C 0.78524 0.56103 0.71196 0.0
C948 C 0.79696 0.56697 0.68129 0.0
C949 C 0.79965 0.59176 0.66557 0.0
C950 C 0.80981 0.59678 0.63637 0.0
C951 C 0.81771 0.57738 0.62276 0.0
C952 C 0.81565 0.55301 0.63839 0.0
C953 C 0.80536 0.54781 0.66757 0.0
H954 H 0.82548 0.58131 0.60013 0.0
H955 H 0.73213 0.55426 0.88361 0.0
H956 H 0.35167 0.23969 0.84361 0.0
H957 H 0.35452 0.2144 0.79912 0.0
H958 H 0.4508 0.25901 0.80745 0.0
H959 H 0.44815 0.28484 0.8517 0.0
H960 H 0.43459 0.2584 0.7513 0.0
H961 H 0.40782 0.18647 0.82866 0.0
H962 H 0.37856 0.15585 0.87113 0.0
H963 H 0.29949 0.11296 0.81728 0.0
H964 H 0.32818 0.14363 0.77457 0.0
H965 H 0.44785 0.16453 0.64414 0.0
H966 H 0.45083 0.19 0.69072 0.0
H967 H 0.35442 0.14891 0.69214 0.0
H968 H 0.35128 0.12281 0.64614 0.0
H969 H 0.37462 0.1475 0.74536 0.0
H970 H 0.40081 0.22341 0.66975 0.0
H971 H 0.43011 0.25488 0.62781 0.0
H972 H 0.51086 0.28997 0.67893 0.0
H973 H 0.48198 0.25866 0.72129 0.0
C974 C 0.37346 0.2443 0.83581 0.0
C975 C 0.39968 0.26413 0.85114 0.0
C976 C 0.37504 0.22969 0.81053 0.0
C977 C 0.40283 0.2344 0.80035 0.0
C978 C 0.42913 0.25495 0.81506 0.0
C979 C 0.42758 0.26968 0.84029 0.0
C980 C 0.40434 0.21779 0.77438 0.0
C981 C 0.42187 0.23412 0.75017 0.0
C982 C 0.38745 0.18614 0.77284 0.0
C983 C 0.37012 0.16754 0.79846 0.0
C984 C 0.38415 0.17067 0.82592 0.0
C985 C 0.36767 0.15327 0.85003 0.0
C986 C 0.33717 0.13252 0.84692 0.0
C987 C 0.32311 0.12906 0.81966 0.0
C988 C 0.33948 0.14642 0.79549 0.0
C989 C 0.42732 0.16086 0.65449 0.0
C990 C 0.39934 0.1418 0.64151 0.0
C991 C 0.42905 0.17552 0.68101 0.0
C992 C 0.40287 0.17168 0.69468 0.0
C993 C 0.37491 0.1522 0.68197 0.0
C994 C 0.37315 0.13737 0.65565 0.0
C995 C 0.40437 0.18815 0.72203 0.0
C996 C 0.3875 0.17177 0.74658 0.0
C997 C 0.42193 0.21974 0.72394 0.0
C998 C 0.43931 0.23848 0.69852 0.0
C999 C 0.42485 0.23768 0.67196 0.0
C1000 C 0.44137 0.25552 0.64813 0.0
C1001 C 0.47236 0.27429 0.65059 0.0
C1002 C 0.48687 0.27538 0.67701 0.0
C1003 C 0.47043 0.25765 0.70096 0.0
H1004 H 0.4851 0.28806 0.63208 0.0
H1005 H 0.32446 0.11907 0.86561 0.0
H1006 H 0.71886 0.17161 0.85538 0.0
H1007 H 0.741 0.19699 0.80869 0.0
H1008 H 0.74682 0.12025 0.77968 0.0
H1009 H 0.72531 0.09508 0.82647 0.0
H1010 H 0.79887 0.17023 0.77306 0.0
H1011 H 0.6962 0.13799 0.74929 0.0
H1012 H 0.64637 0.13277 0.75683 0.0
H1013 H 0.6856 0.22845 0.75534 0.0
H1014 H 0.73575 0.23426 0.74819 0.0
H1015 H 0.84117 0.21138 0.62505 0.0
H1016 H 0.8135 0.18601 0.66966 0.0
H1017 H 0.81166 0.26562 0.69586 0.0
H1018 H 0.83889 0.29102 0.65079 0.0
H1019 H 0.75782 0.21576 0.70437 0.0
H1020 H 0.86027 0.24799 0.72815 0.0
H1021 H 0.91018 0.25341 0.72066 0.0
H1022 H 0.87132 0.15778 0.72256 0.0
H1023 H 0.82109 0.15177 0.72966 0.0
C1024 C 0.72442 0.15999 0.83883 0.0
C1025 C 0.72049 0.13144 0.84456 0.0
C1026 C 0.73699 0.17447 0.81214 0.0
C1027 C 0.74548 0.16046 0.79067 0.0
C1028 C 0.74052 0.1315 0.79599 0.0
C1029 C 0.72815 0.11712 0.82268 0.0
C1030 C 0.76148 0.17669 0.76358 0.0
C1031 C 0.78967 0.17978 0.75781 0.0
C1032 C 0.74991 0.19001 0.74423 0.0
C1033 C 0.71977 0.18656 0.7485 0.0
C1034 C 0.69424 0.15792 0.75082 0.0
C1035 C 0.66593 0.15486 0.75497 0.0
C1036 C 0.66284 0.18026 0.75664 0.0
C1037 C 0.68804 0.20879 0.75408 0.0
C1038 C 0.7164 0.21198 0.74995 0.0
C1039 C 0.83496 0.22353 0.64035 0.0
C1040 C 0.84236 0.25324 0.6346 0.0
C1041 C 0.8192 0.20902 0.66584 0.0
C1042 C 0.81089 0.22408 0.68625 0.0
C1043 C 0.81793 0.25365 0.6804 0.0
C1044 C 0.83358 0.26815 0.65476 0.0
C1045 C 0.79497 0.20888 0.71373 0.0
C1046 C 0.76694 0.20614 0.71964 0.0
C1047 C 0.80667 0.19587 0.73329 0.0
C1048 C 0.83688 0.19943 0.72917 0.0
C1049 C 0.86233 0.22811 0.72675 0.0
C1050 C 0.89069 0.23129 0.72261 0.0
C1051 C 0.89391 0.20595 0.72106 0.0
C1052 C 0.86879 0.17738 0.72373 0.0
C1053 C 0.84038 0.17408 0.72784 0.0
H1054 H 0.91589 0.20846 0.71786 0.0
H1055 H 0.6409 0.17784 0.75985 0.0
H1056 H 0.0677 0.4712 0.09005 0.0
H1057 H 0.03902 0.4943 0.07277 0.0
H1058 H 0.06886 0.49475 0.98369 0.0
H1059 H 0.09758 0.47155 0.00076 0.0
H1060 H 0.06162 0.54462 0.99717 0.0
H1061 H 0.00809 0.43688 0.00305 0.0
H1062 H 0.99063 0.38837 0.028 0.0
H1063 H 0.94417 0.41125 0.09243 0.0
H1064 H 0.96183 0.46016 0.06814 0.0
H1065 H 0.94472 0.53471 0.91075 0.0
H1066 H 0.97612 0.51739 0.93401 0.0
H1067 H 0.94486 0.52585 0.01985 0.0
H1068 H 0.9135 0.54358 0.99676 0.0
H1069 H 0.95283 0.47331 0.01086 0.0
H1070 H 0.00472 0.58098 0.00078 0.0
H1071 H 0.02189 0.62803 0.9731 0.0
H1072 H 0.07119 0.60365 0.91373 0.0
H1073 H 0.05382 0.55616 0.94069 0.0
C1074 C 0.06897 0.47712 0.06694 0.0
C1075 C 0.08441 0.46912 0.04663 0.0
C1076 C 0.05251 0.49022 0.05712 0.0
C1077 C 0.05141 0.49557 0.02692 0.0
C1078 C 0.06937 0.4906 0.00707 0.0
C1079 C 0.08573 0.47733 0.01685 0.0
C1080 C 0.02858 0.50231 0.01558 0.0
C1081 C 0.03786 0.52904 6e-05 0.0
C1082 C -0.00241 0.48191 0.01956 0.0
C1083 C 0.98657 0.45233 0.03398 0.0
C1084 C 0.99436 0.43168 0.02268 0.0
C1085 C 0.98441 0.4041 0.03668 0.0
C1086 C 0.96637 0.39677 0.06183 0.0
C1087 C 0.95819 0.41698 0.07298 0.0
C1088 C 0.96816 0.44463 0.0591 0.0
C1089 C 0.94393 0.53219 0.93453 0.0
C1090 C 0.92695 0.5408 0.952 0.0
C1091 C 0.96194 0.5224 0.94775 0.0
C1092 C 0.96306 0.52088 0.97857 0.0
C1093 C 0.94429 0.52706 0.996 0.0
C1094 C 0.92643 0.53714 0.98279 0.0
C1095 C 0.98589 0.51562 0.99247 0.0
C1096 C 0.9766 0.48908 0.00835 0.0
C1097 C 0.01685 0.53606 0.98855 0.0
C1098 C 0.02774 0.56487 0.97261 0.0
C1099 C 0.01901 0.58553 0.98167 0.0
C1100 C 0.0288 0.61229 0.96613 0.0
C1101 C 0.04757 0.61878 0.94165 0.0
C1102 C 0.05663 0.59856 0.93269 0.0
C1103 C 0.04683 0.57173 0.9481 0.0
H1104 H 0.05516 0.6395 0.92966 0.0
H1105 H 0.95867 0.37541 0.07264 0.0
H1106 H 0.54492 0.63183 0.00889 0.0
H1107 H 0.52044 0.58193 0.9863 0.0
H1108 H 0.5413 0.54649 0.06333 0.0
H1109 H 0.56515 0.5959 0.08614 0.0
H1110 H 0.54575 0.54914 0.9713 0.0
H1111 H 0.48922 0.4747 0.07428 0.0
H1112 H 0.46433 0.47624 0.12025 0.0
H1113 H 0.44078 0.53712 0.07996 0.0
H1114 H 0.46516 0.53563 0.03362 0.0
H1115 H 0.47337 0.37526 0.9914 0.0
H1116 H 0.49868 0.42706 0.00882 0.0
H1117 H 0.47256 0.45426 0.92935 0.0
H1118 H 0.44751 0.40254 0.91161 0.0
H1119 H 0.4687 0.45637 0.02051 0.0
H1120 H 0.52295 0.52952 0.9172 0.0
H1121 H 0.54748 0.52831 0.87083 0.0
H1122 H 0.57451 0.47006 0.91106 0.0
H1123 H 0.55051 0.47124 0.95776 0.0
C1124 C 0.54372 0.61323 0.0212 0.0
C1125 C 0.55683 0.61768 0.04929 0.0
C1126 C 0.52994 0.58484 0.00821 0.0
C1127 C 0.52893 0.56051 0.02321 0.0
C1128 C 0.54139 0.56483 0.05156 0.0
C1129 C 0.55506 0.59311 0.06455 0.0
C1130 C 0.51631 0.53087 0.00883 0.0
C1131 C 0.5285 0.52887 0.98176 0.0
C1132 C 0.4943 0.50445 0.02286 0.0
C1133 C 0.47927 0.50525 0.05055 0.0
C1134 C 0.47862 0.48831 0.07518 0.0
C1135 C 0.46462 0.4892 0.10131 0.0
C1136 C 0.45106 0.50683 0.10305 0.0
C1137 C 0.45139 0.52355 0.07862 0.0
C1138 C 0.46534 0.52274 0.05243 0.0
C1139 C 0.47365 0.39239 0.97731 0.0
C1140 C 0.45832 0.38487 0.95025 0.0
C1141 C 0.488 0.42193 0.98734 0.0
C1142 C 0.48736 0.44442 0.97043 0.0
C1143 C 0.47354 0.43728 0.94262 0.0
C1144 C 0.45921 0.40771 0.93254 0.0
C1145 C 0.49848 0.47456 0.98322 0.0
C1146 C 0.48587 0.47664 0.00997 0.0
C1147 C 0.51994 0.501 0.96879 0.0
C1148 C 0.5346 0.5002 0.94087 0.0
C1149 C 0.53419 0.51651 0.91616 0.0
C1150 C 0.548 0.51583 0.88982 0.0
C1151 C 0.56245 0.49903 0.88797 0.0
C1152 C 0.56319 0.48295 0.91248 0.0
C1153 C 0.54943 0.48357 0.93888 0.0
H1154 H 0.57312 0.49852 0.86755 0.0
H1155 H 0.44025 0.50749 0.12331 0.0
H1156 H 0.37254 0.89706 0.01112 0.0
H1157 H 0.42479 0.92534 0.99509 0.0
H1158 H 0.44779 0.97836 0.07461 0.0
H1159 H 0.39554 0.95026 0.09073 0.0
H1160 H 0.46487 0.0128 0.02551 0.0
H1161 H 0.47503 0.9321 0.06349 0.0
H1162 H 0.46241 0.87967 0.07093 0.0
H1163 H 0.47434 0.87117 0.97832 0.0
H1164 H 0.48662 0.92344 0.97023 0.0
H1165 H 0.62286 0.09222 0.99454 0.0
H1166 H 0.57276 0.06313 0.01612 0.0
H1167 H 0.54264 0.00717 0.93854 0.0
H1168 H 0.59259 0.03605 0.91686 0.0
H1169 H 0.53064 0.97469 0.98966 0.0
H1170 H 0.51803 0.05481 0.9517 0.0
H1171 H 0.53077 0.10731 0.94456 0.0
H1172 H 0.52361 0.11682 0.03791 0.0
H1173 H 0.51124 0.06446 0.04566 0.0
C1174 C 0.38888 0.91421 0.02554 0.0
C1175 C 0.37996 0.92162 0.05206 0.0
C1176 C 0.41873 0.93033 0.01638 0.0
C1177 C 0.4401 0.954 0.03364 0.0
C1178 C 0.43157 0.96023 0.06095 0.0
C1179 C 0.40176 0.94406 0.07018 0.0
C1180 C 0.47043 0.97413 0.02172 0.0
C1181 C 0.47953 0.00459 0.01819 0.0
C1182 C 0.4891 0.96319 0.0115 0.0
C1183 C 0.48148 0.93164 0.01621 0.0
C1184 C 0.47468 0.91897 0.04465 0.0
C1185 C 0.46765 0.8893 0.049 0.0
C1186 C 0.4675 0.87208 0.02511 0.0
C1187 C 0.47443 0.88452 0.99681 0.0
C1188 C 0.48146 0.91419 0.99233 0.0
C1189 C 0.60537 0.07414 0.98183 0.0
C1190 C 0.61162 0.06631 0.95408 0.0
C1191 C 0.5768 0.05753 0.99419 0.0
C1192 C 0.55411 0.03293 0.97895 0.0
C1193 C 0.55994 0.02598 0.95068 0.0
C1194 C 0.58842 0.04262 0.93827 0.0
C1195 C 0.52488 0.01323 0.99321 0.0
C1196 C 0.51603 0.98289 0.99718 0.0
C1197 C 0.50645 0.02427 0.00388 0.0
C1198 C 0.51405 0.05581 -0.00071 0.0
C1199 C 0.51947 0.06818 0.97074 0.0
C1200 C 0.52656 0.0979 0.96658 0.0
C1201 C 0.52809 0.11542 0.99078 0.0
C1202 C 0.52247 0.10324 0.01919 0.0
C1203 C 0.5154 0.07354 0.02348 0.0
H1204 H 0.53356 0.13842 0.98751 0.0
H1205 H 0.46208 0.84911 0.02853 0.0
H1206 H 0.52526 0.89972 0.50171 0.0
H1207 H 0.50206 0.9284 0.519 0.0
H1208 H 0.5211 0.97402 0.43508 0.0
H1209 H 0.54373 0.94508 0.41752 0.0
H1210 H 0.53189 0.98752 0.52619 0.0
H1211 H 0.47273 -0.00086 0.42215 0.0
H1212 H 0.44407 0.96895 0.37925 0.0
H1213 H 0.41736 0.88811 0.42824 0.0
H1214 H 0.44551 0.91779 0.47156 0.0
H1215 H 0.46622 0.09445 0.49906 0.0
H1216 H 0.48755 0.06387 0.4824 0.0
H1217 H 0.46661 0.01888 0.56672 0.0
H1218 H 0.44579 0.04967 0.58367 0.0
H1219 H 0.45588 0.0042 0.47602 0.0
H1220 H 0.51406 0.99234 0.5803 0.0
H1221 H 0.54258 0.02238 0.62334 0.0
H1222 H 0.57097 0.10335 0.574 0.0
H1223 H 0.54296 0.07381 0.53056 0.0
C1224 C 0.52373 0.91526 0.48668 0.0
C1225 C 0.5364 0.92028 0.45832 0.0
C1226 C 0.51065 0.93175 0.49664 0.0
C1227 C 0.50992 0.95338 0.47836 0.0
C1228 C 0.52107 0.95719 0.44945 0.0
C1229 C 0.53404 0.94065 0.43945 0.0
C1230 C 0.50024 0.97394 0.49033 0.0
C1231 C 0.51486 0.99079 0.51553 0.0
C1232 C 0.47873 0.97883 0.47586 0.0
C1233 C 0.46149 0.96073 0.45001 0.0
C1234 C 0.46065 0.97492 0.42381 0.0
C1235 C 0.44451 0.95789 0.39941 0.0
C1236 C 0.42898 0.92663 0.40099 0.0
C1237 C 0.4295 0.91232 0.42701 0.0
C1238 C 0.44559 0.92924 0.45147 0.0
C1239 C 0.46691 0.0786 0.5143 0.0
C1240 C 0.45429 0.07437 0.54262 0.0
C1241 C 0.4789 0.06102 0.50469 0.0
C1242 C 0.47858 0.03907 0.52329 0.0
C1243 C 0.4674 0.03591 0.55212 0.0
C1244 C 0.4555 0.05354 0.56177 0.0
C1245 C 0.4876 0.01784 0.51179 0.0
C1246 C 0.47285 0.00087 0.4867 0.0
C1247 C 0.50896 0.01281 0.52637 0.0
C1248 C 0.52614 0.03084 0.55228 0.0
C1249 C 0.52647 0.01655 0.57861 0.0
C1250 C 0.54254 0.0335 0.60308 0.0
C1251 C 0.55849 0.06476 0.60144 0.0
C1252 C 0.5585 0.07914 0.57528 0.0
C1253 C 0.54249 0.06231 0.55075 0.0
H1254 H 0.5709 0.07783 0.62041 0.0
H1255 H 0.41651 0.91349 0.38207 0.0
H1256 H 0.88376 0.36937 0.49556 0.0
H1257 H 0.91257 0.42082 0.47741 0.0
H1258 H 0.95583 0.44947 0.56213 0.0
H1259 H 0.92705 0.39811 0.58053 0.0
H1260 H 0.94515 0.49269 0.53273 0.0
H1261 H 0.98642 0.42664 0.51242 0.0
H1262 H 0.98322 0.38102 0.49117 0.0
H1263 H 0.96741 0.40547 0.40529 0.0
H1264 H 0.97007 0.45103 0.42606 0.0
H1265 H 0.08272 0.61895 0.50214 0.0
H1266 H 0.04689 0.5679 0.51771 0.0
H1267 H 0.0166 0.54442 0.42779 0.0
H1268 H 0.05252 0.59539 0.41199 0.0
H1269 H 0.01729 0.49857 0.45647 0.0
H1270 H 0.9778 0.56298 0.47085 0.0
H1271 H 0.97674 0.60805 0.48719 0.0
H1272 H 0.98373 0.58706 0.57754 0.0
H1273 H 0.98517 0.54195 0.56168 0.0
C1274 C 0.89868 0.38678 0.51063 0.0
C1275 C 0.90358 0.3797 0.5393 0.0
C1276 C 0.91516 0.41612 0.50019 0.0
C1277 C 0.93671 0.43867 0.51828 0.0
C1278 C 0.93939 0.43226 0.54783 0.0
C1279 C 0.92296 0.40291 0.55829 0.0
C1280 C 0.9592 0.46766 0.50553 0.0
C1281 C 0.9611 0.49407 0.51625 0.0
C1282 C 0.97927 0.46923 0.48328 0.0
C1283 C 0.97815 0.44206 0.47084 0.0
C1284 C 0.98207 0.42218 0.48905 0.0
C1285 C 0.98038 0.39636 0.4771 0.0
C1286 C 0.97505 0.39031 0.44696 0.0
C1287 C 0.97149 0.41015 0.42865 0.0
C1288 C 0.9731 0.43597 0.44049 0.0
C1289 C 0.06905 0.6027 0.48556 0.0
C1290 C 0.07013 0.61119 0.45592 0.0
C1291 C 0.04842 0.57365 0.49452 0.0
C1292 C 0.02864 0.55274 0.47397 0.0
C1293 C 0.03152 0.56038 0.44398 0.0
C1294 C 0.0521 0.58946 0.435 0.0
C1295 C 0.00371 0.52369 0.48412 0.0
C1296 C 0.00132 0.49727 0.47288 0.0
C1297 C 0.98269 0.52211 0.50527 0.0
C1298 C 0.98191 0.54924 0.51505 0.0
C1299 C 0.97939 0.56811 0.4942 0.0
C1300 C 0.97866 0.59364 0.50337 0.0
C1301 C 0.98026 0.60049 0.53339 0.0
C1302 C 0.98252 0.58175 0.55429 0.0
C1303 C 0.98326 0.55616 0.54522 0.0
H1304 H 0.97967 0.62026 0.54044 0.0
H1305 H 0.97374 0.3703 0.43778 0.0
H1306 H 0.38912 0.47306 0.41607 0.0
H1307 H 0.44215 0.49274 0.42779 0.0
H1308 H 0.42049 0.47888 0.52051 0.0
H1309 H 0.36764 0.45947 0.50911 0.0
H1310 H 0.4864 0.53798 0.4671 0.0
H1311 H 0.45107 0.43583 0.54439 0.0
H1312 H 0.40934 0.38395 0.54991 0.0
H1313 H 0.38984 0.38045 0.45739 0.0
H1314 H 0.43185 0.43208 0.45118 0.0
H1315 H 0.59068 0.55429 0.5747 0.0
H1316 H 0.5416 0.53514 0.55188 0.0
H1317 H 0.56622 0.49364 0.48312 0.0
H1318 H 0.61611 0.51353 0.50544 0.0
H1319 H 0.5016 0.45944 0.51425 0.0
H1320 H 0.57022 0.54378 0.45614 0.0
H1321 H 0.61283 0.59474 0.4483 0.0
H1322 H 0.56687 0.63169 0.49621 0.0
H1323 H 0.52412 0.58081 0.50481 0.0
C1324 C 0.39582 0.47516 0.439 0.0
C1325 C 0.37426 0.46435 0.46168 0.0
C1326 C 0.42606 0.48633 0.44562 0.0
C1327 C 0.4349 0.48654 0.4749 0.0
C1328 C 0.41385 0.47843 0.49773 0.0
C1329 C 0.38373 0.4675 0.49118 0.0
C1330 C 0.46523 0.49206 0.4816 0.0
C1331 C 0.4898 0.5208 0.47717 0.0
C1332 C 0.46957 0.46926 0.49399 0.0
C1333 C 0.44447 0.43798 0.4974 0.0
C1334 C 0.43799 0.42395 0.52519 0.0
C1335 C 0.41428 0.39458 0.52844 0.0
C1336 C 0.39692 0.37895 0.50403 0.0
C1337 C 0.40326 0.39263 0.47629 0.0
C1338 C 0.427 0.42196 0.47291 0.0
C1339 C 0.58554 0.54057 0.55507 0.0
C1340 C 0.60725 0.53553 0.54171 0.0
C1341 C 0.55755 0.52978 0.54204 0.0
C1342 C 0.55069 0.51341 0.51575 0.0
C1343 C 0.5714 0.50642 0.5034 0.0
C1344 C 0.59974 0.51769 0.51618 0.0
C1345 C 0.52247 0.50553 0.50058 0.0
C1346 C 0.49823 0.47642 0.50363 0.0
C1347 C 0.51854 0.52777 0.48638 0.0
C1348 C 0.54411 0.55845 0.48137 0.0
C1349 C 0.56933 0.56273 0.4653 0.0
C1350 C 0.59346 0.59159 0.46065 0.0
C1351 C 0.59254 0.61641 0.47176 0.0
C1352 C 0.56751 0.61242 0.48761 0.0
C1353 C 0.54331 0.58356 0.49236 0.0
H1354 H 0.61123 0.6387 0.46803 0.0
H1355 H 0.37862 0.35623 0.50663 0.0
loop_
_geom_bond_atom_site_label_1
_geom_bond_atom_site_label_2
_geom_bond_distance
_geom_bond_site_symmetry_2
_ccdc_geom_bond_type
In0 O1 2.294 . S
In0 O2 2.326 . S
In0 O6 2.266 . S
In0 O7 2.326 . S
In0 O8 2.266 . S
In0 O9 2.326 . S
In0 O11 2.294 . S
In0 O12 2.326 . S
O1 In0 2.294 . S
O1 C10 1.240 . S
O2 In0 2.326 . S
O2 C10 1.252 . S
C3 O6 1.252 . S
C3 O7 1.260 . S
C4 O11 1.240 . S
C4 O12 1.252 . S
C5 O8 1.252 . S
C5 O9 1.260 . S
O6 In0 2.266 . S
O6 C3 1.252 . S
O7 In0 2.326 . S
O7 C3 1.260 . S
O8 In0 2.266 . S
O8 C5 1.252 . S
O9 In0 2.326 . S
O9 C5 1.260 . S
C10 O1 1.240 . S
C10 O2 1.252 . S
O11 In0 2.294 . S
O11 C4 1.240 . S
O12 In0 2.326 . S
O12 C4 1.252 . S
In13 O14 2.294 . S
In13 O15 2.326 . S
In13 O19 2.266 . S
In13 O20 2.326 . S
In13 O21 2.266 . S
In13 O22 2.326 . S
In13 O24 2.294 . S
In13 O25 2.326 . S
O14 In13 2.294 . S
O14 C23 1.240 . S
O15 In13 2.326 . S
O15 C23 1.252 . S
C16 O19 1.252 . S
C16 O20 1.260 . S
C17 O24 1.240 . S
C17 O25 1.252 . S
C18 O21 1.252 . S
C18 O22 1.260 . S
O19 In13 2.266 . S
O19 C16 1.252 . S
O20 In13 2.326 . S
O20 C16 1.260 . S
O21 In13 2.266 . S
O21 C18 1.252 . S
O22 In13 2.326 . S
O22 C18 1.260 . S
C23 O14 1.240 . S
C23 O15 1.252 . S
O24 In13 2.294 . S
O24 C17 1.240 . S
O25 In13 2.326 . S
O25 C17 1.252 . S
In26 O27 2.294 . S
In26 O28 2.326 . S
In26 O32 2.266 . S
In26 O33 2.326 . S
In26 O34 2.266 . S
In26 O35 2.326 . S
In26 O37 2.294 . S
In26 O38 2.326 . S
O27 In26 2.294 . S
O27 C36 1.240 . S
O28 In26 2.326 . S
O28 C36 1.252 . S
C29 O32 1.252 . S
C29 O33 1.260 . S
C30 O37 1.240 . S
C30 O38 1.252 . S
C31 O34 1.252 . S
C31 O35 1.260 . S
O32 In26 2.266 . S
O32 C29 1.252 . S
O33 In26 2.326 . S
O33 C29 1.260 . S
O34 In26 2.266 . S
O34 C31 1.252 . S
O35 In26 2.326 . S
O35 C31 1.260 . S
C36 O27 1.240 . S
C36 O28 1.252 . S
O37 In26 2.294 . S
O37 C30 1.240 . S
O38 In26 2.326 . S
O38 C30 1.252 . S
In39 O40 2.294 . S
In39 O41 2.326 . S
In39 O45 2.266 . S
In39 O46 2.326 . S
In39 O47 2.266 . S
In39 O48 2.326 . S
In39 O50 2.294 . S
In39 O51 2.326 . S
O40 In39 2.294 . S
O40 C49 1.240 . S
O41 In39 2.326 . S
O41 C49 1.252 . S
C42 O45 1.252 . S
C42 O46 1.260 . S
C43 O50 1.240 . S
C43 O51 1.252 . S
C44 O47 1.252 . S
C44 O48 1.260 . S
O45 In39 2.266 . S
O45 C42 1.252 . S
O46 In39 2.326 . S
O46 C42 1.260 . S
O47 In39 2.266 . S
O47 C44 1.252 . S
O48 In39 2.326 . S
O48 C44 1.260 . S
C49 O40 1.240 . S
C49 O41 1.252 . S
O50 In39 2.294 . S
O50 C43 1.240 . S
O51 In39 2.326 . S
O51 C43 1.252 . S
In52 O53 2.294 . S
In52 O54 2.326 . S
In52 O58 2.266 . S
In52 O59 2.326 . S
In52 O60 2.266 . S
In52 O61 2.326 . S
In52 O63 2.294 . S
In52 O64 2.326 . S
O53 In52 2.294 . S
O53 C62 1.240 . S
O54 In52 2.326 . S
O54 C62 1.252 . S
C55 O58 1.252 . S
C55 O59 1.260 . S
C56 O63 1.240 . S
C56 O64 1.252 . S
C57 O60 1.252 . S
C57 O61 1.260 . S
O58 In52 2.266 . S
O58 C55 1.252 . S
O59 In52 2.326 . S
O59 C55 1.260 . S
O60 In52 2.266 . S
O60 C57 1.252 . S
O61 In52 2.326 . S
O61 C57 1.260 . S
C62 O53 1.240 . S
C62 O54 1.252 . S
O63 In52 2.294 . S
O63 C56 1.240 . S
O64 In52 2.326 . S
O64 C56 1.252 . S
In65 O66 2.294 . S
In65 O67 2.326 . S
In65 O71 2.266 . S
In65 O72 2.326 . S
In65 O73 2.266 . S
In65 O74 2.326 . S
In65 O76 2.294 . S
In65 O77 2.326 . S
O66 In65 2.294 . S
O66 C75 1.240 . S
O67 In65 2.326 . S
O67 C75 1.252 . S
C68 O71 1.252 . S
C68 O72 1.260 . S
C69 O76 1.240 . S
C69 O77 1.252 . S
C70 O73 1.252 . S
C70 O74 1.260 . S
O71 In65 2.266 . S
O71 C68 1.252 . S
O72 In65 2.326 . S
O72 C68 1.260 . S
O73 In65 2.266 . S
O73 C70 1.252 . S
O74 In65 2.326 . S
O74 C70 1.260 . S
C75 O66 1.240 . S
C75 O67 1.252 . S
O76 In65 2.294 . S
O76 C69 1.240 . S
O77 In65 2.326 . S
O77 C69 1.252 . S
In78 O79 2.294 . S
In78 O80 2.326 . S
In78 O84 2.266 . S
In78 O85 2.326 . S
In78 O86 2.266 . S
In78 O87 2.326 . S
In78 O89 2.294 . S
In78 O90 2.326 . S
O79 In78 2.294 . S
O79 C88 1.240 . S
O80 In78 2.326 . S
O80 C88 1.252 . S
C81 O84 1.252 . S
C81 O85 1.260 . S
C82 O89 1.240 . S
C82 O90 1.252 . S
C83 O86 1.252 . S
C83 O87 1.260 . S
O84 In78 2.266 . S
O84 C81 1.252 . S
O85 In78 2.326 . S
O85 C81 1.260 . S
O86 In78 2.266 . S
O86 C83 1.252 . S
O87 In78 2.326 . S
O87 C83 1.260 . S
C88 O79 1.240 . S
C88 O80 1.252 . S
O89 In78 2.294 . S
O89 C82 1.240 . S
O90 In78 2.326 . S
O90 C82 1.252 . S
In91 O92 2.294 . S
In91 O93 2.326 . S
In91 O97 2.266 . S
In91 O98 2.326 . S
In91 O99 2.266 . S
In91 O100 2.326 . S
In91 O102 2.294 . S
In91 O103 2.326 . S
O92 In91 2.294 . S
O92 C101 1.240 . S
O93 In91 2.326 . S
O93 C101 1.252 . S
C94 O97 1.252 . S
C94 O98 1.260 . S
C95 O102 1.240 . S
C95 O103 1.252 . S
C96 O99 1.252 . S
C96 O100 1.260 . S
O97 In91 2.266 . S
O97 C94 1.252 . S
O98 In91 2.326 . S
O98 C94 1.260 . S
O99 In91 2.266 . S
O99 C96 1.252 . S
O100 In91 2.326 . S
O100 C96 1.260 . S
C101 O92 1.240 . S
C101 O93 1.252 . S
O102 In91 2.294 . S
O102 C95 1.240 . S
O103 In91 2.326 . S
O103 C95 1.252 . S
In104 O105 2.294 . S
In104 O106 2.326 . S
In104 O110 2.266 . S
In104 O111 2.326 . S
In104 O112 2.266 . S
In104 O113 2.326 . S
In104 O115 2.294 . S
In104 O116 2.326 . S
O105 In104 2.294 . S
O105 C114 1.240 . S
O106 In104 2.326 . S
O106 C114 1.252 . S
C107 O110 1.252 . S
C107 O111 1.260 . S
C108 O115 1.240 . S
C108 O116 1.252 . S
C109 O112 1.252 . S
C109 O113 1.260 . S
O110 In104 2.266 . S
O110 C107 1.252 . S
O111 In104 2.326 . S
O111 C107 1.260 . S
O112 In104 2.266 . S
O112 C109 1.252 . S
O113 In104 2.326 . S
O113 C109 1.260 . S
C114 O105 1.240 . S
C114 O106 1.252 . S
O115 In104 2.294 . S
O115 C108 1.240 . S
O116 In104 2.326 . S
O116 C108 1.252 . S
In117 O118 2.294 . S
In117 O119 2.326 . S
In117 O123 2.266 . S
In117 O124 2.326 . S
In117 O125 2.266 . S
In117 O126 2.326 . S
In117 O128 2.294 . S
In117 O129 2.326 . S
O118 In117 2.294 . S
O118 C127 1.240 . S
O119 In117 2.326 . S
O119 C127 1.252 . S
C120 O123 1.252 . S
C120 O124 1.260 . S
C121 O128 1.240 . S
C121 O129 1.252 . S
C122 O125 1.252 . S
C122 O126 1.260 . S
O123 In117 2.266 . S
O123 C120 1.252 . S
O124 In117 2.326 . S
O124 C120 1.260 . S
O125 In117 2.266 . S
O125 C122 1.252 . S
O126 In117 2.326 . S
O126 C122 1.260 . S
C127 O118 1.240 . S
C127 O119 1.252 . S
O128 In117 2.294 . S
O128 C121 1.240 . S
O129 In117 2.326 . S
O129 C121 1.252 . S
In130 O131 2.294 . S
In130 O132 2.326 . S
In130 O136 2.266 . S
In130 O137 2.326 . S
In130 O138 2.266 . S
In130 O139 2.326 . S
In130 O141 2.294 . S
In130 O142 2.326 . S
O131 In130 2.294 . S
O131 C140 1.240 . S
O132 In130 2.326 . S
O132 C140 1.252 . S
C133 O136 1.252 . S
C133 O137 1.260 . S
C134 O141 1.240 . S
C134 O142 1.252 . S
C135 O138 1.252 . S
C135 O139 1.260 . S
O136 In130 2.266 . S
O136 C133 1.252 . S
O137 In130 2.326 . S
O137 C133 1.260 . S
O138 In130 2.266 . S
O138 C135 1.252 . S
O139 In130 2.326 . S
O139 C135 1.260 . S
C140 O131 1.240 . S
C140 O132 1.252 . S
O141 In130 2.294 . S
O141 C134 1.240 . S
O142 In130 2.326 . S
O142 C134 1.252 . S
In143 O144 2.294 . S
In143 O145 2.326 . S
In143 O149 2.266 . S
In143 O150 2.326 . S
In143 O151 2.266 . S
In143 O152 2.326 . S
In143 O154 2.294 . S
In143 O155 2.326 . S
O144 In143 2.294 . S
O144 C153 1.240 . S
O145 In143 2.326 . S
O145 C153 1.252 . S
C146 O149 1.252 . S
C146 O150 1.260 . S
C147 O154 1.240 . S
C147 O155 1.252 . S
C148 O151 1.252 . S
C148 O152 1.260 . S
O149 In143 2.266 . S
O149 C146 1.252 . S
O150 In143 2.326 . S
O150 C146 1.260 . S
O151 In143 2.266 . S
O151 C148 1.252 . S
O152 In143 2.326 . S
O152 C148 1.260 . S
C153 O144 1.240 . S
C153 O145 1.252 . S
O154 In143 2.294 . S
O154 C147 1.240 . S
O155 In143 2.326 . S
O155 C147 1.252 . S
H156 C174 0.951 . S
H157 C176 0.951 . S
H158 C178 0.950 1_556 S
H159 C179 0.950 . S
H160 C181 0.950 . S
H161 C184 0.950 . S
H162 C185 0.950 . S
H163 C187 0.950 . S
H164 C188 0.950 1_554 S
H165 C189 0.951 . S
H166 C191 0.951 . S
H167 C193 0.950 1_554 S
H168 C194 0.950 . S
H169 C196 0.950 . S
H170 C199 0.950 . S
H171 C200 0.950 . S
H172 C202 0.950 . S
H173 C203 0.950 1_556 S
C174 H156 0.951 . S
C174 C175 1.366 . S
C174 C176 1.388 . S
C175 C174 1.366 . S
C175 C179 1.385 . S
C176 H157 0.951 . S
C176 C174 1.388 . S
C176 C177 1.366 . S
C177 C176 1.366 . S
C177 C178 1.414 . S
C177 C180 1.499 . S
C178 H158 0.950 1_554 S
C178 C177 1.414 . S
C178 C179 1.374 . S
C179 H159 0.950 . S
C179 C175 1.385 . S
C179 C178 1.374 . S
C180 C177 1.499 . S
C180 C181 1.373 . S
C180 C182 1.389 1_554 S
C181 H160 0.950 . S
C181 C180 1.373 . S
C181 C197 1.377 . S
C182 C180 1.389 1_556 S
C182 C183 1.524 . S
C182 C196 1.377 . S
C183 C182 1.524 . S
C183 C184 1.397 . S
C183 C188 1.363 . S
C184 H161 0.950 . S
C184 C183 1.397 . S
C184 C185 1.334 . S
C185 H162 0.950 . S
C185 C184 1.334 . S
C185 C186 1.287 . S
C186 C185 1.287 . S
C186 C187 1.524 . S
C186 H205 0.913 . S
C187 H163 0.950 . S
C187 C186 1.524 . S
C187 C188 1.415 . S
C188 H164 0.950 1_556 S
C188 C183 1.363 . S
C188 C187 1.415 . S
C189 H165 0.951 . S
C189 C190 1.366 . S
C189 C191 1.388 . S
C190 C189 1.366 . S
C190 C194 1.385 . S
C191 H166 0.951 . S
C191 C189 1.388 . S
C191 C192 1.366 . S
C192 C191 1.366 . S
C192 C193 1.414 . S
C192 C195 1.499 . S
C193 H167 0.950 1_556 S
C193 C192 1.414 . S
C193 C194 1.374 . S
C194 H168 0.950 . S
C194 C190 1.385 . S
C194 C193 1.374 . S
C195 C192 1.499 . S
C195 C196 1.373 . S
C195 C197 1.389 1_556 S
C196 H169 0.950 . S
C196 C182 1.377 . S
C196 C195 1.373 . S
C197 C181 1.377 . S
C197 C195 1.389 1_554 S
C197 C198 1.524 . S
C198 C197 1.524 . S
C198 C199 1.397 . S
C198 C203 1.363 . S
C199 H170 0.950 . S
C199 C198 1.397 . S
C199 C200 1.334 . S
C200 H171 0.950 . S
C200 C199 1.334 . S
C200 C201 1.287 . S
C201 C200 1.287 . S
C201 C202 1.524 . S
C201 H204 0.999 . S
C202 H172 0.950 . S
C202 C201 1.524 . S
C202 C203 1.415 . S
C203 H173 0.950 1_554 S
C203 C198 1.363 . S
C203 C202 1.415 . S
H204 C201 0.999 . S
H205 C186 0.913 . S
H206 C224 0.951 . S
H207 C226 0.951 . S
H208 C228 0.950 . S
H209 C229 0.950 1_556 S
H210 C231 0.950 . S
H211 C234 0.950 . S
H212 C235 0.950 . S
H213 C237 0.950 . S
H214 C238 0.950 . S
H215 C239 0.943 1_545 S
H216 C241 0.951 . S
H217 C243 0.950 . S
H218 C244 0.950 1_554 S
H219 C246 0.950 . S
H220 C249 0.950 . S
H221 C250 0.950 . S
H222 C252 0.950 . S
H223 C253 0.950 . S
C224 H206 0.951 . S
C224 C225 1.366 . S
C224 C226 1.388 . S
C225 C224 1.366 . S
C225 C229 1.385 . S
C226 H207 0.951 . S
C226 C224 1.388 . S
C226 C227 1.366 . S
C227 C226 1.366 . S
C227 C228 1.414 1_554 S
C227 C230 1.499 . S
C228 H208 0.950 . S
C228 C227 1.414 1_556 S
C228 C229 1.374 1_556 S
C229 H209 0.950 1_554 S
C229 C225 1.385 . S
C229 C228 1.374 1_554 S
C230 C227 1.499 . S
C230 C231 1.373 1_554 S
C230 C232 1.389 . S
C231 H210 0.950 . S
C231 C230 1.373 1_556 S
C231 C247 1.377 . S
C232 C230 1.389 . S
C232 C233 1.524 . S
C232 C246 1.377 . S
C233 C232 1.524 . S
C233 C234 1.397 . S
C233 C238 1.363 . S
C234 H211 0.950 . S
C234 C233 1.397 . S
C234 C235 1.334 . S
C235 H212 0.950 . S
C235 C234 1.334 . S
C235 C236 1.287 . S
C236 C235 1.287 . S
C236 C237 1.524 . S
C236 H255 0.913 . S
C237 H213 0.950 . S
C237 C236 1.524 . S
C237 C238 1.415 . S
C238 H214 0.950 . S
C238 C233 1.363 . S
C238 C237 1.415 . S
C239 H215 0.943 1_565 S
C239 C240 1.366 1_565 S
C239 C241 1.388 . S
C240 C239 1.366 1_545 S
C240 C244 1.385 . S
C241 H216 0.951 . S
C241 C239 1.388 . S
C241 C242 1.366 . S
C242 C241 1.366 . S
C242 C243 1.414 1_556 S
C242 C245 1.499 . S
C243 H217 0.950 . S
C243 C242 1.414 1_554 S
C243 C244 1.374 1_564 S
C244 H218 0.950 1_556 S
C244 C240 1.385 . S
C244 C243 1.374 1_546 S
C245 C242 1.499 . S
C245 C246 1.373 1_556 S
C245 C247 1.389 . S
C246 H219 0.950 . S
C246 C232 1.377 . S
C246 C245 1.373 1_554 S
C247 C231 1.377 . S
C247 C245 1.389 . S
C247 C248 1.524 . S
C248 C247 1.524 . S
C248 C249 1.397 . S
C248 C253 1.363 . S
C249 H220 0.950 . S
C249 C248 1.397 . S
C249 C250 1.334 . S
C250 H221 0.950 . S
C250 C249 1.334 . S
C250 C251 1.287 . S
C251 C250 1.287 . S
C251 C252 1.524 . S
C251 H254 0.999 . S
C252 H222 0.950 . S
C252 C251 1.524 . S
C252 C253 1.415 . S
C253 H223 0.950 . S
C253 C248 1.363 . S
C253 C252 1.415 . S
H254 C251 0.999 . S
H255 C236 0.913 . S
H256 C274 0.951 . S
H257 C276 0.951 . S
H258 C278 0.950 1_556 S
H259 C279 0.950 . S
H260 C281 0.950 . S
H261 C284 0.950 . S
H262 C285 0.950 . S
H263 C287 0.950 . S
H264 C288 0.950 . S
H265 C289 0.951 . S
H266 C291 0.951 . S
H267 C293 0.950 1_554 S
H268 C294 0.950 . S
H269 C296 0.950 . S
H270 C299 0.950 . S
H271 C300 0.950 . S
H272 C302 0.950 . S
H273 C303 0.950 . S
C274 H256 0.951 . S
C274 C275 1.366 . S
C274 C276 1.388 . S
C275 C274 1.366 . S
C275 C279 1.385 . S
C276 H257 0.951 . S
C276 C274 1.388 . S
C276 C277 1.366 . S
C277 C276 1.366 . S
C277 C278 1.414 . S
C277 C280 1.499 . S
C278 H258 0.950 1_554 S
C278 C277 1.414 . S
C278 C279 1.374 . S
C279 H259 0.950 . S
C279 C275 1.385 . S
C279 C278 1.374 . S
C280 C277 1.499 . S
C280 C281 1.373 1_554 S
C280 C282 1.389 . S
C281 H260 0.950 . S
C281 C280 1.373 1_556 S
C281 C297 1.377 . S
C282 C280 1.389 . S
C282 C283 1.524 . S
C282 C296 1.377 . S
C283 C282 1.524 . S
C283 C284 1.397 . S
C283 C288 1.363 . S
C284 H261 0.950 . S
C284 C283 1.397 . S
C284 C285 1.334 . S
C285 H262 0.950 . S
C285 C284 1.334 . S
C285 C286 1.287 . S
C286 C285 1.287 . S
C286 C287 1.524 . S
C286 H305 0.913 . S
C287 H263 0.950 . S
C287 C286 1.524 . S
C287 C288 1.415 . S
C288 H264 0.950 . S
C288 C283 1.363 . S
C288 C287 1.415 . S
C289 H265 0.951 . S
C289 C290 1.366 1_455 S
C289 C291 1.388 . S
C290 C289 1.366 1_655 S
C290 C294 1.385 . S
C291 H266 0.951 . S
C291 C289 1.388 . S
C291 C292 1.366 . S
C292 C291 1.366 . S
C292 C293 1.414 . S
C292 C295 1.499 . S
C293 H267 0.950 1_556 S
C293 C292 1.414 . S
C293 C294 1.374 1_455 S
C294 H268 0.950 . S
C294 C290 1.385 . S
C294 C293 1.374 1_655 S
C295 C292 1.499 . S
C295 C296 1.373 1_556 S
C295 C297 1.389 . S
C296 H269 0.950 . S
C296 C282 1.377 . S
C296 C295 1.373 1_554 S
C297 C281 1.377 . S
C297 C295 1.389 . S
C297 C298 1.524 . S
C298 C297 1.524 . S
C298 C299 1.397 . S
C298 C303 1.363 . S
C299 H270 0.950 . S
C299 C298 1.397 . S
C299 C300 1.334 . S
C300 H271 0.950 . S
C300 C299 1.334 . S
C300 C301 1.287 . S
C301 C300 1.287 . S
C301 C302 1.524 . S
C301 H304 0.999 . S
C302 H272 0.950 . S
C302 C301 1.524 . S
C302 C303 1.415 . S
C303 H273 0.950 . S
C303 C298 1.363 . S
C303 C302 1.415 . S
H304 C301 0.999 . S
H305 C286 0.913 . S
H306 C324 0.951 . S
H307 C326 0.951 . S
H308 C328 0.950 . S
H309 C329 0.950 . S
H310 C331 0.950 . S
H311 C334 0.950 . S
H312 C335 0.950 . S
H313 C337 0.950 . S
H314 C338 0.950 . S
H315 C339 0.951 . S
H316 C341 0.951 . S
H317 C343 0.950 . S
H318 C344 0.950 . S
H319 C346 0.950 . S
H320 C349 0.950 . S
H321 C350 0.950 . S
H322 C352 0.950 . S
H323 C353 0.950 . S
C324 H306 0.951 . S
C324 C325 1.366 . S
C324 C326 1.388 . S
C325 C324 1.366 . S
C325 C329 1.385 . S
C326 H307 0.951 . S
C326 C324 1.388 . S
C326 C327 1.366 . S
C327 C326 1.366 . S
C327 C328 1.414 . S
C327 C330 1.499 . S
C328 H308 0.950 . S
C328 C327 1.414 . S
C328 C329 1.374 . S
C329 H309 0.950 . S
C329 C325 1.385 . S
C329 C328 1.374 . S
C330 C327 1.499 . S
C330 C331 1.373 . S
C330 C332 1.389 . S
C331 H310 0.950 . S
C331 C330 1.373 . S
C331 C347 1.377 . S
C332 C330 1.389 . S
C332 C333 1.524 . S
C332 C346 1.377 . S
C333 C332 1.524 . S
C333 C334 1.397 . S
C333 C338 1.363 . S
C334 H311 0.950 . S
C334 C333 1.397 . S
C334 C335 1.334 . S
C335 H312 0.950 . S
C335 C334 1.334 . S
C335 C336 1.287 . S
C336 C335 1.287 . S
C336 C337 1.524 . S
C336 H355 0.913 . S
C337 H313 0.950 . S
C337 C336 1.524 . S
C337 C338 1.415 . S
C338 H314 0.950 . S
C338 C333 1.363 . S
C338 C337 1.415 . S
C339 H315 0.951 . S
C339 C340 1.366 . S
C339 C341 1.388 . S
C340 C339 1.366 . S
C340 C344 1.385 . S
C341 H316 0.951 . S
C341 C339 1.388 . S
C341 C342 1.366 . S
C342 C341 1.366 . S
C342 C343 1.414 . S
C342 C345 1.499 . S
C343 H317 0.950 . S
C343 C342 1.414 . S
C343 C344 1.374 . S
C344 H318 0.950 . S
C344 C340 1.385 . S
C344 C343 1.374 . S
C345 C342 1.499 . S
C345 C346 1.373 . S
C345 C347 1.389 . S
C346 H319 0.950 . S
C346 C332 1.377 . S
C346 C345 1.373 . S
C347 C331 1.377 . S
C347 C345 1.389 . S
C347 C348 1.524 . S
C348 C347 1.524 . S
C348 C349 1.397 . S
C348 C353 1.363 . S
C349 H320 0.950 . S
C349 C348 1.397 . S
C349 C350 1.334 . S
C350 H321 0.950 . S
C350 C349 1.334 . S
C350 C351 1.287 . S
C351 C350 1.287 . S
C351 C352 1.524 . S
C351 H354 0.999 . S
C352 H322 0.950 . S
C352 C351 1.524 . S
C352 C353 1.415 . S
C353 H323 0.950 . S
C353 C348 1.363 . S
C353 C352 1.415 . S
H354 C351 0.999 . S
H355 C336 0.913 . S
H356 C374 0.951 . S
H357 C376 0.951 . S
H358 C378 0.950 . S
H359 C379 0.950 . S
H360 C381 0.950 . S
H361 C384 0.950 . S
H362 C385 0.950 . S
H363 C387 0.950 . S
H364 C388 0.950 . S
H365 C389 0.942 . S
H366 C391 0.951 . S
H367 C393 0.950 . S
H368 C394 0.950 . S
H369 C396 0.950 . S
H370 C399 0.950 . S
H371 C400 0.950 . S
H372 C402 0.950 . S
H373 C403 0.950 . S
C374 H356 0.951 . S
C374 C375 1.366 . S
C374 C376 1.388 . S
C375 C374 1.366 . S
C375 C379 1.385 . S
C376 H357 0.951 . S
C376 C374 1.388 . S
C376 C377 1.366 . S
C377 C376 1.366 . S
C377 C378 1.414 . S
C377 C380 1.499 . S
C378 H358 0.950 . S
C378 C377 1.414 . S
C378 C379 1.374 . S
C379 H359 0.950 . S
C379 C375 1.385 . S
C379 C378 1.374 . S
C380 C377 1.499 . S
C380 C381 1.373 . S
C380 C382 1.389 . S
C381 H360 0.950 . S
C381 C380 1.373 . S
C381 C397 1.377 . S
C382 C380 1.389 . S
C382 C383 1.524 . S
C382 C396 1.377 . S
C383 C382 1.524 . S
C383 C384 1.397 . S
C383 C388 1.363 . S
C384 H361 0.950 . S
C384 C383 1.397 . S
C384 C385 1.334 . S
C385 H362 0.950 . S
C385 C384 1.334 . S
C385 C386 1.287 . S
C386 C385 1.287 . S
C386 C387 1.524 . S
C386 H405 0.913 . S
C387 H363 0.950 . S
C387 C386 1.524 . S
C387 C388 1.415 . S
C388 H364 0.950 . S
C388 C383 1.363 . S
C388 C387 1.415 . S
C389 H365 0.942 . S
C389 C390 1.366 1_565 S
C389 C391 1.388 . S
C390 C389 1.366 1_545 S
C390 C394 1.385 . S
C391 H366 0.951 . S
C391 C389 1.388 . S
C391 C392 1.366 . S
C392 C391 1.366 . S
C392 C393 1.414 . S
C392 C395 1.499 . S
C393 H367 0.950 . S
C393 C392 1.414 . S
C393 C394 1.374 1_565 S
C394 H368 0.950 . S
C394 C390 1.385 . S
C394 C393 1.374 1_545 S
C395 C392 1.499 . S
C395 C396 1.373 . S
C395 C397 1.389 . S
C396 H369 0.950 . S
C396 C382 1.377 . S
C396 C395 1.373 . S
C397 C381 1.377 . S
C397 C395 1.389 . S
C397 C398 1.524 . S
C398 C397 1.524 . S
C398 C399 1.397 . S
C398 C403 1.363 . S
C399 H370 0.950 . S
C399 C398 1.397 . S
C399 C400 1.334 . S
C400 H371 0.950 . S
C400 C399 1.334 . S
C400 C401 1.287 . S
C401 C400 1.287 . S
C401 C402 1.524 . S
C401 H404 0.999 . S
C402 H372 0.950 . S
C402 C401 1.524 . S
C402 C403 1.415 . S
C403 H373 0.950 . S
C403 C398 1.363 . S
C403 C402 1.415 . S
H404 C401 0.999 . S
H405 C386 0.913 . S
H406 C424 0.951 . S
H407 C426 0.951 . S
H408 C428 0.950 . S
H409 C429 0.950 . S
H410 C431 0.950 . S
H411 C434 0.950 . S
H412 C435 0.950 . S
H413 C437 0.950 . S
H414 C438 0.950 . S
H415 C439 0.951 . S
H416 C441 0.951 . S
H417 C443 0.950 . S
H418 C444 0.950 . S
H419 C446 0.950 . S
H420 C449 0.950 . S
H421 C450 0.950 . S
H422 C452 0.950 . S
H423 C453 0.950 . S
C424 H406 0.951 . S
C424 C425 1.366 . S
C424 C426 1.388 1_655 S
C425 C424 1.366 . S
C425 C429 1.385 . S
C426 H407 0.951 . S
C426 C424 1.388 1_455 S
C426 C427 1.366 . S
C427 C426 1.366 . S
C427 C428 1.414 . S
C427 C430 1.499 . S
C428 H408 0.950 . S
C428 C427 1.414 . S
C428 C429 1.374 1_455 S
C429 H409 0.950 . S
C429 C425 1.385 . S
C429 C428 1.374 1_655 S
C430 C427 1.499 . S
C430 C431 1.373 . S
C430 C432 1.389 . S
C431 H410 0.950 . S
C431 C430 1.373 . S
C431 C447 1.377 . S
C432 C430 1.389 . S
C432 C433 1.524 . S
C432 C446 1.377 . S
C433 C432 1.524 . S
C433 C434 1.397 . S
C433 C438 1.363 . S
C434 H411 0.950 . S
C434 C433 1.397 . S
C434 C435 1.334 . S
C435 H412 0.950 . S
C435 C434 1.334 . S
C435 C436 1.287 . S
C436 C435 1.287 . S
C436 C437 1.524 . S
C436 H455 0.913 . S
C437 H413 0.950 . S
C437 C436 1.524 . S
C437 C438 1.415 . S
C438 H414 0.950 . S
C438 C433 1.363 . S
C438 C437 1.415 . S
C439 H415 0.951 . S
C439 C440 1.366 . S
C439 C441 1.388 . S
C440 C439 1.366 . S
C440 C444 1.385 . S
C441 H416 0.951 . S
C441 C439 1.388 . S
C441 C442 1.366 . S
C442 C441 1.366 . S
C442 C443 1.414 . S
C442 C445 1.499 . S
C443 H417 0.950 . S
C443 C442 1.414 . S
C443 C444 1.374 . S
C444 H418 0.950 . S
C444 C440 1.385 . S
C444 C443 1.374 . S
C445 C442 1.499 . S
C445 C446 1.373 . S
C445 C447 1.389 . S
C446 H419 0.950 . S
C446 C432 1.377 . S
C446 C445 1.373 . S
C447 C431 1.377 . S
C447 C445 1.389 . S
C447 C448 1.524 . S
C448 C447 1.524 . S
C448 C449 1.397 . S
C448 C453 1.363 . S
C449 H420 0.950 . S
C449 C448 1.397 . S
C449 C450 1.334 . S
C450 H421 0.950 . S
C450 C449 1.334 . S
C450 C451 1.287 . S
C451 C450 1.287 . S
C451 C452 1.524 . S
C451 H454 0.999 . S
C452 H422 0.950 . S
C452 C451 1.524 . S
C452 C453 1.415 . S
C453 H423 0.950 . S
C453 C448 1.363 . S
C453 C452 1.415 . S
H454 C451 0.999 . S
H455 C436 0.913 . S
H456 C474 0.951 1_556 S
H457 C476 0.968 . S
H458 C478 0.950 . S
H459 C479 0.950 . S
H460 C481 0.950 . S
H461 C484 0.950 . S
H462 C485 0.950 . S
H463 C487 0.950 . S
H464 C488 0.950 . S
H465 C489 0.951 1_554 S
H466 C491 0.951 . S
H467 C493 0.950 . S
H468 C494 0.950 . S
H469 C496 0.950 . S
H470 C499 0.950 . S
H471 C500 0.950 . S
H472 C502 0.950 . S
H473 C503 0.950 . S
C474 H456 0.951 1_554 S
C474 C475 1.366 . S
C474 C476 1.382 1_554 S
C475 C474 1.366 . S
C475 C479 1.385 . S
C476 H457 0.968 . S
C476 C474 1.382 1_556 S
C476 C477 1.354 1_556 S
C477 C476 1.354 1_554 S
C477 C478 1.414 . S
C477 C480 1.499 . S
C478 H458 0.950 . S
C478 C477 1.414 . S
C478 C479 1.374 . S
C479 H459 0.950 . S
C479 C475 1.385 . S
C479 C478 1.374 . S
C480 C477 1.499 . S
C480 C481 1.373 . S
C480 C482 1.389 1_554 S
C481 H460 0.950 . S
C481 C480 1.373 . S
C481 C497 1.377 . S
C482 C480 1.389 1_556 S
C482 C483 1.524 . S
C482 C496 1.377 . S
C483 C482 1.524 . S
C483 C484 1.397 . S
C483 C488 1.363 . S
C484 H461 0.950 . S
C484 C483 1.397 . S
C484 C485 1.334 . S
C485 H462 0.950 . S
C485 C484 1.334 . S
C485 C486 1.287 . S
C486 C485 1.287 . S
C486 C487 1.524 . S
C486 H505 0.913 . S
C487 H463 0.950 . S
C487 C486 1.524 . S
C487 C488 1.415 . S
C488 H464 0.950 . S
C488 C483 1.363 . S
C488 C487 1.415 . S
C489 H465 0.951 1_556 S
C489 C490 1.366 . S
C489 C491 1.388 1_556 S
C490 C489 1.366 . S
C490 C494 1.385 . S
C491 H466 0.951 . S
C491 C489 1.388 1_554 S
C491 C492 1.366 1_554 S
C492 C491 1.366 1_556 S
C492 C493 1.414 . S
C492 C495 1.499 . S
C493 H467 0.950 . S
C493 C492 1.414 . S
C493 C494 1.374 . S
C494 H468 0.950 . S
C494 C490 1.385 . S
C494 C493 1.374 . S
C495 C492 1.499 . S
C495 C496 1.373 . S
C495 C497 1.389 1_556 S
C496 H469 0.950 . S
C496 C482 1.377 . S
C496 C495 1.373 . S
C497 C481 1.377 . S
C497 C495 1.389 1_554 S
C497 C498 1.524 . S
C498 C497 1.524 . S
C498 C499 1.397 . S
C498 C503 1.363 . S
C499 H470 0.950 . S
C499 C498 1.397 . S
C499 C500 1.334 . S
C500 H471 0.950 . S
C500 C499 1.334 . S
C500 C501 1.287 . S
C501 C500 1.287 . S
C501 C502 1.524 . S
C501 H504 0.999 . S
C502 H472 0.950 . S
C502 C501 1.524 . S
C502 C503 1.415 . S
C503 H473 0.950 . S
C503 C498 1.363 . S
C503 C502 1.415 . S
H504 C501 0.999 . S
H505 C486 0.913 . S
H506 C524 0.951 . S
H507 C526 0.951 1_554 S
H508 C528 0.950 . S
H509 C529 0.950 . S
H510 C531 0.950 . S
H511 C534 0.950 . S
H512 C535 0.950 . S
H513 C537 0.950 . S
H514 C538 0.950 . S
H515 C539 0.951 . S
H516 C541 0.951 1_556 S
H517 C543 0.950 . S
H518 C544 0.950 . S
H519 C546 0.950 . S
H520 C549 0.950 . S
H521 C550 0.950 1_565 S
H522 C552 0.950 . S
H523 C553 0.950 . S
C524 H506 0.951 . S
C524 C525 1.366 . S
C524 C526 1.388 . S
C525 C524 1.366 . S
C525 C529 1.385 . S
C526 H507 0.951 1_556 S
C526 C524 1.388 . S
C526 C527 1.366 . S
C527 C526 1.366 . S
C527 C528 1.414 . S
C527 C530 1.499 . S
C528 H508 0.950 . S
C528 C527 1.414 . S
C528 C529 1.374 . S
C529 H509 0.950 . S
C529 C525 1.385 . S
C529 C528 1.374 . S
C530 C527 1.499 . S
C530 C531 1.373 . S
C530 C532 1.389 1_556 S
C531 H510 0.950 . S
C531 C530 1.373 . S
C531 C547 1.377 . S
C532 C530 1.389 1_554 S
C532 C533 1.524 . S
C532 C546 1.377 . S
C533 C532 1.524 . S
C533 C534 1.397 . S
C533 C538 1.363 . S
C534 H511 0.950 . S
C534 C533 1.397 . S
C534 C535 1.334 . S
C535 H512 0.950 . S
C535 C534 1.334 . S
C535 C536 1.287 . S
C536 C535 1.287 . S
C536 C537 1.524 . S
C536 H555 0.913 . S
C537 H513 0.950 . S
C537 C536 1.524 . S
C537 C538 1.415 . S
C538 H514 0.950 . S
C538 C533 1.363 . S
C538 C537 1.415 . S
C539 H515 0.951 . S
C539 C540 1.366 . S
C539 C541 1.388 1_565 S
C540 C539 1.366 . S
C540 C544 1.385 . S
C541 H516 0.951 1_554 S
C541 C539 1.388 1_545 S
C541 C542 1.366 . S
C542 C541 1.366 . S
C542 C543 1.414 . S
C542 C545 1.499 . S
C543 H517 0.950 . S
C543 C542 1.414 . S
C543 C544 1.374 1_545 S
C544 H518 0.950 . S
C544 C540 1.385 . S
C544 C543 1.374 1_565 S
C545 C542 1.499 . S
C545 C546 1.373 . S
C545 C547 1.389 1_554 S
C546 H519 0.950 . S
C546 C532 1.377 . S
C546 C545 1.373 . S
C547 C531 1.377 . S
C547 C545 1.389 1_556 S
C547 C548 1.524 . S
C548 C547 1.524 . S
C548 C549 1.397 . S
C548 C553 1.363 . S
C549 H520 0.950 . S
C549 C548 1.397 . S
C549 C550 1.334 . S
C550 H521 0.950 1_545 S
C550 C549 1.334 . S
C550 C551 1.287 . S
C551 C550 1.287 . S
C551 C552 1.524 . S
C551 H554 1.020 . S
C552 H522 0.950 . S
C552 C551 1.524 . S
C552 C553 1.415 . S
C553 H523 0.950 . S
C553 C548 1.363 . S
C553 C552 1.415 . S
H554 C551 1.020 . S
H555 C536 0.913 . S
H556 C574 0.951 . S
H557 C576 0.951 . S
H558 C578 0.950 1_556 S
H559 C579 0.950 1_556 S
H560 C581 0.950 . S
H561 C584 0.950 . S
H562 C585 0.950 . S
H563 C587 0.950 . S
H564 C588 0.950 . S
H565 C589 0.951 . S
H566 C591 0.951 . S
H567 C593 0.934 1_554 S
H568 C594 0.950 1_554 S
H569 C596 0.950 . S
H570 C599 0.950 . S
H571 C600 0.950 . S
H572 C602 0.950 . S
H573 C603 0.950 . S
C574 H556 0.951 . S
C574 C575 1.366 1_655 S
C574 C576 1.388 . S
C575 C574 1.366 1_455 S
C575 C579 1.385 . S
C576 H557 0.951 . S
C576 C574 1.388 . S
C576 C577 1.366 . S
C577 C576 1.366 . S
C577 C578 1.414 . S
C577 C580 1.499 . S
C578 H558 0.950 1_554 S
C578 C577 1.414 . S
C578 C579 1.374 1_655 S
C579 H559 0.950 1_554 S
C579 C575 1.385 . S
C579 C578 1.374 1_455 S
C580 C577 1.499 . S
C580 C581 1.373 1_554 S
C580 C582 1.389 . S
C581 H560 0.950 . S
C581 C580 1.373 1_556 S
C581 C597 1.377 . S
C582 C580 1.389 . S
C582 C583 1.524 . S
C582 C596 1.377 . S
C583 C582 1.524 . S
C583 C584 1.397 . S
C583 C588 1.363 . S
C584 H561 0.950 . S
C584 C583 1.397 . S
C584 C585 1.334 . S
C585 H562 0.950 . S
C585 C584 1.334 . S
C585 C586 1.287 . S
C586 C585 1.287 . S
C586 C587 1.524 . S
C586 H605 0.913 . S
C587 H563 0.950 . S
C587 C586 1.524 . S
C587 C588 1.415 . S
C588 H564 0.950 . S
C588 C583 1.363 . S
C588 C587 1.415 . S
C589 H565 0.951 . S
C589 C590 1.366 . S
C589 C591 1.388 . S
C590 C589 1.366 . S
C590 C594 1.385 . S
C591 H566 0.951 . S
C591 C589 1.388 . S
C591 C592 1.366 . S
C592 C591 1.366 . S
C592 C593 1.425 . S
C592 C595 1.499 . S
C593 H567 0.934 1_556 S
C593 C592 1.425 . S
C593 C594 1.379 . S
C594 H568 0.950 1_556 S
C594 C590 1.385 . S
C594 C593 1.379 . S
C595 C592 1.499 . S
C595 C596 1.373 1_556 S
C595 C597 1.389 . S
C596 H569 0.950 . S
C596 C582 1.377 . S
C596 C595 1.373 1_554 S
C597 C581 1.377 . S
C597 C595 1.389 . S
C597 C598 1.524 . S
C598 C597 1.524 . S
C598 C599 1.397 . S
C598 C603 1.363 . S
C599 H570 0.950 . S
C599 C598 1.397 . S
C599 C600 1.334 . S
C600 H571 0.950 . S
C600 C599 1.334 . S
C600 C601 1.287 . S
C601 C600 1.287 . S
C601 C602 1.524 . S
C601 H604 0.999 . S
C602 H572 0.950 . S
C602 C601 1.524 . S
C602 C603 1.415 . S
C603 H573 0.950 . S
C603 C598 1.363 . S
C603 C602 1.415 . S
H604 C601 0.999 . S
H605 C586 0.913 . S
H606 C624 0.951 . S
H607 C626 0.951 . S
H608 C628 0.950 . S
H609 C629 0.950 . S
H610 C631 0.950 . S
H611 C634 0.950 . S
H612 C635 0.950 . S
H613 C637 0.950 . S
H614 C638 0.950 . S
H615 C639 0.951 . S
H616 C641 0.951 . S
H617 C643 0.950 . S
H618 C644 0.950 . S
H619 C646 0.950 . S
H620 C649 0.950 . S
H621 C650 0.950 . S
H622 C652 0.950 . S
H623 C653 0.950 . S
C624 H606 0.951 . S
C624 C625 1.366 . S
C624 C626 1.388 . S
C625 C624 1.366 . S
C625 C629 1.385 . S
C626 H607 0.951 . S
C626 C624 1.388 . S
C626 C627 1.366 . S
C627 C626 1.366 . S
C627 C628 1.414 . S
C627 C630 1.499 . S
C628 H608 0.950 . S
C628 C627 1.414 . S
C628 C629 1.374 . S
C629 H609 0.950 . S
C629 C625 1.385 . S
C629 C628 1.374 . S
C630 C627 1.499 . S
C630 C631 1.373 . S
C630 C632 1.389 . S
C631 H610 0.950 . S
C631 C630 1.373 . S
C631 C647 1.377 . S
C632 C630 1.389 . S
C632 C633 1.524 . S
C632 C646 1.377 . S
C633 C632 1.524 . S
C633 C634 1.397 . S
C633 C638 1.363 . S
C634 H611 0.950 . S
C634 C633 1.397 . S
C634 C635 1.334 . S
C635 H612 0.950 . S
C635 C634 1.334 . S
C635 C636 1.287 . S
C636 C635 1.287 . S
C636 C637 1.524 . S
C636 H655 0.913 . S
C637 H613 0.950 . S
C637 C636 1.524 . S
C637 C638 1.415 . S
C638 H614 0.950 . S
C638 C633 1.363 . S
C638 C637 1.415 . S
C639 H615 0.951 . S
C639 C640 1.366 . S
C639 C641 1.388 . S
C640 C639 1.366 . S
C640 C644 1.385 . S
C641 H616 0.951 . S
C641 C639 1.388 . S
C641 C642 1.366 . S
C642 C641 1.366 . S
C642 C643 1.414 . S
C642 C645 1.499 . S
C643 H617 0.950 . S
C643 C642 1.414 . S
C643 C644 1.374 . S
C644 H618 0.950 . S
C644 C640 1.385 . S
C644 C643 1.374 . S
C645 C642 1.499 . S
C645 C646 1.373 . S
C645 C647 1.389 . S
C646 H619 0.950 . S
C646 C632 1.377 . S
C646 C645 1.373 . S
C647 C631 1.377 . S
C647 C645 1.389 . S
C647 C648 1.524 . S
C648 C647 1.524 . S
C648 C649 1.397 . S
C648 C653 1.363 . S
C649 H620 0.950 . S
C649 C648 1.397 . S
C649 C650 1.334 . S
C650 H621 0.950 . S
C650 C649 1.334 . S
C650 C651 1.287 . S
C651 C650 1.287 . S
C651 C652 1.524 . S
C651 H654 0.999 . S
C652 H622 0.950 . S
C652 C651 1.524 . S
C652 C653 1.415 . S
C653 H623 0.950 . S
C653 C648 1.363 . S
C653 C652 1.415 . S
H654 C651 0.999 . S
H655 C636 0.913 . S
H656 C674 0.951 . S
H657 C676 0.951 . S
H658 C678 0.950 . S
H659 C679 0.950 . S
H660 C681 0.950 . S
H661 C684 0.950 . S
H662 C685 0.950 . S
H663 C687 0.950 . S
H664 C688 0.950 . S
H665 C689 0.951 . S
H666 C691 0.951 . S
H667 C693 0.950 . S
H668 C694 0.950 1_565 S
H669 C696 0.950 . S
H670 C699 0.950 . S
H671 C700 0.950 . S
H672 C702 0.950 . S
H673 C703 0.950 . S
C674 H656 0.951 . S
C674 C675 1.366 . S
C674 C676 1.388 . S
C675 C674 1.366 . S
C675 C679 1.385 . S
C676 H657 0.951 . S
C676 C674 1.388 . S
C676 C677 1.366 . S
C677 C676 1.366 . S
C677 C678 1.414 . S
C677 C680 1.499 . S
C678 H658 0.950 . S
C678 C677 1.414 . S
C678 C679 1.374 . S
C679 H659 0.950 . S
C679 C675 1.385 . S
C679 C678 1.374 . S
C680 C677 1.499 . S
C680 C681 1.373 . S
C680 C682 1.389 . S
C681 H660 0.950 . S
C681 C680 1.373 . S
C681 C697 1.377 . S
C682 C680 1.389 . S
C682 C683 1.524 . S
C682 C696 1.377 . S
C683 C682 1.524 . S
C683 C684 1.397 . S
C683 C688 1.363 . S
C684 H661 0.950 . S
C684 C683 1.397 . S
C684 C685 1.334 . S
C685 H662 0.950 . S
C685 C684 1.334 . S
C685 C686 1.287 . S
C686 C685 1.287 . S
C686 C687 1.524 . S
C686 H705 0.913 . S
C687 H663 0.950 . S
C687 C686 1.524 . S
C687 C688 1.415 . S
C688 H664 0.950 . S
C688 C683 1.363 . S
C688 C687 1.415 . S
C689 H665 0.951 . S
C689 C690 1.366 . S
C689 C691 1.388 1_565 S
C690 C689 1.366 . S
C690 C694 1.385 1_565 S
C691 H666 0.951 . S
C691 C689 1.388 1_545 S
C691 C692 1.366 . S
C692 C691 1.366 . S
C692 C693 1.414 . S
C692 C695 1.499 . S
C693 H667 0.950 . S
C693 C692 1.414 . S
C693 C694 1.374 . S
C694 H668 0.950 1_545 S
C694 C690 1.385 1_545 S
C694 C693 1.374 . S
C695 C692 1.499 . S
C695 C696 1.373 . S
C695 C697 1.389 . S
C696 H669 0.950 . S
C696 C682 1.377 . S
C696 C695 1.373 . S
C697 C681 1.377 . S
C697 C695 1.389 . S
C697 C698 1.524 . S
C698 C697 1.524 . S
C698 C699 1.397 . S
C698 C703 1.363 . S
C699 H670 0.950 . S
C699 C698 1.397 . S
C699 C700 1.334 . S
C700 H671 0.950 . S
C700 C699 1.334 . S
C700 C701 1.287 . S
C701 C700 1.287 . S
C701 C702 1.524 . S
C701 H704 0.999 . S
C702 H672 0.950 . S
C702 C701 1.524 . S
C702 C703 1.415 . S
C703 H673 0.950 . S
C703 C698 1.363 . S
C703 C702 1.415 . S
H704 C701 0.999 . S
H705 C686 0.913 . S
H706 C724 0.951 1_455 S
H707 C726 0.951 . S
H708 C728 0.950 . S
H709 C729 0.950 . S
H710 C731 0.950 . S
H711 C734 0.950 . S
H712 C735 0.950 . S
H713 C737 0.950 . S
H714 C738 0.950 . S
H715 C739 0.951 . S
H716 C741 0.951 . S
H717 C743 0.950 . S
H718 C744 0.950 . S
H719 C746 0.950 . S
H720 C749 0.950 . S
H721 C750 0.950 . S
H722 C752 0.950 . S
H723 C753 0.950 . S
C724 H706 0.951 1_655 S
C724 C725 1.366 1_655 S
C724 C726 1.388 . S
C725 C724 1.366 1_455 S
C725 C729 1.385 . S
C726 H707 0.951 . S
C726 C724 1.388 . S
C726 C727 1.366 . S
C727 C726 1.366 . S
C727 C728 1.414 . S
C727 C730 1.499 . S
C728 H708 0.950 . S
C728 C727 1.414 . S
C728 C729 1.374 1_655 S
C729 H709 0.950 . S
C729 C725 1.385 . S
C729 C728 1.374 1_455 S
C730 C727 1.499 . S
C730 C731 1.373 . S
C730 C732 1.389 . S
C731 H710 0.950 . S
C731 C730 1.373 . S
C731 C747 1.377 . S
C732 C730 1.389 . S
C732 C733 1.524 . S
C732 C746 1.377 . S
C733 C732 1.524 . S
C733 C734 1.397 . S
C733 C738 1.363 . S
C734 H711 0.950 . S
C734 C733 1.397 . S
C734 C735 1.334 . S
C735 H712 0.950 . S
C735 C734 1.334 . S
C735 C736 1.287 . S
C736 C735 1.287 . S
C736 C737 1.524 . S
C736 H755 0.913 . S
C737 H713 0.950 . S
C737 C736 1.524 . S
C737 C738 1.415 . S
C738 H714 0.950 . S
C738 C733 1.363 . S
C738 C737 1.415 . S
C739 H715 0.951 . S
C739 C740 1.366 . S
C739 C741 1.388 . S
C740 C739 1.366 . S
C740 C744 1.385 . S
C741 H716 0.951 . S
C741 C739 1.388 . S
C741 C742 1.366 . S
C742 C741 1.366 . S
C742 C743 1.414 . S
C742 C745 1.499 . S
C743 H717 0.950 . S
C743 C742 1.414 . S
C743 C744 1.374 . S
C744 H718 0.950 . S
C744 C740 1.385 . S
C744 C743 1.374 . S
C745 C742 1.499 . S
C745 C746 1.373 . S
C745 C747 1.389 . S
C746 H719 0.950 . S
C746 C732 1.377 . S
C746 C745 1.373 . S
C747 C731 1.377 . S
C747 C745 1.389 . S
C747 C748 1.524 . S
C748 C747 1.524 . S
C748 C749 1.397 . S
C748 C753 1.363 . S
C749 H720 0.950 . S
C749 C748 1.397 . S
C749 C750 1.334 . S
C750 H721 0.950 . S
C750 C749 1.334 . S
C750 C751 1.287 . S
C751 C750 1.287 . S
C751 C752 1.524 . S
C751 H754 0.999 . S
C752 H722 0.950 . S
C752 C751 1.524 . S
C752 C753 1.415 . S
C753 H723 0.950 . S
C753 C748 1.363 . S
C753 C752 1.415 . S
H754 C751 0.999 . S
H755 C736 0.913 . S
H756 C774 0.951 . S
H757 C776 0.951 . S
H758 C778 0.950 . S
H759 C779 0.950 . S
H760 C781 0.950 . S
H761 C784 0.950 . S
H762 C785 0.950 . S
H763 C787 0.950 . S
H764 C788 0.950 . S
H765 C789 0.951 . S
H766 C791 0.951 . S
H767 C793 0.950 . S
H768 C794 0.950 . S
H769 C796 0.950 . S
H770 C799 0.950 . S
H771 C800 0.950 . S
H772 C802 0.950 . S
H773 C803 0.950 . S
C774 H756 0.951 . S
C774 C775 1.366 . S
C774 C776 1.388 . S
C775 C774 1.366 . S
C775 C779 1.385 . S
C776 H757 0.951 . S
C776 C774 1.388 . S
C776 C777 1.366 . S
C777 C776 1.366 . S
C777 C778 1.414 . S
C777 C780 1.499 . S
C778 H758 0.950 . S
C778 C777 1.414 . S
C778 C779 1.374 . S
C779 H759 0.950 . S
C779 C775 1.385 . S
C779 C778 1.374 . S
C780 C777 1.499 . S
C780 C781 1.373 . S
C780 C782 1.389 . S
C781 H760 0.950 . S
C781 C780 1.373 . S
C781 C797 1.377 . S
C782 C780 1.389 . S
C782 C783 1.524 . S
C782 C796 1.377 . S
C783 C782 1.524 . S
C783 C784 1.397 . S
C783 C788 1.363 . S
C784 H761 0.950 . S
C784 C783 1.397 . S
C784 C785 1.334 . S
C785 H762 0.950 . S
C785 C784 1.334 . S
C785 C786 1.287 . S
C786 C785 1.287 . S
C786 C787 1.524 . S
C786 H805 0.913 . S
C787 H763 0.950 . S
C787 C786 1.524 . S
C787 C788 1.415 . S
C788 H764 0.950 . S
C788 C783 1.363 . S
C788 C787 1.415 . S
C789 H765 0.951 . S
C789 C790 1.366 . S
C789 C791 1.388 . S
C790 C789 1.366 . S
C790 C794 1.385 . S
C791 H766 0.951 . S
C791 C789 1.388 . S
C791 C792 1.366 . S
C792 C791 1.366 . S
C792 C793 1.414 . S
C792 C795 1.499 . S
C793 H767 0.950 . S
C793 C792 1.414 . S
C793 C794 1.374 . S
C794 H768 0.950 . S
C794 C790 1.385 . S
C794 C793 1.374 . S
C795 C792 1.499 . S
C795 C796 1.373 . S
C795 C797 1.389 . S
C796 H769 0.950 . S
C796 C782 1.377 . S
C796 C795 1.373 . S
C797 C781 1.377 . S
C797 C795 1.389 . S
C797 C798 1.524 . S
C798 C797 1.524 . S
C798 C799 1.397 . S
C798 C803 1.363 . S
C799 H770 0.950 . S
C799 C798 1.397 . S
C799 C800 1.334 . S
C800 H771 0.950 . S
C800 C799 1.334 . S
C800 C801 1.287 . S
C801 C800 1.287 . S
C801 C802 1.524 . S
C801 H804 0.999 . S
C802 H772 0.950 . S
C802 C801 1.524 . S
C802 C803 1.415 . S
C803 H773 0.950 . S
C803 C798 1.363 . S
C803 C802 1.415 . S
H804 C801 0.999 . S
H805 C786 0.913 . S
H806 C824 0.951 . S
H807 C826 0.951 . S
H808 C828 0.950 . S
H809 C829 0.950 . S
H810 C831 0.950 . S
H811 C834 0.950 . S
H812 C835 0.950 . S
H813 C837 0.950 . S
H814 C838 0.950 . S
H815 C839 0.951 . S
H816 C841 0.951 . S
H817 C843 0.950 . S
H818 C844 0.950 . S
H819 C846 0.950 . S
H820 C849 0.950 . S
H821 C850 0.950 . S
H822 C852 0.950 . S
H823 C853 0.950 . S
C824 H806 0.951 . S
C824 C825 1.366 . S
C824 C826 1.388 . S
C825 C824 1.366 . S
C825 C829 1.385 . S
C826 H807 0.951 . S
C826 C824 1.388 . S
C826 C827 1.366 . S
C827 C826 1.366 . S
C827 C828 1.414 . S
C827 C830 1.499 . S
C828 H808 0.950 . S
C828 C827 1.414 . S
C828 C829 1.374 . S
C829 H809 0.950 . S
C829 C825 1.385 . S
C829 C828 1.374 . S
C830 C827 1.499 . S
C830 C831 1.373 . S
C830 C832 1.389 . S
C831 H810 0.950 . S
C831 C830 1.373 . S
C831 C847 1.377 . S
C832 C830 1.389 . S
C832 C833 1.524 . S
C832 C846 1.377 . S
C833 C832 1.524 . S
C833 C834 1.397 . S
C833 C838 1.363 . S
C834 H811 0.950 . S
C834 C833 1.397 . S
C834 C835 1.334 . S
C835 H812 0.950 . S
C835 C834 1.334 . S
C835 C836 1.287 . S
C836 C835 1.287 . S
C836 C837 1.524 . S
C836 H855 0.913 . S
C837 H813 0.950 . S
C837 C836 1.524 . S
C837 C838 1.415 . S
C838 H814 0.950 . S
C838 C833 1.363 . S
C838 C837 1.415 . S
C839 H815 0.951 . S
C839 C840 1.366 . S
C839 C841 1.388 . S
C840 C839 1.366 . S
C840 C844 1.385 . S
C841 H816 0.951 . S
C841 C839 1.388 . S
C841 C842 1.366 . S
C842 C841 1.366 . S
C842 C843 1.414 . S
C842 C845 1.499 . S
C843 H817 0.950 . S
C843 C842 1.414 . S
C843 C844 1.374 . S
C844 H818 0.950 . S
C844 C840 1.385 . S
C844 C843 1.374 . S
C845 C842 1.499 . S
C845 C846 1.373 . S
C845 C847 1.389 . S
C846 H819 0.950 . S
C846 C832 1.377 . S
C846 C845 1.373 . S
C847 C831 1.377 . S
C847 C845 1.389 . S
C847 C848 1.524 . S
C848 C847 1.524 . S
C848 C849 1.397 . S
C848 C853 1.363 . S
C849 H820 0.950 . S
C849 C848 1.397 . S
C849 C850 1.334 . S
C850 H821 0.950 . S
C850 C849 1.334 . S
C850 C851 1.287 . S
C851 C850 1.287 . S
C851 C852 1.524 . S
C851 H854 0.999 . S
C852 H822 0.950 . S
C852 C851 1.524 . S
C852 C853 1.415 . S
C853 H823 0.950 . S
C853 C848 1.363 . S
C853 C852 1.415 . S
H854 C851 0.999 . S
H855 C836 0.913 . S
H856 C874 0.951 . S
H857 C876 0.951 . S
H858 C878 0.950 . S
H859 C879 0.950 . S
H860 C881 0.950 . S
H861 C884 0.950 . S
H862 C885 0.950 . S
H863 C887 0.950 . S
H864 C888 0.950 . S
H865 C889 0.951 . S
H866 C891 0.951 . S
H867 C893 0.950 . S
H868 C894 0.950 . S
H869 C896 0.950 . S
H870 C899 0.950 . S
H871 C900 0.950 . S
H872 C902 0.950 . S
H873 C903 0.950 . S
C874 H856 0.951 . S
C874 C875 1.366 . S
C874 C876 1.388 . S
C875 C874 1.366 . S
C875 C879 1.385 . S
C876 H857 0.951 . S
C876 C874 1.388 . S
C876 C877 1.366 . S
C877 C876 1.366 . S
C877 C878 1.414 . S
C877 C880 1.499 . S
C878 H858 0.950 . S
C878 C877 1.414 . S
C878 C879 1.374 . S
C879 H859 0.950 . S
C879 C875 1.385 . S
C879 C878 1.374 . S
C880 C877 1.499 . S
C880 C881 1.373 . S
C880 C882 1.389 . S
C881 H860 0.950 . S
C881 C880 1.373 . S
C881 C897 1.377 . S
C882 C880 1.389 . S
C882 C883 1.524 . S
C882 C896 1.377 . S
C883 C882 1.524 . S
C883 C884 1.397 . S
C883 C888 1.363 . S
C884 H861 0.950 . S
C884 C883 1.397 . S
C884 C885 1.334 . S
C885 H862 0.950 . S
C885 C884 1.334 . S
C885 C886 1.287 . S
C886 C885 1.287 . S
C886 C887 1.524 . S
C886 H905 0.913 . S
C887 H863 0.950 . S
C887 C886 1.524 . S
C887 C888 1.415 . S
C888 H864 0.950 . S
C888 C883 1.363 . S
C888 C887 1.415 . S
C889 H865 0.951 . S
C889 C890 1.366 . S
C889 C891 1.388 . S
C890 C889 1.366 . S
C890 C894 1.385 . S
C891 H866 0.951 . S
C891 C889 1.388 . S
C891 C892 1.366 . S
C892 C891 1.366 . S
C892 C893 1.414 . S
C892 C895 1.499 . S
C893 H867 0.950 . S
C893 C892 1.414 . S
C893 C894 1.374 . S
C894 H868 0.950 . S
C894 C890 1.385 . S
C894 C893 1.374 . S
C895 C892 1.499 . S
C895 C896 1.373 . S
C895 C897 1.389 . S
C896 H869 0.950 . S
C896 C882 1.377 . S
C896 C895 1.373 . S
C897 C881 1.377 . S
C897 C895 1.389 . S
C897 C898 1.524 . S
C898 C897 1.524 . S
C898 C899 1.397 . S
C898 C903 1.363 . S
C899 H870 0.950 . S
C899 C898 1.397 . S
C899 C900 1.334 . S
C900 H871 0.950 . S
C900 C899 1.334 . S
C900 C901 1.287 . S
C901 C900 1.287 . S
C901 C902 1.524 . S
C901 H904 0.999 . S
C902 H872 0.950 . S
C902 C901 1.524 . S
C902 C903 1.415 . S
C903 H873 0.950 . S
C903 C898 1.363 . S
C903 C902 1.415 . S
H904 C901 0.999 . S
H905 C886 0.913 . S
H906 C924 0.951 . S
H907 C926 0.951 . S
H908 C928 0.950 . S
H909 C929 0.950 . S
H910 C931 0.950 . S
H911 C934 0.950 . S
H912 C935 0.950 . S
H913 C937 0.950 . S
H914 C938 0.950 . S
H915 C939 0.951 . S
H916 C941 0.951 . S
H917 C943 0.950 . S
H918 C944 0.950 . S
H919 C946 0.950 . S
H920 C949 0.950 . S
H921 C950 0.950 . S
H922 C952 0.950 . S
H923 C953 0.950 . S
C924 H906 0.951 . S
C924 C925 1.366 . S
C924 C926 1.388 . S
C925 C924 1.366 . S
C925 C929 1.385 . S
C926 H907 0.951 . S
C926 C924 1.388 . S
C926 C927 1.366 . S
C927 C926 1.366 . S
C927 C928 1.414 . S
C927 C930 1.499 . S
C928 H908 0.950 . S
C928 C927 1.414 . S
C928 C929 1.374 . S
C929 H909 0.950 . S
C929 C925 1.385 . S
C929 C928 1.374 . S
C930 C927 1.499 . S
C930 C931 1.373 . S
C930 C932 1.389 . S
C931 H910 0.950 . S
C931 C930 1.373 . S
C931 C947 1.377 . S
C932 C930 1.389 . S
C932 C933 1.524 . S
C932 C946 1.377 . S
C933 C932 1.524 . S
C933 C934 1.397 . S
C933 C938 1.363 . S
C934 H911 0.950 . S
C934 C933 1.397 . S
C934 C935 1.334 . S
C935 H912 0.950 . S
C935 C934 1.334 . S
C935 C936 1.287 . S
C936 C935 1.287 . S
C936 C937 1.524 . S
C936 H955 0.913 . S
C937 H913 0.950 . S
C937 C936 1.524 . S
C937 C938 1.415 . S
C938 H914 0.950 . S
C938 C933 1.363 . S
C938 C937 1.415 . S
C939 H915 0.951 . S
C939 C940 1.366 . S
C939 C941 1.388 . S
C940 C939 1.366 . S
C940 C944 1.385 . S
C941 H916 0.951 . S
C941 C939 1.388 . S
C941 C942 1.366 . S
C942 C941 1.366 . S
C942 C943 1.414 . S
C942 C945 1.499 . S
C943 H917 0.950 . S
C943 C942 1.414 . S
C943 C944 1.374 . S
C944 H918 0.950 . S
C944 C940 1.385 . S
C944 C943 1.374 . S
C945 C942 1.499 . S
C945 C946 1.373 . S
C945 C947 1.389 . S
C946 H919 0.950 . S
C946 C932 1.377 . S
C946 C945 1.373 . S
C947 C931 1.377 . S
C947 C945 1.389 . S
C947 C948 1.524 . S
C948 C947 1.524 . S
C948 C949 1.397 . S
C948 C953 1.363 . S
C949 H920 0.950 . S
C949 C948 1.397 . S
C949 C950 1.334 . S
C950 H921 0.950 . S
C950 C949 1.334 . S
C950 C951 1.287 . S
C951 C950 1.287 . S
C951 C952 1.524 . S
C951 H954 0.999 . S
C952 H922 0.950 . S
C952 C951 1.524 . S
C952 C953 1.415 . S
C953 H923 0.950 . S
C953 C948 1.363 . S
C953 C952 1.415 . S
H954 C951 0.999 . S
H955 C936 0.913 . S
H956 C974 0.951 . S
H957 C976 0.951 . S
H958 C978 0.950 . S
H959 C979 0.950 . S
H960 C981 0.950 . S
H961 C984 0.950 . S
H962 C985 0.950 . S
H963 C987 0.950 . S
H964 C988 0.950 . S
H965 C989 0.951 . S
H966 C991 0.951 . S
H967 C993 0.950 . S
H968 C994 0.950 . S
H969 C996 0.950 . S
H970 C999 0.950 . S
H971 C1000 0.950 . S
H972 C1002 0.950 . S
H973 C1003 0.950 . S
C974 H956 0.951 . S
C974 C975 1.366 . S
C974 C976 1.388 . S
C975 C974 1.366 . S
C975 C979 1.385 . S
C976 H957 0.951 . S
C976 C974 1.388 . S
C976 C977 1.366 . S
C977 C976 1.366 . S
C977 C978 1.414 . S
C977 C980 1.499 . S
C978 H958 0.950 . S
C978 C977 1.414 . S
C978 C979 1.374 . S
C979 H959 0.950 . S
C979 C975 1.385 . S
C979 C978 1.374 . S
C980 C977 1.499 . S
C980 C981 1.373 . S
C980 C982 1.389 . S
C981 H960 0.950 . S
C981 C980 1.373 . S
C981 C997 1.377 . S
C982 C980 1.389 . S
C982 C983 1.524 . S
C982 C996 1.377 . S
C983 C982 1.524 . S
C983 C984 1.397 . S
C983 C988 1.363 . S
C984 H961 0.950 . S
C984 C983 1.397 . S
C984 C985 1.334 . S
C985 H962 0.950 . S
C985 C984 1.334 . S
C985 C986 1.287 . S
C986 C985 1.287 . S
C986 C987 1.524 . S
C986 H1005 0.913 . S
C987 H963 0.950 . S
C987 C986 1.524 . S
C987 C988 1.415 . S
C988 H964 0.950 . S
C988 C983 1.363 . S
C988 C987 1.415 . S
C989 H965 0.951 . S
C989 C990 1.366 . S
C989 C991 1.388 . S
C990 C989 1.366 . S
C990 C994 1.385 . S
C991 H966 0.951 . S
C991 C989 1.388 . S
C991 C992 1.366 . S
C992 C991 1.366 . S
C992 C993 1.414 . S
C992 C995 1.499 . S
C993 H967 0.950 . S
C993 C992 1.414 . S
C993 C994 1.374 . S
C994 H968 0.950 . S
C994 C990 1.385 . S
C994 C993 1.374 . S
C995 C992 1.499 . S
C995 C996 1.373 . S
C995 C997 1.389 . S
C996 H969 0.950 . S
C996 C982 1.377 . S
C996 C995 1.373 . S
C997 C981 1.377 . S
C997 C995 1.389 . S
C997 C998 1.524 . S
C998 C997 1.524 . S
C998 C999 1.397 . S
C998 C1003 1.363 . S
C999 H970 0.950 . S
C999 C998 1.397 . S
C999 C1000 1.334 . S
C1000 H971 0.950 . S
C1000 C999 1.334 . S
C1000 C1001 1.287 . S
C1001 C1000 1.287 . S
C1001 C1002 1.524 . S
C1001 H1004 0.999 . S
C1002 H972 0.950 . S
C1002 C1001 1.524 . S
C1002 C1003 1.415 . S
C1003 H973 0.950 . S
C1003 C998 1.363 . S
C1003 C1002 1.415 . S
H1004 C1001 0.999 . S
H1005 C986 0.913 . S
H1006 C1024 0.951 . S
H1007 C1026 0.951 . S
H1008 C1028 0.950 . S
H1009 C1029 0.950 . S
H1010 C1031 0.950 . S
H1011 C1034 0.950 . S
H1012 C1035 0.950 . S
H1013 C1037 0.950 . S
H1014 C1038 0.950 . S
H1015 C1039 0.951 . S
H1016 C1041 0.951 . S
H1017 C1043 0.950 . S
H1018 C1044 0.950 . S
H1019 C1046 0.950 . S
H1020 C1049 0.950 . S
H1021 C1050 0.950 . S
H1022 C1052 0.950 . S
H1023 C1053 0.950 . S
C1024 H1006 0.951 . S
C1024 C1025 1.366 . S
C1024 C1026 1.388 . S
C1025 C1024 1.366 . S
C1025 C1029 1.385 . S
C1026 H1007 0.951 . S
C1026 C1024 1.388 . S
C1026 C1027 1.366 . S
C1027 C1026 1.366 . S
C1027 C1028 1.414 . S
C1027 C1030 1.499 . S
C1028 H1008 0.950 . S
C1028 C1027 1.414 . S
C1028 C1029 1.374 . S
C1029 H1009 0.950 . S
C1029 C1025 1.385 . S
C1029 C1028 1.374 . S
C1030 C1027 1.499 . S
C1030 C1031 1.373 . S
C1030 C1032 1.389 . S
C1031 H1010 0.950 . S
C1031 C1030 1.373 . S
C1031 C1047 1.377 . S
C1032 C1030 1.389 . S
C1032 C1033 1.524 . S
C1032 C1046 1.377 . S
C1033 C1032 1.524 . S
C1033 C1034 1.397 . S
C1033 C1038 1.363 . S
C1034 H1011 0.950 . S
C1034 C1033 1.397 . S
C1034 C1035 1.334 . S
C1035 H1012 0.950 . S
C1035 C1034 1.334 . S
C1035 C1036 1.287 . S
C1036 C1035 1.287 . S
C1036 C1037 1.524 . S
C1036 H1055 0.913 . S
C1037 H1013 0.950 . S
C1037 C1036 1.524 . S
C1037 C1038 1.415 . S
C1038 H1014 0.950 . S
C1038 C1033 1.363 . S
C1038 C1037 1.415 . S
C1039 H1015 0.951 . S
C1039 C1040 1.366 . S
C1039 C1041 1.388 . S
C1040 C1039 1.366 . S
C1040 C1044 1.385 . S
C1041 H1016 0.951 . S
C1041 C1039 1.388 . S
C1041 C1042 1.366 . S
C1042 C1041 1.366 . S
C1042 C1043 1.414 . S
C1042 C1045 1.499 . S
C1043 H1017 0.950 . S
C1043 C1042 1.414 . S
C1043 C1044 1.374 . S
C1044 H1018 0.950 . S
C1044 C1040 1.385 . S
C1044 C1043 1.374 . S
C1045 C1042 1.499 . S
C1045 C1046 1.373 . S
C1045 C1047 1.389 . S
C1046 H1019 0.950 . S
C1046 C1032 1.377 . S
C1046 C1045 1.373 . S
C1047 C1031 1.377 . S
C1047 C1045 1.389 . S
C1047 C1048 1.524 . S
C1048 C1047 1.524 . S
C1048 C1049 1.397 . S
C1048 C1053 1.363 . S
C1049 H1020 0.950 . S
C1049 C1048 1.397 . S
C1049 C1050 1.334 . S
C1050 H1021 0.950 . S
C1050 C1049 1.334 . S
C1050 C1051 1.287 . S
C1051 C1050 1.287 . S
C1051 C1052 1.524 . S
C1051 H1054 0.999 . S
C1052 H1022 0.950 . S
C1052 C1051 1.524 . S
C1052 C1053 1.415 . S
C1053 H1023 0.950 . S
C1053 C1048 1.363 . S
C1053 C1052 1.415 . S
H1054 C1051 0.999 . S
H1055 C1036 0.913 . S
H1056 C1074 0.951 . S
H1057 C1076 0.951 . S
H1058 C1078 0.950 1_556 S
H1059 C1079 0.950 . S
H1060 C1081 0.950 . S
H1061 C1084 0.950 . S
H1062 C1085 0.950 . S
H1063 C1087 0.950 . S
H1064 C1088 0.950 . S
H1065 C1089 0.951 . S
H1066 C1091 0.951 . S
H1067 C1093 0.950 1_554 S
H1068 C1094 0.950 . S
H1069 C1096 0.950 . S
H1070 C1099 0.950 . S
H1071 C1100 0.950 . S
H1072 C1102 0.950 . S
H1073 C1103 0.950 . S
C1074 H1056 0.951 . S
C1074 C1075 1.366 . S
C1074 C1076 1.388 . S
C1075 C1074 1.366 . S
C1075 C1079 1.385 . S
C1076 H1057 0.951 . S
C1076 C1074 1.388 . S
C1076 C1077 1.366 . S
C1077 C1076 1.366 . S
C1077 C1078 1.414 . S
C1077 C1080 1.499 . S
C1078 H1058 0.950 1_554 S
C1078 C1077 1.414 . S
C1078 C1079 1.374 . S
C1079 H1059 0.950 . S
C1079 C1075 1.385 . S
C1079 C1078 1.374 . S
C1080 C1077 1.499 . S
C1080 C1081 1.373 1_554 S
C1080 C1082 1.389 1_455 S
C1081 H1060 0.950 . S
C1081 C1080 1.373 1_556 S
C1081 C1097 1.377 . S
C1082 C1080 1.389 1_655 S
C1082 C1083 1.524 . S
C1082 C1096 1.377 . S
C1083 C1082 1.524 . S
C1083 C1084 1.397 . S
C1083 C1088 1.363 . S
C1084 H1061 0.950 . S
C1084 C1083 1.397 . S
C1084 C1085 1.334 . S
C1085 H1062 0.950 . S
C1085 C1084 1.334 . S
C1085 C1086 1.287 . S
C1086 C1085 1.287 . S
C1086 C1087 1.524 . S
C1086 H1105 0.913 . S
C1087 H1063 0.950 . S
C1087 C1086 1.524 . S
C1087 C1088 1.415 . S
C1088 H1064 0.950 . S
C1088 C1083 1.363 . S
C1088 C1087 1.415 . S
C1089 H1065 0.951 . S
C1089 C1090 1.366 . S
C1089 C1091 1.388 . S
C1090 C1089 1.366 . S
C1090 C1094 1.385 . S
C1091 H1066 0.951 . S
C1091 C1089 1.388 . S
C1091 C1092 1.366 . S
C1092 C1091 1.366 . S
C1092 C1093 1.414 . S
C1092 C1095 1.499 . S
C1093 H1067 0.950 1_556 S
C1093 C1092 1.414 . S
C1093 C1094 1.374 . S
C1094 H1068 0.950 . S
C1094 C1090 1.385 . S
C1094 C1093 1.374 . S
C1095 C1092 1.499 . S
C1095 C1096 1.373 1_556 S
C1095 C1097 1.389 1_655 S
C1096 H1069 0.950 . S
C1096 C1082 1.377 . S
C1096 C1095 1.373 1_554 S
C1097 C1081 1.377 . S
C1097 C1095 1.389 1_455 S
C1097 C1098 1.524 . S
C1098 C1097 1.524 . S
C1098 C1099 1.397 . S
C1098 C1103 1.363 . S
C1099 H1070 0.950 . S
C1099 C1098 1.397 . S
C1099 C1100 1.334 . S
C1100 H1071 0.950 . S
C1100 C1099 1.334 . S
C1100 C1101 1.287 . S
C1101 C1100 1.287 . S
C1101 C1102 1.524 . S
C1101 H1104 0.999 . S
C1102 H1072 0.950 . S
C1102 C1101 1.524 . S
C1102 C1103 1.415 . S
C1103 H1073 0.950 . S
C1103 C1098 1.363 . S
C1103 C1102 1.415 . S
H1104 C1101 0.999 . S
H1105 C1086 0.913 . S
H1106 C1124 0.951 . S
H1107 C1126 0.951 . S
H1108 C1128 0.950 . S
H1109 C1129 0.950 . S
H1110 C1131 0.950 . S
H1111 C1134 0.950 . S
H1112 C1135 0.950 . S
H1113 C1137 0.950 . S
H1114 C1138 0.950 . S
H1115 C1139 0.951 . S
H1116 C1141 0.951 . S
H1117 C1143 0.950 . S
H1118 C1144 0.950 . S
H1119 C1146 0.950 . S
H1120 C1149 0.950 . S
H1121 C1150 0.950 . S
H1122 C1152 0.950 . S
H1123 C1153 0.950 . S
C1124 H1106 0.951 . S
C1124 C1125 1.366 . S
C1124 C1126 1.388 . S
C1125 C1124 1.366 . S
C1125 C1129 1.385 . S
C1126 H1107 0.951 . S
C1126 C1124 1.388 . S
C1126 C1127 1.366 . S
C1127 C1126 1.366 . S
C1127 C1128 1.414 . S
C1127 C1130 1.499 . S
C1128 H1108 0.950 . S
C1128 C1127 1.414 . S
C1128 C1129 1.374 . S
C1129 H1109 0.950 . S
C1129 C1125 1.385 . S
C1129 C1128 1.374 . S
C1130 C1127 1.499 . S
C1130 C1131 1.373 1_554 S
C1130 C1132 1.389 . S
C1131 H1110 0.950 . S
C1131 C1130 1.373 1_556 S
C1131 C1147 1.377 . S
C1132 C1130 1.389 . S
C1132 C1133 1.524 . S
C1132 C1146 1.377 . S
C1133 C1132 1.524 . S
C1133 C1134 1.397 . S
C1133 C1138 1.363 . S
C1134 H1111 0.950 . S
C1134 C1133 1.397 . S
C1134 C1135 1.334 . S
C1135 H1112 0.950 . S
C1135 C1134 1.334 . S
C1135 C1136 1.287 . S
C1136 C1135 1.287 . S
C1136 C1137 1.524 . S
C1136 H1155 0.913 . S
C1137 H1113 0.950 . S
C1137 C1136 1.524 . S
C1137 C1138 1.415 . S
C1138 H1114 0.950 . S
C1138 C1133 1.363 . S
C1138 C1137 1.415 . S
C1139 H1115 0.951 . S
C1139 C1140 1.366 . S
C1139 C1141 1.388 . S
C1140 C1139 1.366 . S
C1140 C1144 1.385 . S
C1141 H1116 0.951 . S
C1141 C1139 1.388 . S
C1141 C1142 1.366 . S
C1142 C1141 1.366 . S
C1142 C1143 1.414 . S
C1142 C1145 1.499 . S
C1143 H1117 0.950 . S
C1143 C1142 1.414 . S
C1143 C1144 1.374 . S
C1144 H1118 0.950 . S
C1144 C1140 1.385 . S
C1144 C1143 1.374 . S
C1145 C1142 1.499 . S
C1145 C1146 1.373 1_556 S
C1145 C1147 1.389 . S
C1146 H1119 0.950 . S
C1146 C1132 1.377 . S
C1146 C1145 1.373 1_554 S
C1147 C1131 1.377 . S
C1147 C1145 1.389 . S
C1147 C1148 1.524 . S
C1148 C1147 1.524 . S
C1148 C1149 1.397 . S
C1148 C1153 1.363 . S
C1149 H1120 0.950 . S
C1149 C1148 1.397 . S
C1149 C1150 1.334 . S
C1150 H1121 0.950 . S
C1150 C1149 1.334 . S
C1150 C1151 1.287 . S
C1151 C1150 1.287 . S
C1151 C1152 1.524 . S
C1151 H1154 0.999 . S
C1152 H1122 0.950 . S
C1152 C1151 1.524 . S
C1152 C1153 1.415 . S
C1153 H1123 0.950 . S
C1153 C1148 1.363 . S
C1153 C1152 1.415 . S
H1154 C1151 0.999 . S
H1155 C1136 0.913 . S
H1156 C1174 0.951 . S
H1157 C1176 0.951 . S
H1158 C1178 0.950 1_545 S
H1159 C1179 0.950 . S
H1160 C1181 0.950 . S
H1161 C1184 0.950 . S
H1162 C1185 0.950 . S
H1163 C1187 0.950 . S
H1164 C1188 0.950 1_556 S
H1165 C1189 0.951 . S
H1166 C1191 0.951 . S
H1167 C1193 0.950 1_565 S
H1168 C1194 0.950 . S
H1169 C1196 0.950 . S
H1170 C1199 0.950 . S
H1171 C1200 0.950 . S
H1172 C1202 0.950 . S
H1173 C1203 0.950 1_554 S
C1174 H1156 0.951 . S
C1174 C1175 1.366 . S
C1174 C1176 1.388 . S
C1175 C1174 1.366 . S
C1175 C1179 1.385 . S
C1176 H1157 0.951 . S
C1176 C1174 1.388 . S
C1176 C1177 1.366 . S
C1177 C1176 1.366 . S
C1177 C1178 1.414 . S
C1177 C1180 1.499 . S
C1178 H1158 0.950 1_565 S
C1178 C1177 1.414 . S
C1178 C1179 1.374 . S
C1179 H1159 0.950 . S
C1179 C1175 1.385 . S
C1179 C1178 1.374 . S
C1180 C1177 1.499 . S
C1180 C1181 1.376 1_565 S
C1180 C1182 1.389 . S
C1181 H1160 0.950 . S
C1181 C1180 1.376 1_545 S
C1181 C1197 1.373 1_554 S
C1182 C1180 1.389 . S
C1182 C1183 1.524 . S
C1182 C1196 1.373 1_554 S
C1183 C1182 1.524 . S
C1183 C1184 1.397 . S
C1183 C1188 1.363 . S
C1184 H1161 0.950 . S
C1184 C1183 1.397 . S
C1184 C1185 1.334 . S
C1185 H1162 0.950 . S
C1185 C1184 1.334 . S
C1185 C1186 1.287 . S
C1186 C1185 1.287 . S
C1186 C1187 1.524 . S
C1186 H1205 0.913 . S
C1187 H1163 0.950 . S
C1187 C1186 1.524 . S
C1187 C1188 1.415 . S
C1188 H1164 0.950 1_554 S
C1188 C1183 1.363 . S
C1188 C1187 1.415 . S
C1189 H1165 0.951 . S
C1189 C1190 1.366 . S
C1189 C1191 1.388 . S
C1190 C1189 1.366 . S
C1190 C1194 1.385 . S
C1191 H1166 0.951 . S
C1191 C1189 1.388 . S
C1191 C1192 1.366 . S
C1192 C1191 1.366 . S
C1192 C1193 1.414 . S
C1192 C1195 1.499 . S
C1193 H1167 0.950 1_545 S
C1193 C1192 1.414 . S
C1193 C1194 1.374 . S
C1194 H1168 0.950 . S
C1194 C1190 1.385 . S
C1194 C1193 1.374 . S
C1195 C1192 1.499 . S
C1195 C1196 1.376 1_545 S
C1195 C1197 1.389 . S
C1196 H1169 0.950 . S
C1196 C1182 1.373 1_556 S
C1196 C1195 1.376 1_565 S
C1197 C1181 1.373 1_556 S
C1197 C1195 1.389 . S
C1197 C1198 1.524 . S
C1198 C1197 1.524 . S
C1198 C1199 1.397 . S
C1198 C1203 1.363 . S
C1199 H1170 0.950 . S
C1199 C1198 1.397 . S
C1199 C1200 1.334 . S
C1200 H1171 0.950 . S
C1200 C1199 1.334 . S
C1200 C1201 1.287 . S
C1201 C1200 1.287 . S
C1201 C1202 1.524 . S
C1201 H1204 0.999 . S
C1202 H1172 0.950 . S
C1202 C1201 1.524 . S
C1202 C1203 1.415 . S
C1203 H1173 0.950 1_556 S
C1203 C1198 1.363 . S
C1203 C1202 1.415 . S
H1204 C1201 0.999 . S
H1205 C1186 0.913 . S
H1206 C1224 0.951 . S
H1207 C1226 0.951 . S
H1208 C1228 0.950 1_545 S
H1209 C1229 0.950 . S
H1210 C1231 0.950 . S
H1211 C1234 0.950 1_545 S
H1212 C1235 0.950 . S
H1213 C1237 0.950 . S
H1214 C1238 0.950 . S
H1215 C1239 0.951 . S
H1216 C1241 0.951 . S
H1217 C1243 0.950 1_565 S
H1218 C1244 0.950 . S
H1219 C1246 0.950 . S
H1220 C1249 0.950 1_565 S
H1221 C1250 0.950 . S
H1222 C1252 0.950 . S
H1223 C1253 0.950 . S
C1224 H1206 0.951 . S
C1224 C1225 1.366 . S
C1224 C1226 1.388 . S
C1225 C1224 1.366 . S
C1225 C1229 1.385 . S
C1226 H1207 0.951 . S
C1226 C1224 1.388 . S
C1226 C1227 1.366 . S
C1227 C1226 1.366 . S
C1227 C1228 1.414 . S
C1227 C1230 1.499 . S
C1228 H1208 0.950 1_565 S
C1228 C1227 1.414 . S
C1228 C1229 1.374 . S
C1229 H1209 0.950 . S
C1229 C1225 1.385 . S
C1229 C1228 1.374 . S
C1230 C1227 1.499 . S
C1230 C1231 1.373 . S
C1230 C1232 1.389 . S
C1231 H1210 0.950 . S
C1231 C1230 1.373 . S
C1231 C1247 1.377 1_565 S
C1232 C1230 1.389 . S
C1232 C1233 1.524 . S
C1232 C1246 1.377 1_565 S
C1233 C1232 1.524 . S
C1233 C1234 1.397 . S
C1233 C1238 1.363 . S
C1234 H1211 0.950 1_565 S
C1234 C1233 1.397 . S
C1234 C1235 1.334 . S
C1235 H1212 0.950 . S
C1235 C1234 1.334 . S
C1235 C1236 1.287 . S
C1236 C1235 1.287 . S
C1236 C1237 1.524 . S
C1236 H1255 0.913 . S
C1237 H1213 0.950 . S
C1237 C1236 1.524 . S
C1237 C1238 1.415 . S
C1238 H1214 0.950 . S
C1238 C1233 1.363 . S
C1238 C1237 1.415 . S
C1239 H1215 0.951 . S
C1239 C1240 1.366 . S
C1239 C1241 1.388 . S
C1240 C1239 1.366 . S
C1240 C1244 1.385 . S
C1241 H1216 0.951 . S
C1241 C1239 1.388 . S
C1241 C1242 1.366 . S
C1242 C1241 1.366 . S
C1242 C1243 1.414 . S
C1242 C1245 1.499 . S
C1243 H1217 0.950 1_545 S
C1243 C1242 1.414 . S
C1243 C1244 1.374 . S
C1244 H1218 0.950 . S
C1244 C1240 1.385 . S
C1244 C1243 1.374 . S
C1245 C1242 1.499 . S
C1245 C1246 1.373 . S
C1245 C1247 1.389 . S
C1246 H1219 0.950 . S
C1246 C1232 1.377 1_545 S
C1246 C1245 1.373 . S
C1247 C1231 1.377 1_545 S
C1247 C1245 1.389 . S
C1247 C1248 1.524 . S
C1248 C1247 1.524 . S
C1248 C1249 1.397 . S
C1248 C1253 1.363 . S
C1249 H1220 0.950 1_545 S
C1249 C1248 1.397 . S
C1249 C1250 1.334 . S
C1250 H1221 0.950 . S
C1250 C1249 1.334 . S
C1250 C1251 1.287 . S
C1251 C1250 1.287 . S
C1251 C1252 1.524 . S
C1251 H1254 0.999 . S
C1252 H1222 0.950 . S
C1252 C1251 1.524 . S
C1252 C1253 1.415 . S
C1253 H1223 0.950 . S
C1253 C1248 1.363 . S
C1253 C1252 1.415 . S
H1254 C1251 0.999 . S
H1255 C1236 0.913 . S
H1256 C1274 0.951 . S
H1257 C1276 0.951 . S
H1258 C1278 0.950 1_455 S
H1259 C1279 0.950 . S
H1260 C1281 0.950 . S
H1261 C1284 0.950 . S
H1262 C1285 0.950 . S
H1263 C1287 0.950 . S
H1264 C1288 0.950 . S
H1265 C1289 0.951 . S
H1266 C1291 0.951 . S
H1267 C1293 0.950 1_655 S
H1268 C1294 0.950 . S
H1269 C1296 0.950 . S
H1270 C1299 0.950 . S
H1271 C1300 0.950 . S
H1272 C1302 0.950 . S
H1273 C1303 0.950 . S
C1274 H1256 0.951 . S
C1274 C1275 1.366 . S
C1274 C1276 1.388 . S
C1275 C1274 1.366 . S
C1275 C1279 1.385 . S
C1276 H1257 0.951 . S
C1276 C1274 1.388 . S
C1276 C1277 1.366 . S
C1277 C1276 1.366 . S
C1277 C1278 1.414 . S
C1277 C1280 1.499 . S
C1278 H1258 0.950 1_655 S
C1278 C1277 1.414 . S
C1278 C1279 1.374 . S
C1279 H1259 0.950 . S
C1279 C1275 1.385 . S
C1279 C1278 1.374 . S
C1280 C1277 1.499 . S
C1280 C1281 1.373 1_655 S
C1280 C1282 1.389 . S
C1281 H1260 0.950 . S
C1281 C1280 1.373 1_455 S
C1281 C1297 1.377 . S
C1282 C1280 1.389 . S
C1282 C1283 1.524 . S
C1282 C1296 1.377 . S
C1283 C1282 1.524 . S
C1283 C1284 1.397 . S
C1283 C1288 1.363 . S
C1284 H1261 0.950 . S
C1284 C1283 1.397 . S
C1284 C1285 1.334 . S
C1285 H1262 0.950 . S
C1285 C1284 1.334 . S
C1285 C1286 1.287 . S
C1286 C1285 1.287 . S
C1286 C1287 1.524 . S
C1286 H1305 0.913 . S
C1287 H1263 0.950 . S
C1287 C1286 1.524 . S
C1287 C1288 1.415 . S
C1288 H1264 0.950 . S
C1288 C1283 1.363 . S
C1288 C1287 1.415 . S
C1289 H1265 0.951 . S
C1289 C1290 1.366 . S
C1289 C1291 1.388 . S
C1290 C1289 1.366 . S
C1290 C1294 1.385 . S
C1291 H1266 0.951 . S
C1291 C1289 1.388 . S
C1291 C1292 1.366 . S
C1292 C1291 1.366 . S
C1292 C1293 1.414 . S
C1292 C1295 1.499 . S
C1293 H1267 0.950 1_455 S
C1293 C1292 1.414 . S
C1293 C1294 1.374 . S
C1294 H1268 0.950 . S
C1294 C1290 1.385 . S
C1294 C1293 1.374 . S
C1295 C1292 1.499 . S
C1295 C1296 1.373 1_455 S
C1295 C1297 1.389 . S
C1296 H1269 0.950 . S
C1296 C1282 1.377 . S
C1296 C1295 1.373 1_655 S
C1297 C1281 1.377 . S
C1297 C1295 1.389 . S
C1297 C1298 1.524 . S
C1298 C1297 1.524 . S
C1298 C1299 1.397 . S
C1298 C1303 1.363 . S
C1299 H1270 0.950 . S
C1299 C1298 1.397 . S
C1299 C1300 1.334 . S
C1300 H1271 0.950 . S
C1300 C1299 1.334 . S
C1300 C1301 1.287 . S
C1301 C1300 1.287 . S
C1301 C1302 1.524 . S
C1301 H1304 0.999 . S
C1302 H1272 0.950 . S
C1302 C1301 1.524 . S
C1302 C1303 1.415 . S
C1303 H1273 0.950 . S
C1303 C1298 1.363 . S
C1303 C1302 1.415 . S
H1304 C1301 0.999 . S
H1305 C1286 0.913 . S
H1306 C1324 0.951 . S
H1307 C1326 0.951 . S
H1308 C1328 0.950 . S
H1309 C1329 0.950 . S
H1310 C1331 0.950 . S
H1311 C1334 0.950 . S
H1312 C1335 0.950 . S
H1313 C1337 0.950 . S
H1314 C1338 0.950 . S
H1315 C1339 0.951 . S
H1316 C1341 0.951 . S
H1317 C1343 0.950 . S
H1318 C1344 0.950 . S
H1319 C1346 0.950 . S
H1320 C1349 0.950 . S
H1321 C1350 0.950 . S
H1322 C1352 0.950 . S
H1323 C1353 0.950 . S
C1324 H1306 0.951 . S
C1324 C1325 1.366 . S
C1324 C1326 1.388 . S
C1325 C1324 1.366 . S
C1325 C1329 1.385 . S
C1326 H1307 0.951 . S
C1326 C1324 1.388 . S
C1326 C1327 1.366 . S
C1327 C1326 1.366 . S
C1327 C1328 1.414 . S
C1327 C1330 1.499 . S
C1328 H1308 0.950 . S
C1328 C1327 1.414 . S
C1328 C1329 1.374 . S
C1329 H1309 0.950 . S
C1329 C1325 1.385 . S
C1329 C1328 1.374 . S
C1330 C1327 1.499 . S
C1330 C1331 1.373 . S
C1330 C1332 1.389 . S
C1331 H1310 0.950 . S
C1331 C1330 1.373 . S
C1331 C1347 1.377 . S
C1332 C1330 1.389 . S
C1332 C1333 1.524 . S
C1332 C1346 1.377 . S
C1333 C1332 1.524 . S
C1333 C1334 1.397 . S
C1333 C1338 1.363 . S
C1334 H1311 0.950 . S
C1334 C1333 1.397 . S
C1334 C1335 1.334 . S
C1335 H1312 0.950 . S
C1335 C1334 1.334 . S
C1335 C1336 1.287 . S
C1336 C1335 1.287 . S
C1336 C1337 1.524 . S
C1336 H1355 0.913 . S
C1337 H1313 0.950 . S
C1337 C1336 1.524 . S
C1337 C1338 1.415 . S
C1338 H1314 0.950 . S
C1338 C1333 1.363 . S
C1338 C1337 1.415 . S
C1339 H1315 0.951 . S
C1339 C1340 1.366 . S
C1339 C1341 1.388 . S
C1340 C1339 1.366 . S
C1340 C1344 1.385 . S
C1341 H1316 0.951 . S
C1341 C1339 1.388 . S
C1341 C1342 1.366 . S
C1342 C1341 1.366 . S
C1342 C1343 1.414 . S
C1342 C1345 1.499 . S
C1343 H1317 0.950 . S
C1343 C1342 1.414 . S
C1343 C1344 1.374 . S
C1344 H1318 0.950 . S
C1344 C1340 1.385 . S
C1344 C1343 1.374 . S
C1345 C1342 1.499 . S
C1345 C1346 1.373 . S
C1345 C1347 1.389 . S
C1346 H1319 0.950 . S
C1346 C1332 1.377 . S
C1346 C1345 1.373 . S
C1347 C1331 1.377 . S
C1347 C1345 1.389 . S
C1347 C1348 1.524 . S
C1348 C1347 1.524 . S
C1348 C1349 1.397 . S
C1348 C1353 1.363 . S
C1349 H1320 0.950 . S
C1349 C1348 1.397 . S
C1349 C1350 1.334 . S
C1350 H1321 0.950 . S
C1350 C1349 1.334 . S
C1350 C1351 1.287 . S
C1351 C1350 1.287 . S
C1351 C1352 1.524 . S
C1351 H1354 0.999 . S
C1352 H1322 0.950 . S
C1352 C1351 1.524 . S
C1352 C1353 1.415 . S
C1353 H1323 0.950 . S
C1353 C1348 1.363 . S
C1353 C1352 1.415 . S
H1354 C1351 0.999 . S
H1355 C1336 0.913 . S
C175 C4 0.994 . S
C190 C94 0.995 . S
C225 C17 0.994 . S
C240 C107 0.995 . S
C275 C36 0.994 . S
C290 C83 0.995 . S
C325 C146 0.995 . S
C340 C49 0.994 . S
C375 C56 0.994 . S
C390 C122 0.995 . S
C425 C135 0.995 . S
C440 C69 0.994 . S
C475 C16 0.995 . S
C490 C88 0.994 . S
C525 C95 0.994 . S
C540 C31 0.995 . S
C575 C3 0.995 . S
C590 C108 0.994 . S
C625 C127 0.994 . S
C640 C68 0.995 . S
C675 C140 0.994 . S
C690 C44 0.995 . S
C725 C55 0.995 . S
C740 C147 0.994 . S
C775 C75 1.555 . S
C790 C10 1.555 . S
C825 C23 1.555 . S
C840 C43 1.555 . S
C875 C30 1.555 . S
C890 C62 1.556 . S
C925 C82 1.555 . S
C940 C153 1.555 . S
C975 C101 1.555 . S
C990 C121 1.555 . S
C1025 C114 1.555 . S
C1040 C134 1.555 . S
C1075 C5 1.493 . S
C1090 C81 1.493 . S
C1125 C18 1.492 . S
C1140 C96 1.492 . S
C1175 C29 1.492 . S
C1190 C109 1.492 . S
C1225 C42 1.493 . S
C1240 C120 1.493 . S
C1275 C133 1.493 . S
C1290 C57 1.493 . S
C1325 C70 1.493 . S
C1340 C148 1.493 . S
