# Generated by pormake.
# Topology ung, (4)-cn, num edge types: 1
# Building blocks:
#     Node 0, Type 0, BuildingBlock: QUQFOY_clean_sbu_1, # of connection points: 4
#     Node 1, Type 0, BuildingBlock: QUQFOY_clean_sbu_1, # of connection points: 4
#     Node 2, Type 0, BuildingBlock: QUQFOY_clean_sbu_1, # of connection points: 4
#     Node 3, Type 0, BuildingBlock: QUQFOY_clean_sbu_1, # of connection points: 4
#     Node 4, Type 0, BuildingBlock: QUQFOY_clean_sbu_1, # of connection points: 4
#     Node 5, Type 0, BuildingBlock: QUQFOY_clean_sbu_1, # of connection points: 4
#     Node 6, Type 0, BuildingBlock: QUQFOY_clean_sbu_1, # of connection points: 4
#     Node 7, Type 0, BuildingBlock: QUQFOY_clean_sbu_1, # of connection points: 4
#     Node 8, Type 0, BuildingBlock: QUQFOY_clean_sbu_1, # of connection points: 4
#     Node 9, Type 0, BuildingBlock: QUQFOY_clean_sbu_1, # of connection points: 4
#     Node 10, Type 0, BuildingBlock: QUQFOY_clean_sbu_1, # of connection points: 4
#     Node 11, Type 0, BuildingBlock: QUQFOY_clean_sbu_1, # of connection points: 4
#     Node 12, Type 0, BuildingBlock: QUQFOY_clean_sbu_1, # of connection points: 4
#     Node 13, Type 0, BuildingBlock: QUQFOY_clean_sbu_1, # of connection points: 4
#     Node 14, Type 0, BuildingBlock: QUQFOY_clean_sbu_1, # of connection points: 4
#     Node 15, Type 0, BuildingBlock: QUQFOY_clean_sbu_1, # of connection points: 4
#     Node 16, Type 0, BuildingBlock: QUQFOY_clean_sbu_1, # of connection points: 4
#     Node 17, Type 0, BuildingBlock: QUQFOY_clean_sbu_1, # of connection points: 4
#     Edge 18, Type (0, 0), BuildingBlock: AJUNOK_clean_linker_0, # of connection points: 2
#     Edge 19, Type (0, 0), BuildingBlock: AJUNOK_clean_linker_0, # of connection points: 2
#     Edge 20, Type (0, 0), BuildingBlock: AJUNOK_clean_linker_0, # of connection points: 2
#     Edge 21, Type (0, 0), BuildingBlock: AJUNOK_clean_linker_0, # of connection points: 2
#     Edge 22, Type (0, 0), BuildingBlock: AJUNOK_clean_linker_0, # of connection points: 2
#     Edge 23, Type (0, 0), BuildingBlock: AJUNOK_clean_linker_0, # of connection points: 2
#     Edge 24, Type (0, 0), BuildingBlock: AJUNOK_clean_linker_0, # of connection points: 2
#     Edge 25, Type (0, 0), BuildingBlock: AJUNOK_clean_linker_0, # of connection points: 2
#     Edge 26, Type (0, 0), BuildingBlock: AJUNOK_clean_linker_0, # of connection points: 2
#     Edge 27, Type (0, 0), BuildingBlock: AJUNOK_clean_linker_0, # of connection points: 2
#     Edge 28, Type (0, 0), BuildingBlock: AJUNOK_clean_linker_0, # of connection points: 2
#     Edge 29, Type (0, 0), BuildingBlock: AJUNOK_clean_linker_0, # of connection points: 2
#     Edge 30, Type (0, 0), BuildingBlock: AJUNOK_clean_linker_0, # of connection points: 2
#     Edge 31, Type (0, 0), BuildingBlock: AJUNOK_clean_linker_0, # of connection points: 2
#     Edge 32, Type (0, 0), BuildingBlock: AJUNOK_clean_linker_0, # of connection points: 2
#     Edge 33, Type (0, 0), BuildingBlock: AJUNOK_clean_linker_0, # of connection points: 2
#     Edge 34, Type (0, 0), BuildingBlock: AJUNOK_clean_linker_0, # of connection points: 2
#     Edge 35, Type (0, 0), BuildingBlock: AJUNOK_clean_linker_0, # of connection points: 2
#     Edge 36, Type (0, 0), BuildingBlock: AJUNOK_clean_linker_0, # of connection points: 2
#     Edge 37, Type (0, 0), BuildingBlock: AJUNOK_clean_linker_0, # of connection points: 2
#     Edge 38, Type (0, 0), BuildingBlock: AJUNOK_clean_linker_0, # of connection points: 2
#     Edge 39, Type (0, 0), BuildingBlock: AJUNOK_clean_linker_0, # of connection points: 2
#     Edge 40, Type (0, 0), BuildingBlock: AJUNOK_clean_linker_0, # of connection points: 2
#     Edge 41, Type (0, 0), BuildingBlock: AJUNOK_clean_linker_0, # of connection points: 2
#     Edge 42, Type (0, 0), BuildingBlock: AJUNOK_clean_linker_0, # of connection points: 2
#     Edge 43, Type (0, 0), BuildingBlock: AJUNOK_clean_linker_0, # of connection points: 2
#     Edge 44, Type (0, 0), BuildingBlock: AJUNOK_clean_linker_0, # of connection points: 2
#     Edge 45, Type (0, 0), BuildingBlock: AJUNOK_clean_linker_0, # of connection points: 2
#     Edge 46, Type (0, 0), BuildingBlock: AJUNOK_clean_linker_0, # of connection points: 2
#     Edge 47, Type (0, 0), BuildingBlock: AJUNOK_clean_linker_0, # of connection points: 2
#     Edge 48, Type (0, 0), BuildingBlock: AJUNOK_clean_linker_0, # of connection points: 2
#     Edge 49, Type (0, 0), BuildingBlock: AJUNOK_clean_linker_0, # of connection points: 2
#     Edge 50, Type (0, 0), BuildingBlock: AJUNOK_clean_linker_0, # of connection points: 2
#     Edge 51, Type (0, 0), BuildingBlock: AJUNOK_clean_linker_0, # of connection points: 2
#     Edge 52, Type (0, 0), BuildingBlock: AJUNOK_clean_linker_0, # of connection points: 2
#     Edge 53, Type (0, 0), BuildingBlock: AJUNOK_clean_linker_0, # of connection points: 2
# Relax obj value: 0.077
# Max RMSD: 0.179
# Mean RMSD: 0.148
data_MOF--net-ung--node1-QUQFOY_clean_sbu_1--edge1-AJUNOK_clean_linker_0
_symmetry_space_group_name_H-M    P1
_symmetry_Int_Tables_number       1
_symmetry_cell_setting            triclinic
loop_
_symmetry_equiv_pos_as_xyz
'x, y, z'
_cell_length_a     53.075865
_cell_length_b     60.995452
_cell_length_c     16.308263
_cell_angle_alpha  90.492646
_cell_angle_beta   93.973982
_cell_angle_gamma 124.05003
loop_
_atom_site_label
_atom_site_type_symbol
_atom_site_fract_x
_atom_site_fract_y
_atom_site_fract_z
_atom_type_partial_charge
O0 O 0.06576 0.58621 0.35008 0.0
Cd1 Cd 0.06416 0.6078 0.25692 0.0
Cd2 Cd 0.01652 0.59766 0.3292 0.0
O3 O 0.01751 0.56598 0.37402 0.0
O4 O 0.08541 0.60387 0.1662 0.0
O5 O 0.03555 0.58455 0.16011 0.0
C6 C 0.05872 0.58748 0.12831 0.0
C7 C 0.97934 0.59679 0.2386 0.0
C8 C 0.04283 0.56797 0.38396 0.0
C9 C 0.07296 0.65237 0.35607 0.0
O10 O 0.04907 0.63413 0.38697 0.0
O11 O 0.08124 0.6473 0.29092 0.0
O12 O 0.97558 0.59331 0.31609 0.0
O13 O 0.00314 0.59923 0.21286 0.0
O14 O 0.44517 0.49991 0.33192 0.0
Cd15 Cd 0.421 0.47872 0.22714 0.0
Cd16 Cd 0.43655 0.4454 0.2789 0.0
O17 O 0.46876 0.47962 0.35313 0.0
O18 O 0.43233 0.50394 0.13638 0.0
O19 O 0.44769 0.47705 0.15276 0.0
C20 C 0.4498 0.49655 0.11598 0.0
C21 C 0.44348 0.41569 0.20584 0.0
C22 C 0.46549 0.49832 0.37112 0.0
C23 C 0.37213 0.43045 0.29534 0.0
O24 O 0.39338 0.42726 0.31532 0.0
O25 O 0.37656 0.44876 0.24863 0.0
O26 O 0.44512 0.41702 0.28529 0.0
O27 O 0.44028 0.43257 0.16829 0.0
O28 O 0.57528 0.04156 0.21595 0.0
Cd29 Cd 0.59966 0.04616 0.32138 0.0
Cd30 Cd 0.58975 1.0003 0.26384 0.0
O31 O 0.55457 0.99881 0.19046 0.0
O32 O 0.58686 0.06114 0.40691 0.0
O33 O 0.57407 0.01981 0.39956 0.0
C34 C 0.57059 0.03723 0.43149 0.0
C35 C 0.59046 0.96955 0.34948 0.0
C36 C 0.55637 0.02014 0.1742 0.0
C37 C 0.65045 0.05184 0.2445 0.0
O38 O 0.63098 0.02758 0.22269 0.0
O39 O 0.64481 0.06357 0.29808 0.0
O40 O 0.5878 0.9661 0.27019 0.0
O41 O 0.59051 0.98917 0.37918 0.0
O42 O 0.06578 0.51429 0.84717 0.0
Cd43 Cd 0.06454 0.49112 0.75316 0.0
Cd44 Cd 0.01776 0.45466 0.82769 0.0
O45 O 0.01798 0.48688 0.87409 0.0
O46 O 0.08571 0.51594 0.66359 0.0
O47 O 0.03598 0.48606 0.6559 0.0
C48 C 0.05907 0.50598 0.62516 0.0
C49 C 0.98089 0.41918 0.73612 0.0
C50 C 0.04297 0.50985 0.88293 0.0
C51 C 0.07512 0.45638 0.85145 0.0
O52 O 0.0512 0.45095 0.88341 0.0
O53 O 0.08279 0.46921 0.78616 0.0
O54 O 0.97735 0.41865 0.81393 0.0
O55 O 0.0044 0.4402 0.71091 0.0
O56 O 0.55033 0.56425 0.69861 0.0
Cd57 Cd 0.57753 0.5826 0.80238 0.0
Cd58 Cd 0.57281 0.62117 0.7511 0.0
O59 O 0.53466 0.59064 0.67794 0.0
O60 O 0.5648 0.55348 0.87944 0.0
O61 O 0.55548 0.58439 0.89302 0.0
C62 C 0.55068 0.56216 0.91495 0.0
C63 C 0.57819 0.65409 0.84217 0.0
C64 C 0.5331 0.56949 0.65919 0.0
C65 C 0.62963 0.62274 0.72193 0.0
O66 O 0.61241 0.6307 0.70446 0.0
O67 O 0.62253 0.60524 0.77454 0.0
O68 O 0.57547 0.65548 0.76331 0.0
O69 O 0.5757 0.63317 0.86878 0.0
O70 O 0.4727 1.00584 0.85036 0.0
Cd71 Cd 0.44518 1.00002 0.75027 0.0
Cd72 Cd 0.46108 0.04841 0.7933 0.0
O73 O 0.49727 0.04953 0.85863 0.0
O74 O 0.45352 0.9823 0.6624 0.0
O75 O 0.46908 0.02448 0.66595 0.0
C76 C 0.47039 1.00571 0.63451 0.0
C77 C 0.45956 0.07925 0.71 0.0
C78 C 0.49426 0.02826 0.88217 0.0
C79 C 0.40057 1.00158 0.83797 0.0
O80 O 0.42222 0.02583 0.85077 0.0
O81 O 0.40215 0.98693 0.78508 0.0
O82 O 0.46696 0.08407 0.78839 0.0
O83 O 0.45577 0.05812 0.67802 0.0
O84 O 0.72884 0.91668 0.69114 0.0
Cd85 Cd 0.72961 0.93878 0.59628 0.0
Cd86 Cd 0.6821 0.93128 0.66332 0.0
O87 O 0.68048 0.89864 0.71034 0.0
O88 O 0.74852 0.93207 0.50485 0.0
O89 O 0.69947 0.91606 0.50143 0.0
C90 C 0.72126 0.91677 0.46862 0.0
C91 C 0.64543 0.93154 0.57346 0.0
C92 C 0.70487 0.89923 0.72342 0.0
C93 C 0.74065 0.98483 0.69182 0.0
O94 O 0.71581 0.96746 0.72104 0.0
O95 O 0.74899 0.97886 0.6286 0.0
O96 O 0.64205 0.92854 0.65122 0.0
O97 O 0.6686 0.933 0.54703 0.0
O98 O 0.13313 0.83725 0.67269 0.0
Cd99 Cd 0.10581 0.81419 0.57444 0.0
Cd100 Cd 0.12631 0.78481 0.62067 0.0
O101 O 0.16127 0.82086 0.68183 0.0
O102 O 0.11145 0.8387 0.48557 0.0
O103 O 0.13039 0.81424 0.4891 0.0
C104 C 0.12965 0.83318 0.45732 0.0
C105 C 0.1268 0.75304 0.53843 0.0
C106 C 0.15643 0.83837 0.70319 0.0
C107 C 0.0643 0.76904 0.66581 0.0
O108 O 0.08752 0.76814 0.6795 0.0
O109 O 0.06395 0.78385 0.61149 0.0
O110 O 0.13461 0.75627 0.6167 0.0
O111 O 0.12145 0.76935 0.50595 0.0
O112 O 0.1841 0.30476 0.64811 0.0
Cd113 Cd 0.21557 0.3105 0.57264 0.0
Cd114 Cd 0.25637 0.35361 0.64886 0.0
O115 O 0.21435 0.34808 0.67361 0.0
O116 O 0.20307 0.30255 0.44941 0.0
O117 O 0.22171 0.34156 0.51159 0.0
C118 C 0.21126 0.32684 0.44467 0.0
C119 C 0.28854 0.376 0.54204 0.0
C120 C 0.18865 0.32599 0.67915 0.0
C121 C 0.26251 0.31257 0.69854 0.0
O122 O 0.26784 0.33438 0.72701 0.0
O123 O 0.24682 0.30226 0.629 0.0
O124 O 0.28833 0.38909 0.60456 0.0
O125 O 0.27168 0.35058 0.54204 0.0
O126 O 0.72421 0.84253 0.18679 0.0
Cd127 Cd 0.72367 0.82023 0.09142 0.0
Cd128 Cd 0.67518 0.78326 0.15786 0.0
O129 O 0.67551 0.81542 0.20604 0.0
O130 O 0.74458 0.84546 1.00263 0.0
O131 O 0.69496 0.81507 0.99499 0.0
C132 C 0.71781 0.83538 0.96477 0.0
C133 C 0.63782 0.74717 0.06824 0.0
C134 C 0.70083 0.838 0.21962 0.0
C135 C 0.73209 0.7843 0.18807 0.0
O136 O 0.70753 0.77869 0.21645 0.0
O137 O 0.74115 0.7978 0.12438 0.0
O138 O 0.63451 0.74748 0.14599 0.0
O139 O 0.66122 0.76792 0.04144 0.0
O140 O 0.23381 0.90449 0.03924 0.0
Cd141 Cd 0.25774 0.92304 0.14662 0.0
Cd142 Cd 0.25059 0.95985 0.09173 0.0
O143 O 0.21555 0.92874 1.01273 0.0
O144 O 0.24439 0.89449 0.22621 0.0
O145 O 0.23257 0.92402 0.22902 0.0
C146 C 0.22853 0.90246 0.25529 0.0
C147 C 0.25262 0.99262 0.17556 0.0
C148 C 0.21662 0.9088 0.9951 0.0
C149 C 0.31018 0.96524 0.07346 0.0
O150 O 0.29185 0.97175 0.05233 0.0
O151 O 0.30336 0.94779 0.1261 0.0
O152 O 0.25056 0.99295 0.09621 0.0
O153 O 0.25072 0.97243 0.20661 0.0
O154 O 0.14597 0.33832 0.13552 0.0
Cd155 Cd 0.11104 0.33381 0.06086 0.0
Cd156 Cd 0.13602 0.38341 0.12228 0.0
O157 O 0.17298 0.38155 0.16403 0.0
O158 O 0.10283 0.3072 0.97134 0.0
O159 O 0.12262 0.34949 0.95219 0.0
C160 C 0.11585 0.32684 0.92396 0.0
C161 C 0.13282 0.4126 0.03581 0.0
C162 C 0.16977 0.35921 0.16897 0.0
C163 C 0.07719 0.33952 0.1854 0.0
O164 O 0.10048 0.36327 0.19472 0.0
O165 O 0.0742 0.32419 0.12614 0.0
O166 O 0.14394 0.41977 0.11174 0.0
O167 O 0.12586 0.38986 1.00808 0.0
O168 O 0.40099 0.25425 1.01221 0.0
Cd169 Cd 0.39981 0.2763 0.92001 0.0
Cd170 Cd 0.35175 0.2648 0.98506 0.0
O171 O 0.35156 0.23193 0.02301 0.0
O172 O 0.41982 0.27245 0.8256 0.0
O173 O 0.36997 0.25246 0.82608 0.0
C174 C 0.39266 0.25564 0.79071 0.0
C175 C 0.31703 0.26837 0.89845 0.0
C176 C 0.3771 0.23459 0.03864 0.0
C177 C 0.40592 0.31875 0.02362 0.0
O178 O 0.38276 0.29928 0.0532 0.0
O179 O 0.41463 0.31525 0.95658 0.0
O180 O 0.31162 0.26159 0.97347 0.0
O181 O 0.34074 0.271 0.87129 0.0
O182 O 0.81156 0.17131 1.02043 0.0
Cd183 Cd 0.78351 0.14944 0.92119 0.0
Cd184 Cd 0.80186 0.11831 0.96194 0.0
O185 O 0.83794 0.15325 0.02564 0.0
O186 O 0.78983 0.17495 0.83521 0.0
O187 O 0.80711 0.14925 0.83313 0.0
C188 C 0.80714 0.16888 0.80409 0.0
C189 C 0.80007 0.08582 0.87712 0.0
C190 C 0.83411 0.17112 0.05015 0.0
C191 C 0.74064 0.10403 1.00916 0.0
O192 O 0.76335 0.10237 1.02156 0.0
O193 O 0.74107 0.11974 0.95713 0.0
O194 O 0.80795 0.0885 0.95523 0.0
O195 O 0.79614 0.10315 0.84604 0.0
O196 O 0.89619 0.69513 0.86909 0.0
Cd197 Cd 0.92116 0.70181 0.97571 0.0
Cd198 Cd 0.91726 0.65929 0.91998 0.0
O199 O 0.88081 0.65372 0.84192 0.0
O200 O 0.90728 0.71792 0.05266 0.0
O201 O 0.8972 0.67761 0.06183 0.0
C202 C 0.89236 0.69513 0.085 0.0
C203 C 0.92094 0.63095 1.00977 0.0
C204 C 0.87994 0.67374 0.82508 0.0
C205 C 0.97471 0.71338 0.90077 0.0
O206 O 0.9578 0.68879 0.8799 0.0
O207 O 0.96673 0.72342 0.9536 0.0
O208 O 0.91956 0.62742 0.93085 0.0
O209 O 0.91798 0.64924 0.03676 0.0
O210 O 0.39581 0.18149 0.50491 0.0
Cd211 Cd 0.39473 0.15774 0.41315 0.0
Cd212 Cd 0.34702 0.1219 0.48752 0.0
O213 O 0.34808 0.15462 0.53341 0.0
O214 O 0.41673 0.18207 0.32323 0.0
O215 O 0.36694 0.15233 0.31343 0.0
C216 C 0.39037 0.17201 0.28298 0.0
C217 C 0.30981 0.08625 0.39687 0.0
C218 C 0.37329 0.17745 0.54129 0.0
C219 C 0.40431 0.12336 0.51612 0.0
O220 O 0.37987 0.11783 0.54509 0.0
O221 O 0.41278 0.13605 0.45076 0.0
O222 O 0.30631 0.08608 0.47464 0.0
O223 O 0.33344 0.10705 0.37113 0.0
O224 O 0.91405 0.23998 0.38636 0.0
Cd225 Cd 0.93591 0.25971 0.4944 0.0
Cd226 Cd 0.92709 0.2948 0.43139 0.0
O227 O 0.89342 0.26202 0.35412 0.0
O228 O 0.92319 0.23195 0.5771 0.0
O229 O 0.90823 0.2593 0.57111 0.0
C230 C 0.90562 0.23873 0.60142 0.0
C231 C 0.92646 0.3264 0.51363 0.0
C232 C 0.89594 0.24267 0.34011 0.0
C233 C 0.98866 0.30343 0.42484 0.0
O234 O 0.96953 0.30841 0.39721 0.0
O235 O 0.98176 0.28642 0.47912 0.0
O236 O 0.92461 0.32669 0.43421 0.0
O237 O 0.92576 0.3068 0.54528 0.0
O238 O 0.79334 0.65875 0.50348 0.0
Cd239 Cd 0.76606 0.65419 0.40439 0.0
Cd240 Cd 0.78368 0.70379 0.45351 0.0
O241 O 0.81877 0.70253 0.51661 0.0
O242 O 0.77486 0.63848 0.31042 0.0
O243 O 0.79066 0.68054 0.3257 0.0
C244 C 0.79187 0.6626 0.28784 0.0
C245 C 0.78449 0.73643 0.37397 0.0
C246 C 0.81543 0.68079 0.53624 0.0
C247 C 0.72173 0.65703 0.49165 0.0
O248 O 0.74384 0.68102 0.5068 0.0
O249 O 0.72327 0.64233 0.4388 0.0
O250 O 0.79083 0.74012 0.45289 0.0
O251 O 0.7802 0.71539 0.33978 0.0
C252 C 0.02199 0.52668 0.98088 0.0
C253 C 0.04651 0.53122 0.93817 0.0
C254 C 0.02575 0.54569 0.03884 0.0
C255 C 0.05425 0.56993 0.0571 0.0
H256 H 0.99989 0.508 0.97129 0.0
H257 H 0.00643 0.54077 0.07221 0.0
S258 S 0.12492 0.59309 0.95606 0.0
N259 N 0.09978 0.56316 0.91322 0.0
N260 N 0.10667 0.5984 0.02286 0.0
C261 C 0.07855 0.5753 1.01219 0.0
C262 C 0.07472 0.5561 0.95261 0.0
C263 C 0.50811 0.55392 0.99637 0.0
C264 C 0.52636 0.54555 0.97021 0.0
C265 C 0.48271 0.53755 0.04042 0.0
C266 C 0.47448 0.5121 0.06069 0.0
H267 H 0.51315 0.57321 0.98184 0.0
H268 H 0.46977 0.54516 0.05992 0.0
S269 S 0.51458 0.48053 1.00694 0.0
N270 N 0.53424 0.50992 0.96796 0.0
N271 N 0.48673 0.47925 0.05089 0.0
C272 C 0.49254 0.50345 0.03507 0.0
C273 C 0.51841 0.52013 0.99004 0.0
C274 C 0.5289 1.00361 0.03365 0.0
C275 C 0.53922 0.02169 0.1017 0.0
C276 C 0.5159 1.00684 0.96103 0.0
C277 C 0.51284 0.02829 0.95366 0.0
H278 H 0.53134 0.98713 0.03586 0.0
H279 H 0.50783 0.99218 0.91038 0.0
S280 S 0.53481 0.0804 0.11557 0.0
N281 N 0.54447 0.06138 0.15825 0.0
N282 N 0.52029 0.06736 1.02121 0.0
C283 C 0.52308 0.04652 1.02106 0.0
C284 C 0.53606 0.04316 0.09529 0.0
C285 C 0.53725 0.04634 0.50548 0.0
C286 C 0.54579 0.02897 0.48631 0.0
C287 C 0.51198 0.03817 0.55003 0.0
C288 C 0.49409 1.01226 0.57745 0.0
H289 H 0.54993 0.06637 0.48513 0.0
H290 H 0.50673 0.05252 0.56397 0.0
S291 S 0.50683 0.959 0.54411 0.0
N292 N 0.53425 0.98451 0.4986 0.0
N293 N 0.48691 0.96928 0.58223 0.0
C294 C 0.50225 0.99461 0.55836 0.0
C295 C 0.52807 1.00295 0.51312 0.0
C296 C 0.02194 0.53035 0.47913 0.0
C297 C 0.04654 0.55015 0.43806 0.0
C298 C 0.02583 0.51505 0.53598 0.0
C299 C 0.05453 0.51909 0.55474 0.0
H300 H 0.99967 0.52708 0.46915 0.0
H301 H 0.00641 0.50077 0.56817 0.0
S302 S 0.12555 0.56608 0.45753 0.0
N303 N 0.10016 0.57107 0.41496 0.0
N304 N 0.10726 0.54265 0.52247 0.0
C305 C 0.07893 0.53785 0.51132 0.0
C306 C 0.07499 0.55327 0.4529 0.0
C307 C 0.50944 0.52642 0.57951 0.0
C308 C 0.51363 0.55137 0.58741 0.0
C309 C 0.49478 0.5098 0.50839 0.0
C310 C 0.48335 0.51726 0.44239 0.0
H311 H 0.51791 0.51965 0.62854 0.0
H312 H 0.49193 0.49077 0.50585 0.0
S313 S 0.48855 0.58052 0.4306 0.0
N314 N 0.50538 0.58278 0.52229 0.0
N315 N 0.47731 0.55136 0.3884 0.0
C316 C 0.48706 0.54203 0.44935 0.0
C317 C 0.50221 0.55908 0.52194 0.0
C318 C 0.73404 0.88136 0.30118 0.0
C319 C 0.70445 0.85891 0.27708 0.0
C320 C 0.73907 0.90053 0.3602 0.0
C321 C 0.71475 0.89836 0.39745 0.0
H322 H 0.75383 0.88387 0.2762 0.0
H323 H 0.76239 0.91683 0.37832 0.0
S324 S 0.63247 0.84487 0.35091 0.0
N325 N 0.6502 0.83663 0.29145 0.0
N326 N 0.65952 0.8728 0.40186 0.0
C327 C 0.68483 0.87673 0.37119 0.0
C328 C 0.67972 0.85699 0.31134 0.0
C329 C 0.17122 0.84288 0.36958 0.0
C330 C 0.15266 0.85036 0.39975 0.0
C331 C 0.19615 0.86011 0.32524 0.0
C332 C 0.20373 0.88566 0.30905 0.0
H333 H 0.16681 0.82362 0.38133 0.0
H334 H 0.20943 0.85318 0.30302 0.0
S335 S 0.16254 0.91512 0.37424 0.0
N336 N 0.14366 0.88521 0.40998 0.0
N337 N 0.19039 0.91757 0.3266 0.0
C338 C 0.18524 0.89339 0.33831 0.0
C339 C 0.15974 0.87575 0.38335 0.0
C340 C 0.21049 0.36224 0.37074 0.0
C341 C 0.20733 0.33766 0.36728 0.0
C342 C 0.20167 0.37101 0.30235 0.0
C343 C 0.18949 0.35556 0.2279 0.0
H344 H 0.21795 0.37409 0.4282 0.0
H345 H 0.2019 0.38878 0.31028 0.0
S346 S 0.18405 0.2933 0.18034 0.0
N347 N 0.19658 0.3006 0.27881 0.0
N348 N 0.18031 0.31716 0.14993 0.0
C349 C 0.18966 0.33257 0.22088 0.0
C350 C 0.19842 0.32355 0.2907 0.0
C351 C 0.15086 0.34869 0.81317 0.0
C352 C 0.12834 0.32511 0.84725 0.0
C353 C 0.16914 0.34862 0.7553 0.0
C354 C 0.16541 0.32494 0.72818 0.0
H355 H 0.15592 0.36768 0.83523 0.0
H356 H 0.18724 0.36747 0.73459 0.0
S357 S 0.10576 0.25725 0.78657 0.0
N358 N 0.10057 0.27708 0.84132 0.0
N359 N 0.1345 0.27678 0.73156 0.0
C360 C 0.14105 0.30095 0.7559 0.0
C361 C 0.12261 0.30107 0.81559 0.0
C362 C 0.73856 0.87004 0.86097 0.0
C363 C 0.71312 0.84873 0.89516 0.0
C364 C 0.73536 0.88558 0.80403 0.0
C365 C 0.70659 0.88074 0.77907 0.0
H366 H 0.76134 0.87529 0.87997 0.0
H367 H 0.75593 0.90208 0.78137 0.0
S368 S 0.63227 0.82597 0.84509 0.0
N369 N 0.65773 0.82247 0.89572 0.0
N370 N 0.65186 0.8519 0.78925 0.0
C371 C 0.68076 0.85886 0.81029 0.0
C372 C 0.68399 0.84281 0.86796 0.0
C373 C 0.19955 0.86777 0.91091 0.0
C374 C 0.20053 0.89132 0.91971 0.0
C375 C 0.18711 0.85158 0.83839 0.0
C376 C 0.17488 0.85813 0.7719 0.0
H377 H 0.20838 0.86158 0.96076 0.0
H378 H 0.18597 0.83328 0.83579 0.0
S379 S 0.17356 0.91831 0.76005 0.0
N380 N 0.18957 0.92098 0.85339 0.0
N381 N 0.16574 0.89033 0.71687 0.0
C382 C 0.17622 0.88185 0.77877 0.0
C383 C 0.18902 0.89844 0.85275 0.0
C384 C 0.35845 0.21389 0.70165 0.0
C385 C 0.38723 0.23798 0.71855 0.0
C386 C 0.35377 0.19479 0.64245 0.0
C387 C 0.3776 0.19907 0.59709 0.0
H388 H 0.33962 0.20915 0.73699 0.0
H389 H 0.33152 0.17622 0.63413 0.0
S390 S 0.45636 0.26048 0.61058 0.0
N391 N 0.43914 0.26604 0.68017 0.0
N392 N 0.43053 0.23064 0.56823 0.0
C393 C 0.40606 0.22381 0.61015 0.0
C394 C 0.41083 0.24311 0.67097 0.0
C395 C 0.84958 0.17934 0.7186 0.0
C396 C 0.83007 0.18611 0.74629 0.0
C397 C 0.87436 0.19674 0.67402 0.0
C398 C 0.88077 0.22173 0.65487 0.0
H399 H 0.84611 0.16055 0.73267 0.0
H400 H 0.88845 0.19037 0.65395 0.0
S401 S 0.83654 0.24912 0.71159 0.0
N402 N 0.81877 0.21963 0.75021 0.0
N403 N 0.86518 0.25227 0.66629 0.0
C404 C 0.86126 0.2287 0.68128 0.0
C405 C 0.83595 0.21092 0.72672 0.0
C406 C 0.85933 0.69556 0.74353 0.0
C407 C 0.86253 0.67414 0.75085 0.0
C408 C 0.84573 0.69851 0.67189 0.0
C409 C 0.83447 0.68002 0.60485 0.0
H410 H 0.86739 0.71033 0.79379 0.0
H411 H 0.84305 0.71486 0.67032 0.0
S412 S 0.83861 0.62129 0.58953 0.0
N413 N 0.85447 0.63483 0.6828 0.0
N414 N 0.82842 0.64011 0.54794 0.0
C415 C 0.83785 0.65871 0.61041 0.0
C416 C 0.85187 0.65576 0.68349 0.0
C417 C 0.82462 0.65345 0.21095 0.0
C418 C 0.81567 0.67054 0.22987 0.0
C419 C 0.85001 0.6619 0.16653 0.0
C420 C 0.86754 0.6878 0.13888 0.0
H421 H 0.81243 0.63355 0.23238 0.0
H422 H 0.8558 0.64786 0.15351 0.0
S423 S 0.85308 0.74013 0.16966 0.0
N424 N 0.82598 0.71451 0.21555 0.0
N425 N 0.87353 0.7303 0.13226 0.0
C426 C 0.85863 0.70503 0.15658 0.0
C427 C 0.83274 0.69641 0.20176 0.0
C428 C 0.35799 0.18109 0.1899 0.0
C429 C 0.38646 0.18487 0.2108 0.0
C430 C 0.35478 0.19647 0.13192 0.0
C431 C 0.37987 0.21614 0.09197 0.0
H432 H 0.33827 0.16704 0.22151 0.0
H433 H 0.33272 0.19355 0.12071 0.0
S434 S 0.45829 0.23087 0.11544 0.0
N435 N 0.43936 0.20768 0.18063 0.0
N436 N 0.43349 0.23625 0.07092 0.0
C437 C 0.408 0.2188 0.10835 0.0
C438 C 0.41125 0.20329 0.16788 0.0
C439 C 0.86736 0.23038 0.20045 0.0
C440 C 0.88013 0.22408 0.26662 0.0
C441 C 0.85414 0.21378 0.12859 0.0
C442 C 0.85319 0.19028 0.11993 0.0
H443 H 0.8677 0.24827 0.20385 0.0
H444 H 0.84403 0.2192 0.07978 0.0
S445 S 0.88303 0.16449 0.27537 0.0
N446 N 0.89079 0.19238 0.31894 0.0
N447 N 0.86602 0.16152 0.18341 0.0
C448 C 0.86627 0.18393 0.18486 0.0
C449 C 0.87958 0.20069 0.25838 0.0
C450 C 0.09443 0.68088 0.48626 0.0
C451 C 0.09126 0.679 0.39959 0.0
C452 C 0.10834 0.70532 0.53065 0.0
C453 C 0.11897 0.72888 0.49017 0.0
H454 H 0.08536 0.66314 0.52029 0.0
H455 H 0.10902 0.70546 0.5972 0.0
S456 S 0.11831 0.73506 0.26381 0.0
N457 N 0.10205 0.70304 0.27478 0.0
N458 N 0.12727 0.74901 0.35797 0.0
C459 C 0.11719 0.72747 0.4034 0.0
C460 C 0.1036 0.70254 0.35816 0.0
C461 C 0.33959 0.42969 0.39918 0.0
C462 C 0.34482 0.41577 0.34121 0.0
C463 C 0.3209 0.41668 0.46321 0.0
C464 C 0.30662 0.38926 0.47102 0.0
H465 H 0.35178 0.45106 0.3987 0.0
H466 H 0.31842 0.42835 0.50825 0.0
S467 S 0.31073 0.34361 0.3285 0.0
N468 N 0.33285 0.37311 0.29181 0.0
N469 N 0.29703 0.34834 0.40964 0.0
C470 C 0.3102 0.37493 0.4098 0.0
C471 C 0.32949 0.38827 0.3456 0.0
C472 C 0.62708 0.9347 0.43091 0.0
C473 C 0.62558 0.93594 0.51671 0.0
C474 C 0.61334 0.94352 0.37616 0.0
C475 C 0.59791 0.95431 0.40505 0.0
H476 H 0.64014 0.92794 0.4059 0.0
H477 H 0.61665 0.94351 0.31136 0.0
S478 S 0.58366 0.95865 0.62243 0.0
N479 N 0.6043 0.94605 0.6267 0.0
N480 N 0.57897 0.96298 0.52417 0.0
C481 C 0.59437 0.95393 0.48998 0.0
C482 C 0.60804 0.94464 0.54567 0.0
C483 C 0.6838 0.09102 0.16291 0.0
C484 C 0.67637 0.06673 0.1935 0.0
C485 C 0.7033 0.10241 0.09942 0.0
C486 C 0.71613 0.08996 0.065 0.0
H487 H 0.67358 0.10076 0.18592 0.0
H488 H 0.70888 0.12133 0.07848 0.0
S489 S 0.70408 0.02632 0.12429 0.0
N490 N 0.68352 0.03081 0.18497 0.0
N491 N 0.72016 0.05216 0.06673 0.0
C492 C 0.70905 0.06583 0.0958 0.0
C493 C 0.68924 0.05427 0.15982 0.0
C494 C 0.94591 0.60678 0.04005 0.0
C495 C 0.92996 0.61723 0.06776 0.0
C496 C 0.96033 0.5988 0.09567 0.0
C497 C 0.95904 0.60054 0.18136 0.0
H498 H 0.9489 0.60621 0.97521 0.0
H499 H 0.97364 0.5922 0.07132 0.0
S500 S 0.91655 0.62303 0.28502 0.0
N501 N 0.91116 0.62641 0.18625 0.0
N502 N 0.93782 0.61105 0.29047 0.0
C503 C 0.94123 0.60907 0.20949 0.0
C504 C 0.92685 0.61753 0.15284 0.0
C505 C 0.422 0.34627 0.1548 0.0
C506 C 0.42152 0.34508 0.06838 0.0
C507 C 0.43156 0.36983 0.19934 0.0
C508 C 0.44048 0.39313 0.1592 0.0
H509 H 0.41383 0.32853 0.18829 0.0
H510 H 0.43009 0.36925 0.26529 0.0
S511 S 0.44649 0.40129 0.93437 0.0
N512 N 0.43353 0.36982 0.94489 0.0
N513 N 0.45088 0.4141 0.02814 0.0
C514 C 0.44187 0.39264 0.07314 0.0
C515 C 0.43258 0.36863 0.02785 0.0
C516 C 0.93325 0.34736 0.65376 0.0
C517 C 0.93379 0.34946 0.56772 0.0
C518 C 0.94642 0.36988 0.70803 0.0
C519 C 0.96102 0.39548 0.67851 0.0
H520 H 0.92397 0.32827 0.6798 0.0
H521 H 0.94692 0.36731 0.77363 0.0
S522 S 0.96466 0.4117 0.45894 0.0
N523 N 0.94691 0.37917 0.45574 0.0
N524 N 0.97194 0.42137 0.55755 0.0
C525 C 0.95968 0.39771 0.59268 0.0
C526 C 0.94596 0.37476 0.53736 0.0
C527 C 0.66867 0.65628 0.63578 0.0
C528 C 0.65501 0.63136 0.66966 0.0
C529 C 0.68902 0.66373 0.57526 0.0
C530 C 0.69629 0.64644 0.54483 0.0
H531 H 0.66335 0.67014 0.65567 0.0
H532 H 0.69937 0.68337 0.5524 0.0
S533 S 0.66666 0.57883 0.6124 0.0
N534 N 0.65003 0.58921 0.66802 0.0
N535 N 0.68852 0.60333 0.55377 0.0
C536 C 0.68275 0.62138 0.57769 0.0
C537 C 0.6622 0.61387 0.64048 0.0
C538 C 0.43285 0.10151 0.52561 0.0
C539 C 0.42335 0.11619 0.56318 0.0
C540 C 0.44632 0.09088 0.57324 0.0
C541 C 0.45128 0.09501 0.65989 0.0
H542 H 0.42828 0.09693 0.45973 0.0
H543 H 0.45175 0.07845 0.54217 0.0
S544 S 0.43401 0.13532 0.78572 0.0
N545 N 0.42221 0.13643 0.69044 0.0
N546 N 0.4481 0.11719 0.77956 0.0
C547 C 0.44381 0.11134 0.69706 0.0
C548 C 0.42965 0.12168 0.64882 0.0
C549 C 0.34971 1.00002 0.99184 0.0
C550 C 0.33609 0.97472 0.02289 0.0
C551 C 0.36941 1.00791 0.92946 0.0
C552 C 0.37606 0.99073 0.8944 0.0
H553 H 0.34454 1.01368 1.01476 0.0
H554 H 0.37956 0.02775 0.90845 0.0
S555 S 0.34641 0.92232 0.95395 0.0
N556 N 0.33058 0.9324 1.01418 0.0
N557 N 0.36794 0.94736 0.89663 0.0
C558 C 0.36274 0.96537 0.92498 0.0
C559 C 0.34283 0.9574 0.98956 0.0
C560 C 0.09976 0.45232 0.98075 0.0
C561 C 0.09435 0.44864 0.8944 0.0
C562 C 0.11452 0.44241 0.02546 0.0
C563 C 0.12373 0.42776 0.98578 0.0
H564 H 0.09179 0.46239 1.01438 0.0
H565 H 0.11702 0.44488 0.09202 0.0
S566 S 0.1167 0.41412 0.76006 0.0
N567 N 0.10129 0.43109 0.77028 0.0
N568 N 0.12803 0.4115 0.85426 0.0
C569 C 0.11956 0.42486 0.89905 0.0
C570 C 0.10515 0.43556 0.85335 0.0
C571 C 0.60332 0.70284 0.87123 0.0
C572 C 0.58788 0.6771 0.89997 0.0
C573 C 0.61801 0.72535 0.92606 0.0
C574 C 0.61748 0.72311 1.01197 0.0
H575 H 0.60563 0.70576 0.80605 0.0
H576 H 0.63084 0.74471 0.90084 0.0
S577 S 0.5768 0.66012 0.11851 0.0
N578 N 0.5706 0.65065 1.01988 0.0
N579 N 0.59769 0.69285 0.12261 0.0
C580 C 0.60029 0.69746 0.04127 0.0
C581 C 0.58567 0.67451 0.98542 0.0
C582 C 0.76328 1.01297 0.82256 0.0
C583 C 0.76013 1.01133 0.7359 0.0
C584 C 0.77849 0.03743 0.86757 0.0
C585 C 0.79051 0.06129 0.82781 0.0
H586 H 0.75323 0.99506 0.85608 0.0
H587 H 0.77917 0.03743 0.93411 0.0
S588 S 0.79014 0.068 0.6017 0.0
N589 N 0.77219 0.03576 0.6118 0.0
N590 N 0.79984 0.08182 0.69618 0.0
C591 C 0.78859 0.06004 0.74102 0.0
C592 C 0.77368 0.03506 0.69512 0.0
C593 C 0.03512 0.73184 0.75614 0.0
C594 C 0.0399 0.75486 0.72197 0.0
C595 C 0.0155 0.71961 0.81816 0.0
C596 C 1.00016 0.7301 0.84983 0.0
H597 H 0.0467 0.72312 0.73469 0.0
H598 H 0.01181 0.70142 0.84045 0.0
S599 S 0.00527 0.79038 0.7832 0.0
N600 N 0.02816 0.78805 0.72552 0.0
N601 N 0.99104 0.76494 0.84258 0.0
C602 C 0.00503 0.75336 0.81734 0.0
C603 C 0.02482 0.76568 0.75304 0.0
C604 C 0.28651 0.28686 0.71238 0.0
C605 C 0.27351 0.29884 0.74868 0.0
C606 C 0.29948 0.27602 0.76105 0.0
C607 C 0.29908 0.27605 0.84751 0.0
H608 H 0.28784 0.28685 0.64639 0.0
H609 H 0.31049 0.26806 0.73085 0.0
S610 S 0.26489 0.30275 0.97128 0.0
N611 N 0.2593 0.30868 0.87547 0.0
N612 N 0.28272 0.2877 0.96631 0.0
C613 C 0.28463 0.28673 0.88383 0.0
C614 C 0.27213 0.2983 0.8346 0.0
C615 C 0.03147 0.33947 0.35408 0.0
C616 C 0.01544 0.31319 0.37798 0.0
C617 C 0.0513 0.34769 0.29164 0.0
C618 C 0.05514 0.32974 0.24885 0.0
H619 H 0.02779 0.35354 0.3819 0.0
H620 H 0.06307 0.36814 0.27521 0.0
S621 S 0.01885 0.25881 0.28946 0.0
N622 N 0.00528 0.26939 0.35598 0.0
N623 N 0.04222 0.28471 0.23741 0.0
C624 C 0.0397 0.30351 0.27326 0.0
C625 C 0.02 0.29529 0.33828 0.0
C626 C 0.76526 0.76555 0.36532 0.0
C627 C 0.77717 0.75309 0.3259 0.0
C628 C 0.75173 0.77638 0.31985 0.0
C629 C 0.75021 0.7758 0.23322 0.0
H630 H 0.76463 0.76551 0.43157 0.0
H631 H 0.74161 0.78467 0.35288 0.0
S632 S 0.78121 0.7483 0.10056 0.0
N633 N 0.78855 0.74254 0.19507 0.0
N634 N 0.76404 0.7638 0.11003 0.0
C635 C 0.76389 0.76509 0.19317 0.0
C636 C 0.77711 0.75349 0.23941 0.0
C637 C 0.26118 1.01419 0.31606 0.0
C638 C 0.2612 0.01607 0.22989 0.0
C639 C 0.27492 0.03689 0.36994 0.0
C640 C 0.28964 0.06243 0.33988 0.0
H641 H 0.25171 0.99513 0.34245 0.0
H642 H 0.27568 0.03447 0.43559 0.0
S643 S 0.29252 0.07816 0.11994 0.0
N644 N 0.27428 0.04559 0.11738 0.0
N645 N 0.30041 0.08806 0.2184 0.0
C646 C 0.288 0.06447 0.25401 0.0
C647 C 0.27368 0.04136 0.19911 0.0
loop_
_geom_bond_atom_site_label_1
_geom_bond_atom_site_label_2
_geom_bond_distance
_geom_bond_site_symmetry_2
_ccdc_geom_bond_type
O0 Cd1 2.223 . S
O0 C8 1.315 . S
Cd1 O0 2.223 . S
Cd1 O4 2.297 . S
Cd1 O5 2.439 . S
Cd1 O11 2.240 . S
Cd2 O3 2.240 1_655 S
Cd2 O10 2.223 1_655 S
Cd2 O12 2.297 . S
Cd2 O13 2.439 1_655 S
O3 Cd2 2.240 1_455 S
O3 C8 1.279 . S
O4 Cd1 2.297 . S
O4 C6 1.247 . S
O5 Cd1 2.439 . S
O5 C6 1.208 . S
C6 O4 1.247 . S
C6 O5 1.208 . S
C7 O12 1.247 . S
C7 O13 1.202 1_655 S
C8 O0 1.315 . S
C8 O3 1.279 . S
C9 O10 1.315 . S
C9 O11 1.279 . S
O10 Cd2 2.223 1_455 S
O10 C9 1.315 . S
O11 Cd1 2.240 . S
O11 C9 1.279 . S
O12 Cd2 2.297 . S
O12 C7 1.247 . S
O13 Cd2 2.439 1_455 S
O13 C7 1.202 1_455 S
O14 Cd15 2.223 . S
O14 C22 1.315 . S
Cd15 O14 2.223 . S
Cd15 O18 2.297 . S
Cd15 O19 2.439 . S
Cd15 O25 2.240 . S
Cd16 O17 2.240 . S
Cd16 O24 2.223 . S
Cd16 O26 2.297 . S
Cd16 O27 2.439 . S
O17 Cd16 2.240 . S
O17 C22 1.279 . S
O18 Cd15 2.297 . S
O18 C20 1.247 . S
O19 Cd15 2.439 . S
O19 C20 1.208 . S
C20 O18 1.247 . S
C20 O19 1.208 . S
C21 O26 1.247 . S
C21 O27 1.208 . S
C22 O14 1.315 . S
C22 O17 1.279 . S
C23 O24 1.315 . S
C23 O25 1.279 . S
O24 Cd16 2.223 . S
O24 C23 1.315 . S
O25 Cd15 2.240 . S
O25 C23 1.279 . S
O26 Cd16 2.297 . S
O26 C21 1.247 . S
O27 Cd16 2.439 . S
O27 C21 1.208 . S
O28 Cd29 2.223 . S
O28 C36 1.315 . S
Cd29 O28 2.223 . S
Cd29 O32 2.297 . S
Cd29 O33 2.439 . S
Cd29 O39 2.240 . S
Cd30 O31 2.240 . S
Cd30 O38 2.223 1_565 S
Cd30 O40 2.297 . S
Cd30 O41 2.439 . S
O31 Cd30 2.240 . S
O31 C36 1.279 1_565 S
O32 Cd29 2.297 . S
O32 C34 1.247 . S
O33 Cd29 2.439 . S
O33 C34 1.208 . S
C34 O32 1.247 . S
C34 O33 1.208 . S
C35 O40 1.247 . S
C35 O41 1.208 . S
C36 O28 1.315 . S
C36 O31 1.279 1_545 S
C37 O38 1.315 . S
C37 O39 1.279 . S
O38 Cd30 2.223 1_545 S
O38 C37 1.315 . S
O39 Cd29 2.240 . S
O39 C37 1.279 . S
O40 Cd30 2.297 . S
O40 C35 1.247 . S
O41 Cd30 2.439 . S
O41 C35 1.208 . S
O42 Cd43 2.223 . S
O42 C50 1.315 . S
Cd43 O42 2.223 . S
Cd43 O46 2.297 . S
Cd43 O47 2.439 . S
Cd43 O53 2.240 . S
Cd44 O45 2.240 . S
Cd44 O52 2.223 1_655 S
Cd44 O54 2.297 . S
Cd44 O55 2.439 . S
O45 Cd44 2.240 . S
O45 C50 1.279 1_655 S
O46 Cd43 2.297 . S
O46 C48 1.247 . S
O47 Cd43 2.439 . S
O47 C48 1.208 . S
C48 O46 1.247 . S
C48 O47 1.208 . S
C49 O54 1.247 . S
C49 O55 1.208 . S
C50 O42 1.315 . S
C50 O45 1.279 1_455 S
C51 O52 1.315 . S
C51 O53 1.279 . S
O52 Cd44 2.223 1_455 S
O52 C51 1.315 . S
O53 Cd43 2.240 . S
O53 C51 1.279 . S
O54 Cd44 2.297 . S
O54 C49 1.247 . S
O55 Cd44 2.439 . S
O55 C49 1.208 . S
O56 Cd57 2.223 . S
O56 C64 1.315 . S
Cd57 O56 2.223 . S
Cd57 O60 2.297 . S
Cd57 O61 2.439 . S
Cd57 O67 2.240 . S
Cd58 O59 2.240 . S
Cd58 O66 2.223 . S
Cd58 O68 2.297 . S
Cd58 O69 2.439 . S
O59 Cd58 2.240 . S
O59 C64 1.279 . S
O60 Cd57 2.297 . S
O60 C62 1.247 . S
O61 Cd57 2.439 . S
O61 C62 1.208 . S
C62 O60 1.247 . S
C62 O61 1.208 . S
C63 O68 1.247 . S
C63 O69 1.208 . S
C64 O56 1.315 . S
C64 O59 1.279 . S
C65 O66 1.315 . S
C65 O67 1.279 . S
O66 Cd58 2.223 . S
O66 C65 1.315 . S
O67 Cd57 2.240 . S
O67 C65 1.279 . S
O68 Cd58 2.297 . S
O68 C63 1.247 . S
O69 Cd58 2.439 . S
O69 C63 1.208 . S
O70 Cd71 2.223 . S
O70 C78 1.315 . S
Cd71 O70 2.223 . S
Cd71 O74 2.297 . S
Cd71 O75 2.439 . S
Cd71 O81 2.240 . S
Cd72 O73 2.240 . S
Cd72 O80 2.223 . S
Cd72 O82 2.297 . S
Cd72 O83 2.439 . S
O73 Cd72 2.240 . S
O73 C78 1.279 . S
O74 Cd71 2.297 . S
O74 C76 1.247 . S
O75 Cd71 2.439 . S
O75 C76 1.208 . S
C76 O74 1.247 . S
C76 O75 1.208 . S
C77 O82 1.247 . S
C77 O83 1.208 . S
C78 O70 1.315 . S
C78 O73 1.279 . S
C79 O80 1.315 . S
C79 O81 1.279 . S
O80 Cd72 2.223 . S
O80 C79 1.315 . S
O81 Cd71 2.240 . S
O81 C79 1.279 . S
O82 Cd72 2.297 . S
O82 C77 1.247 . S
O83 Cd72 2.439 . S
O83 C77 1.208 . S
O84 Cd85 2.223 . S
O84 C92 1.315 . S
Cd85 O84 2.223 . S
Cd85 O88 2.297 . S
Cd85 O89 2.439 . S
Cd85 O95 2.240 . S
Cd86 O87 2.240 . S
Cd86 O94 2.223 . S
Cd86 O96 2.297 . S
Cd86 O97 2.439 . S
O87 Cd86 2.240 . S
O87 C92 1.279 . S
O88 Cd85 2.297 . S
O88 C90 1.247 . S
O89 Cd85 2.439 . S
O89 C90 1.208 . S
C90 O88 1.247 . S
C90 O89 1.208 . S
C91 O96 1.247 . S
C91 O97 1.208 . S
C92 O84 1.315 . S
C92 O87 1.279 . S
C93 O94 1.315 . S
C93 O95 1.279 . S
O94 Cd86 2.223 . S
O94 C93 1.315 . S
O95 Cd85 2.240 . S
O95 C93 1.279 . S
O96 Cd86 2.297 . S
O96 C91 1.247 . S
O97 Cd86 2.439 . S
O97 C91 1.208 . S
O98 Cd99 2.223 . S
O98 C106 1.315 . S
Cd99 O98 2.223 . S
Cd99 O102 2.297 . S
Cd99 O103 2.439 . S
Cd99 O109 2.240 . S
Cd100 O101 2.240 . S
Cd100 O108 2.223 . S
Cd100 O110 2.297 . S
Cd100 O111 2.439 . S
O101 Cd100 2.240 . S
O101 C106 1.279 . S
O102 Cd99 2.297 . S
O102 C104 1.247 . S
O103 Cd99 2.439 . S
O103 C104 1.208 . S
C104 O102 1.247 . S
C104 O103 1.208 . S
C105 O110 1.247 . S
C105 O111 1.208 . S
C106 O98 1.315 . S
C106 O101 1.279 . S
C107 O108 1.315 . S
C107 O109 1.279 . S
O108 Cd100 2.223 . S
O108 C107 1.315 . S
O109 Cd99 2.240 . S
O109 C107 1.279 . S
O110 Cd100 2.297 . S
O110 C105 1.247 . S
O111 Cd100 2.439 . S
O111 C105 1.208 . S
O112 Cd113 2.223 . S
O112 C120 1.315 . S
Cd113 O112 2.223 . S
Cd113 O116 2.297 . S
Cd113 O117 2.439 . S
Cd113 O123 2.240 . S
Cd114 O115 2.240 . S
Cd114 O122 2.223 . S
Cd114 O124 2.297 . S
Cd114 O125 2.439 . S
O115 Cd114 2.240 . S
O115 C120 1.279 . S
O116 Cd113 2.297 . S
O116 C118 1.247 . S
O117 Cd113 2.439 . S
O117 C118 1.208 . S
C118 O116 1.247 . S
C118 O117 1.208 . S
C119 O124 1.247 . S
C119 O125 1.208 . S
C120 O112 1.315 . S
C120 O115 1.279 . S
C121 O122 1.315 . S
C121 O123 1.279 . S
O122 Cd114 2.223 . S
O122 C121 1.315 . S
O123 Cd113 2.240 . S
O123 C121 1.279 . S
O124 Cd114 2.297 . S
O124 C119 1.247 . S
O125 Cd114 2.439 . S
O125 C119 1.208 . S
O126 Cd127 2.223 . S
O126 C134 1.315 . S
Cd127 O126 2.223 . S
Cd127 O130 2.293 1_554 S
Cd127 O131 2.439 1_554 S
Cd127 O137 2.240 . S
Cd128 O129 2.240 . S
Cd128 O136 2.223 . S
Cd128 O138 2.297 . S
Cd128 O139 2.439 1_554 S
O129 Cd128 2.240 . S
O129 C134 1.279 . S
O130 Cd127 2.293 1_556 S
O130 C132 1.253 . S
O131 Cd127 2.439 1_556 S
O131 C132 1.208 . S
C132 O130 1.253 . S
C132 O131 1.208 . S
C133 O138 1.245 1_556 S
C133 O139 1.209 . S
C134 O126 1.315 . S
C134 O129 1.279 . S
C135 O136 1.315 . S
C135 O137 1.279 . S
O136 Cd128 2.223 . S
O136 C135 1.315 . S
O137 Cd127 2.240 . S
O137 C135 1.279 . S
O138 Cd128 2.297 . S
O138 C133 1.245 1_554 S
O139 Cd128 2.439 1_556 S
O139 C133 1.209 . S
O140 Cd141 2.223 1_556 S
O140 C148 1.315 . S
Cd141 O140 2.223 1_554 S
Cd141 O144 2.297 . S
Cd141 O145 2.439 . S
Cd141 O151 2.240 . S
Cd142 O143 2.240 . S
Cd142 O150 2.223 1_554 S
Cd142 O152 2.297 . S
Cd142 O153 2.439 . S
O143 Cd142 2.240 . S
O143 C148 1.279 1_554 S
O144 Cd141 2.297 . S
O144 C146 1.247 . S
O145 Cd141 2.439 . S
O145 C146 1.208 . S
C146 O144 1.247 . S
C146 O145 1.208 . S
C147 O152 1.247 . S
C147 O153 1.208 . S
C148 O140 1.315 . S
C148 O143 1.279 1_556 S
C149 O150 1.315 . S
C149 O151 1.279 1_556 S
O150 Cd142 2.223 1_556 S
O150 C149 1.315 . S
O151 Cd141 2.240 . S
O151 C149 1.279 1_554 S
O152 Cd142 2.297 . S
O152 C147 1.247 . S
O153 Cd142 2.439 . S
O153 C147 1.208 . S
O154 Cd155 2.223 . S
O154 C162 1.315 . S
Cd155 O154 2.223 . S
Cd155 O158 2.297 1_554 S
Cd155 O159 2.439 1_554 S
Cd155 O165 2.240 . S
Cd156 O157 2.240 . S
Cd156 O164 2.223 . S
Cd156 O166 2.297 . S
Cd156 O167 2.439 1_554 S
O157 Cd156 2.240 . S
O157 C162 1.279 . S
O158 Cd155 2.297 1_556 S
O158 C160 1.247 . S
O159 Cd155 2.439 1_556 S
O159 C160 1.208 . S
C160 O158 1.247 . S
C160 O159 1.208 . S
C161 O166 1.247 . S
C161 O167 1.208 1_554 S
C162 O154 1.315 . S
C162 O157 1.279 . S
C163 O164 1.315 . S
C163 O165 1.279 . S
O164 Cd156 2.223 . S
O164 C163 1.315 . S
O165 Cd155 2.240 . S
O165 C163 1.279 . S
O166 Cd156 2.297 . S
O166 C161 1.247 . S
O167 Cd156 2.439 1_556 S
O167 C161 1.208 1_556 S
O168 Cd169 2.223 1_554 S
O168 C176 1.315 . S
Cd169 O168 2.223 1_556 S
Cd169 O172 2.297 . S
Cd169 O173 2.439 . S
Cd169 O179 2.240 . S
Cd170 O171 2.240 . S
Cd170 O178 2.223 1_556 S
Cd170 O180 2.297 . S
Cd170 O181 2.439 . S
O171 Cd170 2.240 . S
O171 C176 1.279 1_556 S
O172 Cd169 2.297 . S
O172 C174 1.247 . S
O173 Cd169 2.439 . S
O173 C174 1.208 . S
C174 O172 1.247 . S
C174 O173 1.208 . S
C175 O180 1.247 . S
C175 O181 1.208 . S
C176 O168 1.315 . S
C176 O171 1.279 1_554 S
C177 O178 1.315 . S
C177 O179 1.279 1_554 S
O178 Cd170 2.223 1_554 S
O178 C177 1.315 . S
O179 Cd169 2.240 . S
O179 C177 1.279 1_556 S
O180 Cd170 2.297 . S
O180 C175 1.247 . S
O181 Cd170 2.439 . S
O181 C175 1.208 . S
O182 Cd183 2.223 1_554 S
O182 C190 1.315 . S
Cd183 O182 2.223 1_556 S
Cd183 O186 2.297 . S
Cd183 O187 2.439 . S
Cd183 O193 2.240 . S
Cd184 O185 2.240 . S
Cd184 O192 2.223 1_556 S
Cd184 O194 2.297 . S
Cd184 O195 2.439 . S
O185 Cd184 2.240 . S
O185 C190 1.279 1_556 S
O186 Cd183 2.297 . S
O186 C188 1.247 . S
O187 Cd183 2.439 . S
O187 C188 1.208 . S
C188 O186 1.247 . S
C188 O187 1.208 . S
C189 O194 1.247 . S
C189 O195 1.208 . S
C190 O182 1.315 . S
C190 O185 1.279 1_554 S
C191 O192 1.315 . S
C191 O193 1.279 1_554 S
O192 Cd184 2.223 1_554 S
O192 C191 1.315 . S
O193 Cd183 2.240 . S
O193 C191 1.279 1_556 S
O194 Cd184 2.297 . S
O194 C189 1.247 . S
O195 Cd184 2.439 . S
O195 C189 1.208 . S
O196 Cd197 2.223 . S
O196 C204 1.315 . S
Cd197 O196 2.223 . S
Cd197 O200 2.297 . S
Cd197 O201 2.439 1_556 S
Cd197 O207 2.240 . S
Cd198 O199 2.240 . S
Cd198 O206 2.223 . S
Cd198 O208 2.297 . S
Cd198 O209 2.439 . S
O199 Cd198 2.240 . S
O199 C204 1.279 . S
O200 Cd197 2.297 . S
O200 C202 1.247 1_556 S
O201 Cd197 2.439 1_554 S
O201 C202 1.208 . S
C202 O200 1.247 1_554 S
C202 O201 1.208 . S
C203 O208 1.247 . S
C203 O209 1.208 . S
C204 O196 1.315 . S
C204 O199 1.279 . S
C205 O206 1.315 . S
C205 O207 1.279 . S
O206 Cd198 2.223 . S
O206 C205 1.315 . S
O207 Cd197 2.240 . S
O207 C205 1.279 . S
O208 Cd198 2.297 . S
O208 C203 1.247 . S
O209 Cd198 2.439 . S
O209 C203 1.208 . S
O210 Cd211 2.223 . S
O210 C218 1.315 . S
Cd211 O210 2.223 . S
Cd211 O214 2.297 . S
Cd211 O215 2.439 . S
Cd211 O221 2.240 . S
Cd212 O213 2.240 . S
Cd212 O220 2.223 . S
Cd212 O222 2.297 . S
Cd212 O223 2.439 . S
O213 Cd212 2.240 . S
O213 C218 1.279 . S
O214 Cd211 2.297 . S
O214 C216 1.247 . S
O215 Cd211 2.439 . S
O215 C216 1.208 . S
C216 O214 1.247 . S
C216 O215 1.208 . S
C217 O222 1.247 . S
C217 O223 1.208 . S
C218 O210 1.315 . S
C218 O213 1.279 . S
C219 O220 1.315 . S
C219 O221 1.279 . S
O220 Cd212 2.223 . S
O220 C219 1.315 . S
O221 Cd211 2.240 . S
O221 C219 1.279 . S
O222 Cd212 2.297 . S
O222 C217 1.247 . S
O223 Cd212 2.439 . S
O223 C217 1.208 . S
O224 Cd225 2.223 . S
O224 C232 1.315 . S
Cd225 O224 2.223 . S
Cd225 O228 2.297 . S
Cd225 O229 2.439 . S
Cd225 O235 2.240 . S
Cd226 O227 2.240 . S
Cd226 O234 2.223 . S
Cd226 O236 2.297 . S
Cd226 O237 2.439 . S
O227 Cd226 2.240 . S
O227 C232 1.279 . S
O228 Cd225 2.297 . S
O228 C230 1.247 . S
O229 Cd225 2.439 . S
O229 C230 1.208 . S
C230 O228 1.247 . S
C230 O229 1.208 . S
C231 O236 1.247 . S
C231 O237 1.208 . S
C232 O224 1.315 . S
C232 O227 1.279 . S
C233 O234 1.315 . S
C233 O235 1.279 . S
O234 Cd226 2.223 . S
O234 C233 1.315 . S
O235 Cd225 2.240 . S
O235 C233 1.279 . S
O236 Cd226 2.297 . S
O236 C231 1.247 . S
O237 Cd226 2.439 . S
O237 C231 1.208 . S
O238 Cd239 2.223 . S
O238 C246 1.315 . S
Cd239 O238 2.223 . S
Cd239 O242 2.297 . S
Cd239 O243 2.439 . S
Cd239 O249 2.240 . S
Cd240 O241 2.240 . S
Cd240 O248 2.223 . S
Cd240 O250 2.297 . S
Cd240 O251 2.439 . S
O241 Cd240 2.240 . S
O241 C246 1.279 . S
O242 Cd239 2.297 . S
O242 C244 1.247 . S
O243 Cd239 2.439 . S
O243 C244 1.208 . S
C244 O242 1.247 . S
C244 O243 1.208 . S
C245 O250 1.247 . S
C245 O251 1.208 . S
C246 O238 1.315 . S
C246 O241 1.279 . S
C247 O248 1.315 . S
C247 O249 1.279 . S
O248 Cd240 2.223 . S
O248 C247 1.315 . S
O249 Cd239 2.240 . S
O249 C247 1.279 . S
O250 Cd240 2.297 . S
O250 C245 1.247 . S
O251 Cd240 2.439 . S
O251 C245 1.208 . S
C252 C253 1.369 1_655 S
C252 C254 1.419 1_655 S
C252 H256 0.930 . S
C253 C252 1.369 1_455 S
C253 C262 1.429 . S
C254 C252 1.419 1_455 S
C254 C255 1.363 1_556 S
C254 H257 0.929 1_456 S
C255 C254 1.363 1_554 S
C255 C261 1.428 . S
H256 C252 0.930 . S
H257 C254 0.929 1_654 S
S258 N259 1.613 . S
S258 N260 1.610 1_556 S
N259 S258 1.613 . S
N259 C262 1.350 . S
N260 S258 1.610 1_554 S
N260 C261 1.351 . S
C261 C255 1.428 . S
C261 N260 1.351 . S
C261 C262 1.434 1_554 S
C262 C253 1.429 . S
C262 N259 1.350 . S
C262 C261 1.434 1_556 S
C263 C264 1.369 1_554 S
C263 C265 1.419 . S
C263 H267 0.930 . S
C264 C263 1.369 1_556 S
C264 C273 1.429 . S
C265 C263 1.419 . S
C265 C266 1.363 . S
C265 H268 0.929 . S
C266 C265 1.363 . S
C266 C272 1.428 . S
H267 C263 0.930 . S
H268 C265 0.929 . S
S269 N270 1.613 . S
S269 N271 1.610 1_556 S
N270 S269 1.613 . S
N270 C273 1.350 . S
N271 S269 1.610 1_554 S
N271 C272 1.351 . S
C272 C266 1.428 . S
C272 N271 1.351 . S
C272 C273 1.434 1_554 S
C273 C264 1.429 . S
C273 N270 1.350 . S
C273 C272 1.434 1_556 S
C274 C275 1.369 . S
C274 C276 1.419 1_554 S
C274 H278 0.930 1_545 S
C275 C274 1.369 . S
C275 C284 1.429 . S
C276 C274 1.419 1_556 S
C276 C277 1.363 . S
C276 H279 0.929 . S
C277 C276 1.363 . S
C277 C283 1.428 . S
H278 C274 0.930 1_565 S
H279 C276 0.929 . S
S280 N281 1.613 1_556 S
S280 N282 1.610 . S
N281 S280 1.613 1_554 S
N281 C284 1.350 . S
N282 S280 1.610 . S
N282 C283 1.351 . S
C283 C277 1.428 . S
C283 N282 1.351 . S
C283 C284 1.434 1_556 S
C284 C275 1.429 . S
C284 N281 1.350 . S
C284 C283 1.434 1_554 S
C285 C286 1.369 . S
C285 C287 1.419 . S
C285 H289 0.930 . S
C286 C285 1.369 . S
C286 C295 1.429 . S
C287 C285 1.419 . S
C287 C288 1.363 . S
C287 H290 0.929 . S
C288 C287 1.363 . S
C288 C294 1.428 . S
H289 C285 0.930 . S
H290 C287 0.929 . S
S291 N292 1.613 . S
S291 N293 1.610 1_565 S
N292 S291 1.613 . S
N292 C295 1.350 1_565 S
N293 S291 1.610 1_545 S
N293 C294 1.351 . S
C294 C288 1.428 . S
C294 N293 1.351 . S
C294 C295 1.434 . S
C295 C286 1.429 . S
C295 N292 1.350 1_545 S
C295 C294 1.434 . S
C296 C297 1.369 . S
C296 C298 1.419 . S
C296 H300 0.930 . S
C297 C296 1.369 . S
C297 C306 1.429 . S
C298 C296 1.419 . S
C298 C299 1.363 . S
C298 H301 0.929 . S
C299 C298 1.363 . S
C299 C305 1.428 . S
H300 C296 0.930 . S
H301 C298 0.929 . S
S302 N303 1.613 . S
S302 N304 1.610 . S
N303 S302 1.613 . S
N303 C306 1.350 . S
N304 S302 1.610 . S
N304 C305 1.351 . S
C305 C299 1.428 . S
C305 N304 1.351 . S
C305 C306 1.434 . S
C306 C297 1.429 . S
C306 N303 1.350 . S
C306 C305 1.434 . S
C307 C308 1.369 . S
C307 C309 1.419 . S
C307 H311 0.930 . S
C308 C307 1.369 . S
C308 C317 1.429 . S
C309 C307 1.419 . S
C309 C310 1.363 . S
C309 H312 0.929 . S
C310 C309 1.363 . S
C310 C316 1.428 . S
H311 C307 0.930 . S
H312 C309 0.929 . S
S313 N314 1.613 . S
S313 N315 1.610 . S
N314 S313 1.613 . S
N314 C317 1.350 . S
N315 S313 1.610 . S
N315 C316 1.351 . S
C316 C310 1.428 . S
C316 N315 1.351 . S
C316 C317 1.434 . S
C317 C308 1.429 . S
C317 N314 1.350 . S
C317 C316 1.434 . S
C318 C319 1.369 . S
C318 C320 1.419 . S
C318 H322 0.930 . S
C319 C318 1.369 . S
C319 C328 1.429 . S
C320 C318 1.419 . S
C320 C321 1.363 . S
C320 H323 0.929 . S
C321 C320 1.363 . S
C321 C327 1.428 . S
H322 C318 0.930 . S
H323 C320 0.929 . S
S324 N325 1.613 . S
S324 N326 1.610 . S
N325 S324 1.613 . S
N325 C328 1.350 . S
N326 S324 1.610 . S
N326 C327 1.351 . S
C327 C321 1.428 . S
C327 N326 1.351 . S
C327 C328 1.434 . S
C328 C319 1.429 . S
C328 N325 1.350 . S
C328 C327 1.434 . S
C329 C330 1.369 . S
C329 C331 1.419 . S
C329 H333 0.930 . S
C330 C329 1.369 . S
C330 C339 1.429 . S
C331 C329 1.419 . S
C331 C332 1.363 . S
C331 H334 0.929 . S
C332 C331 1.363 . S
C332 C338 1.428 . S
H333 C329 0.930 . S
H334 C331 0.929 . S
S335 N336 1.613 . S
S335 N337 1.610 . S
N336 S335 1.613 . S
N336 C339 1.350 . S
N337 S335 1.610 . S
N337 C338 1.351 . S
C338 C332 1.428 . S
C338 N337 1.351 . S
C338 C339 1.434 . S
C339 C330 1.429 . S
C339 N336 1.350 . S
C339 C338 1.434 . S
C340 C341 1.369 . S
C340 C342 1.419 . S
C340 H344 0.930 . S
C341 C340 1.369 . S
C341 C350 1.429 . S
C342 C340 1.419 . S
C342 C343 1.363 . S
C342 H345 0.929 . S
C343 C342 1.363 . S
C343 C349 1.428 . S
H344 C340 0.930 . S
H345 C342 0.929 . S
S346 N347 1.613 . S
S346 N348 1.610 . S
N347 S346 1.613 . S
N347 C350 1.350 . S
N348 S346 1.610 . S
N348 C349 1.351 . S
C349 C343 1.428 . S
C349 N348 1.351 . S
C349 C350 1.434 . S
C350 C341 1.429 . S
C350 N347 1.350 . S
C350 C349 1.434 . S
C351 C352 1.369 . S
C351 C353 1.419 . S
C351 H355 0.930 . S
C352 C351 1.369 . S
C352 C361 1.429 . S
C353 C351 1.419 . S
C353 C354 1.363 . S
C353 H356 0.929 . S
C354 C353 1.363 . S
C354 C360 1.428 . S
H355 C351 0.930 . S
H356 C353 0.929 . S
S357 N358 1.613 . S
S357 N359 1.610 . S
N358 S357 1.613 . S
N358 C361 1.350 . S
N359 S357 1.610 . S
N359 C360 1.351 . S
C360 C354 1.428 . S
C360 N359 1.351 . S
C360 C361 1.434 . S
C361 C352 1.429 . S
C361 N358 1.350 . S
C361 C360 1.434 . S
C362 C363 1.369 . S
C362 C364 1.419 . S
C362 H366 0.930 . S
C363 C362 1.369 . S
C363 C372 1.429 . S
C364 C362 1.419 . S
C364 C365 1.363 . S
C364 H367 0.929 . S
C365 C364 1.363 . S
C365 C371 1.428 . S
H366 C362 0.930 . S
H367 C364 0.929 . S
S368 N369 1.613 . S
S368 N370 1.610 . S
N369 S368 1.613 . S
N369 C372 1.350 . S
N370 S368 1.610 . S
N370 C371 1.351 . S
C371 C365 1.428 . S
C371 N370 1.351 . S
C371 C372 1.434 . S
C372 C363 1.429 . S
C372 N369 1.350 . S
C372 C371 1.434 . S
C373 C374 1.369 . S
C373 C375 1.419 . S
C373 H377 0.930 . S
C374 C373 1.369 . S
C374 C383 1.429 . S
C375 C373 1.419 . S
C375 C376 1.363 . S
C375 H378 0.929 . S
C376 C375 1.363 . S
C376 C382 1.428 . S
H377 C373 0.930 . S
H378 C375 0.929 . S
S379 N380 1.613 . S
S379 N381 1.610 . S
N380 S379 1.613 . S
N380 C383 1.350 . S
N381 S379 1.610 . S
N381 C382 1.351 . S
C382 C376 1.428 . S
C382 N381 1.351 . S
C382 C383 1.434 . S
C383 C374 1.429 . S
C383 N380 1.350 . S
C383 C382 1.434 . S
C384 C385 1.369 . S
C384 C386 1.419 . S
C384 H388 0.930 . S
C385 C384 1.369 . S
C385 C394 1.429 . S
C386 C384 1.419 . S
C386 C387 1.363 . S
C386 H389 0.929 . S
C387 C386 1.363 . S
C387 C393 1.428 . S
H388 C384 0.930 . S
H389 C386 0.929 . S
S390 N391 1.613 . S
S390 N392 1.610 . S
N391 S390 1.613 . S
N391 C394 1.350 . S
N392 S390 1.610 . S
N392 C393 1.351 . S
C393 C387 1.428 . S
C393 N392 1.351 . S
C393 C394 1.434 . S
C394 C385 1.429 . S
C394 N391 1.350 . S
C394 C393 1.434 . S
C395 C396 1.369 . S
C395 C397 1.419 . S
C395 H399 0.930 . S
C396 C395 1.369 . S
C396 C405 1.429 . S
C397 C395 1.419 . S
C397 C398 1.363 . S
C397 H400 0.929 . S
C398 C397 1.363 . S
C398 C404 1.428 . S
H399 C395 0.930 . S
H400 C397 0.929 . S
S401 N402 1.613 . S
S401 N403 1.610 . S
N402 S401 1.613 . S
N402 C405 1.350 . S
N403 S401 1.610 . S
N403 C404 1.351 . S
C404 C398 1.428 . S
C404 N403 1.351 . S
C404 C405 1.434 . S
C405 C396 1.429 . S
C405 N402 1.350 . S
C405 C404 1.434 . S
C406 C407 1.369 . S
C406 C408 1.419 . S
C406 H410 0.930 . S
C407 C406 1.369 . S
C407 C416 1.429 . S
C408 C406 1.419 . S
C408 C409 1.363 . S
C408 H411 0.929 . S
C409 C408 1.363 . S
C409 C415 1.428 . S
H410 C406 0.930 . S
H411 C408 0.929 . S
S412 N413 1.613 . S
S412 N414 1.610 . S
N413 S412 1.613 . S
N413 C416 1.350 . S
N414 S412 1.610 . S
N414 C415 1.351 . S
C415 C409 1.428 . S
C415 N414 1.351 . S
C415 C416 1.434 . S
C416 C407 1.429 . S
C416 N413 1.350 . S
C416 C415 1.434 . S
C417 C418 1.369 . S
C417 C419 1.419 . S
C417 H421 0.930 . S
C418 C417 1.369 . S
C418 C427 1.429 . S
C419 C417 1.419 . S
C419 C420 1.363 . S
C419 H422 0.929 . S
C420 C419 1.363 . S
C420 C426 1.428 . S
H421 C417 0.930 . S
H422 C419 0.929 . S
S423 N424 1.613 . S
S423 N425 1.610 . S
N424 S423 1.613 . S
N424 C427 1.350 . S
N425 S423 1.610 . S
N425 C426 1.351 . S
C426 C420 1.428 . S
C426 N425 1.351 . S
C426 C427 1.434 . S
C427 C418 1.429 . S
C427 N424 1.350 . S
C427 C426 1.434 . S
C428 C429 1.369 . S
C428 C430 1.419 . S
C428 H432 0.930 . S
C429 C428 1.369 . S
C429 C438 1.429 . S
C430 C428 1.419 . S
C430 C431 1.363 . S
C430 H433 0.929 . S
C431 C430 1.363 . S
C431 C437 1.428 . S
H432 C428 0.930 . S
H433 C430 0.929 . S
S434 N435 1.613 . S
S434 N436 1.610 . S
N435 S434 1.613 . S
N435 C438 1.350 . S
N436 S434 1.610 . S
N436 C437 1.351 . S
C437 C431 1.428 . S
C437 N436 1.351 . S
C437 C438 1.434 . S
C438 C429 1.429 . S
C438 N435 1.350 . S
C438 C437 1.434 . S
C439 C440 1.369 . S
C439 C441 1.419 . S
C439 H443 0.930 . S
C440 C439 1.369 . S
C440 C449 1.429 . S
C441 C439 1.419 . S
C441 C442 1.363 . S
C441 H444 0.929 . S
C442 C441 1.363 . S
C442 C448 1.428 . S
H443 C439 0.930 . S
H444 C441 0.929 . S
S445 N446 1.613 . S
S445 N447 1.610 . S
N446 S445 1.613 . S
N446 C449 1.350 . S
N447 S445 1.610 . S
N447 C448 1.351 . S
C448 C442 1.428 . S
C448 N447 1.351 . S
C448 C449 1.434 . S
C449 C440 1.429 . S
C449 N446 1.350 . S
C449 C448 1.434 . S
C450 C451 1.369 . S
C450 C452 1.419 . S
C450 H454 0.930 . S
C451 C450 1.369 . S
C451 C460 1.429 . S
C452 C450 1.419 . S
C452 C453 1.363 . S
C452 H455 0.929 . S
C453 C452 1.363 . S
C453 C459 1.428 . S
H454 C450 0.930 . S
H455 C452 0.929 . S
S456 N457 1.613 . S
S456 N458 1.610 . S
N457 S456 1.613 . S
N457 C460 1.350 . S
N458 S456 1.610 . S
N458 C459 1.351 . S
C459 C453 1.428 . S
C459 N458 1.351 . S
C459 C460 1.434 . S
C460 C451 1.429 . S
C460 N457 1.350 . S
C460 C459 1.434 . S
C461 C462 1.369 . S
C461 C463 1.419 . S
C461 H465 0.930 . S
C462 C461 1.369 . S
C462 C471 1.429 . S
C463 C461 1.419 . S
C463 C464 1.363 . S
C463 H466 0.929 . S
C464 C463 1.363 . S
C464 C470 1.428 . S
H465 C461 0.930 . S
H466 C463 0.929 . S
S467 N468 1.613 . S
S467 N469 1.610 . S
N468 S467 1.613 . S
N468 C471 1.350 . S
N469 S467 1.610 . S
N469 C470 1.351 . S
C470 C464 1.428 . S
C470 N469 1.351 . S
C470 C471 1.434 . S
C471 C462 1.429 . S
C471 N468 1.350 . S
C471 C470 1.434 . S
C472 C473 1.369 . S
C472 C474 1.419 . S
C472 H476 0.930 . S
C473 C472 1.369 . S
C473 C482 1.429 . S
C474 C472 1.419 . S
C474 C475 1.363 . S
C474 H477 0.929 . S
C475 C474 1.363 . S
C475 C481 1.428 . S
H476 C472 0.930 . S
H477 C474 0.929 . S
S478 N479 1.613 . S
S478 N480 1.610 . S
N479 S478 1.613 . S
N479 C482 1.350 . S
N480 S478 1.610 . S
N480 C481 1.351 . S
C481 C475 1.428 . S
C481 N480 1.351 . S
C481 C482 1.434 . S
C482 C473 1.429 . S
C482 N479 1.350 . S
C482 C481 1.434 . S
C483 C484 1.369 . S
C483 C485 1.419 . S
C483 H487 0.930 . S
C484 C483 1.369 . S
C484 C493 1.429 . S
C485 C483 1.419 . S
C485 C486 1.363 . S
C485 H488 0.929 . S
C486 C485 1.363 . S
C486 C492 1.428 . S
H487 C483 0.930 . S
H488 C485 0.929 . S
S489 N490 1.613 1_566 S
S489 N491 1.610 1_565 S
N490 S489 1.613 1_544 S
N490 C493 1.350 . S
N491 S489 1.610 1_545 S
N491 C492 1.351 1_556 S
C492 C486 1.428 . S
C492 N491 1.351 1_554 S
C492 C493 1.434 . S
C493 C484 1.429 . S
C493 N490 1.350 . S
C493 C492 1.434 . S
C494 C495 1.368 1_554 S
C494 C496 1.419 . S
C494 H498 0.930 . S
C495 C494 1.368 1_556 S
C495 C504 1.426 1_556 S
C496 C494 1.419 . S
C496 C497 1.363 . S
C496 H499 0.929 1_655 S
C497 C496 1.363 . S
C497 C503 1.428 . S
H498 C494 0.930 . S
H499 C496 0.929 1_455 S
S500 N501 1.613 . S
S500 N502 1.610 . S
N501 S500 1.613 . S
N501 C504 1.350 . S
N502 S500 1.610 . S
N502 C503 1.351 . S
C503 C497 1.428 . S
C503 N502 1.351 . S
C503 C504 1.434 . S
C504 C495 1.426 1_554 S
C504 N501 1.350 . S
C504 C503 1.434 . S
C505 C506 1.369 . S
C505 C507 1.419 . S
C505 H509 0.930 . S
C506 C505 1.369 . S
C506 C515 1.429 . S
C507 C505 1.419 . S
C507 C508 1.363 . S
C507 H510 0.929 . S
C508 C507 1.363 . S
C508 C514 1.428 . S
H509 C505 0.930 . S
H510 C507 0.929 . S
S511 N512 1.613 . S
S511 N513 1.610 . S
N512 S511 1.613 . S
N512 C515 1.350 . S
N513 S511 1.610 . S
N513 C514 1.351 . S
C514 C508 1.428 . S
C514 N513 1.351 . S
C514 C515 1.434 . S
C515 C506 1.429 . S
C515 N512 1.350 . S
C515 C514 1.434 . S
C516 C517 1.369 . S
C516 C518 1.419 . S
C516 H520 0.930 . S
C517 C516 1.369 . S
C517 C526 1.429 . S
C518 C516 1.419 . S
C518 C519 1.363 . S
C518 H521 0.929 . S
C519 C518 1.363 . S
C519 C525 1.428 . S
H520 C516 0.930 . S
H521 C518 0.929 . S
S522 N523 1.613 1_455 S
S522 N524 1.610 . S
N523 S522 1.613 1_655 S
N523 C526 1.350 . S
N524 S522 1.610 . S
N524 C525 1.351 1_455 S
C525 C519 1.428 . S
C525 N524 1.351 1_655 S
C525 C526 1.434 . S
C526 C517 1.429 . S
C526 N523 1.350 . S
C526 C525 1.434 . S
C527 C528 1.369 . S
C527 C529 1.419 . S
C527 H531 0.930 . S
C528 C527 1.369 . S
C528 C537 1.429 . S
C529 C527 1.419 . S
C529 C530 1.363 . S
C529 H532 0.929 . S
C530 C529 1.363 . S
C530 C536 1.428 . S
H531 C527 0.930 . S
H532 C529 0.929 . S
S533 N534 1.613 . S
S533 N535 1.610 . S
N534 S533 1.613 . S
N534 C537 1.350 . S
N535 S533 1.610 . S
N535 C536 1.351 . S
C536 C530 1.428 . S
C536 N535 1.351 . S
C536 C537 1.434 . S
C537 C528 1.429 . S
C537 N534 1.350 . S
C537 C536 1.434 . S
C538 C539 1.369 . S
C538 C540 1.419 . S
C538 H542 0.930 . S
C539 C538 1.369 . S
C539 C548 1.429 . S
C540 C538 1.419 . S
C540 C541 1.363 . S
C540 H543 0.929 . S
C541 C540 1.363 . S
C541 C547 1.428 . S
H542 C538 0.930 . S
H543 C540 0.929 . S
S544 N545 1.613 . S
S544 N546 1.610 . S
N545 S544 1.613 . S
N545 C548 1.350 . S
N546 S544 1.610 . S
N546 C547 1.351 . S
C547 C541 1.428 . S
C547 N546 1.351 . S
C547 C548 1.434 . S
C548 C539 1.429 . S
C548 N545 1.350 . S
C548 C547 1.434 . S
C549 C550 1.369 . S
C549 C551 1.419 . S
C549 H553 0.930 . S
C550 C549 1.369 . S
C550 C559 1.429 . S
C551 C549 1.419 . S
C551 C552 1.363 1_565 S
C551 H554 0.929 1_565 S
C552 C551 1.363 1_545 S
C552 C558 1.428 1_545 S
H553 C549 0.930 . S
H554 C551 0.929 1_545 S
S555 N556 1.613 . S
S555 N557 1.610 . S
N556 S555 1.613 . S
N556 C559 1.350 1_554 S
N557 S555 1.610 . S
N557 C558 1.351 1_554 S
C558 C552 1.428 1_565 S
C558 N557 1.351 1_556 S
C558 C559 1.434 . S
C559 C550 1.429 . S
C559 N556 1.350 1_556 S
C559 C558 1.434 . S
C560 C561 1.369 . S
C560 C562 1.419 . S
C560 H564 0.930 . S
C561 C560 1.369 . S
C561 C570 1.429 . S
C562 C560 1.419 . S
C562 C563 1.363 . S
C562 H565 0.929 1_556 S
C563 C562 1.363 . S
C563 C569 1.428 . S
H564 C560 0.930 . S
H565 C562 0.929 1_554 S
S566 N567 1.613 . S
S566 N568 1.610 . S
N567 S566 1.613 . S
N567 C570 1.350 . S
N568 S566 1.610 . S
N568 C569 1.351 . S
C569 C563 1.428 . S
C569 N568 1.351 . S
C569 C570 1.434 . S
C570 C561 1.429 . S
C570 N567 1.350 . S
C570 C569 1.434 . S
C571 C572 1.369 . S
C571 C573 1.419 . S
C571 H575 0.930 . S
C572 C571 1.369 . S
C572 C581 1.429 . S
C573 C571 1.419 . S
C573 C574 1.363 . S
C573 H576 0.929 . S
C574 C573 1.363 . S
C574 C580 1.428 . S
H575 C571 0.930 . S
H576 C573 0.929 . S
S577 N578 1.613 . S
S577 N579 1.610 . S
N578 S577 1.613 . S
N578 C581 1.350 . S
N579 S577 1.610 . S
N579 C580 1.351 . S
C580 C574 1.428 . S
C580 N579 1.351 . S
C580 C581 1.434 . S
C581 C572 1.429 . S
C581 N578 1.350 . S
C581 C580 1.434 . S
C582 C583 1.369 . S
C582 C584 1.419 . S
C582 H586 0.930 . S
C583 C582 1.369 . S
C583 C592 1.429 . S
C584 C582 1.419 . S
C584 C585 1.363 1_565 S
C584 H587 0.929 . S
C585 C584 1.363 1_545 S
C585 C591 1.428 1_545 S
H586 C582 0.930 . S
H587 C584 0.929 . S
S588 N589 1.613 . S
S588 N590 1.610 1_565 S
N589 S588 1.613 . S
N589 C592 1.350 . S
N590 S588 1.610 1_545 S
N590 C591 1.351 1_545 S
C591 C585 1.428 1_565 S
C591 N590 1.351 1_565 S
C591 C592 1.434 . S
C592 C583 1.429 . S
C592 N589 1.350 . S
C592 C591 1.434 . S
C593 C594 1.369 . S
C593 C595 1.419 . S
C593 H597 0.930 . S
C594 C593 1.369 . S
C594 C603 1.429 . S
C595 C593 1.419 . S
C595 C596 1.363 . S
C595 H598 0.929 . S
C596 C595 1.363 . S
C596 C602 1.428 . S
H597 C593 0.930 . S
H598 C595 0.929 . S
S599 N600 1.613 1_655 S
S599 N601 1.610 . S
N600 S599 1.613 1_455 S
N600 C603 1.350 . S
N601 S599 1.610 . S
N601 C602 1.351 1_655 S
C602 C596 1.428 . S
C602 N601 1.351 1_455 S
C602 C603 1.434 . S
C603 C594 1.429 . S
C603 N600 1.350 . S
C603 C602 1.434 . S
C604 C605 1.369 . S
C604 C606 1.419 . S
C604 H608 0.930 . S
C605 C604 1.369 . S
C605 C614 1.429 . S
C606 C604 1.419 . S
C606 C607 1.363 . S
C606 H609 0.929 . S
C607 C606 1.363 . S
C607 C613 1.428 . S
H608 C604 0.930 . S
H609 C606 0.929 . S
S610 N611 1.613 . S
S610 N612 1.610 . S
N611 S610 1.613 . S
N611 C614 1.350 . S
N612 S610 1.610 . S
N612 C613 1.351 . S
C613 C607 1.428 . S
C613 N612 1.351 . S
C613 C614 1.434 . S
C614 C605 1.429 . S
C614 N611 1.350 . S
C614 C613 1.434 . S
C615 C616 1.369 1_455 S
C615 C617 1.419 . S
C615 H619 0.930 . S
C616 C615 1.369 1_655 S
C616 C625 1.429 . S
C617 C615 1.419 . S
C617 C618 1.363 . S
C617 H620 0.929 . S
C618 C617 1.363 . S
C618 C624 1.428 . S
H619 C615 0.930 . S
H620 C617 0.929 . S
S621 N622 1.613 . S
S621 N623 1.610 1_655 S
N622 S621 1.613 . S
N622 C625 1.350 . S
N623 S621 1.610 1_455 S
N623 C624 1.351 . S
C624 C618 1.428 . S
C624 N623 1.351 . S
C624 C625 1.434 1_455 S
C625 C616 1.429 . S
C625 N622 1.350 . S
C625 C624 1.434 1_655 S
C626 C627 1.369 . S
C626 C628 1.419 . S
C626 H630 0.930 . S
C627 C626 1.369 . S
C627 C636 1.429 . S
C628 C626 1.419 . S
C628 C629 1.363 . S
C628 H631 0.929 . S
C629 C628 1.363 . S
C629 C635 1.428 . S
H630 C626 0.930 . S
H631 C628 0.929 . S
S632 N633 1.613 . S
S632 N634 1.610 . S
N633 S632 1.613 . S
N633 C636 1.350 . S
N634 S632 1.610 . S
N634 C635 1.351 . S
C635 C629 1.428 . S
C635 N634 1.351 . S
C635 C636 1.434 . S
C636 C627 1.429 . S
C636 N633 1.350 . S
C636 C635 1.434 . S
C637 C638 1.369 . S
C637 C639 1.419 1_565 S
C637 H641 0.930 . S
C638 C637 1.369 . S
C638 C647 1.429 1_565 S
C639 C637 1.419 1_545 S
C639 C640 1.363 . S
C639 H642 0.929 . S
C640 C639 1.363 . S
C640 C646 1.428 . S
H641 C637 0.930 . S
H642 C639 0.929 . S
S643 N644 1.613 . S
S643 N645 1.610 . S
N644 S643 1.613 . S
N644 C647 1.350 . S
N645 S643 1.610 . S
N645 C646 1.351 . S
C646 C640 1.428 . S
C646 N645 1.351 . S
C646 C647 1.434 . S
C647 C638 1.429 1_545 S
C647 N644 1.350 . S
C647 C646 1.434 . S
C253 C50 1.381 . S
C255 C6 1.479 . S
C264 C62 1.523 . S
C266 C20 1.502 . S
C275 C36 1.601 . S
C277 C78 1.580 . S
C286 C34 1.455 . S
C288 C76 1.441 . S
C297 C8 1.385 . S
C299 C48 1.424 . S
C308 C64 1.590 . S
C310 C22 1.521 . S
C319 C134 1.322 . S
C321 C90 1.375 . S
C330 C104 1.426 . S
C332 C146 1.437 . S
C341 C118 1.436 . S
C343 C162 1.361 . S
C352 C160 1.558 . S
C354 C120 1.493 . S
C363 C132 1.484 . S
C365 C92 1.414 . S
C374 C148 1.635 . S
C376 C106 1.601 . S
C385 C174 1.506 . S
C387 C218 1.458 . S
C396 C188 1.473 . S
C398 C230 1.482 . S
C407 C204 1.581 . S
C409 C246 1.540 . S
C418 C244 1.427 . S
C420 C202 1.439 . S
C429 C216 1.436 . S
C431 C176 1.352 . S
C440 C232 1.522 . S
C442 C190 1.506 . S
C451 C9 1.448 . S
C453 C105 1.513 . S
C462 C23 1.471 . S
C464 C119 1.472 . S
C473 C91 1.272 . S
C475 C35 1.275 . S
C484 C37 1.592 . S
C486 C191 1.645 . S
C495 C203 1.205 . S
C497 C7 1.198 . S
C506 C177 1.594 . S
C508 C21 1.561 . S
C517 C231 1.242 . S
C519 C49 1.239 . S
C528 C65 1.546 . S
C530 C247 1.614 . S
C539 C219 1.447 . S
C541 C77 1.484 . S
C550 C149 1.585 . S
C552 C79 1.634 . S
C561 C51 1.315 . S
C563 C161 1.378 1_556 S
C572 C63 1.183 . S
C574 C133 1.184 . S
C583 C93 1.363 . S
C585 C189 1.406 . S
C594 C107 1.595 . S
C596 C205 1.537 1_455 S
C605 C121 1.329 . S
C607 C175 1.343 . S
C616 C233 1.530 . S
C618 C163 1.555 . S
C627 C245 1.485 . S
C629 C135 1.432 . S
C638 C147 1.272 . S
C640 C217 1.272 . S
