# Generated by pormake.
# Topology yfl, (5)-cn, num edge types: 1
# Building blocks:
#     Node 0, Type 0, BuildingBlock: XOMCOT_clean_sbu_1, # of connection points: 5
#     Node 1, Type 0, BuildingBlock: XOMCOT_clean_sbu_1, # of connection points: 5
#     Node 2, Type 0, BuildingBlock: XOMCOT_clean_sbu_1, # of connection points: 5
#     Node 3, Type 0, BuildingBlock: XOMCOT_clean_sbu_1, # of connection points: 5
#     Node 4, Type 0, BuildingBlock: XOMCOT_clean_sbu_1, # of connection points: 5
#     Node 5, Type 0, BuildingBlock: XOMCOT_clean_sbu_1, # of connection points: 5
#     Node 6, Type 0, BuildingBlock: XOMCOT_clean_sbu_1, # of connection points: 5
#     Node 7, Type 0, BuildingBlock: XOMCOT_clean_sbu_1, # of connection points: 5
#     Node 8, Type 0, BuildingBlock: XOMCOT_clean_sbu_1, # of connection points: 5
#     Node 9, Type 0, BuildingBlock: XOMCOT_clean_sbu_1, # of connection points: 5
#     Node 10, Type 0, BuildingBlock: XOMCOT_clean_sbu_1, # of connection points: 5
#     Node 11, Type 0, BuildingBlock: XOMCOT_clean_sbu_1, # of connection points: 5
#     Node 12, Type 0, BuildingBlock: XOMCOT_clean_sbu_1, # of connection points: 5
#     Node 13, Type 0, BuildingBlock: XOMCOT_clean_sbu_1, # of connection points: 5
#     Node 14, Type 0, BuildingBlock: XOMCOT_clean_sbu_1, # of connection points: 5
#     Node 15, Type 0, BuildingBlock: XOMCOT_clean_sbu_1, # of connection points: 5
#     Edge 16, Type (0, 0), BuildingBlock: XUDNAN_clean_linker_2, # of connection points: 2
#     Edge 17, Type (0, 0), BuildingBlock: XUDNAN_clean_linker_2, # of connection points: 2
#     Edge 18, Type (0, 0), BuildingBlock: XUDNAN_clean_linker_2, # of connection points: 2
#     Edge 19, Type (0, 0), BuildingBlock: XUDNAN_clean_linker_2, # of connection points: 2
#     Edge 20, Type (0, 0), BuildingBlock: XUDNAN_clean_linker_2, # of connection points: 2
#     Edge 21, Type (0, 0), BuildingBlock: XUDNAN_clean_linker_2, # of connection points: 2
#     Edge 22, Type (0, 0), BuildingBlock: XUDNAN_clean_linker_2, # of connection points: 2
#     Edge 23, Type (0, 0), BuildingBlock: XUDNAN_clean_linker_2, # of connection points: 2
#     Edge 24, Type (0, 0), BuildingBlock: XUDNAN_clean_linker_2, # of connection points: 2
#     Edge 25, Type (0, 0), BuildingBlock: XUDNAN_clean_linker_2, # of connection points: 2
#     Edge 26, Type (0, 0), BuildingBlock: XUDNAN_clean_linker_2, # of connection points: 2
#     Edge 27, Type (0, 0), BuildingBlock: XUDNAN_clean_linker_2, # of connection points: 2
#     Edge 28, Type (0, 0), BuildingBlock: XUDNAN_clean_linker_2, # of connection points: 2
#     Edge 29, Type (0, 0), BuildingBlock: XUDNAN_clean_linker_2, # of connection points: 2
#     Edge 30, Type (0, 0), BuildingBlock: XUDNAN_clean_linker_2, # of connection points: 2
#     Edge 31, Type (0, 0), BuildingBlock: XUDNAN_clean_linker_2, # of connection points: 2
#     Edge 32, Type (0, 0), BuildingBlock: XUDNAN_clean_linker_2, # of connection points: 2
#     Edge 33, Type (0, 0), BuildingBlock: XUDNAN_clean_linker_2, # of connection points: 2
#     Edge 34, Type (0, 0), BuildingBlock: XUDNAN_clean_linker_2, # of connection points: 2
#     Edge 35, Type (0, 0), BuildingBlock: XUDNAN_clean_linker_2, # of connection points: 2
#     Edge 36, Type (0, 0), BuildingBlock: XUDNAN_clean_linker_2, # of connection points: 2
#     Edge 37, Type (0, 0), BuildingBlock: XUDNAN_clean_linker_2, # of connection points: 2
#     Edge 38, Type (0, 0), BuildingBlock: XUDNAN_clean_linker_2, # of connection points: 2
#     Edge 39, Type (0, 0), BuildingBlock: XUDNAN_clean_linker_2, # of connection points: 2
#     Edge 40, Type (0, 0), BuildingBlock: XUDNAN_clean_linker_2, # of connection points: 2
#     Edge 41, Type (0, 0), BuildingBlock: XUDNAN_clean_linker_2, # of connection points: 2
#     Edge 42, Type (0, 0), BuildingBlock: XUDNAN_clean_linker_2, # of connection points: 2
#     Edge 43, Type (0, 0), BuildingBlock: XUDNAN_clean_linker_2, # of connection points: 2
#     Edge 44, Type (0, 0), BuildingBlock: XUDNAN_clean_linker_2, # of connection points: 2
#     Edge 45, Type (0, 0), BuildingBlock: XUDNAN_clean_linker_2, # of connection points: 2
#     Edge 46, Type (0, 0), BuildingBlock: XUDNAN_clean_linker_2, # of connection points: 2
#     Edge 47, Type (0, 0), BuildingBlock: XUDNAN_clean_linker_2, # of connection points: 2
#     Edge 48, Type (0, 0), BuildingBlock: XUDNAN_clean_linker_2, # of connection points: 2
#     Edge 49, Type (0, 0), BuildingBlock: XUDNAN_clean_linker_2, # of connection points: 2
#     Edge 50, Type (0, 0), BuildingBlock: XUDNAN_clean_linker_2, # of connection points: 2
#     Edge 51, Type (0, 0), BuildingBlock: XUDNAN_clean_linker_2, # of connection points: 2
#     Edge 52, Type (0, 0), BuildingBlock: XUDNAN_clean_linker_2, # of connection points: 2
#     Edge 53, Type (0, 0), BuildingBlock: XUDNAN_clean_linker_2, # of connection points: 2
#     Edge 54, Type (0, 0), BuildingBlock: XUDNAN_clean_linker_2, # of connection points: 2
#     Edge 55, Type (0, 0), BuildingBlock: XUDNAN_clean_linker_2, # of connection points: 2
# Relax obj value: 0.506
# Max RMSD: 0.266
# Mean RMSD: 0.266
data_MOF--net-yfl--node1-XOMCOT_clean_sbu_1--edge1-XUDNAN_clean_linker_2
_symmetry_space_group_name_H-M    P1
_symmetry_Int_Tables_number       1
_symmetry_cell_setting            triclinic
loop_
_symmetry_equiv_pos_as_xyz
'x, y, z'
_cell_length_a     28.313286
_cell_length_b     28.255886
_cell_length_c     106.53802
_cell_angle_alpha  89.909316
_cell_angle_beta   89.97828
_cell_angle_gamma 89.810457
loop_
_atom_site_label
_atom_site_type_symbol
_atom_site_fract_x
_atom_site_fract_y
_atom_site_fract_z
_atom_type_partial_charge
C0 C 0.98297 0.21791 0.28962 0.0
C1 C 0.94153 0.23351 0.28421 0.0
N2 N 0.94349 0.281 0.28323 0.0
N3 N 0.01065 0.2555 0.29206 0.0
C4 C 0.98527 0.29338 0.28827 0.0
H5 H 0.99354 0.18139 0.29082 0.0
Co6 Co 0.07388 0.25445 0.29648 0.0
C7 C 0.09338 0.35151 0.30687 0.0
O8 O 0.13553 0.34992 0.30172 0.0
N9 N 0.13786 0.25268 0.301 0.0
C10 C 0.21645 0.2495 0.30183 0.0
C11 C 0.17757 0.24666 0.29409 0.0
C12 C 0.15346 0.25771 0.31288 0.0
N13 N 0.20074 0.25614 0.31358 0.0
O14 O 0.05895 0.21565 0.31109 0.0
H15 H 0.1788 0.2415 0.28406 0.0
H16 H 0.13059 0.26452 0.32082 0.0
O17 O 0.06543 0.31588 0.30578 0.0
C18 C 0.0713 0.17335 0.30815 0.0
O19 O 0.09042 0.1667 0.29704 0.0
N20 N 0.08821 0.28472 0.28122 0.0
C21 C 0.11694 0.3099 0.25711 0.0
C22 C 0.10272 0.34466 0.26575 0.0
C23 C 0.08741 0.33125 0.27769 0.0
C24 C 0.09727 0.25057 0.27254 0.0
C25 C 0.11198 0.26225 0.26047 0.0
H26 H 0.07499 0.35858 0.28388 0.0
H27 H 0.0948 0.21372 0.2752 0.0
H28 H 0.9983 0.32926 0.28848 0.0
H29 H 0.91404 0.21139 0.28033 0.0
H30 H 0.25321 0.2481 0.29905 0.0
H31 H 0.10477 0.38198 0.2635 0.0
H32 H 0.12055 0.2341 0.25396 0.0
C33 C 0.1858 0.04452 0.69592 0.0
C34 C 0.20019 0.08478 0.70203 0.0
N35 N 0.247 0.0814 0.70401 0.0
N36 N 0.2235 0.01614 0.69397 0.0
C37 C 0.26032 0.03966 0.69901 0.0
H38 H 0.14985 0.03602 0.69342 0.0
Co39 Co 0.22219 0.95659 0.68669 0.0
C40 C 0.31825 0.9408 0.67507 0.0
O41 O 0.31226 0.89532 0.67702 0.0
N42 N 0.21938 0.89657 0.67916 0.0
C43 C 0.21417 0.82014 0.67451 0.0
C44 C 0.21396 0.85282 0.68407 0.0
C45 C 0.22144 0.88954 0.66664 0.0
N46 N 0.2192 0.84341 0.66354 0.0
O47 O 0.18401 0.98177 0.67293 0.0
H48 H 0.2107 0.84461 0.69393 0.0
H49 H 0.22568 0.91803 0.65995 0.0
O50 O 0.2851 0.96995 0.6782 0.0
C51 C 0.14191 0.9672 0.67516 0.0
O52 O 0.13461 0.94153 0.68526 0.0
N53 N 0.25182 0.93149 0.70104 0.0
C54 C 0.2791 0.88903 0.7235 0.0
C55 C 0.31298 0.90738 0.71524 0.0
C56 C 0.29859 0.92942 0.70416 0.0
C57 C 0.21846 0.91662 0.70938 0.0
C58 C 0.23126 0.89495 0.72065 0.0
H59 H 0.32535 0.94546 0.69844 0.0
H60 H 0.18146 0.92045 0.70707 0.0
H61 H 0.29612 0.02628 0.69922 0.0
H62 H 0.17766 0.11321 0.70532 0.0
H63 H 0.21224 0.78214 0.67563 0.0
H64 H 0.35029 0.90528 0.71744 0.0
H65 H 0.20408 0.88193 0.72692 0.0
C66 C 0.01838 0.8375 0.29541 0.0
C67 C 0.05276 0.83951 0.28638 0.0
N68 N 0.07239 0.79621 0.28535 0.0
N69 N 0.0165 0.7933 0.30013 0.0
C70 C 0.04994 0.76879 0.29384 0.0
H71 H 0.99525 0.86617 0.29818 0.0
Co72 Co 0.97236 0.77723 0.31204 0.0
C73 C 0.9868 0.67751 0.3194 0.0
O74 O 0.94054 0.67489 0.31893 0.0
N75 N 0.92712 0.76351 0.32452 0.0
C76 C 0.8985 0.7525 0.34376 0.0
C77 C 0.93874 0.75749 0.33673 0.0
C78 C 0.87935 0.7616 0.32437 0.0
N79 N 0.86136 0.75509 0.33595 0.0
O80 O 1.00647 0.81675 0.3239 0.0
H81 H 0.97444 0.7572 0.34034 0.0
H82 H 0.85772 0.76593 0.31611 0.0
O83 O 0.00742 0.71694 0.31667 0.0
C84 C 0.98348 0.85536 0.32567 0.0
O85 O 0.9406 0.85891 0.32105 0.0
N86 N 0.93805 0.74612 0.2994 0.0
C87 C 0.8999 0.72862 0.27566 0.0
C88 C 0.93479 0.69878 0.28069 0.0
C89 C 0.95382 0.70842 0.2925 0.0
C90 C 0.90334 0.77467 0.29476 0.0
C91 C 0.88296 0.76593 0.2831 0.0
H92 H 0.98419 0.68809 0.29536 0.0
H93 H 0.89383 0.80664 0.29974 0.0
H94 H 0.05713 0.73153 0.29526 0.0
H95 H 0.06113 0.8699 0.2806 0.0
H96 H 0.89658 0.74715 0.35381 0.0
H97 H 0.95009 0.67047 0.27516 0.0
H98 H 0.85596 0.78989 0.27966 0.0
C99 C 0.80772 0.0539 0.69756 0.0
C100 C 0.80936 0.03318 0.70922 0.0
N101 N 0.76487 0.02384 0.71276 0.0
N102 N 0.76235 0.05739 0.69375 0.0
C103 C 0.73707 0.0383 0.70322 0.0
H104 H 0.83763 0.06857 0.69263 0.0
Co105 Co 0.74373 0.0912 0.67959 0.0
C106 C 0.64289 0.06793 0.6745 0.0
O107 O 0.63742 0.11355 0.67252 0.0
N108 N 0.72727 0.12492 0.66509 0.0
C109 C 0.70681 0.13695 0.64521 0.0
C110 C 0.71236 0.10371 0.65445 0.0
C111 C 0.73256 0.17095 0.6619 0.0
N112 N 0.71962 0.17908 0.64991 0.0
O113 O 0.78296 0.04939 0.6694 0.0
H114 H 0.70704 0.06604 0.65338 0.0
H115 H 0.7473 0.19767 0.66798 0.0
O116 O 0.68413 0.05169 0.67755 0.0
C117 C 0.8216 0.07187 0.66741 0.0
O118 O 0.82321 0.11655 0.67081 0.0
N119 N 0.71291 0.13522 0.69026 0.0
C120 C 0.69127 0.19638 0.71012 0.0
C121 C 0.66125 0.15883 0.70704 0.0
C122 C 0.67327 0.12803 0.69736 0.0
C123 C 0.74186 0.17235 0.69293 0.0
C124 C 0.73161 0.20356 0.70273 0.0
H125 H 0.65198 0.09688 0.6964 0.0
H126 H 0.77496 0.17592 0.68796 0.0
H127 H 0.69897 0.03733 0.70354 0.0
H128 H 0.84029 0.02923 0.71511 0.0
H129 H 0.6969 0.13034 0.63555 0.0
H130 H 0.62958 0.15182 0.71243 0.0
H131 H 0.75653 0.23133 0.70493 0.0
C132 C 0.96034 0.24999 0.93852 0.0
C133 C 0.93275 0.25056 0.94906 0.0
N134 N 0.91639 0.20654 0.95093 0.0
N135 N 0.96156 0.2058 0.93379 0.0
C136 C 0.93419 0.17981 0.94155 0.0
H137 H 0.98081 0.2793 0.93496 0.0
Co138 Co 1.00251 0.19284 0.92086 0.0
C139 C 0.01454 0.08803 0.91879 0.0
O140 O 0.05995 0.09674 0.91774 0.0
N141 N 0.04376 0.18291 0.90737 0.0
C142 C 0.06625 0.16372 0.88805 0.0
C143 C 0.03102 0.16002 0.89679 0.0
C144 C 0.08684 0.20094 0.90472 0.0
N145 N 0.10146 0.18956 0.89302 0.0
O146 O 0.95286 0.20539 0.90908 0.0
H147 H 0.9974 0.14277 0.89537 0.0
H148 H 0.10667 0.22303 0.91102 0.0
O149 O 0.98577 0.12298 0.92054 0.0
C150 C 0.93322 0.2437 0.90535 0.0
O151 O 0.89693 0.24051 0.89772 0.0
N152 N 0.05039 0.18335 0.93306 0.0
C153 C 0.10993 0.18309 0.95411 0.0
C154 C 0.07866 0.14571 0.95189 0.0
C155 C 0.04828 0.14732 0.94164 0.0
C156 C 0.07985 0.22061 0.93519 0.0
C157 C 0.11041 0.22092 0.94554 0.0
H158 H 0.0213 0.12064 0.94117 0.0
H159 H 0.07768 0.25163 0.92926 0.0
H160 H 0.93027 0.14179 0.94091 0.0
H161 H 0.92714 0.28033 0.95528 0.0
H162 H 0.0649 0.15012 0.87857 0.0
H163 H 0.07647 0.11576 0.9582 0.0
H164 H 0.13255 0.25152 0.94709 0.0
C165 C 0.32766 0.06274 0.0433 0.0
C166 C 0.31669 0.10297 0.03661 0.0
N167 N 0.27517 0.09614 0.03072 0.0
N168 N 0.29325 0.03038 0.04169 0.0
C169 C 0.26121 0.05242 0.03426 0.0
H170 H 0.36027 0.05673 0.04832 0.0
Co171 Co 0.29557 0.96574 0.04608 0.0
C172 C 0.21348 1.00136 0.06213 0.0
O173 O 0.23319 0.0421 0.06484 0.0
N174 N 0.29777 0.90227 0.05041 0.0
C175 C 0.30549 0.82405 0.05098 0.0
C176 C 0.3087 0.8638 0.04349 0.0
C177 C 0.28872 0.88549 0.06197 0.0
N178 N 0.29323 0.83817 0.0626 0.0
O179 O 0.33554 0.97951 0.06046 0.0
H180 H 0.31838 0.86465 0.03367 0.0
H181 H 0.27876 0.90775 0.0698 0.0
O182 O 0.23596 0.97145 0.05542 0.0
C183 C 0.37714 0.96713 0.05696 0.0
O184 O 0.38255 0.95292 0.0453 0.0
N185 N 0.26241 0.94997 0.03156 0.0
C186 C 0.22595 0.91528 0.00927 0.0
C187 C 0.20156 0.90879 0.02057 0.0
C188 C 0.2205 0.9263 0.03165 0.0
C189 C 0.2862 0.95735 0.0206 0.0
C190 C 0.26812 0.94089 0.00924 0.0
H191 H 0.20296 0.91804 0.04033 0.0
H192 H 0.32014 0.97483 0.02076 0.0
H193 H 0.23019 0.03508 0.03057 0.0
H194 H 0.33907 0.13371 0.03559 0.0
H195 H 0.3125 0.78788 0.04819 0.0
H196 H 0.16909 0.88862 0.02088 0.0
H197 H 0.28812 0.94578 0.00067 0.0
C198 C 0.03264 0.63805 0.94752 0.0
C199 C 0.07326 0.6577 0.95231 0.0
N200 N 0.06839 0.70509 0.95198 0.0
N201 N 1.00251 0.67307 0.94427 0.0
C202 C 0.02519 0.7134 0.94723 0.0
H203 H 0.02522 0.60068 0.94673 0.0
Co204 Co 0.94171 0.66735 0.93808 0.0
C205 C 0.98704 0.73938 0.92007 0.0
O206 O 0.02911 0.71965 0.91985 0.0
N207 N 0.881 0.6613 0.93195 0.0
C208 C 0.80309 0.65712 0.93003 0.0
C209 C 0.84015 0.65757 0.9384 0.0
C210 C 0.86835 0.66172 0.91978 0.0
N211 N 0.82125 0.65931 0.91837 0.0
O212 O 0.96247 0.61676 0.92687 0.0
H213 H 0.83747 0.65678 0.94853 0.0
H214 H 0.8931 0.66573 0.91211 0.0
O215 O 0.95331 0.71877 0.92586 0.0
C216 C 0.94736 0.57706 0.93107 0.0
O217 O 0.92254 0.57707 0.9415 0.0
N218 N 0.92012 0.71307 0.94963 0.0
C219 C 0.88285 0.77571 0.96736 0.0
C220 C 0.88116 0.78616 0.95449 0.0
C221 C 0.89875 0.754 0.94582 0.0
C222 C 0.92328 0.7025 0.9621 0.0
C223 C 0.90486 0.7334 0.97116 0.0
H224 H 0.89325 0.76148 0.93602 0.0
H225 H 0.93919 0.6694 0.96501 0.0
H226 H 0.00963 0.74829 0.9463 0.0
H227 H 0.10362 0.63872 0.95593 0.0
H228 H 0.76583 0.65617 0.93229 0.0
H229 H 0.86524 0.81855 0.95104 0.0
H230 H 0.90641 0.72339 0.98096 0.0
C231 C 0.7135 1.00322 0.0507 0.0
C232 C 0.71255 0.97856 0.0397 0.0
N233 N 0.757 0.96515 0.03687 0.0
N234 N 0.7581 1.0049 0.05504 0.0
C235 C 0.78407 0.98104 0.04644 0.0
H236 H 0.68364 0.02057 0.05505 0.0
Co237 Co 0.77067 0.04152 0.06899 0.0
C238 C 0.87128 0.03048 0.07606 0.0
O239 O 0.8684 0.07601 0.07843 0.0
N240 N 0.78009 0.07868 0.08335 0.0
C241 C 0.78662 0.09495 0.10367 0.0
C242 C 0.78906 0.06001 0.0948 0.0
C243 C 0.7721 0.12513 0.08553 0.0
N244 N 0.77571 0.13575 0.09783 0.0
O245 O 0.7334 0.99749 0.07899 0.0
H246 H 0.79555 0.02288 0.09661 0.0
H247 H 0.76112 0.1502 0.07844 0.0
O248 O 0.8339 0.00868 0.07214 0.0
C249 C 0.69372 0.01758 0.08146 0.0
O250 O 0.68817 0.06226 0.07835 0.0
N251 N 0.79917 0.08608 0.05824 0.0
C252 C 0.81354 0.13475 0.03579 0.0
C253 C 0.84804 0.1039 0.04042 0.0
C254 C 0.83961 0.07882 0.05144 0.0
C255 C 0.76667 0.11851 0.05423 0.0
C256 C 0.77303 0.14319 0.04299 0.0
H257 H 0.86324 0.04992 0.05337 0.0
H258 H 0.73316 0.12139 0.05905 0.0
H259 H 0.82212 0.97765 0.04683 0.0
H260 H 0.68145 0.97208 0.03407 0.0
H261 H 0.79157 0.09053 0.11368 0.0
H262 H 0.87891 0.09513 0.03486 0.0
H263 H 0.74515 0.16609 0.03953 0.0
C264 C 0.55852 0.7716 0.78926 0.0
C265 C 0.52388 0.7647 0.78051 0.0
N266 N 0.48165 0.76575 0.78637 0.0
N267 N 0.53851 0.77851 0.80059 0.0
C268 C 0.49184 0.77237 0.79864 0.0
H269 H 0.59606 0.77307 0.78742 0.0
Co270 Co 0.57374 0.78937 0.81503 0.0
C271 C 0.49799 0.86981 0.81863 0.0
O272 O 0.47066 0.8601 0.80905 0.0
N273 N 0.61007 0.79807 0.8293 0.0
C274 C 0.64599 0.8283 0.84597 0.0
C275 C 0.61845 0.83845 0.83568 0.0
C276 C 0.63367 0.76424 0.83566 0.0
N277 N 0.65543 0.7816 0.84588 0.0
O278 O 0.53922 0.73828 0.82342 0.0
H279 H 0.60567 0.87309 0.833 0.0
H280 H 0.63423 0.72734 0.83301 0.0
O281 O 0.53218 0.84179 0.82146 0.0
C282 C 0.5559 0.69815 0.81988 0.0
O283 O 0.59107 0.69841 0.81182 0.0
N284 N 0.60945 0.83586 0.80645 0.0
C285 C 0.66178 0.9 0.79222 0.0
C286 C 0.61263 0.90363 0.79292 0.0
C287 C 0.58726 0.87094 0.79986 0.0
C288 C 0.65747 0.83152 0.8059 0.0
C289 C 0.68446 0.86332 0.7988 0.0
H290 H 0.54953 0.87221 0.79912 0.0
H291 H 0.67485 0.80258 0.81071 0.0
H292 H 0.46582 0.77345 0.80607 0.0
H293 H 0.52955 0.76208 0.77049 0.0
H294 H 0.65846 0.85327 0.85291 0.0
H295 H 0.59342 0.92988 0.78751 0.0
H296 H 0.72241 0.8588 0.79826 0.0
C297 C 0.73513 0.61356 0.18006 0.0
C298 C 0.75101 0.65094 0.18714 0.0
N299 N 0.79331 0.63906 0.19198 0.0
N300 N 0.76743 0.57835 0.1804 0.0
C301 C 0.8029 0.59552 0.18751 0.0
H302 H 0.70061 0.61113 0.17582 0.0
Co303 Co 0.76019 0.51577 0.17518 0.0
C304 C 0.85258 0.49099 0.16176 0.0
O305 O 0.84173 0.44593 0.16139 0.0
N306 N 0.75153 0.45293 0.16999 0.0
C307 C 0.73986 0.3753 0.16927 0.0
C308 C 0.74616 0.41357 0.17703 0.0
C309 C 0.74645 0.43785 0.15804 0.0
N310 N 0.74037 0.39062 0.15728 0.0
O311 O 0.72488 0.53708 0.16057 0.0
H312 H 0.74712 0.41232 0.18716 0.0
H313 H 0.74877 0.46119 0.15002 0.0
O314 O 0.82332 0.5207 0.16661 0.0
C315 C 0.6815 0.52953 0.16336 0.0
O316 O 0.67153 0.51258 0.17454 0.0
N317 N 0.78778 0.49491 0.19026 0.0
C318 C 0.81018 0.46124 0.21416 0.0
C319 C 0.8429 0.4578 0.20429 0.0
C320 C 0.83102 0.47483 0.19237 0.0
C321 C 0.75635 0.50005 0.19986 0.0
C322 C 0.76687 0.48373 0.21188 0.0
H323 H 0.8563 0.47054 0.18496 0.0
H324 H 0.72229 0.51611 0.19805 0.0
H325 H 0.83366 0.57508 0.1902 0.0
H326 H 0.73097 0.68235 0.18954 0.0
H327 H 0.73672 0.3389 0.1723 0.0
H328 H 0.87662 0.44028 0.20561 0.0
H329 H 0.74085 0.48782 0.21925 0.0
C330 C 0.50293 0.36478 0.79615 0.0
C331 C 0.53726 0.37217 0.78726 0.0
N332 N 0.56465 0.33314 0.78664 0.0
N333 N 0.50871 0.32142 0.80121 0.0
C334 C 0.54714 0.3034 0.79542 0.0
H335 H 0.4735 0.38809 0.79809 0.0
Co336 Co 0.46417 0.29188 0.81127 0.0
C337 C 0.51612 0.21844 0.82559 0.0
O338 O 0.50647 0.24166 0.83596 0.0
N339 N 0.41844 0.2614 0.82128 0.0
C340 C 0.37423 0.20236 0.82844 0.0
C341 C 0.4076 0.21517 0.81986 0.0
C342 C 0.39047 0.27598 0.83085 0.0
N343 N 0.36301 0.24063 0.83534 0.0
O344 O 0.48596 0.33072 0.82513 0.0
H345 H 0.42344 0.19169 0.81305 0.0
H346 H 0.38979 0.3117 0.83443 0.0
O347 O 0.50679 0.2379 0.81501 0.0
C348 C 0.46094 0.36863 0.82542 0.0
O349 O 0.42268 0.37048 0.81845 0.0
N350 N 0.44111 0.26068 0.79709 0.0
C351 C 0.40356 0.23174 0.7742 0.0
C352 C 0.44635 0.21271 0.77858 0.0
C353 C 0.46468 0.22778 0.79007 0.0
C354 C 0.39905 0.27865 0.79314 0.0
C355 C 0.3794 0.26439 0.78179 0.0
H356 H 0.49859 0.2143 0.79299 0.0
H357 H 0.38126 0.3052 0.79873 0.0
H358 H 0.56006 0.26787 0.797 0.0
H359 H 0.53897 0.40212 0.78093 0.0
H360 H 0.35997 0.16715 0.82956 0.0
H361 H 0.46644 0.18782 0.77297 0.0
H362 H 0.34583 0.27934 0.77892 0.0
C363 C 0.33272 0.53609 0.18619 0.0
C364 C 0.32618 0.49452 0.19268 0.0
N365 N 0.27977 0.48425 0.19249 0.0
N366 N 0.29066 0.55161 0.1819 0.0
C367 C 0.25908 0.51928 0.18586 0.0
H368 H 0.36585 0.55443 0.18495 0.0
Co369 Co 0.28113 0.60697 0.17311 0.0
C370 C 0.18172 0.60466 0.16402 0.0
O371 O 0.18007 0.65023 0.16643 0.0
N372 N 0.27269 0.66315 0.16394 0.0
C373 C 0.2687 0.73661 0.1565 0.0
C374 C 0.27401 0.70939 0.16714 0.0
C375 C 0.26682 0.66337 0.15138 0.0
N376 N 0.26415 0.70739 0.14659 0.0
O377 O 0.32068 0.58195 0.15969 0.0
H378 H 0.27935 0.72298 0.17649 0.0
H379 H 0.26578 0.63143 0.1458 0.0
O380 O 0.22055 0.58173 0.16587 0.0
C381 C 0.36072 0.60256 0.16091 0.0
O382 O 0.36434 0.63562 0.16952 0.0
N383 N 0.25026 0.6321 0.18723 0.0
C384 C 0.22376 0.67172 0.21019 0.0
C385 C 0.19251 0.64254 0.20353 0.0
C386 C 0.20692 0.62196 0.19222 0.0
C387 C 0.28189 0.65771 0.194 0.0
C388 C 0.26942 0.67809 0.2054 0.0
H389 H 0.18343 0.59721 0.18779 0.0
H390 H 0.31739 0.66229 0.19046 0.0
H391 H 0.22152 0.52161 0.18411 0.0
H392 H 0.35309 0.47459 0.19762 0.0
H393 H 0.26868 0.77488 0.1561 0.0
H394 H 0.15722 0.63558 0.20696 0.0
H395 H 0.29569 0.69826 0.21045 0.0
C396 C 0.53824 0.79823 0.44064 0.0
C397 C 0.51694 0.80938 0.45182 0.0
N398 N 0.47846 0.78197 0.45312 0.0
N399 N 0.51317 0.76424 0.43482 0.0
C400 C 0.47686 0.75492 0.44267 0.0
H401 H 0.5711 0.81267 0.4372 0.0
Co402 Co 0.53243 0.73733 0.41974 0.0
C403 C 0.46207 0.66054 0.41329 0.0
O404 O 0.45683 0.67642 0.40177 0.0
N405 N 0.55342 0.71095 0.4046 0.0
C406 C 0.581 0.66009 0.39042 0.0
C407 C 0.56153 0.66466 0.40216 0.0
C408 C 0.56955 0.7338 0.39433 0.0
N409 N 0.58619 0.70368 0.38556 0.0
O410 O 0.49061 0.78145 0.41091 0.0
H411 H 0.55589 0.63609 0.40875 0.0
H412 H 0.57147 0.77184 0.39348 0.0
O413 O 0.48516 0.68551 0.42122 0.0
C414 C 0.51316 0.82073 0.41006 0.0
O415 O 0.55788 0.82073 0.41337 0.0
N416 N 0.5757 0.70005 0.42861 0.0
C417 C 0.64396 0.65763 0.44375 0.0
C418 C 0.59584 0.64881 0.44572 0.0
C419 C 0.56229 0.67081 0.43816 0.0
C420 C 0.62232 0.70854 0.42637 0.0
C421 C 0.65718 0.68734 0.43379 0.0
H422 H 0.52557 0.66615 0.44045 0.0
H423 H 0.63239 0.73315 0.41907 0.0
H424 H 0.45064 0.72792 0.44096 0.0
H425 H 0.53029 0.83378 0.45878 0.0
H426 H 0.59384 0.62767 0.3862 0.0
H427 H 0.58404 0.62591 0.45325 0.0
H428 H 0.69392 0.69566 0.43206 0.0
C429 C 0.85001 0.45169 0.52436 0.0
C430 C 0.85477 0.4805 0.51408 0.0
N431 N 0.8131 0.50228 0.51198 0.0
N432 N 0.80572 0.45547 0.5289 0.0
C433 C 0.7842 0.48698 0.52125 0.0
H434 H 0.8767 0.42775 0.52789 0.0
Co435 Co 0.78194 0.41703 0.54159 0.0
C436 C 0.70144 0.47063 0.55328 0.0
O437 O 0.7232 0.47116 0.56416 0.0
N438 N 0.75787 0.37766 0.55442 0.0
C439 C 0.70875 0.33179 0.56524 0.0
C440 C 0.71822 0.35124 0.55374 0.0
C441 C 0.77141 0.37388 0.56656 0.0
N442 N 0.74204 0.34639 0.57337 0.0
O443 O 0.81944 0.45303 0.55357 0.0
H444 H 0.69604 0.34757 0.54555 0.0
H445 H 0.80067 0.39291 0.57057 0.0
O446 O 0.72363 0.45578 0.54354 0.0
C447 C 0.8595 0.43169 0.5543 0.0
O448 O 0.86294 0.38946 0.54921 0.0
N449 N 0.75229 0.38011 0.5293 0.0
C450 C 0.71771 0.32118 0.51039 0.0
C451 C 0.69692 0.36548 0.51276 0.0
C452 C 0.71532 0.39474 0.52204 0.0
C453 C 0.77345 0.33755 0.5271 0.0
C454 C 0.75673 0.30746 0.5177 0.0
H455 H 0.70012 0.4294 0.52315 0.0
H456 H 0.80377 0.32712 0.53264 0.0
H457 H 0.74726 0.49624 0.522 0.0
H458 H 0.88616 0.48358 0.50835 0.0
H459 H 0.67912 0.30915 0.56741 0.0
H460 H 0.66648 0.37775 0.50752 0.0
H461 H 0.77477 0.27419 0.51609 0.0
C462 C 0.45089 0.15267 0.44017 0.0
C463 C 0.48902 0.14391 0.44782 0.0
N464 N 0.52032 0.17941 0.44638 0.0
N465 N 0.45796 0.19349 0.43394 0.0
C466 C 0.5009 0.20844 0.43768 0.0
H467 H 0.41878 0.13213 0.43974 0.0
Co468 Co 0.41222 0.22327 0.42426 0.0
C469 C 0.45652 0.30898 0.41224 0.0
O470 O 0.44338 0.29513 0.40101 0.0
N471 N 0.36534 0.25383 0.41446 0.0
C472 C 0.31938 0.31172 0.40708 0.0
C473 C 0.34476 0.29591 0.41721 0.0
C474 C 0.3514 0.2449 0.40255 0.0
N475 N 0.32399 0.27977 0.39783 0.0
O476 O 0.43571 0.18742 0.41003 0.0
H477 H 0.35049 0.31597 0.4257 0.0
H478 H 0.36435 0.21572 0.39698 0.0
O479 O 0.45236 0.28031 0.42153 0.0
C480 C 0.41032 0.14982 0.40996 0.0
O481 O 0.37229 0.14908 0.41704 0.0
N482 N 0.38798 0.25067 0.43881 0.0
C483 C 0.35146 0.27862 0.46178 0.0
C484 C 0.39679 0.29255 0.45815 0.0
C485 C 0.41447 0.27817 0.44661 0.0
C486 C 0.34395 0.23619 0.44229 0.0
C487 C 0.32447 0.25068 0.4537 0.0
H488 H 0.45017 0.28757 0.44423 0.0
H489 H 0.32413 0.21296 0.43621 0.0
H490 H 0.51637 0.24139 0.43461 0.0
H491 H 0.49159 0.11546 0.45459 0.0
H492 H 0.30092 0.34522 0.40638 0.0
H493 H 0.4185 0.31409 0.46425 0.0
H494 H 0.28937 0.23918 0.45634 0.0
C495 C 0.2413 0.56354 0.53202 0.0
C496 C 0.24158 0.53046 0.52255 0.0
N497 N 0.25849 0.48938 0.52724 0.0
N498 N 0.25851 0.54338 0.54253 0.0
C499 C 0.26791 0.49825 0.53941 0.0
H500 H 0.23005 0.60004 0.53126 0.0
Co501 Co 0.26673 0.57021 0.55805 0.0
C502 C 0.36242 0.53935 0.56677 0.0
O503 O 0.36538 0.5812 0.57206 0.0
N504 N 0.27299 0.59608 0.57416 0.0
C505 C 0.27295 0.59435 0.59503 0.0
C506 C 0.2761 0.56771 0.58436 0.0
C507 C 0.26725 0.64006 0.57894 0.0
N508 N 0.26711 0.63978 0.59161 0.0
O509 O 0.21907 0.52707 0.56466 0.0
H510 H 0.27905 0.52956 0.58404 0.0
H511 H 0.26038 0.67133 0.57341 0.0
O512 O 0.32324 0.52731 0.56143 0.0
C513 C 0.18075 0.55145 0.56465 0.0
O514 O 0.18308 0.59597 0.56112 0.0
N515 N 0.3071 0.61538 0.55053 0.0
C516 C 0.34464 0.67588 0.5323 0.0
C517 C 0.36583 0.63214 0.53486 0.0
C518 C 0.34578 0.60196 0.54366 0.0
C519 C 0.2872 0.65882 0.54851 0.0
C520 C 0.30581 0.68997 0.53957 0.0
H521 H 0.35847 0.56605 0.54372 0.0
H522 H 0.25362 0.66735 0.55275 0.0
H523 H 0.28126 0.47239 0.54601 0.0
H524 H 0.23149 0.53676 0.51289 0.0
H525 H 0.27389 0.58119 0.60458 0.0
H526 H 0.39555 0.6196 0.52936 0.0
H527 H 0.28746 0.72285 0.5376 0.0
H528 H 0.09677 0.38548 0.24154 0.0
H529 H 0.19156 0.26531 0.24588 0.0
H530 H 0.23659 0.29147 0.22746 0.0
H531 H 0.10256 0.3936 0.20652 0.0
H532 H 0.10261 0.45738 0.20688 0.0
H533 H 0.07206 0.42456 0.21891 0.0
H534 H 0.12031 0.46819 0.23599 0.0
H535 H 0.15099 0.50095 0.22405 0.0
H536 H 0.18394 0.46664 0.23534 0.0
H537 H 0.2786 0.33608 0.21093 0.0
H538 H 0.31412 0.39661 0.19711 0.0
H539 H 0.19415 0.48896 0.20375 0.0
C540 C 0.12651 0.36422 0.2385 0.0
C541 C 0.14021 0.32303 0.24512 0.0
C542 C 0.17947 0.2963 0.24082 0.0
C543 C 0.20551 0.31097 0.23037 0.0
C544 C 0.19186 0.35238 0.22428 0.0
C545 C 0.15315 0.37855 0.22813 0.0
C546 C 0.14907 0.42432 0.22079 0.0
C547 C 0.10389 0.42498 0.2128 0.0
C548 C 0.15124 0.46755 0.22957 0.0
C549 C 0.19275 0.42065 0.21265 0.0
C550 C 0.21649 0.37852 0.21466 0.0
C551 C 0.25993 0.36882 0.20906 0.0
C552 C 0.27999 0.40343 0.20132 0.0
C553 C 0.25667 0.44712 0.19931 0.0
C554 C 0.21209 0.45534 0.20486 0.0
H555 H 0.45896 0.73809 0.76277 0.0
H556 H 0.40193 0.80703 0.79586 0.0
H557 H 0.3335 0.83399 0.78358 0.0
H558 H 0.44095 0.82905 0.74362 0.0
H559 H 0.42604 0.79605 0.72972 0.0
H560 H 0.46236 0.76937 0.74159 0.0
H561 H 0.40387 0.69943 0.74364 0.0
H562 H 0.36753 0.72552 0.73156 0.0
H563 H 0.34225 0.71117 0.74661 0.0
H564 H 0.28102 0.86809 0.76696 0.0
H565 H 0.24908 0.90458 0.74757 0.0
H566 H 0.34354 0.81799 0.72523 0.0
C567 C 0.4315 0.75769 0.76755 0.0
C568 C 0.4364 0.77076 0.78027 0.0
C569 C 0.39922 0.79611 0.78617 0.0
C570 C 0.36004 0.81174 0.77924 0.0
C571 C 0.35828 0.80132 0.76647 0.0
C572 C 0.39281 0.77426 0.76072 0.0
C573 C 0.38719 0.77427 0.7466 0.0
C574 C 0.43176 0.79334 0.74001 0.0
C575 C 0.37443 0.72464 0.74182 0.0
C576 C 0.34602 0.808 0.74525 0.0
C577 C 0.32882 0.82216 0.7568 0.0
C578 C 0.29343 0.8564 0.75786 0.0
C579 C 0.27561 0.87701 0.74684 0.0
C580 C 0.29402 0.86394 0.73499 0.0
C581 C 0.32892 0.82842 0.73421 0.0
H582 H 0.82957 0.595 0.2124 0.0
H583 H 0.80395 0.73284 0.19581 0.0
H584 H 0.83259 0.77115 0.21527 0.0
H585 H 0.78773 0.62279 0.24211 0.0
H586 H 0.83043 0.58795 0.25066 0.0
H587 H 0.81416 0.57131 0.23496 0.0
H588 H 0.90165 0.57389 0.22807 0.0
H589 H 0.91852 0.58991 0.2438 0.0
H590 H 0.93578 0.6267 0.23075 0.0
H591 H 0.85912 0.7938 0.23678 0.0
H592 H 0.88206 0.80034 0.25896 0.0
H593 H 0.88589 0.64696 0.26196 0.0
C594 C 0.83149 0.63324 0.21272 0.0
C595 C 0.81541 0.66122 0.20256 0.0
C596 C 0.81658 0.71109 0.20349 0.0
C597 C 0.83278 0.73298 0.21447 0.0
C598 C 0.84736 0.70434 0.22442 0.0
C599 C 0.84703 0.65554 0.22364 0.0
C600 C 0.86104 0.63286 0.23599 0.0
C601 C 0.82093 0.60193 0.24123 0.0
C602 C 0.90699 0.60417 0.23456 0.0
C603 C 0.86854 0.67662 0.24392 0.0
C604 C 0.86095 0.7174 0.23701 0.0
C605 C 0.8651 0.76216 0.2423 0.0
C606 C 0.87756 0.76543 0.25498 0.0
C607 C 0.88517 0.72416 0.26232 0.0
C608 C 0.88061 0.67921 0.25663 0.0
H609 H 0.58262 0.24523 0.77738 0.0
H610 H 0.61624 0.3938 0.77236 0.0
H611 H 0.65851 0.3744 0.75272 0.0
H612 H 0.69509 0.19737 0.76423 0.0
H613 H 0.66463 0.14825 0.75717 0.0
H614 H 0.64289 0.17357 0.77157 0.0
H615 H 0.56121 0.18649 0.76112 0.0
H616 H 0.58292 0.16213 0.74664 0.0
H617 H 0.55733 0.22062 0.74684 0.0
H618 H 0.68777 0.3397 0.73226 0.0
H619 H 0.70552 0.29204 0.71338 0.0
H620 H 0.65623 0.16613 0.73274 0.0
C621 C 0.6003 0.27364 0.77248 0.0
C622 C 0.59612 0.32113 0.77648 0.0
C623 C 0.61869 0.35721 0.76945 0.0
C624 C 0.64294 0.3465 0.75831 0.0
C625 C 0.64482 0.29947 0.75442 0.0
C626 C 0.62472 0.26356 0.76142 0.0
C627 C 0.62873 0.21637 0.75483 0.0
C628 C 0.6597 0.18187 0.7624 0.0
C629 C 0.57964 0.1952 0.7522 0.0
C630 C 0.6529 0.23155 0.74284 0.0
C631 C 0.66218 0.27951 0.74277 0.0
C632 C 0.68152 0.30194 0.7323 0.0
C633 C 0.69154 0.27457 0.72163 0.0
C634 C 0.68209 0.22534 0.72151 0.0
C635 C 0.66321 0.20376 0.73238 0.0
H636 H 0.18413 0.0975 0.02251 0.0
H637 H 0.32333 0.15495 0.01503 0.0
H638 H 0.29365 0.19113 -0.00445 0.0
H639 H 0.16046 0.06345 -0.00791 0.0
H640 H 0.09846 0.0781 -0.00769 0.0
H641 H 0.12823 0.06298 0.00668 0.0
H642 H 0.10176 0.14251 0.01658 0.0
H643 H 0.07138 0.15766 0.00226 0.0
H644 H 0.11495 0.19727 0.00863 0.0
H645 H 0.25212 0.21116 0.97537 0.0
H646 H 0.20072 0.21656 0.9567 0.0
H647 H 0.08783 0.14872 0.97762 0.0
C648 C 0.20817 0.11844 0.01692 0.0
C649 C 0.25608 0.12336 0.0204 0.0
C650 C 0.28631 0.15116 0.01276 0.0
C651 C 0.26983 0.17173 0.0016 0.0
C652 C 0.22287 0.16472 -0.00177 0.0
C653 C 0.19226 0.1393 0.00575 0.0
C654 C 0.14441 0.13406 -0.00043 0.0
C655 C 0.13221 0.08154 -0.00246 0.0
C656 C 0.10585 0.1594 0.00722 0.0
C657 C 0.15346 0.15909 0.98723 0.0
C658 C 0.19877 0.17682 0.98665 0.0
C659 C 0.2162 0.19829 0.9758 0.0
C660 C 0.18664 0.20134 0.96524 0.0
C661 C 0.14012 0.18299 0.96559 0.0
C662 C 0.12333 0.16252 0.97688 0.0
H663 H 0.12059 0.6968 0.97299 0.0
H664 H 0.08422 0.79279 0.94276 0.0
H665 H 0.12965 0.85656 0.95311 0.0
H666 H 0.10311 0.77662 -0.00334 0.0
H667 H 0.15046 0.75602 0.00659 0.0
H668 H 0.12288 0.716 -0.00423 0.0
H669 H 0.20417 0.69719 0.98568 0.0
H670 H 0.2322 0.73688 -0.00341 0.0
H671 H 0.24039 0.74493 0.97995 0.0
H672 H 0.17207 0.91159 0.96786 0.0
H673 H 0.20526 0.9538 0.98629 0.0
H674 H 0.21025 0.82163 0.00693 0.0
C675 C 0.1237 0.73074 0.96835 0.0
C676 C 0.09963 0.73997 0.95705 0.0
C677 C 0.10276 0.78528 0.95143 0.0
C678 C 0.1286 0.82147 0.95718 0.0
C679 C 0.15092 0.8116 0.96854 0.0
C680 C 0.14874 0.76726 0.97405 0.0
C681 C 0.17086 0.76707 0.98694 0.0
C682 C 0.13466 0.75313 -0.00292 0.0
C683 C 0.21451 0.73459 0.98731 0.0
C684 C 0.18457 0.81847 0.98798 0.0
C685 C 0.17371 0.84354 0.97721 0.0
C686 C 0.18126 0.89223 0.97629 0.0
C687 C 0.19997 0.91588 0.98674 0.0
C688 C 0.20983 0.89072 -0.00208 0.0
C689 C 0.2027 0.84148 -0.00155 0.0
H690 H 0.9093 0.79795 -0.00821 0.0
H691 H 0.80036 0.82439 0.96383 0.0
H692 H 0.76108 0.87938 0.97819 0.0
H693 H 0.82876 0.79639 0.01802 0.0
H694 H 0.86914 0.82442 0.02874 0.0
H695 H 0.89158 0.78918 0.01598 0.0
H696 H 0.94152 0.8603 0.00834 0.0
H697 H 0.91897 0.89585 0.02105 0.0
H698 H 0.91281 0.91601 0.00507 0.0
H699 H 0.73327 0.93124 -0.00506 0.0
H700 H 0.71315 0.97254 0.0144 0.0
H701 H 0.83481 0.90922 0.03284 0.0
C702 C 0.87714 0.81519 0.98869 0.0
C703 C 0.85881 0.80758 0.97648 0.0
C704 C 0.81637 0.83076 0.9729 0.0
C705 C 0.79344 0.86192 0.98103 0.0
C706 C 0.81275 0.86914 -0.00715 0.0
C707 C 0.85318 0.84614 -0.00319 0.0
C708 C 0.86453 0.85877 0.01034 0.0
C709 C 0.86342 0.81455 0.01877 0.0
C710 C 0.9123 0.88425 0.01125 0.0
C711 C 0.82386 0.89213 0.0133 0.0
C712 C 0.79497 0.89783 0.00296 0.0
C713 C 0.75522 0.9267 0.00317 0.0
C714 C 0.74388 0.94972 0.01434 0.0
C715 C 0.77172 0.94335 0.02528 0.0
C716 C 0.81281 0.91474 0.02466 0.0
H717 H 0.887 0.17998 0.02436 0.0
H718 H 0.74818 0.12128 0.01747 0.0
H719 H 0.75936 0.13262 -0.00537 0.0
H720 H 0.88253 0.26934 -0.00089 0.0
H721 H 0.94442 0.26234 -0.00444 0.0
H722 H 0.92341 0.25257 0.01131 0.0
H723 H 0.96106 0.16883 0.01102 0.0
H724 H 0.98117 0.17785 -0.00483 0.0
H725 H 0.94454 0.1277 -0.00111 0.0
H726 H 0.78971 0.14248 0.97241 0.0
H727 H 0.83255 0.16177 0.95264 0.0
H728 H 0.94925 0.21662 0.97433 0.0
C729 C 0.85857 0.1707 0.01803 0.0
C730 C 0.81655 0.15036 0.0226 0.0
C731 C 0.78022 0.13789 0.01411 0.0
C732 C 0.78647 0.1437 0.00114 0.0
C733 C 0.82901 0.16249 -0.00311 0.0
C734 C 0.86401 0.17677 0.0051 0.0
C735 C 0.9066 0.19553 -0.00183 0.0
C736 C 0.91469 0.24807 0.00122 0.0
C737 C 0.95094 0.16568 0.00098 0.0
C738 C 0.89038 0.18895 0.98478 0.0
C739 C 0.84577 0.16938 0.98419 0.0
C740 C 0.82439 0.15841 0.97275 0.0
C741 C 0.84888 0.169 0.96163 0.0
C742 C 0.89364 0.19071 0.96214 0.0
C743 C 0.91474 0.20029 0.97382 0.0
H744 H 0.72691 0.87421 0.77454 0.0
H745 H 0.65109 0.99541 0.78942 0.0
H746 H 0.67507 0.04271 0.77104 0.0
H747 H 0.82596 0.94531 0.75929 0.0
H748 H 0.82841 0.90485 0.74624 0.0
H749 H 0.81281 0.88355 0.76165 0.0
H750 H 0.73574 0.84866 0.75249 0.0
H751 H 0.75022 0.87094 0.73715 0.0
H752 H 0.69492 0.88712 0.74438 0.0
H753 H 0.69199 0.07059 0.74943 0.0
H754 H 0.714 0.08278 0.72715 0.0
H755 H 0.78331 0.94607 0.72662 0.0
C756 C 0.71739 0.91134 0.77423 0.0
C757 C 0.68718 0.93122 0.78336 0.0
C758 C 0.67416 0.97957 0.78247 0.0
C759 C 0.68758 1.00668 0.77207 0.0
C760 C 0.71483 0.98516 0.76282 0.0
C761 C 0.73088 0.93905 0.76394 0.0
C762 C 0.75671 0.92338 0.75219 0.0
C763 C 0.80909 0.91372 0.75501 0.0
C764 C 0.73295 0.87998 0.74621 0.0
C765 C 0.75063 0.96703 0.7441 0.0
C766 C 0.72633 1.00222 0.75041 0.0
C767 C 0.71225 0.04397 0.7445 0.0
C768 C 0.72425 0.05034 0.73187 0.0
C769 C 0.75023 0.01529 0.72538 0.0
C770 C 0.76381 0.97332 0.73155 0.0
H771 H 0.8932 0.45944 0.22762 0.0
H772 H 0.74846 0.40923 0.22819 0.0
H773 H 0.76491 0.36467 0.24759 0.0
H774 H 0.94553 0.35305 0.2366 0.0
H775 H 0.99083 0.37906 0.24624 0.0
H776 H 0.96617 0.41214 0.23338 0.0
H777 H 0.94379 0.48023 0.24857 0.0
H778 H 0.96851 0.44719 0.2615 0.0
H779 H 0.9082 0.46769 0.2622 0.0
H780 H 0.7991 0.31765 0.26524 0.0
H781 H 0.84896 0.27306 0.28028 0.0
H782 H 0.97101 0.35367 0.26831 0.0
C783 C 0.86484 0.43955 0.23192 0.0
C784 C 0.81945 0.43813 0.22643 0.0
C785 C 0.78326 0.41166 0.23235 0.0
C786 C 0.79228 0.38605 0.24336 0.0
C787 C 0.83758 0.38749 0.2484 0.0
C788 C 0.87322 0.41382 0.24294 0.0
C789 C 0.91959 0.40681 0.24979 0.0
C790 C 0.95775 0.38655 0.24098 0.0
C791 C 0.93598 0.45324 0.25588 0.0
C792 C 0.90476 0.37101 0.25961 0.0
C793 C 0.85722 0.36072 0.25874 0.0
C794 C 0.83619 0.32601 0.26618 0.0
C795 C 0.86468 0.30076 0.27464 0.0
C796 C 0.91352 0.31041 0.27559 0.0
C797 C 0.93349 0.34652 0.26809 0.0
H798 H 0.31322 0.05614 0.72106 0.0
H799 H 0.24191 0.17668 0.70442 0.0
H800 H 0.2826 0.23003 0.71926 0.0
H801 H 0.30038 0.09183 0.75167 0.0
H802 H 0.35674 0.07052 0.75721 0.0
H803 H 0.32911 0.04287 0.74393 0.0
H804 H 0.40367 0.05833 0.73044 0.0
H805 H 0.43183 0.08579 0.74374 0.0
H806 H 0.42647 0.11762 0.72913 0.0
H807 H 0.32392 0.26865 0.73706 0.0
H808 H 0.36133 0.29048 0.75708 0.0
H809 H 0.40274 0.14399 0.76296 0.0
C810 C 0.30755 0.09394 0.72029 0.0
C811 C 0.27501 0.11264 0.71154 0.0
C812 C 0.26693 0.162 0.71106 0.0
C813 C 0.29004 0.19244 0.71939 0.0
C814 C 0.32096 0.1728 0.72815 0.0
C815 C 0.32986 0.1247 0.72866 0.0
C816 C 0.36051 0.11211 0.73984 0.0
C817 C 0.33515 0.0773 0.74868 0.0
C818 C 0.40847 0.0923 0.73553 0.0
C819 C 0.36591 0.16041 0.74581 0.0
C820 C 0.34364 0.19499 0.73876 0.0
C821 C 0.34176 0.24197 0.74263 0.0
C822 C 0.36267 0.2539 0.75409 0.0
C823 C 0.38458 0.21888 0.76167 0.0
C824 C 0.38681 0.17167 0.75732 0.0
H825 H 0.16416 0.63875 0.22887 0.0
H826 H 0.24951 0.75996 0.21817 0.0
H827 H 0.22689 0.80024 0.23766 0.0
H828 H 0.06861 0.7071 0.24073 0.0
H829 H 0.05481 0.66684 0.25333 0.0
H830 H 0.08172 0.64489 0.23918 0.0
H831 H 0.14965 0.60816 0.25231 0.0
H832 H 0.1231 0.63044 0.26651 0.0
H833 H 0.18331 0.64529 0.26272 0.0
H834 H 0.19237 0.82978 0.25742 0.0
H835 H 0.14264 0.84925 0.27573 0.0
H836 H 0.07617 0.71149 0.27333 0.0
C837 C 0.17815 0.67374 0.2306 0.0
C838 C 0.20937 0.69571 0.22201 0.0
C839 C 0.22673 0.74161 0.22471 0.0
C840 C 0.21394 0.76499 0.23576 0.0
C841 C 0.1834 0.74229 0.24401 0.0
C842 C 0.16529 0.69793 0.24155 0.0
C843 C 0.13018 0.68321 0.25156 0.0
C844 C 0.08092 0.67505 0.24586 0.0
C845 C 0.14762 0.63916 0.2587 0.0
C846 C 0.13087 0.72669 0.25987 0.0
C847 C 0.16235 0.75998 0.2554 0.0
C848 C 0.16777 0.80395 0.26107 0.0
C849 C 0.13933 0.81476 0.27142 0.0
C850 C 0.10573 0.78189 0.27592 0.0
C851 C 0.10225 0.73689 0.27023 0.0
H852 H 0.73714 0.5611 0.50934 0.0
H853 H 0.85815 0.50374 0.48932 0.0
H854 H 0.83152 0.54329 0.47006 0.0
H855 H 0.65573 0.5423 0.4853 0.0
H856 H 0.62216 0.59559 0.48806 0.0
H857 H 0.65381 0.568 0.50077 0.0
H858 H 0.69842 0.64634 0.505 0.0
H859 H 0.66664 0.67431 0.49234 0.0
H860 H 0.73031 0.67451 0.4924 0.0
H861 H 0.78788 0.58251 0.45239 0.0
H862 H 0.7304 0.61929 0.43784 0.0
H863 H 0.63795 0.65029 0.46932 0.0
C864 C 0.75839 0.55709 0.50097 0.0
C865 C 0.79994 0.52923 0.50099 0.0
C866 C 0.82667 0.52538 0.48975 0.0
C867 C 0.81171 0.5476 0.47867 0.0
C868 C 0.77002 0.57373 0.47895 0.0
C869 C 0.74387 0.57882 0.48982 0.0
C870 C 0.69879 0.60624 0.48743 0.0
C871 C 0.65506 0.57623 0.49058 0.0
C872 C 0.69856 0.65314 0.49473 0.0
C873 C 0.70316 0.61464 0.47345 0.0
C874 C 0.74469 0.59607 0.46874 0.0
C875 C 0.75549 0.59776 0.45598 0.0
C876 C 0.72273 0.61879 0.4478 0.0
C877 C 0.67966 0.63748 0.45243 0.0
C878 C 0.67029 0.63581 0.46546 0.0
H879 H 0.5602 0.26552 0.45093 0.0
H880 H 0.57016 0.11644 0.4606 0.0
H881 H 0.62856 0.13558 0.47697 0.0
H882 H 0.68737 0.29362 0.45668 0.0
H883 H 0.67242 0.35123 0.46277 0.0
H884 H 0.63626 0.32471 0.45079 0.0
H885 H 0.56275 0.33485 0.46503 0.0
H886 H 0.5986 0.36062 0.47713 0.0
H887 H 0.56304 0.30941 0.48056 0.0
H888 H 0.67623 0.17259 0.49433 0.0
H889 H 0.71322 0.22366 0.51025 0.0
H890 H 0.67736 0.34744 0.48789 0.0
C891 C 0.57565 0.23645 0.45612 0.0
C892 C 0.56006 0.18936 0.45445 0.0
C893 C 0.58083 0.15288 0.46178 0.0
C894 C 0.61435 0.16335 0.47106 0.0
C895 C 0.62748 0.21038 0.47274 0.0
C896 C 0.60941 0.24621 0.4653 0.0
C897 C 0.6268 0.2942 0.46952 0.0
C898 C 0.65755 0.31729 0.45933 0.0
C899 C 0.58533 0.32664 0.47328 0.0
C900 C 0.65598 0.27994 0.4808 0.0
C901 C 0.65622 0.23147 0.48248 0.0
C902 C 0.67736 0.21051 0.49292 0.0
C903 C 0.69849 0.23991 0.50191 0.0
C904 C 0.6985 0.28981 0.50039 0.0
C905 C 0.67771 0.30962 0.4895 0.0
H906 H 0.22105 0.46141 0.50493 0.0
H907 H 0.32087 0.42034 0.53396 0.0
H908 H 0.3442 0.35132 0.52152 0.0
H909 H 0.19094 0.33853 0.49402 0.0
H910 H 0.18906 0.35723 0.47784 0.0
H911 H 0.17244 0.39787 0.49012 0.0
H912 H 0.23409 0.45821 0.48197 0.0
H913 H 0.25077 0.41794 0.4697 0.0
H914 H 0.29491 0.44006 0.48036 0.0
H915 H 0.36743 0.29622 0.5048 0.0
H916 H 0.38904 0.2591 0.4846 0.0
H917 H 0.2752 0.33467 0.46616 0.0
C918 C 0.24714 0.43748 0.50879 0.0
C919 C 0.26869 0.4464 0.5205 0.0
C920 C 0.30289 0.41408 0.52517 0.0
C921 C 0.31652 0.37458 0.51815 0.0
C922 C 0.29546 0.36757 0.50652 0.0
C923 C 0.26132 0.39795 0.50187 0.0
C924 C 0.24859 0.38582 0.48846 0.0
C925 C 0.1972 0.36884 0.48756 0.0
C926 C 0.25767 0.428 0.47961 0.0
C927 C 0.28288 0.34564 0.48608 0.0
C928 C 0.30888 0.33504 0.49672 0.0
C929 C 0.34649 0.30315 0.4965 0.0
C930 C 0.35861 0.28239 0.48503 0.0
C931 C 0.33311 0.2937 0.47402 0.0
C932 C 0.29407 0.32459 0.4746 0.0
H933 H 0.36378 0.64035 0.50908 0.0
H934 H 0.35726 0.77212 0.52987 0.0
H935 H 0.38364 0.81551 0.51087 0.0
H936 H 0.46859 0.66493 0.49271 0.0
H937 H 0.45025 0.63602 0.47847 0.0
H938 H 0.42699 0.61682 0.49333 0.0
H939 H 0.34179 0.62994 0.48507 0.0
H940 H 0.36488 0.64955 0.47019 0.0
H941 H 0.32507 0.68704 0.4789 0.0
H942 H 0.4171 0.84289 0.49004 0.0
H943 H 0.45547 0.8521 0.46932 0.0
H944 H 0.43997 0.70175 0.46255 0.0
C945 C 0.368 0.67836 0.50968 0.0
C946 C 0.35906 0.7029 0.52099 0.0
C947 C 0.36393 0.75272 0.52129 0.0
C948 C 0.37884 0.77755 0.51056 0.0
C949 C 0.38809 0.75199 0.49962 0.0
C950 C 0.38269 0.70348 0.49912 0.0
C951 C 0.39704 0.68376 0.48649 0.0
C952 C 0.43816 0.64831 0.48784 0.0
C953 C 0.35466 0.66126 0.47977 0.0
C954 C 0.41254 0.72864 0.47998 0.0
C955 C 0.40674 0.76771 0.48765 0.0
C956 C 0.42129 0.81262 0.48392 0.0
C957 C 0.44316 0.81749 0.47218 0.0
C958 C 0.45037 0.77769 0.46432 0.0
C959 C 0.43391 0.73296 0.46821 0.0
H960 H 0.11042 0.08624 0.30523 0.0
H961 H 0.01101 0.16319 0.32856 0.0
H962 H 0.98891 0.08777 0.33901 0.0
H963 H 0.03921 0.99227 0.29897 0.0
H964 H 0.08537 0.94819 0.29896 0.0
H965 H 0.09912 0.00859 0.29524 0.0
H966 H 0.16193 0.00939 0.31295 0.0
H967 H 0.14799 0.94882 0.31676 0.0
H968 H 0.14504 0.99375 0.32873 0.0
H969 H 0.96808 1.00234 0.34405 0.0
H970 H 0.94901 0.9172 0.34277 0.0
H971 H 0.06349 0.89627 0.31646 0.0
C972 C 0.08483 0.08766 0.31278 0.0
C973 C 0.06255 0.13086 0.31611 0.0
C974 C 0.02897 0.13078 0.32594 0.0
C975 C 0.01626 0.08801 0.33192 0.0
C976 C 0.03796 0.04579 0.32807 0.0
C977 C 0.07191 0.04556 0.31877 0.0
C978 C 0.08642 0.99549 0.31529 0.0
C979 C 0.07693 0.98558 0.30129 0.0
C980 C 0.13844 0.98633 0.31864 0.0
C981 C 0.05384 0.96709 0.32368 0.0
C982 C 0.02669 0.99672 0.33115 0.0
C983 C 0.99012 0.97892 0.33853 0.0
C984 C 0.97975 0.93037 0.33783 0.0
C985 C 1.00588 0.89985 0.32987 0.0
C986 C 0.04451 0.91827 0.32309 0.0
H987 H 0.10012 0.05329 0.67088 0.0
H988 H 0.08659 0.90345 0.66362 0.0
H989 H 1.00294 0.91493 0.65776 0.0
H990 H 0.99725 0.06635 0.68595 0.0
H991 H 0.98127 0.12397 0.68001 0.0
H992 H 0.04229 0.10657 0.68059 0.0
H993 H 0.05117 0.12277 0.65677 0.0
H994 H 0.99018 0.14118 0.65614 0.0
H995 H 0.01124 0.09508 0.64587 0.0
H996 H 0.9166 0.94001 0.65739 0.0
H997 H 0.83835 0.97834 0.66049 0.0
H998 H 0.90885 0.11205 0.66717 0.0
C999 C 0.0803 0.02359 0.66725 0.0
C1000 C 0.10024 0.97775 0.66726 0.0
C1001 C 0.07234 0.93908 0.66326 0.0
C1002 C 0.02461 0.94522 0.66002 0.0
C1003 C 1.00505 0.99046 0.66076 0.0
C1004 C 0.03238 0.02924 0.66398 0.0
C1005 C 1.00181 0.07304 0.66545 0.0
C1006 C 1.00591 0.09365 0.67879 0.0
C1007 C 0.01434 0.11022 0.65546 0.0
C1008 C 0.95312 0.05246 0.66314 0.0
C1009 C 0.95548 1.00486 0.66036 0.0
C1010 C 0.91443 0.97762 0.6592 0.0
C1011 C 0.87004 0.99959 0.661 0.0
C1012 C 0.86703 0.04835 0.66391 0.0
C1013 C 0.9094 0.07489 0.66472 0.0
H1014 H 0.88325 0.50779 0.9276 0.0
H1015 H 0.03038 0.54116 0.92113 0.0
H1016 H 0.04491 0.45786 0.91447 0.0
H1017 H 0.89919 0.39349 0.94009 0.0
H1018 H 0.84785 0.36868 0.93262 0.0
H1019 H 0.84936 0.4308 0.93632 0.0
H1020 H 0.83242 0.45206 0.91306 0.0
H1021 H 0.82988 0.38997 0.90935 0.0
H1022 H 0.86981 0.42808 0.90092 0.0
H1023 H 0.04304 0.3665 0.91033 0.0
H1024 H 0.02259 0.28264 0.90586 0.0
H1025 H 0.87589 0.31309 0.91408 0.0
C1026 C 0.9184 0.4978 0.92455 0.0
C1027 C 0.95567 0.53091 0.92478 0.0
C1028 C 1.0012 0.51651 0.92081 0.0
C1029 C 0.00978 0.46913 0.91716 0.0
C1030 C 0.97228 0.43691 0.91739 0.0
C1031 C 0.92725 0.45123 0.92072 0.0
C1032 C 0.8925 0.4107 0.92007 0.0
C1033 C 0.87098 0.40034 0.93305 0.0
C1034 C 0.85388 0.42081 0.91026 0.0
C1035 C 0.92477 0.37092 0.91592 0.0
C1036 C 0.97089 0.38618 0.9146 0.0
C1037 C 1.00691 0.35459 0.91124 0.0
C1038 C 0.99515 0.30688 0.90883 0.0
C1039 C 0.94773 0.29141 0.90967 0.0
C1040 C 0.91245 0.32397 0.91335 0.0
H1041 H 0.65237 0.94831 0.06769 0.0
H1042 H 0.63383 0.03534 0.10065 0.0
H1043 H 0.54784 0.02129 0.10002 0.0
H1044 H 0.56474 0.99595 0.05178 0.0
H1045 H 0.54382 0.94389 0.04379 0.0
H1046 H 0.60402 0.94673 0.04898 0.0
H1047 H 0.594 0.86983 0.06189 0.0
H1048 H 0.53387 0.86562 0.05645 0.0
H1049 H 0.54631 0.86513 0.07304 0.0
H1050 H 0.46246 0.01331 0.09285 0.0
H1051 H 0.38802 1.00757 0.08058 0.0
H1052 H 0.46317 0.9289 0.05186 0.0
C1053 C 0.63054 0.96156 0.07526 0.0
C1054 C 0.64996 0.99158 0.08446 0.0
C1055 C 0.61985 0.01081 0.09379 0.0
C1056 C 0.57079 1.00344 0.09341 0.0
C1057 C 0.55214 0.97674 0.0836 0.0
C1058 C 0.58132 0.95526 0.07482 0.0
C1059 C 0.55264 0.93484 0.06412 0.0
C1060 C 0.56717 0.95668 0.05143 0.0
C1061 C 0.55696 0.88063 0.06387 0.0
C1062 C 0.50329 0.95021 0.06791 0.0
C1063 C 0.5033 0.97353 0.07928 0.0
C1064 C 0.46198 0.99414 0.08407 0.0
C1065 C 0.41982 0.99091 0.07703 0.0
C1066 C 0.41954 0.96789 0.06525 0.0
C1067 C 0.46186 0.94672 0.06085 0.0
H1068 H 0.54179 0.41583 0.81922 0.0
H1069 H 0.41452 0.42671 0.84149 0.0
H1070 H 0.42854 0.5124 0.84441 0.0
H1071 H 0.61218 0.51112 0.83564 0.0
H1072 H 0.63665 0.53126 0.82096 0.0
H1073 H 0.62197 0.46971 0.82304 0.0
H1074 H 0.56929 0.47362 0.80321 0.0
H1075 H 0.58291 0.53528 0.80119 0.0
H1076 H 0.52225 0.51667 0.80242 0.0
H1077 H 0.45056 0.6 0.84221 0.0
H1078 H 0.48022 0.67904 0.83572 0.0
H1079 H 0.59098 0.61049 0.81418 0.0
C1080 C 0.51848 0.43578 0.82531 0.0
C1081 C 0.4781 0.41418 0.83059 0.0
C1082 C 0.44659 0.44219 0.83779 0.0
C1083 C 0.45408 0.49105 0.83938 0.0
C1084 C 0.49307 0.51184 0.83359 0.0
C1085 C 0.52507 0.48487 0.8268 0.0
C1086 C 0.56089 0.51629 0.82028 0.0
C1087 C 0.61089 0.50651 0.82529 0.0
C1088 C 0.55867 0.51008 0.80593 0.0
C1089 C 0.54351 0.565 0.8242 0.0
C1090 C 0.50467 0.56192 0.83198 0.0
C1091 C 0.48142 0.60268 0.83626 0.0
C1092 C 0.49839 0.64753 0.83251 0.0
C1093 C 0.53801 0.65139 0.82446 0.0
C1094 C 0.56073 0.60923 0.82039 0.0
H1095 H 0.63508 0.61222 0.15941 0.0
H1096 H 0.634 0.46345 0.1502 0.0
H1097 H 0.55009 0.46955 0.14398 0.0
H1098 H 0.53479 0.61352 0.17461 0.0
H1099 H 0.51316 0.67075 0.16975 0.0
H1100 H 0.57537 0.65882 0.16958 0.0
H1101 H 0.57981 0.6809 0.14602 0.0
H1102 H 0.51739 0.69382 0.14613 0.0
H1103 H 0.54118 0.6522 0.13497 0.0
H1104 H 0.46211 0.48731 0.1442 0.0
H1105 H 0.38195 0.51611 0.14988 0.0
H1106 H 0.44071 0.6537 0.15845 0.0
C1107 C 0.61801 0.5819 0.15521 0.0
C1108 C 0.64147 0.53785 0.15477 0.0
C1109 C 0.61715 0.49795 0.15008 0.0
C1110 C 0.56926 0.50105 0.14664 0.0
C1111 C 0.54609 0.54448 0.14789 0.0
C1112 C 0.57011 0.58455 0.15179 0.0
C1113 C 0.53614 0.62507 0.15422 0.0
C1114 C 0.54011 0.64302 0.16784 0.0
C1115 C 0.5441 0.66538 0.14477 0.0
C1116 C 0.48927 0.60081 0.15191 0.0
C1117 C 0.49543 0.55461 0.14802 0.0
C1118 C 0.4569 0.5239 0.14686 0.0
C1119 C 0.41135 0.54052 0.15006 0.0
C1120 C 0.40489 0.58724 0.1545 0.0
C1121 C 0.44429 0.61792 0.15493 0.0
H1122 H 0.5501 0.90836 0.41403 0.0
H1123 H 0.4256 0.83927 0.39913 0.0
H1124 H 0.39073 0.9183 0.39446 0.0
H1125 H 0.48938 0.9999 0.42961 0.0
H1126 H 0.53419 0.04375 0.42672 0.0
H1127 H 0.55015 0.98218 0.42762 0.0
H1128 H 0.58857 0.98788 0.40558 0.0
H1129 H 0.57208 0.04944 0.40456 0.0
H1130 H 0.55393 0.00873 0.39249 0.0
H1131 H 0.36796 1.00594 0.39275 0.0
H1132 H 0.35551 0.09157 0.39616 0.0
H1133 H 0.495 0.10279 0.41245 0.0
C1134 C 0.51575 0.90948 0.40958 0.0
C1135 C 0.49086 0.86721 0.40678 0.0
C1136 C 0.44552 0.87088 0.40127 0.0
C1137 C 0.42563 0.91571 0.39854 0.0
C1138 C 0.45139 0.95657 0.40142 0.0
C1139 C 0.49537 0.95365 0.40694 0.0
C1140 C 0.51448 1.0024 0.41012 0.0
C1141 C 0.5225 1.00734 0.42436 0.0
C1142 C 0.55996 0.01271 0.40274 0.0
C1143 C 0.47418 0.03369 0.40568 0.0
C1144 C 0.43836 1.00661 0.40053 0.0
C1145 C 0.39613 0.02729 0.39659 0.0
C1146 C 0.38954 0.07615 0.39844 0.0
C1147 C 0.42487 0.10425 0.40418 0.0
C1148 C 0.46827 0.0828 0.40751 0.0
H1149 H 0.13948 0.46655 0.55761 0.0
H1150 H 0.11349 0.5965 0.57803 0.0
H1151 H 0.02863 0.57767 0.57922 0.0
H1152 H 0.04032 0.47322 0.53884 0.0
H1153 H 0.02697 0.4109 0.53874 0.0
H1154 H 0.08671 0.43024 0.5412 0.0
H1155 H 0.09048 0.38362 0.56213 0.0
H1156 H 0.03085 0.36354 0.55965 0.0
H1157 H 0.04607 0.39379 0.57396 0.0
H1158 H 0.9443 0.55075 0.57541 0.0
H1159 H 0.86931 0.51376 0.56839 0.0
H1160 H 0.95 0.40078 0.55096 0.0
C1161 C 0.1162 0.48982 0.56282 0.0
C1162 C 0.13333 0.53258 0.56794 0.0
C1163 C 0.10128 0.56322 0.57419 0.0
C1164 C 0.05288 0.55293 0.57488 0.0
C1165 C 0.03658 0.5116 0.56929 0.0
C1166 C 0.06738 0.48007 0.56355 0.0
C1167 C 0.04018 0.43999 0.55747 0.0
C1168 C 0.04908 0.43853 0.54322 0.0
C1169 C 0.05264 0.39241 0.56367 0.0
C1170 C 0.98962 0.45458 0.5604 0.0
C1171 C 0.98812 0.49592 0.56724 0.0
C1172 C 0.9451 0.51777 0.57026 0.0
C1173 C 0.9026 0.49668 0.56621 0.0
C1174 C 0.9034 0.45402 0.55928 0.0
C1175 C 0.94775 0.43289 0.55646 0.0
H1176 H 0.05614 0.63326 0.30515 0.0
H1177 H 0.96942 0.61756 0.33839 0.0
H1178 H 0.98989 0.5328 0.33947 0.0
H1179 H 0.02459 0.52796 0.29117 0.0
H1180 H 0.08171 0.51267 0.28487 0.0
H1181 H 0.06675 0.57375 0.2876 0.0
H1182 H 0.14028 0.58374 0.30173 0.0
H1183 H 0.15619 0.52291 0.29884 0.0
H1184 H 0.14952 0.54378 0.31472 0.0
H1185 H 0.00813 0.44722 0.33489 0.0
H1186 H 0.03416 0.36894 0.32683 0.0
H1187 H 0.1129 0.43921 0.29734 0.0
C1188 C 0.04356 0.61243 0.313 0.0
C1189 C 0.01207 0.63233 0.32188 0.0
C1190 C 0.9944 0.60329 0.33166 0.0
C1191 C 1.00549 0.55493 0.33229 0.0
C1192 C 0.0347 0.53572 0.32309 0.0
C1193 C 0.05454 0.56368 0.31379 0.0
C1194 C 0.08277 0.53333 0.30469 0.0
C1195 C 0.06274 0.53718 0.29129 0.0
C1196 C 0.13532 0.54674 0.30502 0.0
C1197 C 0.07475 0.48421 0.31017 0.0
C1198 C 0.04657 0.48631 0.32072 0.0
C1199 C 0.03121 0.44521 0.32681 0.0
C1200 C 0.04583 0.40087 0.32214 0.0
C1201 C 0.07614 0.39796 0.31163 0.0
C1202 C 0.09059 0.44034 0.30559 0.0
H1203 H 0.36344 0.0259 0.68083 0.0
H1204 H 0.38565 0.88927 0.66321 0.0
H1205 H 0.47093 0.90498 0.66185 0.0
H1206 H 0.45383 0.08927 0.6622 0.0
H1207 H 0.47164 0.12551 0.67527 0.0
H1208 H 0.4118 0.10436 0.67428 0.0
H1209 H 0.42031 0.06706 0.69639 0.0
H1210 H 0.48047 0.08727 0.69734 0.0
H1211 H 0.46735 0.02534 0.69933 0.0
H1212 H 0.55594 0.93231 0.66405 0.0
H1213 H 0.63175 0.97535 0.6667 0.0
H1214 H 0.55481 0.09509 0.68194 0.0
C1215 C 0.38606 0.99992 0.67637 0.0
C1216 C 0.36746 0.95631 0.67211 0.0
C1217 C 0.39876 0.92294 0.66657 0.0
C1218 C 0.4475 0.93139 0.6658 0.0
C1219 C 0.46502 0.97371 0.67052 0.0
C1220 C 0.43519 1.00792 0.67545 0.0
C1221 C 0.46344 0.05039 0.67986 0.0
C1222 C 0.44934 0.09502 0.67246 0.0
C1223 C 0.45752 0.05794 0.69407 0.0
C1224 C 0.51346 0.03456 0.67665 0.0
C1225 C 0.51376 0.98995 0.67142 0.0
C1226 C 0.55608 0.96753 0.66802 0.0
C1227 C 0.59907 0.99194 0.66966 0.0
C1228 C 0.59931 0.03852 0.67447 0.0
C1229 C 0.55583 0.05956 0.67815 0.0
H1230 H 0.07066 0.00905 0.91944 0.0
H1231 H 0.92358 0.0517 0.91721 0.0
H1232 H 0.90047 0.96707 0.91574 0.0
H1233 H 0.06483 0.91177 0.89784 0.0
H1234 H 0.10538 0.87537 0.90666 0.0
H1235 H 0.10991 0.9389 0.90734 0.0
H1236 H 0.10231 0.93661 0.93164 0.0
H1237 H 0.09935 0.87311 0.93086 0.0
H1238 H 0.05318 0.90589 0.93866 0.0
H1239 H 0.89445 0.87574 0.9144 0.0
H1240 H 0.90511 0.78881 0.91516 0.0
H1241 H 0.05641 0.80755 0.9188 0.0
C1242 C 0.03345 1.00091 0.91862 0.0
C1243 C 0.99892 0.03745 0.91838 0.0
C1244 C 0.95072 0.02463 0.91742 0.0
C1245 C 0.93735 0.97656 0.91652 0.0
C1246 C 0.97253 0.94158 0.91666 0.0
C1247 C 0.01961 0.95339 0.9178 0.0
C1248 C 0.0508 0.90957 0.91809 0.0
C1249 C 0.08472 0.90888 0.90681 0.0
C1250 C 0.07797 0.90612 0.93056 0.0
C1251 C 0.01408 0.87085 0.91702 0.0
C1252 C 0.96912 0.8899 0.91609 0.0
C1253 C 0.92955 0.86075 0.91518 0.0
C1254 C 0.93597 0.81126 0.91564 0.0
C1255 C 0.98156 0.79097 0.91713 0.0
C1256 C 0.02109 0.82154 0.91751 0.0
H1257 H 0.9528 0.07505 0.08234 0.0
H1258 H 0.90166 0.9419 0.06742 0.0
H1259 H 0.98495 0.91632 0.06399 0.0
H1260 H 0.04021 0.09151 0.05981 0.0
H1261 H 0.08109 0.11961 0.07038 0.0
H1262 H 0.01861 0.12367 0.07325 0.0
H1263 H 0.03039 0.08848 0.09551 0.0
H1264 H 0.09306 0.08445 0.09274 0.0
H1265 H 0.06042 0.03253 0.09731 0.0
H1266 H 0.07626 0.90807 0.0615 0.0
H1267 H 0.162 0.91949 0.05867 0.0
H1268 H 0.14962 0.06209 0.07331 0.0
C1269 C 0.95857 0.03999 0.07854 0.0
C1270 C 0.92016 0.01028 0.07528 0.0
C1271 C 0.93019 0.96508 0.07018 0.0
C1272 C 0.97749 0.95041 0.06817 0.0
C1273 C 0.0143 0.98146 0.07123 0.0
C1274 C 1.00498 0.02544 0.07627 0.0
C1275 C 0.04961 0.05443 0.07776 0.0
C1276 C 0.04722 0.09997 0.06982 0.0
C1277 C 0.05891 0.06561 0.09166 0.0
C1278 C 0.08606 0.02028 0.07265 0.0
C1279 C 0.06533 0.97802 0.06912 0.0
C1280 C 0.09241 0.94127 0.06413 0.0
C1281 C 0.14127 0.94831 0.06245 0.0
C1282 C 0.16285 0.99222 0.06543 0.0
C1283 C 0.1346 0.02817 0.07084 0.0
H1284 H 0.50006 0.15027 0.80741 0.0
H1285 H 0.54776 0.16709 0.84581 0.0
H1286 H 0.54879 0.08008 0.84839 0.0
H1287 H 0.42087 0.0581 0.81348 0.0
H1288 H 0.43183 0.02654 0.79907 0.0
H1289 H 0.44027 0.08963 0.79969 0.0
H1290 H 0.5266 0.07983 0.79206 0.0
H1291 H 0.51824 0.01673 0.79118 0.0
H1292 H 0.56592 0.0405 0.80039 0.0
H1293 H 0.54162 0.98952 0.84693 0.0
H1294 H 0.52752 0.90539 0.84142 0.0
H1295 H 0.47952 0.94902 0.80452 0.0
C1296 C 0.51195 0.13587 0.81627 0.0
C1297 C 0.52441 0.16605 0.82636 0.0
C1298 C 0.53848 0.14507 0.83788 0.0
C1299 C 0.539 0.09552 0.83946 0.0
C1300 C 0.525 0.06696 0.82946 0.0
C1301 C 0.51196 0.08648 0.81806 0.0
C1302 C 0.4959 0.04833 0.809 0.0
C1303 C 0.44415 0.05613 0.80508 0.0
C1304 C 0.52862 0.04623 0.79748 0.0
C1305 C 0.5013 1.00436 0.8171 0.0
C1306 C 0.51871 0.01563 0.82883 0.0
C1307 C 0.52778 0.98047 0.83778 0.0
C1308 C 0.51951 0.93273 0.8346 0.0
C1309 C 0.50158 0.92038 0.82264 0.0
C1310 C 0.49206 0.95708 0.81387 0.0
H1311 H 0.90083 0.57324 0.16808 0.0
H1312 H 0.91865 0.43732 0.14971 0.0
H1313 H 1.00405 0.45164 0.14782 0.0
H1314 H 0.99052 0.63645 0.14933 0.0
H1315 H 0.01024 0.67103 0.16252 0.0
H1316 H 0.94986 0.65129 0.16176 0.0
H1317 H 0.95916 0.61142 0.18353 0.0
H1318 H 0.01966 0.63063 0.18431 0.0
H1319 H 1.00576 0.56873 0.18594 0.0
H1320 H 0.08974 0.4773 0.14971 0.0
H1321 H 0.16684 0.51658 0.15344 0.0
H1322 H 0.09301 0.63676 0.16958 0.0
C1323 C 0.92249 0.547 0.1634 0.0
C1324 C 0.90263 0.50413 0.15904 0.0
C1325 C 0.93269 0.47046 0.15316 0.0
C1326 C 0.98147 0.47818 0.15204 0.0
C1327 C 1.00015 0.52005 0.15674 0.0
C1328 C 0.9715 0.55425 0.16213 0.0
C1329 C 1.00077 0.59574 0.16666 0.0
C1330 C 0.98703 0.64133 0.15964 0.0
C1331 C 0.99605 0.60197 0.18096 0.0
C1332 C 0.05012 0.57929 0.16307 0.0
C1333 C 0.04918 0.53538 0.15745 0.0
C1334 C 0.09083 0.51208 0.15393 0.0
C1335 C 0.1345 0.53451 0.15611 0.0
C1336 C 0.13616 0.58002 0.1616 0.0
C1337 C 0.09316 0.60237 0.16511 0.0
H1338 H 0.44513 0.58798 0.39635 0.0
H1339 H 0.4654 0.61434 0.43609 0.0
H1340 H 0.47032 0.52831 0.43993 0.0
H1341 H 0.37101 0.48185 0.40063 0.0
H1342 H 0.39536 0.45268 0.38705 0.0
H1343 H 0.39219 0.51635 0.38755 0.0
H1344 H 0.48207 0.52067 0.38322 0.0
H1345 H 0.48569 0.45703 0.38292 0.0
H1346 H 0.52247 0.49017 0.39353 0.0
H1347 H 0.47938 0.43844 0.43919 0.0
H1348 H 0.48012 0.35303 0.43449 0.0
H1349 H 0.44845 0.38386 0.39548 0.0
C1350 C 0.44963 0.57581 0.40592 0.0
C1351 C 0.45564 0.60861 0.4159 0.0
C1352 C 0.46173 0.59052 0.42822 0.0
C1353 C 0.46447 0.54145 0.43051 0.0
C1354 C 0.46031 0.51031 0.42041 0.0
C1355 C 0.45192 0.52676 0.4084 0.0
C1356 C 0.44818 0.48566 0.39922 0.0
C1357 C 0.39874 0.48405 0.39326 0.0
C1358 C 0.48691 0.48858 0.38912 0.0
C1359 C 0.45625 0.4436 0.40791 0.0
C1360 C 0.46358 0.45864 0.42008 0.0
C1361 C 0.47291 0.42638 0.42972 0.0
C1362 C 0.47325 0.37763 0.42694 0.0
C1363 C 0.46372 0.36093 0.41465 0.0
C1364 C 0.45595 0.3949 0.405 0.0
H1365 H 0.44652 0.55052 0.57905 0.0
H1366 H 0.38317 0.47484 0.54796 0.0
H1367 H 0.4629 0.44907 0.54108 0.0
H1368 H 0.54415 0.59449 0.56284 0.0
H1369 H 0.58543 0.58817 0.57561 0.0
H1370 H 0.52356 0.59661 0.57884 0.0
H1371 H 0.52202 0.51963 0.59205 0.0
H1372 H 0.58417 0.51143 0.58909 0.0
H1373 H 0.54304 0.46513 0.58523 0.0
H1374 H 0.55143 0.43815 0.53653 0.0
H1375 H 0.6382 0.43498 0.53607 0.0
H1376 H 0.64404 0.51794 0.57021 0.0
C1377 C 0.44915 0.52751 0.57096 0.0
C1378 C 0.40817 0.51453 0.5641 0.0
C1379 C 0.41363 0.48475 0.55351 0.0
C1380 C 0.45897 0.47034 0.54945 0.0
C1381 C 0.49865 0.48553 0.55616 0.0
C1382 C 0.49398 0.51272 0.56684 0.0
C1383 C 0.54202 0.52543 0.57225 0.0
C1384 C 0.54919 0.57937 0.57239 0.0
C1385 C 0.54817 0.50412 0.58544 0.0
C1386 C 0.57476 0.50181 0.56284 0.0
C1387 C 0.54907 0.47914 0.55361 0.0
C1388 C 0.57164 0.45576 0.54376 0.0
C1389 C 0.62138 0.45475 0.54347 0.0
C1390 C 0.64872 0.47695 0.55294 0.0
C1391 C 0.62459 0.50085 0.56274 0.0
H1392 H 0.30054 0.21003 0.38159 0.0
H1393 H 0.31557 0.36224 0.38496 0.0
H1394 H 0.29175 0.37187 0.36285 0.0
H1395 H 0.34395 0.20104 0.34933 0.0
H1396 H 0.30235 0.15555 0.34517 0.0
H1397 H 0.32307 0.16029 0.36111 0.0
H1398 H 0.2367 0.16674 0.36902 0.0
H1399 H 0.21575 0.16169 0.35314 0.0
H1400 H 0.19844 0.21174 0.36257 0.0
H1401 H 0.26325 0.36545 0.34078 0.0
H1402 H 0.22729 0.34299 0.32041 0.0
H1403 H 0.23109 0.1956 0.33128 0.0
C1404 C 0.29927 0.24529 0.37762 0.0
C1405 C 0.30966 0.28537 0.38499 0.0
C1406 C 0.307 0.33109 0.37954 0.0
C1407 C 0.29405 0.33688 0.36695 0.0
C1408 C 0.28405 0.29661 0.35995 0.0
C1409 C 0.28629 0.25171 0.36508 0.0
C1410 C 0.27144 0.2145 0.35569 0.0
C1411 C 0.31267 0.18086 0.35265 0.0
C1412 C 0.22799 0.18708 0.36039 0.0
C1413 C 0.25945 0.24564 0.34457 0.0
C1414 C 0.26766 0.29286 0.34717 0.0
C1415 C 0.25731 0.32859 0.33856 0.0
C1416 C 0.23722 0.31571 0.32706 0.0
C1417 C 0.22779 0.26778 0.3244 0.0
C1418 C 0.23935 0.2323 0.33315 0.0
H1419 H 0.19126 0.75624 0.65579 0.0
H1420 H 0.26159 0.88429 0.64326 0.0
H1421 H 0.27473 0.84836 0.62255 0.0
H1422 H 0.27063 0.67765 0.6416 0.0
H1423 H 0.22661 0.63443 0.63748 0.0
H1424 H 0.21747 0.67235 0.65082 0.0
H1425 H 0.13777 0.7008 0.64143 0.0
H1426 H 0.14667 0.66287 0.62805 0.0
H1427 H 0.13641 0.7253 0.6258 0.0
H1428 H 0.28537 0.79627 0.60359 0.0
H1429 H 0.29497 0.73067 0.58835 0.0
H1430 H 0.22012 0.63691 0.61366 0.0
C1431 C 0.20917 0.77695 0.6487 0.0
C1432 C 0.22491 0.82332 0.65121 0.0
C1433 C 0.24813 0.84911 0.64158 0.0
C1434 C 0.25601 0.82893 0.62975 0.0
C1435 C 0.24051 0.78294 0.62769 0.0
C1436 C 0.2176 0.75728 0.6369 0.0
C1437 C 0.20737 0.70741 0.63262 0.0
C1438 C 0.23201 0.67083 0.64114 0.0
C1439 C 0.15387 0.6986 0.63193 0.0
C1440 C 0.22925 0.70867 0.61969 0.0
C1441 C 0.24756 0.75269 0.61691 0.0
C1442 C 0.27082 0.76173 0.60562 0.0
C1443 C 0.27602 0.72446 0.59702 0.0
C1444 C 0.25859 0.67885 0.5999 0.0
C1445 C 0.23431 0.6713 0.61129 0.0
H1446 H 0.82024 0.79658 0.35583 0.0
H1447 H 0.79358 0.70496 0.32414 0.0
H1448 H 0.71241 0.69032 0.33198 0.0
H1449 H 0.76633 0.73012 0.37816 0.0
H1450 H 0.74151 0.77853 0.387 0.0
H1451 H 0.79379 0.7876 0.37777 0.0
H1452 H 0.75249 0.85624 0.36584 0.0
H1453 H 0.6999 0.84741 0.37508 0.0
H1454 H 0.69668 0.84593 0.35819 0.0
H1455 H 0.64137 0.67402 0.3455 0.0
H1456 H 0.58376 0.6622 0.36277 0.0
H1457 H 0.65503 0.76879 0.38479 0.0
C1458 C 0.79673 0.77439 0.35043 0.0
C1459 C 0.81264 0.75174 0.33944 0.0
C1460 C 0.78145 0.72283 0.33253 0.0
C1461 C 0.73549 0.71441 0.33692 0.0
C1462 C 0.72123 0.73625 0.34803 0.0
C1463 C 0.75069 0.76644 0.35455 0.0
C1464 C 0.72854 0.78272 0.36672 0.0
C1465 C 0.75937 0.76888 0.37807 0.0
C1466 C 0.71882 0.83626 0.36643 0.0
C1467 C 0.6831 0.7549 0.3664 0.0
C1468 C 0.67922 0.72858 0.35551 0.0
C1469 C 0.6432 0.69559 0.35387 0.0
C1470 C 0.61084 0.68894 0.36369 0.0
C1471 C 0.61462 0.71542 0.37489 0.0
C1472 C 0.65049 0.7495 0.3761 0.0
H1473 H 0.65683 0.21666 0.63404 0.0
H1474 H 0.79812 0.23282 0.64871 0.0
H1475 H 0.81615 0.29078 0.63191 0.0
H1476 H 0.68478 0.21089 0.60413 0.0
H1477 H 0.63572 0.24376 0.59772 0.0
H1478 H 0.62962 0.21435 0.61256 0.0
H1479 H 0.60571 0.29318 0.62324 0.0
H1480 H 0.61064 0.32295 0.60831 0.0
H1481 H 0.64327 0.34424 0.62167 0.0
H1482 H 0.82399 0.33003 0.6109 0.0
H1483 H 0.81907 0.35347 0.58867 0.0
H1484 H 0.67068 0.31512 0.5883 0.0
C1485 C 0.6907 0.23433 0.634 0.0
C1486 C 0.72601 0.22108 0.64261 0.0
C1487 C 0.77049 0.24354 0.64227 0.0
C1488 C 0.78097 0.27626 0.63275 0.0
C1489 C 0.74607 0.28667 0.62391 0.0
C1490 C 0.70132 0.26728 0.62467 0.0
C1491 C 0.67192 0.27938 0.61327 0.0
C1492 C 0.65455 0.23443 0.60653 0.0
C1493 C 0.63043 0.31189 0.61684 0.0
C1494 C 0.70814 0.30554 0.60554 0.0
C1495 C 0.75043 0.31017 0.61187 0.0
C1496 C 0.79058 0.32806 0.606 0.0
C1497 C 0.78742 0.34125 0.59332 0.0
C1498 C 0.74442 0.33629 0.58663 0.0
C1499 C 0.7042 0.31923 0.59301 0.0
H1500 H 0.14261 0.14675 0.87307 0.0
H1501 H 0.15708 0.26596 0.89842 0.0
H1502 H 0.22757 0.29222 0.88666 0.0
H1503 H 0.26559 0.12357 0.86825 0.0
H1504 H 0.25791 0.10929 0.85189 0.0
H1505 H 0.21059 0.09894 0.86284 0.0
H1506 H 0.15443 0.15038 0.8492 0.0
H1507 H 0.20157 0.1609 0.83822 0.0
H1508 H 0.17108 0.21017 0.84531 0.0
H1509 H 0.29637 0.30606 0.87138 0.0
H1510 H 0.35601 0.30531 0.85437 0.0
H1511 H 0.28999 0.18004 0.83875 0.0
C1512 C 0.16021 0.17854 0.87617 0.0
C1513 C 0.14399 0.20421 0.88668 0.0
C1514 C 0.16899 0.2452 0.8905 0.0
C1515 C 0.20895 0.26061 0.88383 0.0
C1516 C 0.2233 0.23474 0.87336 0.0
C1517 C 0.19952 0.19457 0.86959 0.0
C1518 C 0.22069 0.17353 0.85786 0.0
C1519 C 0.23984 0.12337 0.86037 0.0
C1520 C 0.18481 0.17379 0.84701 0.0
C1521 C 0.26017 0.20815 0.85555 0.0
C1522 C 0.26154 0.24315 0.86457 0.0
C1523 C 0.29551 0.27879 0.86426 0.0
C1524 C 0.32907 0.27826 0.85451 0.0
C1525 C 0.32813 0.24243 0.8452 0.0
C1526 C 0.29272 0.20742 0.84578 0.0
H1527 H 0.29542 0.78825 0.13558 0.0
H1528 H 0.22679 0.65428 0.12782 0.0
H1529 H 0.22858 0.67215 0.10517 0.0
H1530 H 0.2331 0.85561 0.1117 0.0
H1531 H 0.28389 0.89135 0.10802 0.0
H1532 H 0.27653 0.86785 0.12362 0.0
H1533 H 0.35925 0.82852 0.12218 0.0
H1534 H 0.36663 0.85145 0.10653 0.0
H1535 H 0.37204 0.78878 0.10939 0.0
H1536 H 0.24081 0.70357 0.0832 0.0
H1537 H 0.25678 0.74963 0.06382 0.0
H1538 H 0.3152 0.86292 0.08631 0.0
C1539 C 0.28004 0.76295 0.12917 0.0
C1540 C 0.26139 0.71967 0.1335 0.0
C1541 C 0.24215 0.6873 0.12473 0.0
C1542 C 0.24278 0.6972 0.11184 0.0
C1543 C 0.26241 0.73976 0.10789 0.0
C1544 C 0.28017 0.77234 0.11631 0.0
C1545 C 0.2992 0.81554 0.10968 0.0
C1546 C 0.27151 0.86022 0.11348 0.0
C1547 C 0.35244 0.82138 0.11209 0.0
C1548 C 0.28952 0.80206 0.09621 0.0
C1549 C 0.26855 0.75814 0.09533 0.0
C1550 C 0.25701 0.73813 0.08377 0.0
C1551 C 0.26646 0.76424 0.07284 0.0
C1552 C 0.2868 0.80979 0.07364 0.0
C1553 C 0.29889 0.82847 0.08547 0.0
H1554 H 0.75007 0.72031 0.91395 0.0
H1555 H 0.83854 0.61341 0.89675 0.0
H1556 H 0.8015 0.62983 0.8761 0.0
H1557 H 0.64396 0.70357 0.89437 0.0
H1558 H 0.63183 0.76618 0.89367 0.0
H1559 H 0.6608 0.74131 0.90723 0.0
H1560 H 0.72982 0.80038 0.90433 0.0
H1561 H 0.70143 0.82504 0.89068 0.0
H1562 H 0.76083 0.8023 0.88955 0.0
H1563 H 0.7578 0.66097 0.85733 0.0
H1564 H 0.71276 0.70674 0.84151 0.0
H1565 H 0.65663 0.79655 0.87093 0.0
C1566 C 0.76042 0.69954 0.90587 0.0
C1567 C 0.79623 0.66505 0.90682 0.0
C1568 C 0.81064 0.63959 0.89607 0.0
C1569 C 0.78983 0.64865 0.88438 0.0
C1570 C 0.75518 0.6837 0.88367 0.0
C1571 C 0.74069 0.70886 0.89412 0.0
C1572 C 0.7061 0.74761 0.89065 0.0
C1573 C 0.65781 0.73914 0.89685 0.0
C1574 C 0.72574 0.79672 0.894 0.0
C1575 C 0.70377 0.74062 0.8766 0.0
C1576 C 0.73178 0.70318 0.87278 0.0
C1577 C 0.73557 0.69023 0.86021 0.0
C1578 C 0.70993 0.71629 0.85131 0.0
C1579 C 0.68157 0.75514 0.85505 0.0
C1580 C 0.67854 0.76733 0.86785 0.0
H1581 H 0.73455 0.14915 0.12041 0.0
H1582 H 0.79558 0.22283 0.08863 0.0
H1583 H 0.78482 0.29921 0.09969 0.0
H1584 H 0.64764 0.24218 0.12891 0.0
H1585 H 0.65499 0.23117 0.14547 0.0
H1586 H 0.66237 0.18356 0.13439 0.0
H1587 H 0.74606 0.16689 0.14326 0.0
H1588 H 0.73904 0.21442 0.15431 0.0
H1589 H 0.78872 0.2141 0.14372 0.0
H1590 H 0.77676 0.3652 0.11532 0.0
H1591 H 0.77042 0.41627 0.13384 0.0
H1592 H 0.71111 0.29924 0.1551 0.0
C1593 C 0.74524 0.18143 0.11574 0.0
C1594 C 0.76615 0.18036 0.10373 0.0
C1595 C 0.77921 0.22321 0.09782 0.0
C1596 C 0.77323 0.26658 0.10402 0.0
C1597 C 0.7534 0.26626 0.11601 0.0
C1598 C 0.73908 0.22481 0.12174 0.0
C1599 C 0.72129 0.23353 0.13491 0.0
C1600 C 0.66843 0.22193 0.13598 0.0
C1601 C 0.75054 0.20559 0.14462 0.0
C1602 C 0.7298 0.28613 0.13593 0.0
C1603 C 0.74778 0.30447 0.1249 0.0
C1604 C 0.76172 0.35149 0.12393 0.0
C1605 C 0.75776 0.38034 0.13456 0.0
C1606 C 0.74 0.36211 0.14605 0.0
C1607 C 0.72499 0.31452 0.14656 0.0
loop_
_geom_bond_atom_site_label_1
_geom_bond_atom_site_label_2
_geom_bond_distance
_geom_bond_site_symmetry_2
_ccdc_geom_bond_type
C0 C1 1.351 . S
C0 N3 1.368 . S
C0 H5 0.931 . S
C1 C0 1.351 . S
C1 N2 1.373 . S
C1 H29 0.930 . S
N2 C1 1.373 . S
N2 C4 1.340 . S
N3 C0 1.368 . S
N3 C4 1.321 . S
N3 Co6 2.135 1_655 S
C4 N2 1.340 . S
C4 N3 1.321 . S
C4 H28 0.930 . S
H5 C0 0.931 . S
Co6 N3 2.135 1_455 S
Co6 N9 2.121 . S
Co6 O14 2.055 1_455 S
Co6 O17 2.039 1_455 S
Co6 N20 2.140 . S
C7 O8 1.227 1_655 S
C7 O17 1.265 . S
O8 C7 1.227 1_455 S
N9 Co6 2.121 . S
N9 C11 1.375 . S
N9 C12 1.313 . S
C10 C11 1.338 . S
C10 N13 1.377 . S
C10 H30 0.930 . S
C11 N9 1.375 . S
C11 C10 1.338 . S
C11 H15 0.931 . S
C12 N9 1.313 . S
C12 N13 1.344 . S
C12 H16 0.930 . S
N13 C10 1.377 . S
N13 C12 1.344 . S
O14 Co6 2.055 1_655 S
O14 C18 1.253 1_655 S
H15 C11 0.931 . S
H16 C12 0.930 . S
O17 Co6 2.039 1_655 S
O17 C7 1.265 . S
C18 O14 1.253 1_455 S
C18 O19 1.227 . S
O19 C18 1.227 . S
N20 Co6 2.140 . S
N20 C23 1.346 . S
N20 C24 1.345 . S
C21 C22 1.387 . S
C21 C25 1.391 . S
C22 C21 1.387 . S
C22 C23 1.369 . S
C22 H31 0.929 . S
C23 N20 1.346 . S
C23 C22 1.369 . S
C23 H26 0.928 . S
C24 N20 1.345 . S
C24 C25 1.371 . S
C24 H27 0.931 . S
C25 C21 1.391 . S
C25 C24 1.371 . S
C25 H32 0.930 . S
H26 C23 0.928 . S
H27 C24 0.931 . S
H28 C4 0.930 . S
H29 C1 0.930 . S
H30 C10 0.930 . S
H31 C22 0.929 . S
H32 C25 0.930 . S
C33 C34 1.351 . S
C33 N36 1.368 . S
C33 H38 0.931 . S
C34 C33 1.351 . S
C34 N35 1.373 . S
C34 H62 0.930 . S
N35 C34 1.373 . S
N35 C37 1.340 . S
N36 C33 1.368 . S
N36 C37 1.321 . S
N36 Co39 2.135 1_545 S
C37 N35 1.340 . S
C37 N36 1.321 . S
C37 H61 0.930 . S
H38 C33 0.931 . S
Co39 N36 2.135 1_565 S
Co39 N42 2.121 . S
Co39 O47 2.055 1_565 S
Co39 O50 2.039 1_565 S
Co39 N53 2.140 . S
C40 O41 1.227 1_545 S
C40 O50 1.265 . S
O41 C40 1.227 1_565 S
N42 Co39 2.121 . S
N42 C44 1.375 . S
N42 C45 1.313 . S
C43 C44 1.338 . S
C43 N46 1.377 . S
C43 H63 0.930 . S
C44 N42 1.375 . S
C44 C43 1.338 . S
C44 H48 0.931 . S
C45 N42 1.313 . S
C45 N46 1.344 . S
C45 H49 0.930 . S
N46 C43 1.377 . S
N46 C45 1.344 . S
O47 Co39 2.055 1_545 S
O47 C51 1.253 1_545 S
H48 C44 0.931 . S
H49 C45 0.930 . S
O50 Co39 2.039 1_545 S
O50 C40 1.265 . S
C51 O47 1.253 1_565 S
C51 O52 1.227 . S
O52 C51 1.227 . S
N53 Co39 2.140 . S
N53 C56 1.346 . S
N53 C57 1.345 . S
C54 C55 1.387 . S
C54 C58 1.391 . S
C55 C54 1.387 . S
C55 C56 1.369 . S
C55 H64 0.929 . S
C56 N53 1.346 . S
C56 C55 1.369 . S
C56 H59 0.928 . S
C57 N53 1.345 . S
C57 C58 1.371 . S
C57 H60 0.931 . S
C58 C54 1.391 . S
C58 C57 1.371 . S
C58 H65 0.930 . S
H59 C56 0.928 . S
H60 C57 0.931 . S
H61 C37 0.930 . S
H62 C34 0.930 . S
H63 C43 0.930 . S
H64 C55 0.929 . S
H65 C58 0.930 . S
C66 C67 1.351 . S
C66 N69 1.368 . S
C66 H71 0.931 . S
C67 C66 1.351 . S
C67 N68 1.373 . S
C67 H95 0.930 . S
N68 C67 1.373 . S
N68 C70 1.340 . S
N69 C66 1.368 . S
N69 C70 1.321 . S
N69 Co72 2.135 1_455 S
C70 N68 1.340 . S
C70 N69 1.321 . S
C70 H94 0.930 . S
H71 C66 0.931 . S
Co72 N69 2.135 1_655 S
Co72 N75 2.121 . S
Co72 O80 2.055 1_655 S
Co72 O83 2.039 1_655 S
Co72 N86 2.140 . S
C73 O74 1.227 1_455 S
C73 O83 1.265 . S
O74 C73 1.227 1_655 S
N75 Co72 2.121 . S
N75 C77 1.375 . S
N75 C78 1.313 . S
C76 C77 1.338 . S
C76 N79 1.377 . S
C76 H96 0.930 . S
C77 N75 1.375 . S
C77 C76 1.338 . S
C77 H81 0.931 . S
C78 N75 1.313 . S
C78 N79 1.344 . S
C78 H82 0.930 . S
N79 C76 1.377 . S
N79 C78 1.344 . S
O80 Co72 2.055 1_455 S
O80 C84 1.253 1_455 S
H81 C77 0.931 . S
H82 C78 0.930 . S
O83 Co72 2.039 1_455 S
O83 C73 1.265 . S
C84 O80 1.253 1_655 S
C84 O85 1.227 . S
O85 C84 1.227 . S
N86 Co72 2.140 . S
N86 C89 1.346 . S
N86 C90 1.345 . S
C87 C88 1.387 . S
C87 C91 1.391 . S
C88 C87 1.387 . S
C88 C89 1.369 . S
C88 H97 0.929 . S
C89 N86 1.346 . S
C89 C88 1.369 . S
C89 H92 0.928 . S
C90 N86 1.345 . S
C90 C91 1.371 . S
C90 H93 0.931 . S
C91 C87 1.391 . S
C91 C90 1.371 . S
C91 H98 0.930 . S
H92 C89 0.928 . S
H93 C90 0.931 . S
H94 C70 0.930 . S
H95 C67 0.930 . S
H96 C76 0.930 . S
H97 C88 0.929 . S
H98 C91 0.930 . S
C99 C100 1.351 . S
C99 N102 1.368 . S
C99 H104 0.931 . S
C100 C99 1.351 . S
C100 N101 1.373 . S
C100 H128 0.930 . S
N101 C100 1.373 . S
N101 C103 1.340 . S
N102 C99 1.368 . S
N102 C103 1.321 . S
N102 Co105 2.135 1_565 S
C103 N101 1.340 . S
C103 N102 1.321 . S
C103 H127 0.930 . S
H104 C99 0.931 . S
Co105 N102 2.135 1_545 S
Co105 N108 2.121 . S
Co105 O113 2.055 1_545 S
Co105 O116 2.039 1_545 S
Co105 N119 2.140 . S
C106 O107 1.227 1_565 S
C106 O116 1.265 . S
O107 C106 1.227 1_545 S
N108 Co105 2.121 . S
N108 C110 1.375 . S
N108 C111 1.313 . S
C109 C110 1.338 . S
C109 N112 1.377 . S
C109 H129 0.930 . S
C110 N108 1.375 . S
C110 C109 1.338 . S
C110 H114 0.931 . S
C111 N108 1.313 . S
C111 N112 1.344 . S
C111 H115 0.930 . S
N112 C109 1.377 . S
N112 C111 1.344 . S
O113 Co105 2.055 1_565 S
O113 C117 1.253 1_565 S
H114 C110 0.931 . S
H115 C111 0.930 . S
O116 Co105 2.039 1_565 S
O116 C106 1.265 . S
C117 O113 1.253 1_545 S
C117 O118 1.227 . S
O118 C117 1.227 . S
N119 Co105 2.140 . S
N119 C122 1.346 . S
N119 C123 1.345 . S
C120 C121 1.387 . S
C120 C124 1.391 . S
C121 C120 1.387 . S
C121 C122 1.369 . S
C121 H130 0.929 . S
C122 N119 1.346 . S
C122 C121 1.369 . S
C122 H125 0.928 . S
C123 N119 1.345 . S
C123 C124 1.371 . S
C123 H126 0.931 . S
C124 C120 1.391 . S
C124 C123 1.371 . S
C124 H131 0.930 . S
H125 C122 0.928 . S
H126 C123 0.931 . S
H127 C103 0.930 . S
H128 C100 0.930 . S
H129 C109 0.930 . S
H130 C121 0.929 . S
H131 C124 0.930 . S
C132 C133 1.351 . S
C132 N135 1.368 . S
C132 H137 0.931 . S
C133 C132 1.351 . S
C133 N134 1.373 . S
C133 H161 0.930 . S
N134 C133 1.373 . S
N134 C136 1.340 . S
N135 C132 1.368 . S
N135 C136 1.321 . S
N135 Co138 2.135 1_655 S
C136 N134 1.340 . S
C136 N135 1.321 . S
C136 H160 0.930 . S
H137 C132 0.931 . S
Co138 N135 2.135 1_455 S
Co138 N141 2.121 . S
Co138 O146 2.055 1_455 S
Co138 O149 2.039 1_455 S
Co138 N152 2.140 . S
C139 O140 1.227 1_655 S
C139 O149 1.265 . S
O140 C139 1.227 1_455 S
N141 Co138 2.121 . S
N141 C143 1.375 . S
N141 C144 1.313 . S
C142 C143 1.338 . S
C142 N145 1.377 . S
C142 H162 0.930 . S
C143 N141 1.375 . S
C143 C142 1.338 . S
C143 H147 0.931 . S
C144 N141 1.313 . S
C144 N145 1.344 . S
C144 H148 0.930 . S
N145 C142 1.377 . S
N145 C144 1.344 . S
O146 Co138 2.055 1_655 S
O146 C150 1.253 1_655 S
H147 C143 0.931 . S
H148 C144 0.930 . S
O149 Co138 2.039 1_655 S
O149 C139 1.265 . S
C150 O146 1.253 1_455 S
C150 O151 1.227 . S
O151 C150 1.227 . S
N152 Co138 2.140 . S
N152 C155 1.346 . S
N152 C156 1.345 . S
C153 C154 1.387 . S
C153 C157 1.391 . S
C154 C153 1.387 . S
C154 C155 1.369 . S
C154 H163 0.929 . S
C155 N152 1.346 . S
C155 C154 1.369 . S
C155 H158 0.928 . S
C156 N152 1.345 . S
C156 C157 1.371 . S
C156 H159 0.931 . S
C157 C153 1.391 . S
C157 C156 1.371 . S
C157 H164 0.930 . S
H158 C155 0.928 . S
H159 C156 0.931 . S
H160 C136 0.930 . S
H161 C133 0.930 . S
H162 C142 0.930 . S
H163 C154 0.929 . S
H164 C157 0.930 . S
C165 C166 1.351 . S
C165 N168 1.368 . S
C165 H170 0.931 . S
C166 C165 1.351 . S
C166 N167 1.373 . S
C166 H194 0.930 . S
N167 C166 1.373 . S
N167 C169 1.340 . S
N168 C165 1.368 . S
N168 C169 1.321 . S
N168 Co171 2.135 1_545 S
C169 N167 1.340 . S
C169 N168 1.321 . S
C169 H193 0.930 . S
H170 C165 0.931 . S
Co171 N168 2.135 1_565 S
Co171 N174 2.121 . S
Co171 O179 2.055 1_565 S
Co171 O182 2.039 1_565 S
Co171 N185 2.140 . S
C172 O173 1.227 1_545 S
C172 O182 1.265 . S
O173 C172 1.227 1_565 S
N174 Co171 2.121 . S
N174 C176 1.375 . S
N174 C177 1.313 . S
C175 C176 1.338 . S
C175 N178 1.377 . S
C175 H195 0.930 . S
C176 N174 1.375 . S
C176 C175 1.338 . S
C176 H180 0.931 . S
C177 N174 1.313 . S
C177 N178 1.344 . S
C177 H181 0.930 . S
N178 C175 1.377 . S
N178 C177 1.344 . S
O179 Co171 2.055 1_545 S
O179 C183 1.253 1_545 S
H180 C176 0.931 . S
H181 C177 0.930 . S
O182 Co171 2.039 1_545 S
O182 C172 1.265 . S
C183 O179 1.253 1_565 S
C183 O184 1.227 . S
O184 C183 1.227 . S
N185 Co171 2.140 . S
N185 C188 1.346 . S
N185 C189 1.345 . S
C186 C187 1.387 . S
C186 C190 1.391 . S
C187 C186 1.387 . S
C187 C188 1.369 . S
C187 H196 0.929 . S
C188 N185 1.346 . S
C188 C187 1.369 . S
C188 H191 0.928 . S
C189 N185 1.345 . S
C189 C190 1.371 . S
C189 H192 0.931 . S
C190 C186 1.391 . S
C190 C189 1.371 . S
C190 H197 0.930 . S
H191 C188 0.928 . S
H192 C189 0.931 . S
H193 C169 0.930 . S
H194 C166 0.930 . S
H195 C175 0.930 . S
H196 C187 0.929 . S
H197 C190 0.930 . S
C198 C199 1.351 . S
C198 N201 1.368 . S
C198 H203 0.931 . S
C199 C198 1.351 . S
C199 N200 1.373 . S
C199 H227 0.930 . S
N200 C199 1.373 . S
N200 C202 1.340 . S
N201 C198 1.368 . S
N201 C202 1.321 . S
N201 Co204 2.135 1_455 S
C202 N200 1.340 . S
C202 N201 1.321 . S
C202 H226 0.930 . S
H203 C198 0.931 . S
Co204 N201 2.135 1_655 S
Co204 N207 2.121 . S
Co204 O212 2.055 1_655 S
Co204 O215 2.039 1_655 S
Co204 N218 2.140 . S
C205 O206 1.227 1_455 S
C205 O215 1.265 . S
O206 C205 1.227 1_655 S
N207 Co204 2.121 . S
N207 C209 1.375 . S
N207 C210 1.313 . S
C208 C209 1.338 . S
C208 N211 1.377 . S
C208 H228 0.930 . S
C209 N207 1.375 . S
C209 C208 1.338 . S
C209 H213 0.931 . S
C210 N207 1.313 . S
C210 N211 1.344 . S
C210 H214 0.930 . S
N211 C208 1.377 . S
N211 C210 1.344 . S
O212 Co204 2.055 1_455 S
O212 C216 1.253 1_455 S
H213 C209 0.931 . S
H214 C210 0.930 . S
O215 Co204 2.039 1_455 S
O215 C205 1.265 . S
C216 O212 1.253 1_655 S
C216 O217 1.227 . S
O217 C216 1.227 . S
N218 Co204 2.140 . S
N218 C221 1.346 . S
N218 C222 1.345 . S
C219 C220 1.387 . S
C219 C223 1.391 . S
C220 C219 1.387 . S
C220 C221 1.369 . S
C220 H229 0.929 . S
C221 N218 1.346 . S
C221 C220 1.369 . S
C221 H224 0.928 . S
C222 N218 1.345 . S
C222 C223 1.371 . S
C222 H225 0.931 . S
C223 C219 1.391 . S
C223 C222 1.371 . S
C223 H230 0.930 . S
H224 C221 0.928 . S
H225 C222 0.931 . S
H226 C202 0.930 . S
H227 C199 0.930 . S
H228 C208 0.930 . S
H229 C220 0.929 . S
H230 C223 0.930 . S
C231 C232 1.351 . S
C231 N234 1.368 . S
C231 H236 0.931 . S
C232 C231 1.351 . S
C232 N233 1.373 . S
C232 H260 0.930 . S
N233 C232 1.373 . S
N233 C235 1.340 . S
N234 C231 1.368 . S
N234 C235 1.321 . S
N234 Co237 2.135 1_565 S
C235 N233 1.340 . S
C235 N234 1.321 . S
C235 H259 0.930 . S
H236 C231 0.931 . S
Co237 N234 2.135 1_545 S
Co237 N240 2.121 . S
Co237 O245 2.055 1_545 S
Co237 O248 2.039 1_545 S
Co237 N251 2.140 . S
C238 O239 1.227 1_565 S
C238 O248 1.265 . S
O239 C238 1.227 1_545 S
N240 Co237 2.121 . S
N240 C242 1.375 . S
N240 C243 1.313 . S
C241 C242 1.338 . S
C241 N244 1.377 . S
C241 H261 0.930 . S
C242 N240 1.375 . S
C242 C241 1.338 . S
C242 H246 0.931 . S
C243 N240 1.313 . S
C243 N244 1.344 . S
C243 H247 0.930 . S
N244 C241 1.377 . S
N244 C243 1.344 . S
O245 Co237 2.055 1_565 S
O245 C249 1.253 1_565 S
H246 C242 0.931 . S
H247 C243 0.930 . S
O248 Co237 2.039 1_565 S
O248 C238 1.265 . S
C249 O245 1.253 1_545 S
C249 O250 1.227 . S
O250 C249 1.227 . S
N251 Co237 2.140 . S
N251 C254 1.346 . S
N251 C255 1.345 . S
C252 C253 1.387 . S
C252 C256 1.391 . S
C253 C252 1.387 . S
C253 C254 1.369 . S
C253 H262 0.929 . S
C254 N251 1.346 . S
C254 C253 1.369 . S
C254 H257 0.928 . S
C255 N251 1.345 . S
C255 C256 1.371 . S
C255 H258 0.931 . S
C256 C252 1.391 . S
C256 C255 1.371 . S
C256 H263 0.930 . S
H257 C254 0.928 . S
H258 C255 0.931 . S
H259 C235 0.930 . S
H260 C232 0.930 . S
H261 C241 0.930 . S
H262 C253 0.929 . S
H263 C256 0.930 . S
C264 C265 1.351 . S
C264 N267 1.368 . S
C264 H269 0.931 . S
C265 C264 1.351 . S
C265 N266 1.373 . S
C265 H293 0.930 . S
N266 C265 1.373 . S
N266 C268 1.340 . S
N267 C264 1.368 . S
N267 C268 1.321 . S
N267 Co270 2.135 . S
C268 N266 1.340 . S
C268 N267 1.321 . S
C268 H292 0.930 . S
H269 C264 0.931 . S
Co270 N267 2.135 . S
Co270 N273 2.121 . S
Co270 O278 2.055 . S
Co270 O281 2.039 . S
Co270 N284 2.140 . S
C271 O272 1.227 . S
C271 O281 1.265 . S
O272 C271 1.227 . S
N273 Co270 2.121 . S
N273 C275 1.375 . S
N273 C276 1.313 . S
C274 C275 1.338 . S
C274 N277 1.377 . S
C274 H294 0.930 . S
C275 N273 1.375 . S
C275 C274 1.338 . S
C275 H279 0.931 . S
C276 N273 1.313 . S
C276 N277 1.344 . S
C276 H280 0.930 . S
N277 C274 1.377 . S
N277 C276 1.344 . S
O278 Co270 2.055 . S
O278 C282 1.253 . S
H279 C275 0.931 . S
H280 C276 0.930 . S
O281 Co270 2.039 . S
O281 C271 1.265 . S
C282 O278 1.253 . S
C282 O283 1.227 . S
O283 C282 1.227 . S
N284 Co270 2.140 . S
N284 C287 1.346 . S
N284 C288 1.345 . S
C285 C286 1.387 . S
C285 C289 1.391 . S
C286 C285 1.387 . S
C286 C287 1.369 . S
C286 H295 0.929 . S
C287 N284 1.346 . S
C287 C286 1.369 . S
C287 H290 0.928 . S
C288 N284 1.345 . S
C288 C289 1.371 . S
C288 H291 0.931 . S
C289 C285 1.391 . S
C289 C288 1.371 . S
C289 H296 0.930 . S
H290 C287 0.928 . S
H291 C288 0.931 . S
H292 C268 0.930 . S
H293 C265 0.930 . S
H294 C274 0.930 . S
H295 C286 0.929 . S
H296 C289 0.930 . S
C297 C298 1.351 . S
C297 N300 1.368 . S
C297 H302 0.931 . S
C298 C297 1.351 . S
C298 N299 1.373 . S
C298 H326 0.930 . S
N299 C298 1.373 . S
N299 C301 1.340 . S
N300 C297 1.368 . S
N300 C301 1.321 . S
N300 Co303 2.135 . S
C301 N299 1.340 . S
C301 N300 1.321 . S
C301 H325 0.930 . S
H302 C297 0.931 . S
Co303 N300 2.135 . S
Co303 N306 2.121 . S
Co303 O311 2.055 . S
Co303 O314 2.039 . S
Co303 N317 2.140 . S
C304 O305 1.227 . S
C304 O314 1.265 . S
O305 C304 1.227 . S
N306 Co303 2.121 . S
N306 C308 1.375 . S
N306 C309 1.313 . S
C307 C308 1.338 . S
C307 N310 1.377 . S
C307 H327 0.930 . S
C308 N306 1.375 . S
C308 C307 1.338 . S
C308 H312 0.931 . S
C309 N306 1.313 . S
C309 N310 1.344 . S
C309 H313 0.930 . S
N310 C307 1.377 . S
N310 C309 1.344 . S
O311 Co303 2.055 . S
O311 C315 1.253 . S
H312 C308 0.931 . S
H313 C309 0.930 . S
O314 Co303 2.039 . S
O314 C304 1.265 . S
C315 O311 1.253 . S
C315 O316 1.227 . S
O316 C315 1.227 . S
N317 Co303 2.140 . S
N317 C320 1.346 . S
N317 C321 1.345 . S
C318 C319 1.387 . S
C318 C322 1.391 . S
C319 C318 1.387 . S
C319 C320 1.369 . S
C319 H328 0.929 . S
C320 N317 1.346 . S
C320 C319 1.369 . S
C320 H323 0.928 . S
C321 N317 1.345 . S
C321 C322 1.371 . S
C321 H324 0.931 . S
C322 C318 1.391 . S
C322 C321 1.371 . S
C322 H329 0.930 . S
H323 C320 0.928 . S
H324 C321 0.931 . S
H325 C301 0.930 . S
H326 C298 0.930 . S
H327 C307 0.930 . S
H328 C319 0.929 . S
H329 C322 0.930 . S
C330 C331 1.351 . S
C330 N333 1.368 . S
C330 H335 0.931 . S
C331 C330 1.351 . S
C331 N332 1.373 . S
C331 H359 0.930 . S
N332 C331 1.373 . S
N332 C334 1.340 . S
N333 C330 1.368 . S
N333 C334 1.321 . S
N333 Co336 2.135 . S
C334 N332 1.340 . S
C334 N333 1.321 . S
C334 H358 0.930 . S
H335 C330 0.931 . S
Co336 N333 2.135 . S
Co336 N339 2.121 . S
Co336 O344 2.055 . S
Co336 O347 2.039 . S
Co336 N350 2.140 . S
C337 O338 1.227 . S
C337 O347 1.265 . S
O338 C337 1.227 . S
N339 Co336 2.121 . S
N339 C341 1.375 . S
N339 C342 1.313 . S
C340 C341 1.338 . S
C340 N343 1.377 . S
C340 H360 0.930 . S
C341 N339 1.375 . S
C341 C340 1.338 . S
C341 H345 0.931 . S
C342 N339 1.313 . S
C342 N343 1.344 . S
C342 H346 0.930 . S
N343 C340 1.377 . S
N343 C342 1.344 . S
O344 Co336 2.055 . S
O344 C348 1.253 . S
H345 C341 0.931 . S
H346 C342 0.930 . S
O347 Co336 2.039 . S
O347 C337 1.265 . S
C348 O344 1.253 . S
C348 O349 1.227 . S
O349 C348 1.227 . S
N350 Co336 2.140 . S
N350 C353 1.346 . S
N350 C354 1.345 . S
C351 C352 1.387 . S
C351 C355 1.391 . S
C352 C351 1.387 . S
C352 C353 1.369 . S
C352 H361 0.929 . S
C353 N350 1.346 . S
C353 C352 1.369 . S
C353 H356 0.928 . S
C354 N350 1.345 . S
C354 C355 1.371 . S
C354 H357 0.931 . S
C355 C351 1.391 . S
C355 C354 1.371 . S
C355 H362 0.930 . S
H356 C353 0.928 . S
H357 C354 0.931 . S
H358 C334 0.930 . S
H359 C331 0.930 . S
H360 C340 0.930 . S
H361 C352 0.929 . S
H362 C355 0.930 . S
C363 C364 1.351 . S
C363 N366 1.368 . S
C363 H368 0.931 . S
C364 C363 1.351 . S
C364 N365 1.373 . S
C364 H392 0.930 . S
N365 C364 1.373 . S
N365 C367 1.340 . S
N366 C363 1.368 . S
N366 C367 1.321 . S
N366 Co369 2.135 . S
C367 N365 1.340 . S
C367 N366 1.321 . S
C367 H391 0.930 . S
H368 C363 0.931 . S
Co369 N366 2.135 . S
Co369 N372 2.121 . S
Co369 O377 2.055 . S
Co369 O380 2.039 . S
Co369 N383 2.140 . S
C370 O371 1.227 . S
C370 O380 1.265 . S
O371 C370 1.227 . S
N372 Co369 2.121 . S
N372 C374 1.375 . S
N372 C375 1.313 . S
C373 C374 1.338 . S
C373 N376 1.377 . S
C373 H393 0.930 . S
C374 N372 1.375 . S
C374 C373 1.338 . S
C374 H378 0.931 . S
C375 N372 1.313 . S
C375 N376 1.344 . S
C375 H379 0.930 . S
N376 C373 1.377 . S
N376 C375 1.344 . S
O377 Co369 2.055 . S
O377 C381 1.253 . S
H378 C374 0.931 . S
H379 C375 0.930 . S
O380 Co369 2.039 . S
O380 C370 1.265 . S
C381 O377 1.253 . S
C381 O382 1.227 . S
O382 C381 1.227 . S
N383 Co369 2.140 . S
N383 C386 1.346 . S
N383 C387 1.345 . S
C384 C385 1.387 . S
C384 C388 1.391 . S
C385 C384 1.387 . S
C385 C386 1.369 . S
C385 H394 0.929 . S
C386 N383 1.346 . S
C386 C385 1.369 . S
C386 H389 0.928 . S
C387 N383 1.345 . S
C387 C388 1.371 . S
C387 H390 0.931 . S
C388 C384 1.391 . S
C388 C387 1.371 . S
C388 H395 0.930 . S
H389 C386 0.928 . S
H390 C387 0.931 . S
H391 C367 0.930 . S
H392 C364 0.930 . S
H393 C373 0.930 . S
H394 C385 0.929 . S
H395 C388 0.930 . S
C396 C397 1.351 . S
C396 N399 1.368 . S
C396 H401 0.931 . S
C397 C396 1.351 . S
C397 N398 1.373 . S
C397 H425 0.930 . S
N398 C397 1.373 . S
N398 C400 1.340 . S
N399 C396 1.368 . S
N399 C400 1.321 . S
N399 Co402 2.135 . S
C400 N398 1.340 . S
C400 N399 1.321 . S
C400 H424 0.930 . S
H401 C396 0.931 . S
Co402 N399 2.135 . S
Co402 N405 2.121 . S
Co402 O410 2.055 . S
Co402 O413 2.039 . S
Co402 N416 2.140 . S
C403 O404 1.227 . S
C403 O413 1.265 . S
O404 C403 1.227 . S
N405 Co402 2.121 . S
N405 C407 1.375 . S
N405 C408 1.313 . S
C406 C407 1.338 . S
C406 N409 1.377 . S
C406 H426 0.930 . S
C407 N405 1.375 . S
C407 C406 1.338 . S
C407 H411 0.931 . S
C408 N405 1.313 . S
C408 N409 1.344 . S
C408 H412 0.930 . S
N409 C406 1.377 . S
N409 C408 1.344 . S
O410 Co402 2.055 . S
O410 C414 1.253 . S
H411 C407 0.931 . S
H412 C408 0.930 . S
O413 Co402 2.039 . S
O413 C403 1.265 . S
C414 O410 1.253 . S
C414 O415 1.227 . S
O415 C414 1.227 . S
N416 Co402 2.140 . S
N416 C419 1.346 . S
N416 C420 1.345 . S
C417 C418 1.387 . S
C417 C421 1.391 . S
C418 C417 1.387 . S
C418 C419 1.369 . S
C418 H427 0.929 . S
C419 N416 1.346 . S
C419 C418 1.369 . S
C419 H422 0.928 . S
C420 N416 1.345 . S
C420 C421 1.371 . S
C420 H423 0.931 . S
C421 C417 1.391 . S
C421 C420 1.371 . S
C421 H428 0.930 . S
H422 C419 0.928 . S
H423 C420 0.931 . S
H424 C400 0.930 . S
H425 C397 0.930 . S
H426 C406 0.930 . S
H427 C418 0.929 . S
H428 C421 0.930 . S
C429 C430 1.351 . S
C429 N432 1.368 . S
C429 H434 0.931 . S
C430 C429 1.351 . S
C430 N431 1.373 . S
C430 H458 0.930 . S
N431 C430 1.373 . S
N431 C433 1.340 . S
N432 C429 1.368 . S
N432 C433 1.321 . S
N432 Co435 2.135 . S
C433 N431 1.340 . S
C433 N432 1.321 . S
C433 H457 0.930 . S
H434 C429 0.931 . S
Co435 N432 2.135 . S
Co435 N438 2.121 . S
Co435 O443 2.055 . S
Co435 O446 2.039 . S
Co435 N449 2.140 . S
C436 O437 1.227 . S
C436 O446 1.265 . S
O437 C436 1.227 . S
N438 Co435 2.121 . S
N438 C440 1.375 . S
N438 C441 1.313 . S
C439 C440 1.338 . S
C439 N442 1.377 . S
C439 H459 0.930 . S
C440 N438 1.375 . S
C440 C439 1.338 . S
C440 H444 0.931 . S
C441 N438 1.313 . S
C441 N442 1.344 . S
C441 H445 0.930 . S
N442 C439 1.377 . S
N442 C441 1.344 . S
O443 Co435 2.055 . S
O443 C447 1.253 . S
H444 C440 0.931 . S
H445 C441 0.930 . S
O446 Co435 2.039 . S
O446 C436 1.265 . S
C447 O443 1.253 . S
C447 O448 1.227 . S
O448 C447 1.227 . S
N449 Co435 2.140 . S
N449 C452 1.346 . S
N449 C453 1.345 . S
C450 C451 1.387 . S
C450 C454 1.391 . S
C451 C450 1.387 . S
C451 C452 1.369 . S
C451 H460 0.929 . S
C452 N449 1.346 . S
C452 C451 1.369 . S
C452 H455 0.928 . S
C453 N449 1.345 . S
C453 C454 1.371 . S
C453 H456 0.931 . S
C454 C450 1.391 . S
C454 C453 1.371 . S
C454 H461 0.930 . S
H455 C452 0.928 . S
H456 C453 0.931 . S
H457 C433 0.930 . S
H458 C430 0.930 . S
H459 C439 0.930 . S
H460 C451 0.929 . S
H461 C454 0.930 . S
C462 C463 1.351 . S
C462 N465 1.368 . S
C462 H467 0.931 . S
C463 C462 1.351 . S
C463 N464 1.373 . S
C463 H491 0.930 . S
N464 C463 1.373 . S
N464 C466 1.340 . S
N465 C462 1.368 . S
N465 C466 1.321 . S
N465 Co468 2.135 . S
C466 N464 1.340 . S
C466 N465 1.321 . S
C466 H490 0.930 . S
H467 C462 0.931 . S
Co468 N465 2.135 . S
Co468 N471 2.121 . S
Co468 O476 2.055 . S
Co468 O479 2.039 . S
Co468 N482 2.140 . S
C469 O470 1.227 . S
C469 O479 1.265 . S
O470 C469 1.227 . S
N471 Co468 2.121 . S
N471 C473 1.375 . S
N471 C474 1.313 . S
C472 C473 1.338 . S
C472 N475 1.377 . S
C472 H492 0.930 . S
C473 N471 1.375 . S
C473 C472 1.338 . S
C473 H477 0.931 . S
C474 N471 1.313 . S
C474 N475 1.344 . S
C474 H478 0.930 . S
N475 C472 1.377 . S
N475 C474 1.344 . S
O476 Co468 2.055 . S
O476 C480 1.253 . S
H477 C473 0.931 . S
H478 C474 0.930 . S
O479 Co468 2.039 . S
O479 C469 1.265 . S
C480 O476 1.253 . S
C480 O481 1.227 . S
O481 C480 1.227 . S
N482 Co468 2.140 . S
N482 C485 1.346 . S
N482 C486 1.345 . S
C483 C484 1.387 . S
C483 C487 1.391 . S
C484 C483 1.387 . S
C484 C485 1.369 . S
C484 H493 0.929 . S
C485 N482 1.346 . S
C485 C484 1.369 . S
C485 H488 0.928 . S
C486 N482 1.345 . S
C486 C487 1.371 . S
C486 H489 0.931 . S
C487 C483 1.391 . S
C487 C486 1.371 . S
C487 H494 0.930 . S
H488 C485 0.928 . S
H489 C486 0.931 . S
H490 C466 0.930 . S
H491 C463 0.930 . S
H492 C472 0.930 . S
H493 C484 0.929 . S
H494 C487 0.930 . S
C495 C496 1.351 . S
C495 N498 1.368 . S
C495 H500 0.931 . S
C496 C495 1.351 . S
C496 N497 1.373 . S
C496 H524 0.930 . S
N497 C496 1.373 . S
N497 C499 1.340 . S
N498 C495 1.368 . S
N498 C499 1.321 . S
N498 Co501 2.135 . S
C499 N497 1.340 . S
C499 N498 1.321 . S
C499 H523 0.930 . S
H500 C495 0.931 . S
Co501 N498 2.135 . S
Co501 N504 2.121 . S
Co501 O509 2.055 . S
Co501 O512 2.039 . S
Co501 N515 2.140 . S
C502 O503 1.227 . S
C502 O512 1.265 . S
O503 C502 1.227 . S
N504 Co501 2.121 . S
N504 C506 1.375 . S
N504 C507 1.313 . S
C505 C506 1.338 . S
C505 N508 1.377 . S
C505 H525 0.930 . S
C506 N504 1.375 . S
C506 C505 1.338 . S
C506 H510 0.931 . S
C507 N504 1.313 . S
C507 N508 1.344 . S
C507 H511 0.930 . S
N508 C505 1.377 . S
N508 C507 1.344 . S
O509 Co501 2.055 . S
O509 C513 1.253 . S
H510 C506 0.931 . S
H511 C507 0.930 . S
O512 Co501 2.039 . S
O512 C502 1.265 . S
C513 O509 1.253 . S
C513 O514 1.227 . S
O514 C513 1.227 . S
N515 Co501 2.140 . S
N515 C518 1.346 . S
N515 C519 1.345 . S
C516 C517 1.387 . S
C516 C520 1.391 . S
C517 C516 1.387 . S
C517 C518 1.369 . S
C517 H526 0.929 . S
C518 N515 1.346 . S
C518 C517 1.369 . S
C518 H521 0.928 . S
C519 N515 1.345 . S
C519 C520 1.371 . S
C519 H522 0.931 . S
C520 C516 1.391 . S
C520 C519 1.371 . S
C520 H527 0.930 . S
H521 C518 0.928 . S
H522 C519 0.931 . S
H523 C499 0.930 . S
H524 C496 0.930 . S
H525 C505 0.930 . S
H526 C517 0.929 . S
H527 C520 0.930 . S
H528 C540 0.930 . S
H529 C542 0.930 . S
H530 C543 0.930 . S
H531 C547 0.959 . S
H532 C547 0.959 . S
H533 C547 0.961 . S
H534 C548 0.960 . S
H535 C548 0.961 . S
H536 C548 0.959 . S
H537 C551 0.929 . S
H538 C552 0.931 . S
H539 C554 0.930 . S
C540 H528 0.930 . S
C540 C541 1.399 . S
C540 C545 1.399 . S
C541 C540 1.399 . S
C541 C542 1.376 . S
C542 H529 0.930 . S
C542 C541 1.376 . S
C542 C543 1.388 . S
C543 H530 0.930 . S
C543 C542 1.388 . S
C543 C544 1.390 . S
C544 C543 1.390 . S
C544 C545 1.394 . S
C544 C550 1.465 . S
C545 C540 1.399 . S
C545 C544 1.394 . S
C545 C546 1.516 . S
C546 C545 1.516 . S
C546 C547 1.502 . S
C546 C548 1.561 . S
C546 C549 1.526 . S
C547 H531 0.959 . S
C547 H532 0.959 . S
C547 H533 0.961 . S
C547 C546 1.502 . S
C548 H534 0.960 . S
C548 H535 0.961 . S
C548 H536 0.959 . S
C548 C546 1.561 . S
C549 C546 1.526 . S
C549 C550 1.396 . S
C549 C554 1.390 . S
C550 C544 1.465 . S
C550 C549 1.396 . S
C550 C551 1.399 . S
C551 H537 0.929 . S
C551 C550 1.399 . S
C551 C552 1.385 . S
C552 H538 0.931 . S
C552 C551 1.385 . S
C552 C553 1.389 . S
C553 C552 1.389 . S
C553 C554 1.387 . S
C554 H539 0.930 . S
C554 C549 1.390 . S
C554 C553 1.387 . S
H555 C567 0.930 . S
H556 C569 0.930 . S
H557 C570 0.930 . S
H558 C574 0.959 . S
H559 C574 0.959 . S
H560 C574 0.961 . S
H561 C575 0.960 . S
H562 C575 0.961 . S
H563 C575 0.959 . S
H564 C578 0.929 . S
H565 C579 0.931 . S
H566 C581 0.930 . S
C567 H555 0.930 . S
C567 C568 1.399 . S
C567 C572 1.399 . S
C568 C567 1.399 . S
C568 C569 1.376 . S
C569 H556 0.930 . S
C569 C568 1.376 . S
C569 C570 1.388 . S
C570 H557 0.930 . S
C570 C569 1.388 . S
C570 C571 1.390 . S
C571 C570 1.390 . S
C571 C572 1.394 . S
C571 C577 1.465 . S
C572 C567 1.399 . S
C572 C571 1.394 . S
C572 C573 1.516 . S
C573 C572 1.516 . S
C573 C574 1.502 . S
C573 C575 1.561 . S
C573 C576 1.526 . S
C574 H558 0.959 . S
C574 H559 0.959 . S
C574 H560 0.961 . S
C574 C573 1.502 . S
C575 H561 0.960 . S
C575 H562 0.961 . S
C575 H563 0.959 . S
C575 C573 1.561 . S
C576 C573 1.526 . S
C576 C577 1.396 . S
C576 C581 1.390 . S
C577 C571 1.465 . S
C577 C576 1.396 . S
C577 C578 1.399 . S
C578 H564 0.929 . S
C578 C577 1.399 . S
C578 C579 1.385 . S
C579 H565 0.931 . S
C579 C578 1.385 . S
C579 C580 1.389 . S
C580 C579 1.389 . S
C580 C581 1.387 . S
C581 H566 0.930 . S
C581 C576 1.390 . S
C581 C580 1.387 . S
H582 C594 0.930 . S
H583 C596 0.930 . S
H584 C597 0.930 . S
H585 C601 0.959 . S
H586 C601 0.959 . S
H587 C601 0.961 . S
H588 C602 0.960 . S
H589 C602 0.961 . S
H590 C602 0.959 . S
H591 C605 0.929 . S
H592 C606 0.931 . S
H593 C608 0.930 . S
C594 H582 0.930 . S
C594 C595 1.399 . S
C594 C599 1.399 . S
C595 C594 1.399 . S
C595 C596 1.376 . S
C596 H583 0.930 . S
C596 C595 1.376 . S
C596 C597 1.388 . S
C597 H584 0.930 . S
C597 C596 1.388 . S
C597 C598 1.390 . S
C598 C597 1.390 . S
C598 C599 1.394 . S
C598 C604 1.465 . S
C599 C594 1.399 . S
C599 C598 1.394 . S
C599 C600 1.516 . S
C600 C599 1.516 . S
C600 C601 1.502 . S
C600 C602 1.561 . S
C600 C603 1.526 . S
C601 H585 0.959 . S
C601 H586 0.959 . S
C601 H587 0.961 . S
C601 C600 1.502 . S
C602 H588 0.960 . S
C602 H589 0.961 . S
C602 H590 0.959 . S
C602 C600 1.561 . S
C603 C600 1.526 . S
C603 C604 1.396 . S
C603 C608 1.390 . S
C604 C598 1.465 . S
C604 C603 1.396 . S
C604 C605 1.399 . S
C605 H591 0.929 . S
C605 C604 1.399 . S
C605 C606 1.385 . S
C606 H592 0.931 . S
C606 C605 1.385 . S
C606 C607 1.389 . S
C607 C606 1.389 . S
C607 C608 1.387 . S
C608 H593 0.930 . S
C608 C603 1.390 . S
C608 C607 1.387 . S
H609 C621 0.930 . S
H610 C623 0.930 . S
H611 C624 0.930 . S
H612 C628 0.959 . S
H613 C628 0.959 . S
H614 C628 0.961 . S
H615 C629 0.960 . S
H616 C629 0.961 . S
H617 C629 0.959 . S
H618 C632 0.929 . S
H619 C633 0.931 . S
H620 C635 0.930 . S
C621 H609 0.930 . S
C621 C622 1.399 . S
C621 C626 1.399 . S
C622 C621 1.399 . S
C622 C623 1.376 . S
C623 H610 0.930 . S
C623 C622 1.376 . S
C623 C624 1.388 . S
C624 H611 0.930 . S
C624 C623 1.388 . S
C624 C625 1.390 . S
C625 C624 1.390 . S
C625 C626 1.394 . S
C625 C631 1.465 . S
C626 C621 1.399 . S
C626 C625 1.394 . S
C626 C627 1.516 . S
C627 C626 1.516 . S
C627 C628 1.502 . S
C627 C629 1.561 . S
C627 C630 1.526 . S
C628 H612 0.959 . S
C628 H613 0.959 . S
C628 H614 0.961 . S
C628 C627 1.502 . S
C629 H615 0.960 . S
C629 H616 0.961 . S
C629 H617 0.959 . S
C629 C627 1.561 . S
C630 C627 1.526 . S
C630 C631 1.396 . S
C630 C635 1.390 . S
C631 C625 1.465 . S
C631 C630 1.396 . S
C631 C632 1.399 . S
C632 H618 0.929 . S
C632 C631 1.399 . S
C632 C633 1.385 . S
C633 H619 0.931 . S
C633 C632 1.385 . S
C633 C634 1.389 . S
C634 C633 1.389 . S
C634 C635 1.387 . S
C635 H620 0.930 . S
C635 C630 1.390 . S
C635 C634 1.387 . S
H636 C648 0.930 . S
H637 C650 0.930 . S
H638 C651 0.983 . S
H639 C655 0.959 . S
H640 C655 0.959 . S
H641 C655 0.961 . S
H642 C656 0.960 . S
H643 C656 0.961 . S
H644 C656 0.959 . S
H645 C659 0.929 . S
H646 C660 0.931 . S
H647 C662 0.930 . S
C648 H636 0.930 . S
C648 C649 1.399 . S
C648 C653 1.399 . S
C649 C648 1.399 . S
C649 C650 1.376 . S
C650 H637 0.930 . S
C650 C649 1.376 . S
C650 C651 1.388 . S
C651 H638 0.983 . S
C651 C650 1.388 . S
C651 C652 1.390 . S
C652 C651 1.390 . S
C652 C653 1.394 . S
C652 C658 1.465 1_554 S
C653 C648 1.399 . S
C653 C652 1.394 . S
C653 C654 1.516 . S
C654 C653 1.516 . S
C654 C655 1.502 . S
C654 C656 1.561 . S
C654 C657 1.526 1_554 S
C655 H639 0.959 . S
C655 H640 0.959 . S
C655 H641 0.961 . S
C655 C654 1.502 . S
C656 H642 0.960 . S
C656 H643 0.961 . S
C656 H644 0.959 . S
C656 C654 1.561 . S
C657 C654 1.526 1_556 S
C657 C658 1.396 . S
C657 C662 1.390 . S
C658 C652 1.465 1_556 S
C658 C657 1.396 . S
C658 C659 1.399 . S
C659 H645 0.929 . S
C659 C658 1.399 . S
C659 C660 1.385 . S
C660 H646 0.931 . S
C660 C659 1.385 . S
C660 C661 1.389 . S
C661 C660 1.389 . S
C661 C662 1.387 . S
C662 H647 0.930 . S
C662 C657 1.390 . S
C662 C661 1.387 . S
H663 C675 0.930 . S
H664 C677 0.930 . S
H665 C678 0.930 . S
H666 C682 0.959 . S
H667 C682 0.959 . S
H668 C682 0.961 . S
H669 C683 0.988 . S
H670 C683 0.961 . S
H671 C683 0.959 . S
H672 C686 0.929 1_556 S
H673 C687 0.931 . S
H674 C689 0.930 . S
C675 H663 0.930 . S
C675 C676 1.399 . S
C675 C680 1.399 . S
C676 C675 1.399 . S
C676 C677 1.376 . S
C677 H664 0.930 . S
C677 C676 1.376 . S
C677 C678 1.388 . S
C678 H665 0.930 . S
C678 C677 1.388 . S
C678 C679 1.390 . S
C679 C678 1.390 . S
C679 C680 1.394 . S
C679 C685 1.432 1_556 S
C680 C675 1.399 . S
C680 C679 1.394 . S
C680 C681 1.516 1_556 S
C681 C680 1.516 1_554 S
C681 C682 1.502 . S
C681 C683 1.561 . S
C681 C684 1.526 . S
C682 H666 0.959 . S
C682 H667 0.959 . S
C682 H668 0.961 . S
C682 C681 1.502 . S
C683 H669 0.988 . S
C683 H670 0.961 . S
C683 H671 0.959 . S
C683 C681 1.561 . S
C684 C681 1.526 . S
C684 C685 1.425 . S
C684 C689 1.390 . S
C685 C679 1.432 1_554 S
C685 C684 1.425 . S
C685 C686 1.407 . S
C686 H672 0.929 1_554 S
C686 C685 1.407 . S
C686 C687 1.385 . S
C687 H673 0.931 . S
C687 C686 1.385 . S
C687 C688 1.389 . S
C688 C687 1.389 . S
C688 C689 1.387 . S
C689 H674 0.930 . S
C689 C684 1.390 . S
C689 C688 1.387 . S
H690 C702 0.930 . S
H691 C704 0.930 . S
H692 C705 0.930 . S
H693 C709 0.959 . S
H694 C709 0.959 . S
H695 C709 0.961 . S
H696 C710 0.960 . S
H697 C710 0.961 . S
H698 C710 0.959 . S
H699 C713 0.929 . S
H700 C714 0.931 . S
H701 C716 0.930 . S
C702 H690 0.930 . S
C702 C703 1.399 . S
C702 C707 1.399 . S
C703 C702 1.399 . S
C703 C704 1.376 . S
C704 H691 0.930 . S
C704 C703 1.376 . S
C704 C705 1.388 . S
C705 H692 0.930 . S
C705 C704 1.388 . S
C705 C706 1.390 . S
C706 C705 1.390 . S
C706 C707 1.394 . S
C706 C712 1.465 1_556 S
C707 C702 1.399 . S
C707 C706 1.394 . S
C707 C708 1.516 1_556 S
C708 C707 1.516 1_554 S
C708 C709 1.502 . S
C708 C710 1.561 . S
C708 C711 1.526 . S
C709 H693 0.959 . S
C709 H694 0.959 . S
C709 H695 0.961 . S
C709 C708 1.502 . S
C710 H696 0.960 . S
C710 H697 0.961 . S
C710 H698 0.959 . S
C710 C708 1.561 . S
C711 C708 1.526 . S
C711 C712 1.396 . S
C711 C716 1.390 . S
C712 C706 1.465 1_554 S
C712 C711 1.396 . S
C712 C713 1.399 . S
C713 H699 0.929 . S
C713 C712 1.399 . S
C713 C714 1.385 . S
C714 H700 0.931 . S
C714 C713 1.385 . S
C714 C715 1.389 . S
C715 C714 1.389 . S
C715 C716 1.387 . S
C716 H701 0.930 . S
C716 C711 1.390 . S
C716 C715 1.387 . S
H717 C729 0.930 . S
H718 C731 0.930 . S
H719 C732 0.930 . S
H720 C736 0.959 . S
H721 C736 0.959 . S
H722 C736 0.961 . S
H723 C737 0.960 . S
H724 C737 0.961 1_556 S
H725 C737 0.959 . S
H726 C740 0.929 . S
H727 C741 0.931 . S
H728 C743 0.930 . S
C729 H717 0.930 . S
C729 C730 1.399 . S
C729 C734 1.399 . S
C730 C729 1.399 . S
C730 C731 1.376 . S
C731 H718 0.930 . S
C731 C730 1.376 . S
C731 C732 1.388 . S
C732 H719 0.930 . S
C732 C731 1.388 . S
C732 C733 1.390 . S
C733 C732 1.390 . S
C733 C734 1.394 . S
C733 C739 1.465 1_554 S
C734 C729 1.399 . S
C734 C733 1.394 . S
C734 C735 1.516 1_554 S
C735 C734 1.516 1_556 S
C735 C736 1.502 . S
C735 C737 1.561 1_556 S
C735 C738 1.526 . S
C736 H720 0.959 . S
C736 H721 0.959 . S
C736 H722 0.961 . S
C736 C735 1.502 . S
C737 H723 0.960 . S
C737 H724 0.961 1_554 S
C737 H725 0.959 . S
C737 C735 1.561 1_554 S
C738 C735 1.526 . S
C738 C739 1.396 . S
C738 C743 1.390 . S
C739 C733 1.465 1_556 S
C739 C738 1.396 . S
C739 C740 1.399 . S
C740 H726 0.929 . S
C740 C739 1.399 . S
C740 C741 1.385 . S
C741 H727 0.931 . S
C741 C740 1.385 . S
C741 C742 1.389 . S
C742 C741 1.389 . S
C742 C743 1.387 . S
C743 H728 0.930 . S
C743 C738 1.390 . S
C743 C742 1.387 . S
H744 C756 0.930 . S
H745 C758 0.930 . S
H746 C759 0.930 . S
H747 C763 0.959 . S
H748 C763 0.959 . S
H749 C763 0.961 . S
H750 C764 0.960 . S
H751 C764 0.961 . S
H752 C764 0.959 . S
H753 C767 0.929 . S
H754 C768 0.931 . S
H755 C770 0.930 . S
C756 H744 0.930 . S
C756 C757 1.399 . S
C756 C761 1.399 . S
C757 C756 1.399 . S
C757 C758 1.376 . S
C758 H745 0.930 . S
C758 C757 1.376 . S
C758 C759 1.388 . S
C759 H746 0.930 . S
C759 C758 1.388 . S
C759 C760 1.390 . S
C760 C759 1.390 . S
C760 C761 1.394 . S
C760 C766 1.465 . S
C761 C756 1.399 . S
C761 C760 1.394 . S
C761 C762 1.516 . S
C762 C761 1.516 . S
C762 C763 1.502 . S
C762 C764 1.561 . S
C762 C765 1.526 . S
C763 H747 0.959 . S
C763 H748 0.959 . S
C763 H749 0.961 . S
C763 C762 1.502 . S
C764 H750 0.960 . S
C764 H751 0.961 . S
C764 H752 0.959 . S
C764 C762 1.561 . S
C765 C762 1.526 . S
C765 C766 1.396 . S
C765 C770 1.390 . S
C766 C760 1.465 . S
C766 C765 1.396 . S
C766 C767 1.399 . S
C767 H753 0.929 . S
C767 C766 1.399 . S
C767 C768 1.385 . S
C768 H754 0.931 . S
C768 C767 1.385 . S
C768 C769 1.389 . S
C769 C768 1.389 . S
C769 C770 1.387 . S
C770 H755 0.930 . S
C770 C765 1.390 . S
C770 C769 1.387 . S
H771 C783 0.930 . S
H772 C785 0.930 . S
H773 C786 0.930 . S
H774 C790 0.959 . S
H775 C790 0.959 . S
H776 C790 0.961 . S
H777 C791 0.960 . S
H778 C791 0.961 . S
H779 C791 0.959 . S
H780 C794 0.929 . S
H781 C795 0.931 . S
H782 C797 0.930 . S
C783 H771 0.930 . S
C783 C784 1.399 . S
C783 C788 1.399 . S
C784 C783 1.399 . S
C784 C785 1.376 . S
C785 H772 0.930 . S
C785 C784 1.376 . S
C785 C786 1.388 . S
C786 H773 0.930 . S
C786 C785 1.388 . S
C786 C787 1.390 . S
C787 C786 1.390 . S
C787 C788 1.394 . S
C787 C793 1.465 . S
C788 C783 1.399 . S
C788 C787 1.394 . S
C788 C789 1.516 . S
C789 C788 1.516 . S
C789 C790 1.502 . S
C789 C791 1.561 . S
C789 C792 1.526 . S
C790 H774 0.959 . S
C790 H775 0.959 . S
C790 H776 0.961 . S
C790 C789 1.502 . S
C791 H777 0.960 . S
C791 H778 0.961 . S
C791 H779 0.959 . S
C791 C789 1.561 . S
C792 C789 1.526 . S
C792 C793 1.396 . S
C792 C797 1.390 . S
C793 C787 1.465 . S
C793 C792 1.396 . S
C793 C794 1.399 . S
C794 H780 0.929 . S
C794 C793 1.399 . S
C794 C795 1.385 . S
C795 H781 0.931 . S
C795 C794 1.385 . S
C795 C796 1.389 . S
C796 C795 1.389 . S
C796 C797 1.387 . S
C797 H782 0.930 . S
C797 C792 1.390 . S
C797 C796 1.387 . S
H798 C810 0.930 . S
H799 C812 0.930 . S
H800 C813 0.930 . S
H801 C817 0.959 . S
H802 C817 0.959 . S
H803 C817 0.961 . S
H804 C818 0.960 . S
H805 C818 0.961 . S
H806 C818 0.959 . S
H807 C821 0.929 . S
H808 C822 0.931 . S
H809 C824 0.930 . S
C810 H798 0.930 . S
C810 C811 1.399 . S
C810 C815 1.399 . S
C811 C810 1.399 . S
C811 C812 1.376 . S
C812 H799 0.930 . S
C812 C811 1.376 . S
C812 C813 1.388 . S
C813 H800 0.930 . S
C813 C812 1.388 . S
C813 C814 1.390 . S
C814 C813 1.390 . S
C814 C815 1.394 . S
C814 C820 1.465 . S
C815 C810 1.399 . S
C815 C814 1.394 . S
C815 C816 1.516 . S
C816 C815 1.516 . S
C816 C817 1.502 . S
C816 C818 1.561 . S
C816 C819 1.526 . S
C817 H801 0.959 . S
C817 H802 0.959 . S
C817 H803 0.961 . S
C817 C816 1.502 . S
C818 H804 0.960 . S
C818 H805 0.961 . S
C818 H806 0.959 . S
C818 C816 1.561 . S
C819 C816 1.526 . S
C819 C820 1.396 . S
C819 C824 1.390 . S
C820 C814 1.465 . S
C820 C819 1.396 . S
C820 C821 1.399 . S
C821 H807 0.929 . S
C821 C820 1.399 . S
C821 C822 1.385 . S
C822 H808 0.931 . S
C822 C821 1.385 . S
C822 C823 1.389 . S
C823 C822 1.389 . S
C823 C824 1.387 . S
C824 H809 0.930 . S
C824 C819 1.390 . S
C824 C823 1.387 . S
H825 C837 0.930 . S
H826 C839 0.930 . S
H827 C840 0.930 . S
H828 C844 0.959 . S
H829 C844 0.959 . S
H830 C844 0.961 . S
H831 C845 0.960 . S
H832 C845 0.961 . S
H833 C845 0.959 . S
H834 C848 0.929 . S
H835 C849 0.931 . S
H836 C851 0.930 . S
C837 H825 0.930 . S
C837 C838 1.399 . S
C837 C842 1.399 . S
C838 C837 1.399 . S
C838 C839 1.376 . S
C839 H826 0.930 . S
C839 C838 1.376 . S
C839 C840 1.388 . S
C840 H827 0.930 . S
C840 C839 1.388 . S
C840 C841 1.390 . S
C841 C840 1.390 . S
C841 C842 1.394 . S
C841 C847 1.465 . S
C842 C837 1.399 . S
C842 C841 1.394 . S
C842 C843 1.516 . S
C843 C842 1.516 . S
C843 C844 1.502 . S
C843 C845 1.561 . S
C843 C846 1.526 . S
C844 H828 0.959 . S
C844 H829 0.959 . S
C844 H830 0.961 . S
C844 C843 1.502 . S
C845 H831 0.960 . S
C845 H832 0.961 . S
C845 H833 0.959 . S
C845 C843 1.561 . S
C846 C843 1.526 . S
C846 C847 1.396 . S
C846 C851 1.390 . S
C847 C841 1.465 . S
C847 C846 1.396 . S
C847 C848 1.399 . S
C848 H834 0.929 . S
C848 C847 1.399 . S
C848 C849 1.385 . S
C849 H835 0.931 . S
C849 C848 1.385 . S
C849 C850 1.389 . S
C850 C849 1.389 . S
C850 C851 1.387 . S
C851 H836 0.930 . S
C851 C846 1.390 . S
C851 C850 1.387 . S
H852 C864 0.930 . S
H853 C866 0.930 . S
H854 C867 0.930 . S
H855 C871 0.959 . S
H856 C871 0.959 . S
H857 C871 0.961 . S
H858 C872 0.960 . S
H859 C872 0.961 . S
H860 C872 0.959 . S
H861 C875 0.929 . S
H862 C876 0.931 . S
H863 C878 0.930 . S
C864 H852 0.930 . S
C864 C865 1.399 . S
C864 C869 1.399 . S
C865 C864 1.399 . S
C865 C866 1.376 . S
C866 H853 0.930 . S
C866 C865 1.376 . S
C866 C867 1.388 . S
C867 H854 0.930 . S
C867 C866 1.388 . S
C867 C868 1.390 . S
C868 C867 1.390 . S
C868 C869 1.394 . S
C868 C874 1.465 . S
C869 C864 1.399 . S
C869 C868 1.394 . S
C869 C870 1.516 . S
C870 C869 1.516 . S
C870 C871 1.502 . S
C870 C872 1.561 . S
C870 C873 1.526 . S
C871 H855 0.959 . S
C871 H856 0.959 . S
C871 H857 0.961 . S
C871 C870 1.502 . S
C872 H858 0.960 . S
C872 H859 0.961 . S
C872 H860 0.959 . S
C872 C870 1.561 . S
C873 C870 1.526 . S
C873 C874 1.396 . S
C873 C878 1.390 . S
C874 C868 1.465 . S
C874 C873 1.396 . S
C874 C875 1.399 . S
C875 H861 0.929 . S
C875 C874 1.399 . S
C875 C876 1.385 . S
C876 H862 0.931 . S
C876 C875 1.385 . S
C876 C877 1.389 . S
C877 C876 1.389 . S
C877 C878 1.387 . S
C878 H863 0.930 . S
C878 C873 1.390 . S
C878 C877 1.387 . S
H879 C891 0.930 . S
H880 C893 0.930 . S
H881 C894 0.930 . S
H882 C898 0.959 . S
H883 C898 0.959 . S
H884 C898 0.961 . S
H885 C899 0.960 . S
H886 C899 0.961 . S
H887 C899 0.959 . S
H888 C902 0.929 . S
H889 C903 0.931 . S
H890 C905 0.930 . S
C891 H879 0.930 . S
C891 C892 1.399 . S
C891 C896 1.399 . S
C892 C891 1.399 . S
C892 C893 1.376 . S
C893 H880 0.930 . S
C893 C892 1.376 . S
C893 C894 1.388 . S
C894 H881 0.930 . S
C894 C893 1.388 . S
C894 C895 1.390 . S
C895 C894 1.390 . S
C895 C896 1.394 . S
C895 C901 1.465 . S
C896 C891 1.399 . S
C896 C895 1.394 . S
C896 C897 1.516 . S
C897 C896 1.516 . S
C897 C898 1.502 . S
C897 C899 1.561 . S
C897 C900 1.526 . S
C898 H882 0.959 . S
C898 H883 0.959 . S
C898 H884 0.961 . S
C898 C897 1.502 . S
C899 H885 0.960 . S
C899 H886 0.961 . S
C899 H887 0.959 . S
C899 C897 1.561 . S
C900 C897 1.526 . S
C900 C901 1.396 . S
C900 C905 1.390 . S
C901 C895 1.465 . S
C901 C900 1.396 . S
C901 C902 1.399 . S
C902 H888 0.929 . S
C902 C901 1.399 . S
C902 C903 1.385 . S
C903 H889 0.931 . S
C903 C902 1.385 . S
C903 C904 1.389 . S
C904 C903 1.389 . S
C904 C905 1.387 . S
C905 H890 0.930 . S
C905 C900 1.390 . S
C905 C904 1.387 . S
H906 C918 0.930 . S
H907 C920 0.930 . S
H908 C921 0.930 . S
H909 C925 0.959 . S
H910 C925 0.959 . S
H911 C925 0.961 . S
H912 C926 0.960 . S
H913 C926 0.961 . S
H914 C926 0.959 . S
H915 C929 0.929 . S
H916 C930 0.931 . S
H917 C932 0.930 . S
C918 H906 0.930 . S
C918 C919 1.399 . S
C918 C923 1.399 . S
C919 C918 1.399 . S
C919 C920 1.376 . S
C920 H907 0.930 . S
C920 C919 1.376 . S
C920 C921 1.388 . S
C921 H908 0.930 . S
C921 C920 1.388 . S
C921 C922 1.390 . S
C922 C921 1.390 . S
C922 C923 1.394 . S
C922 C928 1.465 . S
C923 C918 1.399 . S
C923 C922 1.394 . S
C923 C924 1.516 . S
C924 C923 1.516 . S
C924 C925 1.502 . S
C924 C926 1.561 . S
C924 C927 1.526 . S
C925 H909 0.959 . S
C925 H910 0.959 . S
C925 H911 0.961 . S
C925 C924 1.502 . S
C926 H912 0.960 . S
C926 H913 0.961 . S
C926 H914 0.959 . S
C926 C924 1.561 . S
C927 C924 1.526 . S
C927 C928 1.396 . S
C927 C932 1.390 . S
C928 C922 1.465 . S
C928 C927 1.396 . S
C928 C929 1.399 . S
C929 H915 0.929 . S
C929 C928 1.399 . S
C929 C930 1.385 . S
C930 H916 0.931 . S
C930 C929 1.385 . S
C930 C931 1.389 . S
C931 C930 1.389 . S
C931 C932 1.387 . S
C932 H917 0.930 . S
C932 C927 1.390 . S
C932 C931 1.387 . S
H933 C945 0.930 . S
H934 C947 0.930 . S
H935 C948 0.930 . S
H936 C952 0.959 . S
H937 C952 0.959 . S
H938 C952 0.961 . S
H939 C953 0.960 . S
H940 C953 0.961 . S
H941 C953 0.959 . S
H942 C956 0.929 . S
H943 C957 0.931 . S
H944 C959 0.930 . S
C945 H933 0.930 . S
C945 C946 1.399 . S
C945 C950 1.399 . S
C946 C945 1.399 . S
C946 C947 1.376 . S
C947 H934 0.930 . S
C947 C946 1.376 . S
C947 C948 1.388 . S
C948 H935 0.930 . S
C948 C947 1.388 . S
C948 C949 1.390 . S
C949 C948 1.390 . S
C949 C950 1.394 . S
C949 C955 1.465 . S
C950 C945 1.399 . S
C950 C949 1.394 . S
C950 C951 1.516 . S
C951 C950 1.516 . S
C951 C952 1.502 . S
C951 C953 1.561 . S
C951 C954 1.526 . S
C952 H936 0.959 . S
C952 H937 0.959 . S
C952 H938 0.961 . S
C952 C951 1.502 . S
C953 H939 0.960 . S
C953 H940 0.961 . S
C953 H941 0.959 . S
C953 C951 1.561 . S
C954 C951 1.526 . S
C954 C955 1.396 . S
C954 C959 1.390 . S
C955 C949 1.465 . S
C955 C954 1.396 . S
C955 C956 1.399 . S
C956 H942 0.929 . S
C956 C955 1.399 . S
C956 C957 1.385 . S
C957 H943 0.931 . S
C957 C956 1.385 . S
C957 C958 1.389 . S
C958 C957 1.389 . S
C958 C959 1.387 . S
C959 H944 0.930 . S
C959 C954 1.390 . S
C959 C958 1.387 . S
H960 C972 0.930 . S
H961 C974 0.930 . S
H962 C975 0.930 . S
H963 C979 0.959 . S
H964 C979 0.959 . S
H965 C979 0.961 1_545 S
H966 C980 0.960 1_545 S
H967 C980 0.961 . S
H968 C980 0.959 . S
H969 C983 0.929 . S
H970 C984 0.931 . S
H971 C986 0.930 . S
C972 H960 0.930 . S
C972 C973 1.401 . S
C972 C977 1.399 . S
C973 C972 1.401 . S
C973 C974 1.374 1_455 S
C974 H961 0.930 . S
C974 C973 1.374 1_655 S
C974 C975 1.388 . S
C975 H962 0.930 . S
C975 C974 1.388 . S
C975 C976 1.390 . S
C976 C975 1.390 . S
C976 C977 1.394 1_655 S
C976 C982 1.465 1_545 S
C977 C972 1.399 . S
C977 C976 1.394 1_455 S
C977 C978 1.516 1_545 S
C978 C977 1.516 1_565 S
C978 C979 1.502 . S
C978 C980 1.561 . S
C978 C981 1.526 . S
C979 H963 0.959 . S
C979 H964 0.959 . S
C979 H965 0.961 1_565 S
C979 C978 1.502 . S
C980 H966 0.960 1_565 S
C980 H967 0.961 . S
C980 H968 0.959 . S
C980 C978 1.561 . S
C981 C978 1.526 . S
C981 C982 1.396 1_455 S
C981 C986 1.390 . S
C982 C976 1.465 1_565 S
C982 C981 1.396 1_655 S
C982 C983 1.399 . S
C983 H969 0.929 . S
C983 C982 1.399 . S
C983 C984 1.385 . S
C984 H970 0.931 . S
C984 C983 1.385 . S
C984 C985 1.389 . S
C985 C984 1.389 . S
C985 C986 1.387 1_655 S
C986 H971 0.930 . S
C986 C981 1.390 . S
C986 C985 1.387 1_455 S
H987 C999 0.930 . S
H988 C1001 0.930 . S
H989 C1002 0.930 . S
H990 C1006 0.959 1_655 S
H991 C1006 0.959 1_655 S
H992 C1006 0.961 . S
H993 C1007 0.960 1_455 S
H994 C1007 0.961 . S
H995 C1007 0.959 . S
H996 C1010 0.929 . S
H997 C1011 0.931 . S
H998 C1013 0.930 . S
C999 H987 0.930 . S
C999 C1000 1.399 1_545 S
C999 C1004 1.399 . S
C1000 C999 1.399 1_565 S
C1000 C1001 1.376 . S
C1001 H988 0.930 . S
C1001 C1000 1.376 . S
C1001 C1002 1.388 . S
C1002 H989 0.930 . S
C1002 C1001 1.388 . S
C1002 C1003 1.390 . S
C1003 C1002 1.390 . S
C1003 C1004 1.394 1_565 S
C1003 C1009 1.465 1_455 S
C1004 C999 1.399 . S
C1004 C1003 1.394 1_545 S
C1004 C1005 1.526 . S
C1005 C1004 1.526 . S
C1005 C1006 1.502 . S
C1005 C1007 1.561 1_445 S
C1005 C1008 1.516 1_455 S
C1006 H990 0.959 1_455 S
C1006 H991 0.959 1_455 S
C1006 H992 0.961 . S
C1006 C1005 1.502 . S
C1007 H993 0.960 1_655 S
C1007 H994 0.961 . S
C1007 H995 0.959 . S
C1007 C1005 1.561 1_665 S
C1008 C1005 1.516 1_655 S
C1008 C1009 1.396 1_545 S
C1008 C1013 1.390 . S
C1009 C1003 1.465 1_655 S
C1009 C1008 1.396 1_565 S
C1009 C1010 1.399 . S
C1010 H996 0.929 . S
C1010 C1009 1.399 . S
C1010 C1011 1.385 . S
C1011 H997 0.931 . S
C1011 C1010 1.385 . S
C1011 C1012 1.389 1_565 S
C1012 C1011 1.389 1_545 S
C1012 C1013 1.387 . S
C1013 H998 0.930 . S
C1013 C1008 1.390 . S
C1013 C1012 1.387 . S
H1014 C1026 0.930 . S
H1015 C1028 0.930 . S
H1016 C1029 0.930 . S
H1017 C1033 0.959 . S
H1018 C1033 0.959 . S
H1019 C1033 0.961 . S
H1020 C1034 0.960 . S
H1021 C1034 0.961 . S
H1022 C1034 0.959 . S
H1023 C1037 0.929 . S
H1024 C1038 0.931 . S
H1025 C1040 0.930 . S
C1026 H1014 0.930 . S
C1026 C1027 1.399 . S
C1026 C1031 1.399 . S
C1027 C1026 1.399 . S
C1027 C1028 1.376 1_655 S
C1028 H1015 0.930 . S
C1028 C1027 1.376 1_455 S
C1028 C1029 1.388 . S
C1029 H1016 0.930 . S
C1029 C1028 1.388 . S
C1029 C1030 1.390 . S
C1030 C1029 1.390 . S
C1030 C1031 1.394 1_455 S
C1030 C1036 1.465 . S
C1031 C1026 1.399 . S
C1031 C1030 1.394 1_655 S
C1031 C1032 1.516 . S
C1032 C1031 1.516 . S
C1032 C1033 1.502 . S
C1032 C1034 1.561 1_655 S
C1032 C1035 1.526 . S
C1033 H1017 0.959 . S
C1033 H1018 0.959 . S
C1033 H1019 0.961 . S
C1033 C1032 1.502 . S
C1034 H1020 0.960 . S
C1034 H1021 0.961 . S
C1034 H1022 0.959 . S
C1034 C1032 1.561 1_455 S
C1035 C1032 1.526 . S
C1035 C1036 1.396 1_655 S
C1035 C1040 1.390 . S
C1036 C1030 1.465 . S
C1036 C1035 1.396 1_455 S
C1036 C1037 1.399 . S
C1037 H1023 0.929 . S
C1037 C1036 1.399 . S
C1037 C1038 1.385 . S
C1038 H1024 0.931 . S
C1038 C1037 1.385 . S
C1038 C1039 1.389 . S
C1039 C1038 1.389 . S
C1039 C1040 1.387 1_455 S
C1040 H1025 0.930 . S
C1040 C1035 1.390 . S
C1040 C1039 1.387 1_655 S
H1041 C1053 0.930 . S
H1042 C1055 0.930 . S
H1043 C1056 0.930 . S
H1044 C1060 0.959 . S
H1045 C1060 0.959 . S
H1046 C1060 0.961 . S
H1047 C1061 0.960 . S
H1048 C1061 0.961 . S
H1049 C1061 0.959 . S
H1050 C1064 0.929 . S
H1051 C1065 0.931 . S
H1052 C1067 0.930 . S
C1053 H1041 0.930 . S
C1053 C1054 1.399 1_565 S
C1053 C1058 1.398 1_565 S
C1054 C1053 1.399 1_545 S
C1054 C1055 1.376 . S
C1055 H1042 0.930 . S
C1055 C1054 1.376 . S
C1055 C1056 1.388 . S
C1056 H1043 0.930 . S
C1056 C1055 1.388 . S
C1056 C1057 1.390 . S
C1057 C1056 1.390 . S
C1057 C1058 1.396 . S
C1057 C1063 1.465 . S
C1058 C1053 1.398 1_545 S
C1058 C1057 1.396 . S
C1058 C1059 1.515 1_545 S
C1059 C1058 1.515 1_565 S
C1059 C1060 1.502 . S
C1059 C1061 1.561 1_565 S
C1059 C1062 1.526 . S
C1060 H1044 0.959 . S
C1060 H1045 0.959 . S
C1060 H1046 0.961 . S
C1060 C1059 1.502 . S
C1061 H1047 0.960 . S
C1061 H1048 0.961 . S
C1061 H1049 0.959 . S
C1061 C1059 1.561 1_545 S
C1062 C1059 1.526 . S
C1062 C1063 1.396 1_565 S
C1062 C1067 1.390 . S
C1063 C1057 1.465 . S
C1063 C1062 1.396 1_545 S
C1063 C1064 1.399 . S
C1064 H1050 0.929 . S
C1064 C1063 1.399 . S
C1064 C1065 1.385 . S
C1065 H1051 0.931 . S
C1065 C1064 1.385 . S
C1065 C1066 1.389 1_545 S
C1066 C1065 1.389 1_565 S
C1066 C1067 1.387 . S
C1067 H1052 0.930 . S
C1067 C1062 1.390 . S
C1067 C1066 1.387 . S
H1068 C1080 0.930 . S
H1069 C1082 0.930 . S
H1070 C1083 0.930 . S
H1071 C1087 0.959 . S
H1072 C1087 0.959 . S
H1073 C1087 0.961 . S
H1074 C1088 0.960 . S
H1075 C1088 0.961 . S
H1076 C1088 0.959 . S
H1077 C1091 0.929 . S
H1078 C1092 0.931 . S
H1079 C1094 0.930 . S
C1080 H1068 0.930 . S
C1080 C1081 1.399 . S
C1080 C1085 1.399 . S
C1081 C1080 1.399 . S
C1081 C1082 1.376 . S
C1082 H1069 0.930 . S
C1082 C1081 1.376 . S
C1082 C1083 1.388 . S
C1083 H1070 0.930 . S
C1083 C1082 1.388 . S
C1083 C1084 1.390 . S
C1084 C1083 1.390 . S
C1084 C1085 1.394 . S
C1084 C1090 1.465 . S
C1085 C1080 1.399 . S
C1085 C1084 1.394 . S
C1085 C1086 1.516 . S
C1086 C1085 1.516 . S
C1086 C1087 1.502 . S
C1086 C1088 1.561 . S
C1086 C1089 1.526 . S
C1087 H1071 0.959 . S
C1087 H1072 0.959 . S
C1087 H1073 0.961 . S
C1087 C1086 1.502 . S
C1088 H1074 0.960 . S
C1088 H1075 0.961 . S
C1088 H1076 0.959 . S
C1088 C1086 1.561 . S
C1089 C1086 1.526 . S
C1089 C1090 1.396 . S
C1089 C1094 1.390 . S
C1090 C1084 1.465 . S
C1090 C1089 1.396 . S
C1090 C1091 1.399 . S
C1091 H1077 0.929 . S
C1091 C1090 1.399 . S
C1091 C1092 1.385 . S
C1092 H1078 0.931 . S
C1092 C1091 1.385 . S
C1092 C1093 1.389 . S
C1093 C1092 1.389 . S
C1093 C1094 1.387 . S
C1094 H1079 0.930 . S
C1094 C1089 1.390 . S
C1094 C1093 1.387 . S
H1095 C1107 0.930 . S
H1096 C1109 0.930 . S
H1097 C1110 0.930 . S
H1098 C1114 0.959 . S
H1099 C1114 0.959 . S
H1100 C1114 0.961 . S
H1101 C1115 0.960 . S
H1102 C1115 0.961 . S
H1103 C1115 0.959 . S
H1104 C1118 0.929 . S
H1105 C1119 0.931 . S
H1106 C1121 0.930 . S
C1107 H1095 0.930 . S
C1107 C1108 1.399 . S
C1107 C1112 1.399 . S
C1108 C1107 1.399 . S
C1108 C1109 1.376 . S
C1109 H1096 0.930 . S
C1109 C1108 1.376 . S
C1109 C1110 1.388 . S
C1110 H1097 0.930 . S
C1110 C1109 1.388 . S
C1110 C1111 1.390 . S
C1111 C1110 1.390 . S
C1111 C1112 1.394 . S
C1111 C1117 1.465 . S
C1112 C1107 1.399 . S
C1112 C1111 1.394 . S
C1112 C1113 1.516 . S
C1113 C1112 1.516 . S
C1113 C1114 1.502 . S
C1113 C1115 1.561 . S
C1113 C1116 1.526 . S
C1114 H1098 0.959 . S
C1114 H1099 0.959 . S
C1114 H1100 0.961 . S
C1114 C1113 1.502 . S
C1115 H1101 0.960 . S
C1115 H1102 0.961 . S
C1115 H1103 0.959 . S
C1115 C1113 1.561 . S
C1116 C1113 1.526 . S
C1116 C1117 1.396 . S
C1116 C1121 1.390 . S
C1117 C1111 1.465 . S
C1117 C1116 1.396 . S
C1117 C1118 1.399 . S
C1118 H1104 0.929 . S
C1118 C1117 1.399 . S
C1118 C1119 1.385 . S
C1119 H1105 0.931 . S
C1119 C1118 1.385 . S
C1119 C1120 1.389 . S
C1120 C1119 1.389 . S
C1120 C1121 1.387 . S
C1121 H1106 0.930 . S
C1121 C1116 1.390 . S
C1121 C1120 1.387 . S
H1122 C1134 0.930 . S
H1123 C1136 0.930 . S
H1124 C1137 0.930 . S
H1125 C1141 0.959 . S
H1126 C1141 0.959 . S
H1127 C1141 0.961 1_565 S
H1128 C1142 0.960 . S
H1129 C1142 0.961 1_545 S
H1130 C1142 0.959 1_545 S
H1131 C1145 0.929 . S
H1132 C1146 0.931 . S
H1133 C1148 0.930 . S
C1134 H1122 0.930 . S
C1134 C1135 1.399 . S
C1134 C1139 1.399 . S
C1135 C1134 1.399 . S
C1135 C1136 1.376 . S
C1136 H1123 0.930 . S
C1136 C1135 1.376 . S
C1136 C1137 1.388 . S
C1137 H1124 0.930 . S
C1137 C1136 1.388 . S
C1137 C1138 1.390 . S
C1138 C1137 1.390 . S
C1138 C1139 1.394 . S
C1138 C1144 1.465 1_565 S
C1139 C1134 1.399 . S
C1139 C1138 1.394 . S
C1139 C1140 1.509 1_565 S
C1140 C1139 1.509 1_545 S
C1140 C1141 1.502 . S
C1140 C1142 1.561 1_545 S
C1140 C1143 1.533 . S
C1141 H1125 0.959 . S
C1141 H1126 0.959 . S
C1141 H1127 0.961 1_545 S
C1141 C1140 1.502 . S
C1142 H1128 0.960 . S
C1142 H1129 0.961 1_565 S
C1142 H1130 0.959 1_565 S
C1142 C1140 1.561 1_565 S
C1143 C1140 1.533 . S
C1143 C1144 1.396 . S
C1143 C1148 1.390 . S
C1144 C1138 1.465 1_545 S
C1144 C1143 1.396 . S
C1144 C1145 1.399 . S
C1145 H1131 0.929 . S
C1145 C1144 1.399 . S
C1145 C1146 1.385 . S
C1146 H1132 0.931 . S
C1146 C1145 1.385 . S
C1146 C1147 1.389 . S
C1147 C1146 1.389 . S
C1147 C1148 1.387 . S
C1148 H1133 0.930 . S
C1148 C1143 1.390 . S
C1148 C1147 1.387 . S
H1149 C1161 0.930 . S
H1150 C1163 0.930 . S
H1151 C1164 0.930 . S
H1152 C1168 0.959 1_655 S
H1153 C1168 0.959 1_655 S
H1154 C1168 0.961 . S
H1155 C1169 0.960 1_455 S
H1156 C1169 0.961 . S
H1157 C1169 0.959 . S
H1158 C1172 0.929 . S
H1159 C1173 0.931 . S
H1160 C1175 0.930 . S
C1161 H1149 0.930 . S
C1161 C1162 1.399 . S
C1161 C1166 1.399 . S
C1162 C1161 1.399 . S
C1162 C1163 1.376 . S
C1163 H1150 0.930 . S
C1163 C1162 1.376 . S
C1163 C1164 1.388 . S
C1164 H1151 0.930 . S
C1164 C1163 1.388 . S
C1164 C1165 1.390 . S
C1165 C1164 1.390 . S
C1165 C1166 1.394 . S
C1165 C1171 1.465 1_455 S
C1166 C1161 1.399 . S
C1166 C1165 1.394 . S
C1166 C1167 1.522 . S
C1167 C1166 1.522 . S
C1167 C1168 1.502 . S
C1167 C1169 1.561 1_455 S
C1167 C1170 1.520 1_455 S
C1168 H1152 0.959 1_455 S
C1168 H1153 0.959 1_455 S
C1168 H1154 0.961 . S
C1168 C1167 1.502 . S
C1169 H1155 0.960 1_655 S
C1169 H1156 0.961 . S
C1169 H1157 0.959 . S
C1169 C1167 1.561 1_655 S
C1170 C1167 1.520 1_655 S
C1170 C1171 1.396 . S
C1170 C1175 1.390 . S
C1171 C1165 1.465 1_655 S
C1171 C1170 1.396 . S
C1171 C1172 1.399 . S
C1172 H1158 0.929 . S
C1172 C1171 1.399 . S
C1172 C1173 1.385 . S
C1173 H1159 0.931 . S
C1173 C1172 1.385 . S
C1173 C1174 1.389 . S
C1174 C1173 1.389 . S
C1174 C1175 1.387 . S
C1175 H1160 0.930 . S
C1175 C1170 1.390 . S
C1175 C1174 1.387 . S
H1176 C1188 0.930 . S
H1177 C1190 0.930 . S
H1178 C1191 0.928 1_655 S
H1179 C1195 0.959 . S
H1180 C1195 0.959 . S
H1181 C1195 0.961 . S
H1182 C1196 0.960 . S
H1183 C1196 0.961 . S
H1184 C1196 0.959 . S
H1185 C1199 0.929 . S
H1186 C1200 0.931 . S
H1187 C1202 0.930 . S
C1188 H1176 0.930 . S
C1188 C1189 1.399 . S
C1188 C1193 1.399 . S
C1189 C1188 1.399 . S
C1189 C1190 1.376 . S
C1190 H1177 0.930 . S
C1190 C1189 1.376 . S
C1190 C1191 1.388 . S
C1191 H1178 0.928 1_455 S
C1191 C1190 1.388 . S
C1191 C1192 1.390 . S
C1192 C1191 1.390 . S
C1192 C1193 1.394 . S
C1192 C1198 1.465 1_455 S
C1193 C1188 1.399 . S
C1193 C1192 1.394 . S
C1193 C1194 1.516 . S
C1194 C1193 1.516 . S
C1194 C1195 1.502 1_455 S
C1194 C1196 1.561 . S
C1194 C1197 1.526 . S
C1195 H1179 0.959 . S
C1195 H1180 0.959 . S
C1195 H1181 0.961 . S
C1195 C1194 1.502 1_655 S
C1196 H1182 0.960 . S
C1196 H1183 0.961 . S
C1196 H1184 0.959 . S
C1196 C1194 1.561 . S
C1197 C1194 1.526 . S
C1197 C1198 1.396 1_455 S
C1197 C1202 1.390 1_455 S
C1198 C1192 1.465 1_655 S
C1198 C1197 1.396 1_655 S
C1198 C1199 1.399 . S
C1199 H1185 0.929 . S
C1199 C1198 1.399 . S
C1199 C1200 1.385 . S
C1200 H1186 0.931 . S
C1200 C1199 1.385 . S
C1200 C1201 1.389 . S
C1201 C1200 1.389 . S
C1201 C1202 1.387 . S
C1202 H1187 0.930 . S
C1202 C1197 1.390 1_655 S
C1202 C1201 1.387 . S
H1203 C1215 0.930 . S
H1204 C1217 0.930 . S
H1205 C1218 0.930 . S
H1206 C1222 0.959 . S
H1207 C1222 0.959 . S
H1208 C1222 0.961 . S
H1209 C1223 0.960 1_545 S
H1210 C1223 0.961 . S
H1211 C1223 0.959 . S
H1212 C1226 0.929 . S
H1213 C1227 0.931 . S
H1214 C1229 0.930 . S
C1215 H1203 0.930 . S
C1215 C1216 1.399 . S
C1215 C1220 1.399 . S
C1216 C1215 1.399 . S
C1216 C1217 1.376 1_545 S
C1217 H1204 0.930 . S
C1217 C1216 1.376 1_565 S
C1217 C1218 1.388 . S
C1218 H1205 0.930 . S
C1218 C1217 1.388 . S
C1218 C1219 1.390 . S
C1219 C1218 1.390 . S
C1219 C1220 1.394 1_565 S
C1219 C1225 1.465 . S
C1220 C1215 1.399 . S
C1220 C1219 1.394 1_545 S
C1220 C1221 1.516 . S
C1221 C1220 1.516 . S
C1221 C1222 1.502 . S
C1221 C1223 1.561 1_545 S
C1221 C1224 1.526 . S
C1222 H1206 0.959 . S
C1222 H1207 0.959 . S
C1222 H1208 0.961 . S
C1222 C1221 1.502 . S
C1223 H1209 0.960 1_565 S
C1223 H1210 0.961 . S
C1223 H1211 0.959 . S
C1223 C1221 1.561 1_565 S
C1224 C1221 1.526 . S
C1224 C1225 1.396 1_545 S
C1224 C1229 1.390 . S
C1225 C1219 1.465 . S
C1225 C1224 1.396 1_565 S
C1225 C1226 1.399 . S
C1226 H1212 0.929 . S
C1226 C1225 1.399 . S
C1226 C1227 1.385 . S
C1227 H1213 0.931 . S
C1227 C1226 1.385 . S
C1227 C1228 1.389 . S
C1228 C1227 1.389 . S
C1228 C1229 1.387 1_565 S
C1229 H1214 0.930 . S
C1229 C1224 1.390 . S
C1229 C1228 1.387 1_545 S
H1230 C1242 0.930 . S
H1231 C1244 0.930 . S
H1232 C1245 0.930 . S
H1233 C1249 0.959 . S
H1234 C1249 0.959 . S
H1235 C1249 0.961 1_545 S
H1236 C1250 0.960 . S
H1237 C1250 0.961 1_565 S
H1238 C1250 0.959 . S
H1239 C1253 0.929 . S
H1240 C1254 0.931 . S
H1241 C1256 0.930 1_655 S
C1242 H1230 0.930 . S
C1242 C1243 1.399 . S
C1242 C1247 1.399 . S
C1243 C1242 1.399 . S
C1243 C1244 1.376 1_655 S
C1244 H1231 0.930 . S
C1244 C1243 1.376 1_455 S
C1244 C1245 1.388 . S
C1245 H1232 0.930 . S
C1245 C1244 1.388 . S
C1245 C1246 1.390 . S
C1246 C1245 1.390 . S
C1246 C1247 1.394 1_455 S
C1246 C1252 1.465 1_545 S
C1247 C1242 1.399 . S
C1247 C1246 1.394 1_655 S
C1247 C1248 1.516 1_545 S
C1248 C1247 1.516 1_565 S
C1248 C1249 1.502 . S
C1248 C1250 1.561 1_665 S
C1248 C1251 1.526 1_655 S
C1249 H1233 0.959 . S
C1249 H1234 0.959 . S
C1249 H1235 0.961 1_565 S
C1249 C1248 1.502 . S
C1250 H1236 0.960 . S
C1250 H1237 0.961 1_545 S
C1250 H1238 0.959 . S
C1250 C1248 1.561 1_445 S
C1251 C1248 1.526 1_455 S
C1251 C1252 1.396 . S
C1251 C1256 1.390 . S
C1252 C1246 1.465 1_565 S
C1252 C1251 1.396 . S
C1252 C1253 1.399 . S
C1253 H1239 0.929 . S
C1253 C1252 1.399 . S
C1253 C1254 1.385 . S
C1254 H1240 0.931 . S
C1254 C1253 1.385 . S
C1254 C1255 1.389 . S
C1255 C1254 1.389 . S
C1255 C1256 1.387 . S
C1256 H1241 0.930 1_455 S
C1256 C1251 1.390 . S
C1256 C1255 1.387 . S
H1257 C1269 0.930 . S
H1258 C1271 0.930 . S
H1259 C1272 0.930 . S
H1260 C1276 0.959 . S
H1261 C1276 0.959 1_455 S
H1262 C1276 0.961 . S
H1263 C1277 0.961 1_655 S
H1264 C1277 0.960 . S
H1265 C1277 0.959 1_565 S
H1266 C1280 0.929 . S
H1267 C1281 0.931 . S
H1268 C1283 0.930 . S
C1269 H1257 0.930 . S
C1269 C1270 1.399 1_545 S
C1269 C1274 1.399 . S
C1270 C1269 1.399 1_565 S
C1270 C1271 1.376 . S
C1271 H1258 0.930 . S
C1271 C1270 1.376 . S
C1271 C1272 1.388 . S
C1272 H1259 0.930 . S
C1272 C1271 1.388 . S
C1272 C1273 1.390 . S
C1273 C1272 1.390 . S
C1273 C1274 1.394 1_565 S
C1273 C1279 1.465 1_655 S
C1274 C1269 1.399 . S
C1274 C1273 1.394 1_545 S
C1274 C1275 1.516 . S
C1275 C1274 1.516 . S
C1275 C1276 1.502 . S
C1275 C1277 1.561 1_655 S
C1275 C1278 1.526 1_655 S
C1276 H1260 0.959 . S
C1276 H1261 0.959 1_655 S
C1276 H1262 0.961 . S
C1276 C1275 1.502 . S
C1277 H1263 0.961 1_455 S
C1277 H1264 0.960 . S
C1277 H1265 0.959 1_545 S
C1277 C1275 1.561 1_455 S
C1278 C1275 1.526 1_455 S
C1278 C1279 1.396 1_545 S
C1278 C1283 1.390 . S
C1279 C1273 1.465 1_455 S
C1279 C1278 1.396 1_565 S
C1279 C1280 1.399 . S
C1280 H1266 0.929 . S
C1280 C1279 1.399 . S
C1280 C1281 1.385 . S
C1281 H1267 0.931 . S
C1281 C1280 1.385 . S
C1281 C1282 1.389 1_565 S
C1282 C1281 1.389 1_545 S
C1282 C1283 1.387 . S
C1283 H1268 0.930 . S
C1283 C1278 1.390 . S
C1283 C1282 1.387 . S
H1284 C1296 0.930 . S
H1285 C1298 0.930 . S
H1286 C1299 0.930 . S
H1287 C1303 0.959 . S
H1288 C1303 0.959 1_565 S
H1289 C1303 0.961 . S
H1290 C1304 0.960 . S
H1291 C1304 0.961 1_565 S
H1292 C1304 0.959 1_565 S
H1293 C1307 0.929 . S
H1294 C1308 0.931 . S
H1295 C1310 0.930 . S
C1296 H1284 0.930 . S
C1296 C1297 1.399 . S
C1296 C1301 1.399 . S
C1297 C1296 1.399 . S
C1297 C1298 1.376 . S
C1298 H1285 0.930 . S
C1298 C1297 1.376 . S
C1298 C1299 1.388 . S
C1299 H1286 0.930 . S
C1299 C1298 1.388 . S
C1299 C1300 1.390 . S
C1300 C1299 1.390 . S
C1300 C1301 1.394 . S
C1300 C1306 1.465 1_545 S
C1301 C1296 1.399 . S
C1301 C1300 1.394 . S
C1301 C1302 1.516 . S
C1302 C1301 1.516 . S
C1302 C1303 1.502 . S
C1302 C1304 1.561 . S
C1302 C1305 1.526 1_545 S
C1303 H1287 0.959 . S
C1303 H1288 0.959 1_545 S
C1303 H1289 0.961 . S
C1303 C1302 1.502 . S
C1304 H1290 0.960 . S
C1304 H1291 0.961 1_545 S
C1304 H1292 0.959 1_545 S
C1304 C1302 1.561 . S
C1305 C1302 1.526 1_565 S
C1305 C1306 1.396 . S
C1305 C1310 1.390 . S
C1306 C1300 1.465 1_565 S
C1306 C1305 1.396 . S
C1306 C1307 1.399 . S
C1307 H1293 0.929 . S
C1307 C1306 1.399 . S
C1307 C1308 1.385 . S
C1308 H1294 0.931 . S
C1308 C1307 1.385 . S
C1308 C1309 1.389 . S
C1309 C1308 1.389 . S
C1309 C1310 1.387 . S
C1310 H1295 0.930 . S
C1310 C1305 1.390 . S
C1310 C1309 1.387 . S
H1311 C1323 0.930 . S
H1312 C1325 0.930 . S
H1313 C1326 0.930 . S
H1314 C1330 0.959 . S
H1315 C1330 0.959 . S
H1316 C1330 0.961 1_655 S
H1317 C1331 0.960 . S
H1318 C1331 0.961 1_455 S
H1319 C1331 0.959 . S
H1320 C1334 0.929 . S
H1321 C1335 0.931 . S
H1322 C1337 0.930 . S
C1323 H1311 0.930 . S
C1323 C1324 1.399 . S
C1323 C1328 1.399 . S
C1324 C1323 1.399 . S
C1324 C1325 1.376 . S
C1325 H1312 0.930 . S
C1325 C1324 1.376 . S
C1325 C1326 1.388 . S
C1326 H1313 0.930 . S
C1326 C1325 1.388 . S
C1326 C1327 1.390 . S
C1327 C1326 1.390 . S
C1327 C1328 1.394 . S
C1327 C1333 1.465 1_655 S
C1328 C1323 1.399 . S
C1328 C1327 1.394 . S
C1328 C1329 1.516 1_655 S
C1329 C1328 1.516 1_455 S
C1329 C1330 1.502 . S
C1329 C1331 1.561 1_455 S
C1329 C1332 1.526 . S
C1330 H1314 0.959 . S
C1330 H1315 0.959 . S
C1330 H1316 0.961 1_455 S
C1330 C1329 1.502 . S
C1331 H1317 0.960 . S
C1331 H1318 0.961 1_655 S
C1331 H1319 0.959 . S
C1331 C1329 1.561 1_655 S
C1332 C1329 1.526 . S
C1332 C1333 1.396 . S
C1332 C1337 1.390 . S
C1333 C1327 1.465 1_455 S
C1333 C1332 1.396 . S
C1333 C1334 1.399 . S
C1334 H1320 0.929 . S
C1334 C1333 1.399 . S
C1334 C1335 1.385 . S
C1335 H1321 0.931 . S
C1335 C1334 1.385 . S
C1335 C1336 1.389 . S
C1336 C1335 1.389 . S
C1336 C1337 1.387 . S
C1337 H1322 0.930 . S
C1337 C1332 1.390 . S
C1337 C1336 1.387 . S
H1338 C1350 0.930 . S
H1339 C1352 0.930 . S
H1340 C1353 0.930 . S
H1341 C1357 0.959 . S
H1342 C1357 0.959 . S
H1343 C1357 0.961 . S
H1344 C1358 0.960 . S
H1345 C1358 0.961 . S
H1346 C1358 0.959 . S
H1347 C1361 0.929 . S
H1348 C1362 0.931 . S
H1349 C1364 0.930 . S
C1350 H1338 0.930 . S
C1350 C1351 1.399 . S
C1350 C1355 1.399 . S
C1351 C1350 1.399 . S
C1351 C1352 1.376 . S
C1352 H1339 0.930 . S
C1352 C1351 1.376 . S
C1352 C1353 1.388 . S
C1353 H1340 0.930 . S
C1353 C1352 1.388 . S
C1353 C1354 1.390 . S
C1354 C1353 1.390 . S
C1354 C1355 1.394 . S
C1354 C1360 1.465 . S
C1355 C1350 1.399 . S
C1355 C1354 1.394 . S
C1355 C1356 1.516 . S
C1356 C1355 1.516 . S
C1356 C1357 1.502 . S
C1356 C1358 1.561 . S
C1356 C1359 1.526 . S
C1357 H1341 0.959 . S
C1357 H1342 0.959 . S
C1357 H1343 0.961 . S
C1357 C1356 1.502 . S
C1358 H1344 0.960 . S
C1358 H1345 0.961 . S
C1358 H1346 0.959 . S
C1358 C1356 1.561 . S
C1359 C1356 1.526 . S
C1359 C1360 1.396 . S
C1359 C1364 1.390 . S
C1360 C1354 1.465 . S
C1360 C1359 1.396 . S
C1360 C1361 1.399 . S
C1361 H1347 0.929 . S
C1361 C1360 1.399 . S
C1361 C1362 1.385 . S
C1362 H1348 0.931 . S
C1362 C1361 1.385 . S
C1362 C1363 1.389 . S
C1363 C1362 1.389 . S
C1363 C1364 1.387 . S
C1364 H1349 0.930 . S
C1364 C1359 1.390 . S
C1364 C1363 1.387 . S
H1365 C1377 0.930 . S
H1366 C1379 0.930 . S
H1367 C1380 0.930 . S
H1368 C1384 0.959 . S
H1369 C1384 0.959 . S
H1370 C1384 0.961 . S
H1371 C1385 0.960 . S
H1372 C1385 0.961 . S
H1373 C1385 0.959 . S
H1374 C1388 0.929 . S
H1375 C1389 0.931 . S
H1376 C1391 0.930 . S
C1377 H1365 0.930 . S
C1377 C1378 1.399 . S
C1377 C1382 1.399 . S
C1378 C1377 1.399 . S
C1378 C1379 1.376 . S
C1379 H1366 0.930 . S
C1379 C1378 1.376 . S
C1379 C1380 1.388 . S
C1380 H1367 0.930 . S
C1380 C1379 1.388 . S
C1380 C1381 1.390 . S
C1381 C1380 1.390 . S
C1381 C1382 1.394 . S
C1381 C1387 1.465 . S
C1382 C1377 1.399 . S
C1382 C1381 1.394 . S
C1382 C1383 1.516 . S
C1383 C1382 1.516 . S
C1383 C1384 1.502 . S
C1383 C1385 1.561 . S
C1383 C1386 1.526 . S
C1384 H1368 0.959 . S
C1384 H1369 0.959 . S
C1384 H1370 0.961 . S
C1384 C1383 1.502 . S
C1385 H1371 0.960 . S
C1385 H1372 0.961 . S
C1385 H1373 0.959 . S
C1385 C1383 1.561 . S
C1386 C1383 1.526 . S
C1386 C1387 1.396 . S
C1386 C1391 1.390 . S
C1387 C1381 1.465 . S
C1387 C1386 1.396 . S
C1387 C1388 1.399 . S
C1388 H1374 0.929 . S
C1388 C1387 1.399 . S
C1388 C1389 1.385 . S
C1389 H1375 0.931 . S
C1389 C1388 1.385 . S
C1389 C1390 1.389 . S
C1390 C1389 1.389 . S
C1390 C1391 1.387 . S
C1391 H1376 0.930 . S
C1391 C1386 1.390 . S
C1391 C1390 1.387 . S
H1392 C1404 0.930 . S
H1393 C1406 0.930 . S
H1394 C1407 0.930 . S
H1395 C1411 0.959 . S
H1396 C1411 0.959 . S
H1397 C1411 0.961 . S
H1398 C1412 0.960 . S
H1399 C1412 0.961 . S
H1400 C1412 0.959 . S
H1401 C1415 0.929 . S
H1402 C1416 0.931 . S
H1403 C1418 0.930 . S
C1404 H1392 0.930 . S
C1404 C1405 1.399 . S
C1404 C1409 1.399 . S
C1405 C1404 1.399 . S
C1405 C1406 1.376 . S
C1406 H1393 0.930 . S
C1406 C1405 1.376 . S
C1406 C1407 1.388 . S
C1407 H1394 0.930 . S
C1407 C1406 1.388 . S
C1407 C1408 1.390 . S
C1408 C1407 1.390 . S
C1408 C1409 1.394 . S
C1408 C1414 1.465 . S
C1409 C1404 1.399 . S
C1409 C1408 1.394 . S
C1409 C1410 1.516 . S
C1410 C1409 1.516 . S
C1410 C1411 1.502 . S
C1410 C1412 1.561 . S
C1410 C1413 1.526 . S
C1411 H1395 0.959 . S
C1411 H1396 0.959 . S
C1411 H1397 0.961 . S
C1411 C1410 1.502 . S
C1412 H1398 0.960 . S
C1412 H1399 0.961 . S
C1412 H1400 0.959 . S
C1412 C1410 1.561 . S
C1413 C1410 1.526 . S
C1413 C1414 1.396 . S
C1413 C1418 1.390 . S
C1414 C1408 1.465 . S
C1414 C1413 1.396 . S
C1414 C1415 1.399 . S
C1415 H1401 0.929 . S
C1415 C1414 1.399 . S
C1415 C1416 1.385 . S
C1416 H1402 0.931 . S
C1416 C1415 1.385 . S
C1416 C1417 1.389 . S
C1417 C1416 1.389 . S
C1417 C1418 1.387 . S
C1418 H1403 0.930 . S
C1418 C1413 1.390 . S
C1418 C1417 1.387 . S
H1419 C1431 0.930 . S
H1420 C1433 0.930 . S
H1421 C1434 0.930 . S
H1422 C1438 0.959 . S
H1423 C1438 0.959 . S
H1424 C1438 0.961 . S
H1425 C1439 0.960 . S
H1426 C1439 0.961 . S
H1427 C1439 0.959 . S
H1428 C1442 0.929 . S
H1429 C1443 0.931 . S
H1430 C1445 0.930 . S
C1431 H1419 0.930 . S
C1431 C1432 1.399 . S
C1431 C1436 1.399 . S
C1432 C1431 1.399 . S
C1432 C1433 1.376 . S
C1433 H1420 0.930 . S
C1433 C1432 1.376 . S
C1433 C1434 1.388 . S
C1434 H1421 0.930 . S
C1434 C1433 1.388 . S
C1434 C1435 1.390 . S
C1435 C1434 1.390 . S
C1435 C1436 1.394 . S
C1435 C1441 1.465 . S
C1436 C1431 1.399 . S
C1436 C1435 1.394 . S
C1436 C1437 1.516 . S
C1437 C1436 1.516 . S
C1437 C1438 1.502 . S
C1437 C1439 1.561 . S
C1437 C1440 1.526 . S
C1438 H1422 0.959 . S
C1438 H1423 0.959 . S
C1438 H1424 0.961 . S
C1438 C1437 1.502 . S
C1439 H1425 0.960 . S
C1439 H1426 0.961 . S
C1439 H1427 0.959 . S
C1439 C1437 1.561 . S
C1440 C1437 1.526 . S
C1440 C1441 1.396 . S
C1440 C1445 1.390 . S
C1441 C1435 1.465 . S
C1441 C1440 1.396 . S
C1441 C1442 1.399 . S
C1442 H1428 0.929 . S
C1442 C1441 1.399 . S
C1442 C1443 1.385 . S
C1443 H1429 0.931 . S
C1443 C1442 1.385 . S
C1443 C1444 1.389 . S
C1444 C1443 1.389 . S
C1444 C1445 1.387 . S
C1445 H1430 0.930 . S
C1445 C1440 1.390 . S
C1445 C1444 1.387 . S
H1446 C1458 0.930 . S
H1447 C1460 0.930 . S
H1448 C1461 0.930 . S
H1449 C1465 0.959 . S
H1450 C1465 0.959 . S
H1451 C1465 0.961 . S
H1452 C1466 0.960 . S
H1453 C1466 0.961 . S
H1454 C1466 0.959 . S
H1455 C1469 0.929 . S
H1456 C1470 0.931 . S
H1457 C1472 0.930 . S
C1458 H1446 0.930 . S
C1458 C1459 1.399 . S
C1458 C1463 1.399 . S
C1459 C1458 1.399 . S
C1459 C1460 1.376 . S
C1460 H1447 0.930 . S
C1460 C1459 1.376 . S
C1460 C1461 1.388 . S
C1461 H1448 0.930 . S
C1461 C1460 1.388 . S
C1461 C1462 1.390 . S
C1462 C1461 1.390 . S
C1462 C1463 1.394 . S
C1462 C1468 1.465 . S
C1463 C1458 1.399 . S
C1463 C1462 1.394 . S
C1463 C1464 1.516 . S
C1464 C1463 1.516 . S
C1464 C1465 1.502 . S
C1464 C1466 1.561 . S
C1464 C1467 1.526 . S
C1465 H1449 0.959 . S
C1465 H1450 0.959 . S
C1465 H1451 0.961 . S
C1465 C1464 1.502 . S
C1466 H1452 0.960 . S
C1466 H1453 0.961 . S
C1466 H1454 0.959 . S
C1466 C1464 1.561 . S
C1467 C1464 1.526 . S
C1467 C1468 1.396 . S
C1467 C1472 1.390 . S
C1468 C1462 1.465 . S
C1468 C1467 1.396 . S
C1468 C1469 1.399 . S
C1469 H1455 0.929 . S
C1469 C1468 1.399 . S
C1469 C1470 1.385 . S
C1470 H1456 0.931 . S
C1470 C1469 1.385 . S
C1470 C1471 1.389 . S
C1471 C1470 1.389 . S
C1471 C1472 1.387 . S
C1472 H1457 0.930 . S
C1472 C1467 1.390 . S
C1472 C1471 1.387 . S
H1473 C1485 0.930 . S
H1474 C1487 0.930 . S
H1475 C1488 0.930 . S
H1476 C1492 0.959 . S
H1477 C1492 0.959 . S
H1478 C1492 0.961 . S
H1479 C1493 0.960 . S
H1480 C1493 0.961 . S
H1481 C1493 0.959 . S
H1482 C1496 0.929 . S
H1483 C1497 0.931 . S
H1484 C1499 0.930 . S
C1485 H1473 0.930 . S
C1485 C1486 1.399 . S
C1485 C1490 1.399 . S
C1486 C1485 1.399 . S
C1486 C1487 1.376 . S
C1487 H1474 0.930 . S
C1487 C1486 1.376 . S
C1487 C1488 1.388 . S
C1488 H1475 0.930 . S
C1488 C1487 1.388 . S
C1488 C1489 1.390 . S
C1489 C1488 1.390 . S
C1489 C1490 1.394 . S
C1489 C1495 1.465 . S
C1490 C1485 1.399 . S
C1490 C1489 1.394 . S
C1490 C1491 1.516 . S
C1491 C1490 1.516 . S
C1491 C1492 1.502 . S
C1491 C1493 1.561 . S
C1491 C1494 1.526 . S
C1492 H1476 0.959 . S
C1492 H1477 0.959 . S
C1492 H1478 0.961 . S
C1492 C1491 1.502 . S
C1493 H1479 0.960 . S
C1493 H1480 0.961 . S
C1493 H1481 0.959 . S
C1493 C1491 1.561 . S
C1494 C1491 1.526 . S
C1494 C1495 1.396 . S
C1494 C1499 1.390 . S
C1495 C1489 1.465 . S
C1495 C1494 1.396 . S
C1495 C1496 1.399 . S
C1496 H1482 0.929 . S
C1496 C1495 1.399 . S
C1496 C1497 1.385 . S
C1497 H1483 0.931 . S
C1497 C1496 1.385 . S
C1497 C1498 1.389 . S
C1498 C1497 1.389 . S
C1498 C1499 1.387 . S
C1499 H1484 0.930 . S
C1499 C1494 1.390 . S
C1499 C1498 1.387 . S
H1500 C1512 0.930 . S
H1501 C1514 0.930 . S
H1502 C1515 0.930 . S
H1503 C1519 0.959 . S
H1504 C1519 0.959 . S
H1505 C1519 0.961 . S
H1506 C1520 0.960 . S
H1507 C1520 0.961 . S
H1508 C1520 0.959 . S
H1509 C1523 0.929 . S
H1510 C1524 0.931 . S
H1511 C1526 0.930 . S
C1512 H1500 0.930 . S
C1512 C1513 1.399 . S
C1512 C1517 1.399 . S
C1513 C1512 1.399 . S
C1513 C1514 1.376 . S
C1514 H1501 0.930 . S
C1514 C1513 1.376 . S
C1514 C1515 1.388 . S
C1515 H1502 0.930 . S
C1515 C1514 1.388 . S
C1515 C1516 1.390 . S
C1516 C1515 1.390 . S
C1516 C1517 1.394 . S
C1516 C1522 1.465 . S
C1517 C1512 1.399 . S
C1517 C1516 1.394 . S
C1517 C1518 1.516 . S
C1518 C1517 1.516 . S
C1518 C1519 1.502 . S
C1518 C1520 1.561 . S
C1518 C1521 1.526 . S
C1519 H1503 0.959 . S
C1519 H1504 0.959 . S
C1519 H1505 0.961 . S
C1519 C1518 1.502 . S
C1520 H1506 0.960 . S
C1520 H1507 0.961 . S
C1520 H1508 0.959 . S
C1520 C1518 1.561 . S
C1521 C1518 1.526 . S
C1521 C1522 1.396 . S
C1521 C1526 1.390 . S
C1522 C1516 1.465 . S
C1522 C1521 1.396 . S
C1522 C1523 1.399 . S
C1523 H1509 0.929 . S
C1523 C1522 1.399 . S
C1523 C1524 1.385 . S
C1524 H1510 0.931 . S
C1524 C1523 1.385 . S
C1524 C1525 1.389 . S
C1525 C1524 1.389 . S
C1525 C1526 1.387 . S
C1526 H1511 0.930 . S
C1526 C1521 1.390 . S
C1526 C1525 1.387 . S
H1527 C1539 0.930 . S
H1528 C1541 0.930 . S
H1529 C1542 0.930 . S
H1530 C1546 0.959 . S
H1531 C1546 0.959 . S
H1532 C1546 0.961 . S
H1533 C1547 0.960 . S
H1534 C1547 0.961 . S
H1535 C1547 0.959 . S
H1536 C1550 0.929 . S
H1537 C1551 0.931 . S
H1538 C1553 0.930 . S
C1539 H1527 0.930 . S
C1539 C1540 1.399 . S
C1539 C1544 1.399 . S
C1540 C1539 1.399 . S
C1540 C1541 1.376 . S
C1541 H1528 0.930 . S
C1541 C1540 1.376 . S
C1541 C1542 1.388 . S
C1542 H1529 0.930 . S
C1542 C1541 1.388 . S
C1542 C1543 1.390 . S
C1543 C1542 1.390 . S
C1543 C1544 1.394 . S
C1543 C1549 1.465 . S
C1544 C1539 1.399 . S
C1544 C1543 1.394 . S
C1544 C1545 1.516 . S
C1545 C1544 1.516 . S
C1545 C1546 1.502 . S
C1545 C1547 1.561 . S
C1545 C1548 1.526 . S
C1546 H1530 0.959 . S
C1546 H1531 0.959 . S
C1546 H1532 0.961 . S
C1546 C1545 1.502 . S
C1547 H1533 0.960 . S
C1547 H1534 0.961 . S
C1547 H1535 0.959 . S
C1547 C1545 1.561 . S
C1548 C1545 1.526 . S
C1548 C1549 1.396 . S
C1548 C1553 1.390 . S
C1549 C1543 1.465 . S
C1549 C1548 1.396 . S
C1549 C1550 1.399 . S
C1550 H1536 0.929 . S
C1550 C1549 1.399 . S
C1550 C1551 1.385 . S
C1551 H1537 0.931 . S
C1551 C1550 1.385 . S
C1551 C1552 1.389 . S
C1552 C1551 1.389 . S
C1552 C1553 1.387 . S
C1553 H1538 0.930 . S
C1553 C1548 1.390 . S
C1553 C1552 1.387 . S
H1554 C1566 0.930 . S
H1555 C1568 0.930 . S
H1556 C1569 0.930 . S
H1557 C1573 0.959 . S
H1558 C1573 0.959 . S
H1559 C1573 0.961 . S
H1560 C1574 0.960 . S
H1561 C1574 0.961 . S
H1562 C1574 0.959 . S
H1563 C1577 0.929 . S
H1564 C1578 0.931 . S
H1565 C1580 0.930 . S
C1566 H1554 0.930 . S
C1566 C1567 1.399 . S
C1566 C1571 1.399 . S
C1567 C1566 1.399 . S
C1567 C1568 1.376 . S
C1568 H1555 0.930 . S
C1568 C1567 1.376 . S
C1568 C1569 1.388 . S
C1569 H1556 0.930 . S
C1569 C1568 1.388 . S
C1569 C1570 1.390 . S
C1570 C1569 1.390 . S
C1570 C1571 1.394 . S
C1570 C1576 1.465 . S
C1571 C1566 1.399 . S
C1571 C1570 1.394 . S
C1571 C1572 1.516 . S
C1572 C1571 1.516 . S
C1572 C1573 1.502 . S
C1572 C1574 1.561 . S
C1572 C1575 1.526 . S
C1573 H1557 0.959 . S
C1573 H1558 0.959 . S
C1573 H1559 0.961 . S
C1573 C1572 1.502 . S
C1574 H1560 0.960 . S
C1574 H1561 0.961 . S
C1574 H1562 0.959 . S
C1574 C1572 1.561 . S
C1575 C1572 1.526 . S
C1575 C1576 1.396 . S
C1575 C1580 1.390 . S
C1576 C1570 1.465 . S
C1576 C1575 1.396 . S
C1576 C1577 1.399 . S
C1577 H1563 0.929 . S
C1577 C1576 1.399 . S
C1577 C1578 1.385 . S
C1578 H1564 0.931 . S
C1578 C1577 1.385 . S
C1578 C1579 1.389 . S
C1579 C1578 1.389 . S
C1579 C1580 1.387 . S
C1580 H1565 0.930 . S
C1580 C1575 1.390 . S
C1580 C1579 1.387 . S
H1581 C1593 0.930 . S
H1582 C1595 0.930 . S
H1583 C1596 0.930 . S
H1584 C1600 0.959 . S
H1585 C1600 0.959 . S
H1586 C1600 0.961 . S
H1587 C1601 0.960 . S
H1588 C1601 0.961 . S
H1589 C1601 0.959 . S
H1590 C1604 0.929 . S
H1591 C1605 0.931 . S
H1592 C1607 0.930 . S
C1593 H1581 0.930 . S
C1593 C1594 1.399 . S
C1593 C1598 1.399 . S
C1594 C1593 1.399 . S
C1594 C1595 1.376 . S
C1595 H1582 0.930 . S
C1595 C1594 1.376 . S
C1595 C1596 1.388 . S
C1596 H1583 0.930 . S
C1596 C1595 1.388 . S
C1596 C1597 1.390 . S
C1597 C1596 1.390 . S
C1597 C1598 1.394 . S
C1597 C1603 1.465 . S
C1598 C1593 1.399 . S
C1598 C1597 1.394 . S
C1598 C1599 1.516 . S
C1599 C1598 1.516 . S
C1599 C1600 1.502 . S
C1599 C1601 1.561 . S
C1599 C1602 1.526 . S
C1600 H1584 0.959 . S
C1600 H1585 0.959 . S
C1600 H1586 0.961 . S
C1600 C1599 1.502 . S
C1601 H1587 0.960 . S
C1601 H1588 0.961 . S
C1601 H1589 0.959 . S
C1601 C1599 1.561 . S
C1602 C1599 1.526 . S
C1602 C1603 1.396 . S
C1602 C1607 1.390 . S
C1603 C1597 1.465 . S
C1603 C1602 1.396 . S
C1603 C1604 1.399 . S
C1604 H1590 0.929 . S
C1604 C1603 1.399 . S
C1604 C1605 1.385 . S
C1605 H1591 0.931 . S
C1605 C1604 1.385 . S
C1605 C1606 1.389 . S
C1606 C1605 1.389 . S
C1606 C1607 1.387 . S
C1607 H1592 0.930 . S
C1607 C1602 1.390 . S
C1607 C1606 1.387 . S
C541 C21 0.783 . S
C553 N365 0.676 . S
C568 N266 0.771 . S
C580 C54 0.683 . S
C595 N299 0.767 . S
C607 C87 0.735 . S
C622 N332 0.739 . S
C634 C120 0.649 . S
C649 N167 0.646 . S
C661 C153 0.748 . S
C676 N200 0.772 . S
C688 C186 0.679 . S
C703 C219 0.666 . S
C715 N233 0.678 . S
C730 C252 0.659 . S
C742 N134 0.723 . S
C757 C285 0.644 . S
C769 N101 0.705 . S
C784 C318 0.777 . S
C796 N2 0.690 . S
C811 N35 0.745 . S
C823 C351 0.765 . S
C838 C384 0.780 . S
C850 N68 0.683 . S
C865 N431 0.648 . S
C877 C417 0.717 . S
C892 N464 0.645 . S
C904 C450 0.772 . S
C919 N497 0.749 . S
C931 C483 0.642 . S
C946 C516 0.678 . S
C958 N398 0.704 . S
C973 C18 1.221 . S
C985 C84 1.177 . S
C1000 C51 1.175 . S
C1012 C117 1.197 . S
C1027 C216 1.205 . S
C1039 C150 1.176 . S
C1054 C249 1.175 . S
C1066 C183 1.192 . S
C1081 C348 1.204 . S
C1093 C282 1.231 . S
C1108 C315 1.175 . S
C1120 C381 1.192 . S
C1135 C414 1.200 . S
C1147 C480 1.178 . S
C1162 C513 1.175 . S
C1174 C447 1.195 . S
C1189 C73 1.246 . S
C1201 C7 1.237 . S
C1216 C40 1.178 . S
C1228 C106 1.250 . S
C1243 C139 1.113 . S
C1255 C205 1.157 . S
C1270 C238 1.195 . S
C1282 C172 1.114 . S
C1297 C337 1.242 . S
C1309 C271 1.183 . S
C1324 C304 1.191 . S
C1336 C370 1.249 . S
C1351 C403 1.112 . S
C1363 C469 1.151 . S
C1378 C502 1.190 . S
C1390 C436 1.114 . S
C1405 N475 1.595 . S
C1417 N13 1.592 . S
C1432 N46 1.655 . S
C1444 N508 1.647 . S
C1459 N79 1.600 . S
C1471 N409 1.594 . S
C1486 N112 1.663 . S
C1498 N442 1.664 . S
C1513 N145 1.661 . S
C1525 N343 1.654 . S
C1540 N376 1.593 . S
C1552 N178 1.591 . S
C1567 N211 1.657 . S
C1579 N277 1.662 . S
C1594 N244 1.614 . S
C1606 N310 1.624 . S
