# Generated by pormake.
# Topology wme, (6)-cn, num edge types: 1
# Building blocks:
#     Node 0, Type 0, BuildingBlock: NUHQIS_clean_sbu_0, # of connection points: 6
#     Node 1, Type 0, BuildingBlock: NUHQIS_clean_sbu_0, # of connection points: 6
#     Node 2, Type 0, BuildingBlock: NUHQIS_clean_sbu_0, # of connection points: 6
#     Node 3, Type 0, BuildingBlock: NUHQIS_clean_sbu_0, # of connection points: 6
#     Node 4, Type 0, BuildingBlock: NUHQIS_clean_sbu_0, # of connection points: 6
#     Node 5, Type 0, BuildingBlock: NUHQIS_clean_sbu_0, # of connection points: 6
#     Node 6, Type 0, BuildingBlock: NUHQIS_clean_sbu_0, # of connection points: 6
#     Node 7, Type 0, BuildingBlock: NUHQIS_clean_sbu_0, # of connection points: 6
#     Node 8, Type 0, BuildingBlock: NUHQIS_clean_sbu_0, # of connection points: 6
#     Node 9, Type 0, BuildingBlock: NUHQIS_clean_sbu_0, # of connection points: 6
#     Node 10, Type 0, BuildingBlock: NUHQIS_clean_sbu_0, # of connection points: 6
#     Node 11, Type 0, BuildingBlock: NUHQIS_clean_sbu_0, # of connection points: 6
#     Edge 12, Type (0, 0), BuildingBlock: UVAHIK_clean_linker_0, # of connection points: 2
#     Edge 13, Type (0, 0), BuildingBlock: UVAHIK_clean_linker_0, # of connection points: 2
#     Edge 14, Type (0, 0), BuildingBlock: UVAHIK_clean_linker_0, # of connection points: 2
#     Edge 15, Type (0, 0), BuildingBlock: UVAHIK_clean_linker_0, # of connection points: 2
#     Edge 16, Type (0, 0), BuildingBlock: UVAHIK_clean_linker_0, # of connection points: 2
#     Edge 17, Type (0, 0), BuildingBlock: UVAHIK_clean_linker_0, # of connection points: 2
#     Edge 18, Type (0, 0), BuildingBlock: UVAHIK_clean_linker_0, # of connection points: 2
#     Edge 19, Type (0, 0), BuildingBlock: UVAHIK_clean_linker_0, # of connection points: 2
#     Edge 20, Type (0, 0), BuildingBlock: UVAHIK_clean_linker_0, # of connection points: 2
#     Edge 21, Type (0, 0), BuildingBlock: UVAHIK_clean_linker_0, # of connection points: 2
#     Edge 22, Type (0, 0), BuildingBlock: UVAHIK_clean_linker_0, # of connection points: 2
#     Edge 23, Type (0, 0), BuildingBlock: UVAHIK_clean_linker_0, # of connection points: 2
#     Edge 24, Type (0, 0), BuildingBlock: UVAHIK_clean_linker_0, # of connection points: 2
#     Edge 25, Type (0, 0), BuildingBlock: UVAHIK_clean_linker_0, # of connection points: 2
#     Edge 26, Type (0, 0), BuildingBlock: UVAHIK_clean_linker_0, # of connection points: 2
#     Edge 27, Type (0, 0), BuildingBlock: UVAHIK_clean_linker_0, # of connection points: 2
#     Edge 28, Type (0, 0), BuildingBlock: UVAHIK_clean_linker_0, # of connection points: 2
#     Edge 29, Type (0, 0), BuildingBlock: UVAHIK_clean_linker_0, # of connection points: 2
#     Edge 30, Type (0, 0), BuildingBlock: UVAHIK_clean_linker_0, # of connection points: 2
#     Edge 31, Type (0, 0), BuildingBlock: UVAHIK_clean_linker_0, # of connection points: 2
#     Edge 32, Type (0, 0), BuildingBlock: UVAHIK_clean_linker_0, # of connection points: 2
#     Edge 33, Type (0, 0), BuildingBlock: UVAHIK_clean_linker_0, # of connection points: 2
#     Edge 34, Type (0, 0), BuildingBlock: UVAHIK_clean_linker_0, # of connection points: 2
#     Edge 35, Type (0, 0), BuildingBlock: UVAHIK_clean_linker_0, # of connection points: 2
#     Edge 36, Type (0, 0), BuildingBlock: UVAHIK_clean_linker_0, # of connection points: 2
#     Edge 37, Type (0, 0), BuildingBlock: UVAHIK_clean_linker_0, # of connection points: 2
#     Edge 38, Type (0, 0), BuildingBlock: UVAHIK_clean_linker_0, # of connection points: 2
#     Edge 39, Type (0, 0), BuildingBlock: UVAHIK_clean_linker_0, # of connection points: 2
#     Edge 40, Type (0, 0), BuildingBlock: UVAHIK_clean_linker_0, # of connection points: 2
#     Edge 41, Type (0, 0), BuildingBlock: UVAHIK_clean_linker_0, # of connection points: 2
#     Edge 42, Type (0, 0), BuildingBlock: UVAHIK_clean_linker_0, # of connection points: 2
#     Edge 43, Type (0, 0), BuildingBlock: UVAHIK_clean_linker_0, # of connection points: 2
#     Edge 44, Type (0, 0), BuildingBlock: UVAHIK_clean_linker_0, # of connection points: 2
#     Edge 45, Type (0, 0), BuildingBlock: UVAHIK_clean_linker_0, # of connection points: 2
#     Edge 46, Type (0, 0), BuildingBlock: UVAHIK_clean_linker_0, # of connection points: 2
#     Edge 47, Type (0, 0), BuildingBlock: UVAHIK_clean_linker_0, # of connection points: 2
# Relax obj value: 0.081
# Max RMSD: 0.176
# Mean RMSD: 0.176
data_MOF--net-wme--node1-NUHQIS_clean_sbu_0--edge1-UVAHIK_clean_linker_0
_symmetry_space_group_name_H-M    P1
_symmetry_Int_Tables_number       1
_symmetry_cell_setting            triclinic
loop_
_symmetry_equiv_pos_as_xyz
'x, y, z'
_cell_length_a     49.737513
_cell_length_b     49.737721
_cell_length_c     69.825062
_cell_angle_alpha  90.013184
_cell_angle_beta   90.023498
_cell_angle_gamma 119.96989
loop_
_atom_site_label
_atom_site_type_symbol
_atom_site_fract_x
_atom_site_fract_y
_atom_site_fract_z
_atom_type_partial_charge
Tb0 Tb 0.19666 0.36114 0.10973 0.0
Eu1 Eu 0.22826 0.31923 0.1233 0.0
C2 C 0.22661 0.3362 0.08093 0.0
C3 C 0.1551 0.2885 0.11469 0.0
C4 C 0.1732 0.42282 0.10395 0.0
C5 C 0.17864 0.4719 0.093 0.0
C6 C 0.18093 0.44532 0.08961 0.0
C7 C 0.16357 0.4278 0.12192 0.0
C8 C 0.1611 0.4543 0.12527 0.0
C9 C 0.16829 0.47658 0.1108 0.0
C10 C 0.17244 0.39322 0.09931 0.0
O11 O 0.20589 0.36953 0.14051 0.0
O12 O 0.20235 0.3231 0.1484 0.0
O13 O 0.26577 0.36903 0.12958 0.0
O14 O 0.24609 0.39436 0.11157 0.0
C15 C 0.20171 0.34825 0.15326 0.0
O16 O 0.24248 0.29561 0.14415 0.0
O17 O 0.24847 0.29158 0.11378 0.0
O18 O 0.24607 0.34086 0.09472 0.0
O19 O 0.20053 0.33583 0.08481 0.0
O20 O 0.15781 0.31594 0.11698 0.0
O21 O 0.17962 0.28519 0.1129 0.0
C22 C 0.26859 0.39446 0.12162 0.0
O23 O 0.19678 0.39479 0.09115 0.0
O24 O 0.16059 0.37121 0.11207 0.0
C25 C 0.23655 0.24778 0.13266 0.0
C26 C 0.21556 0.18325 0.13271 0.0
C27 C 0.24294 0.20435 0.14245 0.0
C28 C 0.25333 0.23624 0.14236 0.0
C29 C 0.20864 0.22681 0.12351 0.0
C30 C 0.19827 0.19491 0.12352 0.0
C31 C 0.24956 0.28168 0.13088 0.0
H32 H 0.18407 0.48833 0.08143 0.0
H33 H 0.18803 0.44196 0.07556 0.0
H34 H 0.15734 0.41096 0.13332 0.0
H35 H 0.15348 0.4573 0.13923 0.0
H36 H 0.25657 0.19628 0.15002 0.0
H37 H 0.27489 0.25198 0.14953 0.0
H38 H 0.19532 0.23519 0.11587 0.0
H39 H 0.17726 0.17955 0.11574 0.0
Tb40 Tb 0.84669 0.19419 0.60902 0.0
Eu41 Eu 0.91816 0.22332 0.62614 0.0
C42 C 0.90479 0.21189 0.58253 0.0
C43 C 0.87242 0.15027 0.62006 0.0
C44 C 0.76145 0.16844 0.59917 0.0
C45 C 0.70828 0.14953 0.58853 0.0
C46 C 0.73791 0.15356 0.58547 0.0
C47 C 0.75495 0.17954 0.61602 0.0
C48 C 0.7252 0.17557 0.61911 0.0
C49 C 0.70134 0.16029 0.60543 0.0
C50 C 0.79204 0.17108 0.59553 0.0
O51 O 0.84229 0.18958 0.64048 0.0
O52 O 0.89092 0.22793 0.64994 0.0
O53 O 0.91187 0.26399 0.61688 0.0
O54 O 0.85872 0.23996 0.61927 0.0
C55 C 0.86166 0.20834 0.6537 0.0
O56 O 0.9512 0.22574 0.64776 0.0
O57 O 0.96798 0.2534 0.6219 0.0
O58 O 0.91661 0.20467 0.59694 0.0
O59 O 0.88014 0.21492 0.58508 0.0
O60 O 0.85814 0.15731 0.60682 0.0
O61 O 0.89237 0.17159 0.63181 0.0
C62 C 0.88599 0.26527 0.61802 0.0
O63 O 0.81502 0.19826 0.59083 0.0
O64 O 0.80091 0.15678 0.60736 0.0
C65 C 0.99933 0.23425 0.63533 0.0
C66 C 0.04602 0.21752 0.6323 0.0
C67 C 0.03858 0.22531 0.65014 0.0
C68 C 0.01559 0.23365 0.65161 0.0
C69 C 1.00644 0.22617 0.61749 0.0
C70 C 0.0296 0.21803 0.61599 0.0
C71 C 0.97541 0.2436 0.63729 0.0
H72 H 0.69087 0.1382 0.5775 0.0
H73 H 0.7424 0.14486 0.57234 0.0
H74 H 0.77274 0.19101 0.62684 0.0
H75 H 0.72075 0.18398 0.63235 0.0
H76 H 0.05094 0.22552 0.66297 0.0
H77 H 1.01061 0.23983 0.66551 0.0
H78 H 0.99414 0.22617 0.60467 0.0
H79 H 0.03443 0.2118 0.60207 0.0
Tb80 Tb 0.65883 0.84179 0.11071 0.0
Eu81 Eu 0.69997 0.91585 0.12401 0.0
C82 C 0.68168 0.89662 0.08196 0.0
C83 C 0.73087 0.87309 0.11725 0.0
C84 C 0.59843 0.75659 0.10395 0.0
C85 C 0.54839 0.71386 0.09344 0.0
C86 C 0.57483 0.74284 0.09013 0.0
C87 C 0.59477 0.74073 0.12133 0.0
C88 C 0.56838 0.71165 0.12461 0.0
C89 C 0.54492 0.69766 0.11065 0.0
C90 C 0.62758 0.7859 0.09933 0.0
O91 O 0.6499 0.84062 0.1415 0.0
O92 O 0.69077 0.88826 0.15093 0.0
O93 O 0.65025 0.90416 0.12939 0.0
O94 O 0.62441 0.85629 0.11421 0.0
C95 C 0.6675 0.86048 0.15482 0.0
O96 O 0.72537 0.95418 0.14426 0.0
O97 O 0.72604 0.96361 0.11398 0.0
O98 O 0.6769 0.91108 0.09589 0.0
O99 O 0.68336 0.87159 0.08584 0.0
O100 O 0.7035 0.84842 0.11963 0.0
O101 O 0.73387 0.90058 0.1144 0.0
C102 C 0.62456 0.87993 0.12291 0.0
O103 O 0.62511 0.80869 0.09199 0.0
O104 O 0.65018 0.79595 0.1117 0.0
C105 C 0.77152 0.99638 0.13142 0.0
C106 C 0.83597 0.04011 0.13031 0.0
C107 C 0.81528 0.04642 0.14051 0.0
C108 C 0.78344 0.02483 0.14101 0.0
C109 C 0.79208 0.98947 0.1217 0.0
C110 C 0.82395 0.01111 0.12114 0.0
C111 C 0.73759 0.97502 0.13076 0.0
H112 H 0.53105 0.70373 0.08226 0.0
H113 H 0.57714 0.75425 0.07651 0.0
H114 H 0.61248 0.7505 0.13231 0.0
H115 H 0.56637 0.70012 0.13813 0.0
H116 H 0.82364 0.06817 0.14807 0.0
H117 H 0.76803 0.0306 0.14864 0.0
H118 H 0.78339 0.96763 0.11417 0.0
H119 H 0.839 1.00543 0.11302 0.0
Tb120 Tb 0.82771 0.65514 0.60971 0.0
Eu121 Eu 0.79609 0.69639 0.62484 0.0
C122 C 0.79793 0.68176 0.58186 0.0
C123 C 0.86881 0.72774 0.61524 0.0
C124 C 0.85256 0.59509 0.59947 0.0
C125 C 0.86945 0.55994 0.58744 0.0
C126 C 0.86639 0.58625 0.58516 0.0
C127 C 0.84112 0.57668 0.616 0.0
C128 C 0.8441 0.55019 0.61828 0.0
C129 C 0.85875 0.54172 0.60413 0.0
C130 C 0.85261 0.62471 0.59722 0.0
O131 O 0.81942 0.64542 0.64045 0.0
O132 O 0.82202 0.69107 0.64945 0.0
O133 O 0.75951 0.6463 0.63122 0.0
O134 O 0.77828 0.62188 0.61158 0.0
C135 C 0.82342 0.66609 0.65363 0.0
O136 O 0.78688 0.72298 0.64645 0.0
O137 O 0.77037 0.71974 0.61744 0.0
O138 O 0.77855 0.67704 0.59572 0.0
O139 O 0.82381 0.6816 0.58552 0.0
O140 O 0.86627 0.70034 0.61739 0.0
O141 O 0.84413 0.73087 0.61373 0.0
C142 C 0.75632 0.62124 0.62249 0.0
O143 O 0.82833 0.62384 0.58947 0.0
O144 O 0.86316 0.64402 0.61156 0.0
C145 C 0.78593 0.76712 0.6338 0.0
C146 C 0.80354 0.83086 0.63268 0.0
C147 C 0.78931 0.81282 0.64907 0.0
C148 C 0.78047 0.78126 0.64958 0.0
C149 C 0.80097 0.78533 0.61763 0.0
C150 C 0.80952 0.81677 0.61705 0.0
C151 C 0.77454 0.73325 0.63404 0.0
H152 H 0.88032 0.55392 0.57608 0.0
H153 H 0.8754 0.6001 0.5723 0.0
H154 H 0.83049 0.58315 0.62729 0.0
H155 H 0.83574 0.53687 0.63137 0.0
H156 H 0.78418 0.82287 0.66131 0.0
H157 H 0.76887 0.76774 0.66219 0.0
H158 H 0.80576 0.77522 0.60528 0.0
H159 H 0.82084 0.83007 0.60432 0.0
Tb160 Tb 0.17696 0.82347 0.11089 0.0
Eu161 Eu 0.10318 0.79105 0.12392 0.0
C162 C 0.1229 0.79388 0.08166 0.0
C163 C 0.14534 0.86447 0.11612 0.0
C164 C 0.2623 0.84747 0.10546 0.0
C165 C 0.3036 0.83755 0.09545 0.0
C166 C 0.27473 0.83535 0.09219 0.0
C167 C 0.27934 0.86152 0.12223 0.0
C168 C 0.30826 0.86384 0.12545 0.0
C169 C 0.32098 0.85221 0.11201 0.0
C170 C 0.23341 0.84815 0.10077 0.0
O171 O 0.17585 0.81384 0.14162 0.0
O172 O 0.13208 0.81587 0.14958 0.0
O173 O 0.11592 0.75387 0.13029 0.0
O174 O 0.16098 0.77406 0.11234 0.0
C175 C 0.15823 0.81718 0.15441 0.0
O176 O 0.06455 0.77686 0.14405 0.0
O177 O 0.05551 0.76948 0.11361 0.0
O178 O 0.10806 0.77407 0.09527 0.0
O179 O 0.14826 0.82006 0.08585 0.0
O180 O 0.17012 0.86189 0.11849 0.0
O181 O 0.11763 0.83989 0.11401 0.0
C182 C 0.13869 0.75135 0.1223 0.0
O183 O 0.21082 0.82392 0.09239 0.0
O184 O 0.22297 0.85969 0.11357 0.0
C185 C 0.02183 0.78077 0.13113 0.0
C186 C 0.97988 0.80376 0.13014 0.0
C187 C 1.00638 0.81774 0.14196 0.0
C188 C 0.02726 0.80648 0.14237 0.0
C189 C 0.99518 0.76658 0.11957 0.0
C190 C 0.97453 0.77795 0.11903 0.0
C191 C 0.0439 0.76891 0.13043 0.0
H192 H 0.31275 0.82862 0.08468 0.0
H193 H 0.26246 0.82483 0.07901 0.0
H194 H 0.27069 0.87133 0.13275 0.0
H195 H 0.32073 0.87489 0.13847 0.0
H196 H 1.01131 0.83778 0.1506 0.0
H197 H 0.04776 0.8181 0.1513 0.0
H198 H 0.99044 0.74674 0.11077 0.0
H199 H 0.95417 0.76632 0.10998 0.0
Tb200 Tb 0.36661 0.17285 0.61247 0.0
Eu201 Eu 0.32283 0.10116 0.62851 0.0
C202 C 0.32675 0.11601 0.58505 0.0
C203 C 0.29635 0.14772 0.62185 0.0
C204 C 0.42923 0.25735 0.60544 0.0
C205 C 0.47964 0.30032 0.59578 0.0
C206 C 0.45354 0.27126 0.59211 0.0
C207 C 0.4318 0.27309 0.62271 0.0
C208 C 0.4579 0.30228 0.62636 0.0
C209 C 0.48212 0.31643 0.61288 0.0
C210 C 0.40068 0.22785 0.60028 0.0
O211 O 0.36467 0.17666 0.64384 0.0
O212 O 0.35264 0.12752 0.65332 0.0
O213 O 0.36992 0.10698 0.61991 0.0
O214 O 0.39902 0.15977 0.62377 0.0
C215 C 0.36253 0.15681 0.6572 0.0
O216 O 0.29138 0.06756 0.64949 0.0
O217 O 0.3022 0.05139 0.62337 0.0
O218 O 0.3071 0.10403 0.59913 0.0
O219 O 0.35455 0.14016 0.58814 0.0
O220 O 0.31882 0.16283 0.60941 0.0
O221 O 0.2965 0.12683 0.63335 0.0
C222 C 0.39709 0.1326 0.6219 0.0
O223 O 0.40396 0.20442 0.5952 0.0
O224 O 0.37613 0.21899 0.61092 0.0
C225 C 0.25163 0.02077 0.6361 0.0
C226 C 0.18793 0.97622 0.63134 0.0
C227 C 0.2071 0.97028 0.6434 0.0
C228 C 0.23855 0.99229 0.64573 0.0
C229 C 0.23271 0.02706 0.62414 0.0
C230 C 0.20117 1.00502 0.6218 0.0
C231 C 0.2849 0.04362 0.63872 0.0
H232 H 0.49752 0.31054 0.58493 0.0
H233 H 0.45206 0.25989 0.57859 0.0
H234 H 0.41349 0.26309 0.63331 0.0
H235 H 0.45912 0.31374 0.63978 0.0
H236 H 0.19772 0.94868 0.65126 0.0
H237 H 0.2527 0.98706 0.65511 0.0
H238 H 0.24238 0.04896 0.61657 0.0
H239 H 0.18729 0.01035 0.61226 0.0
Tb240 Tb 0.66311 0.82477 0.40098 0.0
Eu241 Eu 0.70433 0.79173 0.38793 0.0
C242 C 0.68736 0.79455 0.43005 0.0
C243 C 0.73523 0.86556 0.39458 0.0
C244 C 0.60248 0.84941 0.40705 0.0
C245 C 0.55138 0.84022 0.41671 0.0
C246 C 0.57788 0.83783 0.42025 0.0
C247 C 0.59976 0.86319 0.39008 0.0
C248 C 0.57334 0.86573 0.38659 0.0
C249 C 0.54888 0.85455 0.39993 0.0
C250 C 0.63169 0.84945 0.41195 0.0
O251 O 0.65407 0.8165 0.37027 0.0
O252 O 0.69503 0.80991 0.36089 0.0
O253 O 0.65461 0.75366 0.38273 0.0
O254 O 0.62882 0.77567 0.39801 0.0
C255 C 0.67167 0.81429 0.35693 0.0
O256 O 0.72983 0.77878 0.36778 0.0
O257 O 0.73013 0.76975 0.39803 0.0
O258 O 0.68228 0.77464 0.41649 0.0
O259 O 0.6886 0.8209 0.42578 0.0
O260 O 0.70782 0.86287 0.39225 0.0
O261 O 0.73842 0.8411 0.39707 0.0
C262 C 0.62897 0.75219 0.3893 0.0
O263 O 0.62935 0.82441 0.41955 0.0
O264 O 0.65432 0.86183 0.39962 0.0
C265 C 0.77575 0.7824 0.3808 0.0
C266 C 0.84015 0.80291 0.3822 0.0
C267 C 0.81947 0.77581 0.37208 0.0
C268 C 0.78766 0.76567 0.37144 0.0
C269 C 0.7963 0.80994 0.39046 0.0
C270 C 0.82815 0.82008 0.39115 0.0
C271 C 0.74183 0.76996 0.3813 0.0
H272 H 0.53322 0.83165 0.42742 0.0
H273 H 0.57941 0.8275 0.43356 0.0
H274 H 0.61826 0.87252 0.37959 0.0
H275 H 0.5721 0.87652 0.3734 0.0
H276 H 0.82783 0.76227 0.36468 0.0
H277 H 0.77225 0.74442 0.36386 0.0
H278 H 0.78761 0.82323 0.39782 0.0
H279 H 0.84319 0.84088 0.39921 0.0
Tb280 Tb 0.84681 0.65584 0.90006 0.0
Eu281 Eu 0.92121 0.69753 0.88844 0.0
C282 C 0.89986 0.67944 0.93007 0.0
C283 C 0.87847 0.72844 0.89531 0.0
C284 C 0.76067 0.59655 0.90661 0.0
C285 C 0.70427 0.5687 0.90885 0.0
C286 C 0.73299 0.59528 0.91221 0.0
C287 C 0.7592 0.57063 0.89755 0.0
C288 C 0.73033 0.54383 0.8942 0.0
C289 C 0.70242 0.54257 0.89975 0.0
C290 C 0.79033 0.62542 0.91034 0.0
O291 O 0.84906 0.64805 0.86932 0.0
O292 O 0.89352 0.69379 0.86221 0.0
O293 O 0.9091 0.64776 0.88224 0.0
O294 O 0.8619 0.62171 0.89806 0.0
C295 C 0.86763 0.66909 0.85685 0.0
O296 O 0.96093 0.72088 0.86897 0.0
O297 O 0.96812 0.72529 0.89965 0.0
O298 O 0.91503 0.6744 0.91673 0.0
O299 O 0.87498 0.68084 0.92536 0.0
O300 O 0.85399 0.70114 0.89223 0.0
O301 O 0.90606 0.73157 0.89807 0.0
C302 C 0.88534 0.62198 0.88904 0.0
O303 O 0.81265 0.62315 0.91858 0.0
O304 O 0.80077 0.64606 0.89674 0.0
C305 C 1.00285 0.76822 0.88115 0.0
C306 C 0.04585 0.83292 0.88122 0.0
C307 C 0.01395 0.82163 0.87804 0.0
C308 C 0.99265 0.7896 0.87807 0.0
C309 C 0.03452 0.7793 0.88419 0.0
C310 C 0.05575 0.8112 0.88425 0.0
C311 C 0.98081 0.73457 0.88285 0.0
H312 H 0.68348 0.56851 0.91364 0.0
H313 H 0.73358 0.61498 0.91926 0.0
H314 H 0.78029 0.57115 0.89301 0.0
H315 H 0.72984 0.52429 0.88703 0.0
H316 H 1.00541 0.83752 0.87547 0.0
H317 H 0.96821 0.78154 0.87592 0.0
H318 H 0.04281 0.76323 0.88691 0.0
H319 H 0.0799 0.8188 0.88715 0.0
Tb320 Tb 0.20073 0.84176 0.40131 0.0
Eu321 Eu 0.2318 0.91537 0.38783 0.0
C322 C 0.23367 0.89695 0.42984 0.0
C323 C 0.15919 0.87309 0.3977 0.0
C324 C 0.17484 0.75601 0.40831 0.0
C325 C 0.14791 0.69986 0.41219 0.0
C326 C 0.1506 0.72868 0.41615 0.0
C327 C 0.19663 0.75412 0.39643 0.0
C328 C 0.19402 0.72515 0.39248 0.0
C329 C 0.16944 0.69757 0.40022 0.0
C330 C 0.17593 0.78572 0.41245 0.0
O331 O 0.20809 0.84229 0.37028 0.0
O332 O 0.20476 0.88557 0.36301 0.0
O333 O 0.26917 0.90313 0.38077 0.0
O334 O 0.24968 0.85703 0.3977 0.0
C335 C 0.20369 0.85968 0.35784 0.0
O336 O 0.24554 0.95337 0.36715 0.0
O337 O 0.25169 0.96307 0.39757 0.0
O338 O 0.25191 0.91157 0.41552 0.0
O339 O 0.20715 0.87138 0.4265 0.0
O340 O 0.16175 0.84838 0.39495 0.0
O341 O 0.18381 0.90084 0.3994 0.0
C342 C 0.27197 0.87994 0.38786 0.0
O343 O 0.20146 0.80837 0.41961 0.0
O344 O 0.16409 0.79565 0.39954 0.0
C345 C 0.23986 0.99536 0.37896 0.0
C346 C 0.21962 0.03955 0.37954 0.0
C347 C 0.2468 0.0456 0.36966 0.0
C348 C 0.25681 0.02379 0.36943 0.0
C349 C 0.21213 0.98865 0.38826 0.0
C350 C 0.20212 0.01049 0.38855 0.0
C351 C 0.25269 0.97424 0.38053 0.0
H352 H 0.12902 0.67934 0.41869 0.0
H353 H 0.13354 0.7296 0.42536 0.0
H354 H 0.21545 0.77493 0.39013 0.0
H355 H 0.21091 0.72431 0.3831 0.0
H356 H 0.26059 0.06739 0.36221 0.0
H357 H 0.27826 0.02947 0.36217 0.0
H358 H 0.19869 0.96689 0.3958 0.0
H359 H 0.18125 1.00499 0.39644 0.0
Tb360 Tb 0.36524 0.19272 0.90287 0.0
Eu361 Eu 0.32441 0.22568 0.88967 0.0
C362 C 0.34001 0.2221 0.93192 0.0
C363 C 0.29301 0.1523 0.89646 0.0
C364 C 0.42488 0.16697 0.91201 0.0
C365 C 0.46122 0.15176 0.92426 0.0
C366 C 0.43473 0.1545 0.92659 0.0
C367 C 0.44238 0.17725 0.89507 0.0
C368 C 0.46901 0.17453 0.89271 0.0
C369 C 0.47868 0.16146 0.90723 0.0
C370 C 0.39519 0.16677 0.91445 0.0
O371 O 0.37539 0.20311 0.87233 0.0
O372 O 0.33073 0.20301 0.86369 0.0
O373 O 0.37439 0.26274 0.88375 0.0
O374 O 0.39939 0.242 0.90119 0.0
C375 C 0.35562 0.20162 0.85917 0.0
O376 O 0.29858 0.23754 0.86901 0.0
O377 O 0.30031 0.24985 0.89886 0.0
O378 O 0.34543 0.24232 0.91851 0.0
O379 O 0.33892 0.19587 0.92746 0.0
O380 O 0.32039 0.15506 0.89376 0.0
O381 O 0.29006 0.1768 0.8996 0.0
C382 C 0.39972 0.2649 0.89145 0.0
O383 O 0.39595 0.19053 0.9229 0.0
O384 O 0.37608 0.15719 0.89999 0.0
C385 C 0.25361 0.23655 0.8821 0.0
C386 C 0.18982 0.21898 0.88212 0.0
C387 C 0.20751 0.22939 0.86522 0.0
C388 C 0.23907 0.23822 0.86524 0.0
C389 C 0.23573 0.22542 0.8989 0.0
C390 C 0.20429 0.21685 0.89891 0.0
C391 C 0.28752 0.24789 0.88223 0.0
H392 H 0.46747 0.14115 0.93567 0.0
H393 H 0.42145 0.14616 0.93971 0.0
H394 H 0.43523 0.18695 0.88358 0.0
H395 H 0.482 0.18266 0.87949 0.0
H396 H 0.19717 0.23155 0.85207 0.0
H397 H 0.25228 0.24685 0.85212 0.0
H398 H 0.24605 0.22367 0.91216 0.0
H399 H 0.19129 0.20852 0.91211 0.0
Tb400 Tb 0.18214 0.36253 0.40068 0.0
Eu401 Eu 0.10876 0.32 0.38686 0.0
C402 C 0.12652 0.3403 0.42884 0.0
C403 C 0.15119 0.28979 0.39664 0.0
C404 C 0.26767 0.42223 0.40841 0.0
C405 C 0.32388 0.4508 0.41203 0.0
C406 C 0.29504 0.42453 0.41565 0.0
C407 C 0.26956 0.44681 0.39747 0.0
C408 C 0.29855 0.4733 0.39387 0.0
C409 C 0.32616 0.47556 0.40103 0.0
C410 C 0.2379 0.3936 0.41231 0.0
O411 O 0.18208 0.36966 0.36965 0.0
O412 O 0.13879 0.32325 0.36208 0.0
O413 O 0.12077 0.36952 0.37991 0.0
O414 O 0.16738 0.39653 0.39638 0.0
C415 C 0.16469 0.34813 0.35706 0.0
O416 O 0.07099 0.29597 0.36599 0.0
O417 O 0.061 0.29196 0.39639 0.0
O418 O 0.11221 0.34409 0.4144 0.0
O419 O 0.15207 0.33923 0.42568 0.0
O420 O 0.17583 0.31712 0.39399 0.0
O421 O 0.12342 0.2866 0.39841 0.0
C422 C 0.14421 0.39564 0.38665 0.0
O423 O 0.21509 0.39643 0.41925 0.0
O424 O 0.22827 0.37192 0.39935 0.0
C425 C 0.02906 0.24813 0.37752 0.0
C426 C 0.98519 0.1837 0.37799 0.0
C427 C 0.97871 0.20481 0.36845 0.0
C428 C 1.00037 0.23665 0.36828 0.0
C429 C 0.0362 0.22713 0.38642 0.0
C430 C 0.01452 0.19527 0.38666 0.0
C431 C 0.05001 0.28204 0.37927 0.0
H432 H 0.34443 0.45182 0.41807 0.0
H433 H 0.29412 0.40585 0.42415 0.0
H434 H 0.24872 0.44545 0.39164 0.0
H435 H 0.29939 0.49177 0.38522 0.0
H436 H 0.95668 0.19679 0.36129 0.0
H437 H 0.99437 0.25242 0.36132 0.0
H438 H 0.05817 0.23547 0.39374 0.0
H439 H 0.02034 0.17991 0.39429 0.0
Tb440 Tb 0.82437 0.17273 0.8999 0.0
Eu441 Eu 0.79657 0.10107 0.88375 0.0
C442 C 0.80801 0.11593 0.92719 0.0
C443 C 0.86948 0.14787 0.88989 0.0
C444 C 0.84709 0.25745 0.90771 0.0
C445 C 0.84846 0.30446 0.91911 0.0
C446 C 0.84456 0.27498 0.92261 0.0
C447 C 0.85295 0.26975 0.88905 0.0
C448 C 0.8569 0.29934 0.88553 0.0
C449 C 0.85514 0.31734 0.90057 0.0
C450 C 0.84574 0.22766 0.91239 0.0
O451 O 0.8294 0.17642 0.86848 0.0
O452 O 0.79212 0.12723 0.85921 0.0
O453 O 0.75536 0.10668 0.8927 0.0
O454 O 0.77861 0.15952 0.88907 0.0
C455 C 0.81134 0.15651 0.85525 0.0
O456 O 0.79429 0.06756 0.86263 0.0
O457 O 0.76763 0.0513 0.88885 0.0
O458 O 0.8156 0.10399 0.91302 0.0
O459 O 0.80416 0.13998 0.9242 0.0
O460 O 0.86213 0.16264 0.90261 0.0
O461 O 0.84837 0.12708 0.87839 0.0
C462 C 0.75356 0.13219 0.89088 0.0
O463 O 0.81896 0.20434 0.91742 0.0
O464 O 0.86101 0.21882 0.90134 0.0
C465 C 0.78758 0.02083 0.87586 0.0
C466 C 0.80701 0.97643 0.88028 0.0
C467 C 0.78283 0.97114 0.86756 0.0
C468 C 0.77325 0.99309 0.8654 0.0
C469 C 0.81188 0.02648 0.88846 0.0
C470 C 0.82151 1.00451 0.89065 0.0
C471 C 0.77702 0.04359 0.87341 0.0
H472 H 0.84628 0.3172 0.93102 0.0
H473 H 0.84007 0.26606 0.93712 0.0
H474 H 0.85509 0.25678 0.87726 0.0
H475 H 0.86219 0.30844 0.87109 0.0
H476 H 0.77146 0.95013 0.85907 0.0
H477 H 0.7546 0.98837 0.85552 0.0
H478 H 0.8233 0.04782 0.89666 0.0
H479 H 0.83997 0.0093 0.90069 0.0
C480 C 0.12397 0.9012 0.11817 0.0
C481 C 0.14938 0.89623 0.1167 0.0
C482 C 0.12873 0.93144 0.12006 0.0
C483 C 0.18958 0.01053 0.13514 0.0
H484 H 0.13968 0.0387 0.10863 0.0
C485 C 0.22828 0.14035 0.12944 0.0
C486 C 0.20588 0.14954 0.13152 0.0
C487 C 0.21951 0.10895 0.12811 0.0
C488 C 0.15361 0.03109 0.11632 0.0
H489 H 0.1997 0.91949 0.1153 0.0
H490 H 0.2078 0.97152 0.1183 0.0
H491 H 0.1274 0.98473 0.10521 0.0
H492 H 0.15642 0.13239 0.13384 0.0
H493 H 0.14114 0.07753 0.13139 0.0
H494 H 0.21595 0.05672 0.14613 0.0
C495 C 0.18421 0.95222 0.11848 0.0
C496 C 0.14654 1.00012 0.11436 0.0
C497 C 0.17949 0.92222 0.11663 0.0
C498 C 0.17435 0.1263 0.13206 0.0
C499 C 0.16555 0.0948 0.13065 0.0
C500 C 0.19664 0.04135 0.13706 0.0
C501 C 0.159 0.95731 0.12055 0.0
C502 C 0.16479 0.98957 0.12351 0.0
C503 C 0.18806 0.08571 0.12875 0.0
C504 C 0.17908 0.05224 0.12747 0.0
H505 H 0.10046 0.88174 0.1183 0.0
H506 H 0.10875 0.93448 0.12166 0.0
H507 H 0.20368 1.00311 0.14281 0.0
H508 H 0.25271 0.15746 0.12848 0.0
H509 H 0.23747 0.10291 0.12625 0.0
C510 C 0.24657 0.13982 0.63654 0.0
C511 C 0.26997 0.15392 0.62259 0.0
C512 C 0.22208 0.14612 0.63738 0.0
C513 C 0.19952 0.20371 0.62122 0.0
H514 H 0.11667 0.13881 0.63489 0.0
C515 C 0.09249 0.22061 0.61558 0.0
C516 C 0.07099 0.20921 0.63074 0.0
C517 C 0.11637 0.21347 0.6144 0.0
C518 C 0.13972 0.15729 0.63122 0.0
H519 H 0.28548 0.18549 0.59839 0.0
H520 H 0.24267 0.19596 0.59961 0.0
H521 H 0.15871 0.12707 0.63312 0.0
H522 H 0.05756 0.18073 0.65633 0.0
H523 H 0.09924 0.16841 0.65431 0.0
H524 H 0.1804 0.23384 0.61917 0.0
C525 C 0.24349 0.18049 0.6102 0.0
C526 C 0.16392 0.15058 0.63023 0.0
C527 C 0.26804 0.17429 0.60941 0.0
C528 C 0.07385 0.19018 0.64456 0.0
C529 C 0.09759 0.18285 0.64329 0.0
C530 C 0.17529 0.21037 0.6221 0.0
C531 C 0.22019 0.16663 0.62424 0.0
C532 C 0.19423 0.1737 0.62524 0.0
C533 C 0.1193 0.19454 0.62825 0.0
C534 C 0.14506 0.18728 0.62714 0.0
H535 H 0.24729 0.12408 0.64697 0.0
H536 H 0.2049 0.13529 0.64857 0.0
H537 H 0.22256 0.22233 0.61768 0.0
H538 H 0.09119 0.23553 0.60477 0.0
H539 H 0.13246 0.22264 0.60251 0.0
C540 C 0.87882 0.0957 0.12685 0.0
C541 C 0.86965 0.0641 0.12878 0.0
C542 C 0.9102 0.11833 0.12546 0.0
C543 C 0.98818 0.1305 0.11356 0.0
H544 H 0.016 0.20807 0.14059 0.0
C545 C 0.11814 0.23042 0.11623 0.0
C546 C 0.12326 0.26088 0.11504 0.0
C547 C 0.08784 0.20499 0.11788 0.0
C548 C 1.00863 0.1867 0.13276 0.0
H549 H 0.88685 0.03177 0.13069 0.0
H550 H 0.94168 0.07134 0.12816 0.0
H551 H 0.96236 0.16674 0.14361 0.0
H552 H 0.10016 0.28813 0.1139 0.0
H553 H 0.04802 0.24429 0.11649 0.0
H554 H 0.03464 0.15079 0.1026 0.0
C555 C 0.9244 0.07851 0.12759 0.0
C556 C 0.97778 0.16293 0.13452 0.0
C557 C 0.89291 0.0558 0.12904 0.0
C558 C 0.09733 0.26513 0.11501 0.0
C559 C 0.06726 0.23989 0.11663 0.0
C560 C 0.01918 0.15441 0.11177 0.0
C561 C 0.93348 0.11012 0.12591 0.0
C562 C 0.96695 0.13465 0.12473 0.0
C563 C 0.06202 0.20949 0.11841 0.0
C564 C 0.02968 0.18304 0.12112 0.0
H565 H 0.86168 0.10303 0.12611 0.0
H566 H 0.9162 0.14234 0.12377 0.0
H567 H 0.98064 0.10911 0.10573 0.0
H568 H 0.13753 0.22625 0.11632 0.0
H569 H 0.08471 0.18191 0.11927 0.0
C570 C 0.80466 0.87558 0.61504 0.0
C571 C 0.81137 0.864 0.63165 0.0
C572 C 0.81147 0.90648 0.61408 0.0
C573 C 0.86104 0.98411 0.63518 0.0
H574 H 0.79991 1.00224 0.6138 0.0
C575 C 0.87742 0.10825 0.63705 0.0
C576 C 0.86629 0.1178 0.62146 0.0
C577 C 0.87097 0.07746 0.63852 0.0
C578 C 0.81752 0.99777 0.61956 0.0
H579 H 0.83092 0.87614 0.6602 0.0
H580 H 0.84297 0.93021 0.65849 0.0
H581 H 0.78849 0.94867 0.61579 0.0
H582 H 0.84006 0.10233 0.59499 0.0
H583 H 0.82958 0.04915 0.59726 0.0
H584 H 0.89034 0.03319 0.63864 0.0
C585 C 0.83241 0.91529 0.6462 0.0
C586 C 0.81087 0.96693 0.62075 0.0
C587 C 0.82527 0.88424 0.64724 0.0
C588 C 0.84885 0.09583 0.60728 0.0
C589 C 0.84262 0.06514 0.60866 0.0
C590 C 0.86783 0.01502 0.63383 0.0
C591 C 0.82545 0.92677 0.62964 0.0
C592 C 0.83254 0.95968 0.62856 0.0
C593 C 0.8534 0.05538 0.62437 0.0
C594 C 0.84618 0.02235 0.62596 0.0
H595 H 0.79369 0.86058 0.60283 0.0
H596 H 0.80603 0.91459 0.60105 0.0
H597 H 0.87841 0.97939 0.64107 0.0
H598 H 0.89079 0.12446 0.6483 0.0
H599 H 0.87934 0.07088 0.65097 0.0
C600 C 0.94543 0.8182 0.11163 0.0
C601 C 0.95775 0.81581 0.12928 0.0
C602 C 0.9235 0.82802 0.11081 0.0
C603 C 0.86378 0.83152 0.1402 0.0
H604 H 0.86338 0.88414 0.09934 0.0
C605 C 0.75522 0.84008 0.12266 0.0
C606 C 0.75876 0.86936 0.11842 0.0
C607 C 0.78101 0.83612 0.12441 0.0
C608 C 0.86329 0.86965 0.11094 0.0
H609 H 0.95689 0.82238 0.15991 0.0
H610 H 0.91864 0.83956 0.1585 0.0
H611 H 0.90627 0.8735 0.10181 0.0
H612 H 0.79263 0.91744 0.11251 0.0
H613 H 0.83788 0.91041 0.11549 0.0
H614 H 0.8208 0.82747 0.14928 0.0
C615 C 0.92587 0.83368 0.14527 0.0
C616 C 0.88773 0.8633 0.11226 0.0
C617 C 0.94801 0.82409 0.14607 0.0
C618 C 0.78898 0.89456 0.11576 0.0
C619 C 0.81491 0.89051 0.11741 0.0
C620 C 0.83929 0.83768 0.13881 0.0
C621 C 0.91312 0.83552 0.12764 0.0
C622 C 0.88815 0.8439 0.12681 0.0
C623 C 0.81123 0.86125 0.12192 0.0
C624 C 0.8385 0.85652 0.12403 0.0
H625 H 0.95267 0.81237 0.09839 0.0
H626 H 0.91405 0.82889 0.097 0.0
H627 H 0.86314 0.81628 0.1515 0.0
H628 H 0.73241 0.82003 0.12476 0.0
H629 H 0.77721 0.81315 0.12755 0.0
C630 C 0.92659 0.7512 0.6158 0.0
C631 C 0.90065 0.75543 0.61543 0.0
C632 C 0.95666 0.7765 0.61719 0.0
C633 C 1.00501 0.86152 0.61068 0.0
H634 H 0.06128 0.85084 0.64411 0.0
C635 C 0.13132 0.96078 0.6276 0.0
C636 C 0.15442 0.95233 0.62874 0.0
C637 C 0.09986 0.93809 0.62582 0.0
C638 C 0.04605 0.85418 0.63454 0.0
H639 H 0.88638 0.7901 0.61573 0.0
H640 H 0.93927 0.8346 0.61823 0.0
H641 H 1.0076 0.80955 0.64134 0.0
H642 H 0.16227 0.91318 0.62803 0.0
H643 H 0.1078 0.87391 0.62498 0.0
H644 H 0.0438 0.90628 0.60387 0.0
C645 C 0.9361 0.81145 0.61737 0.0
C646 C 0.01515 0.83044 0.63296 0.0
C647 C 0.90577 0.78594 0.61599 0.0
C648 C 0.14519 0.92063 0.62766 0.0
C649 C 0.11385 0.89802 0.6259 0.0
C650 C 0.03608 0.88539 0.61227 0.0
C651 C 0.96191 0.80697 0.61831 0.0
C652 C 0.99428 0.8335 0.62078 0.0
C653 C 0.09066 0.90635 0.62516 0.0
C654 C 0.05714 0.88182 0.62401 0.0
H655 H 0.92379 0.72818 0.61519 0.0
H656 H 0.9759 0.7721 0.61739 0.0
H657 H 0.98967 0.86464 0.6011 0.0
H658 H 0.13745 0.98491 0.62857 0.0
H659 H 0.08268 0.9454 0.62545 0.0
C660 C 0.12228 0.89432 0.39637 0.0
C661 C 0.12737 0.86898 0.39777 0.0
C662 C 0.09195 0.88947 0.39484 0.0
C663 C 1.0126 0.82829 0.3805 0.0
H664 H 0.9849 0.87872 0.40683 0.0
C665 C 0.88289 0.79006 0.38608 0.0
C666 C 0.8738 0.81252 0.38387 0.0
C667 C 0.91425 0.79873 0.38758 0.0
C668 C 0.99236 0.86463 0.39919 0.0
H669 H 0.10427 0.81871 0.39952 0.0
H670 H 0.05208 0.81044 0.39718 0.0
H671 H 0.0389 0.89098 0.41005 0.0
H672 H 0.89111 0.86201 0.38158 0.0
H673 H 0.94591 0.87713 0.38429 0.0
H674 H 0.96628 0.80184 0.36973 0.0
C675 C 0.07134 0.83404 0.39675 0.0
C676 C 0.02335 0.87168 0.40104 0.0
C677 C 0.10142 0.83885 0.39823 0.0
C678 C 0.89712 0.84403 0.38344 0.0
C679 C 0.92859 0.85273 0.385 0.0
C680 C 0.98177 0.82126 0.37868 0.0
C681 C 0.06611 0.85917 0.39467 0.0
C682 C 0.03375 0.85327 0.39194 0.0
C683 C 0.93758 0.83016 0.38696 0.0
C684 C 0.97104 0.83901 0.38821 0.0
H685 H 0.14169 0.91784 0.39594 0.0
H686 H 0.08882 0.90939 0.39323 0.0
H687 H 0.01989 0.81406 0.37287 0.0
H688 H 0.8657 0.76564 0.38695 0.0
H689 H 0.92018 0.78071 0.38949 0.0
C690 C 0.09896 0.87862 0.87436 0.0
C691 C 0.06879 0.86706 0.88166 0.0
C692 C 0.12096 0.91026 0.87546 0.0
C693 C 0.13928 0.98312 0.9013 0.0
H694 H 0.20023 0.0208 0.86082 0.0
C695 C 0.23517 0.1149 0.89963 0.0
C696 C 0.26516 0.12069 0.89501 0.0
C697 C 0.20934 0.08485 0.89784 0.0
C698 C 0.18346 0.01062 0.8723 0.0
H699 H 0.03833 0.88036 0.89579 0.0
H700 H 0.07639 0.93567 0.89715 0.0
H701 H 0.15866 0.96724 0.85761 0.0
H702 H 0.29122 0.0991 0.88491 0.0
H703 H 0.24662 0.04743 0.88173 0.0
H704 H 0.16434 0.0269 0.9159 0.0
C705 C 0.0832 0.92008 0.89085 0.0
C706 C 0.15962 0.97978 0.87051 0.0
C707 C 0.06117 0.88831 0.88982 0.0
C708 C 0.26859 0.09572 0.88861 0.0
C709 C 0.24291 0.06598 0.88664 0.0
C710 C 0.16309 0.01417 0.90303 0.0
C711 C 0.1135 0.93153 0.88374 0.0
C712 C 0.13749 0.96529 0.88513 0.0
C713 C 0.21291 0.06009 0.89113 0.0
C714 C 0.18583 0.0281 0.8887 0.0
H715 H 0.10571 0.86321 0.86772 0.0
H716 H 0.14408 0.91791 0.87007 0.0
H717 H 0.12292 0.97282 0.91297 0.0
H718 H 0.23164 0.13353 0.90461 0.0
H719 H 0.18651 0.08109 0.90137 0.0
C720 C 0.18551 0.26626 0.39671 0.0
C721 C 0.15537 0.2621 0.39647 0.0
C722 C 0.19031 0.24098 0.39504 0.0
C723 C 0.15248 0.15523 0.39904 0.0
H724 H 0.22216 0.16796 0.36762 0.0
C725 C 0.17896 0.05611 0.38069 0.0
C726 C 0.21038 0.06392 0.38108 0.0
C727 C 0.17059 0.07912 0.38236 0.0
C728 C 0.20279 0.16403 0.3766 0.0
H729 H 0.1065 0.22757 0.3948 0.0
H730 H 0.11493 0.1832 0.39175 0.0
H731 H 0.21029 0.20955 0.37112 0.0
H732 H 0.25746 0.10234 0.38414 0.0
H733 H 0.24296 0.14216 0.38685 0.0
H734 H 0.14511 0.10953 0.40447 0.0
C735 C 0.13488 0.20622 0.39335 0.0
C736 C 0.19595 0.18796 0.37863 0.0
C737 C 0.13003 0.23168 0.39507 0.0
C738 C 0.23309 0.09537 0.3833 0.0
C739 C 0.22475 0.11831 0.3849 0.0
C740 C 0.15932 0.13116 0.39697 0.0
C741 C 0.16517 0.21063 0.39299 0.0
C742 C 0.17101 0.18414 0.3901 0.0
C743 C 0.1934 0.11057 0.3844 0.0
C744 C 0.18486 0.13541 0.38593 0.0
H745 H 0.20566 0.28923 0.39799 0.0
H746 H 0.21393 0.24532 0.39532 0.0
H747 H 0.13321 0.15145 0.40807 0.0
H748 H 0.16079 0.03222 0.37881 0.0
H749 H 0.14625 0.0723 0.38172 0.0
C750 C 0.13615 0.19387 0.86758 0.0
C751 C 0.15665 0.21115 0.88245 0.0
C752 C 0.10503 0.1866 0.86801 0.0
C753 C 0.0532 0.21203 0.88924 0.0
H754 H 0.98729 0.12925 0.87628 0.0
C755 C 0.92431 0.17415 0.90226 0.0
C756 C 0.9021 0.15436 0.88884 0.0
C757 C 0.95511 0.18067 0.9012 0.0
C758 C 1.00537 0.15263 0.87969 0.0
H759 H 0.16045 0.23472 0.9093 0.0
H760 H 0.10633 0.22203 0.91007 0.0
H761 H 0.04128 0.14153 0.87467 0.0
H762 H 0.89514 0.12591 0.86374 0.0
H763 H 0.94891 0.13774 0.86166 0.0
H764 H 0.01756 0.22338 0.89405 0.0
C765 C 0.11428 0.2141 0.89805 0.0
C766 C 0.03638 0.15964 0.87879 0.0
C767 C 0.14526 0.2211 0.8977 0.0
C768 C 0.91154 0.14117 0.87437 0.0
C769 C 0.94243 0.14784 0.87324 0.0
C770 C 0.02226 0.20511 0.89001 0.0
C771 C 0.09372 0.19674 0.88322 0.0
C772 C 0.0607 0.18938 0.88368 0.0
C773 C 0.96472 0.16777 0.88662 0.0
C774 C 0.99782 0.17524 0.88538 0.0
H775 H 0.14408 0.18567 0.85569 0.0
H776 H 0.08991 0.17339 0.85629 0.0
H777 H 0.07134 0.23532 0.89279 0.0
H778 H 0.91793 0.18461 0.91368 0.0
H779 H 0.97133 0.19564 0.91199 0.0
C780 C 0.96881 0.12658 0.37896 0.0
C781 C 0.96094 0.15012 0.37969 0.0
C782 C 0.94602 0.09526 0.3812 0.0
C783 C 0.86615 0.04535 0.40034 0.0
H784 H 0.86672 0.98086 0.36944 0.0
C785 C 0.75898 0.92343 0.39416 0.0
C786 C 0.76295 0.89733 0.39414 0.0
C787 C 0.78451 0.95346 0.39331 0.0
C788 C 0.86645 0.99853 0.37836 0.0
H789 H 0.9226 0.15875 0.38353 0.0
H790 H 0.88307 0.10452 0.38686 0.0
H791 H 0.90842 0.03468 0.36587 0.0
H792 H 0.79729 0.88263 0.3932 0.0
H793 H 0.84211 0.93538 0.39166 0.0
H794 H 0.82403 0.00941 0.41262 0.0
C795 C 0.90691 0.11018 0.38482 0.0
C796 C 0.89038 0.02944 0.37632 0.0
C797 C 0.92962 0.14139 0.3826 0.0
C798 C 0.79334 0.90216 0.39329 0.0
C799 C 0.81902 0.93239 0.39229 0.0
C800 C 0.84227 0.01457 0.40232 0.0
C801 C 0.91475 0.08663 0.3843 0.0
C802 C 0.89031 0.05337 0.38709 0.0
C803 C 0.81489 0.95843 0.39234 0.0
C804 C 0.84181 0.99078 0.39117 0.0
H805 H 0.99259 0.1323 0.37658 0.0
H806 H 0.95303 0.07787 0.38083 0.0
H807 H 0.86563 0.06292 0.40925 0.0
H808 H 0.73601 0.92077 0.39478 0.0
H809 H 0.78035 0.97285 0.39308 0.0
C810 C 0.84412 0.75178 0.89342 0.0
C811 C 0.87423 0.75607 0.89493 0.0
C812 C 0.83936 0.7771 0.89206 0.0
C813 C 0.87486 0.86144 0.90085 0.0
H814 H 0.81114 0.85302 0.86532 0.0
C815 C 0.84823 0.96124 0.88472 0.0
C816 C 0.81674 0.9526 0.8827 0.0
C817 C 0.85717 0.93864 0.88635 0.0
C818 C 0.8288 0.85571 0.87546 0.0
H819 H 0.92304 0.79081 0.89663 0.0
H820 H 0.91467 0.83535 0.89418 0.0
H821 H 0.82371 0.8118 0.86779 0.0
H822 H 0.76996 0.91318 0.88166 0.0
H823 H 0.78544 0.87406 0.8844 0.0
H824 H 0.87974 0.90549 0.90853 0.0
C825 C 0.89472 0.81214 0.89413 0.0
C826 C 0.83605 0.83201 0.87687 0.0
C827 C 0.89953 0.78661 0.89549 0.0
C828 C 0.79445 0.92079 0.88273 0.0
C829 C 0.80336 0.89828 0.88432 0.0
C830 C 0.86758 0.88528 0.89942 0.0
C831 C 0.86453 0.80763 0.89212 0.0
C832 C 0.85879 0.83425 0.88981 0.0
C833 C 0.83485 0.90683 0.88595 0.0
C834 C 0.84407 0.88247 0.88692 0.0
H835 H 0.82395 0.72871 0.89315 0.0
H836 H 0.81576 0.77265 0.891 0.0
H837 H 0.89238 0.86391 0.91103 0.0
H838 H 0.86609 0.98547 0.88458 0.0
H839 H 0.88163 0.94611 0.88743 0.0
C840 C 0.11585 0.69481 0.1322 0.0
C841 C 0.13984 0.72196 0.12379 0.0
C842 C 0.11758 0.66738 0.13282 0.0
C843 C 0.1747 0.63956 0.12849 0.0
H844 H 0.10294 0.55993 0.11635 0.0
C845 C 0.18635 0.53362 0.10705 0.0
C846 C 0.16438 0.5042 0.11407 0.0
C847 C 0.18246 0.55939 0.10983 0.0
C848 C 0.12315 0.58193 0.11999 0.0
H849 H 0.18457 0.74115 0.10954 0.0
H850 H 0.18724 0.69406 0.11044 0.0
H851 H 0.0974 0.606 0.11884 0.0
H852 H 0.12078 0.47897 0.12938 0.0
H853 H 0.11412 0.52396 0.13433 0.0
H854 H 0.20058 0.61575 0.12932 0.0
C855 C 0.16727 0.69378 0.11684 0.0
C856 C 0.11994 0.60837 0.12147 0.0
C857 C 0.16555 0.72092 0.11619 0.0
C858 C 0.13837 0.5013 0.12395 0.0
C859 C 0.13436 0.52706 0.12661 0.0
C860 C 0.17791 0.61324 0.12695 0.0
C861 C 0.14342 0.66657 0.12517 0.0
C862 C 0.14582 0.63769 0.1254 0.0
C863 C 0.15639 0.5565 0.11962 0.0
C864 C 0.15232 0.58412 0.12237 0.0
H865 H 0.0957 0.69468 0.13818 0.0
H866 H 0.09882 0.64692 0.13944 0.0
H867 H 0.19504 0.66152 0.132 0.0
H868 H 0.20677 0.53684 0.09951 0.0
H869 H 0.19975 0.58157 0.10404 0.0
C870 C 0.66506 0.17892 0.61689 0.0
C871 C 0.66938 0.15557 0.60857 0.0
C872 C 0.6352 0.17495 0.61897 0.0
C873 C 0.55084 0.1151 0.6195 0.0
H874 H 0.5402 0.18561 0.60871 0.0
C875 C 0.42879 0.10634 0.61515 0.0
C876 C 0.4268 0.13191 0.62199 0.0
C877 C 0.45774 0.10767 0.61393 0.0
C878 C 0.54267 0.1657 0.61204 0.0
H879 H 0.64506 0.10914 0.59654 0.0
H880 H 0.59328 0.10245 0.59991 0.0
H881 H 0.59144 0.19111 0.60623 0.0
H882 H 0.45381 0.17837 0.63376 0.0
H883 H 0.50337 0.18036 0.63203 0.0
H884 H 0.50191 0.08973 0.62533 0.0
C885 C 0.61298 0.12386 0.60491 0.0
C886 C 0.57223 0.1689 0.61061 0.0
C887 C 0.64283 0.12787 0.60277 0.0
C888 C 0.45429 0.1583 0.62815 0.0
C889 C 0.48296 0.15957 0.62703 0.0
C890 C 0.52118 0.11191 0.62098 0.0
C891 C 0.60869 0.14745 0.61287 0.0
C892 C 0.57688 0.14373 0.61442 0.0
C893 C 0.48535 0.13458 0.61956 0.0
C894 C 0.51667 0.13726 0.61742 0.0
H895 H 0.68483 0.20064 0.62143 0.0
H896 H 0.63292 0.19351 0.62541 0.0
H897 H 0.55345 0.09523 0.6227 0.0
H898 H 0.40817 0.08567 0.61023 0.0
H899 H 0.45856 0.08796 0.60804 0.0
C900 C 0.52034 0.64227 0.12253 0.0
C901 C 0.51723 0.66615 0.11385 0.0
C902 C 0.49447 0.61258 0.12513 0.0
C903 C 0.40826 0.57099 0.12755 0.0
H904 H 0.4138 0.49749 0.1165 0.0
C905 C 0.29905 0.45202 0.11661 0.0
C906 C 0.29811 0.42484 0.12329 0.0
C907 C 0.32639 0.48072 0.11731 0.0
C908 C 0.41192 0.51772 0.11995 0.0
H909 H 0.48405 0.67727 0.10138 0.0
H910 H 0.43917 0.62567 0.10574 0.0
H911 H 0.46013 0.54885 0.11402 0.0
H912 H 0.32574 0.407 0.13614 0.0
H913 H 0.37384 0.45754 0.13744 0.0
H914 H 0.36017 0.54011 0.13337 0.0
C915 C 0.46161 0.6299 0.11067 0.0
C916 C 0.43853 0.54724 0.11849 0.0
C917 C 0.48746 0.65949 0.10797 0.0
C918 C 0.32552 0.42737 0.13088 0.0
C919 C 0.35315 0.45634 0.13152 0.0
C920 C 0.38178 0.54158 0.12906 0.0
C921 C 0.4647 0.60597 0.11927 0.0
C922 C 0.43694 0.57433 0.12195 0.0
C923 C 0.3539 0.48344 0.12473 0.0
C924 C 0.38303 0.5145 0.12493 0.0
H925 H 0.54291 0.64637 0.12707 0.0
H926 H 0.49777 0.59486 0.13193 0.0
H927 H 0.40622 0.59119 0.13078 0.0
H928 H 0.27859 0.45128 0.11065 0.0
H929 H 0.32602 0.50078 0.11161 0.0
C930 C 0.89138 0.51605 0.60099 0.0
C931 C 0.86349 0.51446 0.60677 0.0
C932 C 0.8958 0.49048 0.60309 0.0
C933 C 0.86499 0.41487 0.62879 0.0
H934 H 0.90828 0.397 0.58905 0.0
C935 C 0.85985 0.29662 0.62341 0.0
C936 C 0.88671 0.29565 0.61819 0.0
C937 C 0.85925 0.32441 0.62293 0.0
C938 C 0.89652 0.40187 0.60042 0.0
H939 H 0.81832 0.4843 0.61927 0.0
H940 H 0.82583 0.43967 0.62277 0.0
H941 H 0.90231 0.44265 0.58628 0.0
H942 H 0.93421 0.32364 0.60849 0.0
H943 H 0.93314 0.37247 0.60757 0.0
H944 H 0.85873 0.37377 0.64274 0.0
C945 C 0.84461 0.46093 0.6169 0.0
C946 C 0.89306 0.42812 0.59885 0.0
C947 C 0.84024 0.48657 0.61487 0.0
C948 C 0.91316 0.3235 0.61264 0.0
C949 C 0.91246 0.35144 0.612 0.0
C950 C 0.86834 0.38859 0.63032 0.0
C951 C 0.87244 0.46244 0.61099 0.0
C952 C 0.87699 0.4349 0.61293 0.0
C953 C 0.88542 0.35223 0.61712 0.0
C954 C 0.88388 0.38151 0.61607 0.0
H955 H 0.91009 0.53728 0.59503 0.0
H956 H 0.91778 0.4929 0.5987 0.0
H957 H 0.85308 0.41954 0.64016 0.0
H958 H 0.83898 0.27575 0.62781 0.0
H959 H 0.83789 0.32391 0.62673 0.0
C960 C 0.59171 0.90452 0.13068 0.0
C961 C 0.59407 0.87879 0.12462 0.0
C962 C 0.56269 0.90303 0.13121 0.0
C963 C 0.47744 0.84613 0.13126 0.0
H964 H 0.46947 0.91497 0.11218 0.0
C965 C 0.3585 0.83198 0.11036 0.0
C966 C 0.35252 0.85602 0.11501 0.0
C967 C 0.38814 0.83573 0.11294 0.0
C968 C 0.47129 0.89564 0.11778 0.0
H969 H 0.56728 0.83108 0.11468 0.0
H970 H 0.51757 0.82872 0.11542 0.0
H971 H 0.52086 0.92014 0.11473 0.0
H972 H 0.37348 0.90312 0.12584 0.0
H973 H 0.42503 0.90952 0.1305 0.0
H974 H 0.42795 0.82145 0.13404 0.0
C975 C 0.53786 0.84999 0.12 0.0
C976 C 0.50083 0.89864 0.11928 0.0
C977 C 0.56664 0.85149 0.11943 0.0
C978 C 0.37707 0.88395 0.12231 0.0
C979 C 0.40678 0.88776 0.12478 0.0
C980 C 0.44799 0.84311 0.12971 0.0
C981 C 0.53535 0.8757 0.12583 0.0
C982 C 0.50429 0.87374 0.12577 0.0
C983 C 0.41273 0.86369 0.12015 0.0
C984 C 0.44441 0.86764 0.1227 0.0
H985 H 0.61227 0.92593 0.13477 0.0
H986 H 0.56165 0.92324 0.13592 0.0
H987 H 0.47914 0.82665 0.13673 0.0
H988 H 0.34017 0.81008 0.10485 0.0
H989 H 0.39187 0.81678 0.109 0.0
C990 C 0.69977 0.5879 0.63234 0.0
C991 C 0.72708 0.59069 0.62443 0.0
C992 C 0.67236 0.55878 0.63323 0.0
C993 C 0.6445 0.47376 0.63127 0.0
H994 H 0.56558 0.46522 0.61628 0.0
C995 C 0.5396 0.35481 0.61096 0.0
C996 C 0.5096 0.348 0.61639 0.0
C997 C 0.56524 0.38454 0.61368 0.0
C998 C 0.58733 0.46718 0.62076 0.0
H999 H 0.74675 0.56455 0.61157 0.0
H1000 H 0.69966 0.51469 0.61304 0.0
H1001 H 0.61157 0.51688 0.61838 0.0
H1002 H 0.48334 0.36762 0.62897 0.0
H1003 H 0.52812 0.41936 0.63393 0.0
H1004 H 0.62055 0.42422 0.63345 0.0
C1005 C 0.6992 0.53472 0.61872 0.0
C1006 C 0.61375 0.49688 0.62199 0.0
C1007 C 0.72631 0.56359 0.61773 0.0
C1008 C 0.50608 0.37184 0.62477 0.0
C1009 C 0.53176 0.40167 0.62742 0.0
C1010 C 0.61818 0.44417 0.63004 0.0
C1011 C 0.67176 0.53177 0.62643 0.0
C1012 C 0.64285 0.50055 0.62692 0.0
C1013 C 0.56174 0.40848 0.6219 0.0
C1014 C 0.58929 0.44034 0.62445 0.0
H1015 H 0.69943 0.60821 0.63762 0.0
H1016 H 0.65171 0.55739 0.63937 0.0
H1017 H 0.6663 0.47562 0.63553 0.0
H1018 H 0.54337 0.33708 0.60464 0.0
H1019 H 0.58782 0.38887 0.60901 0.0
C1020 C 0.32929 0.9051 0.37949 0.0
C1021 C 0.30143 0.87914 0.38557 0.0
C1022 C 0.35704 0.90398 0.37882 0.0
C1023 C 0.38643 0.84773 0.37879 0.0
H1024 H 0.46268 0.91701 0.39812 0.0
C1025 C 0.49112 0.83435 0.40114 0.0
C1026 C 0.52119 0.85832 0.39655 0.0
C1027 C 0.46524 0.838 0.39819 0.0
C1028 C 0.44169 0.89756 0.39246 0.0
H1029 H 0.28109 0.83136 0.39523 0.0
H1030 H 0.32873 0.82963 0.39427 0.0
H1031 H 0.41623 0.92175 0.39518 0.0
H1032 H 0.54739 0.90519 0.38541 0.0
H1033 H 0.50224 0.91146 0.38017 0.0
H1034 H 0.4116 0.82332 0.3764 0.0
C1035 C 0.32943 0.85082 0.3898 0.0
C1036 C 0.41502 0.90032 0.39072 0.0
C1037 C 0.30197 0.85195 0.39051 0.0
C1038 C 0.5246 0.88608 0.38893 0.0
C1039 C 0.49871 0.88982 0.38611 0.0
C1040 C 0.41298 0.84494 0.3806 0.0
C1041 C 0.35747 0.87679 0.38406 0.0
C1042 C 0.38683 0.87523 0.38417 0.0
C1043 C 0.46864 0.86581 0.39067 0.0
C1044 C 0.44088 0.86962 0.38773 0.0
H1045 H 0.32982 0.92643 0.3756 0.0
H1046 H 0.37813 0.92438 0.37418 0.0
H1047 H 0.36544 0.82812 0.37326 0.0
H1048 H 0.48751 0.81257 0.40689 0.0
H1049 H 0.44253 0.81911 0.40209 0.0
C1050 C 0.66697 0.48429 0.89914 0.0
C1051 C 0.67144 0.51426 0.89631 0.0
C1052 C 0.63752 0.45793 0.89687 0.0
C1053 C 0.55329 0.43333 0.89588 0.0
H1054 H 0.54471 0.35704 0.87535 0.0
C1055 C 0.43256 0.32224 0.88364 0.0
C1056 C 0.43025 0.29412 0.88958 0.0
C1057 C 0.46161 0.34967 0.8829 0.0
C1058 C 0.54666 0.37809 0.88123 0.0
H1059 H 0.64827 0.53965 0.88808 0.0
H1060 H 0.59721 0.49392 0.88402 0.0
H1061 H 0.59589 0.40331 0.87704 0.0
H1062 H 0.45708 0.27296 0.89896 0.0
H1063 H 0.50704 0.32023 0.89768 0.0
H1064 H 0.50397 0.40793 0.90012 0.0
C1065 C 0.6163 0.49072 0.88844 0.0
C1066 C 0.57612 0.40469 0.88225 0.0
C1067 C 0.6457 0.51704 0.89075 0.0
C1068 C 0.45775 0.29409 0.89438 0.0
C1069 C 0.48661 0.32128 0.8935 0.0
C1070 C 0.52378 0.40671 0.8948 0.0
C1071 C 0.61165 0.46075 0.89162 0.0
C1072 C 0.57997 0.43265 0.88979 0.0
C1073 C 0.48904 0.34953 0.88786 0.0
C1074 C 0.52009 0.3786 0.88768 0.0
H1075 H 0.68608 0.48118 0.90365 0.0
H1076 H 0.63491 0.43536 0.89972 0.0
H1077 H 0.55523 0.45423 0.902 0.0
H1078 H 0.41194 0.32318 0.87985 0.0
H1079 H 0.46261 0.37096 0.87836 0.0
C1080 C 0.19201 0.66231 0.39548 0.0
C1081 C 0.16603 0.66646 0.39598 0.0
C1082 C 0.18848 0.63282 0.39241 0.0
C1083 C 0.1296 0.54843 0.39512 0.0
H1084 H 0.19144 0.53922 0.36673 0.0
C1085 C 0.11792 0.42738 0.38067 0.0
C1086 C 0.14499 0.42579 0.38402 0.0
C1087 C 0.11911 0.45626 0.38016 0.0
C1088 C 0.17399 0.54135 0.37479 0.0
H1089 H 0.11596 0.64264 0.39284 0.0
H1090 H 0.10985 0.59151 0.38738 0.0
H1091 H 0.19641 0.59033 0.36976 0.0
H1092 H 0.1947 0.45357 0.38871 0.0
H1093 H 0.19669 0.50327 0.38774 0.0
H1094 H 0.10731 0.49938 0.40022 0.0
C1095 C 0.13296 0.61089 0.38981 0.0
C1096 C 0.17691 0.57077 0.37659 0.0
C1097 C 0.13649 0.64033 0.39293 0.0
C1098 C 0.1733 0.45376 0.38618 0.0
C1099 C 0.17452 0.48243 0.38549 0.0
C1100 C 0.12662 0.51896 0.39326 0.0
C1101 C 0.15887 0.60658 0.38966 0.0
C1102 C 0.15498 0.57487 0.38699 0.0
C1103 C 0.14744 0.48418 0.38273 0.0
C1104 C 0.14901 0.51505 0.38328 0.0
H1105 H 0.21508 0.68174 0.39799 0.0
H1106 H 0.209 0.6305 0.39269 0.0
H1107 H 0.11241 0.55056 0.40346 0.0
H1108 H 0.09573 0.40634 0.37901 0.0
H1109 H 0.09782 0.45672 0.37784 0.0
C1110 C 0.72141 0.15715 0.88448 0.0
C1111 C 0.72299 0.13106 0.89074 0.0
C1112 C 0.69359 0.15767 0.88522 0.0
C1113 C 0.61823 0.12306 0.91019 0.0
H1114 H 0.59766 0.16307 0.86968 0.0
C1115 C 0.52613 0.16112 0.92005 0.0
C1116 C 0.50628 0.1572 0.90458 0.0
C1117 C 0.55121 0.15595 0.91782 0.0
C1118 C 0.60282 0.15157 0.88107 0.0
H1119 H 0.69603 0.08477 0.90251 0.0
H1120 H 0.64712 0.08569 0.90388 0.0
H1121 H 0.6426 0.15614 0.86625 0.0
H1122 H 0.49762 0.1445 0.87456 0.0
H1123 H 0.54145 0.13585 0.87064 0.0
H1124 H 0.5784 0.11852 0.92502 0.0
C1125 C 0.6677 0.10584 0.89844 0.0
C1126 C 0.62883 0.14784 0.87918 0.0
C1127 C 0.69567 0.1052 0.89752 0.0
C1128 C 0.51257 0.14827 0.88675 0.0
C1129 C 0.53773 0.1432 0.88451 0.0
C1130 C 0.59227 0.12694 0.91213 0.0
C1131 C 0.66635 0.13218 0.89234 0.0
C1132 C 0.63714 0.13384 0.8938 0.0
C1133 C 0.55736 0.14682 0.90004 0.0
C1134 C 0.58434 0.14153 0.89768 0.0
H1135 H 0.74186 0.17754 0.87911 0.0
H1136 H 0.69368 0.17852 0.88064 0.0
H1137 H 0.62399 0.11239 0.9218 0.0
H1138 H 0.52251 0.16851 0.93392 0.0
H1139 H 0.56611 0.1596 0.93002 0.0
C1140 C 0.36152 0.53362 0.39797 0.0
C1141 C 0.35727 0.50347 0.39723 0.0
C1142 C 0.39104 0.55973 0.39534 0.0
C1143 C 0.47534 0.58465 0.39716 0.0
H1144 H 0.48467 0.65791 0.3715 0.0
C1145 C 0.59647 0.69421 0.3834 0.0
C1146 C 0.59851 0.72288 0.38751 0.0
C1147 C 0.56746 0.66671 0.38298 0.0
C1148 C 0.4825 0.63772 0.37881 0.0
H1149 H 0.38089 0.47737 0.39236 0.0
H1150 H 0.43206 0.52265 0.38766 0.0
H1151 H 0.43347 0.6118 0.37386 0.0
H1152 H 0.57128 0.74494 0.39385 0.0
H1153 H 0.52136 0.69753 0.39309 0.0
H1154 H 0.52445 0.61075 0.40215 0.0
C1155 C 0.41275 0.52625 0.39072 0.0
C1156 C 0.45303 0.61122 0.38022 0.0
C1157 C 0.38329 0.50019 0.3934 0.0
C1158 C 0.5708 0.72338 0.39071 0.0
C1159 C 0.54198 0.6961 0.39013 0.0
C1160 C 0.50486 0.61115 0.39568 0.0
C1161 C 0.41717 0.55646 0.39182 0.0
C1162 C 0.4489 0.58437 0.38961 0.0
C1163 C 0.53982 0.66731 0.38642 0.0
C1164 C 0.50881 0.63821 0.3867 0.0
H1165 H 0.34217 0.53713 0.40111 0.0
H1166 H 0.39345 0.58253 0.39657 0.0
H1167 H 0.47317 0.56466 0.40472 0.0
H1168 H 0.61727 0.69291 0.38089 0.0
H1169 H 0.56667 0.64498 0.37992 0.0
C1170 C 0.91061 0.58957 0.88173 0.0
C1171 C 0.88443 0.59159 0.88717 0.0
C1172 C 0.90931 0.56063 0.8811 0.0
C1173 C 0.85306 0.47526 0.87933 0.0
H1174 H 0.92085 0.46736 0.90041 0.0
C1175 C 0.84983 0.35687 0.88045 0.0
C1176 C 0.86073 0.34953 0.89714 0.0
C1177 C 0.85454 0.38687 0.87756 0.0
C1178 C 0.90161 0.46908 0.89454 0.0
H1179 H 0.83611 0.56429 0.89579 0.0
H1180 H 0.83401 0.51464 0.8948 0.0
H1181 H 0.92548 0.51852 0.89826 0.0
H1182 H 0.88612 0.36877 0.92358 0.0
H1183 H 0.89362 0.42053 0.91878 0.0
H1184 H 0.82874 0.42584 0.87618 0.0
C1185 C 0.85554 0.53517 0.89085 0.0
C1186 C 0.90445 0.49856 0.89307 0.0
C1187 C 0.85687 0.5639 0.89158 0.0
C1188 C 0.87691 0.37326 0.91068 0.0
C1189 C 0.88164 0.40321 0.90779 0.0
C1190 C 0.85024 0.44585 0.88076 0.0
C1191 C 0.88171 0.53301 0.88571 0.0
C1192 C 0.88 0.50203 0.88573 0.0
C1193 C 0.87037 0.41048 0.89125 0.0
C1194 C 0.87429 0.44221 0.88863 0.0
H1195 H 0.93222 0.61034 0.87825 0.0
H1196 H 0.92989 0.55988 0.87693 0.0
H1197 H 0.83388 0.47697 0.87334 0.0
H1198 H 0.83712 0.33929 0.86973 0.0
H1199 H 0.8458 0.39156 0.86453 0.0
C1200 C 0.19178 0.38155 0.32829 0.0
C1201 C 0.17285 0.35209 0.33642 0.0
C1202 C 0.19593 0.38487 0.30834 0.0
C1203 C 0.15737 0.34269 0.26356 0.0
H1204 H 0.23579 0.39799 0.23892 0.0
C1205 C 0.18273 0.32648 0.18583 0.0
C1206 C 0.19698 0.35252 0.17375 0.0
C1207 C 0.17952 0.32991 0.20538 0.0
C1208 C 0.21365 0.38278 0.24563 0.0
H1209 H 0.14513 0.30291 0.33014 0.0
H1210 H 0.15298 0.30855 0.29581 0.0
H1211 H 0.23205 0.39737 0.27397 0.0
H1212 H 0.21903 0.40268 0.17276 0.0
H1213 H 0.21382 0.40872 0.2073 0.0
H1214 H 0.13922 0.32734 0.23538 0.0
C1215 C 0.16376 0.32928 0.30458 0.0
C1216 C 0.21149 0.3824 0.26569 0.0
C1217 C 0.15945 0.32601 0.32434 0.0
C1218 C 0.20778 0.38217 0.18169 0.0
C1219 C 0.20501 0.38565 0.20144 0.0
C1220 C 0.1596 0.3429 0.24364 0.0
C1221 C 0.18133 0.35877 0.29621 0.0
C1222 C 0.18347 0.36175 0.27492 0.0
C1223 C 0.19081 0.35948 0.21346 0.0
C1224 C 0.18789 0.36242 0.23445 0.0
H1225 H 0.20234 0.4021 0.33723 0.0
H1226 H 0.20964 0.40793 0.30239 0.0
H1227 H 0.13517 0.32716 0.2701 0.0
H1228 H 0.1741 0.3033 0.18019 0.0
H1229 H 0.16874 0.30933 0.21429 0.0
C1230 C 0.86971 0.23115 0.68647 0.0
C1231 C 0.85137 0.20676 0.67381 0.0
C1232 C 0.86286 0.22867 0.70598 0.0
C1233 C 0.80268 0.18388 0.74247 0.0
H1234 H 0.87402 0.21063 0.7758 0.0
C1235 C 0.79227 0.14571 0.8214 0.0
C1236 C 0.8133 0.16648 0.835 0.0
C1237 C 0.79524 0.15349 0.80201 0.0
C1238 C 0.85387 0.20356 0.76678 0.0
H1239 H 0.81048 0.16116 0.67164 0.0
H1240 H 0.79861 0.1566 0.70595 0.0
H1241 H 0.88157 0.21823 0.74141 0.0
H1242 H 0.85332 0.21234 0.83883 0.0
H1243 H 0.85841 0.22608 0.80484 0.0
H1244 H 0.77496 0.16874 0.76792 0.0
C1245 C 0.81823 0.1778 0.70067 0.0
C1246 C 0.85818 0.20786 0.747 0.0
C1247 C 0.82503 0.18037 0.68101 0.0
C1248 C 0.8368 0.19574 0.82875 0.0
C1249 C 0.83982 0.20353 0.80926 0.0
C1250 C 0.79836 0.1796 0.7623 0.0
C1251 C 0.83757 0.20165 0.71345 0.0
C1252 C 0.83265 0.19789 0.73456 0.0
C1253 C 0.81932 0.18228 0.79561 0.0
C1254 C 0.8239 0.18912 0.77469 0.0
H1255 H 0.8899 0.25207 0.68139 0.0
H1256 H 0.87779 0.2478 0.7153 0.0
H1257 H 0.78255 0.1763 0.73335 0.0
H1258 H 0.77375 0.12298 0.82563 0.0
H1259 H 0.77925 0.13638 0.79195 0.0
C1260 C 0.66191 0.87467 0.18808 0.0
C1261 C 0.6605 0.85233 0.17524 0.0
C1262 C 0.65796 0.86859 0.2077 0.0
C1263 C 0.63527 0.80547 0.24439 0.0
H1264 H 0.68361 0.87598 0.27769 0.0
C1265 C 0.67148 0.7996 0.32273 0.0
C1266 C 0.66481 0.81607 0.33651 0.0
C1267 C 0.66647 0.80206 0.30328 0.0
C1268 C 0.66972 0.85615 0.26857 0.0
H1269 H 0.65331 0.80587 0.17263 0.0
H1270 H 0.64821 0.79565 0.20708 0.0
H1271 H 0.68421 0.88387 0.24333 0.0
H1272 H 0.64733 0.84774 0.34077 0.0
H1273 H 0.63976 0.85305 0.30647 0.0
H1274 H 0.62269 0.7777 0.26993 0.0
C1275 C 0.65125 0.81758 0.20207 0.0
C1276 C 0.66982 0.8606 0.2488 0.0
C1277 C 0.65433 0.82341 0.1823 0.0
C1278 C 0.65261 0.83476 0.33045 0.0
C1279 C 0.64835 0.83784 0.31089 0.0
C1280 C 0.63579 0.80098 0.26417 0.0
C1281 C 0.6535 0.84032 0.21512 0.0
C1282 C 0.65259 0.83535 0.23634 0.0
C1283 C 0.65536 0.82158 0.29715 0.0
C1284 C 0.65302 0.8263 0.2764 0.0
H1285 H 0.66619 0.89702 0.18293 0.0
H1286 H 0.65873 0.88635 0.21702 0.0
H1287 H 0.62124 0.78546 0.23547 0.0
H1288 H 0.68069 0.78484 0.32699 0.0
H1289 H 0.67225 0.78947 0.29295 0.0
C1290 C 0.81767 0.6319 0.68185 0.0
C1291 C 0.82936 0.66164 0.67386 0.0
C1292 C 0.82143 0.62847 0.70149 0.0
C1293 C 0.87054 0.66994 0.74279 0.0
H1294 H 0.79833 0.62094 0.77461 0.0
C1295 C 0.87611 0.69018 0.82357 0.0
C1296 C 0.8604 0.66485 0.83605 0.0
C1297 C 0.87149 0.68644 0.80382 0.0
C1298 C 0.81883 0.63431 0.76593 0.0
H1299 H 0.85497 0.71098 0.67999 0.0
H1300 H 0.86216 0.705 0.71386 0.0
H1301 H 0.79281 0.61946 0.73968 0.0
H1302 H 0.82683 0.61569 0.83748 0.0
H1303 H 0.81905 0.60897 0.80275 0.0
H1304 H 0.89671 0.6849 0.76872 0.0
C1305 C 0.84986 0.68434 0.70511 0.0
C1306 C 0.81563 0.63344 0.74592 0.0
C1307 C 0.84561 0.68775 0.68571 0.0
C1308 C 0.83925 0.6357 0.82826 0.0
C1309 C 0.83477 0.63188 0.80835 0.0
C1310 C 0.87381 0.67057 0.76267 0.0
C1311 C 0.83758 0.65473 0.7133 0.0
C1312 C 0.84135 0.65191 0.7342 0.0
C1313 C 0.85125 0.65716 0.79585 0.0
C1314 C 0.84788 0.65352 0.77458 0.0
H1315 H 0.80488 0.61137 0.67308 0.0
H1316 H 0.81179 0.60537 0.70745 0.0
H1317 H 0.89085 0.68405 0.7341 0.0
H1318 H 0.89225 0.71308 0.82904 0.0
H1319 H 0.88389 0.70668 0.79478 0.0
C1320 C 0.15482 0.83546 0.18713 0.0
C1321 C 0.16727 0.82199 0.1749 0.0
C1322 C 0.16201 0.83919 0.20661 0.0
C1323 C 0.18416 0.8078 0.24672 0.0
H1324 H 0.20656 0.88673 0.27046 0.0
C1325 C 0.20898 0.83229 0.32884 0.0
C1326 C 0.19878 0.85134 0.33723 0.0
C1327 C 0.20711 0.82765 0.30891 0.0
C1328 C 0.19998 0.86439 0.26415 0.0
H1329 H 0.19703 0.80176 0.17361 0.0
H1330 H 0.20918 0.8078 0.20804 0.0
H1331 H 0.20061 0.88127 0.23587 0.0
H1332 H 0.17693 0.87886 0.33142 0.0
H1333 H 0.17281 0.87009 0.29716 0.0
H1334 H 0.18244 0.79059 0.27516 0.0
C1335 C 0.194 0.81562 0.20234 0.0
C1336 C 0.19679 0.86137 0.24428 0.0
C1337 C 0.18721 0.81237 0.18265 0.0
C1338 C 0.18547 0.86445 0.32542 0.0
C1339 C 0.18335 0.85961 0.30568 0.0
C1340 C 0.18705 0.81072 0.26673 0.0
C1341 C 0.1815 0.82918 0.21448 0.0
C1342 C 0.18825 0.83292 0.23537 0.0
C1343 C 0.19483 0.84182 0.29704 0.0
C1344 C 0.1943 0.83891 0.27573 0.0
H1345 H 0.13945 0.8432 0.18164 0.0
H1346 H 0.15181 0.84946 0.21563 0.0
H1347 H 0.17742 0.78554 0.24022 0.0
H1348 H 0.21942 0.82193 0.33756 0.0
H1349 H 0.21619 0.81381 0.30277 0.0
C1350 C 0.38997 0.20322 0.832 0.0
C1351 C 0.36154 0.19946 0.83853 0.0
C1352 C 0.39545 0.20268 0.81231 0.0
C1353 C 0.39284 0.18229 0.77046 0.0
H1354 H 0.35737 0.21683 0.7355 0.0
C1355 C 0.36823 0.14567 0.69145 0.0
C1356 C 0.37011 0.16693 0.67748 0.0
C1357 C 0.37285 0.1538 0.71079 0.0
C1358 C 0.36792 0.2075 0.74499 0.0
H1359 H 0.31632 0.19135 0.82938 0.0
H1360 H 0.32562 0.18985 0.7955 0.0
H1361 H 0.35506 0.22361 0.76984 0.0
H1362 H 0.3796 0.21401 0.67297 0.0
H1363 H 0.38804 0.2284 0.70687 0.0
H1364 H 0.40582 0.1663 0.74557 0.0
C1365 C 0.34407 0.19404 0.80541 0.0
C1366 C 0.36619 0.21101 0.76475 0.0
C1367 C 0.33864 0.19464 0.82496 0.0
C1368 C 0.37781 0.197 0.68334 0.0
C1369 C 0.38249 0.20518 0.70279 0.0
C1370 C 0.39467 0.17888 0.75068 0.0
C1371 C 0.37262 0.19838 0.79876 0.0
C1372 C 0.37786 0.19772 0.77777 0.0
C1373 C 0.37963 0.1835 0.71681 0.0
C1374 C 0.38152 0.19075 0.73768 0.0
H1375 H 0.40815 0.20707 0.84205 0.0
H1376 H 0.41776 0.20617 0.80769 0.0
H1377 H 0.40206 0.17173 0.78003 0.0
H1378 H 0.36242 0.1223 0.68756 0.0
H1379 H 0.36993 0.13628 0.72111 0.0
C1380 C 0.30071 0.20618 0.95837 0.0
C1381 C 0.32968 0.22771 0.95061 0.0
C1382 C 0.2876 0.21503 0.97322 0.0
C1383 C 0.30663 0.27481 0.01074 0.0
H1384 H 0.22292 0.25959 1.0031 0.0
C1385 C 0.26319 0.34206 0.05504 0.0
C1386 C 0.23289 0.32607 0.06236 0.0
C1387 C 0.27267 0.32885 0.0408 0.0
C1388 C 0.24618 0.26376 1.00561 0.0
H1389 H 0.36804 0.27478 0.95264 0.0
H1390 H 0.34599 0.28981 0.97888 0.0
H1391 H 0.24427 0.23648 0.98121 0.0
H1392 H 0.18832 0.28405 0.06007 0.0
H1393 H 0.20489 0.26055 0.03518 0.0
H1394 H 0.30881 0.30185 0.03507 0.0
C1395 C 0.3332 0.2662 0.97359 0.0
C1396 C 0.25839 0.25041 0.99308 0.0
C1397 C 0.34594 0.25757 0.9586 0.0
C1398 C 0.21163 0.29719 0.05436 0.0
C1399 C 0.22127 0.28365 0.0402 0.0
C1400 C 0.29443 0.28791 0.02329 0.0
C1401 C 0.30351 0.24537 0.98077 0.0
C1402 C 0.28901 0.25629 0.99529 0.0
C1403 C 0.25231 0.29886 0.03375 0.0
C1404 C 0.26427 0.28321 0.0207 0.0
H1405 H 0.28736 0.18325 0.95215 0.0
H1406 H 0.26476 0.1984 0.9785 0.0
H1407 H 0.3301 0.27942 0.01306 0.0
H1408 H 0.2801 0.36427 0.06104 0.0
H1409 H 0.29643 0.34179 0.03582 0.0
C1410 C 0.11053 0.30998 0.45981 0.0
C1411 C 0.10982 0.33191 0.44745 0.0
C1412 C 0.08934 0.29751 0.47509 0.0
C1413 C 0.03218 0.30889 0.50391 0.0
H1414 H 0.99144 0.21975 0.5107 0.0
C1415 C 0.92291 0.24316 0.55196 0.0
C1416 C 0.92303 0.22107 0.56444 0.0
C1417 C 0.94482 0.25591 0.53708 0.0
C1418 C 1.0027 0.24471 0.50911 0.0
H1419 H 0.08763 0.3592 0.44208 0.0
H1420 H 0.05125 0.33788 0.46848 0.0
H1421 H 0.03402 0.24512 0.48788 0.0
H1422 H 0.94518 0.19386 0.57041 0.0
H1423 H 0.98283 0.21571 0.54468 0.0
H1424 H 1.00078 0.30847 0.52508 0.0
C1425 C 0.06794 0.33016 0.46659 0.0
C1426 C 0.02731 0.25931 0.49608 0.0
C1427 C 0.08883 0.34237 0.45136 0.0
C1428 C 0.94437 0.21083 0.56106 0.0
C1429 C 0.966 0.22333 0.54621 0.0
C1430 C 1.00755 0.29429 0.51692 0.0
C1431 C 0.06725 0.30694 0.47839 0.0
C1432 C 0.04238 0.29162 0.49324 0.0
C1433 C 0.9671 0.2466 0.53427 0.0
C1434 C 0.99241 0.26197 0.51971 0.0
H1435 H 0.1262 0.30123 0.45705 0.0
H1436 H 0.08979 0.27997 0.48404 0.0
H1437 H 0.0434 0.33385 0.50232 0.0
H1438 H 0.90698 0.25174 0.55426 0.0
H1439 H 0.94469 0.27348 0.52799 0.0
C1440 C 0.71348 0.91297 0.05157 0.0
C1441 C 0.69023 0.91265 0.06315 0.0
C1442 C 0.72591 0.9339 0.03615 0.0
C1443 C 0.7125 0.9881 1.00556 0.0
H1444 H 0.80208 0.03276 1.00067 0.0
C1445 C 0.77612 0.0974 0.95746 0.0
C1446 C 0.79922 0.09826 0.94547 0.0
C1447 C 0.7637 0.07566 0.97244 0.0
C1448 C 0.77701 0.02041 1.00174 0.0
H1449 H 0.66059 0.93262 0.06699 0.0
H1450 H 0.68183 0.96853 0.04037 0.0
H1451 H 0.77723 0.99027 0.0236 0.0
H1452 H 0.82859 0.07821 0.94052 0.0
H1453 H 0.80734 0.04088 0.96649 0.0
H1454 H 0.7123 0.01835 0.98378 0.0
C1455 C 0.69063 0.95285 0.04295 0.0
C1456 C 0.76271 0.99584 0.01483 0.0
C1457 C 0.67845 0.93224 0.05831 0.0
C1458 C 0.81082 0.07821 0.94949 0.0
C1459 C 0.79865 0.05677 0.96446 0.0
C1460 C 0.7268 0.0127 0.99251 0.0
C1461 C 0.71511 0.95465 0.03194 0.0
C1462 C 0.73024 0.97938 0.01699 0.0
C1463 C 0.77435 0.05457 0.97585 0.0
C1464 C 0.75926 0.02926 0.99043 0.0
H1465 H 0.72326 0.89841 0.05507 0.0
H1466 H 0.74447 0.93432 0.02782 0.0
H1467 H 0.68743 0.97577 0.0066 0.0
H1468 H 0.7665 0.11232 0.95466 0.0
H1469 H 0.74529 0.07493 0.98111 0.0
C1470 C 0.76097 0.67648 0.55624 0.0
C1471 C 0.79154 0.69161 0.56322 0.0
C1472 C 0.75248 0.6889 0.54101 0.0
C1473 C 0.77142 0.76282 0.5189 0.0
H1474 H 0.71677 0.71066 0.47853 0.0
C1475 C 0.72663 0.8092 0.45639 0.0
C1476 C 0.69728 0.78848 0.44875 0.0
C1477 C 0.73957 0.79941 0.47084 0.0
C1478 C 0.7316 0.72557 0.48986 0.0
H1479 H 0.83736 0.73159 0.55964 0.0
H1480 H 0.82239 0.75375 0.53292 0.0
H1481 H 0.73803 0.6892 0.50128 0.0
H1482 H 0.65772 0.74216 0.45092 0.0
H1483 H 0.67915 0.7257 0.4767 0.0
H1484 H 0.76425 0.79901 0.50778 0.0
C1485 C 0.8051 0.73198 0.53918 0.0
C1486 C 0.74404 0.71325 0.50281 0.0
C1487 C 0.81379 0.71911 0.55426 0.0
C1488 C 0.68031 0.75866 0.45666 0.0
C1489 C 0.69292 0.74907 0.47122 0.0
C1490 C 0.75869 0.77515 0.506 0.0
C1491 C 0.77419 0.71721 0.53258 0.0
C1492 C 0.76377 0.73154 0.51766 0.0
C1493 C 0.72329 0.76878 0.47797 0.0
C1494 C 0.73813 0.75652 0.49146 0.0
H1495 H 0.74327 0.65551 0.56309 0.0
H1496 H 0.72845 0.67705 0.53644 0.0
H1497 H 0.78633 0.77746 0.5303 0.0
H1498 H 0.7405 0.83209 0.45023 0.0
H1499 H 0.763 0.81529 0.47559 0.0
C1500 C 0.92967 0.67387 0.95675 0.0
C1501 C 0.91536 0.68957 0.94891 0.0
C1502 C 0.9505 0.6866 0.97201 0.0
C1503 C 1.00716 0.76134 0.99268 0.0
H1504 H 1.00864 0.71051 0.03424 0.0
C1505 C 0.09883 0.80856 0.05499 0.0
C1506 C 0.10699 0.78766 0.06293 0.0
C1507 C 0.07603 0.79873 0.04058 0.0
C1508 C 1.00897 0.72503 0.02259 0.0
H1509 H 0.91137 0.73085 0.95102 0.0
H1510 H 0.94823 0.75345 0.97783 0.0
H1511 H 0.96563 0.68882 0.0117 0.0
H1512 H 0.09938 0.74095 0.06127 0.0
H1513 H 0.06127 0.72435 0.0356 0.0
H1514 H 0.05101 0.79736 1.00333 0.0
C1515 C 0.94297 0.73104 0.97221 0.0
C1516 C 0.98406 0.71258 0.00974 0.0
C1517 C 0.92153 0.71792 0.95709 0.0
C1518 C 0.09364 0.75759 0.05531 0.0
C1519 C 0.07134 0.74793 0.04082 0.0
C1520 C 0.03233 0.7738 1.0055 0.0
C1521 C 0.95812 0.71574 0.97961 0.0
C1522 C 0.983 0.73037 0.99444 0.0
C1523 C 0.06113 0.76786 0.03381 0.0
C1524 C 0.03388 0.75559 0.02045 0.0
H1525 H 0.92573 0.65225 0.9505 0.0
H1526 H 0.9619 0.67429 0.97719 0.0
H1527 H 1.0072 0.77559 0.98094 0.0
H1528 H 0.10826 0.83167 0.06092 0.0
H1529 H 0.06883 0.81478 0.0356 0.0
C1530 C 0.21917 0.91284 0.46076 0.0
C1531 C 0.24183 0.9132 0.44859 0.0
C1532 C 0.22791 0.93384 0.47616 0.0
C1533 C 0.2961 0.98943 0.50577 0.0
H1534 H 0.24951 0.03224 0.51184 0.0
C1535 C 0.34045 0.09797 0.55464 0.0
C1536 C 0.31808 0.09837 0.56673 0.0
C1537 C 0.33136 0.07636 0.53957 0.0
C1538 C 0.2627 0.02039 0.51047 0.0
H1539 H 0.29133 0.93451 0.44367 0.0
H1540 H 0.30645 0.97051 0.47034 0.0
H1541 H 0.23206 0.98985 0.48883 0.0
H1542 H 0.26861 0.07758 0.57178 0.0
H1543 H 0.25294 0.04044 0.54574 0.0
H1544 H 0.32676 0.01999 0.52738 0.0
C1545 C 0.28199 0.95426 0.46819 0.0
C1546 C 0.25255 0.9959 0.49732 0.0
C1547 C 0.27329 0.93358 0.45282 0.0
C1548 C 0.2865 0.07795 0.56275 0.0
C1549 C 0.27745 0.05662 0.54772 0.0
C1550 C 0.30625 0.01392 0.51892 0.0
C1551 C 0.25947 0.95534 0.47979 0.0
C1552 C 0.26914 0.98009 0.49474 0.0
C1553 C 0.29971 0.05492 0.53619 0.0
C1554 C 0.28972 0.0298 0.52146 0.0
H1555 H 0.19475 0.89766 0.45775 0.0
H1556 H 0.20993 0.93373 0.48496 0.0
H1557 H 0.30932 0.97762 0.50437 0.0
H1558 H 0.36494 0.11319 0.55741 0.0
H1559 H 0.34915 0.07605 0.5308 0.0
loop_
_geom_bond_atom_site_label_1
_geom_bond_atom_site_label_2
_geom_bond_distance
_geom_bond_site_symmetry_2
_ccdc_geom_bond_type
Tb0 C10 2.825 . S
Tb0 O11 2.347 . S
Tb0 O14 2.366 . S
Tb0 O19 2.418 . S
Tb0 O20 2.384 . S
Tb0 O23 2.479 . S
Tb0 O24 2.471 . S
Eu1 O12 2.418 . S
Eu1 O13 2.384 . S
Eu1 O16 2.479 . S
Eu1 O17 2.471 . S
Eu1 O18 2.347 . S
Eu1 O21 2.366 . S
Eu1 C31 2.825 . S
C2 O18 1.259 . S
C2 O19 1.265 . S
C3 O20 1.255 . S
C3 O21 1.265 . S
C4 C6 1.380 . S
C4 C7 1.374 . S
C4 C10 1.507 . S
C5 C6 1.384 . S
C5 C9 1.387 . S
C5 H32 0.930 . S
C6 C4 1.380 . S
C6 C5 1.384 . S
C6 H33 0.931 . S
C7 C4 1.374 . S
C7 C8 1.390 . S
C7 H34 0.930 . S
C8 C7 1.390 . S
C8 C9 1.391 . S
C8 H35 0.930 . S
C9 C5 1.387 . S
C9 C8 1.391 . S
C10 Tb0 2.825 . S
C10 C4 1.507 . S
C10 O23 1.238 . S
C10 O24 1.247 . S
O11 Tb0 2.347 . S
O11 C15 1.259 . S
O12 Eu1 2.418 . S
O12 C15 1.265 . S
O13 Eu1 2.384 . S
O13 C22 1.255 . S
O14 Tb0 2.366 . S
O14 C22 1.265 . S
C15 O11 1.259 . S
C15 O12 1.265 . S
O16 Eu1 2.479 . S
O16 C31 1.238 . S
O17 Eu1 2.471 . S
O17 C31 1.247 . S
O18 Eu1 2.347 . S
O18 C2 1.259 . S
O19 Tb0 2.418 . S
O19 C2 1.265 . S
O20 Tb0 2.384 . S
O20 C3 1.255 . S
O21 Eu1 2.366 . S
O21 C3 1.265 . S
C22 O13 1.255 . S
C22 O14 1.265 . S
O23 Tb0 2.479 . S
O23 C10 1.238 . S
O24 Tb0 2.471 . S
O24 C10 1.247 . S
C25 C28 1.380 . S
C25 C29 1.374 . S
C25 C31 1.507 . S
C26 C27 1.387 . S
C26 C30 1.391 . S
C27 C26 1.387 . S
C27 C28 1.384 . S
C27 H36 0.930 . S
C28 C25 1.380 . S
C28 C27 1.384 . S
C28 H37 0.931 . S
C29 C25 1.374 . S
C29 C30 1.390 . S
C29 H38 0.930 . S
C30 C26 1.391 . S
C30 C29 1.390 . S
C30 H39 0.930 . S
C31 Eu1 2.825 . S
C31 O16 1.238 . S
C31 O17 1.247 . S
C31 C25 1.507 . S
H32 C5 0.930 . S
H33 C6 0.931 . S
H34 C7 0.930 . S
H35 C8 0.930 . S
H36 C27 0.930 . S
H37 C28 0.931 . S
H38 C29 0.930 . S
H39 C30 0.930 . S
Tb40 C50 2.825 . S
Tb40 O51 2.347 . S
Tb40 O54 2.366 . S
Tb40 O59 2.418 . S
Tb40 O60 2.384 . S
Tb40 O63 2.479 . S
Tb40 O64 2.471 . S
Eu41 O52 2.418 . S
Eu41 O53 2.384 . S
Eu41 O56 2.479 . S
Eu41 O57 2.471 . S
Eu41 O58 2.347 . S
Eu41 O61 2.366 . S
Eu41 C71 2.825 . S
C42 O58 1.259 . S
C42 O59 1.265 . S
C43 O60 1.255 . S
C43 O61 1.265 . S
C44 C46 1.380 . S
C44 C47 1.374 . S
C44 C50 1.507 . S
C45 C46 1.384 . S
C45 C49 1.387 . S
C45 H72 0.930 . S
C46 C44 1.380 . S
C46 C45 1.384 . S
C46 H73 0.931 . S
C47 C44 1.374 . S
C47 C48 1.390 . S
C47 H74 0.930 . S
C48 C47 1.390 . S
C48 C49 1.391 . S
C48 H75 0.930 . S
C49 C45 1.387 . S
C49 C48 1.391 . S
C50 Tb40 2.825 . S
C50 C44 1.507 . S
C50 O63 1.238 . S
C50 O64 1.247 . S
O51 Tb40 2.347 . S
O51 C55 1.259 . S
O52 Eu41 2.418 . S
O52 C55 1.265 . S
O53 Eu41 2.384 . S
O53 C62 1.255 . S
O54 Tb40 2.366 . S
O54 C62 1.265 . S
C55 O51 1.259 . S
C55 O52 1.265 . S
O56 Eu41 2.479 . S
O56 C71 1.238 . S
O57 Eu41 2.471 . S
O57 C71 1.247 . S
O58 Eu41 2.347 . S
O58 C42 1.259 . S
O59 Tb40 2.418 . S
O59 C42 1.265 . S
O60 Tb40 2.384 . S
O60 C43 1.255 . S
O61 Eu41 2.366 . S
O61 C43 1.265 . S
C62 O53 1.255 . S
C62 O54 1.265 . S
O63 Tb40 2.479 . S
O63 C50 1.238 . S
O64 Tb40 2.471 . S
O64 C50 1.247 . S
C65 C68 1.380 . S
C65 C69 1.374 . S
C65 C71 1.507 . S
C66 C67 1.387 . S
C66 C70 1.391 . S
C67 C66 1.387 . S
C67 C68 1.384 1_455 S
C67 H76 0.930 . S
C68 C65 1.380 . S
C68 C67 1.384 1_655 S
C68 H77 0.931 . S
C69 C65 1.374 . S
C69 C70 1.390 1_655 S
C69 H78 0.930 . S
C70 C66 1.391 . S
C70 C69 1.390 1_455 S
C70 H79 0.930 . S
C71 Eu41 2.825 . S
C71 O56 1.238 . S
C71 O57 1.247 . S
C71 C65 1.507 . S
H72 C45 0.930 . S
H73 C46 0.931 . S
H74 C47 0.930 . S
H75 C48 0.930 . S
H76 C67 0.930 . S
H77 C68 0.931 . S
H78 C69 0.930 . S
H79 C70 0.930 . S
Tb80 C90 2.825 . S
Tb80 O91 2.347 . S
Tb80 O94 2.366 . S
Tb80 O99 2.418 . S
Tb80 O100 2.384 . S
Tb80 O103 2.479 . S
Tb80 O104 2.471 . S
Eu81 O92 2.418 . S
Eu81 O93 2.384 . S
Eu81 O96 2.479 . S
Eu81 O97 2.471 . S
Eu81 O98 2.347 . S
Eu81 O101 2.366 . S
Eu81 C111 2.825 . S
C82 O98 1.259 . S
C82 O99 1.265 . S
C83 O100 1.255 . S
C83 O101 1.265 . S
C84 C86 1.380 . S
C84 C87 1.374 . S
C84 C90 1.507 . S
C85 C86 1.384 . S
C85 C89 1.387 . S
C85 H112 0.930 . S
C86 C84 1.380 . S
C86 C85 1.384 . S
C86 H113 0.931 . S
C87 C84 1.374 . S
C87 C88 1.390 . S
C87 H114 0.930 . S
C88 C87 1.390 . S
C88 C89 1.391 . S
C88 H115 0.930 . S
C89 C85 1.387 . S
C89 C88 1.391 . S
C90 Tb80 2.825 . S
C90 C84 1.507 . S
C90 O103 1.238 . S
C90 O104 1.247 . S
O91 Tb80 2.347 . S
O91 C95 1.259 . S
O92 Eu81 2.418 . S
O92 C95 1.265 . S
O93 Eu81 2.384 . S
O93 C102 1.255 . S
O94 Tb80 2.366 . S
O94 C102 1.265 . S
C95 O91 1.259 . S
C95 O92 1.265 . S
O96 Eu81 2.479 . S
O96 C111 1.238 . S
O97 Eu81 2.471 . S
O97 C111 1.247 . S
O98 Eu81 2.347 . S
O98 C82 1.259 . S
O99 Tb80 2.418 . S
O99 C82 1.265 . S
O100 Tb80 2.384 . S
O100 C83 1.255 . S
O101 Eu81 2.366 . S
O101 C83 1.265 . S
C102 O93 1.255 . S
C102 O94 1.265 . S
O103 Tb80 2.479 . S
O103 C90 1.238 . S
O104 Tb80 2.471 . S
O104 C90 1.247 . S
C105 C108 1.380 . S
C105 C109 1.374 . S
C105 C111 1.507 . S
C106 C107 1.387 . S
C106 C110 1.391 . S
C107 C106 1.387 . S
C107 C108 1.384 1_545 S
C107 H116 0.930 . S
C108 C105 1.380 . S
C108 C107 1.384 1_565 S
C108 H117 0.931 . S
C109 C105 1.374 . S
C109 C110 1.390 1_565 S
C109 H118 0.930 . S
C110 C106 1.391 . S
C110 C109 1.390 1_545 S
C110 H119 0.930 . S
C111 Eu81 2.825 . S
C111 O96 1.238 . S
C111 O97 1.247 . S
C111 C105 1.507 . S
H112 C85 0.930 . S
H113 C86 0.931 . S
H114 C87 0.930 . S
H115 C88 0.930 . S
H116 C107 0.930 . S
H117 C108 0.931 . S
H118 C109 0.930 . S
H119 C110 0.930 . S
Tb120 C130 2.825 . S
Tb120 O131 2.347 . S
Tb120 O134 2.366 . S
Tb120 O139 2.418 . S
Tb120 O140 2.384 . S
Tb120 O143 2.479 . S
Tb120 O144 2.471 . S
Eu121 O132 2.418 . S
Eu121 O133 2.384 . S
Eu121 O136 2.479 . S
Eu121 O137 2.471 . S
Eu121 O138 2.347 . S
Eu121 O141 2.366 . S
Eu121 C151 2.825 . S
C122 O138 1.259 . S
C122 O139 1.265 . S
C123 O140 1.255 . S
C123 O141 1.265 . S
C124 C126 1.380 . S
C124 C127 1.374 . S
C124 C130 1.507 . S
C125 C126 1.384 . S
C125 C129 1.387 . S
C125 H152 0.930 . S
C126 C124 1.380 . S
C126 C125 1.384 . S
C126 H153 0.931 . S
C127 C124 1.374 . S
C127 C128 1.390 . S
C127 H154 0.930 . S
C128 C127 1.390 . S
C128 C129 1.391 . S
C128 H155 0.930 . S
C129 C125 1.387 . S
C129 C128 1.391 . S
C130 Tb120 2.825 . S
C130 C124 1.507 . S
C130 O143 1.238 . S
C130 O144 1.247 . S
O131 Tb120 2.347 . S
O131 C135 1.259 . S
O132 Eu121 2.418 . S
O132 C135 1.265 . S
O133 Eu121 2.384 . S
O133 C142 1.255 . S
O134 Tb120 2.366 . S
O134 C142 1.265 . S
C135 O131 1.259 . S
C135 O132 1.265 . S
O136 Eu121 2.479 . S
O136 C151 1.238 . S
O137 Eu121 2.471 . S
O137 C151 1.247 . S
O138 Eu121 2.347 . S
O138 C122 1.259 . S
O139 Tb120 2.418 . S
O139 C122 1.265 . S
O140 Tb120 2.384 . S
O140 C123 1.255 . S
O141 Eu121 2.366 . S
O141 C123 1.265 . S
C142 O133 1.255 . S
C142 O134 1.265 . S
O143 Tb120 2.479 . S
O143 C130 1.238 . S
O144 Tb120 2.471 . S
O144 C130 1.247 . S
C145 C148 1.380 . S
C145 C149 1.374 . S
C145 C151 1.507 . S
C146 C147 1.387 . S
C146 C150 1.391 . S
C147 C146 1.387 . S
C147 C148 1.384 . S
C147 H156 0.930 . S
C148 C145 1.380 . S
C148 C147 1.384 . S
C148 H157 0.931 . S
C149 C145 1.374 . S
C149 C150 1.390 . S
C149 H158 0.930 . S
C150 C146 1.391 . S
C150 C149 1.390 . S
C150 H159 0.930 . S
C151 Eu121 2.825 . S
C151 O136 1.238 . S
C151 O137 1.247 . S
C151 C145 1.507 . S
H152 C125 0.930 . S
H153 C126 0.931 . S
H154 C127 0.930 . S
H155 C128 0.930 . S
H156 C147 0.930 . S
H157 C148 0.931 . S
H158 C149 0.930 . S
H159 C150 0.930 . S
Tb160 C170 2.825 . S
Tb160 O171 2.347 . S
Tb160 O174 2.366 . S
Tb160 O179 2.418 . S
Tb160 O180 2.384 . S
Tb160 O183 2.479 . S
Tb160 O184 2.471 . S
Eu161 O172 2.418 . S
Eu161 O173 2.384 . S
Eu161 O176 2.479 . S
Eu161 O177 2.471 . S
Eu161 O178 2.347 . S
Eu161 O181 2.366 . S
Eu161 C191 2.825 . S
C162 O178 1.259 . S
C162 O179 1.265 . S
C163 O180 1.255 . S
C163 O181 1.265 . S
C164 C166 1.380 . S
C164 C167 1.374 . S
C164 C170 1.507 . S
C165 C166 1.384 . S
C165 C169 1.387 . S
C165 H192 0.930 . S
C166 C164 1.380 . S
C166 C165 1.384 . S
C166 H193 0.931 . S
C167 C164 1.374 . S
C167 C168 1.390 . S
C167 H194 0.930 . S
C168 C167 1.390 . S
C168 C169 1.391 . S
C168 H195 0.930 . S
C169 C165 1.387 . S
C169 C168 1.391 . S
C170 Tb160 2.825 . S
C170 C164 1.507 . S
C170 O183 1.238 . S
C170 O184 1.247 . S
O171 Tb160 2.347 . S
O171 C175 1.259 . S
O172 Eu161 2.418 . S
O172 C175 1.265 . S
O173 Eu161 2.384 . S
O173 C182 1.255 . S
O174 Tb160 2.366 . S
O174 C182 1.265 . S
C175 O171 1.259 . S
C175 O172 1.265 . S
O176 Eu161 2.479 . S
O176 C191 1.238 . S
O177 Eu161 2.471 . S
O177 C191 1.247 . S
O178 Eu161 2.347 . S
O178 C162 1.259 . S
O179 Tb160 2.418 . S
O179 C162 1.265 . S
O180 Tb160 2.384 . S
O180 C163 1.255 . S
O181 Eu161 2.366 . S
O181 C163 1.265 . S
C182 O173 1.255 . S
C182 O174 1.265 . S
O183 Tb160 2.479 . S
O183 C170 1.238 . S
O184 Tb160 2.471 . S
O184 C170 1.247 . S
C185 C188 1.380 . S
C185 C189 1.374 . S
C185 C191 1.507 . S
C186 C187 1.387 . S
C186 C190 1.391 . S
C187 C186 1.387 . S
C187 C188 1.384 1_655 S
C187 H196 0.930 . S
C188 C185 1.380 . S
C188 C187 1.384 1_455 S
C188 H197 0.931 . S
C189 C185 1.374 . S
C189 C190 1.390 1_455 S
C189 H198 0.930 . S
C190 C186 1.391 . S
C190 C189 1.390 1_655 S
C190 H199 0.930 . S
C191 Eu161 2.825 . S
C191 O176 1.238 . S
C191 O177 1.247 . S
C191 C185 1.507 . S
H192 C165 0.930 . S
H193 C166 0.931 . S
H194 C167 0.930 . S
H195 C168 0.930 . S
H196 C187 0.930 . S
H197 C188 0.931 . S
H198 C189 0.930 . S
H199 C190 0.930 . S
Tb200 C210 2.825 . S
Tb200 O211 2.347 . S
Tb200 O214 2.366 . S
Tb200 O219 2.418 . S
Tb200 O220 2.384 . S
Tb200 O223 2.479 . S
Tb200 O224 2.471 . S
Eu201 O212 2.418 . S
Eu201 O213 2.384 . S
Eu201 O216 2.479 . S
Eu201 O217 2.471 . S
Eu201 O218 2.347 . S
Eu201 O221 2.366 . S
Eu201 C231 2.825 . S
C202 O218 1.259 . S
C202 O219 1.265 . S
C203 O220 1.255 . S
C203 O221 1.265 . S
C204 C206 1.380 . S
C204 C207 1.374 . S
C204 C210 1.507 . S
C205 C206 1.384 . S
C205 C209 1.387 . S
C205 H232 0.930 . S
C206 C204 1.380 . S
C206 C205 1.384 . S
C206 H233 0.931 . S
C207 C204 1.374 . S
C207 C208 1.390 . S
C207 H234 0.930 . S
C208 C207 1.390 . S
C208 C209 1.391 . S
C208 H235 0.930 . S
C209 C205 1.387 . S
C209 C208 1.391 . S
C210 Tb200 2.825 . S
C210 C204 1.507 . S
C210 O223 1.238 . S
C210 O224 1.247 . S
O211 Tb200 2.347 . S
O211 C215 1.259 . S
O212 Eu201 2.418 . S
O212 C215 1.265 . S
O213 Eu201 2.384 . S
O213 C222 1.255 . S
O214 Tb200 2.366 . S
O214 C222 1.265 . S
C215 O211 1.259 . S
C215 O212 1.265 . S
O216 Eu201 2.479 . S
O216 C231 1.238 . S
O217 Eu201 2.471 . S
O217 C231 1.247 . S
O218 Eu201 2.347 . S
O218 C202 1.259 . S
O219 Tb200 2.418 . S
O219 C202 1.265 . S
O220 Tb200 2.384 . S
O220 C203 1.255 . S
O221 Eu201 2.366 . S
O221 C203 1.265 . S
C222 O213 1.255 . S
C222 O214 1.265 . S
O223 Tb200 2.479 . S
O223 C210 1.238 . S
O224 Tb200 2.471 . S
O224 C210 1.247 . S
C225 C228 1.380 . S
C225 C229 1.374 . S
C225 C231 1.507 . S
C226 C227 1.387 . S
C226 C230 1.391 . S
C227 C226 1.387 . S
C227 C228 1.384 1_565 S
C227 H236 0.930 . S
C228 C225 1.380 . S
C228 C227 1.384 1_545 S
C228 H237 0.931 . S
C229 C225 1.374 . S
C229 C230 1.390 1_545 S
C229 H238 0.930 . S
C230 C226 1.391 . S
C230 C229 1.390 1_565 S
C230 H239 0.930 . S
C231 Eu201 2.825 . S
C231 O216 1.238 . S
C231 O217 1.247 . S
C231 C225 1.507 . S
H232 C205 0.930 . S
H233 C206 0.931 . S
H234 C207 0.930 . S
H235 C208 0.930 . S
H236 C227 0.930 . S
H237 C228 0.931 . S
H238 C229 0.930 . S
H239 C230 0.930 . S
Tb240 C250 2.825 . S
Tb240 O251 2.347 . S
Tb240 O254 2.366 . S
Tb240 O259 2.418 . S
Tb240 O260 2.384 . S
Tb240 O263 2.479 . S
Tb240 O264 2.471 . S
Eu241 O252 2.418 . S
Eu241 O253 2.384 . S
Eu241 O256 2.479 . S
Eu241 O257 2.471 . S
Eu241 O258 2.347 . S
Eu241 O261 2.366 . S
Eu241 C271 2.825 . S
C242 O258 1.259 . S
C242 O259 1.265 . S
C243 O260 1.255 . S
C243 O261 1.265 . S
C244 C246 1.380 . S
C244 C247 1.374 . S
C244 C250 1.507 . S
C245 C246 1.384 . S
C245 C249 1.387 . S
C245 H272 0.930 . S
C246 C244 1.380 . S
C246 C245 1.384 . S
C246 H273 0.931 . S
C247 C244 1.374 . S
C247 C248 1.390 . S
C247 H274 0.930 . S
C248 C247 1.390 . S
C248 C249 1.391 . S
C248 H275 0.930 . S
C249 C245 1.387 . S
C249 C248 1.391 . S
C250 Tb240 2.825 . S
C250 C244 1.507 . S
C250 O263 1.238 . S
C250 O264 1.247 . S
O251 Tb240 2.347 . S
O251 C255 1.259 . S
O252 Eu241 2.418 . S
O252 C255 1.265 . S
O253 Eu241 2.384 . S
O253 C262 1.255 . S
O254 Tb240 2.366 . S
O254 C262 1.265 . S
C255 O251 1.259 . S
C255 O252 1.265 . S
O256 Eu241 2.479 . S
O256 C271 1.238 . S
O257 Eu241 2.471 . S
O257 C271 1.247 . S
O258 Eu241 2.347 . S
O258 C242 1.259 . S
O259 Tb240 2.418 . S
O259 C242 1.265 . S
O260 Tb240 2.384 . S
O260 C243 1.255 . S
O261 Eu241 2.366 . S
O261 C243 1.265 . S
C262 O253 1.255 . S
C262 O254 1.265 . S
O263 Tb240 2.479 . S
O263 C250 1.238 . S
O264 Tb240 2.471 . S
O264 C250 1.247 . S
C265 C268 1.380 . S
C265 C269 1.374 . S
C265 C271 1.507 . S
C266 C267 1.387 . S
C266 C270 1.391 . S
C267 C266 1.387 . S
C267 C268 1.384 . S
C267 H276 0.930 . S
C268 C265 1.380 . S
C268 C267 1.384 . S
C268 H277 0.931 . S
C269 C265 1.374 . S
C269 C270 1.390 . S
C269 H278 0.930 . S
C270 C266 1.391 . S
C270 C269 1.390 . S
C270 H279 0.930 . S
C271 Eu241 2.825 . S
C271 O256 1.238 . S
C271 O257 1.247 . S
C271 C265 1.507 . S
H272 C245 0.930 . S
H273 C246 0.931 . S
H274 C247 0.930 . S
H275 C248 0.930 . S
H276 C267 0.930 . S
H277 C268 0.931 . S
H278 C269 0.930 . S
H279 C270 0.930 . S
Tb280 C290 2.825 . S
Tb280 O291 2.347 . S
Tb280 O294 2.366 . S
Tb280 O299 2.418 . S
Tb280 O300 2.384 . S
Tb280 O303 2.479 . S
Tb280 O304 2.471 . S
Eu281 O292 2.418 . S
Eu281 O293 2.384 . S
Eu281 O296 2.479 . S
Eu281 O297 2.471 . S
Eu281 O298 2.347 . S
Eu281 O301 2.366 . S
Eu281 C311 2.825 . S
C282 O298 1.259 . S
C282 O299 1.265 . S
C283 O300 1.255 . S
C283 O301 1.265 . S
C284 C286 1.380 . S
C284 C287 1.374 . S
C284 C290 1.507 . S
C285 C286 1.384 . S
C285 C289 1.387 . S
C285 H312 0.930 . S
C286 C284 1.380 . S
C286 C285 1.384 . S
C286 H313 0.931 . S
C287 C284 1.374 . S
C287 C288 1.390 . S
C287 H314 0.930 . S
C288 C287 1.390 . S
C288 C289 1.391 . S
C288 H315 0.930 . S
C289 C285 1.387 . S
C289 C288 1.391 . S
C290 Tb280 2.825 . S
C290 C284 1.507 . S
C290 O303 1.238 . S
C290 O304 1.247 . S
O291 Tb280 2.347 . S
O291 C295 1.259 . S
O292 Eu281 2.418 . S
O292 C295 1.265 . S
O293 Eu281 2.384 . S
O293 C302 1.255 . S
O294 Tb280 2.366 . S
O294 C302 1.265 . S
C295 O291 1.259 . S
C295 O292 1.265 . S
O296 Eu281 2.479 . S
O296 C311 1.238 . S
O297 Eu281 2.471 . S
O297 C311 1.247 . S
O298 Eu281 2.347 . S
O298 C282 1.259 . S
O299 Tb280 2.418 . S
O299 C282 1.265 . S
O300 Tb280 2.384 . S
O300 C283 1.255 . S
O301 Eu281 2.366 . S
O301 C283 1.265 . S
C302 O293 1.255 . S
C302 O294 1.265 . S
O303 Tb280 2.479 . S
O303 C290 1.238 . S
O304 Tb280 2.471 . S
O304 C290 1.247 . S
C305 C308 1.380 . S
C305 C309 1.374 . S
C305 C311 1.507 . S
C306 C307 1.387 . S
C306 C310 1.391 . S
C307 C306 1.387 . S
C307 C308 1.384 1_455 S
C307 H316 0.930 . S
C308 C305 1.380 . S
C308 C307 1.384 1_655 S
C308 H317 0.931 . S
C309 C305 1.374 . S
C309 C310 1.390 1_655 S
C309 H318 0.930 . S
C310 C306 1.391 . S
C310 C309 1.390 1_455 S
C310 H319 0.930 . S
C311 Eu281 2.825 . S
C311 O296 1.238 . S
C311 O297 1.247 . S
C311 C305 1.507 . S
H312 C285 0.930 . S
H313 C286 0.931 . S
H314 C287 0.930 . S
H315 C288 0.930 . S
H316 C307 0.930 . S
H317 C308 0.931 . S
H318 C309 0.930 . S
H319 C310 0.930 . S
Tb320 C330 2.825 . S
Tb320 O331 2.347 . S
Tb320 O334 2.366 . S
Tb320 O339 2.418 . S
Tb320 O340 2.384 . S
Tb320 O343 2.479 . S
Tb320 O344 2.471 . S
Eu321 O332 2.418 . S
Eu321 O333 2.384 . S
Eu321 O336 2.479 . S
Eu321 O337 2.471 . S
Eu321 O338 2.347 . S
Eu321 O341 2.366 . S
Eu321 C351 2.825 . S
C322 O338 1.259 . S
C322 O339 1.265 . S
C323 O340 1.255 . S
C323 O341 1.265 . S
C324 C326 1.380 . S
C324 C327 1.374 . S
C324 C330 1.507 . S
C325 C326 1.384 . S
C325 C329 1.387 . S
C325 H352 0.930 . S
C326 C324 1.380 . S
C326 C325 1.384 . S
C326 H353 0.931 . S
C327 C324 1.374 . S
C327 C328 1.390 . S
C327 H354 0.930 . S
C328 C327 1.390 . S
C328 C329 1.391 . S
C328 H355 0.930 . S
C329 C325 1.387 . S
C329 C328 1.391 . S
C330 Tb320 2.825 . S
C330 C324 1.507 . S
C330 O343 1.238 . S
C330 O344 1.247 . S
O331 Tb320 2.347 . S
O331 C335 1.259 . S
O332 Eu321 2.418 . S
O332 C335 1.265 . S
O333 Eu321 2.384 . S
O333 C342 1.255 . S
O334 Tb320 2.366 . S
O334 C342 1.265 . S
C335 O331 1.259 . S
C335 O332 1.265 . S
O336 Eu321 2.479 . S
O336 C351 1.238 . S
O337 Eu321 2.471 . S
O337 C351 1.247 . S
O338 Eu321 2.347 . S
O338 C322 1.259 . S
O339 Tb320 2.418 . S
O339 C322 1.265 . S
O340 Tb320 2.384 . S
O340 C323 1.255 . S
O341 Eu321 2.366 . S
O341 C323 1.265 . S
C342 O333 1.255 . S
C342 O334 1.265 . S
O343 Tb320 2.479 . S
O343 C330 1.238 . S
O344 Tb320 2.471 . S
O344 C330 1.247 . S
C345 C348 1.380 . S
C345 C349 1.374 . S
C345 C351 1.507 . S
C346 C347 1.387 . S
C346 C350 1.391 . S
C347 C346 1.387 . S
C347 C348 1.384 1_545 S
C347 H356 0.930 . S
C348 C345 1.380 . S
C348 C347 1.384 1_565 S
C348 H357 0.931 . S
C349 C345 1.374 . S
C349 C350 1.390 1_565 S
C349 H358 0.930 . S
C350 C346 1.391 . S
C350 C349 1.390 1_545 S
C350 H359 0.930 . S
C351 Eu321 2.825 . S
C351 O336 1.238 . S
C351 O337 1.247 . S
C351 C345 1.507 . S
H352 C325 0.930 . S
H353 C326 0.931 . S
H354 C327 0.930 . S
H355 C328 0.930 . S
H356 C347 0.930 . S
H357 C348 0.931 . S
H358 C349 0.930 . S
H359 C350 0.930 . S
Tb360 C370 2.825 . S
Tb360 O371 2.347 . S
Tb360 O374 2.366 . S
Tb360 O379 2.418 . S
Tb360 O380 2.384 . S
Tb360 O383 2.479 . S
Tb360 O384 2.471 . S
Eu361 O372 2.418 . S
Eu361 O373 2.384 . S
Eu361 O376 2.479 . S
Eu361 O377 2.471 . S
Eu361 O378 2.347 . S
Eu361 O381 2.366 . S
Eu361 C391 2.825 . S
C362 O378 1.259 . S
C362 O379 1.265 . S
C363 O380 1.255 . S
C363 O381 1.265 . S
C364 C366 1.380 . S
C364 C367 1.374 . S
C364 C370 1.507 . S
C365 C366 1.384 . S
C365 C369 1.387 . S
C365 H392 0.930 . S
C366 C364 1.380 . S
C366 C365 1.384 . S
C366 H393 0.931 . S
C367 C364 1.374 . S
C367 C368 1.390 . S
C367 H394 0.930 . S
C368 C367 1.390 . S
C368 C369 1.391 . S
C368 H395 0.930 . S
C369 C365 1.387 . S
C369 C368 1.391 . S
C370 Tb360 2.825 . S
C370 C364 1.507 . S
C370 O383 1.238 . S
C370 O384 1.247 . S
O371 Tb360 2.347 . S
O371 C375 1.259 . S
O372 Eu361 2.418 . S
O372 C375 1.265 . S
O373 Eu361 2.384 . S
O373 C382 1.255 . S
O374 Tb360 2.366 . S
O374 C382 1.265 . S
C375 O371 1.259 . S
C375 O372 1.265 . S
O376 Eu361 2.479 . S
O376 C391 1.238 . S
O377 Eu361 2.471 . S
O377 C391 1.247 . S
O378 Eu361 2.347 . S
O378 C362 1.259 . S
O379 Tb360 2.418 . S
O379 C362 1.265 . S
O380 Tb360 2.384 . S
O380 C363 1.255 . S
O381 Eu361 2.366 . S
O381 C363 1.265 . S
C382 O373 1.255 . S
C382 O374 1.265 . S
O383 Tb360 2.479 . S
O383 C370 1.238 . S
O384 Tb360 2.471 . S
O384 C370 1.247 . S
C385 C388 1.380 . S
C385 C389 1.374 . S
C385 C391 1.507 . S
C386 C387 1.387 . S
C386 C390 1.391 . S
C387 C386 1.387 . S
C387 C388 1.384 . S
C387 H396 0.930 . S
C388 C385 1.380 . S
C388 C387 1.384 . S
C388 H397 0.931 . S
C389 C385 1.374 . S
C389 C390 1.390 . S
C389 H398 0.930 . S
C390 C386 1.391 . S
C390 C389 1.390 . S
C390 H399 0.930 . S
C391 Eu361 2.825 . S
C391 O376 1.238 . S
C391 O377 1.247 . S
C391 C385 1.507 . S
H392 C365 0.930 . S
H393 C366 0.931 . S
H394 C367 0.930 . S
H395 C368 0.930 . S
H396 C387 0.930 . S
H397 C388 0.931 . S
H398 C389 0.930 . S
H399 C390 0.930 . S
Tb400 C410 2.825 . S
Tb400 O411 2.347 . S
Tb400 O414 2.366 . S
Tb400 O419 2.418 . S
Tb400 O420 2.384 . S
Tb400 O423 2.479 . S
Tb400 O424 2.471 . S
Eu401 O412 2.418 . S
Eu401 O413 2.384 . S
Eu401 O416 2.479 . S
Eu401 O417 2.471 . S
Eu401 O418 2.347 . S
Eu401 O421 2.366 . S
Eu401 C431 2.825 . S
C402 O418 1.259 . S
C402 O419 1.265 . S
C403 O420 1.255 . S
C403 O421 1.265 . S
C404 C406 1.380 . S
C404 C407 1.374 . S
C404 C410 1.507 . S
C405 C406 1.384 . S
C405 C409 1.387 . S
C405 H432 0.930 . S
C406 C404 1.380 . S
C406 C405 1.384 . S
C406 H433 0.931 . S
C407 C404 1.374 . S
C407 C408 1.390 . S
C407 H434 0.930 . S
C408 C407 1.390 . S
C408 C409 1.391 . S
C408 H435 0.930 . S
C409 C405 1.387 . S
C409 C408 1.391 . S
C410 Tb400 2.825 . S
C410 C404 1.507 . S
C410 O423 1.238 . S
C410 O424 1.247 . S
O411 Tb400 2.347 . S
O411 C415 1.259 . S
O412 Eu401 2.418 . S
O412 C415 1.265 . S
O413 Eu401 2.384 . S
O413 C422 1.255 . S
O414 Tb400 2.366 . S
O414 C422 1.265 . S
C415 O411 1.259 . S
C415 O412 1.265 . S
O416 Eu401 2.479 . S
O416 C431 1.238 . S
O417 Eu401 2.471 . S
O417 C431 1.247 . S
O418 Eu401 2.347 . S
O418 C402 1.259 . S
O419 Tb400 2.418 . S
O419 C402 1.265 . S
O420 Tb400 2.384 . S
O420 C403 1.255 . S
O421 Eu401 2.366 . S
O421 C403 1.265 . S
C422 O413 1.255 . S
C422 O414 1.265 . S
O423 Tb400 2.479 . S
O423 C410 1.238 . S
O424 Tb400 2.471 . S
O424 C410 1.247 . S
C425 C428 1.380 . S
C425 C429 1.374 . S
C425 C431 1.507 . S
C426 C427 1.387 . S
C426 C430 1.391 . S
C427 C426 1.387 . S
C427 C428 1.384 1_655 S
C427 H436 0.930 . S
C428 C425 1.380 . S
C428 C427 1.384 1_455 S
C428 H437 0.931 . S
C429 C425 1.374 . S
C429 C430 1.390 1_455 S
C429 H438 0.930 . S
C430 C426 1.391 . S
C430 C429 1.390 1_655 S
C430 H439 0.930 . S
C431 Eu401 2.825 . S
C431 O416 1.238 . S
C431 O417 1.247 . S
C431 C425 1.507 . S
H432 C405 0.930 . S
H433 C406 0.931 . S
H434 C407 0.930 . S
H435 C408 0.930 . S
H436 C427 0.930 . S
H437 C428 0.931 . S
H438 C429 0.930 . S
H439 C430 0.930 . S
Tb440 C450 2.825 . S
Tb440 O451 2.347 . S
Tb440 O454 2.366 . S
Tb440 O459 2.418 . S
Tb440 O460 2.384 . S
Tb440 O463 2.479 . S
Tb440 O464 2.471 . S
Eu441 O452 2.418 . S
Eu441 O453 2.384 . S
Eu441 O456 2.479 . S
Eu441 O457 2.471 . S
Eu441 O458 2.347 . S
Eu441 O461 2.366 . S
Eu441 C471 2.825 . S
C442 O458 1.259 . S
C442 O459 1.265 . S
C443 O460 1.255 . S
C443 O461 1.265 . S
C444 C446 1.380 . S
C444 C447 1.374 . S
C444 C450 1.507 . S
C445 C446 1.384 . S
C445 C449 1.387 . S
C445 H472 0.930 . S
C446 C444 1.380 . S
C446 C445 1.384 . S
C446 H473 0.931 . S
C447 C444 1.374 . S
C447 C448 1.390 . S
C447 H474 0.930 . S
C448 C447 1.390 . S
C448 C449 1.391 . S
C448 H475 0.930 . S
C449 C445 1.387 . S
C449 C448 1.391 . S
C450 Tb440 2.825 . S
C450 C444 1.507 . S
C450 O463 1.238 . S
C450 O464 1.247 . S
O451 Tb440 2.347 . S
O451 C455 1.259 . S
O452 Eu441 2.418 . S
O452 C455 1.265 . S
O453 Eu441 2.384 . S
O453 C462 1.255 . S
O454 Tb440 2.366 . S
O454 C462 1.265 . S
C455 O451 1.259 . S
C455 O452 1.265 . S
O456 Eu441 2.479 . S
O456 C471 1.238 . S
O457 Eu441 2.471 . S
O457 C471 1.247 . S
O458 Eu441 2.347 . S
O458 C442 1.259 . S
O459 Tb440 2.418 . S
O459 C442 1.265 . S
O460 Tb440 2.384 . S
O460 C443 1.255 . S
O461 Eu441 2.366 . S
O461 C443 1.265 . S
C462 O453 1.255 . S
C462 O454 1.265 . S
O463 Tb440 2.479 . S
O463 C450 1.238 . S
O464 Tb440 2.471 . S
O464 C450 1.247 . S
C465 C468 1.380 . S
C465 C469 1.374 . S
C465 C471 1.507 . S
C466 C467 1.387 . S
C466 C470 1.391 . S
C467 C466 1.387 . S
C467 C468 1.384 1_565 S
C467 H476 0.930 . S
C468 C465 1.380 . S
C468 C467 1.384 1_545 S
C468 H477 0.931 . S
C469 C465 1.374 . S
C469 C470 1.390 1_545 S
C469 H478 0.930 . S
C470 C466 1.391 . S
C470 C469 1.390 1_565 S
C470 H479 0.930 . S
C471 Eu441 2.825 . S
C471 O456 1.238 . S
C471 O457 1.247 . S
C471 C465 1.507 . S
H472 C445 0.930 . S
H473 C446 0.931 . S
H474 C447 0.930 . S
H475 C448 0.930 . S
H476 C467 0.930 . S
H477 C468 0.931 . S
H478 C469 0.930 . S
H479 C470 0.930 . S
C480 C481 1.349 . S
C480 C482 1.327 . S
C480 H505 0.950 . S
C481 C480 1.349 . S
C481 C497 1.349 . S
C482 C480 1.327 . S
C482 C501 1.429 . S
C482 H506 0.950 . S
C483 C500 1.574 1_565 S
C483 C502 1.368 . S
C483 H507 0.949 . S
H484 C488 0.949 . S
C485 C486 1.349 . S
C485 C487 1.327 . S
C485 H508 0.950 . S
C486 C485 1.349 . S
C486 C498 1.349 . S
C487 C485 1.327 . S
C487 C503 1.429 . S
C487 H509 0.950 . S
C488 H484 0.949 . S
C488 C496 1.574 1_545 S
C488 C504 1.368 . S
H489 C497 0.950 . S
H490 C495 0.950 . S
H491 C496 0.949 . S
H492 C498 0.950 . S
H493 C499 0.950 . S
H494 C500 0.949 . S
C495 H490 0.950 . S
C495 C497 1.327 . S
C495 C501 1.429 . S
C496 C488 1.574 1_565 S
C496 H491 0.949 . S
C496 C502 1.368 . S
C497 C481 1.349 . S
C497 H489 0.950 . S
C497 C495 1.327 . S
C498 C486 1.349 . S
C498 H492 0.950 . S
C498 C499 1.327 . S
C499 H493 0.950 . S
C499 C498 1.327 . S
C499 C503 1.429 . S
C500 C483 1.574 1_545 S
C500 H494 0.949 . S
C500 C504 1.368 . S
C501 C482 1.429 . S
C501 C495 1.429 . S
C501 C502 1.523 . S
C502 C483 1.368 . S
C502 C496 1.368 . S
C502 C501 1.523 . S
C503 C487 1.429 . S
C503 C499 1.429 . S
C503 C504 1.523 . S
C504 C488 1.368 . S
C504 C500 1.368 . S
C504 C503 1.523 . S
H505 C480 0.950 . S
H506 C482 0.950 . S
H507 C483 0.949 . S
H508 C485 0.950 . S
H509 C487 0.950 . S
C510 C511 1.349 . S
C510 C512 1.327 . S
C510 H535 0.950 . S
C511 C510 1.349 . S
C511 C527 1.349 . S
C512 C510 1.327 . S
C512 C531 1.429 . S
C512 H536 0.950 . S
C513 C530 1.574 . S
C513 C532 1.368 . S
C513 H537 0.949 . S
H514 C518 0.949 . S
C515 C516 1.349 . S
C515 C517 1.327 . S
C515 H538 0.950 . S
C516 C515 1.349 . S
C516 C528 1.349 . S
C517 C515 1.327 . S
C517 C533 1.429 . S
C517 H539 0.950 . S
C518 H514 0.949 . S
C518 C526 1.574 . S
C518 C534 1.368 . S
H519 C527 0.950 . S
H520 C525 0.950 . S
H521 C526 0.949 . S
H522 C528 0.950 . S
H523 C529 0.950 . S
H524 C530 0.949 . S
C525 H520 0.950 . S
C525 C527 1.327 . S
C525 C531 1.429 . S
C526 C518 1.574 . S
C526 H521 0.949 . S
C526 C532 1.368 . S
C527 C511 1.349 . S
C527 H519 0.950 . S
C527 C525 1.327 . S
C528 C516 1.349 . S
C528 H522 0.950 . S
C528 C529 1.327 . S
C529 H523 0.950 . S
C529 C528 1.327 . S
C529 C533 1.429 . S
C530 C513 1.574 . S
C530 H524 0.949 . S
C530 C534 1.368 . S
C531 C512 1.429 . S
C531 C525 1.429 . S
C531 C532 1.523 . S
C532 C513 1.368 . S
C532 C526 1.368 . S
C532 C531 1.523 . S
C533 C517 1.429 . S
C533 C529 1.429 . S
C533 C534 1.523 . S
C534 C518 1.368 . S
C534 C530 1.368 . S
C534 C533 1.523 . S
H535 C510 0.950 . S
H536 C512 0.950 . S
H537 C513 0.949 . S
H538 C515 0.950 . S
H539 C517 0.950 . S
C540 C541 1.349 . S
C540 C542 1.327 . S
C540 H565 0.950 . S
C541 C540 1.349 . S
C541 C557 1.349 . S
C542 C540 1.327 . S
C542 C561 1.429 . S
C542 H566 0.950 . S
C543 C560 1.574 1_655 S
C543 C562 1.368 . S
C543 H567 0.949 . S
H544 C548 0.949 . S
C545 C546 1.349 . S
C545 C547 1.327 . S
C545 H568 0.950 . S
C546 C545 1.349 . S
C546 C558 1.349 . S
C547 C545 1.327 . S
C547 C563 1.429 . S
C547 H569 0.950 . S
C548 H544 0.949 . S
C548 C556 1.574 1_455 S
C548 C564 1.368 . S
H549 C557 0.950 . S
H550 C555 0.950 . S
H551 C556 0.949 . S
H552 C558 0.950 . S
H553 C559 0.950 . S
H554 C560 0.949 . S
C555 H550 0.950 . S
C555 C557 1.327 . S
C555 C561 1.429 . S
C556 C548 1.574 1_655 S
C556 H551 0.949 . S
C556 C562 1.368 . S
C557 C541 1.349 . S
C557 H549 0.950 . S
C557 C555 1.327 . S
C558 C546 1.349 . S
C558 H552 0.950 . S
C558 C559 1.327 . S
C559 H553 0.950 . S
C559 C558 1.327 . S
C559 C563 1.429 . S
C560 C543 1.574 1_455 S
C560 H554 0.949 . S
C560 C564 1.368 . S
C561 C542 1.429 . S
C561 C555 1.429 . S
C561 C562 1.523 . S
C562 C543 1.368 . S
C562 C556 1.368 . S
C562 C561 1.523 . S
C563 C547 1.429 . S
C563 C559 1.429 . S
C563 C564 1.523 . S
C564 C548 1.368 . S
C564 C560 1.368 . S
C564 C563 1.523 . S
H565 C540 0.950 . S
H566 C542 0.950 . S
H567 C543 0.949 . S
H568 C545 0.950 . S
H569 C547 0.950 . S
C570 C571 1.349 . S
C570 C572 1.327 . S
C570 H595 0.950 . S
C571 C570 1.349 . S
C571 C587 1.349 . S
C572 C570 1.327 . S
C572 C591 1.429 . S
C572 H596 0.950 . S
C573 C590 1.574 1_565 S
C573 C592 1.368 . S
C573 H597 0.949 . S
H574 C578 0.949 . S
C575 C576 1.349 . S
C575 C577 1.327 . S
C575 H598 0.950 . S
C576 C575 1.349 . S
C576 C588 1.349 . S
C577 C575 1.327 . S
C577 C593 1.429 . S
C577 H599 0.950 . S
C578 H574 0.949 . S
C578 C586 1.574 1_545 S
C578 C594 1.368 . S
H579 C587 0.950 . S
H580 C585 0.950 . S
H581 C586 0.949 . S
H582 C588 0.950 . S
H583 C589 0.950 . S
H584 C590 0.949 . S
C585 H580 0.950 . S
C585 C587 1.327 . S
C585 C591 1.429 . S
C586 C578 1.574 1_565 S
C586 H581 0.949 . S
C586 C592 1.368 . S
C587 C571 1.349 . S
C587 H579 0.950 . S
C587 C585 1.327 . S
C588 C576 1.349 . S
C588 H582 0.950 . S
C588 C589 1.327 . S
C589 H583 0.950 . S
C589 C588 1.327 . S
C589 C593 1.429 . S
C590 C573 1.574 1_545 S
C590 H584 0.949 . S
C590 C594 1.368 . S
C591 C572 1.429 . S
C591 C585 1.429 . S
C591 C592 1.523 . S
C592 C573 1.368 . S
C592 C586 1.368 . S
C592 C591 1.523 . S
C593 C577 1.429 . S
C593 C589 1.429 . S
C593 C594 1.523 . S
C594 C578 1.368 . S
C594 C590 1.368 . S
C594 C593 1.523 . S
H595 C570 0.950 . S
H596 C572 0.950 . S
H597 C573 0.949 . S
H598 C575 0.950 . S
H599 C577 0.950 . S
C600 C601 1.349 . S
C600 C602 1.327 . S
C600 H625 0.950 . S
C601 C600 1.349 . S
C601 C617 1.349 . S
C602 C600 1.327 . S
C602 C621 1.429 . S
C602 H626 0.950 . S
C603 C620 1.574 . S
C603 C622 1.368 . S
C603 H627 0.949 . S
H604 C608 0.949 . S
C605 C606 1.349 . S
C605 C607 1.327 . S
C605 H628 0.950 . S
C606 C605 1.349 . S
C606 C618 1.349 . S
C607 C605 1.327 . S
C607 C623 1.429 . S
C607 H629 0.950 . S
C608 H604 0.949 . S
C608 C616 1.574 . S
C608 C624 1.368 . S
H609 C617 0.950 . S
H610 C615 0.950 . S
H611 C616 0.949 . S
H612 C618 0.950 . S
H613 C619 0.950 . S
H614 C620 0.949 . S
C615 H610 0.950 . S
C615 C617 1.327 . S
C615 C621 1.429 . S
C616 C608 1.574 . S
C616 H611 0.949 . S
C616 C622 1.368 . S
C617 C601 1.349 . S
C617 H609 0.950 . S
C617 C615 1.327 . S
C618 C606 1.349 . S
C618 H612 0.950 . S
C618 C619 1.327 . S
C619 H613 0.950 . S
C619 C618 1.327 . S
C619 C623 1.429 . S
C620 C603 1.574 . S
C620 H614 0.949 . S
C620 C624 1.368 . S
C621 C602 1.429 . S
C621 C615 1.429 . S
C621 C622 1.523 . S
C622 C603 1.368 . S
C622 C616 1.368 . S
C622 C621 1.523 . S
C623 C607 1.429 . S
C623 C619 1.429 . S
C623 C624 1.523 . S
C624 C608 1.368 . S
C624 C620 1.368 . S
C624 C623 1.523 . S
H625 C600 0.950 . S
H626 C602 0.950 . S
H627 C603 0.949 . S
H628 C605 0.950 . S
H629 C607 0.950 . S
C630 C631 1.349 . S
C630 C632 1.327 . S
C630 H655 0.950 . S
C631 C630 1.349 . S
C631 C647 1.349 . S
C632 C630 1.327 . S
C632 C651 1.429 . S
C632 H656 0.950 . S
C633 C650 1.574 1_655 S
C633 C652 1.368 . S
C633 H657 0.949 . S
H634 C638 0.949 . S
C635 C636 1.349 . S
C635 C637 1.327 . S
C635 H658 0.950 . S
C636 C635 1.349 . S
C636 C648 1.349 . S
C637 C635 1.327 . S
C637 C653 1.429 . S
C637 H659 0.950 . S
C638 H634 0.949 . S
C638 C646 1.574 1_455 S
C638 C654 1.368 . S
H639 C647 0.950 . S
H640 C645 0.950 . S
H641 C646 0.949 . S
H642 C648 0.950 . S
H643 C649 0.950 . S
H644 C650 0.949 . S
C645 H640 0.950 . S
C645 C647 1.327 . S
C645 C651 1.429 . S
C646 C638 1.574 1_655 S
C646 H641 0.949 . S
C646 C652 1.368 . S
C647 C631 1.349 . S
C647 H639 0.950 . S
C647 C645 1.327 . S
C648 C636 1.349 . S
C648 H642 0.950 . S
C648 C649 1.327 . S
C649 H643 0.950 . S
C649 C648 1.327 . S
C649 C653 1.429 . S
C650 C633 1.574 1_455 S
C650 H644 0.949 . S
C650 C654 1.368 . S
C651 C632 1.429 . S
C651 C645 1.429 . S
C651 C652 1.523 . S
C652 C633 1.368 . S
C652 C646 1.368 . S
C652 C651 1.523 . S
C653 C637 1.429 . S
C653 C649 1.429 . S
C653 C654 1.523 . S
C654 C638 1.368 . S
C654 C650 1.368 . S
C654 C653 1.523 . S
H655 C630 0.950 . S
H656 C632 0.950 . S
H657 C633 0.949 . S
H658 C635 0.950 . S
H659 C637 0.950 . S
C660 C661 1.349 . S
C660 C662 1.327 . S
C660 H685 0.950 . S
C661 C660 1.349 . S
C661 C677 1.349 . S
C662 C660 1.327 . S
C662 C681 1.429 . S
C662 H686 0.950 . S
C663 C680 1.574 1_455 S
C663 C682 1.368 . S
C663 H687 0.949 . S
H664 C668 0.949 . S
C665 C666 1.349 . S
C665 C667 1.327 . S
C665 H688 0.950 . S
C666 C665 1.349 . S
C666 C678 1.349 . S
C667 C665 1.327 . S
C667 C683 1.429 . S
C667 H689 0.950 . S
C668 H664 0.949 . S
C668 C676 1.574 1_655 S
C668 C684 1.368 . S
H669 C677 0.950 . S
H670 C675 0.950 . S
H671 C676 0.949 . S
H672 C678 0.950 . S
H673 C679 0.950 . S
H674 C680 0.949 . S
C675 H670 0.950 . S
C675 C677 1.327 . S
C675 C681 1.429 . S
C676 C668 1.574 1_455 S
C676 H671 0.949 . S
C676 C682 1.368 . S
C677 C661 1.349 . S
C677 H669 0.950 . S
C677 C675 1.327 . S
C678 C666 1.349 . S
C678 H672 0.950 . S
C678 C679 1.327 . S
C679 H673 0.950 . S
C679 C678 1.327 . S
C679 C683 1.429 . S
C680 C663 1.574 1_655 S
C680 H674 0.949 . S
C680 C684 1.368 . S
C681 C662 1.429 . S
C681 C675 1.429 . S
C681 C682 1.523 . S
C682 C663 1.368 . S
C682 C676 1.368 . S
C682 C681 1.523 . S
C683 C667 1.429 . S
C683 C679 1.429 . S
C683 C684 1.523 . S
C684 C668 1.368 . S
C684 C680 1.368 . S
C684 C683 1.523 . S
H685 C660 0.950 . S
H686 C662 0.950 . S
H687 C663 0.949 . S
H688 C665 0.950 . S
H689 C667 0.950 . S
C690 C691 1.349 . S
C690 C692 1.327 . S
C690 H715 0.950 . S
C691 C690 1.349 . S
C691 C707 1.349 . S
C692 C690 1.327 . S
C692 C711 1.429 . S
C692 H716 0.950 . S
C693 C710 1.574 1_565 S
C693 C712 1.368 . S
C693 H717 0.949 . S
H694 C698 0.949 . S
C695 C696 1.349 . S
C695 C697 1.327 . S
C695 H718 0.950 . S
C696 C695 1.349 . S
C696 C708 1.349 . S
C697 C695 1.327 . S
C697 C713 1.429 . S
C697 H719 0.950 . S
C698 H694 0.949 . S
C698 C706 1.574 1_545 S
C698 C714 1.368 . S
H699 C707 0.950 . S
H700 C705 0.950 . S
H701 C706 0.949 . S
H702 C708 0.950 . S
H703 C709 0.950 . S
H704 C710 0.949 . S
C705 H700 0.950 . S
C705 C707 1.327 . S
C705 C711 1.429 . S
C706 C698 1.574 1_565 S
C706 H701 0.949 . S
C706 C712 1.368 . S
C707 C691 1.349 . S
C707 H699 0.950 . S
C707 C705 1.327 . S
C708 C696 1.349 . S
C708 H702 0.950 . S
C708 C709 1.327 . S
C709 H703 0.950 . S
C709 C708 1.327 . S
C709 C713 1.429 . S
C710 C693 1.574 1_545 S
C710 H704 0.949 . S
C710 C714 1.368 . S
C711 C692 1.429 . S
C711 C705 1.429 . S
C711 C712 1.523 . S
C712 C693 1.368 . S
C712 C706 1.368 . S
C712 C711 1.523 . S
C713 C697 1.429 . S
C713 C709 1.429 . S
C713 C714 1.523 . S
C714 C698 1.368 . S
C714 C710 1.368 . S
C714 C713 1.523 . S
H715 C690 0.950 . S
H716 C692 0.950 . S
H717 C693 0.949 . S
H718 C695 0.950 . S
H719 C697 0.950 . S
C720 C721 1.349 . S
C720 C722 1.327 . S
C720 H745 0.950 . S
C721 C720 1.349 . S
C721 C737 1.349 . S
C722 C720 1.327 . S
C722 C741 1.429 . S
C722 H746 0.950 . S
C723 C740 1.574 . S
C723 C742 1.368 . S
C723 H747 0.949 . S
H724 C728 0.949 . S
C725 C726 1.349 . S
C725 C727 1.327 . S
C725 H748 0.950 . S
C726 C725 1.349 . S
C726 C738 1.349 . S
C727 C725 1.327 . S
C727 C743 1.429 . S
C727 H749 0.950 . S
C728 H724 0.949 . S
C728 C736 1.574 . S
C728 C744 1.368 . S
H729 C737 0.950 . S
H730 C735 0.950 . S
H731 C736 0.949 . S
H732 C738 0.950 . S
H733 C739 0.950 . S
H734 C740 0.949 . S
C735 H730 0.950 . S
C735 C737 1.327 . S
C735 C741 1.429 . S
C736 C728 1.574 . S
C736 H731 0.949 . S
C736 C742 1.368 . S
C737 C721 1.349 . S
C737 H729 0.950 . S
C737 C735 1.327 . S
C738 C726 1.349 . S
C738 H732 0.950 . S
C738 C739 1.327 . S
C739 H733 0.950 . S
C739 C738 1.327 . S
C739 C743 1.429 . S
C740 C723 1.574 . S
C740 H734 0.949 . S
C740 C744 1.368 . S
C741 C722 1.429 . S
C741 C735 1.429 . S
C741 C742 1.523 . S
C742 C723 1.368 . S
C742 C736 1.368 . S
C742 C741 1.523 . S
C743 C727 1.429 . S
C743 C739 1.429 . S
C743 C744 1.523 . S
C744 C728 1.368 . S
C744 C740 1.368 . S
C744 C743 1.523 . S
H745 C720 0.950 . S
H746 C722 0.950 . S
H747 C723 0.949 . S
H748 C725 0.950 . S
H749 C727 0.950 . S
C750 C751 1.349 . S
C750 C752 1.327 . S
C750 H775 0.950 . S
C751 C750 1.349 . S
C751 C767 1.349 . S
C752 C750 1.327 . S
C752 C771 1.429 . S
C752 H776 0.950 . S
C753 C770 1.609 . S
C753 C772 1.368 . S
C753 H777 0.949 . S
H754 C758 0.949 . S
C755 C756 1.349 . S
C755 C757 1.327 . S
C755 H778 0.950 . S
C756 C755 1.349 . S
C756 C768 1.349 . S
C757 C755 1.327 . S
C757 C773 1.429 . S
C757 H779 0.950 . S
C758 H754 0.949 . S
C758 C766 1.574 1_655 S
C758 C774 1.368 . S
H759 C767 0.950 . S
H760 C765 0.950 . S
H761 C766 0.949 . S
H762 C768 0.950 . S
H763 C769 0.950 . S
H764 C770 0.926 1_655 S
C765 H760 0.950 . S
C765 C767 1.327 . S
C765 C771 1.429 . S
C766 C758 1.574 1_455 S
C766 H761 0.949 . S
C766 C772 1.368 . S
C767 C751 1.349 . S
C767 H759 0.950 . S
C767 C765 1.327 . S
C768 C756 1.349 . S
C768 H762 0.950 . S
C768 C769 1.327 . S
C769 H763 0.950 . S
C769 C768 1.327 . S
C769 C773 1.429 . S
C770 C753 1.609 . S
C770 H764 0.926 1_455 S
C770 C774 1.359 1_455 S
C771 C752 1.429 . S
C771 C765 1.429 . S
C771 C772 1.523 . S
C772 C753 1.368 . S
C772 C766 1.368 . S
C772 C771 1.523 . S
C773 C757 1.429 . S
C773 C769 1.429 . S
C773 C774 1.523 . S
C774 C758 1.368 . S
C774 C770 1.359 1_655 S
C774 C773 1.523 . S
H775 C750 0.950 . S
H776 C752 0.950 . S
H777 C753 0.949 . S
H778 C755 0.950 . S
H779 C757 0.950 . S
C780 C781 1.349 . S
C780 C782 1.327 . S
C780 H805 0.950 . S
C781 C780 1.349 . S
C781 C797 1.349 . S
C782 C780 1.327 . S
C782 C801 1.429 . S
C782 H806 0.950 . S
C783 C800 1.574 1_545 S
C783 C802 1.368 . S
C783 H807 0.949 . S
H784 C788 0.949 . S
C785 C786 1.349 . S
C785 C787 1.327 . S
C785 H808 0.950 . S
C786 C785 1.349 . S
C786 C798 1.349 . S
C787 C785 1.327 . S
C787 C803 1.429 . S
C787 H809 0.950 . S
C788 H784 0.949 . S
C788 C796 1.574 1_565 S
C788 C804 1.368 . S
H789 C797 0.950 . S
H790 C795 0.950 . S
H791 C796 0.949 . S
H792 C798 0.950 . S
H793 C799 0.950 . S
H794 C800 0.949 . S
C795 H790 0.950 . S
C795 C797 1.327 . S
C795 C801 1.429 . S
C796 C788 1.574 1_545 S
C796 H791 0.949 . S
C796 C802 1.368 . S
C797 C781 1.349 . S
C797 H789 0.950 . S
C797 C795 1.327 . S
C798 C786 1.349 . S
C798 H792 0.950 . S
C798 C799 1.327 . S
C799 H793 0.950 . S
C799 C798 1.327 . S
C799 C803 1.429 . S
C800 C783 1.574 1_565 S
C800 H794 0.949 . S
C800 C804 1.368 . S
C801 C782 1.429 . S
C801 C795 1.429 . S
C801 C802 1.523 . S
C802 C783 1.368 . S
C802 C796 1.368 . S
C802 C801 1.523 . S
C803 C787 1.429 . S
C803 C799 1.429 . S
C803 C804 1.523 . S
C804 C788 1.368 . S
C804 C800 1.368 . S
C804 C803 1.523 . S
H805 C780 0.950 . S
H806 C782 0.950 . S
H807 C783 0.949 . S
H808 C785 0.950 . S
H809 C787 0.950 . S
C810 C811 1.349 . S
C810 C812 1.327 . S
C810 H835 0.950 . S
C811 C810 1.349 . S
C811 C827 1.349 . S
C812 C810 1.327 . S
C812 C831 1.429 . S
C812 H836 0.950 . S
C813 C830 1.574 . S
C813 C832 1.368 . S
C813 H837 0.949 . S
H814 C818 0.949 . S
C815 C816 1.349 . S
C815 C817 1.327 . S
C815 H838 0.950 . S
C816 C815 1.349 . S
C816 C828 1.349 . S
C817 C815 1.327 . S
C817 C833 1.429 . S
C817 H839 0.950 . S
C818 H814 0.949 . S
C818 C826 1.574 . S
C818 C834 1.368 . S
H819 C827 0.950 . S
H820 C825 0.950 . S
H821 C826 0.949 . S
H822 C828 0.950 . S
H823 C829 0.950 . S
H824 C830 0.949 . S
C825 H820 0.950 . S
C825 C827 1.327 . S
C825 C831 1.429 . S
C826 C818 1.574 . S
C826 H821 0.949 . S
C826 C832 1.368 . S
C827 C811 1.349 . S
C827 H819 0.950 . S
C827 C825 1.327 . S
C828 C816 1.349 . S
C828 H822 0.950 . S
C828 C829 1.327 . S
C829 H823 0.950 . S
C829 C828 1.327 . S
C829 C833 1.429 . S
C830 C813 1.574 . S
C830 H824 0.949 . S
C830 C834 1.368 . S
C831 C812 1.429 . S
C831 C825 1.429 . S
C831 C832 1.523 . S
C832 C813 1.368 . S
C832 C826 1.368 . S
C832 C831 1.523 . S
C833 C817 1.429 . S
C833 C829 1.429 . S
C833 C834 1.523 . S
C834 C818 1.368 . S
C834 C830 1.368 . S
C834 C833 1.523 . S
H835 C810 0.950 . S
H836 C812 0.950 . S
H837 C813 0.949 . S
H838 C815 0.950 . S
H839 C817 0.950 . S
C840 C841 1.349 . S
C840 C842 1.327 . S
C840 H865 0.950 . S
C841 C840 1.349 . S
C841 C857 1.349 . S
C842 C840 1.327 . S
C842 C861 1.429 . S
C842 H866 0.950 . S
C843 C860 1.574 . S
C843 C862 1.368 . S
C843 H867 0.949 . S
H844 C848 0.949 . S
C845 C846 1.349 . S
C845 C847 1.327 . S
C845 H868 0.950 . S
C846 C845 1.349 . S
C846 C858 1.349 . S
C847 C845 1.327 . S
C847 C863 1.429 . S
C847 H869 0.950 . S
C848 H844 0.949 . S
C848 C856 1.574 . S
C848 C864 1.368 . S
H849 C857 0.950 . S
H850 C855 0.950 . S
H851 C856 0.949 . S
H852 C858 0.950 . S
H853 C859 0.950 . S
H854 C860 0.949 . S
C855 H850 0.950 . S
C855 C857 1.327 . S
C855 C861 1.429 . S
C856 C848 1.574 . S
C856 H851 0.949 . S
C856 C862 1.368 . S
C857 C841 1.349 . S
C857 H849 0.950 . S
C857 C855 1.327 . S
C858 C846 1.349 . S
C858 H852 0.950 . S
C858 C859 1.327 . S
C859 H853 0.950 . S
C859 C858 1.327 . S
C859 C863 1.429 . S
C860 C843 1.574 . S
C860 H854 0.949 . S
C860 C864 1.368 . S
C861 C842 1.429 . S
C861 C855 1.429 . S
C861 C862 1.523 . S
C862 C843 1.368 . S
C862 C856 1.368 . S
C862 C861 1.523 . S
C863 C847 1.429 . S
C863 C859 1.429 . S
C863 C864 1.523 . S
C864 C848 1.368 . S
C864 C860 1.368 . S
C864 C863 1.523 . S
H865 C840 0.950 . S
H866 C842 0.950 . S
H867 C843 0.949 . S
H868 C845 0.950 . S
H869 C847 0.950 . S
C870 C871 1.349 . S
C870 C872 1.327 . S
C870 H895 0.950 . S
C871 C870 1.349 . S
C871 C887 1.349 . S
C872 C870 1.327 . S
C872 C891 1.429 . S
C872 H896 0.950 . S
C873 C890 1.574 . S
C873 C892 1.368 . S
C873 H897 0.949 . S
H874 C878 0.949 . S
C875 C876 1.349 . S
C875 C877 1.327 . S
C875 H898 0.950 . S
C876 C875 1.349 . S
C876 C888 1.349 . S
C877 C875 1.327 . S
C877 C893 1.429 . S
C877 H899 0.950 . S
C878 H874 0.949 . S
C878 C886 1.574 . S
C878 C894 1.368 . S
H879 C887 0.950 . S
H880 C885 0.950 . S
H881 C886 0.949 . S
H882 C888 0.950 . S
H883 C889 0.950 . S
H884 C890 0.949 . S
C885 H880 0.950 . S
C885 C887 1.327 . S
C885 C891 1.429 . S
C886 C878 1.574 . S
C886 H881 0.949 . S
C886 C892 1.368 . S
C887 C871 1.349 . S
C887 H879 0.950 . S
C887 C885 1.327 . S
C888 C876 1.349 . S
C888 H882 0.950 . S
C888 C889 1.327 . S
C889 H883 0.950 . S
C889 C888 1.327 . S
C889 C893 1.429 . S
C890 C873 1.574 . S
C890 H884 0.949 . S
C890 C894 1.368 . S
C891 C872 1.429 . S
C891 C885 1.429 . S
C891 C892 1.523 . S
C892 C873 1.368 . S
C892 C886 1.368 . S
C892 C891 1.523 . S
C893 C877 1.429 . S
C893 C889 1.429 . S
C893 C894 1.523 . S
C894 C878 1.368 . S
C894 C890 1.368 . S
C894 C893 1.523 . S
H895 C870 0.950 . S
H896 C872 0.950 . S
H897 C873 0.949 . S
H898 C875 0.950 . S
H899 C877 0.950 . S
C900 C901 1.349 . S
C900 C902 1.327 . S
C900 H925 0.950 . S
C901 C900 1.349 . S
C901 C917 1.349 . S
C902 C900 1.327 . S
C902 C921 1.429 . S
C902 H926 0.950 . S
C903 C920 1.574 . S
C903 C922 1.368 . S
C903 H927 0.949 . S
H904 C908 0.949 . S
C905 C906 1.349 . S
C905 C907 1.327 . S
C905 H928 0.950 . S
C906 C905 1.349 . S
C906 C918 1.349 . S
C907 C905 1.327 . S
C907 C923 1.429 . S
C907 H929 0.950 . S
C908 H904 0.949 . S
C908 C916 1.574 . S
C908 C924 1.368 . S
H909 C917 0.950 . S
H910 C915 0.950 . S
H911 C916 0.949 . S
H912 C918 0.950 . S
H913 C919 0.950 . S
H914 C920 0.949 . S
C915 H910 0.950 . S
C915 C917 1.327 . S
C915 C921 1.429 . S
C916 C908 1.574 . S
C916 H911 0.949 . S
C916 C922 1.368 . S
C917 C901 1.349 . S
C917 H909 0.950 . S
C917 C915 1.327 . S
C918 C906 1.349 . S
C918 H912 0.950 . S
C918 C919 1.327 . S
C919 H913 0.950 . S
C919 C918 1.327 . S
C919 C923 1.429 . S
C920 C903 1.574 . S
C920 H914 0.949 . S
C920 C924 1.368 . S
C921 C902 1.429 . S
C921 C915 1.429 . S
C921 C922 1.523 . S
C922 C903 1.368 . S
C922 C916 1.368 . S
C922 C921 1.523 . S
C923 C907 1.429 . S
C923 C919 1.429 . S
C923 C924 1.523 . S
C924 C908 1.368 . S
C924 C920 1.368 . S
C924 C923 1.523 . S
H925 C900 0.950 . S
H926 C902 0.950 . S
H927 C903 0.949 . S
H928 C905 0.950 . S
H929 C907 0.950 . S
C930 C931 1.349 . S
C930 C932 1.327 . S
C930 H955 0.950 . S
C931 C930 1.349 . S
C931 C947 1.349 . S
C932 C930 1.327 . S
C932 C951 1.429 . S
C932 H956 0.950 . S
C933 C950 1.574 . S
C933 C952 1.368 . S
C933 H957 0.949 . S
H934 C938 0.949 . S
C935 C936 1.349 . S
C935 C937 1.327 . S
C935 H958 0.950 . S
C936 C935 1.349 . S
C936 C948 1.349 . S
C937 C935 1.327 . S
C937 C953 1.429 . S
C937 H959 0.950 . S
C938 H934 0.949 . S
C938 C946 1.574 . S
C938 C954 1.368 . S
H939 C947 0.950 . S
H940 C945 0.950 . S
H941 C946 0.949 . S
H942 C948 0.950 . S
H943 C949 0.950 . S
H944 C950 0.949 . S
C945 H940 0.950 . S
C945 C947 1.327 . S
C945 C951 1.429 . S
C946 C938 1.574 . S
C946 H941 0.949 . S
C946 C952 1.368 . S
C947 C931 1.349 . S
C947 H939 0.950 . S
C947 C945 1.327 . S
C948 C936 1.349 . S
C948 H942 0.950 . S
C948 C949 1.327 . S
C949 H943 0.950 . S
C949 C948 1.327 . S
C949 C953 1.429 . S
C950 C933 1.574 . S
C950 H944 0.949 . S
C950 C954 1.368 . S
C951 C932 1.429 . S
C951 C945 1.429 . S
C951 C952 1.523 . S
C952 C933 1.368 . S
C952 C946 1.368 . S
C952 C951 1.523 . S
C953 C937 1.429 . S
C953 C949 1.429 . S
C953 C954 1.523 . S
C954 C938 1.368 . S
C954 C950 1.368 . S
C954 C953 1.523 . S
H955 C930 0.950 . S
H956 C932 0.950 . S
H957 C933 0.949 . S
H958 C935 0.950 . S
H959 C937 0.950 . S
C960 C961 1.349 . S
C960 C962 1.327 . S
C960 H985 0.950 . S
C961 C960 1.349 . S
C961 C977 1.349 . S
C962 C960 1.327 . S
C962 C981 1.429 . S
C962 H986 0.950 . S
C963 C980 1.574 . S
C963 C982 1.368 . S
C963 H987 0.949 . S
H964 C968 0.949 . S
C965 C966 1.349 . S
C965 C967 1.327 . S
C965 H988 0.950 . S
C966 C965 1.349 . S
C966 C978 1.349 . S
C967 C965 1.327 . S
C967 C983 1.429 . S
C967 H989 0.950 . S
C968 H964 0.949 . S
C968 C976 1.574 . S
C968 C984 1.368 . S
H969 C977 0.950 . S
H970 C975 0.950 . S
H971 C976 0.949 . S
H972 C978 0.950 . S
H973 C979 0.950 . S
H974 C980 0.949 . S
C975 H970 0.950 . S
C975 C977 1.327 . S
C975 C981 1.429 . S
C976 C968 1.574 . S
C976 H971 0.949 . S
C976 C982 1.368 . S
C977 C961 1.349 . S
C977 H969 0.950 . S
C977 C975 1.327 . S
C978 C966 1.349 . S
C978 H972 0.950 . S
C978 C979 1.327 . S
C979 H973 0.950 . S
C979 C978 1.327 . S
C979 C983 1.429 . S
C980 C963 1.574 . S
C980 H974 0.949 . S
C980 C984 1.368 . S
C981 C962 1.429 . S
C981 C975 1.429 . S
C981 C982 1.523 . S
C982 C963 1.368 . S
C982 C976 1.368 . S
C982 C981 1.523 . S
C983 C967 1.429 . S
C983 C979 1.429 . S
C983 C984 1.523 . S
C984 C968 1.368 . S
C984 C980 1.368 . S
C984 C983 1.523 . S
H985 C960 0.950 . S
H986 C962 0.950 . S
H987 C963 0.949 . S
H988 C965 0.950 . S
H989 C967 0.950 . S
C990 C991 1.349 . S
C990 C992 1.327 . S
C990 H1015 0.950 . S
C991 C990 1.349 . S
C991 C1007 1.349 . S
C992 C990 1.327 . S
C992 C1011 1.429 . S
C992 H1016 0.950 . S
C993 C1010 1.574 . S
C993 C1012 1.368 . S
C993 H1017 0.949 . S
H994 C998 0.949 . S
C995 C996 1.349 . S
C995 C997 1.327 . S
C995 H1018 0.950 . S
C996 C995 1.349 . S
C996 C1008 1.349 . S
C997 C995 1.327 . S
C997 C1013 1.429 . S
C997 H1019 0.950 . S
C998 H994 0.949 . S
C998 C1006 1.574 . S
C998 C1014 1.368 . S
H999 C1007 0.950 . S
H1000 C1005 0.950 . S
H1001 C1006 0.949 . S
H1002 C1008 0.950 . S
H1003 C1009 0.950 . S
H1004 C1010 0.949 . S
C1005 H1000 0.950 . S
C1005 C1007 1.327 . S
C1005 C1011 1.429 . S
C1006 C998 1.574 . S
C1006 H1001 0.949 . S
C1006 C1012 1.368 . S
C1007 C991 1.349 . S
C1007 H999 0.950 . S
C1007 C1005 1.327 . S
C1008 C996 1.349 . S
C1008 H1002 0.950 . S
C1008 C1009 1.327 . S
C1009 H1003 0.950 . S
C1009 C1008 1.327 . S
C1009 C1013 1.429 . S
C1010 C993 1.574 . S
C1010 H1004 0.949 . S
C1010 C1014 1.368 . S
C1011 C992 1.429 . S
C1011 C1005 1.429 . S
C1011 C1012 1.523 . S
C1012 C993 1.368 . S
C1012 C1006 1.368 . S
C1012 C1011 1.523 . S
C1013 C997 1.429 . S
C1013 C1009 1.429 . S
C1013 C1014 1.523 . S
C1014 C998 1.368 . S
C1014 C1010 1.368 . S
C1014 C1013 1.523 . S
H1015 C990 0.950 . S
H1016 C992 0.950 . S
H1017 C993 0.949 . S
H1018 C995 0.950 . S
H1019 C997 0.950 . S
C1020 C1021 1.349 . S
C1020 C1022 1.327 . S
C1020 H1045 0.950 . S
C1021 C1020 1.349 . S
C1021 C1037 1.349 . S
C1022 C1020 1.327 . S
C1022 C1041 1.429 . S
C1022 H1046 0.950 . S
C1023 C1040 1.574 . S
C1023 C1042 1.368 . S
C1023 H1047 0.949 . S
H1024 C1028 0.949 . S
C1025 C1026 1.349 . S
C1025 C1027 1.327 . S
C1025 H1048 0.950 . S
C1026 C1025 1.349 . S
C1026 C1038 1.349 . S
C1027 C1025 1.327 . S
C1027 C1043 1.429 . S
C1027 H1049 0.950 . S
C1028 H1024 0.949 . S
C1028 C1036 1.574 . S
C1028 C1044 1.368 . S
H1029 C1037 0.950 . S
H1030 C1035 0.950 . S
H1031 C1036 0.949 . S
H1032 C1038 0.950 . S
H1033 C1039 0.950 . S
H1034 C1040 0.949 . S
C1035 H1030 0.950 . S
C1035 C1037 1.327 . S
C1035 C1041 1.429 . S
C1036 C1028 1.574 . S
C1036 H1031 0.949 . S
C1036 C1042 1.368 . S
C1037 C1021 1.349 . S
C1037 H1029 0.950 . S
C1037 C1035 1.327 . S
C1038 C1026 1.349 . S
C1038 H1032 0.950 . S
C1038 C1039 1.327 . S
C1039 H1033 0.950 . S
C1039 C1038 1.327 . S
C1039 C1043 1.429 . S
C1040 C1023 1.574 . S
C1040 H1034 0.949 . S
C1040 C1044 1.368 . S
C1041 C1022 1.429 . S
C1041 C1035 1.429 . S
C1041 C1042 1.523 . S
C1042 C1023 1.368 . S
C1042 C1036 1.368 . S
C1042 C1041 1.523 . S
C1043 C1027 1.429 . S
C1043 C1039 1.429 . S
C1043 C1044 1.523 . S
C1044 C1028 1.368 . S
C1044 C1040 1.368 . S
C1044 C1043 1.523 . S
H1045 C1020 0.950 . S
H1046 C1022 0.950 . S
H1047 C1023 0.949 . S
H1048 C1025 0.950 . S
H1049 C1027 0.950 . S
C1050 C1051 1.349 . S
C1050 C1052 1.327 . S
C1050 H1075 0.950 . S
C1051 C1050 1.349 . S
C1051 C1067 1.349 . S
C1052 C1050 1.327 . S
C1052 C1071 1.429 . S
C1052 H1076 0.950 . S
C1053 C1070 1.574 . S
C1053 C1072 1.368 . S
C1053 H1077 0.949 . S
H1054 C1058 0.949 . S
C1055 C1056 1.349 . S
C1055 C1057 1.327 . S
C1055 H1078 0.950 . S
C1056 C1055 1.349 . S
C1056 C1068 1.349 . S
C1057 C1055 1.327 . S
C1057 C1073 1.429 . S
C1057 H1079 0.950 . S
C1058 H1054 0.949 . S
C1058 C1066 1.574 . S
C1058 C1074 1.368 . S
H1059 C1067 0.950 . S
H1060 C1065 0.950 . S
H1061 C1066 0.949 . S
H1062 C1068 0.950 . S
H1063 C1069 0.950 . S
H1064 C1070 0.949 . S
C1065 H1060 0.950 . S
C1065 C1067 1.327 . S
C1065 C1071 1.429 . S
C1066 C1058 1.574 . S
C1066 H1061 0.949 . S
C1066 C1072 1.368 . S
C1067 C1051 1.349 . S
C1067 H1059 0.950 . S
C1067 C1065 1.327 . S
C1068 C1056 1.349 . S
C1068 H1062 0.950 . S
C1068 C1069 1.327 . S
C1069 H1063 0.950 . S
C1069 C1068 1.327 . S
C1069 C1073 1.429 . S
C1070 C1053 1.574 . S
C1070 H1064 0.949 . S
C1070 C1074 1.368 . S
C1071 C1052 1.429 . S
C1071 C1065 1.429 . S
C1071 C1072 1.523 . S
C1072 C1053 1.368 . S
C1072 C1066 1.368 . S
C1072 C1071 1.523 . S
C1073 C1057 1.429 . S
C1073 C1069 1.429 . S
C1073 C1074 1.523 . S
C1074 C1058 1.368 . S
C1074 C1070 1.368 . S
C1074 C1073 1.523 . S
H1075 C1050 0.950 . S
H1076 C1052 0.950 . S
H1077 C1053 0.949 . S
H1078 C1055 0.950 . S
H1079 C1057 0.950 . S
C1080 C1081 1.349 . S
C1080 C1082 1.327 . S
C1080 H1105 0.950 . S
C1081 C1080 1.349 . S
C1081 C1097 1.349 . S
C1082 C1080 1.327 . S
C1082 C1101 1.429 . S
C1082 H1106 0.950 . S
C1083 C1100 1.574 . S
C1083 C1102 1.368 . S
C1083 H1107 0.949 . S
H1084 C1088 0.949 . S
C1085 C1086 1.349 . S
C1085 C1087 1.327 . S
C1085 H1108 0.950 . S
C1086 C1085 1.349 . S
C1086 C1098 1.349 . S
C1087 C1085 1.327 . S
C1087 C1103 1.429 . S
C1087 H1109 0.950 . S
C1088 H1084 0.949 . S
C1088 C1096 1.574 . S
C1088 C1104 1.368 . S
H1089 C1097 0.950 . S
H1090 C1095 0.950 . S
H1091 C1096 0.949 . S
H1092 C1098 0.950 . S
H1093 C1099 0.950 . S
H1094 C1100 0.949 . S
C1095 H1090 0.950 . S
C1095 C1097 1.327 . S
C1095 C1101 1.429 . S
C1096 C1088 1.574 . S
C1096 H1091 0.949 . S
C1096 C1102 1.368 . S
C1097 C1081 1.349 . S
C1097 H1089 0.950 . S
C1097 C1095 1.327 . S
C1098 C1086 1.349 . S
C1098 H1092 0.950 . S
C1098 C1099 1.327 . S
C1099 H1093 0.950 . S
C1099 C1098 1.327 . S
C1099 C1103 1.429 . S
C1100 C1083 1.574 . S
C1100 H1094 0.949 . S
C1100 C1104 1.368 . S
C1101 C1082 1.429 . S
C1101 C1095 1.429 . S
C1101 C1102 1.523 . S
C1102 C1083 1.368 . S
C1102 C1096 1.368 . S
C1102 C1101 1.523 . S
C1103 C1087 1.429 . S
C1103 C1099 1.429 . S
C1103 C1104 1.523 . S
C1104 C1088 1.368 . S
C1104 C1100 1.368 . S
C1104 C1103 1.523 . S
H1105 C1080 0.950 . S
H1106 C1082 0.950 . S
H1107 C1083 0.949 . S
H1108 C1085 0.950 . S
H1109 C1087 0.950 . S
C1110 C1111 1.349 . S
C1110 C1112 1.327 . S
C1110 H1135 0.950 . S
C1111 C1110 1.349 . S
C1111 C1127 1.349 . S
C1112 C1110 1.327 . S
C1112 C1131 1.429 . S
C1112 H1136 0.950 . S
C1113 C1130 1.574 . S
C1113 C1132 1.368 . S
C1113 H1137 0.949 . S
H1114 C1118 0.949 . S
C1115 C1116 1.349 . S
C1115 C1117 1.327 . S
C1115 H1138 0.950 . S
C1116 C1115 1.349 . S
C1116 C1128 1.349 . S
C1117 C1115 1.327 . S
C1117 C1133 1.429 . S
C1117 H1139 0.950 . S
C1118 H1114 0.949 . S
C1118 C1126 1.574 . S
C1118 C1134 1.368 . S
H1119 C1127 0.950 . S
H1120 C1125 0.950 . S
H1121 C1126 0.949 . S
H1122 C1128 0.950 . S
H1123 C1129 0.950 . S
H1124 C1130 0.949 . S
C1125 H1120 0.950 . S
C1125 C1127 1.327 . S
C1125 C1131 1.429 . S
C1126 C1118 1.574 . S
C1126 H1121 0.949 . S
C1126 C1132 1.368 . S
C1127 C1111 1.349 . S
C1127 H1119 0.950 . S
C1127 C1125 1.327 . S
C1128 C1116 1.349 . S
C1128 H1122 0.950 . S
C1128 C1129 1.327 . S
C1129 H1123 0.950 . S
C1129 C1128 1.327 . S
C1129 C1133 1.429 . S
C1130 C1113 1.574 . S
C1130 H1124 0.949 . S
C1130 C1134 1.368 . S
C1131 C1112 1.429 . S
C1131 C1125 1.429 . S
C1131 C1132 1.523 . S
C1132 C1113 1.368 . S
C1132 C1126 1.368 . S
C1132 C1131 1.523 . S
C1133 C1117 1.429 . S
C1133 C1129 1.429 . S
C1133 C1134 1.523 . S
C1134 C1118 1.368 . S
C1134 C1130 1.368 . S
C1134 C1133 1.523 . S
H1135 C1110 0.950 . S
H1136 C1112 0.950 . S
H1137 C1113 0.949 . S
H1138 C1115 0.950 . S
H1139 C1117 0.950 . S
C1140 C1141 1.349 . S
C1140 C1142 1.327 . S
C1140 H1165 0.950 . S
C1141 C1140 1.349 . S
C1141 C1157 1.349 . S
C1142 C1140 1.327 . S
C1142 C1161 1.429 . S
C1142 H1166 0.950 . S
C1143 C1160 1.574 . S
C1143 C1162 1.368 . S
C1143 H1167 0.949 . S
H1144 C1148 0.949 . S
C1145 C1146 1.349 . S
C1145 C1147 1.327 . S
C1145 H1168 0.950 . S
C1146 C1145 1.349 . S
C1146 C1158 1.349 . S
C1147 C1145 1.327 . S
C1147 C1163 1.429 . S
C1147 H1169 0.950 . S
C1148 H1144 0.949 . S
C1148 C1156 1.574 . S
C1148 C1164 1.368 . S
H1149 C1157 0.950 . S
H1150 C1155 0.950 . S
H1151 C1156 0.949 . S
H1152 C1158 0.950 . S
H1153 C1159 0.950 . S
H1154 C1160 0.949 . S
C1155 H1150 0.950 . S
C1155 C1157 1.327 . S
C1155 C1161 1.429 . S
C1156 C1148 1.574 . S
C1156 H1151 0.949 . S
C1156 C1162 1.368 . S
C1157 C1141 1.349 . S
C1157 H1149 0.950 . S
C1157 C1155 1.327 . S
C1158 C1146 1.349 . S
C1158 H1152 0.950 . S
C1158 C1159 1.327 . S
C1159 H1153 0.950 . S
C1159 C1158 1.327 . S
C1159 C1163 1.429 . S
C1160 C1143 1.574 . S
C1160 H1154 0.949 . S
C1160 C1164 1.368 . S
C1161 C1142 1.429 . S
C1161 C1155 1.429 . S
C1161 C1162 1.523 . S
C1162 C1143 1.368 . S
C1162 C1156 1.368 . S
C1162 C1161 1.523 . S
C1163 C1147 1.429 . S
C1163 C1159 1.429 . S
C1163 C1164 1.523 . S
C1164 C1148 1.368 . S
C1164 C1160 1.368 . S
C1164 C1163 1.523 . S
H1165 C1140 0.950 . S
H1166 C1142 0.950 . S
H1167 C1143 0.949 . S
H1168 C1145 0.950 . S
H1169 C1147 0.950 . S
C1170 C1171 1.349 . S
C1170 C1172 1.327 . S
C1170 H1195 0.950 . S
C1171 C1170 1.349 . S
C1171 C1187 1.349 . S
C1172 C1170 1.327 . S
C1172 C1191 1.429 . S
C1172 H1196 0.950 . S
C1173 C1190 1.574 . S
C1173 C1192 1.368 . S
C1173 H1197 0.949 . S
H1174 C1178 0.949 . S
C1175 C1176 1.349 . S
C1175 C1177 1.327 . S
C1175 H1198 0.950 . S
C1176 C1175 1.349 . S
C1176 C1188 1.349 . S
C1177 C1175 1.327 . S
C1177 C1193 1.429 . S
C1177 H1199 0.950 . S
C1178 H1174 0.949 . S
C1178 C1186 1.574 . S
C1178 C1194 1.368 . S
H1179 C1187 0.950 . S
H1180 C1185 0.950 . S
H1181 C1186 0.949 . S
H1182 C1188 0.950 . S
H1183 C1189 0.950 . S
H1184 C1190 0.949 . S
C1185 H1180 0.950 . S
C1185 C1187 1.327 . S
C1185 C1191 1.429 . S
C1186 C1178 1.574 . S
C1186 H1181 0.949 . S
C1186 C1192 1.368 . S
C1187 C1171 1.349 . S
C1187 H1179 0.950 . S
C1187 C1185 1.327 . S
C1188 C1176 1.349 . S
C1188 H1182 0.950 . S
C1188 C1189 1.327 . S
C1189 H1183 0.950 . S
C1189 C1188 1.327 . S
C1189 C1193 1.429 . S
C1190 C1173 1.574 . S
C1190 H1184 0.949 . S
C1190 C1194 1.368 . S
C1191 C1172 1.429 . S
C1191 C1185 1.429 . S
C1191 C1192 1.523 . S
C1192 C1173 1.368 . S
C1192 C1186 1.368 . S
C1192 C1191 1.523 . S
C1193 C1177 1.429 . S
C1193 C1189 1.429 . S
C1193 C1194 1.523 . S
C1194 C1178 1.368 . S
C1194 C1190 1.368 . S
C1194 C1193 1.523 . S
H1195 C1170 0.950 . S
H1196 C1172 0.950 . S
H1197 C1173 0.949 . S
H1198 C1175 0.950 . S
H1199 C1177 0.950 . S
C1200 C1201 1.349 . S
C1200 C1202 1.327 . S
C1200 H1225 0.950 . S
C1201 C1200 1.349 . S
C1201 C1217 1.349 . S
C1202 C1200 1.327 . S
C1202 C1221 1.429 . S
C1202 H1226 0.950 . S
C1203 C1220 1.574 . S
C1203 C1222 1.368 . S
C1203 H1227 0.949 . S
H1204 C1208 0.949 . S
C1205 C1206 1.349 . S
C1205 C1207 1.327 . S
C1205 H1228 0.950 . S
C1206 C1205 1.349 . S
C1206 C1218 1.349 . S
C1207 C1205 1.327 . S
C1207 C1223 1.429 . S
C1207 H1229 0.950 . S
C1208 H1204 0.949 . S
C1208 C1216 1.574 . S
C1208 C1224 1.368 . S
H1209 C1217 0.950 . S
H1210 C1215 0.950 . S
H1211 C1216 0.949 . S
H1212 C1218 0.950 . S
H1213 C1219 0.950 . S
H1214 C1220 0.949 . S
C1215 H1210 0.950 . S
C1215 C1217 1.327 . S
C1215 C1221 1.429 . S
C1216 C1208 1.574 . S
C1216 H1211 0.949 . S
C1216 C1222 1.368 . S
C1217 C1201 1.349 . S
C1217 H1209 0.950 . S
C1217 C1215 1.327 . S
C1218 C1206 1.349 . S
C1218 H1212 0.950 . S
C1218 C1219 1.327 . S
C1219 H1213 0.950 . S
C1219 C1218 1.327 . S
C1219 C1223 1.429 . S
C1220 C1203 1.574 . S
C1220 H1214 0.949 . S
C1220 C1224 1.368 . S
C1221 C1202 1.429 . S
C1221 C1215 1.429 . S
C1221 C1222 1.523 . S
C1222 C1203 1.368 . S
C1222 C1216 1.368 . S
C1222 C1221 1.523 . S
C1223 C1207 1.429 . S
C1223 C1219 1.429 . S
C1223 C1224 1.523 . S
C1224 C1208 1.368 . S
C1224 C1220 1.368 . S
C1224 C1223 1.523 . S
H1225 C1200 0.950 . S
H1226 C1202 0.950 . S
H1227 C1203 0.949 . S
H1228 C1205 0.950 . S
H1229 C1207 0.950 . S
C1230 C1231 1.349 . S
C1230 C1232 1.327 . S
C1230 H1255 0.950 . S
C1231 C1230 1.349 . S
C1231 C1247 1.349 . S
C1232 C1230 1.327 . S
C1232 C1251 1.429 . S
C1232 H1256 0.950 . S
C1233 C1250 1.574 . S
C1233 C1252 1.368 . S
C1233 H1257 0.949 . S
H1234 C1238 0.949 . S
C1235 C1236 1.349 . S
C1235 C1237 1.327 . S
C1235 H1258 0.950 . S
C1236 C1235 1.349 . S
C1236 C1248 1.349 . S
C1237 C1235 1.327 . S
C1237 C1253 1.429 . S
C1237 H1259 0.950 . S
C1238 H1234 0.949 . S
C1238 C1246 1.574 . S
C1238 C1254 1.368 . S
H1239 C1247 0.950 . S
H1240 C1245 0.950 . S
H1241 C1246 0.949 . S
H1242 C1248 0.950 . S
H1243 C1249 0.950 . S
H1244 C1250 0.949 . S
C1245 H1240 0.950 . S
C1245 C1247 1.327 . S
C1245 C1251 1.429 . S
C1246 C1238 1.574 . S
C1246 H1241 0.949 . S
C1246 C1252 1.368 . S
C1247 C1231 1.349 . S
C1247 H1239 0.950 . S
C1247 C1245 1.327 . S
C1248 C1236 1.349 . S
C1248 H1242 0.950 . S
C1248 C1249 1.327 . S
C1249 H1243 0.950 . S
C1249 C1248 1.327 . S
C1249 C1253 1.429 . S
C1250 C1233 1.574 . S
C1250 H1244 0.949 . S
C1250 C1254 1.368 . S
C1251 C1232 1.429 . S
C1251 C1245 1.429 . S
C1251 C1252 1.523 . S
C1252 C1233 1.368 . S
C1252 C1246 1.368 . S
C1252 C1251 1.523 . S
C1253 C1237 1.429 . S
C1253 C1249 1.429 . S
C1253 C1254 1.523 . S
C1254 C1238 1.368 . S
C1254 C1250 1.368 . S
C1254 C1253 1.523 . S
H1255 C1230 0.950 . S
H1256 C1232 0.950 . S
H1257 C1233 0.949 . S
H1258 C1235 0.950 . S
H1259 C1237 0.950 . S
C1260 C1261 1.349 . S
C1260 C1262 1.327 . S
C1260 H1285 0.950 . S
C1261 C1260 1.349 . S
C1261 C1277 1.349 . S
C1262 C1260 1.327 . S
C1262 C1281 1.429 . S
C1262 H1286 0.950 . S
C1263 C1280 1.574 . S
C1263 C1282 1.368 . S
C1263 H1287 0.949 . S
H1264 C1268 0.949 . S
C1265 C1266 1.349 . S
C1265 C1267 1.327 . S
C1265 H1288 0.950 . S
C1266 C1265 1.349 . S
C1266 C1278 1.349 . S
C1267 C1265 1.327 . S
C1267 C1283 1.429 . S
C1267 H1289 0.950 . S
C1268 H1264 0.949 . S
C1268 C1276 1.574 . S
C1268 C1284 1.368 . S
H1269 C1277 0.950 . S
H1270 C1275 0.950 . S
H1271 C1276 0.949 . S
H1272 C1278 0.950 . S
H1273 C1279 0.950 . S
H1274 C1280 0.949 . S
C1275 H1270 0.950 . S
C1275 C1277 1.327 . S
C1275 C1281 1.429 . S
C1276 C1268 1.574 . S
C1276 H1271 0.949 . S
C1276 C1282 1.368 . S
C1277 C1261 1.349 . S
C1277 H1269 0.950 . S
C1277 C1275 1.327 . S
C1278 C1266 1.349 . S
C1278 H1272 0.950 . S
C1278 C1279 1.327 . S
C1279 H1273 0.950 . S
C1279 C1278 1.327 . S
C1279 C1283 1.429 . S
C1280 C1263 1.574 . S
C1280 H1274 0.949 . S
C1280 C1284 1.368 . S
C1281 C1262 1.429 . S
C1281 C1275 1.429 . S
C1281 C1282 1.523 . S
C1282 C1263 1.368 . S
C1282 C1276 1.368 . S
C1282 C1281 1.523 . S
C1283 C1267 1.429 . S
C1283 C1279 1.429 . S
C1283 C1284 1.523 . S
C1284 C1268 1.368 . S
C1284 C1280 1.368 . S
C1284 C1283 1.523 . S
H1285 C1260 0.950 . S
H1286 C1262 0.950 . S
H1287 C1263 0.949 . S
H1288 C1265 0.950 . S
H1289 C1267 0.950 . S
C1290 C1291 1.349 . S
C1290 C1292 1.327 . S
C1290 H1315 0.950 . S
C1291 C1290 1.349 . S
C1291 C1307 1.349 . S
C1292 C1290 1.327 . S
C1292 C1311 1.429 . S
C1292 H1316 0.950 . S
C1293 C1310 1.574 . S
C1293 C1312 1.368 . S
C1293 H1317 0.949 . S
H1294 C1298 0.949 . S
C1295 C1296 1.349 . S
C1295 C1297 1.327 . S
C1295 H1318 0.950 . S
C1296 C1295 1.349 . S
C1296 C1308 1.349 . S
C1297 C1295 1.327 . S
C1297 C1313 1.429 . S
C1297 H1319 0.950 . S
C1298 H1294 0.949 . S
C1298 C1306 1.574 . S
C1298 C1314 1.368 . S
H1299 C1307 0.950 . S
H1300 C1305 0.950 . S
H1301 C1306 0.949 . S
H1302 C1308 0.950 . S
H1303 C1309 0.950 . S
H1304 C1310 0.949 . S
C1305 H1300 0.950 . S
C1305 C1307 1.327 . S
C1305 C1311 1.429 . S
C1306 C1298 1.574 . S
C1306 H1301 0.949 . S
C1306 C1312 1.368 . S
C1307 C1291 1.349 . S
C1307 H1299 0.950 . S
C1307 C1305 1.327 . S
C1308 C1296 1.349 . S
C1308 H1302 0.950 . S
C1308 C1309 1.327 . S
C1309 H1303 0.950 . S
C1309 C1308 1.327 . S
C1309 C1313 1.429 . S
C1310 C1293 1.574 . S
C1310 H1304 0.949 . S
C1310 C1314 1.368 . S
C1311 C1292 1.429 . S
C1311 C1305 1.429 . S
C1311 C1312 1.523 . S
C1312 C1293 1.368 . S
C1312 C1306 1.368 . S
C1312 C1311 1.523 . S
C1313 C1297 1.429 . S
C1313 C1309 1.429 . S
C1313 C1314 1.523 . S
C1314 C1298 1.368 . S
C1314 C1310 1.368 . S
C1314 C1313 1.523 . S
H1315 C1290 0.950 . S
H1316 C1292 0.950 . S
H1317 C1293 0.949 . S
H1318 C1295 0.950 . S
H1319 C1297 0.950 . S
C1320 C1321 1.349 . S
C1320 C1322 1.327 . S
C1320 H1345 0.950 . S
C1321 C1320 1.349 . S
C1321 C1337 1.349 . S
C1322 C1320 1.327 . S
C1322 C1341 1.429 . S
C1322 H1346 0.950 . S
C1323 C1340 1.574 . S
C1323 C1342 1.368 . S
C1323 H1347 0.949 . S
H1324 C1328 0.949 . S
C1325 C1326 1.349 . S
C1325 C1327 1.327 . S
C1325 H1348 0.950 . S
C1326 C1325 1.349 . S
C1326 C1338 1.349 . S
C1327 C1325 1.327 . S
C1327 C1343 1.429 . S
C1327 H1349 0.950 . S
C1328 H1324 0.949 . S
C1328 C1336 1.574 . S
C1328 C1344 1.368 . S
H1329 C1337 0.950 . S
H1330 C1335 0.950 . S
H1331 C1336 0.949 . S
H1332 C1338 0.950 . S
H1333 C1339 0.950 . S
H1334 C1340 0.949 . S
C1335 H1330 0.950 . S
C1335 C1337 1.327 . S
C1335 C1341 1.429 . S
C1336 C1328 1.574 . S
C1336 H1331 0.949 . S
C1336 C1342 1.368 . S
C1337 C1321 1.349 . S
C1337 H1329 0.950 . S
C1337 C1335 1.327 . S
C1338 C1326 1.349 . S
C1338 H1332 0.950 . S
C1338 C1339 1.327 . S
C1339 H1333 0.950 . S
C1339 C1338 1.327 . S
C1339 C1343 1.429 . S
C1340 C1323 1.574 . S
C1340 H1334 0.949 . S
C1340 C1344 1.368 . S
C1341 C1322 1.429 . S
C1341 C1335 1.429 . S
C1341 C1342 1.523 . S
C1342 C1323 1.368 . S
C1342 C1336 1.368 . S
C1342 C1341 1.523 . S
C1343 C1327 1.429 . S
C1343 C1339 1.429 . S
C1343 C1344 1.523 . S
C1344 C1328 1.368 . S
C1344 C1340 1.368 . S
C1344 C1343 1.523 . S
H1345 C1320 0.950 . S
H1346 C1322 0.950 . S
H1347 C1323 0.949 . S
H1348 C1325 0.950 . S
H1349 C1327 0.950 . S
C1350 C1351 1.349 . S
C1350 C1352 1.327 . S
C1350 H1375 0.950 . S
C1351 C1350 1.349 . S
C1351 C1367 1.349 . S
C1352 C1350 1.327 . S
C1352 C1371 1.429 . S
C1352 H1376 0.950 . S
C1353 C1370 1.574 . S
C1353 C1372 1.368 . S
C1353 H1377 0.949 . S
H1354 C1358 0.949 . S
C1355 C1356 1.349 . S
C1355 C1357 1.327 . S
C1355 H1378 0.950 . S
C1356 C1355 1.349 . S
C1356 C1368 1.349 . S
C1357 C1355 1.327 . S
C1357 C1373 1.429 . S
C1357 H1379 0.950 . S
C1358 H1354 0.949 . S
C1358 C1366 1.574 . S
C1358 C1374 1.368 . S
H1359 C1367 0.950 . S
H1360 C1365 0.950 . S
H1361 C1366 0.949 . S
H1362 C1368 0.950 . S
H1363 C1369 0.950 . S
H1364 C1370 0.949 . S
C1365 H1360 0.950 . S
C1365 C1367 1.327 . S
C1365 C1371 1.429 . S
C1366 C1358 1.574 . S
C1366 H1361 0.949 . S
C1366 C1372 1.368 . S
C1367 C1351 1.349 . S
C1367 H1359 0.950 . S
C1367 C1365 1.327 . S
C1368 C1356 1.349 . S
C1368 H1362 0.950 . S
C1368 C1369 1.327 . S
C1369 H1363 0.950 . S
C1369 C1368 1.327 . S
C1369 C1373 1.429 . S
C1370 C1353 1.574 . S
C1370 H1364 0.949 . S
C1370 C1374 1.368 . S
C1371 C1352 1.429 . S
C1371 C1365 1.429 . S
C1371 C1372 1.523 . S
C1372 C1353 1.368 . S
C1372 C1366 1.368 . S
C1372 C1371 1.523 . S
C1373 C1357 1.429 . S
C1373 C1369 1.429 . S
C1373 C1374 1.523 . S
C1374 C1358 1.368 . S
C1374 C1370 1.368 . S
C1374 C1373 1.523 . S
H1375 C1350 0.950 . S
H1376 C1352 0.950 . S
H1377 C1353 0.949 . S
H1378 C1355 0.950 . S
H1379 C1357 0.950 . S
C1380 C1381 1.349 . S
C1380 C1382 1.327 . S
C1380 H1405 0.950 . S
C1381 C1380 1.349 . S
C1381 C1397 1.349 . S
C1382 C1380 1.327 . S
C1382 C1401 1.429 . S
C1382 H1406 0.950 . S
C1383 C1400 1.574 . S
C1383 C1402 1.368 1_554 S
C1383 H1407 0.949 . S
H1384 C1388 0.949 . S
C1385 C1386 1.349 . S
C1385 C1387 1.327 . S
C1385 H1408 0.950 . S
C1386 C1385 1.349 . S
C1386 C1398 1.349 . S
C1387 C1385 1.327 . S
C1387 C1403 1.429 . S
C1387 H1409 0.950 . S
C1388 H1384 0.949 . S
C1388 C1396 1.574 . S
C1388 C1404 1.368 1_556 S
H1389 C1397 0.950 . S
H1390 C1395 0.950 . S
H1391 C1396 0.949 . S
H1392 C1398 0.950 . S
H1393 C1399 0.950 . S
H1394 C1400 0.949 . S
C1395 H1390 0.950 . S
C1395 C1397 1.327 . S
C1395 C1401 1.429 . S
C1396 C1388 1.574 . S
C1396 H1391 0.949 . S
C1396 C1402 1.368 . S
C1397 C1381 1.349 . S
C1397 H1389 0.950 . S
C1397 C1395 1.327 . S
C1398 C1386 1.349 . S
C1398 H1392 0.950 . S
C1398 C1399 1.327 . S
C1399 H1393 0.950 . S
C1399 C1398 1.327 . S
C1399 C1403 1.429 . S
C1400 C1383 1.574 . S
C1400 H1394 0.949 . S
C1400 C1404 1.368 . S
C1401 C1382 1.429 . S
C1401 C1395 1.429 . S
C1401 C1402 1.523 . S
C1402 C1383 1.368 1_556 S
C1402 C1396 1.368 . S
C1402 C1401 1.523 . S
C1403 C1387 1.429 . S
C1403 C1399 1.429 . S
C1403 C1404 1.523 . S
C1404 C1388 1.368 1_554 S
C1404 C1400 1.368 . S
C1404 C1403 1.523 . S
H1405 C1380 0.950 . S
H1406 C1382 0.950 . S
H1407 C1383 0.949 . S
H1408 C1385 0.950 . S
H1409 C1387 0.950 . S
C1410 C1411 1.349 . S
C1410 C1412 1.327 . S
C1410 H1435 0.950 . S
C1411 C1410 1.349 . S
C1411 C1427 1.349 . S
C1412 C1410 1.327 . S
C1412 C1431 1.429 . S
C1412 H1436 0.950 . S
C1413 C1430 1.574 . S
C1413 C1432 1.368 . S
C1413 H1437 0.949 . S
H1414 C1418 0.949 . S
C1415 C1416 1.349 . S
C1415 C1417 1.327 . S
C1415 H1438 0.950 . S
C1416 C1415 1.349 . S
C1416 C1428 1.349 . S
C1417 C1415 1.327 . S
C1417 C1433 1.429 . S
C1417 H1439 0.950 . S
C1418 H1414 0.949 . S
C1418 C1426 1.574 . S
C1418 C1434 1.368 . S
H1419 C1427 0.950 . S
H1420 C1425 0.950 . S
H1421 C1426 0.949 . S
H1422 C1428 0.950 . S
H1423 C1429 0.950 . S
H1424 C1430 0.949 . S
C1425 H1420 0.950 . S
C1425 C1427 1.327 . S
C1425 C1431 1.429 . S
C1426 C1418 1.574 . S
C1426 H1421 0.949 . S
C1426 C1432 1.368 1_655 S
C1427 C1411 1.349 . S
C1427 H1419 0.950 . S
C1427 C1425 1.327 . S
C1428 C1416 1.349 . S
C1428 H1422 0.950 . S
C1428 C1429 1.327 . S
C1429 H1423 0.950 . S
C1429 C1428 1.327 . S
C1429 C1433 1.429 . S
C1430 C1413 1.574 . S
C1430 H1424 0.949 . S
C1430 C1434 1.368 1_455 S
C1431 C1412 1.429 . S
C1431 C1425 1.429 . S
C1431 C1432 1.523 . S
C1432 C1413 1.368 . S
C1432 C1426 1.368 1_455 S
C1432 C1431 1.523 . S
C1433 C1417 1.429 . S
C1433 C1429 1.429 . S
C1433 C1434 1.523 . S
C1434 C1418 1.368 . S
C1434 C1430 1.368 1_655 S
C1434 C1433 1.523 . S
H1435 C1410 0.950 . S
H1436 C1412 0.950 . S
H1437 C1413 0.949 . S
H1438 C1415 0.950 . S
H1439 C1417 0.950 . S
C1440 C1441 1.349 . S
C1440 C1442 1.327 . S
C1440 H1465 0.950 . S
C1441 C1440 1.349 . S
C1441 C1457 1.349 . S
C1442 C1440 1.327 . S
C1442 C1461 1.429 . S
C1442 H1466 0.950 . S
C1443 C1460 1.574 . S
C1443 C1462 1.368 1_556 S
C1443 H1467 0.949 . S
H1444 C1448 0.949 . S
C1445 C1446 1.349 . S
C1445 C1447 1.327 . S
C1445 H1468 0.950 . S
C1446 C1445 1.349 . S
C1446 C1458 1.349 . S
C1447 C1445 1.327 . S
C1447 C1463 1.429 . S
C1447 H1469 0.950 . S
C1448 H1444 0.949 . S
C1448 C1456 1.574 . S
C1448 C1464 1.368 1_554 S
H1449 C1457 0.950 . S
H1450 C1455 0.950 . S
H1451 C1456 0.949 . S
H1452 C1458 0.950 . S
H1453 C1459 0.950 . S
H1454 C1460 0.949 . S
C1455 H1450 0.950 . S
C1455 C1457 1.327 . S
C1455 C1461 1.429 . S
C1456 C1448 1.574 . S
C1456 H1451 0.949 . S
C1456 C1462 1.368 1_545 S
C1457 C1441 1.349 . S
C1457 H1449 0.950 . S
C1457 C1455 1.327 . S
C1458 C1446 1.349 . S
C1458 H1452 0.950 . S
C1458 C1459 1.327 . S
C1459 H1453 0.950 . S
C1459 C1458 1.327 . S
C1459 C1463 1.429 . S
C1460 C1443 1.574 . S
C1460 H1454 0.949 . S
C1460 C1464 1.368 1_565 S
C1461 C1442 1.429 . S
C1461 C1455 1.429 . S
C1461 C1462 1.523 . S
C1462 C1443 1.368 1_554 S
C1462 C1456 1.368 1_565 S
C1462 C1461 1.523 . S
C1463 C1447 1.429 . S
C1463 C1459 1.429 . S
C1463 C1464 1.523 . S
C1464 C1448 1.368 1_556 S
C1464 C1460 1.368 1_545 S
C1464 C1463 1.523 . S
H1465 C1440 0.950 . S
H1466 C1442 0.950 . S
H1467 C1443 0.949 . S
H1468 C1445 0.950 . S
H1469 C1447 0.950 . S
C1470 C1471 1.349 . S
C1470 C1472 1.327 . S
C1470 H1495 0.950 . S
C1471 C1470 1.349 . S
C1471 C1487 1.349 . S
C1472 C1470 1.327 . S
C1472 C1491 1.429 . S
C1472 H1496 0.950 . S
C1473 C1490 1.574 . S
C1473 C1492 1.368 . S
C1473 H1497 0.949 . S
H1474 C1478 0.949 . S
C1475 C1476 1.349 . S
C1475 C1477 1.327 . S
C1475 H1498 0.950 . S
C1476 C1475 1.349 . S
C1476 C1488 1.349 . S
C1477 C1475 1.327 . S
C1477 C1493 1.429 . S
C1477 H1499 0.950 . S
C1478 H1474 0.949 . S
C1478 C1486 1.574 . S
C1478 C1494 1.368 . S
H1479 C1487 0.950 . S
H1480 C1485 0.950 . S
H1481 C1486 0.949 . S
H1482 C1488 0.950 . S
H1483 C1489 0.950 . S
H1484 C1490 0.949 . S
C1485 H1480 0.950 . S
C1485 C1487 1.327 . S
C1485 C1491 1.429 . S
C1486 C1478 1.574 . S
C1486 H1481 0.949 . S
C1486 C1492 1.368 . S
C1487 C1471 1.349 . S
C1487 H1479 0.950 . S
C1487 C1485 1.327 . S
C1488 C1476 1.349 . S
C1488 H1482 0.950 . S
C1488 C1489 1.327 . S
C1489 H1483 0.950 . S
C1489 C1488 1.327 . S
C1489 C1493 1.429 . S
C1490 C1473 1.574 . S
C1490 H1484 0.949 . S
C1490 C1494 1.368 . S
C1491 C1472 1.429 . S
C1491 C1485 1.429 . S
C1491 C1492 1.523 . S
C1492 C1473 1.368 . S
C1492 C1486 1.368 . S
C1492 C1491 1.523 . S
C1493 C1477 1.429 . S
C1493 C1489 1.429 . S
C1493 C1494 1.523 . S
C1494 C1478 1.368 . S
C1494 C1490 1.368 . S
C1494 C1493 1.523 . S
H1495 C1470 0.950 . S
H1496 C1472 0.950 . S
H1497 C1473 0.949 . S
H1498 C1475 0.950 . S
H1499 C1477 0.950 . S
C1500 C1501 1.349 . S
C1500 C1502 1.327 . S
C1500 H1525 0.950 . S
C1501 C1500 1.349 . S
C1501 C1517 1.349 . S
C1502 C1500 1.327 . S
C1502 C1521 1.429 . S
C1502 H1526 0.950 . S
C1503 C1520 1.574 1_656 S
C1503 C1522 1.368 . S
C1503 H1527 0.949 . S
H1504 C1508 0.949 . S
C1505 C1506 1.349 . S
C1505 C1507 1.327 . S
C1505 H1528 0.950 . S
C1506 C1505 1.349 . S
C1506 C1518 1.349 . S
C1507 C1505 1.327 . S
C1507 C1523 1.429 . S
C1507 H1529 0.950 . S
C1508 H1504 0.949 . S
C1508 C1516 1.574 1_454 S
C1508 C1524 1.368 . S
H1509 C1517 0.950 . S
H1510 C1515 0.950 . S
H1511 C1516 0.949 . S
H1512 C1518 0.950 . S
H1513 C1519 0.950 . S
H1514 C1520 0.949 . S
C1515 H1510 0.950 . S
C1515 C1517 1.327 . S
C1515 C1521 1.429 . S
C1516 C1508 1.574 1_656 S
C1516 H1511 0.949 . S
C1516 C1522 1.368 . S
C1517 C1501 1.349 . S
C1517 H1509 0.950 . S
C1517 C1515 1.327 . S
C1518 C1506 1.349 . S
C1518 H1512 0.950 . S
C1518 C1519 1.327 . S
C1519 H1513 0.950 . S
C1519 C1518 1.327 . S
C1519 C1523 1.429 . S
C1520 C1503 1.574 1_454 S
C1520 H1514 0.949 . S
C1520 C1524 1.368 . S
C1521 C1502 1.429 . S
C1521 C1515 1.429 . S
C1521 C1522 1.523 . S
C1522 C1503 1.368 . S
C1522 C1516 1.368 . S
C1522 C1521 1.523 . S
C1523 C1507 1.429 . S
C1523 C1519 1.429 . S
C1523 C1524 1.523 . S
C1524 C1508 1.368 . S
C1524 C1520 1.368 . S
C1524 C1523 1.523 . S
H1525 C1500 0.950 . S
H1526 C1502 0.950 . S
H1527 C1503 0.949 . S
H1528 C1505 0.950 . S
H1529 C1507 0.950 . S
C1530 C1531 1.349 . S
C1530 C1532 1.327 . S
C1530 H1555 0.950 . S
C1531 C1530 1.349 . S
C1531 C1547 1.349 . S
C1532 C1530 1.327 . S
C1532 C1551 1.429 . S
C1532 H1556 0.950 . S
C1533 C1550 1.574 . S
C1533 C1552 1.368 . S
C1533 H1557 0.949 . S
H1534 C1538 0.949 . S
C1535 C1536 1.349 . S
C1535 C1537 1.327 . S
C1535 H1558 0.950 . S
C1536 C1535 1.349 . S
C1536 C1548 1.349 . S
C1537 C1535 1.327 . S
C1537 C1553 1.429 . S
C1537 H1559 0.950 . S
C1538 H1534 0.949 . S
C1538 C1546 1.574 . S
C1538 C1554 1.368 . S
H1539 C1547 0.950 . S
H1540 C1545 0.950 . S
H1541 C1546 0.949 . S
H1542 C1548 0.950 . S
H1543 C1549 0.950 . S
H1544 C1550 0.949 . S
C1545 H1540 0.950 . S
C1545 C1547 1.327 . S
C1545 C1551 1.429 . S
C1546 C1538 1.574 . S
C1546 H1541 0.949 . S
C1546 C1552 1.368 1_545 S
C1547 C1531 1.349 . S
C1547 H1539 0.950 . S
C1547 C1545 1.327 . S
C1548 C1536 1.349 . S
C1548 H1542 0.950 . S
C1548 C1549 1.327 . S
C1549 H1543 0.950 . S
C1549 C1548 1.327 . S
C1549 C1553 1.429 . S
C1550 C1533 1.574 . S
C1550 H1544 0.949 . S
C1550 C1554 1.368 1_565 S
C1551 C1532 1.429 . S
C1551 C1545 1.429 . S
C1551 C1552 1.523 . S
C1552 C1533 1.368 . S
C1552 C1546 1.368 1_565 S
C1552 C1551 1.523 . S
C1553 C1537 1.429 . S
C1553 C1549 1.429 . S
C1553 C1554 1.523 . S
C1554 C1538 1.368 . S
C1554 C1550 1.368 1_545 S
C1554 C1553 1.523 . S
H1555 C1530 0.950 . S
H1556 C1532 0.950 . S
H1557 C1533 0.949 . S
H1558 C1535 0.950 . S
H1559 C1537 0.950 . S
C481 C163 1.238 . S
C486 C26 1.246 . S
C511 C203 1.237 . S
C516 C66 1.246 . S
C541 C106 1.246 . S
C546 C3 1.238 . S
C571 C146 1.246 . S
C576 C43 1.237 . S
C601 C186 1.246 . S
C606 C83 1.238 . S
C631 C123 1.238 . S
C636 C226 1.246 . S
C661 C323 1.238 . S
C666 C266 1.246 . S
C691 C306 1.246 . S
C696 C363 1.238 . S
C721 C403 1.238 . S
C726 C346 1.246 . S
C751 C386 1.246 . S
C756 C443 1.237 . S
C781 C426 1.246 . S
C786 C243 1.238 . S
C811 C283 1.237 . S
C816 C466 1.246 . S
C841 C182 1.733 . S
C846 C9 1.699 . S
C871 C49 1.699 . S
C876 C222 1.733 . S
C901 C89 1.699 . S
C906 C22 1.733 . S
C931 C129 1.699 . S
C936 C62 1.733 . S
C961 C102 1.733 . S
C966 C169 1.699 . S
C991 C142 1.733 . S
C996 C209 1.699 . S
C1021 C342 1.733 . S
C1026 C249 1.699 . S
C1051 C289 1.699 . S
C1056 C382 1.733 . S
C1081 C329 1.699 . S
C1086 C422 1.733 . S
C1111 C462 1.733 . S
C1116 C369 1.699 . S
C1141 C409 1.699 . S
C1146 C262 1.733 . S
C1171 C302 1.733 . S
C1176 C449 1.699 . S
C1201 C415 1.675 . S
C1206 C15 1.675 . S
C1231 C55 1.675 . S
C1236 C455 1.675 . S
C1261 C95 1.675 . S
C1266 C255 1.675 . S
C1291 C135 1.675 . S
C1296 C295 1.675 . S
C1321 C175 1.675 . S
C1326 C335 1.675 . S
C1351 C375 1.675 . S
C1356 C215 1.675 . S
C1381 C362 2.077 . S
C1386 C2 2.077 . S
C1411 C402 2.077 . S
C1416 C42 2.077 . S
C1441 C82 2.077 . S
C1446 C442 2.077 . S
C1471 C122 2.077 . S
C1476 C242 2.077 . S
C1501 C282 2.077 . S
C1506 C162 2.077 . S
C1531 C322 2.077 . S
C1536 C202 2.077 . S
