# Generated by pormake.
# Topology wmc, (6)-cn, num edge types: 1
# Building blocks:
#     Node 0, Type 0, BuildingBlock: IZENUY_clean_sbu_0, # of connection points: 6
#     Node 1, Type 0, BuildingBlock: IZENUY_clean_sbu_0, # of connection points: 6
#     Node 2, Type 0, BuildingBlock: IZENUY_clean_sbu_0, # of connection points: 6
#     Node 3, Type 0, BuildingBlock: IZENUY_clean_sbu_0, # of connection points: 6
#     Node 4, Type 0, BuildingBlock: IZENUY_clean_sbu_0, # of connection points: 6
#     Node 5, Type 0, BuildingBlock: IZENUY_clean_sbu_0, # of connection points: 6
#     Node 6, Type 0, BuildingBlock: IZENUY_clean_sbu_0, # of connection points: 6
#     Node 7, Type 0, BuildingBlock: IZENUY_clean_sbu_0, # of connection points: 6
#     Node 8, Type 0, BuildingBlock: IZENUY_clean_sbu_0, # of connection points: 6
#     Node 9, Type 0, BuildingBlock: IZENUY_clean_sbu_0, # of connection points: 6
#     Node 10, Type 0, BuildingBlock: IZENUY_clean_sbu_0, # of connection points: 6
#     Node 11, Type 0, BuildingBlock: IZENUY_clean_sbu_0, # of connection points: 6
#     Node 12, Type 0, BuildingBlock: IZENUY_clean_sbu_0, # of connection points: 6
#     Node 13, Type 0, BuildingBlock: IZENUY_clean_sbu_0, # of connection points: 6
#     Node 14, Type 0, BuildingBlock: IZENUY_clean_sbu_0, # of connection points: 6
#     Node 15, Type 0, BuildingBlock: IZENUY_clean_sbu_0, # of connection points: 6
#     Node 16, Type 0, BuildingBlock: IZENUY_clean_sbu_0, # of connection points: 6
#     Node 17, Type 0, BuildingBlock: IZENUY_clean_sbu_0, # of connection points: 6
#     Edge 18, Type (0, 0), BuildingBlock: UVAHIK_clean_linker_0, # of connection points: 2
#     Edge 19, Type (0, 0), BuildingBlock: UVAHIK_clean_linker_0, # of connection points: 2
#     Edge 20, Type (0, 0), BuildingBlock: UVAHIK_clean_linker_0, # of connection points: 2
#     Edge 21, Type (0, 0), BuildingBlock: UVAHIK_clean_linker_0, # of connection points: 2
#     Edge 22, Type (0, 0), BuildingBlock: UVAHIK_clean_linker_0, # of connection points: 2
#     Edge 23, Type (0, 0), BuildingBlock: UVAHIK_clean_linker_0, # of connection points: 2
#     Edge 24, Type (0, 0), BuildingBlock: UVAHIK_clean_linker_0, # of connection points: 2
#     Edge 25, Type (0, 0), BuildingBlock: UVAHIK_clean_linker_0, # of connection points: 2
#     Edge 26, Type (0, 0), BuildingBlock: UVAHIK_clean_linker_0, # of connection points: 2
#     Edge 27, Type (0, 0), BuildingBlock: UVAHIK_clean_linker_0, # of connection points: 2
#     Edge 28, Type (0, 0), BuildingBlock: UVAHIK_clean_linker_0, # of connection points: 2
#     Edge 29, Type (0, 0), BuildingBlock: UVAHIK_clean_linker_0, # of connection points: 2
#     Edge 30, Type (0, 0), BuildingBlock: UVAHIK_clean_linker_0, # of connection points: 2
#     Edge 31, Type (0, 0), BuildingBlock: UVAHIK_clean_linker_0, # of connection points: 2
#     Edge 32, Type (0, 0), BuildingBlock: UVAHIK_clean_linker_0, # of connection points: 2
#     Edge 33, Type (0, 0), BuildingBlock: UVAHIK_clean_linker_0, # of connection points: 2
#     Edge 34, Type (0, 0), BuildingBlock: UVAHIK_clean_linker_0, # of connection points: 2
#     Edge 35, Type (0, 0), BuildingBlock: UVAHIK_clean_linker_0, # of connection points: 2
#     Edge 36, Type (0, 0), BuildingBlock: UVAHIK_clean_linker_0, # of connection points: 2
#     Edge 37, Type (0, 0), BuildingBlock: UVAHIK_clean_linker_0, # of connection points: 2
#     Edge 38, Type (0, 0), BuildingBlock: UVAHIK_clean_linker_0, # of connection points: 2
#     Edge 39, Type (0, 0), BuildingBlock: UVAHIK_clean_linker_0, # of connection points: 2
#     Edge 40, Type (0, 0), BuildingBlock: UVAHIK_clean_linker_0, # of connection points: 2
#     Edge 41, Type (0, 0), BuildingBlock: UVAHIK_clean_linker_0, # of connection points: 2
#     Edge 42, Type (0, 0), BuildingBlock: UVAHIK_clean_linker_0, # of connection points: 2
#     Edge 43, Type (0, 0), BuildingBlock: UVAHIK_clean_linker_0, # of connection points: 2
#     Edge 44, Type (0, 0), BuildingBlock: UVAHIK_clean_linker_0, # of connection points: 2
#     Edge 45, Type (0, 0), BuildingBlock: UVAHIK_clean_linker_0, # of connection points: 2
#     Edge 46, Type (0, 0), BuildingBlock: UVAHIK_clean_linker_0, # of connection points: 2
#     Edge 47, Type (0, 0), BuildingBlock: UVAHIK_clean_linker_0, # of connection points: 2
#     Edge 48, Type (0, 0), BuildingBlock: UVAHIK_clean_linker_0, # of connection points: 2
#     Edge 49, Type (0, 0), BuildingBlock: UVAHIK_clean_linker_0, # of connection points: 2
#     Edge 50, Type (0, 0), BuildingBlock: UVAHIK_clean_linker_0, # of connection points: 2
#     Edge 51, Type (0, 0), BuildingBlock: UVAHIK_clean_linker_0, # of connection points: 2
#     Edge 52, Type (0, 0), BuildingBlock: UVAHIK_clean_linker_0, # of connection points: 2
#     Edge 53, Type (0, 0), BuildingBlock: UVAHIK_clean_linker_0, # of connection points: 2
#     Edge 54, Type (0, 0), BuildingBlock: UVAHIK_clean_linker_0, # of connection points: 2
#     Edge 55, Type (0, 0), BuildingBlock: UVAHIK_clean_linker_0, # of connection points: 2
#     Edge 56, Type (0, 0), BuildingBlock: UVAHIK_clean_linker_0, # of connection points: 2
#     Edge 57, Type (0, 0), BuildingBlock: UVAHIK_clean_linker_0, # of connection points: 2
#     Edge 58, Type (0, 0), BuildingBlock: UVAHIK_clean_linker_0, # of connection points: 2
#     Edge 59, Type (0, 0), BuildingBlock: UVAHIK_clean_linker_0, # of connection points: 2
#     Edge 60, Type (0, 0), BuildingBlock: UVAHIK_clean_linker_0, # of connection points: 2
#     Edge 61, Type (0, 0), BuildingBlock: UVAHIK_clean_linker_0, # of connection points: 2
#     Edge 62, Type (0, 0), BuildingBlock: UVAHIK_clean_linker_0, # of connection points: 2
#     Edge 63, Type (0, 0), BuildingBlock: UVAHIK_clean_linker_0, # of connection points: 2
#     Edge 64, Type (0, 0), BuildingBlock: UVAHIK_clean_linker_0, # of connection points: 2
#     Edge 65, Type (0, 0), BuildingBlock: UVAHIK_clean_linker_0, # of connection points: 2
#     Edge 66, Type (0, 0), BuildingBlock: UVAHIK_clean_linker_0, # of connection points: 2
#     Edge 67, Type (0, 0), BuildingBlock: UVAHIK_clean_linker_0, # of connection points: 2
#     Edge 68, Type (0, 0), BuildingBlock: UVAHIK_clean_linker_0, # of connection points: 2
#     Edge 69, Type (0, 0), BuildingBlock: UVAHIK_clean_linker_0, # of connection points: 2
#     Edge 70, Type (0, 0), BuildingBlock: UVAHIK_clean_linker_0, # of connection points: 2
#     Edge 71, Type (0, 0), BuildingBlock: UVAHIK_clean_linker_0, # of connection points: 2
# Relax obj value: 0.350
# Max RMSD: 0.273
# Mean RMSD: 0.273
data_MOF--net-wmc--node1-IZENUY_clean_sbu_0--edge1-UVAHIK_clean_linker_0
_symmetry_space_group_name_H-M    P1
_symmetry_Int_Tables_number       1
_symmetry_cell_setting            triclinic
loop_
_symmetry_equiv_pos_as_xyz
'x, y, z'
_cell_length_a     58.447186
_cell_length_b     58.454205
_cell_length_c     37.877616
_cell_angle_alpha  89.915965
_cell_angle_beta   90.231042
_cell_angle_gamma 119.92019
loop_
_atom_site_label
_atom_site_type_symbol
_atom_site_fract_x
_atom_site_fract_y
_atom_site_fract_z
_atom_type_partial_charge
Fe0 Fe 0.66644 0.13674 0.98103 0.0
Fe1 Fe 0.61227 0.12528 0.00836 0.0
O2 O 0.64705 0.14449 0.00944 0.0
Fe3 Fe 0.66233 0.17165 0.03845 0.0
O4 O 0.67722 0.19383 0.00192 0.0
O5 O 0.69354 0.17143 0.97635 0.0
O6 O 0.65142 0.14208 0.94235 0.0
C7 C 0.62691 0.13046 0.93639 0.0
C8 C 0.69689 0.14991 0.04054 0.0
O9 O 0.61039 0.1185 0.96077 0.0
C10 C 0.62383 0.13573 0.08126 0.0
O11 O 0.64184 0.1005 0.9792 0.0
O12 O 0.61395 0.09623 0.02015 0.0
O13 O 0.69175 0.16836 0.04575 0.0
O14 O 0.68363 0.13175 0.01822 0.0
C15 C 0.61858 0.17475 0.01233 0.0
O16 O 0.60783 0.12908 0.05556 0.0
O17 O 0.64818 0.15093 0.07672 0.0
C18 C 0.6216 0.08569 0.99783 0.0
O19 O 0.60883 0.15316 0.99614 0.0
O20 O 0.63587 0.18024 0.03616 0.0
C21 C 0.69305 0.19275 0.98055 0.0
Fe22 Fe 0.91627 0.54212 0.98022 0.0
Fe23 Fe 0.93278 0.50419 0.01217 0.0
O24 O 0.91137 0.51734 0.01143 0.0
Fe25 Fe 0.8851 0.50563 0.04159 0.0
O26 O 0.86154 0.49464 0.00602 0.0
O27 O 0.88071 0.53178 0.97629 0.0
O28 O 0.91122 0.51987 0.94406 0.0
C29 C 0.92475 0.50877 0.93925 0.0
C30 C 0.90321 0.56112 0.0378 0.0
O31 O 0.9384 0.50704 0.96412 0.0
C32 C 0.92324 0.50764 0.08479 0.0
O33 O 0.9529 0.55611 0.97724 0.0
O34 O 0.96023 0.53665 0.02118 0.0
O35 O 0.88602 0.5375 0.04539 0.0
O36 O 0.92081 0.56587 0.01481 0.0
C37 C 0.88543 0.45931 0.02072 0.0
O38 O 0.93047 0.49825 0.05994 0.0
O39 O 0.90724 0.51574 0.07913 0.0
C40 C 0.9692 0.55334 0.99676 0.0
O41 O 0.90637 0.47127 0.0032 0.0
O42 O 0.87911 0.47151 0.04276 0.0
C43 C 0.86072 0.50931 0.9824 0.0
Fe44 Fe 0.50883 0.38934 0.98526 0.0
Fe45 Fe 0.55529 0.43623 0.02348 0.0
O46 O 0.53372 0.40179 0.01842 0.0
Fe47 Fe 0.5382 0.37983 0.04619 0.0
O48 O 0.52712 0.35322 0.01429 0.0
O49 O 0.52241 0.37018 0.96505 0.0
O50 O 0.52835 0.41529 0.95341 0.0
C51 C 0.55274 0.43198 0.95126 0.0
C52 C 0.48455 0.35424 0.04459 0.0
O53 O 0.56746 0.43937 0.97836 0.0
C54 C 0.54547 0.42059 0.09229 0.0
O55 O 0.49378 0.40859 0.00116 0.0
O56 O 0.53142 0.44551 0.00945 0.0
O57 O 0.50504 0.36594 0.06364 0.0
O58 O 0.48512 0.36059 0.0122 0.0
C59 C 0.58935 0.41611 0.02999 0.0
O60 O 0.5443 0.43531 0.06872 0.0
O61 O 0.54979 0.40213 0.08407 0.0
C62 C 0.50679 0.43355 0.00495 0.0
O63 O 0.5835 0.43344 0.03823 0.0
O64 O 0.57163 0.39209 0.02937 0.0
C65 C 0.52645 0.35363 0.98118 0.0
Fe66 Fe 0.92325 0.43541 0.5123 0.0
Fe67 Fe 0.87815 0.38406 0.5417 0.0
O68 O 0.90472 0.40052 0.51212 0.0
Fe69 Fe 0.91259 0.38209 0.482 0.0
O70 O 0.90604 0.39736 0.44467 0.0
O71 O 0.92896 0.43821 0.46441 0.0
O72 O 0.89471 0.43846 0.50254 0.0
C73 C 0.87336 0.42768 0.51928 0.0
C74 C 0.9634 0.42744 0.49837 0.0
O75 O 0.86843 0.40961 0.54154 0.0
C76 C 0.9016 0.35112 0.54062 0.0
O77 O 0.92035 0.43881 0.55999 0.0
O78 O 0.89938 0.39806 0.5797 0.0
O79 O 0.94854 0.40732 0.47951 0.0
O80 O 0.95305 0.43443 0.52183 0.0
C81 C 0.85664 0.35429 0.48287 0.0
O82 O 0.88265 0.35525 0.54698 0.0
O83 O 0.91896 0.36481 0.51774 0.0
C84 C 0.91423 0.42239 0.585 0.0
O85 O 0.85541 0.36927 0.50559 0.0
O86 O 0.87814 0.35441 0.47754 0.0
C87 C 0.91709 0.42195 0.4396 0.0
Fe88 Fe 0.61307 0.49268 0.52334 0.0
Fe89 Fe 0.66945 0.50846 0.545 0.0
O90 O 0.64755 0.51333 0.51755 0.0
Fe91 Fe 0.6601 0.53767 0.48383 0.0
O92 O 0.63332 0.51843 0.45269 0.0
O93 O 0.60885 0.47988 0.47841 0.0
O94 O 0.61501 0.464 0.53815 0.0
C95 C 0.63185 0.45744 0.53 0.0
C96 C 0.61729 0.54181 0.50444 0.0
O97 O 0.65601 0.47468 0.52891 0.0
C98 C 0.69653 0.56201 0.54209 0.0
O99 O 0.61501 0.50426 0.56844 0.0
O100 O 0.64777 0.49799 0.58352 0.0
O101 O 0.6422 0.55404 0.50004 0.0
O102 O 0.60469 0.51722 0.50936 0.0
C103 C 0.694 0.51791 0.47921 0.0
O104 O 0.68452 0.54196 0.56171 0.0
O105 O 0.68975 0.56107 0.5098 0.0
C106 C 0.62944 0.50246 0.59194 0.0
O107 O 0.69539 0.51824 0.51232 0.0
O108 O 0.67772 0.52255 0.46345 0.0
C109 C 0.61612 0.49418 0.45102 0.0
Fe110 Fe 0.54436 0.11621 0.50773 0.0
Fe111 Fe 0.54415 0.16489 0.53557 0.0
O112 O 0.53093 0.13736 0.50734 0.0
Fe113 Fe 0.50432 0.13104 0.47853 0.0
O114 O 0.52441 0.13461 0.44044 0.0
O115 O 0.5392 0.10888 0.46008 0.0
O116 O 0.57677 0.14238 0.49578 0.0
C117 C 0.58948 0.16385 0.51212 0.0
C118 C 0.49471 0.07891 0.49678 0.0
O119 O 0.5782 0.17079 0.53475 0.0
C120 C 0.48861 0.14722 0.53629 0.0
O121 O 0.55248 0.12036 0.55502 0.0
O122 O 0.5358 0.14433 0.57448 0.0
O123 O 0.49043 0.09433 0.47749 0.0
O124 O 0.51255 0.08898 0.51973 0.0
C125 C 0.53718 0.18668 0.47623 0.0
O126 O 0.51268 0.16451 0.54114 0.0
O127 O 0.48256 0.12797 0.51542 0.0
C128 C 0.54404 0.12842 0.58012 0.0
O129 O 0.55334 0.18673 0.49826 0.0
O130 O 0.51438 0.16645 0.47273 0.0
C131 C 0.53575 0.12136 0.43512 0.0
Fe132 Fe 0.32716 0.46312 0.31779 0.0
Fe133 Fe 0.27944 0.46042 0.35629 0.0
O134 O 0.31401 0.47445 0.35126 0.0
Fe135 Fe 0.3354 0.50098 0.3792 0.0
O136 O 0.36164 0.51753 0.34709 0.0
O137 O 0.34474 0.49604 0.29779 0.0
O138 O 0.30065 0.4557 0.28618 0.0
C139 C 0.28345 0.46278 0.28412 0.0
C140 C 0.36303 0.47501 0.37685 0.0
O141 O 0.27575 0.46953 0.31133 0.0
C142 C 0.29518 0.46625 0.42513 0.0
O143 O 0.30921 0.42867 0.33354 0.0
O144 O 0.27146 0.42777 0.34188 0.0
O145 O 0.3505 0.48262 0.39615 0.0
O146 O 0.3567 0.46938 0.34439 0.0
C147 C 0.29766 0.51417 0.36374 0.0
O148 O 0.28095 0.4503 0.40133 0.0
O149 O 0.31327 0.48926 0.41718 0.0
C150 C 0.28422 0.4159 0.33733 0.0
O151 O 0.28091 0.4907 0.37148 0.0
O152 O 0.32187 0.52126 0.36293 0.0
C153 C 0.36048 0.51691 0.31397 0.0
Fe154 Fe 0.58036 0.87038 0.30956 0.0
Fe155 Fe 0.58314 0.82426 0.34491 0.0
O156 O 0.56956 0.84546 0.34258 0.0
Fe157 Fe 0.54427 0.8407 0.37259 0.0
O158 O 0.52642 0.85003 0.34171 0.0
O159 O 0.54709 0.85615 0.2912 0.0
O160 O 0.58635 0.85129 0.2764 0.0
C161 C 0.57833 0.82687 0.27336 0.0
C162 C 0.57023 0.89438 0.36975 0.0
O163 O 0.57208 0.81212 0.30024 0.0
C164 C 0.58067 0.83394 0.41478 0.0
O165 O 0.61508 0.88602 0.32399 0.0
O166 O 0.61546 0.84866 0.32898 0.0
O167 O 0.56318 0.87429 0.38902 0.0
O168 O 0.57535 0.89374 0.33722 0.0
C169 C 0.52955 0.78929 0.35659 0.0
O170 O 0.59515 0.83504 0.38944 0.0
O171 O 0.55781 0.83066 0.40938 0.0
C172 C 0.62759 0.87341 0.32574 0.0
O173 O 0.55332 0.79556 0.36127 0.0
O174 O 0.52298 0.80679 0.35742 0.0
C175 C 0.52665 0.85081 0.30851 0.0
Fe176 Fe 0.17203 0.71477 0.30785 0.0
Fe177 Fe 0.2135 0.76933 0.336 0.0
O178 O 0.19845 0.73458 0.33722 0.0
Fe179 Fe 0.20996 0.71969 0.3675 0.0
O180 O 0.21852 0.70507 0.33198 0.0
O181 O 0.18039 0.68809 0.30443 0.0
O182 O 0.19304 0.72982 0.27006 0.0
C183 C 0.2056 0.75427 0.26388 0.0
C184 C 0.15388 0.68465 0.36725 0.0
O185 O 0.20942 0.77092 0.28791 0.0
C186 C 0.2116 0.75823 0.40925 0.0
O187 O 0.15983 0.73886 0.30461 0.0
O188 O 0.1823 0.76702 0.34616 0.0
O189 O 0.17739 0.68998 0.37363 0.0
O190 O 0.14924 0.6976 0.34414 0.0
C191 C 0.257 0.76405 0.34338 0.0
O192 O 0.221 0.77407 0.3835 0.0
O193 O 0.20223 0.73381 0.40485 0.0
C194 C 0.16431 0.7588 0.32332 0.0
O195 O 0.24534 0.77341 0.32576 0.0
O196 O 0.24477 0.7464 0.3665 0.0
C197 C 0.20258 0.68953 0.30938 0.0
Fe198 Fe 0.5816 0.71733 0.81005 0.0
Fe199 Fe 0.59645 0.77095 0.84374 0.0
O200 O 0.57467 0.7367 0.83971 0.0
Fe201 Fe 0.54578 0.72156 0.86521 0.0
O202 O 0.52591 0.71181 0.82572 0.0
O203 O 0.54626 0.69295 0.80128 0.0
O204 O 0.58014 0.73593 0.77275 0.0
C205 C 0.59347 0.76075 0.76981 0.0
C206 C 0.56276 0.68338 0.86581 0.0
O207 O 0.60487 0.77547 0.79631 0.0
C208 C 0.58094 0.75394 0.91455 0.0
O209 O 0.61833 0.73936 0.81156 0.0
O210 O 0.62281 0.76483 0.85566 0.0
O211 O 0.5451 0.68988 0.8686 0.0
O212 O 0.58276 0.6968 0.84622 0.0
C213 C 0.54932 0.7699 0.84624 0.0
O214 O 0.59098 0.77218 0.89159 0.0
O215 O 0.5643 0.73067 0.90583 0.0
C216 C 0.63337 0.75818 0.83215 0.0
O217 O 0.57142 0.77893 0.83177 0.0
O218 O 0.54088 0.7503 0.8668 0.0
C219 C 0.52625 0.69606 0.80344 0.0
Fe220 Fe 0.28139 0.82988 0.83568 0.0
Fe221 Fe 0.33381 0.83672 0.86153 0.0
O222 O 0.31621 0.84792 0.83569 0.0
Fe223 Fe 0.33335 0.87685 0.8094 0.0
O224 O 0.31876 0.85811 0.76934 0.0
O225 O 0.27801 0.83691 0.78929 0.0
O226 O 0.28059 0.80054 0.81935 0.0
C227 C 0.29186 0.78934 0.83357 0.0
C228 C 0.28661 0.87782 0.83165 0.0
O229 O 0.30933 0.80115 0.85716 0.0
C230 C 0.36459 0.89305 0.86824 0.0
O231 O 0.27845 0.81911 0.88189 0.0
O232 O 0.31919 0.83989 0.90188 0.0
O233 O 0.30676 0.88571 0.81183 0.0
O234 O 0.28036 0.85843 0.85166 0.0
C235 C 0.36353 0.85148 0.80199 0.0
O236 O 0.36165 0.87005 0.87044 0.0
O237 O 0.34994 0.89757 0.8479 0.0
C238 C 0.2947 0.8284 0.90733 0.0
O239 O 0.34925 0.83293 0.82261 0.0
O240 O 0.36214 0.87246 0.80119 0.0
C241 C 0.29425 0.84385 0.76401 0.0
Fe242 Fe 0.17676 0.46418 0.81679 0.0
Fe243 Fe 0.22319 0.46369 0.85517 0.0
O244 O 0.2017 0.47668 0.84985 0.0
Fe245 Fe 0.2063 0.50333 0.87716 0.0
O246 O 0.19528 0.51876 0.84481 0.0
O247 O 0.19061 0.49676 0.796 0.0
O248 O 0.19601 0.45719 0.78526 0.0
C249 C 0.22035 0.46467 0.78297 0.0
C250 C 0.15272 0.47588 0.87556 0.0
O251 O 0.2352 0.47223 0.80992 0.0
C252 C 0.21399 0.4702 0.92393 0.0
O253 O 0.16155 0.43001 0.83338 0.0
O254 O 0.19912 0.43048 0.8418 0.0
O255 O 0.17315 0.48437 0.89471 0.0
O256 O 0.15323 0.46975 0.84335 0.0
C257 C 0.25739 0.51786 0.86083 0.0
O258 O 0.21241 0.4541 0.90051 0.0
O259 O 0.21794 0.49281 0.91539 0.0
C260 C 0.17446 0.41793 0.83749 0.0
O261 O 0.25158 0.49472 0.86932 0.0
O262 O 0.23968 0.52421 0.86015 0.0
C263 C 0.19482 0.51753 0.8117 0.0
Fe264 Fe 0.99536 0.80122 0.64228 0.0
Fe265 Fe 0.94693 0.79953 0.67642 0.0
O266 O 0.98148 0.8122 0.67509 0.0
Fe267 Fe 1.00225 0.83695 0.70564 0.0
O268 O 0.02995 0.85406 0.67539 0.0
O269 O 1.01416 0.83466 0.62444 0.0
O270 O 0.97047 0.79535 0.60881 0.0
C271 C 0.9551 0.80456 0.60511 0.0
C272 C 1.02846 0.80965 0.70321 0.0
O273 O 0.94653 0.81096 0.6317 0.0
C274 C 0.95822 0.80145 0.74659 0.0
O275 O 0.9761 0.7666 0.65671 0.0
O276 O 0.93862 0.767 0.66054 0.0
O277 O 1.01548 0.81677 0.72237 0.0
O278 O 1.02352 0.80585 0.67027 0.0
C279 C 0.96702 0.85338 0.68873 0.0
O280 O 0.94502 0.78726 0.72086 0.0
O281 O 0.97823 0.82406 0.74174 0.0
C282 C 0.95101 0.75449 0.65862 0.0
O283 O 0.94889 0.8298 0.6927 0.0
O284 O 0.99087 0.85921 0.6901 0.0
C285 C 0.02967 0.85478 0.64216 0.0
Fe286 Fe 0.24541 0.203 0.64466 0.0
Fe287 Fe 0.24368 0.15456 0.67932 0.0
O288 O 0.2328 0.17789 0.67725 0.0
Fe289 Fe 0.208 0.17497 0.7068 0.0
O290 O 0.19264 0.18737 0.67604 0.0
O291 O 0.21234 0.19016 0.62585 0.0
O292 O 0.25023 0.18315 0.61146 0.0
C293 C 0.24003 0.15844 0.60783 0.0
C294 C 0.23738 0.22826 0.70539 0.0
O295 O 0.23247 0.14334 0.63439 0.0
C296 C 0.24144 0.1642 0.74915 0.0
O297 O 0.27986 0.21645 0.65983 0.0
O298 O 0.27683 0.17734 0.66422 0.0
O299 O 0.22929 0.20782 0.72423 0.0
O300 O 0.2419 0.22738 0.6726 0.0
C301 C 0.18941 0.12311 0.68919 0.0
O302 O 0.25564 0.16436 0.72404 0.0
O303 O 0.21921 0.16236 0.74338 0.0
C304 C 0.29063 0.20213 0.66201 0.0
O305 O 0.21244 0.12733 0.69499 0.0
O306 O 0.18473 0.14195 0.69023 0.0
C307 C 0.19231 0.18658 0.64284 0.0
Fe308 Fe 0.84262 0.05157 0.64358 0.0
Fe309 Fe 0.89331 0.09636 0.67722 0.0
O310 O 0.86893 0.06255 0.67451 0.0
Fe311 Fe 0.87157 0.03925 0.70184 0.0
O312 O 0.85646 1.01217 0.67022 0.0
O313 O 0.85381 0.03098 0.62164 0.0
O314 O 0.86148 0.07666 0.61049 0.0
C315 C 0.88598 0.09132 0.60557 0.0
C316 C 0.81866 1.0178 0.70421 0.0
O317 O 0.90214 0.09758 0.63088 0.0
C318 C 0.88698 0.08285 0.74712 0.0
O319 O 0.83085 0.07297 0.662 0.0
O320 O 0.87058 0.10818 0.66685 0.0
O321 O 0.83983 0.02921 0.72194 0.0
O322 O 0.81872 0.02362 0.67169 0.0
C323 C 0.92277 0.07048 0.68061 0.0
O324 O 0.88616 0.09772 0.72357 0.0
O325 O 0.88714 0.06199 0.73883 0.0
C326 C 0.84577 0.09787 0.66516 0.0
O327 O 0.92056 0.09042 0.68759 0.0
O328 O 0.90323 0.04749 0.68252 0.0
C329 C 0.85671 1.01348 0.63707 0.0
Fe330 Fe 0.24707 0.05015 0.14422 0.0
Fe331 Fe 0.25538 0.10176 0.17769 0.0
O332 O 0.23655 0.06709 0.17323 0.0
Fe333 Fe 0.20711 0.04909 0.19727 0.0
O334 O 0.18847 0.03712 0.15689 0.0
O335 O 0.21331 0.02263 0.13454 0.0
O336 O 0.24378 0.06739 0.10663 0.0
C337 C 0.25505 0.09223 0.10391 0.0
C338 C 0.23083 1.01648 0.20014 0.0
O339 O 0.26481 0.10718 0.13066 0.0
C340 C 0.2388 0.08378 0.24793 0.0
O341 O 0.28292 0.07522 0.14701 0.0
O342 O 0.28383 0.09939 0.19093 0.0
O343 O 0.21104 0.0199 0.20248 0.0
O344 O 0.25032 0.03133 0.1806 0.0
C345 C 0.20553 0.09504 0.17723 0.0
O346 O 0.24842 0.10209 0.22509 0.0
O347 O 0.22398 0.06013 0.23894 0.0
C348 C 0.29615 0.09418 0.16827 0.0
O349 O 0.22839 0.10645 0.16459 0.0
O350 O 0.19771 0.07486 0.19663 0.0
C351 C 0.19155 0.02249 0.13554 0.0
Fe352 Fe 0.99563 0.20928 0.14385 0.0
Fe353 Fe 0.94766 0.16266 0.17955 0.0
O354 O 0.98228 0.18369 0.17594 0.0
Fe355 Fe 1.00333 0.17789 0.20381 0.0
O356 O 0.02996 0.18824 0.17216 0.0
O357 O 1.01432 0.19546 0.12323 0.0
O358 O 0.96985 0.19068 0.111 0.0
C359 C 0.9536 0.16622 0.10768 0.0
C360 C 0.03078 0.23161 0.20397 0.0
O361 O 0.94543 0.15113 0.13428 0.0
C362 C 0.96202 0.17109 0.24886 0.0
O363 O 0.97676 0.22463 0.16036 0.0
O364 O 0.93929 0.18718 0.16549 0.0
O365 O 1.01823 0.21088 0.2222 0.0
O366 O 1.02453 0.23202 0.17171 0.0
C367 C 0.96606 0.12723 0.18644 0.0
O368 O 0.94803 0.17311 0.22487 0.0
O369 O 0.98057 0.16672 0.24119 0.0
C370 C 0.95168 0.21193 0.1628 0.0
O371 O 0.94915 0.13374 0.19415 0.0
O372 O 0.99022 0.14446 0.18632 0.0
C373 C 0.02979 0.18972 0.13907 0.0
Fe374 Fe 0.87828 0.78611 0.17398 0.0
Fe375 Fe 0.87633 0.8344 0.19976 0.0
O376 O 0.86444 0.80686 0.17156 0.0
Fe377 Fe 0.8388 0.80025 0.14074 0.0
O378 O 0.86016 0.80413 0.10416 0.0
O379 O 0.87538 0.77926 0.12609 0.0
O380 O 0.9108 0.81265 0.1639 0.0
C381 C 0.92282 0.83418 0.18016 0.0
C382 C 0.82929 0.7483 0.15974 0.0
O383 O 0.91066 0.84088 0.20166 0.0
C384 C 0.8207 0.81511 0.19747 0.0
O385 O 0.88435 0.79003 0.22208 0.0
O386 O 0.86685 0.81394 0.23857 0.0
O387 O 0.82549 0.76369 0.13977 0.0
O388 O 0.84625 0.7583 0.18383 0.0
C389 C 0.87105 0.85593 0.13905 0.0
O390 O 0.84434 0.83324 0.20307 0.0
O391 O 0.81572 0.79659 0.1758 0.0
C392 C 0.87494 0.79819 0.24592 0.0
O393 O 0.88653 0.85624 0.16241 0.0
O394 O 0.8485 0.83554 0.13462 0.0
C395 C 0.87212 0.79133 0.10038 0.0
C396 C 0.59334 0.18869 0.9729 0.0
C397 C 0.60915 0.19336 0.00315 0.0
C398 C 0.58476 0.20618 0.96308 0.0
C399 C 0.59732 0.2744 0.97745 0.0
H400 H 0.52577 0.24496 0.94197 0.0
C401 C 0.55526 0.34235 0.94638 0.0
C402 C 0.53091 0.33414 0.96276 0.0
C403 C 0.56451 0.32454 0.94199 0.0
C404 C 0.54583 0.25354 0.95171 0.0
H405 H 0.62848 0.22036 0.04664 0.0
H406 H 0.6128 0.25067 0.03007 0.0
H407 H 0.54286 0.21573 0.9564 0.0
H408 H 0.49631 0.30089 0.98513 0.0
H409 H 0.51194 0.26977 0.97695 0.0
H410 H 0.59974 0.3121 0.97458 0.0
C411 C 0.60746 0.23362 0.01356 0.0
C412 C 0.55575 0.23678 0.95975 0.0
C413 C 0.61627 0.21613 0.02328 0.0
C414 C 0.5149 0.30747 0.97166 0.0
C415 C 0.524 0.28968 0.96714 0.0
C416 C 0.58734 0.29117 0.96956 0.0
C417 C 0.59152 0.22881 0.98333 0.0
C418 C 0.5815 0.24693 0.97324 0.0
C419 C 0.54949 0.2983 0.95393 0.0
C420 C 0.5613 0.28091 0.95716 0.0
H421 H 0.58778 0.17157 0.95637 0.0
H422 H 0.573 0.20206 0.93929 0.0
H423 H 0.61738 0.28298 0.9872 0.0
H424 H 0.56821 0.363 0.94015 0.0
H425 H 0.58406 0.33172 0.93125 0.0
C426 C 0.74031 0.22278 0.96364 0.0
C427 C 0.71446 0.2182 0.96733 0.0
C428 C 0.76147 0.24865 0.96042 0.0
C429 C 0.7775 0.31906 0.95003 0.0
H430 H 0.83486 0.33331 0.01447 0.0
C431 C 0.84056 0.41927 0.01873 0.0
C432 C 0.86798 0.43078 0.01468 0.0
C433 C 0.82377 0.39309 0.00859 0.0
C434 C 0.81909 0.32955 0.99614 0.0
H435 H 0.69012 0.23654 0.96707 0.0
H436 H 0.72654 0.28119 0.96204 0.0
H437 H 0.80245 0.28774 -0.00026 0.0
H438 H 0.89944 0.42375 -0.00187 0.0
H439 H 0.87001 0.37759 0.98166 0.0
H440 H 0.79341 0.36095 0.94834 0.0
C441 C 0.73088 0.26522 0.96136 0.0
C442 C 0.80063 0.30348 0.98737 0.0
C443 C 0.7099 0.23954 0.9645 0.0
C444 C 0.87836 0.41534 0.00157 0.0
C445 C 0.86159 0.389 0.99214 0.0
C446 C 0.79566 0.34505 0.95932 0.0
C447 C 0.75705 0.27026 0.96076 0.0
C448 C 0.7792 0.29786 0.96489 0.0
C449 C 0.83415 0.37784 0.9949 0.0
C450 C 0.81625 0.35047 0.98304 0.0
H451 H 0.74438 0.20667 0.96581 0.0
H452 H 0.78134 0.25179 0.95931 0.0
H453 H 0.76165 0.31556 0.93201 0.0
H454 H 0.83203 0.4308 0.02839 0.0
H455 H 0.80263 0.38477 0.01123 0.0
C456 C 0.63569 0.45203 0.02112 0.0
C457 C 0.61721 0.42485 0.02124 0.0
C458 C 0.66165 0.46125 0.01086 0.0
C459 C 0.70512 0.44321 0.96231 0.0
H460 H 0.75972 0.50222 0.01496 0.0
C461 C 0.8158 0.47503 0.96407 0.0
C462 C 0.83432 0.50192 0.96867 0.0
C463 C 0.78891 0.46652 0.96177 0.0
C464 C 0.74471 0.48611 -0.00053 0.0
H465 H 0.61165 0.386 0.01031 0.0
H466 H 0.6577 0.40221 0.99328 0.0
H467 H 0.71387 0.48413 0.03151 0.0
H468 H 0.83964 0.54127 0.9713 0.0
H469 H 0.7924 0.52641 0.9672 0.0
H470 H 0.73648 0.44477 0.93116 0.0
C471 C 0.65174 0.41635 0.00074 0.0
C472 C 0.71837 0.47561 0.00907 0.0
C473 C 0.62547 0.40703 0.01086 0.0
C474 C 0.82576 0.52046 0.96753 0.0
C475 C 0.79874 0.5119 0.96559 0.0
C476 C 0.73164 0.45363 0.95286 0.0
C477 C 0.67013 0.44362 0.00072 0.0
C478 C 0.6982 0.45407 0.99062 0.0
C479 C 0.78002 0.48475 0.9644 0.0
C480 C 0.75171 0.47521 0.97138 0.0
H481 H 0.63006 0.46646 0.02844 0.0
H482 H 0.67501 0.48238 0.01042 0.0
H483 H 0.69007 0.42683 0.94727 0.0
H484 H 0.82199 0.46036 0.9649 0.0
H485 H 0.77504 0.44551 0.96097 0.0
C486 C 0.73811 0.52651 0.46112 0.0
C487 C 0.71065 0.50977 0.46047 0.0
C488 C 0.75496 0.51609 0.45768 0.0
C489 C 0.75521 0.45808 0.4872 0.0
H490 H 0.82168 0.4857 0.43773 0.0
C491 C 0.82674 0.41848 0.5149 0.0
C492 C 0.85393 0.43632 0.51221 0.0
C493 C 0.80839 0.4259 0.50426 0.0
C494 C 0.80336 0.47797 0.45219 0.0
H495 H 0.67912 0.46946 0.45395 0.0
H496 H 0.70855 0.45112 0.44825 0.0
H497 H 0.7914 0.50161 0.42253 0.0
H498 H 0.88326 0.47613 0.49739 0.0
H499 H 0.8515 0.48961 0.4809 0.0
H500 H 0.76753 0.43574 0.51846 0.0
C501 C 0.71707 0.47229 0.4508 0.0
C502 C 0.78591 0.4869 0.4431 0.0
C503 C 0.70027 0.4828 0.45355 0.0
C504 C 0.8624 0.46192 0.49965 0.0
C505 C 0.84411 0.46952 0.48972 0.0
C506 C 0.77283 0.44953 0.49678 0.0
C507 C 0.74452 0.48871 0.45447 0.0
C508 C 0.76176 0.47719 0.46071 0.0
C509 C 0.8168 0.45151 0.49129 0.0
C510 C 0.79734 0.45957 0.47973 0.0
H511 H 0.74647 0.54724 0.46751 0.0
H512 H 0.77602 0.52915 0.4609 0.0
H513 H 0.73691 0.45062 0.5017 0.0
H514 H 0.81966 0.39846 0.52392 0.0
H515 H 0.78762 0.41128 0.50542 0.0
C516 C 0.56965 0.23145 0.45538 0.0
C517 C 0.54324 0.21269 0.4626 0.0
C518 C 0.5777 0.25826 0.45396 0.0
C519 C 0.55955 0.30185 0.49773 0.0
H520 H 0.6164 0.35693 0.44315 0.0
C521 C 0.59521 0.41111 0.52308 0.0
C522 C 0.62241 0.42939 0.52147 0.0
C523 C 0.58531 0.38508 0.51239 0.0
C524 C 0.60071 0.34175 0.45883 0.0
H525 H 0.50404 0.20686 0.47071 0.0
H526 H 0.51804 0.2539 0.46788 0.0
H527 H 0.59769 0.3107 0.42549 0.0
H528 H 0.66059 0.43445 0.50744 0.0
H529 H 0.64323 0.3884 0.48944 0.0
H530 H 0.56297 0.33247 0.53175 0.0
C531 C 0.53257 0.24784 0.46366 0.0
C532 C 0.58984 0.31532 0.44854 0.0
C533 C 0.52447 0.22091 0.46481 0.0
C534 C 0.63957 0.42083 0.50923 0.0
C535 C 0.62958 0.39454 0.49857 0.0
C536 C 0.57046 0.32813 0.5081 0.0
C537 C 0.55949 0.26683 0.46003 0.0
C538 C 0.56918 0.29508 0.46797 0.0
C539 C 0.60228 0.3764 0.49998 0.0
C540 C 0.59119 0.34843 0.48886 0.0
H541 H 0.58449 0.22554 0.45368 0.0
H542 H 0.59855 0.27232 0.45121 0.0
H543 H 0.54419 0.28672 0.51389 0.0
H544 H 0.58129 0.41696 0.532 0.0
H545 H 0.56416 0.37185 0.51325 0.0
C546 C 0.62999 0.20836 0.50976 0.0
C547 C 0.61786 0.18096 0.50466 0.0
C548 C 0.65618 0.22485 0.49961 0.0
C549 C 0.71886 0.22807 0.48672 0.0
H550 H 0.73516 0.28857 0.42773 0.0
C551 C 0.82677 0.30781 0.46214 0.0
C552 C 0.83131 0.33342 0.46836 0.0
C553 C 0.80095 0.28691 0.45689 0.0
C554 C 0.731 0.27182 0.44428 0.0
H555 H 0.62377 0.14925 0.48583 0.0
H556 H 0.66997 0.17817 0.46925 0.0
H557 H 0.68925 0.25659 0.44102 0.0
H558 H 0.81301 0.35777 0.47075 0.0
H559 H 0.76849 0.32179 0.46215 0.0
H560 H 0.76052 0.24403 0.49203 0.0
C561 C 0.65901 0.18679 0.48061 0.0
C562 C 0.70472 0.25353 0.45181 0.0
C563 C 0.63264 0.17031 0.49009 0.0
C564 C 0.81005 0.33816 0.46623 0.0
C565 C 0.78444 0.31745 0.46101 0.0
C566 C 0.74523 0.24663 0.4797 0.0
C567 C 0.67085 0.21421 0.48478 0.0
C568 C 0.69847 0.23189 0.47381 0.0
C569 C 0.77939 0.29139 0.45763 0.0
C570 C 0.75165 0.26917 0.45924 0.0
H571 H 0.61901 0.21712 0.52061 0.0
H572 H 0.66501 0.24596 0.50338 0.0
H573 H 0.71447 0.21149 0.50376 0.0
H574 H 0.84283 0.30362 0.46373 0.0
H575 H 0.79779 0.26712 0.45378 0.0
C576 C 0.18935 0.64256 0.29779 0.0
C577 C 0.2083 0.66943 0.29562 0.0
C578 C 0.19725 0.62356 0.29639 0.0
C579 C 0.25411 0.61273 0.28083 0.0
H580 H 0.22831 0.56999 0.36537 0.0
C581 C 0.30495 0.55821 0.3424 0.0
C582 C 0.28802 0.53266 0.35529 0.0
C583 C 0.29471 0.57429 0.33155 0.0
C584 C 0.23548 0.58145 0.34135 0.0
H585 H 0.24956 0.69755 0.28642 0.0
H586 H 0.26325 0.66454 0.28344 0.0
H587 H 0.20922 0.59664 0.34701 0.0
H588 H 0.2471 0.50408 0.367 0.0
H589 H 0.22954 0.53168 0.34789 0.0
H590 H 0.28068 0.59765 0.27558 0.0
C591 C 0.24244 0.65794 0.28637 0.0
C592 C 0.22439 0.59662 0.3307 0.0
C593 C 0.23462 0.67686 0.28811 0.0
C594 C 0.26083 0.52372 0.3575 0.0
C595 C 0.25068 0.53962 0.34662 0.0
C596 C 0.26514 0.59735 0.2914 0.0
C597 C 0.2241 0.63125 0.29249 0.0
C598 C 0.23368 0.6126 0.30049 0.0
C599 C 0.2674 0.56507 0.33343 0.0
C600 C 0.25605 0.58166 0.32194 0.0
H601 H 0.16899 0.6364 0.30388 0.0
H602 H 0.18264 0.60304 0.30069 0.0
H603 H 0.26169 0.6249 0.25746 0.0
H604 H 0.32596 0.56561 0.34016 0.0
H605 H 0.30816 0.59394 0.32184 0.0
C606 C 0.51816 0.74226 0.35133 0.0
C607 C 0.50992 0.76111 0.35002 0.0
C608 C 0.50093 0.71601 0.34248 0.0
C609 C 0.44004 0.67202 0.29326 0.0
H610 H 0.4437 0.61846 0.3495 0.0
C611 C 0.36666 0.55825 0.28789 0.0
C612 C 0.37727 0.54194 0.2958 0.0
C613 C 0.38302 0.58574 0.28696 0.0
C614 C 0.44272 0.63315 0.3331 0.0
H615 H 0.47677 0.76689 0.33858 0.0
H616 H 0.44628 0.72051 0.32338 0.0
H617 H 0.46995 0.66447 0.36632 0.0
H618 H 0.41323 0.54101 0.3057 0.0
H619 H 0.442 0.58877 0.30234 0.0
H620 H 0.41222 0.64017 0.26042 0.0
C621 C 0.46634 0.72637 0.331 0.0
C622 C 0.45771 0.65958 0.34288 0.0
C623 C 0.48372 0.75286 0.33999 0.0
C624 C 0.4047 0.55318 0.29883 0.0
C625 C 0.42106 0.58055 0.29759 0.0
C626 C 0.42482 0.64535 0.28352 0.0
C627 C 0.47482 0.70766 0.33215 0.0
C628 C 0.45693 0.67943 0.32284 0.0
C629 C 0.41019 0.59718 0.29396 0.0
C630 C 0.42637 0.62567 0.30306 0.0
H631 H 0.5382 0.74779 0.35866 0.0
H632 H 0.50831 0.70231 0.3431 0.0
H633 H 0.4391 0.68686 0.27717 0.0
H634 H 0.34545 0.55001 0.28643 0.0
H635 H 0.37403 0.59798 0.28417 0.0
C636 C 0.48253 0.81717 0.28857 0.0
C637 C 0.50166 0.84393 0.29106 0.0
C638 C 0.45584 0.8095 0.28566 0.0
C639 C 0.41257 0.83587 0.31146 0.0
H640 H 0.35757 0.76823 0.27636 0.0
C641 C 0.30093 0.79975 0.32271 0.0
C642 C 0.28539 0.77436 0.33698 0.0
C643 C 0.32724 0.80895 0.31379 0.0
C644 C 0.37279 0.78714 0.28636 0.0
H645 H 0.50858 0.88384 0.28992 0.0
H646 H 0.46204 0.87069 0.28236 0.0
H647 H 0.40351 0.78389 0.26049 0.0
H648 H 0.28513 0.73861 0.35292 0.0
H649 H 0.33129 0.75464 0.33673 0.0
H650 H 0.38164 0.83914 0.33687 0.0
C651 C 0.46738 0.85545 0.28379 0.0
C652 C 0.39912 0.79615 0.27731 0.0
C653 C 0.49409 0.86307 0.28733 0.0
C654 C 0.29675 0.75837 0.34236 0.0
C655 C 0.323 0.76741 0.33276 0.0
C656 C 0.38624 0.82706 0.31996 0.0
C657 C 0.4478 0.82855 0.28498 0.0
C658 C 0.41946 0.82045 0.29029 0.0
C659 C 0.33842 0.79275 0.3183 0.0
C660 C 0.36617 0.80242 0.30801 0.0
H661 H 0.48802 0.80213 0.29218 0.0
H662 H 0.44154 0.78864 0.287 0.0
H663 H 0.42755 0.85435 0.32277 0.0
H664 H 0.29268 0.8125 0.3182 0.0
H665 H 0.33871 0.82852 0.30261 0.0
C666 C 0.54047 0.80107 0.8114 0.0
C667 C 0.5331 0.78227 0.83857 0.0
C668 C 0.52413 0.81115 0.80183 0.0
C669 C 0.45454 0.79461 0.80693 0.0
H670 H 0.48201 0.86788 0.78076 0.0
C671 C 0.41178 0.86928 0.79917 0.0
C672 C 0.38637 0.85088 0.78736 0.0
C673 C 0.43226 0.86353 0.79676 0.0
C674 C 0.47404 0.84736 0.78795 0.0
H675 H 0.50321 0.76001 0.87781 0.0
H676 H 0.475 0.77809 0.86175 0.0
H677 H 0.51245 0.85264 0.79818 0.0
H678 H 0.3628 0.81372 0.76034 0.0
H679 H 0.39886 0.8044 0.75392 0.0
H680 H 0.4162 0.78942 0.79866 0.0
C681 C 0.49313 0.78457 0.84724 0.0
C682 C 0.49149 0.83858 0.7977 0.0
C683 C 0.5094 0.77435 0.85666 0.0
C684 C 0.38235 0.82819 0.76951 0.0
C685 C 0.4029 0.82271 0.76638 0.0
C686 C 0.43716 0.80338 0.79745 0.0
C687 C 0.50009 0.80274 0.81931 0.0
C688 C 0.48188 0.81216 0.80779 0.0
C689 C 0.42759 0.83943 0.78211 0.0
C690 C 0.44662 0.82992 0.78814 0.0
H691 H 0.55855 0.80749 0.79673 0.0
H692 H 0.52996 0.82489 0.78 0.0
H693 H 0.44647 0.77403 0.81385 0.0
H694 H 0.41514 0.88671 0.81357 0.0
H695 H 0.45096 0.87686 0.80924 0.0
C696 C 0.22409 0.55652 0.77513 0.0
C697 C 0.20002 0.54158 0.79276 0.0
C698 C 0.23409 0.58356 0.76931 0.0
C699 C 0.21779 0.63775 0.77617 0.0
H700 H 0.29023 0.67917 0.80859 0.0
C701 C 0.26731 0.75053 0.79345 0.0
C702 C 0.28321 0.76164 0.82359 0.0
C703 C 0.2586 0.72439 0.78384 0.0
C704 C 0.26996 0.66791 0.79962 0.0
H705 H 0.16671 0.54238 0.81601 0.0
H706 H 0.18363 0.5891 0.80529 0.0
H707 H 0.2712 0.63194 0.79865 0.0
H708 H 0.30282 0.75401 0.86689 0.0
H709 H 0.28701 0.70804 0.85068 0.0
H710 H 0.21601 0.67333 0.77901 0.0
C711 C 0.19488 0.58029 0.79563 0.0
C712 C 0.25915 0.64085 0.7933 0.0
C713 C 0.18505 0.55343 0.80165 0.0
C714 C 0.29057 0.74605 0.84357 0.0
C715 C 0.28165 0.71974 0.83408 0.0
C716 C 0.22854 0.66475 0.7826 0.0
C717 C 0.2201 0.59598 0.78095 0.0
C718 C 0.23275 0.62532 0.78217 0.0
C719 C 0.26535 0.70851 0.80421 0.0
C720 C 0.25463 0.68012 0.79503 0.0
H721 H 0.23626 0.54792 0.76888 0.0
H722 H 0.25343 0.59501 0.75753 0.0
H723 H 0.19748 0.62647 0.76733 0.0
H724 H 0.26158 0.76207 0.77708 0.0
H725 H 0.24657 0.71667 0.7603 0.0
C726 C 0.29284 0.56224 0.83857 0.0
C727 C 0.28514 0.53685 0.85148 0.0
C728 C 0.31886 0.57889 0.82728 0.0
C729 C 0.38615 0.58775 0.83582 0.0
H730 H 0.40163 0.63198 0.7529 0.0
C731 C 0.49237 0.64938 0.79046 0.0
C732 C 0.50036 0.67633 0.78907 0.0
C733 C 0.46549 0.63047 0.78928 0.0
C734 C 0.39754 0.61961 0.776 0.0
H735 H 0.29879 0.50909 0.86237 0.0
H736 H 0.34336 0.53759 0.8424 0.0
H737 H 0.35573 0.60391 0.77146 0.0
H738 H 0.48713 0.70461 0.78113 0.0
H739 H 0.44039 0.67171 0.77857 0.0
H740 H 0.42773 0.60344 0.84069 0.0
C741 C 0.32972 0.54504 0.8416 0.0
C742 C 0.37131 0.60375 0.78684 0.0
C743 C 0.30398 0.5286 0.85299 0.0
C744 C 0.48141 0.6839 0.78228 0.0
C745 C 0.45462 0.66504 0.78081 0.0
C746 C 0.4122 0.60336 0.82487 0.0
C747 C 0.33758 0.57041 0.82865 0.0
C748 C 0.36533 0.58768 0.81698 0.0
C749 C 0.44632 0.63827 0.7864 0.0
C750 C 0.41826 0.61956 0.79496 0.0
H751 H 0.27873 0.56908 0.83673 0.0
H752 H 0.32434 0.59842 0.81771 0.0
H753 H 0.38239 0.5761 0.85958 0.0
H754 H 0.50655 0.64303 0.79594 0.0
H755 H 0.45962 0.6099 0.79308 0.0
C756 C 0.89089 1.00799 0.60674 0.0
C757 C 0.86466 0.99662 0.61844 0.0
C758 C 0.90358 0.99301 0.6063 0.0
C759 C 0.90066 0.94255 0.66284 0.0
H760 H 0.94894 0.93548 0.59997 0.0
C761 C 0.93344 0.86762 0.68966 0.0
C762 C 0.95941 0.87369 0.68236 0.0
C763 C 0.92455 0.88482 0.68001 0.0
C764 C 0.93585 0.93771 0.61798 0.0
H765 H 0.8302 0.96037 0.6346 0.0
H766 H 0.8519 0.93399 0.63246 0.0
H767 H 0.92673 0.95967 0.58027 0.0
H768 H 0.99666 0.90296 0.65963 0.0
H769 H 0.98102 0.93353 0.64294 0.0
H770 H 0.90978 0.92126 0.70076 0.0
C771 C 0.86285 0.95446 0.62428 0.0
C772 C 0.923 0.95131 0.60657 0.0
C773 C 0.85029 0.96942 0.62498 0.0
C774 C 0.97659 0.89786 0.66589 0.0
C775 C 0.96757 0.91518 0.65599 0.0
C776 C 0.91359 0.92934 0.67428 0.0
C777 C 0.89005 0.96656 0.61743 0.0
C778 C 0.90473 0.95316 0.62865 0.0
C779 C 0.94135 0.9087 0.66281 0.0
C780 C 0.93078 0.92608 0.65174 0.0
H781 H 0.90251 0.02909 0.6024 0.0
H782 H 0.92456 1.0028 0.60096 0.0
H783 H 0.88736 0.94447 0.68086 0.0
H784 H 0.91964 0.84916 0.70221 0.0
H785 H 0.90413 0.87895 0.68518 0.0
C786 C 0.14499 0.09066 0.66312 0.0
C787 C 0.16871 0.09593 0.6798 0.0
C788 C 0.12775 0.0654 0.64949 0.0
C789 C 0.12929 1.0066 0.6177 0.0
H790 H 0.05489 0.9664 0.64063 0.0
C791 C 0.07288 0.89518 0.63445 0.0
C792 C 0.04607 0.88057 0.62548 0.0
C793 C 0.08698 0.9224 0.62906 0.0
C794 C 0.07549 0.97757 0.63318 0.0
H795 H 0.19204 0.07841 0.69705 0.0
H796 H 0.1622 0.03491 0.67379 0.0
H797 H 0.08041 1.01316 0.65675 0.0
H798 H 1.01301 0.88245 0.60276 0.0
H799 H 0.03769 0.93042 0.59362 0.0
H800 H 0.12482 0.97087 0.59578 0.0
C801 C 0.15713 0.05026 0.6704 0.0
C802 C 0.09009 1.00431 0.64252 0.0
C803 C 0.17414 0.07521 0.68402 0.0
C804 C 0.03391 0.8933 0.609 0.0
C805 C 0.0479 0.92073 0.60426 0.0
C806 C 0.11477 0.97999 0.60842 0.0
C807 C 0.13413 0.0452 0.65217 0.0
C808 C 0.11737 1.01873 0.63622 0.0
C809 C 0.07435 0.93564 0.61536 0.0
C810 C 0.08798 0.9649 0.61735 0.0
H811 H 0.14029 0.10622 0.65938 0.0
H812 H 0.10999 0.06193 0.6358 0.0
H813 H 0.1502 1.01743 0.61182 0.0
H814 H 0.08243 0.8858 0.64792 0.0
H815 H 0.10722 0.93332 0.63832 0.0
C816 C 0.95491 0.08363 0.632 0.0
C817 C 0.94809 0.07491 0.66689 0.0
C818 C 0.98044 0.09231 0.61979 0.0
C819 C 0.04356 0.09424 0.6391 0.0
H820 H 0.07497 0.16349 0.59561 0.0
C821 C 0.15456 0.15307 0.6078 0.0
C822 C 0.16666 0.1774 0.62556 0.0
C823 C 0.12714 0.1392 0.60279 0.0
C824 C 0.0664 0.14402 0.60729 0.0
H825 H 0.96179 0.06719 0.71614 0.0
H826 H 1.00676 0.08236 0.69485 0.0
H827 H 1.02776 0.13945 0.60809 0.0
H828 H 0.1603 0.20726 0.6497 0.0
H829 H 0.11273 0.18377 0.63952 0.0
H830 H 0.08253 0.09938 0.63955 0.0
C831 C 0.99233 0.08229 0.67677 0.0
C832 C 0.03935 0.13017 0.61431 0.0
C833 C 0.9667 0.07366 0.68902 0.0
C834 C 0.15141 0.18877 0.63531 0.0
C835 C 0.12417 0.17522 0.62964 0.0
C836 C 0.07062 0.108 0.63172 0.0
C837 C 0.99967 0.09244 0.64232 0.0
C838 C 1.02773 0.10542 0.63109 0.0
C839 C 0.11161 0.14976 0.61486 0.0
C840 C 0.08242 0.13333 0.61658 0.0
H841 H 0.94069 0.08455 0.61451 0.0
H842 H 0.98536 0.09965 0.59301 0.0
H843 H 0.03513 0.07513 0.6518 0.0
H844 H 0.16587 0.14364 0.60089 0.0
H845 H 0.11795 0.11964 0.59126 0.0
C846 C 0.16036 0.08984 0.17122 0.0
C847 C 0.18794 0.10581 0.16913 0.0
C848 C 0.1439 0.09968 0.16071 0.0
C849 C 0.14237 0.16098 0.15072 0.0
H850 H 0.08317 0.1209 0.08763 0.0
C851 C 0.07406 0.2012 0.11735 0.0
C852 C 0.04714 0.18265 0.1201 0.0
C853 C 0.09253 0.19279 0.11357 0.0
C854 C 0.09951 0.13231 0.10542 0.0
H855 H 0.21986 0.14471 0.15493 0.0
H856 H 0.19117 0.16196 0.13755 0.0
H857 H 0.11208 0.10352 0.104 0.0
H858 H 1.01803 0.14114 0.119 0.0
H859 H 0.04994 0.12628 0.11324 0.0
H860 H 0.1294 0.18911 0.15389 0.0
C861 C 0.18229 0.14182 0.14701 0.0
C862 C 0.11604 0.12231 0.11478 0.0
C863 C 0.19869 0.13191 0.15695 0.0
C864 C 0.03872 0.15577 0.11606 0.0
C865 C 0.05713 0.1473 0.11291 0.0
C866 C 0.12568 0.17079 0.14183 0.0
C867 C 0.15475 0.12577 0.14848 0.0
C868 C 0.13749 0.13647 0.13776 0.0
C869 C 0.08438 0.16566 0.11355 0.0
C870 C 0.10384 0.15651 0.1193 0.0
H871 H 0.1515 0.06959 0.18018 0.0
H872 H 0.1227 0.08697 0.1624 0.0
H873 H 0.15865 0.1722 0.16872 0.0
H874 H 0.08097 0.22201 0.12117 0.0
H875 H 0.11328 0.20755 0.11312 0.0
C876 C 0.90414 0.90036 0.11795 0.0
C877 C 0.87753 0.8818 0.12438 0.0
C878 C 0.91238 0.92718 0.11559 0.0
C879 C 0.89352 0.97158 0.15546 0.0
H880 H 0.95225 0.02581 0.10243 0.0
C881 C 0.92937 0.08116 0.1776 0.0
C882 C 0.95667 0.0992 0.17769 0.0
C883 C 0.91959 0.05508 0.16726 0.0
C884 C 0.93601 1.01087 0.11767 0.0
H885 H 0.83825 0.87626 0.13002 0.0
H886 H 0.8526 0.92334 0.12553 0.0
H887 H 0.93362 0.97936 0.08593 0.0
H888 H 0.99514 0.10381 0.16684 0.0
H889 H 0.97792 0.05764 0.14936 0.0
H890 H 0.89627 1.00267 0.1879 0.0
C891 C 0.86714 0.91713 0.1227 0.0
C892 C 0.9252 0.98431 0.10803 0.0
C893 C 0.85884 0.89017 0.12479 0.0
C894 C 0.97403 0.09038 0.16728 0.0
C895 C 0.96414 0.06402 0.15695 0.0
C896 C 0.90436 0.99799 0.16516 0.0
C897 C 0.89418 0.93598 0.11991 0.0
C898 C 0.90387 0.96437 0.12693 0.0
C899 C 0.93676 0.04609 0.15687 0.0
C900 C 0.92576 1.01799 0.14647 0.0
H901 H 0.91891 0.89432 0.1176 0.0
H902 H 0.93332 0.94111 0.11352 0.0
H903 H 0.87762 0.95671 0.17124 0.0
H904 H 0.9153 0.08721 0.18504 0.0
H905 H 0.8984 0.04203 0.16688 0.0
C906 C 0.14779 1.0047 0.10725 0.0
C907 C 0.16718 1.00005 0.1218 0.0
C908 C 0.1215 0.98453 0.10596 0.0
C909 C 0.06893 0.9496 0.13921 0.0
H910 H 0.04257 0.87438 0.13312 0.0
C911 C 0.96655 0.87451 0.19344 0.0
C912 C 0.95138 0.85152 0.17351 0.0
C913 C 0.99313 0.89147 0.18525 0.0
C914 C 0.04953 0.89534 0.13461 0.0
H915 H 0.17495 0.97045 0.144 0.0
H916 H 0.12896 0.93526 0.14261 0.0
H917 H 0.0879 0.90522 0.11583 0.0
H918 H 0.95233 0.82826 0.12941 0.0
H919 H 0.99819 0.85798 0.1148 0.0
H920 H 0.03054 0.93987 0.15715 0.0
C921 C 0.13392 0.95423 0.13142 0.0
C922 C 0.07562 0.91302 0.12496 0.0
C923 C 0.16035 0.97435 0.13204 0.0
C924 C 0.96346 0.8457 0.14557 0.0
C925 C 0.98989 0.86271 0.13723 0.0
C926 C 0.04287 0.93197 0.14856 0.0
C927 C 0.11401 0.95951 0.12012 0.0
C928 C 0.0857 0.94041 0.12732 0.0
C929 C 1.00503 0.88593 0.15675 0.0
C930 C 0.03287 0.90461 0.14669 0.0
H931 H 0.15266 0.02445 0.09937 0.0
H932 H 0.10682 0.98907 0.09601 0.0
H933 H 0.07607 0.97051 0.14219 0.0
H934 H 0.95786 0.87953 0.21516 0.0
H935 H 1.00434 0.90897 0.20126 0.0
C936 C 0.55095 0.10004 0.39076 0.0
C937 C 0.54285 0.11843 0.3987 0.0
C938 C 0.55776 0.09749 0.35626 0.0
C939 C 0.58734 0.10949 0.28645 0.0
H940 H 0.54852 0.11611 0.20759 0.0
C941 C 0.63058 0.13869 0.14676 0.0
C942 C 0.61356 0.1281 0.11754 0.0
C943 C 0.62061 0.13306 0.18104 0.0
C944 C 0.55935 0.11379 0.22924 0.0
H945 H 0.53564 0.14857 0.3767 0.0
H946 H 0.5479 0.14442 0.31684 0.0
H947 H 0.53268 0.1141 0.26742 0.0
H948 H 0.57292 0.10214 0.10146 0.0
H949 H 0.55559 0.09206 0.16135 0.0
H950 H 0.614 0.10914 0.24816 0.0
C951 C 0.54849 0.1316 0.33706 0.0
C952 C 0.55046 0.113 0.26357 0.0
C953 C 0.54162 0.1341 0.37144 0.0
C954 C 0.58652 0.11089 0.12339 0.0
C955 C 0.57657 0.10517 0.15769 0.0
C956 C 0.59621 0.11022 0.25205 0.0
C957 C 0.55665 0.11329 0.32906 0.0
C958 C 0.56466 0.11141 0.29258 0.0
C959 C 0.59343 0.1166 0.18688 0.0
C960 C 0.5826 0.1129 0.22311 0.0
H961 H 0.55193 0.08754 0.41115 0.0
H962 H 0.56372 0.08303 0.35084 0.0
H963 H 0.59878 0.10838 0.30826 0.0
H964 H 0.65153 0.15196 0.14322 0.0
H965 H 0.6341 0.14245 0.20289 0.0
C966 C 0.91719 0.41644 0.37431 0.0
C967 C 0.91907 0.43206 0.40347 0.0
C968 C 0.92006 0.42642 0.34014 0.0
C969 C 0.94393 0.48925 0.29021 0.0
H970 H 0.90247 0.44123 0.21505 0.0
C971 C 0.92462 0.51715 0.14945 0.0
C972 C 0.92925 0.50412 0.1216 0.0
C973 C 0.92674 0.51086 0.18448 0.0
C974 C 0.91428 0.45478 0.23582 0.0
H975 H 0.92501 0.47014 0.41995 0.0
H976 H 0.92874 0.48717 0.36026 0.0
H977 H 0.89792 0.4247 0.27506 0.0
H978 H 0.941 0.47527 0.10858 0.0
H979 H 0.94403 0.46394 0.16974 0.0
H980 H 0.95925 0.51953 0.25054 0.0
C981 C 0.92597 0.46755 0.36366 0.0
C982 C 0.91183 0.44533 0.27018 0.0
C983 C 0.92361 0.45774 0.39787 0.0
C984 C 0.93729 0.48566 0.12942 0.0
C985 C 0.93894 0.47907 0.16435 0.0
C986 C 0.94597 0.49879 0.25583 0.0
C987 C 0.92432 0.45205 0.33433 0.0
C988 C 0.92677 0.46238 0.29782 0.0
C989 C 0.9331 0.4912 0.19204 0.0
C990 C 0.93131 0.48154 0.22842 0.0
H991 H 0.91407 0.3967 0.37789 0.0
H992 H 0.91928 0.41409 0.31834 0.0
H993 H 0.95606 0.50289 0.31066 0.0
H994 H 0.91853 0.53156 0.14418 0.0
H995 H 0.9221 0.52038 0.20557 0.0
C996 C 0.58792 0.45642 0.41003 0.0
C997 C 0.60283 0.48367 0.41667 0.0
C998 C 0.57649 0.44718 0.37669 0.0
C999 C 0.55751 0.46781 0.29396 0.0
H1000 H 0.57068 0.41585 0.24953 0.0
C1001 C 0.55316 0.45181 0.14252 0.0
C1002 C 0.54501 0.42623 0.1302 0.0
C1003 C 0.55569 0.45705 0.17887 0.0
C1004 C 0.56634 0.43001 0.26166 0.0
H1005 H 0.61665 0.52252 0.39389 0.0
H1006 H 0.59693 0.50649 0.33638 0.0
H1007 H 0.5825 0.42723 0.31122 0.0
H1008 H 0.5311 0.38573 0.14605 0.0
H1009 H 0.53481 0.39468 0.20903 0.0
H1010 H 0.54177 0.47093 0.24416 0.0
C1011 C 0.59389 0.49221 0.35673 0.0
C1012 C 0.57313 0.43651 0.2971 0.0
C1013 C 0.60545 0.50139 0.3897 0.0
C1014 C 0.53794 0.40577 0.15478 0.0
C1015 C 0.54018 0.41092 0.19091 0.0
C1016 C 0.55061 0.46123 0.25851 0.0
C1017 C 0.57951 0.46505 0.34966 0.0
C1018 C 0.56924 0.45582 0.31346 0.0
C1019 C 0.54983 0.43673 0.20345 0.0
C1020 C 0.55532 0.44254 0.24177 0.0
H1021 H 0.58552 0.4423 0.43029 0.0
H1022 H 0.5654 0.4261 0.372 0.0
H1023 H 0.55399 0.48256 0.30601 0.0
H1024 H 0.55873 0.46794 0.12414 0.0
H1025 H 0.56332 0.47721 0.18761 0.0
C1026 C 0.91065 0.50042 0.87605 0.0
C1027 C 0.92713 0.50058 0.90324 0.0
C1028 C 0.91316 0.49323 0.84184 0.0
C1029 C 0.93271 0.49247 0.76862 0.0
H1030 H 0.93999 0.43089 0.75275 0.0
C1031 C 0.93843 0.45916 0.62827 0.0
C1032 C 0.92184 0.4321 0.62157 0.0
C1033 C 0.94363 0.46863 0.66287 0.0
C1034 C 0.93797 0.44814 0.75679 0.0
H1035 H 0.95923 0.49331 0.91586 0.0
H1036 H 0.96374 0.48095 0.85588 0.0
H1037 H 0.93931 0.44526 0.81304 0.0
H1038 H 0.89877 0.39361 0.64601 0.0
H1039 H 0.9074 0.41021 0.70624 0.0
H1040 H 0.93019 0.49475 0.71262 0.0
C1041 C 0.94868 0.48612 0.8612 0.0
C1042 C 0.93784 0.45651 0.79128 0.0
C1043 C 0.94612 0.49325 0.89552 0.0
C1044 C 0.91154 0.41459 0.65023 0.0
C1045 C 0.91666 0.42409 0.68482 0.0
C1046 C 0.9328 0.4841 0.73422 0.0
C1047 C 0.93228 0.48613 0.83399 0.0
C1048 C 0.9347 0.47848 0.79753 0.0
C1049 C 0.9323 0.45127 0.69149 0.0
C1050 C 0.935 0.46158 0.72792 0.0
H1051 H 0.89569 0.50577 0.88117 0.0
H1052 H 0.89988 0.49294 0.82159 0.0
H1053 H 0.93068 0.50972 0.7726 0.0
H1054 H 0.94695 0.47314 0.60679 0.0
H1055 H 0.95615 0.48964 0.6672 0.0
C1056 C 0.64139 0.50392 0.65554 0.0
C1057 C 0.62298 0.50176 0.62982 0.0
C1058 C 0.63482 0.50065 0.69127 0.0
C1059 C 0.57716 0.4665 0.74797 0.0
H1060 H 0.62576 0.50703 0.82327 0.0
C1061 C 0.54511 0.44533 0.89205 0.0
C1062 C 0.56286 0.44472 0.91666 0.0
C1063 C 0.55344 0.45547 0.85832 0.0
C1064 C 0.61208 0.49539 0.80254 0.0
H1065 H 0.58363 0.49576 0.62164 0.0
H1066 H 0.57205 0.48995 0.68432 0.0
H1067 H 0.63816 0.51994 0.76174 0.0
H1068 H 0.60355 0.45522 0.92568 0.0
H1069 H 0.61818 0.47248 0.86586 0.0
H1070 H 0.55138 0.44153 0.78827 0.0
C1071 C 0.59153 0.49394 0.67663 0.0
C1072 C 0.61912 0.50285 0.76733 0.0
C1073 C 0.59819 0.49741 0.64078 0.0
C1074 C 0.58946 0.45541 0.90718 0.0
C1075 C 0.59781 0.46536 0.87301 0.0
C1076 C 0.5702 0.45899 0.78301 0.0
C1077 C 0.60962 0.49504 0.70217 0.0
C1078 C 0.60172 0.48843 0.73967 0.0
C1079 C 0.5797 0.46499 0.84799 0.0
C1080 C 0.58753 0.47333 0.81078 0.0
H1081 H 0.66078 0.50752 0.64801 0.0
H1082 H 0.64913 0.50143 0.71021 0.0
H1083 H 0.56358 0.45461 0.72728 0.0
H1084 H 0.52457 0.43775 0.89874 0.0
H1085 H 0.53913 0.45558 0.84016 0.0
C1086 C 0.59173 0.1241 0.89357 0.0
C1087 C 0.61725 0.1284 0.89994 0.0
C1088 C 0.58247 0.12218 0.85907 0.0
C1089 C 0.60628 0.1376 0.76651 0.0
H1090 H 0.53219 0.09156 0.74423 0.0
C1091 C 0.56712 0.11531 0.62432 0.0
C1092 C 0.54835 0.123 0.61685 0.0
C1093 C 0.57379 0.11344 0.65916 0.0
C1094 C 0.5529 0.10448 0.75025 0.0
H1095 H 0.65289 0.13336 0.87549 0.0
H1096 H 0.63644 0.12888 0.81535 0.0
H1097 H 0.54787 0.09323 0.80462 0.0
H1098 H 0.52068 0.13319 0.6399 0.0
H1099 H 0.53199 0.12923 0.70111 0.0
H1100 H 0.61128 0.14813 0.7118 0.0
C1101 C 0.62382 0.12794 0.83679 0.0
C1102 C 0.5619 0.10563 0.7848 0.0
C1103 C 0.63325 0.13039 0.87128 0.0
C1104 C 0.53532 0.12737 0.64492 0.0
C1105 C 0.54168 0.12501 0.67983 0.0
C1106 C 0.59736 0.13603 0.73195 0.0
C1107 C 0.59839 0.12404 0.83021 0.0
C1108 C 0.58871 0.12232 0.7934 0.0
C1109 C 0.56144 0.11871 0.68711 0.0
C1110 C 0.57062 0.11955 0.72361 0.0
H1111 H 0.57906 0.12268 0.91527 0.0
H1112 H 0.563 0.11969 0.85511 0.0
H1113 H 0.6269 0.15116 0.77217 0.0
H1114 H 0.57752 0.11184 0.60328 0.0
H1115 H 0.589 0.10841 0.6643 0.0
C1116 C 0.30761 0.47545 0.48863 0.0
C1117 C 0.2888 0.45999 0.46288 0.0
C1118 C 0.30113 0.47206 0.52436 0.0
C1119 C 0.24388 0.45132 0.58056 0.0
H1120 H 0.29138 0.45718 0.65638 0.0
C1121 C 0.21198 0.44332 0.72407 0.0
C1122 C 0.23015 0.46132 0.74856 0.0
C1123 C 0.22007 0.44064 0.69064 0.0
C1124 C 0.27803 0.45576 0.63548 0.0
H1125 H 0.2489 0.42781 0.45454 0.0
H1126 H 0.23745 0.42192 0.5173 0.0
H1127 H 0.30339 0.45535 0.59501 0.0
H1128 H 0.27132 0.49003 0.75759 0.0
H1129 H 0.28556 0.48595 0.69813 0.0
H1130 H 0.21889 0.45253 0.62047 0.0
C1131 C 0.25718 0.43684 0.50962 0.0
C1132 C 0.28483 0.45457 0.6004 0.0
C1133 C 0.26375 0.4401 0.47375 0.0
C1134 C 0.2569 0.47605 0.73919 0.0
C1135 C 0.26502 0.47361 0.70525 0.0
C1136 C 0.23718 0.45266 0.61546 0.0
C1137 C 0.27564 0.45321 0.5352 0.0
C1138 C 0.26781 0.45239 0.57259 0.0
C1139 C 0.24652 0.45619 0.6804 0.0
C1140 C 0.25412 0.45487 0.64338 0.0
H1141 H 0.32721 0.49076 0.48111 0.0
H1142 H 0.31573 0.48509 0.54334 0.0
H1143 H 0.23066 0.45031 0.55972 0.0
H1144 H 0.19128 0.43129 0.7306 0.0
H1145 H 0.20543 0.4265 0.6726 0.0
C1146 C 0.60186 0.81898 0.45969 0.0
C1147 C 0.58867 0.83281 0.45138 0.0
C1148 C 0.60633 0.81514 0.49495 0.0
C1149 C 0.58161 0.81653 0.58525 0.0
H1150 H 0.63801 0.8037 0.61381 0.0
C1151 C 0.60093 0.79804 0.73009 0.0
C1152 C 0.59753 0.77264 0.73439 0.0
C1153 C 0.60311 0.80858 0.69628 0.0
C1154 C 0.62229 0.80742 0.6061 0.0
H1155 H 0.57139 0.85501 0.47286 0.0
H1156 H 0.58068 0.84993 0.53414 0.0
H1157 H 0.6368 0.81782 0.55342 0.0
H1158 H 0.59493 0.73886 0.70705 0.0
H1159 H 0.5996 0.75773 0.64798 0.0
H1160 H 0.56763 0.80669 0.63842 0.0
C1161 C 0.58644 0.84079 0.51386 0.0
C1162 C 0.62138 0.81526 0.57145 0.0
C1163 C 0.58133 0.84398 0.4787 0.0
C1164 C 0.59733 0.7584 0.70443 0.0
C1165 C 0.60018 0.76921 0.67074 0.0
C1166 C 0.58292 0.80933 0.62004 0.0
C1167 C 0.59828 0.82562 0.52263 0.0
C1168 C 0.60073 0.81947 0.5603 0.0
C1169 C 0.60265 0.79418 0.66639 0.0
C1170 C 0.60299 0.8043 0.63055 0.0
H1171 H 0.60752 0.81 0.43903 0.0
H1172 H 0.61513 0.80301 0.50036 0.0
H1173 H 0.56501 0.8189 0.5778 0.0
H1174 H 0.60107 0.80937 0.75278 0.0
H1175 H 0.60495 0.82787 0.69342 0.0
C1176 C 0.29948 0.85015 0.69844 0.0
C1177 C 0.28395 0.83642 0.72769 0.0
C1178 C 0.2895 0.84275 0.66419 0.0
C1179 C 0.24348 0.78593 0.61296 0.0
H1180 H 0.24639 0.83653 0.54424 0.0
C1181 C 0.20101 0.75228 0.47366 0.0
C1182 C 0.21566 0.7687 0.44557 0.0
C1183 C 0.20676 0.76138 0.50842 0.0
C1184 C 0.24569 0.82218 0.56295 0.0
H1185 H 0.24588 0.80417 0.74408 0.0
H1186 H 0.22876 0.79096 0.68422 0.0
H1187 H 0.2626 0.85108 0.60421 0.0
H1188 H 0.24731 0.80778 0.43172 0.0
H1189 H 0.25803 0.82333 0.49223 0.0
H1190 H 0.22775 0.75722 0.57181 0.0
C1191 C 0.24851 0.80754 0.68787 0.0
C1192 C 0.25489 0.83054 0.59728 0.0
C1193 C 0.25829 0.81519 0.72206 0.0
C1194 C 0.23556 0.79469 0.45282 0.0
C1195 C 0.24162 0.80365 0.4876 0.0
C1196 C 0.23469 0.77764 0.57855 0.0
C1197 C 0.26402 0.82123 0.65867 0.0
C1198 C 0.2539 0.81248 0.62251 0.0
C1199 C 0.22761 0.78696 0.51591 0.0
C1200 C 0.23573 0.79566 0.55302 0.0
H1201 H 0.31929 0.86664 0.702 0.0
H1202 H 0.30187 0.85346 0.642 0.0
H1203 H 0.24279 0.7717 0.63191 0.0
H1204 H 0.18534 0.73223 0.46881 0.0
H1205 H 0.19509 0.74819 0.52945 0.0
C1206 C 0.59837 0.78642 0.96465 0.0
C1207 C 0.58576 0.76019 0.95265 0.0
C1208 C 0.60023 0.79191 0.00082 0.0
C1209 C 0.56659 0.7615 0.0842 0.0
H1210 H 0.62693 0.82199 0.12634 0.0
C1211 C 0.57072 0.78984 0.23216 0.0
C1212 C 0.57978 0.81676 0.2381 0.0
C1213 C 0.573 0.78103 0.19864 0.0
C1214 C 0.60991 0.80504 0.1149 0.0
H1215 H 0.5666 0.71919 0.9693 0.0
H1216 H 0.57016 0.72881 0.03215 0.0
H1217 H 0.62903 0.81049 0.06501 0.0
H1218 H 0.59828 0.85549 0.21337 0.0
H1219 H 0.602 0.84015 0.15556 0.0
H1220 H 0.54729 0.7564 0.13393 0.0
C1221 C 0.57806 0.74512 0.01367 0.0
C1222 C 0.6111 0.7985 0.07978 0.0
C1223 C 0.57615 0.73964 0.97761 0.0
C1224 C 0.59107 0.83459 0.2099 0.0
C1225 C 0.59348 0.82586 0.17671 0.0
C1226 C 0.56541 0.76803 0.11936 0.0
C1227 C 0.58961 0.77127 0.02569 0.0
C1228 C 0.58928 0.77694 0.06383 0.0
C1229 C 0.58458 0.79905 0.17067 0.0
C1230 C 0.58686 0.7902 0.13484 0.0
H1231 H 0.60597 0.80269 0.94613 0.0
H1232 H 0.60906 0.81228 0.00921 0.0
H1233 H 0.5493 0.74494 0.07259 0.0
H1234 H 0.56194 0.77561 0.25333 0.0
H1235 H 0.566 0.76022 0.19471 0.0
C1236 C 0.25935 0.80213 0.95118 0.0
C1237 C 0.2849 0.82294 0.94397 0.0
C1238 C 0.25057 0.79592 0.98595 0.0
C1239 C 0.25894 0.82182 0.07492 0.0
H1240 H 0.23374 0.74963 0.10454 0.0
C1241 C 0.23462 0.78911 0.22076 0.0
C1242 C 0.21395 0.7634 0.2274 0.0
C1243 C 0.24322 0.79726 0.18622 0.0
C1244 C 0.24023 0.76976 0.09666 0.0
H1245 H 0.32092 0.8542 0.96733 0.0
H1246 H 0.3052 0.84362 0.02827 0.0
H1247 H 0.24818 0.76251 0.04398 0.0
H1248 H 0.18533 0.72642 0.20317 0.0
H1249 H 0.19944 0.74089 0.14305 0.0
H1250 H 0.25028 0.82901 0.12718 0.0
C1251 C 0.29219 0.83202 0.00692 0.0
C1252 C 0.24865 0.77712 0.06199 0.0
C1253 C 0.30119 0.83795 0.97215 0.0
C1254 C 0.20156 0.74625 0.19888 0.0
C1255 C 0.20981 0.75452 0.16439 0.0
C1256 C 0.25006 0.81435 0.10953 0.0
C1257 C 0.26697 0.81071 0.01408 0.0
C1258 C 0.25806 0.80318 0.05084 0.0
C1259 C 0.23102 0.78 0.15759 0.0
C1260 C 0.24056 0.78819 0.12084 0.0
H1261 H 0.24635 0.79019 0.93004 0.0
H1262 H 0.23096 0.77948 0.9909 0.0
H1263 H 0.26602 0.84202 0.06676 0.0
H1264 H 0.2446 0.8027 0.24231 0.0
H1265 H 0.25982 0.81689 0.18213 0.0
C1266 C 0.21216 0.48044 0.98743 0.0
C1267 C 0.21482 0.46449 0.96184 0.0
C1268 C 0.21529 0.47705 0.02323 0.0
C1269 C 0.25009 0.45444 0.08059 0.0
H1270 H 0.20799 0.46031 0.1552 0.0
C1271 C 0.27081 0.44251 0.22453 0.0
C1272 C 0.27062 0.46018 0.24949 0.0
C1273 C 0.26071 0.44085 0.19074 0.0
C1274 C 0.22006 0.45889 0.13466 0.0
H1275 H 0.22161 0.43164 0.95394 0.0
H1276 H 0.22727 0.4258 0.01677 0.0
H1277 H 0.19545 0.46013 0.0934 0.0
H1278 H 0.25881 0.48934 0.259 0.0
H1279 H 0.24171 0.48706 0.19898 0.0
H1280 H 0.27515 0.45398 0.12131 0.0
C1281 C 0.22294 0.44107 0.00891 0.0
C1282 C 0.21282 0.45866 0.09932 0.0
C1283 C 0.21959 0.44432 0.97299 0.0
C1284 C 0.25921 0.47557 0.24024 0.0
C1285 C 0.24936 0.47417 0.20596 0.0
C1286 C 0.25741 0.45484 0.11576 0.0
C1287 C 0.2213 0.45774 0.03433 0.0
C1288 C 0.22778 0.45641 0.07193 0.0
C1289 C 0.25053 0.45714 0.18062 0.0
C1290 C 0.24247 0.45698 0.14328 0.0
H1291 H 0.20821 0.496 0.97974 0.0
H1292 H 0.21409 0.49032 0.0421 0.0
H1293 H 0.26239 0.45333 0.06011 0.0
H1294 H 0.27904 0.43003 0.23094 0.0
H1295 H 0.26122 0.42695 0.17233 0.0
C1296 C 0.96575 0.80288 0.81159 0.0
C1297 C 0.94819 0.79356 0.78279 0.0
C1298 C 0.95618 0.79777 0.84612 0.0
C1299 C 0.9035 0.79349 0.89618 0.0
H1300 H 0.92206 0.75976 0.97028 0.0
C1301 C 0.86302 0.7853 0.03589 0.0
C1302 C 0.87932 0.78764 0.06453 0.0
C1303 C 0.8699 0.78238 0.00168 0.0
C1304 C 0.91697 0.76958 0.95007 0.0
H1305 H 0.90699 0.77097 0.76735 0.0
H1306 H 0.89024 0.7629 0.82798 0.0
H1307 H 0.93747 0.76091 0.91 0.0
H1308 H 0.91533 0.78846 0.08032 0.0
H1309 H 0.92838 0.78504 0.02027 0.0
H1310 H 0.88459 0.80388 0.9358 0.0
C1311 C 0.91137 0.77372 0.82363 0.0
C1312 C 0.9256 0.76997 0.91556 0.0
C1313 C 0.92095 0.7783 0.78909 0.0
C1314 C 0.90246 0.78665 0.05853 0.0
C1315 C 0.90976 0.78446 0.02411 0.0
C1316 C 0.89542 0.79369 0.93069 0.0
C1317 C 0.92892 0.78374 0.85232 0.0
C1318 C 0.91884 0.78188 0.88843 0.0
C1319 C 0.89367 0.78253 0.99514 0.0
C1320 C 0.90197 0.7817 0.9582 0.0
H1321 H 0.98685 0.81458 0.80739 0.0
H1322 H 0.97001 0.8058 0.86794 0.0
H1323 H 0.89848 0.80319 0.87566 0.0
H1324 H 0.84477 0.78548 0.03999 0.0
H1325 H 0.8565 0.78008 0.98039 0.0
C1326 C 0.24187 0.1743 0.81294 0.0
C1327 C 0.24905 0.16284 0.78583 0.0
C1328 C 0.24712 0.17141 0.84812 0.0
C1329 C 0.28262 0.14689 0.90594 0.0
H1330 H 0.22842 0.13745 0.97268 0.0
C1331 C 0.25994 0.09046 0.03869 0.0
C1332 C 0.25888 0.10411 0.06857 0.0
C1333 C 0.26274 0.10134 0.00508 0.0
C1334 C 0.24384 0.14037 0.95437 0.0
H1335 H 0.26781 0.13987 0.77381 0.0
H1336 H 0.27566 0.13341 0.83526 0.0
H1337 H 0.22561 0.14938 0.91199 0.0
H1338 H 0.2602 0.13986 0.08694 0.0
H1339 H 0.26408 0.15845 0.02772 0.0
H1340 H 0.29966 0.13595 0.94844 0.0
C1341 C 0.26685 0.14549 0.82961 0.0
C1342 C 0.2424 0.14739 0.91957 0.0
C1343 C 0.2622 0.149 0.79432 0.0
C1344 C 0.26101 0.12898 0.06431 0.0
C1345 C 0.2632 0.13958 0.03058 0.0
C1346 C 0.28369 0.13928 0.94063 0.0
C1347 C 0.25899 0.15631 0.85706 0.0
C1348 C 0.26166 0.15056 0.89473 0.0
C1349 C 0.26397 0.12576 0.00076 0.0
C1350 C 0.26421 0.13581 0.96497 0.0
H1351 H 0.23205 0.18542 0.80692 0.0
H1352 H 0.2415 0.18074 0.86829 0.0
H1353 H 0.29812 0.14966 0.88791 0.0
H1354 H 0.25855 0.07135 0.04128 0.0
H1355 H 0.2631 0.0903 0.98234 0.0
C1356 C 0.88754 0.07264 0.81112 0.0
C1357 C 0.89028 0.09079 0.78472 0.0
C1358 C 0.89171 0.08012 0.84658 0.0
C1359 C 0.92786 0.13835 0.90232 0.0
H1360 H 0.88286 0.09317 0.97724 0.0
C1361 C 0.94502 0.17394 0.04558 0.0
C1362 C 0.94277 0.15611 0.07211 0.0
C1363 C 0.93644 0.16523 0.0113 0.0
C1364 C 0.89577 0.10587 0.95665 0.0
H1365 H 0.89885 0.13088 0.77504 0.0
H1366 H 0.90636 0.14403 0.83716 0.0
H1367 H 0.87151 0.07961 0.91564 0.0
H1368 H 0.92914 0.11498 0.08369 0.0
H1369 H 0.91463 0.0997 0.02317 0.0
H1370 H 0.95249 0.16432 0.94294 0.0
C1371 C 0.90111 0.12403 0.83022 0.0
C1372 C 0.88922 0.09815 0.9214 0.0
C1373 C 0.89671 0.11647 0.79469 0.0
C1374 C 0.93107 0.12916 0.06378 0.0
C1375 C 0.9227 0.12043 0.02917 0.0
C1376 C 0.93451 0.14597 0.93746 0.0
C1377 C 0.89889 0.10598 0.85647 0.0
C1378 C 0.90519 0.11437 0.89388 0.0
C1379 C 0.92568 0.13849 0.00241 0.0
C1380 C 0.9185 0.12991 0.96509 0.0
H1381 H 0.8824 0.05263 0.80439 0.0
H1382 H 0.89006 0.06585 0.86615 0.0
H1383 H 0.94085 0.151 0.88173 0.0
H1384 H 0.95358 0.1948 0.05118 0.0
H1385 H 0.9384 0.17959 0.99167 0.0
C1386 C 0.23263 0.06964 0.31118 0.0
C1387 C 0.24257 0.09011 0.28608 0.0
C1388 C 0.23427 0.07525 0.34718 0.0
C1389 C 0.26815 0.12865 0.41274 0.0
H1390 H 0.20466 0.08759 0.46793 0.0
C1391 C 0.25129 0.1658 0.54391 0.0
C1392 C 0.24022 0.14807 0.57226 0.0
C1393 C 0.25265 0.15684 0.51043 0.0
C1394 C 0.22267 0.09893 0.45304 0.0
H1395 H 0.26282 0.13261 0.27929 0.0
H1396 H 0.26549 0.14241 0.34226 0.0
H1397 H 0.20582 0.07584 0.40642 0.0
H1398 H 0.22148 0.10684 0.58738 0.0
H1399 H 0.22381 0.09105 0.52827 0.0
H1400 H 0.2848 0.15207 0.45913 0.0
C1401 C 0.2566 0.12199 0.334 0.0
C1402 C 0.22335 0.09224 0.41781 0.0
C1403 C 0.25497 0.11639 0.29791 0.0
C1404 C 0.23016 0.12099 0.56612 0.0
C1405 C 0.23145 0.11196 0.53232 0.0
C1406 C 0.26746 0.13533 0.44792 0.0
C1407 C 0.24592 0.10146 0.35899 0.0
C1408 C 0.24595 0.10732 0.39711 0.0
C1409 C 0.24295 0.12989 0.50424 0.0
C1410 C 0.24454 0.12088 0.46823 0.0
H1411 H 0.22319 0.04916 0.30304 0.0
H1412 H 0.22627 0.05902 0.36579 0.0
H1413 H 0.28601 0.14033 0.3977 0.0
H1414 H 0.25912 0.18679 0.5475 0.0
H1415 H 0.26109 0.17107 0.48921 0.0
C1416 C 0.92899 0.16284 0.29649 0.0
C1417 C 0.95476 0.16983 0.28639 0.0
C1418 C 0.9217 0.15829 0.33207 0.0
C1419 C 0.94772 0.16786 0.42356 0.0
H1420 H 0.88451 0.10073 0.44075 0.0
C1421 C 0.92169 0.11684 0.5609 0.0
C1422 C 0.89487 0.10324 0.57022 0.0
C1423 C 0.92934 0.12739 0.52691 0.0
C1424 C 0.90199 0.11975 0.43653 0.0
H1425 H 0.99356 0.17941 0.30567 0.0
H1426 H 0.98086 0.17154 0.36747 0.0
H1427 H 0.89654 0.11649 0.38055 0.0
H1428 H 0.85518 0.09106 0.55156 0.0
H1429 H 0.86851 0.10985 0.49328 0.0
H1430 H 0.95323 0.17099 0.47969 0.0
C1431 C 0.96626 0.16946 0.3481 0.0
C1432 C 0.90884 0.12879 0.40198 0.0
C1433 C 0.97345 0.17374 0.31264 0.0
C1434 C 0.87601 0.10103 0.54522 0.0
C1435 C 0.88363 0.11173 0.51161 0.0
C1436 C 0.94077 0.15888 0.45826 0.0
C1437 C 0.94015 0.16099 0.35811 0.0
C1438 C 0.93185 0.15283 0.39508 0.0
C1439 C 0.91031 0.1247 0.50178 0.0
C1440 C 0.91787 0.13463 0.46511 0.0
H1441 H 0.9142 0.15977 0.27685 0.0
H1442 H 0.90149 0.15204 0.33916 0.0
H1443 H 0.96553 0.18654 0.41899 0.0
H1444 H 0.9367 0.11901 0.57962 0.0
H1445 H 0.95007 0.13712 0.52009 0.0
C1446 C 0.89502 0.78441 0.29407 0.0
C1447 C 0.87783 0.79345 0.2836 0.0
C1448 C 0.90102 0.78416 0.32976 0.0
C1449 C 0.88078 0.78759 0.42092 0.0
H1450 H 0.95586 0.82048 0.43997 0.0
C1451 C 0.92565 0.81163 0.56287 0.0
C1452 C 0.94528 0.80488 0.56914 0.0
C1453 C 0.91624 0.81079 0.52849 0.0
C1454 C 0.93481 0.81106 0.43512 0.0
H1455 H 0.8519 0.8074 0.30248 0.0
H1456 H 0.86236 0.80685 0.36471 0.0
H1457 H 0.94031 0.81505 0.37926 0.0
H1458 H 0.9705 0.79217 0.5441 0.0
H1459 H 0.95404 0.79048 0.48509 0.0
H1460 H 0.87537 0.78338 0.47702 0.0
C1461 C 0.87129 0.80012 0.34536 0.0
C1462 C 0.92591 0.80786 0.40033 0.0
C1463 C 0.86543 0.80055 0.30969 0.0
C1464 C 0.95541 0.79756 0.5404 0.0
C1465 C 0.94609 0.79675 0.50636 0.0
C1466 C 0.88971 0.79066 0.45588 0.0
C1467 C 0.88977 0.79272 0.35564 0.0
C1468 C 0.89882 0.79582 0.39282 0.0
C1469 C 0.92646 0.80337 0.4999 0.0
C1470 C 0.91682 0.80212 0.46328 0.0
H1471 H 0.90481 0.77871 0.27466 0.0
H1472 H 0.91502 0.77793 0.33706 0.0
H1473 H 0.85977 0.77828 0.41584 0.0
H1474 H 0.91746 0.81735 0.58445 0.0
H1475 H 0.90118 0.81615 0.52423 0.0
C1476 C 0.39841 0.91157 0.91659 0.0
C1477 C 0.38922 0.91507 0.88381 0.0
C1478 C 0.42389 0.92957 0.9287 0.0
C1479 C 0.48404 0.99598 0.90935 0.0
H1480 H 0.51834 0.96806 0.96921 0.0
C1481 C 0.59542 0.05752 0.94637 0.0
C1482 C 0.60034 0.06016 0.98302 0.0
C1483 C 0.57072 0.03837 0.93297 0.0
C1484 C 0.50905 0.97618 0.95252 0.0
H1485 H 0.39975 0.94047 0.83806 0.0
H1486 H 0.44444 0.97143 0.85831 0.0
H1487 H 0.47332 0.93909 0.94894 0.0
H1488 H 0.58361 0.04328 0.03387 0.0
H1489 H 0.54122 1.00893 0.01035 0.0
H1490 H 0.52045 0.03293 0.91222 0.0
C1491 C 0.43179 0.95528 0.87555 0.0
C1492 C 0.48296 0.9596 0.94108 0.0
C1493 C 0.40598 0.93751 0.86382 0.0
C1494 C 0.5807 0.04159 0.00552 0.0
C1495 C 0.55627 0.02204 0.99204 0.0
C1496 C 0.51034 1.01241 0.92024 0.0
C1497 C 0.44146 0.95136 0.90795 0.0
C1498 C 0.46975 0.96921 0.91962 0.0
C1499 C 0.55055 0.02087 0.95574 0.0
C1500 C 0.52313 1.00281 0.94224 0.0
H1501 H 0.38602 0.8944 0.93257 0.0
H1502 H 0.42985 0.92602 0.95425 0.0
H1503 H 0.47484 1.00457 0.89344 0.0
H1504 H 0.60979 0.07166 0.9282 0.0
H1505 H 0.56708 0.03785 0.90484 0.0
C1506 C 0.99684 0.55524 0.94484 0.0
C1507 C 0.9946 0.55773 0.98148 0.0
C1508 C 1.01555 0.54914 0.93141 0.0
C1509 C 0.07538 0.5443 0.95474 0.0
H1510 H 0.04672 0.48683 0.88709 0.0
C1511 C 0.13029 0.48743 0.92338 0.0
C1512 C 0.13102 0.4804 0.88803 0.0
C1513 C 0.11344 0.4968 0.93383 0.0
C1514 C 0.05525 0.50309 0.90565 0.0
H1515 H 1.0121 0.55825 0.03218 0.0
H1516 H 0.04509 0.54854 0.00886 0.0
H1517 H 1.02042 0.50659 0.90522 0.0
H1518 H 0.1135 0.47687 0.8363 0.0
H1519 H 0.08427 0.49322 0.85443 0.0
H1520 H 0.11015 0.54082 0.95531 0.0
C1521 C 0.03223 0.55091 0.9904 0.0
C1522 C 0.04013 0.51453 0.916 0.0
C1523 C 1.01336 0.55669 0.00383 0.0
C1524 C 0.11339 0.4818 0.86383 0.0
C1525 C 0.09659 0.49129 0.87427 0.0
C1526 C 0.09051 0.53292 0.94433 0.0
C1527 C 0.03283 0.54585 0.95418 0.0
C1528 C 0.04987 0.53517 0.94096 0.0
C1529 C 0.09683 0.49959 0.90926 0.0
C1530 C 0.08061 0.51193 0.91989 0.0
H1531 H 0.98262 0.55561 0.92675 0.0
H1532 H 1.01572 0.5459 0.90329 0.0
H1533 H 0.08375 0.56035 0.97362 0.0
H1534 H 0.14347 0.48659 0.94286 0.0
H1535 H 0.11379 0.50228 0.9612 0.0
C1536 C 0.57192 0.64527 0.87518 0.0
C1537 C 0.55664 0.65734 0.88152 0.0
C1538 C 0.56406 0.61983 0.88863 0.0
C1539 C 0.51826 0.57063 0.95568 0.0
H1540 H 0.52949 0.52063 0.9024 0.0
C1541 C 0.50221 0.47266 0.01618 0.0
C1542 C 0.49646 0.45108 0.99418 0.0
C1543 C 0.50581 0.49643 0.00213 0.0
C1544 C 0.52575 0.53414 0.91746 0.0
H1545 H 0.52104 0.65165 0.90745 0.0
H1546 H 0.50737 0.60811 0.92948 0.0
H1547 H 0.54504 0.56486 0.8789 0.0
H1548 H 0.48824 0.43714 0.94025 0.0
H1549 H 0.49322 0.47815 0.91574 0.0
H1550 H 0.49832 0.53991 0.99369 0.0
C1551 C 0.52572 0.61815 0.91499 0.0
C1552 C 0.53518 0.55982 0.9042 0.0
C1553 C 0.53358 0.64335 0.90192 0.0
C1554 C 0.4919 0.45308 0.95812 0.0
C1555 C 0.49555 0.47695 0.94393 0.0
C1556 C 0.50867 0.545 0.96874 0.0
C1557 C 0.54072 0.60583 0.90872 0.0
C1558 C 0.53159 0.57854 0.9231 0.0
C1559 C 0.50381 0.49942 0.9655 0.0
C1560 C 0.51234 0.52628 0.95003 0.0
H1561 H 0.58971 0.65528 0.85953 0.0
H1562 H 0.57636 0.61123 0.88341 0.0
H1563 H 0.51536 0.58436 0.97154 0.0
H1564 H 0.5067 0.47208 0.04385 0.0
H1565 H 0.51232 0.51307 0.01983 0.0
C1566 C 0.9907 0.4537 0.44654 0.0
C1567 C 0.98848 0.44909 0.48324 0.0
C1568 C 1.0096 0.47832 0.43283 0.0
C1569 C 0.0717 0.54046 0.45215 0.0
H1570 H 0.04323 0.57336 0.39074 0.0
C1571 C 0.13518 0.65088 0.41551 0.0
C1572 C 0.13213 0.65955 0.3821 0.0
C1573 C 0.11736 0.62539 0.42756 0.0
C1574 C 0.05182 0.56451 0.40734 0.0
H1575 H 1.00572 0.46636 0.53387 0.0
H1576 H 0.03953 0.50868 0.50984 0.0
H1577 H 1.01503 0.52796 0.41024 0.0
H1578 H 0.10757 0.64808 0.33526 0.0
H1579 H 0.07691 0.60337 0.35554 0.0
H1580 H 0.10862 0.5764 0.44867 0.0
C1581 C 1.02636 0.49342 0.49171 0.0
C1582 C 0.0355 0.53834 0.41862 0.0
C1583 C 1.00709 0.46904 0.50549 0.0
C1584 C 0.11025 0.64223 0.36141 0.0
C1585 C 0.09264 0.61644 0.37316 0.0
C1586 C 0.08816 0.56644 0.44039 0.0
C1587 C 1.0272 0.49877 0.45534 0.0
C1588 C 0.04514 0.52603 0.44146 0.0
C1589 C 0.09616 0.60734 0.40623 0.0
C1590 C 0.07848 0.57915 0.41811 0.0
H1591 H 0.9765 0.43908 0.42856 0.0
H1592 H 1.00987 0.48165 0.40466 0.0
H1593 H 0.07987 0.53155 0.46945 0.0
H1594 H 0.15182 0.66372 0.43215 0.0
H1595 H 0.12054 0.61982 0.45359 0.0
C1596 C 0.59607 0.55328 0.45638 0.0
C1597 C 0.60037 0.55262 0.49285 0.0
C1598 C 0.5715 0.5486 0.44345 0.0
C1599 C 0.50136 0.51299 0.4727 0.0
H1600 H 0.48785 0.53648 0.38335 0.0
C1601 C 0.3955 0.48427 0.42629 0.0
C1602 C 0.38919 0.47968 0.39011 0.0
C1603 C 0.42136 0.49341 0.43838 0.0
C1604 C 0.49126 0.52945 0.4082 0.0
H1605 H 0.58305 0.54909 0.54428 0.0
H1606 H 0.54113 0.54296 0.52214 0.0
H1607 H 0.53313 0.55575 0.40534 0.0
H1608 H 0.40548 0.48058 0.33845 0.0
H1609 H 0.45049 0.49617 0.3596 0.0
H1610 H 0.45961 0.48667 0.47557 0.0
C1611 C 0.55624 0.546 0.50325 0.0
C1612 C 0.51732 0.54063 0.42092 0.0
C1613 C 0.58064 0.55033 0.51609 0.0
C1614 C 0.40942 0.4836 0.36653 0.0
C1615 C 0.4354 0.49295 0.37863 0.0
C1616 C 0.47538 0.50192 0.46006 0.0
C1617 C 0.55068 0.5434 0.46675 0.0
C1618 C 0.52282 0.53262 0.45347 0.0
C1619 C 0.44187 0.49844 0.41469 0.0
C1620 C 0.46985 0.50994 0.42762 0.0
H1621 H 0.61048 0.55412 0.43773 0.0
H1622 H 0.56821 0.54679 0.4152 0.0
H1623 H 0.50459 0.50559 0.49732 0.0
H1624 H 0.38058 0.48168 0.44528 0.0
H1625 H 0.42544 0.49754 0.46627 0.0
C1626 C 0.56331 0.93326 0.35929 0.0
C1627 C 0.56557 0.91588 0.383 0.0
C1628 C 0.554 0.95004 0.37062 0.0
C1629 C 0.515 0.95722 0.4438 0.0
H1630 H 0.5391 0.02624 0.40267 0.0
C1631 C 0.49131 0.05008 0.4453 0.0
C1632 C 0.49033 0.0533 0.48203 0.0
C1633 C 0.4973 0.0313 0.43167 0.0
C1634 C 0.53179 1.00683 0.41409 0.0
H1635 H 0.56093 0.90378 0.43786 0.0
H1636 H 0.54565 0.93348 0.45775 0.0
H1637 H 0.55829 0.99972 0.38321 0.0
H1638 H 0.49251 0.03747 0.53285 0.0
H1639 H 0.50192 1.00431 0.50925 0.0
H1640 H 0.48885 0.96459 0.47513 0.0
C1641 C 0.5503 0.93365 0.43008 0.0
C1642 C 0.5429 0.99156 0.40294 0.0
C1643 C 0.55945 0.91677 0.41872 0.0
C1644 C 0.49285 0.03543 0.50445 0.0
C1645 C 0.49847 1.01647 0.49084 0.0
C1646 C 0.50401 0.97254 0.45506 0.0
C1647 C 0.54675 0.9501 0.40608 0.0
C1648 C 0.53484 0.96654 0.41778 0.0
C1649 C 0.50195 1.01488 0.45434 0.0
C1650 C 0.51231 0.99766 0.44054 0.0
H1651 H 0.56749 0.93302 0.33151 0.0
H1652 H 0.55145 0.96216 0.35113 0.0
H1653 H 0.50768 0.93788 0.45538 0.0
H1654 H 0.4898 0.06358 0.42711 0.0
H1655 H 0.49932 0.03038 0.40338 0.0
C1656 C 0.24722 0.37091 0.34844 0.0
C1657 C 0.26742 0.38818 0.32563 0.0
C1658 C 0.22284 0.35118 0.33511 0.0
C1659 C 0.18473 0.31863 0.2517 0.0
H1660 H 0.1265 0.31439 0.30564 0.0
C1661 C 0.07736 0.26945 0.19514 0.0
C1662 C 0.05683 0.25273 0.21808 0.0
C1663 C 0.10323 0.28567 0.20787 0.0
C1664 C 0.14242 0.31506 0.2903 0.0
H1665 H 0.27845 0.39658 0.27078 0.0
H1666 H 0.23618 0.3624 0.24734 0.0
H1667 H 0.17125 0.33995 0.3283 0.0
H1668 H 0.04761 0.24096 0.27283 0.0
H1669 H 0.09227 0.26937 0.29496 0.0
H1670 H 0.15563 0.29404 0.21334 0.0
C1671 C 0.23903 0.36376 0.27567 0.0
C1672 C 0.16828 0.32967 0.30347 0.0
C1673 C 0.26359 0.38325 0.28913 0.0
C1674 C 0.06275 0.25364 0.25432 0.0
C1675 C 0.0885 0.27 0.26706 0.0
C1676 C 0.15879 0.30408 0.23841 0.0
C1677 C 0.21774 0.34839 0.29848 0.0
C1678 C 0.18996 0.33167 0.28455 0.0
C1679 C 0.10931 0.28589 0.24398 0.0
C1680 C 0.13719 0.30201 0.25756 0.0
H1681 H 0.24925 0.37447 0.37666 0.0
H1682 H 0.20742 0.33925 0.35372 0.0
H1683 H 0.20066 0.31939 0.2363 0.0
H1684 H 0.07375 0.26914 0.16703 0.0
H1685 H 0.11856 0.29786 0.18929 0.0
C1686 C 0.67373 0.88351 0.33477 0.0
C1687 C 0.65486 0.88435 0.31248 0.0
C1688 C 0.69421 0.88033 0.32082 0.0
C1689 C 0.70416 0.8463 0.24697 0.0
H1690 H 0.777 0.88003 0.27798 0.0
C1691 C 0.77776 0.81529 0.19076 0.0
C1692 C 0.79931 0.81925 0.21176 0.0
C1693 C 0.76056 0.82411 0.20217 0.0
C1694 C 0.75661 0.86991 0.2694 0.0
H1695 H 0.64353 0.88366 0.25789 0.0
H1696 H 0.67922 0.8782 0.2335 0.0
H1697 H 0.74852 0.89652 0.29878 0.0
H1698 H 0.8189 0.8344 0.26192 0.0
H1699 H 0.78827 0.84807 0.2828 0.0
H1700 H 0.71156 0.81889 0.21898 0.0
C1701 C 0.67835 0.88027 0.26181 0.0
C1702 C 0.74033 0.87968 0.28115 0.0
C1703 C 0.65824 0.88405 0.27576 0.0
C1704 C 0.80249 0.83106 0.24507 0.0
C1705 C 0.78505 0.83934 0.25679 0.0
C1706 C 0.72026 0.83619 0.23575 0.0
C1707 C 0.69591 0.87722 0.28425 0.0
C1708 C 0.71388 0.86802 0.27011 0.0
C1709 C 0.76417 0.83676 0.23519 0.0
C1710 C 0.74681 0.84771 0.24686 0.0
H1711 H 0.67111 0.88267 0.36314 0.0
H1712 H 0.70729 0.87796 0.3389 0.0
H1713 H 0.68374 0.83652 0.2384 0.0
H1714 H 0.77504 0.80672 0.16467 0.0
H1715 H 0.74507 0.82188 0.18433 0.0
C1716 C 0.15825 0.79789 0.33129 0.0
C1717 C 0.15916 0.77942 0.30848 0.0
C1718 C 0.16328 0.82255 0.31877 0.0
C1719 C 0.17696 0.86398 0.23625 0.0
H1720 H 0.21611 0.92111 0.30249 0.0
C1721 C 0.2339 0.97511 0.19472 0.0
C1722 C 0.22771 0.99148 0.21484 0.0
C1723 C 0.22581 0.94919 0.20584 0.0
C1724 C 0.20515 0.90538 0.28368 0.0
H1725 H 0.16435 0.77191 0.25394 0.0
H1726 H 0.17384 0.81489 0.23226 0.0
H1727 H 0.19889 0.87571 0.32145 0.0
H1728 H 0.20904 0.99385 0.26287 0.0
H1729 H 0.196 0.94925 0.28296 0.0
H1730 H 0.1843 0.8942 0.19819 0.0
C1731 C 0.16873 0.81037 0.2598 0.0
C1732 C 0.19492 0.87916 0.29463 0.0
C1733 C 0.16307 0.78544 0.27224 0.0
C1734 C 0.21436 0.98181 0.247 0.0
C1735 C 0.20682 0.95622 0.25845 0.0
C1736 C 0.18763 0.89031 0.22514 0.0
C1737 C 0.17008 0.82981 0.28316 0.0
C1738 C 0.18042 0.8579 0.27124 0.0
C1739 C 0.21186 0.93933 0.23765 0.0
C1740 C 0.20172 0.91134 0.24879 0.0
H1741 H 0.15544 0.79395 0.35937 0.0
H1742 H 0.16301 0.83636 0.33753 0.0
H1743 H 0.16572 0.84844 0.21737 0.0
H1744 H 0.24371 0.9818 0.16951 0.0
H1745 H 0.23014 0.93672 0.18932 0.0
C1746 C 0.79617 0.98564 0.75409 0.0
C1747 C 0.79675 0.99226 0.71819 0.0
C1748 C 0.77894 0.95994 0.76616 0.0
C1749 C 0.74201 0.89049 0.73464 0.0
H1750 H 0.70722 0.87716 0.82528 0.0
C1751 C 0.66286 0.785 0.78195 0.0
C1752 C 0.659 0.78006 0.8185 0.0
C1753 C 0.68152 0.81011 0.76928 0.0
C1754 C 0.71714 0.88037 0.80017 0.0
H1755 H 0.77869 0.97674 0.66716 0.0
H1756 H 0.74859 0.9321 0.68826 0.0
H1757 H 0.73391 0.9223 0.80451 0.0
H1758 H 0.67393 0.79705 0.87004 0.0
H1759 H 0.70738 0.84002 0.84812 0.0
H1760 H 0.72543 0.84856 0.73039 0.0
C1761 C 0.7617 0.9468 0.70706 0.0
C1762 C 0.7324 0.90644 0.78813 0.0
C1763 C 0.77876 0.9726 0.69503 0.0
C1764 C 0.67626 0.80008 0.84176 0.0
C1765 C 0.69514 0.82501 0.82911 0.0
C1766 C 0.72687 0.86438 0.7468 0.0
C1767 C 0.76189 0.93993 0.74269 0.0
C1768 C 0.74507 0.91195 0.75517 0.0
C1769 C 0.6972 0.83089 0.79276 0.0
C1770 C 0.71418 0.85883 0.77984 0.0
H1771 H 0.80979 1.00011 0.77273 0.0
H1772 H 0.77983 0.95549 0.79373 0.0
H1773 H 0.75176 0.8939 0.70935 0.0
H1774 H 0.64983 0.77028 0.76312 0.0
H1775 H 0.68234 0.81361 0.74112 0.0
C1776 C 0.0743 0.81687 0.69406 0.0
C1777 C 0.05399 0.81323 0.71726 0.0
C1778 C 0.0999 0.8252 0.70664 0.0
C1779 C 0.14354 0.85819 0.78502 0.0
H1780 H 0.18989 0.83821 0.73847 0.0
C1781 C 0.2605 0.8846 0.78409 0.0
C1782 C 0.26436 0.88174 0.8202 0.0
C1783 C 0.23569 0.87921 0.77139 0.0
C1784 C 0.17734 0.8443 0.75151 0.0
H1785 H 0.04465 0.81421 0.77236 0.0
H1786 H 0.0888 0.82755 0.79444 0.0
H1787 H 0.14466 0.82018 0.71765 0.0
H1788 H 0.24558 0.87305 0.87146 0.0
H1789 H 0.20272 0.86465 0.84954 0.0
H1790 H 0.17621 0.88172 0.81953 0.0
C1791 C 0.08528 0.8249 0.76627 0.0
C1792 C 0.15126 0.83392 0.73955 0.0
C1793 C 0.05974 0.81686 0.75364 0.0
C1794 C 0.24342 0.87571 0.84357 0.0
C1795 C 0.21874 0.87072 0.83094 0.0
C1796 C 0.16955 0.86834 0.79722 0.0
C1797 C 0.10599 0.82989 0.74291 0.0
C1798 C 0.13385 0.84066 0.75608 0.0
C1799 C 0.21422 0.87127 0.7945 0.0
C1800 C 0.18684 0.86157 0.78061 0.0
H1801 H 0.07083 0.81463 0.66584 0.0
H1802 H 0.11514 0.82901 0.68757 0.0
H1803 H 0.13114 0.86444 0.79811 0.0
H1804 H 0.27595 0.8888 0.76516 0.0
H1805 H 0.23304 0.88024 0.74323 0.0
C1806 C 0.23002 0.25199 0.75584 0.0
C1807 C 0.23368 0.25017 0.71942 0.0
C1808 C 0.22151 0.26902 0.76869 0.0
C1809 C 0.18513 0.3033 0.74085 0.0
H1810 H 0.21189 0.3413 0.82881 0.0
C1811 C 0.1619 0.38432 0.79039 0.0
C1812 C 0.16408 0.39009 0.8267 0.0
C1813 C 0.16655 0.36448 0.77729 0.0
C1814 C 0.20366 0.33045 0.80455 0.0
H1815 H 0.2318 0.26574 0.66817 0.0
H1816 H 0.21724 0.29559 0.6906 0.0
H1817 H 0.22981 0.31466 0.80607 0.0
H1818 H 0.17039 0.37776 0.87788 0.0
H1819 H 0.17633 0.34196 0.85566 0.0
H1820 H 0.15889 0.31904 0.73941 0.0
C1821 C 0.22074 0.2836 0.70924 0.0
C1822 C 0.21418 0.31522 0.79133 0.0
C1823 C 0.22951 0.26672 0.69639 0.0
C1824 C 0.16797 0.3735 0.84984 0.0
C1825 C 0.17221 0.35343 0.83688 0.0
C1826 C 0.17446 0.31845 0.7542 0.0
C1827 C 0.21613 0.28467 0.74555 0.0
C1828 C 0.20514 0.3014 0.75924 0.0
C1829 C 0.1732 0.34964 0.80027 0.0
C1830 C 0.18352 0.3323 0.78636 0.0
H1831 H 0.2328 0.23948 0.77444 0.0
H1832 H 0.21809 0.26908 0.79676 0.0
H1833 H 0.17732 0.29268 0.71632 0.0
H1834 H 0.15968 0.39716 0.77176 0.0
H1835 H 0.16706 0.36239 0.74896 0.0
C1836 C 0.74227 0.59993 0.52987 0.0
C1837 C 0.72281 0.58372 0.55436 0.0
C1838 C 0.76846 0.61678 0.54068 0.0
C1839 C 0.81496 0.62659 0.61526 0.0
H1840 H 0.85977 0.69336 0.56882 0.0
C1841 C 0.91442 0.70979 0.67211 0.0
C1842 C 0.9343 0.7265 0.64852 0.0
C1843 C 0.8904 0.68894 0.65964 0.0
C1844 C 0.8477 0.67455 0.58172 0.0
H1845 H 0.71567 0.57376 0.60989 0.0
H1846 H 0.76085 0.60376 0.62889 0.0
H1847 H 0.81402 0.66632 0.55003 0.0
H1848 H 0.94512 0.73333 0.5934 0.0
H1849 H 0.90354 0.69658 0.57154 0.0
H1850 H 0.8486 0.63538 0.64767 0.0
C1851 C 0.75618 0.60288 0.60106 0.0
C1852 C 0.8213 0.65898 0.57096 0.0
C1853 C 0.73006 0.58586 0.59021 0.0
C1854 C 0.93057 0.72032 0.61235 0.0
C1855 C 0.90642 0.69964 0.59978 0.0
C1856 C 0.84132 0.64229 0.62622 0.0
C1857 C 0.776 0.61814 0.57638 0.0
C1858 C 0.80439 0.63479 0.58768 0.0
C1859 C 0.88553 0.68452 0.62316 0.0
C1860 C 0.85807 0.66656 0.60971 0.0
H1861 H 0.73762 0.59863 0.50198 0.0
H1862 H 0.783 0.62792 0.52067 0.0
H1863 H 0.80294 0.60788 0.62838 0.0
H1864 H 0.91633 0.7146 0.69999 0.0
H1865 H 0.87484 0.67787 0.67849 0.0
C1866 C 0.32717 0.21774 0.61823 0.0
C1867 C 0.31873 0.21168 0.65349 0.0
C1868 C 0.34756 0.21383 0.60533 0.0
C1869 C 0.37483 0.16984 0.62263 0.0
H1870 H 0.42991 0.21376 0.55665 0.0
C1871 C 0.44097 0.13513 0.54953 0.0
C1872 C 0.46822 0.15351 0.54975 0.0
C1873 C 0.42258 0.14241 0.56136 0.0
C1874 C 0.41459 0.20121 0.57504 0.0
H1875 H 0.32634 0.1984 0.70317 0.0
H1876 H 0.36218 0.19239 0.68119 0.0
H1877 H 0.4005 0.22875 0.57976 0.0
H1878 H 0.49709 0.19424 0.56238 0.0
H1879 H 0.46542 0.20664 0.58215 0.0
H1880 H 0.38881 0.14225 0.6178 0.0
C1881 C 0.35293 0.19984 0.66328 0.0
C1882 C 0.39766 0.2098 0.58819 0.0
C1883 C 0.33278 0.20392 0.67615 0.0
C1884 C 0.47639 0.1793 0.56191 0.0
C1885 C 0.45813 0.18661 0.57303 0.0
C1886 C 0.39148 0.16107 0.60906 0.0
C1887 C 0.35976 0.20349 0.62732 0.0
C1888 C 0.37776 0.19442 0.61259 0.0
C1889 C 0.43095 0.16839 0.57294 0.0
C1890 C 0.41183 0.17675 0.58539 0.0
H1891 H 0.31617 0.22277 0.59974 0.0
H1892 H 0.35227 0.21688 0.57748 0.0
H1893 H 0.35946 0.15722 0.6409 0.0
H1894 H 0.43387 0.11518 0.54027 0.0
H1895 H 0.40176 0.12784 0.56085 0.0
C1896 C 0.89023 0.31881 0.59011 0.0
C1897 C 0.89948 0.32651 0.55545 0.0
C1898 C 0.88319 0.29354 0.6026 0.0
C1899 C 0.857 0.22543 0.57272 0.0
H1900 H 0.88024 0.21414 0.66366 0.0
C1901 C 0.83514 0.12132 0.61928 0.0
C1902 C 0.83684 0.11672 0.65537 0.0
C1903 C 0.83959 0.146 0.60736 0.0
C1904 C 0.87288 0.21665 0.63856 0.0
H1905 H 0.90858 0.3135 0.5067 0.0
H1906 H 0.89581 0.26902 0.52834 0.0
H1907 H 0.89619 0.25886 0.64258 0.0
H1908 H 0.84282 0.13393 0.70738 0.0
H1909 H 0.84796 0.17587 0.6873 0.0
H1910 H 0.83294 0.18341 0.56896 0.0
C1911 C 0.89439 0.28281 0.546 0.0
C1912 C 0.8824 0.24251 0.62628 0.0
C1913 C 0.90206 0.3084 0.53375 0.0
C1914 C 0.84066 0.13656 0.67948 0.0
C1915 C 0.84447 0.16102 0.66769 0.0
C1916 C 0.84702 0.19951 0.58528 0.0
C1917 C 0.88452 0.27495 0.58047 0.0
C1918 C 0.87476 0.24728 0.59311 0.0
C1919 C 0.84552 0.16675 0.63128 0.0
C1920 C 0.85486 0.19456 0.61842 0.0
H1921 H 0.88766 0.33216 0.60731 0.0
H1922 H 0.87558 0.28816 0.62918 0.0
H1923 H 0.85037 0.22839 0.54727 0.0
H1924 H 0.83323 0.10684 0.59992 0.0
H1925 H 0.84035 0.14922 0.57916 0.0
C1926 C 0.32757 0.12129 0.11998 0.0
C1927 C 0.32174 0.11697 0.15628 0.0
C1928 C 0.34658 0.14627 0.1075 0.0
C1929 C 0.40239 0.21204 0.13408 0.0
H1930 H 0.37856 0.23795 0.05606 0.0
C1931 C 0.4603 0.32228 0.0939 0.0
C1932 C 0.46241 0.32861 0.05775 0.0
C1933 C 0.44282 0.29659 0.10573 0.0
C1934 C 0.38583 0.23106 0.07754 0.0
H1935 H 0.33302 0.13521 0.20792 0.0
H1936 H 0.36668 0.17836 0.18631 0.0
H1937 H 0.35142 0.19253 0.07596 0.0
H1938 H 0.44699 0.31265 0.00584 0.0
H1939 H 0.41693 0.268 0.02622 0.0
H1940 H 0.43692 0.25033 0.13552 0.0
C1941 C 0.35634 0.16255 0.16741 0.0
C1942 C 0.37018 0.20487 0.08897 0.0
C1943 C 0.33709 0.1377 0.17987 0.0
C1944 C 0.44571 0.30872 0.03393 0.0
C1945 C 0.42841 0.28294 0.04572 0.0
C1946 C 0.41817 0.23815 0.12245 0.0
C1947 C 0.3606 0.16749 0.13096 0.0
C1948 C 0.37815 0.195 0.11754 0.0
C1949 C 0.42708 0.27627 0.08176 0.0
C1950 C 0.41009 0.24822 0.09412 0.0
H1951 H 0.31604 0.10601 0.10087 0.0
H1952 H 0.34962 0.1492 0.07929 0.0
H1953 H 0.40933 0.2051 0.15592 0.0
H1954 H 0.47279 0.33704 0.11307 0.0
H1955 H 0.44199 0.29264 0.13376 0.0
C1956 C 0.92918 0.22173 0.11483 0.0
C1957 C 0.9348 0.22283 0.15113 0.0
C1958 C 0.90442 0.21709 0.10285 0.0
C1959 C 0.83495 0.18794 0.13718 0.0
H1960 H 0.82038 0.20186 0.0421 0.0
C1961 C 0.73093 0.16562 0.0888 0.0
C1962 C 0.72224 0.15369 0.05547 0.0
C1963 C 0.75667 0.17391 0.10075 0.0
C1964 C 0.82411 0.19762 0.06867 0.0
H1965 H 0.91946 0.22224 0.20311 0.0
H1966 H 0.87753 0.21692 0.18252 0.0
H1967 H 0.86601 0.22083 0.06217 0.0
H1968 H 0.73407 0.14116 0.00858 0.0
H1969 H 0.77928 0.15603 0.02924 0.0
H1970 H 0.79289 0.1654 0.14378 0.0
C1971 C 0.89157 0.21818 0.163 0.0
C1972 C 0.85042 0.20851 0.08031 0.0
C1973 C 0.91612 0.22218 0.17494 0.0
C1974 C 0.7399 0.14978 0.03466 0.0
C1975 C 0.76593 0.15865 0.04631 0.0
C1976 C 0.80871 0.1775 0.12573 0.0
C1977 C 0.8846 0.21388 0.12687 0.0
C1978 C 0.85641 0.20378 0.11479 0.0
C1979 C 0.77477 0.17115 0.07936 0.0
C1980 C 0.80287 0.18201 0.09126 0.0
H1981 H 0.9427 0.22121 0.0958 0.0
H1982 H 0.90026 0.21389 0.07488 0.0
H1983 H 0.83822 0.18295 0.16351 0.0
H1984 H 0.71797 0.16924 0.1053 0.0
H1985 H 0.76275 0.18354 0.12622 0.0
C1986 C 0.88667 0.57957 0.08451 0.0
C1987 C 0.89878 0.58254 0.05148 0.0
C1988 C 0.87842 0.59717 0.09565 0.0
C1989 C 0.85584 0.64161 0.06185 0.0
H1990 H 0.86897 0.66916 0.15724 0.0
C1991 C 0.82874 0.72035 0.10889 0.0
C1992 C 0.82551 0.72286 0.14526 0.0
C1993 C 0.83523 0.70163 0.09648 0.0
C1994 C 0.86448 0.66127 0.1307 0.0
H1995 H 0.91182 0.60664 0.00432 0.0
H1996 H 0.89707 0.63732 0.02362 0.0
H1997 H 0.88683 0.64158 0.13807 0.0
H1998 H 0.82379 0.70562 0.19644 0.0
H1999 H 0.83287 0.67177 0.17477 0.0
H2000 H 0.83287 0.6606 0.05461 0.0
C2001 C 0.89418 0.62137 0.04101 0.0
C2002 C 0.87506 0.64558 0.1196 0.0
C2003 C 0.90294 0.604 0.03013 0.0
C2004 C 0.82614 0.70429 0.16829 0.0
C2005 C 0.83201 0.68521 0.15582 0.0
C2006 C 0.84487 0.657 0.07311 0.0
C2007 C 0.88153 0.618 0.07379 0.0
C2008 C 0.87094 0.63553 0.08504 0.0
C2009 C 0.83807 0.68442 0.11997 0.0
C2010 C 0.84896 0.66712 0.10782 0.0
H2011 H 0.88295 0.56314 0.1015 0.0
H2012 H 0.86866 0.59383 0.12093 0.0
H2013 H 0.85197 0.63393 0.03516 0.0
H2014 H 0.82872 0.73442 0.09029 0.0
H2015 H 0.83968 0.70195 0.06873 0.0
loop_
_geom_bond_atom_site_label_1
_geom_bond_atom_site_label_2
_geom_bond_distance
_geom_bond_site_symmetry_2
_ccdc_geom_bond_type
Fe0 O2 1.918 1_556 S
Fe0 O5 1.997 . S
Fe0 O6 2.002 . S
Fe0 O11 1.976 . S
Fe0 O14 1.996 1_556 S
Fe1 O2 1.918 . S
Fe1 O9 1.997 1_554 S
Fe1 O12 1.996 1_554 S
Fe1 O16 1.976 . S
Fe1 O19 2.002 . S
O2 Fe0 1.918 1_554 S
O2 Fe1 1.918 . S
O2 Fe3 1.918 . S
Fe3 O2 1.918 . S
Fe3 O4 2.002 . S
Fe3 O13 1.976 . S
Fe3 O17 1.996 . S
Fe3 O20 1.997 . S
O4 Fe3 2.002 . S
O4 C21 1.295 1_554 S
O5 Fe0 1.997 . S
O5 C21 1.235 . S
O6 Fe0 2.002 . S
O6 C7 1.295 . S
C7 O6 1.295 . S
C7 O9 1.235 . S
C8 O13 1.287 . S
C8 O14 1.255 . S
O9 Fe1 1.997 1_556 S
O9 C7 1.235 . S
C10 O16 1.287 . S
C10 O17 1.255 . S
O11 Fe0 1.976 . S
O11 C18 1.287 . S
O12 Fe1 1.996 1_556 S
O12 C18 1.255 . S
O13 Fe3 1.976 . S
O13 C8 1.287 . S
O14 Fe0 1.996 1_554 S
O14 C8 1.255 . S
C15 O19 1.295 . S
C15 O20 1.235 . S
O16 Fe1 1.976 . S
O16 C10 1.287 . S
O17 Fe3 1.996 . S
O17 C10 1.255 . S
C18 O11 1.287 . S
C18 O12 1.255 . S
O19 Fe1 2.002 . S
O19 C15 1.295 . S
O20 Fe3 1.997 . S
O20 C15 1.235 . S
C21 O4 1.295 1_556 S
C21 O5 1.235 . S
Fe22 O24 1.918 1_556 S
Fe22 O27 1.997 . S
Fe22 O28 2.002 . S
Fe22 O33 1.976 . S
Fe22 O36 1.996 1_556 S
Fe23 O24 1.918 . S
Fe23 O31 1.997 1_554 S
Fe23 O34 1.996 1_554 S
Fe23 O38 1.976 . S
Fe23 O41 2.002 . S
O24 Fe22 1.918 1_554 S
O24 Fe23 1.918 . S
O24 Fe25 1.918 . S
Fe25 O24 1.918 . S
Fe25 O26 2.002 . S
Fe25 O35 1.976 . S
Fe25 O39 1.996 . S
Fe25 O42 1.997 . S
O26 Fe25 2.002 . S
O26 C43 1.295 1_554 S
O27 Fe22 1.997 . S
O27 C43 1.235 . S
O28 Fe22 2.002 . S
O28 C29 1.295 . S
C29 O28 1.295 . S
C29 O31 1.235 . S
C30 O35 1.287 . S
C30 O36 1.255 . S
O31 Fe23 1.997 1_556 S
O31 C29 1.235 . S
C32 O38 1.287 . S
C32 O39 1.255 . S
O33 Fe22 1.976 . S
O33 C40 1.287 . S
O34 Fe23 1.996 1_556 S
O34 C40 1.255 . S
O35 Fe25 1.976 . S
O35 C30 1.287 . S
O36 Fe22 1.996 1_554 S
O36 C30 1.255 . S
C37 O41 1.295 . S
C37 O42 1.235 . S
O38 Fe23 1.976 . S
O38 C32 1.287 . S
O39 Fe25 1.996 . S
O39 C32 1.255 . S
C40 O33 1.287 . S
C40 O34 1.255 . S
O41 Fe23 2.002 . S
O41 C37 1.295 . S
O42 Fe25 1.997 . S
O42 C37 1.235 . S
C43 O26 1.295 1_556 S
C43 O27 1.235 . S
Fe44 O46 1.918 1_556 S
Fe44 O49 1.997 . S
Fe44 O50 2.002 . S
Fe44 O55 1.976 . S
Fe44 O58 1.996 1_556 S
Fe45 O46 1.918 . S
Fe45 O53 1.997 1_554 S
Fe45 O56 1.996 1_554 S
Fe45 O60 1.976 . S
Fe45 O63 2.002 . S
O46 Fe44 1.918 1_554 S
O46 Fe45 1.918 . S
O46 Fe47 1.918 . S
Fe47 O46 1.918 . S
Fe47 O48 2.002 . S
Fe47 O57 1.976 . S
Fe47 O61 1.996 . S
Fe47 O64 1.997 . S
O48 Fe47 2.002 . S
O48 C65 1.295 1_554 S
O49 Fe44 1.997 . S
O49 C65 1.235 . S
O50 Fe44 2.002 . S
O50 C51 1.295 . S
C51 O50 1.295 . S
C51 O53 1.235 . S
C52 O57 1.287 . S
C52 O58 1.255 . S
O53 Fe45 1.997 1_556 S
O53 C51 1.235 . S
C54 O60 1.287 . S
C54 O61 1.255 . S
O55 Fe44 1.976 . S
O55 C62 1.287 . S
O56 Fe45 1.996 1_556 S
O56 C62 1.255 . S
O57 Fe47 1.976 . S
O57 C52 1.287 . S
O58 Fe44 1.996 1_554 S
O58 C52 1.255 . S
C59 O63 1.295 . S
C59 O64 1.235 . S
O60 Fe45 1.976 . S
O60 C54 1.287 . S
O61 Fe47 1.996 . S
O61 C54 1.255 . S
C62 O55 1.287 . S
C62 O56 1.255 . S
O63 Fe45 2.002 . S
O63 C59 1.295 . S
O64 Fe47 1.997 . S
O64 C59 1.235 . S
C65 O48 1.295 1_556 S
C65 O49 1.235 . S
Fe66 O68 1.918 . S
Fe66 O71 1.997 . S
Fe66 O72 2.002 . S
Fe66 O77 1.976 . S
Fe66 O80 1.996 . S
Fe67 O68 1.918 . S
Fe67 O75 1.997 . S
Fe67 O78 1.996 . S
Fe67 O82 1.976 . S
Fe67 O85 2.002 . S
O68 Fe66 1.918 . S
O68 Fe67 1.918 . S
O68 Fe69 1.918 . S
Fe69 O68 1.918 . S
Fe69 O70 2.002 . S
Fe69 O79 1.976 . S
Fe69 O83 1.996 . S
Fe69 O86 1.997 . S
O70 Fe69 2.002 . S
O70 C87 1.295 . S
O71 Fe66 1.997 . S
O71 C87 1.235 . S
O72 Fe66 2.002 . S
O72 C73 1.295 . S
C73 O72 1.295 . S
C73 O75 1.235 . S
C74 O79 1.287 . S
C74 O80 1.255 . S
O75 Fe67 1.997 . S
O75 C73 1.235 . S
C76 O82 1.287 . S
C76 O83 1.255 . S
O77 Fe66 1.976 . S
O77 C84 1.287 . S
O78 Fe67 1.996 . S
O78 C84 1.255 . S
O79 Fe69 1.976 . S
O79 C74 1.287 . S
O80 Fe66 1.996 . S
O80 C74 1.255 . S
C81 O85 1.295 . S
C81 O86 1.235 . S
O82 Fe67 1.976 . S
O82 C76 1.287 . S
O83 Fe69 1.996 . S
O83 C76 1.255 . S
C84 O77 1.287 . S
C84 O78 1.255 . S
O85 Fe67 2.002 . S
O85 C81 1.295 . S
O86 Fe69 1.997 . S
O86 C81 1.235 . S
C87 O70 1.295 . S
C87 O71 1.235 . S
Fe88 O90 1.918 . S
Fe88 O93 1.997 . S
Fe88 O94 2.002 . S
Fe88 O99 1.976 . S
Fe88 O102 1.996 . S
Fe89 O90 1.918 . S
Fe89 O97 1.997 . S
Fe89 O100 1.996 . S
Fe89 O104 1.976 . S
Fe89 O107 2.002 . S
O90 Fe88 1.918 . S
O90 Fe89 1.918 . S
O90 Fe91 1.918 . S
Fe91 O90 1.918 . S
Fe91 O92 2.002 . S
Fe91 O101 1.976 . S
Fe91 O105 1.996 . S
Fe91 O108 1.997 . S
O92 Fe91 2.002 . S
O92 C109 1.295 . S
O93 Fe88 1.997 . S
O93 C109 1.235 . S
O94 Fe88 2.002 . S
O94 C95 1.295 . S
C95 O94 1.295 . S
C95 O97 1.235 . S
C96 O101 1.287 . S
C96 O102 1.255 . S
O97 Fe89 1.997 . S
O97 C95 1.235 . S
C98 O104 1.287 . S
C98 O105 1.255 . S
O99 Fe88 1.976 . S
O99 C106 1.287 . S
O100 Fe89 1.996 . S
O100 C106 1.255 . S
O101 Fe91 1.976 . S
O101 C96 1.287 . S
O102 Fe88 1.996 . S
O102 C96 1.255 . S
C103 O107 1.295 . S
C103 O108 1.235 . S
O104 Fe89 1.976 . S
O104 C98 1.287 . S
O105 Fe91 1.996 . S
O105 C98 1.255 . S
C106 O99 1.287 . S
C106 O100 1.255 . S
O107 Fe89 2.002 . S
O107 C103 1.295 . S
O108 Fe91 1.997 . S
O108 C103 1.235 . S
C109 O92 1.295 . S
C109 O93 1.235 . S
Fe110 O112 1.918 . S
Fe110 O115 1.997 . S
Fe110 O116 2.002 . S
Fe110 O121 1.976 . S
Fe110 O124 1.996 . S
Fe111 O112 1.918 . S
Fe111 O119 1.997 . S
Fe111 O122 1.996 . S
Fe111 O126 1.976 . S
Fe111 O129 2.002 . S
O112 Fe110 1.918 . S
O112 Fe111 1.918 . S
O112 Fe113 1.918 . S
Fe113 O112 1.918 . S
Fe113 O114 2.002 . S
Fe113 O123 1.976 . S
Fe113 O127 1.996 . S
Fe113 O130 1.997 . S
O114 Fe113 2.002 . S
O114 C131 1.295 . S
O115 Fe110 1.997 . S
O115 C131 1.235 . S
O116 Fe110 2.002 . S
O116 C117 1.295 . S
C117 O116 1.295 . S
C117 O119 1.235 . S
C118 O123 1.287 . S
C118 O124 1.255 . S
O119 Fe111 1.997 . S
O119 C117 1.235 . S
C120 O126 1.287 . S
C120 O127 1.255 . S
O121 Fe110 1.976 . S
O121 C128 1.287 . S
O122 Fe111 1.996 . S
O122 C128 1.255 . S
O123 Fe113 1.976 . S
O123 C118 1.287 . S
O124 Fe110 1.996 . S
O124 C118 1.255 . S
C125 O129 1.295 . S
C125 O130 1.235 . S
O126 Fe111 1.976 . S
O126 C120 1.287 . S
O127 Fe113 1.996 . S
O127 C120 1.255 . S
C128 O121 1.287 . S
C128 O122 1.255 . S
O129 Fe111 2.002 . S
O129 C125 1.295 . S
O130 Fe113 1.997 . S
O130 C125 1.235 . S
C131 O114 1.295 . S
C131 O115 1.235 . S
Fe132 O134 1.918 . S
Fe132 O137 1.997 . S
Fe132 O138 2.002 . S
Fe132 O143 1.976 . S
Fe132 O146 1.996 . S
Fe133 O134 1.918 . S
Fe133 O141 1.997 . S
Fe133 O144 1.996 . S
Fe133 O148 1.976 . S
Fe133 O151 2.002 . S
O134 Fe132 1.918 . S
O134 Fe133 1.918 . S
O134 Fe135 1.918 . S
Fe135 O134 1.918 . S
Fe135 O136 2.002 . S
Fe135 O145 1.976 . S
Fe135 O149 1.996 . S
Fe135 O152 1.997 . S
O136 Fe135 2.002 . S
O136 C153 1.295 . S
O137 Fe132 1.997 . S
O137 C153 1.235 . S
O138 Fe132 2.002 . S
O138 C139 1.295 . S
C139 O138 1.295 . S
C139 O141 1.235 . S
C140 O145 1.287 . S
C140 O146 1.255 . S
O141 Fe133 1.997 . S
O141 C139 1.235 . S
C142 O148 1.287 . S
C142 O149 1.255 . S
O143 Fe132 1.976 . S
O143 C150 1.287 . S
O144 Fe133 1.996 . S
O144 C150 1.255 . S
O145 Fe135 1.976 . S
O145 C140 1.287 . S
O146 Fe132 1.996 . S
O146 C140 1.255 . S
C147 O151 1.295 . S
C147 O152 1.235 . S
O148 Fe133 1.976 . S
O148 C142 1.287 . S
O149 Fe135 1.996 . S
O149 C142 1.255 . S
C150 O143 1.287 . S
C150 O144 1.255 . S
O151 Fe133 2.002 . S
O151 C147 1.295 . S
O152 Fe135 1.997 . S
O152 C147 1.235 . S
C153 O136 1.295 . S
C153 O137 1.235 . S
Fe154 O156 1.918 . S
Fe154 O159 1.997 . S
Fe154 O160 2.002 . S
Fe154 O165 1.976 . S
Fe154 O168 1.996 . S
Fe155 O156 1.918 . S
Fe155 O163 1.997 . S
Fe155 O166 1.996 . S
Fe155 O170 1.976 . S
Fe155 O173 2.002 . S
O156 Fe154 1.918 . S
O156 Fe155 1.918 . S
O156 Fe157 1.918 . S
Fe157 O156 1.918 . S
Fe157 O158 2.002 . S
Fe157 O167 1.976 . S
Fe157 O171 1.996 . S
Fe157 O174 1.997 . S
O158 Fe157 2.002 . S
O158 C175 1.295 . S
O159 Fe154 1.997 . S
O159 C175 1.235 . S
O160 Fe154 2.002 . S
O160 C161 1.295 . S
C161 O160 1.295 . S
C161 O163 1.235 . S
C162 O167 1.287 . S
C162 O168 1.255 . S
O163 Fe155 1.997 . S
O163 C161 1.235 . S
C164 O170 1.287 . S
C164 O171 1.255 . S
O165 Fe154 1.976 . S
O165 C172 1.287 . S
O166 Fe155 1.996 . S
O166 C172 1.255 . S
O167 Fe157 1.976 . S
O167 C162 1.287 . S
O168 Fe154 1.996 . S
O168 C162 1.255 . S
C169 O173 1.295 . S
C169 O174 1.235 . S
O170 Fe155 1.976 . S
O170 C164 1.287 . S
O171 Fe157 1.996 . S
O171 C164 1.255 . S
C172 O165 1.287 . S
C172 O166 1.255 . S
O173 Fe155 2.002 . S
O173 C169 1.295 . S
O174 Fe157 1.997 . S
O174 C169 1.235 . S
C175 O158 1.295 . S
C175 O159 1.235 . S
Fe176 O178 1.918 . S
Fe176 O181 1.997 . S
Fe176 O182 2.002 . S
Fe176 O187 1.976 . S
Fe176 O190 1.996 . S
Fe177 O178 1.918 . S
Fe177 O185 1.997 . S
Fe177 O188 1.996 . S
Fe177 O192 1.976 . S
Fe177 O195 2.002 . S
O178 Fe176 1.918 . S
O178 Fe177 1.918 . S
O178 Fe179 1.918 . S
Fe179 O178 1.918 . S
Fe179 O180 2.002 . S
Fe179 O189 1.976 . S
Fe179 O193 1.996 . S
Fe179 O196 1.997 . S
O180 Fe179 2.002 . S
O180 C197 1.295 . S
O181 Fe176 1.997 . S
O181 C197 1.235 . S
O182 Fe176 2.002 . S
O182 C183 1.295 . S
C183 O182 1.295 . S
C183 O185 1.235 . S
C184 O189 1.287 . S
C184 O190 1.255 . S
O185 Fe177 1.997 . S
O185 C183 1.235 . S
C186 O192 1.287 . S
C186 O193 1.255 . S
O187 Fe176 1.976 . S
O187 C194 1.287 . S
O188 Fe177 1.996 . S
O188 C194 1.255 . S
O189 Fe179 1.976 . S
O189 C184 1.287 . S
O190 Fe176 1.996 . S
O190 C184 1.255 . S
C191 O195 1.295 . S
C191 O196 1.235 . S
O192 Fe177 1.976 . S
O192 C186 1.287 . S
O193 Fe179 1.996 . S
O193 C186 1.255 . S
C194 O187 1.287 . S
C194 O188 1.255 . S
O195 Fe177 2.002 . S
O195 C191 1.295 . S
O196 Fe179 1.997 . S
O196 C191 1.235 . S
C197 O180 1.295 . S
C197 O181 1.235 . S
Fe198 O200 1.918 . S
Fe198 O203 1.997 . S
Fe198 O204 2.002 . S
Fe198 O209 1.976 . S
Fe198 O212 1.996 . S
Fe199 O200 1.918 . S
Fe199 O207 1.997 . S
Fe199 O210 1.996 . S
Fe199 O214 1.976 . S
Fe199 O217 2.002 . S
O200 Fe198 1.918 . S
O200 Fe199 1.918 . S
O200 Fe201 1.918 . S
Fe201 O200 1.918 . S
Fe201 O202 2.002 . S
Fe201 O211 1.976 . S
Fe201 O215 1.996 . S
Fe201 O218 1.997 . S
O202 Fe201 2.002 . S
O202 C219 1.295 . S
O203 Fe198 1.997 . S
O203 C219 1.235 . S
O204 Fe198 2.002 . S
O204 C205 1.295 . S
C205 O204 1.295 . S
C205 O207 1.235 . S
C206 O211 1.287 . S
C206 O212 1.255 . S
O207 Fe199 1.997 . S
O207 C205 1.235 . S
C208 O214 1.287 . S
C208 O215 1.255 . S
O209 Fe198 1.976 . S
O209 C216 1.287 . S
O210 Fe199 1.996 . S
O210 C216 1.255 . S
O211 Fe201 1.976 . S
O211 C206 1.287 . S
O212 Fe198 1.996 . S
O212 C206 1.255 . S
C213 O217 1.295 . S
C213 O218 1.235 . S
O214 Fe199 1.976 . S
O214 C208 1.287 . S
O215 Fe201 1.996 . S
O215 C208 1.255 . S
C216 O209 1.287 . S
C216 O210 1.255 . S
O217 Fe199 2.002 . S
O217 C213 1.295 . S
O218 Fe201 1.997 . S
O218 C213 1.235 . S
C219 O202 1.295 . S
C219 O203 1.235 . S
Fe220 O222 1.918 . S
Fe220 O225 1.997 . S
Fe220 O226 2.002 . S
Fe220 O231 1.976 . S
Fe220 O234 1.996 . S
Fe221 O222 1.918 . S
Fe221 O229 1.997 . S
Fe221 O232 1.996 . S
Fe221 O236 1.976 . S
Fe221 O239 2.002 . S
O222 Fe220 1.918 . S
O222 Fe221 1.918 . S
O222 Fe223 1.918 . S
Fe223 O222 1.918 . S
Fe223 O224 2.002 . S
Fe223 O233 1.976 . S
Fe223 O237 1.996 . S
Fe223 O240 1.997 . S
O224 Fe223 2.002 . S
O224 C241 1.295 . S
O225 Fe220 1.997 . S
O225 C241 1.235 . S
O226 Fe220 2.002 . S
O226 C227 1.295 . S
C227 O226 1.295 . S
C227 O229 1.235 . S
C228 O233 1.287 . S
C228 O234 1.255 . S
O229 Fe221 1.997 . S
O229 C227 1.235 . S
C230 O236 1.287 . S
C230 O237 1.255 . S
O231 Fe220 1.976 . S
O231 C238 1.287 . S
O232 Fe221 1.996 . S
O232 C238 1.255 . S
O233 Fe223 1.976 . S
O233 C228 1.287 . S
O234 Fe220 1.996 . S
O234 C228 1.255 . S
C235 O239 1.295 . S
C235 O240 1.235 . S
O236 Fe221 1.976 . S
O236 C230 1.287 . S
O237 Fe223 1.996 . S
O237 C230 1.255 . S
C238 O231 1.287 . S
C238 O232 1.255 . S
O239 Fe221 2.002 . S
O239 C235 1.295 . S
O240 Fe223 1.997 . S
O240 C235 1.235 . S
C241 O224 1.295 . S
C241 O225 1.235 . S
Fe242 O244 1.918 . S
Fe242 O247 1.997 . S
Fe242 O248 2.002 . S
Fe242 O253 1.976 . S
Fe242 O256 1.996 . S
Fe243 O244 1.918 . S
Fe243 O251 1.997 . S
Fe243 O254 1.996 . S
Fe243 O258 1.976 . S
Fe243 O261 2.002 . S
O244 Fe242 1.918 . S
O244 Fe243 1.918 . S
O244 Fe245 1.918 . S
Fe245 O244 1.918 . S
Fe245 O246 2.002 . S
Fe245 O255 1.976 . S
Fe245 O259 1.996 . S
Fe245 O262 1.997 . S
O246 Fe245 2.002 . S
O246 C263 1.295 . S
O247 Fe242 1.997 . S
O247 C263 1.235 . S
O248 Fe242 2.002 . S
O248 C249 1.295 . S
C249 O248 1.295 . S
C249 O251 1.235 . S
C250 O255 1.287 . S
C250 O256 1.255 . S
O251 Fe243 1.997 . S
O251 C249 1.235 . S
C252 O258 1.287 . S
C252 O259 1.255 . S
O253 Fe242 1.976 . S
O253 C260 1.287 . S
O254 Fe243 1.996 . S
O254 C260 1.255 . S
O255 Fe245 1.976 . S
O255 C250 1.287 . S
O256 Fe242 1.996 . S
O256 C250 1.255 . S
C257 O261 1.295 . S
C257 O262 1.235 . S
O258 Fe243 1.976 . S
O258 C252 1.287 . S
O259 Fe245 1.996 . S
O259 C252 1.255 . S
C260 O253 1.287 . S
C260 O254 1.255 . S
O261 Fe243 2.002 . S
O261 C257 1.295 . S
O262 Fe245 1.997 . S
O262 C257 1.235 . S
C263 O246 1.295 . S
C263 O247 1.235 . S
Fe264 O266 1.918 . S
Fe264 O269 1.997 . S
Fe264 O270 2.002 . S
Fe264 O275 1.976 . S
Fe264 O278 1.996 . S
Fe265 O266 1.918 . S
Fe265 O273 1.997 . S
Fe265 O276 1.996 . S
Fe265 O280 1.976 . S
Fe265 O283 2.002 . S
O266 Fe264 1.918 . S
O266 Fe265 1.918 . S
O266 Fe267 1.918 . S
Fe267 O266 1.918 . S
Fe267 O268 2.002 . S
Fe267 O277 1.976 . S
Fe267 O281 1.996 . S
Fe267 O284 1.997 . S
O268 Fe267 2.002 . S
O268 C285 1.295 . S
O269 Fe264 1.997 . S
O269 C285 1.235 . S
O270 Fe264 2.002 . S
O270 C271 1.295 . S
C271 O270 1.295 . S
C271 O273 1.235 . S
C272 O277 1.287 . S
C272 O278 1.255 . S
O273 Fe265 1.997 . S
O273 C271 1.235 . S
C274 O280 1.287 . S
C274 O281 1.255 . S
O275 Fe264 1.976 . S
O275 C282 1.287 . S
O276 Fe265 1.996 . S
O276 C282 1.255 . S
O277 Fe267 1.976 . S
O277 C272 1.287 . S
O278 Fe264 1.996 . S
O278 C272 1.255 . S
C279 O283 1.295 . S
C279 O284 1.235 . S
O280 Fe265 1.976 . S
O280 C274 1.287 . S
O281 Fe267 1.996 . S
O281 C274 1.255 . S
C282 O275 1.287 . S
C282 O276 1.255 . S
O283 Fe265 2.002 . S
O283 C279 1.295 . S
O284 Fe267 1.997 . S
O284 C279 1.235 . S
C285 O268 1.295 . S
C285 O269 1.235 . S
Fe286 O288 1.918 . S
Fe286 O291 1.997 . S
Fe286 O292 2.002 . S
Fe286 O297 1.976 . S
Fe286 O300 1.996 . S
Fe287 O288 1.918 . S
Fe287 O295 1.997 . S
Fe287 O298 1.996 . S
Fe287 O302 1.976 . S
Fe287 O305 2.002 . S
O288 Fe286 1.918 . S
O288 Fe287 1.918 . S
O288 Fe289 1.918 . S
Fe289 O288 1.918 . S
Fe289 O290 2.002 . S
Fe289 O299 1.976 . S
Fe289 O303 1.996 . S
Fe289 O306 1.997 . S
O290 Fe289 2.002 . S
O290 C307 1.295 . S
O291 Fe286 1.997 . S
O291 C307 1.235 . S
O292 Fe286 2.002 . S
O292 C293 1.295 . S
C293 O292 1.295 . S
C293 O295 1.235 . S
C294 O299 1.287 . S
C294 O300 1.255 . S
O295 Fe287 1.997 . S
O295 C293 1.235 . S
C296 O302 1.287 . S
C296 O303 1.255 . S
O297 Fe286 1.976 . S
O297 C304 1.287 . S
O298 Fe287 1.996 . S
O298 C304 1.255 . S
O299 Fe289 1.976 . S
O299 C294 1.287 . S
O300 Fe286 1.996 . S
O300 C294 1.255 . S
C301 O305 1.295 . S
C301 O306 1.235 . S
O302 Fe287 1.976 . S
O302 C296 1.287 . S
O303 Fe289 1.996 . S
O303 C296 1.255 . S
C304 O297 1.287 . S
C304 O298 1.255 . S
O305 Fe287 2.002 . S
O305 C301 1.295 . S
O306 Fe289 1.997 . S
O306 C301 1.235 . S
C307 O290 1.295 . S
C307 O291 1.235 . S
Fe308 O310 1.918 . S
Fe308 O313 1.997 . S
Fe308 O314 2.002 . S
Fe308 O319 1.976 . S
Fe308 O322 1.996 . S
Fe309 O310 1.918 . S
Fe309 O317 1.997 . S
Fe309 O320 1.996 . S
Fe309 O324 1.976 . S
Fe309 O327 2.002 . S
O310 Fe308 1.918 . S
O310 Fe309 1.918 . S
O310 Fe311 1.918 . S
Fe311 O310 1.918 . S
Fe311 O312 2.002 . S
Fe311 O321 1.976 . S
Fe311 O325 1.996 . S
Fe311 O328 1.997 . S
O312 Fe311 2.002 . S
O312 C329 1.295 . S
O313 Fe308 1.997 . S
O313 C329 1.235 . S
O314 Fe308 2.002 . S
O314 C315 1.295 . S
C315 O314 1.295 . S
C315 O317 1.235 . S
C316 O321 1.287 . S
C316 O322 1.255 . S
O317 Fe309 1.997 . S
O317 C315 1.235 . S
C318 O324 1.287 . S
C318 O325 1.255 . S
O319 Fe308 1.976 . S
O319 C326 1.287 . S
O320 Fe309 1.996 . S
O320 C326 1.255 . S
O321 Fe311 1.976 . S
O321 C316 1.287 . S
O322 Fe308 1.996 . S
O322 C316 1.255 . S
C323 O327 1.295 . S
C323 O328 1.235 . S
O324 Fe309 1.976 . S
O324 C318 1.287 . S
O325 Fe311 1.996 . S
O325 C318 1.255 . S
C326 O319 1.287 . S
C326 O320 1.255 . S
O327 Fe309 2.002 . S
O327 C323 1.295 . S
O328 Fe311 1.997 . S
O328 C323 1.235 . S
C329 O312 1.295 . S
C329 O313 1.235 . S
Fe330 O332 1.918 . S
Fe330 O335 1.997 . S
Fe330 O336 2.002 . S
Fe330 O341 1.976 . S
Fe330 O344 1.996 . S
Fe331 O332 1.918 . S
Fe331 O339 1.997 . S
Fe331 O342 1.996 . S
Fe331 O346 1.976 . S
Fe331 O349 2.002 . S
O332 Fe330 1.918 . S
O332 Fe331 1.918 . S
O332 Fe333 1.918 . S
Fe333 O332 1.918 . S
Fe333 O334 2.002 . S
Fe333 O343 1.976 . S
Fe333 O347 1.996 . S
Fe333 O350 1.997 . S
O334 Fe333 2.002 . S
O334 C351 1.295 . S
O335 Fe330 1.997 . S
O335 C351 1.235 . S
O336 Fe330 2.002 . S
O336 C337 1.295 . S
C337 O336 1.295 . S
C337 O339 1.235 . S
C338 O343 1.287 . S
C338 O344 1.255 . S
O339 Fe331 1.997 . S
O339 C337 1.235 . S
C340 O346 1.287 . S
C340 O347 1.255 . S
O341 Fe330 1.976 . S
O341 C348 1.287 . S
O342 Fe331 1.996 . S
O342 C348 1.255 . S
O343 Fe333 1.976 . S
O343 C338 1.287 . S
O344 Fe330 1.996 . S
O344 C338 1.255 . S
C345 O349 1.295 . S
C345 O350 1.235 . S
O346 Fe331 1.976 . S
O346 C340 1.287 . S
O347 Fe333 1.996 . S
O347 C340 1.255 . S
C348 O341 1.287 . S
C348 O342 1.255 . S
O349 Fe331 2.002 . S
O349 C345 1.295 . S
O350 Fe333 1.997 . S
O350 C345 1.235 . S
C351 O334 1.295 . S
C351 O335 1.235 . S
Fe352 O354 1.918 . S
Fe352 O357 1.997 . S
Fe352 O358 2.002 . S
Fe352 O363 1.976 . S
Fe352 O366 1.996 . S
Fe353 O354 1.918 . S
Fe353 O361 1.997 . S
Fe353 O364 1.996 . S
Fe353 O368 1.976 . S
Fe353 O371 2.002 . S
O354 Fe352 1.918 . S
O354 Fe353 1.918 . S
O354 Fe355 1.918 . S
Fe355 O354 1.918 . S
Fe355 O356 2.002 . S
Fe355 O365 1.976 . S
Fe355 O369 1.996 . S
Fe355 O372 1.997 . S
O356 Fe355 2.002 . S
O356 C373 1.295 . S
O357 Fe352 1.997 . S
O357 C373 1.235 . S
O358 Fe352 2.002 . S
O358 C359 1.295 . S
C359 O358 1.295 . S
C359 O361 1.235 . S
C360 O365 1.287 . S
C360 O366 1.255 . S
O361 Fe353 1.997 . S
O361 C359 1.235 . S
C362 O368 1.287 . S
C362 O369 1.255 . S
O363 Fe352 1.976 . S
O363 C370 1.287 . S
O364 Fe353 1.996 . S
O364 C370 1.255 . S
O365 Fe355 1.976 . S
O365 C360 1.287 . S
O366 Fe352 1.996 . S
O366 C360 1.255 . S
C367 O371 1.295 . S
C367 O372 1.235 . S
O368 Fe353 1.976 . S
O368 C362 1.287 . S
O369 Fe355 1.996 . S
O369 C362 1.255 . S
C370 O363 1.287 . S
C370 O364 1.255 . S
O371 Fe353 2.002 . S
O371 C367 1.295 . S
O372 Fe355 1.997 . S
O372 C367 1.235 . S
C373 O356 1.295 . S
C373 O357 1.235 . S
Fe374 O376 1.918 . S
Fe374 O379 1.997 . S
Fe374 O380 2.002 . S
Fe374 O385 1.976 . S
Fe374 O388 1.996 . S
Fe375 O376 1.918 . S
Fe375 O383 1.997 . S
Fe375 O386 1.996 . S
Fe375 O390 1.976 . S
Fe375 O393 2.002 . S
O376 Fe374 1.918 . S
O376 Fe375 1.918 . S
O376 Fe377 1.918 . S
Fe377 O376 1.918 . S
Fe377 O378 2.002 . S
Fe377 O387 1.976 . S
Fe377 O391 1.996 . S
Fe377 O394 1.997 . S
O378 Fe377 2.002 . S
O378 C395 1.295 . S
O379 Fe374 1.997 . S
O379 C395 1.235 . S
O380 Fe374 2.002 . S
O380 C381 1.295 . S
C381 O380 1.295 . S
C381 O383 1.235 . S
C382 O387 1.287 . S
C382 O388 1.255 . S
O383 Fe375 1.997 . S
O383 C381 1.235 . S
C384 O390 1.287 . S
C384 O391 1.255 . S
O385 Fe374 1.976 . S
O385 C392 1.287 . S
O386 Fe375 1.996 . S
O386 C392 1.255 . S
O387 Fe377 1.976 . S
O387 C382 1.287 . S
O388 Fe374 1.996 . S
O388 C382 1.255 . S
C389 O393 1.295 . S
C389 O394 1.235 . S
O390 Fe375 1.976 . S
O390 C384 1.287 . S
O391 Fe377 1.996 . S
O391 C384 1.255 . S
C392 O385 1.287 . S
C392 O386 1.255 . S
O393 Fe375 2.002 . S
O393 C389 1.295 . S
O394 Fe377 1.997 . S
O394 C389 1.235 . S
C395 O378 1.295 . S
C395 O379 1.235 . S
C396 C397 1.349 1_556 S
C396 C398 1.327 . S
C396 H421 0.950 . S
C397 C396 1.349 1_554 S
C397 C413 1.349 . S
C398 C396 1.327 . S
C398 C417 1.429 1_556 S
C398 H422 0.950 . S
C399 C416 1.574 . S
C399 C418 1.368 . S
C399 H423 0.949 . S
H400 C404 0.949 . S
C401 C402 1.349 . S
C401 C403 1.327 1_556 S
C401 H424 0.950 1_556 S
C402 C401 1.349 . S
C402 C414 1.349 . S
C403 C401 1.327 1_554 S
C403 C419 1.429 1_554 S
C403 H425 0.950 . S
C404 H400 0.949 . S
C404 C412 1.574 . S
C404 C420 1.368 . S
H405 C413 0.950 . S
H406 C411 0.950 . S
H407 C412 0.949 . S
H408 C414 0.950 . S
H409 C415 0.950 . S
H410 C416 0.949 . S
C411 H406 0.950 . S
C411 C413 1.327 . S
C411 C417 1.429 . S
C412 C404 1.574 . S
C412 H407 0.949 . S
C412 C418 1.368 1_556 S
C413 C397 1.349 . S
C413 H405 0.950 . S
C413 C411 1.327 . S
C414 C402 1.349 . S
C414 H408 0.950 . S
C414 C415 1.327 . S
C415 H409 0.950 . S
C415 C414 1.327 . S
C415 C419 1.429 . S
C416 C399 1.574 . S
C416 H410 0.949 . S
C416 C420 1.368 1_554 S
C417 C398 1.429 1_554 S
C417 C411 1.429 . S
C417 C418 1.523 . S
C418 C399 1.368 . S
C418 C412 1.368 1_554 S
C418 C417 1.523 . S
C419 C403 1.429 1_556 S
C419 C415 1.429 . S
C419 C420 1.523 . S
C420 C404 1.368 . S
C420 C416 1.368 1_556 S
C420 C419 1.523 . S
H421 C396 0.950 . S
H422 C398 0.950 . S
H423 C399 0.949 . S
H424 C401 0.950 1_554 S
H425 C403 0.950 . S
C426 C427 1.327 1_554 S
C426 C428 1.333 . S
C426 H451 0.967 . S
C427 C426 1.327 1_556 S
C427 C443 1.349 . S
C428 C426 1.333 . S
C428 C447 1.429 1_554 S
C428 H452 0.950 . S
C429 C446 1.574 . S
C429 C448 1.368 . S
C429 H453 0.949 . S
H430 C434 0.949 . S
C431 C432 1.349 1_556 S
C431 C433 1.327 . S
C431 H454 0.950 . S
C432 C431 1.349 1_554 S
C432 C444 1.349 . S
C433 C431 1.327 . S
C433 C449 1.429 1_556 S
C433 H455 0.950 . S
C434 H430 0.949 . S
C434 C442 1.574 . S
C434 C450 1.368 . S
H435 C443 0.950 . S
H436 C441 0.950 . S
H437 C442 0.949 . S
H438 C444 0.950 . S
H439 C445 0.950 . S
H440 C446 0.949 . S
C441 H436 0.950 . S
C441 C443 1.327 . S
C441 C447 1.429 . S
C442 C434 1.574 . S
C442 H437 0.949 . S
C442 C448 1.368 1_554 S
C443 C427 1.349 . S
C443 H435 0.950 . S
C443 C441 1.327 . S
C444 C432 1.349 . S
C444 H438 0.950 . S
C444 C445 1.327 . S
C445 H439 0.950 . S
C445 C444 1.327 . S
C445 C449 1.429 . S
C446 C429 1.574 . S
C446 H440 0.949 . S
C446 C450 1.368 1_556 S
C447 C428 1.429 1_556 S
C447 C441 1.429 . S
C447 C448 1.523 . S
C448 C429 1.368 . S
C448 C442 1.368 1_556 S
C448 C447 1.523 . S
C449 C433 1.429 1_554 S
C449 C445 1.429 . S
C449 C450 1.523 . S
C450 C434 1.368 . S
C450 C446 1.368 1_554 S
C450 C449 1.523 . S
H451 C426 0.967 . S
H452 C428 0.950 . S
H453 C429 0.949 . S
H454 C431 0.950 . S
H455 C433 0.950 . S
C456 C457 1.349 . S
C456 C458 1.327 . S
C456 H481 0.950 . S
C457 C456 1.349 . S
C457 C473 1.349 1_554 S
C458 C456 1.327 . S
C458 C477 1.429 . S
C458 H482 0.950 . S
C459 C476 1.574 . S
C459 C478 1.368 1_556 S
C459 H483 0.949 . S
H460 C464 0.949 . S
C461 C462 1.349 . S
C461 C463 1.327 . S
C461 H484 0.950 . S
C462 C461 1.349 . S
C462 C474 1.349 1_556 S
C463 C461 1.327 . S
C463 C479 1.429 . S
C463 H485 0.950 . S
C464 H460 0.949 . S
C464 C472 1.574 . S
C464 C480 1.368 1_554 S
H465 C473 0.950 . S
H466 C471 0.950 . S
H467 C472 0.949 . S
H468 C474 0.950 . S
H469 C475 0.950 . S
H470 C476 0.949 . S
C471 H466 0.950 . S
C471 C473 1.327 . S
C471 C477 1.429 1_556 S
C472 C464 1.574 . S
C472 H467 0.949 . S
C472 C478 1.368 . S
C473 C457 1.349 1_556 S
C473 H465 0.950 . S
C473 C471 1.327 . S
C474 C462 1.349 1_554 S
C474 H468 0.950 . S
C474 C475 1.327 . S
C475 H469 0.950 . S
C475 C474 1.327 . S
C475 C479 1.429 1_554 S
C476 C459 1.574 . S
C476 H470 0.949 . S
C476 C480 1.368 . S
C477 C458 1.429 . S
C477 C471 1.429 1_554 S
C477 C478 1.523 . S
C478 C459 1.368 1_554 S
C478 C472 1.368 . S
C478 C477 1.523 . S
C479 C463 1.429 . S
C479 C475 1.429 1_556 S
C479 C480 1.523 . S
C480 C464 1.368 1_556 S
C480 C476 1.368 . S
C480 C479 1.523 . S
H481 C456 0.950 . S
H482 C458 0.950 . S
H483 C459 0.949 . S
H484 C461 0.950 . S
H485 C463 0.950 . S
C486 C487 1.349 . S
C486 C488 1.327 . S
C486 H511 0.950 . S
C487 C486 1.349 . S
C487 C503 1.349 . S
C488 C486 1.327 . S
C488 C507 1.429 . S
C488 H512 0.950 . S
C489 C506 1.574 . S
C489 C508 1.368 . S
C489 H513 0.949 . S
H490 C494 0.949 . S
C491 C492 1.349 . S
C491 C493 1.327 . S
C491 H514 0.950 . S
C492 C491 1.349 . S
C492 C504 1.349 . S
C493 C491 1.327 . S
C493 C509 1.429 . S
C493 H515 0.950 . S
C494 H490 0.949 . S
C494 C502 1.574 . S
C494 C510 1.368 . S
H495 C503 0.950 . S
H496 C501 0.950 . S
H497 C502 0.949 . S
H498 C504 0.950 . S
H499 C505 0.950 . S
H500 C506 0.949 . S
C501 H496 0.950 . S
C501 C503 1.327 . S
C501 C507 1.429 . S
C502 C494 1.574 . S
C502 H497 0.949 . S
C502 C508 1.368 . S
C503 C487 1.349 . S
C503 H495 0.950 . S
C503 C501 1.327 . S
C504 C492 1.349 . S
C504 H498 0.950 . S
C504 C505 1.327 . S
C505 H499 0.950 . S
C505 C504 1.327 . S
C505 C509 1.429 . S
C506 C489 1.574 . S
C506 H500 0.949 . S
C506 C510 1.368 . S
C507 C488 1.429 . S
C507 C501 1.429 . S
C507 C508 1.523 . S
C508 C489 1.368 . S
C508 C502 1.368 . S
C508 C507 1.523 . S
C509 C493 1.429 . S
C509 C505 1.429 . S
C509 C510 1.523 . S
C510 C494 1.368 . S
C510 C506 1.368 . S
C510 C509 1.523 . S
H511 C486 0.950 . S
H512 C488 0.950 . S
H513 C489 0.949 . S
H514 C491 0.950 . S
H515 C493 0.950 . S
C516 C517 1.349 . S
C516 C518 1.327 . S
C516 H541 0.950 . S
C517 C516 1.349 . S
C517 C533 1.349 . S
C518 C516 1.327 . S
C518 C537 1.429 . S
C518 H542 0.950 . S
C519 C536 1.574 . S
C519 C538 1.368 . S
C519 H543 0.949 . S
H520 C524 0.949 . S
C521 C522 1.349 . S
C521 C523 1.327 . S
C521 H544 0.950 . S
C522 C521 1.349 . S
C522 C534 1.349 . S
C523 C521 1.327 . S
C523 C539 1.429 . S
C523 H545 0.950 . S
C524 H520 0.949 . S
C524 C532 1.574 . S
C524 C540 1.368 . S
H525 C533 0.950 . S
H526 C531 0.950 . S
H527 C532 0.949 . S
H528 C534 0.950 . S
H529 C535 0.950 . S
H530 C536 0.949 . S
C531 H526 0.950 . S
C531 C533 1.327 . S
C531 C537 1.429 . S
C532 C524 1.574 . S
C532 H527 0.949 . S
C532 C538 1.368 . S
C533 C517 1.349 . S
C533 H525 0.950 . S
C533 C531 1.327 . S
C534 C522 1.349 . S
C534 H528 0.950 . S
C534 C535 1.327 . S
C535 H529 0.950 . S
C535 C534 1.327 . S
C535 C539 1.429 . S
C536 C519 1.574 . S
C536 H530 0.949 . S
C536 C540 1.368 . S
C537 C518 1.429 . S
C537 C531 1.429 . S
C537 C538 1.523 . S
C538 C519 1.368 . S
C538 C532 1.368 . S
C538 C537 1.523 . S
C539 C523 1.429 . S
C539 C535 1.429 . S
C539 C540 1.523 . S
C540 C524 1.368 . S
C540 C536 1.368 . S
C540 C539 1.523 . S
H541 C516 0.950 . S
H542 C518 0.950 . S
H543 C519 0.949 . S
H544 C521 0.950 . S
H545 C523 0.950 . S
C546 C547 1.349 . S
C546 C548 1.327 . S
C546 H571 0.950 . S
C547 C546 1.349 . S
C547 C563 1.349 . S
C548 C546 1.327 . S
C548 C567 1.429 . S
C548 H572 0.950 . S
C549 C566 1.574 . S
C549 C568 1.368 . S
C549 H573 0.949 . S
H550 C554 0.949 . S
C551 C552 1.349 . S
C551 C553 1.327 . S
C551 H574 0.950 . S
C552 C551 1.349 . S
C552 C564 1.349 . S
C553 C551 1.327 . S
C553 C569 1.429 . S
C553 H575 0.950 . S
C554 H550 0.949 . S
C554 C562 1.574 . S
C554 C570 1.368 . S
H555 C563 0.950 . S
H556 C561 0.950 . S
H557 C562 0.949 . S
H558 C564 0.950 . S
H559 C565 0.950 . S
H560 C566 0.949 . S
C561 H556 0.950 . S
C561 C563 1.327 . S
C561 C567 1.429 . S
C562 C554 1.574 . S
C562 H557 0.949 . S
C562 C568 1.368 . S
C563 C547 1.349 . S
C563 H555 0.950 . S
C563 C561 1.327 . S
C564 C552 1.349 . S
C564 H558 0.950 . S
C564 C565 1.327 . S
C565 H559 0.950 . S
C565 C564 1.327 . S
C565 C569 1.429 . S
C566 C549 1.574 . S
C566 H560 0.949 . S
C566 C570 1.368 . S
C567 C548 1.429 . S
C567 C561 1.429 . S
C567 C568 1.523 . S
C568 C549 1.368 . S
C568 C562 1.368 . S
C568 C567 1.523 . S
C569 C553 1.429 . S
C569 C565 1.429 . S
C569 C570 1.523 . S
C570 C554 1.368 . S
C570 C566 1.368 . S
C570 C569 1.523 . S
H571 C546 0.950 . S
H572 C548 0.950 . S
H573 C549 0.949 . S
H574 C551 0.950 . S
H575 C553 0.950 . S
C576 C577 1.349 . S
C576 C578 1.327 . S
C576 H601 0.950 . S
C577 C576 1.349 . S
C577 C593 1.349 . S
C578 C576 1.327 . S
C578 C597 1.429 . S
C578 H602 0.950 . S
C579 C596 1.574 . S
C579 C598 1.368 . S
C579 H603 0.949 . S
H580 C584 0.949 . S
C581 C582 1.349 . S
C581 C583 1.327 . S
C581 H604 0.950 . S
C582 C581 1.349 . S
C582 C594 1.349 . S
C583 C581 1.327 . S
C583 C599 1.429 . S
C583 H605 0.950 . S
C584 H580 0.949 . S
C584 C592 1.574 . S
C584 C600 1.368 . S
H585 C593 0.950 . S
H586 C591 0.950 . S
H587 C592 0.949 . S
H588 C594 0.950 . S
H589 C595 0.950 . S
H590 C596 0.949 . S
C591 H586 0.950 . S
C591 C593 1.327 . S
C591 C597 1.429 . S
C592 C584 1.574 . S
C592 H587 0.949 . S
C592 C598 1.368 . S
C593 C577 1.349 . S
C593 H585 0.950 . S
C593 C591 1.327 . S
C594 C582 1.349 . S
C594 H588 0.950 . S
C594 C595 1.327 . S
C595 H589 0.950 . S
C595 C594 1.327 . S
C595 C599 1.429 . S
C596 C579 1.574 . S
C596 H590 0.949 . S
C596 C600 1.368 . S
C597 C578 1.429 . S
C597 C591 1.429 . S
C597 C598 1.523 . S
C598 C579 1.368 . S
C598 C592 1.368 . S
C598 C597 1.523 . S
C599 C583 1.429 . S
C599 C595 1.429 . S
C599 C600 1.523 . S
C600 C584 1.368 . S
C600 C596 1.368 . S
C600 C599 1.523 . S
H601 C576 0.950 . S
H602 C578 0.950 . S
H603 C579 0.949 . S
H604 C581 0.950 . S
H605 C583 0.950 . S
C606 C607 1.349 . S
C606 C608 1.327 . S
C606 H631 0.950 . S
C607 C606 1.349 . S
C607 C623 1.349 . S
C608 C606 1.327 . S
C608 C627 1.429 . S
C608 H632 0.950 . S
C609 C626 1.574 . S
C609 C628 1.368 . S
C609 H633 0.949 . S
H610 C614 0.949 . S
C611 C612 1.349 . S
C611 C613 1.327 . S
C611 H634 0.950 . S
C612 C611 1.349 . S
C612 C624 1.349 . S
C613 C611 1.327 . S
C613 C629 1.429 . S
C613 H635 0.950 . S
C614 H610 0.949 . S
C614 C622 1.574 . S
C614 C630 1.368 . S
H615 C623 0.950 . S
H616 C621 0.950 . S
H617 C622 0.949 . S
H618 C624 0.950 . S
H619 C625 0.950 . S
H620 C626 0.949 . S
C621 H616 0.950 . S
C621 C623 1.327 . S
C621 C627 1.429 . S
C622 C614 1.574 . S
C622 H617 0.949 . S
C622 C628 1.368 . S
C623 C607 1.349 . S
C623 H615 0.950 . S
C623 C621 1.327 . S
C624 C612 1.349 . S
C624 H618 0.950 . S
C624 C625 1.327 . S
C625 H619 0.950 . S
C625 C624 1.327 . S
C625 C629 1.429 . S
C626 C609 1.574 . S
C626 H620 0.949 . S
C626 C630 1.368 . S
C627 C608 1.429 . S
C627 C621 1.429 . S
C627 C628 1.523 . S
C628 C609 1.368 . S
C628 C622 1.368 . S
C628 C627 1.523 . S
C629 C613 1.429 . S
C629 C625 1.429 . S
C629 C630 1.523 . S
C630 C614 1.368 . S
C630 C626 1.368 . S
C630 C629 1.523 . S
H631 C606 0.950 . S
H632 C608 0.950 . S
H633 C609 0.949 . S
H634 C611 0.950 . S
H635 C613 0.950 . S
C636 C637 1.349 . S
C636 C638 1.327 . S
C636 H661 0.950 . S
C637 C636 1.349 . S
C637 C653 1.349 . S
C638 C636 1.327 . S
C638 C657 1.429 . S
C638 H662 0.950 . S
C639 C656 1.574 . S
C639 C658 1.368 . S
C639 H663 0.949 . S
H640 C644 0.949 . S
C641 C642 1.349 . S
C641 C643 1.327 . S
C641 H664 0.950 . S
C642 C641 1.349 . S
C642 C654 1.349 . S
C643 C641 1.327 . S
C643 C659 1.429 . S
C643 H665 0.950 . S
C644 H640 0.949 . S
C644 C652 1.574 . S
C644 C660 1.368 . S
H645 C653 0.950 . S
H646 C651 0.950 . S
H647 C652 0.949 . S
H648 C654 0.950 . S
H649 C655 0.950 . S
H650 C656 0.949 . S
C651 H646 0.950 . S
C651 C653 1.327 . S
C651 C657 1.429 . S
C652 C644 1.574 . S
C652 H647 0.949 . S
C652 C658 1.368 . S
C653 C637 1.349 . S
C653 H645 0.950 . S
C653 C651 1.327 . S
C654 C642 1.349 . S
C654 H648 0.950 . S
C654 C655 1.327 . S
C655 H649 0.950 . S
C655 C654 1.327 . S
C655 C659 1.429 . S
C656 C639 1.574 . S
C656 H650 0.949 . S
C656 C660 1.368 . S
C657 C638 1.429 . S
C657 C651 1.429 . S
C657 C658 1.523 . S
C658 C639 1.368 . S
C658 C652 1.368 . S
C658 C657 1.523 . S
C659 C643 1.429 . S
C659 C655 1.429 . S
C659 C660 1.523 . S
C660 C644 1.368 . S
C660 C656 1.368 . S
C660 C659 1.523 . S
H661 C636 0.950 . S
H662 C638 0.950 . S
H663 C639 0.949 . S
H664 C641 0.950 . S
H665 C643 0.950 . S
C666 C667 1.349 . S
C666 C668 1.327 . S
C666 H691 0.950 . S
C667 C666 1.349 . S
C667 C683 1.349 . S
C668 C666 1.327 . S
C668 C687 1.429 . S
C668 H692 0.950 . S
C669 C686 1.574 . S
C669 C688 1.368 . S
C669 H693 0.949 . S
H670 C674 0.949 . S
C671 C672 1.349 . S
C671 C673 1.327 . S
C671 H694 0.950 . S
C672 C671 1.349 . S
C672 C684 1.349 . S
C673 C671 1.327 . S
C673 C689 1.429 . S
C673 H695 0.950 . S
C674 H670 0.949 . S
C674 C682 1.574 . S
C674 C690 1.368 . S
H675 C683 0.950 . S
H676 C681 0.950 . S
H677 C682 0.949 . S
H678 C684 0.950 . S
H679 C685 0.950 . S
H680 C686 0.949 . S
C681 H676 0.950 . S
C681 C683 1.327 . S
C681 C687 1.429 . S
C682 C674 1.574 . S
C682 H677 0.949 . S
C682 C688 1.368 . S
C683 C667 1.349 . S
C683 H675 0.950 . S
C683 C681 1.327 . S
C684 C672 1.349 . S
C684 H678 0.950 . S
C684 C685 1.327 . S
C685 H679 0.950 . S
C685 C684 1.327 . S
C685 C689 1.429 . S
C686 C669 1.574 . S
C686 H680 0.949 . S
C686 C690 1.368 . S
C687 C668 1.429 . S
C687 C681 1.429 . S
C687 C688 1.523 . S
C688 C669 1.368 . S
C688 C682 1.368 . S
C688 C687 1.523 . S
C689 C673 1.429 . S
C689 C685 1.429 . S
C689 C690 1.523 . S
C690 C674 1.368 . S
C690 C686 1.368 . S
C690 C689 1.523 . S
H691 C666 0.950 . S
H692 C668 0.950 . S
H693 C669 0.949 . S
H694 C671 0.950 . S
H695 C673 0.950 . S
C696 C697 1.349 . S
C696 C698 1.327 . S
C696 H721 0.950 . S
C697 C696 1.349 . S
C697 C713 1.349 . S
C698 C696 1.327 . S
C698 C717 1.429 . S
C698 H722 0.950 . S
C699 C716 1.574 . S
C699 C718 1.368 . S
C699 H723 0.949 . S
H700 C704 0.949 . S
C701 C702 1.349 . S
C701 C703 1.327 . S
C701 H724 0.950 . S
C702 C701 1.349 . S
C702 C714 1.349 . S
C703 C701 1.327 . S
C703 C719 1.429 . S
C703 H725 0.950 . S
C704 H700 0.949 . S
C704 C712 1.574 . S
C704 C720 1.368 . S
H705 C713 0.950 . S
H706 C711 0.950 . S
H707 C712 0.949 . S
H708 C714 0.950 . S
H709 C715 0.950 . S
H710 C716 0.949 . S
C711 H706 0.950 . S
C711 C713 1.327 . S
C711 C717 1.429 . S
C712 C704 1.574 . S
C712 H707 0.949 . S
C712 C718 1.368 . S
C713 C697 1.349 . S
C713 H705 0.950 . S
C713 C711 1.327 . S
C714 C702 1.349 . S
C714 H708 0.950 . S
C714 C715 1.327 . S
C715 H709 0.950 . S
C715 C714 1.327 . S
C715 C719 1.429 . S
C716 C699 1.574 . S
C716 H710 0.949 . S
C716 C720 1.368 . S
C717 C698 1.429 . S
C717 C711 1.429 . S
C717 C718 1.523 . S
C718 C699 1.368 . S
C718 C712 1.368 . S
C718 C717 1.523 . S
C719 C703 1.429 . S
C719 C715 1.429 . S
C719 C720 1.523 . S
C720 C704 1.368 . S
C720 C716 1.368 . S
C720 C719 1.523 . S
H721 C696 0.950 . S
H722 C698 0.950 . S
H723 C699 0.949 . S
H724 C701 0.950 . S
H725 C703 0.950 . S
C726 C727 1.349 . S
C726 C728 1.327 . S
C726 H751 0.950 . S
C727 C726 1.349 . S
C727 C743 1.349 . S
C728 C726 1.327 . S
C728 C747 1.429 . S
C728 H752 0.950 . S
C729 C746 1.574 . S
C729 C748 1.368 . S
C729 H753 0.949 . S
H730 C734 0.949 . S
C731 C732 1.349 . S
C731 C733 1.327 . S
C731 H754 0.950 . S
C732 C731 1.349 . S
C732 C744 1.349 . S
C733 C731 1.327 . S
C733 C749 1.429 . S
C733 H755 0.950 . S
C734 H730 0.949 . S
C734 C742 1.574 . S
C734 C750 1.368 . S
H735 C743 0.950 . S
H736 C741 0.950 . S
H737 C742 0.949 . S
H738 C744 0.950 . S
H739 C745 0.950 . S
H740 C746 0.949 . S
C741 H736 0.950 . S
C741 C743 1.327 . S
C741 C747 1.429 . S
C742 C734 1.574 . S
C742 H737 0.949 . S
C742 C748 1.368 . S
C743 C727 1.349 . S
C743 H735 0.950 . S
C743 C741 1.327 . S
C744 C732 1.349 . S
C744 H738 0.950 . S
C744 C745 1.327 . S
C745 H739 0.950 . S
C745 C744 1.327 . S
C745 C749 1.429 . S
C746 C729 1.574 . S
C746 H740 0.949 . S
C746 C750 1.368 . S
C747 C728 1.429 . S
C747 C741 1.429 . S
C747 C748 1.523 . S
C748 C729 1.368 . S
C748 C742 1.368 . S
C748 C747 1.523 . S
C749 C733 1.429 . S
C749 C745 1.429 . S
C749 C750 1.523 . S
C750 C734 1.368 . S
C750 C746 1.368 . S
C750 C749 1.523 . S
H751 C726 0.950 . S
H752 C728 0.950 . S
H753 C729 0.949 . S
H754 C731 0.950 . S
H755 C733 0.950 . S
C756 C757 1.349 1_545 S
C756 C758 1.327 1_545 S
C756 H781 0.950 . S
C757 C756 1.349 1_565 S
C757 C773 1.349 . S
C758 C756 1.327 1_565 S
C758 C777 1.429 . S
C758 H782 0.950 . S
C759 C776 1.574 . S
C759 C778 1.368 . S
C759 H783 0.949 . S
H760 C764 0.949 . S
C761 C762 1.349 . S
C761 C763 1.327 . S
C761 H784 0.950 . S
C762 C761 1.349 . S
C762 C774 1.349 . S
C763 C761 1.327 . S
C763 C779 1.429 . S
C763 H785 0.950 . S
C764 H760 0.949 . S
C764 C772 1.574 . S
C764 C780 1.368 . S
H765 C773 0.950 . S
H766 C771 0.950 . S
H767 C772 0.949 . S
H768 C774 0.950 . S
H769 C775 0.950 . S
H770 C776 0.949 . S
C771 H766 0.950 . S
C771 C773 1.327 . S
C771 C777 1.429 . S
C772 C764 1.574 . S
C772 H767 0.949 . S
C772 C778 1.368 . S
C773 C757 1.349 . S
C773 H765 0.950 . S
C773 C771 1.327 . S
C774 C762 1.349 . S
C774 H768 0.950 . S
C774 C775 1.327 . S
C775 H769 0.950 . S
C775 C774 1.327 . S
C775 C779 1.429 . S
C776 C759 1.574 . S
C776 H770 0.949 . S
C776 C780 1.368 . S
C777 C758 1.429 . S
C777 C771 1.429 . S
C777 C778 1.523 . S
C778 C759 1.368 . S
C778 C772 1.368 . S
C778 C777 1.523 . S
C779 C763 1.429 . S
C779 C775 1.429 . S
C779 C780 1.523 . S
C780 C764 1.368 . S
C780 C776 1.368 . S
C780 C779 1.523 . S
H781 C756 0.950 . S
H782 C758 0.950 . S
H783 C759 0.949 . S
H784 C761 0.950 . S
H785 C763 0.950 . S
C786 C787 1.349 . S
C786 C788 1.327 . S
C786 H811 0.950 . S
C787 C786 1.349 . S
C787 C803 1.349 . S
C788 C786 1.327 . S
C788 C807 1.429 . S
C788 H812 0.950 . S
C789 C806 1.574 . S
C789 C808 1.368 . S
C789 H813 0.949 . S
H790 C794 0.949 . S
C791 C792 1.349 . S
C791 C793 1.327 . S
C791 H814 0.950 . S
C792 C791 1.349 . S
C792 C804 1.349 1_455 S
C793 C791 1.327 . S
C793 C809 1.429 . S
C793 H815 0.950 . S
C794 H790 0.949 . S
C794 C802 1.574 . S
C794 C810 1.368 . S
H795 C803 0.950 . S
H796 C801 0.950 . S
H797 C802 0.949 . S
H798 C804 0.950 . S
H799 C805 0.950 . S
H800 C806 0.949 . S
C801 H796 0.950 . S
C801 C803 1.327 . S
C801 C807 1.429 . S
C802 C794 1.574 . S
C802 H797 0.949 . S
C802 C808 1.368 . S
C803 C787 1.349 . S
C803 H795 0.950 . S
C803 C801 1.327 . S
C804 C792 1.349 1_655 S
C804 H798 0.950 . S
C804 C805 1.327 1_655 S
C805 H799 0.950 . S
C805 C804 1.327 1_455 S
C805 C809 1.429 . S
C806 C789 1.574 . S
C806 H800 0.949 . S
C806 C810 1.368 . S
C807 C788 1.429 . S
C807 C801 1.429 . S
C807 C808 1.523 1_545 S
C808 C789 1.368 . S
C808 C802 1.368 . S
C808 C807 1.523 1_565 S
C809 C793 1.429 . S
C809 C805 1.429 . S
C809 C810 1.523 . S
C810 C794 1.368 . S
C810 C806 1.368 . S
C810 C809 1.523 . S
H811 C786 0.950 . S
H812 C788 0.950 . S
H813 C789 0.949 . S
H814 C791 0.950 . S
H815 C793 0.950 . S
C816 C817 1.349 . S
C816 C818 1.327 . S
C816 H841 0.950 . S
C817 C816 1.349 . S
C817 C833 1.349 . S
C818 C816 1.327 . S
C818 C837 1.429 . S
C818 H842 0.950 . S
C819 C836 1.574 . S
C819 C838 1.368 . S
C819 H843 0.949 . S
H820 C824 0.949 . S
C821 C822 1.349 . S
C821 C823 1.327 . S
C821 H844 0.950 . S
C822 C821 1.349 . S
C822 C834 1.349 . S
C823 C821 1.327 . S
C823 C839 1.429 . S
C823 H845 0.950 . S
C824 H820 0.949 . S
C824 C832 1.574 . S
C824 C840 1.368 . S
H825 C833 0.950 . S
H826 C831 0.950 . S
H827 C832 0.949 . S
H828 C834 0.950 . S
H829 C835 0.950 . S
H830 C836 0.949 . S
C831 H826 0.950 . S
C831 C833 1.327 . S
C831 C837 1.429 . S
C832 C824 1.574 . S
C832 H827 0.949 . S
C832 C838 1.368 . S
C833 C817 1.349 . S
C833 H825 0.950 . S
C833 C831 1.327 . S
C834 C822 1.349 . S
C834 H828 0.950 . S
C834 C835 1.327 . S
C835 H829 0.950 . S
C835 C834 1.327 . S
C835 C839 1.429 . S
C836 C819 1.574 . S
C836 H830 0.949 . S
C836 C840 1.368 . S
C837 C818 1.429 . S
C837 C831 1.429 . S
C837 C838 1.523 1_655 S
C838 C819 1.368 . S
C838 C832 1.368 . S
C838 C837 1.523 1_455 S
C839 C823 1.429 . S
C839 C835 1.429 . S
C839 C840 1.523 . S
C840 C824 1.368 . S
C840 C836 1.368 . S
C840 C839 1.523 . S
H841 C816 0.950 . S
H842 C818 0.950 . S
H843 C819 0.949 . S
H844 C821 0.950 . S
H845 C823 0.950 . S
C846 C847 1.349 . S
C846 C848 1.327 . S
C846 H871 0.950 . S
C847 C846 1.349 . S
C847 C863 1.349 . S
C848 C846 1.327 . S
C848 C867 1.429 . S
C848 H872 0.950 . S
C849 C866 1.574 . S
C849 C868 1.368 . S
C849 H873 0.949 . S
H850 C854 0.949 . S
C851 C852 1.349 . S
C851 C853 1.327 . S
C851 H874 0.950 . S
C852 C851 1.349 . S
C852 C864 1.349 1_455 S
C853 C851 1.327 . S
C853 C869 1.429 . S
C853 H875 0.950 . S
C854 H850 0.949 . S
C854 C862 1.574 . S
C854 C870 1.368 . S
H855 C863 0.950 . S
H856 C861 0.950 . S
H857 C862 0.949 . S
H858 C864 0.950 . S
H859 C865 0.950 . S
H860 C866 0.949 . S
C861 H856 0.950 . S
C861 C863 1.327 . S
C861 C867 1.429 . S
C862 C854 1.574 . S
C862 H857 0.949 . S
C862 C868 1.368 . S
C863 C847 1.349 . S
C863 H855 0.950 . S
C863 C861 1.327 . S
C864 C852 1.349 1_655 S
C864 H858 0.950 . S
C864 C865 1.327 1_655 S
C865 H859 0.950 . S
C865 C864 1.327 1_455 S
C865 C869 1.429 . S
C866 C849 1.574 . S
C866 H860 0.949 . S
C866 C870 1.368 . S
C867 C848 1.429 . S
C867 C861 1.429 . S
C867 C868 1.523 . S
C868 C849 1.368 . S
C868 C862 1.368 . S
C868 C867 1.523 . S
C869 C853 1.429 . S
C869 C865 1.429 . S
C869 C870 1.523 . S
C870 C854 1.368 . S
C870 C866 1.368 . S
C870 C869 1.523 . S
H871 C846 0.950 . S
H872 C848 0.950 . S
H873 C849 0.949 . S
H874 C851 0.950 . S
H875 C853 0.950 . S
C876 C877 1.349 . S
C876 C878 1.327 . S
C876 H901 0.950 . S
C877 C876 1.349 . S
C877 C893 1.349 . S
C878 C876 1.327 . S
C878 C897 1.429 . S
C878 H902 0.950 . S
C879 C896 1.574 . S
C879 C898 1.368 . S
C879 H903 0.949 . S
H880 C884 0.949 . S
C881 C882 1.349 . S
C881 C883 1.327 . S
C881 H904 0.950 . S
C882 C881 1.349 . S
C882 C894 1.349 . S
C883 C881 1.327 . S
C883 C899 1.429 . S
C883 H905 0.950 . S
C884 H880 0.949 . S
C884 C892 1.574 . S
C884 C900 1.368 . S
H885 C893 0.950 . S
H886 C891 0.950 . S
H887 C892 0.949 . S
H888 C894 0.950 . S
H889 C895 0.950 . S
H890 C896 0.949 . S
C891 H886 0.950 . S
C891 C893 1.327 . S
C891 C897 1.429 . S
C892 C884 1.574 . S
C892 H887 0.949 . S
C892 C898 1.368 . S
C893 C877 1.349 . S
C893 H885 0.950 . S
C893 C891 1.327 . S
C894 C882 1.349 . S
C894 H888 0.950 . S
C894 C895 1.327 . S
C895 H889 0.950 . S
C895 C894 1.327 . S
C895 C899 1.429 . S
C896 C879 1.574 . S
C896 H890 0.949 . S
C896 C900 1.368 . S
C897 C878 1.429 . S
C897 C891 1.429 . S
C897 C898 1.523 . S
C898 C879 1.368 . S
C898 C892 1.368 . S
C898 C897 1.523 . S
C899 C883 1.429 . S
C899 C895 1.429 . S
C899 C900 1.523 1_545 S
C900 C884 1.368 . S
C900 C896 1.368 . S
C900 C899 1.523 1_565 S
H901 C876 0.950 . S
H902 C878 0.950 . S
H903 C879 0.949 . S
H904 C881 0.950 . S
H905 C883 0.950 . S
C906 C907 1.349 . S
C906 C908 1.327 . S
C906 H931 0.950 . S
C907 C906 1.349 . S
C907 C923 1.349 . S
C908 C906 1.327 . S
C908 C927 1.429 . S
C908 H932 0.950 . S
C909 C926 1.574 . S
C909 C928 1.368 . S
C909 H933 0.949 . S
H910 C914 0.949 . S
C911 C912 1.349 . S
C911 C913 1.327 . S
C911 H934 0.950 . S
C912 C911 1.349 . S
C912 C924 1.349 . S
C913 C911 1.327 . S
C913 C929 1.429 . S
C913 H935 0.950 . S
C914 H910 0.949 . S
C914 C922 1.574 . S
C914 C930 1.368 . S
H915 C923 0.950 . S
H916 C921 0.950 . S
H917 C922 0.949 . S
H918 C924 0.950 . S
H919 C925 0.950 . S
H920 C926 0.949 . S
C921 H916 0.950 . S
C921 C923 1.327 . S
C921 C927 1.429 . S
C922 C914 1.574 . S
C922 H917 0.949 . S
C922 C928 1.368 . S
C923 C907 1.349 . S
C923 H915 0.950 . S
C923 C921 1.327 . S
C924 C912 1.349 . S
C924 H918 0.950 . S
C924 C925 1.327 . S
C925 H919 0.950 . S
C925 C924 1.327 . S
C925 C929 1.429 . S
C926 C909 1.574 . S
C926 H920 0.949 . S
C926 C930 1.368 . S
C927 C908 1.429 . S
C927 C921 1.429 . S
C927 C928 1.523 . S
C928 C909 1.368 . S
C928 C922 1.368 . S
C928 C927 1.523 . S
C929 C913 1.429 . S
C929 C925 1.429 . S
C929 C930 1.523 1_655 S
C930 C914 1.368 . S
C930 C926 1.368 . S
C930 C929 1.523 1_455 S
H931 C906 0.950 . S
H932 C908 0.950 . S
H933 C909 0.949 . S
H934 C911 0.950 . S
H935 C913 0.950 . S
C936 C937 1.349 . S
C936 C938 1.327 . S
C936 H961 0.950 . S
C937 C936 1.349 . S
C937 C953 1.349 . S
C938 C936 1.327 . S
C938 C957 1.429 . S
C938 H962 0.950 . S
C939 C956 1.574 . S
C939 C958 1.368 . S
C939 H963 0.949 . S
H940 C944 0.949 . S
C941 C942 1.349 . S
C941 C943 1.327 . S
C941 H964 0.950 . S
C942 C941 1.349 . S
C942 C954 1.349 . S
C943 C941 1.327 . S
C943 C959 1.429 . S
C943 H965 0.950 . S
C944 H940 0.949 . S
C944 C952 1.574 . S
C944 C960 1.368 . S
H945 C953 0.950 . S
H946 C951 0.950 . S
H947 C952 0.949 . S
H948 C954 0.950 . S
H949 C955 0.950 . S
H950 C956 0.949 . S
C951 H946 0.950 . S
C951 C953 1.327 . S
C951 C957 1.429 . S
C952 C944 1.574 . S
C952 H947 0.949 . S
C952 C958 1.368 . S
C953 C937 1.349 . S
C953 H945 0.950 . S
C953 C951 1.327 . S
C954 C942 1.349 . S
C954 H948 0.950 . S
C954 C955 1.327 . S
C955 H949 0.950 . S
C955 C954 1.327 . S
C955 C959 1.429 . S
C956 C939 1.574 . S
C956 H950 0.949 . S
C956 C960 1.368 . S
C957 C938 1.429 . S
C957 C951 1.429 . S
C957 C958 1.523 . S
C958 C939 1.368 . S
C958 C952 1.368 . S
C958 C957 1.523 . S
C959 C943 1.429 . S
C959 C955 1.429 . S
C959 C960 1.523 . S
C960 C944 1.368 . S
C960 C956 1.368 . S
C960 C959 1.523 . S
H961 C936 0.950 . S
H962 C938 0.950 . S
H963 C939 0.949 . S
H964 C941 0.950 . S
H965 C943 0.950 . S
C966 C967 1.349 . S
C966 C968 1.327 . S
C966 H991 0.950 . S
C967 C966 1.349 . S
C967 C983 1.349 . S
C968 C966 1.327 . S
C968 C987 1.429 . S
C968 H992 0.950 . S
C969 C986 1.574 . S
C969 C988 1.368 . S
C969 H993 0.949 . S
H970 C974 0.949 . S
C971 C972 1.349 . S
C971 C973 1.327 . S
C971 H994 0.950 . S
C972 C971 1.349 . S
C972 C984 1.349 . S
C973 C971 1.327 . S
C973 C989 1.429 . S
C973 H995 0.950 . S
C974 H970 0.949 . S
C974 C982 1.574 . S
C974 C990 1.368 . S
H975 C983 0.950 . S
H976 C981 0.950 . S
H977 C982 0.949 . S
H978 C984 0.950 . S
H979 C985 0.950 . S
H980 C986 0.949 . S
C981 H976 0.950 . S
C981 C983 1.327 . S
C981 C987 1.429 . S
C982 C974 1.574 . S
C982 H977 0.949 . S
C982 C988 1.368 . S
C983 C967 1.349 . S
C983 H975 0.950 . S
C983 C981 1.327 . S
C984 C972 1.349 . S
C984 H978 0.950 . S
C984 C985 1.327 . S
C985 H979 0.950 . S
C985 C984 1.327 . S
C985 C989 1.429 . S
C986 C969 1.574 . S
C986 H980 0.949 . S
C986 C990 1.368 . S
C987 C968 1.429 . S
C987 C981 1.429 . S
C987 C988 1.523 . S
C988 C969 1.368 . S
C988 C982 1.368 . S
C988 C987 1.523 . S
C989 C973 1.429 . S
C989 C985 1.429 . S
C989 C990 1.523 . S
C990 C974 1.368 . S
C990 C986 1.368 . S
C990 C989 1.523 . S
H991 C966 0.950 . S
H992 C968 0.950 . S
H993 C969 0.949 . S
H994 C971 0.950 . S
H995 C973 0.950 . S
C996 C997 1.349 . S
C996 C998 1.327 . S
C996 H1021 0.950 . S
C997 C996 1.349 . S
C997 C1013 1.349 . S
C998 C996 1.327 . S
C998 C1017 1.429 . S
C998 H1022 0.950 . S
C999 C1016 1.574 . S
C999 C1018 1.368 . S
C999 H1023 0.949 . S
H1000 C1004 0.949 . S
C1001 C1002 1.349 . S
C1001 C1003 1.327 . S
C1001 H1024 0.950 . S
C1002 C1001 1.349 . S
C1002 C1014 1.349 . S
C1003 C1001 1.327 . S
C1003 C1019 1.429 . S
C1003 H1025 0.950 . S
C1004 H1000 0.949 . S
C1004 C1012 1.574 . S
C1004 C1020 1.368 . S
H1005 C1013 0.950 . S
H1006 C1011 0.950 . S
H1007 C1012 0.949 . S
H1008 C1014 0.950 . S
H1009 C1015 0.950 . S
H1010 C1016 0.949 . S
C1011 H1006 0.950 . S
C1011 C1013 1.327 . S
C1011 C1017 1.429 . S
C1012 C1004 1.574 . S
C1012 H1007 0.949 . S
C1012 C1018 1.368 . S
C1013 C997 1.349 . S
C1013 H1005 0.950 . S
C1013 C1011 1.327 . S
C1014 C1002 1.349 . S
C1014 H1008 0.950 . S
C1014 C1015 1.327 . S
C1015 H1009 0.950 . S
C1015 C1014 1.327 . S
C1015 C1019 1.429 . S
C1016 C999 1.574 . S
C1016 H1010 0.949 . S
C1016 C1020 1.368 . S
C1017 C998 1.429 . S
C1017 C1011 1.429 . S
C1017 C1018 1.523 . S
C1018 C999 1.368 . S
C1018 C1012 1.368 . S
C1018 C1017 1.523 . S
C1019 C1003 1.429 . S
C1019 C1015 1.429 . S
C1019 C1020 1.523 . S
C1020 C1004 1.368 . S
C1020 C1016 1.368 . S
C1020 C1019 1.523 . S
H1021 C996 0.950 . S
H1022 C998 0.950 . S
H1023 C999 0.949 . S
H1024 C1001 0.950 . S
H1025 C1003 0.950 . S
C1026 C1027 1.349 . S
C1026 C1028 1.327 . S
C1026 H1051 0.950 . S
C1027 C1026 1.349 . S
C1027 C1043 1.349 . S
C1028 C1026 1.327 . S
C1028 C1047 1.429 . S
C1028 H1052 0.950 . S
C1029 C1046 1.574 . S
C1029 C1048 1.368 . S
C1029 H1053 0.949 . S
H1030 C1034 0.949 . S
C1031 C1032 1.349 . S
C1031 C1033 1.327 . S
C1031 H1054 0.950 . S
C1032 C1031 1.349 . S
C1032 C1044 1.349 . S
C1033 C1031 1.327 . S
C1033 C1049 1.429 . S
C1033 H1055 0.950 . S
C1034 H1030 0.949 . S
C1034 C1042 1.574 . S
C1034 C1050 1.368 . S
H1035 C1043 0.950 . S
H1036 C1041 0.950 . S
H1037 C1042 0.949 . S
H1038 C1044 0.950 . S
H1039 C1045 0.950 . S
H1040 C1046 0.949 . S
C1041 H1036 0.950 . S
C1041 C1043 1.327 . S
C1041 C1047 1.429 . S
C1042 C1034 1.574 . S
C1042 H1037 0.949 . S
C1042 C1048 1.368 . S
C1043 C1027 1.349 . S
C1043 H1035 0.950 . S
C1043 C1041 1.327 . S
C1044 C1032 1.349 . S
C1044 H1038 0.950 . S
C1044 C1045 1.327 . S
C1045 H1039 0.950 . S
C1045 C1044 1.327 . S
C1045 C1049 1.429 . S
C1046 C1029 1.574 . S
C1046 H1040 0.949 . S
C1046 C1050 1.368 . S
C1047 C1028 1.429 . S
C1047 C1041 1.429 . S
C1047 C1048 1.523 . S
C1048 C1029 1.368 . S
C1048 C1042 1.368 . S
C1048 C1047 1.523 . S
C1049 C1033 1.429 . S
C1049 C1045 1.429 . S
C1049 C1050 1.523 . S
C1050 C1034 1.368 . S
C1050 C1046 1.368 . S
C1050 C1049 1.523 . S
H1051 C1026 0.950 . S
H1052 C1028 0.950 . S
H1053 C1029 0.949 . S
H1054 C1031 0.950 . S
H1055 C1033 0.950 . S
C1056 C1057 1.349 . S
C1056 C1058 1.327 . S
C1056 H1081 0.950 . S
C1057 C1056 1.349 . S
C1057 C1073 1.349 . S
C1058 C1056 1.327 . S
C1058 C1077 1.429 . S
C1058 H1082 0.950 . S
C1059 C1076 1.574 . S
C1059 C1078 1.368 . S
C1059 H1083 0.949 . S
H1060 C1064 0.949 . S
C1061 C1062 1.349 . S
C1061 C1063 1.327 . S
C1061 H1084 0.950 . S
C1062 C1061 1.349 . S
C1062 C1074 1.349 . S
C1063 C1061 1.327 . S
C1063 C1079 1.429 . S
C1063 H1085 0.950 . S
C1064 H1060 0.949 . S
C1064 C1072 1.574 . S
C1064 C1080 1.368 . S
H1065 C1073 0.950 . S
H1066 C1071 0.950 . S
H1067 C1072 0.949 . S
H1068 C1074 0.950 . S
H1069 C1075 0.950 . S
H1070 C1076 0.949 . S
C1071 H1066 0.950 . S
C1071 C1073 1.327 . S
C1071 C1077 1.429 . S
C1072 C1064 1.574 . S
C1072 H1067 0.949 . S
C1072 C1078 1.368 . S
C1073 C1057 1.349 . S
C1073 H1065 0.950 . S
C1073 C1071 1.327 . S
C1074 C1062 1.349 . S
C1074 H1068 0.950 . S
C1074 C1075 1.327 . S
C1075 H1069 0.950 . S
C1075 C1074 1.327 . S
C1075 C1079 1.429 . S
C1076 C1059 1.574 . S
C1076 H1070 0.949 . S
C1076 C1080 1.368 . S
C1077 C1058 1.429 . S
C1077 C1071 1.429 . S
C1077 C1078 1.523 . S
C1078 C1059 1.368 . S
C1078 C1072 1.368 . S
C1078 C1077 1.523 . S
C1079 C1063 1.429 . S
C1079 C1075 1.429 . S
C1079 C1080 1.523 . S
C1080 C1064 1.368 . S
C1080 C1076 1.368 . S
C1080 C1079 1.523 . S
H1081 C1056 0.950 . S
H1082 C1058 0.950 . S
H1083 C1059 0.949 . S
H1084 C1061 0.950 . S
H1085 C1063 0.950 . S
C1086 C1087 1.349 . S
C1086 C1088 1.327 . S
C1086 H1111 0.950 . S
C1087 C1086 1.349 . S
C1087 C1103 1.349 . S
C1088 C1086 1.327 . S
C1088 C1107 1.429 . S
C1088 H1112 0.950 . S
C1089 C1106 1.574 . S
C1089 C1108 1.368 . S
C1089 H1113 0.949 . S
H1090 C1094 0.949 . S
C1091 C1092 1.349 . S
C1091 C1093 1.327 . S
C1091 H1114 0.950 . S
C1092 C1091 1.349 . S
C1092 C1104 1.349 . S
C1093 C1091 1.327 . S
C1093 C1109 1.429 . S
C1093 H1115 0.950 . S
C1094 H1090 0.949 . S
C1094 C1102 1.574 . S
C1094 C1110 1.368 . S
H1095 C1103 0.950 . S
H1096 C1101 0.950 . S
H1097 C1102 0.949 . S
H1098 C1104 0.950 . S
H1099 C1105 0.950 . S
H1100 C1106 0.949 . S
C1101 H1096 0.950 . S
C1101 C1103 1.327 . S
C1101 C1107 1.429 . S
C1102 C1094 1.574 . S
C1102 H1097 0.949 . S
C1102 C1108 1.368 . S
C1103 C1087 1.349 . S
C1103 H1095 0.950 . S
C1103 C1101 1.327 . S
C1104 C1092 1.349 . S
C1104 H1098 0.950 . S
C1104 C1105 1.327 . S
C1105 H1099 0.950 . S
C1105 C1104 1.327 . S
C1105 C1109 1.429 . S
C1106 C1089 1.574 . S
C1106 H1100 0.949 . S
C1106 C1110 1.368 . S
C1107 C1088 1.429 . S
C1107 C1101 1.429 . S
C1107 C1108 1.523 . S
C1108 C1089 1.368 . S
C1108 C1102 1.368 . S
C1108 C1107 1.523 . S
C1109 C1093 1.429 . S
C1109 C1105 1.429 . S
C1109 C1110 1.523 . S
C1110 C1094 1.368 . S
C1110 C1106 1.368 . S
C1110 C1109 1.523 . S
H1111 C1086 0.950 . S
H1112 C1088 0.950 . S
H1113 C1089 0.949 . S
H1114 C1091 0.950 . S
H1115 C1093 0.950 . S
C1116 C1117 1.349 . S
C1116 C1118 1.327 . S
C1116 H1141 0.950 . S
C1117 C1116 1.349 . S
C1117 C1133 1.349 . S
C1118 C1116 1.327 . S
C1118 C1137 1.429 . S
C1118 H1142 0.950 . S
C1119 C1136 1.574 . S
C1119 C1138 1.368 . S
C1119 H1143 0.949 . S
H1120 C1124 0.949 . S
C1121 C1122 1.349 . S
C1121 C1123 1.327 . S
C1121 H1144 0.950 . S
C1122 C1121 1.349 . S
C1122 C1134 1.349 . S
C1123 C1121 1.327 . S
C1123 C1139 1.429 . S
C1123 H1145 0.950 . S
C1124 H1120 0.949 . S
C1124 C1132 1.574 . S
C1124 C1140 1.368 . S
H1125 C1133 0.950 . S
H1126 C1131 0.950 . S
H1127 C1132 0.949 . S
H1128 C1134 0.950 . S
H1129 C1135 0.950 . S
H1130 C1136 0.949 . S
C1131 H1126 0.950 . S
C1131 C1133 1.327 . S
C1131 C1137 1.429 . S
C1132 C1124 1.574 . S
C1132 H1127 0.949 . S
C1132 C1138 1.368 . S
C1133 C1117 1.349 . S
C1133 H1125 0.950 . S
C1133 C1131 1.327 . S
C1134 C1122 1.349 . S
C1134 H1128 0.950 . S
C1134 C1135 1.327 . S
C1135 H1129 0.950 . S
C1135 C1134 1.327 . S
C1135 C1139 1.429 . S
C1136 C1119 1.574 . S
C1136 H1130 0.949 . S
C1136 C1140 1.368 . S
C1137 C1118 1.429 . S
C1137 C1131 1.429 . S
C1137 C1138 1.523 . S
C1138 C1119 1.368 . S
C1138 C1132 1.368 . S
C1138 C1137 1.523 . S
C1139 C1123 1.429 . S
C1139 C1135 1.429 . S
C1139 C1140 1.523 . S
C1140 C1124 1.368 . S
C1140 C1136 1.368 . S
C1140 C1139 1.523 . S
H1141 C1116 0.950 . S
H1142 C1118 0.950 . S
H1143 C1119 0.949 . S
H1144 C1121 0.950 . S
H1145 C1123 0.950 . S
C1146 C1147 1.349 . S
C1146 C1148 1.327 . S
C1146 H1171 0.950 . S
C1147 C1146 1.349 . S
C1147 C1163 1.349 . S
C1148 C1146 1.327 . S
C1148 C1167 1.429 . S
C1148 H1172 0.950 . S
C1149 C1166 1.574 . S
C1149 C1168 1.368 . S
C1149 H1173 0.949 . S
H1150 C1154 0.949 . S
C1151 C1152 1.349 . S
C1151 C1153 1.327 . S
C1151 H1174 0.950 . S
C1152 C1151 1.349 . S
C1152 C1164 1.349 . S
C1153 C1151 1.327 . S
C1153 C1169 1.429 . S
C1153 H1175 0.950 . S
C1154 H1150 0.949 . S
C1154 C1162 1.574 . S
C1154 C1170 1.368 . S
H1155 C1163 0.950 . S
H1156 C1161 0.950 . S
H1157 C1162 0.949 . S
H1158 C1164 0.950 . S
H1159 C1165 0.950 . S
H1160 C1166 0.949 . S
C1161 H1156 0.950 . S
C1161 C1163 1.327 . S
C1161 C1167 1.429 . S
C1162 C1154 1.574 . S
C1162 H1157 0.949 . S
C1162 C1168 1.368 . S
C1163 C1147 1.349 . S
C1163 H1155 0.950 . S
C1163 C1161 1.327 . S
C1164 C1152 1.349 . S
C1164 H1158 0.950 . S
C1164 C1165 1.327 . S
C1165 H1159 0.950 . S
C1165 C1164 1.327 . S
C1165 C1169 1.429 . S
C1166 C1149 1.574 . S
C1166 H1160 0.949 . S
C1166 C1170 1.368 . S
C1167 C1148 1.429 . S
C1167 C1161 1.429 . S
C1167 C1168 1.523 . S
C1168 C1149 1.368 . S
C1168 C1162 1.368 . S
C1168 C1167 1.523 . S
C1169 C1153 1.429 . S
C1169 C1165 1.429 . S
C1169 C1170 1.523 . S
C1170 C1154 1.368 . S
C1170 C1166 1.368 . S
C1170 C1169 1.523 . S
H1171 C1146 0.950 . S
H1172 C1148 0.950 . S
H1173 C1149 0.949 . S
H1174 C1151 0.950 . S
H1175 C1153 0.950 . S
C1176 C1177 1.349 . S
C1176 C1178 1.327 . S
C1176 H1201 0.950 . S
C1177 C1176 1.349 . S
C1177 C1193 1.349 . S
C1178 C1176 1.327 . S
C1178 C1197 1.429 . S
C1178 H1202 0.950 . S
C1179 C1196 1.574 . S
C1179 C1198 1.368 . S
C1179 H1203 0.949 . S
H1180 C1184 0.949 . S
C1181 C1182 1.349 . S
C1181 C1183 1.327 . S
C1181 H1204 0.950 . S
C1182 C1181 1.349 . S
C1182 C1194 1.349 . S
C1183 C1181 1.327 . S
C1183 C1199 1.429 . S
C1183 H1205 0.950 . S
C1184 H1180 0.949 . S
C1184 C1192 1.574 . S
C1184 C1200 1.368 . S
H1185 C1193 0.950 . S
H1186 C1191 0.950 . S
H1187 C1192 0.949 . S
H1188 C1194 0.950 . S
H1189 C1195 0.950 . S
H1190 C1196 0.949 . S
C1191 H1186 0.950 . S
C1191 C1193 1.327 . S
C1191 C1197 1.429 . S
C1192 C1184 1.574 . S
C1192 H1187 0.949 . S
C1192 C1198 1.368 . S
C1193 C1177 1.349 . S
C1193 H1185 0.950 . S
C1193 C1191 1.327 . S
C1194 C1182 1.349 . S
C1194 H1188 0.950 . S
C1194 C1195 1.327 . S
C1195 H1189 0.950 . S
C1195 C1194 1.327 . S
C1195 C1199 1.429 . S
C1196 C1179 1.574 . S
C1196 H1190 0.949 . S
C1196 C1200 1.368 . S
C1197 C1178 1.429 . S
C1197 C1191 1.429 . S
C1197 C1198 1.523 . S
C1198 C1179 1.368 . S
C1198 C1192 1.368 . S
C1198 C1197 1.523 . S
C1199 C1183 1.429 . S
C1199 C1195 1.429 . S
C1199 C1200 1.523 . S
C1200 C1184 1.368 . S
C1200 C1196 1.368 . S
C1200 C1199 1.523 . S
H1201 C1176 0.950 . S
H1202 C1178 0.950 . S
H1203 C1179 0.949 . S
H1204 C1181 0.950 . S
H1205 C1183 0.950 . S
C1206 C1207 1.349 . S
C1206 C1208 1.327 . S
C1206 H1231 0.950 . S
C1207 C1206 1.349 . S
C1207 C1223 1.349 . S
C1208 C1206 1.327 . S
C1208 C1227 1.429 1_556 S
C1208 H1232 0.950 . S
C1209 C1226 1.574 . S
C1209 C1228 1.368 . S
C1209 H1233 0.949 . S
H1210 C1214 0.949 . S
C1211 C1212 1.349 . S
C1211 C1213 1.327 . S
C1211 H1234 0.950 . S
C1212 C1211 1.349 . S
C1212 C1224 1.349 . S
C1213 C1211 1.327 . S
C1213 C1229 1.429 . S
C1213 H1235 0.950 . S
C1214 H1210 0.949 . S
C1214 C1222 1.574 . S
C1214 C1230 1.368 . S
H1215 C1223 0.950 . S
H1216 C1221 0.950 1_554 S
H1217 C1222 0.949 . S
H1218 C1224 0.950 . S
H1219 C1225 0.950 . S
H1220 C1226 0.949 . S
C1221 H1216 0.950 1_556 S
C1221 C1223 1.327 . S
C1221 C1227 1.429 1_556 S
C1222 C1214 1.574 . S
C1222 H1217 0.949 . S
C1222 C1228 1.368 . S
C1223 C1207 1.349 . S
C1223 H1215 0.950 . S
C1223 C1221 1.327 . S
C1224 C1212 1.349 . S
C1224 H1218 0.950 . S
C1224 C1225 1.327 . S
C1225 H1219 0.950 . S
C1225 C1224 1.327 . S
C1225 C1229 1.429 . S
C1226 C1209 1.574 . S
C1226 H1220 0.949 . S
C1226 C1230 1.368 . S
C1227 C1208 1.429 1_554 S
C1227 C1221 1.429 1_554 S
C1227 C1228 1.523 . S
C1228 C1209 1.368 . S
C1228 C1222 1.368 . S
C1228 C1227 1.523 . S
C1229 C1213 1.429 . S
C1229 C1225 1.429 . S
C1229 C1230 1.523 . S
C1230 C1214 1.368 . S
C1230 C1226 1.368 . S
C1230 C1229 1.523 . S
H1231 C1206 0.950 . S
H1232 C1208 0.950 . S
H1233 C1209 0.949 . S
H1234 C1211 0.950 . S
H1235 C1213 0.950 . S
C1236 C1237 1.349 . S
C1236 C1238 1.327 . S
C1236 H1261 0.950 . S
C1237 C1236 1.349 . S
C1237 C1253 1.349 . S
C1238 C1236 1.327 . S
C1238 C1257 1.429 1_556 S
C1238 H1262 0.950 . S
C1239 C1256 1.574 . S
C1239 C1258 1.368 . S
C1239 H1263 0.949 . S
H1240 C1244 0.949 . S
C1241 C1242 1.349 . S
C1241 C1243 1.327 . S
C1241 H1264 0.950 . S
C1242 C1241 1.349 . S
C1242 C1254 1.349 . S
C1243 C1241 1.327 . S
C1243 C1259 1.429 . S
C1243 H1265 0.950 . S
C1244 H1240 0.949 . S
C1244 C1252 1.574 . S
C1244 C1260 1.368 . S
H1245 C1253 0.950 . S
H1246 C1251 0.950 1_554 S
H1247 C1252 0.949 . S
H1248 C1254 0.950 . S
H1249 C1255 0.950 . S
H1250 C1256 0.949 . S
C1251 H1246 0.950 1_556 S
C1251 C1253 1.327 . S
C1251 C1257 1.429 1_556 S
C1252 C1244 1.574 . S
C1252 H1247 0.949 . S
C1252 C1258 1.368 . S
C1253 C1237 1.349 . S
C1253 H1245 0.950 . S
C1253 C1251 1.327 . S
C1254 C1242 1.349 . S
C1254 H1248 0.950 . S
C1254 C1255 1.327 . S
C1255 H1249 0.950 . S
C1255 C1254 1.327 . S
C1255 C1259 1.429 . S
C1256 C1239 1.574 . S
C1256 H1250 0.949 . S
C1256 C1260 1.368 . S
C1257 C1238 1.429 1_554 S
C1257 C1251 1.429 1_554 S
C1257 C1258 1.523 . S
C1258 C1239 1.368 . S
C1258 C1252 1.368 . S
C1258 C1257 1.523 . S
C1259 C1243 1.429 . S
C1259 C1255 1.429 . S
C1259 C1260 1.523 . S
C1260 C1244 1.368 . S
C1260 C1256 1.368 . S
C1260 C1259 1.523 . S
H1261 C1236 0.950 . S
H1262 C1238 0.950 . S
H1263 C1239 0.949 . S
H1264 C1241 0.950 . S
H1265 C1243 0.950 . S
C1266 C1267 1.349 . S
C1266 C1268 1.327 . S
C1266 H1291 0.950 . S
C1267 C1266 1.349 . S
C1267 C1283 1.349 . S
C1268 C1266 1.327 . S
C1268 C1287 1.429 1_556 S
C1268 H1292 0.950 1_556 S
C1269 C1286 1.574 . S
C1269 C1288 1.368 . S
C1269 H1293 0.949 . S
H1270 C1274 0.949 . S
C1271 C1272 1.349 . S
C1271 C1273 1.327 . S
C1271 H1294 0.950 . S
C1272 C1271 1.349 . S
C1272 C1284 1.349 . S
C1273 C1271 1.327 . S
C1273 C1289 1.429 . S
C1273 H1295 0.950 . S
C1274 H1270 0.949 . S
C1274 C1282 1.574 . S
C1274 C1290 1.368 . S
H1275 C1283 0.950 . S
H1276 C1281 0.950 1_554 S
H1277 C1282 0.949 . S
H1278 C1284 0.950 . S
H1279 C1285 0.950 . S
H1280 C1286 0.949 . S
C1281 H1276 0.950 1_556 S
C1281 C1283 1.327 . S
C1281 C1287 1.429 1_556 S
C1282 C1274 1.574 . S
C1282 H1277 0.949 . S
C1282 C1288 1.368 . S
C1283 C1267 1.349 . S
C1283 H1275 0.950 . S
C1283 C1281 1.327 . S
C1284 C1272 1.349 . S
C1284 H1278 0.950 . S
C1284 C1285 1.327 . S
C1285 H1279 0.950 . S
C1285 C1284 1.327 . S
C1285 C1289 1.429 . S
C1286 C1269 1.574 . S
C1286 H1280 0.949 . S
C1286 C1290 1.368 . S
C1287 C1268 1.429 1_554 S
C1287 C1281 1.429 1_554 S
C1287 C1288 1.523 . S
C1288 C1269 1.368 . S
C1288 C1282 1.368 . S
C1288 C1287 1.523 . S
C1289 C1273 1.429 . S
C1289 C1285 1.429 . S
C1289 C1290 1.523 . S
C1290 C1274 1.368 . S
C1290 C1286 1.368 . S
C1290 C1289 1.523 . S
H1291 C1266 0.950 . S
H1292 C1268 0.950 1_554 S
H1293 C1269 0.949 . S
H1294 C1271 0.950 . S
H1295 C1273 0.950 . S
C1296 C1297 1.349 . S
C1296 C1298 1.327 . S
C1296 H1321 0.950 . S
C1297 C1296 1.349 . S
C1297 C1313 1.349 . S
C1298 C1296 1.327 . S
C1298 C1317 1.429 . S
C1298 H1322 0.950 . S
C1299 C1316 1.574 . S
C1299 C1318 1.368 . S
C1299 H1323 0.949 . S
H1300 C1304 0.949 . S
C1301 C1302 1.349 . S
C1301 C1303 1.327 . S
C1301 H1324 0.950 . S
C1302 C1301 1.349 . S
C1302 C1314 1.349 . S
C1303 C1301 1.327 . S
C1303 C1319 1.429 1_554 S
C1303 H1325 0.950 1_554 S
C1304 H1300 0.949 . S
C1304 C1312 1.574 . S
C1304 C1320 1.368 . S
H1305 C1313 0.950 . S
H1306 C1311 0.950 . S
H1307 C1312 0.949 . S
H1308 C1314 0.950 . S
H1309 C1315 0.950 . S
H1310 C1316 0.949 . S
C1311 H1306 0.950 . S
C1311 C1313 1.327 . S
C1311 C1317 1.429 . S
C1312 C1304 1.574 . S
C1312 H1307 0.949 . S
C1312 C1318 1.368 . S
C1313 C1297 1.349 . S
C1313 H1305 0.950 . S
C1313 C1311 1.327 . S
C1314 C1302 1.349 . S
C1314 H1308 0.950 . S
C1314 C1315 1.327 . S
C1315 H1309 0.950 . S
C1315 C1314 1.327 . S
C1315 C1319 1.429 1_554 S
C1316 C1299 1.574 . S
C1316 H1310 0.949 . S
C1316 C1320 1.368 . S
C1317 C1298 1.429 . S
C1317 C1311 1.429 . S
C1317 C1318 1.523 . S
C1318 C1299 1.368 . S
C1318 C1312 1.368 . S
C1318 C1317 1.523 . S
C1319 C1303 1.429 1_556 S
C1319 C1315 1.429 1_556 S
C1319 C1320 1.523 . S
C1320 C1304 1.368 . S
C1320 C1316 1.368 . S
C1320 C1319 1.523 . S
H1321 C1296 0.950 . S
H1322 C1298 0.950 . S
H1323 C1299 0.949 . S
H1324 C1301 0.950 . S
H1325 C1303 0.950 1_556 S
C1326 C1327 1.349 . S
C1326 C1328 1.327 . S
C1326 H1351 0.950 . S
C1327 C1326 1.349 . S
C1327 C1343 1.349 . S
C1328 C1326 1.327 . S
C1328 C1347 1.429 . S
C1328 H1352 0.950 . S
C1329 C1346 1.574 . S
C1329 C1348 1.368 . S
C1329 H1353 0.949 . S
H1330 C1334 0.949 . S
C1331 C1332 1.349 . S
C1331 C1333 1.327 . S
C1331 H1354 0.950 . S
C1332 C1331 1.349 . S
C1332 C1344 1.349 . S
C1333 C1331 1.327 . S
C1333 C1349 1.429 1_554 S
C1333 H1355 0.949 1_554 S
C1334 H1330 0.949 . S
C1334 C1342 1.574 . S
C1334 C1350 1.368 . S
H1335 C1343 0.950 . S
H1336 C1341 0.950 . S
H1337 C1342 0.949 . S
H1338 C1344 0.950 . S
H1339 C1345 0.950 . S
H1340 C1346 0.949 . S
C1341 H1336 0.950 . S
C1341 C1343 1.327 . S
C1341 C1347 1.429 . S
C1342 C1334 1.574 . S
C1342 H1337 0.949 . S
C1342 C1348 1.368 . S
C1343 C1327 1.349 . S
C1343 H1335 0.950 . S
C1343 C1341 1.327 . S
C1344 C1332 1.349 . S
C1344 H1338 0.950 . S
C1344 C1345 1.327 . S
C1345 H1339 0.950 . S
C1345 C1344 1.327 . S
C1345 C1349 1.429 1_554 S
C1346 C1329 1.574 . S
C1346 H1340 0.949 . S
C1346 C1350 1.368 . S
C1347 C1328 1.429 . S
C1347 C1341 1.429 . S
C1347 C1348 1.523 . S
C1348 C1329 1.368 . S
C1348 C1342 1.368 . S
C1348 C1347 1.523 . S
C1349 C1333 1.429 1_556 S
C1349 C1345 1.429 1_556 S
C1349 C1350 1.523 . S
C1350 C1334 1.368 . S
C1350 C1346 1.368 . S
C1350 C1349 1.523 . S
H1351 C1326 0.950 . S
H1352 C1328 0.950 . S
H1353 C1329 0.949 . S
H1354 C1331 0.950 . S
H1355 C1333 0.949 1_556 S
C1356 C1357 1.349 . S
C1356 C1358 1.327 . S
C1356 H1381 0.950 . S
C1357 C1356 1.349 . S
C1357 C1373 1.349 . S
C1358 C1356 1.327 . S
C1358 C1377 1.429 . S
C1358 H1382 0.950 . S
C1359 C1376 1.574 . S
C1359 C1378 1.368 . S
C1359 H1383 0.949 . S
H1360 C1364 0.949 . S
C1361 C1362 1.349 . S
C1361 C1363 1.327 . S
C1361 H1384 0.950 . S
C1362 C1361 1.349 . S
C1362 C1374 1.349 . S
C1363 C1361 1.327 . S
C1363 C1379 1.429 1_554 S
C1363 H1385 0.950 . S
C1364 H1360 0.949 . S
C1364 C1372 1.574 . S
C1364 C1380 1.368 . S
H1365 C1373 0.950 . S
H1366 C1371 0.950 . S
H1367 C1372 0.949 . S
H1368 C1374 0.950 . S
H1369 C1375 0.950 . S
H1370 C1376 0.949 . S
C1371 H1366 0.950 . S
C1371 C1373 1.327 . S
C1371 C1377 1.429 . S
C1372 C1364 1.574 . S
C1372 H1367 0.949 . S
C1372 C1378 1.368 . S
C1373 C1357 1.349 . S
C1373 H1365 0.950 . S
C1373 C1371 1.327 . S
C1374 C1362 1.349 . S
C1374 H1368 0.950 . S
C1374 C1375 1.327 . S
C1375 H1369 0.950 . S
C1375 C1374 1.327 . S
C1375 C1379 1.429 1_554 S
C1376 C1359 1.574 . S
C1376 H1370 0.949 . S
C1376 C1380 1.368 . S
C1377 C1358 1.429 . S
C1377 C1371 1.429 . S
C1377 C1378 1.523 . S
C1378 C1359 1.368 . S
C1378 C1372 1.368 . S
C1378 C1377 1.523 . S
C1379 C1363 1.429 1_556 S
C1379 C1375 1.429 1_556 S
C1379 C1380 1.523 . S
C1380 C1364 1.368 . S
C1380 C1376 1.368 . S
C1380 C1379 1.523 . S
H1381 C1356 0.950 . S
H1382 C1358 0.950 . S
H1383 C1359 0.949 . S
H1384 C1361 0.950 . S
H1385 C1363 0.950 . S
C1386 C1387 1.349 . S
C1386 C1388 1.327 . S
C1386 H1411 0.950 . S
C1387 C1386 1.349 . S
C1387 C1403 1.349 . S
C1388 C1386 1.327 . S
C1388 C1407 1.429 . S
C1388 H1412 0.950 . S
C1389 C1406 1.574 . S
C1389 C1408 1.368 . S
C1389 H1413 0.949 . S
H1390 C1394 0.949 . S
C1391 C1392 1.349 . S
C1391 C1393 1.327 . S
C1391 H1414 0.950 . S
C1392 C1391 1.349 . S
C1392 C1404 1.349 . S
C1393 C1391 1.327 . S
C1393 C1409 1.429 . S
C1393 H1415 0.950 . S
C1394 H1390 0.949 . S
C1394 C1402 1.574 . S
C1394 C1410 1.368 . S
H1395 C1403 0.950 . S
H1396 C1401 0.950 . S
H1397 C1402 0.949 . S
H1398 C1404 0.950 . S
H1399 C1405 0.950 . S
H1400 C1406 0.949 . S
C1401 H1396 0.950 . S
C1401 C1403 1.327 . S
C1401 C1407 1.429 . S
C1402 C1394 1.574 . S
C1402 H1397 0.949 . S
C1402 C1408 1.368 . S
C1403 C1387 1.349 . S
C1403 H1395 0.950 . S
C1403 C1401 1.327 . S
C1404 C1392 1.349 . S
C1404 H1398 0.950 . S
C1404 C1405 1.327 . S
C1405 H1399 0.950 . S
C1405 C1404 1.327 . S
C1405 C1409 1.429 . S
C1406 C1389 1.574 . S
C1406 H1400 0.949 . S
C1406 C1410 1.368 . S
C1407 C1388 1.429 . S
C1407 C1401 1.429 . S
C1407 C1408 1.523 . S
C1408 C1389 1.368 . S
C1408 C1402 1.368 . S
C1408 C1407 1.523 . S
C1409 C1393 1.429 . S
C1409 C1405 1.429 . S
C1409 C1410 1.523 . S
C1410 C1394 1.368 . S
C1410 C1406 1.368 . S
C1410 C1409 1.523 . S
H1411 C1386 0.950 . S
H1412 C1388 0.950 . S
H1413 C1389 0.949 . S
H1414 C1391 0.950 . S
H1415 C1393 0.950 . S
C1416 C1417 1.349 . S
C1416 C1418 1.327 . S
C1416 H1441 0.950 . S
C1417 C1416 1.349 . S
C1417 C1433 1.349 . S
C1418 C1416 1.327 . S
C1418 C1437 1.429 . S
C1418 H1442 0.950 . S
C1419 C1436 1.574 . S
C1419 C1438 1.368 . S
C1419 H1443 0.949 . S
H1420 C1424 0.949 . S
C1421 C1422 1.349 . S
C1421 C1423 1.327 . S
C1421 H1444 0.950 . S
C1422 C1421 1.349 . S
C1422 C1434 1.349 . S
C1423 C1421 1.327 . S
C1423 C1439 1.429 . S
C1423 H1445 0.950 . S
C1424 H1420 0.949 . S
C1424 C1432 1.574 . S
C1424 C1440 1.368 . S
H1425 C1433 0.950 . S
H1426 C1431 0.950 . S
H1427 C1432 0.949 . S
H1428 C1434 0.950 . S
H1429 C1435 0.950 . S
H1430 C1436 0.949 . S
C1431 H1426 0.950 . S
C1431 C1433 1.327 . S
C1431 C1437 1.429 . S
C1432 C1424 1.574 . S
C1432 H1427 0.949 . S
C1432 C1438 1.368 . S
C1433 C1417 1.349 . S
C1433 H1425 0.950 . S
C1433 C1431 1.327 . S
C1434 C1422 1.349 . S
C1434 H1428 0.950 . S
C1434 C1435 1.327 . S
C1435 H1429 0.950 . S
C1435 C1434 1.327 . S
C1435 C1439 1.429 . S
C1436 C1419 1.574 . S
C1436 H1430 0.949 . S
C1436 C1440 1.368 . S
C1437 C1418 1.429 . S
C1437 C1431 1.429 . S
C1437 C1438 1.523 . S
C1438 C1419 1.368 . S
C1438 C1432 1.368 . S
C1438 C1437 1.523 . S
C1439 C1423 1.429 . S
C1439 C1435 1.429 . S
C1439 C1440 1.523 . S
C1440 C1424 1.368 . S
C1440 C1436 1.368 . S
C1440 C1439 1.523 . S
H1441 C1416 0.950 . S
H1442 C1418 0.950 . S
H1443 C1419 0.949 . S
H1444 C1421 0.950 . S
H1445 C1423 0.950 . S
C1446 C1447 1.349 . S
C1446 C1448 1.327 . S
C1446 H1471 0.950 . S
C1447 C1446 1.349 . S
C1447 C1463 1.349 . S
C1448 C1446 1.327 . S
C1448 C1467 1.429 . S
C1448 H1472 0.950 . S
C1449 C1466 1.574 . S
C1449 C1468 1.368 . S
C1449 H1473 0.949 . S
H1450 C1454 0.949 . S
C1451 C1452 1.349 . S
C1451 C1453 1.327 . S
C1451 H1474 0.950 . S
C1452 C1451 1.349 . S
C1452 C1464 1.349 . S
C1453 C1451 1.327 . S
C1453 C1469 1.429 . S
C1453 H1475 0.950 . S
C1454 H1450 0.949 . S
C1454 C1462 1.574 . S
C1454 C1470 1.368 . S
H1455 C1463 0.950 . S
H1456 C1461 0.950 . S
H1457 C1462 0.949 . S
H1458 C1464 0.950 . S
H1459 C1465 0.950 . S
H1460 C1466 0.949 . S
C1461 H1456 0.950 . S
C1461 C1463 1.327 . S
C1461 C1467 1.429 . S
C1462 C1454 1.574 . S
C1462 H1457 0.949 . S
C1462 C1468 1.368 . S
C1463 C1447 1.349 . S
C1463 H1455 0.950 . S
C1463 C1461 1.327 . S
C1464 C1452 1.349 . S
C1464 H1458 0.950 . S
C1464 C1465 1.327 . S
C1465 H1459 0.950 . S
C1465 C1464 1.327 . S
C1465 C1469 1.429 . S
C1466 C1449 1.574 . S
C1466 H1460 0.949 . S
C1466 C1470 1.368 . S
C1467 C1448 1.429 . S
C1467 C1461 1.429 . S
C1467 C1468 1.523 . S
C1468 C1449 1.368 . S
C1468 C1462 1.368 . S
C1468 C1467 1.523 . S
C1469 C1453 1.429 . S
C1469 C1465 1.429 . S
C1469 C1470 1.523 . S
C1470 C1454 1.368 . S
C1470 C1466 1.368 . S
C1470 C1469 1.523 . S
H1471 C1446 0.950 . S
H1472 C1448 0.950 . S
H1473 C1449 0.949 . S
H1474 C1451 0.950 . S
H1475 C1453 0.950 . S
C1476 C1477 1.349 . S
C1476 C1478 1.327 . S
C1476 H1501 0.950 . S
C1477 C1476 1.349 . S
C1477 C1493 1.349 . S
C1478 C1476 1.327 . S
C1478 C1497 1.429 . S
C1478 H1502 0.950 . S
C1479 C1496 1.574 . S
C1479 C1498 1.368 . S
C1479 H1503 0.949 . S
H1480 C1484 0.949 . S
C1481 C1482 1.349 . S
C1481 C1483 1.327 . S
C1481 H1504 0.950 . S
C1482 C1481 1.349 . S
C1482 C1494 1.349 . S
C1483 C1481 1.327 . S
C1483 C1499 1.429 . S
C1483 H1505 0.950 . S
C1484 H1480 0.949 . S
C1484 C1492 1.574 . S
C1484 C1500 1.368 . S
H1485 C1493 0.950 . S
H1486 C1491 0.950 . S
H1487 C1492 0.949 . S
H1488 C1494 0.950 1_554 S
H1489 C1495 0.950 1_565 S
H1490 C1496 0.949 1_545 S
C1491 H1486 0.950 . S
C1491 C1493 1.327 . S
C1491 C1497 1.429 . S
C1492 C1484 1.574 . S
C1492 H1487 0.949 . S
C1492 C1498 1.368 . S
C1493 C1477 1.349 . S
C1493 H1485 0.950 . S
C1493 C1491 1.327 . S
C1494 C1482 1.349 . S
C1494 H1488 0.950 1_556 S
C1494 C1495 1.327 . S
C1495 H1489 0.950 1_545 S
C1495 C1494 1.327 . S
C1495 C1499 1.429 . S
C1496 C1479 1.574 . S
C1496 H1490 0.949 1_565 S
C1496 C1500 1.368 . S
C1497 C1478 1.429 . S
C1497 C1491 1.429 . S
C1497 C1498 1.523 . S
C1498 C1479 1.368 . S
C1498 C1492 1.368 . S
C1498 C1497 1.523 . S
C1499 C1483 1.429 . S
C1499 C1495 1.429 . S
C1499 C1500 1.523 1_545 S
C1500 C1484 1.368 . S
C1500 C1496 1.368 . S
C1500 C1499 1.523 1_565 S
H1501 C1476 0.950 . S
H1502 C1478 0.950 . S
H1503 C1479 0.949 . S
H1504 C1481 0.950 . S
H1505 C1483 0.950 . S
C1506 C1507 1.349 . S
C1506 C1508 1.327 . S
C1506 H1531 0.950 . S
C1507 C1506 1.349 . S
C1507 C1523 1.349 . S
C1508 C1506 1.327 . S
C1508 C1527 1.429 . S
C1508 H1532 0.950 . S
C1509 C1526 1.574 . S
C1509 C1528 1.368 . S
C1509 H1533 0.949 . S
H1510 C1514 0.949 . S
C1511 C1512 1.349 . S
C1511 C1513 1.327 . S
C1511 H1534 0.950 . S
C1512 C1511 1.349 . S
C1512 C1524 1.349 . S
C1513 C1511 1.327 . S
C1513 C1529 1.429 . S
C1513 H1535 0.950 . S
C1514 H1510 0.949 . S
C1514 C1522 1.574 . S
C1514 C1530 1.368 . S
H1515 C1523 0.950 1_554 S
H1516 C1521 0.950 1_554 S
H1517 C1522 0.949 . S
H1518 C1524 0.950 . S
H1519 C1525 0.950 . S
H1520 C1526 0.949 . S
C1521 H1516 0.950 1_556 S
C1521 C1523 1.327 . S
C1521 C1527 1.429 . S
C1522 C1514 1.574 . S
C1522 H1517 0.949 . S
C1522 C1528 1.368 . S
C1523 C1507 1.349 . S
C1523 H1515 0.950 1_556 S
C1523 C1521 1.327 . S
C1524 C1512 1.349 . S
C1524 H1518 0.950 . S
C1524 C1525 1.327 . S
C1525 H1519 0.950 . S
C1525 C1524 1.327 . S
C1525 C1529 1.429 . S
C1526 C1509 1.574 . S
C1526 H1520 0.949 . S
C1526 C1530 1.368 . S
C1527 C1508 1.429 . S
C1527 C1521 1.429 . S
C1527 C1528 1.523 1_655 S
C1528 C1509 1.368 . S
C1528 C1522 1.368 . S
C1528 C1527 1.523 1_455 S
C1529 C1513 1.429 . S
C1529 C1525 1.429 . S
C1529 C1530 1.523 . S
C1530 C1514 1.368 . S
C1530 C1526 1.368 . S
C1530 C1529 1.523 . S
H1531 C1506 0.950 . S
H1532 C1508 0.950 . S
H1533 C1509 0.949 . S
H1534 C1511 0.950 . S
H1535 C1513 0.950 . S
C1536 C1537 1.349 . S
C1536 C1538 1.327 . S
C1536 H1561 0.950 . S
C1537 C1536 1.349 . S
C1537 C1553 1.349 . S
C1538 C1536 1.327 . S
C1538 C1557 1.429 . S
C1538 H1562 0.950 . S
C1539 C1556 1.574 . S
C1539 C1558 1.368 . S
C1539 H1563 0.949 . S
H1540 C1544 0.949 . S
C1541 C1542 1.349 . S
C1541 C1543 1.327 . S
C1541 H1564 0.950 1_556 S
C1542 C1541 1.349 . S
C1542 C1554 1.349 . S
C1543 C1541 1.327 . S
C1543 C1559 1.429 . S
C1543 H1565 0.950 1_556 S
C1544 H1540 0.949 . S
C1544 C1552 1.574 . S
C1544 C1560 1.368 . S
H1545 C1553 0.950 . S
H1546 C1551 0.950 . S
H1547 C1552 0.949 . S
H1548 C1554 0.950 . S
H1549 C1555 0.950 . S
H1550 C1556 0.949 . S
C1551 H1546 0.950 . S
C1551 C1553 1.327 . S
C1551 C1557 1.429 . S
C1552 C1544 1.574 . S
C1552 H1547 0.949 . S
C1552 C1558 1.368 . S
C1553 C1537 1.349 . S
C1553 H1545 0.950 . S
C1553 C1551 1.327 . S
C1554 C1542 1.349 . S
C1554 H1548 0.950 . S
C1554 C1555 1.327 . S
C1555 H1549 0.950 . S
C1555 C1554 1.327 . S
C1555 C1559 1.429 . S
C1556 C1539 1.574 . S
C1556 H1550 0.949 . S
C1556 C1560 1.368 . S
C1557 C1538 1.429 . S
C1557 C1551 1.429 . S
C1557 C1558 1.523 . S
C1558 C1539 1.368 . S
C1558 C1552 1.368 . S
C1558 C1557 1.523 . S
C1559 C1543 1.429 . S
C1559 C1555 1.429 . S
C1559 C1560 1.523 . S
C1560 C1544 1.368 . S
C1560 C1556 1.368 . S
C1560 C1559 1.523 . S
H1561 C1536 0.950 . S
H1562 C1538 0.950 . S
H1563 C1539 0.949 . S
H1564 C1541 0.950 1_554 S
H1565 C1543 0.950 1_554 S
C1566 C1567 1.349 . S
C1566 C1568 1.327 . S
C1566 H1591 0.950 . S
C1567 C1566 1.349 . S
C1567 C1583 1.349 . S
C1568 C1566 1.327 . S
C1568 C1587 1.429 . S
C1568 H1592 0.950 . S
C1569 C1586 1.574 . S
C1569 C1588 1.368 . S
C1569 H1593 0.949 . S
H1570 C1574 0.949 . S
C1571 C1572 1.349 . S
C1571 C1573 1.327 . S
C1571 H1594 0.950 . S
C1572 C1571 1.349 . S
C1572 C1584 1.349 . S
C1573 C1571 1.327 . S
C1573 C1589 1.429 . S
C1573 H1595 0.950 . S
C1574 H1570 0.949 . S
C1574 C1582 1.574 . S
C1574 C1590 1.368 . S
H1575 C1583 0.950 . S
H1576 C1581 0.950 1_455 S
H1577 C1582 0.949 1_655 S
H1578 C1584 0.950 . S
H1579 C1585 0.950 . S
H1580 C1586 0.949 . S
C1581 H1576 0.950 1_655 S
C1581 C1583 1.327 . S
C1581 C1587 1.429 . S
C1582 C1574 1.574 . S
C1582 H1577 0.949 1_455 S
C1582 C1588 1.368 . S
C1583 C1567 1.349 . S
C1583 H1575 0.950 . S
C1583 C1581 1.327 . S
C1584 C1572 1.349 . S
C1584 H1578 0.950 . S
C1584 C1585 1.327 . S
C1585 H1579 0.950 . S
C1585 C1584 1.327 . S
C1585 C1589 1.429 . S
C1586 C1569 1.574 . S
C1586 H1580 0.949 . S
C1586 C1590 1.368 . S
C1587 C1568 1.429 . S
C1587 C1581 1.429 . S
C1587 C1588 1.523 1_655 S
C1588 C1569 1.368 . S
C1588 C1582 1.368 . S
C1588 C1587 1.523 1_455 S
C1589 C1573 1.429 . S
C1589 C1585 1.429 . S
C1589 C1590 1.523 . S
C1590 C1574 1.368 . S
C1590 C1586 1.368 . S
C1590 C1589 1.523 . S
H1591 C1566 0.950 . S
H1592 C1568 0.950 . S
H1593 C1569 0.949 . S
H1594 C1571 0.950 . S
H1595 C1573 0.950 . S
C1596 C1597 1.349 . S
C1596 C1598 1.327 . S
C1596 H1621 0.950 . S
C1597 C1596 1.349 . S
C1597 C1613 1.349 . S
C1598 C1596 1.327 . S
C1598 C1617 1.429 . S
C1598 H1622 0.950 . S
C1599 C1616 1.574 . S
C1599 C1618 1.368 . S
C1599 H1623 0.949 . S
H1600 C1604 0.949 . S
C1601 C1602 1.349 . S
C1601 C1603 1.327 . S
C1601 H1624 0.950 . S
C1602 C1601 1.349 . S
C1602 C1614 1.349 . S
C1603 C1601 1.327 . S
C1603 C1619 1.429 . S
C1603 H1625 0.950 . S
C1604 H1600 0.949 . S
C1604 C1612 1.574 . S
C1604 C1620 1.368 . S
H1605 C1613 0.950 . S
H1606 C1611 0.950 . S
H1607 C1612 0.949 . S
H1608 C1614 0.950 . S
H1609 C1615 0.950 . S
H1610 C1616 0.949 . S
C1611 H1606 0.950 . S
C1611 C1613 1.327 . S
C1611 C1617 1.429 . S
C1612 C1604 1.574 . S
C1612 H1607 0.949 . S
C1612 C1618 1.368 . S
C1613 C1597 1.349 . S
C1613 H1605 0.950 . S
C1613 C1611 1.327 . S
C1614 C1602 1.349 . S
C1614 H1608 0.950 . S
C1614 C1615 1.327 . S
C1615 H1609 0.950 . S
C1615 C1614 1.327 . S
C1615 C1619 1.429 . S
C1616 C1599 1.574 . S
C1616 H1610 0.949 . S
C1616 C1620 1.368 . S
C1617 C1598 1.429 . S
C1617 C1611 1.429 . S
C1617 C1618 1.523 . S
C1618 C1599 1.368 . S
C1618 C1612 1.368 . S
C1618 C1617 1.523 . S
C1619 C1603 1.429 . S
C1619 C1615 1.429 . S
C1619 C1620 1.523 . S
C1620 C1604 1.368 . S
C1620 C1616 1.368 . S
C1620 C1619 1.523 . S
H1621 C1596 0.950 . S
H1622 C1598 0.950 . S
H1623 C1599 0.949 . S
H1624 C1601 0.950 . S
H1625 C1603 0.950 . S
C1626 C1627 1.349 . S
C1626 C1628 1.327 . S
C1626 H1651 0.950 . S
C1627 C1626 1.349 . S
C1627 C1643 1.349 . S
C1628 C1626 1.327 . S
C1628 C1647 1.429 . S
C1628 H1652 0.950 . S
C1629 C1646 1.574 . S
C1629 C1648 1.368 . S
C1629 H1653 0.949 . S
H1630 C1634 0.949 1_545 S
C1631 C1632 1.349 . S
C1631 C1633 1.327 . S
C1631 H1654 0.950 . S
C1632 C1631 1.349 . S
C1632 C1644 1.349 . S
C1633 C1631 1.327 . S
C1633 C1649 1.429 . S
C1633 H1655 0.950 1_545 S
C1634 H1630 0.949 1_565 S
C1634 C1642 1.574 . S
C1634 C1650 1.368 . S
H1635 C1643 0.950 . S
H1636 C1641 0.950 . S
H1637 C1642 0.949 . S
H1638 C1644 0.950 . S
H1639 C1645 0.950 . S
H1640 C1646 0.949 . S
C1641 H1636 0.950 . S
C1641 C1643 1.327 . S
C1641 C1647 1.429 . S
C1642 C1634 1.574 . S
C1642 H1637 0.949 . S
C1642 C1648 1.368 . S
C1643 C1627 1.349 . S
C1643 H1635 0.950 . S
C1643 C1641 1.327 . S
C1644 C1632 1.349 . S
C1644 H1638 0.950 . S
C1644 C1645 1.327 . S
C1645 H1639 0.950 . S
C1645 C1644 1.327 . S
C1645 C1649 1.429 . S
C1646 C1629 1.574 . S
C1646 H1640 0.949 . S
C1646 C1650 1.368 . S
C1647 C1628 1.429 . S
C1647 C1641 1.429 . S
C1647 C1648 1.523 . S
C1648 C1629 1.368 . S
C1648 C1642 1.368 . S
C1648 C1647 1.523 . S
C1649 C1633 1.429 . S
C1649 C1645 1.429 . S
C1649 C1650 1.523 1_545 S
C1650 C1634 1.368 . S
C1650 C1646 1.368 . S
C1650 C1649 1.523 1_565 S
H1651 C1626 0.950 . S
H1652 C1628 0.950 . S
H1653 C1629 0.949 . S
H1654 C1631 0.950 . S
H1655 C1633 0.950 1_565 S
C1656 C1657 1.349 . S
C1656 C1658 1.327 . S
C1656 H1681 0.950 . S
C1657 C1656 1.349 . S
C1657 C1673 1.349 . S
C1658 C1656 1.327 . S
C1658 C1677 1.429 . S
C1658 H1682 0.950 . S
C1659 C1676 1.574 . S
C1659 C1678 1.368 . S
C1659 H1683 0.949 . S
H1660 C1664 0.949 . S
C1661 C1662 1.349 . S
C1661 C1663 1.327 . S
C1661 H1684 0.950 . S
C1662 C1661 1.349 . S
C1662 C1674 1.349 . S
C1663 C1661 1.327 . S
C1663 C1679 1.429 . S
C1663 H1685 0.950 . S
C1664 H1660 0.949 . S
C1664 C1672 1.574 . S
C1664 C1680 1.368 . S
H1665 C1673 0.950 . S
H1666 C1671 0.950 . S
H1667 C1672 0.949 . S
H1668 C1674 0.950 . S
H1669 C1675 0.950 . S
H1670 C1676 0.949 . S
C1671 H1666 0.950 . S
C1671 C1673 1.327 . S
C1671 C1677 1.429 . S
C1672 C1664 1.574 . S
C1672 H1667 0.949 . S
C1672 C1678 1.368 . S
C1673 C1657 1.349 . S
C1673 H1665 0.950 . S
C1673 C1671 1.327 . S
C1674 C1662 1.349 . S
C1674 H1668 0.950 . S
C1674 C1675 1.327 . S
C1675 H1669 0.950 . S
C1675 C1674 1.327 . S
C1675 C1679 1.429 . S
C1676 C1659 1.574 . S
C1676 H1670 0.949 . S
C1676 C1680 1.368 . S
C1677 C1658 1.429 . S
C1677 C1671 1.429 . S
C1677 C1678 1.523 . S
C1678 C1659 1.368 . S
C1678 C1672 1.368 . S
C1678 C1677 1.523 . S
C1679 C1663 1.429 . S
C1679 C1675 1.429 . S
C1679 C1680 1.523 . S
C1680 C1664 1.368 . S
C1680 C1676 1.368 . S
C1680 C1679 1.523 . S
H1681 C1656 0.950 . S
H1682 C1658 0.950 . S
H1683 C1659 0.949 . S
H1684 C1661 0.950 . S
H1685 C1663 0.950 . S
C1686 C1687 1.349 . S
C1686 C1688 1.327 . S
C1686 H1711 0.950 . S
C1687 C1686 1.349 . S
C1687 C1703 1.349 . S
C1688 C1686 1.327 . S
C1688 C1707 1.429 . S
C1688 H1712 0.950 . S
C1689 C1706 1.574 . S
C1689 C1708 1.368 . S
C1689 H1713 0.949 . S
H1690 C1694 0.949 . S
C1691 C1692 1.349 . S
C1691 C1693 1.327 . S
C1691 H1714 0.950 . S
C1692 C1691 1.349 . S
C1692 C1704 1.349 . S
C1693 C1691 1.327 . S
C1693 C1709 1.429 . S
C1693 H1715 0.950 . S
C1694 H1690 0.949 . S
C1694 C1702 1.574 . S
C1694 C1710 1.368 . S
H1695 C1703 0.950 . S
H1696 C1701 0.950 . S
H1697 C1702 0.949 . S
H1698 C1704 0.950 . S
H1699 C1705 0.950 . S
H1700 C1706 0.949 . S
C1701 H1696 0.950 . S
C1701 C1703 1.327 . S
C1701 C1707 1.429 . S
C1702 C1694 1.574 . S
C1702 H1697 0.949 . S
C1702 C1708 1.368 . S
C1703 C1687 1.349 . S
C1703 H1695 0.950 . S
C1703 C1701 1.327 . S
C1704 C1692 1.349 . S
C1704 H1698 0.950 . S
C1704 C1705 1.327 . S
C1705 H1699 0.950 . S
C1705 C1704 1.327 . S
C1705 C1709 1.429 . S
C1706 C1689 1.574 . S
C1706 H1700 0.949 . S
C1706 C1710 1.368 . S
C1707 C1688 1.429 . S
C1707 C1701 1.429 . S
C1707 C1708 1.523 . S
C1708 C1689 1.368 . S
C1708 C1702 1.368 . S
C1708 C1707 1.523 . S
C1709 C1693 1.429 . S
C1709 C1705 1.429 . S
C1709 C1710 1.523 . S
C1710 C1694 1.368 . S
C1710 C1706 1.368 . S
C1710 C1709 1.523 . S
H1711 C1686 0.950 . S
H1712 C1688 0.950 . S
H1713 C1689 0.949 . S
H1714 C1691 0.950 . S
H1715 C1693 0.950 . S
C1716 C1717 1.349 . S
C1716 C1718 1.327 . S
C1716 H1741 0.950 . S
C1717 C1716 1.349 . S
C1717 C1733 1.349 . S
C1718 C1716 1.327 . S
C1718 C1737 1.429 . S
C1718 H1742 0.950 . S
C1719 C1736 1.574 . S
C1719 C1738 1.368 . S
C1719 H1743 0.949 . S
H1720 C1724 0.949 . S
C1721 C1722 1.349 . S
C1721 C1723 1.327 . S
C1721 H1744 0.950 . S
C1722 C1721 1.349 . S
C1722 C1734 1.349 . S
C1723 C1721 1.327 . S
C1723 C1739 1.429 . S
C1723 H1745 0.950 . S
C1724 H1720 0.949 . S
C1724 C1732 1.574 . S
C1724 C1740 1.368 . S
H1725 C1733 0.950 . S
H1726 C1731 0.950 . S
H1727 C1732 0.949 . S
H1728 C1734 0.950 . S
H1729 C1735 0.950 . S
H1730 C1736 0.949 . S
C1731 H1726 0.950 . S
C1731 C1733 1.327 . S
C1731 C1737 1.429 . S
C1732 C1724 1.574 . S
C1732 H1727 0.949 . S
C1732 C1738 1.368 . S
C1733 C1717 1.349 . S
C1733 H1725 0.950 . S
C1733 C1731 1.327 . S
C1734 C1722 1.349 . S
C1734 H1728 0.950 . S
C1734 C1735 1.327 . S
C1735 H1729 0.950 . S
C1735 C1734 1.327 . S
C1735 C1739 1.429 . S
C1736 C1719 1.574 . S
C1736 H1730 0.949 . S
C1736 C1740 1.368 . S
C1737 C1718 1.429 . S
C1737 C1731 1.429 . S
C1737 C1738 1.523 . S
C1738 C1719 1.368 . S
C1738 C1732 1.368 . S
C1738 C1737 1.523 . S
C1739 C1723 1.429 . S
C1739 C1735 1.429 . S
C1739 C1740 1.523 . S
C1740 C1724 1.368 . S
C1740 C1736 1.368 . S
C1740 C1739 1.523 . S
H1741 C1716 0.950 . S
H1742 C1718 0.950 . S
H1743 C1719 0.949 . S
H1744 C1721 0.950 . S
H1745 C1723 0.950 . S
C1746 C1747 1.349 . S
C1746 C1748 1.327 . S
C1746 H1771 0.950 . S
C1747 C1746 1.349 . S
C1747 C1763 1.349 . S
C1748 C1746 1.327 . S
C1748 C1767 1.429 . S
C1748 H1772 0.950 . S
C1749 C1766 1.574 . S
C1749 C1768 1.368 . S
C1749 H1773 0.949 . S
H1750 C1754 0.949 . S
C1751 C1752 1.349 . S
C1751 C1753 1.327 . S
C1751 H1774 0.950 . S
C1752 C1751 1.349 . S
C1752 C1764 1.349 . S
C1753 C1751 1.327 . S
C1753 C1769 1.429 . S
C1753 H1775 0.950 . S
C1754 H1750 0.949 . S
C1754 C1762 1.574 . S
C1754 C1770 1.368 . S
H1755 C1763 0.950 . S
H1756 C1761 0.950 . S
H1757 C1762 0.949 . S
H1758 C1764 0.950 . S
H1759 C1765 0.950 . S
H1760 C1766 0.949 . S
C1761 H1756 0.950 . S
C1761 C1763 1.327 . S
C1761 C1767 1.429 . S
C1762 C1754 1.574 . S
C1762 H1757 0.949 . S
C1762 C1768 1.368 . S
C1763 C1747 1.349 . S
C1763 H1755 0.950 . S
C1763 C1761 1.327 . S
C1764 C1752 1.349 . S
C1764 H1758 0.950 . S
C1764 C1765 1.327 . S
C1765 H1759 0.950 . S
C1765 C1764 1.327 . S
C1765 C1769 1.429 . S
C1766 C1749 1.574 . S
C1766 H1760 0.949 . S
C1766 C1770 1.368 . S
C1767 C1748 1.429 . S
C1767 C1761 1.429 . S
C1767 C1768 1.523 . S
C1768 C1749 1.368 . S
C1768 C1762 1.368 . S
C1768 C1767 1.523 . S
C1769 C1753 1.429 . S
C1769 C1765 1.429 . S
C1769 C1770 1.523 . S
C1770 C1754 1.368 . S
C1770 C1766 1.368 . S
C1770 C1769 1.523 . S
H1771 C1746 0.950 . S
H1772 C1748 0.950 . S
H1773 C1749 0.949 . S
H1774 C1751 0.950 . S
H1775 C1753 0.950 . S
C1776 C1777 1.349 . S
C1776 C1778 1.327 . S
C1776 H1801 0.950 . S
C1777 C1776 1.349 . S
C1777 C1793 1.349 . S
C1778 C1776 1.327 . S
C1778 C1797 1.429 . S
C1778 H1802 0.950 . S
C1779 C1796 1.574 . S
C1779 C1798 1.368 . S
C1779 H1803 0.949 . S
H1780 C1784 0.949 . S
C1781 C1782 1.349 . S
C1781 C1783 1.327 . S
C1781 H1804 0.950 . S
C1782 C1781 1.349 . S
C1782 C1794 1.349 . S
C1783 C1781 1.327 . S
C1783 C1799 1.429 . S
C1783 H1805 0.950 . S
C1784 H1780 0.949 . S
C1784 C1792 1.574 . S
C1784 C1800 1.368 . S
H1785 C1793 0.950 . S
H1786 C1791 0.950 . S
H1787 C1792 0.949 . S
H1788 C1794 0.950 . S
H1789 C1795 0.950 . S
H1790 C1796 0.949 . S
C1791 H1786 0.950 . S
C1791 C1793 1.327 . S
C1791 C1797 1.429 . S
C1792 C1784 1.574 . S
C1792 H1787 0.949 . S
C1792 C1798 1.368 . S
C1793 C1777 1.349 . S
C1793 H1785 0.950 . S
C1793 C1791 1.327 . S
C1794 C1782 1.349 . S
C1794 H1788 0.950 . S
C1794 C1795 1.327 . S
C1795 H1789 0.950 . S
C1795 C1794 1.327 . S
C1795 C1799 1.429 . S
C1796 C1779 1.574 . S
C1796 H1790 0.949 . S
C1796 C1800 1.368 . S
C1797 C1778 1.429 . S
C1797 C1791 1.429 . S
C1797 C1798 1.523 . S
C1798 C1779 1.368 . S
C1798 C1792 1.368 . S
C1798 C1797 1.523 . S
C1799 C1783 1.429 . S
C1799 C1795 1.429 . S
C1799 C1800 1.523 . S
C1800 C1784 1.368 . S
C1800 C1796 1.368 . S
C1800 C1799 1.523 . S
H1801 C1776 0.950 . S
H1802 C1778 0.950 . S
H1803 C1779 0.949 . S
H1804 C1781 0.950 . S
H1805 C1783 0.950 . S
C1806 C1807 1.349 . S
C1806 C1808 1.327 . S
C1806 H1831 0.950 . S
C1807 C1806 1.349 . S
C1807 C1823 1.349 . S
C1808 C1806 1.327 . S
C1808 C1827 1.429 . S
C1808 H1832 0.950 . S
C1809 C1826 1.574 . S
C1809 C1828 1.368 . S
C1809 H1833 0.949 . S
H1810 C1814 0.949 . S
C1811 C1812 1.349 . S
C1811 C1813 1.327 . S
C1811 H1834 0.950 . S
C1812 C1811 1.349 . S
C1812 C1824 1.349 . S
C1813 C1811 1.327 . S
C1813 C1829 1.429 . S
C1813 H1835 0.950 . S
C1814 H1810 0.949 . S
C1814 C1822 1.574 . S
C1814 C1830 1.368 . S
H1815 C1823 0.950 . S
H1816 C1821 0.950 . S
H1817 C1822 0.949 . S
H1818 C1824 0.950 . S
H1819 C1825 0.950 . S
H1820 C1826 0.949 . S
C1821 H1816 0.950 . S
C1821 C1823 1.327 . S
C1821 C1827 1.429 . S
C1822 C1814 1.574 . S
C1822 H1817 0.949 . S
C1822 C1828 1.368 . S
C1823 C1807 1.349 . S
C1823 H1815 0.950 . S
C1823 C1821 1.327 . S
C1824 C1812 1.349 . S
C1824 H1818 0.950 . S
C1824 C1825 1.327 . S
C1825 H1819 0.950 . S
C1825 C1824 1.327 . S
C1825 C1829 1.429 . S
C1826 C1809 1.574 . S
C1826 H1820 0.949 . S
C1826 C1830 1.368 . S
C1827 C1808 1.429 . S
C1827 C1821 1.429 . S
C1827 C1828 1.523 . S
C1828 C1809 1.368 . S
C1828 C1822 1.368 . S
C1828 C1827 1.523 . S
C1829 C1813 1.429 . S
C1829 C1825 1.429 . S
C1829 C1830 1.523 . S
C1830 C1814 1.368 . S
C1830 C1826 1.368 . S
C1830 C1829 1.523 . S
H1831 C1806 0.950 . S
H1832 C1808 0.950 . S
H1833 C1809 0.949 . S
H1834 C1811 0.950 . S
H1835 C1813 0.950 . S
C1836 C1837 1.349 . S
C1836 C1838 1.327 . S
C1836 H1861 0.950 . S
C1837 C1836 1.349 . S
C1837 C1853 1.349 . S
C1838 C1836 1.327 . S
C1838 C1857 1.429 . S
C1838 H1862 0.950 . S
C1839 C1856 1.574 . S
C1839 C1858 1.368 . S
C1839 H1863 0.949 . S
H1840 C1844 0.949 . S
C1841 C1842 1.349 . S
C1841 C1843 1.327 . S
C1841 H1864 0.950 . S
C1842 C1841 1.349 . S
C1842 C1854 1.349 . S
C1843 C1841 1.327 . S
C1843 C1859 1.429 . S
C1843 H1865 0.950 . S
C1844 H1840 0.949 . S
C1844 C1852 1.574 . S
C1844 C1860 1.368 . S
H1845 C1853 0.950 . S
H1846 C1851 0.950 . S
H1847 C1852 0.949 . S
H1848 C1854 0.950 . S
H1849 C1855 0.950 . S
H1850 C1856 0.949 . S
C1851 H1846 0.950 . S
C1851 C1853 1.327 . S
C1851 C1857 1.429 . S
C1852 C1844 1.574 . S
C1852 H1847 0.949 . S
C1852 C1858 1.368 . S
C1853 C1837 1.349 . S
C1853 H1845 0.950 . S
C1853 C1851 1.327 . S
C1854 C1842 1.349 . S
C1854 H1848 0.950 . S
C1854 C1855 1.327 . S
C1855 H1849 0.950 . S
C1855 C1854 1.327 . S
C1855 C1859 1.429 . S
C1856 C1839 1.574 . S
C1856 H1850 0.949 . S
C1856 C1860 1.368 . S
C1857 C1838 1.429 . S
C1857 C1851 1.429 . S
C1857 C1858 1.523 . S
C1858 C1839 1.368 . S
C1858 C1852 1.368 . S
C1858 C1857 1.523 . S
C1859 C1843 1.429 . S
C1859 C1855 1.429 . S
C1859 C1860 1.523 . S
C1860 C1844 1.368 . S
C1860 C1856 1.368 . S
C1860 C1859 1.523 . S
H1861 C1836 0.950 . S
H1862 C1838 0.950 . S
H1863 C1839 0.949 . S
H1864 C1841 0.950 . S
H1865 C1843 0.950 . S
C1866 C1867 1.349 . S
C1866 C1868 1.327 . S
C1866 H1891 0.950 . S
C1867 C1866 1.349 . S
C1867 C1883 1.349 . S
C1868 C1866 1.327 . S
C1868 C1887 1.429 . S
C1868 H1892 0.950 . S
C1869 C1886 1.574 . S
C1869 C1888 1.368 . S
C1869 H1893 0.949 . S
H1870 C1874 0.949 . S
C1871 C1872 1.349 . S
C1871 C1873 1.327 . S
C1871 H1894 0.950 . S
C1872 C1871 1.349 . S
C1872 C1884 1.349 . S
C1873 C1871 1.327 . S
C1873 C1889 1.429 . S
C1873 H1895 0.950 . S
C1874 H1870 0.949 . S
C1874 C1882 1.574 . S
C1874 C1890 1.368 . S
H1875 C1883 0.950 . S
H1876 C1881 0.950 . S
H1877 C1882 0.949 . S
H1878 C1884 0.950 . S
H1879 C1885 0.950 . S
H1880 C1886 0.949 . S
C1881 H1876 0.950 . S
C1881 C1883 1.327 . S
C1881 C1887 1.429 . S
C1882 C1874 1.574 . S
C1882 H1877 0.949 . S
C1882 C1888 1.368 . S
C1883 C1867 1.349 . S
C1883 H1875 0.950 . S
C1883 C1881 1.327 . S
C1884 C1872 1.349 . S
C1884 H1878 0.950 . S
C1884 C1885 1.327 . S
C1885 H1879 0.950 . S
C1885 C1884 1.327 . S
C1885 C1889 1.429 . S
C1886 C1869 1.574 . S
C1886 H1880 0.949 . S
C1886 C1890 1.368 . S
C1887 C1868 1.429 . S
C1887 C1881 1.429 . S
C1887 C1888 1.523 . S
C1888 C1869 1.368 . S
C1888 C1882 1.368 . S
C1888 C1887 1.523 . S
C1889 C1873 1.429 . S
C1889 C1885 1.429 . S
C1889 C1890 1.523 . S
C1890 C1874 1.368 . S
C1890 C1886 1.368 . S
C1890 C1889 1.523 . S
H1891 C1866 0.950 . S
H1892 C1868 0.950 . S
H1893 C1869 0.949 . S
H1894 C1871 0.950 . S
H1895 C1873 0.950 . S
C1896 C1897 1.349 . S
C1896 C1898 1.327 . S
C1896 H1921 0.950 . S
C1897 C1896 1.349 . S
C1897 C1913 1.349 . S
C1898 C1896 1.327 . S
C1898 C1917 1.429 . S
C1898 H1922 0.950 . S
C1899 C1916 1.574 . S
C1899 C1918 1.368 . S
C1899 H1923 0.949 . S
H1900 C1904 0.949 . S
C1901 C1902 1.349 . S
C1901 C1903 1.327 . S
C1901 H1924 0.950 . S
C1902 C1901 1.349 . S
C1902 C1914 1.349 . S
C1903 C1901 1.327 . S
C1903 C1919 1.429 . S
C1903 H1925 0.950 . S
C1904 H1900 0.949 . S
C1904 C1912 1.574 . S
C1904 C1920 1.368 . S
H1905 C1913 0.950 . S
H1906 C1911 0.950 . S
H1907 C1912 0.949 . S
H1908 C1914 0.950 . S
H1909 C1915 0.950 . S
H1910 C1916 0.949 . S
C1911 H1906 0.950 . S
C1911 C1913 1.327 . S
C1911 C1917 1.429 . S
C1912 C1904 1.574 . S
C1912 H1907 0.949 . S
C1912 C1918 1.368 . S
C1913 C1897 1.349 . S
C1913 H1905 0.950 . S
C1913 C1911 1.327 . S
C1914 C1902 1.349 . S
C1914 H1908 0.950 . S
C1914 C1915 1.327 . S
C1915 H1909 0.950 . S
C1915 C1914 1.327 . S
C1915 C1919 1.429 . S
C1916 C1899 1.574 . S
C1916 H1910 0.949 . S
C1916 C1920 1.368 . S
C1917 C1898 1.429 . S
C1917 C1911 1.429 . S
C1917 C1918 1.523 . S
C1918 C1899 1.368 . S
C1918 C1912 1.368 . S
C1918 C1917 1.523 . S
C1919 C1903 1.429 . S
C1919 C1915 1.429 . S
C1919 C1920 1.523 . S
C1920 C1904 1.368 . S
C1920 C1916 1.368 . S
C1920 C1919 1.523 . S
H1921 C1896 0.950 . S
H1922 C1898 0.950 . S
H1923 C1899 0.949 . S
H1924 C1901 0.950 . S
H1925 C1903 0.950 . S
C1926 C1927 1.349 . S
C1926 C1928 1.327 . S
C1926 H1951 0.950 . S
C1927 C1926 1.349 . S
C1927 C1943 1.349 . S
C1928 C1926 1.327 . S
C1928 C1947 1.429 . S
C1928 H1952 0.950 . S
C1929 C1946 1.574 . S
C1929 C1948 1.368 . S
C1929 H1953 0.949 . S
H1930 C1934 0.949 . S
C1931 C1932 1.349 . S
C1931 C1933 1.327 . S
C1931 H1954 0.950 . S
C1932 C1931 1.349 . S
C1932 C1944 1.349 . S
C1933 C1931 1.327 . S
C1933 C1949 1.429 . S
C1933 H1955 0.950 . S
C1934 H1930 0.949 . S
C1934 C1942 1.574 . S
C1934 C1950 1.368 . S
H1935 C1943 0.950 . S
H1936 C1941 0.950 . S
H1937 C1942 0.949 . S
H1938 C1944 0.950 . S
H1939 C1945 0.950 . S
H1940 C1946 0.949 . S
C1941 H1936 0.950 . S
C1941 C1943 1.327 . S
C1941 C1947 1.429 . S
C1942 C1934 1.574 . S
C1942 H1937 0.949 . S
C1942 C1948 1.368 . S
C1943 C1927 1.349 . S
C1943 H1935 0.950 . S
C1943 C1941 1.327 . S
C1944 C1932 1.349 . S
C1944 H1938 0.950 . S
C1944 C1945 1.327 . S
C1945 H1939 0.950 . S
C1945 C1944 1.327 . S
C1945 C1949 1.429 . S
C1946 C1929 1.574 . S
C1946 H1940 0.949 . S
C1946 C1950 1.368 . S
C1947 C1928 1.429 . S
C1947 C1941 1.429 . S
C1947 C1948 1.523 . S
C1948 C1929 1.368 . S
C1948 C1942 1.368 . S
C1948 C1947 1.523 . S
C1949 C1933 1.429 . S
C1949 C1945 1.429 . S
C1949 C1950 1.523 . S
C1950 C1934 1.368 . S
C1950 C1946 1.368 . S
C1950 C1949 1.523 . S
H1951 C1926 0.950 . S
H1952 C1928 0.950 . S
H1953 C1929 0.949 . S
H1954 C1931 0.950 . S
H1955 C1933 0.950 . S
C1956 C1957 1.349 . S
C1956 C1958 1.327 . S
C1956 H1981 0.950 . S
C1957 C1956 1.349 . S
C1957 C1973 1.349 . S
C1958 C1956 1.327 . S
C1958 C1977 1.429 . S
C1958 H1982 0.950 . S
C1959 C1976 1.574 . S
C1959 C1978 1.368 . S
C1959 H1983 0.949 . S
H1960 C1964 0.949 . S
C1961 C1962 1.349 . S
C1961 C1963 1.327 . S
C1961 H1984 0.950 . S
C1962 C1961 1.349 . S
C1962 C1974 1.349 . S
C1963 C1961 1.327 . S
C1963 C1979 1.429 . S
C1963 H1985 0.950 . S
C1964 H1960 0.949 . S
C1964 C1972 1.574 . S
C1964 C1980 1.368 . S
H1965 C1973 0.950 . S
H1966 C1971 0.950 . S
H1967 C1972 0.949 . S
H1968 C1974 0.950 . S
H1969 C1975 0.950 . S
H1970 C1976 0.949 . S
C1971 H1966 0.950 . S
C1971 C1973 1.327 . S
C1971 C1977 1.429 . S
C1972 C1964 1.574 . S
C1972 H1967 0.949 . S
C1972 C1978 1.368 . S
C1973 C1957 1.349 . S
C1973 H1965 0.950 . S
C1973 C1971 1.327 . S
C1974 C1962 1.349 . S
C1974 H1968 0.950 . S
C1974 C1975 1.327 . S
C1975 H1969 0.950 . S
C1975 C1974 1.327 . S
C1975 C1979 1.429 . S
C1976 C1959 1.574 . S
C1976 H1970 0.949 . S
C1976 C1980 1.368 . S
C1977 C1958 1.429 . S
C1977 C1971 1.429 . S
C1977 C1978 1.523 . S
C1978 C1959 1.368 . S
C1978 C1972 1.368 . S
C1978 C1977 1.523 . S
C1979 C1963 1.429 . S
C1979 C1975 1.429 . S
C1979 C1980 1.523 . S
C1980 C1964 1.368 . S
C1980 C1976 1.368 . S
C1980 C1979 1.523 . S
H1981 C1956 0.950 . S
H1982 C1958 0.950 . S
H1983 C1959 0.949 . S
H1984 C1961 0.950 . S
H1985 C1963 0.950 . S
C1986 C1987 1.349 . S
C1986 C1988 1.327 . S
C1986 H2011 0.950 . S
C1987 C1986 1.349 . S
C1987 C2003 1.349 . S
C1988 C1986 1.327 . S
C1988 C2007 1.429 . S
C1988 H2012 0.950 . S
C1989 C2006 1.574 . S
C1989 C2008 1.368 . S
C1989 H2013 0.949 . S
H1990 C1994 0.949 . S
C1991 C1992 1.349 . S
C1991 C1993 1.327 . S
C1991 H2014 0.950 . S
C1992 C1991 1.349 . S
C1992 C2004 1.349 . S
C1993 C1991 1.327 . S
C1993 C2009 1.429 . S
C1993 H2015 0.950 . S
C1994 H1990 0.949 . S
C1994 C2002 1.574 . S
C1994 C2010 1.368 . S
H1995 C2003 0.950 . S
H1996 C2001 0.950 . S
H1997 C2002 0.949 . S
H1998 C2004 0.950 . S
H1999 C2005 0.950 . S
H2000 C2006 0.949 . S
C2001 H1996 0.950 . S
C2001 C2003 1.327 . S
C2001 C2007 1.429 . S
C2002 C1994 1.574 . S
C2002 H1997 0.949 . S
C2002 C2008 1.368 . S
C2003 C1987 1.349 . S
C2003 H1995 0.950 . S
C2003 C2001 1.327 . S
C2004 C1992 1.349 . S
C2004 H1998 0.950 . S
C2004 C2005 1.327 . S
C2005 H1999 0.950 . S
C2005 C2004 1.327 . S
C2005 C2009 1.429 . S
C2006 C1989 1.574 . S
C2006 H2000 0.949 . S
C2006 C2010 1.368 . S
C2007 C1988 1.429 . S
C2007 C2001 1.429 . S
C2007 C2008 1.523 . S
C2008 C1989 1.368 . S
C2008 C2002 1.368 . S
C2008 C2007 1.523 . S
C2009 C1993 1.429 . S
C2009 C2005 1.429 . S
C2009 C2010 1.523 . S
C2010 C1994 1.368 . S
C2010 C2006 1.368 . S
C2010 C2009 1.523 . S
H2011 C1986 0.950 . S
H2012 C1988 0.950 . S
H2013 C1989 0.949 . S
H2014 C1991 0.950 . S
H2015 C1993 0.950 . S
C397 C15 0.463 . S
C402 C65 0.549 . S
C427 C21 0.548 . S
C432 C37 0.462 . S
C457 C59 0.462 . S
C462 C43 0.548 . S
C487 C103 0.549 . S
C492 C73 0.463 . S
C517 C125 0.548 . S
C522 C95 0.462 . S
C547 C117 0.462 . S
C552 C81 0.548 . S
C577 C197 0.549 . S
C582 C147 0.463 . S
C607 C169 0.462 . S
C612 C153 0.548 . S
C637 C175 0.548 . S
C642 C191 0.462 . S
C667 C213 0.463 . S
C672 C235 0.549 . S
C697 C263 0.548 . S
C702 C227 0.462 . S
C727 C257 0.462 . S
C732 C219 0.548 . S
C757 C329 0.549 1_565 S
C762 C279 0.463 . S
C787 C301 0.462 . S
C792 C285 0.548 1_455 S
C817 C323 0.462 . S
C822 C307 0.548 . S
C847 C345 0.463 . S
C852 C373 0.549 1_455 S
C877 C389 0.548 . S
C882 C367 0.462 . S
C907 C351 0.548 1_565 S
C912 C381 0.462 . S
C937 C131 1.005 . S
C942 C10 0.998 . S
C967 C87 1.005 . S
C972 C32 0.998 . S
C997 C109 1.005 . S
C1002 C54 0.998 . S
C1027 C29 1.005 . S
C1032 C84 0.998 . S
C1057 C106 0.998 . S
C1062 C51 1.005 . S
C1087 C7 1.005 . S
C1092 C128 0.998 . S
C1117 C142 0.998 . S
C1122 C249 1.005 . S
C1147 C164 0.998 . S
C1152 C205 1.005 . S
C1177 C241 1.005 . S
C1182 C186 0.998 . S
C1207 C208 0.998 . S
C1212 C161 1.005 . S
C1237 C238 0.998 . S
C1242 C183 1.005 . S
C1267 C252 0.998 . S
C1272 C139 1.005 . S
C1297 C274 0.998 . S
C1302 C395 1.005 . S
C1327 C296 0.998 . S
C1332 C337 1.005 . S
C1357 C318 0.998 . S
C1362 C359 1.005 . S
C1387 C340 0.998 . S
C1392 C293 1.005 . S
C1417 C362 0.998 . S
C1422 C315 1.005 . S
C1447 C392 0.998 . S
C1452 C271 1.005 . S
C1477 C230 2.162 . S
C1482 C18 2.098 . S
C1507 C40 2.099 . S
C1512 C250 2.162 . S
C1537 C206 2.163 . S
C1542 C62 2.099 . S
C1567 C74 2.098 . S
C1572 C184 2.162 . S
C1597 C96 2.099 . S
C1602 C140 2.163 . S
C1627 C162 2.162 . S
C1632 C118 2.099 . S
C1657 C150 2.098 . S
C1662 C360 2.162 1_455 S
C1687 C172 2.099 . S
C1692 C384 2.163 . S
C1717 C194 2.099 . S
C1722 C338 2.163 1_565 S
C1747 C316 2.162 1_565 S
C1752 C216 2.098 . S
C1777 C272 2.163 1_455 S
C1782 C228 2.099 . S
C1807 C294 2.162 . S
C1812 C260 2.099 . S
C1837 C98 2.162 . S
C1842 C282 2.098 . S
C1867 C304 2.099 . S
C1872 C120 2.163 . S
C1897 C76 2.163 . S
C1902 C326 2.099 . S
C1927 C348 2.098 . S
C1932 C52 2.162 . S
C1957 C370 2.099 . S
C1962 C8 2.163 . S
C1987 C30 2.163 . S
C1992 C382 2.099 . S
