# Generated by pormake.
# Topology ukg, (4)-cn, num edge types: 1
# Building blocks:
#     Node 0, Type 0, BuildingBlock: QUQFOY_clean_sbu_1, # of connection points: 4
#     Node 1, Type 0, BuildingBlock: QUQFOY_clean_sbu_1, # of connection points: 4
#     Node 2, Type 0, BuildingBlock: QUQFOY_clean_sbu_1, # of connection points: 4
#     Node 3, Type 0, BuildingBlock: QUQFOY_clean_sbu_1, # of connection points: 4
#     Node 4, Type 0, BuildingBlock: QUQFOY_clean_sbu_1, # of connection points: 4
#     Node 5, Type 0, BuildingBlock: QUQFOY_clean_sbu_1, # of connection points: 4
#     Node 6, Type 0, BuildingBlock: QUQFOY_clean_sbu_1, # of connection points: 4
#     Node 7, Type 0, BuildingBlock: QUQFOY_clean_sbu_1, # of connection points: 4
#     Edge 8, Type (0, 0), BuildingBlock: UVAHIK_clean_linker_0, # of connection points: 2
#     Edge 9, Type (0, 0), BuildingBlock: UVAHIK_clean_linker_0, # of connection points: 2
#     Edge 10, Type (0, 0), BuildingBlock: UVAHIK_clean_linker_0, # of connection points: 2
#     Edge 11, Type (0, 0), BuildingBlock: UVAHIK_clean_linker_0, # of connection points: 2
#     Edge 12, Type (0, 0), BuildingBlock: UVAHIK_clean_linker_0, # of connection points: 2
#     Edge 13, Type (0, 0), BuildingBlock: UVAHIK_clean_linker_0, # of connection points: 2
#     Edge 14, Type (0, 0), BuildingBlock: UVAHIK_clean_linker_0, # of connection points: 2
#     Edge 15, Type (0, 0), BuildingBlock: UVAHIK_clean_linker_0, # of connection points: 2
#     Edge 16, Type (0, 0), BuildingBlock: UVAHIK_clean_linker_0, # of connection points: 2
#     Edge 17, Type (0, 0), BuildingBlock: UVAHIK_clean_linker_0, # of connection points: 2
#     Edge 18, Type (0, 0), BuildingBlock: UVAHIK_clean_linker_0, # of connection points: 2
#     Edge 19, Type (0, 0), BuildingBlock: UVAHIK_clean_linker_0, # of connection points: 2
#     Edge 20, Type (0, 0), BuildingBlock: UVAHIK_clean_linker_0, # of connection points: 2
#     Edge 21, Type (0, 0), BuildingBlock: UVAHIK_clean_linker_0, # of connection points: 2
#     Edge 22, Type (0, 0), BuildingBlock: UVAHIK_clean_linker_0, # of connection points: 2
#     Edge 23, Type (0, 0), BuildingBlock: UVAHIK_clean_linker_0, # of connection points: 2
# Relax obj value: 0.022
# Max RMSD: 0.120
# Mean RMSD: 0.120
data_MOF--net-ukg--node1-QUQFOY_clean_sbu_1--edge1-UVAHIK_clean_linker_0
_symmetry_space_group_name_H-M    P1
_symmetry_Int_Tables_number       1
_symmetry_cell_setting            triclinic
loop_
_symmetry_equiv_pos_as_xyz
'x, y, z'
_cell_length_a     41.329943
_cell_length_b     41.344328
_cell_length_c     48.8833
_cell_angle_alpha  89.991715
_cell_angle_beta   90.015417
_cell_angle_gamma 89.994226
loop_
_atom_site_label
_atom_site_type_symbol
_atom_site_fract_x
_atom_site_fract_y
_atom_site_fract_z
_atom_type_partial_charge
O0 O 0.97753 0.63898 0.16982 0.0
Cd1 Cd 0.99586 0.66612 0.13806 0.0
Cd2 Cd 0.04315 0.676 0.17572 0.0
O3 O 0.01878 0.64158 0.19849 0.0
O4 O 0.97435 0.64855 0.10469 0.0
O5 O 0.0268 0.64343 0.11274 0.0
C6 C 0.00199 0.63665 0.09766 0.0
C7 C 0.09944 0.67942 0.17342 0.0
C8 C 0.99085 0.63099 0.19226 0.0
C9 C 0.00202 0.73328 0.15842 0.0
O10 O 0.02263 0.721 0.17464 0.0
O11 O 0.98867 0.71592 0.14011 0.0
O12 O 0.08404 0.6845 0.19592 0.0
O13 O 0.08299 0.66983 0.15245 0.0
O14 O 0.36177 0.47286 0.6736 0.0
Cd15 Cd 0.34028 0.49443 0.64029 0.0
Cd16 Cd 0.32787 0.53962 0.67839 0.0
O17 O 0.36076 0.51413 0.70211 0.0
O18 O 0.3606 0.47338 0.60785 0.0
O19 O 0.36699 0.52521 0.6177 0.0
C20 C 0.37412 0.50074 0.60236 0.0
C21 C 0.32434 0.59596 0.67765 0.0
C22 C 0.36917 0.48527 0.69655 0.0
C23 C 0.27182 0.50039 0.65598 0.0
O24 O 0.28284 0.51916 0.67431 0.0
O25 O 0.29057 0.48883 0.63781 0.0
O26 O 0.31779 0.57959 0.69938 0.0
O27 O 0.33553 0.58047 0.65674 0.0
O28 O 0.53793 0.85648 0.17631 0.0
Cd29 Cd 0.51743 0.83763 0.14148 0.0
Cd30 Cd 0.46662 0.83198 0.17497 0.0
O31 O 0.49259 0.8641 0.19922 0.0
O32 O 0.53932 0.85799 0.10947 0.0
O33 O 0.48768 0.866 0.11965 0.0
C34 C 0.51235 0.87259 0.10433 0.0
C35 C 0.41009 0.83135 0.17338 0.0
C36 C 0.52309 0.86746 0.19709 0.0
C37 C 0.50265 0.77128 0.15675 0.0
O38 O 0.48332 0.78507 0.17324 0.0
O39 O 0.51828 0.78779 0.13925 0.0
O40 O 0.42567 0.82526 0.19559 0.0
O41 O 0.42655 0.84073 0.15238 0.0
O42 O 0.14209 0.03196 0.67446 0.0
Cd43 Cd 0.16534 0.0103 0.64204 0.0
Cd44 Cd 0.16889 0.96247 0.67815 0.0
O45 O 0.13425 0.98838 0.69954 0.0
O46 O 0.14822 0.03152 0.60836 0.0
O47 O 0.13923 0.98011 0.61862 0.0
C48 C 0.13395 0.00454 0.60269 0.0
C49 C 0.17056 0.90608 0.67587 0.0
C50 C 0.12982 0.01844 0.69539 0.0
C51 C 0.23033 0.99875 0.66323 0.0
O52 O 0.21512 0.98058 0.67977 0.0
O53 O 0.21546 0.01204 0.64341 0.0
O54 O 0.17416 0.92125 0.69868 0.0
O55 O 0.16307 0.92285 0.65449 0.0
O56 O 0.03615 0.36084 0.83215 0.0
Cd57 Cd 0.0148 0.3399 0.8658 0.0
Cd58 Cd 0.96747 0.33044 0.82957 0.0
O59 O 0.99301 0.36305 0.80573 0.0
O60 O 0.03611 0.35988 0.89829 0.0
O61 O 0.98443 0.36724 0.88812 0.0
C62 C 0.00895 0.374 0.90354 0.0
C63 C 0.91109 0.32957 0.83149 0.0
C64 C 0.02262 0.36971 0.81003 0.0
C65 C 0.00516 0.27217 0.84965 0.0
O66 O 0.98615 0.28444 0.83206 0.0
O67 O 0.01824 0.28997 0.86777 0.0
O68 O 0.92647 0.32287 0.8093 0.0
O69 O 0.92771 0.33918 0.85234 0.0
O70 O 0.63635 0.53387 0.33412 0.0
Cd71 Cd 0.66317 0.51408 0.36546 0.0
Cd72 Cd 0.66678 0.46538 0.33005 0.0
O73 O 0.63026 0.48953 0.30962 0.0
O74 O 0.64738 0.53499 0.39971 0.0
O75 O 0.63977 0.48317 0.39015 0.0
C76 C 0.63439 0.50759 0.40606 0.0
C77 C 0.66937 0.40915 0.33349 0.0
C78 C 0.62385 0.51919 0.31386 0.0
C79 C 0.72758 0.50397 0.34187 0.0
O80 O 0.71231 0.48462 0.32637 0.0
O81 O 0.71312 0.51755 0.36177 0.0
O82 O 0.67177 0.42367 0.31027 0.0
O83 O 0.66285 0.42648 0.35478 0.0
O84 O 0.48004 0.13353 0.83334 0.0
Cd85 Cd 0.49648 0.16086 0.86573 0.0
Cd86 Cd 0.542 0.17701 0.82726 0.0
O87 O 0.51899 0.14272 0.80338 0.0
O88 O 0.47467 0.14147 0.89825 0.0
O89 O 0.52757 0.1393 0.89178 0.0
C90 C 0.50259 0.13108 0.9061 0.0
C91 C 0.59808 0.18281 0.82882 0.0
C92 C 0.49277 0.12872 0.81003 0.0
C93 C 0.49766 0.22988 0.84795 0.0
O94 O 0.51912 0.2207 0.83109 0.0
O95 O 0.48566 0.21004 0.86508 0.0
O96 O 0.58186 0.18885 0.8069 0.0
O97 O 0.58263 0.17109 0.84956 0.0
O98 O 0.86874 0.97903 0.33117 0.0
Cd99 Cd 0.8432 0.99324 0.36522 0.0
Cd100 Cd 0.82231 0.04011 0.3286 0.0
O101 O 0.85381 0.01706 0.30199 0.0
O102 O 0.86505 0.97025 0.39603 0.0
O103 O 0.86551 0.02346 0.39158 0.0
C104 C 0.8751 0.99798 0.4046 0.0
C105 C 0.81702 0.0963 0.32959 0.0
C106 C 0.87002 0.99176 0.30754 0.0
C107 C 0.7725 0.99415 0.35209 0.0
O108 O 0.77918 0.01742 0.33614 0.0
O109 O 0.79447 0.98072 0.36637 0.0
O110 O 0.8082 0.07956 0.30866 0.0
O111 O 0.83091 0.08128 0.34958 0.0
C112 C 0.03432 0.4068 0.94095 0.0
C113 C 0.00689 0.39905 0.92523 0.0
C114 C 0.03364 0.43262 0.95942 0.0
C115 C 0.97854 0.48682 0.99785 0.0
H116 H 0.05336 0.54341 1.00003 0.0
C117 C 0.97676 0.60615 0.05883 0.0
C118 C 0.00427 0.61337 0.07462 0.0
C119 C 0.97744 0.58119 0.03954 0.0
C120 C 0.03239 0.5277 0.99989 0.0
H121 H 0.95693 0.41193 0.91718 0.0
H122 H 0.95576 0.45706 0.94939 0.0
H123 H 0.05331 0.49665 0.96964 0.0
H124 H 0.05447 0.60069 0.08176 0.0
H125 H 0.05564 0.55702 0.04817 0.0
H126 H 0.95766 0.51777 0.02817 0.0
C127 C 0.97776 0.443 0.94756 0.0
C128 C 0.03237 0.50083 0.98248 0.0
C129 C 0.97844 0.41715 0.92904 0.0
C130 C 0.03289 0.59587 0.06986 0.0
C131 C 0.03356 0.57083 0.05056 0.0
C132 C 0.97857 0.51368 0.01528 0.0
C133 C 0.00553 0.45139 0.96267 0.0
C134 C 0.00547 0.47999 0.98127 0.0
C135 C 0.00563 0.56274 0.03554 0.0
C136 C 0.0055 0.53448 0.01655 0.0
H137 H 0.05662 0.39333 0.93862 0.0
H138 H 0.05527 0.43799 0.97108 0.0
H139 H 0.9576 0.47108 0.99774 0.0
H140 H 0.95433 0.61922 0.06187 0.0
H141 H 0.95568 0.5761 0.02795 0.0
C142 C 0.40638 0.47586 0.56444 0.0
C143 C 0.39885 0.5031 0.58044 0.0
C144 C 0.43181 0.47677 0.54561 0.0
C145 C 0.50777 0.52049 0.53062 0.0
H146 H 0.50135 0.47672 0.46069 0.0
C147 C 0.60456 0.53258 0.4454 0.0
C148 C 0.61138 0.50524 0.42928 0.0
C149 C 0.57975 0.53185 0.46486 0.0
C150 C 0.50374 0.48868 0.4803 0.0
H151 H 0.4117 0.55302 0.5886 0.0
H152 H 0.4559 0.55477 0.55542 0.0
H153 H 0.45482 0.47769 0.49126 0.0
H154 H 0.59827 0.45523 0.42183 0.0
H155 H 0.55528 0.45381 0.45605 0.0
H156 H 0.55671 0.53154 0.51958 0.0
C157 C 0.44237 0.53251 0.55776 0.0
C158 C 0.47698 0.48932 0.49782 0.0
C159 C 0.41684 0.5316 0.57661 0.0
C160 C 0.59365 0.47674 0.43386 0.0
C161 C 0.56878 0.47602 0.45331 0.0
C162 C 0.53455 0.51987 0.51308 0.0
C163 C 0.45044 0.50496 0.54227 0.0
C164 C 0.47865 0.50517 0.52324 0.0
C165 C 0.56109 0.50377 0.46867 0.0
C166 C 0.5329 0.50389 0.48771 0.0
H167 H 0.39312 0.45345 0.5669 0.0
H168 H 0.4375 0.45499 0.53428 0.0
H169 H 0.51012 0.53246 0.55022 0.0
H170 H 0.61766 0.55499 0.44238 0.0
H171 H 0.57438 0.55374 0.47615 0.0
C172 C 0.53815 0.9057 0.06729 0.0
C173 C 0.51053 0.89768 0.08265 0.0
C174 C 0.5374 0.93119 0.04847 0.0
C175 C 0.48185 0.98283 0.00811 0.0
H176 H 0.55514 0.04137 0.00569 0.0
C177 C 0.4776 0.10029 0.94483 0.0
C178 C 0.50517 0.10814 0.92935 0.0
C179 C 0.47874 0.07581 0.96454 0.0
C180 C 0.53461 0.02509 0.00589 0.0
H181 H 0.4602 0.90984 0.08982 0.0
H182 H 0.45888 0.95434 0.05701 0.0
H183 H 0.55578 0.99552 0.0371 0.0
H184 H 0.55591 0.09706 0.92314 0.0
H185 H 0.55787 0.05413 0.95742 0.0
H186 H 0.46074 0.01222 0.97682 0.0
C187 C 0.48111 0.94076 0.05938 0.0
C188 C 0.53498 0.99875 0.0239 0.0
C189 C 0.48188 0.91527 0.07826 0.0
C190 C 0.53427 0.09173 0.93478 0.0
C191 C 0.53539 0.06712 0.95449 0.0
C192 C 0.4815 0.00912 0.99008 0.0
C193 C 0.50898 0.9493 0.04449 0.0
C194 C 0.50861 0.97727 0.02523 0.0
C195 C 0.50745 0.05842 0.96925 0.0
C196 C 0.50785 0.03064 0.98874 0.0
H197 H 0.56062 0.89263 0.0701 0.0
H198 H 0.55914 0.93672 0.03704 0.0
H199 H 0.46134 0.96653 0.00828 0.0
H200 H 0.45482 0.11255 0.9413 0.0
H201 H 0.45694 0.07028 0.9759 0.0
C202 C 0.90764 0.97191 0.44179 0.0
C203 C 0.89895 0.99994 0.42724 0.0
C204 C 0.93266 0.97265 0.46104 0.0
C205 C 0.9835 0.02792 0.50291 0.0
H206 H 0.04237 0.95484 0.50387 0.0
C207 C 0.10267 0.03039 0.56456 0.0
C208 C 0.11011 0.00268 0.58002 0.0
C209 C 0.07764 0.02987 0.54529 0.0
C210 C 0.02601 0.9753 0.50404 0.0
H211 H 0.90923 0.05099 0.4221 0.0
H212 H 0.95315 0.05226 0.45551 0.0
H213 H 0.99648 0.95482 0.47255 0.0
H214 H 0.09764 0.95235 0.58668 0.0
H215 H 0.05402 0.9514 0.55299 0.0
H216 H 0.01324 0.04845 0.53431 0.0
C217 C 0.94037 0.02972 0.45227 0.0
C218 C 0.9996 0.97528 0.48613 0.0
C219 C 0.9152 0.029 0.43305 0.0
C220 C 0.09264 0.97409 0.57507 0.0
C221 C 0.06765 0.97354 0.5557 0.0
C222 C 0.00999 0.02798 0.52077 0.0
C223 C 0.9498 1.00141 0.46618 0.0
C224 C 0.97791 1.00155 0.48537 0.0
C225 C 0.05947 0.00159 0.54092 0.0
C226 C 0.03156 0.00166 0.52158 0.0
H227 H 0.89552 0.94913 0.43795 0.0
H228 H 0.93871 0.95055 0.47176 0.0
H229 H 0.96711 0.04835 0.50319 0.0
H230 H 0.11565 0.05283 0.56779 0.0
H231 H 0.07238 0.05174 0.53393 0.0
C232 C 0.14853 0.69352 0.14562 0.0
C233 C 0.13404 0.68832 0.17127 0.0
C234 C 0.17929 0.70765 0.14383 0.0
C235 C 0.25253 0.72729 0.18453 0.0
H236 H 0.26205 0.79881 0.13377 0.0
C237 C 0.35801 0.81542 0.19527 0.0
C238 C 0.37537 0.8229 0.17139 0.0
C239 C 0.32783 0.80041 0.1937 0.0
C240 C 0.25988 0.77872 0.14787 0.0
H241 H 0.14112 0.6922 0.21511 0.0
H242 H 0.19451 0.71648 0.21201 0.0
H243 H 0.21254 0.7664 0.13327 0.0
H244 H 0.37369 0.82247 0.12706 0.0
H245 H 0.32079 0.79612 0.1243 0.0
H246 H 0.29958 0.73963 0.19933 0.0
C247 C 0.18231 0.70972 0.19325 0.0
C248 C 0.23159 0.76005 0.1475 0.0
C249 C 0.15161 0.69585 0.19503 0.0
C250 C 0.36084 0.81714 0.14584 0.0
C251 C 0.33057 0.80195 0.14426 0.0
C252 C 0.2807 0.7459 0.1849 0.0
C253 C 0.19622 0.71653 0.16765 0.0
C254 C 0.22742 0.7344 0.16612 0.0
C255 C 0.31432 0.79234 0.16821 0.0
C256 C 0.28453 0.77217 0.1669 0.0
H257 H 0.13555 0.68811 0.12693 0.0
H258 H 0.18954 0.7122 0.12381 0.0
H259 H 0.25036 0.70737 0.1988 0.0
H260 H 0.36839 0.8198 0.21528 0.0
H261 H 0.31553 0.79415 0.21253 0.0
C262 C 0.31199 0.64612 0.65062 0.0
C263 C 0.31529 0.63057 0.67605 0.0
C264 C 0.29772 0.67681 0.64895 0.0
C265 C 0.27418 0.74817 0.69048 0.0
H266 H 0.20703 0.75938 0.63582 0.0
C267 C 0.18538 0.85372 0.69796 0.0
C268 C 0.17961 0.8715 0.67395 0.0
C269 C 0.2006 0.82362 0.6968 0.0
C270 C 0.22591 0.75675 0.65102 0.0
H271 H 0.30783 0.63573 0.71975 0.0
H272 H 0.2833 0.68904 0.71686 0.0
H273 H 0.2396 0.71 0.63601 0.0
H274 H 0.18342 0.87066 0.62972 0.0
H275 H 0.21016 0.81796 0.6277 0.0
H276 H 0.26051 0.79467 0.70564 0.0
C277 C 0.29167 0.6777 0.69819 0.0
C278 C 0.24467 0.72853 0.65107 0.0
C279 C 0.30569 0.64704 0.69984 0.0
C280 C 0.1874 0.85749 0.64858 0.0
C281 C 0.20281 0.82732 0.64743 0.0
C282 C 0.25548 0.7763 0.69043 0.0
C283 C 0.28677 0.69263 0.67268 0.0
C284 C 0.26876 0.72375 0.67103 0.0
C285 C 0.21061 0.81059 0.67163 0.0
C286 C 0.2308 0.78077 0.67096 0.0
H287 H 0.31903 0.634 0.6319 0.0
H288 H 0.29468 0.68788 0.62903 0.0
H289 H 0.29288 0.74552 0.70584 0.0
H290 H 0.17942 0.8637 0.71782 0.0
H291 H 0.20543 0.81097 0.71578 0.0
C292 C 0.64726 0.19716 0.85639 0.0
C293 C 0.63233 0.19293 0.8308 0.0
C294 C 0.67735 0.21263 0.85831 0.0
C295 C 0.72737 0.27075 0.81951 0.0
H296 H 0.79569 0.246 0.86965 0.0
C297 C 0.85822 0.31618 0.80967 0.0
C298 C 0.87611 0.32242 0.83353 0.0
C299 C 0.82693 0.30365 0.81129 0.0
C300 C 0.7766 0.25353 0.85586 0.0
H301 H 0.63826 0.19939 0.78706 0.0
H302 H 0.69085 0.22546 0.79034 0.0
H303 H 0.74549 0.21476 0.8684 0.0
H304 H 0.87467 0.32186 0.87786 0.0
H305 H 0.81972 0.29995 0.8807 0.0
H306 H 0.75858 0.30913 0.80663 0.0
C307 C 0.67899 0.21782 0.80901 0.0
C308 C 0.7479 0.23555 0.85508 0.0
C309 C 0.64896 0.20257 0.80711 0.0
C310 C 0.86142 0.31743 0.85911 0.0
C311 C 0.83012 0.30457 0.86074 0.0
C312 C 0.75601 0.28861 0.82025 0.0
C313 C 0.69306 0.22403 0.83466 0.0
C314 C 0.72316 0.24365 0.83655 0.0
C315 C 0.81284 0.29687 0.83681 0.0
C316 C 0.78116 0.27994 0.83813 0.0
H317 H 0.63497 0.19013 0.87503 0.0
H318 H 0.68751 0.21703 0.87839 0.0
H319 H 0.70848 0.2782 0.8055 0.0
H320 H 0.86887 0.31975 0.78965 0.0
H321 H 0.8144 0.29779 0.79247 0.0
C322 C 0.68744 0.36124 0.36106 0.0
C323 C 0.67835 0.37462 0.33576 0.0
C324 C 0.70248 0.33089 0.36222 0.0
C325 C 0.75169 0.27785 0.31816 0.0
H326 H 0.73739 0.21294 0.37408 0.0
C327 C 0.79697 0.14713 0.30799 0.0
C328 C 0.80823 0.13092 0.33139 0.0
C329 C 0.78386 0.17813 0.31002 0.0
C330 C 0.74201 0.23108 0.35858 0.0
H331 H 0.67549 0.36561 0.29212 0.0
H332 H 0.70085 0.31258 0.2942 0.0
H333 H 0.70608 0.26315 0.37493 0.0
H334 H 0.81571 0.13499 0.37515 0.0
H335 H 0.79279 0.18949 0.37869 0.0
H336 H 0.78729 0.24581 0.30162 0.0
C337 C 0.69733 0.32584 0.31307 0.0
C338 C 0.72398 0.25977 0.35901 0.0
C339 C 0.68249 0.35612 0.31192 0.0
C340 C 0.80734 0.14694 0.35674 0.0
C341 C 0.79393 0.17797 0.35881 0.0
C342 C 0.76962 0.24926 0.31772 0.0
C343 C 0.70859 0.31338 0.33808 0.0
C344 C 0.72826 0.28324 0.33852 0.0
C345 C 0.78152 0.19365 0.33552 0.0
C346 C 0.76468 0.22532 0.33767 0.0
H347 H 0.6847 0.37498 0.37979 0.0
H348 H 0.71083 0.32196 0.38181 0.0
H349 H 0.75624 0.2958 0.30249 0.0
H350 H 0.79727 0.13545 0.28816 0.0
H351 H 0.77428 0.18937 0.29171 0.0
C352 C 0.77702 0.53961 0.34551 0.0
C353 C 0.76143 0.51219 0.33466 0.0
C354 C 0.80672 0.54998 0.33465 0.0
C355 C 0.84376 0.55408 0.2695 0.0
H356 H 0.92807 0.56631 0.30271 0.0
C357 C 0.95043 0.58804 0.20208 0.0
C358 C 0.97213 0.61138 0.21186 0.0
C359 C 0.92858 0.57316 0.21979 0.0
C360 C 0.90459 0.56339 0.29321 0.0
H361 H 0.76623 0.47262 0.30568 0.0
H362 H 0.81731 0.49105 0.28672 0.0
H363 H 0.88267 0.54664 0.33061 0.0
H364 H 0.98919 0.6365 0.24795 0.0
H365 H 0.94996 0.61152 0.27889 0.0
H366 H 0.86445 0.57165 0.23253 0.0
C367 C 0.80656 0.50455 0.30341 0.0
C368 C 0.87873 0.5521 0.30919 0.0
C369 C 0.77724 0.49412 0.31426 0.0
C370 C 0.97276 0.61839 0.23997 0.0
C371 C 0.95028 0.60403 0.25767 0.0
C372 C 0.86924 0.56576 0.25373 0.0
C373 C 0.82101 0.53308 0.31285 0.0
C374 C 0.84829 0.54694 0.29725 0.0
C375 C 0.92719 0.58199 0.24759 0.0
C376 C 0.9002 0.57004 0.26515 0.0
H377 H 0.76551 0.55399 0.36125 0.0
H378 H 0.81749 0.57217 0.34213 0.0
H379 H 0.82032 0.5507 0.25998 0.0
H380 H 0.94976 0.58193 0.18053 0.0
H381 H 0.91204 0.55543 0.21141 0.0
C382 C 0.39038 0.4317 0.71187 0.0
C383 C 0.38484 0.46459 0.71754 0.0
C384 C 0.4015 0.41087 0.73221 0.0
C385 C 0.44554 0.40505 0.7962 0.0
H386 H 0.40059 0.3229 0.80161 0.0
C387 C 0.45294 0.27068 0.85235 0.0
C388 C 0.48505 0.26323 0.84536 0.0
C389 C 0.43928 0.3002 0.84426 0.0
C390 C 0.41306 0.34592 0.80087 0.0
H391 H 0.38811 0.5016 0.74889 0.0
H392 H 0.40836 0.46492 0.78451 0.0
H393 H 0.37961 0.36494 0.77159 0.0
H394 H 0.52891 0.28193 0.82684 0.0
H395 H 0.50526 0.33315 0.81292 0.0
H396 H 0.47978 0.38539 0.82471 0.0
C397 C 0.40361 0.45547 0.76424 0.0
C398 C 0.40124 0.36986 0.78341 0.0
C399 C 0.39207 0.47641 0.74385 0.0
C400 C 0.50398 0.28688 0.8323 0.0
C401 C 0.49049 0.31639 0.8245 0.0
C402 C 0.45758 0.38091 0.81356 0.0
C403 C 0.40767 0.42235 0.75871 0.0
C404 C 0.41787 0.39926 0.78026 0.0
C405 C 0.45764 0.32287 0.82937 0.0
C406 C 0.44194 0.35074 0.81548 0.0
H407 H 0.38529 0.4217 0.69185 0.0
H408 H 0.40506 0.38559 0.72723 0.0
H409 H 0.45878 0.42753 0.79417 0.0
H410 H 0.43778 0.25293 0.86242 0.0
H411 H 0.41396 0.30468 0.84854 0.0
C412 C 0.52874 0.90442 0.23776 0.0
C413 C 0.54211 0.8815 0.21976 0.0
C414 C 0.54744 0.91725 0.25911 0.0
C415 C 0.6145 0.90068 0.30448 0.0
H416 H 0.64114 0.99004 0.297 0.0
C417 C 0.73492 0.94738 0.34753 0.0
C418 C 0.73953 0.98071 0.35095 0.0
C419 C 0.70495 0.93548 0.33879 0.0
C420 C 0.63341 0.96532 0.30018 0.0
H421 H 0.58501 0.85327 0.21053 0.0
H422 H 0.61708 0.87494 0.24816 0.0
H423 H 0.59841 0.96893 0.26791 0.0
H424 H 0.71597 0.02745 0.35082 0.0
H425 H 0.66311 0.00663 0.3376 0.0
H426 H 0.64932 0.89672 0.33665 0.0
C427 C 0.59241 0.88326 0.24554 0.0
C428 C 0.60895 0.95326 0.28329 0.0
C429 C 0.57413 0.87114 0.22388 0.0
C430 C 0.71299 0.00161 0.34811 0.0
C431 C 0.68282 0.98966 0.34014 0.0
C432 C 0.63848 0.91289 0.32185 0.0
C433 C 0.57934 0.90652 0.26321 0.0
C434 C 0.60011 0.92061 0.28469 0.0
C435 C 0.6788 0.95665 0.33389 0.0
C436 C 0.6492 0.94509 0.31924 0.0
H437 H 0.5041 0.91277 0.23504 0.0
H438 H 0.53704 0.93539 0.27246 0.0
H439 H 0.60789 0.87538 0.30592 0.0
H440 H 0.75515 0.93084 0.34929 0.0
H441 H 0.7032 0.90998 0.33404 0.0
C442 C 0.04429 0.22638 0.85628 0.0
C443 C 0.01441 0.23779 0.84655 0.0
C444 C 0.05599 0.19617 0.84788 0.0
C445 C 0.08409 0.15155 0.80476 0.0
H446 H 0.03194 0.07641 0.78689 0.0
C447 C 0.11221 0.07249 0.71258 0.0
C448 C 0.1132 0.03874 0.71608 0.0
C449 C 0.10014 0.09244 0.73315 0.0
C450 C 0.04693 0.09701 0.79208 0.0
H451 H 0.97193 0.22521 0.82275 0.0
H452 H 0.99223 0.17288 0.80816 0.0
H453 H 0.01059 0.1176 0.81813 0.0
H454 H 0.10087 0.99945 0.74361 0.0
H455 H 0.07901 0.03468 0.77957 0.0
H456 H 0.11986 0.13171 0.77797 0.0
C457 C 0.00676 0.18705 0.82217 0.0
C458 C 0.03469 0.12064 0.80982 0.0
C459 C 0.99522 0.21724 0.83037 0.0
C460 C 0.10049 0.02535 0.74028 0.0
C461 C 0.08803 0.04545 0.76086 0.0
C462 C 0.09616 0.12814 0.78693 0.0
C463 C 0.03786 0.17677 0.82983 0.0
C464 C 0.0528 0.14864 0.81572 0.0
C465 C 0.08848 0.07923 0.75769 0.0
C466 C 0.07731 0.10118 0.77972 0.0
H467 H 0.05958 0.24162 0.86884 0.0
H468 H 0.07989 0.18869 0.85441 0.0
H469 H 0.09858 0.17291 0.80858 0.0
H470 H 0.1216 0.08372 0.69421 0.0
H471 H 0.10015 0.11837 0.72992 0.0
C472 C 0.02861 0.3961 0.76379 0.0
C473 C 0.04245 0.38527 0.78847 0.0
C474 C 0.04823 0.40822 0.74275 0.0
C475 C 0.13148 0.40321 0.71704 0.0
H476 H 0.11683 0.48732 0.68424 0.0
C477 C 0.21589 0.50781 0.67388 0.0
C478 C 0.23783 0.48956 0.65825 0.0
C479 C 0.18611 0.49482 0.68155 0.0
C480 C 0.12101 0.4636 0.69297 0.0
H481 H 0.08772 0.37947 0.81053 0.0
H482 H 0.12158 0.40031 0.77401 0.0
H483 H 0.07641 0.46457 0.71546 0.0
H484 H 0.24463 0.44449 0.63637 0.0
H485 H 0.19239 0.4216 0.64992 0.0
H486 H 0.17665 0.40271 0.69587 0.0
C487 C 0.09567 0.39918 0.7708 0.0
C488 C 0.09783 0.45056 0.71071 0.0
C489 C 0.07616 0.38748 0.79183 0.0
C490 C 0.22824 0.45908 0.64848 0.0
C491 C 0.19845 0.44592 0.65638 0.0
C492 C 0.15447 0.41608 0.69921 0.0
C493 C 0.08201 0.40925 0.74593 0.0
C494 C 0.10348 0.42078 0.72368 0.0
C495 C 0.17766 0.46317 0.67392 0.0
C496 C 0.15006 0.44692 0.68772 0.0
H497 H 0.00272 0.39474 0.76056 0.0
H498 H 0.03713 0.41599 0.72379 0.0
H499 H 0.1362 0.37998 0.7265 0.0
H500 H 0.2225 0.53151 0.68152 0.0
H501 H 0.17084 0.50871 0.69519 0.0
C502 C 0.59267 0.5687 0.30126 0.0
C503 C 0.60365 0.53762 0.2943 0.0
C504 C 0.57644 0.58773 0.28213 0.0
C505 C 0.5693 0.60115 0.20855 0.0
H506 H 0.49963 0.65767 0.23154 0.0
C507 C 0.54051 0.7241 0.15816 0.0
C508 C 0.50903 0.73648 0.16062 0.0
C509 C 0.54801 0.69354 0.1688 0.0
C510 C 0.51859 0.64169 0.22441 0.0
H511 H 0.60541 0.50179 0.26191 0.0
H512 H 0.57692 0.53531 0.2283 0.0
H513 H 0.51868 0.61571 0.26221 0.0
H514 H 0.45997 0.72547 0.17314 0.0
H515 H 0.47266 0.67177 0.19055 0.0
H516 H 0.5695 0.62764 0.17082 0.0
C517 C 0.58109 0.54486 0.24863 0.0
C518 C 0.52979 0.61785 0.24223 0.0
C519 C 0.59717 0.52562 0.26793 0.0
C520 C 0.48456 0.71662 0.17133 0.0
C521 C 0.4919 0.68596 0.18149 0.0
C522 C 0.55805 0.62508 0.19062 0.0
C523 C 0.57086 0.57626 0.25549 0.0
C524 C 0.55587 0.59795 0.23485 0.0
C525 C 0.52402 0.67476 0.18173 0.0
C526 C 0.53306 0.64617 0.19862 0.0
H527 H 0.59723 0.5787 0.32138 0.0
H528 H 0.56927 0.61197 0.28798 0.0
H529 H 0.58954 0.58623 0.20232 0.0
H530 H 0.55984 0.73902 0.15011 0.0
H531 H 0.57303 0.68579 0.16868 0.0
C532 C 0.45681 0.08227 0.79914 0.0
C533 C 0.47507 0.10872 0.79003 0.0
C534 C 0.4356 0.06648 0.78143 0.0
C535 C 0.40728 0.06109 0.70864 0.0
H536 H 0.3273 0.03669 0.7446 0.0
C537 C 0.27977 0.03416 0.65894 0.0
C538 C 0.26464 0.00623 0.66928 0.0
C539 C 0.30979 0.04414 0.6694 0.0
C540 C 0.3496 0.04318 0.73429 0.0
H541 H 0.48674 0.1386 0.75503 0.0
H542 H 0.44846 0.11202 0.72424 0.0
H543 H 0.37136 0.05853 0.77151 0.0
H544 H 0.27059 0.96524 0.69662 0.0
H545 H 0.32239 0.98283 0.71482 0.0
H546 H 0.38406 0.0468 0.67108 0.0
C547 C 0.45109 0.10278 0.74484 0.0
C548 C 0.37507 0.05545 0.74974 0.0
C549 C 0.47301 0.1181 0.76248 0.0
C550 C 0.28128 0.98717 0.68852 0.0
C551 C 0.31098 0.99716 0.69895 0.0
C552 C 0.38137 0.0492 0.69303 0.0
C553 C 0.43131 0.07744 0.75439 0.0
C554 C 0.40448 0.0642 0.73728 0.0
C555 C 0.3249 0.02633 0.69031 0.0
C556 C 0.35248 0.0398 0.70586 0.0
H557 H 0.45829 0.07434 0.82024 0.0
H558 H 0.42174 0.0463 0.7893 0.0
H559 H 0.42955 0.06746 0.69831 0.0
H560 H 0.26757 0.04931 0.64409 0.0
H561 H 0.32012 0.06679 0.66248 0.0
C562 C 0.01214 0.7872 0.1792 0.0
C563 C 0.99216 0.76725 0.16316 0.0
C564 C 1.00075 0.8166 0.18919 0.0
C565 C 0.94185 0.88127 0.18648 0.0
H566 H 0.94373 0.87454 0.26559 0.0
C567 C 0.87563 0.97088 0.25974 0.0
C568 C 0.88858 0.97496 0.28608 0.0
C569 C 0.89011 0.94935 0.24127 0.0
C570 C 0.94359 0.87737 0.24358 0.0
H571 H 0.9456 0.7639 0.14292 0.0
H572 H 0.92559 0.81594 0.16054 0.0
H573 H 0.96549 0.83103 0.23803 0.0
H574 H 0.92814 0.9623 0.31302 0.0
H575 H 0.95456 0.92656 0.28045 0.0
H576 H 0.92049 0.92811 0.19211 0.0
C577 C 0.95008 0.80846 0.16529 0.0
C578 C 0.95582 0.85218 0.22779 0.0
C579 C 0.96151 0.77875 0.15526 0.0
C580 C 0.91751 0.95924 0.29291 0.0
C581 C 0.93239 0.93846 0.27431 0.0
C582 C 0.92998 0.90694 0.20238 0.0
C583 C 0.9692 0.82686 0.18327 0.0
C584 C 0.95526 0.85391 0.19916 0.0
C585 C 0.9181 0.93201 0.24872 0.0
C586 C 0.93094 0.90538 0.2312 0.0
H587 H 0.03607 0.77932 0.18532 0.0
H588 H 0.01603 0.83057 0.20279 0.0
H589 H 0.94118 0.88303 0.16438 0.0
H590 H 0.85317 0.98262 0.25408 0.0
H591 H 0.87831 0.94502 0.22184 0.0
loop_
_geom_bond_atom_site_label_1
_geom_bond_atom_site_label_2
_geom_bond_distance
_geom_bond_site_symmetry_2
_ccdc_geom_bond_type
O0 Cd1 2.223 . S
O0 C8 1.315 . S
Cd1 O0 2.223 . S
Cd1 O4 2.297 . S
Cd1 O5 2.439 1_655 S
Cd1 O11 2.240 1_655 S
Cd2 O3 2.240 . S
Cd2 O10 2.223 . S
Cd2 O12 2.297 . S
Cd2 O13 2.439 . S
O3 Cd2 2.240 . S
O3 C8 1.279 1_455 S
O4 Cd1 2.297 . S
O4 C6 1.247 1_655 S
O5 Cd1 2.439 1_455 S
O5 C6 1.208 . S
C6 O4 1.247 1_455 S
C6 O5 1.208 . S
C7 O12 1.247 . S
C7 O13 1.208 . S
C8 O0 1.315 . S
C8 O3 1.279 1_655 S
C9 O10 1.315 . S
C9 O11 1.279 . S
O10 Cd2 2.223 . S
O10 C9 1.315 . S
O11 Cd1 2.240 1_455 S
O11 C9 1.279 . S
O12 Cd2 2.297 . S
O12 C7 1.247 . S
O13 Cd2 2.439 . S
O13 C7 1.208 . S
O14 Cd15 2.223 . S
O14 C22 1.315 . S
Cd15 O14 2.223 . S
Cd15 O18 2.297 . S
Cd15 O19 2.439 . S
Cd15 O25 2.240 . S
Cd16 O17 2.240 . S
Cd16 O24 2.223 . S
Cd16 O26 2.297 . S
Cd16 O27 2.439 . S
O17 Cd16 2.240 . S
O17 C22 1.279 . S
O18 Cd15 2.297 . S
O18 C20 1.247 . S
O19 Cd15 2.439 . S
O19 C20 1.208 . S
C20 O18 1.247 . S
C20 O19 1.208 . S
C21 O26 1.247 . S
C21 O27 1.208 . S
C22 O14 1.315 . S
C22 O17 1.279 . S
C23 O24 1.315 . S
C23 O25 1.279 . S
O24 Cd16 2.223 . S
O24 C23 1.315 . S
O25 Cd15 2.240 . S
O25 C23 1.279 . S
O26 Cd16 2.297 . S
O26 C21 1.247 . S
O27 Cd16 2.439 . S
O27 C21 1.208 . S
O28 Cd29 2.223 . S
O28 C36 1.315 . S
Cd29 O28 2.223 . S
Cd29 O32 2.297 . S
Cd29 O33 2.439 . S
Cd29 O39 2.240 . S
Cd30 O31 2.240 . S
Cd30 O38 2.223 . S
Cd30 O40 2.297 . S
Cd30 O41 2.439 . S
O31 Cd30 2.240 . S
O31 C36 1.279 . S
O32 Cd29 2.297 . S
O32 C34 1.247 . S
O33 Cd29 2.439 . S
O33 C34 1.208 . S
C34 O32 1.247 . S
C34 O33 1.208 . S
C35 O40 1.247 . S
C35 O41 1.208 . S
C36 O28 1.315 . S
C36 O31 1.279 . S
C37 O38 1.315 . S
C37 O39 1.279 . S
O38 Cd30 2.223 . S
O38 C37 1.315 . S
O39 Cd29 2.240 . S
O39 C37 1.279 . S
O40 Cd30 2.297 . S
O40 C35 1.247 . S
O41 Cd30 2.439 . S
O41 C35 1.208 . S
O42 Cd43 2.223 . S
O42 C50 1.315 . S
Cd43 O42 2.223 . S
Cd43 O46 2.297 . S
Cd43 O47 2.439 1_545 S
Cd43 O53 2.240 1_545 S
Cd44 O45 2.240 . S
Cd44 O52 2.223 . S
Cd44 O54 2.297 . S
Cd44 O55 2.439 . S
O45 Cd44 2.240 . S
O45 C50 1.279 1_565 S
O46 Cd43 2.297 . S
O46 C48 1.247 1_545 S
O47 Cd43 2.439 1_565 S
O47 C48 1.208 . S
C48 O46 1.247 1_565 S
C48 O47 1.208 . S
C49 O54 1.247 . S
C49 O55 1.208 . S
C50 O42 1.315 . S
C50 O45 1.279 1_545 S
C51 O52 1.315 . S
C51 O53 1.279 . S
O52 Cd44 2.223 . S
O52 C51 1.315 . S
O53 Cd43 2.240 1_565 S
O53 C51 1.279 . S
O54 Cd44 2.297 . S
O54 C49 1.247 . S
O55 Cd44 2.439 . S
O55 C49 1.208 . S
O56 Cd57 2.223 . S
O56 C64 1.315 . S
Cd57 O56 2.223 . S
Cd57 O60 2.297 . S
Cd57 O61 2.439 1_455 S
Cd57 O67 2.240 1_455 S
Cd58 O59 2.240 . S
Cd58 O66 2.223 . S
Cd58 O68 2.297 . S
Cd58 O69 2.439 . S
O59 Cd58 2.240 . S
O59 C64 1.279 1_655 S
O60 Cd57 2.297 . S
O60 C62 1.247 1_455 S
O61 Cd57 2.439 1_655 S
O61 C62 1.208 . S
C62 O60 1.247 1_655 S
C62 O61 1.208 . S
C63 O68 1.247 . S
C63 O69 1.208 . S
C64 O56 1.315 . S
C64 O59 1.279 1_455 S
C65 O66 1.315 . S
C65 O67 1.279 . S
O66 Cd58 2.223 . S
O66 C65 1.315 . S
O67 Cd57 2.240 1_655 S
O67 C65 1.279 . S
O68 Cd58 2.297 . S
O68 C63 1.247 . S
O69 Cd58 2.439 . S
O69 C63 1.208 . S
O70 Cd71 2.223 . S
O70 C78 1.315 . S
Cd71 O70 2.223 . S
Cd71 O74 2.297 . S
Cd71 O75 2.439 . S
Cd71 O81 2.240 . S
Cd72 O73 2.240 . S
Cd72 O80 2.223 . S
Cd72 O82 2.297 . S
Cd72 O83 2.439 . S
O73 Cd72 2.240 . S
O73 C78 1.279 . S
O74 Cd71 2.297 . S
O74 C76 1.247 . S
O75 Cd71 2.439 . S
O75 C76 1.208 . S
C76 O74 1.247 . S
C76 O75 1.208 . S
C77 O82 1.247 . S
C77 O83 1.208 . S
C78 O70 1.315 . S
C78 O73 1.279 . S
C79 O80 1.315 . S
C79 O81 1.279 . S
O80 Cd72 2.223 . S
O80 C79 1.315 . S
O81 Cd71 2.240 . S
O81 C79 1.279 . S
O82 Cd72 2.297 . S
O82 C77 1.247 . S
O83 Cd72 2.439 . S
O83 C77 1.208 . S
O84 Cd85 2.223 . S
O84 C92 1.315 . S
Cd85 O84 2.223 . S
Cd85 O88 2.297 . S
Cd85 O89 2.439 . S
Cd85 O95 2.240 . S
Cd86 O87 2.240 . S
Cd86 O94 2.223 . S
Cd86 O96 2.297 . S
Cd86 O97 2.439 . S
O87 Cd86 2.240 . S
O87 C92 1.279 . S
O88 Cd85 2.297 . S
O88 C90 1.247 . S
O89 Cd85 2.439 . S
O89 C90 1.208 . S
C90 O88 1.247 . S
C90 O89 1.208 . S
C91 O96 1.247 . S
C91 O97 1.208 . S
C92 O84 1.315 . S
C92 O87 1.279 . S
C93 O94 1.315 . S
C93 O95 1.279 . S
O94 Cd86 2.223 . S
O94 C93 1.315 . S
O95 Cd85 2.240 . S
O95 C93 1.279 . S
O96 Cd86 2.297 . S
O96 C91 1.247 . S
O97 Cd86 2.439 . S
O97 C91 1.208 . S
O98 Cd99 2.223 . S
O98 C106 1.315 . S
Cd99 O98 2.223 . S
Cd99 O102 2.297 . S
Cd99 O103 2.439 1_565 S
Cd99 O109 2.240 1_565 S
Cd100 O101 2.240 . S
Cd100 O108 2.223 . S
Cd100 O110 2.297 . S
Cd100 O111 2.439 . S
O101 Cd100 2.240 . S
O101 C106 1.279 1_545 S
O102 Cd99 2.297 . S
O102 C104 1.247 1_565 S
O103 Cd99 2.439 1_545 S
O103 C104 1.208 . S
C104 O102 1.247 1_545 S
C104 O103 1.208 . S
C105 O110 1.247 . S
C105 O111 1.208 . S
C106 O98 1.315 . S
C106 O101 1.279 1_565 S
C107 O108 1.315 . S
C107 O109 1.279 . S
O108 Cd100 2.223 . S
O108 C107 1.315 . S
O109 Cd99 2.240 1_545 S
O109 C107 1.279 . S
O110 Cd100 2.297 . S
O110 C105 1.247 . S
O111 Cd100 2.439 . S
O111 C105 1.208 . S
C112 C113 1.349 1_455 S
C112 C114 1.327 . S
C112 H137 0.950 . S
C113 C112 1.349 1_655 S
C113 C129 1.349 . S
C114 C112 1.327 . S
C114 C133 1.429 1_455 S
C114 H138 0.950 . S
C115 C132 1.570 1_556 S
C115 C134 1.372 . S
C115 H139 0.949 . S
H116 C120 0.949 . S
C117 C118 1.349 1_655 S
C117 C119 1.327 . S
C117 H140 0.950 . S
C118 C117 1.349 1_455 S
C118 C130 1.349 . S
C119 C117 1.327 . S
C119 C135 1.429 1_655 S
C119 H141 0.950 . S
C120 H116 0.949 . S
C120 C128 1.570 1_554 S
C120 C136 1.372 . S
H121 C129 0.950 . S
H122 C127 0.950 . S
H123 C128 0.949 . S
H124 C130 0.950 . S
H125 C131 0.950 . S
H126 C132 0.949 . S
C127 H122 0.950 . S
C127 C129 1.327 . S
C127 C133 1.429 . S
C128 C120 1.570 1_556 S
C128 H123 0.949 . S
C128 C134 1.368 1_455 S
C129 C113 1.349 . S
C129 H121 0.950 . S
C129 C127 1.327 . S
C130 C118 1.349 . S
C130 H124 0.950 . S
C130 C131 1.327 . S
C131 H125 0.950 . S
C131 C130 1.327 . S
C131 C135 1.429 . S
C132 C115 1.570 1_554 S
C132 H126 0.949 . S
C132 C136 1.368 1_655 S
C133 C114 1.429 1_655 S
C133 C127 1.429 . S
C133 C134 1.523 . S
C134 C115 1.372 . S
C134 C128 1.368 1_655 S
C134 C133 1.523 . S
C135 C119 1.429 1_455 S
C135 C131 1.429 . S
C135 C136 1.523 . S
C136 C120 1.372 . S
C136 C132 1.368 1_455 S
C136 C135 1.523 . S
H137 C112 0.950 . S
H138 C114 0.950 . S
H139 C115 0.949 . S
H140 C117 0.950 . S
H141 C119 0.950 . S
C142 C143 1.349 . S
C142 C144 1.327 . S
C142 H167 0.950 . S
C143 C142 1.349 . S
C143 C159 1.349 . S
C144 C142 1.327 . S
C144 C163 1.429 . S
C144 H168 0.950 . S
C145 C162 1.574 . S
C145 C164 1.368 . S
C145 H169 0.949 . S
H146 C150 0.949 . S
C147 C148 1.349 . S
C147 C149 1.327 . S
C147 H170 0.950 . S
C148 C147 1.349 . S
C148 C160 1.349 . S
C149 C147 1.327 . S
C149 C165 1.429 . S
C149 H171 0.950 . S
C150 H146 0.949 . S
C150 C158 1.574 . S
C150 C166 1.368 . S
H151 C159 0.950 . S
H152 C157 0.950 . S
H153 C158 0.949 . S
H154 C160 0.950 . S
H155 C161 0.950 . S
H156 C162 0.949 . S
C157 H152 0.950 . S
C157 C159 1.327 . S
C157 C163 1.429 . S
C158 C150 1.574 . S
C158 H153 0.949 . S
C158 C164 1.368 . S
C159 C143 1.349 . S
C159 H151 0.950 . S
C159 C157 1.327 . S
C160 C148 1.349 . S
C160 H154 0.950 . S
C160 C161 1.327 . S
C161 H155 0.950 . S
C161 C160 1.327 . S
C161 C165 1.429 . S
C162 C145 1.574 . S
C162 H156 0.949 . S
C162 C166 1.368 . S
C163 C144 1.429 . S
C163 C157 1.429 . S
C163 C164 1.523 . S
C164 C145 1.368 . S
C164 C158 1.368 . S
C164 C163 1.523 . S
C165 C149 1.429 . S
C165 C161 1.429 . S
C165 C166 1.523 . S
C166 C150 1.368 . S
C166 C162 1.368 . S
C166 C165 1.523 . S
H167 C142 0.950 . S
H168 C144 0.950 . S
H169 C145 0.949 . S
H170 C147 0.950 . S
H171 C149 0.950 . S
C172 C173 1.349 . S
C172 C174 1.327 . S
C172 H197 0.950 . S
C173 C172 1.349 . S
C173 C189 1.349 . S
C174 C172 1.327 . S
C174 C193 1.429 . S
C174 H198 0.950 . S
C175 C192 1.574 1_554 S
C175 C194 1.368 . S
C175 H199 0.949 . S
H176 C180 0.949 . S
C177 C178 1.349 . S
C177 C179 1.327 . S
C177 H200 0.950 . S
C178 C177 1.349 . S
C178 C190 1.349 . S
C179 C177 1.327 . S
C179 C195 1.429 . S
C179 H201 0.950 . S
C180 H176 0.949 . S
C180 C188 1.574 1_556 S
C180 C196 1.368 . S
H181 C189 0.950 . S
H182 C187 0.950 . S
H183 C188 0.949 . S
H184 C190 0.950 . S
H185 C191 0.950 . S
H186 C192 0.949 . S
C187 H182 0.950 . S
C187 C189 1.327 . S
C187 C193 1.429 . S
C188 C180 1.574 1_554 S
C188 H183 0.949 . S
C188 C194 1.368 1_545 S
C189 C173 1.349 . S
C189 H181 0.950 . S
C189 C187 1.327 . S
C190 C178 1.349 . S
C190 H184 0.950 . S
C190 C191 1.327 . S
C191 H185 0.950 . S
C191 C190 1.327 . S
C191 C195 1.429 . S
C192 C175 1.574 1_556 S
C192 H186 0.949 . S
C192 C196 1.368 1_565 S
C193 C174 1.429 . S
C193 C187 1.429 . S
C193 C194 1.523 . S
C194 C175 1.368 . S
C194 C188 1.368 1_565 S
C194 C193 1.523 . S
C195 C179 1.429 . S
C195 C191 1.429 . S
C195 C196 1.523 . S
C196 C180 1.368 . S
C196 C192 1.368 1_545 S
C196 C195 1.523 . S
H197 C172 0.950 . S
H198 C174 0.950 . S
H199 C175 0.949 . S
H200 C177 0.950 . S
H201 C179 0.950 . S
C202 C203 1.349 1_565 S
C202 C204 1.327 . S
C202 H227 0.950 . S
C203 C202 1.349 1_545 S
C203 C219 1.349 . S
C204 C202 1.327 . S
C204 C223 1.429 1_565 S
C204 H228 0.950 . S
C205 C222 1.574 . S
C205 C224 1.368 . S
C205 H229 0.949 . S
H206 C210 0.949 . S
C207 C208 1.349 1_545 S
C207 C209 1.327 . S
C207 H230 0.950 . S
C208 C207 1.349 1_565 S
C208 C220 1.349 . S
C209 C207 1.327 . S
C209 C225 1.429 1_545 S
C209 H231 0.950 . S
C210 H206 0.949 . S
C210 C218 1.574 . S
C210 C226 1.368 . S
H211 C219 0.950 . S
H212 C217 0.950 . S
H213 C218 0.949 . S
H214 C220 0.950 . S
H215 C221 0.950 . S
H216 C222 0.949 . S
C217 H212 0.950 . S
C217 C219 1.327 . S
C217 C223 1.429 . S
C218 C210 1.574 . S
C218 H213 0.949 . S
C218 C224 1.368 1_465 S
C219 C203 1.349 . S
C219 H211 0.950 . S
C219 C217 1.327 . S
C220 C208 1.349 . S
C220 H214 0.950 . S
C220 C221 1.327 . S
C221 H215 0.950 . S
C221 C220 1.327 . S
C221 C225 1.429 . S
C222 C205 1.574 . S
C222 H216 0.949 . S
C222 C226 1.368 1_645 S
C223 C204 1.429 1_545 S
C223 C217 1.429 . S
C223 C224 1.523 . S
C224 C205 1.368 . S
C224 C218 1.368 1_645 S
C224 C223 1.523 . S
C225 C209 1.429 1_565 S
C225 C221 1.429 . S
C225 C226 1.523 . S
C226 C210 1.368 . S
C226 C222 1.368 1_465 S
C226 C225 1.523 . S
H227 C202 0.950 . S
H228 C204 0.950 . S
H229 C205 0.949 . S
H230 C207 0.950 . S
H231 C209 0.950 . S
C232 C233 1.349 . S
C232 C234 1.327 . S
C232 H257 0.950 . S
C233 C232 1.349 . S
C233 C249 1.349 . S
C234 C232 1.327 . S
C234 C253 1.429 . S
C234 H258 0.950 . S
C235 C252 1.574 . S
C235 C254 1.368 . S
C235 H259 0.949 . S
H236 C240 0.949 . S
C237 C238 1.349 . S
C237 C239 1.327 . S
C237 H260 0.950 . S
C238 C237 1.349 . S
C238 C250 1.349 . S
C239 C237 1.327 . S
C239 C255 1.429 . S
C239 H261 0.950 . S
C240 H236 0.949 . S
C240 C248 1.574 . S
C240 C256 1.368 . S
H241 C249 0.950 . S
H242 C247 0.950 . S
H243 C248 0.949 . S
H244 C250 0.950 . S
H245 C251 0.950 . S
H246 C252 0.949 . S
C247 H242 0.950 . S
C247 C249 1.327 . S
C247 C253 1.429 . S
C248 C240 1.574 . S
C248 H243 0.949 . S
C248 C254 1.368 . S
C249 C233 1.349 . S
C249 H241 0.950 . S
C249 C247 1.327 . S
C250 C238 1.349 . S
C250 H244 0.950 . S
C250 C251 1.327 . S
C251 H245 0.950 . S
C251 C250 1.327 . S
C251 C255 1.429 . S
C252 C235 1.574 . S
C252 H246 0.949 . S
C252 C256 1.368 . S
C253 C234 1.429 . S
C253 C247 1.429 . S
C253 C254 1.523 . S
C254 C235 1.368 . S
C254 C248 1.368 . S
C254 C253 1.523 . S
C255 C239 1.429 . S
C255 C251 1.429 . S
C255 C256 1.523 . S
C256 C240 1.368 . S
C256 C252 1.368 . S
C256 C255 1.523 . S
H257 C232 0.950 . S
H258 C234 0.950 . S
H259 C235 0.949 . S
H260 C237 0.950 . S
H261 C239 0.950 . S
C262 C263 1.349 . S
C262 C264 1.327 . S
C262 H287 0.950 . S
C263 C262 1.349 . S
C263 C279 1.349 . S
C264 C262 1.327 . S
C264 C283 1.429 . S
C264 H288 0.950 . S
C265 C282 1.574 . S
C265 C284 1.368 . S
C265 H289 0.949 . S
H266 C270 0.949 . S
C267 C268 1.349 . S
C267 C269 1.327 . S
C267 H290 0.950 . S
C268 C267 1.349 . S
C268 C280 1.349 . S
C269 C267 1.327 . S
C269 C285 1.429 . S
C269 H291 0.950 . S
C270 H266 0.949 . S
C270 C278 1.574 . S
C270 C286 1.368 . S
H271 C279 0.950 . S
H272 C277 0.950 . S
H273 C278 0.949 . S
H274 C280 0.950 . S
H275 C281 0.950 . S
H276 C282 0.949 . S
C277 H272 0.950 . S
C277 C279 1.327 . S
C277 C283 1.429 . S
C278 C270 1.574 . S
C278 H273 0.949 . S
C278 C284 1.368 . S
C279 C263 1.349 . S
C279 H271 0.950 . S
C279 C277 1.327 . S
C280 C268 1.349 . S
C280 H274 0.950 . S
C280 C281 1.327 . S
C281 H275 0.950 . S
C281 C280 1.327 . S
C281 C285 1.429 . S
C282 C265 1.574 . S
C282 H276 0.949 . S
C282 C286 1.368 . S
C283 C264 1.429 . S
C283 C277 1.429 . S
C283 C284 1.523 . S
C284 C265 1.368 . S
C284 C278 1.368 . S
C284 C283 1.523 . S
C285 C269 1.429 . S
C285 C281 1.429 . S
C285 C286 1.523 . S
C286 C270 1.368 . S
C286 C282 1.368 . S
C286 C285 1.523 . S
H287 C262 0.950 . S
H288 C264 0.950 . S
H289 C265 0.949 . S
H290 C267 0.950 . S
H291 C269 0.950 . S
C292 C293 1.349 . S
C292 C294 1.327 . S
C292 H317 0.950 . S
C293 C292 1.349 . S
C293 C309 1.349 . S
C294 C292 1.327 . S
C294 C313 1.429 . S
C294 H318 0.950 . S
C295 C312 1.574 . S
C295 C314 1.368 . S
C295 H319 0.949 . S
H296 C300 0.949 . S
C297 C298 1.349 . S
C297 C299 1.327 . S
C297 H320 0.950 . S
C298 C297 1.349 . S
C298 C310 1.349 . S
C299 C297 1.327 . S
C299 C315 1.429 . S
C299 H321 0.950 . S
C300 H296 0.949 . S
C300 C308 1.574 . S
C300 C316 1.368 . S
H301 C309 0.950 . S
H302 C307 0.950 . S
H303 C308 0.949 . S
H304 C310 0.950 . S
H305 C311 0.950 . S
H306 C312 0.949 . S
C307 H302 0.950 . S
C307 C309 1.327 . S
C307 C313 1.429 . S
C308 C300 1.574 . S
C308 H303 0.949 . S
C308 C314 1.368 . S
C309 C293 1.349 . S
C309 H301 0.950 . S
C309 C307 1.327 . S
C310 C298 1.349 . S
C310 H304 0.950 . S
C310 C311 1.327 . S
C311 H305 0.950 . S
C311 C310 1.327 . S
C311 C315 1.429 . S
C312 C295 1.574 . S
C312 H306 0.949 . S
C312 C316 1.368 . S
C313 C294 1.429 . S
C313 C307 1.429 . S
C313 C314 1.523 . S
C314 C295 1.368 . S
C314 C308 1.368 . S
C314 C313 1.523 . S
C315 C299 1.429 . S
C315 C311 1.429 . S
C315 C316 1.523 . S
C316 C300 1.368 . S
C316 C312 1.368 . S
C316 C315 1.523 . S
H317 C292 0.950 . S
H318 C294 0.950 . S
H319 C295 0.949 . S
H320 C297 0.950 . S
H321 C299 0.950 . S
C322 C323 1.349 . S
C322 C324 1.327 . S
C322 H347 0.950 . S
C323 C322 1.349 . S
C323 C339 1.349 . S
C324 C322 1.327 . S
C324 C343 1.429 . S
C324 H348 0.950 . S
C325 C342 1.574 . S
C325 C344 1.368 . S
C325 H349 0.949 . S
H326 C330 0.949 . S
C327 C328 1.349 . S
C327 C329 1.327 . S
C327 H350 0.950 . S
C328 C327 1.349 . S
C328 C340 1.349 . S
C329 C327 1.327 . S
C329 C345 1.429 . S
C329 H351 0.950 . S
C330 H326 0.949 . S
C330 C338 1.574 . S
C330 C346 1.368 . S
H331 C339 0.950 . S
H332 C337 0.950 . S
H333 C338 0.949 . S
H334 C340 0.950 . S
H335 C341 0.950 . S
H336 C342 0.949 . S
C337 H332 0.950 . S
C337 C339 1.327 . S
C337 C343 1.429 . S
C338 C330 1.574 . S
C338 H333 0.949 . S
C338 C344 1.368 . S
C339 C323 1.349 . S
C339 H331 0.950 . S
C339 C337 1.327 . S
C340 C328 1.349 . S
C340 H334 0.950 . S
C340 C341 1.327 . S
C341 H335 0.950 . S
C341 C340 1.327 . S
C341 C345 1.429 . S
C342 C325 1.574 . S
C342 H336 0.949 . S
C342 C346 1.368 . S
C343 C324 1.429 . S
C343 C337 1.429 . S
C343 C344 1.523 . S
C344 C325 1.368 . S
C344 C338 1.368 . S
C344 C343 1.523 . S
C345 C329 1.429 . S
C345 C341 1.429 . S
C345 C346 1.523 . S
C346 C330 1.368 . S
C346 C342 1.368 . S
C346 C345 1.523 . S
H347 C322 0.950 . S
H348 C324 0.950 . S
H349 C325 0.949 . S
H350 C327 0.950 . S
H351 C329 0.950 . S
C352 C353 1.349 . S
C352 C354 1.327 . S
C352 H377 0.950 . S
C353 C352 1.349 . S
C353 C369 1.349 . S
C354 C352 1.327 . S
C354 C373 1.429 . S
C354 H378 0.950 . S
C355 C372 1.574 . S
C355 C374 1.368 . S
C355 H379 0.949 . S
H356 C360 0.949 . S
C357 C358 1.349 . S
C357 C359 1.327 . S
C357 H380 0.950 . S
C358 C357 1.349 . S
C358 C370 1.349 . S
C359 C357 1.327 . S
C359 C375 1.429 . S
C359 H381 0.950 . S
C360 H356 0.949 . S
C360 C368 1.574 . S
C360 C376 1.368 . S
H361 C369 0.950 . S
H362 C367 0.950 . S
H363 C368 0.949 . S
H364 C370 0.950 . S
H365 C371 0.950 . S
H366 C372 0.949 . S
C367 H362 0.950 . S
C367 C369 1.327 . S
C367 C373 1.429 . S
C368 C360 1.574 . S
C368 H363 0.949 . S
C368 C374 1.368 . S
C369 C353 1.349 . S
C369 H361 0.950 . S
C369 C367 1.327 . S
C370 C358 1.349 . S
C370 H364 0.950 . S
C370 C371 1.327 . S
C371 H365 0.950 . S
C371 C370 1.327 . S
C371 C375 1.429 . S
C372 C355 1.574 . S
C372 H366 0.949 . S
C372 C376 1.368 . S
C373 C354 1.429 . S
C373 C367 1.429 . S
C373 C374 1.523 . S
C374 C355 1.368 . S
C374 C368 1.368 . S
C374 C373 1.523 . S
C375 C359 1.429 . S
C375 C371 1.429 . S
C375 C376 1.523 . S
C376 C360 1.368 . S
C376 C372 1.368 . S
C376 C375 1.523 . S
H377 C352 0.950 . S
H378 C354 0.950 . S
H379 C355 0.949 . S
H380 C357 0.950 . S
H381 C359 0.950 . S
C382 C383 1.349 . S
C382 C384 1.327 . S
C382 H407 0.950 . S
C383 C382 1.349 . S
C383 C399 1.349 . S
C384 C382 1.327 . S
C384 C403 1.429 . S
C384 H408 0.950 . S
C385 C402 1.574 . S
C385 C404 1.368 . S
C385 H409 0.949 . S
H386 C390 0.949 . S
C387 C388 1.349 . S
C387 C389 1.327 . S
C387 H410 0.950 . S
C388 C387 1.349 . S
C388 C400 1.349 . S
C389 C387 1.327 . S
C389 C405 1.429 . S
C389 H411 0.950 . S
C390 H386 0.949 . S
C390 C398 1.574 . S
C390 C406 1.368 . S
H391 C399 0.950 . S
H392 C397 0.950 . S
H393 C398 0.949 . S
H394 C400 0.950 . S
H395 C401 0.950 . S
H396 C402 0.949 . S
C397 H392 0.950 . S
C397 C399 1.327 . S
C397 C403 1.429 . S
C398 C390 1.574 . S
C398 H393 0.949 . S
C398 C404 1.368 . S
C399 C383 1.349 . S
C399 H391 0.950 . S
C399 C397 1.327 . S
C400 C388 1.349 . S
C400 H394 0.950 . S
C400 C401 1.327 . S
C401 H395 0.950 . S
C401 C400 1.327 . S
C401 C405 1.429 . S
C402 C385 1.574 . S
C402 H396 0.949 . S
C402 C406 1.368 . S
C403 C384 1.429 . S
C403 C397 1.429 . S
C403 C404 1.523 . S
C404 C385 1.368 . S
C404 C398 1.368 . S
C404 C403 1.523 . S
C405 C389 1.429 . S
C405 C401 1.429 . S
C405 C406 1.523 . S
C406 C390 1.368 . S
C406 C402 1.368 . S
C406 C405 1.523 . S
H407 C382 0.950 . S
H408 C384 0.950 . S
H409 C385 0.949 . S
H410 C387 0.950 . S
H411 C389 0.950 . S
C412 C413 1.349 . S
C412 C414 1.327 . S
C412 H437 0.950 . S
C413 C412 1.349 . S
C413 C429 1.349 . S
C414 C412 1.327 . S
C414 C433 1.429 . S
C414 H438 0.950 . S
C415 C432 1.574 . S
C415 C434 1.368 . S
C415 H439 0.949 . S
H416 C420 0.949 . S
C417 C418 1.349 . S
C417 C419 1.327 . S
C417 H440 0.950 . S
C418 C417 1.349 . S
C418 C430 1.349 1_565 S
C419 C417 1.327 . S
C419 C435 1.429 . S
C419 H441 0.950 . S
C420 H416 0.949 . S
C420 C428 1.574 . S
C420 C436 1.368 . S
H421 C429 0.950 . S
H422 C427 0.950 . S
H423 C428 0.949 . S
H424 C430 0.950 . S
H425 C431 0.950 1_545 S
H426 C432 0.949 . S
C427 H422 0.950 . S
C427 C429 1.327 . S
C427 C433 1.429 . S
C428 C420 1.574 . S
C428 H423 0.949 . S
C428 C434 1.368 . S
C429 C413 1.349 . S
C429 H421 0.950 . S
C429 C427 1.327 . S
C430 C418 1.349 1_545 S
C430 H424 0.950 . S
C430 C431 1.327 1_545 S
C431 H425 0.950 1_565 S
C431 C430 1.327 1_565 S
C431 C435 1.429 . S
C432 C415 1.574 . S
C432 H426 0.949 . S
C432 C436 1.368 . S
C433 C414 1.429 . S
C433 C427 1.429 . S
C433 C434 1.523 . S
C434 C415 1.368 . S
C434 C428 1.368 . S
C434 C433 1.523 . S
C435 C419 1.429 . S
C435 C431 1.429 . S
C435 C436 1.523 . S
C436 C420 1.368 . S
C436 C432 1.368 . S
C436 C435 1.523 . S
H437 C412 0.950 . S
H438 C414 0.950 . S
H439 C415 0.949 . S
H440 C417 0.950 . S
H441 C419 0.950 . S
C442 C443 1.349 . S
C442 C444 1.327 . S
C442 H467 0.950 1_455 S
C443 C442 1.349 . S
C443 C459 1.349 . S
C444 C442 1.327 . S
C444 C463 1.429 . S
C444 H468 0.950 . S
C445 C462 1.574 . S
C445 C464 1.368 . S
C445 H469 0.949 . S
H446 C450 0.949 . S
C447 C448 1.349 . S
C447 C449 1.327 . S
C447 H470 0.950 . S
C448 C447 1.349 . S
C448 C460 1.349 . S
C449 C447 1.327 . S
C449 C465 1.429 . S
C449 H471 0.950 . S
C450 H446 0.949 . S
C450 C458 1.574 . S
C450 C466 1.368 . S
H451 C459 0.950 . S
H452 C457 0.950 . S
H453 C458 0.949 . S
H454 C460 0.950 . S
H455 C461 0.950 . S
H456 C462 0.949 . S
C457 H452 0.950 . S
C457 C459 1.327 . S
C457 C463 1.429 . S
C458 C450 1.574 . S
C458 H453 0.949 . S
C458 C464 1.368 . S
C459 C443 1.349 . S
C459 H451 0.950 . S
C459 C457 1.327 . S
C460 C448 1.349 . S
C460 H454 0.950 . S
C460 C461 1.327 . S
C461 H455 0.950 . S
C461 C460 1.327 . S
C461 C465 1.429 . S
C462 C445 1.574 . S
C462 H456 0.949 . S
C462 C466 1.368 . S
C463 C444 1.429 . S
C463 C457 1.429 . S
C463 C464 1.523 . S
C464 C445 1.368 . S
C464 C458 1.368 . S
C464 C463 1.523 . S
C465 C449 1.429 . S
C465 C461 1.429 . S
C465 C466 1.523 . S
C466 C450 1.368 . S
C466 C462 1.368 . S
C466 C465 1.523 . S
H467 C442 0.950 1_655 S
H468 C444 0.950 . S
H469 C445 0.949 . S
H470 C447 0.950 . S
H471 C449 0.950 . S
C472 C473 1.349 . S
C472 C474 1.327 . S
C472 H497 0.950 . S
C473 C472 1.349 . S
C473 C489 1.349 . S
C474 C472 1.327 . S
C474 C493 1.429 . S
C474 H498 0.950 . S
C475 C492 1.574 . S
C475 C494 1.368 . S
C475 H499 0.949 . S
H476 C480 0.949 . S
C477 C478 1.349 . S
C477 C479 1.327 . S
C477 H500 0.950 . S
C478 C477 1.349 . S
C478 C490 1.349 . S
C479 C477 1.327 . S
C479 C495 1.429 . S
C479 H501 0.950 . S
C480 H476 0.949 . S
C480 C488 1.574 . S
C480 C496 1.368 . S
H481 C489 0.950 . S
H482 C487 0.950 . S
H483 C488 0.949 . S
H484 C490 0.950 . S
H485 C491 0.950 . S
H486 C492 0.949 . S
C487 H482 0.950 . S
C487 C489 1.327 . S
C487 C493 1.429 . S
C488 C480 1.574 . S
C488 H483 0.949 . S
C488 C494 1.368 . S
C489 C473 1.349 . S
C489 H481 0.950 . S
C489 C487 1.327 . S
C490 C478 1.349 . S
C490 H484 0.950 . S
C490 C491 1.327 . S
C491 H485 0.950 . S
C491 C490 1.327 . S
C491 C495 1.429 . S
C492 C475 1.574 . S
C492 H486 0.949 . S
C492 C496 1.368 . S
C493 C474 1.429 . S
C493 C487 1.429 . S
C493 C494 1.523 . S
C494 C475 1.368 . S
C494 C488 1.368 . S
C494 C493 1.523 . S
C495 C479 1.429 . S
C495 C491 1.429 . S
C495 C496 1.523 . S
C496 C480 1.368 . S
C496 C492 1.368 . S
C496 C495 1.523 . S
H497 C472 0.950 . S
H498 C474 0.950 . S
H499 C475 0.949 . S
H500 C477 0.950 . S
H501 C479 0.950 . S
C502 C503 1.349 . S
C502 C504 1.327 . S
C502 H527 0.950 . S
C503 C502 1.349 . S
C503 C519 1.349 . S
C504 C502 1.327 . S
C504 C523 1.429 . S
C504 H528 0.950 . S
C505 C522 1.574 . S
C505 C524 1.368 . S
C505 H529 0.949 . S
H506 C510 0.949 . S
C507 C508 1.349 . S
C507 C509 1.327 . S
C507 H530 0.950 . S
C508 C507 1.349 . S
C508 C520 1.349 . S
C509 C507 1.327 . S
C509 C525 1.429 . S
C509 H531 0.950 . S
C510 H506 0.949 . S
C510 C518 1.574 . S
C510 C526 1.368 . S
H511 C519 0.950 . S
H512 C517 0.950 . S
H513 C518 0.949 . S
H514 C520 0.950 . S
H515 C521 0.950 . S
H516 C522 0.949 . S
C517 H512 0.950 . S
C517 C519 1.327 . S
C517 C523 1.429 . S
C518 C510 1.574 . S
C518 H513 0.949 . S
C518 C524 1.368 . S
C519 C503 1.349 . S
C519 H511 0.950 . S
C519 C517 1.327 . S
C520 C508 1.349 . S
C520 H514 0.950 . S
C520 C521 1.327 . S
C521 H515 0.950 . S
C521 C520 1.327 . S
C521 C525 1.429 . S
C522 C505 1.574 . S
C522 H516 0.949 . S
C522 C526 1.368 . S
C523 C504 1.429 . S
C523 C517 1.429 . S
C523 C524 1.523 . S
C524 C505 1.368 . S
C524 C518 1.368 . S
C524 C523 1.523 . S
C525 C509 1.429 . S
C525 C521 1.429 . S
C525 C526 1.523 . S
C526 C510 1.368 . S
C526 C522 1.368 . S
C526 C525 1.523 . S
H527 C502 0.950 . S
H528 C504 0.950 . S
H529 C505 0.949 . S
H530 C507 0.950 . S
H531 C509 0.950 . S
C532 C533 1.349 . S
C532 C534 1.327 . S
C532 H557 0.950 . S
C533 C532 1.349 . S
C533 C549 1.349 . S
C534 C532 1.327 . S
C534 C553 1.429 . S
C534 H558 0.950 . S
C535 C552 1.574 . S
C535 C554 1.368 . S
C535 H559 0.949 . S
H536 C540 0.949 . S
C537 C538 1.349 . S
C537 C539 1.327 . S
C537 H560 0.950 . S
C538 C537 1.349 . S
C538 C550 1.349 1_545 S
C539 C537 1.327 . S
C539 C555 1.429 . S
C539 H561 0.950 . S
C540 H536 0.949 . S
C540 C548 1.574 . S
C540 C556 1.368 . S
H541 C549 0.950 . S
H542 C547 0.950 . S
H543 C548 0.949 . S
H544 C550 0.950 . S
H545 C551 0.950 1_565 S
H546 C552 0.949 . S
C547 H542 0.950 . S
C547 C549 1.327 . S
C547 C553 1.429 . S
C548 C540 1.574 . S
C548 H543 0.949 . S
C548 C554 1.368 . S
C549 C533 1.349 . S
C549 H541 0.950 . S
C549 C547 1.327 . S
C550 C538 1.349 1_565 S
C550 H544 0.950 . S
C550 C551 1.327 1_565 S
C551 H545 0.950 1_545 S
C551 C550 1.327 1_545 S
C551 C555 1.429 . S
C552 C535 1.574 . S
C552 H546 0.949 . S
C552 C556 1.368 . S
C553 C534 1.429 . S
C553 C547 1.429 . S
C553 C554 1.523 . S
C554 C535 1.368 . S
C554 C548 1.368 . S
C554 C553 1.523 . S
C555 C539 1.429 . S
C555 C551 1.429 . S
C555 C556 1.523 . S
C556 C540 1.368 . S
C556 C552 1.368 . S
C556 C555 1.523 . S
H557 C532 0.950 . S
H558 C534 0.950 . S
H559 C535 0.949 . S
H560 C537 0.950 . S
H561 C539 0.950 . S
C562 C563 1.349 1_455 S
C562 C564 1.327 1_455 S
C562 H587 0.950 . S
C563 C562 1.349 1_655 S
C563 C579 1.349 . S
C564 C562 1.327 1_655 S
C564 C583 1.429 . S
C564 H588 0.934 1_655 S
C565 C582 1.574 . S
C565 C584 1.368 . S
C565 H589 0.949 . S
H566 C570 0.949 . S
C567 C568 1.349 . S
C567 C569 1.327 . S
C567 H590 0.950 . S
C568 C567 1.349 . S
C568 C580 1.349 . S
C569 C567 1.327 . S
C569 C585 1.429 . S
C569 H591 0.950 . S
C570 H566 0.949 . S
C570 C578 1.574 . S
C570 C586 1.368 . S
H571 C579 0.950 . S
H572 C577 0.950 . S
H573 C578 0.949 . S
H574 C580 0.950 . S
H575 C581 0.950 . S
H576 C582 0.949 . S
C577 H572 0.950 . S
C577 C579 1.327 . S
C577 C583 1.429 . S
C578 C570 1.574 . S
C578 H573 0.949 . S
C578 C584 1.368 . S
C579 C563 1.349 . S
C579 H571 0.950 . S
C579 C577 1.327 . S
C580 C568 1.349 . S
C580 H574 0.950 . S
C580 C581 1.327 . S
C581 H575 0.950 . S
C581 C580 1.327 . S
C581 C585 1.429 . S
C582 C565 1.574 . S
C582 H576 0.949 . S
C582 C586 1.368 . S
C583 C564 1.429 . S
C583 C577 1.429 . S
C583 C584 1.523 . S
C584 C565 1.368 . S
C584 C578 1.368 . S
C584 C583 1.523 . S
C585 C569 1.429 . S
C585 C581 1.429 . S
C585 C586 1.523 . S
C586 C570 1.368 . S
C586 C582 1.368 . S
C586 C585 1.523 . S
H587 C562 0.950 . S
H588 C564 0.934 1_455 S
H589 C565 0.949 . S
H590 C567 0.950 . S
H591 C569 0.950 . S
C113 C62 1.500 . S
C118 C6 1.500 . S
C143 C20 1.500 . S
C148 C76 1.500 . S
C173 C34 1.500 . S
C178 C90 1.500 . S
C203 C104 1.500 . S
C208 C48 1.500 . S
C233 C7 1.273 . S
C238 C35 1.273 . S
C263 C21 1.273 . S
C268 C49 1.273 . S
C293 C91 1.273 . S
C298 C63 1.273 . S
C323 C77 1.273 . S
C328 C105 1.273 . S
C353 C79 1.291 . S
C358 C8 1.265 . S
C383 C22 1.265 . S
C388 C93 1.291 . S
C413 C36 1.265 . S
C418 C107 1.291 1_565 S
C443 C65 1.291 1_455 S
C448 C50 1.265 . S
C473 C64 1.265 . S
C478 C23 1.291 . S
C503 C78 1.265 . S
C508 C37 1.291 . S
C533 C92 1.265 . S
C538 C51 1.291 1_545 S
C563 C9 1.291 1_655 S
C568 C106 1.265 . S
