# Generated by pormake.
# Topology dft, (4)-cn, num edge types: 1
# Building blocks:
#     Node 0, Type 0, BuildingBlock: TATPOV_clean_sbu_0, # of connection points: 4
#     Node 1, Type 0, BuildingBlock: TATPOV_clean_sbu_0, # of connection points: 4
#     Node 2, Type 0, BuildingBlock: TATPOV_clean_sbu_0, # of connection points: 4
#     Node 3, Type 0, BuildingBlock: TATPOV_clean_sbu_0, # of connection points: 4
#     Node 4, Type 0, BuildingBlock: TATPOV_clean_sbu_0, # of connection points: 4
#     Node 5, Type 0, BuildingBlock: TATPOV_clean_sbu_0, # of connection points: 4
#     Node 6, Type 0, BuildingBlock: TATPOV_clean_sbu_0, # of connection points: 4
#     Node 7, Type 0, BuildingBlock: TATPOV_clean_sbu_0, # of connection points: 4
#     Edge 8, Type (0, 0), BuildingBlock: UVAHIK_clean_linker_0, # of connection points: 2
#     Edge 9, Type (0, 0), BuildingBlock: UVAHIK_clean_linker_0, # of connection points: 2
#     Edge 10, Type (0, 0), BuildingBlock: UVAHIK_clean_linker_0, # of connection points: 2
#     Edge 11, Type (0, 0), BuildingBlock: UVAHIK_clean_linker_0, # of connection points: 2
#     Edge 12, Type (0, 0), BuildingBlock: UVAHIK_clean_linker_0, # of connection points: 2
#     Edge 13, Type (0, 0), BuildingBlock: UVAHIK_clean_linker_0, # of connection points: 2
#     Edge 14, Type (0, 0), BuildingBlock: UVAHIK_clean_linker_0, # of connection points: 2
#     Edge 15, Type (0, 0), BuildingBlock: UVAHIK_clean_linker_0, # of connection points: 2
#     Edge 16, Type (0, 0), BuildingBlock: UVAHIK_clean_linker_0, # of connection points: 2
#     Edge 17, Type (0, 0), BuildingBlock: UVAHIK_clean_linker_0, # of connection points: 2
#     Edge 18, Type (0, 0), BuildingBlock: UVAHIK_clean_linker_0, # of connection points: 2
#     Edge 19, Type (0, 0), BuildingBlock: UVAHIK_clean_linker_0, # of connection points: 2
#     Edge 20, Type (0, 0), BuildingBlock: UVAHIK_clean_linker_0, # of connection points: 2
#     Edge 21, Type (0, 0), BuildingBlock: UVAHIK_clean_linker_0, # of connection points: 2
#     Edge 22, Type (0, 0), BuildingBlock: UVAHIK_clean_linker_0, # of connection points: 2
#     Edge 23, Type (0, 0), BuildingBlock: UVAHIK_clean_linker_0, # of connection points: 2
# Relax obj value: 0.141
# Max RMSD: 0.143
# Mean RMSD: 0.143
data_MOF--net-dft--node1-TATPOV_clean_sbu_0--edge1-UVAHIK_clean_linker_0
_symmetry_space_group_name_H-M    P1
_symmetry_Int_Tables_number       1
_symmetry_cell_setting            triclinic
loop_
_symmetry_equiv_pos_as_xyz
'x, y, z'
_cell_length_a     43.724068
_cell_length_b     43.672401
_cell_length_c     52.606749
_cell_angle_alpha  90.24312
_cell_angle_beta   89.99056
_cell_angle_gamma 90.038686
loop_
_atom_site_label
_atom_site_type_symbol
_atom_site_fract_x
_atom_site_fract_y
_atom_site_fract_z
_atom_type_partial_charge
Zn0 Zn 0.20622 0.05533 0.17051 0.0
Zn1 Zn 0.26719 0.05114 0.17558 0.0
O2 O 0.25041 0.01829 0.20036 0.0
O3 O 0.20034 0.02296 0.19693 0.0
O4 O 0.31281 0.0475 0.17969 0.0
O5 O 0.21073 0.04423 0.13327 0.0
O6 O 0.26068 0.04117 0.13782 0.0
C7 C 0.22345 0.01028 0.20677 0.0
C8 C 0.2338 0.11169 0.18678 0.0
O9 O 0.25861 0.09656 0.18481 0.0
O10 O 0.20833 0.09913 0.18207 0.0
C11 C 0.32536 0.05025 0.20137 0.0
O12 O 0.30813 0.05565 0.22136 0.0
C13 C 0.23696 0.03933 0.12384 0.0
Zn14 Zn 0.99521 0.17133 0.60164 0.0
Zn15 Zn 0.00373 0.22642 0.62257 0.0
O16 O 0.04166 0.20305 0.63547 0.0
O17 O 0.0339 0.15731 0.61893 0.0
O18 O 0.00836 0.26886 0.63727 0.0
O19 O -0.00212 0.18902 0.56669 0.0
O20 O 0.0039 0.23466 0.58385 0.0
C21 C 0.0501 0.17536 0.63221 0.0
C22 C 0.94604 0.18812 0.63442 0.0
O23 O 0.96287 0.21159 0.63804 0.0
O24 O 0.95438 0.16743 0.61899 0.0
C25 C 0.00693 0.27414 0.66103 0.0
O26 O 0.0029 0.25114 0.6767 0.0
C27 C 0.00172 0.21757 0.56422 0.0
Zn28 Zn 0.77318 0.03644 0.18191 0.0
Zn29 Zn 0.71417 0.03607 0.18926 0.0
O30 O 0.72686 0.07915 0.20219 0.0
O31 O 0.77702 0.0749 0.20291 0.0
O32 O 0.66837 0.03558 0.19291 0.0
O33 O 0.76771 0.03936 0.14406 0.0
O34 O 0.7189 0.03004 0.15056 0.0
C35 C 0.75307 0.09015 0.20767 0.0
C36 C 0.7539 0.98467 0.21043 0.0
O37 O 0.72859 -0.00086 0.21084 0.0
O38 O 0.77634 0.99486 0.19787 0.0
C39 C 0.65414 0.03858 0.21384 0.0
O40 O 0.66976 0.04234 0.23495 0.0
C41 C 0.74131 0.03369 0.1354 0.0
Zn42 Zn 0.01499 0.71434 0.74314 0.0
Zn43 Zn 0.0113 0.65466 0.73443 0.0
O44 O 0.96915 0.66526 0.75084 0.0
O45 O 0.97408 0.71436 0.75986 0.0
O46 O 0.0092 0.60936 0.72748 0.0
O47 O 0.01869 0.7214 0.7051 0.0
O48 O 0.01515 0.67175 0.69851 0.0
C49 C 0.95836 0.69005 0.76013 0.0
C50 C 0.06417 0.6826 0.76609 0.0
O51 O 0.05155 0.65961 0.75532 0.0
O52 O 0.05226 0.70888 0.76442 0.0
C53 C 0.00883 0.58887 0.74455 0.0
O54 O 0.00925 0.59711 0.7686 0.0
C55 C 0.01798 0.6988 0.68991 0.0
Zn56 Zn 0.2184 0.94727 0.80965 0.0
Zn57 Zn 0.27948 0.95198 0.80713 0.0
O58 O 0.2642 0.98436 0.78128 0.0
O59 O 0.21405 0.97885 0.78243 0.0
O60 O 0.32532 0.95548 0.80512 0.0
O61 O 0.22041 0.95961 0.84679 0.0
O62 O 0.27055 0.96295 0.84434 0.0
C63 C 0.2376 0.99177 0.77352 0.0
C64 C 0.24712 0.8908 0.79564 0.0
O65 O 0.27165 0.90627 0.79833 0.0
O66 O 0.22131 0.90321 0.79911 0.0
C67 C 0.33945 0.95401 0.78403 0.0
O68 O 0.3237 0.95027 0.76297 0.0
C69 C 0.24596 0.96506 0.85723 0.0
Zn70 Zn 0.0011 0.28804 0.24934 0.0
Zn71 Zn -0.00228 0.34767 0.25816 0.0
O72 O 0.95502 0.33684 0.24284 0.0
O73 O 0.95961 0.28777 0.23367 0.0
O74 O 0.99549 0.39298 0.26512 0.0
O75 O 0.00617 0.28102 0.28727 0.0
O76 O 0.00291 0.33065 0.29399 0.0
C77 C 0.94387 0.31204 0.23384 0.0
C78 C 0.04951 0.31982 0.22527 0.0
O79 O 0.0373 0.34279 0.23637 0.0
O80 O 0.03759 0.29355 0.22714 0.0
C81 C -0.00307 0.41356 0.24815 0.0
O82 O -0.00043 0.40543 0.22417 0.0
C83 C 0.00604 0.3036 0.30249 0.0
Zn84 Zn 0.78623 0.96643 0.82344 0.0
Zn85 Zn 0.72763 0.96601 0.81346 0.0
O86 O 0.74159 0.9233 0.80075 0.0
O87 O 0.79169 0.92807 0.80249 0.0
O88 O 0.6821 0.96578 0.80802 0.0
O89 O 0.77839 0.96335 0.861 0.0
O90 O 0.72994 0.97182 0.85231 0.0
C91 C 0.76824 0.91265 0.79645 0.0
C92 C 0.76799 0.018 0.79406 0.0
O93 O 0.74292 0.00316 0.7926 0.0
O94 O 0.78974 0.00811 0.80758 0.0
C95 C 0.66894 0.96464 0.7865 0.0
O96 O 0.68562 0.96352 0.76574 0.0
C97 C 0.75137 0.96852 0.86846 0.0
Zn98 Zn 0.99087 0.83113 0.39177 0.0
Zn99 Zn -0.00216 0.77613 0.37042 0.0
O100 O 0.03469 0.79951 0.3554 0.0
O101 O 0.02797 0.84524 0.37227 0.0
O102 O 0.00101 0.7336 0.35565 0.0
O103 O -0.00357 0.81359 0.42653 0.0
O104 O 0.00104 0.76796 0.40906 0.0
C105 C 0.04318 0.82728 0.35814 0.0
C106 C 0.93927 0.81431 0.36176 0.0
O107 O 0.95586 0.79092 0.35718 0.0
O108 O 0.94872 0.83495 0.37678 0.0
C109 C 0.00043 0.72833 0.33187 0.0
O110 O -0.00156 0.75146 0.31607 0.0
C111 C 0.00044 0.78504 0.42878 0.0
C112 C 0.21353 0.02915 0.08124 0.0
C113 C 0.23983 0.03194 0.09644 0.0
C114 C 0.216 0.02286 0.05531 0.0
C115 C 0.26807 0.9913 0.0067 0.0
H116 H 0.21342 0.03327 0.96041 0.0
C117 C 0.27513 0.97791 0.89703 0.0
C118 C 0.24704 0.97384 0.88444 0.0
C119 C 0.27587 0.98602 0.92278 0.0
C120 C 0.22869 0.02121 0.97311 0.0
H121 H 0.28942 0.03004 0.09625 0.0
H122 H 0.29373 0.01929 0.05079 0.0
H123 H 0.21189 0.04546 0.0056 0.0
H124 H 0.19771 0.97514 0.88907 0.0
H125 H 0.19906 0.98914 0.93383 0.0
H126 H 0.28474 0.96696 0.97406 0.0
C127 C 0.27117 0.02171 0.05907 0.0
C128 C 0.2278 0.02816 -0.00099 0.0
C129 C 0.26871 0.028 0.0851 0.0
C130 C 0.21975 0.97814 0.89813 0.0
C131 C 0.22051 0.98636 0.92377 0.0
C132 C 0.26901 0.98439 0.98072 0.0
C133 C 0.24483 0.01926 0.04387 0.0
C134 C 0.24716 0.01299 0.01616 0.0
C135 C 0.24855 0.99042 0.93639 0.0
C136 C 0.24902 -0.00101 0.96371 0.0
H137 H 0.1909 0.03186 0.08936 0.0
H138 H 0.19524 0.02055 0.04424 0.0
H139 H 0.28309 0.97902 0.01944 0.0
H140 H 0.29657 0.97477 0.88703 0.0
H141 H 0.29782 0.98921 0.93197 0.0
C142 C 0.00561 0.26229 0.5343 0.0
C143 C 0.00455 0.23049 0.53836 0.0
C144 C 0.00868 0.27391 0.50964 0.0
C145 C 0.03539 0.25187 0.44574 0.0
H146 H 0.97948 0.31377 0.42091 0.0
C147 C 0.01296 0.26858 0.33954 0.0
C148 C 0.00918 0.2984 0.33015 0.0
C149 C 0.01534 0.26344 0.36562 0.0
C150 C 0.99562 0.29686 0.42766 0.0
H151 H 0.0059 0.18603 0.5197 0.0
H152 H 0.01127 0.20624 0.47708 0.0
H153 H 0.97848 0.29954 0.46581 0.0
H154 H 0.0052 0.3463 0.34084 0.0
H155 H 0.00952 0.33724 0.38649 0.0
H156 H 0.05222 0.2487 0.40768 0.0
C157 C 0.00998 0.2222 0.49286 0.0
C158 C 0.99503 0.28873 0.45336 0.0
C159 C 0.00665 0.21065 0.51732 0.0
C160 C 0.00805 0.32302 0.34746 0.0
C161 C 0.01038 0.31785 0.37361 0.0
C162 C 0.03605 0.26003 0.42016 0.0
C163 C 0.01114 0.25391 0.48873 0.0
C164 C 0.01436 0.26557 0.46246 0.0
C165 C 0.01402 0.28798 0.38296 0.0
C166 C 0.01563 0.28203 0.41068 0.0
H167 H 0.00402 0.27816 0.55012 0.0
H168 H 0.00954 0.29847 0.50694 0.0
H169 H 0.05096 0.23435 0.45237 0.0
H170 H 0.01384 0.24907 0.32678 0.0
H171 H 0.0176 0.24009 0.37221 0.0
C172 C 0.76539 0.95893 0.91362 0.0
C173 C 0.74532 0.97199 0.89591 0.0
C174 C 0.7616 0.96438 0.93955 0.0
C175 C 0.7082 0.99612 0.98821 0.0
H176 H 0.78395 0.00796 0.02523 0.0
C177 C 0.75811 0.04357 0.09096 0.0
C178 C 0.73718 0.03004 0.10772 0.0
C179 C 0.75627 0.03794 0.06491 0.0
C180 C 0.76251 0.00519 0.01518 0.0
H181 H 0.70491 0.00016 0.89142 0.0
H182 H 0.69891 0.01074 0.93677 0.0
H183 H 0.7857 0.99479 0.98061 0.0
H184 H 0.69723 0.00084 0.11039 0.0
H185 H 0.69464 0.98997 0.06484 0.0
H186 H 0.68511 0.00793 0.02281 0.0
C187 C 0.7172 0.99569 0.9307 0.0
C188 C 0.76352 -0.003 0.98959 0.0
C189 C 0.72069 0.98976 0.9047 0.0
C190 C 0.71363 0.01162 0.09784 0.0
C191 C 0.7121 0.00551 0.07174 0.0
C192 C 0.70719 0.0047 0.01387 0.0
C193 C 0.73803 0.98357 0.9484 0.0
C194 C 0.73643 0.99216 0.97576 0.0
C195 C 0.73384 0.0181 0.05502 0.0
C196 C 0.73438 0.00938 0.02766 0.0
H197 H 0.7843 0.94473 0.90741 0.0
H198 H 0.77753 0.95388 0.95264 0.0
H199 H 0.68688 0.99235 0.97821 0.0
H200 H 0.77622 0.05827 0.09801 0.0
H201 H 0.77282 0.0488 0.05257 0.0
C202 C 0.00607 0.74027 0.45844 0.0
C203 C 0.00514 0.77208 0.45443 0.0
C204 C 0.01063 0.72859 0.48291 0.0
C205 C 0.04125 0.75028 0.54576 0.0
H206 H 0.98598 0.68891 0.57256 0.0
C207 C 0.02373 0.73376 0.65266 0.0
C208 C 0.02005 0.70398 0.66217 0.0
C209 C 0.02502 0.73888 0.62653 0.0
C210 C 0.00195 0.70566 0.56524 0.0
H211 H 0.00842 0.81651 0.47298 0.0
H212 H 0.01634 0.7962 0.5153 0.0
H213 H 0.98282 0.7032 0.52775 0.0
H214 H 0.01516 0.65611 0.65162 0.0
H215 H 0.01754 0.66513 0.60587 0.0
H216 H 0.06003 0.75327 0.5832 0.0
C217 C 0.0138 0.78026 0.4996 0.0
C218 C 0.00013 0.71382 0.53959 0.0
C219 C 0.009 0.79188 0.47532 0.0
C220 C 0.01795 0.67936 0.64492 0.0
C221 C 0.01918 0.68451 0.61871 0.0
C222 C 0.04313 0.74209 0.5713 0.0
C223 C 0.01472 0.74854 0.50369 0.0
C224 C 0.01923 0.7368 0.5298 0.0
C225 C 0.02267 0.71435 0.60925 0.0
C226 C 0.02297 0.72029 0.58149 0.0
H227 H 0.00316 0.72443 0.44273 0.0
H228 H 0.01129 0.70402 0.48556 0.0
H229 H 0.05666 0.76765 0.53858 0.0
H230 H 0.02536 0.75326 0.66539 0.0
H231 H 0.02721 0.7622 0.61985 0.0
C232 C 0.37737 0.04166 0.18262 0.0
C233 C 0.35898 0.04748 0.20402 0.0
C234 C 0.40909 0.0392 0.18505 0.0
C235 C 0.47327 0.06086 0.22692 0.0
H236 H 0.51714 -0.00057 0.18795 0.0
C237 C 0.60395 0.04215 0.23694 0.0
C238 C 0.62026 0.03804 0.21415 0.0
C239 C 0.57193 0.04196 0.23698 0.0
C240 C 0.50525 0.01687 0.19881 0.0
H241 H 0.35954 0.05511 0.2448 0.0
H242 H 0.41493 0.05061 0.24903 0.0
H243 H 0.46151 0.00157 0.18566 0.0
H244 H 0.61566 0.03037 0.17353 0.0
H245 H 0.56006 0.0303 0.17359 0.0
H246 H 0.51709 0.07632 0.23988 0.0
C247 C 0.40481 0.04828 0.23033 0.0
C248 C 0.47337 0.0181 0.19749 0.0
C249 C 0.37304 0.0507 0.22792 0.0
C250 C 0.60386 0.03355 0.19145 0.0
C251 C 0.57194 0.0333 0.1915 0.0
C252 C 0.50519 0.05962 0.22825 0.0
C253 C 0.4232 0.04251 0.20892 0.0
C254 C 0.45701 0.04032 0.21131 0.0
C255 C 0.55557 0.03754 0.21423 0.0
C256 C 0.52157 0.03782 0.21399 0.0
H257 H 0.3673 0.03913 0.16392 0.0
H258 H 0.42261 0.0352 0.16811 0.0
H259 H 0.4614 0.07848 0.23758 0.0
H260 H 0.61588 0.0456 0.25477 0.0
H261 H 0.56 0.045 0.25485 0.0
C262 C 0.01173 0.33063 0.65385 0.0
C263 C 0.00885 0.30597 0.67077 0.0
C264 C 0.01282 0.36073 0.66291 0.0
C265 C 0.99241 0.4086 0.71846 0.0
H266 H 0.04657 0.4673 0.6865 0.0
C267 C 0.00801 0.53297 0.75572 0.0
C268 C 0.00885 0.55607 0.73719 0.0
C269 C 0.00864 0.50206 0.74858 0.0
C270 C 0.03113 0.45124 0.69549 0.0
H271 H 0.00515 0.29365 0.71056 0.0
H272 H 0.00742 0.34621 0.7264 0.0
H273 H 0.04704 0.4141 0.67242 0.0
H274 H 0.01072 0.56475 0.69662 0.0
H275 H 0.01165 0.51102 0.68426 0.0
H276 H 0.97648 0.4459 0.74151 0.0
C277 C 0.00842 0.34226 0.70608 0.0
C278 C 0.03138 0.42074 0.68741 0.0
C279 C 0.0073 0.31211 0.697 0.0
C280 C 0.01014 0.54758 0.71141 0.0
C281 C 0.01089 0.51675 0.7043 0.0
C282 C 0.99221 0.43914 0.7266 0.0
C283 C 0.01112 0.36694 0.68913 0.0
C284 C 0.0118 0.39909 0.6986 0.0
C285 C 0.01028 0.49362 0.72278 0.0
C286 C 0.01135 0.46087 0.71501 0.0
H287 H 0.01286 0.32676 0.63352 0.0
H288 H 0.01444 0.37918 0.64929 0.0
H289 H 0.97677 0.39261 0.72729 0.0
H290 H 0.00703 0.53873 0.77574 0.0
H291 H 0.00837 0.48477 0.76328 0.0
C292 C 0.61992 0.96197 0.76163 0.0
C293 C 0.6351 0.9642 0.78512 0.0
C294 C 0.58793 0.96104 0.7606 0.0
C295 C 0.52049 0.9433 0.80031 0.0
H296 H 0.47566 0.98891 0.7494 0.0
C297 C 0.39006 0.95901 0.80598 0.0
C298 C 0.37326 0.95592 0.78333 0.0
C299 C 0.42197 0.96016 0.80545 0.0
C300 C 0.48787 0.97579 0.76356 0.0
H301 H 0.62851 0.96772 0.82594 0.0
H302 H 0.57298 0.96642 0.8241 0.0
H303 H 0.53151 0.99058 0.7497 0.0
H304 H 0.37688 0.95195 0.74231 0.0
H305 H 0.43268 0.95377 0.74144 0.0
H306 H 0.47698 0.92858 0.81425 0.0
C307 C 0.58572 0.96487 0.80648 0.0
C308 C 0.51986 0.97672 0.76372 0.0
C309 C 0.6176 0.96579 0.80751 0.0
C310 C 0.38912 0.95434 0.76011 0.0
C311 C 0.42109 0.95555 0.75958 0.0
C312 C 0.48858 0.94239 0.80017 0.0
C313 C 0.57049 0.96228 0.78305 0.0
C314 C 0.53653 0.96066 0.78223 0.0
C315 C 0.43788 0.95827 0.78227 0.0
C316 C 0.47187 0.95879 0.78192 0.0
H317 H 0.63272 0.96069 0.74403 0.0
H318 H 0.5769 0.95879 0.74226 0.0
H319 H 0.53263 0.93016 0.81451 0.0
H320 H 0.37858 0.96043 0.82419 0.0
H321 H 0.4342 0.96274 0.82324 0.0
C322 C 0.99488 0.45471 0.28138 0.0
C323 C -0.00368 0.44632 0.25558 0.0
C324 C 0.99474 0.48551 0.2886 0.0
C325 C 0.01501 0.56292 0.26598 0.0
H326 H 0.96359 0.58885 0.32214 0.0
C327 C 0.00056 0.6902 0.29598 0.0
C328 C 0.00072 0.69639 0.32224 0.0
C329 C -0.00012 0.65999 0.28701 0.0
C330 C 0.97829 0.58192 0.30658 0.0
H331 H -0.00142 0.46383 0.2171 0.0
H332 H -0.00205 0.51772 0.22973 0.0
H333 H 0.96201 0.53578 0.30781 0.0
H334 H 0.00071 0.6756 0.35964 0.0
H335 H -0.00034 0.62306 0.344 0.0
H336 H 0.03123 0.60922 0.26481 0.0
C337 C -0.00267 0.50039 0.24439 0.0
C338 C 0.9774 0.55149 0.29836 0.0
C339 C -0.00249 0.46951 0.23714 0.0
C340 C 0.0005 0.67169 0.3393 0.0
C341 C -0.0003 0.64155 0.33033 0.0
C342 C 0.01583 0.59344 0.27418 0.0
C343 C 0.99594 0.50876 0.27022 0.0
C344 C 0.99597 0.54152 0.27813 0.0
C345 C -0.00081 0.63533 0.3041 0.0
C346 C -0.00231 0.60321 0.29473 0.0
H347 H 0.99408 0.43748 0.29611 0.0
H348 H 0.99416 0.49109 0.30868 0.0
H349 H 0.02988 0.55595 0.25055 0.0
H350 H 0.0007 0.70869 0.28232 0.0
H351 H -0.00071 0.65596 0.26669 0.0
C352 C 0.10424 0.33584 0.22641 0.0
C353 C 0.07994 0.32179 0.21337 0.0
C354 C 0.13451 0.32785 0.22064 0.0
C355 C 0.1821 0.27747 0.1781 0.0
H356 H 0.20985 0.24379 0.24211 0.0
C357 C 0.2511 0.16583 0.1807 0.0
C358 C 0.23383 0.1442 0.1942 0.0
C359 C 0.24538 0.19723 0.18397 0.0
C360 C 0.20295 0.25349 0.22408 0.0
H361 H 0.06798 0.29183 0.18207 0.0
H362 H 0.12026 0.27828 0.17171 0.0
H363 H 0.17414 0.28638 0.24221 0.0
H364 H 0.19901 0.13793 0.22291 0.0
H365 H 0.18963 0.19227 0.2292 0.0
H366 H 0.20861 0.24236 0.16009 0.0
C367 C 0.11648 0.29527 0.18644 0.0
C368 C 0.18263 0.27815 0.22409 0.0
C369 C 0.08637 0.30293 0.19241 0.0
C370 C 0.21266 0.15426 0.21238 0.0
C371 C 0.20746 0.18542 0.21606 0.0
C372 C 0.20245 0.25276 0.17811 0.0
C373 C 0.14079 0.30598 0.20159 0.0
C374 C 0.1703 0.28899 0.20112 0.0
C375 C 0.22286 0.20725 0.20121 0.0
C376 C 0.21137 0.23923 0.20114 0.0
H377 H 0.09982 0.35036 0.24275 0.0
H378 H 0.15277 0.33679 0.23244 0.0
H379 H 0.17346 0.28569 0.16008 0.0
H380 H 0.26734 0.15846 0.16638 0.0
H381 H 0.2575 0.21355 0.17223 0.0
C382 C 0.9137 0.19864 0.67287 0.0
C383 C 0.9179 0.18345 0.64953 0.0
C384 C 0.88969 0.19022 0.68901 0.0
C385 C 0.85861 0.14542 0.72485 0.0
H386 H 0.77701 0.12111 0.70409 0.0
C387 C 0.76651 0.04721 0.75336 0.0
C388 C 0.77289 0.04622 0.77945 0.0
C389 C 0.77743 0.07151 0.73861 0.0
C390 C 0.79974 0.12766 0.7102 0.0
H391 H 0.89879 0.14949 0.62382 0.0
H392 H 0.85698 0.13501 0.65186 0.0
H393 H 0.80894 0.15106 0.67522 0.0
H394 H 0.79271 0.07086 0.81119 0.0
H395 H 0.80996 0.11415 0.78596 0.0
H396 H 0.85083 0.12045 0.75886 0.0
C397 C 0.87218 0.15329 0.65778 0.0
C398 C 0.81791 0.14499 0.69371 0.0
C399 C 0.89633 0.1614 0.64181 0.0
C400 C 0.78788 0.07103 0.79098 0.0
C401 C 0.79802 0.09566 0.77644 0.0
C402 C 0.8407 0.12782 0.74114 0.0
C403 C 0.86926 0.16681 0.68191 0.0
C404 C 0.84781 0.15341 0.70067 0.0
C405 C 0.79436 0.09552 0.74986 0.0
C406 C 0.81126 0.11803 0.73385 0.0
H407 H 0.92988 0.21579 0.67929 0.0
H408 H 0.88782 0.20116 0.70746 0.0
H409 H 0.88174 0.15108 0.7306 0.0
H410 H 0.75511 0.02818 0.74408 0.0
H411 H 0.77427 0.07035 0.71823 0.0
C412 C 0.90382 0.80335 0.32533 0.0
C413 C 0.91002 0.81894 0.34818 0.0
C414 C 0.87864 0.81166 0.31045 0.0
C415 C 0.80718 0.85783 0.30917 0.0
H416 H 0.83493 0.88009 0.24181 0.0
C417 C 0.75394 0.95598 0.25132 0.0
C418 C 0.75816 0.95632 0.22492 0.0
C419 C 0.76506 0.93147 0.2657 0.0
C420 C 0.82619 0.87336 0.26021 0.0
H421 H 0.89328 0.85351 0.37444 0.0
H422 H 0.84947 0.86785 0.3486 0.0
H423 H 0.86755 0.84953 0.26871 0.0
H424 H 0.77435 0.93054 0.19242 0.0
H425 H 0.79188 0.8869 0.21712 0.0
H426 H 0.76602 0.88239 0.30083 0.0
C427 C 0.864 0.84932 0.34209 0.0
C428 C 0.84509 0.85579 0.27571 0.0
C429 C 0.88929 0.84129 0.35679 0.0
C430 C 0.7711 0.93077 0.21284 0.0
C431 C 0.78144 0.90596 0.22707 0.0
C432 C 0.78801 0.87517 0.2935 0.0
C433 C 0.85902 0.83539 0.31835 0.0
C434 C 0.83625 0.84865 0.30063 0.0
C435 C 0.78009 0.90668 0.2538 0.0
C436 C 0.79769 0.884 0.26907 0.0
H437 H 0.9193 0.78595 0.31824 0.0
H438 H 0.87519 0.80038 0.2923 0.0
H439 H 0.79968 0.85241 0.32825 0.0
H440 H 0.74422 0.97565 0.26099 0.0
H441 H 0.76373 0.93308 0.28621 0.0
C442 C 0.11867 0.66589 0.76406 0.0
C443 C 0.09496 0.6806 0.77733 0.0
C444 C 0.14922 0.67362 0.76909 0.0
C445 C 0.19791 0.72245 0.76366 0.0
H446 H 0.22527 0.7609 0.82618 0.0
C447 C 0.22694 0.84677 0.77118 0.0
C448 C 0.24787 0.85802 0.78908 0.0
C449 C 0.22234 0.81539 0.7684 0.0
C450 C 0.21876 0.74974 0.80856 0.0
H451 H 0.08434 0.71142 0.80838 0.0
H452 H 0.13704 0.72459 0.8174 0.0
H453 H 0.19027 0.7175 0.82798 0.0
H454 H 0.28173 0.8456 0.81722 0.0
H455 H 0.27298 0.79013 0.81292 0.0
H456 H 0.22472 0.75604 0.74422 0.0
C457 C 0.13263 0.70728 0.80306 0.0
C458 C 0.19847 0.72499 0.8096 0.0
C459 C 0.10226 0.69986 0.79784 0.0
C460 C 0.26562 0.83732 0.80312 0.0
C461 C 0.26053 0.8057 0.80074 0.0
C462 C 0.21824 0.74709 0.76264 0.0
C463 C 0.15635 0.6959 0.7876 0.0
C464 C 0.18605 0.7126 0.78711 0.0
C465 C 0.23814 0.79451 0.78386 0.0
C466 C 0.22706 0.76238 0.78502 0.0
H467 H 0.11359 0.65101 0.74807 0.0
H468 H 0.167 0.66412 0.75708 0.0
H469 H 0.18901 0.7135 0.74591 0.0
H470 H 0.21295 0.86236 0.76021 0.0
H471 H 0.2046 0.80767 0.7555 0.0
C472 C 0.75371 0.85717 0.79443 0.0
C473 C 0.77257 0.88136 0.78642 0.0
C474 C 0.76188 0.82676 0.78912 0.0
C475 C 0.81364 0.77805 0.75045 0.0
H476 H 0.82908 0.73422 0.81309 0.0
C477 C 0.91902 0.71106 0.78916 0.0
C478 C 0.92619 0.69263 0.7681 0.0
C479 C 0.88958 0.72277 0.79222 0.0
C480 C 0.82436 0.74577 0.79534 0.0
H481 H 0.81319 0.89308 0.76501 0.0
H482 H 0.82692 0.84036 0.75513 0.0
H483 H 0.79565 0.77904 0.8135 0.0
H484 H 0.90783 0.6697 0.73489 0.0
H485 H 0.85614 0.69066 0.73997 0.0
H486 H 0.84416 0.74635 0.73263 0.0
C487 C 0.80604 0.84464 0.76565 0.0
C488 C 0.80508 0.77134 0.79554 0.0
C489 C 0.7983 0.87484 0.77142 0.0
C490 C 0.90273 0.68361 0.75146 0.0
C491 C 0.87326 0.69582 0.75424 0.0
C492 C 0.83268 0.75236 0.7502 0.0
C493 C 0.78855 0.82023 0.77518 0.0
C494 C 0.80091 0.78867 0.77336 0.0
C495 C 0.86686 0.71675 0.77396 0.0
C496 C 0.83957 0.73697 0.77292 0.0
H497 H 0.73386 0.86164 0.8062 0.0
H498 H 0.74805 0.80835 0.79671 0.0
H499 H 0.8106 0.79088 0.73305 0.0
H500 H 0.93683 0.71847 0.80214 0.0
H501 H 0.88556 0.73898 0.80749 0.0
C502 C 0.2294 0.95683 0.22296 0.0
C503 C 0.21836 0.98677 0.22619 0.0
C504 C 0.21972 0.93349 0.23936 0.0
C505 C 0.16878 0.89227 0.26353 0.0
H506 H 0.16586 0.90329 0.33666 0.0
C507 C 0.08029 0.86939 0.34959 0.0
C508 C 0.07068 0.83917 0.34496 0.0
C509 C 0.10544 0.88153 0.33691 0.0
C510 C 0.16652 0.89977 0.31627 0.0
H511 H 0.19009 0.01642 0.24937 0.0
H512 H 0.17428 0.97614 0.27859 0.0
H513 H 0.19874 0.9362 0.31109 0.0
H514 H 0.08052 0.79773 0.3236 0.0
H515 H 0.12485 0.81913 0.30128 0.0
H516 H 0.13471 0.85752 0.2684 0.0
C517 C 0.19006 0.97049 0.2634 0.0
C518 C 0.18552 0.91846 0.30171 0.0
C519 C 0.199 0.99348 0.2467 0.0
C520 C 0.08729 0.82113 0.32756 0.0
C521 C 0.11262 0.83339 0.31474 0.0
C522 C 0.14942 0.87376 0.27809 0.0
C523 C 0.19966 0.94016 0.25952 0.0
C524 C 0.1859 0.91567 0.27514 0.0
C525 C 0.12188 0.86382 0.31923 0.0
C526 C 0.14707 0.87827 0.30451 0.0
H527 H 0.24406 0.95119 0.20702 0.0
H528 H 0.22726 0.91021 0.23597 0.0
H529 H 0.16854 0.88985 0.24302 0.0
H530 H 0.06811 0.88402 0.36283 0.0
H531 H 0.11138 0.90525 0.34044 0.0
C532 C 0.08857 0.13384 0.6381 0.0
C533 C 0.07871 0.16372 0.64377 0.0
C534 C 0.11478 0.12192 0.64936 0.0
C535 C 0.17746 0.10444 0.66709 0.0
H536 H 0.18305 0.11209 0.74038 0.0
C537 C 0.2148 0.00899 0.73306 0.0
C538 C 0.23332 0.01548 0.75414 0.0
C539 C 0.20559 0.03236 0.71683 0.0
C540 C 0.18234 0.11033 0.71984 0.0
H541 H 0.08922 0.2048 0.66539 0.0
H542 H 0.13534 0.18376 0.68524 0.0
H543 H 0.14746 0.14453 0.71698 0.0
H544 H 0.25753 0.05105 0.77467 0.0
H545 H 0.24037 0.09259 0.74652 0.0
H546 H 0.21061 0.06856 0.67027 0.0
C547 C 0.12251 0.16961 0.67207 0.0
C548 C 0.16194 0.1289 0.70641 0.0
C549 C 0.09615 0.18166 0.66067 0.0
C550 C 0.24355 0.04557 0.75826 0.0
C551 C 0.23364 0.06924 0.74232 0.0
C552 C 0.19757 0.0857 0.68052 0.0
C553 C 0.13201 0.1395 0.66661 0.0
C554 C 0.15827 0.12516 0.68001 0.0
C555 C 0.21409 0.06284 0.72174 0.0
C556 C 0.19925 0.08761 0.70712 0.0
H557 H 0.07579 0.11932 0.62517 0.0
H558 H 0.12094 0.09843 0.64511 0.0
H559 H 0.17576 0.10154 0.64668 0.0
H560 H 0.20648 0.98594 0.7297 0.0
H561 H 0.19021 0.02683 0.70133 0.0
C562 C 0.90324 0.29022 0.20646 0.0
C563 C 0.91137 0.30943 0.22679 0.0
C564 C 0.87353 0.27884 0.2044 0.0
C565 C 0.81701 0.25242 0.24848 0.0
H566 H 0.77881 0.2226 0.18665 0.0
C567 C 0.73782 0.14546 0.20792 0.0
C568 C 0.75651 0.12182 0.21715 0.0
C569 C 0.7457 0.17615 0.21235 0.0
C570 C 0.78853 0.2312 0.20422 0.0
H571 H 0.89442 0.33409 0.25966 0.0
H572 H 0.84225 0.31378 0.25632 0.0
H573 H 0.81267 0.26701 0.18499 0.0
H574 H 0.79634 0.11145 0.23999 0.0
H575 H 0.80963 0.16464 0.24824 0.0
H576 H 0.79462 0.21527 0.26738 0.0
C577 C 0.85884 0.30769 0.24187 0.0
C578 C 0.8081 0.25653 0.20322 0.0
C579 C 0.88858 0.31953 0.24366 0.0
C580 C 0.78159 0.12925 0.23262 0.0
C581 C 0.78907 0.15976 0.23747 0.0
C582 C 0.7976 0.22701 0.24945 0.0
C583 C 0.85147 0.28602 0.22294 0.0
C584 C 0.82382 0.26636 0.2251 0.0
C585 C 0.77195 0.18356 0.22657 0.0
C586 C 0.78448 0.21517 0.22709 0.0
H587 H 0.92049 0.28201 0.1933 0.0
H588 H 0.8688 0.26205 0.18971 0.0
H589 H 0.82882 0.25926 0.26569 0.0
H590 H 0.71846 0.14029 0.19579 0.0
H591 H 0.73209 0.19406 0.20376 0.0
loop_
_geom_bond_atom_site_label_1
_geom_bond_atom_site_label_2
_geom_bond_distance
_geom_bond_site_symmetry_2
_ccdc_geom_bond_type
Zn0 O3 2.031 . S
Zn0 O5 2.049 1_565 S
Zn0 O10 2.067 1_565 S
Zn1 O2 1.962 . S
Zn1 O4 1.984 1_565 S
Zn1 O6 1.996 . S
Zn1 O9 1.943 1_565 S
O2 Zn1 1.962 . S
O2 C7 1.254 . S
O3 Zn0 2.031 . S
O3 C7 1.269 . S
O4 Zn1 1.984 1_545 S
O4 C11 1.262 . S
O5 Zn0 2.049 1_545 S
O5 C13 1.260 . S
O6 Zn1 1.996 . S
O6 C13 1.257 1_565 S
C7 O2 1.254 . S
C7 O3 1.269 . S
C8 O9 1.249 . S
C8 O10 1.270 . S
O9 Zn1 1.943 1_545 S
O9 C8 1.249 . S
O10 Zn0 2.067 1_545 S
O10 C8 1.270 . S
C11 O4 1.262 . S
C11 O12 1.230 1_545 S
O12 C11 1.230 1_565 S
C13 O5 1.260 . S
C13 O6 1.257 1_545 S
Zn14 O17 2.031 . S
Zn14 O19 2.042 1_455 S
Zn14 O24 2.067 1_455 S
Zn15 O16 1.962 . S
Zn15 O18 1.986 . S
Zn15 O20 1.996 . S
Zn15 O23 1.943 1_455 S
O16 Zn15 1.962 . S
O16 C21 1.254 . S
O17 Zn14 2.031 . S
O17 C21 1.269 . S
O18 Zn15 1.986 . S
O18 C25 1.262 . S
O19 Zn14 2.042 1_655 S
O19 C27 1.256 1_655 S
O20 Zn15 1.996 . S
O20 C27 1.257 . S
C21 O16 1.254 . S
C21 O17 1.269 . S
C22 O23 1.249 . S
C22 O24 1.270 . S
O23 Zn15 1.943 1_655 S
O23 C22 1.249 . S
O24 Zn14 2.067 1_655 S
O24 C22 1.270 . S
C25 O18 1.262 . S
C25 O26 1.232 . S
O26 C25 1.232 . S
C27 O19 1.256 1_455 S
C27 O20 1.257 . S
Zn28 O31 2.031 . S
Zn28 O33 2.042 1_545 S
Zn28 O38 2.067 1_545 S
Zn29 O30 1.962 . S
Zn29 O32 1.986 . S
Zn29 O34 1.996 . S
Zn29 O37 1.943 1_545 S
O30 Zn29 1.962 . S
O30 C35 1.254 . S
O31 Zn28 2.031 . S
O31 C35 1.269 . S
O32 Zn29 1.986 . S
O32 C39 1.262 . S
O33 Zn28 2.042 1_565 S
O33 C41 1.256 1_565 S
O34 Zn29 1.996 . S
O34 C41 1.257 . S
C35 O30 1.254 . S
C35 O31 1.269 . S
C36 O37 1.249 . S
C36 O38 1.270 . S
O37 Zn29 1.943 1_565 S
O37 C36 1.249 . S
O38 Zn28 2.067 1_565 S
O38 C36 1.270 . S
C39 O32 1.262 . S
C39 O40 1.232 . S
O40 C39 1.232 . S
C41 O33 1.256 1_545 S
C41 O34 1.257 . S
Zn42 O45 2.031 . S
Zn42 O47 2.049 1_655 S
Zn42 O52 2.067 1_655 S
Zn43 O44 1.962 . S
Zn43 O46 1.984 1_655 S
Zn43 O48 1.996 . S
Zn43 O51 1.943 1_655 S
O44 Zn43 1.962 . S
O44 C49 1.254 . S
O45 Zn42 2.031 . S
O45 C49 1.269 . S
O46 Zn43 1.984 1_455 S
O46 C53 1.262 . S
O47 Zn42 2.049 1_455 S
O47 C55 1.260 . S
O48 Zn43 1.996 . S
O48 C55 1.257 1_655 S
C49 O44 1.254 . S
C49 O45 1.269 . S
C50 O51 1.249 . S
C50 O52 1.270 . S
O51 Zn43 1.943 1_455 S
O51 C50 1.249 . S
O52 Zn42 2.067 1_455 S
O52 C50 1.270 . S
C53 O46 1.262 . S
C53 O54 1.230 1_455 S
O54 C53 1.230 1_655 S
C55 O47 1.260 . S
C55 O48 1.257 1_455 S
Zn56 O59 2.031 . S
Zn56 O61 2.042 1_545 S
Zn56 O66 2.067 1_545 S
Zn57 O58 1.962 . S
Zn57 O60 1.986 . S
Zn57 O62 1.996 . S
Zn57 O65 1.943 1_545 S
O58 Zn57 1.962 . S
O58 C63 1.254 . S
O59 Zn56 2.031 . S
O59 C63 1.269 . S
O60 Zn57 1.986 . S
O60 C67 1.262 . S
O61 Zn56 2.042 1_565 S
O61 C69 1.256 1_565 S
O62 Zn57 1.996 . S
O62 C69 1.257 . S
C63 O58 1.254 . S
C63 O59 1.269 . S
C64 O65 1.249 . S
C64 O66 1.270 . S
O65 Zn57 1.943 1_565 S
O65 C64 1.249 . S
O66 Zn56 2.067 1_565 S
O66 C64 1.270 . S
C67 O60 1.262 . S
C67 O68 1.232 . S
O68 C67 1.232 . S
C69 O61 1.256 1_545 S
C69 O62 1.257 . S
Zn70 O73 2.031 . S
Zn70 O75 2.049 1_655 S
Zn70 O80 2.067 1_655 S
Zn71 O72 1.962 . S
Zn71 O74 1.984 1_655 S
Zn71 O76 1.996 . S
Zn71 O79 1.943 1_655 S
O72 Zn71 1.962 . S
O72 C77 1.254 . S
O73 Zn70 2.031 . S
O73 C77 1.269 . S
O74 Zn71 1.984 1_455 S
O74 C81 1.262 . S
O75 Zn70 2.049 1_455 S
O75 C83 1.260 . S
O76 Zn71 1.996 . S
O76 C83 1.257 1_655 S
C77 O72 1.254 . S
C77 O73 1.269 . S
C78 O79 1.249 . S
C78 O80 1.270 . S
O79 Zn71 1.943 1_455 S
O79 C78 1.249 . S
O80 Zn70 2.067 1_455 S
O80 C78 1.270 . S
C81 O74 1.262 . S
C81 O82 1.230 1_455 S
O82 C81 1.230 1_655 S
C83 O75 1.260 . S
C83 O76 1.257 1_455 S
Zn84 O87 2.031 . S
Zn84 O89 2.049 1_565 S
Zn84 O94 2.067 1_565 S
Zn85 O86 1.962 . S
Zn85 O88 1.984 1_565 S
Zn85 O90 1.996 . S
Zn85 O93 1.943 1_565 S
O86 Zn85 1.962 . S
O86 C91 1.254 . S
O87 Zn84 2.031 . S
O87 C91 1.269 . S
O88 Zn85 1.984 1_545 S
O88 C95 1.262 . S
O89 Zn84 2.049 1_545 S
O89 C97 1.260 . S
O90 Zn85 1.996 . S
O90 C97 1.257 1_565 S
C91 O86 1.254 . S
C91 O87 1.269 . S
C92 O93 1.249 . S
C92 O94 1.270 . S
O93 Zn85 1.943 1_545 S
O93 C92 1.249 . S
O94 Zn84 2.067 1_545 S
O94 C92 1.270 . S
C95 O88 1.262 . S
C95 O96 1.230 1_545 S
O96 C95 1.230 1_565 S
C97 O89 1.260 . S
C97 O90 1.257 1_545 S
Zn98 O101 2.031 . S
Zn98 O103 2.042 1_455 S
Zn98 O108 2.067 1_455 S
Zn99 O100 1.962 . S
Zn99 O102 1.986 . S
Zn99 O104 1.996 . S
Zn99 O107 1.943 1_455 S
O100 Zn99 1.962 . S
O100 C105 1.254 . S
O101 Zn98 2.031 . S
O101 C105 1.269 . S
O102 Zn99 1.986 . S
O102 C109 1.262 . S
O103 Zn98 2.042 1_655 S
O103 C111 1.256 1_655 S
O104 Zn99 1.996 . S
O104 C111 1.257 . S
C105 O100 1.254 . S
C105 O101 1.269 . S
C106 O107 1.249 . S
C106 O108 1.270 . S
O107 Zn99 1.943 1_655 S
O107 C106 1.249 . S
O108 Zn98 2.067 1_655 S
O108 C106 1.270 . S
C109 O102 1.262 . S
C109 O110 1.232 . S
O110 C109 1.232 . S
C111 O103 1.256 1_455 S
C111 O104 1.257 . S
C112 C113 1.349 1_565 S
C112 C114 1.327 . S
C112 H137 0.950 . S
C113 C112 1.349 1_545 S
C113 C129 1.349 . S
C114 C112 1.327 . S
C114 C133 1.429 1_565 S
C114 H138 0.950 . S
C115 C132 1.574 1_554 S
C115 C134 1.368 . S
C115 H139 0.949 . S
H116 C120 0.949 . S
C117 C118 1.349 . S
C117 C119 1.327 . S
C117 H140 0.950 . S
C118 C117 1.349 . S
C118 C130 1.349 1_545 S
C119 C117 1.327 . S
C119 C135 1.429 . S
C119 H141 0.950 . S
C120 H116 0.949 . S
C120 C128 1.574 1_556 S
C120 C136 1.368 1_565 S
H121 C129 0.950 . S
H122 C127 0.950 . S
H123 C128 0.949 . S
H124 C130 0.950 . S
H125 C131 0.950 . S
H126 C132 0.949 . S
C127 H122 0.950 . S
C127 C129 1.327 . S
C127 C133 1.429 . S
C128 C120 1.574 1_554 S
C128 H123 0.949 . S
C128 C134 1.368 1_565 S
C129 C113 1.349 . S
C129 H121 0.950 . S
C129 C127 1.327 . S
C130 C118 1.349 1_565 S
C130 H124 0.950 . S
C130 C131 1.327 . S
C131 H125 0.950 . S
C131 C130 1.327 . S
C131 C135 1.429 1_565 S
C132 C115 1.574 1_556 S
C132 H126 0.949 . S
C132 C136 1.368 . S
C133 C114 1.429 1_545 S
C133 C127 1.429 . S
C133 C134 1.523 . S
C134 C115 1.368 . S
C134 C128 1.368 1_545 S
C134 C133 1.523 . S
C135 C119 1.429 . S
C135 C131 1.429 1_545 S
C135 C136 1.523 . S
C136 C120 1.368 1_545 S
C136 C132 1.368 . S
C136 C135 1.523 . S
H137 C112 0.950 . S
H138 C114 0.950 . S
H139 C115 0.949 . S
H140 C117 0.950 . S
H141 C119 0.950 . S
C142 C143 1.349 . S
C142 C144 1.327 . S
C142 H167 0.950 . S
C143 C142 1.349 . S
C143 C159 1.349 1_455 S
C144 C142 1.327 . S
C144 C163 1.429 . S
C144 H168 0.950 . S
C145 C162 1.574 . S
C145 C164 1.368 1_655 S
C145 H169 0.949 . S
H146 C150 0.949 . S
C147 C148 1.349 1_655 S
C147 C149 1.327 . S
C147 H170 0.950 . S
C148 C147 1.349 1_455 S
C148 C160 1.349 . S
C149 C147 1.327 . S
C149 C165 1.429 1_655 S
C149 H171 0.950 . S
C150 H146 0.949 . S
C150 C158 1.574 . S
C150 C166 1.368 . S
H151 C159 0.950 . S
H152 C157 0.950 . S
H153 C158 0.949 . S
H154 C160 0.950 . S
H155 C161 0.950 . S
H156 C162 0.949 . S
C157 H152 0.950 . S
C157 C159 1.327 . S
C157 C163 1.429 1_655 S
C158 C150 1.574 . S
C158 H153 0.949 . S
C158 C164 1.368 . S
C159 C143 1.349 1_655 S
C159 H151 0.950 . S
C159 C157 1.327 . S
C160 C148 1.349 . S
C160 H154 0.950 . S
C160 C161 1.327 . S
C161 H155 0.950 . S
C161 C160 1.327 . S
C161 C165 1.429 . S
C162 C145 1.574 . S
C162 H156 0.949 . S
C162 C166 1.368 1_655 S
C163 C144 1.429 . S
C163 C157 1.429 1_455 S
C163 C164 1.523 . S
C164 C145 1.368 1_455 S
C164 C158 1.368 . S
C164 C163 1.523 . S
C165 C149 1.429 1_455 S
C165 C161 1.429 . S
C165 C166 1.523 . S
C166 C150 1.368 . S
C166 C162 1.368 1_455 S
C166 C165 1.523 . S
H167 C142 0.950 . S
H168 C144 0.950 . S
H169 C145 0.949 . S
H170 C147 0.950 . S
H171 C149 0.950 . S
C172 C173 1.349 1_565 S
C172 C174 1.327 . S
C172 H197 0.950 . S
C173 C172 1.349 1_545 S
C173 C189 1.349 . S
C174 C172 1.327 . S
C174 C193 1.429 1_565 S
C174 H198 0.950 . S
C175 C192 1.574 1_556 S
C175 C194 1.368 . S
C175 H199 0.949 . S
H176 C180 0.949 . S
C177 C178 1.349 . S
C177 C179 1.327 . S
C177 H200 0.950 . S
C178 C177 1.349 . S
C178 C190 1.349 1_545 S
C179 C177 1.327 . S
C179 C195 1.429 . S
C179 H201 0.950 . S
C180 H176 0.949 . S
C180 C188 1.574 1_554 S
C180 C196 1.368 1_565 S
H181 C189 0.950 . S
H182 C187 0.950 . S
H183 C188 0.949 . S
H184 C190 0.950 . S
H185 C191 0.950 . S
H186 C192 0.949 . S
C187 H182 0.950 . S
C187 C189 1.327 . S
C187 C193 1.429 . S
C188 C180 1.574 1_556 S
C188 H183 0.949 . S
C188 C194 1.368 1_565 S
C189 C173 1.349 . S
C189 H181 0.950 . S
C189 C187 1.327 . S
C190 C178 1.349 1_565 S
C190 H184 0.950 . S
C190 C191 1.327 . S
C191 H185 0.950 . S
C191 C190 1.327 . S
C191 C195 1.429 1_565 S
C192 C175 1.574 1_554 S
C192 H186 0.949 . S
C192 C196 1.368 . S
C193 C174 1.429 1_545 S
C193 C187 1.429 . S
C193 C194 1.523 . S
C194 C175 1.368 . S
C194 C188 1.368 1_545 S
C194 C193 1.523 . S
C195 C179 1.429 . S
C195 C191 1.429 1_545 S
C195 C196 1.523 . S
C196 C180 1.368 1_545 S
C196 C192 1.368 . S
C196 C195 1.523 . S
H197 C172 0.950 . S
H198 C174 0.950 . S
H199 C175 0.949 . S
H200 C177 0.950 . S
H201 C179 0.950 . S
C202 C203 1.349 . S
C202 C204 1.327 . S
C202 H227 0.950 . S
C203 C202 1.349 . S
C203 C219 1.349 1_455 S
C204 C202 1.327 . S
C204 C223 1.429 . S
C204 H228 0.950 . S
C205 C222 1.574 . S
C205 C224 1.368 1_655 S
C205 H229 0.949 . S
H206 C210 0.949 . S
C207 C208 1.349 1_655 S
C207 C209 1.327 . S
C207 H230 0.950 . S
C208 C207 1.349 1_455 S
C208 C220 1.349 . S
C209 C207 1.327 . S
C209 C225 1.429 1_655 S
C209 H231 0.950 . S
C210 H206 0.949 . S
C210 C218 1.574 . S
C210 C226 1.368 . S
H211 C219 0.950 . S
H212 C217 0.950 . S
H213 C218 0.949 . S
H214 C220 0.950 . S
H215 C221 0.950 . S
H216 C222 0.949 . S
C217 H212 0.950 . S
C217 C219 1.327 . S
C217 C223 1.429 1_655 S
C218 C210 1.574 . S
C218 H213 0.949 . S
C218 C224 1.368 . S
C219 C203 1.349 1_655 S
C219 H211 0.950 . S
C219 C217 1.327 . S
C220 C208 1.349 . S
C220 H214 0.950 . S
C220 C221 1.327 . S
C221 H215 0.950 . S
C221 C220 1.327 . S
C221 C225 1.429 . S
C222 C205 1.574 . S
C222 H216 0.949 . S
C222 C226 1.368 1_655 S
C223 C204 1.429 . S
C223 C217 1.429 1_455 S
C223 C224 1.523 . S
C224 C205 1.368 1_455 S
C224 C218 1.368 . S
C224 C223 1.523 . S
C225 C209 1.429 1_455 S
C225 C221 1.429 . S
C225 C226 1.523 . S
C226 C210 1.368 . S
C226 C222 1.368 1_455 S
C226 C225 1.523 . S
H227 C202 0.950 . S
H228 C204 0.950 . S
H229 C205 0.949 . S
H230 C207 0.950 . S
H231 C209 0.950 . S
C232 C233 1.349 . S
C232 C234 1.327 . S
C232 H257 0.950 . S
C233 C232 1.349 . S
C233 C249 1.349 1_545 S
C234 C232 1.327 . S
C234 C253 1.429 . S
C234 H258 0.950 . S
C235 C252 1.574 . S
C235 C254 1.368 1_565 S
C235 H259 0.949 . S
H236 C240 0.949 . S
C237 C238 1.349 1_565 S
C237 C239 1.327 . S
C237 H260 0.950 . S
C238 C237 1.349 1_545 S
C238 C250 1.349 . S
C239 C237 1.327 . S
C239 C255 1.429 1_565 S
C239 H261 0.950 . S
C240 H236 0.949 . S
C240 C248 1.574 . S
C240 C256 1.368 . S
H241 C249 0.950 . S
H242 C247 0.950 . S
H243 C248 0.949 . S
H244 C250 0.950 . S
H245 C251 0.950 . S
H246 C252 0.949 . S
C247 H242 0.950 . S
C247 C249 1.327 . S
C247 C253 1.429 1_565 S
C248 C240 1.574 . S
C248 H243 0.949 . S
C248 C254 1.368 . S
C249 C233 1.349 1_565 S
C249 H241 0.950 . S
C249 C247 1.327 . S
C250 C238 1.349 . S
C250 H244 0.950 . S
C250 C251 1.327 . S
C251 H245 0.950 . S
C251 C250 1.327 . S
C251 C255 1.429 . S
C252 C235 1.574 . S
C252 H246 0.949 . S
C252 C256 1.368 1_565 S
C253 C234 1.429 . S
C253 C247 1.429 1_545 S
C253 C254 1.523 . S
C254 C235 1.368 1_545 S
C254 C248 1.368 . S
C254 C253 1.523 . S
C255 C239 1.429 1_545 S
C255 C251 1.429 . S
C255 C256 1.523 . S
C256 C240 1.368 . S
C256 C252 1.368 1_545 S
C256 C255 1.523 . S
H257 C232 0.950 . S
H258 C234 0.950 . S
H259 C235 0.949 . S
H260 C237 0.950 . S
H261 C239 0.950 . S
C262 C263 1.349 1_655 S
C262 C264 1.327 . S
C262 H287 0.950 . S
C263 C262 1.349 1_455 S
C263 C279 1.349 . S
C264 C262 1.327 . S
C264 C283 1.429 1_655 S
C264 H288 0.950 . S
C265 C282 1.574 . S
C265 C284 1.368 . S
C265 H289 0.949 . S
H266 C270 0.949 . S
C267 C268 1.349 . S
C267 C269 1.327 . S
C267 H290 0.950 . S
C268 C267 1.349 . S
C268 C280 1.349 1_455 S
C269 C267 1.327 . S
C269 C285 1.429 . S
C269 H291 0.950 . S
C270 H266 0.949 . S
C270 C278 1.574 . S
C270 C286 1.368 1_655 S
H271 C279 0.950 . S
H272 C277 0.950 . S
H273 C278 0.949 . S
H274 C280 0.950 . S
H275 C281 0.950 . S
H276 C282 0.949 . S
C277 H272 0.950 . S
C277 C279 1.327 . S
C277 C283 1.429 . S
C278 C270 1.574 . S
C278 H273 0.949 . S
C278 C284 1.368 1_655 S
C279 C263 1.349 . S
C279 H271 0.950 . S
C279 C277 1.327 . S
C280 C268 1.349 1_655 S
C280 H274 0.950 . S
C280 C281 1.327 . S
C281 H275 0.950 . S
C281 C280 1.327 . S
C281 C285 1.429 1_655 S
C282 C265 1.574 . S
C282 H276 0.949 . S
C282 C286 1.368 . S
C283 C264 1.429 1_455 S
C283 C277 1.429 . S
C283 C284 1.523 . S
C284 C265 1.368 . S
C284 C278 1.368 1_455 S
C284 C283 1.523 . S
C285 C269 1.429 . S
C285 C281 1.429 1_455 S
C285 C286 1.523 . S
C286 C270 1.368 1_455 S
C286 C282 1.368 . S
C286 C285 1.523 . S
H287 C262 0.950 . S
H288 C264 0.950 . S
H289 C265 0.949 . S
H290 C267 0.950 . S
H291 C269 0.950 . S
C292 C293 1.349 1_565 S
C292 C294 1.327 . S
C292 H317 0.950 . S
C293 C292 1.349 1_545 S
C293 C309 1.349 . S
C294 C292 1.327 . S
C294 C313 1.429 1_565 S
C294 H318 0.950 . S
C295 C312 1.574 . S
C295 C314 1.368 . S
C295 H319 0.949 . S
H296 C300 0.949 . S
C297 C298 1.349 . S
C297 C299 1.327 . S
C297 H320 0.950 . S
C298 C297 1.349 . S
C298 C310 1.349 1_545 S
C299 C297 1.327 . S
C299 C315 1.429 . S
C299 H321 0.950 . S
C300 H296 0.949 . S
C300 C308 1.574 . S
C300 C316 1.368 1_565 S
H301 C309 0.950 . S
H302 C307 0.950 . S
H303 C308 0.949 . S
H304 C310 0.950 . S
H305 C311 0.950 . S
H306 C312 0.949 . S
C307 H302 0.950 . S
C307 C309 1.327 . S
C307 C313 1.429 . S
C308 C300 1.574 . S
C308 H303 0.949 . S
C308 C314 1.368 1_565 S
C309 C293 1.349 . S
C309 H301 0.950 . S
C309 C307 1.327 . S
C310 C298 1.349 1_565 S
C310 H304 0.950 . S
C310 C311 1.327 . S
C311 H305 0.950 . S
C311 C310 1.327 . S
C311 C315 1.429 1_565 S
C312 C295 1.574 . S
C312 H306 0.949 . S
C312 C316 1.368 . S
C313 C294 1.429 1_545 S
C313 C307 1.429 . S
C313 C314 1.523 . S
C314 C295 1.368 . S
C314 C308 1.368 1_545 S
C314 C313 1.523 . S
C315 C299 1.429 . S
C315 C311 1.429 1_545 S
C315 C316 1.523 . S
C316 C300 1.368 1_545 S
C316 C312 1.368 . S
C316 C315 1.523 . S
H317 C292 0.950 . S
H318 C294 0.950 . S
H319 C295 0.949 . S
H320 C297 0.950 . S
H321 C299 0.950 . S
C322 C323 1.349 . S
C322 C324 1.327 . S
C322 H347 0.950 . S
C323 C322 1.349 . S
C323 C339 1.349 1_455 S
C324 C322 1.327 . S
C324 C343 1.429 . S
C324 H348 0.950 . S
C325 C342 1.574 . S
C325 C344 1.368 1_655 S
C325 H349 0.949 . S
H326 C330 0.949 . S
C327 C328 1.349 1_655 S
C327 C329 1.327 . S
C327 H350 0.950 . S
C328 C327 1.349 1_455 S
C328 C340 1.349 . S
C329 C327 1.327 . S
C329 C345 1.429 1_655 S
C329 H351 0.950 . S
C330 H326 0.949 . S
C330 C338 1.574 . S
C330 C346 1.368 . S
H331 C339 0.950 . S
H332 C337 0.950 . S
H333 C338 0.949 . S
H334 C340 0.950 . S
H335 C341 0.950 . S
H336 C342 0.949 . S
C337 H332 0.950 . S
C337 C339 1.327 . S
C337 C343 1.429 1_655 S
C338 C330 1.574 . S
C338 H333 0.949 . S
C338 C344 1.368 . S
C339 C323 1.349 1_655 S
C339 H331 0.950 . S
C339 C337 1.327 . S
C340 C328 1.349 . S
C340 H334 0.950 . S
C340 C341 1.327 . S
C341 H335 0.950 . S
C341 C340 1.327 . S
C341 C345 1.429 . S
C342 C325 1.574 . S
C342 H336 0.949 . S
C342 C346 1.368 1_655 S
C343 C324 1.429 . S
C343 C337 1.429 1_455 S
C343 C344 1.523 . S
C344 C325 1.368 1_455 S
C344 C338 1.368 . S
C344 C343 1.523 . S
C345 C329 1.429 1_455 S
C345 C341 1.429 . S
C345 C346 1.523 . S
C346 C330 1.368 . S
C346 C342 1.368 1_455 S
C346 C345 1.523 . S
H347 C322 0.950 . S
H348 C324 0.950 . S
H349 C325 0.949 . S
H350 C327 0.950 . S
H351 C329 0.950 . S
C352 C353 1.349 . S
C352 C354 1.327 . S
C352 H377 0.950 . S
C353 C352 1.349 . S
C353 C369 1.349 . S
C354 C352 1.327 . S
C354 C373 1.429 . S
C354 H378 0.950 . S
C355 C372 1.574 . S
C355 C374 1.368 . S
C355 H379 0.949 . S
H356 C360 0.949 . S
C357 C358 1.349 . S
C357 C359 1.327 . S
C357 H380 0.950 . S
C358 C357 1.349 . S
C358 C370 1.349 . S
C359 C357 1.327 . S
C359 C375 1.429 . S
C359 H381 0.950 . S
C360 H356 0.949 . S
C360 C368 1.574 . S
C360 C376 1.368 . S
H361 C369 0.950 . S
H362 C367 0.950 . S
H363 C368 0.949 . S
H364 C370 0.950 . S
H365 C371 0.950 . S
H366 C372 0.949 . S
C367 H362 0.950 . S
C367 C369 1.327 . S
C367 C373 1.429 . S
C368 C360 1.574 . S
C368 H363 0.949 . S
C368 C374 1.368 . S
C369 C353 1.349 . S
C369 H361 0.950 . S
C369 C367 1.327 . S
C370 C358 1.349 . S
C370 H364 0.950 . S
C370 C371 1.327 . S
C371 H365 0.950 . S
C371 C370 1.327 . S
C371 C375 1.429 . S
C372 C355 1.574 . S
C372 H366 0.949 . S
C372 C376 1.368 . S
C373 C354 1.429 . S
C373 C367 1.429 . S
C373 C374 1.523 . S
C374 C355 1.368 . S
C374 C368 1.368 . S
C374 C373 1.523 . S
C375 C359 1.429 . S
C375 C371 1.429 . S
C375 C376 1.523 . S
C376 C360 1.368 . S
C376 C372 1.368 . S
C376 C375 1.523 . S
H377 C352 0.950 . S
H378 C354 0.950 . S
H379 C355 0.949 . S
H380 C357 0.950 . S
H381 C359 0.950 . S
C382 C383 1.349 . S
C382 C384 1.327 . S
C382 H407 0.950 . S
C383 C382 1.349 . S
C383 C399 1.349 . S
C384 C382 1.327 . S
C384 C403 1.429 . S
C384 H408 0.950 . S
C385 C402 1.574 . S
C385 C404 1.368 . S
C385 H409 0.949 . S
H386 C390 0.949 . S
C387 C388 1.349 . S
C387 C389 1.327 . S
C387 H410 0.950 . S
C388 C387 1.349 . S
C388 C400 1.349 . S
C389 C387 1.327 . S
C389 C405 1.429 . S
C389 H411 0.950 . S
C390 H386 0.949 . S
C390 C398 1.574 . S
C390 C406 1.368 . S
H391 C399 0.950 . S
H392 C397 0.950 . S
H393 C398 0.949 . S
H394 C400 0.950 . S
H395 C401 0.950 . S
H396 C402 0.949 . S
C397 H392 0.950 . S
C397 C399 1.327 . S
C397 C403 1.429 . S
C398 C390 1.574 . S
C398 H393 0.949 . S
C398 C404 1.368 . S
C399 C383 1.349 . S
C399 H391 0.950 . S
C399 C397 1.327 . S
C400 C388 1.349 . S
C400 H394 0.950 . S
C400 C401 1.327 . S
C401 H395 0.950 . S
C401 C400 1.327 . S
C401 C405 1.429 . S
C402 C385 1.574 . S
C402 H396 0.949 . S
C402 C406 1.368 . S
C403 C384 1.429 . S
C403 C397 1.429 . S
C403 C404 1.523 . S
C404 C385 1.368 . S
C404 C398 1.368 . S
C404 C403 1.523 . S
C405 C389 1.429 . S
C405 C401 1.429 . S
C405 C406 1.523 . S
C406 C390 1.368 . S
C406 C402 1.368 . S
C406 C405 1.523 . S
H407 C382 0.950 . S
H408 C384 0.950 . S
H409 C385 0.949 . S
H410 C387 0.950 . S
H411 C389 0.950 . S
C412 C413 1.349 . S
C412 C414 1.327 . S
C412 H437 0.950 . S
C413 C412 1.349 . S
C413 C429 1.349 . S
C414 C412 1.327 . S
C414 C433 1.429 . S
C414 H438 0.950 . S
C415 C432 1.574 . S
C415 C434 1.368 . S
C415 H439 0.949 . S
H416 C420 0.949 . S
C417 C418 1.349 . S
C417 C419 1.327 . S
C417 H440 0.950 . S
C418 C417 1.349 . S
C418 C430 1.349 . S
C419 C417 1.327 . S
C419 C435 1.429 . S
C419 H441 0.950 . S
C420 H416 0.949 . S
C420 C428 1.574 . S
C420 C436 1.368 . S
H421 C429 0.950 . S
H422 C427 0.950 . S
H423 C428 0.949 . S
H424 C430 0.950 . S
H425 C431 0.950 . S
H426 C432 0.949 . S
C427 H422 0.950 . S
C427 C429 1.327 . S
C427 C433 1.429 . S
C428 C420 1.574 . S
C428 H423 0.949 . S
C428 C434 1.368 . S
C429 C413 1.349 . S
C429 H421 0.950 . S
C429 C427 1.327 . S
C430 C418 1.349 . S
C430 H424 0.950 . S
C430 C431 1.327 . S
C431 H425 0.950 . S
C431 C430 1.327 . S
C431 C435 1.429 . S
C432 C415 1.574 . S
C432 H426 0.949 . S
C432 C436 1.368 . S
C433 C414 1.429 . S
C433 C427 1.429 . S
C433 C434 1.523 . S
C434 C415 1.368 . S
C434 C428 1.368 . S
C434 C433 1.523 . S
C435 C419 1.429 . S
C435 C431 1.429 . S
C435 C436 1.523 . S
C436 C420 1.368 . S
C436 C432 1.368 . S
C436 C435 1.523 . S
H437 C412 0.950 . S
H438 C414 0.950 . S
H439 C415 0.949 . S
H440 C417 0.950 . S
H441 C419 0.950 . S
C442 C443 1.349 . S
C442 C444 1.327 . S
C442 H467 0.950 . S
C443 C442 1.349 . S
C443 C459 1.349 . S
C444 C442 1.327 . S
C444 C463 1.429 . S
C444 H468 0.950 . S
C445 C462 1.574 . S
C445 C464 1.368 . S
C445 H469 0.949 . S
H446 C450 0.949 . S
C447 C448 1.349 . S
C447 C449 1.327 . S
C447 H470 0.950 . S
C448 C447 1.349 . S
C448 C460 1.349 . S
C449 C447 1.327 . S
C449 C465 1.429 . S
C449 H471 0.950 . S
C450 H446 0.949 . S
C450 C458 1.574 . S
C450 C466 1.368 . S
H451 C459 0.950 . S
H452 C457 0.950 . S
H453 C458 0.949 . S
H454 C460 0.950 . S
H455 C461 0.950 . S
H456 C462 0.949 . S
C457 H452 0.950 . S
C457 C459 1.327 . S
C457 C463 1.429 . S
C458 C450 1.574 . S
C458 H453 0.949 . S
C458 C464 1.368 . S
C459 C443 1.349 . S
C459 H451 0.950 . S
C459 C457 1.327 . S
C460 C448 1.349 . S
C460 H454 0.950 . S
C460 C461 1.327 . S
C461 H455 0.950 . S
C461 C460 1.327 . S
C461 C465 1.429 . S
C462 C445 1.574 . S
C462 H456 0.949 . S
C462 C466 1.368 . S
C463 C444 1.429 . S
C463 C457 1.429 . S
C463 C464 1.523 . S
C464 C445 1.368 . S
C464 C458 1.368 . S
C464 C463 1.523 . S
C465 C449 1.429 . S
C465 C461 1.429 . S
C465 C466 1.523 . S
C466 C450 1.368 . S
C466 C462 1.368 . S
C466 C465 1.523 . S
H467 C442 0.950 . S
H468 C444 0.950 . S
H469 C445 0.949 . S
H470 C447 0.950 . S
H471 C449 0.950 . S
C472 C473 1.349 . S
C472 C474 1.327 . S
C472 H497 0.950 . S
C473 C472 1.349 . S
C473 C489 1.349 . S
C474 C472 1.327 . S
C474 C493 1.429 . S
C474 H498 0.950 . S
C475 C492 1.574 . S
C475 C494 1.368 . S
C475 H499 0.949 . S
H476 C480 0.949 . S
C477 C478 1.349 . S
C477 C479 1.327 . S
C477 H500 0.950 . S
C478 C477 1.349 . S
C478 C490 1.349 . S
C479 C477 1.327 . S
C479 C495 1.429 . S
C479 H501 0.950 . S
C480 H476 0.949 . S
C480 C488 1.574 . S
C480 C496 1.368 . S
H481 C489 0.950 . S
H482 C487 0.950 . S
H483 C488 0.949 . S
H484 C490 0.950 . S
H485 C491 0.950 . S
H486 C492 0.949 . S
C487 H482 0.950 . S
C487 C489 1.327 . S
C487 C493 1.429 . S
C488 C480 1.574 . S
C488 H483 0.949 . S
C488 C494 1.368 . S
C489 C473 1.349 . S
C489 H481 0.950 . S
C489 C487 1.327 . S
C490 C478 1.349 . S
C490 H484 0.950 . S
C490 C491 1.327 . S
C491 H485 0.950 . S
C491 C490 1.327 . S
C491 C495 1.429 . S
C492 C475 1.574 . S
C492 H486 0.949 . S
C492 C496 1.368 . S
C493 C474 1.429 . S
C493 C487 1.429 . S
C493 C494 1.523 . S
C494 C475 1.368 . S
C494 C488 1.368 . S
C494 C493 1.523 . S
C495 C479 1.429 . S
C495 C491 1.429 . S
C495 C496 1.523 . S
C496 C480 1.368 . S
C496 C492 1.368 . S
C496 C495 1.523 . S
H497 C472 0.950 . S
H498 C474 0.950 . S
H499 C475 0.949 . S
H500 C477 0.950 . S
H501 C479 0.950 . S
C502 C503 1.349 . S
C502 C504 1.327 . S
C502 H527 0.950 . S
C503 C502 1.349 . S
C503 C519 1.349 . S
C504 C502 1.327 . S
C504 C523 1.429 . S
C504 H528 0.950 . S
C505 C522 1.574 . S
C505 C524 1.368 . S
C505 H529 0.949 . S
H506 C510 0.949 . S
C507 C508 1.349 . S
C507 C509 1.327 . S
C507 H530 0.950 . S
C508 C507 1.349 . S
C508 C520 1.349 . S
C509 C507 1.327 . S
C509 C525 1.429 . S
C509 H531 0.950 . S
C510 H506 0.949 . S
C510 C518 1.574 . S
C510 C526 1.368 . S
H511 C519 0.950 . S
H512 C517 0.950 . S
H513 C518 0.949 . S
H514 C520 0.950 . S
H515 C521 0.950 . S
H516 C522 0.949 . S
C517 H512 0.950 . S
C517 C519 1.327 . S
C517 C523 1.429 . S
C518 C510 1.574 . S
C518 H513 0.949 . S
C518 C524 1.368 . S
C519 C503 1.349 . S
C519 H511 0.950 . S
C519 C517 1.327 . S
C520 C508 1.349 . S
C520 H514 0.950 . S
C520 C521 1.327 . S
C521 H515 0.950 . S
C521 C520 1.327 . S
C521 C525 1.429 . S
C522 C505 1.574 . S
C522 H516 0.949 . S
C522 C526 1.368 . S
C523 C504 1.429 . S
C523 C517 1.429 . S
C523 C524 1.523 . S
C524 C505 1.368 . S
C524 C518 1.368 . S
C524 C523 1.523 . S
C525 C509 1.429 . S
C525 C521 1.429 . S
C525 C526 1.523 . S
C526 C510 1.368 . S
C526 C522 1.368 . S
C526 C525 1.523 . S
H527 C502 0.950 . S
H528 C504 0.950 . S
H529 C505 0.949 . S
H530 C507 0.950 . S
H531 C509 0.950 . S
C532 C533 1.349 . S
C532 C534 1.327 . S
C532 H557 0.950 . S
C533 C532 1.349 . S
C533 C549 1.349 . S
C534 C532 1.327 . S
C534 C553 1.429 . S
C534 H558 0.950 . S
C535 C552 1.574 . S
C535 C554 1.368 . S
C535 H559 0.949 . S
H536 C540 0.949 . S
C537 C538 1.349 . S
C537 C539 1.327 . S
C537 H560 0.950 . S
C538 C537 1.349 . S
C538 C550 1.349 . S
C539 C537 1.327 . S
C539 C555 1.429 . S
C539 H561 0.950 . S
C540 H536 0.949 . S
C540 C548 1.574 . S
C540 C556 1.368 . S
H541 C549 0.950 . S
H542 C547 0.950 . S
H543 C548 0.949 . S
H544 C550 0.950 . S
H545 C551 0.950 . S
H546 C552 0.949 . S
C547 H542 0.950 . S
C547 C549 1.327 . S
C547 C553 1.429 . S
C548 C540 1.574 . S
C548 H543 0.949 . S
C548 C554 1.368 . S
C549 C533 1.349 . S
C549 H541 0.950 . S
C549 C547 1.327 . S
C550 C538 1.349 . S
C550 H544 0.950 . S
C550 C551 1.327 . S
C551 H545 0.950 . S
C551 C550 1.327 . S
C551 C555 1.429 . S
C552 C535 1.574 . S
C552 H546 0.949 . S
C552 C556 1.368 . S
C553 C534 1.429 . S
C553 C547 1.429 . S
C553 C554 1.523 . S
C554 C535 1.368 . S
C554 C548 1.368 . S
C554 C553 1.523 . S
C555 C539 1.429 . S
C555 C551 1.429 . S
C555 C556 1.523 . S
C556 C540 1.368 . S
C556 C552 1.368 . S
C556 C555 1.523 . S
H557 C532 0.950 . S
H558 C534 0.950 . S
H559 C535 0.949 . S
H560 C537 0.950 . S
H561 C539 0.950 . S
C562 C563 1.349 . S
C562 C564 1.327 . S
C562 H587 0.950 . S
C563 C562 1.349 . S
C563 C579 1.349 . S
C564 C562 1.327 . S
C564 C583 1.429 . S
C564 H588 0.950 . S
C565 C582 1.574 . S
C565 C584 1.368 . S
C565 H589 0.949 . S
H566 C570 0.949 . S
C567 C568 1.349 . S
C567 C569 1.327 . S
C567 H590 0.950 . S
C568 C567 1.349 . S
C568 C580 1.349 . S
C569 C567 1.327 . S
C569 C585 1.429 . S
C569 H591 0.950 . S
C570 H566 0.949 . S
C570 C578 1.574 . S
C570 C586 1.368 . S
H571 C579 0.950 . S
H572 C577 0.950 . S
H573 C578 0.949 . S
H574 C580 0.950 . S
H575 C581 0.950 . S
H576 C582 0.949 . S
C577 H572 0.950 . S
C577 C579 1.327 . S
C577 C583 1.429 . S
C578 C570 1.574 . S
C578 H573 0.949 . S
C578 C584 1.368 . S
C579 C563 1.349 . S
C579 H571 0.950 . S
C579 C577 1.327 . S
C580 C568 1.349 . S
C580 H574 0.950 . S
C580 C581 1.327 . S
C581 H575 0.950 . S
C581 C580 1.327 . S
C581 C585 1.429 . S
C582 C565 1.574 . S
C582 H576 0.949 . S
C582 C586 1.368 . S
C583 C564 1.429 . S
C583 C577 1.429 . S
C583 C584 1.523 . S
C584 C565 1.368 . S
C584 C578 1.368 . S
C584 C583 1.523 . S
C585 C569 1.429 . S
C585 C581 1.429 . S
C585 C586 1.523 . S
C586 C570 1.368 . S
C586 C582 1.368 . S
C586 C585 1.523 . S
H587 C562 0.950 . S
H588 C564 0.950 . S
H589 C565 0.949 . S
H590 C567 0.950 . S
H591 C569 0.950 . S
C113 C13 1.472 . S
C118 C69 1.472 . S
C143 C27 1.472 . S
C148 C83 1.472 . S
C173 C97 1.472 . S
C178 C41 1.472 . S
C203 C111 1.472 . S
C208 C55 1.472 . S
C233 C11 1.002 . S
C238 C39 1.000 . S
C263 C25 1.000 . S
C268 C53 1.002 . S
C293 C95 1.002 . S
C298 C67 1.000 . S
C323 C81 1.002 . S
C328 C109 1.000 . S
C353 C78 1.310 . S
C358 C8 1.310 . S
C383 C22 1.310 . S
C388 C92 1.310 . S
C413 C106 1.310 . S
C418 C36 1.310 . S
C443 C50 1.310 . S
C448 C64 1.310 . S
C473 C91 0.983 . S
C478 C49 0.983 . S
C503 C7 0.983 . S
C508 C105 0.983 . S
C533 C21 0.983 . S
C538 C63 0.983 . S
C563 C77 0.983 . S
C568 C35 0.983 . S
