# Generated by pormake.
# Topology wjg, (4)-cn, num edge types: 1
# Building blocks:
#     Node 0, Type 0, BuildingBlock: TATPOV_clean_sbu_0, # of connection points: 4
#     Node 1, Type 0, BuildingBlock: TATPOV_clean_sbu_0, # of connection points: 4
#     Node 2, Type 0, BuildingBlock: TATPOV_clean_sbu_0, # of connection points: 4
#     Node 3, Type 0, BuildingBlock: TATPOV_clean_sbu_0, # of connection points: 4
#     Node 4, Type 0, BuildingBlock: TATPOV_clean_sbu_0, # of connection points: 4
#     Node 5, Type 0, BuildingBlock: TATPOV_clean_sbu_0, # of connection points: 4
#     Node 6, Type 0, BuildingBlock: TATPOV_clean_sbu_0, # of connection points: 4
#     Node 7, Type 0, BuildingBlock: TATPOV_clean_sbu_0, # of connection points: 4
#     Node 8, Type 0, BuildingBlock: TATPOV_clean_sbu_0, # of connection points: 4
#     Node 9, Type 0, BuildingBlock: TATPOV_clean_sbu_0, # of connection points: 4
#     Node 10, Type 0, BuildingBlock: TATPOV_clean_sbu_0, # of connection points: 4
#     Node 11, Type 0, BuildingBlock: TATPOV_clean_sbu_0, # of connection points: 4
#     Edge 12, Type (0, 0), BuildingBlock: XUDNAN_clean_linker_2, # of connection points: 2
#     Edge 13, Type (0, 0), BuildingBlock: XUDNAN_clean_linker_2, # of connection points: 2
#     Edge 14, Type (0, 0), BuildingBlock: XUDNAN_clean_linker_2, # of connection points: 2
#     Edge 15, Type (0, 0), BuildingBlock: XUDNAN_clean_linker_2, # of connection points: 2
#     Edge 16, Type (0, 0), BuildingBlock: XUDNAN_clean_linker_2, # of connection points: 2
#     Edge 17, Type (0, 0), BuildingBlock: XUDNAN_clean_linker_2, # of connection points: 2
#     Edge 18, Type (0, 0), BuildingBlock: XUDNAN_clean_linker_2, # of connection points: 2
#     Edge 19, Type (0, 0), BuildingBlock: XUDNAN_clean_linker_2, # of connection points: 2
#     Edge 20, Type (0, 0), BuildingBlock: XUDNAN_clean_linker_2, # of connection points: 2
#     Edge 21, Type (0, 0), BuildingBlock: XUDNAN_clean_linker_2, # of connection points: 2
#     Edge 22, Type (0, 0), BuildingBlock: XUDNAN_clean_linker_2, # of connection points: 2
#     Edge 23, Type (0, 0), BuildingBlock: XUDNAN_clean_linker_2, # of connection points: 2
#     Edge 24, Type (0, 0), BuildingBlock: XUDNAN_clean_linker_2, # of connection points: 2
#     Edge 25, Type (0, 0), BuildingBlock: XUDNAN_clean_linker_2, # of connection points: 2
#     Edge 26, Type (0, 0), BuildingBlock: XUDNAN_clean_linker_2, # of connection points: 2
#     Edge 27, Type (0, 0), BuildingBlock: XUDNAN_clean_linker_2, # of connection points: 2
#     Edge 28, Type (0, 0), BuildingBlock: XUDNAN_clean_linker_2, # of connection points: 2
#     Edge 29, Type (0, 0), BuildingBlock: XUDNAN_clean_linker_2, # of connection points: 2
#     Edge 30, Type (0, 0), BuildingBlock: XUDNAN_clean_linker_2, # of connection points: 2
#     Edge 31, Type (0, 0), BuildingBlock: XUDNAN_clean_linker_2, # of connection points: 2
#     Edge 32, Type (0, 0), BuildingBlock: XUDNAN_clean_linker_2, # of connection points: 2
#     Edge 33, Type (0, 0), BuildingBlock: XUDNAN_clean_linker_2, # of connection points: 2
#     Edge 34, Type (0, 0), BuildingBlock: XUDNAN_clean_linker_2, # of connection points: 2
#     Edge 35, Type (0, 0), BuildingBlock: XUDNAN_clean_linker_2, # of connection points: 2
# Relax obj value: 0.291
# Max RMSD: 0.117
# Mean RMSD: 0.115
data_MOF--net-wjg--node1-TATPOV_clean_sbu_0--edge1-XUDNAN_clean_linker_2
_symmetry_space_group_name_H-M    P1
_symmetry_Int_Tables_number       1
_symmetry_cell_setting            triclinic
loop_
_symmetry_equiv_pos_as_xyz
'x, y, z'
_cell_length_a     35.447024
_cell_length_b     35.38503
_cell_length_c     35.753172
_cell_angle_alpha  89.991463
_cell_angle_beta   90.063256
_cell_angle_gamma 120.26047
loop_
_atom_site_label
_atom_site_type_symbol
_atom_site_fract_x
_atom_site_fract_y
_atom_site_fract_z
_atom_type_partial_charge
Zn0 Zn 0.2271 0.40523 0.30542 0.0
Zn1 Zn 0.17261 0.39656 0.26798 0.0
O2 O 0.21586 0.46502 0.27221 0.0
O3 O 0.23489 0.45969 0.32935 0.0
O4 O 0.12334 0.38506 0.23195 0.0
O5 O 0.26602 0.40983 0.26297 0.0
O6 O 0.19994 0.36038 0.24751 0.0
C7 C 0.234 0.48323 0.30324 0.0
C8 C 0.15457 0.34747 0.3388 0.0
O9 O 0.14424 0.3714 0.31966 0.0
O10 O 0.1885 0.34663 0.32961 0.0
C11 C 0.09318 0.34576 0.22597 0.0
O12 O 0.09457 0.31397 0.24373 0.0
C13 C 0.24084 0.37438 0.24638 0.0
Zn14 Zn 0.79365 0.23884 0.70231 0.0
Zn15 Zn 0.76581 0.18906 0.64935 0.0
O16 O 0.73034 0.22243 0.64886 0.0
O17 O 0.74384 0.24912 0.70596 0.0
O18 O 0.74006 0.14314 0.60728 0.0
O19 O 0.84872 0.28153 0.6781 0.0
O20 O 0.83192 0.23008 0.63593 0.0
C21 C 0.72323 0.24212 0.67557 0.0
C22 C 0.77616 0.15995 0.72846 0.0
O23 O 0.75707 0.1498 0.69669 0.0
O24 O 0.79872 0.19962 0.73769 0.0
C25 C 0.74632 0.11076 0.60962 0.0
O26 O 0.77077 0.11008 0.63695 0.0
C27 C 0.85945 0.26692 0.65037 0.0
Zn28 Zn 0.43032 0.67406 0.07552 0.0
Zn29 Zn 0.50713 0.65751 0.01879 0.0
O30 O 0.45154 0.64476 0.99031 0.0
O31 O 0.41561 0.62124 0.04156 0.0
O32 O 0.54211 0.64495 0.98074 0.0
O33 O 0.49009 0.73176 0.06812 0.0
O34 O 0.53744 0.72221 0.03327 0.0
C35 C 0.41579 0.63106 0.00747 0.0
C36 C 0.47574 0.62917 0.09091 0.0
O37 O 0.50378 0.62809 0.06962 0.0
O38 O 0.44046 0.62136 0.07499 0.0
C39 C 0.52027 0.6075 0.96542 0.0
O40 O 0.48063 0.5807 0.97779 0.0
C41 C 0.52758 0.74643 0.05281 0.0
Zn42 Zn 0.82768 0.5388 0.41693 0.0
Zn43 Zn 0.87024 0.58771 0.34757 0.0
O44 O 0.83427 0.52031 0.33462 0.0
O45 O 0.79286 0.48826 0.38424 0.0
O46 O 0.90297 0.62121 0.301 0.0
O47 O 0.80986 0.58599 0.41809 0.0
O48 O 0.82911 0.61014 0.36007 0.0
C49 C 0.80354 0.48634 0.35081 0.0
C50 C 0.91153 0.59514 0.41972 0.0
O51 O 0.91686 0.61497 0.38903 0.0
O52 O 0.89087 0.55407 0.41748 0.0
C53 C 0.92285 0.60935 0.27851 0.0
O54 O 0.92072 0.57157 0.28382 0.0
C55 C 0.8108 0.60964 0.39095 0.0
Zn56 Zn 0.1747 0.80232 0.65545 0.0
Zn57 Zn 0.21402 0.86486 0.62028 0.0
O58 O 0.23882 0.82298 0.60846 0.0
O59 O 0.21849 0.78361 0.65959 0.0
O60 O 0.24539 0.91338 0.58216 0.0
O61 O 0.1245 0.77247 0.61997 0.0
O62 O 0.14725 0.84189 0.6134 0.0
C63 C 0.24113 0.79553 0.63017 0.0
C64 C 0.20342 0.87571 0.70046 0.0
O65 O 0.23052 0.89216 0.67345 0.0
O66 O 0.17072 0.83767 0.697 0.0
C67 C 0.2864 0.92962 0.57842 0.0
O68 O 0.30677 0.91661 0.60115 0.0
C69 C 0.11603 0.80228 0.61241 0.0
Zn70 Zn 0.54652 0.30978 0.01924 0.0
Zn71 Zn 0.4721 0.31606 0.95213 0.0
O72 O 0.53309 0.33428 0.93078 0.0
O73 O 0.55801 0.36161 0.98497 0.0
O74 O 0.43734 0.32559 0.9117 0.0
O75 O 0.49292 0.24783 0.00702 0.0
O76 O 0.445 0.25179 0.96822 0.0
C77 C 0.56548 0.35195 0.95286 0.0
C78 C 0.48899 0.34406 0.02582 0.0
O79 O 0.46654 0.34633 -0.00064 0.0
O80 O 0.5286 0.35719 0.01743 0.0
C81 C 0.44706 0.3654 0.90933 0.0
O82 O 0.47769 0.39422 0.93145 0.0
C83 C 0.45661 0.22991 0.98918 0.0
Zn84 Zn 0.6004 0.76658 0.29885 0.0
Zn85 Zn 0.59647 0.8114 0.36228 0.0
O86 O 0.53258 0.76191 0.36198 0.0
O87 O 0.53406 0.74211 0.30354 0.0
O88 O 0.60745 0.85089 0.40768 0.0
O89 O 0.62443 0.73665 0.32749 0.0
O90 O 0.63936 0.78689 0.37092 0.0
C91 C 0.51263 0.74034 0.33266 0.0
C92 C 0.62082 0.84457 0.28661 0.0
O93 O 0.59921 0.84553 0.3144 0.0
O94 O 0.64671 0.83112 0.29378 0.0
C95 C 0.6212 0.89186 0.40724 0.0
O96 O 0.62695 0.91182 0.37499 0.0
C97 C 0.64438 0.75634 0.35697 0.0
Zn98 Zn 0.81449 0.59923 0.6875 0.0
Zn99 Zn 0.75136 0.60164 0.7102 0.0
O100 O 0.73438 0.53545 0.71259 0.0
O101 O 0.7786 0.53847 0.66838 0.0
O102 O 0.70565 0.6062 0.74103 0.0
O103 O 0.83568 0.60882 0.7414 0.0
O104 O 0.81059 0.65176 0.7304 0.0
C105 C 0.7457 0.51598 0.68883 0.0
C106 C 0.78703 0.6414 0.63826 0.0
O107 O 0.75064 0.61606 0.65429 0.0
O108 O 0.82201 0.64961 0.65459 0.0
C109 C 0.66731 0.57356 0.74469 0.0
O110 O 0.65605 0.53813 0.72492 0.0
C111 C 0.84262 0.64744 0.74032 0.0
Zn112 Zn 0.31895 0.87671 0.97097 0.0
Zn113 Zn 0.20798 0.82435 0.03216 0.0
O114 O 0.22416 0.77455 0.03296 0.0
O115 O 0.27147 0.82636 -0.0005 0.0
O116 O 0.16043 0.80747 0.07164 0.0
O117 O 0.32662 0.92248 0.00948 0.0
O118 O 0.26172 0.89036 0.04041 0.0
C119 C 0.25751 0.78848 0.01253 0.0
C120 C 0.21939 0.84712 0.96046 0.0
O121 O 0.18465 0.8287 0.97979 0.0
O122 O 0.25262 0.8488 0.97531 0.0
C123 C 0.13423 0.76682 0.07729 0.0
O124 O 0.13793 0.73819 0.0566 0.0
C125 C 0.30051 0.92317 0.03405 0.0
Zn126 Zn 0.45867 0.22934 0.25403 0.0
Zn127 Zn 0.44497 0.17502 0.2945 0.0
O128 O 0.51216 0.21956 0.29939 0.0
O129 O 0.51908 0.24251 0.24167 0.0
O130 O 0.43028 0.13058 0.33602 0.0
O131 O 0.45059 0.26776 0.28995 0.0
O132 O 0.40282 0.19991 0.30267 0.0
C133 C 0.5367 0.2403 0.27166 0.0
C134 C 0.41106 0.15261 0.21895 0.0
O135 O 0.4334 0.14479 0.24238 0.0
O136 O 0.40522 0.18423 0.22584 0.0
C137 C 0.39224 0.10945 0.35028 0.0
O138 O 0.36071 0.11417 0.33596 0.0
C139 C 0.41289 0.23996 0.3013 0.0
Zn140 Zn 0.20061 0.50783 0.56489 0.0
Zn141 Zn 0.26189 0.47065 0.6585 0.0
O142 O 0.29427 0.53908 0.65245 0.0
O143 O 0.24712 0.5193 0.60762 0.0
O144 O 0.29073 0.45779 0.70176 0.0
O145 O 0.20195 0.48086 0.61798 0.0
O146 O 0.19567 0.44544 0.66933 0.0
C147 C 0.27872 0.55047 0.62561 0.0
C148 C 0.24289 0.44674 0.5828 0.0
O149 O 0.26108 0.43771 0.60934 0.0
O150 O 0.23515 0.47784 0.58894 0.0
C151 C 0.29159 0.42292 0.70855 0.0
O152 O 0.27161 0.38938 0.68576 0.0
C153 C 0.17698 0.45367 0.64269 0.0
Zn154 Zn 0.67088 0.08839 0.03284 0.0
Zn155 Zn 0.74995 0.13834 0.04505 0.0
O156 O 0.72277 0.17895 0.03832 0.0
O157 O 0.6546 0.13309 0.0229 0.0
O158 O 0.81034 0.17738 0.06794 0.0
O159 O 0.65362 0.05388 0.08004 0.0
O160 O 0.72439 0.0818 0.07762 0.0
C161 C 0.68536 0.17191 0.0275 0.0
C162 C 0.7279 0.08627 0.97543 0.0
O163 O 0.75772 0.11911 0.99317 0.0
O164 O 0.68928 0.06603 0.9882 0.0
C165 C 0.83284 0.21859 0.06302 0.0
O166 O 0.81766 0.23745 0.04081 0.0
C167 C 0.68717 0.05261 0.08994 0.0
H168 H 0.29373 0.54183 0.25404 0.0
H169 H 0.2396 0.53032 0.36473 0.0
H170 H 0.30125 0.60306 0.38133 0.0
H171 H 0.39659 0.58102 0.28024 0.0
H172 H 0.42337 0.61948 0.24272 0.0
H173 H 0.36986 0.57303 0.23559 0.0
H174 H 0.34109 0.62416 0.21602 0.0
H175 H 0.3944 0.67135 0.22343 0.0
H176 H 0.34771 0.66726 0.24706 0.0
H177 H 0.37558 0.66794 0.39067 0.0
H178 H 0.45462 0.72206 0.39046 0.0
H179 H 0.46143 0.69181 0.27385 0.0
C180 C 0.29363 0.55592 0.28089 0.0
C181 C 0.26146 0.53106 0.30781 0.0
C182 C 0.26348 0.54939 0.34348 0.0
C183 C 0.29851 0.59062 0.3532 0.0
C184 C 0.33128 0.61329 0.3269 0.0
C185 C 0.32879 0.597 0.29117 0.0
C186 C 0.3709 0.62503 0.26991 0.0
C187 C 0.39136 0.59801 0.25636 0.0
C188 C 0.36303 0.64832 0.23715 0.0
C189 C 0.39842 0.65739 0.30011 0.0
C190 C 0.37468 0.6508 0.33248 0.0
C191 C 0.39424 0.67413 0.36518 0.0
C192 C 0.43925 0.70468 0.36489 0.0
C193 C 0.46438 0.7113 0.33222 0.0
C194 C 0.44323 0.68784 0.29929 0.0
H195 H 0.73743 0.30152 0.62191 0.0
H196 H 0.66071 0.23972 0.72069 0.0
H197 H 0.64455 0.29951 0.72734 0.0
H198 H 0.79164 0.39874 0.65744 0.0
H199 H 0.79571 0.43101 0.61699 0.0
H200 H 0.78812 0.37733 0.61097 0.0
H201 H 0.71848 0.35375 0.57149 0.0
H202 H 0.72643 0.40802 0.57652 0.0
H203 H 0.67524 0.36102 0.58995 0.0
H204 H 0.65351 0.37388 0.73339 0.0
H205 H 0.68372 0.45402 0.73596 0.0
H206 H 0.75685 0.46871 0.63447 0.0
C207 C 0.7146 0.29913 0.64319 0.0
C208 C 0.69912 0.2655 0.67009 0.0
C209 C 0.67168 0.26462 0.69918 0.0
C210 C 0.66258 0.29864 0.70327 0.0
C211 C 0.68124 0.33337 0.67803 0.0
C212 C 0.70604 0.33345 0.64801 0.0
C213 C 0.72912 0.37783 0.62912 0.0
C214 C 0.77906 0.39733 0.62866 0.0
C215 C 0.71123 0.37497 0.58942 0.0
C216 C 0.7161 0.40336 0.65477 0.0
C217 C 0.68752 0.37704 0.68221 0.0
C218 C 0.67492 0.39458 0.71141 0.0
C219 C 0.69239 0.44016 0.71281 0.0
C220 C 0.72271 0.46765 0.68552 0.0
C221 C 0.73359 0.44861 0.65572 0.0
H222 H 0.34679 0.62557 0.04619 0.0
H223 H 0.42024 0.67575 0.94315 0.0
H224 H 0.38113 0.71558 0.93039 0.0
H225 H 0.24265 0.6173 0.01234 0.0
H226 H 0.23324 0.63468 0.05703 0.0
H227 H 0.26125 0.60407 0.05465 0.0
H228 H 0.32618 0.66556 0.09145 0.0
H229 H 0.29886 0.6967 0.09347 0.0
H230 H 0.35287 0.72074 0.0737 0.0
H231 H 0.34416 0.75921 0.93418 0.0
H232 H 0.30668 0.79938 0.95126 0.0
H233 H 0.25582 0.72042 0.05147 0.0
C234 C 0.35377 0.64388 0.02036 0.0
C235 C 0.38679 0.64773 0.99576 0.0
C236 C 0.39515 0.67232 0.96243 0.0
C237 C 0.37309 0.69506 0.95494 0.0
C238 C 0.34239 0.69234 0.98078 0.0
C239 C 0.33215 0.66681 0.01253 0.0
C240 C 0.3008 0.67254 0.03744 0.0
C241 C 0.25687 0.62959 0.04053 0.0
C242 C 0.3209 0.68993 0.07629 0.0
C243 C 0.29623 0.70655 0.01539 0.0
C244 C 0.32033 0.71725 0.9827 0.0
C245 C 0.32444 0.75047 0.95925 0.0
C246 C 0.30333 0.77333 0.96938 0.0
C247 C 0.27828 0.76279 0.00259 0.0
C248 C 0.27423 0.7286 0.02565 0.0
H249 H 0.58587 0.26298 0.33583 0.0
H250 H 0.59591 0.28034 0.21546 0.0
H251 H 0.67293 0.3379 0.22192 0.0
H252 H 0.63987 0.36859 0.35831 0.0
H253 H 0.66836 0.3651 0.39877 0.0
H254 H 0.61797 0.31826 0.3844 0.0
H255 H 0.656 0.27216 0.3801 0.0
H256 H 0.70674 0.31903 0.39479 0.0
H257 H 0.70431 0.29127 0.35181 0.0
H258 H 0.74282 0.40405 0.24211 0.0
H259 H 0.79923 0.47046 0.27471 0.0
H260 H 0.74505 0.40816 0.38135 0.0
C261 C 0.60481 0.27757 0.31077 0.0
C262 C 0.58481 0.26715 0.27523 0.0
C263 C 0.61045 0.28777 0.24308 0.0
C264 C 0.65442 0.32045 0.24641 0.0
C265 C 0.67263 0.33171 0.28203 0.0
C266 C 0.64883 0.31028 0.31363 0.0
C267 C 0.67407 0.33213 0.34887 0.0
C268 C 0.64856 0.3469 0.37402 0.0
C269 C 0.68599 0.30184 0.37014 0.0
C270 C 0.71425 0.37077 0.33221 0.0
C271 C 0.71345 0.36963 0.29362 0.0
C272 C 0.74452 0.40472 0.27234 0.0
C273 C 0.77646 0.44236 0.29104 0.0
C274 C 0.77664 0.44458 0.33055 0.0
C275 C 0.7461 0.40752 0.3511 0.0
H276 H 0.27565 0.76187 0.67813 0.0
H277 H 0.25946 0.77755 0.56007 0.0
H278 H 0.28368 0.72481 0.54505 0.0
H279 H 0.37124 0.74042 0.66765 0.0
H280 H 0.34995 0.7013 0.70533 0.0
H281 H 0.34281 0.74829 0.7059 0.0
H282 H 0.25928 0.69694 0.71281 0.0
H283 H 0.26596 0.64999 0.7118 0.0
H284 H 0.23025 0.65458 0.6785 0.0
H285 H 0.28958 0.65762 0.54437 0.0
H286 H 0.28287 0.58596 0.55752 0.0
H287 H 0.29953 0.61598 0.67584 0.0
C288 C 0.27898 0.75553 0.64904 0.0
C289 C 0.2658 0.77365 0.6202 0.0
C290 C 0.26996 0.76436 0.58249 0.0
C291 C 0.28364 0.73441 0.57378 0.0
C292 C 0.29406 0.71512 0.60308 0.0
C293 C 0.29296 0.72617 0.63998 0.0
C294 C 0.30013 0.69701 0.66656 0.0
C295 C 0.34364 0.72333 0.68759 0.0
C296 C 0.26161 0.67324 0.69398 0.0
C297 C 0.30207 0.66557 0.63906 0.0
C298 C 0.29927 0.67701 0.60252 0.0
C299 C 0.29352 0.64927 0.57266 0.0
C300 C 0.28956 0.6086 0.58038 0.0
C301 C 0.29174 0.59621 0.61758 0.0
C302 C 0.29951 0.6256 0.64709 0.0
H303 H 0.61692 0.16488 0.98736 0.0
H304 H 0.73826 0.26075 0.04009 0.0
H305 H 0.72603 0.32004 0.01739 0.0
H306 H 0.62695 0.22985 0.90467 0.0
H307 H 0.56908 0.20983 0.9028 0.0
H308 H 0.58886 0.17568 0.92144 0.0
H309 H 0.5472 0.16651 0.98358 0.0
H310 H 0.52652 0.19942 0.96436 0.0
H311 H 0.5557 0.21463 0.00825 0.0
H312 H 0.69621 0.36757 0.9936 0.0
H313 H 0.65008 0.39833 0.97449 0.0
H314 H 0.55109 0.27094 0.93429 0.0
C315 C 0.64111 0.19831 0.99425 0.0
C316 C 0.67843 0.20816 0.01584 0.0
C317 C 0.70933 0.25243 0.02379 0.0
C318 C 0.70279 0.28626 0.01074 0.0
C319 C 0.6657 0.27521 0.98921 0.0
C320 C 0.6355 0.23222 0.98102 0.0
C321 C 0.59734 0.2284 0.95889 0.0
C322 C 0.59548 0.20984 0.91962 0.0
C323 C 0.55417 0.20063 0.98006 0.0
C324 C 0.6097 0.27594 0.95703 0.0
C325 C 0.64954 0.30259 0.97423 0.0
C326 C 0.66556 0.34717 0.9793 0.0
C327 C 0.63934 0.36446 0.96808 0.0
C328 C 0.59773 0.3373 0.95186 0.0
C329 C 0.58357 0.29286 0.94502 0.0
H330 H 0.32535 0.3956 0.23892 0.0
H331 H 0.19358 0.28449 0.24467 0.0
H332 H 0.2232 0.23645 0.2604 0.0
H333 H 0.38065 0.3353 0.20486 0.0
H334 H 0.42773 0.36905 0.23351 0.0
H335 H 0.39588 0.39123 0.21449 0.0
H336 H 0.3867 0.41317 0.28159 0.0
H337 H 0.41654 0.38914 0.3011 0.0
H338 H 0.36195 0.37156 0.31713 0.0
H339 H 0.26767 0.20309 0.28517 0.0
H340 H 0.32366 0.18536 0.30593 0.0
H341 H 0.42422 0.32093 0.28902 0.0
C342 C 0.30274 0.36081 0.24179 0.0
C343 C 0.25721 0.34383 0.24056 0.0
C344 C 0.22865 0.2982 0.24501 0.0
C345 C 0.24518 0.27074 0.25448 0.0
C346 C 0.2902 0.28948 0.25901 0.0
C347 C 0.31859 0.33333 0.25185 0.0
C348 C 0.3651 0.34662 0.26169 0.0
C349 C 0.39404 0.3614 0.22655 0.0
C350 C 0.38362 0.38222 0.29218 0.0
C351 C 0.35844 0.30373 0.27642 0.0
C352 C 0.31521 0.27096 0.27448 0.0
C353 C 0.30169 0.22848 0.28648 0.0
C354 C 0.33363 0.21885 0.29878 0.0
C355 C 0.37839 0.25173 0.2992 0.0
C356 C 0.39035 0.29498 0.28927 0.0
H357 H 0.92764 0.3002 0.69747 0.0
H358 H 0.89521 0.28656 0.57948 0.0
H359 H 0.97415 0.33353 0.56422 0.0
H360 H 0.0107 0.40993 0.69701 0.0
H361 H 0.04484 0.40303 0.73046 0.0
H362 H 0.98657 0.36703 0.73151 0.0
H363 H 0.99661 0.29961 0.72552 0.0
H364 H 0.05498 0.33535 0.72499 0.0
H365 H 0.02843 0.29688 0.68743 0.0
H366 H 0.05618 0.38739 0.56337 0.0
H367 H 0.13477 0.43604 0.57563 0.0
H368 H 0.11242 0.41018 0.69456 0.0
C369 C 0.93721 0.30682 0.66835 0.0
C370 C 0.90572 0.29033 0.63953 0.0
C371 C 0.91915 0.299 0.6018 0.0
C372 C 0.96372 0.3257 0.59302 0.0
C373 C 0.99394 0.34239 0.62238 0.0
C374 C 0.98119 0.33247 0.65923 0.0
C375 C 0.0196 0.35394 0.68578 0.0
C376 C 0.01514 0.38535 0.71277 0.0
C377 C 0.02524 0.31938 0.70718 0.0
C378 C 0.05623 0.37855 0.65825 0.0
C379 C 0.04082 0.37175 0.62183 0.0
C380 C 0.06852 0.39256 0.59174 0.0
C381 C 0.11307 0.42049 0.59906 0.0
C382 C 0.12954 0.42702 0.63613 0.0
C383 C 0.10068 0.4057 0.666 0.0
H384 H 0.61651 0.9871 0.12586 0.0
H385 H 0.74165 0.02043 0.0776 0.0
H386 H 0.71649 0.94236 0.06926 0.0
H387 H 0.5944 0.87524 0.16926 0.0
H388 H 0.53707 0.85211 0.15938 0.0
H389 H 0.56966 0.90886 0.1726 0.0
H390 H 0.54367 0.9297 0.11228 0.0
H391 H 0.51296 0.87353 0.09792 0.0
H392 H 0.5542 0.91356 0.06741 0.0
H393 H 0.67098 0.86468 0.04816 0.0
H394 H 0.61369 0.78988 0.03052 0.0
H395 H 0.51887 0.8065 0.09441 0.0
C396 C 0.63952 0.97782 0.1158 0.0
C397 C 0.6808 0.00983 0.10209 0.0
C398 C 0.70993 0.9966 0.08852 0.0
C399 C 0.69576 0.95215 0.08334 0.0
C400 C 0.65306 0.92146 0.09324 0.0
C401 C 0.626 0.93352 0.11095 0.0
C402 C 0.58019 0.89476 0.11517 0.0
C403 C 0.56973 0.88199 0.15656 0.0
C404 C 0.54579 0.90345 0.0971 0.0
C405 C 0.58472 0.86037 0.09387 0.0
C406 C 0.62707 0.87609 0.08188 0.0
C407 C 0.63802 0.85152 0.05848 0.0
C408 C 0.60512 0.80925 0.0482 0.0
C409 C 0.56173 0.79211 0.06116 0.0
C410 C 0.55169 0.81833 0.08419 0.0
H411 H 0.69854 0.7397 0.31729 0.0
H412 H 0.65988 0.74602 0.43096 0.0
H413 H 0.70433 0.71423 0.45379 0.0
H414 H 0.69018 0.63963 0.32295 0.0
H415 H 0.73668 0.65263 0.29387 0.0
H416 H 0.70758 0.6816 0.2877 0.0
H417 H 0.77908 0.75563 0.29778 0.0
H418 H 0.80867 0.72692 0.30346 0.0
H419 H 0.81118 0.76389 0.33935 0.0
H420 H 0.74489 0.6718 0.46198 0.0
H421 H 0.78138 0.6282 0.45567 0.0
H422 H 0.79347 0.65232 0.33605 0.0
C423 C 0.70026 0.73535 0.34713 0.0
C424 C 0.67594 0.7451 0.37249 0.0
C425 C 0.67875 0.73904 0.41125 0.0
C426 C 0.70374 0.72091 0.42432 0.0
C427 C 0.72613 0.71007 0.39821 0.0
C428 C 0.72518 0.71794 0.36045 0.0
C429 C 0.7495 0.70121 0.33755 0.0
C430 C 0.71916 0.66673 0.30885 0.0
C431 C 0.78949 0.73918 0.31842 0.0
C432 C 0.76301 0.68099 0.36802 0.0
C433 C 0.74964 0.68659 0.40291 0.0
C434 C 0.75608 0.66794 0.43487 0.0
C435 C 0.7766 0.64299 0.43095 0.0
C436 C 0.79035 0.63692 0.39532 0.0
C437 C 0.78378 0.65668 0.3637 0.0
H438 H 0.04338 0.72258 0.6055 0.0
H439 H 0.08639 0.85714 0.63472 0.0
H440 H 0.01714 0.83294 0.66843 0.0
H441 H 0.91994 0.68081 0.60382 0.0
H442 H 0.90974 0.63 0.62426 0.0
H443 H 0.95497 0.65914 0.59263 0.0
H444 H 0.00655 0.65791 0.64353 0.0
H445 H 0.96212 0.63074 0.67587 0.0
H446 H 0.00943 0.68209 0.68863 0.0
H447 H 0.94751 0.79146 0.70856 0.0
H448 H 0.88335 0.73757 0.74566 0.0
H449 H 0.89579 0.63241 0.69629 0.0
C450 C 0.03726 0.7472 0.61724 0.0
C451 C 0.07026 0.79165 0.61744 0.0
C452 C 0.06137 0.82289 0.63372 0.0
C453 C 0.0222 0.80936 0.65332 0.0
C454 C 0.99224 0.76464 0.65593 0.0
C455 C -0.00101 0.73414 0.63746 0.0
C456 C 0.96562 0.68798 0.64863 0.0
C457 C 0.93582 0.66304 0.61535 0.0
C458 C 0.98726 0.66329 0.66515 0.0
C459 C 0.94094 0.69724 0.67808 0.0
C460 C 0.95534 0.74132 0.68114 0.0
C461 C 0.93602 0.75684 0.70625 0.0
C462 C 0.90015 0.7262 0.72766 0.0
C463 C 0.8853 0.68091 0.72481 0.0
C464 C 0.90692 0.66681 0.7002 0.0
H465 H 0.47319 0.16808 0.01768 0.0
H466 H 0.3672 0.18784 0.98287 0.0
H467 H 0.31388 0.11384 0.0059 0.0
H468 H 0.42617 0.06077 0.9874 0.0
H469 H 0.4476 0.04337 0.02519 0.0
H470 H 0.47601 0.09956 0.01067 0.0
H471 H 0.47221 0.12342 0.07885 0.0
H472 H 0.44349 0.06679 0.09293 0.0
H473 H 0.41986 0.10059 0.10162 0.0
H474 H 0.27239 0.03606 0.02934 0.0
H475 H 0.24715 0.95755 0.03702 0.0
H476 H 0.38061 0.98871 0.05499 0.0
C477 C 0.43884 0.15709 0.01504 0.0
C478 C 0.42449 0.18386 -0.00151 0.0
C479 C 0.37906 0.16776 0.99509 0.0
C480 C 0.34855 0.12612 0.00878 0.0
C481 C 0.36399 0.10097 0.02571 0.0
C482 C 0.40814 0.11567 0.02822 0.0
C483 C 0.41656 0.08061 0.04314 0.0
C484 C 0.4431 0.07046 0.01491 0.0
C485 C 0.43941 0.09368 0.0814 0.0
C486 C 0.37015 0.04299 0.04694 0.0
C487 C 0.3402 0.05581 0.0382 0.0
C488 C 0.29548 0.0258 0.03677 0.0
C489 C 0.28131 0.98123 0.0417 0.0
C490 C 0.31197 0.96724 0.04697 0.0
C491 C 0.35652 0.99874 0.05183 0.0
H492 H 0.87265 0.1908 0.1135 0.0
H493 H 0.88775 0.30738 0.05918 0.0
H494 H 0.9559 0.35259 0.09455 0.0
H495 H 0.91113 0.23892 0.20372 0.0
H496 H 0.93907 0.20921 0.21318 0.0
H497 H 0.89195 0.18585 0.18298 0.0
H498 H 0.9372 0.17719 0.13031 0.0
H499 H 0.98443 0.2004 0.16039 0.0
H500 H 0.98742 0.22428 0.11517 0.0
H501 H 0.02215 0.38554 0.13702 0.0
H502 H 0.08163 0.4031 0.18224 0.0
H503 H 0.02326 0.26505 0.2086 0.0
C504 C 0.89035 0.2258 0.10885 0.0
C505 C 0.87471 0.24544 0.08343 0.0
C506 C 0.89895 0.29145 0.07839 0.0
C507 C 0.93775 0.31748 0.09841 0.0
C508 C 0.95207 0.29712 0.12341 0.0
C509 C 0.92917 0.2523 0.1286 0.0
C510 C 0.95143 0.23857 0.15735 0.0
C511 C 0.92161 0.21686 0.19132 0.0
C512 C 0.96599 0.20833 0.13974 0.0
C513 C 0.99033 0.28264 0.16758 0.0
C514 C 0.99013 0.31603 0.14772 0.0
C515 C 0.02266 0.35961 0.15266 0.0
C516 C 0.05632 0.36929 0.17846 0.0
C517 C 0.05727 0.33554 0.19903 0.0
C518 C 0.02365 0.29169 0.19336 0.0
H519 H 0.71872 0.10728 0.53631 0.0
H520 H 0.72422 0.02727 0.62577 0.0
H521 H 0.68891 0.96244 0.58497 0.0
H522 H 0.61434 0.02447 0.49593 0.0
H523 H 0.63188 0.04022 0.4483 0.0
H524 H 0.65482 0.08028 0.48521 0.0
H525 H 0.73265 0.09871 0.46582 0.0
H526 H 0.70996 0.05879 0.42884 0.0
H527 H 0.7454 0.05547 0.46324 0.0
H528 H 0.65413 0.90626 0.53492 0.0
H529 H 0.62681 0.86311 0.47694 0.0
H530 H 0.64653 0.97893 0.41781 0.0
C531 C 0.71199 0.07598 0.54733 0.0
C532 C 0.72404 0.07233 0.58434 0.0
C533 C 0.71541 0.03095 0.59754 0.0
C534 C 0.69514 0.99381 0.57463 0.0
C535 C 0.68397 0.99843 0.53828 0.0
C536 C 0.69236 0.03845 0.52447 0.0
C537 C 0.67935 0.03454 0.48351 0.0
C538 C 0.64293 0.04553 0.47792 0.0
C539 C 0.71922 0.0636 0.45891 0.0
C540 C 0.66266 0.98625 0.47657 0.0
C541 C 0.66514 0.96604 0.50875 0.0
C542 C 0.65198 0.9217 0.5095 0.0
C543 C 0.6364 0.8974 0.47637 0.0
C544 C 0.63448 0.91746 0.44268 0.0
C545 C 0.64751 0.96251 0.44304 0.0
H546 H 0.59933 0.65592 0.92841 0.0
H547 H 0.47792 0.53102 0.92641 0.0
H548 H 0.50167 0.51098 0.86884 0.0
H549 H 0.60826 0.67335 0.82871 0.0
H550 H 0.6667 0.69677 0.82741 0.0
H551 H 0.64094 0.70218 0.86887 0.0
H552 H 0.67626 0.66691 0.90857 0.0
H553 H 0.70243 0.66178 0.8673 0.0
H554 H 0.66821 0.6142 0.89525 0.0
H555 H 0.5366 0.50374 0.81157 0.0
H556 H 0.58396 0.50842 0.7593 0.0
H557 H 0.68363 0.63722 0.79746 0.0
C558 C 0.57785 0.62423 0.916 0.0
C559 C 0.53669 0.59512 0.93209 0.0
C560 C 0.50958 0.55399 0.91483 0.0
C561 C 0.52263 0.54222 0.88201 0.0
C562 C 0.56294 0.57172 0.86666 0.0
C563 C 0.59042 0.61173 0.88311 0.0
C564 C 0.63234 0.63692 0.86076 0.0
C565 C 0.63734 0.67985 0.84554 0.0
C566 C 0.67216 0.64544 0.88438 0.0
C567 C 0.62397 0.60466 0.82937 0.0
C568 C 0.58356 0.56741 0.83331 0.0
C569 C 0.56838 0.53273 0.80814 0.0
C570 C 0.59554 0.53576 0.77845 0.0
C571 C 0.63756 0.57316 0.77412 0.0
C572 C 0.65162 0.60827 0.79979 0.0
H573 H 0.08702 0.68377 0.10528 0.0
H574 H 0.10703 0.81457 0.11839 0.0
H575 H 0.05248 0.78783 0.16952 0.0
H576 H 0.97091 0.62381 0.12406 0.0
H577 H 0.9733 0.58106 0.14946 0.0
H578 H 0.01222 0.61017 0.11289 0.0
H579 H 0.07585 0.63072 0.15936 0.0
H580 H 0.03716 0.60163 0.19604 0.0
H581 H 0.07801 0.65838 0.20234 0.0
H582 H 0.99582 0.74626 0.21985 0.0
H583 H 0.94528 0.69491 0.26721 0.0
H584 H 0.96464 0.59207 0.22203 0.0
C585 C 0.07973 0.70683 0.11862 0.0
C586 C 0.10113 0.75129 0.10761 0.0
C587 C 0.09101 0.78039 0.12626 0.0
C588 C 0.05999 0.76544 0.15526 0.0
C589 C 0.03959 0.72139 0.16543 0.0
C590 C 0.04928 0.6926 0.14776 0.0
C591 C 0.02429 0.64732 0.1649 0.0
C592 C 0.99334 0.61361 0.13611 0.0
C593 C 0.05571 0.63374 0.18166 0.0
C594 C -0.00092 0.65505 0.19516 0.0
C595 C 0.008 0.69786 0.19481 0.0
C596 C 0.98864 0.7127 0.22033 0.0
C597 C 0.95987 0.6832 0.2471 0.0
C598 C 0.95094 0.63938 0.24846 0.0
C599 C 0.9707 0.62528 0.22184 0.0
H600 H 0.31508 0.06153 0.38858 0.0
H601 H 0.45171 0.09752 0.38996 0.0
H602 H 0.43961 0.05676 0.44898 0.0
H603 H 0.30408 0.07063 0.48717 0.0
H604 H 0.24946 0.02422 0.48962 0.0
H605 H 0.26845 0.05555 0.44708 0.0
H606 H 0.24982 0.98529 0.41006 0.0
H607 H 0.23044 0.95368 0.45242 0.0
H608 H 0.27229 0.95204 0.42508 0.0
H609 H 0.41314 0.01343 0.50848 0.0
H610 H 0.37346 0.9675 0.56267 0.0
H611 H 0.25377 0.95918 0.52265 0.0
C612 C 0.34245 0.06066 0.40113 0.0
C613 C 0.3844 0.08279 0.38454 0.0
C614 C 0.41927 0.08081 0.40201 0.0
C615 C 0.41276 0.05783 0.43563 0.0
C616 C 0.37116 0.03688 0.45143 0.0
C617 C 0.33652 0.03782 0.43466 0.0
C618 C 0.29505 0.01242 0.45741 0.0
C619 C 0.27829 0.04251 0.47113 0.0
C620 C 0.25983 0.97355 0.4349 0.0
C621 C 0.3118 0.99707 0.48963 0.0
C622 C 0.35583 0.01169 0.48567 0.0
C623 C 0.37864 0.00173 0.51183 0.0
C624 C 0.35577 0.97565 0.5426 0.0
C625 C 0.31044 0.95965 0.54703 0.0
C626 C 0.28839 0.97094 0.52021 0.0
H627 H 0.39277 0.32013 0.84968 0.0
H628 H 0.45005 0.44359 0.90969 0.0
H629 H 0.41523 0.47033 0.86589 0.0
H630 H 0.40547 0.36537 0.75782 0.0
H631 H 0.35418 0.32181 0.74024 0.0
H632 H 0.38216 0.31108 0.77713 0.0
H633 H 0.31321 0.28085 0.8188 0.0
H634 H 0.28497 0.29141 0.78199 0.0
H635 H 0.28925 0.31438 0.82786 0.0
H636 H 0.37683 0.48522 0.8152 0.0
H637 H 0.33568 0.48705 0.76046 0.0
H638 H 0.30232 0.35436 0.732 0.0
C639 C 0.39773 0.35267 0.85367 0.0
C640 C 0.4244 0.37984 0.88307 0.0
C641 C 0.43015 0.42226 0.88726 0.0
C642 C 0.41038 0.43777 0.86257 0.0
C643 C 0.38486 0.41055 0.83367 0.0
C644 C 0.37827 0.36887 0.82905 0.0
C645 C 0.34972 0.34682 0.79509 0.0
C646 C 0.37437 0.33562 0.76584 0.0
C647 C 0.30674 0.30594 0.80664 0.0
C648 C 0.34182 0.38286 0.78129 0.0
C649 C 0.36232 0.4192 0.80415 0.0
C650 C 0.36043 0.45691 0.79714 0.0
C651 C 0.33695 0.45761 0.76588 0.0
C652 C 0.31563 0.42087 0.74182 0.0
C653 C 0.31812 0.38296 0.74982 0.0
H654 H 0.13144 0.39214 0.38538 0.0
H655 H 0.1524 0.28191 0.38062 0.0
H656 H 0.16729 0.28846 0.44839 0.0
H657 H 0.21816 0.45406 0.43108 0.0
H658 H 0.19934 0.48253 0.46054 0.0
H659 H 0.1723 0.45961 0.41706 0.0
H660 H 0.09793 0.41342 0.45049 0.0
H661 H 0.12422 0.43777 0.4943 0.0
H662 H 0.09365 0.37911 0.48945 0.0
H663 H 0.20037 0.32007 0.51147 0.0
H664 H 0.23849 0.36819 0.56581 0.0
H665 H 0.20326 0.46143 0.52442 0.0
C666 C 0.1359 0.36738 0.39912 0.0
C667 C 0.14054 0.33643 0.37797 0.0
C668 C 0.14817 0.30554 0.39658 0.0
C669 C 0.15706 0.3093 0.43506 0.0
C670 C 0.15769 0.34379 0.45441 0.0
C671 C 0.14608 0.37163 0.43721 0.0
C672 C 0.15741 0.41095 0.46143 0.0
C673 C 0.18865 0.45427 0.44132 0.0
C674 C 0.11582 0.41024 0.47471 0.0
C675 C 0.17984 0.40246 0.49348 0.0
C676 C 0.17874 0.36313 0.48978 0.0
C677 C 0.20039 0.35044 0.51511 0.0
C678 C 0.22251 0.3782 0.54554 0.0
C679 C 0.22353 0.41848 0.54964 0.0
C680 C 0.20234 0.43057 0.52286 0.0
H681 H 0.80299 0.12866 0.9345 0.0
H682 H 0.67009 0.01955 0.93038 0.0
H683 H 0.6768 0.01317 0.86264 0.0
H684 H 0.79737 0.18117 0.86397 0.0
H685 H 0.85088 0.20091 0.84423 0.0
H686 H 0.84189 0.18716 0.89277 0.0
H687 H 0.87002 0.13283 0.88444 0.0
H688 H 0.87939 0.14669 0.83546 0.0
H689 H 0.84574 0.0904 0.84952 0.0
H690 H 0.68863 0.03311 0.79578 0.0
H691 H 0.70588 0.07684 0.73776 0.0
H692 H 0.83214 0.17048 0.78369 0.0
C693 C 0.77612 0.10209 0.91959 0.0
C694 C 0.73604 0.07496 0.93764 0.0
C695 C 0.70121 0.04094 0.91716 0.0
C696 C 0.7048 0.03679 0.87858 0.0
C697 C 0.74372 0.06624 0.86095 0.0
C698 C 0.77928 0.0976 0.88101 0.0
C699 C 0.81444 0.13009 0.8552 0.0
C700 C 0.82676 0.17756 0.86459 0.0
C701 C 0.85478 0.12465 0.85621 0.0
C702 C 0.79104 0.11518 0.81803 0.0
C703 C 0.75097 0.07729 0.82154 0.0
C704 C 0.72057 0.06182 0.79227 0.0
C705 C 0.73053 0.0868 0.75937 0.0
C706 C 0.77022 0.12693 0.75653 0.0
C707 C 0.80165 0.13965 0.78524 0.0
H708 H 0.64726 0.81964 0.22443 0.0
H709 H 0.5381 0.82884 0.26868 0.0
H710 H 0.48979 0.77562 0.22144 0.0
H711 H 0.61424 0.8023 0.1268 0.0
H712 H 0.62948 0.76156 0.11803 0.0
H713 H 0.65933 0.80462 0.15163 0.0
H714 H 0.64542 0.75106 0.20466 0.0
H715 H 0.61724 0.706 0.17271 0.0
H716 H 0.59051 0.70821 0.21484 0.0
H717 H 0.45113 0.70955 0.18072 0.0
H718 H 0.42606 0.64694 0.1379 0.0
H719 H 0.56076 0.68328 0.1164 0.0
C720 C 0.6136 0.81202 0.22324 0.0
C721 C 0.59647 0.82806 0.25079 0.0
C722 C 0.55217 0.81708 0.24811 0.0
C723 C 0.52429 0.78639 0.22159 0.0
C724 C 0.54147 0.76785 0.19752 0.0
C725 C 0.58533 0.78109 0.19739 0.0
C726 C 0.59498 0.75357 0.17085 0.0
C727 C 0.62638 0.78213 0.13991 0.0
C728 C 0.6131 0.72823 0.19204 0.0
C729 C 0.54959 0.72274 0.15589 0.0
C730 C 0.51918 0.73098 0.17236 0.0
C731 C 0.47464 0.70361 0.16671 0.0
C732 C 0.46082 0.66808 0.14233 0.0
C733 C 0.49143 0.66131 0.12224 0.0
C734 C 0.53647 0.68827 0.13024 0.0
H735 H 0.86152 0.55101 0.48027 0.0
H736 H 0.93394 0.68124 0.4322 0.0
H737 H 0.90094 0.7076 0.47905 0.0
H738 H 0.76266 0.55411 0.4897 0.0
H739 H 0.74628 0.52115 0.53148 0.0
H740 H 0.77951 0.51438 0.49707 0.0
H741 H 0.83797 0.52889 0.54764 0.0
H742 H 0.80428 0.53446 0.58214 0.0
H743 H 0.85987 0.57788 0.57554 0.0
H744 H 0.86237 0.71919 0.535 0.0
H745 H 0.82449 0.71469 0.59449 0.0
H746 H 0.76525 0.57394 0.59358 0.0
C747 C 0.87115 0.58532 0.47964 0.0
C748 C 0.9002 0.61392 0.45217 0.0
C749 C 0.91173 0.65858 0.45285 0.0
C750 C 0.89275 0.67371 0.47907 0.0
C751 C 0.86159 0.64357 0.50372 0.0
C752 C 0.85084 0.60026 0.50393 0.0
C753 C 0.81475 0.5735 0.53138 0.0
C754 C 0.77337 0.53874 0.51118 0.0
C755 C 0.83015 0.55249 0.56094 0.0
C756 C 0.8079 0.60884 0.54796 0.0
C757 C 0.83537 0.64921 0.53193 0.0
C758 C 0.83959 0.68761 0.54684 0.0
C759 C 0.81736 0.68479 0.58023 0.0
C760 C 0.79038 0.64379 0.59746 0.0
C761 C 0.78358 0.60534 0.57972 0.0
H762 H 0.15389 0.83199 0.9111 0.0
H763 H 0.29368 0.91137 0.92839 0.0
H764 H 0.30244 0.94223 0.86531 0.0
H765 H 0.15863 0.80039 0.82371 0.0
H766 H 0.11191 0.80158 0.80517 0.0
H767 H 0.11541 0.79398 0.85436 0.0
H768 H 0.10643 0.86101 0.86805 0.0
H769 H 0.10337 0.86902 0.81856 0.0
H770 H 0.14344 0.91311 0.847 0.0
H771 H 0.29857 0.95283 0.7973 0.0
H772 H 0.28206 0.93847 0.72989 0.0
H773 H 0.14481 0.85534 0.75625 0.0
C774 C 0.18605 0.85695 0.90195 0.0
C775 C 0.22306 0.86905 0.92445 0.0
C776 C 0.26486 0.90114 0.9114 0.0
C777 C 0.27015 0.91939 0.87575 0.0
C778 C 0.23326 0.90568 0.85354 0.0
C779 C 0.1919 0.87541 0.86622 0.0
C780 C 0.15861 0.86139 0.83507 0.0
C781 C 0.13481 0.81142 0.82924 0.0
C782 C 0.12604 0.87709 0.84263 0.0
C783 C 0.18822 0.88588 0.80248 0.0
C784 C 0.23098 0.91235 0.81382 0.0
C785 C 0.26504 0.93326 0.78807 0.0
C786 C 0.25542 0.92509 0.74979 0.0
C787 C 0.21223 0.89585 0.73795 0.0
C788 C 0.17811 0.87821 0.76456 0.0
H789 H 0.48265 0.1804 0.17831 0.0
H790 H 0.34204 0.11365 0.17072 0.0
H791 H 0.34748 0.15165 0.1115 0.0
H792 H 0.4943 0.27282 0.16873 0.0
H793 H 0.54364 0.30155 0.14148 0.0
H794 H 0.53447 0.25573 0.16939 0.0
H795 H 0.54093 0.2137 0.11415 0.0
H796 H 0.55462 0.26055 0.08506 0.0
H797 H 0.51064 0.20735 0.07195 0.0
H798 H 0.36726 0.21366 0.0668 0.0
H799 H 0.40071 0.28316 0.03142 0.0
H800 H 0.52689 0.3188 0.07929 0.0
C801 C 0.4532 0.17095 0.16235 0.0
C802 C 0.412 0.14432 0.17892 0.0
C803 C 0.37391 0.1336 0.15815 0.0
C804 C 0.3768 0.15591 0.12483 0.0
C805 C 0.41803 0.18837 0.11289 0.0
C806 C 0.45581 0.19508 0.13048 0.0
C807 C 0.4951 0.23785 0.11822 0.0
C808 C 0.51811 0.26878 0.15146 0.0
C809 C 0.52721 0.22936 0.09601 0.0
C810 C 0.47315 0.25544 0.09326 0.0
C811 C 0.42906 0.22604 0.08945 0.0
C812 C 0.40203 0.23632 0.06873 0.0
C813 C 0.42123 0.27623 0.0492 0.0
C814 C 0.46691 0.30582 0.05135 0.0
C815 C 0.4923 0.29614 0.07566 0.0
loop_
_geom_bond_atom_site_label_1
_geom_bond_atom_site_label_2
_geom_bond_distance
_geom_bond_site_symmetry_2
_ccdc_geom_bond_type
Zn0 O3 2.031 . S
Zn0 O5 2.049 . S
Zn0 O10 2.067 . S
Zn1 O2 1.962 . S
Zn1 O4 1.986 . S
Zn1 O6 1.996 . S
Zn1 O9 1.943 . S
O2 Zn1 1.962 . S
O2 C7 1.254 . S
O3 Zn0 2.031 . S
O3 C7 1.269 . S
O4 Zn1 1.986 . S
O4 C11 1.262 . S
O5 Zn0 2.049 . S
O5 C13 1.260 . S
O6 Zn1 1.996 . S
O6 C13 1.257 . S
C7 O2 1.254 . S
C7 O3 1.269 . S
C8 O9 1.249 . S
C8 O10 1.270 . S
O9 Zn1 1.943 . S
O9 C8 1.249 . S
O10 Zn0 2.067 . S
O10 C8 1.270 . S
C11 O4 1.262 . S
C11 O12 1.232 . S
O12 C11 1.232 . S
C13 O5 1.260 . S
C13 O6 1.257 . S
Zn14 O17 2.031 . S
Zn14 O19 2.049 . S
Zn14 O24 2.067 . S
Zn15 O16 1.962 . S
Zn15 O18 1.986 . S
Zn15 O20 1.996 . S
Zn15 O23 1.943 . S
O16 Zn15 1.962 . S
O16 C21 1.254 . S
O17 Zn14 2.031 . S
O17 C21 1.269 . S
O18 Zn15 1.986 . S
O18 C25 1.262 . S
O19 Zn14 2.049 . S
O19 C27 1.260 . S
O20 Zn15 1.996 . S
O20 C27 1.257 . S
C21 O16 1.254 . S
C21 O17 1.269 . S
C22 O23 1.249 . S
C22 O24 1.270 . S
O23 Zn15 1.943 . S
O23 C22 1.249 . S
O24 Zn14 2.067 . S
O24 C22 1.270 . S
C25 O18 1.262 . S
C25 O26 1.232 . S
O26 C25 1.232 . S
C27 O19 1.260 . S
C27 O20 1.257 . S
Zn28 O31 2.031 . S
Zn28 O33 2.049 . S
Zn28 O38 2.067 . S
Zn29 O30 1.962 . S
Zn29 O32 1.986 . S
Zn29 O34 1.996 . S
Zn29 O37 1.943 1_556 S
O30 Zn29 1.962 . S
O30 C35 1.254 . S
O31 Zn28 2.031 . S
O31 C35 1.269 1_554 S
O32 Zn29 1.986 . S
O32 C39 1.262 . S
O33 Zn28 2.049 . S
O33 C41 1.244 1_554 S
O34 Zn29 1.996 . S
O34 C41 1.265 . S
C35 O30 1.254 . S
C35 O31 1.269 1_556 S
C36 O37 1.249 . S
C36 O38 1.270 . S
O37 Zn29 1.943 1_554 S
O37 C36 1.249 . S
O38 Zn28 2.067 . S
O38 C36 1.270 . S
C39 O32 1.262 . S
C39 O40 1.232 . S
O40 C39 1.232 . S
C41 O33 1.244 1_556 S
C41 O34 1.265 . S
Zn42 O45 2.031 . S
Zn42 O47 2.049 . S
Zn42 O52 2.067 . S
Zn43 O44 1.962 . S
Zn43 O46 1.986 . S
Zn43 O48 1.996 . S
Zn43 O51 1.943 . S
O44 Zn43 1.962 . S
O44 C49 1.254 . S
O45 Zn42 2.031 . S
O45 C49 1.269 . S
O46 Zn43 1.986 . S
O46 C53 1.262 . S
O47 Zn42 2.049 . S
O47 C55 1.260 . S
O48 Zn43 1.996 . S
O48 C55 1.257 . S
C49 O44 1.254 . S
C49 O45 1.269 . S
C50 O51 1.249 . S
C50 O52 1.270 . S
O51 Zn43 1.943 . S
O51 C50 1.249 . S
O52 Zn42 2.067 . S
O52 C50 1.270 . S
C53 O46 1.262 . S
C53 O54 1.232 . S
O54 C53 1.232 . S
C55 O47 1.260 . S
C55 O48 1.257 . S
Zn56 O59 2.031 . S
Zn56 O61 2.049 . S
Zn56 O66 2.067 . S
Zn57 O58 1.962 . S
Zn57 O60 1.986 . S
Zn57 O62 1.996 . S
Zn57 O65 1.943 . S
O58 Zn57 1.962 . S
O58 C63 1.254 . S
O59 Zn56 2.031 . S
O59 C63 1.269 . S
O60 Zn57 1.986 . S
O60 C67 1.262 . S
O61 Zn56 2.049 . S
O61 C69 1.260 . S
O62 Zn57 1.996 . S
O62 C69 1.257 . S
C63 O58 1.254 . S
C63 O59 1.269 . S
C64 O65 1.249 . S
C64 O66 1.270 . S
O65 Zn57 1.943 . S
O65 C64 1.249 . S
O66 Zn56 2.067 . S
O66 C64 1.270 . S
C67 O60 1.262 . S
C67 O68 1.232 . S
O68 C67 1.232 . S
C69 O61 1.260 . S
C69 O62 1.257 . S
Zn70 O73 2.031 . S
Zn70 O75 2.049 . S
Zn70 O80 2.067 . S
Zn71 O72 1.962 . S
Zn71 O74 1.986 . S
Zn71 O76 1.996 . S
Zn71 O79 1.943 1_556 S
O72 Zn71 1.962 . S
O72 C77 1.254 . S
O73 Zn70 2.031 . S
O73 C77 1.269 1_554 S
O74 Zn71 1.986 . S
O74 C81 1.262 . S
O75 Zn70 2.049 . S
O75 C83 1.244 1_554 S
O76 Zn71 1.996 . S
O76 C83 1.265 . S
C77 O72 1.254 . S
C77 O73 1.269 1_556 S
C78 O79 1.249 . S
C78 O80 1.270 . S
O79 Zn71 1.943 1_554 S
O79 C78 1.249 . S
O80 Zn70 2.067 . S
O80 C78 1.270 . S
C81 O74 1.262 . S
C81 O82 1.232 . S
O82 C81 1.232 . S
C83 O75 1.244 1_556 S
C83 O76 1.265 . S
Zn84 O87 2.031 . S
Zn84 O89 2.049 . S
Zn84 O94 2.067 . S
Zn85 O86 1.962 . S
Zn85 O88 1.986 . S
Zn85 O90 1.996 . S
Zn85 O93 1.943 . S
O86 Zn85 1.962 . S
O86 C91 1.254 . S
O87 Zn84 2.031 . S
O87 C91 1.269 . S
O88 Zn85 1.986 . S
O88 C95 1.262 . S
O89 Zn84 2.049 . S
O89 C97 1.260 . S
O90 Zn85 1.996 . S
O90 C97 1.257 . S
C91 O86 1.254 . S
C91 O87 1.269 . S
C92 O93 1.249 . S
C92 O94 1.270 . S
O93 Zn85 1.943 . S
O93 C92 1.249 . S
O94 Zn84 2.067 . S
O94 C92 1.270 . S
C95 O88 1.262 . S
C95 O96 1.232 . S
O96 C95 1.232 . S
C97 O89 1.260 . S
C97 O90 1.257 . S
Zn98 O101 2.031 . S
Zn98 O103 2.049 . S
Zn98 O108 2.067 . S
Zn99 O100 1.962 . S
Zn99 O102 1.986 . S
Zn99 O104 1.996 . S
Zn99 O107 1.943 . S
O100 Zn99 1.962 . S
O100 C105 1.254 . S
O101 Zn98 2.031 . S
O101 C105 1.269 . S
O102 Zn99 1.986 . S
O102 C109 1.262 . S
O103 Zn98 2.049 . S
O103 C111 1.260 . S
O104 Zn99 1.996 . S
O104 C111 1.257 . S
C105 O100 1.254 . S
C105 O101 1.269 . S
C106 O107 1.249 . S
C106 O108 1.270 . S
O107 Zn99 1.943 . S
O107 C106 1.249 . S
O108 Zn98 2.067 . S
O108 C106 1.270 . S
C109 O102 1.262 . S
C109 O110 1.232 . S
O110 C109 1.232 . S
C111 O103 1.260 . S
C111 O104 1.257 . S
Zn112 O115 2.031 . S
Zn112 O117 2.049 . S
Zn112 O122 2.067 . S
Zn113 O114 1.962 . S
Zn113 O116 1.986 . S
Zn113 O118 1.996 . S
Zn113 O121 1.943 1_554 S
O114 Zn113 1.962 . S
O114 C119 1.254 . S
O115 Zn112 2.031 . S
O115 C119 1.269 1_556 S
O116 Zn113 1.986 . S
O116 C123 1.262 . S
O117 Zn112 2.049 . S
O117 C125 1.244 1_556 S
O118 Zn113 1.996 . S
O118 C125 1.265 . S
C119 O114 1.254 . S
C119 O115 1.269 1_554 S
C120 O121 1.249 . S
C120 O122 1.270 . S
O121 Zn113 1.943 1_556 S
O121 C120 1.249 . S
O122 Zn112 2.067 . S
O122 C120 1.270 . S
C123 O116 1.262 . S
C123 O124 1.232 . S
O124 C123 1.232 . S
C125 O117 1.244 1_554 S
C125 O118 1.265 . S
Zn126 O129 2.031 . S
Zn126 O131 2.049 . S
Zn126 O136 2.067 . S
Zn127 O128 1.962 . S
Zn127 O130 1.986 . S
Zn127 O132 1.996 . S
Zn127 O135 1.943 . S
O128 Zn127 1.962 . S
O128 C133 1.254 . S
O129 Zn126 2.031 . S
O129 C133 1.269 . S
O130 Zn127 1.986 . S
O130 C137 1.262 . S
O131 Zn126 2.049 . S
O131 C139 1.260 . S
O132 Zn127 1.996 . S
O132 C139 1.257 . S
C133 O128 1.254 . S
C133 O129 1.269 . S
C134 O135 1.249 . S
C134 O136 1.270 . S
O135 Zn127 1.943 . S
O135 C134 1.249 . S
O136 Zn126 2.067 . S
O136 C134 1.270 . S
C137 O130 1.262 . S
C137 O138 1.232 . S
O138 C137 1.232 . S
C139 O131 1.260 . S
C139 O132 1.257 . S
Zn140 O143 2.031 . S
Zn140 O145 2.049 . S
Zn140 O150 2.067 . S
Zn141 O142 1.962 . S
Zn141 O144 1.986 . S
Zn141 O146 1.996 . S
Zn141 O149 1.943 . S
O142 Zn141 1.962 . S
O142 C147 1.254 . S
O143 Zn140 2.031 . S
O143 C147 1.269 . S
O144 Zn141 1.986 . S
O144 C151 1.262 . S
O145 Zn140 2.049 . S
O145 C153 1.260 . S
O146 Zn141 1.996 . S
O146 C153 1.257 . S
C147 O142 1.254 . S
C147 O143 1.269 . S
C148 O149 1.249 . S
C148 O150 1.270 . S
O149 Zn141 1.943 . S
O149 C148 1.249 . S
O150 Zn140 2.067 . S
O150 C148 1.270 . S
C151 O144 1.262 . S
C151 O152 1.232 . S
O152 C151 1.232 . S
C153 O145 1.260 . S
C153 O146 1.257 . S
Zn154 O157 2.031 . S
Zn154 O159 2.049 . S
Zn154 O164 2.067 . S
Zn155 O156 1.962 . S
Zn155 O158 1.986 . S
Zn155 O160 1.996 . S
Zn155 O163 1.943 1_554 S
O156 Zn155 1.962 . S
O156 C161 1.254 . S
O157 Zn154 2.031 . S
O157 C161 1.269 1_556 S
O158 Zn155 1.986 . S
O158 C165 1.262 . S
O159 Zn154 2.049 . S
O159 C167 1.244 1_556 S
O160 Zn155 1.996 . S
O160 C167 1.265 . S
C161 O156 1.254 . S
C161 O157 1.269 1_554 S
C162 O163 1.249 . S
C162 O164 1.270 . S
O163 Zn155 1.943 1_556 S
O163 C162 1.249 . S
O164 Zn154 2.067 . S
O164 C162 1.270 . S
C165 O158 1.262 . S
C165 O166 1.232 . S
O166 C165 1.232 . S
C167 O159 1.244 1_554 S
C167 O160 1.265 . S
H168 C180 0.930 . S
H169 C182 0.930 . S
H170 C183 0.930 . S
H171 C187 0.959 . S
H172 C187 0.959 . S
H173 C187 0.961 . S
H174 C188 0.960 . S
H175 C188 0.961 . S
H176 C188 0.959 . S
H177 C191 0.929 . S
H178 C192 0.931 . S
H179 C194 0.930 . S
C180 H168 0.930 . S
C180 C181 1.399 . S
C180 C185 1.399 . S
C181 C180 1.399 . S
C181 C182 1.376 . S
C182 H169 0.930 . S
C182 C181 1.376 . S
C182 C183 1.388 . S
C183 H170 0.930 . S
C183 C182 1.388 . S
C183 C184 1.390 . S
C184 C183 1.390 . S
C184 C185 1.394 . S
C184 C190 1.465 . S
C185 C180 1.399 . S
C185 C184 1.394 . S
C185 C186 1.516 . S
C186 C185 1.516 . S
C186 C187 1.502 . S
C186 C188 1.561 . S
C186 C189 1.526 . S
C187 H171 0.959 . S
C187 H172 0.959 . S
C187 H173 0.961 . S
C187 C186 1.502 . S
C188 H174 0.960 . S
C188 H175 0.961 . S
C188 H176 0.959 . S
C188 C186 1.561 . S
C189 C186 1.526 . S
C189 C190 1.396 . S
C189 C194 1.390 . S
C190 C184 1.465 . S
C190 C189 1.396 . S
C190 C191 1.399 . S
C191 H177 0.929 . S
C191 C190 1.399 . S
C191 C192 1.385 . S
C192 H178 0.931 . S
C192 C191 1.385 . S
C192 C193 1.389 . S
C193 C192 1.389 . S
C193 C194 1.387 . S
C194 H179 0.930 . S
C194 C189 1.390 . S
C194 C193 1.387 . S
H195 C207 0.930 . S
H196 C209 0.930 . S
H197 C210 0.930 . S
H198 C214 0.959 . S
H199 C214 0.959 . S
H200 C214 0.961 . S
H201 C215 0.960 . S
H202 C215 0.961 . S
H203 C215 0.959 . S
H204 C218 0.929 . S
H205 C219 0.931 . S
H206 C221 0.930 . S
C207 H195 0.930 . S
C207 C208 1.399 . S
C207 C212 1.399 . S
C208 C207 1.399 . S
C208 C209 1.376 . S
C209 H196 0.930 . S
C209 C208 1.376 . S
C209 C210 1.388 . S
C210 H197 0.930 . S
C210 C209 1.388 . S
C210 C211 1.390 . S
C211 C210 1.390 . S
C211 C212 1.394 . S
C211 C217 1.465 . S
C212 C207 1.399 . S
C212 C211 1.394 . S
C212 C213 1.516 . S
C213 C212 1.516 . S
C213 C214 1.502 . S
C213 C215 1.561 . S
C213 C216 1.526 . S
C214 H198 0.959 . S
C214 H199 0.959 . S
C214 H200 0.961 . S
C214 C213 1.502 . S
C215 H201 0.960 . S
C215 H202 0.961 . S
C215 H203 0.959 . S
C215 C213 1.561 . S
C216 C213 1.526 . S
C216 C217 1.396 . S
C216 C221 1.390 . S
C217 C211 1.465 . S
C217 C216 1.396 . S
C217 C218 1.399 . S
C218 H204 0.929 . S
C218 C217 1.399 . S
C218 C219 1.385 . S
C219 H205 0.931 . S
C219 C218 1.385 . S
C219 C220 1.389 . S
C220 C219 1.389 . S
C220 C221 1.387 . S
C221 H206 0.930 . S
C221 C216 1.390 . S
C221 C220 1.387 . S
H222 C234 0.930 . S
H223 C236 0.930 . S
H224 C237 0.930 . S
H225 C241 0.959 . S
H226 C241 0.959 . S
H227 C241 0.961 . S
H228 C242 0.960 . S
H229 C242 0.961 . S
H230 C242 0.959 . S
H231 C245 0.929 . S
H232 C246 0.931 . S
H233 C248 0.930 . S
C234 H222 0.930 . S
C234 C235 1.399 1_554 S
C234 C239 1.399 . S
C235 C234 1.399 1_556 S
C235 C236 1.376 . S
C236 H223 0.930 . S
C236 C235 1.376 . S
C236 C237 1.388 . S
C237 H224 0.930 . S
C237 C236 1.388 . S
C237 C238 1.390 . S
C238 C237 1.390 . S
C238 C239 1.394 1_556 S
C238 C244 1.465 . S
C239 C234 1.399 . S
C239 C238 1.394 1_554 S
C239 C240 1.516 . S
C240 C239 1.516 . S
C240 C241 1.502 . S
C240 C242 1.561 . S
C240 C243 1.526 . S
C241 H225 0.959 . S
C241 H226 0.959 . S
C241 H227 0.961 . S
C241 C240 1.502 . S
C242 H228 0.960 . S
C242 H229 0.961 . S
C242 H230 0.959 . S
C242 C240 1.561 . S
C243 C240 1.526 . S
C243 C244 1.396 1_554 S
C243 C248 1.390 . S
C244 C238 1.465 . S
C244 C243 1.396 1_556 S
C244 C245 1.399 . S
C245 H231 0.929 . S
C245 C244 1.399 . S
C245 C246 1.385 . S
C246 H232 0.931 . S
C246 C245 1.385 . S
C246 C247 1.389 1_556 S
C247 C246 1.389 1_554 S
C247 C248 1.387 . S
C248 H233 0.930 . S
C248 C243 1.390 . S
C248 C247 1.387 . S
H249 C261 0.930 . S
H250 C263 0.930 . S
H251 C264 0.930 . S
H252 C268 0.959 . S
H253 C268 0.959 . S
H254 C268 0.961 . S
H255 C269 0.960 . S
H256 C269 0.961 . S
H257 C269 0.959 . S
H258 C272 0.929 . S
H259 C273 0.931 . S
H260 C275 0.930 . S
C261 H249 0.930 . S
C261 C262 1.399 . S
C261 C266 1.399 . S
C262 C261 1.399 . S
C262 C263 1.376 . S
C263 H250 0.930 . S
C263 C262 1.376 . S
C263 C264 1.388 . S
C264 H251 0.930 . S
C264 C263 1.388 . S
C264 C265 1.390 . S
C265 C264 1.390 . S
C265 C266 1.394 . S
C265 C271 1.465 . S
C266 C261 1.399 . S
C266 C265 1.394 . S
C266 C267 1.516 . S
C267 C266 1.516 . S
C267 C268 1.502 . S
C267 C269 1.561 . S
C267 C270 1.526 . S
C268 H252 0.959 . S
C268 H253 0.959 . S
C268 H254 0.961 . S
C268 C267 1.502 . S
C269 H255 0.960 . S
C269 H256 0.961 . S
C269 H257 0.959 . S
C269 C267 1.561 . S
C270 C267 1.526 . S
C270 C271 1.396 . S
C270 C275 1.390 . S
C271 C265 1.465 . S
C271 C270 1.396 . S
C271 C272 1.399 . S
C272 H258 0.929 . S
C272 C271 1.399 . S
C272 C273 1.385 . S
C273 H259 0.931 . S
C273 C272 1.385 . S
C273 C274 1.389 . S
C274 C273 1.389 . S
C274 C275 1.387 . S
C275 H260 0.930 . S
C275 C270 1.390 . S
C275 C274 1.387 . S
H276 C288 0.930 . S
H277 C290 0.930 . S
H278 C291 0.930 . S
H279 C295 0.959 . S
H280 C295 0.959 . S
H281 C295 0.961 . S
H282 C296 0.960 . S
H283 C296 0.961 . S
H284 C296 0.959 . S
H285 C299 0.929 . S
H286 C300 0.931 . S
H287 C302 0.930 . S
C288 H276 0.930 . S
C288 C289 1.399 . S
C288 C293 1.399 . S
C289 C288 1.399 . S
C289 C290 1.376 . S
C290 H277 0.930 . S
C290 C289 1.376 . S
C290 C291 1.388 . S
C291 H278 0.930 . S
C291 C290 1.388 . S
C291 C292 1.390 . S
C292 C291 1.390 . S
C292 C293 1.394 . S
C292 C298 1.465 . S
C293 C288 1.399 . S
C293 C292 1.394 . S
C293 C294 1.516 . S
C294 C293 1.516 . S
C294 C295 1.502 . S
C294 C296 1.561 . S
C294 C297 1.526 . S
C295 H279 0.959 . S
C295 H280 0.959 . S
C295 H281 0.961 . S
C295 C294 1.502 . S
C296 H282 0.960 . S
C296 H283 0.961 . S
C296 H284 0.959 . S
C296 C294 1.561 . S
C297 C294 1.526 . S
C297 C298 1.396 . S
C297 C302 1.390 . S
C298 C292 1.465 . S
C298 C297 1.396 . S
C298 C299 1.399 . S
C299 H285 0.929 . S
C299 C298 1.399 . S
C299 C300 1.385 . S
C300 H286 0.931 . S
C300 C299 1.385 . S
C300 C301 1.389 . S
C301 C300 1.389 . S
C301 C302 1.387 . S
C302 H287 0.930 . S
C302 C297 1.390 . S
C302 C301 1.387 . S
H303 C315 0.930 . S
H304 C317 0.930 . S
H305 C318 0.930 . S
H306 C322 0.959 . S
H307 C322 0.959 . S
H308 C322 0.961 . S
H309 C323 0.960 . S
H310 C323 0.961 . S
H311 C323 0.959 . S
H312 C326 0.929 . S
H313 C327 0.931 . S
H314 C329 0.930 . S
C315 H303 0.930 . S
C315 C316 1.399 1_556 S
C315 C320 1.399 . S
C316 C315 1.399 1_554 S
C316 C317 1.376 . S
C317 H304 0.930 . S
C317 C316 1.376 . S
C317 C318 1.388 . S
C318 H305 0.930 . S
C318 C317 1.388 . S
C318 C319 1.390 . S
C319 C318 1.390 . S
C319 C320 1.394 1_554 S
C319 C325 1.465 . S
C320 C315 1.399 . S
C320 C319 1.394 1_556 S
C320 C321 1.516 . S
C321 C320 1.516 . S
C321 C322 1.502 . S
C321 C323 1.561 1_556 S
C321 C324 1.526 . S
C322 H306 0.959 . S
C322 H307 0.959 . S
C322 H308 0.961 . S
C322 C321 1.502 . S
C323 H309 0.960 . S
C323 H310 0.961 . S
C323 H311 0.959 . S
C323 C321 1.561 1_554 S
C324 C321 1.526 . S
C324 C325 1.396 1_556 S
C324 C329 1.390 . S
C325 C319 1.465 . S
C325 C324 1.396 1_554 S
C325 C326 1.399 . S
C326 H312 0.929 . S
C326 C325 1.399 . S
C326 C327 1.385 . S
C327 H313 0.931 . S
C327 C326 1.385 . S
C327 C328 1.389 1_554 S
C328 C327 1.389 1_556 S
C328 C329 1.387 . S
C329 H314 0.930 . S
C329 C324 1.390 . S
C329 C328 1.387 . S
H330 C342 0.930 . S
H331 C344 0.930 . S
H332 C345 0.930 . S
H333 C349 0.959 . S
H334 C349 0.959 . S
H335 C349 0.961 . S
H336 C350 0.960 . S
H337 C350 0.961 . S
H338 C350 0.959 . S
H339 C353 0.929 . S
H340 C354 0.931 . S
H341 C356 0.930 . S
C342 H330 0.930 . S
C342 C343 1.399 . S
C342 C347 1.399 . S
C343 C342 1.399 . S
C343 C344 1.376 . S
C344 H331 0.930 . S
C344 C343 1.376 . S
C344 C345 1.388 . S
C345 H332 0.930 . S
C345 C344 1.388 . S
C345 C346 1.390 . S
C346 C345 1.390 . S
C346 C347 1.394 . S
C346 C352 1.465 . S
C347 C342 1.399 . S
C347 C346 1.394 . S
C347 C348 1.516 . S
C348 C347 1.516 . S
C348 C349 1.502 . S
C348 C350 1.561 . S
C348 C351 1.526 . S
C349 H333 0.959 . S
C349 H334 0.959 . S
C349 H335 0.961 . S
C349 C348 1.502 . S
C350 H336 0.960 . S
C350 H337 0.961 . S
C350 H338 0.959 . S
C350 C348 1.561 . S
C351 C348 1.526 . S
C351 C352 1.396 . S
C351 C356 1.390 . S
C352 C346 1.465 . S
C352 C351 1.396 . S
C352 C353 1.399 . S
C353 H339 0.929 . S
C353 C352 1.399 . S
C353 C354 1.385 . S
C354 H340 0.931 . S
C354 C353 1.385 . S
C354 C355 1.389 . S
C355 C354 1.389 . S
C355 C356 1.387 . S
C356 H341 0.930 . S
C356 C351 1.390 . S
C356 C355 1.387 . S
H357 C369 0.930 . S
H358 C371 0.930 . S
H359 C372 0.930 . S
H360 C376 0.959 . S
H361 C376 0.959 1_455 S
H362 C376 0.961 . S
H363 C377 0.960 1_655 S
H364 C377 0.961 . S
H365 C377 0.959 . S
H366 C380 0.929 . S
H367 C381 0.931 . S
H368 C383 0.930 . S
C369 H357 0.930 . S
C369 C370 1.399 . S
C369 C374 1.399 . S
C370 C369 1.399 . S
C370 C371 1.376 . S
C371 H358 0.930 . S
C371 C370 1.376 . S
C371 C372 1.388 . S
C372 H359 0.930 . S
C372 C371 1.388 . S
C372 C373 1.390 . S
C373 C372 1.390 . S
C373 C374 1.394 . S
C373 C379 1.465 1_655 S
C374 C369 1.399 . S
C374 C373 1.394 . S
C374 C375 1.516 1_655 S
C375 C374 1.516 1_455 S
C375 C376 1.502 1_455 S
C375 C377 1.561 . S
C375 C378 1.526 . S
C376 H360 0.959 . S
C376 H361 0.959 1_655 S
C376 H362 0.961 . S
C376 C375 1.502 1_655 S
C377 H363 0.960 1_455 S
C377 H364 0.961 . S
C377 H365 0.959 . S
C377 C375 1.561 . S
C378 C375 1.526 . S
C378 C379 1.396 . S
C378 C383 1.390 . S
C379 C373 1.465 1_455 S
C379 C378 1.396 . S
C379 C380 1.399 . S
C380 H366 0.929 . S
C380 C379 1.399 . S
C380 C381 1.385 . S
C381 H367 0.931 . S
C381 C380 1.385 . S
C381 C382 1.389 . S
C382 C381 1.389 . S
C382 C383 1.387 . S
C383 H368 0.930 . S
C383 C378 1.390 . S
C383 C382 1.387 . S
H384 C396 0.930 . S
H385 C398 0.930 . S
H386 C399 0.930 . S
H387 C403 0.959 . S
H388 C403 0.959 1_565 S
H389 C403 0.961 . S
H390 C404 0.960 . S
H391 C404 0.961 1_565 S
H392 C404 0.959 . S
H393 C407 0.929 . S
H394 C408 0.931 . S
H395 C410 0.930 . S
C396 H384 0.930 . S
C396 C397 1.399 1_556 S
C396 C401 1.399 . S
C397 C396 1.399 1_554 S
C397 C398 1.376 . S
C398 H385 0.930 . S
C398 C397 1.376 . S
C398 C399 1.388 . S
C399 H386 0.930 . S
C399 C398 1.388 . S
C399 C400 1.390 . S
C400 C399 1.390 . S
C400 C401 1.394 1_554 S
C400 C406 1.465 1_545 S
C401 C396 1.399 . S
C401 C400 1.394 1_556 S
C401 C402 1.516 . S
C402 C401 1.516 . S
C402 C403 1.502 . S
C402 C404 1.561 . S
C402 C405 1.526 1_545 S
C403 H387 0.959 . S
C403 H388 0.959 1_545 S
C403 H389 0.961 . S
C403 C402 1.502 . S
C404 H390 0.960 . S
C404 H391 0.961 1_545 S
C404 H392 0.959 . S
C404 C402 1.561 . S
C405 C402 1.526 1_565 S
C405 C406 1.396 1_556 S
C405 C410 1.390 . S
C406 C400 1.465 1_565 S
C406 C405 1.396 1_554 S
C406 C407 1.399 . S
C407 H393 0.929 . S
C407 C406 1.399 . S
C407 C408 1.385 . S
C408 H394 0.931 . S
C408 C407 1.385 . S
C408 C409 1.389 1_554 S
C409 C408 1.389 1_556 S
C409 C410 1.387 . S
C410 H395 0.930 . S
C410 C405 1.390 . S
C410 C409 1.387 . S
H411 C423 0.930 . S
H412 C425 0.930 . S
H413 C426 0.930 . S
H414 C430 0.959 . S
H415 C430 0.959 . S
H416 C430 0.961 . S
H417 C431 0.960 . S
H418 C431 0.961 . S
H419 C431 0.959 . S
H420 C434 0.929 . S
H421 C435 0.931 . S
H422 C437 0.930 . S
C423 H411 0.930 . S
C423 C424 1.399 . S
C423 C428 1.399 . S
C424 C423 1.399 . S
C424 C425 1.376 . S
C425 H412 0.930 . S
C425 C424 1.376 . S
C425 C426 1.388 . S
C426 H413 0.930 . S
C426 C425 1.388 . S
C426 C427 1.390 . S
C427 C426 1.390 . S
C427 C428 1.394 . S
C427 C433 1.465 . S
C428 C423 1.399 . S
C428 C427 1.394 . S
C428 C429 1.516 . S
C429 C428 1.516 . S
C429 C430 1.502 . S
C429 C431 1.561 . S
C429 C432 1.526 . S
C430 H414 0.959 . S
C430 H415 0.959 . S
C430 H416 0.961 . S
C430 C429 1.502 . S
C431 H417 0.960 . S
C431 H418 0.961 . S
C431 H419 0.959 . S
C431 C429 1.561 . S
C432 C429 1.526 . S
C432 C433 1.396 . S
C432 C437 1.390 . S
C433 C427 1.465 . S
C433 C432 1.396 . S
C433 C434 1.399 . S
C434 H420 0.929 . S
C434 C433 1.399 . S
C434 C435 1.385 . S
C435 H421 0.931 . S
C435 C434 1.385 . S
C435 C436 1.389 . S
C436 C435 1.389 . S
C436 C437 1.387 . S
C437 H422 0.930 . S
C437 C432 1.390 . S
C437 C436 1.387 . S
H438 C450 0.930 . S
H439 C452 0.930 . S
H440 C453 0.930 . S
H441 C457 0.959 . S
H442 C457 0.959 . S
H443 C457 0.961 1_455 S
H444 C458 0.960 1_455 S
H445 C458 0.961 . S
H446 C458 0.959 . S
H447 C461 0.929 . S
H448 C462 0.931 . S
H449 C464 0.930 . S
C450 H438 0.930 . S
C450 C451 1.399 . S
C450 C455 1.399 . S
C451 C450 1.399 . S
C451 C452 1.376 . S
C452 H439 0.930 . S
C452 C451 1.376 . S
C452 C453 1.388 . S
C453 H440 0.930 . S
C453 C452 1.388 . S
C453 C454 1.390 . S
C454 C453 1.390 . S
C454 C455 1.394 . S
C454 C460 1.465 1_455 S
C455 C450 1.399 . S
C455 C454 1.394 . S
C455 C456 1.516 1_455 S
C456 C455 1.516 1_655 S
C456 C457 1.502 . S
C456 C458 1.561 . S
C456 C459 1.526 . S
C457 H441 0.959 . S
C457 H442 0.959 . S
C457 H443 0.961 1_655 S
C457 C456 1.502 . S
C458 H444 0.960 1_655 S
C458 H445 0.961 . S
C458 H446 0.959 . S
C458 C456 1.561 . S
C459 C456 1.526 . S
C459 C460 1.396 . S
C459 C464 1.390 . S
C460 C454 1.465 1_655 S
C460 C459 1.396 . S
C460 C461 1.399 . S
C461 H447 0.929 . S
C461 C460 1.399 . S
C461 C462 1.385 . S
C462 H448 0.931 . S
C462 C461 1.385 . S
C462 C463 1.389 . S
C463 C462 1.389 . S
C463 C464 1.387 . S
C464 H449 0.930 . S
C464 C459 1.390 . S
C464 C463 1.387 . S
H465 C477 0.930 . S
H466 C479 0.930 . S
H467 C480 0.930 . S
H468 C484 0.959 1_565 S
H469 C484 0.959 1_565 S
H470 C484 0.961 . S
H471 C485 0.960 . S
H472 C485 0.961 1_565 S
H473 C485 0.959 . S
H474 C488 0.929 . S
H475 C489 0.931 . S
H476 C491 0.930 . S
C477 H465 0.930 . S
C477 C478 1.399 1_554 S
C477 C482 1.399 . S
C478 C477 1.399 1_556 S
C478 C479 1.376 . S
C479 H466 0.930 . S
C479 C478 1.376 . S
C479 C480 1.388 . S
C480 H467 0.930 . S
C480 C479 1.388 . S
C480 C481 1.390 . S
C481 C480 1.390 . S
C481 C482 1.394 1_556 S
C481 C487 1.465 1_545 S
C482 C477 1.399 . S
C482 C481 1.394 1_554 S
C482 C483 1.516 . S
C483 C482 1.516 . S
C483 C484 1.502 . S
C483 C485 1.561 . S
C483 C486 1.526 1_545 S
C484 H468 0.959 1_545 S
C484 H469 0.959 1_545 S
C484 H470 0.961 . S
C484 C483 1.502 . S
C485 H471 0.960 . S
C485 H472 0.961 1_545 S
C485 H473 0.959 . S
C485 C483 1.561 . S
C486 C483 1.526 1_565 S
C486 C487 1.396 1_554 S
C486 C491 1.390 . S
C487 C481 1.465 1_565 S
C487 C486 1.396 1_556 S
C487 C488 1.399 . S
C488 H474 0.929 . S
C488 C487 1.399 . S
C488 C489 1.385 . S
C489 H475 0.931 . S
C489 C488 1.385 . S
C489 C490 1.389 1_556 S
C490 C489 1.389 1_554 S
C490 C491 1.387 . S
C491 H476 0.930 . S
C491 C486 1.390 . S
C491 C490 1.387 . S
H492 C504 0.930 . S
H493 C506 0.930 . S
H494 C507 0.930 . S
H495 C511 0.959 . S
H496 C511 0.959 . S
H497 C511 0.961 . S
H498 C512 0.960 . S
H499 C512 0.961 . S
H500 C512 0.959 . S
H501 C515 0.929 . S
H502 C516 0.931 . S
H503 C518 0.930 . S
C504 H492 0.930 . S
C504 C505 1.399 . S
C504 C509 1.399 . S
C505 C504 1.399 . S
C505 C506 1.376 . S
C506 H493 0.930 . S
C506 C505 1.376 . S
C506 C507 1.388 . S
C507 H494 0.930 . S
C507 C506 1.388 . S
C507 C508 1.390 . S
C508 C507 1.390 . S
C508 C509 1.394 . S
C508 C514 1.465 1_655 S
C509 C504 1.399 . S
C509 C508 1.394 . S
C509 C510 1.516 . S
C510 C509 1.516 . S
C510 C511 1.502 . S
C510 C512 1.561 1_655 S
C510 C513 1.526 1_655 S
C511 H495 0.959 . S
C511 H496 0.959 . S
C511 H497 0.961 . S
C511 C510 1.502 . S
C512 H498 0.960 . S
C512 H499 0.961 . S
C512 H500 0.959 . S
C512 C510 1.561 1_455 S
C513 C510 1.526 1_455 S
C513 C514 1.396 . S
C513 C518 1.390 . S
C514 C508 1.465 1_455 S
C514 C513 1.396 . S
C514 C515 1.399 . S
C515 H501 0.929 . S
C515 C514 1.399 . S
C515 C516 1.385 . S
C516 H502 0.931 . S
C516 C515 1.385 . S
C516 C517 1.389 . S
C517 C516 1.389 . S
C517 C518 1.387 . S
C518 H503 0.930 . S
C518 C513 1.390 . S
C518 C517 1.387 . S
H519 C531 0.930 . S
H520 C533 0.930 . S
H521 C534 0.930 . S
H522 C538 0.959 . S
H523 C538 0.959 . S
H524 C538 0.961 . S
H525 C539 0.960 . S
H526 C539 0.961 . S
H527 C539 0.959 . S
H528 C542 0.929 . S
H529 C543 0.931 . S
H530 C545 0.930 . S
C531 H519 0.930 . S
C531 C532 1.399 . S
C531 C536 1.399 . S
C532 C531 1.399 . S
C532 C533 1.376 . S
C533 H520 0.930 . S
C533 C532 1.376 . S
C533 C534 1.388 1_545 S
C534 H521 0.930 . S
C534 C533 1.388 1_565 S
C534 C535 1.397 . S
C535 C534 1.397 . S
C535 C536 1.371 1_565 S
C535 C541 1.477 . S
C536 C531 1.399 . S
C536 C535 1.371 1_545 S
C536 C537 1.516 . S
C537 C536 1.516 . S
C537 C538 1.502 . S
C537 C539 1.561 . S
C537 C540 1.526 1_545 S
C538 H522 0.959 . S
C538 H523 0.959 . S
C538 H524 0.961 . S
C538 C537 1.502 . S
C539 H525 0.960 . S
C539 H526 0.961 . S
C539 H527 0.959 . S
C539 C537 1.561 . S
C540 C537 1.526 1_565 S
C540 C541 1.396 . S
C540 C545 1.390 . S
C541 C535 1.477 . S
C541 C540 1.396 . S
C541 C542 1.399 . S
C542 H528 0.929 . S
C542 C541 1.399 . S
C542 C543 1.385 . S
C543 H529 0.931 . S
C543 C542 1.385 . S
C543 C544 1.389 . S
C544 C543 1.389 . S
C544 C545 1.387 . S
C545 H530 0.930 . S
C545 C540 1.390 . S
C545 C544 1.387 . S
H546 C558 0.930 . S
H547 C560 0.930 . S
H548 C561 0.930 . S
H549 C565 0.959 . S
H550 C565 0.959 . S
H551 C565 0.961 . S
H552 C566 0.960 . S
H553 C566 0.961 . S
H554 C566 0.959 . S
H555 C569 0.929 . S
H556 C570 0.931 . S
H557 C572 0.930 . S
C558 H546 0.930 . S
C558 C559 1.399 . S
C558 C563 1.399 . S
C559 C558 1.399 . S
C559 C560 1.376 . S
C560 H547 0.930 . S
C560 C559 1.376 . S
C560 C561 1.388 . S
C561 H548 0.930 . S
C561 C560 1.388 . S
C561 C562 1.390 . S
C562 C561 1.390 . S
C562 C563 1.394 . S
C562 C568 1.465 . S
C563 C558 1.399 . S
C563 C562 1.394 . S
C563 C564 1.516 . S
C564 C563 1.516 . S
C564 C565 1.502 . S
C564 C566 1.561 . S
C564 C567 1.526 . S
C565 H549 0.959 . S
C565 H550 0.959 . S
C565 H551 0.961 . S
C565 C564 1.502 . S
C566 H552 0.960 . S
C566 H553 0.961 . S
C566 H554 0.959 . S
C566 C564 1.561 . S
C567 C564 1.526 . S
C567 C568 1.396 . S
C567 C572 1.390 . S
C568 C562 1.465 . S
C568 C567 1.396 . S
C568 C569 1.399 . S
C569 H555 0.929 . S
C569 C568 1.399 . S
C569 C570 1.385 . S
C570 H556 0.931 . S
C570 C569 1.385 . S
C570 C571 1.389 . S
C571 C570 1.389 . S
C571 C572 1.387 . S
C572 H557 0.930 . S
C572 C567 1.390 . S
C572 C571 1.387 . S
H573 C585 0.930 . S
H574 C587 0.930 . S
H575 C588 0.930 . S
H576 C592 0.959 . S
H577 C592 0.959 . S
H578 C592 0.961 . S
H579 C593 0.960 . S
H580 C593 0.961 . S
H581 C593 0.959 1_455 S
H582 C596 0.929 . S
H583 C597 0.931 . S
H584 C599 0.930 . S
C585 H573 0.930 . S
C585 C586 1.399 . S
C585 C590 1.399 . S
C586 C585 1.399 . S
C586 C587 1.376 . S
C587 H574 0.930 . S
C587 C586 1.376 . S
C587 C588 1.388 . S
C588 H575 0.930 . S
C588 C587 1.388 . S
C588 C589 1.390 . S
C589 C588 1.390 . S
C589 C590 1.394 . S
C589 C595 1.465 . S
C590 C585 1.399 . S
C590 C589 1.394 . S
C590 C591 1.516 1_455 S
C591 C590 1.516 1_655 S
C591 C592 1.502 . S
C591 C593 1.561 . S
C591 C594 1.526 . S
C592 H576 0.959 . S
C592 H577 0.959 . S
C592 H578 0.961 . S
C592 C591 1.502 . S
C593 H579 0.960 . S
C593 H580 0.961 . S
C593 H581 0.959 1_655 S
C593 C591 1.561 . S
C594 C591 1.526 . S
C594 C595 1.396 1_655 S
C594 C599 1.390 . S
C595 C589 1.465 . S
C595 C594 1.396 1_455 S
C595 C596 1.399 . S
C596 H582 0.929 . S
C596 C595 1.399 . S
C596 C597 1.385 1_455 S
C597 H583 0.931 . S
C597 C596 1.385 1_655 S
C597 C598 1.389 . S
C598 C597 1.389 . S
C598 C599 1.387 . S
C599 H584 0.930 . S
C599 C594 1.390 . S
C599 C598 1.387 . S
H600 C612 0.930 . S
H601 C614 0.930 . S
H602 C615 0.930 . S
H603 C619 0.959 . S
H604 C619 0.959 . S
H605 C619 0.961 . S
H606 C620 0.960 . S
H607 C620 0.961 . S
H608 C620 0.959 . S
H609 C623 0.929 . S
H610 C624 0.931 . S
H611 C626 0.930 . S
C612 H600 0.930 . S
C612 C613 1.399 . S
C612 C617 1.399 . S
C613 C612 1.399 . S
C613 C614 1.376 . S
C614 H601 0.930 . S
C614 C613 1.376 . S
C614 C615 1.388 . S
C615 H602 0.930 . S
C615 C614 1.388 . S
C615 C616 1.390 . S
C616 C615 1.390 . S
C616 C617 1.394 . S
C616 C622 1.465 . S
C617 C612 1.399 . S
C617 C616 1.394 . S
C617 C618 1.516 1_545 S
C618 C617 1.516 1_565 S
C618 C619 1.502 . S
C618 C620 1.561 . S
C618 C621 1.526 . S
C619 H603 0.959 . S
C619 H604 0.959 . S
C619 H605 0.961 . S
C619 C618 1.502 . S
C620 H606 0.960 . S
C620 H607 0.961 . S
C620 H608 0.959 . S
C620 C618 1.561 . S
C621 C618 1.526 . S
C621 C622 1.396 1_565 S
C621 C626 1.390 . S
C622 C616 1.465 . S
C622 C621 1.396 1_545 S
C622 C623 1.399 . S
C623 H609 0.929 . S
C623 C622 1.399 . S
C623 C624 1.385 1_545 S
C624 H610 0.931 . S
C624 C623 1.385 1_565 S
C624 C625 1.389 . S
C625 C624 1.389 . S
C625 C626 1.387 . S
C626 H611 0.930 . S
C626 C621 1.390 . S
C626 C625 1.387 . S
H627 C639 0.930 . S
H628 C641 0.930 . S
H629 C642 0.930 . S
H630 C646 0.959 . S
H631 C646 0.959 . S
H632 C646 0.961 . S
H633 C647 0.960 . S
H634 C647 0.961 . S
H635 C647 0.959 . S
H636 C650 0.929 . S
H637 C651 0.931 . S
H638 C653 0.930 . S
C639 H627 0.930 . S
C639 C640 1.399 . S
C639 C644 1.399 . S
C640 C639 1.399 . S
C640 C641 1.376 . S
C641 H628 0.930 . S
C641 C640 1.376 . S
C641 C642 1.388 . S
C642 H629 0.930 . S
C642 C641 1.388 . S
C642 C643 1.390 . S
C643 C642 1.390 . S
C643 C644 1.394 . S
C643 C649 1.465 . S
C644 C639 1.399 . S
C644 C643 1.394 . S
C644 C645 1.516 . S
C645 C644 1.516 . S
C645 C646 1.502 . S
C645 C647 1.561 . S
C645 C648 1.526 . S
C646 H630 0.959 . S
C646 H631 0.959 . S
C646 H632 0.961 . S
C646 C645 1.502 . S
C647 H633 0.960 . S
C647 H634 0.961 . S
C647 H635 0.959 . S
C647 C645 1.561 . S
C648 C645 1.526 . S
C648 C649 1.396 . S
C648 C653 1.390 . S
C649 C643 1.465 . S
C649 C648 1.396 . S
C649 C650 1.399 . S
C650 H636 0.929 . S
C650 C649 1.399 . S
C650 C651 1.385 . S
C651 H637 0.931 . S
C651 C650 1.385 . S
C651 C652 1.389 . S
C652 C651 1.389 . S
C652 C653 1.387 . S
C653 H638 0.930 . S
C653 C648 1.390 . S
C653 C652 1.387 . S
H654 C666 0.930 . S
H655 C668 0.930 . S
H656 C669 0.930 . S
H657 C673 0.959 . S
H658 C673 0.959 . S
H659 C673 0.961 . S
H660 C674 0.960 . S
H661 C674 0.961 . S
H662 C674 0.959 . S
H663 C677 0.929 . S
H664 C678 0.931 . S
H665 C680 0.930 . S
C666 H654 0.930 . S
C666 C667 1.399 . S
C666 C671 1.399 . S
C667 C666 1.399 . S
C667 C668 1.376 . S
C668 H655 0.930 . S
C668 C667 1.376 . S
C668 C669 1.388 . S
C669 H656 0.930 . S
C669 C668 1.388 . S
C669 C670 1.390 . S
C670 C669 1.390 . S
C670 C671 1.394 . S
C670 C676 1.465 . S
C671 C666 1.399 . S
C671 C670 1.394 . S
C671 C672 1.516 . S
C672 C671 1.516 . S
C672 C673 1.502 . S
C672 C674 1.561 . S
C672 C675 1.526 . S
C673 H657 0.959 . S
C673 H658 0.959 . S
C673 H659 0.961 . S
C673 C672 1.502 . S
C674 H660 0.960 . S
C674 H661 0.961 . S
C674 H662 0.959 . S
C674 C672 1.561 . S
C675 C672 1.526 . S
C675 C676 1.396 . S
C675 C680 1.390 . S
C676 C670 1.465 . S
C676 C675 1.396 . S
C676 C677 1.399 . S
C677 H663 0.929 . S
C677 C676 1.399 . S
C677 C678 1.385 . S
C678 H664 0.931 . S
C678 C677 1.385 . S
C678 C679 1.389 . S
C679 C678 1.389 . S
C679 C680 1.387 . S
C680 H665 0.930 . S
C680 C675 1.390 . S
C680 C679 1.387 . S
H681 C693 0.930 . S
H682 C695 0.930 . S
H683 C696 0.930 . S
H684 C700 0.959 . S
H685 C700 0.959 . S
H686 C700 0.961 . S
H687 C701 0.960 . S
H688 C701 0.961 . S
H689 C701 0.959 . S
H690 C704 0.929 . S
H691 C705 0.931 . S
H692 C707 0.930 . S
C693 H681 0.930 . S
C693 C694 1.399 . S
C693 C698 1.399 . S
C694 C693 1.399 . S
C694 C695 1.376 . S
C695 H682 0.930 . S
C695 C694 1.376 . S
C695 C696 1.388 . S
C696 H683 0.930 . S
C696 C695 1.388 . S
C696 C697 1.390 . S
C697 C696 1.390 . S
C697 C698 1.394 . S
C697 C703 1.465 . S
C698 C693 1.399 . S
C698 C697 1.394 . S
C698 C699 1.516 . S
C699 C698 1.516 . S
C699 C700 1.502 . S
C699 C701 1.561 . S
C699 C702 1.526 . S
C700 H684 0.959 . S
C700 H685 0.959 . S
C700 H686 0.961 . S
C700 C699 1.502 . S
C701 H687 0.960 . S
C701 H688 0.961 . S
C701 H689 0.959 . S
C701 C699 1.561 . S
C702 C699 1.526 . S
C702 C703 1.396 . S
C702 C707 1.390 . S
C703 C697 1.465 . S
C703 C702 1.396 . S
C703 C704 1.399 . S
C704 H690 0.929 . S
C704 C703 1.399 . S
C704 C705 1.385 . S
C705 H691 0.931 . S
C705 C704 1.385 . S
C705 C706 1.389 . S
C706 C705 1.389 . S
C706 C707 1.387 . S
C707 H692 0.930 . S
C707 C702 1.390 . S
C707 C706 1.387 . S
H708 C720 0.930 . S
H709 C722 0.930 . S
H710 C723 0.930 . S
H711 C727 0.959 . S
H712 C727 0.959 . S
H713 C727 0.961 . S
H714 C728 0.960 . S
H715 C728 0.961 . S
H716 C728 0.959 . S
H717 C731 0.929 . S
H718 C732 0.931 . S
H719 C734 0.930 . S
C720 H708 0.930 . S
C720 C721 1.399 . S
C720 C725 1.399 . S
C721 C720 1.399 . S
C721 C722 1.376 . S
C722 H709 0.930 . S
C722 C721 1.376 . S
C722 C723 1.388 . S
C723 H710 0.930 . S
C723 C722 1.388 . S
C723 C724 1.390 . S
C724 C723 1.390 . S
C724 C725 1.394 . S
C724 C730 1.465 . S
C725 C720 1.399 . S
C725 C724 1.394 . S
C725 C726 1.516 . S
C726 C725 1.516 . S
C726 C727 1.502 . S
C726 C728 1.561 . S
C726 C729 1.526 . S
C727 H711 0.959 . S
C727 H712 0.959 . S
C727 H713 0.961 . S
C727 C726 1.502 . S
C728 H714 0.960 . S
C728 H715 0.961 . S
C728 H716 0.959 . S
C728 C726 1.561 . S
C729 C726 1.526 . S
C729 C730 1.396 . S
C729 C734 1.390 . S
C730 C724 1.465 . S
C730 C729 1.396 . S
C730 C731 1.399 . S
C731 H717 0.929 . S
C731 C730 1.399 . S
C731 C732 1.385 . S
C732 H718 0.931 . S
C732 C731 1.385 . S
C732 C733 1.389 . S
C733 C732 1.389 . S
C733 C734 1.387 . S
C734 H719 0.930 . S
C734 C729 1.390 . S
C734 C733 1.387 . S
H735 C747 0.930 . S
H736 C749 0.930 . S
H737 C750 0.930 . S
H738 C754 0.959 . S
H739 C754 0.959 . S
H740 C754 0.961 . S
H741 C755 0.960 . S
H742 C755 0.961 . S
H743 C755 0.959 . S
H744 C758 0.929 . S
H745 C759 0.931 . S
H746 C761 0.930 . S
C747 H735 0.930 . S
C747 C748 1.399 . S
C747 C752 1.399 . S
C748 C747 1.399 . S
C748 C749 1.376 . S
C749 H736 0.930 . S
C749 C748 1.376 . S
C749 C750 1.388 . S
C750 H737 0.930 . S
C750 C749 1.388 . S
C750 C751 1.390 . S
C751 C750 1.390 . S
C751 C752 1.394 . S
C751 C757 1.465 . S
C752 C747 1.399 . S
C752 C751 1.394 . S
C752 C753 1.516 . S
C753 C752 1.516 . S
C753 C754 1.502 . S
C753 C755 1.561 . S
C753 C756 1.526 . S
C754 H738 0.959 . S
C754 H739 0.959 . S
C754 H740 0.961 . S
C754 C753 1.502 . S
C755 H741 0.960 . S
C755 H742 0.961 . S
C755 H743 0.959 . S
C755 C753 1.561 . S
C756 C753 1.526 . S
C756 C757 1.396 . S
C756 C761 1.390 . S
C757 C751 1.465 . S
C757 C756 1.396 . S
C757 C758 1.399 . S
C758 H744 0.929 . S
C758 C757 1.399 . S
C758 C759 1.385 . S
C759 H745 0.931 . S
C759 C758 1.385 . S
C759 C760 1.389 . S
C760 C759 1.389 . S
C760 C761 1.387 . S
C761 H746 0.930 . S
C761 C756 1.390 . S
C761 C760 1.387 . S
H762 C774 0.930 . S
H763 C776 0.930 . S
H764 C777 0.930 . S
H765 C781 0.959 . S
H766 C781 0.959 . S
H767 C781 0.961 . S
H768 C782 0.960 . S
H769 C782 0.961 . S
H770 C782 0.959 . S
H771 C785 0.929 . S
H772 C786 0.931 . S
H773 C788 0.930 . S
C774 H762 0.930 . S
C774 C775 1.399 . S
C774 C779 1.399 . S
C775 C774 1.399 . S
C775 C776 1.376 . S
C776 H763 0.930 . S
C776 C775 1.376 . S
C776 C777 1.388 . S
C777 H764 0.930 . S
C777 C776 1.388 . S
C777 C778 1.390 . S
C778 C777 1.390 . S
C778 C779 1.394 . S
C778 C784 1.465 . S
C779 C774 1.399 . S
C779 C778 1.394 . S
C779 C780 1.516 . S
C780 C779 1.516 . S
C780 C781 1.502 . S
C780 C782 1.561 . S
C780 C783 1.526 . S
C781 H765 0.959 . S
C781 H766 0.959 . S
C781 H767 0.961 . S
C781 C780 1.502 . S
C782 H768 0.960 . S
C782 H769 0.961 . S
C782 H770 0.959 . S
C782 C780 1.561 . S
C783 C780 1.526 . S
C783 C784 1.396 . S
C783 C788 1.390 . S
C784 C778 1.465 . S
C784 C783 1.396 . S
C784 C785 1.399 . S
C785 H771 0.929 . S
C785 C784 1.399 . S
C785 C786 1.385 . S
C786 H772 0.931 . S
C786 C785 1.385 . S
C786 C787 1.389 . S
C787 C786 1.389 . S
C787 C788 1.387 . S
C788 H773 0.930 . S
C788 C783 1.390 . S
C788 C787 1.387 . S
H789 C801 0.930 . S
H790 C803 0.930 . S
H791 C804 0.930 . S
H792 C808 0.959 . S
H793 C808 0.959 . S
H794 C808 0.961 . S
H795 C809 0.960 . S
H796 C809 0.961 . S
H797 C809 0.959 . S
H798 C812 0.929 . S
H799 C813 0.931 . S
H800 C815 0.930 . S
C801 H789 0.930 . S
C801 C802 1.399 . S
C801 C806 1.399 . S
C802 C801 1.399 . S
C802 C803 1.376 . S
C803 H790 0.930 . S
C803 C802 1.376 . S
C803 C804 1.388 . S
C804 H791 0.930 . S
C804 C803 1.388 . S
C804 C805 1.390 . S
C805 C804 1.390 . S
C805 C806 1.394 . S
C805 C811 1.465 . S
C806 C801 1.399 . S
C806 C805 1.394 . S
C806 C807 1.516 . S
C807 C806 1.516 . S
C807 C808 1.502 . S
C807 C809 1.561 . S
C807 C810 1.526 . S
C808 H792 0.959 . S
C808 H793 0.959 . S
C808 H794 0.961 . S
C808 C807 1.502 . S
C809 H795 0.960 . S
C809 H796 0.961 . S
C809 H797 0.959 . S
C809 C807 1.561 . S
C810 C807 1.526 . S
C810 C811 1.396 . S
C810 C815 1.390 . S
C811 C805 1.465 . S
C811 C810 1.396 . S
C811 C812 1.399 . S
C812 H798 0.929 . S
C812 C811 1.399 . S
C812 C813 1.385 . S
C813 H799 0.931 . S
C813 C812 1.385 . S
C813 C814 1.389 . S
C814 C813 1.389 . S
C814 C815 1.387 . S
C815 H800 0.930 . S
C815 C810 1.390 . S
C815 C814 1.387 . S
C181 C7 1.352 . S
C193 C91 1.369 . S
C208 C21 1.351 . S
C220 C105 1.367 . S
C235 C35 1.285 . S
C247 C119 1.276 . S
C262 C133 1.316 . S
C274 C49 1.336 . S
C289 C63 1.325 . S
C301 C147 1.305 . S
C316 C161 1.358 . S
C328 C77 1.343 . S
C343 C13 0.780 . S
C355 C139 0.914 . S
C370 C27 0.854 . S
C382 C153 0.777 . S
C397 C167 0.977 . S
C409 C41 0.839 . S
C424 C97 0.933 . S
C436 C55 0.793 . S
C451 C69 0.803 . S
C463 C111 0.945 . S
C478 C83 0.981 . S
C490 C125 0.899 . S
C505 C165 1.761 . S
C517 C11 1.736 . S
C532 C25 1.792 . S
C544 C95 1.761 . S
C559 C39 1.744 . S
C571 C109 1.754 . S
C586 C123 1.730 . S
C598 C53 1.763 . S
C613 C137 1.761 . S
C625 C67 1.796 . S
C640 C81 1.769 . S
C652 C151 1.727 . S
C667 C8 0.803 . S
C679 C148 0.631 . S
C694 C162 0.778 . S
C706 C22 0.682 . S
C721 C92 0.573 . S
C733 C36 0.857 . S
C748 C50 0.726 . S
C760 C106 0.716 . S
C775 C120 0.784 . S
C787 C64 0.675 . S
C802 C134 0.852 . S
C814 C78 0.586 . S
