# Generated by pormake.
# Topology wjp, (5)-cn, num edge types: 1
# Building blocks:
#     Node 0, Type 0, BuildingBlock: BEQFEK_clean_sbu_0, # of connection points: 5
#     Node 1, Type 0, BuildingBlock: BEQFEK_clean_sbu_0, # of connection points: 5
#     Node 2, Type 0, BuildingBlock: BEQFEK_clean_sbu_0, # of connection points: 5
#     Node 3, Type 0, BuildingBlock: BEQFEK_clean_sbu_0, # of connection points: 5
#     Node 4, Type 0, BuildingBlock: BEQFEK_clean_sbu_0, # of connection points: 5
#     Node 5, Type 0, BuildingBlock: BEQFEK_clean_sbu_0, # of connection points: 5
#     Node 6, Type 0, BuildingBlock: BEQFEK_clean_sbu_0, # of connection points: 5
#     Node 7, Type 0, BuildingBlock: BEQFEK_clean_sbu_0, # of connection points: 5
#     Node 8, Type 0, BuildingBlock: BEQFEK_clean_sbu_0, # of connection points: 5
#     Node 9, Type 0, BuildingBlock: BEQFEK_clean_sbu_0, # of connection points: 5
#     Node 10, Type 0, BuildingBlock: BEQFEK_clean_sbu_0, # of connection points: 5
#     Node 11, Type 0, BuildingBlock: BEQFEK_clean_sbu_0, # of connection points: 5
#     Edge 12, Type (0, 0), BuildingBlock: EZIPEK_clean_linker_0, # of connection points: 2
#     Edge 13, Type (0, 0), BuildingBlock: EZIPEK_clean_linker_0, # of connection points: 2
#     Edge 14, Type (0, 0), BuildingBlock: EZIPEK_clean_linker_0, # of connection points: 2
#     Edge 15, Type (0, 0), BuildingBlock: EZIPEK_clean_linker_0, # of connection points: 2
#     Edge 16, Type (0, 0), BuildingBlock: EZIPEK_clean_linker_0, # of connection points: 2
#     Edge 17, Type (0, 0), BuildingBlock: EZIPEK_clean_linker_0, # of connection points: 2
#     Edge 18, Type (0, 0), BuildingBlock: EZIPEK_clean_linker_0, # of connection points: 2
#     Edge 19, Type (0, 0), BuildingBlock: EZIPEK_clean_linker_0, # of connection points: 2
#     Edge 20, Type (0, 0), BuildingBlock: EZIPEK_clean_linker_0, # of connection points: 2
#     Edge 21, Type (0, 0), BuildingBlock: EZIPEK_clean_linker_0, # of connection points: 2
#     Edge 22, Type (0, 0), BuildingBlock: EZIPEK_clean_linker_0, # of connection points: 2
#     Edge 23, Type (0, 0), BuildingBlock: EZIPEK_clean_linker_0, # of connection points: 2
#     Edge 24, Type (0, 0), BuildingBlock: EZIPEK_clean_linker_0, # of connection points: 2
#     Edge 25, Type (0, 0), BuildingBlock: EZIPEK_clean_linker_0, # of connection points: 2
#     Edge 26, Type (0, 0), BuildingBlock: EZIPEK_clean_linker_0, # of connection points: 2
#     Edge 27, Type (0, 0), BuildingBlock: EZIPEK_clean_linker_0, # of connection points: 2
#     Edge 28, Type (0, 0), BuildingBlock: EZIPEK_clean_linker_0, # of connection points: 2
#     Edge 29, Type (0, 0), BuildingBlock: EZIPEK_clean_linker_0, # of connection points: 2
#     Edge 30, Type (0, 0), BuildingBlock: EZIPEK_clean_linker_0, # of connection points: 2
#     Edge 31, Type (0, 0), BuildingBlock: EZIPEK_clean_linker_0, # of connection points: 2
#     Edge 32, Type (0, 0), BuildingBlock: EZIPEK_clean_linker_0, # of connection points: 2
#     Edge 33, Type (0, 0), BuildingBlock: EZIPEK_clean_linker_0, # of connection points: 2
#     Edge 34, Type (0, 0), BuildingBlock: EZIPEK_clean_linker_0, # of connection points: 2
#     Edge 35, Type (0, 0), BuildingBlock: EZIPEK_clean_linker_0, # of connection points: 2
#     Edge 36, Type (0, 0), BuildingBlock: EZIPEK_clean_linker_0, # of connection points: 2
#     Edge 37, Type (0, 0), BuildingBlock: EZIPEK_clean_linker_0, # of connection points: 2
#     Edge 38, Type (0, 0), BuildingBlock: EZIPEK_clean_linker_0, # of connection points: 2
#     Edge 39, Type (0, 0), BuildingBlock: EZIPEK_clean_linker_0, # of connection points: 2
#     Edge 40, Type (0, 0), BuildingBlock: EZIPEK_clean_linker_0, # of connection points: 2
#     Edge 41, Type (0, 0), BuildingBlock: EZIPEK_clean_linker_0, # of connection points: 2
# Relax obj value: 0.485
# Max RMSD: 0.252
# Mean RMSD: 0.252
data_MOF--net-wjp--node1-BEQFEK_clean_sbu_0--edge1-EZIPEK_clean_linker_0
_symmetry_space_group_name_H-M    P1
_symmetry_Int_Tables_number       1
_symmetry_cell_setting            triclinic
loop_
_symmetry_equiv_pos_as_xyz
'x, y, z'
_cell_length_a     33.09406
_cell_length_b     33.167124
_cell_length_c     42.664438
_cell_angle_alpha  90.13854
_cell_angle_beta   90.005581
_cell_angle_gamma 120.21541
loop_
_atom_site_label
_atom_site_type_symbol
_atom_site_fract_x
_atom_site_fract_y
_atom_site_fract_z
_atom_type_partial_charge
Co0 Co 0.22601 0.16951 0.50211 0.0
Co1 Co 0.32292 0.25773 0.49975 0.0
C2 C 0.30705 0.1931 0.54938 0.0
O3 O 0.26495 0.1707 0.53924 0.0
O4 O 0.33867 0.22934 0.53533 0.0
C5 C 0.15215 0.08004 0.52278 0.0
O6 O 0.16521 0.09546 0.55149 0.0
C7 C 0.41976 0.33603 0.482 0.0
C8 C 0.39927 0.38303 0.4595 0.0
C9 C 0.43743 0.37794 0.46572 0.0
N10 N 0.37302 0.3172 0.48506 0.0
N11 N 0.36145 0.34595 0.47176 0.0
C12 C 0.44644 0.31306 0.49234 0.0
H13 H 0.42262 0.27822 0.50252 0.0
H14 H 0.46563 0.30971 0.4721 0.0
H15 H 0.47282 0.33519 0.51014 0.0
C16 C 0.2512 0.15023 0.44118 0.0
N17 N 0.25904 0.1796 0.46519 0.0
N18 N 0.30238 0.21427 0.46451 0.0
C19 C 0.32424 0.20634 0.44037 0.0
C20 C 0.29242 0.16508 0.42509 0.0
C21 C 0.20638 0.10548 0.43562 0.0
H22 H 0.17611 0.11 0.44096 0.0
H23 H 0.20524 0.07801 0.45088 0.0
H24 H 0.20381 0.09381 0.41091 0.0
O25 O 0.20457 0.21386 0.50604 0.0
O26 O 0.27386 0.27164 0.51955 0.0
H27 H 0.38722 0.27092 0.43307 0.0
H28 H 0.38509 0.22186 0.41286 0.0
C29 C 0.37569 0.23338 0.43475 0.0
H30 H 0.39394 0.22829 0.4548 0.0
H31 H 0.3272 0.3393 0.46994 0.0
O32 O 0.17195 0.10667 0.49968 0.0
C33 C 0.22928 0.25291 0.51933 0.0
Co34 Co 0.08277 0.2572 0.69492 0.0
Co35 Co 0.07804 0.34651 0.68154 0.0
C36 C 0.12488 0.3365 0.73978 0.0
O37 O 0.11586 0.29686 0.72951 0.0
O38 O 0.11325 0.36229 0.72423 0.0
C39 C 0.05996 0.1612 0.70178 0.0
O40 O 0.01742 0.14964 0.71049 0.0
C41 C 0.10135 0.44052 0.6563 0.0
C42 C 0.03049 0.42331 0.6412 0.0
C43 C 0.07661 0.45862 0.64136 0.0
N44 N 0.07084 0.39606 0.66448 0.0
N45 N 0.02863 0.38642 0.6555 0.0
C46 C 0.15292 0.46443 0.66161 0.0
H47 H 0.16367 0.43872 0.66795 0.0
H48 H 0.17177 0.48407 0.64032 0.0
H49 H 0.16241 0.48993 0.68104 0.0
C50 C 0.13246 0.27991 0.63593 0.0
N51 N 0.109 0.28879 0.65793 0.0
N52 N 0.10536 0.32498 0.64984 0.0
C53 C 0.12394 0.33817 0.62068 0.0
C54 C 0.1423 0.31025 0.61117 0.0
C55 C 0.14606 0.24323 0.63882 0.0
H56 H 0.16095 0.24512 0.66243 0.0
H57 H 0.1726 0.2478 0.62114 0.0
H58 H 0.11458 0.20823 0.63575 0.0
O59 O 0.01607 0.23422 0.70074 0.0
O60 O 0.01174 0.29751 0.69192 0.0
H61 H 0.12536 0.36907 0.57601 0.0
H62 H 0.14968 0.40914 0.60837 0.0
C63 C 0.12118 0.37408 0.60129 0.0
H64 H 0.08717 0.37222 0.60526 0.0
H65 H -0.00158 0.35402 0.65829 0.0
O66 O 0.09018 0.20329 0.6961 0.0
C67 C -0.0073 0.25488 0.69993 0.0
Co68 Co 0.80275 0.06664 0.85009 0.0
Co69 Co 0.7159 0.06897 0.8263 0.0
C70 C 0.76866 0.12889 0.87897 0.0
O71 O 0.79459 0.11094 0.87649 0.0
O72 O 0.73412 0.11741 0.86045 0.0
C73 C 0.87419 0.07983 0.8902 0.0
O74 O 0.84267 0.07191 0.91167 0.0
C75 C 0.63114 0.0711 0.80469 0.0
C76 C 0.62346 0.04118 0.75718 0.0
C77 C 0.60366 0.05847 0.77783 0.0
N78 N 0.66607 0.06217 0.79992 0.0
N79 N 0.66106 0.0442 0.77151 0.0
C80 C 0.62331 0.08942 0.83472 0.0
H81 H 0.63535 0.07701 0.85484 0.0
H82 H 0.64416 0.1281 0.83438 0.0
H83 H 0.58586 0.07865 0.83754 0.0
C84 C 0.83939 0.10393 0.78829 0.0
N85 N 0.80311 0.08237 0.80816 0.0
N86 N 0.76892 0.08878 0.79897 0.0
C87 C 0.7833 0.11646 0.77331 0.0
C88 C 0.82828 0.1265 0.76552 0.0
C89 C 0.8869 0.11053 0.79437 0.0
H90 H 0.9044 0.13721 0.81302 0.0
H91 H 0.90887 0.12246 0.77294 0.0
H92 H 0.88363 0.07729 0.80252 0.0
O93 O 0.75637 0.00342 0.86014 0.0
O94 O 0.6924 0.00511 0.84691 0.0
H95 H 0.73597 0.11869 0.74035 0.0
H96 H 0.78395 0.17499 0.75076 0.0
C97 C 0.75858 0.13996 0.76006 0.0
H98 H 0.73647 0.14339 0.77819 0.0
H99 H 0.68306 0.03332 0.762 0.0
O100 O 0.86331 0.07621 0.86147 0.0
C101 C 0.71232 0.98411 0.8587 0.0
Co102 Co 0.74829 0.81243 1.00336 0.0
Co103 Co 0.64582 0.72957 1.0005 0.0
C104 C 0.67355 0.79352 0.05432 0.0
O105 O 0.71326 0.81561 0.04063 0.0
O106 O 0.64007 0.75617 0.0421 0.0
C107 C 0.83026 0.89795 1.02237 0.0
O108 O 0.82036 0.88212 0.05115 0.0
C109 C 0.55328 0.63959 0.99239 0.0
C110 C 0.55265 0.63625 0.9406 0.0
C111 C 0.52821 0.61218 0.96681 0.0
N112 N 0.59066 0.67878 0.98151 0.0
N113 N 0.58975 0.67607 0.95052 0.0
C114 C 0.54487 0.62614 0.02613 0.0
H115 H 0.56731 0.65652 0.04136 0.0
H116 H 0.50741 0.61215 0.03183 0.0
H117 H 0.55302 0.59801 0.03049 0.0
C118 C 0.72147 0.83888 0.94501 0.0
N119 N 0.71329 0.80722 0.96755 0.0
N120 N 0.66816 0.77821 0.96967 0.0
C121 C 0.64595 0.79226 0.94965 0.0
C122 C 0.6791 0.83066 0.93299 0.0
C123 C 0.76833 0.88011 0.93777 0.0
H124 H 0.79603 0.87087 0.94043 0.0
H125 H 0.77542 0.90895 0.95411 0.0
H126 H 0.76904 0.89256 0.91353 0.0
O127 O 0.76126 0.76154 1.0093 0.0
O128 O 0.68829 0.70288 1.0085 0.0
H129 H 0.58723 0.80317 0.9484 0.0
H130 H 0.57778 0.75272 0.97077 0.0
C131 C 0.59437 0.77389 0.94953 0.0
H132 H 0.57877 0.75205 0.92831 0.0
H133 H 0.61605 0.70015 0.93592 0.0
O134 O 0.80655 0.87206 0.99975 0.0
C135 C 0.73194 0.71828 1.01205 0.0
Co136 Co 0.91788 0.7483 0.15827 0.0
Co137 Co 0.90998 0.65379 0.15958 0.0
C138 C 0.86235 0.66947 0.20808 0.0
O139 O 0.88236 0.71092 0.19699 0.0
O140 O 0.86546 0.63694 0.19436 0.0
C141 C 0.8659 0.79097 0.15939 0.0
O142 O 0.83306 0.74694 0.1567 0.0
C143 C 0.89594 0.55905 0.14541 0.0
C144 C 0.96479 0.58032 0.12426 0.0
C145 C 0.92175 0.54187 0.13088 0.0
N146 N 0.92271 0.60587 0.14717 0.0
N147 N 0.9639 0.61808 0.13477 0.0
C148 C 0.84598 0.53159 0.15545 0.0
H149 H 0.83334 0.555 0.16378 0.0
H150 H 0.82411 0.50992 0.13557 0.0
H151 H 0.84253 0.50748 0.17458 0.0
C152 C 0.87487 0.71957 0.09621 0.0
N153 N 0.89466 0.71346 0.12187 0.0
N154 N 0.88549 0.67019 0.12323 0.0
C155 C 0.85613 0.64644 0.09918 0.0
C156 C 0.84826 0.67718 0.08145 0.0
C157 C 0.87961 0.7649 0.08638 0.0
H158 H 0.91328 0.79389 0.09514 0.0
H159 H 0.84993 0.76787 0.09566 0.0
H160 H 0.87877 0.76688 0.06044 0.0
O161 O 0.98414 0.77191 0.16078 0.0
O162 O 0.97134 0.7052 0.18002 0.0
H163 H 0.85715 0.58297 0.09529 0.0
H164 H 0.81054 0.5835 0.07345 0.0
C165 C 0.83126 0.59471 0.09547 0.0
H166 H 0.80755 0.57831 0.11571 0.0
H167 H -0.00907 0.65254 0.13242 0.0
O168 O 0.90839 0.80167 0.15865 0.0
C169 C -0.00252 0.74942 0.17746 0.0
Co170 Co 0.16843 0.91341 0.35448 0.0
Co171 Co 0.25957 0.92297 0.32647 0.0
C172 C 0.2146 0.8635 0.38254 0.0
O173 O 0.18397 0.87593 0.38182 0.0
O174 O 0.2476 0.87786 0.36229 0.0
C175 C 0.0892 0.92251 0.37753 0.0
O176 O 0.11731 0.96311 0.39062 0.0
C177 C 0.34496 0.92391 0.30241 0.0
C178 C 0.35579 0.96381 0.25869 0.0
C179 C 0.37401 0.94182 0.27641 0.0
N180 N 0.3109 0.93461 0.29993 0.0
N181 N 0.31803 0.95887 0.27392 0.0
C182 C 0.3503 0.8987 0.32965 0.0
H183 H 0.34413 0.91235 0.35182 0.0
H184 H 0.3234 0.86117 0.32794 0.0
H185 H 0.38551 0.9023 0.33003 0.0
C186 C 0.12978 0.86863 0.29412 0.0
N187 N 0.16671 0.89341 0.3131 0.0
N188 N 0.20438 0.89649 0.30049 0.0
C189 C 0.19235 0.87391 0.27247 0.0
C190 C 0.1446 0.85554 0.26763 0.0
C191 C 0.08025 0.85392 0.30254 0.0
H192 H 0.07694 0.88532 0.30589 0.0
H193 H 0.07099 0.83416 0.32485 0.0
H194 H 0.05495 0.83123 0.28441 0.0
O195 O 0.2113 0.98008 0.36153 0.0
O196 O 0.27766 0.98651 0.34473 0.0
H197 H 0.20601 0.83966 0.23407 0.0
H198 H 0.24959 0.86184 0.26495 0.0
C199 C 0.22516 0.86845 0.25111 0.0
H200 H 0.24562 0.90102 0.23753 0.0
H201 H 0.29715 0.97242 0.26666 0.0
O202 O 0.10537 0.89942 0.36426 0.0
C203 C 0.25507 0.00422 0.35719 0.0
Co204 Co 0.80329 0.74998 0.37225 0.0
Co205 Co 0.71456 0.6513 0.37921 0.0
C206 C 0.77777 0.6686 0.32617 0.0
O207 O 0.80218 0.71031 0.33646 0.0
O208 O 0.74115 0.63796 0.34062 0.0
C209 C 0.89324 0.82403 0.35118 0.0
O210 O 0.87918 0.80906 0.32251 0.0
C211 C 0.63867 0.55345 0.39851 0.0
C212 C 0.594 0.57389 0.42459 0.0
C213 C 0.59806 0.53579 0.41647 0.0
N214 N 0.65772 0.60021 0.39631 0.0
N215 N 0.6304 0.61172 0.41185 0.0
C216 C 0.65995 0.52663 0.38535 0.0
H217 H 0.69248 0.55001 0.37231 0.0
H218 H 0.66774 0.50928 0.40472 0.0
H219 H 0.63463 0.4988 0.36948 0.0
C220 C 0.82642 0.72685 0.433 0.0
N221 N 0.79468 0.71815 0.41033 0.0
N222 N 0.76132 0.67426 0.41178 0.0
C223 C 0.77246 0.65314 0.43459 0.0
C224 C 0.81458 0.68582 0.44848 0.0
C225 C 0.87055 0.77245 0.43785 0.0
H226 H 0.86471 0.80187 0.43267 0.0
H227 H 0.89805 0.77421 0.42226 0.0
H228 H 0.88306 0.77563 0.46237 0.0
O229 O 0.75715 0.76867 0.36467 0.0
O230 O 0.6946 0.69775 0.36549 0.0
H231 H 0.7104 0.58898 0.4449 0.0
H232 H 0.76345 0.59231 0.45923 0.0
C233 C 0.74765 0.60164 0.43962 0.0
H234 H 0.74945 0.58433 0.41783 0.0
H235 H 0.63726 0.6459 0.4144 0.0
O236 O 0.8657 0.80517 0.37403 0.0
C237 C 0.71357 0.74165 0.36096 0.0
Co238 Co 0.06797 0.80471 0.51986 0.0
Co239 Co 0.06173 0.71098 0.53821 0.0
C240 C 0.12401 0.76909 0.48624 0.0
O241 O 0.11018 0.79815 0.49064 0.0
O242 O 0.10899 0.73233 0.50293 0.0
C243 C 0.05678 0.8834 0.50121 0.0
O244 O 0.01847 0.85503 0.48573 0.0
C245 C 0.08648 0.64234 0.56338 0.0
C246 C 0.02082 0.59418 0.58792 0.0
C247 C 0.06566 0.60295 0.58222 0.0
N248 N 0.05523 0.65637 0.55828 0.0
N249 N 0.01602 0.62713 0.57287 0.0
C250 C 0.13564 0.66708 0.55154 0.0
H251 H 0.14772 0.70444 0.54727 0.0
H252 H 0.15922 0.66364 0.56845 0.0
H253 H 0.13694 0.65094 0.52903 0.0
C254 C 0.10427 0.83064 0.58375 0.0
N255 N 0.08346 0.79831 0.56108 0.0
N256 N 0.08235 0.75962 0.56934 0.0
C257 C 0.10263 0.76647 0.59794 0.0
C258 C 0.11745 0.81178 0.6078 0.0
C259 C 0.11585 0.88035 0.58103 0.0
H260 H 0.08384 0.88139 0.57482 0.0
H261 H 0.1419 0.89768 0.56207 0.0
H262 H 0.13033 0.89985 0.60325 0.0
O263 O 0.0026 0.76098 0.50954 0.0
O264 O -0.00253 0.69305 0.52035 0.0
H265 H 0.07852 0.69826 0.61583 0.0
H266 H 0.12528 0.7442 0.63848 0.0
C267 C 0.11158 0.73215 0.61444 0.0
H268 H 0.1375 0.72735 0.60102 0.0
H269 H 0.9863 0.63046 0.57327 0.0
O270 O 0.0801 0.86808 0.51517 0.0
C271 C 0.97931 0.71676 0.51046 0.0
Co272 Co 0.21629 0.03802 0.70408 0.0
Co273 Co 0.31322 0.04816 0.7152 0.0
C274 C 0.30236 0.09998 0.66334 0.0
O275 O 0.25959 0.08146 0.6715 0.0
O276 O 0.33117 0.09207 0.6784 0.0
C277 C 0.14515 0.0516 0.67844 0.0
O278 O 0.16409 0.0527 0.65119 0.0
C279 C 0.40784 0.06039 0.73021 0.0
C280 C 0.38892 0.02133 0.77489 0.0
C281 C 0.42583 0.04649 0.75472 0.0
N282 N 0.36229 0.04449 0.73606 0.0
N283 N 0.35147 0.0212 0.76275 0.0
C284 C 0.43289 0.08712 0.70158 0.0
H285 H 0.40925 0.07355 0.68096 0.0
H286 H 0.44297 0.12422 0.70489 0.0
H287 H 0.46495 0.08515 0.69737 0.0
C288 C 0.23174 0.07676 0.76819 0.0
N289 N 0.24298 0.0578 0.74412 0.0
N290 N 0.28661 0.06822 0.74715 0.0
C291 C 0.3053 0.09631 0.77246 0.0
C292 C 0.27099 0.10246 0.78677 0.0
C293 C 0.18576 0.0746 0.77193 0.0
H294 H 0.15706 0.04141 0.76229 0.0
H295 H 0.18674 0.10427 0.75945 0.0
H296 H 0.17891 0.07758 0.79706 0.0
O297 O 0.20017 0.97505 0.69328 0.0
O298 O 0.27014 0.98241 0.69865 0.0
H299 H 0.36357 0.10008 0.79657 0.0
H300 H 0.36654 0.15538 0.79231 0.0
C301 C 0.35628 0.12179 0.78038 0.0
H302 H 0.37751 0.12827 0.75888 0.0
H303 H 0.31815 0.00497 0.77269 0.0
O304 O 0.16008 0.04203 0.70299 0.0
C305 C 0.22716 0.95851 0.69067 0.0
Co306 Co 0.16689 0.2231 0.89665 0.0
Co307 Co 0.26228 0.31484 0.90085 0.0
C308 C 0.19538 0.31133 0.8556 0.0
O309 O 0.16905 0.27144 0.86779 0.0
O310 O 0.23737 0.33632 0.86545 0.0
C311 C 0.07328 0.18817 0.90298 0.0
O312 O 0.09119 0.23238 0.91036 0.0
C313 C 0.3456 0.40832 0.91722 0.0
C314 C 0.37378 0.3855 0.956 0.0
C315 C 0.38012 0.42464 0.94028 0.0
N316 N 0.31975 0.36149 0.91955 0.0
N317 N 0.33712 0.34834 0.94267 0.0
C318 C 0.33671 0.43669 0.89403 0.0
H319 H 0.32511 0.4177 0.87139 0.0
H320 H 0.30827 0.44209 0.90288 0.0
H321 H 0.36852 0.47129 0.89055 0.0
C322 C 0.15788 0.24341 0.96101 0.0
N323 N 0.18614 0.24951 0.93661 0.0
N324 N 0.21895 0.29353 0.93531 0.0
C325 C 0.21037 0.31728 0.95763 0.0
C326 C 0.17 0.28631 0.97392 0.0
C327 C 0.11824 0.19735 0.97128 0.0
H328 H 0.11999 0.16871 0.95917 0.0
H329 H 0.0843 0.19554 0.96703 0.0
H330 H 0.12076 0.19358 0.99693 0.0
O331 O 0.20559 0.20013 0.87868 0.0
O332 O 0.27461 0.26534 0.88159 0.0
H333 H 0.2704 0.38068 0.97147 0.0
H334 H 0.21657 0.38173 0.97444 0.0
C335 C 0.23615 0.36926 0.96014 0.0
H336 H 0.24281 0.38482 0.93638 0.0
H337 H 0.32298 0.31382 0.94996 0.0
O338 O 0.10071 0.17313 0.8964 0.0
C339 C 0.2492 0.2226 0.87326 0.0
Co340 Co 0.90502 0.17304 1.02355 0.0
Co341 Co 0.91668 0.26803 0.04389 0.0
C342 C 0.8611 0.21697 0.98633 0.0
O343 O 0.87094 0.185 0.99089 0.0
O344 O 0.87571 0.25218 1.00476 0.0
C345 C 0.91437 0.0946 1.0025 0.0
O346 O 0.94946 0.12313 0.98461 0.0
C347 C 0.89703 0.3404 0.0685 0.0
C348 C 0.96478 0.38755 0.09145 0.0
C349 C 0.92092 0.38137 0.08573 0.0
N350 N 0.9258 0.32325 0.0641 0.0
N351 N 0.96614 0.35163 0.07792 0.0
C352 C 0.84771 0.31754 0.05698 0.0
H353 H 0.83286 0.27924 0.05504 0.0
H354 H 0.82604 0.32551 0.07285 0.0
H355 H 0.84729 0.33116 0.03333 0.0
C356 C 0.85753 0.14395 0.08429 0.0
N357 N 0.88187 0.17716 0.06293 0.0
N358 N 0.88828 0.21739 0.07307 0.0
C359 C 0.86966 0.2112 0.10218 0.0
C360 C 0.84912 0.16416 0.11008 0.0
C361 C 0.84159 0.09327 0.0797 0.0
H362 H 0.82449 0.08163 0.05646 0.0
H363 H 0.81634 0.07116 0.09798 0.0
H364 H 0.87237 0.08836 0.08027 0.0
O365 O 0.97294 0.21419 1.01925 0.0
O366 O 0.98182 0.28292 0.03212 0.0
H367 H 0.86193 0.23749 0.14682 0.0
H368 H 0.84967 0.26165 0.11271 0.0
C369 C 0.87281 0.24954 0.1224 0.0
H370 H 0.90915 0.27945 0.12233 0.0
H371 H -0.00542 0.34623 0.07838 0.0
O372 O 0.89259 0.10955 1.01879 0.0
C373 C -0.00123 0.25789 1.02299 0.0
Co374 Co 0.75464 0.94451 0.22294 0.0
Co375 Co 0.65956 0.93591 0.22016 0.0
C376 C 0.67678 0.88957 0.17119 0.0
O377 O 0.71609 0.90776 0.18546 0.0
O378 O 0.64385 0.89454 0.18265 0.0
C379 C 0.81512 0.92706 0.19348 0.0
O380 O 0.81213 0.93435 0.22332 0.0
C381 C 0.56799 0.93351 0.2281 0.0
C382 C 0.58225 0.96776 0.27463 0.0
C383 C 0.54834 0.94719 0.25171 0.0
N384 N 0.61161 0.94532 0.237 0.0
N385 N 0.61972 0.96586 0.26473 0.0
C386 C 0.54583 0.90937 0.19801 0.0
H387 H 0.57167 0.92444 0.17869 0.0
H388 H 0.53519 0.87196 0.20004 0.0
H389 H 0.51454 0.9122 0.1926 0.0
C390 C 0.72296 0.89381 0.28133 0.0
N391 N 0.71922 0.91857 0.25783 0.0
N392 N 0.67591 0.90914 0.25515 0.0
C393 C 0.64994 0.87643 0.27679 0.0
C394 C 0.67908 0.86542 0.29394 0.0
C395 C 0.7663 0.89206 0.28862 0.0
H396 H 0.79771 0.92684 0.28492 0.0
H397 H 0.76824 0.86639 0.27296 0.0
H398 H 0.76584 0.88097 0.31321 0.0
O399 O 0.77717 0.01086 0.2206 0.0
O400 O 0.71004 -0.00116 0.2021 0.0
H401 H 0.58746 0.87341 0.29274 0.0
H402 H 0.58309 0.81723 0.28925 0.0
C403 C 0.59775 0.85216 0.27831 0.0
H404 H 0.583 0.84891 0.25445 0.0
H405 H 0.65095 0.97817 0.27714 0.0
O406 O 0.81013 0.93454 0.22203 0.0
C407 C 0.75433 0.02482 0.20476 0.0
C408 C 0.52994 0.45476 0.40739 0.0
C409 C 0.56528 0.48755 0.4276 0.0
C410 C 0.5213 0.44186 0.47346 0.0
C411 C 0.48529 0.40977 0.45329 0.0
N412 N 0.46156 0.37771 0.40143 0.0
N413 N 0.60163 0.50527 0.47843 0.0
C414 C 0.49194 0.41354 0.42032 0.0
C415 C 0.56332 0.47843 0.4602 0.0
N416 N 0.5309 0.46445 0.3762 0.0
N417 N 0.51415 0.43948 0.5051 0.0
H418 H 0.63276 0.53203 0.46909 0.0
H419 H 0.60409 0.49814 0.50188 0.0
H420 H 0.48383 0.41333 0.51562 0.0
H421 H 0.53681 0.46509 0.52072 0.0
H422 H 0.50325 0.44474 0.36094 0.0
H423 H 0.55831 0.49406 0.36587 0.0
H424 H 0.46668 0.37634 0.37746 0.0
H425 H 0.43356 0.34716 0.41037 0.0
C426 C 0.09608 0.54185 0.64401 0.0
C427 C 0.09311 0.50443 0.62616 0.0
C428 C 0.08659 0.54015 0.57763 0.0
C429 C 0.08568 0.57556 0.59572 0.0
N430 N 0.10432 0.61884 0.644 0.0
N431 N 0.10058 0.47492 0.5764 0.0
C432 C 0.09561 0.57937 0.62829 0.0
C433 C 0.09377 0.50624 0.59299 0.0
N434 N 0.09644 0.53999 0.67599 0.0
N435 N 0.07764 0.53725 0.54618 0.0
H436 H 0.10624 0.45023 0.5875 0.0
H437 H 0.10509 0.47619 0.55221 0.0
H438 H 0.07341 0.56222 0.53415 0.0
H439 H 0.07224 0.50916 0.53225 0.0
H440 H 0.09275 0.56312 0.69058 0.0
H441 H 0.09859 0.51377 0.68801 0.0
H442 H 0.11538 0.62571 0.66723 0.0
H443 H 0.10479 0.64684 0.63265 0.0
C444 C 0.51306 0.09574 0.76414 0.0
C445 C 0.47276 0.05162 0.75858 0.0
C446 C 0.51711 0.01254 0.77005 0.0
C447 C 0.55848 0.05668 0.77273 0.0
N448 N 0.59772 0.14047 0.76797 0.0
N449 N 0.43705 0.96994 0.75041 0.0
C450 C 0.55705 0.09844 0.76857 0.0
C451 C 0.4753 0.01048 0.75987 0.0
N452 N 0.50898 0.13462 0.76652 0.0
N453 N 0.5173 0.97298 0.77878 0.0
H454 H 0.43601 0.93813 0.74804 0.0
H455 H 0.43601 0.93813 0.74804 0.0
H456 H 0.54703 0.97332 0.78726 0.0
H457 H 0.48714 0.94047 0.78079 0.0
H458 H 0.53613 0.16697 0.77385 0.0
H459 H 0.47727 0.13375 0.76355 0.0
H460 H 0.59935 0.17158 0.76171 0.0
H461 H 0.63047 0.14378 0.77143 0.0
C462 C 0.44254 0.5523 0.96691 0.0
C463 C 0.4897 0.56298 0.96562 0.0
C464 C 0.4649 0.48506 0.9448 0.0
C465 C 0.41744 0.47317 0.94769 0.0
N466 N 0.36064 0.49229 0.96726 0.0
N467 N 0.54528 0.53678 0.96054 0.0
C468 C 0.40605 0.5059 0.9604 0.0
C469 C 0.50064 0.52834 0.95692 0.0
N470 N 0.43273 0.58684 0.97341 0.0
N471 N 0.47603 0.45598 0.92908 0.0
H472 H 0.57217 0.56805 0.9697 0.0
H473 H 0.55456 0.51131 0.95752 0.0
H474 H 0.45097 0.42466 0.91885 0.0
H475 H 0.51017 0.46499 0.92342 0.0
H476 H 0.39957 0.58276 0.97094 0.0
H477 H 0.4585 0.6206 0.97962 0.0
H478 H 0.3507 0.51302 0.97961 0.0
H479 H 0.33303 0.45876 0.96282 0.0
C480 C 0.9055 0.44679 0.07522 0.0
C481 C 0.90557 0.41403 0.09644 0.0
C482 C 0.90473 0.46018 0.1411 0.0
C483 C 0.90662 0.49391 0.11988 0.0
N484 N 0.89477 0.51325 0.06763 0.0
N485 N 0.8913 0.38172 0.14835 0.0
C486 C 0.90202 0.48492 0.08718 0.0
C487 C 0.90024 0.4181 0.12905 0.0
N488 N 0.91205 0.44335 0.04391 0.0
N489 N 0.91027 0.46964 0.1725 0.0
H490 H 0.8876 0.35049 0.13984 0.0
H491 H 0.88317 0.38072 0.17201 0.0
H492 H 0.9132 0.49993 0.18212 0.0
H493 H 0.91471 0.4489 0.18881 0.0
H494 H 0.91822 0.46934 0.02778 0.0
H495 H 0.91416 0.41562 0.03419 0.0
H496 H 0.88674 0.50616 0.04393 0.0
H497 H 0.89246 0.54165 0.07583 0.0
C498 C 0.50093 0.98628 0.2553 0.0
C499 C 0.50217 0.94423 0.25324 0.0
C500 C 0.4177 0.89965 0.26351 0.0
C501 C 0.4181 0.94207 0.26931 0.0
N502 N 0.462 0.02643 0.27331 0.0
N503 N 0.46292 0.86068 0.2598 0.0
C504 C 0.46018 0.98541 0.26592 0.0
C505 C 0.46078 0.90072 0.25832 0.0
N506 N 0.53862 0.02828 0.24761 0.0
N507 N 0.37613 0.85857 0.26176 0.0
H508 H 0.49365 0.8599 0.25603 0.0
H509 H 0.43506 0.82882 0.2671 0.0
H510 H 0.34387 0.85643 0.26499 0.0
H511 H 0.37335 0.82733 0.25434 0.0
H512 H 0.56969 0.03242 0.23836 0.0
H513 H 0.56969 0.03242 0.23836 0.0
H514 H 0.49244 0.0588 0.27085 0.0
H515 H 0.43429 0.02806 0.28361 0.0
C516 C 0.05259 0.95446 0.51657 0.0
C517 C 0.07628 0.93425 0.50127 0.0
C518 C 0.14952 0.00837 0.5032 0.0
C519 C 0.12558 0.02961 0.51655 0.0
N520 N 0.05345 0.02567 0.53137 0.0
N521 N 0.14305 0.94457 0.47194 0.0
C522 C 0.07671 0.00353 0.52179 0.0
C523 C 0.12342 0.96221 0.49189 0.0
N524 N 0.00819 0.9267 0.52753 0.0
N525 N 0.19734 0.03139 0.50278 0.0
H526 H 0.12417 0.91092 0.4626 0.0
H527 H 0.17611 0.96486 0.46211 0.0
H528 H 0.21811 0.065 0.51177 0.0
H529 H 0.21637 0.01555 0.4961 0.0
H530 H -0.00878 0.93882 0.542 0.0
H531 H -0.01082 0.89078 0.52372 0.0
H532 H 0.01714 0.00934 0.53245 0.0
H533 H 0.07047 0.06139 0.53612 0.0
C534 C 0.05331 0.08819 0.67844 0.0
C535 C 0.07535 0.1268 0.69938 0.0
C536 C 0.14495 0.11998 0.70073 0.0
C537 C 0.12136 0.0783 0.68302 0.0
N538 N 0.05121 0.0187 0.65808 0.0
N539 N 0.13605 0.17009 0.73752 0.0
C540 C 0.0748 0.06097 0.67282 0.0
C541 C 0.11918 0.13949 0.7129 0.0
N542 N 0.0137 0.07911 0.66263 0.0
N543 N 0.19236 0.14216 0.70475 0.0
H544 H 0.11695 0.18384 0.74784 0.0
H545 H 0.16637 0.1775 0.74969 0.0
H546 H 0.21314 0.12995 0.69502 0.0
H547 H 0.21142 0.17503 0.71511 0.0
H548 H -0.00063 0.05468 0.64458 0.0
H549 H -0.00309 0.09824 0.66589 0.0
H550 H 0.0156 0.00213 0.65301 0.0
H551 H 0.06673 -0.00119 0.65285 0.0
C552 C -0.00277 0.17726 0.88471 0.0
C553 C 0.02199 0.15837 0.90012 0.0
C554 C 0.9478 0.08681 0.91145 0.0
C555 C 0.9239 0.10773 0.89795 0.0
N556 N 0.92447 0.17706 0.88038 0.0
N557 N 0.02039 0.09744 0.93238 0.0
C558 C 0.94825 0.1544 0.88745 0.0
C559 C -0.00276 0.11368 0.91469 0.0
N560 N 0.02009 0.21554 0.86584 0.0
N561 N 0.92338 0.04108 0.92041 0.0
H562 H 0.05653 0.11443 0.9342 0.0
H563 H 0.00357 0.06835 0.94686 0.0
H564 H 0.88694 0.02133 0.91963 0.0
H565 H 0.93913 0.02204 0.92709 0.0
H566 H 0.00278 0.22793 0.85197 0.0
H567 H 0.05574 0.23165 0.86105 0.0
H568 H 0.94104 0.21265 0.87555 0.0
H569 H 0.8883 0.16146 0.88273 0.0
C570 C 0.90324 0.97625 1.01728 0.0
C571 C 0.85384 0.9485 1.01689 0.0
C572 C 0.84758 0.01438 0.99792 0.0
C573 C 0.89624 0.0439 1.00251 0.0
N574 N 0.97071 0.0544 1.01926 0.0
N575 N 0.77839 0.94326 1.0132 0.0
C576 C 0.92447 0.02527 1.01258 0.0
C577 C 0.8258 0.96813 1.00895 0.0
N578 N 0.92966 0.95572 1.02186 0.0
N579 N 0.82226 0.03049 0.98257 0.0
H580 H 0.76077 0.90935 1.02198 0.0
H581 H 0.75708 0.95785 1.01081 0.0
H582 H 0.83739 0.0643 0.97368 0.0
H583 H 0.78755 0.00898 0.97578 0.0
H584 H 0.96583 0.97323 1.01911 0.0
H585 H 0.9149 0.92013 0.02634 0.0
H586 H -0.00833 0.04333 0.03002 0.0
H587 H -0.01238 0.09037 1.01594 0.0
C588 C 0.80366 0.84697 0.1974 0.0
C589 C 0.82731 0.89209 0.18395 0.0
C590 C 0.87204 0.86891 0.15062 0.0
C591 C 0.85349 0.82645 0.16771 0.0
N592 N 0.81058 0.78109 0.213 0.0
N593 N 0.88528 0.94772 0.14868 0.0
C594 C 0.82181 0.81711 0.19273 0.0
C595 C 0.86173 0.90353 0.16067 0.0
N596 N 0.76244 0.83149 0.21307 0.0
N597 N 0.89795 0.87556 0.12422 0.0
H598 H 0.87748 0.97354 0.15478 0.0
H599 H 0.91456 0.95978 0.13434 0.0
H600 H 0.90723 0.8517 0.1164 0.0
H601 H 0.90725 0.90306 0.10872 0.0
H602 H 0.74214 0.79724 0.22091 0.0
H603 H 0.74569 0.85091 0.21486 0.0
H604 H 0.79074 0.7759 0.23316 0.0
H605 H 0.82541 0.75985 0.21189 0.0
C606 C 0.01035 0.85464 0.38474 0.0
C607 C 0.03801 0.90225 0.37652 0.0
C608 C 0.96871 0.90038 0.35432 0.0
C609 C 0.94348 0.85137 0.35835 0.0
N610 N 0.94336 0.78037 0.37113 0.0
N611 N 0.04496 0.96987 0.34997 0.0
C612 C 0.96512 0.82802 0.37185 0.0
C613 C 0.01759 0.92535 0.36067 0.0
N614 N 0.02742 0.83501 0.40508 0.0
N615 N 0.946 0.92299 0.34463 0.0
H616 H 0.08079 0.9896 0.3541 0.0
H617 H 0.03263 0.98619 0.33512 0.0
H618 H 0.91051 0.90539 0.33888 0.0
H619 H 0.96151 0.9592 0.3445 0.0
H620 H 0.00713 0.80139 0.41397 0.0
H621 H 0.06025 0.85424 0.41562 0.0
H622 H 0.95977 0.76196 0.37793 0.0
H623 H 0.91033 0.75938 0.36126 0.0
C624 C 0.282 0.08977 0.35517 0.0
C625 C 0.28018 0.05163 0.37137 0.0
C626 C 0.3077 0.09886 0.41941 0.0
C627 C 0.30115 0.13353 0.40476 0.0
N628 N 0.2862 0.16515 0.35859 0.0
N629 N 0.29267 0.01923 0.41835 0.0
C630 C 0.29051 0.13034 0.37234 0.0
C631 C 0.29452 0.05642 0.40318 0.0
N632 N 0.27504 0.08664 0.32349 0.0
N633 N 0.32553 0.10628 0.44913 0.0
H634 H 0.28511 0.98841 0.40685 0.0
H635 H 0.29654 0.01783 0.44245 0.0
H636 H 0.33475 0.13669 0.46172 0.0
H637 H 0.33492 0.08442 0.46041 0.0
H638 H 0.27881 0.11402 0.30956 0.0
H639 H 0.26882 0.05717 0.3107 0.0
H640 H 0.27359 0.16335 0.336 0.0
H641 H 0.29445 0.19593 0.37046 0.0
C642 C 0.15929 0.24139 0.55121 0.0
C643 C 0.20466 0.27232 0.5386 0.0
C644 C 0.20586 0.33562 0.56981 0.0
C645 C 0.1596 0.3046 0.58004 0.0
N646 N 0.08698 0.23436 0.56959 0.0
N647 N 0.26356 0.35298 0.52917 0.0
C648 C 0.13429 0.26024 0.566 0.0
C649 C 0.22572 0.3209 0.54569 0.0
N650 N 0.14214 0.19439 0.55325 0.0
N651 N 0.23144 0.37816 0.58383 0.0
H652 H 0.27675 0.34395 0.50993 0.0
H653 H 0.27799 0.38883 0.53217 0.0
H654 H 0.21741 0.39007 0.60093 0.0
H655 H 0.26703 0.4001 0.57965 0.0
H656 H 0.11035 0.17184 0.56404 0.0
H657 H 0.16238 0.17891 0.54957 0.0
H658 H 0.06672 0.20229 0.55839 0.0
H659 H 0.06819 0.24757 0.58108 0.0
C660 C 0.86915 0.15477 0.71387 0.0
C661 C 0.86295 0.16483 0.74517 0.0
C662 C 0.93318 0.24244 0.74114 0.0
C663 C 0.94384 0.22906 0.71197 0.0
N664 N 0.92126 0.17461 0.66911 0.0
N665 N 0.88697 0.21809 0.78886 0.0
C666 C 0.91115 0.18602 0.69771 0.0
C667 C 0.89389 0.20906 0.75863 0.0
N668 N 0.83485 0.11517 0.69982 0.0
N669 N 0.96095 0.28669 0.75246 0.0
H670 H 0.8572 0.19572 0.80168 0.0
H671 H 0.91147 0.24648 0.80191 0.0
H672 H -0.00893 0.31182 0.74129 0.0
H673 H 0.95237 0.30007 0.77179 0.0
H674 H 0.83505 0.10705 0.67628 0.0
H675 H 0.80397 0.09189 0.71133 0.0
H676 H 0.90221 0.14179 0.65882 0.0
H677 H 0.95004 0.19815 0.65587 0.0
C678 C 0.67758 0.93993 0.90773 0.0
C679 C 0.68542 0.93884 0.87517 0.0
C680 C 0.67084 0.85885 0.88014 0.0
C681 C 0.67213 0.86368 0.9132 0.0
N682 N 0.67495 0.90742 0.95915 0.0
N683 N 0.68689 0.89737 0.82942 0.0
C684 C 0.674 0.90346 0.92721 0.0
C685 C 0.68031 0.89784 0.86099 0.0
N686 N 0.67468 0.97653 0.91994 0.0
N687 N 0.66118 0.81717 0.86726 0.0
H688 H 0.69155 0.92472 0.81493 0.0
H689 H 0.68913 0.87099 0.81775 0.0
H690 H 0.65435 0.78836 0.88093 0.0
H691 H 0.65624 0.80986 0.84338 0.0
H692 H 0.66548 0.97813 0.94304 0.0
H693 H 0.67751 0.00368 0.90605 0.0
H694 H 0.68227 0.93784 0.97097 0.0
H695 H 0.67045 0.88062 0.97408 0.0
C696 C 0.79117 0.69204 1.00983 0.0
C697 C 0.74987 0.68745 1.02344 0.0
C698 C 0.76553 0.65815 0.07193 0.0
C699 C 0.80921 0.66748 0.05954 0.0
N700 N 0.85762 0.6797 1.01472 0.0
N701 N 0.68859 0.64702 0.06173 0.0
C702 C 0.81968 0.67939 0.02757 0.0
C703 C 0.73379 0.66382 0.0525 0.0
N704 N 0.80362 0.71007 0.98035 0.0
N705 N 0.7557 0.64714 0.10291 0.0
H706 H 0.66355 0.64826 0.04769 0.0
H707 H 0.67424 0.6264 0.08155 0.0
H708 H 0.77708 0.64102 0.11771 0.0
H709 H 0.72772 0.6467 0.11441 0.0
H710 H 0.83557 0.71936 0.96997 0.0
H711 H 0.78151 0.71636 0.96634 0.0
H712 H 0.86634 0.68548 0.99109 0.0
H713 H 0.87845 0.67035 0.02764 0.0
C714 C 0.06865 0.75973 0.20822 0.0
C715 C 0.03879 0.77679 0.19861 0.0
C716 C 0.09099 0.85058 0.22525 0.0
C717 C 0.1147 0.83042 0.24 0.0
N718 N 0.12051 0.76169 0.24914 0.0
N719 N 0.01442 0.83348 0.2099 0.0
C720 C 0.10227 0.78383 0.23242 0.0
C721 C 0.0481 0.82113 0.21008 0.0
N722 N 0.06594 0.72154 0.19403 0.0
N723 N 0.10797 0.8975 0.2272 0.0
H724 H 0.9795 0.81024 0.20452 0.0
H725 H 0.01955 0.86436 0.22006 0.0
H726 H 0.13968 0.92016 0.23819 0.0
H727 H 0.09287 0.91389 0.21504 0.0
H728 H 0.08951 0.71017 0.19869 0.0
H729 H 0.04365 0.70453 0.17523 0.0
H730 H 0.10891 0.72624 0.24654 0.0
H731 H 0.14443 0.77786 0.26733 0.0
C732 C 0.92653 0.68478 0.46377 0.0
C733 C 0.93162 0.69351 0.49652 0.0
C734 C 0.85293 0.68372 0.49901 0.0
C735 C 0.84907 0.67785 0.46601 0.0
N736 N 0.8759 0.66082 0.418 0.0
N737 N 0.89708 0.69087 0.5465 0.0
C738 C 0.88377 0.67407 0.4488 0.0
C739 C 0.89366 0.68921 0.51455 0.0
N740 N 0.9637 0.68952 0.44675 0.0
N741 N 0.8186 0.68625 0.51513 0.0
H742 H 0.92662 0.69481 0.55813 0.0
H743 H 0.86978 0.68477 0.56147 0.0
H744 H 0.78767 0.68023 0.50442 0.0
H745 H 0.8211 0.69562 0.53863 0.0
H746 H 0.96489 0.68998 0.42237 0.0
H747 H -0.00531 0.6952 0.45715 0.0
H748 H 0.89777 0.65352 0.40466 0.0
H749 H 0.84517 0.65321 0.40634 0.0
C750 C 0.1982 0.87016 0.62528 0.0
C751 C 0.15099 0.83896 0.6333 0.0
C752 C 0.16472 0.87515 0.68523 0.0
C753 C 0.20795 0.91263 0.6745 0.0
N754 N 0.26651 0.94602 0.63363 0.0
N755 N 0.08913 0.80872 0.67135 0.0
C756 C 0.22563 0.90965 0.64468 0.0
C757 C 0.13444 0.83992 0.66371 0.0
N758 N 0.21639 0.8623 0.59876 0.0
N759 N 0.15277 0.87388 0.716 0.0
H760 H 0.06688 0.78159 0.65639 0.0
H761 H 0.07305 0.81079 0.69177 0.0
H762 H 0.17497 0.8992 0.73207 0.0
H763 H 0.12345 0.84596 0.72613 0.0
H764 H 0.25174 0.88124 0.593 0.0
H765 H 0.1968 0.83369 0.58411 0.0
H766 H 0.27741 0.94853 0.61046 0.0
H767 H 0.28867 0.97521 0.64695 0.0
C768 C 0.27926 0.21278 0.82131 0.0
C769 C 0.26836 0.19916 0.85321 0.0
C770 C 0.27348 0.12878 0.84257 0.0
C771 C 0.27723 0.13892 0.8101 0.0
N772 N 0.28597 0.19085 0.76794 0.0
N773 N 0.25707 0.14596 0.89499 0.0
C774 C 0.28161 0.18147 0.79938 0.0
C775 C 0.26669 0.15789 0.86412 0.0
N776 N 0.28656 0.25533 0.81185 0.0
N777 N 0.27636 0.09121 0.85266 0.0
H778 H 0.255 0.16806 0.91156 0.0
H779 H 0.24978 0.11396 0.90415 0.0
H780 H 0.28088 0.06927 0.8373 0.0
H781 H 0.27775 0.08356 0.87612 0.0
H782 H 0.29931 0.2696 0.78988 0.0
H783 H 0.28304 0.27839 0.82661 0.0
H784 H 0.28284 0.21759 0.75773 0.0
H785 H 0.29096 0.17045 0.75149 0.0
C786 C 0.07861 0.26913 0.03332 0.0
C787 C 0.04916 0.27939 1.01494 0.0
C788 C 0.10684 0.30807 0.97248 0.0
C789 C 0.13531 0.2954 0.99019 0.0
N790 N 0.15511 0.27646 0.03995 0.0
N791 N 0.04056 0.32052 0.97136 0.0
C792 C 0.12343 0.28037 1.02161 0.0
C793 C 0.0654 0.30335 0.98612 0.0
N794 N 0.06286 0.24715 0.06146 0.0
N795 N 0.11713 0.32105 0.9418 0.0
H796 H 0.00915 0.31614 0.98001 0.0
H797 H 0.05303 0.34267 0.95209 0.0
H798 H 0.14709 0.32578 0.93061 0.0
H799 H 0.0943 0.32409 0.9265 0.0
H800 H 0.07989 0.23358 0.07444 0.0
H801 H 0.03141 0.24096 0.07137 0.0
H802 H 0.15054 0.26901 0.0638 0.0
H803 H 0.1881 0.2848 0.03166 0.0
C804 C 0.82477 0.07634 0.17116 0.0
C805 C 0.78107 0.06679 0.1842 0.0
C806 C 0.78459 0.1292 0.15109 0.0
C807 C 0.82965 0.14011 0.14052 0.0
N808 N 0.89884 0.13569 0.15033 0.0
N809 N 0.72633 0.09393 0.19218 0.0
C810 C 0.85209 0.11828 0.15464 0.0
C811 C 0.76308 0.09639 0.17602 0.0
N812 N 0.838 0.04338 0.17076 0.0
N813 N 0.76148 0.14831 0.13657 0.0
H814 H 0.71134 0.07206 0.21143 0.0
H815 H 0.71428 0.11716 0.18862 0.0
H816 H 0.77647 0.17268 0.11859 0.0
H817 H 0.72658 0.13768 0.14107 0.0
H818 H 0.8682 0.04858 0.15947 0.0
H819 H 0.81566 0.00867 0.17669 0.0
H820 H 0.91719 0.1221 0.16181 0.0
H821 H 0.91961 0.16653 0.13799 0.0
C822 C 0.67553 0.75416 0.31395 0.0
C823 C 0.68675 0.76175 0.3464 0.0
C824 C 0.6743 0.82877 0.34611 0.0
C825 C 0.66718 0.82352 0.31327 0.0
N826 N 0.64706 0.77449 0.26758 0.0
N827 N 0.68485 0.79733 0.395 0.0
C828 C 0.66251 0.78347 0.29789 0.0
C829 C 0.68179 0.79605 0.36305 0.0
N830 N 0.68112 0.72157 0.2979 0.0
N831 N 0.67647 0.86659 0.36056 0.0
H832 H 0.69001 0.77332 0.4076 0.0
H833 H 0.67862 0.81928 0.40907 0.0
H834 H 0.66891 0.88953 0.34871 0.0
H835 H 0.68675 0.87597 0.38374 0.0
H836 H 0.68008 0.71875 0.27357 0.0
H837 H 0.68936 0.6986 0.30882 0.0
H838 H 0.63884 0.74381 0.25575 0.0
H839 H 0.6383 0.79598 0.2551 0.0
C840 C 0.31051 0.19298 0.60826 0.0
C841 C 0.31782 0.17689 0.57912 0.0
C842 C 0.32567 0.11578 0.60628 0.0
C843 C 0.31716 0.13115 0.63537 0.0
N844 N 0.31272 0.1904 0.66518 0.0
N845 N 0.34217 0.13026 0.55049 0.0
C846 C 0.31336 0.17189 0.63664 0.0
C847 C 0.32888 0.14075 0.57825 0.0
N848 N 0.29874 0.22703 0.60864 0.0
N849 N 0.32776 0.07568 0.60518 0.0
H850 H 0.34422 0.14765 0.52967 0.0
H851 H 0.35476 0.10726 0.54848 0.0
H852 H 0.32699 0.05741 0.62523 0.0
H853 H 0.32794 0.05914 0.58447 0.0
H854 H 0.28717 0.23641 0.62855 0.0
H855 H 0.29823 0.24451 0.58847 0.0
H856 H 0.31392 0.22214 0.6681 0.0
H857 H 0.31521 0.17581 0.68624 0.0
C858 C 0.18214 0.37796 0.78494 0.0
C859 C 0.13763 0.34361 0.77372 0.0
C860 C 0.13409 0.29007 0.81322 0.0
C861 C 0.17634 0.32492 0.82771 0.0
N862 N 0.23204 0.4084 0.83082 0.0
N863 N 0.06386 0.27632 0.78693 0.0
C864 C 0.198 0.37113 0.81479 0.0
C865 C 0.11058 0.30407 0.79244 0.0
N866 N 0.20956 0.41607 0.76704 0.0
N867 N 0.11951 0.24357 0.81507 0.0
H868 H 0.04627 0.28567 0.77079 0.0
H869 H 0.04284 0.2468 0.80037 0.0
H870 H 0.141 0.23101 0.82272 0.0
H871 H 0.08963 0.21823 0.80349 0.0
H872 H 0.24427 0.43991 0.77268 0.0
H873 H 0.19775 0.42208 0.74584 0.0
H874 H 0.2465 0.44254 0.82273 0.0
H875 H 0.24133 0.4062 0.85377 0.0
C876 C 0.75865 0.15122 0.93336 0.0
C877 C 0.78171 0.16454 0.90403 0.0
C878 C 0.85196 0.2275 0.92924 0.0
C879 C 0.8309 0.21065 0.95885 0.0
N880 N 0.76119 0.16731 0.98932 0.0
N881 N 0.84305 0.22299 0.87245 0.0
C882 C 0.78284 0.1764 0.96084 0.0
C883 C 0.82588 0.20583 0.90154 0.0
N884 N 0.71517 0.11251 0.93506 0.0
N885 N 0.8978 0.26195 0.92786 0.0
H886 H 0.82382 0.20725 0.85215 0.0
H887 H 0.87387 0.25431 0.8685 0.0
H888 H 0.9168 0.27929 0.94789 0.0
H889 H 0.91729 0.27241 0.9073 0.0
H890 H 0.69827 0.0973 0.95598 0.0
H891 H 0.6964 0.09473 0.91508 0.0
H892 H 0.72552 0.14488 0.99254 0.0
H893 H 0.77882 0.18565 1.00949 0.0
C894 C 0.62767 0.80967 0.0973 0.0
C895 C 0.66941 0.81224 0.08577 0.0
C896 C 0.71336 0.87196 0.12505 0.0
C897 C 0.67193 0.86378 0.14072 0.0
N898 N 0.58753 0.81247 0.14399 0.0
N899 N 0.74792 0.83152 0.1006 0.0
C900 C 0.62822 0.82898 0.12762 0.0
C901 C 0.7109 0.8386 0.10352 0.0
N902 N 0.58808 0.79084 0.07946 0.0
N903 N 0.7548 0.91265 0.12878 0.0
H904 H 0.74605 0.80398 0.08753 0.0
H905 H 0.77779 0.84931 0.11454 0.0
H906 H 0.75726 0.94185 0.13988 0.0
H907 H 0.78485 0.91936 0.1165 0.0
H908 H 0.5585 0.79226 0.08613 0.0
H909 H 0.58625 0.77846 0.05678 0.0
H910 H 0.55597 0.7847 0.13594 0.0
H911 H 0.58592 0.82192 0.167 0.0
C912 C 0.78959 0.64757 0.23925 0.0
C913 C 0.83747 0.66041 0.2386 0.0
C914 C 0.8399 0.66331 0.29619 0.0
C915 C 0.79418 0.65703 0.29669 0.0
N916 N 0.72522 0.64407 0.26889 0.0
N917 N 0.90945 0.68255 0.26591 0.0
C918 C 0.76858 0.64858 0.26829 0.0
C919 C 0.86285 0.66837 0.26697 0.0
N920 N 0.7643 0.63439 0.21203 0.0
N921 N 0.861 0.66373 0.32385 0.0
H922 H 0.92702 0.68498 0.24507 0.0
H923 H 0.93142 0.69457 0.28537 0.0
H924 H 0.84463 0.65932 0.34551 0.0
H925 H 0.89255 0.66406 0.32533 0.0
H926 H 0.72824 0.6203 0.21106 0.0
H927 H 0.77899 0.63422 0.19042 0.0
H928 H 0.7072 0.6442 0.24894 0.0
H929 H 0.70786 0.64228 0.28966 0.0
C930 C 0.17088 0.78376 0.40421 0.0
C931 C 0.20854 0.83003 0.40757 0.0
C932 C 0.20325 0.82151 0.46463 0.0
C933 C 0.15904 0.78051 0.46102 0.0
N934 N 0.1027 0.71857 0.42829 0.0
N935 N 0.26578 0.89126 0.43999 0.0
C936 C 0.14412 0.75957 0.43109 0.0
C937 C 0.22722 0.84781 0.43759 0.0
N938 N 0.15993 0.76429 0.37499 0.0
N939 N 0.22104 0.83562 0.49409 0.0
H940 H 0.28442 0.90986 0.42024 0.0
H941 H 0.27869 0.9091 0.46104 0.0
H942 H 0.20354 0.8163 0.51393 0.0
H943 H 0.25416 0.8638 0.49874 0.0
H944 H 0.13455 0.72979 0.37055 0.0
H945 H 0.17946 0.78229 0.35533 0.0
H946 H 0.08686 0.70376 0.40697 0.0
H947 H 0.08342 0.69977 0.44777 0.0
loop_
_geom_bond_atom_site_label_1
_geom_bond_atom_site_label_2
_geom_bond_distance
_geom_bond_site_symmetry_2
_ccdc_geom_bond_type
Co0 O3 1.970 . S
Co0 N17 1.989 . S
Co0 O25 1.967 . S
Co0 O32 1.920 . S
Co1 O4 1.966 . S
Co1 N10 2.022 . S
Co1 N18 1.993 . S
Co1 O26 1.941 . S
C2 O3 1.258 . S
C2 O4 1.263 . S
O3 Co0 1.970 . S
O3 C2 1.258 . S
O4 Co1 1.966 . S
O4 C2 1.263 . S
C5 O6 1.235 . S
C5 O32 1.289 . S
O6 C5 1.235 . S
C7 C9 1.400 . S
C7 N10 1.351 . S
C7 C12 1.501 . S
C8 C9 1.387 . S
C8 N11 1.341 . S
C9 C7 1.400 . S
C9 C8 1.387 . S
N10 Co1 2.022 . S
N10 C7 1.351 . S
N10 N11 1.365 . S
N11 C8 1.341 . S
N11 N10 1.365 . S
N11 H31 0.862 . S
C12 C7 1.501 . S
C12 H13 0.961 . S
C12 H14 0.961 . S
C12 H15 0.960 . S
H13 C12 0.961 . S
H14 C12 0.961 . S
H15 C12 0.960 . S
C16 N17 1.342 . S
C16 C20 1.401 . S
C16 C21 1.499 . S
N17 Co0 1.989 . S
N17 C16 1.342 . S
N17 N18 1.388 . S
N18 Co1 1.993 . S
N18 N17 1.388 . S
N18 C19 1.346 . S
C19 N18 1.346 . S
C19 C20 1.396 . S
C19 C29 1.510 . S
C20 C16 1.401 . S
C20 C19 1.396 . S
C21 C16 1.499 . S
C21 H22 0.959 . S
C21 H23 0.960 . S
C21 H24 0.961 . S
H22 C21 0.959 . S
H23 C21 0.960 . S
H24 C21 0.961 . S
O25 Co0 1.967 . S
O25 C33 1.258 . S
O26 Co1 1.941 . S
O26 C33 1.266 . S
H27 C29 0.959 . S
H28 C29 0.961 . S
C29 C19 1.510 . S
C29 H27 0.959 . S
C29 H28 0.961 . S
C29 H30 0.960 . S
H30 C29 0.960 . S
H31 N11 0.862 . S
O32 Co0 1.920 . S
O32 C5 1.289 . S
C33 O25 1.258 . S
C33 O26 1.266 . S
Co34 O37 1.970 . S
Co34 N51 1.989 . S
Co34 O59 1.967 . S
Co34 O66 1.920 . S
Co35 O38 1.966 . S
Co35 N44 2.022 . S
Co35 N52 1.993 . S
Co35 O60 1.941 1_455 S
C36 O37 1.258 . S
C36 O38 1.263 . S
O37 Co34 1.970 . S
O37 C36 1.258 . S
O38 Co35 1.966 . S
O38 C36 1.263 . S
C39 O40 1.235 . S
C39 O66 1.289 . S
O40 C39 1.235 . S
C41 C43 1.400 . S
C41 N44 1.351 . S
C41 C46 1.501 . S
C42 C43 1.387 . S
C42 N45 1.341 . S
C43 C41 1.400 . S
C43 C42 1.387 . S
N44 Co35 2.022 . S
N44 C41 1.351 . S
N44 N45 1.365 . S
N45 C42 1.341 . S
N45 N44 1.365 . S
N45 H65 0.862 . S
C46 C41 1.501 . S
C46 H47 0.961 . S
C46 H48 0.961 . S
C46 H49 0.960 . S
H47 C46 0.961 . S
H48 C46 0.961 . S
H49 C46 0.960 . S
C50 N51 1.342 . S
C50 C54 1.401 . S
C50 C55 1.499 . S
N51 Co34 1.989 . S
N51 C50 1.342 . S
N51 N52 1.388 . S
N52 Co35 1.993 . S
N52 N51 1.388 . S
N52 C53 1.346 . S
C53 N52 1.346 . S
C53 C54 1.396 . S
C53 C63 1.510 . S
C54 C50 1.401 . S
C54 C53 1.396 . S
C55 C50 1.499 . S
C55 H56 0.959 . S
C55 H57 0.960 . S
C55 H58 0.961 . S
H56 C55 0.959 . S
H57 C55 0.960 . S
H58 C55 0.961 . S
O59 Co34 1.967 . S
O59 C67 1.258 1_455 S
O60 Co35 1.941 1_655 S
O60 C67 1.266 . S
H61 C63 0.959 . S
H62 C63 0.961 . S
C63 C53 1.510 . S
C63 H61 0.959 . S
C63 H62 0.961 . S
C63 H64 0.960 . S
H64 C63 0.960 . S
H65 N45 0.862 . S
O66 Co34 1.920 . S
O66 C39 1.289 . S
C67 O59 1.258 1_655 S
C67 O60 1.266 . S
Co68 O71 1.970 . S
Co68 N85 1.989 . S
Co68 O93 1.967 . S
Co68 O100 1.920 . S
Co69 O72 1.966 . S
Co69 N78 2.022 . S
Co69 N86 1.993 . S
Co69 O94 1.941 1_545 S
C70 O71 1.258 . S
C70 O72 1.263 . S
O71 Co68 1.970 . S
O71 C70 1.258 . S
O72 Co69 1.966 . S
O72 C70 1.263 . S
C73 O74 1.235 . S
C73 O100 1.289 . S
O74 C73 1.235 . S
C75 C77 1.400 . S
C75 N78 1.351 . S
C75 C80 1.501 . S
C76 C77 1.387 . S
C76 N79 1.341 . S
C77 C75 1.400 . S
C77 C76 1.387 . S
N78 Co69 2.022 . S
N78 C75 1.351 . S
N78 N79 1.365 . S
N79 C76 1.341 . S
N79 N78 1.365 . S
N79 H99 0.862 . S
C80 C75 1.501 . S
C80 H81 0.961 . S
C80 H82 0.961 . S
C80 H83 0.960 . S
H81 C80 0.961 . S
H82 C80 0.961 . S
H83 C80 0.960 . S
C84 N85 1.342 . S
C84 C88 1.401 . S
C84 C89 1.499 . S
N85 Co68 1.989 . S
N85 C84 1.342 . S
N85 N86 1.388 . S
N86 Co69 1.993 . S
N86 N85 1.388 . S
N86 C87 1.346 . S
C87 N86 1.346 . S
C87 C88 1.396 . S
C87 C97 1.510 . S
C88 C84 1.401 . S
C88 C87 1.396 . S
C89 C84 1.499 . S
C89 H90 0.959 . S
C89 H91 0.960 . S
C89 H92 0.961 . S
H90 C89 0.959 . S
H91 C89 0.960 . S
H92 C89 0.961 . S
O93 Co68 1.967 . S
O93 C101 1.258 1_545 S
O94 Co69 1.941 1_565 S
O94 C101 1.266 . S
H95 C97 0.959 . S
H96 C97 0.961 . S
C97 C87 1.510 . S
C97 H95 0.959 . S
C97 H96 0.961 . S
C97 H98 0.960 . S
H98 C97 0.960 . S
H99 N79 0.862 . S
O100 Co68 1.920 . S
O100 C73 1.289 . S
C101 O93 1.258 1_565 S
C101 O94 1.266 . S
Co102 O105 1.970 1_556 S
Co102 N119 1.989 . S
Co102 O127 1.967 . S
Co102 O134 1.920 . S
Co103 O106 1.937 1_556 S
Co103 N112 2.022 . S
Co103 N120 1.993 . S
Co103 O128 1.941 . S
C104 O105 1.258 . S
C104 O106 1.283 . S
O105 Co102 1.970 1_554 S
O105 C104 1.258 . S
O106 Co103 1.937 1_554 S
O106 C104 1.283 . S
C107 O108 1.235 . S
C107 O134 1.289 . S
O108 C107 1.235 . S
C109 C111 1.400 . S
C109 N112 1.351 . S
C109 C114 1.501 . S
C110 C111 1.387 . S
C110 N113 1.341 . S
C111 C109 1.400 . S
C111 C110 1.387 . S
N112 Co103 2.022 . S
N112 C109 1.351 . S
N112 N113 1.365 . S
N113 C110 1.341 . S
N113 N112 1.365 . S
N113 H133 0.862 . S
C114 C109 1.501 . S
C114 H115 0.961 . S
C114 H116 0.961 . S
C114 H117 0.960 . S
H115 C114 0.961 . S
H116 C114 0.961 . S
H117 C114 0.960 . S
C118 N119 1.342 . S
C118 C122 1.401 . S
C118 C123 1.499 . S
N119 Co102 1.989 . S
N119 C118 1.342 . S
N119 N120 1.388 . S
N120 Co103 1.993 . S
N120 N119 1.388 . S
N120 C121 1.346 . S
C121 N120 1.346 . S
C121 C122 1.396 . S
C121 C131 1.510 . S
C122 C118 1.401 . S
C122 C121 1.396 . S
C123 C118 1.499 . S
C123 H124 0.959 . S
C123 H125 0.960 . S
C123 H126 0.961 . S
H124 C123 0.959 . S
H125 C123 0.960 . S
H126 C123 0.961 . S
O127 Co102 1.967 . S
O127 C135 1.258 . S
O128 Co103 1.941 . S
O128 C135 1.266 . S
H129 C131 0.959 . S
H130 C131 0.961 . S
C131 C121 1.510 . S
C131 H129 0.959 . S
C131 H130 0.961 . S
C131 H132 0.960 . S
H132 C131 0.960 . S
H133 N113 0.862 . S
O134 Co102 1.920 . S
O134 C107 1.289 . S
C135 O127 1.258 . S
C135 O128 1.266 . S
Co136 O139 1.970 . S
Co136 N153 1.989 . S
Co136 O161 1.967 . S
Co136 O168 1.920 . S
Co137 O140 1.966 . S
Co137 N146 2.022 . S
Co137 N154 1.993 . S
Co137 O162 1.941 1_655 S
C138 O139 1.258 . S
C138 O140 1.263 . S
O139 Co136 1.970 . S
O139 C138 1.258 . S
O140 Co137 1.966 . S
O140 C138 1.263 . S
C141 O142 1.235 . S
C141 O168 1.289 . S
O142 C141 1.235 . S
C143 C145 1.400 . S
C143 N146 1.351 . S
C143 C148 1.501 . S
C144 C145 1.387 . S
C144 N147 1.341 . S
C145 C143 1.400 . S
C145 C144 1.387 . S
N146 Co137 2.022 . S
N146 C143 1.351 . S
N146 N147 1.365 . S
N147 C144 1.341 . S
N147 N146 1.365 . S
N147 H167 0.862 . S
C148 C143 1.501 . S
C148 H149 0.961 . S
C148 H150 0.961 . S
C148 H151 0.960 . S
H149 C148 0.961 . S
H150 C148 0.961 . S
H151 C148 0.960 . S
C152 N153 1.342 . S
C152 C156 1.401 . S
C152 C157 1.499 . S
N153 Co136 1.989 . S
N153 C152 1.342 . S
N153 N154 1.388 . S
N154 Co137 1.993 . S
N154 N153 1.388 . S
N154 C155 1.346 . S
C155 N154 1.346 . S
C155 C156 1.396 . S
C155 C165 1.510 . S
C156 C152 1.401 . S
C156 C155 1.396 . S
C157 C152 1.499 . S
C157 H158 0.959 . S
C157 H159 0.960 . S
C157 H160 0.961 . S
H158 C157 0.959 . S
H159 C157 0.960 . S
H160 C157 0.961 . S
O161 Co136 1.967 . S
O161 C169 1.258 1_655 S
O162 Co137 1.941 1_455 S
O162 C169 1.266 . S
H163 C165 0.959 . S
H164 C165 0.961 . S
C165 C155 1.510 . S
C165 H163 0.959 . S
C165 H164 0.961 . S
C165 H166 0.960 . S
H166 C165 0.960 . S
H167 N147 0.862 . S
O168 Co136 1.920 . S
O168 C141 1.289 . S
C169 O161 1.258 1_455 S
C169 O162 1.266 . S
Co170 O173 1.970 . S
Co170 N187 1.989 . S
Co170 O195 1.967 . S
Co170 O202 1.920 . S
Co171 O174 1.966 . S
Co171 N180 2.022 . S
Co171 N188 1.993 . S
Co171 O196 1.941 1_565 S
C172 O173 1.258 . S
C172 O174 1.263 . S
O173 Co170 1.970 . S
O173 C172 1.258 . S
O174 Co171 1.966 . S
O174 C172 1.263 . S
C175 O176 1.235 . S
C175 O202 1.289 . S
O176 C175 1.235 . S
C177 C179 1.400 . S
C177 N180 1.351 . S
C177 C182 1.501 . S
C178 C179 1.387 . S
C178 N181 1.341 . S
C179 C177 1.400 . S
C179 C178 1.387 . S
N180 Co171 2.022 . S
N180 C177 1.351 . S
N180 N181 1.365 . S
N181 C178 1.341 . S
N181 N180 1.365 . S
N181 H201 0.862 . S
C182 C177 1.501 . S
C182 H183 0.961 . S
C182 H184 0.961 . S
C182 H185 0.960 . S
H183 C182 0.961 . S
H184 C182 0.961 . S
H185 C182 0.960 . S
C186 N187 1.342 . S
C186 C190 1.401 . S
C186 C191 1.499 . S
N187 Co170 1.989 . S
N187 C186 1.342 . S
N187 N188 1.388 . S
N188 Co171 1.993 . S
N188 N187 1.388 . S
N188 C189 1.346 . S
C189 N188 1.346 . S
C189 C190 1.396 . S
C189 C199 1.510 . S
C190 C186 1.401 . S
C190 C189 1.396 . S
C191 C186 1.499 . S
C191 H192 0.959 . S
C191 H193 0.960 . S
C191 H194 0.961 . S
H192 C191 0.959 . S
H193 C191 0.960 . S
H194 C191 0.961 . S
O195 Co170 1.967 . S
O195 C203 1.258 1_565 S
O196 Co171 1.941 1_545 S
O196 C203 1.266 . S
H197 C199 0.959 . S
H198 C199 0.961 . S
C199 C189 1.510 . S
C199 H197 0.959 . S
C199 H198 0.961 . S
C199 H200 0.960 . S
H200 C199 0.960 . S
H201 N181 0.862 . S
O202 Co170 1.920 . S
O202 C175 1.289 . S
C203 O195 1.258 1_545 S
C203 O196 1.266 . S
Co204 O207 1.970 . S
Co204 N221 1.989 . S
Co204 O229 1.967 . S
Co204 O236 1.920 . S
Co205 O208 1.966 . S
Co205 N214 2.022 . S
Co205 N222 1.993 . S
Co205 O230 1.941 . S
C206 O207 1.258 . S
C206 O208 1.263 . S
O207 Co204 1.970 . S
O207 C206 1.258 . S
O208 Co205 1.966 . S
O208 C206 1.263 . S
C209 O210 1.235 . S
C209 O236 1.289 . S
O210 C209 1.235 . S
C211 C213 1.400 . S
C211 N214 1.351 . S
C211 C216 1.501 . S
C212 C213 1.387 . S
C212 N215 1.341 . S
C213 C211 1.400 . S
C213 C212 1.387 . S
N214 Co205 2.022 . S
N214 C211 1.351 . S
N214 N215 1.365 . S
N215 C212 1.341 . S
N215 N214 1.365 . S
N215 H235 0.862 . S
C216 C211 1.501 . S
C216 H217 0.961 . S
C216 H218 0.961 . S
C216 H219 0.960 . S
H217 C216 0.961 . S
H218 C216 0.961 . S
H219 C216 0.960 . S
C220 N221 1.342 . S
C220 C224 1.401 . S
C220 C225 1.499 . S
N221 Co204 1.989 . S
N221 C220 1.342 . S
N221 N222 1.388 . S
N222 Co205 1.993 . S
N222 N221 1.388 . S
N222 C223 1.346 . S
C223 N222 1.346 . S
C223 C224 1.396 . S
C223 C233 1.510 . S
C224 C220 1.401 . S
C224 C223 1.396 . S
C225 C220 1.499 . S
C225 H226 0.959 . S
C225 H227 0.960 . S
C225 H228 0.961 . S
H226 C225 0.959 . S
H227 C225 0.960 . S
H228 C225 0.961 . S
O229 Co204 1.967 . S
O229 C237 1.258 . S
O230 Co205 1.941 . S
O230 C237 1.266 . S
H231 C233 0.959 . S
H232 C233 0.961 . S
C233 C223 1.510 . S
C233 H231 0.959 . S
C233 H232 0.961 . S
C233 H234 0.960 . S
H234 C233 0.960 . S
H235 N215 0.862 . S
O236 Co204 1.920 . S
O236 C209 1.289 . S
C237 O229 1.258 . S
C237 O230 1.266 . S
Co238 O241 1.970 . S
Co238 N255 1.989 . S
Co238 O263 1.967 . S
Co238 O270 1.920 . S
Co239 O242 1.966 . S
Co239 N248 2.022 . S
Co239 N256 1.993 . S
Co239 O264 1.941 1_455 S
C240 O241 1.258 . S
C240 O242 1.263 . S
O241 Co238 1.970 . S
O241 C240 1.258 . S
O242 Co239 1.966 . S
O242 C240 1.263 . S
C243 O244 1.235 . S
C243 O270 1.289 . S
O244 C243 1.235 . S
C245 C247 1.400 . S
C245 N248 1.351 . S
C245 C250 1.501 . S
C246 C247 1.387 . S
C246 N249 1.341 . S
C247 C245 1.400 . S
C247 C246 1.387 . S
N248 Co239 2.022 . S
N248 C245 1.351 . S
N248 N249 1.365 . S
N249 C246 1.341 . S
N249 N248 1.365 . S
N249 H269 0.862 . S
C250 C245 1.501 . S
C250 H251 0.961 . S
C250 H252 0.961 . S
C250 H253 0.960 . S
H251 C250 0.961 . S
H252 C250 0.961 . S
H253 C250 0.960 . S
C254 N255 1.342 . S
C254 C258 1.401 . S
C254 C259 1.499 . S
N255 Co238 1.989 . S
N255 C254 1.342 . S
N255 N256 1.388 . S
N256 Co239 1.993 . S
N256 N255 1.388 . S
N256 C257 1.346 . S
C257 N256 1.346 . S
C257 C258 1.396 . S
C257 C267 1.510 . S
C258 C254 1.401 . S
C258 C257 1.396 . S
C259 C254 1.499 . S
C259 H260 0.959 . S
C259 H261 0.960 . S
C259 H262 0.961 . S
H260 C259 0.959 . S
H261 C259 0.960 . S
H262 C259 0.961 . S
O263 Co238 1.967 . S
O263 C271 1.258 1_455 S
O264 Co239 1.941 1_655 S
O264 C271 1.266 . S
H265 C267 0.959 . S
H266 C267 0.961 . S
C267 C257 1.510 . S
C267 H265 0.959 . S
C267 H266 0.961 . S
C267 H268 0.960 . S
H268 C267 0.960 . S
H269 N249 0.862 . S
O270 Co238 1.920 . S
O270 C243 1.289 . S
C271 O263 1.258 1_655 S
C271 O264 1.266 . S
Co272 O275 1.970 . S
Co272 N289 1.989 . S
Co272 O297 1.967 . S
Co272 O304 1.920 . S
Co273 O276 1.966 . S
Co273 N282 2.022 . S
Co273 N290 1.993 . S
Co273 O298 1.941 1_545 S
C274 O275 1.258 . S
C274 O276 1.263 . S
O275 Co272 1.970 . S
O275 C274 1.258 . S
O276 Co273 1.966 . S
O276 C274 1.263 . S
C277 O278 1.235 . S
C277 O304 1.289 . S
O278 C277 1.235 . S
C279 C281 1.400 . S
C279 N282 1.351 . S
C279 C284 1.501 . S
C280 C281 1.387 . S
C280 N283 1.341 . S
C281 C279 1.400 . S
C281 C280 1.387 . S
N282 Co273 2.022 . S
N282 C279 1.351 . S
N282 N283 1.365 . S
N283 C280 1.341 . S
N283 N282 1.365 . S
N283 H303 0.862 . S
C284 C279 1.501 . S
C284 H285 0.961 . S
C284 H286 0.961 . S
C284 H287 0.960 . S
H285 C284 0.961 . S
H286 C284 0.961 . S
H287 C284 0.960 . S
C288 N289 1.342 . S
C288 C292 1.401 . S
C288 C293 1.499 . S
N289 Co272 1.989 . S
N289 C288 1.342 . S
N289 N290 1.388 . S
N290 Co273 1.993 . S
N290 N289 1.388 . S
N290 C291 1.346 . S
C291 N290 1.346 . S
C291 C292 1.396 . S
C291 C301 1.510 . S
C292 C288 1.401 . S
C292 C291 1.396 . S
C293 C288 1.499 . S
C293 H294 0.959 . S
C293 H295 0.960 . S
C293 H296 0.961 . S
H294 C293 0.959 . S
H295 C293 0.960 . S
H296 C293 0.961 . S
O297 Co272 1.967 . S
O297 C305 1.258 1_545 S
O298 Co273 1.941 1_565 S
O298 C305 1.266 . S
H299 C301 0.959 . S
H300 C301 0.961 . S
C301 C291 1.510 . S
C301 H299 0.959 . S
C301 H300 0.961 . S
C301 H302 0.960 . S
H302 C301 0.960 . S
H303 N283 0.862 . S
O304 Co272 1.920 . S
O304 C277 1.289 . S
C305 O297 1.258 1_565 S
C305 O298 1.266 . S
Co306 O309 1.970 . S
Co306 N323 1.989 . S
Co306 O331 1.967 . S
Co306 O338 1.920 . S
Co307 O310 1.966 . S
Co307 N316 2.022 . S
Co307 N324 1.993 . S
Co307 O332 1.941 . S
C308 O309 1.258 . S
C308 O310 1.263 . S
O309 Co306 1.970 . S
O309 C308 1.258 . S
O310 Co307 1.966 . S
O310 C308 1.263 . S
C311 O312 1.235 . S
C311 O338 1.289 . S
O312 C311 1.235 . S
C313 C315 1.400 . S
C313 N316 1.351 . S
C313 C318 1.501 . S
C314 C315 1.387 . S
C314 N317 1.341 . S
C315 C313 1.400 . S
C315 C314 1.387 . S
N316 Co307 2.022 . S
N316 C313 1.351 . S
N316 N317 1.365 . S
N317 C314 1.341 . S
N317 N316 1.365 . S
N317 H337 0.862 . S
C318 C313 1.501 . S
C318 H319 0.961 . S
C318 H320 0.961 . S
C318 H321 0.960 . S
H319 C318 0.961 . S
H320 C318 0.961 . S
H321 C318 0.960 . S
C322 N323 1.342 . S
C322 C326 1.401 . S
C322 C327 1.499 . S
N323 Co306 1.989 . S
N323 C322 1.342 . S
N323 N324 1.388 . S
N324 Co307 1.993 . S
N324 N323 1.388 . S
N324 C325 1.346 . S
C325 N324 1.346 . S
C325 C326 1.396 . S
C325 C335 1.510 . S
C326 C322 1.401 . S
C326 C325 1.396 . S
C327 C322 1.499 . S
C327 H328 0.959 . S
C327 H329 0.960 . S
C327 H330 0.961 . S
H328 C327 0.959 . S
H329 C327 0.960 . S
H330 C327 0.961 . S
O331 Co306 1.967 . S
O331 C339 1.258 . S
O332 Co307 1.941 . S
O332 C339 1.266 . S
H333 C335 0.959 . S
H334 C335 0.961 . S
C335 C325 1.510 . S
C335 H333 0.959 . S
C335 H334 0.961 . S
C335 H336 0.960 . S
H336 C335 0.960 . S
H337 N317 0.862 . S
O338 Co306 1.920 . S
O338 C311 1.289 . S
C339 O331 1.258 . S
C339 O332 1.266 . S
Co340 O343 1.970 1_554 S
Co340 N357 1.989 . S
Co340 O365 1.967 . S
Co340 O372 1.920 . S
Co341 O344 1.937 1_554 S
Co341 N350 2.022 . S
Co341 N358 1.993 . S
Co341 O366 1.941 1_655 S
C342 O343 1.258 . S
C342 O344 1.283 . S
O343 Co340 1.970 1_556 S
O343 C342 1.258 . S
O344 Co341 1.937 1_556 S
O344 C342 1.283 . S
C345 O346 1.235 . S
C345 O372 1.289 . S
O346 C345 1.235 . S
C347 C349 1.400 . S
C347 N350 1.351 . S
C347 C352 1.501 . S
C348 C349 1.387 . S
C348 N351 1.341 . S
C349 C347 1.400 . S
C349 C348 1.387 . S
N350 Co341 2.022 . S
N350 C347 1.351 . S
N350 N351 1.365 . S
N351 C348 1.341 . S
N351 N350 1.365 . S
N351 H371 0.862 . S
C352 C347 1.501 . S
C352 H353 0.961 . S
C352 H354 0.961 . S
C352 H355 0.960 . S
H353 C352 0.961 . S
H354 C352 0.961 . S
H355 C352 0.960 . S
C356 N357 1.342 . S
C356 C360 1.401 . S
C356 C361 1.499 . S
N357 Co340 1.989 . S
N357 C356 1.342 . S
N357 N358 1.388 . S
N358 Co341 1.993 . S
N358 N357 1.388 . S
N358 C359 1.346 . S
C359 N358 1.346 . S
C359 C360 1.396 . S
C359 C369 1.510 . S
C360 C356 1.401 . S
C360 C359 1.396 . S
C361 C356 1.499 . S
C361 H362 0.959 . S
C361 H363 0.960 . S
C361 H364 0.961 . S
H362 C361 0.959 . S
H363 C361 0.960 . S
H364 C361 0.961 . S
O365 Co340 1.967 . S
O365 C373 1.258 1_655 S
O366 Co341 1.941 1_455 S
O366 C373 1.266 . S
H367 C369 0.959 . S
H368 C369 0.961 . S
C369 C359 1.510 . S
C369 H367 0.959 . S
C369 H368 0.961 . S
C369 H370 0.960 . S
H370 C369 0.960 . S
H371 N351 0.862 . S
O372 Co340 1.920 . S
O372 C345 1.289 . S
C373 O365 1.258 1_455 S
C373 O366 1.266 . S
Co374 O377 1.970 . S
Co374 N391 1.989 . S
Co374 O399 1.967 . S
Co374 O406 1.920 . S
Co375 O378 1.966 . S
Co375 N384 2.022 . S
Co375 N392 1.993 . S
Co375 O400 1.941 1_565 S
C376 O377 1.258 . S
C376 O378 1.263 . S
O377 Co374 1.970 . S
O377 C376 1.258 . S
O378 Co375 1.966 . S
O378 C376 1.263 . S
C379 O380 1.235 . S
C379 O406 1.289 . S
O380 C379 1.235 . S
C381 C383 1.400 . S
C381 N384 1.351 . S
C381 C386 1.501 . S
C382 C383 1.387 . S
C382 N385 1.341 . S
C383 C381 1.400 . S
C383 C382 1.387 . S
N384 Co375 2.022 . S
N384 C381 1.351 . S
N384 N385 1.365 . S
N385 C382 1.341 . S
N385 N384 1.365 . S
N385 H405 0.862 . S
C386 C381 1.501 . S
C386 H387 0.961 . S
C386 H388 0.961 . S
C386 H389 0.960 . S
H387 C386 0.961 . S
H388 C386 0.961 . S
H389 C386 0.960 . S
C390 N391 1.342 . S
C390 C394 1.401 . S
C390 C395 1.499 . S
N391 Co374 1.989 . S
N391 C390 1.342 . S
N391 N392 1.388 . S
N392 Co375 1.993 . S
N392 N391 1.388 . S
N392 C393 1.346 . S
C393 N392 1.346 . S
C393 C394 1.396 . S
C393 C403 1.510 . S
C394 C390 1.401 . S
C394 C393 1.396 . S
C395 C390 1.499 . S
C395 H396 0.959 . S
C395 H397 0.960 . S
C395 H398 0.961 . S
H396 C395 0.959 . S
H397 C395 0.960 . S
H398 C395 0.961 . S
O399 Co374 1.967 . S
O399 C407 1.258 1_565 S
O400 Co375 1.941 1_545 S
O400 C407 1.266 . S
H401 C403 0.959 . S
H402 C403 0.961 . S
C403 C393 1.510 . S
C403 H401 0.959 . S
C403 H402 0.961 . S
C403 H404 0.960 . S
H404 C403 0.960 . S
H405 N385 0.862 . S
O406 Co374 1.920 . S
O406 C379 1.289 . S
C407 O399 1.258 1_545 S
C407 O400 1.266 . S
C408 C409 1.363 . S
C408 C414 1.379 . S
C408 N416 1.356 . S
C409 C408 1.363 . S
C409 C415 1.363 . S
C410 C411 1.363 . S
C410 C415 1.379 . S
C410 N417 1.356 . S
C411 C410 1.363 . S
C411 C414 1.363 . S
N412 C414 1.356 . S
N412 H424 0.984 . S
N412 H425 0.985 . S
N413 C415 1.356 . S
N413 H418 0.984 . S
N413 H419 0.985 . S
C414 C408 1.379 . S
C414 C411 1.363 . S
C414 N412 1.356 . S
C415 C409 1.363 . S
C415 C410 1.379 . S
C415 N413 1.356 . S
N416 C408 1.356 . S
N416 H422 0.984 . S
N416 H423 0.984 . S
N417 C410 1.356 . S
N417 H420 0.984 . S
N417 H421 0.985 . S
H418 N413 0.984 . S
H419 N413 0.985 . S
H420 N417 0.984 . S
H421 N417 0.985 . S
H422 N416 0.984 . S
H423 N416 0.984 . S
H424 N412 0.984 . S
H425 N412 0.985 . S
C426 C427 1.363 . S
C426 C432 1.379 . S
C426 N434 1.356 . S
C427 C426 1.363 . S
C427 C433 1.363 . S
C428 C429 1.363 . S
C428 C433 1.379 . S
C428 N435 1.356 . S
C429 C428 1.363 . S
C429 C432 1.363 . S
N430 C432 1.356 . S
N430 H442 0.984 . S
N430 H443 0.985 . S
N431 C433 1.356 . S
N431 H436 0.984 . S
N431 H437 0.985 . S
C432 C426 1.379 . S
C432 C429 1.363 . S
C432 N430 1.356 . S
C433 C427 1.363 . S
C433 C428 1.379 . S
C433 N431 1.356 . S
N434 C426 1.356 . S
N434 H440 0.984 . S
N434 H441 0.984 . S
N435 C428 1.356 . S
N435 H438 0.984 . S
N435 H439 0.985 . S
H436 N431 0.984 . S
H437 N431 0.985 . S
H438 N435 0.984 . S
H439 N435 0.985 . S
H440 N434 0.984 . S
H441 N434 0.984 . S
H442 N430 0.984 . S
H443 N430 0.985 . S
C444 C445 1.363 . S
C444 C450 1.379 . S
C444 N452 1.356 . S
C445 C444 1.363 . S
C445 C451 1.363 . S
C446 C447 1.363 . S
C446 C451 1.379 . S
C446 N453 1.356 . S
C447 C446 1.363 . S
C447 C450 1.363 . S
N448 C450 1.356 . S
N448 H460 0.984 . S
N448 H461 0.985 . S
N449 C451 1.356 . S
N449 H454 0.984 . S
N449 H455 0.985 1_545 S
C450 C444 1.379 . S
C450 C447 1.363 . S
C450 N448 1.356 . S
C451 C445 1.363 . S
C451 C446 1.379 . S
C451 N449 1.356 . S
N452 C444 1.356 . S
N452 H458 0.984 . S
N452 H459 0.984 . S
N453 C446 1.356 . S
N453 H456 0.984 . S
N453 H457 0.985 1_545 S
H454 N449 0.984 . S
H455 N449 0.985 1_565 S
H456 N453 0.984 . S
H457 N453 0.985 1_565 S
H458 N452 0.984 . S
H459 N452 0.984 . S
H460 N448 0.984 . S
H461 N448 0.985 . S
C462 C463 1.363 . S
C462 C468 1.379 . S
C462 N470 1.356 . S
C463 C462 1.363 . S
C463 C469 1.363 . S
C464 C465 1.363 . S
C464 C469 1.379 . S
C464 N471 1.356 . S
C465 C464 1.363 . S
C465 C468 1.363 . S
N466 C468 1.356 . S
N466 H478 0.984 . S
N466 H479 0.985 . S
N467 C469 1.356 . S
N467 H472 0.984 . S
N467 H473 0.985 . S
C468 C462 1.379 . S
C468 C465 1.363 . S
C468 N466 1.356 . S
C469 C463 1.363 . S
C469 C464 1.379 . S
C469 N467 1.356 . S
N470 C462 1.356 . S
N470 H476 0.984 . S
N470 H477 0.984 . S
N471 C464 1.356 . S
N471 H474 0.984 . S
N471 H475 0.985 . S
H472 N467 0.984 . S
H473 N467 0.985 . S
H474 N471 0.984 . S
H475 N471 0.985 . S
H476 N470 0.984 . S
H477 N470 0.984 . S
H478 N466 0.984 . S
H479 N466 0.985 . S
C480 C481 1.363 . S
C480 C486 1.379 . S
C480 N488 1.356 . S
C481 C480 1.363 . S
C481 C487 1.363 . S
C482 C483 1.363 . S
C482 C487 1.379 . S
C482 N489 1.356 . S
C483 C482 1.363 . S
C483 C486 1.363 . S
N484 C486 1.356 . S
N484 H496 0.984 . S
N484 H497 0.985 . S
N485 C487 1.356 . S
N485 H490 0.984 . S
N485 H491 0.985 . S
C486 C480 1.379 . S
C486 C483 1.363 . S
C486 N484 1.356 . S
C487 C481 1.363 . S
C487 C482 1.379 . S
C487 N485 1.356 . S
N488 C480 1.356 . S
N488 H494 0.984 . S
N488 H495 0.984 . S
N489 C482 1.356 . S
N489 H492 0.984 . S
N489 H493 0.985 . S
H490 N485 0.984 . S
H491 N485 0.985 . S
H492 N489 0.984 . S
H493 N489 0.985 . S
H494 N488 0.984 . S
H495 N488 0.984 . S
H496 N484 0.984 . S
H497 N484 0.985 . S
C498 C499 1.363 . S
C498 C504 1.379 . S
C498 N506 1.356 . S
C499 C498 1.363 . S
C499 C505 1.363 . S
C500 C501 1.363 . S
C500 C505 1.379 . S
C500 N507 1.356 . S
C501 C500 1.363 . S
C501 C504 1.363 . S
N502 C504 1.356 . S
N502 H514 0.984 1_565 S
N502 H515 0.985 . S
N503 C505 1.356 . S
N503 H508 0.984 . S
N503 H509 0.985 . S
C504 C498 1.379 . S
C504 C501 1.363 . S
C504 N502 1.356 . S
C505 C499 1.363 . S
C505 C500 1.379 . S
C505 N503 1.356 . S
N506 C498 1.356 . S
N506 H512 0.984 1_565 S
N506 H513 0.984 . S
N507 C500 1.356 . S
N507 H510 0.984 . S
N507 H511 0.985 . S
H508 N503 0.984 . S
H509 N503 0.985 . S
H510 N507 0.984 . S
H511 N507 0.985 . S
H512 N506 0.984 1_545 S
H513 N506 0.984 . S
H514 N502 0.984 1_545 S
H515 N502 0.985 . S
C516 C517 1.363 . S
C516 C522 1.379 1_565 S
C516 N524 1.356 . S
C517 C516 1.363 . S
C517 C523 1.363 . S
C518 C519 1.363 . S
C518 C523 1.379 1_545 S
C518 N525 1.356 . S
C519 C518 1.363 . S
C519 C522 1.363 . S
N520 C522 1.356 . S
N520 H532 0.984 . S
N520 H533 0.985 . S
N521 C523 1.356 . S
N521 H526 0.984 . S
N521 H527 0.985 . S
C522 C516 1.379 1_545 S
C522 C519 1.363 . S
C522 N520 1.356 . S
C523 C517 1.363 . S
C523 C518 1.379 1_565 S
C523 N521 1.356 . S
N524 C516 1.356 . S
N524 H530 0.984 . S
N524 H531 0.984 . S
N525 C518 1.356 . S
N525 H528 0.984 . S
N525 H529 0.985 . S
H526 N521 0.984 . S
H527 N521 0.985 . S
H528 N525 0.984 . S
H529 N525 0.985 . S
H530 N524 0.984 . S
H531 N524 0.984 . S
H532 N520 0.984 . S
H533 N520 0.985 . S
C534 C535 1.363 . S
C534 C540 1.379 . S
C534 N542 1.356 . S
C535 C534 1.363 . S
C535 C541 1.363 . S
C536 C537 1.363 . S
C536 C541 1.379 . S
C536 N543 1.356 . S
C537 C536 1.363 . S
C537 C540 1.363 . S
N538 C540 1.356 . S
N538 H550 0.984 . S
N538 H551 0.985 . S
N539 C541 1.356 . S
N539 H544 0.984 . S
N539 H545 0.985 . S
C540 C534 1.379 . S
C540 C537 1.363 . S
C540 N538 1.356 . S
C541 C535 1.363 . S
C541 C536 1.379 . S
C541 N539 1.356 . S
N542 C534 1.356 . S
N542 H548 0.984 . S
N542 H549 0.984 . S
N543 C536 1.356 . S
N543 H546 0.984 . S
N543 H547 0.985 . S
H544 N539 0.984 . S
H545 N539 0.985 . S
H546 N543 0.984 . S
H547 N543 0.985 . S
H548 N542 0.984 . S
H549 N542 0.984 . S
H550 N538 0.984 . S
H551 N538 0.985 . S
C552 C553 1.363 . S
C552 C558 1.379 1_455 S
C552 N560 1.356 . S
C553 C552 1.363 . S
C553 C559 1.363 . S
C554 C555 1.363 . S
C554 C559 1.379 1_655 S
C554 N561 1.356 . S
C555 C554 1.363 . S
C555 C558 1.363 . S
N556 C558 1.356 . S
N556 H568 0.984 . S
N556 H569 0.985 . S
N557 C559 1.356 . S
N557 H562 0.984 . S
N557 H563 0.985 . S
C558 C552 1.379 1_655 S
C558 C555 1.363 . S
C558 N556 1.356 . S
C559 C553 1.363 . S
C559 C554 1.379 1_455 S
C559 N557 1.356 . S
N560 C552 1.356 . S
N560 H566 0.984 . S
N560 H567 0.984 . S
N561 C554 1.356 . S
N561 H564 0.984 . S
N561 H565 0.985 . S
H562 N557 0.984 . S
H563 N557 0.985 . S
H564 N561 0.984 . S
H565 N561 0.985 . S
H566 N560 0.984 . S
H567 N560 0.984 . S
H568 N556 0.984 . S
H569 N556 0.985 . S
C570 C571 1.363 . S
C570 C576 1.379 1_565 S
C570 N578 1.356 . S
C571 C570 1.363 . S
C571 C577 1.363 1_556 S
C572 C573 1.363 . S
C572 C577 1.379 1_545 S
C572 N579 1.356 . S
C573 C572 1.363 . S
C573 C576 1.363 1_554 S
N574 C576 1.356 . S
N574 H586 0.984 . S
N574 H587 0.985 . S
N575 C577 1.356 . S
N575 H580 0.984 . S
N575 H581 0.985 . S
C576 C570 1.379 1_545 S
C576 C573 1.363 1_556 S
C576 N574 1.356 . S
C577 C571 1.363 1_554 S
C577 C572 1.379 1_565 S
C577 N575 1.356 . S
N578 C570 1.356 . S
N578 H584 0.984 . S
N578 H585 0.984 . S
N579 C572 1.356 . S
N579 H582 0.984 . S
N579 H583 0.985 . S
H580 N575 0.984 . S
H581 N575 0.985 . S
H582 N579 0.984 . S
H583 N579 0.985 . S
H584 N578 0.984 . S
H585 N578 0.984 . S
H586 N574 0.984 . S
H587 N574 0.985 . S
C588 C589 1.363 . S
C588 C594 1.379 . S
C588 N596 1.356 . S
C589 C588 1.363 . S
C589 C595 1.363 . S
C590 C591 1.363 . S
C590 C595 1.379 . S
C590 N597 1.356 . S
C591 C590 1.363 . S
C591 C594 1.363 . S
N592 C594 1.356 . S
N592 H604 0.984 . S
N592 H605 0.985 . S
N593 C595 1.356 . S
N593 H598 0.984 . S
N593 H599 0.985 . S
C594 C588 1.379 . S
C594 C591 1.363 . S
C594 N592 1.356 . S
C595 C589 1.363 . S
C595 C590 1.379 . S
C595 N593 1.356 . S
N596 C588 1.356 . S
N596 H602 0.984 . S
N596 H603 0.984 . S
N597 C590 1.356 . S
N597 H600 0.984 . S
N597 H601 0.985 . S
H598 N593 0.984 . S
H599 N593 0.985 . S
H600 N597 0.984 . S
H601 N597 0.985 . S
H602 N596 0.984 . S
H603 N596 0.984 . S
H604 N592 0.984 . S
H605 N592 0.985 . S
C606 C607 1.363 . S
C606 C612 1.379 1_455 S
C606 N614 1.356 . S
C607 C606 1.363 . S
C607 C613 1.363 . S
C608 C609 1.363 . S
C608 C613 1.379 1_655 S
C608 N615 1.356 . S
C609 C608 1.363 . S
C609 C612 1.363 . S
N610 C612 1.356 . S
N610 H622 0.984 . S
N610 H623 0.985 . S
N611 C613 1.356 . S
N611 H616 0.984 . S
N611 H617 0.985 . S
C612 C606 1.379 1_655 S
C612 C609 1.363 . S
C612 N610 1.356 . S
C613 C607 1.363 . S
C613 C608 1.379 1_455 S
C613 N611 1.356 . S
N614 C606 1.356 . S
N614 H620 0.984 . S
N614 H621 0.984 . S
N615 C608 1.356 . S
N615 H618 0.984 . S
N615 H619 0.985 . S
H616 N611 0.984 . S
H617 N611 0.985 . S
H618 N615 0.984 . S
H619 N615 0.985 . S
H620 N614 0.984 . S
H621 N614 0.984 . S
H622 N610 0.984 . S
H623 N610 0.985 . S
C624 C625 1.363 . S
C624 C630 1.379 . S
C624 N632 1.356 . S
C625 C624 1.363 . S
C625 C631 1.363 . S
C626 C627 1.363 . S
C626 C631 1.379 . S
C626 N633 1.356 . S
C627 C626 1.363 . S
C627 C630 1.363 . S
N628 C630 1.356 . S
N628 H640 0.984 . S
N628 H641 0.985 . S
N629 C631 1.356 . S
N629 H634 0.984 . S
N629 H635 0.985 . S
C630 C624 1.379 . S
C630 C627 1.363 . S
C630 N628 1.356 . S
C631 C625 1.363 . S
C631 C626 1.379 . S
C631 N629 1.356 . S
N632 C624 1.356 . S
N632 H638 0.984 . S
N632 H639 0.984 . S
N633 C626 1.356 . S
N633 H636 0.984 . S
N633 H637 0.985 . S
H634 N629 0.984 . S
H635 N629 0.985 . S
H636 N633 0.984 . S
H637 N633 0.985 . S
H638 N632 0.984 . S
H639 N632 0.984 . S
H640 N628 0.984 . S
H641 N628 0.985 . S
C642 C643 1.363 . S
C642 C648 1.379 . S
C642 N650 1.356 . S
C643 C642 1.363 . S
C643 C649 1.363 . S
C644 C645 1.363 . S
C644 C649 1.379 . S
C644 N651 1.356 . S
C645 C644 1.363 . S
C645 C648 1.363 . S
N646 C648 1.356 . S
N646 H658 0.984 . S
N646 H659 0.985 . S
N647 C649 1.356 . S
N647 H652 0.984 . S
N647 H653 0.985 . S
C648 C642 1.379 . S
C648 C645 1.363 . S
C648 N646 1.356 . S
C649 C643 1.363 . S
C649 C644 1.379 . S
C649 N647 1.356 . S
N650 C642 1.356 . S
N650 H656 0.984 . S
N650 H657 0.984 . S
N651 C644 1.356 . S
N651 H654 0.984 . S
N651 H655 0.985 . S
H652 N647 0.984 . S
H653 N647 0.985 . S
H654 N651 0.984 . S
H655 N651 0.985 . S
H656 N650 0.984 . S
H657 N650 0.984 . S
H658 N646 0.984 . S
H659 N646 0.985 . S
C660 C661 1.363 . S
C660 C666 1.379 . S
C660 N668 1.356 . S
C661 C660 1.363 . S
C661 C667 1.363 . S
C662 C663 1.363 . S
C662 C667 1.379 . S
C662 N669 1.356 . S
C663 C662 1.363 . S
C663 C666 1.363 . S
N664 C666 1.356 . S
N664 H676 0.984 . S
N664 H677 0.985 . S
N665 C667 1.356 . S
N665 H670 0.984 . S
N665 H671 0.985 . S
C666 C660 1.379 . S
C666 C663 1.363 . S
C666 N664 1.356 . S
C667 C661 1.363 . S
C667 C662 1.379 . S
C667 N665 1.356 . S
N668 C660 1.356 . S
N668 H674 0.984 . S
N668 H675 0.984 . S
N669 C662 1.356 . S
N669 H672 0.984 . S
N669 H673 0.985 . S
H670 N665 0.984 . S
H671 N665 0.985 . S
H672 N669 0.984 . S
H673 N669 0.985 . S
H674 N668 0.984 . S
H675 N668 0.984 . S
H676 N664 0.984 . S
H677 N664 0.985 . S
C678 C679 1.363 . S
C678 C684 1.379 . S
C678 N686 1.356 . S
C679 C678 1.363 . S
C679 C685 1.363 . S
C680 C681 1.363 . S
C680 C685 1.379 . S
C680 N687 1.356 . S
C681 C680 1.363 . S
C681 C684 1.363 . S
N682 C684 1.356 . S
N682 H694 0.984 . S
N682 H695 0.985 . S
N683 C685 1.356 . S
N683 H688 0.984 1_565 S
N683 H689 0.984 . S
C684 C678 1.379 . S
C684 C681 1.363 . S
C684 N682 1.356 . S
C685 C679 1.363 . S
C685 C680 1.379 . S
C685 N683 1.356 . S
N686 C678 1.356 . S
N686 H692 0.984 . S
N686 H693 0.984 . S
N687 C680 1.356 . S
N687 H690 0.984 . S
N687 H691 0.985 . S
H688 N683 0.984 1_545 S
H689 N683 0.984 . S
H690 N687 0.984 . S
H691 N687 0.985 . S
H692 N686 0.984 . S
H693 N686 0.984 . S
H694 N682 0.984 . S
H695 N682 0.985 . S
C696 C697 1.363 1_554 S
C696 C702 1.379 . S
C696 N704 1.356 1_554 S
C697 C696 1.363 1_556 S
C697 C703 1.363 1_556 S
C698 C699 1.363 . S
C698 C703 1.379 . S
C698 N705 1.356 . S
C699 C698 1.363 . S
C699 C702 1.363 . S
N700 C702 1.356 . S
N700 H712 0.984 . S
N700 H713 0.985 . S
N701 C703 1.356 . S
N701 H706 0.984 1_554 S
N701 H707 0.985 . S
C702 C696 1.379 . S
C702 C699 1.363 . S
C702 N700 1.356 . S
C703 C697 1.363 1_554 S
C703 C698 1.379 . S
C703 N701 1.356 . S
N704 C696 1.356 1_556 S
N704 H710 0.984 . S
N704 H711 0.984 . S
N705 C698 1.356 . S
N705 H708 0.984 . S
N705 H709 0.985 . S
H706 N701 0.984 1_556 S
H707 N701 0.985 . S
H708 N705 0.984 . S
H709 N705 0.985 . S
H710 N704 0.984 . S
H711 N704 0.984 . S
H712 N700 0.984 . S
H713 N700 0.985 . S
C714 C715 1.363 . S
C714 C720 1.379 . S
C714 N722 1.356 . S
C715 C714 1.363 . S
C715 C721 1.363 . S
C716 C717 1.363 . S
C716 C721 1.379 . S
C716 N723 1.356 . S
C717 C716 1.363 . S
C717 C720 1.363 . S
N718 C720 1.356 . S
N718 H730 0.984 . S
N718 H731 0.985 . S
N719 C721 1.356 . S
N719 H724 0.984 1_455 S
N719 H725 0.984 1_455 S
C720 C714 1.379 . S
C720 C717 1.363 . S
C720 N718 1.356 . S
C721 C715 1.363 . S
C721 C716 1.379 . S
C721 N719 1.356 . S
N722 C714 1.356 . S
N722 H728 0.984 . S
N722 H729 0.984 . S
N723 C716 1.356 . S
N723 H726 0.984 . S
N723 H727 0.985 . S
H724 N719 0.984 1_655 S
H725 N719 0.984 1_655 S
H726 N723 0.984 . S
H727 N723 0.985 . S
H728 N722 0.984 . S
H729 N722 0.984 . S
H730 N718 0.984 . S
H731 N718 0.985 . S
C732 C733 1.363 . S
C732 C738 1.379 . S
C732 N740 1.356 . S
C733 C732 1.363 . S
C733 C739 1.363 . S
C734 C735 1.363 . S
C734 C739 1.379 . S
C734 N741 1.356 . S
C735 C734 1.363 . S
C735 C738 1.363 . S
N736 C738 1.356 . S
N736 H748 0.984 . S
N736 H749 0.985 . S
N737 C739 1.356 . S
N737 H742 0.984 . S
N737 H743 0.985 . S
C738 C732 1.379 . S
C738 C735 1.363 . S
C738 N736 1.356 . S
C739 C733 1.363 . S
C739 C734 1.379 . S
C739 N737 1.356 . S
N740 C732 1.356 . S
N740 H746 0.984 . S
N740 H747 0.984 1_655 S
N741 C734 1.356 . S
N741 H744 0.984 . S
N741 H745 0.985 . S
H742 N737 0.984 . S
H743 N737 0.985 . S
H744 N741 0.984 . S
H745 N741 0.985 . S
H746 N740 0.984 . S
H747 N740 0.984 1_455 S
H748 N736 0.984 . S
H749 N736 0.985 . S
C750 C751 1.363 . S
C750 C756 1.379 . S
C750 N758 1.356 . S
C751 C750 1.363 . S
C751 C757 1.363 . S
C752 C753 1.363 . S
C752 C757 1.379 . S
C752 N759 1.356 . S
C753 C752 1.363 . S
C753 C756 1.363 . S
N754 C756 1.356 . S
N754 H766 0.984 . S
N754 H767 0.985 1_565 S
N755 C757 1.356 . S
N755 H760 0.984 . S
N755 H761 0.985 . S
C756 C750 1.379 . S
C756 C753 1.363 . S
C756 N754 1.356 . S
C757 C751 1.363 . S
C757 C752 1.379 . S
C757 N755 1.356 . S
N758 C750 1.356 . S
N758 H764 0.984 . S
N758 H765 0.984 . S
N759 C752 1.356 . S
N759 H762 0.984 . S
N759 H763 0.985 . S
H760 N755 0.984 . S
H761 N755 0.985 . S
H762 N759 0.984 . S
H763 N759 0.985 . S
H764 N758 0.984 . S
H765 N758 0.984 . S
H766 N754 0.984 . S
H767 N754 0.985 1_545 S
C768 C769 1.363 . S
C768 C774 1.379 . S
C768 N776 1.356 . S
C769 C768 1.363 . S
C769 C775 1.363 . S
C770 C771 1.363 . S
C770 C775 1.379 . S
C770 N777 1.356 . S
C771 C770 1.363 . S
C771 C774 1.363 . S
N772 C774 1.356 . S
N772 H784 0.984 . S
N772 H785 0.985 . S
N773 C775 1.356 . S
N773 H778 0.984 . S
N773 H779 0.985 . S
C774 C768 1.379 . S
C774 C771 1.363 . S
C774 N772 1.356 . S
C775 C769 1.363 . S
C775 C770 1.379 . S
C775 N773 1.356 . S
N776 C768 1.356 . S
N776 H782 0.984 . S
N776 H783 0.984 . S
N777 C770 1.356 . S
N777 H780 0.984 . S
N777 H781 0.985 . S
H778 N773 0.984 . S
H779 N773 0.985 . S
H780 N777 0.984 . S
H781 N777 0.985 . S
H782 N776 0.984 . S
H783 N776 0.984 . S
H784 N772 0.984 . S
H785 N772 0.985 . S
C786 C787 1.363 1_556 S
C786 C792 1.379 . S
C786 N794 1.356 . S
C787 C786 1.363 1_554 S
C787 C793 1.363 1_554 S
C788 C789 1.363 . S
C788 C793 1.379 . S
C788 N795 1.356 . S
C789 C788 1.363 . S
C789 C792 1.363 . S
N790 C792 1.356 . S
N790 H802 0.984 . S
N790 H803 0.985 . S
N791 C793 1.356 1_554 S
N791 H796 0.984 . S
N791 H797 0.985 . S
C792 C786 1.379 . S
C792 C789 1.363 . S
C792 N790 1.356 . S
C793 C787 1.363 1_556 S
C793 C788 1.379 . S
C793 N791 1.356 1_556 S
N794 C786 1.356 . S
N794 H800 0.984 . S
N794 H801 0.984 1_556 S
N795 C788 1.356 . S
N795 H798 0.984 . S
N795 H799 0.985 . S
H796 N791 0.984 . S
H797 N791 0.985 . S
H798 N795 0.984 . S
H799 N795 0.985 . S
H800 N794 0.984 . S
H801 N794 0.984 1_554 S
H802 N790 0.984 . S
H803 N790 0.985 . S
C804 C805 1.363 . S
C804 C810 1.379 . S
C804 N812 1.356 . S
C805 C804 1.363 . S
C805 C811 1.363 . S
C806 C807 1.363 . S
C806 C811 1.379 . S
C806 N813 1.356 . S
C807 C806 1.363 . S
C807 C810 1.363 . S
N808 C810 1.356 . S
N808 H820 0.984 . S
N808 H821 0.985 . S
N809 C811 1.356 . S
N809 H814 0.984 . S
N809 H815 0.985 . S
C810 C804 1.379 . S
C810 C807 1.363 . S
C810 N808 1.356 . S
C811 C805 1.363 . S
C811 C806 1.379 . S
C811 N809 1.356 . S
N812 C804 1.356 . S
N812 H818 0.984 . S
N812 H819 0.984 1_545 S
N813 C806 1.356 . S
N813 H816 0.984 . S
N813 H817 0.985 . S
H814 N809 0.984 . S
H815 N809 0.985 . S
H816 N813 0.984 . S
H817 N813 0.985 . S
H818 N812 0.984 . S
H819 N812 0.984 1_565 S
H820 N808 0.984 . S
H821 N808 0.985 . S
C822 C823 1.363 . S
C822 C828 1.379 . S
C822 N830 1.356 . S
C823 C822 1.363 . S
C823 C829 1.363 . S
C824 C825 1.363 . S
C824 C829 1.379 . S
C824 N831 1.356 . S
C825 C824 1.363 . S
C825 C828 1.363 . S
N826 C828 1.356 . S
N826 H838 0.984 . S
N826 H839 0.985 . S
N827 C829 1.356 . S
N827 H832 0.984 . S
N827 H833 0.985 . S
C828 C822 1.379 . S
C828 C825 1.363 . S
C828 N826 1.356 . S
C829 C823 1.363 . S
C829 C824 1.379 . S
C829 N827 1.356 . S
N830 C822 1.356 . S
N830 H836 0.984 . S
N830 H837 0.984 . S
N831 C824 1.356 . S
N831 H834 0.984 . S
N831 H835 0.985 . S
H832 N827 0.984 . S
H833 N827 0.985 . S
H834 N831 0.984 . S
H835 N831 0.985 . S
H836 N830 0.984 . S
H837 N830 0.984 . S
H838 N826 0.984 . S
H839 N826 0.985 . S
C840 C841 1.363 . S
C840 C846 1.379 . S
C840 N848 1.356 . S
C841 C840 1.363 . S
C841 C847 1.363 . S
C842 C843 1.363 . S
C842 C847 1.379 . S
C842 N849 1.356 . S
C843 C842 1.363 . S
C843 C846 1.363 . S
N844 C846 1.356 . S
N844 H856 0.984 . S
N844 H857 0.985 . S
N845 C847 1.356 . S
N845 H850 0.984 . S
N845 H851 0.985 . S
C846 C840 1.379 . S
C846 C843 1.363 . S
C846 N844 1.356 . S
C847 C841 1.363 . S
C847 C842 1.379 . S
C847 N845 1.356 . S
N848 C840 1.356 . S
N848 H854 0.984 . S
N848 H855 0.984 . S
N849 C842 1.356 . S
N849 H852 0.984 . S
N849 H853 0.985 . S
H850 N845 0.984 . S
H851 N845 0.985 . S
H852 N849 0.984 . S
H853 N849 0.985 . S
H854 N848 0.984 . S
H855 N848 0.984 . S
H856 N844 0.984 . S
H857 N844 0.985 . S
C858 C859 1.363 . S
C858 C864 1.379 . S
C858 N866 1.356 . S
C859 C858 1.363 . S
C859 C865 1.363 . S
C860 C861 1.363 . S
C860 C865 1.379 . S
C860 N867 1.356 . S
C861 C860 1.363 . S
C861 C864 1.363 . S
N862 C864 1.356 . S
N862 H874 0.984 . S
N862 H875 0.985 . S
N863 C865 1.356 . S
N863 H868 0.984 . S
N863 H869 0.985 . S
C864 C858 1.379 . S
C864 C861 1.363 . S
C864 N862 1.356 . S
C865 C859 1.363 . S
C865 C860 1.379 . S
C865 N863 1.356 . S
N866 C858 1.356 . S
N866 H872 0.984 . S
N866 H873 0.984 . S
N867 C860 1.356 . S
N867 H870 0.984 . S
N867 H871 0.985 . S
H868 N863 0.984 . S
H869 N863 0.985 . S
H870 N867 0.984 . S
H871 N867 0.985 . S
H872 N866 0.984 . S
H873 N866 0.984 . S
H874 N862 0.984 . S
H875 N862 0.985 . S
C876 C877 1.363 . S
C876 C882 1.379 . S
C876 N884 1.356 . S
C877 C876 1.363 . S
C877 C883 1.363 . S
C878 C879 1.363 . S
C878 C883 1.379 . S
C878 N885 1.356 . S
C879 C878 1.363 . S
C879 C882 1.363 . S
N880 C882 1.356 . S
N880 H892 0.984 . S
N880 H893 0.985 . S
N881 C883 1.356 . S
N881 H886 0.984 . S
N881 H887 0.985 . S
C882 C876 1.379 . S
C882 C879 1.363 . S
C882 N880 1.356 . S
C883 C877 1.363 . S
C883 C878 1.379 . S
C883 N881 1.356 . S
N884 C876 1.356 . S
N884 H890 0.984 . S
N884 H891 0.984 . S
N885 C878 1.356 . S
N885 H888 0.984 . S
N885 H889 0.985 . S
H886 N881 0.984 . S
H887 N881 0.985 . S
H888 N885 0.984 . S
H889 N885 0.985 . S
H890 N884 0.984 . S
H891 N884 0.984 . S
H892 N880 0.984 . S
H893 N880 0.985 . S
C894 C895 1.363 . S
C894 C900 1.379 . S
C894 N902 1.356 . S
C895 C894 1.363 . S
C895 C901 1.363 . S
C896 C897 1.363 . S
C896 C901 1.379 . S
C896 N903 1.356 . S
C897 C896 1.363 . S
C897 C900 1.363 . S
N898 C900 1.356 . S
N898 H910 0.984 . S
N898 H911 0.985 . S
N899 C901 1.356 . S
N899 H904 0.984 . S
N899 H905 0.985 . S
C900 C894 1.379 . S
C900 C897 1.363 . S
C900 N898 1.356 . S
C901 C895 1.363 . S
C901 C896 1.379 . S
C901 N899 1.356 . S
N902 C894 1.356 . S
N902 H908 0.984 . S
N902 H909 0.984 . S
N903 C896 1.356 . S
N903 H906 0.984 . S
N903 H907 0.985 . S
H904 N899 0.984 . S
H905 N899 0.985 . S
H906 N903 0.984 . S
H907 N903 0.985 . S
H908 N902 0.984 . S
H909 N902 0.984 . S
H910 N898 0.984 . S
H911 N898 0.985 . S
C912 C913 1.363 . S
C912 C918 1.379 . S
C912 N920 1.356 . S
C913 C912 1.363 . S
C913 C919 1.363 . S
C914 C915 1.363 . S
C914 C919 1.379 . S
C914 N921 1.356 . S
C915 C914 1.363 . S
C915 C918 1.363 . S
N916 C918 1.356 . S
N916 H928 0.984 . S
N916 H929 0.985 . S
N917 C919 1.356 . S
N917 H922 0.984 . S
N917 H923 0.985 . S
C918 C912 1.379 . S
C918 C915 1.363 . S
C918 N916 1.356 . S
C919 C913 1.363 . S
C919 C914 1.379 . S
C919 N917 1.356 . S
N920 C912 1.356 . S
N920 H926 0.984 . S
N920 H927 0.984 . S
N921 C914 1.356 . S
N921 H924 0.984 . S
N921 H925 0.985 . S
H922 N917 0.984 . S
H923 N917 0.985 . S
H924 N921 0.984 . S
H925 N921 0.985 . S
H926 N920 0.984 . S
H927 N920 0.984 . S
H928 N916 0.984 . S
H929 N916 0.985 . S
C930 C931 1.363 . S
C930 C936 1.379 . S
C930 N938 1.356 . S
C931 C930 1.363 . S
C931 C937 1.363 . S
C932 C933 1.363 . S
C932 C937 1.379 . S
C932 N939 1.356 . S
C933 C932 1.363 . S
C933 C936 1.363 . S
N934 C936 1.356 . S
N934 H946 0.984 . S
N934 H947 0.985 . S
N935 C937 1.356 . S
N935 H940 0.984 . S
N935 H941 0.985 . S
C936 C930 1.379 . S
C936 C933 1.363 . S
C936 N934 1.356 . S
C937 C931 1.363 . S
C937 C932 1.379 . S
C937 N935 1.356 . S
N938 C930 1.356 . S
N938 H944 0.984 . S
N938 H945 0.984 . S
N939 C932 1.356 . S
N939 H942 0.984 . S
N939 H943 0.985 . S
H940 N935 0.984 . S
H941 N935 0.985 . S
H942 N939 0.984 . S
H943 N939 0.985 . S
H944 N938 0.984 . S
H945 N938 0.984 . S
H946 N934 0.984 . S
H947 N934 0.985 . S
C409 C213 1.427 . S
C411 C9 1.427 . S
C427 C43 1.427 . S
C429 C247 1.427 . S
C445 C281 1.427 . S
C447 C77 1.427 . S
C463 C111 1.427 . S
C465 C315 1.427 . S
C481 C349 1.427 . S
C483 C145 1.427 . S
C499 C383 1.427 . S
C501 C179 1.427 . S
C517 C243 0.510 . S
C519 C5 0.510 . S
C535 C39 0.510 . S
C537 C277 0.510 . S
C553 C311 0.510 . S
C555 C73 0.510 . S
C571 C107 0.510 . S
C573 C345 0.510 . S
C589 C379 0.510 . S
C591 C141 0.510 . S
C607 C175 0.510 . S
C609 C209 0.510 . S
C625 C203 1.568 . S
C627 C20 1.462 . S
C643 C33 1.568 . S
C645 C54 1.462 . S
C661 C88 1.462 . S
C663 C67 1.568 . S
C679 C101 1.568 . S
C681 C122 1.462 . S
C697 C135 1.568 . S
C699 C156 1.462 . S
C715 C169 1.568 . S
C717 C190 1.462 . S
C733 C271 1.568 . S
C735 C224 1.462 . S
C751 C258 1.462 . S
C753 C305 1.568 . S
C769 C339 1.568 . S
C771 C292 1.462 . S
C787 C373 1.568 . S
C789 C326 1.462 . S
C805 C407 1.568 . S
C807 C360 1.462 . S
C823 C237 1.568 . S
C825 C394 1.462 . S
C841 C2 1.991 . S
C843 C274 1.991 . S
C859 C36 1.991 . S
C861 C308 1.991 . S
C877 C70 1.991 . S
C879 C342 1.991 . S
C895 C104 1.991 . S
C897 C376 1.991 . S
C913 C138 1.991 . S
C915 C206 1.991 . S
C931 C172 1.991 . S
C933 C240 1.991 . S
