# Generated by pormake.
# Topology wiz, (3)-cn, num edge types: 1
# Building blocks:
#     Node 0, Type 0, BuildingBlock: OLANEW_clean_sbu_2, # of connection points: 3
#     Node 1, Type 0, BuildingBlock: OLANEW_clean_sbu_2, # of connection points: 3
#     Node 2, Type 0, BuildingBlock: OLANEW_clean_sbu_2, # of connection points: 3
#     Node 3, Type 0, BuildingBlock: OLANEW_clean_sbu_2, # of connection points: 3
#     Node 4, Type 0, BuildingBlock: OLANEW_clean_sbu_2, # of connection points: 3
#     Node 5, Type 0, BuildingBlock: OLANEW_clean_sbu_2, # of connection points: 3
#     Node 6, Type 0, BuildingBlock: OLANEW_clean_sbu_2, # of connection points: 3
#     Node 7, Type 0, BuildingBlock: OLANEW_clean_sbu_2, # of connection points: 3
#     Node 8, Type 0, BuildingBlock: OLANEW_clean_sbu_2, # of connection points: 3
#     Node 9, Type 0, BuildingBlock: OLANEW_clean_sbu_2, # of connection points: 3
#     Node 10, Type 0, BuildingBlock: OLANEW_clean_sbu_2, # of connection points: 3
#     Node 11, Type 0, BuildingBlock: OLANEW_clean_sbu_2, # of connection points: 3
#     Edge 12, Type (0, 0), BuildingBlock: EZIPEK_clean_linker_0, # of connection points: 2
#     Edge 13, Type (0, 0), BuildingBlock: EZIPEK_clean_linker_0, # of connection points: 2
#     Edge 14, Type (0, 0), BuildingBlock: EZIPEK_clean_linker_0, # of connection points: 2
#     Edge 15, Type (0, 0), BuildingBlock: EZIPEK_clean_linker_0, # of connection points: 2
#     Edge 16, Type (0, 0), BuildingBlock: EZIPEK_clean_linker_0, # of connection points: 2
#     Edge 17, Type (0, 0), BuildingBlock: EZIPEK_clean_linker_0, # of connection points: 2
#     Edge 18, Type (0, 0), BuildingBlock: EZIPEK_clean_linker_0, # of connection points: 2
#     Edge 19, Type (0, 0), BuildingBlock: EZIPEK_clean_linker_0, # of connection points: 2
#     Edge 20, Type (0, 0), BuildingBlock: EZIPEK_clean_linker_0, # of connection points: 2
#     Edge 21, Type (0, 0), BuildingBlock: EZIPEK_clean_linker_0, # of connection points: 2
#     Edge 22, Type (0, 0), BuildingBlock: EZIPEK_clean_linker_0, # of connection points: 2
#     Edge 23, Type (0, 0), BuildingBlock: EZIPEK_clean_linker_0, # of connection points: 2
#     Edge 24, Type (0, 0), BuildingBlock: EZIPEK_clean_linker_0, # of connection points: 2
#     Edge 25, Type (0, 0), BuildingBlock: EZIPEK_clean_linker_0, # of connection points: 2
#     Edge 26, Type (0, 0), BuildingBlock: EZIPEK_clean_linker_0, # of connection points: 2
#     Edge 27, Type (0, 0), BuildingBlock: EZIPEK_clean_linker_0, # of connection points: 2
#     Edge 28, Type (0, 0), BuildingBlock: EZIPEK_clean_linker_0, # of connection points: 2
#     Edge 29, Type (0, 0), BuildingBlock: EZIPEK_clean_linker_0, # of connection points: 2
# Relax obj value: 0.000
# Max RMSD: 0.032
# Mean RMSD: 0.032
data_MOF--net-wiz--node1-OLANEW_clean_sbu_2--edge1-EZIPEK_clean_linker_0
_symmetry_space_group_name_H-M    P1
_symmetry_Int_Tables_number       1
_symmetry_cell_setting            triclinic
loop_
_symmetry_equiv_pos_as_xyz
'x, y, z'
_cell_length_a     26.220418
_cell_length_b     26.237779
_cell_length_c     53.922768
_cell_angle_alpha  89.811549
_cell_angle_beta   90.227871
_cell_angle_gamma 120.07213
loop_
_atom_site_label
_atom_site_type_symbol
_atom_site_fract_x
_atom_site_fract_y
_atom_site_fract_z
_atom_type_partial_charge
O0 O 0.03423 0.32995 0.04207 0.0
Cd1 Cd 0.95129 0.27309 0.07053 0.0
O2 O 0.0893 0.29771 0.05894 0.0
Cd3 Cd 0.1717 0.29636 0.05842 0.0
O4 O 0.26037 0.30902 0.05763 0.0
C5 C 0.30384 0.36078 0.0603 0.0
O6 O 0.29454 0.40509 0.06337 0.0
C7 C 0.08167 0.32795 0.04247 0.0
C8 C 0.96374 0.30772 0.12012 0.0
O9 O 0.94624 0.33123 0.1038 0.0
O10 O 0.97713 0.26932 0.11303 0.0
O11 O 0.65641 0.14808 0.38209 0.0
Cd12 Cd 0.58361 0.12131 0.41589 0.0
O13 O 0.67825 0.23933 0.38859 0.0
Cd14 Cd 0.72974 0.33256 0.37865 0.0
O15 O 0.79392 0.42365 0.3693 0.0
C16 C 0.77856 0.46135 0.3642 0.0
O17 O 0.72246 0.4456 0.36401 0.0
C18 C 0.68565 0.20237 0.37625 0.0
C19 C 0.57512 0.04277 0.45317 0.0
O20 O 0.54748 0.02398 0.43255 0.0
O21 O 0.60861 0.09845 0.45597 0.0
O22 O 0.44958 0.62817 0.72477 0.0
Cd23 Cd 0.41075 0.58649 0.7661 0.0
O24 O 0.51208 0.71735 0.73774 0.0
Cd25 Cd 0.574 0.81111 0.73244 0.0
O26 O 0.60312 0.90475 0.73095 0.0
C27 C 0.63059 0.93723 0.71257 0.0
O28 O 0.64432 0.91505 0.69367 0.0
C29 C 0.48744 0.6815 0.71993 0.0
C30 C 0.48362 0.60198 0.80684 0.0
O31 O 0.4704 0.64128 0.80078 0.0
O32 O 0.46548 0.55684 0.79277 0.0
O33 O 0.85782 0.53188 0.0631 0.0
Cd34 Cd 0.86368 0.47053 0.09663 0.0
O35 O 0.76329 0.48424 0.07131 0.0
Cd36 Cd 0.6744 0.46793 0.06419 0.0
O37 O 0.58539 0.45378 0.06065 0.0
C38 C 0.54191 0.4018 0.06251 0.0
O39 O 0.55134 0.35768 0.06619 0.0
C40 C 0.806 0.5217 0.05828 0.0
C41 C 0.94193 0.52336 0.13637 0.0
O42 O 0.95744 0.50652 0.11694 0.0
O43 O 0.89043 0.51768 0.13667 0.0
O44 O 0.26583 0.86729 0.40731 0.0
Cd45 Cd 0.25748 0.9286 0.43966 0.0
O46 O 0.1751 0.84346 0.39822 0.0
Cd47 Cd 0.09155 0.79276 0.37827 0.0
O48 O 0.00715 0.71174 0.37333 0.0
C49 C 0.97565 0.69637 0.35382 0.0
O50 O 0.99195 0.73169 0.33452 0.0
C51 C 0.22062 0.8397 0.3935 0.0
C52 C 0.31978 0.94894 0.4841 0.0
O53 O 0.2695 0.90241 0.48104 0.0
O54 O 0.34232 0.98477 0.46584 0.0
O55 O 0.51966 0.33962 0.72809 0.0
Cd56 Cd 0.56712 0.41262 0.76153 0.0
O57 O 0.58044 0.31049 0.74071 0.0
Cd58 Cd 0.61453 0.25033 0.73729 0.0
O59 O 0.62077 0.17135 0.73265 0.0
C60 C 0.65607 0.16811 0.71754 0.0
O61 O 0.6918 0.21423 0.70418 0.0
C62 C 0.54067 0.30549 0.72572 0.0
C63 C 0.49898 0.42064 0.79949 0.0
O64 O 0.51282 0.45386 0.78028 0.0
O65 O 0.51488 0.38173 0.80028 0.0
O66 O 0.5012 0.77074 0.60489 0.0
Cd67 Cd 0.50663 0.77203 0.55911 0.0
O68 O 0.56054 0.73535 0.60197 0.0
Cd69 Cd 0.60506 0.68689 0.61279 0.0
O70 O 0.61364 0.60822 0.61137 0.0
C71 C 0.62197 0.58553 0.63069 0.0
O72 O 0.62864 0.61116 0.65228 0.0
C73 C 0.52856 0.74791 0.61543 0.0
C74 C 0.53505 0.87052 0.5296 0.0
O75 O 0.48191 0.83634 0.53674 0.0
O76 O 0.57538 0.86059 0.53763 0.0
O77 O 0.69627 0.61546 0.97149 0.0
Cd78 Cd 0.6748 0.67791 0.9441 0.0
O79 O 0.78971 0.68447 0.97139 0.0
Cd80 Cd 0.87843 0.71317 0.98501 0.0
O81 O 0.95595 0.70512 0.99207 0.0
C82 C 0.96894 0.6806 0.97491 0.0
O83 O 0.93802 0.6655 0.95428 0.0
C84 C 0.74869 0.6354 0.97938 0.0
C85 C 0.61053 0.63718 0.89977 0.0
O86 O 0.58478 0.62253 0.9209 0.0
O87 O 0.66699 0.66761 0.89955 0.0
O88 O 0.18064 0.66373 0.29825 0.0
Cd89 Cd 0.19099 0.63389 0.25616 0.0
O90 O 0.2279 0.75269 0.28294 0.0
Cd91 Cd 0.28016 0.84879 0.28488 0.0
O92 O 0.36236 0.93312 0.28586 0.0
C93 C 0.40584 0.93463 0.27483 0.0
O94 O 0.39853 0.88739 0.26331 0.0
C95 C 0.20521 0.719 0.3016 0.0
C96 C 0.10352 0.60459 0.22014 0.0
O97 O 0.10403 0.56497 0.23395 0.0
O98 O 0.14224 0.65855 0.22427 0.0
O99 O 0.44948 0.06917 0.66055 0.0
Cd100 Cd 0.42367 0.98059 0.63592 0.0
O101 O 0.48327 0.1309 0.62916 0.0
Cd102 Cd 0.52205 0.22135 0.61619 0.0
O103 O 0.54471 0.31313 0.61581 0.0
C104 C 0.59606 0.35442 0.62135 0.0
O105 O 0.63793 0.3423 0.62628 0.0
C106 C 0.4729 0.12143 0.65222 0.0
C107 C 0.40223 0.9818 0.58526 0.0
O108 O 0.36174 0.97 0.60123 0.0
O109 O 0.4537 0.9952 0.59306 0.0
O110 O 0.28306 0.43827 0.95345 0.0
Cd111 Cd 0.3316 0.50221 0.91737 0.0
O112 O 0.24589 0.49639 0.95585 0.0
Cd113 Cd 0.18589 0.5225 0.97149 0.0
O114 O 0.12518 0.55533 0.97714 0.0
C115 C 0.14501 0.61044 0.97848 0.0
O116 O 0.20214 0.64696 0.97764 0.0
C117 C 0.24847 0.45227 0.96396 0.0
C118 C 0.3825 0.4666 0.88074 0.0
O119 O 0.41433 0.50399 0.89739 0.0
O120 O 0.32646 0.44398 0.88209 0.0
O121 O 0.91019 0.3404 0.30338 0.0
Cd122 Cd 0.99027 0.40016 0.2741 0.0
O123 O 0.84253 0.30411 0.27424 0.0
Cd124 Cd 0.75018 0.24879 0.26418 0.0
O125 O 0.65751 0.18157 0.26276 0.0
C126 C 0.64233 0.13489 0.27514 0.0
O127 O 0.68229 0.12995 0.28802 0.0
C128 C 0.85662 0.30815 0.29701 0.0
C129 C 0.97554 0.36614 0.22435 0.0
O130 O -0.00132 0.34643 0.23986 0.0
O131 O 0.95757 0.40036 0.23236 0.0
C132 C 0.2199 0.44265 0.00887 0.0
C133 C 0.20986 0.41723 0.98484 0.0
C134 C 0.11647 0.33287 0.99883 0.0
C135 C 0.12666 0.35812 0.02288 0.0
N136 N 0.19035 0.43205 0.05216 0.0
N137 N 0.15397 0.33501 0.95747 0.0
C138 C 0.17928 0.4115 0.02832 0.0
C139 C 0.15986 0.36118 0.98003 0.0
N140 N 0.26792 0.49714 0.01287 0.0
N141 N 0.06449 0.2824 0.99385 0.0
H142 H 0.18325 0.35538 0.94287 0.0
H143 H 0.12239 0.29164 0.95353 0.0
H144 H 0.03302 0.25873 1.00738 0.0
H145 H 0.05069 0.26524 0.97614 0.0
H146 H 0.27479 0.52167 0.02891 0.0
H147 H 0.30052 0.51934 0.99955 0.0
H148 H 0.23007 0.4675 0.05811 0.0
H149 H 0.16062 0.41145 0.06662 0.0
C150 C 0.81472 0.23733 0.33297 0.0
C151 C 0.81053 0.27706 0.31626 0.0
C152 C 0.71742 0.25571 0.33564 0.0
C153 C 0.72623 0.2232 0.35459 0.0
N154 N 0.78746 0.18866 0.373 0.0
N155 N 0.76274 0.33196 0.30453 0.0
C156 C 0.77581 0.21507 0.35365 0.0
C157 C 0.763 0.2882 0.31826 0.0
N158 N 0.85473 0.21949 0.32871 0.0
N159 N 0.66481 0.25453 0.33388 0.0
H160 H 0.796 0.35815 0.29205 0.0
H161 H 0.73247 0.34609 0.30727 0.0
H162 H 0.62978 0.23013 0.34593 0.0
H163 H 0.65374 0.27242 0.31894 0.0
H164 H 0.85578 0.18607 0.33877 0.0
H165 H 0.88323 0.23406 0.31356 0.0
H166 H 0.82649 0.18756 0.37462 0.0
H167 H 0.76038 0.17206 0.38852 0.0
C168 C 0.51031 0.66568 0.67636 0.0
C169 C 0.50103 0.70098 0.69354 0.0
C170 C 0.51802 0.77146 0.66008 0.0
C171 C 0.51945 0.7321 0.64239 0.0
N172 N 0.49596 0.632 0.63402 0.0
N173 N 0.47878 0.77909 0.69948 0.0
C174 C 0.50982 0.67639 0.65057 0.0
C175 C 0.50011 0.7517 0.68483 0.0
N176 N 0.52091 0.62258 0.68456 0.0
N177 N 0.53533 0.82823 0.65366 0.0
H178 H 0.46279 0.76478 0.71733 0.0
H179 H 0.47077 0.8117 0.69275 0.0
H180 H 0.55208 0.84576 0.63622 0.0
H181 H 0.53899 0.85948 0.66651 0.0
H182 H 0.53252 0.59908 0.67263 0.0
H183 H 0.52489 0.61514 0.70329 0.0
H184 H 0.48353 0.58921 0.63954 0.0
H185 H 0.49014 0.636 0.61513 0.0
C186 C 0.76998 0.58897 0.0437 0.0
C187 C 0.79451 0.553 0.03792 0.0
C188 C 0.79114 0.57272 0.9935 0.0
C189 C 0.76187 0.60433 0.99924 0.0
N190 N 0.7167 0.63694 0.0294 0.0
N191 N 0.82102 0.50341 1.00736 0.0
C192 C 0.74913 0.6106 0.02424 0.0
C193 C 0.8034 0.54311 0.01281 0.0
N194 N 0.76889 0.60446 0.0678 0.0
N195 N 0.80756 0.57136 0.96959 0.0
H196 H 0.83076 0.48114 0.02093 0.0
H197 H 0.82206 0.48927 0.98946 0.0
H198 H 0.79693 0.59022 0.95485 0.0
H199 H 0.83486 0.55493 0.96455 0.0
H200 H 0.75748 0.63557 0.07309 0.0
H201 H 0.78465 0.59025 0.08251 0.0
H202 H 0.69994 0.63661 0.04691 0.0
H203 H 0.70259 0.65552 0.01582 0.0
C204 C 0.26589 0.79328 0.33424 0.0
C205 C 0.21125 0.74428 0.32696 0.0
C206 C 0.17169 0.74722 0.36775 0.0
C207 C 0.22069 0.80426 0.37194 0.0
N208 N 0.31194 0.88548 0.35621 0.0
N209 N 0.10866 0.6773 0.33685 0.0
C210 C 0.26753 0.8283 0.35453 0.0
C211 C 0.16317 0.72138 0.34382 0.0
N212 N 0.31673 0.80535 0.32245 0.0
N213 N 0.13407 0.71714 0.38672 0.0
H214 H 0.09905 0.65909 0.31914 0.0
H215 H 0.07157 0.6628 0.34801 0.0
H216 H 0.1403 0.73416 0.40464 0.0
H217 H 0.10066 0.67333 0.38521 0.0
H218 H 0.35816 0.83762 0.32868 0.0
H219 H 0.31781 0.7789 0.3083 0.0
H220 H 0.34322 0.90579 0.34228 0.0
H221 H 0.31408 0.91444 0.36988 0.0
C222 C 0.44511 0.17313 0.6841 0.0
C223 C 0.48927 0.17127 0.66962 0.0
C224 C 0.56419 0.26399 0.68852 0.0
C225 C 0.52137 0.26155 0.70529 0.0
N226 N 0.42207 0.20975 0.72114 0.0
N227 N 0.59234 0.21061 0.66037 0.0
C228 C 0.46192 0.21528 0.70354 0.0
C229 C 0.54926 0.21575 0.67235 0.0
N230 N 0.38696 0.13567 0.67881 0.0
N231 N 0.61883 0.31327 0.68761 0.0
H232 H 0.58354 0.17559 0.64866 0.0
H233 H 0.63716 0.23822 0.66369 0.0
H234 H 0.63074 0.35026 0.69859 0.0
H235 H 0.65046 0.31996 0.67442 0.0
H236 H 0.35276 0.13894 0.68695 0.0
H237 H 0.37302 0.1047 0.66456 0.0
H238 H 0.37993 0.17318 0.72249 0.0
H239 H 0.43256 0.2394 0.73572 0.0
C240 C 0.44437 0.36723 0.08297 0.0
C241 C 0.48096 0.39137 0.06184 0.0
C242 C 0.40271 0.3997 0.04041 0.0
C243 C 0.36461 0.37099 0.06072 0.0
N244 N 0.34592 0.3212 0.1002 0.0
N245 N 0.49309 0.42267 0.0191 0.0
C246 C 0.38441 0.3526 0.08161 0.0
C247 C 0.45977 0.4058 0.04021 0.0
N248 N 0.46779 0.36132 0.10478 0.0
N249 N 0.38437 0.42123 0.02135 0.0
H250 H 0.5348 0.42699 0.01814 0.0
H251 H 0.47771 0.42767 1.00196 0.0
H252 H 0.3418 0.41476 0.02012 0.0
H253 H 0.41228 0.44868 1.00751 0.0
H254 H 0.44522 0.35023 0.12156 0.0
H255 H 0.51183 0.37273 0.10673 0.0
H256 H 0.35566 0.30024 0.11432 0.0
H257 H 0.30259 0.31269 0.10072 0.0
C258 C 0.83221 0.56796 0.37641 0.0
C259 C 0.82429 0.5233 0.35946 0.0
C260 C 0.9129 0.59386 0.33676 0.0
C261 C 0.92016 0.63876 0.35349 0.0
N262 N 0.87883 0.67255 0.38483 0.0
N263 N 0.84826 0.49583 0.32049 0.0
C264 C 0.87722 0.62697 0.37195 0.0
C265 C 0.86198 0.53696 0.33867 0.0
N266 N 0.7989 0.55363 0.39747 0.0
N267 N 0.95587 0.60458 0.31986 0.0
H268 H 0.81105 0.45391 0.32128 0.0
H269 H 0.87047 0.5048 0.30366 0.0
H270 H 0.99294 0.64591 0.31727 0.0
H271 H 0.95676 0.57172 0.30942 0.0
H272 H 0.80743 0.58314 0.4119 0.0
H273 H 0.76556 0.51091 0.40156 0.0
H274 H 0.84549 0.66749 0.39678 0.0
H275 H 0.91061 0.71647 0.38165 0.0
C276 C 0.59789 0.06213 0.70569 0.0
C277 C 0.65232 0.11059 0.71349 0.0
C278 C 0.69578 0.04679 0.71557 0.0
C279 C 0.63924 0.99731 0.71115 0.0
N280 N 0.53513 0.9563 0.70356 0.0
N281 N 0.75221 0.14935 0.72793 0.0
C282 C 0.58991 0.00456 0.70659 0.0
C283 C 0.7014 0.10326 0.71869 0.0
N284 N 0.55454 0.07148 0.69654 0.0
N285 N 0.74393 0.03968 0.7169 0.0
H286 H 0.75795 0.19127 0.73055 0.0
H287 H 0.78717 0.14522 0.73474 0.0
H288 H 0.74099 0.99865 0.71551 0.0
H289 H 0.78711 0.07466 0.71748 0.0
H290 H 0.51631 0.03877 0.68814 0.0
H291 H 0.55916 0.11324 0.69511 0.0
H292 H 0.49644 0.95826 0.70339 0.0
H293 H 0.52779 0.91349 0.70276 0.0
C294 C 0.57052 0.42386 0.64183 0.0
C295 C 0.60634 0.41475 0.62485 0.0
C296 C 0.65876 0.52003 0.6146 0.0
C297 C 0.61779 0.52722 0.62913 0.0
N298 N 0.52681 0.48286 0.65226 0.0
N299 N 0.67988 0.45227 0.5926 0.0
C300 C 0.57166 0.47837 0.64169 0.0
C301 C 0.64955 0.4624 0.61064 0.0
N302 N 0.53648 0.381 0.65857 0.0
N303 N 0.70718 0.56834 0.60512 0.0
H304 H 0.67412 0.41067 0.58903 0.0
H305 H 0.70713 0.48409 0.57983 0.0
H306 H 0.71533 0.61117 0.60772 0.0
H307 H 0.74174 0.56646 0.59657 0.0
H308 H 0.51445 0.38783 0.67308 0.0
H309 H 0.53504 0.34061 0.65958 0.0
H310 H 0.48905 0.44692 0.65947 0.0
H311 H 0.52412 0.52105 0.65129 0.0
C312 C 0.0626 0.61698 0.99872 0.0
C313 C 0.10353 0.63317 0.97899 0.0
C314 C 0.06389 0.69118 0.96012 0.0
C315 C 0.0179 0.6683 0.97785 0.0
N316 N 0.96895 0.60367 0.01256 0.0
N317 N 0.1378 0.67856 0.93883 0.0
C318 C 0.01621 0.63001 0.99693 0.0
C319 C 0.10313 0.66877 0.9592 0.0
N320 N 0.06894 0.59042 0.01942 0.0
N321 N 0.07092 0.73543 0.94452 0.0
H322 H 0.16638 0.66202 0.93705 0.0
H323 H 0.13428 0.69852 0.92269 0.0
H324 H 0.04358 0.75369 0.94499 0.0
H325 H 0.10722 0.75802 0.93293 0.0
H326 H 0.04422 0.58309 0.03547 0.0
H327 H 0.10273 0.58067 0.02144 0.0
H328 H 0.96196 0.57002 0.02481 0.0
H329 H 0.93406 0.61198 0.012 0.0
C330 C 0.49478 0.01134 0.29784 0.0
C331 C 0.46462 0.98858 0.27507 0.0
C332 C 0.55204 0.0602 0.25217 0.0
C333 C 0.5804 0.08608 0.27497 0.0
N334 N 0.57395 0.09438 0.31929 0.0
N335 N 0.45962 -0.00093 0.23081 0.0
C336 C 0.55031 0.06407 0.29777 0.0
C337 C 0.49179 0.01538 0.25229 0.0
N338 N 0.47201 0.98103 0.31943 0.0
N339 N 0.5833 0.07603 0.23052 0.0
H340 H 0.4151 0.96691 0.23022 0.0
H341 H 0.47544 0.02135 0.21407 0.0
H342 H 0.62798 0.10742 0.2296 0.0
H343 H 0.5664 0.054 0.21382 0.0
H344 H 0.49511 0.99226 0.33615 0.0
H345 H 0.43235 0.94129 0.32016 0.0
H346 H 0.55112 0.08367 0.33602 0.0
H347 H 0.61413 0.1337 0.31996 0.0
C348 C 0.00918 0.3955 0.1804 0.0
C349 C 0.97176 0.35144 0.1976 0.0
C350 C 0.92659 0.28013 0.1637 0.0
C351 C 0.96645 0.32307 0.14674 0.0
N352 N 0.04968 0.41925 0.13871 0.0
N353 N 0.89908 0.25059 0.20653 0.0
C354 C 0.00859 0.38034 0.155 0.0
C355 C 0.93182 0.29331 0.1895 0.0
N356 N 0.04577 0.45173 0.18847 0.0
N357 N 0.88192 0.22768 0.15495 0.0
H358 H 0.89883 0.25924 0.22538 0.0
H359 H 0.87472 0.20593 0.20232 0.0
H360 H 0.87641 0.21647 0.1362 0.0
H361 H 0.84745 0.19701 0.16586 0.0
H362 H 0.06947 0.48749 0.17675 0.0
H363 H 0.05054 0.46359 0.20712 0.0
H364 H 0.08545 0.45965 0.14377 0.0
H365 H 0.0506 0.40955 0.12003 0.0
C366 C 0.56951 0.91243 0.48696 0.0
C367 C 0.54849 0.91685 0.51066 0.0
C368 C 0.54227 0.00248 0.49632 0.0
C369 C 0.56783 0.00087 0.47333 0.0
N370 N 0.61663 0.96169 0.44862 0.0
N371 N 0.52551 0.97232 0.53949 0.0
C372 C 0.58463 0.95796 0.4692 0.0
C373 C 0.5379 0.96371 0.51581 0.0
N374 N 0.57235 0.86334 0.4809 0.0
N375 N 0.5197 0.03909 0.49918 0.0
H376 H 0.52231 0.94496 0.55421 0.0
H377 H 0.52347 0.00929 0.54495 0.0
H378 H 0.52137 0.06766 0.4853 0.0
H379 H 0.49484 0.03758 0.51447 0.0
H380 H 0.58084 0.8547 0.46301 0.0
H381 H 0.56092 0.8284 0.49312 0.0
H382 H 0.63567 0.93555 0.44595 0.0
H383 H 0.62899 0.99469 0.43528 0.0
C384 C 0.56447 0.59906 0.83183 0.0
C385 C 0.51439 0.60647 0.83075 0.0
C386 C 0.52895 0.63603 0.87442 0.0
C387 C 0.57586 0.62378 0.87627 0.0
N388 N 0.62965 0.58117 0.85786 0.0
N389 N 0.43879 0.61366 0.85335 0.0
C390 C 0.59107 0.60151 0.85528 0.0
C391 C 0.49349 0.61928 0.85275 0.0
N392 N 0.58829 0.59226 0.81048 0.0
N393 N 0.52018 0.66713 0.89255 0.0
H394 H 0.41012 0.59933 0.83821 0.0
H395 H 0.41934 0.61654 0.86971 0.0
H396 H 0.54732 0.6844 0.90805 0.0
H397 H 0.4901 0.68188 0.89071 0.0
H398 H 0.62819 0.59266 0.80994 0.0
H399 H 0.57116 0.59167 0.79294 0.0
H400 H 0.63877 0.56002 0.84371 0.0
H401 H 0.64792 0.57986 0.87489 0.0
C402 C 0.96262 0.52192 0.18208 0.0
C403 C 0.98211 0.54719 0.15818 0.0
C404 C 0.08208 0.60856 0.17467 0.0
C405 C 0.06124 0.5878 0.19904 0.0
N406 N 0.9784 0.53461 0.22644 0.0
N407 N 0.05736 0.62462 0.13318 0.0
C408 C 0.00044 0.54752 0.2029 0.0
C409 C 0.04094 0.59361 0.15492 0.0
N410 N 0.90949 0.47145 0.18482 0.0
N411 N 0.1412 0.63939 0.1699 0.0
H412 H 0.02815 0.61611 0.1185 0.0
H413 H 0.09812 0.66264 0.13077 0.0
H414 H 0.17332 0.64906 0.18339 0.0
H415 H 0.15831 0.64989 0.15201 0.0
H416 H 0.89623 0.44785 0.20139 0.0
H417 H 0.88126 0.44966 0.17002 0.0
H418 H 0.93346 0.50979 0.23022 0.0
H419 H 0.00435 0.55376 0.24215 0.0
C420 C 0.35262 0.00975 0.52301 0.0
C421 C 0.3489 0.96251 0.50876 0.0
C422 C 0.3836 0.92977 0.54435 0.0
C423 C 0.38884 0.97789 0.55838 0.0
N424 N 0.39119 0.07072 0.55977 0.0
N425 N 0.37402 0.88663 0.50366 0.0
C426 C 0.37742 0.02016 0.54726 0.0
C427 C 0.36847 0.92526 0.51878 0.0
N428 N 0.32963 0.04274 0.51392 0.0
N429 N 0.39046 0.88692 0.55571 0.0
H430 H 0.36367 0.88268 0.48479 0.0
H431 H 0.39409 0.86278 0.50919 0.0
H432 H 0.40264 0.88908 0.57428 0.0
H433 H 0.38019 0.84732 0.54721 0.0
H434 H 0.32468 0.07305 0.52454 0.0
H435 H 0.31128 0.03688 0.49625 0.0
H436 H 0.38974 0.10612 0.55175 0.0
H437 H 0.40926 0.0795 0.5776 0.0
C438 C 0.41525 0.43147 0.81596 0.0
C439 C 0.46697 0.42847 0.82055 0.0
C440 C 0.45617 0.43926 0.86513 0.0
C441 C 0.41006 0.45132 0.86007 0.0
N442 N 0.35452 0.47122 0.82937 0.0
N443 N 0.54326 0.44105 0.84944 0.0
C444 C 0.39172 0.45055 0.83514 0.0
C445 C 0.48925 0.43537 0.84513 0.0
N446 N 0.38754 0.41467 0.79348 0.0
N447 N 0.4671 0.42921 0.88891 0.0
H448 H 0.5705 0.44132 0.83537 0.0
H449 H 0.56385 0.45202 0.86674 0.0
H450 H 0.44207 0.42869 0.90399 0.0
H451 H 0.49647 0.4147 0.89331 0.0
H452 H 0.34656 0.41068 0.79001 0.0
H453 H 0.4023 0.39868 0.77918 0.0
H454 H 0.3449 0.47712 0.81118 0.0
H455 H 0.33856 0.48888 0.84243 0.0
loop_
_geom_bond_atom_site_label_1
_geom_bond_atom_site_label_2
_geom_bond_distance
_geom_bond_site_symmetry_2
_ccdc_geom_bond_type
O0 Cd1 2.300 . S
O0 C7 1.275 . S
Cd1 O0 2.300 . S
Cd1 O9 2.381 . S
Cd1 O10 2.378 . S
O2 Cd3 2.385 . S
O2 C7 1.255 . S
Cd3 O2 2.385 . S
Cd3 O4 2.317 . S
O4 Cd3 2.317 . S
O4 C5 1.232 . S
C5 O4 1.232 . S
C5 O6 1.218 . S
O6 C5 1.218 . S
C7 O0 1.275 . S
C7 O2 1.255 . S
C8 O9 1.258 . S
C8 O10 1.256 . S
O9 Cd1 2.381 . S
O9 C8 1.258 . S
O10 Cd1 2.378 . S
O10 C8 1.256 . S
O11 Cd12 2.300 . S
O11 C18 1.275 . S
Cd12 O11 2.300 . S
Cd12 O20 2.381 . S
Cd12 O21 2.378 . S
O13 Cd14 2.385 . S
O13 C18 1.255 . S
Cd14 O13 2.385 . S
Cd14 O15 2.317 . S
O15 Cd14 2.317 . S
O15 C16 1.232 . S
C16 O15 1.232 . S
C16 O17 1.218 . S
O17 C16 1.218 . S
C18 O11 1.275 . S
C18 O13 1.255 . S
C19 O20 1.258 . S
C19 O21 1.256 . S
O20 Cd12 2.381 . S
O20 C19 1.258 . S
O21 Cd12 2.378 . S
O21 C19 1.256 . S
O22 Cd23 2.300 . S
O22 C29 1.275 . S
Cd23 O22 2.300 . S
Cd23 O31 2.381 . S
Cd23 O32 2.378 . S
O24 Cd25 2.385 . S
O24 C29 1.255 . S
Cd25 O24 2.385 . S
Cd25 O26 2.317 . S
O26 Cd25 2.317 . S
O26 C27 1.232 . S
C27 O26 1.232 . S
C27 O28 1.218 . S
O28 C27 1.218 . S
C29 O22 1.275 . S
C29 O24 1.255 . S
C30 O31 1.258 . S
C30 O32 1.256 . S
O31 Cd23 2.381 . S
O31 C30 1.258 . S
O32 Cd23 2.378 . S
O32 C30 1.256 . S
O33 Cd34 2.300 . S
O33 C40 1.275 . S
Cd34 O33 2.300 . S
Cd34 O42 2.381 . S
Cd34 O43 2.378 . S
O35 Cd36 2.385 . S
O35 C40 1.255 . S
Cd36 O35 2.385 . S
Cd36 O37 2.317 . S
O37 Cd36 2.317 . S
O37 C38 1.232 . S
C38 O37 1.232 . S
C38 O39 1.218 . S
O39 C38 1.218 . S
C40 O33 1.275 . S
C40 O35 1.255 . S
C41 O42 1.258 . S
C41 O43 1.256 . S
O42 Cd34 2.381 . S
O42 C41 1.258 . S
O43 Cd34 2.378 . S
O43 C41 1.256 . S
O44 Cd45 2.300 . S
O44 C51 1.275 . S
Cd45 O44 2.300 . S
Cd45 O53 2.381 . S
Cd45 O54 2.378 . S
O46 Cd47 2.385 . S
O46 C51 1.255 . S
Cd47 O46 2.385 . S
Cd47 O48 2.317 . S
O48 Cd47 2.317 . S
O48 C49 1.232 . S
C49 O48 1.232 . S
C49 O50 1.218 . S
O50 C49 1.218 . S
C51 O44 1.275 . S
C51 O46 1.255 . S
C52 O53 1.258 . S
C52 O54 1.256 . S
O53 Cd45 2.381 . S
O53 C52 1.258 . S
O54 Cd45 2.378 . S
O54 C52 1.256 . S
O55 Cd56 2.300 . S
O55 C62 1.275 . S
Cd56 O55 2.300 . S
Cd56 O64 2.381 . S
Cd56 O65 2.378 . S
O57 Cd58 2.385 . S
O57 C62 1.255 . S
Cd58 O57 2.385 . S
Cd58 O59 2.317 . S
O59 Cd58 2.317 . S
O59 C60 1.232 . S
C60 O59 1.232 . S
C60 O61 1.218 . S
O61 C60 1.218 . S
C62 O55 1.275 . S
C62 O57 1.255 . S
C63 O64 1.258 . S
C63 O65 1.256 . S
O64 Cd56 2.381 . S
O64 C63 1.258 . S
O65 Cd56 2.378 . S
O65 C63 1.256 . S
O66 Cd67 2.300 . S
O66 C73 1.275 . S
Cd67 O66 2.300 . S
Cd67 O75 2.381 . S
Cd67 O76 2.378 . S
O68 Cd69 2.385 . S
O68 C73 1.255 . S
Cd69 O68 2.385 . S
Cd69 O70 2.317 . S
O70 Cd69 2.317 . S
O70 C71 1.232 . S
C71 O70 1.232 . S
C71 O72 1.218 . S
O72 C71 1.218 . S
C73 O66 1.275 . S
C73 O68 1.255 . S
C74 O75 1.258 . S
C74 O76 1.256 . S
O75 Cd67 2.381 . S
O75 C74 1.258 . S
O76 Cd67 2.378 . S
O76 C74 1.256 . S
O77 Cd78 2.300 . S
O77 C84 1.275 . S
Cd78 O77 2.300 . S
Cd78 O86 2.381 . S
Cd78 O87 2.378 . S
O79 Cd80 2.385 . S
O79 C84 1.255 . S
Cd80 O79 2.385 . S
Cd80 O81 2.317 . S
O81 Cd80 2.317 . S
O81 C82 1.232 . S
C82 O81 1.232 . S
C82 O83 1.218 . S
O83 C82 1.218 . S
C84 O77 1.275 . S
C84 O79 1.255 . S
C85 O86 1.258 . S
C85 O87 1.256 . S
O86 Cd78 2.381 . S
O86 C85 1.258 . S
O87 Cd78 2.378 . S
O87 C85 1.256 . S
O88 Cd89 2.300 . S
O88 C95 1.275 . S
Cd89 O88 2.300 . S
Cd89 O97 2.381 . S
Cd89 O98 2.378 . S
O90 Cd91 2.385 . S
O90 C95 1.255 . S
Cd91 O90 2.385 . S
Cd91 O92 2.317 . S
O92 Cd91 2.317 . S
O92 C93 1.232 . S
C93 O92 1.232 . S
C93 O94 1.218 . S
O94 C93 1.218 . S
C95 O88 1.275 . S
C95 O90 1.255 . S
C96 O97 1.258 . S
C96 O98 1.256 . S
O97 Cd89 2.381 . S
O97 C96 1.258 . S
O98 Cd89 2.378 . S
O98 C96 1.256 . S
O99 Cd100 2.300 . S
O99 C106 1.275 . S
Cd100 O99 2.300 . S
Cd100 O108 2.381 . S
Cd100 O109 2.378 . S
O101 Cd102 2.385 . S
O101 C106 1.255 . S
Cd102 O101 2.385 . S
Cd102 O103 2.317 . S
O103 Cd102 2.317 . S
O103 C104 1.232 . S
C104 O103 1.232 . S
C104 O105 1.218 . S
O105 C104 1.218 . S
C106 O99 1.275 . S
C106 O101 1.255 . S
C107 O108 1.258 . S
C107 O109 1.256 . S
O108 Cd100 2.381 . S
O108 C107 1.258 . S
O109 Cd100 2.378 . S
O109 C107 1.256 . S
O110 Cd111 2.300 . S
O110 C117 1.275 . S
Cd111 O110 2.300 . S
Cd111 O119 2.381 . S
Cd111 O120 2.378 . S
O112 Cd113 2.385 . S
O112 C117 1.255 . S
Cd113 O112 2.385 . S
Cd113 O114 2.317 . S
O114 Cd113 2.317 . S
O114 C115 1.232 . S
C115 O114 1.232 . S
C115 O116 1.218 . S
O116 C115 1.218 . S
C117 O110 1.275 . S
C117 O112 1.255 . S
C118 O119 1.258 . S
C118 O120 1.256 . S
O119 Cd111 2.381 . S
O119 C118 1.258 . S
O120 Cd111 2.378 . S
O120 C118 1.256 . S
O121 Cd122 2.300 . S
O121 C128 1.275 . S
Cd122 O121 2.300 . S
Cd122 O130 2.381 . S
Cd122 O131 2.378 . S
O123 Cd124 2.385 . S
O123 C128 1.255 . S
Cd124 O123 2.385 . S
Cd124 O125 2.317 . S
O125 Cd124 2.317 . S
O125 C126 1.232 . S
C126 O125 1.232 . S
C126 O127 1.218 . S
O127 C126 1.218 . S
C128 O121 1.275 . S
C128 O123 1.255 . S
C129 O130 1.258 . S
C129 O131 1.256 . S
O130 Cd122 2.381 . S
O130 C129 1.258 . S
O131 Cd122 2.378 . S
O131 C129 1.256 . S
C132 C133 1.363 . S
C132 C138 1.379 1_556 S
C132 N140 1.356 . S
C133 C132 1.363 . S
C133 C139 1.363 . S
C134 C135 1.363 . S
C134 C139 1.379 1_554 S
C134 N141 1.356 . S
C135 C134 1.363 . S
C135 C138 1.363 . S
N136 C138 1.356 . S
N136 H148 0.984 . S
N136 H149 0.985 . S
N137 C139 1.356 . S
N137 H142 0.984 . S
N137 H143 0.985 . S
C138 C132 1.379 1_554 S
C138 C135 1.363 . S
C138 N136 1.356 . S
C139 C133 1.363 . S
C139 C134 1.379 1_556 S
C139 N137 1.356 . S
N140 C132 1.356 . S
N140 H146 0.984 . S
N140 H147 0.984 . S
N141 C134 1.356 . S
N141 H144 0.984 . S
N141 H145 0.985 . S
H142 N137 0.984 . S
H143 N137 0.985 . S
H144 N141 0.984 . S
H145 N141 0.985 . S
H146 N140 0.984 . S
H147 N140 0.984 . S
H148 N136 0.984 . S
H149 N136 0.985 . S
C150 C151 1.363 . S
C150 C156 1.379 . S
C150 N158 1.356 . S
C151 C150 1.363 . S
C151 C157 1.363 . S
C152 C153 1.363 . S
C152 C157 1.379 . S
C152 N159 1.356 . S
C153 C152 1.363 . S
C153 C156 1.363 . S
N154 C156 1.356 . S
N154 H166 0.984 . S
N154 H167 0.985 . S
N155 C157 1.356 . S
N155 H160 0.984 . S
N155 H161 0.985 . S
C156 C150 1.379 . S
C156 C153 1.363 . S
C156 N154 1.356 . S
C157 C151 1.363 . S
C157 C152 1.379 . S
C157 N155 1.356 . S
N158 C150 1.356 . S
N158 H164 0.984 . S
N158 H165 0.984 . S
N159 C152 1.356 . S
N159 H162 0.984 . S
N159 H163 0.985 . S
H160 N155 0.984 . S
H161 N155 0.985 . S
H162 N159 0.984 . S
H163 N159 0.985 . S
H164 N158 0.984 . S
H165 N158 0.984 . S
H166 N154 0.984 . S
H167 N154 0.985 . S
C168 C169 1.363 . S
C168 C174 1.379 . S
C168 N176 1.356 . S
C169 C168 1.363 . S
C169 C175 1.363 . S
C170 C171 1.363 . S
C170 C175 1.379 . S
C170 N177 1.356 . S
C171 C170 1.363 . S
C171 C174 1.363 . S
N172 C174 1.356 . S
N172 H184 0.984 . S
N172 H185 0.985 . S
N173 C175 1.356 . S
N173 H178 0.984 . S
N173 H179 0.985 . S
C174 C168 1.379 . S
C174 C171 1.363 . S
C174 N172 1.356 . S
C175 C169 1.363 . S
C175 C170 1.379 . S
C175 N173 1.356 . S
N176 C168 1.356 . S
N176 H182 0.984 . S
N176 H183 0.984 . S
N177 C170 1.356 . S
N177 H180 0.984 . S
N177 H181 0.985 . S
H178 N173 0.984 . S
H179 N173 0.985 . S
H180 N177 0.984 . S
H181 N177 0.985 . S
H182 N176 0.984 . S
H183 N176 0.984 . S
H184 N172 0.984 . S
H185 N172 0.985 . S
C186 C187 1.363 . S
C186 C192 1.379 1_554 S
C186 N194 1.356 . S
C187 C186 1.363 . S
C187 C193 1.363 . S
C188 C189 1.363 . S
C188 C193 1.379 1_556 S
C188 N195 1.356 . S
C189 C188 1.363 . S
C189 C192 1.363 . S
N190 C192 1.356 . S
N190 H202 0.984 . S
N190 H203 0.985 . S
N191 C193 1.356 . S
N191 H196 0.984 . S
N191 H197 0.985 . S
C192 C186 1.379 1_556 S
C192 C189 1.363 . S
C192 N190 1.356 . S
C193 C187 1.363 . S
C193 C188 1.379 1_554 S
C193 N191 1.356 . S
N194 C186 1.356 . S
N194 H200 0.984 . S
N194 H201 0.984 . S
N195 C188 1.356 . S
N195 H198 0.984 . S
N195 H199 0.985 . S
H196 N191 0.984 . S
H197 N191 0.985 . S
H198 N195 0.984 . S
H199 N195 0.985 . S
H200 N194 0.984 . S
H201 N194 0.984 . S
H202 N190 0.984 . S
H203 N190 0.985 . S
C204 C205 1.363 . S
C204 C210 1.379 . S
C204 N212 1.356 . S
C205 C204 1.363 . S
C205 C211 1.363 . S
C206 C207 1.363 . S
C206 C211 1.379 . S
C206 N213 1.356 . S
C207 C206 1.363 . S
C207 C210 1.363 . S
N208 C210 1.356 . S
N208 H220 0.984 . S
N208 H221 0.985 . S
N209 C211 1.356 . S
N209 H214 0.984 . S
N209 H215 0.985 . S
C210 C204 1.379 . S
C210 C207 1.363 . S
C210 N208 1.356 . S
C211 C205 1.363 . S
C211 C206 1.379 . S
C211 N209 1.356 . S
N212 C204 1.356 . S
N212 H218 0.984 . S
N212 H219 0.984 . S
N213 C206 1.356 . S
N213 H216 0.984 . S
N213 H217 0.985 . S
H214 N209 0.984 . S
H215 N209 0.985 . S
H216 N213 0.984 . S
H217 N213 0.985 . S
H218 N212 0.984 . S
H219 N212 0.984 . S
H220 N208 0.984 . S
H221 N208 0.985 . S
C222 C223 1.363 . S
C222 C228 1.379 . S
C222 N230 1.356 . S
C223 C222 1.363 . S
C223 C229 1.363 . S
C224 C225 1.363 . S
C224 C229 1.379 . S
C224 N231 1.356 . S
C225 C224 1.363 . S
C225 C228 1.363 . S
N226 C228 1.356 . S
N226 H238 0.984 . S
N226 H239 0.985 . S
N227 C229 1.356 . S
N227 H232 0.984 . S
N227 H233 0.985 . S
C228 C222 1.379 . S
C228 C225 1.363 . S
C228 N226 1.356 . S
C229 C223 1.363 . S
C229 C224 1.379 . S
C229 N227 1.356 . S
N230 C222 1.356 . S
N230 H236 0.984 . S
N230 H237 0.984 . S
N231 C224 1.356 . S
N231 H234 0.984 . S
N231 H235 0.985 . S
H232 N227 0.984 . S
H233 N227 0.985 . S
H234 N231 0.984 . S
H235 N231 0.985 . S
H236 N230 0.984 . S
H237 N230 0.984 . S
H238 N226 0.984 . S
H239 N226 0.985 . S
C240 C241 1.363 . S
C240 C246 1.379 . S
C240 N248 1.356 . S
C241 C240 1.363 . S
C241 C247 1.363 . S
C242 C243 1.363 . S
C242 C247 1.379 . S
C242 N249 1.356 . S
C243 C242 1.363 . S
C243 C246 1.363 . S
N244 C246 1.356 . S
N244 H256 0.984 . S
N244 H257 0.985 . S
N245 C247 1.356 . S
N245 H250 0.984 . S
N245 H251 0.985 . S
C246 C240 1.379 . S
C246 C243 1.363 . S
C246 N244 1.356 . S
C247 C241 1.363 . S
C247 C242 1.379 . S
C247 N245 1.356 . S
N248 C240 1.356 . S
N248 H254 0.984 . S
N248 H255 0.984 . S
N249 C242 1.356 . S
N249 H252 0.984 . S
N249 H253 0.985 . S
H250 N245 0.984 . S
H251 N245 0.985 . S
H252 N249 0.984 . S
H253 N249 0.985 . S
H254 N248 0.984 . S
H255 N248 0.984 . S
H256 N244 0.984 . S
H257 N244 0.985 . S
C258 C259 1.363 . S
C258 C264 1.379 1_655 S
C258 N266 1.356 . S
C259 C258 1.363 . S
C259 C265 1.363 . S
C260 C261 1.363 . S
C260 C265 1.379 1_455 S
C260 N267 1.356 . S
C261 C260 1.363 . S
C261 C264 1.363 . S
N262 C264 1.356 . S
N262 H274 0.978 1_455 S
N262 H275 0.985 . S
N263 C265 1.356 . S
N263 H268 0.984 . S
N263 H269 0.978 1_655 S
C264 C258 1.379 1_455 S
C264 C261 1.363 . S
C264 N262 1.356 . S
C265 C259 1.363 . S
C265 C260 1.379 1_655 S
C265 N263 1.356 . S
N266 C258 1.356 . S
N266 H272 0.984 . S
N266 H273 0.984 . S
N267 C260 1.356 . S
N267 H270 0.984 . S
N267 H271 0.985 . S
H268 N263 0.984 . S
H269 N263 0.978 1_455 S
H270 N267 0.984 . S
H271 N267 0.985 . S
H272 N266 0.984 . S
H273 N266 0.984 . S
H274 N262 0.978 1_655 S
H275 N262 0.985 . S
C276 C277 1.363 . S
C276 C282 1.379 1_545 S
C276 N284 1.356 . S
C277 C276 1.363 . S
C277 C283 1.363 . S
C278 C279 1.363 . S
C278 C283 1.379 1_565 S
C278 N285 1.356 . S
C279 C278 1.363 . S
C279 C282 1.363 . S
N280 C282 1.356 . S
N280 H292 0.984 . S
N280 H293 0.985 . S
N281 C283 1.356 . S
N281 H286 0.984 . S
N281 H287 0.985 . S
C282 C276 1.379 1_565 S
C282 C279 1.363 . S
C282 N280 1.356 . S
C283 C277 1.363 . S
C283 C278 1.379 1_545 S
C283 N281 1.356 . S
N284 C276 1.356 . S
N284 H290 0.982 1_545 S
N284 H291 0.984 . S
N285 C278 1.356 . S
N285 H288 0.984 . S
N285 H289 0.982 1_565 S
H286 N281 0.984 . S
H287 N281 0.985 . S
H288 N285 0.984 . S
H289 N285 0.982 1_545 S
H290 N284 0.982 1_565 S
H291 N284 0.984 . S
H292 N280 0.984 . S
H293 N280 0.985 . S
C294 C295 1.363 . S
C294 C300 1.379 . S
C294 N302 1.356 . S
C295 C294 1.363 . S
C295 C301 1.363 . S
C296 C297 1.363 . S
C296 C301 1.379 . S
C296 N303 1.356 . S
C297 C296 1.363 . S
C297 C300 1.363 . S
N298 C300 1.356 . S
N298 H310 0.984 . S
N298 H311 0.985 . S
N299 C301 1.356 . S
N299 H304 0.984 . S
N299 H305 0.985 . S
C300 C294 1.379 . S
C300 C297 1.363 . S
C300 N298 1.356 . S
C301 C295 1.363 . S
C301 C296 1.379 . S
C301 N299 1.356 . S
N302 C294 1.356 . S
N302 H308 0.984 . S
N302 H309 0.984 . S
N303 C296 1.356 . S
N303 H306 0.984 . S
N303 H307 0.985 . S
H304 N299 0.984 . S
H305 N299 0.985 . S
H306 N303 0.984 . S
H307 N303 0.985 . S
H308 N302 0.984 . S
H309 N302 0.984 . S
H310 N298 0.984 . S
H311 N298 0.985 . S
C312 C313 1.363 . S
C312 C318 1.379 1_455 S
C312 N320 1.356 . S
C313 C312 1.363 . S
C313 C319 1.363 . S
C314 C315 1.363 . S
C314 C319 1.379 1_655 S
C314 N321 1.356 . S
C315 C314 1.363 . S
C315 C318 1.363 . S
N316 C318 1.356 . S
N316 H328 0.984 . S
N316 H329 0.985 . S
N317 C319 1.356 . S
N317 H322 0.984 . S
N317 H323 0.985 . S
C318 C312 1.379 1_655 S
C318 C315 1.363 . S
C318 N316 1.356 . S
C319 C313 1.363 . S
C319 C314 1.379 1_455 S
C319 N317 1.356 . S
N320 C312 1.356 . S
N320 H326 0.982 1_455 S
N320 H327 0.984 . S
N321 C314 1.356 . S
N321 H324 0.984 . S
N321 H325 0.981 1_655 S
H322 N317 0.984 . S
H323 N317 0.985 . S
H324 N321 0.984 . S
H325 N321 0.981 1_455 S
H326 N320 0.982 1_655 S
H327 N320 0.984 . S
H328 N316 0.984 . S
H329 N316 0.985 . S
C330 C331 1.363 . S
C330 C336 1.379 1_565 S
C330 N338 1.356 . S
C331 C330 1.363 . S
C331 C337 1.363 . S
C332 C333 1.363 . S
C332 C337 1.379 1_545 S
C332 N339 1.356 . S
C333 C332 1.363 . S
C333 C336 1.363 . S
N334 C336 1.356 . S
N334 H346 0.984 . S
N334 H347 0.985 . S
N335 C337 1.356 . S
N335 H340 0.984 . S
N335 H341 0.985 . S
C336 C330 1.379 1_545 S
C336 C333 1.363 . S
C336 N334 1.356 . S
C337 C331 1.363 . S
C337 C332 1.379 1_565 S
C337 N335 1.356 . S
N338 C330 1.356 . S
N338 H344 0.980 1_565 S
N338 H345 0.984 . S
N339 C332 1.356 . S
N339 H342 0.984 . S
N339 H343 0.979 1_545 S
H340 N335 0.984 . S
H341 N335 0.985 . S
H342 N339 0.984 . S
H343 N339 0.979 1_565 S
H344 N338 0.980 1_545 S
H345 N338 0.984 . S
H346 N334 0.984 . S
H347 N334 0.985 . S
C348 C349 1.363 . S
C348 C354 1.379 1_655 S
C348 N356 1.356 . S
C349 C348 1.363 . S
C349 C355 1.363 . S
C350 C351 1.363 . S
C350 C355 1.379 1_455 S
C350 N357 1.356 . S
C351 C350 1.363 . S
C351 C354 1.363 . S
N352 C354 1.356 . S
N352 H364 0.984 . S
N352 H365 0.985 . S
N353 C355 1.356 . S
N353 H358 0.984 . S
N353 H359 0.985 . S
C354 C348 1.379 1_455 S
C354 C351 1.363 . S
C354 N352 1.356 . S
C355 C349 1.363 . S
C355 C350 1.379 1_655 S
C355 N353 1.356 . S
N356 C348 1.356 . S
N356 H362 0.984 . S
N356 H363 0.984 . S
N357 C350 1.356 . S
N357 H360 0.984 . S
N357 H361 0.985 . S
H358 N353 0.984 . S
H359 N353 0.985 . S
H360 N357 0.984 . S
H361 N357 0.985 . S
H362 N356 0.984 . S
H363 N356 0.984 . S
H364 N352 0.984 . S
H365 N352 0.985 . S
C366 C367 1.363 . S
C366 C372 1.379 . S
C366 N374 1.356 . S
C367 C366 1.363 . S
C367 C373 1.363 1_565 S
C368 C369 1.363 . S
C368 C373 1.379 . S
C368 N375 1.356 . S
C369 C368 1.363 . S
C369 C372 1.363 1_545 S
N370 C372 1.356 1_545 S
N370 H382 0.984 1_545 S
N370 H383 0.985 . S
N371 C373 1.356 1_565 S
N371 H376 0.984 . S
N371 H377 0.985 1_565 S
C372 C366 1.379 . S
C372 C369 1.363 1_565 S
C372 N370 1.356 1_565 S
C373 C367 1.363 1_545 S
C373 C368 1.379 . S
C373 N371 1.356 1_545 S
N374 C366 1.356 . S
N374 H380 0.984 . S
N374 H381 0.984 . S
N375 C368 1.356 . S
N375 H378 0.984 . S
N375 H379 0.985 . S
H376 N371 0.984 . S
H377 N371 0.985 1_545 S
H378 N375 0.984 . S
H379 N375 0.985 . S
H380 N374 0.984 . S
H381 N374 0.984 . S
H382 N370 0.984 1_565 S
H383 N370 0.985 . S
C384 C385 1.363 . S
C384 C390 1.379 . S
C384 N392 1.356 . S
C385 C384 1.363 . S
C385 C391 1.363 . S
C386 C387 1.363 . S
C386 C391 1.379 . S
C386 N393 1.356 . S
C387 C386 1.363 . S
C387 C390 1.363 . S
N388 C390 1.356 . S
N388 H400 0.984 . S
N388 H401 0.985 . S
N389 C391 1.356 . S
N389 H394 0.984 . S
N389 H395 0.985 . S
C390 C384 1.379 . S
C390 C387 1.363 . S
C390 N388 1.356 . S
C391 C385 1.363 . S
C391 C386 1.379 . S
C391 N389 1.356 . S
N392 C384 1.356 . S
N392 H398 0.984 . S
N392 H399 0.984 . S
N393 C386 1.356 . S
N393 H396 0.984 . S
N393 H397 0.985 . S
H394 N389 0.984 . S
H395 N389 0.985 . S
H396 N393 0.984 . S
H397 N393 0.985 . S
H398 N392 0.984 . S
H399 N392 0.984 . S
H400 N388 0.984 . S
H401 N388 0.985 . S
C402 C403 1.363 . S
C402 C408 1.379 . S
C402 N410 1.356 . S
C403 C402 1.363 . S
C403 C409 1.363 1_655 S
C404 C405 1.363 . S
C404 C409 1.379 . S
C404 N411 1.356 . S
C405 C404 1.363 . S
C405 C408 1.363 1_455 S
N406 C408 1.356 1_455 S
N406 H418 0.984 1_455 S
N406 H419 0.985 . S
N407 C409 1.356 1_655 S
N407 H412 0.984 . S
N407 H413 0.985 1_655 S
C408 C402 1.379 . S
C408 C405 1.363 1_655 S
C408 N406 1.356 1_655 S
C409 C403 1.363 1_455 S
C409 C404 1.379 . S
C409 N407 1.356 1_455 S
N410 C402 1.356 . S
N410 H416 0.984 . S
N410 H417 0.984 . S
N411 C404 1.356 . S
N411 H414 0.984 . S
N411 H415 0.985 . S
H412 N407 0.984 . S
H413 N407 0.985 1_455 S
H414 N411 0.984 . S
H415 N411 0.985 . S
H416 N410 0.984 . S
H417 N410 0.984 . S
H418 N406 0.984 1_655 S
H419 N406 0.985 . S
C420 C421 1.363 . S
C420 C426 1.372 1_565 S
C420 N428 1.356 . S
C421 C420 1.363 . S
C421 C427 1.367 . S
C422 C423 1.363 . S
C422 C427 1.372 1_545 S
C422 N429 1.356 . S
C423 C422 1.363 . S
C423 C426 1.368 . S
N424 C426 1.361 . S
N424 H436 0.984 1_545 S
N424 H437 0.985 . S
N425 C427 1.361 . S
N425 H430 0.984 . S
N425 H431 0.985 1_565 S
C426 C420 1.372 1_545 S
C426 C423 1.368 . S
C426 N424 1.361 . S
C427 C421 1.367 . S
C427 C422 1.372 1_565 S
C427 N425 1.361 . S
N428 C420 1.356 . S
N428 H434 0.984 . S
N428 H435 0.984 . S
N429 C422 1.356 . S
N429 H432 0.984 . S
N429 H433 0.985 . S
H430 N425 0.984 . S
H431 N425 0.985 1_545 S
H432 N429 0.984 . S
H433 N429 0.985 . S
H434 N428 0.984 . S
H435 N428 0.984 . S
H436 N424 0.984 1_565 S
H437 N424 0.985 . S
C438 C439 1.363 . S
C438 C444 1.379 . S
C438 N446 1.356 . S
C439 C438 1.363 . S
C439 C445 1.363 . S
C440 C441 1.363 . S
C440 C445 1.379 . S
C440 N447 1.356 . S
C441 C440 1.363 . S
C441 C444 1.363 . S
N442 C444 1.356 . S
N442 H454 0.984 . S
N442 H455 0.985 . S
N443 C445 1.356 . S
N443 H448 0.984 . S
N443 H449 0.985 . S
C444 C438 1.379 . S
C444 C441 1.363 . S
C444 N442 1.356 . S
C445 C439 1.363 . S
C445 C440 1.379 . S
C445 N443 1.356 . S
N446 C438 1.356 . S
N446 H452 0.984 . S
N446 H453 0.984 . S
N447 C440 1.356 . S
N447 H450 0.984 . S
N447 H451 0.985 . S
H448 N443 0.984 . S
H449 N443 0.985 . S
H450 N447 0.984 . S
H451 N447 0.985 . S
H452 N446 0.984 . S
H453 N446 0.984 . S
H454 N442 0.984 . S
H455 N442 0.985 . S
C133 C117 1.466 . S
C135 C7 1.466 . S
C151 C128 1.466 . S
C153 C18 1.466 . S
C169 C29 1.466 . S
C171 C73 1.466 . S
C187 C40 1.466 . S
C189 C84 1.466 . S
C205 C95 1.466 . S
C207 C51 1.466 . S
C223 C106 1.466 . S
C225 C62 1.466 . S
C241 C38 1.262 . S
C243 C5 1.262 . S
C259 C16 1.262 . S
C261 C49 1.262 . S
C277 C60 1.262 . S
C279 C27 1.262 . S
C295 C104 1.262 . S
C297 C71 1.262 . S
C313 C115 1.262 . S
C315 C82 1.262 . S
C331 C93 1.262 . S
C333 C126 1.262 . S
C349 C129 1.499 . S
C351 C8 1.499 . S
C367 C74 1.499 . S
C369 C19 1.499 . S
C385 C30 1.499 . S
C387 C85 1.499 . S
C403 C41 1.499 . S
C405 C96 1.499 . S
C421 C52 1.499 . S
C423 C107 1.499 . S
C439 C63 1.499 . S
C441 C118 1.499 . S
