# Generated by pormake.
# Topology rkf, (6)-cn, num edge types: 1
# Building blocks:
#     Node 0, Type 0, BuildingBlock: BETDEL_clean_sbu_0, # of connection points: 6
#     Node 1, Type 0, BuildingBlock: BETDEL_clean_sbu_0, # of connection points: 6
#     Node 2, Type 0, BuildingBlock: BETDEL_clean_sbu_0, # of connection points: 6
#     Node 3, Type 0, BuildingBlock: BETDEL_clean_sbu_0, # of connection points: 6
#     Node 4, Type 0, BuildingBlock: BETDEL_clean_sbu_0, # of connection points: 6
#     Node 5, Type 0, BuildingBlock: BETDEL_clean_sbu_0, # of connection points: 6
#     Edge 6, Type (0, 0), BuildingBlock: MIFKUJ_clean_linker_0, # of connection points: 2
#     Edge 7, Type (0, 0), BuildingBlock: MIFKUJ_clean_linker_0, # of connection points: 2
#     Edge 8, Type (0, 0), BuildingBlock: MIFKUJ_clean_linker_0, # of connection points: 2
#     Edge 9, Type (0, 0), BuildingBlock: MIFKUJ_clean_linker_0, # of connection points: 2
#     Edge 10, Type (0, 0), BuildingBlock: MIFKUJ_clean_linker_0, # of connection points: 2
#     Edge 11, Type (0, 0), BuildingBlock: MIFKUJ_clean_linker_0, # of connection points: 2
#     Edge 12, Type (0, 0), BuildingBlock: MIFKUJ_clean_linker_0, # of connection points: 2
#     Edge 13, Type (0, 0), BuildingBlock: MIFKUJ_clean_linker_0, # of connection points: 2
#     Edge 14, Type (0, 0), BuildingBlock: MIFKUJ_clean_linker_0, # of connection points: 2
#     Edge 15, Type (0, 0), BuildingBlock: MIFKUJ_clean_linker_0, # of connection points: 2
#     Edge 16, Type (0, 0), BuildingBlock: MIFKUJ_clean_linker_0, # of connection points: 2
#     Edge 17, Type (0, 0), BuildingBlock: MIFKUJ_clean_linker_0, # of connection points: 2
#     Edge 18, Type (0, 0), BuildingBlock: MIFKUJ_clean_linker_0, # of connection points: 2
#     Edge 19, Type (0, 0), BuildingBlock: MIFKUJ_clean_linker_0, # of connection points: 2
#     Edge 20, Type (0, 0), BuildingBlock: MIFKUJ_clean_linker_0, # of connection points: 2
#     Edge 21, Type (0, 0), BuildingBlock: MIFKUJ_clean_linker_0, # of connection points: 2
#     Edge 22, Type (0, 0), BuildingBlock: MIFKUJ_clean_linker_0, # of connection points: 2
#     Edge 23, Type (0, 0), BuildingBlock: MIFKUJ_clean_linker_0, # of connection points: 2
# Relax obj value: 0.361
# Max RMSD: 0.269
# Mean RMSD: 0.269
data_MOF--net-rkf--node1-BETDEL_clean_sbu_0--edge1-MIFKUJ_clean_linker_0
_symmetry_space_group_name_H-M    P1
_symmetry_Int_Tables_number       1
_symmetry_cell_setting            triclinic
loop_
_symmetry_equiv_pos_as_xyz
'x, y, z'
_cell_length_a     30.632792
_cell_length_b     30.621119
_cell_length_c     54.045687
_cell_angle_alpha  90.067676
_cell_angle_beta   89.944419
_cell_angle_gamma 120.04268
loop_
_atom_site_label
_atom_site_type_symbol
_atom_site_fract_x
_atom_site_fract_y
_atom_site_fract_z
_atom_type_partial_charge
Dy0 Dy 0.25095 0.05719 0.04064 0.0
C1 C 0.32725 0.23234 0.97735 0.0
C2 C 0.20399 0.97483 0.0712 0.0
Dy3 Dy 0.31465 0.15789 1.00986 0.0
O4 O 0.18253 0.98597 0.05354 0.0
O5 O 0.25218 0.00713 0.0711 0.0
O6 O 0.18827 0.07682 0.04127 0.0
O7 O 0.23811 0.09856 1.012 0.0
C8 C 0.20246 0.10221 1.02077 0.0
C9 C 0.36715 0.11486 0.02423 0.0
O10 O 0.31512 0.18966 0.04802 0.0
O11 O 0.27951 0.11427 0.07064 0.0
O12 O 0.35338 0.20945 0.97747 0.0
O13 O 0.29767 0.2178 0.99658 0.0
O14 O 0.38084 0.14706 1.00606 0.0
O15 O 0.33133 0.11417 0.0364 0.0
O16 O 0.26068 0.02438 1.00532 0.0
O17 O 0.28299 0.09608 0.9814 0.0
C18 C 0.30045 0.16383 0.0692 0.0
C19 C 0.27018 0.04788 0.98364 0.0
Dy20 Dy 0.21722 0.23735 0.38137 0.0
C21 C 0.11785 0.2896 0.30604 0.0
C22 C 0.26212 0.19969 0.41179 0.0
Dy23 Dy 0.17247 0.28663 0.34584 0.0
O24 O 0.2285 0.17422 0.39494 0.0
O25 O 0.273 0.24667 0.41116 0.0
O26 O 0.1392 0.18906 0.39804 0.0
O27 O 0.14719 0.21313 0.36151 0.0
C28 C 0.11612 0.19247 0.37879 0.0
C29 C 0.26554 0.35048 0.36218 0.0
O30 O 0.14949 0.30029 0.38364 0.0
O31 O 0.21215 0.29425 0.40528 0.0
O32 O 0.16675 0.31315 0.30759 0.0
O33 O 0.09902 0.26791 0.32711 0.0
O34 O 0.23305 0.36434 0.35593 0.0
O35 O 0.2482 0.30416 0.35722 0.0
O36 O 0.2424 0.22166 0.34469 0.0
O37 O 0.19998 0.2499 0.31934 0.0
C38 C 0.17629 0.30649 0.40412 0.0
C39 C 0.22861 0.22936 0.32253 0.0
Dy40 Dy 0.04702 0.23971 0.71549 0.0
C41 C 0.87813 0.12203 0.64685 0.0
C42 C 0.12752 0.28769 0.74714 0.0
Dy43 Dy 0.94904 0.18431 0.68098 0.0
O44 O 0.12291 0.25607 0.72981 0.0
O45 O 0.08996 0.29619 0.74567 0.0
O46 O 0.02327 0.16768 0.73546 0.0
O47 O 0.00036 0.16503 0.69907 0.0
C48 C -0.00655 0.13892 0.71828 0.0
C49 C -0.00284 0.2859 0.68211 0.0
O50 O 0.91225 0.17407 0.71838 0.0
O51 O 0.9846 0.23431 0.73955 0.0
O52 O 0.90247 0.17098 0.6465 0.0
O53 O 0.8897 0.10711 0.66706 0.0
O54 O 0.96964 0.25941 0.66361 0.0
O55 O -0.00751 0.25698 0.69957 0.0
O56 O 0.07858 0.2618 0.67683 0.0
O57 O 0.01344 0.18979 0.65916 0.0
C58 C 0.93527 0.20114 0.73855 0.0
C59 C 0.05797 0.23135 0.6575 0.0
Dy60 Dy 0.82736 0.99354 0.03811 0.0
C61 C 0.75137 0.83241 0.96559 0.0
C62 C 0.86535 0.0618 0.07653 0.0
Dy63 Dy 0.76365 0.89637 1.00455 0.0
O64 O 0.89113 0.05922 0.05808 0.0
O65 O 0.81793 0.02847 0.07336 0.0
O66 O 0.89987 0.0035 0.02238 0.0
O67 O 0.83601 0.93284 0.02236 0.0
C68 C 0.88058 0.95751 1.01445 0.0
C69 C 0.70875 0.92995 0.02728 0.0
O70 O 0.75369 0.85737 0.04117 0.0
O71 O 0.79446 0.9305 0.06551 0.0
O72 O 0.7337 0.86316 0.9667 0.0
O73 O 0.77277 0.8342 0.98666 0.0
O74 O 0.69063 0.88324 1.01992 0.0
O75 O 0.75352 0.95735 1.01932 0.0
O76 O 0.82737 0.03436 1.00357 0.0
O77 O 0.79811 0.96298 0.97876 0.0
C78 C 0.76835 0.88082 0.0629 0.0
C79 C 0.8187 0.01245 0.98145 0.0
Dy80 Dy 0.83302 0.8427 0.37163 0.0
C81 C 0.93951 0.7936 0.29976 0.0
C82 C 0.79926 0.87226 0.41212 0.0
Dy83 Dy 0.87838 0.79222 0.33725 0.0
O84 O 0.82318 0.90044 0.39328 0.0
O85 O 0.791 0.82686 0.40808 0.0
O86 O 0.8896 0.91885 0.35662 0.0
O87 O 0.90725 0.86183 0.35731 0.0
C88 C 0.92197 0.9059 0.3497 0.0
C89 C 0.79005 0.72746 0.35794 0.0
O90 O 0.90855 0.78253 0.37355 0.0
O91 O 0.86125 0.80653 0.39802 0.0
O92 O 0.89245 0.75888 0.30271 0.0
O93 O 0.95327 0.82547 0.31795 0.0
O94 O 0.82357 0.71515 0.35121 0.0
O95 O 0.80341 0.77189 0.35082 0.0
O96 O 0.78702 0.83486 0.33783 0.0
O97 O 0.83959 0.82077 0.31178 0.0
C98 C 0.89132 0.78738 0.39539 0.0
C99 C 0.80345 0.8321 0.31542 0.0
Dy100 Dy 0.04875 0.82556 0.70193 0.0
C101 C 0.21307 0.96376 0.64432 0.0
C102 C 0.97319 0.78544 0.73736 0.0
Dy103 Dy 0.14793 0.89305 0.6775 0.0
O104 O 0.978 0.81607 0.7197 0.0
O105 O 0.00739 0.77244 0.73427 0.0
O106 O 0.02767 0.87695 0.68331 0.0
O107 O 0.09729 0.90775 0.69996 0.0
C108 C 0.06608 0.91856 0.69075 0.0
C109 C 0.13487 0.80282 0.68965 0.0
O110 O 0.17434 0.9179 0.71604 0.0
O111 O 0.1057 0.84685 0.73258 0.0
O112 O 0.20995 0.92056 0.64874 0.0
O113 O 0.18254 0.96914 0.65901 0.0
O114 O 0.17895 0.84376 0.68926 0.0
O115 O 0.10133 0.81132 0.68137 0.0
O116 O 0.02446 0.79112 0.66417 0.0
O117 O 0.09018 0.86347 0.64701 0.0
C118 C 0.15077 0.88766 0.73492 0.0
C119 C 0.04747 0.81989 0.6446 0.0
H120 H 0.83589 0.91661 0.96938 0.0
H121 H 0.88119 0.95086 0.93102 0.0
H122 H 0.02086 0.00125 0.97037 0.0
H123 H 0.97527 0.97457 1.00909 0.0
H124 H 0.94415 0.06365 0.94319 0.0
H125 H 0.08395 0.98574 0.92843 0.0
H126 H 0.07989 0.9156 0.90426 0.0
H127 H 0.96743 0.91538 0.85688 0.0
H128 H 0.97004 0.98506 0.88099 0.0
H129 H 0.10746 0.08622 0.02977 0.0
H130 H 0.05031 0.08747 0.99883 0.0
H131 H 0.1717 0.15188 0.94562 0.0
H132 H 0.2267 0.14513 0.97539 0.0
H133 H 0.10724 0.07338 0.92716 0.0
H134 H 0.09275 0.20452 0.95944 0.0
H135 H 0.08563 0.26383 0.98752 0.0
H136 H 0.93969 0.14677 1.01117 0.0
H137 H 0.94597 0.08637 0.98371 0.0
C138 C 0.87583 0.93402 0.96984 0.0
C139 C 0.90188 0.94631 0.99244 0.0
C140 C 0.9019 0.9528 0.94761 0.0
C141 C 0.95451 0.98078 0.94788 0.0
C142 C 0.98008 0.98112 0.96967 0.0
C143 C 0.95399 0.96553 0.99199 0.0
C144 C 0.98138 0.0241 0.93093 0.0
C145 C 0.98044 0.06662 0.9399 0.0
C146 C 0.02723 0.03158 0.9214 0.0
C147 C 0.0277 0.99126 0.90636 0.0
C148 C 0.05895 0.97146 0.91262 0.0
C149 C 0.05669 0.93151 0.89901 0.0
C150 C 0.02384 0.91142 0.87892 0.0
C151 C -0.00691 0.93119 0.87237 0.0
C152 C -0.00533 0.97066 0.88611 0.0
C153 C 0.12225 0.10218 1.01173 0.0
C154 C 0.17167 0.11582 1.00513 0.0
C155 C 0.08975 0.1037 0.99402 0.0
C156 C 0.10662 0.11999 0.96964 0.0
C157 C 0.15764 0.13918 0.96412 0.0
C158 C 0.18943 0.13589 0.98143 0.0
C159 C 0.06925 0.10366 0.94922 0.0
C160 C 0.07186 0.07192 0.93098 0.0
C161 C 0.02367 0.10463 0.95185 0.0
C162 C 0.01949 0.14084 0.96883 0.0
C163 C 0.05902 0.1912 0.97055 0.0
C164 C 0.05516 0.22512 0.98646 0.0
C165 C 0.01209 0.2092 1.00099 0.0
C166 C 0.97286 0.15923 0.99973 0.0
C167 C 0.97647 0.12515 0.98383 0.0
H168 H 0.00922 0.23553 1.01332 0.0
H169 H 0.02175 0.88012 0.86862 0.0
H170 H 0.92056 0.88303 0.29978 0.0
H171 H 0.94148 0.9489 0.26946 0.0
H172 H 0.03507 0.06007 0.32336 0.0
H173 H 0.00881 -0.00516 0.35449 0.0
H174 H 0.88933 0.99107 0.2936 0.0
H175 H 0.10169 0.16544 0.29594 0.0
H176 H 0.17041 0.20743 0.2658 0.0
H177 H 0.07167 0.11801 0.20723 0.0
H178 H 0.00169 0.07534 0.23693 0.0
H179 H 0.04648 0.09262 0.38224 0.0
H180 H 0.9688 0.05261 0.35811 0.0
H181 H 0.98677 0.19839 0.34187 0.0
H182 H 0.06099 0.23775 0.36861 0.0
H183 H 0.028 0.1651 0.30602 0.0
H184 H 0.87545 0.11039 0.33857 0.0
H185 H 0.80089 0.07684 0.36548 0.0
H186 H 0.77544 0.92681 0.35565 0.0
H187 H 0.85023 0.95898 0.32931 0.0
C188 C 0.94643 0.92121 0.30515 0.0
C189 C 0.95949 0.9341 0.33012 0.0
C190 C 0.95956 0.95907 0.28738 0.0
C191 C 0.98639 0.00984 0.29458 0.0
C192 C 0.01184 0.02124 0.3175 0.0
C193 C -0.00319 0.9837 0.33554 0.0
C194 C 0.96743 0.04391 0.28662 0.0
C195 C 0.9196 0.02928 0.29671 0.0
C196 C 0.00226 0.09602 0.28583 0.0
C197 C 0.04606 0.11714 0.26874 0.0
C198 C 0.09439 0.15431 0.27669 0.0
C199 C 0.13379 0.17811 0.25968 0.0
C200 C 0.12564 0.16506 0.23469 0.0
C201 C 0.07812 0.12767 0.22666 0.0
C202 C 0.03859 0.10339 0.24361 0.0
C203 C 0.03193 0.11576 0.37493 0.0
C204 C 0.06125 0.16842 0.37557 0.0
C205 C 0.98733 0.09293 0.36113 0.0
C206 C 0.97412 0.12291 0.34676 0.0
C207 C -0.0028 0.17458 0.35208 0.0
C208 C 0.04059 0.1972 0.36672 0.0
C209 C 0.95821 0.10584 0.321 0.0
C210 C -0.00269 0.12693 0.30345 0.0
C211 C 0.91552 0.05833 0.31591 0.0
C212 C 0.86952 0.03762 0.33184 0.0
C213 C 0.85452 0.07026 0.34229 0.0
C214 C 0.81195 0.05138 0.35751 0.0
C215 C 0.78357 -0.00024 0.36237 0.0
C216 C 0.79758 0.96686 0.35195 0.0
C217 C 0.84021 0.98551 0.33681 0.0
H218 H 0.75064 0.98523 0.37416 0.0
H219 H 0.15607 0.18429 0.22155 0.0
H220 H 0.02719 0.97439 0.67258 0.0
H221 H 0.95497 0.97167 0.69308 0.0
H222 H -0.0082 0.92065 0.76026 0.0
H223 H 0.06611 0.9282 0.74053 0.0
H224 H 0.93728 0.94484 0.77514 0.0
H225 H 0.8304 0.91312 0.67692 0.0
H226 H 0.83037 0.87547 0.63697 0.0
H227 H 0.9054 0.80301 0.66943 0.0
H228 H 0.90528 0.83957 0.70974 0.0
H229 H 0.95167 0.11179 0.76376 0.0
H230 H 0.88153 0.03243 0.77642 0.0
H231 H 0.85502 0.98429 0.69979 0.0
H232 H 0.92861 0.06253 0.68778 0.0
H233 H 0.7974 0.8991 0.71698 0.0
H234 H 0.79073 0.95628 0.78605 0.0
H235 H 0.7674 0.95876 0.82915 0.0
H236 H 0.87724 0.92091 0.85403 0.0
H237 H 0.90173 0.91791 0.81145 0.0
C238 C 0.02165 0.96598 0.69219 0.0
C239 C 0.0509 0.94967 0.70471 0.0
C240 C 0.97913 0.96224 0.70365 0.0
C241 C 0.96499 0.94089 0.72742 0.0
C242 C 2e-05 0.9346 0.74146 0.0
C243 C 0.04351 0.94014 0.73026 0.0
C244 C 0.91364 0.92464 0.73702 0.0
C245 C 0.90748 0.93496 0.76183 0.0
C246 C 0.87023 0.90388 0.72128 0.0
C247 C 0.86824 0.87977 0.69687 0.0
C248 C 0.84666 0.88898 0.67589 0.0
C249 C 0.84669 0.86777 0.65297 0.0
C250 C 0.86793 0.83691 0.65062 0.0
C251 C 0.88897 0.827 0.67123 0.0
C252 C 0.88892 0.84803 0.69418 0.0
C253 C 0.93092 0.08387 0.74962 0.0
C254 C 0.9465 0.09256 0.7248 0.0
C255 C 0.88976 0.03814 0.75688 0.0
C256 C 0.86414 -0.00114 0.73963 0.0
C257 C 0.87523 0.01133 0.71421 0.0
C258 C 0.91728 0.05678 0.70702 0.0
C259 C 0.83888 0.94441 0.74823 0.0
C260 C 0.8294 0.90981 0.72903 0.0
C261 C 0.864 0.93704 0.76838 0.0
C262 C 0.8497 0.93876 0.79479 0.0
C263 C 0.81062 0.9489 0.8005 0.0
C264 C 0.79699 0.9503 0.82506 0.0
C265 C 0.82127 0.94067 0.84433 0.0
C266 C 0.85904 0.92925 0.83908 0.0
C267 C 0.87315 0.92814 0.81458 0.0
H268 H 0.81053 0.94165 0.86332 0.0
H269 H 0.868 0.82059 0.63286 0.0
H270 H 0.25995 0.26565 0.97104 0.0
H271 H 0.23305 0.28495 0.93179 0.0
H272 H 0.34468 0.26483 0.89291 0.0
H273 H 0.37179 0.24571 0.93204 0.0
H274 H 0.28153 0.35649 0.89341 0.0
H275 H 0.28926 0.19741 0.84055 0.0
H276 H 0.28466 0.11611 0.84947 0.0
H277 H 0.19216 0.09547 0.91301 0.0
H278 H 0.19499 0.17602 0.90399 0.0
H279 H 0.20684 0.27136 0.75331 0.0
H280 H 0.24936 0.27368 0.79207 0.0
H281 H 0.15942 0.32426 0.83079 0.0
H282 H 0.1186 0.32402 0.79193 0.0
H283 H 0.21414 0.21961 0.83077 0.0
H284 H 0.21208 0.38264 0.88445 0.0
H285 H 0.22012 0.46558 0.87617 0.0
H286 H 0.30535 0.48089 0.81038 0.0
H287 H 0.29837 0.39837 0.81842 0.0
C288 C 0.27974 0.26675 0.95422 0.0
C289 C 0.31829 0.25445 0.95473 0.0
C290 C 0.26413 0.27757 0.93175 0.0
C291 C 0.28636 0.27578 0.90928 0.0
C292 C 0.32654 0.26596 0.90992 0.0
C293 C 0.34233 0.25545 0.93237 0.0
C294 C 0.26583 0.2813 0.88509 0.0
C295 C 0.26632 0.32643 0.87978 0.0
C296 C 0.24691 0.24254 0.86703 0.0
C297 C 0.2431 0.19308 0.87189 0.0
C298 C 0.26769 0.17537 0.85633 0.0
C299 C 0.26535 0.12946 0.86138 0.0
C300 C 0.23843 0.10093 0.8819 0.0
C301 C 0.21315 0.1178 0.89721 0.0
C302 C 0.21513 0.16354 0.89215 0.0
C303 C 0.19725 0.28441 0.76998 0.0
C304 C 0.15972 0.29805 0.76945 0.0
C305 C 0.22125 0.28526 0.79224 0.0
C306 C 0.20808 0.29937 0.81461 0.0
C307 C 0.17144 0.3143 0.81391 0.0
C308 C 0.14797 0.31415 0.79158 0.0
C309 C 0.23016 0.29527 0.83873 0.0
C310 C 0.22968 0.25008 0.84417 0.0
C311 C 0.24939 0.33419 0.85681 0.0
C312 C 0.25426 0.38409 0.85193 0.0
C313 C 0.2327 0.4038 0.86827 0.0
C314 C 0.23704 0.45072 0.86361 0.0
C315 C 0.26309 0.47841 0.84272 0.0
C316 C 0.28501 0.45932 0.8265 0.0
C317 C 0.28082 0.41244 0.83108 0.0
H318 H 0.26637 0.51471 0.83914 0.0
H319 H 0.23701 0.06567 0.88586 0.0
H320 H 0.15583 0.30309 0.25926 0.0
H321 H 0.10943 0.26693 0.22089 0.0
H322 H 0.96882 0.20543 0.26071 0.0
H323 H 0.01542 0.2415 0.29929 0.0
H324 H 0.96736 0.13559 0.23021 0.0
H325 H 0.00794 0.30725 0.22133 0.0
H326 H 0.06311 0.3997 0.2209 0.0
H327 H 0.15043 0.38732 0.16198 0.0
H328 H 0.09616 0.29469 0.16227 0.0
H329 H 0.81803 0.06195 0.1197 0.0
H330 H 0.85749 0.10226 0.15911 0.0
H331 H 0.00418 0.16781 0.12491 0.0
H332 H 0.96487 0.12715 0.08569 0.0
H333 H -0.00228 0.23568 0.15354 0.0
H334 H 0.9617 0.06567 0.16246 0.0
H335 H 0.90878 0.97296 0.16224 0.0
H336 H 0.81762 0.98044 0.2206 0.0
H337 H 0.86947 0.07341 0.22088 0.0
C338 C 0.115 0.28303 0.25977 0.0
C339 C 0.08932 0.27559 0.28233 0.0
C340 C 0.0884 0.26206 0.23778 0.0
C341 C 0.03539 0.23361 0.2377 0.0
C342 C 0.00962 0.22715 0.26016 0.0
C343 C 0.03629 0.24821 0.2822 0.0
C344 C 0.00724 0.20995 0.21426 0.0
C345 C 0.97364 0.15756 0.21352 0.0
C346 C 0.01566 0.23829 0.19228 0.0
C347 C 0.04821 0.294 0.19196 0.0
C348 C 0.03911 0.32422 0.20839 0.0
C349 C 0.07019 0.37666 0.20816 0.0
C350 C 0.11032 0.39936 0.19146 0.0
C351 C 0.11936 0.36968 0.17491 0.0
C352 C 0.08842 0.31721 0.17509 0.0
C353 C 0.85862 0.08505 0.12059 0.0
C354 C 0.88824 0.09102 0.09959 0.0
C355 C 0.88124 0.10795 0.14318 0.0
C356 C 0.93403 0.1376 0.1452 0.0
C357 C 0.96347 0.14503 0.12396 0.0
C358 C 0.9409 0.12184 0.10148 0.0
C359 C 0.95878 0.16116 0.1693 0.0
C360 C 0.99159 0.21359 0.17019 0.0
C361 C 0.95009 0.13265 0.1913 0.0
C362 C 0.91897 0.07668 0.19137 0.0
C363 C 0.93001 0.04765 0.17505 0.0
C364 C 0.90022 -0.00497 0.17492 0.0
C365 C 0.85962 0.97086 0.19125 0.0
C366 C 0.84893 -0.00073 0.20786 0.0
C367 C 0.8785 0.05194 0.20801 0.0
H368 H 0.83667 0.93013 0.19113 0.0
H369 H 0.13434 0.43997 0.19131 0.0
H370 H 0.83535 0.01918 0.64221 0.0
H371 H 0.80982 0.96969 0.60381 0.0
H372 H 0.84656 0.10427 0.56244 0.0
H373 H 0.87008 0.1531 0.60074 0.0
H374 H 0.76861 0.03128 0.5424 0.0
H375 H 0.92739 0.05183 0.56926 0.0
H376 H 0.98668 0.04454 0.59744 0.0
H377 H 0.89467 0.8831 0.59606 0.0
H378 H 0.83412 0.88945 0.56838 0.0
H379 H 0.81927 0.96762 0.42314 0.0
H380 H 0.8213 0.00314 0.46399 0.0
H381 H 0.77057 0.85753 0.49726 0.0
H382 H 0.76912 0.822 0.45634 0.0
H383 H 0.8475 0.92818 0.52276 0.0
H384 H 0.69254 0.90999 0.49269 0.0
H385 H 0.63683 0.91968 0.46304 0.0
H386 H 0.72783 0.08087 0.46832 0.0
H387 H 0.7845 0.07217 0.49776 0.0
C388 C 0.83683 0.0379 0.62497 0.0
C389 C 0.85464 0.09009 0.62457 0.0
C390 C 0.82281 0.00968 0.60292 0.0
C391 C 0.82723 0.03321 0.57991 0.0
C392 C 0.8428 0.08492 0.57976 0.0
C393 C 0.85622 0.11293 0.60177 0.0
C394 C 0.81756 0.00497 0.5559 0.0
C395 C 0.78643 0.00924 0.53807 0.0
C396 C 0.83965 0.97499 0.55016 0.0
C397 C 0.87577 0.97116 0.56705 0.0
C398 C 0.91946 0.01479 0.57521 0.0
C399 C 0.95331 0.01082 0.59109 0.0
C400 C 0.94426 0.96339 0.59869 0.0
C401 C 0.90144 0.91982 0.59032 0.0
C402 C 0.8673 0.92359 0.57457 0.0
C403 C 0.80765 0.94293 0.4391 0.0
C404 C 0.79355 0.89184 0.43643 0.0
C405 C 0.80877 0.9633 0.46252 0.0
C406 C 0.79561 0.93307 0.4839 0.0
C407 C 0.78075 0.88176 0.48117 0.0
C408 C 0.77953 0.86134 0.45771 0.0
C409 C 0.79972 0.95559 0.50907 0.0
C410 C 0.82967 0.95015 0.52712 0.0
C411 C 0.77719 0.98505 0.51488 0.0
C412 C 0.74299 0.9904 0.49729 0.0
C413 C 0.70087 0.94751 0.4874 0.0
C414 C 0.66909 0.95283 0.47065 0.0
C415 C 0.67884 0.00086 0.46377 0.0
C416 C 0.72034 0.04369 0.47366 0.0
C417 C 0.75227 0.03858 0.49041 0.0
H418 H 0.6542 0.00489 0.45079 0.0
H419 H 0.97053 0.96036 0.61096 0.0
H420 H 0.78316 0.76366 0.95894 0.0
H421 H 0.81521 0.74624 0.92075 0.0
H422 H 0.78493 0.85064 0.88128 0.0
H423 H 0.75036 0.86563 0.91893 0.0
H424 H 0.76511 0.77918 0.85218 0.0
H425 H 0.90273 0.87238 0.90845 0.0
H426 H 0.95438 0.88886 0.94595 0.0
H427 H 0.97486 0.76354 0.92908 0.0
H428 H 0.92181 0.74474 0.89196 0.0
H429 H 0.92225 0.83388 0.74876 0.0
H430 H 0.88365 0.83611 0.78734 0.0
H431 H 0.91874 0.72761 0.81835 0.0
H432 H 0.96106 0.72803 0.7794 0.0
H433 H 0.93422 0.79488 0.85205 0.0
H434 H 0.79437 0.69986 0.79696 0.0
H435 H 0.74757 0.68625 0.75794 0.0
H436 H 0.73489 0.81743 0.77231 0.0
H437 H 0.78121 0.83154 0.81146 0.0
C438 C 0.78228 0.78191 0.94195 0.0
C439 C 0.76363 0.81558 0.94198 0.0
C440 C 0.80132 0.77251 0.92012 0.0
C441 C 0.80395 0.798 0.89796 0.0
C442 C 0.78373 0.83041 0.89792 0.0
C443 C 0.76362 0.83883 0.91955 0.0
C444 C 0.82819 0.792 0.87488 0.0
C445 C 0.80227 0.78297 0.85228 0.0
C446 C 0.87641 0.7957 0.87472 0.0
C447 C 0.90753 0.80668 0.89746 0.0
C448 C 0.91742 0.8477 0.9129 0.0
C449 C 0.94706 0.85756 0.93409 0.0
C450 C 0.96781 0.82736 0.93989 0.0
C451 C 0.95872 0.78692 0.92458 0.0
C452 C 0.92872 0.77652 0.9035 0.0
C453 C 0.9213 0.80983 0.76348 0.0
C454 C 0.94407 0.78007 0.76053 0.0
C455 C 0.8989 0.81107 0.7858 0.0
C456 C 0.89657 0.78097 0.80589 0.0
C457 C 0.91934 0.75093 0.80316 0.0
C458 C 0.94309 0.75069 0.78077 0.0
C459 C 0.87095 0.7818 0.82957 0.0
C460 C 0.89675 0.79031 0.85216 0.0
C461 C 0.82258 0.77757 0.82984 0.0
C462 C 0.79207 0.76727 0.80697 0.0
C463 C 0.78164 0.72582 0.79179 0.0
C464 C 0.75509 0.71796 0.76965 0.0
C465 C 0.73846 0.75108 0.76258 0.0
C466 C 0.74786 0.79184 0.77776 0.0
C467 C 0.77417 0.79972 0.79996 0.0
H468 H 0.71815 0.74506 0.74538 0.0
H469 H 0.99103 0.83538 0.95622 0.0
H470 H 0.02492 0.8796 0.28693 0.0
H471 H 0.06821 0.90066 0.247 0.0
H472 H 0.96479 0.751 0.22024 0.0
H473 H 0.92049 0.72987 0.26028 0.0
H474 H 0.06906 0.78882 0.20637 0.0
H475 H 0.94339 0.83934 0.20606 0.0
H476 H 0.89997 0.88394 0.22087 0.0
H477 H 0.03539 0.02604 0.21036 0.0
H478 H 0.08021 0.98252 0.19667 0.0
H479 H 0.10229 0.91968 0.07712 0.0
H480 H 0.05588 0.87796 0.11475 0.0
H481 H 0.19531 0.91381 0.15094 0.0
H482 H 0.24217 0.95609 0.11322 0.0
H483 H 0.06703 0.92588 0.1585 0.0
H484 H 0.16592 0.82122 0.1964 0.0
H485 H 0.20891 0.77689 0.18065 0.0
H486 H 0.12385 0.74187 0.1132 0.0
H487 H 0.07988 0.78537 0.12868 0.0
C488 C 0.01182 0.8508 0.27272 0.0
C489 C 0.96928 0.80299 0.27674 0.0
C490 C 0.0365 0.86303 0.24984 0.0
C491 C 0.01953 0.82758 0.23055 0.0
C492 C 0.97854 0.77894 0.23488 0.0
C493 C 0.95325 0.7669 0.25772 0.0
C494 C 0.04311 0.84242 0.20558 0.0
C495 C 0.06867 0.81881 0.1959 0.0
C496 C 0.04224 0.8813 0.19178 0.0
C497 C 0.01536 0.90749 0.20063 0.0
C498 C 0.96414 0.88006 0.20735 0.0
C499 C 0.93924 0.90521 0.21553 0.0
C500 C 0.96495 0.95784 0.21669 0.0
C501 C 0.01557 0.98538 0.20969 0.0
C502 C 0.04079 0.96046 0.20179 0.0
C503 C 0.12304 0.91765 0.09287 0.0
C504 C 0.17593 0.94109 0.09216 0.0
C505 C 0.09644 0.89403 0.11445 0.0
C506 C 0.122 0.89272 0.13573 0.0
C507 C 0.17466 0.91387 0.1347 0.0
C508 C 0.20141 0.93793 0.11311 0.0
C509 C 0.09393 0.8731 0.15945 0.0
C510 C 0.06755 0.89594 0.16895 0.0
C511 C 0.09416 0.8337 0.17303 0.0
C512 C 0.12 0.80702 0.16362 0.0
C513 C 0.15628 0.80391 0.17825 0.0
C514 C 0.18083 0.77895 0.16936 0.0
C515 C 0.16924 0.75672 0.14591 0.0
C516 C 0.13295 0.75928 0.13132 0.0
C517 C 0.10827 0.78417 0.14013 0.0
H518 H 0.1883 0.73743 0.13906 0.0
H519 H 0.94564 0.97729 0.22298 0.0
H520 H 0.25772 0.94435 0.60513 0.0
H521 H 0.27941 0.98712 0.56488 0.0
H522 H 0.24061 0.09554 0.59256 0.0
H523 H 0.21829 0.05257 0.63255 0.0
H524 H 0.19141 0.05405 0.55128 0.0
H525 H 0.36363 0.12811 0.57798 0.0
H526 H 0.43889 0.12756 0.59371 0.0
H527 H 0.43727 0.04165 0.53051 0.0
H528 H 0.36156 0.0411 0.51456 0.0
H529 H 0.32101 0.24592 0.45235 0.0
H530 H 0.32284 0.20497 0.49107 0.0
H531 H 0.23281 0.05914 0.45727 0.0
H532 H 0.22922 0.09962 0.41885 0.0
H533 H 0.34669 0.11731 0.50078 0.0
H534 H 0.1597 0.02881 0.48074 0.0
H535 H 0.08061 0.02634 0.46945 0.0
H536 H 0.10792 0.13768 0.52488 0.0
H537 H 0.18888 0.14311 0.53539 0.0
C538 C 0.25513 0.97811 0.6028 0.0
C539 C 0.23622 -0.00493 0.62199 0.0
C540 C 0.26755 0.00257 0.57976 0.0
C541 C 0.26158 0.04461 0.57557 0.0
C542 C 0.24537 0.0631 0.59524 0.0
C543 C 0.23284 0.03865 0.61816 0.0
C544 C 0.26695 0.06623 0.55025 0.0
C545 C 0.22558 0.06806 0.54035 0.0
C546 C 0.31106 0.08373 0.53566 0.0
C547 C 0.35663 0.08414 0.5452 0.0
C548 C 0.37907 0.10873 0.56754 0.0
C549 C 0.42187 0.1087 0.57647 0.0
C550 C 0.44277 0.08447 0.56315 0.0
C551 C 0.421 0.06035 0.54083 0.0
C552 C 0.37818 0.06024 0.53182 0.0
C553 C 0.30239 0.20513 0.45301 0.0
C554 C 0.27422 0.17602 0.43267 0.0
C555 C 0.30319 0.18176 0.47521 0.0
C556 C 0.2759 0.12898 0.47743 0.0
C557 C 0.25202 0.0999 0.45638 0.0
C558 C 0.25078 0.12316 0.43427 0.0
C559 C 0.271 0.10475 0.50194 0.0
C560 C 0.31252 0.10283 0.51172 0.0
C561 C 0.22686 0.08682 0.51653 0.0
C562 C 0.18142 0.08789 0.5081 0.0
C563 C 0.14997 0.05432 0.48978 0.0
C564 C 0.10448 0.05197 0.48371 0.0
C565 C 0.08926 0.08187 0.4964 0.0
C566 C 0.1198 0.11464 0.515 0.0
C567 C 0.1658 0.11784 0.52078 0.0
H568 H 0.05379 0.07963 0.49183 0.0
H569 H 0.47591 0.08449 0.5701 0.0
H570 H 0.38611 0.08833 0.07023 0.0
H571 H 0.44617 0.05881 0.07916 0.0
H572 H 0.47027 0.05293 1.00083 0.0
H573 H 0.41259 0.08391 0.99209 0.0
H574 H 0.45773 0.9795 0.06874 0.0
H575 H 0.58872 0.0957 0.98702 0.0
H576 H 0.61298 0.17509 0.96493 0.0
H577 H 0.57545 0.23291 0.02893 0.0
H578 H 0.55166 0.1542 0.05153 0.0
H579 H 0.60645 0.87913 0.02797 0.0
H580 H 0.55046 0.91234 0.03577 0.0
H581 H 0.67868 0.05799 0.05303 0.0
H582 H 0.73543 0.02522 0.04356 0.0
H583 H 0.62274 0.0736 0.02589 0.0
H584 H 0.58551 0.97359 0.09781 0.0
H585 H 0.56371 0.89815 0.12283 0.0
H586 H 0.42097 0.81682 0.08592 0.0
H587 H 0.44219 0.89128 0.06021 0.0
C588 C 0.40386 0.07998 0.05504 0.0
C589 C 0.39542 0.08899 0.0305 0.0
C590 C 0.4382 0.06328 0.06011 0.0
C591 C 0.464 0.05509 0.04068 0.0
C592 C 0.45227 0.06052 1.01619 0.0
C593 C 0.41899 0.07792 1.01119 0.0
C594 C 0.50464 0.0428 0.04543 0.0
C595 C 0.49398 0.00017 0.05955 0.0
C596 C 0.55277 0.07089 0.03422 0.0
C597 C 0.56817 0.11889 1.02093 0.0
C598 C 0.586 0.1255 0.99645 0.0
C599 C 0.59958 0.17035 0.98382 0.0
C600 C 0.59568 0.20898 0.99551 0.0
C601 C 0.57835 0.20292 1.01988 0.0
C602 C 0.56478 0.15817 0.0326 0.0
C603 C 0.62283 0.91813 0.03371 0.0
C604 C 0.67543 0.94963 0.03507 0.0
C605 C 0.59057 0.93705 0.03845 0.0
C606 C 0.60987 0.98762 0.0455 0.0
C607 C 0.66256 0.01881 0.04768 0.0
C608 C 0.69505 9e-05 0.04236 0.0
C609 C 0.57522 0.00859 0.04828 0.0
C610 C 0.587 0.05312 0.03553 0.0
C611 C 0.52878 0.98292 0.06135 0.0
C612 C 0.51559 0.9381 0.07698 0.0
C613 C 0.54957 0.93956 0.0949 0.0
C614 C 0.53732 0.89696 0.10923 0.0
C615 C 0.49103 0.85278 0.106 0.0
C616 C 0.45682 0.85109 0.08843 0.0
C617 C 0.46892 0.8935 0.07397 0.0
H618 H 0.48167 0.81986 0.11713 0.0
H619 H 0.60612 0.24364 0.98568 0.0
H620 H 0.34479 0.33269 0.36562 0.0
H621 H 0.43478 0.39593 0.369 0.0
H622 H 0.39741 0.51421 0.37231 0.0
H623 H 0.30795 0.4515 0.36876 0.0
H624 H 0.47027 0.53511 0.33864 0.0
H625 H 0.43736 0.47883 0.42345 0.0
H626 H 0.40763 0.41479 0.4565 0.0
H627 H 0.51674 0.37319 0.43468 0.0
H628 H 0.54662 0.43648 0.40124 0.0
H629 H 0.70975 0.7421 0.36481 0.0
H630 H 0.62108 0.67722 0.37013 0.0
H631 H 0.66274 0.56189 0.36995 0.0
H632 H 0.75143 0.62665 0.36516 0.0
H633 H 0.58818 0.53803 0.40235 0.0
H634 H 0.62014 0.58994 0.31769 0.0
H635 H 0.64936 0.65009 0.28289 0.0
H636 H 0.54194 0.69545 0.30236 0.0
H637 H 0.51266 0.63621 0.33756 0.0
C638 C 0.35585 0.37215 0.36737 0.0
C639 C 0.3194 0.38721 0.36681 0.0
C640 C 0.40724 0.40825 0.36934 0.0
C641 C 0.42293 0.45993 0.37092 0.0
C642 C 0.38632 0.47467 0.371 0.0
C643 C 0.33515 0.43874 0.36905 0.0
C644 C 0.47742 0.49906 0.37134 0.0
C645 C 0.49585 0.53616 0.35281 0.0
C646 C 0.51125 0.49954 0.38933 0.0
C647 C 0.49391 0.46209 0.4097 0.0
C648 C 0.45479 0.4558 0.4256 0.0
C649 C 0.43793 0.41966 0.44441 0.0
C650 C 0.46018 0.38985 0.44765 0.0
C651 C 0.49949 0.39626 0.43213 0.0
C652 C 0.51643 0.4323 0.41326 0.0
C653 C 0.70004 0.70298 0.36626 0.0
C654 C 0.73743 0.68939 0.36427 0.0
C655 C 0.64934 0.66588 0.3692 0.0
C656 C 0.63503 0.61448 0.36996 0.0
C657 C 0.67271 0.60117 0.36932 0.0
C658 C 0.72341 0.63825 0.36649 0.0
C659 C 0.58077 0.57455 0.36987 0.0
C660 C 0.5625 0.53715 0.3883 0.0
C661 C 0.54704 0.57333 0.3516 0.0
C662 C 0.56452 0.60896 0.33041 0.0
C663 C 0.60302 0.61303 0.31468 0.0
C664 C 0.61958 0.64693 0.29487 0.0
C665 C 0.59753 0.67657 0.29044 0.0
C666 C 0.55898 0.67247 0.30583 0.0
C667 C 0.54238 0.63874 0.32571 0.0
H668 H 0.61015 0.70253 0.27503 0.0
H669 H 0.44703 0.36184 0.4622 0.0
H670 H 0.00721 0.35255 0.64621 0.0
H671 H 0.04232 0.44371 0.65069 0.0
H672 H 0.07775 0.4345 0.72711 0.0
H673 H 0.04217 0.34335 0.72275 0.0
H674 H 0.0294 0.4861 0.72267 0.0
H675 H 0.16799 0.4851 0.6842 0.0
H676 H 0.21212 0.46279 0.65293 0.0
H677 H 0.17863 0.54163 0.5973 0.0
H678 H 0.1322 0.56244 0.62794 0.0
H679 H 0.20599 0.77609 0.699 0.0
H680 H 0.19289 0.6903 0.70161 0.0
H681 H 0.03356 0.62908 0.68928 0.0
H682 H 0.04631 0.71432 0.68696 0.0
H683 H 0.15683 0.61624 0.66694 0.0
H684 H 0.96779 0.52182 0.72134 0.0
H685 H 0.92574 0.54481 0.75354 0.0
H686 H 0.06969 0.65986 0.78057 0.0
H687 H 0.11263 0.63705 0.7488 0.0
C688 C 0.02295 0.37016 0.66386 0.0
C689 C 0.02191 0.34111 0.68416 0.0
C690 C 0.04315 0.42217 0.66639 0.0
C691 C 0.06281 0.44586 0.68922 0.0
C692 C 0.06273 0.41692 0.70935 0.0
C693 C 0.04261 0.36497 0.70681 0.0
C694 C 0.08079 0.50029 0.69246 0.0
C695 C 0.05749 0.51458 0.71058 0.0
C696 C 0.11817 0.5375 0.67697 0.0
C697 C 0.14607 0.52494 0.6584 0.0
C698 C 0.16934 0.49709 0.66523 0.0
C699 C 0.1947 0.48459 0.64759 0.0
C700 C 0.19785 0.50045 0.6231 0.0
C701 C 0.17577 0.52897 0.61623 0.0
C702 C 0.14978 0.54101 0.63372 0.0
C703 C 0.16817 0.74423 0.69708 0.0
C704 C 0.12715 0.75168 0.69276 0.0
C705 C 0.16079 0.69538 0.69847 0.0
C706 C 0.11225 0.65341 0.6958 0.0
C707 C 0.07124 0.66094 0.69173 0.0
C708 C 0.07858 0.70963 0.69033 0.0
C709 C 0.10414 0.60153 0.69655 0.0
C710 C 0.12921 0.58773 0.67919 0.0
C711 C 0.06889 0.56479 0.71293 0.0
C712 C 0.0434 0.57791 0.73255 0.0
C713 C 0.99049 0.55178 0.73426 0.0
C714 C 0.96649 0.56484 0.75242 0.0
C715 C -0.00498 0.60386 0.76905 0.0
C716 C 0.04763 0.62974 0.76763 0.0
C717 C 0.07181 0.61679 0.74954 0.0
H718 H 0.97636 0.61398 0.78305 0.0
H719 H 0.21758 0.49083 0.60947 0.0
H720 H 0.37513 0.18493 0.10168 0.0
H721 H 0.37127 0.19592 0.14637 0.0
H722 H 0.23565 0.20384 0.13649 0.0
H723 H 0.23937 0.19214 0.09174 0.0
H724 H 0.37183 0.26055 0.17786 0.0
H725 H 0.15273 0.13925 0.18292 0.0
H726 H 0.08246 0.0683 0.16094 0.0
H727 H 0.18398 0.02171 0.13289 0.0
H728 H 0.25459 0.09163 0.15523 0.0
H729 H 0.27914 0.30006 0.28845 0.0
H730 H 0.30058 0.28879 0.24654 0.0
H731 H 0.24745 0.13171 0.26176 0.0
H732 H 0.22444 0.14301 0.30415 0.0
H733 H 0.21125 0.13973 0.2191 0.0
H734 H 0.37552 0.21805 0.2526 0.0
H735 H 0.44918 0.27996 0.27655 0.0
H736 H 0.46441 0.39886 0.22887 0.0
H737 H 0.3904 0.3378 0.20482 0.0
C738 C 0.34588 0.19141 0.10898 0.0
C739 C 0.30842 0.18928 0.09325 0.0
C740 C 0.34325 0.19697 0.13456 0.0
C741 C 0.30259 0.19968 0.14495 0.0
C742 C 0.26694 0.20097 0.12901 0.0
C743 C 0.26964 0.19542 0.10339 0.0
C744 C 0.29636 0.19875 0.17239 0.0
C745 C 0.33667 0.2342 0.18684 0.0
C746 C 0.25121 0.16297 0.18436 0.0
C747 C 0.20903 0.12101 0.17063 0.0
C748 C 0.15999 0.11371 0.1722 0.0
C749 C 0.12011 0.07367 0.15965 0.0
C750 C 0.12881 0.04063 0.14544 0.0
C751 C 0.17735 0.04742 0.14384 0.0
C752 C 0.21732 0.08729 0.15643 0.0
C753 C 0.27326 0.26337 0.28309 0.0
C754 C 0.25082 0.22255 0.29961 0.0
C755 C 0.2856 0.25695 0.25907 0.0
C756 C 0.27637 0.20956 0.2509 0.0
C757 C 0.25525 0.16876 0.26764 0.0
C758 C 0.24273 0.17526 0.29192 0.0
C759 C 0.28603 0.20298 0.22443 0.0
C760 C 0.24645 0.16604 0.21013 0.0
C761 C 0.33239 0.23636 0.21267 0.0
C762 C 0.37718 0.27332 0.22698 0.0
C763 C 0.39437 0.25745 0.2473 0.0
C764 C 0.43622 0.29239 0.26089 0.0
C765 C 0.46141 0.34332 0.25426 0.0
C766 C 0.44486 0.35939 0.23399 0.0
C767 C 0.40301 0.32461 0.22034 0.0
H768 H 0.49379 0.37032 0.26481 0.0
H769 H 0.09793 0.00973 0.13568 0.0
H770 H 0.241 0.36071 0.44086 0.0
H771 H 0.21935 0.36372 0.48399 0.0
H772 H 0.06174 0.28899 0.46482 0.0
H773 H 0.08331 0.28581 0.42124 0.0
H774 H 0.10427 0.36731 0.51176 0.0
H775 H 0.07833 0.20859 0.47725 0.0
H776 H 0.10545 0.16335 0.44899 0.0
H777 H 0.24679 0.22546 0.48751 0.0
H778 H 0.22089 0.2716 0.51545 0.0
H779 H 0.03624 0.17038 0.6174 0.0
H780 H 0.05614 0.19531 0.5744 0.0
H781 H 0.14854 0.3508 0.59667 0.0
H782 H 0.12702 0.32597 0.64017 0.0
H783 H 0.13338 0.23431 0.54706 0.0
H784 H 0.14038 0.42813 0.55055 0.0
H785 H 0.1058 0.47093 0.57577 0.0
H786 H 0.98351 0.32768 0.59912 0.0
H787 H 0.0161 0.28395 0.57328 0.0
C788 C 0.20183 0.34676 0.44559 0.0
C789 C 0.16379 0.32252 0.42771 0.0
C790 C 0.18955 0.34886 0.47028 0.0
C791 C 0.13897 0.32648 0.47767 0.0
C792 C 0.10107 0.30706 0.45947 0.0
C793 C 0.11342 0.30514 0.43457 0.0
C794 C 0.12644 0.31222 0.50411 0.0
C795 C 0.11049 0.33831 0.51962 0.0
C796 C 0.13336 0.2736 0.51419 0.0
C797 C 0.14787 0.24365 0.49829 0.0
C798 C 0.11533 0.2127 0.47951 0.0
C799 C 0.13058 0.18712 0.46344 0.0
C800 C 0.17798 0.19167 0.46627 0.0
C801 C 0.21025 0.22198 0.4851 0.0
C802 C 0.19528 0.24781 0.50112 0.0
C803 C 0.06144 0.20989 0.61329 0.0
C804 C 0.07992 0.24619 0.63231 0.0
C805 C 0.07281 0.22414 0.58857 0.0
C806 C 0.10311 0.2751 0.58208 0.0
C807 C 0.12421 0.31132 0.6011 0.0
C808 C 0.11255 0.29701 0.62602 0.0
C809 C 0.11125 0.2895 0.55535 0.0
C810 C 0.12676 0.26336 0.53957 0.0
C811 C 0.10187 0.32679 0.5451 0.0
C812 C 0.08125 0.35277 0.56027 0.0
C813 C 0.10601 0.40574 0.56098 0.0
C814 C 0.08676 0.43018 0.57541 0.0
C815 C 0.04292 0.40209 0.58932 0.0
C816 C 0.01773 0.34944 0.58851 0.0
C817 C 0.03649 0.32479 0.57391 0.0
H818 H 0.0283 0.42113 0.6006 0.0
H819 H 0.18917 0.17102 0.45411 0.0
H820 H 0.85305 0.11326 0.75434 0.0
H821 H 0.82697 0.09111 0.7975 0.0
H822 H 0.92834 0.24527 0.81929 0.0
H823 H 0.95614 0.26679 0.77654 0.0
H824 H 0.94903 0.18473 0.84384 0.0
H825 H 0.79544 0.18603 0.82572 0.0
H826 H 0.71745 0.16197 0.80237 0.0
H827 H 0.6623 0.00597 0.81933 0.0
H828 H 0.74021 0.02904 0.84253 0.0
H829 H 0.8604 0.11595 0.97462 0.0
H830 H 0.87907 0.161 0.9347 0.0
H831 H 0.82717 0.02057 0.89586 0.0
H832 H 0.80849 0.97583 0.9347 0.0
H833 H 0.7807 0.0844 0.88258 0.0
H834 H 0.96139 0.099 0.86956 0.0
H835 H 0.04655 0.12457 0.88531 0.0
H836 H 0.04801 0.24574 0.92611 0.0
H837 H 0.96284 0.22072 0.91056 0.0
C838 C 0.86857 0.1427 0.76824 0.0
C839 C 0.90739 0.19147 0.76215 0.0
C840 C 0.85355 0.13004 0.79296 0.0
C841 C 0.876 0.16647 0.81178 0.0
C842 C 0.91088 0.21637 0.8052 0.0
C843 C 0.92657 0.22869 0.78069 0.0
C844 C 0.86889 0.15172 0.83836 0.0
C845 C 0.91209 0.16386 0.8524 0.0
C846 C 0.82086 0.12315 0.84948 0.0
C847 C 0.77376 0.10928 0.83577 0.0
C848 C 0.76678 0.14658 0.82436 0.0
C849 C 0.72257 0.13312 0.81117 0.0
C850 C 0.68497 0.08247 0.80935 0.0
C851 C 0.69144 0.04519 0.82077 0.0
C852 C 0.73558 0.05845 0.83398 0.0
C853 C 0.85311 0.09484 0.95757 0.0
C854 C 0.83212 0.04211 0.95806 0.0
C855 C 0.86411 0.12061 0.9348 0.0
C856 C 0.85437 0.09394 0.91236 0.0
C857 C 0.83479 0.04181 0.91292 0.0
C858 C 0.82393 0.01629 0.93536 0.0
C859 C 0.86088 0.11858 0.88797 0.0
C860 C 0.81752 0.10702 0.87415 0.0
C861 C 0.90863 0.14728 0.87686 0.0
C862 C 0.95572 0.1576 0.88926 0.0
C863 C 0.97964 0.13054 0.88225 0.0
C864 C 0.02803 0.1452 0.89093 0.0
C865 C 0.05279 0.18693 0.90657 0.0
C866 C 0.02878 0.21343 0.91399 0.0
C867 C 0.98035 0.19886 0.90537 0.0
H868 H 0.0905 0.19857 0.91303 0.0
H869 H 0.65079 0.07213 0.79911 0.0
H870 H 0.67637 0.82648 0.08498 0.0
H871 H 0.66215 0.80478 0.12923 0.0
H872 H 0.82039 0.85537 0.13818 0.0
H873 H 0.83434 0.87688 0.09426 0.0
H874 H 0.7628 0.7738 0.16717 0.0
H875 H 0.77315 0.93166 0.14499 0.0
H876 H 0.74451 0.98389 0.12364 0.0
H877 H 0.60525 0.91077 0.16404 0.0
H878 H 0.63144 0.85557 0.18438 0.0
H879 H 0.8546 0.8974 0.2792 0.0
H880 H 0.82723 0.89395 0.23658 0.0
H881 H 0.67624 0.78106 0.25703 0.0
H882 H 0.7044 0.78344 0.30011 0.0
H883 H 0.71104 0.87941 0.21458 0.0
H884 H 0.70394 0.72152 0.23771 0.0
H885 H 0.73802 0.67457 0.25967 0.0
H886 H 0.87582 0.75361 0.21838 0.0
H887 H 0.84325 0.8024 0.19681 0.0
C888 C 0.70746 0.83061 0.09623 0.0
C889 C 0.75623 0.85227 0.08621 0.0
C890 C 0.69951 0.81891 0.12155 0.0
C891 C 0.74033 0.82896 0.13711 0.0
C892 C 0.78828 0.84704 0.12659 0.0
C893 C 0.79621 0.85902 0.10145 0.0
C894 C 0.73511 0.82588 0.16455 0.0
C895 C 0.7507 0.79632 0.17747 0.0
C896 C 0.7193 0.85526 0.17815 0.0
C897 C 0.70384 0.8887 0.16585 0.0
C898 C 0.73604 0.92604 0.14901 0.0
C899 C 0.72027 0.95625 0.13708 0.0
C900 C 0.67315 0.95073 0.14246 0.0
C901 C 0.64159 0.9148 0.15972 0.0
C902 C 0.65669 0.88374 0.17131 0.0
C903 C 0.81533 0.87293 0.27479 0.0
C904 C 0.78181 0.84059 0.29283 0.0
C905 C 0.79969 0.87094 0.25043 0.0
C906 C 0.74998 0.83657 0.24362 0.0
C907 C 0.71487 0.80759 0.26203 0.0
C908 C 0.73081 0.8093 0.2866 0.0
C909 C 0.73794 0.82685 0.21693 0.0
C910 C 0.72064 0.85505 0.20419 0.0
C911 C 0.75221 0.79635 0.20343 0.0
C912 C 0.77156 0.76643 0.21605 0.0
C913 C 0.74188 0.7296 0.23365 0.0
C914 C 0.76091 0.7026 0.24601 0.0
C915 C 0.80931 0.71151 0.24062 0.0
C916 C 0.83862 0.74722 0.22276 0.0
C917 C 0.81991 0.7746 0.21049 0.0
H918 H 0.82392 0.69046 0.25015 0.0
H919 H 0.66115 0.97434 0.13328 0.0
H920 H 0.83353 0.75269 0.43628 0.0
H921 H 0.85936 0.74411 0.47763 0.0
H922 H 0.00439 0.77705 0.44951 0.0
H923 H 0.97888 0.78673 0.40747 0.0
H924 H 0.94132 0.6916 0.49485 0.0
H925 H 0.02558 0.86921 0.46822 0.0
H926 H 0.02399 0.93963 0.44696 0.0
H927 H 0.90382 0.92232 0.4943 0.0
H928 H 0.90414 0.85115 0.51566 0.0
H929 H 0.09517 0.86725 0.60236 0.0
H930 H 0.06555 0.84809 0.56026 0.0
H931 H 0.92629 0.72039 0.58514 0.0
H932 H 0.95618 0.73949 0.62836 0.0
H933 H 0.98563 0.84905 0.54068 0.0
H934 H 0.88702 0.63308 0.53424 0.0
H935 H 0.88871 0.56173 0.55447 0.0
H936 H 0.04466 0.65818 0.57316 0.0
H937 H 0.04405 0.72987 0.55276 0.0
C938 C 0.87068 0.75715 0.43866 0.0
C939 C 0.90459 0.77131 0.41866 0.0
C940 C 0.88513 0.75179 0.46234 0.0
C941 C 0.9337 0.76011 0.46661 0.0
C942 C 0.96652 0.77016 0.44645 0.0
C943 C 0.95201 0.77573 0.42251 0.0
C944 C 0.95173 0.76639 0.49247 0.0
C945 C 0.95144 0.72606 0.50491 0.0
C946 C 0.9641 0.81107 0.50558 0.0
C947 C 0.96453 0.85457 0.49331 0.0
C948 C -0.00145 0.88018 0.47397 0.0
C949 C -0.00207 0.92026 0.46195 0.0
C950 C 0.96378 0.93542 0.4693 0.0
C951 C 0.93024 0.91054 0.48871 0.0
C952 C 0.93063 0.87033 0.50077 0.0
C953 C 0.05808 0.83493 0.59921 0.0
C954 C 0.02784 0.80512 0.61899 0.0
C955 C 0.04126 0.82407 0.57492 0.0
C956 C -0.00628 0.78301 0.56947 0.0
C957 C 0.96332 0.75223 0.58895 0.0
C958 C 0.98032 0.7632 0.61361 0.0
C959 C 0.9766 0.77465 0.54328 0.0
C960 C 0.97603 0.81455 0.53076 0.0
C961 C 0.9642 0.72981 0.53018 0.0
C962 C 0.96527 0.68692 0.54223 0.0
C963 C 0.92169 0.63899 0.54261 0.0
C964 C 0.92246 0.5985 0.55411 0.0
C965 C 0.96671 0.60546 0.56518 0.0
C966 C 0.01035 0.65288 0.56468 0.0
C967 C 0.00978 0.69347 0.55318 0.0
H968 H 0.96722 0.57408 0.57409 0.0
H969 H 0.96338 0.96649 0.45999 0.0
H970 H 0.14537 0.82254 0.7703 0.0
H971 H 0.16871 0.84143 0.81398 0.0
H972 H 0.22476 -0.00064 0.80004 0.0
H973 H 0.2029 0.98084 0.75604 0.0
H974 H 0.26624 0.91606 0.83858 0.0
H975 H 0.15984 0.02663 0.84896 0.0
H976 H 0.09017 0.0314 0.82879 0.0
H977 H 0.02468 0.87709 0.80548 0.0
H978 H 0.09321 0.87102 0.82608 0.0
H979 H 0.32988 0.07796 0.94328 0.0
H980 H 0.30998 0.0392 0.90218 0.0
H981 H 0.16909 0.91797 0.92985 0.0
H982 H 0.18975 0.95611 0.97143 0.0
H983 H 0.16325 0.97108 0.88592 0.0
H984 H 0.24829 0.88605 0.9156 0.0
H985 H 0.3176 0.88044 0.93562 0.0
H986 H 0.42048 0.97642 0.87968 0.0
H987 H 0.35192 0.98324 0.85952 0.0
C988 C 0.16382 0.86143 0.77647 0.0
C989 C 0.17253 0.90034 0.75992 0.0
C990 C 0.17713 0.87211 0.80135 0.0
C991 C 0.19799 0.92163 0.81013 0.0
C992 C 0.20858 0.96088 0.79348 0.0
C993 C 0.19639 0.95036 0.76842 0.0
C994 C 0.20516 0.93167 0.83698 0.0
C995 C 0.24363 0.92786 0.849 0.0
C996 C 0.17473 0.94595 0.85051 0.0
C997 C 0.13233 0.94872 0.83871 0.0
C998 C 0.13055 0.99369 0.8396 0.0
C999 C 0.09123 -0.00339 0.82808 0.0
C1000 C 0.05331 0.95474 0.81563 0.0
C1001 C 0.05437 0.90967 0.81489 0.0
C1002 C 0.0935 0.9065 0.82649 0.0
C1003 C 0.29529 0.04232 0.94071 0.0
C1004 C 0.26158 0.01955 0.96046 0.0
C1005 C 0.28393 0.02034 0.91727 0.0
C1006 C 0.23815 0.97578 0.91305 0.0
C1007 C 0.20471 0.9523 0.93285 0.0
C1008 C 0.2167 0.97374 0.95655 0.0
C1009 C 0.22458 0.95585 0.88756 0.0
C1010 C 0.18512 0.95821 0.87566 0.0
C1011 C 0.25372 0.93974 0.8742 0.0
C1012 C 0.29501 0.93544 0.88615 0.0
C1013 C 0.28578 0.90629 0.90767 0.0
C1014 C 0.32492 0.90283 0.91903 0.0
C1015 C 0.37344 0.92813 0.90895 0.0
C1016 C 0.38288 0.95685 0.88747 0.0
C1017 C 0.34387 0.96047 0.87605 0.0
H1018 H 0.4037 0.92542 0.91778 0.0
H1019 H 0.02287 0.95706 0.80676 0.0
loop_
_geom_bond_atom_site_label_1
_geom_bond_atom_site_label_2
_geom_bond_distance
_geom_bond_site_symmetry_2
_ccdc_geom_bond_type
Dy0 O4 2.398 1_545 S
Dy0 O5 2.491 . S
Dy0 O6 2.403 . S
Dy0 O7 2.664 1_554 S
Dy0 O11 2.326 . S
Dy0 O15 2.310 . S
Dy0 O16 2.351 1_544 S
C1 O12 1.185 . S
C1 O13 1.355 . S
C2 O4 1.185 . S
C2 O5 1.355 1_565 S
Dy3 O7 2.310 . S
Dy3 O10 2.351 1_556 S
Dy3 O12 2.398 . S
Dy3 O13 2.491 . S
Dy3 O14 2.403 . S
Dy3 O15 2.664 1_556 S
Dy3 O17 2.326 . S
O4 Dy0 2.398 1_565 S
O4 C2 1.185 . S
O5 Dy0 2.491 . S
O5 C2 1.355 1_545 S
O6 Dy0 2.403 . S
O6 C8 1.254 . S
O7 Dy0 2.664 1_556 S
O7 Dy3 2.310 . S
O7 C8 1.268 1_556 S
C8 O6 1.254 . S
C8 O7 1.268 1_554 S
C9 O14 1.227 1_554 S
C9 O15 1.283 . S
O10 Dy3 2.351 1_554 S
O10 C18 1.249 . S
O11 Dy0 2.326 . S
O11 C18 1.267 . S
O12 C1 1.185 . S
O12 Dy3 2.398 . S
O13 C1 1.355 . S
O13 Dy3 2.491 . S
O14 Dy3 2.403 . S
O14 C9 1.227 1_556 S
O15 Dy0 2.310 . S
O15 Dy3 2.664 1_554 S
O15 C9 1.283 . S
O16 Dy0 2.351 1_566 S
O16 C19 1.249 1_565 S
O17 Dy3 2.326 . S
O17 C19 1.267 . S
C18 O10 1.249 . S
C18 O11 1.267 . S
C19 O16 1.249 1_545 S
C19 O17 1.267 . S
Dy20 O24 2.398 . S
Dy20 O25 2.491 . S
Dy20 O26 2.403 . S
Dy20 O27 2.664 . S
Dy20 O31 2.326 . S
Dy20 O35 2.310 . S
Dy20 O36 2.351 . S
C21 O32 1.185 . S
C21 O33 1.355 . S
C22 O24 1.185 . S
C22 O25 1.355 . S
Dy23 O27 2.310 . S
Dy23 O30 2.351 . S
Dy23 O32 2.398 . S
Dy23 O33 2.491 . S
Dy23 O34 2.403 . S
Dy23 O35 2.664 . S
Dy23 O37 2.326 . S
O24 Dy20 2.398 . S
O24 C22 1.185 . S
O25 Dy20 2.491 . S
O25 C22 1.355 . S
O26 Dy20 2.403 . S
O26 C28 1.254 . S
O27 Dy20 2.664 . S
O27 Dy23 2.310 . S
O27 C28 1.268 . S
C28 O26 1.254 . S
C28 O27 1.268 . S
C29 O34 1.254 . S
C29 O35 1.268 . S
O30 Dy23 2.351 . S
O30 C38 1.249 . S
O31 Dy20 2.326 . S
O31 C38 1.267 . S
O32 C21 1.185 . S
O32 Dy23 2.398 . S
O33 C21 1.355 . S
O33 Dy23 2.491 . S
O34 Dy23 2.403 . S
O34 C29 1.254 . S
O35 Dy20 2.310 . S
O35 Dy23 2.664 . S
O35 C29 1.268 . S
O36 Dy20 2.351 . S
O36 C39 1.249 . S
O37 Dy23 2.326 . S
O37 C39 1.267 . S
C38 O30 1.249 . S
C38 O31 1.267 . S
C39 O36 1.249 . S
C39 O37 1.267 . S
Dy40 O44 2.398 . S
Dy40 O45 2.491 . S
Dy40 O46 2.403 . S
Dy40 O47 2.664 1_455 S
Dy40 O51 2.326 1_455 S
Dy40 O55 2.310 . S
Dy40 O56 2.351 . S
C41 O52 1.185 . S
C41 O53 1.355 . S
C42 O44 1.185 . S
C42 O45 1.355 . S
Dy43 O47 2.310 . S
Dy43 O50 2.351 . S
Dy43 O52 2.398 . S
Dy43 O53 2.491 . S
Dy43 O54 2.403 . S
Dy43 O55 2.664 1_655 S
Dy43 O57 2.326 1_655 S
O44 Dy40 2.398 . S
O44 C42 1.185 . S
O45 Dy40 2.491 . S
O45 C42 1.355 . S
O46 Dy40 2.403 . S
O46 C48 1.254 . S
O47 Dy40 2.664 1_655 S
O47 Dy43 2.310 . S
O47 C48 1.268 1_655 S
C48 O46 1.254 . S
C48 O47 1.268 1_455 S
C49 O54 1.254 . S
C49 O55 1.268 1_655 S
O50 Dy43 2.351 . S
O50 C58 1.249 . S
O51 Dy40 2.326 1_655 S
O51 C58 1.267 . S
O52 C41 1.185 . S
O52 Dy43 2.398 . S
O53 C41 1.355 . S
O53 Dy43 2.491 . S
O54 Dy43 2.403 . S
O54 C49 1.254 . S
O55 Dy40 2.310 . S
O55 Dy43 2.664 1_455 S
O55 C49 1.268 1_455 S
O56 Dy40 2.351 . S
O56 C59 1.249 . S
O57 Dy43 2.326 1_455 S
O57 C59 1.267 . S
C58 O50 1.249 . S
C58 O51 1.267 . S
C59 O56 1.249 . S
C59 O57 1.267 . S
Dy60 O64 2.398 . S
Dy60 O65 2.491 . S
Dy60 O66 2.403 . S
Dy60 O67 2.664 1_544 S
Dy60 O71 2.326 1_545 S
Dy60 O75 2.310 . S
Dy60 O76 2.351 1_554 S
C61 O72 1.185 . S
C61 O73 1.355 . S
C62 O64 1.185 . S
C62 O65 1.355 . S
Dy63 O67 2.310 . S
Dy63 O70 2.351 1_556 S
Dy63 O72 2.398 . S
Dy63 O73 2.491 . S
Dy63 O74 2.403 . S
Dy63 O75 2.664 1_566 S
Dy63 O77 2.326 1_565 S
O64 Dy60 2.398 . S
O64 C62 1.185 . S
O65 Dy60 2.491 . S
O65 C62 1.355 . S
O66 Dy60 2.403 . S
O66 C68 1.254 . S
O67 Dy60 2.664 1_566 S
O67 Dy63 2.310 . S
O67 C68 1.268 1_566 S
C68 O66 1.254 . S
C68 O67 1.268 1_544 S
C69 O74 1.227 1_554 S
C69 O75 1.283 1_565 S
O70 Dy63 2.351 1_554 S
O70 C78 1.249 . S
O71 Dy60 2.326 1_565 S
O71 C78 1.267 . S
O72 C61 1.185 . S
O72 Dy63 2.398 . S
O73 C61 1.355 . S
O73 Dy63 2.491 . S
O74 Dy63 2.403 . S
O74 C69 1.227 1_556 S
O75 Dy60 2.310 . S
O75 Dy63 2.664 1_544 S
O75 C69 1.283 1_545 S
O76 Dy60 2.351 1_556 S
O76 C79 1.249 . S
O77 Dy63 2.326 1_545 S
O77 C79 1.267 . S
C78 O70 1.249 . S
C78 O71 1.267 . S
C79 O76 1.249 . S
C79 O77 1.267 . S
Dy80 O84 2.398 . S
Dy80 O85 2.491 . S
Dy80 O86 2.403 . S
Dy80 O87 2.664 . S
Dy80 O91 2.326 . S
Dy80 O95 2.310 . S
Dy80 O96 2.351 . S
C81 O92 1.185 . S
C81 O93 1.355 . S
C82 O84 1.185 . S
C82 O85 1.355 . S
Dy83 O87 2.310 . S
Dy83 O90 2.351 . S
Dy83 O92 2.398 . S
Dy83 O93 2.491 . S
Dy83 O94 2.403 . S
Dy83 O95 2.664 . S
Dy83 O97 2.326 . S
O84 Dy80 2.398 . S
O84 C82 1.185 . S
O85 Dy80 2.491 . S
O85 C82 1.355 . S
O86 Dy80 2.403 . S
O86 C88 1.254 . S
O87 Dy80 2.664 . S
O87 Dy83 2.310 . S
O87 C88 1.268 . S
C88 O86 1.254 . S
C88 O87 1.268 . S
C89 O94 1.254 . S
C89 O95 1.268 . S
O90 Dy83 2.351 . S
O90 C98 1.249 . S
O91 Dy80 2.326 . S
O91 C98 1.267 . S
O92 C81 1.185 . S
O92 Dy83 2.398 . S
O93 C81 1.355 . S
O93 Dy83 2.491 . S
O94 Dy83 2.403 . S
O94 C89 1.254 . S
O95 Dy80 2.310 . S
O95 Dy83 2.664 . S
O95 C89 1.268 . S
O96 Dy80 2.351 . S
O96 C99 1.249 . S
O97 Dy83 2.326 . S
O97 C99 1.267 . S
C98 O90 1.249 . S
C98 O91 1.267 . S
C99 O96 1.249 . S
C99 O97 1.267 . S
Dy100 O104 2.398 1_455 S
Dy100 O105 2.491 . S
Dy100 O106 2.403 . S
Dy100 O107 2.664 . S
Dy100 O111 2.326 . S
Dy100 O115 2.310 . S
Dy100 O116 2.351 1_455 S
C101 O112 1.185 . S
C101 O113 1.355 . S
C102 O104 1.185 . S
C102 O105 1.355 1_655 S
Dy103 O107 2.310 . S
Dy103 O110 2.351 . S
Dy103 O112 2.398 . S
Dy103 O113 2.491 . S
Dy103 O114 2.403 . S
Dy103 O115 2.664 . S
Dy103 O117 2.326 . S
O104 Dy100 2.398 1_655 S
O104 C102 1.185 . S
O105 Dy100 2.491 . S
O105 C102 1.355 1_455 S
O106 Dy100 2.403 . S
O106 C108 1.254 . S
O107 Dy100 2.664 . S
O107 Dy103 2.310 . S
O107 C108 1.268 . S
C108 O106 1.254 . S
C108 O107 1.268 . S
C109 O114 1.254 . S
C109 O115 1.268 . S
O110 Dy103 2.351 . S
O110 C118 1.249 . S
O111 Dy100 2.326 . S
O111 C118 1.267 . S
O112 C101 1.185 . S
O112 Dy103 2.398 . S
O113 C101 1.355 . S
O113 Dy103 2.491 . S
O114 Dy103 2.403 . S
O114 C109 1.254 . S
O115 Dy100 2.310 . S
O115 Dy103 2.664 . S
O115 C109 1.268 . S
O116 Dy100 2.351 1_655 S
O116 C119 1.249 1_655 S
O117 Dy103 2.326 . S
O117 C119 1.267 . S
C118 O110 1.249 . S
C118 O111 1.267 . S
C119 O116 1.249 1_455 S
C119 O117 1.267 . S
H120 C138 0.951 . S
H121 C140 0.951 . S
H122 C142 0.950 . S
H123 C143 0.950 . S
H124 C145 0.950 1_655 S
H125 C148 0.950 . S
H126 C149 0.950 . S
H127 C151 0.950 . S
H128 C152 0.950 . S
H129 C153 0.951 . S
H130 C155 0.951 . S
H131 C157 0.950 . S
H132 C158 0.950 . S
H133 C160 0.950 . S
H134 C163 0.950 . S
H135 C164 0.950 . S
H136 C166 0.950 . S
H137 C167 0.950 1_565 S
C138 H120 0.951 . S
C138 C139 1.366 1_545 S
C138 C140 1.388 . S
C139 C138 1.366 1_565 S
C139 C143 1.385 1_556 S
C140 H121 0.951 . S
C140 C138 1.388 . S
C140 C141 1.366 . S
C141 C140 1.366 . S
C141 C142 1.414 1_546 S
C141 C144 1.499 . S
C142 H122 0.950 . S
C142 C141 1.414 1_564 S
C142 C143 1.374 . S
C143 H123 0.950 . S
C143 C139 1.385 1_554 S
C143 C142 1.374 . S
C144 C141 1.499 . S
C144 C145 1.373 1_656 S
C144 C146 1.389 1_655 S
C145 H124 0.950 1_455 S
C145 C144 1.373 1_454 S
C145 C161 1.377 . S
C146 C144 1.389 1_455 S
C146 C147 1.524 1_455 S
C146 C160 1.377 . S
C147 C146 1.524 1_655 S
C147 C148 1.397 1_545 S
C147 C152 1.363 1_655 S
C148 H125 0.950 . S
C148 C147 1.397 1_565 S
C148 C149 1.334 . S
C149 H126 0.950 . S
C149 C148 1.334 . S
C149 C150 1.287 . S
C150 C149 1.287 . S
C150 C151 1.524 1_565 S
C150 H169 0.913 . S
C151 H127 0.950 . S
C151 C150 1.524 1_545 S
C151 C152 1.415 1_655 S
C152 H128 0.950 . S
C152 C147 1.363 1_455 S
C152 C151 1.415 1_455 S
C153 H129 0.951 . S
C153 C154 1.366 1_554 S
C153 C155 1.388 . S
C154 C153 1.366 1_556 S
C154 C158 1.385 . S
C155 H130 0.951 . S
C155 C153 1.388 . S
C155 C156 1.355 1_554 S
C156 C155 1.355 1_556 S
C156 C157 1.425 . S
C156 C159 1.498 . S
C157 H131 0.950 . S
C157 C156 1.425 . S
C157 C158 1.374 . S
C158 H132 0.950 . S
C158 C154 1.385 . S
C158 C157 1.374 . S
C159 C156 1.498 . S
C159 C160 1.410 . S
C159 C161 1.354 1_556 S
C160 H133 0.950 . S
C160 C146 1.377 . S
C160 C159 1.410 . S
C161 C145 1.377 . S
C161 C159 1.354 1_554 S
C161 C162 1.524 . S
C162 C161 1.524 . S
C162 C163 1.397 . S
C162 C167 1.363 . S
C163 H134 0.950 . S
C163 C162 1.397 . S
C163 C164 1.334 . S
C164 H135 0.950 . S
C164 C163 1.334 . S
C164 C165 1.287 . S
C165 C164 1.287 . S
C165 C166 1.524 . S
C165 H168 0.999 . S
C166 H136 0.950 . S
C166 C165 1.524 . S
C166 C167 1.415 . S
C167 H137 0.950 1_545 S
C167 C162 1.363 . S
C167 C166 1.415 . S
H168 C165 0.999 . S
H169 C150 0.913 . S
H170 C188 0.951 . S
H171 C190 0.951 . S
H172 C192 0.950 . S
H173 C193 0.950 . S
H174 C195 0.950 1_565 S
H175 C198 0.950 . S
H176 C199 0.950 . S
H177 C201 0.950 . S
H178 C202 0.950 1_655 S
H179 C203 0.951 . S
H180 C205 0.951 . S
H181 C207 0.950 . S
H182 C208 0.950 . S
H183 C210 0.950 . S
H184 C213 0.950 . S
H185 C214 0.950 . S
H186 C216 0.950 . S
H187 C217 0.950 . S
C188 H170 0.951 . S
C188 C189 1.366 . S
C188 C190 1.388 . S
C189 C188 1.366 . S
C189 C193 1.385 . S
C190 H171 0.951 . S
C190 C188 1.388 . S
C190 C191 1.366 . S
C191 C190 1.366 . S
C191 C192 1.414 . S
C191 C194 1.499 1_655 S
C192 H172 0.950 . S
C192 C191 1.414 . S
C192 C193 1.374 . S
C193 H173 0.950 . S
C193 C189 1.385 . S
C193 C192 1.374 . S
C194 C191 1.499 1_455 S
C194 C195 1.373 1_565 S
C194 C196 1.389 1_565 S
C195 H174 0.950 1_545 S
C195 C194 1.373 1_545 S
C195 C211 1.377 . S
C196 C194 1.389 1_545 S
C196 C197 1.524 1_545 S
C196 C210 1.377 . S
C197 C196 1.524 1_565 S
C197 C198 1.397 . S
C197 C202 1.363 1_565 S
C198 H175 0.950 . S
C198 C197 1.397 . S
C198 C199 1.334 . S
C199 H176 0.950 . S
C199 C198 1.334 . S
C199 C200 1.287 . S
C200 C199 1.287 . S
C200 C201 1.524 1_455 S
C200 H219 0.913 . S
C201 H177 0.950 . S
C201 C200 1.524 1_655 S
C201 C202 1.415 1_665 S
C202 H178 0.950 1_455 S
C202 C197 1.363 1_545 S
C202 C201 1.415 1_445 S
C203 H179 0.951 . S
C203 C204 1.366 . S
C203 C205 1.388 . S
C204 C203 1.366 . S
C204 C208 1.385 . S
C205 H180 0.951 . S
C205 C203 1.388 . S
C205 C206 1.366 . S
C206 C205 1.366 . S
C206 C207 1.414 . S
C206 C209 1.499 . S
C207 H181 0.950 . S
C207 C206 1.414 . S
C207 C208 1.374 . S
C208 H182 0.950 . S
C208 C204 1.385 . S
C208 C207 1.374 . S
C209 C206 1.499 . S
C209 C210 1.373 . S
C209 C211 1.389 . S
C210 H183 0.950 . S
C210 C196 1.377 . S
C210 C209 1.373 . S
C211 C195 1.377 . S
C211 C209 1.389 . S
C211 C212 1.524 . S
C212 C211 1.524 . S
C212 C213 1.397 . S
C212 C217 1.363 . S
C213 H184 0.950 . S
C213 C212 1.397 . S
C213 C214 1.334 . S
C214 H185 0.950 . S
C214 C213 1.334 . S
C214 C215 1.287 . S
C215 C214 1.287 . S
C215 C216 1.524 . S
C215 H218 0.999 . S
C216 H186 0.950 . S
C216 C215 1.524 . S
C216 C217 1.415 . S
C217 H187 0.950 . S
C217 C212 1.363 . S
C217 C216 1.415 . S
H218 C215 0.999 . S
H219 C200 0.913 . S
H220 C238 0.951 . S
H221 C240 0.951 . S
H222 C242 0.950 . S
H223 C243 0.950 . S
H224 C245 0.950 1_565 S
H225 C248 0.950 . S
H226 C249 0.950 . S
H227 C251 0.950 1_565 S
H228 C252 0.950 . S
H229 C253 0.951 . S
H230 C255 0.951 . S
H231 C257 0.950 . S
H232 C258 0.950 . S
H233 C260 0.950 . S
H234 C263 0.950 . S
H235 C264 0.950 . S
H236 C266 0.950 . S
H237 C267 0.950 . S
C238 H220 0.951 . S
C238 C239 1.366 . S
C238 C240 1.388 . S
C239 C238 1.366 . S
C239 C243 1.385 . S
C240 H221 0.951 . S
C240 C238 1.388 . S
C240 C241 1.366 . S
C241 C240 1.366 . S
C241 C242 1.414 . S
C241 C244 1.499 1_565 S
C242 H222 0.950 . S
C242 C241 1.414 . S
C242 C243 1.374 . S
C243 H223 0.950 . S
C243 C239 1.385 . S
C243 C242 1.374 . S
C244 C241 1.499 1_545 S
C244 C245 1.373 . S
C244 C246 1.389 . S
C245 H224 0.950 1_545 S
C245 C244 1.373 . S
C245 C261 1.377 . S
C246 C244 1.389 . S
C246 C247 1.524 . S
C246 C260 1.377 . S
C247 C246 1.524 . S
C247 C248 1.397 . S
C247 C252 1.363 . S
C248 H225 0.950 . S
C248 C247 1.397 . S
C248 C249 1.334 . S
C249 H226 0.950 . S
C249 C248 1.334 . S
C249 C250 1.287 . S
C250 C249 1.287 . S
C250 C251 1.524 . S
C250 H269 0.913 . S
C251 H227 0.950 1_545 S
C251 C250 1.524 . S
C251 C252 1.415 . S
C252 H228 0.950 . S
C252 C247 1.363 . S
C252 C251 1.415 . S
C253 H229 0.951 . S
C253 C254 1.366 1_455 S
C253 C255 1.388 . S
C254 C253 1.366 1_655 S
C254 C258 1.385 . S
C255 H230 0.951 . S
C255 C253 1.388 . S
C255 C256 1.366 . S
C256 C255 1.366 . S
C256 C257 1.414 1_455 S
C256 C259 1.499 . S
C257 H231 0.950 . S
C257 C256 1.414 1_655 S
C257 C258 1.374 . S
C258 H232 0.950 . S
C258 C254 1.385 . S
C258 C257 1.374 . S
C259 C256 1.499 . S
C259 C260 1.373 . S
C259 C261 1.389 . S
C260 H233 0.950 . S
C260 C246 1.377 . S
C260 C259 1.373 . S
C261 C245 1.377 . S
C261 C259 1.389 . S
C261 C262 1.535 . S
C262 C261 1.535 . S
C262 C263 1.374 1_455 S
C262 C267 1.375 . S
C263 H234 0.950 . S
C263 C262 1.374 1_655 S
C263 C264 1.334 . S
C264 H235 0.950 . S
C264 C263 1.334 . S
C264 C265 1.287 . S
C265 C264 1.287 . S
C265 C266 1.524 1_655 S
C265 H268 0.999 . S
C266 H236 0.950 . S
C266 C265 1.524 1_455 S
C266 C267 1.415 . S
C267 H237 0.950 . S
C267 C262 1.375 . S
C267 C266 1.415 . S
H268 C265 0.999 . S
H269 C250 0.913 . S
H270 C288 0.951 . S
H271 C290 0.951 . S
H272 C292 0.950 . S
H273 C293 0.950 . S
H274 C295 0.950 . S
H275 C298 0.950 . S
H276 C299 0.950 . S
H277 C301 0.950 . S
H278 C302 0.950 . S
H279 C303 0.951 . S
H280 C305 0.951 . S
H281 C307 0.950 . S
H282 C308 0.950 . S
H283 C310 0.950 . S
H284 C313 0.950 . S
H285 C314 0.950 . S
H286 C316 0.950 . S
H287 C317 0.950 . S
C288 H270 0.951 . S
C288 C289 1.366 . S
C288 C290 1.388 . S
C289 C288 1.366 . S
C289 C293 1.385 . S
C290 H271 0.951 . S
C290 C288 1.388 . S
C290 C291 1.366 . S
C291 C290 1.366 . S
C291 C292 1.414 . S
C291 C294 1.499 . S
C292 H272 0.950 . S
C292 C291 1.414 . S
C292 C293 1.374 . S
C293 H273 0.950 . S
C293 C289 1.385 . S
C293 C292 1.374 . S
C294 C291 1.499 . S
C294 C295 1.373 . S
C294 C296 1.389 . S
C295 H274 0.950 . S
C295 C294 1.373 . S
C295 C311 1.377 . S
C296 C294 1.389 . S
C296 C297 1.524 . S
C296 C310 1.377 . S
C297 C296 1.524 . S
C297 C298 1.397 . S
C297 C302 1.363 . S
C298 H275 0.950 . S
C298 C297 1.397 . S
C298 C299 1.334 . S
C299 H276 0.950 . S
C299 C298 1.334 . S
C299 C300 1.287 . S
C300 C299 1.287 . S
C300 C301 1.524 . S
C300 H319 0.913 . S
C301 H277 0.950 . S
C301 C300 1.524 . S
C301 C302 1.415 . S
C302 H278 0.950 . S
C302 C297 1.363 . S
C302 C301 1.415 . S
C303 H279 0.951 . S
C303 C304 1.366 . S
C303 C305 1.388 . S
C304 C303 1.366 . S
C304 C308 1.385 . S
C305 H280 0.951 . S
C305 C303 1.388 . S
C305 C306 1.366 . S
C306 C305 1.366 . S
C306 C307 1.414 . S
C306 C309 1.499 . S
C307 H281 0.950 . S
C307 C306 1.414 . S
C307 C308 1.374 . S
C308 H282 0.950 . S
C308 C304 1.385 . S
C308 C307 1.374 . S
C309 C306 1.499 . S
C309 C310 1.373 . S
C309 C311 1.389 . S
C310 H283 0.950 . S
C310 C296 1.377 . S
C310 C309 1.373 . S
C311 C295 1.377 . S
C311 C309 1.389 . S
C311 C312 1.524 . S
C312 C311 1.524 . S
C312 C313 1.397 . S
C312 C317 1.363 . S
C313 H284 0.950 . S
C313 C312 1.397 . S
C313 C314 1.334 . S
C314 H285 0.950 . S
C314 C313 1.334 . S
C314 C315 1.287 . S
C315 C314 1.287 . S
C315 C316 1.524 . S
C315 H318 0.999 . S
C316 H286 0.950 . S
C316 C315 1.524 . S
C316 C317 1.415 . S
C317 H287 0.950 . S
C317 C312 1.363 . S
C317 C316 1.415 . S
H318 C315 0.999 . S
H319 C300 0.913 . S
H320 C338 0.951 . S
H321 C340 0.951 . S
H322 C342 0.950 . S
H323 C343 0.950 . S
H324 C345 0.950 . S
H325 C348 0.950 . S
H326 C349 0.950 . S
H327 C351 0.950 . S
H328 C352 0.950 1_455 S
H329 C353 0.951 . S
H330 C355 0.951 . S
H331 C357 0.950 . S
H332 C358 0.950 . S
H333 C360 0.950 . S
H334 C363 0.950 . S
H335 C364 0.950 . S
H336 C366 0.950 . S
H337 C367 0.950 . S
C338 H320 0.951 . S
C338 C339 1.366 . S
C338 C340 1.388 . S
C339 C338 1.366 . S
C339 C343 1.385 . S
C340 H321 0.951 . S
C340 C338 1.388 . S
C340 C341 1.366 . S
C341 C340 1.366 . S
C341 C342 1.414 . S
C341 C344 1.499 . S
C342 H322 0.950 . S
C342 C341 1.414 . S
C342 C343 1.374 . S
C343 H323 0.950 . S
C343 C339 1.385 . S
C343 C342 1.374 . S
C344 C341 1.499 . S
C344 C345 1.373 . S
C344 C346 1.389 . S
C345 H324 0.950 . S
C345 C344 1.373 . S
C345 C361 1.377 . S
C346 C344 1.389 . S
C346 C347 1.524 1_455 S
C346 C360 1.377 1_455 S
C347 C346 1.524 1_655 S
C347 C348 1.397 . S
C347 C352 1.363 . S
C348 H325 0.950 . S
C348 C347 1.397 . S
C348 C349 1.334 . S
C349 H326 0.950 . S
C349 C348 1.334 . S
C349 C350 1.287 . S
C350 C349 1.287 . S
C350 C351 1.524 . S
C350 H369 0.913 . S
C351 H327 0.950 . S
C351 C350 1.524 . S
C351 C352 1.415 . S
C352 H328 0.950 1_655 S
C352 C347 1.363 . S
C352 C351 1.415 . S
C353 H329 0.951 . S
C353 C354 1.366 . S
C353 C355 1.388 . S
C354 C353 1.366 . S
C354 C358 1.385 . S
C355 H330 0.951 . S
C355 C353 1.388 . S
C355 C356 1.366 . S
C356 C355 1.366 . S
C356 C357 1.414 . S
C356 C359 1.499 . S
C357 H331 0.950 . S
C357 C356 1.414 . S
C357 C358 1.374 . S
C358 H332 0.950 . S
C358 C354 1.385 . S
C358 C357 1.374 . S
C359 C356 1.499 . S
C359 C360 1.373 . S
C359 C361 1.389 1_655 S
C360 H333 0.950 . S
C360 C346 1.377 1_655 S
C360 C359 1.373 . S
C361 C345 1.377 . S
C361 C359 1.389 1_455 S
C361 C362 1.524 . S
C362 C361 1.524 . S
C362 C363 1.397 . S
C362 C367 1.363 . S
C363 H334 0.950 . S
C363 C362 1.397 . S
C363 C364 1.334 . S
C364 H335 0.950 . S
C364 C363 1.334 . S
C364 C365 1.287 . S
C365 C364 1.287 . S
C365 C366 1.524 . S
C365 H368 0.999 . S
C366 H336 0.950 . S
C366 C365 1.524 . S
C366 C367 1.415 . S
C367 H337 0.950 . S
C367 C362 1.363 . S
C367 C366 1.415 . S
H368 C365 0.999 . S
H369 C350 0.913 . S
H370 C388 0.951 . S
H371 C390 0.951 . S
H372 C392 0.950 . S
H373 C393 0.950 . S
H374 C395 0.950 . S
H375 C398 0.950 . S
H376 C399 0.950 . S
H377 C401 0.950 . S
H378 C402 0.950 . S
H379 C403 0.951 . S
H380 C405 0.951 . S
H381 C407 0.950 . S
H382 C408 0.950 . S
H383 C410 0.950 . S
H384 C413 0.950 . S
H385 C414 0.950 . S
H386 C416 0.950 . S
H387 C417 0.950 . S
C388 H370 0.951 . S
C388 C389 1.366 . S
C388 C390 1.388 . S
C389 C388 1.366 . S
C389 C393 1.385 . S
C390 H371 0.951 . S
C390 C388 1.388 . S
C390 C391 1.366 . S
C391 C390 1.366 . S
C391 C392 1.414 . S
C391 C394 1.499 . S
C392 H372 0.950 . S
C392 C391 1.414 . S
C392 C393 1.374 . S
C393 H373 0.950 . S
C393 C389 1.385 . S
C393 C392 1.374 . S
C394 C391 1.499 . S
C394 C395 1.373 . S
C394 C396 1.389 . S
C395 H374 0.950 . S
C395 C394 1.373 . S
C395 C411 1.378 1_545 S
C396 C394 1.389 . S
C396 C397 1.524 . S
C396 C410 1.377 1_545 S
C397 C396 1.524 . S
C397 C398 1.397 . S
C397 C402 1.363 1_545 S
C398 H375 0.950 . S
C398 C397 1.397 . S
C398 C399 1.334 1_655 S
C399 H376 0.950 . S
C399 C398 1.334 1_455 S
C399 C400 1.287 . S
C400 C399 1.287 . S
C400 C401 1.524 1_445 S
C400 H419 0.913 . S
C401 H377 0.950 . S
C401 C400 1.524 1_665 S
C401 C402 1.415 . S
C402 H378 0.950 . S
C402 C397 1.363 1_565 S
C402 C401 1.415 . S
C403 H379 0.951 . S
C403 C404 1.366 . S
C403 C405 1.388 . S
C404 C403 1.366 . S
C404 C408 1.385 . S
C405 H380 0.951 . S
C405 C403 1.388 . S
C405 C406 1.366 . S
C406 C405 1.366 . S
C406 C407 1.414 . S
C406 C409 1.499 . S
C407 H381 0.950 . S
C407 C406 1.414 . S
C407 C408 1.374 . S
C408 H382 0.950 . S
C408 C404 1.385 . S
C408 C407 1.374 . S
C409 C406 1.499 . S
C409 C410 1.373 . S
C409 C411 1.388 . S
C410 H383 0.950 . S
C410 C396 1.377 1_565 S
C410 C409 1.373 . S
C411 C395 1.378 1_565 S
C411 C409 1.388 . S
C411 C412 1.525 . S
C412 C411 1.525 . S
C412 C413 1.397 . S
C412 C417 1.363 1_565 S
C413 H384 0.950 . S
C413 C412 1.397 . S
C413 C414 1.334 . S
C414 H385 0.950 . S
C414 C413 1.334 . S
C414 C415 1.287 . S
C415 C414 1.287 . S
C415 C416 1.524 1_565 S
C415 H418 0.999 . S
C416 H386 0.950 . S
C416 C415 1.524 1_545 S
C416 C417 1.415 . S
C417 H387 0.950 . S
C417 C412 1.363 1_545 S
C417 C416 1.415 . S
H418 C415 0.999 . S
H419 C400 0.913 . S
H420 C438 0.951 . S
H421 C440 0.951 . S
H422 C442 0.950 . S
H423 C443 0.950 . S
H424 C445 0.950 . S
H425 C448 0.950 . S
H426 C449 0.950 . S
H427 C451 0.950 1_455 S
H428 C452 0.950 . S
H429 C453 0.951 . S
H430 C455 0.951 . S
H431 C457 0.950 . S
H432 C458 0.950 . S
H433 C460 0.950 . S
H434 C463 0.950 . S
H435 C464 0.950 . S
H436 C466 0.950 . S
H437 C467 0.950 . S
C438 H420 0.951 . S
C438 C439 1.366 . S
C438 C440 1.388 . S
C439 C438 1.366 . S
C439 C443 1.385 . S
C440 H421 0.951 . S
C440 C438 1.388 . S
C440 C441 1.366 . S
C441 C440 1.366 . S
C441 C442 1.414 . S
C441 C444 1.499 . S
C442 H422 0.950 . S
C442 C441 1.414 . S
C442 C443 1.374 . S
C443 H423 0.950 . S
C443 C439 1.385 . S
C443 C442 1.374 . S
C444 C441 1.499 . S
C444 C445 1.373 . S
C444 C446 1.389 . S
C445 H424 0.950 . S
C445 C444 1.373 . S
C445 C461 1.377 . S
C446 C444 1.389 . S
C446 C447 1.524 . S
C446 C460 1.377 . S
C447 C446 1.524 . S
C447 C448 1.397 . S
C447 C452 1.363 . S
C448 H425 0.950 . S
C448 C447 1.397 . S
C448 C449 1.334 . S
C449 H426 0.950 . S
C449 C448 1.334 . S
C449 C450 1.297 . S
C450 C449 1.297 . S
C450 C451 1.520 . S
C450 H469 0.907 1_655 S
C451 H427 0.950 1_655 S
C451 C450 1.520 . S
C451 C452 1.415 . S
C452 H428 0.950 . S
C452 C447 1.363 . S
C452 C451 1.415 . S
C453 H429 0.951 . S
C453 C454 1.366 . S
C453 C455 1.388 . S
C454 C453 1.366 . S
C454 C458 1.385 . S
C455 H430 0.951 . S
C455 C453 1.388 . S
C455 C456 1.366 . S
C456 C455 1.366 . S
C456 C457 1.414 . S
C456 C459 1.499 . S
C457 H431 0.950 . S
C457 C456 1.414 . S
C457 C458 1.374 . S
C458 H432 0.950 . S
C458 C454 1.385 . S
C458 C457 1.374 . S
C459 C456 1.499 . S
C459 C460 1.373 . S
C459 C461 1.389 . S
C460 H433 0.950 . S
C460 C446 1.377 . S
C460 C459 1.373 . S
C461 C445 1.377 . S
C461 C459 1.389 . S
C461 C462 1.524 . S
C462 C461 1.524 . S
C462 C463 1.397 . S
C462 C467 1.363 . S
C463 H434 0.950 . S
C463 C462 1.397 . S
C463 C464 1.334 . S
C464 H435 0.950 . S
C464 C463 1.334 . S
C464 C465 1.287 . S
C465 C464 1.287 . S
C465 C466 1.524 . S
C465 H468 0.999 . S
C466 H436 0.950 . S
C466 C465 1.524 . S
C466 C467 1.415 . S
C467 H437 0.950 . S
C467 C462 1.363 . S
C467 C466 1.415 . S
H468 C465 0.999 . S
H469 C450 0.907 1_455 S
H470 C488 0.951 . S
H471 C490 0.958 . S
H472 C492 0.950 . S
H473 C493 0.950 . S
H474 C495 0.950 . S
H475 C498 0.950 . S
H476 C499 0.950 . S
H477 C501 0.950 . S
H478 C502 0.950 . S
H479 C503 0.951 . S
H480 C505 0.951 . S
H481 C507 0.950 . S
H482 C508 0.950 1_545 S
H483 C510 0.950 . S
H484 C513 0.950 . S
H485 C514 0.950 . S
H486 C516 0.950 . S
H487 C517 0.950 . S
C488 H470 0.951 . S
C488 C489 1.366 . S
C488 C490 1.378 1_655 S
C489 C488 1.366 . S
C489 C493 1.385 . S
C490 H471 0.958 . S
C490 C488 1.378 1_455 S
C490 C491 1.368 1_455 S
C491 C490 1.368 1_655 S
C491 C492 1.414 . S
C491 C494 1.499 1_655 S
C492 H472 0.950 . S
C492 C491 1.414 . S
C492 C493 1.374 . S
C493 H473 0.950 . S
C493 C489 1.385 . S
C493 C492 1.374 . S
C494 C491 1.499 1_455 S
C494 C495 1.373 . S
C494 C496 1.389 . S
C495 H474 0.950 . S
C495 C494 1.373 . S
C495 C511 1.377 . S
C496 C494 1.389 . S
C496 C497 1.524 . S
C496 C510 1.377 . S
C497 C496 1.524 . S
C497 C498 1.397 1_455 S
C497 C502 1.363 . S
C498 H475 0.950 . S
C498 C497 1.397 1_655 S
C498 C499 1.334 . S
C499 H476 0.950 . S
C499 C498 1.334 . S
C499 C500 1.287 . S
C500 C499 1.287 . S
C500 C501 1.524 1_665 S
C500 H519 0.913 . S
C501 H477 0.950 . S
C501 C500 1.524 1_445 S
C501 C502 1.415 1_545 S
C502 H478 0.950 . S
C502 C497 1.363 . S
C502 C501 1.415 1_565 S
C503 H479 0.951 . S
C503 C504 1.366 . S
C503 C505 1.388 . S
C504 C503 1.366 . S
C504 C508 1.385 . S
C505 H480 0.951 . S
C505 C503 1.388 . S
C505 C506 1.366 . S
C506 C505 1.366 . S
C506 C507 1.414 . S
C506 C509 1.499 . S
C507 H481 0.950 . S
C507 C506 1.414 . S
C507 C508 1.374 . S
C508 H482 0.950 1_565 S
C508 C504 1.385 . S
C508 C507 1.374 . S
C509 C506 1.499 . S
C509 C510 1.373 . S
C509 C511 1.389 . S
C510 H483 0.950 . S
C510 C496 1.377 . S
C510 C509 1.373 . S
C511 C495 1.377 . S
C511 C509 1.389 . S
C511 C512 1.524 . S
C512 C511 1.524 . S
C512 C513 1.397 . S
C512 C517 1.363 . S
C513 H484 0.950 . S
C513 C512 1.397 . S
C513 C514 1.334 . S
C514 H485 0.950 . S
C514 C513 1.334 . S
C514 C515 1.287 . S
C515 C514 1.287 . S
C515 C516 1.524 . S
C515 H518 0.999 . S
C516 H486 0.950 . S
C516 C515 1.524 . S
C516 C517 1.415 . S
C517 H487 0.950 . S
C517 C512 1.363 . S
C517 C516 1.415 . S
H518 C515 0.999 . S
H519 C500 0.913 . S
H520 C538 0.951 . S
H521 C540 0.951 . S
H522 C542 0.950 . S
H523 C543 0.950 . S
H524 C545 0.950 . S
H525 C548 0.950 . S
H526 C549 0.950 1_545 S
H527 C551 0.950 . S
H528 C552 0.950 . S
H529 C553 0.951 . S
H530 C555 0.951 . S
H531 C557 0.950 . S
H532 C558 0.950 . S
H533 C560 0.950 . S
H534 C563 0.950 . S
H535 C564 0.950 . S
H536 C566 0.950 . S
H537 C567 0.950 . S
C538 H520 0.951 . S
C538 C539 1.366 . S
C538 C540 1.388 . S
C539 C538 1.366 . S
C539 C543 1.385 . S
C540 H521 0.951 . S
C540 C538 1.388 . S
C540 C541 1.366 . S
C541 C540 1.366 . S
C541 C542 1.414 1_565 S
C541 C544 1.499 1_565 S
C542 H522 0.950 . S
C542 C541 1.414 1_545 S
C542 C543 1.374 1_545 S
C543 H523 0.950 . S
C543 C539 1.385 . S
C543 C542 1.374 1_565 S
C544 C541 1.499 1_545 S
C544 C545 1.373 . S
C544 C546 1.389 . S
C545 H524 0.950 . S
C545 C544 1.373 . S
C545 C561 1.377 . S
C546 C544 1.389 . S
C546 C547 1.524 . S
C546 C560 1.377 . S
C547 C546 1.524 . S
C547 C548 1.397 . S
C547 C552 1.363 1_545 S
C548 H525 0.950 . S
C548 C547 1.397 . S
C548 C549 1.334 1_545 S
C549 H526 0.950 1_565 S
C549 C548 1.334 1_565 S
C549 C550 1.287 . S
C550 C549 1.287 . S
C550 C551 1.524 . S
C550 H569 0.913 . S
C551 H527 0.950 . S
C551 C550 1.524 . S
C551 C552 1.415 . S
C552 H528 0.950 . S
C552 C547 1.363 1_565 S
C552 C551 1.415 . S
C553 H529 0.951 . S
C553 C554 1.366 . S
C553 C555 1.388 . S
C554 C553 1.366 . S
C554 C558 1.385 . S
C555 H530 0.951 . S
C555 C553 1.388 . S
C555 C556 1.366 . S
C556 C555 1.366 . S
C556 C557 1.414 . S
C556 C559 1.499 . S
C557 H531 0.950 . S
C557 C556 1.414 . S
C557 C558 1.374 . S
C558 H532 0.950 . S
C558 C554 1.385 . S
C558 C557 1.374 . S
C559 C556 1.499 . S
C559 C560 1.373 . S
C559 C561 1.389 . S
C560 H533 0.950 . S
C560 C546 1.377 . S
C560 C559 1.373 . S
C561 C545 1.377 . S
C561 C559 1.389 . S
C561 C562 1.524 . S
C562 C561 1.524 . S
C562 C563 1.397 . S
C562 C567 1.363 . S
C563 H534 0.950 . S
C563 C562 1.397 . S
C563 C564 1.334 . S
C564 H535 0.950 . S
C564 C563 1.334 . S
C564 C565 1.287 . S
C565 C564 1.287 . S
C565 C566 1.524 . S
C565 H568 0.999 . S
C566 H536 0.950 . S
C566 C565 1.524 . S
C566 C567 1.415 . S
C567 H537 0.950 . S
C567 C562 1.363 . S
C567 C566 1.415 . S
H568 C565 0.999 . S
H569 C550 0.913 . S
H570 C588 0.951 . S
H571 C590 0.951 . S
H572 C592 0.950 . S
H573 C593 0.950 . S
H574 C595 0.952 . S
H575 C598 0.950 . S
H576 C599 0.950 . S
H577 C601 0.950 . S
H578 C602 0.950 . S
H579 C603 0.951 . S
H580 C605 0.951 . S
H581 C607 0.950 . S
H582 C608 0.950 . S
H583 C610 0.950 . S
H584 C613 0.950 . S
H585 C614 0.950 . S
H586 C616 0.950 . S
H587 C617 0.950 . S
C588 H570 0.951 . S
C588 C589 1.366 . S
C588 C590 1.388 . S
C589 C588 1.366 . S
C589 C593 1.385 1_554 S
C590 H571 0.951 . S
C590 C588 1.388 . S
C590 C591 1.366 . S
C591 C590 1.366 . S
C591 C592 1.414 1_554 S
C591 C594 1.499 . S
C592 H572 0.950 . S
C592 C591 1.414 1_556 S
C592 C593 1.374 . S
C593 H573 0.950 . S
C593 C589 1.385 1_556 S
C593 C592 1.374 . S
C594 C591 1.499 . S
C594 C595 1.373 1_545 S
C594 C596 1.389 . S
C595 H574 0.952 . S
C595 C594 1.373 1_565 S
C595 C611 1.377 . S
C596 C594 1.389 . S
C596 C597 1.524 . S
C596 C610 1.377 . S
C597 C596 1.524 . S
C597 C598 1.397 1_554 S
C597 C602 1.363 . S
C598 H575 0.950 . S
C598 C597 1.397 1_556 S
C598 C599 1.334 . S
C599 H576 0.950 . S
C599 C598 1.334 . S
C599 C600 1.287 . S
C600 C599 1.287 . S
C600 C601 1.524 1_556 S
C600 H619 0.913 . S
C601 H577 0.950 . S
C601 C600 1.524 1_554 S
C601 C602 1.415 . S
C602 H578 0.950 . S
C602 C597 1.363 . S
C602 C601 1.415 . S
C603 H579 0.951 . S
C603 C604 1.366 1_556 S
C603 C605 1.388 . S
C604 C603 1.366 1_554 S
C604 C608 1.385 1_565 S
C605 H580 0.951 . S
C605 C603 1.388 . S
C605 C606 1.366 1_566 S
C606 C605 1.366 1_544 S
C606 C607 1.414 . S
C606 C609 1.499 . S
C607 H581 0.950 . S
C607 C606 1.414 . S
C607 C608 1.374 . S
C608 H582 0.950 . S
C608 C604 1.385 1_545 S
C608 C607 1.374 . S
C609 C606 1.499 . S
C609 C610 1.373 . S
C609 C611 1.389 1_545 S
C610 H583 0.950 . S
C610 C596 1.377 . S
C610 C609 1.373 . S
C611 C595 1.377 . S
C611 C609 1.389 1_565 S
C611 C612 1.524 . S
C612 C611 1.524 . S
C612 C613 1.397 . S
C612 C617 1.363 1_554 S
C613 H584 0.950 . S
C613 C612 1.397 . S
C613 C614 1.334 . S
C614 H585 0.950 . S
C614 C613 1.334 . S
C614 C615 1.287 . S
C615 C614 1.287 . S
C615 C616 1.524 1_554 S
C615 H618 0.999 . S
C616 H586 0.950 . S
C616 C615 1.524 1_556 S
C616 C617 1.415 . S
C617 H587 0.950 . S
C617 C612 1.363 1_556 S
C617 C616 1.415 . S
H618 C615 0.999 . S
H619 C600 0.913 . S
H620 C638 0.951 . S
H621 C640 0.951 . S
H622 C642 0.950 . S
H623 C643 0.950 . S
H624 C645 0.950 . S
H625 C648 0.950 . S
H626 C649 0.950 . S
H627 C651 0.950 . S
H628 C652 0.950 . S
H629 C653 0.951 . S
H630 C655 0.951 . S
H631 C657 0.950 . S
H632 C658 0.950 . S
H633 C660 0.950 . S
H634 C663 0.950 . S
H635 C664 0.950 . S
H636 C666 0.950 . S
H637 C667 0.950 . S
C638 H620 0.951 . S
C638 C639 1.366 . S
C638 C640 1.388 . S
C639 C638 1.366 . S
C639 C643 1.385 . S
C640 H621 0.951 . S
C640 C638 1.388 . S
C640 C641 1.366 . S
C641 C640 1.366 . S
C641 C642 1.414 . S
C641 C644 1.499 . S
C642 H622 0.950 . S
C642 C641 1.414 . S
C642 C643 1.374 . S
C643 H623 0.950 . S
C643 C639 1.385 . S
C643 C642 1.374 . S
C644 C641 1.499 . S
C644 C645 1.373 . S
C644 C646 1.389 . S
C645 H624 0.950 . S
C645 C644 1.373 . S
C645 C661 1.377 . S
C646 C644 1.389 . S
C646 C647 1.524 . S
C646 C660 1.377 . S
C647 C646 1.524 . S
C647 C648 1.397 . S
C647 C652 1.363 . S
C648 H625 0.950 . S
C648 C647 1.397 . S
C648 C649 1.334 . S
C649 H626 0.950 . S
C649 C648 1.334 . S
C649 C650 1.287 . S
C650 C649 1.287 . S
C650 C651 1.524 . S
C650 H669 0.913 . S
C651 H627 0.950 . S
C651 C650 1.524 . S
C651 C652 1.415 . S
C652 H628 0.950 . S
C652 C647 1.363 . S
C652 C651 1.415 . S
C653 H629 0.951 . S
C653 C654 1.366 . S
C653 C655 1.388 . S
C654 C653 1.366 . S
C654 C658 1.385 . S
C655 H630 0.951 . S
C655 C653 1.388 . S
C655 C656 1.366 . S
C656 C655 1.366 . S
C656 C657 1.414 . S
C656 C659 1.499 . S
C657 H631 0.950 . S
C657 C656 1.414 . S
C657 C658 1.374 . S
C658 H632 0.950 . S
C658 C654 1.385 . S
C658 C657 1.374 . S
C659 C656 1.499 . S
C659 C660 1.373 . S
C659 C661 1.389 . S
C660 H633 0.950 . S
C660 C646 1.377 . S
C660 C659 1.373 . S
C661 C645 1.377 . S
C661 C659 1.389 . S
C661 C662 1.524 . S
C662 C661 1.524 . S
C662 C663 1.397 . S
C662 C667 1.363 . S
C663 H634 0.950 . S
C663 C662 1.397 . S
C663 C664 1.334 . S
C664 H635 0.950 . S
C664 C663 1.334 . S
C664 C665 1.287 . S
C665 C664 1.287 . S
C665 C666 1.524 . S
C665 H668 0.999 . S
C666 H636 0.950 . S
C666 C665 1.524 . S
C666 C667 1.415 . S
C667 H637 0.950 . S
C667 C662 1.363 . S
C667 C666 1.415 . S
H668 C665 0.999 . S
H669 C650 0.913 . S
H670 C688 0.951 . S
H671 C690 0.951 . S
H672 C692 0.950 1_655 S
H673 C693 0.950 . S
H674 C695 0.950 . S
H675 C698 0.950 . S
H676 C699 0.950 . S
H677 C701 0.950 . S
H678 C702 0.950 . S
H679 C703 0.951 . S
H680 C705 0.951 . S
H681 C707 0.950 . S
H682 C708 0.950 . S
H683 C710 0.950 . S
H684 C713 0.950 . S
H685 C714 0.950 . S
H686 C716 0.950 . S
H687 C717 0.950 . S
C688 H670 0.951 . S
C688 C689 1.366 1_455 S
C688 C690 1.388 . S
C689 C688 1.366 1_655 S
C689 C693 1.385 . S
C690 H671 0.951 . S
C690 C688 1.388 . S
C690 C691 1.366 . S
C691 C690 1.366 . S
C691 C692 1.414 . S
C691 C694 1.499 . S
C692 H672 0.950 1_455 S
C692 C691 1.414 . S
C692 C693 1.374 1_455 S
C693 H673 0.950 . S
C693 C689 1.385 . S
C693 C692 1.374 1_655 S
C694 C691 1.499 . S
C694 C695 1.373 1_455 S
C694 C696 1.389 . S
C695 H674 0.950 . S
C695 C694 1.373 1_655 S
C695 C711 1.384 1_655 S
C696 C694 1.389 . S
C696 C697 1.524 . S
C696 C710 1.377 . S
C697 C696 1.524 . S
C697 C698 1.397 . S
C697 C702 1.363 . S
C698 H675 0.950 . S
C698 C697 1.397 . S
C698 C699 1.334 . S
C699 H676 0.950 . S
C699 C698 1.334 . S
C699 C700 1.287 . S
C700 C699 1.287 . S
C700 C701 1.524 . S
C700 H719 0.913 . S
C701 H677 0.950 . S
C701 C700 1.524 . S
C701 C702 1.415 . S
C702 H678 0.950 . S
C702 C697 1.363 . S
C702 C701 1.415 . S
C703 H679 0.951 . S
C703 C704 1.366 . S
C703 C705 1.388 . S
C704 C703 1.366 . S
C704 C708 1.385 . S
C705 H680 0.951 . S
C705 C703 1.388 . S
C705 C706 1.366 . S
C706 C705 1.366 . S
C706 C707 1.414 . S
C706 C709 1.499 . S
C707 H681 0.950 . S
C707 C706 1.414 . S
C707 C708 1.374 . S
C708 H682 0.950 . S
C708 C704 1.385 . S
C708 C707 1.374 . S
C709 C706 1.499 . S
C709 C710 1.373 . S
C709 C711 1.399 . S
C710 H683 0.950 . S
C710 C696 1.377 . S
C710 C709 1.373 . S
C711 C695 1.384 1_455 S
C711 C709 1.399 . S
C711 C712 1.507 1_455 S
C712 C711 1.507 1_655 S
C712 C713 1.397 . S
C712 C717 1.363 . S
C713 H684 0.950 . S
C713 C712 1.397 . S
C713 C714 1.334 . S
C714 H685 0.950 . S
C714 C713 1.334 . S
C714 C715 1.287 . S
C715 C714 1.287 . S
C715 C716 1.524 . S
C715 H718 0.999 . S
C716 H686 0.950 . S
C716 C715 1.524 . S
C716 C717 1.415 . S
C717 H687 0.950 . S
C717 C712 1.363 . S
C717 C716 1.415 . S
H718 C715 0.999 . S
H719 C700 0.913 . S
H720 C738 0.951 . S
H721 C740 0.951 . S
H722 C742 0.950 . S
H723 C743 0.950 . S
H724 C745 0.950 . S
H725 C748 0.950 . S
H726 C749 0.950 . S
H727 C751 0.950 . S
H728 C752 0.950 . S
H729 C753 0.951 . S
H730 C755 0.951 . S
H731 C757 0.950 . S
H732 C758 0.950 . S
H733 C760 0.950 . S
H734 C763 0.950 . S
H735 C764 0.950 . S
H736 C766 0.950 . S
H737 C767 0.950 . S
C738 H720 0.951 . S
C738 C739 1.366 . S
C738 C740 1.388 . S
C739 C738 1.366 . S
C739 C743 1.385 . S
C740 H721 0.951 . S
C740 C738 1.388 . S
C740 C741 1.366 . S
C741 C740 1.366 . S
C741 C742 1.414 . S
C741 C744 1.499 . S
C742 H722 0.950 . S
C742 C741 1.414 . S
C742 C743 1.374 . S
C743 H723 0.950 . S
C743 C739 1.385 . S
C743 C742 1.374 . S
C744 C741 1.499 . S
C744 C745 1.373 . S
C744 C746 1.389 . S
C745 H724 0.950 . S
C745 C744 1.373 . S
C745 C761 1.377 . S
C746 C744 1.389 . S
C746 C747 1.524 . S
C746 C760 1.377 . S
C747 C746 1.524 . S
C747 C748 1.397 . S
C747 C752 1.363 . S
C748 H725 0.950 . S
C748 C747 1.397 . S
C748 C749 1.334 . S
C749 H726 0.950 . S
C749 C748 1.334 . S
C749 C750 1.287 1_545 S
C750 C749 1.287 1_565 S
C750 C751 1.524 . S
C750 H769 0.913 . S
C751 H727 0.950 . S
C751 C750 1.524 . S
C751 C752 1.415 1_565 S
C752 H728 0.950 . S
C752 C747 1.363 . S
C752 C751 1.415 1_545 S
C753 H729 0.951 . S
C753 C754 1.366 . S
C753 C755 1.388 . S
C754 C753 1.366 . S
C754 C758 1.385 . S
C755 H730 0.951 . S
C755 C753 1.388 . S
C755 C756 1.366 . S
C756 C755 1.366 . S
C756 C757 1.414 . S
C756 C759 1.499 . S
C757 H731 0.950 . S
C757 C756 1.414 . S
C757 C758 1.374 . S
C758 H732 0.950 . S
C758 C754 1.385 . S
C758 C757 1.374 . S
C759 C756 1.499 . S
C759 C760 1.373 . S
C759 C761 1.389 . S
C760 H733 0.950 . S
C760 C746 1.377 . S
C760 C759 1.373 . S
C761 C745 1.377 . S
C761 C759 1.389 . S
C761 C762 1.524 . S
C762 C761 1.524 . S
C762 C763 1.397 . S
C762 C767 1.363 . S
C763 H734 0.950 . S
C763 C762 1.397 . S
C763 C764 1.334 . S
C764 H735 0.950 . S
C764 C763 1.334 . S
C764 C765 1.287 . S
C765 C764 1.287 . S
C765 C766 1.524 . S
C765 H768 0.999 . S
C766 H736 0.950 . S
C766 C765 1.524 . S
C766 C767 1.415 . S
C767 H737 0.950 . S
C767 C762 1.363 . S
C767 C766 1.415 . S
H768 C765 0.999 . S
H769 C750 0.913 . S
H770 C788 0.951 . S
H771 C790 0.951 . S
H772 C792 0.950 . S
H773 C793 0.950 . S
H774 C795 0.950 . S
H775 C798 0.950 . S
H776 C799 0.950 . S
H777 C801 0.950 . S
H778 C802 0.950 . S
H779 C803 0.951 . S
H780 C805 0.951 . S
H781 C807 0.950 . S
H782 C808 0.950 . S
H783 C810 0.950 . S
H784 C813 0.950 . S
H785 C814 0.950 . S
H786 C816 0.950 . S
H787 C817 0.950 . S
C788 H770 0.951 . S
C788 C789 1.366 . S
C788 C790 1.388 . S
C789 C788 1.366 . S
C789 C793 1.385 . S
C790 H771 0.951 . S
C790 C788 1.388 . S
C790 C791 1.366 . S
C791 C790 1.366 . S
C791 C792 1.414 . S
C791 C794 1.499 . S
C792 H772 0.950 . S
C792 C791 1.414 . S
C792 C793 1.374 . S
C793 H773 0.950 . S
C793 C789 1.385 . S
C793 C792 1.374 . S
C794 C791 1.499 . S
C794 C795 1.373 . S
C794 C796 1.389 . S
C795 H774 0.950 . S
C795 C794 1.373 . S
C795 C811 1.377 . S
C796 C794 1.389 . S
C796 C797 1.524 . S
C796 C810 1.377 . S
C797 C796 1.524 . S
C797 C798 1.397 . S
C797 C802 1.363 . S
C798 H775 0.950 . S
C798 C797 1.397 . S
C798 C799 1.334 . S
C799 H776 0.950 . S
C799 C798 1.334 . S
C799 C800 1.287 . S
C800 C799 1.287 . S
C800 C801 1.524 . S
C800 H819 0.913 . S
C801 H777 0.950 . S
C801 C800 1.524 . S
C801 C802 1.415 . S
C802 H778 0.950 . S
C802 C797 1.363 . S
C802 C801 1.415 . S
C803 H779 0.951 . S
C803 C804 1.366 . S
C803 C805 1.388 . S
C804 C803 1.366 . S
C804 C808 1.385 . S
C805 H780 0.951 . S
C805 C803 1.388 . S
C805 C806 1.366 . S
C806 C805 1.366 . S
C806 C807 1.414 . S
C806 C809 1.499 . S
C807 H781 0.950 . S
C807 C806 1.414 . S
C807 C808 1.374 . S
C808 H782 0.950 . S
C808 C804 1.385 . S
C808 C807 1.374 . S
C809 C806 1.499 . S
C809 C810 1.373 . S
C809 C811 1.389 . S
C810 H783 0.950 . S
C810 C796 1.377 . S
C810 C809 1.373 . S
C811 C795 1.377 . S
C811 C809 1.389 . S
C811 C812 1.524 . S
C812 C811 1.524 . S
C812 C813 1.397 . S
C812 C817 1.363 . S
C813 H784 0.950 . S
C813 C812 1.397 . S
C813 C814 1.334 . S
C814 H785 0.950 . S
C814 C813 1.334 . S
C814 C815 1.287 . S
C815 C814 1.287 . S
C815 C816 1.524 . S
C815 H818 0.999 . S
C816 H786 0.950 . S
C816 C815 1.524 . S
C816 C817 1.415 . S
C817 H787 0.950 . S
C817 C812 1.363 . S
C817 C816 1.415 . S
H818 C815 0.999 . S
H819 C800 0.913 . S
H820 C838 0.951 . S
H821 C840 0.951 . S
H822 C842 0.950 . S
H823 C843 0.950 . S
H824 C845 0.950 . S
H825 C848 0.950 . S
H826 C849 0.950 . S
H827 C851 0.950 . S
H828 C852 0.950 . S
H829 C853 0.951 . S
H830 C855 0.951 . S
H831 C857 0.950 . S
H832 C858 0.950 . S
H833 C860 0.950 . S
H834 C863 0.950 . S
H835 C864 0.949 . S
H836 C866 0.950 . S
H837 C867 0.950 . S
C838 H820 0.951 . S
C838 C839 1.366 . S
C838 C840 1.388 . S
C839 C838 1.366 . S
C839 C843 1.385 . S
C840 H821 0.951 . S
C840 C838 1.388 . S
C840 C841 1.366 . S
C841 C840 1.366 . S
C841 C842 1.414 . S
C841 C844 1.499 . S
C842 H822 0.950 . S
C842 C841 1.414 . S
C842 C843 1.374 . S
C843 H823 0.950 . S
C843 C839 1.385 . S
C843 C842 1.374 . S
C844 C841 1.499 . S
C844 C845 1.373 . S
C844 C846 1.389 . S
C845 H824 0.950 . S
C845 C844 1.373 . S
C845 C861 1.377 . S
C846 C844 1.389 . S
C846 C847 1.524 . S
C846 C860 1.377 . S
C847 C846 1.524 . S
C847 C848 1.397 . S
C847 C852 1.363 . S
C848 H825 0.950 . S
C848 C847 1.397 . S
C848 C849 1.334 . S
C849 H826 0.950 . S
C849 C848 1.334 . S
C849 C850 1.287 . S
C850 C849 1.287 . S
C850 C851 1.524 . S
C850 H869 0.913 . S
C851 H827 0.950 . S
C851 C850 1.524 . S
C851 C852 1.415 . S
C852 H828 0.950 . S
C852 C847 1.363 . S
C852 C851 1.415 . S
C853 H829 0.951 . S
C853 C854 1.366 . S
C853 C855 1.388 . S
C854 C853 1.366 . S
C854 C858 1.385 . S
C855 H830 0.951 . S
C855 C853 1.388 . S
C855 C856 1.366 . S
C856 C855 1.366 . S
C856 C857 1.414 . S
C856 C859 1.499 . S
C857 H831 0.950 . S
C857 C856 1.414 . S
C857 C858 1.374 . S
C858 H832 0.950 . S
C858 C854 1.385 . S
C858 C857 1.374 . S
C859 C856 1.499 . S
C859 C860 1.373 . S
C859 C861 1.389 . S
C860 H833 0.950 . S
C860 C846 1.377 . S
C860 C859 1.373 . S
C861 C845 1.377 . S
C861 C859 1.389 . S
C861 C862 1.524 . S
C862 C861 1.524 . S
C862 C863 1.397 . S
C862 C867 1.363 1_655 S
C863 H834 0.950 . S
C863 C862 1.397 . S
C863 C864 1.338 . S
C864 H835 0.949 . S
C864 C863 1.338 . S
C864 C865 1.284 1_655 S
C865 C864 1.284 1_455 S
C865 C866 1.524 . S
C865 H868 0.999 . S
C866 H836 0.950 . S
C866 C865 1.524 . S
C866 C867 1.415 . S
C867 H837 0.950 . S
C867 C862 1.363 1_455 S
C867 C866 1.415 . S
H868 C865 0.999 . S
H869 C850 0.913 . S
H870 C888 0.951 . S
H871 C890 0.951 . S
H872 C892 0.950 . S
H873 C893 0.950 . S
H874 C895 0.950 . S
H875 C898 0.950 . S
H876 C899 0.950 . S
H877 C901 0.950 . S
H878 C902 0.950 . S
H879 C903 0.951 . S
H880 C905 0.951 . S
H881 C907 0.950 . S
H882 C908 0.950 . S
H883 C910 0.950 . S
H884 C913 0.950 . S
H885 C914 0.950 . S
H886 C916 0.950 . S
H887 C917 0.950 . S
C888 H870 0.951 . S
C888 C889 1.366 . S
C888 C890 1.388 . S
C889 C888 1.366 . S
C889 C893 1.385 . S
C890 H871 0.951 . S
C890 C888 1.388 . S
C890 C891 1.366 . S
C891 C890 1.366 . S
C891 C892 1.414 . S
C891 C894 1.499 . S
C892 H872 0.950 . S
C892 C891 1.414 . S
C892 C893 1.374 . S
C893 H873 0.950 . S
C893 C889 1.385 . S
C893 C892 1.374 . S
C894 C891 1.499 . S
C894 C895 1.373 . S
C894 C896 1.389 . S
C895 H874 0.950 . S
C895 C894 1.373 . S
C895 C911 1.377 . S
C896 C894 1.389 . S
C896 C897 1.524 . S
C896 C910 1.377 . S
C897 C896 1.524 . S
C897 C898 1.397 1_565 S
C897 C902 1.363 . S
C898 H875 0.950 . S
C898 C897 1.397 1_545 S
C898 C899 1.334 . S
C899 H876 0.950 . S
C899 C898 1.334 . S
C899 C900 1.287 . S
C900 C899 1.287 . S
C900 C901 1.524 . S
C900 H919 0.913 . S
C901 H877 0.950 . S
C901 C900 1.524 . S
C901 C902 1.415 1_545 S
C902 H878 0.950 . S
C902 C897 1.363 . S
C902 C901 1.415 1_565 S
C903 H879 0.951 . S
C903 C904 1.366 . S
C903 C905 1.388 . S
C904 C903 1.366 . S
C904 C908 1.385 . S
C905 H880 0.951 . S
C905 C903 1.388 . S
C905 C906 1.366 . S
C906 C905 1.366 . S
C906 C907 1.414 . S
C906 C909 1.499 . S
C907 H881 0.950 . S
C907 C906 1.414 . S
C907 C908 1.374 . S
C908 H882 0.950 . S
C908 C904 1.385 . S
C908 C907 1.374 . S
C909 C906 1.499 . S
C909 C910 1.373 . S
C909 C911 1.389 . S
C910 H883 0.950 . S
C910 C896 1.377 . S
C910 C909 1.373 . S
C911 C895 1.377 . S
C911 C909 1.389 . S
C911 C912 1.524 . S
C912 C911 1.524 . S
C912 C913 1.397 . S
C912 C917 1.363 . S
C913 H884 0.950 . S
C913 C912 1.397 . S
C913 C914 1.334 . S
C914 H885 0.950 . S
C914 C913 1.334 . S
C914 C915 1.287 . S
C915 C914 1.287 . S
C915 C916 1.524 . S
C915 H918 0.999 . S
C916 H886 0.950 . S
C916 C915 1.524 . S
C916 C917 1.415 . S
C917 H887 0.950 . S
C917 C912 1.363 . S
C917 C916 1.415 . S
H918 C915 0.999 . S
H919 C900 0.913 . S
H920 C938 0.951 . S
H921 C940 0.951 . S
H922 C942 0.950 . S
H923 C943 0.950 . S
H924 C945 0.950 . S
H925 C948 0.950 . S
H926 C949 0.950 . S
H927 C951 0.950 . S
H928 C952 0.950 . S
H929 C953 0.951 . S
H930 C955 0.951 . S
H931 C957 0.950 . S
H932 C958 0.950 . S
H933 C960 0.950 . S
H934 C963 0.950 . S
H935 C964 0.950 . S
H936 C966 0.950 . S
H937 C967 0.950 . S
C938 H920 0.951 . S
C938 C939 1.366 . S
C938 C940 1.388 . S
C939 C938 1.366 . S
C939 C943 1.385 . S
C940 H921 0.951 . S
C940 C938 1.388 . S
C940 C941 1.366 . S
C941 C940 1.366 . S
C941 C942 1.414 . S
C941 C944 1.499 . S
C942 H922 0.950 . S
C942 C941 1.414 . S
C942 C943 1.374 . S
C943 H923 0.950 . S
C943 C939 1.385 . S
C943 C942 1.374 . S
C944 C941 1.499 . S
C944 C945 1.373 . S
C944 C946 1.389 . S
C945 H924 0.950 . S
C945 C944 1.373 . S
C945 C961 1.377 . S
C946 C944 1.389 . S
C946 C947 1.524 . S
C946 C960 1.377 . S
C947 C946 1.524 . S
C947 C948 1.397 1_655 S
C947 C952 1.363 . S
C948 H925 0.950 . S
C948 C947 1.397 1_455 S
C948 C949 1.334 . S
C949 H926 0.950 . S
C949 C948 1.334 . S
C949 C950 1.287 . S
C950 C949 1.287 . S
C950 C951 1.523 1_455 S
C950 H969 0.913 1_565 S
C951 H927 0.950 . S
C951 C950 1.523 1_655 S
C951 C952 1.415 . S
C952 H928 0.950 . S
C952 C947 1.363 . S
C952 C951 1.415 . S
C953 H929 0.951 . S
C953 C954 1.357 1_455 S
C953 C955 1.388 . S
C954 C953 1.357 1_655 S
C954 C958 1.397 . S
C955 H930 0.951 . S
C955 C953 1.388 . S
C955 C956 1.366 1_455 S
C956 C955 1.366 1_655 S
C956 C957 1.414 . S
C956 C959 1.499 . S
C957 H931 0.950 . S
C957 C956 1.414 . S
C957 C958 1.374 . S
C958 H932 0.950 . S
C958 C954 1.397 . S
C958 C957 1.374 . S
C959 C956 1.499 . S
C959 C960 1.373 . S
C959 C961 1.389 . S
C960 H933 0.950 . S
C960 C946 1.377 . S
C960 C959 1.373 . S
C961 C945 1.377 . S
C961 C959 1.389 . S
C961 C962 1.524 . S
C962 C961 1.524 . S
C962 C963 1.397 . S
C962 C967 1.363 . S
C963 H934 0.950 . S
C963 C962 1.397 . S
C963 C964 1.334 . S
C964 H935 0.950 . S
C964 C963 1.334 . S
C964 C965 1.287 . S
C965 C964 1.287 . S
C965 C966 1.524 . S
C965 H968 0.999 . S
C966 H936 0.950 . S
C966 C965 1.524 . S
C966 C967 1.415 . S
C967 H937 0.950 . S
C967 C962 1.363 . S
C967 C966 1.415 . S
H968 C965 0.999 . S
H969 C950 0.913 1_545 S
H970 C988 0.951 . S
H971 C990 0.951 . S
H972 C992 0.950 . S
H973 C993 0.950 . S
H974 C995 0.950 . S
H975 C998 0.950 . S
H976 C999 0.950 1_545 S
H977 C1001 0.950 1_655 S
H978 C1002 0.950 . S
H979 C1003 0.951 . S
H980 C1005 0.951 . S
H981 C1007 0.950 . S
H982 C1008 0.950 . S
H983 C1010 0.950 . S
H984 C1013 0.950 . S
H985 C1014 0.950 . S
H986 C1016 0.950 . S
H987 C1017 0.965 . S
C988 H970 0.951 . S
C988 C989 1.366 . S
C988 C990 1.388 . S
C989 C988 1.366 . S
C989 C993 1.385 . S
C990 H971 0.951 . S
C990 C988 1.388 . S
C990 C991 1.366 . S
C991 C990 1.366 . S
C991 C992 1.414 . S
C991 C994 1.499 . S
C992 H972 0.950 . S
C992 C991 1.414 . S
C992 C993 1.374 . S
C993 H973 0.950 . S
C993 C989 1.385 . S
C993 C992 1.374 . S
C994 C991 1.499 . S
C994 C995 1.373 . S
C994 C996 1.389 . S
C995 H974 0.950 . S
C995 C994 1.373 . S
C995 C1011 1.377 . S
C996 C994 1.389 . S
C996 C997 1.524 . S
C996 C1010 1.377 . S
C997 C996 1.524 . S
C997 C998 1.397 . S
C997 C1002 1.363 . S
C998 H975 0.950 . S
C998 C997 1.397 . S
C998 C999 1.334 . S
C999 H976 0.950 1_565 S
C999 C998 1.334 . S
C999 C1000 1.287 . S
C1000 C999 1.287 . S
C1000 C1001 1.524 . S
C1000 H1019 0.913 1_455 S
C1001 H977 0.950 1_455 S
C1001 C1000 1.524 . S
C1001 C1002 1.415 . S
C1002 H978 0.950 . S
C1002 C997 1.363 . S
C1002 C1001 1.415 . S
C1003 H979 0.951 . S
C1003 C1004 1.363 1_545 S
C1003 C1005 1.388 . S
C1004 C1003 1.363 1_565 S
C1004 C1008 1.392 . S
C1005 H980 0.951 . S
C1005 C1003 1.388 . S
C1005 C1006 1.366 1_545 S
C1006 C1005 1.366 1_565 S
C1006 C1007 1.414 . S
C1006 C1009 1.499 . S
C1007 H981 0.950 . S
C1007 C1006 1.414 . S
C1007 C1008 1.374 . S
C1008 H982 0.950 . S
C1008 C1004 1.392 . S
C1008 C1007 1.374 . S
C1009 C1006 1.499 . S
C1009 C1010 1.373 . S
C1009 C1011 1.389 . S
C1010 H983 0.950 . S
C1010 C996 1.377 . S
C1010 C1009 1.373 . S
C1011 C995 1.377 . S
C1011 C1009 1.389 . S
C1011 C1012 1.524 . S
C1012 C1011 1.524 . S
C1012 C1013 1.397 . S
C1012 C1017 1.363 . S
C1013 H984 0.950 . S
C1013 C1012 1.397 . S
C1013 C1014 1.334 . S
C1014 H985 0.950 . S
C1014 C1013 1.334 . S
C1014 C1015 1.287 . S
C1015 C1014 1.287 . S
C1015 C1016 1.524 . S
C1015 H1018 0.999 . S
C1016 H986 0.950 . S
C1016 C1015 1.524 . S
C1016 C1017 1.415 . S
C1017 H987 0.965 . S
C1017 C1012 1.363 . S
C1017 C1016 1.415 . S
H1018 C1015 0.999 . S
H1019 C1000 0.913 1_655 S
C139 C68 2.122 1_566 S
C154 C8 2.123 1_556 S
C189 C88 2.122 . S
C204 C28 2.123 . S
C239 C108 2.123 . S
C254 C48 2.123 1_655 S
C289 C1 1.408 . S
C304 C42 1.374 . S
C339 C21 1.408 . S
C354 C62 1.374 . S
C389 C41 1.408 . S
C404 C82 1.374 . S
C439 C61 1.409 . S
C454 C102 1.374 . S
C489 C81 1.408 . S
C504 C2 1.373 . S
C539 C101 1.408 . S
C554 C22 1.374 . S
C589 C9 0.997 . S
C604 C69 0.997 . S
C639 C29 0.986 . S
C654 C89 0.987 . S
C689 C49 0.987 . S
C704 C109 0.987 . S
C739 C18 1.688 . S
C754 C39 1.721 . S
C789 C38 1.688 . S
C804 C59 1.721 . S
C839 C58 1.687 . S
C854 C79 1.720 . S
C889 C78 1.688 . S
C904 C99 1.721 . S
C939 C98 1.688 . S
C954 C119 1.716 1_655 S
C989 C118 1.688 . S
C1004 C19 1.717 1_565 S
