# Generated by pormake.
# Topology wjd, (6)-cn, num edge types: 1
# Building blocks:
#     Node 0, Type 0, BuildingBlock: KUMBOL_clean_sbu_1, # of connection points: 6
#     Node 1, Type 0, BuildingBlock: KUMBOL_clean_sbu_1, # of connection points: 6
#     Node 2, Type 0, BuildingBlock: KUMBOL_clean_sbu_1, # of connection points: 6
#     Node 3, Type 0, BuildingBlock: KUMBOL_clean_sbu_1, # of connection points: 6
#     Node 4, Type 0, BuildingBlock: KUMBOL_clean_sbu_1, # of connection points: 6
#     Node 5, Type 0, BuildingBlock: KUMBOL_clean_sbu_1, # of connection points: 6
#     Node 6, Type 0, BuildingBlock: KUMBOL_clean_sbu_1, # of connection points: 6
#     Node 7, Type 0, BuildingBlock: KUMBOL_clean_sbu_1, # of connection points: 6
#     Node 8, Type 0, BuildingBlock: KUMBOL_clean_sbu_1, # of connection points: 6
#     Node 9, Type 0, BuildingBlock: KUMBOL_clean_sbu_1, # of connection points: 6
#     Node 10, Type 0, BuildingBlock: KUMBOL_clean_sbu_1, # of connection points: 6
#     Node 11, Type 0, BuildingBlock: KUMBOL_clean_sbu_1, # of connection points: 6
#     Edge 12, Type (0, 0), BuildingBlock: XIVTED_clean_linker_0, # of connection points: 2
#     Edge 13, Type (0, 0), BuildingBlock: XIVTED_clean_linker_0, # of connection points: 2
#     Edge 14, Type (0, 0), BuildingBlock: XIVTED_clean_linker_0, # of connection points: 2
#     Edge 15, Type (0, 0), BuildingBlock: XIVTED_clean_linker_0, # of connection points: 2
#     Edge 16, Type (0, 0), BuildingBlock: XIVTED_clean_linker_0, # of connection points: 2
#     Edge 17, Type (0, 0), BuildingBlock: XIVTED_clean_linker_0, # of connection points: 2
#     Edge 18, Type (0, 0), BuildingBlock: XIVTED_clean_linker_0, # of connection points: 2
#     Edge 19, Type (0, 0), BuildingBlock: XIVTED_clean_linker_0, # of connection points: 2
#     Edge 20, Type (0, 0), BuildingBlock: XIVTED_clean_linker_0, # of connection points: 2
#     Edge 21, Type (0, 0), BuildingBlock: XIVTED_clean_linker_0, # of connection points: 2
#     Edge 22, Type (0, 0), BuildingBlock: XIVTED_clean_linker_0, # of connection points: 2
#     Edge 23, Type (0, 0), BuildingBlock: XIVTED_clean_linker_0, # of connection points: 2
#     Edge 24, Type (0, 0), BuildingBlock: XIVTED_clean_linker_0, # of connection points: 2
#     Edge 25, Type (0, 0), BuildingBlock: XIVTED_clean_linker_0, # of connection points: 2
#     Edge 26, Type (0, 0), BuildingBlock: XIVTED_clean_linker_0, # of connection points: 2
#     Edge 27, Type (0, 0), BuildingBlock: XIVTED_clean_linker_0, # of connection points: 2
#     Edge 28, Type (0, 0), BuildingBlock: XIVTED_clean_linker_0, # of connection points: 2
#     Edge 29, Type (0, 0), BuildingBlock: XIVTED_clean_linker_0, # of connection points: 2
#     Edge 30, Type (0, 0), BuildingBlock: XIVTED_clean_linker_0, # of connection points: 2
#     Edge 31, Type (0, 0), BuildingBlock: XIVTED_clean_linker_0, # of connection points: 2
#     Edge 32, Type (0, 0), BuildingBlock: XIVTED_clean_linker_0, # of connection points: 2
#     Edge 33, Type (0, 0), BuildingBlock: XIVTED_clean_linker_0, # of connection points: 2
#     Edge 34, Type (0, 0), BuildingBlock: XIVTED_clean_linker_0, # of connection points: 2
#     Edge 35, Type (0, 0), BuildingBlock: XIVTED_clean_linker_0, # of connection points: 2
#     Edge 36, Type (0, 0), BuildingBlock: XIVTED_clean_linker_0, # of connection points: 2
#     Edge 37, Type (0, 0), BuildingBlock: XIVTED_clean_linker_0, # of connection points: 2
#     Edge 38, Type (0, 0), BuildingBlock: XIVTED_clean_linker_0, # of connection points: 2
#     Edge 39, Type (0, 0), BuildingBlock: XIVTED_clean_linker_0, # of connection points: 2
#     Edge 40, Type (0, 0), BuildingBlock: XIVTED_clean_linker_0, # of connection points: 2
#     Edge 41, Type (0, 0), BuildingBlock: XIVTED_clean_linker_0, # of connection points: 2
#     Edge 42, Type (0, 0), BuildingBlock: XIVTED_clean_linker_0, # of connection points: 2
#     Edge 43, Type (0, 0), BuildingBlock: XIVTED_clean_linker_0, # of connection points: 2
#     Edge 44, Type (0, 0), BuildingBlock: XIVTED_clean_linker_0, # of connection points: 2
#     Edge 45, Type (0, 0), BuildingBlock: XIVTED_clean_linker_0, # of connection points: 2
#     Edge 46, Type (0, 0), BuildingBlock: XIVTED_clean_linker_0, # of connection points: 2
#     Edge 47, Type (0, 0), BuildingBlock: XIVTED_clean_linker_0, # of connection points: 2
# Relax obj value: 0.072
# Max RMSD: 0.186
# Mean RMSD: 0.186
data_MOF--net-wjd--node1-KUMBOL_clean_sbu_1--edge1-XIVTED_clean_linker_0
_symmetry_space_group_name_H-M    P1
_symmetry_Int_Tables_number       1
_symmetry_cell_setting            triclinic
loop_
_symmetry_equiv_pos_as_xyz
'x, y, z'
_cell_length_a     39.480441
_cell_length_b     39.393688
_cell_length_c     53.143412
_cell_angle_alpha  89.966006
_cell_angle_beta   89.944509
_cell_angle_gamma 120.06691
loop_
_atom_site_label
_atom_site_type_symbol
_atom_site_fract_x
_atom_site_fract_y
_atom_site_fract_z
_atom_type_partial_charge
C0 C 0.31875 0.21809 0.08437 0.0
C1 C 0.29939 0.25254 0.11369 0.0
C2 C 0.31838 0.23103 0.10866 0.0
C3 C 0.28055 0.2605 0.09408 0.0
C4 C 0.30023 0.22638 0.0646 0.0
C5 C 0.28099 0.24749 0.06961 0.0
N6 N 0.33768 0.19782 0.08006 0.0
C7 C 0.3398 0.18552 0.05644 0.0
C8 C 0.30177 0.21335 0.04033 0.0
C9 C 0.32177 0.19295 0.03624 0.0
Gd10 Gd 0.31309 0.0839 0.15435 0.0
Gd11 Gd 0.36645 0.1864 0.11505 0.0
N12 N 0.33625 0.22221 0.12738 0.0
C13 C 0.29992 0.26541 0.1383 0.0
C14 C 0.33875 0.23664 0.15103 0.0
C15 C 0.32003 0.25776 0.15698 0.0
H16 H 0.35568 0.23272 0.16529 0.0
H17 H 0.32155 0.26854 0.17591 0.0
H18 H 0.32939 0.03814 0.10651 0.0
H19 H 0.35607 0.17068 0.05311 0.0
H20 H 0.36173 0.9994 0.09945 0.0
H21 H 0.2855 0.28185 0.14296 0.0
H22 H 0.26568 0.27685 0.09763 0.0
H23 H 0.32502 0.1083 0.2156 0.0
H24 H 0.28793 0.21917 0.02463 0.0
H25 H 0.32352 0.18317 0.01751 0.0
H26 H 0.41169 0.99407 0.18077 0.0
H27 H 0.26651 0.25406 0.05466 0.0
H28 H 0.39095 0.06095 0.24914 0.0
H29 H 0.35712 0.0993 0.25276 0.0
N30 N 0.34268 0.0776 0.19086 0.0
C31 C 0.36029 0.05567 0.18854 0.0
C32 C 0.34089 0.09273 0.21361 0.0
C33 C 0.37741 0.06533 0.23267 0.0
C34 C 0.35848 0.08712 0.23478 0.0
C35 C 0.37833 0.04912 0.20939 0.0
H36 H 0.41074 0.02139 0.2222 0.0
N37 N 0.34441 0.04825 0.14508 0.0
C38 C 0.36082 0.0402 0.16507 0.0
C39 C 0.3799 1.0033 0.13807 0.0
C40 C 0.37941 0.01786 0.16201 0.0
C41 C 0.34394 0.03332 0.1219 0.0
C42 C 0.36195 0.01095 0.11796 0.0
O43 O 0.3 0.15402 0.11771 0.0
O44 O 0.28623 0.12274 0.15604 0.0
O45 O 0.25947 0.02688 0.14547 0.0
O46 O 0.27333 0.05081 0.1836 0.0
O47 O 0.38203 0.18781 0.15664 0.0
O48 O 0.32473 0.139 0.17364 0.0
O49 O 0.37995 0.11506 0.1509 0.0
O50 O 0.38791 0.14384 0.11256 0.0
O51 O 0.42101 0.23714 0.12724 0.0
O52 O 0.40928 0.22544 0.0876 0.0
O53 O 0.29704 0.0823 0.11327 0.0
O54 O 0.35113 0.13142 0.09222 0.0
C55 C 0.27744 0.13916 0.13755 0.0
C56 C 0.35948 0.1699 0.17612 0.0
C57 C 0.21562 0.9878 0.18086 0.0
C58 C 0.15034 0.92928 0.17966 0.0
C59 C 0.18543 0.9518 0.21933 0.0
C60 C 0.21686 0.98243 0.20696 0.0
C61 C 0.15241 0.92564 0.20591 0.0
C62 C 0.18211 0.961 0.16711 0.0
C63 C 0.24936 0.02235 0.16918 0.0
C64 C 0.39724 0.01114 0.18278 0.0
C65 C 0.39673 0.02674 0.20639 0.0
H66 H 0.39391 0.98603 0.13493 0.0
C67 C 0.40233 0.13459 0.1317 0.0
C68 C 0.3184 0.09676 0.09277 0.0
C69 C 0.44386 0.29218 0.10049 0.0
C70 C 0.49018 0.36216 0.1068 0.0
C71 C 0.42803 0.34111 0.08596 0.0
C72 C 0.41827 0.30206 0.08853 0.0
C73 C 0.4636 0.37096 0.0951 0.0
C74 C 0.48023 0.32252 0.1094 0.0
C75 C 0.43202 0.25046 0.10448 0.0
H76 H 0.18659 0.94842 0.23947 0.0
H77 H 0.24217 1.00224 0.21803 0.0
H78 H 0.12815 0.90255 0.21628 0.0
H79 H 0.18086 0.96469 0.14699 0.0
H80 H 0.40795 0.34827 0.07675 0.0
H81 H 0.39069 0.27968 0.08106 0.0
H82 H 0.47069 0.40112 0.09262 0.0
H83 H 0.50032 0.31534 0.11862 0.0
C84 C 0.71651 0.667 0.3443 0.0
C85 C 0.65649 0.64075 0.3687 0.0
C86 C 0.69764 0.66083 0.36738 0.0
C87 C 0.63452 0.62661 0.3465 0.0
C88 C 0.69458 0.65304 0.32198 0.0
C89 C 0.6535 0.6327 0.32322 0.0
N90 N 0.75625 0.68678 0.34367 0.0
C91 C 0.77602 0.69441 0.3214 0.0
C92 C 0.7146 0.66005 0.29907 0.0
C93 C 0.75551 0.6809 0.29878 0.0
Gd94 Gd 0.83624 0.65281 0.41913 0.0
Gd95 Gd 0.78731 0.70684 0.38265 0.0
N96 N 0.71964 0.67389 0.38864 0.0
C97 C 0.63871 0.6356 0.39231 0.0
C98 C 0.70268 0.67048 0.41155 0.0
C99 C 0.66193 0.65083 0.4138 0.0
H100 H 0.72056 0.68271 0.42803 0.0
H101 H 0.64846 0.64756 0.43206 0.0
H102 H 0.8789 0.64312 0.36614 0.0
H103 H 0.80763 0.71122 0.32106 0.0
H104 H 0.94475 0.67196 0.34805 0.0
H105 H 0.60713 0.62032 0.39412 0.0
H106 H 0.60283 0.611 0.34713 0.0
H107 H 0.84774 0.68614 0.47801 0.0
H108 H 0.69873 0.64976 0.28153 0.0
H109 H 0.77124 0.68673 0.28115 0.0
H110 H 0.02924 0.75201 0.41434 0.0
H111 H 0.63614 0.62168 0.30626 0.0
H112 H 0.97063 0.75676 0.49232 0.0
H113 H 0.90205 0.72786 0.50677 0.0
N114 N 0.8854 0.69178 0.44771 0.0
C115 C 0.92282 0.70667 0.4395 0.0
C116 C 0.8776 0.69882 0.47154 0.0
C117 C 0.94695 0.7384 0.47967 0.0
C118 C 0.90826 0.72224 0.48788 0.0
C119 C 0.95465 0.7308 0.45521 0.0
H120 H 0.01782 0.76581 0.45769 0.0
N121 N 0.89776 0.67646 0.39992 0.0
C122 C 0.92916 0.6991 0.41487 0.0
C123 C 0.97317 0.70614 0.38103 0.0
C124 C 0.96769 0.71511 0.40563 0.0
C125 C 0.90316 0.66505 0.37674 0.0
C126 C 0.94077 0.68047 0.36669 0.0
O127 O 0.74842 0.64027 0.38782 0.0
O128 O 0.7718 0.62665 0.4238 0.0
O129 O 0.83582 0.59753 0.41242 0.0
O130 O 0.83731 0.61865 0.45068 0.0
O131 O 0.8019 0.7199 0.42391 0.0
O132 O 0.79615 0.66512 0.44388 0.0
O133 O 0.8676 0.71947 0.41769 0.0
O134 O 0.85208 0.73006 0.37834 0.0
O135 O 0.78829 0.75758 0.39941 0.0
O136 O 0.79123 0.75365 0.35896 0.0
O137 O 0.8158 0.63426 0.37836 0.0
O138 O 0.82768 0.69279 0.36163 0.0
C139 C 0.74515 0.61653 0.40635 0.0
C140 C 0.79238 0.69668 0.44357 0.0
C141 C 0.83766 0.55743 0.44725 0.0
C142 C 0.84207 0.49794 0.44313 0.0
C143 C 0.83224 0.51866 0.48421 0.0
C144 C 0.83262 0.55101 0.47335 0.0
C145 C 0.83676 0.49222 0.46925 0.0
C146 C 0.8428 0.53087 0.43209 0.0
C147 C 0.83728 0.59184 0.43644 0.0
C148 C 0.99948 0.73927 0.42121 0.0
C149 C 0.99298 0.74704 0.44593 0.0
H150 H 1.00229 0.71796 0.37321 0.0
C151 C 0.87697 0.74041 0.39705 0.0
C152 C 0.82029 0.65674 0.35876 0.0
C153 C 0.82759 0.81616 0.37745 0.0
C154 C 0.85468 0.88622 0.38409 0.0
C155 C 0.89772 0.86062 0.37435 0.0
C156 C 0.86548 0.82287 0.37284 0.0
C157 C 0.89244 0.89216 0.38011 0.0
C158 C 0.82217 0.84807 0.38276 0.0
C159 C 0.79418 0.77583 0.37797 0.0
H160 H 0.82822 0.51395 0.50432 0.0
H161 H 0.82871 0.5709 0.48545 0.0
H162 H 0.83618 0.46716 0.47811 0.0
H163 H 0.84669 0.53534 0.41193 0.0
H164 H 0.92685 0.86542 0.37099 0.0
H165 H 0.8702 0.79897 0.36805 0.0
H166 H 0.91778 0.92138 0.38104 0.0
H167 H 0.793 0.84323 0.38621 0.0
C168 C 0.7885 0.10002 0.08904 0.0
C169 C 0.7508 0.05386 0.12214 0.0
C170 C 0.77472 0.09277 0.11374 0.0
C171 C 0.74135 0.02257 0.10559 0.0
C172 C 0.77912 0.06869 0.07241 0.0
C173 C 0.75541 0.02995 0.08081 0.0
N174 N 0.8127 0.13774 0.08169 0.0
C175 C 0.82757 0.14635 0.05787 0.0
C176 C 0.79442 0.07723 0.04795 0.0
C177 C 0.81867 0.11623 0.04064 0.0
Gd178 Gd 0.92914 0.22787 0.14753 0.0
Gd179 Gd 0.82544 0.1859 0.11175 0.0
N180 N 0.78535 0.12365 0.12964 0.0
C181 C 0.73703 0.04752 0.14694 0.0
C182 C 0.76969 0.11761 0.15322 0.0
C183 C 0.74608 0.07956 0.16242 0.0
H184 H 0.77414 0.14178 0.16485 0.0
H185 H 0.73438 0.07498 0.18133 0.0
H186 H 0.9862 0.28075 0.09946 0.0
H187 H 0.846 0.17648 0.05207 0.0
H188 H 0.03254 0.35002 0.08947 0.0
H189 H 0.71869 0.01807 0.15413 0.0
H190 H 0.72317 0.9925 0.11179 0.0
H191 H 0.90944 0.22362 0.20902 0.0
H192 H 0.78782 0.05394 0.0346 0.0
H193 H 0.83051 0.1231 0.02175 0.0
H194 H 0.04219 0.41767 0.1667 0.0
H195 H 0.74798 1.00547 0.06832 0.0
H196 H 0.96687 0.34103 0.23742 0.0
H197 H 0.92153 0.26984 0.24369 0.0
N198 N 0.94356 0.26843 0.18263 0.0
C199 C 0.96878 0.30723 0.17873 0.0
C200 C 0.92784 0.25471 0.20579 0.0
C201 C 0.96077 0.32092 0.22192 0.0
C202 C 0.93533 0.28079 0.22561 0.0
C203 C 0.9783 0.33455 0.19835 0.0
H204 H 0.01238 0.39592 0.20861 0.0
N205 N 0.97397 0.29261 0.13619 0.0
C206 C 0.9849 0.31962 0.15491 0.0
C207 C 0.02857 0.37057 0.12634 0.0
C208 C 0.01193 0.35949 0.15035 0.0
C209 C 0.99177 0.30281 0.11328 0.0
C210 C 0.01883 0.34199 0.10783 0.0
O211 O 0.85653 0.15035 0.11252 0.0
O212 O 0.88333 0.16437 0.15165 0.0
O213 O 0.9754 0.21681 0.13534 0.0
O214 O 0.96294 0.21694 0.17505 0.0
O215 O 0.82829 0.20564 0.15265 0.0
O216 O 0.87347 0.19122 0.16886 0.0
O217 O 0.90573 0.27042 0.14431 0.0
O218 O 0.8671 0.25049 0.10884 0.0
O219 O 0.77152 0.18795 0.11891 0.0
O220 O 0.79251 0.18973 0.08057 0.0
O221 O 0.92514 0.213 0.10614 0.0
O222 O 0.8789 0.22484 0.08776 0.0
C223 C 0.86765 0.1399 0.13287 0.0
C224 C 0.84626 0.2006 0.17197 0.0
C225 C 0.02787 0.23583 0.16384 0.0
C226 C 0.08998 0.23654 0.16565 0.0
C227 C 0.08495 0.2914 0.18218 0.0
C228 C 0.04553 0.27276 0.17545 0.0
C229 C 0.10702 0.27334 0.1775 0.0
C230 C 0.05033 0.21804 0.15862 0.0
C231 C 0.98573 0.21453 0.1583 0.0
C232 C 0.02162 0.38685 0.16988 0.0
C233 C 1.0047 0.37445 0.19377 0.0
H234 H 0.04957 0.40091 0.12208 0.0
C235 C 0.88477 0.27562 0.12705 0.0
C236 C 0.91216 0.22447 0.08705 0.0
C237 C 0.73246 0.19188 0.08414 0.0
C238 C 0.66923 0.18894 0.08776 0.0
C239 C 0.703 0.20362 0.04749 0.0
C240 C 0.73345 0.20076 0.05844 0.0
C241 C 0.67119 0.19784 0.06199 0.0
C242 C 0.69992 0.18559 0.09884 0.0
C243 C 0.7657 0.18942 0.09491 0.0
H244 H 0.09836 0.31977 0.19128 0.0
H245 H 0.02877 0.28691 0.17969 0.0
H246 H 0.13754 0.28827 0.18299 0.0
H247 H 0.03668 0.18935 0.14984 0.0
H248 H 0.7041 0.21047 0.02768 0.0
H249 H 0.75795 0.2057 0.04668 0.0
H250 H 0.64783 0.20016 0.05296 0.0
H251 H 0.69871 0.17875 0.11869 0.0
C252 C 0.36016 0.04645 0.36404 0.0
C253 C 0.35823 1.00234 0.39664 0.0
C254 C 0.34816 0.02993 0.38789 0.0
C255 C 0.38196 0.99315 0.38174 0.0
C256 C 0.38327 0.03669 0.34883 0.0
C257 C 0.39447 0.01031 0.35794 0.0
N258 N 0.34953 0.07251 0.35584 0.0
C259 C 0.35886 0.08801 0.33218 0.0
C260 C 0.39421 0.05358 0.32484 0.0
C261 C 0.38165 0.07908 0.3164 0.0
Gd262 Gd 0.37241 0.1899 0.41881 0.0
Gd263 Gd 0.31151 0.08538 0.38369 0.0
N264 N 0.32538 0.03953 0.40203 0.0
C265 C 0.34328 0.98398 0.41983 0.0
C266 C 0.3076 0.01875 0.42329 0.0
C267 C 0.31721 0.99165 0.43296 0.0
H268 H 0.28513 0.02208 0.43253 0.0
H269 H 0.30384 0.97609 0.45024 0.0
H270 H 0.3516 0.23007 0.36919 0.0
H271 H 0.34849 0.10706 0.32551 0.0
H272 H 0.31775 0.26703 0.36131 0.0
H273 H 0.35037 0.96266 0.42723 0.0
H274 H 0.39026 0.97228 0.38829 0.0
H275 H 0.36608 0.17268 0.48092 0.0
H276 H 0.41189 0.04673 0.31256 0.0
H277 H 0.38938 0.09171 0.29773 0.0
H278 H 0.27783 0.28442 0.4433 0.0
H279 H 0.4124 1.00257 0.34657 0.0
H280 H 0.30639 0.22728 0.51392 0.0
H281 H 0.33914 0.18803 0.51837 0.0
N282 N 0.3477 0.20201 0.45554 0.0
C283 C 0.33034 0.22412 0.45264 0.0
C284 C 0.35121 0.18922 0.47872 0.0
C285 C 0.318 0.22049 0.4974 0.0
C286 C 0.33633 0.19819 0.49999 0.0
C287 C 0.31477 0.23374 0.47354 0.0
H288 H 0.28389 0.26334 0.48581 0.0
N289 N 0.34035 0.22457 0.40851 0.0
C290 C 0.32681 0.23597 0.42852 0.0
C291 C 0.30416 0.26863 0.4004 0.0
C292 C 0.30785 0.25786 0.42491 0.0
C293 C 0.33839 0.23651 0.38474 0.0
C294 C 0.31976 0.25815 0.38027 0.0
O295 O 0.3785 0.11716 0.38235 0.0
O296 O 0.39916 0.15138 0.41963 0.0
O297 O 0.42091 0.24452 0.4048 0.0
O298 O 0.41731 0.23042 0.44443 0.0
O299 O 0.30172 0.09005 0.42521 0.0
O300 O 0.36166 0.13645 0.44153 0.0
O301 O 0.30608 0.15822 0.42055 0.0
O302 O 0.28547 0.12497 0.38317 0.0
O303 O 0.25239 0.03318 0.38754 0.0
O304 O 0.2785 0.05639 0.35069 0.0
O305 O 0.38312 0.18787 0.37677 0.0
O306 O 0.32351 0.13914 0.36228 0.0
C307 C 0.40472 0.13424 0.40023 0.0
C308 C 0.32767 0.10361 0.44352 0.0
C309 C 0.48003 0.27406 0.42761 0.0
C310 C 0.54418 0.33329 0.42457 0.0
C311 C 0.53873 0.27061 0.4352 0.0
C312 C 0.49802 0.25228 0.43393 0.0
C313 C 0.56169 0.31083 0.43068 0.0
C314 C 0.50318 0.3145 0.42269 0.0
C315 C 0.43723 0.25563 0.42681 0.0
C316 C 0.29264 0.26776 0.44575 0.0
C317 C 0.29608 0.25573 0.46997 0.0
H318 H 0.28959 0.28527 0.39685 0.0
C319 C 0.28037 0.14292 0.40232 0.0
C320 C 0.35817 0.16968 0.3584 0.0
C321 C 0.21384 0.99958 0.34959 0.0
C322 C 0.1481 0.94188 0.34838 0.0
C323 C 0.18193 0.97323 0.30948 0.0
C324 C 0.21405 1.0006 0.32313 0.0
C325 C 0.1492 0.94425 0.32192 0.0
C326 C 0.18057 0.9701 0.36227 0.0
C327 C 0.24855 0.02997 0.36314 0.0
H328 H 0.55254 0.25367 0.43997 0.0
H329 H 0.4806 0.22122 0.438 0.0
H330 H 0.59322 0.32448 0.43206 0.0
H331 H 0.48923 0.33149 0.41827 0.0
H332 H 0.18235 0.97458 0.28912 0.0
H333 H 0.23905 0.02281 0.31281 0.0
H334 H 0.12442 0.92378 0.31071 0.0
H335 H 0.18012 0.96884 0.38264 0.0
C336 C 0.91299 0.69641 0.08763 0.0
C337 C 0.96312 0.71014 0.11885 0.0
C338 C 0.92333 0.69305 0.11218 0.0
C339 C 0.99219 0.73082 0.10068 0.0
C340 C 0.94208 0.71699 0.06935 0.0
C341 C 0.98171 0.7342 0.07601 0.0
N342 N 0.8744 0.68 0.08178 0.0
C343 C 0.86279 0.6823 0.05799 0.0
C344 C 0.93044 0.71981 0.04491 0.0
C345 C 0.89063 0.7023 0.03921 0.0
Gd346 Gd 0.78602 0.70622 0.15082 0.0
Gd347 Gd 0.83019 0.6472 0.11444 0.0
N348 N 0.89451 0.67372 0.12958 0.0
C349 C 0.97253 0.70591 0.14359 0.0
C350 C 0.90356 0.66744 0.15325 0.0
C351 C 0.9426 0.68405 0.16076 0.0
H352 H 0.88105 0.64887 0.16629 0.0
H353 H 0.94958 0.67954 0.17971 0.0
H354 H 0.74166 0.72308 0.10222 0.0
H355 H 0.83205 0.66832 0.0534 0.0
H356 H 0.67463 0.70123 0.08787 0.0
H357 H 1.00275 0.71875 0.14948 0.0
H358 H 0.0229 0.74428 0.10552 0.0
H359 H 0.77941 0.67787 0.21081 0.0
H360 H 0.95193 0.73534 0.03031 0.0
H361 H 0.88137 0.70412 0.02034 0.0
H362 H 0.59433 0.62652 0.15749 0.0
H363 H 1.00449 0.75024 0.06223 0.0
H364 H 0.65833 0.61637 0.23142 0.0
H365 H 0.72773 0.64029 0.2421 0.0
N366 N 0.73956 0.67237 0.18216 0.0
C367 C 0.70185 0.66065 0.17606 0.0
C368 C 0.74916 0.66617 0.20567 0.0
C369 C 0.6809 0.63227 0.21747 0.0
C370 C 0.71999 0.6456 0.22358 0.0
C371 C 0.67142 0.63997 0.19354 0.0
H372 H 0.6088 0.61135 0.19967 0.0
N373 N 0.72373 0.68885 0.13559 0.0
C374 C 0.69368 0.66872 0.15203 0.0
C375 C 0.6479 0.66768 0.12147 0.0
C376 C 0.65484 0.65701 0.14522 0.0
C377 C 0.71747 0.70234 0.11347 0.0
C378 C 0.67946 0.69108 0.10572 0.0
O379 O 0.86503 0.71397 0.11504 0.0
O380 O 0.85087 0.72885 0.1537 0.0
O381 O 0.79463 0.76572 0.14451 0.0
O382 O 0.791 0.7421 0.18233 0.0
O383 O 0.81355 0.63203 0.15596 0.0
O384 O 0.82524 0.6909 0.17232 0.0
O385 O 0.74742 0.63921 0.14887 0.0
O386 O 0.76575 0.62402 0.1115 0.0
O387 O 0.82679 0.59205 0.12472 0.0
O388 O 0.82688 0.60652 0.08557 0.0
O389 O 0.80165 0.71925 0.10948 0.0
O390 O 0.79029 0.66113 0.09101 0.0
C391 C 0.8752 0.73662 0.13491 0.0
C392 C 0.81922 0.65531 0.17524 0.0
C393 C 0.80167 0.80765 0.18115 0.0
C394 C 0.80763 0.87248 0.18053 0.0
C395 C 0.8139 0.84468 0.21993 0.0
C396 C 0.80768 0.81115 0.20734 0.0
C397 C 0.81396 0.87512 0.2067 0.0
C398 C 0.80197 0.83868 0.16765 0.0
C399 C 0.79557 0.77147 0.16875 0.0
C400 C 0.62437 0.63594 0.16247 0.0
C401 C 0.63262 0.62744 0.18655 0.0
H402 H 0.61848 0.6593 0.11553 0.0
C403 C 0.74144 0.61442 0.13043 0.0
C404 C 0.79107 0.69511 0.09015 0.0
C405 C 0.86001 0.57224 0.09671 0.0
C406 C 0.88597 0.5279 0.10284 0.0
C407 C 0.92386 0.58906 0.07994 0.0
C408 C 0.89403 0.59778 0.08322 0.0
C409 C 0.92001 0.55449 0.08973 0.0
C410 C 0.8559 0.53694 0.10629 0.0
C411 C 0.82956 0.58292 0.10157 0.0
H412 H 0.81878 0.84711 0.24005 0.0
H413 H 0.80785 0.788 0.21824 0.0
H414 H 0.81937 0.90109 0.217 0.0
H415 H 0.79724 0.83632 0.14749 0.0
H416 H 0.94998 0.60907 0.06959 0.0
H417 H 0.89765 0.62445 0.07506 0.0
H418 H 0.94334 0.54809 0.08653 0.0
H419 H 0.82968 0.51687 0.1166 0.0
C420 C 0.96969 0.29495 0.33356 0.0
C421 C 1.00579 0.36068 0.35088 0.0
C422 C 0.98189 0.31986 0.35421 0.0
C423 C 0.01693 0.37607 0.32648 0.0
C424 C 0.98136 0.31019 0.30911 0.0
C425 C 1.00483 0.35088 0.30565 0.0
N426 N 0.94736 0.25573 0.33743 0.0
C427 C 0.93548 0.22996 0.31783 0.0
C428 C 0.96968 0.284 0.28889 0.0
C429 C 0.94631 0.24372 0.29322 0.0
Gd430 Gd 0.82877 0.18829 0.41571 0.0
Gd431 Gd 0.93332 0.23558 0.37921 0.0
N432 N 0.97075 0.30413 0.37758 0.0
C433 C 0.01817 0.38478 0.3722 0.0
C434 C 0.9833 0.32737 0.39849 0.0
C435 C 1.00698 0.36801 0.39611 0.0
H436 H 0.97448 0.31472 0.41698 0.0
H437 H 0.01651 0.38638 0.4127 0.0
H438 H 0.77707 0.14983 0.36136 0.0
H439 H 0.91846 0.19876 0.32131 0.0
H440 H 0.74477 0.08655 0.33967 0.0
H441 H 0.03655 0.41629 0.37042 0.0
H442 H 0.03524 0.40737 0.32354 0.0
H443 H 0.83646 0.16907 0.47576 0.0
H444 H 0.97917 0.29462 0.26997 0.0
H445 H 0.93719 0.22329 0.27766 0.0
H446 H 0.74004 0.99569 0.40148 0.0
H447 H 0.01398 0.36314 0.28696 0.0
H448 H 0.78884 0.04527 0.48393 0.0
H449 H 0.82171 0.11188 0.50239 0.0
N450 N 0.8127 0.13524 0.44262 0.0
C451 C 0.79357 0.0989 0.43229 0.0
C452 C 0.82229 0.14017 0.46753 0.0
C453 C 0.79517 0.07027 0.47219 0.0
C454 C 0.81381 0.10782 0.48267 0.0
C455 C 0.78465 0.0654 0.44674 0.0
H456 H 0.75907 1.00224 0.44606 0.0
N457 N 0.79226 0.12838 0.39376 0.0
C458 C 0.78341 0.09539 0.40706 0.0
C459 C 0.75071 0.0551 0.37089 0.0
C460 C 0.76317 0.05797 0.39581 0.0
C461 C 0.77616 0.12504 0.37051 0.0
C462 C 0.75638 0.0887 0.35841 0.0
O463 O 0.90746 0.27611 0.38175 0.0
O464 O 0.86976 0.2531 0.41746 0.0
O465 O 0.77304 0.18664 0.40915 0.0
O466 O 0.79707 0.19474 0.44703 0.0
O467 O 0.93722 0.24208 0.42116 0.0
O468 O 0.87903 0.22 0.44385 0.0
O469 O 0.86667 0.1601 0.41774 0.0
O470 O 0.88977 0.17086 0.37769 0.0
O471 O 0.9688 0.21873 0.40118 0.0
O472 O 0.98115 0.2322 0.3615 0.0
O473 O 0.83278 0.2095 0.37488 0.0
O474 O 0.87739 0.19393 0.3603 0.0
C475 C 0.88442 0.27822 0.39893 0.0
C476 C 0.91773 0.23607 0.44236 0.0
C477 C 0.73507 0.19356 0.44329 0.0
C478 C 0.67064 0.18782 0.43906 0.0
C479 C 0.70699 0.21122 0.4781 0.0
C480 C 0.73734 0.20715 0.46802 0.0
C481 C 0.67398 0.20185 0.46372 0.0
C482 C 0.70125 0.18347 0.42882 0.0
C483 C 0.76876 0.1914 0.43289 0.0
C484 C 0.75513 0.02459 0.40993 0.0
C485 C 0.76581 0.02829 0.43533 0.0
H486 H 0.73512 0.02693 0.36155 0.0
C487 C 0.87838 0.14897 0.39797 0.0
C488 C 0.8512 0.20412 0.35597 0.0
C489 C 0.03411 0.24537 0.38797 0.0
C490 C 0.09562 0.2463 0.39483 0.0
C491 C 0.09246 0.30609 0.39932 0.0
C492 C 0.05275 0.28559 0.3933 0.0
C493 C 0.11379 0.28661 0.40019 0.0
C494 C 0.05564 0.22583 0.38854 0.0
C495 C 0.9921 0.22333 0.38242 0.0
H496 H 0.70917 0.22192 0.49713 0.0
H497 H 0.76287 0.21516 0.47954 0.0
H498 H 0.65078 0.20536 0.47194 0.0
H499 H 0.69897 0.17293 0.40971 0.0
H500 H 0.10672 0.33715 0.40341 0.0
H501 H 0.0366 0.30105 0.3929 0.0
H502 H 0.14462 0.30314 0.40486 0.0
H503 H 0.04112 0.19463 0.38465 0.0
C504 C 0.05687 0.35253 0.68921 0.0
C505 C 0.01764 0.37108 0.66375 0.0
C506 C 0.04072 0.35316 0.66607 0.0
C507 C 1.01095 0.38818 0.68495 0.0
C508 C 0.05016 0.36965 0.71052 0.0
C509 C 0.02717 0.38749 0.70825 0.0
N510 N 0.07942 0.33551 0.6908 0.0
C511 C 0.09467 0.33307 0.71333 0.0
C512 C 0.06675 0.36832 0.73352 0.0
C513 C 0.08891 0.34973 0.73495 0.0
Gd514 Gd 0.18793 0.36329 0.61451 0.0
Gd515 Gd 0.08638 0.30779 0.65351 0.0
N516 N 0.04879 0.33753 0.64566 0.0
C517 C 1.00232 0.37164 0.64011 0.0
C518 C 0.03299 0.33698 0.62279 0.0
C519 C 1.00987 0.35431 0.61958 0.0
H520 H 0.03771 0.32289 0.60707 0.0
H521 H 0.99769 0.35408 0.60131 0.0
H522 H 0.24008 0.36524 0.66582 0.0
H523 H 0.11049 0.31737 0.71479 0.0
H524 H 0.27701 0.33402 0.68006 0.0
H525 H 0.98449 0.38515 0.63755 0.0
H526 H 0.99336 0.40216 0.6835 0.0
H527 H 0.16761 0.3399 0.55394 0.0
H528 H 0.06223 0.38116 0.7503 0.0
H529 H 0.10128 0.34791 0.75273 0.0
H530 H 0.28056 0.263 0.60785 0.0
H531 H 0.02175 0.40084 0.72442 0.0
H532 H 0.21763 0.26967 0.53242 0.0
H533 H 0.17942 0.30184 0.52166 0.0
N534 N 0.19802 0.32852 0.58262 0.0
C535 C 0.21956 0.31158 0.58889 0.0
C536 C 0.18383 0.3255 0.55885 0.0
C537 C 0.21237 0.28616 0.54666 0.0
C538 C 0.19072 0.30422 0.54052 0.0
C539 C 0.22716 0.28975 0.57107 0.0
H540 H 0.25513 0.25519 0.56472 0.0
N541 N 0.22544 0.33674 0.63025 0.0
C542 C 0.23374 0.31589 0.61335 0.0
C543 C 0.27091 0.30438 0.64489 0.0
C544 C 0.25622 0.29868 0.62037 0.0
C545 C 0.24231 0.34487 0.65349 0.0
C546 C 0.26441 0.32808 0.66139 0.0
O547 O 0.11516 0.3745 0.6495 0.0
O548 O 0.14826 0.38847 0.61184 0.0
O549 O 0.24026 0.41858 0.62365 0.0
O550 O 0.22515 0.40232 0.58481 0.0
O551 O 0.08413 0.29416 0.61194 0.0
O552 O 0.13356 0.34899 0.59151 0.0
O553 O 0.15351 0.29646 0.61539 0.0
O554 O 0.12682 0.28289 0.65478 0.0
O555 O 0.03132 0.25243 0.64397 0.0
O556 O 0.05344 0.26731 0.68244 0.0
O557 O 0.1882 0.38008 0.65577 0.0
O558 O 0.14226 0.32124 0.67239 0.0
C559 C 0.13399 0.39868 0.63074 0.0
C560 C 0.0986 0.31668 0.59186 0.0
C561 C 0.29282 0.43644 0.59553 0.0
C562 C 0.36344 0.48016 0.60125 0.0
C563 C 0.33896 0.41787 0.57956 0.0
C564 C 0.30064 0.40992 0.58275 0.0
C565 C 0.37012 0.45258 0.58878 0.0
C566 C 0.32449 0.4719 0.60457 0.0
C567 C 0.25185 0.42649 0.60036 0.0
C568 C 0.26356 0.27662 0.60271 0.0
C569 C 0.2491 0.27219 0.57814 0.0
H570 H 0.28815 0.29151 0.65105 0.0
C571 C 0.14187 0.27423 0.63551 0.0
C572 C 0.17138 0.35698 0.67522 0.0
C573 C 0.99258 0.20729 0.679 0.0
C574 C 0.93448 0.14186 0.67677 0.0
C575 C 0.95778 0.1741 0.71722 0.0
C576 C 0.98792 0.20655 0.70531 0.0
C577 C 0.93143 0.14198 0.70317 0.0
C578 C 0.96568 0.17463 0.66463 0.0
C579 C 0.02617 0.24245 0.66771 0.0
H580 H 0.34454 0.39709 0.56975 0.0
H581 H 0.27723 0.38301 0.5751 0.0
H582 H 0.39964 0.45829 0.58563 0.0
H583 H 0.31884 0.49265 0.61441 0.0
H584 H 0.95488 0.17381 0.73749 0.0
H585 H 1.0078 0.23113 0.71691 0.0
H586 H 0.90858 0.1169 0.71311 0.0
H587 H 0.96874 0.17483 0.64436 0.0
C588 C 0.10519 0.79314 0.93732 0.0
C589 C 0.06103 0.75834 0.90293 0.0
C590 C 0.09942 0.78124 0.91234 0.0
C591 C 0.02887 0.74877 0.91868 0.0
C592 C 0.07297 0.78299 0.95334 0.0
C593 C 0.03482 0.76094 0.94383 0.0
N594 N 0.14237 0.81542 0.94584 0.0
C595 C 0.14956 0.82751 0.97027 0.0
C596 C 0.0801 0.7958 0.97836 0.0
C597 C 0.11859 0.81804 0.98688 0.0
Gd598 Gd 0.23673 0.9332 0.87866 0.0
Gd599 Gd 0.19262 0.83018 0.91693 0.0
N600 N 0.13118 0.79124 0.89745 0.0
C601 C 0.05606 0.74488 0.87813 0.0
C602 C 0.12615 0.77442 0.87427 0.0
C603 C 0.08877 0.75224 0.86393 0.0
H604 H 0.15044 0.7764 0.86391 0.0
H605 H 0.08518 0.73997 0.84525 0.0
H606 H 0.3119 0.9775 0.91883 0.0
H607 H 0.17919 0.84412 0.97703 0.0
H608 H 0.38378 0.01873 0.91688 0.0
H609 H 0.0271 0.72732 0.87017 0.0
H610 H 0.99924 0.73153 0.91167 0.0
H611 H 0.20518 0.9133 0.81925 0.0
H612 H 0.05613 0.78865 0.99123 0.0
H613 H 0.12443 0.82782 1.00623 0.0
H614 H 0.41292 0.02918 0.82847 0.0
H615 H 1.00971 0.75314 0.95579 0.0
H616 H 0.30564 0.96527 0.77093 0.0
H617 H 0.23378 0.92558 0.77643 0.0
N618 N 0.26041 0.94331 0.83745 0.0
C619 C 0.29987 0.96524 0.83486 0.0
C620 C 0.2366 0.92945 0.81692 0.0
C621 C 0.29325 0.95905 0.78967 0.0
C622 C 0.25267 0.93675 0.79272 0.0
C623 C 0.3174 0.97372 0.81086 0.0
H624 H 0.3723 1.00352 0.79045 0.0
N625 N 0.30506 0.97036 0.87921 0.0
C626 C 0.32282 0.9797 0.85632 0.0
C627 C 0.3859 0.01709 0.87638 0.0
C628 C 0.36383 1.00304 0.8543 0.0
C629 C 0.32626 0.98464 0.90078 0.0
C630 C 0.367 1.00792 0.89972 0.0
O631 O 0.16286 0.86671 0.91896 0.0
O632 O 0.17205 0.88999 0.87892 0.0
O633 O 0.22967 0.97819 0.89738 0.0
O634 O 0.23192 0.97714 0.85673 0.0
O635 O 0.21131 0.83288 0.87573 0.0
O636 O 0.19398 0.87634 0.86103 0.0
O637 O 0.27716 0.90758 0.88175 0.0
O638 O 0.25755 0.87002 0.91794 0.0
O639 O 0.19185 0.77462 0.91063 0.0
O640 O 0.19892 0.79896 0.94843 0.0
O641 O 0.23836 0.93768 0.92077 0.0
O642 O 0.22857 0.88214 0.94292 0.0
C643 C 0.15065 0.87776 0.89938 0.0
C644 C 0.20375 0.84973 0.85685 0.0
C645 C 0.19188 0.99884 0.87512 0.0
C646 C 0.1636 0.04094 0.8798 0.0
C647 C 0.12179 0.97175 0.87069 0.0
C648 C 0.15448 0.96698 0.87022 0.0
C649 C 0.12624 1.00853 0.87562 0.0
C650 C 0.19648 0.03605 0.87959 0.0
C651 C 0.22581 0.99307 0.87638 0.0
C652 C 0.38143 0.0114 0.8304 0.0
C653 C 0.35829 0.99675 0.80875 0.0
H654 H 0.41749 0.03504 0.87563 0.0
C655 C 0.28216 0.88679 0.89932 0.0
C656 C 0.23843 0.91964 0.94161 0.0
C657 C 0.19819 0.73719 0.94547 0.0
C658 C 0.19394 0.67326 0.94207 0.0
C659 C 0.21164 0.70842 0.98183 0.0
C660 C 0.2086 0.73889 0.97092 0.0
C661 C 0.20451 0.67591 0.96754 0.0
C662 C 0.19043 0.70393 0.93104 0.0
C663 C 0.1959 0.77049 0.93454 0.0
H664 H 0.09298 0.94692 0.86714 0.0
H665 H 0.15064 0.93851 0.86599 0.0
H666 H 0.10063 0.0119 0.87577 0.0
H667 H 0.22534 0.06092 0.88316 0.0
H668 H 0.21973 0.71007 1.00143 0.0
H669 H 0.21463 0.76396 0.98246 0.0
H670 H 0.20711 0.65258 0.97648 0.0
H671 H 0.18241 0.70216 0.91139 0.0
C672 C 0.67341 0.71119 0.68671 0.0
C673 C 0.65316 0.65016 0.66449 0.0
C674 C 0.66892 0.69112 0.66439 0.0
C675 C 0.64061 0.62949 0.68731 0.0
C676 C 0.66204 0.69075 0.70976 0.0
C677 C 0.64499 0.64973 0.70989 0.0
N678 N 0.69081 0.75088 0.68602 0.0
C679 C 0.70012 0.77216 0.70773 0.0
C680 C 0.66917 0.71227 0.73203 0.0
C681 C 0.68871 0.75321 0.731 0.0
Gd682 Gd 0.648 0.82814 0.61418 0.0
Gd683 Gd 0.70788 0.77959 0.64606 0.0
N684 N 0.68098 0.71182 0.6426 0.0
C685 C 0.65092 0.63135 0.64166 0.0
C686 C 0.68142 0.69418 0.62059 0.0
C687 C 0.6655 0.65353 0.61965 0.0
H688 H 0.69321 0.71157 0.60372 0.0
H689 H 0.66469 0.63939 0.60203 0.0
H690 H 0.63922 0.86834 0.66887 0.0
H691 H 0.71662 0.80384 0.70716 0.0
H692 H 0.66752 0.93365 0.68778 0.0
H693 H 0.63876 0.59987 0.64091 0.0
H694 H 0.62808 0.59795 0.68776 0.0
H695 H 0.68259 0.84213 0.55559 0.0
H696 H 0.66072 0.6976 0.75009 0.0
H697 H 0.69543 0.77031 0.74808 0.0
H698 H 0.74685 0.02116 0.62226 0.0
H699 H 0.63587 0.63347 0.7274 0.0
H700 H 0.7531 0.96596 0.54324 0.0
H701 H 0.72453 0.89791 0.5276 0.0
N702 N 0.68831 0.87852 0.58665 0.0
C703 C 0.70254 0.91564 0.59544 0.0
C704 C 0.69522 0.87178 0.56254 0.0
C705 C 0.73468 0.94165 0.55555 0.0
C706 C 0.71874 0.90325 0.54666 0.0
C707 C 0.72668 0.94825 0.58018 0.0
H708 H 0.7613 0.01167 0.57866 0.0
N709 N 0.67152 0.88876 0.63469 0.0
C710 C 0.69434 0.92088 0.62019 0.0
C711 C 0.70103 0.96353 0.65483 0.0
C712 C 0.71009 0.9591 0.63004 0.0
C713 C 0.66058 0.89316 0.65829 0.0
C714 C 0.67579 0.93044 0.66889 0.0
O715 O 0.64627 0.73544 0.63229 0.0
O716 O 0.60979 0.76686 0.62844 0.0
O717 O 0.60214 0.8435 0.61676 0.0
O718 O 0.60914 0.81699 0.58235 0.0
O719 O 0.71404 0.79388 0.60485 0.0
O720 O 0.65646 0.78624 0.58854 0.0
O721 O 0.71453 0.85745 0.61291 0.0
O722 O 0.72786 0.84352 0.65179 0.0
O723 O 0.76037 0.79025 0.62622 0.0
O724 O 0.75689 0.78249 0.66653 0.0
O725 O 0.63182 0.80729 0.65489 0.0
O726 O 0.69087 0.81704 0.66845 0.0
C727 C 0.61288 0.73518 0.62941 0.0
C728 C 0.68706 0.78104 0.58736 0.0
C729 C 0.55695 0.83308 0.5825 0.0
C730 C 0.4979 0.83823 0.58582 0.0
C731 C 0.51989 0.8288 0.54504 0.0
C732 C 0.55152 0.82846 0.55636 0.0
C733 C 0.49312 0.83337 0.55962 0.0
C734 C 0.53031 0.83867 0.59724 0.0
C735 C 0.59002 0.83129 0.59404 0.0
C736 C 0.73431 0.99164 0.61491 0.0
C737 C 0.7425 0.98624 0.59006 0.0
H738 H 0.71268 0.99239 0.66311 0.0
C739 C 0.73665 0.86811 0.633 0.0
C740 C 0.65486 0.80834 0.67315 0.0
C741 C 0.81859 0.82552 0.64904 0.0
C742 C 0.88906 0.85389 0.64616 0.0
C743 C 0.86151 0.89562 0.65456 0.0
C744 C 0.82399 0.86287 0.6541 0.0
C745 C 0.894 0.89123 0.65045 0.0
C746 C 0.85129 0.82099 0.6454 0.0
C747 C 0.77906 0.79153 0.64669 0.0
H748 H 0.51591 0.82516 0.52487 0.0
H749 H 0.57173 0.8245 0.54463 0.0
H750 H 0.46852 0.83312 0.55042 0.0
H751 H 0.53396 0.84203 0.61747 0.0
H752 H 0.8654 0.9244 0.65819 0.0
H753 H 0.79929 0.86673 0.6577 0.0
H754 H 0.92303 0.91686 0.651 0.0
H755 H 0.8474 0.79217 0.64173 0.0
C756 C 0.21852 0.31906 0.9476 0.0
C757 C 0.25191 0.30005 0.91721 0.0
C758 C 0.23121 0.31958 0.92309 0.0
C759 C 0.25943 0.27989 0.93619 0.0
C760 C 0.22623 0.29907 0.96673 0.0
C761 C 0.24666 0.27942 0.96087 0.0
N762 N 0.19848 0.33804 0.95268 0.0
C763 C 0.18592 0.33881 0.97647 0.0
C764 C 0.21309 0.29938 0.99117 0.0
C765 C 0.19295 0.31943 0.99606 0.0
Gd766 Gd 0.08302 0.31294 0.88302 0.0
Gd767 Gd 0.18785 0.36922 0.91864 0.0
N768 N 0.22266 0.3386 0.90495 0.0
C769 C 0.26449 0.30141 0.89242 0.0
C770 C 0.23678 0.34183 0.88111 0.0
C771 C 0.25725 0.32275 0.87437 0.0
H772 H 0.23322 0.35969 0.8673 0.0
H773 H 0.26784 0.32491 0.85531 0.0
H774 H 0.02542 0.3002 0.93319 0.0
H775 H 0.17087 0.35476 0.98045 0.0
H776 H 0.98403 0.32584 0.94891 0.0
H777 H 0.2804 0.28671 0.88712 0.0
H778 H 0.27518 0.26461 0.93199 0.0
H779 H 0.10473 0.34219 0.82323 0.0
H780 H 0.21847 0.28439 1.00639 0.0
H781 H 0.18293 0.32006 1.01493 0.0
H782 H 0.9806 0.40326 0.88031 0.0
H783 H 0.25278 0.26381 0.97531 0.0
H784 H 0.05017 0.40941 0.80482 0.0
H785 H 0.09226 0.38203 0.79276 0.0
N786 N 0.07211 0.3491 0.85254 0.0
C787 C 0.04812 0.36297 0.85943 0.0
C788 C 0.0873 0.35499 0.82884 0.0
C789 C 0.05595 0.39235 0.81834 0.0
C790 C 0.07978 0.37702 0.81146 0.0
C791 C 0.03962 0.38527 0.84254 0.0
H792 H 1.00864 0.41723 0.83765 0.0
N793 N 0.04197 0.33433 0.89977 0.0
C794 C 0.03294 0.3557 0.88379 0.0
C795 C 0.99131 0.3599 0.91551 0.0
C796 C 1.00792 0.36966 0.89143 0.0
C797 C 0.02304 0.32183 0.92225 0.0
C798 C 0.99834 0.33526 0.93079 0.0
O799 O 0.15445 0.30276 0.91793 0.0
O800 O 0.12222 0.28663 0.88008 0.0
O801 O 0.02938 0.25561 0.89017 0.0
O802 O 0.04991 0.27718 0.852 0.0
O803 O 0.18641 0.38248 0.87681 0.0
O804 O 0.13601 0.3247 0.86081 0.0
O805 O 0.11527 0.38016 0.88349 0.0
O806 O 0.14629 0.39193 0.92127 0.0
O807 O 0.23976 0.42307 0.90664 0.0
O808 O 0.22699 0.41143 0.94621 0.0
O809 O 0.08638 0.2993 0.92414 0.0
O810 O 0.13467 0.35691 0.94223 0.0
C811 C 0.13962 0.2793 0.89858 0.0
C812 C 0.16758 0.35903 0.85781 0.0
C813 C 0.98896 0.2168 0.85406 0.0
C814 C 0.93756 0.14796 0.85212 0.0
C815 C 0.94553 0.19248 0.81798 0.0
C816 C 0.97678 0.22311 0.83055 0.0
C817 C 0.92614 0.15517 0.82858 0.0
C818 C 0.96882 0.17915 0.86508 0.0
C819 C 0.02367 0.24947 0.86604 0.0
C820 C 0.99959 0.39212 0.87469 0.0
C821 C 0.01543 0.39995 0.85034 0.0
H822 H 0.97188 0.36999 0.92208 0.0
C823 C 0.13515 0.40418 0.90189 0.0
C824 C 0.10166 0.32284 0.94362 0.0
C825 C 0.2938 0.44403 0.93386 0.0
C826 C 0.36412 0.48882 0.92841 0.0
C827 C 0.34062 0.42579 0.94892 0.0
C828 C 0.30215 0.41738 0.94597 0.0
C829 C 0.37142 0.46115 0.94015 0.0
C830 C 0.32505 0.48012 0.92531 0.0
C831 C 0.2527 0.4337 0.92947 0.0
H832 H 0.93646 0.19762 0.79983 0.0
H833 H 0.99162 0.2518 0.82175 0.0
H834 H 0.90197 0.13179 0.81837 0.0
H835 H 0.97819 0.17386 0.88311 0.0
H836 H 0.3466 0.4049 0.95822 0.0
H837 H 0.27903 0.39007 0.95332 0.0
H838 H 0.40112 0.46727 0.94305 0.0
H839 H 0.31902 0.50106 0.91606 0.0
C840 C 0.32554 0.97017 0.67164 0.0
C841 C 0.37134 0.01256 0.63977 0.0
C842 C 0.33266 0.9863 0.64754 0.0
C843 C 0.4026 0.02114 0.65609 0.0
C844 C 0.35679 0.97888 0.68811 0.0
C845 C 0.39536 1.00432 0.68016 0.0
N846 N 0.28798 0.94496 0.67867 0.0
C847 C 0.27938 0.92882 0.70215 0.0
C848 C 0.34832 0.96136 0.71198 0.0
C849 C 0.30942 0.93623 0.71901 0.0
Gd850 Gd 0.19347 0.82913 0.61256 0.0
Gd851 Gd 0.24007 0.93377 0.64891 0.0
N852 N 0.30183 0.97711 0.63198 0.0
C853 C 0.37739 0.03014 0.61604 0.0
C854 C 0.30742 0.99692 0.60991 0.0
C855 C 0.34523 0.02282 0.60125 0.0
H856 H 0.28295 0.99418 0.59938 0.0
H857 H 0.34948 0.0378 0.58344 0.0
H858 H 0.13709 0.78359 0.66347 0.0
H859 H 0.24933 0.91064 0.70794 0.0
H860 H 0.06737 0.74844 0.67462 0.0
H861 H 0.40666 0.05051 0.60939 0.0
H862 H 0.43251 0.04109 0.65037 0.0
H863 H 0.19785 0.84623 0.55072 0.0
H864 H 0.37154 0.96713 0.72514 0.0
H865 H 0.30253 0.92263 0.73742 0.0
H866 H 1.00197 0.74024 0.59689 0.0
H867 H 0.4198 0.0113 0.69252 0.0
H868 H 0.08063 0.79759 0.52328 0.0
H869 H 0.15208 0.83385 0.51561 0.0
N870 N 0.15267 0.81787 0.57793 0.0
C871 C 0.11352 0.79752 0.58255 0.0
C872 C 0.16671 0.83075 0.55429 0.0
C873 C 0.10055 0.80304 0.53876 0.0
C874 C 0.14089 0.82359 0.53436 0.0
C875 C 0.08639 0.78968 0.56307 0.0
H876 H 0.02484 0.76278 0.55375 0.0
N877 N 0.12765 0.79369 0.6255 0.0
C878 C 0.10062 0.78482 0.60699 0.0
C879 C 0.0483 0.75137 0.63713 0.0
C880 C 0.06023 0.76389 0.6124 0.0
C881 C 0.11608 0.77968 0.64931 0.0
C882 C 0.07634 0.75894 0.65559 0.0
O883 O 0.2756 0.90218 0.64854 0.0
O884 O 0.2575 0.87194 0.61044 0.0
O885 O 0.19688 0.77825 0.62497 0.0
O886 O 0.19709 0.78984 0.58529 0.0
O887 O 0.22394 0.93093 0.60768 0.0
O888 O 0.2343 0.88328 0.58947 0.0
O889 O 0.15969 0.86161 0.61287 0.0
O890 O 0.17464 0.89345 0.65086 0.0
O891 O 0.23481 0.98678 0.64378 0.0
O892 O 0.2362 0.96429 0.68116 0.0
O893 O 0.2071 0.83 0.6545 0.0
O894 O 0.19858 0.87971 0.67027 0.0
C895 C 0.28042 0.88288 0.63002 0.0
C896 C 0.23279 0.9161 0.5882 0.0
C897 C 0.16429 0.72318 0.59845 0.0
C898 C 0.14013 0.65316 0.60494 0.0
C899 C 0.09889 0.67466 0.58477 0.0
C900 C 0.12859 0.7136 0.58695 0.0
C901 C 0.10446 0.64463 0.59381 0.0
C902 C 0.17017 0.69268 0.6072 0.0
C903 C 0.19451 0.76479 0.60228 0.0
C904 C 0.03311 0.75616 0.59305 0.0
C905 C 0.04614 0.769 0.56846 0.0
H906 H 0.01753 0.73528 0.64207 0.0
C907 C 0.15067 0.87659 0.63195 0.0
C908 C 0.20221 0.84872 0.67344 0.0
C909 C 0.23041 0.02234 0.68093 0.0
C910 C 0.22205 0.07992 0.68098 0.0
C911 C 0.22807 0.05207 0.72047 0.0
C912 C 0.23187 0.02365 0.70738 0.0
C913 C 0.22306 0.07983 0.70747 0.0
C914 C 0.22531 0.05059 0.66767 0.0
C915 C 0.23378 0.99081 0.66808 0.0
H916 H 0.07146 0.66773 0.57596 0.0
H917 H 0.12354 0.73612 0.57954 0.0
H918 H 0.08109 0.61455 0.59162 0.0
H919 H 0.19765 0.69965 0.61603 0.0
H920 H 0.22889 0.05249 0.74083 0.0
H921 H 0.23576 1.00249 0.71814 0.0
H922 H 0.21957 0.10118 0.71829 0.0
H923 H 0.22429 0.05004 0.64729 0.0
C924 C 0.69796 0.91251 0.94333 0.0
C925 C 0.71261 0.96107 0.91062 0.0
C926 C 0.69607 0.92162 0.91821 0.0
C927 C 0.73097 0.99111 0.92851 0.0
C928 C 0.7163 0.94261 0.96132 0.0
C929 C 0.73278 0.98192 0.95377 0.0
N930 N 0.682 0.87419 0.95011 0.0
C931 C 0.68262 0.86387 0.97454 0.0
C932 C 0.71755 0.93228 0.98638 0.0
C933 C 0.70057 0.89274 0.993 0.0
Gd934 Gd 0.71225 0.78221 0.88715 0.0
Gd935 Gd 0.65145 0.8284 0.91789 0.0
N936 N 0.67887 0.89192 0.90117 0.0
C937 C 0.71031 0.96918 0.88524 0.0
C938 C 0.67489 0.89961 0.87668 0.0
C939 C 0.69111 0.93829 0.86825 0.0
H940 H 0.65852 0.87618 0.86364 0.0
H941 H 0.68831 0.94424 0.84871 0.0
H942 H 0.70387 0.72761 0.93755 0.0
H943 H 0.66867 0.83339 0.97996 0.0
H944 H 0.67467 0.65767 0.94856 0.0
H945 H 0.72276 0.99912 0.87865 0.0
H946 H 0.7439 0.0216 0.92299 0.0
H947 H 0.70794 0.78723 0.82437 0.0
H948 H 0.73136 0.95456 1.00076 0.0
H949 H 0.70104 0.88448 1.01237 0.0
H950 H 0.62691 0.59125 0.86963 0.0
H951 H 0.74703 1.00545 0.96733 0.0
H952 H 0.64821 0.66982 0.79591 0.0
H953 H 0.6799 0.74142 0.78873 0.0
N954 N 0.69011 0.74194 0.85165 0.0
C955 C 0.67336 0.7028 0.85606 0.0
C956 C 0.69327 0.75602 0.82781 0.0
C957 C 0.65999 0.68978 0.8117 0.0
C958 C 0.67786 0.73016 0.80753 0.0
C959 C 0.65788 0.67562 0.83617 0.0
H960 H 0.62872 0.61402 0.82625 0.0
N961 N 0.68599 0.71678 0.89951 0.0
C962 C 0.67166 0.68985 0.88064 0.0
C963 C 0.65571 0.63788 0.91064 0.0
C964 C 0.6554 0.64956 0.88579 0.0
C965 C 0.68862 0.70586 0.92339 0.0
C966 C 0.67294 0.66624 0.92946 0.0
O967 O 0.71826 0.8648 0.9166 0.0
O968 O 0.73325 0.84583 0.8796 0.0
O969 O 0.76745 0.79526 0.9039 0.0
O970 O 0.75858 0.78439 0.86383 0.0
O971 O 0.63778 0.80729 0.87689 0.0
O972 O 0.69733 0.81852 0.86216 0.0
O973 O 0.64591 0.74175 0.88989 0.0
O974 O 0.62654 0.76403 0.92384 0.0
O975 O 0.59811 0.8264 0.90493 0.0
O976 O 0.60898 0.8265 0.94471 0.0
O977 O 0.72172 0.80111 0.92791 0.0
O978 O 0.66336 0.7904 0.94471 0.0
C979 C 0.74154 0.87221 0.89716 0.0
C980 C 0.6616 0.8114 0.8582 0.0
C981 C 0.80166 0.76807 0.88432 0.0
C982 C 0.86198 0.76634 0.88973 0.0
C983 C 0.79951 0.70567 0.88826 0.0
C984 C 0.78027 0.72696 0.88507 0.0
C985 C 0.84016 0.72521 0.89077 0.0
C986 C 0.84256 0.78767 0.88636 0.0
C987 C 0.78192 0.79115 0.88283 0.0
C988 C 0.63976 0.62237 0.86602 0.0
C989 C 0.64085 0.63535 0.8413 0.0
H990 H 0.64362 0.6072 0.91538 0.0
C991 C 0.61939 0.73764 0.90657 0.0
C992 C 0.69681 0.79064 0.94665 0.0
C993 C 0.57614 0.85984 0.93124 0.0
C994 C 0.53125 0.88467 0.92405 0.0
C995 C 0.59168 0.92393 0.9471 0.0
C996 C 0.60088 0.89427 0.94461 0.0
C997 C 0.55721 0.91931 0.93681 0.0
C998 C 0.54093 0.85493 0.92122 0.0
C999 C 0.58703 0.8293 0.92753 0.0
H1000 H 0.78286 0.67395 0.88892 0.0
H1001 H 0.74883 0.71135 0.88339 0.0
H1002 H 0.85464 0.70824 0.89326 0.0
H1003 H 0.85918 0.81947 0.88595 0.0
H1004 H 0.61113 0.95039 0.95734 0.0
H1005 H 0.62713 0.89824 0.95344 0.0
H1006 H 0.55025 0.9424 0.9395 0.0
H1007 H 0.52126 0.82822 0.91121 0.0
H1008 H 0.09832 0.20457 0.12186 0.0
H1009 H 0.24692 0.145 0.18233 0.0
H1010 H 0.13544 0.22535 0.19936 0.0
H1011 H 0.23665 0.15503 0.10218 0.0
H1012 H 0.19858 0.16534 0.18914 0.0
H1013 H 0.14155 0.17735 0.11458 0.0
C1014 C 0.11531 0.20304 0.13736 0.0
C1015 C 0.11366 0.21749 0.16118 0.0
C1016 C 0.20675 0.16295 0.17005 0.0
C1017 C 0.16276 0.18639 0.15309 0.0
C1018 C 0.23417 0.15107 0.16612 0.0
C1019 C 0.24592 0.14844 0.14163 0.0
C1020 C 0.19055 0.17187 0.14933 0.0
C1021 C 0.22855 0.15692 0.12137 0.0
C1022 C 0.14007 0.18775 0.13318 0.0
C1023 C 0.1363 0.21499 0.18063 0.0
N1024 N 0.20175 0.16834 0.12567 0.0
N1025 N 0.15988 0.19975 0.17616 0.0
H1026 H 0.10718 0.86513 0.33446 0.0
H1027 H 0.93083 0.79072 0.43121 0.0
H1028 H 0.10761 0.9452 0.39003 0.0
H1029 H 0.9168 0.75787 0.3529 0.0
H1030 H 1.00017 0.83922 0.4229 0.0
H1031 H 0.04219 0.81559 0.34859 0.0
C1032 C 0.09374 0.87221 0.34982 0.0
C1033 C 0.11247 0.90978 0.36061 0.0
C1034 C 0.98169 0.82136 0.40763 0.0
C1035 C 0.03819 0.85274 0.37715 0.0
C1036 C 0.94236 0.79381 0.41232 0.0
C1037 C 0.9182 0.7705 0.39266 0.0
C1038 C 0.99684 0.82468 0.38329 0.0
C1039 C 0.93436 0.77543 0.36854 0.0
C1040 C 0.05667 0.84389 0.35785 0.0
C1041 C 0.0941 0.91674 0.38105 0.0
N1042 N 0.97273 0.8017 0.36459 0.0
N1043 N 0.05764 0.88851 0.38856 0.0
H1044 H 0.84413 0.10037 0.17696 0.0
H1045 H 0.84556 0.91023 0.1367 0.0
H1046 H 0.86106 0.08473 0.09855 0.0
H1047 H 0.76993 0.91097 0.19508 0.0
H1048 H 0.85561 0.97386 0.12163 0.0
H1049 H 0.82277 0.03161 0.18459 0.0
C1050 C 0.84347 0.0824 0.16135 0.0
C1051 C 0.85458 0.09817 0.13713 0.0
C1052 C 0.83627 0.95955 0.13743 0.0
C1053 C 0.83039 0.0194 0.14576 0.0
C1054 C 0.83039 0.92327 0.14595 0.0
C1055 C 0.80755 0.90578 0.1675 0.0
C1056 C 0.8195 0.97826 0.15082 0.0
C1057 C 0.78859 0.92393 0.17881 0.0
C1058 C 0.83095 0.04307 0.16566 0.0
C1059 C 0.85277 0.07347 0.1175 0.0
N1060 N 0.79558 0.95945 0.17065 0.0
N1061 N 0.84136 0.03521 0.12229 0.0
H1062 H 0.24964 0.16229 0.44199 0.0
H1063 H 0.09895 0.19604 0.36042 0.0
H1064 H 0.23708 0.14269 0.36181 0.0
H1065 H 0.14429 0.25023 0.43244 0.0
H1066 H 0.14052 0.16603 0.3624 0.0
H1067 H 0.20202 0.18441 0.44052 0.0
C1068 C 0.23666 0.16241 0.42408 0.0
C1069 C 0.24785 0.1513 0.40193 0.0
C1070 C 0.1412 0.18441 0.37776 0.0
C1071 C 0.1926 0.17579 0.40019 0.0
C1072 C 0.11739 0.20131 0.37672 0.0
C1073 C 0.11851 0.22588 0.39622 0.0
C1074 C 0.1657 0.19168 0.39864 0.0
C1075 C 0.14298 0.23191 0.41686 0.0
C1076 C 0.20943 0.17499 0.42326 0.0
C1077 C 0.22937 0.15116 0.37933 0.0
N1078 N 0.16557 0.21494 0.41754 0.0
N1079 N 0.20272 0.16346 0.379 0.0
H1080 H 0.11079 0.85018 0.18674 0.0
H1081 H 0.92829 0.78331 0.09903 0.0
H1082 H 0.10711 0.94045 0.14278 0.0
H1083 H 0.91686 0.75684 0.17839 0.0
H1084 H 0.99848 0.83086 0.10554 0.0
H1085 H 0.04431 0.80362 0.17324 0.0
C1086 C 0.09622 0.86014 0.17394 0.0
C1087 C 0.11421 0.89965 0.16647 0.0
C1088 C 0.98032 0.81471 0.12142 0.0
C1089 C 0.03843 0.84597 0.15045 0.0
C1090 C 0.94052 0.7877 0.11778 0.0
C1091 C 0.91682 0.7665 0.13828 0.0
C1092 C 0.9964 0.81938 0.14554 0.0
C1093 C 0.93398 0.77291 0.16216 0.0
C1094 C 0.05835 0.8335 0.16628 0.0
C1095 C 0.09426 0.91041 0.14918 0.0
N1096 N 0.97283 0.79839 0.16508 0.0
N1097 N 0.05708 0.8837 0.14188 0.0
H1098 H 0.88273 0.93589 0.42394 0.0
H1099 H 0.85984 0.10216 0.35658 0.0
H1100 H 0.8177 0.9148 0.35507 0.0
H1101 H 0.8791 0.10359 0.43655 0.0
H1102 H 0.8473 0.03473 0.35483 0.0
H1103 H 0.8839 0.99837 0.42873 0.0
C1104 C 0.86814 0.94428 0.41008 0.0
C1105 C 0.85001 0.92044 0.38915 0.0
C1106 C 0.85409 0.04974 0.37278 0.0
C1107 C 0.85206 0.99192 0.39407 0.0
C1108 C 0.86167 0.0883 0.37374 0.0
C1109 C 0.87094 0.10846 0.39671 0.0
C1110 C 0.85663 0.03156 0.39486 0.0
C1111 C 0.87225 0.08901 0.41846 0.0
C1112 C 0.86882 0.97982 0.41278 0.0
C1113 C 0.83171 0.93244 0.37155 0.0
N1114 N 0.86556 0.05171 0.41697 0.0
N1115 N 0.8337 0.96773 0.3742 0.0
H1116 H 0.25923 0.15784 0.6919 0.0
H1117 H 0.14723 0.2263 0.60003 0.0
H1118 H 0.1735 0.07264 0.64121 0.0
H1119 H 0.16545 0.25603 0.67885 0.0
H1120 H 0.17065 0.17942 0.60688 0.0
H1121 H 0.24113 0.20562 0.678 0.0
C1122 C 0.23691 0.1493 0.67758 0.0
C1123 C 0.2171 0.11081 0.66821 0.0
C1124 C 0.16925 0.1962 0.62257 0.0
C1125 C 0.19685 0.16579 0.65192 0.0
C1126 C 0.15598 0.22281 0.61873 0.0
C1127 C 0.15414 0.24474 0.63897 0.0
C1128 C 0.18173 0.19261 0.64663 0.0
C1129 C 0.16601 0.23945 0.66279 0.0
C1130 C 0.22666 0.17661 0.66969 0.0
C1131 C 0.18928 0.10187 0.64908 0.0
N1132 N 0.17968 0.21427 0.66589 0.0
N1133 N 0.17959 0.12913 0.64169 0.0
H1134 H 0.10604 0.86419 0.85725 0.0
H1135 H 0.90421 0.75949 0.92784 0.0
H1136 H 0.10077 0.8667 0.93831 0.0
H1137 H 0.91692 0.81923 0.85744 0.0
H1138 H 0.97572 0.7912 0.93085 0.0
H1139 H 0.03594 0.84116 0.85546 0.0
C1140 C 0.09022 0.86027 0.87468 0.0
C1141 C 0.10912 0.867 0.89803 0.0
C1142 C 0.9628 0.79757 0.91488 0.0
C1143 C 0.02899 0.83986 0.89602 0.0
C1144 C 0.92218 0.7794 0.91309 0.0
C1145 C 0.90495 0.78681 0.89234 0.0
C1146 C 0.98614 0.82257 0.8955 0.0
C1147 C 0.92929 0.81295 0.87375 0.0
C1148 C 0.05027 0.84707 0.8736 0.0
C1149 C 0.08713 0.86124 0.91997 0.0
N1150 N 0.96879 0.82957 0.87558 0.0
N1151 N 0.04801 0.84738 0.91847 0.0
H1152 H 0.75214 0.91016 0.67599 0.0
H1153 H 0.94518 0.09933 0.63925 0.0
H1154 H 0.7883 0.92042 0.59848 0.0
H1155 H 0.85569 0.10367 0.68344 0.0
H1156 H 0.89593 0.03292 0.62499 0.0
H1157 H 0.79929 0.97969 0.68207 0.0
C1158 C 0.77027 0.92706 0.66031 0.0
C1159 C 0.76628 0.90976 0.63669 0.0
C1160 C 0.88721 0.04894 0.63745 0.0
C1161 C 0.82068 0.98905 0.64359 0.0
C1162 C 0.91512 0.08679 0.64545 0.0
C1163 C 0.90466 0.10667 0.66297 0.0
C1164 C 0.84914 0.03109 0.64744 0.0
C1165 C 0.86528 0.089 0.67044 0.0
C1166 C 0.79693 0.96671 0.66372 0.0
C1167 C 0.79049 0.93299 0.61693 0.0
N1168 N 0.83924 0.05197 0.66312 0.0
N1169 N 0.8171 0.9716 0.62085 0.0
H1170 H 0.14788 0.23804 0.93688 0.0
H1171 H 0.19358 0.10294 0.84759 0.0
H1172 H 0.14692 0.24492 0.85587 0.0
H1173 H 0.14134 0.06572 0.92097 0.0
H1174 H 0.19135 0.16391 0.85253 0.0
H1175 H 0.15972 0.18285 0.93332 0.0
C1176 C 0.15018 0.22789 0.91836 0.0
C1177 C 0.14605 0.24568 0.89662 0.0
C1178 C 0.18081 0.14255 0.86763 0.0
C1179 C 0.15993 0.18311 0.89246 0.0
C1180 C 0.18235 0.1081 0.8649 0.0
C1181 C 0.16766 0.07971 0.88395 0.0
C1182 C 0.16495 0.14859 0.88971 0.0
C1183 C 0.15296 0.08719 0.90595 0.0
C1184 C 0.15687 0.19646 0.91635 0.0
C1185 C 0.14937 0.23156 0.87307 0.0
N1186 N 0.15197 0.12101 0.90826 0.0
N1187 N 0.15624 0.2011 0.87159 0.0
H1188 H 0.1024 0.86789 0.59288 0.0
H1189 H 0.9202 0.82522 0.67978 0.0
H1190 H 0.10801 0.87014 0.674 0.0
H1191 H 0.9367 0.87453 0.60536 0.0
H1192 H 0.98319 0.82702 0.67599 0.0
H1193 H 0.0355 0.85631 0.59539 0.0
C1194 C 0.08949 0.86593 0.61121 0.0
C1195 C 0.11073 0.87033 0.63328 0.0
C1196 C 0.97277 0.83704 0.66041 0.0
C1197 C 0.03447 0.8568 0.63625 0.0
C1198 C 0.93692 0.83576 0.66251 0.0
C1199 C 0.92374 0.84977 0.64282 0.0
C1200 C 0.99503 0.85198 0.63836 0.0
C1201 C 0.94621 0.8635 0.62086 0.0
C1202 C 0.05145 0.85938 0.61261 0.0
C1203 C 0.09273 0.86747 0.65655 0.0
N1204 N 0.98091 0.86429 0.61919 0.0
N1205 N 0.05549 0.86077 0.65745 0.0
H1206 H 0.92459 0.08179 0.82818 0.0
H1207 H 0.77576 0.93329 0.93099 0.0
H1208 H 0.90237 0.1218 0.89843 0.0
H1209 H 0.78357 0.90287 0.85405 0.0
H1210 H 0.82755 1.00083 0.92236 0.0
H1211 H 0.88039 0.01421 0.84092 0.0
C1212 C 0.91067 0.0762 0.84648 0.0
C1213 C 0.91669 0.10735 0.86214 0.0
C1214 C 0.81799 0.97926 0.90746 0.0
C1215 C 0.86557 0.02988 0.87685 0.0
C1216 C 0.78821 0.94078 0.91229 0.0
C1217 C 0.77467 0.9125 0.89309 0.0
C1218 C 0.83495 0.98922 0.88339 0.0
C1219 C 0.79282 0.9236 0.86945 0.0
C1220 C 0.8853 0.03762 0.85372 0.0
C1221 C 0.8984 0.09852 0.88582 0.0
N1222 N 0.82188 0.961 0.86529 0.0
N1223 N 0.8732 0.06049 0.89238 0.0
H1224 H 0.42615 0.19495 0.33161 0.0
H1225 H 0.31561 0.18944 0.20467 0.0
H1226 H 0.30971 0.17795 0.32654 0.0
H1227 H 0.42411 0.18825 0.2048 0.0
H1228 H 0.32227 0.20234 0.24967 0.0
H1229 H 0.43426 0.20785 0.28592 0.0
C1230 C 0.40285 0.19513 0.32097 0.0
C1231 C 0.36721 0.18535 0.33262 0.0
C1232 C 0.34515 0.20006 0.23993 0.0
C1233 C 0.37607 0.19983 0.28089 0.0
C1234 C 0.34147 0.19304 0.21419 0.0
C1235 C 0.36947 0.18803 0.20117 0.0
C1236 C 0.37659 0.20109 0.25296 0.0
C1237 C 0.40225 0.19251 0.21429 0.0
C1238 C 0.40732 0.20215 0.29497 0.0
C1239 C 0.33755 0.18516 0.31814 0.0
N1240 N 0.40459 0.19805 0.2397 0.0
N1241 N 0.34257 0.19205 0.29306 0.0
H1242 H 0.88342 0.69494 0.32891 0.0
H1243 H 0.76871 0.59008 0.20268 0.0
H1244 H 0.7668 0.59502 0.33002 0.0
H1245 H 0.87989 0.69714 0.20644 0.0
H1246 H 0.77141 0.58233 0.24861 0.0
H1247 H 0.88702 0.68665 0.28384 0.0
C1248 C 0.8589 0.67053 0.31964 0.0
C1249 C 0.82501 0.64532 0.33315 0.0
C1250 C 0.79563 0.60696 0.23925 0.0
C1251 C 0.82806 0.63644 0.2811 0.0
C1252 C 0.79429 0.6111 0.21306 0.0
C1253 C 0.82425 0.64418 0.20089 0.0
C1254 C 0.82738 0.63593 0.25306 0.0
C1255 C 0.85624 0.67122 0.21516 0.0
C1256 C 0.86077 0.66594 0.29382 0.0
C1257 C 0.79373 0.61456 0.32023 0.0
N1258 N 0.85684 0.66661 0.24041 0.0
N1259 N 0.79573 0.61129 0.29475 0.0
H1260 H 0.82035 0.13758 0.20214 0.0
H1261 H 0.83992 0.25679 0.32828 0.0
H1262 H 0.84004 0.25541 0.20054 0.0
H1263 H 0.83323 0.14437 0.32418 0.0
H1264 H 0.82823 0.25378 0.28243 0.0
H1265 H 0.81133 0.13566 0.24746 0.0
C1266 C 0.82169 0.16273 0.21138 0.0
C1267 C 0.83062 0.19655 0.19767 0.0
C1268 C 0.82856 0.22949 0.29172 0.0
C1269 C 0.822 0.19541 0.24994 0.0
C1270 C 0.83489 0.23108 0.31782 0.0
C1271 C 0.83726 0.20067 0.32987 0.0
C1272 C 0.82422 0.19705 0.27791 0.0
C1273 C 0.83149 0.16837 0.31555 0.0
C1274 C 0.81692 0.16184 0.23733 0.0
C1275 C 0.83252 0.22856 0.21052 0.0
N1276 N 0.8254 0.1675 0.29043 0.0
N1277 N 0.82895 0.22752 0.23612 0.0
H1278 H 0.19356 0.31631 0.70497 0.0
H1279 H 0.18943 0.42593 0.83034 0.0
H1280 H 0.18524 0.42118 0.70331 0.0
H1281 H 0.18057 0.3125 0.82697 0.0
H1282 H 0.20255 0.43356 0.78466 0.0
H1283 H 0.20516 0.32424 0.75008 0.0
C1284 C 0.19522 0.34165 0.71413 0.0
C1285 C 0.18855 0.36817 0.70054 0.0
C1286 C 0.19866 0.40746 0.79408 0.0
C1287 C 0.2003 0.3768 0.75249 0.0
C1288 C 0.19158 0.40331 0.82009 0.0
C1289 C 0.18412 0.36862 0.83224 0.0
C1290 C 0.1987 0.37686 0.78045 0.0
C1291 C 0.18618 0.33967 0.8182 0.0
C1292 C 0.20153 0.34606 0.73994 0.0
C1293 C 0.19077 0.40042 0.71323 0.0
N1294 N 0.19308 0.34436 0.79311 0.0
N1295 N 0.19572 0.40349 0.73871 0.0
H1296 H 0.25523 0.83793 0.82847 0.0
H1297 H 0.14167 0.83349 0.70384 0.0
H1298 H 0.1421 0.82932 0.82641 0.0
H1299 H 0.24897 0.83007 0.70148 0.0
H1300 H 0.1378 0.82228 0.74903 0.0
H1301 H 0.25091 0.82628 0.78265 0.0
C1302 C 0.22904 0.83235 0.81846 0.0
C1303 C 0.19895 0.8345 0.83102 0.0
C1304 C 0.16193 0.8232 0.73875 0.0
C1305 C 0.19392 0.82172 0.77907 0.0
C1306 C 0.16394 0.82936 0.7129 0.0
C1307 C 0.19552 0.83242 0.69906 0.0
C1308 C 0.19232 0.82112 0.7511 0.0
C1309 C 0.22387 0.82726 0.71159 0.0
C1310 C 0.22667 0.82601 0.79237 0.0
C1311 C 0.16594 0.82792 0.81731 0.0
N1312 N 0.22206 0.82262 0.7371 0.0
N1313 N 0.16447 0.82217 0.79212 0.0
H1314 H 0.6955 0.87167 0.70261 0.0
H1315 H 0.59617 0.75998 0.83137 0.0
H1316 H 0.59594 0.75471 0.7036 0.0
H1317 H 0.70526 0.86898 0.82522 0.0
H1318 H 0.58745 0.76115 0.7854 0.0
H1319 H 0.69065 0.87541 0.74803 0.0
C1320 C 0.67197 0.84707 0.71245 0.0
C1321 C 0.64587 0.81302 0.69942 0.0
C1322 C 0.61286 0.78514 0.79424 0.0
C1323 C 0.64081 0.81633 0.75178 0.0
C1324 C 0.61761 0.78464 0.82042 0.0
C1325 C 0.6513 0.81459 0.83196 0.0
C1326 C 0.64187 0.81602 0.7798 0.0
C1327 C 0.6788 0.84541 0.817 0.0
C1328 C 0.66935 0.84902 0.73845 0.0
C1329 C 0.6162 0.78171 0.71305 0.0
N1330 N 0.67353 0.84525 0.79178 0.0
N1331 N 0.61474 0.78386 0.73864 0.0
H1332 H 0.2749 0.99962 0.94338 0.0
H1333 H 0.25667 0.0217 0.08848 0.0
H1334 H 0.23447 0.89866 0.99208 0.0
H1335 H 0.35396 0.11114 0.04605 0.0
H1336 H 0.23973 0.97738 0.05266 0.0
H1337 H 0.29594 0.04188 0.97998 0.0
C1338 C 0.27038 0.98603 0.96172 0.0
C1339 C 0.25249 0.94501 0.96441 0.0
C1340 C 0.2647 1.00675 0.05126 0.0
C1341 C 0.27609 0.99411 1.00671 0.0
C1342 C 0.27431 0.03234 0.07159 0.0
C1343 C 0.30669 0.07069 0.07033 0.0
C1344 C 0.28685 0.01977 0.02914 0.0
C1345 C 0.32842 0.08232 0.04788 0.0
C1346 C 0.28259 0.01048 0.98264 0.0
C1347 C 0.24763 0.92983 0.98893 0.0
N1348 N 0.31785 0.0571 0.02808 0.0
N1349 N 0.25888 0.95437 1.0092 0.0
H1350 H 0.81689 0.77038 0.46011 0.0
H1351 H 0.64533 0.71252 0.56054 0.0
H1352 H 0.73452 0.64941 0.47732 0.0
H1353 H 0.75436 0.82215 0.56133 0.0
H1354 H 0.6709 0.68992 0.52579 0.0
H1355 H 0.78871 0.79074 0.49363 0.0
C1356 C 0.79305 0.74805 0.47118 0.0
C1357 C 0.77828 0.70815 0.46609 0.0
C1358 C 0.68895 0.71905 0.53345 0.0
C1359 C 0.74498 0.73134 0.50423 0.0
C1360 C 0.67415 0.73214 0.55291 0.0
C1361 C 0.6976 0.76943 0.56346 0.0
C1362 C 0.72717 0.74375 0.52439 0.0
C1363 C 0.7352 0.79334 0.55351 0.0
C1364 C 0.77686 0.7597 0.49027 0.0
C1365 C 0.74716 0.68048 0.48094 0.0
N1366 N 0.74873 0.78018 0.53457 0.0
N1367 N 0.73121 0.69259 0.49923 0.0
H1368 H 0.08615 0.36798 0.97571 0.0
H1369 H 0.95076 0.19043 0.06689 0.0
H1370 H 0.06303 0.25003 0.96383 0.0
H1371 H 0.93033 0.28714 0.056 0.0
H1372 H 0.9992 0.2159 0.03305 0.0
H1373 H 0.03748 0.34367 1.01007 0.0
C1374 C 0.07158 0.33721 0.9808 0.0
C1375 C 0.07869 0.31092 0.96716 0.0
C1376 C 0.98388 0.23139 0.03784 0.0
C1377 C 0.02316 0.28307 1.00591 0.0
C1378 C 0.95611 0.21676 0.05704 0.0
C1379 C 0.93625 0.23648 0.06396 0.0
C1380 C 0.99264 0.26657 0.02579 0.0
C1381 C 0.94456 0.27074 0.05083 0.0
C1382 C 0.04345 0.3233 1.00005 0.0
C1383 C 0.05842 0.27121 0.97399 0.0
N1384 N 0.97258 0.28507 0.03251 0.0
N1385 N 0.03171 0.25852 0.99291 0.0
H1386 H 0.37256 0.0836 0.4725 0.0
H1387 H 0.19884 0.95494 0.56838 0.0
H1388 H 0.25746 0.06987 0.46698 0.0
H1389 H 0.29355 0.93219 0.55599 0.0
H1390 H 0.22364 1.00278 0.53417 0.0
H1391 H 0.34889 0.03517 0.50706 0.0
C1392 C 0.34265 0.07112 0.47902 0.0
C1393 C 0.31691 0.08078 0.46711 0.0
C1394 C 0.23884 0.98708 0.53868 0.0
C1395 C 0.28966 0.02545 0.50605 0.0
C1396 C 0.22455 0.95962 0.55809 0.0
C1397 C 0.24398 0.93939 0.56477 0.0
C1398 C 0.27333 0.99504 0.52608 0.0
C1399 C 0.27742 0.94679 0.55106 0.0
C1400 C 0.32902 0.04312 0.49839 0.0
C1401 C 0.2782 0.06322 0.47577 0.0
N1402 N 0.2914 0.97445 0.53249 0.0
N1403 N 0.2658 0.0365 0.49469 0.0
H1404 H 0.7284 0.65 0.05938 0.0
H1405 H 0.76901 0.82598 0.96734 0.0
H1406 H 0.82421 0.76784 0.06969 0.0
H1407 H 0.65193 0.7296 0.97899 0.0
H1408 H 0.79206 0.80158 1.00166 0.0
H1409 H 0.70266 0.6741 0.02575 0.0
C1410 C 0.74446 0.6807 0.05413 0.0
C1411 C 0.77866 0.70697 0.06709 0.0
C1412 C 0.76122 0.78596 0.99699 0.0
C1413 C 0.74935 0.73465 0.02914 0.0
C1414 C 0.748 0.80002 0.97751 0.0
C1415 C 0.70845 0.78003 0.97054 0.0
C1416 C 0.73494 0.751 1.00933 0.0
C1417 C 0.68253 0.74625 0.98415 0.0
C1418 C 0.72946 0.69451 0.0353 0.0
C1419 C 0.79788 0.74662 0.06006 0.0
N1420 N 0.69634 0.73238 1.00271 0.0
N1421 N 0.78308 0.75918 0.04154 0.0
H1422 H 0.11327 0.35412 0.54576 0.0
H1423 H 0.89585 0.22025 0.4927 0.0
H1424 H 0.0243 0.2541 0.58651 0.0
H1425 H 0.99716 0.28365 0.44482 0.0
H1426 H 0.93977 0.24043 0.52933 0.0
H1427 H 0.06824 0.33613 0.51002 0.0
C1428 C 0.0845 0.32832 0.54721 0.0
C1429 C 0.07286 0.30557 0.56925 0.0
C1430 C 0.9521 0.25003 0.51072 0.0
C1431 C 0.02074 0.28548 0.52864 0.0
C1432 C 0.92702 0.23864 0.48981 0.0
C1433 C 0.94247 0.25014 0.46545 0.0
C1434 C 0.9928 0.27369 0.50727 0.0
C1435 C 0.98342 0.27405 0.46306 0.0
C1436 C 0.05872 0.31817 0.52684 0.0
C1437 C 0.03483 0.27258 0.56997 0.0
N1438 N 1.00696 0.28504 0.48359 0.0
N1439 N 1.01012 0.26375 0.55011 0.0
H1440 H 0.61741 0.12634 0.11715 0.0
H1441 H 0.45939 0.19253 0.10406 0.0
H1442 H 0.64235 0.23995 0.09053 0.0
H1443 H 0.44002 0.10004 0.15577 0.0
H1444 H 0.52658 0.20811 0.0988 0.0
H1445 H 0.55322 0.11425 0.13251 0.0
C1446 C 0.60979 0.14906 0.11514 0.0
C1447 C 0.63491 0.18401 0.1023 0.0
C1448 C 0.5079 0.18451 0.11147 0.0
C1449 C 0.56188 0.17023 0.11927 0.0
C1450 C 0.46931 0.17545 0.11441 0.0
C1451 C 0.44381 0.14469 0.13023 0.0
C1452 C 0.52142 0.16227 0.12407 0.0
C1453 C 0.4586 0.12382 0.14327 0.0
C1454 C 0.57317 0.14208 0.12376 0.0
C1455 C 0.62362 0.21241 0.10001 0.0
N1456 N 0.49641 0.13262 0.13963 0.0
N1457 N 0.58787 0.20468 0.10806 0.0
H1458 H 0.72056 0.57252 0.44879 0.0
H1459 H 0.54335 0.38094 0.38663 0.0
H1460 H 0.68839 0.5717 0.37105 0.0
H1461 H 0.60101 0.38391 0.45615 0.0
H1462 H 0.58816 0.4522 0.38191 0.0
H1463 H 0.6681 0.50552 0.45323 0.0
C1464 C 0.70225 0.55831 0.43258 0.0
C1465 C 0.70939 0.5777 0.40935 0.0
C1466 C 0.59078 0.43713 0.39819 0.0
C1467 C 0.6487 0.49997 0.41441 0.0
C1468 C 0.56522 0.39663 0.40095 0.0
C1469 C 0.56889 0.37648 0.42167 0.0
C1470 C 0.61957 0.45746 0.41654 0.0
C1471 C 0.59759 0.3981 0.43968 0.0
C1472 C 0.67218 0.51981 0.43517 0.0
C1473 C 0.68402 0.55774 0.38926 0.0
N1474 N 0.62171 0.43723 0.43668 0.0
N1475 N 0.65491 0.51965 0.39215 0.0
H1476 H 0.83415 0.28936 0.10019 0.0
H1477 H 0.93898 0.51731 0.12973 0.0
H1478 H 0.92954 0.34505 0.15304 0.0
H1479 H 0.82483 0.45326 0.09564 0.0
H1480 H 0.93678 0.45521 0.13854 0.0
H1481 H 0.83123 0.34949 0.09791 0.0
C1482 C 0.8547 0.31429 0.11129 0.0
C1483 C 0.8827 0.31221 0.12653 0.0
C1484 C 0.91197 0.45467 0.12945 0.0
C1485 C 0.87928 0.38152 0.12398 0.0
C1486 C 0.91322 0.49007 0.1244 0.0
C1487 C 0.8821 0.4904 0.11182 0.0
C1488 C 0.87961 0.41928 0.12154 0.0
C1489 C 0.84934 0.45431 0.10546 0.0
C1490 C 0.85277 0.34861 0.11008 0.0
C1491 C 0.90793 0.34538 0.14077 0.0
N1492 N 0.84918 0.42023 0.11008 0.0
N1493 N 0.90592 0.37883 0.13893 0.0
H1494 H 0.47105 0.20133 0.38889 0.0
H1495 H 0.61168 0.11578 0.42384 0.0
H1496 H 0.42778 0.07976 0.40642 0.0
H1497 H 0.64753 0.23858 0.4233 0.0
H1498 H 0.54668 0.10045 0.40845 0.0
H1499 H 0.53821 0.21379 0.39235 0.0
C1500 C 0.47587 0.17711 0.39294 0.0
C1501 C 0.44413 0.13952 0.39731 0.0
C1502 C 0.56903 0.13079 0.41124 0.0
C1503 C 0.52066 0.15338 0.40159 0.0
C1504 C 0.60614 0.13951 0.41977 0.0
C1505 C 0.63488 0.17848 0.42465 0.0
C1506 C 0.56088 0.16134 0.40747 0.0
C1507 C 0.62614 0.20819 0.4196 0.0
C1508 C 0.51411 0.18419 0.39502 0.0
C1509 C 0.45161 0.10904 0.40261 0.0
N1510 N 0.58992 0.19901 0.41143 0.0
N1511 N 0.48919 0.11667 0.40482 0.0
H1512 H 0.50254 0.42287 0.13737 0.0
H1513 H 0.72677 0.55282 0.09994 0.0
H1514 H 0.56416 0.37713 0.09521 0.0
H1515 H 0.67449 0.58537 0.1596 0.0
H1516 H 0.66735 0.48896 0.09748 0.0
H1517 H 0.5648 0.4827 0.14574 0.0
C1518 C 0.52936 0.42525 0.13022 0.0
C1519 C 0.52826 0.39509 0.11554 0.0
C1520 C 0.66888 0.51002 0.11118 0.0
C1521 C 0.59957 0.46376 0.12466 0.0
C1522 C 0.70278 0.5467 0.11254 0.0
C1523 C 0.70558 0.57506 0.1298 0.0
C1524 C 0.63711 0.5015 0.12698 0.0
C1525 C 0.67361 0.56492 0.1458 0.0
C1526 C 0.56486 0.45939 0.13498 0.0
C1527 C 0.56379 0.3996 0.10673 0.0
N1528 N 0.64056 0.52917 0.14383 0.0
N1529 N 0.59796 0.43355 0.11112 0.0
H1530 H 0.90421 0.50687 0.41447 0.0
H1531 H 0.82088 0.27677 0.41863 0.0
H1532 H 0.78829 0.42103 0.43899 0.0
H1533 H 0.9287 0.35405 0.37994 0.0
H1534 H 0.80821 0.33042 0.42344 0.0
H1535 H 0.91354 0.45334 0.39837 0.0
C1536 C 0.88041 0.47685 0.41579 0.0
C1537 C 0.84549 0.46814 0.42812 0.0
C1538 C 0.83465 0.33595 0.41375 0.0
C1539 C 0.85604 0.40718 0.41031 0.0
C1540 C 0.84202 0.3052 0.41109 0.0
C1541 C 0.87632 0.31106 0.39928 0.0
C1542 C 0.86198 0.37345 0.40488 0.0
C1543 C 0.90217 0.34842 0.38946 0.0
C1544 C 0.8858 0.44636 0.40679 0.0
C1545 C 0.81569 0.42888 0.42969 0.0
N1546 N 0.89479 0.37851 0.39283 0.0
N1547 N 0.8218 0.39996 0.42117 0.0
H1548 H 0.19807 0.6376 0.59177 0.0
H1549 H 0.10154 0.43018 0.6626 0.0
H1550 H 0.09303 0.59294 0.63637 0.0
H1551 H 0.17551 0.45781 0.59707 0.0
H1552 H 0.10607 0.49427 0.65905 0.0
H1553 H 0.19939 0.57691 0.6002 0.0
C1554 C 0.1758 0.61536 0.60377 0.0
C1555 C 0.14533 0.62012 0.61333 0.0
C1556 C 0.12129 0.4862 0.64548 0.0
C1557 C 0.14645 0.55077 0.62291 0.0
C1558 C 0.11845 0.44943 0.64738 0.0
C1559 C 0.13726 0.43793 0.62975 0.0
C1560 C 0.14398 0.51214 0.62622 0.0
C1561 C 0.15993 0.46497 0.6109 0.0
C1562 C 0.17632 0.58064 0.60837 0.0
C1563 C 0.1169 0.59023 0.62855 0.0
N1564 N 0.16268 0.50073 0.60967 0.0
N1565 N 0.11806 0.55679 0.63282 0.0
H1566 H 0.34825 0.92649 0.86976 0.0
H1567 H 0.45765 0.82317 0.93291 0.0
H1568 H 0.29817 0.83993 0.92891 0.0
H1569 H 0.51914 0.93533 0.89554 0.0
H1570 H 0.39552 0.82078 0.92396 0.0
H1571 H 0.40831 0.92294 0.87231 0.0
C1572 C 0.34985 0.90694 0.88334 0.0
C1573 C 0.31839 0.8843 0.89956 0.0
C1574 C 0.42261 0.84569 0.91747 0.0
C1575 C 0.38644 0.87898 0.90193 0.0
C1576 C 0.45796 0.84686 0.92235 0.0
C1577 C 0.49346 0.87959 0.91506 0.0
C1578 C 0.42285 0.87727 0.90497 0.0
C1579 C 0.49232 0.90974 0.90166 0.0
C1580 C 0.38406 0.90474 0.88467 0.0
C1581 C 0.32185 0.85854 0.9163 0.0
N1582 N 0.4576 0.90796 0.89713 0.0
N1583 N 0.35521 0.8566 0.91705 0.0
H1584 H 0.54796 0.72199 0.60353 0.0
H1585 H 0.42767 0.49055 0.62741 0.0
H1586 H 0.5926 0.66196 0.64841 0.0
H1587 H 0.37773 0.5552 0.59384 0.0
H1588 H 0.48808 0.5524 0.6356 0.0
H1589 H 0.48606 0.66074 0.59925 0.0
C1590 C 0.54477 0.6959 0.6126 0.0
C1591 C 0.57579 0.69723 0.62637 0.0
C1592 C 0.46383 0.55314 0.62666 0.0
C1593 C 0.50444 0.62658 0.62154 0.0
C1594 C 0.42932 0.51786 0.62198 0.0
C1595 C 0.39768 0.5177 0.60976 0.0
C1596 C 0.46701 0.58868 0.61883 0.0
C1597 C 0.40128 0.55394 0.60339 0.0
C1598 C 0.50929 0.66087 0.61014 0.0
C1599 C 0.56992 0.66226 0.63733 0.0
N1600 N 0.43546 0.58789 0.60774 0.0
N1601 N 0.53497 0.62838 0.63471 0.0
H1602 H 0.12838 0.61977 0.91597 0.0
H1603 H 0.20037 0.46474 0.92134 0.0
H1604 H 0.24488 0.64686 0.9364 0.0
H1605 H 0.0945 0.43868 0.8822 0.0
H1606 H 0.21691 0.53259 0.92506 0.0
H1607 H 0.11505 0.55503 0.90076 0.0
C1608 C 0.1514 0.61245 0.91662 0.0
C1609 C 0.18765 0.63837 0.92766 0.0
C1610 C 0.19018 0.51235 0.91538 0.0
C1611 C 0.17259 0.56477 0.9108 0.0
C1612 C 0.18067 0.47342 0.91331 0.0
C1613 C 0.14594 0.44592 0.9015 0.0
C1614 C 0.16442 0.52415 0.90604 0.0
C1615 C 0.1216 0.45896 0.89136 0.0
C1616 C 0.14375 0.57553 0.9081 0.0
C1617 C 0.21643 0.62751 0.92828 0.0
N1618 N 0.13099 0.49716 0.8942 0.0
N1619 N 0.20813 0.59149 0.92029 0.0
H1620 H 0.27749 0.81884 0.60975 0.0
H1621 H 0.50624 0.89829 0.61659 0.0
H1622 H 0.3551 0.92438 0.65024 0.0
H1623 H 0.42057 0.78517 0.58776 0.0
H1624 H 0.4527 0.90705 0.63314 0.0
H1625 H 0.33008 0.80453 0.60521 0.0
C1626 C 0.30565 0.8389 0.61795 0.0
C1627 C 0.3119 0.87296 0.63031 0.0
C1628 C 0.44573 0.88003 0.62362 0.0
C1629 C 0.37317 0.85713 0.62476 0.0
C1630 C 0.47621 0.87496 0.61432 0.0
C1631 C 0.4676 0.84113 0.60059 0.0
C1632 C 0.40664 0.851 0.61906 0.0
C1633 C 0.42835 0.81185 0.598 0.0
C1634 C 0.33582 0.8307 0.61537 0.0
C1635 C 0.34901 0.89778 0.64065 0.0
N1636 N 0.39944 0.81764 0.60687 0.0
N1637 N 0.37857 0.88972 0.6373 0.0
H1638 H 0.59307 0.67058 0.87792 0.0
H1639 H 0.37852 0.56292 0.93917 0.0
H1640 H 0.55636 0.72193 0.93597 0.0
H1641 H 0.42706 0.50105 0.90016 0.0
H1642 H 0.4397 0.62476 0.93162 0.0
H1643 H 0.52903 0.61082 0.88031 0.0
C1644 C 0.57181 0.6693 0.89128 0.0
C1645 C 0.58065 0.70115 0.90715 0.0
C1646 C 0.43678 0.59766 0.9245 0.0
C1647 C 0.50668 0.63331 0.90932 0.0
C1648 C 0.40177 0.56249 0.92858 0.0
C1649 C 0.3979 0.52689 0.9204 0.0
C1650 C 0.4679 0.59719 0.9119 0.0
C1651 C 0.42907 0.5279 0.90697 0.0
C1652 C 0.5351 0.63524 0.8925 0.0
C1653 C 0.55125 0.69801 0.92358 0.0
N1654 N 0.4628 0.56242 0.90323 0.0
N1655 N 0.51567 0.66479 0.92422 0.0
loop_
_geom_bond_atom_site_label_1
_geom_bond_atom_site_label_2
_geom_bond_distance
_geom_bond_site_symmetry_2
_ccdc_geom_bond_type
C0 C2 1.422 . S
C0 C4 1.415 . S
C0 N6 1.369 . S
C1 C2 1.421 . S
C1 C3 1.417 . S
C1 C13 1.422 . S
C2 C0 1.422 . S
C2 C1 1.421 . S
C2 N12 1.359 . S
C3 C1 1.417 . S
C3 C5 1.329 . S
C3 H22 0.930 . S
C4 C0 1.415 . S
C4 C5 1.437 . S
C4 C8 1.413 . S
C5 C3 1.329 . S
C5 C4 1.437 . S
C5 H27 0.929 . S
N6 C0 1.369 . S
N6 C7 1.338 . S
N6 Gd11 2.622 . S
C7 N6 1.338 . S
C7 C9 1.378 . S
C7 H19 0.929 . S
C8 C4 1.413 . S
C8 C9 1.348 . S
C8 H24 0.931 . S
C9 C7 1.378 . S
C9 C8 1.348 . S
C9 H25 0.930 1_554 S
Gd10 N30 2.622 . S
Gd10 N37 2.570 . S
Gd10 O44 2.353 . S
Gd10 O45 2.468 . S
Gd10 O46 2.427 . S
Gd10 O48 2.388 . S
Gd10 O49 2.386 . S
Gd10 O53 2.307 . S
Gd10 C63 2.805 . S
Gd11 N6 2.622 . S
Gd11 N12 2.570 . S
Gd11 O43 2.386 . S
Gd11 O47 2.307 . S
Gd11 O50 2.353 . S
Gd11 O51 2.468 . S
Gd11 O52 2.427 . S
Gd11 O54 2.388 . S
Gd11 C75 2.805 . S
N12 C2 1.359 . S
N12 Gd11 2.570 . S
N12 C14 1.343 . S
C13 C1 1.422 . S
C13 C15 1.321 . S
C13 H21 0.931 . S
C14 N12 1.343 . S
C14 C15 1.390 . S
C14 H16 0.931 . S
C15 C13 1.321 . S
C15 C14 1.390 . S
C15 H17 0.930 . S
H16 C14 0.931 . S
H17 C15 0.930 . S
H18 C41 0.931 . S
H19 C7 0.929 . S
H20 C42 0.933 . S
H21 C13 0.931 . S
H22 C3 0.930 . S
H23 C32 0.929 . S
H24 C8 0.931 . S
H25 C9 0.930 1_556 S
H26 C64 0.930 . S
H27 C5 0.929 . S
H28 C33 0.931 . S
H29 C34 0.930 . S
N30 Gd10 2.622 . S
N30 C31 1.369 . S
N30 C32 1.338 . S
C31 N30 1.369 . S
C31 C35 1.415 . S
C31 C38 1.422 . S
C32 H23 0.929 . S
C32 N30 1.338 . S
C32 C34 1.378 . S
C33 H28 0.931 . S
C33 C34 1.348 . S
C33 C35 1.413 . S
C34 H29 0.930 . S
C34 C32 1.378 . S
C34 C33 1.348 . S
C35 C31 1.415 . S
C35 C33 1.413 . S
C35 C65 1.437 . S
H36 C65 0.923 1_565 S
N37 Gd10 2.570 . S
N37 C38 1.359 . S
N37 C41 1.343 . S
C38 C31 1.422 . S
C38 N37 1.359 . S
C38 C40 1.421 . S
C39 C40 1.422 1_565 S
C39 C42 1.321 1_565 S
C39 H66 0.931 . S
C40 C38 1.421 . S
C40 C39 1.422 1_545 S
C40 C64 1.417 1_545 S
C41 H18 0.931 . S
C41 N37 1.343 . S
C41 C42 1.390 . S
C42 H20 0.933 . S
C42 C39 1.321 1_545 S
C42 C41 1.390 . S
O43 Gd11 2.386 . S
O43 C55 1.265 . S
O44 Gd10 2.353 . S
O44 C55 1.242 . S
O45 Gd10 2.468 . S
O45 C63 1.263 . S
O46 Gd10 2.427 . S
O46 C63 1.252 . S
O47 Gd11 2.307 . S
O47 C56 1.261 . S
O48 Gd10 2.388 . S
O48 C56 1.252 . S
O49 Gd10 2.386 . S
O49 C67 1.265 . S
O50 Gd11 2.353 . S
O50 C67 1.242 . S
O51 Gd11 2.468 . S
O51 C75 1.263 . S
O52 Gd11 2.427 . S
O52 C75 1.252 . S
O53 Gd10 2.307 . S
O53 C68 1.261 . S
O54 Gd11 2.388 . S
O54 C68 1.252 . S
C55 O43 1.265 . S
C55 O44 1.242 . S
C56 O47 1.261 . S
C56 O48 1.252 . S
C57 C60 1.394 . S
C57 C62 1.370 . S
C57 C63 1.500 1_565 S
C58 C61 1.383 . S
C58 C62 1.395 . S
C59 C60 1.396 . S
C59 C61 1.365 . S
C59 H76 0.929 . S
C60 C57 1.394 . S
C60 C59 1.396 . S
C60 H77 0.930 . S
C61 C58 1.383 . S
C61 C59 1.365 . S
C61 H78 0.931 . S
C62 C57 1.370 . S
C62 C58 1.395 . S
C62 H79 0.930 . S
C63 Gd10 2.805 . S
C63 O45 1.263 . S
C63 O46 1.252 . S
C63 C57 1.500 1_545 S
C64 H26 0.930 . S
C64 C40 1.417 1_565 S
C64 C65 1.329 1_565 S
C65 C35 1.437 . S
C65 H36 0.923 1_545 S
C65 C64 1.329 1_545 S
H66 C39 0.931 . S
C67 O49 1.265 . S
C67 O50 1.242 . S
C68 O53 1.261 . S
C68 O54 1.252 . S
C69 C72 1.394 . S
C69 C74 1.370 . S
C69 C75 1.500 . S
C70 C73 1.383 . S
C70 C74 1.395 . S
C71 C72 1.396 . S
C71 C73 1.365 . S
C71 H80 0.929 . S
C72 C69 1.394 . S
C72 C71 1.396 . S
C72 H81 0.930 . S
C73 C70 1.383 . S
C73 C71 1.365 . S
C73 H82 0.931 . S
C74 C69 1.370 . S
C74 C70 1.395 . S
C74 H83 0.930 . S
C75 Gd11 2.805 . S
C75 O51 1.263 . S
C75 O52 1.252 . S
C75 C69 1.500 . S
H76 C59 0.929 . S
H77 C60 0.930 . S
H78 C61 0.931 . S
H79 C62 0.930 . S
H80 C71 0.929 . S
H81 C72 0.930 . S
H82 C73 0.931 . S
H83 C74 0.930 . S
C84 C86 1.422 . S
C84 C88 1.415 . S
C84 N90 1.369 . S
C85 C86 1.421 . S
C85 C87 1.417 . S
C85 C97 1.422 . S
C86 C84 1.422 . S
C86 C85 1.421 . S
C86 N96 1.359 . S
C87 C85 1.417 . S
C87 C89 1.329 . S
C87 H106 0.930 . S
C88 C84 1.415 . S
C88 C89 1.437 . S
C88 C92 1.413 . S
C89 C87 1.329 . S
C89 C88 1.437 . S
C89 H111 0.929 . S
N90 C84 1.369 . S
N90 C91 1.338 . S
N90 Gd95 2.622 . S
C91 N90 1.338 . S
C91 C93 1.378 . S
C91 H103 0.929 . S
C92 C88 1.413 . S
C92 C93 1.348 . S
C92 H108 0.931 . S
C93 C91 1.378 . S
C93 C92 1.348 . S
C93 H109 0.930 . S
Gd94 N114 2.622 . S
Gd94 N121 2.570 . S
Gd94 O128 2.353 . S
Gd94 O129 2.468 . S
Gd94 O130 2.427 . S
Gd94 O132 2.388 . S
Gd94 O133 2.386 . S
Gd94 O137 2.307 . S
Gd94 C147 2.805 . S
Gd95 N90 2.622 . S
Gd95 N96 2.570 . S
Gd95 O127 2.386 . S
Gd95 O131 2.307 . S
Gd95 O134 2.353 . S
Gd95 O135 2.468 . S
Gd95 O136 2.427 . S
Gd95 O138 2.388 . S
Gd95 C159 2.805 . S
N96 C86 1.359 . S
N96 Gd95 2.570 . S
N96 C98 1.343 . S
C97 C85 1.422 . S
C97 C99 1.321 . S
C97 H105 0.931 . S
C98 N96 1.343 . S
C98 C99 1.390 . S
C98 H100 0.931 . S
C99 C97 1.321 . S
C99 C98 1.390 . S
C99 H101 0.930 . S
H100 C98 0.931 . S
H101 C99 0.930 . S
H102 C125 0.931 . S
H103 C91 0.929 . S
H104 C126 0.930 . S
H105 C97 0.931 . S
H106 C87 0.930 . S
H107 C116 0.929 . S
H108 C92 0.931 . S
H109 C93 0.930 . S
H110 C148 0.930 . S
H111 C89 0.929 . S
H112 C117 0.931 . S
H113 C118 0.930 . S
N114 Gd94 2.622 . S
N114 C115 1.369 . S
N114 C116 1.338 . S
C115 N114 1.369 . S
C115 C119 1.415 . S
C115 C122 1.422 . S
C116 H107 0.929 . S
C116 N114 1.338 . S
C116 C118 1.378 . S
C117 H112 0.931 . S
C117 C118 1.348 . S
C117 C119 1.413 . S
C118 H113 0.930 . S
C118 C116 1.378 . S
C118 C117 1.348 . S
C119 C115 1.415 . S
C119 C117 1.413 . S
C119 C149 1.427 1_655 S
H120 C149 0.936 . S
N121 Gd94 2.570 . S
N121 C122 1.359 . S
N121 C125 1.343 . S
C122 C115 1.422 . S
C122 N121 1.359 . S
C122 C124 1.421 . S
C123 C124 1.422 . S
C123 C126 1.321 . S
C123 H150 0.931 1_655 S
C124 C122 1.421 . S
C124 C123 1.422 . S
C124 C148 1.417 1_655 S
C125 H102 0.931 . S
C125 N121 1.343 . S
C125 C126 1.390 . S
C126 H104 0.930 . S
C126 C123 1.321 . S
C126 C125 1.390 . S
O127 Gd95 2.386 . S
O127 C139 1.265 . S
O128 Gd94 2.353 . S
O128 C139 1.242 . S
O129 Gd94 2.468 . S
O129 C147 1.263 . S
O130 Gd94 2.427 . S
O130 C147 1.252 . S
O131 Gd95 2.307 . S
O131 C140 1.261 . S
O132 Gd94 2.388 . S
O132 C140 1.252 . S
O133 Gd94 2.386 . S
O133 C151 1.265 . S
O134 Gd95 2.353 . S
O134 C151 1.242 . S
O135 Gd95 2.468 . S
O135 C159 1.263 . S
O136 Gd95 2.427 . S
O136 C159 1.252 . S
O137 Gd94 2.307 . S
O137 C152 1.261 . S
O138 Gd95 2.388 . S
O138 C152 1.252 . S
C139 O127 1.265 . S
C139 O128 1.242 . S
C140 O131 1.261 . S
C140 O132 1.252 . S
C141 C144 1.394 . S
C141 C146 1.370 . S
C141 C147 1.500 . S
C142 C145 1.383 . S
C142 C146 1.395 . S
C143 C144 1.396 . S
C143 C145 1.365 . S
C143 H160 0.929 . S
C144 C141 1.394 . S
C144 C143 1.396 . S
C144 H161 0.930 . S
C145 C142 1.383 . S
C145 C143 1.365 . S
C145 H162 0.931 . S
C146 C141 1.370 . S
C146 C142 1.395 . S
C146 H163 0.930 . S
C147 Gd94 2.805 . S
C147 O129 1.263 . S
C147 O130 1.252 . S
C147 C141 1.500 . S
C148 H110 0.930 . S
C148 C124 1.417 1_455 S
C148 C149 1.333 . S
C149 C119 1.427 1_455 S
C149 H120 0.936 . S
C149 C148 1.333 . S
H150 C123 0.931 1_455 S
C151 O133 1.265 . S
C151 O134 1.242 . S
C152 O137 1.261 . S
C152 O138 1.252 . S
C153 C156 1.394 . S
C153 C158 1.370 . S
C153 C159 1.500 . S
C154 C157 1.383 . S
C154 C158 1.395 . S
C155 C156 1.396 . S
C155 C157 1.365 . S
C155 H164 0.929 . S
C156 C153 1.394 . S
C156 C155 1.396 . S
C156 H165 0.930 . S
C157 C154 1.383 . S
C157 C155 1.365 . S
C157 H166 0.931 . S
C158 C153 1.370 . S
C158 C154 1.395 . S
C158 H167 0.930 . S
C159 Gd95 2.805 . S
C159 O135 1.263 . S
C159 O136 1.252 . S
C159 C153 1.500 . S
H160 C143 0.929 . S
H161 C144 0.930 . S
H162 C145 0.931 . S
H163 C146 0.930 . S
H164 C155 0.929 . S
H165 C156 0.930 . S
H166 C157 0.931 . S
H167 C158 0.930 . S
C168 C170 1.422 . S
C168 C172 1.415 . S
C168 N174 1.369 . S
C169 C170 1.421 . S
C169 C171 1.417 1_545 S
C169 C181 1.422 . S
C170 C168 1.422 . S
C170 C169 1.421 . S
C170 N180 1.359 . S
C171 C169 1.417 1_565 S
C171 C173 1.331 . S
C171 H190 0.930 . S
C172 C168 1.415 . S
C172 C173 1.429 1_545 S
C172 C176 1.413 . S
C173 C171 1.331 . S
C173 C172 1.429 1_565 S
C173 H195 0.936 . S
N174 C168 1.369 . S
N174 C175 1.338 . S
N174 Gd179 2.622 . S
C175 N174 1.338 . S
C175 C177 1.378 . S
C175 H187 0.929 . S
C176 C172 1.413 . S
C176 C177 1.348 . S
C176 H192 0.931 . S
C177 C175 1.378 . S
C177 C176 1.348 . S
C177 H193 0.930 1_554 S
Gd178 N198 2.622 . S
Gd178 N205 2.570 . S
Gd178 O212 2.353 . S
Gd178 O213 2.468 . S
Gd178 O214 2.427 . S
Gd178 O216 2.388 . S
Gd178 O217 2.386 . S
Gd178 O221 2.307 . S
Gd178 C231 2.805 . S
Gd179 N174 2.622 . S
Gd179 N180 2.570 . S
Gd179 O211 2.386 . S
Gd179 O215 2.307 . S
Gd179 O218 2.353 . S
Gd179 O219 2.468 . S
Gd179 O220 2.427 . S
Gd179 O222 2.388 . S
Gd179 C243 2.805 . S
N180 C170 1.359 . S
N180 Gd179 2.570 . S
N180 C182 1.343 . S
C181 C169 1.422 . S
C181 C183 1.321 . S
C181 H189 0.931 1_545 S
C182 N180 1.343 . S
C182 C183 1.390 . S
C182 H184 0.931 . S
C183 C181 1.321 . S
C183 C182 1.390 . S
C183 H185 0.930 . S
H184 C182 0.931 . S
H185 C183 0.930 . S
H186 C209 0.931 . S
H187 C175 0.929 . S
H188 C210 0.932 . S
H189 C181 0.931 1_565 S
H190 C171 0.930 . S
H191 C200 0.929 . S
H192 C176 0.931 . S
H193 C177 0.930 1_556 S
H194 C232 0.930 . S
H195 C173 0.936 . S
H196 C201 0.931 . S
H197 C202 0.930 . S
N198 Gd178 2.622 . S
N198 C199 1.369 . S
N198 C200 1.338 . S
C199 N198 1.369 . S
C199 C203 1.415 . S
C199 C206 1.422 . S
C200 H191 0.929 . S
C200 N198 1.338 . S
C200 C202 1.378 . S
C201 H196 0.931 . S
C201 C202 1.348 . S
C201 C203 1.413 . S
C202 H197 0.930 . S
C202 C200 1.378 . S
C202 C201 1.348 . S
C203 C199 1.415 . S
C203 C201 1.413 . S
C203 C233 1.437 . S
H204 C233 0.930 1_455 S
N205 Gd178 2.570 . S
N205 C206 1.359 . S
N205 C209 1.343 . S
C206 C199 1.422 . S
C206 N205 1.359 . S
C206 C208 1.421 . S
C207 C208 1.422 1_455 S
C207 C210 1.321 1_455 S
C207 H234 0.931 . S
C208 C206 1.421 . S
C208 C207 1.422 1_655 S
C208 C232 1.417 1_655 S
C209 H186 0.931 . S
C209 N205 1.343 . S
C209 C210 1.390 . S
C210 H188 0.932 . S
C210 C207 1.321 1_655 S
C210 C209 1.390 . S
O211 Gd179 2.386 . S
O211 C223 1.265 . S
O212 Gd178 2.353 . S
O212 C223 1.242 . S
O213 Gd178 2.468 . S
O213 C231 1.263 . S
O214 Gd178 2.427 . S
O214 C231 1.252 . S
O215 Gd179 2.307 . S
O215 C224 1.261 . S
O216 Gd178 2.388 . S
O216 C224 1.252 . S
O217 Gd178 2.386 . S
O217 C235 1.265 . S
O218 Gd179 2.353 . S
O218 C235 1.242 . S
O219 Gd179 2.468 . S
O219 C243 1.263 . S
O220 Gd179 2.427 . S
O220 C243 1.252 . S
O221 Gd178 2.307 . S
O221 C236 1.261 . S
O222 Gd179 2.388 . S
O222 C236 1.252 . S
C223 O211 1.265 . S
C223 O212 1.242 . S
C224 O215 1.261 . S
C224 O216 1.252 . S
C225 C228 1.394 . S
C225 C230 1.370 . S
C225 C231 1.500 1_455 S
C226 C229 1.383 . S
C226 C230 1.395 . S
C227 C228 1.396 . S
C227 C229 1.365 . S
C227 H244 0.929 . S
C228 C225 1.394 . S
C228 C227 1.396 . S
C228 H245 0.930 . S
C229 C226 1.383 . S
C229 C227 1.365 . S
C229 H246 0.931 . S
C230 C225 1.370 . S
C230 C226 1.395 . S
C230 H247 0.930 . S
C231 Gd178 2.805 . S
C231 O213 1.263 . S
C231 O214 1.252 . S
C231 C225 1.500 1_655 S
C232 H194 0.930 . S
C232 C208 1.417 1_455 S
C232 C233 1.329 1_455 S
C233 C203 1.437 . S
C233 H204 0.930 1_655 S
C233 C232 1.329 1_655 S
H234 C207 0.931 . S
C235 O217 1.265 . S
C235 O218 1.242 . S
C236 O221 1.261 . S
C236 O222 1.252 . S
C237 C240 1.394 . S
C237 C242 1.370 . S
C237 C243 1.500 . S
C238 C241 1.383 . S
C238 C242 1.395 . S
C239 C240 1.396 . S
C239 C241 1.365 . S
C239 H248 0.929 . S
C240 C237 1.394 . S
C240 C239 1.396 . S
C240 H249 0.930 . S
C241 C238 1.383 . S
C241 C239 1.365 . S
C241 H250 0.931 . S
C242 C237 1.370 . S
C242 C238 1.395 . S
C242 H251 0.930 . S
C243 Gd179 2.805 . S
C243 O219 1.263 . S
C243 O220 1.252 . S
C243 C237 1.500 . S
H244 C227 0.929 . S
H245 C228 0.930 . S
H246 C229 0.931 . S
H247 C230 0.930 . S
H248 C239 0.929 . S
H249 C240 0.930 . S
H250 C241 0.931 . S
H251 C242 0.930 . S
C252 C254 1.422 . S
C252 C256 1.415 . S
C252 N258 1.369 . S
C253 C254 1.421 . S
C253 C255 1.417 1_545 S
C253 C265 1.422 1_545 S
C254 C252 1.422 . S
C254 C253 1.421 . S
C254 N264 1.359 . S
C255 C253 1.417 1_565 S
C255 C257 1.329 1_565 S
C255 H274 0.930 . S
C256 C252 1.415 . S
C256 C257 1.437 . S
C256 C260 1.413 . S
C257 C255 1.329 1_545 S
C257 C256 1.437 . S
C257 H279 0.923 1_545 S
N258 C252 1.369 . S
N258 C259 1.338 . S
N258 Gd263 2.622 . S
C259 N258 1.338 . S
C259 C261 1.378 . S
C259 H271 0.929 . S
C260 C256 1.413 . S
C260 C261 1.348 . S
C260 H276 0.931 . S
C261 C259 1.378 . S
C261 C260 1.348 . S
C261 H277 0.930 . S
Gd262 N282 2.622 . S
Gd262 N289 2.570 . S
Gd262 O296 2.353 . S
Gd262 O297 2.468 . S
Gd262 O298 2.427 . S
Gd262 O300 2.388 . S
Gd262 O301 2.386 . S
Gd262 O305 2.307 . S
Gd262 C315 2.805 . S
Gd263 N258 2.622 . S
Gd263 N264 2.570 . S
Gd263 O295 2.386 . S
Gd263 O299 2.307 . S
Gd263 O302 2.353 . S
Gd263 O303 2.468 . S
Gd263 O304 2.427 . S
Gd263 O306 2.388 . S
Gd263 C327 2.805 . S
N264 C254 1.359 . S
N264 Gd263 2.570 . S
N264 C266 1.343 . S
C265 C253 1.422 1_565 S
C265 C267 1.321 1_565 S
C265 H273 0.931 . S
C266 N264 1.343 . S
C266 C267 1.390 . S
C266 H268 0.931 . S
C267 C265 1.321 1_545 S
C267 C266 1.390 . S
C267 H269 0.933 . S
H268 C266 0.931 . S
H269 C267 0.933 . S
H270 C293 0.931 . S
H271 C259 0.929 . S
H272 C294 0.930 . S
H273 C265 0.931 . S
H274 C255 0.930 . S
H275 C284 0.929 . S
H276 C260 0.931 . S
H277 C261 0.930 . S
H278 C316 0.930 . S
H279 C257 0.923 1_565 S
H280 C285 0.931 . S
H281 C286 0.930 . S
N282 Gd262 2.622 . S
N282 C283 1.369 . S
N282 C284 1.338 . S
C283 N282 1.369 . S
C283 C287 1.415 . S
C283 C290 1.422 . S
C284 H275 0.929 . S
C284 N282 1.338 . S
C284 C286 1.378 . S
C285 H280 0.931 . S
C285 C286 1.348 . S
C285 C287 1.413 . S
C286 H281 0.930 . S
C286 C284 1.378 . S
C286 C285 1.348 . S
C287 C283 1.415 . S
C287 C285 1.413 . S
C287 C317 1.437 . S
H288 C317 0.929 . S
N289 Gd262 2.570 . S
N289 C290 1.359 . S
N289 C293 1.343 . S
C290 C283 1.422 . S
C290 N289 1.359 . S
C290 C292 1.421 . S
C291 C292 1.422 . S
C291 C294 1.321 . S
C291 H318 0.931 . S
C292 C290 1.421 . S
C292 C291 1.422 . S
C292 C316 1.417 . S
C293 H270 0.931 . S
C293 N289 1.343 . S
C293 C294 1.390 . S
C294 H272 0.930 . S
C294 C291 1.321 . S
C294 C293 1.390 . S
O295 Gd263 2.386 . S
O295 C307 1.265 . S
O296 Gd262 2.353 . S
O296 C307 1.242 . S
O297 Gd262 2.468 . S
O297 C315 1.263 . S
O298 Gd262 2.427 . S
O298 C315 1.252 . S
O299 Gd263 2.307 . S
O299 C308 1.261 . S
O300 Gd262 2.388 . S
O300 C308 1.252 . S
O301 Gd262 2.386 . S
O301 C319 1.265 . S
O302 Gd263 2.353 . S
O302 C319 1.242 . S
O303 Gd263 2.468 . S
O303 C327 1.263 . S
O304 Gd263 2.427 . S
O304 C327 1.252 . S
O305 Gd262 2.307 . S
O305 C320 1.261 . S
O306 Gd263 2.388 . S
O306 C320 1.252 . S
C307 O295 1.265 . S
C307 O296 1.242 . S
C308 O299 1.261 . S
C308 O300 1.252 . S
C309 C312 1.394 . S
C309 C314 1.370 . S
C309 C315 1.500 . S
C310 C313 1.383 . S
C310 C314 1.395 . S
C311 C312 1.396 . S
C311 C313 1.365 . S
C311 H328 0.929 . S
C312 C309 1.394 . S
C312 C311 1.396 . S
C312 H329 0.930 . S
C313 C310 1.383 . S
C313 C311 1.365 . S
C313 H330 0.931 . S
C314 C309 1.370 . S
C314 C310 1.395 . S
C314 H331 0.930 . S
C315 Gd262 2.805 . S
C315 O297 1.263 . S
C315 O298 1.252 . S
C315 C309 1.500 . S
C316 H278 0.930 . S
C316 C292 1.417 . S
C316 C317 1.329 . S
C317 C287 1.437 . S
C317 H288 0.929 . S
C317 C316 1.329 . S
H318 C291 0.931 . S
C319 O301 1.265 . S
C319 O302 1.242 . S
C320 O305 1.261 . S
C320 O306 1.252 . S
C321 C324 1.394 . S
C321 C326 1.370 . S
C321 C327 1.500 1_565 S
C322 C325 1.383 . S
C322 C326 1.395 . S
C323 C324 1.396 . S
C323 C325 1.365 . S
C323 H332 0.929 . S
C324 C321 1.394 . S
C324 C323 1.396 . S
C324 H333 0.930 . S
C325 C322 1.383 . S
C325 C323 1.365 . S
C325 H334 0.931 . S
C326 C321 1.370 . S
C326 C322 1.395 . S
C326 H335 0.930 . S
C327 Gd263 2.805 . S
C327 O303 1.263 . S
C327 O304 1.252 . S
C327 C321 1.500 1_545 S
H328 C311 0.929 . S
H329 C312 0.930 . S
H330 C313 0.931 . S
H331 C314 0.930 . S
H332 C323 0.929 . S
H333 C324 0.930 . S
H334 C325 0.931 . S
H335 C326 0.930 . S
C336 C338 1.422 . S
C336 C340 1.415 . S
C336 N342 1.369 . S
C337 C338 1.421 . S
C337 C339 1.417 1_655 S
C337 C349 1.422 . S
C338 C336 1.422 . S
C338 C337 1.421 . S
C338 N348 1.359 . S
C339 C337 1.417 1_455 S
C339 C341 1.333 . S
C339 H358 0.930 . S
C340 C336 1.415 . S
C340 C341 1.427 1_655 S
C340 C344 1.413 . S
C341 C339 1.333 . S
C341 C340 1.427 1_455 S
C341 H363 0.936 . S
N342 C336 1.369 . S
N342 C343 1.338 . S
N342 Gd347 2.622 . S
C343 N342 1.338 . S
C343 C345 1.378 . S
C343 H355 0.929 . S
C344 C340 1.413 . S
C344 C345 1.348 . S
C344 H360 0.931 . S
C345 C343 1.378 . S
C345 C344 1.348 . S
C345 H361 0.930 1_554 S
Gd346 N366 2.622 . S
Gd346 N373 2.570 . S
Gd346 O380 2.353 . S
Gd346 O381 2.468 . S
Gd346 O382 2.427 . S
Gd346 O384 2.388 . S
Gd346 O385 2.386 . S
Gd346 O389 2.307 . S
Gd346 C399 2.805 . S
Gd347 N342 2.622 . S
Gd347 N348 2.570 . S
Gd347 O379 2.386 . S
Gd347 O383 2.307 . S
Gd347 O386 2.353 . S
Gd347 O387 2.468 . S
Gd347 O388 2.427 . S
Gd347 O390 2.388 . S
Gd347 C411 2.805 . S
N348 C338 1.359 . S
N348 Gd347 2.570 . S
N348 C350 1.343 . S
C349 C337 1.422 . S
C349 C351 1.321 . S
C349 H357 0.931 1_655 S
C350 N348 1.343 . S
C350 C351 1.390 . S
C350 H352 0.931 . S
C351 C349 1.321 . S
C351 C350 1.390 . S
C351 H353 0.930 . S
H352 C350 0.931 . S
H353 C351 0.930 . S
H354 C377 0.931 . S
H355 C343 0.929 . S
H356 C378 0.930 . S
H357 C349 0.931 1_455 S
H358 C339 0.930 . S
H359 C368 0.929 . S
H360 C344 0.931 . S
H361 C345 0.930 1_556 S
H362 C400 0.930 . S
H363 C341 0.936 . S
H364 C369 0.931 . S
H365 C370 0.930 . S
N366 Gd346 2.622 . S
N366 C367 1.369 . S
N366 C368 1.338 . S
C367 N366 1.369 . S
C367 C371 1.415 . S
C367 C374 1.422 . S
C368 H359 0.929 . S
C368 N366 1.338 . S
C368 C370 1.378 . S
C369 H364 0.931 . S
C369 C370 1.348 . S
C369 C371 1.413 . S
C370 H365 0.930 . S
C370 C368 1.378 . S
C370 C369 1.348 . S
C371 C367 1.415 . S
C371 C369 1.413 . S
C371 C401 1.437 . S
H372 C401 0.929 . S
N373 Gd346 2.570 . S
N373 C374 1.359 . S
N373 C377 1.343 . S
C374 C367 1.422 . S
C374 N373 1.359 . S
C374 C376 1.421 . S
C375 C376 1.422 . S
C375 C378 1.321 . S
C375 H402 0.931 . S
C376 C374 1.421 . S
C376 C375 1.422 . S
C376 C400 1.417 . S
C377 H354 0.931 . S
C377 N373 1.343 . S
C377 C378 1.390 . S
C378 H356 0.930 . S
C378 C375 1.321 . S
C378 C377 1.390 . S
O379 Gd347 2.386 . S
O379 C391 1.265 . S
O380 Gd346 2.353 . S
O380 C391 1.242 . S
O381 Gd346 2.468 . S
O381 C399 1.263 . S
O382 Gd346 2.427 . S
O382 C399 1.252 . S
O383 Gd347 2.307 . S
O383 C392 1.261 . S
O384 Gd346 2.388 . S
O384 C392 1.252 . S
O385 Gd346 2.386 . S
O385 C403 1.265 . S
O386 Gd347 2.353 . S
O386 C403 1.242 . S
O387 Gd347 2.468 . S
O387 C411 1.263 . S
O388 Gd347 2.427 . S
O388 C411 1.252 . S
O389 Gd346 2.307 . S
O389 C404 1.261 . S
O390 Gd347 2.388 . S
O390 C404 1.252 . S
C391 O379 1.265 . S
C391 O380 1.242 . S
C392 O383 1.261 . S
C392 O384 1.252 . S
C393 C396 1.394 . S
C393 C398 1.370 . S
C393 C399 1.500 . S
C394 C397 1.383 . S
C394 C398 1.395 . S
C395 C396 1.396 . S
C395 C397 1.365 . S
C395 H412 0.929 . S
C396 C393 1.394 . S
C396 C395 1.396 . S
C396 H413 0.930 . S
C397 C394 1.383 . S
C397 C395 1.365 . S
C397 H414 0.931 . S
C398 C393 1.370 . S
C398 C394 1.395 . S
C398 H415 0.930 . S
C399 Gd346 2.805 . S
C399 O381 1.263 . S
C399 O382 1.252 . S
C399 C393 1.500 . S
C400 H362 0.930 . S
C400 C376 1.417 . S
C400 C401 1.329 . S
C401 C371 1.437 . S
C401 H372 0.929 . S
C401 C400 1.329 . S
H402 C375 0.931 . S
C403 O385 1.265 . S
C403 O386 1.242 . S
C404 O389 1.261 . S
C404 O390 1.252 . S
C405 C408 1.394 . S
C405 C410 1.370 . S
C405 C411 1.500 . S
C406 C409 1.383 . S
C406 C410 1.395 . S
C407 C408 1.396 . S
C407 C409 1.365 . S
C407 H416 0.929 . S
C408 C405 1.394 . S
C408 C407 1.396 . S
C408 H417 0.930 . S
C409 C406 1.383 . S
C409 C407 1.365 . S
C409 H418 0.931 . S
C410 C405 1.370 . S
C410 C406 1.395 . S
C410 H419 0.930 . S
C411 Gd347 2.805 . S
C411 O387 1.263 . S
C411 O388 1.252 . S
C411 C405 1.500 . S
H412 C395 0.929 . S
H413 C396 0.930 . S
H414 C397 0.931 . S
H415 C398 0.930 . S
H416 C407 0.929 . S
H417 C408 0.930 . S
H418 C409 0.931 . S
H419 C410 0.930 . S
C420 C422 1.422 . S
C420 C424 1.415 . S
C420 N426 1.369 . S
C421 C422 1.421 . S
C421 C423 1.417 1_655 S
C421 C433 1.422 1_655 S
C422 C420 1.422 . S
C422 C421 1.421 . S
C422 N432 1.359 . S
C423 C421 1.417 1_455 S
C423 C425 1.329 1_455 S
C423 H442 0.930 . S
C424 C420 1.415 . S
C424 C425 1.437 . S
C424 C428 1.413 . S
C425 C423 1.329 1_655 S
C425 C424 1.437 . S
C425 H447 0.930 1_655 S
N426 C420 1.369 . S
N426 C427 1.338 . S
N426 Gd431 2.622 . S
C427 N426 1.338 . S
C427 C429 1.378 . S
C427 H439 0.929 . S
C428 C424 1.413 . S
C428 C429 1.348 . S
C428 H444 0.931 . S
C429 C427 1.378 . S
C429 C428 1.348 . S
C429 H445 0.930 . S
Gd430 N450 2.622 . S
Gd430 N457 2.570 . S
Gd430 O464 2.353 . S
Gd430 O465 2.468 . S
Gd430 O466 2.427 . S
Gd430 O468 2.388 . S
Gd430 O469 2.386 . S
Gd430 O473 2.307 . S
Gd430 C483 2.805 . S
Gd431 N426 2.622 . S
Gd431 N432 2.570 . S
Gd431 O463 2.386 . S
Gd431 O467 2.307 . S
Gd431 O470 2.353 . S
Gd431 O471 2.468 . S
Gd431 O472 2.427 . S
Gd431 O474 2.388 . S
Gd431 C495 2.805 . S
N432 C422 1.359 . S
N432 Gd431 2.570 . S
N432 C434 1.343 . S
C433 C421 1.422 1_455 S
C433 C435 1.321 1_455 S
C433 H441 0.931 . S
C434 N432 1.343 . S
C434 C435 1.390 . S
C434 H436 0.931 . S
C435 C433 1.321 1_655 S
C435 C434 1.390 . S
C435 H437 0.932 . S
H436 C434 0.931 . S
H437 C435 0.932 . S
H438 C461 0.931 . S
H439 C427 0.929 . S
H440 C462 0.930 . S
H441 C433 0.931 . S
H442 C423 0.930 . S
H443 C452 0.929 . S
H444 C428 0.931 . S
H445 C429 0.930 . S
H446 C484 0.930 . S
H447 C425 0.930 1_455 S
H448 C453 0.931 . S
H449 C454 0.930 . S
N450 Gd430 2.622 . S
N450 C451 1.369 . S
N450 C452 1.338 . S
C451 N450 1.369 . S
C451 C455 1.415 . S
C451 C458 1.422 . S
C452 H443 0.929 . S
C452 N450 1.338 . S
C452 C454 1.378 . S
C453 H448 0.931 . S
C453 C454 1.348 . S
C453 C455 1.413 . S
C454 H449 0.930 . S
C454 C452 1.378 . S
C454 C453 1.348 . S
C455 C451 1.415 . S
C455 C453 1.413 . S
C455 C485 1.429 1_545 S
H456 C485 0.936 . S
N457 Gd430 2.570 . S
N457 C458 1.359 . S
N457 C461 1.343 . S
C458 C451 1.422 . S
C458 N457 1.359 . S
C458 C460 1.421 . S
C459 C460 1.422 . S
C459 C462 1.321 . S
C459 H486 0.931 1_545 S
C460 C458 1.421 . S
C460 C459 1.422 . S
C460 C484 1.417 1_545 S
C461 H438 0.931 . S
C461 N457 1.343 . S
C461 C462 1.390 . S
C462 H440 0.930 . S
C462 C459 1.321 . S
C462 C461 1.390 . S
O463 Gd431 2.386 . S
O463 C475 1.265 . S
O464 Gd430 2.353 . S
O464 C475 1.242 . S
O465 Gd430 2.468 . S
O465 C483 1.263 . S
O466 Gd430 2.427 . S
O466 C483 1.252 . S
O467 Gd431 2.307 . S
O467 C476 1.261 . S
O468 Gd430 2.388 . S
O468 C476 1.252 . S
O469 Gd430 2.386 . S
O469 C487 1.265 . S
O470 Gd431 2.353 . S
O470 C487 1.242 . S
O471 Gd431 2.468 . S
O471 C495 1.263 . S
O472 Gd431 2.427 . S
O472 C495 1.252 . S
O473 Gd430 2.307 . S
O473 C488 1.261 . S
O474 Gd431 2.388 . S
O474 C488 1.252 . S
C475 O463 1.265 . S
C475 O464 1.242 . S
C476 O467 1.261 . S
C476 O468 1.252 . S
C477 C480 1.394 . S
C477 C482 1.370 . S
C477 C483 1.500 . S
C478 C481 1.383 . S
C478 C482 1.395 . S
C479 C480 1.396 . S
C479 C481 1.365 . S
C479 H496 0.929 . S
C480 C477 1.394 . S
C480 C479 1.396 . S
C480 H497 0.930 . S
C481 C478 1.383 . S
C481 C479 1.365 . S
C481 H498 0.931 . S
C482 C477 1.370 . S
C482 C478 1.395 . S
C482 H499 0.930 . S
C483 Gd430 2.805 . S
C483 O465 1.263 . S
C483 O466 1.252 . S
C483 C477 1.500 . S
C484 H446 0.930 . S
C484 C460 1.417 1_565 S
C484 C485 1.331 . S
C485 C455 1.429 1_565 S
C485 H456 0.936 . S
C485 C484 1.331 . S
H486 C459 0.931 1_565 S
C487 O469 1.265 . S
C487 O470 1.242 . S
C488 O473 1.261 . S
C488 O474 1.252 . S
C489 C492 1.394 . S
C489 C494 1.370 . S
C489 C495 1.500 1_455 S
C490 C493 1.383 . S
C490 C494 1.395 . S
C491 C492 1.396 . S
C491 C493 1.365 . S
C491 H500 0.929 . S
C492 C489 1.394 . S
C492 C491 1.396 . S
C492 H501 0.930 . S
C493 C490 1.383 . S
C493 C491 1.365 . S
C493 H502 0.931 . S
C494 C489 1.370 . S
C494 C490 1.395 . S
C494 H503 0.930 . S
C495 Gd431 2.805 . S
C495 O471 1.263 . S
C495 O472 1.252 . S
C495 C489 1.500 1_655 S
H496 C479 0.929 . S
H497 C480 0.930 . S
H498 C481 0.931 . S
H499 C482 0.930 . S
H500 C491 0.929 . S
H501 C492 0.930 . S
H502 C493 0.931 . S
H503 C494 0.930 . S
C504 C506 1.422 . S
C504 C508 1.415 . S
C504 N510 1.369 . S
C505 C506 1.421 . S
C505 C507 1.417 1_455 S
C505 C517 1.422 1_455 S
C506 C504 1.422 . S
C506 C505 1.421 . S
C506 N516 1.359 . S
C507 C505 1.417 1_655 S
C507 C509 1.329 1_655 S
C507 H526 0.930 . S
C508 C504 1.415 . S
C508 C509 1.437 . S
C508 C512 1.413 . S
C509 C507 1.329 1_455 S
C509 C508 1.437 . S
C509 H531 0.923 1_455 S
N510 C504 1.369 . S
N510 C511 1.338 . S
N510 Gd515 2.622 . S
C511 N510 1.338 . S
C511 C513 1.378 . S
C511 H523 0.929 . S
C512 C508 1.413 . S
C512 C513 1.348 . S
C512 H528 0.931 . S
C513 C511 1.378 . S
C513 C512 1.348 . S
C513 H529 0.930 . S
Gd514 N534 2.622 . S
Gd514 N541 2.570 . S
Gd514 O548 2.353 . S
Gd514 O549 2.468 . S
Gd514 O550 2.427 . S
Gd514 O552 2.388 . S
Gd514 O553 2.386 . S
Gd514 O557 2.307 . S
Gd514 C567 2.805 . S
Gd515 N510 2.622 . S
Gd515 N516 2.570 . S
Gd515 O547 2.386 . S
Gd515 O551 2.307 . S
Gd515 O554 2.353 . S
Gd515 O555 2.468 . S
Gd515 O556 2.427 . S
Gd515 O558 2.388 . S
Gd515 C579 2.805 . S
N516 C506 1.359 . S
N516 Gd515 2.570 . S
N516 C518 1.343 . S
C517 C505 1.422 1_655 S
C517 C519 1.321 1_655 S
C517 H525 0.931 . S
C518 N516 1.343 . S
C518 C519 1.390 . S
C518 H520 0.931 . S
C519 C517 1.321 1_455 S
C519 C518 1.390 . S
C519 H521 0.933 . S
H520 C518 0.931 . S
H521 C519 0.933 . S
H522 C545 0.931 . S
H523 C511 0.929 . S
H524 C546 0.930 . S
H525 C517 0.931 . S
H526 C507 0.930 . S
H527 C536 0.929 . S
H528 C512 0.931 . S
H529 C513 0.930 . S
H530 C568 0.930 . S
H531 C509 0.923 1_655 S
H532 C537 0.931 . S
H533 C538 0.930 . S
N534 Gd514 2.622 . S
N534 C535 1.369 . S
N534 C536 1.338 . S
C535 N534 1.369 . S
C535 C539 1.415 . S
C535 C542 1.422 . S
C536 H527 0.929 . S
C536 N534 1.338 . S
C536 C538 1.378 . S
C537 H532 0.931 . S
C537 C538 1.348 . S
C537 C539 1.413 . S
C538 H533 0.930 . S
C538 C536 1.378 . S
C538 C537 1.348 . S
C539 C535 1.415 . S
C539 C537 1.413 . S
C539 C569 1.437 . S
H540 C569 0.929 . S
N541 Gd514 2.570 . S
N541 C542 1.359 . S
N541 C545 1.343 . S
C542 C535 1.422 . S
C542 N541 1.359 . S
C542 C544 1.421 . S
C543 C544 1.422 . S
C543 C546 1.321 . S
C543 H570 0.931 . S
C544 C542 1.421 . S
C544 C543 1.422 . S
C544 C568 1.417 . S
C545 H522 0.931 . S
C545 N541 1.343 . S
C545 C546 1.390 . S
C546 H524 0.930 . S
C546 C543 1.321 . S
C546 C545 1.390 . S
O547 Gd515 2.386 . S
O547 C559 1.265 . S
O548 Gd514 2.353 . S
O548 C559 1.242 . S
O549 Gd514 2.468 . S
O549 C567 1.263 . S
O550 Gd514 2.427 . S
O550 C567 1.252 . S
O551 Gd515 2.307 . S
O551 C560 1.261 . S
O552 Gd514 2.388 . S
O552 C560 1.252 . S
O553 Gd514 2.386 . S
O553 C571 1.265 . S
O554 Gd515 2.353 . S
O554 C571 1.242 . S
O555 Gd515 2.468 . S
O555 C579 1.263 . S
O556 Gd515 2.427 . S
O556 C579 1.252 . S
O557 Gd514 2.307 . S
O557 C572 1.261 . S
O558 Gd515 2.388 . S
O558 C572 1.252 . S
C559 O547 1.265 . S
C559 O548 1.242 . S
C560 O551 1.261 . S
C560 O552 1.252 . S
C561 C564 1.394 . S
C561 C566 1.370 . S
C561 C567 1.500 . S
C562 C565 1.383 . S
C562 C566 1.395 . S
C563 C564 1.396 . S
C563 C565 1.365 . S
C563 H580 0.929 . S
C564 C561 1.394 . S
C564 C563 1.396 . S
C564 H581 0.930 . S
C565 C562 1.383 . S
C565 C563 1.365 . S
C565 H582 0.931 . S
C566 C561 1.370 . S
C566 C562 1.395 . S
C566 H583 0.930 . S
C567 Gd514 2.805 . S
C567 O549 1.263 . S
C567 O550 1.252 . S
C567 C561 1.500 . S
C568 H530 0.930 . S
C568 C544 1.417 . S
C568 C569 1.329 . S
C569 C539 1.437 . S
C569 H540 0.929 . S
C569 C568 1.329 . S
H570 C543 0.931 . S
C571 O553 1.265 . S
C571 O554 1.242 . S
C572 O557 1.261 . S
C572 O558 1.252 . S
C573 C576 1.394 . S
C573 C578 1.370 . S
C573 C579 1.500 1_655 S
C574 C577 1.383 . S
C574 C578 1.395 . S
C575 C576 1.396 . S
C575 C577 1.365 . S
C575 H584 0.929 . S
C576 C573 1.394 . S
C576 C575 1.396 . S
C576 H585 0.930 . S
C577 C574 1.383 . S
C577 C575 1.365 . S
C577 H586 0.931 . S
C578 C573 1.370 . S
C578 C574 1.395 . S
C578 H587 0.930 . S
C579 Gd515 2.805 . S
C579 O555 1.263 . S
C579 O556 1.252 . S
C579 C573 1.500 1_455 S
H580 C563 0.929 . S
H581 C564 0.930 . S
H582 C565 0.931 . S
H583 C566 0.930 . S
H584 C575 0.929 . S
H585 C576 0.930 . S
H586 C577 0.931 . S
H587 C578 0.930 . S
C588 C590 1.422 . S
C588 C592 1.415 . S
C588 N594 1.369 . S
C589 C590 1.421 . S
C589 C591 1.417 1_455 S
C589 C601 1.422 . S
C590 C588 1.422 . S
C590 C589 1.421 . S
C590 N600 1.359 . S
C591 C589 1.417 1_655 S
C591 C593 1.331 . S
C591 H610 0.930 . S
C592 C588 1.415 . S
C592 C593 1.429 1_455 S
C592 C596 1.413 . S
C593 C591 1.331 . S
C593 C592 1.429 1_655 S
C593 H615 0.936 . S
N594 C588 1.369 . S
N594 C595 1.338 . S
N594 Gd599 2.622 . S
C595 N594 1.338 . S
C595 C597 1.378 . S
C595 H607 0.929 . S
C596 C592 1.413 . S
C596 C597 1.348 . S
C596 H612 0.931 . S
C597 C595 1.378 . S
C597 C596 1.348 . S
C597 H613 0.930 1_556 S
Gd598 N618 2.622 . S
Gd598 N625 2.570 . S
Gd598 O632 2.353 . S
Gd598 O633 2.468 . S
Gd598 O634 2.427 . S
Gd598 O636 2.388 . S
Gd598 O637 2.386 . S
Gd598 O641 2.307 . S
Gd598 C651 2.805 . S
Gd599 N594 2.622 . S
Gd599 N600 2.570 . S
Gd599 O631 2.386 . S
Gd599 O635 2.307 . S
Gd599 O638 2.353 . S
Gd599 O639 2.468 . S
Gd599 O640 2.427 . S
Gd599 O642 2.388 . S
Gd599 C663 2.805 . S
N600 C590 1.359 . S
N600 Gd599 2.570 . S
N600 C602 1.343 . S
C601 C589 1.422 . S
C601 C603 1.321 . S
C601 H609 0.931 1_455 S
C602 N600 1.343 . S
C602 C603 1.390 . S
C602 H604 0.931 . S
C603 C601 1.321 . S
C603 C602 1.390 . S
C603 H605 0.930 . S
H604 C602 0.931 . S
H605 C603 0.930 . S
H606 C629 0.931 . S
H607 C595 0.929 . S
H608 C630 0.932 . S
H609 C601 0.931 1_655 S
H610 C591 0.930 . S
H611 C620 0.929 . S
H612 C596 0.931 . S
H613 C597 0.930 1_554 S
H614 C652 0.930 . S
H615 C593 0.936 . S
H616 C621 0.931 . S
H617 C622 0.930 . S
N618 Gd598 2.622 . S
N618 C619 1.369 . S
N618 C620 1.338 . S
C619 N618 1.369 . S
C619 C623 1.415 . S
C619 C626 1.422 . S
C620 H611 0.929 . S
C620 N618 1.338 . S
C620 C622 1.378 . S
C621 H616 0.931 . S
C621 C622 1.348 . S
C621 C623 1.413 . S
C622 H617 0.930 . S
C622 C620 1.378 . S
C622 C621 1.348 . S
C623 C619 1.415 . S
C623 C621 1.413 . S
C623 C653 1.437 . S
H624 C653 0.930 1_545 S
N625 Gd598 2.570 . S
N625 C626 1.359 . S
N625 C629 1.343 . S
C626 C619 1.422 . S
C626 N625 1.359 . S
C626 C628 1.421 . S
C627 C628 1.422 1_545 S
C627 C630 1.321 1_545 S
C627 H654 0.931 . S
C628 C626 1.421 . S
C628 C627 1.422 1_565 S
C628 C652 1.417 1_565 S
C629 H606 0.931 . S
C629 N625 1.343 . S
C629 C630 1.390 . S
C630 H608 0.932 . S
C630 C627 1.321 1_565 S
C630 C629 1.390 . S
O631 Gd599 2.386 . S
O631 C643 1.265 . S
O632 Gd598 2.353 . S
O632 C643 1.242 . S
O633 Gd598 2.468 . S
O633 C651 1.263 . S
O634 Gd598 2.427 . S
O634 C651 1.252 . S
O635 Gd599 2.307 . S
O635 C644 1.261 . S
O636 Gd598 2.388 . S
O636 C644 1.252 . S
O637 Gd598 2.386 . S
O637 C655 1.265 . S
O638 Gd599 2.353 . S
O638 C655 1.242 . S
O639 Gd599 2.468 . S
O639 C663 1.263 . S
O640 Gd599 2.427 . S
O640 C663 1.252 . S
O641 Gd598 2.307 . S
O641 C656 1.261 . S
O642 Gd599 2.388 . S
O642 C656 1.252 . S
C643 O631 1.265 . S
C643 O632 1.242 . S
C644 O635 1.261 . S
C644 O636 1.252 . S
C645 C648 1.394 . S
C645 C650 1.370 . S
C645 C651 1.500 1_545 S
C646 C649 1.383 . S
C646 C650 1.395 . S
C647 C648 1.396 . S
C647 C649 1.365 . S
C647 H664 0.929 . S
C648 C645 1.394 . S
C648 C647 1.396 . S
C648 H665 0.930 . S
C649 C646 1.383 . S
C649 C647 1.365 . S
C649 H666 0.931 . S
C650 C645 1.370 . S
C650 C646 1.395 . S
C650 H667 0.930 . S
C651 Gd598 2.805 . S
C651 O633 1.263 . S
C651 O634 1.252 . S
C651 C645 1.500 1_565 S
C652 H614 0.930 . S
C652 C628 1.417 1_545 S
C652 C653 1.329 1_545 S
C653 C623 1.437 . S
C653 H624 0.930 1_565 S
C653 C652 1.329 1_565 S
H654 C627 0.931 . S
C655 O637 1.265 . S
C655 O638 1.242 . S
C656 O641 1.261 . S
C656 O642 1.252 . S
C657 C660 1.394 . S
C657 C662 1.370 . S
C657 C663 1.500 . S
C658 C661 1.383 . S
C658 C662 1.395 . S
C659 C660 1.396 . S
C659 C661 1.365 . S
C659 H668 0.929 . S
C660 C657 1.394 . S
C660 C659 1.396 . S
C660 H669 0.930 . S
C661 C658 1.383 . S
C661 C659 1.365 . S
C661 H670 0.931 . S
C662 C657 1.370 . S
C662 C658 1.395 . S
C662 H671 0.930 . S
C663 Gd599 2.805 . S
C663 O639 1.263 . S
C663 O640 1.252 . S
C663 C657 1.500 . S
H664 C647 0.929 . S
H665 C648 0.930 . S
H666 C649 0.931 . S
H667 C650 0.930 . S
H668 C659 0.929 . S
H669 C660 0.930 . S
H670 C661 0.931 . S
H671 C662 0.930 . S
C672 C674 1.422 . S
C672 C676 1.415 . S
C672 N678 1.369 . S
C673 C674 1.421 . S
C673 C675 1.417 . S
C673 C685 1.422 . S
C674 C672 1.422 . S
C674 C673 1.421 . S
C674 N684 1.359 . S
C675 C673 1.417 . S
C675 C677 1.329 . S
C675 H694 0.930 . S
C676 C672 1.415 . S
C676 C677 1.437 . S
C676 C680 1.413 . S
C677 C675 1.329 . S
C677 C676 1.437 . S
C677 H699 0.929 . S
N678 C672 1.369 . S
N678 C679 1.338 . S
N678 Gd683 2.622 . S
C679 N678 1.338 . S
C679 C681 1.378 . S
C679 H691 0.929 . S
C680 C676 1.413 . S
C680 C681 1.348 . S
C680 H696 0.931 . S
C681 C679 1.378 . S
C681 C680 1.348 . S
C681 H697 0.930 . S
Gd682 N702 2.622 . S
Gd682 N709 2.570 . S
Gd682 O716 2.353 . S
Gd682 O717 2.468 . S
Gd682 O718 2.427 . S
Gd682 O720 2.388 . S
Gd682 O721 2.386 . S
Gd682 O725 2.307 . S
Gd682 C735 2.805 . S
Gd683 N678 2.622 . S
Gd683 N684 2.570 . S
Gd683 O715 2.386 . S
Gd683 O719 2.307 . S
Gd683 O722 2.353 . S
Gd683 O723 2.468 . S
Gd683 O724 2.427 . S
Gd683 O726 2.388 . S
Gd683 C747 2.805 . S
N684 C674 1.359 . S
N684 Gd683 2.570 . S
N684 C686 1.343 . S
C685 C673 1.422 . S
C685 C687 1.321 . S
C685 H693 0.931 . S
C686 N684 1.343 . S
C686 C687 1.390 . S
C686 H688 0.931 . S
C687 C685 1.321 . S
C687 C686 1.390 . S
C687 H689 0.930 . S
H688 C686 0.931 . S
H689 C687 0.930 . S
H690 C713 0.931 . S
H691 C679 0.929 . S
H692 C714 0.930 . S
H693 C685 0.931 . S
H694 C675 0.930 . S
H695 C704 0.929 . S
H696 C680 0.931 . S
H697 C681 0.930 . S
H698 C736 0.930 . S
H699 C677 0.929 . S
H700 C705 0.931 . S
H701 C706 0.930 . S
N702 Gd682 2.622 . S
N702 C703 1.369 . S
N702 C704 1.338 . S
C703 N702 1.369 . S
C703 C707 1.415 . S
C703 C710 1.422 . S
C704 H695 0.929 . S
C704 N702 1.338 . S
C704 C706 1.378 . S
C705 H700 0.931 . S
C705 C706 1.348 . S
C705 C707 1.413 . S
C706 H701 0.930 . S
C706 C704 1.378 . S
C706 C705 1.348 . S
C707 C703 1.415 . S
C707 C705 1.413 . S
C707 C737 1.427 1_565 S
H708 C737 0.936 . S
N709 Gd682 2.570 . S
N709 C710 1.359 . S
N709 C713 1.343 . S
C710 C703 1.422 . S
C710 N709 1.359 . S
C710 C712 1.421 . S
C711 C712 1.422 . S
C711 C714 1.321 . S
C711 H738 0.931 1_565 S
C712 C710 1.421 . S
C712 C711 1.422 . S
C712 C736 1.417 1_565 S
C713 H690 0.931 . S
C713 N709 1.343 . S
C713 C714 1.390 . S
C714 H692 0.930 . S
C714 C711 1.321 . S
C714 C713 1.390 . S
O715 Gd683 2.386 . S
O715 C727 1.265 . S
O716 Gd682 2.353 . S
O716 C727 1.242 . S
O717 Gd682 2.468 . S
O717 C735 1.263 . S
O718 Gd682 2.427 . S
O718 C735 1.252 . S
O719 Gd683 2.307 . S
O719 C728 1.261 . S
O720 Gd682 2.388 . S
O720 C728 1.252 . S
O721 Gd682 2.386 . S
O721 C739 1.265 . S
O722 Gd683 2.353 . S
O722 C739 1.242 . S
O723 Gd683 2.468 . S
O723 C747 1.263 . S
O724 Gd683 2.427 . S
O724 C747 1.252 . S
O725 Gd682 2.307 . S
O725 C740 1.261 . S
O726 Gd683 2.388 . S
O726 C740 1.252 . S
C727 O715 1.265 . S
C727 O716 1.242 . S
C728 O719 1.261 . S
C728 O720 1.252 . S
C729 C732 1.394 . S
C729 C734 1.370 . S
C729 C735 1.500 . S
C730 C733 1.383 . S
C730 C734 1.395 . S
C731 C732 1.396 . S
C731 C733 1.365 . S
C731 H748 0.929 . S
C732 C729 1.394 . S
C732 C731 1.396 . S
C732 H749 0.930 . S
C733 C730 1.383 . S
C733 C731 1.365 . S
C733 H750 0.931 . S
C734 C729 1.370 . S
C734 C730 1.395 . S
C734 H751 0.930 . S
C735 Gd682 2.805 . S
C735 O717 1.263 . S
C735 O718 1.252 . S
C735 C729 1.500 . S
C736 H698 0.930 . S
C736 C712 1.417 1_545 S
C736 C737 1.333 . S
C737 C707 1.427 1_545 S
C737 H708 0.936 . S
C737 C736 1.333 . S
H738 C711 0.931 1_545 S
C739 O721 1.265 . S
C739 O722 1.242 . S
C740 O725 1.261 . S
C740 O726 1.252 . S
C741 C744 1.394 . S
C741 C746 1.370 . S
C741 C747 1.500 . S
C742 C745 1.383 . S
C742 C746 1.395 . S
C743 C744 1.396 . S
C743 C745 1.365 . S
C743 H752 0.929 . S
C744 C741 1.394 . S
C744 C743 1.396 . S
C744 H753 0.930 . S
C745 C742 1.383 . S
C745 C743 1.365 . S
C745 H754 0.931 . S
C746 C741 1.370 . S
C746 C742 1.395 . S
C746 H755 0.930 . S
C747 Gd683 2.805 . S
C747 O723 1.263 . S
C747 O724 1.252 . S
C747 C741 1.500 . S
H748 C731 0.929 . S
H749 C732 0.930 . S
H750 C733 0.931 . S
H751 C734 0.930 . S
H752 C743 0.929 . S
H753 C744 0.930 . S
H754 C745 0.931 . S
H755 C746 0.930 . S
C756 C758 1.422 . S
C756 C760 1.415 . S
C756 N762 1.369 . S
C757 C758 1.421 . S
C757 C759 1.417 . S
C757 C769 1.422 . S
C758 C756 1.422 . S
C758 C757 1.421 . S
C758 N768 1.359 . S
C759 C757 1.417 . S
C759 C761 1.329 . S
C759 H778 0.930 . S
C760 C756 1.415 . S
C760 C761 1.437 . S
C760 C764 1.413 . S
C761 C759 1.329 . S
C761 C760 1.437 . S
C761 H783 0.929 . S
N762 C756 1.369 . S
N762 C763 1.338 . S
N762 Gd767 2.622 . S
C763 N762 1.338 . S
C763 C765 1.378 . S
C763 H775 0.929 . S
C764 C760 1.413 . S
C764 C765 1.348 . S
C764 H780 0.931 . S
C765 C763 1.378 . S
C765 C764 1.348 . S
C765 H781 0.930 1_556 S
Gd766 N786 2.622 . S
Gd766 N793 2.570 . S
Gd766 O800 2.353 . S
Gd766 O801 2.468 . S
Gd766 O802 2.427 . S
Gd766 O804 2.388 . S
Gd766 O805 2.386 . S
Gd766 O809 2.307 . S
Gd766 C819 2.805 . S
Gd767 N762 2.622 . S
Gd767 N768 2.570 . S
Gd767 O799 2.386 . S
Gd767 O803 2.307 . S
Gd767 O806 2.353 . S
Gd767 O807 2.468 . S
Gd767 O808 2.427 . S
Gd767 O810 2.388 . S
Gd767 C831 2.805 . S
N768 C758 1.359 . S
N768 Gd767 2.570 . S
N768 C770 1.343 . S
C769 C757 1.422 . S
C769 C771 1.321 . S
C769 H777 0.931 . S
C770 N768 1.343 . S
C770 C771 1.390 . S
C770 H772 0.931 . S
C771 C769 1.321 . S
C771 C770 1.390 . S
C771 H773 0.930 . S
H772 C770 0.931 . S
H773 C771 0.930 . S
H774 C797 0.931 . S
H775 C763 0.929 . S
H776 C798 0.933 . S
H777 C769 0.931 . S
H778 C759 0.930 . S
H779 C788 0.929 . S
H780 C764 0.931 . S
H781 C765 0.930 1_554 S
H782 C820 0.930 . S
H783 C761 0.929 . S
H784 C789 0.931 . S
H785 C790 0.930 . S
N786 Gd766 2.622 . S
N786 C787 1.369 . S
N786 C788 1.338 . S
C787 N786 1.369 . S
C787 C791 1.415 . S
C787 C794 1.422 . S
C788 H779 0.929 . S
C788 N786 1.338 . S
C788 C790 1.378 . S
C789 H784 0.931 . S
C789 C790 1.348 . S
C789 C791 1.413 . S
C790 H785 0.930 . S
C790 C788 1.378 . S
C790 C789 1.348 . S
C791 C787 1.415 . S
C791 C789 1.413 . S
C791 C821 1.437 . S
H792 C821 0.923 1_655 S
N793 Gd766 2.570 . S
N793 C794 1.359 . S
N793 C797 1.343 . S
C794 C787 1.422 . S
C794 N793 1.359 . S
C794 C796 1.421 . S
C795 C796 1.422 1_655 S
C795 C798 1.321 1_655 S
C795 H822 0.931 . S
C796 C794 1.421 . S
C796 C795 1.422 1_455 S
C796 C820 1.417 1_455 S
C797 H774 0.931 . S
C797 N793 1.343 . S
C797 C798 1.390 . S
C798 H776 0.933 . S
C798 C795 1.321 1_455 S
C798 C797 1.390 . S
O799 Gd767 2.386 . S
O799 C811 1.265 . S
O800 Gd766 2.353 . S
O800 C811 1.242 . S
O801 Gd766 2.468 . S
O801 C819 1.263 . S
O802 Gd766 2.427 . S
O802 C819 1.252 . S
O803 Gd767 2.307 . S
O803 C812 1.261 . S
O804 Gd766 2.388 . S
O804 C812 1.252 . S
O805 Gd766 2.386 . S
O805 C823 1.265 . S
O806 Gd767 2.353 . S
O806 C823 1.242 . S
O807 Gd767 2.468 . S
O807 C831 1.263 . S
O808 Gd767 2.427 . S
O808 C831 1.252 . S
O809 Gd766 2.307 . S
O809 C824 1.261 . S
O810 Gd767 2.388 . S
O810 C824 1.252 . S
C811 O799 1.265 . S
C811 O800 1.242 . S
C812 O803 1.261 . S
C812 O804 1.252 . S
C813 C816 1.394 . S
C813 C818 1.370 . S
C813 C819 1.500 1_655 S
C814 C817 1.383 . S
C814 C818 1.395 . S
C815 C816 1.396 . S
C815 C817 1.365 . S
C815 H832 0.929 . S
C816 C813 1.394 . S
C816 C815 1.396 . S
C816 H833 0.930 . S
C817 C814 1.383 . S
C817 C815 1.365 . S
C817 H834 0.931 . S
C818 C813 1.370 . S
C818 C814 1.395 . S
C818 H835 0.930 . S
C819 Gd766 2.805 . S
C819 O801 1.263 . S
C819 O802 1.252 . S
C819 C813 1.500 1_455 S
C820 H782 0.930 . S
C820 C796 1.417 1_655 S
C820 C821 1.329 1_655 S
C821 C791 1.437 . S
C821 H792 0.923 1_455 S
C821 C820 1.329 1_455 S
H822 C795 0.931 . S
C823 O805 1.265 . S
C823 O806 1.242 . S
C824 O809 1.261 . S
C824 O810 1.252 . S
C825 C828 1.394 . S
C825 C830 1.370 . S
C825 C831 1.500 . S
C826 C829 1.383 . S
C826 C830 1.395 . S
C827 C828 1.396 . S
C827 C829 1.365 . S
C827 H836 0.929 . S
C828 C825 1.394 . S
C828 C827 1.396 . S
C828 H837 0.930 . S
C829 C826 1.383 . S
C829 C827 1.365 . S
C829 H838 0.931 . S
C830 C825 1.370 . S
C830 C826 1.395 . S
C830 H839 0.930 . S
C831 Gd767 2.805 . S
C831 O807 1.263 . S
C831 O808 1.252 . S
C831 C825 1.500 . S
H832 C815 0.929 . S
H833 C816 0.930 . S
H834 C817 0.931 . S
H835 C818 0.930 . S
H836 C827 0.929 . S
H837 C828 0.930 . S
H838 C829 0.931 . S
H839 C830 0.930 . S
C840 C842 1.422 . S
C840 C844 1.415 . S
C840 N846 1.369 . S
C841 C842 1.421 . S
C841 C843 1.417 1_565 S
C841 C853 1.422 1_565 S
C842 C840 1.422 . S
C842 C841 1.421 . S
C842 N852 1.359 . S
C843 C841 1.417 1_545 S
C843 C845 1.329 1_545 S
C843 H862 0.930 . S
C844 C840 1.415 . S
C844 C845 1.437 . S
C844 C848 1.413 . S
C845 C843 1.329 1_565 S
C845 C844 1.437 . S
C845 H867 0.930 1_565 S
N846 C840 1.369 . S
N846 C847 1.338 . S
N846 Gd851 2.622 . S
C847 N846 1.338 . S
C847 C849 1.378 . S
C847 H859 0.929 . S
C848 C844 1.413 . S
C848 C849 1.348 . S
C848 H864 0.931 . S
C849 C847 1.378 . S
C849 C848 1.348 . S
C849 H865 0.930 . S
Gd850 N870 2.622 . S
Gd850 N877 2.570 . S
Gd850 O884 2.353 . S
Gd850 O885 2.468 . S
Gd850 O886 2.427 . S
Gd850 O888 2.388 . S
Gd850 O889 2.386 . S
Gd850 O893 2.307 . S
Gd850 C903 2.805 . S
Gd851 N846 2.622 . S
Gd851 N852 2.570 . S
Gd851 O883 2.386 . S
Gd851 O887 2.307 . S
Gd851 O890 2.353 . S
Gd851 O891 2.468 . S
Gd851 O892 2.427 . S
Gd851 O894 2.388 . S
Gd851 C915 2.805 . S
N852 C842 1.359 . S
N852 Gd851 2.570 . S
N852 C854 1.343 . S
C853 C841 1.422 1_545 S
C853 C855 1.321 1_545 S
C853 H861 0.931 . S
C854 N852 1.343 . S
C854 C855 1.390 . S
C854 H856 0.931 . S
C855 C853 1.321 1_565 S
C855 C854 1.390 . S
C855 H857 0.932 . S
H856 C854 0.931 . S
H857 C855 0.932 . S
H858 C881 0.931 . S
H859 C847 0.929 . S
H860 C882 0.930 . S
H861 C853 0.931 . S
H862 C843 0.930 . S
H863 C872 0.929 . S
H864 C848 0.931 . S
H865 C849 0.930 . S
H866 C904 0.930 . S
H867 C845 0.930 1_545 S
H868 C873 0.931 . S
H869 C874 0.930 . S
N870 Gd850 2.622 . S
N870 C871 1.369 . S
N870 C872 1.338 . S
C871 N870 1.369 . S
C871 C875 1.415 . S
C871 C878 1.422 . S
C872 H863 0.929 . S
C872 N870 1.338 . S
C872 C874 1.378 . S
C873 H868 0.931 . S
C873 C874 1.348 . S
C873 C875 1.413 . S
C874 H869 0.930 . S
C874 C872 1.378 . S
C874 C873 1.348 . S
C875 C871 1.415 . S
C875 C873 1.413 . S
C875 C905 1.429 1_455 S
H876 C905 0.936 . S
N877 Gd850 2.570 . S
N877 C878 1.359 . S
N877 C881 1.343 . S
C878 C871 1.422 . S
C878 N877 1.359 . S
C878 C880 1.421 . S
C879 C880 1.422 . S
C879 C882 1.321 . S
C879 H906 0.931 1_455 S
C880 C878 1.421 . S
C880 C879 1.422 . S
C880 C904 1.417 1_455 S
C881 H858 0.931 . S
C881 N877 1.343 . S
C881 C882 1.390 . S
C882 H860 0.930 . S
C882 C879 1.321 . S
C882 C881 1.390 . S
O883 Gd851 2.386 . S
O883 C895 1.265 . S
O884 Gd850 2.353 . S
O884 C895 1.242 . S
O885 Gd850 2.468 . S
O885 C903 1.263 . S
O886 Gd850 2.427 . S
O886 C903 1.252 . S
O887 Gd851 2.307 . S
O887 C896 1.261 . S
O888 Gd850 2.388 . S
O888 C896 1.252 . S
O889 Gd850 2.386 . S
O889 C907 1.265 . S
O890 Gd851 2.353 . S
O890 C907 1.242 . S
O891 Gd851 2.468 . S
O891 C915 1.263 . S
O892 Gd851 2.427 . S
O892 C915 1.252 . S
O893 Gd850 2.307 . S
O893 C908 1.261 . S
O894 Gd851 2.388 . S
O894 C908 1.252 . S
C895 O883 1.265 . S
C895 O884 1.242 . S
C896 O887 1.261 . S
C896 O888 1.252 . S
C897 C900 1.394 . S
C897 C902 1.370 . S
C897 C903 1.500 . S
C898 C901 1.383 . S
C898 C902 1.395 . S
C899 C900 1.396 . S
C899 C901 1.365 . S
C899 H916 0.929 . S
C900 C897 1.394 . S
C900 C899 1.396 . S
C900 H917 0.930 . S
C901 C898 1.383 . S
C901 C899 1.365 . S
C901 H918 0.931 . S
C902 C897 1.370 . S
C902 C898 1.395 . S
C902 H919 0.930 . S
C903 Gd850 2.805 . S
C903 O885 1.263 . S
C903 O886 1.252 . S
C903 C897 1.500 . S
C904 H866 0.930 . S
C904 C880 1.417 1_655 S
C904 C905 1.331 . S
C905 C875 1.429 1_655 S
C905 H876 0.936 . S
C905 C904 1.331 . S
H906 C879 0.931 1_655 S
C907 O889 1.265 . S
C907 O890 1.242 . S
C908 O893 1.261 . S
C908 O894 1.252 . S
C909 C912 1.394 . S
C909 C914 1.370 . S
C909 C915 1.500 1_545 S
C910 C913 1.383 . S
C910 C914 1.395 . S
C911 C912 1.396 . S
C911 C913 1.365 . S
C911 H920 0.929 . S
C912 C909 1.394 . S
C912 C911 1.396 . S
C912 H921 0.930 . S
C913 C910 1.383 . S
C913 C911 1.365 . S
C913 H922 0.931 . S
C914 C909 1.370 . S
C914 C910 1.395 . S
C914 H923 0.930 . S
C915 Gd851 2.805 . S
C915 O891 1.263 . S
C915 O892 1.252 . S
C915 C909 1.500 1_565 S
H916 C899 0.929 . S
H917 C900 0.930 . S
H918 C901 0.931 . S
H919 C902 0.930 . S
H920 C911 0.929 . S
H921 C912 0.930 . S
H922 C913 0.931 . S
H923 C914 0.930 . S
C924 C926 1.422 . S
C924 C928 1.415 . S
C924 N930 1.369 . S
C925 C926 1.421 . S
C925 C927 1.417 1_565 S
C925 C937 1.422 . S
C926 C924 1.422 . S
C926 C925 1.421 . S
C926 N936 1.359 . S
C927 C925 1.417 1_545 S
C927 C929 1.333 . S
C927 H946 0.930 . S
C928 C924 1.415 . S
C928 C929 1.427 1_565 S
C928 C932 1.413 . S
C929 C927 1.333 . S
C929 C928 1.427 1_545 S
C929 H951 0.936 . S
N930 C924 1.369 . S
N930 C931 1.338 . S
N930 Gd935 2.622 . S
C931 N930 1.338 . S
C931 C933 1.378 . S
C931 H943 0.929 . S
C932 C928 1.413 . S
C932 C933 1.348 . S
C932 H948 0.931 . S
C933 C931 1.378 . S
C933 C932 1.348 . S
C933 H949 0.930 1_556 S
Gd934 N954 2.622 . S
Gd934 N961 2.570 . S
Gd934 O968 2.353 . S
Gd934 O969 2.468 . S
Gd934 O970 2.427 . S
Gd934 O972 2.388 . S
Gd934 O973 2.386 . S
Gd934 O977 2.307 . S
Gd934 C987 2.805 . S
Gd935 N930 2.622 . S
Gd935 N936 2.570 . S
Gd935 O967 2.386 . S
Gd935 O971 2.307 . S
Gd935 O974 2.353 . S
Gd935 O975 2.468 . S
Gd935 O976 2.427 . S
Gd935 O978 2.388 . S
Gd935 C999 2.805 . S
N936 C926 1.359 . S
N936 Gd935 2.570 . S
N936 C938 1.343 . S
C937 C925 1.422 . S
C937 C939 1.321 . S
C937 H945 0.931 1_565 S
C938 N936 1.343 . S
C938 C939 1.390 . S
C938 H940 0.931 . S
C939 C937 1.321 . S
C939 C938 1.390 . S
C939 H941 0.930 . S
H940 C938 0.931 . S
H941 C939 0.930 . S
H942 C965 0.931 . S
H943 C931 0.929 . S
H944 C966 0.930 . S
H945 C937 0.931 1_545 S
H946 C927 0.930 . S
H947 C956 0.929 . S
H948 C932 0.931 . S
H949 C933 0.930 1_554 S
H950 C988 0.930 . S
H951 C929 0.936 . S
H952 C957 0.931 . S
H953 C958 0.930 . S
N954 Gd934 2.622 . S
N954 C955 1.369 . S
N954 C956 1.338 . S
C955 N954 1.369 . S
C955 C959 1.415 . S
C955 C962 1.422 . S
C956 H947 0.929 . S
C956 N954 1.338 . S
C956 C958 1.378 . S
C957 H952 0.931 . S
C957 C958 1.348 . S
C957 C959 1.413 . S
C958 H953 0.930 . S
C958 C956 1.378 . S
C958 C957 1.348 . S
C959 C955 1.415 . S
C959 C957 1.413 . S
C959 C989 1.437 . S
H960 C989 0.929 . S
N961 Gd934 2.570 . S
N961 C962 1.359 . S
N961 C965 1.343 . S
C962 C955 1.422 . S
C962 N961 1.359 . S
C962 C964 1.421 . S
C963 C964 1.422 . S
C963 C966 1.321 . S
C963 H990 0.931 . S
C964 C962 1.421 . S
C964 C963 1.422 . S
C964 C988 1.417 . S
C965 H942 0.931 . S
C965 N961 1.343 . S
C965 C966 1.390 . S
C966 H944 0.930 . S
C966 C963 1.321 . S
C966 C965 1.390 . S
O967 Gd935 2.386 . S
O967 C979 1.265 . S
O968 Gd934 2.353 . S
O968 C979 1.242 . S
O969 Gd934 2.468 . S
O969 C987 1.263 . S
O970 Gd934 2.427 . S
O970 C987 1.252 . S
O971 Gd935 2.307 . S
O971 C980 1.261 . S
O972 Gd934 2.388 . S
O972 C980 1.252 . S
O973 Gd934 2.386 . S
O973 C991 1.265 . S
O974 Gd935 2.353 . S
O974 C991 1.242 . S
O975 Gd935 2.468 . S
O975 C999 1.263 . S
O976 Gd935 2.427 . S
O976 C999 1.252 . S
O977 Gd934 2.307 . S
O977 C992 1.261 . S
O978 Gd935 2.388 . S
O978 C992 1.252 . S
C979 O967 1.265 . S
C979 O968 1.242 . S
C980 O971 1.261 . S
C980 O972 1.252 . S
C981 C984 1.394 . S
C981 C986 1.370 . S
C981 C987 1.500 . S
C982 C985 1.383 . S
C982 C986 1.395 . S
C983 C984 1.396 . S
C983 C985 1.365 . S
C983 H1000 0.929 . S
C984 C981 1.394 . S
C984 C983 1.396 . S
C984 H1001 0.930 . S
C985 C982 1.383 . S
C985 C983 1.365 . S
C985 H1002 0.931 . S
C986 C981 1.370 . S
C986 C982 1.395 . S
C986 H1003 0.930 . S
C987 Gd934 2.805 . S
C987 O969 1.263 . S
C987 O970 1.252 . S
C987 C981 1.500 . S
C988 H950 0.930 . S
C988 C964 1.417 . S
C988 C989 1.329 . S
C989 C959 1.437 . S
C989 H960 0.929 . S
C989 C988 1.329 . S
H990 C963 0.931 . S
C991 O973 1.265 . S
C991 O974 1.242 . S
C992 O977 1.261 . S
C992 O978 1.252 . S
C993 C996 1.394 . S
C993 C998 1.370 . S
C993 C999 1.500 . S
C994 C997 1.383 . S
C994 C998 1.395 . S
C995 C996 1.396 . S
C995 C997 1.365 . S
C995 H1004 0.929 . S
C996 C993 1.394 . S
C996 C995 1.396 . S
C996 H1005 0.930 . S
C997 C994 1.383 . S
C997 C995 1.365 . S
C997 H1006 0.931 . S
C998 C993 1.370 . S
C998 C994 1.395 . S
C998 H1007 0.930 . S
C999 Gd935 2.805 . S
C999 O975 1.263 . S
C999 O976 1.252 . S
C999 C993 1.500 . S
H1000 C983 0.929 . S
H1001 C984 0.930 . S
H1002 C985 0.931 . S
H1003 C986 0.930 . S
H1004 C995 0.929 . S
H1005 C996 0.930 . S
H1006 C997 0.931 . S
H1007 C998 0.930 . S
H1008 C1014 0.930 . S
H1009 C1018 0.930 . S
H1010 C1023 0.929 . S
H1011 C1021 0.929 . S
H1012 C1016 0.929 . S
H1013 C1022 0.929 . S
C1014 H1008 0.930 . S
C1014 C1015 1.367 . S
C1014 C1022 1.378 . S
C1015 C1014 1.367 . S
C1015 C1023 1.433 . S
C1016 H1012 0.929 . S
C1016 C1018 1.378 . S
C1016 C1020 1.350 . S
C1017 C1020 1.463 . S
C1017 C1022 1.350 . S
C1017 N1025 1.427 . S
C1018 H1009 0.930 . S
C1018 C1016 1.378 . S
C1018 C1019 1.367 . S
C1019 C1018 1.367 . S
C1019 C1021 1.433 . S
C1020 C1016 1.350 . S
C1020 C1017 1.463 . S
C1020 N1024 1.427 . S
C1021 H1011 0.929 . S
C1021 C1019 1.433 . S
C1021 N1024 1.384 . S
C1022 H1013 0.929 . S
C1022 C1014 1.378 . S
C1022 C1017 1.350 . S
C1023 H1010 0.929 . S
C1023 C1015 1.433 . S
C1023 N1025 1.384 . S
N1024 C1020 1.427 . S
N1024 C1021 1.384 . S
N1025 C1017 1.427 . S
N1025 C1023 1.384 . S
H1026 C1032 0.930 . S
H1027 C1036 0.930 . S
H1028 C1041 0.929 . S
H1029 C1039 0.929 . S
H1030 C1034 0.929 . S
H1031 C1040 0.929 . S
C1032 H1026 0.930 . S
C1032 C1033 1.367 . S
C1032 C1040 1.378 . S
C1033 C1032 1.367 . S
C1033 C1041 1.433 . S
C1034 H1030 0.929 . S
C1034 C1036 1.378 . S
C1034 C1038 1.350 . S
C1035 C1038 1.463 1_455 S
C1035 C1040 1.350 . S
C1035 N1043 1.427 . S
C1036 H1027 0.930 . S
C1036 C1034 1.378 . S
C1036 C1037 1.367 . S
C1037 C1036 1.367 . S
C1037 C1039 1.433 . S
C1038 C1034 1.350 . S
C1038 C1035 1.463 1_655 S
C1038 N1042 1.427 . S
C1039 H1029 0.929 . S
C1039 C1037 1.433 . S
C1039 N1042 1.384 . S
C1040 H1031 0.929 . S
C1040 C1032 1.378 . S
C1040 C1035 1.350 . S
C1041 H1028 0.929 . S
C1041 C1033 1.433 . S
C1041 N1043 1.384 . S
N1042 C1038 1.427 . S
N1042 C1039 1.384 . S
N1043 C1035 1.427 . S
N1043 C1041 1.384 . S
H1044 C1050 0.930 . S
H1045 C1054 0.930 . S
H1046 C1059 0.929 . S
H1047 C1057 0.929 . S
H1048 C1052 0.929 . S
H1049 C1058 0.913 1_565 S
C1050 H1044 0.930 . S
C1050 C1051 1.367 . S
C1050 C1058 1.378 . S
C1051 C1050 1.367 . S
C1051 C1059 1.433 . S
C1052 H1048 0.929 . S
C1052 C1054 1.378 . S
C1052 C1056 1.350 . S
C1053 C1056 1.463 1_545 S
C1053 C1058 1.350 . S
C1053 N1061 1.427 . S
C1054 H1045 0.930 . S
C1054 C1052 1.378 . S
C1054 C1055 1.367 . S
C1055 C1054 1.367 . S
C1055 C1057 1.433 . S
C1056 C1052 1.350 . S
C1056 C1053 1.463 1_565 S
C1056 N1060 1.427 . S
C1057 H1047 0.929 . S
C1057 C1055 1.433 . S
C1057 N1060 1.384 . S
C1058 H1049 0.913 1_545 S
C1058 C1050 1.378 . S
C1058 C1053 1.350 . S
C1059 H1046 0.929 . S
C1059 C1051 1.433 . S
C1059 N1061 1.384 . S
N1060 C1056 1.427 . S
N1060 C1057 1.384 . S
N1061 C1053 1.427 . S
N1061 C1059 1.384 . S
H1062 C1068 0.930 . S
H1063 C1072 0.930 . S
H1064 C1077 0.929 . S
H1065 C1075 0.929 . S
H1066 C1070 0.929 . S
H1067 C1076 0.929 . S
C1068 H1062 0.930 . S
C1068 C1069 1.367 . S
C1068 C1076 1.378 . S
C1069 C1068 1.367 . S
C1069 C1077 1.433 . S
C1070 H1066 0.929 . S
C1070 C1072 1.378 . S
C1070 C1074 1.350 . S
C1071 C1074 1.463 . S
C1071 C1076 1.350 . S
C1071 N1079 1.427 . S
C1072 H1063 0.930 . S
C1072 C1070 1.378 . S
C1072 C1073 1.367 . S
C1073 C1072 1.367 . S
C1073 C1075 1.433 . S
C1074 C1070 1.350 . S
C1074 C1071 1.463 . S
C1074 N1078 1.427 . S
C1075 H1065 0.929 . S
C1075 C1073 1.433 . S
C1075 N1078 1.384 . S
C1076 H1067 0.929 . S
C1076 C1068 1.378 . S
C1076 C1071 1.350 . S
C1077 H1064 0.929 . S
C1077 C1069 1.433 . S
C1077 N1079 1.384 . S
N1078 C1074 1.427 . S
N1078 C1075 1.384 . S
N1079 C1071 1.427 . S
N1079 C1077 1.384 . S
H1080 C1086 0.930 . S
H1081 C1090 0.930 . S
H1082 C1095 0.929 . S
H1083 C1093 0.929 . S
H1084 C1088 0.929 . S
H1085 C1094 0.929 . S
C1086 H1080 0.930 . S
C1086 C1087 1.367 . S
C1086 C1094 1.378 . S
C1087 C1086 1.367 . S
C1087 C1095 1.433 . S
C1088 H1084 0.929 . S
C1088 C1090 1.378 . S
C1088 C1092 1.350 . S
C1089 C1092 1.463 1_455 S
C1089 C1094 1.350 . S
C1089 N1097 1.427 . S
C1090 H1081 0.930 . S
C1090 C1088 1.378 . S
C1090 C1091 1.367 . S
C1091 C1090 1.367 . S
C1091 C1093 1.433 . S
C1092 C1088 1.350 . S
C1092 C1089 1.463 1_655 S
C1092 N1096 1.427 . S
C1093 H1083 0.929 . S
C1093 C1091 1.433 . S
C1093 N1096 1.384 . S
C1094 H1085 0.929 . S
C1094 C1086 1.378 . S
C1094 C1089 1.350 . S
C1095 H1082 0.929 . S
C1095 C1087 1.433 . S
C1095 N1097 1.384 . S
N1096 C1092 1.427 . S
N1096 C1093 1.384 . S
N1097 C1089 1.427 . S
N1097 C1095 1.384 . S
H1098 C1104 0.930 . S
H1099 C1108 0.930 . S
H1100 C1113 0.929 . S
H1101 C1111 0.929 . S
H1102 C1106 0.929 . S
H1103 C1112 0.929 . S
C1104 H1098 0.930 . S
C1104 C1105 1.367 . S
C1104 C1112 1.378 . S
C1105 C1104 1.367 . S
C1105 C1113 1.433 . S
C1106 H1102 0.929 . S
C1106 C1108 1.378 . S
C1106 C1110 1.350 . S
C1107 C1110 1.463 1_565 S
C1107 C1112 1.350 . S
C1107 N1115 1.427 . S
C1108 H1099 0.930 . S
C1108 C1106 1.378 . S
C1108 C1109 1.367 . S
C1109 C1108 1.367 . S
C1109 C1111 1.433 . S
C1110 C1106 1.350 . S
C1110 C1107 1.463 1_545 S
C1110 N1114 1.427 . S
C1111 H1101 0.929 . S
C1111 C1109 1.433 . S
C1111 N1114 1.384 . S
C1112 H1103 0.929 . S
C1112 C1104 1.378 . S
C1112 C1107 1.350 . S
C1113 H1100 0.929 . S
C1113 C1105 1.433 . S
C1113 N1115 1.384 . S
N1114 C1110 1.427 . S
N1114 C1111 1.384 . S
N1115 C1107 1.427 . S
N1115 C1113 1.384 . S
H1116 C1122 0.930 . S
H1117 C1126 0.930 . S
H1118 C1131 0.929 . S
H1119 C1129 0.929 . S
H1120 C1124 0.929 . S
H1121 C1130 0.929 . S
C1122 H1116 0.930 . S
C1122 C1123 1.367 . S
C1122 C1130 1.378 . S
C1123 C1122 1.367 . S
C1123 C1131 1.433 . S
C1124 H1120 0.929 . S
C1124 C1126 1.378 . S
C1124 C1128 1.350 . S
C1125 C1128 1.463 . S
C1125 C1130 1.350 . S
C1125 N1133 1.427 . S
C1126 H1117 0.930 . S
C1126 C1124 1.378 . S
C1126 C1127 1.367 . S
C1127 C1126 1.367 . S
C1127 C1129 1.433 . S
C1128 C1124 1.350 . S
C1128 C1125 1.463 . S
C1128 N1132 1.427 . S
C1129 H1119 0.929 . S
C1129 C1127 1.433 . S
C1129 N1132 1.384 . S
C1130 H1121 0.929 . S
C1130 C1122 1.378 . S
C1130 C1125 1.350 . S
C1131 H1118 0.929 . S
C1131 C1123 1.433 . S
C1131 N1133 1.384 . S
N1132 C1128 1.427 . S
N1132 C1129 1.384 . S
N1133 C1125 1.427 . S
N1133 C1131 1.384 . S
H1134 C1140 0.930 . S
H1135 C1144 0.930 . S
H1136 C1149 0.929 . S
H1137 C1147 0.929 . S
H1138 C1142 0.929 . S
H1139 C1148 0.929 . S
C1140 H1134 0.930 . S
C1140 C1141 1.367 . S
C1140 C1148 1.378 . S
C1141 C1140 1.367 . S
C1141 C1149 1.433 . S
C1142 H1138 0.929 . S
C1142 C1144 1.378 . S
C1142 C1146 1.350 . S
C1143 C1146 1.463 1_455 S
C1143 C1148 1.350 . S
C1143 N1151 1.427 . S
C1144 H1135 0.930 . S
C1144 C1142 1.378 . S
C1144 C1145 1.367 . S
C1145 C1144 1.367 . S
C1145 C1147 1.433 . S
C1146 C1142 1.350 . S
C1146 C1143 1.463 1_655 S
C1146 N1150 1.427 . S
C1147 H1137 0.929 . S
C1147 C1145 1.433 . S
C1147 N1150 1.384 . S
C1148 H1139 0.929 . S
C1148 C1140 1.378 . S
C1148 C1143 1.350 . S
C1149 H1136 0.929 . S
C1149 C1141 1.433 . S
C1149 N1151 1.384 . S
N1150 C1146 1.427 . S
N1150 C1147 1.384 . S
N1151 C1143 1.427 . S
N1151 C1149 1.384 . S
H1152 C1158 0.930 . S
H1153 C1162 0.930 . S
H1154 C1167 0.929 . S
H1155 C1165 0.929 . S
H1156 C1160 0.929 . S
H1157 C1166 0.929 1_545 S
C1158 H1152 0.930 . S
C1158 C1159 1.367 . S
C1158 C1166 1.378 . S
C1159 C1158 1.367 . S
C1159 C1167 1.433 . S
C1160 H1156 0.929 . S
C1160 C1162 1.378 . S
C1160 C1164 1.350 . S
C1161 C1164 1.463 1_565 S
C1161 C1166 1.350 . S
C1161 N1169 1.427 . S
C1162 H1153 0.930 . S
C1162 C1160 1.378 . S
C1162 C1163 1.367 . S
C1163 C1162 1.367 . S
C1163 C1165 1.433 . S
C1164 C1160 1.350 . S
C1164 C1161 1.463 1_545 S
C1164 N1168 1.427 . S
C1165 H1155 0.929 . S
C1165 C1163 1.433 . S
C1165 N1168 1.384 . S
C1166 H1157 0.929 1_565 S
C1166 C1158 1.378 . S
C1166 C1161 1.350 . S
C1167 H1154 0.929 . S
C1167 C1159 1.433 . S
C1167 N1169 1.384 . S
N1168 C1164 1.427 . S
N1168 C1165 1.384 . S
N1169 C1161 1.427 . S
N1169 C1167 1.384 . S
H1170 C1176 0.930 . S
H1171 C1180 0.930 . S
H1172 C1185 0.929 . S
H1173 C1183 0.929 . S
H1174 C1178 0.929 . S
H1175 C1184 0.929 . S
C1176 H1170 0.930 . S
C1176 C1177 1.367 . S
C1176 C1184 1.378 . S
C1177 C1176 1.367 . S
C1177 C1185 1.433 . S
C1178 H1174 0.929 . S
C1178 C1180 1.378 . S
C1178 C1182 1.350 . S
C1179 C1182 1.463 . S
C1179 C1184 1.350 . S
C1179 N1187 1.427 . S
C1180 H1171 0.930 . S
C1180 C1178 1.378 . S
C1180 C1181 1.367 . S
C1181 C1180 1.367 . S
C1181 C1183 1.433 . S
C1182 C1178 1.350 . S
C1182 C1179 1.463 . S
C1182 N1186 1.427 . S
C1183 H1173 0.929 . S
C1183 C1181 1.433 . S
C1183 N1186 1.384 . S
C1184 H1175 0.929 . S
C1184 C1176 1.378 . S
C1184 C1179 1.350 . S
C1185 H1172 0.929 . S
C1185 C1177 1.433 . S
C1185 N1187 1.384 . S
N1186 C1182 1.427 . S
N1186 C1183 1.384 . S
N1187 C1179 1.427 . S
N1187 C1185 1.384 . S
H1188 C1194 0.930 . S
H1189 C1198 0.930 . S
H1190 C1203 0.929 . S
H1191 C1201 0.929 . S
H1192 C1196 0.929 . S
H1193 C1202 0.929 . S
C1194 H1188 0.930 . S
C1194 C1195 1.367 . S
C1194 C1202 1.378 . S
C1195 C1194 1.367 . S
C1195 C1203 1.433 . S
C1196 H1192 0.929 . S
C1196 C1198 1.378 . S
C1196 C1200 1.350 . S
C1197 C1200 1.463 1_455 S
C1197 C1202 1.350 . S
C1197 N1205 1.427 . S
C1198 H1189 0.930 . S
C1198 C1196 1.378 . S
C1198 C1199 1.367 . S
C1199 C1198 1.367 . S
C1199 C1201 1.433 . S
C1200 C1196 1.350 . S
C1200 C1197 1.463 1_655 S
C1200 N1204 1.427 . S
C1201 H1191 0.929 . S
C1201 C1199 1.433 . S
C1201 N1204 1.384 . S
C1202 H1193 0.929 . S
C1202 C1194 1.378 . S
C1202 C1197 1.350 . S
C1203 H1190 0.929 . S
C1203 C1195 1.433 . S
C1203 N1205 1.384 . S
N1204 C1200 1.427 . S
N1204 C1201 1.384 . S
N1205 C1197 1.427 . S
N1205 C1203 1.384 . S
H1206 C1212 0.930 . S
H1207 C1216 0.930 . S
H1208 C1221 0.929 . S
H1209 C1219 0.929 . S
H1210 C1214 0.929 1_545 S
H1211 C1220 0.929 . S
C1212 H1206 0.930 . S
C1212 C1213 1.367 . S
C1212 C1220 1.378 . S
C1213 C1212 1.367 . S
C1213 C1221 1.433 . S
C1214 H1210 0.929 1_565 S
C1214 C1216 1.378 . S
C1214 C1218 1.350 . S
C1215 C1218 1.463 1_545 S
C1215 C1220 1.350 . S
C1215 N1223 1.427 . S
C1216 H1207 0.930 . S
C1216 C1214 1.378 . S
C1216 C1217 1.367 . S
C1217 C1216 1.367 . S
C1217 C1219 1.433 . S
C1218 C1214 1.350 . S
C1218 C1215 1.463 1_565 S
C1218 N1222 1.427 . S
C1219 H1209 0.929 . S
C1219 C1217 1.433 . S
C1219 N1222 1.384 . S
C1220 H1211 0.929 . S
C1220 C1212 1.378 . S
C1220 C1215 1.350 . S
C1221 H1208 0.929 . S
C1221 C1213 1.433 . S
C1221 N1223 1.384 . S
N1222 C1218 1.427 . S
N1222 C1219 1.384 . S
N1223 C1215 1.427 . S
N1223 C1221 1.384 . S
H1224 C1230 0.930 . S
H1225 C1234 0.930 . S
H1226 C1239 0.929 . S
H1227 C1237 0.929 . S
H1228 C1232 0.929 . S
H1229 C1238 0.929 . S
C1230 H1224 0.930 . S
C1230 C1231 1.367 . S
C1230 C1238 1.378 . S
C1231 C1230 1.367 . S
C1231 C1239 1.433 . S
C1232 H1228 0.929 . S
C1232 C1234 1.378 . S
C1232 C1236 1.350 . S
C1233 C1236 1.463 . S
C1233 C1238 1.350 . S
C1233 N1241 1.427 . S
C1234 H1225 0.930 . S
C1234 C1232 1.378 . S
C1234 C1235 1.367 . S
C1235 C1234 1.367 . S
C1235 C1237 1.433 . S
C1236 C1232 1.350 . S
C1236 C1233 1.463 . S
C1236 N1240 1.427 . S
C1237 H1227 0.929 . S
C1237 C1235 1.433 . S
C1237 N1240 1.384 . S
C1238 H1229 0.929 . S
C1238 C1230 1.378 . S
C1238 C1233 1.350 . S
C1239 H1226 0.929 . S
C1239 C1231 1.433 . S
C1239 N1241 1.384 . S
N1240 C1236 1.427 . S
N1240 C1237 1.384 . S
N1241 C1233 1.427 . S
N1241 C1239 1.384 . S
H1242 C1248 0.930 . S
H1243 C1252 0.930 . S
H1244 C1257 0.929 . S
H1245 C1255 0.929 . S
H1246 C1250 0.929 . S
H1247 C1256 0.929 . S
C1248 H1242 0.930 . S
C1248 C1249 1.367 . S
C1248 C1256 1.378 . S
C1249 C1248 1.367 . S
C1249 C1257 1.433 . S
C1250 H1246 0.929 . S
C1250 C1252 1.378 . S
C1250 C1254 1.350 . S
C1251 C1254 1.463 . S
C1251 C1256 1.350 . S
C1251 N1259 1.427 . S
C1252 H1243 0.930 . S
C1252 C1250 1.378 . S
C1252 C1253 1.367 . S
C1253 C1252 1.367 . S
C1253 C1255 1.433 . S
C1254 C1250 1.350 . S
C1254 C1251 1.463 . S
C1254 N1258 1.427 . S
C1255 H1245 0.929 . S
C1255 C1253 1.433 . S
C1255 N1258 1.384 . S
C1256 H1247 0.929 . S
C1256 C1248 1.378 . S
C1256 C1251 1.350 . S
C1257 H1244 0.929 . S
C1257 C1249 1.433 . S
C1257 N1259 1.384 . S
N1258 C1254 1.427 . S
N1258 C1255 1.384 . S
N1259 C1251 1.427 . S
N1259 C1257 1.384 . S
H1260 C1266 0.930 . S
H1261 C1270 0.930 . S
H1262 C1275 0.929 . S
H1263 C1273 0.929 . S
H1264 C1268 0.929 . S
H1265 C1274 0.929 . S
C1266 H1260 0.930 . S
C1266 C1267 1.367 . S
C1266 C1274 1.378 . S
C1267 C1266 1.367 . S
C1267 C1275 1.433 . S
C1268 H1264 0.929 . S
C1268 C1270 1.378 . S
C1268 C1272 1.350 . S
C1269 C1272 1.463 . S
C1269 C1274 1.350 . S
C1269 N1277 1.427 . S
C1270 H1261 0.930 . S
C1270 C1268 1.378 . S
C1270 C1271 1.367 . S
C1271 C1270 1.367 . S
C1271 C1273 1.433 . S
C1272 C1268 1.350 . S
C1272 C1269 1.463 . S
C1272 N1276 1.427 . S
C1273 H1263 0.929 . S
C1273 C1271 1.433 . S
C1273 N1276 1.384 . S
C1274 H1265 0.929 . S
C1274 C1266 1.378 . S
C1274 C1269 1.350 . S
C1275 H1262 0.929 . S
C1275 C1267 1.433 . S
C1275 N1277 1.384 . S
N1276 C1272 1.427 . S
N1276 C1273 1.384 . S
N1277 C1269 1.427 . S
N1277 C1275 1.384 . S
H1278 C1284 0.930 . S
H1279 C1288 0.930 . S
H1280 C1293 0.929 . S
H1281 C1291 0.929 . S
H1282 C1286 0.929 . S
H1283 C1292 0.929 . S
C1284 H1278 0.930 . S
C1284 C1285 1.367 . S
C1284 C1292 1.378 . S
C1285 C1284 1.367 . S
C1285 C1293 1.433 . S
C1286 H1282 0.929 . S
C1286 C1288 1.378 . S
C1286 C1290 1.350 . S
C1287 C1290 1.463 . S
C1287 C1292 1.350 . S
C1287 N1295 1.427 . S
C1288 H1279 0.930 . S
C1288 C1286 1.378 . S
C1288 C1289 1.367 . S
C1289 C1288 1.367 . S
C1289 C1291 1.433 . S
C1290 C1286 1.350 . S
C1290 C1287 1.463 . S
C1290 N1294 1.427 . S
C1291 H1281 0.929 . S
C1291 C1289 1.433 . S
C1291 N1294 1.384 . S
C1292 H1283 0.929 . S
C1292 C1284 1.378 . S
C1292 C1287 1.350 . S
C1293 H1280 0.929 . S
C1293 C1285 1.433 . S
C1293 N1295 1.384 . S
N1294 C1290 1.427 . S
N1294 C1291 1.384 . S
N1295 C1287 1.427 . S
N1295 C1293 1.384 . S
H1296 C1302 0.930 . S
H1297 C1306 0.930 . S
H1298 C1311 0.929 . S
H1299 C1309 0.929 . S
H1300 C1304 0.929 . S
H1301 C1310 0.929 . S
C1302 H1296 0.930 . S
C1302 C1303 1.367 . S
C1302 C1310 1.378 . S
C1303 C1302 1.367 . S
C1303 C1311 1.433 . S
C1304 H1300 0.929 . S
C1304 C1306 1.378 . S
C1304 C1308 1.350 . S
C1305 C1308 1.463 . S
C1305 C1310 1.350 . S
C1305 N1313 1.427 . S
C1306 H1297 0.930 . S
C1306 C1304 1.378 . S
C1306 C1307 1.367 . S
C1307 C1306 1.367 . S
C1307 C1309 1.433 . S
C1308 C1304 1.350 . S
C1308 C1305 1.463 . S
C1308 N1312 1.427 . S
C1309 H1299 0.929 . S
C1309 C1307 1.433 . S
C1309 N1312 1.384 . S
C1310 H1301 0.929 . S
C1310 C1302 1.378 . S
C1310 C1305 1.350 . S
C1311 H1298 0.929 . S
C1311 C1303 1.433 . S
C1311 N1313 1.384 . S
N1312 C1308 1.427 . S
N1312 C1309 1.384 . S
N1313 C1305 1.427 . S
N1313 C1311 1.384 . S
H1314 C1320 0.930 . S
H1315 C1324 0.930 . S
H1316 C1329 0.929 . S
H1317 C1327 0.929 . S
H1318 C1322 0.929 . S
H1319 C1328 0.929 . S
C1320 H1314 0.930 . S
C1320 C1321 1.367 . S
C1320 C1328 1.378 . S
C1321 C1320 1.367 . S
C1321 C1329 1.433 . S
C1322 H1318 0.929 . S
C1322 C1324 1.378 . S
C1322 C1326 1.350 . S
C1323 C1326 1.463 . S
C1323 C1328 1.350 . S
C1323 N1331 1.427 . S
C1324 H1315 0.930 . S
C1324 C1322 1.378 . S
C1324 C1325 1.367 . S
C1325 C1324 1.367 . S
C1325 C1327 1.433 . S
C1326 C1322 1.350 . S
C1326 C1323 1.463 . S
C1326 N1330 1.427 . S
C1327 H1317 0.929 . S
C1327 C1325 1.433 . S
C1327 N1330 1.384 . S
C1328 H1319 0.929 . S
C1328 C1320 1.378 . S
C1328 C1323 1.350 . S
C1329 H1316 0.929 . S
C1329 C1321 1.433 . S
C1329 N1331 1.384 . S
N1330 C1326 1.427 . S
N1330 C1327 1.384 . S
N1331 C1323 1.427 . S
N1331 C1329 1.384 . S
H1332 C1338 0.930 . S
H1333 C1342 0.930 . S
H1334 C1347 0.929 . S
H1335 C1345 0.929 . S
H1336 C1340 0.929 1_565 S
H1337 C1346 0.929 1_545 S
C1338 H1332 0.930 . S
C1338 C1339 1.367 . S
C1338 C1346 1.378 . S
C1339 C1338 1.367 . S
C1339 C1347 1.433 . S
C1340 H1336 0.929 1_545 S
C1340 C1342 1.378 . S
C1340 C1344 1.350 . S
C1341 C1344 1.463 1_566 S
C1341 C1346 1.350 . S
C1341 N1349 1.427 1_556 S
C1342 H1333 0.930 . S
C1342 C1340 1.378 . S
C1342 C1343 1.367 . S
C1343 C1342 1.367 . S
C1343 C1345 1.433 . S
C1344 C1340 1.350 . S
C1344 C1341 1.463 1_544 S
C1344 N1348 1.427 1_554 S
C1345 H1335 0.929 . S
C1345 C1343 1.433 . S
C1345 N1348 1.384 1_554 S
C1346 H1337 0.929 1_565 S
C1346 C1338 1.378 . S
C1346 C1341 1.350 . S
C1347 H1334 0.929 . S
C1347 C1339 1.433 . S
C1347 N1349 1.384 1_556 S
N1348 C1344 1.427 1_556 S
N1348 C1345 1.384 1_556 S
N1349 C1341 1.427 1_554 S
N1349 C1347 1.384 1_554 S
H1350 C1356 0.930 . S
H1351 C1360 0.930 . S
H1352 C1365 0.929 . S
H1353 C1363 0.929 . S
H1354 C1358 0.929 . S
H1355 C1364 0.929 . S
C1356 H1350 0.930 . S
C1356 C1357 1.367 . S
C1356 C1364 1.378 . S
C1357 C1356 1.367 . S
C1357 C1365 1.433 . S
C1358 H1354 0.929 . S
C1358 C1360 1.378 . S
C1358 C1362 1.350 . S
C1359 C1362 1.463 . S
C1359 C1364 1.350 . S
C1359 N1367 1.427 . S
C1360 H1351 0.930 . S
C1360 C1358 1.378 . S
C1360 C1361 1.367 . S
C1361 C1360 1.367 . S
C1361 C1363 1.433 . S
C1362 C1358 1.350 . S
C1362 C1359 1.463 . S
C1362 N1366 1.427 . S
C1363 H1353 0.929 . S
C1363 C1361 1.433 . S
C1363 N1366 1.384 . S
C1364 H1355 0.929 . S
C1364 C1356 1.378 . S
C1364 C1359 1.350 . S
C1365 H1352 0.929 . S
C1365 C1357 1.433 . S
C1365 N1367 1.384 . S
N1366 C1362 1.427 . S
N1366 C1363 1.384 . S
N1367 C1359 1.427 . S
N1367 C1365 1.384 . S
H1368 C1374 0.930 . S
H1369 C1378 0.930 . S
H1370 C1383 0.929 . S
H1371 C1381 0.929 . S
H1372 C1376 0.929 1_556 S
H1373 C1382 0.929 1_554 S
C1374 H1368 0.930 . S
C1374 C1375 1.367 . S
C1374 C1382 1.378 . S
C1375 C1374 1.367 . S
C1375 C1383 1.433 . S
C1376 H1372 0.929 1_554 S
C1376 C1378 1.378 . S
C1376 C1380 1.350 . S
C1377 C1380 1.463 1_456 S
C1377 C1382 1.350 . S
C1377 N1385 1.427 . S
C1378 H1369 0.930 . S
C1378 C1376 1.378 . S
C1378 C1379 1.367 . S
C1379 C1378 1.367 . S
C1379 C1381 1.433 . S
C1380 C1376 1.350 . S
C1380 C1377 1.463 1_654 S
C1380 N1384 1.427 . S
C1381 H1371 0.929 . S
C1381 C1379 1.433 . S
C1381 N1384 1.384 . S
C1382 H1373 0.929 1_556 S
C1382 C1374 1.378 . S
C1382 C1377 1.350 . S
C1383 H1370 0.929 . S
C1383 C1375 1.433 . S
C1383 N1385 1.384 . S
N1384 C1380 1.427 . S
N1384 C1381 1.384 . S
N1385 C1377 1.427 . S
N1385 C1383 1.384 . S
H1386 C1392 0.930 . S
H1387 C1396 0.930 . S
H1388 C1401 0.929 . S
H1389 C1399 0.929 . S
H1390 C1394 0.929 1_545 S
H1391 C1400 0.929 1_565 S
C1392 H1386 0.930 . S
C1392 C1393 1.367 . S
C1392 C1400 1.378 . S
C1393 C1392 1.367 . S
C1393 C1401 1.433 . S
C1394 H1390 0.929 1_565 S
C1394 C1396 1.378 . S
C1394 C1398 1.350 . S
C1395 C1398 1.463 1_545 S
C1395 C1400 1.350 . S
C1395 N1403 1.427 . S
C1396 H1387 0.930 . S
C1396 C1394 1.378 . S
C1396 C1397 1.367 . S
C1397 C1396 1.367 . S
C1397 C1399 1.433 . S
C1398 C1394 1.350 . S
C1398 C1395 1.463 1_565 S
C1398 N1402 1.427 . S
C1399 H1389 0.929 . S
C1399 C1397 1.433 . S
C1399 N1402 1.384 . S
C1400 H1391 0.929 1_545 S
C1400 C1392 1.378 . S
C1400 C1395 1.350 . S
C1401 H1388 0.929 . S
C1401 C1393 1.433 . S
C1401 N1403 1.384 . S
N1402 C1398 1.427 . S
N1402 C1399 1.384 . S
N1403 C1395 1.427 . S
N1403 C1401 1.384 . S
H1404 C1410 0.930 . S
H1405 C1414 0.930 . S
H1406 C1419 0.929 . S
H1407 C1417 0.929 . S
H1408 C1412 0.929 . S
H1409 C1418 0.929 . S
C1410 H1404 0.930 . S
C1410 C1411 1.367 . S
C1410 C1418 1.378 . S
C1411 C1410 1.367 . S
C1411 C1419 1.433 . S
C1412 H1408 0.929 . S
C1412 C1414 1.378 . S
C1412 C1416 1.350 . S
C1413 C1416 1.463 1_554 S
C1413 C1418 1.350 . S
C1413 N1421 1.427 . S
C1414 H1405 0.930 . S
C1414 C1412 1.378 . S
C1414 C1415 1.367 . S
C1415 C1414 1.367 . S
C1415 C1417 1.433 . S
C1416 C1412 1.350 . S
C1416 C1413 1.463 1_556 S
C1416 N1420 1.427 . S
C1417 H1407 0.929 . S
C1417 C1415 1.433 . S
C1417 N1420 1.384 . S
C1418 H1409 0.929 . S
C1418 C1410 1.378 . S
C1418 C1413 1.350 . S
C1419 H1406 0.929 . S
C1419 C1411 1.433 . S
C1419 N1421 1.384 . S
N1420 C1416 1.427 . S
N1420 C1417 1.384 . S
N1421 C1413 1.427 . S
N1421 C1419 1.384 . S
H1422 C1428 0.930 . S
H1423 C1432 0.930 . S
H1424 C1437 0.929 . S
H1425 C1435 0.929 . S
H1426 C1430 0.929 . S
H1427 C1436 0.929 . S
C1428 H1422 0.930 . S
C1428 C1429 1.367 . S
C1428 C1436 1.378 . S
C1429 C1428 1.367 . S
C1429 C1437 1.433 . S
C1430 H1426 0.929 . S
C1430 C1432 1.378 . S
C1430 C1434 1.350 . S
C1431 C1434 1.463 1_455 S
C1431 C1436 1.350 . S
C1431 N1439 1.427 . S
C1432 H1423 0.930 . S
C1432 C1430 1.378 . S
C1432 C1433 1.367 . S
C1433 C1432 1.367 . S
C1433 C1435 1.433 . S
C1434 C1430 1.350 . S
C1434 C1431 1.463 1_655 S
C1434 N1438 1.427 . S
C1435 H1425 0.929 . S
C1435 C1433 1.433 . S
C1435 N1438 1.384 . S
C1436 H1427 0.929 . S
C1436 C1428 1.378 . S
C1436 C1431 1.350 . S
C1437 H1424 0.929 . S
C1437 C1429 1.433 . S
C1437 N1439 1.384 . S
N1438 C1434 1.427 . S
N1438 C1435 1.384 . S
N1439 C1431 1.427 . S
N1439 C1437 1.384 . S
H1440 C1446 0.930 . S
H1441 C1450 0.930 . S
H1442 C1455 0.929 . S
H1443 C1453 0.929 . S
H1444 C1448 0.929 . S
H1445 C1454 0.929 . S
C1446 H1440 0.930 . S
C1446 C1447 1.367 . S
C1446 C1454 1.378 . S
C1447 C1446 1.367 . S
C1447 C1455 1.433 . S
C1448 H1444 0.929 . S
C1448 C1450 1.378 . S
C1448 C1452 1.350 . S
C1449 C1452 1.463 . S
C1449 C1454 1.350 . S
C1449 N1457 1.427 . S
C1450 H1441 0.930 . S
C1450 C1448 1.378 . S
C1450 C1451 1.367 . S
C1451 C1450 1.367 . S
C1451 C1453 1.433 . S
C1452 C1448 1.350 . S
C1452 C1449 1.463 . S
C1452 N1456 1.427 . S
C1453 H1443 0.929 . S
C1453 C1451 1.433 . S
C1453 N1456 1.384 . S
C1454 H1445 0.929 . S
C1454 C1446 1.378 . S
C1454 C1449 1.350 . S
C1455 H1442 0.929 . S
C1455 C1447 1.433 . S
C1455 N1457 1.384 . S
N1456 C1452 1.427 . S
N1456 C1453 1.384 . S
N1457 C1449 1.427 . S
N1457 C1455 1.384 . S
H1458 C1464 0.930 . S
H1459 C1468 0.930 . S
H1460 C1473 0.929 . S
H1461 C1471 0.929 . S
H1462 C1466 0.929 . S
H1463 C1472 0.929 . S
C1464 H1458 0.930 . S
C1464 C1465 1.367 . S
C1464 C1472 1.378 . S
C1465 C1464 1.367 . S
C1465 C1473 1.433 . S
C1466 H1462 0.929 . S
C1466 C1468 1.378 . S
C1466 C1470 1.350 . S
C1467 C1470 1.463 . S
C1467 C1472 1.350 . S
C1467 N1475 1.427 . S
C1468 H1459 0.930 . S
C1468 C1466 1.378 . S
C1468 C1469 1.367 . S
C1469 C1468 1.367 . S
C1469 C1471 1.433 . S
C1470 C1466 1.350 . S
C1470 C1467 1.463 . S
C1470 N1474 1.427 . S
C1471 H1461 0.929 . S
C1471 C1469 1.433 . S
C1471 N1474 1.384 . S
C1472 H1463 0.929 . S
C1472 C1464 1.378 . S
C1472 C1467 1.350 . S
C1473 H1460 0.929 . S
C1473 C1465 1.433 . S
C1473 N1475 1.384 . S
N1474 C1470 1.427 . S
N1474 C1471 1.384 . S
N1475 C1467 1.427 . S
N1475 C1473 1.384 . S
H1476 C1482 0.930 . S
H1477 C1486 0.930 . S
H1478 C1491 0.929 . S
H1479 C1489 0.929 . S
H1480 C1484 0.929 . S
H1481 C1490 0.929 . S
C1482 H1476 0.930 . S
C1482 C1483 1.367 . S
C1482 C1490 1.378 . S
C1483 C1482 1.367 . S
C1483 C1491 1.433 . S
C1484 H1480 0.929 . S
C1484 C1486 1.378 . S
C1484 C1488 1.350 . S
C1485 C1488 1.463 . S
C1485 C1490 1.350 . S
C1485 N1493 1.427 . S
C1486 H1477 0.930 . S
C1486 C1484 1.378 . S
C1486 C1487 1.367 . S
C1487 C1486 1.367 . S
C1487 C1489 1.433 . S
C1488 C1484 1.350 . S
C1488 C1485 1.463 . S
C1488 N1492 1.427 . S
C1489 H1479 0.929 . S
C1489 C1487 1.433 . S
C1489 N1492 1.384 . S
C1490 H1481 0.929 . S
C1490 C1482 1.378 . S
C1490 C1485 1.350 . S
C1491 H1478 0.929 . S
C1491 C1483 1.433 . S
C1491 N1493 1.384 . S
N1492 C1488 1.427 . S
N1492 C1489 1.384 . S
N1493 C1485 1.427 . S
N1493 C1491 1.384 . S
H1494 C1500 0.930 . S
H1495 C1504 0.930 . S
H1496 C1509 0.929 . S
H1497 C1507 0.929 . S
H1498 C1502 0.929 . S
H1499 C1508 0.929 . S
C1500 H1494 0.930 . S
C1500 C1501 1.367 . S
C1500 C1508 1.378 . S
C1501 C1500 1.367 . S
C1501 C1509 1.433 . S
C1502 H1498 0.929 . S
C1502 C1504 1.378 . S
C1502 C1506 1.350 . S
C1503 C1506 1.463 . S
C1503 C1508 1.350 . S
C1503 N1511 1.427 . S
C1504 H1495 0.930 . S
C1504 C1502 1.378 . S
C1504 C1505 1.367 . S
C1505 C1504 1.367 . S
C1505 C1507 1.433 . S
C1506 C1502 1.350 . S
C1506 C1503 1.463 . S
C1506 N1510 1.427 . S
C1507 H1497 0.929 . S
C1507 C1505 1.433 . S
C1507 N1510 1.384 . S
C1508 H1499 0.929 . S
C1508 C1500 1.378 . S
C1508 C1503 1.350 . S
C1509 H1496 0.929 . S
C1509 C1501 1.433 . S
C1509 N1511 1.384 . S
N1510 C1506 1.427 . S
N1510 C1507 1.384 . S
N1511 C1503 1.427 . S
N1511 C1509 1.384 . S
H1512 C1518 0.930 . S
H1513 C1522 0.930 . S
H1514 C1527 0.929 . S
H1515 C1525 0.929 . S
H1516 C1520 0.929 . S
H1517 C1526 0.929 . S
C1518 H1512 0.930 . S
C1518 C1519 1.367 . S
C1518 C1526 1.378 . S
C1519 C1518 1.367 . S
C1519 C1527 1.433 . S
C1520 H1516 0.929 . S
C1520 C1522 1.378 . S
C1520 C1524 1.350 . S
C1521 C1524 1.463 . S
C1521 C1526 1.350 . S
C1521 N1529 1.427 . S
C1522 H1513 0.930 . S
C1522 C1520 1.378 . S
C1522 C1523 1.367 . S
C1523 C1522 1.367 . S
C1523 C1525 1.433 . S
C1524 C1520 1.350 . S
C1524 C1521 1.463 . S
C1524 N1528 1.427 . S
C1525 H1515 0.929 . S
C1525 C1523 1.433 . S
C1525 N1528 1.384 . S
C1526 H1517 0.929 . S
C1526 C1518 1.378 . S
C1526 C1521 1.350 . S
C1527 H1514 0.929 . S
C1527 C1519 1.433 . S
C1527 N1529 1.384 . S
N1528 C1524 1.427 . S
N1528 C1525 1.384 . S
N1529 C1521 1.427 . S
N1529 C1527 1.384 . S
H1530 C1536 0.930 . S
H1531 C1540 0.930 . S
H1532 C1545 0.929 . S
H1533 C1543 0.929 . S
H1534 C1538 0.929 . S
H1535 C1544 0.929 . S
C1536 H1530 0.930 . S
C1536 C1537 1.367 . S
C1536 C1544 1.378 . S
C1537 C1536 1.367 . S
C1537 C1545 1.433 . S
C1538 H1534 0.929 . S
C1538 C1540 1.378 . S
C1538 C1542 1.350 . S
C1539 C1542 1.463 . S
C1539 C1544 1.350 . S
C1539 N1547 1.427 . S
C1540 H1531 0.930 . S
C1540 C1538 1.378 . S
C1540 C1541 1.367 . S
C1541 C1540 1.367 . S
C1541 C1543 1.433 . S
C1542 C1538 1.350 . S
C1542 C1539 1.463 . S
C1542 N1546 1.427 . S
C1543 H1533 0.929 . S
C1543 C1541 1.433 . S
C1543 N1546 1.384 . S
C1544 H1535 0.929 . S
C1544 C1536 1.378 . S
C1544 C1539 1.350 . S
C1545 H1532 0.929 . S
C1545 C1537 1.433 . S
C1545 N1547 1.384 . S
N1546 C1542 1.427 . S
N1546 C1543 1.384 . S
N1547 C1539 1.427 . S
N1547 C1545 1.384 . S
H1548 C1554 0.930 . S
H1549 C1558 0.930 . S
H1550 C1563 0.929 . S
H1551 C1561 0.929 . S
H1552 C1556 0.929 . S
H1553 C1562 0.929 . S
C1554 H1548 0.930 . S
C1554 C1555 1.367 . S
C1554 C1562 1.378 . S
C1555 C1554 1.367 . S
C1555 C1563 1.433 . S
C1556 H1552 0.929 . S
C1556 C1558 1.378 . S
C1556 C1560 1.350 . S
C1557 C1560 1.463 . S
C1557 C1562 1.350 . S
C1557 N1565 1.427 . S
C1558 H1549 0.930 . S
C1558 C1556 1.378 . S
C1558 C1559 1.367 . S
C1559 C1558 1.367 . S
C1559 C1561 1.433 . S
C1560 C1556 1.350 . S
C1560 C1557 1.463 . S
C1560 N1564 1.427 . S
C1561 H1551 0.929 . S
C1561 C1559 1.433 . S
C1561 N1564 1.384 . S
C1562 H1553 0.929 . S
C1562 C1554 1.378 . S
C1562 C1557 1.350 . S
C1563 H1550 0.929 . S
C1563 C1555 1.433 . S
C1563 N1565 1.384 . S
N1564 C1560 1.427 . S
N1564 C1561 1.384 . S
N1565 C1557 1.427 . S
N1565 C1563 1.384 . S
H1566 C1572 0.930 . S
H1567 C1576 0.930 . S
H1568 C1581 0.929 . S
H1569 C1579 0.929 . S
H1570 C1574 0.929 . S
H1571 C1580 0.929 . S
C1572 H1566 0.930 . S
C1572 C1573 1.367 . S
C1572 C1580 1.378 . S
C1573 C1572 1.367 . S
C1573 C1581 1.433 . S
C1574 H1570 0.929 . S
C1574 C1576 1.378 . S
C1574 C1578 1.350 . S
C1575 C1578 1.463 . S
C1575 C1580 1.350 . S
C1575 N1583 1.427 . S
C1576 H1567 0.930 . S
C1576 C1574 1.378 . S
C1576 C1577 1.367 . S
C1577 C1576 1.367 . S
C1577 C1579 1.433 . S
C1578 C1574 1.350 . S
C1578 C1575 1.463 . S
C1578 N1582 1.427 . S
C1579 H1569 0.929 . S
C1579 C1577 1.433 . S
C1579 N1582 1.384 . S
C1580 H1571 0.929 . S
C1580 C1572 1.378 . S
C1580 C1575 1.350 . S
C1581 H1568 0.929 . S
C1581 C1573 1.433 . S
C1581 N1583 1.384 . S
N1582 C1578 1.427 . S
N1582 C1579 1.384 . S
N1583 C1575 1.427 . S
N1583 C1581 1.384 . S
H1584 C1590 0.930 . S
H1585 C1594 0.930 . S
H1586 C1599 0.929 . S
H1587 C1597 0.929 . S
H1588 C1592 0.929 . S
H1589 C1598 0.929 . S
C1590 H1584 0.930 . S
C1590 C1591 1.367 . S
C1590 C1598 1.378 . S
C1591 C1590 1.367 . S
C1591 C1599 1.433 . S
C1592 H1588 0.929 . S
C1592 C1594 1.378 . S
C1592 C1596 1.350 . S
C1593 C1596 1.463 . S
C1593 C1598 1.350 . S
C1593 N1601 1.427 . S
C1594 H1585 0.930 . S
C1594 C1592 1.378 . S
C1594 C1595 1.367 . S
C1595 C1594 1.367 . S
C1595 C1597 1.433 . S
C1596 C1592 1.350 . S
C1596 C1593 1.463 . S
C1596 N1600 1.427 . S
C1597 H1587 0.929 . S
C1597 C1595 1.433 . S
C1597 N1600 1.384 . S
C1598 H1589 0.929 . S
C1598 C1590 1.378 . S
C1598 C1593 1.350 . S
C1599 H1586 0.929 . S
C1599 C1591 1.433 . S
C1599 N1601 1.384 . S
N1600 C1596 1.427 . S
N1600 C1597 1.384 . S
N1601 C1593 1.427 . S
N1601 C1599 1.384 . S
H1602 C1608 0.930 . S
H1603 C1612 0.930 . S
H1604 C1617 0.929 . S
H1605 C1615 0.929 . S
H1606 C1610 0.929 . S
H1607 C1616 0.929 . S
C1608 H1602 0.930 . S
C1608 C1609 1.367 . S
C1608 C1616 1.378 . S
C1609 C1608 1.367 . S
C1609 C1617 1.433 . S
C1610 H1606 0.929 . S
C1610 C1612 1.378 . S
C1610 C1614 1.350 . S
C1611 C1614 1.463 . S
C1611 C1616 1.350 . S
C1611 N1619 1.427 . S
C1612 H1603 0.930 . S
C1612 C1610 1.378 . S
C1612 C1613 1.367 . S
C1613 C1612 1.367 . S
C1613 C1615 1.433 . S
C1614 C1610 1.350 . S
C1614 C1611 1.463 . S
C1614 N1618 1.427 . S
C1615 H1605 0.929 . S
C1615 C1613 1.433 . S
C1615 N1618 1.384 . S
C1616 H1607 0.929 . S
C1616 C1608 1.378 . S
C1616 C1611 1.350 . S
C1617 H1604 0.929 . S
C1617 C1609 1.433 . S
C1617 N1619 1.384 . S
N1618 C1614 1.427 . S
N1618 C1615 1.384 . S
N1619 C1611 1.427 . S
N1619 C1617 1.384 . S
H1620 C1626 0.930 . S
H1621 C1630 0.930 . S
H1622 C1635 0.929 . S
H1623 C1633 0.929 . S
H1624 C1628 0.929 . S
H1625 C1634 0.929 . S
C1626 H1620 0.930 . S
C1626 C1627 1.367 . S
C1626 C1634 1.378 . S
C1627 C1626 1.367 . S
C1627 C1635 1.433 . S
C1628 H1624 0.929 . S
C1628 C1630 1.378 . S
C1628 C1632 1.350 . S
C1629 C1632 1.463 . S
C1629 C1634 1.350 . S
C1629 N1637 1.427 . S
C1630 H1621 0.930 . S
C1630 C1628 1.378 . S
C1630 C1631 1.367 . S
C1631 C1630 1.367 . S
C1631 C1633 1.433 . S
C1632 C1628 1.350 . S
C1632 C1629 1.463 . S
C1632 N1636 1.427 . S
C1633 H1623 0.929 . S
C1633 C1631 1.433 . S
C1633 N1636 1.384 . S
C1634 H1625 0.929 . S
C1634 C1626 1.378 . S
C1634 C1629 1.350 . S
C1635 H1622 0.929 . S
C1635 C1627 1.433 . S
C1635 N1637 1.384 . S
N1636 C1632 1.427 . S
N1636 C1633 1.384 . S
N1637 C1629 1.427 . S
N1637 C1635 1.384 . S
H1638 C1644 0.930 . S
H1639 C1648 0.930 . S
H1640 C1653 0.929 . S
H1641 C1651 0.929 . S
H1642 C1646 0.929 . S
H1643 C1652 0.929 . S
C1644 H1638 0.930 . S
C1644 C1645 1.367 . S
C1644 C1652 1.378 . S
C1645 C1644 1.367 . S
C1645 C1653 1.433 . S
C1646 H1642 0.929 . S
C1646 C1648 1.378 . S
C1646 C1650 1.350 . S
C1647 C1650 1.463 . S
C1647 C1652 1.350 . S
C1647 N1655 1.427 . S
C1648 H1639 0.930 . S
C1648 C1646 1.378 . S
C1648 C1649 1.367 . S
C1649 C1648 1.367 . S
C1649 C1651 1.433 . S
C1650 C1646 1.350 . S
C1650 C1647 1.463 . S
C1650 N1654 1.427 . S
C1651 H1641 0.929 . S
C1651 C1649 1.433 . S
C1651 N1654 1.384 . S
C1652 H1643 0.929 . S
C1652 C1644 1.378 . S
C1652 C1647 1.350 . S
C1653 H1640 0.929 . S
C1653 C1645 1.433 . S
C1653 N1655 1.384 . S
N1654 C1650 1.427 . S
N1654 C1651 1.384 . S
N1655 C1647 1.427 . S
N1655 C1653 1.384 . S
C1015 C226 1.122 . S
C1019 C55 1.267 . S
C1033 C322 1.108 . S
C1037 C151 1.265 . S
C1051 C223 1.269 . S
C1055 C394 1.132 . S
C1069 C319 1.263 . S
C1073 C490 1.103 . S
C1087 C58 1.112 . S
C1091 C391 1.265 . S
C1105 C154 1.134 . S
C1109 C487 1.270 . S
C1123 C910 1.114 . S
C1127 C571 1.266 . S
C1141 C643 1.269 . S
C1145 C982 1.132 . S
C1159 C739 1.269 . S
C1163 C574 1.131 . S
C1177 C811 1.263 . S
C1181 C646 1.102 . S
C1195 C907 1.263 . S
C1199 C742 1.103 . S
C1213 C814 1.115 . S
C1217 C979 1.265 . S
C1231 C320 1.929 . S
C1235 C56 1.918 . S
C1249 C152 1.922 . S
C1253 C392 1.925 . S
C1267 C224 1.920 . S
C1271 C488 1.927 . S
C1285 C572 1.917 . S
C1289 C812 1.930 . S
C1303 C644 1.922 . S
C1307 C908 1.925 . S
C1321 C740 1.917 . S
C1325 C980 1.930 . S
C1339 C656 2.161 . S
C1343 C68 2.161 . S
C1357 C140 2.165 . S
C1361 C728 2.160 . S
C1375 C824 2.163 . S
C1379 C236 2.167 . S
C1393 C308 2.160 . S
C1397 C896 2.162 . S
C1411 C404 2.160 . S
C1415 C992 2.165 . S
C1429 C560 2.167 . S
C1433 C476 2.165 . S
C1447 C238 1.262 . S
C1451 C67 1.418 . S
C1465 C139 1.424 . S
C1469 C310 1.271 . S
C1483 C235 1.422 . S
C1487 C406 1.272 . S
C1501 C307 1.416 . S
C1505 C478 1.251 . S
C1519 C70 1.272 . S
C1523 C403 1.422 . S
C1537 C142 1.269 . S
C1541 C475 1.420 . S
C1555 C898 1.245 . S
C1559 C559 1.418 . S
C1573 C655 1.418 . S
C1577 C994 1.245 . S
C1591 C727 1.420 . S
C1595 C562 1.269 . S
C1609 C658 1.258 . S
C1613 C823 1.417 . S
C1627 C895 1.420 . S
C1631 C730 1.268 . S
C1645 C991 1.418 . S
C1649 C826 1.245 . S
