# Generated by pormake.
# Topology umn, (4)-cn, num edge types: 1
# Building blocks:
#     Node 0, Type 0, BuildingBlock: QUQFOY_clean_sbu_1, # of connection points: 4
#     Node 1, Type 0, BuildingBlock: QUQFOY_clean_sbu_1, # of connection points: 4
#     Node 2, Type 0, BuildingBlock: QUQFOY_clean_sbu_1, # of connection points: 4
#     Node 3, Type 0, BuildingBlock: QUQFOY_clean_sbu_1, # of connection points: 4
#     Node 4, Type 0, BuildingBlock: QUQFOY_clean_sbu_1, # of connection points: 4
#     Node 5, Type 0, BuildingBlock: QUQFOY_clean_sbu_1, # of connection points: 4
#     Node 6, Type 0, BuildingBlock: QUQFOY_clean_sbu_1, # of connection points: 4
#     Node 7, Type 0, BuildingBlock: QUQFOY_clean_sbu_1, # of connection points: 4
#     Node 8, Type 0, BuildingBlock: QUQFOY_clean_sbu_1, # of connection points: 4
#     Node 9, Type 0, BuildingBlock: QUQFOY_clean_sbu_1, # of connection points: 4
#     Node 10, Type 0, BuildingBlock: QUQFOY_clean_sbu_1, # of connection points: 4
#     Node 11, Type 0, BuildingBlock: QUQFOY_clean_sbu_1, # of connection points: 4
#     Node 12, Type 0, BuildingBlock: QUQFOY_clean_sbu_1, # of connection points: 4
#     Node 13, Type 0, BuildingBlock: QUQFOY_clean_sbu_1, # of connection points: 4
#     Node 14, Type 0, BuildingBlock: QUQFOY_clean_sbu_1, # of connection points: 4
#     Node 15, Type 0, BuildingBlock: QUQFOY_clean_sbu_1, # of connection points: 4
#     Node 16, Type 0, BuildingBlock: QUQFOY_clean_sbu_1, # of connection points: 4
#     Node 17, Type 0, BuildingBlock: QUQFOY_clean_sbu_1, # of connection points: 4
#     Node 18, Type 0, BuildingBlock: QUQFOY_clean_sbu_1, # of connection points: 4
#     Node 19, Type 0, BuildingBlock: QUQFOY_clean_sbu_1, # of connection points: 4
#     Node 20, Type 0, BuildingBlock: QUQFOY_clean_sbu_1, # of connection points: 4
#     Node 21, Type 0, BuildingBlock: QUQFOY_clean_sbu_1, # of connection points: 4
#     Node 22, Type 0, BuildingBlock: QUQFOY_clean_sbu_1, # of connection points: 4
#     Node 23, Type 0, BuildingBlock: QUQFOY_clean_sbu_1, # of connection points: 4
#     Node 24, Type 0, BuildingBlock: QUQFOY_clean_sbu_1, # of connection points: 4
#     Node 25, Type 0, BuildingBlock: QUQFOY_clean_sbu_1, # of connection points: 4
#     Node 26, Type 0, BuildingBlock: QUQFOY_clean_sbu_1, # of connection points: 4
#     Node 27, Type 0, BuildingBlock: QUQFOY_clean_sbu_1, # of connection points: 4
#     Node 28, Type 0, BuildingBlock: QUQFOY_clean_sbu_1, # of connection points: 4
#     Node 29, Type 0, BuildingBlock: QUQFOY_clean_sbu_1, # of connection points: 4
#     Node 30, Type 0, BuildingBlock: QUQFOY_clean_sbu_1, # of connection points: 4
#     Node 31, Type 0, BuildingBlock: QUQFOY_clean_sbu_1, # of connection points: 4
#     Node 32, Type 0, BuildingBlock: QUQFOY_clean_sbu_1, # of connection points: 4
#     Node 33, Type 0, BuildingBlock: QUQFOY_clean_sbu_1, # of connection points: 4
#     Node 34, Type 0, BuildingBlock: QUQFOY_clean_sbu_1, # of connection points: 4
#     Node 35, Type 0, BuildingBlock: QUQFOY_clean_sbu_1, # of connection points: 4
#     Edge 36, Type (0, 0), BuildingBlock: TEMPAE_clean_linker_10, # of connection points: 2
#     Edge 37, Type (0, 0), BuildingBlock: TEMPAE_clean_linker_10, # of connection points: 2
#     Edge 38, Type (0, 0), BuildingBlock: TEMPAE_clean_linker_10, # of connection points: 2
#     Edge 39, Type (0, 0), BuildingBlock: TEMPAE_clean_linker_10, # of connection points: 2
#     Edge 40, Type (0, 0), BuildingBlock: TEMPAE_clean_linker_10, # of connection points: 2
#     Edge 41, Type (0, 0), BuildingBlock: TEMPAE_clean_linker_10, # of connection points: 2
#     Edge 42, Type (0, 0), BuildingBlock: TEMPAE_clean_linker_10, # of connection points: 2
#     Edge 43, Type (0, 0), BuildingBlock: TEMPAE_clean_linker_10, # of connection points: 2
#     Edge 44, Type (0, 0), BuildingBlock: TEMPAE_clean_linker_10, # of connection points: 2
#     Edge 45, Type (0, 0), BuildingBlock: TEMPAE_clean_linker_10, # of connection points: 2
#     Edge 46, Type (0, 0), BuildingBlock: TEMPAE_clean_linker_10, # of connection points: 2
#     Edge 47, Type (0, 0), BuildingBlock: TEMPAE_clean_linker_10, # of connection points: 2
#     Edge 48, Type (0, 0), BuildingBlock: TEMPAE_clean_linker_10, # of connection points: 2
#     Edge 49, Type (0, 0), BuildingBlock: TEMPAE_clean_linker_10, # of connection points: 2
#     Edge 50, Type (0, 0), BuildingBlock: TEMPAE_clean_linker_10, # of connection points: 2
#     Edge 51, Type (0, 0), BuildingBlock: TEMPAE_clean_linker_10, # of connection points: 2
#     Edge 52, Type (0, 0), BuildingBlock: TEMPAE_clean_linker_10, # of connection points: 2
#     Edge 53, Type (0, 0), BuildingBlock: TEMPAE_clean_linker_10, # of connection points: 2
#     Edge 54, Type (0, 0), BuildingBlock: TEMPAE_clean_linker_10, # of connection points: 2
#     Edge 55, Type (0, 0), BuildingBlock: TEMPAE_clean_linker_10, # of connection points: 2
#     Edge 56, Type (0, 0), BuildingBlock: TEMPAE_clean_linker_10, # of connection points: 2
#     Edge 57, Type (0, 0), BuildingBlock: TEMPAE_clean_linker_10, # of connection points: 2
#     Edge 58, Type (0, 0), BuildingBlock: TEMPAE_clean_linker_10, # of connection points: 2
#     Edge 59, Type (0, 0), BuildingBlock: TEMPAE_clean_linker_10, # of connection points: 2
#     Edge 60, Type (0, 0), BuildingBlock: TEMPAE_clean_linker_10, # of connection points: 2
#     Edge 61, Type (0, 0), BuildingBlock: TEMPAE_clean_linker_10, # of connection points: 2
#     Edge 62, Type (0, 0), BuildingBlock: TEMPAE_clean_linker_10, # of connection points: 2
#     Edge 63, Type (0, 0), BuildingBlock: TEMPAE_clean_linker_10, # of connection points: 2
#     Edge 64, Type (0, 0), BuildingBlock: TEMPAE_clean_linker_10, # of connection points: 2
#     Edge 65, Type (0, 0), BuildingBlock: TEMPAE_clean_linker_10, # of connection points: 2
#     Edge 66, Type (0, 0), BuildingBlock: TEMPAE_clean_linker_10, # of connection points: 2
#     Edge 67, Type (0, 0), BuildingBlock: TEMPAE_clean_linker_10, # of connection points: 2
#     Edge 68, Type (0, 0), BuildingBlock: TEMPAE_clean_linker_10, # of connection points: 2
#     Edge 69, Type (0, 0), BuildingBlock: TEMPAE_clean_linker_10, # of connection points: 2
#     Edge 70, Type (0, 0), BuildingBlock: TEMPAE_clean_linker_10, # of connection points: 2
#     Edge 71, Type (0, 0), BuildingBlock: TEMPAE_clean_linker_10, # of connection points: 2
#     Edge 72, Type (0, 0), BuildingBlock: TEMPAE_clean_linker_10, # of connection points: 2
#     Edge 73, Type (0, 0), BuildingBlock: TEMPAE_clean_linker_10, # of connection points: 2
#     Edge 74, Type (0, 0), BuildingBlock: TEMPAE_clean_linker_10, # of connection points: 2
#     Edge 75, Type (0, 0), BuildingBlock: TEMPAE_clean_linker_10, # of connection points: 2
#     Edge 76, Type (0, 0), BuildingBlock: TEMPAE_clean_linker_10, # of connection points: 2
#     Edge 77, Type (0, 0), BuildingBlock: TEMPAE_clean_linker_10, # of connection points: 2
#     Edge 78, Type (0, 0), BuildingBlock: TEMPAE_clean_linker_10, # of connection points: 2
#     Edge 79, Type (0, 0), BuildingBlock: TEMPAE_clean_linker_10, # of connection points: 2
#     Edge 80, Type (0, 0), BuildingBlock: TEMPAE_clean_linker_10, # of connection points: 2
#     Edge 81, Type (0, 0), BuildingBlock: TEMPAE_clean_linker_10, # of connection points: 2
#     Edge 82, Type (0, 0), BuildingBlock: TEMPAE_clean_linker_10, # of connection points: 2
#     Edge 83, Type (0, 0), BuildingBlock: TEMPAE_clean_linker_10, # of connection points: 2
#     Edge 84, Type (0, 0), BuildingBlock: TEMPAE_clean_linker_10, # of connection points: 2
#     Edge 85, Type (0, 0), BuildingBlock: TEMPAE_clean_linker_10, # of connection points: 2
#     Edge 86, Type (0, 0), BuildingBlock: TEMPAE_clean_linker_10, # of connection points: 2
#     Edge 87, Type (0, 0), BuildingBlock: TEMPAE_clean_linker_10, # of connection points: 2
#     Edge 88, Type (0, 0), BuildingBlock: TEMPAE_clean_linker_10, # of connection points: 2
#     Edge 89, Type (0, 0), BuildingBlock: TEMPAE_clean_linker_10, # of connection points: 2
#     Edge 90, Type (0, 0), BuildingBlock: TEMPAE_clean_linker_10, # of connection points: 2
#     Edge 91, Type (0, 0), BuildingBlock: TEMPAE_clean_linker_10, # of connection points: 2
#     Edge 92, Type (0, 0), BuildingBlock: TEMPAE_clean_linker_10, # of connection points: 2
#     Edge 93, Type (0, 0), BuildingBlock: TEMPAE_clean_linker_10, # of connection points: 2
#     Edge 94, Type (0, 0), BuildingBlock: TEMPAE_clean_linker_10, # of connection points: 2
#     Edge 95, Type (0, 0), BuildingBlock: TEMPAE_clean_linker_10, # of connection points: 2
#     Edge 96, Type (0, 0), BuildingBlock: TEMPAE_clean_linker_10, # of connection points: 2
#     Edge 97, Type (0, 0), BuildingBlock: TEMPAE_clean_linker_10, # of connection points: 2
#     Edge 98, Type (0, 0), BuildingBlock: TEMPAE_clean_linker_10, # of connection points: 2
#     Edge 99, Type (0, 0), BuildingBlock: TEMPAE_clean_linker_10, # of connection points: 2
#     Edge 100, Type (0, 0), BuildingBlock: TEMPAE_clean_linker_10, # of connection points: 2
#     Edge 101, Type (0, 0), BuildingBlock: TEMPAE_clean_linker_10, # of connection points: 2
#     Edge 102, Type (0, 0), BuildingBlock: TEMPAE_clean_linker_10, # of connection points: 2
#     Edge 103, Type (0, 0), BuildingBlock: TEMPAE_clean_linker_10, # of connection points: 2
#     Edge 104, Type (0, 0), BuildingBlock: TEMPAE_clean_linker_10, # of connection points: 2
#     Edge 105, Type (0, 0), BuildingBlock: TEMPAE_clean_linker_10, # of connection points: 2
#     Edge 106, Type (0, 0), BuildingBlock: TEMPAE_clean_linker_10, # of connection points: 2
#     Edge 107, Type (0, 0), BuildingBlock: TEMPAE_clean_linker_10, # of connection points: 2
# Relax obj value: 0.079
# Max RMSD: 0.125
# Mean RMSD: 0.125
data_MOF--net-umn--node1-QUQFOY_clean_sbu_1--edge1-TEMPAE_clean_linker_10
_symmetry_space_group_name_H-M    P1
_symmetry_Int_Tables_number       1
_symmetry_cell_setting            triclinic
loop_
_symmetry_equiv_pos_as_xyz
'x, y, z'
_cell_length_a     91.756536
_cell_length_b     91.775443
_cell_length_c     39.144014
_cell_angle_alpha  89.979562
_cell_angle_beta   90.012199
_cell_angle_gamma 120.01818
loop_
_atom_site_label
_atom_site_type_symbol
_atom_site_fract_x
_atom_site_fract_y
_atom_site_fract_z
_atom_type_partial_charge
O0 O 0.31093 0.07076 0.26771 0.0
Cd1 Cd 0.3089 0.07278 0.216 0.0
Cd2 Cd 0.32714 0.05704 0.2159 0.0
O3 O 0.3302 0.06305 0.26788 0.0
O4 O 0.30299 0.09064 0.20921 0.0
O5 O 0.32696 0.09288 0.19128 0.0
C6 C 0.31741 0.09941 0.19456 0.0
C7 C 0.34801 0.05675 0.18126 0.0
C8 C 0.32065 0.06709 0.28397 0.0
C9 C 0.29001 0.03801 0.1944 0.0
O10 O 0.30335 0.038 0.20315 0.0
O11 O 0.28964 0.05163 0.19421 0.0
O12 O 0.34083 0.04609 0.20567 0.0
O13 O 0.34426 0.06849 0.17792 0.0
O14 O 0.91312 0.24362 0.28315 0.0
Cd15 Cd 0.9109 0.23427 0.2347 0.0
Cd16 Cd 0.93354 0.26876 0.22318 0.0
O17 O 0.93008 0.27088 0.27531 0.0
O18 O 0.89182 0.21092 0.24107 0.0
O19 O 0.89148 0.22835 0.20255 0.0
C20 C 0.88401 0.21376 0.21705 0.0
C21 C 0.93705 0.28974 0.18354 0.0
C22 C 0.92163 0.25842 0.29516 0.0
C23 C 0.9452 0.24292 0.21411 0.0
O24 O 0.94822 0.25805 0.213 0.0
O25 O 0.93061 0.23096 0.2214 0.0
O26 O 0.94817 0.29243 0.2065 0.0
O27 O 0.9234 0.27527 0.18392 0.0
O28 O 0.75024 0.67205 0.27056 0.0
Cd29 Cd 0.75661 0.6756 0.21974 0.0
Cd30 Cd 0.7212 0.6599 0.21648 0.0
O31 O 0.72254 0.65579 0.26865 0.0
O32 O 0.78142 0.68509 0.22151 0.0
O33 O 0.76442 0.66145 0.19458 0.0
C34 C 0.77951 0.6726 0.20337 0.0
C35 C 0.69959 0.64065 0.17997 0.0
C36 C 0.73616 0.6637 0.2857 0.0
C37 C 0.74315 0.69727 0.19892 0.0
O38 O 0.72877 0.68466 0.20547 0.0
O39 O 0.75621 0.69588 0.1995 0.0
O40 O 0.69669 0.64838 0.20414 0.0
O41 O 0.71467 0.643 0.1777 0.0
O42 O 0.08709 0.32187 0.23008 0.0
Cd43 Cd 0.0867 0.3151 0.28017 0.0
Cd44 Cd 0.06778 0.33162 0.2852 0.0
O45 O 0.07497 0.33744 0.23408 0.0
O46 O 0.1031 0.30693 0.28202 0.0
O47 O 0.10637 0.32894 0.3114 0.0
C48 C 0.11187 0.31895 0.30305 0.0
C49 C 0.06431 0.34995 0.32248 0.0
C50 C 0.08186 0.33092 0.21614 0.0
C51 C 0.05079 0.29351 0.29659 0.0
O52 O 0.04987 0.30681 0.29342 0.0
O53 O 0.06481 0.29403 0.29422 0.0
O54 O 0.05463 0.34309 0.29653 0.0
O55 O 0.0768 0.34732 0.3262 0.0
O56 O 0.66616 0.75091 0.23196 0.0
Cd57 Cd 0.67027 0.75779 0.28248 0.0
Cd58 Cd 0.65655 0.72279 0.28779 0.0
O59 O 0.65208 0.72313 0.23551 0.0
O60 O 0.67796 0.78227 0.2807 0.0
O61 O 0.65523 0.76405 0.3089 0.0
C62 C 0.66538 0.77938 0.29971 0.0
C63 C 0.63806 0.70118 0.32521 0.0
C64 C 0.65871 0.73656 0.21763 0.0
C65 C 0.69383 0.74649 0.30316 0.0
O66 O 0.68159 0.73167 0.29855 0.0
O67 O 0.69168 0.75906 0.30107 0.0
O68 O 0.64614 0.69852 0.30138 0.0
O69 O 0.63965 0.71596 0.32666 0.0
O70 O 0.26178 0.91131 0.22259 0.0
Cd71 Cd 0.24664 0.90759 0.26424 0.0
Cd72 Cd 0.27411 0.93469 0.28991 0.0
O73 O 0.28048 0.93707 0.23834 0.0
O74 O 0.2262 0.88554 0.25491 0.0
O75 O 0.24084 0.89106 0.3028 0.0
C76 C 0.22792 0.8808 0.28486 0.0
C77 C 0.29479 0.94024 0.33188 0.0
C78 C 0.27409 0.92576 0.21536 0.0
C79 C 0.24322 0.93712 0.28385 0.0
O80 O 0.25682 0.94219 0.30054 0.0
O81 O 0.23751 0.92391 0.26577 0.0
O82 O 0.29508 0.95202 0.31349 0.0
O83 O 0.28281 0.92505 0.32617 0.0
O84 O 0.67388 0.91512 0.72963 0.0
Cd85 Cd 0.67797 0.9127 0.78028 0.0
Cd86 Cd 0.66195 0.93167 0.78579 0.0
O87 O 0.65773 0.92659 0.73353 0.0
O88 O 0.68622 0.89639 0.78006 0.0
O89 O 0.66292 0.89149 0.80661 0.0
C90 C 0.67343 0.88659 0.79852 0.0
C91 C 0.6425 0.93323 0.82288 0.0
C92 C 0.66529 0.92082 0.71549 0.0
C93 C 0.69932 0.94751 0.80327 0.0
O94 O 0.6865 0.94907 0.79791 0.0
O95 O 0.69841 0.93335 0.80017 0.0
O96 O 0.64989 0.94401 0.79876 0.0
O97 O 0.64527 0.92076 0.82467 0.0
O98 O 0.0928 0.75823 0.72978 0.0
Cd99 Cd 0.09006 0.7664 0.77674 0.0
Cd100 Cd 0.06789 0.73212 0.78503 0.0
O101 O 0.07405 0.73119 0.73391 0.0
O102 O 0.1087 0.79017 0.77582 0.0
O103 O 0.10565 0.77246 0.81726 0.0
C104 C 0.11387 0.78736 0.80426 0.0
C105 C 0.0638 0.71113 0.82526 0.0
C106 C 0.08445 0.74379 0.71613 0.0
C107 C 0.05437 0.75644 0.78653 0.0
O108 O 0.0519 0.74164 0.79121 0.0
O109 O 0.06898 0.76853 0.77995 0.0
O110 O 0.05349 0.70815 0.80037 0.0
O111 O 0.07703 0.7259 0.82654 0.0
O112 O 0.2595 0.35204 0.70858 0.0
Cd113 Cd 0.24335 0.34013 0.7485 0.0
Cd114 Cd 0.26974 0.34029 0.77786 0.0
O115 O 0.27722 0.34421 0.72693 0.0
O116 O 0.22353 0.34287 0.74038 0.0
O117 O 0.23846 0.35078 0.78823 0.0
C118 C 0.22565 0.34892 0.77085 0.0
C119 C 0.29013 0.35431 0.82074 0.0
C120 C 0.27179 0.34965 0.70308 0.0
C121 C 0.23866 0.30721 0.77031 0.0
O122 O 0.25164 0.31583 0.78864 0.0
O123 O 0.23383 0.31457 0.74962 0.0
O124 O 0.29008 0.34276 0.80204 0.0
O125 O 0.27868 0.35825 0.81483 0.0
O126 O 0.91921 0.67815 0.77768 0.0
Cd127 Cd 0.91568 0.68093 0.72681 0.0
Cd128 Cd 0.93472 0.66479 0.72231 0.0
O129 O 0.9305 0.66178 0.77511 0.0
O130 O 0.89939 0.68924 0.72708 0.0
O131 O 0.89399 0.66542 0.70226 0.0
C132 C 0.88927 0.67614 0.7097 0.0
C133 C 0.93603 0.64481 0.68626 0.0
C134 C 0.92515 0.66991 0.7925 0.0
C135 C 0.95011 0.70174 0.70117 0.0
O136 O 0.95179 0.68911 0.7079 0.0
O137 O 0.93594 0.70083 0.70434 0.0
O138 O 0.94716 0.65277 0.70951 0.0
O139 O 0.92333 0.64725 0.68496 0.0
O140 O 0.31116 0.235 0.78229 0.0
Cd141 Cd 0.30551 0.23045 0.73133 0.0
Cd142 Cd 0.32569 0.26487 0.7284 0.0
O143 O 0.33073 0.26181 0.77896 0.0
O144 O 0.29684 0.20605 0.72482 0.0
O145 O 0.32046 0.22591 0.70119 0.0
C146 C 0.30988 0.21012 0.7061 0.0
C147 C 0.346 0.28548 0.69217 0.0
C148 C 0.32219 0.24849 0.79656 0.0
C149 C 0.28807 0.2486 0.71269 0.0
O150 O 0.30217 0.26164 0.71889 0.0
O151 O 0.28653 0.23411 0.71402 0.0
O152 O 0.34028 0.28941 0.7185 0.0
O153 O 0.3411 0.26974 0.68763 0.0
O154 O 0.7569 0.08931 0.78549 0.0
Cd155 Cd 0.76391 0.08877 0.736 0.0
Cd156 Cd 0.72863 0.06811 0.72986 0.0
O157 O 0.72917 0.07518 0.78077 0.0
O158 O 0.78849 0.1051 0.73611 0.0
O159 O 0.77049 0.10837 0.70404 0.0
C160 C 0.78578 0.11376 0.71382 0.0
C161 C 0.70708 0.064 0.69134 0.0
C162 C 0.7424 0.08312 0.79899 0.0
C163 C 0.75133 0.05289 0.72078 0.0
O164 O 0.73665 0.05101 0.7227 0.0
O165 O 0.76426 0.06733 0.72363 0.0
O166 O 0.7042 0.05437 0.71741 0.0
O167 O 0.72209 0.07674 0.68811 0.0
O168 O 0.99202 0.41177 0.60711 0.0
Cd169 Cd 0.98684 0.41488 0.55756 0.0
Cd170 Cd -0.00117 0.39223 0.5491 0.0
O171 O 0.00352 0.39571 0.60159 0.0
O172 O 0.98196 0.43352 0.56387 0.0
O173 O 0.00085 0.43488 0.52706 0.0
C174 C 0.99301 0.44179 0.5408 0.0
C175 C 0.01699 0.38877 0.51127 0.0
C176 C -0.00162 0.40357 0.62035 0.0
C177 C 0.96158 0.38086 0.53572 0.0
O178 O 0.97353 0.37761 0.53735 0.0
O179 O 0.96431 0.39562 0.54125 0.0
O180 O 0.00804 0.37755 0.53369 0.0
O181 O 0.01628 0.40248 0.51119 0.0
O182 O 0.57589 0.56618 0.60855 0.0
Cd183 Cd 0.57623 0.56056 0.55795 0.0
Cd184 Cd 0.59402 0.59586 0.55474 0.0
O185 O 0.58707 0.59381 0.60622 0.0
O186 O 0.56055 0.53587 0.55556 0.0
O187 O 0.55622 0.55427 0.52747 0.0
C188 C 0.55133 0.53881 0.53517 0.0
C189 C 0.59584 0.61701 0.51759 0.0
C190 C 0.58069 0.58017 0.62342 0.0
C191 C 0.61211 0.57607 0.54044 0.0
O192 O 0.61258 0.59001 0.54503 0.0
O193 O 0.59831 0.5623 0.54239 0.0
O194 O 0.60595 0.62044 0.54304 0.0
O195 O 0.5838 0.60161 0.51448 0.0
O196 O 0.43064 0.01309 0.61404 0.0
Cd197 Cd 0.43607 0.01924 0.56348 0.0
Cd198 Cd 0.40096 0.00087 0.5595 0.0
O199 O 0.40314 0.99593 0.61082 0.0
O200 O 0.46064 0.02786 0.55938 0.0
O201 O 0.44145 0.00507 0.53248 0.0
C202 C 0.45709 0.01545 0.5392 0.0
C203 C 0.37986 0.98126 0.52274 0.0
C204 C 0.41663 0.0034 0.62843 0.0
C205 C 0.41979 0.03878 0.54548 0.0
O206 O 0.40608 0.02502 0.54969 0.0
O207 O 0.43383 0.03934 0.5481 0.0
O208 O 0.37632 0.9876 0.5486 0.0
O209 O 0.39538 0.98513 0.51895 0.0
O210 O 0.7535 0.66607 0.55508 0.0
Cd211 Cd 0.75364 0.65698 0.60283 0.0
Cd212 Cd 0.73076 0.66833 0.614 0.0
O213 O 0.73501 0.67453 0.56217 0.0
O214 O 0.77274 0.65266 0.59857 0.0
O215 O 0.77152 0.6689 0.63882 0.0
C216 C 0.77944 0.66214 0.62479 0.0
C217 C 0.72669 0.68528 0.65402 0.0
C218 C 0.74463 0.6719 0.5428 0.0
C219 C 0.71886 0.63079 0.6196 0.0
O220 O 0.71591 0.64286 0.62291 0.0
O221 O 0.73343 0.6336 0.61163 0.0
O222 O 0.7159 0.67716 0.63032 0.0
O223 O 0.74037 0.68451 0.65415 0.0
O224 O 0.32436 0.0873 0.55251 0.0
Cd225 Cd 0.3339 0.09683 0.59975 0.0
Cd226 Cd 0.32194 0.06277 0.61217 0.0
O227 O 0.31461 0.06021 0.56104 0.0
O228 O 0.33825 0.12021 0.59503 0.0
O229 O 0.32187 0.10279 0.6353 0.0
C230 C 0.32856 0.1174 0.62092 0.0
C231 C 0.30528 0.04269 0.65384 0.0
C232 C 0.31754 0.07236 0.54111 0.0
C233 C 0.35974 0.0878 0.61615 0.0
O234 O 0.34748 0.07285 0.61931 0.0
O235 O 0.35719 0.09978 0.60863 0.0
O236 O 0.31259 0.03924 0.62968 0.0
O237 O 0.30674 0.05744 0.65357 0.0
O238 O 0.91261 0.25177 0.56599 0.0
Cd239 Cd 0.90428 0.24957 0.61529 0.0
Cd240 Cd 0.93873 0.2726 0.62351 0.0
O241 O 0.94005 0.26867 0.57127 0.0
O242 O 0.88085 0.23062 0.6096 0.0
O243 O 0.89852 0.23019 0.64742 0.0
C244 C 0.88379 0.22285 0.63355 0.0
C245 C 0.96026 0.27639 0.66192 0.0
C246 C 0.92712 0.26015 0.55263 0.0
C247 C 0.91264 0.28379 0.63489 0.0
O248 O 0.92788 0.28715 0.63416 0.0
O249 O 0.90073 0.26896 0.6294 0.0
O250 O 0.96256 0.28746 0.63911 0.0
O251 O 0.94586 0.26264 0.6621 0.0
O252 O 0.34522 0.24383 0.06416 0.0
Cd253 Cd 0.35394 0.24389 0.11241 0.0
Cd254 Cd 0.33603 0.26159 0.12408 0.0
O255 O 0.32929 0.25519 0.0732 0.0
O256 O 0.36056 0.22638 0.10895 0.0
O257 O 0.34116 0.22468 0.14501 0.0
C258 C 0.34946 0.21805 0.13203 0.0
C259 C 0.3179 0.26557 0.16086 0.0
C260 C 0.33536 0.24869 0.05303 0.0
C261 C 0.37475 0.27909 0.13323 0.0
O262 O 0.36092 0.27916 0.13295 0.0
O263 O 0.37511 0.26575 0.12652 0.0
O264 O 0.32527 0.27535 0.13535 0.0
O265 O 0.32008 0.25282 0.16476 0.0
O266 O 0.74349 0.09436 0.07279 0.0
Cd267 Cd 0.74402 0.09947 0.12393 0.0
Cd268 Cd 0.72765 0.0642 0.12603 0.0
O269 O 0.73436 0.06704 0.0744 0.0
O270 O 0.76018 0.12402 0.12818 0.0
O271 O 0.76445 0.10456 0.15188 0.0
C272 C 0.76964 0.12026 0.146 0.0
C273 C 0.72583 0.0423 0.1608 0.0
C274 C 0.73954 0.08065 0.0575 0.0
C275 C 0.70856 0.08274 0.14414 0.0
O276 O 0.70875 0.06926 0.13769 0.0
O277 O 0.72197 0.0969 0.14253 0.0
O278 O 0.71582 0.0394 0.1354 0.0
O279 O 0.73785 0.05762 0.16507 0.0
O280 O 0.91318 0.67262 0.06284 0.0
Cd281 Cd 0.90383 0.66337 0.11046 0.0
Cd282 Cd 0.93878 0.67483 0.12052 0.0
O283 O 0.9402 0.68105 0.06872 0.0
O284 O 0.88007 0.65771 0.10353 0.0
O285 O 0.89589 0.67422 0.14525 0.0
C286 C 0.88159 0.66682 0.12967 0.0
C287 C 0.96035 0.69161 0.15993 0.0
C288 C 0.92775 0.67843 0.04995 0.0
C289 C 0.91288 0.63729 0.12631 0.0
O290 O 0.92799 0.6493 0.12905 0.0
O291 O 0.90108 0.64018 0.11926 0.0
O292 O 0.96261 0.68336 0.13589 0.0
O293 O 0.94601 0.69106 0.16077 0.0
O294 O 0.57265 0.98111 0.12867 0.0
Cd295 Cd 0.57052 0.99341 0.08672 0.0
Cd296 Cd 0.59596 0.98911 0.06119 0.0
O297 O 0.59711 0.98421 0.11279 0.0
O298 O 0.5497 0.99437 0.09606 0.0
O299 O 0.55347 0.98345 0.0488 0.0
C300 C 0.5442 0.98752 0.06665 0.0
C301 C 0.6009 0.97358 0.01902 0.0
C302 C 0.58605 0.98089 0.13576 0.0
C303 C 0.60237 0.02424 0.06662 0.0
O304 O 0.60613 0.01439 0.05113 0.0
O305 O 0.58896 0.01828 0.08414 0.0
O306 O 0.61261 0.98398 0.03907 0.0
O307 O 0.58604 0.97154 0.02336 0.0
O308 O 0.98991 0.57568 0.10839 0.0
Cd309 Cd 0.98472 0.56984 0.05762 0.0
Cd310 Cd 0.00126 0.60539 0.0548 0.0
O311 O 0.00552 0.60343 0.10673 0.0
O312 O 0.97546 0.54507 0.05671 0.0
O313 O -0.00149 0.56291 0.0288 0.0
C314 C 0.98768 0.54759 0.03691 0.0
C315 C 0.0206 0.62694 0.01828 0.0
C316 C -0.00161 0.5897 0.12366 0.0
C317 C 0.96364 0.58442 0.03849 0.0
O318 O 0.97672 0.59862 0.04373 0.0
O319 O 0.96427 0.57097 0.0405 0.0
O320 O 0.01333 0.63 0.04317 0.0
O321 O 0.01782 0.61173 0.01544 0.0
O322 O 0.40522 0.41486 0.1299 0.0
Cd323 Cd 0.41924 0.41711 0.0872 0.0
Cd324 Cd 0.38968 0.3923 0.06246 0.0
O325 O 0.38332 0.39085 0.11379 0.0
O326 O 0.44071 0.43848 0.09452 0.0
O327 O 0.42468 0.43359 0.04881 0.0
C328 C 0.43829 0.44345 0.06539 0.0
C329 C 0.36996 0.3891 0.02027 0.0
C330 C 0.39129 0.40177 0.13679 0.0
C331 C 0.41841 0.38568 0.06536 0.0
O332 O 0.40437 0.38178 0.05158 0.0
O333 O 0.42619 0.39907 0.08284 0.0
O334 O 0.3678 0.3768 0.03953 0.0
O335 O 0.38328 0.40353 0.02533 0.0
O336 O 0.6605 0.74867 0.94618 0.0
Cd337 Cd 0.65338 0.74954 0.89698 0.0
Cd338 Cd 0.66567 0.72731 0.88944 0.0
O339 O 0.67099 0.73174 0.94161 0.0
O340 O 0.64831 0.76812 0.90119 0.0
O341 O 0.66639 0.76844 0.86348 0.0
C342 C 0.65881 0.7757 0.87683 0.0
C343 C 0.68369 0.72438 0.85042 0.0
C344 C 0.66683 0.74056 0.95992 0.0
C345 C 0.62817 0.71478 0.87857 0.0
O346 O 0.64041 0.71195 0.87886 0.0
O347 O 0.63058 0.7294 0.88442 0.0
O348 O 0.67561 0.71333 0.87376 0.0
O349 O 0.68228 0.7377 0.85023 0.0
O350 O 0.24499 0.92352 0.96272 0.0
Cd351 Cd 0.24112 0.91047 0.91787 0.0
Cd352 Cd 0.26574 0.94183 0.89271 0.0
O353 O 0.26802 0.94635 0.94521 0.0
O354 O 0.22291 0.88729 0.92913 0.0
O355 O 0.22062 0.90239 0.88775 0.0
C356 C 0.21437 0.88834 0.90419 0.0
C357 C 0.26918 0.96296 0.85354 0.0
C358 C 0.25811 0.93753 0.96915 0.0
C359 C 0.27297 0.91365 0.88879 0.0
O360 O 0.27644 0.92793 0.87702 0.0
O361 O 0.25988 0.90523 0.90675 0.0
O362 O 0.28141 0.96435 0.87202 0.0
O363 O 0.2546 0.94977 0.85819 0.0
O364 O 0.09701 0.3445 0.94346 0.0
Cd365 Cd 0.10328 0.35259 0.89397 0.0
Cd366 Cd 0.06746 0.33496 0.88923 0.0
O367 O 0.06929 0.32895 0.94 0.0
O368 O 0.12815 0.36269 0.89336 0.0
O369 O 0.11117 0.34123 0.86061 0.0
C370 C 0.12628 0.35195 0.87021 0.0
C371 C 0.04596 0.31635 0.85176 0.0
C372 C 0.08281 0.33521 0.95755 0.0
C373 C 0.08754 0.3732 0.87933 0.0
O374 O 0.07352 0.35959 0.88166 0.0
O375 O 0.10128 0.37319 0.88204 0.0
O376 O 0.04281 0.32278 0.87802 0.0
O377 O 0.06127 0.31958 0.84783 0.0
O378 O 0.418 0.99029 0.90135 0.0
Cd379 Cd 0.41592 0.98247 0.95115 0.0
Cd380 Cd 0.3989 0.00112 0.95482 0.0
O381 O 0.40713 0.007 0.90432 0.0
O382 O 0.43062 0.9723 0.95345 0.0
O383 O 0.43523 0.99439 0.98424 0.0
C384 C 0.43962 0.98354 0.97572 0.0
C385 C 0.39616 0.01991 0.99187 0.0
C386 C 0.41384 0.00011 0.88701 0.0
C387 C 0.37947 0.96286 0.96506 0.0
O388 O 0.37971 0.97676 0.96193 0.0
O389 O 0.39296 0.96229 0.96338 0.0
O390 O 0.38679 0.01369 0.96528 0.0
O391 O 0.40805 0.01645 0.9963 0.0
O392 O 0.99625 0.41879 0.88906 0.0
Cd393 Cd 0.00388 0.42854 0.93711 0.0
Cd394 Cd 0.9939 0.39443 0.94953 0.0
O395 O 0.98866 0.39211 0.89718 0.0
O396 O 0.00761 0.45164 0.93036 0.0
O397 O 0.99092 0.4345 0.97055 0.0
C398 C 0.99766 0.44899 0.95567 0.0
C399 C 0.97696 0.37292 0.98874 0.0
C400 C 0.99124 0.40415 0.87723 0.0
C401 C 0.03082 0.42173 0.95833 0.0
O402 O 0.01926 0.4064 0.96083 0.0
O403 O 0.0274 0.43293 0.94922 0.0
O404 O 0.986 0.37094 0.9661 0.0
O405 O 0.97683 0.38693 0.98822 0.0
O406 O 0.56412 0.57278 0.89605 0.0
Cd407 Cd 0.55751 0.57361 0.94576 0.0
Cd408 Cd 0.59302 0.59267 0.95153 0.0
O409 O 0.59187 0.58586 0.90018 0.0
O410 O 0.53281 0.55779 0.94662 0.0
O411 O 0.55071 0.55419 0.97828 0.0
C412 C 0.53539 0.5491 0.96909 0.0
C413 C 0.6145 0.59566 0.98924 0.0
C414 C 0.57849 0.57848 0.88219 0.0
C415 C 0.57187 0.60963 0.96206 0.0
O416 O 0.58615 0.61058 0.96008 0.0
O417 O 0.55843 0.59564 0.95858 0.0
O418 O 0.61755 0.60563 0.9637 0.0
O419 O 0.59934 0.58316 0.99228 0.0
O420 O 0.00056 0.57788 0.39632 0.0
Cd421 Cd 0.00641 0.57679 0.44651 0.0
Cd422 Cd 0.99222 0.59776 0.45203 0.0
O423 O 0.98693 0.592 0.40017 0.0
O424 O 0.01492 0.56066 0.44516 0.0
O425 O 0.99275 0.55608 0.47557 0.0
C426 C 0.00308 0.55121 0.4659 0.0
C427 C 0.97409 0.60073 0.49069 0.0
C428 C 0.99283 0.58454 0.38219 0.0
C429 C 0.02977 0.61226 0.4648 0.0
O430 O 0.01727 0.61452 0.46137 0.0
O431 O 0.02794 0.59768 0.46223 0.0
O432 O 0.98138 0.61117 0.46598 0.0
O433 O 0.97618 0.58783 0.49228 0.0
O434 O 0.41152 0.40781 0.39459 0.0
Cd435 Cd 0.41416 0.4217 0.43773 0.0
Cd436 Cd 0.38955 0.39118 0.46236 0.0
O437 O 0.38766 0.38562 0.41052 0.0
O438 O 0.43468 0.44357 0.42757 0.0
O439 O 0.43224 0.42837 0.47336 0.0
C440 C 0.44106 0.44181 0.45547 0.0
C441 C 0.3853 0.37012 0.50231 0.0
C442 C 0.39845 0.39391 0.38748 0.0
C443 C 0.38247 0.41966 0.46239 0.0
O444 O 0.37923 0.40574 0.47581 0.0
O445 O 0.3956 0.42782 0.44429 0.0
O446 O 0.37326 0.36913 0.48376 0.0
O447 O 0.40011 0.38298 0.49768 0.0
O448 O 0.58448 0.00184 0.39305 0.0
Cd449 Cd 0.57103 0.99144 0.43707 0.0
Cd450 Cd 0.6013 0.99655 0.46085 0.0
O451 O 0.60623 -0.0007 0.40852 0.0
O452 O 0.54927 0.99048 0.42767 0.0
O453 O 0.5651 0.00348 0.47261 0.0
C454 C 0.55149 -0.00109 0.45534 0.0
C455 C 0.62241 0.01396 0.50035 0.0
C456 C 0.59794 0.00184 0.3855 0.0
C457 C 0.57223 0.96142 0.46247 0.0
O458 O 0.58635 0.97186 0.47559 0.0
O459 O 0.56434 0.96666 0.44428 0.0
O460 O 0.62351 0.00278 0.48244 0.0
O461 O 0.60945 0.01569 0.49525 0.0
O462 O 0.2524 0.33127 0.44551 0.0
Cd463 Cd 0.25013 0.34136 0.40025 0.0
Cd464 Cd 0.27438 0.33351 0.37931 0.0
O465 O 0.27536 0.33056 0.43174 0.0
O466 O 0.23013 0.34387 0.40901 0.0
O467 O 0.23165 0.32927 0.36558 0.0
C468 C 0.2233 0.33485 0.38227 0.0
C469 C 0.27871 0.3157 0.34226 0.0
C470 C 0.26479 0.32951 0.45401 0.0
C471 C 0.28265 0.36955 0.37428 0.0
O472 O 0.2857 0.35821 0.36396 0.0
O473 O 0.26928 0.36554 0.39089 0.0
O474 O 0.29055 0.32675 0.36116 0.0
O475 O 0.26405 0.31432 0.3449 0.0
O476 O 0.65832 0.90743 0.44405 0.0
Cd477 Cd 0.64927 0.89927 0.39571 0.0
Cd478 Cd 0.66438 0.93477 0.38794 0.0
O479 O 0.67094 0.93507 0.43907 0.0
O480 O 0.64247 0.87507 0.39989 0.0
O481 O 0.6605 0.89185 0.36091 0.0
C482 C 0.65236 0.87714 0.37478 0.0
C483 C 0.68223 0.95609 0.34927 0.0
C484 C 0.66632 0.92198 0.45735 0.0
C485 C 0.62604 0.91186 0.3804 0.0
O486 O 0.63915 0.92639 0.38025 0.0
O487 O 0.62717 0.8988 0.38523 0.0
O488 O 0.6748 0.959 0.37403 0.0
O489 O 0.68024 0.94115 0.34725 0.0
O490 O 0.09605 0.75101 0.44316 0.0
Cd491 Cd 0.10256 0.75205 0.39268 0.0
Cd492 Cd 0.0667 0.7337 0.38848 0.0
O493 O 0.06837 0.73974 0.44047 0.0
O494 O 0.12751 0.76656 0.39405 0.0
O495 O 0.11128 0.7731 0.3639 0.0
C496 C 0.12619 0.77673 0.37343 0.0
C497 C 0.04531 0.73172 0.35164 0.0
C498 C 0.08193 0.7457 0.45787 0.0
C499 C 0.08713 0.7163 0.37369 0.0
O500 O 0.07305 0.71556 0.37819 0.0
O501 O 0.10079 0.73018 0.37583 0.0
O502 O 0.04208 0.7214 0.3766 0.0
O503 O 0.0606 0.744 0.3488 0.0
C504 C 0.22693 0.94674 0.24875 0.0
C505 C 0.23716 0.94909 0.27735 0.0
C506 C 0.228 0.96067 0.23158 0.0
C507 C 0.23961 0.977 0.2433 0.0
C508 C 0.24682 0.97902 0.27622 0.0
C509 C 0.24541 0.96491 0.29308 0.0
C510 C 0.21869 0.95797 0.19834 0.0
C511 C 0.25845 0.99623 0.29093 0.0
C512 C 0.27532 0.00711 0.18838 0.0
C513 C 0.27425 0.02166 0.19279 0.0
C514 C 0.26282 0.99166 0.20128 0.0
C515 C 0.2487 0.99078 0.21818 0.0
C516 C 0.24616 0.00475 0.21701 0.0
C517 C 0.25911 0.0202 0.20448 0.0
C518 C 0.2659 0.97694 0.20068 0.0
C519 C 0.23071 0.00406 0.23208 0.0
H520 H 0.21979 0.93439 0.23721 0.0
H521 H 0.25267 0.96669 0.31612 0.0
H522 H 0.21659 0.96862 0.19257 0.0
H523 H 0.22617 0.95689 0.17723 0.0
H524 H 0.20637 0.94609 0.19911 0.0
H525 H 0.26135 0.99559 0.31826 0.0
H526 H 0.27047 0.00229 0.27644 0.0
H527 H 0.25276 0.00436 0.28867 0.0
H528 H 0.28682 0.00815 0.17828 0.0
H529 H 0.258 0.03136 0.20722 0.0
H530 H 0.25524 0.96596 0.18812 0.0
H531 H 0.26697 0.9732 0.22711 0.0
H532 H 0.27763 0.97994 0.18689 0.0
H533 H 0.22017 0.99096 0.23515 0.0
H534 H 0.22648 0.0111 0.2156 0.0
H535 H 0.23384 0.0103 0.25743 0.0
C536 C 0.02004 0.27646 0.30541 0.0
C537 C 0.03499 0.27722 0.2951 0.0
C538 C 0.00457 0.2642 0.29213 0.0
C539 C 0.00418 0.25253 0.26786 0.0
C540 C 0.01887 0.25155 0.2619 0.0
C541 C 0.03423 0.264 0.27568 0.0
C542 C 0.98907 0.26531 0.30047 0.0
C543 C 0.01887 0.23873 0.23785 0.0
C544 C 0.9595 0.22836 0.23861 0.0
C545 C 0.95973 0.24022 0.21558 0.0
C546 C 0.97456 0.23063 0.25272 0.0
C547 C 0.98991 0.245 0.24341 0.0
C548 C 0.99029 0.255 0.21544 0.0
C549 C 0.9751 0.25248 0.20185 0.0
C550 C 0.97374 0.21899 0.2808 0.0
C551 C 0.0065 0.27002 0.20342 0.0
H552 H 0.02061 0.28647 0.32113 0.0
H553 H 0.04577 0.26437 0.26806 0.0
H554 H 0.98556 0.27032 0.27806 0.0
H555 H 0.97829 0.25268 0.30636 0.0
H556 H 0.99113 0.2737 0.32261 0.0
H557 H 0.02819 0.2351 0.24618 0.0
H558 H 0.00627 0.22725 0.23609 0.0
H559 H 0.02258 0.24431 0.21195 0.0
H560 H 0.94761 0.21857 0.24881 0.0
H561 H 0.97527 0.26135 0.18329 0.0
H562 H 0.97174 0.22355 0.30564 0.0
H563 H 0.98556 0.21851 0.28248 0.0
H564 H 0.96301 0.20606 0.27669 0.0
H565 H 0.01089 0.28021 0.22275 0.0
H566 H 0.00489 0.275 0.1787 0.0
H567 H 0.01646 0.26665 0.20037 0.0
C568 C 0.73099 0.71588 0.19428 0.0
C569 C 0.74495 0.7141 0.20131 0.0
C570 C 0.72883 0.72809 0.21119 0.0
C571 C 0.74089 0.73851 0.23588 0.0
C572 C 0.7564 0.73879 0.23814 0.0
C573 C 0.75832 0.72655 0.2205 0.0
C574 C 0.71244 0.72801 0.20645 0.0
C575 C 0.77 0.75032 0.26261 0.0
C576 C 0.72254 0.762 0.27877 0.0
C577 C 0.71095 0.74906 0.30008 0.0
C578 C 0.73463 0.76005 0.26056 0.0
C579 C 0.73507 0.74498 0.26441 0.0
C580 C 0.72575 0.73365 0.29108 0.0
C581 C 0.71366 0.7358 0.30856 0.0
C582 C 0.74506 0.77295 0.23389 0.0
C583 C 0.72655 0.71783 0.29751 0.0
H584 H 0.72084 0.70649 0.17873 0.0
H585 H 0.76936 0.72545 0.22553 0.0
H586 H 0.70417 0.7219 0.22884 0.0
H587 H 0.7147 0.74103 0.20463 0.0
H588 H 0.70565 0.72102 0.18312 0.0
H589 H 0.78263 0.75381 0.25241 0.0
H590 H 0.7695 0.76195 0.26775 0.0
H591 H 0.76839 0.74366 0.2872 0.0
H592 H 0.72075 0.77253 0.27262 0.0
H593 H 0.70497 0.72601 0.32573 0.0
H594 H 0.7377 0.77012 0.20988 0.0
H595 H 0.75688 0.77288 0.22829 0.0
H596 H 0.7482 0.78576 0.24227 0.0
H597 H 0.71995 0.70868 0.2766 0.0
H598 H 0.7205 0.71177 0.3221 0.0
H599 H 0.73979 0.72064 0.29792 0.0
C600 C 0.72907 0.96362 0.7845 0.0
C601 C 0.7159 0.96291 0.80406 0.0
C602 C 0.74165 0.97902 0.77116 0.0
C603 C 0.7409 0.99374 0.77801 0.0
C604 C 0.72956 0.99337 0.80306 0.0
C605 C 0.71704 0.97784 0.81564 0.0
C606 C 0.75411 0.97901 0.74608 0.0
C607 C 0.72889 0.00898 0.81258 0.0
C608 C 0.76516 0.03803 0.74576 0.0
C609 C 0.75298 0.03781 0.72371 0.0
C610 C 0.76271 0.02309 0.76081 0.0
C611 C 0.74787 0.00783 0.75319 0.0
C612 C 0.73721 0.00731 0.72638 0.0
C613 C 0.73985 0.02241 0.7121 0.0
C614 C 0.77484 0.02411 0.78795 0.0
C615 C 0.72162 0.99115 0.71617 0.0
H616 H 0.72841 0.95207 0.77595 0.0
H617 H 0.70707 0.97728 0.83148 0.0
H618 H 0.74848 0.97626 0.72013 0.0
H619 H 0.7659 0.99138 0.74529 0.0
H620 H 0.75719 0.96908 0.75262 0.0
H621 H 0.72123 0.00703 0.83591 0.0
H622 H 0.74173 0.01973 0.81703 0.0
H623 H 0.7232 0.01242 0.79128 0.0
H624 H 0.77552 0.04996 0.75444 0.0
H625 H 0.73066 0.02225 0.69444 0.0
H626 H 0.7747 0.01201 0.79088 0.0
H627 H 0.77129 0.02727 0.81279 0.0
H628 H 0.78786 0.03421 0.78187 0.0
H629 H 0.72454 0.98088 0.71291 0.0
H630 H 0.7161 0.99255 0.69199 0.0
H631 H 0.71199 0.98731 0.73659 0.0
C632 C 0.04026 0.76957 0.75529 0.0
C633 C 0.03959 0.75839 0.78057 0.0
C634 C 0.02553 0.76676 0.73863 0.0
C635 C 0.01003 0.75252 0.74773 0.0
C636 C 0.00908 0.74315 0.77731 0.0
C637 C 0.02396 0.7462 0.79336 0.0
C638 C 0.02698 0.77773 0.70867 0.0
C639 C 0.99267 0.72829 0.78906 0.0
C640 C 0.96605 0.73228 0.71458 0.0
C641 C 0.96547 0.71833 0.69849 0.0
C642 C 0.98137 0.7455 0.72676 0.0
C643 C 0.99615 0.74453 0.72251 0.0
C644 C 0.99595 0.73215 0.70051 0.0
C645 C 0.98051 0.7191 0.6888 0.0
C646 C 0.98124 0.75911 0.74806 0.0
C647 C 0.01162 0.73112 0.69372 0.0
H648 H 0.05234 0.7793 0.74573 0.0
H649 H 0.02343 0.73786 0.81359 0.0
H650 H 0.03046 0.7732 0.68551 0.0
H651 H 0.01497 0.7775 0.70355 0.0
H652 H 0.03705 0.79094 0.71322 0.0
H653 H 0.99381 0.72371 0.81465 0.0
H654 H 0.98265 0.73166 0.79022 0.0
H655 H 0.98863 0.71778 0.77058 0.0
H656 H 0.95444 0.73195 0.72147 0.0
H657 H 0.98008 0.70854 0.67545 0.0
H658 H 0.99367 0.77084 0.74784 0.0
H659 H 0.97811 0.75473 0.77488 0.0
H660 H 0.97149 0.76195 0.73872 0.0
H661 H 0.02232 0.74367 0.68704 0.0
H662 H 0.00975 0.72225 0.67263 0.0
H663 H 0.0151 0.72671 0.71712 0.0
C664 C 0.27537 0.26648 0.70243 0.0
C665 C 0.2731 0.25051 0.70919 0.0
C666 C 0.2626 0.27013 0.7093 0.0
C667 C 0.24709 0.25735 0.72298 0.0
C668 C 0.2439 0.24061 0.72495 0.0
C669 C 0.25705 0.23737 0.71822 0.0
C670 C 0.26652 0.28815 0.70545 0.0
C671 C 0.22721 0.22634 0.73689 0.0
C672 C 0.23886 0.28137 0.78787 0.0
C673 C 0.23253 0.28905 0.76621 0.0
C674 C 0.24099 0.2682 0.77587 0.0
C675 C 0.23647 0.26267 0.74171 0.0
C676 C 0.22642 0.26758 0.72319 0.0
C677 C 0.22463 0.28094 0.7356 0.0
C678 C 0.25075 0.26242 0.79756 0.0
C679 C 0.21984 0.26062 0.68813 0.0
H680 H 0.28761 0.27652 0.69433 0.0
H681 H 0.25509 0.22485 0.7227 0.0
H682 H 0.25675 0.28869 0.68977 0.0
H683 H 0.26664 0.29352 0.73092 0.0
H684 H 0.27893 0.29629 0.69317 0.0
H685 H 0.2237 0.21486 0.72156 0.0
H686 H 0.22833 0.22329 0.76386 0.0
H687 H 0.21696 0.22939 0.73505 0.0
H688 H 0.24423 0.28708 0.81234 0.0
H689 H 0.21897 0.2863 0.71926 0.0
H690 H 0.26381 0.26802 0.78766 0.0
H691 H 0.24491 0.24855 0.79641 0.0
H692 H 0.25137 0.26623 0.82471 0.0
H693 H 0.2293 0.2685 0.66863 0.0
H694 H 0.20807 0.26084 0.68266 0.0
H695 H 0.21738 0.24753 0.6856 0.0
C696 C 0.9321 0.36806 0.55653 0.0
C697 C 0.94418 0.36658 0.53712 0.0
C698 C 0.91915 0.35394 0.57309 0.0
C699 C 0.91853 0.33831 0.56998 0.0
C700 C 0.92845 0.33628 0.54466 0.0
C701 C 0.9412 0.35055 0.52839 0.0
C702 C 0.90778 0.35634 0.59736 0.0
C703 C 0.92755 0.31958 0.53876 0.0
C704 C 0.92226 0.31406 0.64162 0.0
C705 C 0.90941 0.29797 0.63251 0.0
C706 C 0.92388 0.32827 0.62491 0.0
C707 C 0.91227 0.32613 0.59872 0.0
C708 C 0.89738 0.31042 0.59501 0.0
C709 C 0.89609 0.29636 0.61205 0.0
C710 C 0.93952 0.34505 0.63142 0.0
C711 C 0.88392 0.30788 0.56972 0.0
H712 H 0.93394 0.38041 0.56249 0.0
H713 H 0.95016 0.34933 0.51228 0.0
H714 H 0.89609 0.34432 0.60292 0.0
H715 H 0.91452 0.36167 0.62175 0.0
H716 H 0.90437 0.36545 0.5866 0.0
H717 H 0.9347 0.31978 0.51568 0.0
H718 H 0.93289 0.31643 0.56116 0.0
H719 H 0.91431 0.30941 0.5357 0.0
H720 H 0.93223 0.31537 0.6585 0.0
H721 H 0.88575 0.28396 0.60575 0.0
H722 H 0.93628 0.35513 0.63381 0.0
H723 H 0.94834 0.34828 0.6096 0.0
H724 H 0.94615 0.34492 0.65507 0.0
H725 H 0.88423 0.31985 0.5637 0.0
H726 H 0.87129 0.29869 0.57982 0.0
H727 H 0.88576 0.3026 0.54568 0.0
C728 C 0.64284 0.59068 0.53065 0.0
C729 C 0.62815 0.57607 0.5405 0.0
C730 C 0.65854 0.59392 0.54257 0.0
C731 C 0.65943 0.58226 0.56502 0.0
C732 C 0.645 0.56632 0.57037 0.0
C733 C 0.6294 0.56337 0.55795 0.0
C734 C 0.67376 0.61086 0.5349 0.0
C735 C 0.64554 0.55315 0.59252 0.0
C736 C 0.70445 0.60264 0.592 0.0
C737 C 0.70433 0.61363 0.61679 0.0
C738 C 0.68931 0.59008 0.57769 0.0
C739 C 0.67399 0.58868 0.58866 0.0
C740 C 0.67379 0.59763 0.61802 0.0
C741 C 0.68906 0.61009 0.63171 0.0
C742 C 0.68998 0.58002 0.54789 0.0
C743 C 0.65764 0.59595 0.63171 0.0
H744 H 0.64189 0.60031 0.51642 0.0
H745 H 0.61806 0.55188 0.56518 0.0
H746 H 0.67734 0.61888 0.5581 0.0
H747 H 0.68464 0.60942 0.52759 0.0
H748 H 0.67132 0.61753 0.51394 0.0
H749 H 0.6362 0.54031 0.58363 0.0
H750 H 0.65822 0.55443 0.59273 0.0
H751 H 0.64221 0.55449 0.61913 0.0
H752 H 0.71628 0.60508 0.58081 0.0
H753 H 0.68899 0.6183 0.65157 0.0
H754 H 0.69159 0.58712 0.5239 0.0
H755 H 0.67824 0.56767 0.54576 0.0
H756 H 0.70086 0.57794 0.55029 0.0
H757 H 0.65298 0.60212 0.61385 0.0
H758 H 0.65943 0.60193 0.65722 0.0
H759 H 0.64778 0.58252 0.63383 0.0
C760 C 0.3883 0.10165 0.59007 0.0
C761 C 0.37684 0.09022 0.61388 0.0
C762 C 0.4014 0.0995 0.57727 0.0
C763 C 0.40287 0.08568 0.58872 0.0
C764 C 0.39311 0.076 0.6169 0.0
C765 C 0.38012 0.07837 0.62907 0.0
C766 C 0.41214 0.11069 0.54859 0.0
C767 C 0.39471 0.06154 0.63098 0.0
C768 C 0.40455 0.05392 0.53225 0.0
C769 C 0.41908 0.05444 0.54469 0.0
C770 C 0.40024 0.06582 0.54281 0.0
C771 C 0.4107 0.07837 0.56663 0.0
C772 C 0.42667 0.08051 0.5748 0.0
C773 C 0.43073 0.06843 0.56363 0.0
C774 C 0.38335 0.06345 0.53222 0.0
C775 C 0.43858 0.09422 0.59864 0.0
H776 H 0.38599 0.11107 0.57863 0.0
H777 H 0.37151 0.06982 0.64814 0.0
H778 H 0.42467 0.11162 0.54795 0.0
H779 H 0.40578 0.1054 0.52385 0.0
H780 H 0.41388 0.12353 0.55104 0.0
H781 H 0.38788 0.05681 0.65556 0.0
H782 H 0.38941 0.051 0.61235 0.0
H783 H 0.40811 0.06539 0.63509 0.0
H784 H 0.39574 0.04328 0.51693 0.0
H785 H 0.44213 0.069 0.57293 0.0
H786 H 0.3845 0.07566 0.52492 0.0
H787 H 0.37445 0.05831 0.55403 0.0
H788 H 0.37785 0.05462 0.51035 0.0
H789 H 0.43703 0.10545 0.59729 0.0
H790 H 0.45185 0.09804 0.59265 0.0
H791 H 0.43603 0.08944 0.62527 0.0
C792 C 0.41372 0.35738 0.05051 0.0
C793 C 0.42333 0.37263 0.0678 0.0
C794 C 0.41268 0.34257 0.06278 0.0
C795 C 0.42181 0.34325 0.09256 0.0
C796 C 0.43416 0.35905 0.10542 0.0
C797 C 0.43468 0.37368 0.09313 0.0
C798 C 0.3999 0.32603 0.04694 0.0
C799 C 0.44539 0.36044 0.13484 0.0
C800 C 0.38972 0.30936 0.14771 0.0
C801 C 0.39046 0.29549 0.13499 0.0
C802 C 0.40155 0.32569 0.13767 0.0
C803 C 0.41459 0.32813 0.11485 0.0
C804 C 0.41716 0.3145 0.10732 0.0
C805 C 0.40488 0.29817 0.11722 0.0
C806 C 0.39858 0.33992 0.14767 0.0
C807 C 0.43177 0.31675 0.08581 0.0
H808 H 0.40547 0.35661 0.02989 0.0
H809 H 0.44271 0.38557 0.10581 0.0
H810 H 0.40558 0.31805 0.04216 0.0
H811 H 0.38917 0.31914 0.06476 0.0
H812 H 0.3949 0.3278 0.02239 0.0
H813 H 0.45797 0.37189 0.13208 0.0
H814 H 0.43985 0.36165 0.1591 0.0
H815 H 0.44697 0.34924 0.13662 0.0
H816 H 0.37888 0.30732 0.16256 0.0
H817 H 0.40581 0.2875 0.1081 0.0
H818 H 0.39483 0.34445 0.12484 0.0
H819 H 0.41027 0.35064 0.15801 0.0
H820 H 0.38853 0.33602 0.16724 0.0
H821 H 0.42747 0.31281 0.05917 0.0
H822 H 0.43659 0.30858 0.09548 0.0
H823 H 0.44222 0.33 0.08558 0.0
C824 C 0.61465 0.0512 0.0993 0.0
C825 C 0.61572 0.04194 0.07177 0.0
C826 C 0.62931 0.06424 0.1142 0.0
C827 C 0.64514 0.06774 0.10142 0.0
C828 C 0.64601 0.06065 0.06984 0.0
C829 C 0.63119 0.04788 0.05519 0.0
C830 C 0.62783 0.07261 0.14608 0.0
C831 C 0.66266 0.0646 0.05425 0.0
C832 C 0.6897 0.09437 0.13157 0.0
C833 C 0.69204 0.08173 0.14626 0.0
C834 C 0.67364 0.0908 0.12077 0.0
C835 C 0.65991 0.07425 0.12458 0.0
C836 C 0.66186 0.06241 0.14447 0.0
C837 C 0.67797 0.06637 0.15517 0.0
C838 C 0.67189 0.10419 0.10202 0.0
C839 C 0.64744 0.04475 0.15051 0.0
H840 H 0.60264 0.04714 0.11161 0.0
H841 H 0.63202 0.04122 0.03306 0.0
H842 H 0.62673 0.06481 0.16865 0.0
H843 H 0.63899 0.0853 0.14965 0.0
H844 H 0.61633 0.07374 0.14513 0.0
H845 H 0.66115 0.05945 0.02798 0.0
H846 H 0.67132 0.07838 0.05321 0.0
H847 H 0.66865 0.05907 0.0703 0.0
H848 H 0.70054 0.10645 0.12522 0.0
H849 H 0.67974 0.05677 0.16744 0.0
H850 H 0.65874 0.10167 0.10226 0.0
H851 H 0.67589 0.10474 0.07508 0.0
H852 H 0.68023 0.11674 0.11356 0.0
H853 H 0.63636 0.04508 0.16075 0.0
H854 H 0.65083 0.03764 0.16873 0.0
H855 H 0.64368 0.03776 0.12597 0.0
C856 C 0.89821 0.6091 0.09884 0.0
C857 C 0.91008 0.62009 0.12264 0.0
C858 C 0.90034 0.59657 0.08301 0.0
C859 C 0.91458 0.5952 0.09146 0.0
C860 C 0.92456 0.60408 0.12008 0.0
C861 C 0.92219 0.61651 0.13534 0.0
C862 C 0.88871 0.58653 0.05425 0.0
C863 C 0.93942 0.60239 0.13124 0.0
C864 C 0.93367 0.57063 0.05642 0.0
C865 C 0.94722 0.58364 0.03861 0.0
C866 C 0.92098 0.57315 0.07023 0.0
C867 C 0.92206 0.58895 0.06586 0.0
C868 C 0.93399 0.60078 0.04264 0.0
C869 C 0.94651 0.59797 0.02934 0.0
C870 C 0.90785 0.55976 0.09296 0.0
C871 C 0.93513 0.61754 0.03582 0.0
H872 H 0.8885 0.61153 0.08945 0.0
H873 H 0.93104 0.62468 0.15453 0.0
H874 H 0.89315 0.59385 0.03018 0.0
H875 H 0.88835 0.57437 0.05049 0.0
H876 H 0.87574 0.58405 0.0592 0.0
H877 H 0.94441 0.60841 0.15643 0.0
H878 H 0.93585 0.58896 0.13296 0.0
H879 H 0.94967 0.6085 0.1121 0.0
H880 H 0.93398 0.55932 0.0631 0.0
H881 H 0.95676 0.60783 0.01476 0.0
H882 H 0.89636 0.56083 0.09476 0.0
H883 H 0.91309 0.561 0.11904 0.0
H884 H 0.90434 0.54702 0.08338 0.0
H885 H 0.92253 0.61579 0.03009 0.0
H886 H 0.94365 0.6243 0.01408 0.0
H887 H 0.94004 0.62561 0.05888 0.0
C888 C 0.55917 0.62615 0.93985 0.0
C889 C 0.57136 0.62539 0.96025 0.0
C890 C 0.56231 0.64151 0.92568 0.0
C891 C 0.57789 0.65617 0.93232 0.0
C892 C 0.58876 0.6558 0.95767 0.0
C893 C 0.58536 0.64032 0.97126 0.0
C894 C 0.54991 0.64151 0.90042 0.0
C895 C 0.60522 0.6713 0.96681 0.0
C896 C 0.6081 0.68473 0.86724 0.0
C897 C 0.61099 0.7002 0.87988 0.0
C898 C 0.59518 0.66967 0.8807 0.0
C899 C 0.58511 0.67028 0.90753 0.0
C900 C 0.58601 0.68571 0.91566 0.0
C901 C 0.59904 0.70064 0.90161 0.0
C902 C 0.59411 0.65336 0.86991 0.0
C903 C 0.5748 0.68679 0.94249 0.0
H904 H 0.54812 0.61462 0.93173 0.0
H905 H 0.59456 0.63975 0.98777 0.0
H906 H 0.55101 0.65409 0.89831 0.0
H907 H 0.55228 0.63791 0.87486 0.0
H908 H 0.53681 0.63213 0.90784 0.0
H909 H 0.61109 0.6693 0.98983 0.0
H910 H 0.61417 0.6747 0.94518 0.0
H911 H 0.6033 0.68213 0.97164 0.0
H912 H 0.61707 0.68441 0.84966 0.0
H913 H 0.60098 0.71261 0.91093 0.0
H914 H 0.58081 0.6434 0.86624 0.0
H915 H 0.59956 0.64907 0.8902 0.0
H916 H 0.60108 0.65477 0.84579 0.0
H917 H 0.56252 0.67494 0.94419 0.0
H918 H 0.57256 0.69739 0.93701 0.0
H919 H 0.58108 0.68917 0.96775 0.0
C920 C 0.36146 0.9329 0.94732 0.0
C921 C 0.36303 0.94721 0.96372 0.0
C922 C 0.34579 0.92038 0.93484 0.0
C923 C 0.33161 0.92243 0.93885 0.0
C924 C 0.33278 0.9356 0.95978 0.0
C925 C 0.34852 0.94782 0.97201 0.0
C926 C 0.34496 0.90601 0.91457 0.0
C927 C 0.31784 0.938 0.96597 0.0
C928 C 0.30155 0.91955 0.87251 0.0
C929 C 0.2865 0.90937 0.89005 0.0
C930 C 0.31682 0.92187 0.88527 0.0
C931 C 0.31679 0.91367 0.91599 0.0
C932 C 0.30142 0.90066 0.92909 0.0
C933 C 0.28629 0.89862 0.9159 0.0
C934 C 0.333 0.93518 0.86917 0.0
C935 C 0.3009 0.89067 0.96009 0.0
H936 H 0.37263 0.9322 0.94132 0.0
H937 H 0.34968 0.95867 0.98551 0.0
H938 H 0.33199 0.89508 0.91327 0.0
H939 H 0.34942 0.91033 0.88816 0.0
H940 H 0.35339 0.90188 0.92593 0.0
H941 H 0.32076 0.94833 0.98434 0.0
H942 H 0.3138 0.94104 0.94155 0.0
H943 H 0.30707 0.92627 0.97611 0.0
H944 H 0.30171 0.92735 0.85155 0.0
H945 H 0.2746 0.89015 0.9288 0.0
H946 H 0.34229 0.93084 0.86774 0.0
H947 H 0.33852 0.94673 0.88512 0.0
H948 H 0.33094 0.93852 0.84303 0.0
H949 H 0.31217 0.88919 0.9614 0.0
H950 H 0.2894 0.87803 0.95998 0.0
H951 H 0.30059 0.89733 0.9835 0.0
C952 C 0.10009 0.40287 0.89913 0.0
C953 C 0.0875 0.38921 0.88082 0.0
C954 C 0.0971 0.41536 0.91234 0.0
C955 C 0.08121 0.41395 0.90697 0.0
C956 C 0.06968 0.40175 0.88375 0.0
C957 C 0.07299 0.38947 0.871 0.0
C958 C 0.11019 0.42875 0.93512 0.0
C959 C 0.0528 0.40016 0.87598 0.0
C960 C 0.05231 0.41399 0.97273 0.0
C961 C 0.04839 0.42542 0.95762 0.0
C962 C 0.06543 0.41202 0.95983 0.0
C963 C 0.07462 0.4217 0.93116 0.0
C964 C 0.07293 0.43551 0.9207 0.0
C965 C 0.0597 0.43725 0.93414 0.0
C966 C 0.06749 0.39772 0.97322 0.0
C967 C 0.08336 0.44691 0.89198 0.0
H968 H 0.11154 0.40292 0.90626 0.0
H969 H 0.06346 0.37915 0.85602 0.0
H970 H 0.10858 0.43992 0.93714 0.0
H971 H 0.10922 0.42351 0.96111 0.0
H972 H 0.12303 0.4328 0.92541 0.0
H973 H 0.04617 0.39121 0.85477 0.0
H974 H 0.04468 0.3956 0.89903 0.0
H975 H 0.05436 0.41256 0.86895 0.0
H976 H 0.0439 0.40522 0.99176 0.0
H977 H 0.05702 0.44648 0.923 0.0
H978 H 0.081 0.40171 0.97598 0.0
H979 H 0.06184 0.38708 0.95484 0.0
H980 H 0.06123 0.3931 0.99836 0.0
H981 H 0.09592 0.44793 0.89064 0.0
H982 H 0.08502 0.45968 0.89508 0.0
H983 H 0.07681 0.44174 0.86735 0.0
C984 C 0.09938 0.69968 0.39688 0.0
C985 C 0.08747 0.70047 0.37563 0.0
C986 C 0.09574 0.68447 0.41254 0.0
C987 C 0.08001 0.66995 0.4062 0.0
C988 C 0.0695 0.67018 0.37988 0.0
C989 C 0.07331 0.68556 0.36505 0.0
C990 C 0.10767 0.68461 0.43922 0.0
C991 C 0.05295 0.65474 0.37098 0.0
C992 C 0.05885 0.62624 0.44184 0.0
C993 C 0.04676 0.62707 0.46243 0.0
C994 C 0.07168 0.64079 0.42625 0.0
C995 C 0.07235 0.65632 0.43197 0.0
C996 C 0.06206 0.65752 0.45758 0.0
C997 C 0.04924 0.64278 0.47235 0.0
C998 C 0.08289 0.63907 0.40037 0.0
C999 C 0.06292 0.67402 0.46579 0.0
H1000 H 0.11051 0.7112 0.40479 0.0
H1001 H 0.06429 0.68616 0.34804 0.0
H1002 H 0.10471 0.68821 0.46423 0.0
H1003 H 0.10655 0.67207 0.44206 0.0
H1004 H 0.1209 0.69402 0.43275 0.0
H1005 H 0.04764 0.65639 0.34673 0.0
H1006 H 0.05451 0.64357 0.36851 0.0
H1007 H 0.04372 0.65218 0.39172 0.0
H1008 H 0.05714 0.61409 0.43446 0.0
H1009 H 0.0401 0.64344 0.4889 0.0
H1010 H 0.09514 0.65088 0.39773 0.0
H1011 H 0.07656 0.63598 0.3751 0.0
H1012 H 0.0852 0.62868 0.40749 0.0
H1013 H 0.07617 0.6842 0.46882 0.0
H1014 H 0.05594 0.67322 0.48956 0.0
H1015 H 0.05733 0.67756 0.44445 0.0
C1016 C 0.29583 0.39917 0.39583 0.0
C1017 C 0.29676 0.38715 0.37515 0.0
C1018 C 0.31054 0.41269 0.40959 0.0
C1019 C 0.32617 0.41362 0.40343 0.0
C1020 C 0.32731 0.40348 0.37738 0.0
C1021 C 0.31252 0.39057 0.36295 0.0
C1022 C 0.309 0.42467 0.43363 0.0
C1023 C 0.34379 0.40444 0.36835 0.0
C1024 C 0.36996 0.43604 0.43719 0.0
C1025 C 0.36869 0.42358 0.45988 0.0
C1026 C 0.35543 0.43485 0.42251 0.0
C1027 C 0.33961 0.4206 0.42985 0.0
C1028 C 0.33819 0.41001 0.45761 0.0
C1029 C 0.35283 0.41193 0.47286 0.0
C1030 C 0.35732 0.44776 0.39642 0.0
C1031 C 0.3215 0.39504 0.46786 0.0
H1032 H 0.28369 0.39715 0.40415 0.0
H1033 H 0.31333 0.38182 0.34554 0.0
H1034 H 0.3033 0.41818 0.45806 0.0
H1035 H 0.32135 0.43602 0.43898 0.0
H1036 H 0.3004 0.42867 0.42254 0.0
H1037 H 0.34247 0.39594 0.34689 0.0
H1038 H 0.35325 0.41745 0.36095 0.0
H1039 H 0.34875 0.40091 0.39084 0.0
H1040 H 0.38221 0.44568 0.42819 0.0
H1041 H 0.35176 0.40279 0.49174 0.0
H1042 H 0.34511 0.44694 0.39029 0.0
H1043 H 0.36285 0.44603 0.37263 0.0
H1044 H 0.36618 0.46059 0.40608 0.0
H1045 H 0.31231 0.39915 0.47389 0.0
H1046 H 0.32261 0.38839 0.49057 0.0
H1047 H 0.31633 0.38592 0.44643 0.0
C1048 C 0.60846 0.92523 0.37474 0.0
C1049 C 0.60945 0.91083 0.38204 0.0
C1050 C 0.59533 0.92713 0.38774 0.0
C1051 C 0.58266 0.91407 0.40791 0.0
C1052 C 0.58213 0.89844 0.4104 0.0
C1053 C 0.59568 0.89701 0.39763 0.0
C1054 C 0.59626 0.94396 0.38325 0.0
C1055 C 0.56821 0.88367 0.42914 0.0
C1056 C 0.57783 0.93843 0.47746 0.0
C1057 C 0.56782 0.94358 0.46012 0.0
C1058 C 0.58066 0.92603 0.46344 0.0
C1059 C 0.57298 0.91858 0.43189 0.0
C1060 C 0.55979 0.92078 0.4193 0.0
C1061 C 0.5574 0.93349 0.43344 0.0
C1062 C 0.59403 0.92317 0.47924 0.0
C1063 C 0.54998 0.91159 0.38793 0.0
H1064 H 0.61881 0.93571 0.36164 0.0
H1065 H 0.5961 0.88561 0.4026 0.0
H1066 H 0.58437 0.9422 0.37216 0.0
H1067 H 0.59809 0.95022 0.4084 0.0
H1068 H 0.60677 0.95256 0.36628 0.0
H1069 H 0.56451 0.87185 0.41493 0.0
H1070 H 0.57284 0.88243 0.45455 0.0
H1071 H 0.55692 0.88498 0.43272 0.0
H1072 H 0.58527 0.94563 0.49921 0.0
H1073 H 0.54897 0.93683 0.42078 0.0
H1074 H 0.60559 0.92932 0.46332 0.0
H1075 H 0.58971 0.90954 0.4803 0.0
H1076 H 0.59734 0.92838 0.50552 0.0
H1077 H 0.55637 0.91908 0.36484 0.0
H1078 H 0.53709 0.90983 0.38868 0.0
H1079 H 0.54909 0.89911 0.38552 0.0
C1080 C 0.30993 0.05402 0.48864 0.0
C1081 C 0.31539 0.06984 0.50352 0.0
C1082 C 0.31017 0.05224 0.45293 0.0
C1083 C 0.31622 0.06663 0.4317 0.0
C1084 C 0.32135 0.08253 0.44654 0.0
C1085 C 0.32073 0.0839 0.48208 0.0
C1086 C 0.30425 0.03502 0.43793 0.0
C1087 C 0.32791 0.09822 0.42491 0.0
C1088 C 0.33282 0.06759 0.34196 0.0
C1089 C 0.31963 0.06637 0.32181 0.0
C1090 C 0.33174 0.06724 0.37788 0.0
C1091 C 0.31697 0.06526 0.39387 0.0
C1092 C 0.30339 0.06337 0.37354 0.0
C1093 C 0.30496 0.06412 0.33788 0.0
C1094 C 0.34658 0.06955 0.39873 0.0
C1095 C 0.28733 0.06094 0.38946 0.0
H1096 H 0.30584 0.04309 0.5049 0.0
H1097 H 0.325 0.09621 0.49313 0.0
H1098 H 0.29433 0.03207 0.41855 0.0
H1099 H 0.31485 0.03484 0.42472 0.0
H1100 H 0.29918 0.02499 0.4577 0.0
H1101 H 0.33164 0.10967 0.44048 0.0
H1102 H 0.339 0.10009 0.40998 0.0
H1103 H 0.31816 0.09683 0.40636 0.0
H1104 H 0.34415 0.06925 0.3297 0.0
H1105 H 0.29455 0.06284 0.32251 0.0
H1106 H 0.34255 0.05912 0.41734 0.0
H1107 H 0.35177 0.08141 0.41359 0.0
H1108 H 0.35677 0.07006 0.38254 0.0
H1109 H 0.28241 0.0505 0.40827 0.0
H1110 H 0.27741 0.05815 0.37012 0.0
H1111 H 0.28991 0.0725 0.40348 0.0
C1112 C 0.94272 0.26522 0.4967 0.0
C1113 C 0.92813 0.26164 0.51484 0.0
C1114 C 0.94313 0.26636 0.46072 0.0
C1115 C 0.92878 0.26432 0.44275 0.0
C1116 C 0.91435 0.26146 0.46121 0.0
C1117 C 0.91414 0.25997 0.49682 0.0
C1118 C 0.95866 0.26914 0.44187 0.0
C1119 C 0.89887 0.2595 0.44328 0.0
C1120 C 0.93054 0.27626 0.34867 0.0
C1121 C 0.92327 0.26041 0.33292 0.0
C1122 C 0.93278 0.27786 0.38441 0.0
C1123 C 0.92797 0.26333 0.40468 0.0
C1124 C 0.92096 0.2474 0.38877 0.0
C1125 C 0.91855 0.24613 0.35333 0.0
C1126 C 0.94 0.29503 0.40055 0.0
C1127 C 0.91579 0.23158 0.40925 0.0
H1128 H 0.95361 0.26667 0.51051 0.0
H1129 H 0.90293 0.25761 0.51066 0.0
H1130 H 0.95564 0.25778 0.42661 0.0
H1131 H 0.96291 0.2798 0.42375 0.0
H1132 H 0.96918 0.27176 0.45951 0.0
H1133 H 0.88937 0.25905 0.46149 0.0
H1134 H 0.90237 0.27007 0.42525 0.0
H1135 H 0.89296 0.24771 0.42812 0.0
H1136 H 0.93435 0.28737 0.33313 0.0
H1137 H 0.91318 0.23382 0.34154 0.0
H1138 H 0.95114 0.29779 0.41631 0.0
H1139 H 0.93054 0.29525 0.41789 0.0
H1140 H 0.94376 0.30516 0.38123 0.0
H1141 H 0.92639 0.23316 0.42552 0.0
H1142 H 0.91176 0.22036 0.39274 0.0
H1143 H 0.90521 0.22915 0.42648 0.0
C1144 C 0.75242 0.66728 0.48427 0.0
C1145 C 0.7438 0.67302 0.50495 0.0
C1146 C 0.75007 0.66571 0.4488 0.0
C1147 C 0.73906 0.67031 0.43315 0.0
C1148 C 0.73072 0.67667 0.45356 0.0
C1149 C 0.73308 0.67783 0.48927 0.0
C1150 C 0.75919 0.65883 0.42811 0.0
C1151 C 0.71919 0.68208 0.4377 0.0
C1152 C 0.74813 0.68018 0.33893 0.0
C1153 C 0.73592 0.66522 0.32339 0.0
C1154 C 0.74867 0.68232 0.37444 0.0
C1155 C 0.73694 0.669 0.39525 0.0
C1156 C 0.7243 0.65397 0.37975 0.0
C1157 C 0.72379 0.65234 0.34387 0.0
C1158 C 0.76212 0.69869 0.3897 0.0
C1159 C 0.71173 0.63939 0.40112 0.0
H1160 H 0.76069 0.66344 0.4959 0.0
H1161 H 0.72629 0.6822 0.50493 0.0
H1162 H 0.74998 0.64756 0.41359 0.0
H1163 H 0.76761 0.66834 0.40922 0.0
H1164 H 0.76687 0.65528 0.4443 0.0
H1165 H 0.7141 0.6873 0.45687 0.0
H1166 H 0.72603 0.69176 0.4178 0.0
H1167 H 0.7085 0.6712 0.42492 0.0
H1168 H 0.75733 0.69038 0.3232 0.0
H1169 H 0.71426 0.64081 0.33195 0.0
H1170 H 0.77124 0.6965 0.40417 0.0
H1171 H 0.75645 0.70369 0.40796 0.0
H1172 H 0.76911 0.70841 0.36991 0.0
H1173 H 0.7184 0.63438 0.41657 0.0
H1174 H 0.70206 0.62901 0.38526 0.0
H1175 H 0.70532 0.64364 0.41923 0.0
C1176 C 0.08596 0.32153 0.15881 0.0
C1177 C 0.08232 0.33221 0.17821 0.0
C1178 C 0.08528 0.32139 0.12302 0.0
C1179 C 0.08112 0.33238 0.10589 0.0
C1180 C 0.07759 0.34335 0.12517 0.0
C1181 C 0.07811 0.34304 0.16113 0.0
C1182 C 0.08898 0.30939 0.10353 0.0
C1183 C 0.07339 0.35546 0.10778 0.0
C1184 C 0.09686 0.34349 0.01463 0.0
C1185 C 0.08223 0.33347 0.99541 0.0
C1186 C 0.09655 0.34344 0.05044 0.0
C1187 C 0.0813 0.33291 0.06778 0.0
C1188 C 0.06653 0.32252 0.0487 0.0
C1189 C 0.06713 0.32301 0.01272 0.0
C1190 C 0.11256 0.35481 0.06972 0.0
C1191 C 0.0501 0.31089 0.06632 0.0
H1192 H 0.08906 0.31295 0.1716 0.0
H1193 H 0.0752 0.35127 0.17584 0.0
H1194 H 0.07827 0.30134 0.08646 0.0
H1195 H 0.10022 0.31658 0.08711 0.0
H1196 H 0.09131 0.30114 0.12071 0.0
H1197 H 0.07083 0.36306 0.12635 0.0
H1198 H 0.08397 0.36412 0.09106 0.0
H1199 H 0.06217 0.34846 0.09121 0.0
H1200 H 0.1086 0.35175 1.00169 0.0
H1201 H 0.05577 0.31528 0.99818 0.0
H1202 H 0.1161 0.34717 0.08598 0.0
H1203 H 0.11056 0.36326 0.08691 0.0
H1204 H 0.12326 0.36266 0.0524 0.0
H1205 H 0.05164 0.30198 0.08303 0.0
H1206 H 0.03976 0.30355 0.04789 0.0
H1207 H 0.04636 0.31826 0.08293 0.0
C1208 C 0.64882 0.72157 0.16097 0.0
C1209 C 0.65983 0.7359 0.17984 0.0
C1210 C 0.65031 0.72124 0.12515 0.0
C1211 C 0.66336 0.7354 0.10803 0.0
C1212 C 0.67484 0.74962 0.12719 0.0
C1213 C 0.67283 0.74975 0.16264 0.0
C1214 C 0.63765 0.70596 0.10552 0.0
C1215 C 0.68908 0.76489 0.11016 0.0
C1216 C 0.67493 0.73237 0.01547 0.0
C1217 C 0.66695 0.73977 0.99791 0.0
C1218 C 0.6738 0.73068 0.05136 0.0
C1219 C 0.66417 0.7362 0.06993 0.0
C1220 C 0.65599 0.74352 0.05224 0.0
C1221 C 0.65762 0.74537 0.0167 0.0
C1222 C 0.683 0.72314 0.06944 0.0
C1223 C 0.64545 0.74943 0.07087 0.0
H1224 H 0.63885 0.71078 0.17409 0.0
H1225 H 0.68166 0.76077 0.17701 0.0
H1226 H 0.63018 0.70946 0.0886 0.0
H1227 H 0.64419 0.70124 0.08892 0.0
H1228 H 0.62888 0.69562 0.12266 0.0
H1229 H 0.69782 0.77425 0.12897 0.0
H1230 H 0.69636 0.76109 0.09341 0.0
H1231 H 0.68391 0.77109 0.09375 0.0
H1232 H 0.68206 0.72791 1.00122 0.0
H1233 H 0.65118 0.75091 1.00354 0.0
H1234 H 0.67399 0.71197 0.08443 0.0
H1235 H 0.6922 0.73239 0.08777 0.0
H1236 H 0.68981 0.71931 0.05138 0.0
H1237 H 0.63572 0.73905 0.08657 0.0
H1238 H 0.63909 0.75393 0.05314 0.0
H1239 H 0.65351 0.75985 0.08851 0.0
C1240 C 0.28358 0.94708 0.16845 0.0
C1241 C 0.27804 0.93046 0.17885 0.0
C1242 C 0.28299 0.95099 0.13391 0.0
C1243 C 0.27693 0.93801 0.10918 0.0
C1244 C 0.27293 0.92157 0.11914 0.0
C1245 C 0.27334 0.91794 0.15389 0.0
C1246 C 0.28759 0.96873 0.12448 0.0
C1247 C 0.26723 0.90755 0.09332 0.0
C1248 C 0.25175 0.93694 0.03134 0.0
C1249 C 0.26362 0.94143 0.00513 0.0
C1250 C 0.25629 0.937 0.06564 0.0
C1251 C 0.27296 0.941 0.07378 0.0
C1252 C 0.28521 0.9464 0.04755 0.0
C1253 C 0.28042 0.94673 0.01356 0.0
C1254 C 0.24302 0.93193 0.093 0.0
C1255 C 0.30305 0.95059 0.0547 0.0
H1256 H 0.28718 0.95686 0.18751 0.0
H1257 H 0.26918 0.90511 0.16168 0.0
H1258 H 0.29606 0.97794 0.1438 0.0
H1259 H 0.29386 0.97239 0.0992 0.0
H1260 H 0.27592 0.96953 0.123 0.0
H1261 H 0.26673 0.89615 0.10435 0.0
H1262 H 0.25449 0.90406 0.08389 0.0
H1263 H 0.27584 0.91177 0.07099 0.0
H1264 H 0.23876 0.93281 0.02487 0.0
H1265 H 0.2896 0.94991 0.99333 0.0
H1266 H 0.24786 0.9411 0.11438 0.0
H1267 H 0.23986 0.91946 0.10353 0.0
H1268 H 0.2313 0.93112 0.08306 0.0
H1269 H 0.30746 0.95653 0.0801 0.0
H1270 H 0.31185 0.95916 0.03493 0.0
H1271 H 0.30363 0.93879 0.05436 0.0
C1272 C 0.67919 0.92256 0.65975 0.0
C1273 C 0.66572 0.92216 0.67766 0.0
C1274 C 0.68037 0.92413 0.62411 0.0
C1275 C 0.66758 0.92497 0.60558 0.0
C1276 C 0.65403 0.9248 0.62343 0.0
C1277 C 0.65336 0.92359 0.65936 0.0
C1278 C 0.69517 0.92455 0.60623 0.0
C1279 C 0.64002 0.9254 0.60451 0.0
C1280 C 0.67562 0.93876 0.51211 0.0
C1281 C 0.66816 0.92319 0.49519 0.0
C1282 C 0.67559 0.93961 0.54807 0.0
C1283 C 0.66773 0.92454 0.56748 0.0
C1284 C 0.6604 0.90884 0.55054 0.0
C1285 C 0.66084 0.90836 0.5148 0.0
C1286 C 0.68383 0.95659 0.56529 0.0
C1287 C 0.65186 0.89246 0.57018 0.0
H1288 H 0.689 0.92181 0.67369 0.0
H1289 H 0.643 0.9234 0.67303 0.0
H1290 H 0.69075 0.91307 0.59041 0.0
H1291 H 0.70126 0.93553 0.58878 0.0
H1292 H 0.70476 0.92524 0.6245 0.0
H1293 H 0.63083 0.926 0.6221 0.0
H1294 H 0.64525 0.93649 0.58731 0.0
H1295 H 0.63322 0.91403 0.58825 0.0
H1296 H 0.68125 0.95028 0.49729 0.0
H1297 H 0.65497 0.89622 0.50219 0.0
H1298 H 0.69361 0.95765 0.58343 0.0
H1299 H 0.67436 0.95798 0.58036 0.0
H1300 H 0.68975 0.96712 0.54667 0.0
H1301 H 0.66103 0.89166 0.58741 0.0
H1302 H 0.64632 0.88129 0.5531 0.0
H1303 H 0.6417 0.89193 0.58642 0.0
C1304 C 0.06841 0.74419 0.51502 0.0
C1305 C 0.08147 0.74455 0.49577 0.0
C1306 C 0.06829 0.74297 0.55097 0.0
C1307 C 0.08126 0.74162 0.56785 0.0
C1308 C 0.09411 0.74139 0.54833 0.0
C1309 C 0.09416 0.74307 0.51273 0.0
C1310 C 0.05455 0.7436 0.57096 0.0
C1311 C 0.10798 0.73961 0.56507 0.0
C1312 C 0.09334 0.75747 0.65884 0.0
C1313 C 0.08493 0.74261 0.67822 0.0
C1314 C 0.09198 0.75728 0.62315 0.0
C1315 C 0.08229 0.74179 0.60595 0.0
C1316 C 0.07422 0.72664 0.62508 0.0
C1317 C 0.07549 0.72723 0.66103 0.0
C1318 C 0.10069 0.77376 0.60389 0.0
C1319 C 0.06413 0.70983 0.60759 0.0
H1320 H 0.05852 0.74521 0.50208 0.0
H1321 H 0.10413 0.74295 0.49805 0.0
H1322 H 0.04809 0.73243 0.58784 0.0
H1323 H 0.06015 0.75489 0.58764 0.0
H1324 H 0.04505 0.74405 0.55408 0.0
H1325 H 0.1162 0.73821 0.5461 0.0
H1326 H 0.11591 0.75085 0.58097 0.0
H1327 H 0.10253 0.72851 0.58228 0.0
H1328 H 0.10058 0.76948 0.67165 0.0
H1329 H 0.06887 0.71569 0.67566 0.0
H1330 H 0.09138 0.77526 0.58847 0.0
H1331 H 0.11006 0.77381 0.58591 0.0
H1332 H 0.10726 0.78478 0.62117 0.0
H1333 H 0.05343 0.70942 0.59357 0.0
H1334 H 0.05912 0.69917 0.62593 0.0
H1335 H 0.07207 0.70809 0.58849 0.0
C1336 C 0.28511 0.33943 0.50252 0.0
C1337 C 0.26851 0.32961 0.49078 0.0
C1338 C 0.28855 0.34315 0.53744 0.0
C1339 C 0.27509 0.33654 0.56115 0.0
C1340 C 0.25847 0.32553 0.54961 0.0
C1341 C 0.25535 0.32242 0.51451 0.0
C1342 C 0.3064 0.35514 0.54851 0.0
C1343 C 0.2438 0.31778 0.57415 0.0
C1344 C 0.28087 0.33704 0.65731 0.0
C1345 C 0.27682 0.34928 0.66731 0.0
C1346 C 0.28128 0.3333 0.62264 0.0
C1347 C 0.27794 0.34229 0.59741 0.0
C1348 C 0.27536 0.35569 0.60734 0.0
C1349 C 0.27459 0.35886 0.64219 0.0
C1350 C 0.28383 0.31876 0.61333 0.0
C1351 C 0.27229 0.36596 0.58121 0.0
H1352 H 0.29531 0.34525 0.48418 0.0
H1353 H 0.24251 0.31484 0.50547 0.0
H1354 H 0.30759 0.36742 0.5554 0.0
H1355 H 0.3097 0.35033 0.57152 0.0
H1356 H 0.31564 0.35731 0.528 0.0
H1357 H 0.23207 0.30801 0.56171 0.0
H1358 H 0.24669 0.312 0.59611 0.0
H1359 H 0.2415 0.32771 0.58443 0.0
H1360 H 0.2824 0.32942 0.6766 0.0
H1361 H 0.27149 0.36835 0.64981 0.0
H1362 H 0.29228 0.3219 0.59092 0.0
H1363 H 0.27152 0.30774 0.6063 0.0
H1364 H 0.28918 0.31507 0.6349 0.0
H1365 H 0.28174 0.37005 0.5604 0.0
H1366 H 0.27279 0.37727 0.59269 0.0
H1367 H 0.25969 0.35812 0.56952 0.0
C1368 C 0.94469 0.68466 0.99548 0.0
C1369 C 0.92928 0.67948 0.01199 0.0
C1370 C 0.94552 0.68353 0.95966 0.0
C1371 C 0.93055 0.67678 0.93998 0.0
C1372 C 0.91503 0.67175 0.95649 0.0
C1373 C 0.91462 0.67333 0.99204 0.0
C1374 C 0.96236 0.68941 0.94288 0.0
C1375 C 0.89873 0.66439 0.93665 0.0
C1376 C 0.92977 0.68635 0.84596 0.0
C1377 C 0.92733 0.67155 0.83016 0.0
C1378 C 0.93178 0.68855 0.88143 0.0
C1379 C 0.93093 0.67547 0.90198 0.0
C1380 C 0.92882 0.66061 0.8862 0.0
C1381 C 0.92727 0.65891 0.85035 0.0
C1382 C 0.93437 0.70475 0.89697 0.0
C1383 C 0.92754 0.64624 0.90728 0.0
H1384 H 0.95607 0.68934 0.01057 0.0
H1385 H 0.90258 0.66918 0.0043 0.0
H1386 H 0.96236 0.67871 0.92971 0.0
H1387 H 0.96468 0.69903 0.92316 0.0
H1388 H 0.97289 0.69486 0.96155 0.0
H1389 H 0.88764 0.66051 0.95346 0.0
H1390 H 0.89926 0.67375 0.91801 0.0
H1391 H 0.89686 0.65326 0.92191 0.0
H1392 H 0.93021 0.69636 0.83047 0.0
H1393 H 0.92549 0.64751 0.83827 0.0
H1394 H 0.94528 0.71007 0.91464 0.0
H1395 H 0.92312 0.7022 0.91214 0.0
H1396 H 0.93651 0.71435 0.87728 0.0
H1397 H 0.93846 0.65082 0.9248 0.0
H1398 H 0.92698 0.63601 0.89117 0.0
H1399 H 0.91604 0.64094 0.92334 0.0
C1400 C 0.32214 0.25394 1.00158 0.0
C1401 C 0.33221 0.24794 0.01566 0.0
C1402 C 0.32026 0.25437 0.96598 0.0
C1403 C 0.32872 0.24876 0.944 0.0
C1404 C 0.33874 0.24253 0.95807 0.0
C1405 C 0.34029 0.24213 0.99362 0.0
C1406 C 0.30932 0.26093 0.95185 0.0
C1407 C 0.34798 0.23644 0.93554 0.0
C1408 C 0.31299 0.23463 0.85367 0.0
C1409 C 0.32422 0.24869 0.83423 0.0
C1410 C 0.31412 0.23465 0.88939 0.0
C1411 C 0.32688 0.24901 0.90624 0.0
C1412 C 0.33829 0.26325 0.88688 0.0
C1413 C 0.33678 0.26295 0.85109 0.0
C1414 C 0.30168 0.21923 0.90909 0.0
C1415 C 0.35217 0.27873 0.90398 0.0
H1416 H 0.31589 0.2585 0.01833 0.0
H1417 H 0.34815 0.2375 0.0041 0.0
H1418 H 0.31693 0.272 0.93527 0.0
H1419 H 0.2992 0.25116 0.93573 0.0
H1420 H 0.30345 0.26465 0.97233 0.0
H1421 H 0.35541 0.23214 0.95052 0.0
H1422 H 0.33888 0.22587 0.91934 0.0
H1423 H 0.35663 0.24669 0.91815 0.0
H1424 H 0.30315 0.22358 0.84101 0.0
H1425 H 0.34548 0.27388 0.83634 0.0
H1426 H 0.2951 0.22272 0.92839 0.0
H1427 H 0.30842 0.21386 0.92308 0.0
H1428 H 0.29211 0.20933 0.89223 0.0
H1429 H 0.34676 0.28365 0.92301 0.0
H1430 H 0.35979 0.28889 0.88539 0.0
H1431 H 0.36064 0.27544 0.918 0.0
C1432 C 0.72568 0.07672 0.85361 0.0
C1433 C 0.74126 0.08355 0.83686 0.0
C1434 C 0.72467 0.07573 0.88953 0.0
C1435 C 0.73956 0.0815 0.9091 0.0
C1436 C 0.7553 0.0885 0.89235 0.0
C1437 C 0.75596 0.08956 0.85661 0.0
C1438 C 0.70768 0.06844 0.90654 0.0
C1439 C 0.77148 0.09473 0.91218 0.0
C1440 C 0.74143 0.09467 1.00162 0.0
C1441 C 0.73976 0.08062 0.01951 0.0
C1442 C 0.74091 0.09489 0.96584 0.0
C1443 C 0.73891 0.08081 0.94718 0.0
C1444 C 0.73723 0.06657 0.96493 0.0
C1445 C 0.73755 0.06659 1.00092 0.0
C1446 C 0.7426 0.11026 0.948 0.0
C1447 C 0.73531 0.05142 0.94587 0.0
H1448 H 0.71425 0.07197 0.83866 0.0
H1449 H 0.76809 0.09476 0.8441 0.0
H1450 H 0.70514 0.05724 0.92185 0.0
H1451 H 0.7076 0.07779 0.92442 0.0
H1452 H 0.69732 0.0647 0.88778 0.0
H1453 H 0.78265 0.09944 0.89525 0.0
H1454 H 0.77334 0.10504 0.92963 0.0
H1455 H 0.77077 0.08442 0.92823 0.0
H1456 H 0.74295 0.10553 0.01562 0.0
H1457 H 0.73617 0.05567 0.01446 0.0
H1458 H 0.73179 0.1066 0.93052 0.0
H1459 H 0.75419 0.11617 0.93219 0.0
H1460 H 0.7432 0.11981 0.96626 0.0
H1461 H 0.72425 0.04641 0.92864 0.0
H1462 H 0.73376 0.0412 0.96337 0.0
H1463 H 0.74655 0.05514 0.92963 0.0
C1464 C 0.00945 0.40027 0.67722 0.0
C1465 C 0.99714 0.40131 0.65793 0.0
C1466 C 0.00821 0.39899 0.71316 0.0
C1467 C 0.9941 0.39823 0.72985 0.0
C1468 C 0.98122 0.3983 0.71013 0.0
C1469 C 0.98301 0.40005 0.6746 0.0
C1470 C 0.02232 0.39921 0.73334 0.0
C1471 C 0.9658 0.39716 0.72662 0.0
C1472 C 0.98477 0.38623 0.82414 0.0
C1473 C 0.99088 0.40207 0.83945 0.0
C1474 C 0.98587 0.3847 0.7885 0.0
C1475 C 0.99356 0.39936 0.76784 0.0
C1476 C -0.00017 0.41534 0.78324 0.0
C1477 C -0.00174 0.41647 0.81859 0.0
C1478 C 0.97871 0.36742 0.7729 0.0
C1479 C 0.00823 0.43133 0.76232 0.0
H1480 H 0.02031 0.4011 0.66437 0.0
H1481 H 0.97323 0.40042 0.65972 0.0
H1482 H 0.02893 0.41107 0.74823 0.0
H1483 H 0.01726 0.38866 0.75189 0.0
H1484 H 0.03163 0.39832 0.71663 0.0
H1485 H 0.95607 0.39538 0.70754 0.0
H1486 H 0.96015 0.38657 0.74506 0.0
H1487 H 0.96942 0.40888 0.74109 0.0
H1488 H 0.97916 0.37504 0.83999 0.0
H1489 H 0.00324 0.42882 0.82999 0.0
H1490 H 0.98864 0.3665 0.75856 0.0
H1491 H 0.96868 0.36527 0.75434 0.0
H1492 H 0.97334 0.35728 0.79243 0.0
H1493 H 0.01864 0.43183 0.74696 0.0
H1494 H 0.01341 0.44281 0.77846 0.0
H1495 H -0.00096 0.43153 0.74421 0.0
C1496 C 0.56476 0.57334 0.82485 0.0
C1497 C 0.57938 0.57815 0.84423 0.0
C1498 C 0.56529 0.57439 0.78909 0.0
C1499 C 0.58078 0.58014 0.77193 0.0
C1500 C 0.59557 0.58475 0.79115 0.0
C1501 C 0.59472 0.58382 0.8271 0.0
C1502 C 0.54924 0.56945 0.76967 0.0
C1503 C 0.61227 0.59065 0.77372 0.0
C1504 C 0.57723 0.56595 0.67971 0.0
C1505 C 0.58025 0.58038 0.66142 0.0
C1506 C 0.5778 0.56588 0.7155 0.0
C1507 C 0.58121 0.58053 0.7338 0.0
C1508 C 0.58415 0.59515 0.71566 0.0
C1509 C 0.58378 0.59495 0.67965 0.0
C1510 C 0.57474 0.55008 0.73373 0.0
C1511 C 0.58755 0.61093 0.73433 0.0
H1512 H 0.55283 0.56907 0.83765 0.0
H1513 H 0.60609 0.58764 0.84177 0.0
H1514 H 0.55088 0.58005 0.75335 0.0
H1515 H 0.54626 0.55869 0.75253 0.0
H1516 H 0.53833 0.56582 0.7869 0.0
H1517 H 0.6226 0.59377 0.79224 0.0
H1518 H 0.61136 0.58074 0.75615 0.0
H1519 H 0.6156 0.60196 0.75801 0.0
H1520 H 0.57469 0.55465 0.66603 0.0
H1521 H 0.5862 0.60617 0.66582 0.0
H1522 H 0.56332 0.54521 0.7499 0.0
H1523 H 0.58546 0.55292 0.75091 0.0
H1524 H 0.57305 0.54 0.71571 0.0
H1525 H 0.57669 0.60822 0.75095 0.0
H1526 H 0.58981 0.6213 0.71656 0.0
H1527 H 0.59869 0.61526 0.75115 0.0
C1528 C 0.42008 0.99194 0.83026 0.0
C1529 C 0.41523 0.00185 0.84917 0.0
C1530 C 0.4199 0.9919 0.79445 0.0
C1531 C 0.41499 0.0022 0.77681 0.0
C1532 C 0.41042 0.01252 0.79557 0.0
C1533 C 0.4105 0.01216 0.83155 0.0
C1534 C 0.4248 0.98065 0.77548 0.0
C1535 C 0.40537 0.02388 0.77762 0.0
C1536 C 0.43048 0.01328 0.68538 0.0
C1537 C 0.41612 0.00231 0.66637 0.0
C1538 C 0.43016 0.01357 0.72117 0.0
C1539 C 0.41516 0.00246 0.7387 0.0
C1540 C 0.40065 0.99119 0.71983 0.0
C1541 C 0.40126 0.99132 0.68386 0.0
C1542 C 0.44588 0.02586 0.74025 0.0
C1543 C 0.38449 0.97898 0.73765 0.0
H1544 H 0.42367 0.98383 0.84345 0.0
H1545 H 0.40668 0.01981 0.84583 0.0
H1546 H 0.41432 0.9719 0.75866 0.0
H1547 H 0.43583 0.98834 0.75887 0.0
H1548 H 0.42799 0.97314 0.79302 0.0
H1549 H 0.40236 0.03128 0.79583 0.0
H1550 H 0.41568 0.03272 0.76056 0.0
H1551 H 0.39419 0.01627 0.76131 0.0
H1552 H 0.44202 0.02195 0.67226 0.0
H1553 H 0.39009 0.98286 0.66948 0.0
H1554 H 0.45013 0.01892 0.75692 0.0
H1555 H 0.44317 0.03395 0.75703 0.0
H1556 H 0.45636 0.03406 0.72278 0.0
H1557 H 0.3867 0.97059 0.75462 0.0
H1558 H 0.3743 0.9711 0.71936 0.0
H1559 H 0.38016 0.98594 0.75403 0.0
C1560 C 0.57762 0.97282 0.19665 0.0
C1561 C 0.59037 0.98079 0.1722 0.0
C1562 C 0.58114 0.97589 0.2317 0.0
C1563 C 0.5977 0.98764 0.2425 0.0
C1564 C 0.6108 0.99495 0.21804 0.0
C1565 C 0.60701 0.99128 0.1832 0.0
C1566 C 0.56693 0.96727 0.25706 0.0
C1567 C 0.62859 0.0076 0.22833 0.0
C1568 C 0.59761 0.00965 0.32452 0.0
C1569 C 0.60165 0.00109 0.34896 0.0
C1570 C 0.59746 0.00619 0.28953 0.0
C1571 C 0.60082 0.9934 0.2788 0.0
C1572 C 0.60575 0.98532 0.30328 0.0
C1573 C 0.60628 0.98941 0.33805 0.0
C1574 C 0.5928 0.01559 0.26419 0.0
C1575 C 0.60914 0.9714 0.29338 0.0
H1576 H 0.56476 0.9647 0.18828 0.0
H1577 H 0.61691 0.99768 0.16443 0.0
H1578 H 0.57073 0.96189 0.27837 0.0
H1579 H 0.56396 0.9766 0.26819 0.0
H1580 H 0.55533 0.95704 0.24509 0.0
H1581 H 0.63768 0.0103 0.20721 0.0
H1582 H 0.62917 0.01955 0.2358 0.0
H1583 H 0.63256 0.00306 0.25077 0.0
H1584 H 0.59398 0.01866 0.33289 0.0
H1585 H 0.60911 0.98251 0.3569 0.0
H1586 H 0.58015 0.00698 0.25348 0.0
H1587 H 0.60185 0.02022 0.24259 0.0
H1588 H 0.59259 0.02648 0.27606 0.0
H1589 H 0.597 0.95936 0.29222 0.0
H1590 H 0.61731 0.96996 0.31244 0.0
H1591 H 0.61519 0.97361 0.26792 0.0
C1592 C 0.98339 0.59111 0.32647 0.0
C1593 C 0.99273 0.58522 0.34418 0.0
C1594 C 0.98435 0.59272 0.29058 0.0
C1595 C 0.99512 0.58863 0.27208 0.0
C1596 C 0.00465 0.58283 0.28988 0.0
C1597 C 0.00322 0.58106 0.32549 0.0
C1598 C 0.97376 0.59866 0.27242 0.0
C1599 C 0.0164 0.57847 0.2713 0.0
C1600 C 0.98653 0.57511 0.17919 0.0
C1601 C -0.0018 0.58974 0.16171 0.0
C1602 C 0.9851 0.57481 0.21487 0.0
C1603 C 0.99578 0.58939 0.23395 0.0
C1604 C 0.00766 0.60422 0.21665 0.0
C1605 C 0.00863 0.60427 0.18068 0.0
C1606 C 0.97215 0.55878 0.23215 0.0
C1607 C 0.01947 0.61994 0.23618 0.0
H1608 H 0.97534 0.59446 0.34061 0.0
H1609 H 0.01069 0.57669 0.33877 0.0
H1610 H 0.98192 0.6101 0.2572 0.0
H1611 H 0.96507 0.58884 0.25431 0.0
H1612 H 0.96621 0.60157 0.29045 0.0
H1613 H 0.0236 0.57497 0.28907 0.0
H1614 H 0.00911 0.56777 0.25367 0.0
H1615 H 0.02545 0.5893 0.25558 0.0
H1616 H 0.97821 0.56384 0.16492 0.0
H1617 H 0.01761 0.61564 0.16747 0.0
H1618 H 0.9639 0.56134 0.24879 0.0
H1619 H 0.97853 0.55386 0.24872 0.0
H1620 H 0.96414 0.54883 0.21352 0.0
H1621 H 0.01219 0.62389 0.25253 0.0
H1622 H 0.02773 0.63053 0.219 0.0
H1623 H 0.02752 0.61733 0.25336 0.0
C1624 C 0.39051 0.4106 0.19674 0.0
C1625 C 0.38649 0.3977 0.17306 0.0
C1626 C 0.38965 0.40744 0.232 0.0
C1627 C 0.38526 0.39114 0.24378 0.0
C1628 C 0.38029 0.37786 0.21999 0.0
C1629 C 0.38073 0.38127 0.18488 0.0
C1630 C 0.39445 0.42183 0.25656 0.0
C1631 C 0.37581 0.36039 0.23136 0.0
C1632 C 0.40719 0.39348 0.32737 0.0
C1633 C 0.39432 0.38943 0.35113 0.0
C1634 C 0.40405 0.39284 0.29215 0.0
C1635 C 0.38777 0.38862 0.28048 0.0
C1636 C 0.37451 0.38366 0.30434 0.0
C1637 C 0.37791 0.38393 0.33943 0.0
C1638 C 0.41842 0.39766 0.26752 0.0
C1639 C 0.35707 0.37941 0.29319 0.0
H1640 H 0.39496 0.4233 0.18765 0.0
H1641 H 0.37786 0.3713 0.16662 0.0
H1642 H 0.38513 0.41791 0.27759 0.0
H1643 H 0.40685 0.42551 0.2682 0.0
H1644 H 0.39532 0.43303 0.24372 0.0
H1645 H 0.37022 0.35106 0.21034 0.0
H1646 H 0.38736 0.36054 0.2404 0.0
H1647 H 0.36684 0.35619 0.25304 0.0
H1648 H 0.41987 0.39776 0.3364 0.0
H1649 H 0.36798 0.38108 0.35776 0.0
H1650 H 0.42214 0.41009 0.25601 0.0
H1651 H 0.41447 0.38838 0.24641 0.0
H1652 H 0.42962 0.39846 0.28026 0.0
H1653 H 0.35714 0.3912 0.28657 0.0
H1654 H 0.34761 0.3729 0.31368 0.0
H1655 H 0.35309 0.37134 0.27008 0.0
C1656 C 0.3481 0.19102 0.11777 0.0
C1657 C 0.34582 0.20104 0.14176 0.0
C1658 C 0.34392 0.17447 0.12559 0.0
C1659 C 0.33784 0.168 0.15859 0.0
C1660 C 0.33599 0.17825 0.18329 0.0
C1661 C 0.33973 0.19459 0.17436 0.0
C1662 C 0.34555 0.16377 0.09822 0.0
C1663 C 0.32998 0.17193 0.21905 0.0
C1664 C 0.31103 0.12084 0.17147 0.0
C1665 C 0.32292 0.1167 0.18324 0.0
C1666 C 0.31581 0.13744 0.16259 0.0
C1667 C 0.33278 0.15027 0.16679 0.0
C1668 C 0.34485 0.14615 0.17874 0.0
C1669 C 0.33981 0.12931 0.18628 0.0
C1670 C 0.30268 0.14123 0.14883 0.0
C1671 C 0.36296 0.15956 0.18443 0.0
H1672 H 0.35266 0.19595 0.0924 0.0
H1673 H 0.33807 0.20239 0.19297 0.0
H1674 H 0.35404 0.15918 0.10695 0.0
H1675 H 0.33307 0.15253 0.09323 0.0
H1676 H 0.35052 0.17073 0.07386 0.0
H1677 H 0.33042 0.18188 0.23589 0.0
H1678 H 0.31685 0.16128 0.21825 0.0
H1679 H 0.33784 0.16715 0.23053 0.0
H1680 H 0.29797 0.11104 0.16903 0.0
H1681 H 0.34895 0.12611 0.19582 0.0
H1682 H 0.30684 0.14781 0.12389 0.0
H1683 H 0.3011 0.14977 0.16655 0.0
H1684 H 0.29025 0.12967 0.14533 0.0
H1685 H 0.36858 0.16633 0.16022 0.0
H1686 H 0.37072 0.15429 0.19426 0.0
H1687 H 0.36355 0.16899 0.20299 0.0
C1688 C 0.78842 0.14961 0.16597 0.0
C1689 C 0.78613 0.13369 0.15829 0.0
C1690 C 0.80418 0.16282 0.17618 0.0
C1691 C 0.8181 0.16017 0.17757 0.0
C1692 C 0.81586 0.1441 0.16964 0.0
C1693 C 0.7998 0.13095 0.16063 0.0
C1694 C 0.80593 0.17958 0.18555 0.0
C1695 C 0.83049 0.14092 0.16998 0.0
C1696 C 0.86169 0.199 0.17285 0.0
C1697 C 0.86699 0.20055 0.20685 0.0
C1698 C 0.84587 0.18574 0.1628 0.0
C1699 C 0.83496 0.17417 0.18763 0.0
C1700 C 0.84013 0.17601 0.22218 0.0
C1701 C 0.85621 0.18901 0.23125 0.0
C1702 C 0.84097 0.18391 0.12556 0.0
C1703 C 0.82867 0.16429 0.24958 0.0
H1704 H 0.7778 0.15169 0.1643 0.0
H1705 H 0.79805 0.11868 0.15429 0.0
H1706 H 0.81118 0.18324 0.21171 0.0
H1707 H 0.81485 0.18948 0.16788 0.0
H1708 H 0.79371 0.17935 0.18454 0.0
H1709 H 0.82672 0.12786 0.1622 0.0
H1710 H 0.84047 0.14982 0.15239 0.0
H1711 H 0.83606 0.14318 0.19592 0.0
H1712 H 0.87011 0.20784 0.15395 0.0
H1713 H 0.86029 0.1903 0.25763 0.0
H1714 H 0.82942 0.18479 0.12237 0.0
H1715 H 0.83805 0.17132 0.11619 0.0
H1716 H 0.85107 0.19368 0.10935 0.0
H1717 H 0.81655 0.16426 0.24954 0.0
H1718 H 0.83433 0.16791 0.27547 0.0
H1719 H 0.82576 0.15124 0.24429 0.0
C1720 C 0.80979 0.68633 0.18803 0.0
C1721 C 0.79434 0.67151 0.19271 0.0
C1722 C 0.82417 0.68579 0.17805 0.0
C1723 C 0.82319 0.67002 0.17372 0.0
C1724 C 0.80766 0.65498 0.17896 0.0
C1725 C 0.79331 0.65591 0.18787 0.0
C1726 C 0.84034 0.70209 0.17162 0.0
C1727 C 0.80625 0.63794 0.17541 0.0
C1728 C 0.85536 0.66743 0.11721 0.0
C1729 C 0.86715 0.66839 0.14119 0.0
C1730 C 0.84111 0.66816 0.12745 0.0
C1731 C 0.83832 0.66933 0.16264 0.0
C1732 C 0.85014 0.67018 0.18703 0.0
C1733 C 0.86461 0.66998 0.17593 0.0
C1734 C 0.8291 0.66778 0.10058 0.0
C1735 C 0.84736 0.67101 0.22482 0.0
H1736 H 0.81056 0.69842 0.19154 0.0
H1737 H 0.78138 0.64445 0.1918 0.0
H1738 H 0.85039 0.70308 0.18887 0.0
H1739 H 0.84465 0.70233 0.14502 0.0
H1740 H 0.8389 0.71329 0.17558 0.0
H1741 H 0.79349 0.6275 0.1821 0.0
H1742 H 0.80912 0.6361 0.14877 0.0
H1743 H 0.81561 0.6372 0.19219 0.0
H1744 H 0.85739 0.66628 0.09029 0.0
H1745 H 0.87365 0.67053 0.19447 0.0
H1746 H 0.8277 0.67906 0.10308 0.0
H1747 H 0.81646 0.65659 0.10432 0.0
H1748 H 0.83342 0.66742 0.07424 0.0
H1749 H 0.84682 0.68255 0.23074 0.0
H1750 H 0.85746 0.67103 0.24051 0.0
H1751 H 0.8351 0.66009 0.23247 0.0
C1752 C 0.12979 0.30705 0.32101 0.0
C1753 C 0.12784 0.32113 0.31659 0.0
C1754 C 0.14506 0.30881 0.33253 0.0
C1755 C 0.15887 0.3251 0.33865 0.0
C1756 C 0.15697 0.33939 0.33412 0.0
C1757 C 0.14135 0.33721 0.32366 0.0
C1758 C 0.1464 0.29325 0.33817 0.0
C1759 C 0.17154 0.35698 0.33957 0.0
C1760 C 0.19488 0.33058 0.39516 0.0
C1761 C 0.20656 0.33145 0.371 0.0
C1762 C 0.17916 0.32816 0.38501 0.0
C1763 C 0.17529 0.32716 0.34979 0.0
C1764 C 0.18708 0.32809 0.32526 0.0
C1765 C 0.2025 0.32995 0.33622 0.0
C1766 C 0.16671 0.32667 0.41197 0.0
C1767 C 0.18356 0.3275 0.28745 0.0
H1768 H 0.11928 0.2946 0.31575 0.0
H1769 H 0.13987 0.3481 0.31991 0.0
H1770 H 0.15596 0.29333 0.32068 0.0
H1771 H 0.15065 0.29311 0.36466 0.0
H1772 H 0.13425 0.28148 0.33381 0.0
H1773 H 0.16808 0.36676 0.33422 0.0
H1774 H 0.17609 0.35849 0.36629 0.0
H1775 H 0.18217 0.3592 0.3227 0.0
H1776 H 0.19799 0.33165 0.4221 0.0
H1777 H 0.21162 0.33081 0.31753 0.0
H1778 H 0.15461 0.31476 0.40847 0.0
H1779 H 0.16405 0.33715 0.40935 0.0
H1780 H 0.17138 0.32691 0.43828 0.0
H1781 H 0.17214 0.31545 0.28084 0.0
H1782 H 0.19421 0.32878 0.27169 0.0
H1783 H 0.18106 0.33778 0.28056 0.0
C1784 C 0.65663 0.86094 0.3284 0.0
C1785 C 0.65437 0.863 0.36306 0.0
C1786 C 0.65777 0.847 0.31719 0.0
C1787 C 0.65725 0.83527 0.34144 0.0
C1788 C 0.65533 0.83755 0.37656 0.0
C1789 C 0.6536 0.85123 0.38686 0.0
C1790 C 0.65933 0.8447 0.27944 0.0
C1791 C 0.65535 0.8257 0.40333 0.0
C1792 C 0.64695 0.79124 0.31508 0.0
C1793 C 0.66306 0.79342 0.31084 0.0
C1794 C 0.64483 0.80489 0.32416 0.0
C1795 C 0.6592 0.82085 0.33031 0.0
C1796 C 0.67549 0.82297 0.32671 0.0
C1797 C 0.67722 0.80929 0.31642 0.0
C1798 C 0.62727 0.80228 0.32683 0.0
C1799 C 0.69111 0.83961 0.33421 0.0
H1800 H 0.65707 0.86999 0.31001 0.0
H1801 H 0.65197 0.85293 0.41373 0.0
H1802 H 0.67145 0.84523 0.27409 0.0
H1803 H 0.64912 0.83212 0.2712 0.0
H1804 H 0.65867 0.85447 0.26381 0.0
H1805 H 0.6542 0.82954 0.42965 0.0
H1806 H 0.64478 0.81277 0.39876 0.0
H1807 H 0.66718 0.82522 0.4016 0.0
H1808 H 0.63602 0.77899 0.31041 0.0
H1809 H 0.6897 0.81092 0.31336 0.0
H1810 H 0.62606 0.81137 0.31005 0.0
H1811 H 0.62481 0.8047 0.35336 0.0
H1812 H 0.61748 0.78932 0.31954 0.0
H1813 H 0.69172 0.8495 0.31696 0.0
H1814 H 0.70283 0.83902 0.33104 0.0
H1815 H 0.69062 0.84357 0.36077 0.0
C1816 C 0.15694 0.79228 0.36128 0.0
C1817 C 0.14144 0.79183 0.36086 0.0
C1818 C 0.17163 0.80636 0.34929 0.0
C1819 C 0.17086 0.82051 0.33735 0.0
C1820 C 0.15527 0.82023 0.33727 0.0
C1821 C 0.14067 0.80577 0.34863 0.0
C1822 C 0.18792 0.80601 0.34895 0.0
C1823 C 0.15404 0.83522 0.32532 0.0
C1824 C 0.21129 0.86284 0.33399 0.0
C1825 C 0.21462 0.86466 0.29885 0.0
C1826 C 0.19711 0.84847 0.34698 0.0
C1827 C 0.18632 0.83549 0.32431 0.0
C1828 C 0.1901 0.83695 0.28899 0.0
C1829 C 0.20409 0.85163 0.27663 0.0
C1830 C 0.19331 0.84748 0.38471 0.0
C1831 C 0.17918 0.82317 0.26415 0.0
H1832 H 0.15756 0.78145 0.37047 0.0
H1833 H 0.12872 0.80548 0.34848 0.0
H1834 H 0.19291 0.80793 0.3225 0.0
H1835 H 0.19751 0.81645 0.36472 0.0
H1836 H 0.18633 0.79395 0.3588 0.0
H1837 H 0.14113 0.83324 0.32821 0.0
H1838 H 0.16289 0.84657 0.34007 0.0
H1839 H 0.15773 0.83783 0.29805 0.0
H1840 H 0.2193 0.873 0.35115 0.0
H1841 H 0.20669 0.853 0.24944 0.0
H1842 H 0.19219 0.83583 0.39575 0.0
H1843 H 0.18104 0.84689 0.38862 0.0
H1844 H 0.20316 0.85847 0.399 0.0
H1845 H 0.1776 0.81096 0.27286 0.0
H1846 H 0.18452 0.82576 0.23792 0.0
H1847 H 0.16646 0.82179 0.26312 0.0
C1848 C 0.6854 0.86884 0.81679 0.0
C1849 C 0.6712 0.87035 0.81017 0.0
C1850 C 0.68372 0.85352 0.82758 0.0
C1851 C 0.66746 0.83925 0.83066 0.0
C1852 C 0.65306 0.84065 0.82347 0.0
C1853 C 0.65511 0.85631 0.81387 0.0
C1854 C 0.69933 0.85268 0.83616 0.0
C1855 C 0.63554 0.82558 0.82562 0.0
C1856 C 0.66467 0.79652 0.83027 0.0
C1857 C 0.66182 0.79219 0.86489 0.0
C1858 C 0.66625 0.81172 0.81859 0.0
C1859 C 0.66553 0.82299 0.84235 0.0
C1860 C 0.66315 0.81882 0.87749 0.0
C1861 C 0.66103 0.80332 0.88824 0.0
C1862 C 0.66832 0.81556 0.78081 0.0
C1863 C 0.6629 0.83076 0.90376 0.0
H1864 H 0.69785 0.87977 0.81413 0.0
H1865 H 0.64416 0.85749 0.8084 0.0
H1866 H 0.69862 0.84837 0.86292 0.0
H1867 H 0.70021 0.84339 0.81946 0.0
H1868 H 0.71103 0.86504 0.83314 0.0
H1869 H 0.62575 0.8286 0.8175 0.0
H1870 H 0.63462 0.81528 0.80925 0.0
H1871 H 0.63282 0.82077 0.8522 0.0
H1872 H 0.6651 0.78778 0.81222 0.0
H1873 H 0.65892 0.79997 0.91508 0.0
H1874 H 0.68037 0.82732 0.77595 0.0
H1875 H 0.65805 0.81762 0.77162 0.0
H1876 H 0.66816 0.80525 0.76562 0.0
H1877 H 0.67465 0.84313 0.90202 0.0
H1878 H 0.66166 0.8259 0.93023 0.0
H1879 H 0.65225 0.83293 0.89864 0.0
C1880 C 0.14264 0.8121 0.80199 0.0
C1881 C 0.12857 0.8011 0.82137 0.0
C1882 C 0.15638 0.82602 0.81714 0.0
C1883 C 0.15567 0.82939 0.85221 0.0
C1884 C 0.1414 0.81833 0.87188 0.0
C1885 C 0.12811 0.80408 0.8563 0.0
C1886 C 0.17163 0.83713 0.79558 0.0
C1887 C 0.13997 0.82182 0.90905 0.0
C1888 C 0.1971 0.8574 0.89695 0.0
C1889 C 0.1987 0.87333 0.89314 0.0
C1890 C 0.18306 0.84296 0.88411 0.0
C1891 C 0.17001 0.84442 0.86816 0.0
C1892 C 0.17122 0.8604 0.86558 0.0
C1893 C 0.18575 0.87476 0.87751 0.0
C1894 C 0.18255 0.82628 0.88625 0.0
C1895 C 0.15729 0.86235 0.84973 0.0
H1896 H 0.14293 0.80971 0.77493 0.0
H1897 H 0.11705 0.79565 0.87106 0.0
H1898 H 0.17335 0.84996 0.79391 0.0
H1899 H 0.18312 0.83831 0.80764 0.0
H1900 H 0.17056 0.83217 0.76925 0.0
H1901 H 0.12792 0.81212 0.9206 0.0
H1902 H 0.15052 0.82233 0.92384 0.0
H1903 H 0.14088 0.83429 0.91162 0.0
H1904 H 0.20722 0.85632 0.90872 0.0
H1905 H 0.18697 0.88707 0.87476 0.0
H1906 H 0.18236 0.8215 0.8601 0.0
H1907 H 0.1709 0.81681 0.89928 0.0
H1908 H 0.19355 0.82724 0.90017 0.0
H1909 H 0.15644 0.85951 0.82202 0.0
H1910 H 0.15936 0.87528 0.85295 0.0
H1911 H 0.145 0.85327 0.86134 0.0
C1912 C 0.13994 0.3377 0.84078 0.0
C1913 C 0.14115 0.35223 0.85518 0.0
C1914 C 0.15425 0.33785 0.82761 0.0
C1915 C 0.16998 0.353 0.82808 0.0
C1916 C 0.17117 0.36778 0.84198 0.0
C1917 C 0.15677 0.36715 0.85577 0.0
C1918 C 0.15258 0.32176 0.81358 0.0
C1919 C 0.18761 0.38426 0.8421 0.0
C1920 C 0.2097 0.35005 0.82132 0.0
C1921 C 0.21282 0.35209 0.78612 0.0
C1922 C 0.19584 0.35045 0.83543 0.0
C1923 C 0.18518 0.3534 0.81388 0.0
C1924 C 0.1888 0.35631 0.77858 0.0
C1925 C 0.20246 0.35538 0.76503 0.0
C1926 C 0.1922 0.347 0.8731 0.0
C1927 C 0.17801 0.35998 0.75497 0.0
H1928 H 0.12789 0.32614 0.84051 0.0
H1929 H 0.15771 0.37845 0.86665 0.0
H1930 H 0.15621 0.32341 0.78623 0.0
H1931 H 0.16127 0.31866 0.82732 0.0
H1932 H 0.13956 0.31095 0.81598 0.0
H1933 H 0.18629 0.39471 0.85304 0.0
H1934 H 0.19716 0.383 0.85717 0.0
H1935 H 0.19251 0.38768 0.81565 0.0
H1936 H 0.21759 0.3473 0.83758 0.0
H1937 H 0.20491 0.35701 0.7378 0.0
H1938 H 0.17981 0.33542 0.87664 0.0
H1939 H 0.19142 0.35747 0.88541 0.0
H1940 H 0.20195 0.34533 0.88648 0.0
H1941 H 0.16519 0.34883 0.75345 0.0
H1942 H 0.18329 0.36323 0.72873 0.0
H1943 H 0.17671 0.37056 0.76514 0.0
C1944 C 0.87138 0.6881 0.69213 0.0
C1945 C 0.87299 0.67391 0.69813 0.0
C1946 C 0.85615 0.68644 0.68068 0.0
C1947 C 0.84205 0.67017 0.67618 0.0
C1948 C 0.8435 0.65577 0.68291 0.0
C1949 C 0.85908 0.65782 0.69328 0.0
C1950 C 0.85527 0.70209 0.67272 0.0
C1951 C 0.8286 0.63823 0.67921 0.0
C1952 C 0.79914 0.66704 0.67316 0.0
C1953 C 0.79564 0.66489 0.63813 0.0
C1954 C 0.81409 0.66846 0.68607 0.0
C1955 C 0.82597 0.66828 0.66319 0.0
C1956 C 0.82263 0.66655 0.62768 0.0
C1957 C 0.80737 0.6646 0.61565 0.0
C1958 C 0.81705 0.66985 0.72417 0.0
C1959 C 0.8352 0.66686 0.60236 0.0
H1960 H 0.88219 0.70056 0.69563 0.0
H1961 H 0.8603 0.64685 0.69822 0.0
H1962 H 0.85166 0.70188 0.64559 0.0
H1963 H 0.84545 0.70245 0.68859 0.0
H1964 H 0.86744 0.7138 0.67733 0.0
H1965 H 0.83156 0.62841 0.68743 0.0
H1966 H 0.81788 0.63697 0.69464 0.0
H1967 H 0.82441 0.63587 0.65219 0.0
H1968 H 0.78997 0.66707 0.69055 0.0
H1969 H 0.80468 0.66304 0.58849 0.0
H1970 H 0.82861 0.68186 0.73038 0.0
H1971 H 0.81904 0.6595 0.73313 0.0
H1972 H 0.80634 0.66929 0.73855 0.0
H1973 H 0.84746 0.67865 0.60535 0.0
H1974 H 0.83092 0.66599 0.57551 0.0
H1975 H 0.83741 0.65623 0.60737 0.0
C1976 C 0.29889 0.18115 0.6837 0.0
C1977 C 0.31269 0.19692 0.6917 0.0
C1978 C 0.30123 0.1681 0.67155 0.0
C1979 C 0.31776 0.17077 0.66844 0.0
C1980 C 0.33175 0.18668 0.6766 0.0
C1981 C 0.32904 0.19969 0.68764 0.0
C1982 C 0.28603 0.15149 0.66203 0.0
C1983 C 0.34953 0.18985 0.67437 0.0
C1984 C 0.32226 0.13181 0.66791 0.0
C1985 C 0.32531 0.13065 0.63326 0.0
C1986 C 0.32006 0.14501 0.67988 0.0
C1987 C 0.32038 0.15692 0.65638 0.0
C1988 C 0.32305 0.15552 0.62123 0.0
C1989 C 0.32575 0.14254 0.61018 0.0
C1990 C 0.31766 0.14637 0.71766 0.0
C1991 C 0.32295 0.16765 0.59527 0.0
H1992 H 0.28624 0.17906 0.68669 0.0
H1993 H 0.33969 0.21185 0.69421 0.0
H1994 H 0.2872 0.1482 0.63528 0.0
H1995 H 0.2853 0.14133 0.67859 0.0
H1996 H 0.27409 0.15172 0.66456 0.0
H1997 H 0.35899 0.20281 0.68241 0.0
H1998 H 0.35088 0.18073 0.6908 0.0
H1999 H 0.35238 0.18788 0.6478 0.0
H2000 H 0.32208 0.12269 0.68576 0.0
H2001 H 0.32798 0.14155 0.58331 0.0
H2002 H 0.3053 0.14544 0.72237 0.0
H2003 H 0.3275 0.15884 0.72724 0.0
H2004 H 0.31826 0.1364 0.73265 0.0
H2005 H 0.31088 0.16767 0.59673 0.0
H2006 H 0.32463 0.16444 0.56875 0.0
H2007 H 0.33317 0.18062 0.60097 0.0
C2008 C 0.85894 0.19497 0.62093 0.0
C2009 C 0.87036 0.20623 0.64488 0.0
C2010 C 0.84532 0.17951 0.63124 0.0
C2011 C 0.84275 0.17556 0.66646 0.0
C2012 C 0.8543 0.18691 0.69077 0.0
C2013 C 0.86819 0.20203 0.67958 0.0
C2014 C 0.83365 0.16747 0.60448 0.0
C2015 C 0.8517 0.18331 0.7286 0.0
C2016 C 0.7983 0.14343 0.69375 0.0
C2017 C 0.79997 0.12933 0.70015 0.0
C2018 C 0.81223 0.15868 0.68323 0.0
C2019 C 0.82793 0.15957 0.67783 0.0
C2020 C 0.82946 0.14515 0.6832 0.0
C2021 C 0.81552 0.13028 0.69494 0.0
C2022 C 0.81025 0.17394 0.67865 0.0
C2023 C 0.8458 0.14541 0.67649 0.0
H2024 H 0.86072 0.19825 0.59404 0.0
H2025 H 0.87695 0.21088 0.69806 0.0
H2026 H 0.83259 0.15496 0.60767 0.0
H2027 H 0.82086 0.1657 0.60764 0.0
H2028 H 0.83804 0.17201 0.5781 0.0
H2029 H 0.86169 0.19356 0.74417 0.0
H2030 H 0.83932 0.18163 0.73637 0.0
H2031 H 0.85153 0.17141 0.73456 0.0
H2032 H 0.78628 0.14268 0.69814 0.0
H2033 H 0.81672 0.11928 0.6997 0.0
H2034 H 0.81314 0.17848 0.65191 0.0
H2035 H 0.81933 0.18431 0.69531 0.0
H2036 H 0.79733 0.17127 0.68488 0.0
H2037 H 0.85003 0.1496 0.64991 0.0
H2038 H 0.84463 0.13287 0.68029 0.0
H2039 H 0.85576 0.15454 0.69377 0.0
C2040 C 0.99523 0.46923 0.55442 0.0
C2041 C 0.99606 0.45846 0.53016 0.0
C2042 C 0.99687 0.48468 0.54467 0.0
C2043 C -0.00125 0.48911 0.50967 0.0
C2044 C -0.00038 0.47825 0.48504 0.0
C2045 C -0.00143 0.46314 0.49571 0.0
C2046 C 0.99652 0.4962 0.57181 0.0
C2047 C 0.00115 0.48236 0.4474 0.0
C2048 C 0.98603 0.52105 0.48316 0.0
C2049 C 0.00175 0.53545 0.47827 0.0
C2050 C 0.98485 0.50575 0.4928 0.0
C2051 C -0.00025 0.50511 0.49887 0.0
C2052 C 0.01565 0.5198 0.49491 0.0
C2053 C 0.01645 0.53473 0.48402 0.0
C2054 C 0.96769 0.49022 0.49587 0.0
C2055 C 0.03179 0.51979 0.50236 0.0
H2056 H 0.99335 0.46558 0.58111 0.0
H2057 H -0.00101 0.45466 0.47697 0.0
H2058 H 0.00786 0.50887 0.56963 0.0
H2059 H 0.98539 0.49774 0.5681 0.0
H2060 H 0.99603 0.49133 0.59803 0.0
H2061 H 0.00138 0.47245 0.43152 0.0
H2062 H 0.99041 0.48386 0.43913 0.0
H2063 H 0.01282 0.49448 0.44242 0.0
H2064 H 0.97469 0.52163 0.47837 0.0
H2065 H 0.02861 0.54595 0.48045 0.0
H2066 H 0.96564 0.48531 0.52238 0.0
H2067 H 0.96693 0.48018 0.47888 0.0
H2068 H 0.95738 0.49271 0.48906 0.0
H2069 H 0.03153 0.51532 0.52883 0.0
H2070 H 0.04308 0.53247 0.49943 0.0
H2071 H 0.03306 0.51097 0.4849 0.0
C2072 C 0.52192 0.52692 0.51358 0.0
C2073 C 0.53557 0.52473 0.5216 0.0
C2074 C 0.50652 0.51323 0.50293 0.0
C2075 C 0.50498 0.49716 0.49931 0.0
C2076 C 0.51892 0.49503 0.50643 0.0
C2077 C 0.53398 0.50881 0.51799 0.0
C2078 C 0.4918 0.51589 0.49626 0.0
C2079 C 0.51793 0.47822 0.50187 0.0
C2080 C 0.46156 0.4581 0.50167 0.0
C2081 C 0.45776 0.45521 0.46682 0.0
C2082 C 0.47686 0.47182 0.51266 0.0
C2083 C 0.48877 0.48253 0.48812 0.0
C2084 C 0.48519 0.47929 0.45288 0.0
C2085 C 0.46961 0.46581 0.44266 0.0
C2086 C 0.4801 0.4751 0.55047 0.0
C2087 C 0.49778 0.49011 0.42597 0.0
H2088 H 0.52312 0.53922 0.51665 0.0
H2089 H 0.54459 0.50714 0.52396 0.0
H2090 H 0.48748 0.51253 0.46947 0.0
H2091 H 0.48109 0.50749 0.51302 0.0
H2092 H 0.49499 0.5291 0.50086 0.0
H2093 H 0.53015 0.47887 0.50706 0.0
H2094 H 0.50831 0.46879 0.51932 0.0
H2095 H 0.51397 0.4736 0.4754 0.0
H2096 H 0.45232 0.45001 0.52035 0.0
H2097 H 0.4667 0.46351 0.41567 0.0
H2098 H 0.48226 0.48783 0.55667 0.0
H2099 H 0.49164 0.47484 0.55778 0.0
H2100 H 0.46945 0.46571 0.56621 0.0
H2101 H 0.50019 0.50319 0.42774 0.0
H2102 H 0.49337 0.48537 0.39969 0.0
H2103 H 0.50996 0.49057 0.43033 0.0
C2104 C 0.52741 0.00347 0.4435 0.0
C2105 C 0.5384 0.00257 0.46717 0.0
C2106 C 0.51423 0.00594 0.45426 0.0
C2107 C 0.51172 0.00706 0.48961 0.0
C2108 C 0.5228 0.00618 0.51365 0.0
C2109 C 0.53619 0.00419 0.50208 0.0
C2110 C 0.50298 0.0073 0.42782 0.0
C2111 C 0.52029 0.00696 0.55159 0.0
C2112 C 0.48667 0.02729 0.51959 0.0
C2113 C 0.4707 0.01322 0.52489 0.0
C2114 C 0.50004 0.02548 0.5074 0.0
C2115 C 0.49749 0.00916 0.50141 0.0
C2116 C 0.48137 0.99489 0.50676 0.0
C2117 C 0.46807 0.99711 0.51796 0.0
C2118 C 0.51689 0.04102 0.50099 0.0
C2119 C 0.47828 0.97727 0.50138 0.0
H2120 H 0.52916 0.00229 0.41646 0.0
H2121 H 0.54458 0.00331 0.52042 0.0
H2122 H 0.48987 0.99683 0.43103 0.0
H2123 H 0.50283 0.01922 0.43137 0.0
H2124 H 0.5071 0.00692 0.40131 0.0
H2125 H 0.52985 0.0058 0.56692 0.0
H2126 H 0.52093 0.01902 0.55818 0.0
H2127 H 0.5076 0.99668 0.55904 0.0
H2128 H 0.48867 0.03977 0.52475 0.0
H2129 H 0.45575 0.98623 0.52237 0.0
H2130 H 0.52095 0.04102 0.47429 0.0
H2131 H 0.52655 0.04102 0.518 0.0
H2132 H 0.51656 0.05281 0.50541 0.0
H2133 H 0.48108 0.97566 0.47455 0.0
H2134 H 0.46509 0.96751 0.50722 0.0
H2135 H 0.48686 0.97513 0.51792 0.0
C2136 C 0.46843 -0.00101 1.00127 0.0
C2137 C 0.45453 0.98384 0.9906 0.0
C2138 C 0.48304 -0.0006 0.01342 0.0
C2139 C 0.4835 0.98422 0.01587 0.0
C2140 C 0.46929 0.96883 0.00598 0.0
C2141 C 0.45507 0.96887 0.99297 0.0
C2142 C 0.4981 0.01609 0.02301 0.0
C2143 C 0.46909 0.95233 0.00915 0.0
C2144 C 0.52572 0.98588 0.01822 0.0
C2145 C 0.52818 0.98537 0.05341 0.0
C2146 C 0.51127 0.98564 0.00561 0.0
C2147 C 0.49883 0.98439 0.02877 0.0
C2148 C 0.50102 0.98331 0.06428 0.0
C2149 C 0.5158 0.98405 0.0762 0.0
C2150 C 0.50953 0.98718 0.96761 0.0
C2151 C 0.48783 0.98148 0.0897 0.0
H2152 H 0.46806 0.01058 0.99916 0.0
H2153 H 0.44426 0.95712 0.98495 0.0
H2154 H 0.50138 0.01595 0.05023 0.0
H2155 H 0.50917 0.0183 0.00757 0.0
H2156 H 0.49583 0.02678 0.01897 0.0
H2157 H 0.45677 0.94141 1.00167 0.0
H2158 H 0.47903 0.9525 0.99277 0.0
H2159 H 0.47188 0.9505 0.03588 0.0
H2160 H 0.53539 0.98711 1.0006 0.0
H2161 H 0.51767 0.98361 0.10345 0.0
H2162 H 0.50839 0.99844 0.96221 0.0
H2163 H 0.49788 0.97607 0.95809 0.0
H2164 H 0.52042 0.98825 0.95308 0.0
H2165 H 0.48629 0.99271 0.08866 0.0
H2166 H 0.49111 0.97998 0.1163 0.0
H2167 H 0.47549 0.9704 0.0831 0.0
C2168 C 0.00469 0.53467 0.01799 0.0
C2169 C 0.98897 0.5332 0.02403 0.0
C2170 C 0.00589 0.52067 0.00756 0.0
C2171 C 0.991 0.50505 1.00199 0.0
C2172 C 0.9751 0.50366 0.00728 0.0
C2173 C 0.97429 0.51769 0.0188 0.0
C2174 C 0.02308 0.52251 1.003 0.0
C2175 C 0.95895 0.48739 1.00052 0.0
C2176 C 0.99491 0.47411 0.94399 0.0
C2177 C 0.99469 0.4625 0.96754 0.0
C2178 C 0.9933 0.48779 0.95481 0.0
C2179 C 0.99203 0.49021 0.99014 0.0
C2180 C 0.99176 0.47848 0.01407 0.0
C2181 C 0.99281 0.46457 1.00239 0.0
C2182 C 0.99306 0.49969 0.92844 0.0
C2183 C 0.99083 0.48089 0.052 0.0
H2184 H 0.01603 0.54665 0.02236 0.0
H2185 H 0.96212 0.5166 0.02325 0.0
H2186 H 0.02422 0.51324 0.01931 0.0
H2187 H 0.02476 0.51981 0.97614 0.0
H2188 H 0.03339 0.53534 0.00963 0.0
H2189 H 0.94762 0.48858 0.00484 0.0
H2190 H 0.95877 0.48332 0.97375 0.0
H2191 H 0.95816 0.4773 0.01736 0.0
H2192 H 0.9963 0.47244 0.91699 0.0
H2193 H 0.99285 0.45568 0.02059 0.0
H2194 H 0.00414 0.51242 0.93193 0.0
H2195 H 0.98165 0.50082 0.93179 0.0
H2196 H 0.99321 0.49547 0.90191 0.0
H2197 H 0.00165 0.49316 0.05996 0.0
H2198 H 0.99097 0.47074 0.06723 0.0
H2199 H 0.9792 0.48121 0.05819 0.0
C2200 C 0.45392 0.4615 0.01561 0.0
C2201 C 0.45131 0.4596 0.05096 0.0
C2202 C 0.46755 0.47611 1.00193 0.0
C2203 C 0.47847 0.48926 0.02414 0.0
C2204 C 0.47546 0.48764 0.05978 0.0
C2205 C 0.46205 0.4727 0.0728 0.0
C2206 C 0.47059 0.47725 0.96386 0.0
C2207 C 0.4865 0.5016 0.08417 0.0
C2208 C 0.52299 0.52058 0.99563 0.0
C2209 C 0.52105 0.53391 0.98383 0.0
C2210 C 0.50915 0.50582 0.00833 0.0
C2211 C 0.49318 0.50466 0.0102 0.0
C2212 C 0.49128 0.51827 0.99899 0.0
C2213 C 0.50519 0.53263 0.98546 0.0
C2214 C 0.51157 0.4914 0.01934 0.0
C2215 C 0.47458 0.51772 1.00153 0.0
H2216 H 0.44572 0.45127 0.99877 0.0
H2217 H 0.45998 0.47124 0.10016 0.0
H2218 H 0.47062 0.48848 0.95334 0.0
H2219 H 0.48316 0.47875 0.95859 0.0
H2220 H 0.46093 0.46592 0.95012 0.0
H2221 H 0.48181 0.49875 0.11089 0.0
H2222 H 0.49949 0.50369 0.08356 0.0
H2223 H 0.48719 0.51354 0.07622 0.0
H2224 H 0.53524 0.52152 0.99413 0.0
H2225 H 0.50371 0.54302 0.9766 0.0
H2226 H 0.50286 0.47986 0.00492 0.0
H2227 H 0.50847 0.48866 0.04682 0.0
H2228 H 0.52466 0.49409 0.01519 0.0
H2229 H 0.46498 0.50716 0.98602 0.0
H2230 H 0.47535 0.52958 0.99264 0.0
H2231 H 0.47011 0.51541 0.02839 0.0
C2232 C 0.37651 0.02852 0.01679 0.0
C2233 C 0.39209 0.02911 0.01803 0.0
C2234 C 0.37117 0.03495 0.04353 0.0
C2235 C 0.38179 0.04252 0.07211 0.0
C2236 C 0.39796 0.04405 0.07264 0.0
C2237 C 0.40284 0.03715 0.0458 0.0
C2238 C 0.35374 0.03277 0.04202 0.0
C2239 C 0.40983 0.05239 0.10218 0.0
C2240 C 0.36775 0.06645 0.13078 0.0
C2241 C 0.35871 0.05432 0.15591 0.0
C2242 C 0.37619 0.06319 0.10435 0.0
C2243 C 0.37522 0.0473 0.10255 0.0
C2244 C 0.3666 0.03527 0.12855 0.0
C2245 C 0.35863 0.03898 0.155 0.0
C2246 C 0.38558 0.07653 0.07766 0.0
C2247 C 0.36497 0.01806 0.12747 0.0
H2248 H 0.36806 0.0223 0.99556 0.0
H2249 H 0.41493 0.03774 0.04694 0.0
H2250 H 0.34589 0.02425 0.06285 0.0
H2251 H 0.35435 0.04503 0.04597 0.0
H2252 H 0.34737 0.02742 0.01726 0.0
H2253 H 0.42267 0.0546 0.09672 0.0
H2254 H 0.41071 0.0646 0.10835 0.0
H2255 H 0.40494 0.04431 0.12521 0.0
H2256 H 0.36795 0.07835 0.13132 0.0
H2257 H 0.35164 0.02948 0.17416 0.0
H2258 H 0.37864 0.07262 0.0531 0.0
H2259 H 0.39821 0.07805 0.07319 0.0
H2260 H 0.3871 0.08889 0.0851 0.0
H2261 H 0.35762 0.01114 0.10458 0.0
H2262 H 0.35859 0.01044 0.15049 0.0
H2263 H 0.37756 0.01923 0.12529 0.0
C2264 C 0.95606 0.31756 0.15583 0.0
C2265 C 0.94054 0.30248 0.15642 0.0
C2266 C 0.96047 0.32904 0.1287 0.0
C2267 C 0.94905 0.3255 0.10136 0.0
C2268 C 0.93307 0.31063 0.10243 0.0
C2269 C 0.92902 0.29928 0.12986 0.0
C2270 C 0.97765 0.34468 0.12868 0.0
C2271 C 0.92048 0.30644 0.07399 0.0
C2272 C 0.9592 0.36247 0.04204 0.0
C2273 C 0.96811 0.35997 0.01572 0.0
C2274 C 0.9523 0.35101 0.06943 0.0
C2275 C 0.95446 0.33676 0.07068 0.0
C2276 C 0.96293 0.33389 0.04356 0.0
C2277 C 0.96958 0.34546 0.01647 0.0
C2278 C 0.94324 0.35448 0.09763 0.0
C2279 C 0.96559 0.31892 0.04379 0.0
H2280 H 0.96507 0.32021 0.17618 0.0
H2281 H 0.91699 0.2877 0.13005 0.0
H2282 H 0.98517 0.34418 0.10697 0.0
H2283 H 0.97647 0.35603 0.12511 0.0
H2284 H 0.98468 0.34611 0.15272 0.0
H2285 H 0.90807 0.29529 0.0801 0.0
H2286 H 0.91868 0.31731 0.06872 0.0
H2287 H 0.92533 0.3038 0.05021 0.0
H2288 H 0.95795 0.37361 0.04172 0.0
H2289 H 0.97641 0.34335 0.9963 0.0
H2290 H 0.95071 0.35755 0.12153 0.0
H2291 H 0.93087 0.34312 0.10277 0.0
H2292 H 0.94118 0.36512 0.09135 0.0
H2293 H 0.97376 0.31996 0.06565 0.0
H2294 H 0.97155 0.31793 0.01988 0.0
H2295 H 0.9534 0.30712 0.04723 0.0
C2296 C 0.64274 0.61501 0.01486 0.0
C2297 C 0.62764 0.59952 0.01568 0.0
C2298 C 0.65448 0.62002 0.04165 0.0
C2299 C 0.65124 0.60919 0.06995 0.0
C2300 C 0.63642 0.59316 0.07017 0.0
C2301 C 0.62473 0.58857 0.0432 0.0
C2302 C 0.66997 0.6373 0.04041 0.0
C2303 C 0.63263 0.5811 0.09947 0.0
C2304 C 0.68905 0.62161 0.12841 0.0
C2305 C 0.6864 0.63074 0.15404 0.0
C2306 C 0.67731 0.61378 0.10176 0.0
C2307 C 0.66271 0.61535 0.10033 0.0
C2308 C 0.65973 0.62406 0.12677 0.0
C2309 C 0.67149 0.63151 0.15333 0.0
C2310 C 0.68083 0.60432 0.0745 0.0
C2311 C 0.64447 0.62626 0.12619 0.0
H2312 H 0.64515 0.62361 0.99382 0.0
H2313 H 0.61314 0.57656 0.04407 0.0
H2314 H 0.66954 0.64512 0.06155 0.0
H2315 H 0.68147 0.63637 0.04405 0.0
H2316 H 0.6711 0.64386 0.01586 0.0
H2317 H 0.6217 0.56845 0.094 0.0
H2318 H 0.64375 0.57976 0.10522 0.0
H2319 H 0.62982 0.58613 0.12275 0.0
H2320 H 0.70048 0.62088 0.12875 0.0
H2321 H 0.66929 0.63853 0.17291 0.0
H2322 H 0.68378 0.61136 0.05006 0.0
H2323 H 0.66954 0.59181 0.0701 0.0
H2324 H 0.69158 0.60253 0.08132 0.0
H2325 H 0.6451 0.63386 0.10358 0.0
H2326 H 0.64351 0.63263 0.1495 0.0
H2327 H 0.63281 0.61386 0.12382 0.0
C2328 C 0.045 0.35939 0.34599 0.0
C2329 C 0.06011 0.35909 0.34861 0.0
C2330 C 0.03953 0.3659 0.37238 0.0
C2331 C 0.04948 0.37249 0.40218 0.0
C2332 C 0.06517 0.37302 0.40427 0.0
C2333 C 0.07025 0.36623 0.37759 0.0
C2334 C 0.02267 0.36493 0.36905 0.0
C2335 C 0.07628 0.38017 0.43531 0.0
C2336 C 0.03696 0.39761 0.46118 0.0
C2337 C 0.02676 0.38536 0.48522 0.0
C2338 C 0.04503 0.39385 0.4348 0.0
C2339 C 0.04268 0.3774 0.43208 0.0
C2340 C 0.03276 0.36515 0.45684 0.0
C2341 C 0.02504 0.3693 0.48311 0.0
C2342 C 0.05568 0.40734 0.40926 0.0
C2343 C 0.02975 0.34741 0.45486 0.0
H2344 H 0.03704 0.35393 0.32377 0.0
H2345 H 0.08196 0.3661 0.37987 0.0
H2346 H 0.01389 0.35619 0.38861 0.0
H2347 H 0.02398 0.37745 0.37372 0.0
H2348 H 0.01694 0.36044 0.34343 0.0
H2349 H 0.08887 0.38147 0.43142 0.0
H2350 H 0.07795 0.39268 0.44181 0.0
H2351 H 0.07021 0.3718 0.45756 0.0
H2352 H 0.03842 0.41006 0.46261 0.0
H2353 H 0.01719 0.35971 0.50147 0.0
H2354 H 0.04951 0.40401 0.38384 0.0
H2355 H 0.06814 0.40825 0.40648 0.0
H2356 H 0.05763 0.41987 0.41673 0.0
H2357 H 0.02283 0.34133 0.43101 0.0
H2358 H 0.02235 0.33958 0.47691 0.0
H2359 H 0.04191 0.34759 0.45396 0.0
C2360 C 0.61426 0.64549 0.492 0.0
C2361 C 0.59914 0.63 0.49117 0.0
C2362 C 0.61888 0.6571 0.46505 0.0
C2363 C 0.60804 0.65334 0.43659 0.0
C2364 C 0.59234 0.63813 0.4364 0.0
C2365 C 0.58814 0.62658 0.46353 0.0
C2366 C 0.63582 0.67304 0.46629 0.0
C2367 C 0.58026 0.63376 0.40691 0.0
C2368 C 0.61911 0.69043 0.37688 0.0
C2369 C 0.62859 0.68807 0.35159 0.0
C2370 C 0.61163 0.67881 0.40386 0.0
C2371 C 0.61391 0.66465 0.40596 0.0
C2372 C 0.62301 0.66196 0.37989 0.0
C2373 C 0.6301 0.67359 0.353 0.0
C2374 C 0.60175 0.68199 0.43072 0.0
C2375 C 0.62596 0.64719 0.38118 0.0
H2376 H 0.62289 0.6483 0.51315 0.0
H2377 H 0.57641 0.61469 0.46264 0.0
H2378 H 0.64394 0.67285 0.44549 0.0
H2379 H 0.63435 0.68419 0.46208 0.0
H2380 H 0.64236 0.67458 0.49104 0.0
H2381 H 0.56779 0.62257 0.41246 0.0
H2382 H 0.57845 0.64455 0.40069 0.0
H2383 H 0.58556 0.63107 0.38389 0.0
H2384 H 0.61781 0.70153 0.376 0.0
H2385 H 0.6374 0.67163 0.33369 0.0
H2386 H 0.60874 0.6853 0.45525 0.0
H2387 H 0.58945 0.67044 0.43519 0.0
H2388 H 0.59948 0.69239 0.42345 0.0
H2389 H 0.63359 0.64826 0.40404 0.0
H2390 H 0.63262 0.64643 0.35815 0.0
H2391 H 0.61381 0.63525 0.38356 0.0
C2392 C 0.37104 0.96676 0.46563 0.0
C2393 C 0.36679 0.97142 0.49658 0.0
C2394 C 0.35929 0.95979 0.43876 0.0
C2395 C 0.34292 0.95749 0.44286 0.0
C2396 C 0.3383 0.96133 0.47469 0.0
C2397 C 0.35025 0.96821 0.50109 0.0
C2398 C 0.3647 0.95573 0.40539 0.0
C2399 C 0.32101 0.95908 0.48029 0.0
C2400 C 0.31985 0.96112 0.36539 0.0
C2401 C 0.30758 0.9443 0.35918 0.0
C2402 C 0.33158 0.96547 0.39201 0.0
C2403 C 0.33116 0.95271 0.41307 0.0
C2404 C 0.31906 0.93566 0.40651 0.0
C2405 C 0.30738 0.93165 0.37971 0.0
C2406 C 0.3442 0.98382 0.39807 0.0
C2407 C 0.31824 0.92168 0.42823 0.0
H2408 H 0.38376 0.96916 0.46185 0.0
H2409 H 0.34677 0.97169 0.5249 0.0
H2410 H 0.35515 0.943 0.39646 0.0
H2411 H 0.36573 0.96485 0.38557 0.0
H2412 H 0.37705 0.9563 0.40754 0.0
H2413 H 0.31888 0.96119 0.50734 0.0
H2414 H 0.31945 0.96811 0.46403 0.0
H2415 H 0.31115 0.94624 0.47268 0.0
H2416 H 0.32017 0.97101 0.34972 0.0
H2417 H 0.29798 0.91862 0.37511 0.0
H2418 H 0.35718 0.98586 0.3975 0.0
H2419 H 0.3422 0.98763 0.42376 0.0
H2420 H 0.34325 0.99217 0.37874 0.0
H2421 H 0.33074 0.92256 0.42908 0.0
H2422 H 0.30882 0.90903 0.41856 0.0
H2423 H 0.31488 0.92295 0.45484 0.0
C2424 C 0.63109 0.95063 0.84784 0.0
C2425 C 0.63262 0.93617 0.84944 0.0
C2426 C 0.62407 0.95511 0.87497 0.0
C2427 C 0.61831 0.94484 0.90452 0.0
C2428 C 0.61894 0.92972 0.90552 0.0
C2429 C 0.62613 0.92559 0.87804 0.0
C2430 C 0.62369 0.97134 0.87272 0.0
C2431 C 0.61278 0.91832 0.93634 0.0
C2432 C 0.62129 0.9681 0.98701 0.0
C2433 C 0.60478 0.965 0.99115 0.0
C2434 C 0.62568 0.96122 0.95954 0.0
C2435 C 0.61328 0.95087 0.93543 0.0
C2436 C 0.59645 0.94724 0.93999 0.0
C2437 C 0.59241 0.95437 0.96774 0.0
C2438 C 0.64378 0.96548 0.95574 0.0
C2439 C 0.58283 0.93619 0.91504 0.0
H2440 H 0.636 0.95889 0.82588 0.0
H2441 H 0.62721 0.91437 0.87954 0.0
H2442 H 0.61094 0.96912 0.87889 0.0
H2443 H 0.63252 0.98043 0.89175 0.0
H2444 H 0.62731 0.97718 0.84697 0.0
H2445 H 0.6122 0.90611 0.93154 0.0
H2446 H 0.62137 0.9246 0.95819 0.0
H2447 H 0.60009 0.91583 0.944 0.0
H2448 H 0.63096 0.97623 0.00494 0.0
H2449 H 0.57961 0.95187 0.97071 0.0
H2450 H 0.6491 0.97266 0.93176 0.0
H2451 H 0.6445 0.95379 0.95391 0.0
H2452 H 0.65176 0.9731 0.97744 0.0
H2453 H 0.58544 0.94249 0.88978 0.0
H2454 H 0.57016 0.93342 0.92364 0.0
H2455 H 0.58269 0.92413 0.9114 0.0
C2456 C 0.03029 0.65538 0.99271 0.0
C2457 C 0.03032 0.64009 0.99212 0.0
C2458 C 0.03736 0.6671 0.96595 0.0
C2459 C 0.04493 0.66365 0.93791 0.0
C2460 C 0.0458 0.64865 0.93798 0.0
C2461 C 0.03838 0.637 0.96492 0.0
C2462 C 0.03597 0.68281 0.96692 0.0
C2463 C 0.054 0.6446 0.90894 0.0
C2464 C 0.04382 0.68378 0.85354 0.0
C2465 C 0.05979 0.69831 0.85253 0.0
C2466 C 0.03904 0.67224 0.88066 0.0
C2467 C 0.05056 0.67508 0.90743 0.0
C2468 C 0.06695 0.68937 0.90592 0.0
C2469 C 0.07132 0.70089 0.87866 0.0
C2470 C 0.02138 0.65731 0.88129 0.0
C2471 C 0.07971 0.69274 0.93358 0.0
H2472 H 0.02409 0.65794 0.01351 0.0
H2473 H 0.03853 0.62527 0.96421 0.0
H2474 H 0.04851 0.69414 0.96314 0.0
H2475 H 0.02776 0.68248 0.94574 0.0
H2476 H 0.03063 0.68415 0.99141 0.0
H2477 H 0.05541 0.63351 0.9146 0.0
H2478 H 0.04628 0.64194 0.8855 0.0
H2479 H 0.0666 0.65555 0.90335 0.0
H2480 H 0.03477 0.68165 0.83358 0.0
H2481 H 0.0837 0.71203 0.8781 0.0
H2482 H 0.01453 0.65819 0.90383 0.0
H2483 H 0.02175 0.64546 0.88379 0.0
H2484 H 0.01415 0.65652 0.85792 0.0
H2485 H 0.0755 0.69567 0.95788 0.0
H2486 H 0.09235 0.70344 0.9271 0.0
H2487 H 0.08078 0.68138 0.93809 0.0
C2488 C 0.31625 0.35933 0.85096 0.0
C2489 C 0.3026 0.36216 0.84879 0.0
C2490 C 0.32749 0.36541 0.8786 0.0
C2491 C 0.32499 0.37446 0.90506 0.0
C2492 C 0.31153 0.37782 0.90255 0.0
C2493 C 0.30053 0.37169 0.87436 0.0
C2494 C 0.34174 0.36166 0.88002 0.0
C2495 C 0.30838 0.38733 0.93029 0.0
C2496 C 0.34241 0.37117 0.99097 0.0
C2497 C 0.35782 0.38632 0.99243 0.0
C2498 C 0.33131 0.36751 0.96341 0.0
C2499 C 0.33575 0.37922 0.93633 0.0
C2500 C 0.35103 0.3948 0.93816 0.0
C2501 C 0.36186 0.3982 0.96628 0.0
C2502 C 0.3151 0.35082 0.9627 0.0
C2503 C 0.35627 0.40758 0.90976 0.0
H2504 H 0.31803 0.35209 0.83122 0.0
H2505 H 0.29001 0.37392 0.87291 0.0
H2506 H 0.35388 0.37342 0.8842 0.0
H2507 H 0.33982 0.35318 0.90187 0.0
H2508 H 0.3427 0.35556 0.85627 0.0
H2509 H 0.29828 0.39009 0.92329 0.0
H2510 H 0.30467 0.3798 0.95417 0.0
H2511 H 0.32006 0.39935 0.93586 0.0
H2512 H 0.3391 0.36195 0.01116 0.0
H2513 H 0.37375 0.40993 0.96718 0.0
H2514 H 0.31545 0.34301 0.94143 0.0
H2515 H 0.30427 0.35277 0.95803 0.0
H2516 H 0.31287 0.34369 0.98692 0.0
H2517 H 0.35881 0.40246 0.88627 0.0
H2518 H 0.36776 0.41963 0.91633 0.0
H2519 H 0.34596 0.41016 0.90375 0.0
C2520 C 0.95426 0.63504 0.65865 0.0
C2521 C 0.93881 0.63471 0.65993 0.0
C2522 C 0.95827 0.62768 0.63142 0.0
C2523 C 0.94645 0.61952 0.60483 0.0
C2524 C 0.93046 0.61833 0.60688 0.0
C2525 C 0.92687 0.62605 0.63423 0.0
C2526 C 0.97553 0.62943 0.63026 0.0
C2527 C 0.91737 0.60948 0.57947 0.0
C2528 C 0.96582 0.62012 0.51847 0.0
C2529 C 0.96503 0.60444 0.51788 0.0
C2530 C 0.95931 0.6249 0.54601 0.0
C2531 C 0.95153 0.61366 0.57366 0.0
C2532 C 0.94991 0.59747 0.57246 0.0
C2533 C 0.95679 0.5931 0.54475 0.0
C2534 C 0.9615 0.64235 0.54624 0.0
C2535 C 0.94145 0.58499 0.60104 0.0
H2536 H 0.96361 0.6417 0.67828 0.0
H2537 H 0.91487 0.62566 0.63498 0.0
H2538 H 0.97445 0.61694 0.62672 0.0
H2539 H 0.98264 0.63735 0.6081 0.0
H2540 H 0.98291 0.63526 0.65385 0.0
H2541 H 0.90493 0.60778 0.58683 0.0
H2542 H 0.92151 0.61691 0.55551 0.0
H2543 H 0.91591 0.59696 0.57392 0.0
H2544 H 0.97216 0.62901 0.49794 0.0
H2545 H 0.95605 0.58094 0.54454 0.0
H2546 H 0.96986 0.64971 0.56769 0.0
H2547 H 0.9492 0.64164 0.55036 0.0
H2548 H 0.96704 0.64926 0.52206 0.0
H2549 H 0.94935 0.58949 0.62438 0.0
H2550 H 0.9394 0.57232 0.59449 0.0
H2551 H 0.92913 0.58387 0.6073 0.0
C2552 C 0.35994 0.31515 0.67094 0.0
C2553 C 0.35618 0.29846 0.66619 0.0
C2554 C 0.3668 0.32702 0.64446 0.0
C2555 C 0.37015 0.32218 0.61239 0.0
C2556 C 0.36749 0.30569 0.60815 0.0
C2557 C 0.36048 0.29399 0.63506 0.0
C2558 C 0.36939 0.34444 0.65017 0.0
C2559 C 0.37112 0.30009 0.57455 0.0
C2560 C 0.36516 0.34484 0.53596 0.0
C2561 C 0.38184 0.35724 0.52898 0.0
C2562 C 0.36129 0.33317 0.56247 0.0
C2563 C 0.37443 0.33373 0.58246 0.0
C2564 C 0.39136 0.34588 0.57492 0.0
C2565 C 0.39486 0.35757 0.54839 0.0
C2566 C 0.34305 0.32056 0.56974 0.0
C2567 C 0.40572 0.34676 0.59539 0.0
H2568 H 0.35676 0.31878 0.69491 0.0
H2569 H 0.3577 0.28116 0.63115 0.0
H2570 H 0.38213 0.35415 0.64166 0.0
H2571 H 0.36013 0.34603 0.63472 0.0
H2572 H 0.36781 0.34676 0.67741 0.0
H2573 H 0.37071 0.28782 0.57679 0.0
H2574 H 0.36163 0.29878 0.55536 0.0
H2575 H 0.38366 0.30963 0.56474 0.0
H2576 H 0.35498 0.34447 0.52119 0.0
H2577 H 0.40779 0.36707 0.54312 0.0
H2578 H 0.33968 0.32266 0.59578 0.0
H2579 H 0.34101 0.30759 0.569 0.0
H2580 H 0.33436 0.32144 0.55116 0.0
H2581 H 0.40509 0.35051 0.62205 0.0
H2582 H 0.41818 0.35595 0.58454 0.0
H2583 H 0.40469 0.3342 0.59646 0.0
C2584 C 0.6488 0.02095 0.53221 0.0
C2585 C 0.63528 0.02378 0.52686 0.0
C2586 C 0.66047 0.02907 0.55863 0.0
C2587 C 0.65871 0.04044 0.58037 0.0
C2588 C 0.6454 0.04377 0.57452 0.0
C2589 C 0.63383 0.03538 0.5479 0.0
C2590 C 0.67441 0.02508 0.5639 0.0
C2591 C 0.64313 0.05586 0.59696 0.0
C2592 C 0.67809 0.045 0.66844 0.0
C2593 C 0.69394 0.0595 0.66461 0.0
C2594 C 0.66625 0.03911 0.64177 0.0
C2595 C 0.67025 0.04793 0.61034 0.0
C2596 C 0.68589 0.06305 0.60686 0.0
C2597 C 0.69756 0.06864 0.63399 0.0
C2598 C 0.64976 0.02293 0.64669 0.0
C2599 C 0.69061 0.07292 0.57392 0.0
H2600 H 0.6501 0.01205 0.51612 0.0
H2601 H 0.62346 0.03769 0.54398 0.0
H2602 H 0.68681 0.03684 0.56384 0.0
H2603 H 0.67293 0.01902 0.58918 0.0
H2604 H 0.6745 0.01654 0.54389 0.0
H2605 H 0.63301 0.0581 0.5875 0.0
H2606 H 0.63994 0.05076 0.6233 0.0
H2607 H 0.65505 0.06809 0.59844 0.0
H2608 H 0.6751 0.03784 0.69198 0.0
H2609 H 0.70974 0.07986 0.63073 0.0
H2610 H 0.64932 0.01307 0.6296 0.0
H2611 H 0.63906 0.02474 0.63965 0.0
H2612 H 0.64799 0.01829 0.67343 0.0
H2613 H 0.69256 0.06563 0.55364 0.0
H2614 H 0.70232 0.08531 0.5765 0.0
H2615 H 0.68028 0.07502 0.56534 0.0
C2616 C 0.70689 0.69287 0.6823 0.0
C2617 C 0.72275 0.69406 0.68143 0.0
C2618 C 0.70208 0.69943 0.70973 0.0
C2619 C 0.71344 0.70756 0.73703 0.0
C2620 C 0.72975 0.70946 0.73564 0.0
C2621 C 0.73418 0.70261 0.70797 0.0
C2622 C 0.68454 0.697 0.71013 0.0
C2623 C 0.74231 0.71822 0.76396 0.0
C2624 C 0.70152 0.73276 0.79709 0.0
C2625 C 0.6931 0.72108 0.82334 0.0
C2626 C 0.70889 0.72886 0.76955 0.0
C2627 C 0.70766 0.71285 0.768 0.0
C2628 C 0.69969 0.70127 0.79505 0.0
C2629 C 0.6926 0.70554 0.82235 0.0
C2630 C 0.71745 0.74165 0.74151 0.0
C2631 C 0.69798 0.68402 0.79446 0.0
H2632 H 0.69794 0.68631 0.66198 0.0
H2633 H 0.74647 0.70365 0.70754 0.0
H2634 H 0.67734 0.68877 0.73186 0.0
H2635 H 0.68511 0.70925 0.7139 0.0
H2636 H 0.67754 0.69123 0.68615 0.0
H2637 H 0.75496 0.72018 0.75752 0.0
H2638 H 0.74346 0.7306 0.76957 0.0
H2639 H 0.73785 0.71059 0.78765 0.0
H2640 H 0.70202 0.74481 0.79761 0.0
H2641 H 0.68615 0.69641 0.84244 0.0
H2642 H 0.70995 0.7371 0.71768 0.0
H2643 H 0.73005 0.74329 0.73606 0.0
H2644 H 0.71893 0.75409 0.74816 0.0
H2645 H 0.68995 0.67671 0.77258 0.0
H2646 H 0.6923 0.67685 0.81832 0.0
H2647 H 0.71048 0.68511 0.79079 0.0
C2648 C 0.29041 0.03483 0.71073 0.0
C2649 C 0.29667 0.03049 0.68212 0.0
C2650 C 0.28404 0.02402 0.73921 0.0
C2651 C 0.28399 0.00855 0.73916 0.0
C2652 C 0.28963 0.00382 0.70974 0.0
C2653 C 0.29585 0.0148 0.68167 0.0
C2654 C 0.27802 0.02948 0.7699 0.0
C2655 C 0.28983 0.98747 0.70848 0.0
C2656 C 0.2885 0.98941 0.82187 0.0
C2657 C 0.27226 0.97558 0.82645 0.0
C2658 C 0.29227 0.00056 0.79434 0.0
C2659 C 0.27951 0.99792 0.77067 0.0
C2660 C 0.26291 0.98441 0.77591 0.0
C2661 C 0.25948 0.97337 0.80369 0.0
C2662 C 0.31015 0.01477 0.78982 0.0
C2663 C 0.2489 0.98123 0.75146 0.0
H2664 H 0.29095 0.04689 0.71134 0.0
H2665 H 0.30058 0.01127 0.65969 0.0
H2666 H 0.26552 0.01921 0.7783 0.0
H2667 H 0.28689 0.03226 0.79147 0.0
H2668 H 0.27712 0.04089 0.7646 0.0
H2669 H 0.29348 0.98509 0.68293 0.0
H2670 H 0.29889 0.98776 0.72764 0.0
H2671 H 0.27725 0.97677 0.71512 0.0
H2672 H 0.29847 0.99131 0.83933 0.0
H2673 H 0.24689 0.96275 0.80701 0.0
H2674 H 0.3104 0.02693 0.78714 0.0
H2675 H 0.31552 0.01279 0.76605 0.0
H2676 H 0.31837 0.01575 0.81158 0.0
H2677 H 0.24851 0.99298 0.74711 0.0
H2678 H 0.23641 0.97135 0.76093 0.0
H2679 H 0.25129 0.97719 0.72638 0.0
C2680 C 0.97147 0.26781 0.71226 0.0
C2681 C 0.97337 0.28001 0.68826 0.0
C2682 C 0.98326 0.27172 0.73882 0.0
C2683 C 0.99714 0.2883 0.74178 0.0
C2684 C -0.00069 0.30052 0.71709 0.0
C2685 C 0.98751 0.29621 0.69062 0.0
C2686 C 0.9806 0.25825 0.76425 0.0
C2687 C 0.01379 0.31839 0.71935 0.0
C2688 C 0.0171 0.30634 0.82812 0.0
C2689 C 0.03271 0.30704 0.82555 0.0
C2690 C 0.00519 0.29968 0.80162 0.0
C2691 C 0.0088 0.29333 0.77179 0.0
C2692 C 0.02416 0.29318 0.76976 0.0
C2693 C 0.03598 0.30014 0.79653 0.0
C2694 C 0.98908 0.30026 0.80488 0.0
C2695 C 0.02839 0.28629 0.7387 0.0
H2696 H 0.96064 0.25525 0.71063 0.0
H2697 H 0.98912 0.30577 0.67231 0.0
H2698 H 0.99229 0.2576 0.76711 0.0
H2699 H 0.97761 0.26143 0.78967 0.0
H2700 H 0.97018 0.24565 0.75662 0.0
H2701 H 0.0141 0.32622 0.6974 0.0
H2702 H 0.01277 0.3243 0.74328 0.0
H2703 H 0.02593 0.3185 0.7203 0.0
H2704 H 0.01441 0.31162 0.85036 0.0
H2705 H 0.04796 0.30057 0.79429 0.0
H2706 H 0.97804 0.28764 0.80001 0.0
H2707 H 0.98889 0.30895 0.78541 0.0
H2708 H 0.98767 0.30458 0.83053 0.0
H2709 H 0.01772 0.27369 0.73205 0.0
H2710 H 0.03983 0.28525 0.74266 0.0
H2711 H 0.03058 0.29467 0.71652 0.0
C2712 C 0.30697 0.28416 0.18099 0.0
C2713 C 0.30854 0.26987 0.18614 0.0
C2714 C 0.30028 0.28993 0.20639 0.0
C2715 C 0.29493 0.28118 0.23781 0.0
C2716 C 0.29564 0.26623 0.24253 0.0
C2717 C 0.30247 0.26076 0.21666 0.0
C2718 C 0.29979 0.30593 0.20021 0.0
C2719 C 0.28994 0.25646 0.27554 0.0
C2720 C 0.29876 0.30856 0.31391 0.0
C2721 C 0.28228 0.30565 0.31735 0.0
C2722 C 0.30287 0.30028 0.28885 0.0
C2723 C 0.2902 0.28866 0.26664 0.0
C2724 C 0.27341 0.28521 0.27068 0.0
C2725 C 0.26965 0.29379 0.29591 0.0
C2726 C 0.32096 0.30446 0.28539 0.0
C2727 C 0.25952 0.27283 0.24766 0.0
H2728 H 0.31154 0.29127 0.15747 0.0
H2729 H 0.3036 0.24969 0.22088 0.0
H2730 H 0.28709 0.30395 0.20596 0.0
H2731 H 0.30882 0.31595 0.21757 0.0
H2732 H 0.30309 0.31046 0.17346 0.0
H2733 H 0.28943 0.24413 0.27375 0.0
H2734 H 0.29877 0.26388 0.29633 0.0
H2735 H 0.27731 0.25425 0.28285 0.0
H2736 H 0.30863 0.31768 0.33033 0.0
H2737 H 0.25689 0.29142 0.29842 0.0
H2738 H 0.326 0.31049 0.26027 0.0
H2739 H 0.32174 0.29278 0.28631 0.0
H2740 H 0.32914 0.3131 0.30579 0.0
H2741 H 0.26177 0.27779 0.22117 0.0
H2742 H 0.24693 0.27041 0.25599 0.0
H2743 H 0.25946 0.26072 0.24703 0.0
C2744 C 0.73313 0.03169 0.21388 0.0
C2745 C 0.72233 0.02881 0.18611 0.0
C2746 C 0.72863 0.01972 0.24025 0.0
C2747 C 0.71284 0.00463 0.23915 0.0
C2748 C 0.70223 0.00138 0.21047 0.0
C2749 C 0.70715 0.01341 0.18427 0.0
C2750 C 0.74046 0.02354 0.26999 0.0
C2751 C 0.6852 0.98559 0.2083 0.0
C2752 C 0.701 0.96685 0.29734 0.0
C2753 C 0.69159 0.96918 0.32282 0.0
C2754 C 0.70866 0.97865 0.27073 0.0
C2755 C 0.7066 0.99296 0.26919 0.0
C2756 C 0.69746 0.99555 0.29533 0.0
C2757 C 0.69022 0.98374 0.32187 0.0
C2758 C 0.71855 0.97557 0.24376 0.0
C2759 C 0.69471 0.01046 0.29456 0.0
H2760 H 0.7449 0.04351 0.21553 0.0
H2761 H 0.69867 0.01101 0.16301 0.0
H2762 H 0.7351 0.02607 0.29311 0.0
H2763 H 0.74201 0.01255 0.27572 0.0
H2764 H 0.75306 0.03466 0.26504 0.0
H2765 H 0.67893 0.98441 0.18334 0.0
H2766 H 0.68644 0.97429 0.21219 0.0
H2767 H 0.67694 0.98569 0.22889 0.0
H2768 H 0.70219 0.95568 0.2979 0.0
H2769 H 0.68295 0.98567 0.34132 0.0
H2770 H 0.73102 0.98702 0.24003 0.0
H2771 H 0.71179 0.97276 0.219 0.0
H2772 H 0.72048 0.96489 0.25044 0.0
H2773 H 0.70696 0.02234 0.29292 0.0
H2774 H 0.68788 0.01103 0.31748 0.0
H2775 H 0.68734 0.00976 0.27151 0.0
C2776 C 0.01662 0.71345 0.32657 0.0
C2777 C 0.03219 0.72848 0.32548 0.0
C2778 C 0.00484 0.70895 0.29996 0.0
C2779 C 0.00854 0.7198 0.27152 0.0
C2780 C 0.02387 0.73539 0.27104 0.0
C2781 C 0.03555 0.73949 0.29787 0.0
C2782 C 0.98876 0.69215 0.30154 0.0
C2783 C 0.02821 0.74746 0.24154 0.0
C2784 C 0.98754 0.69822 0.18796 0.0
C2785 C 0.9734 0.70031 0.18684 0.0
C2786 C -0.00075 0.70488 0.21482 0.0
C2787 C 0.99698 0.7141 0.24124 0.0
C2788 C 0.98309 0.71685 0.23962 0.0
C2789 C 0.97141 0.70983 0.21259 0.0
C2790 C 0.01374 0.70147 0.21557 0.0
C2791 C 0.98031 0.7268 0.26693 0.0
H2792 H 0.01385 0.70481 0.34769 0.0
H2793 H 0.04751 0.75114 0.29677 0.0
H2794 H 0.97771 0.69382 0.29771 0.0
H2795 H 0.98867 0.68393 0.28066 0.0
H2796 H 0.98728 0.68561 0.32628 0.0
H2797 H 0.03964 0.75979 0.24669 0.0
H2798 H 0.03046 0.74196 0.21828 0.0
H2799 H 0.01756 0.74958 0.23592 0.0
H2800 H 0.98923 0.69088 0.1683 0.0
H2801 H 0.96057 0.71157 0.21196 0.0
H2802 H 0.01263 0.69379 0.23837 0.0
H2803 H 0.02586 0.71346 0.21768 0.0
H2804 H 0.01415 0.69468 0.19243 0.0
H2805 H 0.97725 0.71984 0.29148 0.0
H2806 H 0.96991 0.72918 0.26037 0.0
H2807 H 0.99198 0.73906 0.271 0.0
loop_
_geom_bond_atom_site_label_1
_geom_bond_atom_site_label_2
_geom_bond_distance
_geom_bond_site_symmetry_2
_ccdc_geom_bond_type
O0 Cd1 2.223 . S
O0 C8 1.315 . S
Cd1 O0 2.223 . S
Cd1 O4 2.297 . S
Cd1 O5 2.439 . S
Cd1 O11 2.240 . S
Cd2 O3 2.240 . S
Cd2 O10 2.223 . S
Cd2 O12 2.297 . S
Cd2 O13 2.439 . S
O3 Cd2 2.240 . S
O3 C8 1.279 . S
O4 Cd1 2.297 . S
O4 C6 1.247 . S
O5 Cd1 2.439 . S
O5 C6 1.208 . S
C6 O4 1.247 . S
C6 O5 1.208 . S
C7 O12 1.247 . S
C7 O13 1.208 . S
C8 O0 1.315 . S
C8 O3 1.279 . S
C9 O10 1.315 . S
C9 O11 1.279 . S
O10 Cd2 2.223 . S
O10 C9 1.315 . S
O11 Cd1 2.240 . S
O11 C9 1.279 . S
O12 Cd2 2.297 . S
O12 C7 1.247 . S
O13 Cd2 2.439 . S
O13 C7 1.208 . S
O14 Cd15 2.223 . S
O14 C22 1.315 . S
Cd15 O14 2.223 . S
Cd15 O18 2.297 . S
Cd15 O19 2.439 . S
Cd15 O25 2.240 . S
Cd16 O17 2.240 . S
Cd16 O24 2.223 . S
Cd16 O26 2.297 . S
Cd16 O27 2.439 . S
O17 Cd16 2.240 . S
O17 C22 1.279 . S
O18 Cd15 2.297 . S
O18 C20 1.247 . S
O19 Cd15 2.439 . S
O19 C20 1.208 . S
C20 O18 1.247 . S
C20 O19 1.208 . S
C21 O26 1.247 . S
C21 O27 1.208 . S
C22 O14 1.315 . S
C22 O17 1.279 . S
C23 O24 1.315 . S
C23 O25 1.279 . S
O24 Cd16 2.223 . S
O24 C23 1.315 . S
O25 Cd15 2.240 . S
O25 C23 1.279 . S
O26 Cd16 2.297 . S
O26 C21 1.247 . S
O27 Cd16 2.439 . S
O27 C21 1.208 . S
O28 Cd29 2.223 . S
O28 C36 1.315 . S
Cd29 O28 2.223 . S
Cd29 O32 2.297 . S
Cd29 O33 2.439 . S
Cd29 O39 2.240 . S
Cd30 O31 2.240 . S
Cd30 O38 2.223 . S
Cd30 O40 2.297 . S
Cd30 O41 2.439 . S
O31 Cd30 2.240 . S
O31 C36 1.279 . S
O32 Cd29 2.297 . S
O32 C34 1.247 . S
O33 Cd29 2.439 . S
O33 C34 1.208 . S
C34 O32 1.247 . S
C34 O33 1.208 . S
C35 O40 1.247 . S
C35 O41 1.208 . S
C36 O28 1.315 . S
C36 O31 1.279 . S
C37 O38 1.315 . S
C37 O39 1.279 . S
O38 Cd30 2.223 . S
O38 C37 1.315 . S
O39 Cd29 2.240 . S
O39 C37 1.279 . S
O40 Cd30 2.297 . S
O40 C35 1.247 . S
O41 Cd30 2.439 . S
O41 C35 1.208 . S
O42 Cd43 2.223 . S
O42 C50 1.315 . S
Cd43 O42 2.223 . S
Cd43 O46 2.297 . S
Cd43 O47 2.439 . S
Cd43 O53 2.240 . S
Cd44 O45 2.240 . S
Cd44 O52 2.223 . S
Cd44 O54 2.297 . S
Cd44 O55 2.439 . S
O45 Cd44 2.240 . S
O45 C50 1.279 . S
O46 Cd43 2.297 . S
O46 C48 1.247 . S
O47 Cd43 2.439 . S
O47 C48 1.208 . S
C48 O46 1.247 . S
C48 O47 1.208 . S
C49 O54 1.247 . S
C49 O55 1.208 . S
C50 O42 1.315 . S
C50 O45 1.279 . S
C51 O52 1.315 . S
C51 O53 1.279 . S
O52 Cd44 2.223 . S
O52 C51 1.315 . S
O53 Cd43 2.240 . S
O53 C51 1.279 . S
O54 Cd44 2.297 . S
O54 C49 1.247 . S
O55 Cd44 2.439 . S
O55 C49 1.208 . S
O56 Cd57 2.223 . S
O56 C64 1.315 . S
Cd57 O56 2.223 . S
Cd57 O60 2.297 . S
Cd57 O61 2.439 . S
Cd57 O67 2.240 . S
Cd58 O59 2.240 . S
Cd58 O66 2.223 . S
Cd58 O68 2.297 . S
Cd58 O69 2.439 . S
O59 Cd58 2.240 . S
O59 C64 1.279 . S
O60 Cd57 2.297 . S
O60 C62 1.247 . S
O61 Cd57 2.439 . S
O61 C62 1.208 . S
C62 O60 1.247 . S
C62 O61 1.208 . S
C63 O68 1.247 . S
C63 O69 1.208 . S
C64 O56 1.315 . S
C64 O59 1.279 . S
C65 O66 1.315 . S
C65 O67 1.279 . S
O66 Cd58 2.223 . S
O66 C65 1.315 . S
O67 Cd57 2.240 . S
O67 C65 1.279 . S
O68 Cd58 2.297 . S
O68 C63 1.247 . S
O69 Cd58 2.439 . S
O69 C63 1.208 . S
O70 Cd71 2.223 . S
O70 C78 1.315 . S
Cd71 O70 2.223 . S
Cd71 O74 2.297 . S
Cd71 O75 2.439 . S
Cd71 O81 2.240 . S
Cd72 O73 2.240 . S
Cd72 O80 2.223 . S
Cd72 O82 2.297 . S
Cd72 O83 2.439 . S
O73 Cd72 2.240 . S
O73 C78 1.279 . S
O74 Cd71 2.297 . S
O74 C76 1.247 . S
O75 Cd71 2.439 . S
O75 C76 1.208 . S
C76 O74 1.247 . S
C76 O75 1.208 . S
C77 O82 1.247 . S
C77 O83 1.208 . S
C78 O70 1.315 . S
C78 O73 1.279 . S
C79 O80 1.315 . S
C79 O81 1.279 . S
O80 Cd72 2.223 . S
O80 C79 1.315 . S
O81 Cd71 2.240 . S
O81 C79 1.279 . S
O82 Cd72 2.297 . S
O82 C77 1.247 . S
O83 Cd72 2.439 . S
O83 C77 1.208 . S
O84 Cd85 2.223 . S
O84 C92 1.315 . S
Cd85 O84 2.223 . S
Cd85 O88 2.297 . S
Cd85 O89 2.439 . S
Cd85 O95 2.240 . S
Cd86 O87 2.240 . S
Cd86 O94 2.223 . S
Cd86 O96 2.297 . S
Cd86 O97 2.439 . S
O87 Cd86 2.240 . S
O87 C92 1.279 . S
O88 Cd85 2.297 . S
O88 C90 1.247 . S
O89 Cd85 2.439 . S
O89 C90 1.208 . S
C90 O88 1.247 . S
C90 O89 1.208 . S
C91 O96 1.247 . S
C91 O97 1.208 . S
C92 O84 1.315 . S
C92 O87 1.279 . S
C93 O94 1.315 . S
C93 O95 1.279 . S
O94 Cd86 2.223 . S
O94 C93 1.315 . S
O95 Cd85 2.240 . S
O95 C93 1.279 . S
O96 Cd86 2.297 . S
O96 C91 1.247 . S
O97 Cd86 2.439 . S
O97 C91 1.208 . S
O98 Cd99 2.223 . S
O98 C106 1.315 . S
Cd99 O98 2.223 . S
Cd99 O102 2.297 . S
Cd99 O103 2.439 . S
Cd99 O109 2.240 . S
Cd100 O101 2.240 . S
Cd100 O108 2.223 . S
Cd100 O110 2.297 . S
Cd100 O111 2.439 . S
O101 Cd100 2.240 . S
O101 C106 1.279 . S
O102 Cd99 2.297 . S
O102 C104 1.247 . S
O103 Cd99 2.439 . S
O103 C104 1.208 . S
C104 O102 1.247 . S
C104 O103 1.208 . S
C105 O110 1.247 . S
C105 O111 1.208 . S
C106 O98 1.315 . S
C106 O101 1.279 . S
C107 O108 1.315 . S
C107 O109 1.279 . S
O108 Cd100 2.223 . S
O108 C107 1.315 . S
O109 Cd99 2.240 . S
O109 C107 1.279 . S
O110 Cd100 2.297 . S
O110 C105 1.247 . S
O111 Cd100 2.439 . S
O111 C105 1.208 . S
O112 Cd113 2.223 . S
O112 C120 1.315 . S
Cd113 O112 2.223 . S
Cd113 O116 2.297 . S
Cd113 O117 2.439 . S
Cd113 O123 2.240 . S
Cd114 O115 2.240 . S
Cd114 O122 2.223 . S
Cd114 O124 2.297 . S
Cd114 O125 2.439 . S
O115 Cd114 2.240 . S
O115 C120 1.279 . S
O116 Cd113 2.297 . S
O116 C118 1.247 . S
O117 Cd113 2.439 . S
O117 C118 1.208 . S
C118 O116 1.247 . S
C118 O117 1.208 . S
C119 O124 1.247 . S
C119 O125 1.208 . S
C120 O112 1.315 . S
C120 O115 1.279 . S
C121 O122 1.315 . S
C121 O123 1.279 . S
O122 Cd114 2.223 . S
O122 C121 1.315 . S
O123 Cd113 2.240 . S
O123 C121 1.279 . S
O124 Cd114 2.297 . S
O124 C119 1.247 . S
O125 Cd114 2.439 . S
O125 C119 1.208 . S
O126 Cd127 2.223 . S
O126 C134 1.315 . S
Cd127 O126 2.223 . S
Cd127 O130 2.297 . S
Cd127 O131 2.439 . S
Cd127 O137 2.240 . S
Cd128 O129 2.240 . S
Cd128 O136 2.223 . S
Cd128 O138 2.297 . S
Cd128 O139 2.439 . S
O129 Cd128 2.240 . S
O129 C134 1.279 . S
O130 Cd127 2.297 . S
O130 C132 1.247 . S
O131 Cd127 2.439 . S
O131 C132 1.208 . S
C132 O130 1.247 . S
C132 O131 1.208 . S
C133 O138 1.247 . S
C133 O139 1.208 . S
C134 O126 1.315 . S
C134 O129 1.279 . S
C135 O136 1.315 . S
C135 O137 1.279 . S
O136 Cd128 2.223 . S
O136 C135 1.315 . S
O137 Cd127 2.240 . S
O137 C135 1.279 . S
O138 Cd128 2.297 . S
O138 C133 1.247 . S
O139 Cd128 2.439 . S
O139 C133 1.208 . S
O140 Cd141 2.223 . S
O140 C148 1.315 . S
Cd141 O140 2.223 . S
Cd141 O144 2.297 . S
Cd141 O145 2.439 . S
Cd141 O151 2.240 . S
Cd142 O143 2.240 . S
Cd142 O150 2.223 . S
Cd142 O152 2.297 . S
Cd142 O153 2.439 . S
O143 Cd142 2.240 . S
O143 C148 1.279 . S
O144 Cd141 2.297 . S
O144 C146 1.247 . S
O145 Cd141 2.439 . S
O145 C146 1.208 . S
C146 O144 1.247 . S
C146 O145 1.208 . S
C147 O152 1.247 . S
C147 O153 1.208 . S
C148 O140 1.315 . S
C148 O143 1.279 . S
C149 O150 1.315 . S
C149 O151 1.279 . S
O150 Cd142 2.223 . S
O150 C149 1.315 . S
O151 Cd141 2.240 . S
O151 C149 1.279 . S
O152 Cd142 2.297 . S
O152 C147 1.247 . S
O153 Cd142 2.439 . S
O153 C147 1.208 . S
O154 Cd155 2.223 . S
O154 C162 1.315 . S
Cd155 O154 2.223 . S
Cd155 O158 2.297 . S
Cd155 O159 2.439 . S
Cd155 O165 2.240 . S
Cd156 O157 2.240 . S
Cd156 O164 2.223 . S
Cd156 O166 2.297 . S
Cd156 O167 2.439 . S
O157 Cd156 2.240 . S
O157 C162 1.279 . S
O158 Cd155 2.297 . S
O158 C160 1.247 . S
O159 Cd155 2.439 . S
O159 C160 1.208 . S
C160 O158 1.247 . S
C160 O159 1.208 . S
C161 O166 1.247 . S
C161 O167 1.208 . S
C162 O154 1.315 . S
C162 O157 1.279 . S
C163 O164 1.315 . S
C163 O165 1.279 . S
O164 Cd156 2.223 . S
O164 C163 1.315 . S
O165 Cd155 2.240 . S
O165 C163 1.279 . S
O166 Cd156 2.297 . S
O166 C161 1.247 . S
O167 Cd156 2.439 . S
O167 C161 1.208 . S
O168 Cd169 2.219 1_455 S
O168 C176 1.337 . S
Cd169 O168 2.219 1_655 S
Cd169 O172 2.297 . S
Cd169 O173 2.439 1_655 S
Cd169 O179 2.240 1_655 S
Cd170 O171 2.240 . S
Cd170 O178 2.223 . S
Cd170 O180 2.297 . S
Cd170 O181 2.439 . S
O171 Cd170 2.240 . S
O171 C176 1.279 . S
O172 Cd169 2.297 . S
O172 C174 1.247 1_655 S
O173 Cd169 2.439 1_455 S
O173 C174 1.208 . S
C174 O172 1.247 1_455 S
C174 O173 1.208 . S
C175 O180 1.247 . S
C175 O181 1.208 . S
C176 O168 1.337 . S
C176 O171 1.279 . S
C177 O178 1.315 . S
C177 O179 1.279 . S
O178 Cd170 2.223 . S
O178 C177 1.315 . S
O179 Cd169 2.240 1_455 S
O179 C177 1.279 . S
O180 Cd170 2.297 . S
O180 C175 1.247 . S
O181 Cd170 2.439 . S
O181 C175 1.208 . S
O182 Cd183 2.223 . S
O182 C190 1.315 . S
Cd183 O182 2.223 . S
Cd183 O186 2.297 . S
Cd183 O187 2.439 . S
Cd183 O193 2.240 . S
Cd184 O185 2.240 . S
Cd184 O192 2.223 . S
Cd184 O194 2.297 . S
Cd184 O195 2.439 . S
O185 Cd184 2.240 . S
O185 C190 1.279 . S
O186 Cd183 2.297 . S
O186 C188 1.247 . S
O187 Cd183 2.439 . S
O187 C188 1.208 . S
C188 O186 1.247 . S
C188 O187 1.208 . S
C189 O194 1.247 . S
C189 O195 1.208 . S
C190 O182 1.315 . S
C190 O185 1.279 . S
C191 O192 1.315 . S
C191 O193 1.279 . S
O192 Cd184 2.223 . S
O192 C191 1.315 . S
O193 Cd183 2.240 . S
O193 C191 1.279 . S
O194 Cd184 2.297 . S
O194 C189 1.247 . S
O195 Cd184 2.439 . S
O195 C189 1.208 . S
O196 Cd197 2.222 1_565 S
O196 C204 1.331 . S
Cd197 O196 2.222 1_545 S
Cd197 O200 2.297 . S
Cd197 O201 2.439 1_545 S
Cd197 O207 2.240 1_545 S
Cd198 O199 2.240 . S
Cd198 O206 2.223 . S
Cd198 O208 2.297 . S
Cd198 O209 2.439 . S
O199 Cd198 2.240 . S
O199 C204 1.279 . S
O200 Cd197 2.297 . S
O200 C202 1.247 1_545 S
O201 Cd197 2.439 1_565 S
O201 C202 1.208 . S
C202 O200 1.247 1_565 S
C202 O201 1.208 . S
C203 O208 1.247 . S
C203 O209 1.208 . S
C204 O196 1.331 . S
C204 O199 1.279 . S
C205 O206 1.315 . S
C205 O207 1.279 . S
O206 Cd198 2.223 . S
O206 C205 1.315 . S
O207 Cd197 2.240 1_565 S
O207 C205 1.279 . S
O208 Cd198 2.297 . S
O208 C203 1.247 . S
O209 Cd198 2.439 . S
O209 C203 1.208 . S
O210 Cd211 2.223 . S
O210 C218 1.315 . S
Cd211 O210 2.223 . S
Cd211 O214 2.297 . S
Cd211 O215 2.439 . S
Cd211 O221 2.240 . S
Cd212 O213 2.240 . S
Cd212 O220 2.223 . S
Cd212 O222 2.297 . S
Cd212 O223 2.439 . S
O213 Cd212 2.240 . S
O213 C218 1.279 . S
O214 Cd211 2.297 . S
O214 C216 1.247 . S
O215 Cd211 2.439 . S
O215 C216 1.208 . S
C216 O214 1.247 . S
C216 O215 1.208 . S
C217 O222 1.247 . S
C217 O223 1.208 . S
C218 O210 1.315 . S
C218 O213 1.279 . S
C219 O220 1.315 . S
C219 O221 1.279 . S
O220 Cd212 2.223 . S
O220 C219 1.315 . S
O221 Cd211 2.240 . S
O221 C219 1.279 . S
O222 Cd212 2.297 . S
O222 C217 1.247 . S
O223 Cd212 2.439 . S
O223 C217 1.208 . S
O224 Cd225 2.223 . S
O224 C232 1.315 . S
Cd225 O224 2.223 . S
Cd225 O228 2.297 . S
Cd225 O229 2.439 . S
Cd225 O235 2.240 . S
Cd226 O227 2.240 . S
Cd226 O234 2.223 . S
Cd226 O236 2.297 . S
Cd226 O237 2.439 . S
O227 Cd226 2.240 . S
O227 C232 1.279 . S
O228 Cd225 2.297 . S
O228 C230 1.247 . S
O229 Cd225 2.439 . S
O229 C230 1.208 . S
C230 O228 1.247 . S
C230 O229 1.208 . S
C231 O236 1.247 . S
C231 O237 1.208 . S
C232 O224 1.315 . S
C232 O227 1.279 . S
C233 O234 1.315 . S
C233 O235 1.279 . S
O234 Cd226 2.223 . S
O234 C233 1.315 . S
O235 Cd225 2.240 . S
O235 C233 1.279 . S
O236 Cd226 2.297 . S
O236 C231 1.247 . S
O237 Cd226 2.439 . S
O237 C231 1.208 . S
O238 Cd239 2.223 . S
O238 C246 1.315 . S
Cd239 O238 2.223 . S
Cd239 O242 2.297 . S
Cd239 O243 2.439 . S
Cd239 O249 2.240 . S
Cd240 O241 2.240 . S
Cd240 O248 2.223 . S
Cd240 O250 2.297 . S
Cd240 O251 2.439 . S
O241 Cd240 2.240 . S
O241 C246 1.279 . S
O242 Cd239 2.297 . S
O242 C244 1.247 . S
O243 Cd239 2.439 . S
O243 C244 1.208 . S
C244 O242 1.247 . S
C244 O243 1.208 . S
C245 O250 1.247 . S
C245 O251 1.208 . S
C246 O238 1.315 . S
C246 O241 1.279 . S
C247 O248 1.315 . S
C247 O249 1.279 . S
O248 Cd240 2.223 . S
O248 C247 1.315 . S
O249 Cd239 2.240 . S
O249 C247 1.279 . S
O250 Cd240 2.297 . S
O250 C245 1.247 . S
O251 Cd240 2.439 . S
O251 C245 1.208 . S
O252 Cd253 2.223 . S
O252 C260 1.315 . S
Cd253 O252 2.223 . S
Cd253 O256 2.297 . S
Cd253 O257 2.439 . S
Cd253 O263 2.240 . S
Cd254 O255 2.240 . S
Cd254 O262 2.223 . S
Cd254 O264 2.297 . S
Cd254 O265 2.439 . S
O255 Cd254 2.240 . S
O255 C260 1.279 . S
O256 Cd253 2.297 . S
O256 C258 1.247 . S
O257 Cd253 2.439 . S
O257 C258 1.208 . S
C258 O256 1.247 . S
C258 O257 1.208 . S
C259 O264 1.247 . S
C259 O265 1.208 . S
C260 O252 1.315 . S
C260 O255 1.279 . S
C261 O262 1.315 . S
C261 O263 1.279 . S
O262 Cd254 2.223 . S
O262 C261 1.315 . S
O263 Cd253 2.240 . S
O263 C261 1.279 . S
O264 Cd254 2.297 . S
O264 C259 1.247 . S
O265 Cd254 2.439 . S
O265 C259 1.208 . S
O266 Cd267 2.223 . S
O266 C274 1.315 . S
Cd267 O266 2.223 . S
Cd267 O270 2.297 . S
Cd267 O271 2.439 . S
Cd267 O277 2.240 . S
Cd268 O269 2.240 . S
Cd268 O276 2.223 . S
Cd268 O278 2.297 . S
Cd268 O279 2.439 . S
O269 Cd268 2.240 . S
O269 C274 1.279 . S
O270 Cd267 2.297 . S
O270 C272 1.247 . S
O271 Cd267 2.439 . S
O271 C272 1.208 . S
C272 O270 1.247 . S
C272 O271 1.208 . S
C273 O278 1.247 . S
C273 O279 1.208 . S
C274 O266 1.315 . S
C274 O269 1.279 . S
C275 O276 1.315 . S
C275 O277 1.279 . S
O276 Cd268 2.223 . S
O276 C275 1.315 . S
O277 Cd267 2.240 . S
O277 C275 1.279 . S
O278 Cd268 2.297 . S
O278 C273 1.247 . S
O279 Cd268 2.439 . S
O279 C273 1.208 . S
O280 Cd281 2.223 . S
O280 C288 1.315 . S
Cd281 O280 2.223 . S
Cd281 O284 2.297 . S
Cd281 O285 2.439 . S
Cd281 O291 2.240 . S
Cd282 O283 2.240 . S
Cd282 O290 2.223 . S
Cd282 O292 2.297 . S
Cd282 O293 2.439 . S
O283 Cd282 2.240 . S
O283 C288 1.279 . S
O284 Cd281 2.297 . S
O284 C286 1.247 . S
O285 Cd281 2.439 . S
O285 C286 1.208 . S
C286 O284 1.247 . S
C286 O285 1.208 . S
C287 O292 1.247 . S
C287 O293 1.208 . S
C288 O280 1.315 . S
C288 O283 1.279 . S
C289 O290 1.315 . S
C289 O291 1.279 . S
O290 Cd282 2.223 . S
O290 C289 1.315 . S
O291 Cd281 2.240 . S
O291 C289 1.279 . S
O292 Cd282 2.297 . S
O292 C287 1.247 . S
O293 Cd282 2.439 . S
O293 C287 1.208 . S
O294 Cd295 2.219 1_565 S
O294 C302 1.337 . S
Cd295 O294 2.219 1_545 S
Cd295 O298 2.297 . S
Cd295 O299 2.439 1_545 S
Cd295 O305 2.240 1_545 S
Cd296 O297 2.240 . S
Cd296 O304 2.223 . S
Cd296 O306 2.297 . S
Cd296 O307 2.439 . S
O297 Cd296 2.240 . S
O297 C302 1.279 . S
O298 Cd295 2.297 . S
O298 C300 1.247 1_545 S
O299 Cd295 2.439 1_565 S
O299 C300 1.208 . S
C300 O298 1.247 1_565 S
C300 O299 1.208 . S
C301 O306 1.247 . S
C301 O307 1.208 . S
C302 O294 1.337 . S
C302 O297 1.279 . S
C303 O304 1.315 . S
C303 O305 1.279 . S
O304 Cd296 2.223 . S
O304 C303 1.315 . S
O305 Cd295 2.240 1_565 S
O305 C303 1.279 . S
O306 Cd296 2.297 . S
O306 C301 1.247 . S
O307 Cd296 2.439 . S
O307 C301 1.208 . S
O308 Cd309 2.222 1_455 S
O308 C316 1.331 . S
Cd309 O308 2.222 1_655 S
Cd309 O312 2.297 . S
Cd309 O313 2.439 1_655 S
Cd309 O319 2.240 1_655 S
Cd310 O311 2.240 . S
Cd310 O318 2.223 . S
Cd310 O320 2.297 . S
Cd310 O321 2.439 . S
O311 Cd310 2.240 . S
O311 C316 1.279 . S
O312 Cd309 2.297 . S
O312 C314 1.247 1_655 S
O313 Cd309 2.439 1_455 S
O313 C314 1.208 . S
C314 O312 1.247 1_455 S
C314 O313 1.208 . S
C315 O320 1.247 . S
C315 O321 1.208 . S
C316 O308 1.331 . S
C316 O311 1.279 . S
C317 O318 1.315 . S
C317 O319 1.279 . S
O318 Cd310 2.223 . S
O318 C317 1.315 . S
O319 Cd309 2.240 1_455 S
O319 C317 1.279 . S
O320 Cd310 2.297 . S
O320 C315 1.247 . S
O321 Cd310 2.439 . S
O321 C315 1.208 . S
O322 Cd323 2.223 . S
O322 C330 1.315 . S
Cd323 O322 2.223 . S
Cd323 O326 2.297 . S
Cd323 O327 2.439 . S
Cd323 O333 2.240 . S
Cd324 O325 2.240 . S
Cd324 O332 2.223 . S
Cd324 O334 2.297 . S
Cd324 O335 2.439 . S
O325 Cd324 2.240 . S
O325 C330 1.279 . S
O326 Cd323 2.297 . S
O326 C328 1.247 . S
O327 Cd323 2.439 . S
O327 C328 1.208 . S
C328 O326 1.247 . S
C328 O327 1.208 . S
C329 O334 1.247 . S
C329 O335 1.208 . S
C330 O322 1.315 . S
C330 O325 1.279 . S
C331 O332 1.315 . S
C331 O333 1.279 . S
O332 Cd324 2.223 . S
O332 C331 1.315 . S
O333 Cd323 2.240 . S
O333 C331 1.279 . S
O334 Cd324 2.297 . S
O334 C329 1.247 . S
O335 Cd324 2.439 . S
O335 C329 1.208 . S
O336 Cd337 2.223 . S
O336 C344 1.315 . S
Cd337 O336 2.223 . S
Cd337 O340 2.297 . S
Cd337 O341 2.439 . S
Cd337 O347 2.240 . S
Cd338 O339 2.240 . S
Cd338 O346 2.223 . S
Cd338 O348 2.297 . S
Cd338 O349 2.439 . S
O339 Cd338 2.240 . S
O339 C344 1.279 . S
O340 Cd337 2.297 . S
O340 C342 1.247 . S
O341 Cd337 2.439 . S
O341 C342 1.208 . S
C342 O340 1.247 . S
C342 O341 1.208 . S
C343 O348 1.247 . S
C343 O349 1.208 . S
C344 O336 1.315 . S
C344 O339 1.279 . S
C345 O346 1.315 . S
C345 O347 1.279 . S
O346 Cd338 2.223 . S
O346 C345 1.315 . S
O347 Cd337 2.240 . S
O347 C345 1.279 . S
O348 Cd338 2.297 . S
O348 C343 1.247 . S
O349 Cd338 2.439 . S
O349 C343 1.208 . S
O350 Cd351 2.223 . S
O350 C358 1.315 . S
Cd351 O350 2.223 . S
Cd351 O354 2.297 . S
Cd351 O355 2.439 . S
Cd351 O361 2.240 . S
Cd352 O353 2.240 . S
Cd352 O360 2.223 . S
Cd352 O362 2.297 . S
Cd352 O363 2.439 . S
O353 Cd352 2.240 . S
O353 C358 1.279 . S
O354 Cd351 2.297 . S
O354 C356 1.247 . S
O355 Cd351 2.439 . S
O355 C356 1.208 . S
C356 O354 1.247 . S
C356 O355 1.208 . S
C357 O362 1.247 . S
C357 O363 1.208 . S
C358 O350 1.315 . S
C358 O353 1.279 . S
C359 O360 1.315 . S
C359 O361 1.279 . S
O360 Cd352 2.223 . S
O360 C359 1.315 . S
O361 Cd351 2.240 . S
O361 C359 1.279 . S
O362 Cd352 2.297 . S
O362 C357 1.247 . S
O363 Cd352 2.439 . S
O363 C357 1.208 . S
O364 Cd365 2.223 . S
O364 C372 1.315 . S
Cd365 O364 2.223 . S
Cd365 O368 2.297 . S
Cd365 O369 2.439 . S
Cd365 O375 2.240 . S
Cd366 O367 2.240 . S
Cd366 O374 2.223 . S
Cd366 O376 2.297 . S
Cd366 O377 2.439 . S
O367 Cd366 2.240 . S
O367 C372 1.279 . S
O368 Cd365 2.297 . S
O368 C370 1.247 . S
O369 Cd365 2.439 . S
O369 C370 1.208 . S
C370 O368 1.247 . S
C370 O369 1.208 . S
C371 O376 1.247 . S
C371 O377 1.208 . S
C372 O364 1.315 . S
C372 O367 1.279 . S
C373 O374 1.315 . S
C373 O375 1.279 . S
O374 Cd366 2.223 . S
O374 C373 1.315 . S
O375 Cd365 2.240 . S
O375 C373 1.279 . S
O376 Cd366 2.297 . S
O376 C371 1.247 . S
O377 Cd366 2.439 . S
O377 C371 1.208 . S
O378 Cd379 2.219 1_545 S
O378 C386 1.337 . S
Cd379 O378 2.219 1_565 S
Cd379 O382 2.297 . S
Cd379 O383 2.439 1_565 S
Cd379 O389 2.240 1_565 S
Cd380 O381 2.240 . S
Cd380 O388 2.223 . S
Cd380 O390 2.297 . S
Cd380 O391 2.439 . S
O381 Cd380 2.240 . S
O381 C386 1.279 . S
O382 Cd379 2.297 . S
O382 C384 1.247 1_565 S
O383 Cd379 2.439 1_545 S
O383 C384 1.208 . S
C384 O382 1.247 1_545 S
C384 O383 1.208 . S
C385 O390 1.247 . S
C385 O391 1.208 . S
C386 O378 1.337 . S
C386 O381 1.279 . S
C387 O388 1.315 . S
C387 O389 1.279 . S
O388 Cd380 2.223 . S
O388 C387 1.315 . S
O389 Cd379 2.240 1_545 S
O389 C387 1.279 . S
O390 Cd380 2.297 . S
O390 C385 1.247 . S
O391 Cd380 2.439 . S
O391 C385 1.208 . S
O392 Cd393 2.222 1_655 S
O392 C400 1.331 . S
Cd393 O392 2.222 1_455 S
Cd393 O396 2.297 . S
Cd393 O397 2.439 1_455 S
Cd393 O403 2.240 1_455 S
Cd394 O395 2.240 . S
Cd394 O402 2.223 . S
Cd394 O404 2.297 . S
Cd394 O405 2.439 . S
O395 Cd394 2.240 . S
O395 C400 1.279 . S
O396 Cd393 2.297 . S
O396 C398 1.247 1_455 S
O397 Cd393 2.439 1_655 S
O397 C398 1.208 . S
C398 O396 1.247 1_655 S
C398 O397 1.208 . S
C399 O404 1.247 . S
C399 O405 1.208 . S
C400 O392 1.331 . S
C400 O395 1.279 . S
C401 O402 1.315 . S
C401 O403 1.279 . S
O402 Cd394 2.223 . S
O402 C401 1.315 . S
O403 Cd393 2.240 1_655 S
O403 C401 1.279 . S
O404 Cd394 2.297 . S
O404 C399 1.247 . S
O405 Cd394 2.439 . S
O405 C399 1.208 . S
O406 Cd407 2.223 . S
O406 C414 1.315 . S
Cd407 O406 2.223 . S
Cd407 O410 2.297 . S
Cd407 O411 2.439 . S
Cd407 O417 2.240 . S
Cd408 O409 2.240 . S
Cd408 O416 2.223 . S
Cd408 O418 2.297 . S
Cd408 O419 2.439 . S
O409 Cd408 2.240 . S
O409 C414 1.279 . S
O410 Cd407 2.297 . S
O410 C412 1.247 . S
O411 Cd407 2.439 . S
O411 C412 1.208 . S
C412 O410 1.247 . S
C412 O411 1.208 . S
C413 O418 1.247 . S
C413 O419 1.208 . S
C414 O406 1.315 . S
C414 O409 1.279 . S
C415 O416 1.315 . S
C415 O417 1.279 . S
O416 Cd408 2.223 . S
O416 C415 1.315 . S
O417 Cd407 2.240 . S
O417 C415 1.279 . S
O418 Cd408 2.297 . S
O418 C413 1.247 . S
O419 Cd408 2.439 . S
O419 C413 1.208 . S
O420 Cd421 2.219 1_655 S
O420 C428 1.337 . S
Cd421 O420 2.219 1_455 S
Cd421 O424 2.297 . S
Cd421 O425 2.439 1_455 S
Cd421 O431 2.240 1_455 S
Cd422 O423 2.240 . S
Cd422 O430 2.223 . S
Cd422 O432 2.297 . S
Cd422 O433 2.439 . S
O423 Cd422 2.240 . S
O423 C428 1.279 . S
O424 Cd421 2.297 . S
O424 C426 1.247 1_455 S
O425 Cd421 2.439 1_655 S
O425 C426 1.208 . S
C426 O424 1.247 1_655 S
C426 O425 1.208 . S
C427 O432 1.247 . S
C427 O433 1.208 . S
C428 O420 1.337 . S
C428 O423 1.279 . S
C429 O430 1.315 . S
C429 O431 1.279 . S
O430 Cd422 2.223 . S
O430 C429 1.315 . S
O431 Cd421 2.240 1_655 S
O431 C429 1.279 . S
O432 Cd422 2.297 . S
O432 C427 1.247 . S
O433 Cd422 2.439 . S
O433 C427 1.208 . S
O434 Cd435 2.223 . S
O434 C442 1.315 . S
Cd435 O434 2.223 . S
Cd435 O438 2.297 . S
Cd435 O439 2.439 . S
Cd435 O445 2.240 . S
Cd436 O437 2.240 . S
Cd436 O444 2.223 . S
Cd436 O446 2.297 . S
Cd436 O447 2.439 . S
O437 Cd436 2.240 . S
O437 C442 1.279 . S
O438 Cd435 2.297 . S
O438 C440 1.247 . S
O439 Cd435 2.439 . S
O439 C440 1.208 . S
C440 O438 1.247 . S
C440 O439 1.208 . S
C441 O446 1.247 . S
C441 O447 1.208 . S
C442 O434 1.315 . S
C442 O437 1.279 . S
C443 O444 1.315 . S
C443 O445 1.279 . S
O444 Cd436 2.223 . S
O444 C443 1.315 . S
O445 Cd435 2.240 . S
O445 C443 1.279 . S
O446 Cd436 2.297 . S
O446 C441 1.247 . S
O447 Cd436 2.439 . S
O447 C441 1.208 . S
O448 Cd449 2.222 1_545 S
O448 C456 1.331 . S
Cd449 O448 2.222 1_565 S
Cd449 O452 2.297 . S
Cd449 O453 2.439 1_565 S
Cd449 O459 2.240 1_565 S
Cd450 O451 2.240 . S
Cd450 O458 2.223 . S
Cd450 O460 2.297 . S
Cd450 O461 2.439 . S
O451 Cd450 2.240 . S
O451 C456 1.279 . S
O452 Cd449 2.297 . S
O452 C454 1.247 1_565 S
O453 Cd449 2.439 1_545 S
O453 C454 1.208 . S
C454 O452 1.247 1_545 S
C454 O453 1.208 . S
C455 O460 1.247 . S
C455 O461 1.208 . S
C456 O448 1.331 . S
C456 O451 1.279 . S
C457 O458 1.315 . S
C457 O459 1.279 . S
O458 Cd450 2.223 . S
O458 C457 1.315 . S
O459 Cd449 2.240 1_545 S
O459 C457 1.279 . S
O460 Cd450 2.297 . S
O460 C455 1.247 . S
O461 Cd450 2.439 . S
O461 C455 1.208 . S
O462 Cd463 2.223 . S
O462 C470 1.315 . S
Cd463 O462 2.223 . S
Cd463 O466 2.297 . S
Cd463 O467 2.439 . S
Cd463 O473 2.240 . S
Cd464 O465 2.240 . S
Cd464 O472 2.223 . S
Cd464 O474 2.297 . S
Cd464 O475 2.439 . S
O465 Cd464 2.240 . S
O465 C470 1.279 . S
O466 Cd463 2.297 . S
O466 C468 1.247 . S
O467 Cd463 2.439 . S
O467 C468 1.208 . S
C468 O466 1.247 . S
C468 O467 1.208 . S
C469 O474 1.247 . S
C469 O475 1.208 . S
C470 O462 1.315 . S
C470 O465 1.279 . S
C471 O472 1.315 . S
C471 O473 1.279 . S
O472 Cd464 2.223 . S
O472 C471 1.315 . S
O473 Cd463 2.240 . S
O473 C471 1.279 . S
O474 Cd464 2.297 . S
O474 C469 1.247 . S
O475 Cd464 2.439 . S
O475 C469 1.208 . S
O476 Cd477 2.223 . S
O476 C484 1.315 . S
Cd477 O476 2.223 . S
Cd477 O480 2.297 . S
Cd477 O481 2.439 . S
Cd477 O487 2.240 . S
Cd478 O479 2.240 . S
Cd478 O486 2.223 . S
Cd478 O488 2.297 . S
Cd478 O489 2.439 . S
O479 Cd478 2.240 . S
O479 C484 1.279 . S
O480 Cd477 2.297 . S
O480 C482 1.247 . S
O481 Cd477 2.439 . S
O481 C482 1.208 . S
C482 O480 1.247 . S
C482 O481 1.208 . S
C483 O488 1.247 . S
C483 O489 1.208 . S
C484 O476 1.315 . S
C484 O479 1.279 . S
C485 O486 1.315 . S
C485 O487 1.279 . S
O486 Cd478 2.223 . S
O486 C485 1.315 . S
O487 Cd477 2.240 . S
O487 C485 1.279 . S
O488 Cd478 2.297 . S
O488 C483 1.247 . S
O489 Cd478 2.439 . S
O489 C483 1.208 . S
O490 Cd491 2.223 . S
O490 C498 1.315 . S
Cd491 O490 2.223 . S
Cd491 O494 2.297 . S
Cd491 O495 2.439 . S
Cd491 O501 2.240 . S
Cd492 O493 2.240 . S
Cd492 O500 2.223 . S
Cd492 O502 2.297 . S
Cd492 O503 2.439 . S
O493 Cd492 2.240 . S
O493 C498 1.279 . S
O494 Cd491 2.297 . S
O494 C496 1.247 . S
O495 Cd491 2.439 . S
O495 C496 1.208 . S
C496 O494 1.247 . S
C496 O495 1.208 . S
C497 O502 1.247 . S
C497 O503 1.208 . S
C498 O490 1.315 . S
C498 O493 1.279 . S
C499 O500 1.315 . S
C499 O501 1.279 . S
O500 Cd492 2.223 . S
O500 C499 1.315 . S
O501 Cd491 2.240 . S
O501 C499 1.279 . S
O502 Cd492 2.297 . S
O502 C497 1.247 . S
O503 Cd492 2.439 . S
O503 C497 1.208 . S
C504 C505 1.391 . S
C504 C506 1.394 . S
C504 H520 0.931 . S
C505 C504 1.391 . S
C505 C509 1.376 . S
C506 C504 1.394 . S
C506 C507 1.369 . S
C506 C510 1.531 . S
C507 C506 1.369 . S
C507 C508 1.410 . S
C507 C515 1.503 1_565 S
C508 C507 1.410 . S
C508 C509 1.392 . S
C508 C511 1.511 . S
C509 C505 1.376 . S
C509 C508 1.392 . S
C509 H521 0.929 . S
C510 C506 1.531 . S
C510 H522 0.982 . S
C510 H523 0.962 . S
C510 H524 0.960 . S
C511 C508 1.511 . S
C511 H525 0.961 . S
C511 H526 0.961 1_565 S
C511 H527 0.961 . S
C512 C513 1.370 . S
C512 C514 1.363 . S
C512 H528 0.931 . S
C513 C512 1.370 . S
C513 C517 1.408 . S
C514 C512 1.363 . S
C514 C515 1.370 . S
C514 C518 1.524 . S
C515 C507 1.503 1_545 S
C515 C514 1.370 . S
C515 C516 1.403 . S
C516 C515 1.403 . S
C516 C517 1.404 . S
C516 C519 1.539 . S
C517 C513 1.408 . S
C517 C516 1.404 . S
C517 H529 0.930 . S
C518 C514 1.524 . S
C518 H530 0.956 . S
C518 H531 0.973 . S
C518 H532 0.961 . S
C519 C516 1.539 . S
C519 H533 0.958 . S
C519 H534 0.961 . S
C519 H535 0.923 1_545 S
H520 C504 0.931 . S
H521 C509 0.929 . S
H522 C510 0.982 . S
H523 C510 0.962 . S
H524 C510 0.960 . S
H525 C511 0.961 . S
H526 C511 0.961 1_545 S
H527 C511 0.961 . S
H528 C512 0.931 . S
H529 C517 0.930 . S
H530 C518 0.956 . S
H531 C518 0.973 . S
H532 C518 0.961 . S
H533 C519 0.958 . S
H534 C519 0.961 . S
H535 C519 0.923 1_565 S
C536 C537 1.391 . S
C536 C538 1.394 . S
C536 H552 0.931 . S
C537 C536 1.391 . S
C537 C541 1.376 . S
C538 C536 1.394 . S
C538 C539 1.369 . S
C538 C542 1.531 . S
C539 C538 1.369 . S
C539 C540 1.410 . S
C539 C547 1.503 1_455 S
C540 C539 1.410 . S
C540 C541 1.392 . S
C540 C543 1.511 . S
C541 C537 1.376 . S
C541 C540 1.392 . S
C541 H553 0.929 . S
C542 C538 1.531 . S
C542 H554 0.960 1_455 S
C542 H555 0.962 . S
C542 H556 0.960 . S
C543 C540 1.511 . S
C543 H557 0.961 . S
C543 H558 0.966 1_455 S
C543 H559 0.961 . S
C544 C545 1.370 . S
C544 C546 1.363 . S
C544 H560 0.931 . S
C545 C544 1.370 . S
C545 C549 1.408 . S
C546 C544 1.363 . S
C546 C547 1.370 . S
C546 C550 1.524 . S
C547 C539 1.503 1_655 S
C547 C546 1.370 . S
C547 C548 1.403 . S
C548 C547 1.403 . S
C548 C549 1.404 . S
C548 C551 1.539 . S
C549 C545 1.408 . S
C549 C548 1.404 . S
C549 H561 0.930 . S
C550 C546 1.524 . S
C550 H562 0.956 . S
C550 H563 0.906 1_655 S
C550 H564 0.961 . S
C551 C548 1.539 . S
C551 H565 0.958 . S
C551 H566 0.961 . S
C551 H567 0.904 1_655 S
H552 C536 0.931 . S
H553 C541 0.929 . S
H554 C542 0.960 1_655 S
H555 C542 0.962 . S
H556 C542 0.960 . S
H557 C543 0.961 . S
H558 C543 0.966 1_655 S
H559 C543 0.961 . S
H560 C544 0.931 . S
H561 C549 0.930 . S
H562 C550 0.956 . S
H563 C550 0.906 1_455 S
H564 C550 0.961 . S
H565 C551 0.958 . S
H566 C551 0.961 . S
H567 C551 0.904 1_455 S
C568 C569 1.391 . S
C568 C570 1.394 . S
C568 H584 0.931 . S
C569 C568 1.391 . S
C569 C573 1.376 . S
C570 C568 1.394 . S
C570 C571 1.369 . S
C570 C574 1.531 . S
C571 C570 1.369 . S
C571 C572 1.410 . S
C571 C579 1.503 . S
C572 C571 1.410 . S
C572 C573 1.392 . S
C572 C575 1.511 . S
C573 C569 1.376 . S
C573 C572 1.392 . S
C573 H585 0.929 . S
C574 C570 1.531 . S
C574 H586 0.960 . S
C574 H587 0.962 . S
C574 H588 0.960 . S
C575 C572 1.511 . S
C575 H589 0.961 . S
C575 H590 0.961 . S
C575 H591 0.961 . S
C576 C577 1.370 . S
C576 C578 1.363 . S
C576 H592 0.931 . S
C577 C576 1.370 . S
C577 C581 1.408 . S
C578 C576 1.363 . S
C578 C579 1.370 . S
C578 C582 1.524 . S
C579 C571 1.503 . S
C579 C578 1.370 . S
C579 C580 1.403 . S
C580 C579 1.403 . S
C580 C581 1.404 . S
C580 C583 1.539 . S
C581 C577 1.408 . S
C581 C580 1.404 . S
C581 H593 0.930 . S
C582 C578 1.524 . S
C582 H594 0.956 . S
C582 H595 0.961 . S
C582 H596 0.961 . S
C583 C580 1.539 . S
C583 H597 0.958 . S
C583 H598 0.961 . S
C583 H599 0.960 . S
H584 C568 0.931 . S
H585 C573 0.929 . S
H586 C574 0.960 . S
H587 C574 0.962 . S
H588 C574 0.960 . S
H589 C575 0.961 . S
H590 C575 0.961 . S
H591 C575 0.961 . S
H592 C576 0.931 . S
H593 C581 0.930 . S
H594 C582 0.956 . S
H595 C582 0.961 . S
H596 C582 0.961 . S
H597 C583 0.958 . S
H598 C583 0.961 . S
H599 C583 0.960 . S
C600 C601 1.391 . S
C600 C602 1.394 . S
C600 H616 0.931 . S
C601 C600 1.391 . S
C601 C605 1.376 . S
C602 C600 1.394 . S
C602 C603 1.369 . S
C602 C606 1.531 . S
C603 C602 1.369 . S
C603 C604 1.410 . S
C603 C611 1.503 1_565 S
C604 C603 1.410 . S
C604 C605 1.392 . S
C604 C607 1.511 . S
C605 C601 1.376 . S
C605 C604 1.392 . S
C605 H617 0.929 . S
C606 C602 1.531 . S
C606 H618 0.965 . S
C606 H619 0.962 . S
C606 H620 0.960 . S
C607 C604 1.511 . S
C607 H621 0.961 . S
C607 H622 0.961 1_565 S
C607 H623 0.961 . S
C608 C609 1.370 . S
C608 C610 1.363 . S
C608 H624 0.931 . S
C609 C608 1.370 . S
C609 C613 1.408 . S
C610 C608 1.363 . S
C610 C611 1.370 . S
C610 C614 1.524 . S
C611 C603 1.503 1_545 S
C611 C610 1.370 . S
C611 C612 1.403 . S
C612 C611 1.403 . S
C612 C613 1.404 . S
C612 C615 1.539 . S
C613 C609 1.408 . S
C613 C612 1.404 . S
C613 H625 0.930 . S
C614 C610 1.524 . S
C614 H626 0.956 . S
C614 H627 0.975 . S
C614 H628 0.961 . S
C615 C612 1.539 . S
C615 H629 0.958 . S
C615 H630 0.961 . S
C615 H631 0.960 1_545 S
H616 C600 0.931 . S
H617 C605 0.929 . S
H618 C606 0.965 . S
H619 C606 0.962 . S
H620 C606 0.960 . S
H621 C607 0.961 . S
H622 C607 0.961 1_545 S
H623 C607 0.961 . S
H624 C608 0.931 . S
H625 C613 0.930 . S
H626 C614 0.956 . S
H627 C614 0.975 . S
H628 C614 0.961 . S
H629 C615 0.958 . S
H630 C615 0.961 . S
H631 C615 0.960 1_565 S
C632 C633 1.391 . S
C632 C634 1.394 . S
C632 H648 0.931 . S
C633 C632 1.391 . S
C633 C637 1.376 . S
C634 C632 1.394 . S
C634 C635 1.369 . S
C634 C638 1.531 . S
C635 C634 1.369 . S
C635 C636 1.410 . S
C635 C643 1.503 1_455 S
C636 C635 1.410 . S
C636 C637 1.392 . S
C636 C639 1.511 . S
C637 C633 1.376 . S
C637 C636 1.392 . S
C637 H649 0.929 . S
C638 C634 1.531 . S
C638 H650 0.972 . S
C638 H651 0.962 . S
C638 H652 0.960 . S
C639 C636 1.511 . S
C639 H653 0.961 . S
C639 H654 0.961 1_455 S
C639 H655 0.961 . S
C640 C641 1.370 . S
C640 C642 1.363 . S
C640 H656 0.931 . S
C641 C640 1.370 . S
C641 C645 1.408 . S
C642 C640 1.363 . S
C642 C643 1.370 . S
C642 C646 1.524 . S
C643 C635 1.503 1_655 S
C643 C642 1.370 . S
C643 C644 1.403 . S
C644 C643 1.403 . S
C644 C645 1.404 . S
C644 C647 1.539 . S
C645 C641 1.408 . S
C645 C644 1.404 . S
C645 H657 0.930 . S
C646 C642 1.524 . S
C646 H658 0.962 . S
C646 H659 0.952 1_655 S
C646 H660 0.961 . S
C647 C644 1.539 . S
C647 H661 0.958 . S
C647 H662 0.961 . S
C647 H663 0.984 . S
H648 C632 0.931 . S
H649 C637 0.929 . S
H650 C638 0.972 . S
H651 C638 0.962 . S
H652 C638 0.960 . S
H653 C639 0.961 . S
H654 C639 0.961 1_655 S
H655 C639 0.961 . S
H656 C640 0.931 . S
H657 C645 0.930 . S
H658 C646 0.962 . S
H659 C646 0.952 1_455 S
H660 C646 0.961 . S
H661 C647 0.958 . S
H662 C647 0.961 . S
H663 C647 0.984 . S
C664 C665 1.391 . S
C664 C666 1.394 . S
C664 H680 0.931 . S
C665 C664 1.391 . S
C665 C669 1.376 . S
C666 C664 1.394 . S
C666 C667 1.369 . S
C666 C670 1.531 . S
C667 C666 1.369 . S
C667 C668 1.410 . S
C667 C675 1.503 . S
C668 C667 1.410 . S
C668 C669 1.392 . S
C668 C671 1.511 . S
C669 C665 1.376 . S
C669 C668 1.392 . S
C669 H681 0.929 . S
C670 C666 1.531 . S
C670 H682 0.960 . S
C670 H683 0.962 . S
C670 H684 0.960 . S
C671 C668 1.511 . S
C671 H685 0.961 . S
C671 H686 0.961 . S
C671 H687 0.961 . S
C672 C673 1.370 . S
C672 C674 1.363 . S
C672 H688 0.931 . S
C673 C672 1.370 . S
C673 C677 1.408 . S
C674 C672 1.363 . S
C674 C675 1.370 . S
C674 C678 1.524 . S
C675 C667 1.503 . S
C675 C674 1.370 . S
C675 C676 1.403 . S
C676 C675 1.403 . S
C676 C677 1.404 . S
C676 C679 1.539 . S
C677 C673 1.408 . S
C677 C676 1.404 . S
C677 H689 0.930 . S
C678 C674 1.524 . S
C678 H690 0.956 . S
C678 H691 0.961 . S
C678 H692 0.961 . S
C679 C676 1.539 . S
C679 H693 0.958 . S
C679 H694 0.961 . S
C679 H695 0.960 . S
H680 C664 0.931 . S
H681 C669 0.929 . S
H682 C670 0.960 . S
H683 C670 0.962 . S
H684 C670 0.960 . S
H685 C671 0.961 . S
H686 C671 0.961 . S
H687 C671 0.961 . S
H688 C672 0.931 . S
H689 C677 0.930 . S
H690 C678 0.956 . S
H691 C678 0.961 . S
H692 C678 0.961 . S
H693 C679 0.958 . S
H694 C679 0.961 . S
H695 C679 0.960 . S
C696 C697 1.391 . S
C696 C698 1.394 . S
C696 H712 0.931 . S
C697 C696 1.391 . S
C697 C701 1.310 1_655 S
C698 C696 1.394 . S
C698 C699 1.369 . S
C698 C702 1.531 . S
C699 C698 1.369 . S
C699 C700 1.410 . S
C699 C707 1.503 . S
C700 C699 1.410 . S
C700 C701 1.394 1_655 S
C700 C703 1.511 1_655 S
C701 C697 1.310 1_455 S
C701 C700 1.394 1_455 S
C701 H713 0.999 . S
C702 C698 1.531 . S
C702 H714 0.960 . S
C702 H715 0.962 . S
C702 H716 0.960 . S
C703 C700 1.511 1_455 S
C703 H717 0.961 . S
C703 H718 0.961 1_455 S
C703 H719 0.961 1_455 S
C704 C705 1.370 . S
C704 C706 1.363 . S
C704 H720 0.931 . S
C705 C704 1.370 . S
C705 C709 1.408 . S
C706 C704 1.363 . S
C706 C707 1.370 . S
C706 C710 1.524 . S
C707 C699 1.503 . S
C707 C706 1.370 . S
C707 C708 1.403 . S
C708 C707 1.403 . S
C708 C709 1.404 . S
C708 C711 1.539 . S
C709 C705 1.408 . S
C709 C708 1.404 . S
C709 H721 0.930 . S
C710 C706 1.524 . S
C710 H722 0.956 . S
C710 H723 0.961 . S
C710 H724 0.961 . S
C711 C708 1.539 . S
C711 H725 0.958 . S
C711 H726 0.961 . S
C711 H727 0.960 . S
H712 C696 0.931 . S
H713 C701 0.999 . S
H714 C702 0.960 . S
H715 C702 0.962 . S
H716 C702 0.960 . S
H717 C703 0.961 . S
H718 C703 0.961 1_655 S
H719 C703 0.961 1_655 S
H720 C704 0.931 . S
H721 C709 0.930 . S
H722 C710 0.956 . S
H723 C710 0.961 . S
H724 C710 0.961 . S
H725 C711 0.958 . S
H726 C711 0.961 . S
H727 C711 0.960 . S
C728 C729 1.391 . S
C728 C730 1.394 . S
C728 H744 0.931 . S
C729 C728 1.391 . S
C729 C733 1.376 . S
C730 C728 1.394 . S
C730 C731 1.369 . S
C730 C734 1.531 . S
C731 C730 1.369 . S
C731 C732 1.410 . S
C731 C739 1.503 . S
C732 C731 1.410 . S
C732 C733 1.392 . S
C732 C735 1.511 . S
C733 C729 1.376 . S
C733 C732 1.392 . S
C733 H745 0.929 . S
C734 C730 1.531 . S
C734 H746 0.960 . S
C734 H747 0.962 . S
C734 H748 0.960 . S
C735 C732 1.511 . S
C735 H749 0.961 . S
C735 H750 0.961 . S
C735 H751 0.961 . S
C736 C737 1.370 . S
C736 C738 1.363 . S
C736 H752 0.931 . S
C737 C736 1.370 . S
C737 C741 1.408 . S
C738 C736 1.363 . S
C738 C739 1.370 . S
C738 C742 1.524 . S
C739 C731 1.503 . S
C739 C738 1.370 . S
C739 C740 1.403 . S
C740 C739 1.403 . S
C740 C741 1.404 . S
C740 C743 1.539 . S
C741 C737 1.408 . S
C741 C740 1.404 . S
C741 H753 0.930 . S
C742 C738 1.524 . S
C742 H754 0.956 . S
C742 H755 0.961 . S
C742 H756 0.961 . S
C743 C740 1.539 . S
C743 H757 0.958 . S
C743 H758 0.961 . S
C743 H759 0.960 . S
H744 C728 0.931 . S
H745 C733 0.929 . S
H746 C734 0.960 . S
H747 C734 0.962 . S
H748 C734 0.960 . S
H749 C735 0.961 . S
H750 C735 0.961 . S
H751 C735 0.961 . S
H752 C736 0.931 . S
H753 C741 0.930 . S
H754 C742 0.956 . S
H755 C742 0.961 . S
H756 C742 0.961 . S
H757 C743 0.958 . S
H758 C743 0.961 . S
H759 C743 0.960 . S
C760 C761 1.391 . S
C760 C762 1.394 . S
C760 H776 0.931 . S
C761 C760 1.391 . S
C761 C765 1.376 . S
C762 C760 1.394 . S
C762 C763 1.369 . S
C762 C766 1.531 . S
C763 C762 1.369 . S
C763 C764 1.410 . S
C763 C771 1.503 . S
C764 C763 1.410 . S
C764 C765 1.392 . S
C764 C767 1.511 . S
C765 C761 1.376 . S
C765 C764 1.392 . S
C765 H777 0.929 . S
C766 C762 1.531 . S
C766 H778 0.960 . S
C766 H779 0.962 . S
C766 H780 0.960 . S
C767 C764 1.511 . S
C767 H781 0.961 . S
C767 H782 0.961 . S
C767 H783 0.961 1_545 S
C768 C769 1.370 . S
C768 C770 1.363 . S
C768 H784 0.931 . S
C769 C768 1.370 . S
C769 C773 1.408 . S
C770 C768 1.363 . S
C770 C771 1.370 . S
C770 C774 1.524 . S
C771 C763 1.503 . S
C771 C770 1.370 . S
C771 C772 1.403 . S
C772 C771 1.403 . S
C772 C773 1.404 . S
C772 C775 1.539 . S
C773 C769 1.408 . S
C773 C772 1.404 . S
C773 H785 0.930 1_545 S
C774 C770 1.524 . S
C774 H786 0.956 . S
C774 H787 0.961 . S
C774 H788 0.961 . S
C775 C772 1.539 . S
C775 H789 0.958 . S
C775 H790 0.957 . S
C775 H791 0.960 . S
H776 C760 0.931 . S
H777 C765 0.929 . S
H778 C766 0.960 . S
H779 C766 0.962 . S
H780 C766 0.960 . S
H781 C767 0.961 . S
H782 C767 0.961 . S
H783 C767 0.961 1_565 S
H784 C768 0.931 . S
H785 C773 0.930 1_565 S
H786 C774 0.956 . S
H787 C774 0.961 . S
H788 C774 0.961 . S
H789 C775 0.958 . S
H790 C775 0.957 . S
H791 C775 0.960 . S
C792 C793 1.391 . S
C792 C794 1.394 . S
C792 H808 0.931 . S
C793 C792 1.391 . S
C793 C797 1.376 . S
C794 C792 1.394 . S
C794 C795 1.369 . S
C794 C798 1.531 . S
C795 C794 1.369 . S
C795 C796 1.410 . S
C795 C803 1.503 . S
C796 C795 1.410 . S
C796 C797 1.392 . S
C796 C799 1.511 . S
C797 C793 1.376 . S
C797 C796 1.392 . S
C797 H809 0.929 . S
C798 C794 1.531 . S
C798 H810 0.960 . S
C798 H811 0.962 . S
C798 H812 0.960 . S
C799 C796 1.511 . S
C799 H813 0.961 . S
C799 H814 0.961 . S
C799 H815 0.961 . S
C800 C801 1.370 . S
C800 C802 1.363 . S
C800 H816 0.931 . S
C801 C800 1.370 . S
C801 C805 1.408 . S
C802 C800 1.363 . S
C802 C803 1.370 . S
C802 C806 1.524 . S
C803 C795 1.503 . S
C803 C802 1.370 . S
C803 C804 1.403 . S
C804 C803 1.403 . S
C804 C805 1.404 . S
C804 C807 1.539 . S
C805 C801 1.408 . S
C805 C804 1.404 . S
C805 H817 0.930 . S
C806 C802 1.524 . S
C806 H818 0.956 . S
C806 H819 0.961 . S
C806 H820 0.961 . S
C807 C804 1.539 . S
C807 H821 0.958 . S
C807 H822 0.961 . S
C807 H823 0.960 . S
H808 C792 0.931 . S
H809 C797 0.929 . S
H810 C798 0.960 . S
H811 C798 0.962 . S
H812 C798 0.960 . S
H813 C799 0.961 . S
H814 C799 0.961 . S
H815 C799 0.961 . S
H816 C800 0.931 . S
H817 C805 0.930 . S
H818 C806 0.956 . S
H819 C806 0.961 . S
H820 C806 0.961 . S
H821 C807 0.958 . S
H822 C807 0.961 . S
H823 C807 0.960 . S
C824 C825 1.391 . S
C824 C826 1.394 . S
C824 H840 0.931 . S
C825 C824 1.391 . S
C825 C829 1.376 1_545 S
C826 C824 1.394 . S
C826 C827 1.369 . S
C826 C830 1.531 . S
C827 C826 1.369 . S
C827 C828 1.410 . S
C827 C835 1.503 . S
C828 C827 1.410 . S
C828 C829 1.392 1_545 S
C828 C831 1.511 1_545 S
C829 C825 1.376 1_565 S
C829 C828 1.392 1_565 S
C829 H841 0.929 . S
C830 C826 1.531 . S
C830 H842 0.960 . S
C830 H843 0.962 . S
C830 H844 0.960 . S
C831 C828 1.511 1_565 S
C831 H845 0.961 . S
C831 H846 0.961 1_565 S
C831 H847 0.961 . S
C832 C833 1.370 . S
C832 C834 1.363 . S
C832 H848 0.931 . S
C833 C832 1.370 . S
C833 C837 1.408 . S
C834 C832 1.363 . S
C834 C835 1.370 . S
C834 C838 1.524 . S
C835 C827 1.503 . S
C835 C834 1.370 . S
C835 C836 1.403 . S
C836 C835 1.403 . S
C836 C837 1.404 . S
C836 C839 1.539 . S
C837 C833 1.408 . S
C837 C836 1.404 . S
C837 H849 0.930 . S
C838 C834 1.524 . S
C838 H850 0.956 . S
C838 H851 0.961 . S
C838 H852 0.961 . S
C839 C836 1.539 . S
C839 H853 0.958 . S
C839 H854 0.961 . S
C839 H855 0.960 . S
H840 C824 0.931 . S
H841 C829 0.929 . S
H842 C830 0.960 . S
H843 C830 0.962 . S
H844 C830 0.960 . S
H845 C831 0.961 . S
H846 C831 0.961 1_545 S
H847 C831 0.961 . S
H848 C832 0.931 . S
H849 C837 0.930 . S
H850 C838 0.956 . S
H851 C838 0.961 . S
H852 C838 0.961 . S
H853 C839 0.958 . S
H854 C839 0.961 . S
H855 C839 0.960 . S
C856 C857 1.391 . S
C856 C858 1.394 . S
C856 H872 0.931 . S
C857 C856 1.391 . S
C857 C861 1.376 . S
C858 C856 1.394 . S
C858 C859 1.369 . S
C858 C862 1.531 . S
C859 C858 1.369 . S
C859 C860 1.410 . S
C859 C867 1.503 . S
C860 C859 1.410 . S
C860 C861 1.392 . S
C860 C863 1.511 . S
C861 C857 1.376 . S
C861 C860 1.392 . S
C861 H873 0.929 . S
C862 C858 1.531 . S
C862 H874 0.960 . S
C862 H875 0.962 . S
C862 H876 0.960 . S
C863 C860 1.511 . S
C863 H877 0.961 . S
C863 H878 0.961 . S
C863 H879 0.961 . S
C864 C865 1.370 . S
C864 C866 1.363 . S
C864 H880 0.904 1_655 S
C865 C864 1.370 . S
C865 C869 1.408 . S
C866 C864 1.363 . S
C866 C867 1.370 . S
C866 C870 1.524 . S
C867 C859 1.503 . S
C867 C866 1.370 . S
C867 C868 1.403 . S
C868 C867 1.403 . S
C868 C869 1.404 . S
C868 C871 1.539 . S
C869 C865 1.408 . S
C869 C868 1.404 . S
C869 H881 0.930 . S
C870 C866 1.524 . S
C870 H882 0.956 . S
C870 H883 0.961 . S
C870 H884 0.961 . S
C871 C868 1.539 . S
C871 H885 0.958 . S
C871 H886 0.961 1_554 S
C871 H887 0.960 . S
H872 C856 0.931 . S
H873 C861 0.929 . S
H874 C862 0.960 . S
H875 C862 0.962 . S
H876 C862 0.960 . S
H877 C863 0.961 . S
H878 C863 0.961 . S
H879 C863 0.961 . S
H880 C864 0.904 1_455 S
H881 C869 0.930 . S
H882 C870 0.956 . S
H883 C870 0.961 . S
H884 C870 0.961 . S
H885 C871 0.958 . S
H886 C871 0.961 1_556 S
H887 C871 0.960 . S
C888 C889 1.391 . S
C888 C890 1.394 . S
C888 H904 0.931 . S
C889 C888 1.391 . S
C889 C893 1.376 . S
C890 C888 1.394 . S
C890 C891 1.369 . S
C890 C894 1.531 . S
C891 C890 1.369 . S
C891 C892 1.410 . S
C891 C899 1.503 . S
C892 C891 1.410 . S
C892 C893 1.392 . S
C892 C895 1.511 . S
C893 C889 1.376 . S
C893 C892 1.392 . S
C893 H905 0.929 . S
C894 C890 1.531 . S
C894 H906 0.960 . S
C894 H907 0.962 . S
C894 H908 0.960 . S
C895 C892 1.511 . S
C895 H909 0.961 . S
C895 H910 0.961 . S
C895 H911 0.961 . S
C896 C897 1.370 . S
C896 C898 1.363 . S
C896 H912 0.931 . S
C897 C896 1.370 . S
C897 C901 1.408 . S
C898 C896 1.363 . S
C898 C899 1.370 . S
C898 C902 1.524 . S
C899 C891 1.503 . S
C899 C898 1.370 . S
C899 C900 1.403 . S
C900 C899 1.403 . S
C900 C901 1.404 . S
C900 C903 1.539 . S
C901 C897 1.408 . S
C901 C900 1.404 . S
C901 H913 0.930 . S
C902 C898 1.524 . S
C902 H914 0.956 . S
C902 H915 0.961 . S
C902 H916 0.961 . S
C903 C900 1.539 . S
C903 H917 0.958 . S
C903 H918 0.961 . S
C903 H919 0.960 . S
H904 C888 0.931 . S
H905 C893 0.929 . S
H906 C894 0.960 . S
H907 C894 0.962 . S
H908 C894 0.960 . S
H909 C895 0.961 . S
H910 C895 0.961 . S
H911 C895 0.961 . S
H912 C896 0.931 . S
H913 C901 0.930 . S
H914 C902 0.956 . S
H915 C902 0.961 . S
H916 C902 0.961 . S
H917 C903 0.958 . S
H918 C903 0.961 . S
H919 C903 0.960 . S
C920 C921 1.391 . S
C920 C922 1.394 . S
C920 H936 0.931 . S
C921 C920 1.391 . S
C921 C925 1.376 1_565 S
C922 C920 1.394 . S
C922 C923 1.369 . S
C922 C926 1.531 . S
C923 C922 1.369 . S
C923 C924 1.410 . S
C923 C931 1.503 . S
C924 C923 1.410 . S
C924 C925 1.392 1_565 S
C924 C927 1.511 1_565 S
C925 C921 1.376 1_545 S
C925 C924 1.392 1_545 S
C925 H937 0.929 . S
C926 C922 1.531 . S
C926 H938 0.960 . S
C926 H939 0.962 . S
C926 H940 0.960 . S
C927 C924 1.511 1_545 S
C927 H941 0.961 . S
C927 H942 0.961 1_545 S
C927 H943 0.961 . S
C928 C929 1.370 . S
C928 C930 1.363 . S
C928 H944 0.931 . S
C929 C928 1.370 . S
C929 C933 1.408 . S
C930 C928 1.363 . S
C930 C931 1.370 . S
C930 C934 1.524 . S
C931 C923 1.503 . S
C931 C930 1.370 . S
C931 C932 1.403 . S
C932 C931 1.403 . S
C932 C933 1.404 . S
C932 C935 1.539 . S
C933 C929 1.408 . S
C933 C932 1.404 . S
C933 H945 0.930 . S
C934 C930 1.524 . S
C934 H946 0.956 . S
C934 H947 0.961 . S
C934 H948 0.961 . S
C935 C932 1.539 . S
C935 H949 0.958 . S
C935 H950 0.961 . S
C935 H951 0.960 . S
H936 C920 0.931 . S
H937 C925 0.929 . S
H938 C926 0.960 . S
H939 C926 0.962 . S
H940 C926 0.960 . S
H941 C927 0.961 . S
H942 C927 0.961 1_565 S
H943 C927 0.961 . S
H944 C928 0.931 . S
H945 C933 0.930 . S
H946 C934 0.956 . S
H947 C934 0.961 . S
H948 C934 0.961 . S
H949 C935 0.958 . S
H950 C935 0.961 . S
H951 C935 0.960 . S
C952 C953 1.391 . S
C952 C954 1.394 . S
C952 H968 0.931 . S
C953 C952 1.391 . S
C953 C957 1.376 . S
C954 C952 1.394 . S
C954 C955 1.369 . S
C954 C958 1.531 . S
C955 C954 1.369 . S
C955 C956 1.410 . S
C955 C963 1.503 . S
C956 C955 1.410 . S
C956 C957 1.392 . S
C956 C959 1.511 . S
C957 C953 1.376 . S
C957 C956 1.392 . S
C957 H969 0.929 . S
C958 C954 1.531 . S
C958 H970 0.960 . S
C958 H971 0.962 . S
C958 H972 0.960 . S
C959 C956 1.511 . S
C959 H973 0.961 . S
C959 H974 0.961 . S
C959 H975 0.961 . S
C960 C961 1.370 . S
C960 C962 1.363 . S
C960 H976 0.931 . S
C961 C960 1.370 . S
C961 C965 1.408 . S
C962 C960 1.363 . S
C962 C963 1.370 . S
C962 C966 1.524 . S
C963 C955 1.503 . S
C963 C962 1.370 . S
C963 C964 1.403 . S
C964 C963 1.403 . S
C964 C965 1.404 . S
C964 C967 1.539 . S
C965 C961 1.408 . S
C965 C964 1.404 . S
C965 H977 0.930 . S
C966 C962 1.524 . S
C966 H978 0.956 . S
C966 H979 0.961 . S
C966 H980 0.961 . S
C967 C964 1.539 . S
C967 H981 0.958 . S
C967 H982 0.961 . S
C967 H983 0.960 . S
H968 C952 0.931 . S
H969 C957 0.929 . S
H970 C958 0.960 . S
H971 C958 0.962 . S
H972 C958 0.960 . S
H973 C959 0.961 . S
H974 C959 0.961 . S
H975 C959 0.961 . S
H976 C960 0.931 . S
H977 C965 0.930 . S
H978 C966 0.956 . S
H979 C966 0.961 . S
H980 C966 0.961 . S
H981 C967 0.958 . S
H982 C967 0.961 . S
H983 C967 0.960 . S
C984 C985 1.391 . S
C984 C986 1.394 . S
C984 H1000 0.931 . S
C985 C984 1.391 . S
C985 C989 1.376 . S
C986 C984 1.394 . S
C986 C987 1.369 . S
C986 C990 1.531 . S
C987 C986 1.369 . S
C987 C988 1.410 . S
C987 C995 1.503 . S
C988 C987 1.410 . S
C988 C989 1.392 . S
C988 C991 1.511 . S
C989 C985 1.376 . S
C989 C988 1.392 . S
C989 H1001 0.929 . S
C990 C986 1.531 . S
C990 H1002 0.960 . S
C990 H1003 0.962 . S
C990 H1004 0.960 . S
C991 C988 1.511 . S
C991 H1005 0.961 . S
C991 H1006 0.961 . S
C991 H1007 0.961 . S
C992 C993 1.370 . S
C992 C994 1.363 . S
C992 H1008 0.931 . S
C993 C992 1.370 . S
C993 C997 1.394 1_455 S
C994 C992 1.363 . S
C994 C995 1.370 . S
C994 C998 1.524 . S
C995 C987 1.503 . S
C995 C994 1.370 . S
C995 C996 1.403 . S
C996 C995 1.403 . S
C996 C997 1.405 1_455 S
C996 C999 1.559 . S
C997 C993 1.394 1_655 S
C997 C996 1.405 1_655 S
C997 H1009 0.943 . S
C998 C994 1.524 . S
C998 H1010 0.956 . S
C998 H1011 0.961 . S
C998 H1012 0.961 . S
C999 C996 1.559 . S
C999 H1013 0.968 . S
C999 H1014 0.940 1_455 S
C999 H1015 0.953 . S
H1000 C984 0.931 . S
H1001 C989 0.929 . S
H1002 C990 0.960 . S
H1003 C990 0.962 . S
H1004 C990 0.960 . S
H1005 C991 0.961 . S
H1006 C991 0.961 . S
H1007 C991 0.961 . S
H1008 C992 0.931 . S
H1009 C997 0.943 . S
H1010 C998 0.956 . S
H1011 C998 0.961 . S
H1012 C998 0.961 . S
H1013 C999 0.968 . S
H1014 C999 0.940 1_655 S
H1015 C999 0.953 . S
C1016 C1017 1.391 . S
C1016 C1018 1.394 . S
C1016 H1032 0.931 . S
C1017 C1016 1.391 . S
C1017 C1021 1.376 . S
C1018 C1016 1.394 . S
C1018 C1019 1.369 . S
C1018 C1022 1.531 . S
C1019 C1018 1.369 . S
C1019 C1020 1.410 . S
C1019 C1027 1.503 . S
C1020 C1019 1.410 . S
C1020 C1021 1.392 . S
C1020 C1023 1.511 . S
C1021 C1017 1.376 . S
C1021 C1020 1.392 . S
C1021 H1033 0.929 . S
C1022 C1018 1.531 . S
C1022 H1034 0.960 . S
C1022 H1035 0.962 . S
C1022 H1036 0.960 . S
C1023 C1020 1.511 . S
C1023 H1037 0.961 . S
C1023 H1038 0.961 . S
C1023 H1039 0.961 . S
C1024 C1025 1.370 . S
C1024 C1026 1.363 . S
C1024 H1040 0.931 . S
C1025 C1024 1.370 . S
C1025 C1029 1.408 . S
C1026 C1024 1.363 . S
C1026 C1027 1.370 . S
C1026 C1030 1.524 . S
C1027 C1019 1.503 . S
C1027 C1026 1.370 . S
C1027 C1028 1.403 . S
C1028 C1027 1.403 . S
C1028 C1029 1.404 . S
C1028 C1031 1.539 . S
C1029 C1025 1.408 . S
C1029 C1028 1.404 . S
C1029 H1041 0.930 . S
C1030 C1026 1.524 . S
C1030 H1042 0.956 . S
C1030 H1043 0.961 . S
C1030 H1044 0.961 . S
C1031 C1028 1.539 . S
C1031 H1045 0.958 . S
C1031 H1046 0.961 . S
C1031 H1047 0.960 . S
H1032 C1016 0.931 . S
H1033 C1021 0.929 . S
H1034 C1022 0.960 . S
H1035 C1022 0.962 . S
H1036 C1022 0.960 . S
H1037 C1023 0.961 . S
H1038 C1023 0.961 . S
H1039 C1023 0.961 . S
H1040 C1024 0.931 . S
H1041 C1029 0.930 . S
H1042 C1030 0.956 . S
H1043 C1030 0.961 . S
H1044 C1030 0.961 . S
H1045 C1031 0.958 . S
H1046 C1031 0.961 . S
H1047 C1031 0.960 . S
C1048 C1049 1.391 . S
C1048 C1050 1.394 . S
C1048 H1064 0.931 . S
C1049 C1048 1.391 . S
C1049 C1053 1.376 . S
C1050 C1048 1.394 . S
C1050 C1051 1.369 . S
C1050 C1054 1.531 . S
C1051 C1050 1.369 . S
C1051 C1052 1.410 . S
C1051 C1059 1.503 . S
C1052 C1051 1.410 . S
C1052 C1053 1.392 . S
C1052 C1055 1.511 . S
C1053 C1049 1.376 . S
C1053 C1052 1.392 . S
C1053 H1065 0.929 . S
C1054 C1050 1.531 . S
C1054 H1066 0.960 . S
C1054 H1067 0.962 . S
C1054 H1068 0.960 . S
C1055 C1052 1.511 . S
C1055 H1069 0.961 . S
C1055 H1070 0.961 . S
C1055 H1071 0.961 . S
C1056 C1057 1.370 . S
C1056 C1058 1.363 . S
C1056 H1072 0.917 1_565 S
C1057 C1056 1.370 . S
C1057 C1061 1.408 . S
C1058 C1056 1.363 . S
C1058 C1059 1.370 . S
C1058 C1062 1.524 . S
C1059 C1051 1.503 . S
C1059 C1058 1.370 . S
C1059 C1060 1.403 . S
C1060 C1059 1.403 . S
C1060 C1061 1.404 . S
C1060 C1063 1.539 . S
C1061 C1057 1.408 . S
C1061 C1060 1.404 . S
C1061 H1073 0.930 . S
C1062 C1058 1.524 . S
C1062 H1074 0.956 . S
C1062 H1075 0.961 . S
C1062 H1076 0.961 . S
C1063 C1060 1.539 . S
C1063 H1077 0.958 . S
C1063 H1078 0.961 . S
C1063 H1079 0.960 . S
H1064 C1048 0.931 . S
H1065 C1053 0.929 . S
H1066 C1054 0.960 . S
H1067 C1054 0.962 . S
H1068 C1054 0.960 . S
H1069 C1055 0.961 . S
H1070 C1055 0.961 . S
H1071 C1055 0.961 . S
H1072 C1056 0.917 1_545 S
H1073 C1061 0.930 . S
H1074 C1062 0.956 . S
H1075 C1062 0.961 . S
H1076 C1062 0.961 . S
H1077 C1063 0.958 . S
H1078 C1063 0.961 . S
H1079 C1063 0.960 . S
C1080 C1081 1.391 . S
C1080 C1082 1.394 . S
C1080 H1096 0.931 . S
C1081 C1080 1.391 . S
C1081 C1085 1.376 . S
C1082 C1080 1.394 . S
C1082 C1083 1.369 . S
C1082 C1086 1.531 . S
C1083 C1082 1.369 . S
C1083 C1084 1.410 . S
C1083 C1091 1.503 . S
C1084 C1083 1.410 . S
C1084 C1085 1.392 . S
C1084 C1087 1.511 . S
C1085 C1081 1.376 . S
C1085 C1084 1.392 . S
C1085 H1097 0.929 . S
C1086 C1082 1.531 . S
C1086 H1098 0.960 . S
C1086 H1099 0.962 . S
C1086 H1100 0.960 . S
C1087 C1084 1.511 . S
C1087 H1101 0.961 . S
C1087 H1102 0.961 . S
C1087 H1103 0.961 . S
C1088 C1089 1.370 . S
C1088 C1090 1.363 . S
C1088 H1104 0.931 . S
C1089 C1088 1.370 . S
C1089 C1093 1.408 . S
C1090 C1088 1.363 . S
C1090 C1091 1.370 . S
C1090 C1094 1.524 . S
C1091 C1083 1.503 . S
C1091 C1090 1.370 . S
C1091 C1092 1.403 . S
C1092 C1091 1.403 . S
C1092 C1093 1.404 . S
C1092 C1095 1.539 . S
C1093 C1089 1.408 . S
C1093 C1092 1.404 . S
C1093 H1105 0.930 . S
C1094 C1090 1.524 . S
C1094 H1106 0.956 . S
C1094 H1107 0.961 . S
C1094 H1108 0.961 . S
C1095 C1092 1.539 . S
C1095 H1109 0.958 . S
C1095 H1110 0.961 . S
C1095 H1111 0.960 . S
H1096 C1080 0.931 . S
H1097 C1085 0.929 . S
H1098 C1086 0.960 . S
H1099 C1086 0.962 . S
H1100 C1086 0.960 . S
H1101 C1087 0.961 . S
H1102 C1087 0.961 . S
H1103 C1087 0.961 . S
H1104 C1088 0.931 . S
H1105 C1093 0.930 . S
H1106 C1094 0.956 . S
H1107 C1094 0.961 . S
H1108 C1094 0.961 . S
H1109 C1095 0.958 . S
H1110 C1095 0.961 . S
H1111 C1095 0.960 . S
C1112 C1113 1.391 . S
C1112 C1114 1.394 . S
C1112 H1128 0.931 . S
C1113 C1112 1.391 . S
C1113 C1117 1.376 . S
C1114 C1112 1.394 . S
C1114 C1115 1.369 . S
C1114 C1118 1.531 . S
C1115 C1114 1.369 . S
C1115 C1116 1.410 . S
C1115 C1123 1.503 . S
C1116 C1115 1.410 . S
C1116 C1117 1.392 . S
C1116 C1119 1.511 . S
C1117 C1113 1.376 . S
C1117 C1116 1.392 . S
C1117 H1129 0.929 . S
C1118 C1114 1.531 . S
C1118 H1130 0.960 . S
C1118 H1131 0.962 . S
C1118 H1132 0.960 . S
C1119 C1116 1.511 . S
C1119 H1133 0.961 . S
C1119 H1134 0.961 . S
C1119 H1135 0.961 . S
C1120 C1121 1.370 . S
C1120 C1122 1.363 . S
C1120 H1136 0.931 . S
C1121 C1120 1.370 . S
C1121 C1125 1.408 . S
C1122 C1120 1.363 . S
C1122 C1123 1.370 . S
C1122 C1126 1.524 . S
C1123 C1115 1.503 . S
C1123 C1122 1.370 . S
C1123 C1124 1.403 . S
C1124 C1123 1.403 . S
C1124 C1125 1.404 . S
C1124 C1127 1.539 . S
C1125 C1121 1.408 . S
C1125 C1124 1.404 . S
C1125 H1137 0.930 . S
C1126 C1122 1.524 . S
C1126 H1138 0.956 . S
C1126 H1139 0.961 . S
C1126 H1140 0.961 . S
C1127 C1124 1.539 . S
C1127 H1141 0.958 . S
C1127 H1142 0.961 . S
C1127 H1143 0.960 . S
H1128 C1112 0.931 . S
H1129 C1117 0.929 . S
H1130 C1118 0.960 . S
H1131 C1118 0.962 . S
H1132 C1118 0.960 . S
H1133 C1119 0.961 . S
H1134 C1119 0.961 . S
H1135 C1119 0.961 . S
H1136 C1120 0.931 . S
H1137 C1125 0.930 . S
H1138 C1126 0.956 . S
H1139 C1126 0.961 . S
H1140 C1126 0.961 . S
H1141 C1127 0.958 . S
H1142 C1127 0.961 . S
H1143 C1127 0.960 . S
C1144 C1145 1.391 . S
C1144 C1146 1.394 . S
C1144 H1160 0.931 . S
C1145 C1144 1.391 . S
C1145 C1149 1.376 . S
C1146 C1144 1.394 . S
C1146 C1147 1.369 . S
C1146 C1150 1.531 . S
C1147 C1146 1.369 . S
C1147 C1148 1.410 . S
C1147 C1155 1.503 . S
C1148 C1147 1.410 . S
C1148 C1149 1.392 . S
C1148 C1151 1.511 . S
C1149 C1145 1.376 . S
C1149 C1148 1.392 . S
C1149 H1161 0.929 . S
C1150 C1146 1.531 . S
C1150 H1162 0.960 . S
C1150 H1163 0.962 . S
C1150 H1164 0.960 . S
C1151 C1148 1.511 . S
C1151 H1165 0.961 . S
C1151 H1166 0.961 . S
C1151 H1167 0.961 . S
C1152 C1153 1.370 . S
C1152 C1154 1.363 . S
C1152 H1168 0.931 . S
C1153 C1152 1.370 . S
C1153 C1157 1.408 . S
C1154 C1152 1.363 . S
C1154 C1155 1.370 . S
C1154 C1158 1.524 . S
C1155 C1147 1.503 . S
C1155 C1154 1.370 . S
C1155 C1156 1.403 . S
C1156 C1155 1.403 . S
C1156 C1157 1.404 . S
C1156 C1159 1.539 . S
C1157 C1153 1.408 . S
C1157 C1156 1.404 . S
C1157 H1169 0.930 . S
C1158 C1154 1.524 . S
C1158 H1170 0.956 . S
C1158 H1171 0.961 . S
C1158 H1172 0.961 . S
C1159 C1156 1.539 . S
C1159 H1173 0.958 . S
C1159 H1174 0.961 . S
C1159 H1175 0.960 . S
H1160 C1144 0.931 . S
H1161 C1149 0.929 . S
H1162 C1150 0.960 . S
H1163 C1150 0.962 . S
H1164 C1150 0.960 . S
H1165 C1151 0.961 . S
H1166 C1151 0.961 . S
H1167 C1151 0.961 . S
H1168 C1152 0.931 . S
H1169 C1157 0.930 . S
H1170 C1158 0.956 . S
H1171 C1158 0.961 . S
H1172 C1158 0.961 . S
H1173 C1159 0.958 . S
H1174 C1159 0.961 . S
H1175 C1159 0.960 . S
C1176 C1177 1.391 . S
C1176 C1178 1.394 . S
C1176 H1192 0.931 . S
C1177 C1176 1.391 . S
C1177 C1181 1.376 . S
C1178 C1176 1.394 . S
C1178 C1179 1.369 . S
C1178 C1182 1.531 . S
C1179 C1178 1.369 . S
C1179 C1180 1.410 . S
C1179 C1187 1.503 . S
C1180 C1179 1.410 . S
C1180 C1181 1.392 . S
C1180 C1183 1.511 . S
C1181 C1177 1.376 . S
C1181 C1180 1.392 . S
C1181 H1193 0.929 . S
C1182 C1178 1.531 . S
C1182 H1194 0.960 . S
C1182 H1195 0.962 . S
C1182 H1196 0.960 . S
C1183 C1180 1.511 . S
C1183 H1197 0.961 . S
C1183 H1198 0.961 . S
C1183 H1199 0.961 . S
C1184 C1185 1.371 . S
C1184 C1186 1.363 . S
C1184 H1200 0.931 1_554 S
C1185 C1184 1.371 . S
C1185 C1189 1.409 . S
C1186 C1184 1.363 . S
C1186 C1187 1.370 . S
C1186 C1190 1.524 . S
C1187 C1179 1.503 . S
C1187 C1186 1.370 . S
C1187 C1188 1.403 . S
C1188 C1187 1.403 . S
C1188 C1189 1.404 . S
C1188 C1191 1.539 . S
C1189 C1185 1.409 . S
C1189 C1188 1.404 . S
C1189 H1201 0.930 . S
C1190 C1186 1.524 . S
C1190 H1202 0.956 . S
C1190 H1203 0.961 . S
C1190 H1204 0.961 . S
C1191 C1188 1.539 . S
C1191 H1205 0.958 . S
C1191 H1206 0.961 . S
C1191 H1207 0.960 . S
H1192 C1176 0.931 . S
H1193 C1181 0.929 . S
H1194 C1182 0.960 . S
H1195 C1182 0.962 . S
H1196 C1182 0.960 . S
H1197 C1183 0.961 . S
H1198 C1183 0.961 . S
H1199 C1183 0.961 . S
H1200 C1184 0.931 1_556 S
H1201 C1189 0.930 . S
H1202 C1190 0.956 . S
H1203 C1190 0.961 . S
H1204 C1190 0.961 . S
H1205 C1191 0.958 . S
H1206 C1191 0.961 . S
H1207 C1191 0.960 . S
C1208 C1209 1.391 . S
C1208 C1210 1.394 . S
C1208 H1224 0.931 . S
C1209 C1208 1.391 . S
C1209 C1213 1.376 . S
C1210 C1208 1.394 . S
C1210 C1211 1.369 . S
C1210 C1214 1.531 . S
C1211 C1210 1.369 . S
C1211 C1212 1.410 . S
C1211 C1219 1.503 . S
C1212 C1211 1.410 . S
C1212 C1213 1.392 . S
C1212 C1215 1.511 . S
C1213 C1209 1.376 . S
C1213 C1212 1.392 . S
C1213 H1225 0.929 . S
C1214 C1210 1.531 . S
C1214 H1226 0.960 . S
C1214 H1227 0.962 . S
C1214 H1228 0.960 . S
C1215 C1212 1.511 . S
C1215 H1229 0.961 . S
C1215 H1230 0.961 . S
C1215 H1231 0.961 . S
C1216 C1217 1.352 1_554 S
C1216 C1218 1.363 . S
C1216 H1232 0.931 . S
C1217 C1216 1.352 1_556 S
C1217 C1221 1.406 1_556 S
C1218 C1216 1.363 . S
C1218 C1219 1.370 . S
C1218 C1222 1.524 . S
C1219 C1211 1.503 . S
C1219 C1218 1.370 . S
C1219 C1220 1.403 . S
C1220 C1219 1.403 . S
C1220 C1221 1.404 . S
C1220 C1223 1.539 . S
C1221 C1217 1.406 1_554 S
C1221 C1220 1.404 . S
C1221 H1233 0.930 1_554 S
C1222 C1218 1.524 . S
C1222 H1234 0.956 . S
C1222 H1235 0.961 . S
C1222 H1236 0.961 . S
C1223 C1220 1.539 . S
C1223 H1237 0.958 . S
C1223 H1238 0.961 . S
C1223 H1239 0.960 . S
H1224 C1208 0.931 . S
H1225 C1213 0.929 . S
H1226 C1214 0.960 . S
H1227 C1214 0.962 . S
H1228 C1214 0.960 . S
H1229 C1215 0.961 . S
H1230 C1215 0.961 . S
H1231 C1215 0.961 . S
H1232 C1216 0.931 . S
H1233 C1221 0.930 1_556 S
H1234 C1222 0.956 . S
H1235 C1222 0.961 . S
H1236 C1222 0.961 . S
H1237 C1223 0.958 . S
H1238 C1223 0.961 . S
H1239 C1223 0.960 . S
C1240 C1241 1.391 . S
C1240 C1242 1.394 . S
C1240 H1256 0.931 . S
C1241 C1240 1.391 . S
C1241 C1245 1.376 . S
C1242 C1240 1.394 . S
C1242 C1243 1.369 . S
C1242 C1246 1.531 . S
C1243 C1242 1.369 . S
C1243 C1244 1.410 . S
C1243 C1251 1.503 . S
C1244 C1243 1.410 . S
C1244 C1245 1.392 . S
C1244 C1247 1.511 . S
C1245 C1241 1.376 . S
C1245 C1244 1.392 . S
C1245 H1257 0.929 . S
C1246 C1242 1.531 . S
C1246 H1258 0.960 . S
C1246 H1259 0.962 . S
C1246 H1260 0.960 . S
C1247 C1244 1.511 . S
C1247 H1261 0.961 . S
C1247 H1262 0.961 . S
C1247 H1263 0.961 . S
C1248 C1249 1.361 1_554 S
C1248 C1250 1.363 . S
C1248 H1264 0.931 . S
C1249 C1248 1.361 1_556 S
C1249 C1253 1.404 1_556 S
C1250 C1248 1.363 . S
C1250 C1251 1.370 . S
C1250 C1254 1.524 . S
C1251 C1243 1.503 . S
C1251 C1250 1.370 . S
C1251 C1252 1.403 . S
C1252 C1251 1.403 . S
C1252 C1253 1.404 . S
C1252 C1255 1.539 . S
C1253 C1249 1.404 1_554 S
C1253 C1252 1.404 . S
C1253 H1265 0.930 1_554 S
C1254 C1250 1.524 . S
C1254 H1266 0.956 . S
C1254 H1267 0.961 . S
C1254 H1268 0.961 . S
C1255 C1252 1.539 . S
C1255 H1269 0.958 . S
C1255 H1270 0.961 . S
C1255 H1271 0.960 . S
H1256 C1240 0.931 . S
H1257 C1245 0.929 . S
H1258 C1246 0.960 . S
H1259 C1246 0.962 . S
H1260 C1246 0.960 . S
H1261 C1247 0.961 . S
H1262 C1247 0.961 . S
H1263 C1247 0.961 . S
H1264 C1248 0.931 . S
H1265 C1253 0.930 1_556 S
H1266 C1254 0.956 . S
H1267 C1254 0.961 . S
H1268 C1254 0.961 . S
H1269 C1255 0.958 . S
H1270 C1255 0.961 . S
H1271 C1255 0.960 . S
C1272 C1273 1.391 . S
C1272 C1274 1.394 . S
C1272 H1288 0.931 . S
C1273 C1272 1.391 . S
C1273 C1277 1.376 . S
C1274 C1272 1.394 . S
C1274 C1275 1.369 . S
C1274 C1278 1.531 . S
C1275 C1274 1.369 . S
C1275 C1276 1.410 . S
C1275 C1283 1.503 . S
C1276 C1275 1.410 . S
C1276 C1277 1.392 . S
C1276 C1279 1.511 . S
C1277 C1273 1.376 . S
C1277 C1276 1.392 . S
C1277 H1289 0.929 . S
C1278 C1274 1.531 . S
C1278 H1290 0.960 . S
C1278 H1291 0.962 . S
C1278 H1292 0.960 . S
C1279 C1276 1.511 . S
C1279 H1293 0.961 . S
C1279 H1294 0.961 . S
C1279 H1295 0.961 . S
C1280 C1281 1.370 . S
C1280 C1282 1.363 . S
C1280 H1296 0.931 . S
C1281 C1280 1.370 . S
C1281 C1285 1.408 . S
C1282 C1280 1.363 . S
C1282 C1283 1.370 . S
C1282 C1286 1.524 . S
C1283 C1275 1.503 . S
C1283 C1282 1.370 . S
C1283 C1284 1.403 . S
C1284 C1283 1.403 . S
C1284 C1285 1.404 . S
C1284 C1287 1.539 . S
C1285 C1281 1.408 . S
C1285 C1284 1.404 . S
C1285 H1297 0.930 . S
C1286 C1282 1.524 . S
C1286 H1298 0.956 . S
C1286 H1299 0.961 . S
C1286 H1300 0.961 . S
C1287 C1284 1.539 . S
C1287 H1301 0.958 . S
C1287 H1302 0.961 . S
C1287 H1303 0.960 . S
H1288 C1272 0.931 . S
H1289 C1277 0.929 . S
H1290 C1278 0.960 . S
H1291 C1278 0.962 . S
H1292 C1278 0.960 . S
H1293 C1279 0.961 . S
H1294 C1279 0.961 . S
H1295 C1279 0.961 . S
H1296 C1280 0.931 . S
H1297 C1285 0.930 . S
H1298 C1286 0.956 . S
H1299 C1286 0.961 . S
H1300 C1286 0.961 . S
H1301 C1287 0.958 . S
H1302 C1287 0.961 . S
H1303 C1287 0.960 . S
C1304 C1305 1.391 . S
C1304 C1306 1.394 . S
C1304 H1320 0.931 . S
C1305 C1304 1.391 . S
C1305 C1309 1.376 . S
C1306 C1304 1.394 . S
C1306 C1307 1.369 . S
C1306 C1310 1.531 . S
C1307 C1306 1.369 . S
C1307 C1308 1.410 . S
C1307 C1315 1.503 . S
C1308 C1307 1.410 . S
C1308 C1309 1.392 . S
C1308 C1311 1.511 . S
C1309 C1305 1.376 . S
C1309 C1308 1.392 . S
C1309 H1321 0.929 . S
C1310 C1306 1.531 . S
C1310 H1322 0.960 . S
C1310 H1323 0.962 . S
C1310 H1324 0.960 . S
C1311 C1308 1.511 . S
C1311 H1325 0.961 . S
C1311 H1326 0.961 . S
C1311 H1327 0.961 . S
C1312 C1313 1.370 . S
C1312 C1314 1.363 . S
C1312 H1328 0.931 . S
C1313 C1312 1.370 . S
C1313 C1317 1.408 . S
C1314 C1312 1.363 . S
C1314 C1315 1.370 . S
C1314 C1318 1.524 . S
C1315 C1307 1.503 . S
C1315 C1314 1.370 . S
C1315 C1316 1.403 . S
C1316 C1315 1.403 . S
C1316 C1317 1.404 . S
C1316 C1319 1.539 . S
C1317 C1313 1.408 . S
C1317 C1316 1.404 . S
C1317 H1329 0.930 . S
C1318 C1314 1.524 . S
C1318 H1330 0.956 . S
C1318 H1331 0.961 . S
C1318 H1332 0.961 . S
C1319 C1316 1.539 . S
C1319 H1333 0.958 . S
C1319 H1334 0.961 . S
C1319 H1335 0.960 . S
H1320 C1304 0.931 . S
H1321 C1309 0.929 . S
H1322 C1310 0.960 . S
H1323 C1310 0.962 . S
H1324 C1310 0.960 . S
H1325 C1311 0.961 . S
H1326 C1311 0.961 . S
H1327 C1311 0.961 . S
H1328 C1312 0.931 . S
H1329 C1317 0.930 . S
H1330 C1318 0.956 . S
H1331 C1318 0.961 . S
H1332 C1318 0.961 . S
H1333 C1319 0.958 . S
H1334 C1319 0.961 . S
H1335 C1319 0.960 . S
C1336 C1337 1.391 . S
C1336 C1338 1.394 . S
C1336 H1352 0.931 . S
C1337 C1336 1.391 . S
C1337 C1341 1.376 . S
C1338 C1336 1.394 . S
C1338 C1339 1.369 . S
C1338 C1342 1.531 . S
C1339 C1338 1.369 . S
C1339 C1340 1.410 . S
C1339 C1347 1.503 . S
C1340 C1339 1.410 . S
C1340 C1341 1.392 . S
C1340 C1343 1.511 . S
C1341 C1337 1.376 . S
C1341 C1340 1.392 . S
C1341 H1353 0.929 . S
C1342 C1338 1.531 . S
C1342 H1354 0.960 . S
C1342 H1355 0.962 . S
C1342 H1356 0.960 . S
C1343 C1340 1.511 . S
C1343 H1357 0.961 . S
C1343 H1358 0.961 . S
C1343 H1359 0.961 . S
C1344 C1345 1.370 . S
C1344 C1346 1.363 . S
C1344 H1360 0.931 . S
C1345 C1344 1.370 . S
C1345 C1349 1.408 . S
C1346 C1344 1.363 . S
C1346 C1347 1.370 . S
C1346 C1350 1.524 . S
C1347 C1339 1.503 . S
C1347 C1346 1.370 . S
C1347 C1348 1.403 . S
C1348 C1347 1.403 . S
C1348 C1349 1.404 . S
C1348 C1351 1.539 . S
C1349 C1345 1.408 . S
C1349 C1348 1.404 . S
C1349 H1361 0.930 . S
C1350 C1346 1.524 . S
C1350 H1362 0.956 . S
C1350 H1363 0.961 . S
C1350 H1364 0.961 . S
C1351 C1348 1.539 . S
C1351 H1365 0.958 . S
C1351 H1366 0.961 . S
C1351 H1367 0.960 . S
H1352 C1336 0.931 . S
H1353 C1341 0.929 . S
H1354 C1342 0.960 . S
H1355 C1342 0.962 . S
H1356 C1342 0.960 . S
H1357 C1343 0.961 . S
H1358 C1343 0.961 . S
H1359 C1343 0.961 . S
H1360 C1344 0.931 . S
H1361 C1349 0.930 . S
H1362 C1350 0.956 . S
H1363 C1350 0.961 . S
H1364 C1350 0.961 . S
H1365 C1351 0.958 . S
H1366 C1351 0.961 . S
H1367 C1351 0.960 . S
C1368 C1369 1.391 1_556 S
C1368 C1370 1.394 . S
C1368 H1384 0.931 1_556 S
C1369 C1368 1.391 1_554 S
C1369 C1373 1.376 1_554 S
C1370 C1368 1.394 . S
C1370 C1371 1.369 . S
C1370 C1374 1.531 . S
C1371 C1370 1.369 . S
C1371 C1372 1.410 . S
C1371 C1379 1.503 . S
C1372 C1371 1.410 . S
C1372 C1373 1.392 . S
C1372 C1375 1.511 . S
C1373 C1369 1.376 1_556 S
C1373 C1372 1.392 . S
C1373 H1385 0.929 . S
C1374 C1370 1.531 . S
C1374 H1386 0.960 . S
C1374 H1387 0.962 . S
C1374 H1388 0.960 . S
C1375 C1372 1.511 . S
C1375 H1389 0.961 . S
C1375 H1390 0.961 . S
C1375 H1391 0.961 . S
C1376 C1377 1.370 . S
C1376 C1378 1.363 . S
C1376 H1392 0.931 . S
C1377 C1376 1.370 . S
C1377 C1381 1.408 . S
C1378 C1376 1.363 . S
C1378 C1379 1.370 . S
C1378 C1382 1.524 . S
C1379 C1371 1.503 . S
C1379 C1378 1.370 . S
C1379 C1380 1.403 . S
C1380 C1379 1.403 . S
C1380 C1381 1.404 . S
C1380 C1383 1.539 . S
C1381 C1377 1.408 . S
C1381 C1380 1.404 . S
C1381 H1393 0.930 . S
C1382 C1378 1.524 . S
C1382 H1394 0.956 . S
C1382 H1395 0.961 . S
C1382 H1396 0.961 . S
C1383 C1380 1.539 . S
C1383 H1397 0.958 . S
C1383 H1398 0.961 . S
C1383 H1399 0.960 . S
H1384 C1368 0.931 1_554 S
H1385 C1373 0.929 . S
H1386 C1374 0.960 . S
H1387 C1374 0.962 . S
H1388 C1374 0.960 . S
H1389 C1375 0.961 . S
H1390 C1375 0.961 . S
H1391 C1375 0.961 . S
H1392 C1376 0.931 . S
H1393 C1381 0.930 . S
H1394 C1382 0.956 . S
H1395 C1382 0.961 . S
H1396 C1382 0.961 . S
H1397 C1383 0.958 . S
H1398 C1383 0.961 . S
H1399 C1383 0.960 . S
C1400 C1401 1.391 1_556 S
C1400 C1402 1.394 . S
C1400 H1416 0.931 . S
C1401 C1400 1.391 1_554 S
C1401 C1405 1.376 1_554 S
C1402 C1400 1.394 . S
C1402 C1403 1.369 . S
C1402 C1406 1.531 . S
C1403 C1402 1.369 . S
C1403 C1404 1.410 . S
C1403 C1411 1.503 . S
C1404 C1403 1.410 . S
C1404 C1405 1.392 . S
C1404 C1407 1.511 . S
C1405 C1401 1.376 1_556 S
C1405 C1404 1.392 . S
C1405 H1417 0.929 1_556 S
C1406 C1402 1.531 . S
C1406 H1418 0.960 . S
C1406 H1419 0.962 . S
C1406 H1420 0.960 . S
C1407 C1404 1.511 . S
C1407 H1421 0.961 . S
C1407 H1422 0.961 . S
C1407 H1423 0.961 . S
C1408 C1409 1.370 . S
C1408 C1410 1.363 . S
C1408 H1424 0.931 . S
C1409 C1408 1.370 . S
C1409 C1413 1.408 . S
C1410 C1408 1.363 . S
C1410 C1411 1.370 . S
C1410 C1414 1.524 . S
C1411 C1403 1.503 . S
C1411 C1410 1.370 . S
C1411 C1412 1.403 . S
C1412 C1411 1.403 . S
C1412 C1413 1.404 . S
C1412 C1415 1.539 . S
C1413 C1409 1.408 . S
C1413 C1412 1.404 . S
C1413 H1425 0.930 . S
C1414 C1410 1.524 . S
C1414 H1426 0.956 . S
C1414 H1427 0.961 . S
C1414 H1428 0.961 . S
C1415 C1412 1.539 . S
C1415 H1429 0.958 . S
C1415 H1430 0.961 . S
C1415 H1431 0.960 . S
H1416 C1400 0.931 . S
H1417 C1405 0.929 1_554 S
H1418 C1406 0.960 . S
H1419 C1406 0.962 . S
H1420 C1406 0.960 . S
H1421 C1407 0.961 . S
H1422 C1407 0.961 . S
H1423 C1407 0.961 . S
H1424 C1408 0.931 . S
H1425 C1413 0.930 . S
H1426 C1414 0.956 . S
H1427 C1414 0.961 . S
H1428 C1414 0.961 . S
H1429 C1415 0.958 . S
H1430 C1415 0.961 . S
H1431 C1415 0.960 . S
C1432 C1433 1.391 . S
C1432 C1434 1.394 . S
C1432 H1448 0.931 . S
C1433 C1432 1.391 . S
C1433 C1437 1.376 . S
C1434 C1432 1.394 . S
C1434 C1435 1.369 . S
C1434 C1438 1.531 . S
C1435 C1434 1.369 . S
C1435 C1436 1.410 . S
C1435 C1443 1.503 . S
C1436 C1435 1.410 . S
C1436 C1437 1.392 . S
C1436 C1439 1.511 . S
C1437 C1433 1.376 . S
C1437 C1436 1.392 . S
C1437 H1449 0.929 . S
C1438 C1434 1.531 . S
C1438 H1450 0.960 . S
C1438 H1451 0.962 . S
C1438 H1452 0.960 . S
C1439 C1436 1.511 . S
C1439 H1453 0.961 . S
C1439 H1454 0.961 . S
C1439 H1455 0.961 . S
C1440 C1441 1.370 . S
C1440 C1442 1.363 . S
C1440 H1456 0.931 1_556 S
C1441 C1440 1.370 . S
C1441 C1445 1.408 . S
C1442 C1440 1.363 . S
C1442 C1443 1.370 . S
C1442 C1446 1.524 . S
C1443 C1435 1.503 . S
C1443 C1442 1.370 . S
C1443 C1444 1.403 . S
C1444 C1443 1.403 . S
C1444 C1445 1.404 . S
C1444 C1447 1.539 . S
C1445 C1441 1.408 . S
C1445 C1444 1.404 . S
C1445 H1457 0.930 . S
C1446 C1442 1.524 . S
C1446 H1458 0.956 . S
C1446 H1459 0.961 . S
C1446 H1460 0.961 . S
C1447 C1444 1.539 . S
C1447 H1461 0.958 . S
C1447 H1462 0.961 . S
C1447 H1463 0.960 . S
H1448 C1432 0.931 . S
H1449 C1437 0.929 . S
H1450 C1438 0.960 . S
H1451 C1438 0.962 . S
H1452 C1438 0.960 . S
H1453 C1439 0.961 . S
H1454 C1439 0.961 . S
H1455 C1439 0.961 . S
H1456 C1440 0.931 1_554 S
H1457 C1445 0.930 . S
H1458 C1446 0.956 . S
H1459 C1446 0.961 . S
H1460 C1446 0.961 . S
H1461 C1447 0.958 . S
H1462 C1447 0.961 . S
H1463 C1447 0.960 . S
C1464 C1465 1.391 . S
C1464 C1466 1.394 . S
C1464 H1480 0.931 . S
C1465 C1464 1.391 . S
C1465 C1469 1.376 . S
C1466 C1464 1.394 . S
C1466 C1467 1.369 . S
C1466 C1470 1.531 . S
C1467 C1466 1.369 . S
C1467 C1468 1.410 1_455 S
C1467 C1475 1.503 1_455 S
C1468 C1467 1.410 1_655 S
C1468 C1469 1.392 1_655 S
C1468 C1471 1.511 . S
C1469 C1465 1.376 . S
C1469 C1468 1.392 1_455 S
C1469 H1481 0.929 1_455 S
C1470 C1466 1.531 . S
C1470 H1482 0.960 . S
C1470 H1483 0.962 . S
C1470 H1484 0.960 . S
C1471 C1468 1.511 . S
C1471 H1485 0.961 . S
C1471 H1486 0.961 . S
C1471 H1487 0.961 . S
C1472 C1473 1.370 . S
C1472 C1474 1.363 . S
C1472 H1488 0.931 . S
C1473 C1472 1.370 . S
C1473 C1477 1.408 . S
C1474 C1472 1.363 . S
C1474 C1475 1.370 . S
C1474 C1478 1.524 . S
C1475 C1467 1.503 1_655 S
C1475 C1474 1.370 . S
C1475 C1476 1.403 1_655 S
C1476 C1475 1.403 1_455 S
C1476 C1477 1.404 1_455 S
C1476 C1479 1.539 . S
C1477 C1473 1.408 . S
C1477 C1476 1.404 1_655 S
C1477 H1489 0.932 1_655 S
C1478 C1474 1.524 . S
C1478 H1490 0.956 . S
C1478 H1491 0.961 . S
C1478 H1492 0.961 . S
C1479 C1476 1.539 . S
C1479 H1493 0.958 . S
C1479 H1494 0.961 . S
C1479 H1495 0.960 . S
H1480 C1464 0.931 . S
H1481 C1469 0.929 1_655 S
H1482 C1470 0.960 . S
H1483 C1470 0.962 . S
H1484 C1470 0.960 . S
H1485 C1471 0.961 . S
H1486 C1471 0.961 . S
H1487 C1471 0.961 . S
H1488 C1472 0.931 . S
H1489 C1477 0.932 1_455 S
H1490 C1478 0.956 . S
H1491 C1478 0.961 . S
H1492 C1478 0.961 . S
H1493 C1479 0.958 . S
H1494 C1479 0.961 . S
H1495 C1479 0.960 . S
C1496 C1497 1.391 . S
C1496 C1498 1.394 . S
C1496 H1512 0.931 . S
C1497 C1496 1.391 . S
C1497 C1501 1.376 . S
C1498 C1496 1.394 . S
C1498 C1499 1.369 . S
C1498 C1502 1.531 . S
C1499 C1498 1.369 . S
C1499 C1500 1.410 . S
C1499 C1507 1.503 . S
C1500 C1499 1.410 . S
C1500 C1501 1.392 . S
C1500 C1503 1.511 . S
C1501 C1497 1.376 . S
C1501 C1500 1.392 . S
C1501 H1513 0.929 . S
C1502 C1498 1.531 . S
C1502 H1514 0.960 . S
C1502 H1515 0.962 . S
C1502 H1516 0.960 . S
C1503 C1500 1.511 . S
C1503 H1517 0.961 . S
C1503 H1518 0.961 . S
C1503 H1519 0.961 . S
C1504 C1505 1.370 . S
C1504 C1506 1.363 . S
C1504 H1520 0.931 . S
C1505 C1504 1.370 . S
C1505 C1509 1.408 . S
C1506 C1504 1.363 . S
C1506 C1507 1.370 . S
C1506 C1510 1.524 . S
C1507 C1499 1.503 . S
C1507 C1506 1.370 . S
C1507 C1508 1.403 . S
C1508 C1507 1.403 . S
C1508 C1509 1.404 . S
C1508 C1511 1.539 . S
C1509 C1505 1.408 . S
C1509 C1508 1.404 . S
C1509 H1521 0.930 . S
C1510 C1506 1.524 . S
C1510 H1522 0.956 . S
C1510 H1523 0.961 . S
C1510 H1524 0.961 . S
C1511 C1508 1.539 . S
C1511 H1525 0.958 . S
C1511 H1526 0.961 . S
C1511 H1527 0.960 . S
H1512 C1496 0.931 . S
H1513 C1501 0.929 . S
H1514 C1502 0.960 . S
H1515 C1502 0.962 . S
H1516 C1502 0.960 . S
H1517 C1503 0.961 . S
H1518 C1503 0.961 . S
H1519 C1503 0.961 . S
H1520 C1504 0.931 . S
H1521 C1509 0.930 . S
H1522 C1510 0.956 . S
H1523 C1510 0.961 . S
H1524 C1510 0.961 . S
H1525 C1511 0.958 . S
H1526 C1511 0.961 . S
H1527 C1511 0.960 . S
C1528 C1529 1.391 . S
C1528 C1530 1.394 1_545 S
C1528 H1544 0.931 . S
C1529 C1528 1.391 . S
C1529 C1533 1.376 . S
C1530 C1528 1.394 1_565 S
C1530 C1531 1.372 . S
C1530 C1534 1.531 . S
C1531 C1530 1.372 . S
C1531 C1532 1.404 1_565 S
C1531 C1539 1.505 . S
C1532 C1531 1.404 1_545 S
C1532 C1533 1.392 . S
C1532 C1535 1.511 . S
C1533 C1529 1.376 . S
C1533 C1532 1.392 . S
C1533 H1545 0.929 . S
C1534 C1530 1.531 . S
C1534 H1546 0.960 . S
C1534 H1547 0.962 . S
C1534 H1548 0.960 . S
C1535 C1532 1.511 . S
C1535 H1549 0.961 . S
C1535 H1550 0.961 . S
C1535 H1551 0.961 . S
C1536 C1537 1.395 . S
C1536 C1538 1.351 1_565 S
C1536 H1552 0.919 1_565 S
C1537 C1536 1.395 . S
C1537 C1541 1.408 . S
C1538 C1536 1.351 1_545 S
C1538 C1539 1.370 1_545 S
C1538 C1542 1.524 . S
C1539 C1531 1.505 . S
C1539 C1538 1.370 1_565 S
C1539 C1540 1.403 . S
C1540 C1539 1.403 . S
C1540 C1541 1.404 . S
C1540 C1543 1.539 . S
C1541 C1537 1.408 . S
C1541 C1540 1.404 . S
C1541 H1553 0.930 . S
C1542 C1538 1.524 . S
C1542 H1554 0.956 . S
C1542 H1555 0.961 . S
C1542 H1556 0.961 . S
C1543 C1540 1.539 . S
C1543 H1557 0.958 . S
C1543 H1558 0.961 . S
C1543 H1559 0.960 . S
H1544 C1528 0.931 . S
H1545 C1533 0.929 . S
H1546 C1534 0.960 . S
H1547 C1534 0.962 . S
H1548 C1534 0.960 . S
H1549 C1535 0.961 . S
H1550 C1535 0.961 . S
H1551 C1535 0.961 . S
H1552 C1536 0.919 1_545 S
H1553 C1541 0.930 . S
H1554 C1542 0.956 . S
H1555 C1542 0.961 . S
H1556 C1542 0.961 . S
H1557 C1543 0.958 . S
H1558 C1543 0.961 . S
H1559 C1543 0.960 . S
C1560 C1561 1.391 . S
C1560 C1562 1.394 . S
C1560 H1576 0.931 . S
C1561 C1560 1.391 . S
C1561 C1565 1.376 . S
C1562 C1560 1.394 . S
C1562 C1563 1.369 . S
C1562 C1566 1.531 . S
C1563 C1562 1.369 . S
C1563 C1564 1.410 . S
C1563 C1571 1.488 1_565 S
C1564 C1563 1.410 . S
C1564 C1565 1.392 . S
C1564 C1567 1.523 1_565 S
C1565 C1561 1.376 . S
C1565 C1564 1.392 . S
C1565 H1577 0.929 . S
C1566 C1562 1.531 . S
C1566 H1578 0.960 . S
C1566 H1579 0.962 . S
C1566 H1580 0.960 . S
C1567 C1564 1.523 1_545 S
C1567 H1581 0.970 . S
C1567 H1582 1.016 . S
C1567 H1583 0.892 1_545 S
C1568 C1569 1.370 . S
C1568 C1570 1.363 . S
C1568 H1584 0.931 . S
C1569 C1568 1.370 . S
C1569 C1573 1.408 1_545 S
C1570 C1568 1.363 . S
C1570 C1571 1.414 . S
C1570 C1574 1.524 . S
C1571 C1563 1.488 1_545 S
C1571 C1570 1.414 . S
C1571 C1572 1.376 1_545 S
C1572 C1571 1.376 1_565 S
C1572 C1573 1.404 . S
C1572 C1575 1.539 . S
C1573 C1569 1.408 1_565 S
C1573 C1572 1.404 . S
C1573 H1585 0.930 . S
C1574 C1570 1.524 . S
C1574 H1586 0.956 . S
C1574 H1587 0.961 . S
C1574 H1588 0.961 . S
C1575 C1572 1.539 . S
C1575 H1589 0.958 . S
C1575 H1590 0.961 . S
C1575 H1591 0.960 . S
H1576 C1560 0.931 . S
H1577 C1565 0.929 . S
H1578 C1566 0.960 . S
H1579 C1566 0.962 . S
H1580 C1566 0.960 . S
H1581 C1567 0.970 . S
H1582 C1567 1.016 . S
H1583 C1567 0.892 1_565 S
H1584 C1568 0.931 . S
H1585 C1573 0.930 . S
H1586 C1574 0.956 . S
H1587 C1574 0.961 . S
H1588 C1574 0.961 . S
H1589 C1575 0.958 . S
H1590 C1575 0.961 . S
H1591 C1575 0.960 . S
C1592 C1593 1.391 . S
C1592 C1594 1.394 . S
C1592 H1608 0.931 . S
C1593 C1592 1.391 . S
C1593 C1597 1.376 1_655 S
C1594 C1592 1.394 . S
C1594 C1595 1.369 . S
C1594 C1598 1.531 . S
C1595 C1594 1.369 . S
C1595 C1596 1.410 1_655 S
C1595 C1603 1.503 1_655 S
C1596 C1595 1.410 1_455 S
C1596 C1597 1.392 . S
C1596 C1599 1.511 . S
C1597 C1593 1.376 1_455 S
C1597 C1596 1.392 . S
C1597 H1609 0.929 . S
C1598 C1594 1.531 . S
C1598 H1610 0.960 . S
C1598 H1611 0.962 . S
C1598 H1612 0.960 . S
C1599 C1596 1.511 . S
C1599 H1613 0.961 . S
C1599 H1614 0.961 . S
C1599 H1615 0.961 . S
C1600 C1601 1.370 . S
C1600 C1602 1.363 . S
C1600 H1616 0.931 . S
C1601 C1600 1.370 . S
C1601 C1605 1.408 . S
C1602 C1600 1.363 . S
C1602 C1603 1.370 . S
C1602 C1606 1.524 1_455 S
C1603 C1595 1.503 1_455 S
C1603 C1602 1.370 . S
C1603 C1604 1.403 . S
C1604 C1603 1.403 . S
C1604 C1605 1.404 . S
C1604 C1607 1.539 . S
C1605 C1601 1.408 . S
C1605 C1604 1.404 . S
C1605 H1617 0.930 . S
C1606 C1602 1.524 1_655 S
C1606 H1618 0.956 . S
C1606 H1619 0.946 1_655 S
C1606 H1620 0.961 . S
C1607 C1604 1.539 . S
C1607 H1621 0.958 . S
C1607 H1622 0.961 . S
C1607 H1623 0.960 . S
H1608 C1592 0.931 . S
H1609 C1597 0.929 . S
H1610 C1598 0.960 . S
H1611 C1598 0.962 . S
H1612 C1598 0.960 . S
H1613 C1599 0.961 . S
H1614 C1599 0.961 . S
H1615 C1599 0.961 . S
H1616 C1600 0.931 . S
H1617 C1605 0.930 . S
H1618 C1606 0.956 . S
H1619 C1606 0.946 1_455 S
H1620 C1606 0.961 . S
H1621 C1607 0.958 . S
H1622 C1607 0.961 . S
H1623 C1607 0.960 . S
C1624 C1625 1.391 . S
C1624 C1626 1.394 . S
C1624 H1640 0.931 . S
C1625 C1624 1.391 . S
C1625 C1629 1.376 . S
C1626 C1624 1.394 . S
C1626 C1627 1.369 . S
C1626 C1630 1.531 . S
C1627 C1626 1.369 . S
C1627 C1628 1.410 . S
C1627 C1635 1.503 . S
C1628 C1627 1.410 . S
C1628 C1629 1.392 . S
C1628 C1631 1.511 . S
C1629 C1625 1.376 . S
C1629 C1628 1.392 . S
C1629 H1641 0.929 . S
C1630 C1626 1.531 . S
C1630 H1642 0.960 . S
C1630 H1643 0.962 . S
C1630 H1644 0.960 . S
C1631 C1628 1.511 . S
C1631 H1645 0.961 . S
C1631 H1646 0.961 . S
C1631 H1647 0.961 . S
C1632 C1633 1.370 . S
C1632 C1634 1.363 . S
C1632 H1648 0.931 . S
C1633 C1632 1.370 . S
C1633 C1637 1.408 . S
C1634 C1632 1.363 . S
C1634 C1635 1.370 . S
C1634 C1638 1.524 . S
C1635 C1627 1.503 . S
C1635 C1634 1.370 . S
C1635 C1636 1.403 . S
C1636 C1635 1.403 . S
C1636 C1637 1.404 . S
C1636 C1639 1.539 . S
C1637 C1633 1.408 . S
C1637 C1636 1.404 . S
C1637 H1649 0.930 . S
C1638 C1634 1.524 . S
C1638 H1650 0.956 . S
C1638 H1651 0.961 . S
C1638 H1652 0.961 . S
C1639 C1636 1.539 . S
C1639 H1653 0.958 . S
C1639 H1654 0.961 . S
C1639 H1655 0.960 . S
H1640 C1624 0.931 . S
H1641 C1629 0.929 . S
H1642 C1630 0.960 . S
H1643 C1630 0.962 . S
H1644 C1630 0.960 . S
H1645 C1631 0.961 . S
H1646 C1631 0.961 . S
H1647 C1631 0.961 . S
H1648 C1632 0.931 . S
H1649 C1637 0.930 . S
H1650 C1638 0.956 . S
H1651 C1638 0.961 . S
H1652 C1638 0.961 . S
H1653 C1639 0.958 . S
H1654 C1639 0.961 . S
H1655 C1639 0.960 . S
C1656 C1657 1.391 . S
C1656 C1658 1.394 . S
C1656 H1672 0.931 . S
C1657 C1656 1.391 . S
C1657 C1661 1.376 . S
C1658 C1656 1.394 . S
C1658 C1659 1.369 . S
C1658 C1662 1.531 . S
C1659 C1658 1.369 . S
C1659 C1660 1.410 . S
C1659 C1667 1.503 . S
C1660 C1659 1.410 . S
C1660 C1661 1.392 . S
C1660 C1663 1.511 . S
C1661 C1657 1.376 . S
C1661 C1660 1.392 . S
C1661 H1673 0.929 . S
C1662 C1658 1.531 . S
C1662 H1674 0.960 . S
C1662 H1675 0.962 . S
C1662 H1676 0.960 . S
C1663 C1660 1.511 . S
C1663 H1677 0.961 . S
C1663 H1678 0.961 . S
C1663 H1679 0.961 . S
C1664 C1665 1.370 . S
C1664 C1666 1.363 . S
C1664 H1680 0.931 . S
C1665 C1664 1.370 . S
C1665 C1669 1.408 . S
C1666 C1664 1.363 . S
C1666 C1667 1.370 . S
C1666 C1670 1.524 . S
C1667 C1659 1.503 . S
C1667 C1666 1.370 . S
C1667 C1668 1.403 . S
C1668 C1667 1.403 . S
C1668 C1669 1.404 . S
C1668 C1671 1.539 . S
C1669 C1665 1.408 . S
C1669 C1668 1.404 . S
C1669 H1681 0.930 . S
C1670 C1666 1.524 . S
C1670 H1682 0.956 . S
C1670 H1683 0.961 . S
C1670 H1684 0.961 . S
C1671 C1668 1.539 . S
C1671 H1685 0.958 . S
C1671 H1686 0.961 . S
C1671 H1687 0.960 . S
H1672 C1656 0.931 . S
H1673 C1661 0.929 . S
H1674 C1662 0.960 . S
H1675 C1662 0.962 . S
H1676 C1662 0.960 . S
H1677 C1663 0.961 . S
H1678 C1663 0.961 . S
H1679 C1663 0.961 . S
H1680 C1664 0.931 . S
H1681 C1669 0.930 . S
H1682 C1670 0.956 . S
H1683 C1670 0.961 . S
H1684 C1670 0.961 . S
H1685 C1671 0.958 . S
H1686 C1671 0.961 . S
H1687 C1671 0.960 . S
C1688 C1689 1.391 . S
C1688 C1690 1.394 . S
C1688 H1704 0.931 . S
C1689 C1688 1.391 . S
C1689 C1693 1.376 . S
C1690 C1688 1.394 . S
C1690 C1691 1.369 . S
C1690 C1694 1.531 . S
C1691 C1690 1.369 . S
C1691 C1692 1.410 . S
C1691 C1699 1.503 . S
C1692 C1691 1.410 . S
C1692 C1693 1.392 . S
C1692 C1695 1.511 . S
C1693 C1689 1.376 . S
C1693 C1692 1.392 . S
C1693 H1705 0.929 . S
C1694 C1690 1.531 . S
C1694 H1706 0.960 . S
C1694 H1707 0.962 . S
C1694 H1708 0.960 . S
C1695 C1692 1.511 . S
C1695 H1709 0.961 . S
C1695 H1710 0.961 . S
C1695 H1711 0.961 . S
C1696 C1697 1.370 . S
C1696 C1698 1.363 . S
C1696 H1712 0.931 . S
C1697 C1696 1.370 . S
C1697 C1701 1.408 . S
C1698 C1696 1.363 . S
C1698 C1699 1.370 . S
C1698 C1702 1.524 . S
C1699 C1691 1.503 . S
C1699 C1698 1.370 . S
C1699 C1700 1.403 . S
C1700 C1699 1.403 . S
C1700 C1701 1.404 . S
C1700 C1703 1.539 . S
C1701 C1697 1.408 . S
C1701 C1700 1.404 . S
C1701 H1713 0.930 . S
C1702 C1698 1.524 . S
C1702 H1714 0.956 . S
C1702 H1715 0.961 . S
C1702 H1716 0.961 . S
C1703 C1700 1.539 . S
C1703 H1717 0.958 . S
C1703 H1718 0.961 . S
C1703 H1719 0.960 . S
H1704 C1688 0.931 . S
H1705 C1693 0.929 . S
H1706 C1694 0.960 . S
H1707 C1694 0.962 . S
H1708 C1694 0.960 . S
H1709 C1695 0.961 . S
H1710 C1695 0.961 . S
H1711 C1695 0.961 . S
H1712 C1696 0.931 . S
H1713 C1701 0.930 . S
H1714 C1702 0.956 . S
H1715 C1702 0.961 . S
H1716 C1702 0.961 . S
H1717 C1703 0.958 . S
H1718 C1703 0.961 . S
H1719 C1703 0.960 . S
C1720 C1721 1.391 . S
C1720 C1722 1.394 . S
C1720 H1736 0.931 . S
C1721 C1720 1.391 . S
C1721 C1725 1.376 . S
C1722 C1720 1.394 . S
C1722 C1723 1.369 . S
C1722 C1726 1.531 . S
C1723 C1722 1.369 . S
C1723 C1724 1.410 . S
C1723 C1731 1.503 . S
C1724 C1723 1.410 . S
C1724 C1725 1.392 . S
C1724 C1727 1.511 . S
C1725 C1721 1.376 . S
C1725 C1724 1.392 . S
C1725 H1737 0.929 . S
C1726 C1722 1.531 . S
C1726 H1738 0.960 . S
C1726 H1739 0.962 . S
C1726 H1740 0.960 . S
C1727 C1724 1.511 . S
C1727 H1741 0.961 . S
C1727 H1742 0.961 . S
C1727 H1743 0.961 . S
C1728 C1729 1.370 . S
C1728 C1730 1.363 . S
C1728 H1744 0.931 . S
C1729 C1728 1.370 . S
C1729 C1733 1.408 . S
C1730 C1728 1.363 . S
C1730 C1731 1.370 . S
C1730 C1734 1.524 . S
C1731 C1723 1.503 . S
C1731 C1730 1.370 . S
C1731 C1732 1.403 . S
C1732 C1731 1.403 . S
C1732 C1733 1.404 . S
C1732 C1735 1.539 . S
C1733 C1729 1.408 . S
C1733 C1732 1.404 . S
C1733 H1745 0.930 . S
C1734 C1730 1.524 . S
C1734 H1746 0.956 . S
C1734 H1747 0.961 . S
C1734 H1748 0.961 . S
C1735 C1732 1.539 . S
C1735 H1749 0.958 . S
C1735 H1750 0.961 . S
C1735 H1751 0.960 . S
H1736 C1720 0.931 . S
H1737 C1725 0.929 . S
H1738 C1726 0.960 . S
H1739 C1726 0.962 . S
H1740 C1726 0.960 . S
H1741 C1727 0.961 . S
H1742 C1727 0.961 . S
H1743 C1727 0.961 . S
H1744 C1728 0.931 . S
H1745 C1733 0.930 . S
H1746 C1734 0.956 . S
H1747 C1734 0.961 . S
H1748 C1734 0.961 . S
H1749 C1735 0.958 . S
H1750 C1735 0.961 . S
H1751 C1735 0.960 . S
C1752 C1753 1.391 . S
C1752 C1754 1.394 . S
C1752 H1768 0.931 . S
C1753 C1752 1.391 . S
C1753 C1757 1.376 . S
C1754 C1752 1.394 . S
C1754 C1755 1.369 . S
C1754 C1758 1.531 . S
C1755 C1754 1.369 . S
C1755 C1756 1.410 . S
C1755 C1763 1.503 . S
C1756 C1755 1.410 . S
C1756 C1757 1.392 . S
C1756 C1759 1.511 . S
C1757 C1753 1.376 . S
C1757 C1756 1.392 . S
C1757 H1769 0.929 . S
C1758 C1754 1.531 . S
C1758 H1770 0.960 . S
C1758 H1771 0.962 . S
C1758 H1772 0.960 . S
C1759 C1756 1.511 . S
C1759 H1773 0.961 . S
C1759 H1774 0.961 . S
C1759 H1775 0.961 . S
C1760 C1761 1.370 . S
C1760 C1762 1.363 . S
C1760 H1776 0.931 . S
C1761 C1760 1.370 . S
C1761 C1765 1.408 . S
C1762 C1760 1.363 . S
C1762 C1763 1.370 . S
C1762 C1766 1.524 . S
C1763 C1755 1.503 . S
C1763 C1762 1.370 . S
C1763 C1764 1.403 . S
C1764 C1763 1.403 . S
C1764 C1765 1.404 . S
C1764 C1767 1.539 . S
C1765 C1761 1.408 . S
C1765 C1764 1.404 . S
C1765 H1777 0.930 . S
C1766 C1762 1.524 . S
C1766 H1778 0.956 . S
C1766 H1779 0.961 . S
C1766 H1780 0.961 . S
C1767 C1764 1.539 . S
C1767 H1781 0.958 . S
C1767 H1782 0.961 . S
C1767 H1783 0.960 . S
H1768 C1752 0.931 . S
H1769 C1757 0.929 . S
H1770 C1758 0.960 . S
H1771 C1758 0.962 . S
H1772 C1758 0.960 . S
H1773 C1759 0.961 . S
H1774 C1759 0.961 . S
H1775 C1759 0.961 . S
H1776 C1760 0.931 . S
H1777 C1765 0.930 . S
H1778 C1766 0.956 . S
H1779 C1766 0.961 . S
H1780 C1766 0.961 . S
H1781 C1767 0.958 . S
H1782 C1767 0.961 . S
H1783 C1767 0.960 . S
C1784 C1785 1.391 . S
C1784 C1786 1.394 . S
C1784 H1800 0.931 . S
C1785 C1784 1.391 . S
C1785 C1789 1.376 . S
C1786 C1784 1.394 . S
C1786 C1787 1.369 . S
C1786 C1790 1.531 . S
C1787 C1786 1.369 . S
C1787 C1788 1.410 . S
C1787 C1795 1.503 . S
C1788 C1787 1.410 . S
C1788 C1789 1.392 . S
C1788 C1791 1.511 . S
C1789 C1785 1.376 . S
C1789 C1788 1.392 . S
C1789 H1801 0.929 . S
C1790 C1786 1.531 . S
C1790 H1802 0.960 . S
C1790 H1803 0.962 . S
C1790 H1804 0.960 . S
C1791 C1788 1.511 . S
C1791 H1805 0.961 . S
C1791 H1806 0.961 . S
C1791 H1807 0.961 . S
C1792 C1793 1.370 . S
C1792 C1794 1.363 . S
C1792 H1808 0.931 . S
C1793 C1792 1.370 . S
C1793 C1797 1.408 . S
C1794 C1792 1.363 . S
C1794 C1795 1.370 . S
C1794 C1798 1.524 . S
C1795 C1787 1.503 . S
C1795 C1794 1.370 . S
C1795 C1796 1.403 . S
C1796 C1795 1.403 . S
C1796 C1797 1.404 . S
C1796 C1799 1.539 . S
C1797 C1793 1.408 . S
C1797 C1796 1.404 . S
C1797 H1809 0.930 . S
C1798 C1794 1.524 . S
C1798 H1810 0.956 . S
C1798 H1811 0.961 . S
C1798 H1812 0.961 . S
C1799 C1796 1.539 . S
C1799 H1813 0.958 . S
C1799 H1814 0.961 . S
C1799 H1815 0.960 . S
H1800 C1784 0.931 . S
H1801 C1789 0.929 . S
H1802 C1790 0.960 . S
H1803 C1790 0.962 . S
H1804 C1790 0.960 . S
H1805 C1791 0.961 . S
H1806 C1791 0.961 . S
H1807 C1791 0.961 . S
H1808 C1792 0.931 . S
H1809 C1797 0.930 . S
H1810 C1798 0.956 . S
H1811 C1798 0.961 . S
H1812 C1798 0.961 . S
H1813 C1799 0.958 . S
H1814 C1799 0.961 . S
H1815 C1799 0.960 . S
C1816 C1817 1.391 . S
C1816 C1818 1.394 . S
C1816 H1832 0.931 . S
C1817 C1816 1.391 . S
C1817 C1821 1.376 . S
C1818 C1816 1.394 . S
C1818 C1819 1.369 . S
C1818 C1822 1.531 . S
C1819 C1818 1.369 . S
C1819 C1820 1.410 . S
C1819 C1827 1.503 . S
C1820 C1819 1.410 . S
C1820 C1821 1.392 . S
C1820 C1823 1.511 . S
C1821 C1817 1.376 . S
C1821 C1820 1.392 . S
C1821 H1833 0.929 . S
C1822 C1818 1.531 . S
C1822 H1834 0.960 . S
C1822 H1835 0.962 . S
C1822 H1836 0.960 . S
C1823 C1820 1.511 . S
C1823 H1837 0.961 . S
C1823 H1838 0.961 . S
C1823 H1839 0.961 . S
C1824 C1825 1.370 . S
C1824 C1826 1.363 . S
C1824 H1840 0.931 . S
C1825 C1824 1.370 . S
C1825 C1829 1.408 . S
C1826 C1824 1.363 . S
C1826 C1827 1.370 . S
C1826 C1830 1.524 . S
C1827 C1819 1.503 . S
C1827 C1826 1.370 . S
C1827 C1828 1.403 . S
C1828 C1827 1.403 . S
C1828 C1829 1.404 . S
C1828 C1831 1.539 . S
C1829 C1825 1.408 . S
C1829 C1828 1.404 . S
C1829 H1841 0.930 . S
C1830 C1826 1.524 . S
C1830 H1842 0.956 . S
C1830 H1843 0.961 . S
C1830 H1844 0.961 . S
C1831 C1828 1.539 . S
C1831 H1845 0.958 . S
C1831 H1846 0.961 . S
C1831 H1847 0.960 . S
H1832 C1816 0.931 . S
H1833 C1821 0.929 . S
H1834 C1822 0.960 . S
H1835 C1822 0.962 . S
H1836 C1822 0.960 . S
H1837 C1823 0.961 . S
H1838 C1823 0.961 . S
H1839 C1823 0.961 . S
H1840 C1824 0.931 . S
H1841 C1829 0.930 . S
H1842 C1830 0.956 . S
H1843 C1830 0.961 . S
H1844 C1830 0.961 . S
H1845 C1831 0.958 . S
H1846 C1831 0.961 . S
H1847 C1831 0.960 . S
C1848 C1849 1.391 . S
C1848 C1850 1.394 . S
C1848 H1864 0.931 . S
C1849 C1848 1.391 . S
C1849 C1853 1.376 . S
C1850 C1848 1.394 . S
C1850 C1851 1.369 . S
C1850 C1854 1.531 . S
C1851 C1850 1.369 . S
C1851 C1852 1.410 . S
C1851 C1859 1.503 . S
C1852 C1851 1.410 . S
C1852 C1853 1.392 . S
C1852 C1855 1.511 . S
C1853 C1849 1.376 . S
C1853 C1852 1.392 . S
C1853 H1865 0.929 . S
C1854 C1850 1.531 . S
C1854 H1866 0.960 . S
C1854 H1867 0.962 . S
C1854 H1868 0.960 . S
C1855 C1852 1.511 . S
C1855 H1869 0.961 . S
C1855 H1870 0.961 . S
C1855 H1871 0.961 . S
C1856 C1857 1.370 . S
C1856 C1858 1.363 . S
C1856 H1872 0.931 . S
C1857 C1856 1.370 . S
C1857 C1861 1.408 . S
C1858 C1856 1.363 . S
C1858 C1859 1.370 . S
C1858 C1862 1.524 . S
C1859 C1851 1.503 . S
C1859 C1858 1.370 . S
C1859 C1860 1.403 . S
C1860 C1859 1.403 . S
C1860 C1861 1.404 . S
C1860 C1863 1.539 . S
C1861 C1857 1.408 . S
C1861 C1860 1.404 . S
C1861 H1873 0.930 . S
C1862 C1858 1.524 . S
C1862 H1874 0.956 . S
C1862 H1875 0.961 . S
C1862 H1876 0.961 . S
C1863 C1860 1.539 . S
C1863 H1877 0.958 . S
C1863 H1878 0.961 . S
C1863 H1879 0.960 . S
H1864 C1848 0.931 . S
H1865 C1853 0.929 . S
H1866 C1854 0.960 . S
H1867 C1854 0.962 . S
H1868 C1854 0.960 . S
H1869 C1855 0.961 . S
H1870 C1855 0.961 . S
H1871 C1855 0.961 . S
H1872 C1856 0.931 . S
H1873 C1861 0.930 . S
H1874 C1862 0.956 . S
H1875 C1862 0.961 . S
H1876 C1862 0.961 . S
H1877 C1863 0.958 . S
H1878 C1863 0.961 . S
H1879 C1863 0.960 . S
C1880 C1881 1.391 . S
C1880 C1882 1.394 . S
C1880 H1896 0.931 . S
C1881 C1880 1.391 . S
C1881 C1885 1.376 . S
C1882 C1880 1.394 . S
C1882 C1883 1.369 . S
C1882 C1886 1.531 . S
C1883 C1882 1.369 . S
C1883 C1884 1.410 . S
C1883 C1891 1.503 . S
C1884 C1883 1.410 . S
C1884 C1885 1.392 . S
C1884 C1887 1.511 . S
C1885 C1881 1.376 . S
C1885 C1884 1.392 . S
C1885 H1897 0.929 . S
C1886 C1882 1.531 . S
C1886 H1898 0.960 . S
C1886 H1899 0.962 . S
C1886 H1900 0.960 . S
C1887 C1884 1.511 . S
C1887 H1901 0.961 . S
C1887 H1902 0.961 . S
C1887 H1903 0.961 . S
C1888 C1889 1.370 . S
C1888 C1890 1.363 . S
C1888 H1904 0.931 . S
C1889 C1888 1.370 . S
C1889 C1893 1.408 . S
C1890 C1888 1.363 . S
C1890 C1891 1.370 . S
C1890 C1894 1.524 . S
C1891 C1883 1.503 . S
C1891 C1890 1.370 . S
C1891 C1892 1.403 . S
C1892 C1891 1.403 . S
C1892 C1893 1.404 . S
C1892 C1895 1.539 . S
C1893 C1889 1.408 . S
C1893 C1892 1.404 . S
C1893 H1905 0.930 . S
C1894 C1890 1.524 . S
C1894 H1906 0.956 . S
C1894 H1907 0.961 . S
C1894 H1908 0.961 . S
C1895 C1892 1.539 . S
C1895 H1909 0.958 . S
C1895 H1910 0.961 . S
C1895 H1911 0.960 . S
H1896 C1880 0.931 . S
H1897 C1885 0.929 . S
H1898 C1886 0.960 . S
H1899 C1886 0.962 . S
H1900 C1886 0.960 . S
H1901 C1887 0.961 . S
H1902 C1887 0.961 . S
H1903 C1887 0.961 . S
H1904 C1888 0.931 . S
H1905 C1893 0.930 . S
H1906 C1894 0.956 . S
H1907 C1894 0.961 . S
H1908 C1894 0.961 . S
H1909 C1895 0.958 . S
H1910 C1895 0.961 . S
H1911 C1895 0.960 . S
C1912 C1913 1.391 . S
C1912 C1914 1.394 . S
C1912 H1928 0.931 . S
C1913 C1912 1.391 . S
C1913 C1917 1.376 . S
C1914 C1912 1.394 . S
C1914 C1915 1.369 . S
C1914 C1918 1.531 . S
C1915 C1914 1.369 . S
C1915 C1916 1.410 . S
C1915 C1923 1.503 . S
C1916 C1915 1.410 . S
C1916 C1917 1.392 . S
C1916 C1919 1.511 . S
C1917 C1913 1.376 . S
C1917 C1916 1.392 . S
C1917 H1929 0.929 . S
C1918 C1914 1.531 . S
C1918 H1930 0.960 . S
C1918 H1931 0.962 . S
C1918 H1932 0.960 . S
C1919 C1916 1.511 . S
C1919 H1933 0.961 . S
C1919 H1934 0.961 . S
C1919 H1935 0.961 . S
C1920 C1921 1.370 . S
C1920 C1922 1.363 . S
C1920 H1936 0.931 . S
C1921 C1920 1.370 . S
C1921 C1925 1.408 . S
C1922 C1920 1.363 . S
C1922 C1923 1.370 . S
C1922 C1926 1.524 . S
C1923 C1915 1.503 . S
C1923 C1922 1.370 . S
C1923 C1924 1.403 . S
C1924 C1923 1.403 . S
C1924 C1925 1.404 . S
C1924 C1927 1.539 . S
C1925 C1921 1.408 . S
C1925 C1924 1.404 . S
C1925 H1937 0.930 . S
C1926 C1922 1.524 . S
C1926 H1938 0.956 . S
C1926 H1939 0.961 . S
C1926 H1940 0.961 . S
C1927 C1924 1.539 . S
C1927 H1941 0.958 . S
C1927 H1942 0.961 . S
C1927 H1943 0.960 . S
H1928 C1912 0.931 . S
H1929 C1917 0.929 . S
H1930 C1918 0.960 . S
H1931 C1918 0.962 . S
H1932 C1918 0.960 . S
H1933 C1919 0.961 . S
H1934 C1919 0.961 . S
H1935 C1919 0.961 . S
H1936 C1920 0.931 . S
H1937 C1925 0.930 . S
H1938 C1926 0.956 . S
H1939 C1926 0.961 . S
H1940 C1926 0.961 . S
H1941 C1927 0.958 . S
H1942 C1927 0.961 . S
H1943 C1927 0.960 . S
C1944 C1945 1.391 . S
C1944 C1946 1.394 . S
C1944 H1960 0.931 . S
C1945 C1944 1.391 . S
C1945 C1949 1.376 . S
C1946 C1944 1.394 . S
C1946 C1947 1.369 . S
C1946 C1950 1.531 . S
C1947 C1946 1.369 . S
C1947 C1948 1.410 . S
C1947 C1955 1.503 . S
C1948 C1947 1.410 . S
C1948 C1949 1.392 . S
C1948 C1951 1.511 . S
C1949 C1945 1.376 . S
C1949 C1948 1.392 . S
C1949 H1961 0.929 . S
C1950 C1946 1.531 . S
C1950 H1962 0.960 . S
C1950 H1963 0.962 . S
C1950 H1964 0.960 . S
C1951 C1948 1.511 . S
C1951 H1965 0.961 . S
C1951 H1966 0.961 . S
C1951 H1967 0.961 . S
C1952 C1953 1.370 . S
C1952 C1954 1.363 . S
C1952 H1968 0.931 . S
C1953 C1952 1.370 . S
C1953 C1957 1.408 . S
C1954 C1952 1.363 . S
C1954 C1955 1.370 . S
C1954 C1958 1.524 . S
C1955 C1947 1.503 . S
C1955 C1954 1.370 . S
C1955 C1956 1.403 . S
C1956 C1955 1.403 . S
C1956 C1957 1.404 . S
C1956 C1959 1.539 . S
C1957 C1953 1.408 . S
C1957 C1956 1.404 . S
C1957 H1969 0.930 . S
C1958 C1954 1.524 . S
C1958 H1970 0.956 . S
C1958 H1971 0.961 . S
C1958 H1972 0.961 . S
C1959 C1956 1.539 . S
C1959 H1973 0.958 . S
C1959 H1974 0.961 . S
C1959 H1975 0.960 . S
H1960 C1944 0.931 . S
H1961 C1949 0.929 . S
H1962 C1950 0.960 . S
H1963 C1950 0.962 . S
H1964 C1950 0.960 . S
H1965 C1951 0.961 . S
H1966 C1951 0.961 . S
H1967 C1951 0.961 . S
H1968 C1952 0.931 . S
H1969 C1957 0.930 . S
H1970 C1958 0.956 . S
H1971 C1958 0.961 . S
H1972 C1958 0.961 . S
H1973 C1959 0.958 . S
H1974 C1959 0.961 . S
H1975 C1959 0.960 . S
C1976 C1977 1.391 . S
C1976 C1978 1.394 . S
C1976 H1992 0.931 . S
C1977 C1976 1.391 . S
C1977 C1981 1.376 . S
C1978 C1976 1.394 . S
C1978 C1979 1.369 . S
C1978 C1982 1.531 . S
C1979 C1978 1.369 . S
C1979 C1980 1.410 . S
C1979 C1987 1.503 . S
C1980 C1979 1.410 . S
C1980 C1981 1.392 . S
C1980 C1983 1.511 . S
C1981 C1977 1.376 . S
C1981 C1980 1.392 . S
C1981 H1993 0.929 . S
C1982 C1978 1.531 . S
C1982 H1994 0.960 . S
C1982 H1995 0.962 . S
C1982 H1996 0.960 . S
C1983 C1980 1.511 . S
C1983 H1997 0.961 . S
C1983 H1998 0.961 . S
C1983 H1999 0.961 . S
C1984 C1985 1.370 . S
C1984 C1986 1.363 . S
C1984 H2000 0.931 . S
C1985 C1984 1.370 . S
C1985 C1989 1.408 . S
C1986 C1984 1.363 . S
C1986 C1987 1.370 . S
C1986 C1990 1.524 . S
C1987 C1979 1.503 . S
C1987 C1986 1.370 . S
C1987 C1988 1.403 . S
C1988 C1987 1.403 . S
C1988 C1989 1.404 . S
C1988 C1991 1.539 . S
C1989 C1985 1.408 . S
C1989 C1988 1.404 . S
C1989 H2001 0.930 . S
C1990 C1986 1.524 . S
C1990 H2002 0.956 . S
C1990 H2003 0.961 . S
C1990 H2004 0.961 . S
C1991 C1988 1.539 . S
C1991 H2005 0.958 . S
C1991 H2006 0.961 . S
C1991 H2007 0.960 . S
H1992 C1976 0.931 . S
H1993 C1981 0.929 . S
H1994 C1982 0.960 . S
H1995 C1982 0.962 . S
H1996 C1982 0.960 . S
H1997 C1983 0.961 . S
H1998 C1983 0.961 . S
H1999 C1983 0.961 . S
H2000 C1984 0.931 . S
H2001 C1989 0.930 . S
H2002 C1990 0.956 . S
H2003 C1990 0.961 . S
H2004 C1990 0.961 . S
H2005 C1991 0.958 . S
H2006 C1991 0.961 . S
H2007 C1991 0.960 . S
C2008 C2009 1.391 . S
C2008 C2010 1.394 . S
C2008 H2024 0.931 . S
C2009 C2008 1.391 . S
C2009 C2013 1.376 . S
C2010 C2008 1.394 . S
C2010 C2011 1.369 . S
C2010 C2014 1.531 . S
C2011 C2010 1.369 . S
C2011 C2012 1.410 . S
C2011 C2019 1.503 . S
C2012 C2011 1.410 . S
C2012 C2013 1.392 . S
C2012 C2015 1.511 . S
C2013 C2009 1.376 . S
C2013 C2012 1.392 . S
C2013 H2025 0.929 . S
C2014 C2010 1.531 . S
C2014 H2026 0.960 . S
C2014 H2027 0.962 . S
C2014 H2028 0.960 . S
C2015 C2012 1.511 . S
C2015 H2029 0.961 . S
C2015 H2030 0.961 . S
C2015 H2031 0.961 . S
C2016 C2017 1.370 . S
C2016 C2018 1.363 . S
C2016 H2032 0.931 . S
C2017 C2016 1.370 . S
C2017 C2021 1.408 . S
C2018 C2016 1.363 . S
C2018 C2019 1.370 . S
C2018 C2022 1.524 . S
C2019 C2011 1.503 . S
C2019 C2018 1.370 . S
C2019 C2020 1.403 . S
C2020 C2019 1.403 . S
C2020 C2021 1.404 . S
C2020 C2023 1.539 . S
C2021 C2017 1.408 . S
C2021 C2020 1.404 . S
C2021 H2033 0.930 . S
C2022 C2018 1.524 . S
C2022 H2034 0.956 . S
C2022 H2035 0.961 . S
C2022 H2036 0.961 . S
C2023 C2020 1.539 . S
C2023 H2037 0.958 . S
C2023 H2038 0.961 . S
C2023 H2039 0.960 . S
H2024 C2008 0.931 . S
H2025 C2013 0.929 . S
H2026 C2014 0.960 . S
H2027 C2014 0.962 . S
H2028 C2014 0.960 . S
H2029 C2015 0.961 . S
H2030 C2015 0.961 . S
H2031 C2015 0.961 . S
H2032 C2016 0.931 . S
H2033 C2021 0.930 . S
H2034 C2022 0.956 . S
H2035 C2022 0.961 . S
H2036 C2022 0.961 . S
H2037 C2023 0.958 . S
H2038 C2023 0.961 . S
H2039 C2023 0.960 . S
C2040 C2041 1.391 . S
C2040 C2042 1.394 . S
C2040 H2056 0.931 . S
C2041 C2040 1.391 . S
C2041 C2045 1.376 . S
C2042 C2040 1.394 . S
C2042 C2043 1.369 . S
C2042 C2046 1.531 1_455 S
C2043 C2042 1.369 . S
C2043 C2044 1.410 . S
C2043 C2051 1.542 . S
C2044 C2043 1.410 . S
C2044 C2045 1.392 . S
C2044 C2047 1.511 . S
C2045 C2041 1.376 . S
C2045 C2044 1.392 . S
C2045 H2057 0.929 . S
C2046 C2042 1.531 1_655 S
C2046 H2058 0.960 1_655 S
C2046 H2059 0.962 . S
C2046 H2060 0.960 1_655 S
C2047 C2044 1.511 . S
C2047 H2061 0.961 . S
C2047 H2062 0.961 . S
C2047 H2063 0.961 . S
C2048 C2049 1.370 . S
C2048 C2050 1.363 . S
C2048 H2064 0.931 . S
C2049 C2048 1.370 . S
C2049 C2053 1.408 1_655 S
C2050 C2048 1.363 . S
C2050 C2051 1.319 1_655 S
C2050 C2054 1.524 . S
C2051 C2043 1.542 . S
C2051 C2050 1.319 1_455 S
C2051 C2052 1.417 . S
C2052 C2051 1.417 . S
C2052 C2053 1.404 . S
C2052 C2055 1.539 . S
C2053 C2049 1.408 1_455 S
C2053 C2052 1.404 . S
C2053 H2065 0.930 . S
C2054 C2050 1.524 . S
C2054 H2066 0.956 . S
C2054 H2067 0.961 . S
C2054 H2068 0.961 . S
C2055 C2052 1.539 . S
C2055 H2069 0.958 . S
C2055 H2070 0.961 . S
C2055 H2071 0.960 . S
H2056 C2040 0.931 . S
H2057 C2045 0.929 . S
H2058 C2046 0.960 1_455 S
H2059 C2046 0.962 . S
H2060 C2046 0.960 1_455 S
H2061 C2047 0.961 . S
H2062 C2047 0.961 . S
H2063 C2047 0.961 . S
H2064 C2048 0.931 . S
H2065 C2053 0.930 . S
H2066 C2054 0.956 . S
H2067 C2054 0.961 . S
H2068 C2054 0.961 . S
H2069 C2055 0.958 . S
H2070 C2055 0.961 . S
H2071 C2055 0.960 . S
C2072 C2073 1.391 . S
C2072 C2074 1.394 . S
C2072 H2088 0.931 . S
C2073 C2072 1.391 . S
C2073 C2077 1.376 . S
C2074 C2072 1.394 . S
C2074 C2075 1.369 . S
C2074 C2078 1.531 . S
C2075 C2074 1.369 . S
C2075 C2076 1.410 . S
C2075 C2083 1.503 . S
C2076 C2075 1.410 . S
C2076 C2077 1.392 . S
C2076 C2079 1.511 . S
C2077 C2073 1.376 . S
C2077 C2076 1.392 . S
C2077 H2089 0.929 . S
C2078 C2074 1.531 . S
C2078 H2090 0.960 . S
C2078 H2091 0.962 . S
C2078 H2092 0.960 . S
C2079 C2076 1.511 . S
C2079 H2093 0.961 . S
C2079 H2094 0.961 . S
C2079 H2095 0.961 . S
C2080 C2081 1.370 . S
C2080 C2082 1.363 . S
C2080 H2096 0.931 . S
C2081 C2080 1.370 . S
C2081 C2085 1.408 . S
C2082 C2080 1.363 . S
C2082 C2083 1.370 . S
C2082 C2086 1.524 . S
C2083 C2075 1.503 . S
C2083 C2082 1.370 . S
C2083 C2084 1.403 . S
C2084 C2083 1.403 . S
C2084 C2085 1.404 . S
C2084 C2087 1.539 . S
C2085 C2081 1.408 . S
C2085 C2084 1.404 . S
C2085 H2097 0.930 . S
C2086 C2082 1.524 . S
C2086 H2098 0.956 . S
C2086 H2099 0.961 . S
C2086 H2100 0.961 . S
C2087 C2084 1.539 . S
C2087 H2101 0.958 . S
C2087 H2102 0.961 . S
C2087 H2103 0.960 . S
H2088 C2072 0.931 . S
H2089 C2077 0.929 . S
H2090 C2078 0.960 . S
H2091 C2078 0.962 . S
H2092 C2078 0.960 . S
H2093 C2079 0.961 . S
H2094 C2079 0.961 . S
H2095 C2079 0.961 . S
H2096 C2080 0.931 . S
H2097 C2085 0.930 . S
H2098 C2086 0.956 . S
H2099 C2086 0.961 . S
H2100 C2086 0.961 . S
H2101 C2087 0.958 . S
H2102 C2087 0.961 . S
H2103 C2087 0.960 . S
C2104 C2105 1.392 . S
C2104 C2106 1.407 1_545 S
C2104 H2120 0.912 1_545 S
C2105 C2104 1.392 . S
C2105 C2109 1.376 . S
C2106 C2104 1.407 1_565 S
C2106 C2107 1.369 . S
C2106 C2110 1.531 . S
C2107 C2106 1.369 . S
C2107 C2108 1.410 1_565 S
C2107 C2115 1.503 . S
C2108 C2107 1.410 1_545 S
C2108 C2109 1.392 . S
C2108 C2111 1.511 . S
C2109 C2105 1.376 . S
C2109 C2108 1.392 . S
C2109 H2121 0.929 . S
C2110 C2106 1.531 . S
C2110 H2122 0.960 . S
C2110 H2123 0.962 . S
C2110 H2124 0.960 . S
C2111 C2108 1.511 . S
C2111 H2125 0.961 . S
C2111 H2126 0.961 . S
C2111 H2127 0.961 1_545 S
C2112 C2113 1.370 1_545 S
C2112 C2114 1.363 . S
C2112 H2128 0.931 . S
C2113 C2112 1.370 1_565 S
C2113 C2117 1.408 . S
C2114 C2112 1.363 . S
C2114 C2115 1.370 1_545 S
C2114 C2118 1.524 . S
C2115 C2107 1.503 . S
C2115 C2114 1.370 1_565 S
C2115 C2116 1.403 . S
C2116 C2115 1.403 . S
C2116 C2117 1.404 . S
C2116 C2119 1.539 . S
C2117 C2113 1.408 . S
C2117 C2116 1.404 . S
C2117 H2129 0.930 . S
C2118 C2114 1.524 . S
C2118 H2130 0.956 . S
C2118 H2131 0.961 . S
C2118 H2132 0.961 . S
C2119 C2116 1.539 . S
C2119 H2133 0.958 . S
C2119 H2134 0.961 . S
C2119 H2135 0.960 . S
H2120 C2104 0.912 1_565 S
H2121 C2109 0.929 . S
H2122 C2110 0.960 . S
H2123 C2110 0.962 . S
H2124 C2110 0.960 . S
H2125 C2111 0.961 . S
H2126 C2111 0.961 . S
H2127 C2111 0.961 1_565 S
H2128 C2112 0.931 . S
H2129 C2117 0.930 . S
H2130 C2118 0.956 . S
H2131 C2118 0.961 . S
H2132 C2118 0.961 . S
H2133 C2119 0.958 . S
H2134 C2119 0.961 . S
H2135 C2119 0.960 . S
C2136 C2137 1.391 . S
C2136 C2138 1.394 . S
C2136 H2152 0.931 . S
C2137 C2136 1.391 . S
C2137 C2141 1.376 1_545 S
C2138 C2136 1.394 . S
C2138 C2139 1.370 . S
C2138 C2142 1.531 . S
C2139 C2138 1.370 . S
C2139 C2140 1.409 1_546 S
C2139 C2147 1.460 1_546 S
C2140 C2139 1.409 1_564 S
C2140 C2141 1.392 1_554 S
C2140 C2143 1.511 . S
C2141 C2137 1.376 1_565 S
C2141 C2140 1.392 1_556 S
C2141 H2153 0.929 . S
C2142 C2138 1.531 . S
C2142 H2154 0.960 1_556 S
C2142 H2155 0.962 . S
C2142 H2156 0.960 . S
C2143 C2140 1.511 . S
C2143 H2157 0.961 . S
C2143 H2158 0.961 . S
C2143 H2159 0.961 . S
C2144 C2145 1.370 . S
C2144 C2146 1.363 1_554 S
C2144 H2160 0.931 1_554 S
C2145 C2144 1.370 . S
C2145 C2149 1.408 . S
C2146 C2144 1.363 1_556 S
C2146 C2147 1.417 1_556 S
C2146 C2150 1.524 . S
C2147 C2139 1.460 1_564 S
C2147 C2146 1.417 1_554 S
C2147 C2148 1.401 1_565 S
C2148 C2147 1.401 1_545 S
C2148 C2149 1.404 1_545 S
C2148 C2151 1.539 . S
C2149 C2145 1.408 . S
C2149 C2148 1.404 1_565 S
C2149 H2161 0.930 1_565 S
C2150 C2146 1.524 . S
C2150 H2162 0.956 . S
C2150 H2163 0.961 . S
C2150 H2164 0.961 . S
C2151 C2148 1.539 . S
C2151 H2165 0.958 . S
C2151 H2166 0.961 . S
C2151 H2167 0.960 . S
H2152 C2136 0.931 . S
H2153 C2141 0.929 . S
H2154 C2142 0.960 1_554 S
H2155 C2142 0.962 . S
H2156 C2142 0.960 . S
H2157 C2143 0.961 . S
H2158 C2143 0.961 . S
H2159 C2143 0.961 . S
H2160 C2144 0.931 1_556 S
H2161 C2149 0.930 1_545 S
H2162 C2150 0.956 . S
H2163 C2150 0.961 . S
H2164 C2150 0.961 . S
H2165 C2151 0.958 . S
H2166 C2151 0.961 . S
H2167 C2151 0.960 . S
C2168 C2169 1.391 . S
C2168 C2170 1.394 . S
C2168 H2184 0.931 . S
C2169 C2168 1.391 . S
C2169 C2173 1.376 1_455 S
C2170 C2168 1.394 . S
C2170 C2171 1.360 1_455 S
C2170 C2174 1.531 . S
C2171 C2170 1.360 1_655 S
C2171 C2172 1.422 . S
C2171 C2179 1.499 1_554 S
C2172 C2171 1.422 . S
C2172 C2173 1.392 . S
C2172 C2175 1.511 1_554 S
C2173 C2169 1.376 1_655 S
C2173 C2172 1.392 . S
C2173 H2185 0.929 . S
C2174 C2170 1.531 . S
C2174 H2186 0.960 . S
C2174 H2187 0.962 . S
C2174 H2188 0.960 . S
C2175 C2172 1.511 1_556 S
C2175 H2189 0.961 . S
C2175 H2190 0.961 . S
C2175 H2191 0.961 . S
C2176 C2177 1.370 1_455 S
C2176 C2178 1.363 . S
C2176 H2192 0.931 . S
C2177 C2176 1.370 1_655 S
C2177 C2181 1.408 . S
C2178 C2176 1.363 . S
C2178 C2179 1.370 1_455 S
C2178 C2182 1.524 . S
C2179 C2171 1.499 1_556 S
C2179 C2178 1.370 1_655 S
C2179 C2180 1.403 1_556 S
C2180 C2179 1.403 1_554 S
C2180 C2181 1.404 1_554 S
C2180 C2183 1.539 . S
C2181 C2177 1.408 . S
C2181 C2180 1.404 1_556 S
C2181 H2193 0.930 1_556 S
C2182 C2178 1.524 . S
C2182 H2194 0.956 . S
C2182 H2195 0.961 . S
C2182 H2196 0.961 . S
C2183 C2180 1.539 . S
C2183 H2197 0.958 . S
C2183 H2198 0.961 . S
C2183 H2199 0.960 . S
H2184 C2168 0.931 . S
H2185 C2173 0.929 . S
H2186 C2174 0.960 . S
H2187 C2174 0.962 . S
H2188 C2174 0.960 . S
H2189 C2175 0.961 . S
H2190 C2175 0.961 . S
H2191 C2175 0.961 . S
H2192 C2176 0.931 . S
H2193 C2181 0.930 1_554 S
H2194 C2182 0.956 . S
H2195 C2182 0.961 . S
H2196 C2182 0.961 . S
H2197 C2183 0.958 . S
H2198 C2183 0.961 . S
H2199 C2183 0.960 . S
C2200 C2201 1.391 1_556 S
C2200 C2202 1.394 . S
C2200 H2216 0.931 . S
C2201 C2200 1.391 1_554 S
C2201 C2205 1.376 . S
C2202 C2200 1.394 . S
C2202 C2203 1.369 1_556 S
C2202 C2206 1.531 . S
C2203 C2202 1.369 1_554 S
C2203 C2204 1.410 . S
C2203 C2211 1.503 1_554 S
C2204 C2203 1.410 . S
C2204 C2205 1.392 . S
C2204 C2207 1.511 . S
C2205 C2201 1.376 . S
C2205 C2204 1.392 . S
C2205 H2217 0.929 . S
C2206 C2202 1.531 . S
C2206 H2218 0.960 . S
C2206 H2219 0.962 . S
C2206 H2220 0.960 . S
C2207 C2204 1.511 . S
C2207 H2221 0.961 . S
C2207 H2222 0.961 . S
C2207 H2223 0.961 . S
C2208 C2209 1.370 . S
C2208 C2210 1.363 . S
C2208 H2224 0.931 . S
C2209 C2208 1.370 . S
C2209 C2213 1.408 . S
C2210 C2208 1.363 . S
C2210 C2211 1.370 . S
C2210 C2214 1.524 1_556 S
C2211 C2203 1.503 1_556 S
C2211 C2210 1.370 . S
C2211 C2212 1.403 . S
C2212 C2211 1.403 . S
C2212 C2213 1.404 . S
C2212 C2215 1.539 . S
C2213 C2209 1.408 . S
C2213 C2212 1.404 . S
C2213 H2225 0.930 . S
C2214 C2210 1.524 1_554 S
C2214 H2226 0.956 1_554 S
C2214 H2227 0.961 . S
C2214 H2228 0.961 . S
C2215 C2212 1.539 . S
C2215 H2229 0.958 . S
C2215 H2230 0.961 . S
C2215 H2231 0.960 . S
H2216 C2200 0.931 . S
H2217 C2205 0.929 . S
H2218 C2206 0.960 . S
H2219 C2206 0.962 . S
H2220 C2206 0.960 . S
H2221 C2207 0.961 . S
H2222 C2207 0.961 . S
H2223 C2207 0.961 . S
H2224 C2208 0.931 . S
H2225 C2213 0.930 . S
H2226 C2214 0.956 1_556 S
H2227 C2214 0.961 . S
H2228 C2214 0.961 . S
H2229 C2215 0.958 . S
H2230 C2215 0.961 . S
H2231 C2215 0.960 . S
C2232 C2233 1.391 . S
C2232 C2234 1.394 . S
C2232 H2248 0.931 . S
C2233 C2232 1.391 . S
C2233 C2237 1.376 . S
C2234 C2232 1.394 . S
C2234 C2235 1.369 . S
C2234 C2238 1.531 . S
C2235 C2234 1.369 . S
C2235 C2236 1.410 . S
C2235 C2243 1.503 . S
C2236 C2235 1.410 . S
C2236 C2237 1.392 . S
C2236 C2239 1.511 . S
C2237 C2233 1.376 . S
C2237 C2236 1.392 . S
C2237 H2249 0.929 . S
C2238 C2234 1.531 . S
C2238 H2250 0.960 . S
C2238 H2251 0.962 . S
C2238 H2252 0.960 . S
C2239 C2236 1.511 . S
C2239 H2253 0.961 . S
C2239 H2254 0.961 . S
C2239 H2255 0.961 . S
C2240 C2241 1.370 . S
C2240 C2242 1.363 . S
C2240 H2256 0.931 . S
C2241 C2240 1.370 . S
C2241 C2245 1.408 . S
C2242 C2240 1.363 . S
C2242 C2243 1.370 . S
C2242 C2246 1.524 . S
C2243 C2235 1.503 . S
C2243 C2242 1.370 . S
C2243 C2244 1.403 . S
C2244 C2243 1.403 . S
C2244 C2245 1.404 . S
C2244 C2247 1.539 . S
C2245 C2241 1.408 . S
C2245 C2244 1.404 . S
C2245 H2257 0.930 . S
C2246 C2242 1.524 . S
C2246 H2258 0.956 . S
C2246 H2259 0.961 . S
C2246 H2260 0.961 . S
C2247 C2244 1.539 . S
C2247 H2261 0.958 . S
C2247 H2262 0.961 . S
C2247 H2263 0.960 . S
H2248 C2232 0.931 . S
H2249 C2237 0.929 . S
H2250 C2238 0.960 . S
H2251 C2238 0.962 . S
H2252 C2238 0.960 . S
H2253 C2239 0.961 . S
H2254 C2239 0.961 . S
H2255 C2239 0.961 . S
H2256 C2240 0.931 . S
H2257 C2245 0.930 . S
H2258 C2246 0.956 . S
H2259 C2246 0.961 . S
H2260 C2246 0.961 . S
H2261 C2247 0.958 . S
H2262 C2247 0.961 . S
H2263 C2247 0.960 . S
C2264 C2265 1.391 . S
C2264 C2266 1.394 . S
C2264 H2280 0.931 . S
C2265 C2264 1.391 . S
C2265 C2269 1.376 . S
C2266 C2264 1.394 . S
C2266 C2267 1.369 . S
C2266 C2270 1.531 . S
C2267 C2266 1.369 . S
C2267 C2268 1.410 . S
C2267 C2275 1.503 . S
C2268 C2267 1.410 . S
C2268 C2269 1.392 . S
C2268 C2271 1.511 . S
C2269 C2265 1.376 . S
C2269 C2268 1.392 . S
C2269 H2281 0.929 . S
C2270 C2266 1.531 . S
C2270 H2282 0.960 . S
C2270 H2283 0.962 . S
C2270 H2284 0.960 . S
C2271 C2268 1.511 . S
C2271 H2285 0.961 . S
C2271 H2286 0.961 . S
C2271 H2287 0.961 . S
C2272 C2273 1.370 . S
C2272 C2274 1.363 . S
C2272 H2288 0.931 . S
C2273 C2272 1.370 . S
C2273 C2277 1.408 . S
C2274 C2272 1.363 . S
C2274 C2275 1.370 . S
C2274 C2278 1.524 . S
C2275 C2267 1.503 . S
C2275 C2274 1.370 . S
C2275 C2276 1.403 . S
C2276 C2275 1.403 . S
C2276 C2277 1.404 . S
C2276 C2279 1.539 . S
C2277 C2273 1.408 . S
C2277 C2276 1.404 . S
C2277 H2289 0.930 . S
C2278 C2274 1.524 . S
C2278 H2290 0.956 . S
C2278 H2291 0.961 . S
C2278 H2292 0.961 . S
C2279 C2276 1.539 . S
C2279 H2293 0.958 . S
C2279 H2294 0.961 . S
C2279 H2295 0.960 . S
H2280 C2264 0.931 . S
H2281 C2269 0.929 . S
H2282 C2270 0.960 . S
H2283 C2270 0.962 . S
H2284 C2270 0.960 . S
H2285 C2271 0.961 . S
H2286 C2271 0.961 . S
H2287 C2271 0.961 . S
H2288 C2272 0.931 . S
H2289 C2277 0.930 . S
H2290 C2278 0.956 . S
H2291 C2278 0.961 . S
H2292 C2278 0.961 . S
H2293 C2279 0.958 . S
H2294 C2279 0.961 . S
H2295 C2279 0.960 . S
C2296 C2297 1.391 . S
C2296 C2298 1.394 . S
C2296 H2312 0.931 1_554 S
C2297 C2296 1.391 . S
C2297 C2301 1.376 . S
C2298 C2296 1.394 . S
C2298 C2299 1.369 . S
C2298 C2302 1.531 . S
C2299 C2298 1.369 . S
C2299 C2300 1.410 . S
C2299 C2307 1.503 . S
C2300 C2299 1.410 . S
C2300 C2301 1.392 . S
C2300 C2303 1.511 . S
C2301 C2297 1.376 . S
C2301 C2300 1.392 . S
C2301 H2313 0.929 . S
C2302 C2298 1.531 . S
C2302 H2314 0.960 . S
C2302 H2315 0.962 . S
C2302 H2316 0.960 . S
C2303 C2300 1.511 . S
C2303 H2317 0.961 . S
C2303 H2318 0.961 . S
C2303 H2319 0.961 . S
C2304 C2305 1.370 . S
C2304 C2306 1.363 . S
C2304 H2320 0.931 . S
C2305 C2304 1.370 . S
C2305 C2309 1.408 . S
C2306 C2304 1.363 . S
C2306 C2307 1.370 . S
C2306 C2310 1.524 . S
C2307 C2299 1.503 . S
C2307 C2306 1.370 . S
C2307 C2308 1.403 . S
C2308 C2307 1.403 . S
C2308 C2309 1.404 . S
C2308 C2311 1.539 . S
C2309 C2305 1.408 . S
C2309 C2308 1.404 . S
C2309 H2321 0.930 . S
C2310 C2306 1.524 . S
C2310 H2322 0.956 . S
C2310 H2323 0.961 . S
C2310 H2324 0.961 . S
C2311 C2308 1.539 . S
C2311 H2325 0.958 . S
C2311 H2326 0.961 . S
C2311 H2327 0.960 . S
H2312 C2296 0.931 1_556 S
H2313 C2301 0.929 . S
H2314 C2302 0.960 . S
H2315 C2302 0.962 . S
H2316 C2302 0.960 . S
H2317 C2303 0.961 . S
H2318 C2303 0.961 . S
H2319 C2303 0.961 . S
H2320 C2304 0.931 . S
H2321 C2309 0.930 . S
H2322 C2310 0.956 . S
H2323 C2310 0.961 . S
H2324 C2310 0.961 . S
H2325 C2311 0.958 . S
H2326 C2311 0.961 . S
H2327 C2311 0.960 . S
C2328 C2329 1.391 . S
C2328 C2330 1.394 . S
C2328 H2344 0.931 . S
C2329 C2328 1.391 . S
C2329 C2333 1.376 . S
C2330 C2328 1.394 . S
C2330 C2331 1.369 . S
C2330 C2334 1.531 . S
C2331 C2330 1.369 . S
C2331 C2332 1.410 . S
C2331 C2339 1.503 . S
C2332 C2331 1.410 . S
C2332 C2333 1.392 . S
C2332 C2335 1.511 . S
C2333 C2329 1.376 . S
C2333 C2332 1.392 . S
C2333 H2345 0.929 . S
C2334 C2330 1.531 . S
C2334 H2346 0.960 . S
C2334 H2347 0.962 . S
C2334 H2348 0.960 . S
C2335 C2332 1.511 . S
C2335 H2349 0.961 . S
C2335 H2350 0.961 . S
C2335 H2351 0.961 . S
C2336 C2337 1.370 . S
C2336 C2338 1.363 . S
C2336 H2352 0.931 . S
C2337 C2336 1.370 . S
C2337 C2341 1.408 . S
C2338 C2336 1.363 . S
C2338 C2339 1.370 . S
C2338 C2342 1.524 . S
C2339 C2331 1.503 . S
C2339 C2338 1.370 . S
C2339 C2340 1.403 . S
C2340 C2339 1.403 . S
C2340 C2341 1.404 . S
C2340 C2343 1.539 . S
C2341 C2337 1.408 . S
C2341 C2340 1.404 . S
C2341 H2353 0.930 . S
C2342 C2338 1.524 . S
C2342 H2354 0.956 . S
C2342 H2355 0.961 . S
C2342 H2356 0.961 . S
C2343 C2340 1.539 . S
C2343 H2357 0.958 . S
C2343 H2358 0.961 . S
C2343 H2359 0.960 . S
H2344 C2328 0.931 . S
H2345 C2333 0.929 . S
H2346 C2334 0.960 . S
H2347 C2334 0.962 . S
H2348 C2334 0.960 . S
H2349 C2335 0.961 . S
H2350 C2335 0.961 . S
H2351 C2335 0.961 . S
H2352 C2336 0.931 . S
H2353 C2341 0.930 . S
H2354 C2342 0.956 . S
H2355 C2342 0.961 . S
H2356 C2342 0.961 . S
H2357 C2343 0.958 . S
H2358 C2343 0.961 . S
H2359 C2343 0.960 . S
C2360 C2361 1.391 . S
C2360 C2362 1.394 . S
C2360 H2376 0.931 . S
C2361 C2360 1.391 . S
C2361 C2365 1.376 . S
C2362 C2360 1.394 . S
C2362 C2363 1.369 . S
C2362 C2366 1.531 . S
C2363 C2362 1.369 . S
C2363 C2364 1.410 . S
C2363 C2371 1.503 . S
C2364 C2363 1.410 . S
C2364 C2365 1.392 . S
C2364 C2367 1.511 . S
C2365 C2361 1.376 . S
C2365 C2364 1.392 . S
C2365 H2377 0.929 . S
C2366 C2362 1.531 . S
C2366 H2378 0.960 . S
C2366 H2379 0.962 . S
C2366 H2380 0.960 . S
C2367 C2364 1.511 . S
C2367 H2381 0.961 . S
C2367 H2382 0.961 . S
C2367 H2383 0.961 . S
C2368 C2369 1.370 . S
C2368 C2370 1.363 . S
C2368 H2384 0.931 . S
C2369 C2368 1.370 . S
C2369 C2373 1.408 . S
C2370 C2368 1.363 . S
C2370 C2371 1.370 . S
C2370 C2374 1.524 . S
C2371 C2363 1.503 . S
C2371 C2370 1.370 . S
C2371 C2372 1.403 . S
C2372 C2371 1.403 . S
C2372 C2373 1.404 . S
C2372 C2375 1.539 . S
C2373 C2369 1.408 . S
C2373 C2372 1.404 . S
C2373 H2385 0.930 . S
C2374 C2370 1.524 . S
C2374 H2386 0.956 . S
C2374 H2387 0.961 . S
C2374 H2388 0.961 . S
C2375 C2372 1.539 . S
C2375 H2389 0.958 . S
C2375 H2390 0.961 . S
C2375 H2391 0.960 . S
H2376 C2360 0.931 . S
H2377 C2365 0.929 . S
H2378 C2366 0.960 . S
H2379 C2366 0.962 . S
H2380 C2366 0.960 . S
H2381 C2367 0.961 . S
H2382 C2367 0.961 . S
H2383 C2367 0.961 . S
H2384 C2368 0.931 . S
H2385 C2373 0.930 . S
H2386 C2374 0.956 . S
H2387 C2374 0.961 . S
H2388 C2374 0.961 . S
H2389 C2375 0.958 . S
H2390 C2375 0.961 . S
H2391 C2375 0.960 . S
C2392 C2393 1.391 . S
C2392 C2394 1.394 . S
C2392 H2408 0.931 . S
C2393 C2392 1.391 . S
C2393 C2397 1.376 . S
C2394 C2392 1.394 . S
C2394 C2395 1.369 . S
C2394 C2398 1.531 . S
C2395 C2394 1.369 . S
C2395 C2396 1.410 . S
C2395 C2403 1.503 . S
C2396 C2395 1.410 . S
C2396 C2397 1.392 . S
C2396 C2399 1.511 . S
C2397 C2393 1.376 . S
C2397 C2396 1.392 . S
C2397 H2409 0.929 . S
C2398 C2394 1.531 . S
C2398 H2410 0.960 . S
C2398 H2411 0.962 . S
C2398 H2412 0.960 . S
C2399 C2396 1.511 . S
C2399 H2413 0.961 . S
C2399 H2414 0.961 . S
C2399 H2415 0.961 . S
C2400 C2401 1.370 . S
C2400 C2402 1.363 . S
C2400 H2416 0.931 . S
C2401 C2400 1.370 . S
C2401 C2405 1.408 . S
C2402 C2400 1.363 . S
C2402 C2403 1.370 . S
C2402 C2406 1.524 . S
C2403 C2395 1.503 . S
C2403 C2402 1.370 . S
C2403 C2404 1.403 . S
C2404 C2403 1.403 . S
C2404 C2405 1.404 . S
C2404 C2407 1.539 . S
C2405 C2401 1.408 . S
C2405 C2404 1.404 . S
C2405 H2417 0.930 . S
C2406 C2402 1.524 . S
C2406 H2418 0.956 . S
C2406 H2419 0.961 . S
C2406 H2420 0.961 . S
C2407 C2404 1.539 . S
C2407 H2421 0.958 . S
C2407 H2422 0.961 . S
C2407 H2423 0.960 . S
H2408 C2392 0.931 . S
H2409 C2397 0.929 . S
H2410 C2398 0.960 . S
H2411 C2398 0.962 . S
H2412 C2398 0.960 . S
H2413 C2399 0.961 . S
H2414 C2399 0.961 . S
H2415 C2399 0.961 . S
H2416 C2400 0.931 . S
H2417 C2405 0.930 . S
H2418 C2406 0.956 . S
H2419 C2406 0.961 . S
H2420 C2406 0.961 . S
H2421 C2407 0.958 . S
H2422 C2407 0.961 . S
H2423 C2407 0.960 . S
C2424 C2425 1.391 . S
C2424 C2426 1.394 . S
C2424 H2440 0.931 . S
C2425 C2424 1.391 . S
C2425 C2429 1.376 . S
C2426 C2424 1.394 . S
C2426 C2427 1.369 . S
C2426 C2430 1.531 . S
C2427 C2426 1.369 . S
C2427 C2428 1.410 . S
C2427 C2435 1.503 . S
C2428 C2427 1.410 . S
C2428 C2429 1.392 . S
C2428 C2431 1.511 . S
C2429 C2425 1.376 . S
C2429 C2428 1.392 . S
C2429 H2441 0.929 . S
C2430 C2426 1.531 . S
C2430 H2442 0.960 . S
C2430 H2443 0.962 . S
C2430 H2444 0.960 . S
C2431 C2428 1.511 . S
C2431 H2445 0.961 . S
C2431 H2446 0.961 . S
C2431 H2447 0.961 . S
C2432 C2433 1.370 . S
C2432 C2434 1.363 . S
C2432 H2448 0.931 . S
C2433 C2432 1.370 . S
C2433 C2437 1.408 . S
C2434 C2432 1.363 . S
C2434 C2435 1.370 . S
C2434 C2438 1.524 . S
C2435 C2427 1.503 . S
C2435 C2434 1.370 . S
C2435 C2436 1.403 . S
C2436 C2435 1.403 . S
C2436 C2437 1.404 . S
C2436 C2439 1.539 . S
C2437 C2433 1.408 . S
C2437 C2436 1.404 . S
C2437 H2449 0.930 . S
C2438 C2434 1.524 . S
C2438 H2450 0.956 . S
C2438 H2451 0.961 . S
C2438 H2452 0.961 . S
C2439 C2436 1.539 . S
C2439 H2453 0.958 . S
C2439 H2454 0.961 . S
C2439 H2455 0.960 . S
H2440 C2424 0.931 . S
H2441 C2429 0.929 . S
H2442 C2430 0.960 . S
H2443 C2430 0.962 . S
H2444 C2430 0.960 . S
H2445 C2431 0.961 . S
H2446 C2431 0.961 . S
H2447 C2431 0.961 . S
H2448 C2432 0.931 . S
H2449 C2437 0.930 . S
H2450 C2438 0.956 . S
H2451 C2438 0.961 . S
H2452 C2438 0.961 . S
H2453 C2439 0.958 . S
H2454 C2439 0.961 . S
H2455 C2439 0.960 . S
C2456 C2457 1.391 . S
C2456 C2458 1.394 . S
C2456 H2472 0.931 . S
C2457 C2456 1.391 . S
C2457 C2461 1.376 . S
C2458 C2456 1.394 . S
C2458 C2459 1.369 . S
C2458 C2462 1.531 . S
C2459 C2458 1.369 . S
C2459 C2460 1.410 . S
C2459 C2467 1.503 . S
C2460 C2459 1.410 . S
C2460 C2461 1.392 . S
C2460 C2463 1.511 . S
C2461 C2457 1.376 . S
C2461 C2460 1.392 . S
C2461 H2473 0.929 . S
C2462 C2458 1.531 . S
C2462 H2474 0.960 . S
C2462 H2475 0.962 . S
C2462 H2476 0.960 . S
C2463 C2460 1.511 . S
C2463 H2477 0.961 . S
C2463 H2478 0.961 . S
C2463 H2479 0.961 . S
C2464 C2465 1.370 . S
C2464 C2466 1.363 . S
C2464 H2480 0.931 . S
C2465 C2464 1.370 . S
C2465 C2469 1.408 . S
C2466 C2464 1.363 . S
C2466 C2467 1.370 . S
C2466 C2470 1.524 . S
C2467 C2459 1.503 . S
C2467 C2466 1.370 . S
C2467 C2468 1.403 . S
C2468 C2467 1.403 . S
C2468 C2469 1.404 . S
C2468 C2471 1.539 . S
C2469 C2465 1.408 . S
C2469 C2468 1.404 . S
C2469 H2481 0.930 . S
C2470 C2466 1.524 . S
C2470 H2482 0.956 . S
C2470 H2483 0.961 . S
C2470 H2484 0.961 . S
C2471 C2468 1.539 . S
C2471 H2485 0.958 . S
C2471 H2486 0.961 . S
C2471 H2487 0.960 . S
H2472 C2456 0.931 . S
H2473 C2461 0.929 . S
H2474 C2462 0.960 . S
H2475 C2462 0.962 . S
H2476 C2462 0.960 . S
H2477 C2463 0.961 . S
H2478 C2463 0.961 . S
H2479 C2463 0.961 . S
H2480 C2464 0.931 . S
H2481 C2469 0.930 . S
H2482 C2470 0.956 . S
H2483 C2470 0.961 . S
H2484 C2470 0.961 . S
H2485 C2471 0.958 . S
H2486 C2471 0.961 . S
H2487 C2471 0.960 . S
C2488 C2489 1.391 . S
C2488 C2490 1.394 . S
C2488 H2504 0.931 . S
C2489 C2488 1.391 . S
C2489 C2493 1.376 . S
C2490 C2488 1.394 . S
C2490 C2491 1.369 . S
C2490 C2494 1.531 . S
C2491 C2490 1.369 . S
C2491 C2492 1.410 . S
C2491 C2499 1.503 . S
C2492 C2491 1.410 . S
C2492 C2493 1.392 . S
C2492 C2495 1.511 . S
C2493 C2489 1.376 . S
C2493 C2492 1.392 . S
C2493 H2505 0.929 . S
C2494 C2490 1.531 . S
C2494 H2506 0.960 . S
C2494 H2507 0.962 . S
C2494 H2508 0.960 . S
C2495 C2492 1.511 . S
C2495 H2509 0.961 . S
C2495 H2510 0.961 . S
C2495 H2511 0.961 . S
C2496 C2497 1.370 . S
C2496 C2498 1.363 . S
C2496 H2512 0.931 . S
C2497 C2496 1.370 . S
C2497 C2501 1.408 . S
C2498 C2496 1.363 . S
C2498 C2499 1.370 . S
C2498 C2502 1.524 . S
C2499 C2491 1.503 . S
C2499 C2498 1.370 . S
C2499 C2500 1.403 . S
C2500 C2499 1.403 . S
C2500 C2501 1.404 . S
C2500 C2503 1.539 . S
C2501 C2497 1.408 . S
C2501 C2500 1.404 . S
C2501 H2513 0.930 . S
C2502 C2498 1.524 . S
C2502 H2514 0.956 . S
C2502 H2515 0.961 . S
C2502 H2516 0.961 . S
C2503 C2500 1.539 . S
C2503 H2517 0.958 . S
C2503 H2518 0.961 . S
C2503 H2519 0.960 . S
H2504 C2488 0.931 . S
H2505 C2493 0.929 . S
H2506 C2494 0.960 . S
H2507 C2494 0.962 . S
H2508 C2494 0.960 . S
H2509 C2495 0.961 . S
H2510 C2495 0.961 . S
H2511 C2495 0.961 . S
H2512 C2496 0.931 . S
H2513 C2501 0.930 . S
H2514 C2502 0.956 . S
H2515 C2502 0.961 . S
H2516 C2502 0.961 . S
H2517 C2503 0.958 . S
H2518 C2503 0.961 . S
H2519 C2503 0.960 . S
C2520 C2521 1.391 . S
C2520 C2522 1.394 . S
C2520 H2536 0.931 . S
C2521 C2520 1.391 . S
C2521 C2525 1.376 . S
C2522 C2520 1.394 . S
C2522 C2523 1.369 . S
C2522 C2526 1.531 . S
C2523 C2522 1.369 . S
C2523 C2524 1.410 . S
C2523 C2531 1.503 . S
C2524 C2523 1.410 . S
C2524 C2525 1.392 . S
C2524 C2527 1.511 . S
C2525 C2521 1.376 . S
C2525 C2524 1.392 . S
C2525 H2537 0.929 . S
C2526 C2522 1.531 . S
C2526 H2538 0.960 . S
C2526 H2539 0.962 . S
C2526 H2540 0.960 . S
C2527 C2524 1.511 . S
C2527 H2541 0.961 . S
C2527 H2542 0.961 . S
C2527 H2543 0.961 . S
C2528 C2529 1.370 . S
C2528 C2530 1.363 . S
C2528 H2544 0.931 . S
C2529 C2528 1.370 . S
C2529 C2533 1.408 . S
C2530 C2528 1.363 . S
C2530 C2531 1.370 . S
C2530 C2534 1.524 . S
C2531 C2523 1.503 . S
C2531 C2530 1.370 . S
C2531 C2532 1.403 . S
C2532 C2531 1.403 . S
C2532 C2533 1.404 . S
C2532 C2535 1.539 . S
C2533 C2529 1.408 . S
C2533 C2532 1.404 . S
C2533 H2545 0.930 . S
C2534 C2530 1.524 . S
C2534 H2546 0.956 . S
C2534 H2547 0.961 . S
C2534 H2548 0.961 . S
C2535 C2532 1.539 . S
C2535 H2549 0.958 . S
C2535 H2550 0.961 . S
C2535 H2551 0.960 . S
H2536 C2520 0.931 . S
H2537 C2525 0.929 . S
H2538 C2526 0.960 . S
H2539 C2526 0.962 . S
H2540 C2526 0.960 . S
H2541 C2527 0.961 . S
H2542 C2527 0.961 . S
H2543 C2527 0.961 . S
H2544 C2528 0.931 . S
H2545 C2533 0.930 . S
H2546 C2534 0.956 . S
H2547 C2534 0.961 . S
H2548 C2534 0.961 . S
H2549 C2535 0.958 . S
H2550 C2535 0.961 . S
H2551 C2535 0.960 . S
C2552 C2553 1.391 . S
C2552 C2554 1.394 . S
C2552 H2568 0.931 . S
C2553 C2552 1.391 . S
C2553 C2557 1.376 . S
C2554 C2552 1.394 . S
C2554 C2555 1.369 . S
C2554 C2558 1.531 . S
C2555 C2554 1.369 . S
C2555 C2556 1.410 . S
C2555 C2563 1.503 . S
C2556 C2555 1.410 . S
C2556 C2557 1.392 . S
C2556 C2559 1.511 . S
C2557 C2553 1.376 . S
C2557 C2556 1.392 . S
C2557 H2569 0.929 . S
C2558 C2554 1.531 . S
C2558 H2570 0.960 . S
C2558 H2571 0.962 . S
C2558 H2572 0.960 . S
C2559 C2556 1.511 . S
C2559 H2573 0.961 . S
C2559 H2574 0.961 . S
C2559 H2575 0.961 . S
C2560 C2561 1.370 . S
C2560 C2562 1.363 . S
C2560 H2576 0.931 . S
C2561 C2560 1.370 . S
C2561 C2565 1.408 . S
C2562 C2560 1.363 . S
C2562 C2563 1.370 . S
C2562 C2566 1.524 . S
C2563 C2555 1.503 . S
C2563 C2562 1.370 . S
C2563 C2564 1.403 . S
C2564 C2563 1.403 . S
C2564 C2565 1.404 . S
C2564 C2567 1.539 . S
C2565 C2561 1.408 . S
C2565 C2564 1.404 . S
C2565 H2577 0.930 . S
C2566 C2562 1.524 . S
C2566 H2578 0.956 . S
C2566 H2579 0.961 . S
C2566 H2580 0.961 . S
C2567 C2564 1.539 . S
C2567 H2581 0.958 . S
C2567 H2582 0.961 . S
C2567 H2583 0.960 . S
H2568 C2552 0.931 . S
H2569 C2557 0.929 . S
H2570 C2558 0.960 . S
H2571 C2558 0.962 . S
H2572 C2558 0.960 . S
H2573 C2559 0.961 . S
H2574 C2559 0.961 . S
H2575 C2559 0.961 . S
H2576 C2560 0.931 . S
H2577 C2565 0.930 . S
H2578 C2566 0.956 . S
H2579 C2566 0.961 . S
H2580 C2566 0.961 . S
H2581 C2567 0.958 . S
H2582 C2567 0.961 . S
H2583 C2567 0.960 . S
C2584 C2585 1.391 . S
C2584 C2586 1.394 . S
C2584 H2600 0.931 . S
C2585 C2584 1.391 . S
C2585 C2589 1.376 . S
C2586 C2584 1.394 . S
C2586 C2587 1.369 . S
C2586 C2590 1.531 . S
C2587 C2586 1.369 . S
C2587 C2588 1.410 . S
C2587 C2595 1.503 . S
C2588 C2587 1.410 . S
C2588 C2589 1.392 . S
C2588 C2591 1.511 . S
C2589 C2585 1.376 . S
C2589 C2588 1.392 . S
C2589 H2601 0.929 . S
C2590 C2586 1.531 . S
C2590 H2602 0.960 . S
C2590 H2603 0.962 . S
C2590 H2604 0.960 . S
C2591 C2588 1.511 . S
C2591 H2605 0.961 . S
C2591 H2606 0.961 . S
C2591 H2607 0.961 . S
C2592 C2593 1.370 . S
C2592 C2594 1.363 . S
C2592 H2608 0.931 . S
C2593 C2592 1.370 . S
C2593 C2597 1.408 . S
C2594 C2592 1.363 . S
C2594 C2595 1.370 . S
C2594 C2598 1.524 . S
C2595 C2587 1.503 . S
C2595 C2594 1.370 . S
C2595 C2596 1.403 . S
C2596 C2595 1.403 . S
C2596 C2597 1.404 . S
C2596 C2599 1.539 . S
C2597 C2593 1.408 . S
C2597 C2596 1.404 . S
C2597 H2609 0.930 . S
C2598 C2594 1.524 . S
C2598 H2610 0.956 . S
C2598 H2611 0.961 . S
C2598 H2612 0.961 . S
C2599 C2596 1.539 . S
C2599 H2613 0.958 . S
C2599 H2614 0.961 . S
C2599 H2615 0.960 . S
H2600 C2584 0.931 . S
H2601 C2589 0.929 . S
H2602 C2590 0.960 . S
H2603 C2590 0.962 . S
H2604 C2590 0.960 . S
H2605 C2591 0.961 . S
H2606 C2591 0.961 . S
H2607 C2591 0.961 . S
H2608 C2592 0.931 . S
H2609 C2597 0.930 . S
H2610 C2598 0.956 . S
H2611 C2598 0.961 . S
H2612 C2598 0.961 . S
H2613 C2599 0.958 . S
H2614 C2599 0.961 . S
H2615 C2599 0.960 . S
C2616 C2617 1.391 . S
C2616 C2618 1.394 . S
C2616 H2632 0.931 . S
C2617 C2616 1.391 . S
C2617 C2621 1.376 . S
C2618 C2616 1.394 . S
C2618 C2619 1.369 . S
C2618 C2622 1.531 . S
C2619 C2618 1.369 . S
C2619 C2620 1.410 . S
C2619 C2627 1.503 . S
C2620 C2619 1.410 . S
C2620 C2621 1.392 . S
C2620 C2623 1.511 . S
C2621 C2617 1.376 . S
C2621 C2620 1.392 . S
C2621 H2633 0.929 . S
C2622 C2618 1.531 . S
C2622 H2634 0.960 . S
C2622 H2635 0.962 . S
C2622 H2636 0.960 . S
C2623 C2620 1.511 . S
C2623 H2637 0.961 . S
C2623 H2638 0.961 . S
C2623 H2639 0.961 . S
C2624 C2625 1.370 . S
C2624 C2626 1.363 . S
C2624 H2640 0.931 . S
C2625 C2624 1.370 . S
C2625 C2629 1.408 . S
C2626 C2624 1.363 . S
C2626 C2627 1.370 . S
C2626 C2630 1.524 . S
C2627 C2619 1.503 . S
C2627 C2626 1.370 . S
C2627 C2628 1.403 . S
C2628 C2627 1.403 . S
C2628 C2629 1.404 . S
C2628 C2631 1.539 . S
C2629 C2625 1.408 . S
C2629 C2628 1.404 . S
C2629 H2641 0.930 . S
C2630 C2626 1.524 . S
C2630 H2642 0.956 . S
C2630 H2643 0.961 . S
C2630 H2644 0.961 . S
C2631 C2628 1.539 . S
C2631 H2645 0.958 . S
C2631 H2646 0.961 . S
C2631 H2647 0.960 . S
H2632 C2616 0.931 . S
H2633 C2621 0.929 . S
H2634 C2622 0.960 . S
H2635 C2622 0.962 . S
H2636 C2622 0.960 . S
H2637 C2623 0.961 . S
H2638 C2623 0.961 . S
H2639 C2623 0.961 . S
H2640 C2624 0.931 . S
H2641 C2629 0.930 . S
H2642 C2630 0.956 . S
H2643 C2630 0.961 . S
H2644 C2630 0.961 . S
H2645 C2631 0.958 . S
H2646 C2631 0.961 . S
H2647 C2631 0.960 . S
C2648 C2649 1.391 . S
C2648 C2650 1.394 . S
C2648 H2664 0.931 . S
C2649 C2648 1.391 . S
C2649 C2653 1.376 . S
C2650 C2648 1.394 . S
C2650 C2651 1.369 . S
C2650 C2654 1.531 . S
C2651 C2650 1.369 . S
C2651 C2652 1.410 . S
C2651 C2659 1.503 1_545 S
C2652 C2651 1.410 . S
C2652 C2653 1.392 . S
C2652 C2655 1.511 1_545 S
C2653 C2649 1.376 . S
C2653 C2652 1.392 . S
C2653 H2665 0.929 . S
C2654 C2650 1.531 . S
C2654 H2666 0.960 . S
C2654 H2667 0.962 . S
C2654 H2668 0.960 . S
C2655 C2652 1.511 1_565 S
C2655 H2669 0.961 . S
C2655 H2670 0.961 . S
C2655 H2671 0.961 . S
C2656 C2657 1.370 . S
C2656 C2658 1.363 . S
C2656 H2672 0.931 . S
C2657 C2656 1.370 . S
C2657 C2661 1.408 . S
C2658 C2656 1.363 . S
C2658 C2659 1.370 . S
C2658 C2662 1.524 . S
C2659 C2651 1.503 1_565 S
C2659 C2658 1.370 . S
C2659 C2660 1.403 . S
C2660 C2659 1.403 . S
C2660 C2661 1.404 . S
C2660 C2663 1.539 1_565 S
C2661 C2657 1.408 . S
C2661 C2660 1.404 . S
C2661 H2673 0.930 . S
C2662 C2658 1.524 . S
C2662 H2674 0.956 . S
C2662 H2675 0.961 . S
C2662 H2676 0.961 . S
C2663 C2660 1.539 1_545 S
C2663 H2677 0.958 . S
C2663 H2678 0.961 1_545 S
C2663 H2679 0.960 . S
H2664 C2648 0.931 . S
H2665 C2653 0.929 . S
H2666 C2654 0.960 . S
H2667 C2654 0.962 . S
H2668 C2654 0.960 . S
H2669 C2655 0.961 . S
H2670 C2655 0.961 . S
H2671 C2655 0.961 . S
H2672 C2656 0.931 . S
H2673 C2661 0.930 . S
H2674 C2662 0.956 . S
H2675 C2662 0.961 . S
H2676 C2662 0.961 . S
H2677 C2663 0.958 . S
H2678 C2663 0.961 1_565 S
H2679 C2663 0.960 . S
C2680 C2681 1.391 . S
C2680 C2682 1.394 . S
C2680 H2696 0.931 . S
C2681 C2680 1.391 . S
C2681 C2685 1.376 . S
C2682 C2680 1.394 . S
C2682 C2683 1.369 . S
C2682 C2686 1.531 . S
C2683 C2682 1.369 . S
C2683 C2684 1.415 . S
C2683 C2691 1.503 1_655 S
C2684 C2683 1.415 . S
C2684 C2685 1.440 . S
C2684 C2687 1.465 1_655 S
C2685 C2681 1.376 . S
C2685 C2684 1.440 . S
C2685 H2697 0.929 . S
C2686 C2682 1.531 . S
C2686 H2698 0.960 . S
C2686 H2699 0.962 . S
C2686 H2700 0.960 . S
C2687 C2684 1.465 1_455 S
C2687 H2701 0.961 . S
C2687 H2702 0.961 . S
C2687 H2703 0.961 . S
C2688 C2689 1.370 . S
C2688 C2690 1.363 . S
C2688 H2704 0.931 . S
C2689 C2688 1.370 . S
C2689 C2693 1.408 . S
C2690 C2688 1.363 . S
C2690 C2691 1.370 . S
C2690 C2694 1.524 1_455 S
C2691 C2683 1.503 1_455 S
C2691 C2690 1.370 . S
C2691 C2692 1.403 . S
C2692 C2691 1.403 . S
C2692 C2693 1.404 . S
C2692 C2695 1.539 . S
C2693 C2689 1.408 . S
C2693 C2692 1.404 . S
C2693 H2705 0.930 . S
C2694 C2690 1.524 1_655 S
C2694 H2706 0.956 . S
C2694 H2707 0.961 . S
C2694 H2708 0.957 . S
C2695 C2692 1.539 . S
C2695 H2709 0.958 . S
C2695 H2710 0.961 . S
C2695 H2711 0.960 . S
H2696 C2680 0.931 . S
H2697 C2685 0.929 . S
H2698 C2686 0.960 . S
H2699 C2686 0.962 . S
H2700 C2686 0.960 . S
H2701 C2687 0.961 . S
H2702 C2687 0.961 . S
H2703 C2687 0.961 . S
H2704 C2688 0.931 . S
H2705 C2693 0.930 . S
H2706 C2694 0.956 . S
H2707 C2694 0.961 . S
H2708 C2694 0.957 . S
H2709 C2695 0.958 . S
H2710 C2695 0.961 . S
H2711 C2695 0.960 . S
C2712 C2713 1.391 . S
C2712 C2714 1.394 . S
C2712 H2728 0.931 . S
C2713 C2712 1.391 . S
C2713 C2717 1.376 . S
C2714 C2712 1.394 . S
C2714 C2715 1.369 . S
C2714 C2718 1.531 . S
C2715 C2714 1.369 . S
C2715 C2716 1.410 . S
C2715 C2723 1.503 . S
C2716 C2715 1.410 . S
C2716 C2717 1.392 . S
C2716 C2719 1.511 . S
C2717 C2713 1.376 . S
C2717 C2716 1.392 . S
C2717 H2729 0.929 . S
C2718 C2714 1.531 . S
C2718 H2730 0.960 . S
C2718 H2731 0.962 . S
C2718 H2732 0.960 . S
C2719 C2716 1.511 . S
C2719 H2733 0.961 . S
C2719 H2734 0.961 . S
C2719 H2735 0.961 . S
C2720 C2721 1.370 . S
C2720 C2722 1.363 . S
C2720 H2736 0.931 . S
C2721 C2720 1.370 . S
C2721 C2725 1.408 . S
C2722 C2720 1.363 . S
C2722 C2723 1.370 . S
C2722 C2726 1.524 . S
C2723 C2715 1.503 . S
C2723 C2722 1.370 . S
C2723 C2724 1.403 . S
C2724 C2723 1.403 . S
C2724 C2725 1.404 . S
C2724 C2727 1.539 . S
C2725 C2721 1.408 . S
C2725 C2724 1.404 . S
C2725 H2737 0.930 . S
C2726 C2722 1.524 . S
C2726 H2738 0.956 . S
C2726 H2739 0.961 . S
C2726 H2740 0.961 . S
C2727 C2724 1.539 . S
C2727 H2741 0.958 . S
C2727 H2742 0.961 . S
C2727 H2743 0.960 . S
H2728 C2712 0.931 . S
H2729 C2717 0.929 . S
H2730 C2718 0.960 . S
H2731 C2718 0.962 . S
H2732 C2718 0.960 . S
H2733 C2719 0.961 . S
H2734 C2719 0.961 . S
H2735 C2719 0.961 . S
H2736 C2720 0.931 . S
H2737 C2725 0.930 . S
H2738 C2726 0.956 . S
H2739 C2726 0.961 . S
H2740 C2726 0.961 . S
H2741 C2727 0.958 . S
H2742 C2727 0.961 . S
H2743 C2727 0.960 . S
C2744 C2745 1.391 . S
C2744 C2746 1.394 . S
C2744 H2760 0.931 . S
C2745 C2744 1.391 . S
C2745 C2749 1.376 . S
C2746 C2744 1.394 . S
C2746 C2747 1.369 . S
C2746 C2750 1.531 . S
C2747 C2746 1.369 . S
C2747 C2748 1.410 . S
C2747 C2755 1.503 1_545 S
C2748 C2747 1.410 . S
C2748 C2749 1.392 . S
C2748 C2751 1.511 1_545 S
C2749 C2745 1.376 . S
C2749 C2748 1.392 . S
C2749 H2761 0.929 . S
C2750 C2746 1.531 . S
C2750 H2762 0.960 . S
C2750 H2763 0.962 . S
C2750 H2764 0.960 . S
C2751 C2748 1.511 1_565 S
C2751 H2765 0.961 . S
C2751 H2766 0.961 . S
C2751 H2767 0.961 . S
C2752 C2753 1.370 . S
C2752 C2754 1.363 . S
C2752 H2768 0.931 . S
C2753 C2752 1.370 . S
C2753 C2757 1.408 . S
C2754 C2752 1.363 . S
C2754 C2755 1.370 . S
C2754 C2758 1.524 . S
C2755 C2747 1.503 1_565 S
C2755 C2754 1.370 . S
C2755 C2756 1.403 . S
C2756 C2755 1.403 . S
C2756 C2757 1.404 . S
C2756 C2759 1.539 1_565 S
C2757 C2753 1.408 . S
C2757 C2756 1.404 . S
C2757 H2769 0.930 . S
C2758 C2754 1.524 . S
C2758 H2770 0.956 . S
C2758 H2771 0.961 . S
C2758 H2772 0.961 . S
C2759 C2756 1.539 1_545 S
C2759 H2773 0.958 . S
C2759 H2774 0.961 . S
C2759 H2775 0.960 . S
H2760 C2744 0.931 . S
H2761 C2749 0.929 . S
H2762 C2750 0.960 . S
H2763 C2750 0.962 . S
H2764 C2750 0.960 . S
H2765 C2751 0.961 . S
H2766 C2751 0.961 . S
H2767 C2751 0.961 . S
H2768 C2752 0.931 . S
H2769 C2757 0.930 . S
H2770 C2758 0.956 . S
H2771 C2758 0.961 . S
H2772 C2758 0.961 . S
H2773 C2759 0.958 . S
H2774 C2759 0.961 . S
H2775 C2759 0.960 . S
C2776 C2777 1.391 . S
C2776 C2778 1.394 . S
C2776 H2792 0.931 . S
C2777 C2776 1.391 . S
C2777 C2781 1.376 . S
C2778 C2776 1.394 . S
C2778 C2779 1.369 . S
C2778 C2782 1.531 . S
C2779 C2778 1.369 . S
C2779 C2780 1.410 . S
C2779 C2787 1.503 1_455 S
C2780 C2779 1.410 . S
C2780 C2781 1.392 . S
C2780 C2783 1.511 1_455 S
C2781 C2777 1.376 . S
C2781 C2780 1.392 . S
C2781 H2793 0.929 . S
C2782 C2778 1.531 . S
C2782 H2794 0.960 1_455 S
C2782 H2795 0.962 . S
C2782 H2796 0.960 . S
C2783 C2780 1.511 1_655 S
C2783 H2797 0.961 1_655 S
C2783 H2798 0.961 . S
C2783 H2799 0.961 . S
C2784 C2785 1.370 . S
C2784 C2786 1.363 . S
C2784 H2800 0.931 . S
C2785 C2784 1.370 . S
C2785 C2789 1.408 . S
C2786 C2784 1.363 . S
C2786 C2787 1.370 . S
C2786 C2790 1.524 1_655 S
C2787 C2779 1.503 1_655 S
C2787 C2786 1.370 . S
C2787 C2788 1.403 . S
C2788 C2787 1.403 . S
C2788 C2789 1.404 . S
C2788 C2791 1.539 . S
C2789 C2785 1.408 . S
C2789 C2788 1.404 . S
C2789 H2801 0.930 . S
C2790 C2786 1.524 1_455 S
C2790 H2802 0.956 . S
C2790 H2803 0.961 . S
C2790 H2804 0.961 . S
C2791 C2788 1.539 . S
C2791 H2805 0.958 . S
C2791 H2806 0.961 . S
C2791 H2807 0.960 . S
H2792 C2776 0.931 . S
H2793 C2781 0.929 . S
H2794 C2782 0.960 1_655 S
H2795 C2782 0.962 . S
H2796 C2782 0.960 . S
H2797 C2783 0.961 1_455 S
H2798 C2783 0.961 . S
H2799 C2783 0.961 . S
H2800 C2784 0.931 . S
H2801 C2789 0.930 . S
H2802 C2790 0.956 . S
H2803 C2790 0.961 . S
H2804 C2790 0.961 . S
H2805 C2791 0.958 . S
H2806 C2791 0.961 . S
H2807 C2791 0.960 . S
C505 C79 1.217 . S
C513 C9 1.200 . S
C537 C51 1.158 . S
C545 C23 1.176 . S
C569 C37 1.199 . S
C577 C65 1.191 . S
C601 C93 1.172 . S
C609 C163 1.178 . S
C633 C107 1.154 . S
C641 C135 1.176 . S
C665 C149 1.182 . S
C673 C121 1.196 . S
C697 C177 1.189 1_655 S
C705 C247 1.194 . S
C729 C191 1.208 . S
C737 C219 1.196 . S
C761 C233 1.169 . S
C769 C205 1.185 1_545 S
C793 C331 1.206 . S
C801 C261 1.203 . S
C825 C303 1.203 1_545 S
C833 C275 1.188 . S
C857 C289 1.207 . S
C865 C317 1.191 1_655 S
C889 C415 1.219 . S
C897 C345 1.202 . S
C921 C387 1.171 1_565 S
C929 C359 1.186 . S
C953 C373 1.192 . S
C961 C401 1.195 1_455 S
C985 C499 1.167 . S
C993 C429 1.176 1_455 S
C1017 C471 1.214 . S
C1025 C443 1.195 . S
C1049 C485 1.196 . S
C1057 C457 1.200 1_565 S
C1081 C232 1.645 . S
C1089 C8 1.608 . S
C1113 C246 1.617 . S
C1121 C22 1.617 . S
C1145 C218 1.583 . S
C1153 C36 1.633 . S
C1177 C50 1.586 . S
C1185 C372 1.631 1_554 S
C1209 C64 1.647 . S
C1217 C344 1.629 . S
C1241 C78 1.630 . S
C1249 C358 1.630 . S
C1273 C92 1.639 . S
C1281 C484 1.607 . S
C1305 C498 1.590 . S
C1313 C106 1.633 . S
C1337 C470 1.590 . S
C1345 C120 1.625 . S
C1369 C288 1.585 . S
C1377 C134 1.628 . S
C1401 C260 1.586 . S
C1409 C148 1.633 . S
C1433 C162 1.594 . S
C1441 C274 1.633 1_556 S
C1465 C176 1.632 . S
C1473 C400 1.612 . S
C1497 C414 1.618 . S
C1505 C190 1.620 . S
C1529 C386 1.589 . S
C1537 C204 1.632 . S
C1561 C302 1.648 . S
C1569 C456 1.608 . S
C1593 C428 1.611 . S
C1601 C316 1.628 . S
C1625 C330 1.644 . S
C1633 C442 1.612 . S
C1657 C258 1.478 . S
C1665 C6 1.504 . S
C1689 C272 1.505 . S
C1697 C20 1.492 . S
C1721 C34 1.485 . S
C1729 C286 1.501 . S
C1753 C48 1.498 . S
C1761 C468 1.495 . S
C1785 C482 1.517 . S
C1793 C62 1.489 . S
C1817 C496 1.484 . S
C1825 C76 1.501 . S
C1849 C90 1.505 . S
C1857 C342 1.493 . S
C1881 C104 1.472 . S
C1889 C356 1.507 . S
C1913 C370 1.487 . S
C1921 C118 1.503 . S
C1945 C132 1.517 . S
C1953 C216 1.489 . S
C1977 C146 1.498 . S
C1985 C230 1.496 . S
C2009 C244 1.519 . S
C2017 C160 1.489 . S
C2041 C174 1.519 . S
C2049 C426 1.488 . S
C2073 C188 1.496 . S
C2081 C440 1.499 . S
C2105 C454 1.470 . S
C2113 C202 1.508 . S
C2137 C384 1.501 . S
C2145 C300 1.498 . S
C2169 C314 1.482 . S
C2177 C398 1.505 . S
C2201 C328 1.518 . S
C2209 C412 1.488 . S
C2233 C385 1.254 1_554 S
C2241 C7 1.223 . S
C2265 C21 1.213 . S
C2273 C399 1.222 1_554 S
C2297 C413 1.220 1_554 S
C2305 C35 1.220 . S
C2329 C49 1.204 . S
C2337 C175 1.227 . S
C2361 C189 1.256 . S
C2369 C63 1.226 . S
C2393 C203 1.250 . S
C2401 C77 1.236 . S
C2425 C91 1.249 . S
C2433 C301 1.233 1_556 S
C2457 C315 1.216 1_556 S
C2465 C105 1.243 . S
C2489 C119 1.238 . S
C2497 C329 1.238 1_556 S
C2521 C133 1.214 . S
C2529 C427 1.243 . S
C2553 C147 1.221 . S
C2561 C441 1.242 . S
C2585 C455 1.240 . S
C2593 C161 1.237 . S
C2617 C217 1.247 . S
C2625 C343 1.220 . S
C2649 C231 1.253 . S
C2657 C357 1.233 . S
C2681 C245 1.233 . S
C2689 C371 1.242 . S
C2713 C259 1.215 . S
C2721 C469 1.243 . S
C2745 C273 1.232 . S
C2753 C483 1.220 . S
C2777 C497 1.200 . S
C2785 C287 1.240 . S
