# Generated by pormake.
# Topology ums, (4)-cn, num edge types: 1
# Building blocks:
#     Node 0, Type 0, BuildingBlock: QUQFOY_clean_sbu_1, # of connection points: 4
#     Node 1, Type 0, BuildingBlock: QUQFOY_clean_sbu_1, # of connection points: 4
#     Node 2, Type 0, BuildingBlock: QUQFOY_clean_sbu_1, # of connection points: 4
#     Node 3, Type 0, BuildingBlock: QUQFOY_clean_sbu_1, # of connection points: 4
#     Node 4, Type 0, BuildingBlock: QUQFOY_clean_sbu_1, # of connection points: 4
#     Node 5, Type 0, BuildingBlock: QUQFOY_clean_sbu_1, # of connection points: 4
#     Node 6, Type 0, BuildingBlock: QUQFOY_clean_sbu_1, # of connection points: 4
#     Node 7, Type 0, BuildingBlock: QUQFOY_clean_sbu_1, # of connection points: 4
#     Node 8, Type 0, BuildingBlock: QUQFOY_clean_sbu_1, # of connection points: 4
#     Node 9, Type 0, BuildingBlock: QUQFOY_clean_sbu_1, # of connection points: 4
#     Node 10, Type 0, BuildingBlock: QUQFOY_clean_sbu_1, # of connection points: 4
#     Node 11, Type 0, BuildingBlock: QUQFOY_clean_sbu_1, # of connection points: 4
#     Node 12, Type 0, BuildingBlock: QUQFOY_clean_sbu_1, # of connection points: 4
#     Node 13, Type 0, BuildingBlock: QUQFOY_clean_sbu_1, # of connection points: 4
#     Node 14, Type 0, BuildingBlock: QUQFOY_clean_sbu_1, # of connection points: 4
#     Node 15, Type 0, BuildingBlock: QUQFOY_clean_sbu_1, # of connection points: 4
#     Node 16, Type 0, BuildingBlock: QUQFOY_clean_sbu_1, # of connection points: 4
#     Node 17, Type 0, BuildingBlock: QUQFOY_clean_sbu_1, # of connection points: 4
#     Node 18, Type 0, BuildingBlock: QUQFOY_clean_sbu_1, # of connection points: 4
#     Node 19, Type 0, BuildingBlock: QUQFOY_clean_sbu_1, # of connection points: 4
#     Node 20, Type 0, BuildingBlock: QUQFOY_clean_sbu_1, # of connection points: 4
#     Node 21, Type 0, BuildingBlock: QUQFOY_clean_sbu_1, # of connection points: 4
#     Node 22, Type 0, BuildingBlock: QUQFOY_clean_sbu_1, # of connection points: 4
#     Node 23, Type 0, BuildingBlock: QUQFOY_clean_sbu_1, # of connection points: 4
#     Node 24, Type 0, BuildingBlock: QUQFOY_clean_sbu_1, # of connection points: 4
#     Node 25, Type 0, BuildingBlock: QUQFOY_clean_sbu_1, # of connection points: 4
#     Node 26, Type 0, BuildingBlock: QUQFOY_clean_sbu_1, # of connection points: 4
#     Node 27, Type 0, BuildingBlock: QUQFOY_clean_sbu_1, # of connection points: 4
#     Node 28, Type 0, BuildingBlock: QUQFOY_clean_sbu_1, # of connection points: 4
#     Node 29, Type 0, BuildingBlock: QUQFOY_clean_sbu_1, # of connection points: 4
#     Node 30, Type 0, BuildingBlock: QUQFOY_clean_sbu_1, # of connection points: 4
#     Node 31, Type 0, BuildingBlock: QUQFOY_clean_sbu_1, # of connection points: 4
#     Node 32, Type 0, BuildingBlock: QUQFOY_clean_sbu_1, # of connection points: 4
#     Node 33, Type 0, BuildingBlock: QUQFOY_clean_sbu_1, # of connection points: 4
#     Node 34, Type 0, BuildingBlock: QUQFOY_clean_sbu_1, # of connection points: 4
#     Node 35, Type 0, BuildingBlock: QUQFOY_clean_sbu_1, # of connection points: 4
#     Edge 36, Type (0, 0), BuildingBlock: ZUJKAS_clean_linker_0, # of connection points: 2
#     Edge 37, Type (0, 0), BuildingBlock: ZUJKAS_clean_linker_0, # of connection points: 2
#     Edge 38, Type (0, 0), BuildingBlock: ZUJKAS_clean_linker_0, # of connection points: 2
#     Edge 39, Type (0, 0), BuildingBlock: ZUJKAS_clean_linker_0, # of connection points: 2
#     Edge 40, Type (0, 0), BuildingBlock: ZUJKAS_clean_linker_0, # of connection points: 2
#     Edge 41, Type (0, 0), BuildingBlock: ZUJKAS_clean_linker_0, # of connection points: 2
#     Edge 42, Type (0, 0), BuildingBlock: ZUJKAS_clean_linker_0, # of connection points: 2
#     Edge 43, Type (0, 0), BuildingBlock: ZUJKAS_clean_linker_0, # of connection points: 2
#     Edge 44, Type (0, 0), BuildingBlock: ZUJKAS_clean_linker_0, # of connection points: 2
#     Edge 45, Type (0, 0), BuildingBlock: ZUJKAS_clean_linker_0, # of connection points: 2
#     Edge 46, Type (0, 0), BuildingBlock: ZUJKAS_clean_linker_0, # of connection points: 2
#     Edge 47, Type (0, 0), BuildingBlock: ZUJKAS_clean_linker_0, # of connection points: 2
#     Edge 48, Type (0, 0), BuildingBlock: ZUJKAS_clean_linker_0, # of connection points: 2
#     Edge 49, Type (0, 0), BuildingBlock: ZUJKAS_clean_linker_0, # of connection points: 2
#     Edge 50, Type (0, 0), BuildingBlock: ZUJKAS_clean_linker_0, # of connection points: 2
#     Edge 51, Type (0, 0), BuildingBlock: ZUJKAS_clean_linker_0, # of connection points: 2
#     Edge 52, Type (0, 0), BuildingBlock: ZUJKAS_clean_linker_0, # of connection points: 2
#     Edge 53, Type (0, 0), BuildingBlock: ZUJKAS_clean_linker_0, # of connection points: 2
#     Edge 54, Type (0, 0), BuildingBlock: ZUJKAS_clean_linker_0, # of connection points: 2
#     Edge 55, Type (0, 0), BuildingBlock: ZUJKAS_clean_linker_0, # of connection points: 2
#     Edge 56, Type (0, 0), BuildingBlock: ZUJKAS_clean_linker_0, # of connection points: 2
#     Edge 57, Type (0, 0), BuildingBlock: ZUJKAS_clean_linker_0, # of connection points: 2
#     Edge 58, Type (0, 0), BuildingBlock: ZUJKAS_clean_linker_0, # of connection points: 2
#     Edge 59, Type (0, 0), BuildingBlock: ZUJKAS_clean_linker_0, # of connection points: 2
#     Edge 60, Type (0, 0), BuildingBlock: ZUJKAS_clean_linker_0, # of connection points: 2
#     Edge 61, Type (0, 0), BuildingBlock: ZUJKAS_clean_linker_0, # of connection points: 2
#     Edge 62, Type (0, 0), BuildingBlock: ZUJKAS_clean_linker_0, # of connection points: 2
#     Edge 63, Type (0, 0), BuildingBlock: ZUJKAS_clean_linker_0, # of connection points: 2
#     Edge 64, Type (0, 0), BuildingBlock: ZUJKAS_clean_linker_0, # of connection points: 2
#     Edge 65, Type (0, 0), BuildingBlock: ZUJKAS_clean_linker_0, # of connection points: 2
#     Edge 66, Type (0, 0), BuildingBlock: ZUJKAS_clean_linker_0, # of connection points: 2
#     Edge 67, Type (0, 0), BuildingBlock: ZUJKAS_clean_linker_0, # of connection points: 2
#     Edge 68, Type (0, 0), BuildingBlock: ZUJKAS_clean_linker_0, # of connection points: 2
#     Edge 69, Type (0, 0), BuildingBlock: ZUJKAS_clean_linker_0, # of connection points: 2
#     Edge 70, Type (0, 0), BuildingBlock: ZUJKAS_clean_linker_0, # of connection points: 2
#     Edge 71, Type (0, 0), BuildingBlock: ZUJKAS_clean_linker_0, # of connection points: 2
#     Edge 72, Type (0, 0), BuildingBlock: ZUJKAS_clean_linker_0, # of connection points: 2
#     Edge 73, Type (0, 0), BuildingBlock: ZUJKAS_clean_linker_0, # of connection points: 2
#     Edge 74, Type (0, 0), BuildingBlock: ZUJKAS_clean_linker_0, # of connection points: 2
#     Edge 75, Type (0, 0), BuildingBlock: ZUJKAS_clean_linker_0, # of connection points: 2
#     Edge 76, Type (0, 0), BuildingBlock: ZUJKAS_clean_linker_0, # of connection points: 2
#     Edge 77, Type (0, 0), BuildingBlock: ZUJKAS_clean_linker_0, # of connection points: 2
#     Edge 78, Type (0, 0), BuildingBlock: ZUJKAS_clean_linker_0, # of connection points: 2
#     Edge 79, Type (0, 0), BuildingBlock: ZUJKAS_clean_linker_0, # of connection points: 2
#     Edge 80, Type (0, 0), BuildingBlock: ZUJKAS_clean_linker_0, # of connection points: 2
#     Edge 81, Type (0, 0), BuildingBlock: ZUJKAS_clean_linker_0, # of connection points: 2
#     Edge 82, Type (0, 0), BuildingBlock: ZUJKAS_clean_linker_0, # of connection points: 2
#     Edge 83, Type (0, 0), BuildingBlock: ZUJKAS_clean_linker_0, # of connection points: 2
#     Edge 84, Type (0, 0), BuildingBlock: ZUJKAS_clean_linker_0, # of connection points: 2
#     Edge 85, Type (0, 0), BuildingBlock: ZUJKAS_clean_linker_0, # of connection points: 2
#     Edge 86, Type (0, 0), BuildingBlock: ZUJKAS_clean_linker_0, # of connection points: 2
#     Edge 87, Type (0, 0), BuildingBlock: ZUJKAS_clean_linker_0, # of connection points: 2
#     Edge 88, Type (0, 0), BuildingBlock: ZUJKAS_clean_linker_0, # of connection points: 2
#     Edge 89, Type (0, 0), BuildingBlock: ZUJKAS_clean_linker_0, # of connection points: 2
#     Edge 90, Type (0, 0), BuildingBlock: ZUJKAS_clean_linker_0, # of connection points: 2
#     Edge 91, Type (0, 0), BuildingBlock: ZUJKAS_clean_linker_0, # of connection points: 2
#     Edge 92, Type (0, 0), BuildingBlock: ZUJKAS_clean_linker_0, # of connection points: 2
#     Edge 93, Type (0, 0), BuildingBlock: ZUJKAS_clean_linker_0, # of connection points: 2
#     Edge 94, Type (0, 0), BuildingBlock: ZUJKAS_clean_linker_0, # of connection points: 2
#     Edge 95, Type (0, 0), BuildingBlock: ZUJKAS_clean_linker_0, # of connection points: 2
#     Edge 96, Type (0, 0), BuildingBlock: ZUJKAS_clean_linker_0, # of connection points: 2
#     Edge 97, Type (0, 0), BuildingBlock: ZUJKAS_clean_linker_0, # of connection points: 2
#     Edge 98, Type (0, 0), BuildingBlock: ZUJKAS_clean_linker_0, # of connection points: 2
#     Edge 99, Type (0, 0), BuildingBlock: ZUJKAS_clean_linker_0, # of connection points: 2
#     Edge 100, Type (0, 0), BuildingBlock: ZUJKAS_clean_linker_0, # of connection points: 2
#     Edge 101, Type (0, 0), BuildingBlock: ZUJKAS_clean_linker_0, # of connection points: 2
#     Edge 102, Type (0, 0), BuildingBlock: ZUJKAS_clean_linker_0, # of connection points: 2
#     Edge 103, Type (0, 0), BuildingBlock: ZUJKAS_clean_linker_0, # of connection points: 2
#     Edge 104, Type (0, 0), BuildingBlock: ZUJKAS_clean_linker_0, # of connection points: 2
#     Edge 105, Type (0, 0), BuildingBlock: ZUJKAS_clean_linker_0, # of connection points: 2
#     Edge 106, Type (0, 0), BuildingBlock: ZUJKAS_clean_linker_0, # of connection points: 2
#     Edge 107, Type (0, 0), BuildingBlock: ZUJKAS_clean_linker_0, # of connection points: 2
# Relax obj value: 0.181
# Max RMSD: 0.144
# Mean RMSD: 0.144
data_MOF--net-ums--node1-QUQFOY_clean_sbu_1--edge1-ZUJKAS_clean_linker_0
_symmetry_space_group_name_H-M    P1
_symmetry_Int_Tables_number       1
_symmetry_cell_setting            triclinic
loop_
_symmetry_equiv_pos_as_xyz
'x, y, z'
_cell_length_a     138.24512
_cell_length_b     138.24336
_cell_length_c     30.406586
_cell_angle_alpha  89.994654
_cell_angle_beta   89.995591
_cell_angle_gamma 120.00068
loop_
_atom_site_label
_atom_site_type_symbol
_atom_site_fract_x
_atom_site_fract_y
_atom_site_fract_z
_atom_type_partial_charge
O0 O 0.19372 0.26996 0.13571 0.0
Cd1 Cd 0.18063 0.25392 0.14616 0.0
Cd2 Cd 0.17311 0.26392 0.20047 0.0
O3 O 0.1884 0.27767 0.18659 0.0
O4 O 0.18605 0.24334 0.13312 0.0
O5 O 0.18106 0.24572 0.19974 0.0
C6 C 0.18491 0.2409 0.17448 0.0
C7 C 0.16618 0.26145 0.27212 0.0
C8 C 0.19535 0.27851 0.15738 0.0
C9 C 0.15924 0.25256 0.12025 0.0
O10 O 0.16095 0.25895 0.1529 0.0
O11 O 0.16591 0.24895 0.11225 0.0
O12 O 0.1673 0.26955 0.24773 0.0
O13 O 0.16935 0.25481 0.25636 0.0
O14 O 0.73128 0.9229 0.13665 0.0
Cd15 Cd 0.74738 0.9262 0.14823 0.0
Cd16 Cd 0.7376 0.90937 0.20539 0.0
O17 O 0.72391 0.91107 0.19172 0.0
O18 O 0.7578 0.94213 0.13365 0.0
O19 O 0.75549 0.93522 0.20113 0.0
C20 C 0.76024 0.94373 0.17499 0.0
C21 C 0.74011 0.90522 0.27755 0.0
C22 C 0.72288 0.91655 0.16027 0.0
C23 C 0.74861 0.90603 0.12554 0.0
O24 O 0.7422 0.90166 0.15843 0.0
O25 O 0.7524 0.91627 0.11643 0.0
O26 O 0.73191 0.8982 0.25367 0.0
O27 O 0.74685 0.9149 0.26094 0.0
O28 O 0.07801 0.80753 0.13718 0.0
Cd29 Cd 0.07471 0.82043 0.1465 0.0
Cd30 Cd 0.0924 0.82842 0.20059 0.0
O31 O 0.09156 0.81346 0.18616 0.0
O32 O 0.05877 0.81463 0.13087 0.0
O33 O 0.06542 0.81974 0.19839 0.0
C34 C 0.057 0.81572 0.17177 0.0
C35 C 0.09615 0.83506 0.27277 0.0
C36 C 0.08529 0.80627 0.15793 0.0
C37 C 0.09444 0.84215 0.12052 0.0
O38 O 0.09922 0.84073 0.15353 0.0
O39 O 0.08427 0.83515 0.1122 0.0
O40 O 0.10361 0.83471 0.24859 0.0
O41 O 0.08628 0.83127 0.25638 0.0
O42 O 0.27135 0.19362 0.36127 0.0
Cd43 Cd 0.25502 0.18086 0.35595 0.0
Cd44 Cd 0.26322 0.17224 0.297 0.0
O45 O 0.27778 0.18702 0.31005 0.0
O46 O 0.24513 0.18681 0.37326 0.0
O47 O 0.24581 0.18115 0.30568 0.0
C48 C 0.24178 0.18541 0.33293 0.0
C49 C 0.25994 0.16529 0.22522 0.0
C50 C 0.27942 0.19445 0.33838 0.0
C51 C 0.25278 0.15892 0.37957 0.0
O52 O 0.25787 0.15984 0.34368 0.0
O53 O 0.25052 0.16641 0.39107 0.0
O54 O 0.26801 0.16596 0.24855 0.0
O55 O 0.25382 0.16898 0.24203 0.0
O56 O 0.80742 0.07746 0.3571 0.0
Cd57 Cd 0.82058 0.07452 0.3489 0.0
Cd58 Cd 0.82827 0.09198 0.29367 0.0
O59 O 0.81299 0.09058 0.30642 0.0
O60 O 0.81508 0.05876 0.36626 0.0
O61 O 0.82015 0.06503 0.29825 0.0
C62 C 0.81625 0.05678 0.32572 0.0
C63 C 0.83536 0.09599 0.22214 0.0
C64 C 0.80589 0.08441 0.33512 0.0
C65 C 0.84187 0.09472 0.37498 0.0
O66 O 0.84032 0.09929 0.34157 0.0
O67 O 0.83513 0.08449 0.38339 0.0
O68 O 0.83431 0.10317 0.24555 0.0
O69 O 0.832 0.08623 0.23882 0.0
O70 O 0.92271 0.73156 0.36525 0.0
Cd71 Cd 0.9268 0.74799 0.35754 0.0
Cd72 Cd 0.90972 0.73974 0.29965 0.0
O73 O 0.90916 0.72496 0.31613 0.0
O74 O 0.94291 0.75769 0.37156 0.0
O75 O 0.93581 0.75637 0.30496 0.0
C76 C 0.94444 0.76052 0.33057 0.0
C77 C 0.90599 0.74223 0.2268 0.0
C78 C 0.91503 0.72337 0.34427 0.0
C79 C 0.90792 0.75162 0.38011 0.0
O80 O 0.90356 0.74641 0.34463 0.0
O81 O 0.91747 0.75336 0.3921 0.0
O82 O 0.89839 0.73495 0.25216 0.0
O83 O 0.91599 0.74797 0.24233 0.0
O84 O 0.81011 0.73141 0.86326 0.0
Cd85 Cd 0.82263 0.74782 0.85654 0.0
Cd86 Cd 0.83142 0.73958 0.79855 0.0
O87 O 0.81706 0.72483 0.81407 0.0
O88 O 0.81635 0.75762 0.87082 0.0
O89 O 0.82226 0.75644 0.80431 0.0
C90 C 0.8178 0.76058 0.82998 0.0
C91 C 0.83777 0.74235 0.72587 0.0
C92 C 0.80955 0.72324 0.84194 0.0
C93 C 0.84497 0.75109 0.8797 0.0
O94 O 0.84414 0.74597 0.84402 0.0
O95 O 0.83721 0.75292 0.89159 0.0
O96 O 0.83798 0.73492 0.75068 0.0
O97 O 0.83357 0.7481 0.74187 0.0
O98 O 0.26934 0.07696 0.86422 0.0
Cd99 Cd 0.25306 0.0734 0.85494 0.0
Cd100 Cd 0.26236 0.09103 0.8001 0.0
O101 O 0.27663 0.09052 0.81518 0.0
O102 O 0.24292 0.05729 0.86765 0.0
O103 O 0.2448 0.06476 0.80145 0.0
C104 C 0.24028 0.05603 0.82647 0.0
C105 C 0.26028 0.09589 0.72846 0.0
C106 C 0.27778 0.0844 0.84348 0.0
C107 C 0.2506 0.09277 0.88104 0.0
O108 O 0.25652 0.09747 0.8473 0.0
O109 O 0.24776 0.08272 0.8901 0.0
O110 O 0.26775 0.10295 0.75483 0.0
O111 O 0.25409 0.08578 0.74223 0.0
O112 O 0.9235 0.19259 0.86367 0.0
Cd113 Cd 0.92694 0.17987 0.85248 0.0
Cd114 Cd 0.9102 0.17282 0.79479 0.0
O115 O 0.91216 0.18837 0.80704 0.0
O116 O 0.94272 0.1854 0.86964 0.0
O117 O 0.93658 0.18115 0.80107 0.0
C118 C 0.94479 0.18481 0.82863 0.0
C119 C 0.90603 0.16586 0.7231 0.0
C120 C 0.91743 0.19479 0.83897 0.0
C121 C 0.90668 0.15849 0.87473 0.0
O122 O 0.9023 0.16067 0.84223 0.0
O123 O 0.91696 0.16482 0.8835 0.0
O124 O 0.89908 0.16729 0.7464 0.0
O125 O 0.91567 0.16873 0.73999 0.0
O126 O 0.73152 0.80778 0.63799 0.0
Cd127 Cd 0.74758 0.82071 0.64909 0.0
Cd128 Cd 0.7377 0.82758 0.70634 0.0
O129 O 0.72409 0.81209 0.69328 0.0
O130 O 0.75809 0.81543 0.63271 0.0
O131 O 0.75605 0.8198 0.7009 0.0
C132 C 0.76075 0.81621 0.67378 0.0
C133 C 0.74047 0.83436 0.77834 0.0
C134 C 0.72312 0.80562 0.6618 0.0
C135 C 0.74837 0.84192 0.62627 0.0
O136 O 0.74197 0.8398 0.65922 0.0
O137 O 0.75233 0.83561 0.61726 0.0
O138 O 0.73211 0.83303 0.75509 0.0
O139 O 0.74721 0.83149 0.7612 0.0
O140 O 0.19126 0.92282 0.63135 0.0
Cd141 Cd 0.17843 0.92616 0.63983 0.0
Cd142 Cd 0.17068 0.90929 0.69859 0.0
O143 O 0.18558 0.90998 0.68324 0.0
O144 O 0.18409 0.94202 0.62334 0.0
O145 O 0.17916 0.93556 0.69125 0.0
C146 C 0.18312 0.94391 0.66423 0.0
C147 C 0.16417 0.90541 0.771 0.0
C148 C 0.1926 0.91581 0.65369 0.0
C149 C 0.15653 0.90627 0.61827 0.0
O150 O 0.15796 0.9021 0.65319 0.0
O151 O 0.16369 0.91613 0.60663 0.0
O152 O 0.16485 0.89812 0.74687 0.0
O153 O 0.16764 0.91522 0.75463 0.0
O154 O 0.07793 0.27147 0.64085 0.0
Cd155 Cd 0.07504 0.25538 0.64895 0.0
Cd156 Cd 0.09249 0.2651 0.70351 0.0
O157 O 0.09098 0.27896 0.6918 0.0
O158 O 0.0591 0.24494 0.63443 0.0
O159 O 0.06619 0.24661 0.70124 0.0
C160 C 0.05762 0.24205 0.67534 0.0
C161 C 0.09661 0.26171 0.77437 0.0
C162 C 0.08482 0.27992 0.6631 0.0
C163 C 0.09518 0.25442 0.62152 0.0
O164 O 0.09979 0.26059 0.65479 0.0
O165 O 0.08489 0.25079 0.61366 0.0
O166 O 0.10373 0.27009 0.75144 0.0
O167 O 0.08684 0.25536 0.75769 0.0
O168 O 0.859 0.6034 0.46919 0.0
Cd169 Cd 0.84646 0.58701 0.47754 0.0
Cd170 Cd 0.83802 0.59575 0.53345 0.0
O171 O 0.85294 0.61014 0.52127 0.0
O172 O 0.85267 0.57712 0.46372 0.0
O173 O 0.84698 0.57861 0.53027 0.0
C174 C 0.85133 0.57432 0.50474 0.0
C175 C 0.83065 0.5923 0.60456 0.0
C176 C 0.8601 0.61161 0.49193 0.0
C177 C 0.82475 0.58479 0.4515 0.0
O178 O 0.82603 0.59073 0.48523 0.0
O179 O 0.8318 0.58172 0.44277 0.0
O180 O 0.83148 0.60046 0.58126 0.0
O181 O 0.83441 0.58622 0.58812 0.0
O182 O 0.39906 0.25676 0.46595 0.0
Cd183 Cd 0.41529 0.26035 0.47696 0.0
Cd184 Cd 0.40577 0.243 0.53253 0.0
O185 O 0.39169 0.24383 0.51737 0.0
O186 O 0.4254 0.27631 0.46183 0.0
O187 O 0.42346 0.2696 0.52947 0.0
C188 C 0.42798 0.27805 0.503 0.0
C189 C 0.40815 0.2388 0.60473 0.0
C190 C 0.3906 0.24967 0.48761 0.0
C191 C 0.41747 0.24064 0.45315 0.0
O192 O 0.41117 0.23597 0.48603 0.0
O193 O 0.42071 0.2508 0.44427 0.0
O194 O 0.40024 0.23164 0.58008 0.0
O195 O 0.41464 0.24864 0.58889 0.0
O196 O 0.74406 0.13987 0.46996 0.0
Cd197 Cd 0.74115 0.153 0.47949 0.0
Cd198 Cd 0.75845 0.16043 0.53512 0.0
O199 O 0.75702 0.14519 0.52113 0.0
O200 O 0.72536 0.14765 0.46299 0.0
O201 O 0.73181 0.15243 0.53095 0.0
C202 C 0.7235 0.14868 0.50385 0.0
C203 C 0.76243 0.1671 0.60724 0.0
C204 C 0.75094 0.13823 0.49186 0.0
C205 C 0.76138 0.1744 0.45479 0.0
O206 O 0.76589 0.1727 0.48809 0.0
O207 O 0.75117 0.16771 0.44597 0.0
O208 O 0.76958 0.16611 0.58348 0.0
O209 O 0.75271 0.16396 0.59051 0.0
O210 O 0.93613 0.52493 0.69655 0.0
Cd211 Cd 0.91979 0.51237 0.68712 0.0
Cd212 Cd 0.9287 0.50432 0.62979 0.0
O213 O 0.943 0.51914 0.64406 0.0
O214 O 0.90984 0.51833 0.70332 0.0
O215 O 0.91132 0.51335 0.63547 0.0
C216 C 0.907 0.51738 0.66241 0.0
C217 C 0.92601 0.49776 0.55745 0.0
C218 C 0.94439 0.52614 0.67395 0.0
C219 C 0.91756 0.49045 0.71032 0.0
O220 O 0.92348 0.4919 0.67633 0.0
O221 O 0.91456 0.4975 0.7202 0.0
O222 O 0.93394 0.49839 0.5816 0.0
O223 O 0.91964 0.50118 0.57392 0.0
O224 O 0.47605 0.41199 0.70053 0.0
Cd225 Cd 0.48838 0.40792 0.692 0.0
Cd226 Cd 0.49659 0.4245 0.6319 0.0
O227 O 0.48196 0.42441 0.64705 0.0
O228 O 0.48218 0.39184 0.70581 0.0
O229 O 0.48769 0.39901 0.6391 0.0
C230 C 0.48339 0.39037 0.66466 0.0
C231 C 0.5031 0.4287 0.55944 0.0
C232 C 0.47494 0.419 0.67724 0.0
C233 C 0.51066 0.42711 0.71267 0.0
O234 O 0.50941 0.43122 0.67722 0.0
O235 O 0.50318 0.41746 0.72526 0.0
O236 O 0.50297 0.43603 0.58507 0.0
O237 O 0.49912 0.41868 0.5744 0.0
O238 O 0.59006 0.06341 0.69703 0.0
Cd239 Cd 0.59353 0.07967 0.68822 0.0
Cd240 Cd 0.57599 0.0704 0.6338 0.0
O241 O 0.57675 0.05618 0.64702 0.0
O242 O 0.60959 0.08976 0.70191 0.0
O243 O 0.60237 0.0881 0.63537 0.0
C244 C 0.61101 0.09251 0.66086 0.0
C245 C 0.57209 0.07357 0.56225 0.0
C246 C 0.58282 0.05501 0.67549 0.0
C247 C 0.57395 0.08178 0.71487 0.0
O248 O 0.56916 0.07568 0.68164 0.0
O249 O 0.58411 0.0849 0.7231 0.0
O250 O 0.56474 0.06554 0.58595 0.0
O251 O 0.58194 0.0797 0.57863 0.0
O252 O 0.47671 0.06567 0.20262 0.0
Cd253 Cd 0.48932 0.08182 0.19026 0.0
Cd254 Cd 0.49635 0.07201 0.13386 0.0
O255 O 0.48086 0.05835 0.14644 0.0
O256 O 0.4836 0.09213 0.20393 0.0
O257 O 0.48816 0.0896 0.13672 0.0
C258 C 0.48432 0.09435 0.1624 0.0
C259 C 0.50351 0.07504 0.06245 0.0
C260 C 0.47451 0.0573 0.17852 0.0
C261 C 0.51068 0.08315 0.21346 0.0
O262 O 0.50847 0.07644 0.18152 0.0
O263 O 0.50439 0.08719 0.2216 0.0
O264 O 0.50213 0.06664 0.08553 0.0
O265 O 0.5004 0.08162 0.07928 0.0
O266 O 0.93662 0.41102 0.19823 0.0
Cd267 Cd 0.92036 0.4072 0.18649 0.0
Cd268 Cd 0.92971 0.42388 0.1291 0.0
O269 O 0.94369 0.42265 0.14241 0.0
O270 O 0.91022 0.39118 0.20067 0.0
O271 O 0.91246 0.39816 0.13336 0.0
C272 C 0.90783 0.38961 0.15929 0.0
C273 C 0.92665 0.42759 0.05707 0.0
C274 C 0.94493 0.41743 0.17431 0.0
C275 C 0.91858 0.42706 0.20879 0.0
O276 O 0.925 0.4315 0.176 0.0
O277 O 0.91494 0.41684 0.21795 0.0
O278 O 0.93493 0.43483 0.08008 0.0
O279 O 0.92018 0.41794 0.07443 0.0
O280 O 0.58894 0.52535 0.19357 0.0
Cd281 Cd 0.59255 0.51265 0.18664 0.0
Cd282 Cd 0.57546 0.50416 0.12881 0.0
O283 O 0.57541 0.51869 0.14438 0.0
O284 O 0.60846 0.51867 0.20306 0.0
O285 O 0.60195 0.51317 0.13557 0.0
C286 C 0.61032 0.51741 0.16244 0.0
C287 C 0.57189 0.4979 0.05602 0.0
C288 C 0.58144 0.52612 0.17234 0.0
C289 C 0.57315 0.49048 0.20976 0.0
O290 O 0.56887 0.49141 0.1742 0.0
O291 O 0.58282 0.4981 0.22144 0.0
O292 O 0.56429 0.49781 0.0807 0.0
O293 O 0.5818 0.50193 0.07224 0.0
O294 O 0.39675 0.14057 0.9736 0.0
Cd295 Cd 0.41305 0.15342 0.98109 0.0
Cd296 Cd 0.40401 0.16161 0.03691 0.0
O297 O 0.38978 0.14653 0.02512 0.0
O298 O 0.42305 0.14753 0.96453 0.0
O299 O 0.422 0.15296 0.03209 0.0
C300 C 0.42621 0.14883 0.0051 0.0
C301 C 0.4077 0.16896 0.10803 0.0
C302 C 0.38848 0.13934 0.99621 0.0
C303 C 0.41466 0.17491 0.95488 0.0
O304 O 0.40872 0.17356 0.98869 0.0
O305 O 0.41791 0.16799 0.94624 0.0
O306 O 0.39939 0.16801 0.0855 0.0
O307 O 0.41381 0.16531 0.09078 0.0
O308 O 0.85926 0.25604 0.96684 0.0
Cd309 Cd 0.84637 0.25921 0.97827 0.0
Cd310 Cd 0.83955 0.24247 0.03549 0.0
O311 O 0.85505 0.24439 0.02241 0.0
O312 O 0.85171 0.275 0.96186 0.0
O313 O 0.8474 0.26861 0.03012 0.0
C314 C 0.85101 0.27691 0.00297 0.0
C315 C 0.83275 0.23844 0.10744 0.0
C316 C 0.86148 0.24985 0.99073 0.0
C317 C 0.82514 0.23881 0.95568 0.0
O318 O 0.82733 0.23451 0.98841 0.0
O319 O 0.83142 0.2491 0.94676 0.0
O320 O 0.83413 0.23144 0.08424 0.0
O321 O 0.83559 0.24804 0.0903 0.0
O322 O 0.74434 0.60311 0.96506 0.0
Cd323 Cd 0.74033 0.58672 0.97506 0.0
Cd324 Cd 0.75759 0.59557 0.0308 0.0
O325 O 0.7572 0.60995 0.01686 0.0
O326 O 0.7242 0.57684 0.96188 0.0
O327 O 0.73147 0.5787 0.02846 0.0
C328 C 0.72279 0.57429 0.00314 0.0
C329 C 0.76163 0.59274 0.10262 0.0
C330 C 0.75155 0.61138 0.98726 0.0
C331 C 0.75963 0.58399 0.95034 0.0
O332 O 0.76438 0.59008 0.98362 0.0
O333 O 0.74954 0.58105 0.94144 0.0
O334 O 0.76892 0.60066 0.07835 0.0
O335 O 0.75176 0.5865 0.08665 0.0
O336 O 0.52695 0.936 0.80375 0.0
Cd337 Cd 0.51405 0.91979 0.8125 0.0
Cd338 Cd 0.50592 0.92911 0.86769 0.0
O339 O 0.52104 0.94318 0.85462 0.0
O340 O 0.51982 0.90956 0.79854 0.0
O341 O 0.51437 0.91128 0.86523 0.0
C342 C 0.51847 0.90678 0.83957 0.0
C343 C 0.49877 0.92648 0.93905 0.0
C344 C 0.52821 0.94437 0.82582 0.0
C345 C 0.49252 0.91803 0.78611 0.0
O346 O 0.49388 0.92406 0.81964 0.0
O347 O 0.49947 0.91481 0.77761 0.0
O348 O 0.49979 0.93453 0.91451 0.0
O349 O 0.50214 0.91998 0.92362 0.0
O350 O 0.06423 0.58771 0.8011 0.0
Cd351 Cd 0.08064 0.5917 0.80864 0.0
Cd352 Cd 0.0723 0.5747 0.86707 0.0
O353 O 0.05755 0.57413 0.85011 0.0
O354 O 0.09031 0.60762 0.79191 0.0
O355 O 0.08931 0.60128 0.8597 0.0
C356 C 0.09336 0.6096 0.83259 0.0
C357 C 0.07476 0.57131 0.94042 0.0
C358 C 0.05602 0.58004 0.822 0.0
C359 C 0.08414 0.57264 0.78714 0.0
O360 O 0.07896 0.56836 0.82277 0.0
O361 O 0.08588 0.58216 0.77477 0.0
O362 O 0.06752 0.56357 0.91536 0.0
O363 O 0.08051 0.58123 0.9242 0.0
O364 O 0.41104 0.47564 0.79692 0.0
Cd365 Cd 0.40716 0.48804 0.80887 0.0
Cd366 Cd 0.42364 0.49516 0.86745 0.0
O367 O 0.42215 0.47985 0.85428 0.0
O368 O 0.39132 0.48226 0.79203 0.0
O369 O 0.39749 0.48642 0.86061 0.0
C370 C 0.38925 0.48271 0.83317 0.0
C371 C 0.42745 0.5018 0.93966 0.0
C372 C 0.41715 0.47354 0.82175 0.0
C373 C 0.42718 0.50974 0.78835 0.0
O374 O 0.43153 0.50757 0.82094 0.0
O375 O 0.41696 0.50328 0.77888 0.0
O376 O 0.43459 0.50066 0.91645 0.0
O377 O 0.41783 0.49883 0.92235 0.0
O378 O 0.60392 0.85845 0.02804 0.0
Cd379 Cd 0.58782 0.84558 0.01723 0.0
Cd380 Cd 0.59765 0.83872 0.95984 0.0
O381 O 0.61122 0.85433 0.97172 0.0
O382 O 0.57746 0.85096 0.03464 0.0
O383 O 0.57928 0.84666 0.96606 0.0
C384 C 0.57471 0.85028 0.99371 0.0
C385 C 0.59442 0.83163 0.88828 0.0
C386 C 0.61225 0.86073 0.00355 0.0
C387 C 0.58712 0.82445 0.04015 0.0
O388 O 0.59363 0.82666 0.00748 0.0
O389 O 0.58301 0.83065 0.0488 0.0
O390 O 0.60294 0.83308 0.91073 0.0
O391 O 0.58781 0.83461 0.90591 0.0
O392 O 0.13949 0.74254 0.02814 0.0
Cd393 Cd 0.15249 0.73937 0.01929 0.0
Cd394 Cd 0.16043 0.75682 0.96453 0.0
O395 O 0.14512 0.75544 0.97661 0.0
O396 O 0.14685 0.72335 0.03266 0.0
O397 O 0.15226 0.73069 0.96618 0.0
C398 C 0.14821 0.72202 0.99153 0.0
C399 C 0.16787 0.76139 0.89363 0.0
C400 C 0.13803 0.74946 0.00567 0.0
C401 C 0.17379 0.75929 0.04632 0.0
O402 O 0.17229 0.76396 0.01316 0.0
O403 O 0.16705 0.74903 0.05425 0.0
O404 O 0.16657 0.76833 0.91756 0.0
O405 O 0.16457 0.75155 0.90934 0.0
O406 O 0.25616 0.39593 0.02478 0.0
Cd407 Cd 0.25918 0.41206 0.01643 0.0
Cd408 Cd 0.24153 0.40234 0.96265 0.0
O409 O 0.24296 0.38844 0.97444 0.0
O410 O 0.27517 0.42242 0.03044 0.0
O411 O 0.26798 0.4207 0.96382 0.0
C412 C 0.27659 0.42524 0.98946 0.0
C413 C 0.23734 0.40566 0.89184 0.0
C414 C 0.24917 0.38747 0.00283 0.0
C415 C 0.23922 0.41334 0.04434 0.0
O416 O 0.23446 0.40708 0.01146 0.0
O417 O 0.24951 0.41689 0.05177 0.0
O418 O 0.2302 0.39736 0.91506 0.0
O419 O 0.24716 0.41197 0.90819 0.0
O420 O 0.1406 0.39722 0.5276 0.0
Cd421 Cd 0.15361 0.41333 0.51784 0.0
Cd422 Cd 0.16128 0.40339 0.46369 0.0
O423 O 0.14598 0.38956 0.4767 0.0
O424 O 0.148 0.42362 0.53346 0.0
O425 O 0.15293 0.4219 0.46583 0.0
C426 C 0.14903 0.42641 0.49248 0.0
C427 C 0.16856 0.40628 0.39253 0.0
C428 C 0.13899 0.38869 0.50582 0.0
C429 C 0.17496 0.41466 0.54433 0.0
O430 O 0.17327 0.40824 0.51181 0.0
O431 O 0.16831 0.41831 0.55193 0.0
O432 O 0.16737 0.39806 0.41639 0.0
O433 O 0.16519 0.41274 0.40844 0.0
O434 O 0.6039 0.74372 0.53143 0.0
Cd435 Cd 0.58777 0.7403 0.5197 0.0
Cd436 Cd 0.59749 0.75718 0.46267 0.0
O437 O 0.61118 0.75546 0.47606 0.0
O438 O 0.5774 0.72432 0.53378 0.0
O439 O 0.57978 0.73135 0.46649 0.0
C440 C 0.57502 0.72279 0.49238 0.0
C441 C 0.595 0.76138 0.39056 0.0
C442 C 0.61226 0.75003 0.50754 0.0
C443 C 0.58629 0.76033 0.54236 0.0
O444 O 0.59277 0.76479 0.50973 0.0
O445 O 0.58255 0.75008 0.5513 0.0
O446 O 0.60316 0.76841 0.41461 0.0
O447 O 0.58829 0.75168 0.407 0.0
O448 O 0.25551 0.86036 0.52449 0.0
Cd449 Cd 0.25923 0.84767 0.51916 0.0
Cd450 Cd 0.24165 0.83884 0.46411 0.0
O451 O 0.24218 0.85382 0.47458 0.0
O452 O 0.27529 0.85462 0.53483 0.0
O453 O 0.26856 0.84745 0.46904 0.0
C454 C 0.27703 0.8526 0.49507 0.0
C455 C 0.23717 0.83108 0.39368 0.0
C456 C 0.24823 0.86129 0.50228 0.0
C457 C 0.23981 0.82627 0.54814 0.0
O458 O 0.23509 0.82721 0.51383 0.0
O459 O 0.24992 0.83347 0.5565 0.0
O460 O 0.23003 0.83198 0.41784 0.0
O461 O 0.24714 0.83488 0.40899 0.0
O462 O 0.06502 0.47649 0.29861 0.0
Cd463 Cd 0.08137 0.4889 0.30733 0.0
Cd464 Cd 0.07294 0.49679 0.36816 0.0
O465 O 0.0585 0.482 0.35341 0.0
O466 O 0.0914 0.48292 0.29255 0.0
O467 O 0.08965 0.48808 0.3598 0.0
C468 C 0.09407 0.48397 0.3337 0.0
C469 C 0.07573 0.503 0.4411 0.0
C470 C 0.05692 0.47514 0.32263 0.0
C471 C 0.08406 0.5111 0.28777 0.0
O472 O 0.07863 0.50967 0.32317 0.0
O473 O 0.08647 0.5038 0.27505 0.0
O474 O 0.06799 0.50283 0.41703 0.0
O475 O 0.08179 0.49926 0.4242 0.0
O476 O 0.52556 0.58876 0.30337 0.0
Cd477 Cd 0.51279 0.59222 0.31297 0.0
Cd478 Cd 0.505 0.57501 0.36881 0.0
O479 O 0.52002 0.57591 0.3551 0.0
O480 O 0.5186 0.60809 0.29634 0.0
O481 O 0.51369 0.60172 0.36433 0.0
C482 C 0.51766 0.61003 0.33717 0.0
C483 C 0.49823 0.57141 0.44082 0.0
C484 C 0.52699 0.58177 0.32551 0.0
C485 C 0.49113 0.57235 0.2885 0.0
O486 O 0.4927 0.56776 0.32178 0.0
O487 O 0.49799 0.58252 0.27962 0.0
O488 O 0.49895 0.56402 0.41763 0.0
O489 O 0.50174 0.58115 0.42363 0.0
O490 O 0.41159 0.93774 0.30573 0.0
Cd491 Cd 0.40762 0.9213 0.31275 0.0
Cd492 Cd 0.42469 0.93002 0.36944 0.0
O493 O 0.42381 0.94432 0.35973 0.0
O494 O 0.39157 0.91216 0.29697 0.0
O495 O 0.39824 0.91206 0.36331 0.0
C496 C 0.38979 0.90861 0.33705 0.0
C497 C 0.42901 0.92658 0.4399 0.0
C498 C 0.4183 0.94585 0.32978 0.0
C499 C 0.42718 0.9195 0.28586 0.0
O500 O 0.43174 0.92539 0.31985 0.0
O501 O 0.417 0.91622 0.27719 0.0
O502 O 0.43613 0.93483 0.41648 0.0
O503 O 0.41915 0.92031 0.42385 0.0
H504 H 0.23523 0.18635 0.24873 0.0
H505 H 0.2237 0.19423 0.22447 0.0
H506 H 0.219 0.20058 0.35939 0.0
H507 H 0.23065 0.19293 0.38388 0.0
H508 H 0.20166 0.18887 0.24392 0.0
H509 H 0.23244 0.23142 0.3026 0.0
H510 H 0.23574 0.22037 0.29799 0.0
H511 H 0.22782 0.22079 0.34413 0.0
C512 C 0.23167 0.18935 0.27325 0.0
C513 C 0.23396 0.18913 0.31819 0.0
C514 C 0.22509 0.19384 0.25934 0.0
C515 C 0.22069 0.19818 0.2901 0.0
C516 C 0.22253 0.1975 0.33506 0.0
H517 H 0.18583 0.23577 0.26084 0.0
H518 H 0.1933 0.22432 0.29029 0.0
C519 C 0.22915 0.19308 0.34899 0.0
C520 C 0.2145 0.20377 0.27512 0.0
H521 H 0.2153 0.22886 0.27549 0.0
C522 C 0.20463 0.19761 0.2508 0.0
C523 C 0.21841 0.21518 0.28413 0.0
C524 C 0.22923 0.22237 0.30828 0.0
C525 C 0.19852 0.20255 0.23552 0.0
C526 C 0.20246 0.21397 0.24438 0.0
C527 C 0.21226 0.22008 0.26905 0.0
C528 C 0.19693 0.21994 0.22654 0.0
C529 C 0.18784 0.1955 0.21038 0.0
C530 C 0.19646 0.22122 0.18097 0.0
C531 C 0.19225 0.22777 0.16408 0.0
C532 C 0.18844 0.2332 0.19246 0.0
C533 C 0.18866 0.23168 0.2381 0.0
C534 C 0.19293 0.22515 0.25499 0.0
H535 H 0.18441 0.18645 0.21666 0.0
H536 H 0.18141 0.19774 0.21919 0.0
H537 H 0.18955 0.19699 0.17462 0.0
H538 H 0.19971 0.21746 0.15847 0.0
H539 H 0.19222 0.22878 0.12876 0.0
H540 H 0.80897 0.03822 0.37691 0.0
H541 H 0.80152 0.01893 0.35279 0.0
H542 H 0.80761 0.02986 0.21764 0.0
H543 H 0.81526 0.04924 0.24155 0.0
H544 H 0.78309 0.00752 0.3004 0.0
H545 H 0.81989 0.00851 0.22275 0.0
H546 H 0.82109 0.01944 0.25877 0.0
H547 H 0.81699 0.01898 0.20235 0.0
C548 C 0.80888 0.03656 0.34206 0.0
C549 C 0.81269 0.04526 0.31112 0.0
C550 C 0.80462 0.02552 0.32836 0.0
C551 C 0.80411 0.02297 0.28348 0.0
C552 C 0.80813 0.03166 0.2525 0.0
H553 H 0.77142 0.96304 0.12775 0.0
H554 H 0.78263 0.98204 0.15604 0.0
C555 C 0.81244 0.04273 0.2662 0.0
C556 C 0.79852 0.01114 0.26912 0.0
H557 H 0.80219 0.99225 0.20963 0.0
C558 C 0.7873 0.00414 0.28093 0.0
C559 C 0.80402 0.00678 0.24358 0.0
C560 C 0.81619 0.01378 0.23142 0.0
C561 C 0.78134 0.99299 0.26701 0.0
C562 C 0.7868 0.98866 0.24116 0.0
C563 C 0.79805 0.99561 0.22958 0.0
C564 C 0.78079 0.97705 0.22434 0.0
C565 C 0.76913 0.98603 0.2789 0.0
C566 C 0.77628 0.96793 0.25336 0.0
C567 C 0.76984 0.95704 0.23732 0.0
C568 C 0.76784 0.9551 0.19194 0.0
C569 C 0.77275 0.96424 0.1629 0.0
C570 C 0.77918 0.97511 0.17897 0.0
H571 H 0.76562 0.99127 0.29043 0.0
H572 H 0.76416 0.98101 0.25031 0.0
H573 H 0.76817 0.98019 0.30579 0.0
H574 H 0.77758 0.96926 0.28848 0.0
H575 H 0.76623 0.95018 0.26052 0.0
H576 H 0.95072 0.76694 0.2452 0.0
H577 H 0.96976 0.77798 0.21648 0.0
H578 H 0.98293 0.7817 0.34781 0.0
H579 H 0.96397 0.77078 0.37688 0.0
H580 H 0.99333 0.80171 0.29575 0.0
H581 H 0.99115 0.76519 0.20956 0.0
H582 H 0.98018 0.7681 0.19651 0.0
H583 H 0.98119 0.76373 0.25114 0.0
C584 C 0.95766 0.77018 0.26802 0.0
C585 C 0.95584 0.76791 0.31329 0.0
C586 C 0.96853 0.77644 0.25153 0.0
C587 C 0.97774 0.7805 0.27999 0.0
C588 C 0.97593 0.7786 0.32531 0.0
H589 H 0.04991 0.8144 0.25688 0.0
H590 H 0.03067 0.8067 0.28274 0.0
C591 C 0.96508 0.77233 0.34182 0.0
C592 C 0.98929 0.78639 0.26254 0.0
H593 H 0.00759 0.78253 0.20005 0.0
C594 C 0.99647 0.79755 0.27475 0.0
C595 C 0.99334 0.78091 0.23528 0.0
C596 C 0.98612 0.76879 0.22254 0.0
C597 C 0.00758 0.80342 0.25996 0.0
C598 C 0.01166 0.7979 0.233 0.0
C599 C 0.00444 0.78676 0.22062 0.0
C600 C 0.02341 0.80339 0.21755 0.0
C601 C 0.0148 0.81552 0.27276 0.0
C602 C 0.02571 0.80399 0.17239 0.0
C603 C 0.03666 0.80827 0.15756 0.0
C604 C 0.04555 0.81202 0.18764 0.0
C605 C 0.04326 0.81164 0.23287 0.0
C606 C 0.03228 0.80731 0.2477 0.0
H607 H 0.00968 0.81932 0.28249 0.0
H608 H 0.02006 0.8161 0.3013 0.0
H609 H 0.0204 0.82047 0.24534 0.0
H610 H 0.01899 0.80097 0.14857 0.0
H611 H 0.03813 0.80845 0.1225 0.0
H612 H 0.8084 0.77071 0.87636 0.0
H613 H 0.80057 0.78183 0.84745 0.0
H614 H 0.81062 0.7787 0.71643 0.0
H615 H 0.81841 0.76746 0.74498 0.0
H616 H 0.81037 0.80205 0.79716 0.0
H617 H 0.77655 0.766 0.70689 0.0
H618 H 0.78486 0.76432 0.74868 0.0
H619 H 0.7905 0.76903 0.69461 0.0
C620 C 0.80903 0.77244 0.84141 0.0
C621 C 0.81394 0.76811 0.81289 0.0
C622 C 0.80456 0.77882 0.82499 0.0
C623 C 0.80488 0.78094 0.77978 0.0
C624 C 0.81014 0.777 0.75138 0.0
H625 H 0.7728 0.80959 0.62382 0.0
H626 H 0.78457 0.80217 0.6492 0.0
C627 C 0.81463 0.77062 0.76777 0.0
C628 C 0.7993 0.78692 0.76236 0.0
H629 H 0.77743 0.78336 0.69876 0.0
C630 C 0.80319 0.79799 0.77554 0.0
C631 C 0.78992 0.78158 0.7343 0.0
C632 C 0.78512 0.76955 0.72048 0.0
C633 C 0.79797 0.80392 0.76104 0.0
C634 C 0.78851 0.79853 0.73334 0.0
C635 C 0.7847 0.78749 0.7199 0.0
C636 C 0.78224 0.80404 0.71839 0.0
C637 C 0.80273 0.81592 0.775 0.0
C638 C 0.77706 0.80763 0.74889 0.0
C639 C 0.77035 0.81193 0.73447 0.0
C640 C 0.7686 0.81259 0.68929 0.0
C641 C 0.77397 0.80918 0.65886 0.0
C642 C 0.7807 0.80494 0.67329 0.0
H643 H 0.81161 0.8197 0.78525 0.0
H644 H 0.80216 0.82102 0.74802 0.0
H645 H 0.79791 0.81628 0.80349 0.0
H646 H 0.77793 0.80679 0.78386 0.0
H647 H 0.76628 0.81442 0.75874 0.0
H648 H 0.2346 0.05011 0.7403 0.0
H649 H 0.22299 0.03124 0.71065 0.0
H650 H 0.21728 0.0177 0.84197 0.0
H651 H 0.22877 0.03646 0.87188 0.0
H652 H 0.2275 0.01363 0.72199 0.0
H653 H 0.18576 0.00228 0.78837 0.0
H654 H 0.1971 0.01654 0.78542 0.0
H655 H 0.19668 0.00752 0.82884 0.0
C656 C 0.23075 0.04313 0.76291 0.0
C657 C 0.23261 0.04478 0.80845 0.0
C658 C 0.22413 0.03236 0.74591 0.0
C659 C 0.21916 0.02309 0.77417 0.0
C660 C 0.22084 0.02475 0.81966 0.0
H661 H 0.1849 0.95123 0.74917 0.0
H662 H 0.19315 0.97059 0.77442 0.0
C663 C 0.22748 0.03549 0.83666 0.0
C664 C 0.21296 0.01162 0.75605 0.0
H665 H 0.18777 0.98743 0.75854 0.0
C666 C 0.21878 0.00793 0.72953 0.0
C667 C 0.20162 0.00419 0.76633 0.0
C668 C 0.19487 0.00784 0.79348 0.0
C669 C 0.21365 0.99691 0.71395 0.0
C670 C 0.20232 0.98945 0.7244 0.0
C671 C 0.19646 0.99317 0.75058 0.0
C672 C 0.19651 0.9777 0.70899 0.0
C673 C 0.22054 0.99326 0.6877 0.0
C674 C 0.19536 0.97527 0.66387 0.0
C675 C 0.19072 0.96425 0.64937 0.0
C676 C 0.18702 0.95542 0.67975 0.0
C677 C 0.1877 0.95784 0.72495 0.0
C678 C 0.1924 0.96889 0.73943 0.0
H679 H 0.22964 0.99903 0.69217 0.0
H680 H 0.21858 0.98471 0.69722 0.0
H681 H 0.21861 0.99317 0.65223 0.0
H682 H 0.19825 0.98193 0.63983 0.0
H683 H 0.19022 0.96267 0.61432 0.0
H684 H 0.05125 0.23582 0.76076 0.0
H685 H 0.03223 0.22406 0.78866 0.0
H686 H 0.01943 0.21897 0.65623 0.0
H687 H 0.03836 0.23061 0.62806 0.0
H688 H 0.01491 0.22882 0.77649 0.0
H689 H 0.00337 0.18726 0.70757 0.0
H690 H 0.01767 0.19848 0.71162 0.0
H691 H 0.00889 0.19835 0.66777 0.0
C692 C 0.04441 0.23206 0.73753 0.0
C693 C 0.04632 0.23416 0.6922 0.0
C694 C 0.03355 0.22535 0.75353 0.0
C695 C 0.02444 0.22053 0.72446 0.0
C696 C 0.02636 0.22241 0.67916 0.0
H697 H 0.95249 0.18714 0.74403 0.0
H698 H 0.97195 0.1953 0.72003 0.0
C699 C 0.03719 0.22913 0.66315 0.0
C700 C 0.01287 0.21437 0.7416 0.0
H701 H 0.98848 0.1894 0.73641 0.0
C702 C 0.00916 0.22016 0.76817 0.0
C703 C 0.00538 0.20311 0.73031 0.0
C704 C 0.00903 0.19639 0.70307 0.0
C705 C 0.99807 0.2151 0.78285 0.0
C706 C 0.99055 0.20385 0.77139 0.0
C707 C 0.99427 0.19801 0.74513 0.0
C708 C 0.97873 0.19811 0.78593 0.0
C709 C 0.99442 0.22196 0.80928 0.0
C710 C 0.9761 0.19671 0.83086 0.0
C711 C 0.96502 0.19212 0.84465 0.0
C712 C 0.95636 0.18874 0.81372 0.0
C713 C 0.95897 0.18969 0.76866 0.0
C714 C 0.97008 0.19434 0.75489 0.0
H715 H 1.00032 0.23106 0.80571 0.0
H716 H 0.98597 0.22018 0.79913 0.0
H717 H 0.99408 0.2198 0.84462 0.0
H718 H 0.98263 0.19934 0.85532 0.0
H719 H 0.96329 0.19139 0.8796 0.0
H720 H 0.85101 0.56784 0.59013 0.0
H721 H 0.85865 0.55649 0.61897 0.0
H722 H 0.86802 0.55256 0.48777 0.0
H723 H 0.86034 0.56379 0.45859 0.0
H724 H 0.85801 0.53253 0.53967 0.0
H725 H 0.89271 0.56864 0.62636 0.0
H726 H 0.87891 0.56599 0.63923 0.0
H727 H 0.88437 0.57033 0.5847 0.0
C728 C 0.85462 0.56449 0.56737 0.0
C729 C 0.85515 0.56679 0.52211 0.0
C730 C 0.85902 0.55805 0.58393 0.0
C731 C 0.86404 0.55384 0.55554 0.0
C732 C 0.86421 0.55578 0.51022 0.0
H733 H 0.90127 0.51892 0.5775 0.0
H734 H 0.88994 0.5269 0.55216 0.0
C735 C 0.85984 0.56222 0.49364 0.0
C736 C 0.86949 0.54775 0.57304 0.0
H737 H 0.89147 0.55114 0.63553 0.0
C738 C 0.86531 0.53657 0.56073 0.0
C739 C 0.87902 0.55307 0.60038 0.0
C740 C 0.88411 0.56519 0.61326 0.0
C741 C 0.87038 0.53052 0.57542 0.0
C742 C 0.87998 0.53588 0.6024 0.0
C743 C 0.88409 0.54704 0.61495 0.0
C744 C 0.88609 0.53021 0.61755 0.0
C745 C 0.8653 0.51841 0.56247 0.0
C746 C 0.88779 0.52952 0.66265 0.0
C747 C 0.89434 0.52508 0.67719 0.0
C748 C 0.89936 0.52126 0.64686 0.0
C749 C 0.89746 0.52173 0.60169 0.0
C750 C 0.89093 0.52623 0.58716 0.0
H751 H 0.8564 0.51475 0.55282 0.0
H752 H 0.86992 0.51775 0.53382 0.0
H753 H 0.86586 0.51337 0.58976 0.0
H754 H 0.88417 0.53259 0.68665 0.0
H755 H 0.89563 0.52483 0.71221 0.0
H756 H 0.4396 0.29705 0.45441 0.0
H757 H 0.4509 0.31618 0.48115 0.0
H758 H 0.44444 0.30424 0.61498 0.0
H759 H 0.43326 0.28502 0.58846 0.0
H760 H 0.44327 0.32721 0.53227 0.0
H761 H 0.47802 0.32565 0.61674 0.0
H762 H 0.46875 0.31496 0.57885 0.0
H763 H 0.46441 0.31505 0.63453 0.0
C764 C 0.4407 0.29846 0.48955 0.0
C765 C 0.43552 0.28951 0.51933 0.0
C766 C 0.44716 0.30941 0.50476 0.0
C767 C 0.44862 0.31163 0.55002 0.0
C768 C 0.44363 0.3027 0.57988 0.0
H769 H 0.47429 0.37079 0.71063 0.0
H770 H 0.46653 0.35188 0.68124 0.0
C771 C 0.43718 0.29172 0.56468 0.0
C772 C 0.45465 0.32335 0.5658 0.0
H773 H 0.47643 0.34182 0.62966 0.0
C774 C 0.45059 0.33044 0.55323 0.0
C775 C 0.46416 0.32752 0.59326 0.0
C776 C 0.46917 0.32044 0.60635 0.0
C777 C 0.45562 0.34151 0.56816 0.0
C778 C 0.46508 0.34565 0.59588 0.0
C779 C 0.46919 0.3386 0.6083 0.0
C780 C 0.47053 0.35718 0.61352 0.0
C781 C 0.45057 0.34857 0.5552 0.0
C782 C 0.47559 0.36643 0.58522 0.0
C783 C 0.48003 0.37726 0.60189 0.0
C784 C 0.47951 0.37901 0.64718 0.0
C785 C 0.47478 0.36973 0.67556 0.0
C786 C 0.47036 0.35892 0.65887 0.0
H787 H 0.44196 0.34344 0.54203 0.0
H788 H 0.4503 0.35345 0.58372 0.0
H789 H 0.45579 0.35456 0.52924 0.0
H790 H 0.47596 0.36526 0.55017 0.0
H791 H 0.48367 0.38424 0.5792 0.0
H792 H 0.70483 0.14183 0.45368 0.0
H793 H 0.68563 0.13439 0.47888 0.0
H794 H 0.69689 0.13962 0.6136 0.0
H795 H 0.71619 0.14727 0.58863 0.0
H796 H 0.67418 0.11572 0.52951 0.0
H797 H 0.67578 0.15215 0.6131 0.0
H798 H 0.68661 0.15348 0.57614 0.0
H799 H 0.6862 0.14899 0.63197 0.0
C800 C 0.70326 0.14156 0.48868 0.0
C801 C 0.71204 0.14513 0.51918 0.0
C802 C 0.69227 0.1373 0.503 0.0
C803 C 0.68983 0.13656 0.54807 0.0
C804 C 0.6986 0.14034 0.57863 0.0
H805 H 0.63057 0.10316 0.70684 0.0
H806 H 0.64945 0.11443 0.67747 0.0
C807 C 0.70962 0.14465 0.56432 0.0
C808 C 0.67805 0.13097 0.56298 0.0
H809 H 0.65951 0.13441 0.62585 0.0
C810 C 0.67094 0.11985 0.55018 0.0
C811 C 0.67386 0.13636 0.59007 0.0
C812 C 0.68097 0.14844 0.60333 0.0
C813 C 0.65983 0.11386 0.56467 0.0
C814 C 0.65567 0.1192 0.59216 0.0
C815 C 0.66273 0.13036 0.60466 0.0
C816 C 0.64414 0.11314 0.60977 0.0
C817 C 0.65274 0.10175 0.55162 0.0
C818 C 0.63489 0.10892 0.58148 0.0
C819 C 0.62406 0.10244 0.59814 0.0
C820 C 0.62233 0.10012 0.6434 0.0
C821 C 0.63161 0.10474 0.67178 0.0
C822 C 0.64241 0.11121 0.6551 0.0
H823 H 0.65786 0.09827 0.53846 0.0
H824 H 0.64784 0.09661 0.5801 0.0
H825 H 0.64677 0.10102 0.52564 0.0
H826 H 0.63606 0.11047 0.54643 0.0
H827 H 0.61709 0.09906 0.57545 0.0
H828 H 0.47601 0.10554 0.20852 0.0
H829 H 0.46791 0.11637 0.17911 0.0
H830 H 0.47552 0.11077 0.04726 0.0
H831 H 0.48356 0.09981 0.07634 0.0
H832 H 0.47697 0.13564 0.12368 0.0
H833 H 0.44143 0.09839 0.04606 0.0
H834 H 0.4504 0.09729 0.08649 0.0
H835 H 0.45509 0.101 0.03072 0.0
C836 C 0.47604 0.10666 0.17326 0.0
C837 C 0.48034 0.10172 0.14472 0.0
C838 C 0.47142 0.11288 0.15655 0.0
C839 C 0.47097 0.11422 0.11104 0.0
C840 C 0.47563 0.10967 0.08249 0.0
H841 H 0.43724 0.14106 0.95498 0.0
H842 H 0.44912 0.13374 0.98016 0.0
C843 C 0.48026 0.10345 0.09918 0.0
C844 C 0.46522 0.12002 0.09358 0.0
H845 H 0.44244 0.11572 0.03437 0.0
C846 C 0.46944 0.13132 0.10406 0.0
C847 C 0.45537 0.11432 0.06815 0.0
C848 C 0.45022 0.10206 0.0574 0.0
C849 C 0.46411 0.13712 0.08934 0.0
C850 C 0.45421 0.13138 0.06422 0.0
C851 C 0.45005 0.1201 0.05352 0.0
C852 C 0.44785 0.13679 0.04913 0.0
C853 C 0.46922 0.14935 0.10027 0.0
C854 C 0.44324 0.141 0.07956 0.0
C855 C 0.43646 0.14524 0.06525 0.0
C856 C 0.43409 0.14522 0.02027 0.0
C857 C 0.43889 0.14118 0.98986 0.0
C858 C 0.44568 0.13699 0.00417 0.0
H859 H 0.47822 0.15317 0.1086 0.0
H860 H 0.46832 0.15404 0.07241 0.0
H861 H 0.46486 0.15028 0.12922 0.0
H862 H 0.4446 0.1407 0.11449 0.0
H863 H 0.43284 0.14823 0.0895 0.0
H864 H 0.85271 0.28421 0.08791 0.0
H865 H 0.86063 0.30352 0.11312 0.0
H866 H 0.86578 0.31487 0.97852 0.0
H867 H 0.85805 0.29565 0.95306 0.0
H868 H 0.8846 0.3261 0.02943 0.0
H869 H 0.84835 0.32491 0.11293 0.0
H870 H 0.85133 0.31434 0.13129 0.0
H871 H 0.84689 0.31411 0.07554 0.0
C872 C 0.85538 0.2908 0.06367 0.0
C873 C 0.85477 0.2884 0.01849 0.0
C874 C 0.85984 0.30183 0.07814 0.0
C875 C 0.86367 0.31062 0.04767 0.0
C876 C 0.86283 0.30821 0.00257 0.0
H877 H 0.90167 0.38332 0.07376 0.0
H878 H 0.89033 0.3643 0.04525 0.0
C879 C 0.8584 0.29721 0.9881 0.0
C880 C 0.86938 0.3224 0.06269 0.0
H881 H 0.86613 0.34111 0.1252 0.0
C882 C 0.88053 0.32941 0.05002 0.0
C883 C 0.86406 0.32668 0.08969 0.0
C884 C 0.85197 0.31966 0.10288 0.0
C885 C 0.88661 0.34052 0.06447 0.0
C886 C 0.88132 0.34478 0.09174 0.0
C887 C 0.87014 0.33781 0.10419 0.0
C888 C 0.88743 0.35635 0.10898 0.0
C889 C 0.89874 0.3475 0.05155 0.0
C890 C 0.88922 0.35818 0.15435 0.0
C891 C 0.89564 0.36902 0.17074 0.0
C892 C 0.90035 0.37823 0.14204 0.0
C893 C 0.89822 0.3764 0.0967 0.0
C894 C 0.89178 0.36554 0.08033 0.0
H895 H 0.90218 0.34228 0.03903 0.0
H896 H 0.89955 0.35338 0.02509 0.0
H897 H 0.90388 0.35247 0.07991 0.0
H898 H 0.88589 0.35119 0.177 0.0
H899 H 0.89708 0.37014 0.20586 0.0
H900 H 0.61756 0.51845 0.07777 0.0
H901 H 0.63687 0.52645 0.05244 0.0
H902 H 0.6484 0.53301 0.18677 0.0
H903 H 0.62918 0.52523 0.2123 0.0
H904 H 0.65945 0.55129 0.13422 0.0
H905 H 0.65858 0.51471 0.05525 0.0
H906 H 0.64794 0.51743 0.03545 0.0
H907 H 0.64769 0.51338 0.09184 0.0
C908 C 0.62419 0.52145 0.10195 0.0
C909 C 0.62184 0.52122 0.14704 0.0
C910 C 0.63522 0.52595 0.08743 0.0
C911 C 0.64407 0.5302 0.11776 0.0
C912 C 0.6417 0.52974 0.16282 0.0
H913 H 0.71674 0.56832 0.08902 0.0
H914 H 0.6978 0.55703 0.11839 0.0
C915 C 0.6307 0.52529 0.17734 0.0
C916 C 0.65584 0.53591 0.1025 0.0
H917 H 0.67458 0.53252 0.04077 0.0
C918 C 0.66279 0.54715 0.11417 0.0
C919 C 0.66016 0.5305 0.07623 0.0
C920 C 0.65324 0.51831 0.06427 0.0
C921 C 0.67387 0.55322 0.09938 0.0
C922 C 0.67816 0.54786 0.07271 0.0
C923 C 0.67125 0.53659 0.0613 0.0
C924 C 0.68968 0.55397 0.05499 0.0
C925 C 0.6808 0.56543 0.11128 0.0
C926 C 0.69138 0.55568 0.00954 0.0
C927 C 0.70217 0.56209 0.99266 0.0
C928 C 0.71147 0.56686 0.02095 0.0
C929 C 0.70976 0.56481 0.06639 0.0
C930 C 0.69894 0.5584 0.08325 0.0
H931 H 0.67557 0.56885 0.12392 0.0
H932 H 0.68686 0.56644 0.13731 0.0
H933 H 0.68559 0.57044 0.08235 0.0
H934 H 0.68433 0.55229 0.9872 0.0
H935 H 0.70319 0.56346 0.95749 0.0
H936 H 0.5265 0.89544 0.79281 0.0
H937 H 0.53389 0.88394 0.82144 0.0
H938 H 0.52606 0.8891 0.95358 0.0
H939 H 0.5187 0.90073 0.92522 0.0
H940 H 0.54817 0.8939 0.94181 0.0
H941 H 0.51828 0.85228 0.87313 0.0
H942 H 0.52384 0.86333 0.83317 0.0
H943 H 0.51515 0.86347 0.87686 0.0
C944 C 0.5262 0.89402 0.82794 0.0
C945 C 0.52202 0.89902 0.85676 0.0
C946 C 0.53036 0.88737 0.8442 0.0
C947 C 0.53039 0.88554 0.88956 0.0
C948 C 0.52604 0.89035 0.91841 0.0
H949 H 0.56271 0.85671 0.0449 0.0
H950 H 0.55117 0.86452 0.02081 0.0
C951 C 0.52183 0.89698 0.90215 0.0
C952 C 0.53581 0.87942 0.90693 0.0
H953 H 0.53534 0.8545 0.90198 0.0
C954 C 0.54529 0.88525 0.93356 0.0
C955 C 0.53209 0.86816 0.89574 0.0
C956 C 0.52172 0.86139 0.86847 0.0
C957 C 0.55135 0.88023 0.94834 0.0
C958 C 0.54768 0.86899 0.93691 0.0
C959 C 0.53813 0.86311 0.91066 0.0
C960 C 0.55382 0.86331 0.95137 0.0
C961 C 0.56185 0.88713 0.97479 0.0
C962 C 0.55873 0.85959 0.92026 0.0
C963 C 0.56526 0.85501 0.93391 0.0
C964 C 0.56697 0.85409 0.97894 0.0
C965 C 0.56165 0.85741 0.00997 0.0
C966 C 0.5551 0.86193 0.99629 0.0
H967 H 0.565 0.89622 0.97125 0.0
H968 H 0.56004 0.88496 0.01012 0.0
H969 H 0.56856 0.88541 0.96463 0.0
H970 H 0.55778 0.86053 0.88541 0.0
H971 H 0.56921 0.8525 0.90922 0.0
H972 H 0.09923 0.61706 0.91723 0.0
H973 H 0.11028 0.63647 0.94202 0.0
H974 H 0.11562 0.64767 0.80722 0.0
H975 H 0.10445 0.62836 0.7822 0.0
H976 H 0.1323 0.65339 0.92445 0.0
H977 H 0.10147 0.66465 0.8617 0.0
H978 H 0.09835 0.65036 0.86648 0.0
H979 H 0.10648 0.65882 0.82093 0.0
C980 C 0.10282 0.62365 0.89287 0.0
C981 C 0.10086 0.62118 0.84777 0.0
C982 C 0.10913 0.63473 0.90708 0.0
C983 C 0.11358 0.64351 0.87647 0.0
C984 C 0.11205 0.64103 0.83141 0.0
H985 H 0.14773 0.71593 0.90549 0.0
H986 H 0.14048 0.697 0.87643 0.0
C987 C 0.1057 0.62998 0.81719 0.0
C988 C 0.11953 0.65527 0.89166 0.0
H989 H 0.11839 0.67938 0.88986 0.0
C990 C 0.12927 0.65908 0.91693 0.0
C991 C 0.11554 0.66267 0.88181 0.0
C992 C 0.10484 0.65892 0.85659 0.0
C993 C 0.13518 0.67014 0.93231 0.0
C994 C 0.13116 0.67751 0.92256 0.0
C995 C 0.12149 0.67372 0.89698 0.0
C996 C 0.1365 0.68902 0.94027 0.0
C997 C 0.14574 0.67389 0.95849 0.0
C998 C 0.13669 0.69078 0.98575 0.0
C999 C 0.14078 0.70155 0.00242 0.0
C1000 C 0.14474 0.71077 0.97388 0.0
C1001 C 0.14477 0.70901 0.92834 0.0
C1002 C 0.14063 0.69821 0.91169 0.0
H1003 H 0.14928 0.66833 0.9531 0.0
H1004 H 0.15215 0.68257 0.94978 0.0
H1005 H 0.14382 0.67369 0.99404 0.0
H1006 H 0.13334 0.68379 0.00833 0.0
H1007 H 0.14061 0.70261 0.03765 0.0
H1008 H 0.29595 0.43663 0.03618 0.0
H1009 H 0.31484 0.44819 0.00749 0.0
H1010 H 0.30182 0.44305 0.87542 0.0
H1011 H 0.28283 0.43135 0.90384 0.0
H1012 H 0.31918 0.43831 0.88699 0.0
H1013 H 0.33078 0.47988 0.95593 0.0
H1014 H 0.32534 0.46881 0.9958 0.0
H1015 H 0.31647 0.46865 0.95222 0.0
C1016 C 0.29707 0.43807 0.00106 0.0
C1017 C 0.28788 0.43306 0.97227 0.0
C1018 C 0.30787 0.44475 0.98475 0.0
C1019 C 0.30971 0.4466 0.9394 0.0
C1020 C 0.30055 0.44178 0.91059 0.0
H1021 H 0.37063 0.47587 0.78265 0.0
H1022 H 0.35131 0.46777 0.80741 0.0
C1023 C 0.28972 0.43511 0.92688 0.0
C1024 C 0.32126 0.45276 0.92196 0.0
H1025 H 0.34563 0.47776 0.9266 0.0
C1026 C 0.32493 0.44697 0.89521 0.0
C1027 C 0.32875 0.46403 0.93311 0.0
C1028 C 0.32513 0.47076 0.96052 0.0
C1029 C 0.336 0.45205 0.88022 0.0
C1030 C 0.34353 0.4633 0.89155 0.0
C1031 C 0.33983 0.46914 0.91798 0.0
C1032 C 0.35532 0.46906 0.87671 0.0
C1033 C 0.33962 0.44519 0.85359 0.0
C1034 C 0.36403 0.47289 0.90752 0.0
C1035 C 0.37512 0.47762 0.89349 0.0
C1036 C 0.37767 0.4786 0.84836 0.0
C1037 C 0.36895 0.47513 0.81764 0.0
C1038 C 0.35788 0.47046 0.83171 0.0
H1039 H 0.33374 0.43609 0.85729 0.0
H1040 H 0.33989 0.44733 0.81827 0.0
H1041 H 0.3481 0.44699 0.86347 0.0
H1042 H 0.36221 0.47194 0.94243 0.0
H1043 H 0.38165 0.48025 0.91796 0.0
H1044 H 0.09986 0.48323 0.41924 0.0
H1045 H 0.11109 0.47536 0.44714 0.0
H1046 H 0.11625 0.46782 0.31457 0.0
H1047 H 0.10513 0.47571 0.28637 0.0
H1048 H 0.1058 0.45309 0.43374 0.0
H1049 H 0.14784 0.48277 0.36762 0.0
H1050 H 0.13683 0.48616 0.37164 0.0
H1051 H 0.13684 0.47753 0.32747 0.0
C1052 C 0.10352 0.48005 0.39598 0.0
C1053 C 0.1016 0.48009 0.35058 0.0
C1054 C 0.10992 0.47555 0.41198 0.0
C1055 C 0.11461 0.47114 0.38288 0.0
C1056 C 0.1129 0.47138 0.33753 0.0
H1057 H 0.1474 0.43191 0.40725 0.0
H1058 H 0.1395 0.4433 0.38141 0.0
C1059 C 0.10647 0.47583 0.32151 0.0
C1060 C 0.12051 0.46545 0.40005 0.0
H1061 H 0.14534 0.4657 0.39713 0.0
C1062 C 0.11447 0.4559 0.42612 0.0
C1063 C 0.13179 0.4691 0.38964 0.0
C1064 C 0.13876 0.47951 0.36287 0.0
C1065 C 0.11934 0.44973 0.44134 0.0
C1066 C 0.13063 0.45336 0.43098 0.0
C1067 C 0.13669 0.46295 0.40504 0.0
C1068 C 0.1362 0.44722 0.44664 0.0
C1069 C 0.11223 0.43918 0.46727 0.0
C1070 C 0.13726 0.44594 0.49182 0.0
C1071 C 0.1417 0.4394 0.50665 0.0
C1072 C 0.14528 0.43412 0.47653 0.0
C1073 C 0.14468 0.43583 0.43126 0.0
C1074 C 0.14018 0.44234 0.41645 0.0
H1075 H 0.10317 0.43604 0.46251 0.0
H1076 H 0.11403 0.43249 0.45772 0.0
H1077 H 0.11411 0.44094 0.50281 0.0
H1078 H 0.13447 0.44984 0.51567 0.0
H1079 H 0.14215 0.43835 0.54174 0.0
H1080 H 0.51901 0.61741 0.42182 0.0
H1081 H 0.52702 0.63676 0.44668 0.0
H1082 H 0.53303 0.64804 0.31199 0.0
H1083 H 0.52522 0.62879 0.2869 0.0
H1084 H 0.55157 0.65914 0.36413 0.0
H1085 H 0.51513 0.65844 0.44381 0.0
H1086 H 0.51789 0.6478 0.46329 0.0
H1087 H 0.51373 0.64755 0.40708 0.0
C1088 C 0.52189 0.62399 0.39748 0.0
C1089 C 0.5215 0.62156 0.35239 0.0
C1090 C 0.52641 0.63505 0.41173 0.0
C1091 C 0.5305 0.64383 0.38115 0.0
C1092 C 0.52988 0.64139 0.33612 0.0
H1093 H 0.56902 0.71653 0.4067 0.0
H1094 H 0.55757 0.69752 0.3782 0.0
C1095 C 0.52541 0.63037 0.32186 0.0
C1096 C 0.53624 0.65562 0.39604 0.0
H1097 H 0.53294 0.67452 0.457 0.0
C1098 C 0.54747 0.66254 0.38408 0.0
C1099 C 0.53088 0.66001 0.42219 0.0
C1100 C 0.51871 0.6531 0.43455 0.0
C1101 C 0.55356 0.67365 0.39843 0.0
C1102 C 0.54823 0.67802 0.42487 0.0
C1103 C 0.53698 0.67114 0.43661 0.0
C1104 C 0.55437 0.68959 0.44205 0.0
C1105 C 0.56576 0.68052 0.38631 0.0
C1106 C 0.55602 0.69143 0.48746 0.0
C1107 C 0.56251 0.70225 0.50385 0.0
C1108 C 0.56743 0.71145 0.47509 0.0
C1109 C 0.56541 0.70962 0.42969 0.0
C1110 C 0.55891 0.69877 0.41333 0.0
H1111 H 0.56917 0.67523 0.37432 0.0
H1112 H 0.56675 0.68644 0.35969 0.0
H1113 H 0.5708 0.68546 0.41492 0.0
H1114 H 0.55255 0.68445 0.51016 0.0
H1115 H 0.56385 0.70338 0.53901 0.0
H1116 H 0.37125 0.90899 0.31155 0.0
H1117 H 0.3523 0.89776 0.33981 0.0
H1118 H 0.36323 0.87982 0.42345 0.0
H1119 H 0.38246 0.89177 0.39765 0.0
H1120 H 0.33769 0.87753 0.33645 0.0
H1121 H 0.34767 0.8872 0.51309 0.0
H1122 H 0.35795 0.89416 0.47071 0.0
H1123 H 0.35466 0.88048 0.48962 0.0
C1124 C 0.3696 0.90268 0.33614 0.0
C1125 C 0.37829 0.90129 0.35277 0.0
C1126 C 0.35875 0.89623 0.35224 0.0
C1127 C 0.35629 0.88804 0.38455 0.0
C1128 C 0.36493 0.88633 0.39982 0.0
H1129 H 0.28433 0.84278 0.43569 0.0
H1130 H 0.30355 0.84994 0.40996 0.0
C1131 C 0.3759 0.89308 0.38478 0.0
C1132 C 0.34467 0.88141 0.40173 0.0
H1133 H 0.32911 0.87361 0.49583 0.0
C1134 C 0.33582 0.87672 0.37135 0.0
C1135 C 0.34217 0.88039 0.44728 0.0
C1136 C 0.35111 0.88592 0.48201 0.0
C1137 C 0.32462 0.87145 0.38496 0.0
C1138 C 0.32212 0.8702 0.43052 0.0
C1139 C 0.33097 0.87451 0.46092 0.0
C1140 C 0.3105 0.8653 0.44764 0.0
C1141 C 0.31568 0.86787 0.35014 0.0
C1142 C 0.30806 0.87118 0.47925 0.0
C1143 C 0.29722 0.86686 0.49533 0.0
C1144 C 0.28852 0.8567 0.47936 0.0
C1145 C 0.2909 0.85072 0.44804 0.0
C1146 C 0.30186 0.85487 0.43303 0.0
H1147 H 0.31912 0.87244 0.31875 0.0
H1148 H 0.31213 0.85884 0.34329 0.0
H1149 H 0.30884 0.86932 0.36094 0.0
H1150 H 0.31452 0.87924 0.49115 0.0
H1151 H 0.29558 0.87165 0.51937 0.0
H1152 H 0.11466 0.27554 0.8238 0.0
H1153 H 0.12221 0.27055 0.88671 0.0
H1154 H 0.09425 0.23693 0.88298 0.0
H1155 H 0.08648 0.24192 0.82 0.0
H1156 H 0.1014 0.24582 0.97015 0.0
H1157 H 0.13641 0.25085 0.86556 0.0
H1158 H 0.13483 0.26297 0.86497 0.0
H1159 H 0.12391 0.24997 0.84309 0.0
C1160 C 0.11001 0.26712 0.8367 0.0
C1161 C 0.10005 0.25908 0.81663 0.0
C1162 C 0.11436 0.26428 0.87254 0.0
C1163 C 0.10893 0.25331 0.88868 0.0
C1164 C 0.09861 0.24541 0.87064 0.0
H1165 H 0.15175 0.23793 0.05077 0.0
H1166 H 0.13748 0.23528 0.99681 0.0
C1167 C 0.09418 0.24829 0.8348 0.0
C1168 C 0.11447 0.25009 0.9226 0.0
H1169 H 0.139 0.2507 0.94331 0.0
C1170 C 0.10955 0.24671 0.96425 0.0
C1171 C 0.12495 0.25097 0.91443 0.0
C1172 C 0.13029 0.25377 0.86944 0.0
C1173 C 0.11519 0.24488 0.99882 0.0
C1174 C 0.12611 0.2467 0.99157 0.0
C1175 C 0.13069 0.2494 0.94912 0.0
C1176 C 0.13338 0.24687 0.02784 0.0
C1177 C 0.10944 0.24111 0.04276 0.0
C1178 C 0.13572 0.25415 0.06352 0.0
C1179 C 0.14379 0.2556 0.0945 0.0
C1180 C 0.14984 0.24997 0.09007 0.0
C1181 C 0.14727 0.24242 0.05505 0.0
C1182 C 0.1391 0.24088 0.02425 0.0
H1183 H 0.10023 0.23614 0.03872 0.0
H1184 H 0.11227 0.236 0.06094 0.0
H1185 H 0.11135 0.24855 0.06288 0.0
H1186 H 0.1317 0.25912 0.06637 0.0
H1187 H 0.14559 0.26152 0.12094 0.0
H1188 H 0.76289 0.91246 0.05504 0.0
H1189 H 0.76464 0.9003 0.00098 0.0
H1190 H 0.74096 0.87132 0.07412 0.0
H1191 H 0.73938 0.88336 0.12884 0.0
H1192 H 0.758 0.86872 0.03807 0.0
H1193 H 0.73911 0.88393 0.91413 0.0
H1194 H 0.75186 0.89462 0.93823 0.0
H1195 H 0.73961 0.88711 0.97185 0.0
C1196 C 0.75818 0.90351 0.05997 0.0
C1197 C 0.75086 0.89888 0.09588 0.0
C1198 C 0.75917 0.89657 0.029 0.0
C1199 C 0.75274 0.88491 0.03308 0.0
C1200 C 0.74596 0.8803 0.07026 0.0
H1201 H 0.72552 0.83636 0.82965 0.0
H1202 H 0.72939 0.84802 0.89475 0.0
C1203 C 0.74504 0.88721 0.10143 0.0
C1204 C 0.75221 0.87747 0.99693 0.0
H1205 H 0.74374 0.8706 0.89052 0.0
C1206 C 0.75496 0.86915 0.00567 0.0
C1207 C 0.74808 0.87798 0.95492 0.0
C1208 C 0.74439 0.88631 0.94415 0.0
C1209 C 0.75355 0.86122 0.97356 0.0
C1210 C 0.74943 0.86177 0.93164 0.0
C1211 C 0.74691 0.87022 0.92274 0.0
C1212 C 0.74701 0.85335 0.89685 0.0
C1213 C 0.75609 0.85212 0.98518 0.0
C1214 C 0.75557 0.85219 0.87724 0.0
C1215 C 0.75334 0.84539 0.84007 0.0
C1216 C 0.74256 0.83984 0.82175 0.0
C1217 C 0.73393 0.8406 0.84283 0.0
C1218 C 0.73612 0.84726 0.88004 0.0
H1219 H 0.75691 0.85148 0.02126 0.0
H1220 H 0.74944 0.84391 0.97268 0.0
H1221 H 0.76408 0.85395 0.96952 0.0
H1222 H 0.76406 0.85694 0.88929 0.0
H1223 H 0.76017 0.84501 0.82429 0.0
H1224 H 0.11698 0.85629 0.12103 0.0
H1225 H 0.12819 0.87027 0.06628 0.0
H1226 H 0.09826 0.86364 0.9969 0.0
H1227 H 0.08693 0.84927 0.05102 0.0
H1228 H 0.1123 0.86255 0.9433 0.0
H1229 H 0.13596 0.90148 0.0382 0.0
H1230 H 0.13763 0.89058 0.06227 0.0
H1231 H 0.12399 0.88929 0.06076 0.0
C1232 C 0.11273 0.85792 0.0946 0.0
C1233 C 0.10105 0.8516 0.09026 0.0
C1234 C 0.11918 0.86604 0.0635 0.0
C1235 C 0.11409 0.86818 0.02781 0.0
C1236 C 0.10238 0.86219 0.02433 0.0
H1237 H 0.15466 0.9154 0.81845 0.0
H1238 H 0.14234 0.90752 0.88266 0.0
C1239 C 0.09591 0.85396 0.05523 0.0
C1240 C 0.12105 0.87552 0.99139 0.0
H1241 H 0.14449 0.90051 0.96938 0.0
C1242 C 0.11919 0.87093 0.94897 0.0
C1243 C 0.12999 0.88653 0.99844 0.0
C1244 C 0.13192 0.89228 0.04234 0.0
C1245 C 0.12637 0.87677 0.91407 0.0
C1246 C 0.13584 0.88737 0.922 0.0
C1247 C 0.13735 0.89228 0.96366 0.0
C1248 C 0.14447 0.89308 0.88771 0.0
C1249 C 0.12383 0.87143 0.8691 0.0
C1250 C 0.15013 0.88785 0.87085 0.0
C1251 C 0.15706 0.89225 0.8343 0.0
C1252 C 0.1586 0.90208 0.81426 0.0
C1253 C 0.15362 0.90781 0.83325 0.0
C1254 C 0.14657 0.90331 0.86978 0.0
H1255 H 0.11483 0.86515 0.86551 0.0
H1256 H 0.12622 0.87778 0.84274 0.0
H1257 H 0.12865 0.86706 0.86433 0.0
H1258 H 0.14881 0.88008 0.88492 0.0
H1259 H 0.16089 0.88772 0.82073 0.0
H1260 H 0.27248 0.11654 0.69256 0.0
H1261 H 0.26874 0.12357 0.62521 0.0
H1262 H 0.24061 0.09095 0.59794 0.0
H1263 H 0.24417 0.08382 0.66649 0.0
H1264 H 0.26792 0.11751 0.53917 0.0
H1265 H 0.22673 0.11104 0.5949 0.0
H1266 H 0.23635 0.10996 0.63189 0.0
H1267 H 0.22829 0.09889 0.59374 0.0
C1268 C 0.26552 0.1108 0.67224 0.0
C1269 C 0.25856 0.09964 0.68509 0.0
C1270 C 0.26341 0.11484 0.63364 0.0
C1271 C 0.2543 0.10783 0.60691 0.0
C1272 C 0.24756 0.09655 0.61858 0.0
H1273 H 0.25202 0.13933 0.35886 0.0
H1274 H 0.2505 0.12493 0.40966 0.0
C1275 C 0.24965 0.09248 0.65752 0.0
C1276 C 0.2519 0.11266 0.56773 0.0
H1277 H 0.23363 0.12034 0.5277 0.0
C1278 C 0.26036 0.118 0.53621 0.0
C1279 C 0.24206 0.11335 0.56434 0.0
C1280 C 0.23284 0.10809 0.59809 0.0
C1281 C 0.2595 0.12446 0.50255 0.0
C1282 C 0.24975 0.12534 0.49958 0.0
C1283 C 0.24107 0.1196 0.52998 0.0
C1284 C 0.2489 0.13303 0.46785 0.0
C1285 C 0.26936 0.13083 0.47221 0.0
C1286 C 0.24781 0.142 0.48341 0.0
C1287 C 0.24848 0.15015 0.45438 0.0
C1288 C 0.25033 0.1495 0.40932 0.0
C1289 C 0.25076 0.14016 0.39352 0.0
C1290 C 0.24994 0.13194 0.4225 0.0
H1291 H 0.27707 0.13124 0.48521 0.0
H1292 H 0.26749 0.12658 0.43981 0.0
H1293 H 0.27105 0.13949 0.46701 0.0
H1294 H 0.24694 0.14297 0.5183 0.0
H1295 H 0.24809 0.15723 0.46755 0.0
H1296 H 0.84873 0.08783 0.44721 0.0
H1297 H 0.86257 0.09965 0.50215 0.0
H1298 H 0.86947 0.12899 0.42781 0.0
H1299 H 0.85594 0.11729 0.37226 0.0
H1300 H 0.88855 0.13077 0.465 0.0
H1301 H 0.8543 0.11694 0.58767 0.0
H1302 H 0.85591 0.10589 0.56433 0.0
H1303 H 0.85165 0.11369 0.52998 0.0
C1304 C 0.8533 0.09679 0.44227 0.0
C1305 C 0.8511 0.10162 0.4057 0.0
C1306 C 0.86118 0.10353 0.47374 0.0
C1307 C 0.86687 0.11521 0.46949 0.0
C1308 C 0.86515 0.12 0.43181 0.0
H1309 H 0.88928 0.16418 0.67145 0.0
H1310 H 0.88126 0.15239 0.60682 0.0
C1311 C 0.85736 0.11328 0.40018 0.0
C1312 C 0.87387 0.12253 0.50572 0.0
H1313 H 0.87239 0.12983 0.6116 0.0
C1314 C 0.88507 0.13054 0.4972 0.0
C1315 C 0.86923 0.1223 0.54747 0.0
C1316 C 0.8571 0.11432 0.55797 0.0
C1317 C 0.89172 0.13842 0.52921 0.0
C1318 C 0.88705 0.13816 0.57086 0.0
C1319 C 0.87594 0.13 0.5796 0.0
C1320 C 0.89318 0.14659 0.60544 0.0
C1321 C 0.9035 0.14721 0.5177 0.0
C1322 C 0.9028 0.14754 0.62529 0.0
C1323 C 0.9075 0.15442 0.66214 0.0
C1324 C 0.90253 0.16027 0.67994 0.0
C1325 C 0.89325 0.15971 0.65865 0.0
C1326 C 0.88865 0.15297 0.62173 0.0
H1327 H 0.905 0.14777 0.48165 0.0
H1328 H 0.90537 0.15554 0.52998 0.0
H1329 H 0.90943 0.14509 0.5336 0.0
H1330 H 0.90633 0.14256 0.61368 0.0
H1331 H 0.91462 0.15464 0.67812 0.0
H1332 H 0.8425 0.75985 0.67022 0.0
H1333 H 0.85292 0.76428 0.60064 0.0
H1334 H 0.85531 0.73447 0.61355 0.0
H1335 H 0.84489 0.72995 0.6821 0.0
H1336 H 0.87451 0.76821 0.5904 0.0
H1337 H 0.84564 0.73268 0.48647 0.0
H1338 H 0.84117 0.73635 0.53644 0.0
H1339 H 0.84773 0.72791 0.53852 0.0
C1340 C 0.84506 0.75414 0.65767 0.0
C1341 C 0.84287 0.74454 0.68161 0.0
C1342 C 0.85103 0.7567 0.61807 0.0
C1343 C 0.85475 0.74962 0.60165 0.0
C1344 C 0.85231 0.73992 0.62504 0.0
H1345 H 0.91093 0.75663 0.46785 0.0
H1346 H 0.89809 0.75856 0.51734 0.0
C1347 C 0.84641 0.73739 0.66446 0.0
C1348 C 0.86196 0.75265 0.56216 0.0
H1349 H 0.8653 0.7413 0.46797 0.0
C1350 C 0.87242 0.76247 0.56304 0.0
C1351 C 0.85915 0.74527 0.52609 0.0
C1352 C 0.84775 0.73503 0.52156 0.0
C1353 C 0.88046 0.76467 0.53043 0.0
C1354 C 0.87803 0.75672 0.49673 0.0
C1355 C 0.86727 0.74733 0.49413 0.0
C1356 C 0.88669 0.75738 0.46599 0.0
C1357 C 0.89152 0.77539 0.53295 0.0
C1358 C 0.88459 0.75607 0.4206 0.0
C1359 C 0.89181 0.75475 0.39237 0.0
C1360 C 0.90131 0.75475 0.40895 0.0
C1361 C 0.90374 0.75667 0.45403 0.0
C1362 C 0.89643 0.75786 0.48235 0.0
H1363 H 0.89059 0.78211 0.54894 0.0
H1364 H 0.89739 0.774 0.55324 0.0
H1365 H 0.89525 0.77829 0.49984 0.0
H1366 H 0.87712 0.75565 0.40722 0.0
H1367 H 0.88974 0.75335 0.35773 0.0
H1368 H 0.84693 0.75613 0.96744 0.0
H1369 H 0.86161 0.75796 0.01722 0.0
H1370 H 0.8796 0.75469 0.90762 0.0
H1371 H 0.86477 0.7525 0.85783 0.0
H1372 H 0.87692 0.7404 0.9691 0.0
H1373 H 0.89276 0.78149 0.0482 0.0
H1374 H 0.87785 0.77346 0.05253 0.0
H1375 H 0.88429 0.77759 0.99908 0.0
C1376 C 0.85413 0.75606 0.95379 0.0
C1377 C 0.85465 0.75409 0.90877 0.0
C1378 C 0.86258 0.75719 0.98228 0.0
C1379 C 0.8718 0.7566 0.96614 0.0
C1380 C 0.87259 0.75521 0.92082 0.0
H1381 H 0.91869 0.75947 0.17002 0.0
H1382 H 0.91257 0.76368 0.10029 0.0
C1383 C 0.8641 0.75394 0.89243 0.0
C1384 C 0.87976 0.75595 0.99707 0.0
H1385 H 0.89495 0.76768 0.09016 0.0
C1386 C 0.88106 0.74651 0.99497 0.0
C1387 C 0.88537 0.764 0.03038 0.0
C1388 C 0.88509 0.77476 0.03236 0.0
C1389 C 0.88713 0.74451 0.02705 0.0
C1390 C 0.8918 0.752 0.06272 0.0
C1391 C 0.89122 0.76185 0.06311 0.0
C1392 C 0.89605 0.74908 0.1023 0.0
C1393 C 0.8882 0.7342 0.02307 0.0
C1394 C 0.88881 0.73949 0.1263 0.0
C1395 C 0.89226 0.73708 0.16582 0.0
C1396 C 0.90301 0.74426 0.18244 0.0
C1397 C 0.91038 0.75375 0.15789 0.0
C1398 C 0.9069 0.75618 0.11819 0.0
H1399 H 0.88786 0.73171 0.98811 0.0
H1400 H 0.89612 0.73553 0.03778 0.0
H1401 H 0.88112 0.72717 0.04049 0.0
H1402 H 0.88033 0.73403 0.11521 0.0
H1403 H 0.88635 0.72973 0.18394 0.0
H1404 H 0.25793 0.11509 0.87655 0.0
H1405 H 0.25599 0.12669 0.93205 0.0
H1406 H 0.23506 0.0974 0.00957 0.0
H1407 H 0.23727 0.08568 0.95464 0.0
H1408 H 0.23914 0.12827 0.97153 0.0
H1409 H 0.26089 0.1154 0.09188 0.0
H1410 H 0.25981 0.11182 0.03444 0.0
H1411 H 0.24808 0.10417 0.07052 0.0
C1412 C 0.2528 0.11105 0.90513 0.0
C1413 C 0.24793 0.09946 0.91157 0.0
C1414 C 0.25166 0.11772 0.93677 0.0
C1415 C 0.24558 0.11295 0.97538 0.0
C1416 C 0.24002 0.10129 0.98047 0.0
H1417 H 0.23975 0.15434 0.18293 0.0
H1418 H 0.23507 0.14172 0.11973 0.0
C1419 C 0.24125 0.09459 0.94899 0.0
C1420 C 0.24604 0.12035 0.0116 0.0
H1421 H 0.25594 0.12844 0.11579 0.0
C1422 C 0.24272 0.12827 0.00326 0.0
C1423 C 0.25087 0.12042 0.05272 0.0
C1424 C 0.25522 0.11258 0.06297 0.0
C1425 C 0.24434 0.13643 0.03462 0.0
C1426 C 0.24922 0.1365 0.07556 0.0
C1427 C 0.25221 0.12837 0.08431 0.0
C1428 C 0.25204 0.14528 0.10917 0.0
C1429 C 0.24127 0.14516 0.02302 0.0
C1430 C 0.26312 0.1516 0.12372 0.0
C1431 C 0.26576 0.15863 0.16001 0.0
C1432 C 0.25738 0.15957 0.18228 0.0
C1433 C 0.24638 0.15383 0.16607 0.0
C1434 C 0.24371 0.14663 0.12994 0.0
H1435 H 0.23998 0.14544 0.98708 0.0
H1436 H 0.23338 0.14317 0.03997 0.0
H1437 H 0.24785 0.15356 0.03403 0.0
H1438 H 0.26969 0.15073 0.10806 0.0
H1439 H 0.27431 0.163 0.17165 0.0
H1440 H 0.84445 0.08564 0.1743 0.0
H1441 H 0.85673 0.09327 0.10982 0.0
H1442 H 0.85145 0.12148 0.10899 0.0
H1443 H 0.83938 0.11407 0.17328 0.0
H1444 H 0.85433 0.10085 0.02265 0.0
H1445 H 0.88557 0.13493 0.1277 0.0
H1446 H 0.87397 0.12239 0.15012 0.0
H1447 H 0.87196 0.13354 0.13054 0.0
C1448 C 0.84575 0.09336 0.15981 0.0
C1449 C 0.8411 0.09934 0.17918 0.0
C1450 C 0.85277 0.0977 0.12309 0.0
C1451 C 0.85516 0.10804 0.10538 0.0
C1452 C 0.84987 0.1136 0.12279 0.0
H1453 H 0.88393 0.14577 0.87433 0.0
H1454 H 0.87207 0.13177 0.92807 0.0
C1455 C 0.84296 0.10933 0.15946 0.0
C1456 C 0.86374 0.11355 0.0708 0.0
H1457 H 0.88804 0.1377 0.05012 0.0
C1458 C 0.86179 0.10883 0.02863 0.0
C1459 C 0.87359 0.12381 0.07904 0.0
C1460 C 0.87648 0.12892 0.12442 0.0
C1461 C 0.86917 0.11448 0.99374 0.0
C1462 C 0.87857 0.12518 0.00129 0.0
C1463 C 0.8808 0.12955 0.04412 0.0
C1464 C 0.88576 0.13244 0.96519 0.0
C1465 C 0.86675 0.10896 0.94919 0.0
C1466 C 0.89745 0.1376 0.96823 0.0
C1467 C 0.90428 0.14581 0.93797 0.0
C1468 C 0.89955 0.149 0.90401 0.0
C1469 C 0.88785 0.14348 0.89996 0.0
C1470 C 0.88104 0.13537 0.93047 0.0
H1471 H 0.86209 0.09971 0.95232 0.0
H1472 H 0.86145 0.11139 0.93014 0.0
H1473 H 0.87455 0.11151 0.93041 0.0
H1474 H 0.90128 0.13552 0.9949 0.0
H1475 H 0.91326 0.14985 0.94189 0.0
H1476 H 0.72499 0.88818 0.32805 0.0
H1477 H 0.72862 0.88035 0.39361 0.0
H1478 H 0.76329 0.90615 0.39006 0.0
H1479 H 0.75963 0.91424 0.32468 0.0
H1480 H 0.74279 0.87207 0.39099 0.0
H1481 H 0.75588 0.90442 0.52128 0.0
H1482 H 0.74867 0.90463 0.47206 0.0
H1483 H 0.7633 0.90912 0.47009 0.0
C1484 C 0.73334 0.89235 0.34176 0.0
C1485 C 0.74204 0.90178 0.32112 0.0
C1486 C 0.7354 0.88786 0.37922 0.0
C1487 C 0.74622 0.89266 0.39674 0.0
C1488 C 0.75485 0.90241 0.37752 0.0
H1489 H 0.76245 0.84977 0.55516 0.0
H1490 H 0.7639 0.86353 0.50095 0.0
C1491 C 0.75275 0.907 0.34011 0.0
C1492 C 0.74853 0.88664 0.43182 0.0
H1493 H 0.75715 0.88835 0.53825 0.0
C1494 C 0.74597 0.87564 0.42315 0.0
C1495 C 0.75266 0.89134 0.47372 0.0
C1496 C 0.75521 0.90299 0.48518 0.0
C1497 C 0.74714 0.86908 0.45546 0.0
C1498 C 0.75133 0.87377 0.49735 0.0
C1499 C 0.75407 0.88484 0.50593 0.0
C1500 C 0.75198 0.86692 0.53347 0.0
C1501 C 0.74344 0.85705 0.44491 0.0
C1502 C 0.74528 0.86474 0.5709 0.0
C1503 C 0.74452 0.85699 0.60214 0.0
C1504 C 0.75043 0.85124 0.59644 0.0
C1505 C 0.75767 0.85394 0.56024 0.0
C1506 C 0.75849 0.86178 0.52918 0.0
H1507 H 0.73808 0.8541 0.41508 0.0
H1508 H 0.75089 0.85621 0.43874 0.0
H1509 H 0.73872 0.8515 0.4728 0.0
H1510 H 0.74022 0.86865 0.57493 0.0
H1511 H 0.73892 0.85517 0.62979 0.0
H1512 H 0.11591 0.84265 0.31533 0.0
H1513 H 0.12185 0.85307 0.38381 0.0
H1514 H 0.08939 0.84996 0.39885 0.0
H1515 H 0.08337 0.83959 0.32921 0.0
H1516 H 0.10633 0.87143 0.41012 0.0
H1517 H 0.11484 0.84329 0.51039 0.0
H1518 H 0.12171 0.84582 0.45819 0.0
H1519 H 0.10668 0.83871 0.46051 0.0
C1520 C 0.10994 0.84401 0.33339 0.0
C1521 C 0.09916 0.84028 0.31681 0.0
C1522 C 0.11334 0.84992 0.37281 0.0
C1523 C 0.10601 0.85213 0.39686 0.0
C1524 C 0.09514 0.84825 0.38094 0.0
H1525 H 0.13744 0.88714 0.6408 0.0
H1526 H 0.12268 0.8741 0.59169 0.0
C1527 C 0.09171 0.84231 0.34127 0.0
C1528 C 0.11017 0.85927 0.43657 0.0
H1529 H 0.12545 0.86298 0.52937 0.0
C1530 C 0.1103 0.86949 0.43677 0.0
C1531 C 0.11513 0.85666 0.47183 0.0
C1532 C 0.11447 0.84546 0.47547 0.0
C1533 C 0.116 0.87751 0.46961 0.0
C1534 C 0.12194 0.87533 0.50234 0.0
C1535 C 0.12107 0.86477 0.50391 0.0
C1536 C 0.12981 0.88407 0.53311 0.0
C1537 C 0.11573 0.88828 0.46836 0.0
C1538 C 0.13864 0.89415 0.51676 0.0
C1539 C 0.14702 0.9017 0.54489 0.0
C1540 C 0.14686 0.89919 0.58974 0.0
C1541 C 0.13782 0.88929 0.60633 0.0
C1542 C 0.12937 0.88183 0.57831 0.0
H1543 H 0.10783 0.88699 0.45344 0.0
H1544 H 0.11658 0.89186 0.50177 0.0
H1545 H 0.12272 0.89443 0.44766 0.0
H1546 H 0.13936 0.89595 0.48188 0.0
H1547 H 0.15392 0.90921 0.53106 0.0
H1548 H 0.11779 0.26328 0.62303 0.0
H1549 H 0.12946 0.26154 0.56714 0.0
H1550 H 0.10004 0.23857 0.4944 0.0
H1551 H 0.08824 0.24053 0.54969 0.0
H1552 H 0.13152 0.24444 0.53099 0.0
H1553 H 0.11674 0.26371 0.40701 0.0
H1554 H 0.11358 0.26328 0.46472 0.0
H1555 H 0.10592 0.25104 0.43113 0.0
C1556 C 0.11376 0.25777 0.59538 0.0
C1557 C 0.10207 0.25219 0.59043 0.0
C1558 C 0.12046 0.25675 0.56354 0.0
C1559 C 0.11563 0.2501 0.52622 0.0
C1560 C 0.10394 0.24395 0.52251 0.0
H1561 H 0.1555 0.24191 0.31902 0.0
H1562 H 0.14343 0.23819 0.38343 0.0
C1563 C 0.09721 0.24505 0.55418 0.0
C1564 C 0.12292 0.25041 0.48986 0.0
H1565 H 0.12983 0.25876 0.38334 0.0
C1566 C 0.13112 0.24749 0.49857 0.0
C1567 C 0.12247 0.25455 0.44781 0.0
C1568 C 0.11428 0.25843 0.43705 0.0
C1569 C 0.13901 0.24878 0.46649 0.0
C1570 C 0.13854 0.25292 0.42452 0.0
C1571 C 0.13017 0.25558 0.41559 0.0
C1572 C 0.14694 0.25524 0.38976 0.0
C1573 C 0.14803 0.24612 0.47827 0.0
C1574 C 0.15301 0.26607 0.37234 0.0
C1575 C 0.15973 0.26816 0.33539 0.0
C1576 C 0.1606 0.25949 0.31524 0.0
C1577 C 0.15504 0.24877 0.33413 0.0
C1578 C 0.14817 0.24664 0.37097 0.0
H1579 H 0.14875 0.24548 0.51441 0.0
H1580 H 0.146 0.238 0.46337 0.0
H1581 H 0.15625 0.2526 0.46521 0.0
H1582 H 0.15221 0.27284 0.38642 0.0
H1583 H 0.16396 0.27652 0.32172 0.0
H1584 H 0.8181 0.57101 0.37931 0.0
H1585 H 0.80426 0.56884 0.32406 0.0
H1586 H 0.79694 0.59102 0.39814 0.0
H1587 H 0.8104 0.59293 0.45402 0.0
H1588 H 0.77814 0.57409 0.36048 0.0
H1589 H 0.81257 0.59416 0.23834 0.0
H1590 H 0.81075 0.58142 0.26152 0.0
H1591 H 0.81513 0.59348 0.29602 0.0
C1592 C 0.81342 0.57529 0.38413 0.0
C1593 C 0.81549 0.58228 0.4207 0.0
C1594 C 0.80555 0.57407 0.35247 0.0
C1595 C 0.79976 0.57998 0.35651 0.0
C1596 C 0.80133 0.58642 0.39426 0.0
H1597 H 0.77869 0.60747 0.15389 0.0
H1598 H 0.78641 0.60335 0.21858 0.0
C1599 C 0.80909 0.58754 0.42611 0.0
C1600 C 0.79285 0.58034 0.31999 0.0
H1601 H 0.79459 0.58926 0.21419 0.0
C1602 C 0.78168 0.57733 0.32833 0.0
C1603 C 0.79756 0.58472 0.27831 0.0
C1604 C 0.80968 0.58873 0.26796 0.0
C1605 C 0.77518 0.57879 0.29634 0.0
C1606 C 0.77993 0.58319 0.25479 0.0
C1607 C 0.79098 0.58589 0.24613 0.0
C1608 C 0.77399 0.58577 0.22028 0.0
C1609 C 0.76346 0.57605 0.30784 0.0
C1610 C 0.76418 0.57732 0.20066 0.0
C1611 C 0.75963 0.57971 0.16387 0.0
C1612 C 0.76496 0.59053 0.14587 0.0
C1613 C 0.77445 0.59904 0.1669 0.0
C1614 C 0.77887 0.59669 0.20383 0.0
H1615 H 0.76198 0.57518 0.34391 0.0
H1616 H 0.76176 0.5826 0.29538 0.0
H1617 H 0.75742 0.56801 0.29218 0.0
H1618 H 0.76037 0.56879 0.21236 0.0
H1619 H 0.75236 0.57298 0.14802 0.0
H1620 H 0.39416 0.17319 0.15919 0.0
H1621 H 0.39951 0.18574 0.2222 0.0
H1622 H 0.43304 0.19121 0.21543 0.0
H1623 H 0.42768 0.17843 0.15231 0.0
H1624 H 0.4245 0.18964 0.30369 0.0
H1625 H 0.41939 0.21962 0.19947 0.0
H1626 H 0.40722 0.20595 0.19943 0.0
H1627 H 0.42012 0.20792 0.17692 0.0
C1628 C 0.40264 0.17691 0.17147 0.0
C1629 C 0.41055 0.17495 0.15048 0.0
C1630 C 0.40569 0.18411 0.20738 0.0
C1631 C 0.41673 0.1896 0.22267 0.0
C1632 C 0.4245 0.18711 0.20376 0.0
H1633 H 0.43218 0.24789 0.38391 0.0
H1634 H 0.43504 0.23635 0.3303 0.0
C1635 C 0.42141 0.1798 0.16785 0.0
C1636 C 0.42016 0.19843 0.2564 0.0
H1637 H 0.41973 0.22243 0.27724 0.0
C1638 C 0.42364 0.19691 0.29787 0.0
C1639 C 0.41934 0.20806 0.24831 0.0
C1640 C 0.41643 0.21057 0.20347 0.0
C1641 C 0.4256 0.20444 0.3324 0.0
C1642 C 0.42379 0.21354 0.32531 0.0
C1643 C 0.42102 0.21541 0.28297 0.0
C1644 C 0.42364 0.22063 0.36167 0.0
C1645 C 0.42947 0.20247 0.37615 0.0
C1646 C 0.41642 0.21567 0.39751 0.0
C1647 C 0.41486 0.22224 0.42833 0.0
C1648 C 0.4203 0.23392 0.42352 0.0
C1649 C 0.42782 0.23892 0.38845 0.0
C1650 C 0.42948 0.23233 0.35785 0.0
H1651 H 0.43449 0.19829 0.37178 0.0
H1652 H 0.43456 0.21041 0.39435 0.0
H1653 H 0.42207 0.19688 0.3964 0.0
H1654 H 0.41155 0.20667 0.40056 0.0
H1655 H 0.40896 0.21809 0.45482 0.0
H1656 H 0.82164 0.24713 0.15242 0.0
H1657 H 0.80961 0.23894 0.21707 0.0
H1658 H 0.81939 0.21384 0.22429 0.0
H1659 H 0.83113 0.22177 0.15945 0.0
H1660 H 0.79682 0.20501 0.21936 0.0
H1661 H 0.81478 0.23764 0.34922 0.0
H1662 H 0.81216 0.24207 0.29719 0.0
H1663 H 0.82257 0.23797 0.30099 0.0
C1664 C 0.82142 0.24004 0.16853 0.0
C1665 C 0.82724 0.23502 0.15076 0.0
C1666 C 0.81457 0.23538 0.20551 0.0
C1667 C 0.81362 0.22579 0.2255 0.0
C1668 C 0.81997 0.22122 0.20927 0.0
H1669 H 0.78396 0.18843 0.45826 0.0
H1670 H 0.79578 0.20203 0.40312 0.0
C1671 C 0.82668 0.22577 0.17223 0.0
C1672 C 0.80517 0.21967 0.26007 0.0
H1673 H 0.79774 0.22123 0.36581 0.0
C1674 C 0.79699 0.20858 0.25134 0.0
C1675 C 0.80543 0.22436 0.30169 0.0
C1676 C 0.81425 0.23613 0.31318 0.0
C1677 C 0.78925 0.2019 0.28341 0.0
C1678 C 0.78947 0.20655 0.3251 0.0
C1679 C 0.79751 0.21774 0.33364 0.0
C1680 C 0.78209 0.19957 0.36124 0.0
C1681 C 0.78124 0.18977 0.27291 0.0
C1682 C 0.77042 0.19396 0.35677 0.0
C1683 C 0.7636 0.18604 0.38801 0.0
C1684 C 0.76835 0.18372 0.42455 0.0
C1685 C 0.78001 0.18993 0.43035 0.0
C1686 C 0.7868 0.19776 0.39895 0.0
H1687 H 0.78385 0.18695 0.24328 0.0
H1688 H 0.78056 0.18431 0.30094 0.0
H1689 H 0.77283 0.18862 0.26643 0.0
H1690 H 0.7666 0.19541 0.32833 0.0
H1691 H 0.75465 0.18151 0.38285 0.0
H1692 H 0.90407 0.48369 0.78333 0.0
H1693 H 0.90218 0.46982 0.83791 0.0
H1694 H 0.92382 0.4624 0.76057 0.0
H1695 H 0.92547 0.47592 0.70536 0.0
H1696 H 0.90698 0.44358 0.80019 0.0
H1697 H 0.92837 0.47839 0.91992 0.0
H1698 H 0.9155 0.47665 0.89843 0.0
H1699 H 0.92724 0.48078 0.86238 0.0
C1700 C 0.90828 0.47897 0.7776 0.0
C1701 C 0.91507 0.48105 0.74036 0.0
C1702 C 0.90722 0.47108 0.80888 0.0
C1703 C 0.91307 0.46528 0.80376 0.0
C1704 C 0.91927 0.46682 0.76527 0.0
H1705 H 0.94135 0.44415 0.00375 0.0
H1706 H 0.9371 0.45175 0.93899 0.0
C1707 C 0.92023 0.4746 0.73381 0.0
C1708 C 0.9137 0.45844 0.84 0.0
H1709 H 0.9234 0.46043 0.94466 0.0
C1710 C 0.91049 0.44722 0.83194 0.0
C1711 C 0.91846 0.46327 0.88111 0.0
C1712 C 0.92269 0.47545 0.89102 0.0
C1713 C 0.91207 0.44074 0.86376 0.0
C1714 C 0.91681 0.4456 0.90481 0.0
C1715 C 0.91976 0.45673 0.91311 0.0
C1716 C 0.91942 0.43965 0.93919 0.0
C1717 C 0.90905 0.42893 0.85265 0.0
C1718 C 0.91094 0.43006 0.9599 0.0
C1719 C 0.91339 0.42559 0.99677 0.0
C1720 C 0.92431 0.43078 0.01375 0.0
C1721 C 0.93285 0.44002 0.99156 0.0
C1722 C 0.93043 0.44438 0.95458 0.0
H1723 H 0.90791 0.42732 0.8167 0.0
H1724 H 0.91559 0.42712 0.86442 0.0
H1725 H 0.90109 0.42304 0.86921 0.0
H1726 H 0.90236 0.42639 0.94903 0.0
H1727 H 0.90665 0.41851 0.01348 0.0
H1728 H 0.5847 0.49338 -0.00027 0.0
H1729 H 0.57872 0.48309 0.92989 0.0
H1730 H 0.54642 0.48041 0.94389 0.0
H1731 H 0.55232 0.49072 0.01261 0.0
H1732 H 0.56148 0.46161 0.91901 0.0
H1733 H 0.55376 0.49006 0.81709 0.0
H1734 H 0.56193 0.49461 0.86698 0.0
H1735 H 0.5469 0.48777 0.86923 0.0
C1736 C 0.57641 0.49078 0.98737 0.0
C1737 C 0.56899 0.49287 0.01165 0.0
C1738 C 0.573 0.48489 0.94759 0.0
C1739 C 0.56219 0.48113 0.93137 0.0
C1740 C 0.55489 0.48345 0.95516 0.0
H1741 H 0.51331 0.42436 0.80006 0.0
H1742 H 0.52817 0.43752 0.84839 0.0
C1743 C 0.55826 0.48929 0.99471 0.0
C1744 C 0.55799 0.47395 0.89179 0.0
H1745 H 0.54279 0.47033 0.79883 0.0
C1746 C 0.55761 0.46361 0.89213 0.0
C1747 C 0.55316 0.47663 0.85626 0.0
C1748 C 0.55407 0.48793 0.85212 0.0
C1749 C 0.55176 0.45554 0.85962 0.0
C1750 C 0.54594 0.4578 0.82665 0.0
C1751 C 0.54708 0.46848 0.82447 0.0
C1752 C 0.53787 0.44905 0.79641 0.0
C1753 C 0.55171 0.44462 0.86152 0.0
C1754 C 0.5383 0.45113 0.75107 0.0
C1755 C 0.52968 0.44372 0.72351 0.0
C1756 C 0.52047 0.43405 0.74073 0.0
C1757 C 0.52032 0.43169 0.78574 0.0
C1758 C 0.52888 0.43918 0.81339 0.0
H1759 H 0.55955 0.44576 0.87649 0.0
H1760 H 0.54467 0.43865 0.88248 0.0
H1761 H 0.55075 0.4409 0.82832 0.0
H1762 H 0.54512 0.45869 0.73721 0.0
H1763 H 0.53007 0.44574 0.6889 0.0
H1764 H 0.55145 0.07363 0.71397 0.0
H1765 H 0.54027 0.0764 0.76885 0.0
H1766 H 0.57019 0.09915 0.83954 0.0
H1767 H 0.58148 0.09612 0.78526 0.0
H1768 H 0.55585 0.08387 0.89226 0.0
H1769 H 0.53298 0.10016 0.79795 0.0
H1770 H 0.53118 0.08761 0.77316 0.0
H1771 H 0.54491 0.09981 0.77559 0.0
C1772 C 0.55571 0.07939 0.74073 0.0
C1773 C 0.56738 0.0846 0.74537 0.0
C1774 C 0.54928 0.08106 0.77191 0.0
C1775 C 0.55438 0.08814 0.80798 0.0
C1776 C 0.56607 0.09371 0.8118 0.0
H1777 H 0.51372 0.09482 0.01681 0.0
H1778 H 0.52631 0.09935 0.95346 0.0
C1779 C 0.57252 0.09195 0.78082 0.0
C1780 C 0.5474 0.08851 0.84434 0.0
H1781 H 0.5242 0.09049 0.86618 0.0
C1782 C 0.54907 0.08554 0.88661 0.0
C1783 C 0.53863 0.09083 0.83731 0.0
C1784 C 0.53691 0.0949 0.79359 0.0
C1785 C 0.54186 0.0842 0.92135 0.0
C1786 C 0.53254 0.08558 0.91338 0.0
C1787 C 0.53122 0.08921 0.87191 0.0
C1788 C 0.52385 0.08267 0.94736 0.0
C1789 C 0.54417 0.08111 0.96617 0.0
C1790 C 0.51793 0.0717 0.96339 0.0
C1791 C 0.51084 0.06912 -0.00054 0.0
C1792 C 0.50941 0.07744 0.01985 0.0
C1793 C 0.51468 0.08825 0.00175 0.0
C1794 C 0.52189 0.09086 0.9657 0.0
H1795 H 0.55313 0.08364 0.97002 0.0
H1796 H 0.54184 0.08507 0.99274 0.0
H1797 H 0.53918 0.07191 0.97033 0.0
H1798 H 0.51914 0.06521 0.94899 0.0
H1799 H 0.50678 0.06068 0.01231 0.0
H1800 H 0.5194 0.09864 0.27978 0.0
H1801 H 0.53372 0.1011 0.33309 0.0
H1802 H 0.53726 0.07529 0.26822 0.0
H1803 H 0.52332 0.07305 0.21418 0.0
H1804 H 0.53145 0.08593 0.38935 0.0
H1805 H 0.56932 0.09709 0.29233 0.0
H1806 H 0.55762 0.09781 0.26973 0.0
H1807 H 0.55762 0.08477 0.2704 0.0
C1808 C 0.52341 0.09366 0.27634 0.0
C1809 C 0.52018 0.08561 0.24286 0.0
C1810 C 0.53161 0.09509 0.30676 0.0
C1811 C 0.53671 0.08849 0.30437 0.0
C1812 C 0.53373 0.08072 0.2701 0.0
H1813 H 0.55375 0.05994 0.51385 0.0
H1814 H 0.54664 0.06491 0.44949 0.0
C1815 C 0.52564 0.07936 0.23943 0.0
C1816 C 0.54391 0.08859 0.34076 0.0
H1817 H 0.56789 0.08806 0.36284 0.0
C1818 C 0.53952 0.08664 0.38355 0.0
C1819 C 0.55451 0.08962 0.3335 0.0
C1820 C 0.56008 0.09257 0.28902 0.0
C1821 C 0.54512 0.08505 0.41871 0.0
C1822 C 0.55524 0.08514 0.41074 0.0
C1823 C 0.56 0.08777 0.36862 0.0
C1824 C 0.56051 0.08183 0.44547 0.0
C1825 C 0.54 0.08304 0.46403 0.0
C1826 C 0.57098 0.08953 0.46294 0.0
C1827 C 0.57515 0.08667 0.49968 0.0
C1828 C 0.56886 0.07609 0.51929 0.0
C1829 C 0.55873 0.0682 0.49983 0.0
C1830 C 0.55463 0.07103 0.46314 0.0
H1831 H 0.53425 0.08644 0.46708 0.0
H1832 H 0.53509 0.07391 0.47026 0.0
H1833 H 0.54654 0.08689 0.48979 0.0
H1834 H 0.57567 0.09788 0.44946 0.0
H1835 H 0.58299 0.0929 0.51397 0.0
H1836 H 0.92769 0.44971 0.20618 0.0
H1837 H 0.92583 0.46157 0.26091 0.0
H1838 H 0.9019 0.43235 0.33224 0.0
H1839 H 0.90395 0.42037 0.2782 0.0
H1840 H 0.90875 0.46412 0.29622 0.0
H1841 H 0.92701 0.44837 0.4207 0.0
H1842 H 0.92671 0.44534 0.36291 0.0
H1843 H 0.91432 0.4378 0.39581 0.0
C1844 C 0.92192 0.44577 0.23318 0.0
C1845 C 0.91613 0.43409 0.23829 0.0
C1846 C 0.92083 0.45258 0.26435 0.0
C1847 C 0.9139 0.44785 0.30107 0.0
C1848 C 0.90748 0.43617 0.30461 0.0
H1849 H 0.90645 0.48766 0.51051 0.0
H1850 H 0.90253 0.47588 0.445 0.0
C1851 C 0.90865 0.42934 0.27365 0.0
C1852 C 0.9143 0.45517 0.33743 0.0
H1853 H 0.92244 0.46173 0.4443 0.0
C1854 C 0.91166 0.46358 0.32874 0.0
C1855 C 0.91826 0.45452 0.37961 0.0
C1856 C 0.92184 0.4461 0.39039 0.0
C1857 C 0.91305 0.47146 0.36103 0.0
C1858 C 0.91702 0.47078 0.40309 0.0
C1859 C 0.91939 0.46222 0.41197 0.0
C1860 C 0.9195 0.47917 0.43802 0.0
C1861 C 0.91066 0.48067 0.34946 0.0
C1862 C 0.93034 0.48505 0.4553 0.0
C1863 C 0.93255 0.4916 0.49282 0.0
C1864 C 0.92396 0.49249 0.51369 0.0
C1865 C 0.91324 0.48718 0.49486 0.0
C1866 C 0.91099 0.48048 0.4574 0.0
H1867 H 0.90994 0.48139 0.31337 0.0
H1868 H 0.90266 0.47888 0.36484 0.0
H1869 H 0.91734 0.48882 0.36228 0.0
H1870 H 0.93703 0.48419 0.44076 0.0
H1871 H 0.94091 0.49566 0.50642 0.0
H1872 H 0.50695 0.41612 0.49925 0.0
H1873 H 0.51747 0.42269 0.43008 0.0
H1874 H 0.52192 0.45548 0.45273 0.0
H1875 H 0.51132 0.44899 0.52065 0.0
H1876 H 0.51661 0.44875 0.36731 0.0
H1877 H 0.55145 0.44282 0.42619 0.0
H1878 H 0.53773 0.43067 0.42588 0.0
H1879 H 0.54077 0.44199 0.46268 0.0
C1880 C 0.51006 0.42468 0.4891 0.0
C1881 C 0.50837 0.43206 0.51557 0.0
C1882 C 0.51614 0.42845 0.44981 0.0
C1883 C 0.52064 0.43963 0.4367 0.0
C1884 C 0.51856 0.44683 0.46228 0.0
H1885 H 0.57609 0.48879 0.29774 0.0
H1886 H 0.56301 0.4744 0.34816 0.0
C1887 C 0.5125 0.4431 0.50121 0.0
C1888 C 0.52784 0.44418 0.39729 0.0
H1889 H 0.55389 0.45187 0.3584 0.0
C1890 C 0.5247 0.44929 0.36488 0.0
C1891 C 0.53842 0.44493 0.39458 0.0
C1892 C 0.54239 0.43989 0.42924 0.0
C1893 C 0.53204 0.45564 0.33109 0.0
C1894 C 0.54273 0.45662 0.32889 0.0
C1895 C 0.54568 0.45105 0.36009 0.0
C1896 C 0.55133 0.46431 0.29736 0.0
C1897 C 0.52853 0.46182 0.29985 0.0
C1898 C 0.54933 0.46318 0.2519 0.0
C1899 C 0.55671 0.47147 0.22311 0.0
C1900 C 0.56633 0.48094 0.2392 0.0
C1901 C 0.56874 0.48162 0.28435 0.0
C1902 C 0.56128 0.47339 0.31319 0.0
H1903 H 0.52113 0.46216 0.31212 0.0
H1904 H 0.53544 0.4705 0.29452 0.0
H1905 H 0.52629 0.45747 0.26763 0.0
H1906 H 0.54187 0.45608 0.23885 0.0
H1907 H 0.5547 0.47063 0.18837 0.0
H1908 H 0.39298 0.22181 0.65515 0.0
H1909 H 0.39659 0.21386 0.72038 0.0
H1910 H 0.43133 0.23949 0.71661 0.0
H1911 H 0.42766 0.24773 0.65169 0.0
H1912 H 0.41042 0.20534 0.71734 0.0
H1913 H 0.4243 0.23777 0.84767 0.0
H1914 H 0.41719 0.2382 0.79855 0.0
H1915 H 0.43174 0.24236 0.79649 0.0
C1916 C 0.40134 0.22592 0.66881 0.0
C1917 C 0.41006 0.23535 0.64828 0.0
C1918 C 0.40339 0.22136 0.70605 0.0
C1919 C 0.41422 0.22606 0.72336 0.0
C1920 C 0.42287 0.23582 0.70425 0.0
H1921 H 0.42844 0.18168 0.8827 0.0
H1922 H 0.43053 0.19551 0.82756 0.0
C1923 C 0.42078 0.2405 0.66712 0.0
C1924 C 0.4165 0.21996 0.75818 0.0
H1925 H 0.42519 0.22149 0.86436 0.0
C1926 C 0.41369 0.20889 0.74945 0.0
C1927 C 0.42077 0.22462 0.79998 0.0
C1928 C 0.4236 0.23636 0.81156 0.0
C1929 C 0.41468 0.20221 0.7817 0.0
C1930 C 0.41896 0.20684 0.82357 0.0
C1931 C 0.42204 0.21801 0.83207 0.0
C1932 C 0.41927 0.19986 0.85994 0.0
C1933 C 0.41062 0.19009 0.77117 0.0
C1934 C 0.41276 0.19819 0.89758 0.0
C1935 C 0.41167 0.19042 0.92936 0.0
C1936 C 0.41704 0.18412 0.924 0.0
C1937 C 0.42407 0.18627 0.88748 0.0
C1938 C 0.42525 0.19415 0.85589 0.0
H1939 H 0.40523 0.18727 0.74142 0.0
H1940 H 0.4179 0.18898 0.76487 0.0
H1941 H 0.40581 0.18461 0.7991 0.0
H1942 H 0.40811 0.20253 0.90144 0.0
H1943 H 0.40624 0.18904 0.95721 0.0
H1944 H 0.77958 0.1694 0.65797 0.0
H1945 H 0.7872 0.18095 0.72343 0.0
H1946 H 0.7609 0.18911 0.71941 0.0
H1947 H 0.75302 0.17727 0.6541 0.0
H1948 H 0.795 0.2034 0.72021 0.0
H1949 H 0.76281 0.18356 0.85092 0.0
H1950 H 0.76283 0.17618 0.80191 0.0
H1951 H 0.75799 0.18605 0.79954 0.0
C1952 C 0.77526 0.17345 0.67155 0.0
C1953 C 0.76575 0.1725 0.6508 0.0
C1954 C 0.77963 0.18005 0.70896 0.0
C1955 C 0.77463 0.1859 0.7263 0.0
C1956 C 0.7648 0.18454 0.70699 0.0
H1957 H 0.81703 0.24507 0.88553 0.0
H1958 H 0.80323 0.23279 0.83138 0.0
C1959 C 0.76033 0.17781 0.66963 0.0
C1960 C 0.78051 0.19429 0.76129 0.0
H1961 H 0.77874 0.20096 0.86798 0.0
C1962 C 0.79142 0.2029 0.75248 0.0
C1963 C 0.77582 0.19358 0.80329 0.0
C1964 C 0.76425 0.18431 0.81482 0.0
C1965 C 0.79791 0.21066 0.7848 0.0
C1966 C 0.79325 0.21 0.82687 0.0
C1967 C 0.78224 0.20152 0.83554 0.0
C1968 C 0.80007 0.21746 0.86311 0.0
C1969 C 0.80989 0.21918 0.7741 0.0
C1970 C 0.80238 0.21291 0.90012 0.0
C1971 C 0.81015 0.21989 0.93133 0.0
C1972 C 0.8158 0.23156 0.926 0.0
C1973 C 0.81295 0.23611 0.89028 0.0
C1974 C 0.80509 0.22911 0.85926 0.0
H1975 H 0.81287 0.21693 0.74397 0.0
H1976 H 0.81055 0.22742 0.76839 0.0
H1977 H 0.81552 0.22006 0.80173 0.0
H1978 H 0.79857 0.20394 0.9038 0.0
H1979 H 0.81208 0.21609 0.9586 0.0
H1980 H 0.75209 0.56935 0.88087 0.0
H1981 H 0.76341 0.56621 0.82703 0.0
H1982 H 0.79331 0.58929 0.89707 0.0
H1983 H 0.78211 0.59212 0.95157 0.0
H1984 H 0.77745 0.58128 0.77379 0.0
H1985 H 0.8011 0.56595 0.86827 0.0
H1986 H 0.78914 0.56617 0.891 0.0
H1987 H 0.8028 0.57849 0.89282 0.0
C1988 C 0.76106 0.57356 0.88529 0.0
C1989 C 0.76619 0.58102 0.9204 0.0
C1990 C 0.76752 0.57174 0.85457 0.0
C1991 C 0.77922 0.57738 0.85828 0.0
C1992 C 0.7843 0.58456 0.89411 0.0
H1993 H 0.8265 0.60605 0.65473 0.0
H1994 H 0.81398 0.60094 0.71775 0.0
C1995 C 0.77786 0.58627 0.92507 0.0
C1996 C 0.78621 0.57705 0.82187 0.0
H1997 H 0.80987 0.57589 0.80017 0.0
C1998 C 0.78438 0.57985 0.77951 0.0
C1999 C 0.79519 0.57506 0.82893 0.0
C2000 C 0.79708 0.57113 0.87268 0.0
C2001 C 0.79167 0.58139 0.7448 0.0
C2002 C 0.80121 0.5804 0.75288 0.0
C2003 C 0.80267 0.57688 0.79436 0.0
C2004 C 0.81002 0.58369 0.7191 0.0
C2005 C 0.78919 0.5843 0.69992 0.0
C2006 C 0.81247 0.57584 0.70076 0.0
C2007 C 0.81978 0.57879 0.6649 0.0
C2008 C 0.82467 0.58961 0.647 0.0
C2009 C 0.82275 0.59761 0.66743 0.0
C2010 C 0.81556 0.5947 0.70332 0.0
H2011 H 0.78015 0.58139 0.69594 0.0
H2012 H 0.79385 0.59351 0.69581 0.0
H2013 H 0.7918 0.58057 0.6734 0.0
H2014 H 0.80834 0.56733 0.71283 0.0
H2015 H 0.82112 0.57246 0.64979 0.0
H2016 H 0.41991 0.90656 0.48357 0.0
H2017 H 0.42802 0.90209 0.54686 0.0
H2018 H 0.45409 0.9366 0.55467 0.0
H2019 H 0.44626 0.94102 0.49114 0.0
H2020 H 0.46218 0.92234 0.54878 0.0
H2021 H 0.42967 0.90826 0.67901 0.0
H2022 H 0.42509 0.9013 0.62686 0.0
H2023 H 0.42954 0.9159 0.63106 0.0
C2024 C 0.42722 0.91321 0.49951 0.0
C2025 C 0.43251 0.92412 0.48232 0.0
C2026 C 0.43182 0.91066 0.53569 0.0
C2027 C 0.44165 0.91902 0.5555 0.0
C2028 C 0.44653 0.93002 0.53977 0.0
H2029 H 0.4783 0.92633 0.78824 0.0
H2030 H 0.46481 0.92438 0.73241 0.0
C2031 C 0.44204 0.93253 0.50348 0.0
C2032 C 0.44758 0.91633 0.58967 0.0
H2033 H 0.4459 0.90732 0.69543 0.0
C2034 C 0.4586 0.91899 0.58078 0.0
C2035 C 0.44287 0.91196 0.6313 0.0
C2036 C 0.43117 0.90925 0.64297 0.0
C2037 C 0.46521 0.91782 0.61285 0.0
C2038 C 0.46055 0.9135 0.65467 0.0
C2039 C 0.4494 0.91051 0.66319 0.0
C2040 C 0.46752 0.91321 0.69113 0.0
C2041 C 0.47731 0.92178 0.60228 0.0
C2042 C 0.47325 0.90725 0.68726 0.0
C2043 C 0.48114 0.90848 0.7189 0.0
C2044 C 0.48327 0.91555 0.75528 0.0
C2045 C 0.47693 0.92088 0.76049 0.0
C2046 C 0.46916 0.91974 0.72867 0.0
H2047 H 0.48016 0.92713 0.57244 0.0
H2048 H 0.48281 0.92658 0.63014 0.0
H2049 H 0.47835 0.91444 0.59611 0.0
H2050 H 0.4719 0.90195 0.65901 0.0
H2051 H 0.48576 0.90414 0.71423 0.0
H2052 H 0.0858 0.55442 0.80993 0.0
H2053 H 0.08825 0.54183 0.76078 0.0
H2054 H 0.0913 0.56279 0.65035 0.0
H2055 H 0.08924 0.5756 0.69949 0.0
H2056 H 0.07421 0.52992 0.6998 0.0
H2057 H 0.11505 0.55559 0.61972 0.0
H2058 H 0.11105 0.56019 0.6685 0.0
H2059 H 0.10685 0.56227 0.61481 0.0
C2060 C 0.08725 0.55649 0.77529 0.0
C2061 C 0.08728 0.56598 0.75854 0.0
C2062 C 0.08867 0.54928 0.74725 0.0
C2063 C 0.09008 0.5514 0.70188 0.0
C2064 C 0.09054 0.56111 0.68535 0.0
H2065 H 0.06302 0.50958 0.48591 0.0
H2066 H 0.06742 0.51985 0.55474 0.0
C2067 C 0.08927 0.5684 0.71347 0.0
C2068 C 0.08958 0.5428 0.67124 0.0
H2069 H 0.10128 0.53953 0.57763 0.0
C2070 C 0.08028 0.53197 0.6737 0.0
C2071 C 0.09759 0.54533 0.63765 0.0
C2072 C 0.10825 0.55645 0.63535 0.0
C2073 C 0.07835 0.52391 0.64167 0.0
C2074 C 0.08574 0.52683 0.60561 0.0
C2075 C 0.0955 0.53735 0.60493 0.0
C2076 C 0.08281 0.51969 0.56593 0.0
C2077 C 0.0682 0.51244 0.64614 0.0
C2078 C 0.09006 0.51626 0.54893 0.0
C2079 C 0.08758 0.51039 0.5091 0.0
C2080 C 0.07788 0.508 0.48553 0.0
C2081 C 0.07055 0.51125 0.50325 0.0
C2082 C 0.07301 0.51706 0.54286 0.0
H2083 H 0.06594 0.51025 0.68126 0.0
H2084 H 0.061 0.51234 0.62963 0.0
H2085 H 0.06959 0.50594 0.63084 0.0
H2086 H 0.09772 0.51829 0.56607 0.0
H2087 H 0.09342 0.50805 0.49612 0.0
H2088 H 0.44991 0.5226 0.78929 0.0
H2089 H 0.46176 0.53669 0.73589 0.0
H2090 H 0.43254 0.53299 0.66923 0.0
H2091 H 0.42057 0.51854 0.72186 0.0
H2092 H 0.44565 0.53078 0.61395 0.0
H2093 H 0.47193 0.56873 0.7113 0.0
H2094 H 0.47256 0.55705 0.73351 0.0
H2095 H 0.45948 0.55698 0.73354 0.0
C2096 C 0.44598 0.52492 0.76381 0.0
C2097 C 0.43428 0.51937 0.75962 0.0
C2098 C 0.45279 0.5331 0.73349 0.0
C2099 C 0.44807 0.53605 0.69886 0.0
C2100 C 0.43638 0.53089 0.69582 0.0
H2101 H 0.48951 0.58219 0.48815 0.0
H2102 H 0.47734 0.57493 0.55308 0.0
C2103 C 0.42955 0.52261 0.72586 0.0
C2104 C 0.45525 0.54328 0.66267 0.0
H2105 H 0.47968 0.5674 0.64104 0.0
C2106 C 0.45295 0.53889 0.61988 0.0
C2107 C 0.46475 0.55393 0.67009 0.0
C2108 C 0.46724 0.55949 0.71457 0.0
C2109 C 0.46018 0.54453 0.58489 0.0
C2110 C 0.47012 0.55472 0.59304 0.0
C2111 C 0.47214 0.55948 0.63515 0.0
C2112 C 0.47872 0.56006 0.55844 0.0
C2113 C 0.45722 0.53939 0.53958 0.0
C2114 C 0.48388 0.55434 0.54142 0.0
C2115 C 0.49072 0.5584 0.50449 0.0
C2116 C 0.49265 0.56833 0.48413 0.0
C2117 C 0.48815 0.5745 0.50315 0.0
C2118 C 0.4812 0.57037 0.54013 0.0
H2119 H 0.44811 0.53348 0.53635 0.0
H2120 H 0.4598 0.54592 0.5138 0.0
H2121 H 0.46164 0.53467 0.53352 0.0
H2122 H 0.48222 0.54647 0.55567 0.0
H2123 H 0.49418 0.55353 0.49094 0.0
H2124 H 0.57256 0.81618 0.10961 0.0
H2125 H 0.571 0.80241 0.16396 0.0
H2126 H 0.59567 0.79815 0.09337 0.0
H2127 H 0.59708 0.81165 0.03835 0.0
H2128 H 0.57874 0.77818 0.12822 0.0
H2129 H 0.59616 0.81211 0.25309 0.0
H2130 H 0.58344 0.80976 0.22774 0.0
H2131 H 0.59592 0.81484 0.19525 0.0
C2132 C 0.57754 0.8122 0.10531 0.0
C2133 C 0.58507 0.81515 0.07002 0.0
C2134 C 0.57665 0.80435 0.13644 0.0
C2135 C 0.5834 0.79945 0.13316 0.0
C2136 C 0.59043 0.80187 0.09661 0.0
H2137 H 0.61008 0.77867 0.3409 0.0
H2138 H 0.60646 0.78643 0.27509 0.0
C2139 C 0.59124 0.80963 0.06527 0.0
C2140 C 0.58394 0.7926 0.16953 0.0
H2141 H 0.59175 0.79421 0.27688 0.0
C2142 C 0.58151 0.78163 0.16085 0.0
C2143 C 0.58772 0.79721 0.21184 0.0
C2144 C 0.59107 0.80915 0.22261 0.0
C2145 C 0.58288 0.77517 0.19337 0.0
C2146 C 0.58663 0.7798 0.23564 0.0
C2147 C 0.58885 0.79068 0.24442 0.0
C2148 C 0.58896 0.77387 0.27099 0.0
C2149 C 0.58069 0.76363 0.18189 0.0
C2150 C 0.58039 0.764 0.28976 0.0
C2151 C 0.58247 0.75946 0.32735 0.0
C2152 C 0.59311 0.76483 0.34693 0.0
C2153 C 0.60177 0.77439 0.32675 0.0
C2154 C 0.59972 0.77883 0.28913 0.0
H2155 H 0.58018 0.76225 0.14577 0.0
H2156 H 0.58735 0.76222 0.19541 0.0
H2157 H 0.57263 0.75733 0.19662 0.0
H2158 H 0.57198 0.76013 0.27669 0.0
H2159 H 0.57563 0.75213 0.3424 0.0
H2160 H 0.24654 0.82066 0.34829 0.0
H2161 H 0.23845 0.80816 0.28477 0.0
H2162 H 0.21172 0.8157 0.28027 0.0
H2163 H 0.21954 0.82786 0.34403 0.0
H2164 H 0.20419 0.79343 0.28482 0.0
H2165 H 0.2362 0.81294 0.15326 0.0
H2166 H 0.24108 0.81057 0.20473 0.0
H2167 H 0.23626 0.82045 0.20193 0.0
C2168 C 0.23908 0.81982 0.33304 0.0
C2169 C 0.23362 0.82515 0.35121 0.0
C2170 C 0.23449 0.81271 0.29672 0.0
C2171 C 0.22449 0.81102 0.27777 0.0
C2172 C 0.21941 0.81685 0.29451 0.0
H2173 H 0.18752 0.7819 0.04553 0.0
H2174 H 0.20098 0.79343 0.10144 0.0
C2175 C 0.22389 0.8238 0.33092 0.0
C2176 C 0.21862 0.80245 0.24336 0.0
H2177 H 0.22018 0.79563 0.13671 0.0
C2178 C 0.20771 0.79386 0.25249 0.0
C2179 C 0.22324 0.80305 0.20131 0.0
C2180 C 0.23481 0.81228 0.18938 0.0
C2181 C 0.20112 0.78611 0.22029 0.0
C2182 C 0.20569 0.78673 0.17805 0.0
C2183 C 0.21674 0.79511 0.16925 0.0
C2184 C 0.19872 0.77951 0.14151 0.0
C2185 C 0.18912 0.77772 0.23123 0.0
C2186 C 0.19323 0.76782 0.14468 0.0
C2187 C 0.18535 0.76116 0.11301 0.0
C2188 C 0.18299 0.7661 0.07728 0.0
C2189 C 0.18906 0.7778 0.07277 0.0
C2190 C 0.19682 0.78443 0.10463 0.0
H2191 H 0.18626 0.78 0.26162 0.0
H2192 H 0.18347 0.77697 0.20387 0.0
H2193 H 0.18832 0.76941 0.23662 0.0
H2194 H 0.19477 0.76385 0.17239 0.0
H2195 H 0.18093 0.75217 0.11711 0.0
H2196 H 0.21661 0.40443 0.04487 0.0
H2197 H 0.20533 0.40701 0.0999 0.0
H2198 H 0.2352 0.43072 0.1685 0.0
H2199 H 0.24661 0.4279 0.11406 0.0
H2200 H 0.22122 0.41551 0.22261 0.0
H2201 H 0.19737 0.43043 0.12676 0.0
H2202 H 0.19586 0.41788 0.10306 0.0
H2203 H 0.20943 0.43031 0.10455 0.0
C2204 C 0.22083 0.41035 0.07123 0.0
C2205 C 0.23253 0.41592 0.07519 0.0
C2206 C 0.21434 0.4119 0.10247 0.0
C2207 C 0.2194 0.41922 0.13795 0.0
C2208 C 0.23111 0.42509 0.1412 0.0
H2209 H 0.17834 0.42582 0.34527 0.0
H2210 H 0.19094 0.43031 0.28197 0.0
C2211 C 0.23762 0.42346 0.11013 0.0
C2212 C 0.21242 0.41959 0.17425 0.0
H2213 H 0.18892 0.42107 0.19581 0.0
C2214 C 0.21429 0.41695 0.21679 0.0
C2215 C 0.20345 0.42161 0.16699 0.0
C2216 C 0.20149 0.42534 0.12291 0.0
C2217 C 0.20711 0.41563 0.25161 0.0
C2218 C 0.19761 0.4167 0.24348 0.0
C2219 C 0.19608 0.42002 0.20169 0.0
C2220 C 0.18896 0.41379 0.27764 0.0
C2221 C 0.20965 0.4129 0.29671 0.0
C2222 C 0.18331 0.40291 0.29465 0.0
C2223 C 0.17621 0.40035 0.33068 0.0
C2224 C 0.1745 0.4086 0.35005 0.0
C2225 C 0.17952 0.4193 0.33101 0.0
C2226 C 0.18673 0.42188 0.29499 0.0
H2227 H 0.21867 0.41568 0.30039 0.0
H2228 H 0.20722 0.41687 0.32291 0.0
H2229 H 0.20487 0.40372 0.30164 0.0
H2230 H 0.18472 0.39647 0.28101 0.0
H2231 H 0.17236 0.39199 0.34426 0.0
H2232 H 0.24754 0.42536 0.84561 0.0
H2233 H 0.23978 0.43033 0.78251 0.0
H2234 H 0.21162 0.39681 0.77993 0.0
H2235 H 0.21916 0.39185 0.84297 0.0
H2236 H 0.23258 0.42136 0.69585 0.0
H2237 H 0.19762 0.41668 0.79985 0.0
H2238 H 0.21007 0.41748 0.82256 0.0
H2239 H 0.19908 0.40449 0.80084 0.0
C2240 C 0.2398 0.41901 0.83105 0.0
C2241 C 0.23387 0.40826 0.84957 0.0
C2242 C 0.23537 0.42187 0.79514 0.0
C2243 C 0.225 0.414 0.77738 0.0
C2244 C 0.21951 0.40307 0.7939 0.0
H2245 H 0.18853 0.4056 0.54448 0.0
H2246 H 0.20235 0.40802 0.59941 0.0
C2247 C 0.22385 0.40024 0.82981 0.0
C2248 C 0.2195 0.41721 0.74325 0.0
H2249 H 0.19503 0.41668 0.72201 0.0
C2250 C 0.22444 0.42051 0.7016 0.0
C2251 C 0.20904 0.41639 0.75122 0.0
C2252 C 0.20369 0.41369 0.79618 0.0
C2253 C 0.21883 0.42233 0.66684 0.0
C2254 C 0.20793 0.42055 0.6739 0.0
C2255 C 0.20333 0.41794 0.71634 0.0
C2256 C 0.20068 0.42035 0.63746 0.0
C2257 C 0.22461 0.42602 0.62291 0.0
C2258 C 0.19499 0.42637 0.64067 0.0
C2259 C 0.18686 0.42482 0.60966 0.0
C2260 C 0.1843 0.41723 0.57481 0.0
C2261 C 0.19032 0.41156 0.57078 0.0
C2262 C 0.19834 0.41302 0.60197 0.0
H2263 H 0.23382 0.43098 0.62702 0.0
H2264 H 0.22269 0.41855 0.60301 0.0
H2265 H 0.22181 0.43112 0.60449 0.0
H2266 H 0.1966 0.43202 0.66796 0.0
H2267 H 0.18241 0.42935 0.61363 0.0
H2268 H 0.57465 0.82176 0.84249 0.0
H2269 H 0.57003 0.80939 0.77834 0.0
H2270 H 0.60401 0.81611 0.77365 0.0
H2271 H 0.60865 0.82829 0.83759 0.0
H2272 H 0.57965 0.81196 0.68979 0.0
H2273 H 0.58445 0.78187 0.7949 0.0
H2274 H 0.58307 0.79322 0.81728 0.0
H2275 H 0.59633 0.79573 0.79661 0.0
C2276 C 0.58118 0.82076 0.8272 0.0
C2277 C 0.59197 0.82586 0.8454 0.0
C2278 C 0.57852 0.81369 0.79066 0.0
C2279 C 0.58664 0.81169 0.77198 0.0
C2280 C 0.59759 0.8174 0.78819 0.0
H2281 H 0.59563 0.78301 0.54084 0.0
H2282 H 0.59327 0.79474 0.5945 0.0
C2283 C 0.60023 0.82437 0.82468 0.0
C2284 C 0.58365 0.80304 0.73776 0.0
H2285 H 0.58432 0.77915 0.71739 0.0
C2286 C 0.58051 0.80469 0.69581 0.0
C2287 C 0.58451 0.79344 0.74608 0.0
C2288 C 0.58716 0.79087 0.79128 0.0
C2289 C 0.57883 0.79727 0.66117 0.0
C2290 C 0.58056 0.78813 0.66873 0.0
C2291 C 0.58308 0.78619 0.71138 0.0
C2292 C 0.5807 0.78096 0.63272 0.0
C2293 C 0.57533 0.79936 0.61685 0.0
C2294 C 0.5745 0.76927 0.63639 0.0
C2295 C 0.576 0.76251 0.60615 0.0
C2296 C 0.58373 0.76732 0.5716 0.0
C2297 C 0.58957 0.77902 0.56694 0.0
C2298 C 0.58815 0.78576 0.5974 0.0
H2299 H 0.57051 0.80378 0.62026 0.0
H2300 H 0.58289 0.80477 0.59708 0.0
H2301 H 0.57017 0.79145 0.59863 0.0
H2302 H 0.56875 0.76538 0.66353 0.0
H2303 H 0.57133 0.75353 0.61057 0.0
H2304 H 0.17003 0.77846 0.84276 0.0
H2305 H 0.18229 0.78674 0.77948 0.0
H2306 H 0.19192 0.76153 0.78676 0.0
H2307 H 0.17934 0.75296 0.84964 0.0
H2308 H 0.20461 0.79565 0.78539 0.0
H2309 H 0.18766 0.76314 0.65499 0.0
H2310 H 0.17967 0.76251 0.70296 0.0
H2311 H 0.1903 0.7587 0.70694 0.0
C2312 C 0.17456 0.77452 0.83028 0.0
C2313 C 0.17377 0.76509 0.85118 0.0
C2314 C 0.18158 0.77927 0.79417 0.0
C2315 C 0.18803 0.77477 0.77838 0.0
C2316 C 0.18689 0.76504 0.79791 0.0
H2317 H 0.24702 0.82036 0.62221 0.0
H2318 H 0.23544 0.80653 0.67773 0.0
C2319 C 0.17972 0.76017 0.83388 0.0
C2320 C 0.19666 0.78099 0.7445 0.0
H2321 H 0.20469 0.77965 0.63956 0.0
C2322 C 0.20467 0.79214 0.75354 0.0
C2323 C 0.1967 0.77637 0.70307 0.0
C2324 C 0.18808 0.76455 0.69108 0.0
C2325 C 0.21247 0.79894 0.72185 0.0
C2326 C 0.21252 0.79436 0.6803 0.0
C2327 C 0.20471 0.7831 0.67161 0.0
C2328 C 0.21981 0.80145 0.64414 0.0
C2329 C 0.22019 0.81112 0.73253 0.0
C2330 C 0.21493 0.80274 0.60581 0.0
C2331 C 0.22152 0.81048 0.57385 0.0
C2332 C 0.23314 0.81717 0.57967 0.0
C2333 C 0.23809 0.81545 0.61703 0.0
C2334 C 0.23148 0.80758 0.64884 0.0
H2335 H 0.21734 0.81381 0.76184 0.0
H2336 H 0.22866 0.8125 0.73965 0.0
H2337 H 0.22082 0.81652 0.70436 0.0
H2338 H 0.20595 0.79808 0.60142 0.0
H2339 H 0.21742 0.81152 0.54536 0.0
H2340 H 0.06253 0.55168 0.98368 0.0
H2341 H 0.06673 0.54608 0.05356 0.0
H2342 H 0.09565 0.57883 0.06913 0.0
H2343 H 0.09156 0.58451 0.9981 0.0
H2344 H 0.10046 0.56208 0.08227 0.0
H2345 H 0.06323 0.55321 0.1793 0.0
H2346 H 0.05917 0.5463 0.12709 0.0
H2347 H 0.06697 0.56134 0.1293 0.0
C2348 C 0.0697 0.55778 0.00215 0.0
C2349 C 0.07672 0.56855 0.98531 0.0
C2350 C 0.07204 0.55458 0.04237 0.0
C2351 C 0.08139 0.56208 0.06695 0.0
C2352 C 0.08832 0.57294 0.05081 0.0
H2353 H 0.0839 0.53009 0.31124 0.0
H2354 H 0.08587 0.5451 0.26292 0.0
C2355 C 0.08597 0.57618 0.01036 0.0
C2356 C 0.08429 0.55808 0.10732 0.0
H2357 H 0.07231 0.54263 0.19941 0.0
C2358 C 0.09443 0.55806 0.1085 0.0
C2359 C 0.07655 0.55305 0.14204 0.0
C2360 C 0.06593 0.55359 0.14461 0.0
C2361 C 0.09662 0.55234 0.14165 0.0
C2362 C 0.08834 0.54628 0.1737 0.0
C2363 C 0.07861 0.54709 0.17446 0.0
C2364 C 0.08903 0.53826 0.2042 0.0
C2365 C 0.10769 0.55267 0.14136 0.0
C2366 C 0.09036 0.52951 0.18751 0.0
C2367 C 0.08936 0.52098 0.21516 0.0
C2368 C 0.08677 0.52091 0.25988 0.0
C2369 C 0.08583 0.52987 0.27686 0.0
C2370 C 0.08698 0.53847 0.2493 0.0
H2371 H 0.11436 0.56064 0.12716 0.0
H2372 H 0.11024 0.5517 0.17498 0.0
H2373 H 0.10702 0.54578 0.12045 0.0
H2374 H 0.09162 0.52896 0.15267 0.0
H2375 H 0.09004 0.51416 0.201 0.0
H2376 H 0.44393 0.50328 0.99235 0.0
H2377 H 0.4517 0.5149 0.05755 0.0
H2378 H 0.42663 0.52472 0.04947 0.0
H2379 H 0.4186 0.5128 0.98445 0.0
H2380 H 0.46054 0.53748 0.05262 0.0
H2381 H 0.4277 0.51947 0.18175 0.0
H2382 H 0.42745 0.5117 0.13361 0.0
H2383 H 0.42338 0.52213 0.12953 0.0
C2384 C 0.4399 0.5077 0.00502 0.0
C2385 C 0.43071 0.5072 0.98321 0.0
C2386 C 0.44435 0.51435 0.04227 0.0
C2387 C 0.43976 0.52069 0.05835 0.0
C2388 C 0.43021 0.51977 0.03802 0.0
H2389 H 0.48415 0.57935 0.21693 0.0
H2390 H 0.47019 0.56759 0.16224 0.0
C2391 C 0.42565 0.51298 0.00084 0.0
C2392 C 0.44582 0.52911 0.09303 0.0
H2393 H 0.44414 0.53644 0.19881 0.0
C2394 C 0.45693 0.53729 0.08453 0.0
C2395 C 0.44108 0.52882 0.13455 0.0
C2396 C 0.42928 0.52002 0.14576 0.0
C2397 C 0.46359 0.54498 0.11678 0.0
C2398 C 0.45889 0.54471 0.15841 0.0
C2399 C 0.44767 0.5367 0.16669 0.0
C2400 C 0.46584 0.552 0.19479 0.0
C2401 C 0.47574 0.55295 0.10655 0.0
C2402 C 0.46755 0.54718 0.23239 0.0
C2403 C 0.4754 0.55387 0.26389 0.0
C2404 C 0.48175 0.56552 0.25829 0.0
C2405 C 0.47952 0.57039 0.22191 0.0
C2406 C 0.47157 0.56368 0.19059 0.0
H2407 H 0.47858 0.55036 0.0769 0.0
H2408 H 0.47695 0.56139 0.10023 0.0
H2409 H 0.48114 0.55355 0.13465 0.0
H2410 H 0.46319 0.53819 0.23635 0.0
H2411 H 0.47683 0.54983 0.29167 0.0
H2412 H 0.49655 0.94152 0.98883 0.0
H2413 H 0.48464 0.93777 0.05306 0.0
H2414 H 0.47564 0.90306 0.04918 0.0
H2415 H 0.48788 0.90686 0.98527 0.0
H2416 H 0.46231 0.9239 0.04893 0.0
H2417 H 0.48052 0.90996 0.18042 0.0
H2418 H 0.4882 0.91713 0.13162 0.0
H2419 H 0.47783 0.90257 0.12916 0.0
C2420 C 0.49224 0.93313 0.00223 0.0
C2421 C 0.4931 0.92446 0.98198 0.0
C2422 C 0.48542 0.931 0.03891 0.0
C2423 C 0.47924 0.92014 0.05592 0.0
C2424 C 0.48047 0.91154 0.03705 0.0
H2425 H 0.42027 0.90585 0.21329 0.0
H2426 H 0.43209 0.90381 0.15836 0.0
C2427 C 0.48744 0.91371 0.0005 0.0
C2428 C 0.47074 0.9178 0.09029 0.0
H2429 H 0.46332 0.90907 0.1963 0.0
C2430 C 0.4625 0.92061 0.08111 0.0
C2431 C 0.47103 0.91352 0.13218 0.0
C2432 C 0.47991 0.91069 0.14426 0.0
C2433 C 0.45474 0.9196 0.11303 0.0
C2434 C 0.455 0.91532 0.155 0.0
C2435 C 0.46307 0.91224 0.16393 0.0
C2436 C 0.44765 0.91503 0.1911 0.0
C2437 C 0.44672 0.92367 0.10205 0.0
C2438 C 0.45244 0.92151 0.22885 0.0
C2439 C 0.44572 0.92257 0.2605 0.0
C2440 C 0.43406 0.9172 0.25493 0.0
C2441 C 0.42923 0.91021 0.21825 0.0
C2442 C 0.43597 0.90907 0.18678 0.0
H2443 H 0.44934 0.92905 0.07227 0.0
H2444 H 0.43833 0.91638 0.09556 0.0
H2445 H 0.44599 0.92848 0.12983 0.0
H2446 H 0.46143 0.92615 0.23293 0.0
H2447 H 0.44973 0.92796 0.28848 0.0
H2448 H 0.26275 0.38219 0.05065 0.0
H2449 H 0.25873 0.36354 0.07358 0.0
H2450 H 0.22738 0.34895 0.00374 0.0
H2451 H 0.23156 0.36736 0.97919 0.0
H2452 H 0.24333 0.34993 0.12483 0.0
H2453 H 0.23672 0.32739 0.96913 0.0
H2454 H 0.24305 0.3424 0.97081 0.0
H2455 H 0.22804 0.3336 0.96893 0.0
C2456 C 0.25512 0.37496 0.03937 0.0
C2457 C 0.24749 0.37626 0.01299 0.0
C2458 C 0.25283 0.36431 0.05252 0.0
C2459 C 0.24284 0.35477 0.03977 0.0
C2460 C 0.23533 0.35608 0.01278 0.0
H2461 H 0.19823 0.2987 0.18225 0.0
H2462 H 0.21222 0.31704 0.15626 0.0
C2463 C 0.23769 0.36667 0.99907 0.0
C2464 C 0.23955 0.3436 0.05845 0.0
H2465 H 0.22571 0.31593 0.03184 0.0
C2466 C 0.23973 0.34252 0.10434 0.0
C2467 C 0.23517 0.33388 0.03201 0.0
C2468 C 0.23587 0.33442 0.98248 0.0
C2469 C 0.23477 0.33198 0.12453 0.0
C2470 C 0.22908 0.32227 0.09826 0.0
C2471 C 0.2298 0.32334 0.05226 0.0
C2472 C 0.22137 0.31112 0.11751 0.0
C2473 C 0.23551 0.33144 0.17389 0.0
C2474 C 0.22162 0.30154 0.10374 0.0
C2475 C 0.21339 0.29091 0.11779 0.0
C2476 C 0.20479 0.28969 0.14606 0.0
C2477 C 0.20479 0.29932 0.1609 0.0
C2478 C 0.21289 0.30988 0.14634 0.0
H2479 H 0.24354 0.33844 0.18616 0.0
H2480 H 0.22869 0.3323 0.18923 0.0
H2481 H 0.2348 0.32344 0.18477 0.0
H2482 H 0.22803 0.30225 0.08125 0.0
H2483 H 0.21362 0.28366 0.10575 0.0
H2484 H 0.71687 0.92454 0.08889 0.0
H2485 H 0.69789 0.91828 0.0628 0.0
H2486 H 0.68443 0.89752 0.17779 0.0
H2487 H 0.70329 0.90364 0.20407 0.0
H2488 H 0.67782 0.88623 0.09546 0.0
H2489 H 0.67137 0.92283 0.1019 0.0
H2490 H 0.68431 0.92518 0.07817 0.0
H2491 H 0.68162 0.92181 0.13548 0.0
C2492 C 0.70988 0.91885 0.10919 0.0
C2493 C 0.71161 0.91449 0.14835 0.0
C2494 C 0.69903 0.91533 0.0943 0.0
C2495 C 0.68978 0.90747 0.11846 0.0
C2496 C 0.69148 0.90362 0.15876 0.0
H2497 H 0.61851 0.87373 0.07775 0.0
H2498 H 0.63759 0.88651 0.10258 0.0
C2499 C 0.70228 0.90712 0.17367 0.0
C2500 C 0.67843 0.90207 0.09917 0.0
H2501 H 0.65736 0.90654 0.06612 0.0
C2502 C 0.67334 0.89067 0.08908 0.0
C2503 C 0.67264 0.9079 0.09102 0.0
C2504 C 0.67769 0.92009 0.10242 0.0
C2505 C 0.6626 0.8849 0.07099 0.0
C2506 C 0.65684 0.89074 0.06215 0.0
C2507 C 0.66187 0.90214 0.07251 0.0
C2508 C 0.64541 0.88487 0.04366 0.0
C2509 C 0.65742 0.87254 0.06222 0.0
C2510 C 0.64352 0.88012 0.00157 0.0
C2511 C 0.63265 0.87276 0.98737 0.0
C2512 C 0.62348 0.87008 0.01499 0.0
C2513 C 0.62538 0.87556 0.05576 0.0
C2514 C 0.63628 0.88289 0.07 0.0
H2515 H 0.66195 0.86889 0.07936 0.0
H2516 H 0.64855 0.86798 0.07286 0.0
H2517 H 0.65768 0.87116 0.02639 0.0
H2518 H 0.65048 0.88167 0.98058 0.0
H2519 H 0.63148 0.86879 0.95558 0.0
H2520 H 0.11969 0.73684 0.05773 0.0
H2521 H 0.1056 0.74155 0.08141 0.0
H2522 H 0.12177 0.77166 0.00358 0.0
H2523 H 0.13545 0.76679 0.97843 0.0
H2524 H 0.10853 0.758 0.12934 0.0
H2525 H 0.0905 0.76229 0.97477 0.0
H2526 H 0.09898 0.75574 0.97665 0.0
H2527 H 0.10537 0.77071 0.97097 0.0
C2528 C 0.12006 0.74432 0.04487 0.0
C2529 C 0.12869 0.75143 0.01611 0.0
C2530 C 0.11201 0.74701 0.05846 0.0
C2531 C 0.11247 0.75687 0.04374 0.0
C2532 C 0.12094 0.76382 0.01429 0.0
H2533 H 0.10324 0.80411 0.17941 0.0
H2534 H 0.10743 0.78989 0.15469 0.0
C2535 C 0.12886 0.76106 0.0002 0.0
C2536 C 0.10501 0.76067 0.06273 0.0
H2537 H 0.09107 0.77435 0.03524 0.0
C2538 C 0.10448 0.76132 0.1087 0.0
C2539 C 0.09939 0.76473 0.03618 0.0
C2540 C 0.09849 0.76319 0.98694 0.0
C2541 C 0.09933 0.76675 0.12857 0.0
C2542 C 0.09498 0.77205 0.10176 0.0
C2543 C 0.09464 0.77055 0.05597 0.0
C2544 C 0.0918 0.78007 0.11993 0.0
C2545 C 0.09881 0.76689 0.17811 0.0
C2546 C 0.08172 0.77951 0.1078 0.0
C2547 C 0.07942 0.78785 0.12107 0.0
C2548 C 0.08713 0.79687 0.14694 0.0
C2549 C 0.09705 0.79723 0.15997 0.0
C2550 C 0.09942 0.78901 0.14616 0.0
H2551 H 0.098 0.7591 0.1922 0.0
H2552 H 0.10669 0.77397 0.19094 0.0
H2553 H 0.09168 0.76778 0.18979 0.0
H2554 H 0.07574 0.77275 0.0873 0.0
H2555 H 0.0717 0.78734 0.11047 0.0
H2556 H 0.29876 0.19496 0.31644 0.0
H2557 H 0.31759 0.20831 0.34065 0.0
H2558 H 0.30528 0.22795 0.4042 0.0
H2559 H 0.28621 0.21422 0.38189 0.0
H2560 H 0.33178 0.22953 0.32921 0.0
H2561 H 0.32 0.2225 0.50601 0.0
H2562 H 0.31048 0.21421 0.46308 0.0
H2563 H 0.31289 0.22802 0.47454 0.0
C2564 C 0.30004 0.20217 0.33523 0.0
C2565 C 0.29096 0.20345 0.34777 0.0
C2566 C 0.31084 0.20982 0.34905 0.0
C2567 C 0.31285 0.21901 0.37521 0.0
C2568 C 0.3039 0.22073 0.38529 0.0
H2569 H 0.38472 0.26236 0.43661 0.0
H2570 H 0.36593 0.25727 0.41112 0.0
C2571 C 0.29302 0.21294 0.37221 0.0
C2572 C 0.32423 0.22631 0.39338 0.0
H2573 H 0.33887 0.23452 0.48969 0.0
C2574 C 0.33335 0.23072 0.3643 0.0
C2575 C 0.32626 0.22781 0.43924 0.0
C2576 C 0.31691 0.22282 0.47261 0.0
C2577 C 0.3444 0.236 0.37973 0.0
C2578 C 0.34642 0.23734 0.42561 0.0
C2579 C 0.33731 0.23352 0.45456 0.0
C2580 C 0.3577 0.2413 0.44455 0.0
C2581 C 0.35372 0.23941 0.34675 0.0
C2582 C 0.35925 0.23434 0.47387 0.0
C2583 C 0.36988 0.23735 0.48935 0.0
C2584 C 0.37926 0.24734 0.47545 0.0
C2585 C 0.37767 0.25454 0.44751 0.0
C2586 C 0.36695 0.2516 0.43262 0.0
H2587 H 0.35055 0.23549 0.31408 0.0
H2588 H 0.3581 0.2486 0.34228 0.0
H2589 H 0.35988 0.23706 0.35836 0.0
H2590 H 0.35226 0.22636 0.48371 0.0
H2591 H 0.37078 0.2316 0.51081 0.0
H2592 H 0.73774 0.11987 0.44087 0.0
H2593 H 0.74194 0.10548 0.41631 0.0
H2594 H 0.7727 0.12148 0.49026 0.0
H2595 H 0.76833 0.13545 0.51635 0.0
H2596 H 0.75782 0.10783 0.36633 0.0
H2597 H 0.76301 0.09022 0.52036 0.0
H2598 H 0.75669 0.09891 0.51929 0.0
H2599 H 0.77167 0.10507 0.52308 0.0
C2600 C 0.74527 0.12014 0.45268 0.0
C2601 C 0.75269 0.12879 0.48067 0.0
C2602 C 0.74767 0.11192 0.4386 0.0
C2603 C 0.75755 0.11224 0.45202 0.0
C2604 C 0.76483 0.12076 0.48061 0.0
H2605 H 0.8033 0.10198 0.31154 0.0
H2606 H 0.78914 0.10618 0.33674 0.0
C2607 C 0.76236 0.12885 0.49523 0.0
C2608 C 0.76099 0.10454 0.4326 0.0
H2609 H 0.77454 0.09038 0.45848 0.0
C2610 C 0.76122 0.10378 0.38658 0.0
C2611 C 0.76512 0.09891 0.45866 0.0
C2612 C 0.76397 0.09822 0.50807 0.0
C2613 C 0.76635 0.0984 0.36607 0.0
C2614 C 0.77178 0.09407 0.39223 0.0
C2615 C 0.77065 0.09394 0.43819 0.0
C2616 C 0.77961 0.09076 0.37317 0.0
C2617 C 0.76605 0.09764 0.31654 0.0
C2618 C 0.77919 0.08078 0.3859 0.0
C2619 C 0.78751 0.07848 0.37236 0.0
C2620 C 0.79637 0.08609 0.3456 0.0
C2621 C 0.79654 0.09587 0.33169 0.0
C2622 C 0.78835 0.09824 0.34579 0.0
H2623 H 0.75814 0.09678 0.30355 0.0
H2624 H 0.77301 0.10546 0.3027 0.0
H2625 H 0.76682 0.09045 0.3048 0.0
H2626 H 0.77258 0.0749 0.40724 0.0
H2627 H 0.78715 0.07087 0.38364 0.0
H2628 H 0.89577 0.70411 0.32544 0.0
H2629 H 0.89018 0.6853 0.35042 0.0
H2630 H 0.92243 0.69744 0.41111 0.0
H2631 H 0.92791 0.71649 0.3879 0.0
H2632 H 0.89723 0.67111 0.33705 0.0
H2633 H 0.90261 0.68262 0.51412 0.0
H2634 H 0.90365 0.69219 0.47169 0.0
H2635 H 0.91513 0.68983 0.48202 0.0
C2636 C 0.90172 0.70279 0.34386 0.0
C2637 C 0.91224 0.71182 0.35514 0.0
C2638 C 0.89851 0.69201 0.35812 0.0
C2639 C 0.90578 0.68996 0.38352 0.0
C2640 C 0.91654 0.69886 0.39275 0.0
H2641 H 0.87879 0.61821 0.44091 0.0
H2642 H 0.89211 0.63723 0.41662 0.0
C2643 C 0.9197 0.70972 0.37916 0.0
C2644 C 0.90178 0.67856 0.40134 0.0
H2645 H 0.89597 0.66378 0.49715 0.0
C2646 C 0.89703 0.6695 0.37205 0.0
C2647 C 0.90148 0.67647 0.44707 0.0
C2648 C 0.9059 0.68577 0.48064 0.0
C2649 C 0.89149 0.65842 0.38719 0.0
C2650 C 0.89108 0.65633 0.43297 0.0
C2651 C 0.89634 0.66539 0.4621 0.0
C2652 C 0.88409 0.64495 0.45167 0.0
C2653 C 0.88554 0.64913 0.35411 0.0
C2654 C 0.87559 0.64305 0.48162 0.0
C2655 C 0.86817 0.63227 0.49641 0.0
C2656 C 0.869 0.62311 0.48118 0.0
C2657 C 0.87785 0.62507 0.45283 0.0
C2658 C 0.88541 0.63593 0.43862 0.0
H2659 H 0.88451 0.65231 0.32189 0.0
H2660 H 0.89049 0.64494 0.34851 0.0
H2661 H 0.87714 0.64281 0.36627 0.0
H2662 H 0.87441 0.64986 0.49236 0.0
H2663 H 0.86148 0.63109 0.51826 0.0
H2664 H 0.78962 0.71647 0.88413 0.0
H2665 H 0.77579 0.69742 0.90623 0.0
H2666 H 0.79588 0.68509 0.84677 0.0
H2667 H 0.80937 0.70391 0.82286 0.0
H2668 H 0.77466 0.67108 0.8321 0.0
H2669 H 0.78015 0.68226 0.00953 0.0
H2670 H 0.77508 0.68962 0.97704 0.0
H2671 H 0.7889 0.69187 0.96763 0.0
C2672 C 0.79101 0.70966 0.87542 0.0
C2673 C 0.80064 0.71171 0.85208 0.0
C2674 C 0.78314 0.69879 0.88836 0.0
C2675 C 0.78492 0.68984 0.87919 0.0
C2676 C 0.79432 0.69184 0.85441 0.0
H2677 H 0.76967 0.63083 0.0135 0.0
H2678 H 0.77564 0.6496 0.98734 0.0
C2679 C 0.80205 0.70264 0.84078 0.0
C2680 C 0.77737 0.67843 0.89654 0.0
H2681 H 0.76795 0.66349 0.99183 0.0
C2682 C 0.77311 0.66941 0.86701 0.0
C2683 C 0.77538 0.67626 0.94217 0.0
C2684 C 0.78019 0.68549 0.97602 0.0
C2685 C 0.76745 0.6583 0.88185 0.0
C2686 C 0.7656 0.65614 0.92752 0.0
C2687 C 0.76933 0.66516 0.95685 0.0
C2688 C 0.76116 0.64474 0.94604 0.0
C2689 C 0.76418 0.64906 0.8486 0.0
C2690 C 0.75084 0.63573 0.93263 0.0
C2691 C 0.74748 0.62487 0.94701 0.0
C2692 C 0.75426 0.62289 0.97585 0.0
C2693 C 0.76424 0.63203 0.99127 0.0
C2694 C 0.76767 0.6428 0.97634 0.0
H2695 H 0.76846 0.65228 0.81655 0.0
H2696 H 0.7662 0.64271 0.86081 0.0
H2697 H 0.75505 0.64489 0.84267 0.0
H2698 H 0.74551 0.63705 0.91031 0.0
H2699 H 0.73968 0.61801 0.93492 0.0
H2700 H 0.38231 0.12024 0.94847 0.0
H2701 H 0.36343 0.10646 0.92433 0.0
H2702 H 0.35016 0.12447 0.99398 0.0
H2703 H 0.36879 0.13785 0.01989 0.0
H2704 H 0.33639 0.103 0.00108 0.0
H2705 H 0.34857 0.11282 0.82539 0.0
H2706 H 0.35585 0.10716 0.85484 0.0
H2707 H 0.35787 0.12065 0.86961 0.0
C2708 C 0.37533 0.12115 0.95911 0.0
C2709 C 0.37706 0.1302 0.98573 0.0
C2710 C 0.36455 0.11332 0.94498 0.0
C2711 C 0.35539 0.11459 0.95628 0.0
C2712 C 0.35708 0.12331 0.98461 0.0
H2713 H 0.29749 0.10301 0.82353 0.0
H2714 H 0.31603 0.10811 0.85005 0.0
C2715 C 0.36777 0.13099 -0.0006 0.0
C2716 C 0.34411 0.10733 0.9372 0.0
H2717 H 0.32971 0.10038 0.84023 0.0
C2718 C 0.33492 0.10232 0.96588 0.0
C2719 C 0.3422 0.1065 0.89121 0.0
C2720 C 0.35162 0.11214 0.85841 0.0
C2721 C 0.3239 0.0971 0.95011 0.0
C2722 C 0.322 0.09646 0.90414 0.0
C2723 C 0.33118 0.10086 0.87541 0.0
C2724 C 0.31073 0.09263 0.88529 0.0
C2725 C 0.31448 0.09304 0.98301 0.0
C2726 C 0.30155 0.08209 0.89518 0.0
C2727 C 0.29082 0.07922 0.88067 0.0
C2728 C 0.28915 0.08674 0.8551 0.0
C2729 C 0.29846 0.097 0.84314 0.0
C2730 C 0.3091 0.09993 0.85828 0.0
H2731 H 0.31752 0.09646 0.01643 0.0
H2732 H 0.30824 0.09542 0.9728 0.0
H2733 H 0.31022 0.0838 0.9852 0.0
H2734 H 0.30263 0.07617 0.91482 0.0
H2735 H 0.28383 0.0712 0.89001 0.0
H2736 H 0.9064 0.20277 0.78978 0.0
H2737 H 0.90034 0.21579 0.81309 0.0
H2738 H 0.91749 0.22064 0.93665 0.0
H2739 H 0.92375 0.20774 0.91337 0.0
H2740 H 0.88667 0.21089 0.88476 0.0
H2741 H 0.92464 0.25243 0.90576 0.0
H2742 H 0.92455 0.24139 0.87359 0.0
H2743 H 0.92532 0.2412 0.93256 0.0
C2744 C 0.90912 0.2068 0.82152 0.0
C2745 C 0.91548 0.20412 0.84989 0.0
C2746 C 0.90565 0.21426 0.83475 0.0
C2747 C 0.9085 0.21923 0.8765 0.0
C2748 C 0.91536 0.21707 0.90397 0.0
H2749 H 0.86851 0.23726 0.03491 0.0
H2750 H 0.88131 0.23122 0.00827 0.0
C2751 C 0.91888 0.20963 0.89068 0.0
C2752 C 0.90299 0.22533 0.89342 0.0
H2753 H 0.90773 0.2501 0.93724 0.0
C2754 C 0.89129 0.21949 0.89587 0.0
C2755 C 0.90903 0.23655 0.90789 0.0
C2756 C 0.92158 0.24331 0.90452 0.0
C2757 C 0.88545 0.22449 0.91306 0.0
C2758 C 0.89148 0.23558 0.92873 0.0
C2759 C 0.90317 0.24155 0.92556 0.0
C2760 C 0.88556 0.24094 0.94843 0.0
C2761 C 0.87285 0.21786 0.91443 0.0
C2762 C 0.8841 0.24876 0.92431 0.0
C2763 C 0.87675 0.25223 0.93937 0.0
C2764 C 0.87076 0.24791 0.97877 0.0
C2765 C 0.8729 0.24068 0.00426 0.0
C2766 C 0.88023 0.23723 0.98918 0.0
H2767 H 0.86943 0.2102 0.89386 0.0
H2768 H 0.87007 0.2153 0.94885 0.0
H2769 H 0.86926 0.22303 0.90295 0.0
H2770 H 0.88815 0.25169 0.89271 0.0
H2771 H 0.87534 0.25784 0.91901 0.0
H2772 H 0.71719 0.79179 0.58995 0.0
H2773 H 0.69821 0.77907 0.56363 0.0
H2774 H 0.68467 0.78585 0.67958 0.0
H2775 H 0.70353 0.79857 0.70621 0.0
H2776 H 0.67713 0.75954 0.60667 0.0
H2777 H 0.67546 0.79798 0.56695 0.0
H2778 H 0.68845 0.79816 0.5761 0.0
H2779 H 0.67977 0.79707 0.62189 0.0
C2780 C 0.71018 0.79039 0.61038 0.0
C2781 C 0.71188 0.79634 0.64988 0.0
C2782 C 0.69936 0.78309 0.59531 0.0
C2783 C 0.69009 0.78164 0.61951 0.0
C2784 C 0.69174 0.78693 0.66039 0.0
H2785 H 0.61869 0.74338 0.5816 0.0
H2786 H 0.6378 0.74962 0.6057 0.0
C2787 C 0.70254 0.79421 0.67548 0.0
C2788 C 0.67881 0.7758 0.59979 0.0
H2789 H 0.65892 0.78076 0.55687 0.0
C2790 C 0.67312 0.76413 0.5956 0.0
C2791 C 0.67373 0.78188 0.5849 0.0
C2792 C 0.67966 0.79447 0.58727 0.0
C2793 C 0.6623 0.75834 0.57764 0.0
C2794 C 0.6571 0.76443 0.56391 0.0
C2795 C 0.66292 0.77611 0.56743 0.0
C2796 C 0.64555 0.75899 0.54644 0.0
C2797 C 0.65656 0.74582 0.57313 0.0
C2798 C 0.64355 0.76206 0.50491 0.0
C2799 C 0.63266 0.75861 0.49123 0.0
C2800 C 0.62354 0.75203 0.5189 0.0
C2801 C 0.62552 0.74842 0.55945 0.0
C2802 C 0.63644 0.75192 0.5732 0.0
H2803 H 0.66262 0.74277 0.57415 0.0
H2804 H 0.65061 0.7419 0.60077 0.0
H2805 H 0.65177 0.74302 0.54191 0.0
H2806 H 0.65046 0.76753 0.4838 0.0
H2807 H 0.63144 0.76149 0.4597 0.0
H2808 H 0.19476 0.89804 0.6786 0.0
H2809 H 0.20847 0.89321 0.65311 0.0
H2810 H 0.22518 0.92389 0.57889 0.0
H2811 H 0.21111 0.92858 0.6029 0.0
H2812 H 0.22238 0.90762 0.52931 0.0
H2813 H 0.23968 0.90264 0.68487 0.0
H2814 H 0.22479 0.89415 0.68672 0.0
H2815 H 0.23117 0.90914 0.68268 0.0
C2816 C 0.20146 0.90388 0.65752 0.0
C2817 C 0.20183 0.9137 0.64277 0.0
C2818 C 0.20938 0.90114 0.64323 0.0
C2819 C 0.21803 0.90828 0.61474 0.0
C2820 C 0.21864 0.91828 0.60107 0.0
H2821 H 0.2611 0.88041 0.54975 0.0
H2822 H 0.25615 0.89439 0.57237 0.0
C2823 C 0.21059 0.92095 0.61485 0.0
C2824 C 0.22564 0.90466 0.5959 0.0
H2825 H 0.24007 0.89148 0.62324 0.0
C2826 C 0.22646 0.90432 0.54993 0.0
C2827 C 0.23127 0.90063 0.6225 0.0
C2828 C 0.23178 0.90179 0.67191 0.0
C2829 C 0.232 0.8993 0.52998 0.0
C2830 C 0.23649 0.89411 0.55667 0.0
C2831 C 0.23643 0.89522 0.60258 0.0
C2832 C 0.24029 0.88661 0.53814 0.0
C2833 C 0.23283 0.8995 0.48047 0.0
C2834 C 0.23312 0.87767 0.51091 0.0
C2835 C 0.236 0.86979 0.49739 0.0
C2836 C 0.24601 0.87052 0.5117 0.0
C2837 C 0.25333 0.87961 0.53817 0.0
C2838 C 0.2505 0.8876 0.55117 0.0
H2839 H 0.23335 0.90721 0.46691 0.0
H2840 H 0.24024 0.89906 0.46919 0.0
H2841 H 0.2252 0.89228 0.46674 0.0
H2842 H 0.22503 0.87647 0.50156 0.0
H2843 H 0.23012 0.86284 0.47741 0.0
H2844 H 0.13629 0.36851 0.48189 0.0
H2845 H 0.1223 0.35018 0.50805 0.0
H2846 H 0.10616 0.36495 0.58097 0.0
H2847 H 0.12056 0.38353 0.55634 0.0
H2848 H 0.10845 0.35146 0.63144 0.0
H2849 H 0.09109 0.32858 0.47735 0.0
H2850 H 0.10595 0.33478 0.47507 0.0
H2851 H 0.09978 0.34359 0.47836 0.0
C2852 C 0.12965 0.36788 0.5028 0.0
C2853 C 0.12955 0.3775 0.51703 0.0
C2854 C 0.12156 0.35733 0.51746 0.0
C2855 C 0.11299 0.3561 0.54578 0.0
C2856 C 0.11264 0.36567 0.5589 0.0
H2857 H 0.07138 0.28517 0.61422 0.0
H2858 H 0.0755 0.30379 0.5905 0.0
C2859 C 0.12086 0.37628 0.54477 0.0
C2860 C 0.10526 0.34497 0.56523 0.0
H2861 H 0.0911 0.31725 0.53958 0.0
C2862 C 0.10442 0.344 0.61125 0.0
C2863 C 0.09966 0.3352 0.53923 0.0
C2864 C 0.09907 0.33563 0.48978 0.0
C2865 C 0.09899 0.33351 0.63184 0.0
C2866 C 0.09467 0.32373 0.60579 0.0
C2867 C 0.09464 0.32471 0.5598 0.0
C2868 C 0.09129 0.31258 0.62503 0.0
C2869 C 0.09814 0.33307 0.68135 0.0
C2870 C 0.09869 0.3113 0.65277 0.0
C2871 C 0.09627 0.30072 0.66695 0.0
C2872 C 0.08651 0.29113 0.65277 0.0
C2873 C 0.07897 0.2924 0.62572 0.0
C2874 C 0.08132 0.30304 0.6121 0.0
H2875 H 0.09728 0.34014 0.6941 0.0
H2876 H 0.09092 0.32513 0.69303 0.0
H2877 H 0.10592 0.33391 0.69548 0.0
H2878 H 0.10662 0.31843 0.66201 0.0
H2879 H 0.10233 0.30005 0.68733 0.0
H2880 H 0.0367 0.56075 0.83975 0.0
H2881 H 0.01791 0.5554 0.81516 0.0
H2882 H 0.03026 0.58796 0.75698 0.0
H2883 H 0.04927 0.59321 0.77974 0.0
H2884 H 0.00384 0.5625 0.82999 0.0
H2885 H 0.01531 0.56872 0.65286 0.0
H2886 H 0.02487 0.5695 0.69484 0.0
H2887 H 0.02259 0.58107 0.68585 0.0
C2888 C 0.03543 0.56682 0.82194 0.0
C2889 C 0.0445 0.57736 0.81123 0.0
C2890 C 0.02466 0.56375 0.80792 0.0
C2891 C 0.02268 0.57118 0.78335 0.0
C2892 C 0.03162 0.58195 0.77469 0.0
H2893 H 0.95091 0.54453 0.72676 0.0
H2894 H 0.96991 0.55776 0.75163 0.0
C2895 C 0.04247 0.58497 0.788 0.0
C2896 C 0.01129 0.56734 0.76577 0.0
H2897 H 0.9965 0.56207 0.67022 0.0
C2898 C 0.00223 0.56248 0.79507 0.0
C2899 C 0.0092 0.56729 0.72014 0.0
C2900 C 0.01848 0.57183 0.68651 0.0
C2901 C 0.99115 0.55705 0.77998 0.0
C2902 C 0.98905 0.55687 0.73429 0.0
C2903 C 0.99812 0.56226 0.70521 0.0
C2904 C 0.97768 0.54995 0.71546 0.0
C2905 C 0.98186 0.55096 0.81295 0.0
C2906 C 0.97581 0.5416 0.68478 0.0
C2907 C 0.96506 0.53425 0.66969 0.0
C2908 C 0.95588 0.53499 0.68533 0.0
C2909 C 0.95779 0.54367 0.71449 0.0
C2910 C 0.96864 0.55117 0.72903 0.0
H2911 H 0.98503 0.5498 0.84494 0.0
H2912 H 0.97766 0.55589 0.81914 0.0
H2913 H 0.97554 0.54262 0.80034 0.0
H2914 H 0.98265 0.5405 0.67365 0.0
H2915 H 0.96391 0.52768 0.64721 0.0
H2916 H 0.41175 0.46118 0.74587 0.0
H2917 H 0.4187 0.44885 0.72228 0.0
H2918 H 0.43497 0.45323 0.84764 0.0
H2919 H 0.42821 0.46567 0.87129 0.0
H2920 H 0.44924 0.45885 0.77748 0.0
H2921 H 0.41193 0.41707 0.75119 0.0
H2922 H 0.41125 0.42835 0.72483 0.0
H2923 H 0.41154 0.4278 0.78383 0.0
C2924 C 0.41657 0.4593 0.76885 0.0
C2925 C 0.41952 0.4645 0.81032 0.0
C2926 C 0.42049 0.4522 0.75536 0.0
C2927 C 0.42731 0.45008 0.78329 0.0
C2928 C 0.42971 0.45474 0.8256 0.0
H2929 H 0.45965 0.41067 0.74439 0.0
H2930 H 0.44704 0.4173 0.76802 0.0
C2931 C 0.42584 0.46187 0.83904 0.0
C2932 C 0.43314 0.44427 0.76664 0.0
H2933 H 0.42923 0.41982 0.72257 0.0
C2934 C 0.44485 0.45029 0.76573 0.0
C2935 C 0.4274 0.43311 0.75142 0.0
C2936 C 0.41484 0.42615 0.75315 0.0
C2937 C 0.451 0.44552 0.74955 0.0
C2938 C 0.44528 0.43447 0.73318 0.0
C2939 C 0.43356 0.42834 0.7347 0.0
C2940 C 0.45149 0.42923 0.71506 0.0
C2941 C 0.4636 0.45231 0.75044 0.0
C2942 C 0.45784 0.43348 0.67663 0.0
C2943 C 0.46507 0.42975 0.66311 0.0
C2944 C 0.46606 0.42167 0.68777 0.0
C2945 C 0.45914 0.41693 0.72478 0.0
C2946 C 0.45191 0.42069 0.73828 0.0
H2947 H 0.46667 0.45968 0.77249 0.0
H2948 H 0.46721 0.44712 0.76148 0.0
H2949 H 0.46673 0.45537 0.71676 0.0
H2950 H 0.45752 0.44 0.65806 0.0
H2951 H 0.47019 0.43351 0.63422 0.0
H2952 H 0.52983 0.96412 0.84907 0.0
H2953 H 0.54331 0.9827 0.82313 0.0
H2954 H 0.56114 0.96922 0.75358 0.0
H2955 H 0.54724 0.95037 0.77777 0.0
H2956 H 0.56479 0.99628 0.83065 0.0
H2957 H 0.55509 0.98433 0.65468 0.0
H2958 H 0.54716 0.97501 0.69869 0.0
H2959 H 0.56065 0.97697 0.68426 0.0
C2960 C 0.53667 0.96508 0.82857 0.0
C2961 C 0.53737 0.95574 0.81499 0.0
C2962 C 0.5444 0.97575 0.81377 0.0
C2963 C 0.55312 0.97736 0.78552 0.0
C2964 C 0.55429 0.96815 0.7742 0.0
H2965 H 0.59622 0.04908 0.72115 0.0
H2966 H 0.59149 0.03027 0.74499 0.0
C2967 C 0.5464 0.95739 0.78835 0.0
C2968 C 0.56046 0.98865 0.76662 0.0
H2969 H 0.56742 0.00317 0.66995 0.0
C2970 C 0.56548 0.9978 0.79548 0.0
C2971 C 0.56132 0.99062 0.72067 0.0
C2972 C 0.55571 0.98124 0.68771 0.0
C2973 C 0.57067 0.00884 0.77995 0.0
C2974 C 0.57131 0.0108 0.73402 0.0
C2975 C 0.56694 0.00166 0.7051 0.0
C2976 C 0.57503 0.02208 0.71547 0.0
C2977 C 0.5747 0.0182 0.81307 0.0
C2978 C 0.56765 0.02366 0.68872 0.0
C2979 C 0.57045 0.0343 0.6741 0.0
C2980 C 0.58064 0.04366 0.68638 0.0
C2981 C 0.58824 0.04204 0.71162 0.0
C2982 C 0.58551 0.03131 0.72556 0.0
H2983 H 0.57131 0.0151 0.84648 0.0
H2984 H 0.58394 0.02251 0.81515 0.0
H2985 H 0.57225 0.02441 0.80315 0.0
H2986 H 0.55952 0.01669 0.68034 0.0
H2987 H 0.56439 0.03524 0.65472 0.0
H2988 H 0.46661 0.03802 0.13117 0.0
H2989 H 0.45376 0.01904 0.15617 0.0
H2990 H 0.44901 0.03195 0.27837 0.0
H2991 H 0.46174 0.05101 0.25339 0.0
H2992 H 0.45876 0.01065 0.22883 0.0
H2993 H 0.41722 0.00716 0.24873 0.0
H2994 H 0.42823 0.01796 0.21595 0.0
H2995 H 0.42849 0.01918 0.27483 0.0
C2996 C 0.46264 0.03686 0.16296 0.0
C2997 C 0.46529 0.04604 0.19044 0.0
C2998 C 0.45529 0.026 0.17718 0.0
C2999 C 0.45039 0.02408 0.21904 0.0
C3000 C 0.45253 0.03324 0.24564 0.0
H3001 H 0.43223 0.96509 0.37417 0.0
H3002 H 0.43886 0.98423 0.34974 0.0
C3003 C 0.45987 0.04413 0.23136 0.0
C3004 C 0.44432 0.01256 0.23685 0.0
H3005 H 0.41949 0.99261 0.2805 0.0
C3006 C 0.45015 0.0067 0.23988 0.0
C3007 C 0.43309 0.00741 0.25119 0.0
C3008 C 0.42633 0.01319 0.24722 0.0
C3009 C 0.44512 0.99587 0.25723 0.0
C3010 C 0.434 0.99083 0.27268 0.0
C3011 C 0.42806 0.99658 0.26911 0.0
C3012 C 0.42846 0.97945 0.29162 0.0
C3013 C 0.45171 0.98987 0.2585 0.0
C3014 C 0.42003 0.97047 0.26808 0.0
C3015 C 0.41619 0.95949 0.28197 0.0
C3016 C 0.42075 0.95735 0.31963 0.0
C3017 C 0.42861 0.96643 0.3448 0.0
C3018 C 0.43242 0.97738 0.33091 0.0
H3019 H 0.45922 0.99394 0.23705 0.0
H3020 H 0.45454 0.9899 0.29269 0.0
H3021 H 0.44646 0.98103 0.24801 0.0
H3022 H 0.41686 0.97192 0.2377 0.0
H3023 H 0.41008 0.9527 0.26193 0.0
H3024 H 0.03788 0.46923 0.36946 0.0
H3025 H 0.01866 0.45629 0.34737 0.0
H3026 H 0.03054 0.448 0.23013 0.0
H3027 H 0.04982 0.46082 0.25226 0.0
H3028 H 0.00984 0.45941 0.27202 0.0
H3029 H 0.00569 0.41737 0.27104 0.0
H3030 H 0.01683 0.42912 0.29965 0.0
H3031 H 0.01758 0.42774 0.24115 0.0
C3032 C 0.03643 0.4645 0.3394 0.0
C3033 C 0.0454 0.46613 0.31247 0.0
C3034 C 0.02543 0.45708 0.32687 0.0
C3035 C 0.02316 0.45112 0.28727 0.0
C3036 C 0.03209 0.45235 0.26124 0.0
H3037 H 0.96434 0.43015 0.12897 0.0
H3038 H 0.98336 0.4371 0.15546 0.0
C3039 C 0.04312 0.45974 0.27383 0.0
C3040 C 0.01152 0.44474 0.27079 0.0
H3041 H 0.99121 0.41908 0.23511 0.0
C3042 C 0.00575 0.45058 0.26427 0.0
C3043 C 0.00619 0.43321 0.26083 0.0
C3044 C 0.01184 0.42645 0.26887 0.0
C3045 C 0.99488 0.44525 0.24738 0.0
C3046 C 0.98967 0.43382 0.23603 0.0
C3047 C 0.99531 0.42788 0.24336 0.0
C3048 C 0.97832 0.42802 0.21689 0.0
C3049 C 0.989 0.45191 0.242 0.0
C3050 C 0.96922 0.42019 0.24183 0.0
C3051 C 0.9583 0.41617 0.22677 0.0
C3052 C 0.95633 0.41993 0.18652 0.0
C3053 C 0.96553 0.42716 0.1603 0.0
C3054 C 0.97642 0.43115 0.17535 0.0
H3055 H 0.99316 0.45984 0.26093 0.0
H3056 H 0.98904 0.454 0.20674 0.0
H3057 H 0.98016 0.44697 0.25287 0.0
H3058 H 0.97054 0.41767 0.27396 0.0
H3059 H 0.95141 0.41057 0.24771 0.0
H3060 H 0.56285 0.52718 0.15101 0.0
H3061 H 0.5579 0.54092 0.17517 0.0
H3062 H 0.58973 0.55955 0.24056 0.0
H3063 H 0.59456 0.54548 0.21799 0.0
H3064 H 0.57422 0.55722 0.29342 0.0
H3065 H 0.56588 0.57129 0.13616 0.0
H3066 H 0.55773 0.55638 0.13863 0.0
H3067 H 0.57278 0.56315 0.13866 0.0
C3068 C 0.5689 0.5343 0.16986 0.0
C3069 C 0.5791 0.53523 0.18258 0.0
C3070 C 0.56609 0.54223 0.18337 0.0
C3071 C 0.57353 0.55143 0.20894 0.0
C3072 C 0.58388 0.55256 0.22061 0.0
H3073 H 0.54506 0.59414 0.27193 0.0
H3074 H 0.55896 0.58928 0.24717 0.0
C3075 C 0.58663 0.54452 0.20767 0.0
C3076 C 0.56994 0.55914 0.22702 0.0
H3077 H 0.55565 0.57247 0.19963 0.0
C3078 C 0.57039 0.56077 0.27274 0.0
C3079 C 0.56521 0.56408 0.20023 0.0
C3080 C 0.5655 0.56373 0.15068 0.0
C3081 C 0.56548 0.56644 0.29256 0.0
C3082 C 0.55961 0.57022 0.26612 0.0
C3083 C 0.55993 0.56937 0.22017 0.0
C3084 C 0.5522 0.57404 0.28535 0.0
C3085 C 0.56654 0.56815 0.34171 0.0
C3086 C 0.54384 0.56718 0.31538 0.0
C3087 C 0.53602 0.57002 0.33004 0.0
C3088 C 0.5362 0.57966 0.31419 0.0
C3089 C 0.54469 0.58666 0.28477 0.0
C3090 C 0.55264 0.58388 0.27056 0.0
H3091 H 0.57457 0.56913 0.35368 0.0
H3092 H 0.56605 0.57562 0.35169 0.0
H3093 H 0.55971 0.56069 0.35816 0.0
H3094 H 0.54305 0.55936 0.3262 0.0
H3095 H 0.52953 0.56437 0.35232 0.0
loop_
_geom_bond_atom_site_label_1
_geom_bond_atom_site_label_2
_geom_bond_distance
_geom_bond_site_symmetry_2
_ccdc_geom_bond_type
O0 Cd1 2.223 . S
O0 C8 1.315 . S
Cd1 O0 2.223 . S
Cd1 O4 2.297 . S
Cd1 O5 2.439 . S
Cd1 O11 2.240 . S
Cd2 O3 2.240 . S
Cd2 O10 2.223 . S
Cd2 O12 2.297 . S
Cd2 O13 2.439 . S
O3 Cd2 2.240 . S
O3 C8 1.279 . S
O4 Cd1 2.297 . S
O4 C6 1.247 . S
O5 Cd1 2.439 . S
O5 C6 1.208 . S
C6 O4 1.247 . S
C6 O5 1.208 . S
C7 O12 1.247 . S
C7 O13 1.208 . S
C8 O0 1.315 . S
C8 O3 1.279 . S
C9 O10 1.315 . S
C9 O11 1.279 . S
O10 Cd2 2.223 . S
O10 C9 1.315 . S
O11 Cd1 2.240 . S
O11 C9 1.279 . S
O12 Cd2 2.297 . S
O12 C7 1.247 . S
O13 Cd2 2.439 . S
O13 C7 1.208 . S
O14 Cd15 2.223 . S
O14 C22 1.315 . S
Cd15 O14 2.223 . S
Cd15 O18 2.297 . S
Cd15 O19 2.439 . S
Cd15 O25 2.240 . S
Cd16 O17 2.240 . S
Cd16 O24 2.223 . S
Cd16 O26 2.297 . S
Cd16 O27 2.439 . S
O17 Cd16 2.240 . S
O17 C22 1.279 . S
O18 Cd15 2.297 . S
O18 C20 1.247 . S
O19 Cd15 2.439 . S
O19 C20 1.208 . S
C20 O18 1.247 . S
C20 O19 1.208 . S
C21 O26 1.247 . S
C21 O27 1.208 . S
C22 O14 1.315 . S
C22 O17 1.279 . S
C23 O24 1.315 . S
C23 O25 1.279 . S
O24 Cd16 2.223 . S
O24 C23 1.315 . S
O25 Cd15 2.240 . S
O25 C23 1.279 . S
O26 Cd16 2.297 . S
O26 C21 1.247 . S
O27 Cd16 2.439 . S
O27 C21 1.208 . S
O28 Cd29 2.223 . S
O28 C36 1.315 . S
Cd29 O28 2.223 . S
Cd29 O32 2.297 . S
Cd29 O33 2.439 . S
Cd29 O39 2.240 . S
Cd30 O31 2.240 . S
Cd30 O38 2.223 . S
Cd30 O40 2.297 . S
Cd30 O41 2.439 . S
O31 Cd30 2.240 . S
O31 C36 1.279 . S
O32 Cd29 2.297 . S
O32 C34 1.247 . S
O33 Cd29 2.439 . S
O33 C34 1.208 . S
C34 O32 1.247 . S
C34 O33 1.208 . S
C35 O40 1.247 . S
C35 O41 1.208 . S
C36 O28 1.315 . S
C36 O31 1.279 . S
C37 O38 1.315 . S
C37 O39 1.279 . S
O38 Cd30 2.223 . S
O38 C37 1.315 . S
O39 Cd29 2.240 . S
O39 C37 1.279 . S
O40 Cd30 2.297 . S
O40 C35 1.247 . S
O41 Cd30 2.439 . S
O41 C35 1.208 . S
O42 Cd43 2.223 . S
O42 C50 1.315 . S
Cd43 O42 2.223 . S
Cd43 O46 2.297 . S
Cd43 O47 2.439 . S
Cd43 O53 2.240 . S
Cd44 O45 2.240 . S
Cd44 O52 2.223 . S
Cd44 O54 2.297 . S
Cd44 O55 2.439 . S
O45 Cd44 2.240 . S
O45 C50 1.279 . S
O46 Cd43 2.297 . S
O46 C48 1.247 . S
O47 Cd43 2.439 . S
O47 C48 1.208 . S
C48 O46 1.247 . S
C48 O47 1.208 . S
C49 O54 1.247 . S
C49 O55 1.208 . S
C50 O42 1.315 . S
C50 O45 1.279 . S
C51 O52 1.315 . S
C51 O53 1.279 . S
O52 Cd44 2.223 . S
O52 C51 1.315 . S
O53 Cd43 2.240 . S
O53 C51 1.279 . S
O54 Cd44 2.297 . S
O54 C49 1.247 . S
O55 Cd44 2.439 . S
O55 C49 1.208 . S
O56 Cd57 2.223 . S
O56 C64 1.315 . S
Cd57 O56 2.223 . S
Cd57 O60 2.297 . S
Cd57 O61 2.439 . S
Cd57 O67 2.240 . S
Cd58 O59 2.240 . S
Cd58 O66 2.223 . S
Cd58 O68 2.297 . S
Cd58 O69 2.439 . S
O59 Cd58 2.240 . S
O59 C64 1.279 . S
O60 Cd57 2.297 . S
O60 C62 1.247 . S
O61 Cd57 2.439 . S
O61 C62 1.208 . S
C62 O60 1.247 . S
C62 O61 1.208 . S
C63 O68 1.247 . S
C63 O69 1.208 . S
C64 O56 1.315 . S
C64 O59 1.279 . S
C65 O66 1.315 . S
C65 O67 1.279 . S
O66 Cd58 2.223 . S
O66 C65 1.315 . S
O67 Cd57 2.240 . S
O67 C65 1.279 . S
O68 Cd58 2.297 . S
O68 C63 1.247 . S
O69 Cd58 2.439 . S
O69 C63 1.208 . S
O70 Cd71 2.223 . S
O70 C78 1.315 . S
Cd71 O70 2.223 . S
Cd71 O74 2.297 . S
Cd71 O75 2.439 . S
Cd71 O81 2.240 . S
Cd72 O73 2.240 . S
Cd72 O80 2.223 . S
Cd72 O82 2.297 . S
Cd72 O83 2.439 . S
O73 Cd72 2.240 . S
O73 C78 1.279 . S
O74 Cd71 2.297 . S
O74 C76 1.247 . S
O75 Cd71 2.439 . S
O75 C76 1.208 . S
C76 O74 1.247 . S
C76 O75 1.208 . S
C77 O82 1.247 . S
C77 O83 1.208 . S
C78 O70 1.315 . S
C78 O73 1.279 . S
C79 O80 1.315 . S
C79 O81 1.279 . S
O80 Cd72 2.223 . S
O80 C79 1.315 . S
O81 Cd71 2.240 . S
O81 C79 1.279 . S
O82 Cd72 2.297 . S
O82 C77 1.247 . S
O83 Cd72 2.439 . S
O83 C77 1.208 . S
O84 Cd85 2.223 . S
O84 C92 1.315 . S
Cd85 O84 2.223 . S
Cd85 O88 2.297 . S
Cd85 O89 2.439 . S
Cd85 O95 2.240 . S
Cd86 O87 2.240 . S
Cd86 O94 2.223 . S
Cd86 O96 2.297 . S
Cd86 O97 2.439 . S
O87 Cd86 2.240 . S
O87 C92 1.279 . S
O88 Cd85 2.297 . S
O88 C90 1.247 . S
O89 Cd85 2.439 . S
O89 C90 1.208 . S
C90 O88 1.247 . S
C90 O89 1.208 . S
C91 O96 1.247 . S
C91 O97 1.208 . S
C92 O84 1.315 . S
C92 O87 1.279 . S
C93 O94 1.315 . S
C93 O95 1.279 . S
O94 Cd86 2.223 . S
O94 C93 1.315 . S
O95 Cd85 2.240 . S
O95 C93 1.279 . S
O96 Cd86 2.297 . S
O96 C91 1.247 . S
O97 Cd86 2.439 . S
O97 C91 1.208 . S
O98 Cd99 2.223 . S
O98 C106 1.315 . S
Cd99 O98 2.223 . S
Cd99 O102 2.297 . S
Cd99 O103 2.439 . S
Cd99 O109 2.240 . S
Cd100 O101 2.240 . S
Cd100 O108 2.223 . S
Cd100 O110 2.297 . S
Cd100 O111 2.439 . S
O101 Cd100 2.240 . S
O101 C106 1.279 . S
O102 Cd99 2.297 . S
O102 C104 1.247 . S
O103 Cd99 2.439 . S
O103 C104 1.208 . S
C104 O102 1.247 . S
C104 O103 1.208 . S
C105 O110 1.247 . S
C105 O111 1.208 . S
C106 O98 1.315 . S
C106 O101 1.279 . S
C107 O108 1.315 . S
C107 O109 1.279 . S
O108 Cd100 2.223 . S
O108 C107 1.315 . S
O109 Cd99 2.240 . S
O109 C107 1.279 . S
O110 Cd100 2.297 . S
O110 C105 1.247 . S
O111 Cd100 2.439 . S
O111 C105 1.208 . S
O112 Cd113 2.223 . S
O112 C120 1.315 . S
Cd113 O112 2.223 . S
Cd113 O116 2.297 . S
Cd113 O117 2.439 . S
Cd113 O123 2.240 . S
Cd114 O115 2.240 . S
Cd114 O122 2.223 . S
Cd114 O124 2.297 . S
Cd114 O125 2.439 . S
O115 Cd114 2.240 . S
O115 C120 1.279 . S
O116 Cd113 2.297 . S
O116 C118 1.247 . S
O117 Cd113 2.439 . S
O117 C118 1.208 . S
C118 O116 1.247 . S
C118 O117 1.208 . S
C119 O124 1.247 . S
C119 O125 1.208 . S
C120 O112 1.315 . S
C120 O115 1.279 . S
C121 O122 1.315 . S
C121 O123 1.279 . S
O122 Cd114 2.223 . S
O122 C121 1.315 . S
O123 Cd113 2.240 . S
O123 C121 1.279 . S
O124 Cd114 2.297 . S
O124 C119 1.247 . S
O125 Cd114 2.439 . S
O125 C119 1.208 . S
O126 Cd127 2.223 . S
O126 C134 1.315 . S
Cd127 O126 2.223 . S
Cd127 O130 2.297 . S
Cd127 O131 2.439 . S
Cd127 O137 2.240 . S
Cd128 O129 2.240 . S
Cd128 O136 2.223 . S
Cd128 O138 2.297 . S
Cd128 O139 2.439 . S
O129 Cd128 2.240 . S
O129 C134 1.279 . S
O130 Cd127 2.297 . S
O130 C132 1.247 . S
O131 Cd127 2.439 . S
O131 C132 1.208 . S
C132 O130 1.247 . S
C132 O131 1.208 . S
C133 O138 1.247 . S
C133 O139 1.208 . S
C134 O126 1.315 . S
C134 O129 1.279 . S
C135 O136 1.315 . S
C135 O137 1.279 . S
O136 Cd128 2.223 . S
O136 C135 1.315 . S
O137 Cd127 2.240 . S
O137 C135 1.279 . S
O138 Cd128 2.297 . S
O138 C133 1.247 . S
O139 Cd128 2.439 . S
O139 C133 1.208 . S
O140 Cd141 2.223 . S
O140 C148 1.315 . S
Cd141 O140 2.223 . S
Cd141 O144 2.297 . S
Cd141 O145 2.439 . S
Cd141 O151 2.240 . S
Cd142 O143 2.240 . S
Cd142 O150 2.223 . S
Cd142 O152 2.297 . S
Cd142 O153 2.439 . S
O143 Cd142 2.240 . S
O143 C148 1.279 . S
O144 Cd141 2.297 . S
O144 C146 1.247 . S
O145 Cd141 2.439 . S
O145 C146 1.208 . S
C146 O144 1.247 . S
C146 O145 1.208 . S
C147 O152 1.247 . S
C147 O153 1.208 . S
C148 O140 1.315 . S
C148 O143 1.279 . S
C149 O150 1.315 . S
C149 O151 1.279 . S
O150 Cd142 2.223 . S
O150 C149 1.315 . S
O151 Cd141 2.240 . S
O151 C149 1.279 . S
O152 Cd142 2.297 . S
O152 C147 1.247 . S
O153 Cd142 2.439 . S
O153 C147 1.208 . S
O154 Cd155 2.223 . S
O154 C162 1.315 . S
Cd155 O154 2.223 . S
Cd155 O158 2.297 . S
Cd155 O159 2.439 . S
Cd155 O165 2.240 . S
Cd156 O157 2.240 . S
Cd156 O164 2.223 . S
Cd156 O166 2.297 . S
Cd156 O167 2.439 . S
O157 Cd156 2.240 . S
O157 C162 1.279 . S
O158 Cd155 2.297 . S
O158 C160 1.247 . S
O159 Cd155 2.439 . S
O159 C160 1.208 . S
C160 O158 1.247 . S
C160 O159 1.208 . S
C161 O166 1.247 . S
C161 O167 1.208 . S
C162 O154 1.315 . S
C162 O157 1.279 . S
C163 O164 1.315 . S
C163 O165 1.279 . S
O164 Cd156 2.223 . S
O164 C163 1.315 . S
O165 Cd155 2.240 . S
O165 C163 1.279 . S
O166 Cd156 2.297 . S
O166 C161 1.247 . S
O167 Cd156 2.439 . S
O167 C161 1.208 . S
O168 Cd169 2.223 . S
O168 C176 1.315 . S
Cd169 O168 2.223 . S
Cd169 O172 2.297 . S
Cd169 O173 2.439 . S
Cd169 O179 2.240 . S
Cd170 O171 2.240 . S
Cd170 O178 2.223 . S
Cd170 O180 2.297 . S
Cd170 O181 2.439 . S
O171 Cd170 2.240 . S
O171 C176 1.279 . S
O172 Cd169 2.297 . S
O172 C174 1.247 . S
O173 Cd169 2.439 . S
O173 C174 1.208 . S
C174 O172 1.247 . S
C174 O173 1.208 . S
C175 O180 1.247 . S
C175 O181 1.208 . S
C176 O168 1.315 . S
C176 O171 1.279 . S
C177 O178 1.315 . S
C177 O179 1.279 . S
O178 Cd170 2.223 . S
O178 C177 1.315 . S
O179 Cd169 2.240 . S
O179 C177 1.279 . S
O180 Cd170 2.297 . S
O180 C175 1.247 . S
O181 Cd170 2.439 . S
O181 C175 1.208 . S
O182 Cd183 2.223 . S
O182 C190 1.315 . S
Cd183 O182 2.223 . S
Cd183 O186 2.297 . S
Cd183 O187 2.439 . S
Cd183 O193 2.240 . S
Cd184 O185 2.240 . S
Cd184 O192 2.223 . S
Cd184 O194 2.297 . S
Cd184 O195 2.439 . S
O185 Cd184 2.240 . S
O185 C190 1.279 . S
O186 Cd183 2.297 . S
O186 C188 1.247 . S
O187 Cd183 2.439 . S
O187 C188 1.208 . S
C188 O186 1.247 . S
C188 O187 1.208 . S
C189 O194 1.247 . S
C189 O195 1.208 . S
C190 O182 1.315 . S
C190 O185 1.279 . S
C191 O192 1.315 . S
C191 O193 1.279 . S
O192 Cd184 2.223 . S
O192 C191 1.315 . S
O193 Cd183 2.240 . S
O193 C191 1.279 . S
O194 Cd184 2.297 . S
O194 C189 1.247 . S
O195 Cd184 2.439 . S
O195 C189 1.208 . S
O196 Cd197 2.223 . S
O196 C204 1.315 . S
Cd197 O196 2.223 . S
Cd197 O200 2.297 . S
Cd197 O201 2.439 . S
Cd197 O207 2.240 . S
Cd198 O199 2.240 . S
Cd198 O206 2.223 . S
Cd198 O208 2.297 . S
Cd198 O209 2.439 . S
O199 Cd198 2.240 . S
O199 C204 1.279 . S
O200 Cd197 2.297 . S
O200 C202 1.247 . S
O201 Cd197 2.439 . S
O201 C202 1.208 . S
C202 O200 1.247 . S
C202 O201 1.208 . S
C203 O208 1.247 . S
C203 O209 1.208 . S
C204 O196 1.315 . S
C204 O199 1.279 . S
C205 O206 1.315 . S
C205 O207 1.279 . S
O206 Cd198 2.223 . S
O206 C205 1.315 . S
O207 Cd197 2.240 . S
O207 C205 1.279 . S
O208 Cd198 2.297 . S
O208 C203 1.247 . S
O209 Cd198 2.439 . S
O209 C203 1.208 . S
O210 Cd211 2.223 . S
O210 C218 1.315 . S
Cd211 O210 2.223 . S
Cd211 O214 2.297 . S
Cd211 O215 2.439 . S
Cd211 O221 2.240 . S
Cd212 O213 2.240 . S
Cd212 O220 2.223 . S
Cd212 O222 2.297 . S
Cd212 O223 2.439 . S
O213 Cd212 2.240 . S
O213 C218 1.279 . S
O214 Cd211 2.297 . S
O214 C216 1.247 . S
O215 Cd211 2.439 . S
O215 C216 1.208 . S
C216 O214 1.247 . S
C216 O215 1.208 . S
C217 O222 1.247 . S
C217 O223 1.208 . S
C218 O210 1.315 . S
C218 O213 1.279 . S
C219 O220 1.315 . S
C219 O221 1.279 . S
O220 Cd212 2.223 . S
O220 C219 1.315 . S
O221 Cd211 2.240 . S
O221 C219 1.279 . S
O222 Cd212 2.297 . S
O222 C217 1.247 . S
O223 Cd212 2.439 . S
O223 C217 1.208 . S
O224 Cd225 2.223 . S
O224 C232 1.315 . S
Cd225 O224 2.223 . S
Cd225 O228 2.297 . S
Cd225 O229 2.439 . S
Cd225 O235 2.240 . S
Cd226 O227 2.240 . S
Cd226 O234 2.223 . S
Cd226 O236 2.297 . S
Cd226 O237 2.439 . S
O227 Cd226 2.240 . S
O227 C232 1.279 . S
O228 Cd225 2.297 . S
O228 C230 1.247 . S
O229 Cd225 2.439 . S
O229 C230 1.208 . S
C230 O228 1.247 . S
C230 O229 1.208 . S
C231 O236 1.247 . S
C231 O237 1.208 . S
C232 O224 1.315 . S
C232 O227 1.279 . S
C233 O234 1.315 . S
C233 O235 1.279 . S
O234 Cd226 2.223 . S
O234 C233 1.315 . S
O235 Cd225 2.240 . S
O235 C233 1.279 . S
O236 Cd226 2.297 . S
O236 C231 1.247 . S
O237 Cd226 2.439 . S
O237 C231 1.208 . S
O238 Cd239 2.223 . S
O238 C246 1.315 . S
Cd239 O238 2.223 . S
Cd239 O242 2.297 . S
Cd239 O243 2.439 . S
Cd239 O249 2.240 . S
Cd240 O241 2.240 . S
Cd240 O248 2.223 . S
Cd240 O250 2.297 . S
Cd240 O251 2.439 . S
O241 Cd240 2.240 . S
O241 C246 1.279 . S
O242 Cd239 2.297 . S
O242 C244 1.247 . S
O243 Cd239 2.439 . S
O243 C244 1.208 . S
C244 O242 1.247 . S
C244 O243 1.208 . S
C245 O250 1.247 . S
C245 O251 1.208 . S
C246 O238 1.315 . S
C246 O241 1.279 . S
C247 O248 1.315 . S
C247 O249 1.279 . S
O248 Cd240 2.223 . S
O248 C247 1.315 . S
O249 Cd239 2.240 . S
O249 C247 1.279 . S
O250 Cd240 2.297 . S
O250 C245 1.247 . S
O251 Cd240 2.439 . S
O251 C245 1.208 . S
O252 Cd253 2.223 . S
O252 C260 1.315 . S
Cd253 O252 2.223 . S
Cd253 O256 2.297 . S
Cd253 O257 2.439 . S
Cd253 O263 2.240 . S
Cd254 O255 2.240 . S
Cd254 O262 2.223 . S
Cd254 O264 2.297 . S
Cd254 O265 2.439 . S
O255 Cd254 2.240 . S
O255 C260 1.279 . S
O256 Cd253 2.297 . S
O256 C258 1.247 . S
O257 Cd253 2.439 . S
O257 C258 1.208 . S
C258 O256 1.247 . S
C258 O257 1.208 . S
C259 O264 1.247 1_556 S
C259 O265 1.208 1_556 S
C260 O252 1.315 . S
C260 O255 1.279 . S
C261 O262 1.315 . S
C261 O263 1.279 . S
O262 Cd254 2.223 . S
O262 C261 1.315 . S
O263 Cd253 2.240 . S
O263 C261 1.279 . S
O264 Cd254 2.297 . S
O264 C259 1.247 1_554 S
O265 Cd254 2.439 . S
O265 C259 1.208 1_554 S
O266 Cd267 2.223 . S
O266 C274 1.315 . S
Cd267 O266 2.223 . S
Cd267 O270 2.297 . S
Cd267 O271 2.439 . S
Cd267 O277 2.240 . S
Cd268 O269 2.240 . S
Cd268 O276 2.223 . S
Cd268 O278 2.297 . S
Cd268 O279 2.439 . S
O269 Cd268 2.240 . S
O269 C274 1.279 . S
O270 Cd267 2.297 . S
O270 C272 1.247 . S
O271 Cd267 2.439 . S
O271 C272 1.208 . S
C272 O270 1.247 . S
C272 O271 1.208 . S
C273 O278 1.247 1_556 S
C273 O279 1.208 1_556 S
C274 O266 1.315 . S
C274 O269 1.279 . S
C275 O276 1.315 . S
C275 O277 1.279 . S
O276 Cd268 2.223 . S
O276 C275 1.315 . S
O277 Cd267 2.240 . S
O277 C275 1.279 . S
O278 Cd268 2.297 . S
O278 C273 1.247 1_554 S
O279 Cd268 2.439 . S
O279 C273 1.208 1_554 S
O280 Cd281 2.223 . S
O280 C288 1.315 . S
Cd281 O280 2.223 . S
Cd281 O284 2.297 . S
Cd281 O285 2.439 . S
Cd281 O291 2.240 . S
Cd282 O283 2.240 . S
Cd282 O290 2.223 . S
Cd282 O292 2.297 . S
Cd282 O293 2.439 . S
O283 Cd282 2.240 . S
O283 C288 1.279 . S
O284 Cd281 2.297 . S
O284 C286 1.247 . S
O285 Cd281 2.439 . S
O285 C286 1.208 . S
C286 O284 1.247 . S
C286 O285 1.208 . S
C287 O292 1.247 1_556 S
C287 O293 1.208 1_556 S
C288 O280 1.315 . S
C288 O283 1.279 . S
C289 O290 1.315 . S
C289 O291 1.279 . S
O290 Cd282 2.223 . S
O290 C289 1.315 . S
O291 Cd281 2.240 . S
O291 C289 1.279 . S
O292 Cd282 2.297 . S
O292 C287 1.247 1_554 S
O293 Cd282 2.439 . S
O293 C287 1.208 1_554 S
O294 Cd295 2.223 . S
O294 C302 1.315 . S
Cd295 O294 2.223 . S
Cd295 O298 2.297 . S
Cd295 O299 2.439 . S
Cd295 O305 2.240 . S
Cd296 O297 2.240 . S
Cd296 O304 2.223 . S
Cd296 O306 2.297 . S
Cd296 O307 2.439 . S
O297 Cd296 2.240 . S
O297 C302 1.279 . S
O298 Cd295 2.297 . S
O298 C300 1.247 . S
O299 Cd295 2.439 . S
O299 C300 1.208 . S
C300 O298 1.247 . S
C300 O299 1.208 . S
C301 O306 1.247 . S
C301 O307 1.208 . S
C302 O294 1.315 . S
C302 O297 1.279 . S
C303 O304 1.315 . S
C303 O305 1.279 . S
O304 Cd296 2.223 . S
O304 C303 1.315 . S
O305 Cd295 2.240 . S
O305 C303 1.279 . S
O306 Cd296 2.297 . S
O306 C301 1.247 . S
O307 Cd296 2.439 . S
O307 C301 1.208 . S
O308 Cd309 2.223 . S
O308 C316 1.315 . S
Cd309 O308 2.223 . S
Cd309 O312 2.297 . S
Cd309 O313 2.439 . S
Cd309 O319 2.240 . S
Cd310 O311 2.240 . S
Cd310 O318 2.223 . S
Cd310 O320 2.297 . S
Cd310 O321 2.439 . S
O311 Cd310 2.240 . S
O311 C316 1.279 . S
O312 Cd309 2.297 . S
O312 C314 1.247 . S
O313 Cd309 2.439 . S
O313 C314 1.208 . S
C314 O312 1.247 . S
C314 O313 1.208 . S
C315 O320 1.247 . S
C315 O321 1.208 . S
C316 O308 1.315 . S
C316 O311 1.279 . S
C317 O318 1.315 . S
C317 O319 1.279 . S
O318 Cd310 2.223 . S
O318 C317 1.315 . S
O319 Cd309 2.240 . S
O319 C317 1.279 . S
O320 Cd310 2.297 . S
O320 C315 1.247 . S
O321 Cd310 2.439 . S
O321 C315 1.208 . S
O322 Cd323 2.223 . S
O322 C330 1.315 . S
Cd323 O322 2.223 . S
Cd323 O326 2.297 . S
Cd323 O327 2.439 . S
Cd323 O333 2.240 . S
Cd324 O325 2.240 . S
Cd324 O332 2.223 . S
Cd324 O334 2.297 . S
Cd324 O335 2.439 . S
O325 Cd324 2.240 . S
O325 C330 1.279 . S
O326 Cd323 2.297 . S
O326 C328 1.247 . S
O327 Cd323 2.439 . S
O327 C328 1.208 . S
C328 O326 1.247 . S
C328 O327 1.208 . S
C329 O334 1.247 . S
C329 O335 1.208 . S
C330 O322 1.315 . S
C330 O325 1.279 . S
C331 O332 1.315 . S
C331 O333 1.279 . S
O332 Cd324 2.223 . S
O332 C331 1.315 . S
O333 Cd323 2.240 . S
O333 C331 1.279 . S
O334 Cd324 2.297 . S
O334 C329 1.247 . S
O335 Cd324 2.439 . S
O335 C329 1.208 . S
O336 Cd337 2.223 . S
O336 C344 1.315 . S
Cd337 O336 2.223 . S
Cd337 O340 2.297 . S
Cd337 O341 2.439 . S
Cd337 O347 2.240 . S
Cd338 O339 2.240 . S
Cd338 O346 2.223 . S
Cd338 O348 2.297 . S
Cd338 O349 2.439 . S
O339 Cd338 2.240 . S
O339 C344 1.279 . S
O340 Cd337 2.297 . S
O340 C342 1.247 . S
O341 Cd337 2.439 . S
O341 C342 1.208 . S
C342 O340 1.247 . S
C342 O341 1.208 . S
C343 O348 1.247 1_554 S
C343 O349 1.208 1_554 S
C344 O336 1.315 . S
C344 O339 1.279 . S
C345 O346 1.315 . S
C345 O347 1.279 . S
O346 Cd338 2.223 . S
O346 C345 1.315 . S
O347 Cd337 2.240 . S
O347 C345 1.279 . S
O348 Cd338 2.297 . S
O348 C343 1.247 1_556 S
O349 Cd338 2.439 . S
O349 C343 1.208 1_556 S
O350 Cd351 2.223 . S
O350 C358 1.315 . S
Cd351 O350 2.223 . S
Cd351 O354 2.297 . S
Cd351 O355 2.439 . S
Cd351 O361 2.240 . S
Cd352 O353 2.240 . S
Cd352 O360 2.223 . S
Cd352 O362 2.297 . S
Cd352 O363 2.439 . S
O353 Cd352 2.240 . S
O353 C358 1.279 . S
O354 Cd351 2.297 . S
O354 C356 1.247 . S
O355 Cd351 2.439 . S
O355 C356 1.208 . S
C356 O354 1.247 . S
C356 O355 1.208 . S
C357 O362 1.247 1_554 S
C357 O363 1.208 1_554 S
C358 O350 1.315 . S
C358 O353 1.279 . S
C359 O360 1.315 . S
C359 O361 1.279 . S
O360 Cd352 2.223 . S
O360 C359 1.315 . S
O361 Cd351 2.240 . S
O361 C359 1.279 . S
O362 Cd352 2.297 . S
O362 C357 1.247 1_556 S
O363 Cd352 2.439 . S
O363 C357 1.208 1_556 S
O364 Cd365 2.223 . S
O364 C372 1.315 . S
Cd365 O364 2.223 . S
Cd365 O368 2.297 . S
Cd365 O369 2.439 . S
Cd365 O375 2.240 . S
Cd366 O367 2.240 . S
Cd366 O374 2.223 . S
Cd366 O376 2.297 . S
Cd366 O377 2.439 . S
O367 Cd366 2.240 . S
O367 C372 1.279 . S
O368 Cd365 2.297 . S
O368 C370 1.247 . S
O369 Cd365 2.439 . S
O369 C370 1.208 . S
C370 O368 1.247 . S
C370 O369 1.208 . S
C371 O376 1.247 1_554 S
C371 O377 1.208 1_554 S
C372 O364 1.315 . S
C372 O367 1.279 . S
C373 O374 1.315 . S
C373 O375 1.279 . S
O374 Cd366 2.223 . S
O374 C373 1.315 . S
O375 Cd365 2.240 . S
O375 C373 1.279 . S
O376 Cd366 2.297 . S
O376 C371 1.247 1_556 S
O377 Cd366 2.439 . S
O377 C371 1.208 1_556 S
O378 Cd379 2.223 . S
O378 C386 1.315 . S
Cd379 O378 2.223 . S
Cd379 O382 2.297 . S
Cd379 O383 2.439 . S
Cd379 O389 2.240 . S
Cd380 O381 2.240 . S
Cd380 O388 2.223 . S
Cd380 O390 2.297 . S
Cd380 O391 2.439 . S
O381 Cd380 2.240 . S
O381 C386 1.279 . S
O382 Cd379 2.297 . S
O382 C384 1.247 . S
O383 Cd379 2.439 . S
O383 C384 1.208 . S
C384 O382 1.247 . S
C384 O383 1.208 . S
C385 O390 1.247 . S
C385 O391 1.208 . S
C386 O378 1.315 . S
C386 O381 1.279 . S
C387 O388 1.315 . S
C387 O389 1.279 . S
O388 Cd380 2.223 . S
O388 C387 1.315 . S
O389 Cd379 2.240 . S
O389 C387 1.279 . S
O390 Cd380 2.297 . S
O390 C385 1.247 . S
O391 Cd380 2.439 . S
O391 C385 1.208 . S
O392 Cd393 2.223 . S
O392 C400 1.315 . S
Cd393 O392 2.223 . S
Cd393 O396 2.297 . S
Cd393 O397 2.439 . S
Cd393 O403 2.240 . S
Cd394 O395 2.240 . S
Cd394 O402 2.223 . S
Cd394 O404 2.297 . S
Cd394 O405 2.439 . S
O395 Cd394 2.240 . S
O395 C400 1.279 . S
O396 Cd393 2.297 . S
O396 C398 1.247 . S
O397 Cd393 2.439 . S
O397 C398 1.208 . S
C398 O396 1.247 . S
C398 O397 1.208 . S
C399 O404 1.247 . S
C399 O405 1.208 . S
C400 O392 1.315 . S
C400 O395 1.279 . S
C401 O402 1.315 . S
C401 O403 1.279 . S
O402 Cd394 2.223 . S
O402 C401 1.315 . S
O403 Cd393 2.240 . S
O403 C401 1.279 . S
O404 Cd394 2.297 . S
O404 C399 1.247 . S
O405 Cd394 2.439 . S
O405 C399 1.208 . S
O406 Cd407 2.223 . S
O406 C414 1.315 . S
Cd407 O406 2.223 . S
Cd407 O410 2.297 . S
Cd407 O411 2.439 . S
Cd407 O417 2.240 . S
Cd408 O409 2.240 . S
Cd408 O416 2.223 . S
Cd408 O418 2.297 . S
Cd408 O419 2.439 . S
O409 Cd408 2.240 . S
O409 C414 1.279 . S
O410 Cd407 2.297 . S
O410 C412 1.247 . S
O411 Cd407 2.439 . S
O411 C412 1.208 . S
C412 O410 1.247 . S
C412 O411 1.208 . S
C413 O418 1.247 . S
C413 O419 1.208 . S
C414 O406 1.315 . S
C414 O409 1.279 . S
C415 O416 1.315 . S
C415 O417 1.279 . S
O416 Cd408 2.223 . S
O416 C415 1.315 . S
O417 Cd407 2.240 . S
O417 C415 1.279 . S
O418 Cd408 2.297 . S
O418 C413 1.247 . S
O419 Cd408 2.439 . S
O419 C413 1.208 . S
O420 Cd421 2.223 . S
O420 C428 1.315 . S
Cd421 O420 2.223 . S
Cd421 O424 2.297 . S
Cd421 O425 2.439 . S
Cd421 O431 2.240 . S
Cd422 O423 2.240 . S
Cd422 O430 2.223 . S
Cd422 O432 2.297 . S
Cd422 O433 2.439 . S
O423 Cd422 2.240 . S
O423 C428 1.279 . S
O424 Cd421 2.297 . S
O424 C426 1.247 . S
O425 Cd421 2.439 . S
O425 C426 1.208 . S
C426 O424 1.247 . S
C426 O425 1.208 . S
C427 O432 1.247 . S
C427 O433 1.208 . S
C428 O420 1.315 . S
C428 O423 1.279 . S
C429 O430 1.315 . S
C429 O431 1.279 . S
O430 Cd422 2.223 . S
O430 C429 1.315 . S
O431 Cd421 2.240 . S
O431 C429 1.279 . S
O432 Cd422 2.297 . S
O432 C427 1.247 . S
O433 Cd422 2.439 . S
O433 C427 1.208 . S
O434 Cd435 2.223 . S
O434 C442 1.315 . S
Cd435 O434 2.223 . S
Cd435 O438 2.297 . S
Cd435 O439 2.439 . S
Cd435 O445 2.240 . S
Cd436 O437 2.240 . S
Cd436 O444 2.223 . S
Cd436 O446 2.297 . S
Cd436 O447 2.439 . S
O437 Cd436 2.240 . S
O437 C442 1.279 . S
O438 Cd435 2.297 . S
O438 C440 1.247 . S
O439 Cd435 2.439 . S
O439 C440 1.208 . S
C440 O438 1.247 . S
C440 O439 1.208 . S
C441 O446 1.247 . S
C441 O447 1.208 . S
C442 O434 1.315 . S
C442 O437 1.279 . S
C443 O444 1.315 . S
C443 O445 1.279 . S
O444 Cd436 2.223 . S
O444 C443 1.315 . S
O445 Cd435 2.240 . S
O445 C443 1.279 . S
O446 Cd436 2.297 . S
O446 C441 1.247 . S
O447 Cd436 2.439 . S
O447 C441 1.208 . S
O448 Cd449 2.223 . S
O448 C456 1.315 . S
Cd449 O448 2.223 . S
Cd449 O452 2.297 . S
Cd449 O453 2.439 . S
Cd449 O459 2.240 . S
Cd450 O451 2.240 . S
Cd450 O458 2.223 . S
Cd450 O460 2.297 . S
Cd450 O461 2.439 . S
O451 Cd450 2.240 . S
O451 C456 1.279 . S
O452 Cd449 2.297 . S
O452 C454 1.247 . S
O453 Cd449 2.439 . S
O453 C454 1.208 . S
C454 O452 1.247 . S
C454 O453 1.208 . S
C455 O460 1.247 . S
C455 O461 1.208 . S
C456 O448 1.315 . S
C456 O451 1.279 . S
C457 O458 1.315 . S
C457 O459 1.279 . S
O458 Cd450 2.223 . S
O458 C457 1.315 . S
O459 Cd449 2.240 . S
O459 C457 1.279 . S
O460 Cd450 2.297 . S
O460 C455 1.247 . S
O461 Cd450 2.439 . S
O461 C455 1.208 . S
O462 Cd463 2.223 . S
O462 C470 1.315 . S
Cd463 O462 2.223 . S
Cd463 O466 2.297 . S
Cd463 O467 2.439 . S
Cd463 O473 2.240 . S
Cd464 O465 2.240 . S
Cd464 O472 2.223 . S
Cd464 O474 2.297 . S
Cd464 O475 2.439 . S
O465 Cd464 2.240 . S
O465 C470 1.279 . S
O466 Cd463 2.297 . S
O466 C468 1.247 . S
O467 Cd463 2.439 . S
O467 C468 1.208 . S
C468 O466 1.247 . S
C468 O467 1.208 . S
C469 O474 1.247 . S
C469 O475 1.208 . S
C470 O462 1.315 . S
C470 O465 1.279 . S
C471 O472 1.315 . S
C471 O473 1.279 . S
O472 Cd464 2.223 . S
O472 C471 1.315 . S
O473 Cd463 2.240 . S
O473 C471 1.279 . S
O474 Cd464 2.297 . S
O474 C469 1.247 . S
O475 Cd464 2.439 . S
O475 C469 1.208 . S
O476 Cd477 2.223 . S
O476 C484 1.315 . S
Cd477 O476 2.223 . S
Cd477 O480 2.297 . S
Cd477 O481 2.439 . S
Cd477 O487 2.240 . S
Cd478 O479 2.240 . S
Cd478 O486 2.223 . S
Cd478 O488 2.297 . S
Cd478 O489 2.439 . S
O479 Cd478 2.240 . S
O479 C484 1.279 . S
O480 Cd477 2.297 . S
O480 C482 1.247 . S
O481 Cd477 2.439 . S
O481 C482 1.208 . S
C482 O480 1.247 . S
C482 O481 1.208 . S
C483 O488 1.247 . S
C483 O489 1.208 . S
C484 O476 1.315 . S
C484 O479 1.279 . S
C485 O486 1.315 . S
C485 O487 1.279 . S
O486 Cd478 2.223 . S
O486 C485 1.315 . S
O487 Cd477 2.240 . S
O487 C485 1.279 . S
O488 Cd478 2.297 . S
O488 C483 1.247 . S
O489 Cd478 2.439 . S
O489 C483 1.208 . S
O490 Cd491 2.223 . S
O490 C498 1.315 . S
Cd491 O490 2.223 . S
Cd491 O494 2.297 . S
Cd491 O495 2.439 . S
Cd491 O501 2.240 . S
Cd492 O493 2.240 . S
Cd492 O500 2.223 . S
Cd492 O502 2.297 . S
Cd492 O503 2.439 . S
O493 Cd492 2.240 . S
O493 C498 1.279 . S
O494 Cd491 2.297 . S
O494 C496 1.247 . S
O495 Cd491 2.439 . S
O495 C496 1.208 . S
C496 O494 1.247 . S
C496 O495 1.208 . S
C497 O502 1.247 . S
C497 O503 1.208 . S
C498 O490 1.315 . S
C498 O493 1.279 . S
C499 O500 1.315 . S
C499 O501 1.279 . S
O500 Cd492 2.223 . S
O500 C499 1.315 . S
O501 Cd491 2.240 . S
O501 C499 1.279 . S
O502 Cd492 2.297 . S
O502 C497 1.247 . S
O503 Cd492 2.439 . S
O503 C497 1.208 . S
H504 C512 0.929 . S
H505 C514 0.930 . S
H506 C516 0.930 . S
H507 C519 0.929 . S
H508 C522 0.930 . S
H509 C524 0.960 . S
H510 C524 0.960 . S
H511 C524 0.960 . S
C512 H504 0.929 . S
C512 C513 1.377 . S
C512 C514 1.384 . S
C513 C512 1.377 . S
C513 C519 1.390 . S
C514 H505 0.930 . S
C514 C512 1.384 . S
C514 C515 1.372 . S
C515 C514 1.372 . S
C515 C516 1.400 . S
C515 C520 1.490 . S
C516 H506 0.930 . S
C516 C515 1.400 . S
C516 C519 1.386 . S
H517 C533 0.930 . S
H518 C534 0.931 . S
C519 H507 0.929 . S
C519 C513 1.390 . S
C519 C516 1.386 . S
C520 C515 1.490 . S
C520 C522 1.395 . S
C520 C523 1.403 . S
H521 C527 0.930 . S
C522 H508 0.930 . S
C522 C520 1.395 . S
C522 C525 1.403 . S
C523 C520 1.403 . S
C523 C524 1.524 . S
C523 C527 1.400 . S
C524 H509 0.960 . S
C524 H510 0.960 . S
C524 H511 0.960 . S
C524 C523 1.524 . S
C525 C522 1.403 . S
C525 C526 1.392 . S
C525 C529 1.495 . S
C526 C525 1.392 . S
C526 C527 1.385 . S
C526 C528 1.478 . S
C527 H521 0.930 . S
C527 C523 1.400 . S
C527 C526 1.385 . S
C528 C526 1.478 . S
C528 C530 1.381 . S
C528 C534 1.383 . S
C529 C525 1.495 . S
C529 H535 0.959 . S
C529 H536 0.961 . S
C529 H537 0.960 . S
C530 C528 1.381 . S
C530 C531 1.394 . S
C530 H538 0.930 . S
C531 C530 1.394 . S
C531 C532 1.383 . S
C531 H539 0.929 . S
C532 C531 1.383 . S
C532 C533 1.377 . S
C533 H517 0.930 . S
C533 C532 1.377 . S
C533 C534 1.379 . S
C534 H518 0.931 . S
C534 C528 1.383 . S
C534 C533 1.379 . S
H535 C529 0.959 . S
H536 C529 0.961 . S
H537 C529 0.960 . S
H538 C530 0.930 . S
H539 C531 0.929 . S
H540 C548 0.929 . S
H541 C550 0.930 . S
H542 C552 0.930 . S
H543 C555 0.929 . S
H544 C558 0.930 . S
H545 C560 0.960 . S
H546 C560 0.960 . S
H547 C560 0.960 . S
C548 H540 0.929 . S
C548 C549 1.377 . S
C548 C550 1.384 . S
C549 C548 1.377 . S
C549 C555 1.390 . S
C550 H541 0.930 . S
C550 C548 1.384 . S
C550 C551 1.372 . S
C551 C550 1.372 . S
C551 C552 1.400 . S
C551 C556 1.490 . S
C552 H542 0.930 . S
C552 C551 1.400 . S
C552 C555 1.386 . S
H553 C569 0.930 . S
H554 C570 0.931 . S
C555 H543 0.929 . S
C555 C549 1.390 . S
C555 C552 1.386 . S
C556 C551 1.490 . S
C556 C558 1.395 . S
C556 C559 1.403 . S
H557 C563 0.930 . S
C558 H544 0.930 . S
C558 C556 1.395 . S
C558 C561 1.403 1_545 S
C559 C556 1.403 . S
C559 C560 1.524 . S
C559 C563 1.400 1_545 S
C560 H545 0.960 . S
C560 H546 0.960 . S
C560 H547 0.960 . S
C560 C559 1.524 . S
C561 C558 1.403 1_565 S
C561 C562 1.392 . S
C561 C565 1.495 . S
C562 C561 1.392 . S
C562 C563 1.385 . S
C562 C564 1.478 . S
C563 H557 0.930 . S
C563 C559 1.400 1_565 S
C563 C562 1.385 . S
C564 C562 1.478 . S
C564 C566 1.381 . S
C564 C570 1.383 . S
C565 C561 1.495 . S
C565 H571 0.959 . S
C565 H572 0.961 . S
C565 H573 0.960 . S
C566 C564 1.381 . S
C566 C567 1.394 . S
C566 H574 0.930 . S
C567 C566 1.394 . S
C567 C568 1.383 . S
C567 H575 0.929 . S
C568 C567 1.383 . S
C568 C569 1.377 . S
C569 H553 0.930 . S
C569 C568 1.377 . S
C569 C570 1.379 . S
C570 H554 0.931 . S
C570 C564 1.383 . S
C570 C569 1.379 . S
H571 C565 0.959 . S
H572 C565 0.961 . S
H573 C565 0.960 . S
H574 C566 0.930 . S
H575 C567 0.929 . S
H576 C584 0.929 . S
H577 C586 0.930 . S
H578 C588 0.930 . S
H579 C591 0.929 . S
H580 C594 0.930 . S
H581 C596 0.960 . S
H582 C596 0.960 . S
H583 C596 0.960 . S
C584 H576 0.929 . S
C584 C585 1.377 . S
C584 C586 1.384 . S
C585 C584 1.377 . S
C585 C591 1.390 . S
C586 H577 0.930 . S
C586 C584 1.384 . S
C586 C587 1.372 . S
C587 C586 1.372 . S
C587 C588 1.400 . S
C587 C592 1.490 . S
C588 H578 0.930 . S
C588 C587 1.400 . S
C588 C591 1.386 . S
H589 C605 0.930 . S
H590 C606 0.931 . S
C591 H579 0.929 . S
C591 C585 1.390 . S
C591 C588 1.386 . S
C592 C587 1.490 . S
C592 C594 1.395 . S
C592 C595 1.403 . S
H593 C599 0.930 . S
C594 H580 0.930 . S
C594 C592 1.395 . S
C594 C597 1.403 1_655 S
C595 C592 1.403 . S
C595 C596 1.524 . S
C595 C599 1.400 1_655 S
C596 H581 0.960 . S
C596 H582 0.960 . S
C596 H583 0.960 . S
C596 C595 1.524 . S
C597 C594 1.403 1_455 S
C597 C598 1.392 . S
C597 C601 1.495 . S
C598 C597 1.392 . S
C598 C599 1.385 . S
C598 C600 1.478 . S
C599 H593 0.930 . S
C599 C595 1.400 1_455 S
C599 C598 1.385 . S
C600 C598 1.478 . S
C600 C602 1.381 . S
C600 C606 1.383 . S
C601 C597 1.495 . S
C601 H607 0.959 . S
C601 H608 0.961 . S
C601 H609 0.960 . S
C602 C600 1.381 . S
C602 C603 1.394 . S
C602 H610 0.930 . S
C603 C602 1.394 . S
C603 C604 1.383 . S
C603 H611 0.929 . S
C604 C603 1.383 . S
C604 C605 1.377 . S
C605 H589 0.930 . S
C605 C604 1.377 . S
C605 C606 1.379 . S
C606 H590 0.931 . S
C606 C600 1.383 . S
C606 C605 1.379 . S
H607 C601 0.959 . S
H608 C601 0.961 . S
H609 C601 0.960 . S
H610 C602 0.930 . S
H611 C603 0.929 . S
H612 C620 0.929 . S
H613 C622 0.930 . S
H614 C624 0.930 . S
H615 C627 0.929 . S
H616 C630 0.930 . S
H617 C632 0.960 . S
H618 C632 0.960 . S
H619 C632 0.960 . S
C620 H612 0.929 . S
C620 C621 1.377 . S
C620 C622 1.384 . S
C621 C620 1.377 . S
C621 C627 1.390 . S
C622 H613 0.930 . S
C622 C620 1.384 . S
C622 C623 1.372 . S
C623 C622 1.372 . S
C623 C624 1.400 . S
C623 C628 1.490 . S
C624 H614 0.930 . S
C624 C623 1.400 . S
C624 C627 1.386 . S
H625 C641 0.930 . S
H626 C642 0.931 . S
C627 H615 0.929 . S
C627 C621 1.390 . S
C627 C624 1.386 . S
C628 C623 1.490 . S
C628 C630 1.395 . S
C628 C631 1.403 . S
H629 C635 0.930 . S
C630 H616 0.930 . S
C630 C628 1.395 . S
C630 C633 1.403 . S
C631 C628 1.403 . S
C631 C632 1.524 . S
C631 C635 1.400 . S
C632 H617 0.960 . S
C632 H618 0.960 . S
C632 H619 0.960 . S
C632 C631 1.524 . S
C633 C630 1.403 . S
C633 C634 1.392 . S
C633 C637 1.495 . S
C634 C633 1.392 . S
C634 C635 1.385 . S
C634 C636 1.478 . S
C635 H629 0.930 . S
C635 C631 1.400 . S
C635 C634 1.385 . S
C636 C634 1.478 . S
C636 C638 1.381 . S
C636 C642 1.383 . S
C637 C633 1.495 . S
C637 H643 0.959 . S
C637 H644 0.961 . S
C637 H645 0.960 . S
C638 C636 1.381 . S
C638 C639 1.394 . S
C638 H646 0.930 . S
C639 C638 1.394 . S
C639 C640 1.383 . S
C639 H647 0.929 . S
C640 C639 1.383 . S
C640 C641 1.377 . S
C641 H625 0.930 . S
C641 C640 1.377 . S
C641 C642 1.379 . S
C642 H626 0.931 . S
C642 C636 1.383 . S
C642 C641 1.379 . S
H643 C637 0.959 . S
H644 C637 0.961 . S
H645 C637 0.960 . S
H646 C638 0.930 . S
H647 C639 0.929 . S
H648 C656 0.929 . S
H649 C658 0.930 . S
H650 C660 0.930 . S
H651 C663 0.929 . S
H652 C666 0.930 . S
H653 C668 0.960 . S
H654 C668 0.960 . S
H655 C668 0.960 . S
C656 H648 0.929 . S
C656 C657 1.377 . S
C656 C658 1.384 . S
C657 C656 1.377 . S
C657 C663 1.390 . S
C658 H649 0.930 . S
C658 C656 1.384 . S
C658 C659 1.372 . S
C659 C658 1.372 . S
C659 C660 1.400 . S
C659 C664 1.490 . S
C660 H650 0.930 . S
C660 C659 1.400 . S
C660 C663 1.386 . S
H661 C677 0.930 . S
H662 C678 0.931 . S
C663 H651 0.929 . S
C663 C657 1.390 . S
C663 C660 1.386 . S
C664 C659 1.490 . S
C664 C666 1.395 . S
C664 C667 1.403 . S
H665 C671 0.930 . S
C666 H652 0.930 . S
C666 C664 1.395 . S
C666 C669 1.403 1_545 S
C667 C664 1.403 . S
C667 C668 1.524 . S
C667 C671 1.400 1_545 S
C668 H653 0.960 . S
C668 H654 0.960 . S
C668 H655 0.960 . S
C668 C667 1.524 . S
C669 C666 1.403 1_565 S
C669 C670 1.392 . S
C669 C673 1.495 . S
C670 C669 1.392 . S
C670 C671 1.385 . S
C670 C672 1.478 . S
C671 H665 0.930 . S
C671 C667 1.400 1_565 S
C671 C670 1.385 . S
C672 C670 1.478 . S
C672 C674 1.381 . S
C672 C678 1.383 . S
C673 C669 1.495 . S
C673 H679 0.959 . S
C673 H680 0.961 . S
C673 H681 0.960 . S
C674 C672 1.381 . S
C674 C675 1.394 . S
C674 H682 0.930 . S
C675 C674 1.394 . S
C675 C676 1.383 . S
C675 H683 0.929 . S
C676 C675 1.383 . S
C676 C677 1.377 . S
C677 H661 0.930 . S
C677 C676 1.377 . S
C677 C678 1.379 . S
C678 H662 0.931 . S
C678 C672 1.383 . S
C678 C677 1.379 . S
H679 C673 0.959 . S
H680 C673 0.961 . S
H681 C673 0.960 . S
H682 C674 0.930 . S
H683 C675 0.929 . S
H684 C692 0.929 . S
H685 C694 0.930 . S
H686 C696 0.930 . S
H687 C699 0.929 . S
H688 C702 0.930 . S
H689 C704 0.960 . S
H690 C704 0.960 . S
H691 C704 0.960 . S
C692 H684 0.929 . S
C692 C693 1.377 . S
C692 C694 1.384 . S
C693 C692 1.377 . S
C693 C699 1.390 . S
C694 H685 0.930 . S
C694 C692 1.384 . S
C694 C695 1.372 . S
C695 C694 1.372 . S
C695 C696 1.400 . S
C695 C700 1.490 . S
C696 H686 0.930 . S
C696 C695 1.400 . S
C696 C699 1.386 . S
H697 C713 0.930 . S
H698 C714 0.931 . S
C699 H687 0.929 . S
C699 C693 1.390 . S
C699 C696 1.386 . S
C700 C695 1.490 . S
C700 C702 1.395 . S
C700 C703 1.403 . S
H701 C707 0.930 . S
C702 H688 0.930 . S
C702 C700 1.395 . S
C702 C705 1.403 1_455 S
C703 C700 1.403 . S
C703 C704 1.524 . S
C703 C707 1.400 1_455 S
C704 H689 0.960 . S
C704 H690 0.960 . S
C704 H691 0.960 . S
C704 C703 1.524 . S
C705 C702 1.403 1_655 S
C705 C706 1.392 . S
C705 C709 1.495 . S
C706 C705 1.392 . S
C706 C707 1.385 . S
C706 C708 1.478 . S
C707 H701 0.930 . S
C707 C703 1.400 1_655 S
C707 C706 1.385 . S
C708 C706 1.478 . S
C708 C710 1.381 . S
C708 C714 1.383 . S
C709 C705 1.495 . S
C709 H715 0.959 . S
C709 H716 0.961 . S
C709 H717 0.960 . S
C710 C708 1.381 . S
C710 C711 1.394 . S
C710 H718 0.930 . S
C711 C710 1.394 . S
C711 C712 1.383 . S
C711 H719 0.929 . S
C712 C711 1.383 . S
C712 C713 1.377 . S
C713 H697 0.930 . S
C713 C712 1.377 . S
C713 C714 1.379 . S
C714 H698 0.931 . S
C714 C708 1.383 . S
C714 C713 1.379 . S
H715 C709 0.959 . S
H716 C709 0.961 . S
H717 C709 0.960 . S
H718 C710 0.930 . S
H719 C711 0.929 . S
H720 C728 0.929 . S
H721 C730 0.930 . S
H722 C732 0.930 . S
H723 C735 0.929 . S
H724 C738 0.930 . S
H725 C740 0.960 . S
H726 C740 0.960 . S
H727 C740 0.960 . S
C728 H720 0.929 . S
C728 C729 1.377 . S
C728 C730 1.384 . S
C729 C728 1.377 . S
C729 C735 1.390 . S
C730 H721 0.930 . S
C730 C728 1.384 . S
C730 C731 1.372 . S
C731 C730 1.372 . S
C731 C732 1.400 . S
C731 C736 1.490 . S
C732 H722 0.930 . S
C732 C731 1.400 . S
C732 C735 1.386 . S
H733 C749 0.930 . S
H734 C750 0.931 . S
C735 H723 0.929 . S
C735 C729 1.390 . S
C735 C732 1.386 . S
C736 C731 1.490 . S
C736 C738 1.395 . S
C736 C739 1.403 . S
H737 C743 0.930 . S
C738 H724 0.930 . S
C738 C736 1.395 . S
C738 C741 1.403 . S
C739 C736 1.403 . S
C739 C740 1.524 . S
C739 C743 1.400 . S
C740 H725 0.960 . S
C740 H726 0.960 . S
C740 H727 0.960 . S
C740 C739 1.524 . S
C741 C738 1.403 . S
C741 C742 1.392 . S
C741 C745 1.495 . S
C742 C741 1.392 . S
C742 C743 1.385 . S
C742 C744 1.478 . S
C743 H737 0.930 . S
C743 C739 1.400 . S
C743 C742 1.385 . S
C744 C742 1.478 . S
C744 C746 1.381 . S
C744 C750 1.383 . S
C745 C741 1.495 . S
C745 H751 0.959 . S
C745 H752 0.961 . S
C745 H753 0.960 . S
C746 C744 1.381 . S
C746 C747 1.394 . S
C746 H754 0.930 . S
C747 C746 1.394 . S
C747 C748 1.383 . S
C747 H755 0.929 . S
C748 C747 1.383 . S
C748 C749 1.377 . S
C749 H733 0.930 . S
C749 C748 1.377 . S
C749 C750 1.379 . S
C750 H734 0.931 . S
C750 C744 1.383 . S
C750 C749 1.379 . S
H751 C745 0.959 . S
H752 C745 0.961 . S
H753 C745 0.960 . S
H754 C746 0.930 . S
H755 C747 0.929 . S
H756 C764 0.929 . S
H757 C766 0.930 . S
H758 C768 0.930 . S
H759 C771 0.929 . S
H760 C774 0.930 . S
H761 C776 0.960 . S
H762 C776 0.960 . S
H763 C776 0.960 . S
C764 H756 0.929 . S
C764 C765 1.377 . S
C764 C766 1.384 . S
C765 C764 1.377 . S
C765 C771 1.390 . S
C766 H757 0.930 . S
C766 C764 1.384 . S
C766 C767 1.372 . S
C767 C766 1.372 . S
C767 C768 1.400 . S
C767 C772 1.490 . S
C768 H758 0.930 . S
C768 C767 1.400 . S
C768 C771 1.386 . S
H769 C785 0.930 . S
H770 C786 0.931 . S
C771 H759 0.929 . S
C771 C765 1.390 . S
C771 C768 1.386 . S
C772 C767 1.490 . S
C772 C774 1.395 . S
C772 C775 1.403 . S
H773 C779 0.930 . S
C774 H760 0.930 . S
C774 C772 1.395 . S
C774 C777 1.403 . S
C775 C772 1.403 . S
C775 C776 1.524 . S
C775 C779 1.400 . S
C776 H761 0.960 . S
C776 H762 0.960 . S
C776 H763 0.960 . S
C776 C775 1.524 . S
C777 C774 1.403 . S
C777 C778 1.392 . S
C777 C781 1.495 . S
C778 C777 1.392 . S
C778 C779 1.385 . S
C778 C780 1.478 . S
C779 H773 0.930 . S
C779 C775 1.400 . S
C779 C778 1.385 . S
C780 C778 1.478 . S
C780 C782 1.381 . S
C780 C786 1.383 . S
C781 C777 1.495 . S
C781 H787 0.959 . S
C781 H788 0.961 . S
C781 H789 0.960 . S
C782 C780 1.381 . S
C782 C783 1.394 . S
C782 H790 0.930 . S
C783 C782 1.394 . S
C783 C784 1.383 . S
C783 H791 0.929 . S
C784 C783 1.383 . S
C784 C785 1.377 . S
C785 H769 0.930 . S
C785 C784 1.377 . S
C785 C786 1.379 . S
C786 H770 0.931 . S
C786 C780 1.383 . S
C786 C785 1.379 . S
H787 C781 0.959 . S
H788 C781 0.961 . S
H789 C781 0.960 . S
H790 C782 0.930 . S
H791 C783 0.929 . S
H792 C800 0.929 . S
H793 C802 0.930 . S
H794 C804 0.930 . S
H795 C807 0.929 . S
H796 C810 0.930 . S
H797 C812 0.960 . S
H798 C812 0.960 . S
H799 C812 0.960 . S
C800 H792 0.929 . S
C800 C801 1.377 . S
C800 C802 1.384 . S
C801 C800 1.377 . S
C801 C807 1.390 . S
C802 H793 0.930 . S
C802 C800 1.384 . S
C802 C803 1.372 . S
C803 C802 1.372 . S
C803 C804 1.400 . S
C803 C808 1.490 . S
C804 H794 0.930 . S
C804 C803 1.400 . S
C804 C807 1.386 . S
H805 C821 0.930 . S
H806 C822 0.931 . S
C807 H795 0.929 . S
C807 C801 1.390 . S
C807 C804 1.386 . S
C808 C803 1.490 . S
C808 C810 1.395 . S
C808 C811 1.403 . S
H809 C815 0.930 . S
C810 H796 0.930 . S
C810 C808 1.395 . S
C810 C813 1.403 . S
C811 C808 1.403 . S
C811 C812 1.524 . S
C811 C815 1.400 . S
C812 H797 0.960 . S
C812 H798 0.960 . S
C812 H799 0.960 . S
C812 C811 1.524 . S
C813 C810 1.403 . S
C813 C814 1.392 . S
C813 C817 1.495 . S
C814 C813 1.392 . S
C814 C815 1.385 . S
C814 C816 1.478 . S
C815 H809 0.930 . S
C815 C811 1.400 . S
C815 C814 1.385 . S
C816 C814 1.478 . S
C816 C818 1.381 . S
C816 C822 1.383 . S
C817 C813 1.495 . S
C817 H823 0.959 . S
C817 H824 0.961 . S
C817 H825 0.960 . S
C818 C816 1.381 . S
C818 C819 1.394 . S
C818 H826 0.930 . S
C819 C818 1.394 . S
C819 C820 1.383 . S
C819 H827 0.929 . S
C820 C819 1.383 . S
C820 C821 1.377 . S
C821 H805 0.930 . S
C821 C820 1.377 . S
C821 C822 1.379 . S
C822 H806 0.931 . S
C822 C816 1.383 . S
C822 C821 1.379 . S
H823 C817 0.959 . S
H824 C817 0.961 . S
H825 C817 0.960 . S
H826 C818 0.930 . S
H827 C819 0.929 . S
H828 C836 0.929 . S
H829 C838 0.930 . S
H830 C840 0.930 . S
H831 C843 0.929 . S
H832 C846 0.930 . S
H833 C848 0.960 . S
H834 C848 0.960 . S
H835 C848 0.960 . S
C836 H828 0.929 . S
C836 C837 1.377 . S
C836 C838 1.384 . S
C837 C836 1.377 . S
C837 C843 1.390 . S
C838 H829 0.930 . S
C838 C836 1.384 . S
C838 C839 1.372 . S
C839 C838 1.372 . S
C839 C840 1.400 . S
C839 C844 1.490 . S
C840 H830 0.930 . S
C840 C839 1.400 . S
C840 C843 1.386 . S
H841 C857 0.930 . S
H842 C858 0.931 . S
C843 H831 0.929 . S
C843 C837 1.390 . S
C843 C840 1.386 . S
C844 C839 1.490 . S
C844 C846 1.395 . S
C844 C847 1.403 . S
H845 C851 0.930 . S
C846 H832 0.930 . S
C846 C844 1.395 . S
C846 C849 1.403 . S
C847 C844 1.403 . S
C847 C848 1.524 . S
C847 C851 1.400 . S
C848 H833 0.960 . S
C848 H834 0.960 . S
C848 H835 0.960 . S
C848 C847 1.524 . S
C849 C846 1.403 . S
C849 C850 1.392 . S
C849 C853 1.495 . S
C850 C849 1.392 . S
C850 C851 1.385 . S
C850 C852 1.478 . S
C851 H845 0.930 . S
C851 C847 1.400 . S
C851 C850 1.385 . S
C852 C850 1.478 . S
C852 C854 1.381 . S
C852 C858 1.383 . S
C853 C849 1.495 . S
C853 H859 0.959 . S
C853 H860 0.961 . S
C853 H861 0.960 . S
C854 C852 1.381 . S
C854 C855 1.394 . S
C854 H862 0.930 . S
C855 C854 1.394 . S
C855 C856 1.383 . S
C855 H863 0.929 . S
C856 C855 1.383 . S
C856 C857 1.377 . S
C857 H841 0.930 . S
C857 C856 1.377 . S
C857 C858 1.379 . S
C858 H842 0.931 . S
C858 C852 1.383 . S
C858 C857 1.379 . S
H859 C853 0.959 . S
H860 C853 0.961 . S
H861 C853 0.960 . S
H862 C854 0.930 . S
H863 C855 0.929 . S
H864 C872 0.929 . S
H865 C874 0.930 . S
H866 C876 0.930 . S
H867 C879 0.929 . S
H868 C882 0.930 . S
H869 C884 0.960 . S
H870 C884 0.960 . S
H871 C884 0.960 . S
C872 H864 0.929 . S
C872 C873 1.377 . S
C872 C874 1.384 . S
C873 C872 1.377 . S
C873 C879 1.390 . S
C874 H865 0.930 . S
C874 C872 1.384 . S
C874 C875 1.372 . S
C875 C874 1.372 . S
C875 C876 1.400 . S
C875 C880 1.490 . S
C876 H866 0.930 . S
C876 C875 1.400 . S
C876 C879 1.386 . S
H877 C893 0.930 . S
H878 C894 0.931 . S
C879 H867 0.929 . S
C879 C873 1.390 . S
C879 C876 1.386 . S
C880 C875 1.490 . S
C880 C882 1.395 . S
C880 C883 1.403 . S
H881 C887 0.930 . S
C882 H868 0.930 . S
C882 C880 1.395 . S
C882 C885 1.403 . S
C883 C880 1.403 . S
C883 C884 1.524 . S
C883 C887 1.400 . S
C884 H869 0.960 . S
C884 H870 0.960 . S
C884 H871 0.960 . S
C884 C883 1.524 . S
C885 C882 1.403 . S
C885 C886 1.392 . S
C885 C889 1.495 . S
C886 C885 1.392 . S
C886 C887 1.385 . S
C886 C888 1.478 . S
C887 H881 0.930 . S
C887 C883 1.400 . S
C887 C886 1.385 . S
C888 C886 1.478 . S
C888 C890 1.381 . S
C888 C894 1.383 . S
C889 C885 1.495 . S
C889 H895 0.959 1_554 S
C889 H896 0.961 1_554 S
C889 H897 0.960 . S
C890 C888 1.381 . S
C890 C891 1.394 . S
C890 H898 0.930 . S
C891 C890 1.394 . S
C891 C892 1.383 . S
C891 H899 0.929 . S
C892 C891 1.383 . S
C892 C893 1.377 . S
C893 H877 0.930 . S
C893 C892 1.377 . S
C893 C894 1.379 . S
C894 H878 0.931 . S
C894 C888 1.383 . S
C894 C893 1.379 . S
H895 C889 0.959 1_556 S
H896 C889 0.961 1_556 S
H897 C889 0.960 . S
H898 C890 0.930 . S
H899 C891 0.929 . S
H900 C908 0.929 . S
H901 C910 0.930 . S
H902 C912 0.930 . S
H903 C915 0.929 . S
H904 C918 0.930 . S
H905 C920 0.960 . S
H906 C920 0.960 . S
H907 C920 0.960 . S
C908 H900 0.929 . S
C908 C909 1.377 . S
C908 C910 1.384 . S
C909 C908 1.377 . S
C909 C915 1.390 . S
C910 H901 0.930 . S
C910 C908 1.384 . S
C910 C911 1.372 . S
C911 C910 1.372 . S
C911 C912 1.400 . S
C911 C916 1.490 . S
C912 H902 0.930 . S
C912 C911 1.400 . S
C912 C915 1.386 . S
H913 C929 0.930 . S
H914 C930 0.931 . S
C915 H903 0.929 . S
C915 C909 1.390 . S
C915 C912 1.386 . S
C916 C911 1.490 . S
C916 C918 1.395 . S
C916 C919 1.403 . S
H917 C923 0.930 . S
C918 H904 0.930 . S
C918 C916 1.395 . S
C918 C921 1.403 . S
C919 C916 1.403 . S
C919 C920 1.524 . S
C919 C923 1.400 . S
C920 H905 0.960 . S
C920 H906 0.960 . S
C920 H907 0.960 . S
C920 C919 1.524 . S
C921 C918 1.403 . S
C921 C922 1.392 . S
C921 C925 1.495 . S
C922 C921 1.392 . S
C922 C923 1.385 . S
C922 C924 1.478 . S
C923 H917 0.930 . S
C923 C919 1.400 . S
C923 C922 1.385 . S
C924 C922 1.478 . S
C924 C926 1.381 . S
C924 C930 1.383 . S
C925 C921 1.495 . S
C925 H931 0.959 . S
C925 H932 0.961 . S
C925 H933 0.960 . S
C926 C924 1.381 . S
C926 C927 1.394 . S
C926 H934 0.930 . S
C927 C926 1.394 . S
C927 C928 1.383 . S
C927 H935 0.929 . S
C928 C927 1.383 . S
C928 C929 1.377 . S
C929 H913 0.930 . S
C929 C928 1.377 . S
C929 C930 1.379 . S
C930 H914 0.931 . S
C930 C924 1.383 . S
C930 C929 1.379 . S
H931 C925 0.959 . S
H932 C925 0.961 . S
H933 C925 0.960 . S
H934 C926 0.930 . S
H935 C927 0.929 . S
H936 C944 0.929 . S
H937 C946 0.930 . S
H938 C948 0.930 . S
H939 C951 0.929 . S
H940 C954 0.930 . S
H941 C956 0.960 . S
H942 C956 0.960 . S
H943 C956 0.960 . S
C944 H936 0.929 . S
C944 C945 1.377 . S
C944 C946 1.384 . S
C945 C944 1.377 . S
C945 C951 1.390 . S
C946 H937 0.930 . S
C946 C944 1.384 . S
C946 C947 1.372 . S
C947 C946 1.372 . S
C947 C948 1.400 . S
C947 C952 1.490 . S
C948 H938 0.930 . S
C948 C947 1.400 . S
C948 C951 1.386 . S
H949 C965 0.930 . S
H950 C966 0.931 . S
C951 H939 0.929 . S
C951 C945 1.390 . S
C951 C948 1.386 . S
C952 C947 1.490 . S
C952 C954 1.395 . S
C952 C955 1.403 . S
H953 C959 0.930 . S
C954 H940 0.930 . S
C954 C952 1.395 . S
C954 C957 1.403 . S
C955 C952 1.403 . S
C955 C956 1.524 . S
C955 C959 1.400 . S
C956 H941 0.960 . S
C956 H942 0.960 . S
C956 H943 0.960 . S
C956 C955 1.524 . S
C957 C954 1.403 . S
C957 C958 1.392 . S
C957 C961 1.495 . S
C958 C957 1.392 . S
C958 C959 1.385 . S
C958 C960 1.478 . S
C959 H953 0.930 . S
C959 C955 1.400 . S
C959 C958 1.385 . S
C960 C958 1.478 . S
C960 C962 1.381 . S
C960 C966 1.383 . S
C961 C957 1.495 . S
C961 H967 0.959 . S
C961 H968 0.963 . S
C961 H969 0.960 . S
C962 C960 1.381 . S
C962 C963 1.394 . S
C962 H970 0.930 . S
C963 C962 1.394 . S
C963 C964 1.383 . S
C963 H971 0.929 . S
C964 C963 1.383 . S
C964 C965 1.377 . S
C965 H949 0.930 . S
C965 C964 1.377 . S
C965 C966 1.379 . S
C966 H950 0.931 . S
C966 C960 1.383 . S
C966 C965 1.379 . S
H967 C961 0.959 . S
H968 C961 0.963 . S
H969 C961 0.960 . S
H970 C962 0.930 . S
H971 C963 0.929 . S
H972 C980 0.929 . S
H973 C982 0.930 . S
H974 C984 0.930 . S
H975 C987 0.929 . S
H976 C990 0.930 . S
H977 C992 0.960 . S
H978 C992 0.960 . S
H979 C992 0.960 . S
C980 H972 0.929 . S
C980 C981 1.377 . S
C980 C982 1.384 . S
C981 C980 1.377 . S
C981 C987 1.390 . S
C982 H973 0.930 . S
C982 C980 1.384 . S
C982 C983 1.372 . S
C983 C982 1.372 . S
C983 C984 1.400 . S
C983 C988 1.490 . S
C984 H974 0.930 . S
C984 C983 1.400 . S
C984 C987 1.386 . S
H985 C1001 0.930 . S
H986 C1002 0.931 . S
C987 H975 0.929 . S
C987 C981 1.390 . S
C987 C984 1.386 . S
C988 C983 1.490 . S
C988 C990 1.395 . S
C988 C991 1.403 . S
H989 C995 0.930 . S
C990 H976 0.930 . S
C990 C988 1.395 . S
C990 C993 1.403 . S
C991 C988 1.403 . S
C991 C992 1.524 . S
C991 C995 1.400 . S
C992 H977 0.960 . S
C992 H978 0.960 . S
C992 H979 0.960 . S
C992 C991 1.524 . S
C993 C990 1.403 . S
C993 C994 1.392 . S
C993 C997 1.495 . S
C994 C993 1.392 . S
C994 C995 1.385 . S
C994 C996 1.478 . S
C995 H989 0.930 . S
C995 C991 1.400 . S
C995 C994 1.385 . S
C996 C994 1.478 . S
C996 C998 1.381 . S
C996 C1002 1.383 . S
C997 C993 1.495 . S
C997 H1003 0.959 1_556 S
C997 H1004 0.961 . S
C997 H1005 0.960 1_556 S
C998 C996 1.381 . S
C998 C999 1.394 . S
C998 H1006 0.930 . S
C999 C998 1.394 . S
C999 C1000 1.383 . S
C999 H1007 0.929 . S
C1000 C999 1.383 . S
C1000 C1001 1.377 . S
C1001 H985 0.930 . S
C1001 C1000 1.377 . S
C1001 C1002 1.379 . S
C1002 H986 0.931 . S
C1002 C996 1.383 . S
C1002 C1001 1.379 . S
H1003 C997 0.959 1_554 S
H1004 C997 0.961 . S
H1005 C997 0.960 1_554 S
H1006 C998 0.930 . S
H1007 C999 0.929 . S
H1008 C1016 0.929 . S
H1009 C1018 0.930 . S
H1010 C1020 0.930 . S
H1011 C1023 0.929 . S
H1012 C1026 0.930 . S
H1013 C1028 0.960 . S
H1014 C1028 0.960 . S
H1015 C1028 0.960 . S
C1016 H1008 0.929 . S
C1016 C1017 1.377 . S
C1016 C1018 1.384 . S
C1017 C1016 1.377 . S
C1017 C1023 1.390 . S
C1018 H1009 0.930 . S
C1018 C1016 1.384 . S
C1018 C1019 1.372 . S
C1019 C1018 1.372 . S
C1019 C1020 1.400 . S
C1019 C1024 1.490 . S
C1020 H1010 0.930 . S
C1020 C1019 1.400 . S
C1020 C1023 1.386 . S
H1021 C1037 0.930 . S
H1022 C1038 0.931 . S
C1023 H1011 0.929 . S
C1023 C1017 1.390 . S
C1023 C1020 1.386 . S
C1024 C1019 1.490 . S
C1024 C1026 1.395 . S
C1024 C1027 1.403 . S
H1025 C1031 0.930 . S
C1026 H1012 0.930 . S
C1026 C1024 1.395 . S
C1026 C1029 1.403 . S
C1027 C1024 1.403 . S
C1027 C1028 1.524 . S
C1027 C1031 1.400 . S
C1028 H1013 0.960 . S
C1028 H1014 0.960 . S
C1028 H1015 0.960 . S
C1028 C1027 1.524 . S
C1029 C1026 1.403 . S
C1029 C1030 1.392 . S
C1029 C1033 1.495 . S
C1030 C1029 1.392 . S
C1030 C1031 1.385 . S
C1030 C1032 1.478 . S
C1031 H1025 0.930 . S
C1031 C1027 1.400 . S
C1031 C1030 1.385 . S
C1032 C1030 1.478 . S
C1032 C1034 1.381 . S
C1032 C1038 1.383 . S
C1033 C1029 1.495 . S
C1033 H1039 0.959 . S
C1033 H1040 0.961 . S
C1033 H1041 0.960 . S
C1034 C1032 1.381 . S
C1034 C1035 1.394 . S
C1034 H1042 0.930 . S
C1035 C1034 1.394 . S
C1035 C1036 1.383 . S
C1035 H1043 0.929 . S
C1036 C1035 1.383 . S
C1036 C1037 1.377 . S
C1037 H1021 0.930 . S
C1037 C1036 1.377 . S
C1037 C1038 1.379 . S
C1038 H1022 0.931 . S
C1038 C1032 1.383 . S
C1038 C1037 1.379 . S
H1039 C1033 0.959 . S
H1040 C1033 0.961 . S
H1041 C1033 0.960 . S
H1042 C1034 0.930 . S
H1043 C1035 0.929 . S
H1044 C1052 0.929 . S
H1045 C1054 0.930 . S
H1046 C1056 0.930 . S
H1047 C1059 0.929 . S
H1048 C1062 0.930 . S
H1049 C1064 0.960 . S
H1050 C1064 0.960 . S
H1051 C1064 0.960 . S
C1052 H1044 0.929 . S
C1052 C1053 1.377 . S
C1052 C1054 1.384 . S
C1053 C1052 1.377 . S
C1053 C1059 1.390 . S
C1054 H1045 0.930 . S
C1054 C1052 1.384 . S
C1054 C1055 1.372 . S
C1055 C1054 1.372 . S
C1055 C1056 1.400 . S
C1055 C1060 1.490 . S
C1056 H1046 0.930 . S
C1056 C1055 1.400 . S
C1056 C1059 1.386 . S
H1057 C1073 0.930 . S
H1058 C1074 0.931 . S
C1059 H1047 0.929 . S
C1059 C1053 1.390 . S
C1059 C1056 1.386 . S
C1060 C1055 1.490 . S
C1060 C1062 1.395 . S
C1060 C1063 1.403 . S
H1061 C1067 0.930 . S
C1062 H1048 0.930 . S
C1062 C1060 1.395 . S
C1062 C1065 1.403 . S
C1063 C1060 1.403 . S
C1063 C1064 1.524 . S
C1063 C1067 1.400 . S
C1064 H1049 0.960 . S
C1064 H1050 0.960 . S
C1064 H1051 0.960 . S
C1064 C1063 1.524 . S
C1065 C1062 1.403 . S
C1065 C1066 1.392 . S
C1065 C1069 1.495 . S
C1066 C1065 1.392 . S
C1066 C1067 1.385 . S
C1066 C1068 1.478 . S
C1067 H1061 0.930 . S
C1067 C1063 1.400 . S
C1067 C1066 1.385 . S
C1068 C1066 1.478 . S
C1068 C1070 1.381 . S
C1068 C1074 1.383 . S
C1069 C1065 1.495 . S
C1069 H1075 0.959 . S
C1069 H1076 0.961 . S
C1069 H1077 0.960 . S
C1070 C1068 1.381 . S
C1070 C1071 1.394 . S
C1070 H1078 0.930 . S
C1071 C1070 1.394 . S
C1071 C1072 1.383 . S
C1071 H1079 0.929 . S
C1072 C1071 1.383 . S
C1072 C1073 1.377 . S
C1073 H1057 0.930 . S
C1073 C1072 1.377 . S
C1073 C1074 1.379 . S
C1074 H1058 0.931 . S
C1074 C1068 1.383 . S
C1074 C1073 1.379 . S
H1075 C1069 0.959 . S
H1076 C1069 0.961 . S
H1077 C1069 0.960 . S
H1078 C1070 0.930 . S
H1079 C1071 0.929 . S
H1080 C1088 0.929 . S
H1081 C1090 0.930 . S
H1082 C1092 0.930 . S
H1083 C1095 0.929 . S
H1084 C1098 0.930 . S
H1085 C1100 0.960 . S
H1086 C1100 0.960 . S
H1087 C1100 0.960 . S
C1088 H1080 0.929 . S
C1088 C1089 1.377 . S
C1088 C1090 1.384 . S
C1089 C1088 1.377 . S
C1089 C1095 1.390 . S
C1090 H1081 0.930 . S
C1090 C1088 1.384 . S
C1090 C1091 1.372 . S
C1091 C1090 1.372 . S
C1091 C1092 1.400 . S
C1091 C1096 1.490 . S
C1092 H1082 0.930 . S
C1092 C1091 1.400 . S
C1092 C1095 1.386 . S
H1093 C1109 0.930 . S
H1094 C1110 0.931 . S
C1095 H1083 0.929 . S
C1095 C1089 1.390 . S
C1095 C1092 1.386 . S
C1096 C1091 1.490 . S
C1096 C1098 1.395 . S
C1096 C1099 1.403 . S
H1097 C1103 0.930 . S
C1098 H1084 0.930 . S
C1098 C1096 1.395 . S
C1098 C1101 1.403 . S
C1099 C1096 1.403 . S
C1099 C1100 1.524 . S
C1099 C1103 1.400 . S
C1100 H1085 0.960 . S
C1100 H1086 0.960 . S
C1100 H1087 0.960 . S
C1100 C1099 1.524 . S
C1101 C1098 1.403 . S
C1101 C1102 1.392 . S
C1101 C1105 1.495 . S
C1102 C1101 1.392 . S
C1102 C1103 1.385 . S
C1102 C1104 1.478 . S
C1103 H1097 0.930 . S
C1103 C1099 1.400 . S
C1103 C1102 1.385 . S
C1104 C1102 1.478 . S
C1104 C1106 1.381 . S
C1104 C1110 1.383 . S
C1105 C1101 1.495 . S
C1105 H1111 0.959 . S
C1105 H1112 0.961 . S
C1105 H1113 0.960 . S
C1106 C1104 1.381 . S
C1106 C1107 1.394 . S
C1106 H1114 0.930 . S
C1107 C1106 1.394 . S
C1107 C1108 1.383 . S
C1107 H1115 0.929 . S
C1108 C1107 1.383 . S
C1108 C1109 1.377 . S
C1109 H1093 0.930 . S
C1109 C1108 1.377 . S
C1109 C1110 1.379 . S
C1110 H1094 0.931 . S
C1110 C1104 1.383 . S
C1110 C1109 1.379 . S
H1111 C1105 0.959 . S
H1112 C1105 0.961 . S
H1113 C1105 0.960 . S
H1114 C1106 0.930 . S
H1115 C1107 0.929 . S
H1116 C1124 0.929 . S
H1117 C1126 0.930 . S
H1118 C1128 0.930 . S
H1119 C1131 0.929 . S
H1120 C1134 0.930 . S
H1121 C1136 0.960 . S
H1122 C1136 0.960 . S
H1123 C1136 0.960 . S
C1124 H1116 0.929 . S
C1124 C1125 1.377 . S
C1124 C1126 1.384 . S
C1125 C1124 1.377 . S
C1125 C1131 1.390 . S
C1126 H1117 0.930 . S
C1126 C1124 1.384 . S
C1126 C1127 1.372 . S
C1127 C1126 1.372 . S
C1127 C1128 1.400 . S
C1127 C1132 1.490 . S
C1128 H1118 0.930 . S
C1128 C1127 1.400 . S
C1128 C1131 1.386 . S
H1129 C1145 0.930 . S
H1130 C1146 0.931 . S
C1131 H1119 0.929 . S
C1131 C1125 1.390 . S
C1131 C1128 1.386 . S
C1132 C1127 1.490 . S
C1132 C1134 1.395 . S
C1132 C1135 1.403 . S
H1133 C1139 0.930 . S
C1134 H1120 0.930 . S
C1134 C1132 1.395 . S
C1134 C1137 1.403 . S
C1135 C1132 1.403 . S
C1135 C1136 1.524 . S
C1135 C1139 1.400 . S
C1136 H1121 0.960 . S
C1136 H1122 0.960 . S
C1136 H1123 0.960 . S
C1136 C1135 1.524 . S
C1137 C1134 1.403 . S
C1137 C1138 1.392 . S
C1137 C1141 1.495 . S
C1138 C1137 1.392 . S
C1138 C1139 1.385 . S
C1138 C1140 1.478 . S
C1139 H1133 0.930 . S
C1139 C1135 1.400 . S
C1139 C1138 1.385 . S
C1140 C1138 1.478 . S
C1140 C1142 1.381 . S
C1140 C1146 1.383 . S
C1141 C1137 1.495 . S
C1141 H1147 0.959 . S
C1141 H1148 0.961 . S
C1141 H1149 0.960 . S
C1142 C1140 1.381 . S
C1142 C1143 1.394 . S
C1142 H1150 0.930 . S
C1143 C1142 1.394 . S
C1143 C1144 1.383 . S
C1143 H1151 0.929 . S
C1144 C1143 1.383 . S
C1144 C1145 1.377 . S
C1145 H1129 0.930 . S
C1145 C1144 1.377 . S
C1145 C1146 1.379 . S
C1146 H1130 0.931 . S
C1146 C1140 1.383 . S
C1146 C1145 1.379 . S
H1147 C1141 0.959 . S
H1148 C1141 0.961 . S
H1149 C1141 0.960 . S
H1150 C1142 0.930 . S
H1151 C1143 0.929 . S
H1152 C1160 0.929 . S
H1153 C1162 0.930 . S
H1154 C1164 0.930 . S
H1155 C1167 0.929 . S
H1156 C1170 0.930 . S
H1157 C1172 0.960 . S
H1158 C1172 0.960 . S
H1159 C1172 0.960 . S
C1160 H1152 0.929 . S
C1160 C1161 1.377 . S
C1160 C1162 1.384 . S
C1161 C1160 1.377 . S
C1161 C1167 1.390 . S
C1162 H1153 0.930 . S
C1162 C1160 1.384 . S
C1162 C1163 1.372 . S
C1163 C1162 1.372 . S
C1163 C1164 1.400 . S
C1163 C1168 1.490 . S
C1164 H1154 0.930 . S
C1164 C1163 1.400 . S
C1164 C1167 1.386 . S
H1165 C1181 0.930 . S
H1166 C1182 0.931 . S
C1167 H1155 0.929 . S
C1167 C1161 1.390 . S
C1167 C1164 1.386 . S
C1168 C1163 1.490 . S
C1168 C1170 1.395 1_556 S
C1168 C1171 1.403 . S
H1169 C1175 0.930 . S
C1170 H1156 0.930 . S
C1170 C1168 1.395 1_554 S
C1170 C1173 1.403 . S
C1171 C1168 1.403 . S
C1171 C1172 1.524 . S
C1171 C1175 1.400 1_556 S
C1172 H1157 0.960 . S
C1172 H1158 0.960 . S
C1172 H1159 0.960 . S
C1172 C1171 1.524 . S
C1173 C1170 1.403 . S
C1173 C1174 1.392 . S
C1173 C1177 1.495 . S
C1174 C1173 1.392 . S
C1174 C1175 1.385 . S
C1174 C1176 1.478 . S
C1175 H1169 0.930 . S
C1175 C1171 1.400 1_554 S
C1175 C1174 1.385 . S
C1176 C1174 1.478 . S
C1176 C1178 1.381 . S
C1176 C1182 1.383 . S
C1177 C1173 1.495 . S
C1177 H1183 0.959 . S
C1177 H1184 0.961 . S
C1177 H1185 0.960 . S
C1178 C1176 1.381 . S
C1178 C1179 1.394 . S
C1178 H1186 0.930 . S
C1179 C1178 1.394 . S
C1179 C1180 1.383 . S
C1179 H1187 0.929 . S
C1180 C1179 1.383 . S
C1180 C1181 1.377 . S
C1181 H1165 0.930 . S
C1181 C1180 1.377 . S
C1181 C1182 1.379 . S
C1182 H1166 0.931 . S
C1182 C1176 1.383 . S
C1182 C1181 1.379 . S
H1183 C1177 0.959 . S
H1184 C1177 0.961 . S
H1185 C1177 0.960 . S
H1186 C1178 0.930 . S
H1187 C1179 0.929 . S
H1188 C1196 0.929 . S
H1189 C1198 0.930 . S
H1190 C1200 0.930 . S
H1191 C1203 0.929 . S
H1192 C1206 0.930 . S
H1193 C1208 0.960 1_556 S
H1194 C1208 0.960 . S
H1195 C1208 0.960 . S
C1196 H1188 0.929 . S
C1196 C1197 1.377 . S
C1196 C1198 1.384 . S
C1197 C1196 1.377 . S
C1197 C1203 1.390 . S
C1198 H1189 0.930 . S
C1198 C1196 1.384 . S
C1198 C1199 1.372 . S
C1199 C1198 1.372 . S
C1199 C1200 1.400 . S
C1199 C1204 1.490 . S
C1200 H1190 0.930 . S
C1200 C1199 1.400 . S
C1200 C1203 1.386 . S
H1201 C1217 0.930 . S
H1202 C1218 0.931 . S
C1203 H1191 0.929 . S
C1203 C1197 1.390 . S
C1203 C1200 1.386 . S
C1204 C1199 1.490 . S
C1204 C1206 1.395 . S
C1204 C1207 1.403 . S
H1205 C1211 0.930 . S
C1206 H1192 0.930 . S
C1206 C1204 1.395 . S
C1206 C1209 1.403 . S
C1207 C1204 1.403 . S
C1207 C1208 1.524 . S
C1207 C1211 1.400 1_554 S
C1208 H1193 0.960 1_554 S
C1208 H1194 0.960 . S
C1208 H1195 0.960 . S
C1208 C1207 1.524 . S
C1209 C1206 1.403 . S
C1209 C1210 1.392 1_554 S
C1209 C1213 1.495 . S
C1210 C1209 1.392 1_556 S
C1210 C1211 1.385 . S
C1210 C1212 1.478 . S
C1211 H1205 0.930 . S
C1211 C1207 1.400 1_556 S
C1211 C1210 1.385 . S
C1212 C1210 1.478 . S
C1212 C1214 1.381 . S
C1212 C1218 1.383 . S
C1213 C1209 1.495 . S
C1213 H1219 0.959 . S
C1213 H1220 0.961 . S
C1213 H1221 0.960 . S
C1214 C1212 1.381 . S
C1214 C1215 1.394 . S
C1214 H1222 0.930 . S
C1215 C1214 1.394 . S
C1215 C1216 1.383 . S
C1215 H1223 0.929 . S
C1216 C1215 1.383 . S
C1216 C1217 1.377 . S
C1217 H1201 0.930 . S
C1217 C1216 1.377 . S
C1217 C1218 1.379 . S
C1218 H1202 0.931 . S
C1218 C1212 1.383 . S
C1218 C1217 1.379 . S
H1219 C1213 0.959 . S
H1220 C1213 0.961 . S
H1221 C1213 0.960 . S
H1222 C1214 0.930 . S
H1223 C1215 0.929 . S
H1224 C1232 0.929 . S
H1225 C1234 0.930 . S
H1226 C1236 0.930 . S
H1227 C1239 0.929 . S
H1228 C1242 0.930 . S
H1229 C1244 0.960 . S
H1230 C1244 0.960 . S
H1231 C1244 0.960 . S
C1232 H1224 0.929 . S
C1232 C1233 1.377 . S
C1232 C1234 1.384 . S
C1233 C1232 1.377 . S
C1233 C1239 1.390 . S
C1234 H1225 0.930 . S
C1234 C1232 1.384 . S
C1234 C1235 1.372 . S
C1235 C1234 1.372 . S
C1235 C1236 1.400 . S
C1235 C1240 1.490 . S
C1236 H1226 0.930 . S
C1236 C1235 1.400 . S
C1236 C1239 1.386 . S
H1237 C1253 0.930 . S
H1238 C1254 0.931 . S
C1239 H1227 0.929 . S
C1239 C1233 1.390 . S
C1239 C1236 1.386 . S
C1240 C1235 1.490 . S
C1240 C1242 1.395 . S
C1240 C1243 1.403 . S
H1241 C1247 0.930 . S
C1242 H1228 0.930 . S
C1242 C1240 1.395 . S
C1242 C1245 1.403 1_554 S
C1243 C1240 1.403 . S
C1243 C1244 1.524 . S
C1243 C1247 1.400 . S
C1244 H1229 0.960 . S
C1244 H1230 0.960 . S
C1244 H1231 0.960 . S
C1244 C1243 1.524 . S
C1245 C1242 1.403 1_556 S
C1245 C1246 1.392 . S
C1245 C1249 1.495 . S
C1246 C1245 1.392 . S
C1246 C1247 1.385 1_556 S
C1246 C1248 1.478 . S
C1247 H1241 0.930 . S
C1247 C1243 1.400 . S
C1247 C1246 1.385 1_554 S
C1248 C1246 1.478 . S
C1248 C1250 1.381 . S
C1248 C1254 1.383 . S
C1249 C1245 1.495 . S
C1249 H1255 0.959 . S
C1249 H1256 0.961 . S
C1249 H1257 0.960 . S
C1250 C1248 1.381 . S
C1250 C1251 1.394 . S
C1250 H1258 0.930 . S
C1251 C1250 1.394 . S
C1251 C1252 1.383 . S
C1251 H1259 0.929 . S
C1252 C1251 1.383 . S
C1252 C1253 1.377 . S
C1253 H1237 0.930 . S
C1253 C1252 1.377 . S
C1253 C1254 1.379 . S
C1254 H1238 0.931 . S
C1254 C1248 1.383 . S
C1254 C1253 1.379 . S
H1255 C1249 0.959 . S
H1256 C1249 0.961 . S
H1257 C1249 0.960 . S
H1258 C1250 0.930 . S
H1259 C1251 0.929 . S
H1260 C1268 0.929 . S
H1261 C1270 0.930 . S
H1262 C1272 0.930 . S
H1263 C1275 0.929 . S
H1264 C1278 0.930 . S
H1265 C1280 0.960 . S
H1266 C1280 0.960 . S
H1267 C1280 0.960 . S
C1268 H1260 0.929 . S
C1268 C1269 1.377 . S
C1268 C1270 1.384 . S
C1269 C1268 1.377 . S
C1269 C1275 1.390 . S
C1270 H1261 0.930 . S
C1270 C1268 1.384 . S
C1270 C1271 1.372 . S
C1271 C1270 1.372 . S
C1271 C1272 1.400 . S
C1271 C1276 1.490 . S
C1272 H1262 0.930 . S
C1272 C1271 1.400 . S
C1272 C1275 1.386 . S
H1273 C1289 0.930 . S
H1274 C1290 0.931 . S
C1275 H1263 0.929 . S
C1275 C1269 1.390 . S
C1275 C1272 1.386 . S
C1276 C1271 1.490 . S
C1276 C1278 1.395 . S
C1276 C1279 1.403 . S
H1277 C1283 0.930 . S
C1278 H1264 0.930 . S
C1278 C1276 1.395 . S
C1278 C1281 1.403 . S
C1279 C1276 1.403 . S
C1279 C1280 1.524 . S
C1279 C1283 1.400 . S
C1280 H1265 0.960 . S
C1280 H1266 0.960 . S
C1280 H1267 0.960 . S
C1280 C1279 1.524 . S
C1281 C1278 1.403 . S
C1281 C1282 1.392 . S
C1281 C1285 1.495 . S
C1282 C1281 1.392 . S
C1282 C1283 1.385 . S
C1282 C1284 1.478 . S
C1283 H1277 0.930 . S
C1283 C1279 1.400 . S
C1283 C1282 1.385 . S
C1284 C1282 1.478 . S
C1284 C1286 1.381 . S
C1284 C1290 1.383 . S
C1285 C1281 1.495 . S
C1285 H1291 0.959 . S
C1285 H1292 0.961 . S
C1285 H1293 0.960 . S
C1286 C1284 1.381 . S
C1286 C1287 1.394 . S
C1286 H1294 0.930 . S
C1287 C1286 1.394 . S
C1287 C1288 1.383 . S
C1287 H1295 0.929 . S
C1288 C1287 1.383 . S
C1288 C1289 1.377 . S
C1289 H1273 0.930 . S
C1289 C1288 1.377 . S
C1289 C1290 1.379 . S
C1290 H1274 0.931 . S
C1290 C1284 1.383 . S
C1290 C1289 1.379 . S
H1291 C1285 0.959 . S
H1292 C1285 0.961 . S
H1293 C1285 0.960 . S
H1294 C1286 0.930 . S
H1295 C1287 0.929 . S
H1296 C1304 0.929 . S
H1297 C1306 0.930 . S
H1298 C1308 0.930 . S
H1299 C1311 0.929 . S
H1300 C1314 0.930 . S
H1301 C1316 0.960 . S
H1302 C1316 0.960 . S
H1303 C1316 0.960 . S
C1304 H1296 0.929 . S
C1304 C1305 1.377 . S
C1304 C1306 1.384 . S
C1305 C1304 1.377 . S
C1305 C1311 1.390 . S
C1306 H1297 0.930 . S
C1306 C1304 1.384 . S
C1306 C1307 1.372 . S
C1307 C1306 1.372 . S
C1307 C1308 1.400 . S
C1307 C1312 1.490 . S
C1308 H1298 0.930 . S
C1308 C1307 1.400 . S
C1308 C1311 1.386 . S
H1309 C1325 0.930 . S
H1310 C1326 0.931 . S
C1311 H1299 0.929 . S
C1311 C1305 1.390 . S
C1311 C1308 1.386 . S
C1312 C1307 1.490 . S
C1312 C1314 1.395 . S
C1312 C1315 1.403 . S
H1313 C1319 0.930 . S
C1314 H1300 0.930 . S
C1314 C1312 1.395 . S
C1314 C1317 1.403 . S
C1315 C1312 1.403 . S
C1315 C1316 1.524 . S
C1315 C1319 1.400 . S
C1316 H1301 0.960 . S
C1316 H1302 0.960 . S
C1316 H1303 0.960 . S
C1316 C1315 1.524 . S
C1317 C1314 1.403 . S
C1317 C1318 1.392 . S
C1317 C1321 1.495 . S
C1318 C1317 1.392 . S
C1318 C1319 1.385 . S
C1318 C1320 1.478 . S
C1319 H1313 0.930 . S
C1319 C1315 1.400 . S
C1319 C1318 1.385 . S
C1320 C1318 1.478 . S
C1320 C1322 1.381 . S
C1320 C1326 1.383 . S
C1321 C1317 1.495 . S
C1321 H1327 0.959 . S
C1321 H1328 0.961 . S
C1321 H1329 0.960 . S
C1322 C1320 1.381 . S
C1322 C1323 1.394 . S
C1322 H1330 0.930 . S
C1323 C1322 1.394 . S
C1323 C1324 1.383 . S
C1323 H1331 0.929 . S
C1324 C1323 1.383 . S
C1324 C1325 1.377 . S
C1325 H1309 0.930 . S
C1325 C1324 1.377 . S
C1325 C1326 1.379 . S
C1326 H1310 0.931 . S
C1326 C1320 1.383 . S
C1326 C1325 1.379 . S
H1327 C1321 0.959 . S
H1328 C1321 0.961 . S
H1329 C1321 0.960 . S
H1330 C1322 0.930 . S
H1331 C1323 0.929 . S
H1332 C1340 0.929 . S
H1333 C1342 0.930 . S
H1334 C1344 0.930 . S
H1335 C1347 0.929 . S
H1336 C1350 0.930 . S
H1337 C1352 0.960 . S
H1338 C1352 0.960 . S
H1339 C1352 0.960 . S
C1340 H1332 0.929 . S
C1340 C1341 1.377 . S
C1340 C1342 1.384 . S
C1341 C1340 1.377 . S
C1341 C1347 1.390 . S
C1342 H1333 0.930 . S
C1342 C1340 1.384 . S
C1342 C1343 1.372 . S
C1343 C1342 1.372 . S
C1343 C1344 1.400 . S
C1343 C1348 1.490 . S
C1344 H1334 0.930 . S
C1344 C1343 1.400 . S
C1344 C1347 1.386 . S
H1345 C1361 0.930 . S
H1346 C1362 0.931 . S
C1347 H1335 0.929 . S
C1347 C1341 1.390 . S
C1347 C1344 1.386 . S
C1348 C1343 1.490 . S
C1348 C1350 1.395 . S
C1348 C1351 1.403 . S
H1349 C1355 0.930 . S
C1350 H1336 0.930 . S
C1350 C1348 1.395 . S
C1350 C1353 1.403 . S
C1351 C1348 1.403 . S
C1351 C1352 1.524 . S
C1351 C1355 1.400 . S
C1352 H1337 0.960 . S
C1352 H1338 0.960 . S
C1352 H1339 0.960 . S
C1352 C1351 1.524 . S
C1353 C1350 1.403 . S
C1353 C1354 1.392 . S
C1353 C1357 1.495 . S
C1354 C1353 1.392 . S
C1354 C1355 1.385 . S
C1354 C1356 1.478 . S
C1355 H1349 0.930 . S
C1355 C1351 1.400 . S
C1355 C1354 1.385 . S
C1356 C1354 1.478 . S
C1356 C1358 1.381 . S
C1356 C1362 1.383 . S
C1357 C1353 1.495 . S
C1357 H1363 0.959 . S
C1357 H1364 0.961 . S
C1357 H1365 0.960 . S
C1358 C1356 1.381 . S
C1358 C1359 1.394 . S
C1358 H1366 0.930 . S
C1359 C1358 1.394 . S
C1359 C1360 1.383 . S
C1359 H1367 0.929 . S
C1360 C1359 1.383 . S
C1360 C1361 1.377 . S
C1361 H1345 0.930 . S
C1361 C1360 1.377 . S
C1361 C1362 1.379 . S
C1362 H1346 0.931 . S
C1362 C1356 1.383 . S
C1362 C1361 1.379 . S
H1363 C1357 0.959 . S
H1364 C1357 0.961 . S
H1365 C1357 0.960 . S
H1366 C1358 0.930 . S
H1367 C1359 0.929 . S
H1368 C1376 0.929 . S
H1369 C1378 0.930 . S
H1370 C1380 0.930 . S
H1371 C1383 0.929 . S
H1372 C1386 0.930 . S
H1373 C1388 0.960 . S
H1374 C1388 0.960 . S
H1375 C1388 0.960 . S
C1376 H1368 0.929 . S
C1376 C1377 1.377 . S
C1376 C1378 1.384 . S
C1377 C1376 1.377 . S
C1377 C1383 1.390 . S
C1378 H1369 0.930 . S
C1378 C1376 1.384 . S
C1378 C1379 1.372 . S
C1379 C1378 1.372 . S
C1379 C1380 1.400 . S
C1379 C1384 1.490 . S
C1380 H1370 0.930 . S
C1380 C1379 1.400 . S
C1380 C1383 1.386 . S
H1381 C1397 0.930 . S
H1382 C1398 0.931 . S
C1383 H1371 0.929 . S
C1383 C1377 1.390 . S
C1383 C1380 1.386 . S
C1384 C1379 1.490 . S
C1384 C1386 1.395 . S
C1384 C1387 1.403 . S
H1385 C1391 0.930 . S
C1386 H1372 0.930 . S
C1386 C1384 1.395 . S
C1386 C1389 1.403 . S
C1387 C1384 1.403 . S
C1387 C1388 1.524 . S
C1387 C1391 1.400 1_556 S
C1388 H1373 0.960 . S
C1388 H1374 0.960 . S
C1388 H1375 0.960 . S
C1388 C1387 1.524 . S
C1389 C1386 1.403 . S
C1389 C1390 1.392 1_556 S
C1389 C1393 1.495 . S
C1390 C1389 1.392 1_554 S
C1390 C1391 1.385 . S
C1390 C1392 1.478 . S
C1391 H1385 0.930 . S
C1391 C1387 1.400 1_554 S
C1391 C1390 1.385 . S
C1392 C1390 1.478 . S
C1392 C1394 1.381 . S
C1392 C1398 1.383 . S
C1393 C1389 1.495 . S
C1393 H1399 0.959 . S
C1393 H1400 0.961 . S
C1393 H1401 0.960 1_556 S
C1394 C1392 1.381 . S
C1394 C1395 1.394 . S
C1394 H1402 0.930 . S
C1395 C1394 1.394 . S
C1395 C1396 1.383 . S
C1395 H1403 0.929 . S
C1396 C1395 1.383 . S
C1396 C1397 1.377 . S
C1397 H1381 0.930 . S
C1397 C1396 1.377 . S
C1397 C1398 1.379 . S
C1398 H1382 0.931 . S
C1398 C1392 1.383 . S
C1398 C1397 1.379 . S
H1399 C1393 0.959 . S
H1400 C1393 0.961 . S
H1401 C1393 0.960 1_554 S
H1402 C1394 0.930 . S
H1403 C1395 0.929 . S
H1404 C1412 0.929 . S
H1405 C1414 0.930 . S
H1406 C1416 0.930 . S
H1407 C1419 0.929 . S
H1408 C1422 0.930 . S
H1409 C1424 0.960 . S
H1410 C1424 0.954 1_556 S
H1411 C1424 0.960 1_556 S
C1412 H1404 0.929 . S
C1412 C1413 1.377 . S
C1412 C1414 1.384 . S
C1413 C1412 1.377 . S
C1413 C1419 1.390 . S
C1414 H1405 0.930 . S
C1414 C1412 1.384 . S
C1414 C1415 1.372 . S
C1415 C1414 1.372 . S
C1415 C1416 1.400 . S
C1415 C1420 1.490 . S
C1416 H1406 0.930 . S
C1416 C1415 1.400 . S
C1416 C1419 1.386 . S
H1417 C1433 0.930 . S
H1418 C1434 0.931 . S
C1419 H1407 0.929 . S
C1419 C1413 1.390 . S
C1419 C1416 1.386 . S
C1420 C1415 1.490 . S
C1420 C1422 1.395 . S
C1420 C1423 1.403 . S
H1421 C1427 0.930 . S
C1422 H1408 0.930 . S
C1422 C1420 1.395 . S
C1422 C1425 1.403 . S
C1423 C1420 1.403 . S
C1423 C1424 1.524 1_556 S
C1423 C1427 1.400 1_556 S
C1424 H1409 0.960 . S
C1424 H1410 0.954 1_554 S
C1424 H1411 0.960 1_554 S
C1424 C1423 1.524 1_554 S
C1425 C1422 1.403 . S
C1425 C1426 1.392 1_556 S
C1425 C1429 1.495 . S
C1426 C1425 1.392 1_554 S
C1426 C1427 1.385 . S
C1426 C1428 1.478 . S
C1427 H1421 0.930 . S
C1427 C1423 1.400 1_554 S
C1427 C1426 1.385 . S
C1428 C1426 1.478 . S
C1428 C1430 1.381 . S
C1428 C1434 1.383 . S
C1429 C1425 1.495 . S
C1429 H1435 0.959 . S
C1429 H1436 0.961 . S
C1429 H1437 0.960 . S
C1430 C1428 1.381 . S
C1430 C1431 1.394 . S
C1430 H1438 0.930 . S
C1431 C1430 1.394 . S
C1431 C1432 1.383 . S
C1431 H1439 0.929 . S
C1432 C1431 1.383 . S
C1432 C1433 1.377 . S
C1433 H1417 0.930 . S
C1433 C1432 1.377 . S
C1433 C1434 1.379 . S
C1434 H1418 0.931 . S
C1434 C1428 1.383 . S
C1434 C1433 1.379 . S
H1435 C1429 0.959 . S
H1436 C1429 0.961 . S
H1437 C1429 0.960 . S
H1438 C1430 0.930 . S
H1439 C1431 0.929 . S
H1440 C1448 0.929 . S
H1441 C1450 0.930 . S
H1442 C1452 0.930 . S
H1443 C1455 0.929 . S
H1444 C1458 0.930 . S
H1445 C1460 0.960 . S
H1446 C1460 0.960 . S
H1447 C1460 0.960 . S
C1448 H1440 0.929 . S
C1448 C1449 1.377 . S
C1448 C1450 1.384 . S
C1449 C1448 1.377 . S
C1449 C1455 1.390 . S
C1450 H1441 0.930 . S
C1450 C1448 1.384 . S
C1450 C1451 1.372 . S
C1451 C1450 1.372 . S
C1451 C1452 1.400 . S
C1451 C1456 1.490 . S
C1452 H1442 0.930 . S
C1452 C1451 1.400 . S
C1452 C1455 1.386 . S
H1453 C1469 0.930 . S
H1454 C1470 0.931 . S
C1455 H1443 0.929 . S
C1455 C1449 1.390 . S
C1455 C1452 1.386 . S
C1456 C1451 1.490 . S
C1456 C1458 1.395 1_554 S
C1456 C1459 1.403 . S
H1457 C1463 0.930 . S
C1458 H1444 0.930 . S
C1458 C1456 1.395 1_556 S
C1458 C1461 1.403 . S
C1459 C1456 1.403 . S
C1459 C1460 1.524 . S
C1459 C1463 1.400 1_554 S
C1460 H1445 0.960 . S
C1460 H1446 0.960 . S
C1460 H1447 0.960 . S
C1460 C1459 1.524 . S
C1461 C1458 1.403 . S
C1461 C1462 1.392 . S
C1461 C1465 1.495 . S
C1462 C1461 1.392 . S
C1462 C1463 1.385 . S
C1462 C1464 1.478 . S
C1463 H1457 0.930 . S
C1463 C1459 1.400 1_556 S
C1463 C1462 1.385 . S
C1464 C1462 1.478 . S
C1464 C1466 1.381 . S
C1464 C1470 1.383 . S
C1465 C1461 1.495 . S
C1465 H1471 0.959 . S
C1465 H1472 0.961 . S
C1465 H1473 0.960 . S
C1466 C1464 1.381 . S
C1466 C1467 1.394 . S
C1466 H1474 0.930 . S
C1467 C1466 1.394 . S
C1467 C1468 1.383 . S
C1467 H1475 0.929 . S
C1468 C1467 1.383 . S
C1468 C1469 1.377 . S
C1469 H1453 0.930 . S
C1469 C1468 1.377 . S
C1469 C1470 1.379 . S
C1470 H1454 0.931 . S
C1470 C1464 1.383 . S
C1470 C1469 1.379 . S
H1471 C1465 0.959 . S
H1472 C1465 0.961 . S
H1473 C1465 0.960 . S
H1474 C1466 0.930 . S
H1475 C1467 0.929 . S
H1476 C1484 0.929 . S
H1477 C1486 0.930 . S
H1478 C1488 0.930 . S
H1479 C1491 0.929 . S
H1480 C1494 0.930 . S
H1481 C1496 0.960 . S
H1482 C1496 0.960 . S
H1483 C1496 0.960 . S
C1484 H1476 0.929 . S
C1484 C1485 1.377 . S
C1484 C1486 1.384 . S
C1485 C1484 1.377 . S
C1485 C1491 1.390 . S
C1486 H1477 0.930 . S
C1486 C1484 1.384 . S
C1486 C1487 1.372 . S
C1487 C1486 1.372 . S
C1487 C1488 1.400 . S
C1487 C1492 1.490 . S
C1488 H1478 0.930 . S
C1488 C1487 1.400 . S
C1488 C1491 1.386 . S
H1489 C1505 0.930 . S
H1490 C1506 0.931 . S
C1491 H1479 0.929 . S
C1491 C1485 1.390 . S
C1491 C1488 1.386 . S
C1492 C1487 1.490 . S
C1492 C1494 1.395 . S
C1492 C1495 1.403 . S
H1493 C1499 0.930 . S
C1494 H1480 0.930 . S
C1494 C1492 1.395 . S
C1494 C1497 1.403 . S
C1495 C1492 1.403 . S
C1495 C1496 1.524 . S
C1495 C1499 1.400 . S
C1496 H1481 0.960 . S
C1496 H1482 0.960 . S
C1496 H1483 0.960 . S
C1496 C1495 1.524 . S
C1497 C1494 1.403 . S
C1497 C1498 1.392 . S
C1497 C1501 1.495 . S
C1498 C1497 1.392 . S
C1498 C1499 1.385 . S
C1498 C1500 1.478 . S
C1499 H1493 0.930 . S
C1499 C1495 1.400 . S
C1499 C1498 1.385 . S
C1500 C1498 1.478 . S
C1500 C1502 1.381 . S
C1500 C1506 1.383 . S
C1501 C1497 1.495 . S
C1501 H1507 0.959 . S
C1501 H1508 0.961 . S
C1501 H1509 0.960 . S
C1502 C1500 1.381 . S
C1502 C1503 1.394 . S
C1502 H1510 0.930 . S
C1503 C1502 1.394 . S
C1503 C1504 1.383 . S
C1503 H1511 0.929 . S
C1504 C1503 1.383 . S
C1504 C1505 1.377 . S
C1505 H1489 0.930 . S
C1505 C1504 1.377 . S
C1505 C1506 1.379 . S
C1506 H1490 0.931 . S
C1506 C1500 1.383 . S
C1506 C1505 1.379 . S
H1507 C1501 0.959 . S
H1508 C1501 0.961 . S
H1509 C1501 0.960 . S
H1510 C1502 0.930 . S
H1511 C1503 0.929 . S
H1512 C1520 0.929 . S
H1513 C1522 0.930 . S
H1514 C1524 0.930 . S
H1515 C1527 0.929 . S
H1516 C1530 0.930 . S
H1517 C1532 0.960 . S
H1518 C1532 0.960 . S
H1519 C1532 0.960 . S
C1520 H1512 0.929 . S
C1520 C1521 1.377 . S
C1520 C1522 1.384 . S
C1521 C1520 1.377 . S
C1521 C1527 1.390 . S
C1522 H1513 0.930 . S
C1522 C1520 1.384 . S
C1522 C1523 1.372 . S
C1523 C1522 1.372 . S
C1523 C1524 1.400 . S
C1523 C1528 1.490 . S
C1524 H1514 0.930 . S
C1524 C1523 1.400 . S
C1524 C1527 1.386 . S
H1525 C1541 0.930 . S
H1526 C1542 0.931 . S
C1527 H1515 0.929 . S
C1527 C1521 1.390 . S
C1527 C1524 1.386 . S
C1528 C1523 1.490 . S
C1528 C1530 1.395 . S
C1528 C1531 1.403 . S
H1529 C1535 0.930 . S
C1530 H1516 0.930 . S
C1530 C1528 1.395 . S
C1530 C1533 1.403 . S
C1531 C1528 1.403 . S
C1531 C1532 1.524 . S
C1531 C1535 1.400 . S
C1532 H1517 0.960 . S
C1532 H1518 0.960 . S
C1532 H1519 0.960 . S
C1532 C1531 1.524 . S
C1533 C1530 1.403 . S
C1533 C1534 1.392 . S
C1533 C1537 1.495 . S
C1534 C1533 1.392 . S
C1534 C1535 1.385 . S
C1534 C1536 1.478 . S
C1535 H1529 0.930 . S
C1535 C1531 1.400 . S
C1535 C1534 1.385 . S
C1536 C1534 1.478 . S
C1536 C1538 1.381 . S
C1536 C1542 1.383 . S
C1537 C1533 1.495 . S
C1537 H1543 0.959 . S
C1537 H1544 0.961 . S
C1537 H1545 0.960 . S
C1538 C1536 1.381 . S
C1538 C1539 1.394 . S
C1538 H1546 0.930 . S
C1539 C1538 1.394 . S
C1539 C1540 1.383 . S
C1539 H1547 0.929 . S
C1540 C1539 1.383 . S
C1540 C1541 1.377 . S
C1541 H1525 0.930 . S
C1541 C1540 1.377 . S
C1541 C1542 1.379 . S
C1542 H1526 0.931 . S
C1542 C1536 1.383 . S
C1542 C1541 1.379 . S
H1543 C1537 0.959 . S
H1544 C1537 0.961 . S
H1545 C1537 0.960 . S
H1546 C1538 0.930 . S
H1547 C1539 0.929 . S
H1548 C1556 0.929 . S
H1549 C1558 0.930 . S
H1550 C1560 0.930 . S
H1551 C1563 0.929 . S
H1552 C1566 0.930 . S
H1553 C1568 0.960 . S
H1554 C1568 0.960 . S
H1555 C1568 0.960 . S
C1556 H1548 0.929 . S
C1556 C1557 1.377 . S
C1556 C1558 1.384 . S
C1557 C1556 1.377 . S
C1557 C1563 1.390 . S
C1558 H1549 0.930 . S
C1558 C1556 1.384 . S
C1558 C1559 1.372 . S
C1559 C1558 1.372 . S
C1559 C1560 1.400 . S
C1559 C1564 1.490 . S
C1560 H1550 0.930 . S
C1560 C1559 1.400 . S
C1560 C1563 1.386 . S
H1561 C1577 0.930 . S
H1562 C1578 0.931 . S
C1563 H1551 0.929 . S
C1563 C1557 1.390 . S
C1563 C1560 1.386 . S
C1564 C1559 1.490 . S
C1564 C1566 1.395 . S
C1564 C1567 1.403 . S
H1565 C1571 0.930 . S
C1566 H1552 0.930 . S
C1566 C1564 1.395 . S
C1566 C1569 1.403 . S
C1567 C1564 1.403 . S
C1567 C1568 1.524 . S
C1567 C1571 1.400 . S
C1568 H1553 0.960 . S
C1568 H1554 0.960 . S
C1568 H1555 0.960 . S
C1568 C1567 1.524 . S
C1569 C1566 1.403 . S
C1569 C1570 1.392 . S
C1569 C1573 1.495 . S
C1570 C1569 1.392 . S
C1570 C1571 1.385 . S
C1570 C1572 1.478 . S
C1571 H1565 0.930 . S
C1571 C1567 1.400 . S
C1571 C1570 1.385 . S
C1572 C1570 1.478 . S
C1572 C1574 1.381 . S
C1572 C1578 1.383 . S
C1573 C1569 1.495 . S
C1573 H1579 0.959 . S
C1573 H1580 0.961 . S
C1573 H1581 0.960 . S
C1574 C1572 1.381 . S
C1574 C1575 1.394 . S
C1574 H1582 0.930 . S
C1575 C1574 1.394 . S
C1575 C1576 1.383 . S
C1575 H1583 0.929 . S
C1576 C1575 1.383 . S
C1576 C1577 1.377 . S
C1577 H1561 0.930 . S
C1577 C1576 1.377 . S
C1577 C1578 1.379 . S
C1578 H1562 0.931 . S
C1578 C1572 1.383 . S
C1578 C1577 1.379 . S
H1579 C1573 0.959 . S
H1580 C1573 0.961 . S
H1581 C1573 0.960 . S
H1582 C1574 0.930 . S
H1583 C1575 0.929 . S
H1584 C1592 0.929 . S
H1585 C1594 0.930 . S
H1586 C1596 0.930 . S
H1587 C1599 0.929 . S
H1588 C1602 0.930 . S
H1589 C1604 0.960 . S
H1590 C1604 0.960 . S
H1591 C1604 0.960 . S
C1592 H1584 0.929 . S
C1592 C1593 1.377 . S
C1592 C1594 1.384 . S
C1593 C1592 1.377 . S
C1593 C1599 1.390 . S
C1594 H1585 0.930 . S
C1594 C1592 1.384 . S
C1594 C1595 1.372 . S
C1595 C1594 1.372 . S
C1595 C1596 1.400 . S
C1595 C1600 1.490 . S
C1596 H1586 0.930 . S
C1596 C1595 1.400 . S
C1596 C1599 1.386 . S
H1597 C1613 0.930 . S
H1598 C1614 0.931 . S
C1599 H1587 0.929 . S
C1599 C1593 1.390 . S
C1599 C1596 1.386 . S
C1600 C1595 1.490 . S
C1600 C1602 1.395 . S
C1600 C1603 1.403 . S
H1601 C1607 0.930 . S
C1602 H1588 0.930 . S
C1602 C1600 1.395 . S
C1602 C1605 1.403 . S
C1603 C1600 1.403 . S
C1603 C1604 1.524 . S
C1603 C1607 1.400 . S
C1604 H1589 0.960 . S
C1604 H1590 0.960 . S
C1604 H1591 0.960 . S
C1604 C1603 1.524 . S
C1605 C1602 1.403 . S
C1605 C1606 1.392 . S
C1605 C1609 1.495 . S
C1606 C1605 1.392 . S
C1606 C1607 1.385 . S
C1606 C1608 1.478 . S
C1607 H1601 0.930 . S
C1607 C1603 1.400 . S
C1607 C1606 1.385 . S
C1608 C1606 1.478 . S
C1608 C1610 1.381 . S
C1608 C1614 1.383 . S
C1609 C1605 1.495 . S
C1609 H1615 0.959 . S
C1609 H1616 0.961 . S
C1609 H1617 0.960 . S
C1610 C1608 1.381 . S
C1610 C1611 1.394 . S
C1610 H1618 0.930 . S
C1611 C1610 1.394 . S
C1611 C1612 1.383 . S
C1611 H1619 0.929 . S
C1612 C1611 1.383 . S
C1612 C1613 1.377 . S
C1613 H1597 0.930 . S
C1613 C1612 1.377 . S
C1613 C1614 1.379 . S
C1614 H1598 0.931 . S
C1614 C1608 1.383 . S
C1614 C1613 1.379 . S
H1615 C1609 0.959 . S
H1616 C1609 0.961 . S
H1617 C1609 0.960 . S
H1618 C1610 0.930 . S
H1619 C1611 0.929 . S
H1620 C1628 0.929 . S
H1621 C1630 0.930 . S
H1622 C1632 0.930 . S
H1623 C1635 0.929 . S
H1624 C1638 0.930 . S
H1625 C1640 0.960 . S
H1626 C1640 0.960 . S
H1627 C1640 0.960 . S
C1628 H1620 0.929 . S
C1628 C1629 1.377 . S
C1628 C1630 1.384 . S
C1629 C1628 1.377 . S
C1629 C1635 1.390 . S
C1630 H1621 0.930 . S
C1630 C1628 1.384 . S
C1630 C1631 1.372 . S
C1631 C1630 1.372 . S
C1631 C1632 1.400 . S
C1631 C1636 1.490 . S
C1632 H1622 0.930 . S
C1632 C1631 1.400 . S
C1632 C1635 1.386 . S
H1633 C1649 0.930 . S
H1634 C1650 0.931 . S
C1635 H1623 0.929 . S
C1635 C1629 1.390 . S
C1635 C1632 1.386 . S
C1636 C1631 1.490 . S
C1636 C1638 1.395 . S
C1636 C1639 1.403 . S
H1637 C1643 0.930 . S
C1638 H1624 0.930 . S
C1638 C1636 1.395 . S
C1638 C1641 1.403 . S
C1639 C1636 1.403 . S
C1639 C1640 1.524 . S
C1639 C1643 1.400 . S
C1640 H1625 0.960 . S
C1640 H1626 0.960 . S
C1640 H1627 0.960 . S
C1640 C1639 1.524 . S
C1641 C1638 1.403 . S
C1641 C1642 1.392 . S
C1641 C1645 1.495 . S
C1642 C1641 1.392 . S
C1642 C1643 1.385 . S
C1642 C1644 1.478 . S
C1643 H1637 0.930 . S
C1643 C1639 1.400 . S
C1643 C1642 1.385 . S
C1644 C1642 1.478 . S
C1644 C1646 1.381 . S
C1644 C1650 1.383 . S
C1645 C1641 1.495 . S
C1645 H1651 0.959 . S
C1645 H1652 0.961 . S
C1645 H1653 0.960 . S
C1646 C1644 1.381 . S
C1646 C1647 1.394 . S
C1646 H1654 0.930 . S
C1647 C1646 1.394 . S
C1647 C1648 1.383 . S
C1647 H1655 0.929 . S
C1648 C1647 1.383 . S
C1648 C1649 1.377 . S
C1649 H1633 0.930 . S
C1649 C1648 1.377 . S
C1649 C1650 1.379 . S
C1650 H1634 0.931 . S
C1650 C1644 1.383 . S
C1650 C1649 1.379 . S
H1651 C1645 0.959 . S
H1652 C1645 0.961 . S
H1653 C1645 0.960 . S
H1654 C1646 0.930 . S
H1655 C1647 0.929 . S
H1656 C1664 0.929 . S
H1657 C1666 0.930 . S
H1658 C1668 0.930 . S
H1659 C1671 0.929 . S
H1660 C1674 0.930 . S
H1661 C1676 0.960 . S
H1662 C1676 0.960 . S
H1663 C1676 0.960 . S
C1664 H1656 0.929 . S
C1664 C1665 1.377 . S
C1664 C1666 1.384 . S
C1665 C1664 1.377 . S
C1665 C1671 1.390 . S
C1666 H1657 0.930 . S
C1666 C1664 1.384 . S
C1666 C1667 1.372 . S
C1667 C1666 1.372 . S
C1667 C1668 1.400 . S
C1667 C1672 1.490 . S
C1668 H1658 0.930 . S
C1668 C1667 1.400 . S
C1668 C1671 1.386 . S
H1669 C1685 0.930 . S
H1670 C1686 0.931 . S
C1671 H1659 0.929 . S
C1671 C1665 1.390 . S
C1671 C1668 1.386 . S
C1672 C1667 1.490 . S
C1672 C1674 1.395 . S
C1672 C1675 1.403 . S
H1673 C1679 0.930 . S
C1674 H1660 0.930 . S
C1674 C1672 1.395 . S
C1674 C1677 1.403 . S
C1675 C1672 1.403 . S
C1675 C1676 1.524 . S
C1675 C1679 1.400 . S
C1676 H1661 0.960 . S
C1676 H1662 0.960 . S
C1676 H1663 0.960 . S
C1676 C1675 1.524 . S
C1677 C1674 1.403 . S
C1677 C1678 1.392 . S
C1677 C1681 1.495 . S
C1678 C1677 1.392 . S
C1678 C1679 1.385 . S
C1678 C1680 1.478 . S
C1679 H1673 0.930 . S
C1679 C1675 1.400 . S
C1679 C1678 1.385 . S
C1680 C1678 1.478 . S
C1680 C1682 1.381 . S
C1680 C1686 1.383 . S
C1681 C1677 1.495 . S
C1681 H1687 0.959 . S
C1681 H1688 0.961 . S
C1681 H1689 0.960 . S
C1682 C1680 1.381 . S
C1682 C1683 1.394 . S
C1682 H1690 0.930 . S
C1683 C1682 1.394 . S
C1683 C1684 1.383 . S
C1683 H1691 0.929 . S
C1684 C1683 1.383 . S
C1684 C1685 1.377 . S
C1685 H1669 0.930 . S
C1685 C1684 1.377 . S
C1685 C1686 1.379 . S
C1686 H1670 0.931 . S
C1686 C1680 1.383 . S
C1686 C1685 1.379 . S
H1687 C1681 0.959 . S
H1688 C1681 0.961 . S
H1689 C1681 0.960 . S
H1690 C1682 0.930 . S
H1691 C1683 0.929 . S
H1692 C1700 0.929 . S
H1693 C1702 0.930 . S
H1694 C1704 0.930 . S
H1695 C1707 0.929 . S
H1696 C1710 0.930 . S
H1697 C1712 0.960 . S
H1698 C1712 0.960 . S
H1699 C1712 0.960 . S
C1700 H1692 0.929 . S
C1700 C1701 1.377 . S
C1700 C1702 1.384 . S
C1701 C1700 1.377 . S
C1701 C1707 1.390 . S
C1702 H1693 0.930 . S
C1702 C1700 1.384 . S
C1702 C1703 1.372 . S
C1703 C1702 1.372 . S
C1703 C1704 1.400 . S
C1703 C1708 1.490 . S
C1704 H1694 0.930 . S
C1704 C1703 1.400 . S
C1704 C1707 1.386 . S
H1705 C1721 0.930 . S
H1706 C1722 0.931 . S
C1707 H1695 0.929 . S
C1707 C1701 1.390 . S
C1707 C1704 1.386 . S
C1708 C1703 1.490 . S
C1708 C1710 1.395 . S
C1708 C1711 1.403 . S
H1709 C1715 0.930 . S
C1710 H1696 0.930 . S
C1710 C1708 1.395 . S
C1710 C1713 1.403 . S
C1711 C1708 1.403 . S
C1711 C1712 1.524 . S
C1711 C1715 1.400 . S
C1712 H1697 0.960 . S
C1712 H1698 0.960 . S
C1712 H1699 0.960 . S
C1712 C1711 1.524 . S
C1713 C1710 1.403 . S
C1713 C1714 1.392 . S
C1713 C1717 1.495 . S
C1714 C1713 1.392 . S
C1714 C1715 1.385 . S
C1714 C1716 1.478 . S
C1715 H1709 0.930 . S
C1715 C1711 1.400 . S
C1715 C1714 1.385 . S
C1716 C1714 1.478 . S
C1716 C1718 1.381 . S
C1716 C1722 1.383 . S
C1717 C1713 1.495 . S
C1717 H1723 0.959 . S
C1717 H1724 0.961 . S
C1717 H1725 0.960 . S
C1718 C1716 1.381 . S
C1718 C1719 1.394 . S
C1718 H1726 0.930 . S
C1719 C1718 1.394 . S
C1719 C1720 1.383 . S
C1719 H1727 0.929 . S
C1720 C1719 1.383 . S
C1720 C1721 1.377 . S
C1721 H1705 0.930 . S
C1721 C1720 1.377 . S
C1721 C1722 1.379 . S
C1722 H1706 0.931 . S
C1722 C1716 1.383 . S
C1722 C1721 1.379 . S
H1723 C1717 0.959 . S
H1724 C1717 0.961 . S
H1725 C1717 0.960 . S
H1726 C1718 0.930 . S
H1727 C1719 0.929 . S
H1728 C1736 0.929 . S
H1729 C1738 0.930 . S
H1730 C1740 0.930 . S
H1731 C1743 0.929 . S
H1732 C1746 0.930 . S
H1733 C1748 0.960 . S
H1734 C1748 0.960 . S
H1735 C1748 0.960 . S
C1736 H1728 0.929 . S
C1736 C1737 1.377 . S
C1736 C1738 1.384 . S
C1737 C1736 1.377 . S
C1737 C1743 1.390 . S
C1738 H1729 0.930 . S
C1738 C1736 1.384 . S
C1738 C1739 1.372 . S
C1739 C1738 1.372 . S
C1739 C1740 1.400 . S
C1739 C1744 1.490 . S
C1740 H1730 0.930 . S
C1740 C1739 1.400 . S
C1740 C1743 1.386 . S
H1741 C1757 0.930 . S
H1742 C1758 0.931 . S
C1743 H1731 0.929 . S
C1743 C1737 1.390 . S
C1743 C1740 1.386 . S
C1744 C1739 1.490 . S
C1744 C1746 1.395 . S
C1744 C1747 1.403 . S
H1745 C1751 0.930 . S
C1746 H1732 0.930 . S
C1746 C1744 1.395 . S
C1746 C1749 1.403 . S
C1747 C1744 1.403 . S
C1747 C1748 1.524 . S
C1747 C1751 1.400 . S
C1748 H1733 0.960 . S
C1748 H1734 0.960 . S
C1748 H1735 0.960 . S
C1748 C1747 1.524 . S
C1749 C1746 1.403 . S
C1749 C1750 1.392 . S
C1749 C1753 1.495 . S
C1750 C1749 1.392 . S
C1750 C1751 1.385 . S
C1750 C1752 1.478 . S
C1751 H1745 0.930 . S
C1751 C1747 1.400 . S
C1751 C1750 1.385 . S
C1752 C1750 1.478 . S
C1752 C1754 1.381 . S
C1752 C1758 1.383 . S
C1753 C1749 1.495 . S
C1753 H1759 0.959 . S
C1753 H1760 0.961 . S
C1753 H1761 0.960 . S
C1754 C1752 1.381 . S
C1754 C1755 1.394 . S
C1754 H1762 0.930 . S
C1755 C1754 1.394 . S
C1755 C1756 1.383 . S
C1755 H1763 0.929 . S
C1756 C1755 1.383 . S
C1756 C1757 1.377 . S
C1757 H1741 0.930 . S
C1757 C1756 1.377 . S
C1757 C1758 1.379 . S
C1758 H1742 0.931 . S
C1758 C1752 1.383 . S
C1758 C1757 1.379 . S
H1759 C1753 0.959 . S
H1760 C1753 0.961 . S
H1761 C1753 0.960 . S
H1762 C1754 0.930 . S
H1763 C1755 0.929 . S
H1764 C1772 0.929 . S
H1765 C1774 0.930 . S
H1766 C1776 0.930 . S
H1767 C1779 0.929 . S
H1768 C1782 0.930 . S
H1769 C1784 0.960 . S
H1770 C1784 0.960 . S
H1771 C1784 0.960 . S
C1772 H1764 0.929 . S
C1772 C1773 1.377 . S
C1772 C1774 1.384 . S
C1773 C1772 1.377 . S
C1773 C1779 1.390 . S
C1774 H1765 0.930 . S
C1774 C1772 1.384 . S
C1774 C1775 1.372 . S
C1775 C1774 1.372 . S
C1775 C1776 1.400 . S
C1775 C1780 1.490 . S
C1776 H1766 0.930 . S
C1776 C1775 1.400 . S
C1776 C1779 1.386 . S
H1777 C1793 0.930 . S
H1778 C1794 0.931 . S
C1779 H1767 0.929 . S
C1779 C1773 1.390 . S
C1779 C1776 1.386 . S
C1780 C1775 1.490 . S
C1780 C1782 1.395 . S
C1780 C1783 1.403 . S
H1781 C1787 0.930 . S
C1782 H1768 0.930 . S
C1782 C1780 1.395 . S
C1782 C1785 1.403 . S
C1783 C1780 1.403 . S
C1783 C1784 1.524 . S
C1783 C1787 1.400 . S
C1784 H1769 0.960 . S
C1784 H1770 0.960 . S
C1784 H1771 0.960 . S
C1784 C1783 1.524 . S
C1785 C1782 1.403 . S
C1785 C1786 1.392 . S
C1785 C1789 1.495 . S
C1786 C1785 1.392 . S
C1786 C1787 1.385 . S
C1786 C1788 1.478 . S
C1787 H1781 0.930 . S
C1787 C1783 1.400 . S
C1787 C1786 1.385 . S
C1788 C1786 1.478 . S
C1788 C1790 1.381 . S
C1788 C1794 1.383 . S
C1789 C1785 1.495 . S
C1789 H1795 0.959 . S
C1789 H1796 0.961 . S
C1789 H1797 0.960 . S
C1790 C1788 1.381 . S
C1790 C1791 1.394 . S
C1790 H1798 0.930 . S
C1791 C1790 1.394 . S
C1791 C1792 1.383 . S
C1791 H1799 0.929 . S
C1792 C1791 1.383 . S
C1792 C1793 1.377 . S
C1793 H1777 0.930 . S
C1793 C1792 1.377 . S
C1793 C1794 1.379 . S
C1794 H1778 0.931 . S
C1794 C1788 1.383 . S
C1794 C1793 1.379 . S
H1795 C1789 0.959 . S
H1796 C1789 0.961 . S
H1797 C1789 0.960 . S
H1798 C1790 0.930 . S
H1799 C1791 0.929 . S
H1800 C1808 0.929 . S
H1801 C1810 0.930 . S
H1802 C1812 0.930 . S
H1803 C1815 0.929 . S
H1804 C1818 0.930 . S
H1805 C1820 0.960 . S
H1806 C1820 0.960 . S
H1807 C1820 0.960 . S
C1808 H1800 0.929 . S
C1808 C1809 1.377 . S
C1808 C1810 1.384 . S
C1809 C1808 1.377 . S
C1809 C1815 1.390 . S
C1810 H1801 0.930 . S
C1810 C1808 1.384 . S
C1810 C1811 1.372 . S
C1811 C1810 1.372 . S
C1811 C1812 1.400 . S
C1811 C1816 1.490 . S
C1812 H1802 0.930 . S
C1812 C1811 1.400 . S
C1812 C1815 1.386 . S
H1813 C1829 0.930 . S
H1814 C1830 0.931 . S
C1815 H1803 0.929 . S
C1815 C1809 1.390 . S
C1815 C1812 1.386 . S
C1816 C1811 1.490 . S
C1816 C1818 1.395 . S
C1816 C1819 1.403 . S
H1817 C1823 0.930 . S
C1818 H1804 0.930 . S
C1818 C1816 1.395 . S
C1818 C1821 1.403 . S
C1819 C1816 1.403 . S
C1819 C1820 1.524 . S
C1819 C1823 1.400 . S
C1820 H1805 0.960 . S
C1820 H1806 0.960 . S
C1820 H1807 0.960 . S
C1820 C1819 1.524 . S
C1821 C1818 1.403 . S
C1821 C1822 1.392 . S
C1821 C1825 1.495 . S
C1822 C1821 1.392 . S
C1822 C1823 1.385 . S
C1822 C1824 1.478 . S
C1823 H1817 0.930 . S
C1823 C1819 1.400 . S
C1823 C1822 1.385 . S
C1824 C1822 1.478 . S
C1824 C1826 1.381 . S
C1824 C1830 1.383 . S
C1825 C1821 1.495 . S
C1825 H1831 0.959 . S
C1825 H1832 0.961 . S
C1825 H1833 0.960 . S
C1826 C1824 1.381 . S
C1826 C1827 1.394 . S
C1826 H1834 0.930 . S
C1827 C1826 1.394 . S
C1827 C1828 1.383 . S
C1827 H1835 0.929 . S
C1828 C1827 1.383 . S
C1828 C1829 1.377 . S
C1829 H1813 0.930 . S
C1829 C1828 1.377 . S
C1829 C1830 1.379 . S
C1830 H1814 0.931 . S
C1830 C1824 1.383 . S
C1830 C1829 1.379 . S
H1831 C1825 0.959 . S
H1832 C1825 0.961 . S
H1833 C1825 0.960 . S
H1834 C1826 0.930 . S
H1835 C1827 0.929 . S
H1836 C1844 0.929 . S
H1837 C1846 0.930 . S
H1838 C1848 0.930 . S
H1839 C1851 0.929 . S
H1840 C1854 0.930 . S
H1841 C1856 0.960 . S
H1842 C1856 0.960 . S
H1843 C1856 0.960 . S
C1844 H1836 0.929 . S
C1844 C1845 1.377 . S
C1844 C1846 1.384 . S
C1845 C1844 1.377 . S
C1845 C1851 1.390 . S
C1846 H1837 0.930 . S
C1846 C1844 1.384 . S
C1846 C1847 1.372 . S
C1847 C1846 1.372 . S
C1847 C1848 1.400 . S
C1847 C1852 1.490 . S
C1848 H1838 0.930 . S
C1848 C1847 1.400 . S
C1848 C1851 1.386 . S
H1849 C1865 0.930 . S
H1850 C1866 0.931 . S
C1851 H1839 0.929 . S
C1851 C1845 1.390 . S
C1851 C1848 1.386 . S
C1852 C1847 1.490 . S
C1852 C1854 1.395 . S
C1852 C1855 1.403 . S
H1853 C1859 0.930 . S
C1854 H1840 0.930 . S
C1854 C1852 1.395 . S
C1854 C1857 1.403 . S
C1855 C1852 1.403 . S
C1855 C1856 1.524 . S
C1855 C1859 1.400 . S
C1856 H1841 0.960 . S
C1856 H1842 0.960 . S
C1856 H1843 0.960 . S
C1856 C1855 1.524 . S
C1857 C1854 1.403 . S
C1857 C1858 1.392 . S
C1857 C1861 1.495 . S
C1858 C1857 1.392 . S
C1858 C1859 1.385 . S
C1858 C1860 1.478 . S
C1859 H1853 0.930 . S
C1859 C1855 1.400 . S
C1859 C1858 1.385 . S
C1860 C1858 1.478 . S
C1860 C1862 1.381 . S
C1860 C1866 1.383 . S
C1861 C1857 1.495 . S
C1861 H1867 0.959 . S
C1861 H1868 0.961 . S
C1861 H1869 0.960 . S
C1862 C1860 1.381 . S
C1862 C1863 1.394 . S
C1862 H1870 0.930 . S
C1863 C1862 1.394 . S
C1863 C1864 1.383 . S
C1863 H1871 0.929 . S
C1864 C1863 1.383 . S
C1864 C1865 1.377 . S
C1865 H1849 0.930 . S
C1865 C1864 1.377 . S
C1865 C1866 1.379 . S
C1866 H1850 0.931 . S
C1866 C1860 1.383 . S
C1866 C1865 1.379 . S
H1867 C1861 0.959 . S
H1868 C1861 0.961 . S
H1869 C1861 0.960 . S
H1870 C1862 0.930 . S
H1871 C1863 0.929 . S
H1872 C1880 0.929 . S
H1873 C1882 0.930 . S
H1874 C1884 0.930 . S
H1875 C1887 0.929 . S
H1876 C1890 0.930 . S
H1877 C1892 0.960 . S
H1878 C1892 0.960 . S
H1879 C1892 0.960 . S
C1880 H1872 0.929 . S
C1880 C1881 1.377 . S
C1880 C1882 1.384 . S
C1881 C1880 1.377 . S
C1881 C1887 1.390 . S
C1882 H1873 0.930 . S
C1882 C1880 1.384 . S
C1882 C1883 1.372 . S
C1883 C1882 1.372 . S
C1883 C1884 1.400 . S
C1883 C1888 1.490 . S
C1884 H1874 0.930 . S
C1884 C1883 1.400 . S
C1884 C1887 1.386 . S
H1885 C1901 0.930 . S
H1886 C1902 0.931 . S
C1887 H1875 0.929 . S
C1887 C1881 1.390 . S
C1887 C1884 1.386 . S
C1888 C1883 1.490 . S
C1888 C1890 1.395 . S
C1888 C1891 1.403 . S
H1889 C1895 0.930 . S
C1890 H1876 0.930 . S
C1890 C1888 1.395 . S
C1890 C1893 1.403 . S
C1891 C1888 1.403 . S
C1891 C1892 1.524 . S
C1891 C1895 1.400 . S
C1892 H1877 0.960 . S
C1892 H1878 0.960 . S
C1892 H1879 0.960 . S
C1892 C1891 1.524 . S
C1893 C1890 1.403 . S
C1893 C1894 1.392 . S
C1893 C1897 1.495 . S
C1894 C1893 1.392 . S
C1894 C1895 1.385 . S
C1894 C1896 1.478 . S
C1895 H1889 0.930 . S
C1895 C1891 1.400 . S
C1895 C1894 1.385 . S
C1896 C1894 1.478 . S
C1896 C1898 1.381 . S
C1896 C1902 1.383 . S
C1897 C1893 1.495 . S
C1897 H1903 0.959 . S
C1897 H1904 0.961 . S
C1897 H1905 0.960 . S
C1898 C1896 1.381 . S
C1898 C1899 1.394 . S
C1898 H1906 0.930 . S
C1899 C1898 1.394 . S
C1899 C1900 1.383 . S
C1899 H1907 0.929 . S
C1900 C1899 1.383 . S
C1900 C1901 1.377 . S
C1901 H1885 0.930 . S
C1901 C1900 1.377 . S
C1901 C1902 1.379 . S
C1902 H1886 0.931 . S
C1902 C1896 1.383 . S
C1902 C1901 1.379 . S
H1903 C1897 0.959 . S
H1904 C1897 0.961 . S
H1905 C1897 0.960 . S
H1906 C1898 0.930 . S
H1907 C1899 0.929 . S
H1908 C1916 0.929 . S
H1909 C1918 0.930 . S
H1910 C1920 0.930 . S
H1911 C1923 0.929 . S
H1912 C1926 0.930 . S
H1913 C1928 0.960 . S
H1914 C1928 0.960 . S
H1915 C1928 0.960 . S
C1916 H1908 0.929 . S
C1916 C1917 1.377 . S
C1916 C1918 1.384 . S
C1917 C1916 1.377 . S
C1917 C1923 1.390 . S
C1918 H1909 0.930 . S
C1918 C1916 1.384 . S
C1918 C1919 1.372 . S
C1919 C1918 1.372 . S
C1919 C1920 1.400 . S
C1919 C1924 1.490 . S
C1920 H1910 0.930 . S
C1920 C1919 1.400 . S
C1920 C1923 1.386 . S
H1921 C1937 0.930 . S
H1922 C1938 0.931 . S
C1923 H1911 0.929 . S
C1923 C1917 1.390 . S
C1923 C1920 1.386 . S
C1924 C1919 1.490 . S
C1924 C1926 1.395 . S
C1924 C1927 1.403 . S
H1925 C1931 0.930 . S
C1926 H1912 0.930 . S
C1926 C1924 1.395 . S
C1926 C1929 1.403 . S
C1927 C1924 1.403 . S
C1927 C1928 1.524 . S
C1927 C1931 1.400 . S
C1928 H1913 0.960 . S
C1928 H1914 0.960 . S
C1928 H1915 0.960 . S
C1928 C1927 1.524 . S
C1929 C1926 1.403 . S
C1929 C1930 1.392 . S
C1929 C1933 1.495 . S
C1930 C1929 1.392 . S
C1930 C1931 1.385 . S
C1930 C1932 1.478 . S
C1931 H1925 0.930 . S
C1931 C1927 1.400 . S
C1931 C1930 1.385 . S
C1932 C1930 1.478 . S
C1932 C1934 1.381 . S
C1932 C1938 1.383 . S
C1933 C1929 1.495 . S
C1933 H1939 0.959 . S
C1933 H1940 0.961 . S
C1933 H1941 0.960 . S
C1934 C1932 1.381 . S
C1934 C1935 1.394 . S
C1934 H1942 0.930 . S
C1935 C1934 1.394 . S
C1935 C1936 1.383 . S
C1935 H1943 0.929 . S
C1936 C1935 1.383 . S
C1936 C1937 1.377 . S
C1937 H1921 0.930 . S
C1937 C1936 1.377 . S
C1937 C1938 1.379 . S
C1938 H1922 0.931 . S
C1938 C1932 1.383 . S
C1938 C1937 1.379 . S
H1939 C1933 0.959 . S
H1940 C1933 0.961 . S
H1941 C1933 0.960 . S
H1942 C1934 0.930 . S
H1943 C1935 0.929 . S
H1944 C1952 0.929 . S
H1945 C1954 0.930 . S
H1946 C1956 0.930 . S
H1947 C1959 0.929 . S
H1948 C1962 0.930 . S
H1949 C1964 0.960 . S
H1950 C1964 0.960 . S
H1951 C1964 0.960 . S
C1952 H1944 0.929 . S
C1952 C1953 1.377 . S
C1952 C1954 1.384 . S
C1953 C1952 1.377 . S
C1953 C1959 1.390 . S
C1954 H1945 0.930 . S
C1954 C1952 1.384 . S
C1954 C1955 1.372 . S
C1955 C1954 1.372 . S
C1955 C1956 1.400 . S
C1955 C1960 1.490 . S
C1956 H1946 0.930 . S
C1956 C1955 1.400 . S
C1956 C1959 1.386 . S
H1957 C1973 0.930 . S
H1958 C1974 0.931 . S
C1959 H1947 0.929 . S
C1959 C1953 1.390 . S
C1959 C1956 1.386 . S
C1960 C1955 1.490 . S
C1960 C1962 1.395 . S
C1960 C1963 1.403 . S
H1961 C1967 0.930 . S
C1962 H1948 0.930 . S
C1962 C1960 1.395 . S
C1962 C1965 1.403 . S
C1963 C1960 1.403 . S
C1963 C1964 1.524 . S
C1963 C1967 1.400 . S
C1964 H1949 0.960 . S
C1964 H1950 0.960 . S
C1964 H1951 0.960 . S
C1964 C1963 1.524 . S
C1965 C1962 1.403 . S
C1965 C1966 1.392 . S
C1965 C1969 1.495 . S
C1966 C1965 1.392 . S
C1966 C1967 1.385 . S
C1966 C1968 1.478 . S
C1967 H1961 0.930 . S
C1967 C1963 1.400 . S
C1967 C1966 1.385 . S
C1968 C1966 1.478 . S
C1968 C1970 1.381 . S
C1968 C1974 1.383 . S
C1969 C1965 1.495 . S
C1969 H1975 0.959 . S
C1969 H1976 0.961 . S
C1969 H1977 0.960 . S
C1970 C1968 1.381 . S
C1970 C1971 1.394 . S
C1970 H1978 0.930 . S
C1971 C1970 1.394 . S
C1971 C1972 1.383 . S
C1971 H1979 0.929 . S
C1972 C1971 1.383 . S
C1972 C1973 1.377 . S
C1973 H1957 0.930 . S
C1973 C1972 1.377 . S
C1973 C1974 1.379 . S
C1974 H1958 0.931 . S
C1974 C1968 1.383 . S
C1974 C1973 1.379 . S
H1975 C1969 0.959 . S
H1976 C1969 0.961 . S
H1977 C1969 0.960 . S
H1978 C1970 0.930 . S
H1979 C1971 0.929 . S
H1980 C1988 0.929 . S
H1981 C1990 0.930 . S
H1982 C1992 0.930 . S
H1983 C1995 0.929 1_554 S
H1984 C1998 0.930 . S
H1985 C2000 0.960 . S
H1986 C2000 0.960 . S
H1987 C2000 0.960 . S
C1988 H1980 0.929 . S
C1988 C1989 1.377 . S
C1988 C1990 1.384 . S
C1989 C1988 1.377 . S
C1989 C1995 1.390 . S
C1990 H1981 0.930 . S
C1990 C1988 1.384 . S
C1990 C1991 1.372 . S
C1991 C1990 1.372 . S
C1991 C1992 1.400 . S
C1991 C1996 1.490 . S
C1992 H1982 0.930 . S
C1992 C1991 1.400 . S
C1992 C1995 1.386 . S
H1993 C2009 0.930 . S
H1994 C2010 0.931 . S
C1995 H1983 0.929 1_556 S
C1995 C1989 1.390 . S
C1995 C1992 1.386 . S
C1996 C1991 1.490 . S
C1996 C1998 1.395 . S
C1996 C1999 1.403 . S
H1997 C2003 0.930 . S
C1998 H1984 0.930 . S
C1998 C1996 1.395 . S
C1998 C2001 1.403 . S
C1999 C1996 1.403 . S
C1999 C2000 1.524 . S
C1999 C2003 1.400 . S
C2000 H1985 0.960 . S
C2000 H1986 0.960 . S
C2000 H1987 0.960 . S
C2000 C1999 1.524 . S
C2001 C1998 1.403 . S
C2001 C2002 1.392 . S
C2001 C2005 1.495 . S
C2002 C2001 1.392 . S
C2002 C2003 1.385 . S
C2002 C2004 1.478 . S
C2003 H1997 0.930 . S
C2003 C1999 1.400 . S
C2003 C2002 1.385 . S
C2004 C2002 1.478 . S
C2004 C2006 1.381 . S
C2004 C2010 1.383 . S
C2005 C2001 1.495 . S
C2005 H2011 0.959 . S
C2005 H2012 0.961 . S
C2005 H2013 0.960 . S
C2006 C2004 1.381 . S
C2006 C2007 1.394 . S
C2006 H2014 0.930 . S
C2007 C2006 1.394 . S
C2007 C2008 1.383 . S
C2007 H2015 0.929 . S
C2008 C2007 1.383 . S
C2008 C2009 1.377 . S
C2009 H1993 0.930 . S
C2009 C2008 1.377 . S
C2009 C2010 1.379 . S
C2010 H1994 0.931 . S
C2010 C2004 1.383 . S
C2010 C2009 1.379 . S
H2011 C2005 0.959 . S
H2012 C2005 0.961 . S
H2013 C2005 0.960 . S
H2014 C2006 0.930 . S
H2015 C2007 0.929 . S
H2016 C2024 0.929 . S
H2017 C2026 0.930 . S
H2018 C2028 0.930 . S
H2019 C2031 0.929 . S
H2020 C2034 0.930 . S
H2021 C2036 0.960 . S
H2022 C2036 0.960 . S
H2023 C2036 0.960 . S
C2024 H2016 0.929 . S
C2024 C2025 1.377 . S
C2024 C2026 1.384 . S
C2025 C2024 1.377 . S
C2025 C2031 1.390 . S
C2026 H2017 0.930 . S
C2026 C2024 1.384 . S
C2026 C2027 1.372 . S
C2027 C2026 1.372 . S
C2027 C2028 1.400 . S
C2027 C2032 1.490 . S
C2028 H2018 0.930 . S
C2028 C2027 1.400 . S
C2028 C2031 1.386 . S
H2029 C2045 0.930 . S
H2030 C2046 0.931 . S
C2031 H2019 0.929 . S
C2031 C2025 1.390 . S
C2031 C2028 1.386 . S
C2032 C2027 1.490 . S
C2032 C2034 1.395 . S
C2032 C2035 1.403 . S
H2033 C2039 0.930 . S
C2034 H2020 0.930 . S
C2034 C2032 1.395 . S
C2034 C2037 1.403 . S
C2035 C2032 1.403 . S
C2035 C2036 1.524 . S
C2035 C2039 1.400 . S
C2036 H2021 0.960 . S
C2036 H2022 0.960 . S
C2036 H2023 0.960 . S
C2036 C2035 1.524 . S
C2037 C2034 1.403 . S
C2037 C2038 1.392 . S
C2037 C2041 1.495 . S
C2038 C2037 1.392 . S
C2038 C2039 1.385 . S
C2038 C2040 1.478 . S
C2039 H2033 0.930 . S
C2039 C2035 1.400 . S
C2039 C2038 1.385 . S
C2040 C2038 1.478 . S
C2040 C2042 1.381 . S
C2040 C2046 1.383 . S
C2041 C2037 1.495 . S
C2041 H2047 0.959 . S
C2041 H2048 0.961 . S
C2041 H2049 0.960 . S
C2042 C2040 1.381 . S
C2042 C2043 1.394 . S
C2042 H2050 0.930 . S
C2043 C2042 1.394 . S
C2043 C2044 1.383 . S
C2043 H2051 0.929 . S
C2044 C2043 1.383 . S
C2044 C2045 1.377 . S
C2045 H2029 0.930 . S
C2045 C2044 1.377 . S
C2045 C2046 1.379 . S
C2046 H2030 0.931 . S
C2046 C2040 1.383 . S
C2046 C2045 1.379 . S
H2047 C2041 0.959 . S
H2048 C2041 0.961 . S
H2049 C2041 0.960 . S
H2050 C2042 0.930 . S
H2051 C2043 0.929 . S
H2052 C2060 0.929 . S
H2053 C2062 0.930 . S
H2054 C2064 0.930 . S
H2055 C2067 0.929 . S
H2056 C2070 0.930 . S
H2057 C2072 0.960 . S
H2058 C2072 0.960 . S
H2059 C2072 0.960 . S
C2060 H2052 0.929 . S
C2060 C2061 1.377 . S
C2060 C2062 1.384 . S
C2061 C2060 1.377 . S
C2061 C2067 1.390 . S
C2062 H2053 0.930 . S
C2062 C2060 1.384 . S
C2062 C2063 1.372 . S
C2063 C2062 1.372 . S
C2063 C2064 1.400 . S
C2063 C2068 1.490 . S
C2064 H2054 0.930 . S
C2064 C2063 1.400 . S
C2064 C2067 1.386 . S
H2065 C2081 0.930 . S
H2066 C2082 0.931 . S
C2067 H2055 0.929 . S
C2067 C2061 1.390 . S
C2067 C2064 1.386 . S
C2068 C2063 1.490 . S
C2068 C2070 1.395 . S
C2068 C2071 1.403 . S
H2069 C2075 0.930 . S
C2070 H2056 0.930 . S
C2070 C2068 1.395 . S
C2070 C2073 1.403 . S
C2071 C2068 1.403 . S
C2071 C2072 1.524 . S
C2071 C2075 1.400 . S
C2072 H2057 0.960 . S
C2072 H2058 0.960 . S
C2072 H2059 0.960 . S
C2072 C2071 1.524 . S
C2073 C2070 1.403 . S
C2073 C2074 1.392 . S
C2073 C2077 1.495 . S
C2074 C2073 1.392 . S
C2074 C2075 1.385 . S
C2074 C2076 1.478 . S
C2075 H2069 0.930 . S
C2075 C2071 1.400 . S
C2075 C2074 1.385 . S
C2076 C2074 1.478 . S
C2076 C2078 1.381 . S
C2076 C2082 1.383 . S
C2077 C2073 1.495 . S
C2077 H2083 0.959 . S
C2077 H2084 0.961 . S
C2077 H2085 0.960 . S
C2078 C2076 1.381 . S
C2078 C2079 1.394 . S
C2078 H2086 0.930 . S
C2079 C2078 1.394 . S
C2079 C2080 1.383 . S
C2079 H2087 0.929 . S
C2080 C2079 1.383 . S
C2080 C2081 1.377 . S
C2081 H2065 0.930 . S
C2081 C2080 1.377 . S
C2081 C2082 1.379 . S
C2082 H2066 0.931 . S
C2082 C2076 1.383 . S
C2082 C2081 1.379 . S
H2083 C2077 0.959 . S
H2084 C2077 0.961 . S
H2085 C2077 0.960 . S
H2086 C2078 0.930 . S
H2087 C2079 0.929 . S
H2088 C2096 0.929 . S
H2089 C2098 0.930 . S
H2090 C2100 0.930 . S
H2091 C2103 0.929 . S
H2092 C2106 0.930 . S
H2093 C2108 0.960 . S
H2094 C2108 0.960 . S
H2095 C2108 0.960 . S
C2096 H2088 0.929 . S
C2096 C2097 1.377 . S
C2096 C2098 1.384 . S
C2097 C2096 1.377 . S
C2097 C2103 1.390 . S
C2098 H2089 0.930 . S
C2098 C2096 1.384 . S
C2098 C2099 1.372 . S
C2099 C2098 1.372 . S
C2099 C2100 1.400 . S
C2099 C2104 1.490 . S
C2100 H2090 0.930 . S
C2100 C2099 1.400 . S
C2100 C2103 1.386 . S
H2101 C2117 0.930 . S
H2102 C2118 0.931 . S
C2103 H2091 0.929 . S
C2103 C2097 1.390 . S
C2103 C2100 1.386 . S
C2104 C2099 1.490 . S
C2104 C2106 1.395 . S
C2104 C2107 1.403 . S
H2105 C2111 0.930 . S
C2106 H2092 0.930 . S
C2106 C2104 1.395 . S
C2106 C2109 1.403 . S
C2107 C2104 1.403 . S
C2107 C2108 1.524 . S
C2107 C2111 1.400 . S
C2108 H2093 0.960 . S
C2108 H2094 0.960 . S
C2108 H2095 0.960 . S
C2108 C2107 1.524 . S
C2109 C2106 1.403 . S
C2109 C2110 1.392 . S
C2109 C2113 1.495 . S
C2110 C2109 1.392 . S
C2110 C2111 1.385 . S
C2110 C2112 1.478 . S
C2111 H2105 0.930 . S
C2111 C2107 1.400 . S
C2111 C2110 1.385 . S
C2112 C2110 1.478 . S
C2112 C2114 1.381 . S
C2112 C2118 1.383 . S
C2113 C2109 1.495 . S
C2113 H2119 0.959 . S
C2113 H2120 0.961 . S
C2113 H2121 0.960 . S
C2114 C2112 1.381 . S
C2114 C2115 1.394 . S
C2114 H2122 0.930 . S
C2115 C2114 1.394 . S
C2115 C2116 1.383 . S
C2115 H2123 0.929 . S
C2116 C2115 1.383 . S
C2116 C2117 1.377 . S
C2117 H2101 0.930 . S
C2117 C2116 1.377 . S
C2117 C2118 1.379 . S
C2118 H2102 0.931 . S
C2118 C2112 1.383 . S
C2118 C2117 1.379 . S
H2119 C2113 0.959 . S
H2120 C2113 0.961 . S
H2121 C2113 0.960 . S
H2122 C2114 0.930 . S
H2123 C2115 0.929 . S
H2124 C2132 0.929 . S
H2125 C2134 0.930 . S
H2126 C2136 0.930 . S
H2127 C2139 0.929 1_556 S
H2128 C2142 0.930 . S
H2129 C2144 0.960 . S
H2130 C2144 0.960 . S
H2131 C2144 0.960 . S
C2132 H2124 0.929 . S
C2132 C2133 1.377 . S
C2132 C2134 1.384 . S
C2133 C2132 1.377 . S
C2133 C2139 1.390 . S
C2134 H2125 0.930 . S
C2134 C2132 1.384 . S
C2134 C2135 1.372 . S
C2135 C2134 1.372 . S
C2135 C2136 1.400 . S
C2135 C2140 1.490 . S
C2136 H2126 0.930 . S
C2136 C2135 1.400 . S
C2136 C2139 1.386 . S
H2137 C2153 0.930 . S
H2138 C2154 0.931 . S
C2139 H2127 0.929 1_554 S
C2139 C2133 1.390 . S
C2139 C2136 1.386 . S
C2140 C2135 1.490 . S
C2140 C2142 1.395 . S
C2140 C2143 1.403 . S
H2141 C2147 0.930 . S
C2142 H2128 0.930 . S
C2142 C2140 1.395 . S
C2142 C2145 1.403 . S
C2143 C2140 1.403 . S
C2143 C2144 1.524 . S
C2143 C2147 1.400 . S
C2144 H2129 0.960 . S
C2144 H2130 0.960 . S
C2144 H2131 0.960 . S
C2144 C2143 1.524 . S
C2145 C2142 1.403 . S
C2145 C2146 1.392 . S
C2145 C2149 1.495 . S
C2146 C2145 1.392 . S
C2146 C2147 1.385 . S
C2146 C2148 1.478 . S
C2147 H2141 0.930 . S
C2147 C2143 1.400 . S
C2147 C2146 1.385 . S
C2148 C2146 1.478 . S
C2148 C2150 1.381 . S
C2148 C2154 1.383 . S
C2149 C2145 1.495 . S
C2149 H2155 0.959 . S
C2149 H2156 0.961 . S
C2149 H2157 0.960 . S
C2150 C2148 1.381 . S
C2150 C2151 1.394 . S
C2150 H2158 0.930 . S
C2151 C2150 1.394 . S
C2151 C2152 1.383 . S
C2151 H2159 0.929 . S
C2152 C2151 1.383 . S
C2152 C2153 1.377 . S
C2153 H2137 0.930 . S
C2153 C2152 1.377 . S
C2153 C2154 1.379 . S
C2154 H2138 0.931 . S
C2154 C2148 1.383 . S
C2154 C2153 1.379 . S
H2155 C2149 0.959 . S
H2156 C2149 0.961 . S
H2157 C2149 0.960 . S
H2158 C2150 0.930 . S
H2159 C2151 0.929 . S
H2160 C2168 0.929 . S
H2161 C2170 0.930 . S
H2162 C2172 0.930 . S
H2163 C2175 0.929 . S
H2164 C2178 0.930 . S
H2165 C2180 0.960 . S
H2166 C2180 0.960 . S
H2167 C2180 0.960 . S
C2168 H2160 0.929 . S
C2168 C2169 1.377 . S
C2168 C2170 1.384 . S
C2169 C2168 1.377 . S
C2169 C2175 1.390 . S
C2170 H2161 0.930 . S
C2170 C2168 1.384 . S
C2170 C2171 1.372 . S
C2171 C2170 1.372 . S
C2171 C2172 1.400 . S
C2171 C2176 1.490 . S
C2172 H2162 0.930 . S
C2172 C2171 1.400 . S
C2172 C2175 1.386 . S
H2173 C2189 0.930 1_556 S
H2174 C2190 0.931 . S
C2175 H2163 0.929 . S
C2175 C2169 1.390 . S
C2175 C2172 1.386 . S
C2176 C2171 1.490 . S
C2176 C2178 1.395 . S
C2176 C2179 1.403 . S
H2177 C2183 0.930 . S
C2178 H2164 0.930 . S
C2178 C2176 1.395 . S
C2178 C2181 1.403 . S
C2179 C2176 1.403 . S
C2179 C2180 1.524 . S
C2179 C2183 1.400 . S
C2180 H2165 0.960 . S
C2180 H2166 0.960 . S
C2180 H2167 0.960 . S
C2180 C2179 1.524 . S
C2181 C2178 1.403 . S
C2181 C2182 1.392 . S
C2181 C2185 1.495 . S
C2182 C2181 1.392 . S
C2182 C2183 1.385 . S
C2182 C2184 1.478 . S
C2183 H2177 0.930 . S
C2183 C2179 1.400 . S
C2183 C2182 1.385 . S
C2184 C2182 1.478 . S
C2184 C2186 1.381 . S
C2184 C2190 1.383 . S
C2185 C2181 1.495 . S
C2185 H2191 0.959 . S
C2185 H2192 0.961 . S
C2185 H2193 0.960 . S
C2186 C2184 1.381 . S
C2186 C2187 1.394 . S
C2186 H2194 0.930 . S
C2187 C2186 1.394 . S
C2187 C2188 1.383 . S
C2187 H2195 0.929 . S
C2188 C2187 1.383 . S
C2188 C2189 1.377 . S
C2189 H2173 0.930 1_554 S
C2189 C2188 1.377 . S
C2189 C2190 1.379 . S
C2190 H2174 0.931 . S
C2190 C2184 1.383 . S
C2190 C2189 1.379 . S
H2191 C2185 0.959 . S
H2192 C2185 0.961 . S
H2193 C2185 0.960 . S
H2194 C2186 0.930 . S
H2195 C2187 0.929 . S
H2196 C2204 0.929 . S
H2197 C2206 0.930 . S
H2198 C2208 0.930 . S
H2199 C2211 0.929 1_556 S
H2200 C2214 0.930 . S
H2201 C2216 0.960 . S
H2202 C2216 0.960 . S
H2203 C2216 0.960 . S
C2204 H2196 0.929 . S
C2204 C2205 1.377 . S
C2204 C2206 1.384 . S
C2205 C2204 1.377 . S
C2205 C2211 1.390 . S
C2206 H2197 0.930 . S
C2206 C2204 1.384 . S
C2206 C2207 1.372 . S
C2207 C2206 1.372 . S
C2207 C2208 1.400 . S
C2207 C2212 1.490 . S
C2208 H2198 0.930 . S
C2208 C2207 1.400 . S
C2208 C2211 1.386 . S
H2209 C2225 0.930 . S
H2210 C2226 0.931 . S
C2211 H2199 0.929 1_554 S
C2211 C2205 1.390 . S
C2211 C2208 1.386 . S
C2212 C2207 1.490 . S
C2212 C2214 1.395 . S
C2212 C2215 1.403 . S
H2213 C2219 0.930 . S
C2214 H2200 0.930 . S
C2214 C2212 1.395 . S
C2214 C2217 1.403 . S
C2215 C2212 1.403 . S
C2215 C2216 1.524 . S
C2215 C2219 1.400 . S
C2216 H2201 0.960 . S
C2216 H2202 0.960 . S
C2216 H2203 0.960 . S
C2216 C2215 1.524 . S
C2217 C2214 1.403 . S
C2217 C2218 1.392 . S
C2217 C2221 1.495 . S
C2218 C2217 1.392 . S
C2218 C2219 1.385 . S
C2218 C2220 1.478 . S
C2219 H2213 0.930 . S
C2219 C2215 1.400 . S
C2219 C2218 1.385 . S
C2220 C2218 1.478 . S
C2220 C2222 1.381 . S
C2220 C2226 1.383 . S
C2221 C2217 1.495 . S
C2221 H2227 0.959 . S
C2221 H2228 0.961 . S
C2221 H2229 0.960 . S
C2222 C2220 1.381 . S
C2222 C2223 1.394 . S
C2222 H2230 0.930 . S
C2223 C2222 1.394 . S
C2223 C2224 1.383 . S
C2223 H2231 0.929 . S
C2224 C2223 1.383 . S
C2224 C2225 1.377 . S
C2225 H2209 0.930 . S
C2225 C2224 1.377 . S
C2225 C2226 1.379 . S
C2226 H2210 0.931 . S
C2226 C2220 1.383 . S
C2226 C2225 1.379 . S
H2227 C2221 0.959 . S
H2228 C2221 0.961 . S
H2229 C2221 0.960 . S
H2230 C2222 0.930 . S
H2231 C2223 0.929 . S
H2232 C2240 0.929 . S
H2233 C2242 0.930 . S
H2234 C2244 0.930 . S
H2235 C2247 0.929 . S
H2236 C2250 0.930 . S
H2237 C2252 0.960 . S
H2238 C2252 0.960 . S
H2239 C2252 0.960 . S
C2240 H2232 0.929 . S
C2240 C2241 1.377 . S
C2240 C2242 1.384 . S
C2241 C2240 1.377 . S
C2241 C2247 1.390 . S
C2242 H2233 0.930 . S
C2242 C2240 1.384 . S
C2242 C2243 1.372 . S
C2243 C2242 1.372 . S
C2243 C2244 1.400 . S
C2243 C2248 1.490 . S
C2244 H2234 0.930 . S
C2244 C2243 1.400 . S
C2244 C2247 1.386 . S
H2245 C2261 0.930 . S
H2246 C2262 0.931 . S
C2247 H2235 0.929 . S
C2247 C2241 1.390 . S
C2247 C2244 1.386 . S
C2248 C2243 1.490 . S
C2248 C2250 1.395 . S
C2248 C2251 1.403 . S
H2249 C2255 0.930 . S
C2250 H2236 0.930 . S
C2250 C2248 1.395 . S
C2250 C2253 1.403 . S
C2251 C2248 1.403 . S
C2251 C2252 1.524 . S
C2251 C2255 1.400 . S
C2252 H2237 0.960 . S
C2252 H2238 0.960 . S
C2252 H2239 0.960 . S
C2252 C2251 1.524 . S
C2253 C2250 1.403 . S
C2253 C2254 1.392 . S
C2253 C2257 1.495 . S
C2254 C2253 1.392 . S
C2254 C2255 1.385 . S
C2254 C2256 1.478 . S
C2255 H2249 0.930 . S
C2255 C2251 1.400 . S
C2255 C2254 1.385 . S
C2256 C2254 1.478 . S
C2256 C2258 1.381 . S
C2256 C2262 1.383 . S
C2257 C2253 1.495 . S
C2257 H2263 0.959 . S
C2257 H2264 0.961 . S
C2257 H2265 0.960 . S
C2258 C2256 1.381 . S
C2258 C2259 1.394 . S
C2258 H2266 0.930 . S
C2259 C2258 1.394 . S
C2259 C2260 1.383 . S
C2259 H2267 0.929 . S
C2260 C2259 1.383 . S
C2260 C2261 1.377 . S
C2261 H2245 0.930 . S
C2261 C2260 1.377 . S
C2261 C2262 1.379 . S
C2262 H2246 0.931 . S
C2262 C2256 1.383 . S
C2262 C2261 1.379 . S
H2263 C2257 0.959 . S
H2264 C2257 0.961 . S
H2265 C2257 0.960 . S
H2266 C2258 0.930 . S
H2267 C2259 0.929 . S
H2268 C2276 0.929 . S
H2269 C2278 0.930 . S
H2270 C2280 0.930 . S
H2271 C2283 0.929 . S
H2272 C2286 0.930 . S
H2273 C2288 0.960 . S
H2274 C2288 0.960 . S
H2275 C2288 0.960 . S
C2276 H2268 0.929 . S
C2276 C2277 1.377 . S
C2276 C2278 1.384 . S
C2277 C2276 1.377 . S
C2277 C2283 1.390 . S
C2278 H2269 0.930 . S
C2278 C2276 1.384 . S
C2278 C2279 1.372 . S
C2279 C2278 1.372 . S
C2279 C2280 1.400 . S
C2279 C2284 1.490 . S
C2280 H2270 0.930 . S
C2280 C2279 1.400 . S
C2280 C2283 1.386 . S
H2281 C2297 0.930 . S
H2282 C2298 0.931 . S
C2283 H2271 0.929 . S
C2283 C2277 1.390 . S
C2283 C2280 1.386 . S
C2284 C2279 1.490 . S
C2284 C2286 1.395 . S
C2284 C2287 1.403 . S
H2285 C2291 0.930 . S
C2286 H2272 0.930 . S
C2286 C2284 1.395 . S
C2286 C2289 1.403 . S
C2287 C2284 1.403 . S
C2287 C2288 1.524 . S
C2287 C2291 1.400 . S
C2288 H2273 0.960 . S
C2288 H2274 0.960 . S
C2288 H2275 0.960 . S
C2288 C2287 1.524 . S
C2289 C2286 1.403 . S
C2289 C2290 1.392 . S
C2289 C2293 1.495 . S
C2290 C2289 1.392 . S
C2290 C2291 1.385 . S
C2290 C2292 1.478 . S
C2291 H2285 0.930 . S
C2291 C2287 1.400 . S
C2291 C2290 1.385 . S
C2292 C2290 1.478 . S
C2292 C2294 1.381 . S
C2292 C2298 1.383 . S
C2293 C2289 1.495 . S
C2293 H2299 0.959 . S
C2293 H2300 0.961 . S
C2293 H2301 0.960 . S
C2294 C2292 1.381 . S
C2294 C2295 1.394 . S
C2294 H2302 0.930 . S
C2295 C2294 1.394 . S
C2295 C2296 1.383 . S
C2295 H2303 0.929 . S
C2296 C2295 1.383 . S
C2296 C2297 1.377 . S
C2297 H2281 0.930 . S
C2297 C2296 1.377 . S
C2297 C2298 1.379 . S
C2298 H2282 0.931 . S
C2298 C2292 1.383 . S
C2298 C2297 1.379 . S
H2299 C2293 0.959 . S
H2300 C2293 0.961 . S
H2301 C2293 0.960 . S
H2302 C2294 0.930 . S
H2303 C2295 0.929 . S
H2304 C2312 0.929 . S
H2305 C2314 0.930 . S
H2306 C2316 0.930 . S
H2307 C2319 0.929 . S
H2308 C2322 0.930 . S
H2309 C2324 0.960 . S
H2310 C2324 0.960 . S
H2311 C2324 0.960 . S
C2312 H2304 0.929 . S
C2312 C2313 1.377 . S
C2312 C2314 1.384 . S
C2313 C2312 1.377 . S
C2313 C2319 1.390 . S
C2314 H2305 0.930 . S
C2314 C2312 1.384 . S
C2314 C2315 1.372 . S
C2315 C2314 1.372 . S
C2315 C2316 1.400 . S
C2315 C2320 1.490 . S
C2316 H2306 0.930 . S
C2316 C2315 1.400 . S
C2316 C2319 1.386 . S
H2317 C2333 0.930 . S
H2318 C2334 0.931 . S
C2319 H2307 0.929 . S
C2319 C2313 1.390 . S
C2319 C2316 1.386 . S
C2320 C2315 1.490 . S
C2320 C2322 1.395 . S
C2320 C2323 1.403 . S
H2321 C2327 0.930 . S
C2322 H2308 0.930 . S
C2322 C2320 1.395 . S
C2322 C2325 1.403 . S
C2323 C2320 1.403 . S
C2323 C2324 1.524 . S
C2323 C2327 1.400 . S
C2324 H2309 0.960 . S
C2324 H2310 0.960 . S
C2324 H2311 0.960 . S
C2324 C2323 1.524 . S
C2325 C2322 1.403 . S
C2325 C2326 1.392 . S
C2325 C2329 1.495 . S
C2326 C2325 1.392 . S
C2326 C2327 1.385 . S
C2326 C2328 1.478 . S
C2327 H2321 0.930 . S
C2327 C2323 1.400 . S
C2327 C2326 1.385 . S
C2328 C2326 1.478 . S
C2328 C2330 1.381 . S
C2328 C2334 1.383 . S
C2329 C2325 1.495 . S
C2329 H2335 0.959 . S
C2329 H2336 0.961 . S
C2329 H2337 0.960 . S
C2330 C2328 1.381 . S
C2330 C2331 1.394 . S
C2330 H2338 0.930 . S
C2331 C2330 1.394 . S
C2331 C2332 1.383 . S
C2331 H2339 0.929 . S
C2332 C2331 1.383 . S
C2332 C2333 1.377 . S
C2333 H2317 0.930 . S
C2333 C2332 1.377 . S
C2333 C2334 1.379 . S
C2334 H2318 0.931 . S
C2334 C2328 1.383 . S
C2334 C2333 1.379 . S
H2335 C2329 0.959 . S
H2336 C2329 0.961 . S
H2337 C2329 0.960 . S
H2338 C2330 0.930 . S
H2339 C2331 0.929 . S
H2340 C2348 0.929 . S
H2341 C2350 0.930 . S
H2342 C2352 0.930 . S
H2343 C2355 0.929 . S
H2344 C2358 0.930 . S
H2345 C2360 0.960 . S
H2346 C2360 0.960 . S
H2347 C2360 0.960 . S
C2348 H2340 0.929 . S
C2348 C2349 1.377 . S
C2348 C2350 1.384 . S
C2349 C2348 1.377 . S
C2349 C2355 1.390 . S
C2350 H2341 0.930 . S
C2350 C2348 1.384 . S
C2350 C2351 1.372 . S
C2351 C2350 1.372 . S
C2351 C2352 1.400 . S
C2351 C2356 1.490 . S
C2352 H2342 0.930 . S
C2352 C2351 1.400 . S
C2352 C2355 1.386 . S
H2353 C2369 0.930 . S
H2354 C2370 0.931 . S
C2355 H2343 0.929 . S
C2355 C2349 1.390 . S
C2355 C2352 1.386 . S
C2356 C2351 1.490 . S
C2356 C2358 1.395 . S
C2356 C2359 1.403 . S
H2357 C2363 0.930 . S
C2358 H2344 0.930 . S
C2358 C2356 1.395 . S
C2358 C2361 1.403 . S
C2359 C2356 1.403 . S
C2359 C2360 1.524 . S
C2359 C2363 1.400 . S
C2360 H2345 0.960 . S
C2360 H2346 0.960 . S
C2360 H2347 0.960 . S
C2360 C2359 1.524 . S
C2361 C2358 1.403 . S
C2361 C2362 1.392 . S
C2361 C2365 1.495 . S
C2362 C2361 1.392 . S
C2362 C2363 1.385 . S
C2362 C2364 1.478 . S
C2363 H2357 0.930 . S
C2363 C2359 1.400 . S
C2363 C2362 1.385 . S
C2364 C2362 1.478 . S
C2364 C2366 1.381 . S
C2364 C2370 1.383 . S
C2365 C2361 1.495 . S
C2365 H2371 0.959 . S
C2365 H2372 0.961 . S
C2365 H2373 0.960 . S
C2366 C2364 1.381 . S
C2366 C2367 1.394 . S
C2366 H2374 0.930 . S
C2367 C2366 1.394 . S
C2367 C2368 1.383 . S
C2367 H2375 0.929 . S
C2368 C2367 1.383 . S
C2368 C2369 1.377 . S
C2369 H2353 0.930 . S
C2369 C2368 1.377 . S
C2369 C2370 1.379 . S
C2370 H2354 0.931 . S
C2370 C2364 1.383 . S
C2370 C2369 1.379 . S
H2371 C2365 0.959 . S
H2372 C2365 0.961 . S
H2373 C2365 0.960 . S
H2374 C2366 0.930 . S
H2375 C2367 0.929 . S
H2376 C2384 0.929 . S
H2377 C2386 0.930 . S
H2378 C2388 0.930 . S
H2379 C2391 0.929 . S
H2380 C2394 0.930 . S
H2381 C2396 0.960 . S
H2382 C2396 0.960 . S
H2383 C2396 0.960 . S
C2384 H2376 0.929 . S
C2384 C2385 1.377 . S
C2384 C2386 1.384 . S
C2385 C2384 1.377 . S
C2385 C2391 1.390 . S
C2386 H2377 0.930 . S
C2386 C2384 1.384 . S
C2386 C2387 1.372 . S
C2387 C2386 1.372 . S
C2387 C2388 1.400 . S
C2387 C2392 1.490 . S
C2388 H2378 0.930 . S
C2388 C2387 1.400 . S
C2388 C2391 1.386 . S
H2389 C2405 0.930 . S
H2390 C2406 0.931 . S
C2391 H2379 0.929 . S
C2391 C2385 1.390 . S
C2391 C2388 1.386 . S
C2392 C2387 1.490 . S
C2392 C2394 1.395 . S
C2392 C2395 1.403 . S
H2393 C2399 0.930 . S
C2394 H2380 0.930 . S
C2394 C2392 1.395 . S
C2394 C2397 1.403 . S
C2395 C2392 1.403 . S
C2395 C2396 1.524 . S
C2395 C2399 1.400 . S
C2396 H2381 0.960 . S
C2396 H2382 0.960 . S
C2396 H2383 0.960 . S
C2396 C2395 1.524 . S
C2397 C2394 1.403 . S
C2397 C2398 1.392 . S
C2397 C2401 1.495 . S
C2398 C2397 1.392 . S
C2398 C2399 1.385 . S
C2398 C2400 1.478 . S
C2399 H2393 0.930 . S
C2399 C2395 1.400 . S
C2399 C2398 1.385 . S
C2400 C2398 1.478 . S
C2400 C2402 1.381 . S
C2400 C2406 1.383 . S
C2401 C2397 1.495 . S
C2401 H2407 0.959 . S
C2401 H2408 0.961 . S
C2401 H2409 0.960 . S
C2402 C2400 1.381 . S
C2402 C2403 1.394 . S
C2402 H2410 0.930 . S
C2403 C2402 1.394 . S
C2403 C2404 1.383 . S
C2403 H2411 0.929 . S
C2404 C2403 1.383 . S
C2404 C2405 1.377 . S
C2405 H2389 0.930 . S
C2405 C2404 1.377 . S
C2405 C2406 1.379 . S
C2406 H2390 0.931 . S
C2406 C2400 1.383 . S
C2406 C2405 1.379 . S
H2407 C2401 0.959 . S
H2408 C2401 0.961 . S
H2409 C2401 0.960 . S
H2410 C2402 0.930 . S
H2411 C2403 0.929 . S
H2412 C2420 0.929 . S
H2413 C2422 0.930 . S
H2414 C2424 0.930 . S
H2415 C2427 0.929 . S
H2416 C2430 0.930 . S
H2417 C2432 0.960 . S
H2418 C2432 0.960 . S
H2419 C2432 0.960 . S
C2420 H2412 0.929 . S
C2420 C2421 1.377 . S
C2420 C2422 1.384 . S
C2421 C2420 1.377 . S
C2421 C2427 1.390 . S
C2422 H2413 0.930 . S
C2422 C2420 1.384 . S
C2422 C2423 1.372 . S
C2423 C2422 1.372 . S
C2423 C2424 1.400 . S
C2423 C2428 1.490 . S
C2424 H2414 0.930 . S
C2424 C2423 1.400 . S
C2424 C2427 1.386 . S
H2425 C2441 0.930 . S
H2426 C2442 0.931 . S
C2427 H2415 0.929 . S
C2427 C2421 1.390 . S
C2427 C2424 1.386 . S
C2428 C2423 1.490 . S
C2428 C2430 1.395 . S
C2428 C2431 1.403 . S
H2429 C2435 0.930 . S
C2430 H2416 0.930 . S
C2430 C2428 1.395 . S
C2430 C2433 1.403 . S
C2431 C2428 1.403 . S
C2431 C2432 1.524 . S
C2431 C2435 1.400 . S
C2432 H2417 0.960 . S
C2432 H2418 0.960 . S
C2432 H2419 0.960 . S
C2432 C2431 1.524 . S
C2433 C2430 1.403 . S
C2433 C2434 1.392 . S
C2433 C2437 1.495 . S
C2434 C2433 1.392 . S
C2434 C2435 1.385 . S
C2434 C2436 1.478 . S
C2435 H2429 0.930 . S
C2435 C2431 1.400 . S
C2435 C2434 1.385 . S
C2436 C2434 1.478 . S
C2436 C2438 1.381 . S
C2436 C2442 1.383 . S
C2437 C2433 1.495 . S
C2437 H2443 0.959 . S
C2437 H2444 0.961 . S
C2437 H2445 0.960 . S
C2438 C2436 1.381 . S
C2438 C2439 1.394 . S
C2438 H2446 0.930 . S
C2439 C2438 1.394 . S
C2439 C2440 1.383 . S
C2439 H2447 0.929 . S
C2440 C2439 1.383 . S
C2440 C2441 1.377 . S
C2441 H2425 0.930 . S
C2441 C2440 1.377 . S
C2441 C2442 1.379 . S
C2442 H2426 0.931 . S
C2442 C2436 1.383 . S
C2442 C2441 1.379 . S
H2443 C2437 0.959 . S
H2444 C2437 0.961 . S
H2445 C2437 0.960 . S
H2446 C2438 0.930 . S
H2447 C2439 0.929 . S
H2448 C2456 0.929 . S
H2449 C2458 0.930 . S
H2450 C2460 0.930 . S
H2451 C2463 0.930 . S
H2452 C2466 0.930 . S
H2453 C2468 0.960 . S
H2454 C2468 0.960 1_556 S
H2455 C2468 0.960 . S
C2456 H2448 0.929 . S
C2456 C2457 1.377 . S
C2456 C2458 1.384 1_556 S
C2457 C2456 1.377 . S
C2457 C2463 1.390 1_556 S
C2458 H2449 0.930 . S
C2458 C2456 1.384 1_554 S
C2458 C2459 1.372 . S
C2459 C2458 1.372 . S
C2459 C2460 1.400 . S
C2459 C2464 1.490 . S
C2460 H2450 0.930 . S
C2460 C2459 1.400 . S
C2460 C2463 1.386 . S
H2461 C2477 0.930 . S
H2462 C2478 0.931 . S
C2463 H2451 0.930 . S
C2463 C2457 1.390 1_554 S
C2463 C2460 1.386 . S
C2464 C2459 1.490 . S
C2464 C2466 1.395 . S
C2464 C2467 1.403 . S
H2465 C2471 0.930 . S
C2466 H2452 0.930 . S
C2466 C2464 1.395 . S
C2466 C2469 1.403 . S
C2467 C2464 1.403 . S
C2467 C2468 1.524 . S
C2467 C2471 1.400 . S
C2468 H2453 0.960 . S
C2468 H2454 0.960 1_554 S
C2468 H2455 0.960 . S
C2468 C2467 1.524 . S
C2469 C2466 1.403 . S
C2469 C2470 1.392 . S
C2469 C2473 1.495 . S
C2470 C2469 1.392 . S
C2470 C2471 1.385 . S
C2470 C2472 1.478 . S
C2471 H2465 0.930 . S
C2471 C2467 1.400 . S
C2471 C2470 1.385 . S
C2472 C2470 1.478 . S
C2472 C2474 1.381 . S
C2472 C2478 1.383 . S
C2473 C2469 1.495 . S
C2473 H2479 0.959 . S
C2473 H2480 0.961 . S
C2473 H2481 0.960 . S
C2474 C2472 1.381 . S
C2474 C2475 1.394 . S
C2474 H2482 0.930 . S
C2475 C2474 1.394 . S
C2475 C2476 1.383 . S
C2475 H2483 0.929 . S
C2476 C2475 1.383 . S
C2476 C2477 1.377 . S
C2477 H2461 0.930 . S
C2477 C2476 1.377 . S
C2477 C2478 1.379 . S
C2478 H2462 0.931 . S
C2478 C2472 1.383 . S
C2478 C2477 1.379 . S
H2479 C2473 0.959 . S
H2480 C2473 0.961 . S
H2481 C2473 0.960 . S
H2482 C2474 0.930 . S
H2483 C2475 0.929 . S
H2484 C2492 0.929 . S
H2485 C2494 0.930 . S
H2486 C2496 0.930 . S
H2487 C2499 0.929 . S
H2488 C2502 0.930 . S
H2489 C2504 0.960 . S
H2490 C2504 0.960 . S
H2491 C2504 0.960 . S
C2492 H2484 0.929 . S
C2492 C2493 1.377 . S
C2492 C2494 1.384 . S
C2493 C2492 1.377 . S
C2493 C2499 1.390 . S
C2494 H2485 0.930 . S
C2494 C2492 1.384 . S
C2494 C2495 1.372 . S
C2495 C2494 1.372 . S
C2495 C2496 1.400 . S
C2495 C2500 1.490 . S
C2496 H2486 0.930 . S
C2496 C2495 1.400 . S
C2496 C2499 1.386 . S
H2497 C2513 0.930 . S
H2498 C2514 0.931 . S
C2499 H2487 0.929 . S
C2499 C2493 1.390 . S
C2499 C2496 1.386 . S
C2500 C2495 1.490 . S
C2500 C2502 1.395 . S
C2500 C2503 1.403 . S
H2501 C2507 0.930 . S
C2502 H2488 0.930 . S
C2502 C2500 1.395 . S
C2502 C2505 1.403 . S
C2503 C2500 1.403 . S
C2503 C2504 1.524 . S
C2503 C2507 1.400 . S
C2504 H2489 0.960 . S
C2504 H2490 0.960 . S
C2504 H2491 0.960 . S
C2504 C2503 1.524 . S
C2505 C2502 1.403 . S
C2505 C2506 1.392 . S
C2505 C2509 1.495 1_554 S
C2506 C2505 1.392 . S
C2506 C2507 1.385 . S
C2506 C2508 1.478 . S
C2507 H2501 0.930 . S
C2507 C2503 1.400 . S
C2507 C2506 1.385 . S
C2508 C2506 1.478 . S
C2508 C2510 1.381 1_554 S
C2508 C2514 1.383 . S
C2509 C2505 1.495 1_556 S
C2509 H2515 0.959 . S
C2509 H2516 0.961 . S
C2509 H2517 0.960 . S
C2510 C2508 1.381 1_556 S
C2510 C2511 1.394 . S
C2510 H2518 0.930 . S
C2511 C2510 1.394 . S
C2511 C2512 1.383 . S
C2511 H2519 0.929 . S
C2512 C2511 1.383 . S
C2512 C2513 1.377 1_556 S
C2513 H2497 0.930 . S
C2513 C2512 1.377 1_554 S
C2513 C2514 1.379 . S
C2514 H2498 0.931 . S
C2514 C2508 1.383 . S
C2514 C2513 1.379 . S
H2515 C2509 0.959 . S
H2516 C2509 0.961 . S
H2517 C2509 0.960 . S
H2518 C2510 0.930 . S
H2519 C2511 0.929 . S
H2520 C2528 0.929 . S
H2521 C2530 0.930 . S
H2522 C2532 0.930 1_556 S
H2523 C2535 0.929 . S
H2524 C2538 0.930 . S
H2525 C2540 0.960 . S
H2526 C2540 0.960 . S
H2527 C2540 0.960 . S
C2528 H2520 0.929 . S
C2528 C2529 1.377 1_554 S
C2528 C2530 1.384 . S
C2529 C2528 1.377 1_556 S
C2529 C2535 1.390 . S
C2530 H2521 0.930 . S
C2530 C2528 1.384 . S
C2530 C2531 1.372 . S
C2531 C2530 1.372 . S
C2531 C2532 1.400 . S
C2531 C2536 1.490 . S
C2532 H2522 0.930 1_554 S
C2532 C2531 1.400 . S
C2532 C2535 1.386 1_554 S
H2533 C2549 0.930 . S
H2534 C2550 0.931 . S
C2535 H2523 0.929 . S
C2535 C2529 1.390 . S
C2535 C2532 1.386 1_556 S
C2536 C2531 1.490 . S
C2536 C2538 1.395 . S
C2536 C2539 1.403 . S
H2537 C2543 0.930 . S
C2538 H2524 0.930 . S
C2538 C2536 1.395 . S
C2538 C2541 1.403 . S
C2539 C2536 1.403 . S
C2539 C2540 1.524 1_554 S
C2539 C2543 1.400 . S
C2540 H2525 0.960 . S
C2540 H2526 0.960 . S
C2540 H2527 0.960 . S
C2540 C2539 1.524 1_556 S
C2541 C2538 1.403 . S
C2541 C2542 1.392 . S
C2541 C2545 1.495 . S
C2542 C2541 1.392 . S
C2542 C2543 1.385 . S
C2542 C2544 1.478 . S
C2543 H2537 0.930 . S
C2543 C2539 1.400 . S
C2543 C2542 1.385 . S
C2544 C2542 1.478 . S
C2544 C2546 1.381 . S
C2544 C2550 1.383 . S
C2545 C2541 1.495 . S
C2545 H2551 0.959 . S
C2545 H2552 0.961 . S
C2545 H2553 0.960 . S
C2546 C2544 1.381 . S
C2546 C2547 1.394 . S
C2546 H2554 0.930 . S
C2547 C2546 1.394 . S
C2547 C2548 1.383 . S
C2547 H2555 0.929 . S
C2548 C2547 1.383 . S
C2548 C2549 1.377 . S
C2549 H2533 0.930 . S
C2549 C2548 1.377 . S
C2549 C2550 1.379 . S
C2550 H2534 0.931 . S
C2550 C2544 1.383 . S
C2550 C2549 1.379 . S
H2551 C2545 0.959 . S
H2552 C2545 0.961 . S
H2553 C2545 0.960 . S
H2554 C2546 0.930 . S
H2555 C2547 0.929 . S
H2556 C2564 0.929 . S
H2557 C2566 0.930 . S
H2558 C2568 0.930 . S
H2559 C2571 0.929 . S
H2560 C2574 0.930 . S
H2561 C2576 0.960 . S
H2562 C2576 0.960 . S
H2563 C2576 0.960 . S
C2564 H2556 0.929 . S
C2564 C2565 1.377 . S
C2564 C2566 1.384 . S
C2565 C2564 1.377 . S
C2565 C2571 1.390 . S
C2566 H2557 0.930 . S
C2566 C2564 1.384 . S
C2566 C2567 1.372 . S
C2567 C2566 1.372 . S
C2567 C2568 1.400 . S
C2567 C2572 1.490 . S
C2568 H2558 0.930 . S
C2568 C2567 1.400 . S
C2568 C2571 1.386 . S
H2569 C2585 0.930 . S
H2570 C2586 0.931 . S
C2571 H2559 0.929 . S
C2571 C2565 1.390 . S
C2571 C2568 1.386 . S
C2572 C2567 1.490 . S
C2572 C2574 1.395 . S
C2572 C2575 1.403 . S
H2573 C2579 0.930 . S
C2574 H2560 0.930 . S
C2574 C2572 1.395 . S
C2574 C2577 1.403 . S
C2575 C2572 1.403 . S
C2575 C2576 1.524 . S
C2575 C2579 1.400 . S
C2576 H2561 0.960 . S
C2576 H2562 0.960 . S
C2576 H2563 0.960 . S
C2576 C2575 1.524 . S
C2577 C2574 1.403 . S
C2577 C2578 1.392 . S
C2577 C2581 1.495 . S
C2578 C2577 1.392 . S
C2578 C2579 1.385 . S
C2578 C2580 1.478 . S
C2579 H2573 0.930 . S
C2579 C2575 1.400 . S
C2579 C2578 1.385 . S
C2580 C2578 1.478 . S
C2580 C2582 1.381 . S
C2580 C2586 1.383 . S
C2581 C2577 1.495 . S
C2581 H2587 0.959 . S
C2581 H2588 0.961 . S
C2581 H2589 0.960 . S
C2582 C2580 1.381 . S
C2582 C2583 1.394 . S
C2582 H2590 0.930 . S
C2583 C2582 1.394 . S
C2583 C2584 1.383 . S
C2583 H2591 0.929 . S
C2584 C2583 1.383 . S
C2584 C2585 1.377 . S
C2585 H2569 0.930 . S
C2585 C2584 1.377 . S
C2585 C2586 1.379 . S
C2586 H2570 0.931 . S
C2586 C2580 1.383 . S
C2586 C2585 1.379 . S
H2587 C2581 0.959 . S
H2588 C2581 0.961 . S
H2589 C2581 0.960 . S
H2590 C2582 0.930 . S
H2591 C2583 0.929 . S
H2592 C2600 0.929 . S
H2593 C2602 0.930 . S
H2594 C2604 0.930 . S
H2595 C2607 0.929 . S
H2596 C2610 0.930 . S
H2597 C2612 0.960 . S
H2598 C2612 0.960 . S
H2599 C2612 0.960 . S
C2600 H2592 0.929 . S
C2600 C2601 1.377 . S
C2600 C2602 1.384 . S
C2601 C2600 1.377 . S
C2601 C2607 1.390 . S
C2602 H2593 0.930 . S
C2602 C2600 1.384 . S
C2602 C2603 1.372 . S
C2603 C2602 1.372 . S
C2603 C2604 1.400 . S
C2603 C2608 1.490 . S
C2604 H2594 0.930 . S
C2604 C2603 1.400 . S
C2604 C2607 1.386 . S
H2605 C2621 0.930 . S
H2606 C2622 0.931 . S
C2607 H2595 0.929 . S
C2607 C2601 1.390 . S
C2607 C2604 1.386 . S
C2608 C2603 1.490 . S
C2608 C2610 1.395 . S
C2608 C2611 1.403 . S
H2609 C2615 0.930 . S
C2610 H2596 0.930 . S
C2610 C2608 1.395 . S
C2610 C2613 1.403 . S
C2611 C2608 1.403 . S
C2611 C2612 1.524 . S
C2611 C2615 1.400 . S
C2612 H2597 0.960 . S
C2612 H2598 0.960 . S
C2612 H2599 0.960 . S
C2612 C2611 1.524 . S
C2613 C2610 1.403 . S
C2613 C2614 1.392 . S
C2613 C2617 1.495 . S
C2614 C2613 1.392 . S
C2614 C2615 1.385 . S
C2614 C2616 1.478 . S
C2615 H2609 0.930 . S
C2615 C2611 1.400 . S
C2615 C2614 1.385 . S
C2616 C2614 1.478 . S
C2616 C2618 1.381 . S
C2616 C2622 1.383 . S
C2617 C2613 1.495 . S
C2617 H2623 0.959 . S
C2617 H2624 0.961 . S
C2617 H2625 0.960 . S
C2618 C2616 1.381 . S
C2618 C2619 1.394 . S
C2618 H2626 0.930 . S
C2619 C2618 1.394 . S
C2619 C2620 1.383 . S
C2619 H2627 0.929 . S
C2620 C2619 1.383 . S
C2620 C2621 1.377 . S
C2621 H2605 0.930 . S
C2621 C2620 1.377 . S
C2621 C2622 1.379 . S
C2622 H2606 0.931 . S
C2622 C2616 1.383 . S
C2622 C2621 1.379 . S
H2623 C2617 0.959 . S
H2624 C2617 0.961 . S
H2625 C2617 0.960 . S
H2626 C2618 0.930 . S
H2627 C2619 0.929 . S
H2628 C2636 0.929 . S
H2629 C2638 0.930 . S
H2630 C2640 0.930 . S
H2631 C2643 0.929 . S
H2632 C2646 0.930 . S
H2633 C2648 0.960 . S
H2634 C2648 0.960 . S
H2635 C2648 0.960 . S
C2636 H2628 0.929 . S
C2636 C2637 1.377 . S
C2636 C2638 1.384 . S
C2637 C2636 1.377 . S
C2637 C2643 1.390 . S
C2638 H2629 0.930 . S
C2638 C2636 1.384 . S
C2638 C2639 1.372 . S
C2639 C2638 1.372 . S
C2639 C2640 1.400 . S
C2639 C2644 1.490 . S
C2640 H2630 0.930 . S
C2640 C2639 1.400 . S
C2640 C2643 1.386 . S
H2641 C2657 0.930 . S
H2642 C2658 0.931 . S
C2643 H2631 0.929 . S
C2643 C2637 1.390 . S
C2643 C2640 1.386 . S
C2644 C2639 1.490 . S
C2644 C2646 1.395 . S
C2644 C2647 1.403 . S
H2645 C2651 0.930 . S
C2646 H2632 0.930 . S
C2646 C2644 1.395 . S
C2646 C2649 1.403 . S
C2647 C2644 1.403 . S
C2647 C2648 1.524 . S
C2647 C2651 1.400 . S
C2648 H2633 0.960 . S
C2648 H2634 0.960 . S
C2648 H2635 0.960 . S
C2648 C2647 1.524 . S
C2649 C2646 1.403 . S
C2649 C2650 1.392 . S
C2649 C2653 1.495 . S
C2650 C2649 1.392 . S
C2650 C2651 1.385 . S
C2650 C2652 1.478 . S
C2651 H2645 0.930 . S
C2651 C2647 1.400 . S
C2651 C2650 1.385 . S
C2652 C2650 1.478 . S
C2652 C2654 1.381 . S
C2652 C2658 1.383 . S
C2653 C2649 1.495 . S
C2653 H2659 0.959 . S
C2653 H2660 0.961 . S
C2653 H2661 0.960 . S
C2654 C2652 1.381 . S
C2654 C2655 1.394 . S
C2654 H2662 0.930 . S
C2655 C2654 1.394 . S
C2655 C2656 1.383 . S
C2655 H2663 0.929 . S
C2656 C2655 1.383 . S
C2656 C2657 1.377 . S
C2657 H2641 0.930 . S
C2657 C2656 1.377 . S
C2657 C2658 1.379 . S
C2658 H2642 0.931 . S
C2658 C2652 1.383 . S
C2658 C2657 1.379 . S
H2659 C2653 0.959 . S
H2660 C2653 0.961 . S
H2661 C2653 0.960 . S
H2662 C2654 0.930 . S
H2663 C2655 0.929 . S
H2664 C2672 0.929 . S
H2665 C2674 0.930 . S
H2666 C2676 0.930 . S
H2667 C2679 0.929 . S
H2668 C2682 0.930 . S
H2669 C2684 0.960 . S
H2670 C2684 0.960 . S
H2671 C2684 0.960 . S
C2672 H2664 0.929 . S
C2672 C2673 1.377 . S
C2672 C2674 1.384 . S
C2673 C2672 1.377 . S
C2673 C2679 1.390 . S
C2674 H2665 0.930 . S
C2674 C2672 1.384 . S
C2674 C2675 1.372 . S
C2675 C2674 1.372 . S
C2675 C2676 1.400 . S
C2675 C2680 1.490 . S
C2676 H2666 0.930 . S
C2676 C2675 1.400 . S
C2676 C2679 1.386 . S
H2677 C2693 0.930 . S
H2678 C2694 0.931 . S
C2679 H2667 0.929 . S
C2679 C2673 1.390 . S
C2679 C2676 1.386 . S
C2680 C2675 1.490 . S
C2680 C2682 1.395 . S
C2680 C2683 1.403 . S
H2681 C2687 0.930 . S
C2682 H2668 0.930 . S
C2682 C2680 1.395 . S
C2682 C2685 1.403 . S
C2683 C2680 1.403 . S
C2683 C2684 1.524 . S
C2683 C2687 1.400 . S
C2684 H2669 0.960 . S
C2684 H2670 0.960 . S
C2684 H2671 0.960 . S
C2684 C2683 1.524 . S
C2685 C2682 1.403 . S
C2685 C2686 1.392 . S
C2685 C2689 1.495 . S
C2686 C2685 1.392 . S
C2686 C2687 1.385 . S
C2686 C2688 1.478 . S
C2687 H2681 0.930 . S
C2687 C2683 1.400 . S
C2687 C2686 1.385 . S
C2688 C2686 1.478 . S
C2688 C2690 1.381 . S
C2688 C2694 1.383 . S
C2689 C2685 1.495 . S
C2689 H2695 0.959 . S
C2689 H2696 0.961 . S
C2689 H2697 0.960 . S
C2690 C2688 1.381 . S
C2690 C2691 1.394 . S
C2690 H2698 0.930 . S
C2691 C2690 1.394 . S
C2691 C2692 1.383 1_556 S
C2691 H2699 0.929 1_556 S
C2692 C2691 1.383 1_554 S
C2692 C2693 1.377 . S
C2693 H2677 0.930 . S
C2693 C2692 1.377 . S
C2693 C2694 1.379 1_554 S
C2694 H2678 0.931 . S
C2694 C2688 1.383 . S
C2694 C2693 1.379 1_556 S
H2695 C2689 0.959 . S
H2696 C2689 0.961 . S
H2697 C2689 0.960 . S
H2698 C2690 0.930 . S
H2699 C2691 0.929 1_554 S
H2700 C2708 0.929 . S
H2701 C2710 0.930 . S
H2702 C2712 0.930 . S
H2703 C2715 0.929 . S
H2704 C2718 0.930 . S
H2705 C2720 0.960 . S
H2706 C2720 0.960 . S
H2707 C2720 0.960 . S
C2708 H2700 0.929 . S
C2708 C2709 1.377 . S
C2708 C2710 1.384 . S
C2709 C2708 1.377 . S
C2709 C2715 1.390 1_554 S
C2710 H2701 0.930 . S
C2710 C2708 1.384 . S
C2710 C2711 1.372 1_554 S
C2711 C2710 1.372 1_556 S
C2711 C2712 1.400 . S
C2711 C2716 1.490 . S
C2712 H2702 0.930 . S
C2712 C2711 1.400 . S
C2712 C2715 1.386 . S
H2713 C2729 0.930 . S
H2714 C2730 0.931 . S
C2715 H2703 0.929 . S
C2715 C2709 1.390 1_556 S
C2715 C2712 1.386 . S
C2716 C2711 1.490 . S
C2716 C2718 1.395 . S
C2716 C2719 1.403 . S
H2717 C2723 0.930 . S
C2718 H2704 0.930 . S
C2718 C2716 1.395 . S
C2718 C2721 1.403 . S
C2719 C2716 1.403 . S
C2719 C2720 1.524 . S
C2719 C2723 1.400 . S
C2720 H2705 0.960 . S
C2720 H2706 0.960 . S
C2720 H2707 0.960 . S
C2720 C2719 1.524 . S
C2721 C2718 1.403 . S
C2721 C2722 1.392 . S
C2721 C2725 1.495 . S
C2722 C2721 1.392 . S
C2722 C2723 1.385 . S
C2722 C2724 1.478 . S
C2723 H2717 0.930 . S
C2723 C2719 1.400 . S
C2723 C2722 1.385 . S
C2724 C2722 1.478 . S
C2724 C2726 1.381 . S
C2724 C2730 1.383 . S
C2725 C2721 1.495 . S
C2725 H2731 0.959 1_556 S
C2725 H2732 0.961 . S
C2725 H2733 0.960 . S
C2726 C2724 1.381 . S
C2726 C2727 1.394 . S
C2726 H2734 0.930 . S
C2727 C2726 1.394 . S
C2727 C2728 1.383 . S
C2727 H2735 0.929 . S
C2728 C2727 1.383 . S
C2728 C2729 1.377 . S
C2729 H2713 0.930 . S
C2729 C2728 1.377 . S
C2729 C2730 1.379 . S
C2730 H2714 0.931 . S
C2730 C2724 1.383 . S
C2730 C2729 1.379 . S
H2731 C2725 0.959 1_554 S
H2732 C2725 0.961 . S
H2733 C2725 0.960 . S
H2734 C2726 0.930 . S
H2735 C2727 0.929 . S
H2736 C2744 0.929 . S
H2737 C2746 0.930 . S
H2738 C2748 0.930 . S
H2739 C2751 0.929 . S
H2740 C2754 0.930 . S
H2741 C2756 0.960 . S
H2742 C2756 0.960 . S
H2743 C2756 0.960 . S
C2744 H2736 0.929 . S
C2744 C2745 1.377 . S
C2744 C2746 1.384 . S
C2745 C2744 1.377 . S
C2745 C2751 1.390 . S
C2746 H2737 0.930 . S
C2746 C2744 1.384 . S
C2746 C2747 1.372 . S
C2747 C2746 1.372 . S
C2747 C2748 1.400 . S
C2747 C2752 1.490 . S
C2748 H2738 0.930 . S
C2748 C2747 1.400 . S
C2748 C2751 1.386 . S
H2749 C2765 0.930 . S
H2750 C2766 0.931 . S
C2751 H2739 0.929 . S
C2751 C2745 1.390 . S
C2751 C2748 1.386 . S
C2752 C2747 1.490 . S
C2752 C2754 1.395 . S
C2752 C2755 1.403 . S
H2753 C2759 0.930 . S
C2754 H2740 0.930 . S
C2754 C2752 1.395 . S
C2754 C2757 1.403 . S
C2755 C2752 1.403 . S
C2755 C2756 1.524 . S
C2755 C2759 1.400 . S
C2756 H2741 0.960 . S
C2756 H2742 0.960 . S
C2756 H2743 0.960 . S
C2756 C2755 1.524 . S
C2757 C2754 1.403 . S
C2757 C2758 1.392 . S
C2757 C2761 1.495 . S
C2758 C2757 1.392 . S
C2758 C2759 1.385 . S
C2758 C2760 1.478 . S
C2759 H2753 0.930 . S
C2759 C2755 1.400 . S
C2759 C2758 1.385 . S
C2760 C2758 1.478 . S
C2760 C2762 1.381 . S
C2760 C2766 1.383 1_556 S
C2761 C2757 1.495 . S
C2761 H2767 0.959 . S
C2761 H2768 0.961 . S
C2761 H2769 0.960 . S
C2762 C2760 1.381 . S
C2762 C2763 1.394 . S
C2762 H2770 0.930 . S
C2763 C2762 1.394 . S
C2763 C2764 1.383 1_556 S
C2763 H2771 0.929 . S
C2764 C2763 1.383 1_554 S
C2764 C2765 1.377 . S
C2765 H2749 0.930 . S
C2765 C2764 1.377 . S
C2765 C2766 1.379 . S
C2766 H2750 0.931 . S
C2766 C2760 1.383 1_554 S
C2766 C2765 1.379 . S
H2767 C2761 0.959 . S
H2768 C2761 0.961 . S
H2769 C2761 0.960 . S
H2770 C2762 0.930 . S
H2771 C2763 0.929 . S
H2772 C2780 0.929 . S
H2773 C2782 0.930 . S
H2774 C2784 0.930 . S
H2775 C2787 0.929 . S
H2776 C2790 0.930 . S
H2777 C2792 0.960 . S
H2778 C2792 0.960 . S
H2779 C2792 0.960 . S
C2780 H2772 0.929 . S
C2780 C2781 1.377 . S
C2780 C2782 1.384 . S
C2781 C2780 1.377 . S
C2781 C2787 1.390 . S
C2782 H2773 0.930 . S
C2782 C2780 1.384 . S
C2782 C2783 1.372 . S
C2783 C2782 1.372 . S
C2783 C2784 1.400 . S
C2783 C2788 1.490 . S
C2784 H2774 0.930 . S
C2784 C2783 1.400 . S
C2784 C2787 1.386 . S
H2785 C2801 0.930 . S
H2786 C2802 0.931 . S
C2787 H2775 0.929 . S
C2787 C2781 1.390 . S
C2787 C2784 1.386 . S
C2788 C2783 1.490 . S
C2788 C2790 1.395 . S
C2788 C2791 1.403 . S
H2789 C2795 0.930 . S
C2790 H2776 0.930 . S
C2790 C2788 1.395 . S
C2790 C2793 1.403 . S
C2791 C2788 1.403 . S
C2791 C2792 1.524 . S
C2791 C2795 1.400 . S
C2792 H2777 0.960 . S
C2792 H2778 0.960 . S
C2792 H2779 0.960 . S
C2792 C2791 1.524 . S
C2793 C2790 1.403 . S
C2793 C2794 1.392 . S
C2793 C2797 1.495 . S
C2794 C2793 1.392 . S
C2794 C2795 1.385 . S
C2794 C2796 1.478 . S
C2795 H2789 0.930 . S
C2795 C2791 1.400 . S
C2795 C2794 1.385 . S
C2796 C2794 1.478 . S
C2796 C2798 1.381 . S
C2796 C2802 1.383 . S
C2797 C2793 1.495 . S
C2797 H2803 0.959 . S
C2797 H2804 0.961 . S
C2797 H2805 0.960 . S
C2798 C2796 1.381 . S
C2798 C2799 1.394 . S
C2798 H2806 0.930 . S
C2799 C2798 1.394 . S
C2799 C2800 1.383 . S
C2799 H2807 0.929 . S
C2800 C2799 1.383 . S
C2800 C2801 1.377 . S
C2801 H2785 0.930 . S
C2801 C2800 1.377 . S
C2801 C2802 1.379 . S
C2802 H2786 0.931 . S
C2802 C2796 1.383 . S
C2802 C2801 1.379 . S
H2803 C2797 0.959 . S
H2804 C2797 0.961 . S
H2805 C2797 0.960 . S
H2806 C2798 0.930 . S
H2807 C2799 0.929 . S
H2808 C2816 0.929 . S
H2809 C2818 0.930 . S
H2810 C2820 0.930 . S
H2811 C2823 0.929 . S
H2812 C2826 0.930 . S
H2813 C2828 0.960 . S
H2814 C2828 0.960 . S
H2815 C2828 0.960 . S
C2816 H2808 0.929 . S
C2816 C2817 1.377 . S
C2816 C2818 1.384 . S
C2817 C2816 1.377 . S
C2817 C2823 1.390 . S
C2818 H2809 0.930 . S
C2818 C2816 1.384 . S
C2818 C2819 1.372 . S
C2819 C2818 1.372 . S
C2819 C2820 1.400 . S
C2819 C2824 1.490 . S
C2820 H2810 0.930 . S
C2820 C2819 1.400 . S
C2820 C2823 1.386 . S
H2821 C2837 0.930 . S
H2822 C2838 0.931 . S
C2823 H2811 0.929 . S
C2823 C2817 1.390 . S
C2823 C2820 1.386 . S
C2824 C2819 1.490 . S
C2824 C2826 1.395 . S
C2824 C2827 1.403 . S
H2825 C2831 0.930 . S
C2826 H2812 0.930 . S
C2826 C2824 1.395 . S
C2826 C2829 1.403 . S
C2827 C2824 1.403 . S
C2827 C2828 1.524 . S
C2827 C2831 1.400 . S
C2828 H2813 0.960 . S
C2828 H2814 0.960 . S
C2828 H2815 0.960 . S
C2828 C2827 1.524 . S
C2829 C2826 1.403 . S
C2829 C2830 1.392 . S
C2829 C2833 1.495 . S
C2830 C2829 1.392 . S
C2830 C2831 1.385 . S
C2830 C2832 1.478 . S
C2831 H2825 0.930 . S
C2831 C2827 1.400 . S
C2831 C2830 1.385 . S
C2832 C2830 1.478 . S
C2832 C2834 1.381 . S
C2832 C2838 1.383 . S
C2833 C2829 1.495 . S
C2833 H2839 0.959 . S
C2833 H2840 0.961 . S
C2833 H2841 0.960 . S
C2834 C2832 1.381 . S
C2834 C2835 1.394 . S
C2834 H2842 0.930 . S
C2835 C2834 1.394 . S
C2835 C2836 1.383 . S
C2835 H2843 0.929 . S
C2836 C2835 1.383 . S
C2836 C2837 1.377 . S
C2837 H2821 0.930 . S
C2837 C2836 1.377 . S
C2837 C2838 1.379 . S
C2838 H2822 0.931 . S
C2838 C2832 1.383 . S
C2838 C2837 1.379 . S
H2839 C2833 0.959 . S
H2840 C2833 0.961 . S
H2841 C2833 0.960 . S
H2842 C2834 0.930 . S
H2843 C2835 0.929 . S
H2844 C2852 0.929 . S
H2845 C2854 0.930 . S
H2846 C2856 0.930 . S
H2847 C2859 0.929 . S
H2848 C2862 0.930 . S
H2849 C2864 0.960 . S
H2850 C2864 0.960 . S
H2851 C2864 0.960 . S
C2852 H2844 0.929 . S
C2852 C2853 1.377 . S
C2852 C2854 1.384 . S
C2853 C2852 1.377 . S
C2853 C2859 1.390 . S
C2854 H2845 0.930 . S
C2854 C2852 1.384 . S
C2854 C2855 1.372 . S
C2855 C2854 1.372 . S
C2855 C2856 1.400 . S
C2855 C2860 1.490 . S
C2856 H2846 0.930 . S
C2856 C2855 1.400 . S
C2856 C2859 1.386 . S
H2857 C2873 0.930 . S
H2858 C2874 0.931 . S
C2859 H2847 0.929 . S
C2859 C2853 1.390 . S
C2859 C2856 1.386 . S
C2860 C2855 1.490 . S
C2860 C2862 1.395 . S
C2860 C2863 1.403 . S
H2861 C2867 0.930 . S
C2862 H2848 0.930 . S
C2862 C2860 1.395 . S
C2862 C2865 1.403 . S
C2863 C2860 1.403 . S
C2863 C2864 1.524 . S
C2863 C2867 1.400 . S
C2864 H2849 0.960 . S
C2864 H2850 0.960 . S
C2864 H2851 0.960 . S
C2864 C2863 1.524 . S
C2865 C2862 1.403 . S
C2865 C2866 1.392 . S
C2865 C2869 1.495 . S
C2866 C2865 1.392 . S
C2866 C2867 1.385 . S
C2866 C2868 1.478 . S
C2867 H2861 0.930 . S
C2867 C2863 1.400 . S
C2867 C2866 1.385 . S
C2868 C2866 1.478 . S
C2868 C2870 1.381 . S
C2868 C2874 1.383 . S
C2869 C2865 1.495 . S
C2869 H2875 0.959 . S
C2869 H2876 0.961 . S
C2869 H2877 0.960 . S
C2870 C2868 1.381 . S
C2870 C2871 1.394 . S
C2870 H2878 0.930 . S
C2871 C2870 1.394 . S
C2871 C2872 1.383 . S
C2871 H2879 0.929 . S
C2872 C2871 1.383 . S
C2872 C2873 1.377 . S
C2873 H2857 0.930 . S
C2873 C2872 1.377 . S
C2873 C2874 1.379 . S
C2874 H2858 0.931 . S
C2874 C2868 1.383 . S
C2874 C2873 1.379 . S
H2875 C2869 0.959 . S
H2876 C2869 0.961 . S
H2877 C2869 0.960 . S
H2878 C2870 0.930 . S
H2879 C2871 0.929 . S
H2880 C2888 0.929 . S
H2881 C2890 0.930 . S
H2882 C2892 0.930 . S
H2883 C2895 0.929 . S
H2884 C2898 0.908 . S
H2885 C2900 0.960 . S
H2886 C2900 0.960 . S
H2887 C2900 0.960 . S
C2888 H2880 0.929 . S
C2888 C2889 1.377 . S
C2888 C2890 1.384 . S
C2889 C2888 1.377 . S
C2889 C2895 1.390 . S
C2890 H2881 0.930 . S
C2890 C2888 1.384 . S
C2890 C2891 1.372 . S
C2891 C2890 1.372 . S
C2891 C2892 1.400 . S
C2891 C2896 1.490 . S
C2892 H2882 0.930 . S
C2892 C2891 1.400 . S
C2892 C2895 1.386 . S
H2893 C2909 0.930 . S
H2894 C2910 0.931 . S
C2895 H2883 0.929 . S
C2895 C2889 1.390 . S
C2895 C2892 1.386 . S
C2896 C2891 1.490 . S
C2896 C2898 1.402 . S
C2896 C2899 1.403 . S
H2897 C2903 0.930 . S
C2898 H2884 0.908 . S
C2898 C2896 1.402 . S
C2898 C2901 1.392 1_455 S
C2899 C2896 1.403 . S
C2899 C2900 1.524 . S
C2899 C2903 1.400 1_455 S
C2900 H2885 0.960 . S
C2900 H2886 0.960 . S
C2900 H2887 0.960 . S
C2900 C2899 1.524 . S
C2901 C2898 1.392 1_655 S
C2901 C2902 1.392 . S
C2901 C2905 1.495 . S
C2902 C2901 1.392 . S
C2902 C2903 1.385 . S
C2902 C2904 1.478 . S
C2903 H2897 0.930 . S
C2903 C2899 1.400 1_655 S
C2903 C2902 1.385 . S
C2904 C2902 1.478 . S
C2904 C2906 1.381 . S
C2904 C2910 1.383 . S
C2905 C2901 1.495 . S
C2905 H2911 0.959 . S
C2905 H2912 0.961 . S
C2905 H2913 0.960 . S
C2906 C2904 1.381 . S
C2906 C2907 1.394 . S
C2906 H2914 0.930 . S
C2907 C2906 1.394 . S
C2907 C2908 1.383 . S
C2907 H2915 0.929 . S
C2908 C2907 1.383 . S
C2908 C2909 1.377 . S
C2909 H2893 0.930 . S
C2909 C2908 1.377 . S
C2909 C2910 1.379 . S
C2910 H2894 0.931 . S
C2910 C2904 1.383 . S
C2910 C2909 1.379 . S
H2911 C2905 0.959 . S
H2912 C2905 0.961 . S
H2913 C2905 0.960 . S
H2914 C2906 0.930 . S
H2915 C2907 0.929 . S
H2916 C2924 0.929 . S
H2917 C2926 0.930 . S
H2918 C2928 0.930 . S
H2919 C2931 0.929 . S
H2920 C2934 0.930 . S
H2921 C2936 0.960 . S
H2922 C2936 0.960 . S
H2923 C2936 0.960 . S
C2924 H2916 0.929 . S
C2924 C2925 1.377 . S
C2924 C2926 1.384 . S
C2925 C2924 1.377 . S
C2925 C2931 1.390 . S
C2926 H2917 0.930 . S
C2926 C2924 1.384 . S
C2926 C2927 1.372 . S
C2927 C2926 1.372 . S
C2927 C2928 1.400 . S
C2927 C2932 1.490 . S
C2928 H2918 0.930 . S
C2928 C2927 1.400 . S
C2928 C2931 1.386 . S
H2929 C2945 0.930 . S
H2930 C2946 0.931 . S
C2931 H2919 0.929 . S
C2931 C2925 1.390 . S
C2931 C2928 1.386 . S
C2932 C2927 1.490 . S
C2932 C2934 1.395 . S
C2932 C2935 1.403 . S
H2933 C2939 0.930 . S
C2934 H2920 0.930 . S
C2934 C2932 1.395 . S
C2934 C2937 1.403 . S
C2935 C2932 1.403 . S
C2935 C2936 1.524 . S
C2935 C2939 1.400 . S
C2936 H2921 0.960 . S
C2936 H2922 0.960 . S
C2936 H2923 0.960 . S
C2936 C2935 1.524 . S
C2937 C2934 1.403 . S
C2937 C2938 1.392 . S
C2937 C2941 1.495 . S
C2938 C2937 1.392 . S
C2938 C2939 1.385 . S
C2938 C2940 1.478 . S
C2939 H2933 0.930 . S
C2939 C2935 1.400 . S
C2939 C2938 1.385 . S
C2940 C2938 1.478 . S
C2940 C2942 1.381 . S
C2940 C2946 1.383 . S
C2941 C2937 1.495 . S
C2941 H2947 0.959 . S
C2941 H2948 0.961 . S
C2941 H2949 0.960 . S
C2942 C2940 1.381 . S
C2942 C2943 1.394 . S
C2942 H2950 0.930 . S
C2943 C2942 1.394 . S
C2943 C2944 1.383 . S
C2943 H2951 0.929 . S
C2944 C2943 1.383 . S
C2944 C2945 1.377 . S
C2945 H2929 0.930 . S
C2945 C2944 1.377 . S
C2945 C2946 1.379 . S
C2946 H2930 0.931 . S
C2946 C2940 1.383 . S
C2946 C2945 1.379 . S
H2947 C2941 0.959 . S
H2948 C2941 0.961 . S
H2949 C2941 0.960 . S
H2950 C2942 0.930 . S
H2951 C2943 0.929 . S
H2952 C2960 0.929 . S
H2953 C2962 0.930 . S
H2954 C2964 0.930 . S
H2955 C2967 0.929 . S
H2956 C2970 0.932 . S
H2957 C2972 0.960 . S
H2958 C2972 0.960 . S
H2959 C2972 0.960 . S
C2960 H2952 0.929 . S
C2960 C2961 1.377 . S
C2960 C2962 1.384 . S
C2961 C2960 1.377 . S
C2961 C2967 1.390 . S
C2962 H2953 0.930 . S
C2962 C2960 1.384 . S
C2962 C2963 1.372 . S
C2963 C2962 1.372 . S
C2963 C2964 1.400 . S
C2963 C2968 1.490 . S
C2964 H2954 0.930 . S
C2964 C2963 1.400 . S
C2964 C2967 1.386 . S
H2965 C2981 0.930 . S
H2966 C2982 0.931 . S
C2967 H2955 0.929 . S
C2967 C2961 1.390 . S
C2967 C2964 1.386 . S
C2968 C2963 1.490 . S
C2968 C2970 1.337 1_565 S
C2968 C2971 1.403 . S
H2969 C2975 0.930 . S
C2970 H2956 0.932 . S
C2970 C2968 1.337 1_545 S
C2970 C2973 1.458 . S
C2971 C2968 1.403 . S
C2971 C2972 1.524 . S
C2971 C2975 1.400 1_565 S
C2972 H2957 0.960 . S
C2972 H2958 0.960 . S
C2972 H2959 0.960 . S
C2972 C2971 1.524 . S
C2973 C2970 1.458 . S
C2973 C2974 1.392 . S
C2973 C2977 1.495 . S
C2974 C2973 1.392 . S
C2974 C2975 1.385 . S
C2974 C2976 1.478 . S
C2975 H2969 0.930 . S
C2975 C2971 1.400 1_545 S
C2975 C2974 1.385 . S
C2976 C2974 1.478 . S
C2976 C2978 1.381 . S
C2976 C2982 1.383 . S
C2977 C2973 1.495 . S
C2977 H2983 0.959 . S
C2977 H2984 0.961 . S
C2977 H2985 0.960 . S
C2978 C2976 1.381 . S
C2978 C2979 1.394 . S
C2978 H2986 0.930 . S
C2979 C2978 1.394 . S
C2979 C2980 1.383 . S
C2979 H2987 0.929 . S
C2980 C2979 1.383 . S
C2980 C2981 1.377 . S
C2981 H2965 0.930 . S
C2981 C2980 1.377 . S
C2981 C2982 1.379 . S
C2982 H2966 0.931 . S
C2982 C2976 1.383 . S
C2982 C2981 1.379 . S
H2983 C2977 0.959 . S
H2984 C2977 0.961 . S
H2985 C2977 0.960 . S
H2986 C2978 0.930 . S
H2987 C2979 0.929 . S
H2988 C2996 0.929 . S
H2989 C2998 0.930 . S
H2990 C3000 0.930 . S
H2991 C3003 0.929 . S
H2992 C3006 0.932 . S
H2993 C3008 0.960 . S
H2994 C3008 0.960 . S
H2995 C3008 0.960 . S
C2996 H2988 0.929 . S
C2996 C2997 1.377 . S
C2996 C2998 1.384 . S
C2997 C2996 1.377 . S
C2997 C3003 1.390 . S
C2998 H2989 0.930 . S
C2998 C2996 1.384 . S
C2998 C2999 1.372 . S
C2999 C2998 1.372 . S
C2999 C3000 1.400 . S
C2999 C3004 1.490 . S
C3000 H2990 0.930 . S
C3000 C2999 1.400 . S
C3000 C3003 1.386 . S
H3001 C3017 0.930 . S
H3002 C3018 0.931 . S
C3003 H2991 0.929 . S
C3003 C2997 1.390 . S
C3003 C3000 1.386 . S
C3004 C2999 1.490 . S
C3004 C3006 1.325 1_545 S
C3004 C3007 1.403 . S
H3005 C3011 0.930 . S
C3006 H2992 0.932 . S
C3006 C3004 1.325 1_565 S
C3006 C3009 1.470 . S
C3007 C3004 1.403 . S
C3007 C3008 1.524 . S
C3007 C3011 1.400 1_545 S
C3008 H2993 0.960 . S
C3008 H2994 0.960 . S
C3008 H2995 0.960 . S
C3008 C3007 1.524 . S
C3009 C3006 1.470 . S
C3009 C3010 1.392 . S
C3009 C3013 1.495 . S
C3010 C3009 1.392 . S
C3010 C3011 1.385 . S
C3010 C3012 1.478 . S
C3011 H3005 0.930 . S
C3011 C3007 1.400 1_565 S
C3011 C3010 1.385 . S
C3012 C3010 1.478 . S
C3012 C3014 1.381 . S
C3012 C3018 1.383 . S
C3013 C3009 1.495 . S
C3013 H3019 0.959 . S
C3013 H3020 0.961 . S
C3013 H3021 0.960 . S
C3014 C3012 1.381 . S
C3014 C3015 1.394 . S
C3014 H3022 0.930 . S
C3015 C3014 1.394 . S
C3015 C3016 1.383 . S
C3015 H3023 0.929 . S
C3016 C3015 1.383 . S
C3016 C3017 1.377 . S
C3017 H3001 0.930 . S
C3017 C3016 1.377 . S
C3017 C3018 1.379 . S
C3018 H3002 0.931 . S
C3018 C3012 1.383 . S
C3018 C3017 1.379 . S
H3019 C3013 0.959 . S
H3020 C3013 0.961 . S
H3021 C3013 0.960 . S
H3022 C3014 0.930 . S
H3023 C3015 0.929 . S
H3024 C3032 0.929 . S
H3025 C3034 0.930 . S
H3026 C3036 0.930 . S
H3027 C3039 0.929 . S
H3028 C3042 0.930 . S
H3029 C3044 0.960 . S
H3030 C3044 0.960 . S
H3031 C3044 0.960 . S
C3032 H3024 0.929 . S
C3032 C3033 1.377 . S
C3032 C3034 1.384 . S
C3033 C3032 1.377 . S
C3033 C3039 1.390 . S
C3034 H3025 0.930 . S
C3034 C3032 1.384 . S
C3034 C3035 1.372 . S
C3035 C3034 1.372 . S
C3035 C3036 1.400 . S
C3035 C3040 1.490 . S
C3036 H3026 0.930 . S
C3036 C3035 1.400 . S
C3036 C3039 1.386 . S
H3037 C3053 0.930 . S
H3038 C3054 0.931 . S
C3039 H3027 0.929 . S
C3039 C3033 1.390 . S
C3039 C3036 1.386 . S
C3040 C3035 1.490 . S
C3040 C3042 1.395 . S
C3040 C3043 1.403 . S
H3041 C3047 0.930 . S
C3042 H3028 0.930 . S
C3042 C3040 1.395 . S
C3042 C3045 1.403 1_455 S
C3043 C3040 1.403 . S
C3043 C3044 1.524 . S
C3043 C3047 1.400 1_455 S
C3044 H3029 0.960 . S
C3044 H3030 0.960 . S
C3044 H3031 0.960 . S
C3044 C3043 1.524 . S
C3045 C3042 1.403 1_655 S
C3045 C3046 1.392 . S
C3045 C3049 1.495 . S
C3046 C3045 1.392 . S
C3046 C3047 1.385 . S
C3046 C3048 1.478 . S
C3047 H3041 0.930 . S
C3047 C3043 1.400 1_655 S
C3047 C3046 1.385 . S
C3048 C3046 1.478 . S
C3048 C3050 1.381 . S
C3048 C3054 1.383 . S
C3049 C3045 1.495 . S
C3049 H3055 0.959 . S
C3049 H3056 0.961 . S
C3049 H3057 0.960 . S
C3050 C3048 1.381 . S
C3050 C3051 1.394 . S
C3050 H3058 0.930 . S
C3051 C3050 1.394 . S
C3051 C3052 1.383 . S
C3051 H3059 0.929 . S
C3052 C3051 1.383 . S
C3052 C3053 1.377 . S
C3053 H3037 0.930 . S
C3053 C3052 1.377 . S
C3053 C3054 1.379 . S
C3054 H3038 0.931 . S
C3054 C3048 1.383 . S
C3054 C3053 1.379 . S
H3055 C3049 0.959 . S
H3056 C3049 0.961 . S
H3057 C3049 0.960 . S
H3058 C3050 0.930 . S
H3059 C3051 0.929 . S
H3060 C3068 0.929 . S
H3061 C3070 0.930 . S
H3062 C3072 0.930 . S
H3063 C3075 0.929 . S
H3064 C3078 0.930 . S
H3065 C3080 0.960 . S
H3066 C3080 0.960 . S
H3067 C3080 0.960 . S
C3068 H3060 0.929 . S
C3068 C3069 1.377 . S
C3068 C3070 1.384 . S
C3069 C3068 1.377 . S
C3069 C3075 1.390 . S
C3070 H3061 0.930 . S
C3070 C3068 1.384 . S
C3070 C3071 1.372 . S
C3071 C3070 1.372 . S
C3071 C3072 1.400 . S
C3071 C3076 1.490 . S
C3072 H3062 0.930 . S
C3072 C3071 1.400 . S
C3072 C3075 1.386 . S
H3073 C3089 0.930 . S
H3074 C3090 0.931 . S
C3075 H3063 0.929 . S
C3075 C3069 1.390 . S
C3075 C3072 1.386 . S
C3076 C3071 1.490 . S
C3076 C3078 1.395 . S
C3076 C3079 1.403 . S
H3077 C3083 0.930 . S
C3078 H3064 0.930 . S
C3078 C3076 1.395 . S
C3078 C3081 1.403 . S
C3079 C3076 1.403 . S
C3079 C3080 1.524 . S
C3079 C3083 1.400 . S
C3080 H3065 0.960 . S
C3080 H3066 0.960 . S
C3080 H3067 0.960 . S
C3080 C3079 1.524 . S
C3081 C3078 1.403 . S
C3081 C3082 1.392 . S
C3081 C3085 1.495 . S
C3082 C3081 1.392 . S
C3082 C3083 1.385 . S
C3082 C3084 1.478 . S
C3083 H3077 0.930 . S
C3083 C3079 1.400 . S
C3083 C3082 1.385 . S
C3084 C3082 1.478 . S
C3084 C3086 1.381 . S
C3084 C3090 1.383 . S
C3085 C3081 1.495 . S
C3085 H3091 0.959 . S
C3085 H3092 0.961 . S
C3085 H3093 0.960 . S
C3086 C3084 1.381 . S
C3086 C3087 1.394 . S
C3086 H3094 0.930 . S
C3087 C3086 1.394 . S
C3087 C3088 1.383 . S
C3087 H3095 0.929 . S
C3088 C3087 1.383 . S
C3088 C3089 1.377 . S
C3089 H3073 0.930 . S
C3089 C3088 1.377 . S
C3089 C3090 1.379 . S
C3090 H3074 0.931 . S
C3090 C3084 1.383 . S
C3090 C3089 1.379 . S
H3091 C3085 0.959 . S
H3092 C3085 0.961 . S
H3093 C3085 0.960 . S
H3094 C3086 0.930 . S
H3095 C3087 0.929 . S
C513 C48 1.220 . S
C532 C6 1.185 . S
C549 C62 1.213 . S
C568 C20 1.246 . S
C585 C76 1.220 . S
C604 C34 1.231 . S
C621 C90 1.210 . S
C640 C132 1.201 . S
C657 C104 1.209 . S
C676 C146 1.179 . S
C693 C160 1.218 . S
C712 C118 1.216 . S
C729 C174 1.221 . S
C748 C216 1.211 . S
C765 C188 1.217 . S
C784 C230 1.239 . S
C801 C202 1.208 . S
C820 C244 1.217 . S
C837 C258 1.211 . S
C856 C300 1.209 . S
C873 C314 1.221 . S
C892 C272 1.245 . S
C909 C286 1.220 . S
C928 C328 1.227 . S
C945 C342 1.209 . S
C964 C384 1.195 . S
C981 C356 1.219 . S
C1000 C398 1.182 . S
C1017 C412 1.208 . S
C1036 C370 1.207 . S
C1053 C468 1.217 . S
C1072 C426 1.215 . S
C1089 C482 1.221 . S
C1108 C440 1.243 . S
C1125 C496 1.221 . S
C1144 C454 1.246 . S
C1161 C161 1.540 . S
C1180 C9 1.597 . S
C1197 C23 1.604 . S
C1216 C133 1.567 . S
C1233 C37 1.599 . S
C1252 C147 1.516 . S
C1269 C105 1.548 . S
C1288 C51 1.593 . S
C1305 C65 1.604 . S
C1324 C119 1.568 . S
C1341 C91 1.544 . S
C1360 C79 1.609 . S
C1377 C93 1.604 . S
C1396 C77 1.523 . S
C1413 C107 1.600 . S
C1432 C49 1.554 . S
C1449 C63 1.544 . S
C1468 C121 1.599 . S
C1485 C21 1.547 . S
C1504 C135 1.593 . S
C1521 C35 1.540 . S
C1540 C149 1.610 . S
C1557 C163 1.600 . S
C1576 C7 1.550 . S
C1593 C177 1.604 . S
C1612 C329 1.563 . S
C1629 C301 1.540 . S
C1648 C191 1.599 . S
C1665 C315 1.550 . S
C1684 C205 1.609 . S
C1701 C219 1.604 . S
C1720 C273 1.551 . S
C1737 C287 1.541 . S
C1756 C233 1.603 . S
C1773 C247 1.599 . S
C1792 C259 1.537 . S
C1809 C261 1.600 . S
C1828 C245 1.554 . S
C1845 C275 1.599 . S
C1864 C217 1.567 . S
C1881 C231 1.550 . S
C1900 C289 1.584 . S
C1917 C189 1.541 . S
C1936 C303 1.606 1_556 S
C1953 C203 1.541 . S
C1972 C317 1.607 1_556 S
C1989 C331 1.603 1_556 S
C2008 C175 1.520 . S
C2025 C497 1.550 . S
C2044 C345 1.602 . S
C2061 C359 1.602 . S
C2080 C469 1.518 . S
C2097 C373 1.599 . S
C2116 C483 1.515 . S
C2133 C387 1.603 1_554 S
C2152 C441 1.569 . S
C2169 C455 1.550 . S
C2188 C401 1.603 1_554 S
C2205 C415 1.598 1_554 S
C2224 C427 1.530 . S
C2241 C413 1.548 . S
C2260 C429 1.591 . S
C2277 C385 1.548 . S
C2296 C443 1.590 . S
C2313 C399 1.548 . S
C2332 C457 1.591 . S
C2349 C357 1.539 . S
C2368 C471 1.609 . S
C2385 C371 1.545 . S
C2404 C485 1.596 . S
C2421 C343 1.540 . S
C2440 C499 1.609 . S
C2457 C414 1.081 . S
C2476 C8 1.094 . S
C2493 C22 1.077 . S
C2512 C386 1.089 . S
C2529 C400 1.079 . S
C2548 C36 1.093 . S
C2565 C50 1.073 . S
C2584 C190 1.056 . S
C2601 C204 1.080 . S
C2620 C64 1.095 . S
C2637 C78 1.073 . S
C2656 C176 1.058 . S
C2673 C92 1.076 . S
C2692 C330 1.056 . S
C2709 C302 1.076 . S
C2728 C106 1.054 . S
C2745 C120 1.081 . S
C2764 C316 1.069 . S
C2781 C134 1.072 . S
C2800 C442 1.069 . S
C2817 C148 1.078 . S
C2836 C456 1.093 . S
C2853 C428 1.081 . S
C2872 C162 1.085 . S
C2889 C358 1.072 . S
C2908 C218 1.054 . S
C2925 C372 1.074 . S
C2944 C232 1.072 . S
C2961 C344 1.073 . S
C2980 C246 1.055 . S
C2997 C260 1.077 . S
C3016 C498 1.054 . S
C3033 C470 1.080 . S
C3052 C274 1.063 . S
C3069 C288 1.077 . S
C3088 C484 1.093 . S
