# Generated by pormake.
# Topology uml, (4)-cn, num edge types: 1
# Building blocks:
#     Node 0, Type 0, BuildingBlock: KOZSID_clean_sbu_0, # of connection points: 4
#     Node 1, Type 0, BuildingBlock: KOZSID_clean_sbu_0, # of connection points: 4
#     Node 2, Type 0, BuildingBlock: KOZSID_clean_sbu_0, # of connection points: 4
#     Node 3, Type 0, BuildingBlock: KOZSID_clean_sbu_0, # of connection points: 4
#     Node 4, Type 0, BuildingBlock: KOZSID_clean_sbu_0, # of connection points: 4
#     Node 5, Type 0, BuildingBlock: KOZSID_clean_sbu_0, # of connection points: 4
#     Node 6, Type 0, BuildingBlock: KOZSID_clean_sbu_0, # of connection points: 4
#     Node 7, Type 0, BuildingBlock: KOZSID_clean_sbu_0, # of connection points: 4
#     Node 8, Type 0, BuildingBlock: KOZSID_clean_sbu_0, # of connection points: 4
#     Node 9, Type 0, BuildingBlock: KOZSID_clean_sbu_0, # of connection points: 4
#     Node 10, Type 0, BuildingBlock: KOZSID_clean_sbu_0, # of connection points: 4
#     Node 11, Type 0, BuildingBlock: KOZSID_clean_sbu_0, # of connection points: 4
#     Node 12, Type 0, BuildingBlock: KOZSID_clean_sbu_0, # of connection points: 4
#     Node 13, Type 0, BuildingBlock: KOZSID_clean_sbu_0, # of connection points: 4
#     Node 14, Type 0, BuildingBlock: KOZSID_clean_sbu_0, # of connection points: 4
#     Node 15, Type 0, BuildingBlock: KOZSID_clean_sbu_0, # of connection points: 4
#     Node 16, Type 0, BuildingBlock: KOZSID_clean_sbu_0, # of connection points: 4
#     Node 17, Type 0, BuildingBlock: KOZSID_clean_sbu_0, # of connection points: 4
#     Node 18, Type 0, BuildingBlock: KOZSID_clean_sbu_0, # of connection points: 4
#     Node 19, Type 0, BuildingBlock: KOZSID_clean_sbu_0, # of connection points: 4
#     Node 20, Type 0, BuildingBlock: KOZSID_clean_sbu_0, # of connection points: 4
#     Node 21, Type 0, BuildingBlock: KOZSID_clean_sbu_0, # of connection points: 4
#     Node 22, Type 0, BuildingBlock: KOZSID_clean_sbu_0, # of connection points: 4
#     Node 23, Type 0, BuildingBlock: KOZSID_clean_sbu_0, # of connection points: 4
#     Node 24, Type 0, BuildingBlock: KOZSID_clean_sbu_0, # of connection points: 4
#     Node 25, Type 0, BuildingBlock: KOZSID_clean_sbu_0, # of connection points: 4
#     Node 26, Type 0, BuildingBlock: KOZSID_clean_sbu_0, # of connection points: 4
#     Node 27, Type 0, BuildingBlock: KOZSID_clean_sbu_0, # of connection points: 4
#     Node 28, Type 0, BuildingBlock: KOZSID_clean_sbu_0, # of connection points: 4
#     Node 29, Type 0, BuildingBlock: KOZSID_clean_sbu_0, # of connection points: 4
#     Node 30, Type 0, BuildingBlock: KOZSID_clean_sbu_0, # of connection points: 4
#     Node 31, Type 0, BuildingBlock: KOZSID_clean_sbu_0, # of connection points: 4
#     Node 32, Type 0, BuildingBlock: KOZSID_clean_sbu_0, # of connection points: 4
#     Node 33, Type 0, BuildingBlock: KOZSID_clean_sbu_0, # of connection points: 4
#     Node 34, Type 0, BuildingBlock: KOZSID_clean_sbu_0, # of connection points: 4
#     Node 35, Type 0, BuildingBlock: KOZSID_clean_sbu_0, # of connection points: 4
#     Edge 36, Type (0, 0), BuildingBlock: XIVTED_clean_linker_0, # of connection points: 2
#     Edge 37, Type (0, 0), BuildingBlock: XIVTED_clean_linker_0, # of connection points: 2
#     Edge 38, Type (0, 0), BuildingBlock: XIVTED_clean_linker_0, # of connection points: 2
#     Edge 39, Type (0, 0), BuildingBlock: XIVTED_clean_linker_0, # of connection points: 2
#     Edge 40, Type (0, 0), BuildingBlock: XIVTED_clean_linker_0, # of connection points: 2
#     Edge 41, Type (0, 0), BuildingBlock: XIVTED_clean_linker_0, # of connection points: 2
#     Edge 42, Type (0, 0), BuildingBlock: XIVTED_clean_linker_0, # of connection points: 2
#     Edge 43, Type (0, 0), BuildingBlock: XIVTED_clean_linker_0, # of connection points: 2
#     Edge 44, Type (0, 0), BuildingBlock: XIVTED_clean_linker_0, # of connection points: 2
#     Edge 45, Type (0, 0), BuildingBlock: XIVTED_clean_linker_0, # of connection points: 2
#     Edge 46, Type (0, 0), BuildingBlock: XIVTED_clean_linker_0, # of connection points: 2
#     Edge 47, Type (0, 0), BuildingBlock: XIVTED_clean_linker_0, # of connection points: 2
#     Edge 48, Type (0, 0), BuildingBlock: XIVTED_clean_linker_0, # of connection points: 2
#     Edge 49, Type (0, 0), BuildingBlock: XIVTED_clean_linker_0, # of connection points: 2
#     Edge 50, Type (0, 0), BuildingBlock: XIVTED_clean_linker_0, # of connection points: 2
#     Edge 51, Type (0, 0), BuildingBlock: XIVTED_clean_linker_0, # of connection points: 2
#     Edge 52, Type (0, 0), BuildingBlock: XIVTED_clean_linker_0, # of connection points: 2
#     Edge 53, Type (0, 0), BuildingBlock: XIVTED_clean_linker_0, # of connection points: 2
#     Edge 54, Type (0, 0), BuildingBlock: XIVTED_clean_linker_0, # of connection points: 2
#     Edge 55, Type (0, 0), BuildingBlock: XIVTED_clean_linker_0, # of connection points: 2
#     Edge 56, Type (0, 0), BuildingBlock: XIVTED_clean_linker_0, # of connection points: 2
#     Edge 57, Type (0, 0), BuildingBlock: XIVTED_clean_linker_0, # of connection points: 2
#     Edge 58, Type (0, 0), BuildingBlock: XIVTED_clean_linker_0, # of connection points: 2
#     Edge 59, Type (0, 0), BuildingBlock: XIVTED_clean_linker_0, # of connection points: 2
#     Edge 60, Type (0, 0), BuildingBlock: XIVTED_clean_linker_0, # of connection points: 2
#     Edge 61, Type (0, 0), BuildingBlock: XIVTED_clean_linker_0, # of connection points: 2
#     Edge 62, Type (0, 0), BuildingBlock: XIVTED_clean_linker_0, # of connection points: 2
#     Edge 63, Type (0, 0), BuildingBlock: XIVTED_clean_linker_0, # of connection points: 2
#     Edge 64, Type (0, 0), BuildingBlock: XIVTED_clean_linker_0, # of connection points: 2
#     Edge 65, Type (0, 0), BuildingBlock: XIVTED_clean_linker_0, # of connection points: 2
#     Edge 66, Type (0, 0), BuildingBlock: XIVTED_clean_linker_0, # of connection points: 2
#     Edge 67, Type (0, 0), BuildingBlock: XIVTED_clean_linker_0, # of connection points: 2
#     Edge 68, Type (0, 0), BuildingBlock: XIVTED_clean_linker_0, # of connection points: 2
#     Edge 69, Type (0, 0), BuildingBlock: XIVTED_clean_linker_0, # of connection points: 2
#     Edge 70, Type (0, 0), BuildingBlock: XIVTED_clean_linker_0, # of connection points: 2
#     Edge 71, Type (0, 0), BuildingBlock: XIVTED_clean_linker_0, # of connection points: 2
#     Edge 72, Type (0, 0), BuildingBlock: XIVTED_clean_linker_0, # of connection points: 2
#     Edge 73, Type (0, 0), BuildingBlock: XIVTED_clean_linker_0, # of connection points: 2
#     Edge 74, Type (0, 0), BuildingBlock: XIVTED_clean_linker_0, # of connection points: 2
#     Edge 75, Type (0, 0), BuildingBlock: XIVTED_clean_linker_0, # of connection points: 2
#     Edge 76, Type (0, 0), BuildingBlock: XIVTED_clean_linker_0, # of connection points: 2
#     Edge 77, Type (0, 0), BuildingBlock: XIVTED_clean_linker_0, # of connection points: 2
#     Edge 78, Type (0, 0), BuildingBlock: XIVTED_clean_linker_0, # of connection points: 2
#     Edge 79, Type (0, 0), BuildingBlock: XIVTED_clean_linker_0, # of connection points: 2
#     Edge 80, Type (0, 0), BuildingBlock: XIVTED_clean_linker_0, # of connection points: 2
#     Edge 81, Type (0, 0), BuildingBlock: XIVTED_clean_linker_0, # of connection points: 2
#     Edge 82, Type (0, 0), BuildingBlock: XIVTED_clean_linker_0, # of connection points: 2
#     Edge 83, Type (0, 0), BuildingBlock: XIVTED_clean_linker_0, # of connection points: 2
#     Edge 84, Type (0, 0), BuildingBlock: XIVTED_clean_linker_0, # of connection points: 2
#     Edge 85, Type (0, 0), BuildingBlock: XIVTED_clean_linker_0, # of connection points: 2
#     Edge 86, Type (0, 0), BuildingBlock: XIVTED_clean_linker_0, # of connection points: 2
#     Edge 87, Type (0, 0), BuildingBlock: XIVTED_clean_linker_0, # of connection points: 2
#     Edge 88, Type (0, 0), BuildingBlock: XIVTED_clean_linker_0, # of connection points: 2
#     Edge 89, Type (0, 0), BuildingBlock: XIVTED_clean_linker_0, # of connection points: 2
#     Edge 90, Type (0, 0), BuildingBlock: XIVTED_clean_linker_0, # of connection points: 2
#     Edge 91, Type (0, 0), BuildingBlock: XIVTED_clean_linker_0, # of connection points: 2
#     Edge 92, Type (0, 0), BuildingBlock: XIVTED_clean_linker_0, # of connection points: 2
#     Edge 93, Type (0, 0), BuildingBlock: XIVTED_clean_linker_0, # of connection points: 2
#     Edge 94, Type (0, 0), BuildingBlock: XIVTED_clean_linker_0, # of connection points: 2
#     Edge 95, Type (0, 0), BuildingBlock: XIVTED_clean_linker_0, # of connection points: 2
#     Edge 96, Type (0, 0), BuildingBlock: XIVTED_clean_linker_0, # of connection points: 2
#     Edge 97, Type (0, 0), BuildingBlock: XIVTED_clean_linker_0, # of connection points: 2
#     Edge 98, Type (0, 0), BuildingBlock: XIVTED_clean_linker_0, # of connection points: 2
#     Edge 99, Type (0, 0), BuildingBlock: XIVTED_clean_linker_0, # of connection points: 2
#     Edge 100, Type (0, 0), BuildingBlock: XIVTED_clean_linker_0, # of connection points: 2
#     Edge 101, Type (0, 0), BuildingBlock: XIVTED_clean_linker_0, # of connection points: 2
#     Edge 102, Type (0, 0), BuildingBlock: XIVTED_clean_linker_0, # of connection points: 2
#     Edge 103, Type (0, 0), BuildingBlock: XIVTED_clean_linker_0, # of connection points: 2
#     Edge 104, Type (0, 0), BuildingBlock: XIVTED_clean_linker_0, # of connection points: 2
#     Edge 105, Type (0, 0), BuildingBlock: XIVTED_clean_linker_0, # of connection points: 2
#     Edge 106, Type (0, 0), BuildingBlock: XIVTED_clean_linker_0, # of connection points: 2
#     Edge 107, Type (0, 0), BuildingBlock: XIVTED_clean_linker_0, # of connection points: 2
# Relax obj value: 0.046
# Max RMSD: 0.160
# Mean RMSD: 0.156
data_MOF--net-uml--node1-KOZSID_clean_sbu_0--edge1-XIVTED_clean_linker_0
_symmetry_space_group_name_H-M    P1
_symmetry_Int_Tables_number       1
_symmetry_cell_setting            triclinic
loop_
_symmetry_equiv_pos_as_xyz
'x, y, z'
_cell_length_a     107.31296
_cell_length_b     107.38908
_cell_length_c     38.802444
_cell_angle_alpha  90.060152
_cell_angle_beta   89.967255
_cell_angle_gamma 119.96342
loop_
_atom_site_label
_atom_site_type_symbol
_atom_site_fract_x
_atom_site_fract_y
_atom_site_fract_z
_atom_type_partial_charge
C0 C 0.37201 0.08611 0.1577 0.0
C1 C 0.38636 0.08968 0.15765 0.0
C2 C 0.39405 0.1034 0.17042 0.0
C3 C 0.38402 0.10743 0.17747 0.0
N4 N 0.37052 0.09711 0.16989 0.0
Co5 Co 0.35289 0.09845 0.17586 0.0
N6 N 0.36415 0.11977 0.17709 0.0
C7 C 0.37837 0.12776 0.18337 0.0
C8 C 0.38322 0.14224 0.18364 0.0
C9 C 0.37129 0.14344 0.17752 0.0
C10 C 0.35976 0.12955 0.17381 0.0
N11 N 0.33526 0.09981 0.18243 0.0
C12 C 0.33325 0.11127 0.17924 0.0
C13 C 0.31914 0.1074 0.18703 0.0
C14 C 0.31224 0.09314 0.19605 0.0
C15 C 0.32244 0.08903 0.19315 0.0
N16 N 0.34181 0.07714 0.1743 0.0
C17 C 0.32833 0.06876 0.18594 0.0
C18 C 0.32347 0.05437 0.18089 0.0
C19 C 0.33463 0.05373 0.16516 0.0
C20 C 0.34569 0.0678 0.16147 0.0
N21 N 0.35457 0.09779 0.22626 0.0
C22 C 0.35268 0.09447 0.29833 0.0
C23 C 0.35539 0.08541 0.27738 0.0
C24 C 0.35646 0.08736 0.24151 0.0
C25 C 0.35156 0.10557 0.28241 0.0
C26 C 0.3525 0.10703 0.2466 0.0
N27 N 0.35082 0.09888 0.12578 0.0
C28 C 0.3355 0.09012 0.07585 0.0
C29 C 0.34719 0.09815 0.0539 0.0
C30 C 0.36078 0.1068 0.06899 0.0
C31 C 0.36236 0.10704 0.10496 0.0
C32 C 0.33755 0.09058 0.11139 0.0
H33 H 0.3729 0.11369 0.11592 0.0
H34 H 0.3283 0.08408 0.12721 0.0
H35 H 0.35839 0.08014 0.22602 0.0
H36 H 0.351 0.11535 0.23539 0.0
C37 C 0.38702 0.12143 0.18448 0.0
C38 C 0.36002 0.07202 0.1477 0.0
C39 C 0.34468 0.12607 0.17159 0.0
C40 C 0.31993 0.07489 0.19531 0.0
H41 H 0.39081 0.08311 0.14917 0.0
H42 H 0.40563 0.10989 0.17264 0.0
H43 H 0.39415 0.15091 0.18722 0.0
H44 H 0.37107 0.1534 0.17683 0.0
H45 H 0.31436 0.1142 0.1866 0.0
H46 H 0.30103 0.08647 0.20293 0.0
H47 H 0.31287 0.04544 0.18654 0.0
H48 H 0.33465 0.04407 0.15732 0.0
H49 H 0.35656 0.07683 0.28858 0.0
H50 H 0.34939 0.11279 0.29739 0.0
H51 H 0.32473 0.08354 0.06578 0.0
H52 H 0.37019 0.11315 0.0532 0.0
C53 C 0.92663 0.28697 0.1656 0.0
C54 C 0.92317 0.29783 0.16595 0.0
C55 C 0.90915 0.29167 0.17593 0.0
C56 C 0.90482 0.27746 0.18104 0.0
N57 N 0.91526 0.27417 0.17523 0.0
Co58 Co 0.91338 0.25469 0.17944 0.0
N59 N 0.89204 0.24521 0.18644 0.0
C60 C 0.8841 0.25178 0.18762 0.0
C61 C 0.86964 0.24252 0.19133 0.0
C62 C 0.86819 0.22917 0.19202 0.0
C63 C 0.88193 0.23108 0.18867 0.0
N64 N 0.91155 0.23529 0.18536 0.0
C65 C 0.89967 0.22211 0.18925 0.0
C66 C 0.90332 0.21148 0.19303 0.0
C67 C 0.91799 0.21818 0.19141 0.0
C68 C 0.92249 0.23247 0.18677 0.0
N69 N 0.93458 0.26412 0.16994 0.0
C70 C 0.94257 0.25759 0.16923 0.0
C71 C 0.95653 0.26648 0.15909 0.0
C72 C 0.95743 0.27939 0.1522 0.0
C73 C 0.94393 0.27764 0.15868 0.0
N74 N 0.91682 0.25775 0.23034 0.0
C75 C 0.91967 0.25753 0.30287 0.0
C76 C 0.92968 0.257 0.28095 0.0
C77 C 0.9282 0.25734 0.24531 0.0
C78 C 0.9087 0.25915 0.288 0.0
C79 C 0.90747 0.25922 0.25193 0.0
N80 N 0.91008 0.25145 0.12918 0.0
C81 C 0.91406 0.24199 0.07644 0.0
C82 C 0.90718 0.24773 0.05715 0.0
C83 C 0.90155 0.25527 0.07463 0.0
C84 C 0.90296 0.25685 0.11062 0.0
C85 C 0.91543 0.244 0.11193 0.0
H86 H 0.89837 0.26255 0.12302 0.0
H87 H 0.92112 0.2396 0.1248 0.0
H88 H 0.93635 0.25698 0.23066 0.0
H89 H 0.8987 0.26019 0.24227 0.0
C90 C 0.8906 0.26669 0.18589 0.0
C91 C 0.94053 0.28914 0.15393 0.0
C92 C 0.88479 0.21914 0.18808 0.0
C93 C 0.93655 0.24307 0.17831 0.0
H94 H 0.92988 0.30895 0.15857 0.0
H95 H 0.90266 0.29679 0.17746 0.0
H96 H 0.86116 0.24517 0.19325 0.0
H97 H 0.85815 0.21916 0.19475 0.0
H98 H 0.89611 0.20004 0.19577 0.0
H99 H 0.92455 0.21313 0.19196 0.0
H100 H 0.96499 0.26384 0.15658 0.0
H101 H 0.9669 0.289 0.14323 0.0
H102 H 0.93864 0.2562 0.2913 0.0
H103 H 0.90079 0.25982 0.30404 0.0
H104 H 0.9188 0.23629 0.06408 0.0
H105 H 0.89605 0.25983 0.06068 0.0
C106 C 0.72195 0.63801 0.16005 0.0
C107 C 0.71103 0.62376 0.16163 0.0
C108 C 0.71697 0.61615 0.17537 0.0
C109 C 0.73114 0.62611 0.18129 0.0
N110 N 0.73446 0.6395 0.1721 0.0
Co111 Co 0.75365 0.65698 0.17576 0.0
N112 N 0.76339 0.64543 0.17794 0.0
C113 C 0.75706 0.63137 0.18604 0.0
C114 C 0.7665 0.62628 0.18655 0.0
C115 C 0.77962 0.63788 0.17863 0.0
C116 C 0.77745 0.64947 0.17364 0.0
N117 N 0.77285 0.67448 0.18001 0.0
C118 C 0.78617 0.67616 0.17604 0.0
C119 C 0.79668 0.69034 0.18201 0.0
C120 C 0.78964 0.69763 0.19068 0.0
C121 C 0.77525 0.68758 0.18938 0.0
N122 N 0.74371 0.66833 0.17316 0.0
C123 C 0.74914 0.68205 0.18327 0.0
C124 C 0.73978 0.68708 0.17748 0.0
C125 C 0.72775 0.67577 0.1629 0.0
C126 C 0.73047 0.66446 0.16056 0.0
N127 N 0.75202 0.65642 0.22638 0.0
C128 C 0.75229 0.66087 0.298 0.0
C129 C 0.74006 0.65751 0.27813 0.0
C130 C 0.74011 0.65526 0.24242 0.0
C131 C 0.76393 0.66094 0.28141 0.0
C132 C 0.7636 0.65874 0.24591 0.0
N133 N 0.75558 0.658 0.1255 0.0
C134 C 0.76275 0.67255 0.07424 0.0
C135 C 0.75915 0.66051 0.05373 0.0
C136 C 0.75352 0.64707 0.06992 0.0
C137 C 0.75193 0.64606 0.10592 0.0
C138 C 0.76081 0.67106 0.10978 0.0
H139 H 0.7478 0.63568 0.11795 0.0
H140 H 0.76358 0.68058 0.12453 0.0
H141 H 0.73075 0.65315 0.22759 0.0
H142 H 0.77305 0.65953 0.23417 0.0
C143 C 0.74207 0.623 0.18847 0.0
C144 C 0.72006 0.64994 0.14836 0.0
C145 C 0.78917 0.66438 0.16929 0.0
C146 C 0.76381 0.69041 0.19151 0.0
H147 H 0.69996 0.6193 0.15349 0.0
H148 H 0.71175 0.60462 0.17885 0.0
H149 H 0.76411 0.61538 0.19145 0.0
H150 H 0.78968 0.63785 0.17759 0.0
H151 H 0.80822 0.69492 0.18057 0.0
H152 H 0.79445 0.70899 0.19619 0.0
H153 H 0.7417 0.69786 0.1818 0.0
H154 H 0.71811 0.67581 0.1549 0.0
H155 H 0.73073 0.65722 0.2897 0.0
H156 H 0.77346 0.66301 0.29561 0.0
H157 H 0.76685 0.68309 0.06284 0.0
H158 H 0.75059 0.63747 0.05498 0.0
C159 C 0.08797 0.36913 0.36433 0.0
C160 C 0.09151 0.38346 0.36441 0.0
C161 C 0.10527 0.39119 0.35194 0.0
C162 C 0.10936 0.3812 0.34501 0.0
N163 N 0.09904 0.36769 0.3524 0.0
Co164 Co 0.10045 0.35011 0.34647 0.0
N165 N 0.12178 0.36141 0.34569 0.0
C166 C 0.12977 0.37562 0.33952 0.0
C167 C 0.14427 0.3805 0.33958 0.0
C168 C 0.14548 0.3686 0.34581 0.0
C169 C 0.13158 0.35705 0.34926 0.0
N170 N 0.10188 0.33253 0.33995 0.0
C171 C 0.11336 0.33055 0.34349 0.0
C172 C 0.10956 0.31648 0.33565 0.0
C173 C 0.09532 0.30957 0.32624 0.0
C174 C 0.09116 0.31973 0.32898 0.0
N175 N 0.07912 0.33899 0.34755 0.0
C176 C 0.0708 0.32553 0.33571 0.0
C177 C 0.05638 0.32064 0.34042 0.0
C178 C 0.05565 0.33175 0.35611 0.0
C179 C 0.06971 0.34282 0.36013 0.0
N180 N 0.09995 0.35185 0.29605 0.0
C181 C 0.0967 0.34983 0.22395 0.0
C182 C 0.08762 0.35258 0.24471 0.0
C183 C 0.08953 0.35371 0.2806 0.0
C184 C 0.10781 0.34878 0.24006 0.0
C185 C 0.10923 0.34979 0.27589 0.0
N186 N 0.1007 0.34797 0.39656 0.0
C187 C 0.09172 0.33255 0.44624 0.0
C188 C 0.09965 0.34418 0.46842 0.0
C189 C 0.1084 0.35779 0.45359 0.0
C190 C 0.10879 0.35945 0.41762 0.0
C191 C 0.09234 0.33467 0.41073 0.0
H192 H 0.11548 0.37001 0.40683 0.0
H193 H 0.08591 0.32546 0.39474 0.0
H194 H 0.08227 0.35564 0.29593 0.0
H195 H 0.11756 0.34832 0.28728 0.0
C196 C 0.12341 0.38425 0.33826 0.0
C197 C 0.07385 0.35712 0.37399 0.0
C198 C 0.12812 0.34199 0.35158 0.0
C199 C 0.07701 0.31718 0.32648 0.0
H200 H 0.08487 0.38787 0.3727 0.0
H201 H 0.11175 0.40277 0.34981 0.0
H202 H 0.15294 0.39144 0.33615 0.0
H203 H 0.15546 0.36841 0.34677 0.0
H204 H 0.11638 0.31172 0.33631 0.0
H205 H 0.0887 0.29837 0.31923 0.0
H206 H 0.04748 0.31005 0.33456 0.0
H207 H 0.04594 0.33173 0.36372 0.0
H208 H 0.07902 0.35372 0.23337 0.0
H209 H 0.11506 0.34658 0.22524 0.0
H210 H 0.08507 0.32177 0.45613 0.0
H211 H 0.11468 0.36715 0.46958 0.0
C212 C 0.64257 0.72117 0.35965 0.0
C213 C 0.62822 0.71042 0.36076 0.0
C214 C 0.6203 0.71672 0.35252 0.0
C215 C 0.63019 0.73089 0.3469 0.0
N216 N 0.64397 0.73402 0.3507 0.0
Co217 Co 0.66163 0.75336 0.34505 0.0
N218 N 0.64986 0.76305 0.33995 0.0
C219 C 0.63536 0.75663 0.34021 0.0
C220 C 0.63027 0.76601 0.33734 0.0
C221 C 0.64225 0.77928 0.33565 0.0
C222 C 0.65401 0.7772 0.33764 0.0
N223 N 0.67925 0.77266 0.33797 0.0
C224 C 0.68064 0.7859 0.33459 0.0
C225 C 0.6949 0.79642 0.32985 0.0
C226 C 0.70278 0.78961 0.33032 0.0
C227 C 0.69295 0.77535 0.3353 0.0
N228 N 0.67336 0.74372 0.35235 0.0
C229 C 0.68788 0.75009 0.35153 0.0
C230 C 0.69294 0.74104 0.36026 0.0
C231 C 0.68095 0.72819 0.3678 0.0
C232 C 0.66923 0.73014 0.36309 0.0
N233 N 0.66107 0.75018 0.29416 0.0
C234 C 0.66277 0.75028 0.22158 0.0
C235 C 0.67394 0.75136 0.24188 0.0
C236 C 0.67277 0.75103 0.27762 0.0
C237 C 0.65027 0.74817 0.23794 0.0
C238 C 0.64966 0.74819 0.27411 0.0
N239 N 0.66251 0.75671 0.39532 0.0
C240 C 0.67693 0.76525 0.44678 0.0
C241 C 0.66468 0.7598 0.46738 0.0
C242 C 0.65122 0.75333 0.45117 0.0
C243 C 0.65037 0.75191 0.41512 0.0
C244 C 0.67562 0.76361 0.4113 0.0
H245 H 0.63987 0.74672 0.40368 0.0
H246 H 0.68544 0.76784 0.39741 0.0
H247 H 0.68169 0.75176 0.29103 0.0
H248 H 0.63997 0.74685 0.28513 0.0
C249 C 0.62682 0.74176 0.34279 0.0
C250 C 0.65438 0.7188 0.36922 0.0
C251 C 0.66887 0.78902 0.33713 0.0
C252 C 0.69639 0.76463 0.34259 0.0
H253 H 0.62387 0.69927 0.36787 0.0
H254 H 0.60869 0.71171 0.35231 0.0
H255 H 0.61917 0.7635 0.33668 0.0
H256 H 0.64231 0.78935 0.33324 0.0
H257 H 0.69919 0.80788 0.32719 0.0
H258 H 0.71436 0.79455 0.32874 0.0
H259 H 0.70403 0.74353 0.36151 0.0
H260 H 0.68083 0.71851 0.37609 0.0
H261 H 0.68365 0.75255 0.23016 0.0
H262 H 0.64123 0.74702 0.22299 0.0
H263 H 0.6876 0.77074 0.45802 0.0
H264 H 0.64143 0.74907 0.46619 0.0
C265 C 0.28926 0.92244 0.35763 0.0
C266 C 0.30017 0.91906 0.35673 0.0
C267 C 0.29417 0.90533 0.34402 0.0
C268 C 0.27999 0.90111 0.33795 0.0
N269 N 0.27673 0.91133 0.34606 0.0
Co270 Co 0.2576 0.90971 0.34173 0.0
N271 N 0.24776 0.88841 0.34106 0.0
C272 C 0.25404 0.88053 0.33405 0.0
C273 C 0.24455 0.86602 0.33439 0.0
C274 C 0.23144 0.86468 0.3417 0.0
C275 C 0.23368 0.87853 0.34548 0.0
N276 N 0.23844 0.90811 0.33681 0.0
C277 C 0.22508 0.89657 0.34101 0.0
C278 C 0.21463 0.90025 0.33416 0.0
C279 C 0.22174 0.91447 0.32465 0.0
C280 C 0.23611 0.91873 0.32636 0.0
N281 N 0.26762 0.93102 0.34276 0.0
C282 C 0.26226 0.93924 0.33162 0.0
C283 C 0.2717 0.95367 0.3364 0.0
C284 C 0.28371 0.95449 0.35143 0.0
C285 C 0.28089 0.94048 0.35501 0.0
N286 N 0.25922 0.91015 0.29116 0.0
C287 C 0.25896 0.91385 0.21941 0.0
C288 C 0.27122 0.92277 0.23911 0.0
C289 C 0.27117 0.92068 0.27487 0.0
C290 C 0.24731 0.90241 0.23624 0.0
C291 C 0.24764 0.90077 0.27184 0.0
N292 N 0.25575 0.90951 0.39197 0.0
C293 C 0.24958 0.91836 0.44239 0.0
C294 C 0.25347 0.91042 0.46398 0.0
C295 C 0.25834 0.90178 0.44851 0.0
C296 C 0.25939 0.90147 0.41246 0.0
C297 C 0.25084 0.9178 0.40679 0.0
H298 H 0.26325 0.89484 0.40113 0.0
H299 H 0.24788 0.92421 0.39126 0.0
H300 H 0.28056 0.928 0.28953 0.0
H301 H 0.23817 0.89224 0.28381 0.0
C302 C 0.26902 0.88701 0.33165 0.0
C303 C 0.2912 0.93641 0.36817 0.0
C304 C 0.22199 0.88185 0.34874 0.0
C305 C 0.2476 0.93292 0.32336 0.0
H306 H 0.31125 0.92574 0.36464 0.0
H307 H 0.29936 0.89894 0.3413 0.0
H308 H 0.24689 0.85742 0.33042 0.0
H309 H 0.22135 0.85466 0.34311 0.0
H310 H 0.20308 0.89336 0.33551 0.0
H311 H 0.21699 0.921 0.31824 0.0
H312 H 0.26985 0.96251 0.33113 0.0
H313 H 0.29339 0.96423 0.35892 0.0
H314 H 0.28056 0.93171 0.22738 0.0
H315 H 0.23776 0.89489 0.22217 0.0
H316 H 0.24543 0.92493 0.45281 0.0
H317 H 0.26155 0.89549 0.46406 0.0
C318 C 0.66654 0.93903 0.86344 0.0
C319 C 0.67782 0.95301 0.86008 0.0
C320 C 0.68894 0.95213 0.84481 0.0
C321 C 0.68384 0.9377 0.83968 0.0
N322 N 0.67025 0.92953 0.85083 0.0
Co323 Co 0.65882 0.90825 0.84921 0.0
N324 N 0.67624 0.90647 0.84383 0.0
C325 C 0.68923 0.91704 0.83343 0.0
C326 C 0.69924 0.91265 0.83164 0.0
C327 C 0.69204 0.89843 0.84112 0.0
C328 C 0.67795 0.89487 0.84804 0.0
N329 N 0.64721 0.88698 0.84795 0.0
C330 C 0.65129 0.87701 0.85228 0.0
C331 C 0.63963 0.86322 0.84816 0.0
C332 C 0.62795 0.86469 0.84078 0.0
C333 C 0.63306 0.87922 0.84073 0.0
N334 N 0.64139 0.91001 0.85403 0.0
C335 C 0.6279 0.89993 0.84568 0.0
C336 C 0.61803 0.90424 0.85209 0.0
C337 C 0.62584 0.91789 0.86523 0.0
C338 C 0.64009 0.92113 0.86606 0.0
N339 N 0.65758 0.90894 0.79869 0.0
C340 C 0.65982 0.91201 0.72655 0.0
C341 C 0.66065 0.90084 0.74299 0.0
C342 C 0.65955 0.89952 0.77883 0.0
C343 C 0.65729 0.92131 0.74702 0.0
C344 C 0.65604 0.91949 0.78294 0.0
N345 N 0.66045 0.90776 0.89939 0.0
C346 C 0.65 0.89976 0.95572 0.0
C347 C 0.66357 0.90786 0.97122 0.0
C348 C 0.67547 0.91588 0.94992 0.0
C349 C 0.67368 0.91574 0.91434 0.0
C350 C 0.64869 0.89976 0.91972 0.0
H351 H 0.68307 0.92224 0.89893 0.0
H352 H 0.63819 0.89337 0.90831 0.0
H353 H 0.66081 0.89112 0.79046 0.0
H354 H 0.65423 0.92688 0.79806 0.0
C355 C 0.69207 0.93129 0.83092 0.0
C356 C 0.65219 0.93503 0.87676 0.0
C357 C 0.66624 0.88022 0.85608 0.0
C358 C 0.62466 0.88583 0.83875 0.0
H359 H 0.67798 0.96277 0.86788 0.0
H360 H 0.69966 0.96092 0.83958 0.0
H361 H 0.71054 0.91912 0.82534 0.0
H362 H 0.69663 0.89147 0.84252 0.0
H363 H 0.63962 0.85314 0.84951 0.0
H364 H 0.61699 0.85616 0.83668 0.0
H365 H 0.60646 0.89797 0.84923 0.0
H366 H 0.62154 0.92463 0.8734 0.0
H367 H 0.66271 0.89345 0.72841 0.0
H368 H 0.65634 0.92997 0.73542 0.0
H369 H 0.64051 0.89335 0.97123 0.0
H370 H 0.68611 0.92251 0.9607 0.0
C371 C 0.06969 0.72829 0.86299 0.0
C372 C 0.05561 0.72533 0.85981 0.0
C373 C 0.05621 0.73723 0.84482 0.0
C374 C 0.0706 0.74675 0.83965 0.0
N375 N 0.07901 0.74156 0.85052 0.0
Co376 Co 0.10034 0.75178 0.84879 0.0
N377 N 0.10169 0.77081 0.84353 0.0
C378 C 0.09088 0.77294 0.83345 0.0
C379 C 0.09499 0.78724 0.8312 0.0
C380 C 0.1093 0.79454 0.83993 0.0
C381 C 0.11319 0.78426 0.84688 0.0
N382 N 0.12167 0.76182 0.84746 0.0
C383 C 0.13149 0.77597 0.85113 0.0
C384 C 0.14538 0.77831 0.8471 0.0
C385 C 0.14415 0.76522 0.84037 0.0
C386 C 0.12965 0.75563 0.8406 0.0
N387 N 0.09896 0.73276 0.85343 0.0
C388 C 0.10928 0.72963 0.84531 0.0
C389 C 0.10526 0.71554 0.85168 0.0
C390 C 0.09155 0.70944 0.86458 0.0
C391 C 0.08797 0.72021 0.86526 0.0
N392 N 0.09962 0.74991 0.79826 0.0
C393 C 0.09549 0.74983 0.72662 0.0
C394 C 0.10697 0.76159 0.74304 0.0
C395 C 0.10882 0.76143 0.77857 0.0
C396 C 0.08675 0.73762 0.74664 0.0
C397 C 0.08906 0.73785 0.78235 0.0
N398 N 0.10082 0.75387 0.89901 0.0
C399 C 0.10884 0.75151 0.95542 0.0
C400 C 0.10018 0.75633 0.97104 0.0
C401 C 0.09212 0.76012 0.94958 0.0
C402 C 0.09253 0.75876 0.91398 0.0
C403 C 0.10902 0.75038 0.91936 0.0
H404 H 0.08601 0.7616 0.89857 0.0
H405 H 0.11566 0.74655 0.90794 0.0
H406 H 0.11737 0.77098 0.79019 0.0
H407 H 0.08188 0.72851 0.7973 0.0
C408 C 0.07673 0.76135 0.83107 0.0
C409 C 0.07393 0.71808 0.87587 0.0
C410 C 0.12806 0.7876 0.85371 0.0
C411 C 0.1233 0.74067 0.83867 0.0
H412 H 0.04595 0.71562 0.86753 0.0
H413 H 0.04727 0.73895 0.83977 0.0
H414 H 0.08831 0.79184 0.82486 0.0
H415 H 0.11611 0.8061 0.84063 0.0
H416 H 0.15536 0.78847 0.84791 0.0
H417 H 0.1528 0.76297 0.83631 0.0
H418 H 0.11176 0.71048 0.84901 0.0
H419 H 0.08502 0.69839 0.87276 0.0
H420 H 0.11434 0.7711 0.72867 0.0
H421 H 0.07781 0.7282 0.7352 0.0
H422 H 0.11523 0.74838 0.97086 0.0
H423 H 0.08554 0.76423 0.96011 0.0
C424 C 0.28091 0.34254 0.86261 0.0
C425 C 0.28384 0.33139 0.85953 0.0
C426 C 0.27202 0.3202 0.84398 0.0
C427 C 0.26257 0.32512 0.83843 0.0
N428 N 0.26773 0.33868 0.84957 0.0
Co429 Co 0.25761 0.34987 0.84738 0.0
N430 N 0.23858 0.33229 0.8413 0.0
C431 C 0.23645 0.31938 0.83103 0.0
C432 C 0.22213 0.30925 0.82844 0.0
C433 C 0.21484 0.31628 0.8372 0.0
C434 C 0.22515 0.3304 0.84453 0.0
N435 N 0.24767 0.36124 0.84558 0.0
C436 C 0.23353 0.35696 0.84901 0.0
C437 C 0.23123 0.36852 0.84476 0.0
C438 C 0.24437 0.38033 0.83818 0.0
C439 C 0.25394 0.3754 0.83871 0.0
N440 N 0.27664 0.36743 0.85284 0.0
C441 C 0.27989 0.38089 0.84464 0.0
C442 C 0.29398 0.39089 0.85151 0.0
C443 C 0.29992 0.3832 0.86481 0.0
C444 C 0.28908 0.3689 0.86524 0.0
N445 N 0.25988 0.3512 0.79695 0.0
C446 C 0.2612 0.34907 0.72489 0.0
C447 C 0.24904 0.34811 0.74087 0.0
C448 C 0.24858 0.34916 0.77666 0.0
C449 C 0.27294 0.35169 0.74578 0.0
C450 C 0.27213 0.35289 0.78166 0.0
N451 N 0.25513 0.34813 0.8975 0.0
C452 C 0.25706 0.35845 0.95382 0.0
C453 C 0.2516 0.34488 0.96922 0.0
C454 C 0.24801 0.33305 0.94788 0.0
C455 C 0.24992 0.33491 0.91236 0.0
C456 C 0.25863 0.35982 0.91787 0.0
H457 H 0.24725 0.32557 0.89694 0.0
H458 H 0.26271 0.37032 0.90653 0.0
H459 H 0.23881 0.34779 0.78789 0.0
H460 H 0.28127 0.35477 0.79711 0.0
C461 C 0.24802 0.31675 0.82915 0.0
C462 C 0.29106 0.35692 0.87601 0.0
C463 C 0.22189 0.34194 0.85189 0.0
C464 C 0.26894 0.38395 0.83734 0.0
H465 H 0.29348 0.33138 0.86765 0.0
H466 H 0.2703 0.30954 0.83881 0.0
H467 H 0.21751 0.29799 0.82198 0.0
H468 H 0.20327 0.31157 0.83779 0.0
H469 H 0.22108 0.36838 0.84543 0.0
H470 H 0.24668 0.39125 0.83413 0.0
H471 H 0.29912 0.40245 0.84886 0.0
H472 H 0.31093 0.38763 0.87337 0.0
H473 H 0.23965 0.34598 0.72596 0.0
H474 H 0.28266 0.35273 0.73453 0.0
H475 H 0.25993 0.36788 0.96937 0.0
H476 H 0.24401 0.32241 0.95861 0.0
C477 C 0.94318 0.66639 0.66395 0.0
C478 C 0.95691 0.67801 0.6594 0.0
C479 C 0.95624 0.69004 0.66767 0.0
C480 C 0.94218 0.68512 0.67666 0.0
N481 N 0.93388 0.67064 0.67535 0.0
Co482 Co 0.9125 0.65915 0.68267 0.0
N483 N 0.91109 0.67688 0.69059 0.0
C484 C 0.92223 0.69045 0.69397 0.0
C485 C 0.918 0.7004 0.6997 0.0
C486 C 0.90329 0.69272 0.69998 0.0
C487 C 0.89936 0.67846 0.69436 0.0
N488 N 0.89103 0.64764 0.68755 0.0
C489 C 0.88115 0.65197 0.69008 0.0
C490 C 0.86724 0.64033 0.6917 0.0
C491 C 0.86835 0.62825 0.68958 0.0
C492 C 0.88279 0.63316 0.68682 0.0
N493 N 0.91392 0.64137 0.67634 0.0
C494 C 0.90316 0.62765 0.68004 0.0
C495 C 0.90721 0.61763 0.67377 0.0
C496 C 0.92141 0.62539 0.66524 0.0
C497 C 0.92524 0.63979 0.6669 0.0
N498 N 0.91504 0.6583 0.73354 0.0
C499 C 0.91646 0.66002 0.80615 0.0
C500 C 0.90569 0.64779 0.7897 0.0
C501 C 0.90517 0.64716 0.75352 0.0
C502 C 0.92701 0.67082 0.78594 0.0
C503 C 0.92626 0.66963 0.75018 0.0
N504 N 0.91011 0.66035 0.63251 0.0
C505 C 0.90215 0.64943 0.57634 0.0
C506 C 0.9092 0.66298 0.5606 0.0
C507 C 0.9161 0.67509 0.58161 0.0
C508 C 0.91643 0.67355 0.61701 0.0
C509 C 0.90273 0.64836 0.61232 0.0
H510 H 0.92208 0.68327 0.63127 0.0
H511 H 0.89737 0.6378 0.62341 0.0
H512 H 0.89653 0.63769 0.74246 0.0
H513 H 0.93482 0.67826 0.73686 0.0
C514 C 0.93633 0.69372 0.6865 0.0
C515 C 0.93949 0.65151 0.65731 0.0
C516 C 0.88438 0.66688 0.69153 0.0
C517 C 0.88899 0.62449 0.68416 0.0
H518 H 0.96639 0.67779 0.65079 0.0
H519 H 0.96493 0.70108 0.6668 0.0
H520 H 0.92477 0.71194 0.70191 0.0
H521 H 0.89626 0.69717 0.70311 0.0
H522 H 0.8573 0.64053 0.69426 0.0
H523 H 0.85966 0.6172 0.68997 0.0
H524 H 0.90047 0.60605 0.67362 0.0
H525 H 0.92801 0.62087 0.6575 0.0
H526 H 0.89744 0.63901 0.8046 0.0
H527 H 0.93582 0.68028 0.79774 0.0
H528 H 0.89655 0.63973 0.56101 0.0
H529 H 0.92133 0.68582 0.57077 0.0
C530 C 0.34393 0.27804 0.6677 0.0
C531 C 0.33261 0.28073 0.67038 0.0
C532 C 0.32133 0.26866 0.68484 0.0
C533 C 0.32638 0.2593 0.69018 0.0
N534 N 0.3401 0.26476 0.67993 0.0
Co535 Co 0.35152 0.25488 0.68215 0.0
N536 N 0.33403 0.23567 0.68641 0.0
C537 C 0.32092 0.23323 0.69589 0.0
C538 C 0.3109 0.21885 0.69731 0.0
C539 C 0.31822 0.21184 0.68863 0.0
C540 C 0.33239 0.22236 0.68254 0.0
N541 N 0.36314 0.24519 0.68401 0.0
C542 C 0.35911 0.23114 0.67976 0.0
C543 C 0.37076 0.22902 0.68444 0.0
C544 C 0.38237 0.24216 0.69215 0.0
C545 C 0.37723 0.25156 0.69183 0.0
N546 N 0.36898 0.27408 0.67848 0.0
C547 C 0.3824 0.27743 0.68752 0.0
C548 C 0.39232 0.29163 0.68183 0.0
C549 C 0.38462 0.29755 0.6684 0.0
C550 C 0.3704 0.28657 0.66669 0.0
N551 N 0.35218 0.25648 0.73274 0.0
C552 C 0.34784 0.25624 0.80436 0.0
C553 C 0.34778 0.24462 0.78774 0.0
C554 C 0.34993 0.24493 0.75222 0.0
C555 C 0.35116 0.26846 0.78452 0.0
C556 C 0.35338 0.26839 0.74882 0.0
N557 N 0.35043 0.25302 0.63187 0.0
C558 C 0.36142 0.25545 0.57621 0.0
C559 C 0.348 0.24999 0.55994 0.0
C560 C 0.33592 0.24621 0.5805 0.0
C561 C 0.33736 0.24786 0.61614 0.0
C562 C 0.36238 0.25678 0.61225 0.0
H563 H 0.32783 0.24499 0.63096 0.0
H564 H 0.37277 0.26085 0.62428 0.0
H565 H 0.34913 0.23549 0.74044 0.0
H566 H 0.35546 0.27774 0.73404 0.0
C567 C 0.31806 0.24463 0.69827 0.0
C568 C 0.35842 0.28844 0.65532 0.0
C569 C 0.34418 0.21938 0.67587 0.0
C570 C 0.38558 0.26654 0.69438 0.0
H571 H 0.33253 0.29037 0.66266 0.0
H572 H 0.31055 0.26671 0.68937 0.0
H573 H 0.29955 0.21402 0.703 0.0
H574 H 0.31367 0.20031 0.68733 0.0
H575 H 0.37081 0.21897 0.68336 0.0
H576 H 0.3933 0.24458 0.69685 0.0
H577 H 0.40385 0.2969 0.68533 0.0
H578 H 0.38899 0.30864 0.66062 0.0
H579 H 0.34576 0.23511 0.80194 0.0
H580 H 0.35144 0.27777 0.79609 0.0
H581 H 0.37104 0.25847 0.56129 0.0
H582 H 0.32538 0.2422 0.5691 0.0
C583 C 0.73124 0.06658 0.67069 0.0
C584 C 0.72859 0.05263 0.67421 0.0
C585 C 0.74065 0.05359 0.68932 0.0
C586 C 0.74995 0.06804 0.69418 0.0
N587 N 0.74446 0.07615 0.68302 0.0
Co588 Co 0.75426 0.09745 0.68411 0.0
N589 N 0.77351 0.09928 0.6892 0.0
C590 C 0.77599 0.08875 0.69967 0.0
C591 C 0.79039 0.09319 0.70155 0.0
C592 C 0.79737 0.10741 0.69212 0.0
C593 C 0.78681 0.11092 0.68513 0.0
N594 N 0.76388 0.11873 0.68487 0.0
C595 C 0.77792 0.12873 0.68055 0.0
C596 C 0.77999 0.14252 0.68427 0.0
C597 C 0.76681 0.14102 0.69147 0.0
C598 C 0.75744 0.12648 0.6918 0.0
N599 N 0.73504 0.0956 0.67958 0.0
C600 C 0.73159 0.10568 0.68772 0.0
C601 C 0.71738 0.10129 0.68155 0.0
C602 C 0.71156 0.08758 0.66875 0.0
C603 C 0.72261 0.08441 0.66784 0.0
N604 N 0.75255 0.09696 0.73464 0.0
C605 C 0.75275 0.09325 0.80638 0.0
C606 C 0.76437 0.10476 0.78965 0.0
C607 C 0.76407 0.1064 0.75405 0.0
C608 C 0.74055 0.08425 0.78659 0.0
C609 C 0.74063 0.08634 0.75084 0.0
N610 N 0.7562 0.09772 0.63391 0.0
C611 C 0.75352 0.10541 0.5774 0.0
C612 C 0.75853 0.09688 0.56194 0.0
C613 C 0.76253 0.08903 0.5835 0.0
C614 C 0.76124 0.08955 0.61909 0.0
C615 C 0.75245 0.10568 0.61344 0.0
H616 H 0.76429 0.08321 0.63462 0.0
H617 H 0.74848 0.11222 0.62477 0.0
H618 H 0.77351 0.115 0.74216 0.0
H619 H 0.7313 0.07897 0.73609 0.0
C620 C 0.76461 0.07451 0.70256 0.0
C621 C 0.72086 0.07052 0.65728 0.0
C622 C 0.78974 0.12559 0.67741 0.0
C623 C 0.74244 0.11983 0.69409 0.0
H624 H 0.71901 0.04283 0.66656 0.0
H625 H 0.74263 0.04484 0.69457 0.0
H626 H 0.79525 0.08677 0.70803 0.0
H627 H 0.80891 0.11442 0.69092 0.0
H628 H 0.79002 0.15261 0.68287 0.0
H629 H 0.76433 0.14953 0.69538 0.0
H630 H 0.71205 0.10753 0.68431 0.0
H631 H 0.7005 0.08076 0.66084 0.0
H632 H 0.77386 0.11233 0.80381 0.0
H633 H 0.73124 0.07525 0.79827 0.0
H634 H 0.75022 0.11162 0.56185 0.0
H635 H 0.76678 0.08255 0.57305 0.0
C636 C 0.03801 0.41977 0.49485 0.0
C637 C 0.05228 0.42309 0.49524 0.0
C638 C 0.06008 0.43667 0.50878 0.0
C639 C 0.05017 0.44086 0.51584 0.0
N640 N 0.03666 0.43079 0.5075 0.0
Co641 Co 0.0192 0.43242 0.51334 0.0
N642 N 0.03074 0.4537 0.51585 0.0
C643 C 0.04491 0.46143 0.52285 0.0
C644 C 0.04998 0.47595 0.52383 0.0
C645 C 0.03824 0.47744 0.51739 0.0
C646 C 0.0266 0.46368 0.51276 0.0
N647 N 1.00173 0.43408 0.51976 0.0
C648 C 0.99998 0.44571 0.51684 0.0
C649 C 0.98589 0.44203 0.52423 0.0
C650 C 0.97873 0.4277 0.53266 0.0
C651 C 0.98876 0.42337 0.52983 0.0
N652 N 0.0078 0.41115 0.51053 0.0
C653 C 0.99422 0.40285 0.52161 0.0
C654 C 0.98916 0.38847 0.51588 0.0
C655 C 1.0003 0.38774 0.50033 0.0
C656 C 0.01156 0.40176 0.49742 0.0
N657 N 0.02053 0.4312 0.56366 0.0
C658 C 0.01863 0.42739 0.63554 0.0
C659 C 0.02115 0.41836 0.61405 0.0
C660 C 0.02223 0.42055 0.57828 0.0
C661 C 0.01761 0.43866 0.62027 0.0
C662 C 0.01855 0.44035 0.58452 0.0
N663 N 0.01751 0.43343 0.46331 0.0
C664 C 1.00258 0.42555 0.41262 0.0
C665 C 0.01452 0.43367 0.39151 0.0
C666 C 0.02804 0.44179 0.40722 0.0
C667 C 0.02928 0.44161 0.44318 0.0
C668 C 1.00431 0.42553 0.44822 0.0
H669 H 0.03976 0.44797 0.45472 0.0
H670 H 0.9949 0.41892 0.46349 0.0
H671 H 0.02406 0.41337 0.56237 0.0
H672 H 0.01718 0.44883 0.57376 0.0
C673 C 0.05336 0.45486 0.52373 0.0
C674 C 0.02593 0.40585 0.48415 0.0
C675 C 0.01163 0.46046 0.50965 0.0
C676 C 0.98597 0.40912 0.53123 0.0
H677 H 0.05662 0.41644 0.48659 0.0
H678 H 0.07164 0.44296 0.51157 0.0
H679 H 0.06094 0.48446 0.52802 0.0
H680 H 0.03821 0.4875 0.51698 0.0
H681 H 0.98129 0.44899 0.52386 0.0
H682 H 0.96744 0.42114 0.53902 0.0
H683 H 0.97846 0.37961 0.52101 0.0
H684 H 1.00019 0.37805 0.49212 0.0
H685 H 0.02223 0.40963 0.62476 0.0
H686 H 0.01557 0.44586 0.63572 0.0
H687 H 0.99197 0.41893 0.40168 0.0
H688 H 0.03755 0.44831 0.39189 0.0
C689 C 0.59224 0.62031 0.4929 0.0
C690 C 0.58892 0.63127 0.49367 0.0
C691 C 0.57488 0.62516 0.50348 0.0
C692 C 0.57041 0.61089 0.50814 0.0
N693 N 0.58079 0.60752 0.50222 0.0
Co694 Co 0.57878 0.58799 0.50602 0.0
N695 N 0.55743 0.57859 0.51278 0.0
C696 C 0.54956 0.58523 0.51393 0.0
C697 C 0.53506 0.576 0.51711 0.0
C698 C 0.53354 0.56261 0.51753 0.0
C699 C 0.54727 0.56448 0.51467 0.0
N700 N 0.57683 0.56851 0.51149 0.0
C701 C 0.56489 0.55537 0.51517 0.0
C702 C 0.56843 0.54466 0.51888 0.0
C703 C 0.58311 0.55127 0.51733 0.0
C704 C 0.5877 0.5656 0.51286 0.0
N705 N 0.6 0.59733 0.49676 0.0
C706 C 0.60792 0.59073 0.49594 0.0
C707 C 0.62191 0.5996 0.48601 0.0
C708 C 0.62291 0.61257 0.47938 0.0
C709 C 0.60943 0.61088 0.4858 0.0
N710 N 0.58212 0.59084 0.55697 0.0
C711 C 0.585 0.59067 0.6295 0.0
C712 C 0.59497 0.59007 0.60758 0.0
C713 C 0.59347 0.59037 0.57194 0.0
C714 C 0.57403 0.59228 0.61463 0.0
C715 C 0.57278 0.59232 0.57856 0.0
N716 N 0.57559 0.58497 0.45568 0.0
C717 C 0.57976 0.57583 0.40267 0.0
C718 C 0.57296 0.58171 0.38352 0.0
C719 C 0.56727 0.58912 0.40124 0.0
C720 C 0.56855 0.59048 0.43727 0.0
C721 C 0.58098 0.57759 0.43823 0.0
H722 H 0.56393 0.59613 0.44983 0.0
H723 H 0.58659 0.57309 0.451 0.0
H724 H 0.60159 0.58996 0.55729 0.0
H725 H 0.56401 0.5933 0.5689 0.0
C726 C 0.55615 0.60016 0.51262 0.0
C727 C 0.6061 0.62242 0.48117 0.0
C728 C 0.55006 0.5525 0.51412 0.0
C729 C 0.60181 0.57617 0.50468 0.0
H730 H 0.59577 0.64243 0.4867 0.0
H731 H 0.56847 0.63036 0.50521 0.0
H732 H 0.52661 0.57869 0.51881 0.0
H733 H 0.52346 0.5526 0.51971 0.0
H734 H 0.56114 0.53323 0.52163 0.0
H735 H 0.5896 0.54615 0.5179 0.0
H736 H 0.63034 0.59691 0.48344 0.0
H737 H 0.63242 0.62218 0.47058 0.0
H738 H 0.60393 0.58927 0.61791 0.0
H739 H 0.56613 0.59297 0.63068 0.0
H740 H 0.58455 0.57021 0.39015 0.0
H741 H 0.56182 0.59378 0.38743 0.0
C742 C 0.38916 0.97191 0.49144 0.0
C743 C 0.37818 0.95768 0.49241 0.0
C744 C 0.38406 0.94988 0.50535 0.0
C745 C 0.39826 0.95974 0.51145 0.0
N746 N 0.40164 0.97322 0.50312 0.0
Co747 Co 0.42085 0.99062 0.50738 0.0
N748 N 0.43052 0.97898 0.50846 0.0
C749 C 0.42413 0.96485 0.51573 0.0
C750 C 0.43352 0.95969 0.51558 0.0
C751 C 0.44667 0.97133 0.50812 0.0
C752 C 0.44456 0.98301 0.50406 0.0
N753 N 0.44009 0.00804 0.51221 0.0
C754 C 0.45339 0.00969 0.50801 0.0
C755 C 0.46394 0.02379 0.51468 0.0
C756 C 0.45695 0.03105 0.52404 0.0
C757 C 0.44255 0.02107 0.52243 0.0
N758 N 0.41101 1.00208 0.50596 0.0
C759 C 0.41648 0.0157 0.5169 0.0
C760 C 0.40715 0.02083 0.51191 0.0
C761 C 0.39509 0.00968 0.49698 0.0
C762 C 0.39777 0.99838 0.49364 0.0
N763 N 0.41917 0.9896 0.55795 0.0
C764 C 0.41923 0.9935 0.62975 0.0
C765 C 0.40705 0.99026 0.6098 0.0
C766 C 0.40721 0.98826 0.57404 0.0
C767 C 0.43093 0.99371 0.61309 0.0
C768 C 0.4307 0.99177 0.57747 0.0
N769 N 0.42275 0.9921 0.45713 0.0
C770 C 0.42911 0.00696 0.4065 0.0
C771 C 0.42513 0.99505 0.38509 0.0
C772 C 0.4201 0.98157 0.40076 0.0
C773 C 0.41901 0.98033 0.43683 0.0
C774 C 0.42779 0.00526 0.44211 0.0
H775 H 0.41505 0.96987 0.44831 0.0
H776 H 0.43083 0.01468 0.45749 0.0
H777 H 0.39787 0.98625 0.55923 0.0
H778 H 0.44018 0.99265 0.56564 0.0
C779 C 0.40913 0.9565 0.51803 0.0
C780 C 0.38734 0.984 0.48074 0.0
C781 C 0.45634 0.99794 0.50041 0.0
C782 C 0.43115 0.02393 0.52521 0.0
H783 H 0.36711 0.95336 0.48441 0.0
H784 H 0.37879 0.93833 0.50822 0.0
H785 H 0.43108 0.94874 0.51975 0.0
H786 H 0.45671 0.97127 0.50675 0.0
H787 H 0.47548 0.02833 0.51328 0.0
H788 H 0.4618 0.04235 0.53025 0.0
H789 H 0.4091 0.03157 0.51701 0.0
H790 H 0.38546 0.00984 0.4894 0.0
H791 H 0.39768 0.98988 0.62136 0.0
H792 H 0.44042 0.99567 0.62733 0.0
H793 H 0.43338 0.01766 0.39594 0.0
H794 H 0.41681 0.97202 0.38536 0.0
C795 C 0.75432 0.70162 0.69374 0.0
C796 C 0.75739 0.71581 0.69348 0.0
C797 C 0.77105 0.72383 0.68044 0.0
C798 C 0.77552 0.71413 0.67347 0.0
N799 N 0.76552 0.70055 0.68138 0.0
Co800 Co 0.76746 0.6833 0.67542 0.0
N801 N 0.78871 0.69506 0.67444 0.0
C802 C 0.79638 0.70923 0.66753 0.0
C803 C 0.81094 0.71443 0.6677 0.0
C804 C 0.81251 0.70278 0.67492 0.0
C805 C 0.79874 0.69108 0.67885 0.0
N806 N 0.76947 0.66608 0.66896 0.0
C807 C 0.78111 0.66446 0.6736 0.0
C808 C 0.77774 0.65048 0.66603 0.0
C809 C 0.76358 0.64327 0.65578 0.0
C810 C 0.75904 0.65316 0.65777 0.0
N811 N 0.74618 0.6717 0.67663 0.0
C812 C 0.73815 0.65823 0.66466 0.0
C813 C 0.72368 0.65295 0.66973 0.0
C814 C 0.72263 0.66384 0.68579 0.0
C815 C 0.73656 0.67517 0.68962 0.0
N816 N 0.76681 0.68496 0.62501 0.0
C817 C 0.76338 0.6829 0.55294 0.0
C818 C 0.75421 0.68542 0.57391 0.0
C819 C 0.7562 0.68658 0.60977 0.0
C820 C 0.77468 0.68209 0.56884 0.0
C821 C 0.77619 0.68311 0.60468 0.0
N822 N 0.76784 0.6812 0.72547 0.0
C823 C 0.75917 0.6657 0.77502 0.0
C824 C 0.76689 0.67736 0.79724 0.0
C825 C 0.77542 0.69103 0.78252 0.0
C826 C 0.77575 0.69272 0.74656 0.0
C827 C 0.75974 0.66784 0.73956 0.0
H828 H 0.78225 0.70332 0.73579 0.0
H829 H 0.75346 0.6586 0.72354 0.0
H830 H 0.74885 0.68832 0.62525 0.0
H831 H 0.78465 0.68185 0.61598 0.0
C832 C 0.78966 0.71754 0.66616 0.0
C833 C 0.74045 0.68935 0.70394 0.0
C834 C 0.79557 0.67618 0.68308 0.0
C835 C 0.74473 0.65021 0.65525 0.0
H836 H 0.75051 0.71992 0.70186 0.0
H837 H 0.7772 0.7354 0.67791 0.0
H838 H 0.81943 0.72543 0.66395 0.0
H839 H 0.82262 0.70287 0.67644 0.0
H840 H 0.78475 0.64596 0.66766 0.0
H841 H 0.75723 0.63201 0.64901 0.0
H842 H 0.71496 0.64225 0.66397 0.0
H843 H 0.7128 0.66347 0.69381 0.0
H844 H 0.74548 0.68638 0.56276 0.0
H845 H 0.78201 0.68008 0.55384 0.0
H846 H 0.75272 0.65488 0.78485 0.0
H847 H 0.78155 0.7004 0.7986 0.0
C848 C 0.3072 0.05374 0.69034 0.0
C849 C 0.29289 0.04293 0.68871 0.0
C850 C 0.28538 0.04904 0.67525 0.0
C851 C 0.29547 0.06318 0.66953 0.0
N852 N 0.30882 0.06632 0.67856 0.0
Co853 Co 0.32646 0.08539 0.67502 0.0
N854 N 0.31511 0.09536 0.67314 0.0
C855 C 0.30103 0.08918 0.66526 0.0
C856 C 0.2961 0.09875 0.66494 0.0
C857 C 0.30783 0.11179 0.67273 0.0
C858 C 0.31934 0.10945 0.67744 0.0
N859 N 0.34412 0.10447 0.67085 0.0
C860 C 0.34598 0.11786 0.67475 0.0
C861 C 0.3602 0.12824 0.66869 0.0
C862 C 0.36734 0.12105 0.65999 0.0
C863 C 0.35717 0.10672 0.66138 0.0
N864 N 0.33762 0.07524 0.67728 0.0
C865 C 0.35132 0.08052 0.66708 0.0
C866 C 0.35617 0.07101 0.67253 0.0
C867 C 0.34477 0.05903 0.68699 0.0
C868 C 0.3336 0.06194 0.6896 0.0
N869 N 0.32582 0.08382 0.62441 0.0
C870 C 0.33021 0.08404 0.5528 0.0
C871 C 0.32671 0.07177 0.57263 0.0
C872 C 0.32448 0.07185 0.60831 0.0
C873 C 0.33042 0.09574 0.56943 0.0
C874 C 0.32826 0.09543 0.60495 0.0
N875 N 0.32754 0.08722 0.72532 0.0
C876 C 0.34204 0.09381 0.77671 0.0
C877 C 0.32998 0.09014 0.79728 0.0
C878 C 0.31658 0.08484 0.781 0.0
C879 C 0.31561 0.08357 0.74494 0.0
C880 C 0.34058 0.09221 0.74106 0.0
H881 H 0.30525 0.07963 0.7329 0.0
H882 H 0.3501 0.09499 0.72625 0.0
H883 H 0.32226 0.06245 0.62308 0.0
H884 H 0.32918 0.10493 0.61674 0.0
C885 C 0.2925 0.07422 0.66267 0.0
C886 C 0.31905 0.05167 0.70182 0.0
C887 C 0.33433 0.12105 0.68146 0.0
C888 C 0.35982 0.09517 0.65901 0.0
H889 H 0.28834 0.03184 0.69662 0.0
H890 H 0.27385 0.04394 0.67182 0.0
H891 H 0.28522 0.09649 0.66021 0.0
H892 H 0.30794 0.12192 0.67383 0.0
H893 H 0.3649 0.13979 0.67002 0.0
H894 H 0.37869 0.12574 0.65433 0.0
H895 H 0.3669 0.07279 0.66804 0.0
H896 H 0.34468 0.04931 0.69474 0.0
H897 H 0.32631 0.0624 0.56105 0.0
H898 H 0.33258 0.10529 0.55526 0.0
H899 H 0.35255 0.09768 0.78811 0.0
H900 H 0.30698 0.0819 0.79594 0.0
C901 C 0.95554 0.2536 0.69807 0.0
C902 C 0.96632 0.25003 0.69856 0.0
C903 C 0.96031 0.23624 0.68628 0.0
C904 C 0.94625 0.23216 0.67907 0.0
N905 N 0.94307 0.24253 0.68608 0.0
Co906 Co 0.92411 0.24116 0.67975 0.0
N907 N 0.91406 0.21984 0.67949 0.0
C908 C 0.92026 0.21179 0.6737 0.0
C909 C 0.91062 0.19732 0.67411 0.0
C910 C 0.89752 0.19618 0.68017 0.0
C911 C 0.8999 0.21011 0.68319 0.0
N912 N 0.90514 0.23978 0.67281 0.0
C913 C 0.89168 0.22835 0.67646 0.0
C914 C 0.88143 0.23216 0.66825 0.0
C915 C 0.8888 0.24635 0.65848 0.0
C916 C 0.9031 0.25046 0.6614 0.0
N917 N 0.93435 0.26248 0.68041 0.0
C918 C 0.92927 0.27079 0.66815 0.0
C919 C 0.93879 0.2852 0.67281 0.0
C920 C 0.95055 0.28593 0.68894 0.0
C921 C 0.94753 0.27188 0.69325 0.0
N922 N 0.92639 0.24142 0.62941 0.0
C923 C 0.92745 0.24439 0.55741 0.0
C924 C 0.9392 0.25376 0.57789 0.0
C925 C 0.93855 0.25194 0.61378 0.0
C926 C 0.91548 0.23312 0.5736 0.0
C927 C 0.91512 0.23189 0.60944 0.0
N928 N 0.92161 0.2411 0.7297 0.0
C929 C 0.915 0.25024 0.77882 0.0
C930 C 0.91824 0.24204 0.80121 0.0
C931 C 0.92305 0.23316 0.78687 0.0
C932 C 0.92468 0.23286 0.75102 0.0
C933 C 0.91677 0.24964 0.74344 0.0
H934 H 0.92849 0.22606 0.74054 0.0
H935 H 0.91423 0.25618 0.7272 0.0
H936 H 0.9477 0.25936 0.62897 0.0
H937 H 0.90541 0.22351 0.62095 0.0
C938 C 0.93525 0.21811 0.67253 0.0
C939 C 0.95761 0.26773 0.70759 0.0
C940 C 0.88832 0.21363 0.68513 0.0
C941 C 0.91473 0.26459 0.65872 0.0
H942 H 0.97733 0.25664 0.70705 0.0
H943 H 0.96539 0.22973 0.68453 0.0
H944 H 0.91287 0.18861 0.67104 0.0
H945 H 0.88734 0.18623 0.68131 0.0
H946 H 0.86985 0.22539 0.66892 0.0
H947 H 0.88424 0.25296 0.65115 0.0
H948 H 0.93713 0.2941 0.66668 0.0
H949 H 0.96022 0.29564 0.69664 0.0
H950 H 0.94875 0.26249 0.5663 0.0
H951 H 0.90615 0.22566 0.55878 0.0
H952 H 0.91097 0.25702 0.78845 0.0
H953 H 0.92576 0.22668 0.80316 0.0
C954 C 0.33287 0.27216 0.19593 0.0
C955 C 0.34402 0.28619 0.19232 0.0
C956 C 0.35512 0.28546 0.17654 0.0
C957 C 0.35014 0.27106 0.17139 0.0
N958 N 0.33665 0.26276 0.18301 0.0
Co959 Co 0.32541 0.24145 0.18132 0.0
N960 N 0.34294 0.23993 0.17466 0.0
C961 C 0.35581 0.25064 0.16398 0.0
C962 C 0.36592 0.24642 0.16102 0.0
C963 C 0.35892 0.23214 0.16996 0.0
C964 C 0.34484 0.22839 0.17775 0.0
N965 N 0.314 0.22014 0.17994 0.0
C966 C 0.31828 0.21027 0.18312 0.0
C967 C 0.30667 0.19642 0.17933 0.0
C968 C 0.29481 0.19775 0.17328 0.0
C969 C 0.29978 0.21225 0.17366 0.0
N970 N 0.30788 0.24296 0.1874 0.0
C971 C 0.29435 0.23274 0.17975 0.0
C972 C 0.28441 0.23689 0.18687 0.0
C973 C 0.2922 0.25058 0.19973 0.0
C974 C 0.30651 0.25401 0.1997 0.0
N975 N 0.32374 0.24218 0.13095 0.0
C976 C 0.32559 0.24558 0.0589 0.0
C977 C 0.32665 0.23442 0.07469 0.0
C978 C 0.32572 0.23293 0.1105 0.0
C979 C 0.32297 0.25466 0.07997 0.0
C980 C 0.32192 0.25268 0.11583 0.0
N981 N 0.32746 0.24094 0.23137 0.0
C982 C 0.31745 0.23307 0.28814 0.0
C983 C 0.33104 0.24165 0.30325 0.0
C984 C 0.34277 0.24959 0.28133 0.0
C985 C 0.34075 0.24915 0.24579 0.0
C986 C 0.3159 0.23284 0.25217 0.0
H987 H 0.35002 0.25559 0.22999 0.0
H988 H 0.30534 0.22627 0.24117 0.0
H989 H 0.32716 0.22456 0.12161 0.0
H990 H 0.32006 0.25993 0.13141 0.0
C991 C 0.35844 0.26482 0.16193 0.0
C992 C 0.31857 0.26804 0.20978 0.0
C993 C 0.33332 0.21361 0.18532 0.0
C994 C 0.29122 0.21871 0.17263 0.0
H995 H 0.3441 0.2959 0.20027 0.0
H996 H 0.36575 0.29434 0.17094 0.0
H997 H 0.37714 0.25302 0.15416 0.0
H998 H 0.36361 0.22527 0.17032 0.0
H999 H 0.30679 0.18641 0.17994 0.0
H1000 H 0.28385 0.18915 0.16966 0.0
H1001 H 0.27282 0.23049 0.1846 0.0
H1002 H 0.28784 0.25723 0.20825 0.0
H1003 H 0.32876 0.22718 0.05962 0.0
H1004 H 0.32184 0.2633 0.06888 0.0
H1005 H 0.30802 0.22678 0.30391 0.0
H1006 H 0.35354 0.25611 0.29144 0.0
C1007 C 0.73719 0.06264 0.19845 0.0
C1008 C 0.7232 0.05998 0.19535 0.0
C1009 C 0.72405 0.07191 0.17991 0.0
C1010 C 0.73848 0.08117 0.17442 0.0
N1011 N 0.74667 0.07576 0.18553 0.0
Co1012 Co 0.76795 0.08551 0.18331 0.0
N1013 N 0.76978 0.1047 0.17751 0.0
C1014 C 0.75918 0.10712 0.16726 0.0
C1015 C 0.76361 0.12151 0.1652 0.0
C1016 C 0.77788 0.12853 0.17435 0.0
C1017 C 0.78143 0.118 0.18135 0.0
N1018 N 0.78923 0.0951 0.1814 0.0
C1019 C 0.79926 0.10915 0.18532 0.0
C1020 C 0.81302 0.11122 0.18082 0.0
C1021 C 0.81147 0.09801 0.17367 0.0
C1022 C 0.79691 0.08863 0.17411 0.0
N1023 N 0.76615 0.06634 0.18853 0.0
C1024 C 0.77618 0.06285 0.18008 0.0
C1025 C 0.77186 0.04871 0.18679 0.0
C1026 C 0.75827 0.04298 0.20022 0.0
C1027 C 0.75505 0.054 0.20088 0.0
N1028 N 0.76697 0.08327 0.1329 0.0
C1029 C 0.76345 0.08186 0.06091 0.0
C1030 C 0.7747 0.094 0.07676 0.0
C1031 C 0.77625 0.0945 0.11255 0.0
C1032 C 0.7543 0.07018 0.08189 0.0
C1033 C 0.75634 0.07104 0.11773 0.0
N1034 N 0.76873 0.08793 0.2334 0.0
C1035 C 0.77694 0.08565 0.28959 0.0
C1036 C 0.76893 0.09122 0.30515 0.0
C1037 C 0.76087 0.09508 0.28396 0.0
C1038 C 0.76086 0.0933 0.24841 0.0
C1039 C 0.77678 0.0842 0.25362 0.0
H1040 H 0.75432 0.09616 0.23308 0.0
H1041 H 0.7831 0.08001 0.24214 0.0
H1042 H 0.78471 0.10425 0.12376 0.0
H1043 H 0.74905 0.06196 0.13324 0.0
C1044 C 0.74489 0.09574 0.16525 0.0
C1045 C 0.74119 0.05229 0.21171 0.0
C1046 C 0.7961 0.12092 0.18919 0.0
C1047 C 0.79026 0.07363 0.17261 0.0
H1048 H 0.71345 0.05043 0.20339 0.0
H1049 H 0.71525 0.07385 0.17476 0.0
H1050 H 0.75713 0.12634 0.15896 0.0
H1051 H 0.78487 0.14006 0.17549 0.0
H1052 H 0.82312 0.12125 0.18182 0.0
H1053 H 0.81996 0.09553 0.16943 0.0
H1054 H 0.7781 0.04337 0.18391 0.0
H1055 H 0.75154 0.03199 0.20867 0.0
H1056 H 0.78198 0.10334 0.06176 0.0
H1057 H 0.7456 0.06048 0.07075 0.0
H1058 H 0.78337 0.08258 0.30504 0.0
H1059 H 0.75433 0.09919 0.29483 0.0
C1060 C 0.94701 0.6753 0.20456 0.0
C1061 C 0.9491 0.66375 0.21064 0.0
C1062 C 0.93629 0.65159 0.20392 0.0
C1063 C 0.92712 0.65638 0.19422 0.0
N1064 N 0.93337 0.67088 0.19371 0.0
Co1065 Co 0.92352 0.68228 0.18431 0.0
N1066 N 0.90433 0.66444 0.17779 0.0
C1067 C 0.9018 0.65078 0.17665 0.0
C1068 C 0.88759 0.64076 0.17166 0.0
C1069 C 0.88063 0.64847 0.16952 0.0
C1070 C 0.89103 0.66283 0.17334 0.0
N1071 N 0.91361 0.69374 0.17712 0.0
C1072 C 0.89942 0.6894 0.17403 0.0
C1073 C 0.89719 0.70102 0.17058 0.0
C1074 C 0.91038 0.71311 0.17215 0.0
C1075 C 0.91988 0.70822 0.17639 0.0
N1076 N 0.94277 0.70014 0.18934 0.0
C1077 C 0.94572 0.7138 0.18438 0.0
C1078 C 0.95982 0.72391 0.19001 0.0
C1079 C 0.96629 0.71627 0.19938 0.0
C1080 C 0.95572 0.70185 0.19881 0.0
N1081 N 0.92687 0.68218 0.13365 0.0
C1082 C 0.92728 0.67966 0.06098 0.0
C1083 C 0.92889 0.69217 0.07649 0.0
C1084 C 0.9287 0.69321 0.11253 0.0
C1085 C 0.92628 0.66884 0.08271 0.0
C1086 C 0.92631 0.6704 0.11836 0.0
N1087 N 0.91996 0.68206 0.23438 0.0
C1088 C 0.92275 0.69416 0.28886 0.0
C1089 C 0.91565 0.68094 0.30608 0.0
C1090 C 0.9106 0.6684 0.28673 0.0
C1091 C 0.91288 0.6692 0.25139 0.0
C1092 C 0.92466 0.69447 0.25302 0.0
H1093 H 0.90899 0.6592 0.23848 0.0
H1094 H 0.93005 0.7048 0.24083 0.0
H1095 H 0.92985 0.70297 0.12258 0.0
H1096 H 0.92553 0.66166 0.13275 0.0
C1097 C 0.91262 0.64762 0.18521 0.0
C1098 C 0.95835 0.69028 0.20921 0.0
C1099 C 0.88771 0.67449 0.17399 0.0
C1100 C 0.93473 0.71691 0.17916 0.0
H1101 H 0.95886 0.66409 0.2192 0.0
H1102 H 0.93391 0.64057 0.20616 0.0
H1103 H 0.88277 0.62918 0.17112 0.0
H1104 H 0.86916 0.64401 0.16637 0.0
H1105 H 0.88707 0.7008 0.16725 0.0
H1106 H 0.91277 0.72415 0.17047 0.0
H1107 H 0.96467 0.73548 0.18905 0.0
H1108 H 0.97745 0.72089 0.20684 0.0
H1109 H 0.93018 0.70112 0.061 0.0
H1110 H 0.92495 0.65886 0.0725 0.0
H1111 H 0.92679 0.70416 0.30291 0.0
H1112 H 0.90528 0.65793 0.29893 0.0
C1113 C 0.6088 0.99748 1.00575 0.0
C1114 C 0.62286 0.00846 1.01027 0.0
C1115 C 0.62214 0.01951 0.02637 0.0
C1116 C 0.60771 0.01467 0.03081 0.0
N1117 N 0.5994 1.0013 0.01842 0.0
Co1118 Co 0.57806 0.99028 0.01889 0.0
N1119 N 0.57672 0.00787 0.02573 0.0
C1120 C 0.58741 0.02058 0.03729 0.0
C1121 C 0.58331 0.03079 0.03999 0.0
C1122 C 0.56915 0.02402 0.02989 0.0
C1123 C 0.56533 0.00996 0.02171 0.0
N1124 N 0.55674 0.97907 0.01901 0.0
C1125 C 0.54704 0.98353 0.01501 0.0
C1126 C 0.53309 0.97204 0.01803 0.0
C1127 C 0.53417 0.96007 0.02435 0.0
C1128 C 0.54865 0.96486 0.02492 0.0
N1129 N 0.57939 0.97267 1.01261 0.0
C1130 C 0.56899 0.95916 0.01966 0.0
C1131 C 0.57305 0.94915 1.01254 0.0
C1132 C 0.58686 0.95689 1.00031 0.0
C1133 C 0.59045 0.97123 1.00071 0.0
N1134 N 0.57827 0.98828 0.06922 0.0
C1135 C 0.58129 0.99037 0.14121 0.0
C1136 C 0.57005 0.99111 0.12495 0.0
C1137 C 0.56878 0.99013 0.08911 0.0
C1138 C 0.59058 0.98782 0.12081 0.0
C1139 C 0.58874 0.98657 0.08493 0.0
N1140 N 0.57806 0.99271 0.96894 0.0
C1141 C 0.56994 0.98338 0.91179 0.0
C1142 C 0.57884 0.99706 0.8975 0.0
C1143 C 0.58718 0.00844 0.91991 0.0
C1144 C 0.58665 0.00606 0.95525 0.0
C1145 C 0.56973 0.98143 0.9476 0.0
H1146 H 0.59326 0.01511 0.97152 0.0
H1147 H 0.56289 0.97083 0.95804 0.0
H1148 H 0.56044 0.99151 0.07752 0.0
H1149 H 0.59613 0.98476 0.0698 0.0
C1150 C 0.60153 0.02303 0.04018 0.0
C1151 C 0.60462 0.98325 0.99133 0.0
C1152 C 0.55064 0.99863 1.01264 0.0
C1153 C 0.55494 0.95615 0.02619 0.0
H1154 H 0.63258 0.00847 1.00272 0.0
H1155 H 0.63105 0.03004 0.03265 0.0
H1156 H 0.58994 0.04195 0.04734 0.0
H1157 H 0.56241 0.02885 0.02894 0.0
H1158 H 0.52315 0.97231 0.01666 0.0
H1159 H 0.52543 0.94914 0.02744 0.0
H1160 H 0.56652 0.93757 0.01437 0.0
H1161 H 0.59348 0.95247 0.99195 0.0
H1162 H 0.56264 0.9931 0.13969 0.0
H1163 H 0.59929 0.98695 0.13244 0.0
H1164 H 0.56336 0.97423 0.89547 0.0
H1165 H 0.59399 0.01925 0.91032 0.0
C1166 C 0.01146 0.61118 0.99897 0.0
C1167 C 1.00021 0.61399 1.00168 0.0
C1168 C 0.98892 0.60201 0.01644 0.0
C1169 C 0.99389 0.5926 0.02194 0.0
N1170 N 0.00757 0.59794 1.0115 0.0
Co1171 Co 0.01888 0.58793 0.01387 0.0
N1172 N 1.00131 0.5688 0.01869 0.0
C1173 C 0.98826 0.5665 0.02829 0.0
C1174 C 0.97817 0.55215 0.03006 0.0
C1175 C 0.98537 0.54502 0.02149 0.0
C1176 C 0.99955 0.55544 0.01511 0.0
N1177 N 0.03036 0.57811 0.01588 0.0
C1178 C 0.02621 0.56402 1.012 0.0
C1179 C 0.03781 0.56181 0.01661 0.0
C1180 C 0.04952 0.57494 0.0239 0.0
C1181 C 0.04448 0.58442 0.0234 0.0
N1182 N 0.03641 0.60706 1.00966 0.0
C1183 C 0.04984 0.61034 0.01844 0.0
C1184 C 0.05982 0.62449 1.01234 0.0
C1185 C 0.05217 0.63045 0.99892 0.0
C1186 C 0.03789 0.61955 0.99765 0.0
N1187 N 0.01971 0.58979 0.06439 0.0
C1188 C 0.01578 0.59011 0.13606 0.0
C1189 C 0.01543 0.57827 0.11983 0.0
C1190 C 0.01739 0.57831 0.08426 0.0
C1191 C 0.01914 0.60222 0.11576 0.0
C1192 C 0.02115 0.60187 0.08007 0.0
N1193 N 0.01762 0.58586 0.96365 0.0
C1194 C 0.02846 0.58826 0.90781 0.0
C1195 C 0.015 0.58283 0.89177 0.0
C1196 C 1.00297 0.57904 0.91253 0.0
C1197 C 1.00451 0.5807 0.94814 0.0
C1198 C 0.02952 0.58958 0.94385 0.0
H1199 H 0.99502 0.57787 0.96311 0.0
H1200 H 0.03993 0.59364 0.9557 0.0
H1201 H 0.01642 0.56874 0.07277 0.0
H1202 H 0.02328 0.61116 0.06496 0.0
C1203 C 0.98551 0.57798 0.03042 0.0
C1204 C 0.02593 0.62149 0.98642 0.0
C1205 C 0.01124 0.55231 1.00845 0.0
C1206 C 0.05293 0.5994 0.0255 0.0
H1207 H 1.00019 0.62364 0.99381 0.0
H1208 H 0.97818 0.60017 0.02111 0.0
H1209 H 0.96683 0.54743 0.03589 0.0
H1210 H 0.98073 0.53347 0.02043 0.0
H1211 H 0.03777 0.55172 0.01574 0.0
H1212 H 0.06044 0.5773 0.02841 0.0
H1213 H 0.07137 0.62968 0.01556 0.0
H1214 H 0.0566 0.6415 0.99083 0.0
H1215 H 0.01336 0.56882 0.13437 0.0
H1216 H 0.01962 0.61168 0.127 0.0
H1217 H 0.03804 0.59129 0.8927 0.0
H1218 H 0.99241 0.57505 0.90128 0.0
C1219 C 0.39742 0.40108 1.00245 0.0
C1220 C 0.39458 0.38703 1.0054 0.0
C1221 C 0.40644 0.3877 0.02084 0.0
C1222 C 0.41583 0.40208 0.02648 0.0
N1223 N 0.41058 0.41042 0.01547 0.0
Co1224 Co 0.42058 0.43169 0.01799 0.0
N1225 N 0.43966 0.43324 0.02391 0.0
C1226 C 0.44189 0.42253 0.03407 0.0
C1227 C 0.45625 0.42678 0.03644 0.0
C1228 C 0.46345 0.44108 0.0276 0.0
C1229 C 0.45305 0.4448 0.02043 0.0
N1230 N 0.4304 0.45297 0.02016 0.0
C1231 C 0.44451 0.46287 0.01648 0.0
C1232 C 0.44676 0.47668 0.02101 0.0
C1233 C 0.43361 0.4753 0.02799 0.0
C1234 C 0.42408 0.46079 0.0274 0.0
N1235 N 0.4015 0.43016 1.01267 0.0
C1236 C 0.39818 0.44031 0.02111 0.0
C1237 C 0.38408 0.43619 0.01426 0.0
C1238 C 0.3782 0.4226 1.00076 0.0
C1239 C 0.38908 0.41918 1.00022 0.0
N1240 N 0.41827 0.43063 0.06841 0.0
C1241 C 0.41677 0.42701 0.14039 0.0
C1242 C 0.42897 0.43824 0.12467 0.0
C1243 C 0.42952 0.43983 0.08889 0.0
C1244 C 0.4051 0.41794 0.1193 0.0
C1245 C 0.40599 0.42003 0.08347 0.0
N1246 N 0.42307 0.43254 0.96789 0.0
C1247 C 0.421 0.44096 0.91178 0.0
C1248 C 0.4264 0.43282 0.8961 0.0
C1249 C 0.43009 0.42461 0.91722 0.0
C1250 C 0.42829 0.42456 0.95279 0.0
C1251 C 0.41952 0.44075 0.94776 0.0
H1252 H 0.43102 0.41791 0.96805 0.0
H1253 H 0.41545 0.44716 0.9593 0.0
H1254 H 0.4393 0.44826 0.07779 0.0
H1255 H 0.39689 0.41282 0.06787 0.0
C1256 C 0.43039 0.4083 0.03582 0.0
C1257 C 0.38717 0.40524 0.98933 0.0
C1258 C 0.45617 0.45953 1.01278 0.0
C1259 C 0.40908 0.4543 0.02871 0.0
H1260 H 0.38496 0.37737 0.99729 0.0
H1261 H 0.40823 0.37881 0.02592 0.0
H1262 H 0.46095 0.42019 0.04273 0.0
H1263 H 0.475 0.44797 0.02677 0.0
H1264 H 0.45688 0.4867 0.02016 0.0
H1265 H 0.43124 0.48387 0.03221 0.0
H1266 H 0.37888 0.44256 0.01709 0.0
H1267 H 0.3672 0.41602 0.99218 0.0
H1268 H 0.43831 0.44547 0.13978 0.0
H1269 H 0.39536 0.40924 0.13035 0.0
H1270 H 0.41808 0.44752 0.89644 0.0
H1271 H 0.43405 0.41796 0.90629 0.0
C1272 C 0.70389 0.75138 0.828 0.0
C1273 C 0.71831 0.75518 0.82711 0.0
C1274 C 0.72602 0.76926 0.83667 0.0
C1275 C 0.71596 0.77329 0.84274 0.0
N1276 N 0.70226 0.76262 0.83786 0.0
Co1277 Co 0.68443 0.76406 0.84355 0.0
N1278 N 0.69597 0.7854 0.85069 0.0
C1279 C 0.71046 0.79359 0.85115 0.0
C1280 C 0.71539 0.80798 0.85522 0.0
C1281 C 0.70331 0.80911 0.85691 0.0
C1282 C 0.69166 0.79527 0.85373 0.0
N1283 N 0.66664 0.76545 0.85078 0.0
C1284 C 0.66508 0.77716 0.85519 0.0
C1285 C 0.65076 0.77324 0.85966 0.0
C1286 C 0.64301 0.75857 0.85793 0.0
C1287 C 0.65299 0.75434 0.85253 0.0
N1288 N 0.67295 0.74283 0.83409 0.0
C1289 C 0.65844 0.73461 0.83407 0.0
C1290 C 0.65357 0.72066 0.82419 0.0
C1291 C 0.66568 0.71999 0.81683 0.0
C1292 C 0.6773 0.73361 0.82276 0.0
N1293 N 0.68458 0.76062 0.89415 0.0
C1294 C 0.68221 0.75788 0.96683 0.0
C1295 C 0.67148 0.74784 0.94525 0.0
C1296 C 0.67297 0.74927 0.90958 0.0
C1297 C 0.6946 0.76887 0.9512 0.0
C1298 C 0.69558 0.77001 0.91516 0.0
N1299 N 0.68397 0.76738 0.7936 0.0
C1300 C 0.67005 0.76307 0.74169 0.0
C1301 C 0.68251 0.77054 0.72204 0.0
C1302 C 0.69581 0.77665 0.73893 0.0
C1303 C 0.6963 0.77507 0.7747 0.0
C1304 C 0.67101 0.76161 0.77697 0.0
H1305 H 0.70669 0.77998 0.78664 0.0
H1306 H 0.66107 0.75552 0.79015 0.0
H1307 H 0.66431 0.74115 0.8953 0.0
H1308 H 0.70525 0.77869 0.90503 0.0
C1309 C 0.71913 0.78739 0.84814 0.0
C1310 C 0.69225 0.73722 0.81755 0.0
C1311 C 0.67676 0.79211 0.85384 0.0
C1312 C 0.64976 0.74037 0.8438 0.0
H1313 H 0.72288 0.74864 0.8193 0.0
H1314 H 0.73761 0.77595 0.83745 0.0
H1315 H 0.72645 0.81661 0.85663 0.0
H1316 H 0.7031 0.81902 0.86008 0.0
H1317 H 0.64633 0.78027 0.86295 0.0
H1318 H 0.63143 0.75183 0.85892 0.0
H1319 H 0.64253 0.71204 0.82228 0.0
H1320 H 0.66596 0.71057 0.80799 0.0
H1321 H 0.66162 0.73908 0.95559 0.0
H1322 H 0.7035 0.77669 0.96659 0.0
H1323 H 0.65951 0.75793 0.72975 0.0
H1324 H 0.70576 0.78261 0.72466 0.0
C1325 C 0.25617 0.95342 0.8248 0.0
C1326 C 0.25269 0.96425 0.82516 0.0
C1327 C 0.23905 0.95832 0.83841 0.0
C1328 C 0.23498 0.94426 0.8453 0.0
N1329 N 0.24519 0.94099 0.83717 0.0
Co1330 Co 0.24373 0.92195 0.84265 0.0
N1331 N 0.22241 0.91203 0.84458 0.0
C1332 C 0.21453 0.91834 0.85133 0.0
C1333 C 0.20003 0.9088 0.85203 0.0
C1334 C 0.19869 0.89564 0.84572 0.0
C1335 C 0.21253 0.89788 0.84145 0.0
N1336 N 0.24228 0.90292 0.84876 0.0
C1337 C 0.23074 0.88949 0.84582 0.0
C1338 C 0.23458 0.87919 0.85305 0.0
C1339 C 0.24892 0.88648 0.86152 0.0
C1340 C 0.25309 0.90079 0.85884 0.0
N1341 N 0.26505 0.93204 0.84034 0.0
C1342 C 0.27344 0.92687 0.85139 0.0
C1343 C 0.28782 0.9363 0.84581 0.0
C1344 C 0.28844 0.94812 0.83036 0.0
C1345 C 0.27436 0.94521 0.82734 0.0
N1346 N 0.2447 0.92428 0.89306 0.0
C1347 C 0.24825 0.92572 0.96506 0.0
C1348 C 0.25732 0.93743 0.94407 0.0
C1349 C 0.25526 0.93655 0.90822 0.0
C1350 C 0.23705 0.91354 0.94924 0.0
C1351 C 0.23549 0.91302 0.91346 0.0
N1352 N 0.24297 0.91944 0.79255 0.0
C1353 C 0.25102 0.91243 0.74207 0.0
C1354 C 0.24286 0.91613 0.72078 0.0
C1355 C 0.23471 0.92155 0.73625 0.0
C1356 C 0.23482 0.92301 0.77223 0.0
C1357 C 0.25098 0.91422 0.77762 0.0
H1358 H 0.22838 0.92709 0.78362 0.0
H1359 H 0.25761 0.9115 0.793 0.0
H1360 H 0.26248 0.94566 0.89268 0.0
H1361 H 0.22708 0.90323 0.90234 0.0
C1362 C 0.22097 0.93333 0.85259 0.0
C1363 C 0.27015 0.95539 0.81408 0.0
C1364 C 0.21588 0.8862 0.839 0.0
C1365 C 0.26728 0.91234 0.86063 0.0
H1366 H 0.25926 0.97525 0.8166 0.0
H1367 H 0.23263 0.96347 0.84102 0.0
H1368 H 0.19143 0.91115 0.85608 0.0
H1369 H 0.18867 0.88551 0.8453 0.0
H1370 H 0.22772 0.86763 0.85264 0.0
H1371 H 0.25558 0.88187 0.86789 0.0
H1372 H 0.29675 0.93455 0.85092 0.0
H1373 H 0.29809 0.95775 0.82225 0.0
H1374 H 0.26598 0.94716 0.9552 0.0
H1375 H 0.22983 0.90417 0.96425 0.0
H1376 H 0.25767 0.90843 0.73128 0.0
H1377 H 0.2282 0.92451 0.72074 0.0
C1378 C 0.05585 0.30433 0.83144 0.0
C1379 C 0.04498 0.29006 0.83266 0.0
C1380 C 0.05101 0.28243 0.84588 0.0
C1381 C 0.06516 0.29243 0.8519 0.0
N1382 N 0.06839 0.30584 0.84327 0.0
Co1383 Co 0.0875 0.3234 0.84736 0.0
N1384 N 0.09739 0.31197 0.84887 0.0
C1385 C 0.09113 0.29785 0.85627 0.0
C1386 C 0.10066 0.29286 0.85637 0.0
C1387 C 0.11376 0.30459 0.84895 0.0
C1388 C 0.11148 0.31615 0.84468 0.0
N1389 N 0.10663 0.34097 0.8521 0.0
C1390 C 0.12001 0.34278 0.84831 0.0
C1391 C 0.13042 0.35694 0.85492 0.0
C1392 C 0.12326 0.36408 0.86381 0.0
C1393 C 0.1089 0.35398 0.86201 0.0
N1394 N 0.07743 0.33463 0.84543 0.0
C1395 C 0.08274 0.34828 0.85605 0.0
C1396 C 0.07328 0.35321 0.85075 0.0
C1397 C 0.0613 0.34193 0.83592 0.0
C1398 C 0.06416 0.33073 0.83297 0.0
N1399 N 0.08582 0.32252 0.89795 0.0
C1400 C 0.08604 0.32682 0.96962 0.0
C1401 C 0.0738 0.32345 0.94976 0.0
C1402 C 0.07388 0.32125 0.91405 0.0
C1403 C 0.09769 0.32691 0.953 0.0
C1404 C 0.09738 0.32479 0.91747 0.0
N1405 N 0.08945 0.32473 0.79709 0.0
C1406 C 0.09632 0.33951 0.74621 0.0
C1407 C 0.09265 0.32757 0.72524 0.0
C1408 C 0.08719 0.31408 0.74104 0.0
C1409 C 0.08578 0.3129 0.77707 0.0
C1410 C 0.09458 0.33786 0.7818 0.0
H1411 H 0.08175 0.30247 0.78875 0.0
H1412 H 0.09736 0.3473 0.79692 0.0
H1413 H 0.06451 0.31915 0.89925 0.0
H1414 H 0.10685 0.32564 0.90569 0.0
C1415 C 0.07615 0.28937 0.85861 0.0
C1416 C 0.05386 0.31627 0.82029 0.0
C1417 C 0.12315 0.33114 0.84119 0.0
C1418 C 0.09739 0.35668 0.86443 0.0
H1419 H 0.0339 0.2856 0.82463 0.0
H1420 H 0.04585 0.27089 0.84897 0.0
H1421 H 0.09834 0.28195 0.86071 0.0
H1422 H 0.12387 0.30466 0.84779 0.0
H1423 H 0.14198 0.36159 0.85381 0.0
H1424 H 0.12798 0.37539 0.86989 0.0
H1425 H 0.0751 0.36392 0.85557 0.0
H1426 H 0.05161 0.34192 0.82816 0.0
H1427 H 0.06447 0.32314 0.96132 0.0
H1428 H 0.10721 0.32895 0.9672 0.0
H1429 H 0.10031 0.3501 0.73517 0.0
H1430 H 0.08423 0.30455 0.72576 0.0
C1431 C 0.42216 0.03612 0.02396 0.0
C1432 C 0.4255 0.05038 0.02325 0.0
C1433 C 0.43915 0.05813 1.01003 0.0
C1434 C 0.44336 0.0482 1.00348 0.0
N1435 N 0.43322 0.03473 1.0118 0.0
Co1436 Co 0.43484 0.01725 1.00672 0.0
N1437 N 0.45613 0.02874 1.00518 0.0
C1438 C 0.46395 0.04288 0.99804 0.0
C1439 C 0.47848 0.0479 0.99785 0.0
C1440 C 0.47988 0.03616 1.005 0.0
C1441 C 0.46606 0.02457 1.00921 0.0
N1442 N 0.43648 0.99976 1.00106 0.0
C1443 C 0.44805 0.99797 1.00494 0.0
C1444 C 0.4444 0.98387 0.99784 0.0
C1445 C 0.43013 0.97674 0.98862 0.0
C1446 C 0.42582 0.98681 0.99071 0.0
N1447 N 0.41354 0.00593 1.0086 0.0
C1448 C 0.40528 0.99235 0.99744 0.0
C1449 C 0.39086 0.98734 1.0027 0.0
C1450 C 0.39009 0.9985 0.01805 0.0
C1451 C 0.40412 0.00971 0.02131 0.0
N1452 N 0.43404 0.01851 0.95625 0.0
C1453 C 0.43086 0.01647 0.88414 0.0
C1454 C 0.42162 0.01901 0.90482 0.0
C1455 C 0.4235 0.02016 0.94073 0.0
C1456 C 0.44201 0.0155 0.90035 0.0
C1457 C 0.44338 0.0165 0.93617 0.0
N1458 N 0.43546 0.0156 0.05687 0.0
C1459 C 0.42737 1.00063 0.10743 0.0
C1460 C 0.4355 0.01252 0.12868 0.0
C1461 C 0.44365 0.02605 0.11314 0.0
C1462 C 0.44357 0.02734 0.07715 0.0
C1463 C 0.42744 1.0024 0.07185 0.0
H1464 H 0.45 0.03782 0.06571 0.0
H1465 H 0.42086 0.99302 0.05648 0.0
H1466 H 0.41616 0.022 0.95602 0.0
H1467 H 0.45176 0.01516 0.94762 0.0
C1468 C 0.45742 0.05135 0.99633 0.0
C1469 C 0.40822 0.02408 0.03464 0.0
C1470 C 0.46275 0.0096 1.01284 0.0
C1471 C 0.41158 0.98406 0.98847 0.0
H1472 H 0.41882 0.05474 0.03151 0.0
H1473 H 0.44547 0.06968 1.0072 0.0
H1474 H 0.48705 0.05883 0.99375 0.0
H1475 H 0.48993 0.0361 1.00613 0.0
H1476 H 0.45132 0.97924 0.99895 0.0
H1477 H 0.42359 0.96546 0.98225 0.0
H1478 H 0.38201 0.97665 0.99749 0.0
H1479 H 0.38037 0.9984 0.02594 0.0
H1480 H 0.41298 0.02005 0.89339 0.0
H1481 H 0.44935 0.01343 0.88558 0.0
H1482 H 0.42071 0.99002 0.11826 0.0
H1483 H 0.45015 0.03554 0.12859 0.0
C1484 C 0.97548 0.38684 0.02892 0.0
C1485 C 0.96126 0.37582 0.02783 0.0
C1486 C 0.95345 0.3816 0.0144 0.0
C1487 C 0.96329 0.39578 1.00813 0.0
N1488 N 0.97677 0.39924 0.01678 0.0
Co1489 Co 0.99415 0.41846 1.01241 0.0
N1490 N 0.98245 0.42806 1.01054 0.0
C1491 C 0.96831 0.42159 1.00313 0.0
C1492 C 0.96311 0.43094 1.00255 0.0
C1493 C 0.97473 0.44415 1.00966 0.0
C1494 C 0.98645 0.44212 0.01424 0.0
N1495 N 0.01157 0.43769 1.00745 0.0
C1496 C 0.01318 0.451 1.01087 0.0
C1497 C 0.0273 0.46152 1.00427 0.0
C1498 C 0.03462 0.45452 0.99571 0.0
C1499 C 0.02466 0.44013 0.9977 0.0
N1500 N 1.00567 0.40867 0.01464 0.0
C1501 C 0.01934 0.41414 1.00407 0.0
C1502 C 0.0245 0.40487 1.00968 0.0
C1503 C 0.01332 0.39287 0.02465 0.0
C1504 C 1.00197 0.39551 0.02736 0.0
N1505 N 0.99326 0.41659 0.96189 0.0
C1506 C 0.99738 0.41653 0.89029 0.0
C1507 C 0.99412 0.40439 0.91037 0.0
C1508 C 0.99202 0.40462 0.94608 0.0
C1509 C 0.99747 0.42822 0.90662 0.0
C1510 C 0.99542 0.42805 0.94214 0.0
N1511 N 0.99547 0.42055 0.06263 0.0
C1512 C 0.01017 0.42715 0.11362 0.0
C1513 C 0.99816 0.42312 0.1347 0.0
C1514 C 0.98471 0.41798 0.11866 0.0
C1515 C 0.98361 0.4168 0.08259 0.0
C1516 C 0.0086 0.42571 0.07799 0.0
H1517 H 0.97318 0.41274 0.07084 0.0
H1518 H 0.0181 0.42876 0.06288 0.0
H1519 H 0.99002 0.39535 0.9611 0.0
H1520 H 0.99622 0.43753 0.95369 0.0
C1521 C 0.96 0.40659 1.0011 0.0
C1522 C 0.98757 0.38512 0.0402 0.0
C1523 C 1.00137 0.45397 0.01748 0.0
C1524 C 0.02757 0.42876 0.99553 0.0
H1525 H 0.95697 0.3648 0.03607 0.0
H1526 H 0.94189 0.37628 1.01133 0.0
H1527 H 0.95215 0.42844 0.99805 0.0
H1528 H 0.97464 0.45418 1.01036 0.0
H1529 H 0.0318 0.47306 1.00513 0.0
H1530 H 0.04595 0.45935 0.98969 0.0
H1531 H 0.03528 0.40685 1.00499 0.0
H1532 H 0.0135 0.38331 0.0327 0.0
H1533 H 0.99381 0.39504 0.89895 0.0
H1534 H 0.99947 0.43766 0.89219 0.0
H1535 H 0.02085 0.43151 0.12447 0.0
H1536 H 0.97508 0.41466 0.13378 0.0
C1537 C 0.62208 0.58777 0.02439 0.0
C1538 C 0.63293 0.58431 0.02449 0.0
C1539 C 0.62698 0.57055 1.01203 0.0
C1540 C 0.61288 0.56639 1.00508 0.0
N1541 N 0.60962 0.57667 1.01243 0.0
Co1542 Co 0.59059 0.57517 1.00651 0.0
N1543 N 0.58066 0.55387 1.00616 0.0
C1544 C 0.58692 0.5459 0.99998 0.0
C1545 C 0.57735 0.5314 1.00043 0.0
C1546 C 0.56423 0.53018 1.00697 0.0
C1547 C 0.56654 0.54407 1.01021 0.0
N1548 N 0.57155 0.57365 0.99999 0.0
C1549 C 0.55813 0.56218 1.00397 0.0
C1550 C 0.54779 0.5659 0.99605 0.0
C1551 C 0.55505 0.58008 0.98616 0.0
C1552 C 0.56939 0.58428 0.98871 0.0
N1553 N 0.60071 0.59649 1.00726 0.0
C1554 C 0.59553 0.60473 0.9952 0.0
C1555 C 0.60498 0.61916 0.99994 0.0
C1556 C 0.61682 0.61995 0.0159 0.0
C1557 C 0.6139 0.60593 0.02005 0.0
N1558 N 0.59274 0.57547 0.95613 0.0
C1559 C 0.59358 0.57836 0.88412 0.0
C1560 C 0.60535 0.58782 0.90443 0.0
C1561 C 0.60481 0.58604 0.94033 0.0
C1562 C 0.5817 0.56707 0.90048 0.0
C1563 C 0.58144 0.56587 0.93632 0.0
N1564 N 0.5882 0.57506 0.05649 0.0
C1565 C 0.58142 0.58392 0.10584 0.0
C1566 C 0.58463 0.57564 0.12801 0.0
C1567 C 0.58959 0.56692 0.11343 0.0
C1568 C 0.59132 0.5668 0.0776 0.0
C1569 C 0.58329 0.5835 0.07046 0.0
H1570 H 0.5952 0.56009 0.06693 0.0
H1571 H 0.58072 0.59006 0.05438 0.0
H1572 H 0.61397 0.59353 0.95539 0.0
H1573 H 0.57179 0.55747 0.94796 0.0
C1574 C 0.60192 0.55231 0.9985 0.0
C1575 C 0.62405 0.60183 0.03422 0.0
C1576 C 0.55492 0.54752 1.0128 0.0
C1577 C 0.58096 0.59845 0.98596 0.0
H1578 H 0.64395 0.59099 0.03283 0.0
H1579 H 0.63214 0.56412 1.00997 0.0
H1580 H 0.57965 0.52275 0.99712 0.0
H1581 H 0.55409 0.5202 1.0083 0.0
H1582 H 0.53623 0.55908 0.99705 0.0
H1583 H 0.55041 0.58663 0.97904 0.0
H1584 H 0.60324 0.62802 0.99398 0.0
H1585 H 0.62645 0.62969 0.02362 0.0
H1586 H 0.61484 0.59659 0.8927 0.0
H1587 H 0.57235 0.55954 0.88579 0.0
H1588 H 0.57728 0.59059 0.11564 0.0
H1589 H 0.59231 0.56039 0.12955 0.0
C1590 C 1.00103 0.60721 0.52725 0.0
C1591 C 0.01222 0.62121 0.52354 0.0
C1592 C 0.02324 0.62039 0.50752 0.0
C1593 C 0.01817 0.60597 0.50234 0.0
N1594 N 1.00469 0.59775 0.51415 0.0
Co1595 Co 0.99337 0.57645 0.51299 0.0
N1596 N 0.01083 0.57481 0.50652 0.0
C1597 C 0.02369 0.58542 0.49556 0.0
C1598 C 0.03375 0.58112 0.49287 0.0
C1599 C 0.02671 0.5669 0.5023 0.0
C1600 C 0.01266 0.56325 0.5101 0.0
N1601 N 0.98186 0.55516 0.51218 0.0
C1602 C 0.98607 0.54525 0.51582 0.0
C1603 C 0.97441 0.53142 0.51227 0.0
C1604 C 0.9626 0.5328 0.50591 0.0
C1605 C 0.96763 0.54732 0.50586 0.0
N1606 N 0.97592 0.5781 0.51887 0.0
C1607 C 0.96237 0.56795 0.51123 0.0
C1608 C 0.95252 0.57222 0.51831 0.0
C1609 C 0.9604 0.58591 0.53119 0.0
C1610 C 0.97466 0.5892 0.53124 0.0
N1611 N 0.99165 0.57695 0.46259 0.0
C1612 C 0.99323 0.57978 0.39042 0.0
C1613 C 0.99423 0.56868 0.4067 0.0
C1614 C 0.99345 0.56748 0.44255 0.0
C1615 C 0.99086 0.58914 0.41107 0.0
C1616 C 0.98993 0.58743 0.44703 0.0
N1617 N 0.99547 0.57616 0.56305 0.0
C1618 C 0.98553 0.56844 0.61992 0.0
C1619 C 0.99915 0.57703 0.63487 0.0
C1620 C 0.01084 0.58493 0.61286 0.0
C1621 C 0.00878 0.58439 0.57734 0.0
C1622 C 0.98393 0.56814 0.58396 0.0
H1623 H 0.01803 0.59077 0.56143 0.0
H1624 H 0.97335 0.56155 0.57307 0.0
H1625 H 0.99485 0.55913 0.45401 0.0
H1626 H 0.98822 0.59486 0.4623 0.0
C1627 C 0.0264 0.59963 0.49308 0.0
C1628 C 0.98681 0.60311 0.54159 0.0
C1629 C 1.00109 0.54855 0.5182 0.0
C1630 C 0.95915 0.55385 0.50443 0.0
H1631 H 0.0124 0.63095 0.53166 0.0
H1632 H 0.03389 0.62922 0.50189 0.0
H1633 H 0.04497 0.58764 0.48589 0.0
H1634 H 0.03136 0.55999 0.50301 0.0
H1635 H 0.97447 0.52139 0.51324 0.0
H1636 H 0.95162 0.52422 0.50236 0.0
H1637 H 0.94093 0.56589 0.51608 0.0
H1638 H 0.95615 0.59265 0.53973 0.0
H1639 H 0.99617 0.56125 0.39194 0.0
H1640 H 0.98981 0.59776 0.39957 0.0
H1641 H 0.97613 0.56219 0.6358 0.0
H1642 H 0.02163 0.59146 0.62288 0.0
C1643 C 0.40277 0.39515 0.53138 0.0
C1644 C 0.38872 0.39232 0.52838 0.0
C1645 C 0.38943 0.40431 0.51368 0.0
C1646 C 0.40383 0.41375 0.50849 0.0
N1647 N 0.41216 0.40843 0.51908 0.0
Co1648 Co 0.43348 0.4185 0.51714 0.0
N1649 N 0.43502 0.43762 0.51227 0.0
C1650 C 0.42426 0.43989 0.50256 0.0
C1651 C 0.42845 0.45422 0.50085 0.0
C1652 C 0.44276 0.46139 0.50952 0.0
C1653 C 0.44658 0.45101 0.51586 0.0
N1654 N 0.45482 0.42839 0.51555 0.0
C1655 C 0.46474 0.4425 0.51927 0.0
C1656 C 0.47856 0.44472 0.51482 0.0
C1657 C 0.47718 0.43159 0.50783 0.0
C1658 C 0.46267 0.42209 0.5083 0.0
N1659 N 0.43194 0.39938 0.52143 0.0
C1660 C 0.44216 0.39615 0.51301 0.0
C1661 C 0.43804 0.38203 0.51916 0.0
C1662 C 0.42436 0.376 0.53222 0.0
C1663 C 0.4209 0.38685 0.53321 0.0
N1664 N 0.43266 0.4167 0.46657 0.0
C1665 C 0.42848 0.41668 0.39494 0.0
C1666 C 0.43997 0.42843 0.41138 0.0
C1667 C 0.44185 0.42824 0.4469 0.0
C1668 C 0.41973 0.40447 0.41495 0.0
C1669 C 0.42205 0.40468 0.45065 0.0
N1670 N 0.43407 0.4205 0.56738 0.0
C1671 C 0.44215 0.41798 0.62358 0.0
C1672 C 0.43364 0.42292 0.63947 0.0
C1673 C 0.42561 0.42684 0.61823 0.0
C1674 C 0.42592 0.42548 0.5826 0.0
C1675 C 0.44223 0.41687 0.5875 0.0
H1676 H 0.41942 0.42842 0.56739 0.0
H1677 H 0.44877 0.41297 0.57587 0.0
H1678 H 0.45043 0.43777 0.45854 0.0
H1679 H 0.41487 0.39533 0.46558 0.0
C1680 C 0.41006 0.42838 0.50018 0.0
C1681 C 0.40689 0.38479 0.54394 0.0
C1682 C 0.46146 0.45423 0.52226 0.0
C1683 C 0.45619 0.40712 0.50623 0.0
H1684 H 0.37903 0.38264 0.53602 0.0
H1685 H 0.38054 0.40614 0.50884 0.0
H1686 H 0.42181 0.45891 0.49495 0.0
H1687 H 0.44962 0.47294 0.51061 0.0
H1688 H 0.48861 0.45481 0.51551 0.0
H1689 H 0.48576 0.42923 0.50343 0.0
H1690 H 0.44446 0.37689 0.51622 0.0
H1691 H 0.41777 0.36494 0.54028 0.0
H1692 H 0.44734 0.43795 0.39703 0.0
H1693 H 0.41077 0.39507 0.4035 0.0
H1694 H 0.4485 0.41475 0.63883 0.0
H1695 H 0.41915 0.43106 0.62893 0.0
C1696 C 0.61314 0.00685 0.54021 0.0
C1697 C 0.61491 0.99514 0.54695 0.0
C1698 C 0.60195 0.98312 0.54053 0.0
C1699 C 0.59301 0.98814 0.53039 0.0
N1700 N 0.59956 1.00264 0.52925 0.0
Co1701 Co 0.5901 0.01437 0.51948 0.0
N1702 N 0.57068 0.99676 0.51361 0.0
C1703 C 0.56787 0.98301 0.51268 0.0
C1704 C 0.55359 0.9732 0.5078 0.0
C1705 C 0.5469 0.98116 0.50546 0.0
C1706 C 0.55751 0.99544 0.5091 0.0
N1707 N 0.58057 0.02617 0.51215 0.0
C1708 C 0.56645 0.02213 0.50935 0.0
C1709 C 0.56452 0.03393 0.50582 0.0
C1710 C 0.57786 0.04584 0.50692 0.0
C1711 C 0.58712 0.04066 0.51103 0.0
N1712 N 0.60958 0.03197 0.52359 0.0
C1713 C 0.61283 0.04568 0.51784 0.0
C1714 C 0.62705 0.05558 0.52285 0.0
C1715 C 0.63326 0.04776 0.53266 0.0
C1716 C 0.62243 0.03344 0.533 0.0
N1717 N 0.59315 0.01384 0.46867 0.0
C1718 C 0.59284 0.01054 0.39624 0.0
C1719 C 0.59465 0.02324 0.4109 0.0
C1720 C 0.59476 0.02465 0.44696 0.0
C1721 C 0.59219 1.00001 0.4183 0.0
C1722 C 0.59257 1.00194 0.4539 0.0
N1723 N 0.58686 0.01456 0.56975 0.0
C1724 C 0.59094 0.02701 0.62426 0.0
C1725 C 0.58337 0.01392 0.64185 0.0
C1726 C 0.57743 1.00126 0.62263 0.0
C1727 C 0.57933 1.00181 0.58711 0.0
C1728 C 0.5924 0.0271 0.58825 0.0
H1729 H 0.57479 0.9917 0.57435 0.0
H1730 H 0.59814 0.03736 0.5758 0.0
H1731 H 0.59586 0.03446 0.45654 0.0
H1732 H 0.59209 0.99343 0.46871 0.0
C1733 C 0.57848 0.9796 0.52147 0.0
C1734 C 0.6247 0.02175 0.54439 0.0
C1735 C 0.55452 0.00733 0.50945 0.0
C1736 C 0.60203 0.04909 0.51294 0.0
H1737 H 0.62456 0.99531 0.55574 0.0
H1738 H 0.59931 0.97204 0.54328 0.0
H1739 H 0.54855 0.96159 0.50744 0.0
H1740 H 0.53546 0.97692 0.50228 0.0
H1741 H 0.5545 0.03394 0.50264 0.0
H1742 H 0.58049 0.05694 0.5049 0.0
H1743 H 0.63214 0.06717 0.52131 0.0
H1744 H 0.64442 0.05221 0.5399 0.0
H1745 H 0.59542 0.03181 0.39471 0.0
H1746 H 0.59123 0.99017 0.40809 0.0
H1747 H 0.59566 0.03711 0.63816 0.0
H1748 H 0.57167 0.99086 0.63507 0.0
C1749 C 0.27475 0.33083 0.33495 0.0
C1750 C 0.28878 0.34199 0.33863 0.0
C1751 C 0.288 0.35318 0.35372 0.0
C1752 C 0.27356 0.34824 0.35842 0.0
N1753 N 0.2653 0.33468 0.34718 0.0
Co1754 Co 0.24398 0.32346 0.34829 0.0
N1755 N 0.24243 0.34102 0.35358 0.0
C1756 C 0.25309 0.35394 0.36412 0.0
C1757 C 0.24885 0.36405 0.36619 0.0
C1758 C 0.2346 0.35699 0.35682 0.0
C1759 C 0.23089 0.34288 0.34967 0.0
N1760 N 0.22265 0.31205 0.34905 0.0
C1761 C 0.21279 0.3163 0.34488 0.0
C1762 C 0.19892 0.30472 0.34854 0.0
C1763 C 0.20022 0.29292 0.35553 0.0
C1764 C 0.21473 0.29789 0.35581 0.0
N1765 N 0.24553 0.30591 0.34361 0.0
C1766 C 0.23527 0.29244 0.35155 0.0
C1767 C 0.23944 0.28246 0.34531 0.0
C1768 C 0.25319 0.29017 0.33269 0.0
C1769 C 0.25663 0.30446 0.33201 0.0
N1770 N 0.24448 0.3222 0.39884 0.0
C1771 C 0.24839 0.32621 0.47058 0.0
C1772 C 0.23691 0.32644 0.45397 0.0
C1773 C 0.23517 0.32445 0.41838 0.0
C1774 C 0.25723 0.3228 0.45067 0.0
C1775 C 0.25503 0.32074 0.41493 0.0
N1776 N 0.24373 0.32517 0.29807 0.0
C1777 C 0.23606 0.31492 0.24139 0.0
C1778 C 0.24474 0.32844 0.22606 0.0
C1779 C 0.25263 0.34023 0.24781 0.0
C1780 C 0.25203 0.33838 0.28339 0.0
C1781 C 0.23569 0.31352 0.27744 0.0
H1782 H 0.25842 0.34771 0.29903 0.0
H1783 H 0.22905 0.30303 0.28864 0.0
H1784 H 0.22662 0.32541 0.40658 0.0
H1785 H 0.26229 0.31863 0.40011 0.0
C1786 C 0.26728 0.35659 0.36693 0.0
C1787 C 0.27067 0.31646 0.32175 0.0
C1788 C 0.21614 0.33131 0.34195 0.0
C1789 C 0.22118 0.28936 0.35792 0.0
H1790 H 0.29852 0.34202 0.33119 0.0
H1791 H 0.29686 0.36384 0.35912 0.0
H1792 H 0.25541 0.37531 0.37278 0.0
H1793 H 0.22772 0.36166 0.35577 0.0
H1794 H 0.1889 0.30483 0.34724 0.0
H1795 H 0.19159 0.28199 0.35934 0.0
H1796 H 0.23302 0.27091 0.3479 0.0
H1797 H 0.25986 0.28575 0.32473 0.0
H1798 H 0.22946 0.32852 0.46821 0.0
H1799 H 0.26619 0.32238 0.46221 0.0
H1800 H 0.2298 0.30545 0.22572 0.0
H1801 H 0.25922 0.35095 0.23752 0.0
C1802 C 0.67845 0.94587 0.33683 0.0
C1803 C 0.66718 0.9486 0.34043 0.0
C1804 C 0.656 0.93652 0.35519 0.0
C1805 C 0.66106 0.92713 0.35981 0.0
N1806 N 0.67468 0.93258 0.34882 0.0
Co1807 Co 0.68607 0.92266 0.34973 0.0
N1808 N 0.66859 0.90347 0.35408 0.0
C1809 C 0.65558 0.90101 0.36452 0.0
C1810 C 0.64554 0.88662 0.36555 0.0
C1811 C 0.65275 0.87965 0.35554 0.0
C1812 C 0.66687 0.89019 0.34907 0.0
N1813 N 0.69763 0.91292 0.35033 0.0
C1814 C 0.69353 0.89892 0.34514 0.0
C1815 C 0.70515 0.89669 0.349 0.0
C1816 C 0.71683 0.90974 0.3571 0.0
C1817 C 0.71174 0.91919 0.3578 0.0
N1818 N 0.70353 0.94183 0.34592 0.0
C1819 C 0.717 0.94511 0.35429 0.0
C1820 C 0.72691 0.9593 0.34851 0.0
C1821 C 0.71917 0.96529 0.33576 0.0
C1822 C 0.70491 0.95436 0.33457 0.0
N1823 N 0.68708 0.92411 0.40035 0.0
C1824 C 0.68319 0.9238 0.47222 0.0
C1825 C 0.68288 0.91212 0.45517 0.0
C1826 C 0.68481 0.91248 0.41951 0.0
C1827 C 0.68651 0.93607 0.45259 0.0
C1828 C 0.6885 0.93603 0.41681 0.0
N1829 N 0.6846 0.92099 0.29944 0.0
C1830 C 0.69508 0.92364 0.24303 0.0
C1831 C 0.68159 0.91872 0.2274 0.0
C1832 C 0.66971 0.91483 0.24884 0.0
C1833 C 0.67144 0.91609 0.28445 0.0
C1834 C 0.69635 0.92468 0.2791 0.0
H1835 H 0.66202 0.91309 0.29987 0.0
H1836 H 0.70681 0.92854 0.29057 0.0
H1837 H 0.68385 0.90302 0.40736 0.0
H1838 H 0.69057 0.94544 0.40226 0.0
C1839 C 0.65277 0.91243 0.36779 0.0
C1840 C 0.69285 0.95627 0.32401 0.0
C1841 C 0.67858 0.88728 0.34069 0.0
C1842 C 0.72017 0.93416 0.36056 0.0
H1843 H 0.66708 0.95827 0.33313 0.0
H1844 H 0.64527 0.9346 0.36039 0.0
H1845 H 0.63423 0.88178 0.37173 0.0
H1846 H 0.64816 0.86812 0.35351 0.0
H1847 H 0.70515 0.88664 0.34699 0.0
H1848 H 0.72777 0.91209 0.36121 0.0
H1849 H 0.73847 0.96451 0.35146 0.0
H1850 H 0.72355 0.97638 0.32804 0.0
H1851 H 0.68085 0.90256 0.46913 0.0
H1852 H 0.68696 0.94542 0.46442 0.0
H1853 H 0.70461 0.92686 0.22759 0.0
H1854 H 0.65901 0.91065 0.23831 0.0
C1855 C 0.06522 0.73444 0.33391 0.0
C1856 C 0.06248 0.72043 0.33672 0.0
C1857 C 0.07433 0.72116 0.35239 0.0
C1858 C 0.08362 0.73554 0.35826 0.0
N1859 N 0.07833 0.74383 0.34717 0.0
Co1860 Co 0.0882 0.7651 0.34985 0.0
N1861 N 0.10732 0.76678 0.35624 0.0
C1862 C 0.1096 0.75609 0.36637 0.0
C1863 C 0.12396 0.76042 0.3691 0.0
C1864 C 0.13111 0.77475 0.36055 0.0
C1865 C 0.12069 0.77841 0.35321 0.0
N1866 N 0.09788 0.78637 0.35221 0.0
C1867 C 0.11199 0.79636 0.34906 0.0
C1868 C 0.1141 0.81012 0.35373 0.0
C1869 C 0.10086 0.80861 0.36026 0.0
C1870 C 0.09143 0.79408 0.35929 0.0
N1871 N 0.06909 0.76344 0.34405 0.0
C1872 C 0.06561 0.77347 0.35254 0.0
C1873 C 0.0515 0.76923 0.34555 0.0
C1874 C 0.04577 0.75568 0.33188 0.0
C1875 C 0.05677 0.75243 0.33129 0.0
N1876 N 0.08569 0.76395 0.40021 0.0
C1877 C 0.08394 0.76024 0.47215 0.0
C1878 C 0.09616 0.77153 0.45667 0.0
C1879 C 0.09683 0.77316 0.42091 0.0
C1880 C 0.07236 0.75115 0.45083 0.0
C1881 C 0.07338 0.75329 0.41501 0.0
N1882 N 0.09089 0.76605 0.29981 0.0
C1883 C 0.08887 0.77445 0.24362 0.0
C1884 C 0.09445 0.76644 0.22809 0.0
C1885 C 0.0982 0.75831 0.2493 0.0
C1886 C 0.09628 0.7582 0.28484 0.0
C1887 C 0.08729 0.7742 0.27957 0.0
H1888 H 0.09905 0.75159 0.30017 0.0
H1889 H 0.08308 0.78051 0.29101 0.0
H1890 H 0.10664 0.78165 0.41003 0.0
H1891 H 0.06436 0.74606 0.39922 0.0
C1892 C 0.09815 0.74183 0.36785 0.0
C1893 C 0.055 0.73857 0.32033 0.0
C1894 C 0.12376 0.79316 0.34595 0.0
C1895 C 0.07641 0.78749 0.36036 0.0
H1896 H 0.05296 0.71074 0.32829 0.0
H1897 H 0.07619 0.71231 0.35743 0.0
H1898 H 0.12869 0.75387 0.37545 0.0
H1899 H 0.14267 0.7817 0.36007 0.0
H1900 H 0.12418 0.82019 0.35335 0.0
H1901 H 0.0984 0.81711 0.36454 0.0
H1902 H 0.04618 0.77548 0.34848 0.0
H1903 H 0.03478 0.74898 0.3233 0.0
H1904 H 0.10543 0.77877 0.47196 0.0
H1905 H 0.06261 0.74241 0.46169 0.0
H1906 H 0.08588 0.78094 0.22818 0.0
H1907 H 0.10231 0.75176 0.23847 0.0
H1908 H 0.35101 0.1075 0.51818 0.0
H1909 H 0.33708 0.06902 0.33369 0.0
H1910 H 0.31901 0.06298 0.50215 0.0
H1911 H 0.36315 0.11475 0.34969 0.0
H1912 H 0.33213 0.06588 0.39583 0.0
H1913 H 0.35711 0.10961 0.45728 0.0
C1914 C 0.34515 0.09816 0.50186 0.0
C1915 C 0.33427 0.08508 0.51553 0.0
C1916 C 0.33898 0.07659 0.38573 0.0
C1917 C 0.34151 0.0874 0.44517 0.0
C1918 C 0.34191 0.07838 0.35029 0.0
C1919 C 0.35051 0.09219 0.33633 0.0
C1920 C 0.34479 0.08867 0.4075 0.0
C1921 C 0.35632 0.10393 0.35913 0.0
C1922 C 0.34874 0.09936 0.46698 0.0
C1923 C 0.32747 0.07327 0.49297 0.0
N1924 N 0.35335 0.1019 0.39342 0.0
N1925 N 0.33115 0.07472 0.45893 0.0
H1926 H 0.92036 0.22448 0.50609 0.0
H1927 H 0.91848 0.27416 0.3555 0.0
H1928 H 0.93367 0.2691 0.52285 0.0
H1929 H 0.92293 0.23703 0.33628 0.0
H1930 H 0.92094 0.27136 0.4177 0.0
H1931 H 0.91838 0.22778 0.44425 0.0
C1932 C 0.92292 0.23499 0.49668 0.0
C1933 C 0.92725 0.24655 0.51959 0.0
C1934 C 0.92139 0.26385 0.39979 0.0
C1935 C 0.92477 0.25036 0.44891 0.0
C1936 C 0.91989 0.26539 0.3644 0.0
C1937 C 0.92057 0.25585 0.34072 0.0
C1938 C 0.92329 0.25253 0.41157 0.0
C1939 C 0.92249 0.2447 0.35361 0.0
C1940 C 0.92181 0.23688 0.46141 0.0
C1941 C 0.93045 0.25995 0.506 0.0
N1942 N 0.9237 0.2433 0.38808 0.0
N1943 N 0.92902 0.26147 0.47159 0.0
H1944 H 0.73786 0.66706 0.51787 0.0
H1945 H 0.77581 0.68164 0.33255 0.0
H1946 H 0.78354 0.69343 0.50121 0.0
H1947 H 0.7313 0.64963 0.34882 0.0
H1948 H 0.77809 0.68756 0.3936 0.0
H1949 H 0.73454 0.66222 0.4557 0.0
C1950 C 0.74718 0.67197 0.50114 0.0
C1951 C 0.76102 0.68064 0.51493 0.0
C1952 C 0.76781 0.67923 0.38394 0.0
C1953 C 0.75729 0.67506 0.44366 0.0
C1954 C 0.7665 0.67575 0.34896 0.0
C1955 C 0.75339 0.6649 0.33532 0.0
C1956 C 0.75591 0.67192 0.40589 0.0
C1957 C 0.74162 0.65805 0.358 0.0
C1958 C 0.74528 0.66911 0.46566 0.0
C1959 C 0.77269 0.68654 0.49193 0.0
N1960 N 0.74318 0.66162 0.39214 0.0
N1961 N 0.77056 0.68365 0.4576 0.0
H1962 H 0.10964 0.34747 1.00423 0.0
H1963 H 0.07121 0.33421 0.18861 0.0
H1964 H 0.06497 0.31587 0.02028 0.0
H1965 H 0.11699 0.36004 0.17258 0.0
H1966 H 0.06804 0.3291 0.12654 0.0
H1967 H 0.11183 0.35365 0.06509 0.0
C1968 C 0.10028 0.3417 0.02055 0.0
C1969 C 0.08714 0.33091 1.00689 0.0
C1970 C 0.07876 0.33593 0.13662 0.0
C1971 C 0.08955 0.33826 0.07721 0.0
C1972 C 0.08058 0.33895 0.17202 0.0
C1973 C 0.09441 0.34754 0.18596 0.0
C1974 C 0.09085 0.34162 0.11485 0.0
C1975 C 0.10615 0.35322 0.16317 0.0
C1976 C 0.10153 0.34534 0.05541 0.0
C1977 C 0.07531 0.32426 0.02945 0.0
N1978 N 0.1041 0.35016 0.12891 0.0
N1979 N 0.07681 0.32799 0.06347 0.0
H1980 H 0.64585 0.73128 0.17157 0.0
H1981 H 0.69172 0.78015 0.01359 0.0
H1982 H 0.68407 0.77248 0.18591 0.0
H1983 H 0.66763 0.73377 1.00778 0.0
H1984 H 0.68664 0.77857 0.07531 0.0
H1985 H 0.65072 0.73317 0.10921 0.0
C1986 C 0.65514 0.74078 0.16146 0.0
C1987 C 0.6646 0.75172 0.18371 0.0
C1988 C 0.6825 0.76876 0.06041 0.0
C1989 C 0.67021 0.75399 0.11291 0.0
C1990 C 0.68551 0.76963 0.02515 0.0
C1991 C 0.68008 0.75708 1.00503 0.0
C1992 C 0.67382 0.75528 0.07571 0.0
C1993 C 0.6718 0.74378 0.02177 0.0
C1994 C 0.65798 0.74181 0.12606 0.0
C1995 C 0.67657 0.76379 0.1695 0.0
N1996 N 0.66884 0.74324 0.05599 0.0
N1997 N 0.67902 0.76463 0.13499 0.0
H1998 H 0.23536 0.9109 0.18477 0.0
H1999 H 0.27375 0.93545 1.00025 0.0
H2000 H 0.27999 0.92368 0.1687 0.0
H2001 H 0.22803 0.91605 0.01652 0.0
H2002 H 0.27695 0.9336 0.06235 0.0
H2003 H 0.23319 0.91482 0.12389 0.0
C2004 C 0.24472 0.91441 0.16844 0.0
C2005 C 0.25784 0.91671 0.18209 0.0
C2006 C 0.26623 0.92981 0.05231 0.0
C2007 C 0.25545 0.92156 0.11176 0.0
C2008 C 0.2644 0.93097 0.0169 0.0
C2009 C 0.25058 0.92584 1.00303 0.0
C2010 C 0.25416 0.9236 0.07414 0.0
C2011 C 0.23886 0.91997 0.02589 0.0
C2012 C 0.24347 0.91676 0.13357 0.0
C2013 C 0.26966 0.92177 0.15952 0.0
N2014 N 0.24092 0.91901 0.06014 0.0
N2015 N 0.26817 0.92397 0.1255 0.0
H2016 H 0.64912 0.89146 0.67585 0.0
H2017 H 0.69462 0.94501 0.52242 0.0
H2018 H 0.6758 0.93721 0.69041 0.0
H2019 H 0.66295 0.90027 0.50794 0.0
H2020 H 0.68819 0.94265 0.58371 0.0
H2021 H 0.65441 0.89468 0.61424 0.0
C2022 C 0.65608 0.90221 0.66608 0.0
C2023 C 0.66206 0.91407 0.68849 0.0
C2024 C 0.68266 0.93337 0.56705 0.0
C2025 C 0.66824 0.91787 0.61755 0.0
C2026 C 0.68629 0.93471 0.53196 0.0
C2027 C 0.67946 0.92279 0.50974 0.0
C2028 C 0.67213 0.92 0.58018 0.0
C2029 C 0.66881 0.9097 0.52395 0.0
C2030 C 0.65907 0.90405 0.6308 0.0
C2031 C 0.67086 0.92776 0.67412 0.0
N2032 N 0.66555 0.90867 0.55807 0.0
N2033 N 0.67377 0.92928 0.63966 0.0
H2034 H 0.07438 0.73476 0.50718 0.0
H2035 H 0.09771 0.77308 0.69208 0.0
H2036 H 0.09303 0.78036 0.52376 0.0
H2037 H 0.08591 0.72875 0.67606 0.0
H2038 H 0.0937 0.77512 0.63118 0.0
H2039 H 0.07596 0.73154 0.5694 0.0
C2040 C 0.07864 0.74407 0.52392 0.0
C2041 C 0.08364 0.75787 0.51012 0.0
C2042 C 0.09199 0.76492 0.64086 0.0
C2043 C 0.08557 0.75427 0.58134 0.0
C2044 C 0.09438 0.76377 0.67574 0.0
C2045 C 0.09241 0.75078 0.68939 0.0
C2046 C 0.08749 0.753 0.61903 0.0
C2047 C 0.08758 0.73898 0.66685 0.0
C2048 C 0.07964 0.74223 0.5594 0.0
C2049 C 0.08921 0.76955 0.53308 0.0
N2050 N 0.08536 0.74039 0.63278 0.0
N2051 N 0.09003 0.76748 0.56739 0.0
H2052 H 0.24562 0.34691 0.50548 0.0
H2053 H 0.27078 0.33322 0.68936 0.0
H2054 H 0.25838 0.31504 0.52099 0.0
H2055 H 0.25149 0.35967 0.67369 0.0
H2056 H 0.26872 0.32812 0.62725 0.0
H2057 H 0.24981 0.3531 0.5663 0.0
C2058 C 0.24919 0.34109 0.52167 0.0
C2059 C 0.2514 0.33023 0.50788 0.0
C2060 C 0.265 0.33509 0.63742 0.0
C2061 C 0.25656 0.33758 0.57815 0.0
C2062 C 0.26628 0.3381 0.67284 0.0
C2063 C 0.26124 0.34684 0.68689 0.0
C2064 C 0.25875 0.34095 0.61577 0.0
C2065 C 0.25535 0.35273 0.66419 0.0
C2066 C 0.25169 0.34473 0.55652 0.0
C2067 C 0.25652 0.32348 0.53027 0.0
N2068 N 0.25426 0.34967 0.62993 0.0
N2069 N 0.25887 0.32722 0.56428 0.0
H2070 H 0.9175 0.64276 0.85678 0.0
H2071 H 0.91522 0.68965 0.01347 0.0
H2072 H 0.91636 0.6819 0.8411 0.0
H2073 H 0.93651 0.66459 0.02067 0.0
H2074 H 0.912 0.68458 0.95168 0.0
H2075 H 0.92022 0.6477 0.91914 0.0
C2076 C 0.91764 0.65227 0.86659 0.0
C2077 C 0.91674 0.66196 0.84398 0.0
C2078 C 0.91738 0.68023 0.96692 0.0
C2079 C 0.91979 0.66765 0.91478 0.0
C2080 C 0.91936 0.68322 1.00221 0.0
C2081 C 0.9261 0.67751 0.02275 0.0
C2082 C 0.92196 0.67127 0.95199 0.0
C2083 C 0.93093 0.66898 1.00638 0.0
C2084 C 0.91931 0.65515 0.902 0.0
C2085 C 0.91709 0.67422 0.85781 0.0
N2086 N 0.92866 0.66603 0.97212 0.0
N2087 N 0.91853 0.6767 0.89233 0.0
H2088 H 0.3412 0.27106 0.02366 0.0
H2089 H 0.3272 0.23269 0.839 0.0
H2090 H 0.31505 0.22535 1.00743 0.0
H2091 H 0.35893 0.27731 0.85499 0.0
H2092 H 0.32115 0.23053 0.89993 0.0
H2093 H 0.34608 0.27425 0.9615 0.0
C2094 C 0.33634 0.26171 1.00701 0.0
C2095 C 0.32774 0.24789 0.02091 0.0
C2096 C 0.32945 0.24081 0.89023 0.0
C2097 C 0.33338 0.25148 0.94972 0.0
C2098 C 0.33302 0.24205 0.85532 0.0
C2099 C 0.34381 0.25516 0.84164 0.0
C2100 C 0.33662 0.25277 0.91204 0.0
C2101 C 0.35055 0.26698 0.8642 0.0
C2102 C 0.33923 0.26354 0.97156 0.0
C2103 C 0.32189 0.23618 0.99805 0.0
N2104 N 0.34689 0.26549 0.89826 0.0
N2105 N 0.32482 0.23823 0.96375 0.0
H2106 H 0.77634 0.09627 0.8411 0.0
H2107 H 0.73796 0.07215 0.02569 0.0
H2108 H 0.73169 0.0834 0.85698 0.0
H2109 H 0.78368 0.09144 1.00946 0.0
H2110 H 0.73476 0.07383 0.96355 0.0
H2111 H 0.77852 0.09246 0.90205 0.0
C2112 C 0.76698 0.09276 0.85741 0.0
C2113 C 0.75385 0.09041 0.8437 0.0
C2114 C 0.74548 0.07764 0.9736 0.0
C2115 C 0.75625 0.0857 0.9141 0.0
C2116 C 0.74731 0.07658 1.00905 0.0
C2117 C 0.76113 0.08172 0.02294 0.0
C2118 C 0.75754 0.08377 0.95177 0.0
C2119 C 0.77285 0.08751 1.00008 0.0
C2120 C 0.76823 0.09047 0.89232 0.0
C2121 C 0.74203 0.08536 0.86622 0.0
N2122 N 0.77079 0.08839 0.96579 0.0
N2123 N 0.74352 0.08324 0.9003 0.0
H2124 H 0.01835 0.4398 0.85579 0.0
H2125 H 1.00279 0.40184 0.67036 0.0
H2126 H 0.98584 0.39548 0.83971 0.0
H2127 H 0.02973 0.44741 0.6873 0.0
H2128 H 0.99821 0.39849 0.73264 0.0
H2129 H 0.02423 0.44194 0.79475 0.0
C2130 C 0.01234 0.43051 0.8394 0.0
C2131 C 1.00137 0.4175 0.85304 0.0
C2132 C 1.00517 0.4092 0.72271 0.0
C2133 C 0.0083 0.41984 0.78255 0.0
C2134 C 0.00788 0.41112 0.68719 0.0
C2135 C 0.01662 0.42495 0.6735 0.0
C2136 C 0.01135 0.42119 0.74478 0.0
C2137 C 0.02278 0.43658 0.69656 0.0
C2138 C 0.01579 0.43173 0.80444 0.0
C2139 C 0.99436 0.40573 0.83046 0.0
N2140 N 0.02003 0.43444 0.73091 0.0
N2141 N 0.99788 0.4072 0.79631 0.0
H2142 H 0.58376 0.60736 0.68194 0.0
H2143 H 0.58662 0.55839 0.83306 0.0
H2144 H 0.58847 0.57034 0.66318 0.0
H2145 H 0.59941 0.60291 0.84928 0.0
H2146 H 0.58442 0.56148 0.77122 0.0
H2147 H 0.58641 0.60477 0.74416 0.0
C2148 C 0.58526 0.59865 0.69094 0.0
C2149 C 0.58597 0.58909 0.66738 0.0
C2150 C 0.58779 0.5706 0.78826 0.0
C2151 C 0.58891 0.58602 0.73825 0.0
C2152 C 0.58903 0.56884 0.82352 0.0
C2153 C 0.59328 0.58043 0.84628 0.0
C2154 C 0.59053 0.58399 0.7756 0.0
C2155 C 0.59627 0.59374 0.83254 0.0
C2156 C 0.58687 0.59724 0.72634 0.0
C2157 C 0.58801 0.57804 0.68041 0.0
N2158 N 0.59471 0.59514 0.79813 0.0
N2159 N 0.58933 0.57676 0.71488 0.0
H2160 H 0.4514 0.02737 0.83349 0.0
H2161 H 0.39789 0.98214 0.67964 0.0
H2162 H 0.40563 1.00062 0.84794 0.0
H2163 H 0.44269 0.01377 0.6656 0.0
H2164 H 0.40017 0.98853 0.74097 0.0
H2165 H 0.44817 0.02226 0.77181 0.0
C2166 C 0.44064 0.02043 0.82367 0.0
C2167 C 0.42878 0.01437 0.84607 0.0
C2168 C 0.40948 0.99406 0.72439 0.0
C2169 C 0.42496 0.00839 0.77505 0.0
C2170 C 0.40818 0.99045 0.68929 0.0
C2171 C 0.42015 0.99727 0.66721 0.0
C2172 C 0.42285 0.00457 0.73765 0.0
C2173 C 0.43322 0.00791 0.68152 0.0
C2174 C 0.43879 0.01754 0.78835 0.0
C2175 C 0.41507 0.00561 0.83166 0.0
N2176 N 0.43421 0.01116 0.71564 0.0
N2177 N 0.41355 1.00279 0.79715 0.0
H2178 H 0.57177 0.987 0.36346 0.0
H2179 H 0.60627 0.00848 0.17544 0.0
H2180 H 0.6098 0.02774 0.3432 0.0
H2181 H 0.56137 0.97826 0.19285 0.0
H2182 H 0.60929 0.01379 0.23752 0.0
H2183 H 0.56919 0.98187 0.30162 0.0
C2184 C 0.5796 0.99486 0.34592 0.0
C2185 C 0.59104 0.00781 0.35846 0.0
C2186 C 0.59879 0.00598 0.22771 0.0
C2187 C 0.58822 1.00193 0.28755 0.0
C2188 C 0.5971 1.00284 0.19239 0.0
C2189 C 0.58355 0.99289 0.179 0.0
C2190 C 0.58692 0.99892 0.24987 0.0
C2191 C 0.57198 0.98605 0.20206 0.0
C2192 C 0.57809 0.99195 0.31063 0.0
C2193 C 0.60079 0.01767 0.33455 0.0
N2194 N 0.57394 0.98913 0.23632 0.0
N2195 N 0.59924 0.01448 0.30022 0.0
H2196 H 0.9819 0.55908 0.34022 0.0
H2197 H 0.02742 0.61163 0.18543 0.0
H2198 H 0.00918 0.60482 0.35374 0.0
H2199 H 0.99528 0.56697 0.17226 0.0
H2200 H 0.02109 0.60969 0.24674 0.0
H2201 H 0.98687 0.56202 0.27847 0.0
C2202 C 0.98891 0.56977 0.33017 0.0
C2203 C 0.99517 0.58171 0.35232 0.0
C2204 C 0.01542 0.60034 0.23035 0.0
C2205 C 1.001 0.58518 0.28125 0.0
C2206 C 0.019 0.60144 0.19527 0.0
C2207 C 0.01203 0.58941 0.17346 0.0
C2208 C 1.00478 0.5871 0.24384 0.0
C2209 C 1.00125 0.57647 0.18798 0.0
C2210 C 0.99173 0.57145 0.29482 0.0
C2211 C 1.00403 0.59532 0.33764 0.0
N2212 N 0.99804 0.57567 0.22209 0.0
N2213 N 0.00678 0.59668 0.30311 0.0
H2214 H 0.40726 0.40155 0.17551 0.0
H2215 H 0.43072 0.43994 0.36035 0.0
H2216 H 0.42607 0.44718 0.19191 0.0
H2217 H 0.41892 0.3956 0.34438 0.0
H2218 H 0.42674 0.44197 0.29941 0.0
H2219 H 0.40893 0.39837 0.23772 0.0
C2220 C 0.41158 0.41088 0.19221 0.0
C2221 C 0.41659 0.42467 0.17837 0.0
C2222 C 0.42502 0.43178 0.30911 0.0
C2223 C 0.4186 0.42111 0.24958 0.0
C2224 C 0.4274 0.43062 0.34401 0.0
C2225 C 0.42542 0.41763 0.35768 0.0
C2226 C 0.42053 0.41986 0.28729 0.0
C2227 C 0.4206 0.40583 0.33515 0.0
C2228 C 0.41262 0.40906 0.22769 0.0
C2229 C 0.42223 0.43637 0.20127 0.0
N2230 N 0.41839 0.40724 0.30107 0.0
N2231 N 0.42309 0.43432 0.23558 0.0
H2232 H 0.3305 0.19545 0.23785 0.0
H2233 H 0.34734 0.14415 0.11898 0.0
H2234 H 0.34174 0.20355 0.13046 0.0
H2235 H 0.33615 0.13606 0.2264 0.0
H2236 H 0.3451 0.1658 0.12235 0.0
H2237 H 0.33266 0.17375 0.23444 0.0
C2238 C 0.33367 0.19275 0.21373 0.0
C2239 C 0.33625 0.20141 0.1846 0.0
C2240 C 0.34298 0.15923 0.14514 0.0
C2241 C 0.33841 0.17646 0.1801 0.0
C2242 C 0.34416 0.14684 0.1431 0.0
C2243 C 0.34163 0.1382 0.17225 0.0
C2244 C 0.33937 0.1631 0.17671 0.0
C2245 C 0.33789 0.1423 0.20318 0.0
C2246 C 0.3348 0.18033 0.21166 0.0
C2247 C 0.33997 0.19729 0.15367 0.0
N2248 N 0.33688 0.15444 0.20461 0.0
N2249 N 0.34094 0.18513 0.15222 0.0
H2250 H 0.81397 0.1346 0.24354 0.0
H2251 H 0.86675 0.20528 0.13442 0.0
H2252 H 0.80681 0.14082 0.13738 0.0
H2253 H 0.87439 0.19934 0.2404 0.0
H2254 H 0.84485 0.18159 0.13495 0.0
H2255 H 0.83596 0.15831 0.24347 0.0
C2256 C 0.81694 0.14111 0.22043 0.0
C2257 C 0.80845 0.13595 0.19068 0.0
C2258 C 0.85134 0.18537 0.15807 0.0
C2259 C 0.83372 0.16288 0.18998 0.0
C2260 C 0.86387 0.19884 0.15765 0.0
C2261 C 0.87241 0.20411 0.18726 0.0
C2262 C 0.84725 0.17713 0.18845 0.0
C2263 C 0.86815 0.19551 0.21694 0.0
C2264 C 0.82952 0.15457 0.22027 0.0
C2265 C 0.81291 0.14459 0.16107 0.0
N2266 N 0.85585 0.18246 0.21682 0.0
N2267 N 0.82521 0.15761 0.16146 0.0
H2268 H 0.86849 0.66449 0.12043 0.0
H2269 H 0.80849 0.67406 0.22232 0.0
H2270 H 0.87293 0.67848 0.22597 0.0
H2271 H 0.80356 0.65991 0.11682 0.0
H2272 H 0.83222 0.67594 0.22388 0.0
H2273 H 0.84458 0.66235 0.11848 0.0
C2274 C 0.86429 0.66689 0.14332 0.0
C2275 C 0.87254 0.6715 0.17351 0.0
C2276 C 0.82605 0.67255 0.20023 0.0
C2277 C 0.84542 0.66941 0.17141 0.0
C2278 C 0.81258 0.67162 0.19928 0.0
C2279 C 0.80426 0.66714 0.16915 0.0
C2280 C 0.83122 0.66884 0.17092 0.0
C2281 C 0.8098 0.66365 0.14032 0.0
C2282 C 0.85071 0.66578 0.14217 0.0
C2283 C 0.86679 0.67475 0.20233 0.0
N2284 N 0.82293 0.66457 0.14189 0.0
N2285 N 0.85362 0.67368 0.20056 0.0
H2286 H 0.14595 0.34478 0.4049 0.0
H2287 H 0.19818 0.32827 0.2887 0.0
H2288 H 0.13845 0.33349 0.29742 0.0
H2289 H 0.20583 0.33988 0.39598 0.0
H2290 H 0.17634 0.33025 0.2911 0.0
H2291 H 0.16775 0.34274 0.40249 0.0
C2292 C 0.1488 0.34161 0.38098 0.0
C2293 C 0.14029 0.339 0.35152 0.0
C2294 C 0.18285 0.33252 0.31407 0.0
C2295 C 0.16535 0.33698 0.34816 0.0
C2296 C 0.19535 0.33149 0.31257 0.0
C2297 C 0.20392 0.33422 0.34197 0.0
C2298 C 0.17881 0.33617 0.34534 0.0
C2299 C 0.19964 0.338 0.37258 0.0
C2300 C 0.16128 0.34056 0.37948 0.0
C2301 C 0.14459 0.33528 0.32086 0.0
N2302 N 0.1874 0.33885 0.37349 0.0
N2303 N 0.15681 0.33439 0.31996 0.0
H2304 H 0.66555 0.80293 0.39198 0.0
H2305 H 0.68253 0.87388 0.28529 0.0
H2306 H 0.67773 0.80887 0.28497 0.0
H2307 H 0.66947 0.86709 0.39173 0.0
H2308 H 0.68082 0.85017 0.28417 0.0
H2309 H 0.66738 0.82663 0.39254 0.0
C2310 C 0.66883 0.80938 0.36875 0.0
C2311 C 0.67167 0.8041 0.33852 0.0
C2312 C 0.67818 0.85378 0.30769 0.0
C2313 C 0.67353 0.8311 0.33859 0.0
C2314 C 0.67905 0.86723 0.3082 0.0
C2315 C 0.67582 0.87223 0.3384 0.0
C2316 C 0.6742 0.84533 0.33775 0.0
C2317 C 0.67172 0.86344 0.36773 0.0
C2318 C 0.66977 0.82285 0.36895 0.0
C2319 C 0.67564 0.81271 0.30888 0.0
N2320 N 0.67104 0.85044 0.36668 0.0
N2321 N 0.67643 0.82577 0.30962 0.0
H2322 H 0.20287 0.87173 0.29526 0.0
H2323 H 0.14288 0.80325 0.39952 0.0
H2324 H 0.20734 0.86363 0.40189 0.0
H2325 H 0.13835 0.81152 0.29306 0.0
H2326 H 0.1666 0.82512 0.40085 0.0
H2327 H 0.17913 0.8499 0.29403 0.0
C2328 C 0.19868 0.86546 0.31859 0.0
C2329 C 0.20688 0.8696 0.34894 0.0
C2330 C 0.16051 0.82211 0.37706 0.0
C2331 C 0.17992 0.84438 0.34758 0.0
C2332 C 0.14705 0.80956 0.37624 0.0
C2333 C 0.13885 0.80546 0.3459 0.0
C2334 C 0.16577 0.83072 0.34739 0.0
C2335 C 0.14449 0.81422 0.31674 0.0
C2336 C 0.1852 0.85294 0.31784 0.0
C2337 C 0.2012 0.8609 0.3782 0.0
N2338 N 0.15759 0.82643 0.31818 0.0
N2339 N 0.18809 0.8487 0.37681 0.0
H2340 H 0.66239 0.86247 0.91044 0.0
H2341 H 0.68011 0.80977 0.80003 0.0
H2342 H 0.67526 0.86949 0.80389 0.0
H2343 H 0.66749 0.80245 0.90671 0.0
H2344 H 0.67801 0.83149 0.80081 0.0
H2345 H 0.66424 0.84055 0.91009 0.0
C2346 C 0.66585 0.85949 0.88718 0.0
C2347 C 0.66899 0.86791 0.85739 0.0
C2348 C 0.67557 0.82511 0.82403 0.0
C2349 C 0.6708 0.84272 0.85637 0.0
C2350 C 0.67668 0.81268 0.82346 0.0
C2351 C 0.67379 0.80428 0.85321 0.0
C2352 C 0.67162 0.82925 0.85469 0.0
C2353 C 0.66962 0.80858 0.88315 0.0
C2354 C 0.66681 0.84695 0.88686 0.0
C2355 C 0.67307 0.86344 0.82759 0.0
N2356 N 0.66869 0.82078 0.88317 0.0
N2357 N 0.67385 0.85117 0.82783 0.0
H2358 H 0.20667 0.86818 0.89457 0.0
H2359 H 0.13723 0.80561 0.79813 0.0
H2360 H 0.19692 0.87042 0.78793 0.0
H2361 H 0.14695 0.80343 0.90482 0.0
H2362 H 0.15884 0.82944 0.79394 0.0
H2363 H 0.18504 0.84437 0.89875 0.0
C2364 C 0.20007 0.86349 0.87188 0.0
C2365 C 0.20369 0.87108 0.84066 0.0
C2366 C 0.15621 0.82385 0.8184 0.0
C2367 C 0.17869 0.84404 0.84539 0.0
C2368 C 0.14382 0.81032 0.82084 0.0
C2369 C 0.1402 0.80274 0.85206 0.0
C2370 C 0.16517 0.8298 0.84733 0.0
C2371 C 0.14928 0.80908 0.88048 0.0
C2372 C 0.18766 0.84997 0.87431 0.0
C2373 C 0.19459 0.86476 0.81227 0.0
N2374 N 0.16134 0.82223 0.87745 0.0
N2375 N 0.18251 0.85162 0.81529 0.0
H2376 H 0.13802 0.32771 0.78834 0.0
H2377 H 0.20693 0.34519 0.90476 0.0
H2378 H 0.14208 0.34007 0.89511 0.0
H2379 H 0.20301 0.33306 0.79783 0.0
H2380 H 0.18308 0.34311 0.90206 0.0
H2381 H 0.16185 0.32974 0.79101 0.0
C2382 C 0.14409 0.33109 0.81215 0.0
C2383 C 0.13828 0.33402 0.84132 0.0
C2384 C 0.18734 0.34075 0.87924 0.0
C2385 C 0.16535 0.33605 0.845 0.0
C2386 C 0.20088 0.34184 0.8809 0.0
C2387 C 0.20674 0.33899 0.8517 0.0
C2388 C 0.17964 0.33692 0.848 0.0
C2389 C 0.19869 0.33504 0.8211 0.0
C2390 C 0.15762 0.33216 0.8138 0.0
C2391 C 0.14636 0.33803 0.87187 0.0
N2392 N 0.18557 0.33413 0.82003 0.0
N2393 N 0.15946 0.33891 0.87293 0.0
H2394 H 0.81192 0.68107 0.7406 0.0
H2395 H 0.87424 0.67522 0.74636 0.0
H2396 H 0.80783 0.66662 0.6356 0.0
H2397 H 0.86654 0.66451 0.63869 0.0
H2398 H 0.85262 0.67725 0.74869 0.0
H2399 H 0.83396 0.67997 0.74626 0.0
C2400 C 0.81558 0.67735 0.71897 0.0
C2401 C 0.80789 0.67358 0.68793 0.0
C2402 C 0.85558 0.67465 0.72427 0.0
C2403 C 0.83345 0.67248 0.69361 0.0
C2404 C 0.86806 0.67357 0.72304 0.0
C2405 C 0.87224 0.66991 0.69222 0.0
C2406 C 0.84715 0.67198 0.69433 0.0
C2407 C 0.86373 0.66754 0.66285 0.0
C2408 C 0.82828 0.67677 0.72203 0.0
C2409 C 0.81326 0.66924 0.66028 0.0
N2410 N 0.85162 0.66859 0.66465 0.0
N2411 N 0.82567 0.66882 0.66378 0.0
H2412 H 0.33486 0.2004 0.72957 0.0
H2413 H 0.34392 0.14013 0.62794 0.0
H2414 H 0.34831 0.20469 0.62361 0.0
H2415 H 0.33039 0.13581 0.73384 0.0
H2416 H 0.34597 0.16392 0.626 0.0
H2417 H 0.33297 0.17668 0.73162 0.0
C2418 C 0.33715 0.19618 0.70656 0.0
C2419 C 0.34144 0.20432 0.67615 0.0
C2420 C 0.34269 0.15787 0.6498 0.0
C2421 C 0.33972 0.17738 0.67846 0.0
C2422 C 0.34166 0.14436 0.65097 0.0
C2423 C 0.33728 0.13619 0.68132 0.0
C2424 C 0.33917 0.1632 0.67912 0.0
C2425 C 0.33404 0.14193 0.71017 0.0
C2426 C 0.33621 0.18271 0.70779 0.0
C2427 C 0.34472 0.1986 0.64733 0.0
N2428 N 0.33504 0.15507 0.70837 0.0
N2429 N 0.3438 0.1855 0.64917 0.0
H2430 H 0.80441 0.1435 0.62391 0.0
H2431 H 0.87332 0.19612 0.73889 0.0
H2432 H 0.80868 0.13618 0.7312 0.0
H2433 H 0.86942 0.2031 0.63116 0.0
H2434 H 0.84946 0.17439 0.737 0.0
H2435 H 0.82817 0.16538 0.62587 0.0
C2436 C 0.81051 0.14642 0.6477 0.0
C2437 C 0.80479 0.13793 0.67723 0.0
C2438 C 0.85373 0.18073 0.71382 0.0
C2439 C 0.83177 0.16307 0.68007 0.0
C2440 C 0.86728 0.19318 0.71502 0.0
C2441 C 0.87315 0.20152 0.68534 0.0
C2442 C 0.84604 0.17652 0.68258 0.0
C2443 C 0.8651 0.19709 0.65477 0.0
C2444 C 0.824 0.15894 0.64894 0.0
C2445 C 0.8129 0.14231 0.70771 0.0
N2446 N 0.85198 0.18491 0.65416 0.0
N2447 N 0.82596 0.15457 0.70836 0.0
H2448 H 0.015 0.47851 0.45644 0.0
H2449 H 0.99806 0.53068 0.5716 0.0
H2450 H 1.00292 0.47078 0.56343 0.0
H2451 H 0.00956 0.53808 0.46424 0.0
H2452 H 1.00009 0.50889 0.5695 0.0
H2453 H 0.01299 0.50032 0.45857 0.0
C2454 C 0.01168 0.48132 0.4802 0.0
C2455 C 0.00882 0.47274 0.50958 0.0
C2456 C 1.00231 0.51533 0.54644 0.0
C2457 C 0.00683 0.49781 0.51263 0.0
C2458 C 1.00125 0.5278 0.54777 0.0
C2459 C 1.00395 0.53629 0.51827 0.0
C2460 C 0.00597 0.51124 0.51525 0.0
C2461 C 0.00771 0.53196 0.48772 0.0
C2462 C 0.01064 0.4938 0.48153 0.0
C2463 C 1.00491 0.47698 0.54003 0.0
N2464 N 0.0086 0.51975 0.48699 0.0
N2465 N 1.00404 0.48921 0.54079 0.0
H2466 H 0.46975 0.47248 0.46725 0.0
H2467 H 0.53447 0.53758 0.45816 0.0
H2468 H 0.48137 0.46985 0.57201 0.0
H2469 H 0.53731 0.53382 0.56785 0.0
H2470 H 0.5128 0.51401 0.45702 0.0
H2471 H 0.49097 0.49619 0.46214 0.0
C2472 C 0.47678 0.47705 0.48933 0.0
C2473 C 0.47369 0.46934 0.52028 0.0
C2474 C 0.51792 0.5182 0.48157 0.0
C2475 C 0.49872 0.49638 0.51433 0.0
C2476 C 0.53048 0.53164 0.48201 0.0
C2477 C 0.53767 0.53751 0.51305 0.0
C2478 C 0.51234 0.51061 0.51265 0.0
C2479 C 0.53208 0.52954 0.54336 0.0
C2480 C 0.48913 0.49056 0.48631 0.0
C2481 C 0.48329 0.47557 0.54787 0.0
N2482 N 0.51974 0.51652 0.54241 0.0
N2483 N 0.49536 0.48869 0.54424 0.0
H2484 H 0.53993 0.01124 0.56192 0.0
H2485 H 0.47072 0.99401 0.44713 0.0
H2486 H 0.53539 0.99814 0.45565 0.0
H2487 H 0.47559 0.0069 0.55361 0.0
H2488 H 0.49442 0.99568 0.44913 0.0
H2489 H 0.51626 0.00949 0.55942 0.0
C2490 C 0.5338 0.00779 0.5382 0.0
C2491 C 0.53947 0.00466 0.50908 0.0
C2492 C 0.49039 0.99829 0.47198 0.0
C2493 C 0.51251 1.00289 0.50563 0.0
C2494 C 0.47694 0.99744 0.47072 0.0
C2495 C 0.4714 1.00063 0.50002 0.0
C2496 C 0.4983 1.00223 0.50291 0.0
C2497 C 0.47966 0.00467 0.53027 0.0
C2498 C 0.52035 0.00688 0.53666 0.0
C2499 C 0.53126 1.00047 0.47875 0.0
N2500 N 0.49267 0.00535 0.53094 0.0
N2501 N 0.51821 0.99973 0.47777 0.0
H2502 H 0.48025 0.01308 0.06742 0.0
H2503 H 0.53355 0.99588 0.95773 0.0
H2504 H 0.47358 1.00072 0.9605 0.0
H2505 H 0.53975 0.00733 0.06523 0.0
H2506 H 0.51182 0.99806 0.95779 0.0
H2507 H 0.50209 0.01108 0.0673 0.0
C2508 C 0.4833 0.0097 0.04411 0.0
C2509 C 0.475 0.00675 0.01416 0.0
C2510 C 0.51799 1.00025 0.98132 0.0
C2511 C 0.50011 0.00479 0.0134 0.0
C2512 C 0.53044 0.99912 0.98115 0.0
C2513 C 0.53857 1.00175 1.0113 0.0
C2514 C 0.51357 0.00392 1.01198 0.0
C2515 C 0.53393 0.00555 0.04128 0.0
C2516 C 0.4958 0.00866 0.04392 0.0
C2517 C 0.47955 1.00277 0.98431 0.0
N2518 N 0.52174 0.00651 0.04088 0.0
N2519 N 0.49179 1.00191 0.98467 0.0
H2520 H 1.00191 0.53357 0.06264 0.0
H2521 H 0.01038 0.47254 0.96294 0.0
H2522 H 0.01509 0.53726 0.95658 0.0
H2523 H 0.99744 0.46902 0.06916 0.0
H2524 H 0.01231 0.49628 0.96004 0.0
H2525 H 0.99983 0.50977 0.06534 0.0
C2526 C 1.0041 0.5292 0.03974 0.0
C2527 C 0.00838 0.5372 1.00913 0.0
C2528 C 0.00917 0.49041 0.98411 0.0
C2529 C 0.00643 0.51017 1.01218 0.0
C2530 C 0.0082 0.47693 0.98582 0.0
C2531 C 1.00405 0.46901 0.01656 0.0
C2532 C 1.00582 0.49596 0.01328 0.0
C2533 C 1.00091 0.47494 0.0452 0.0
C2534 C 1.00304 0.51569 0.04134 0.0
C2535 C 0.01152 0.53129 0.98046 0.0
N2536 N 1.00186 0.48804 0.04288 0.0
N2537 N 0.0105 0.51814 0.98266 0.0
H2538 H 0.47015 0.47705 0.95825 0.0
H2539 H 0.54073 0.53026 0.06758 0.0
H2540 H 0.47596 0.47028 0.06497 0.0
H2541 H 0.53527 0.5366 0.96033 0.0
H2542 H 0.51688 0.50848 0.06753 0.0
H2543 H 0.49397 0.49886 0.95829 0.0
C2544 C 0.4766 0.48007 0.98149 0.0
C2545 C 0.47128 0.47175 1.0114 0.0
C2546 C 0.52081 0.51469 0.04406 0.0
C2547 C 0.49836 0.49683 1.01209 0.0
C2548 C 0.53435 0.52716 0.04421 0.0
C2549 C 0.53978 0.53535 0.01414 0.0
C2550 C 0.51267 0.51029 0.01348 0.0
C2551 C 0.5313 0.53073 0.98424 0.0
C2552 C 0.49013 0.49255 0.98164 0.0
C2553 C 0.47985 0.47626 0.04117 0.0
N2554 N 0.51819 0.51852 0.98464 0.0
N2555 N 0.49294 0.48849 0.04078 0.0
H2556 H 0.38883 0.02985 1.00346 0.0
H2557 H 0.36703 0.05367 0.1796 0.0
H2558 H 0.40425 0.02635 0.1033 0.0
H2559 H 0.36124 0.06698 0.07916 0.0
H2560 H 0.37645 0.03935 0.15237 0.0
H2561 H 0.37447 0.03918 0.03097 0.0
C2562 C 0.38889 0.03074 0.03128 0.0
C2563 C 0.39757 0.02722 0.05128 0.0
C2564 C 0.37292 0.04522 0.13622 0.0
C2565 C 0.38141 0.03806 0.08292 0.0
C2566 C 0.36744 0.05327 0.15174 0.0
C2567 C 0.36327 0.06136 0.13148 0.0
C2568 C 0.3742 0.04524 0.10013 0.0
C2569 C 0.36424 0.06075 0.09556 0.0
C2570 C 0.38081 0.03617 0.04695 0.0
C2571 C 0.39755 0.02882 0.08713 0.0
N2572 N 0.36965 0.05288 0.08101 0.0
N2573 N 0.38964 0.03416 0.10181 0.0
H2574 H 0.94691 0.29453 0.08547 0.0
H2575 H 0.9862 0.3799 0.10919 0.0
H2576 H 0.95731 0.31533 0.18458 0.0
H2577 H 0.98128 0.35947 1.01075 0.0
H2578 H 0.97732 0.35653 0.13761 0.0
H2579 H 0.96105 0.31812 0.05768 0.0
C2580 C 0.95243 0.30408 0.10133 0.0
C2581 C 0.95097 0.30306 0.13727 0.0
C2582 C 0.97838 0.35715 0.10982 0.0
C2583 C 0.96692 0.3301 0.10584 0.0
C2584 C 0.98352 0.3705 0.09369 0.0
C2585 C 0.98457 0.37156 0.05772 0.0
C2586 C 0.97404 0.34471 0.08976 0.0
C2587 C 0.98074 0.35905 0.03861 0.0
C2588 C 0.96043 0.31755 0.08553 0.0
C2589 C 0.95821 0.31572 0.15676 0.0
N2590 N 0.97552 0.34613 0.05481 0.0
N2591 N 0.96572 0.32872 0.14082 0.0
H2592 H 0.71476 0.64978 0.07952 0.0
H2593 H 0.62937 0.6059 0.10315 0.0
H2594 H 0.69409 0.64204 0.17849 0.0
H2595 H 0.64977 0.62093 1.00454 0.0
H2596 H 0.65284 0.62019 0.13141 0.0
H2597 H 0.69123 0.64055 0.05142 0.0
C2598 C 0.70526 0.6464 0.09525 0.0
C2599 C 0.70631 0.64672 0.13127 0.0
C2600 C 0.6522 0.6206 0.10363 0.0
C2601 C 0.6793 0.63581 0.09953 0.0
C2602 C 0.63879 0.6125 0.08758 0.0
C2603 C 0.63768 0.61242 0.0516 0.0
C2604 C 0.66465 0.62847 0.08348 0.0
C2605 C 0.65021 0.62089 0.03241 0.0
C2606 C 0.69182 0.64107 0.07928 0.0
C2607 C 0.69369 0.64204 0.15061 0.0
N2608 N 0.66319 0.62845 0.04853 0.0
N2609 N 0.68071 0.63663 0.13455 0.0
H2610 H 0.03174 0.38668 0.5162 0.0
H2611 H 0.05527 0.36366 0.34148 0.0
H2612 H 0.02813 0.40145 0.41565 0.0
H2613 H 0.06891 0.35877 0.44237 0.0
H2614 H 0.04093 0.3732 0.36805 0.0
H2615 H 0.041 0.37213 0.48947 0.0
C2616 C 0.03259 0.38655 0.4884 0.0
C2617 C 0.02907 0.39512 0.46797 0.0
C2618 C 0.04687 0.36984 0.38445 0.0
C2619 C 0.03982 0.37873 0.43721 0.0
C2620 C 0.05493 0.36429 0.36931 0.0
C2621 C 0.06312 0.36033 0.38989 0.0
C2622 C 0.04698 0.37141 0.42047 0.0
C2623 C 0.06259 0.36159 0.42574 0.0
C2624 C 0.03798 0.37837 0.47317 0.0
C2625 C 0.03061 0.39485 0.43216 0.0
N2626 N 0.05471 0.36706 0.43991 0.0
N2627 N 0.03592 0.38684 0.4179 0.0
H2628 H 0.64586 0.69318 0.33673 0.0
H2629 H 0.62414 0.64793 0.51302 0.0
H2630 H 0.65454 0.71257 0.43741 0.0
H2631 H 0.61135 0.6286 0.4126 0.0
H2632 H 0.63852 0.67158 0.48574 0.0
H2633 H 0.63646 0.66945 0.3637 0.0
C2634 C 0.64605 0.69241 0.36454 0.0
C2635 C 0.651 0.70477 0.38496 0.0
C2636 C 0.63274 0.66217 0.46958 0.0
C2637 C 0.64007 0.67771 0.41612 0.0
C2638 C 0.62462 0.64869 0.48517 0.0
C2639 C 0.61663 0.63638 0.46494 0.0
C2640 C 0.63284 0.66335 0.43345 0.0
C2641 C 0.61745 0.63788 0.429 0.0
C2642 C 0.6406 0.67889 0.37996 0.0
C2643 C 0.65088 0.70326 0.42086 0.0
N2644 N 0.62531 0.65112 0.41439 0.0
N2645 N 0.6454 0.68998 0.43532 0.0
H2646 H 0.29664 0.94083 0.43699 0.0
H2647 H 0.38192 0.98375 0.41203 0.0
H2648 H 0.3169 0.95517 0.33799 0.0
H2649 H 0.36158 0.9766 0.5113 0.0
H2650 H 0.35836 0.97474 0.38429 0.0
H2651 H 0.32019 0.95512 0.46491 0.0
C2652 C 0.30605 0.94728 0.42125 0.0
C2653 C 0.30489 0.94698 0.38528 0.0
C2654 C 0.35904 0.97535 0.41213 0.0
C2655 C 0.33192 0.96303 0.41675 0.0
C2656 C 0.37249 0.98056 0.42789 0.0
C2657 C 0.37363 0.981 0.46388 0.0
C2658 C 0.3466 0.97031 0.43258 0.0
C2659 C 0.3611 0.97653 0.48343 0.0
C2660 C 0.3195 0.95537 0.43711 0.0
C2661 C 0.3174 0.95528 0.36587 0.0
N2662 N 0.34809 0.97123 0.46757 0.0
N2663 N 0.33041 0.96283 0.3818 0.0
H2664 H 0.62318 0.97638 0.0228 0.0
H2665 H 0.6463 0.95438 0.84589 0.0
H2666 H 0.60946 0.98203 0.92271 0.0
H2667 H 0.65025 0.93912 0.94552 0.0
H2668 H 0.63711 0.96878 0.87376 0.0
H2669 H 0.63743 0.96697 0.99517 0.0
C2670 C 0.62348 0.97595 0.99493 0.0
C2671 C 0.6153 0.98009 0.97489 0.0
C2672 C 0.6402 0.96247 0.88962 0.0
C2673 C 0.63134 0.96916 0.94308 0.0
C2674 C 0.64555 0.95437 0.87373 0.0
C2675 C 0.64915 0.94572 0.89357 0.0
C2676 C 0.63846 0.96193 0.92563 0.0
C2677 C 0.64772 0.9458 0.92946 0.0
C2678 C 0.6315 0.97048 0.97918 0.0
C2679 C 0.61578 0.97907 0.93895 0.0
N2680 N 0.64244 0.95373 0.94436 0.0
N2681 N 0.62361 0.97366 0.92418 0.0
H2682 H 0.06845 0.71237 0.94443 0.0
H2683 H 0.0276 0.62722 0.91764 0.0
H2684 H 0.05618 0.69232 0.84465 0.0
H2685 H 0.03243 0.64702 0.01691 0.0
H2686 H 0.03678 0.65082 0.89018 0.0
H2687 H 0.05415 0.68867 0.97159 0.0
C2688 C 0.06247 0.70297 0.92833 0.0
C2689 C 0.06336 0.70423 0.89237 0.0
C2690 C 0.03563 0.65002 0.91794 0.0
C2691 C 0.0473 0.67705 0.92301 0.0
C2692 C 0.03032 0.63654 0.93352 0.0
C2693 C 0.02915 0.63523 0.96945 0.0
C2694 C 0.04003 0.66233 0.93851 0.0
C2695 C 0.03305 0.64763 0.98907 0.0
C2696 C 0.05437 0.68944 0.94376 0.0
C2697 C 0.05563 0.69174 0.87251 0.0
N2698 N 0.03845 0.66067 0.9734 0.0
N2699 N 0.04806 0.67866 0.88806 0.0
H2700 H 0.38178 0.40023 0.92054 0.0
H2701 H 0.29645 0.3582 0.94494 0.0
H2702 H 0.36134 0.38703 0.01968 0.0
H2703 H 0.31681 0.36379 0.84613 0.0
H2704 H 0.31998 0.36749 0.97302 0.0
H2705 H 0.35823 0.38584 0.89266 0.0
C2706 C 0.37233 0.39402 0.93634 0.0
C2707 C 0.37344 0.39467 0.97234 0.0
C2708 C 0.31931 0.36647 0.94523 0.0
C2709 C 0.34641 0.3785 0.94088 0.0
C2710 C 0.30588 0.3611 0.92928 0.0
C2711 C 0.30474 0.36011 0.89331 0.0
C2712 C 0.33175 0.37114 0.92497 0.0
C2713 C 0.31727 0.36426 0.874 0.0
C2714 C 0.35888 0.38587 0.9205 0.0
C2715 C 0.36088 0.38666 0.9918 0.0
N2716 N 0.33027 0.36973 0.89002 0.0
N2717 N 0.34788 0.37904 0.97587 0.0
H2718 H 0.94748 0.65415 0.5896 0.0
H2719 H 0.98341 0.60486 0.61057 0.0
H2720 H 0.9549 0.64052 0.68796 0.0
H2721 H 0.98252 0.62418 0.51419 0.0
H2722 H 0.97447 0.61913 0.63993 0.0
H2723 H 0.96174 0.64478 0.5618 0.0
C2724 C 0.95237 0.64941 0.60535 0.0
C2725 C 0.95003 0.64805 0.64102 0.0
C2726 C 0.97646 0.62047 0.61246 0.0
C2727 C 0.9661 0.63705 0.60953 0.0
C2728 C 0.98163 0.61239 0.59579 0.0
C2729 C 0.98388 0.61355 0.56011 0.0
C2730 C 0.97323 0.62961 0.59316 0.0
C2731 C 0.98111 0.62318 0.54187 0.0
C2732 C 0.96045 0.64401 0.58952 0.0
C2733 C 0.95648 0.64175 0.66035 0.0
N2734 N 0.97581 0.63074 0.55852 0.0
N2735 N 0.96406 0.63634 0.64435 0.0
H2736 H 0.38924 0.35943 0.5112 0.0
H2737 H 0.36333 0.31339 0.68632 0.0
H2738 H 0.40088 0.37839 0.61222 0.0
H2739 H 0.36172 0.29491 0.5868 0.0
H2740 H 0.37277 0.3371 0.65904 0.0
H2741 H 0.37479 0.33563 0.53782 0.0
C2742 C 0.38846 0.35856 0.53903 0.0
C2743 C 0.39616 0.37082 0.55964 0.0
C2744 C 0.37014 0.32783 0.64306 0.0
C2745 C 0.37984 0.34369 0.59033 0.0
C2746 C 0.36466 0.31432 0.65859 0.0
C2747 C 0.36163 0.30223 0.63863 0.0
C2748 C 0.3726 0.32926 0.60728 0.0
C2749 C 0.36379 0.30398 0.60293 0.0
C2750 C 0.38033 0.345 0.55422 0.0
C2751 C 0.395 0.36917 0.59553 0.0
N2752 N 0.36918 0.31724 0.5884 0.0
N2753 N 0.38706 0.35586 0.60977 0.0
H2754 H 0.65045 0.03117 0.51164 0.0
H2755 H 0.69605 0.04975 0.68729 0.0
H2756 H 0.63104 0.02084 0.61232 0.0
H2757 H 0.71458 0.06793 0.58873 0.0
H2758 H 0.67249 0.03526 0.65936 0.0
H2759 H 0.67425 0.04072 0.5384 0.0
C2760 C 0.65123 0.03068 0.53938 0.0
C2761 C 0.63884 0.02528 0.55989 0.0
C2762 C 0.68174 0.04224 0.64372 0.0
C2763 C 0.66599 0.03628 0.59079 0.0
C2764 C 0.69518 0.05039 0.65961 0.0
C2765 C 0.70723 0.05986 0.64011 0.0
C2766 C 0.68036 0.04359 0.60805 0.0
C2767 C 0.70554 0.0606 0.6045 0.0
C2768 C 0.6648 0.03621 0.55468 0.0
C2769 C 0.64038 0.02492 0.5957 0.0
N2770 N 0.69236 0.05262 0.58962 0.0
N2771 N 0.6537 0.03044 0.61006 0.0
H2772 H 0.7028 0.72191 0.85041 0.0
H2773 H 0.71879 0.69234 0.67518 0.0
H2774 H 0.6903 0.7289 0.75012 0.0
H2775 H 0.73882 0.69393 0.77239 0.0
H2776 H 0.70451 0.70157 0.70357 0.0
H2777 H 0.71219 0.70749 0.8238 0.0
C2778 C 0.70182 0.72015 0.82281 0.0
C2779 C 0.69585 0.7266 0.80234 0.0
C2780 C 0.71184 0.69967 0.71885 0.0
C2781 C 0.70664 0.71023 0.77158 0.0
C2782 C 0.71986 0.69428 0.70271 0.0
C2783 C 0.72979 0.69219 0.72167 0.0
C2784 C 0.71378 0.70301 0.75423 0.0
C2785 C 0.73111 0.69522 0.75706 0.0
C2786 C 0.70724 0.71201 0.80758 0.0
C2787 C 0.69484 0.72408 0.76671 0.0
N2788 N 0.72325 0.70051 0.77217 0.0
N2789 N 0.70028 0.71618 0.75241 0.0
H2790 H 0.27494 0.96088 0.74529 0.0
H2791 H 0.31802 0.04615 0.77063 0.0
H2792 H 0.28857 0.98112 0.84457 0.0
H2793 H 0.31161 0.02587 0.67146 0.0
H2794 H 0.30853 0.02256 0.7984 0.0
H2795 H 0.28942 0.98444 0.7176 0.0
C2796 C 0.28126 0.97029 0.76115 0.0
C2797 C 0.28071 0.96912 0.79714 0.0
C2798 C 0.3094 0.02325 0.77058 0.0
C2799 C 0.29699 0.99615 0.76591 0.0
C2800 C 0.31488 0.03672 0.75481 0.0
C2801 C 0.31568 0.03789 0.71884 0.0
C2802 C 0.30445 0.01082 0.75014 0.0
C2803 C 0.31126 0.02537 0.69933 0.0
C2804 C 0.28946 0.98374 0.74543 0.0
C2805 C 0.28886 0.98162 0.8167 0.0
N2806 N 0.3057 0.01234 0.71519 0.0
N2807 N 0.29653 0.99463 0.80088 0.0
H2808 H 0.0484 0.31513 0.75142 0.0
H2809 H 0.96307 0.27273 0.77633 0.0
H2810 H 0.02809 0.30918 0.85041 0.0
H2811 H 0.98338 0.28604 0.67708 0.0
H2812 H 0.98664 0.28716 0.80408 0.0
H2813 H 0.02483 0.30579 0.72349 0.0
C2814 C 0.03897 0.31214 0.76716 0.0
C2815 C 0.04013 0.31302 0.80314 0.0
C2816 C 0.98596 0.28715 0.77624 0.0
C2817 C 0.01308 0.30196 0.77164 0.0
C2818 C 0.9725 0.27898 0.76048 0.0
C2819 C 0.97134 0.27837 0.72449 0.0
C2820 C 0.9984 0.29456 0.7558 0.0
C2821 C 0.98387 0.28641 0.70496 0.0
C2822 C 0.02551 0.30673 0.7513 0.0
C2823 C 0.0276 0.30877 0.82254 0.0
N2824 N 0.99689 0.29404 0.72082 0.0
N2825 N 0.01459 0.30328 0.8066 0.0
H2826 H 0.31267 0.28725 0.17817 0.0
H2827 H 0.28919 0.30972 0.35383 0.0
H2828 H 0.31646 0.2723 0.27836 0.0
H2829 H 0.27563 0.31506 0.25326 0.0
H2830 H 0.30352 0.30026 0.32681 0.0
H2831 H 0.3034 0.3017 0.20536 0.0
C2832 C 0.31186 0.28732 0.20599 0.0
C2833 C 0.31544 0.27874 0.22619 0.0
C2834 C 0.2976 0.30371 0.31058 0.0
C2835 C 0.30466 0.29501 0.25747 0.0
C2836 C 0.28955 0.3092 0.32599 0.0
C2837 C 0.28137 0.31326 0.30563 0.0
C2838 C 0.29751 0.30228 0.27452 0.0
C2839 C 0.28192 0.31216 0.26973 0.0
C2840 C 0.30646 0.29545 0.22149 0.0
C2841 C 0.31394 0.27892 0.26204 0.0
N2842 N 0.2898 0.30672 0.2553 0.0
N2843 N 0.30862 0.28688 0.27655 0.0
H2844 H 0.69307 0.96171 0.25537 0.0
H2845 H 0.73691 0.04688 0.28057 0.0
H2846 H 0.70043 0.98203 0.35473 0.0
H2847 H 0.72208 0.02672 0.18159 0.0
H2848 H 0.72241 0.02338 0.30846 0.0
H2849 H 0.70227 0.98529 0.22773 0.0
C2850 C 0.69634 0.97114 0.27127 0.0
C2851 C 0.69592 0.96999 0.30725 0.0
C2852 C 0.7221 0.02409 0.28067 0.0
C2853 C 0.70683 0.99704 0.27607 0.0
C2854 C 0.73031 0.03751 0.26484 0.0
C2855 C 0.73053 0.03868 0.22888 0.0
C2856 C 0.71424 0.01171 0.26031 0.0
C2857 C 0.72204 0.02622 0.20946 0.0
C2858 C 0.70166 0.9846 0.25557 0.0
C2859 C 0.70049 0.98252 0.32686 0.0
N2860 N 0.71437 0.01324 0.22537 0.0
N2861 N 0.70591 0.99554 0.31106 0.0
H2862 H 0.03043 0.71707 0.34958 0.0
H2863 H 0.9841 0.70087 0.17566 0.0
H2864 H 0.04844 0.73708 0.2521 0.0
H2865 H 0.96506 0.6885 0.27644 0.0
H2866 H 0.00804 0.71039 0.20164 0.0
H2867 H 0.0068 0.70285 0.32179 0.0
C2868 C 0.02943 0.71816 0.32212 0.0
C2869 C 0.04137 0.72806 0.3029 0.0
C2870 C 0.99864 0.70545 0.21809 0.0
C2871 C 0.0144 0.71209 0.27104 0.0
C2872 C 0.985 0.69995 0.20323 0.0
C2873 C 0.97266 0.69397 0.22402 0.0
C2874 C 0.99996 0.70491 0.25405 0.0
C2875 C 0.97434 0.69304 0.25961 0.0
C2876 C 0.01595 0.71016 0.30632 0.0
C2877 C 0.0395 0.72939 0.26761 0.0
N2878 N 0.98774 0.69855 0.27355 0.0
N2879 N 0.02628 0.72155 0.25283 0.0
H2880 H 0.36042 0.11975 1.00555 0.0
H2881 H 0.31303 0.07102 0.84719 0.0
H2882 H 0.32896 0.07465 0.01471 0.0
H2883 H 0.35074 0.11275 0.83423 0.0
H2884 H 0.31712 0.07312 0.90962 0.0
H2885 H 0.35591 0.11815 0.94342 0.0
C2886 C 0.35265 0.10949 0.9946 0.0
C2887 C 0.34503 0.09735 0.01571 0.0
C2888 C 0.32448 0.08184 0.89311 0.0
C2889 C 0.3396 0.09551 0.94446 0.0
C2890 C 0.32207 0.08069 0.85751 0.0
C2891 C 0.33159 0.09169 0.83542 0.0
C2892 C 0.33642 0.09414 0.90684 0.0
C2893 C 0.34323 0.10393 0.85025 0.0
C2894 C 0.35 0.10861 0.9591 0.0
C2895 C 0.33491 0.0844 0.99982 0.0
N2896 N 0.34532 0.10482 0.88495 0.0
N2897 N 0.33247 0.08385 0.96532 0.0
H2898 H 0.90021 0.22362 0.01924 0.0
H2899 H 0.9247 0.26589 0.84003 0.0
H2900 H 0.91315 0.26844 1.00825 0.0
H2901 H 0.90779 0.22016 0.84904 0.0
H2902 H 0.92053 0.26698 0.90146 0.0
H2903 H 0.90251 0.22202 0.95696 0.0
C2904 C 0.90343 0.23311 1.00363 0.0
C2905 C 0.90658 0.24621 0.019 0.0
C2906 C 0.91769 0.25669 0.89004 0.0
C2907 C 0.90934 0.24448 0.94757 0.0
C2908 C 0.92004 0.25604 0.85487 0.0
C2909 C 0.9165 0.24288 0.83913 0.0
C2910 C 0.91182 0.24411 0.90992 0.0
C2911 C 0.91081 0.23056 0.86 0.0
C2912 C 0.90475 0.23218 0.96807 0.0
C2913 C 0.91054 0.25811 0.99748 0.0
N2914 N 0.90863 0.23148 0.89427 0.0
N2915 N 0.91194 0.25699 0.96291 0.0
H2916 H 0.78245 0.68092 0.01811 0.0
H2917 H 0.74308 0.65908 0.83514 0.0
H2918 H 0.74024 0.64415 1.00279 0.0
H2919 H 0.78816 0.69028 0.84659 0.0
H2920 H 0.74164 0.65423 0.89675 0.0
H2921 H 0.78462 0.68507 0.95585 0.0
C2922 C 0.77365 0.67368 1.00159 0.0
C2923 C 0.7611 0.6622 0.01571 0.0
C2924 C 0.75186 0.66211 0.88583 0.0
C2925 C 0.76349 0.66696 0.94431 0.0
C2926 C 0.75273 0.66487 0.85051 0.0
C2927 C 0.76582 0.67502 0.83533 0.0
C2928 C 0.76414 0.66963 0.90651 0.0
C2929 C 0.77782 0.68245 0.85702 0.0
C2930 C 0.77491 0.67604 0.96604 0.0
C2931 C 0.75013 0.65306 0.99303 0.0
N2932 N 0.77669 0.6796 0.89146 0.0
N2933 N 0.75152 0.65571 0.95852 0.0
H2934 H 0.11559 0.34834 0.68927 0.0
H2935 H 0.07584 0.32607 0.50673 0.0
H2936 H 0.07359 0.31118 0.67451 0.0
H2937 H 0.12101 0.35712 0.51759 0.0
H2938 H 0.0745 0.32142 0.56845 0.0
H2939 H 0.1175 0.3525 0.62702 0.0
C2940 C 0.10678 0.34102 0.67288 0.0
C2941 C 0.09438 0.32941 0.68717 0.0
C2942 C 0.08472 0.32922 0.55736 0.0
C2943 C 0.09647 0.33418 0.61575 0.0
C2944 C 0.08553 0.33187 0.52197 0.0
C2945 C 0.09862 0.34192 0.50658 0.0
C2946 C 0.09703 0.33676 0.5779 0.0
C2947 C 0.11066 0.34936 0.52815 0.0
C2948 C 0.1079 0.34339 0.63733 0.0
C2949 C 0.08338 0.3202 0.66463 0.0
N2950 N 0.10958 0.34663 0.56264 0.0
N2951 N 0.08463 0.32284 0.63011 0.0
H2952 H 0.69816 0.7661 0.67283 0.0
H2953 H 0.65074 0.76764 0.51481 0.0
H2954 H 0.66386 0.7757 0.68488 0.0
H2955 H 0.68259 0.75446 0.5064 0.0
H2956 H 0.65569 0.77143 0.57687 0.0
H2957 H 0.6937 0.7636 0.61076 0.0
C2958 C 0.68985 0.76792 0.66233 0.0
C2959 C 0.68132 0.77103 0.68405 0.0
C2960 C 0.66157 0.76769 0.56138 0.0
C2961 C 0.67592 0.76789 0.61314 0.0
C2962 C 0.65865 0.76542 0.52607 0.0
C2963 C 0.66635 0.76087 0.50539 0.0
C2964 C 0.67225 0.76538 0.57599 0.0
C2965 C 0.67658 0.75824 0.52126 0.0
C2966 C 0.68719 0.76633 0.62694 0.0
C2967 C 0.67056 0.77309 0.66908 0.0
N2968 N 0.67926 0.76059 0.55549 0.0
N2969 N 0.66812 0.77141 0.63458 0.0
H2970 H 0.24114 0.89343 0.6844 0.0
H2971 H 0.25931 0.93407 0.50308 0.0
H2972 H 0.24577 0.93539 0.67051 0.0
H2973 H 0.24512 0.88885 0.51243 0.0
H2974 H 0.25589 0.93511 0.56487 0.0
H2975 H 0.2438 0.89186 0.62215 0.0
C2976 C 0.24268 0.9023 0.66821 0.0
C2977 C 0.24327 0.91459 0.68272 0.0
C2978 C 0.25349 0.92494 0.55344 0.0
C2979 C 0.24642 0.91288 0.61136 0.0
C2980 C 0.2554 0.92431 0.51803 0.0
C2981 C 0.25234 0.91129 0.5022 0.0
C2982 C 0.24862 0.91252 0.57356 0.0
C2983 C 0.24771 0.89914 0.52336 0.0
C2984 C 0.24416 0.90138 0.63267 0.0
C2985 C 0.24513 0.92568 0.66044 0.0
N2986 N 0.24598 0.90005 0.55789 0.0
N2987 N 0.24675 0.92461 0.62595 0.0
H2988 H 0.69499 0.91036 0.17937 0.0
H2989 H 0.64709 0.91079 0.0212 0.0
H2990 H 0.66372 0.92433 0.18786 0.0
H2991 H 0.68457 0.90629 1.00795 0.0
H2992 H 0.65161 0.91343 0.0834 0.0
H2993 H 0.69043 0.90721 0.11722 0.0
C2994 C 0.68726 0.91288 0.16824 0.0
C2995 C 0.67966 0.91751 0.18916 0.0
C2996 C 0.65883 0.91184 0.0669 0.0
C2997 C 0.67419 0.91365 0.11799 0.0
C2998 C 0.65617 0.9102 0.03142 0.0
C2999 C 0.66549 0.90837 1.0093 0.0
C3000 C 0.67082 0.91152 0.08049 0.0
C3001 C 0.6772 0.90785 0.02399 0.0
C3002 C 0.68458 0.91097 0.13275 0.0
C3003 C 0.66963 0.92042 0.1731 0.0
N3004 N 0.67953 0.90942 0.0586 0.0
N3005 N 0.66715 0.91838 0.13865 0.0
H3006 H 0.11721 0.76825 0.19168 0.0
H3007 H 0.07656 0.7504 1.01033 0.0
H3008 H 0.07524 0.76365 0.17778 0.0
H3009 H 0.12184 0.7647 0.01942 0.0
H3010 H 0.07555 0.75372 0.07215 0.0
H3011 H 0.11883 0.76574 0.12936 0.0
C3012 C 0.10835 0.76675 0.17548 0.0
C3013 C 0.09604 0.76612 0.19001 0.0
C3014 C 0.08572 0.75617 0.06066 0.0
C3015 C 0.09781 0.76316 0.11858 0.0
C3016 C 0.08634 0.75433 0.02522 0.0
C3017 C 0.09936 0.75744 1.00929 0.0
C3018 C 0.09817 0.76103 0.08074 0.0
C3019 C 0.11154 0.76207 0.03041 0.0
C3020 C 0.1093 0.76536 0.1399 0.0
C3021 C 0.08496 0.76432 0.16771 0.0
N3022 N 0.11065 0.76374 0.06499 0.0
N3023 N 0.08607 0.76279 0.1332 0.0
H3024 H 0.26854 0.34629 0.18751 0.0
H3025 H 0.22876 0.32383 1.00502 0.0
H3026 H 0.22337 0.31522 0.17702 0.0
H3027 H 0.27059 0.36121 0.02004 0.0
H3028 H 0.22689 0.31956 0.06727 0.0
H3029 H 0.26984 0.35076 0.12573 0.0
C3030 C 0.25884 0.34044 0.17232 0.0
C3031 C 0.24576 0.33046 0.18784 0.0
C3032 C 0.23645 0.32874 0.057 0.0
C3033 C 0.24729 0.33542 0.11645 0.0
C3034 C 0.23755 0.33117 0.02145 0.0
C3035 C 0.24988 0.34289 1.00725 0.0
C3036 C 0.24783 0.338 0.07862 0.0
C3037 C 0.26084 0.35212 0.02985 0.0
C3038 C 0.25963 0.34299 0.13691 0.0
C3039 C 0.2337 0.32294 0.16635 0.0
N3040 N 0.25961 0.34942 0.06433 0.0
N3041 N 0.23476 0.32559 0.13182 0.0
H3042 H 0.88731 0.64925 0.51339 0.0
H3043 H 0.93589 0.69666 0.35493 0.0
H3044 H 0.93232 0.68112 0.52146 0.0
H3045 H 0.8919 0.66256 0.34368 0.0
H3046 H 0.93408 0.6923 0.41707 0.0
H3047 H 0.88832 0.65438 0.4515 0.0
C3048 C 0.89742 0.65722 0.50209 0.0
C3049 C 0.90971 0.66485 0.52264 0.0
C3050 C 0.92479 0.68582 0.40105 0.0
C3051 C 0.91091 0.67094 0.45219 0.0
C3052 C 0.92578 0.68843 0.36563 0.0
C3053 C 0.91407 0.67991 0.34412 0.0
C3054 C 0.91198 0.67463 0.41506 0.0
C3055 C 0.90126 0.66925 0.35932 0.0
C3056 C 0.89797 0.66024 0.46687 0.0
C3057 C 0.92251 0.67515 0.50672 0.0
N3058 N 0.90058 0.66685 0.39382 0.0
N3059 N 0.92276 0.67792 0.47255 0.0
H3060 H 0.36491 0.2691 0.50998 0.0
H3061 H 0.31771 0.22011 0.3517 0.0
H3062 H 0.32732 0.22727 0.52303 0.0
H3063 H 0.34928 0.26516 0.34231 0.0
H3064 H 0.32216 0.22179 0.41388 0.0
H3065 H 0.36088 0.2669 0.44755 0.0
C3066 C 0.3559 0.25939 0.49969 0.0
C3067 C 0.34641 0.24839 0.5218 0.0
C3068 C 0.32811 0.2313 0.39814 0.0
C3069 C 0.34165 0.24583 0.45037 0.0
C3070 C 0.3255 0.23037 0.36262 0.0
C3071 C 0.33317 0.24248 0.34144 0.0
C3072 C 0.33851 0.2444 0.41273 0.0
C3073 C 0.3433 0.25544 0.35727 0.0
C3074 C 0.35353 0.25818 0.46407 0.0
C3075 C 0.33482 0.2361 0.50699 0.0
N3076 N 0.34569 0.25603 0.39179 0.0
N3077 N 0.33276 0.23515 0.47228 0.0
H3078 H 0.75276 0.07327 0.52285 0.0
H3079 H 0.77092 0.114 0.34165 0.0
H3080 H 0.76677 0.11844 0.51355 0.0
H3081 H 0.76587 0.07187 0.35528 0.0
H3082 H 0.76829 0.11556 0.40392 0.0
H3083 H 0.75613 0.07224 0.46104 0.0
C3084 C 0.75662 0.08302 0.5079 0.0
C3085 C 0.75964 0.09602 0.52373 0.0
C3086 C 0.76784 0.10601 0.39334 0.0
C3087 C 0.76331 0.09481 0.45237 0.0
C3088 C 0.7693 0.10509 0.35779 0.0
C3089 C 0.76857 0.09276 0.3432 0.0
C3090 C 0.76549 0.09446 0.41457 0.0
C3091 C 0.76662 0.08162 0.36541 0.0
C3092 C 0.7585 0.08239 0.47248 0.0
C3093 C 0.76421 0.10816 0.5026 0.0
N3094 N 0.76504 0.08269 0.39991 0.0
N3095 N 0.76592 0.10726 0.46805 0.0
H3096 H 0.98413 0.43105 0.18205 0.0
H3097 H 0.03149 0.43125 0.34209 0.0
H3098 H 0.01615 0.418 0.17506 0.0
H3099 H 0.9934 0.43478 0.35401 0.0
H3100 H 0.02739 0.42874 0.27979 0.0
H3101 H 0.98822 0.4341 0.24438 0.0
C3102 C 0.99194 0.42872 0.19353 0.0
C3103 C 0.99988 0.42437 0.17299 0.0
C3104 C 0.01994 0.43009 0.29602 0.0
C3105 C 1.00481 0.42811 0.24437 0.0
C3106 C 0.02235 0.43166 0.33158 0.0
C3107 C 0.01276 0.43319 0.35336 0.0
C3108 C 0.00789 0.43017 0.28199 0.0
C3109 C 1.00098 0.43345 0.33825 0.0
C3110 C 0.99434 0.43057 0.22913 0.0
C3111 C 0.00998 0.42169 0.18951 0.0
N3112 N 0.99889 0.43197 0.30355 0.0
N3113 N 0.01218 0.42367 0.22405 0.0
H3114 H 0.57413 0.55339 0.17476 0.0
H3115 H 0.57873 0.60267 0.3355 0.0
H3116 H 0.59053 0.5991 0.16782 0.0
H3117 H 0.56656 0.55798 0.34455 0.0
H3118 H 0.58102 0.60106 0.27304 0.0
H3119 H 0.57 0.55451 0.23644 0.0
C3120 C 0.57696 0.56368 0.1862 0.0
C3121 C 0.58265 0.57615 0.16591 0.0
C3122 C 0.57777 0.59158 0.28867 0.0
C3123 C 0.57771 0.57748 0.23652 0.0
C3124 C 0.57632 0.59247 0.32429 0.0
C3125 C 0.57254 0.58047 0.3453 0.0
C3126 C 0.57537 0.57859 0.27393 0.0
C3127 C 0.5697 0.56755 0.32938 0.0
C3128 C 0.57449 0.56429 0.22139 0.0
C3129 C 0.58591 0.58915 0.18221 0.0
N3130 N 0.57123 0.56697 0.29474 0.0
N3131 N 0.58338 0.58946 0.21643 0.0
H3132 H 0.43324 0.98143 0.33707 0.0
H3133 H 0.43291 0.0292 0.17865 0.0
H3134 H 0.41971 0.01303 0.3455 0.0
H3135 H 0.43688 0.99144 0.1655 0.0
H3136 H 0.43042 0.02484 0.24089 0.0
H3137 H 0.43627 0.98584 0.27486 0.0
C3138 C 0.4308 0.98921 0.32592 0.0
C3139 C 0.42631 0.99694 0.34684 0.0
C3140 C 0.43186 0.01752 0.2244 0.0
C3141 C 0.43003 1.00223 0.27559 0.0
C3142 C 0.43341 0.02009 0.18889 0.0
C3143 C 0.43505 0.01065 0.16679 0.0
C3144 C 0.43208 0.0055 0.23804 0.0
C3145 C 0.43546 0.9989 0.18152 0.0
C3146 C 0.43263 0.99179 0.29039 0.0
C3147 C 0.4235 0.00702 0.33074 0.0
N3148 N 0.43399 0.99666 0.21616 0.0
N3149 N 0.42546 0.0094 0.29626 0.0
H3150 H 0.60256 0.01436 0.85824 0.0
H3151 H 0.55937 0.99707 0.68034 0.0
H3152 H 0.55672 0.98581 0.85024 0.0
H3153 H 0.6044 0.0285 0.69025 0.0
H3154 H 0.55805 0.99317 0.74258 0.0
H3155 H 0.60339 0.0197 0.79694 0.0
C3156 C 0.59264 0.00924 0.84365 0.0
C3157 C 0.57952 0.99967 0.85963 0.0
C3158 C 0.5682 1.00101 0.73125 0.0
C3159 C 0.58044 0.00568 0.78899 0.0
C3160 C 0.56896 1.00324 0.69571 0.0
C3161 C 0.58204 0.01307 0.68004 0.0
C3162 C 0.58064 0.00857 0.75142 0.0
C3163 C 0.59408 0.02089 0.70125 0.0
C3164 C 0.59313 0.01229 0.80855 0.0
C3165 C 0.56709 0.99315 0.83907 0.0
N3166 N 0.59313 0.01838 0.73581 0.0
N3167 N 0.56786 0.99629 0.80488 0.0
H3168 H 0.0173 0.60063 0.67374 0.0
H3169 H 0.9944 0.56003 0.85506 0.0
H3170 H 0.98604 0.5555 0.68339 0.0
H3171 H 0.03155 0.60214 0.84175 0.0
H3172 H 0.99046 0.55843 0.79274 0.0
H3173 H 0.02179 0.60169 0.73552 0.0
C3174 C 0.01142 0.59089 0.68874 0.0
C3175 C 1.00135 0.5779 0.67302 0.0
C3176 C 0.99952 0.56799 0.80338 0.0
C3177 C 0.00633 0.57915 0.74435 0.0
C3178 C 1.00176 0.56893 0.83898 0.0
C3179 C 0.0133 0.58127 0.85367 0.0
C3180 C 0.00879 0.57953 0.7822 0.0
C3181 C 0.02258 0.59239 0.83153 0.0
C3182 C 0.01398 0.59154 0.72415 0.0
C3183 C 0.99381 0.56578 0.69424 0.0
N3184 N 0.02006 0.59131 0.79696 0.0
N3185 N 0.99646 0.5667 0.72875 0.0
H3186 H 0.45538 0.43094 0.68741 0.0
H3187 H 0.40726 0.43051 0.84614 0.0
H3188 H 0.41025 0.41746 0.67925 0.0
H3189 H 0.44885 0.4341 0.85924 0.0
H3190 H 0.4092 0.42815 0.78387 0.0
H3191 H 0.45399 0.43385 0.7497 0.0
C3192 C 0.44517 0.42849 0.69862 0.0
C3193 C 0.43296 0.42406 0.67775 0.0
C3194 C 0.41792 0.42948 0.80036 0.0
C3195 C 0.43137 0.42765 0.74909 0.0
C3196 C 0.41687 0.43096 0.83589 0.0
C3197 C 0.42788 0.43246 0.85799 0.0
C3198 C 0.43013 0.42963 0.78668 0.0
C3199 C 0.44002 0.43279 0.84322 0.0
C3200 C 0.44441 0.43026 0.7342 0.0
C3201 C 0.42006 0.42122 0.69395 0.0
N3202 N 0.44082 0.43139 0.80855 0.0
N3203 N 0.41963 0.42313 0.72847 0.0
loop_
_geom_bond_atom_site_label_1
_geom_bond_atom_site_label_2
_geom_bond_distance
_geom_bond_site_symmetry_2
_ccdc_geom_bond_type
C0 C1 1.443 . S
C0 N4 1.376 . S
C0 C38 1.389 . S
C1 C0 1.443 . S
C1 C2 1.340 . S
C1 H41 0.951 . S
C2 C1 1.340 . S
C2 C3 1.439 . S
C2 H42 0.950 . S
C3 C2 1.439 . S
C3 N4 1.374 . S
C3 C37 1.395 . S
N4 C0 1.376 . S
N4 C3 1.374 . S
N4 Co5 2.008 . S
Co5 N4 2.008 . S
Co5 N6 1.995 . S
Co5 N11 2.008 . S
Co5 N16 1.995 . S
Co5 N21 2.282 . S
Co5 N27 2.282 . S
N6 Co5 1.995 . S
N6 C7 1.376 . S
N6 C10 1.383 . S
C7 N6 1.376 . S
C7 C8 1.446 . S
C7 C37 1.391 . S
C8 C7 1.446 . S
C8 C9 1.339 . S
C8 H43 0.949 . S
C9 C8 1.339 . S
C9 C10 1.439 . S
C9 H44 0.950 . S
C10 N6 1.383 . S
C10 C9 1.439 . S
C10 C39 1.392 . S
N11 Co5 2.008 . S
N11 C12 1.376 . S
N11 C15 1.374 . S
C12 N11 1.376 . S
C12 C13 1.443 . S
C12 C39 1.389 . S
C13 C12 1.443 . S
C13 C14 1.340 . S
C13 H45 0.951 . S
C14 C13 1.340 . S
C14 C15 1.439 . S
C14 H46 0.950 . S
C15 N11 1.374 . S
C15 C14 1.439 . S
C15 C40 1.395 . S
N16 Co5 1.995 . S
N16 C17 1.376 . S
N16 C20 1.383 . S
C17 N16 1.376 . S
C17 C18 1.446 . S
C17 C40 1.391 . S
C18 C17 1.446 . S
C18 C19 1.339 . S
C18 H47 0.949 . S
C19 C18 1.339 . S
C19 C20 1.439 . S
C19 H48 0.950 . S
C20 N16 1.383 . S
C20 C19 1.439 . S
C20 C38 1.392 . S
N21 Co5 2.282 . S
N21 C24 1.332 . S
N21 C26 1.332 . S
C22 C23 1.386 . S
C22 C25 1.388 . S
C23 C22 1.386 . S
C23 C24 1.382 . S
C23 H49 0.950 . S
C24 N21 1.332 . S
C24 C23 1.382 . S
C24 H35 0.952 . S
C25 C22 1.388 . S
C25 C26 1.382 . S
C25 H50 0.950 . S
C26 N21 1.332 . S
C26 C25 1.382 . S
C26 H36 0.948 . S
N27 Co5 2.282 . S
N27 C31 1.332 . S
N27 C32 1.332 . S
C28 C29 1.388 . S
C28 C32 1.382 . S
C28 H51 0.950 . S
C29 C28 1.388 . S
C29 C30 1.386 . S
C30 C29 1.386 . S
C30 C31 1.382 . S
C30 H52 0.950 . S
C31 N27 1.332 . S
C31 C30 1.382 . S
C31 H33 0.952 . S
C32 N27 1.332 . S
C32 C28 1.382 . S
C32 H34 0.948 . S
H33 C31 0.952 . S
H34 C32 0.948 . S
H35 C24 0.952 . S
H36 C26 0.948 . S
C37 C3 1.395 . S
C37 C7 1.391 . S
C38 C0 1.389 . S
C38 C20 1.392 . S
C39 C10 1.392 . S
C39 C12 1.389 . S
C40 C15 1.395 . S
C40 C17 1.391 . S
H41 C1 0.951 . S
H42 C2 0.950 . S
H43 C8 0.949 . S
H44 C9 0.950 . S
H45 C13 0.951 . S
H46 C14 0.950 . S
H47 C18 0.949 . S
H48 C19 0.950 . S
H49 C23 0.950 . S
H50 C25 0.950 . S
H51 C28 0.950 . S
H52 C30 0.950 . S
C53 C54 1.443 . S
C53 N57 1.376 . S
C53 C91 1.389 . S
C54 C53 1.443 . S
C54 C55 1.340 . S
C54 H94 0.951 . S
C55 C54 1.340 . S
C55 C56 1.439 . S
C55 H95 0.950 . S
C56 C55 1.439 . S
C56 N57 1.374 . S
C56 C90 1.395 . S
N57 C53 1.376 . S
N57 C56 1.374 . S
N57 Co58 2.008 . S
Co58 N57 2.008 . S
Co58 N59 1.995 . S
Co58 N64 2.008 . S
Co58 N69 1.995 . S
Co58 N74 2.282 . S
Co58 N80 2.282 . S
N59 Co58 1.995 . S
N59 C60 1.376 . S
N59 C63 1.383 . S
C60 N59 1.376 . S
C60 C61 1.446 . S
C60 C90 1.391 . S
C61 C60 1.446 . S
C61 C62 1.339 . S
C61 H96 0.949 . S
C62 C61 1.339 . S
C62 C63 1.439 . S
C62 H97 0.950 . S
C63 N59 1.383 . S
C63 C62 1.439 . S
C63 C92 1.392 . S
N64 Co58 2.008 . S
N64 C65 1.376 . S
N64 C68 1.374 . S
C65 N64 1.376 . S
C65 C66 1.443 . S
C65 C92 1.389 . S
C66 C65 1.443 . S
C66 C67 1.340 . S
C66 H98 0.951 . S
C67 C66 1.340 . S
C67 C68 1.439 . S
C67 H99 0.950 . S
C68 N64 1.374 . S
C68 C67 1.439 . S
C68 C93 1.395 . S
N69 Co58 1.995 . S
N69 C70 1.376 . S
N69 C73 1.383 . S
C70 N69 1.376 . S
C70 C71 1.446 . S
C70 C93 1.391 . S
C71 C70 1.446 . S
C71 C72 1.339 . S
C71 H100 0.949 . S
C72 C71 1.339 . S
C72 C73 1.439 . S
C72 H101 0.950 . S
C73 N69 1.383 . S
C73 C72 1.439 . S
C73 C91 1.392 . S
N74 Co58 2.282 . S
N74 C77 1.332 . S
N74 C79 1.332 . S
C75 C76 1.386 . S
C75 C78 1.388 . S
C76 C75 1.386 . S
C76 C77 1.382 . S
C76 H102 0.950 . S
C77 N74 1.332 . S
C77 C76 1.382 . S
C77 H88 0.952 . S
C78 C75 1.388 . S
C78 C79 1.382 . S
C78 H103 0.950 . S
C79 N74 1.332 . S
C79 C78 1.382 . S
C79 H89 0.948 . S
N80 Co58 2.282 . S
N80 C84 1.332 . S
N80 C85 1.332 . S
C81 C82 1.388 . S
C81 C85 1.382 . S
C81 H104 0.950 . S
C82 C81 1.388 . S
C82 C83 1.386 . S
C83 C82 1.386 . S
C83 C84 1.382 . S
C83 H105 0.950 . S
C84 N80 1.332 . S
C84 C83 1.382 . S
C84 H86 0.952 . S
C85 N80 1.332 . S
C85 C81 1.382 . S
C85 H87 0.948 . S
H86 C84 0.952 . S
H87 C85 0.948 . S
H88 C77 0.952 . S
H89 C79 0.948 . S
C90 C56 1.395 . S
C90 C60 1.391 . S
C91 C53 1.389 . S
C91 C73 1.392 . S
C92 C63 1.392 . S
C92 C65 1.389 . S
C93 C68 1.395 . S
C93 C70 1.391 . S
H94 C54 0.951 . S
H95 C55 0.950 . S
H96 C61 0.949 . S
H97 C62 0.950 . S
H98 C66 0.951 . S
H99 C67 0.950 . S
H100 C71 0.949 . S
H101 C72 0.950 . S
H102 C76 0.950 . S
H103 C78 0.950 . S
H104 C81 0.950 . S
H105 C83 0.950 . S
C106 C107 1.443 . S
C106 N110 1.376 . S
C106 C144 1.389 . S
C107 C106 1.443 . S
C107 C108 1.340 . S
C107 H147 0.951 . S
C108 C107 1.340 . S
C108 C109 1.439 . S
C108 H148 0.950 . S
C109 C108 1.439 . S
C109 N110 1.374 . S
C109 C143 1.395 . S
N110 C106 1.376 . S
N110 C109 1.374 . S
N110 Co111 2.008 . S
Co111 N110 2.008 . S
Co111 N112 1.995 . S
Co111 N117 2.008 . S
Co111 N122 1.995 . S
Co111 N127 2.282 . S
Co111 N133 2.282 . S
N112 Co111 1.995 . S
N112 C113 1.376 . S
N112 C116 1.383 . S
C113 N112 1.376 . S
C113 C114 1.446 . S
C113 C143 1.391 . S
C114 C113 1.446 . S
C114 C115 1.339 . S
C114 H149 0.949 . S
C115 C114 1.339 . S
C115 C116 1.439 . S
C115 H150 0.950 . S
C116 N112 1.383 . S
C116 C115 1.439 . S
C116 C145 1.392 . S
N117 Co111 2.008 . S
N117 C118 1.376 . S
N117 C121 1.374 . S
C118 N117 1.376 . S
C118 C119 1.443 . S
C118 C145 1.389 . S
C119 C118 1.443 . S
C119 C120 1.340 . S
C119 H151 0.951 . S
C120 C119 1.340 . S
C120 C121 1.439 . S
C120 H152 0.950 . S
C121 N117 1.374 . S
C121 C120 1.439 . S
C121 C146 1.395 . S
N122 Co111 1.995 . S
N122 C123 1.376 . S
N122 C126 1.383 . S
C123 N122 1.376 . S
C123 C124 1.446 . S
C123 C146 1.391 . S
C124 C123 1.446 . S
C124 C125 1.339 . S
C124 H153 0.949 . S
C125 C124 1.339 . S
C125 C126 1.439 . S
C125 H154 0.950 . S
C126 N122 1.383 . S
C126 C125 1.439 . S
C126 C144 1.392 . S
N127 Co111 2.282 . S
N127 C130 1.332 . S
N127 C132 1.332 . S
C128 C129 1.386 . S
C128 C131 1.388 . S
C129 C128 1.386 . S
C129 C130 1.382 . S
C129 H155 0.950 . S
C130 N127 1.332 . S
C130 C129 1.382 . S
C130 H141 0.952 . S
C131 C128 1.388 . S
C131 C132 1.382 . S
C131 H156 0.950 . S
C132 N127 1.332 . S
C132 C131 1.382 . S
C132 H142 0.948 . S
N133 Co111 2.282 . S
N133 C137 1.332 . S
N133 C138 1.332 . S
C134 C135 1.388 . S
C134 C138 1.382 . S
C134 H157 0.950 . S
C135 C134 1.388 . S
C135 C136 1.386 . S
C136 C135 1.386 . S
C136 C137 1.382 . S
C136 H158 0.950 . S
C137 N133 1.332 . S
C137 C136 1.382 . S
C137 H139 0.952 . S
C138 N133 1.332 . S
C138 C134 1.382 . S
C138 H140 0.948 . S
H139 C137 0.952 . S
H140 C138 0.948 . S
H141 C130 0.952 . S
H142 C132 0.948 . S
C143 C109 1.395 . S
C143 C113 1.391 . S
C144 C106 1.389 . S
C144 C126 1.392 . S
C145 C116 1.392 . S
C145 C118 1.389 . S
C146 C121 1.395 . S
C146 C123 1.391 . S
H147 C107 0.951 . S
H148 C108 0.950 . S
H149 C114 0.949 . S
H150 C115 0.950 . S
H151 C119 0.951 . S
H152 C120 0.950 . S
H153 C124 0.949 . S
H154 C125 0.950 . S
H155 C129 0.950 . S
H156 C131 0.950 . S
H157 C134 0.950 . S
H158 C136 0.950 . S
C159 C160 1.443 . S
C159 N163 1.376 . S
C159 C197 1.389 . S
C160 C159 1.443 . S
C160 C161 1.340 . S
C160 H200 0.951 . S
C161 C160 1.340 . S
C161 C162 1.439 . S
C161 H201 0.950 . S
C162 C161 1.439 . S
C162 N163 1.374 . S
C162 C196 1.395 . S
N163 C159 1.376 . S
N163 C162 1.374 . S
N163 Co164 2.008 . S
Co164 N163 2.008 . S
Co164 N165 1.995 . S
Co164 N170 2.008 . S
Co164 N175 1.995 . S
Co164 N180 2.282 . S
Co164 N186 2.282 . S
N165 Co164 1.995 . S
N165 C166 1.376 . S
N165 C169 1.383 . S
C166 N165 1.376 . S
C166 C167 1.446 . S
C166 C196 1.391 . S
C167 C166 1.446 . S
C167 C168 1.339 . S
C167 H202 0.949 . S
C168 C167 1.339 . S
C168 C169 1.439 . S
C168 H203 0.950 . S
C169 N165 1.383 . S
C169 C168 1.439 . S
C169 C198 1.392 . S
N170 Co164 2.008 . S
N170 C171 1.376 . S
N170 C174 1.374 . S
C171 N170 1.376 . S
C171 C172 1.443 . S
C171 C198 1.389 . S
C172 C171 1.443 . S
C172 C173 1.340 . S
C172 H204 0.951 . S
C173 C172 1.340 . S
C173 C174 1.439 . S
C173 H205 0.950 . S
C174 N170 1.374 . S
C174 C173 1.439 . S
C174 C199 1.395 . S
N175 Co164 1.995 . S
N175 C176 1.376 . S
N175 C179 1.383 . S
C176 N175 1.376 . S
C176 C177 1.446 . S
C176 C199 1.391 . S
C177 C176 1.446 . S
C177 C178 1.339 . S
C177 H206 0.949 . S
C178 C177 1.339 . S
C178 C179 1.439 . S
C178 H207 0.950 . S
C179 N175 1.383 . S
C179 C178 1.439 . S
C179 C197 1.392 . S
N180 Co164 2.282 . S
N180 C183 1.332 . S
N180 C185 1.332 . S
C181 C182 1.386 . S
C181 C184 1.388 . S
C182 C181 1.386 . S
C182 C183 1.382 . S
C182 H208 0.950 . S
C183 N180 1.332 . S
C183 C182 1.382 . S
C183 H194 0.952 . S
C184 C181 1.388 . S
C184 C185 1.382 . S
C184 H209 0.950 . S
C185 N180 1.332 . S
C185 C184 1.382 . S
C185 H195 0.948 . S
N186 Co164 2.282 . S
N186 C190 1.332 . S
N186 C191 1.332 . S
C187 C188 1.388 . S
C187 C191 1.382 . S
C187 H210 0.950 . S
C188 C187 1.388 . S
C188 C189 1.386 . S
C189 C188 1.386 . S
C189 C190 1.382 . S
C189 H211 0.950 . S
C190 N186 1.332 . S
C190 C189 1.382 . S
C190 H192 0.952 . S
C191 N186 1.332 . S
C191 C187 1.382 . S
C191 H193 0.948 . S
H192 C190 0.952 . S
H193 C191 0.948 . S
H194 C183 0.952 . S
H195 C185 0.948 . S
C196 C162 1.395 . S
C196 C166 1.391 . S
C197 C159 1.389 . S
C197 C179 1.392 . S
C198 C169 1.392 . S
C198 C171 1.389 . S
C199 C174 1.395 . S
C199 C176 1.391 . S
H200 C160 0.951 . S
H201 C161 0.950 . S
H202 C167 0.949 . S
H203 C168 0.950 . S
H204 C172 0.951 . S
H205 C173 0.950 . S
H206 C177 0.949 . S
H207 C178 0.950 . S
H208 C182 0.950 . S
H209 C184 0.950 . S
H210 C187 0.950 . S
H211 C189 0.950 . S
C212 C213 1.443 . S
C212 N216 1.376 . S
C212 C250 1.389 . S
C213 C212 1.443 . S
C213 C214 1.340 . S
C213 H253 0.951 . S
C214 C213 1.340 . S
C214 C215 1.439 . S
C214 H254 0.950 . S
C215 C214 1.439 . S
C215 N216 1.374 . S
C215 C249 1.395 . S
N216 C212 1.376 . S
N216 C215 1.374 . S
N216 Co217 2.008 . S
Co217 N216 2.008 . S
Co217 N218 1.995 . S
Co217 N223 2.008 . S
Co217 N228 1.995 . S
Co217 N233 2.282 . S
Co217 N239 2.282 . S
N218 Co217 1.995 . S
N218 C219 1.376 . S
N218 C222 1.383 . S
C219 N218 1.376 . S
C219 C220 1.446 . S
C219 C249 1.391 . S
C220 C219 1.446 . S
C220 C221 1.339 . S
C220 H255 0.949 . S
C221 C220 1.339 . S
C221 C222 1.439 . S
C221 H256 0.950 . S
C222 N218 1.383 . S
C222 C221 1.439 . S
C222 C251 1.392 . S
N223 Co217 2.008 . S
N223 C224 1.376 . S
N223 C227 1.374 . S
C224 N223 1.376 . S
C224 C225 1.443 . S
C224 C251 1.389 . S
C225 C224 1.443 . S
C225 C226 1.340 . S
C225 H257 0.951 . S
C226 C225 1.340 . S
C226 C227 1.439 . S
C226 H258 0.950 . S
C227 N223 1.374 . S
C227 C226 1.439 . S
C227 C252 1.395 . S
N228 Co217 1.995 . S
N228 C229 1.376 . S
N228 C232 1.383 . S
C229 N228 1.376 . S
C229 C230 1.446 . S
C229 C252 1.391 . S
C230 C229 1.446 . S
C230 C231 1.339 . S
C230 H259 0.949 . S
C231 C230 1.339 . S
C231 C232 1.439 . S
C231 H260 0.950 . S
C232 N228 1.383 . S
C232 C231 1.439 . S
C232 C250 1.392 . S
N233 Co217 2.282 . S
N233 C236 1.332 . S
N233 C238 1.332 . S
C234 C235 1.386 . S
C234 C237 1.388 . S
C235 C234 1.386 . S
C235 C236 1.382 . S
C235 H261 0.950 . S
C236 N233 1.332 . S
C236 C235 1.382 . S
C236 H247 0.952 . S
C237 C234 1.388 . S
C237 C238 1.382 . S
C237 H262 0.950 . S
C238 N233 1.332 . S
C238 C237 1.382 . S
C238 H248 0.948 . S
N239 Co217 2.282 . S
N239 C243 1.332 . S
N239 C244 1.332 . S
C240 C241 1.388 . S
C240 C244 1.382 . S
C240 H263 0.950 . S
C241 C240 1.388 . S
C241 C242 1.386 . S
C242 C241 1.386 . S
C242 C243 1.382 . S
C242 H264 0.950 . S
C243 N239 1.332 . S
C243 C242 1.382 . S
C243 H245 0.952 . S
C244 N239 1.332 . S
C244 C240 1.382 . S
C244 H246 0.948 . S
H245 C243 0.952 . S
H246 C244 0.948 . S
H247 C236 0.952 . S
H248 C238 0.948 . S
C249 C215 1.395 . S
C249 C219 1.391 . S
C250 C212 1.389 . S
C250 C232 1.392 . S
C251 C222 1.392 . S
C251 C224 1.389 . S
C252 C227 1.395 . S
C252 C229 1.391 . S
H253 C213 0.951 . S
H254 C214 0.950 . S
H255 C220 0.949 . S
H256 C221 0.950 . S
H257 C225 0.951 . S
H258 C226 0.950 . S
H259 C230 0.949 . S
H260 C231 0.950 . S
H261 C235 0.950 . S
H262 C237 0.950 . S
H263 C240 0.950 . S
H264 C242 0.950 . S
C265 C266 1.443 . S
C265 N269 1.376 . S
C265 C303 1.389 . S
C266 C265 1.443 . S
C266 C267 1.340 . S
C266 H306 0.951 . S
C267 C266 1.340 . S
C267 C268 1.439 . S
C267 H307 0.950 . S
C268 C267 1.439 . S
C268 N269 1.374 . S
C268 C302 1.395 . S
N269 C265 1.376 . S
N269 C268 1.374 . S
N269 Co270 2.008 . S
Co270 N269 2.008 . S
Co270 N271 1.995 . S
Co270 N276 2.008 . S
Co270 N281 1.995 . S
Co270 N286 2.282 . S
Co270 N292 2.282 . S
N271 Co270 1.995 . S
N271 C272 1.376 . S
N271 C275 1.383 . S
C272 N271 1.376 . S
C272 C273 1.446 . S
C272 C302 1.391 . S
C273 C272 1.446 . S
C273 C274 1.339 . S
C273 H308 0.949 . S
C274 C273 1.339 . S
C274 C275 1.439 . S
C274 H309 0.950 . S
C275 N271 1.383 . S
C275 C274 1.439 . S
C275 C304 1.392 . S
N276 Co270 2.008 . S
N276 C277 1.376 . S
N276 C280 1.374 . S
C277 N276 1.376 . S
C277 C278 1.443 . S
C277 C304 1.389 . S
C278 C277 1.443 . S
C278 C279 1.340 . S
C278 H310 0.951 . S
C279 C278 1.340 . S
C279 C280 1.439 . S
C279 H311 0.950 . S
C280 N276 1.374 . S
C280 C279 1.439 . S
C280 C305 1.395 . S
N281 Co270 1.995 . S
N281 C282 1.376 . S
N281 C285 1.383 . S
C282 N281 1.376 . S
C282 C283 1.446 . S
C282 C305 1.391 . S
C283 C282 1.446 . S
C283 C284 1.339 . S
C283 H312 0.949 . S
C284 C283 1.339 . S
C284 C285 1.439 . S
C284 H313 0.950 . S
C285 N281 1.383 . S
C285 C284 1.439 . S
C285 C303 1.392 . S
N286 Co270 2.282 . S
N286 C289 1.332 . S
N286 C291 1.332 . S
C287 C288 1.386 . S
C287 C290 1.388 . S
C288 C287 1.386 . S
C288 C289 1.382 . S
C288 H314 0.950 . S
C289 N286 1.332 . S
C289 C288 1.382 . S
C289 H300 0.952 . S
C290 C287 1.388 . S
C290 C291 1.382 . S
C290 H315 0.950 . S
C291 N286 1.332 . S
C291 C290 1.382 . S
C291 H301 0.948 . S
N292 Co270 2.282 . S
N292 C296 1.332 . S
N292 C297 1.332 . S
C293 C294 1.388 . S
C293 C297 1.382 . S
C293 H316 0.950 . S
C294 C293 1.388 . S
C294 C295 1.386 . S
C295 C294 1.386 . S
C295 C296 1.382 . S
C295 H317 0.950 . S
C296 N292 1.332 . S
C296 C295 1.382 . S
C296 H298 0.952 . S
C297 N292 1.332 . S
C297 C293 1.382 . S
C297 H299 0.948 . S
H298 C296 0.952 . S
H299 C297 0.948 . S
H300 C289 0.952 . S
H301 C291 0.948 . S
C302 C268 1.395 . S
C302 C272 1.391 . S
C303 C265 1.389 . S
C303 C285 1.392 . S
C304 C275 1.392 . S
C304 C277 1.389 . S
C305 C280 1.395 . S
C305 C282 1.391 . S
H306 C266 0.951 . S
H307 C267 0.950 . S
H308 C273 0.949 . S
H309 C274 0.950 . S
H310 C278 0.951 . S
H311 C279 0.950 . S
H312 C283 0.949 . S
H313 C284 0.950 . S
H314 C288 0.950 . S
H315 C290 0.950 . S
H316 C293 0.950 . S
H317 C295 0.950 . S
C318 C319 1.443 . S
C318 N322 1.376 . S
C318 C356 1.389 . S
C319 C318 1.443 . S
C319 C320 1.340 . S
C319 H359 0.951 . S
C320 C319 1.340 . S
C320 C321 1.439 . S
C320 H360 0.950 . S
C321 C320 1.439 . S
C321 N322 1.374 . S
C321 C355 1.395 . S
N322 C318 1.376 . S
N322 C321 1.374 . S
N322 Co323 2.008 . S
Co323 N322 2.008 . S
Co323 N324 1.995 . S
Co323 N329 2.008 . S
Co323 N334 1.995 . S
Co323 N339 2.282 . S
Co323 N345 2.282 . S
N324 Co323 1.995 . S
N324 C325 1.376 . S
N324 C328 1.383 . S
C325 N324 1.376 . S
C325 C326 1.446 . S
C325 C355 1.391 . S
C326 C325 1.446 . S
C326 C327 1.339 . S
C326 H361 0.949 . S
C327 C326 1.339 . S
C327 C328 1.439 . S
C327 H362 0.950 . S
C328 N324 1.383 . S
C328 C327 1.439 . S
C328 C357 1.392 . S
N329 Co323 2.008 . S
N329 C330 1.376 . S
N329 C333 1.374 . S
C330 N329 1.376 . S
C330 C331 1.443 . S
C330 C357 1.389 . S
C331 C330 1.443 . S
C331 C332 1.340 . S
C331 H363 0.951 . S
C332 C331 1.340 . S
C332 C333 1.439 . S
C332 H364 0.950 . S
C333 N329 1.374 . S
C333 C332 1.439 . S
C333 C358 1.395 . S
N334 Co323 1.995 . S
N334 C335 1.376 . S
N334 C338 1.383 . S
C335 N334 1.376 . S
C335 C336 1.446 . S
C335 C358 1.391 . S
C336 C335 1.446 . S
C336 C337 1.339 . S
C336 H365 0.949 . S
C337 C336 1.339 . S
C337 C338 1.439 . S
C337 H366 0.950 . S
C338 N334 1.383 . S
C338 C337 1.439 . S
C338 C356 1.392 . S
N339 Co323 2.282 . S
N339 C342 1.332 . S
N339 C344 1.332 . S
C340 C341 1.386 . S
C340 C343 1.388 . S
C341 C340 1.386 . S
C341 C342 1.382 . S
C341 H367 0.950 . S
C342 N339 1.332 . S
C342 C341 1.382 . S
C342 H353 0.952 . S
C343 C340 1.388 . S
C343 C344 1.382 . S
C343 H368 0.950 . S
C344 N339 1.332 . S
C344 C343 1.382 . S
C344 H354 0.948 . S
N345 Co323 2.282 . S
N345 C349 1.332 . S
N345 C350 1.332 . S
C346 C347 1.388 . S
C346 C350 1.382 . S
C346 H369 0.950 . S
C347 C346 1.388 . S
C347 C348 1.386 . S
C348 C347 1.386 . S
C348 C349 1.382 . S
C348 H370 0.950 . S
C349 N345 1.332 . S
C349 C348 1.382 . S
C349 H351 0.952 . S
C350 N345 1.332 . S
C350 C346 1.382 . S
C350 H352 0.948 . S
H351 C349 0.952 . S
H352 C350 0.948 . S
H353 C342 0.952 . S
H354 C344 0.948 . S
C355 C321 1.395 . S
C355 C325 1.391 . S
C356 C318 1.389 . S
C356 C338 1.392 . S
C357 C328 1.392 . S
C357 C330 1.389 . S
C358 C333 1.395 . S
C358 C335 1.391 . S
H359 C319 0.951 . S
H360 C320 0.950 . S
H361 C326 0.949 . S
H362 C327 0.950 . S
H363 C331 0.951 . S
H364 C332 0.950 . S
H365 C336 0.949 . S
H366 C337 0.950 . S
H367 C341 0.950 . S
H368 C343 0.950 . S
H369 C346 0.950 . S
H370 C348 0.950 . S
C371 C372 1.443 . S
C371 N375 1.376 . S
C371 C409 1.389 . S
C372 C371 1.443 . S
C372 C373 1.340 . S
C372 H412 0.951 . S
C373 C372 1.340 . S
C373 C374 1.439 . S
C373 H413 0.950 . S
C374 C373 1.439 . S
C374 N375 1.374 . S
C374 C408 1.395 . S
N375 C371 1.376 . S
N375 C374 1.374 . S
N375 Co376 2.008 . S
Co376 N375 2.008 . S
Co376 N377 1.995 . S
Co376 N382 2.008 . S
Co376 N387 1.995 . S
Co376 N392 2.282 . S
Co376 N398 2.282 . S
N377 Co376 1.995 . S
N377 C378 1.376 . S
N377 C381 1.383 . S
C378 N377 1.376 . S
C378 C379 1.446 . S
C378 C408 1.391 . S
C379 C378 1.446 . S
C379 C380 1.339 . S
C379 H414 0.949 . S
C380 C379 1.339 . S
C380 C381 1.439 . S
C380 H415 0.950 . S
C381 N377 1.383 . S
C381 C380 1.439 . S
C381 C410 1.392 . S
N382 Co376 2.008 . S
N382 C383 1.376 . S
N382 C386 1.374 . S
C383 N382 1.376 . S
C383 C384 1.443 . S
C383 C410 1.389 . S
C384 C383 1.443 . S
C384 C385 1.340 . S
C384 H416 0.951 . S
C385 C384 1.340 . S
C385 C386 1.439 . S
C385 H417 0.950 . S
C386 N382 1.374 . S
C386 C385 1.439 . S
C386 C411 1.395 . S
N387 Co376 1.995 . S
N387 C388 1.376 . S
N387 C391 1.383 . S
C388 N387 1.376 . S
C388 C389 1.446 . S
C388 C411 1.391 . S
C389 C388 1.446 . S
C389 C390 1.339 . S
C389 H418 0.949 . S
C390 C389 1.339 . S
C390 C391 1.439 . S
C390 H419 0.950 . S
C391 N387 1.383 . S
C391 C390 1.439 . S
C391 C409 1.392 . S
N392 Co376 2.282 . S
N392 C395 1.332 . S
N392 C397 1.332 . S
C393 C394 1.386 . S
C393 C396 1.388 . S
C394 C393 1.386 . S
C394 C395 1.382 . S
C394 H420 0.950 . S
C395 N392 1.332 . S
C395 C394 1.382 . S
C395 H406 0.952 . S
C396 C393 1.388 . S
C396 C397 1.382 . S
C396 H421 0.950 . S
C397 N392 1.332 . S
C397 C396 1.382 . S
C397 H407 0.948 . S
N398 Co376 2.282 . S
N398 C402 1.332 . S
N398 C403 1.332 . S
C399 C400 1.388 . S
C399 C403 1.382 . S
C399 H422 0.950 . S
C400 C399 1.388 . S
C400 C401 1.386 . S
C401 C400 1.386 . S
C401 C402 1.382 . S
C401 H423 0.950 . S
C402 N398 1.332 . S
C402 C401 1.382 . S
C402 H404 0.952 . S
C403 N398 1.332 . S
C403 C399 1.382 . S
C403 H405 0.948 . S
H404 C402 0.952 . S
H405 C403 0.948 . S
H406 C395 0.952 . S
H407 C397 0.948 . S
C408 C374 1.395 . S
C408 C378 1.391 . S
C409 C371 1.389 . S
C409 C391 1.392 . S
C410 C381 1.392 . S
C410 C383 1.389 . S
C411 C386 1.395 . S
C411 C388 1.391 . S
H412 C372 0.951 . S
H413 C373 0.950 . S
H414 C379 0.949 . S
H415 C380 0.950 . S
H416 C384 0.951 . S
H417 C385 0.950 . S
H418 C389 0.949 . S
H419 C390 0.950 . S
H420 C394 0.950 . S
H421 C396 0.950 . S
H422 C399 0.950 . S
H423 C401 0.950 . S
C424 C425 1.443 . S
C424 N428 1.376 . S
C424 C462 1.389 . S
C425 C424 1.443 . S
C425 C426 1.340 . S
C425 H465 0.951 . S
C426 C425 1.340 . S
C426 C427 1.439 . S
C426 H466 0.950 . S
C427 C426 1.439 . S
C427 N428 1.374 . S
C427 C461 1.395 . S
N428 C424 1.376 . S
N428 C427 1.374 . S
N428 Co429 2.008 . S
Co429 N428 2.008 . S
Co429 N430 1.995 . S
Co429 N435 2.008 . S
Co429 N440 1.995 . S
Co429 N445 2.282 . S
Co429 N451 2.282 . S
N430 Co429 1.995 . S
N430 C431 1.376 . S
N430 C434 1.383 . S
C431 N430 1.376 . S
C431 C432 1.446 . S
C431 C461 1.391 . S
C432 C431 1.446 . S
C432 C433 1.339 . S
C432 H467 0.949 . S
C433 C432 1.339 . S
C433 C434 1.439 . S
C433 H468 0.950 . S
C434 N430 1.383 . S
C434 C433 1.439 . S
C434 C463 1.392 . S
N435 Co429 2.008 . S
N435 C436 1.376 . S
N435 C439 1.374 . S
C436 N435 1.376 . S
C436 C437 1.443 . S
C436 C463 1.389 . S
C437 C436 1.443 . S
C437 C438 1.340 . S
C437 H469 0.951 . S
C438 C437 1.340 . S
C438 C439 1.439 . S
C438 H470 0.950 . S
C439 N435 1.374 . S
C439 C438 1.439 . S
C439 C464 1.395 . S
N440 Co429 1.995 . S
N440 C441 1.376 . S
N440 C444 1.383 . S
C441 N440 1.376 . S
C441 C442 1.446 . S
C441 C464 1.391 . S
C442 C441 1.446 . S
C442 C443 1.339 . S
C442 H471 0.949 . S
C443 C442 1.339 . S
C443 C444 1.439 . S
C443 H472 0.950 . S
C444 N440 1.383 . S
C444 C443 1.439 . S
C444 C462 1.392 . S
N445 Co429 2.282 . S
N445 C448 1.332 . S
N445 C450 1.332 . S
C446 C447 1.386 . S
C446 C449 1.388 . S
C447 C446 1.386 . S
C447 C448 1.382 . S
C447 H473 0.950 . S
C448 N445 1.332 . S
C448 C447 1.382 . S
C448 H459 0.952 . S
C449 C446 1.388 . S
C449 C450 1.382 . S
C449 H474 0.950 . S
C450 N445 1.332 . S
C450 C449 1.382 . S
C450 H460 0.948 . S
N451 Co429 2.282 . S
N451 C455 1.332 . S
N451 C456 1.332 . S
C452 C453 1.388 . S
C452 C456 1.382 . S
C452 H475 0.950 . S
C453 C452 1.388 . S
C453 C454 1.386 . S
C454 C453 1.386 . S
C454 C455 1.382 . S
C454 H476 0.950 . S
C455 N451 1.332 . S
C455 C454 1.382 . S
C455 H457 0.952 . S
C456 N451 1.332 . S
C456 C452 1.382 . S
C456 H458 0.948 . S
H457 C455 0.952 . S
H458 C456 0.948 . S
H459 C448 0.952 . S
H460 C450 0.948 . S
C461 C427 1.395 . S
C461 C431 1.391 . S
C462 C424 1.389 . S
C462 C444 1.392 . S
C463 C434 1.392 . S
C463 C436 1.389 . S
C464 C439 1.395 . S
C464 C441 1.391 . S
H465 C425 0.951 . S
H466 C426 0.950 . S
H467 C432 0.949 . S
H468 C433 0.950 . S
H469 C437 0.951 . S
H470 C438 0.950 . S
H471 C442 0.949 . S
H472 C443 0.950 . S
H473 C447 0.950 . S
H474 C449 0.950 . S
H475 C452 0.950 . S
H476 C454 0.950 . S
C477 C478 1.443 . S
C477 N481 1.376 . S
C477 C515 1.389 . S
C478 C477 1.443 . S
C478 C479 1.340 . S
C478 H518 0.951 . S
C479 C478 1.340 . S
C479 C480 1.439 . S
C479 H519 0.950 . S
C480 C479 1.439 . S
C480 N481 1.374 . S
C480 C514 1.395 . S
N481 C477 1.376 . S
N481 C480 1.374 . S
N481 Co482 2.008 . S
Co482 N481 2.008 . S
Co482 N483 1.995 . S
Co482 N488 2.008 . S
Co482 N493 1.995 . S
Co482 N498 2.282 . S
Co482 N504 2.282 . S
N483 Co482 1.995 . S
N483 C484 1.376 . S
N483 C487 1.383 . S
C484 N483 1.376 . S
C484 C485 1.446 . S
C484 C514 1.391 . S
C485 C484 1.446 . S
C485 C486 1.339 . S
C485 H520 0.949 . S
C486 C485 1.339 . S
C486 C487 1.439 . S
C486 H521 0.950 . S
C487 N483 1.383 . S
C487 C486 1.439 . S
C487 C516 1.392 . S
N488 Co482 2.008 . S
N488 C489 1.376 . S
N488 C492 1.374 . S
C489 N488 1.376 . S
C489 C490 1.443 . S
C489 C516 1.389 . S
C490 C489 1.443 . S
C490 C491 1.340 . S
C490 H522 0.951 . S
C491 C490 1.340 . S
C491 C492 1.439 . S
C491 H523 0.950 . S
C492 N488 1.374 . S
C492 C491 1.439 . S
C492 C517 1.395 . S
N493 Co482 1.995 . S
N493 C494 1.376 . S
N493 C497 1.383 . S
C494 N493 1.376 . S
C494 C495 1.446 . S
C494 C517 1.391 . S
C495 C494 1.446 . S
C495 C496 1.339 . S
C495 H524 0.949 . S
C496 C495 1.339 . S
C496 C497 1.439 . S
C496 H525 0.950 . S
C497 N493 1.383 . S
C497 C496 1.439 . S
C497 C515 1.392 . S
N498 Co482 2.282 . S
N498 C501 1.332 . S
N498 C503 1.332 . S
C499 C500 1.386 . S
C499 C502 1.388 . S
C500 C499 1.386 . S
C500 C501 1.382 . S
C500 H526 0.950 . S
C501 N498 1.332 . S
C501 C500 1.382 . S
C501 H512 0.952 . S
C502 C499 1.388 . S
C502 C503 1.382 . S
C502 H527 0.950 . S
C503 N498 1.332 . S
C503 C502 1.382 . S
C503 H513 0.948 . S
N504 Co482 2.282 . S
N504 C508 1.332 . S
N504 C509 1.332 . S
C505 C506 1.388 . S
C505 C509 1.382 . S
C505 H528 0.950 . S
C506 C505 1.388 . S
C506 C507 1.386 . S
C507 C506 1.386 . S
C507 C508 1.382 . S
C507 H529 0.950 . S
C508 N504 1.332 . S
C508 C507 1.382 . S
C508 H510 0.952 . S
C509 N504 1.332 . S
C509 C505 1.382 . S
C509 H511 0.948 . S
H510 C508 0.952 . S
H511 C509 0.948 . S
H512 C501 0.952 . S
H513 C503 0.948 . S
C514 C480 1.395 . S
C514 C484 1.391 . S
C515 C477 1.389 . S
C515 C497 1.392 . S
C516 C487 1.392 . S
C516 C489 1.389 . S
C517 C492 1.395 . S
C517 C494 1.391 . S
H518 C478 0.951 . S
H519 C479 0.950 . S
H520 C485 0.949 . S
H521 C486 0.950 . S
H522 C490 0.951 . S
H523 C491 0.950 . S
H524 C495 0.949 . S
H525 C496 0.950 . S
H526 C500 0.950 . S
H527 C502 0.950 . S
H528 C505 0.950 . S
H529 C507 0.950 . S
C530 C531 1.443 . S
C530 N534 1.376 . S
C530 C568 1.389 . S
C531 C530 1.443 . S
C531 C532 1.340 . S
C531 H571 0.951 . S
C532 C531 1.340 . S
C532 C533 1.439 . S
C532 H572 0.950 . S
C533 C532 1.439 . S
C533 N534 1.374 . S
C533 C567 1.395 . S
N534 C530 1.376 . S
N534 C533 1.374 . S
N534 Co535 2.008 . S
Co535 N534 2.008 . S
Co535 N536 1.995 . S
Co535 N541 2.008 . S
Co535 N546 1.995 . S
Co535 N551 2.282 . S
Co535 N557 2.282 . S
N536 Co535 1.995 . S
N536 C537 1.376 . S
N536 C540 1.383 . S
C537 N536 1.376 . S
C537 C538 1.446 . S
C537 C567 1.391 . S
C538 C537 1.446 . S
C538 C539 1.339 . S
C538 H573 0.949 . S
C539 C538 1.339 . S
C539 C540 1.439 . S
C539 H574 0.950 . S
C540 N536 1.383 . S
C540 C539 1.439 . S
C540 C569 1.392 . S
N541 Co535 2.008 . S
N541 C542 1.376 . S
N541 C545 1.374 . S
C542 N541 1.376 . S
C542 C543 1.443 . S
C542 C569 1.389 . S
C543 C542 1.443 . S
C543 C544 1.340 . S
C543 H575 0.951 . S
C544 C543 1.340 . S
C544 C545 1.439 . S
C544 H576 0.950 . S
C545 N541 1.374 . S
C545 C544 1.439 . S
C545 C570 1.395 . S
N546 Co535 1.995 . S
N546 C547 1.376 . S
N546 C550 1.383 . S
C547 N546 1.376 . S
C547 C548 1.446 . S
C547 C570 1.391 . S
C548 C547 1.446 . S
C548 C549 1.339 . S
C548 H577 0.949 . S
C549 C548 1.339 . S
C549 C550 1.439 . S
C549 H578 0.950 . S
C550 N546 1.383 . S
C550 C549 1.439 . S
C550 C568 1.392 . S
N551 Co535 2.282 . S
N551 C554 1.332 . S
N551 C556 1.332 . S
C552 C553 1.386 . S
C552 C555 1.388 . S
C553 C552 1.386 . S
C553 C554 1.382 . S
C553 H579 0.950 . S
C554 N551 1.332 . S
C554 C553 1.382 . S
C554 H565 0.952 . S
C555 C552 1.388 . S
C555 C556 1.382 . S
C555 H580 0.950 . S
C556 N551 1.332 . S
C556 C555 1.382 . S
C556 H566 0.948 . S
N557 Co535 2.282 . S
N557 C561 1.332 . S
N557 C562 1.332 . S
C558 C559 1.388 . S
C558 C562 1.382 . S
C558 H581 0.950 . S
C559 C558 1.388 . S
C559 C560 1.386 . S
C560 C559 1.386 . S
C560 C561 1.382 . S
C560 H582 0.950 . S
C561 N557 1.332 . S
C561 C560 1.382 . S
C561 H563 0.952 . S
C562 N557 1.332 . S
C562 C558 1.382 . S
C562 H564 0.948 . S
H563 C561 0.952 . S
H564 C562 0.948 . S
H565 C554 0.952 . S
H566 C556 0.948 . S
C567 C533 1.395 . S
C567 C537 1.391 . S
C568 C530 1.389 . S
C568 C550 1.392 . S
C569 C540 1.392 . S
C569 C542 1.389 . S
C570 C545 1.395 . S
C570 C547 1.391 . S
H571 C531 0.951 . S
H572 C532 0.950 . S
H573 C538 0.949 . S
H574 C539 0.950 . S
H575 C543 0.951 . S
H576 C544 0.950 . S
H577 C548 0.949 . S
H578 C549 0.950 . S
H579 C553 0.950 . S
H580 C555 0.950 . S
H581 C558 0.950 . S
H582 C560 0.950 . S
C583 C584 1.443 . S
C583 N587 1.376 . S
C583 C621 1.389 . S
C584 C583 1.443 . S
C584 C585 1.340 . S
C584 H624 0.951 . S
C585 C584 1.340 . S
C585 C586 1.439 . S
C585 H625 0.950 . S
C586 C585 1.439 . S
C586 N587 1.374 . S
C586 C620 1.395 . S
N587 C583 1.376 . S
N587 C586 1.374 . S
N587 Co588 2.008 . S
Co588 N587 2.008 . S
Co588 N589 1.995 . S
Co588 N594 2.008 . S
Co588 N599 1.995 . S
Co588 N604 2.282 . S
Co588 N610 2.282 . S
N589 Co588 1.995 . S
N589 C590 1.376 . S
N589 C593 1.383 . S
C590 N589 1.376 . S
C590 C591 1.446 . S
C590 C620 1.391 . S
C591 C590 1.446 . S
C591 C592 1.339 . S
C591 H626 0.949 . S
C592 C591 1.339 . S
C592 C593 1.439 . S
C592 H627 0.950 . S
C593 N589 1.383 . S
C593 C592 1.439 . S
C593 C622 1.392 . S
N594 Co588 2.008 . S
N594 C595 1.376 . S
N594 C598 1.374 . S
C595 N594 1.376 . S
C595 C596 1.443 . S
C595 C622 1.389 . S
C596 C595 1.443 . S
C596 C597 1.340 . S
C596 H628 0.951 . S
C597 C596 1.340 . S
C597 C598 1.439 . S
C597 H629 0.950 . S
C598 N594 1.374 . S
C598 C597 1.439 . S
C598 C623 1.395 . S
N599 Co588 1.995 . S
N599 C600 1.376 . S
N599 C603 1.383 . S
C600 N599 1.376 . S
C600 C601 1.446 . S
C600 C623 1.391 . S
C601 C600 1.446 . S
C601 C602 1.339 . S
C601 H630 0.949 . S
C602 C601 1.339 . S
C602 C603 1.439 . S
C602 H631 0.950 . S
C603 N599 1.383 . S
C603 C602 1.439 . S
C603 C621 1.392 . S
N604 Co588 2.282 . S
N604 C607 1.332 . S
N604 C609 1.332 . S
C605 C606 1.386 . S
C605 C608 1.388 . S
C606 C605 1.386 . S
C606 C607 1.382 . S
C606 H632 0.950 . S
C607 N604 1.332 . S
C607 C606 1.382 . S
C607 H618 0.952 . S
C608 C605 1.388 . S
C608 C609 1.382 . S
C608 H633 0.950 . S
C609 N604 1.332 . S
C609 C608 1.382 . S
C609 H619 0.948 . S
N610 Co588 2.282 . S
N610 C614 1.332 . S
N610 C615 1.332 . S
C611 C612 1.388 . S
C611 C615 1.382 . S
C611 H634 0.950 . S
C612 C611 1.388 . S
C612 C613 1.386 . S
C613 C612 1.386 . S
C613 C614 1.382 . S
C613 H635 0.950 . S
C614 N610 1.332 . S
C614 C613 1.382 . S
C614 H616 0.952 . S
C615 N610 1.332 . S
C615 C611 1.382 . S
C615 H617 0.948 . S
H616 C614 0.952 . S
H617 C615 0.948 . S
H618 C607 0.952 . S
H619 C609 0.948 . S
C620 C586 1.395 . S
C620 C590 1.391 . S
C621 C583 1.389 . S
C621 C603 1.392 . S
C622 C593 1.392 . S
C622 C595 1.389 . S
C623 C598 1.395 . S
C623 C600 1.391 . S
H624 C584 0.951 . S
H625 C585 0.950 . S
H626 C591 0.949 . S
H627 C592 0.950 . S
H628 C596 0.951 . S
H629 C597 0.950 . S
H630 C601 0.949 . S
H631 C602 0.950 . S
H632 C606 0.950 . S
H633 C608 0.950 . S
H634 C611 0.950 . S
H635 C613 0.950 . S
C636 C637 1.443 . S
C636 N640 1.376 . S
C636 C674 1.389 . S
C637 C636 1.443 . S
C637 C638 1.340 . S
C637 H677 0.951 . S
C638 C637 1.340 . S
C638 C639 1.439 . S
C638 H678 0.950 . S
C639 C638 1.439 . S
C639 N640 1.374 . S
C639 C673 1.395 . S
N640 C636 1.376 . S
N640 C639 1.374 . S
N640 Co641 2.008 . S
Co641 N640 2.008 . S
Co641 N642 1.995 . S
Co641 N647 2.008 1_455 S
Co641 N652 1.995 1_455 S
Co641 N657 2.282 . S
Co641 N663 2.282 . S
N642 Co641 1.995 . S
N642 C643 1.376 . S
N642 C646 1.383 . S
C643 N642 1.376 . S
C643 C644 1.446 . S
C643 C673 1.391 . S
C644 C643 1.446 . S
C644 C645 1.339 . S
C644 H679 0.949 . S
C645 C644 1.339 . S
C645 C646 1.439 . S
C645 H680 0.950 . S
C646 N642 1.383 . S
C646 C645 1.439 . S
C646 C675 1.392 1_455 S
N647 Co641 2.008 1_655 S
N647 C648 1.376 . S
N647 C651 1.374 . S
C648 N647 1.376 . S
C648 C649 1.443 . S
C648 C675 1.389 . S
C649 C648 1.443 . S
C649 C650 1.340 . S
C649 H681 0.951 . S
C650 C649 1.340 . S
C650 C651 1.439 . S
C650 H682 0.950 . S
C651 N647 1.374 . S
C651 C650 1.439 . S
C651 C676 1.395 . S
N652 Co641 1.995 1_655 S
N652 C653 1.376 . S
N652 C656 1.383 . S
C653 N652 1.376 . S
C653 C654 1.446 . S
C653 C676 1.391 . S
C654 C653 1.446 . S
C654 C655 1.339 . S
C654 H683 0.949 . S
C655 C654 1.339 . S
C655 C656 1.439 . S
C655 H684 0.950 . S
C656 N652 1.383 . S
C656 C655 1.439 . S
C656 C674 1.392 1_655 S
N657 Co641 2.282 . S
N657 C660 1.332 1_455 S
N657 C662 1.332 . S
C658 C659 1.386 1_455 S
C658 C661 1.388 . S
C659 C658 1.386 1_655 S
C659 C660 1.382 . S
C659 H685 0.950 . S
C660 N657 1.332 1_655 S
C660 C659 1.382 . S
C660 H671 0.952 . S
C661 C658 1.388 . S
C661 C662 1.382 . S
C661 H686 0.950 . S
C662 N657 1.332 . S
C662 C661 1.382 . S
C662 H672 0.948 . S
N663 Co641 2.282 . S
N663 C667 1.332 . S
N663 C668 1.332 1_455 S
C664 C665 1.388 1_655 S
C664 C668 1.382 . S
C664 H687 0.950 . S
C665 C664 1.388 1_455 S
C665 C666 1.386 . S
C666 C665 1.386 . S
C666 C667 1.382 . S
C666 H688 0.950 . S
C667 N663 1.332 . S
C667 C666 1.382 . S
C667 H669 0.952 . S
C668 N663 1.332 1_655 S
C668 C664 1.382 . S
C668 H670 0.948 . S
H669 C667 0.952 . S
H670 C668 0.948 . S
H671 C660 0.952 . S
H672 C662 0.948 . S
C673 C639 1.395 . S
C673 C643 1.391 . S
C674 C636 1.389 . S
C674 C656 1.392 1_455 S
C675 C646 1.392 1_655 S
C675 C648 1.389 . S
C676 C651 1.395 . S
C676 C653 1.391 . S
H677 C637 0.951 . S
H678 C638 0.950 . S
H679 C644 0.949 . S
H680 C645 0.950 . S
H681 C649 0.951 . S
H682 C650 0.950 . S
H683 C654 0.949 . S
H684 C655 0.950 . S
H685 C659 0.950 . S
H686 C661 0.950 . S
H687 C664 0.950 . S
H688 C666 0.950 . S
C689 C690 1.443 . S
C689 N693 1.376 . S
C689 C727 1.389 . S
C690 C689 1.443 . S
C690 C691 1.340 . S
C690 H730 0.951 . S
C691 C690 1.340 . S
C691 C692 1.439 . S
C691 H731 0.950 . S
C692 C691 1.439 . S
C692 N693 1.374 . S
C692 C726 1.395 . S
N693 C689 1.376 . S
N693 C692 1.374 . S
N693 Co694 2.008 . S
Co694 N693 2.008 . S
Co694 N695 1.995 . S
Co694 N700 2.008 . S
Co694 N705 1.995 . S
Co694 N710 2.282 . S
Co694 N716 2.282 . S
N695 Co694 1.995 . S
N695 C696 1.376 . S
N695 C699 1.383 . S
C696 N695 1.376 . S
C696 C697 1.446 . S
C696 C726 1.391 . S
C697 C696 1.446 . S
C697 C698 1.339 . S
C697 H732 0.949 . S
C698 C697 1.339 . S
C698 C699 1.439 . S
C698 H733 0.950 . S
C699 N695 1.383 . S
C699 C698 1.439 . S
C699 C728 1.392 . S
N700 Co694 2.008 . S
N700 C701 1.376 . S
N700 C704 1.374 . S
C701 N700 1.376 . S
C701 C702 1.443 . S
C701 C728 1.389 . S
C702 C701 1.443 . S
C702 C703 1.340 . S
C702 H734 0.951 . S
C703 C702 1.340 . S
C703 C704 1.439 . S
C703 H735 0.950 . S
C704 N700 1.374 . S
C704 C703 1.439 . S
C704 C729 1.395 . S
N705 Co694 1.995 . S
N705 C706 1.376 . S
N705 C709 1.383 . S
C706 N705 1.376 . S
C706 C707 1.446 . S
C706 C729 1.391 . S
C707 C706 1.446 . S
C707 C708 1.339 . S
C707 H736 0.949 . S
C708 C707 1.339 . S
C708 C709 1.439 . S
C708 H737 0.950 . S
C709 N705 1.383 . S
C709 C708 1.439 . S
C709 C727 1.392 . S
N710 Co694 2.282 . S
N710 C713 1.332 . S
N710 C715 1.332 . S
C711 C712 1.386 . S
C711 C714 1.388 . S
C712 C711 1.386 . S
C712 C713 1.382 . S
C712 H738 0.950 . S
C713 N710 1.332 . S
C713 C712 1.382 . S
C713 H724 0.952 . S
C714 C711 1.388 . S
C714 C715 1.382 . S
C714 H739 0.950 . S
C715 N710 1.332 . S
C715 C714 1.382 . S
C715 H725 0.948 . S
N716 Co694 2.282 . S
N716 C720 1.332 . S
N716 C721 1.332 . S
C717 C718 1.388 . S
C717 C721 1.382 . S
C717 H740 0.950 . S
C718 C717 1.388 . S
C718 C719 1.386 . S
C719 C718 1.386 . S
C719 C720 1.382 . S
C719 H741 0.950 . S
C720 N716 1.332 . S
C720 C719 1.382 . S
C720 H722 0.952 . S
C721 N716 1.332 . S
C721 C717 1.382 . S
C721 H723 0.948 . S
H722 C720 0.952 . S
H723 C721 0.948 . S
H724 C713 0.952 . S
H725 C715 0.948 . S
C726 C692 1.395 . S
C726 C696 1.391 . S
C727 C689 1.389 . S
C727 C709 1.392 . S
C728 C699 1.392 . S
C728 C701 1.389 . S
C729 C704 1.395 . S
C729 C706 1.391 . S
H730 C690 0.951 . S
H731 C691 0.950 . S
H732 C697 0.949 . S
H733 C698 0.950 . S
H734 C702 0.951 . S
H735 C703 0.950 . S
H736 C707 0.949 . S
H737 C708 0.950 . S
H738 C712 0.950 . S
H739 C714 0.950 . S
H740 C717 0.950 . S
H741 C719 0.950 . S
C742 C743 1.443 . S
C742 N746 1.376 . S
C742 C780 1.389 . S
C743 C742 1.443 . S
C743 C744 1.340 . S
C743 H783 0.951 . S
C744 C743 1.340 . S
C744 C745 1.439 . S
C744 H784 0.950 . S
C745 C744 1.439 . S
C745 N746 1.374 . S
C745 C779 1.395 . S
N746 C742 1.376 . S
N746 C745 1.374 . S
N746 Co747 2.008 . S
Co747 N746 2.008 . S
Co747 N748 1.995 . S
Co747 N753 2.008 1_565 S
Co747 N758 1.995 1_565 S
Co747 N763 2.282 . S
Co747 N769 2.282 . S
N748 Co747 1.995 . S
N748 C749 1.376 . S
N748 C752 1.383 . S
C749 N748 1.376 . S
C749 C750 1.446 . S
C749 C779 1.391 . S
C750 C749 1.446 . S
C750 C751 1.339 . S
C750 H785 0.949 . S
C751 C750 1.339 . S
C751 C752 1.439 . S
C751 H786 0.950 . S
C752 N748 1.383 . S
C752 C751 1.439 . S
C752 C781 1.392 1_565 S
N753 Co747 2.008 1_545 S
N753 C754 1.376 . S
N753 C757 1.374 . S
C754 N753 1.376 . S
C754 C755 1.443 . S
C754 C781 1.389 . S
C755 C754 1.443 . S
C755 C756 1.340 . S
C755 H787 0.951 . S
C756 C755 1.340 . S
C756 C757 1.439 . S
C756 H788 0.950 . S
C757 N753 1.374 . S
C757 C756 1.439 . S
C757 C782 1.395 . S
N758 Co747 1.995 1_545 S
N758 C759 1.376 . S
N758 C762 1.383 . S
C759 N758 1.376 . S
C759 C760 1.446 . S
C759 C782 1.391 . S
C760 C759 1.446 . S
C760 C761 1.339 . S
C760 H789 0.949 . S
C761 C760 1.339 . S
C761 C762 1.439 . S
C761 H790 0.950 . S
C762 N758 1.383 . S
C762 C761 1.439 . S
C762 C780 1.392 1_545 S
N763 Co747 2.282 . S
N763 C766 1.332 1_565 S
N763 C768 1.332 . S
C764 C765 1.386 1_565 S
C764 C767 1.388 . S
C765 C764 1.386 1_545 S
C765 C766 1.382 . S
C765 H791 0.950 . S
C766 N763 1.332 1_545 S
C766 C765 1.382 . S
C766 H777 0.952 . S
C767 C764 1.388 . S
C767 C768 1.382 . S
C767 H792 0.950 . S
C768 N763 1.332 . S
C768 C767 1.382 . S
C768 H778 0.948 . S
N769 Co747 2.282 . S
N769 C773 1.332 . S
N769 C774 1.332 1_565 S
C770 C771 1.388 1_545 S
C770 C774 1.382 . S
C770 H793 0.950 . S
C771 C770 1.388 1_565 S
C771 C772 1.386 . S
C772 C771 1.386 . S
C772 C773 1.382 . S
C772 H794 0.950 . S
C773 N769 1.332 . S
C773 C772 1.382 . S
C773 H775 0.952 . S
C774 N769 1.332 1_545 S
C774 C770 1.382 . S
C774 H776 0.948 . S
H775 C773 0.952 . S
H776 C774 0.948 . S
H777 C766 0.952 . S
H778 C768 0.948 . S
C779 C745 1.395 . S
C779 C749 1.391 . S
C780 C742 1.389 . S
C780 C762 1.392 1_565 S
C781 C752 1.392 1_545 S
C781 C754 1.389 . S
C782 C757 1.395 . S
C782 C759 1.391 . S
H783 C743 0.951 . S
H784 C744 0.950 . S
H785 C750 0.949 . S
H786 C751 0.950 . S
H787 C755 0.951 . S
H788 C756 0.950 . S
H789 C760 0.949 . S
H790 C761 0.950 . S
H791 C765 0.950 . S
H792 C767 0.950 . S
H793 C770 0.950 . S
H794 C772 0.950 . S
C795 C796 1.443 . S
C795 N799 1.376 . S
C795 C833 1.389 . S
C796 C795 1.443 . S
C796 C797 1.340 . S
C796 H836 0.951 . S
C797 C796 1.340 . S
C797 C798 1.439 . S
C797 H837 0.950 . S
C798 C797 1.439 . S
C798 N799 1.374 . S
C798 C832 1.395 . S
N799 C795 1.376 . S
N799 C798 1.374 . S
N799 Co800 2.008 . S
Co800 N799 2.008 . S
Co800 N801 1.995 . S
Co800 N806 2.008 . S
Co800 N811 1.995 . S
Co800 N816 2.282 . S
Co800 N822 2.282 . S
N801 Co800 1.995 . S
N801 C802 1.376 . S
N801 C805 1.383 . S
C802 N801 1.376 . S
C802 C803 1.446 . S
C802 C832 1.391 . S
C803 C802 1.446 . S
C803 C804 1.339 . S
C803 H838 0.949 . S
C804 C803 1.339 . S
C804 C805 1.439 . S
C804 H839 0.950 . S
C805 N801 1.383 . S
C805 C804 1.439 . S
C805 C834 1.392 . S
N806 Co800 2.008 . S
N806 C807 1.376 . S
N806 C810 1.374 . S
C807 N806 1.376 . S
C807 C808 1.443 . S
C807 C834 1.389 . S
C808 C807 1.443 . S
C808 C809 1.340 . S
C808 H840 0.951 . S
C809 C808 1.340 . S
C809 C810 1.439 . S
C809 H841 0.950 . S
C810 N806 1.374 . S
C810 C809 1.439 . S
C810 C835 1.395 . S
N811 Co800 1.995 . S
N811 C812 1.376 . S
N811 C815 1.383 . S
C812 N811 1.376 . S
C812 C813 1.446 . S
C812 C835 1.391 . S
C813 C812 1.446 . S
C813 C814 1.339 . S
C813 H842 0.949 . S
C814 C813 1.339 . S
C814 C815 1.439 . S
C814 H843 0.950 . S
C815 N811 1.383 . S
C815 C814 1.439 . S
C815 C833 1.392 . S
N816 Co800 2.282 . S
N816 C819 1.332 . S
N816 C821 1.332 . S
C817 C818 1.386 . S
C817 C820 1.388 . S
C818 C817 1.386 . S
C818 C819 1.382 . S
C818 H844 0.950 . S
C819 N816 1.332 . S
C819 C818 1.382 . S
C819 H830 0.952 . S
C820 C817 1.388 . S
C820 C821 1.382 . S
C820 H845 0.950 . S
C821 N816 1.332 . S
C821 C820 1.382 . S
C821 H831 0.948 . S
N822 Co800 2.282 . S
N822 C826 1.332 . S
N822 C827 1.332 . S
C823 C824 1.388 . S
C823 C827 1.382 . S
C823 H846 0.950 . S
C824 C823 1.388 . S
C824 C825 1.386 . S
C825 C824 1.386 . S
C825 C826 1.382 . S
C825 H847 0.950 . S
C826 N822 1.332 . S
C826 C825 1.382 . S
C826 H828 0.952 . S
C827 N822 1.332 . S
C827 C823 1.382 . S
C827 H829 0.948 . S
H828 C826 0.952 . S
H829 C827 0.948 . S
H830 C819 0.952 . S
H831 C821 0.948 . S
C832 C798 1.395 . S
C832 C802 1.391 . S
C833 C795 1.389 . S
C833 C815 1.392 . S
C834 C805 1.392 . S
C834 C807 1.389 . S
C835 C810 1.395 . S
C835 C812 1.391 . S
H836 C796 0.951 . S
H837 C797 0.950 . S
H838 C803 0.949 . S
H839 C804 0.950 . S
H840 C808 0.951 . S
H841 C809 0.950 . S
H842 C813 0.949 . S
H843 C814 0.950 . S
H844 C818 0.950 . S
H845 C820 0.950 . S
H846 C823 0.950 . S
H847 C825 0.950 . S
C848 C849 1.443 . S
C848 N852 1.376 . S
C848 C886 1.389 . S
C849 C848 1.443 . S
C849 C850 1.340 . S
C849 H889 0.951 . S
C850 C849 1.340 . S
C850 C851 1.439 . S
C850 H890 0.950 . S
C851 C850 1.439 . S
C851 N852 1.374 . S
C851 C885 1.395 . S
N852 C848 1.376 . S
N852 C851 1.374 . S
N852 Co853 2.008 . S
Co853 N852 2.008 . S
Co853 N854 1.995 . S
Co853 N859 2.008 . S
Co853 N864 1.995 . S
Co853 N869 2.282 . S
Co853 N875 2.282 . S
N854 Co853 1.995 . S
N854 C855 1.376 . S
N854 C858 1.383 . S
C855 N854 1.376 . S
C855 C856 1.446 . S
C855 C885 1.391 . S
C856 C855 1.446 . S
C856 C857 1.339 . S
C856 H891 0.949 . S
C857 C856 1.339 . S
C857 C858 1.439 . S
C857 H892 0.950 . S
C858 N854 1.383 . S
C858 C857 1.439 . S
C858 C887 1.392 . S
N859 Co853 2.008 . S
N859 C860 1.376 . S
N859 C863 1.374 . S
C860 N859 1.376 . S
C860 C861 1.443 . S
C860 C887 1.389 . S
C861 C860 1.443 . S
C861 C862 1.340 . S
C861 H893 0.951 . S
C862 C861 1.340 . S
C862 C863 1.439 . S
C862 H894 0.950 . S
C863 N859 1.374 . S
C863 C862 1.439 . S
C863 C888 1.395 . S
N864 Co853 1.995 . S
N864 C865 1.376 . S
N864 C868 1.383 . S
C865 N864 1.376 . S
C865 C866 1.446 . S
C865 C888 1.391 . S
C866 C865 1.446 . S
C866 C867 1.339 . S
C866 H895 0.949 . S
C867 C866 1.339 . S
C867 C868 1.439 . S
C867 H896 0.950 . S
C868 N864 1.383 . S
C868 C867 1.439 . S
C868 C886 1.392 . S
N869 Co853 2.282 . S
N869 C872 1.332 . S
N869 C874 1.332 . S
C870 C871 1.386 . S
C870 C873 1.388 . S
C871 C870 1.386 . S
C871 C872 1.382 . S
C871 H897 0.950 . S
C872 N869 1.332 . S
C872 C871 1.382 . S
C872 H883 0.952 . S
C873 C870 1.388 . S
C873 C874 1.382 . S
C873 H898 0.950 . S
C874 N869 1.332 . S
C874 C873 1.382 . S
C874 H884 0.948 . S
N875 Co853 2.282 . S
N875 C879 1.332 . S
N875 C880 1.332 . S
C876 C877 1.388 . S
C876 C880 1.382 . S
C876 H899 0.950 . S
C877 C876 1.388 . S
C877 C878 1.386 . S
C878 C877 1.386 . S
C878 C879 1.382 . S
C878 H900 0.950 . S
C879 N875 1.332 . S
C879 C878 1.382 . S
C879 H881 0.952 . S
C880 N875 1.332 . S
C880 C876 1.382 . S
C880 H882 0.948 . S
H881 C879 0.952 . S
H882 C880 0.948 . S
H883 C872 0.952 . S
H884 C874 0.948 . S
C885 C851 1.395 . S
C885 C855 1.391 . S
C886 C848 1.389 . S
C886 C868 1.392 . S
C887 C858 1.392 . S
C887 C860 1.389 . S
C888 C863 1.395 . S
C888 C865 1.391 . S
H889 C849 0.951 . S
H890 C850 0.950 . S
H891 C856 0.949 . S
H892 C857 0.950 . S
H893 C861 0.951 . S
H894 C862 0.950 . S
H895 C866 0.949 . S
H896 C867 0.950 . S
H897 C871 0.950 . S
H898 C873 0.950 . S
H899 C876 0.950 . S
H900 C878 0.950 . S
C901 C902 1.443 . S
C901 N905 1.376 . S
C901 C939 1.389 . S
C902 C901 1.443 . S
C902 C903 1.340 . S
C902 H942 0.951 . S
C903 C902 1.340 . S
C903 C904 1.439 . S
C903 H943 0.950 . S
C904 C903 1.439 . S
C904 N905 1.374 . S
C904 C938 1.395 . S
N905 C901 1.376 . S
N905 C904 1.374 . S
N905 Co906 2.008 . S
Co906 N905 2.008 . S
Co906 N907 1.995 . S
Co906 N912 2.008 . S
Co906 N917 1.995 . S
Co906 N922 2.282 . S
Co906 N928 2.282 . S
N907 Co906 1.995 . S
N907 C908 1.376 . S
N907 C911 1.383 . S
C908 N907 1.376 . S
C908 C909 1.446 . S
C908 C938 1.391 . S
C909 C908 1.446 . S
C909 C910 1.339 . S
C909 H944 0.949 . S
C910 C909 1.339 . S
C910 C911 1.439 . S
C910 H945 0.950 . S
C911 N907 1.383 . S
C911 C910 1.439 . S
C911 C940 1.392 . S
N912 Co906 2.008 . S
N912 C913 1.376 . S
N912 C916 1.374 . S
C913 N912 1.376 . S
C913 C914 1.443 . S
C913 C940 1.389 . S
C914 C913 1.443 . S
C914 C915 1.340 . S
C914 H946 0.951 . S
C915 C914 1.340 . S
C915 C916 1.439 . S
C915 H947 0.950 . S
C916 N912 1.374 . S
C916 C915 1.439 . S
C916 C941 1.395 . S
N917 Co906 1.995 . S
N917 C918 1.376 . S
N917 C921 1.383 . S
C918 N917 1.376 . S
C918 C919 1.446 . S
C918 C941 1.391 . S
C919 C918 1.446 . S
C919 C920 1.339 . S
C919 H948 0.949 . S
C920 C919 1.339 . S
C920 C921 1.439 . S
C920 H949 0.950 . S
C921 N917 1.383 . S
C921 C920 1.439 . S
C921 C939 1.392 . S
N922 Co906 2.282 . S
N922 C925 1.332 . S
N922 C927 1.332 . S
C923 C924 1.386 . S
C923 C926 1.388 . S
C924 C923 1.386 . S
C924 C925 1.382 . S
C924 H950 0.950 . S
C925 N922 1.332 . S
C925 C924 1.382 . S
C925 H936 0.952 . S
C926 C923 1.388 . S
C926 C927 1.382 . S
C926 H951 0.950 . S
C927 N922 1.332 . S
C927 C926 1.382 . S
C927 H937 0.948 . S
N928 Co906 2.282 . S
N928 C932 1.332 . S
N928 C933 1.332 . S
C929 C930 1.388 . S
C929 C933 1.382 . S
C929 H952 0.950 . S
C930 C929 1.388 . S
C930 C931 1.386 . S
C931 C930 1.386 . S
C931 C932 1.382 . S
C931 H953 0.950 . S
C932 N928 1.332 . S
C932 C931 1.382 . S
C932 H934 0.952 . S
C933 N928 1.332 . S
C933 C929 1.382 . S
C933 H935 0.948 . S
H934 C932 0.952 . S
H935 C933 0.948 . S
H936 C925 0.952 . S
H937 C927 0.948 . S
C938 C904 1.395 . S
C938 C908 1.391 . S
C939 C901 1.389 . S
C939 C921 1.392 . S
C940 C911 1.392 . S
C940 C913 1.389 . S
C941 C916 1.395 . S
C941 C918 1.391 . S
H942 C902 0.951 . S
H943 C903 0.950 . S
H944 C909 0.949 . S
H945 C910 0.950 . S
H946 C914 0.951 . S
H947 C915 0.950 . S
H948 C919 0.949 . S
H949 C920 0.950 . S
H950 C924 0.950 . S
H951 C926 0.950 . S
H952 C929 0.950 . S
H953 C931 0.950 . S
C954 C955 1.443 . S
C954 N958 1.376 . S
C954 C992 1.389 . S
C955 C954 1.443 . S
C955 C956 1.340 . S
C955 H995 0.951 . S
C956 C955 1.340 . S
C956 C957 1.439 . S
C956 H996 0.950 . S
C957 C956 1.439 . S
C957 N958 1.374 . S
C957 C991 1.395 . S
N958 C954 1.376 . S
N958 C957 1.374 . S
N958 Co959 2.008 . S
Co959 N958 2.008 . S
Co959 N960 1.995 . S
Co959 N965 2.008 . S
Co959 N970 1.995 . S
Co959 N975 2.282 . S
Co959 N981 2.282 . S
N960 Co959 1.995 . S
N960 C961 1.376 . S
N960 C964 1.383 . S
C961 N960 1.376 . S
C961 C962 1.446 . S
C961 C991 1.391 . S
C962 C961 1.446 . S
C962 C963 1.339 . S
C962 H997 0.949 . S
C963 C962 1.339 . S
C963 C964 1.439 . S
C963 H998 0.950 . S
C964 N960 1.383 . S
C964 C963 1.439 . S
C964 C993 1.392 . S
N965 Co959 2.008 . S
N965 C966 1.376 . S
N965 C969 1.374 . S
C966 N965 1.376 . S
C966 C967 1.443 . S
C966 C993 1.389 . S
C967 C966 1.443 . S
C967 C968 1.340 . S
C967 H999 0.951 . S
C968 C967 1.340 . S
C968 C969 1.439 . S
C968 H1000 0.950 . S
C969 N965 1.374 . S
C969 C968 1.439 . S
C969 C994 1.395 . S
N970 Co959 1.995 . S
N970 C971 1.376 . S
N970 C974 1.383 . S
C971 N970 1.376 . S
C971 C972 1.446 . S
C971 C994 1.391 . S
C972 C971 1.446 . S
C972 C973 1.339 . S
C972 H1001 0.949 . S
C973 C972 1.339 . S
C973 C974 1.439 . S
C973 H1002 0.950 . S
C974 N970 1.383 . S
C974 C973 1.439 . S
C974 C992 1.392 . S
N975 Co959 2.282 . S
N975 C978 1.332 . S
N975 C980 1.332 . S
C976 C977 1.386 . S
C976 C979 1.388 . S
C977 C976 1.386 . S
C977 C978 1.382 . S
C977 H1003 0.950 . S
C978 N975 1.332 . S
C978 C977 1.382 . S
C978 H989 0.952 . S
C979 C976 1.388 . S
C979 C980 1.382 . S
C979 H1004 0.950 . S
C980 N975 1.332 . S
C980 C979 1.382 . S
C980 H990 0.948 . S
N981 Co959 2.282 . S
N981 C985 1.332 . S
N981 C986 1.332 . S
C982 C983 1.388 . S
C982 C986 1.382 . S
C982 H1005 0.950 . S
C983 C982 1.388 . S
C983 C984 1.386 . S
C984 C983 1.386 . S
C984 C985 1.382 . S
C984 H1006 0.950 . S
C985 N981 1.332 . S
C985 C984 1.382 . S
C985 H987 0.952 . S
C986 N981 1.332 . S
C986 C982 1.382 . S
C986 H988 0.948 . S
H987 C985 0.952 . S
H988 C986 0.948 . S
H989 C978 0.952 . S
H990 C980 0.948 . S
C991 C957 1.395 . S
C991 C961 1.391 . S
C992 C954 1.389 . S
C992 C974 1.392 . S
C993 C964 1.392 . S
C993 C966 1.389 . S
C994 C969 1.395 . S
C994 C971 1.391 . S
H995 C955 0.951 . S
H996 C956 0.950 . S
H997 C962 0.949 . S
H998 C963 0.950 . S
H999 C967 0.951 . S
H1000 C968 0.950 . S
H1001 C972 0.949 . S
H1002 C973 0.950 . S
H1003 C977 0.950 . S
H1004 C979 0.950 . S
H1005 C982 0.950 . S
H1006 C984 0.950 . S
C1007 C1008 1.443 . S
C1007 N1011 1.376 . S
C1007 C1045 1.389 . S
C1008 C1007 1.443 . S
C1008 C1009 1.340 . S
C1008 H1048 0.951 . S
C1009 C1008 1.340 . S
C1009 C1010 1.439 . S
C1009 H1049 0.950 . S
C1010 C1009 1.439 . S
C1010 N1011 1.374 . S
C1010 C1044 1.395 . S
N1011 C1007 1.376 . S
N1011 C1010 1.374 . S
N1011 Co1012 2.008 . S
Co1012 N1011 2.008 . S
Co1012 N1013 1.995 . S
Co1012 N1018 2.008 . S
Co1012 N1023 1.995 . S
Co1012 N1028 2.282 . S
Co1012 N1034 2.282 . S
N1013 Co1012 1.995 . S
N1013 C1014 1.376 . S
N1013 C1017 1.383 . S
C1014 N1013 1.376 . S
C1014 C1015 1.446 . S
C1014 C1044 1.391 . S
C1015 C1014 1.446 . S
C1015 C1016 1.339 . S
C1015 H1050 0.949 . S
C1016 C1015 1.339 . S
C1016 C1017 1.439 . S
C1016 H1051 0.950 . S
C1017 N1013 1.383 . S
C1017 C1016 1.439 . S
C1017 C1046 1.392 . S
N1018 Co1012 2.008 . S
N1018 C1019 1.376 . S
N1018 C1022 1.374 . S
C1019 N1018 1.376 . S
C1019 C1020 1.443 . S
C1019 C1046 1.389 . S
C1020 C1019 1.443 . S
C1020 C1021 1.340 . S
C1020 H1052 0.951 . S
C1021 C1020 1.340 . S
C1021 C1022 1.439 . S
C1021 H1053 0.950 . S
C1022 N1018 1.374 . S
C1022 C1021 1.439 . S
C1022 C1047 1.395 . S
N1023 Co1012 1.995 . S
N1023 C1024 1.376 . S
N1023 C1027 1.383 . S
C1024 N1023 1.376 . S
C1024 C1025 1.446 . S
C1024 C1047 1.391 . S
C1025 C1024 1.446 . S
C1025 C1026 1.339 . S
C1025 H1054 0.949 . S
C1026 C1025 1.339 . S
C1026 C1027 1.439 . S
C1026 H1055 0.950 . S
C1027 N1023 1.383 . S
C1027 C1026 1.439 . S
C1027 C1045 1.392 . S
N1028 Co1012 2.282 . S
N1028 C1031 1.332 . S
N1028 C1033 1.332 . S
C1029 C1030 1.386 . S
C1029 C1032 1.388 . S
C1030 C1029 1.386 . S
C1030 C1031 1.382 . S
C1030 H1056 0.950 . S
C1031 N1028 1.332 . S
C1031 C1030 1.382 . S
C1031 H1042 0.952 . S
C1032 C1029 1.388 . S
C1032 C1033 1.382 . S
C1032 H1057 0.950 . S
C1033 N1028 1.332 . S
C1033 C1032 1.382 . S
C1033 H1043 0.948 . S
N1034 Co1012 2.282 . S
N1034 C1038 1.332 . S
N1034 C1039 1.332 . S
C1035 C1036 1.388 . S
C1035 C1039 1.382 . S
C1035 H1058 0.950 . S
C1036 C1035 1.388 . S
C1036 C1037 1.386 . S
C1037 C1036 1.386 . S
C1037 C1038 1.382 . S
C1037 H1059 0.950 . S
C1038 N1034 1.332 . S
C1038 C1037 1.382 . S
C1038 H1040 0.952 . S
C1039 N1034 1.332 . S
C1039 C1035 1.382 . S
C1039 H1041 0.948 . S
H1040 C1038 0.952 . S
H1041 C1039 0.948 . S
H1042 C1031 0.952 . S
H1043 C1033 0.948 . S
C1044 C1010 1.395 . S
C1044 C1014 1.391 . S
C1045 C1007 1.389 . S
C1045 C1027 1.392 . S
C1046 C1017 1.392 . S
C1046 C1019 1.389 . S
C1047 C1022 1.395 . S
C1047 C1024 1.391 . S
H1048 C1008 0.951 . S
H1049 C1009 0.950 . S
H1050 C1015 0.949 . S
H1051 C1016 0.950 . S
H1052 C1020 0.951 . S
H1053 C1021 0.950 . S
H1054 C1025 0.949 . S
H1055 C1026 0.950 . S
H1056 C1030 0.950 . S
H1057 C1032 0.950 . S
H1058 C1035 0.950 . S
H1059 C1037 0.950 . S
C1060 C1061 1.443 . S
C1060 N1064 1.376 . S
C1060 C1098 1.389 . S
C1061 C1060 1.443 . S
C1061 C1062 1.340 . S
C1061 H1101 0.951 . S
C1062 C1061 1.340 . S
C1062 C1063 1.439 . S
C1062 H1102 0.950 . S
C1063 C1062 1.439 . S
C1063 N1064 1.374 . S
C1063 C1097 1.395 . S
N1064 C1060 1.376 . S
N1064 C1063 1.374 . S
N1064 Co1065 2.008 . S
Co1065 N1064 2.008 . S
Co1065 N1066 1.995 . S
Co1065 N1071 2.008 . S
Co1065 N1076 1.995 . S
Co1065 N1081 2.282 . S
Co1065 N1087 2.282 . S
N1066 Co1065 1.995 . S
N1066 C1067 1.376 . S
N1066 C1070 1.383 . S
C1067 N1066 1.376 . S
C1067 C1068 1.446 . S
C1067 C1097 1.391 . S
C1068 C1067 1.446 . S
C1068 C1069 1.339 . S
C1068 H1103 0.949 . S
C1069 C1068 1.339 . S
C1069 C1070 1.439 . S
C1069 H1104 0.950 . S
C1070 N1066 1.383 . S
C1070 C1069 1.439 . S
C1070 C1099 1.392 . S
N1071 Co1065 2.008 . S
N1071 C1072 1.376 . S
N1071 C1075 1.374 . S
C1072 N1071 1.376 . S
C1072 C1073 1.443 . S
C1072 C1099 1.389 . S
C1073 C1072 1.443 . S
C1073 C1074 1.340 . S
C1073 H1105 0.951 . S
C1074 C1073 1.340 . S
C1074 C1075 1.439 . S
C1074 H1106 0.950 . S
C1075 N1071 1.374 . S
C1075 C1074 1.439 . S
C1075 C1100 1.395 . S
N1076 Co1065 1.995 . S
N1076 C1077 1.376 . S
N1076 C1080 1.383 . S
C1077 N1076 1.376 . S
C1077 C1078 1.446 . S
C1077 C1100 1.391 . S
C1078 C1077 1.446 . S
C1078 C1079 1.339 . S
C1078 H1107 0.949 . S
C1079 C1078 1.339 . S
C1079 C1080 1.439 . S
C1079 H1108 0.950 . S
C1080 N1076 1.383 . S
C1080 C1079 1.439 . S
C1080 C1098 1.392 . S
N1081 Co1065 2.282 . S
N1081 C1084 1.332 . S
N1081 C1086 1.332 . S
C1082 C1083 1.386 . S
C1082 C1085 1.388 . S
C1083 C1082 1.386 . S
C1083 C1084 1.382 . S
C1083 H1109 0.950 . S
C1084 N1081 1.332 . S
C1084 C1083 1.382 . S
C1084 H1095 0.952 . S
C1085 C1082 1.388 . S
C1085 C1086 1.382 . S
C1085 H1110 0.950 . S
C1086 N1081 1.332 . S
C1086 C1085 1.382 . S
C1086 H1096 0.948 . S
N1087 Co1065 2.282 . S
N1087 C1091 1.332 . S
N1087 C1092 1.332 . S
C1088 C1089 1.388 . S
C1088 C1092 1.382 . S
C1088 H1111 0.950 . S
C1089 C1088 1.388 . S
C1089 C1090 1.386 . S
C1090 C1089 1.386 . S
C1090 C1091 1.382 . S
C1090 H1112 0.950 . S
C1091 N1087 1.332 . S
C1091 C1090 1.382 . S
C1091 H1093 0.952 . S
C1092 N1087 1.332 . S
C1092 C1088 1.382 . S
C1092 H1094 0.948 . S
H1093 C1091 0.952 . S
H1094 C1092 0.948 . S
H1095 C1084 0.952 . S
H1096 C1086 0.948 . S
C1097 C1063 1.395 . S
C1097 C1067 1.391 . S
C1098 C1060 1.389 . S
C1098 C1080 1.392 . S
C1099 C1070 1.392 . S
C1099 C1072 1.389 . S
C1100 C1075 1.395 . S
C1100 C1077 1.391 . S
H1101 C1061 0.951 . S
H1102 C1062 0.950 . S
H1103 C1068 0.949 . S
H1104 C1069 0.950 . S
H1105 C1073 0.951 . S
H1106 C1074 0.950 . S
H1107 C1078 0.949 . S
H1108 C1079 0.950 . S
H1109 C1083 0.950 . S
H1110 C1085 0.950 . S
H1111 C1088 0.950 . S
H1112 C1090 0.950 . S
C1113 C1114 1.443 1_565 S
C1113 N1117 1.376 1_565 S
C1113 C1151 1.389 . S
C1114 C1113 1.443 1_545 S
C1114 C1115 1.340 . S
C1114 H1154 0.951 . S
C1115 C1114 1.340 . S
C1115 C1116 1.439 . S
C1115 H1155 0.950 . S
C1116 C1115 1.439 . S
C1116 N1117 1.374 . S
C1116 C1150 1.395 . S
N1117 C1113 1.376 1_545 S
N1117 C1116 1.374 . S
N1117 Co1118 2.008 1_546 S
Co1118 N1117 2.008 1_564 S
Co1118 N1119 1.995 1_565 S
Co1118 N1124 2.008 . S
Co1118 N1129 1.995 1_554 S
Co1118 N1134 2.282 . S
Co1118 N1140 2.282 1_554 S
N1119 Co1118 1.995 1_545 S
N1119 C1120 1.376 . S
N1119 C1123 1.383 . S
C1120 N1119 1.376 . S
C1120 C1121 1.447 . S
C1120 C1150 1.390 1_554 S
C1121 C1120 1.447 . S
C1121 C1122 1.339 . S
C1121 H1156 0.949 . S
C1122 C1121 1.339 . S
C1122 C1123 1.439 . S
C1122 H1157 0.950 . S
C1123 N1119 1.383 . S
C1123 C1122 1.439 . S
C1123 C1152 1.392 . S
N1124 Co1118 2.008 . S
N1124 C1125 1.376 . S
N1124 C1128 1.374 . S
C1125 N1124 1.376 . S
C1125 C1126 1.443 . S
C1125 C1152 1.389 1_565 S
C1126 C1125 1.443 . S
C1126 C1127 1.340 . S
C1126 H1158 0.951 . S
C1127 C1126 1.340 . S
C1127 C1128 1.439 . S
C1127 H1159 0.950 . S
C1128 N1124 1.374 . S
C1128 C1127 1.439 . S
C1128 C1153 1.395 . S
N1129 Co1118 1.995 1_556 S
N1129 C1130 1.376 . S
N1129 C1133 1.383 . S
C1130 N1129 1.376 . S
C1130 C1131 1.446 . S
C1130 C1153 1.392 1_556 S
C1131 C1130 1.446 . S
C1131 C1132 1.339 . S
C1131 H1160 0.949 . S
C1132 C1131 1.339 . S
C1132 C1133 1.439 . S
C1132 H1161 0.950 . S
C1133 N1129 1.383 . S
C1133 C1132 1.439 . S
C1133 C1151 1.392 . S
N1134 Co1118 2.282 . S
N1134 C1137 1.332 . S
N1134 C1139 1.332 1_565 S
C1135 C1136 1.386 . S
C1135 C1138 1.388 1_565 S
C1136 C1135 1.386 . S
C1136 C1137 1.382 . S
C1136 H1162 0.950 . S
C1137 N1134 1.332 . S
C1137 C1136 1.382 . S
C1137 H1148 0.952 . S
C1138 C1135 1.388 1_545 S
C1138 C1139 1.382 . S
C1138 H1163 0.950 . S
C1139 N1134 1.332 1_545 S
C1139 C1138 1.382 . S
C1139 H1149 0.948 . S
N1140 Co1118 2.282 1_556 S
N1140 C1144 1.332 1_565 S
N1140 C1145 1.332 . S
C1141 C1142 1.388 . S
C1141 C1145 1.382 . S
C1141 H1164 0.950 . S
C1142 C1141 1.388 . S
C1142 C1143 1.386 1_565 S
C1143 C1142 1.386 1_545 S
C1143 C1144 1.382 . S
C1143 H1165 0.950 . S
C1144 N1140 1.332 1_545 S
C1144 C1143 1.382 . S
C1144 H1146 0.952 . S
C1145 N1140 1.332 . S
C1145 C1141 1.382 . S
C1145 H1147 0.948 . S
H1146 C1144 0.952 . S
H1147 C1145 0.948 . S
H1148 C1137 0.952 . S
H1149 C1139 0.948 . S
C1150 C1116 1.395 . S
C1150 C1120 1.390 1_556 S
C1151 C1113 1.389 . S
C1151 C1133 1.392 . S
C1152 C1123 1.392 . S
C1152 C1125 1.389 1_545 S
C1153 C1128 1.395 . S
C1153 C1130 1.392 1_554 S
H1154 C1114 0.951 . S
H1155 C1115 0.950 . S
H1156 C1121 0.949 . S
H1157 C1122 0.950 . S
H1158 C1126 0.951 . S
H1159 C1127 0.950 . S
H1160 C1131 0.949 . S
H1161 C1132 0.950 . S
H1162 C1136 0.950 . S
H1163 C1138 0.950 . S
H1164 C1141 0.950 . S
H1165 C1143 0.950 . S
C1166 C1167 1.443 1_455 S
C1166 N1170 1.376 1_455 S
C1166 C1204 1.389 . S
C1167 C1166 1.443 1_655 S
C1167 C1168 1.340 . S
C1167 H1207 0.951 . S
C1168 C1167 1.340 . S
C1168 C1169 1.439 . S
C1168 H1208 0.950 . S
C1169 C1168 1.439 . S
C1169 N1170 1.374 . S
C1169 C1203 1.395 . S
N1170 C1166 1.376 1_655 S
N1170 C1169 1.374 . S
N1170 Co1171 2.008 1_656 S
Co1171 N1170 2.008 1_454 S
Co1171 N1172 1.995 1_455 S
Co1171 N1177 2.008 . S
Co1171 N1182 1.995 1_554 S
Co1171 N1187 2.282 . S
Co1171 N1193 2.282 1_554 S
N1172 Co1171 1.995 1_655 S
N1172 C1173 1.376 . S
N1172 C1176 1.383 . S
C1173 N1172 1.376 . S
C1173 C1174 1.447 . S
C1173 C1203 1.390 1_554 S
C1174 C1173 1.447 . S
C1174 C1175 1.339 . S
C1174 H1209 0.949 . S
C1175 C1174 1.339 . S
C1175 C1176 1.439 . S
C1175 H1210 0.950 . S
C1176 N1172 1.383 . S
C1176 C1175 1.439 . S
C1176 C1205 1.392 . S
N1177 Co1171 2.008 . S
N1177 C1178 1.376 . S
N1177 C1181 1.374 . S
C1178 N1177 1.376 . S
C1178 C1179 1.443 . S
C1178 C1205 1.389 1_455 S
C1179 C1178 1.443 . S
C1179 C1180 1.340 . S
C1179 H1211 0.951 . S
C1180 C1179 1.340 . S
C1180 C1181 1.439 . S
C1180 H1212 0.950 . S
C1181 N1177 1.374 . S
C1181 C1180 1.439 . S
C1181 C1206 1.395 . S
N1182 Co1171 1.995 1_556 S
N1182 C1183 1.376 . S
N1182 C1186 1.383 . S
C1183 N1182 1.376 . S
C1183 C1184 1.446 . S
C1183 C1206 1.392 1_556 S
C1184 C1183 1.446 . S
C1184 C1185 1.339 . S
C1184 H1213 0.949 . S
C1185 C1184 1.339 . S
C1185 C1186 1.439 . S
C1185 H1214 0.950 . S
C1186 N1182 1.383 . S
C1186 C1185 1.439 . S
C1186 C1204 1.392 . S
N1187 Co1171 2.282 . S
N1187 C1190 1.332 . S
N1187 C1192 1.332 1_455 S
C1188 C1189 1.386 . S
C1188 C1191 1.388 1_455 S
C1189 C1188 1.386 . S
C1189 C1190 1.382 . S
C1189 H1215 0.950 . S
C1190 N1187 1.332 . S
C1190 C1189 1.382 . S
C1190 H1201 0.952 . S
C1191 C1188 1.388 1_655 S
C1191 C1192 1.382 . S
C1191 H1216 0.950 . S
C1192 N1187 1.332 1_655 S
C1192 C1191 1.382 . S
C1192 H1202 0.948 . S
N1193 Co1171 2.282 1_556 S
N1193 C1197 1.332 1_455 S
N1193 C1198 1.332 . S
C1194 C1195 1.388 . S
C1194 C1198 1.382 . S
C1194 H1217 0.950 . S
C1195 C1194 1.388 . S
C1195 C1196 1.386 1_455 S
C1196 C1195 1.386 1_655 S
C1196 C1197 1.382 . S
C1196 H1218 0.950 . S
C1197 N1193 1.332 1_655 S
C1197 C1196 1.382 . S
C1197 H1199 0.952 . S
C1198 N1193 1.332 . S
C1198 C1194 1.382 . S
C1198 H1200 0.948 . S
H1199 C1197 0.952 . S
H1200 C1198 0.948 . S
H1201 C1190 0.952 . S
H1202 C1192 0.948 . S
C1203 C1169 1.395 . S
C1203 C1173 1.390 1_556 S
C1204 C1166 1.389 . S
C1204 C1186 1.392 . S
C1205 C1176 1.392 . S
C1205 C1178 1.389 1_655 S
C1206 C1181 1.395 . S
C1206 C1183 1.392 1_554 S
H1207 C1167 0.951 . S
H1208 C1168 0.950 . S
H1209 C1174 0.949 . S
H1210 C1175 0.950 . S
H1211 C1179 0.951 . S
H1212 C1180 0.950 . S
H1213 C1184 0.949 . S
H1214 C1185 0.950 . S
H1215 C1189 0.950 . S
H1216 C1191 0.950 . S
H1217 C1194 0.950 . S
H1218 C1196 0.950 . S
C1219 C1220 1.443 . S
C1219 N1223 1.376 . S
C1219 C1257 1.389 . S
C1220 C1219 1.443 . S
C1220 C1221 1.340 . S
C1220 H1260 0.951 . S
C1221 C1220 1.340 . S
C1221 C1222 1.439 . S
C1221 H1261 0.950 . S
C1222 C1221 1.439 . S
C1222 N1223 1.374 . S
C1222 C1256 1.395 . S
N1223 C1219 1.376 . S
N1223 C1222 1.374 . S
N1223 Co1224 2.008 1_556 S
Co1224 N1223 2.008 1_554 S
Co1224 N1225 1.995 . S
Co1224 N1230 2.008 . S
Co1224 N1235 1.995 1_554 S
Co1224 N1240 2.282 . S
Co1224 N1246 2.282 1_554 S
N1225 Co1224 1.995 . S
N1225 C1226 1.376 . S
N1225 C1229 1.383 . S
C1226 N1225 1.376 . S
C1226 C1227 1.447 . S
C1226 C1256 1.390 1_554 S
C1227 C1226 1.447 . S
C1227 C1228 1.339 . S
C1227 H1262 0.949 . S
C1228 C1227 1.339 . S
C1228 C1229 1.439 . S
C1228 H1263 0.950 . S
C1229 N1225 1.383 . S
C1229 C1228 1.439 . S
C1229 C1258 1.392 . S
N1230 Co1224 2.008 . S
N1230 C1231 1.376 . S
N1230 C1234 1.374 . S
C1231 N1230 1.376 . S
C1231 C1232 1.443 . S
C1231 C1258 1.389 . S
C1232 C1231 1.443 . S
C1232 C1233 1.340 . S
C1232 H1264 0.951 . S
C1233 C1232 1.340 . S
C1233 C1234 1.439 . S
C1233 H1265 0.950 . S
C1234 N1230 1.374 . S
C1234 C1233 1.439 . S
C1234 C1259 1.395 . S
N1235 Co1224 1.995 1_556 S
N1235 C1236 1.376 . S
N1235 C1239 1.383 . S
C1236 N1235 1.376 . S
C1236 C1237 1.446 . S
C1236 C1259 1.392 1_556 S
C1237 C1236 1.446 . S
C1237 C1238 1.339 . S
C1237 H1266 0.949 . S
C1238 C1237 1.339 . S
C1238 C1239 1.439 . S
C1238 H1267 0.950 . S
C1239 N1235 1.383 . S
C1239 C1238 1.439 . S
C1239 C1257 1.392 . S
N1240 Co1224 2.282 . S
N1240 C1243 1.332 . S
N1240 C1245 1.332 . S
C1241 C1242 1.386 . S
C1241 C1244 1.388 . S
C1242 C1241 1.386 . S
C1242 C1243 1.382 . S
C1242 H1268 0.950 . S
C1243 N1240 1.332 . S
C1243 C1242 1.382 . S
C1243 H1254 0.952 . S
C1244 C1241 1.388 . S
C1244 C1245 1.382 . S
C1244 H1269 0.950 . S
C1245 N1240 1.332 . S
C1245 C1244 1.382 . S
C1245 H1255 0.948 . S
N1246 Co1224 2.282 1_556 S
N1246 C1250 1.332 . S
N1246 C1251 1.332 . S
C1247 C1248 1.388 . S
C1247 C1251 1.382 . S
C1247 H1270 0.950 . S
C1248 C1247 1.388 . S
C1248 C1249 1.386 . S
C1249 C1248 1.386 . S
C1249 C1250 1.382 . S
C1249 H1271 0.950 . S
C1250 N1246 1.332 . S
C1250 C1249 1.382 . S
C1250 H1252 0.952 . S
C1251 N1246 1.332 . S
C1251 C1247 1.382 . S
C1251 H1253 0.948 . S
H1252 C1250 0.952 . S
H1253 C1251 0.948 . S
H1254 C1243 0.952 . S
H1255 C1245 0.948 . S
C1256 C1222 1.395 . S
C1256 C1226 1.390 1_556 S
C1257 C1219 1.389 . S
C1257 C1239 1.392 . S
C1258 C1229 1.392 . S
C1258 C1231 1.389 . S
C1259 C1234 1.395 . S
C1259 C1236 1.392 1_554 S
H1260 C1220 0.951 . S
H1261 C1221 0.950 . S
H1262 C1227 0.949 . S
H1263 C1228 0.950 . S
H1264 C1232 0.951 . S
H1265 C1233 0.950 . S
H1266 C1237 0.949 . S
H1267 C1238 0.950 . S
H1268 C1242 0.950 . S
H1269 C1244 0.950 . S
H1270 C1247 0.950 . S
H1271 C1249 0.950 . S
C1272 C1273 1.443 . S
C1272 N1276 1.376 . S
C1272 C1310 1.389 . S
C1273 C1272 1.443 . S
C1273 C1274 1.340 . S
C1273 H1313 0.951 . S
C1274 C1273 1.340 . S
C1274 C1275 1.439 . S
C1274 H1314 0.950 . S
C1275 C1274 1.439 . S
C1275 N1276 1.374 . S
C1275 C1309 1.395 . S
N1276 C1272 1.376 . S
N1276 C1275 1.374 . S
N1276 Co1277 2.008 . S
Co1277 N1276 2.008 . S
Co1277 N1278 1.995 . S
Co1277 N1283 2.008 . S
Co1277 N1288 1.995 . S
Co1277 N1293 2.282 . S
Co1277 N1299 2.282 . S
N1278 Co1277 1.995 . S
N1278 C1279 1.376 . S
N1278 C1282 1.383 . S
C1279 N1278 1.376 . S
C1279 C1280 1.446 . S
C1279 C1309 1.391 . S
C1280 C1279 1.446 . S
C1280 C1281 1.339 . S
C1280 H1315 0.949 . S
C1281 C1280 1.339 . S
C1281 C1282 1.439 . S
C1281 H1316 0.950 . S
C1282 N1278 1.383 . S
C1282 C1281 1.439 . S
C1282 C1311 1.392 . S
N1283 Co1277 2.008 . S
N1283 C1284 1.376 . S
N1283 C1287 1.374 . S
C1284 N1283 1.376 . S
C1284 C1285 1.443 . S
C1284 C1311 1.389 . S
C1285 C1284 1.443 . S
C1285 C1286 1.340 . S
C1285 H1317 0.951 . S
C1286 C1285 1.340 . S
C1286 C1287 1.439 . S
C1286 H1318 0.950 . S
C1287 N1283 1.374 . S
C1287 C1286 1.439 . S
C1287 C1312 1.395 . S
N1288 Co1277 1.995 . S
N1288 C1289 1.376 . S
N1288 C1292 1.383 . S
C1289 N1288 1.376 . S
C1289 C1290 1.446 . S
C1289 C1312 1.391 . S
C1290 C1289 1.446 . S
C1290 C1291 1.339 . S
C1290 H1319 0.949 . S
C1291 C1290 1.339 . S
C1291 C1292 1.439 . S
C1291 H1320 0.950 . S
C1292 N1288 1.383 . S
C1292 C1291 1.439 . S
C1292 C1310 1.392 . S
N1293 Co1277 2.282 . S
N1293 C1296 1.332 . S
N1293 C1298 1.332 . S
C1294 C1295 1.386 . S
C1294 C1297 1.388 . S
C1295 C1294 1.386 . S
C1295 C1296 1.382 . S
C1295 H1321 0.950 . S
C1296 N1293 1.332 . S
C1296 C1295 1.382 . S
C1296 H1307 0.952 . S
C1297 C1294 1.388 . S
C1297 C1298 1.382 . S
C1297 H1322 0.950 . S
C1298 N1293 1.332 . S
C1298 C1297 1.382 . S
C1298 H1308 0.948 . S
N1299 Co1277 2.282 . S
N1299 C1303 1.332 . S
N1299 C1304 1.332 . S
C1300 C1301 1.388 . S
C1300 C1304 1.382 . S
C1300 H1323 0.950 . S
C1301 C1300 1.388 . S
C1301 C1302 1.386 . S
C1302 C1301 1.386 . S
C1302 C1303 1.382 . S
C1302 H1324 0.950 . S
C1303 N1299 1.332 . S
C1303 C1302 1.382 . S
C1303 H1305 0.952 . S
C1304 N1299 1.332 . S
C1304 C1300 1.382 . S
C1304 H1306 0.948 . S
H1305 C1303 0.952 . S
H1306 C1304 0.948 . S
H1307 C1296 0.952 . S
H1308 C1298 0.948 . S
C1309 C1275 1.395 . S
C1309 C1279 1.391 . S
C1310 C1272 1.389 . S
C1310 C1292 1.392 . S
C1311 C1282 1.392 . S
C1311 C1284 1.389 . S
C1312 C1287 1.395 . S
C1312 C1289 1.391 . S
H1313 C1273 0.951 . S
H1314 C1274 0.950 . S
H1315 C1280 0.949 . S
H1316 C1281 0.950 . S
H1317 C1285 0.951 . S
H1318 C1286 0.950 . S
H1319 C1290 0.949 . S
H1320 C1291 0.950 . S
H1321 C1295 0.950 . S
H1322 C1297 0.950 . S
H1323 C1300 0.950 . S
H1324 C1302 0.950 . S
C1325 C1326 1.443 . S
C1325 N1329 1.376 . S
C1325 C1363 1.389 . S
C1326 C1325 1.443 . S
C1326 C1327 1.340 . S
C1326 H1366 0.951 . S
C1327 C1326 1.340 . S
C1327 C1328 1.439 . S
C1327 H1367 0.950 . S
C1328 C1327 1.439 . S
C1328 N1329 1.374 . S
C1328 C1362 1.395 . S
N1329 C1325 1.376 . S
N1329 C1328 1.374 . S
N1329 Co1330 2.008 . S
Co1330 N1329 2.008 . S
Co1330 N1331 1.995 . S
Co1330 N1336 2.008 . S
Co1330 N1341 1.995 . S
Co1330 N1346 2.282 . S
Co1330 N1352 2.282 . S
N1331 Co1330 1.995 . S
N1331 C1332 1.376 . S
N1331 C1335 1.383 . S
C1332 N1331 1.376 . S
C1332 C1333 1.446 . S
C1332 C1362 1.391 . S
C1333 C1332 1.446 . S
C1333 C1334 1.339 . S
C1333 H1368 0.949 . S
C1334 C1333 1.339 . S
C1334 C1335 1.439 . S
C1334 H1369 0.950 . S
C1335 N1331 1.383 . S
C1335 C1334 1.439 . S
C1335 C1364 1.392 . S
N1336 Co1330 2.008 . S
N1336 C1337 1.376 . S
N1336 C1340 1.374 . S
C1337 N1336 1.376 . S
C1337 C1338 1.443 . S
C1337 C1364 1.389 . S
C1338 C1337 1.443 . S
C1338 C1339 1.340 . S
C1338 H1370 0.951 . S
C1339 C1338 1.340 . S
C1339 C1340 1.439 . S
C1339 H1371 0.950 . S
C1340 N1336 1.374 . S
C1340 C1339 1.439 . S
C1340 C1365 1.395 . S
N1341 Co1330 1.995 . S
N1341 C1342 1.376 . S
N1341 C1345 1.383 . S
C1342 N1341 1.376 . S
C1342 C1343 1.446 . S
C1342 C1365 1.391 . S
C1343 C1342 1.446 . S
C1343 C1344 1.339 . S
C1343 H1372 0.949 . S
C1344 C1343 1.339 . S
C1344 C1345 1.439 . S
C1344 H1373 0.950 . S
C1345 N1341 1.383 . S
C1345 C1344 1.439 . S
C1345 C1363 1.392 . S
N1346 Co1330 2.282 . S
N1346 C1349 1.332 . S
N1346 C1351 1.332 . S
C1347 C1348 1.386 . S
C1347 C1350 1.388 . S
C1348 C1347 1.386 . S
C1348 C1349 1.382 . S
C1348 H1374 0.950 . S
C1349 N1346 1.332 . S
C1349 C1348 1.382 . S
C1349 H1360 0.952 . S
C1350 C1347 1.388 . S
C1350 C1351 1.382 . S
C1350 H1375 0.950 . S
C1351 N1346 1.332 . S
C1351 C1350 1.382 . S
C1351 H1361 0.948 . S
N1352 Co1330 2.282 . S
N1352 C1356 1.332 . S
N1352 C1357 1.332 . S
C1353 C1354 1.388 . S
C1353 C1357 1.382 . S
C1353 H1376 0.950 . S
C1354 C1353 1.388 . S
C1354 C1355 1.386 . S
C1355 C1354 1.386 . S
C1355 C1356 1.382 . S
C1355 H1377 0.950 . S
C1356 N1352 1.332 . S
C1356 C1355 1.382 . S
C1356 H1358 0.952 . S
C1357 N1352 1.332 . S
C1357 C1353 1.382 . S
C1357 H1359 0.948 . S
H1358 C1356 0.952 . S
H1359 C1357 0.948 . S
H1360 C1349 0.952 . S
H1361 C1351 0.948 . S
C1362 C1328 1.395 . S
C1362 C1332 1.391 . S
C1363 C1325 1.389 . S
C1363 C1345 1.392 . S
C1364 C1335 1.392 . S
C1364 C1337 1.389 . S
C1365 C1340 1.395 . S
C1365 C1342 1.391 . S
H1366 C1326 0.951 . S
H1367 C1327 0.950 . S
H1368 C1333 0.949 . S
H1369 C1334 0.950 . S
H1370 C1338 0.951 . S
H1371 C1339 0.950 . S
H1372 C1343 0.949 . S
H1373 C1344 0.950 . S
H1374 C1348 0.950 . S
H1375 C1350 0.950 . S
H1376 C1353 0.950 . S
H1377 C1355 0.950 . S
C1378 C1379 1.443 . S
C1378 N1382 1.376 . S
C1378 C1416 1.389 . S
C1379 C1378 1.443 . S
C1379 C1380 1.340 . S
C1379 H1419 0.951 . S
C1380 C1379 1.340 . S
C1380 C1381 1.439 . S
C1380 H1420 0.950 . S
C1381 C1380 1.439 . S
C1381 N1382 1.374 . S
C1381 C1415 1.395 . S
N1382 C1378 1.376 . S
N1382 C1381 1.374 . S
N1382 Co1383 2.008 . S
Co1383 N1382 2.008 . S
Co1383 N1384 1.995 . S
Co1383 N1389 2.008 . S
Co1383 N1394 1.995 . S
Co1383 N1399 2.282 . S
Co1383 N1405 2.282 . S
N1384 Co1383 1.995 . S
N1384 C1385 1.376 . S
N1384 C1388 1.383 . S
C1385 N1384 1.376 . S
C1385 C1386 1.446 . S
C1385 C1415 1.391 . S
C1386 C1385 1.446 . S
C1386 C1387 1.339 . S
C1386 H1421 0.949 . S
C1387 C1386 1.339 . S
C1387 C1388 1.439 . S
C1387 H1422 0.950 . S
C1388 N1384 1.383 . S
C1388 C1387 1.439 . S
C1388 C1417 1.392 . S
N1389 Co1383 2.008 . S
N1389 C1390 1.376 . S
N1389 C1393 1.374 . S
C1390 N1389 1.376 . S
C1390 C1391 1.443 . S
C1390 C1417 1.389 . S
C1391 C1390 1.443 . S
C1391 C1392 1.340 . S
C1391 H1423 0.951 . S
C1392 C1391 1.340 . S
C1392 C1393 1.439 . S
C1392 H1424 0.950 . S
C1393 N1389 1.374 . S
C1393 C1392 1.439 . S
C1393 C1418 1.395 . S
N1394 Co1383 1.995 . S
N1394 C1395 1.376 . S
N1394 C1398 1.383 . S
C1395 N1394 1.376 . S
C1395 C1396 1.446 . S
C1395 C1418 1.391 . S
C1396 C1395 1.446 . S
C1396 C1397 1.339 . S
C1396 H1425 0.949 . S
C1397 C1396 1.339 . S
C1397 C1398 1.439 . S
C1397 H1426 0.950 . S
C1398 N1394 1.383 . S
C1398 C1397 1.439 . S
C1398 C1416 1.392 . S
N1399 Co1383 2.282 . S
N1399 C1402 1.332 . S
N1399 C1404 1.332 . S
C1400 C1401 1.386 . S
C1400 C1403 1.388 . S
C1401 C1400 1.386 . S
C1401 C1402 1.382 . S
C1401 H1427 0.950 . S
C1402 N1399 1.332 . S
C1402 C1401 1.382 . S
C1402 H1413 0.952 . S
C1403 C1400 1.388 . S
C1403 C1404 1.382 . S
C1403 H1428 0.950 . S
C1404 N1399 1.332 . S
C1404 C1403 1.382 . S
C1404 H1414 0.948 . S
N1405 Co1383 2.282 . S
N1405 C1409 1.332 . S
N1405 C1410 1.332 . S
C1406 C1407 1.388 . S
C1406 C1410 1.382 . S
C1406 H1429 0.950 . S
C1407 C1406 1.388 . S
C1407 C1408 1.386 . S
C1408 C1407 1.386 . S
C1408 C1409 1.382 . S
C1408 H1430 0.950 . S
C1409 N1405 1.332 . S
C1409 C1408 1.382 . S
C1409 H1411 0.952 . S
C1410 N1405 1.332 . S
C1410 C1406 1.382 . S
C1410 H1412 0.948 . S
H1411 C1409 0.952 . S
H1412 C1410 0.948 . S
H1413 C1402 0.952 . S
H1414 C1404 0.948 . S
C1415 C1381 1.395 . S
C1415 C1385 1.391 . S
C1416 C1378 1.389 . S
C1416 C1398 1.392 . S
C1417 C1388 1.392 . S
C1417 C1390 1.389 . S
C1418 C1393 1.395 . S
C1418 C1395 1.391 . S
H1419 C1379 0.951 . S
H1420 C1380 0.950 . S
H1421 C1386 0.949 . S
H1422 C1387 0.950 . S
H1423 C1391 0.951 . S
H1424 C1392 0.950 . S
H1425 C1396 0.949 . S
H1426 C1397 0.950 . S
H1427 C1401 0.950 . S
H1428 C1403 0.950 . S
H1429 C1406 0.950 . S
H1430 C1408 0.950 . S
C1431 C1432 1.443 . S
C1431 N1435 1.376 . S
C1431 C1469 1.389 . S
C1432 C1431 1.443 . S
C1432 C1433 1.340 . S
C1432 H1472 0.951 . S
C1433 C1432 1.340 . S
C1433 C1434 1.439 . S
C1433 H1473 0.950 . S
C1434 C1433 1.439 . S
C1434 N1435 1.374 . S
C1434 C1468 1.395 . S
N1435 C1431 1.376 . S
N1435 C1434 1.374 . S
N1435 Co1436 2.008 1_554 S
Co1436 N1435 2.008 1_556 S
Co1436 N1437 1.995 . S
Co1436 N1442 2.008 1_545 S
Co1436 N1447 1.995 1_546 S
Co1436 N1452 2.282 . S
Co1436 N1458 2.282 1_556 S
N1437 Co1436 1.995 . S
N1437 C1438 1.376 1_556 S
N1437 C1441 1.383 . S
C1438 N1437 1.376 1_554 S
C1438 C1439 1.446 1_554 S
C1438 C1468 1.391 . S
C1439 C1438 1.446 1_556 S
C1439 C1440 1.339 . S
C1439 H1474 0.949 . S
C1440 C1439 1.339 . S
C1440 C1441 1.439 . S
C1440 H1475 0.950 . S
C1441 N1437 1.383 . S
C1441 C1440 1.439 . S
C1441 C1470 1.392 1_545 S
N1442 Co1436 2.008 1_565 S
N1442 C1443 1.376 . S
N1442 C1446 1.374 . S
C1443 N1442 1.376 . S
C1443 C1444 1.443 . S
C1443 C1470 1.389 . S
C1444 C1443 1.443 . S
C1444 C1445 1.340 . S
C1444 H1476 0.951 . S
C1445 C1444 1.340 . S
C1445 C1446 1.439 . S
C1445 H1477 0.950 . S
C1446 N1442 1.374 . S
C1446 C1445 1.439 . S
C1446 C1471 1.395 . S
N1447 Co1436 1.995 1_564 S
N1447 C1448 1.376 1_554 S
N1447 C1451 1.383 1_565 S
C1448 N1447 1.376 1_556 S
C1448 C1449 1.446 1_556 S
C1448 C1471 1.391 . S
C1449 C1448 1.446 1_554 S
C1449 C1450 1.339 . S
C1449 H1478 0.949 . S
C1450 C1449 1.339 . S
C1450 C1451 1.439 1_565 S
C1450 H1479 0.950 . S
C1451 N1447 1.383 1_545 S
C1451 C1450 1.439 1_545 S
C1451 C1469 1.392 . S
N1452 Co1436 2.282 . S
N1452 C1455 1.332 1_545 S
N1452 C1457 1.332 . S
C1453 C1454 1.386 1_545 S
C1453 C1456 1.388 . S
C1454 C1453 1.386 1_565 S
C1454 C1455 1.382 . S
C1454 H1480 0.950 . S
C1455 N1452 1.332 1_565 S
C1455 C1454 1.382 . S
C1455 H1466 0.952 . S
C1456 C1453 1.388 . S
C1456 C1457 1.382 . S
C1456 H1481 0.950 . S
C1457 N1452 1.332 . S
C1457 C1456 1.382 . S
C1457 H1467 0.948 . S
N1458 Co1436 2.282 1_554 S
N1458 C1462 1.332 . S
N1458 C1463 1.332 1_545 S
C1459 C1460 1.388 1_565 S
C1459 C1463 1.382 . S
C1459 H1482 0.950 . S
C1460 C1459 1.388 1_545 S
C1460 C1461 1.386 . S
C1461 C1460 1.386 . S
C1461 C1462 1.382 . S
C1461 H1483 0.950 . S
C1462 N1458 1.332 . S
C1462 C1461 1.382 . S
C1462 H1464 0.952 . S
C1463 N1458 1.332 1_565 S
C1463 C1459 1.382 . S
C1463 H1465 0.948 . S
H1464 C1462 0.952 . S
H1465 C1463 0.948 . S
H1466 C1455 0.952 . S
H1467 C1457 0.948 . S
C1468 C1434 1.395 . S
C1468 C1438 1.391 . S
C1469 C1431 1.389 . S
C1469 C1451 1.392 . S
C1470 C1441 1.392 1_565 S
C1470 C1443 1.389 . S
C1471 C1446 1.395 . S
C1471 C1448 1.391 . S
H1472 C1432 0.951 . S
H1473 C1433 0.950 . S
H1474 C1439 0.949 . S
H1475 C1440 0.950 . S
H1476 C1444 0.951 . S
H1477 C1445 0.950 . S
H1478 C1449 0.949 . S
H1479 C1450 0.950 . S
H1480 C1454 0.950 . S
H1481 C1456 0.950 . S
H1482 C1459 0.950 . S
H1483 C1461 0.950 . S
C1484 C1485 1.443 . S
C1484 N1488 1.376 . S
C1484 C1522 1.389 . S
C1485 C1484 1.443 . S
C1485 C1486 1.340 . S
C1485 H1525 0.951 . S
C1486 C1485 1.340 . S
C1486 C1487 1.439 . S
C1486 H1526 0.950 . S
C1487 C1486 1.439 . S
C1487 N1488 1.374 . S
C1487 C1521 1.395 . S
N1488 C1484 1.376 . S
N1488 C1487 1.374 . S
N1488 Co1489 2.008 1_554 S
Co1489 N1488 2.008 1_556 S
Co1489 N1490 1.995 . S
Co1489 N1495 2.008 1_655 S
Co1489 N1500 1.995 1_656 S
Co1489 N1505 2.282 . S
Co1489 N1511 2.282 1_556 S
N1490 Co1489 1.995 . S
N1490 C1491 1.376 1_556 S
N1490 C1494 1.383 . S
C1491 N1490 1.376 1_554 S
C1491 C1492 1.446 1_554 S
C1491 C1521 1.391 . S
C1492 C1491 1.446 1_556 S
C1492 C1493 1.339 . S
C1492 H1527 0.949 . S
C1493 C1492 1.339 . S
C1493 C1494 1.439 . S
C1493 H1528 0.950 . S
C1494 N1490 1.383 . S
C1494 C1493 1.439 . S
C1494 C1523 1.392 1_655 S
N1495 Co1489 2.008 1_455 S
N1495 C1496 1.376 . S
N1495 C1499 1.374 . S
C1496 N1495 1.376 . S
C1496 C1497 1.443 . S
C1496 C1523 1.389 . S
C1497 C1496 1.443 . S
C1497 C1498 1.340 . S
C1497 H1529 0.951 . S
C1498 C1497 1.340 . S
C1498 C1499 1.439 . S
C1498 H1530 0.950 . S
C1499 N1495 1.374 . S
C1499 C1498 1.439 . S
C1499 C1524 1.395 . S
N1500 Co1489 1.995 1_454 S
N1500 C1501 1.376 1_554 S
N1500 C1504 1.383 1_455 S
C1501 N1500 1.376 1_556 S
C1501 C1502 1.446 1_556 S
C1501 C1524 1.391 . S
C1502 C1501 1.446 1_554 S
C1502 C1503 1.339 . S
C1502 H1531 0.949 . S
C1503 C1502 1.339 . S
C1503 C1504 1.439 1_455 S
C1503 H1532 0.950 . S
C1504 N1500 1.383 1_655 S
C1504 C1503 1.439 1_655 S
C1504 C1522 1.392 . S
N1505 Co1489 2.282 . S
N1505 C1508 1.332 1_655 S
N1505 C1510 1.332 . S
C1506 C1507 1.386 1_655 S
C1506 C1509 1.388 . S
C1507 C1506 1.386 1_455 S
C1507 C1508 1.382 . S
C1507 H1533 0.950 . S
C1508 N1505 1.332 1_455 S
C1508 C1507 1.382 . S
C1508 H1519 0.952 . S
C1509 C1506 1.388 . S
C1509 C1510 1.382 . S
C1509 H1534 0.950 . S
C1510 N1505 1.332 . S
C1510 C1509 1.382 . S
C1510 H1520 0.948 . S
N1511 Co1489 2.282 1_554 S
N1511 C1515 1.332 . S
N1511 C1516 1.332 1_655 S
C1512 C1513 1.388 1_455 S
C1512 C1516 1.382 . S
C1512 H1535 0.950 . S
C1513 C1512 1.388 1_655 S
C1513 C1514 1.386 . S
C1514 C1513 1.386 . S
C1514 C1515 1.382 . S
C1514 H1536 0.950 . S
C1515 N1511 1.332 . S
C1515 C1514 1.382 . S
C1515 H1517 0.952 . S
C1516 N1511 1.332 1_455 S
C1516 C1512 1.382 . S
C1516 H1518 0.948 . S
H1517 C1515 0.952 . S
H1518 C1516 0.948 . S
H1519 C1508 0.952 . S
H1520 C1510 0.948 . S
C1521 C1487 1.395 . S
C1521 C1491 1.391 . S
C1522 C1484 1.389 . S
C1522 C1504 1.392 . S
C1523 C1494 1.392 1_455 S
C1523 C1496 1.389 . S
C1524 C1499 1.395 . S
C1524 C1501 1.391 . S
H1525 C1485 0.951 . S
H1526 C1486 0.950 . S
H1527 C1492 0.949 . S
H1528 C1493 0.950 . S
H1529 C1497 0.951 . S
H1530 C1498 0.950 . S
H1531 C1502 0.949 . S
H1532 C1503 0.950 . S
H1533 C1507 0.950 . S
H1534 C1509 0.950 . S
H1535 C1512 0.950 . S
H1536 C1514 0.950 . S
C1537 C1538 1.443 . S
C1537 N1541 1.376 . S
C1537 C1575 1.389 . S
C1538 C1537 1.443 . S
C1538 C1539 1.340 . S
C1538 H1578 0.951 . S
C1539 C1538 1.340 . S
C1539 C1540 1.439 . S
C1539 H1579 0.950 . S
C1540 C1539 1.439 . S
C1540 N1541 1.374 . S
C1540 C1574 1.395 . S
N1541 C1537 1.376 . S
N1541 C1540 1.374 . S
N1541 Co1542 2.008 1_554 S
Co1542 N1541 2.008 1_556 S
Co1542 N1543 1.995 . S
Co1542 N1548 2.008 . S
Co1542 N1553 1.995 1_556 S
Co1542 N1558 2.282 . S
Co1542 N1564 2.282 1_556 S
N1543 Co1542 1.995 . S
N1543 C1544 1.376 1_556 S
N1543 C1547 1.383 . S
C1544 N1543 1.376 1_554 S
C1544 C1545 1.446 1_554 S
C1544 C1574 1.391 . S
C1545 C1544 1.446 1_556 S
C1545 C1546 1.339 . S
C1545 H1580 0.949 . S
C1546 C1545 1.339 . S
C1546 C1547 1.439 . S
C1546 H1581 0.950 . S
C1547 N1543 1.383 . S
C1547 C1546 1.439 . S
C1547 C1576 1.392 . S
N1548 Co1542 2.008 . S
N1548 C1549 1.376 . S
N1548 C1552 1.374 . S
C1549 N1548 1.376 . S
C1549 C1550 1.443 . S
C1549 C1576 1.389 . S
C1550 C1549 1.443 . S
C1550 C1551 1.340 . S
C1550 H1582 0.951 . S
C1551 C1550 1.340 . S
C1551 C1552 1.439 . S
C1551 H1583 0.950 . S
C1552 N1548 1.374 . S
C1552 C1551 1.439 . S
C1552 C1577 1.395 . S
N1553 Co1542 1.995 1_554 S
N1553 C1554 1.376 1_554 S
N1553 C1557 1.383 . S
C1554 N1553 1.376 1_556 S
C1554 C1555 1.446 1_556 S
C1554 C1577 1.391 . S
C1555 C1554 1.446 1_554 S
C1555 C1556 1.339 . S
C1555 H1584 0.949 . S
C1556 C1555 1.339 . S
C1556 C1557 1.439 . S
C1556 H1585 0.950 . S
C1557 N1553 1.383 . S
C1557 C1556 1.439 . S
C1557 C1575 1.392 . S
N1558 Co1542 2.282 . S
N1558 C1561 1.332 . S
N1558 C1563 1.332 . S
C1559 C1560 1.386 . S
C1559 C1562 1.388 . S
C1560 C1559 1.386 . S
C1560 C1561 1.382 . S
C1560 H1586 0.950 . S
C1561 N1558 1.332 . S
C1561 C1560 1.382 . S
C1561 H1572 0.952 . S
C1562 C1559 1.388 . S
C1562 C1563 1.382 . S
C1562 H1587 0.950 . S
C1563 N1558 1.332 . S
C1563 C1562 1.382 . S
C1563 H1573 0.948 . S
N1564 Co1542 2.282 1_554 S
N1564 C1568 1.332 . S
N1564 C1569 1.332 . S
C1565 C1566 1.388 . S
C1565 C1569 1.382 . S
C1565 H1588 0.950 . S
C1566 C1565 1.388 . S
C1566 C1567 1.386 . S
C1567 C1566 1.386 . S
C1567 C1568 1.382 . S
C1567 H1589 0.950 . S
C1568 N1564 1.332 . S
C1568 C1567 1.382 . S
C1568 H1570 0.952 . S
C1569 N1564 1.332 . S
C1569 C1565 1.382 . S
C1569 H1571 0.948 . S
H1570 C1568 0.952 . S
H1571 C1569 0.948 . S
H1572 C1561 0.952 . S
H1573 C1563 0.948 . S
C1574 C1540 1.395 . S
C1574 C1544 1.391 . S
C1575 C1537 1.389 . S
C1575 C1557 1.392 . S
C1576 C1547 1.392 . S
C1576 C1549 1.389 . S
C1577 C1552 1.395 . S
C1577 C1554 1.391 . S
H1578 C1538 0.951 . S
H1579 C1539 0.950 . S
H1580 C1545 0.949 . S
H1581 C1546 0.950 . S
H1582 C1550 0.951 . S
H1583 C1551 0.950 . S
H1584 C1555 0.949 . S
H1585 C1556 0.950 . S
H1586 C1560 0.950 . S
H1587 C1562 0.950 . S
H1588 C1565 0.950 . S
H1589 C1567 0.950 . S
C1590 C1591 1.443 . S
C1590 N1594 1.376 . S
C1590 C1628 1.389 1_455 S
C1591 C1590 1.443 . S
C1591 C1592 1.340 . S
C1591 H1631 0.951 . S
C1592 C1591 1.340 . S
C1592 C1593 1.439 . S
C1592 H1632 0.950 . S
C1593 C1592 1.439 . S
C1593 N1594 1.374 . S
C1593 C1627 1.395 . S
N1594 C1590 1.376 . S
N1594 C1593 1.374 . S
N1594 Co1595 2.008 1_455 S
Co1595 N1594 2.008 1_655 S
Co1595 N1596 1.995 1_655 S
Co1595 N1601 2.008 . S
Co1595 N1606 1.995 . S
Co1595 N1611 2.282 . S
Co1595 N1617 2.282 . S
N1596 Co1595 1.995 1_455 S
N1596 C1597 1.376 . S
N1596 C1600 1.383 . S
C1597 N1596 1.376 . S
C1597 C1598 1.446 . S
C1597 C1627 1.391 . S
C1598 C1597 1.446 . S
C1598 C1599 1.339 . S
C1598 H1633 0.949 . S
C1599 C1598 1.339 . S
C1599 C1600 1.439 . S
C1599 H1634 0.950 . S
C1600 N1596 1.383 . S
C1600 C1599 1.439 . S
C1600 C1629 1.392 . S
N1601 Co1595 2.008 . S
N1601 C1602 1.376 . S
N1601 C1605 1.374 . S
C1602 N1601 1.376 . S
C1602 C1603 1.443 . S
C1602 C1629 1.389 1_655 S
C1603 C1602 1.443 . S
C1603 C1604 1.340 . S
C1603 H1635 0.951 . S
C1604 C1603 1.340 . S
C1604 C1605 1.439 . S
C1604 H1636 0.950 . S
C1605 N1601 1.374 . S
C1605 C1604 1.439 . S
C1605 C1630 1.395 . S
N1606 Co1595 1.995 . S
N1606 C1607 1.376 . S
N1606 C1610 1.383 . S
C1607 N1606 1.376 . S
C1607 C1608 1.446 . S
C1607 C1630 1.391 . S
C1608 C1607 1.446 . S
C1608 C1609 1.339 . S
C1608 H1637 0.949 . S
C1609 C1608 1.339 . S
C1609 C1610 1.439 . S
C1609 H1638 0.950 . S
C1610 N1606 1.383 . S
C1610 C1609 1.439 . S
C1610 C1628 1.392 . S
N1611 Co1595 2.282 . S
N1611 C1614 1.332 . S
N1611 C1616 1.332 1_655 S
C1612 C1613 1.386 . S
C1612 C1615 1.388 1_655 S
C1613 C1612 1.386 . S
C1613 C1614 1.382 . S
C1613 H1639 0.950 . S
C1614 N1611 1.332 . S
C1614 C1613 1.382 . S
C1614 H1625 0.952 . S
C1615 C1612 1.388 1_455 S
C1615 C1616 1.382 . S
C1615 H1640 0.950 . S
C1616 N1611 1.332 1_455 S
C1616 C1615 1.382 . S
C1616 H1626 0.948 . S
N1617 Co1595 2.282 . S
N1617 C1621 1.332 1_655 S
N1617 C1622 1.332 . S
C1618 C1619 1.388 . S
C1618 C1622 1.382 . S
C1618 H1641 0.950 . S
C1619 C1618 1.388 . S
C1619 C1620 1.386 1_655 S
C1620 C1619 1.386 1_455 S
C1620 C1621 1.382 . S
C1620 H1642 0.950 . S
C1621 N1617 1.332 1_455 S
C1621 C1620 1.382 . S
C1621 H1623 0.952 . S
C1622 N1617 1.332 . S
C1622 C1618 1.382 . S
C1622 H1624 0.948 . S
H1623 C1621 0.952 . S
H1624 C1622 0.948 . S
H1625 C1614 0.952 . S
H1626 C1616 0.948 . S
C1627 C1593 1.395 . S
C1627 C1597 1.391 . S
C1628 C1590 1.389 1_655 S
C1628 C1610 1.392 . S
C1629 C1600 1.392 . S
C1629 C1602 1.389 1_455 S
C1630 C1605 1.395 . S
C1630 C1607 1.391 . S
H1631 C1591 0.951 . S
H1632 C1592 0.950 . S
H1633 C1598 0.949 . S
H1634 C1599 0.950 . S
H1635 C1603 0.951 . S
H1636 C1604 0.950 . S
H1637 C1608 0.949 . S
H1638 C1609 0.950 . S
H1639 C1613 0.950 . S
H1640 C1615 0.950 . S
H1641 C1618 0.950 . S
H1642 C1620 0.950 . S
C1643 C1644 1.443 . S
C1643 N1647 1.376 . S
C1643 C1681 1.389 . S
C1644 C1643 1.443 . S
C1644 C1645 1.340 . S
C1644 H1684 0.951 . S
C1645 C1644 1.340 . S
C1645 C1646 1.439 . S
C1645 H1685 0.950 . S
C1646 C1645 1.439 . S
C1646 N1647 1.374 . S
C1646 C1680 1.395 . S
N1647 C1643 1.376 . S
N1647 C1646 1.374 . S
N1647 Co1648 2.008 . S
Co1648 N1647 2.008 . S
Co1648 N1649 1.995 . S
Co1648 N1654 2.008 . S
Co1648 N1659 1.995 . S
Co1648 N1664 2.282 . S
Co1648 N1670 2.282 . S
N1649 Co1648 1.995 . S
N1649 C1650 1.376 . S
N1649 C1653 1.383 . S
C1650 N1649 1.376 . S
C1650 C1651 1.446 . S
C1650 C1680 1.391 . S
C1651 C1650 1.446 . S
C1651 C1652 1.339 . S
C1651 H1686 0.949 . S
C1652 C1651 1.339 . S
C1652 C1653 1.439 . S
C1652 H1687 0.950 . S
C1653 N1649 1.383 . S
C1653 C1652 1.439 . S
C1653 C1682 1.392 . S
N1654 Co1648 2.008 . S
N1654 C1655 1.376 . S
N1654 C1658 1.374 . S
C1655 N1654 1.376 . S
C1655 C1656 1.443 . S
C1655 C1682 1.389 . S
C1656 C1655 1.443 . S
C1656 C1657 1.340 . S
C1656 H1688 0.951 . S
C1657 C1656 1.340 . S
C1657 C1658 1.439 . S
C1657 H1689 0.950 . S
C1658 N1654 1.374 . S
C1658 C1657 1.439 . S
C1658 C1683 1.395 . S
N1659 Co1648 1.995 . S
N1659 C1660 1.376 . S
N1659 C1663 1.383 . S
C1660 N1659 1.376 . S
C1660 C1661 1.446 . S
C1660 C1683 1.391 . S
C1661 C1660 1.446 . S
C1661 C1662 1.339 . S
C1661 H1690 0.949 . S
C1662 C1661 1.339 . S
C1662 C1663 1.439 . S
C1662 H1691 0.950 . S
C1663 N1659 1.383 . S
C1663 C1662 1.439 . S
C1663 C1681 1.392 . S
N1664 Co1648 2.282 . S
N1664 C1667 1.332 . S
N1664 C1669 1.332 . S
C1665 C1666 1.386 . S
C1665 C1668 1.388 . S
C1666 C1665 1.386 . S
C1666 C1667 1.382 . S
C1666 H1692 0.950 . S
C1667 N1664 1.332 . S
C1667 C1666 1.382 . S
C1667 H1678 0.952 . S
C1668 C1665 1.388 . S
C1668 C1669 1.382 . S
C1668 H1693 0.950 . S
C1669 N1664 1.332 . S
C1669 C1668 1.382 . S
C1669 H1679 0.948 . S
N1670 Co1648 2.282 . S
N1670 C1674 1.332 . S
N1670 C1675 1.332 . S
C1671 C1672 1.388 . S
C1671 C1675 1.382 . S
C1671 H1694 0.950 . S
C1672 C1671 1.388 . S
C1672 C1673 1.386 . S
C1673 C1672 1.386 . S
C1673 C1674 1.382 . S
C1673 H1695 0.950 . S
C1674 N1670 1.332 . S
C1674 C1673 1.382 . S
C1674 H1676 0.952 . S
C1675 N1670 1.332 . S
C1675 C1671 1.382 . S
C1675 H1677 0.948 . S
H1676 C1674 0.952 . S
H1677 C1675 0.948 . S
H1678 C1667 0.952 . S
H1679 C1669 0.948 . S
C1680 C1646 1.395 . S
C1680 C1650 1.391 . S
C1681 C1643 1.389 . S
C1681 C1663 1.392 . S
C1682 C1653 1.392 . S
C1682 C1655 1.389 . S
C1683 C1658 1.395 . S
C1683 C1660 1.391 . S
H1684 C1644 0.951 . S
H1685 C1645 0.950 . S
H1686 C1651 0.949 . S
H1687 C1652 0.950 . S
H1688 C1656 0.951 . S
H1689 C1657 0.950 . S
H1690 C1661 0.949 . S
H1691 C1662 0.950 . S
H1692 C1666 0.950 . S
H1693 C1668 0.950 . S
H1694 C1671 0.950 . S
H1695 C1673 0.950 . S
C1696 C1697 1.443 . S
C1696 N1700 1.376 . S
C1696 C1734 1.389 1_565 S
C1697 C1696 1.443 . S
C1697 C1698 1.340 . S
C1697 H1737 0.951 . S
C1698 C1697 1.340 . S
C1698 C1699 1.439 . S
C1698 H1738 0.950 . S
C1699 C1698 1.439 . S
C1699 N1700 1.374 . S
C1699 C1733 1.395 . S
N1700 C1696 1.376 . S
N1700 C1699 1.374 . S
N1700 Co1701 2.008 1_565 S
Co1701 N1700 2.008 1_545 S
Co1701 N1702 1.995 1_545 S
Co1701 N1707 2.008 . S
Co1701 N1712 1.995 . S
Co1701 N1717 2.282 . S
Co1701 N1723 2.282 . S
N1702 Co1701 1.995 1_565 S
N1702 C1703 1.376 . S
N1702 C1706 1.383 . S
C1703 N1702 1.376 . S
C1703 C1704 1.446 . S
C1703 C1733 1.391 . S
C1704 C1703 1.446 . S
C1704 C1705 1.339 . S
C1704 H1739 0.949 . S
C1705 C1704 1.339 . S
C1705 C1706 1.439 . S
C1705 H1740 0.950 . S
C1706 N1702 1.383 . S
C1706 C1705 1.439 . S
C1706 C1735 1.392 . S
N1707 Co1701 2.008 . S
N1707 C1708 1.376 . S
N1707 C1711 1.374 . S
C1708 N1707 1.376 . S
C1708 C1709 1.443 . S
C1708 C1735 1.389 1_545 S
C1709 C1708 1.443 . S
C1709 C1710 1.340 . S
C1709 H1741 0.951 . S
C1710 C1709 1.340 . S
C1710 C1711 1.439 . S
C1710 H1742 0.950 . S
C1711 N1707 1.374 . S
C1711 C1710 1.439 . S
C1711 C1736 1.395 . S
N1712 Co1701 1.995 . S
N1712 C1713 1.376 . S
N1712 C1716 1.383 . S
C1713 N1712 1.376 . S
C1713 C1714 1.446 . S
C1713 C1736 1.391 . S
C1714 C1713 1.446 . S
C1714 C1715 1.339 . S
C1714 H1743 0.949 . S
C1715 C1714 1.339 . S
C1715 C1716 1.439 . S
C1715 H1744 0.950 . S
C1716 N1712 1.383 . S
C1716 C1715 1.439 . S
C1716 C1734 1.392 . S
N1717 Co1701 2.282 . S
N1717 C1720 1.332 . S
N1717 C1722 1.332 1_545 S
C1718 C1719 1.386 . S
C1718 C1721 1.388 1_545 S
C1719 C1718 1.386 . S
C1719 C1720 1.382 . S
C1719 H1745 0.950 . S
C1720 N1717 1.332 . S
C1720 C1719 1.382 . S
C1720 H1731 0.952 . S
C1721 C1718 1.388 1_565 S
C1721 C1722 1.382 . S
C1721 H1746 0.950 . S
C1722 N1717 1.332 1_565 S
C1722 C1721 1.382 . S
C1722 H1732 0.948 . S
N1723 Co1701 2.282 . S
N1723 C1727 1.332 1_545 S
N1723 C1728 1.332 . S
C1724 C1725 1.388 . S
C1724 C1728 1.382 . S
C1724 H1747 0.950 . S
C1725 C1724 1.388 . S
C1725 C1726 1.386 1_545 S
C1726 C1725 1.386 1_565 S
C1726 C1727 1.382 . S
C1726 H1748 0.950 . S
C1727 N1723 1.332 1_565 S
C1727 C1726 1.382 . S
C1727 H1729 0.952 . S
C1728 N1723 1.332 . S
C1728 C1724 1.382 . S
C1728 H1730 0.948 . S
H1729 C1727 0.952 . S
H1730 C1728 0.948 . S
H1731 C1720 0.952 . S
H1732 C1722 0.948 . S
C1733 C1699 1.395 . S
C1733 C1703 1.391 . S
C1734 C1696 1.389 1_545 S
C1734 C1716 1.392 . S
C1735 C1706 1.392 . S
C1735 C1708 1.389 1_565 S
C1736 C1711 1.395 . S
C1736 C1713 1.391 . S
H1737 C1697 0.951 . S
H1738 C1698 0.950 . S
H1739 C1704 0.949 . S
H1740 C1705 0.950 . S
H1741 C1709 0.951 . S
H1742 C1710 0.950 . S
H1743 C1714 0.949 . S
H1744 C1715 0.950 . S
H1745 C1719 0.950 . S
H1746 C1721 0.950 . S
H1747 C1724 0.950 . S
H1748 C1726 0.950 . S
C1749 C1750 1.443 . S
C1749 N1753 1.376 . S
C1749 C1787 1.389 . S
C1750 C1749 1.443 . S
C1750 C1751 1.340 . S
C1750 H1790 0.951 . S
C1751 C1750 1.340 . S
C1751 C1752 1.439 . S
C1751 H1791 0.950 . S
C1752 C1751 1.439 . S
C1752 N1753 1.374 . S
C1752 C1786 1.395 . S
N1753 C1749 1.376 . S
N1753 C1752 1.374 . S
N1753 Co1754 2.008 . S
Co1754 N1753 2.008 . S
Co1754 N1755 1.995 . S
Co1754 N1760 2.008 . S
Co1754 N1765 1.995 . S
Co1754 N1770 2.282 . S
Co1754 N1776 2.282 . S
N1755 Co1754 1.995 . S
N1755 C1756 1.376 . S
N1755 C1759 1.383 . S
C1756 N1755 1.376 . S
C1756 C1757 1.446 . S
C1756 C1786 1.391 . S
C1757 C1756 1.446 . S
C1757 C1758 1.339 . S
C1757 H1792 0.949 . S
C1758 C1757 1.339 . S
C1758 C1759 1.439 . S
C1758 H1793 0.950 . S
C1759 N1755 1.383 . S
C1759 C1758 1.439 . S
C1759 C1788 1.392 . S
N1760 Co1754 2.008 . S
N1760 C1761 1.376 . S
N1760 C1764 1.374 . S
C1761 N1760 1.376 . S
C1761 C1762 1.443 . S
C1761 C1788 1.389 . S
C1762 C1761 1.443 . S
C1762 C1763 1.340 . S
C1762 H1794 0.951 . S
C1763 C1762 1.340 . S
C1763 C1764 1.439 . S
C1763 H1795 0.950 . S
C1764 N1760 1.374 . S
C1764 C1763 1.439 . S
C1764 C1789 1.395 . S
N1765 Co1754 1.995 . S
N1765 C1766 1.376 . S
N1765 C1769 1.383 . S
C1766 N1765 1.376 . S
C1766 C1767 1.446 . S
C1766 C1789 1.391 . S
C1767 C1766 1.446 . S
C1767 C1768 1.339 . S
C1767 H1796 0.949 . S
C1768 C1767 1.339 . S
C1768 C1769 1.439 . S
C1768 H1797 0.950 . S
C1769 N1765 1.383 . S
C1769 C1768 1.439 . S
C1769 C1787 1.392 . S
N1770 Co1754 2.282 . S
N1770 C1773 1.332 . S
N1770 C1775 1.332 . S
C1771 C1772 1.386 . S
C1771 C1774 1.388 . S
C1772 C1771 1.386 . S
C1772 C1773 1.382 . S
C1772 H1798 0.950 . S
C1773 N1770 1.332 . S
C1773 C1772 1.382 . S
C1773 H1784 0.952 . S
C1774 C1771 1.388 . S
C1774 C1775 1.382 . S
C1774 H1799 0.950 . S
C1775 N1770 1.332 . S
C1775 C1774 1.382 . S
C1775 H1785 0.948 . S
N1776 Co1754 2.282 . S
N1776 C1780 1.332 . S
N1776 C1781 1.332 . S
C1777 C1778 1.388 . S
C1777 C1781 1.382 . S
C1777 H1800 0.950 . S
C1778 C1777 1.388 . S
C1778 C1779 1.386 . S
C1779 C1778 1.386 . S
C1779 C1780 1.382 . S
C1779 H1801 0.950 . S
C1780 N1776 1.332 . S
C1780 C1779 1.382 . S
C1780 H1782 0.952 . S
C1781 N1776 1.332 . S
C1781 C1777 1.382 . S
C1781 H1783 0.948 . S
H1782 C1780 0.952 . S
H1783 C1781 0.948 . S
H1784 C1773 0.952 . S
H1785 C1775 0.948 . S
C1786 C1752 1.395 . S
C1786 C1756 1.391 . S
C1787 C1749 1.389 . S
C1787 C1769 1.392 . S
C1788 C1759 1.392 . S
C1788 C1761 1.389 . S
C1789 C1764 1.395 . S
C1789 C1766 1.391 . S
H1790 C1750 0.951 . S
H1791 C1751 0.950 . S
H1792 C1757 0.949 . S
H1793 C1758 0.950 . S
H1794 C1762 0.951 . S
H1795 C1763 0.950 . S
H1796 C1767 0.949 . S
H1797 C1768 0.950 . S
H1798 C1772 0.950 . S
H1799 C1774 0.950 . S
H1800 C1777 0.950 . S
H1801 C1779 0.950 . S
C1802 C1803 1.443 . S
C1802 N1806 1.376 . S
C1802 C1840 1.389 . S
C1803 C1802 1.443 . S
C1803 C1804 1.340 . S
C1803 H1843 0.951 . S
C1804 C1803 1.340 . S
C1804 C1805 1.439 . S
C1804 H1844 0.950 . S
C1805 C1804 1.439 . S
C1805 N1806 1.374 . S
C1805 C1839 1.395 . S
N1806 C1802 1.376 . S
N1806 C1805 1.374 . S
N1806 Co1807 2.008 . S
Co1807 N1806 2.008 . S
Co1807 N1808 1.995 . S
Co1807 N1813 2.008 . S
Co1807 N1818 1.995 . S
Co1807 N1823 2.282 . S
Co1807 N1829 2.282 . S
N1808 Co1807 1.995 . S
N1808 C1809 1.376 . S
N1808 C1812 1.383 . S
C1809 N1808 1.376 . S
C1809 C1810 1.446 . S
C1809 C1839 1.391 . S
C1810 C1809 1.446 . S
C1810 C1811 1.339 . S
C1810 H1845 0.949 . S
C1811 C1810 1.339 . S
C1811 C1812 1.439 . S
C1811 H1846 0.950 . S
C1812 N1808 1.383 . S
C1812 C1811 1.439 . S
C1812 C1841 1.392 . S
N1813 Co1807 2.008 . S
N1813 C1814 1.376 . S
N1813 C1817 1.374 . S
C1814 N1813 1.376 . S
C1814 C1815 1.443 . S
C1814 C1841 1.389 . S
C1815 C1814 1.443 . S
C1815 C1816 1.340 . S
C1815 H1847 0.951 . S
C1816 C1815 1.340 . S
C1816 C1817 1.439 . S
C1816 H1848 0.950 . S
C1817 N1813 1.374 . S
C1817 C1816 1.439 . S
C1817 C1842 1.395 . S
N1818 Co1807 1.995 . S
N1818 C1819 1.376 . S
N1818 C1822 1.383 . S
C1819 N1818 1.376 . S
C1819 C1820 1.446 . S
C1819 C1842 1.391 . S
C1820 C1819 1.446 . S
C1820 C1821 1.339 . S
C1820 H1849 0.949 . S
C1821 C1820 1.339 . S
C1821 C1822 1.439 . S
C1821 H1850 0.950 . S
C1822 N1818 1.383 . S
C1822 C1821 1.439 . S
C1822 C1840 1.392 . S
N1823 Co1807 2.282 . S
N1823 C1826 1.332 . S
N1823 C1828 1.332 . S
C1824 C1825 1.386 . S
C1824 C1827 1.388 . S
C1825 C1824 1.386 . S
C1825 C1826 1.382 . S
C1825 H1851 0.950 . S
C1826 N1823 1.332 . S
C1826 C1825 1.382 . S
C1826 H1837 0.952 . S
C1827 C1824 1.388 . S
C1827 C1828 1.382 . S
C1827 H1852 0.950 . S
C1828 N1823 1.332 . S
C1828 C1827 1.382 . S
C1828 H1838 0.948 . S
N1829 Co1807 2.282 . S
N1829 C1833 1.332 . S
N1829 C1834 1.332 . S
C1830 C1831 1.388 . S
C1830 C1834 1.382 . S
C1830 H1853 0.950 . S
C1831 C1830 1.388 . S
C1831 C1832 1.386 . S
C1832 C1831 1.386 . S
C1832 C1833 1.382 . S
C1832 H1854 0.950 . S
C1833 N1829 1.332 . S
C1833 C1832 1.382 . S
C1833 H1835 0.952 . S
C1834 N1829 1.332 . S
C1834 C1830 1.382 . S
C1834 H1836 0.948 . S
H1835 C1833 0.952 . S
H1836 C1834 0.948 . S
H1837 C1826 0.952 . S
H1838 C1828 0.948 . S
C1839 C1805 1.395 . S
C1839 C1809 1.391 . S
C1840 C1802 1.389 . S
C1840 C1822 1.392 . S
C1841 C1812 1.392 . S
C1841 C1814 1.389 . S
C1842 C1817 1.395 . S
C1842 C1819 1.391 . S
H1843 C1803 0.951 . S
H1844 C1804 0.950 . S
H1845 C1810 0.949 . S
H1846 C1811 0.950 . S
H1847 C1815 0.951 . S
H1848 C1816 0.950 . S
H1849 C1820 0.949 . S
H1850 C1821 0.950 . S
H1851 C1825 0.950 . S
H1852 C1827 0.950 . S
H1853 C1830 0.950 . S
H1854 C1832 0.950 . S
C1855 C1856 1.443 . S
C1855 N1859 1.376 . S
C1855 C1893 1.389 . S
C1856 C1855 1.443 . S
C1856 C1857 1.340 . S
C1856 H1896 0.951 . S
C1857 C1856 1.340 . S
C1857 C1858 1.439 . S
C1857 H1897 0.950 . S
C1858 C1857 1.439 . S
C1858 N1859 1.374 . S
C1858 C1892 1.395 . S
N1859 C1855 1.376 . S
N1859 C1858 1.374 . S
N1859 Co1860 2.008 . S
Co1860 N1859 2.008 . S
Co1860 N1861 1.995 . S
Co1860 N1866 2.008 . S
Co1860 N1871 1.995 . S
Co1860 N1876 2.282 . S
Co1860 N1882 2.282 . S
N1861 Co1860 1.995 . S
N1861 C1862 1.376 . S
N1861 C1865 1.383 . S
C1862 N1861 1.376 . S
C1862 C1863 1.446 . S
C1862 C1892 1.391 . S
C1863 C1862 1.446 . S
C1863 C1864 1.339 . S
C1863 H1898 0.949 . S
C1864 C1863 1.339 . S
C1864 C1865 1.439 . S
C1864 H1899 0.950 . S
C1865 N1861 1.383 . S
C1865 C1864 1.439 . S
C1865 C1894 1.392 . S
N1866 Co1860 2.008 . S
N1866 C1867 1.376 . S
N1866 C1870 1.374 . S
C1867 N1866 1.376 . S
C1867 C1868 1.443 . S
C1867 C1894 1.389 . S
C1868 C1867 1.443 . S
C1868 C1869 1.340 . S
C1868 H1900 0.951 . S
C1869 C1868 1.340 . S
C1869 C1870 1.439 . S
C1869 H1901 0.950 . S
C1870 N1866 1.374 . S
C1870 C1869 1.439 . S
C1870 C1895 1.395 . S
N1871 Co1860 1.995 . S
N1871 C1872 1.376 . S
N1871 C1875 1.383 . S
C1872 N1871 1.376 . S
C1872 C1873 1.446 . S
C1872 C1895 1.391 . S
C1873 C1872 1.446 . S
C1873 C1874 1.339 . S
C1873 H1902 0.949 . S
C1874 C1873 1.339 . S
C1874 C1875 1.439 . S
C1874 H1903 0.950 . S
C1875 N1871 1.383 . S
C1875 C1874 1.439 . S
C1875 C1893 1.392 . S
N1876 Co1860 2.282 . S
N1876 C1879 1.332 . S
N1876 C1881 1.332 . S
C1877 C1878 1.386 . S
C1877 C1880 1.388 . S
C1878 C1877 1.386 . S
C1878 C1879 1.382 . S
C1878 H1904 0.950 . S
C1879 N1876 1.332 . S
C1879 C1878 1.382 . S
C1879 H1890 0.952 . S
C1880 C1877 1.388 . S
C1880 C1881 1.382 . S
C1880 H1905 0.950 . S
C1881 N1876 1.332 . S
C1881 C1880 1.382 . S
C1881 H1891 0.948 . S
N1882 Co1860 2.282 . S
N1882 C1886 1.332 . S
N1882 C1887 1.332 . S
C1883 C1884 1.388 . S
C1883 C1887 1.382 . S
C1883 H1906 0.950 . S
C1884 C1883 1.388 . S
C1884 C1885 1.386 . S
C1885 C1884 1.386 . S
C1885 C1886 1.382 . S
C1885 H1907 0.950 . S
C1886 N1882 1.332 . S
C1886 C1885 1.382 . S
C1886 H1888 0.952 . S
C1887 N1882 1.332 . S
C1887 C1883 1.382 . S
C1887 H1889 0.948 . S
H1888 C1886 0.952 . S
H1889 C1887 0.948 . S
H1890 C1879 0.952 . S
H1891 C1881 0.948 . S
C1892 C1858 1.395 . S
C1892 C1862 1.391 . S
C1893 C1855 1.389 . S
C1893 C1875 1.392 . S
C1894 C1865 1.392 . S
C1894 C1867 1.389 . S
C1895 C1870 1.395 . S
C1895 C1872 1.391 . S
H1896 C1856 0.951 . S
H1897 C1857 0.950 . S
H1898 C1863 0.949 . S
H1899 C1864 0.950 . S
H1900 C1868 0.951 . S
H1901 C1869 0.950 . S
H1902 C1873 0.949 . S
H1903 C1874 0.950 . S
H1904 C1878 0.950 . S
H1905 C1880 0.950 . S
H1906 C1883 0.950 . S
H1907 C1885 0.950 . S
H1908 C1914 0.930 . S
H1909 C1918 0.930 . S
H1910 C1923 0.929 . S
H1911 C1921 0.929 . S
H1912 C1916 0.929 . S
H1913 C1922 0.929 . S
C1914 H1908 0.930 . S
C1914 C1915 1.367 . S
C1914 C1922 1.378 . S
C1915 C1914 1.367 . S
C1915 C1923 1.433 . S
C1916 H1912 0.929 . S
C1916 C1918 1.378 . S
C1916 C1920 1.350 . S
C1917 C1920 1.463 . S
C1917 C1922 1.350 . S
C1917 N1925 1.427 . S
C1918 H1909 0.930 . S
C1918 C1916 1.378 . S
C1918 C1919 1.367 . S
C1919 C1918 1.367 . S
C1919 C1921 1.433 . S
C1920 C1916 1.350 . S
C1920 C1917 1.463 . S
C1920 N1924 1.427 . S
C1921 H1911 0.929 . S
C1921 C1919 1.433 . S
C1921 N1924 1.384 . S
C1922 H1913 0.929 . S
C1922 C1914 1.378 . S
C1922 C1917 1.350 . S
C1923 H1910 0.929 . S
C1923 C1915 1.433 . S
C1923 N1925 1.384 . S
N1924 C1920 1.427 . S
N1924 C1921 1.384 . S
N1925 C1917 1.427 . S
N1925 C1923 1.384 . S
H1926 C1932 0.930 . S
H1927 C1936 0.930 . S
H1928 C1941 0.929 . S
H1929 C1939 0.929 . S
H1930 C1934 0.929 . S
H1931 C1940 0.929 . S
C1932 H1926 0.930 . S
C1932 C1933 1.367 . S
C1932 C1940 1.378 . S
C1933 C1932 1.367 . S
C1933 C1941 1.433 . S
C1934 H1930 0.929 . S
C1934 C1936 1.378 . S
C1934 C1938 1.350 . S
C1935 C1938 1.463 . S
C1935 C1940 1.350 . S
C1935 N1943 1.427 . S
C1936 H1927 0.930 . S
C1936 C1934 1.378 . S
C1936 C1937 1.367 . S
C1937 C1936 1.367 . S
C1937 C1939 1.433 . S
C1938 C1934 1.350 . S
C1938 C1935 1.463 . S
C1938 N1942 1.427 . S
C1939 H1929 0.929 . S
C1939 C1937 1.433 . S
C1939 N1942 1.384 . S
C1940 H1931 0.929 . S
C1940 C1932 1.378 . S
C1940 C1935 1.350 . S
C1941 H1928 0.929 . S
C1941 C1933 1.433 . S
C1941 N1943 1.384 . S
N1942 C1938 1.427 . S
N1942 C1939 1.384 . S
N1943 C1935 1.427 . S
N1943 C1941 1.384 . S
H1944 C1950 0.930 . S
H1945 C1954 0.930 . S
H1946 C1959 0.929 . S
H1947 C1957 0.929 . S
H1948 C1952 0.929 . S
H1949 C1958 0.929 . S
C1950 H1944 0.930 . S
C1950 C1951 1.367 . S
C1950 C1958 1.378 . S
C1951 C1950 1.367 . S
C1951 C1959 1.433 . S
C1952 H1948 0.929 . S
C1952 C1954 1.378 . S
C1952 C1956 1.350 . S
C1953 C1956 1.463 . S
C1953 C1958 1.350 . S
C1953 N1961 1.427 . S
C1954 H1945 0.930 . S
C1954 C1952 1.378 . S
C1954 C1955 1.367 . S
C1955 C1954 1.367 . S
C1955 C1957 1.433 . S
C1956 C1952 1.350 . S
C1956 C1953 1.463 . S
C1956 N1960 1.427 . S
C1957 H1947 0.929 . S
C1957 C1955 1.433 . S
C1957 N1960 1.384 . S
C1958 H1949 0.929 . S
C1958 C1950 1.378 . S
C1958 C1953 1.350 . S
C1959 H1946 0.929 . S
C1959 C1951 1.433 . S
C1959 N1961 1.384 . S
N1960 C1956 1.427 . S
N1960 C1957 1.384 . S
N1961 C1953 1.427 . S
N1961 C1959 1.384 . S
H1962 C1968 0.913 1_556 S
H1963 C1972 0.930 . S
H1964 C1977 0.929 . S
H1965 C1975 0.929 . S
H1966 C1970 0.929 . S
H1967 C1976 0.929 . S
C1968 H1962 0.913 1_554 S
C1968 C1969 1.367 1_554 S
C1968 C1976 1.378 . S
C1969 C1968 1.367 1_556 S
C1969 C1977 1.433 1_556 S
C1970 H1966 0.929 . S
C1970 C1972 1.378 . S
C1970 C1974 1.350 . S
C1971 C1974 1.463 . S
C1971 C1976 1.350 . S
C1971 N1979 1.427 . S
C1972 H1963 0.930 . S
C1972 C1970 1.378 . S
C1972 C1973 1.367 . S
C1973 C1972 1.367 . S
C1973 C1975 1.433 . S
C1974 C1970 1.350 . S
C1974 C1971 1.463 . S
C1974 N1978 1.427 . S
C1975 H1965 0.929 . S
C1975 C1973 1.433 . S
C1975 N1978 1.384 . S
C1976 H1967 0.929 . S
C1976 C1968 1.378 . S
C1976 C1971 1.350 . S
C1977 H1964 0.929 . S
C1977 C1969 1.433 1_554 S
C1977 N1979 1.384 . S
N1978 C1974 1.427 . S
N1978 C1975 1.384 . S
N1979 C1971 1.427 . S
N1979 C1977 1.384 . S
H1980 C1986 0.930 . S
H1981 C1990 0.930 . S
H1982 C1995 0.929 . S
H1983 C1993 0.929 1_556 S
H1984 C1988 0.929 . S
H1985 C1994 0.929 . S
C1986 H1980 0.930 . S
C1986 C1987 1.367 . S
C1986 C1994 1.378 . S
C1987 C1986 1.367 . S
C1987 C1995 1.433 . S
C1988 H1984 0.929 . S
C1988 C1990 1.378 . S
C1988 C1992 1.350 . S
C1989 C1992 1.463 . S
C1989 C1994 1.350 . S
C1989 N1997 1.427 . S
C1990 H1981 0.930 . S
C1990 C1988 1.378 . S
C1990 C1991 1.367 1_554 S
C1991 C1990 1.367 1_556 S
C1991 C1993 1.433 1_556 S
C1992 C1988 1.350 . S
C1992 C1989 1.463 . S
C1992 N1996 1.427 . S
C1993 H1983 0.929 1_554 S
C1993 C1991 1.433 1_554 S
C1993 N1996 1.384 . S
C1994 H1985 0.929 . S
C1994 C1986 1.378 . S
C1994 C1989 1.350 . S
C1995 H1982 0.929 . S
C1995 C1987 1.433 . S
C1995 N1997 1.384 . S
N1996 C1992 1.427 . S
N1996 C1993 1.384 . S
N1997 C1989 1.427 . S
N1997 C1995 1.384 . S
H1998 C2004 0.930 . S
H1999 C2008 0.930 . S
H2000 C2013 0.929 . S
H2001 C2011 0.943 . S
H2002 C2006 0.929 . S
H2003 C2012 0.929 . S
C2004 H1998 0.930 . S
C2004 C2005 1.367 . S
C2004 C2012 1.378 . S
C2005 C2004 1.367 . S
C2005 C2013 1.433 . S
C2006 H2002 0.929 . S
C2006 C2008 1.378 . S
C2006 C2010 1.350 . S
C2007 C2010 1.463 . S
C2007 C2012 1.350 . S
C2007 N2015 1.427 . S
C2008 H1999 0.930 . S
C2008 C2006 1.378 . S
C2008 C2009 1.367 1_554 S
C2009 C2008 1.367 1_556 S
C2009 C2011 1.433 1_556 S
C2010 C2006 1.350 . S
C2010 C2007 1.463 . S
C2010 N2014 1.427 . S
C2011 H2001 0.943 . S
C2011 C2009 1.433 1_554 S
C2011 N2014 1.384 . S
C2012 H2003 0.929 . S
C2012 C2004 1.378 . S
C2012 C2007 1.350 . S
C2013 H2000 0.929 . S
C2013 C2005 1.433 . S
C2013 N2015 1.384 . S
N2014 C2010 1.427 . S
N2014 C2011 1.384 . S
N2015 C2007 1.427 . S
N2015 C2013 1.384 . S
H2016 C2022 0.930 . S
H2017 C2026 0.930 . S
H2018 C2031 0.929 . S
H2019 C2029 0.929 . S
H2020 C2024 0.929 . S
H2021 C2030 0.929 . S
C2022 H2016 0.930 . S
C2022 C2023 1.367 . S
C2022 C2030 1.378 . S
C2023 C2022 1.367 . S
C2023 C2031 1.433 . S
C2024 H2020 0.929 . S
C2024 C2026 1.378 . S
C2024 C2028 1.350 . S
C2025 C2028 1.463 . S
C2025 C2030 1.350 . S
C2025 N2033 1.427 . S
C2026 H2017 0.930 . S
C2026 C2024 1.378 . S
C2026 C2027 1.367 . S
C2027 C2026 1.367 . S
C2027 C2029 1.433 . S
C2028 C2024 1.350 . S
C2028 C2025 1.463 . S
C2028 N2032 1.427 . S
C2029 H2019 0.929 . S
C2029 C2027 1.433 . S
C2029 N2032 1.384 . S
C2030 H2021 0.929 . S
C2030 C2022 1.378 . S
C2030 C2025 1.350 . S
C2031 H2018 0.929 . S
C2031 C2023 1.433 . S
C2031 N2033 1.384 . S
N2032 C2028 1.427 . S
N2032 C2029 1.384 . S
N2033 C2025 1.427 . S
N2033 C2031 1.384 . S
H2034 C2040 0.930 . S
H2035 C2044 0.930 . S
H2036 C2049 0.929 . S
H2037 C2047 0.929 . S
H2038 C2042 0.929 . S
H2039 C2048 0.929 . S
C2040 H2034 0.930 . S
C2040 C2041 1.367 . S
C2040 C2048 1.378 . S
C2041 C2040 1.367 . S
C2041 C2049 1.433 . S
C2042 H2038 0.929 . S
C2042 C2044 1.378 . S
C2042 C2046 1.350 . S
C2043 C2046 1.463 . S
C2043 C2048 1.350 . S
C2043 N2051 1.427 . S
C2044 H2035 0.930 . S
C2044 C2042 1.378 . S
C2044 C2045 1.367 . S
C2045 C2044 1.367 . S
C2045 C2047 1.433 . S
C2046 C2042 1.350 . S
C2046 C2043 1.463 . S
C2046 N2050 1.427 . S
C2047 H2037 0.929 . S
C2047 C2045 1.433 . S
C2047 N2050 1.384 . S
C2048 H2039 0.929 . S
C2048 C2040 1.378 . S
C2048 C2043 1.350 . S
C2049 H2036 0.929 . S
C2049 C2041 1.433 . S
C2049 N2051 1.384 . S
N2050 C2046 1.427 . S
N2050 C2047 1.384 . S
N2051 C2043 1.427 . S
N2051 C2049 1.384 . S
H2052 C2058 0.930 . S
H2053 C2062 0.930 . S
H2054 C2067 0.929 . S
H2055 C2065 0.929 . S
H2056 C2060 0.929 . S
H2057 C2066 0.929 . S
C2058 H2052 0.930 . S
C2058 C2059 1.367 . S
C2058 C2066 1.378 . S
C2059 C2058 1.367 . S
C2059 C2067 1.433 . S
C2060 H2056 0.929 . S
C2060 C2062 1.378 . S
C2060 C2064 1.350 . S
C2061 C2064 1.463 . S
C2061 C2066 1.350 . S
C2061 N2069 1.427 . S
C2062 H2053 0.930 . S
C2062 C2060 1.378 . S
C2062 C2063 1.367 . S
C2063 C2062 1.367 . S
C2063 C2065 1.433 . S
C2064 C2060 1.350 . S
C2064 C2061 1.463 . S
C2064 N2068 1.427 . S
C2065 H2055 0.929 . S
C2065 C2063 1.433 . S
C2065 N2068 1.384 . S
C2066 H2057 0.929 . S
C2066 C2058 1.378 . S
C2066 C2061 1.350 . S
C2067 H2054 0.929 . S
C2067 C2059 1.433 . S
C2067 N2069 1.384 . S
N2068 C2064 1.427 . S
N2068 C2065 1.384 . S
N2069 C2061 1.427 . S
N2069 C2067 1.384 . S
H2070 C2076 0.930 . S
H2071 C2080 0.930 . S
H2072 C2085 0.929 . S
H2073 C2083 0.929 1_554 S
H2074 C2078 0.929 . S
H2075 C2084 0.929 . S
C2076 H2070 0.930 . S
C2076 C2077 1.367 . S
C2076 C2084 1.378 . S
C2077 C2076 1.367 . S
C2077 C2085 1.433 . S
C2078 H2074 0.929 . S
C2078 C2080 1.378 . S
C2078 C2082 1.350 . S
C2079 C2082 1.463 . S
C2079 C2084 1.350 . S
C2079 N2087 1.427 . S
C2080 H2071 0.930 . S
C2080 C2078 1.378 . S
C2080 C2081 1.367 1_556 S
C2081 C2080 1.367 1_554 S
C2081 C2083 1.433 1_554 S
C2082 C2078 1.350 . S
C2082 C2079 1.463 . S
C2082 N2086 1.427 . S
C2083 H2073 0.929 1_556 S
C2083 C2081 1.433 1_556 S
C2083 N2086 1.384 . S
C2084 H2075 0.929 . S
C2084 C2076 1.378 . S
C2084 C2079 1.350 . S
C2085 H2072 0.929 . S
C2085 C2077 1.433 . S
C2085 N2087 1.384 . S
N2086 C2082 1.427 . S
N2086 C2083 1.384 . S
N2087 C2079 1.427 . S
N2087 C2085 1.384 . S
H2088 C2094 0.930 1_554 S
H2089 C2098 0.930 . S
H2090 C2103 0.929 . S
H2091 C2101 0.929 . S
H2092 C2096 0.929 . S
H2093 C2102 0.929 . S
C2094 H2088 0.930 1_556 S
C2094 C2095 1.367 1_556 S
C2094 C2102 1.378 . S
C2095 C2094 1.367 1_554 S
C2095 C2103 1.433 1_554 S
C2096 H2092 0.929 . S
C2096 C2098 1.378 . S
C2096 C2100 1.350 . S
C2097 C2100 1.463 . S
C2097 C2102 1.350 . S
C2097 N2105 1.427 . S
C2098 H2089 0.930 . S
C2098 C2096 1.378 . S
C2098 C2099 1.367 . S
C2099 C2098 1.367 . S
C2099 C2101 1.433 . S
C2100 C2096 1.350 . S
C2100 C2097 1.463 . S
C2100 N2104 1.427 . S
C2101 H2091 0.929 . S
C2101 C2099 1.433 . S
C2101 N2104 1.384 . S
C2102 H2093 0.929 . S
C2102 C2094 1.378 . S
C2102 C2097 1.350 . S
C2103 H2090 0.929 . S
C2103 C2095 1.433 1_556 S
C2103 N2105 1.384 . S
N2104 C2100 1.427 . S
N2104 C2101 1.384 . S
N2105 C2097 1.427 . S
N2105 C2103 1.384 . S
H2106 C2112 0.930 . S
H2107 C2116 0.930 1_554 S
H2108 C2121 0.929 . S
H2109 C2119 0.929 . S
H2110 C2114 0.929 . S
H2111 C2120 0.929 . S
C2112 H2106 0.930 . S
C2112 C2113 1.367 . S
C2112 C2120 1.378 . S
C2113 C2112 1.367 . S
C2113 C2121 1.433 . S
C2114 H2110 0.929 . S
C2114 C2116 1.378 . S
C2114 C2118 1.350 . S
C2115 C2118 1.463 . S
C2115 C2120 1.350 . S
C2115 N2123 1.427 . S
C2116 H2107 0.930 1_556 S
C2116 C2114 1.378 . S
C2116 C2117 1.367 1_556 S
C2117 C2116 1.367 1_554 S
C2117 C2119 1.433 1_554 S
C2118 C2114 1.350 . S
C2118 C2115 1.463 . S
C2118 N2122 1.427 . S
C2119 H2109 0.929 . S
C2119 C2117 1.433 1_556 S
C2119 N2122 1.384 . S
C2120 H2111 0.929 . S
C2120 C2112 1.378 . S
C2120 C2115 1.350 . S
C2121 H2108 0.929 . S
C2121 C2113 1.433 . S
C2121 N2123 1.384 . S
N2122 C2118 1.427 . S
N2122 C2119 1.384 . S
N2123 C2115 1.427 . S
N2123 C2121 1.384 . S
H2124 C2130 0.930 . S
H2125 C2134 0.930 . S
H2126 C2139 0.929 . S
H2127 C2137 0.929 . S
H2128 C2132 0.929 . S
H2129 C2138 0.929 . S
C2130 H2124 0.930 . S
C2130 C2131 1.367 1_455 S
C2130 C2138 1.378 . S
C2131 C2130 1.367 1_655 S
C2131 C2139 1.433 . S
C2132 H2128 0.929 . S
C2132 C2134 1.378 . S
C2132 C2136 1.350 . S
C2133 C2136 1.463 . S
C2133 C2138 1.350 1_655 S
C2133 N2141 1.427 . S
C2134 H2125 0.930 . S
C2134 C2132 1.378 . S
C2134 C2135 1.367 1_655 S
C2135 C2134 1.367 1_455 S
C2135 C2137 1.433 . S
C2136 C2132 1.350 . S
C2136 C2133 1.463 . S
C2136 N2140 1.427 1_655 S
C2137 H2127 0.929 . S
C2137 C2135 1.433 . S
C2137 N2140 1.384 . S
C2138 H2129 0.929 . S
C2138 C2130 1.378 . S
C2138 C2133 1.350 1_455 S
C2139 H2126 0.929 . S
C2139 C2131 1.433 . S
C2139 N2141 1.384 . S
N2140 C2136 1.427 1_455 S
N2140 C2137 1.384 . S
N2141 C2133 1.427 . S
N2141 C2139 1.384 . S
H2142 C2148 0.930 . S
H2143 C2152 0.930 . S
H2144 C2157 0.929 . S
H2145 C2155 0.929 . S
H2146 C2150 0.929 . S
H2147 C2156 0.929 . S
C2148 H2142 0.930 . S
C2148 C2149 1.367 . S
C2148 C2156 1.378 . S
C2149 C2148 1.367 . S
C2149 C2157 1.433 . S
C2150 H2146 0.929 . S
C2150 C2152 1.378 . S
C2150 C2154 1.350 . S
C2151 C2154 1.463 . S
C2151 C2156 1.350 . S
C2151 N2159 1.427 . S
C2152 H2143 0.930 . S
C2152 C2150 1.378 . S
C2152 C2153 1.367 . S
C2153 C2152 1.367 . S
C2153 C2155 1.433 . S
C2154 C2150 1.350 . S
C2154 C2151 1.463 . S
C2154 N2158 1.427 . S
C2155 H2145 0.929 . S
C2155 C2153 1.433 . S
C2155 N2158 1.384 . S
C2156 H2147 0.929 . S
C2156 C2148 1.378 . S
C2156 C2151 1.350 . S
C2157 H2144 0.929 . S
C2157 C2149 1.433 . S
C2157 N2159 1.384 . S
N2158 C2154 1.427 . S
N2158 C2155 1.384 . S
N2159 C2151 1.427 . S
N2159 C2157 1.384 . S
H2160 C2166 0.930 . S
H2161 C2170 0.930 . S
H2162 C2175 0.929 . S
H2163 C2173 0.929 . S
H2164 C2168 0.929 . S
H2165 C2174 0.929 . S
C2166 H2160 0.930 . S
C2166 C2167 1.367 . S
C2166 C2174 1.378 . S
C2167 C2166 1.367 . S
C2167 C2175 1.433 1_545 S
C2168 H2164 0.929 . S
C2168 C2170 1.378 . S
C2168 C2172 1.306 1_565 S
C2169 C2172 1.471 . S
C2169 C2174 1.350 . S
C2169 N2177 1.427 1_545 S
C2170 H2161 0.930 . S
C2170 C2168 1.378 . S
C2170 C2171 1.367 . S
C2171 C2170 1.367 . S
C2171 C2173 1.433 1_565 S
C2172 C2168 1.306 1_545 S
C2172 C2169 1.471 . S
C2172 N2176 1.468 . S
C2173 H2163 0.929 . S
C2173 C2171 1.433 1_545 S
C2173 N2176 1.384 . S
C2174 H2165 0.929 . S
C2174 C2166 1.378 . S
C2174 C2169 1.350 . S
C2175 H2162 0.929 . S
C2175 C2167 1.433 1_565 S
C2175 N2177 1.384 . S
N2176 C2172 1.468 . S
N2176 C2173 1.384 . S
N2177 C2169 1.427 1_565 S
N2177 C2175 1.384 . S
H2178 C2184 0.930 . S
H2179 C2188 0.930 . S
H2180 C2193 0.929 . S
H2181 C2191 0.929 . S
H2182 C2186 0.929 . S
H2183 C2192 0.929 . S
C2184 H2178 0.930 . S
C2184 C2185 1.367 1_565 S
C2184 C2192 1.378 . S
C2185 C2184 1.367 1_545 S
C2185 C2193 1.433 . S
C2186 H2182 0.929 . S
C2186 C2188 1.378 . S
C2186 C2190 1.350 1_545 S
C2187 C2190 1.463 . S
C2187 C2192 1.350 . S
C2187 N2195 1.427 1_565 S
C2188 H2179 0.930 . S
C2188 C2186 1.378 . S
C2188 C2189 1.367 1_545 S
C2189 C2188 1.367 1_565 S
C2189 C2191 1.433 . S
C2190 C2186 1.350 1_565 S
C2190 C2187 1.463 . S
C2190 N2194 1.427 . S
C2191 H2181 0.929 . S
C2191 C2189 1.433 . S
C2191 N2194 1.384 . S
C2192 H2183 0.929 . S
C2192 C2184 1.378 . S
C2192 C2187 1.350 . S
C2193 H2180 0.929 . S
C2193 C2185 1.433 . S
C2193 N2195 1.384 . S
N2194 C2190 1.427 . S
N2194 C2191 1.384 . S
N2195 C2187 1.427 1_545 S
N2195 C2193 1.384 . S
H2196 C2202 0.930 . S
H2197 C2206 0.930 . S
H2198 C2211 0.929 . S
H2199 C2209 0.929 . S
H2200 C2204 0.929 . S
H2201 C2210 0.929 . S
C2202 H2196 0.930 . S
C2202 C2203 1.367 . S
C2202 C2210 1.378 . S
C2203 C2202 1.367 . S
C2203 C2211 1.433 1_655 S
C2204 H2200 0.929 . S
C2204 C2206 1.378 . S
C2204 C2208 1.350 . S
C2205 C2208 1.471 . S
C2205 C2210 1.310 1_455 S
C2205 N2213 1.465 . S
C2206 H2197 0.930 . S
C2206 C2204 1.378 . S
C2206 C2207 1.367 . S
C2207 C2206 1.367 . S
C2207 C2209 1.433 1_455 S
C2208 C2204 1.350 . S
C2208 C2205 1.471 . S
C2208 N2212 1.427 1_455 S
C2209 H2199 0.929 . S
C2209 C2207 1.433 1_655 S
C2209 N2212 1.384 . S
C2210 H2201 0.929 . S
C2210 C2202 1.378 . S
C2210 C2205 1.310 1_655 S
C2211 H2198 0.929 . S
C2211 C2203 1.433 1_455 S
C2211 N2213 1.384 . S
N2212 C2208 1.427 1_655 S
N2212 C2209 1.384 . S
N2213 C2205 1.465 . S
N2213 C2211 1.384 . S
H2214 C2220 0.930 . S
H2215 C2224 0.930 . S
H2216 C2229 0.929 . S
H2217 C2227 0.929 . S
H2218 C2222 0.929 . S
H2219 C2228 0.929 . S
C2220 H2214 0.930 . S
C2220 C2221 1.367 . S
C2220 C2228 1.378 . S
C2221 C2220 1.367 . S
C2221 C2229 1.433 . S
C2222 H2218 0.929 . S
C2222 C2224 1.378 . S
C2222 C2226 1.350 . S
C2223 C2226 1.463 . S
C2223 C2228 1.350 . S
C2223 N2231 1.427 . S
C2224 H2215 0.930 . S
C2224 C2222 1.378 . S
C2224 C2225 1.367 . S
C2225 C2224 1.367 . S
C2225 C2227 1.433 . S
C2226 C2222 1.350 . S
C2226 C2223 1.463 . S
C2226 N2230 1.427 . S
C2227 H2217 0.929 . S
C2227 C2225 1.433 . S
C2227 N2230 1.384 . S
C2228 H2219 0.929 . S
C2228 C2220 1.378 . S
C2228 C2223 1.350 . S
C2229 H2216 0.929 . S
C2229 C2221 1.433 . S
C2229 N2231 1.384 . S
N2230 C2226 1.427 . S
N2230 C2227 1.384 . S
N2231 C2223 1.427 . S
N2231 C2229 1.384 . S
H2232 C2238 0.930 . S
H2233 C2242 0.930 . S
H2234 C2247 0.929 . S
H2235 C2245 0.929 . S
H2236 C2240 0.929 . S
H2237 C2246 0.929 . S
C2238 H2232 0.930 . S
C2238 C2239 1.367 . S
C2238 C2246 1.378 . S
C2239 C2238 1.367 . S
C2239 C2247 1.433 . S
C2240 H2236 0.929 . S
C2240 C2242 1.378 . S
C2240 C2244 1.350 . S
C2241 C2244 1.463 . S
C2241 C2246 1.350 . S
C2241 N2249 1.427 . S
C2242 H2233 0.930 . S
C2242 C2240 1.378 . S
C2242 C2243 1.367 . S
C2243 C2242 1.367 . S
C2243 C2245 1.433 . S
C2244 C2240 1.350 . S
C2244 C2241 1.463 . S
C2244 N2248 1.427 . S
C2245 H2235 0.929 . S
C2245 C2243 1.433 . S
C2245 N2248 1.384 . S
C2246 H2237 0.929 . S
C2246 C2238 1.378 . S
C2246 C2241 1.350 . S
C2247 H2234 0.929 . S
C2247 C2239 1.433 . S
C2247 N2249 1.384 . S
N2248 C2244 1.427 . S
N2248 C2245 1.384 . S
N2249 C2241 1.427 . S
N2249 C2247 1.384 . S
H2250 C2256 0.930 . S
H2251 C2260 0.930 . S
H2252 C2265 0.929 . S
H2253 C2263 0.929 . S
H2254 C2258 0.929 . S
H2255 C2264 0.929 . S
C2256 H2250 0.930 . S
C2256 C2257 1.367 . S
C2256 C2264 1.378 . S
C2257 C2256 1.367 . S
C2257 C2265 1.433 . S
C2258 H2254 0.929 . S
C2258 C2260 1.378 . S
C2258 C2262 1.350 . S
C2259 C2262 1.463 . S
C2259 C2264 1.350 . S
C2259 N2267 1.427 . S
C2260 H2251 0.930 . S
C2260 C2258 1.378 . S
C2260 C2261 1.367 . S
C2261 C2260 1.367 . S
C2261 C2263 1.433 . S
C2262 C2258 1.350 . S
C2262 C2259 1.463 . S
C2262 N2266 1.427 . S
C2263 H2253 0.929 . S
C2263 C2261 1.433 . S
C2263 N2266 1.384 . S
C2264 H2255 0.929 . S
C2264 C2256 1.378 . S
C2264 C2259 1.350 . S
C2265 H2252 0.929 . S
C2265 C2257 1.433 . S
C2265 N2267 1.384 . S
N2266 C2262 1.427 . S
N2266 C2263 1.384 . S
N2267 C2259 1.427 . S
N2267 C2265 1.384 . S
H2268 C2274 0.930 . S
H2269 C2278 0.930 . S
H2270 C2283 0.929 . S
H2271 C2281 0.929 . S
H2272 C2276 0.929 . S
H2273 C2282 0.929 . S
C2274 H2268 0.930 . S
C2274 C2275 1.367 . S
C2274 C2282 1.378 . S
C2275 C2274 1.367 . S
C2275 C2283 1.433 . S
C2276 H2272 0.929 . S
C2276 C2278 1.378 . S
C2276 C2280 1.350 . S
C2277 C2280 1.463 . S
C2277 C2282 1.350 . S
C2277 N2285 1.427 . S
C2278 H2269 0.930 . S
C2278 C2276 1.378 . S
C2278 C2279 1.367 . S
C2279 C2278 1.367 . S
C2279 C2281 1.433 . S
C2280 C2276 1.350 . S
C2280 C2277 1.463 . S
C2280 N2284 1.427 . S
C2281 H2271 0.929 . S
C2281 C2279 1.433 . S
C2281 N2284 1.384 . S
C2282 H2273 0.929 . S
C2282 C2274 1.378 . S
C2282 C2277 1.350 . S
C2283 H2270 0.929 . S
C2283 C2275 1.433 . S
C2283 N2285 1.384 . S
N2284 C2280 1.427 . S
N2284 C2281 1.384 . S
N2285 C2277 1.427 . S
N2285 C2283 1.384 . S
H2286 C2292 0.930 . S
H2287 C2296 0.930 . S
H2288 C2301 0.929 . S
H2289 C2299 0.929 . S
H2290 C2294 0.929 . S
H2291 C2300 0.929 . S
C2292 H2286 0.930 . S
C2292 C2293 1.367 . S
C2292 C2300 1.378 . S
C2293 C2292 1.367 . S
C2293 C2301 1.433 . S
C2294 H2290 0.929 . S
C2294 C2296 1.378 . S
C2294 C2298 1.350 . S
C2295 C2298 1.463 . S
C2295 C2300 1.350 . S
C2295 N2303 1.427 . S
C2296 H2287 0.930 . S
C2296 C2294 1.378 . S
C2296 C2297 1.367 . S
C2297 C2296 1.367 . S
C2297 C2299 1.433 . S
C2298 C2294 1.350 . S
C2298 C2295 1.463 . S
C2298 N2302 1.427 . S
C2299 H2289 0.929 . S
C2299 C2297 1.433 . S
C2299 N2302 1.384 . S
C2300 H2291 0.929 . S
C2300 C2292 1.378 . S
C2300 C2295 1.350 . S
C2301 H2288 0.929 . S
C2301 C2293 1.433 . S
C2301 N2303 1.384 . S
N2302 C2298 1.427 . S
N2302 C2299 1.384 . S
N2303 C2295 1.427 . S
N2303 C2301 1.384 . S
H2304 C2310 0.930 . S
H2305 C2314 0.930 . S
H2306 C2319 0.929 . S
H2307 C2317 0.929 . S
H2308 C2312 0.929 . S
H2309 C2318 0.929 . S
C2310 H2304 0.930 . S
C2310 C2311 1.367 . S
C2310 C2318 1.378 . S
C2311 C2310 1.367 . S
C2311 C2319 1.433 . S
C2312 H2308 0.929 . S
C2312 C2314 1.378 . S
C2312 C2316 1.350 . S
C2313 C2316 1.463 . S
C2313 C2318 1.350 . S
C2313 N2321 1.427 . S
C2314 H2305 0.930 . S
C2314 C2312 1.378 . S
C2314 C2315 1.367 . S
C2315 C2314 1.367 . S
C2315 C2317 1.433 . S
C2316 C2312 1.350 . S
C2316 C2313 1.463 . S
C2316 N2320 1.427 . S
C2317 H2307 0.929 . S
C2317 C2315 1.433 . S
C2317 N2320 1.384 . S
C2318 H2309 0.929 . S
C2318 C2310 1.378 . S
C2318 C2313 1.350 . S
C2319 H2306 0.929 . S
C2319 C2311 1.433 . S
C2319 N2321 1.384 . S
N2320 C2316 1.427 . S
N2320 C2317 1.384 . S
N2321 C2313 1.427 . S
N2321 C2319 1.384 . S
H2322 C2328 0.930 . S
H2323 C2332 0.930 . S
H2324 C2337 0.929 . S
H2325 C2335 0.929 . S
H2326 C2330 0.929 . S
H2327 C2336 0.929 . S
C2328 H2322 0.930 . S
C2328 C2329 1.367 . S
C2328 C2336 1.378 . S
C2329 C2328 1.367 . S
C2329 C2337 1.433 . S
C2330 H2326 0.929 . S
C2330 C2332 1.378 . S
C2330 C2334 1.350 . S
C2331 C2334 1.463 . S
C2331 C2336 1.350 . S
C2331 N2339 1.427 . S
C2332 H2323 0.930 . S
C2332 C2330 1.378 . S
C2332 C2333 1.367 . S
C2333 C2332 1.367 . S
C2333 C2335 1.433 . S
C2334 C2330 1.350 . S
C2334 C2331 1.463 . S
C2334 N2338 1.427 . S
C2335 H2325 0.929 . S
C2335 C2333 1.433 . S
C2335 N2338 1.384 . S
C2336 H2327 0.929 . S
C2336 C2328 1.378 . S
C2336 C2331 1.350 . S
C2337 H2324 0.929 . S
C2337 C2329 1.433 . S
C2337 N2339 1.384 . S
N2338 C2334 1.427 . S
N2338 C2335 1.384 . S
N2339 C2331 1.427 . S
N2339 C2337 1.384 . S
H2340 C2346 0.930 . S
H2341 C2350 0.930 . S
H2342 C2355 0.929 . S
H2343 C2353 0.929 . S
H2344 C2348 0.929 . S
H2345 C2354 0.929 . S
C2346 H2340 0.930 . S
C2346 C2347 1.367 . S
C2346 C2354 1.378 . S
C2347 C2346 1.367 . S
C2347 C2355 1.433 . S
C2348 H2344 0.929 . S
C2348 C2350 1.378 . S
C2348 C2352 1.350 . S
C2349 C2352 1.463 . S
C2349 C2354 1.350 . S
C2349 N2357 1.427 . S
C2350 H2341 0.930 . S
C2350 C2348 1.378 . S
C2350 C2351 1.367 . S
C2351 C2350 1.367 . S
C2351 C2353 1.433 . S
C2352 C2348 1.350 . S
C2352 C2349 1.463 . S
C2352 N2356 1.427 . S
C2353 H2343 0.929 . S
C2353 C2351 1.433 . S
C2353 N2356 1.384 . S
C2354 H2345 0.929 . S
C2354 C2346 1.378 . S
C2354 C2349 1.350 . S
C2355 H2342 0.929 . S
C2355 C2347 1.433 . S
C2355 N2357 1.384 . S
N2356 C2352 1.427 . S
N2356 C2353 1.384 . S
N2357 C2349 1.427 . S
N2357 C2355 1.384 . S
H2358 C2364 0.930 . S
H2359 C2368 0.930 . S
H2360 C2373 0.929 . S
H2361 C2371 0.929 . S
H2362 C2366 0.929 . S
H2363 C2372 0.929 . S
C2364 H2358 0.930 . S
C2364 C2365 1.367 . S
C2364 C2372 1.378 . S
C2365 C2364 1.367 . S
C2365 C2373 1.433 . S
C2366 H2362 0.929 . S
C2366 C2368 1.378 . S
C2366 C2370 1.350 . S
C2367 C2370 1.463 . S
C2367 C2372 1.350 . S
C2367 N2375 1.427 . S
C2368 H2359 0.930 . S
C2368 C2366 1.378 . S
C2368 C2369 1.367 . S
C2369 C2368 1.367 . S
C2369 C2371 1.433 . S
C2370 C2366 1.350 . S
C2370 C2367 1.463 . S
C2370 N2374 1.427 . S
C2371 H2361 0.929 . S
C2371 C2369 1.433 . S
C2371 N2374 1.384 . S
C2372 H2363 0.929 . S
C2372 C2364 1.378 . S
C2372 C2367 1.350 . S
C2373 H2360 0.929 . S
C2373 C2365 1.433 . S
C2373 N2375 1.384 . S
N2374 C2370 1.427 . S
N2374 C2371 1.384 . S
N2375 C2367 1.427 . S
N2375 C2373 1.384 . S
H2376 C2382 0.930 . S
H2377 C2386 0.930 . S
H2378 C2391 0.929 . S
H2379 C2389 0.929 . S
H2380 C2384 0.929 . S
H2381 C2390 0.929 . S
C2382 H2376 0.930 . S
C2382 C2383 1.367 . S
C2382 C2390 1.378 . S
C2383 C2382 1.367 . S
C2383 C2391 1.433 . S
C2384 H2380 0.929 . S
C2384 C2386 1.378 . S
C2384 C2388 1.350 . S
C2385 C2388 1.463 . S
C2385 C2390 1.350 . S
C2385 N2393 1.427 . S
C2386 H2377 0.930 . S
C2386 C2384 1.378 . S
C2386 C2387 1.367 . S
C2387 C2386 1.367 . S
C2387 C2389 1.433 . S
C2388 C2384 1.350 . S
C2388 C2385 1.463 . S
C2388 N2392 1.427 . S
C2389 H2379 0.929 . S
C2389 C2387 1.433 . S
C2389 N2392 1.384 . S
C2390 H2381 0.929 . S
C2390 C2382 1.378 . S
C2390 C2385 1.350 . S
C2391 H2378 0.929 . S
C2391 C2383 1.433 . S
C2391 N2393 1.384 . S
N2392 C2388 1.427 . S
N2392 C2389 1.384 . S
N2393 C2385 1.427 . S
N2393 C2391 1.384 . S
H2394 C2400 0.930 . S
H2395 C2404 0.930 . S
H2396 C2409 0.929 . S
H2397 C2407 0.929 . S
H2398 C2402 0.929 . S
H2399 C2408 0.929 . S
C2400 H2394 0.930 . S
C2400 C2401 1.367 . S
C2400 C2408 1.378 . S
C2401 C2400 1.367 . S
C2401 C2409 1.433 . S
C2402 H2398 0.929 . S
C2402 C2404 1.378 . S
C2402 C2406 1.350 . S
C2403 C2406 1.463 . S
C2403 C2408 1.350 . S
C2403 N2411 1.427 . S
C2404 H2395 0.930 . S
C2404 C2402 1.378 . S
C2404 C2405 1.367 . S
C2405 C2404 1.367 . S
C2405 C2407 1.433 . S
C2406 C2402 1.350 . S
C2406 C2403 1.463 . S
C2406 N2410 1.427 . S
C2407 H2397 0.929 . S
C2407 C2405 1.433 . S
C2407 N2410 1.384 . S
C2408 H2399 0.929 . S
C2408 C2400 1.378 . S
C2408 C2403 1.350 . S
C2409 H2396 0.929 . S
C2409 C2401 1.433 . S
C2409 N2411 1.384 . S
N2410 C2406 1.427 . S
N2410 C2407 1.384 . S
N2411 C2403 1.427 . S
N2411 C2409 1.384 . S
H2412 C2418 0.930 . S
H2413 C2422 0.930 . S
H2414 C2427 0.929 . S
H2415 C2425 0.929 . S
H2416 C2420 0.929 . S
H2417 C2426 0.929 . S
C2418 H2412 0.930 . S
C2418 C2419 1.367 . S
C2418 C2426 1.378 . S
C2419 C2418 1.367 . S
C2419 C2427 1.433 . S
C2420 H2416 0.929 . S
C2420 C2422 1.378 . S
C2420 C2424 1.350 . S
C2421 C2424 1.463 . S
C2421 C2426 1.350 . S
C2421 N2429 1.427 . S
C2422 H2413 0.930 . S
C2422 C2420 1.378 . S
C2422 C2423 1.367 . S
C2423 C2422 1.367 . S
C2423 C2425 1.433 . S
C2424 C2420 1.350 . S
C2424 C2421 1.463 . S
C2424 N2428 1.427 . S
C2425 H2415 0.929 . S
C2425 C2423 1.433 . S
C2425 N2428 1.384 . S
C2426 H2417 0.929 . S
C2426 C2418 1.378 . S
C2426 C2421 1.350 . S
C2427 H2414 0.929 . S
C2427 C2419 1.433 . S
C2427 N2429 1.384 . S
N2428 C2424 1.427 . S
N2428 C2425 1.384 . S
N2429 C2421 1.427 . S
N2429 C2427 1.384 . S
H2430 C2436 0.930 . S
H2431 C2440 0.930 . S
H2432 C2445 0.929 . S
H2433 C2443 0.929 . S
H2434 C2438 0.929 . S
H2435 C2444 0.929 . S
C2436 H2430 0.930 . S
C2436 C2437 1.367 . S
C2436 C2444 1.378 . S
C2437 C2436 1.367 . S
C2437 C2445 1.433 . S
C2438 H2434 0.929 . S
C2438 C2440 1.378 . S
C2438 C2442 1.350 . S
C2439 C2442 1.463 . S
C2439 C2444 1.350 . S
C2439 N2447 1.427 . S
C2440 H2431 0.930 . S
C2440 C2438 1.378 . S
C2440 C2441 1.367 . S
C2441 C2440 1.367 . S
C2441 C2443 1.433 . S
C2442 C2438 1.350 . S
C2442 C2439 1.463 . S
C2442 N2446 1.427 . S
C2443 H2433 0.929 . S
C2443 C2441 1.433 . S
C2443 N2446 1.384 . S
C2444 H2435 0.929 . S
C2444 C2436 1.378 . S
C2444 C2439 1.350 . S
C2445 H2432 0.929 . S
C2445 C2437 1.433 . S
C2445 N2447 1.384 . S
N2446 C2442 1.427 . S
N2446 C2443 1.384 . S
N2447 C2439 1.427 . S
N2447 C2445 1.384 . S
H2448 C2454 0.930 . S
H2449 C2458 0.930 . S
H2450 C2463 0.966 . S
H2451 C2461 0.966 . S
H2452 C2456 0.929 . S
H2453 C2462 0.929 . S
C2454 H2448 0.930 . S
C2454 C2455 1.367 . S
C2454 C2462 1.378 . S
C2455 C2454 1.367 . S
C2455 C2463 1.433 . S
C2456 H2452 0.929 . S
C2456 C2458 1.378 . S
C2456 C2460 1.350 . S
C2457 C2460 1.463 1_655 S
C2457 C2462 1.350 . S
C2457 N2465 1.416 1_655 S
C2458 H2449 0.930 . S
C2458 C2456 1.378 . S
C2458 C2459 1.367 . S
C2459 C2458 1.367 . S
C2459 C2461 1.433 . S
C2460 C2456 1.350 . S
C2460 C2457 1.463 1_455 S
C2460 N2464 1.416 1_455 S
C2461 H2451 0.966 . S
C2461 C2459 1.433 . S
C2461 N2464 1.396 1_455 S
C2462 H2453 0.929 . S
C2462 C2454 1.378 . S
C2462 C2457 1.350 . S
C2463 H2450 0.966 . S
C2463 C2455 1.433 . S
C2463 N2465 1.396 1_655 S
N2464 C2460 1.416 1_655 S
N2464 C2461 1.396 1_655 S
N2465 C2457 1.416 1_455 S
N2465 C2463 1.396 1_455 S
H2466 C2472 0.930 . S
H2467 C2476 0.930 . S
H2468 C2481 0.929 . S
H2469 C2479 0.929 . S
H2470 C2474 0.929 . S
H2471 C2480 0.929 . S
C2472 H2466 0.930 . S
C2472 C2473 1.367 . S
C2472 C2480 1.378 . S
C2473 C2472 1.367 . S
C2473 C2481 1.433 . S
C2474 H2470 0.929 . S
C2474 C2476 1.378 . S
C2474 C2478 1.350 . S
C2475 C2478 1.463 . S
C2475 C2480 1.350 . S
C2475 N2483 1.427 . S
C2476 H2467 0.930 . S
C2476 C2474 1.378 . S
C2476 C2477 1.367 . S
C2477 C2476 1.367 . S
C2477 C2479 1.433 . S
C2478 C2474 1.350 . S
C2478 C2475 1.463 . S
C2478 N2482 1.427 . S
C2479 H2469 0.929 . S
C2479 C2477 1.433 . S
C2479 N2482 1.384 . S
C2480 H2471 0.929 . S
C2480 C2472 1.378 . S
C2480 C2475 1.350 . S
C2481 H2468 0.929 . S
C2481 C2473 1.433 . S
C2481 N2483 1.384 . S
N2482 C2478 1.427 . S
N2482 C2479 1.384 . S
N2483 C2475 1.427 . S
N2483 C2481 1.384 . S
H2484 C2490 0.930 . S
H2485 C2494 0.930 . S
H2486 C2499 0.929 . S
H2487 C2497 0.929 . S
H2488 C2492 0.918 1_565 S
H2489 C2498 0.918 1_545 S
C2490 H2484 0.930 . S
C2490 C2491 1.367 . S
C2490 C2498 1.378 . S
C2491 C2490 1.367 . S
C2491 C2499 1.433 . S
C2492 H2488 0.918 1_545 S
C2492 C2494 1.378 . S
C2492 C2496 1.350 . S
C2493 C2496 1.463 1_565 S
C2493 C2498 1.350 . S
C2493 N2501 1.427 . S
C2494 H2485 0.930 . S
C2494 C2492 1.378 . S
C2494 C2495 1.367 . S
C2495 C2494 1.367 . S
C2495 C2497 1.433 . S
C2496 C2492 1.350 . S
C2496 C2493 1.463 1_545 S
C2496 N2500 1.427 . S
C2497 H2487 0.929 . S
C2497 C2495 1.433 . S
C2497 N2500 1.384 . S
C2498 H2489 0.918 1_565 S
C2498 C2490 1.378 . S
C2498 C2493 1.350 . S
C2499 H2486 0.929 . S
C2499 C2491 1.433 . S
C2499 N2501 1.384 . S
N2500 C2496 1.427 . S
N2500 C2497 1.384 . S
N2501 C2493 1.427 . S
N2501 C2499 1.384 . S
H2502 C2508 0.930 1_554 S
H2503 C2512 0.930 1_556 S
H2504 C2517 0.929 . S
H2505 C2515 0.929 . S
H2506 C2510 0.929 . S
H2507 C2516 0.929 . S
C2508 H2502 0.930 1_556 S
C2508 C2509 1.367 1_545 S
C2508 C2516 1.378 1_556 S
C2509 C2508 1.367 1_565 S
C2509 C2517 1.433 . S
C2510 H2506 0.929 . S
C2510 C2512 1.378 1_556 S
C2510 C2514 1.318 1_566 S
C2511 C2514 1.494 1_566 S
C2511 C2516 1.318 1_566 S
C2511 N2519 1.447 . S
C2512 H2503 0.930 1_554 S
C2512 C2510 1.378 1_554 S
C2512 C2513 1.367 1_565 S
C2513 C2512 1.367 1_545 S
C2513 C2515 1.433 . S
C2514 C2510 1.318 1_544 S
C2514 C2511 1.494 1_544 S
C2514 N2518 1.447 . S
C2515 H2505 0.929 . S
C2515 C2513 1.433 . S
C2515 N2518 1.384 . S
C2516 H2507 0.929 . S
C2516 C2508 1.378 1_554 S
C2516 C2511 1.318 1_544 S
C2517 H2504 0.929 . S
C2517 C2509 1.433 . S
C2517 N2519 1.384 . S
N2518 C2514 1.447 . S
N2518 C2515 1.384 . S
N2519 C2511 1.447 . S
N2519 C2517 1.384 . S
H2520 C2526 0.941 1_455 S
H2521 C2530 0.941 1_655 S
H2522 C2535 0.929 . S
H2523 C2533 0.929 . S
H2524 C2528 0.964 . S
H2525 C2534 0.964 . S
C2526 H2520 0.941 1_655 S
C2526 C2527 1.406 . S
C2526 C2534 1.300 1_655 S
C2527 C2526 1.406 . S
C2527 C2535 1.433 1_554 S
C2528 H2524 0.964 . S
C2528 C2530 1.300 1_655 S
C2528 C2532 1.366 1_655 S
C2529 C2532 1.390 1_654 S
C2529 C2534 1.366 1_655 S
C2529 N2537 1.462 1_554 S
C2530 H2521 0.941 1_455 S
C2530 C2528 1.300 1_455 S
C2530 C2531 1.406 . S
C2531 C2530 1.406 . S
C2531 C2533 1.433 1_556 S
C2532 C2528 1.366 1_455 S
C2532 C2529 1.390 1_456 S
C2532 N2536 1.462 1_556 S
C2533 H2523 0.929 . S
C2533 C2531 1.433 1_554 S
C2533 N2536 1.384 . S
C2534 H2525 0.964 . S
C2534 C2526 1.300 1_455 S
C2534 C2529 1.366 1_455 S
C2535 H2522 0.929 . S
C2535 C2527 1.433 1_556 S
C2535 N2537 1.384 . S
N2536 C2532 1.462 1_554 S
N2536 C2533 1.384 . S
N2537 C2529 1.462 1_556 S
N2537 C2535 1.384 . S
H2538 C2544 0.930 . S
H2539 C2548 0.930 . S
H2540 C2553 0.929 . S
H2541 C2551 0.929 . S
H2542 C2546 0.929 . S
H2543 C2552 0.929 . S
C2544 H2538 0.930 . S
C2544 C2545 1.367 1_556 S
C2544 C2552 1.378 . S
C2545 C2544 1.367 1_554 S
C2545 C2553 1.433 . S
C2546 H2542 0.929 . S
C2546 C2548 1.378 . S
C2546 C2550 1.350 1_554 S
C2547 C2550 1.463 1_554 S
C2547 C2552 1.350 1_554 S
C2547 N2555 1.427 . S
C2548 H2539 0.930 . S
C2548 C2546 1.378 . S
C2548 C2549 1.367 1_554 S
C2549 C2548 1.367 1_556 S
C2549 C2551 1.433 . S
C2550 C2546 1.350 1_556 S
C2550 C2547 1.463 1_556 S
C2550 N2554 1.427 . S
C2551 H2541 0.929 . S
C2551 C2549 1.433 . S
C2551 N2554 1.384 . S
C2552 H2543 0.929 . S
C2552 C2544 1.378 . S
C2552 C2547 1.350 1_556 S
C2553 H2540 0.929 . S
C2553 C2545 1.433 . S
C2553 N2555 1.384 . S
N2554 C2550 1.427 . S
N2554 C2551 1.384 . S
N2555 C2547 1.427 . S
N2555 C2553 1.384 . S
H2556 C2562 0.930 . S
H2557 C2566 0.930 . S
H2558 C2571 0.929 . S
H2559 C2569 0.929 . S
H2560 C2564 0.929 . S
H2561 C2570 0.929 . S
C2562 H2556 0.930 . S
C2562 C2563 1.367 . S
C2562 C2570 1.378 . S
C2563 C2562 1.367 . S
C2563 C2571 1.433 . S
C2564 H2560 0.929 . S
C2564 C2566 1.378 . S
C2564 C2568 1.350 . S
C2565 C2568 1.463 . S
C2565 C2570 1.350 . S
C2565 N2573 1.427 . S
C2566 H2557 0.930 . S
C2566 C2564 1.378 . S
C2566 C2567 1.367 . S
C2567 C2566 1.367 . S
C2567 C2569 1.433 . S
C2568 C2564 1.350 . S
C2568 C2565 1.463 . S
C2568 N2572 1.427 . S
C2569 H2559 0.929 . S
C2569 C2567 1.433 . S
C2569 N2572 1.384 . S
C2570 H2561 0.929 . S
C2570 C2562 1.378 . S
C2570 C2565 1.350 . S
C2571 H2558 0.929 . S
C2571 C2563 1.433 . S
C2571 N2573 1.384 . S
N2572 C2568 1.427 . S
N2572 C2569 1.384 . S
N2573 C2565 1.427 . S
N2573 C2571 1.384 . S
H2574 C2580 0.930 . S
H2575 C2584 0.930 . S
H2576 C2589 0.929 . S
H2577 C2587 0.929 1_556 S
H2578 C2582 0.929 . S
H2579 C2588 0.929 . S
C2580 H2574 0.930 . S
C2580 C2581 1.367 . S
C2580 C2588 1.378 . S
C2581 C2580 1.367 . S
C2581 C2589 1.433 . S
C2582 H2578 0.929 . S
C2582 C2584 1.378 . S
C2582 C2586 1.350 . S
C2583 C2586 1.463 . S
C2583 C2588 1.350 . S
C2583 N2591 1.427 . S
C2584 H2575 0.930 . S
C2584 C2582 1.378 . S
C2584 C2585 1.367 . S
C2585 C2584 1.367 . S
C2585 C2587 1.433 . S
C2586 C2582 1.350 . S
C2586 C2583 1.463 . S
C2586 N2590 1.427 . S
C2587 H2577 0.929 1_554 S
C2587 C2585 1.433 . S
C2587 N2590 1.384 . S
C2588 H2579 0.929 . S
C2588 C2580 1.378 . S
C2588 C2583 1.350 . S
C2589 H2576 0.929 . S
C2589 C2581 1.433 . S
C2589 N2591 1.384 . S
N2590 C2586 1.427 . S
N2590 C2587 1.384 . S
N2591 C2583 1.427 . S
N2591 C2589 1.384 . S
H2592 C2598 0.930 . S
H2593 C2602 0.930 . S
H2594 C2607 0.929 . S
H2595 C2605 0.929 1_556 S
H2596 C2600 0.929 . S
H2597 C2606 0.929 . S
C2598 H2592 0.930 . S
C2598 C2599 1.367 . S
C2598 C2606 1.378 . S
C2599 C2598 1.367 . S
C2599 C2607 1.433 . S
C2600 H2596 0.929 . S
C2600 C2602 1.378 . S
C2600 C2604 1.350 . S
C2601 C2604 1.463 . S
C2601 C2606 1.350 . S
C2601 N2609 1.427 . S
C2602 H2593 0.930 . S
C2602 C2600 1.378 . S
C2602 C2603 1.367 . S
C2603 C2602 1.367 . S
C2603 C2605 1.433 . S
C2604 C2600 1.350 . S
C2604 C2601 1.463 . S
C2604 N2608 1.427 . S
C2605 H2595 0.929 1_554 S
C2605 C2603 1.433 . S
C2605 N2608 1.384 . S
C2606 H2597 0.929 . S
C2606 C2598 1.378 . S
C2606 C2601 1.350 . S
C2607 H2594 0.929 . S
C2607 C2599 1.433 . S
C2607 N2609 1.384 . S
N2608 C2604 1.427 . S
N2608 C2605 1.384 . S
N2609 C2601 1.427 . S
N2609 C2607 1.384 . S
H2610 C2616 0.930 . S
H2611 C2620 0.930 . S
H2612 C2625 0.929 . S
H2613 C2623 0.929 . S
H2614 C2618 0.929 . S
H2615 C2624 0.929 . S
C2616 H2610 0.930 . S
C2616 C2617 1.367 . S
C2616 C2624 1.378 . S
C2617 C2616 1.367 . S
C2617 C2625 1.433 . S
C2618 H2614 0.929 . S
C2618 C2620 1.378 . S
C2618 C2622 1.350 . S
C2619 C2622 1.463 . S
C2619 C2624 1.350 . S
C2619 N2627 1.427 . S
C2620 H2611 0.930 . S
C2620 C2618 1.378 . S
C2620 C2621 1.367 . S
C2621 C2620 1.367 . S
C2621 C2623 1.433 . S
C2622 C2618 1.350 . S
C2622 C2619 1.463 . S
C2622 N2626 1.427 . S
C2623 H2613 0.929 . S
C2623 C2621 1.433 . S
C2623 N2626 1.384 . S
C2624 H2615 0.929 . S
C2624 C2616 1.378 . S
C2624 C2619 1.350 . S
C2625 H2612 0.929 . S
C2625 C2617 1.433 . S
C2625 N2627 1.384 . S
N2626 C2622 1.427 . S
N2626 C2623 1.384 . S
N2627 C2619 1.427 . S
N2627 C2625 1.384 . S
H2628 C2634 0.930 . S
H2629 C2638 0.930 . S
H2630 C2643 0.929 . S
H2631 C2641 0.929 . S
H2632 C2636 0.929 . S
H2633 C2642 0.929 . S
C2634 H2628 0.930 . S
C2634 C2635 1.367 . S
C2634 C2642 1.378 . S
C2635 C2634 1.367 . S
C2635 C2643 1.433 . S
C2636 H2632 0.929 . S
C2636 C2638 1.378 . S
C2636 C2640 1.350 . S
C2637 C2640 1.463 . S
C2637 C2642 1.350 . S
C2637 N2645 1.427 . S
C2638 H2629 0.930 . S
C2638 C2636 1.378 . S
C2638 C2639 1.367 . S
C2639 C2638 1.367 . S
C2639 C2641 1.433 . S
C2640 C2636 1.350 . S
C2640 C2637 1.463 . S
C2640 N2644 1.427 . S
C2641 H2631 0.929 . S
C2641 C2639 1.433 . S
C2641 N2644 1.384 . S
C2642 H2633 0.929 . S
C2642 C2634 1.378 . S
C2642 C2637 1.350 . S
C2643 H2630 0.929 . S
C2643 C2635 1.433 . S
C2643 N2645 1.384 . S
N2644 C2640 1.427 . S
N2644 C2641 1.384 . S
N2645 C2637 1.427 . S
N2645 C2643 1.384 . S
H2646 C2652 0.930 . S
H2647 C2656 0.930 . S
H2648 C2661 0.929 . S
H2649 C2659 0.929 . S
H2650 C2654 0.929 . S
H2651 C2660 0.929 . S
C2652 H2646 0.930 . S
C2652 C2653 1.367 . S
C2652 C2660 1.378 . S
C2653 C2652 1.367 . S
C2653 C2661 1.433 . S
C2654 H2650 0.929 . S
C2654 C2656 1.378 . S
C2654 C2658 1.350 . S
C2655 C2658 1.463 . S
C2655 C2660 1.350 . S
C2655 N2663 1.427 . S
C2656 H2647 0.930 . S
C2656 C2654 1.378 . S
C2656 C2657 1.367 . S
C2657 C2656 1.367 . S
C2657 C2659 1.433 . S
C2658 C2654 1.350 . S
C2658 C2655 1.463 . S
C2658 N2662 1.427 . S
C2659 H2649 0.929 . S
C2659 C2657 1.433 . S
C2659 N2662 1.384 . S
C2660 H2651 0.929 . S
C2660 C2652 1.378 . S
C2660 C2655 1.350 . S
C2661 H2648 0.929 . S
C2661 C2653 1.433 . S
C2661 N2663 1.384 . S
N2662 C2658 1.427 . S
N2662 C2659 1.384 . S
N2663 C2655 1.427 . S
N2663 C2661 1.384 . S
H2664 C2670 0.930 1_554 S
H2665 C2674 0.930 . S
H2666 C2679 0.929 . S
H2667 C2677 0.929 . S
H2668 C2672 0.929 . S
H2669 C2678 0.929 . S
C2670 H2664 0.930 1_556 S
C2670 C2671 1.367 . S
C2670 C2678 1.378 . S
C2671 C2670 1.367 . S
C2671 C2679 1.433 . S
C2672 H2668 0.929 . S
C2672 C2674 1.378 . S
C2672 C2676 1.350 . S
C2673 C2676 1.463 . S
C2673 C2678 1.350 . S
C2673 N2681 1.427 . S
C2674 H2665 0.930 . S
C2674 C2672 1.378 . S
C2674 C2675 1.367 . S
C2675 C2674 1.367 . S
C2675 C2677 1.433 . S
C2676 C2672 1.350 . S
C2676 C2673 1.463 . S
C2676 N2680 1.427 . S
C2677 H2667 0.929 . S
C2677 C2675 1.433 . S
C2677 N2680 1.384 . S
C2678 H2669 0.929 . S
C2678 C2670 1.378 . S
C2678 C2673 1.350 . S
C2679 H2666 0.929 . S
C2679 C2671 1.433 . S
C2679 N2681 1.384 . S
N2680 C2676 1.427 . S
N2680 C2677 1.384 . S
N2681 C2673 1.427 . S
N2681 C2679 1.384 . S
H2682 C2688 0.930 . S
H2683 C2692 0.930 . S
H2684 C2697 0.929 . S
H2685 C2695 0.929 . S
H2686 C2690 0.929 . S
H2687 C2696 0.929 . S
C2688 H2682 0.930 . S
C2688 C2689 1.367 . S
C2688 C2696 1.378 . S
C2689 C2688 1.367 . S
C2689 C2697 1.433 . S
C2690 H2686 0.929 . S
C2690 C2692 1.378 . S
C2690 C2694 1.350 . S
C2691 C2694 1.463 . S
C2691 C2696 1.350 . S
C2691 N2699 1.427 . S
C2692 H2683 0.930 . S
C2692 C2690 1.378 . S
C2692 C2693 1.367 . S
C2693 C2692 1.367 . S
C2693 C2695 1.433 . S
C2694 C2690 1.350 . S
C2694 C2691 1.463 . S
C2694 N2698 1.427 . S
C2695 H2685 0.929 . S
C2695 C2693 1.433 . S
C2695 N2698 1.384 . S
C2696 H2687 0.929 . S
C2696 C2688 1.378 . S
C2696 C2691 1.350 . S
C2697 H2684 0.929 . S
C2697 C2689 1.433 . S
C2697 N2699 1.384 . S
N2698 C2694 1.427 . S
N2698 C2695 1.384 . S
N2699 C2691 1.427 . S
N2699 C2697 1.384 . S
H2700 C2706 0.930 . S
H2701 C2710 0.930 . S
H2702 C2715 0.929 . S
H2703 C2713 0.929 . S
H2704 C2708 0.929 . S
H2705 C2714 0.929 . S
C2706 H2700 0.930 . S
C2706 C2707 1.367 . S
C2706 C2714 1.378 . S
C2707 C2706 1.367 . S
C2707 C2715 1.433 . S
C2708 H2704 0.929 . S
C2708 C2710 1.378 . S
C2708 C2712 1.350 . S
C2709 C2712 1.463 . S
C2709 C2714 1.350 . S
C2709 N2717 1.427 . S
C2710 H2701 0.930 . S
C2710 C2708 1.378 . S
C2710 C2711 1.367 . S
C2711 C2710 1.367 . S
C2711 C2713 1.433 . S
C2712 C2708 1.350 . S
C2712 C2709 1.463 . S
C2712 N2716 1.427 . S
C2713 H2703 0.929 . S
C2713 C2711 1.433 . S
C2713 N2716 1.384 . S
C2714 H2705 0.929 . S
C2714 C2706 1.378 . S
C2714 C2709 1.350 . S
C2715 H2702 0.929 . S
C2715 C2707 1.433 . S
C2715 N2717 1.384 . S
N2716 C2712 1.427 . S
N2716 C2713 1.384 . S
N2717 C2709 1.427 . S
N2717 C2715 1.384 . S
H2718 C2724 0.930 . S
H2719 C2728 0.930 . S
H2720 C2733 0.929 . S
H2721 C2731 0.929 . S
H2722 C2726 0.929 . S
H2723 C2732 0.929 . S
C2724 H2718 0.930 . S
C2724 C2725 1.367 . S
C2724 C2732 1.378 . S
C2725 C2724 1.367 . S
C2725 C2733 1.433 . S
C2726 H2722 0.929 . S
C2726 C2728 1.378 . S
C2726 C2730 1.350 . S
C2727 C2730 1.463 . S
C2727 C2732 1.350 . S
C2727 N2735 1.427 . S
C2728 H2719 0.930 . S
C2728 C2726 1.378 . S
C2728 C2729 1.367 . S
C2729 C2728 1.367 . S
C2729 C2731 1.433 . S
C2730 C2726 1.350 . S
C2730 C2727 1.463 . S
C2730 N2734 1.427 . S
C2731 H2721 0.929 . S
C2731 C2729 1.433 . S
C2731 N2734 1.384 . S
C2732 H2723 0.929 . S
C2732 C2724 1.378 . S
C2732 C2727 1.350 . S
C2733 H2720 0.929 . S
C2733 C2725 1.433 . S
C2733 N2735 1.384 . S
N2734 C2730 1.427 . S
N2734 C2731 1.384 . S
N2735 C2727 1.427 . S
N2735 C2733 1.384 . S
H2736 C2742 0.930 . S
H2737 C2746 0.930 . S
H2738 C2751 0.929 . S
H2739 C2749 0.929 . S
H2740 C2744 0.929 . S
H2741 C2750 0.929 . S
C2742 H2736 0.930 . S
C2742 C2743 1.367 . S
C2742 C2750 1.378 . S
C2743 C2742 1.367 . S
C2743 C2751 1.433 . S
C2744 H2740 0.929 . S
C2744 C2746 1.378 . S
C2744 C2748 1.350 . S
C2745 C2748 1.463 . S
C2745 C2750 1.350 . S
C2745 N2753 1.427 . S
C2746 H2737 0.930 . S
C2746 C2744 1.378 . S
C2746 C2747 1.367 . S
C2747 C2746 1.367 . S
C2747 C2749 1.433 . S
C2748 C2744 1.350 . S
C2748 C2745 1.463 . S
C2748 N2752 1.427 . S
C2749 H2739 0.929 . S
C2749 C2747 1.433 . S
C2749 N2752 1.384 . S
C2750 H2741 0.929 . S
C2750 C2742 1.378 . S
C2750 C2745 1.350 . S
C2751 H2738 0.929 . S
C2751 C2743 1.433 . S
C2751 N2753 1.384 . S
N2752 C2748 1.427 . S
N2752 C2749 1.384 . S
N2753 C2745 1.427 . S
N2753 C2751 1.384 . S
H2754 C2760 0.930 . S
H2755 C2764 0.930 . S
H2756 C2769 0.929 . S
H2757 C2767 0.929 . S
H2758 C2762 0.929 . S
H2759 C2768 0.929 . S
C2760 H2754 0.930 . S
C2760 C2761 1.367 . S
C2760 C2768 1.378 . S
C2761 C2760 1.367 . S
C2761 C2769 1.433 . S
C2762 H2758 0.929 . S
C2762 C2764 1.378 . S
C2762 C2766 1.350 . S
C2763 C2766 1.463 . S
C2763 C2768 1.350 . S
C2763 N2771 1.427 . S
C2764 H2755 0.930 . S
C2764 C2762 1.378 . S
C2764 C2765 1.367 . S
C2765 C2764 1.367 . S
C2765 C2767 1.433 . S
C2766 C2762 1.350 . S
C2766 C2763 1.463 . S
C2766 N2770 1.427 . S
C2767 H2757 0.929 . S
C2767 C2765 1.433 . S
C2767 N2770 1.384 . S
C2768 H2759 0.929 . S
C2768 C2760 1.378 . S
C2768 C2763 1.350 . S
C2769 H2756 0.929 . S
C2769 C2761 1.433 . S
C2769 N2771 1.384 . S
N2770 C2766 1.427 . S
N2770 C2767 1.384 . S
N2771 C2763 1.427 . S
N2771 C2769 1.384 . S
H2772 C2778 0.930 . S
H2773 C2782 0.930 . S
H2774 C2787 0.929 . S
H2775 C2785 0.929 . S
H2776 C2780 0.929 . S
H2777 C2786 0.929 . S
C2778 H2772 0.930 . S
C2778 C2779 1.367 . S
C2778 C2786 1.378 . S
C2779 C2778 1.367 . S
C2779 C2787 1.433 . S
C2780 H2776 0.929 . S
C2780 C2782 1.378 . S
C2780 C2784 1.350 . S
C2781 C2784 1.463 . S
C2781 C2786 1.350 . S
C2781 N2789 1.427 . S
C2782 H2773 0.930 . S
C2782 C2780 1.378 . S
C2782 C2783 1.367 . S
C2783 C2782 1.367 . S
C2783 C2785 1.433 . S
C2784 C2780 1.350 . S
C2784 C2781 1.463 . S
C2784 N2788 1.427 . S
C2785 H2775 0.929 . S
C2785 C2783 1.433 . S
C2785 N2788 1.384 . S
C2786 H2777 0.929 . S
C2786 C2778 1.378 . S
C2786 C2781 1.350 . S
C2787 H2774 0.929 . S
C2787 C2779 1.433 . S
C2787 N2789 1.384 . S
N2788 C2784 1.427 . S
N2788 C2785 1.384 . S
N2789 C2781 1.427 . S
N2789 C2787 1.384 . S
H2790 C2796 0.930 . S
H2791 C2800 0.930 . S
H2792 C2805 0.929 . S
H2793 C2803 0.929 . S
H2794 C2798 0.929 . S
H2795 C2804 0.929 . S
C2796 H2790 0.930 . S
C2796 C2797 1.367 . S
C2796 C2804 1.378 . S
C2797 C2796 1.367 . S
C2797 C2805 1.433 . S
C2798 H2794 0.929 . S
C2798 C2800 1.378 . S
C2798 C2802 1.350 . S
C2799 C2802 1.463 1_565 S
C2799 C2804 1.350 . S
C2799 N2807 1.427 . S
C2800 H2791 0.930 . S
C2800 C2798 1.378 . S
C2800 C2801 1.367 . S
C2801 C2800 1.367 . S
C2801 C2803 1.433 . S
C2802 C2798 1.350 . S
C2802 C2799 1.463 1_545 S
C2802 N2806 1.427 . S
C2803 H2793 0.929 . S
C2803 C2801 1.433 . S
C2803 N2806 1.384 . S
C2804 H2795 0.929 . S
C2804 C2796 1.378 . S
C2804 C2799 1.350 . S
C2805 H2792 0.929 . S
C2805 C2797 1.433 . S
C2805 N2807 1.384 . S
N2806 C2802 1.427 . S
N2806 C2803 1.384 . S
N2807 C2799 1.427 . S
N2807 C2805 1.384 . S
H2808 C2814 0.930 . S
H2809 C2818 0.930 . S
H2810 C2823 0.929 . S
H2811 C2821 0.929 . S
H2812 C2816 0.929 . S
H2813 C2822 0.929 . S
C2814 H2808 0.930 . S
C2814 C2815 1.367 . S
C2814 C2822 1.378 . S
C2815 C2814 1.367 . S
C2815 C2823 1.433 . S
C2816 H2812 0.929 . S
C2816 C2818 1.378 . S
C2816 C2820 1.350 . S
C2817 C2820 1.463 1_455 S
C2817 C2822 1.350 . S
C2817 N2825 1.427 . S
C2818 H2809 0.930 . S
C2818 C2816 1.378 . S
C2818 C2819 1.367 . S
C2819 C2818 1.367 . S
C2819 C2821 1.433 . S
C2820 C2816 1.350 . S
C2820 C2817 1.463 1_655 S
C2820 N2824 1.427 . S
C2821 H2811 0.929 . S
C2821 C2819 1.433 . S
C2821 N2824 1.384 . S
C2822 H2813 0.929 . S
C2822 C2814 1.378 . S
C2822 C2817 1.350 . S
C2823 H2810 0.929 . S
C2823 C2815 1.433 . S
C2823 N2825 1.384 . S
N2824 C2820 1.427 . S
N2824 C2821 1.384 . S
N2825 C2817 1.427 . S
N2825 C2823 1.384 . S
H2826 C2832 0.930 . S
H2827 C2836 0.930 . S
H2828 C2841 0.929 . S
H2829 C2839 0.929 . S
H2830 C2834 0.929 . S
H2831 C2840 0.929 . S
C2832 H2826 0.930 . S
C2832 C2833 1.367 . S
C2832 C2840 1.378 . S
C2833 C2832 1.367 . S
C2833 C2841 1.433 . S
C2834 H2830 0.929 . S
C2834 C2836 1.378 . S
C2834 C2838 1.350 . S
C2835 C2838 1.463 . S
C2835 C2840 1.350 . S
C2835 N2843 1.427 . S
C2836 H2827 0.930 . S
C2836 C2834 1.378 . S
C2836 C2837 1.367 . S
C2837 C2836 1.367 . S
C2837 C2839 1.433 . S
C2838 C2834 1.350 . S
C2838 C2835 1.463 . S
C2838 N2842 1.427 . S
C2839 H2829 0.929 . S
C2839 C2837 1.433 . S
C2839 N2842 1.384 . S
C2840 H2831 0.929 . S
C2840 C2832 1.378 . S
C2840 C2835 1.350 . S
C2841 H2828 0.929 . S
C2841 C2833 1.433 . S
C2841 N2843 1.384 . S
N2842 C2838 1.427 . S
N2842 C2839 1.384 . S
N2843 C2835 1.427 . S
N2843 C2841 1.384 . S
H2844 C2850 0.930 . S
H2845 C2854 0.930 . S
H2846 C2859 0.929 . S
H2847 C2857 0.929 . S
H2848 C2852 0.929 . S
H2849 C2858 0.929 . S
C2850 H2844 0.930 . S
C2850 C2851 1.367 . S
C2850 C2858 1.378 . S
C2851 C2850 1.367 . S
C2851 C2859 1.433 . S
C2852 H2848 0.929 . S
C2852 C2854 1.378 . S
C2852 C2856 1.350 . S
C2853 C2856 1.463 1_565 S
C2853 C2858 1.350 . S
C2853 N2861 1.427 . S
C2854 H2845 0.930 . S
C2854 C2852 1.378 . S
C2854 C2855 1.367 . S
C2855 C2854 1.367 . S
C2855 C2857 1.433 . S
C2856 C2852 1.350 . S
C2856 C2853 1.463 1_545 S
C2856 N2860 1.427 . S
C2857 H2847 0.929 . S
C2857 C2855 1.433 . S
C2857 N2860 1.384 . S
C2858 H2849 0.929 . S
C2858 C2850 1.378 . S
C2858 C2853 1.350 . S
C2859 H2846 0.929 . S
C2859 C2851 1.433 . S
C2859 N2861 1.384 . S
N2860 C2856 1.427 . S
N2860 C2857 1.384 . S
N2861 C2853 1.427 . S
N2861 C2859 1.384 . S
H2862 C2868 0.930 . S
H2863 C2872 0.930 . S
H2864 C2877 0.929 . S
H2865 C2875 0.929 . S
H2866 C2870 0.993 . S
H2867 C2876 0.929 . S
C2868 H2862 0.930 . S
C2868 C2869 1.367 . S
C2868 C2876 1.378 . S
C2869 C2868 1.367 . S
C2869 C2877 1.433 . S
C2870 H2866 0.993 . S
C2870 C2872 1.378 . S
C2870 C2874 1.350 . S
C2871 C2874 1.463 1_455 S
C2871 C2876 1.350 . S
C2871 N2879 1.427 . S
C2872 H2863 0.930 . S
C2872 C2870 1.378 . S
C2872 C2873 1.367 . S
C2873 C2872 1.367 . S
C2873 C2875 1.433 . S
C2874 C2870 1.350 . S
C2874 C2871 1.463 1_655 S
C2874 N2878 1.427 . S
C2875 H2865 0.929 . S
C2875 C2873 1.433 . S
C2875 N2878 1.384 . S
C2876 H2867 0.929 . S
C2876 C2868 1.378 . S
C2876 C2871 1.350 . S
C2877 H2864 0.929 . S
C2877 C2869 1.433 . S
C2877 N2879 1.384 . S
N2878 C2874 1.427 . S
N2878 C2875 1.384 . S
N2879 C2871 1.427 . S
N2879 C2877 1.384 . S
H2880 C2886 0.930 . S
H2881 C2890 0.930 . S
H2882 C2895 0.929 . S
H2883 C2893 0.929 . S
H2884 C2888 0.929 . S
H2885 C2894 0.929 . S
C2886 H2880 0.930 . S
C2886 C2887 1.384 . S
C2886 C2894 1.378 . S
C2887 C2886 1.384 . S
C2887 C2895 1.446 . S
C2888 H2884 0.929 . S
C2888 C2890 1.378 . S
C2888 C2892 1.350 . S
C2889 C2892 1.463 . S
C2889 C2894 1.350 . S
C2889 N2897 1.427 . S
C2890 H2881 0.930 . S
C2890 C2888 1.378 . S
C2890 C2891 1.367 . S
C2891 C2890 1.367 . S
C2891 C2893 1.433 . S
C2892 C2888 1.350 . S
C2892 C2889 1.463 . S
C2892 N2896 1.427 . S
C2893 H2883 0.929 . S
C2893 C2891 1.433 . S
C2893 N2896 1.384 . S
C2894 H2885 0.929 . S
C2894 C2886 1.378 . S
C2894 C2889 1.350 . S
C2895 H2882 0.929 . S
C2895 C2887 1.446 . S
C2895 N2897 1.384 . S
N2896 C2892 1.427 . S
N2896 C2893 1.384 . S
N2897 C2889 1.427 . S
N2897 C2895 1.384 . S
H2898 C2904 0.930 . S
H2899 C2908 0.930 . S
H2900 C2913 0.929 . S
H2901 C2911 0.929 . S
H2902 C2906 0.929 . S
H2903 C2912 0.929 . S
C2904 H2898 0.930 . S
C2904 C2905 1.380 . S
C2904 C2912 1.378 . S
C2905 C2904 1.380 . S
C2905 C2913 1.447 . S
C2906 H2902 0.929 . S
C2906 C2908 1.378 . S
C2906 C2910 1.350 . S
C2907 C2910 1.463 . S
C2907 C2912 1.350 . S
C2907 N2915 1.427 . S
C2908 H2899 0.930 . S
C2908 C2906 1.378 . S
C2908 C2909 1.367 . S
C2909 C2908 1.367 . S
C2909 C2911 1.433 . S
C2910 C2906 1.350 . S
C2910 C2907 1.463 . S
C2910 N2914 1.427 . S
C2911 H2901 0.929 . S
C2911 C2909 1.433 . S
C2911 N2914 1.384 . S
C2912 H2903 0.929 . S
C2912 C2904 1.378 . S
C2912 C2907 1.350 . S
C2913 H2900 0.929 . S
C2913 C2905 1.447 . S
C2913 N2915 1.384 . S
N2914 C2910 1.427 . S
N2914 C2911 1.384 . S
N2915 C2907 1.427 . S
N2915 C2913 1.384 . S
H2916 C2922 0.930 . S
H2917 C2926 0.930 . S
H2918 C2931 0.929 . S
H2919 C2929 0.929 . S
H2920 C2924 0.929 . S
H2921 C2930 0.929 . S
C2922 H2916 0.930 . S
C2922 C2923 1.378 . S
C2922 C2930 1.378 . S
C2923 C2922 1.378 . S
C2923 C2931 1.448 . S
C2924 H2920 0.929 . S
C2924 C2926 1.378 . S
C2924 C2928 1.350 . S
C2925 C2928 1.463 . S
C2925 C2930 1.350 . S
C2925 N2933 1.427 . S
C2926 H2917 0.930 . S
C2926 C2924 1.378 . S
C2926 C2927 1.367 . S
C2927 C2926 1.367 . S
C2927 C2929 1.433 . S
C2928 C2924 1.350 . S
C2928 C2925 1.463 . S
C2928 N2932 1.427 . S
C2929 H2919 0.929 . S
C2929 C2927 1.433 . S
C2929 N2932 1.384 . S
C2930 H2921 0.929 . S
C2930 C2922 1.378 . S
C2930 C2925 1.350 . S
C2931 H2918 0.929 . S
C2931 C2923 1.448 . S
C2931 N2933 1.384 . S
N2932 C2928 1.427 . S
N2932 C2929 1.384 . S
N2933 C2925 1.427 . S
N2933 C2931 1.384 . S
H2934 C2940 0.930 . S
H2935 C2944 0.930 . S
H2936 C2949 0.929 . S
H2937 C2947 0.929 . S
H2938 C2942 0.929 . S
H2939 C2948 0.929 . S
C2940 H2934 0.930 . S
C2940 C2941 1.367 . S
C2940 C2948 1.378 . S
C2941 C2940 1.367 . S
C2941 C2949 1.433 . S
C2942 H2938 0.929 . S
C2942 C2944 1.378 . S
C2942 C2946 1.350 . S
C2943 C2946 1.463 . S
C2943 C2948 1.350 . S
C2943 N2951 1.427 . S
C2944 H2935 0.930 . S
C2944 C2942 1.378 . S
C2944 C2945 1.367 . S
C2945 C2944 1.367 . S
C2945 C2947 1.433 . S
C2946 C2942 1.350 . S
C2946 C2943 1.463 . S
C2946 N2950 1.427 . S
C2947 H2937 0.929 . S
C2947 C2945 1.433 . S
C2947 N2950 1.384 . S
C2948 H2939 0.929 . S
C2948 C2940 1.378 . S
C2948 C2943 1.350 . S
C2949 H2936 0.929 . S
C2949 C2941 1.433 . S
C2949 N2951 1.384 . S
N2950 C2946 1.427 . S
N2950 C2947 1.384 . S
N2951 C2943 1.427 . S
N2951 C2949 1.384 . S
H2952 C2958 0.930 . S
H2953 C2962 0.930 . S
H2954 C2967 0.929 . S
H2955 C2965 0.929 . S
H2956 C2960 0.929 . S
H2957 C2966 0.929 . S
C2958 H2952 0.930 . S
C2958 C2959 1.367 . S
C2958 C2966 1.378 . S
C2959 C2958 1.367 . S
C2959 C2967 1.433 . S
C2960 H2956 0.929 . S
C2960 C2962 1.378 . S
C2960 C2964 1.350 . S
C2961 C2964 1.463 . S
C2961 C2966 1.350 . S
C2961 N2969 1.427 . S
C2962 H2953 0.930 . S
C2962 C2960 1.378 . S
C2962 C2963 1.367 . S
C2963 C2962 1.367 . S
C2963 C2965 1.433 . S
C2964 C2960 1.350 . S
C2964 C2961 1.463 . S
C2964 N2968 1.427 . S
C2965 H2955 0.929 . S
C2965 C2963 1.433 . S
C2965 N2968 1.384 . S
C2966 H2957 0.929 . S
C2966 C2958 1.378 . S
C2966 C2961 1.350 . S
C2967 H2954 0.929 . S
C2967 C2959 1.433 . S
C2967 N2969 1.384 . S
N2968 C2964 1.427 . S
N2968 C2965 1.384 . S
N2969 C2961 1.427 . S
N2969 C2967 1.384 . S
H2970 C2976 0.930 . S
H2971 C2980 0.930 . S
H2972 C2985 0.929 . S
H2973 C2983 0.929 . S
H2974 C2978 0.929 . S
H2975 C2984 0.929 . S
C2976 H2970 0.930 . S
C2976 C2977 1.367 . S
C2976 C2984 1.378 . S
C2977 C2976 1.367 . S
C2977 C2985 1.433 . S
C2978 H2974 0.929 . S
C2978 C2980 1.378 . S
C2978 C2982 1.350 . S
C2979 C2982 1.463 . S
C2979 C2984 1.350 . S
C2979 N2987 1.427 . S
C2980 H2971 0.930 . S
C2980 C2978 1.378 . S
C2980 C2981 1.367 . S
C2981 C2980 1.367 . S
C2981 C2983 1.433 . S
C2982 C2978 1.350 . S
C2982 C2979 1.463 . S
C2982 N2986 1.427 . S
C2983 H2973 0.929 . S
C2983 C2981 1.433 . S
C2983 N2986 1.384 . S
C2984 H2975 0.929 . S
C2984 C2976 1.378 . S
C2984 C2979 1.350 . S
C2985 H2972 0.929 . S
C2985 C2977 1.433 . S
C2985 N2987 1.384 . S
N2986 C2982 1.427 . S
N2986 C2983 1.384 . S
N2987 C2979 1.427 . S
N2987 C2985 1.384 . S
H2988 C2994 0.930 . S
H2989 C2998 0.930 . S
H2990 C3003 0.929 . S
H2991 C3001 0.929 . S
H2992 C2996 0.929 . S
H2993 C3002 0.929 . S
C2994 H2988 0.930 . S
C2994 C2995 1.367 . S
C2994 C3002 1.378 . S
C2995 C2994 1.367 . S
C2995 C3003 1.433 . S
C2996 H2992 0.929 . S
C2996 C2998 1.378 . S
C2996 C3000 1.350 . S
C2997 C3000 1.463 . S
C2997 C3002 1.350 . S
C2997 N3005 1.427 . S
C2998 H2989 0.930 . S
C2998 C2996 1.378 . S
C2998 C2999 1.380 . S
C2999 C2998 1.380 . S
C2999 C3001 1.447 . S
C3000 C2996 1.350 . S
C3000 C2997 1.463 . S
C3000 N3004 1.427 . S
C3001 H2991 0.929 . S
C3001 C2999 1.447 . S
C3001 N3004 1.384 . S
C3002 H2993 0.929 . S
C3002 C2994 1.378 . S
C3002 C2997 1.350 . S
C3003 H2990 0.929 . S
C3003 C2995 1.433 . S
C3003 N3005 1.384 . S
N3004 C3000 1.427 . S
N3004 C3001 1.384 . S
N3005 C2997 1.427 . S
N3005 C3003 1.384 . S
H3006 C3012 0.930 . S
H3007 C3016 0.930 . S
H3008 C3021 0.929 . S
H3009 C3019 0.929 . S
H3010 C3014 0.929 . S
H3011 C3020 0.929 . S
C3012 H3006 0.930 . S
C3012 C3013 1.367 . S
C3012 C3020 1.378 . S
C3013 C3012 1.367 . S
C3013 C3021 1.433 . S
C3014 H3010 0.929 . S
C3014 C3016 1.378 . S
C3014 C3018 1.350 . S
C3015 C3018 1.463 . S
C3015 C3020 1.350 . S
C3015 N3023 1.427 . S
C3016 H3007 0.930 . S
C3016 C3014 1.378 . S
C3016 C3017 1.380 . S
C3017 C3016 1.380 . S
C3017 C3019 1.447 . S
C3018 C3014 1.350 . S
C3018 C3015 1.463 . S
C3018 N3022 1.427 . S
C3019 H3009 0.929 . S
C3019 C3017 1.447 . S
C3019 N3022 1.384 . S
C3020 H3011 0.929 . S
C3020 C3012 1.378 . S
C3020 C3015 1.350 . S
C3021 H3008 0.929 . S
C3021 C3013 1.433 . S
C3021 N3023 1.384 . S
N3022 C3018 1.427 . S
N3022 C3019 1.384 . S
N3023 C3015 1.427 . S
N3023 C3021 1.384 . S
H3024 C3030 0.930 . S
H3025 C3034 0.930 . S
H3026 C3039 0.929 . S
H3027 C3037 0.929 . S
H3028 C3032 0.929 . S
H3029 C3038 0.929 . S
C3030 H3024 0.930 . S
C3030 C3031 1.367 . S
C3030 C3038 1.378 . S
C3031 C3030 1.367 . S
C3031 C3039 1.433 . S
C3032 H3028 0.929 . S
C3032 C3034 1.378 . S
C3032 C3036 1.350 . S
C3033 C3036 1.463 . S
C3033 C3038 1.350 . S
C3033 N3041 1.427 . S
C3034 H3025 0.930 . S
C3034 C3032 1.378 . S
C3034 C3035 1.378 . S
C3035 C3034 1.378 . S
C3035 C3037 1.448 . S
C3036 C3032 1.350 . S
C3036 C3033 1.463 . S
C3036 N3040 1.427 . S
C3037 H3027 0.929 . S
C3037 C3035 1.448 . S
C3037 N3040 1.384 . S
C3038 H3029 0.929 . S
C3038 C3030 1.378 . S
C3038 C3033 1.350 . S
C3039 H3026 0.929 . S
C3039 C3031 1.433 . S
C3039 N3041 1.384 . S
N3040 C3036 1.427 . S
N3040 C3037 1.384 . S
N3041 C3033 1.427 . S
N3041 C3039 1.384 . S
H3042 C3048 0.930 . S
H3043 C3052 0.930 . S
H3044 C3057 0.929 . S
H3045 C3055 0.929 . S
H3046 C3050 0.929 . S
H3047 C3056 0.929 . S
C3048 H3042 0.930 . S
C3048 C3049 1.367 . S
C3048 C3056 1.378 . S
C3049 C3048 1.367 . S
C3049 C3057 1.433 . S
C3050 H3046 0.929 . S
C3050 C3052 1.378 . S
C3050 C3054 1.350 . S
C3051 C3054 1.463 . S
C3051 C3056 1.350 . S
C3051 N3059 1.427 . S
C3052 H3043 0.930 . S
C3052 C3050 1.378 . S
C3052 C3053 1.367 . S
C3053 C3052 1.367 . S
C3053 C3055 1.433 . S
C3054 C3050 1.350 . S
C3054 C3051 1.463 . S
C3054 N3058 1.427 . S
C3055 H3045 0.929 . S
C3055 C3053 1.433 . S
C3055 N3058 1.384 . S
C3056 H3047 0.929 . S
C3056 C3048 1.378 . S
C3056 C3051 1.350 . S
C3057 H3044 0.929 . S
C3057 C3049 1.433 . S
C3057 N3059 1.384 . S
N3058 C3054 1.427 . S
N3058 C3055 1.384 . S
N3059 C3051 1.427 . S
N3059 C3057 1.384 . S
H3060 C3066 0.930 . S
H3061 C3070 0.930 . S
H3062 C3075 0.929 . S
H3063 C3073 0.929 . S
H3064 C3068 0.929 . S
H3065 C3074 0.929 . S
C3066 H3060 0.930 . S
C3066 C3067 1.367 . S
C3066 C3074 1.378 . S
C3067 C3066 1.367 . S
C3067 C3075 1.433 . S
C3068 H3064 0.929 . S
C3068 C3070 1.378 . S
C3068 C3072 1.350 . S
C3069 C3072 1.463 . S
C3069 C3074 1.350 . S
C3069 N3077 1.427 . S
C3070 H3061 0.930 . S
C3070 C3068 1.378 . S
C3070 C3071 1.367 . S
C3071 C3070 1.367 . S
C3071 C3073 1.433 . S
C3072 C3068 1.350 . S
C3072 C3069 1.463 . S
C3072 N3076 1.427 . S
C3073 H3063 0.929 . S
C3073 C3071 1.433 . S
C3073 N3076 1.384 . S
C3074 H3065 0.929 . S
C3074 C3066 1.378 . S
C3074 C3069 1.350 . S
C3075 H3062 0.929 . S
C3075 C3067 1.433 . S
C3075 N3077 1.384 . S
N3076 C3072 1.427 . S
N3076 C3073 1.384 . S
N3077 C3069 1.427 . S
N3077 C3075 1.384 . S
H3078 C3084 0.930 . S
H3079 C3088 0.930 . S
H3080 C3093 0.929 . S
H3081 C3091 0.929 . S
H3082 C3086 0.929 . S
H3083 C3092 0.929 . S
C3084 H3078 0.930 . S
C3084 C3085 1.367 . S
C3084 C3092 1.378 . S
C3085 C3084 1.367 . S
C3085 C3093 1.433 . S
C3086 H3082 0.929 . S
C3086 C3088 1.378 . S
C3086 C3090 1.350 . S
C3087 C3090 1.463 . S
C3087 C3092 1.350 . S
C3087 N3095 1.427 . S
C3088 H3079 0.930 . S
C3088 C3086 1.378 . S
C3088 C3089 1.367 . S
C3089 C3088 1.367 . S
C3089 C3091 1.433 . S
C3090 C3086 1.350 . S
C3090 C3087 1.463 . S
C3090 N3094 1.427 . S
C3091 H3081 0.929 . S
C3091 C3089 1.433 . S
C3091 N3094 1.384 . S
C3092 H3083 0.929 . S
C3092 C3084 1.378 . S
C3092 C3087 1.350 . S
C3093 H3080 0.929 . S
C3093 C3085 1.433 . S
C3093 N3095 1.384 . S
N3094 C3090 1.427 . S
N3094 C3091 1.384 . S
N3095 C3087 1.427 . S
N3095 C3093 1.384 . S
H3096 C3102 0.930 . S
H3097 C3106 0.930 . S
H3098 C3111 0.929 . S
H3099 C3109 0.920 . S
H3100 C3104 0.929 . S
H3101 C3110 0.929 . S
C3102 H3096 0.930 . S
C3102 C3103 1.367 . S
C3102 C3110 1.378 . S
C3103 C3102 1.367 . S
C3103 C3111 1.433 . S
C3104 H3100 0.929 . S
C3104 C3106 1.378 . S
C3104 C3108 1.304 1_455 S
C3105 C3108 1.477 . S
C3105 C3110 1.350 . S
C3105 N3113 1.427 . S
C3106 H3097 0.930 . S
C3106 C3104 1.378 . S
C3106 C3107 1.367 . S
C3107 C3106 1.367 . S
C3107 C3109 1.464 . S
C3108 C3104 1.304 1_655 S
C3108 C3105 1.477 . S
C3108 N3112 1.470 . S
C3109 H3099 0.920 . S
C3109 C3107 1.464 . S
C3109 N3112 1.379 1_455 S
C3110 H3101 0.929 . S
C3110 C3102 1.378 . S
C3110 C3105 1.350 . S
C3111 H3098 0.929 . S
C3111 C3103 1.433 . S
C3111 N3113 1.384 . S
N3112 C3108 1.470 . S
N3112 C3109 1.379 1_655 S
N3113 C3105 1.427 . S
N3113 C3111 1.384 . S
H3114 C3120 0.930 . S
H3115 C3124 0.930 . S
H3116 C3129 0.929 . S
H3117 C3127 0.929 . S
H3118 C3122 0.929 . S
H3119 C3128 0.929 . S
C3120 H3114 0.930 . S
C3120 C3121 1.367 . S
C3120 C3128 1.378 . S
C3121 C3120 1.367 . S
C3121 C3129 1.433 . S
C3122 H3118 0.929 . S
C3122 C3124 1.378 . S
C3122 C3126 1.350 . S
C3123 C3126 1.463 . S
C3123 C3128 1.350 . S
C3123 N3131 1.427 . S
C3124 H3115 0.930 . S
C3124 C3122 1.378 . S
C3124 C3125 1.367 . S
C3125 C3124 1.367 . S
C3125 C3127 1.433 . S
C3126 C3122 1.350 . S
C3126 C3123 1.463 . S
C3126 N3130 1.427 . S
C3127 H3117 0.929 . S
C3127 C3125 1.433 . S
C3127 N3130 1.384 . S
C3128 H3119 0.929 . S
C3128 C3120 1.378 . S
C3128 C3123 1.350 . S
C3129 H3116 0.929 . S
C3129 C3121 1.433 . S
C3129 N3131 1.384 . S
N3130 C3126 1.427 . S
N3130 C3127 1.384 . S
N3131 C3123 1.427 . S
N3131 C3129 1.384 . S
H3132 C3138 0.930 . S
H3133 C3142 0.930 . S
H3134 C3147 0.950 . S
H3135 C3145 0.929 . S
H3136 C3140 0.929 . S
H3137 C3146 0.929 . S
C3138 H3132 0.930 . S
C3138 C3139 1.367 . S
C3138 C3146 1.378 . S
C3139 C3138 1.367 . S
C3139 C3147 1.407 1_565 S
C3140 H3136 0.929 . S
C3140 C3142 1.378 . S
C3140 C3144 1.350 . S
C3141 C3144 1.479 . S
C3141 C3146 1.297 1_545 S
C3141 N3149 1.475 . S
C3142 H3133 0.930 . S
C3142 C3140 1.378 . S
C3142 C3143 1.367 . S
C3143 C3142 1.367 . S
C3143 C3145 1.433 . S
C3144 C3140 1.350 . S
C3144 C3141 1.479 . S
C3144 N3148 1.427 . S
C3145 H3135 0.929 . S
C3145 C3143 1.433 . S
C3145 N3148 1.384 . S
C3146 H3137 0.929 . S
C3146 C3138 1.378 . S
C3146 C3141 1.297 1_565 S
C3147 H3134 0.950 . S
C3147 C3139 1.407 1_545 S
C3147 N3149 1.389 . S
N3148 C3144 1.427 . S
N3148 C3145 1.384 . S
N3149 C3141 1.475 . S
N3149 C3147 1.389 . S
H3150 C3156 0.930 . S
H3151 C3160 0.930 . S
H3152 C3165 0.929 . S
H3153 C3163 0.929 . S
H3154 C3158 0.929 . S
H3155 C3164 0.929 . S
C3156 H3150 0.930 . S
C3156 C3157 1.367 1_545 S
C3156 C3164 1.378 . S
C3157 C3156 1.367 1_565 S
C3157 C3165 1.433 . S
C3158 H3154 0.929 . S
C3158 C3160 1.378 . S
C3158 C3162 1.350 . S
C3159 C3162 1.463 . S
C3159 C3164 1.350 1_565 S
C3159 N3167 1.427 . S
C3160 H3151 0.930 . S
C3160 C3158 1.378 . S
C3160 C3161 1.367 1_565 S
C3161 C3160 1.367 1_545 S
C3161 C3163 1.433 . S
C3162 C3158 1.350 . S
C3162 C3159 1.463 . S
C3162 N3166 1.427 1_565 S
C3163 H3153 0.929 . S
C3163 C3161 1.433 . S
C3163 N3166 1.384 . S
C3164 H3155 0.929 . S
C3164 C3156 1.378 . S
C3164 C3159 1.350 1_545 S
C3165 H3152 0.929 . S
C3165 C3157 1.433 . S
C3165 N3167 1.384 . S
N3166 C3162 1.427 1_545 S
N3166 C3163 1.384 . S
N3167 C3159 1.427 . S
N3167 C3165 1.384 . S
H3168 C3174 0.930 . S
H3169 C3178 0.930 . S
H3170 C3183 0.929 . S
H3171 C3181 0.929 . S
H3172 C3176 0.928 1_655 S
H3173 C3182 0.929 . S
C3174 H3168 0.930 . S
C3174 C3175 1.367 1_455 S
C3174 C3182 1.378 . S
C3175 C3174 1.367 1_655 S
C3175 C3183 1.433 . S
C3176 H3172 0.928 1_455 S
C3176 C3178 1.377 . S
C3176 C3180 1.351 . S
C3177 C3180 1.463 . S
C3177 C3182 1.350 . S
C3177 N3185 1.427 1_455 S
C3178 H3169 0.930 . S
C3178 C3176 1.377 . S
C3178 C3179 1.367 . S
C3179 C3178 1.367 . S
C3179 C3181 1.433 . S
C3180 C3176 1.351 . S
C3180 C3177 1.463 . S
C3180 N3184 1.427 . S
C3181 H3171 0.929 . S
C3181 C3179 1.433 . S
C3181 N3184 1.384 . S
C3182 H3173 0.929 . S
C3182 C3174 1.378 . S
C3182 C3177 1.350 . S
C3183 H3170 0.929 . S
C3183 C3175 1.433 . S
C3183 N3185 1.384 . S
N3184 C3180 1.427 . S
N3184 C3181 1.384 . S
N3185 C3177 1.427 1_655 S
N3185 C3183 1.384 . S
H3186 C3192 0.930 . S
H3187 C3196 0.930 . S
H3188 C3201 0.929 . S
H3189 C3199 0.929 . S
H3190 C3194 0.929 . S
H3191 C3200 0.929 . S
C3192 H3186 0.930 . S
C3192 C3193 1.367 . S
C3192 C3200 1.378 . S
C3193 C3192 1.367 . S
C3193 C3201 1.433 . S
C3194 H3190 0.929 . S
C3194 C3196 1.378 . S
C3194 C3198 1.350 . S
C3195 C3198 1.463 . S
C3195 C3200 1.350 . S
C3195 N3203 1.427 . S
C3196 H3187 0.930 . S
C3196 C3194 1.378 . S
C3196 C3197 1.367 . S
C3197 C3196 1.367 . S
C3197 C3199 1.433 . S
C3198 C3194 1.350 . S
C3198 C3195 1.463 . S
C3198 N3202 1.427 . S
C3199 H3189 0.929 . S
C3199 C3197 1.433 . S
C3199 N3202 1.384 . S
C3200 H3191 0.929 . S
C3200 C3192 1.378 . S
C3200 C3195 1.350 . S
C3201 H3188 0.929 . S
C3201 C3193 1.433 . S
C3201 N3203 1.384 . S
N3202 C3198 1.427 . S
N3202 C3199 1.384 . S
N3203 C3195 1.427 . S
N3203 C3201 1.384 . S
C1915 C870 2.066 . S
C1919 C22 2.065 . S
C1933 C923 2.066 . S
C1937 C75 2.066 . S
C1951 C817 2.064 . S
C1955 C128 2.065 . S
C1969 C1400 2.024 . S
C1973 C181 2.022 . S
C1987 C234 2.022 . S
C1991 C1294 2.024 . S
C2005 C287 2.024 . S
C2009 C1347 2.023 . S
C2023 C340 2.065 . S
C2027 C1824 2.064 . S
C2041 C1877 2.062 . S
C2045 C393 2.064 . S
C2059 C1771 2.064 . S
C2063 C446 2.063 . S
C2077 C499 2.021 . S
C2081 C1082 2.024 . S
C2095 C976 2.021 . S
C2099 C552 2.021 . S
C2113 C605 2.022 . S
C2117 C1029 2.021 . S
C2131 C1506 1.921 . S
C2135 C658 1.918 . S
C2149 C711 1.923 . S
C2153 C1559 1.919 . S
C2167 C1453 1.922 . S
C2171 C764 1.919 . S
C2185 C1718 1.921 . S
C2189 C1135 1.914 . S
C2203 C1612 1.922 . S
C2207 C1188 1.917 . S
C2221 C1241 1.918 . S
C2225 C1665 1.917 . S
C2239 C993 1.917 . S
C2243 C39 1.924 . S
C2257 C1046 1.913 . S
C2261 C92 1.921 . S
C2275 C1099 1.925 . S
C2279 C145 1.932 . S
C2293 C198 1.930 . S
C2297 C1788 1.920 . S
C2311 C251 1.931 . S
C2315 C1841 1.921 . S
C2329 C304 1.941 . S
C2333 C1894 1.931 . S
C2347 C357 1.919 . S
C2351 C1311 1.930 . S
C2365 C1364 1.930 . S
C2369 C410 1.919 . S
C2383 C1417 1.929 . S
C2387 C463 1.919 . S
C2401 C834 1.938 . S
C2405 C516 1.931 . S
C2419 C569 1.932 . S
C2423 C887 1.939 . S
C2437 C622 1.921 . S
C2441 C940 1.929 . S
C2455 C675 1.907 . S
C2459 C1629 1.897 . S
C2473 C1682 1.904 . S
C2477 C728 1.912 . S
C2491 C1735 1.896 . S
C2495 C781 1.905 . S
C2509 C1470 1.968 . S
C2513 C1152 1.960 . S
C2527 C1205 1.970 . S
C2531 C1523 1.978 . S
C2545 C1258 1.959 . S
C2549 C1576 1.967 . S
C2563 C1469 1.844 . S
C2567 C38 1.837 . S
C2581 C91 1.835 . S
C2585 C1522 1.843 . S
C2599 C144 1.835 . S
C2603 C1575 1.841 . S
C2617 C674 1.799 . S
C2621 C197 1.795 . S
C2635 C250 1.799 . S
C2639 C727 1.795 . S
C2653 C303 1.795 . S
C2657 C780 1.799 . S
C2671 C1151 1.846 . S
C2675 C356 1.845 . S
C2689 C409 1.843 . S
C2693 C1204 1.844 . S
C2707 C1257 1.845 . S
C2711 C462 1.840 . S
C2725 C515 1.803 . S
C2729 C1628 1.798 . S
C2743 C1681 1.799 . S
C2747 C568 1.803 . S
C2761 C1734 1.801 . S
C2765 C621 1.803 . S
C2779 C1310 1.814 . S
C2783 C833 1.819 . S
C2797 C1363 1.815 . S
C2801 C886 1.815 . S
C2815 C1416 1.817 . S
C2819 C939 1.814 . S
C2833 C992 1.821 . S
C2837 C1787 1.822 . S
C2851 C1840 1.821 . S
C2855 C1045 1.819 . S
C2869 C1893 1.821 . S
C2873 C1098 1.823 . S
C2887 C29 0.857 1_556 S
C2891 C877 0.890 . S
C2905 C82 0.855 1_556 S
C2909 C930 0.886 . S
C2923 C135 0.855 1_556 S
C2927 C824 0.884 . S
C2941 C1407 0.928 . S
C2945 C188 0.929 . S
C2959 C1301 0.935 . S
C2963 C241 0.932 . S
C2977 C1354 0.929 . S
C2981 C294 0.933 . S
C2995 C1831 0.883 . S
C2999 C347 0.861 1_554 S
C3013 C1884 0.883 . S
C3017 C400 0.859 1_554 S
C3031 C1778 0.885 . S
C3035 C453 0.856 1_554 S
C3049 C506 0.933 . S
C3053 C1089 0.935 . S
C3067 C559 0.935 . S
C3071 C983 0.933 . S
C3085 C612 0.931 . S
C3089 C1036 0.929 . S
C3103 C1513 1.042 . S
C3107 C665 1.051 . S
C3121 C1566 1.044 . S
C3125 C718 1.052 . S
C3139 C771 1.045 . S
C3143 C1460 1.051 . S
C3157 C1142 1.045 . S
C3161 C1725 1.047 . S
C3175 C1619 1.047 . S
C3179 C1195 1.046 . S
C3193 C1672 1.047 . S
C3197 C1248 1.052 . S
