# Generated by pormake.
# Topology rob, (6)-cn, num edge types: 1
# Building blocks:
#     Node 0, Type 0, BuildingBlock: INOVEN_clean_sbu_0, # of connection points: 6
#     Node 1, Type 0, BuildingBlock: INOVEN_clean_sbu_0, # of connection points: 6
#     Node 2, Type 0, BuildingBlock: INOVEN_clean_sbu_0, # of connection points: 6
#     Node 3, Type 0, BuildingBlock: INOVEN_clean_sbu_0, # of connection points: 6
#     Edge 4, Type (0, 0), BuildingBlock: AJUNOK_clean_linker_0, # of connection points: 2
#     Edge 5, Type (0, 0), BuildingBlock: AJUNOK_clean_linker_0, # of connection points: 2
#     Edge 6, Type (0, 0), BuildingBlock: AJUNOK_clean_linker_0, # of connection points: 2
#     Edge 7, Type (0, 0), BuildingBlock: AJUNOK_clean_linker_0, # of connection points: 2
#     Edge 8, Type (0, 0), BuildingBlock: AJUNOK_clean_linker_0, # of connection points: 2
#     Edge 9, Type (0, 0), BuildingBlock: AJUNOK_clean_linker_0, # of connection points: 2
#     Edge 10, Type (0, 0), BuildingBlock: AJUNOK_clean_linker_0, # of connection points: 2
#     Edge 11, Type (0, 0), BuildingBlock: AJUNOK_clean_linker_0, # of connection points: 2
#     Edge 12, Type (0, 0), BuildingBlock: AJUNOK_clean_linker_0, # of connection points: 2
#     Edge 13, Type (0, 0), BuildingBlock: AJUNOK_clean_linker_0, # of connection points: 2
#     Edge 14, Type (0, 0), BuildingBlock: AJUNOK_clean_linker_0, # of connection points: 2
#     Edge 15, Type (0, 0), BuildingBlock: AJUNOK_clean_linker_0, # of connection points: 2
# Relax obj value: 0.209
# Max RMSD: 0.234
# Mean RMSD: 0.234
data_MOF--net-rob--node1-INOVEN_clean_sbu_0--edge1-AJUNOK_clean_linker_0
_symmetry_space_group_name_H-M    P1
_symmetry_Int_Tables_number       1
_symmetry_cell_setting            triclinic
loop_
_symmetry_equiv_pos_as_xyz
'x, y, z'
_cell_length_a     13.953011
_cell_length_b     15.77019
_cell_length_c     29.161909
_cell_angle_alpha  89.943198
_cell_angle_beta   130.53004
_cell_angle_gamma 89.068713
loop_
_atom_site_label
_atom_site_type_symbol
_atom_site_fract_x
_atom_site_fract_y
_atom_site_fract_z
_atom_type_partial_charge
Gd0 Gd 0.16867 0.31221 0.99505 0.0
Gd1 Gd 0.35888 0.2005 0.00827 0.0
C2 C 0.41133 0.23912 0.12694 0.0
C3 C 0.03102 0.38277 0.01522 0.0
C4 C 0.03669 0.37731 0.06776 0.0
C5 C 0.06985 0.44906 0.1035 0.0
C6 C 1.01988 0.30019 0.0858 0.0
C7 C 0.06622 0.36763 0.17348 0.0
C8 C 0.03462 0.29544 0.13807 0.0
C9 C 0.08577 0.44413 0.15598 0.0
C10 C 0.3366 0.39993 0.9968 0.0
C11 C 0.11974 0.27413 0.8769 0.0
C12 C 0.49924 0.127 0.99015 0.0
C13 C 0.51109 0.13602 0.94341 0.0
C14 C 0.51149 0.0632 0.91593 0.0
C15 C 0.51298 0.21609 0.92269 0.0
C16 C 0.51664 0.14954 0.84823 0.0
C17 C 0.51524 0.22273 0.8754 0.0
C18 C 0.51536 0.06969 0.86931 0.0
C19 C 0.19282 0.11392 0.00868 0.0
O20 O 0.29018 0.25916 0.08995 0.0
O21 O 0.47103 0.22281 0.10671 0.0
O22 O 0.12642 0.41983 0.02569 0.0
O23 O 0.99614 0.31553 0.98176 0.0
O24 O 0.21769 0.41988 0.96308 0.0
O25 O 0.36245 0.33562 0.02956 0.0
O26 O 0.24141 0.25625 0.91511 0.0
O27 O 0.05821 0.29277 0.89597 0.0
O28 O 0.39304 0.09632 0.97155 0.0
O29 O 0.53751 0.1895 0.02755 0.0
O30 O 0.31176 0.09459 0.04185 0.0
O31 O 0.16516 0.17682 0.97462 0.0
H32 H 0.08594 0.5089 0.09146 0.0
H33 H 0.99617 0.24327 0.05988 0.0
H34 H 1.0185 0.23554 0.15003 0.0
H35 H 0.11457 0.50033 0.1831 0.0
H36 H 0.50513 1.00105 0.92933 0.0
H37 H 0.51035 0.27356 0.9422 0.0
H38 H 0.51577 0.28511 0.86 0.0
H39 H 0.51277 0.01217 0.84827 0.0
Gd40 Gd 0.67276 0.81142 0.99679 0.0
Gd41 Gd 0.85991 0.69791 0.00844 0.0
C42 C 0.92473 0.74751 0.12912 0.0
C43 C 0.52883 0.87669 0.01497 0.0
C44 C 0.52565 0.86775 0.06449 0.0
C45 C 0.52438 0.94082 0.09147 0.0
C46 C 0.53464 0.78782 0.08864 0.0
C47 C 0.53874 0.85474 0.16533 0.0
C48 C 0.54121 0.78142 0.13857 0.0
C49 C 0.53088 0.93454 0.14127 0.0
C50 C 0.83805 0.89963 0.99678 0.0
C51 C 0.62723 0.78392 0.87896 0.0
C52 C 0.98375 0.61704 0.98314 0.0
C53 C 0.9918 0.62667 0.93501 0.0
C54 C 0.98717 0.55437 0.90564 0.0
C55 C 0.99429 0.70688 0.91461 0.0
C56 C 0.99111 0.64147 0.83771 0.0
C57 C 0.99352 0.7142 0.86634 0.0
C58 C 0.98789 0.56156 0.858 0.0
C59 C 0.69707 0.61425 0.01267 0.0
O60 O 0.80255 0.76392 0.09264 0.0
O61 O 0.98048 0.72448 0.10766 0.0
O62 O 0.62766 0.91445 0.02947 0.0
O63 O 0.49726 0.81097 0.98062 0.0
O64 O 0.7207 0.92164 0.96624 0.0
O65 O 0.86526 0.8341 0.02892 0.0
O66 O 0.7469 0.75996 0.917 0.0
O67 O 0.56461 0.79843 0.89784 0.0
O68 O 0.87466 0.59342 0.96478 0.0
O69 O 0.03403 0.67522 0.02446 0.0
O70 O 0.81618 0.59556 0.04579 0.0
O71 O 0.66813 0.67556 0.97722 0.0
H72 H 0.52162 1.00307 0.07499 0.0
H73 H 0.53847 0.73028 0.06958 0.0
H74 H 0.54726 0.71905 0.15597 0.0
H75 H 0.53318 0.99242 0.1619 0.0
H76 H 0.98064 0.49201 0.91875 0.0
H77 H 0.99359 0.76404 0.93485 0.0
H78 H 0.99523 0.77673 0.85151 0.0
H79 H 0.98373 0.50448 0.83628 0.0
Gd80 Gd 0.39327 0.82137 0.51895 0.0
Gd81 Gd 0.17817 0.72834 0.49134 0.0
C82 C 0.16478 0.76435 0.38204 0.0
C83 C 0.57135 0.8672 0.51999 0.0
C84 C 0.5946 0.85299 0.47795 0.0
C85 C 0.62117 0.92316 0.45885 0.0
C86 C 0.57225 0.77442 0.44986 0.0
C87 C 0.58888 0.84031 0.37983 0.0
C88 C 0.57102 0.76793 0.40146 0.0
C89 C 0.61633 0.91726 0.40976 0.0
C90 C 0.21801 0.92284 0.50778 0.0
C91 C 0.40779 0.7902 0.62873 0.0
C92 C 1.00245 0.67857 0.49166 0.0
C93 C 0.98967 0.67502 0.53862 0.0
C94 C 1.01226 0.59804 0.56862 0.0
C95 C 0.95822 0.74732 0.5552 0.0
C96 C 0.98249 0.66574 0.63389 0.0
C97 C 0.955 0.74273 0.60237 0.0
C98 C 1.00654 0.59305 0.6146 0.0
C99 C 0.35313 0.62851 0.50115 0.0
O100 O 0.28673 0.77631 0.42366 0.0
O101 O 0.09252 0.75589 0.3961 0.0
O102 O 0.47165 0.91452 0.49796 0.0
O103 O 0.58249 0.80153 0.55076 0.0
O104 O 0.33875 0.93442 0.54668 0.0
O105 O 0.19553 0.86088 0.47466 0.0
O106 O 0.28886 0.76876 0.58785 0.0
O107 O 0.47882 0.80356 0.61458 0.0
O108 O 0.08668 0.62705 0.49953 0.0
O109 O 1.00103 0.75352 0.47189 0.0
O110 O 0.23209 0.61794 0.46169 0.0
O111 O 0.37577 0.6889 0.53532 0.0
H112 H 0.63838 0.9839 0.47976 0.0
H113 H 0.55014 0.71923 0.46336 0.0
H114 H 0.54908 0.70787 0.37886 0.0
H115 H 0.62817 0.97393 0.3933 0.0
H116 H 0.03712 0.5415 0.55739 0.0
H117 H 0.93895 0.80788 0.53279 0.0
H118 H 0.93473 0.80017 0.61525 0.0
H119 H 1.02202 0.53166 0.63524 0.0
Gd120 Gd 0.88881 0.31662 0.5185 0.0
Gd121 Gd 0.6719 0.22464 0.49081 0.0
C122 C 0.64701 0.26544 0.37914 0.0
C123 C 0.06988 0.35949 0.5208 0.0
C124 C 0.09457 0.34949 0.47903 0.0
C125 C 0.14234 0.41825 0.46974 0.0
C126 C 0.05886 0.27671 0.44363 0.0
C127 C 0.10411 0.34715 0.38529 0.0
C128 C 0.06519 0.27519 0.3975 0.0
C129 C 0.14619 0.41716 0.4232 0.0
C130 C 0.7225 0.41881 0.51297 0.0
C131 C 0.90359 0.28052 0.62793 0.0
C132 C 0.50239 0.17336 0.49496 0.0
C133 C 0.49269 0.17386 0.54291 0.0
C134 C 0.50664 0.09712 0.57119 0.0
C135 C 0.47615 0.24924 0.56321 0.0
C136 C 0.49571 0.17001 0.64125 0.0
C137 C 0.47786 0.24729 0.61197 0.0
C138 C 0.50634 0.09491 0.6189 0.0
C139 C 0.84353 0.12547 0.49698 0.0
O140 O 0.76872 0.28126 0.42 0.0
O141 O 0.57876 0.25079 0.39478 0.0
O142 O 0.97438 0.40975 0.50137 0.0
O143 O 0.07431 0.29073 0.5473 0.0
O144 O 0.84373 0.42879 0.55079 0.0
O145 O 0.69487 0.35833 0.47786 0.0
O146 O 0.78254 0.2656 0.58695 0.0
O147 O 0.9751 0.29118 0.61379 0.0
O148 O 0.59067 0.12359 0.50528 0.0
O149 O 0.49332 0.24625 0.47068 0.0
O150 O 0.72229 0.11568 0.458 0.0
O151 O 0.86753 0.18423 0.53232 0.0
H152 H 0.17146 0.47449 0.49684 0.0
H153 H 1.0211 0.2227 0.44983 0.0
H154 H 0.03225 0.22006 0.36909 0.0
H155 H 0.17758 0.47256 0.41533 0.0
H156 H 0.52107 0.0385 0.5574 0.0
H157 H 0.46496 0.30985 0.54252 0.0
H158 H 0.46865 0.30645 0.62776 0.0
H159 H 0.51583 0.03393 0.63872 0.0
C160 C 0.48015 0.5865 0.97735 0.0
C161 C 0.6062 0.55975 0.00953 0.0
C162 C 0.39466 0.53547 0.97478 0.0
C163 C 0.43082 0.45492 1.00324 0.0
H164 H 0.4471 0.6473 0.95405 0.0
H165 H 0.29943 0.55955 0.95046 0.0
S166 S 0.74894 0.35534 0.09384 0.0
N167 N 0.76208 0.44651 0.07067 0.0
N168 N 0.60242 0.35318 0.06682 0.0
C169 C 0.55675 0.42845 0.03648 0.0
C170 C 0.6438 0.4799 0.03909 0.0
C171 C 0.57515 0.56852 0.55743 0.0
C172 C 0.44902 0.57856 0.50338 0.0
C173 C 0.66365 0.51776 0.56025 0.0
C174 C 0.62949 0.47455 0.50922 0.0
H175 H 0.60527 0.59886 0.59813 0.0
H176 H 0.75895 0.51112 0.603 0.0
S177 S 0.32104 0.49397 0.35463 0.0
N178 N 0.30195 0.55053 0.3959 0.0
N179 N 0.46598 0.45431 0.40187 0.0
C180 C 0.5059 0.48715 0.45466 0.0
C181 C 0.41653 0.5393 0.45157 0.0
C182 C 0.98328 0.09066 0.98253 0.0
C183 C 0.10108 0.05872 1.0041 0.0
C184 C 0.89983 0.03939 0.98141 0.0
C185 C 0.93047 0.954 1.00138 0.0
H186 H 0.95547 0.15566 0.96675 0.0
H187 H 0.8106 0.06705 0.9648 0.0
S188 S 0.22094 0.83746 0.05639 0.0
N189 N 0.23834 0.9338 0.04096 0.0
N190 N 0.08561 0.84037 0.04209 0.0
C191 C 0.04749 0.92174 0.02284 0.0
C192 C 0.13132 0.97312 0.02307 0.0
C193 C 0.06607 0.06833 0.55185 0.0
C194 C 0.93888 0.07612 0.4984 0.0
C195 C 0.15539 0.01947 0.55428 0.0
C196 C 0.1215 0.97546 0.50356 0.0
H197 H 0.0967 0.09935 0.59244 0.0
H198 H 0.25156 0.01504 0.59666 0.0
S199 S 0.80674 0.98639 0.35024 0.0
N200 N 0.78906 0.0444 0.39152 0.0
N201 N 0.95391 0.9499 0.3969 0.0
C202 C 0.99576 0.9848 0.44951 0.0
C203 C 0.90553 0.03572 0.44673 0.0
C204 C 0.47388 0.21706 0.27359 0.0
C205 C 0.58947 0.25806 0.31504 0.0
C206 C 0.41892 0.20858 0.21305 0.0
C207 C 0.47863 0.2391 0.19202 0.0
H208 H 0.42495 0.19161 0.28776 0.0
H209 H 0.32819 0.17869 0.18223 0.0
S210 S 0.77312 0.35939 0.27944 0.0
N211 N 0.75608 0.3355 0.32886 0.0
N212 N 0.65347 0.31669 0.21537 0.0
C213 C 0.59338 0.28017 0.23253 0.0
C214 C 0.64858 0.29034 0.29395 0.0
C215 C 0.63367 0.79197 0.2669 0.0
C216 C 0.54583 0.8482 0.21854 0.0
C217 C 0.64499 0.78732 0.31844 0.0
C218 C 0.5691 0.8389 0.32338 0.0
H219 H 0.69665 0.75301 0.2657 0.0
H220 H 0.71609 0.7452 0.35537 0.0
S221 S 0.31564 0.98948 0.20753 0.0
N222 N 0.37567 0.95191 0.17793 0.0
N223 N 0.39709 0.94265 0.27431 0.0
C224 C 0.47843 0.89311 0.27479 0.0
C225 C 0.46693 0.89805 0.22258 0.0
C226 C 0.64275 0.78019 0.79864 0.0
C227 C 0.56816 0.79506 0.81484 0.0
C228 C 0.59083 0.78181 0.73856 0.0
C229 C 0.4618 0.79796 0.69191 0.0
H230 H 0.74231 0.76509 0.83245 0.0
H231 H 0.65169 0.76718 0.72861 0.0
S232 S 0.22843 0.85565 0.7097 0.0
N233 N 0.36083 0.83674 0.77924 0.0
N234 N 0.26224 0.83963 0.66556 0.0
C235 C 0.3867 0.81785 0.70715 0.0
C236 C 0.44011 0.8166 0.76877 0.0
C237 C 0.42155 0.21473 0.69707 0.0
C238 C 0.50554 0.16686 0.69549 0.0
C239 C 0.42667 0.20975 0.74683 0.0
C240 C 0.51518 0.15613 0.79673 0.0
H241 H 0.34957 0.25507 0.65905 0.0
H242 H 0.35886 0.24669 0.7456 0.0
S243 S 0.76204 0.02206 0.8173 0.0
N244 N 0.6861 0.06858 0.75079 0.0
N245 N 0.69121 0.05659 0.84227 0.0
C246 C 0.60028 0.10868 0.79598 0.0
C247 C 0.59669 0.11475 0.746 0.0
C248 C 0.10775 0.71206 0.23866 0.0
C249 C 0.99458 0.7571 0.19453 0.0
C250 C 0.16547 0.71665 0.3 0.0
C251 C 0.1087 0.76305 0.31843 0.0
H252 H 0.15059 0.6722 0.22579 0.0
H253 H 0.25391 0.68298 0.33295 0.0
S254 S 0.83788 0.91247 0.22434 0.0
N255 N 0.84665 0.86603 0.17646 0.0
N256 N 0.95047 0.86804 0.29064 0.0
C257 C 1.00155 0.81269 0.27564 0.0
C258 C 0.94553 0.81109 0.21393 0.0
C259 C 0.14293 0.28793 0.31829 0.0
C260 C 0.09246 0.35249 0.33081 0.0
C261 C 0.1348 0.29346 0.2677 0.0
C262 C 0.07497 0.36348 0.22736 0.0
H263 H 0.19111 0.23349 0.34844 0.0
H264 H 0.17734 0.24295 0.26064 0.0
S265 S 0.91963 0.54695 0.23792 0.0
N266 N 0.97641 0.48724 0.29757 0.0
N267 N 0.95895 0.49695 0.20241 0.0
C268 C 1.02204 0.42775 0.23895 0.0
C269 C 0.03112 0.42235 0.29055 0.0
C270 C 0.90888 0.33293 0.71028 0.0
C271 C 0.9593 0.28047 0.69115 0.0
C272 C 0.95781 0.32949 0.77029 0.0
C273 C 0.05733 0.27283 0.81226 0.0
H274 H 0.83215 0.37725 0.67882 0.0
H275 H 0.91918 0.37209 0.78401 0.0
S276 S 0.20052 0.10998 0.77947 0.0
N277 N 0.10084 0.16379 0.71556 0.0
N278 N 0.1909 0.15469 0.82756 0.0
C279 C 0.10295 0.21698 0.79216 0.0
C280 C 0.05454 0.22157 0.73174 0.0
C281 C 0.90156 0.70739 0.68758 0.0
C282 C 0.98823 0.66086 0.68714 0.0
C283 C 0.90403 0.70195 0.73658 0.0
C284 C 0.99155 0.64844 0.78669 0.0
H285 H 0.82976 0.74745 0.64938 0.0
H286 H 0.83515 0.7386 0.73462 0.0
S287 S 0.24515 0.51797 0.81093 0.0
N288 N 0.172 0.56511 0.74489 0.0
N289 N 0.16927 0.5502 0.83373 0.0
C290 C 0.07889 0.60202 0.78707 0.0
C291 C 0.07912 0.60938 0.73826 0.0
loop_
_geom_bond_atom_site_label_1
_geom_bond_atom_site_label_2
_geom_bond_distance
_geom_bond_site_symmetry_2
_ccdc_geom_bond_type
Gd0 C3 2.818 1_556 S
Gd0 O20 2.377 1_556 S
Gd0 O22 2.448 1_556 S
Gd0 O23 2.506 1_556 S
Gd0 O24 2.435 1_556 S
Gd0 O25 2.717 1_556 S
Gd0 O27 2.395 . S
Gd0 O31 2.327 . S
Gd1 C12 2.818 1_554 S
Gd1 O21 2.395 . S
Gd1 O25 2.327 . S
Gd1 O26 2.377 1_554 S
Gd1 O28 2.448 1_554 S
Gd1 O29 2.506 1_554 S
Gd1 O30 2.435 1_554 S
Gd1 O31 2.717 1_554 S
C2 O20 1.240 . S
C2 O21 1.240 . S
C3 Gd0 2.818 1_554 S
C3 C4 1.510 . S
C3 O22 1.249 . S
C3 O23 1.252 . S
C4 C3 1.510 . S
C4 C5 1.404 . S
C4 C6 1.352 . S
C5 C4 1.404 . S
C5 C9 1.389 . S
C5 H32 0.930 . S
C6 C4 1.352 . S
C6 C8 1.374 . S
C6 H33 0.931 . S
C7 C8 1.359 . S
C7 C9 1.364 . S
C8 C6 1.374 . S
C8 C7 1.359 . S
C8 H34 0.931 . S
C9 C5 1.389 . S
C9 C7 1.364 . S
C9 H35 0.931 . S
C10 O24 1.256 . S
C10 O25 1.257 . S
C11 O26 1.240 . S
C11 O27 1.240 . S
C12 Gd1 2.818 1_556 S
C12 C13 1.510 . S
C12 O28 1.249 . S
C12 O29 1.252 . S
C13 C12 1.510 . S
C13 C14 1.404 . S
C13 C15 1.352 . S
C14 C13 1.404 . S
C14 C18 1.389 . S
C14 H36 0.930 . S
C15 C13 1.352 . S
C15 C17 1.374 . S
C15 H37 0.931 . S
C16 C17 1.359 . S
C16 C18 1.364 . S
C17 C15 1.374 . S
C17 C16 1.359 . S
C17 H38 0.931 . S
C18 C14 1.389 . S
C18 C16 1.364 . S
C18 H39 0.931 1_545 S
C19 O30 1.256 . S
C19 O31 1.257 . S
O20 Gd0 2.377 1_554 S
O20 C2 1.240 . S
O21 Gd1 2.395 . S
O21 C2 1.240 . S
O22 Gd0 2.448 1_554 S
O22 C3 1.249 . S
O23 Gd0 2.506 1_554 S
O23 C3 1.252 . S
O24 Gd0 2.435 1_554 S
O24 C10 1.256 . S
O25 Gd0 2.717 1_554 S
O25 Gd1 2.327 . S
O25 C10 1.257 . S
O26 Gd1 2.377 1_556 S
O26 C11 1.240 . S
O27 Gd0 2.395 . S
O27 C11 1.240 . S
O28 Gd1 2.448 1_556 S
O28 C12 1.249 . S
O29 Gd1 2.506 1_556 S
O29 C12 1.252 . S
O30 Gd1 2.435 1_556 S
O30 C19 1.256 . S
O31 Gd0 2.327 . S
O31 Gd1 2.717 1_556 S
O31 C19 1.257 . S
H32 C5 0.930 . S
H33 C6 0.931 . S
H34 C8 0.931 . S
H35 C9 0.931 . S
H36 C14 0.930 . S
H37 C15 0.931 . S
H38 C17 0.931 . S
H39 C18 0.931 1_565 S
Gd40 C43 2.818 1_556 S
Gd40 O60 2.377 1_556 S
Gd40 O62 2.448 1_556 S
Gd40 O63 2.506 1_556 S
Gd40 O64 2.435 1_556 S
Gd40 O65 2.717 1_556 S
Gd40 O67 2.395 . S
Gd40 O71 2.327 . S
Gd41 C52 2.818 1_554 S
Gd41 O61 2.395 . S
Gd41 O65 2.327 . S
Gd41 O66 2.377 1_554 S
Gd41 O68 2.448 1_554 S
Gd41 O69 2.506 1_554 S
Gd41 O70 2.435 1_554 S
Gd41 O71 2.717 1_554 S
C42 O60 1.240 . S
C42 O61 1.240 . S
C43 Gd40 2.818 1_554 S
C43 C44 1.510 . S
C43 O62 1.249 . S
C43 O63 1.252 . S
C44 C43 1.510 . S
C44 C45 1.404 . S
C44 C46 1.352 . S
C45 C44 1.404 . S
C45 C49 1.389 . S
C45 H72 0.930 . S
C46 C44 1.352 . S
C46 C48 1.374 . S
C46 H73 0.931 . S
C47 C48 1.359 . S
C47 C49 1.364 . S
C48 C46 1.374 . S
C48 C47 1.359 . S
C48 H74 0.931 . S
C49 C45 1.389 . S
C49 C47 1.364 . S
C49 H75 0.931 1_565 S
C50 O64 1.256 . S
C50 O65 1.257 . S
C51 O66 1.240 . S
C51 O67 1.240 . S
C52 Gd41 2.818 1_556 S
C52 C53 1.510 . S
C52 O68 1.249 . S
C52 O69 1.252 . S
C53 C52 1.510 . S
C53 C54 1.404 . S
C53 C55 1.352 . S
C54 C53 1.404 . S
C54 C58 1.389 . S
C54 H76 0.930 . S
C55 C53 1.352 . S
C55 C57 1.374 . S
C55 H77 0.931 . S
C56 C57 1.359 . S
C56 C58 1.364 . S
C57 C55 1.374 . S
C57 C56 1.359 . S
C57 H78 0.931 . S
C58 C54 1.389 . S
C58 C56 1.364 . S
C58 H79 0.931 . S
C59 O70 1.256 . S
C59 O71 1.257 . S
O60 Gd40 2.377 1_554 S
O60 C42 1.240 . S
O61 Gd41 2.395 . S
O61 C42 1.240 . S
O62 Gd40 2.448 1_554 S
O62 C43 1.249 . S
O63 Gd40 2.506 1_554 S
O63 C43 1.252 . S
O64 Gd40 2.435 1_554 S
O64 C50 1.256 . S
O65 Gd40 2.717 1_554 S
O65 Gd41 2.327 . S
O65 C50 1.257 . S
O66 Gd41 2.377 1_556 S
O66 C51 1.240 . S
O67 Gd40 2.395 . S
O67 C51 1.240 . S
O68 Gd41 2.448 1_556 S
O68 C52 1.249 . S
O69 Gd41 2.506 1_556 S
O69 C52 1.252 . S
O70 Gd41 2.435 1_556 S
O70 C59 1.256 . S
O71 Gd40 2.327 . S
O71 Gd41 2.717 1_556 S
O71 C59 1.257 . S
H72 C45 0.930 . S
H73 C46 0.931 . S
H74 C48 0.931 . S
H75 C49 0.931 1_545 S
H76 C54 0.930 . S
H77 C55 0.931 . S
H78 C57 0.931 . S
H79 C58 0.931 . S
Gd80 C83 2.818 . S
Gd80 O100 2.377 . S
Gd80 O102 2.448 . S
Gd80 O103 2.506 . S
Gd80 O104 2.435 . S
Gd80 O105 2.717 . S
Gd80 O107 2.395 . S
Gd80 O111 2.327 . S
Gd81 C92 2.818 . S
Gd81 O101 2.395 . S
Gd81 O105 2.327 . S
Gd81 O106 2.377 . S
Gd81 O108 2.448 . S
Gd81 O109 2.506 . S
Gd81 O110 2.435 . S
Gd81 O111 2.717 . S
C82 O100 1.240 . S
C82 O101 1.240 . S
C83 Gd80 2.818 . S
C83 C84 1.510 . S
C83 O102 1.249 . S
C83 O103 1.252 . S
C84 C83 1.510 . S
C84 C85 1.404 . S
C84 C86 1.352 . S
C85 C84 1.404 . S
C85 C89 1.389 . S
C85 H112 0.930 . S
C86 C84 1.352 . S
C86 C88 1.374 . S
C86 H113 0.931 . S
C87 C88 1.359 . S
C87 C89 1.364 . S
C88 C86 1.374 . S
C88 C87 1.359 . S
C88 H114 0.931 . S
C89 C85 1.389 . S
C89 C87 1.364 . S
C89 H115 0.931 1_565 S
C90 O104 1.256 . S
C90 O105 1.257 . S
C91 O106 1.240 . S
C91 O107 1.240 . S
C92 Gd81 2.818 . S
C92 C93 1.510 . S
C92 O108 1.249 . S
C92 O109 1.252 . S
C93 C92 1.510 . S
C93 C94 1.404 . S
C93 C95 1.352 . S
C94 C93 1.404 . S
C94 C98 1.389 . S
C94 H116 0.930 . S
C95 C93 1.352 . S
C95 C97 1.374 . S
C95 H117 0.931 . S
C96 C97 1.359 . S
C96 C98 1.364 . S
C97 C95 1.374 . S
C97 C96 1.359 . S
C97 H118 0.931 . S
C98 C94 1.389 . S
C98 C96 1.364 . S
C98 H119 0.931 . S
C99 O110 1.256 . S
C99 O111 1.257 . S
O100 Gd80 2.377 . S
O100 C82 1.240 . S
O101 Gd81 2.395 . S
O101 C82 1.240 . S
O102 Gd80 2.448 . S
O102 C83 1.249 . S
O103 Gd80 2.506 . S
O103 C83 1.252 . S
O104 Gd80 2.435 . S
O104 C90 1.256 . S
O105 Gd80 2.717 . S
O105 Gd81 2.327 . S
O105 C90 1.257 . S
O106 Gd81 2.377 . S
O106 C91 1.240 . S
O107 Gd80 2.395 . S
O107 C91 1.240 . S
O108 Gd81 2.448 . S
O108 C92 1.249 . S
O109 Gd81 2.506 . S
O109 C92 1.252 . S
O110 Gd81 2.435 . S
O110 C99 1.256 . S
O111 Gd80 2.327 . S
O111 Gd81 2.717 . S
O111 C99 1.257 . S
H112 C85 0.930 . S
H113 C86 0.931 . S
H114 C88 0.931 . S
H115 C89 0.931 1_545 S
H116 C94 0.930 . S
H117 C95 0.931 . S
H118 C97 0.931 . S
H119 C98 0.931 . S
Gd120 C123 2.818 . S
Gd120 O140 2.377 . S
Gd120 O142 2.448 . S
Gd120 O143 2.506 . S
Gd120 O144 2.435 . S
Gd120 O145 2.717 . S
Gd120 O147 2.395 . S
Gd120 O151 2.327 . S
Gd121 C132 2.818 . S
Gd121 O141 2.395 . S
Gd121 O145 2.327 . S
Gd121 O146 2.377 . S
Gd121 O148 2.448 . S
Gd121 O149 2.506 . S
Gd121 O150 2.435 . S
Gd121 O151 2.717 . S
C122 O140 1.240 . S
C122 O141 1.240 . S
C123 Gd120 2.818 . S
C123 C124 1.510 . S
C123 O142 1.249 . S
C123 O143 1.252 . S
C124 C123 1.510 . S
C124 C125 1.404 . S
C124 C126 1.352 . S
C125 C124 1.404 . S
C125 C129 1.389 . S
C125 H152 0.930 . S
C126 C124 1.352 . S
C126 C128 1.374 . S
C126 H153 0.931 . S
C127 C128 1.359 . S
C127 C129 1.364 . S
C128 C126 1.374 . S
C128 C127 1.359 . S
C128 H154 0.931 . S
C129 C125 1.389 . S
C129 C127 1.364 . S
C129 H155 0.931 . S
C130 O144 1.256 . S
C130 O145 1.257 . S
C131 O146 1.240 . S
C131 O147 1.240 . S
C132 Gd121 2.818 . S
C132 C133 1.510 . S
C132 O148 1.249 . S
C132 O149 1.252 . S
C133 C132 1.510 . S
C133 C134 1.404 . S
C133 C135 1.352 . S
C134 C133 1.404 . S
C134 C138 1.389 . S
C134 H156 0.930 . S
C135 C133 1.352 . S
C135 C137 1.374 . S
C135 H157 0.931 . S
C136 C137 1.359 . S
C136 C138 1.364 . S
C137 C135 1.374 . S
C137 C136 1.359 . S
C137 H158 0.931 . S
C138 C134 1.389 . S
C138 C136 1.364 . S
C138 H159 0.931 1_545 S
C139 O150 1.256 . S
C139 O151 1.257 . S
O140 Gd120 2.377 . S
O140 C122 1.240 . S
O141 Gd121 2.395 . S
O141 C122 1.240 . S
O142 Gd120 2.448 . S
O142 C123 1.249 . S
O143 Gd120 2.506 . S
O143 C123 1.252 . S
O144 Gd120 2.435 . S
O144 C130 1.256 . S
O145 Gd120 2.717 . S
O145 Gd121 2.327 . S
O145 C130 1.257 . S
O146 Gd121 2.377 . S
O146 C131 1.240 . S
O147 Gd120 2.395 . S
O147 C131 1.240 . S
O148 Gd121 2.448 . S
O148 C132 1.249 . S
O149 Gd121 2.506 . S
O149 C132 1.252 . S
O150 Gd121 2.435 . S
O150 C139 1.256 . S
O151 Gd120 2.327 . S
O151 Gd121 2.717 . S
O151 C139 1.257 . S
H152 C125 0.930 . S
H153 C126 0.931 . S
H154 C128 0.931 . S
H155 C129 0.931 . S
H156 C134 0.930 . S
H157 C135 0.931 . S
H158 C137 0.931 . S
H159 C138 0.931 1_565 S
C160 C161 1.369 . S
C160 C162 1.419 . S
C160 H164 0.930 . S
C161 C160 1.369 . S
C161 C170 1.429 1_556 S
C162 C160 1.419 . S
C162 C163 1.363 1_556 S
C162 H165 0.929 . S
C163 C162 1.363 1_554 S
C163 C169 1.428 . S
H164 C160 0.930 . S
H165 C162 0.929 . S
S166 N167 1.613 . S
S166 N168 1.610 . S
N167 S166 1.613 . S
N167 C170 1.350 . S
N168 S166 1.610 . S
N168 C169 1.351 . S
C169 C163 1.428 . S
C169 N168 1.351 . S
C169 C170 1.434 . S
C170 C161 1.429 1_554 S
C170 N167 1.350 . S
C170 C169 1.434 . S
C171 C172 1.369 . S
C171 C173 1.419 . S
C171 H175 0.930 . S
C172 C171 1.369 . S
C172 C181 1.429 . S
C173 C171 1.419 . S
C173 C174 1.363 . S
C173 H176 0.929 . S
C174 C173 1.363 . S
C174 C180 1.428 . S
H175 C171 0.930 . S
H176 C173 0.929 . S
S177 N178 1.613 . S
S177 N179 1.610 . S
N178 S177 1.613 . S
N178 C181 1.350 . S
N179 S177 1.610 . S
N179 C180 1.351 . S
C180 C174 1.428 . S
C180 N179 1.351 . S
C180 C181 1.434 . S
C181 C172 1.429 . S
C181 N178 1.350 . S
C181 C180 1.434 . S
C182 C183 1.369 1_655 S
C182 C184 1.419 1_545 S
C182 H186 0.930 . S
C183 C182 1.369 1_455 S
C183 C192 1.429 1_556 S
C184 C182 1.419 1_565 S
C184 C185 1.363 1_556 S
C184 H187 0.929 . S
C185 C184 1.363 1_554 S
C185 C191 1.428 1_655 S
H186 C182 0.930 . S
H187 C184 0.929 . S
S188 N189 1.613 1_565 S
S188 N190 1.610 . S
N189 S188 1.613 1_545 S
N189 C192 1.350 . S
N190 S188 1.610 . S
N190 C191 1.351 . S
C191 C185 1.428 1_455 S
C191 N190 1.351 . S
C191 C192 1.434 1_565 S
C192 C183 1.429 1_554 S
C192 N189 1.350 . S
C192 C191 1.434 1_545 S
C193 C194 1.369 1_565 S
C193 C195 1.419 1_655 S
C193 H197 0.930 . S
C194 C193 1.369 1_545 S
C194 C203 1.429 . S
C195 C193 1.419 1_455 S
C195 C196 1.363 . S
C195 H198 0.929 . S
C196 C195 1.363 . S
C196 C202 1.428 1_565 S
H197 C193 0.930 . S
H198 C195 0.929 . S
S199 N200 1.613 . S
S199 N201 1.610 . S
N200 S199 1.613 . S
N200 C203 1.350 . S
N201 S199 1.610 . S
N201 C202 1.351 1_655 S
C202 C196 1.428 1_545 S
C202 N201 1.351 1_455 S
C202 C203 1.434 1_455 S
C203 C194 1.429 . S
C203 N200 1.350 . S
C203 C202 1.434 1_655 S
C204 C205 1.369 . S
C204 C206 1.419 . S
C204 H208 0.930 . S
C205 C204 1.369 . S
C205 C214 1.429 . S
C206 C204 1.419 . S
C206 C207 1.363 . S
C206 H209 0.929 . S
C207 C206 1.363 . S
C207 C213 1.428 . S
H208 C204 0.930 . S
H209 C206 0.929 . S
S210 N211 1.613 . S
S210 N212 1.610 . S
N211 S210 1.613 . S
N211 C214 1.350 . S
N212 S210 1.610 . S
N212 C213 1.351 . S
C213 C207 1.428 . S
C213 N212 1.351 . S
C213 C214 1.434 . S
C214 C205 1.429 . S
C214 N211 1.350 . S
C214 C213 1.434 . S
C215 C216 1.369 . S
C215 C217 1.419 . S
C215 H219 0.930 . S
C216 C215 1.369 . S
C216 C225 1.429 . S
C217 C215 1.419 . S
C217 C218 1.363 . S
C217 H220 0.929 . S
C218 C217 1.363 . S
C218 C224 1.428 . S
H219 C215 0.930 . S
H220 C217 0.929 . S
S221 N222 1.613 . S
S221 N223 1.610 . S
N222 S221 1.613 . S
N222 C225 1.350 1_545 S
N223 S221 1.610 . S
N223 C224 1.351 1_545 S
C224 C218 1.428 . S
C224 N223 1.351 1_565 S
C224 C225 1.434 . S
C225 C216 1.429 . S
C225 N222 1.350 1_565 S
C225 C224 1.434 . S
C226 C227 1.369 . S
C226 C228 1.419 . S
C226 H230 0.930 . S
C227 C226 1.369 . S
C227 C236 1.429 . S
C228 C226 1.419 . S
C228 C229 1.363 . S
C228 H231 0.929 . S
C229 C228 1.363 . S
C229 C235 1.428 . S
H230 C226 0.930 . S
H231 C228 0.929 . S
S232 N233 1.613 . S
S232 N234 1.610 . S
N233 S232 1.613 . S
N233 C236 1.350 . S
N234 S232 1.610 . S
N234 C235 1.351 . S
C235 C229 1.428 . S
C235 N234 1.351 . S
C235 C236 1.434 . S
C236 C227 1.429 . S
C236 N233 1.350 . S
C236 C235 1.434 . S
C237 C238 1.369 . S
C237 C239 1.419 . S
C237 H241 0.930 . S
C238 C237 1.369 . S
C238 C247 1.429 . S
C239 C237 1.419 . S
C239 C240 1.363 . S
C239 H242 0.929 . S
C240 C239 1.363 . S
C240 C246 1.428 . S
H241 C237 0.930 . S
H242 C239 0.929 . S
S243 N244 1.613 1_565 S
S243 N245 1.610 1_565 S
N244 S243 1.613 1_545 S
N244 C247 1.350 . S
N245 S243 1.610 1_545 S
N245 C246 1.351 . S
C246 C240 1.428 . S
C246 N245 1.351 . S
C246 C247 1.434 . S
C247 C238 1.429 . S
C247 N244 1.350 . S
C247 C246 1.434 . S
C248 C249 1.369 1_455 S
C248 C250 1.419 . S
C248 H252 0.930 . S
C249 C248 1.369 1_655 S
C249 C258 1.429 . S
C250 C248 1.419 . S
C250 C251 1.363 . S
C250 H253 0.929 . S
C251 C250 1.363 . S
C251 C257 1.428 1_455 S
H252 C248 0.930 . S
H253 C250 0.929 . S
S254 N255 1.613 . S
S254 N256 1.610 . S
N255 S254 1.613 . S
N255 C258 1.350 . S
N256 S254 1.610 . S
N256 C257 1.351 . S
C257 C251 1.428 1_655 S
C257 N256 1.351 . S
C257 C258 1.434 . S
C258 C249 1.429 . S
C258 N255 1.350 . S
C258 C257 1.434 . S
C259 C260 1.369 . S
C259 C261 1.419 . S
C259 H263 0.930 . S
C260 C259 1.369 . S
C260 C269 1.429 1_455 S
C261 C259 1.419 . S
C261 C262 1.363 1_455 S
C261 H264 0.929 . S
C262 C261 1.363 1_655 S
C262 C268 1.428 . S
H263 C259 0.930 . S
H264 C261 0.929 . S
S265 N266 1.613 . S
S265 N267 1.610 . S
N266 S265 1.613 . S
N266 C269 1.350 . S
N267 S265 1.610 . S
N267 C268 1.351 . S
C268 C262 1.428 . S
C268 N267 1.351 . S
C268 C269 1.434 . S
C269 C260 1.429 1_655 S
C269 N266 1.350 . S
C269 C268 1.434 . S
C270 C271 1.369 . S
C270 C272 1.419 . S
C270 H274 0.930 . S
C271 C270 1.369 . S
C271 C280 1.429 1_655 S
C272 C270 1.419 . S
C272 C273 1.363 1_655 S
C272 H275 0.929 . S
C273 C272 1.363 1_455 S
C273 C279 1.428 . S
H274 C270 0.930 . S
H275 C272 0.929 . S
S276 N277 1.613 . S
S276 N278 1.610 . S
N277 S276 1.613 . S
N277 C280 1.350 . S
N278 S276 1.610 . S
N278 C279 1.351 . S
C279 C273 1.428 . S
C279 N278 1.351 . S
C279 C280 1.434 . S
C280 C271 1.429 1_455 S
C280 N277 1.350 . S
C280 C279 1.434 . S
C281 C282 1.369 . S
C281 C283 1.419 . S
C281 H285 0.930 . S
C282 C281 1.369 . S
C282 C291 1.429 1_655 S
C283 C281 1.419 . S
C283 C284 1.363 1_655 S
C283 H286 0.929 . S
C284 C283 1.363 1_455 S
C284 C290 1.428 . S
H285 C281 0.930 . S
H286 C283 0.929 . S
S287 N288 1.613 . S
S287 N289 1.610 . S
N288 S287 1.613 . S
N288 C291 1.350 . S
N289 S287 1.610 . S
N289 C290 1.351 . S
C290 C284 1.428 . S
C290 N289 1.351 . S
C290 C291 1.434 . S
C291 C282 1.429 1_455 S
C291 N288 1.350 . S
C291 C290 1.434 . S
C161 C59 1.702 . S
C163 C10 1.701 . S
C172 C99 1.700 . S
C174 C130 1.703 . S
C183 C19 1.700 . S
C185 C50 1.702 . S
C194 C139 1.700 . S
C196 C90 1.703 . S
C205 C122 1.811 . S
C207 C2 1.812 . S
C216 C47 1.202 . S
C218 C87 1.198 . S
C227 C51 1.815 . S
C229 C91 1.813 . S
C238 C136 1.198 . S
C240 C16 1.201 . S
C249 C42 1.812 . S
C251 C82 1.812 . S
C260 C127 1.199 1_455 S
C262 C7 1.200 1_655 S
C271 C131 1.812 . S
C273 C11 1.813 . S
C282 C96 1.199 1_655 S
C284 C56 1.201 1_455 S
