# Generated by pormake.
# Topology vby, (6)-cn, num edge types: 1
# Building blocks:
#     Node 0, Type 0, BuildingBlock: BETDEL_clean_sbu_0, # of connection points: 6
#     Node 1, Type 0, BuildingBlock: BETDEL_clean_sbu_0, # of connection points: 6
#     Node 2, Type 0, BuildingBlock: BETDEL_clean_sbu_0, # of connection points: 6
#     Node 3, Type 0, BuildingBlock: BETDEL_clean_sbu_0, # of connection points: 6
#     Node 4, Type 0, BuildingBlock: BETDEL_clean_sbu_0, # of connection points: 6
#     Node 5, Type 0, BuildingBlock: BETDEL_clean_sbu_0, # of connection points: 6
#     Node 6, Type 0, BuildingBlock: BETDEL_clean_sbu_0, # of connection points: 6
#     Node 7, Type 0, BuildingBlock: BETDEL_clean_sbu_0, # of connection points: 6
#     Edge 8, Type (0, 0), BuildingBlock: UVAHIK_clean_linker_0, # of connection points: 2
#     Edge 9, Type (0, 0), BuildingBlock: UVAHIK_clean_linker_0, # of connection points: 2
#     Edge 10, Type (0, 0), BuildingBlock: UVAHIK_clean_linker_0, # of connection points: 2
#     Edge 11, Type (0, 0), BuildingBlock: UVAHIK_clean_linker_0, # of connection points: 2
#     Edge 12, Type (0, 0), BuildingBlock: UVAHIK_clean_linker_0, # of connection points: 2
#     Edge 13, Type (0, 0), BuildingBlock: UVAHIK_clean_linker_0, # of connection points: 2
#     Edge 14, Type (0, 0), BuildingBlock: UVAHIK_clean_linker_0, # of connection points: 2
#     Edge 15, Type (0, 0), BuildingBlock: UVAHIK_clean_linker_0, # of connection points: 2
#     Edge 16, Type (0, 0), BuildingBlock: UVAHIK_clean_linker_0, # of connection points: 2
#     Edge 17, Type (0, 0), BuildingBlock: UVAHIK_clean_linker_0, # of connection points: 2
#     Edge 18, Type (0, 0), BuildingBlock: UVAHIK_clean_linker_0, # of connection points: 2
#     Edge 19, Type (0, 0), BuildingBlock: UVAHIK_clean_linker_0, # of connection points: 2
#     Edge 20, Type (0, 0), BuildingBlock: UVAHIK_clean_linker_0, # of connection points: 2
#     Edge 21, Type (0, 0), BuildingBlock: UVAHIK_clean_linker_0, # of connection points: 2
#     Edge 22, Type (0, 0), BuildingBlock: UVAHIK_clean_linker_0, # of connection points: 2
#     Edge 23, Type (0, 0), BuildingBlock: UVAHIK_clean_linker_0, # of connection points: 2
#     Edge 24, Type (0, 0), BuildingBlock: UVAHIK_clean_linker_0, # of connection points: 2
#     Edge 25, Type (0, 0), BuildingBlock: UVAHIK_clean_linker_0, # of connection points: 2
#     Edge 26, Type (0, 0), BuildingBlock: UVAHIK_clean_linker_0, # of connection points: 2
#     Edge 27, Type (0, 0), BuildingBlock: UVAHIK_clean_linker_0, # of connection points: 2
#     Edge 28, Type (0, 0), BuildingBlock: UVAHIK_clean_linker_0, # of connection points: 2
#     Edge 29, Type (0, 0), BuildingBlock: UVAHIK_clean_linker_0, # of connection points: 2
#     Edge 30, Type (0, 0), BuildingBlock: UVAHIK_clean_linker_0, # of connection points: 2
#     Edge 31, Type (0, 0), BuildingBlock: UVAHIK_clean_linker_0, # of connection points: 2
# Relax obj value: 0.118
# Max RMSD: 0.161
# Mean RMSD: 0.161
data_MOF--net-vby--node1-BETDEL_clean_sbu_0--edge1-UVAHIK_clean_linker_0
_symmetry_space_group_name_H-M    P1
_symmetry_Int_Tables_number       1
_symmetry_cell_setting            triclinic
loop_
_symmetry_equiv_pos_as_xyz
'x, y, z'
_cell_length_a     20.02642
_cell_length_b     87.613284
_cell_length_c     37.428809
_cell_angle_alpha  90.054828
_cell_angle_beta   86.523225
_cell_angle_gamma 90.024202
loop_
_atom_site_label
_atom_site_type_symbol
_atom_site_fract_x
_atom_site_fract_y
_atom_site_fract_z
_atom_type_partial_charge
Dy0 Dy 0.06149 0.40083 0.00945 0.0
C1 C 0.08333 0.33527 0.03242 0.0
C2 C 0.03864 0.43138 1.00257 0.0
Dy3 Dy 0.06229 0.36467 0.01175 0.0
O4 O 0.01441 0.42281 0.02848 0.0
O5 O 0.07526 0.42321 0.97982 0.0
O6 O 0.10525 0.4006 0.06306 0.0
O7 O 0.03989 0.38308 0.05027 0.0
C8 C 0.07748 0.38788 0.07372 0.0
C9 C 0.06425 0.37483 0.94339 0.0
O10 O 0.9526 0.36925 0.02085 0.0
O11 O 0.95545 0.39436 0.99984 0.0
O12 O 0.04096 0.33949 0.00931 0.0
O13 O 0.11185 0.34723 0.04537 0.0
O14 O 0.06293 0.36047 0.95197 0.0
O15 O 0.0664 0.38232 0.9719 0.0
O16 O 0.16971 0.39661 0.99472 0.0
O17 O 0.17057 0.3712 0.01308 0.0
C18 C 0.92226 0.38176 0.00988 0.0
C19 C 0.20192 0.38391 1.00244 0.0
Dy20 Dy 0.94893 0.6601 0.0194 0.0
C21 C 0.96667 0.59502 0.01232 0.0
C22 C 0.9223 0.6907 0.01534 0.0
Dy23 Dy 0.9476 0.62596 0.01164 0.0
O24 O 0.93129 0.6832 0.04451 0.0
O25 O 0.92998 0.68155 0.98805 0.0
O26 O 0.99825 0.65804 0.07091 0.0
O27 O 0.9284 0.64126 0.05726 0.0
C28 C 0.97013 0.64512 0.0797 0.0
C29 C 0.93163 0.64149 0.95075 0.0
O30 O 0.83852 0.62876 0.02463 0.0
O31 O 0.83954 0.65489 0.01573 0.0
O32 O 0.9846 0.60407 0.98609 0.0
O33 O 0.93833 0.60288 0.03852 0.0
O34 O 0.9005 0.62889 0.9592 0.0
O35 O 0.9713 0.64478 0.97447 0.0
O36 O 0.0574 0.65687 1.00461 0.0
O37 O 0.05563 0.63123 0.01998 0.0
C38 C 0.80694 0.64186 0.02109 0.0
C39 C 0.08878 0.644 0.0117 0.0
Dy40 Dy 0.05572 0.66082 0.50704 0.0
C41 C 0.03878 0.59568 0.513 0.0
C42 C 0.08216 0.69142 0.51107 0.0
Dy43 Dy 0.05712 0.62662 0.51476 0.0
O44 O 0.07524 0.6838 0.48181 0.0
O45 O 0.07254 0.68239 0.53844 0.0
O46 O 0.00582 0.65867 0.45573 0.0
O47 O 0.07615 0.64194 0.46927 0.0
C48 C 0.03399 0.64574 0.44704 0.0
C49 C 0.07178 0.64221 0.57582 0.0
O50 O 0.16615 0.62948 0.5019 0.0
O51 O 0.16497 0.65561 0.51124 0.0
O52 O 0.02532 0.60439 0.54049 0.0
O53 O 0.06226 0.60387 0.48616 0.0
O54 O 0.10303 0.62959 0.56759 0.0
O55 O 0.0329 0.64547 0.55173 0.0
O56 O 0.94716 0.6576 0.52168 0.0
O57 O 0.9487 0.63182 0.5073 0.0
C58 C 0.19763 0.64259 0.50573 0.0
C59 C 0.91571 0.64466 0.5151 0.0
Dy60 Dy 0.94362 0.40121 0.51291 0.0
C61 C 0.91777 0.33661 0.51257 0.0
C62 C 0.96286 0.43209 0.51649 0.0
Dy63 Dy 0.94488 0.36718 0.5174 0.0
O64 O 0.97751 0.42358 0.4888 0.0
O65 O 0.93775 0.42372 0.54263 0.0
O66 O 0.8946 0.39956 0.461 0.0
O67 O 0.96524 0.38305 0.47319 0.0
C68 C 0.92481 0.38712 0.45038 0.0
C69 C 0.96912 0.38118 0.57882 0.0
O70 O 0.05321 0.37041 0.50195 0.0
O71 O 0.05222 0.39586 0.51893 0.0
O72 O 0.9246 0.34411 0.54197 0.0
O73 O 0.92782 0.34574 0.48542 0.0
O74 O 0.99732 0.3685 0.56815 0.0
O75 O 0.92598 0.38533 0.55744 0.0
O76 O 0.83468 0.3983 0.52647 0.0
O77 O 0.83555 0.37243 0.51428 0.0
C78 C 0.085 0.38319 0.50945 0.0
C79 C 0.80296 0.38532 0.52143 0.0
Dy80 Dy 0.55992 0.90056 0.01466 0.0
C81 C 0.58513 0.83579 0.01445 0.0
C82 C 0.54082 0.93145 0.01137 0.0
Dy83 Dy 0.5585 0.86637 0.00956 0.0
O84 O 0.52728 0.92296 0.03919 0.0
O85 O 0.5648 0.92306 0.98496 0.0
O86 O 0.60784 0.89874 0.0668 0.0
O87 O 0.5376 0.88224 0.05371 0.0
C88 C 0.57765 0.88621 0.07681 0.0
C89 C 0.5367 0.88069 0.94835 0.0
O90 O 0.45014 0.86966 0.0247 0.0
O91 O 0.45145 0.89516 1.00811 0.0
O92 O 0.57655 0.84317 0.9851 0.0
O93 O 0.57711 0.84504 0.04153 0.0
O94 O 0.5079 0.86797 0.9582 0.0
O95 O 0.57896 0.88466 0.97035 0.0
O96 O 0.66893 0.8976 1.00143 0.0
O97 O 0.66786 0.87165 0.01288 0.0
C98 C 0.41854 0.88246 0.01725 0.0
C99 C 0.70051 0.88458 1.00622 0.0
Dy100 Dy 0.44817 0.1601 0.01983 0.0
C101 C 0.46421 0.09507 0.01496 0.0
C102 C 0.42059 0.19056 0.01307 0.0
Dy103 Dy 0.44601 0.12602 0.01303 0.0
O104 O 0.44867 0.18439 0.03987 0.0
O105 O 0.40983 0.18015 0.98937 0.0
O106 O 0.49443 0.15845 0.0723 0.0
O107 O 0.42582 0.14153 0.05815 0.0
C108 C 0.46661 0.14549 0.08096 0.0
C109 C 0.4317 0.14131 0.95163 0.0
O110 O 0.33682 0.1288 0.02578 0.0
O111 O 0.33804 0.15506 0.01885 0.0
O112 O 0.47689 0.10371 0.98731 0.0
O113 O 0.44163 0.10334 0.04189 0.0
O114 O 0.39937 0.1289 0.96045 0.0
O115 O 0.47134 0.14461 0.97535 0.0
O116 O 0.5559 0.15658 1.00339 0.0
O117 O 0.55424 0.13124 0.02095 0.0
C118 C 0.30535 0.14198 0.02333 0.0
C119 C 0.58745 0.14387 0.01158 0.0
Dy120 Dy 0.55531 0.16072 0.50732 0.0
C121 C 0.53879 0.09555 0.51341 0.0
C122 C 0.58172 0.19135 0.51071 0.0
Dy123 Dy 0.55681 0.12651 0.51523 0.0
O124 O 0.57468 0.18362 0.48162 0.0
O125 O 0.57225 0.18242 0.53827 0.0
O126 O 0.50501 0.15848 0.45616 0.0
O127 O 0.57557 0.1418 0.46966 0.0
C128 C 0.53321 0.14555 0.4475 0.0
C129 C 0.57164 0.14216 0.57621 0.0
O130 O 0.66579 0.1294 0.50222 0.0
O131 O 0.66457 0.15552 0.51152 0.0
O132 O 0.52598 0.10423 0.54104 0.0
O133 O 0.56141 0.10379 0.48647 0.0
O134 O 0.60291 0.12955 0.56798 0.0
O135 O 0.53268 0.1454 0.55213 0.0
O136 O 0.44681 0.1575 0.52218 0.0
O137 O 0.44827 0.13169 0.50806 0.0
C138 C 0.69725 0.14251 0.50601 0.0
C139 C 0.41531 0.14455 0.51578 0.0
Dy140 Dy 0.44527 0.90101 0.51367 0.0
C141 C 0.42051 0.83625 0.51412 0.0
C142 C 0.46428 0.93191 0.51697 0.0
Dy143 Dy 0.44704 0.86683 0.51872 0.0
O144 O 0.47766 0.92341 0.48911 0.0
O145 O 0.44053 0.92352 0.54341 0.0
O146 O 0.3956 0.89916 0.46199 0.0
O147 O 0.46623 0.88267 0.47446 0.0
C148 C 0.42534 0.88659 0.45179 0.0
C149 C 0.47194 0.88118 0.57941 0.0
O150 O 0.5552 0.87013 0.50297 0.0
O151 O 0.55419 0.8957 0.51911 0.0
O152 O 0.42625 0.84383 0.54353 0.0
O153 O 0.43126 0.84531 0.48689 0.0
O154 O 0.50035 0.86847 0.5692 0.0
O155 O 0.42832 0.88514 0.55818 0.0
O156 O 0.33657 0.898 0.52774 0.0
O157 O 0.33753 0.87207 0.51589 0.0
C158 C 0.58696 0.88298 0.50997 0.0
C159 C 0.30491 0.88498 0.52296 0.0
C160 C 0.31079 0.37046 1.00924 0.0
C161 C 0.27624 0.38382 1.00067 0.0
C162 C 0.38047 0.37035 0.00937 0.0
C163 C 0.53283 0.39072 0.97555 0.0
H164 H 0.61356 0.36973 0.05331 0.0
C165 C 0.81508 0.39513 0.99812 0.0
C166 C 0.84829 0.38186 1.00861 0.0
C167 C 0.74552 0.39536 0.99673 0.0
C168 C 0.59194 0.37548 0.03115 0.0
H169 H 0.28856 0.40753 0.98489 0.0
H170 H 0.41062 0.40733 0.98523 0.0
H171 H 0.49223 0.37036 0.05137 0.0
H172 H 0.83387 0.35838 0.02572 0.0
H173 H 0.71247 0.35874 0.02294 0.0
H174 H 0.63263 0.3958 0.95529 0.0
C175 C 0.38344 0.39691 0.99165 0.0
C176 C 0.52231 0.37586 0.03006 0.0
C177 C 0.31344 0.39703 0.99159 0.0
C178 C 0.81005 0.36882 0.01765 0.0
C179 C 0.74034 0.36905 0.01623 0.0
C180 C 0.60255 0.39031 0.97661 0.0
C181 C 0.4177 0.38359 1.00091 0.0
C182 C 0.49187 0.38345 1.00221 0.0
C183 C 0.70721 0.38233 1.00574 0.0
C184 C 0.633 0.38267 1.00442 0.0
H185 H 0.28409 0.36002 0.0162 0.0
H186 H 0.40526 0.35983 0.01599 0.0
H187 H 0.51106 0.39649 0.95348 0.0
H188 H 0.84269 0.40544 0.99107 0.0
H189 H 0.7217 0.40586 0.98907 0.0
C190 C 0.19998 0.6573 1.0058 0.0
C191 C 0.1627 0.64384 0.01165 0.0
C192 C 0.26965 0.65712 1.00693 0.0
C193 C 0.40757 0.63459 0.04187 0.0
H194 H 0.5183 0.65786 0.973 0.0
C195 C 0.69572 0.62854 0.02702 0.0
C196 C 0.73292 0.64206 0.02192 0.0
C197 C 0.62596 0.62876 0.02637 0.0
C198 C 0.48802 0.65142 0.99266 0.0
H199 H 0.16966 0.61958 0.02273 0.0
H200 H 0.29082 0.61927 0.02418 0.0
H201 H 0.39701 0.6583 0.97021 0.0
H202 H 0.72565 0.66646 0.01269 0.0
H203 H 0.60437 0.66682 0.01183 0.0
H204 H 0.4987 0.62767 0.06422 0.0
C205 C 0.26623 0.63001 0.01935 0.0
C206 C 0.41851 0.65169 0.99107 0.0
C207 C 0.19669 0.63019 0.01827 0.0
C208 C 0.69873 0.65581 0.01659 0.0
C209 C 0.62914 0.65602 0.01586 0.0
C210 C 0.47709 0.6343 0.04342 0.0
C211 C 0.30353 0.64348 0.01389 0.0
C212 C 0.37746 0.64327 0.01565 0.0
C213 C 0.59198 0.64249 0.0205 0.0
C214 C 0.51809 0.64273 0.01885 0.0
H215 H 0.17539 0.66802 1.00074 0.0
H216 H 0.29686 0.66773 1.00298 0.0
H217 H 0.37734 0.62817 0.06158 0.0
H218 H 0.72042 0.61774 0.03113 0.0
H219 H 0.59874 0.61812 0.02973 0.0
C220 C 0.8046 0.65797 0.52118 0.0
C221 C 0.84179 0.6445 0.51526 0.0
C222 C 0.73492 0.65779 0.52012 0.0
C223 C 0.59686 0.63531 0.48512 0.0
H224 H 0.48633 0.65854 0.55421 0.0
C225 C 0.3088 0.62928 0.49987 0.0
C226 C 0.27163 0.64279 0.50506 0.0
C227 C 0.37854 0.6295 0.50058 0.0
C228 C 0.51656 0.65212 0.53449 0.0
H229 H 0.83467 0.62024 0.50409 0.0
H230 H 0.71349 0.61994 0.50276 0.0
H231 H 0.60764 0.65896 0.55698 0.0
H232 H 0.27891 0.66718 0.51455 0.0
H233 H 0.4002 0.66754 0.51551 0.0
H234 H 0.50569 0.62842 0.46273 0.0
C235 C 0.73817 0.63068 0.50762 0.0
C236 C 0.58606 0.65237 0.53606 0.0
C237 C 0.80771 0.63085 0.50864 0.0
C238 C 0.30583 0.65654 0.51057 0.0
C239 C 0.37541 0.65674 0.51136 0.0
C240 C 0.52734 0.63504 0.48359 0.0
C241 C 0.70095 0.64416 0.51314 0.0
C242 C 0.62704 0.64396 0.51141 0.0
C243 C 0.41254 0.64322 0.50659 0.0
C244 C 0.48642 0.64345 0.50823 0.0
H245 H 0.82925 0.66869 0.52624 0.0
H246 H 0.70777 0.66841 0.52411 0.0
H247 H 0.62704 0.6289 0.46536 0.0
H248 H 0.2841 0.61848 0.49563 0.0
H249 H 0.40573 0.61886 0.49713 0.0
C250 C 0.69161 0.39861 0.52768 0.0
C251 C 0.7289 0.38513 0.52219 0.0
C252 C 0.62188 0.39839 0.52663 0.0
C253 C 0.48475 0.37584 0.49121 0.0
H254 H 0.3725 0.39884 0.55995 0.0
C255 C 0.19627 0.3699 0.5028 0.0
C256 C 0.159 0.38334 0.50895 0.0
C257 C 0.26597 0.37007 0.50404 0.0
C258 C 0.40317 0.39249 0.54029 0.0
H259 H 0.72179 0.36078 0.51198 0.0
H260 H 0.60066 0.36043 0.51049 0.0
H261 H 0.49367 0.39936 0.56342 0.0
H262 H 0.16607 0.40757 0.52043 0.0
H263 H 0.28712 0.40788 0.52206 0.0
H264 H 0.39432 0.369 0.46801 0.0
C265 C 0.62529 0.3712 0.51507 0.0
C266 C 0.47261 0.39279 0.5423 0.0
C267 C 0.69482 0.37141 0.51617 0.0
C268 C 0.19305 0.39697 0.51578 0.0
C269 C 0.26255 0.39715 0.51696 0.0
C270 C 0.41532 0.37555 0.48916 0.0
C271 C 0.58802 0.3847 0.51999 0.0
C272 C 0.5142 0.38446 0.51781 0.0
C273 C 0.29984 0.38369 0.51141 0.0
C274 C 0.3737 0.38388 0.51366 0.0
H275 H 0.71623 0.40937 0.5323 0.0
H276 H 0.59461 0.409 0.53024 0.0
H277 H 0.51547 0.36948 0.47159 0.0
H278 H 0.17163 0.35919 0.49758 0.0
H279 H 0.29318 0.35947 0.49996 0.0
C280 C 0.81186 0.89787 1.00002 0.0
C281 C 0.77454 0.88439 1.00547 0.0
C282 C 0.88159 0.89765 1.00094 0.0
C283 C 0.01892 0.87512 0.03593 0.0
H284 H 0.13067 0.89808 0.96696 0.0
C285 C 0.30725 0.86918 0.02377 0.0
C286 C 0.34455 0.88261 0.01764 0.0
C287 C 0.23755 0.86935 0.0226 0.0
C288 C 0.10014 0.89174 0.98668 0.0
H289 H 0.7816 0.86004 0.01554 0.0
H290 H 0.90278 0.85968 0.01683 0.0
H291 H 0.00944 0.8986 0.96379 0.0
H292 H 0.33757 0.90684 1.00616 0.0
H293 H 0.21647 0.90714 1.00463 0.0
H294 H 0.10954 0.8683 0.05891 0.0
C295 C 0.87815 0.87046 0.01236 0.0
C296 C 0.03068 0.89204 0.98484 0.0
C297 C 0.8086 0.87066 0.01137 0.0
C298 C 0.31055 0.89624 0.01082 0.0
C299 C 0.24103 0.89642 0.00969 0.0
C300 C 0.08838 0.87484 0.03781 0.0
C301 C 0.91543 0.88395 1.00742 0.0
C302 C 0.98928 0.88372 0.00942 0.0
C303 C 0.2037 0.88296 0.01529 0.0
C304 C 0.12982 0.88316 0.01322 0.0
H305 H 0.78725 0.90864 0.99548 0.0
H306 H 0.90888 0.90826 0.99734 0.0
H307 H 0.98834 0.86877 0.05561 0.0
H308 H 0.33184 0.85847 0.02898 0.0
H309 H 0.21031 0.85875 0.0267 0.0
C310 C 0.19715 0.15602 0.01945 0.0
C311 C 0.23129 0.14223 0.02443 0.0
C312 C 0.12757 0.15625 0.01854 0.0
C313 C 0.97513 0.13442 0.0448 0.0
H314 H 0.89648 0.1585 0.97125 0.0
C315 C 0.69548 0.13012 0.01822 0.0
C316 C 0.6614 0.14374 0.01138 0.0
C317 C 0.76499 0.12999 0.01952 0.0
C318 C 0.91756 0.15187 0.99222 0.0
H319 H 0.21866 0.11788 0.03296 0.0
H320 H 0.09704 0.11829 0.03133 0.0
H321 H 0.01761 0.15817 0.97495 0.0
H322 H 0.67389 0.1679 1.00023 0.0
H323 H 0.79529 0.16771 1.00291 0.0
H324 H 0.87516 0.12817 0.06221 0.0
C325 C 0.12428 0.12894 0.02834 0.0
C326 C 0.98698 0.15167 0.99432 0.0
C327 C 0.19402 0.1287 0.02913 0.0
C328 C 0.69857 0.1572 1.00543 0.0
C329 C 0.76822 0.15708 1.00683 0.0
C330 C 0.9057 0.13465 0.04277 0.0
C331 C 0.09037 0.1427 0.02269 0.0
C332 C 0.01655 0.14293 0.02061 0.0
C333 C 0.8022 0.14348 0.01412 0.0
C334 C 0.87607 0.14335 0.0164 0.0
H335 H 0.22413 0.16668 0.01582 0.0
H336 H 0.10284 0.16706 0.01468 0.0
H337 H 0.99634 0.12775 0.06566 0.0
H338 H 0.66852 0.11951 0.02273 0.0
H339 H 0.78962 0.11927 0.02456 0.0
C340 C 0.30727 0.13073 0.50953 0.0
C341 C 0.34138 0.14439 0.51601 0.0
C342 C 0.23773 0.13056 0.50849 0.0
C343 C 0.0856 0.15233 0.53655 0.0
H344 H 0.00544 0.12825 0.46336 0.0
C345 C 0.80547 0.15647 0.51075 0.0
C346 C 0.77127 0.14271 0.50534 0.0
C347 C 0.87505 0.15667 0.51159 0.0
C348 C 0.02703 0.1349 0.48418 0.0
H349 H 0.32889 0.1686 0.52672 0.0
H350 H 0.20741 0.16832 0.52456 0.0
H351 H 0.12677 0.12871 0.46614 0.0
H352 H 0.78372 0.11839 0.49611 0.0
H353 H 0.90533 0.11877 0.4977 0.0
H354 H 0.98582 0.15855 0.55451 0.0
C355 C 0.23453 0.1577 0.5207 0.0
C356 C 0.09654 0.13516 0.48579 0.0
C357 C 0.30421 0.15787 0.52178 0.0
C358 C 0.80843 0.12919 0.50028 0.0
C359 C 0.87816 0.12941 0.50103 0.0
C360 C 0.0161 0.15208 0.53489 0.0
C361 C 0.20054 0.14405 0.51384 0.0
C362 C 0.12664 0.14386 0.51203 0.0
C363 C 0.91217 0.14314 0.50697 0.0
C364 C 0.98604 0.14337 0.50869 0.0
H365 H 0.33421 0.12011 0.50511 0.0
H366 H 0.21304 0.11981 0.50373 0.0
H367 H 0.10711 0.15895 0.55742 0.0
H368 H 0.77856 0.16712 0.51464 0.0
H369 H 0.89984 0.16747 0.51567 0.0
C370 C 0.69818 0.86966 0.50334 0.0
C371 C 0.661 0.88312 0.5094 0.0
C372 C 0.76789 0.86981 0.50457 0.0
C373 C 0.91434 0.89564 0.49899 0.0
H374 H 1.0005 0.86304 0.54894 0.0
C375 C 0.19362 0.89828 0.52931 0.0
C376 C 0.23082 0.88478 0.52388 0.0
C377 C 0.12389 0.89808 0.52829 0.0
C378 C 0.97732 0.87215 0.53458 0.0
H379 H 0.66824 0.90734 0.52105 0.0
H380 H 0.78925 0.90754 0.52331 0.0
H381 H 0.87961 0.86252 0.54419 0.0
H382 H 0.22355 0.86045 0.51361 0.0
H383 H 0.10255 0.86018 0.51152 0.0
H384 H 0.01199 0.90525 0.48928 0.0
C385 C 0.76472 0.8969 0.5173 0.0
C386 C 0.90804 0.87184 0.53181 0.0
C387 C 0.69518 0.89675 0.51618 0.0
C388 C 0.19661 0.87107 0.51799 0.0
C389 C 0.12704 0.87088 0.51698 0.0
C390 C 0.98362 0.89594 0.50171 0.0
C391 C 0.8019 0.88342 0.51174 0.0
C392 C 0.87573 0.88358 0.51401 0.0
C393 C 0.08983 0.8844 0.52186 0.0
C394 C 0.01596 0.88421 0.51955 0.0
H395 H 0.6735 0.85897 0.49802 0.0
H396 H 0.79521 0.85927 0.49975 0.0
H397 H 0.8911 0.90475 0.48468 0.0
H398 H 0.2183 0.90903 0.53399 0.0
H399 H 0.09662 0.90866 0.53265 0.0
C400 C 0.94894 0.56914 0.03971 0.0
C401 C 0.97544 0.57829 0.01154 0.0
C402 C 0.95564 0.55324 0.03807 0.0
C403 C 0.05598 0.52244 0.99362 0.0
H404 H 0.90292 0.49713 0.02171 0.0
C405 C 0.05855 0.45684 0.97305 0.0
C406 C 0.02883 0.44806 1.00106 0.0
C407 C 0.05107 0.47275 0.97304 0.0
C408 C 0.94642 0.50401 0.0141 0.0
H409 H 0.03026 0.5781 0.95981 0.0
H410 H 0.04204 0.55039 0.95694 0.0
H411 H 0.89318 0.52482 0.02545 0.0
H412 H 0.96772 0.44896 0.05084 0.0
H413 H 0.95545 0.47657 0.05114 0.0
H414 H 0.10949 0.50164 0.98264 0.0
C415 C 0.01647 0.55544 0.98039 0.0
C416 C 0.94078 0.51989 0.01628 0.0
C417 C 0.00943 0.5713 0.98195 0.0
C418 C 0.99097 0.45543 0.02878 0.0
C419 C 0.98361 0.47127 0.02883 0.0
C420 C 0.06172 0.50654 0.99158 0.0
C421 C 0.98933 0.5462 1.00832 0.0
C422 C 0.99553 0.5293 1.00616 0.0
C423 C 0.01375 0.48017 1.00107 0.0
C424 C 0.00707 0.49711 1.00193 0.0
H425 H 0.92257 0.57424 0.06285 0.0
H426 H 0.93484 0.54645 0.06022 0.0
H427 H 0.09934 0.52936 0.98599 0.0
H428 H 0.08796 0.45143 0.95134 0.0
H429 H 0.07429 0.47922 0.951 0.0
C430 C 0.99844 0.45641 0.48658 0.0
C431 C 0.97167 0.44881 0.51721 0.0
C432 C 0.00547 0.47227 0.48644 0.0
C433 C 0.01571 0.5057 0.546 0.0
H434 H 0.97028 0.52822 0.46166 0.0
C435 C 0.00384 0.57152 0.54393 0.0
C436 C 0.02992 0.57895 0.51294 0.0
C437 C 0.9963 0.55566 0.54446 0.0
C438 C 0.98393 0.5221 0.48526 0.0
H439 H 0.93165 0.45176 0.57182 0.0
H440 H 0.94356 0.47959 0.57163 0.0
H441 H 0.95781 0.50055 0.46303 0.0
H442 H 0.06844 0.57573 0.45814 0.0
H443 H 0.0559 0.54795 0.45905 0.0
H444 H 0.04197 0.52725 0.5682 0.0
C445 C 0.95969 0.47326 0.54779 0.0
C446 C 0.97673 0.50623 0.48607 0.0
C447 C 0.95258 0.45735 0.54788 0.0
C448 C 0.04802 0.57027 0.48236 0.0
C449 C 0.04051 0.55438 0.48287 0.0
C450 C 0.02296 0.52158 0.54519 0.0
C451 C 0.98589 0.48091 0.51696 0.0
C452 C 0.99266 0.49783 0.51642 0.0
C453 C 0.01475 0.54688 0.51399 0.0
C454 C 0.00721 0.52997 0.51479 0.0
H455 H 0.0138 0.45009 0.46257 0.0
H456 H 0.02682 0.47775 0.46246 0.0
H457 H 0.02934 0.49956 0.56959 0.0
H458 H 0.98924 0.57795 0.56787 0.0
H459 H 0.97535 0.55031 0.56869 0.0
C460 C 0.50628 0.95579 0.04166 0.0
C461 C 0.53184 0.94818 0.01076 0.0
C462 C 0.49897 0.97164 0.04185 0.0
C463 C 0.4857 1.005 0.9824 0.0
H464 H 0.53421 0.02769 0.06602 0.0
C465 C 0.49777 0.07082 0.9839 0.0
C466 C 0.47292 0.07834 0.01508 0.0
C467 C 0.50515 0.05496 0.98341 0.0
C468 C 0.51968 0.02152 0.04263 0.0
H469 H 0.56944 0.9511 0.95572 0.0
H470 H 0.55707 0.97892 0.95602 0.0
H471 H 0.54688 1.00002 0.06463 0.0
H472 H 0.43644 0.07524 0.07024 0.0
H473 H 0.44874 0.04745 0.06942 0.0
H474 H 0.45841 0.02649 0.96042 0.0
C475 C 0.54208 0.9726 0.98004 0.0
C476 C 0.527 1.00565 0.04181 0.0
C477 C 0.54947 0.9567 0.97988 0.0
C478 C 0.45589 0.06972 0.04588 0.0
C479 C 0.46327 0.05382 0.04541 0.0
C480 C 0.47835 0.02087 0.98322 0.0
C481 C 0.51706 0.98027 0.01112 0.0
C482 C 0.51001 0.99718 0.01171 0.0
C483 C 0.48779 0.04625 0.01411 0.0
C484 C 0.49524 0.02933 0.01336 0.0
H485 H 0.49204 0.94949 0.06583 0.0
H486 H 0.47855 0.97713 0.06605 0.0
H487 H 0.47121 0.99882 0.95902 0.0
H488 H 0.51152 0.0772 0.95978 0.0
H489 H 0.52514 0.04955 0.95903 0.0
C490 C 0.50547 0.07131 0.5445 0.0
C491 C 0.53019 0.07882 0.51331 0.0
C492 C 0.49823 0.05545 0.54497 0.0
C493 C 0.55826 0.02044 0.49837 0.0
H494 H 0.40202 1.00205 0.54728 0.0
C495 C 0.49869 0.95625 0.48677 0.0
C496 C 0.47332 0.94863 0.51766 0.0
C497 C 0.50626 0.9721 0.48671 0.0
C498 C 0.44636 1.00699 0.5339 0.0
H499 H 0.56634 0.07571 0.45808 0.0
H500 H 0.55323 0.04793 0.45872 0.0
H501 H 0.41301 0.02977 0.54556 0.0
H502 H 0.4364 0.95152 0.57283 0.0
H503 H 0.45018 0.97929 0.57295 0.0
H504 H 0.59163 0.99767 0.4867 0.0
C505 C 0.54013 0.05429 0.48297 0.0
C506 C 0.45263 0.02289 0.53286 0.0
C507 C 0.54728 0.07019 0.4825 0.0
C508 C 0.45596 0.95713 0.54863 0.0
C509 C 0.4635 0.97303 0.5486 0.0
C510 C 0.55201 1.00455 0.49942 0.0
C511 C 0.5156 0.04673 0.51426 0.0
C512 C 0.50863 0.02981 0.51505 0.0
C513 C 0.48865 0.98071 0.51758 0.0
C514 C 0.49593 0.99762 0.51715 0.0
H515 H 0.4921 0.07769 0.56869 0.0
H516 H 0.48006 0.05 0.56964 0.0
H517 H 0.60256 0.02538 0.48494 0.0
H518 H 0.51226 0.94998 0.46245 0.0
H519 H 0.52484 0.97764 0.46223 0.0
C520 C 0.15838 0.31629 0.05962 0.0
C521 C 0.10777 0.31949 0.03634 0.0
C522 C 0.18999 0.30203 0.05878 0.0
C523 C 0.2315 0.27081 0.99629 0.0
H524 H 0.27741 0.24844 0.08064 0.0
C525 C 0.34791 0.21042 0.98748 0.0
C526 C 0.39301 0.20619 0.01298 0.0
C527 C 0.31451 0.22444 0.99021 0.0
C528 C 0.26603 0.25465 0.05677 0.0
H529 H 0.04838 0.3101 0.99508 0.0
H530 H 0.10355 0.2852 0.99359 0.0
H531 H 0.21292 0.272 0.08735 0.0
H532 H 0.44076 0.21351 0.06048 0.0
H533 H 0.38447 0.23822 0.06459 0.0
H534 H 0.28561 0.25375 0.96562 0.0
C535 C 0.11917 0.29375 0.0123 0.0
C536 C 0.22864 0.26811 0.06067 0.0
C537 C 0.08716 0.30794 0.01339 0.0
C538 C 0.40614 0.21648 0.04046 0.0
C539 C 0.37323 0.23057 0.04302 0.0
C540 C 0.26942 0.25745 0.99237 0.0
C541 C 0.17201 0.29076 0.03437 0.0
C542 C 0.21069 0.2763 0.03047 0.0
C543 C 0.3259 0.23462 0.01835 0.0
C544 C 0.28706 0.24913 0.02254 0.0
H545 H 0.17548 0.32501 0.07747 0.0
H546 H 0.23066 0.3001 0.07603 0.0
H547 H 0.21954 0.27702 0.9725 0.0
H548 H 0.33637 0.20265 0.96619 0.0
H549 H 0.27793 0.22701 0.97094 0.0
C550 C 0.62281 0.81169 0.98396 0.0
C551 C 0.61148 0.82006 0.01577 0.0
C552 C 0.65537 0.79759 0.98411 0.0
C553 C 0.7053 0.76613 0.04304 0.0
H554 H 0.84013 0.75856 0.96624 0.0
C555 C 0.88437 0.71469 0.04632 0.0
C556 C 0.89582 0.70643 0.01436 0.0
C557 C 0.8518 0.7288 0.04637 0.0
C558 C 0.80222 0.76041 0.98768 0.0
H559 H 0.62342 0.82005 0.07288 0.0
H560 H 0.68051 0.79538 0.07326 0.0
H561 H 0.776 0.78221 0.96693 0.0
H562 H 0.88395 0.70661 0.95724 0.0
H563 H 0.82684 0.73127 0.95723 0.0
H564 H 0.7315 0.74432 0.06378 0.0
C565 C 0.66383 0.79966 0.04818 0.0
C566 C 0.76531 0.77397 0.98807 0.0
C567 C 0.6312 0.8138 0.048 0.0
C568 C 0.87611 0.71278 0.98223 0.0
C569 C 0.84347 0.72692 0.98226 0.0
C570 C 0.7422 0.75256 0.04266 0.0
C571 C 0.67744 0.79151 0.0161 0.0
C572 C 0.7163 0.777 0.01572 0.0
C573 C 0.82985 0.73498 0.01446 0.0
C574 C 0.79117 0.74953 0.01498 0.0
H575 H 0.60803 0.81623 0.95871 0.0
H576 H 0.66382 0.7915 0.95905 0.0
H577 H 0.66739 0.76799 0.06448 0.0
H578 H 0.8991 0.71007 0.0715 0.0
H579 H 0.8433 0.73482 0.07153 0.0
C580 C 0.12234 0.71526 0.48034 0.0
C581 C 0.10855 0.70715 0.51228 0.0
C582 C 0.15496 0.72936 0.48065 0.0
C583 C 0.26799 0.75179 0.53468 0.0
H584 H 0.22187 0.78498 0.4723 0.0
C585 C 0.38047 0.81233 0.54445 0.0
C586 C 0.39442 0.8205 0.51262 0.0
C587 C 0.3482 0.79819 0.54391 0.0
C588 C 0.23603 0.77575 0.48952 0.0
H589 H 0.11599 0.70761 0.56975 0.0
H590 H 0.17222 0.7324 0.57047 0.0
H591 H 0.15627 0.76151 0.47338 0.0
H592 H 0.38763 0.82013 0.4551 0.0
H593 H 0.33191 0.79527 0.45399 0.0
H594 H 0.34771 0.76603 0.55084 0.0
C595 C 0.15873 0.72776 0.54507 0.0
C596 C 0.19823 0.7623 0.49023 0.0
C597 C 0.12596 0.71364 0.54473 0.0
C598 C 0.37752 0.81405 0.48004 0.0
C599 C 0.34506 0.79989 0.47948 0.0
C600 C 0.30577 0.76523 0.53397 0.0
C601 C 0.17463 0.73567 0.51294 0.0
C602 C 0.21369 0.75016 0.51284 0.0
C603 C 0.32902 0.79191 0.5115 0.0
C604 C 0.29025 0.77739 0.5114 0.0
H605 H 0.10978 0.71048 0.45489 0.0
H606 H 0.16693 0.73504 0.45539 0.0
H607 H 0.28213 0.74257 0.55191 0.0
H608 H 0.39266 0.81707 0.56999 0.0
H609 H 0.33611 0.79246 0.5691 0.0
C610 C 0.87799 0.31269 0.54299 0.0
C611 C 0.89123 0.32089 0.51114 0.0
C612 C 0.84529 0.2986 0.54264 0.0
C613 C 0.79859 0.26684 0.48368 0.0
H614 H 0.65981 0.25968 0.55867 0.0
C615 C 0.62094 0.21514 0.47942 0.0
C616 C 0.60785 0.20711 0.51154 0.0
C617 C 0.65316 0.2293 0.47935 0.0
C618 C 0.69882 0.26142 0.53774 0.0
H619 H 0.88248 0.32063 0.45376 0.0
H620 H 0.82513 0.29596 0.45302 0.0
H621 H 0.72368 0.28337 0.55823 0.0
H622 H 0.61644 0.20775 0.56891 0.0
H623 H 0.67298 0.2325 0.56891 0.0
H624 H 0.77381 0.24487 0.46322 0.0
C625 C 0.84044 0.30037 0.47831 0.0
C626 C 0.73556 0.275 0.5375 0.0
C627 C 0.87322 0.3145 0.47869 0.0
C628 C 0.62557 0.21374 0.54379 0.0
C629 C 0.65788 0.22793 0.54374 0.0
C630 C 0.76186 0.25324 0.48392 0.0
C631 C 0.82495 0.29238 0.5104 0.0
C632 C 0.78604 0.27788 0.51052 0.0
C633 C 0.67314 0.23576 0.51142 0.0
C634 C 0.71151 0.25035 0.51097 0.0
H635 H 0.89143 0.31734 0.56842 0.0
H636 H 0.83538 0.29264 0.56774 0.0
H637 H 0.83762 0.26858 0.46277 0.0
H638 H 0.60774 0.21031 0.45414 0.0
H639 H 0.66294 0.23513 0.45407 0.0
C640 C 0.10482 0.39195 0.13709 0.0
C641 C 0.07021 0.38361 0.11202 0.0
C642 C 0.09066 0.38986 0.17374 0.0
C643 C 0.00753 0.3925 0.24366 0.0
H644 H 0.9872 0.35395 0.29399 0.0
C645 C 0.89381 0.39048 0.38734 0.0
C646 C 0.93199 0.38286 0.41204 0.0
C647 C 0.90735 0.3885 0.35059 0.0
C648 C 0.99276 0.36478 0.28022 0.0
H649 H 0.99695 0.36576 0.10561 0.0
H650 H 0.97242 0.36199 0.17008 0.0
H651 H 0.02217 0.35417 0.22984 0.0
H652 H 0.01122 0.36635 0.4177 0.0
H653 H 0.03476 0.36281 0.35312 0.0
H654 H 0.97821 0.40318 0.29352 0.0
C655 C 0.01029 0.37021 0.16122 0.0
C656 C 0.01241 0.3649 0.24355 0.0
C657 C 0.02422 0.37239 0.12437 0.0
C658 C 0.98114 0.37242 0.39925 0.0
C659 C 0.9945 0.37036 0.36232 0.0
C660 C 0.98715 0.39238 0.27996 0.0
C661 C 0.04185 0.3793 0.18624 0.0
C662 C 0.02052 0.3788 0.22499 0.0
C663 C 0.95915 0.37878 0.33763 0.0
C664 C 0.97957 0.37854 0.29873 0.0
H665 H 0.14101 0.40058 0.12841 0.0
H666 H 0.11666 0.39683 0.19237 0.0
H667 H 0.01252 0.40339 0.23005 0.0
H668 H 0.85514 0.39848 0.39637 0.0
H669 H 0.87846 0.39493 0.33223 0.0
C670 C 0.03555 0.64022 0.13268 0.0
C671 C 0.97614 0.63817 0.11519 0.0
C672 C 0.0395 0.63574 0.16828 0.0
C673 C 0.93663 0.63502 0.24911 0.0
H674 H 0.08344 0.61364 0.28988 0.0
C675 C 0.96057 0.63687 0.40044 0.0
C676 C 0.02516 0.63834 0.4124 0.0
C677 C 0.95111 0.63239 0.3653 0.0
C678 C 0.04235 0.61978 0.27907 0.0
H679 H 0.87509 0.62931 0.12041 0.0
H680 H 0.8811 0.62197 0.18355 0.0
H681 H 0.07449 0.6138 0.22504 0.0
H682 H 0.1307 0.63581 0.39797 0.0
H683 H 0.11508 0.62892 0.33583 0.0
H684 H 0.90702 0.64218 0.30201 0.0
C685 C 0.92489 0.6268 0.16937 0.0
C686 C 0.03696 0.61971 0.24191 0.0
C687 C 0.9215 0.63095 0.13335 0.0
C688 C 0.08034 0.6346 0.38926 0.0
C689 C 0.07109 0.63059 0.35363 0.0
C690 C 0.94278 0.6354 0.28606 0.0
C691 C 0.98357 0.62944 0.18731 0.0
C692 C 0.98451 0.6275 0.22661 0.0
C693 C 0.00626 0.62987 0.3408 0.0
C694 C 0.99631 0.62798 0.30168 0.0
H695 H 0.0784 0.64573 0.11912 0.0
H696 H 0.08506 0.63803 0.18154 0.0
H697 H 0.89639 0.64135 0.23794 0.0
H698 H 0.91726 0.63959 0.41808 0.0
H699 H 0.90036 0.63142 0.35713 0.0
C700 C 0.00249 0.6524 0.8998 0.0
C701 C 0.94044 0.64677 0.91338 0.0
C702 C 0.01416 0.65506 0.8631 0.0
C703 C 0.94549 0.6439 0.7762 0.0
H704 H 0.08261 0.67155 0.73728 0.0
C705 C 1.00107 0.65478 0.62469 0.0
C706 C 0.06113 0.64749 0.6132 0.0
C707 C 0.98593 0.65746 0.66112 0.0
C708 C 0.04397 0.66387 0.74793 0.0
H709 H 0.8404 0.6406 0.90006 0.0
H710 H 0.85875 0.64624 0.83648 0.0
H711 H 0.05219 0.67173 0.80158 0.0
H712 H 0.15425 0.63823 0.63027 0.0
H713 H 0.12854 0.64345 0.6941 0.0
H714 H 0.93648 0.63641 0.72215 0.0
C715 C 0.89991 0.64786 0.85355 0.0
C716 C 0.0268 0.66383 0.78479 0.0
C717 C 0.88891 0.6448 0.89009 0.0
C718 C 0.10763 0.64385 0.63849 0.0
C719 C 0.09308 0.64685 0.67486 0.0
C720 C 0.96156 0.64422 0.73938 0.0
C721 C 0.96345 0.65251 0.83924 0.0
C722 C 0.978 0.65365 0.7996 0.0
C723 C 0.03135 0.65328 0.68647 0.0
C724 C 0.01149 0.65403 0.72506 0.0
H725 H 0.04327 0.65392 0.91721 0.0
H726 H 0.06401 0.65843 0.85343 0.0
H727 H 0.90901 0.6356 0.78624 0.0
H728 H 0.96421 0.65766 0.60578 0.0
H729 H 0.93794 0.66238 0.66964 0.0
C730 C 0.92615 0.39561 0.63365 0.0
C731 C 0.97778 0.38763 0.61472 0.0
C732 C 0.93212 0.39949 0.66974 0.0
C733 C 0.94116 0.39201 0.74959 0.0
H734 H 0.10743 0.40473 0.78877 0.0
C735 C 0.02822 0.37021 0.88219 0.0
C736 C 0.05092 0.38058 0.90739 0.0
C737 C 0.01384 0.37505 0.84807 0.0
C738 C 0.06027 0.40145 0.77828 0.0
H739 H 0.07762 0.3784 0.61751 0.0
H740 H 0.08858 0.38538 0.67989 0.0
H741 H 0.09385 0.40699 0.7243 0.0
H742 H 0.07711 0.40418 0.91659 0.0
H743 H 0.05398 0.41267 0.85562 0.0
H744 H 0.90924 0.38555 0.80315 0.0
C745 C 0.0434 0.38859 0.66728 0.0
C746 C 0.05262 0.40264 0.7414 0.0
C747 C 0.03692 0.38448 0.63161 0.0
C748 C 0.05957 0.39598 0.89763 0.0
C749 C 0.04638 0.40081 0.8629 0.0
C750 C 0.94917 0.39063 0.78629 0.0
C751 C 0.9904 0.39573 0.68711 0.0
C752 C 0.99374 0.39748 0.72652 0.0
C753 C 0.02278 0.39036 0.83796 0.0
C754 C 0.00957 0.39487 0.80083 0.0
H755 H 0.88001 0.39815 0.62119 0.0
H756 H 0.89053 0.40503 0.68435 0.0
H757 H 0.89546 0.38781 0.73899 0.0
H758 H 0.02102 0.35827 0.88888 0.0
H759 H 0.99676 0.36671 0.82927 0.0
C760 C 0.60666 0.88941 0.14014 0.0
C761 C 0.57016 0.88167 0.11486 0.0
C762 C 0.59217 0.88719 0.1767 0.0
C763 C 0.50698 0.89048 0.24583 0.0
H764 H 0.48309 0.85206 0.29645 0.0
C765 C 0.39233 0.88925 0.389 0.0
C766 C 0.43113 0.88188 0.4138 0.0
C767 C 0.40508 0.88691 0.35233 0.0
C768 C 0.48957 0.86285 0.28256 0.0
H769 H 0.49336 0.86466 0.1079 0.0
H770 H 0.46834 0.86067 0.17224 0.0
H771 H 0.51896 0.85207 0.23237 0.0
H772 H 0.51025 0.86538 0.41989 0.0
H773 H 0.53245 0.86123 0.35545 0.0
H774 H 0.4776 0.90132 0.29545 0.0
C775 C 0.50786 0.86852 0.1636 0.0
C776 C 0.50979 0.86285 0.24598 0.0
C777 C 0.52206 0.87083 0.12684 0.0
C778 C 0.47978 0.87127 0.40132 0.0
C779 C 0.49236 0.86886 0.36449 0.0
C780 C 0.48596 0.89047 0.28201 0.0
C781 C 0.54124 0.87709 0.18882 0.0
C782 C 0.51927 0.8767 0.2274 0.0
C783 C 0.45666 0.87708 0.33964 0.0
C784 C 0.47713 0.87669 0.30084 0.0
H785 H 0.64448 0.89771 0.13172 0.0
H786 H 0.61939 0.89377 0.19558 0.0
H787 H 0.51308 0.90132 0.23212 0.0
H788 H 0.35399 0.89736 0.39784 0.0
H789 H 0.37603 0.8932 0.33379 0.0
C790 C 0.53171 0.14056 0.13399 0.0
C791 C 0.47246 0.13849 0.11639 0.0
C792 C 0.5357 0.13593 0.16947 0.0
C793 C 0.43309 0.13472 0.25025 0.0
H794 H 0.58074 0.11338 0.2903 0.0
C795 C 0.45914 0.1365 0.40138 0.0
C796 C 0.52394 0.13806 0.41301 0.0
C797 C 0.44918 0.13197 0.36633 0.0
C798 C 0.53941 0.1195 0.27969 0.0
H799 H 0.3717 0.12945 0.12126 0.0
H800 H 0.37772 0.12185 0.18427 0.0
H801 H 0.5712 0.1137 0.22552 0.0
H802 H 0.62933 0.13565 0.3981 0.0
H803 H 0.61282 0.12868 0.3361 0.0
H804 H 0.40383 0.14173 0.30331 0.0
C805 C 0.42139 0.12681 0.17024 0.0
C806 C 0.53367 0.11951 0.24257 0.0
C807 C 0.41798 0.13111 0.13432 0.0
C808 C 0.57884 0.13436 0.38965 0.0
C809 C 0.56906 0.1303 0.3541 0.0
C810 C 0.43957 0.13501 0.28718 0.0
C811 C 0.47995 0.12945 0.18828 0.0
C812 C 0.48097 0.12732 0.22752 0.0
C813 C 0.504 0.12951 0.34159 0.0
C814 C 0.49347 0.12763 0.30253 0.0
H815 H 0.57444 0.14619 0.12061 0.0
H816 H 0.58116 0.13823 0.18283 0.0
H817 H 0.39264 0.14105 0.23927 0.0
H818 H 0.41605 0.13919 0.41921 0.0
H819 H 0.39829 0.13094 0.35841 0.0
C820 C 0.38922 0.14466 0.8909 0.0
C821 C 0.44098 0.14641 0.91413 0.0
C822 C 0.40036 0.14767 0.85434 0.0
C823 C 0.52845 0.16316 0.78552 0.0
H824 H 0.43451 0.13654 0.72265 0.0
C825 C 0.60785 0.14395 0.63878 0.0
C826 C 0.56081 0.14738 0.61362 0.0
C827 C 0.59334 0.14688 0.6752 0.0
C828 C 0.46061 0.14414 0.73994 0.0
H829 H 0.54448 0.15306 0.91782 0.0
H830 H 0.56541 0.15745 0.85402 0.0
H831 H 0.40752 0.13564 0.78677 0.0
H832 H 0.46283 0.15705 0.60649 0.0
H833 H 0.43665 0.16163 0.6704 0.0
H834 H 0.58474 0.17073 0.73804 0.0
C835 C 0.51529 0.15432 0.86373 0.0
C836 C 0.44484 0.14376 0.77679 0.0
C837 C 0.50351 0.15172 0.90045 0.0
C838 C 0.50013 0.15435 0.62529 0.0
C839 C 0.48503 0.15694 0.66177 0.0
C840 C 0.54533 0.16323 0.74864 0.0
C841 C 0.46424 0.15204 0.83993 0.0
C842 C 0.47864 0.15322 0.80029 0.0
C843 C 0.53107 0.15299 0.687 0.0
C844 C 0.51155 0.1537 0.72566 0.0
H845 H 0.34036 0.1407 0.90095 0.0
H846 H 0.35896 0.14625 0.83734 0.0
H847 H 0.55484 0.17086 0.80236 0.0
H848 H 0.65494 0.13857 0.63042 0.0
H849 H 0.62932 0.14366 0.69431 0.0
C850 C 0.54591 0.88888 0.6269 0.0
C851 C 0.48133 0.888 0.61466 0.0
C852 C 0.55553 0.89301 0.66226 0.0
C853 C 0.46491 0.90577 0.74857 0.0
H854 H 0.60871 0.88339 0.78959 0.0
C855 C 0.47131 0.88507 0.89506 0.0
C856 C 0.53063 0.8873 0.91252 0.0
C857 C 0.46725 0.88941 0.85936 0.0
C858 C 0.56906 0.88993 0.77843 0.0
H859 H 0.37605 0.89117 0.62888 0.0
H860 H 0.39181 0.89741 0.69136 0.0
H861 H 0.5981 0.88273 0.72549 0.0
H862 H 0.63142 0.89632 0.90712 0.0
H863 H 0.62525 0.90337 0.84382 0.0
H864 H 0.43324 0.91178 0.80265 0.0
C865 C 0.43576 0.89556 0.67364 0.0
C866 C 0.56295 0.88965 0.74148 0.0
C867 C 0.42641 0.89192 0.63781 0.0
C868 C 0.58509 0.89453 0.89419 0.0
C869 C 0.58161 0.89852 0.85809 0.0
C870 C 0.47019 0.90572 0.78573 0.0
C871 C 0.50047 0.89574 0.68669 0.0
C872 C 0.51025 0.8974 0.72589 0.0
C873 C 0.52299 0.89574 0.84024 0.0
C874 C 0.52191 0.89765 0.80096 0.0
H875 H 0.58905 0.88604 0.60925 0.0
H876 H 0.60628 0.89358 0.67059 0.0
H877 H 0.42451 0.91216 0.7378 0.0
H878 H 0.42859 0.87956 0.90875 0.0
H879 H 0.42174 0.88702 0.84613 0.0
loop_
_geom_bond_atom_site_label_1
_geom_bond_atom_site_label_2
_geom_bond_distance
_geom_bond_site_symmetry_2
_ccdc_geom_bond_type
Dy0 O4 2.398 . S
Dy0 O5 2.488 1_454 S
Dy0 O6 2.403 . S
Dy0 O7 2.664 . S
Dy0 O11 2.326 1_455 S
Dy0 O15 2.310 1_554 S
Dy0 O16 2.351 . S
C1 O12 1.185 1_554 S
C1 O13 1.355 . S
C2 O4 1.185 1_655 S
C2 O5 1.356 1_554 S
Dy3 O7 2.310 1_556 S
Dy3 O10 2.351 1_456 S
Dy3 O12 2.398 . S
Dy3 O13 2.491 1_556 S
Dy3 O14 2.403 . S
Dy3 O15 2.664 . S
Dy3 O17 2.326 . S
O4 Dy0 2.398 . S
O4 C2 1.185 1_455 S
O5 Dy0 2.488 1_656 S
O5 C2 1.356 1_556 S
O6 Dy0 2.403 . S
O6 C8 1.254 . S
O7 Dy0 2.664 . S
O7 Dy3 2.310 1_554 S
O7 C8 1.268 . S
C8 O6 1.254 . S
C8 O7 1.268 . S
C9 O14 1.254 . S
C9 O15 1.268 . S
O10 Dy3 2.351 1_654 S
O10 C18 1.249 . S
O11 Dy0 2.326 1_655 S
O11 C18 1.267 . S
O12 C1 1.185 1_556 S
O12 Dy3 2.398 . S
O13 C1 1.355 . S
O13 Dy3 2.491 1_554 S
O14 Dy3 2.403 . S
O14 C9 1.254 . S
O15 Dy0 2.310 1_556 S
O15 Dy3 2.664 . S
O15 C9 1.268 . S
O16 Dy0 2.351 . S
O16 C19 1.249 1_554 S
O17 Dy3 2.326 . S
O17 C19 1.267 . S
C18 O10 1.249 . S
C18 O11 1.267 . S
C19 O16 1.249 1_556 S
C19 O17 1.267 . S
Dy20 O24 2.398 . S
Dy20 O25 2.491 1_554 S
Dy20 O26 2.403 . S
Dy20 O27 2.664 . S
Dy20 O31 2.326 . S
Dy20 O35 2.310 1_554 S
Dy20 O36 2.351 1_655 S
C21 O32 1.185 1_454 S
C21 O33 1.356 . S
C22 O24 1.185 . S
C22 O25 1.355 1_554 S
Dy23 O27 2.313 . S
Dy23 O30 2.351 . S
Dy23 O32 2.397 1_554 S
Dy23 O33 2.491 1_655 S
Dy23 O34 2.398 1_554 S
Dy23 O35 2.662 1_554 S
Dy23 O37 2.326 1_654 S
O24 Dy20 2.398 . S
O24 C22 1.185 . S
O25 Dy20 2.491 1_556 S
O25 C22 1.355 1_556 S
O26 Dy20 2.403 . S
O26 C28 1.254 . S
O27 Dy20 2.664 . S
O27 Dy23 2.313 . S
O27 C28 1.268 . S
C28 O26 1.254 . S
C28 O27 1.268 . S
C29 O34 1.254 . S
C29 O35 1.268 . S
O30 Dy23 2.351 . S
O30 C38 1.249 . S
O31 Dy20 2.326 . S
O31 C38 1.267 . S
O32 C21 1.185 1_656 S
O32 Dy23 2.397 1_556 S
O33 C21 1.356 . S
O33 Dy23 2.491 1_455 S
O34 Dy23 2.398 1_556 S
O34 C29 1.254 . S
O35 Dy20 2.310 1_556 S
O35 Dy23 2.662 1_556 S
O35 C29 1.268 . S
O36 Dy20 2.351 1_455 S
O36 C39 1.249 . S
O37 Dy23 2.326 1_456 S
O37 C39 1.268 1_556 S
C38 O30 1.249 . S
C38 O31 1.267 . S
C39 O36 1.249 . S
C39 O37 1.268 1_554 S
Dy40 O44 2.398 . S
Dy40 O45 2.491 . S
Dy40 O46 2.403 . S
Dy40 O47 2.664 . S
Dy40 O51 2.326 . S
Dy40 O55 2.310 . S
Dy40 O56 2.351 1_455 S
C41 O52 1.185 1_655 S
C41 O53 1.356 . S
C42 O44 1.185 . S
C42 O45 1.355 . S
Dy43 O47 2.310 . S
Dy43 O50 2.351 . S
Dy43 O52 2.398 . S
Dy43 O53 2.488 1_455 S
Dy43 O54 2.403 . S
Dy43 O55 2.664 . S
Dy43 O57 2.326 1_455 S
O44 Dy40 2.398 . S
O44 C42 1.185 . S
O45 Dy40 2.491 . S
O45 C42 1.355 . S
O46 Dy40 2.403 . S
O46 C48 1.254 . S
O47 Dy40 2.664 . S
O47 Dy43 2.310 . S
O47 C48 1.268 . S
C48 O46 1.254 . S
C48 O47 1.268 . S
C49 O54 1.254 . S
C49 O55 1.268 . S
O50 Dy43 2.351 . S
O50 C58 1.249 . S
O51 Dy40 2.326 . S
O51 C58 1.267 . S
O52 C41 1.185 1_455 S
O52 Dy43 2.398 . S
O53 C41 1.356 . S
O53 Dy43 2.488 1_655 S
O54 Dy43 2.403 . S
O54 C49 1.254 . S
O55 Dy40 2.310 . S
O55 Dy43 2.664 . S
O55 C49 1.268 . S
O56 Dy40 2.351 1_655 S
O56 C59 1.249 . S
O57 Dy43 2.326 1_655 S
O57 C59 1.267 . S
C58 O50 1.249 . S
C58 O51 1.267 . S
C59 O56 1.249 . S
C59 O57 1.267 . S
Dy60 O64 2.398 . S
Dy60 O65 2.488 1_655 S
Dy60 O66 2.403 . S
Dy60 O67 2.664 . S
Dy60 O71 2.326 1_655 S
Dy60 O75 2.310 . S
Dy60 O76 2.351 . S
C61 O72 1.185 . S
C61 O73 1.355 . S
C62 O64 1.185 1_455 S
C62 O65 1.356 . S
Dy63 O67 2.310 . S
Dy63 O70 2.351 1_655 S
Dy63 O72 2.398 . S
Dy63 O73 2.491 . S
Dy63 O74 2.403 . S
Dy63 O75 2.664 . S
Dy63 O77 2.326 . S
O64 Dy60 2.398 . S
O64 C62 1.185 1_655 S
O65 Dy60 2.488 1_455 S
O65 C62 1.356 . S
O66 Dy60 2.403 . S
O66 C68 1.254 . S
O67 Dy60 2.664 . S
O67 Dy63 2.310 . S
O67 C68 1.268 . S
C68 O66 1.254 . S
C68 O67 1.268 . S
C69 O74 1.254 . S
C69 O75 1.268 . S
O70 Dy63 2.351 1_455 S
O70 C78 1.249 . S
O71 Dy60 2.326 1_455 S
O71 C78 1.267 . S
O72 C61 1.185 . S
O72 Dy63 2.398 . S
O73 C61 1.355 . S
O73 Dy63 2.491 . S
O74 Dy63 2.403 . S
O74 C69 1.254 . S
O75 Dy60 2.310 . S
O75 Dy63 2.664 . S
O75 C69 1.268 . S
O76 Dy60 2.351 . S
O76 C79 1.249 . S
O77 Dy63 2.326 . S
O77 C79 1.267 . S
C78 O70 1.249 . S
C78 O71 1.267 . S
C79 O76 1.249 . S
C79 O77 1.267 . S
Dy80 O84 2.398 . S
Dy80 O85 2.491 1_554 S
Dy80 O86 2.403 . S
Dy80 O87 2.664 . S
Dy80 O91 2.326 . S
Dy80 O95 2.310 1_554 S
Dy80 O96 2.351 . S
C81 O92 1.185 1_554 S
C81 O93 1.355 . S
C82 O84 1.185 . S
C82 O85 1.355 1_554 S
Dy83 O87 2.310 1_556 S
Dy83 O90 2.351 1_556 S
Dy83 O92 2.398 . S
Dy83 O93 2.491 1_556 S
Dy83 O94 2.403 . S
Dy83 O95 2.664 . S
Dy83 O97 2.326 . S
O84 Dy80 2.398 . S
O84 C82 1.185 . S
O85 Dy80 2.491 1_556 S
O85 C82 1.355 1_556 S
O86 Dy80 2.403 . S
O86 C88 1.254 . S
O87 Dy80 2.664 . S
O87 Dy83 2.310 1_554 S
O87 C88 1.268 . S
C88 O86 1.254 . S
C88 O87 1.268 . S
C89 O94 1.254 . S
C89 O95 1.268 . S
O90 Dy83 2.351 1_554 S
O90 C98 1.249 . S
O91 Dy80 2.326 . S
O91 C98 1.267 . S
O92 C81 1.185 1_556 S
O92 Dy83 2.398 . S
O93 C81 1.355 . S
O93 Dy83 2.491 1_554 S
O94 Dy83 2.403 . S
O94 C89 1.254 . S
O95 Dy80 2.310 1_556 S
O95 Dy83 2.664 . S
O95 C89 1.268 . S
O96 Dy80 2.351 . S
O96 C99 1.249 1_554 S
O97 Dy83 2.326 . S
O97 C99 1.267 . S
C98 O90 1.249 . S
C98 O91 1.267 . S
C99 O96 1.249 1_556 S
C99 O97 1.267 . S
Dy100 O104 2.398 . S
Dy100 O105 2.491 1_554 S
Dy100 O106 2.403 . S
Dy100 O107 2.664 . S
Dy100 O111 2.326 . S
Dy100 O115 2.310 1_554 S
Dy100 O116 2.351 . S
C101 O112 1.185 1_554 S
C101 O113 1.355 . S
C102 O104 1.185 . S
C102 O105 1.355 1_554 S
Dy103 O107 2.313 . S
Dy103 O110 2.351 . S
Dy103 O112 2.397 1_554 S
Dy103 O113 2.494 . S
Dy103 O114 2.398 1_554 S
Dy103 O115 2.662 1_554 S
Dy103 O117 2.326 1_554 S
O104 Dy100 2.398 . S
O104 C102 1.185 . S
O105 Dy100 2.491 1_556 S
O105 C102 1.355 1_556 S
O106 Dy100 2.403 . S
O106 C108 1.254 . S
O107 Dy100 2.664 . S
O107 Dy103 2.313 . S
O107 C108 1.268 . S
C108 O106 1.254 . S
C108 O107 1.268 . S
C109 O114 1.254 . S
C109 O115 1.268 . S
O110 Dy103 2.351 . S
O110 C118 1.249 . S
O111 Dy100 2.326 . S
O111 C118 1.267 . S
O112 C101 1.185 1_556 S
O112 Dy103 2.397 1_556 S
O113 C101 1.355 . S
O113 Dy103 2.494 . S
O114 Dy103 2.398 1_556 S
O114 C109 1.254 . S
O115 Dy100 2.310 1_556 S
O115 Dy103 2.662 1_556 S
O115 C109 1.268 . S
O116 Dy100 2.351 . S
O116 C119 1.249 . S
O117 Dy103 2.326 1_556 S
O117 C119 1.268 1_556 S
C118 O110 1.249 . S
C118 O111 1.267 . S
C119 O116 1.249 . S
C119 O117 1.268 1_554 S
Dy120 O124 2.398 . S
Dy120 O125 2.491 . S
Dy120 O126 2.403 . S
Dy120 O127 2.664 . S
Dy120 O131 2.326 . S
Dy120 O135 2.310 . S
Dy120 O136 2.351 . S
C121 O132 1.185 . S
C121 O133 1.355 . S
C122 O124 1.185 . S
C122 O125 1.355 . S
Dy123 O127 2.310 . S
Dy123 O130 2.351 . S
Dy123 O132 2.398 . S
Dy123 O133 2.491 . S
Dy123 O134 2.403 . S
Dy123 O135 2.664 . S
Dy123 O137 2.326 . S
O124 Dy120 2.398 . S
O124 C122 1.185 . S
O125 Dy120 2.491 . S
O125 C122 1.355 . S
O126 Dy120 2.403 . S
O126 C128 1.254 . S
O127 Dy120 2.664 . S
O127 Dy123 2.310 . S
O127 C128 1.268 . S
C128 O126 1.254 . S
C128 O127 1.268 . S
C129 O134 1.254 . S
C129 O135 1.268 . S
O130 Dy123 2.351 . S
O130 C138 1.249 . S
O131 Dy120 2.326 . S
O131 C138 1.267 . S
O132 C121 1.185 . S
O132 Dy123 2.398 . S
O133 C121 1.355 . S
O133 Dy123 2.491 . S
O134 Dy123 2.403 . S
O134 C129 1.254 . S
O135 Dy120 2.310 . S
O135 Dy123 2.664 . S
O135 C129 1.268 . S
O136 Dy120 2.351 . S
O136 C139 1.249 . S
O137 Dy123 2.326 . S
O137 C139 1.267 . S
C138 O130 1.249 . S
C138 O131 1.267 . S
C139 O136 1.249 . S
C139 O137 1.267 . S
Dy140 O144 2.398 . S
Dy140 O145 2.491 . S
Dy140 O146 2.403 . S
Dy140 O147 2.664 . S
Dy140 O151 2.326 . S
Dy140 O155 2.310 . S
Dy140 O156 2.351 . S
C141 O152 1.185 . S
C141 O153 1.355 . S
C142 O144 1.185 . S
C142 O145 1.355 . S
Dy143 O147 2.310 . S
Dy143 O150 2.351 . S
Dy143 O152 2.398 . S
Dy143 O153 2.491 . S
Dy143 O154 2.403 . S
Dy143 O155 2.664 . S
Dy143 O157 2.326 . S
O144 Dy140 2.398 . S
O144 C142 1.185 . S
O145 Dy140 2.491 . S
O145 C142 1.355 . S
O146 Dy140 2.403 . S
O146 C148 1.254 . S
O147 Dy140 2.664 . S
O147 Dy143 2.310 . S
O147 C148 1.268 . S
C148 O146 1.254 . S
C148 O147 1.268 . S
C149 O154 1.254 . S
C149 O155 1.268 . S
O150 Dy143 2.351 . S
O150 C158 1.249 . S
O151 Dy140 2.326 . S
O151 C158 1.267 . S
O152 C141 1.185 . S
O152 Dy143 2.398 . S
O153 C141 1.355 . S
O153 Dy143 2.491 . S
O154 Dy143 2.403 . S
O154 C149 1.254 . S
O155 Dy140 2.310 . S
O155 Dy143 2.664 . S
O155 C149 1.268 . S
O156 Dy140 2.351 . S
O156 C159 1.249 . S
O157 Dy143 2.326 . S
O157 C159 1.267 . S
C158 O150 1.249 . S
C158 O151 1.267 . S
C159 O156 1.249 . S
C159 O157 1.267 . S
C160 C161 1.349 1_556 S
C160 C162 1.327 . S
C160 H185 0.950 . S
C161 C160 1.349 1_554 S
C161 C177 1.349 . S
C162 C160 1.327 . S
C162 C181 1.429 1_556 S
C162 H186 0.950 . S
C163 C180 1.574 . S
C163 C182 1.368 . S
C163 H187 0.949 . S
H164 C168 0.949 . S
C165 C166 1.349 . S
C165 C167 1.327 . S
C165 H188 0.950 . S
C166 C165 1.349 . S
C166 C178 1.349 1_554 S
C167 C165 1.327 . S
C167 C183 1.429 . S
C167 H189 0.950 . S
C168 H164 0.949 . S
C168 C176 1.574 . S
C168 C184 1.368 1_556 S
H169 C177 0.950 . S
H170 C175 0.950 . S
H171 C176 0.949 . S
H172 C178 0.950 . S
H173 C179 0.950 . S
H174 C180 0.949 . S
C175 H170 0.950 . S
C175 C177 1.327 . S
C175 C181 1.429 . S
C176 C168 1.574 . S
C176 H171 0.949 . S
C176 C182 1.368 1_556 S
C177 C161 1.349 . S
C177 H169 0.950 . S
C177 C175 1.327 . S
C178 C166 1.349 1_556 S
C178 H172 0.950 . S
C178 C179 1.327 . S
C179 H173 0.950 . S
C179 C178 1.327 . S
C179 C183 1.429 1_556 S
C180 C163 1.574 . S
C180 H174 0.949 . S
C180 C184 1.368 . S
C181 C162 1.429 1_554 S
C181 C175 1.429 . S
C181 C182 1.523 . S
C182 C163 1.368 . S
C182 C176 1.368 1_554 S
C182 C181 1.523 . S
C183 C167 1.429 . S
C183 C179 1.429 1_554 S
C183 C184 1.523 . S
C184 C168 1.368 1_554 S
C184 C180 1.368 . S
C184 C183 1.523 . S
H185 C160 0.950 . S
H186 C162 0.950 . S
H187 C163 0.949 . S
H188 C165 0.950 . S
H189 C167 0.950 . S
C190 C191 1.349 1_556 S
C190 C192 1.327 . S
C190 H215 0.950 . S
C191 C190 1.349 1_554 S
C191 C207 1.349 . S
C192 C190 1.327 . S
C192 C211 1.429 1_556 S
C192 H216 0.950 . S
C193 C210 1.574 . S
C193 C212 1.368 . S
C193 H217 0.949 . S
H194 C198 0.949 . S
C195 C196 1.349 . S
C195 C197 1.327 . S
C195 H218 0.950 . S
C196 C195 1.349 . S
C196 C208 1.349 1_554 S
C197 C195 1.327 . S
C197 C213 1.429 . S
C197 H219 0.950 . S
C198 H194 0.949 . S
C198 C206 1.574 . S
C198 C214 1.368 1_556 S
H199 C207 0.950 . S
H200 C205 0.950 . S
H201 C206 0.949 . S
H202 C208 0.950 . S
H203 C209 0.950 . S
H204 C210 0.949 . S
C205 H200 0.950 . S
C205 C207 1.327 . S
C205 C211 1.429 . S
C206 C198 1.574 . S
C206 H201 0.949 . S
C206 C212 1.368 1_556 S
C207 C191 1.349 . S
C207 H199 0.950 . S
C207 C205 1.327 . S
C208 C196 1.349 1_556 S
C208 H202 0.950 . S
C208 C209 1.327 . S
C209 H203 0.950 . S
C209 C208 1.327 . S
C209 C213 1.429 1_556 S
C210 C193 1.574 . S
C210 H204 0.949 . S
C210 C214 1.368 . S
C211 C192 1.429 1_554 S
C211 C205 1.429 . S
C211 C212 1.523 . S
C212 C193 1.368 . S
C212 C206 1.368 1_554 S
C212 C211 1.523 . S
C213 C197 1.429 . S
C213 C209 1.429 1_554 S
C213 C214 1.523 . S
C214 C198 1.368 1_554 S
C214 C210 1.368 . S
C214 C213 1.523 . S
H215 C190 0.950 . S
H216 C192 0.950 . S
H217 C193 0.949 . S
H218 C195 0.950 . S
H219 C197 0.950 . S
C220 C221 1.349 . S
C220 C222 1.327 . S
C220 H245 0.950 . S
C221 C220 1.349 . S
C221 C237 1.349 . S
C222 C220 1.327 . S
C222 C241 1.429 . S
C222 H246 0.950 . S
C223 C240 1.574 . S
C223 C242 1.368 . S
C223 H247 0.949 . S
H224 C228 0.949 . S
C225 C226 1.349 . S
C225 C227 1.327 . S
C225 H248 0.950 . S
C226 C225 1.349 . S
C226 C238 1.349 . S
C227 C225 1.327 . S
C227 C243 1.429 . S
C227 H249 0.950 . S
C228 H224 0.949 . S
C228 C236 1.574 . S
C228 C244 1.368 . S
H229 C237 0.950 . S
H230 C235 0.950 . S
H231 C236 0.949 . S
H232 C238 0.950 . S
H233 C239 0.950 . S
H234 C240 0.949 . S
C235 H230 0.950 . S
C235 C237 1.327 . S
C235 C241 1.429 . S
C236 C228 1.574 . S
C236 H231 0.949 . S
C236 C242 1.368 . S
C237 C221 1.349 . S
C237 H229 0.950 . S
C237 C235 1.327 . S
C238 C226 1.349 . S
C238 H232 0.950 . S
C238 C239 1.327 . S
C239 H233 0.950 . S
C239 C238 1.327 . S
C239 C243 1.429 . S
C240 C223 1.574 . S
C240 H234 0.949 . S
C240 C244 1.368 . S
C241 C222 1.429 . S
C241 C235 1.429 . S
C241 C242 1.523 . S
C242 C223 1.368 . S
C242 C236 1.368 . S
C242 C241 1.523 . S
C243 C227 1.429 . S
C243 C239 1.429 . S
C243 C244 1.523 . S
C244 C228 1.368 . S
C244 C240 1.368 . S
C244 C243 1.523 . S
H245 C220 0.950 . S
H246 C222 0.950 . S
H247 C223 0.949 . S
H248 C225 0.950 . S
H249 C227 0.950 . S
C250 C251 1.349 . S
C250 C252 1.327 . S
C250 H275 0.950 . S
C251 C250 1.349 . S
C251 C267 1.349 . S
C252 C250 1.327 . S
C252 C271 1.429 . S
C252 H276 0.950 . S
C253 C270 1.574 . S
C253 C272 1.368 . S
C253 H277 0.949 . S
H254 C258 0.949 . S
C255 C256 1.349 . S
C255 C257 1.327 . S
C255 H278 0.950 . S
C256 C255 1.349 . S
C256 C268 1.349 . S
C257 C255 1.327 . S
C257 C273 1.429 . S
C257 H279 0.950 . S
C258 H254 0.949 . S
C258 C266 1.574 . S
C258 C274 1.368 . S
H259 C267 0.950 . S
H260 C265 0.950 . S
H261 C266 0.949 . S
H262 C268 0.950 . S
H263 C269 0.950 . S
H264 C270 0.949 . S
C265 H260 0.950 . S
C265 C267 1.327 . S
C265 C271 1.429 . S
C266 C258 1.574 . S
C266 H261 0.949 . S
C266 C272 1.368 . S
C267 C251 1.349 . S
C267 H259 0.950 . S
C267 C265 1.327 . S
C268 C256 1.349 . S
C268 H262 0.950 . S
C268 C269 1.327 . S
C269 H263 0.950 . S
C269 C268 1.327 . S
C269 C273 1.429 . S
C270 C253 1.574 . S
C270 H264 0.949 . S
C270 C274 1.368 . S
C271 C252 1.429 . S
C271 C265 1.429 . S
C271 C272 1.523 . S
C272 C253 1.368 . S
C272 C266 1.368 . S
C272 C271 1.523 . S
C273 C257 1.429 . S
C273 C269 1.429 . S
C273 C274 1.523 . S
C274 C258 1.368 . S
C274 C270 1.368 . S
C274 C273 1.523 . S
H275 C250 0.950 . S
H276 C252 0.950 . S
H277 C253 0.949 . S
H278 C255 0.950 . S
H279 C257 0.950 . S
C280 C281 1.349 1_556 S
C280 C282 1.327 . S
C280 H305 0.950 . S
C281 C280 1.349 1_554 S
C281 C297 1.349 . S
C282 C280 1.327 . S
C282 C301 1.429 1_556 S
C282 H306 0.950 . S
C283 C300 1.574 . S
C283 C302 1.368 1_455 S
C283 H307 0.949 . S
H284 C288 0.949 . S
C285 C286 1.349 . S
C285 C287 1.327 . S
C285 H308 0.950 . S
C286 C285 1.349 . S
C286 C298 1.349 1_554 S
C287 C285 1.327 . S
C287 C303 1.429 . S
C287 H309 0.950 . S
C288 H284 0.949 . S
C288 C296 1.574 . S
C288 C304 1.368 1_556 S
H289 C297 0.950 . S
H290 C295 0.950 . S
H291 C296 0.949 1_655 S
H292 C298 0.950 . S
H293 C299 0.950 . S
H294 C300 0.949 . S
C295 H290 0.950 . S
C295 C297 1.327 . S
C295 C301 1.429 . S
C296 C288 1.574 . S
C296 H291 0.949 1_455 S
C296 C302 1.368 1_456 S
C297 C281 1.349 . S
C297 H289 0.950 . S
C297 C295 1.327 . S
C298 C286 1.349 1_556 S
C298 H292 0.950 . S
C298 C299 1.327 . S
C299 H293 0.950 . S
C299 C298 1.327 . S
C299 C303 1.429 1_556 S
C300 C283 1.574 . S
C300 H294 0.949 . S
C300 C304 1.368 . S
C301 C282 1.429 1_554 S
C301 C295 1.429 . S
C301 C302 1.523 . S
C302 C283 1.368 1_655 S
C302 C296 1.368 1_654 S
C302 C301 1.523 . S
C303 C287 1.429 . S
C303 C299 1.429 1_554 S
C303 C304 1.523 . S
C304 C288 1.368 1_554 S
C304 C300 1.368 . S
C304 C303 1.523 . S
H305 C280 0.950 . S
H306 C282 0.950 . S
H307 C283 0.949 . S
H308 C285 0.950 . S
H309 C287 0.950 . S
C310 C311 1.349 1_556 S
C310 C312 1.327 . S
C310 H335 0.950 . S
C311 C310 1.349 1_554 S
C311 C327 1.349 . S
C312 C310 1.327 . S
C312 C331 1.429 1_556 S
C312 H336 0.950 . S
C313 C330 1.574 . S
C313 C332 1.368 1_655 S
C313 H337 0.949 . S
H314 C318 0.949 . S
C315 C316 1.349 . S
C315 C317 1.327 . S
C315 H338 0.950 . S
C316 C315 1.349 . S
C316 C328 1.349 1_554 S
C317 C315 1.327 . S
C317 C333 1.429 . S
C317 H339 0.950 . S
C318 H314 0.949 . S
C318 C326 1.574 . S
C318 C334 1.368 1_556 S
H319 C327 0.950 . S
H320 C325 0.950 . S
H321 C326 0.949 1_455 S
H322 C328 0.950 . S
H323 C329 0.950 . S
H324 C330 0.949 . S
C325 H320 0.950 . S
C325 C327 1.327 . S
C325 C331 1.429 . S
C326 C318 1.574 . S
C326 H321 0.949 1_655 S
C326 C332 1.368 1_656 S
C327 C311 1.349 . S
C327 H319 0.950 . S
C327 C325 1.327 . S
C328 C316 1.349 1_556 S
C328 H322 0.950 . S
C328 C329 1.327 . S
C329 H323 0.950 . S
C329 C328 1.327 . S
C329 C333 1.429 1_556 S
C330 C313 1.574 . S
C330 H324 0.949 . S
C330 C334 1.368 . S
C331 C312 1.429 1_554 S
C331 C325 1.429 . S
C331 C332 1.523 . S
C332 C313 1.368 1_455 S
C332 C326 1.368 1_454 S
C332 C331 1.523 . S
C333 C317 1.429 . S
C333 C329 1.429 1_554 S
C333 C334 1.523 . S
C334 C318 1.368 1_554 S
C334 C330 1.368 . S
C334 C333 1.523 . S
H335 C310 0.950 . S
H336 C312 0.950 . S
H337 C313 0.949 . S
H338 C315 0.950 . S
H339 C317 0.950 . S
C340 C341 1.349 . S
C340 C342 1.327 . S
C340 H365 0.950 . S
C341 C340 1.349 . S
C341 C357 1.349 . S
C342 C340 1.327 . S
C342 C361 1.429 . S
C342 H366 0.950 . S
C343 C360 1.574 . S
C343 C362 1.368 . S
C343 H367 0.949 . S
H344 C348 0.949 1_655 S
C345 C346 1.349 . S
C345 C347 1.327 . S
C345 H368 0.950 . S
C346 C345 1.349 . S
C346 C358 1.349 . S
C347 C345 1.327 . S
C347 C363 1.429 . S
C347 H369 0.950 . S
C348 H344 0.949 1_455 S
C348 C356 1.574 . S
C348 C364 1.368 1_455 S
H349 C357 0.950 . S
H350 C355 0.950 . S
H351 C356 0.949 . S
H352 C358 0.950 . S
H353 C359 0.950 . S
H354 C360 0.949 . S
C355 H350 0.950 . S
C355 C357 1.327 . S
C355 C361 1.429 . S
C356 C348 1.574 . S
C356 H351 0.949 . S
C356 C362 1.368 . S
C357 C341 1.349 . S
C357 H349 0.950 . S
C357 C355 1.327 . S
C358 C346 1.349 . S
C358 H352 0.950 . S
C358 C359 1.327 . S
C359 H353 0.950 . S
C359 C358 1.327 . S
C359 C363 1.429 . S
C360 C343 1.574 . S
C360 H354 0.949 . S
C360 C364 1.368 1_455 S
C361 C342 1.429 . S
C361 C355 1.429 . S
C361 C362 1.523 . S
C362 C343 1.368 . S
C362 C356 1.368 . S
C362 C361 1.523 . S
C363 C347 1.429 . S
C363 C359 1.429 . S
C363 C364 1.523 . S
C364 C348 1.368 1_655 S
C364 C360 1.368 1_655 S
C364 C363 1.523 . S
H365 C340 0.950 . S
H366 C342 0.950 . S
H367 C343 0.949 . S
H368 C345 0.950 . S
H369 C347 0.950 . S
C370 C371 1.349 . S
C370 C372 1.327 . S
C370 H395 0.950 . S
C371 C370 1.349 . S
C371 C387 1.349 . S
C372 C370 1.327 . S
C372 C391 1.429 . S
C372 H396 0.950 . S
C373 C390 1.574 . S
C373 C392 1.368 . S
C373 H397 0.949 . S
H374 C378 0.949 . S
C375 C376 1.349 . S
C375 C377 1.327 . S
C375 H398 0.950 . S
C376 C375 1.349 . S
C376 C388 1.349 . S
C377 C375 1.327 . S
C377 C393 1.429 . S
C377 H399 0.950 . S
C378 H374 0.949 . S
C378 C386 1.574 . S
C378 C394 1.368 1_655 S
H379 C387 0.950 . S
H380 C385 0.950 . S
H381 C386 0.949 . S
H382 C388 0.950 . S
H383 C389 0.950 . S
H384 C390 0.949 1_455 S
C385 H380 0.950 . S
C385 C387 1.327 . S
C385 C391 1.429 . S
C386 C378 1.574 . S
C386 H381 0.949 . S
C386 C392 1.368 . S
C387 C371 1.349 . S
C387 H379 0.950 . S
C387 C385 1.327 . S
C388 C376 1.349 . S
C388 H382 0.950 . S
C388 C389 1.327 . S
C389 H383 0.950 . S
C389 C388 1.327 . S
C389 C393 1.429 . S
C390 C373 1.574 . S
C390 H384 0.949 1_655 S
C390 C394 1.368 1_655 S
C391 C372 1.429 . S
C391 C385 1.429 . S
C391 C392 1.523 . S
C392 C373 1.368 . S
C392 C386 1.368 . S
C392 C391 1.523 . S
C393 C377 1.429 . S
C393 C389 1.429 . S
C393 C394 1.523 . S
C394 C378 1.368 1_455 S
C394 C390 1.368 1_455 S
C394 C393 1.523 . S
H395 C370 0.950 . S
H396 C372 0.950 . S
H397 C373 0.949 . S
H398 C375 0.950 . S
H399 C377 0.950 . S
C400 C401 1.349 1_655 S
C400 C402 1.327 . S
C400 H425 0.950 . S
C401 C400 1.349 1_455 S
C401 C417 1.349 1_554 S
C402 C400 1.327 . S
C402 C421 1.429 1_655 S
C402 H426 0.950 . S
C403 C420 1.574 . S
C403 C422 1.368 1_556 S
C403 H427 0.949 . S
H404 C408 0.949 . S
C405 C406 1.339 1_456 S
C405 C407 1.327 . S
C405 H428 0.950 . S
C406 C405 1.339 1_654 S
C406 C418 1.359 . S
C407 C405 1.327 . S
C407 C423 1.429 1_456 S
C407 H429 0.950 . S
C408 H404 0.949 . S
C408 C416 1.574 . S
C408 C424 1.368 . S
H409 C417 0.950 . S
H410 C415 0.950 . S
H411 C416 0.949 . S
H412 C418 0.950 . S
H413 C419 0.950 . S
H414 C420 0.949 . S
C415 H410 0.950 . S
C415 C417 1.327 . S
C415 C421 1.429 1_556 S
C416 C408 1.574 . S
C416 H411 0.949 . S
C416 C422 1.368 1_655 S
C417 C401 1.349 1_556 S
C417 H409 0.950 . S
C417 C415 1.327 . S
C418 C406 1.359 . S
C418 H412 0.950 . S
C418 C419 1.327 . S
C419 H413 0.950 . S
C419 C418 1.327 . S
C419 C423 1.429 . S
C420 C403 1.574 . S
C420 H414 0.949 . S
C420 C424 1.368 1_456 S
C421 C402 1.429 1_455 S
C421 C415 1.429 1_554 S
C421 C422 1.523 . S
C422 C403 1.368 1_554 S
C422 C416 1.368 1_455 S
C422 C421 1.523 . S
C423 C407 1.429 1_654 S
C423 C419 1.429 . S
C423 C424 1.523 . S
C424 C408 1.368 . S
C424 C420 1.368 1_654 S
C424 C423 1.523 . S
H425 C400 0.950 . S
H426 C402 0.950 . S
H427 C403 0.949 . S
H428 C405 0.950 . S
H429 C407 0.950 . S
C430 C431 1.349 1_655 S
C430 C432 1.327 . S
C430 H455 0.950 . S
C431 C430 1.349 1_455 S
C431 C447 1.349 . S
C432 C430 1.327 . S
C432 C451 1.429 1_655 S
C432 H456 0.950 . S
C433 C450 1.574 . S
C433 C452 1.368 . S
C433 H457 0.949 . S
H434 C438 0.949 . S
C435 C436 1.349 1_455 S
C435 C437 1.327 . S
C435 H458 0.950 . S
C436 C435 1.349 1_655 S
C436 C448 1.349 . S
C437 C435 1.327 . S
C437 C453 1.429 1_455 S
C437 H459 0.950 . S
C438 H434 0.949 . S
C438 C446 1.574 . S
C438 C454 1.368 . S
H439 C447 0.950 . S
H440 C445 0.950 . S
H441 C446 0.949 . S
H442 C448 0.950 . S
H443 C449 0.950 . S
H444 C450 0.949 . S
C445 H440 0.950 . S
C445 C447 1.327 . S
C445 C451 1.429 . S
C446 C438 1.574 . S
C446 H441 0.949 . S
C446 C452 1.368 1_655 S
C447 C431 1.349 . S
C447 H439 0.950 . S
C447 C445 1.327 . S
C448 C436 1.349 . S
C448 H442 0.950 . S
C448 C449 1.327 . S
C449 H443 0.950 . S
C449 C448 1.327 . S
C449 C453 1.429 . S
C450 C433 1.574 . S
C450 H444 0.949 . S
C450 C454 1.368 1_455 S
C451 C432 1.429 1_455 S
C451 C445 1.429 . S
C451 C452 1.523 . S
C452 C433 1.368 . S
C452 C446 1.368 1_455 S
C452 C451 1.523 . S
C453 C437 1.429 1_655 S
C453 C449 1.429 . S
C453 C454 1.523 . S
C454 C438 1.368 . S
C454 C450 1.368 1_655 S
C454 C453 1.523 . S
H455 C430 0.950 . S
H456 C432 0.950 . S
H457 C433 0.949 . S
H458 C435 0.950 . S
H459 C437 0.950 . S
C460 C461 1.360 . S
C460 C462 1.327 . S
C460 H485 0.950 . S
C461 C460 1.360 . S
C461 C477 1.338 1_554 S
C462 C460 1.327 . S
C462 C481 1.429 . S
C462 H486 0.950 . S
C463 C480 1.574 1_565 S
C463 C482 1.368 1_556 S
C463 H487 0.949 . S
H464 C468 0.949 . S
C465 C466 1.349 1_556 S
C465 C467 1.327 . S
C465 H488 0.950 . S
C466 C465 1.349 1_554 S
C466 C478 1.349 . S
C467 C465 1.327 . S
C467 C483 1.429 1_556 S
C467 H489 0.950 . S
C468 H464 0.949 . S
C468 C476 1.574 1_545 S
C468 C484 1.368 . S
H469 C477 0.950 . S
H470 C475 0.950 . S
H471 C476 0.949 . S
H472 C478 0.950 . S
H473 C479 0.950 . S
H474 C480 0.949 . S
C475 H470 0.950 . S
C475 C477 1.327 . S
C475 C481 1.429 1_556 S
C476 C468 1.574 1_565 S
C476 H471 0.949 . S
C476 C482 1.368 . S
C477 C461 1.338 1_556 S
C477 H469 0.950 . S
C477 C475 1.327 . S
C478 C466 1.349 . S
C478 H472 0.950 . S
C478 C479 1.327 . S
C479 H473 0.950 . S
C479 C478 1.327 . S
C479 C483 1.429 . S
C480 C463 1.574 1_545 S
C480 H474 0.949 . S
C480 C484 1.368 1_556 S
C481 C462 1.429 . S
C481 C475 1.429 1_554 S
C481 C482 1.523 . S
C482 C463 1.368 1_554 S
C482 C476 1.368 . S
C482 C481 1.523 . S
C483 C467 1.429 1_554 S
C483 C479 1.429 . S
C483 C484 1.523 . S
C484 C468 1.368 . S
C484 C480 1.368 1_554 S
C484 C483 1.523 . S
H485 C460 0.950 . S
H486 C462 0.950 . S
H487 C463 0.949 . S
H488 C465 0.950 . S
H489 C467 0.950 . S
C490 C491 1.349 . S
C490 C492 1.327 . S
C490 H515 0.950 . S
C491 C490 1.349 . S
C491 C507 1.349 . S
C492 C490 1.327 . S
C492 C511 1.429 . S
C492 H516 0.950 . S
C493 C510 1.574 1_545 S
C493 C512 1.368 . S
C493 H517 0.949 . S
H494 C498 0.949 . S
C495 C496 1.349 . S
C495 C497 1.327 . S
C495 H518 0.950 . S
C496 C495 1.349 . S
C496 C508 1.349 . S
C497 C495 1.327 . S
C497 C513 1.429 . S
C497 H519 0.950 . S
C498 H494 0.949 . S
C498 C506 1.574 1_565 S
C498 C514 1.368 . S
H499 C507 0.950 . S
H500 C505 0.950 . S
H501 C506 0.949 . S
H502 C508 0.950 . S
H503 C509 0.950 . S
H504 C510 0.949 . S
C505 H500 0.950 . S
C505 C507 1.327 . S
C505 C511 1.429 . S
C506 C498 1.574 1_545 S
C506 H501 0.949 . S
C506 C512 1.368 . S
C507 C491 1.349 . S
C507 H499 0.950 . S
C507 C505 1.327 . S
C508 C496 1.349 . S
C508 H502 0.950 . S
C508 C509 1.327 . S
C509 H503 0.950 . S
C509 C508 1.327 . S
C509 C513 1.429 . S
C510 C493 1.574 1_565 S
C510 H504 0.949 . S
C510 C514 1.368 . S
C511 C492 1.429 . S
C511 C505 1.429 . S
C511 C512 1.523 . S
C512 C493 1.368 . S
C512 C506 1.368 . S
C512 C511 1.523 . S
C513 C497 1.429 . S
C513 C509 1.429 . S
C513 C514 1.523 . S
C514 C498 1.368 . S
C514 C510 1.368 . S
C514 C513 1.523 . S
H515 C490 0.950 . S
H516 C492 0.950 . S
H517 C493 0.949 . S
H518 C495 0.950 . S
H519 C497 0.950 . S
C520 C521 1.349 . S
C520 C522 1.327 . S
C520 H545 0.950 . S
C521 C520 1.349 . S
C521 C537 1.349 1_554 S
C522 C520 1.327 . S
C522 C541 1.429 . S
C522 H546 0.950 . S
C523 C540 1.574 . S
C523 C542 1.368 1_556 S
C523 H547 0.949 . S
H524 C528 0.949 . S
C525 C526 1.349 1_556 S
C525 C527 1.327 . S
C525 H548 0.950 . S
C526 C525 1.349 1_554 S
C526 C538 1.349 . S
C527 C525 1.327 . S
C527 C543 1.429 1_556 S
C527 H549 0.950 . S
C528 H524 0.949 . S
C528 C536 1.574 . S
C528 C544 1.368 . S
H529 C537 0.950 . S
H530 C535 0.950 . S
H531 C536 0.949 . S
H532 C538 0.950 . S
H533 C539 0.950 . S
H534 C540 0.949 . S
C535 H530 0.950 . S
C535 C537 1.327 . S
C535 C541 1.429 1_556 S
C536 C528 1.574 . S
C536 H531 0.949 . S
C536 C542 1.368 . S
C537 C521 1.349 1_556 S
C537 H529 0.950 . S
C537 C535 1.327 . S
C538 C526 1.349 . S
C538 H532 0.950 . S
C538 C539 1.327 . S
C539 H533 0.950 . S
C539 C538 1.327 . S
C539 C543 1.429 . S
C540 C523 1.574 . S
C540 H534 0.949 . S
C540 C544 1.368 1_556 S
C541 C522 1.429 . S
C541 C535 1.429 1_554 S
C541 C542 1.523 . S
C542 C523 1.368 1_554 S
C542 C536 1.368 . S
C542 C541 1.523 . S
C543 C527 1.429 1_554 S
C543 C539 1.429 . S
C543 C544 1.523 . S
C544 C528 1.368 . S
C544 C540 1.368 1_554 S
C544 C543 1.523 . S
H545 C520 0.950 . S
H546 C522 0.950 . S
H547 C523 0.949 . S
H548 C525 0.950 . S
H549 C527 0.950 . S
C550 C551 1.349 1_556 S
C550 C552 1.327 . S
C550 H575 0.950 . S
C551 C550 1.349 1_554 S
C551 C567 1.349 . S
C552 C550 1.327 . S
C552 C571 1.429 1_556 S
C552 H576 0.950 . S
C553 C570 1.574 . S
C553 C572 1.368 . S
C553 H577 0.949 . S
H554 C558 0.949 . S
C555 C556 1.349 . S
C555 C557 1.327 . S
C555 H578 0.950 . S
C556 C555 1.349 . S
C556 C568 1.349 1_554 S
C557 C555 1.327 . S
C557 C573 1.429 . S
C557 H579 0.950 . S
C558 H554 0.949 . S
C558 C566 1.574 . S
C558 C574 1.368 1_556 S
H559 C567 0.950 . S
H560 C565 0.950 . S
H561 C566 0.949 . S
H562 C568 0.950 . S
H563 C569 0.950 . S
H564 C570 0.949 . S
C565 H560 0.950 . S
C565 C567 1.327 . S
C565 C571 1.429 . S
C566 C558 1.574 . S
C566 H561 0.949 . S
C566 C572 1.368 1_556 S
C567 C551 1.349 . S
C567 H559 0.950 . S
C567 C565 1.327 . S
C568 C556 1.349 1_556 S
C568 H562 0.950 . S
C568 C569 1.327 . S
C569 H563 0.950 . S
C569 C568 1.327 . S
C569 C573 1.429 1_556 S
C570 C553 1.574 . S
C570 H564 0.949 . S
C570 C574 1.368 . S
C571 C552 1.429 1_554 S
C571 C565 1.429 . S
C571 C572 1.523 . S
C572 C553 1.368 . S
C572 C566 1.368 1_554 S
C572 C571 1.523 . S
C573 C557 1.429 . S
C573 C569 1.429 1_554 S
C573 C574 1.523 . S
C574 C558 1.368 1_554 S
C574 C570 1.368 . S
C574 C573 1.523 . S
H575 C550 0.950 . S
H576 C552 0.950 . S
H577 C553 0.949 . S
H578 C555 0.950 . S
H579 C557 0.950 . S
C580 C581 1.349 . S
C580 C582 1.327 . S
C580 H605 0.950 . S
C581 C580 1.349 . S
C581 C597 1.349 . S
C582 C580 1.327 . S
C582 C601 1.429 . S
C582 H606 0.950 . S
C583 C600 1.574 . S
C583 C602 1.368 . S
C583 H607 0.949 . S
H584 C588 0.949 . S
C585 C586 1.349 . S
C585 C587 1.327 . S
C585 H608 0.950 . S
C586 C585 1.349 . S
C586 C598 1.349 . S
C587 C585 1.327 . S
C587 C603 1.429 . S
C587 H609 0.950 . S
C588 H584 0.949 . S
C588 C596 1.574 . S
C588 C604 1.368 . S
H589 C597 0.950 . S
H590 C595 0.950 . S
H591 C596 0.949 . S
H592 C598 0.950 . S
H593 C599 0.950 . S
H594 C600 0.949 . S
C595 H590 0.950 . S
C595 C597 1.327 . S
C595 C601 1.429 . S
C596 C588 1.574 . S
C596 H591 0.949 . S
C596 C602 1.368 . S
C597 C581 1.349 . S
C597 H589 0.950 . S
C597 C595 1.327 . S
C598 C586 1.349 . S
C598 H592 0.950 . S
C598 C599 1.327 . S
C599 H593 0.950 . S
C599 C598 1.327 . S
C599 C603 1.429 . S
C600 C583 1.574 . S
C600 H594 0.949 . S
C600 C604 1.368 . S
C601 C582 1.429 . S
C601 C595 1.429 . S
C601 C602 1.523 . S
C602 C583 1.368 . S
C602 C596 1.368 . S
C602 C601 1.523 . S
C603 C587 1.429 . S
C603 C599 1.429 . S
C603 C604 1.523 . S
C604 C588 1.368 . S
C604 C600 1.368 . S
C604 C603 1.523 . S
H605 C580 0.950 . S
H606 C582 0.950 . S
H607 C583 0.949 . S
H608 C585 0.950 . S
H609 C587 0.950 . S
C610 C611 1.349 . S
C610 C612 1.327 . S
C610 H635 0.950 . S
C611 C610 1.349 . S
C611 C627 1.349 . S
C612 C610 1.327 . S
C612 C631 1.429 . S
C612 H636 0.950 . S
C613 C630 1.574 . S
C613 C632 1.368 . S
C613 H637 0.949 . S
H614 C618 0.949 . S
C615 C616 1.349 . S
C615 C617 1.327 . S
C615 H638 0.950 . S
C616 C615 1.349 . S
C616 C628 1.349 . S
C617 C615 1.327 . S
C617 C633 1.429 . S
C617 H639 0.950 . S
C618 H614 0.949 . S
C618 C626 1.574 . S
C618 C634 1.368 . S
H619 C627 0.950 . S
H620 C625 0.950 . S
H621 C626 0.949 . S
H622 C628 0.950 . S
H623 C629 0.950 . S
H624 C630 0.949 . S
C625 H620 0.950 . S
C625 C627 1.327 . S
C625 C631 1.429 . S
C626 C618 1.574 . S
C626 H621 0.949 . S
C626 C632 1.368 . S
C627 C611 1.349 . S
C627 H619 0.950 . S
C627 C625 1.327 . S
C628 C616 1.349 . S
C628 H622 0.950 . S
C628 C629 1.327 . S
C629 H623 0.950 . S
C629 C628 1.327 . S
C629 C633 1.429 . S
C630 C613 1.574 . S
C630 H624 0.949 . S
C630 C634 1.368 . S
C631 C612 1.429 . S
C631 C625 1.429 . S
C631 C632 1.523 . S
C632 C613 1.368 . S
C632 C626 1.368 . S
C632 C631 1.523 . S
C633 C617 1.429 . S
C633 C629 1.429 . S
C633 C634 1.523 . S
C634 C618 1.368 . S
C634 C630 1.368 . S
C634 C633 1.523 . S
H635 C610 0.950 . S
H636 C612 0.950 . S
H637 C613 0.949 . S
H638 C615 0.950 . S
H639 C617 0.950 . S
C640 C641 1.349 . S
C640 C642 1.327 . S
C640 H665 0.950 . S
C641 C640 1.349 . S
C641 C657 1.349 . S
C642 C640 1.327 . S
C642 C661 1.429 . S
C642 H666 0.950 . S
C643 C660 1.574 . S
C643 C662 1.368 1_655 S
C643 H667 0.949 . S
H644 C648 0.949 . S
C645 C646 1.349 . S
C645 C647 1.327 . S
C645 H668 0.950 . S
C646 C645 1.349 . S
C646 C658 1.349 . S
C647 C645 1.327 . S
C647 C663 1.429 . S
C647 H669 0.950 . S
C648 H644 0.949 . S
C648 C656 1.574 . S
C648 C664 1.368 1_455 S
H649 C657 0.950 1_655 S
H650 C655 0.949 . S
H651 C656 0.949 . S
H652 C658 0.950 1_455 S
H653 C659 0.949 . S
H654 C660 0.949 . S
C655 H650 0.949 . S
C655 C657 1.327 1_655 S
C655 C661 1.429 1_655 S
C656 C648 1.574 . S
C656 H651 0.949 . S
C656 C662 1.368 . S
C657 C641 1.349 . S
C657 H649 0.950 1_455 S
C657 C655 1.327 1_455 S
C658 C646 1.349 . S
C658 H652 0.950 1_655 S
C658 C659 1.327 1_655 S
C659 H653 0.949 . S
C659 C658 1.327 1_455 S
C659 C663 1.429 1_455 S
C660 C643 1.574 . S
C660 H654 0.949 . S
C660 C664 1.368 . S
C661 C642 1.429 . S
C661 C655 1.429 1_455 S
C661 C662 1.523 . S
C662 C643 1.368 1_455 S
C662 C656 1.368 . S
C662 C661 1.523 . S
C663 C647 1.429 . S
C663 C659 1.429 1_655 S
C663 C664 1.523 . S
C664 C648 1.368 1_655 S
C664 C660 1.368 . S
C664 C663 1.523 . S
H665 C640 0.950 . S
H666 C642 0.950 . S
H667 C643 0.949 . S
H668 C645 0.950 . S
H669 C647 0.950 . S
C670 C671 1.349 . S
C670 C672 1.329 . S
C670 H695 0.950 1_655 S
C671 C670 1.349 . S
C671 C687 1.349 . S
C672 C670 1.329 . S
C672 C691 1.431 . S
C672 H696 0.946 1_655 S
C673 C690 1.574 . S
C673 C692 1.368 . S
C673 H697 0.949 . S
H674 C678 0.949 . S
C675 C676 1.349 . S
C675 C677 1.329 . S
C675 H698 0.950 1_455 S
C676 C675 1.349 . S
C676 C688 1.349 . S
C677 C675 1.329 . S
C677 C693 1.431 . S
C677 H699 0.946 1_455 S
C678 H674 0.949 . S
C678 C686 1.574 . S
C678 C694 1.368 . S
H679 C687 0.950 . S
H680 C685 0.950 . S
H681 C686 0.949 . S
H682 C688 0.950 . S
H683 C689 0.950 . S
H684 C690 0.949 . S
C685 H680 0.950 . S
C685 C687 1.327 . S
C685 C691 1.429 . S
C686 C678 1.574 . S
C686 H681 0.949 . S
C686 C692 1.368 1_455 S
C687 C671 1.349 . S
C687 H679 0.950 . S
C687 C685 1.327 . S
C688 C676 1.349 . S
C688 H682 0.950 . S
C688 C689 1.327 . S
C689 H683 0.950 . S
C689 C688 1.327 . S
C689 C693 1.429 . S
C690 C673 1.574 . S
C690 H684 0.949 . S
C690 C694 1.368 1_655 S
C691 C672 1.431 . S
C691 C685 1.429 . S
C691 C692 1.523 . S
C692 C673 1.368 . S
C692 C686 1.368 1_655 S
C692 C691 1.523 . S
C693 C677 1.431 . S
C693 C689 1.429 . S
C693 C694 1.523 . S
C694 C678 1.368 . S
C694 C690 1.368 1_455 S
C694 C693 1.523 . S
H695 C670 0.950 1_455 S
H696 C672 0.946 1_455 S
H697 C673 0.949 . S
H698 C675 0.950 1_655 S
H699 C677 0.946 1_655 S
C700 C701 1.349 . S
C700 C702 1.327 1_655 S
C700 H725 0.950 1_655 S
C701 C700 1.349 . S
C701 C717 1.349 . S
C702 C700 1.327 1_455 S
C702 C721 1.429 1_455 S
C702 H726 0.949 . S
C703 C720 1.574 . S
C703 C722 1.368 . S
C703 H727 0.949 . S
H704 C708 0.949 . S
C705 C706 1.349 . S
C705 C707 1.327 1_455 S
C705 H728 0.950 1_455 S
C706 C705 1.349 . S
C706 C718 1.349 . S
C707 C705 1.327 1_655 S
C707 C723 1.429 1_655 S
C707 H729 0.949 . S
C708 H704 0.949 . S
C708 C716 1.574 . S
C708 C724 1.368 . S
H709 C717 0.950 . S
H710 C715 0.950 . S
H711 C716 0.949 . S
H712 C718 0.950 . S
H713 C719 0.950 . S
H714 C720 0.949 . S
C715 H710 0.950 . S
C715 C717 1.327 . S
C715 C721 1.429 . S
C716 C708 1.574 . S
C716 H711 0.949 . S
C716 C722 1.368 1_455 S
C717 C701 1.349 . S
C717 H709 0.950 . S
C717 C715 1.327 . S
C718 C706 1.349 . S
C718 H712 0.950 . S
C718 C719 1.327 . S
C719 H713 0.950 . S
C719 C718 1.327 . S
C719 C723 1.429 . S
C720 C703 1.574 . S
C720 H714 0.949 . S
C720 C724 1.368 1_655 S
C721 C702 1.429 1_655 S
C721 C715 1.429 . S
C721 C722 1.523 . S
C722 C703 1.368 . S
C722 C716 1.368 1_655 S
C722 C721 1.523 . S
C723 C707 1.429 1_455 S
C723 C719 1.429 . S
C723 C724 1.523 . S
C724 C708 1.368 . S
C724 C720 1.368 1_455 S
C724 C723 1.523 . S
H725 C700 0.950 1_455 S
H726 C702 0.949 . S
H727 C703 0.949 . S
H728 C705 0.950 1_655 S
H729 C707 0.949 . S
C730 C731 1.349 . S
C730 C732 1.327 . S
C730 H755 0.950 . S
C731 C730 1.349 . S
C731 C747 1.349 . S
C732 C730 1.327 . S
C732 C751 1.429 . S
C732 H756 0.950 . S
C733 C750 1.574 . S
C733 C752 1.368 1_455 S
C733 H757 0.949 . S
H734 C738 0.949 . S
C735 C736 1.349 . S
C735 C737 1.327 . S
C735 H758 0.950 . S
C736 C735 1.349 . S
C736 C748 1.349 . S
C737 C735 1.327 . S
C737 C753 1.429 . S
C737 H759 0.950 . S
C738 H734 0.949 . S
C738 C746 1.574 . S
C738 C754 1.368 1_655 S
H739 C747 0.950 1_455 S
H740 C745 0.946 1_455 S
H741 C746 0.949 . S
H742 C748 0.950 1_655 S
H743 C749 0.946 1_655 S
H744 C750 0.949 . S
C745 H740 0.946 1_655 S
C745 C747 1.329 . S
C745 C751 1.431 . S
C746 C738 1.574 . S
C746 H741 0.949 . S
C746 C752 1.368 . S
C747 C731 1.349 . S
C747 H739 0.950 1_655 S
C747 C745 1.329 . S
C748 C736 1.349 . S
C748 H742 0.950 1_455 S
C748 C749 1.329 . S
C749 H743 0.946 1_455 S
C749 C748 1.329 . S
C749 C753 1.431 . S
C750 C733 1.574 . S
C750 H744 0.949 . S
C750 C754 1.368 . S
C751 C732 1.429 . S
C751 C745 1.431 . S
C751 C752 1.523 . S
C752 C733 1.368 1_655 S
C752 C746 1.368 . S
C752 C751 1.523 . S
C753 C737 1.429 . S
C753 C749 1.431 . S
C753 C754 1.523 . S
C754 C738 1.368 1_455 S
C754 C750 1.368 . S
C754 C753 1.523 . S
H755 C730 0.950 . S
H756 C732 0.950 . S
H757 C733 0.949 . S
H758 C735 0.950 . S
H759 C737 0.950 . S
C760 C761 1.349 . S
C760 C762 1.327 . S
C760 H785 0.950 . S
C761 C760 1.349 . S
C761 C777 1.349 . S
C762 C760 1.327 . S
C762 C781 1.429 . S
C762 H786 0.950 . S
C763 C780 1.574 . S
C763 C782 1.368 . S
C763 H787 0.949 . S
H764 C768 0.949 . S
C765 C766 1.349 . S
C765 C767 1.327 . S
C765 H788 0.950 . S
C766 C765 1.349 . S
C766 C778 1.349 . S
C767 C765 1.327 . S
C767 C783 1.429 . S
C767 H789 0.950 . S
C768 H764 0.949 . S
C768 C776 1.574 . S
C768 C784 1.368 . S
H769 C777 0.950 . S
H770 C775 0.950 . S
H771 C776 0.949 . S
H772 C778 0.950 . S
H773 C779 0.950 . S
H774 C780 0.949 . S
C775 H770 0.950 . S
C775 C777 1.327 . S
C775 C781 1.429 . S
C776 C768 1.574 . S
C776 H771 0.949 . S
C776 C782 1.368 . S
C777 C761 1.349 . S
C777 H769 0.950 . S
C777 C775 1.327 . S
C778 C766 1.349 . S
C778 H772 0.950 . S
C778 C779 1.327 . S
C779 H773 0.950 . S
C779 C778 1.327 . S
C779 C783 1.429 . S
C780 C763 1.574 . S
C780 H774 0.949 . S
C780 C784 1.368 . S
C781 C762 1.429 . S
C781 C775 1.429 . S
C781 C782 1.523 . S
C782 C763 1.368 . S
C782 C776 1.368 . S
C782 C781 1.523 . S
C783 C767 1.429 . S
C783 C779 1.429 . S
C783 C784 1.523 . S
C784 C768 1.368 . S
C784 C780 1.368 . S
C784 C783 1.523 . S
H785 C760 0.950 . S
H786 C762 0.950 . S
H787 C763 0.949 . S
H788 C765 0.950 . S
H789 C767 0.950 . S
C790 C791 1.349 . S
C790 C792 1.327 . S
C790 H815 0.950 . S
C791 C790 1.349 . S
C791 C807 1.349 . S
C792 C790 1.327 . S
C792 C811 1.429 . S
C792 H816 0.950 . S
C793 C810 1.574 . S
C793 C812 1.368 . S
C793 H817 0.949 . S
H794 C798 0.949 . S
C795 C796 1.349 . S
C795 C797 1.327 . S
C795 H818 0.950 . S
C796 C795 1.349 . S
C796 C808 1.349 . S
C797 C795 1.327 . S
C797 C813 1.429 . S
C797 H819 0.950 . S
C798 H794 0.949 . S
C798 C806 1.574 . S
C798 C814 1.368 . S
H799 C807 0.950 . S
H800 C805 0.950 . S
H801 C806 0.949 . S
H802 C808 0.950 . S
H803 C809 0.950 . S
H804 C810 0.949 . S
C805 H800 0.950 . S
C805 C807 1.327 . S
C805 C811 1.429 . S
C806 C798 1.574 . S
C806 H801 0.949 . S
C806 C812 1.368 . S
C807 C791 1.349 . S
C807 H799 0.950 . S
C807 C805 1.327 . S
C808 C796 1.349 . S
C808 H802 0.950 . S
C808 C809 1.327 . S
C809 H803 0.950 . S
C809 C808 1.327 . S
C809 C813 1.429 . S
C810 C793 1.574 . S
C810 H804 0.949 . S
C810 C814 1.368 . S
C811 C792 1.429 . S
C811 C805 1.429 . S
C811 C812 1.523 . S
C812 C793 1.368 . S
C812 C806 1.368 . S
C812 C811 1.523 . S
C813 C797 1.429 . S
C813 C809 1.429 . S
C813 C814 1.523 . S
C814 C798 1.368 . S
C814 C810 1.368 . S
C814 C813 1.523 . S
H815 C790 0.950 . S
H816 C792 0.950 . S
H817 C793 0.949 . S
H818 C795 0.950 . S
H819 C797 0.950 . S
C820 C821 1.349 . S
C820 C822 1.327 . S
C820 H845 0.950 . S
C821 C820 1.349 . S
C821 C837 1.349 . S
C822 C820 1.327 . S
C822 C841 1.429 . S
C822 H846 0.950 . S
C823 C840 1.574 . S
C823 C842 1.368 . S
C823 H847 0.949 . S
H824 C828 0.949 . S
C825 C826 1.349 . S
C825 C827 1.327 . S
C825 H848 0.950 . S
C826 C825 1.349 . S
C826 C838 1.349 . S
C827 C825 1.327 . S
C827 C843 1.429 . S
C827 H849 0.950 . S
C828 H824 0.949 . S
C828 C836 1.574 . S
C828 C844 1.368 . S
H829 C837 0.950 . S
H830 C835 0.950 . S
H831 C836 0.949 . S
H832 C838 0.950 . S
H833 C839 0.950 . S
H834 C840 0.949 . S
C835 H830 0.950 . S
C835 C837 1.327 . S
C835 C841 1.429 . S
C836 C828 1.574 . S
C836 H831 0.949 . S
C836 C842 1.368 . S
C837 C821 1.349 . S
C837 H829 0.950 . S
C837 C835 1.327 . S
C838 C826 1.349 . S
C838 H832 0.950 . S
C838 C839 1.327 . S
C839 H833 0.950 . S
C839 C838 1.327 . S
C839 C843 1.429 . S
C840 C823 1.574 . S
C840 H834 0.949 . S
C840 C844 1.368 . S
C841 C822 1.429 . S
C841 C835 1.429 . S
C841 C842 1.523 . S
C842 C823 1.368 . S
C842 C836 1.368 . S
C842 C841 1.523 . S
C843 C827 1.429 . S
C843 C839 1.429 . S
C843 C844 1.523 . S
C844 C828 1.368 . S
C844 C840 1.368 . S
C844 C843 1.523 . S
H845 C820 0.950 . S
H846 C822 0.950 . S
H847 C823 0.949 . S
H848 C825 0.950 . S
H849 C827 0.950 . S
C850 C851 1.349 . S
C850 C852 1.327 . S
C850 H875 0.950 . S
C851 C850 1.349 . S
C851 C867 1.349 . S
C852 C850 1.327 . S
C852 C871 1.429 . S
C852 H876 0.950 . S
C853 C870 1.574 . S
C853 C872 1.368 . S
C853 H877 0.949 . S
H854 C858 0.949 . S
C855 C856 1.349 . S
C855 C857 1.327 . S
C855 H878 0.950 . S
C856 C855 1.349 . S
C856 C868 1.349 . S
C857 C855 1.327 . S
C857 C873 1.429 . S
C857 H879 0.950 . S
C858 H854 0.949 . S
C858 C866 1.574 . S
C858 C874 1.368 . S
H859 C867 0.950 . S
H860 C865 0.950 . S
H861 C866 0.949 . S
H862 C868 0.950 . S
H863 C869 0.950 . S
H864 C870 0.949 . S
C865 H860 0.950 . S
C865 C867 1.327 . S
C865 C871 1.429 . S
C866 C858 1.574 . S
C866 H861 0.949 . S
C866 C872 1.368 . S
C867 C851 1.349 . S
C867 H859 0.950 . S
C867 C865 1.327 . S
C868 C856 1.349 . S
C868 H862 0.950 . S
C868 C869 1.327 . S
C869 H863 0.950 . S
C869 C868 1.327 . S
C869 C873 1.429 . S
C870 C853 1.574 . S
C870 H864 0.949 . S
C870 C874 1.368 . S
C871 C852 1.429 . S
C871 C865 1.429 . S
C871 C872 1.523 . S
C872 C853 1.368 . S
C872 C866 1.368 . S
C872 C871 1.523 . S
C873 C857 1.429 . S
C873 C869 1.429 . S
C873 C874 1.523 . S
C874 C858 1.368 . S
C874 C870 1.368 . S
C874 C873 1.523 . S
H875 C850 0.950 . S
H876 C852 0.950 . S
H877 C853 0.949 . S
H878 C855 0.950 . S
H879 C857 0.950 . S
C161 C19 1.830 1_554 S
C166 C18 1.830 . S
C191 C39 1.830 . S
C196 C38 1.830 . S
C221 C59 1.830 . S
C226 C58 1.830 . S
C251 C79 1.830 . S
C256 C78 1.830 . S
C281 C99 1.830 1_554 S
C286 C98 1.830 . S
C311 C118 1.830 . S
C316 C119 1.830 . S
C341 C139 1.830 . S
C346 C138 1.830 . S
C371 C158 1.830 . S
C376 C159 1.830 . S
C401 C21 1.742 . S
C406 C2 1.742 . S
C431 C62 1.742 . S
C436 C41 1.742 . S
C461 C82 1.742 . S
C466 C101 1.742 . S
C491 C121 1.742 . S
C496 C142 1.742 . S
C521 C1 1.534 . S
C526 C102 1.534 . S
C551 C81 1.534 . S
C556 C22 1.534 . S
C581 C42 1.534 . S
C586 C141 1.534 . S
C611 C61 1.534 . S
C616 C122 1.534 . S
C641 C8 1.486 . S
C646 C68 1.487 . S
C671 C28 1.583 . S
C676 C48 1.583 . S
C701 C29 1.487 . S
C706 C49 1.487 . S
C731 C69 1.583 . S
C736 C9 1.583 . S
C761 C88 1.486 . S
C766 C148 1.487 . S
C791 C108 1.583 . S
C796 C128 1.583 . S
C821 C109 1.487 . S
C826 C129 1.487 . S
C851 C149 1.583 . S
C856 C89 1.583 . S
