# Generated by pormake.
# Topology vda, (6)-cn, num edge types: 1
# Building blocks:
#     Node 0, Type 0, BuildingBlock: OJICUG_clean_sbu_0, # of connection points: 6
#     Node 1, Type 0, BuildingBlock: OJICUG_clean_sbu_0, # of connection points: 6
#     Node 2, Type 0, BuildingBlock: OJICUG_clean_sbu_0, # of connection points: 6
#     Node 3, Type 0, BuildingBlock: OJICUG_clean_sbu_0, # of connection points: 6
#     Node 4, Type 0, BuildingBlock: OJICUG_clean_sbu_0, # of connection points: 6
#     Node 5, Type 0, BuildingBlock: OJICUG_clean_sbu_0, # of connection points: 6
#     Node 6, Type 0, BuildingBlock: OJICUG_clean_sbu_0, # of connection points: 6
#     Node 7, Type 0, BuildingBlock: OJICUG_clean_sbu_0, # of connection points: 6
#     Node 8, Type 0, BuildingBlock: OJICUG_clean_sbu_0, # of connection points: 6
#     Node 9, Type 0, BuildingBlock: OJICUG_clean_sbu_0, # of connection points: 6
#     Node 10, Type 0, BuildingBlock: OJICUG_clean_sbu_0, # of connection points: 6
#     Node 11, Type 0, BuildingBlock: OJICUG_clean_sbu_0, # of connection points: 6
#     Node 12, Type 0, BuildingBlock: OJICUG_clean_sbu_0, # of connection points: 6
#     Node 13, Type 0, BuildingBlock: OJICUG_clean_sbu_0, # of connection points: 6
#     Node 14, Type 0, BuildingBlock: OJICUG_clean_sbu_0, # of connection points: 6
#     Node 15, Type 0, BuildingBlock: OJICUG_clean_sbu_0, # of connection points: 6
#     Node 16, Type 0, BuildingBlock: OJICUG_clean_sbu_0, # of connection points: 6
#     Node 17, Type 0, BuildingBlock: OJICUG_clean_sbu_0, # of connection points: 6
#     Node 18, Type 0, BuildingBlock: OJICUG_clean_sbu_0, # of connection points: 6
#     Node 19, Type 0, BuildingBlock: OJICUG_clean_sbu_0, # of connection points: 6
#     Node 20, Type 0, BuildingBlock: OJICUG_clean_sbu_0, # of connection points: 6
#     Node 21, Type 0, BuildingBlock: OJICUG_clean_sbu_0, # of connection points: 6
#     Node 22, Type 0, BuildingBlock: OJICUG_clean_sbu_0, # of connection points: 6
#     Node 23, Type 0, BuildingBlock: OJICUG_clean_sbu_0, # of connection points: 6
#     Node 24, Type 0, BuildingBlock: OJICUG_clean_sbu_0, # of connection points: 6
#     Node 25, Type 0, BuildingBlock: OJICUG_clean_sbu_0, # of connection points: 6
#     Node 26, Type 0, BuildingBlock: OJICUG_clean_sbu_0, # of connection points: 6
#     Node 27, Type 0, BuildingBlock: OJICUG_clean_sbu_0, # of connection points: 6
#     Node 28, Type 0, BuildingBlock: OJICUG_clean_sbu_0, # of connection points: 6
#     Node 29, Type 0, BuildingBlock: OJICUG_clean_sbu_0, # of connection points: 6
#     Node 30, Type 0, BuildingBlock: OJICUG_clean_sbu_0, # of connection points: 6
#     Node 31, Type 0, BuildingBlock: OJICUG_clean_sbu_0, # of connection points: 6
#     Edge 32, Type (0, 0), BuildingBlock: UVAHIK_clean_linker_0, # of connection points: 2
#     Edge 33, Type (0, 0), BuildingBlock: UVAHIK_clean_linker_0, # of connection points: 2
#     Edge 34, Type (0, 0), BuildingBlock: UVAHIK_clean_linker_0, # of connection points: 2
#     Edge 35, Type (0, 0), BuildingBlock: UVAHIK_clean_linker_0, # of connection points: 2
#     Edge 36, Type (0, 0), BuildingBlock: UVAHIK_clean_linker_0, # of connection points: 2
#     Edge 37, Type (0, 0), BuildingBlock: UVAHIK_clean_linker_0, # of connection points: 2
#     Edge 38, Type (0, 0), BuildingBlock: UVAHIK_clean_linker_0, # of connection points: 2
#     Edge 39, Type (0, 0), BuildingBlock: UVAHIK_clean_linker_0, # of connection points: 2
#     Edge 40, Type (0, 0), BuildingBlock: UVAHIK_clean_linker_0, # of connection points: 2
#     Edge 41, Type (0, 0), BuildingBlock: UVAHIK_clean_linker_0, # of connection points: 2
#     Edge 42, Type (0, 0), BuildingBlock: UVAHIK_clean_linker_0, # of connection points: 2
#     Edge 43, Type (0, 0), BuildingBlock: UVAHIK_clean_linker_0, # of connection points: 2
#     Edge 44, Type (0, 0), BuildingBlock: UVAHIK_clean_linker_0, # of connection points: 2
#     Edge 45, Type (0, 0), BuildingBlock: UVAHIK_clean_linker_0, # of connection points: 2
#     Edge 46, Type (0, 0), BuildingBlock: UVAHIK_clean_linker_0, # of connection points: 2
#     Edge 47, Type (0, 0), BuildingBlock: UVAHIK_clean_linker_0, # of connection points: 2
#     Edge 48, Type (0, 0), BuildingBlock: UVAHIK_clean_linker_0, # of connection points: 2
#     Edge 49, Type (0, 0), BuildingBlock: UVAHIK_clean_linker_0, # of connection points: 2
#     Edge 50, Type (0, 0), BuildingBlock: UVAHIK_clean_linker_0, # of connection points: 2
#     Edge 51, Type (0, 0), BuildingBlock: UVAHIK_clean_linker_0, # of connection points: 2
#     Edge 52, Type (0, 0), BuildingBlock: UVAHIK_clean_linker_0, # of connection points: 2
#     Edge 53, Type (0, 0), BuildingBlock: UVAHIK_clean_linker_0, # of connection points: 2
#     Edge 54, Type (0, 0), BuildingBlock: UVAHIK_clean_linker_0, # of connection points: 2
#     Edge 55, Type (0, 0), BuildingBlock: UVAHIK_clean_linker_0, # of connection points: 2
#     Edge 56, Type (0, 0), BuildingBlock: UVAHIK_clean_linker_0, # of connection points: 2
#     Edge 57, Type (0, 0), BuildingBlock: UVAHIK_clean_linker_0, # of connection points: 2
#     Edge 58, Type (0, 0), BuildingBlock: UVAHIK_clean_linker_0, # of connection points: 2
#     Edge 59, Type (0, 0), BuildingBlock: UVAHIK_clean_linker_0, # of connection points: 2
#     Edge 60, Type (0, 0), BuildingBlock: UVAHIK_clean_linker_0, # of connection points: 2
#     Edge 61, Type (0, 0), BuildingBlock: UVAHIK_clean_linker_0, # of connection points: 2
#     Edge 62, Type (0, 0), BuildingBlock: UVAHIK_clean_linker_0, # of connection points: 2
#     Edge 63, Type (0, 0), BuildingBlock: UVAHIK_clean_linker_0, # of connection points: 2
#     Edge 64, Type (0, 0), BuildingBlock: UVAHIK_clean_linker_0, # of connection points: 2
#     Edge 65, Type (0, 0), BuildingBlock: UVAHIK_clean_linker_0, # of connection points: 2
#     Edge 66, Type (0, 0), BuildingBlock: UVAHIK_clean_linker_0, # of connection points: 2
#     Edge 67, Type (0, 0), BuildingBlock: UVAHIK_clean_linker_0, # of connection points: 2
#     Edge 68, Type (0, 0), BuildingBlock: UVAHIK_clean_linker_0, # of connection points: 2
#     Edge 69, Type (0, 0), BuildingBlock: UVAHIK_clean_linker_0, # of connection points: 2
#     Edge 70, Type (0, 0), BuildingBlock: UVAHIK_clean_linker_0, # of connection points: 2
#     Edge 71, Type (0, 0), BuildingBlock: UVAHIK_clean_linker_0, # of connection points: 2
#     Edge 72, Type (0, 0), BuildingBlock: UVAHIK_clean_linker_0, # of connection points: 2
#     Edge 73, Type (0, 0), BuildingBlock: UVAHIK_clean_linker_0, # of connection points: 2
#     Edge 74, Type (0, 0), BuildingBlock: UVAHIK_clean_linker_0, # of connection points: 2
#     Edge 75, Type (0, 0), BuildingBlock: UVAHIK_clean_linker_0, # of connection points: 2
#     Edge 76, Type (0, 0), BuildingBlock: UVAHIK_clean_linker_0, # of connection points: 2
#     Edge 77, Type (0, 0), BuildingBlock: UVAHIK_clean_linker_0, # of connection points: 2
#     Edge 78, Type (0, 0), BuildingBlock: UVAHIK_clean_linker_0, # of connection points: 2
#     Edge 79, Type (0, 0), BuildingBlock: UVAHIK_clean_linker_0, # of connection points: 2
#     Edge 80, Type (0, 0), BuildingBlock: UVAHIK_clean_linker_0, # of connection points: 2
#     Edge 81, Type (0, 0), BuildingBlock: UVAHIK_clean_linker_0, # of connection points: 2
#     Edge 82, Type (0, 0), BuildingBlock: UVAHIK_clean_linker_0, # of connection points: 2
#     Edge 83, Type (0, 0), BuildingBlock: UVAHIK_clean_linker_0, # of connection points: 2
#     Edge 84, Type (0, 0), BuildingBlock: UVAHIK_clean_linker_0, # of connection points: 2
#     Edge 85, Type (0, 0), BuildingBlock: UVAHIK_clean_linker_0, # of connection points: 2
#     Edge 86, Type (0, 0), BuildingBlock: UVAHIK_clean_linker_0, # of connection points: 2
#     Edge 87, Type (0, 0), BuildingBlock: UVAHIK_clean_linker_0, # of connection points: 2
#     Edge 88, Type (0, 0), BuildingBlock: UVAHIK_clean_linker_0, # of connection points: 2
#     Edge 89, Type (0, 0), BuildingBlock: UVAHIK_clean_linker_0, # of connection points: 2
#     Edge 90, Type (0, 0), BuildingBlock: UVAHIK_clean_linker_0, # of connection points: 2
#     Edge 91, Type (0, 0), BuildingBlock: UVAHIK_clean_linker_0, # of connection points: 2
#     Edge 92, Type (0, 0), BuildingBlock: UVAHIK_clean_linker_0, # of connection points: 2
#     Edge 93, Type (0, 0), BuildingBlock: UVAHIK_clean_linker_0, # of connection points: 2
#     Edge 94, Type (0, 0), BuildingBlock: UVAHIK_clean_linker_0, # of connection points: 2
#     Edge 95, Type (0, 0), BuildingBlock: UVAHIK_clean_linker_0, # of connection points: 2
#     Edge 96, Type (0, 0), BuildingBlock: UVAHIK_clean_linker_0, # of connection points: 2
#     Edge 97, Type (0, 0), BuildingBlock: UVAHIK_clean_linker_0, # of connection points: 2
#     Edge 98, Type (0, 0), BuildingBlock: UVAHIK_clean_linker_0, # of connection points: 2
#     Edge 99, Type (0, 0), BuildingBlock: UVAHIK_clean_linker_0, # of connection points: 2
#     Edge 100, Type (0, 0), BuildingBlock: UVAHIK_clean_linker_0, # of connection points: 2
#     Edge 101, Type (0, 0), BuildingBlock: UVAHIK_clean_linker_0, # of connection points: 2
#     Edge 102, Type (0, 0), BuildingBlock: UVAHIK_clean_linker_0, # of connection points: 2
#     Edge 103, Type (0, 0), BuildingBlock: UVAHIK_clean_linker_0, # of connection points: 2
#     Edge 104, Type (0, 0), BuildingBlock: UVAHIK_clean_linker_0, # of connection points: 2
#     Edge 105, Type (0, 0), BuildingBlock: UVAHIK_clean_linker_0, # of connection points: 2
#     Edge 106, Type (0, 0), BuildingBlock: UVAHIK_clean_linker_0, # of connection points: 2
#     Edge 107, Type (0, 0), BuildingBlock: UVAHIK_clean_linker_0, # of connection points: 2
#     Edge 108, Type (0, 0), BuildingBlock: UVAHIK_clean_linker_0, # of connection points: 2
#     Edge 109, Type (0, 0), BuildingBlock: UVAHIK_clean_linker_0, # of connection points: 2
#     Edge 110, Type (0, 0), BuildingBlock: UVAHIK_clean_linker_0, # of connection points: 2
#     Edge 111, Type (0, 0), BuildingBlock: UVAHIK_clean_linker_0, # of connection points: 2
#     Edge 112, Type (0, 0), BuildingBlock: UVAHIK_clean_linker_0, # of connection points: 2
#     Edge 113, Type (0, 0), BuildingBlock: UVAHIK_clean_linker_0, # of connection points: 2
#     Edge 114, Type (0, 0), BuildingBlock: UVAHIK_clean_linker_0, # of connection points: 2
#     Edge 115, Type (0, 0), BuildingBlock: UVAHIK_clean_linker_0, # of connection points: 2
#     Edge 116, Type (0, 0), BuildingBlock: UVAHIK_clean_linker_0, # of connection points: 2
#     Edge 117, Type (0, 0), BuildingBlock: UVAHIK_clean_linker_0, # of connection points: 2
#     Edge 118, Type (0, 0), BuildingBlock: UVAHIK_clean_linker_0, # of connection points: 2
#     Edge 119, Type (0, 0), BuildingBlock: UVAHIK_clean_linker_0, # of connection points: 2
#     Edge 120, Type (0, 0), BuildingBlock: UVAHIK_clean_linker_0, # of connection points: 2
#     Edge 121, Type (0, 0), BuildingBlock: UVAHIK_clean_linker_0, # of connection points: 2
#     Edge 122, Type (0, 0), BuildingBlock: UVAHIK_clean_linker_0, # of connection points: 2
#     Edge 123, Type (0, 0), BuildingBlock: UVAHIK_clean_linker_0, # of connection points: 2
#     Edge 124, Type (0, 0), BuildingBlock: UVAHIK_clean_linker_0, # of connection points: 2
#     Edge 125, Type (0, 0), BuildingBlock: UVAHIK_clean_linker_0, # of connection points: 2
#     Edge 126, Type (0, 0), BuildingBlock: UVAHIK_clean_linker_0, # of connection points: 2
#     Edge 127, Type (0, 0), BuildingBlock: UVAHIK_clean_linker_0, # of connection points: 2
# Relax obj value: 0.394
# Max RMSD: 0.262
# Mean RMSD: 0.262
data_MOF--net-vda--node1-OJICUG_clean_sbu_0--edge1-UVAHIK_clean_linker_0
_symmetry_space_group_name_H-M    P1
_symmetry_Int_Tables_number       1
_symmetry_cell_setting            triclinic
loop_
_symmetry_equiv_pos_as_xyz
'x, y, z'
_cell_length_a     67.607958
_cell_length_b     42.512756
_cell_length_c     78.570385
_cell_angle_alpha  90.002057
_cell_angle_beta   89.993851
_cell_angle_gamma 89.989129
loop_
_atom_site_label
_atom_site_type_symbol
_atom_site_fract_x
_atom_site_fract_y
_atom_site_fract_z
_atom_type_partial_charge
Sc0 Sc 0.36182 0.0801 0.98742 0.0
Sc1 Sc 0.38276 0.10742 0.02522 0.0
Sc2 Sc 0.34777 0.1543 0.00367 0.0
O3 O 0.36407 0.11403 0.00544 0.0
C4 C 0.36216 0.14219 0.96507 0.0
C5 C 0.40824 0.07766 0.99597 0.0
C6 C 0.38909 0.18057 0.01711 0.0
C7 C 0.36407 0.0386 0.02055 0.0
C8 C 0.31675 0.10337 0.99097 0.0
C9 C 0.3458 0.13804 0.04359 0.0
O10 O 0.36688 0.11362 0.96759 0.0
O11 O 0.40685 0.09454 0.00921 0.0
O12 O 0.37332 0.18412 0.00844 0.0
O13 O 0.35674 0.04401 0.00595 0.0
O14 O 0.32074 0.12874 0.99881 0.0
O15 O 0.36068 0.11993 0.04316 0.0
O16 O 0.3301 0.0851 0.98525 0.0
O17 O 0.3746 0.05857 0.02852 0.0
O18 O 0.33954 0.15318 0.03063 0.0
O19 O 0.39324 0.06915 0.98733 0.0
O20 O 0.35393 0.1593 0.97643 0.0
O21 O 0.39354 0.15478 0.02431 0.0
Sc22 Sc 0.90717 0.09265 0.00256 0.0
Sc23 Sc 0.87312 0.13845 0.02532 0.0
Sc24 Sc 0.8904 0.16462 0.98619 0.0
O25 O 0.89025 0.13182 0.00465 0.0
C26 C 0.93614 0.14426 0.98813 0.0
C27 C 0.91218 0.11273 0.04174 0.0
C28 C 0.88894 0.20836 0.01803 0.0
C29 C 0.8679 0.06478 0.01817 0.0
C30 C 0.89043 0.10246 0.9645 0.0
C31 C 0.84462 0.16376 0.99752 0.0
O32 O 0.93335 0.12003 0.99734 0.0
O33 O 0.89795 0.13214 0.04149 0.0
O34 O 0.89684 0.20161 0.00382 0.0
O35 O 0.88196 0.06277 0.00746 0.0
O36 O 0.88388 0.12999 0.9673 0.0
O37 O 0.84727 0.1459 0.01026 0.0
O38 O 0.90076 0.08724 0.97536 0.0
O39 O 0.86478 0.08938 0.02701 0.0
O40 O 0.85889 0.17419 0.98853 0.0
O41 O 0.91583 0.09379 0.0295 0.0
O42 O 0.92195 0.16024 0.98187 0.0
O43 O 0.87854 0.18874 0.02638 0.0
Sc44 Sc 0.36343 0.16335 0.26769 0.0
Sc45 Sc 0.37992 0.13882 0.22796 0.0
Sc46 Sc 0.34692 0.09145 0.2509 0.0
O47 O 0.36346 0.13112 0.2489 0.0
C48 C 0.36395 0.10074 0.28881 0.0
C49 C 0.4089 0.16476 0.25546 0.0
C50 C 0.38647 0.0651 0.23484 0.0
C51 C 0.36328 0.2079 0.23596 0.0
C52 C 0.31776 0.14241 0.26579 0.0
C53 C 0.34093 0.1115 0.21195 0.0
O54 O 0.3707 0.12819 0.28619 0.0
O55 O 0.40609 0.14772 0.24242 0.0
O56 O 0.37239 0.06209 0.24551 0.0
O57 O 0.35637 0.20089 0.25052 0.0
O58 O 0.32064 0.11848 0.25637 0.0
O59 O 0.35487 0.13144 0.21208 0.0
O60 O 0.3319 0.1582 0.27228 0.0
O61 O 0.37335 0.18865 0.22709 0.0
O62 O 0.33783 0.0923 0.22414 0.0
O63 O 0.3948 0.17382 0.26506 0.0
O64 O 0.35337 0.08591 0.27802 0.0
O65 O 0.38916 0.09024 0.22633 0.0
Sc66 Sc 0.90539 0.15552 0.25054 0.0
Sc67 Sc 0.87224 0.1078 0.22827 0.0
Sc68 Sc 0.88829 0.08492 0.26832 0.0
O69 O 0.88861 0.11615 0.24912 0.0
C70 C 0.93415 0.10473 0.26595 0.0
C71 C 0.91135 0.13286 0.21203 0.0
C72 C 0.8876 0.0386 0.23749 0.0
C73 C 0.86641 0.18181 0.23396 0.0
C74 C 0.88881 0.14816 0.28877 0.0
C75 C 0.84281 0.08495 0.25604 0.0
O76 O 0.93146 0.12812 0.25609 0.0
O77 O 0.8977 0.11248 0.21262 0.0
O78 O 0.89501 0.04632 0.25174 0.0
O79 O 0.87991 0.1848 0.24516 0.0
O80 O 0.88141 0.12106 0.28637 0.0
O81 O 0.84587 0.10156 0.24287 0.0
O82 O 0.89951 0.16211 0.27771 0.0
O83 O 0.8642 0.15671 0.22532 0.0
O84 O 0.85678 0.0754 0.26567 0.0
O85 O 0.91402 0.15346 0.22363 0.0
O86 O 0.91988 0.08969 0.27279 0.0
O87 O 0.87755 0.05765 0.22848 0.0
Sc88 Sc 0.65588 0.84638 1.00151 0.0
Sc89 Sc 0.62308 0.88997 0.97591 0.0
Sc90 Sc 0.63831 0.92064 0.01495 0.0
O91 O 0.63907 0.8856 0.99754 0.0
C92 C 0.6385 0.86015 0.03884 0.0
C93 C 0.61742 0.8169 0.98484 0.0
C94 C 0.59293 0.91659 0.00279 0.0
C95 C 0.66326 0.86243 0.96213 0.0
C96 C 0.68428 0.90123 0.01438 0.0
C97 C 0.63726 0.96105 0.98129 0.0
O98 O 0.64755 0.84267 0.0282 0.0
O99 O 0.61432 0.84134 0.97592 0.0
O100 O 0.60648 0.92658 0.01271 0.0
O101 O 0.66675 0.84574 0.97528 0.0
O102 O 0.67002 0.9194 0.01834 0.0
O103 O 0.62891 0.93949 0.97274 0.0
O104 O 0.6817 0.87413 0.00783 0.0
O105 O 0.64861 0.8809 0.96087 0.0
O106 O 0.64312 0.95699 0.99647 0.0
O107 O 0.6313 0.81529 0.99576 0.0
O108 O 0.63339 0.88823 0.03546 0.0
O109 O 0.59651 0.90035 0.98956 0.0
Sc110 Sc 0.11517 0.83145 0.01865 0.0
Sc111 Sc 0.13044 0.85985 0.97916 0.0
Sc112 Sc 0.09739 0.90462 0.00409 0.0
O113 O 0.11437 0.86541 1.00069 0.0
C114 C 0.06919 0.85078 0.01815 0.0
C115 C 0.11515 0.78964 0.98553 0.0
C116 C 0.0904 0.88728 0.96481 0.0
C117 C 0.16044 0.83324 0.00609 0.0
C118 C 0.11536 0.8929 0.04151 0.0
C119 C 0.13618 0.93328 0.98738 0.0
O120 O 0.08364 0.83356 0.02273 0.0
O121 O 0.12401 0.81024 0.97663 0.0
O122 O 0.08666 0.90422 0.97781 0.0
O123 O 0.14681 0.82407 0.01614 0.0
O124 O 0.10568 0.90945 0.03082 0.0
O125 O 0.13958 0.90839 0.97889 0.0
O126 O 0.12091 0.86493 0.03841 0.0
O127 O 0.15699 0.84936 0.99281 0.0
O128 O 0.12195 0.93544 0.99794 0.0
O129 O 0.10945 0.79476 1.00066 0.0
O130 O 0.07155 0.87703 0.01061 0.0
O131 O 0.10511 0.86889 0.96384 0.0
Sc132 Sc 0.6545 0.902 0.75439 0.0
Sc133 Sc 0.61937 0.858 0.77678 0.0
Sc134 Sc 0.63766 0.82965 0.73842 0.0
O135 O 0.63719 0.8633 0.75646 0.0
C136 C 0.63924 0.89099 0.71605 0.0
C137 C 0.61546 0.93168 0.76919 0.0
C138 C 0.59147 0.83239 0.74867 0.0
C139 C 0.65834 0.88275 0.79374 0.0
C140 C 0.68356 0.84916 0.74132 0.0
C141 C 0.63433 0.78728 0.77067 0.0
O142 O 0.64921 0.90637 0.72706 0.0
O143 O 0.61191 0.9074 0.77813 0.0
O144 O 0.60593 0.82118 0.74016 0.0
O145 O 0.66237 0.90148 0.78149 0.0
O146 O 0.66952 0.83293 0.73495 0.0
O147 O 0.62392 0.80772 0.77839 0.0
O148 O 0.68052 0.87392 0.75003 0.0
O149 O 0.6439 0.86373 0.79337 0.0
O150 O 0.64297 0.79301 0.75665 0.0
O151 O 0.62947 0.93286 0.7584 0.0
O152 O 0.6322 0.86376 0.71887 0.0
O153 O 0.59389 0.85098 0.76115 0.0
Sc154 Sc 0.11303 0.91149 0.73739 0.0
Sc155 Sc 0.13052 0.89006 0.77726 0.0
Sc156 Sc 0.09647 0.84154 0.75632 0.0
O157 O 0.11334 0.88095 0.75696 0.0
C158 C 0.06733 0.89139 0.7406 0.0
C159 C 0.11416 0.95874 0.76783 0.0
C160 C 0.092 0.86512 0.79495 0.0
C161 C 0.15879 0.91273 0.74855 0.0
C162 C 0.11247 0.84733 0.71781 0.0
C163 C 0.13615 0.81572 0.77222 0.0
O164 O 0.08144 0.90623 0.73342 0.0
O165 O 0.12455 0.94014 0.77686 0.0
O166 O 0.08835 0.84496 0.7833 0.0
O167 O 0.14448 0.92177 0.73919 0.0
O168 O 0.10198 0.83371 0.72916 0.0
O169 O 0.13922 0.84144 0.7801 0.0
O170 O 0.11968 0.87468 0.71974 0.0
O171 O 0.15624 0.89652 0.76192 0.0
O172 O 0.12187 0.81219 0.76181 0.0
O173 O 0.10654 0.95049 0.75374 0.0
O174 O 0.07025 0.86854 0.75076 0.0
O175 O 0.10597 0.88488 0.7939 0.0
Sc176 Sc 0.36362 0.58355 0.48717 0.0
Sc177 Sc 0.3813 0.60594 0.52682 0.0
Sc178 Sc 0.34826 0.65522 0.50512 0.0
O179 O 0.36438 0.61501 0.50633 0.0
C180 C 0.36463 0.64718 0.4668 0.0
C181 C 0.40934 0.58116 0.49844 0.0
C182 C 0.38819 0.67981 0.52125 0.0
C183 C 0.36403 0.53753 0.51816 0.0
C184 C 0.3183 0.60596 0.48967 0.0
C185 C 0.34286 0.63274 0.54389 0.0
O186 O 0.37072 0.61922 0.46903 0.0
O187 O 0.40699 0.5979 0.51166 0.0
O188 O 0.37409 0.68367 0.5107 0.0
O189 O 0.35655 0.54546 0.50396 0.0
O190 O 0.32153 0.62942 0.49936 0.0
O191 O 0.3567 0.61267 0.54319 0.0
O192 O 0.33219 0.58978 0.48308 0.0
O193 O 0.37464 0.55613 0.52697 0.0
O194 O 0.33954 0.65264 0.53204 0.0
O195 O 0.39493 0.5723 0.48915 0.0
O196 O 0.35465 0.66217 0.47801 0.0
O197 O 0.39075 0.6542 0.52933 0.0
Sc198 Sc 0.90742 0.59146 0.50172 0.0
Sc199 Sc 0.87435 0.63829 0.52485 0.0
Sc200 Sc 0.89221 0.66484 0.48597 0.0
O201 O 0.89132 0.63141 0.5041 0.0
C202 C 0.93756 0.64238 0.48802 0.0
C203 C 0.91314 0.61117 0.54088 0.0
C204 C 0.89076 0.7079 0.51801 0.0
C205 C 0.86808 0.56487 0.51762 0.0
C206 C 0.8912 0.6032 0.46364 0.0
C207 C 0.84627 0.66492 0.49714 0.0
O208 O 0.93409 0.61759 0.4966 0.0
O209 O 0.89933 0.63134 0.54081 0.0
O210 O 0.89896 0.70112 0.50395 0.0
O211 O 0.8817 0.5626 0.50652 0.0
O212 O 0.88552 0.63118 0.46658 0.0
O213 O 0.84862 0.64658 0.50975 0.0
O214 O 0.9008 0.58686 0.47452 0.0
O215 O 0.86562 0.58939 0.52666 0.0
O216 O 0.86072 0.67515 0.48826 0.0
O217 O 0.91623 0.59192 0.52867 0.0
O218 O 0.92382 0.65964 0.48201 0.0
O219 O 0.88 0.68842 0.52608 0.0
Sc220 Sc 0.36234 0.66569 0.76798 0.0
Sc221 Sc 0.37953 0.63702 0.72924 0.0
Sc222 Sc 0.34622 0.59196 0.75335 0.0
O223 O 0.36272 0.63142 0.75025 0.0
C224 C 0.36342 0.6049 0.79101 0.0
C225 C 0.40807 0.66536 0.75623 0.0
C226 C 0.38538 0.56379 0.73752 0.0
C227 C 0.36303 0.70689 0.73508 0.0
C228 C 0.31681 0.64395 0.76708 0.0
C229 C 0.34022 0.60951 0.71396 0.0
O230 O 0.36914 0.63273 0.78772 0.0
O231 O 0.40552 0.64668 0.74381 0.0
O232 O 0.37139 0.56206 0.7483 0.0
O233 O 0.35549 0.70115 0.74955 0.0
O234 O 0.31988 0.61876 0.75876 0.0
O235 O 0.35454 0.62872 0.71346 0.0
O236 O 0.33082 0.66129 0.77251 0.0
O237 O 0.37349 0.6869 0.72705 0.0
O238 O 0.33664 0.59167 0.72667 0.0
O239 O 0.39378 0.67566 0.76526 0.0
O240 O 0.35359 0.58826 0.78042 0.0
O241 O 0.38848 0.58818 0.72852 0.0
Sc242 Sc 0.90536 0.65361 0.75043 0.0
Sc243 Sc 0.87159 0.60706 0.72734 0.0
Sc244 Sc 0.88865 0.58094 0.76666 0.0
O245 O 0.88853 0.61398 0.7482 0.0
C246 C 0.93443 0.60114 0.76471 0.0
C247 C 0.91089 0.63374 0.71123 0.0
C248 C 0.8876 0.53742 0.73431 0.0
C249 C 0.86574 0.68077 0.73439 0.0
C250 C 0.88868 0.64361 0.78849 0.0
C251 C 0.84292 0.58155 0.75547 0.0
O252 O 0.93165 0.6268 0.75668 0.0
O253 O 0.89619 0.61527 0.71117 0.0
O254 O 0.89413 0.54344 0.7491 0.0
O255 O 0.88032 0.68374 0.74455 0.0
O256 O 0.88319 0.61543 0.78592 0.0
O257 O 0.84572 0.59747 0.74202 0.0
O258 O 0.89803 0.65973 0.77737 0.0
O259 O 0.86227 0.6554 0.72638 0.0
O260 O 0.85702 0.5726 0.76509 0.0
O261 O 0.91504 0.65173 0.72375 0.0
O262 O 0.92025 0.58404 0.76997 0.0
O263 O 0.87807 0.55741 0.72551 0.0
Sc264 Sc 0.6557 0.34487 0.49957 0.0
Sc265 Sc 0.6224 0.38981 0.47519 0.0
Sc266 Sc 0.6383 0.41812 0.51446 0.0
O267 O 0.63879 0.38418 0.49648 0.0
C268 C 0.63849 0.35652 0.53723 0.0
C269 C 0.61685 0.31636 0.48304 0.0
C270 C 0.59278 0.41543 0.50258 0.0
C271 C 0.66228 0.36327 0.46036 0.0
C272 C 0.68425 0.39859 0.51334 0.0
C273 C 0.6371 0.46034 0.48164 0.0
O274 O 0.648 0.33998 0.52643 0.0
O275 O 0.61378 0.34112 0.47437 0.0
O276 O 0.6066 0.42521 0.51228 0.0
O277 O 0.66589 0.34551 0.47309 0.0
O278 O 0.66991 0.4159 0.51811 0.0
O279 O 0.62809 0.43957 0.473 0.0
O280 O 0.68171 0.37237 0.50579 0.0
O281 O 0.64771 0.38199 0.45971 0.0
O282 O 0.64362 0.45518 0.49652 0.0
O283 O 0.63084 0.31424 0.49384 0.0
O284 O 0.63289 0.3845 0.53421 0.0
O285 O 0.59602 0.39907 0.48934 0.0
Sc286 Sc 0.11554 0.33382 0.51691 0.0
Sc287 Sc 0.13274 0.3572 0.47727 0.0
Sc288 Sc 0.09858 0.40436 0.499 0.0
O289 O 0.11564 0.36523 0.49777 0.0
C290 C 0.06974 0.35357 0.51425 0.0
C291 C 0.11655 0.28813 0.48582 0.0
C292 C 0.09393 0.38245 0.46016 0.0
C293 C 0.16127 0.33297 0.50538 0.0
C294 C 0.11491 0.39707 0.5373 0.0
C295 C 0.13799 0.43137 0.48323 0.0
O296 O 0.08397 0.33872 0.52123 0.0
O297 O 0.12696 0.3071 0.47706 0.0
O298 O 0.09031 0.4021 0.47205 0.0
O299 O 0.14699 0.32358 0.51468 0.0
O300 O 0.10425 0.41096 0.52618 0.0
O301 O 0.14113 0.40606 0.47499 0.0
O302 O 0.12229 0.36991 0.535 0.0
O303 O 0.15866 0.35015 0.49236 0.0
O304 O 0.12384 0.43424 0.49383 0.0
O305 O 0.10892 0.29569 0.50002 0.0
O306 O 0.07249 0.37679 0.5043 0.0
O307 O 0.10802 0.36282 0.46086 0.0
Sc308 Sc 0.65467 0.40401 0.25172 0.0
Sc309 Sc 0.62031 0.35934 0.27486 0.0
Sc310 Sc 0.63783 0.33144 0.23614 0.0
O311 O 0.63759 0.36507 0.25418 0.0
C312 C 0.63808 0.39274 0.21369 0.0
C313 C 0.61552 0.43291 0.26708 0.0
C314 C 0.59194 0.33256 0.24736 0.0
C315 C 0.65953 0.38524 0.29109 0.0
C316 C 0.68361 0.35164 0.23793 0.0
C317 C 0.63621 0.28923 0.26858 0.0
O318 O 0.64824 0.40844 0.22447 0.0
O319 O 0.61207 0.40846 0.27593 0.0
O320 O 0.60629 0.32199 0.23849 0.0
O321 O 0.66343 0.40358 0.27864 0.0
O322 O 0.66943 0.33539 0.23186 0.0
O323 O 0.62573 0.3092 0.2766 0.0
O324 O 0.68078 0.37631 0.24677 0.0
O325 O 0.64506 0.36628 0.29105 0.0
O326 O 0.64415 0.29527 0.2543 0.0
O327 O 0.62965 0.43448 0.25642 0.0
O328 O 0.63152 0.36529 0.21675 0.0
O329 O 0.59449 0.35109 0.25984 0.0
Sc330 Sc 0.11391 0.41297 0.23435 0.0
Sc331 Sc 0.12965 0.38946 0.27439 0.0
Sc332 Sc 0.09697 0.34179 0.25159 0.0
O333 O 0.11353 0.38135 0.25337 0.0
C334 C 0.06811 0.39263 0.23628 0.0
C335 C 0.11416 0.45876 0.26538 0.0
C336 C 0.09053 0.36351 0.29018 0.0
C337 C 0.15924 0.4134 0.24704 0.0
C338 C 0.11412 0.34996 0.21369 0.0
C339 C 0.13592 0.31561 0.26834 0.0
O340 O 0.08237 0.40791 0.22958 0.0
O341 O 0.1241 0.43956 0.27438 0.0
O342 O 0.08807 0.34317 0.27842 0.0
O343 O 0.14533 0.42295 0.23736 0.0
O344 O 0.10322 0.33572 0.22448 0.0
O345 O 0.13794 0.34058 0.27712 0.0
O346 O 0.12126 0.37717 0.21624 0.0
O347 O 0.15612 0.39633 0.26003 0.0
O348 O 0.12253 0.31266 0.25703 0.0
O349 O 0.10684 0.45124 0.25105 0.0
O350 O 0.07083 0.36905 0.246 0.0
O351 O 0.10405 0.38413 0.28982 0.0
Sc352 Sc 0.86557 0.08294 0.48624 0.0
Sc353 Sc 0.88185 0.106 0.5262 0.0
Sc354 Sc 0.84908 0.15415 0.50375 0.0
O355 O 0.86553 0.11444 0.50533 0.0
C356 C 0.86593 0.14607 0.4657 0.0
C357 C 0.91102 0.08172 0.49862 0.0
C358 C 0.8883 0.17986 0.52022 0.0
C359 C 0.86574 0.03703 0.51723 0.0
C360 C 0.81991 0.10387 0.48849 0.0
C361 C 0.84287 0.13208 0.54231 0.0
O362 O 0.87298 0.11876 0.46815 0.0
O363 O 0.90812 0.09886 0.51163 0.0
O364 O 0.87472 0.183 0.50911 0.0
O365 O 0.85837 0.04479 0.50296 0.0
O366 O 0.82283 0.12728 0.49827 0.0
O367 O 0.85645 0.11157 0.54184 0.0
O368 O 0.83403 0.08849 0.48162 0.0
O369 O 0.87599 0.05593 0.52617 0.0
O370 O 0.84029 0.15251 0.53061 0.0
O371 O 0.89695 0.07239 0.48904 0.0
O372 O 0.85519 0.16036 0.4766 0.0
O373 O 0.89045 0.15478 0.52889 0.0
Sc374 Sc 0.40627 0.09222 0.50373 0.0
Sc375 Sc 0.37195 0.13805 0.52599 0.0
Sc376 Sc 0.38917 0.16322 0.48668 0.0
O377 O 0.38911 0.13107 0.50541 0.0
C378 C 0.43507 0.14381 0.48931 0.0
C379 C 0.411 0.11325 0.54263 0.0
C380 C 0.38744 0.20785 0.51807 0.0
C381 C 0.36707 0.06419 0.51918 0.0
C382 C 0.39011 0.10092 0.46547 0.0
C383 C 0.34336 0.16262 0.49815 0.0
O384 O 0.43229 0.12016 0.49894 0.0
O385 O 0.39697 0.13299 0.54214 0.0
O386 O 0.39558 0.2007 0.50403 0.0
O387 O 0.38099 0.06227 0.50831 0.0
O388 O 0.3826 0.12788 0.46811 0.0
O389 O 0.34601 0.14466 0.51087 0.0
O390 O 0.40083 0.0867 0.47643 0.0
O391 O 0.3641 0.08874 0.52812 0.0
O392 O 0.35764 0.17284 0.48909 0.0
O393 O 0.41438 0.09347 0.53076 0.0
O394 O 0.42085 0.15885 0.48239 0.0
O395 O 0.37698 0.18841 0.5265 0.0
Sc396 Sc 0.86353 0.16681 0.76714 0.0
Sc397 Sc 0.88089 0.141 0.72795 0.0
Sc398 Sc 0.84781 0.0938 0.75099 0.0
O399 O 0.8641 0.13373 0.74876 0.0
C400 C 0.86471 0.10458 0.78895 0.0
C401 C 0.90926 0.16803 0.75552 0.0
C402 C 0.88729 0.06737 0.73492 0.0
C403 C 0.86387 0.21011 0.73499 0.0
C404 C 0.8181 0.14476 0.76538 0.0
C405 C 0.842 0.11344 0.71187 0.0
O406 O 0.87046 0.13258 0.78617 0.0
O407 O 0.90676 0.15029 0.7427 0.0
O408 O 0.87324 0.06444 0.74559 0.0
O409 O 0.85657 0.20351 0.74944 0.0
O410 O 0.82128 0.12024 0.75651 0.0
O411 O 0.85611 0.13308 0.71193 0.0
O412 O 0.83203 0.16157 0.77143 0.0
O413 O 0.87434 0.19072 0.72657 0.0
O414 O 0.83859 0.09466 0.72422 0.0
O415 O 0.89493 0.17749 0.76477 0.0
O416 O 0.85485 0.08863 0.77807 0.0
O417 O 0.89017 0.09254 0.72653 0.0
Sc418 Sc 0.40376 0.15122 0.75128 0.0
Sc419 Sc 0.37135 0.10358 0.72756 0.0
Sc420 Sc 0.38734 0.07833 0.76737 0.0
O421 O 0.38746 0.11114 0.74881 0.0
C422 C 0.43299 0.09945 0.76599 0.0
C423 C 0.4107 0.13127 0.7123 0.0
C424 C 0.38738 0.03419 0.73525 0.0
C425 C 0.36459 0.17726 0.73423 0.0
C426 C 0.38646 0.14109 0.78908 0.0
C427 C 0.34193 0.07818 0.75516 0.0
O428 O 0.43014 0.12494 0.75782 0.0
O429 O 0.39652 0.11179 0.71203 0.0
O430 O 0.39353 0.04059 0.75011 0.0
O431 O 0.37849 0.18055 0.74503 0.0
O432 O 0.3811 0.11287 0.78645 0.0
O433 O 0.34505 0.09394 0.74169 0.0
O434 O 0.39599 0.15721 0.77809 0.0
O435 O 0.36189 0.15186 0.72601 0.0
O436 O 0.35579 0.06955 0.76513 0.0
O437 O 0.4139 0.14986 0.72477 0.0
O438 O 0.41886 0.08216 0.77122 0.0
O439 O 0.37804 0.05395 0.72616 0.0
Sc440 Sc 0.15663 0.84269 0.50393 0.0
Sc441 Sc 0.1234 0.88943 0.48049 0.0
Sc442 Sc 0.13907 0.91459 0.52045 0.0
O443 O 0.13967 0.88214 0.50169 0.0
C444 C 0.13925 0.8515 0.54172 0.0
C445 C 0.11765 0.81545 0.48706 0.0
C446 C 0.09367 0.91384 0.50813 0.0
C447 C 0.16307 0.86321 0.46506 0.0
C448 C 0.18508 0.89531 0.51872 0.0
C449 C 0.13874 0.95909 0.48847 0.0
O450 O 0.14929 0.8362 0.53075 0.0
O451 O 0.11449 0.84084 0.47893 0.0
O452 O 0.10741 0.92262 0.51818 0.0
O453 O 0.16661 0.84462 0.47743 0.0
O454 O 0.17075 0.91189 0.52425 0.0
O455 O 0.12961 0.93924 0.47927 0.0
O456 O 0.18255 0.86992 0.5104 0.0
O457 O 0.14865 0.88223 0.46484 0.0
O458 O 0.14485 0.9527 0.50335 0.0
O459 O 0.13177 0.81254 0.49769 0.0
O460 O 0.13309 0.87935 0.5393 0.0
O461 O 0.09698 0.89824 0.49465 0.0
Sc462 Sc 0.61716 0.82974 0.51717 0.0
Sc463 Sc 0.6341 0.85611 0.47796 0.0
Sc464 Sc 0.59995 0.90165 0.50065 0.0
O465 O 0.61707 0.86259 0.49866 0.0
C466 C 0.57125 0.84945 0.51508 0.0
C467 C 0.61868 0.78609 0.48516 0.0
C468 C 0.59487 0.88144 0.46158 0.0
C469 C 0.6629 0.83098 0.50571 0.0
C470 C 0.61649 0.89207 0.5387 0.0
C471 C 0.63902 0.92996 0.48481 0.0
O472 O 0.58551 0.83359 0.52134 0.0
O473 O 0.62867 0.80617 0.4768 0.0
O474 O 0.59117 0.90039 0.47379 0.0
O475 O 0.64873 0.82074 0.51488 0.0
O476 O 0.6061 0.90702 0.52781 0.0
O477 O 0.64221 0.90499 0.47633 0.0
O478 O 0.62343 0.86473 0.53606 0.0
O479 O 0.66011 0.84856 0.49287 0.0
O480 O 0.625 0.93223 0.49558 0.0
O481 O 0.61112 0.7922 0.4996 0.0
O482 O 0.57395 0.87379 0.50594 0.0
O483 O 0.60924 0.86229 0.46182 0.0
Sc484 Sc 0.15534 0.905 0.25598 0.0
Sc485 Sc 0.12196 0.85619 0.27748 0.0
Sc486 Sc 0.14138 0.83222 0.23894 0.0
O487 O 0.13958 0.86468 0.25743 0.0
C488 C 0.1393 0.89452 0.2177 0.0
C489 C 0.11513 0.92984 0.27135 0.0
C490 C 0.09554 0.82803 0.24962 0.0
C491 C 0.15989 0.88372 0.29501 0.0
C492 C 0.18613 0.85659 0.24124 0.0
C493 C 0.14047 0.78798 0.27013 0.0
O494 O 0.14927 0.91015 0.22867 0.0
O495 O 0.11253 0.9045 0.27965 0.0
O496 O 0.11061 0.81826 0.24144 0.0
O497 O 0.16334 0.90343 0.28307 0.0
O498 O 0.17251 0.84031 0.23435 0.0
O499 O 0.12856 0.80625 0.27788 0.0
O500 O 0.18248 0.87964 0.25108 0.0
O501 O 0.14619 0.86338 0.29425 0.0
O502 O 0.14952 0.79619 0.25666 0.0
O503 O 0.12926 0.93331 0.26079 0.0
O504 O 0.13328 0.86658 0.22034 0.0
O505 O 0.09678 0.84794 0.26159 0.0
Sc506 Sc 0.61305 0.91823 0.23768 0.0
Sc507 Sc 0.63004 0.893 0.27716 0.0
Sc508 Sc 0.59837 0.84441 0.25353 0.0
O509 O 0.61386 0.88511 0.25604 0.0
C510 C 0.5679 0.8945 0.23923 0.0
C511 C 0.61248 0.96167 0.26989 0.0
C512 C 0.59142 0.86352 0.29251 0.0
C513 C 0.6586 0.9205 0.24971 0.0
C514 C 0.61501 0.85628 0.21565 0.0
C515 C 0.63815 0.8198 0.26996 0.0
O516 O 0.58157 0.91218 0.23347 0.0
O517 O 0.62279 0.94248 0.27857 0.0
O518 O 0.5888 0.84444 0.28018 0.0
O519 O 0.64438 0.92928 0.24015 0.0
O520 O 0.60553 0.83978 0.22651 0.0
O521 O 0.64016 0.84489 0.27862 0.0
O522 O 0.62035 0.88444 0.21851 0.0
O523 O 0.65603 0.90343 0.26279 0.0
O524 O 0.62439 0.81631 0.25905 0.0
O525 O 0.6057 0.9549 0.25528 0.0
O526 O 0.57145 0.86974 0.24782 0.0
O527 O 0.60497 0.8841 0.29274 0.0
Sc528 Sc 0.864 0.58157 0.98647 0.0
Sc529 Sc 0.88078 0.60698 0.02594 0.0
Sc530 Sc 0.8481 0.65428 0.00265 0.0
O531 O 0.86431 0.61439 0.00494 0.0
C532 C 0.86506 0.64386 0.9647 0.0
C533 C 0.90966 0.58147 0.99843 0.0
C534 C 0.88698 0.68069 0.0194 0.0
C535 C 0.86468 0.53748 0.01821 0.0
C536 C 0.81852 0.60353 0.98801 0.0
C537 C 0.84153 0.63349 0.04153 0.0
O538 O 0.8709 0.61592 0.96748 0.0
O539 O 0.90692 0.59904 0.0113 0.0
O540 O 0.87356 0.68322 0.00814 0.0
O541 O 0.85708 0.54454 0.00395 0.0
O542 O 0.82169 0.62808 0.99686 0.0
O543 O 0.85543 0.61348 0.04152 0.0
O544 O 0.83245 0.58654 0.98209 0.0
O545 O 0.87505 0.55682 0.02675 0.0
O546 O 0.83866 0.65304 0.02942 0.0
O547 O 0.89547 0.57164 0.98911 0.0
O548 O 0.85519 0.65974 0.9756 0.0
O549 O 0.88941 0.65587 0.02821 0.0
Sc550 Sc 0.40599 0.59492 0.00539 0.0
Sc551 Sc 0.37291 0.64259 0.02809 0.0
Sc552 Sc 0.39041 0.66768 0.98883 0.0
O553 O 0.38977 0.63496 0.00737 0.0
C554 C 0.43582 0.64549 0.99091 0.0
C555 C 0.41157 0.61515 0.04449 0.0
C556 C 0.38968 0.71176 0.02066 0.0
C557 C 0.36636 0.56895 0.02136 0.0
C558 C 0.38951 0.6052 0.96727 0.0
C559 C 0.34464 0.66874 1.00019 0.0
O560 O 0.43259 0.62118 0.99995 0.0
O561 O 0.39764 0.63509 0.04423 0.0
O562 O 0.39716 0.70486 0.00631 0.0
O563 O 0.38037 0.56587 0.01066 0.0
O564 O 0.38362 0.63315 0.96994 0.0
O565 O 0.34712 0.65139 0.01316 0.0
O566 O 0.39934 0.58943 0.97824 0.0
O567 O 0.36367 0.59412 0.0298 0.0
O568 O 0.35898 0.67819 0.99097 0.0
O569 O 0.4149 0.59602 0.03227 0.0
O570 O 0.42193 0.66226 0.98474 0.0
O571 O 0.37929 0.6924 0.02917 0.0
Sc572 Sc 0.86525 0.66351 0.26651 0.0
Sc573 Sc 0.87943 0.63956 0.22596 0.0
Sc574 Sc 0.84759 0.59196 0.24988 0.0
O575 O 0.86413 0.63163 0.24752 0.0
C576 C 0.86576 0.60051 0.28757 0.0
C577 C 0.91015 0.66338 0.25279 0.0
C578 C 0.88623 0.56577 0.23233 0.0
C579 C 0.8643 0.70893 0.235 0.0
C580 C 0.81927 0.6437 0.26549 0.0
C581 C 0.83988 0.61276 0.21115 0.0
O582 O 0.87219 0.62809 0.28484 0.0
O583 O 0.90619 0.64782 0.23944 0.0
O584 O 0.87283 0.56268 0.24362 0.0
O585 O 0.85846 0.70191 0.24988 0.0
O586 O 0.82169 0.61926 0.25633 0.0
O587 O 0.85367 0.6329 0.21103 0.0
O588 O 0.83372 0.65962 0.2714 0.0
O589 O 0.87329 0.68948 0.22545 0.0
O590 O 0.83739 0.59323 0.22332 0.0
O591 O 0.89688 0.67209 0.26335 0.0
O592 O 0.85516 0.58559 0.2768 0.0
O593 O 0.88831 0.59088 0.22368 0.0
Sc594 Sc 0.40447 0.65248 0.25334 0.0
Sc595 Sc 0.3715 0.60626 0.22926 0.0
Sc596 Sc 0.38767 0.57924 0.26876 0.0
O597 O 0.38784 0.61276 0.25053 0.0
C598 C 0.43345 0.59951 0.26727 0.0
C599 C 0.41122 0.6333 0.21425 0.0
C600 C 0.38686 0.5362 0.23617 0.0
C601 C 0.36554 0.67997 0.23657 0.0
C602 C 0.3874 0.6415 0.29111 0.0
C603 C 0.34209 0.58054 0.25687 0.0
O604 O 0.4306 0.62571 0.25982 0.0
O605 O 0.3967 0.61449 0.21369 0.0
O606 O 0.39309 0.54195 0.25107 0.0
O607 O 0.37962 0.68259 0.24723 0.0
O608 O 0.38225 0.6132 0.28837 0.0
O609 O 0.34524 0.59648 0.24346 0.0
O610 O 0.39655 0.65808 0.2801 0.0
O611 O 0.36235 0.65481 0.22826 0.0
O612 O 0.35595 0.57155 0.26677 0.0
O613 O 0.4148 0.65123 0.22691 0.0
O614 O 0.41935 0.58178 0.27211 0.0
O615 O 0.37773 0.5565 0.22727 0.0
Sc616 Sc 0.15615 0.3451 0.99907 0.0
Sc617 Sc 0.12261 0.39259 0.97691 0.0
Sc618 Sc 0.13927 0.41601 0.01674 0.0
O619 O 0.13932 0.38449 0.99762 0.0
C620 C 0.13964 0.35281 0.03729 0.0
C621 C 0.11688 0.31855 0.98293 0.0
C622 C 0.09368 0.41661 0.00489 0.0
C623 C 0.16145 0.3667 0.96024 0.0
C624 C 0.18505 0.39585 0.01434 0.0
C625 C 0.13863 0.46171 0.98554 0.0
O626 O 0.15021 0.33864 0.02621 0.0
O627 O 0.11407 0.34384 0.97459 0.0
O628 O 0.1078 0.42592 0.01439 0.0
O629 O 0.16472 0.347 0.97218 0.0
O630 O 0.17083 0.41112 0.02109 0.0
O631 O 0.12852 0.44259 0.97663 0.0
O632 O 0.18229 0.37239 0.00455 0.0
O633 O 0.14755 0.38668 0.9608 0.0
O634 O 0.1459 0.45429 0.99991 0.0
O635 O 0.1308 0.31555 0.99373 0.0
O636 O 0.13247 0.38008 0.03492 0.0
O637 O 0.09651 0.39992 0.99172 0.0
Sc638 Sc 0.61454 0.32739 0.01439 0.0
Sc639 Sc 0.63345 0.35502 0.97598 0.0
Sc640 Sc 0.59974 0.40171 0.99878 0.0
O641 O 0.6159 0.36148 0.99646 0.0
C642 C 0.56932 0.35032 0.01203 0.0
C643 C 0.6166 0.2853 0.98163 0.0
C644 C 0.59475 0.38292 0.95943 0.0
C645 C 0.66072 0.32735 0.00438 0.0
C646 C 0.61531 0.38931 0.03697 0.0
C647 C 0.63967 0.4285 0.98343 0.0
O648 O 0.58283 0.33192 0.01736 0.0
O649 O 0.62679 0.3056 0.97364 0.0
O650 O 0.59058 0.40077 0.97201 0.0
O651 O 0.64612 0.31778 0.01325 0.0
O652 O 0.60675 0.4065 0.02584 0.0
O653 O 0.64315 0.40318 0.97539 0.0
O654 O 0.62005 0.36081 0.03422 0.0
O655 O 0.65866 0.34466 0.99133 0.0
O656 O 0.62505 0.43143 0.9935 0.0
O657 O 0.60902 0.29079 0.99613 0.0
O658 O 0.57304 0.3759 0.00427 0.0
O659 O 0.60931 0.36411 0.95941 0.0
Sc660 Sc 0.15573 0.40501 0.75159 0.0
Sc661 Sc 0.12204 0.35927 0.77446 0.0
Sc662 Sc 0.13788 0.33443 0.73468 0.0
O663 O 0.13852 0.3663 0.75352 0.0
C664 C 0.13864 0.39688 0.7137 0.0
C665 C 0.11724 0.43321 0.76788 0.0
C666 C 0.09242 0.3357 0.74716 0.0
C667 C 0.16147 0.38375 0.79032 0.0
C668 C 0.18393 0.35313 0.73672 0.0
C669 C 0.13682 0.28933 0.7659 0.0
O670 O 0.14989 0.41068 0.72439 0.0
O671 O 0.11467 0.40877 0.777 0.0
O672 O 0.10636 0.3253 0.73774 0.0
O673 O 0.16428 0.40388 0.77851 0.0
O674 O 0.1695 0.33849 0.72986 0.0
O675 O 0.12671 0.30877 0.77464 0.0
O676 O 0.18145 0.37672 0.74647 0.0
O677 O 0.14764 0.36365 0.78999 0.0
O678 O 0.14459 0.29659 0.75171 0.0
O679 O 0.13059 0.435 0.7565 0.0
O680 O 0.13091 0.37013 0.71641 0.0
O681 O 0.09558 0.35336 0.75991 0.0
Sc682 Sc 0.61369 0.41964 0.7368 0.0
Sc683 Sc 0.63001 0.39133 0.77602 0.0
Sc684 Sc 0.59743 0.34536 0.75142 0.0
O685 O 0.61374 0.38536 0.75466 0.0
C686 C 0.56805 0.39867 0.73825 0.0
C687 C 0.61456 0.46158 0.76993 0.0
C688 C 0.59047 0.36296 0.79068 0.0
C689 C 0.65926 0.418 0.74841 0.0
C690 C 0.61412 0.35808 0.71375 0.0
C691 C 0.63662 0.31805 0.76801 0.0
O692 O 0.582 0.41708 0.73385 0.0
O693 O 0.62333 0.44069 0.77866 0.0
O694 O 0.58696 0.34558 0.77779 0.0
O695 O 0.6454 0.42693 0.73852 0.0
O696 O 0.60543 0.34071 0.72467 0.0
O697 O 0.63958 0.34309 0.77646 0.0
O698 O 0.61881 0.38649 0.71673 0.0
O699 O 0.65615 0.40228 0.7619 0.0
O700 O 0.62253 0.31536 0.75734 0.0
O701 O 0.60863 0.45667 0.75484 0.0
O702 O 0.57111 0.37194 0.74509 0.0
O703 O 0.60492 0.38189 0.7915 0.0
C704 C 0.37898 0.75556 0.04 0.0
C705 C 0.39095 0.7448 0.02654 0.0
C706 C 0.37702 0.78778 0.04318 0.0
C707 C 0.3802 0.85959 0.04929 0.0
H708 H 0.36941 0.9029 0.00684 0.0
C709 C 0.37601 0.99524 0.03959 0.0
C710 C 0.3625 0.00622 0.02732 0.0
C711 C 0.3777 0.96303 0.04291 0.0
C712 C 0.37217 0.89111 0.01883 0.0
H713 H 0.41187 0.75929 0.00708 0.0
H714 H 0.40848 0.81531 0.01271 0.0
H715 H 0.37849 0.84769 0.00636 0.0
H716 H 0.33856 0.99244 0.01049 0.0
H717 H 0.34141 0.93645 0.01644 0.0
H718 H 0.37384 0.90353 0.06169 0.0
C719 C 0.40029 0.79885 0.02053 0.0
C720 C 0.37769 0.8596 0.01853 0.0
C721 C 0.40226 0.76674 0.01735 0.0
C722 C 0.34938 0.98472 0.01977 0.0
C723 C 0.35103 0.95264 0.02313 0.0
C724 C 0.37484 0.89144 0.04958 0.0
C725 C 0.38701 0.80972 0.03296 0.0
C726 C 0.38183 0.84351 0.03372 0.0
C727 C 0.36585 0.94137 0.03408 0.0
C728 C 0.37068 0.9074 0.03432 0.0
H729 H 0.37016 0.7393 0.04741 0.0
H730 H 0.3667 0.79554 0.05285 0.0
H731 H 0.38327 0.84765 0.06118 0.0
H732 H 0.38628 0.0112 0.0457 0.0
H733 H 0.38924 0.95498 0.05143 0.0
C734 C 0.87611 0.49286 0.03671 0.0
C735 C 0.86344 0.50432 0.02391 0.0
C736 C 0.87778 0.4605 0.03963 0.0
C737 C 0.87378 0.3888 0.04573 0.0
H738 H 0.88085 0.34514 0.0028 0.0
C739 C 0.8768 0.25269 0.0364 0.0
C740 C 0.88988 0.24146 0.02385 0.0
C741 C 0.87492 0.28501 0.03936 0.0
C742 C 0.87908 0.35701 0.01491 0.0
H743 H 0.84115 0.49096 0.00538 0.0
H744 H 0.84403 0.43473 0.01056 0.0
H745 H 0.87267 0.40074 0.00279 0.0
H746 H 0.91267 0.2552 0.00585 0.0
H747 H 0.90943 0.31135 0.0111 0.0
H748 H 0.88029 0.34459 0.05777 0.0
C749 C 0.85297 0.45071 0.01806 0.0
C750 C 0.8741 0.38876 0.0149 0.0
C751 C 0.85129 0.48295 0.01513 0.0
C752 C 0.90221 0.26303 0.01539 0.0
C753 C 0.90032 0.29522 0.01836 0.0
C754 C 0.87859 0.35672 0.04574 0.0
C755 C 0.86681 0.4391 0.02981 0.0
C756 C 0.87137 0.40503 0.03028 0.0
C757 C 0.88609 0.30659 0.02984 0.0
C758 C 0.88142 0.34063 0.03029 0.0
H759 H 0.88562 0.50867 0.04377 0.0
H760 H 0.88857 0.45218 0.04878 0.0
H761 H 0.87177 0.40083 0.05776 0.0
H762 H 0.86714 0.23672 0.0432 0.0
H763 H 0.86383 0.29316 0.04829 0.0
C764 C 0.3752 0.49239 0.21728 0.0
C765 C 0.38811 0.50337 0.23001 0.0
C766 C 0.37329 0.46011 0.21421 0.0
C767 C 0.37638 0.38833 0.20798 0.0
H768 H 0.37041 0.34465 0.25103 0.0
C769 C 0.37383 0.25247 0.2171 0.0
C770 C 0.3616 0.24095 0.2302 0.0
C771 C 0.37525 0.28481 0.21409 0.0
C772 C 0.37182 0.35653 0.23889 0.0
H773 H 0.41069 0.48943 0.24814 0.0
H774 H 0.40748 0.43334 0.24264 0.0
H775 H 0.37883 0.40011 0.25089 0.0
H776 H 0.33973 0.25411 0.24913 0.0
H777 H 0.34211 0.31034 0.24375 0.0
H778 H 0.36926 0.34428 0.19605 0.0
C779 C 0.39848 0.44958 0.23536 0.0
C780 C 0.37697 0.3882 0.23881 0.0
C781 C 0.40035 0.48171 0.23847 0.0
C782 C 0.34955 0.2622 0.23916 0.0
C783 C 0.35095 0.29443 0.23611 0.0
C784 C 0.37136 0.35634 0.20806 0.0
C785 C 0.38429 0.43839 0.22379 0.0
C786 C 0.37939 0.40445 0.22339 0.0
C787 C 0.36445 0.30613 0.22408 0.0
C788 C 0.36895 0.34022 0.22355 0.0
H789 H 0.3656 0.50849 0.2105 0.0
H790 H 0.36225 0.45211 0.20521 0.0
H791 H 0.37811 0.40037 0.19592 0.0
H792 H 0.38325 0.23674 0.2099 0.0
H793 H 0.38578 0.29318 0.20473 0.0
C794 C 0.8753 0.75419 0.21689 0.0
C795 C 0.86277 0.74217 0.22963 0.0
C796 C 0.87696 0.78667 0.21443 0.0
C797 C 0.87368 0.85833 0.20939 0.0
H798 H 0.87906 0.90066 0.25288 0.0
C799 C 0.87669 0.99384 0.21894 0.0
C800 C 0.88873 0.00524 0.2322 0.0
C801 C 0.87499 0.96152 0.21603 0.0
C802 C 0.87782 0.88916 0.24063 0.0
H803 H 0.84059 0.75452 0.24845 0.0
H804 H 0.84328 0.81099 0.24396 0.0
H805 H 0.87094 0.84512 0.25217 0.0
H806 H 0.90985 0.99175 0.25168 0.0
H807 H 0.90702 0.93551 0.24646 0.0
H808 H 0.88083 0.90275 0.19793 0.0
C809 C 0.85223 0.79541 0.23623 0.0
C810 C 0.87282 0.85744 0.24021 0.0
C811 C 0.85064 0.76305 0.23875 0.0
C812 C 0.9002 0.98378 0.24156 0.0
C813 C 0.89853 0.95154 0.23862 0.0
C814 C 0.8786 0.89033 0.20981 0.0
C815 C 0.86605 0.80758 0.22461 0.0
C816 C 0.87063 0.84166 0.22462 0.0
C817 C 0.88532 0.94005 0.22629 0.0
C818 C 0.88081 0.90598 0.22546 0.0
H819 H 0.88481 0.73872 0.20961 0.0
H820 H 0.88772 0.79538 0.20538 0.0
H821 H 0.8721 0.84672 0.1972 0.0
H822 H 0.86772 0.00972 0.21142 0.0
H823 H 0.86468 0.95334 0.20646 0.0
C824 C 0.64986 0.01638 0.98191 0.0
C825 C 0.63819 0.99317 0.97408 0.0
C826 C 0.64818 0.04782 0.97702 0.0
C827 C 0.64595 0.11251 0.96063 0.0
H828 H 0.5915 0.14126 0.9621 0.0
C829 C 0.62729 0.24414 0.96073 0.0
C830 C 0.61538 0.253 0.97463 0.0
C831 C 0.62878 0.2126 0.95592 0.0
C832 C 0.60676 0.13355 0.96149 0.0
H833 H 0.61653 0.98453 0.95421 0.0
H834 H 0.61353 0.03961 0.9458 0.0
H835 H 0.5986 0.08493 0.96198 0.0
H836 H 0.59451 0.23591 0.99347 0.0
H837 H 0.5971 0.18096 0.98503 0.0
H838 H 0.65415 0.16108 0.96099 0.0
C839 C 0.62389 0.03337 0.95576 0.0
C840 C 0.61083 0.10134 0.96127 0.0
C841 C 0.62571 0.00183 0.96053 0.0
C842 C 0.60392 0.22991 0.98279 0.0
C843 C 0.60531 0.19841 0.97788 0.0
C844 C 0.64188 0.1447 0.96072 0.0
C845 C 0.6347 0.05675 0.96429 0.0
C846 C 0.63048 0.09052 0.96138 0.0
C847 C 0.61824 0.18933 0.96477 0.0
C848 C 0.62226 0.15553 0.96169 0.0
H849 H 0.6597 0.01046 0.99231 0.0
H850 H 0.65661 0.06535 0.98391 0.0
H851 H 0.66122 0.10479 0.96059 0.0
H852 H 0.63624 0.2613 0.95407 0.0
H853 H 0.63868 0.20628 0.94563 0.0
C854 C 0.1268 0.74597 0.9666 0.0
C855 C 0.11357 0.75712 0.97904 0.0
C856 C 0.12846 0.71369 0.96344 0.0
C857 C 0.12316 0.64196 0.98792 0.0
H858 H 0.13324 0.59795 0.94555 0.0
C859 C 0.12824 0.50617 0.96654 0.0
C860 C 0.14003 0.49492 0.98 0.0
C861 C 0.12664 0.53847 0.96347 0.0
C862 C 0.13045 0.61004 0.95745 0.0
H863 H 0.0901 0.74368 0.99641 0.0
H864 H 0.0928 0.68757 0.99071 0.0
H865 H 0.1243 0.654 0.94502 0.0
H866 H 0.16093 0.5086 0.99963 0.0
H867 H 0.15819 0.56476 0.99419 0.0
H868 H 0.12916 0.59849 1.00042 0.0
C869 C 0.10228 0.70363 0.98377 0.0
C870 C 0.12539 0.64201 0.95714 0.0
C871 C 0.1007 0.73576 0.98699 0.0
C872 C 0.15145 0.51645 0.98936 0.0
C873 C 0.14985 0.54864 0.98628 0.0
C874 C 0.12835 0.61032 0.98823 0.0
C875 C 0.11684 0.69218 0.97262 0.0
C876 C 0.12157 0.65817 0.97241 0.0
C877 C 0.13681 0.56002 0.9738 0.0
C878 C 0.13209 0.594 0.97304 0.0
H879 H 0.13689 0.76188 0.96022 0.0
H880 H 0.13979 0.70549 0.95476 0.0
H881 H 0.12067 0.65389 0.99992 0.0
H882 H 0.11934 0.49023 0.95899 0.0
H883 H 0.11647 0.5466 0.95377 0.0
C884 C 0.62153 0.7455 0.7903 0.0
C885 C 0.6347 0.7547 0.77735 0.0
C886 C 0.61965 0.71384 0.79479 0.0
C887 C 0.60746 0.64569 0.7892 0.0
H888 H 0.65122 0.58677 0.79042 0.0
C889 C 0.60168 0.51673 0.76842 0.0
C890 C 0.61312 0.49391 0.77683 0.0
C891 C 0.60286 0.54831 0.77316 0.0
C892 C 0.63883 0.60292 0.79043 0.0
H893 H 0.6572 0.73806 0.75983 0.0
H894 H 0.65392 0.68293 0.76768 0.0
H895 H 0.65786 0.6432 0.79064 0.0
H896 H 0.63379 0.48615 0.79757 0.0
H897 H 0.63587 0.54142 0.80575 0.0
H898 H 0.58846 0.6054 0.78837 0.0
C899 C 0.64505 0.70019 0.77435 0.0
C900 C 0.64265 0.63521 0.79039 0.0
C901 C 0.64683 0.73179 0.76977 0.0
C902 C 0.62482 0.50312 0.79077 0.0
C903 C 0.62612 0.53479 0.79542 0.0
C904 C 0.60365 0.6134 0.78912 0.0
C905 C 0.63103 0.69079 0.78655 0.0
C906 C 0.62703 0.65689 0.78932 0.0
C907 C 0.61558 0.55778 0.78634 0.0
C908 C 0.61931 0.5917 0.78928 0.0
H909 H 0.612 0.76252 0.79647 0.0
H910 H 0.60889 0.70728 0.80437 0.0
H911 H 0.59511 0.66182 0.78824 0.0
H912 H 0.59241 0.51041 0.7577 0.0
H913 H 0.59465 0.56552 0.76584 0.0
C914 C 0.12484 0.2446 0.78405 0.0
C915 C 0.13761 0.25598 0.7713 0.0
C916 C 0.12293 0.21225 0.78685 0.0
C917 C 0.12682 0.14 0.76231 0.0
H918 H 0.12042 0.09679 0.80544 0.0
C919 C 0.12522 0.00462 0.78555 0.0
C920 C 0.1128 0.99227 0.77282 0.0
C921 C 0.12662 0.03713 0.78799 0.0
C922 C 0.12218 0.10863 0.79333 0.0
H923 H 0.15975 0.24241 0.75267 0.0
H924 H 0.1565 0.1862 0.75767 0.0
H925 H 0.12853 0.15311 0.8051 0.0
H926 H 0.09073 0.00427 0.75382 0.0
H927 H 0.0931 0.06079 0.75821 0.0
H928 H 0.12069 0.09592 0.75046 0.0
C929 C 0.14763 0.20224 0.7652 0.0
C930 C 0.12675 0.14078 0.79314 0.0
C931 C 0.14954 0.23448 0.76239 0.0
C932 C 0.10069 0.01297 0.76354 0.0
C933 C 0.10208 0.04537 0.76601 0.0
C934 C 0.12214 0.10813 0.7625 0.0
C935 C 0.13377 0.19076 0.77698 0.0
C936 C 0.12926 0.15667 0.77759 0.0
C937 C 0.11562 0.05783 0.77777 0.0
C938 C 0.11976 0.09206 0.77798 0.0
H939 H 0.11549 0.26052 0.79119 0.0
H940 H 0.11213 0.20404 0.79601 0.0
H941 H 0.12833 0.1517 0.75013 0.0
H942 H 0.1347 0.98935 0.79298 0.0
H943 H 0.1372 0.04607 0.79715 0.0
C944 C 0.37498 0.2524 0.53609 0.0
C945 C 0.38813 0.24112 0.5236 0.0
C946 C 0.3729 0.28473 0.53885 0.0
C947 C 0.37617 0.35633 0.54502 0.0
H948 H 0.37078 0.40042 0.50204 0.0
C949 C 0.37445 0.49223 0.53655 0.0
C950 C 0.36235 0.50424 0.5235 0.0
C951 C 0.37575 0.4598 0.5393 0.0
C952 C 0.37203 0.38842 0.51415 0.0
H953 H 0.41079 0.25482 0.50547 0.0
H954 H 0.40721 0.31102 0.5104 0.0
H955 H 0.37884 0.34479 0.50209 0.0
H956 H 0.34062 0.49179 0.5043 0.0
H957 H 0.3428 0.43539 0.50922 0.0
H958 H 0.36926 0.4004 0.55701 0.0
C959 C 0.3982 0.2949 0.51775 0.0
C960 C 0.37696 0.35665 0.51419 0.0
C961 C 0.40028 0.26269 0.51497 0.0
C962 C 0.35034 0.48334 0.51426 0.0
C963 C 0.35163 0.45101 0.51703 0.0
C964 C 0.37136 0.38839 0.54498 0.0
C965 C 0.38393 0.30628 0.52919 0.0
C966 C 0.37917 0.34027 0.52959 0.0
C967 C 0.36494 0.43886 0.52908 0.0
C968 C 0.36918 0.40468 0.52952 0.0
H969 H 0.36545 0.23643 0.54302 0.0
H970 H 0.36179 0.29287 0.54775 0.0
H971 H 0.37776 0.34421 0.55706 0.0
H972 H 0.38383 0.50766 0.54398 0.0
H973 H 0.38615 0.45108 0.54867 0.0
C974 C 0.85314 0.98226 0.51296 0.0
C975 C 0.8644 0.00367 0.52255 0.0
C976 C 0.8548 0.95 0.51584 0.0
C977 C 0.87618 0.88809 0.51386 0.0
H978 H 0.8799 0.84427 0.55705 0.0
C979 C 0.90433 0.76243 0.51576 0.0
C980 C 0.89162 0.74098 0.52386 0.0
C981 C 0.90232 0.79466 0.51857 0.0
C982 C 0.8789 0.85629 0.54492 0.0
H983 H 0.88492 0.00801 0.54369 0.0
H984 H 0.88787 0.95156 0.54859 0.0
H985 H 0.87105 0.90033 0.55652 0.0
H986 H 0.86805 0.73643 0.54247 0.0
H987 H 0.8645 0.79287 0.54726 0.0
H988 H 0.88389 0.84449 0.50217 0.0
C989 C 0.87778 0.95983 0.53886 0.0
C990 C 0.87389 0.88828 0.54463 0.0
C991 C 0.87612 0.99218 0.53599 0.0
C992 C 0.87802 0.75232 0.53596 0.0
C993 C 0.87599 0.78466 0.53874 0.0
C994 C 0.88132 0.85641 0.51416 0.0
C995 C 0.86774 0.93842 0.52834 0.0
C996 C 0.87238 0.90439 0.52905 0.0
C997 C 0.88756 0.80614 0.52951 0.0
C998 C 0.88279 0.84015 0.52967 0.0
H999 H 0.84373 0.99027 0.50268 0.0
H1000 H 0.84656 0.934 0.50778 0.0
H1001 H 0.87547 0.89998 0.50167 0.0
H1002 H 0.91519 0.75449 0.50657 0.0
H1003 H 0.91174 0.81071 0.51157 0.0
C1004 C 0.40052 0.97958 0.7385 0.0
C1005 C 0.38903 0.00126 0.7293 0.0
C1006 C 0.39891 0.94745 0.73528 0.0
C1007 C 0.37686 0.8863 0.73735 0.0
H1008 H 0.37311 0.84212 0.69427 0.0
C1009 C 0.34874 0.76102 0.7362 0.0
C1010 C 0.36177 0.73948 0.72856 0.0
C1011 C 0.35048 0.79312 0.73291 0.0
C1012 C 0.37409 0.85427 0.70636 0.0
H1013 H 0.36827 0.00635 0.70839 0.0
H1014 H 0.36537 0.95001 0.7029 0.0
H1015 H 0.38222 0.89813 0.69467 0.0
H1016 H 0.38555 0.73446 0.71018 0.0
H1017 H 0.38866 0.79072 0.70458 0.0
H1018 H 0.36887 0.84295 0.74913 0.0
C1019 C 0.3756 0.958 0.71259 0.0
C1020 C 0.37927 0.8862 0.70658 0.0
C1021 C 0.37724 0.99027 0.71579 0.0
C1022 C 0.37535 0.75046 0.71635 0.0
C1023 C 0.37711 0.78268 0.71309 0.0
C1024 C 0.37154 0.85472 0.73711 0.0
C1025 C 0.38576 0.93629 0.72283 0.0
C1026 C 0.38084 0.90239 0.72213 0.0
C1027 C 0.3653 0.80435 0.72195 0.0
C1028 C 0.37007 0.83834 0.72165 0.0
H1029 H 0.41002 0.98727 0.74879 0.0
H1030 H 0.40723 0.93119 0.74312 0.0
H1031 H 0.37761 0.89828 0.74951 0.0
H1032 H 0.33788 0.75331 0.74544 0.0
H1033 H 0.34088 0.80932 0.73962 0.0
C1034 C 0.87475 0.25402 0.71586 0.0
C1035 C 0.86222 0.2429 0.72884 0.0
C1036 C 0.87623 0.28625 0.71258 0.0
C1037 C 0.87259 0.35771 0.7061 0.0
H1038 H 0.87963 0.40177 0.74891 0.0
C1039 C 0.87631 0.49362 0.71529 0.0
C1040 C 0.88903 0.50464 0.72815 0.0
C1041 C 0.87456 0.46136 0.71215 0.0
C1042 C 0.8779 0.38977 0.73683 0.0
H1043 H 0.83982 0.25654 0.74721 0.0
H1044 H 0.84233 0.31261 0.74138 0.0
H1045 H 0.87091 0.34644 0.74909 0.0
H1046 H 0.91153 0.49083 0.74639 0.0
H1047 H 0.90857 0.43474 0.74079 0.0
H1048 H 0.87974 0.40153 0.69392 0.0
C1049 C 0.85134 0.29648 0.73405 0.0
C1050 C 0.87257 0.35819 0.73694 0.0
C1051 C 0.84989 0.26435 0.73735 0.0
C1052 C 0.90131 0.48307 0.73663 0.0
C1053 C 0.8996 0.45095 0.73346 0.0
C1054 C 0.87778 0.38962 0.70599 0.0
C1055 C 0.86517 0.30782 0.7222 0.0
C1056 C 0.86984 0.3418 0.72161 0.0
C1057 C 0.88555 0.43972 0.72178 0.0
C1058 C 0.88063 0.40582 0.7214 0.0
H1059 H 0.88438 0.2381 0.70898 0.0
H1060 H 0.88701 0.29437 0.70337 0.0
H1061 H 0.87062 0.34554 0.69411 0.0
H1062 H 0.86671 0.50964 0.70846 0.0
H1063 H 0.86363 0.45331 0.70306 0.0
C1064 C 0.65026 0.51529 0.48285 0.0
C1065 C 0.63808 0.49282 0.47496 0.0
C1066 C 0.64873 0.54702 0.47852 0.0
C1067 C 0.64659 0.61255 0.46311 0.0
H1068 H 0.59252 0.64255 0.46649 0.0
C1069 C 0.62887 0.74454 0.46433 0.0
C1070 C 0.61747 0.75356 0.47851 0.0
C1071 C 0.63009 0.71299 0.45952 0.0
C1072 C 0.60766 0.63449 0.46536 0.0
H1073 H 0.61567 0.48581 0.45552 0.0
H1074 H 0.61294 0.54139 0.44809 0.0
H1075 H 0.59904 0.58608 0.46552 0.0
H1076 H 0.59733 0.7367 0.49799 0.0
H1077 H 0.59947 0.68167 0.48956 0.0
H1078 H 0.65528 0.6609 0.46376 0.0
C1079 C 0.62357 0.53434 0.45768 0.0
C1080 C 0.61139 0.60221 0.46465 0.0
C1081 C 0.62524 0.50252 0.46188 0.0
C1082 C 0.60634 0.73057 0.48709 0.0
C1083 C 0.60746 0.69905 0.48218 0.0
C1084 C 0.64285 0.64482 0.46368 0.0
C1085 C 0.63491 0.55696 0.4663 0.0
C1086 C 0.63093 0.59093 0.46402 0.0
C1087 C 0.6198 0.68986 0.46867 0.0
C1088 C 0.62338 0.65606 0.46532 0.0
H1089 H 0.66039 0.50856 0.49289 0.0
H1090 H 0.65757 0.56396 0.48546 0.0
H1091 H 0.66177 0.60446 0.46253 0.0
H1092 H 0.63755 0.76162 0.45734 0.0
H1093 H 0.63953 0.70657 0.44893 0.0
C1094 C 0.15218 0.0135 0.49155 0.0
C1095 C 0.14031 0.99204 0.48258 0.0
C1096 C 0.15071 0.04566 0.48835 0.0
C1097 C 0.13062 0.10692 0.45982 0.0
H1098 H 0.12285 0.15158 0.50235 0.0
C1099 C 0.10276 0.23393 0.48913 0.0
C1100 C 0.11523 0.25487 0.48039 0.0
C1101 C 0.10428 0.20162 0.48642 0.0
C1102 C 0.12477 0.13942 0.49035 0.0
H1103 H 0.1189 0.98728 0.46214 0.0
H1104 H 0.11622 0.04365 0.4567 0.0
H1105 H 0.1309 0.096 0.50285 0.0
H1106 H 0.13783 0.25844 0.46084 0.0
H1107 H 0.14057 0.20185 0.45628 0.0
H1108 H 0.12433 0.1508 0.44738 0.0
C1109 C 0.12667 0.0355 0.46618 0.0
C1110 C 0.12971 0.10768 0.49064 0.0
C1111 C 0.12818 0.00322 0.46934 0.0
C1112 C 0.12808 0.24294 0.46786 0.0
C1113 C 0.12962 0.21052 0.46519 0.0
C1114 C 0.1258 0.13897 0.45952 0.0
C1115 C 0.1373 0.05705 0.47617 0.0
C1116 C 0.13275 0.09108 0.47542 0.0
C1117 C 0.11831 0.18954 0.47497 0.0
C1118 C 0.12273 0.15543 0.47482 0.0
H1119 H 0.16194 0.00563 0.50162 0.0
H1120 H 0.15942 0.06176 0.49597 0.0
H1121 H 0.13286 0.09462 0.4479 0.0
H1122 H 0.09247 0.24234 0.49866 0.0
H1123 H 0.09506 0.18595 0.49387 0.0
C1124 C 0.62385 0.24586 0.28744 0.0
C1125 C 0.63713 0.25647 0.27489 0.0
C1126 C 0.62186 0.21369 0.29077 0.0
C1127 C 0.62585 0.14124 0.26691 0.0
H1128 H 0.61772 0.09833 0.30992 0.0
C1129 C 0.62273 0.00609 0.28895 0.0
C1130 C 0.61047 0.99451 0.2759 0.0
C1131 C 0.62401 0.03844 0.29201 0.0
C1132 C 0.61993 0.11013 0.29785 0.0
H1133 H 0.66021 0.24193 0.25736 0.0
H1134 H 0.65677 0.18602 0.26325 0.0
H1135 H 0.62666 0.15441 0.30972 0.0
H1136 H 0.58831 0.00747 0.25717 0.0
H1137 H 0.59049 0.0637 0.26261 0.0
H1138 H 0.61926 0.09746 0.25495 0.0
C1139 C 0.6476 0.2025 0.27021 0.0
C1140 C 0.62501 0.14209 0.29773 0.0
C1141 C 0.64959 0.23454 0.26688 0.0
C1142 C 0.59818 0.01562 0.2671 0.0
C1143 C 0.59944 0.04785 0.27018 0.0
C1144 C 0.62061 0.10962 0.26702 0.0
C1145 C 0.63312 0.1917 0.28161 0.0
C1146 C 0.62817 0.15781 0.28223 0.0
C1147 C 0.61303 0.05965 0.2821 0.0
C1148 C 0.61759 0.09369 0.28245 0.0
H1149 H 0.6141 0.26214 0.29392 0.0
H1150 H 0.61059 0.20596 0.29963 0.0
H1151 H 0.62786 0.15286 0.25476 0.0
H1152 H 0.63233 0.99045 0.29604 0.0
H1153 H 0.63461 0.04691 0.30128 0.0
C1154 C 0.15453 0.73382 0.26712 0.0
C1155 C 0.14155 0.7546 0.27541 0.0
C1156 C 0.15269 0.70141 0.26939 0.0
C1157 C 0.12873 0.63836 0.29457 0.0
H1158 H 0.12681 0.59625 0.25081 0.0
C1159 C 0.10285 0.51418 0.26079 0.0
C1160 C 0.1132 0.49214 0.27072 0.0
C1161 C 0.10499 0.54632 0.26383 0.0
C1162 C 0.12711 0.6077 0.26312 0.0
H1163 H 0.11764 0.75769 0.29381 0.0
H1164 H 0.11438 0.70107 0.29762 0.0
H1165 H 0.13547 0.6516 0.25212 0.0
H1166 H 0.13259 0.48661 0.29256 0.0
H1167 H 0.13637 0.54281 0.29775 0.0
H1168 H 0.1201 0.59413 0.30547 0.0
C1169 C 0.12597 0.70989 0.28938 0.0
C1170 C 0.1324 0.6393 0.26391 0.0
C1171 C 0.12782 0.74236 0.28714 0.0
C1172 C 0.12449 0.50293 0.28459 0.0
C1173 C 0.12663 0.53515 0.28762 0.0
C1174 C 0.12354 0.6065 0.29379 0.0
C1175 C 0.13783 0.68909 0.27997 0.0
C1176 C 0.13327 0.65501 0.27961 0.0
C1177 C 0.1175 0.55713 0.27685 0.0
C1178 C 0.12254 0.59097 0.27802 0.0
H1179 H 0.16547 0.74244 0.25819 0.0
H1180 H 0.16234 0.6859 0.26226 0.0
H1181 H 0.12928 0.64992 0.30685 0.0
H1182 H 0.0938 0.50674 0.25015 0.0
H1183 H 0.09743 0.56279 0.25556 0.0
C1184 C 0.35458 0.17952 0.94094 0.0
C1185 C 0.36613 0.15518 0.94788 0.0
C1186 C 0.35704 0.18854 0.92387 0.0
C1187 C 0.39112 0.18113 0.88671 0.0
H1188 H 0.34307 0.18084 0.85981 0.0
C1189 C 0.367 0.1413 0.81611 0.0
C1190 C 0.38207 0.15461 0.80609 0.0
C1191 C 0.3642 0.15077 0.83294 0.0
C1192 C 0.35663 0.18124 0.86714 0.0
H1193 H 0.39011 0.12264 0.94265 0.0
H1194 H 0.3944 0.13832 0.91321 0.0
H1195 H 0.34092 0.18042 0.89082 0.0
H1196 H 0.40545 0.18947 0.80573 0.0
H1197 H 0.40064 0.20597 0.83537 0.0
H1198 H 0.40683 0.18009 0.86306 0.0
C1199 C 0.38344 0.15052 0.92081 0.0
C1200 C 0.35539 0.18133 0.88493 0.0
C1201 C 0.38084 0.1413 0.93769 0.0
C1202 C 0.39371 0.17876 0.81311 0.0
C1203 C 0.39103 0.18806 0.8301 0.0
C1204 C 0.39235 0.18115 0.86893 0.0
C1205 C 0.37132 0.17376 0.91354 0.0
C1206 C 0.37263 0.18009 0.89492 0.0
C1207 C 0.37647 0.17371 0.84031 0.0
C1208 C 0.37512 0.18003 0.85893 0.0
H1209 H 0.34311 0.19064 0.94845 0.0
H1210 H 0.34753 0.20665 0.91866 0.0
H1211 H 0.40468 0.18062 0.89405 0.0
H1212 H 0.35765 0.12279 0.81109 0.0
H1213 H 0.35301 0.13891 0.84044 0.0
C1214 C 0.85789 0.06637 0.81286 0.0
C1215 C 0.86917 0.09106 0.80596 0.0
C1216 C 0.86081 0.05674 0.82977 0.0
C1217 C 0.89549 0.06419 0.86664 0.0
H1218 H 0.84775 0.06075 0.89388 0.0
C1219 C 0.87075 0.10081 0.93763 0.0
C1220 C 0.8864 0.08878 0.94746 0.0
C1221 C 0.86813 0.09139 0.92078 0.0
C1222 C 0.86124 0.06143 0.88645 0.0
H1223 H 0.89318 0.12359 0.81111 0.0
H1224 H 0.89815 0.10705 0.84029 0.0
H1225 H 0.84527 0.0621 0.86294 0.0
H1226 H 0.91101 0.05611 0.94747 0.0
H1227 H 0.90646 0.03961 0.91781 0.0
H1228 H 0.91142 0.06557 0.89018 0.0
C1229 C 0.8871 0.09494 0.83277 0.0
C1230 C 0.85982 0.06185 0.86868 0.0
C1231 C 0.88409 0.10468 0.81602 0.0
C1232 C 0.89883 0.06584 0.94024 0.0
C1233 C 0.89629 0.05655 0.92323 0.0
C1234 C 0.89691 0.06378 0.88441 0.0
C1235 C 0.87523 0.07134 0.84002 0.0
C1236 C 0.8769 0.06445 0.85857 0.0
C1237 C 0.88112 0.06972 0.9132 0.0
C1238 C 0.87977 0.06361 0.89455 0.0
H1239 H 0.84629 0.05537 0.80545 0.0
H1240 H 0.85151 0.03831 0.83493 0.0
H1241 H 0.90896 0.06566 0.85923 0.0
H1242 H 0.86079 0.11834 0.9428 0.0
H1243 H 0.85645 0.10237 0.91344 0.0
C1244 C 0.36937 0.09177 0.43968 0.0
C1245 C 0.38731 0.08713 0.44837 0.0
C1246 C 0.36753 0.0834 0.42255 0.0
C1247 C 0.39613 0.08411 0.38464 0.0
H1248 H 0.35339 0.03703 0.36386 0.0
C1249 C 0.38707 0.08599 0.31211 0.0
C1250 C 0.36775 0.08682 0.30567 0.0
C1251 C 0.39056 0.07793 0.32909 0.0
C1252 C 0.36531 0.05059 0.36939 0.0
H1253 H 0.41718 0.06917 0.44616 0.0
H1254 H 0.41417 0.05554 0.41588 0.0
H1255 H 0.35691 0.03758 0.39482 0.0
H1256 H 0.33691 0.0793 0.31164 0.0
H1257 H 0.34268 0.06703 0.34153 0.0
H1258 H 0.40377 0.09946 0.35972 0.0
C1259 C 0.40146 0.06509 0.4225 0.0
C1260 C 0.36741 0.05056 0.38713 0.0
C1261 C 0.40314 0.07274 0.4398 0.0
C1262 C 0.35198 0.07837 0.31631 0.0
C1263 C 0.35538 0.07123 0.33347 0.0
C1264 C 0.39378 0.0848 0.36698 0.0
C1265 C 0.38375 0.07092 0.41367 0.0
C1266 C 0.38274 0.06757 0.39491 0.0
C1267 C 0.37471 0.07169 0.34026 0.0
C1268 C 0.37818 0.06837 0.35903 0.0
H1269 H 0.35694 0.10284 0.446 0.0
H1270 H 0.35378 0.08836 0.416 0.0
H1271 H 0.40788 0.09786 0.39036 0.0
H1272 H 0.39947 0.09235 0.30407 0.0
H1273 H 0.40571 0.07751 0.33352 0.0
C1274 C 0.86832 0.15754 0.31471 0.0
C1275 C 0.88613 0.16222 0.30583 0.0
C1276 C 0.86674 0.16573 0.33189 0.0
C1277 C 0.89603 0.16428 0.3694 0.0
H1278 H 0.85372 0.21097 0.39109 0.0
C1279 C 0.88855 0.16115 0.44208 0.0
C1280 C 0.86938 0.16031 0.44885 0.0
C1281 C 0.89166 0.16947 0.42507 0.0
C1282 C 0.86553 0.19751 0.38532 0.0
H1283 H 0.91603 0.18012 0.30777 0.0
H1284 H 0.91348 0.19346 0.33811 0.0
H1285 H 0.85659 0.21098 0.36009 0.0
H1286 H 0.83842 0.16811 0.44343 0.0
H1287 H 0.84353 0.18082 0.41351 0.0
H1288 H 0.9042 0.14848 0.39412 0.0
C1289 C 0.90066 0.18402 0.3316 0.0
C1290 C 0.86726 0.19785 0.36754 0.0
C1291 C 0.90208 0.17656 0.31427 0.0
C1292 C 0.85339 0.16903 0.43852 0.0
C1293 C 0.85641 0.17642 0.42133 0.0
C1294 C 0.89405 0.16327 0.38709 0.0
C1295 C 0.8831 0.17806 0.34063 0.0
C1296 C 0.88243 0.18101 0.35943 0.0
C1297 C 0.87558 0.17596 0.4142 0.0
C1298 C 0.87863 0.17957 0.39538 0.0
H1299 H 0.85581 0.14647 0.3085 0.0
H1300 H 0.8531 0.16067 0.33859 0.0
H1301 H 0.90766 0.15064 0.36343 0.0
H1302 H 0.90113 0.1546 0.44986 0.0
H1303 H 0.90671 0.16987 0.42039 0.0
C1304 C 0.63454 0.85641 0.18868 0.0
C1305 C 0.61915 0.84344 0.19847 0.0
C1306 C 0.63699 0.84799 0.17165 0.0
C1307 C 0.64338 0.81913 0.13681 0.0
H1308 H 0.59531 0.82638 0.11021 0.0
C1309 C 0.64488 0.82266 0.0631 0.0
C1310 C 0.63431 0.84818 0.05623 0.0
C1311 C 0.64223 0.81389 0.08017 0.0
C1312 C 0.60886 0.82405 0.11746 0.0
H1313 H 0.59483 0.81024 0.19822 0.0
H1314 H 0.59902 0.79564 0.16823 0.0
H1315 H 0.59335 0.82512 0.14122 0.0
H1316 H 0.61191 0.88336 0.06168 0.0
H1317 H 0.60732 0.86811 0.09119 0.0
H1318 H 0.65896 0.81975 0.11308 0.0
C1319 C 0.60915 0.81242 0.17384 0.0
C1320 C 0.60772 0.823 0.13523 0.0
C1321 C 0.60684 0.82061 0.19103 0.0
C1322 C 0.6204 0.86373 0.06656 0.0
C1323 C 0.61763 0.85479 0.08348 0.0
C1324 C 0.64451 0.82003 0.11904 0.0
C1325 C 0.62402 0.82653 0.16388 0.0
C1326 C 0.62502 0.82159 0.14513 0.0
C1327 C 0.62876 0.83018 0.09061 0.0
C1328 C 0.6273 0.82357 0.10918 0.0
H1329 H 0.64437 0.87393 0.19405 0.0
H1330 H 0.64845 0.85959 0.16434 0.0
H1331 H 0.65697 0.81769 0.14408 0.0
H1332 H 0.6557 0.81018 0.0555 0.0
H1333 H 0.65094 0.7947 0.08527 0.0
C1334 C 0.11972 0.89595 0.19077 0.0
C1335 C 0.13529 0.9081 0.20064 0.0
C1336 C 0.1173 0.90506 0.17384 0.0
C1337 C 0.11099 0.93467 0.13928 0.0
H1338 H 0.15901 0.92868 0.11252 0.0
C1339 C 0.10879 0.93076 0.06562 0.0
C1340 C 0.11973 0.90567 0.05871 0.0
C1341 C 0.11155 0.93988 0.08262 0.0
C1342 C 0.14546 0.93064 0.11981 0.0
H1343 H 0.15998 0.94061 0.20067 0.0
H1344 H 0.15579 0.95651 0.17087 0.0
H1345 H 0.16106 0.92909 0.1435 0.0
H1346 H 0.14297 0.8718 0.064 0.0
H1347 H 0.14769 0.88754 0.09337 0.0
H1348 H 0.09533 0.93433 0.1156 0.0
C1349 C 0.14551 0.93977 0.17631 0.0
C1350 C 0.14666 0.93123 0.13758 0.0
C1351 C 0.14783 0.93085 0.1934 0.0
C1352 C 0.13416 0.89106 0.06891 0.0
C1353 C 0.13702 0.90031 0.08576 0.0
C1354 C 0.1098 0.93414 0.1215 0.0
C1355 C 0.13044 0.92645 0.16624 0.0
C1356 C 0.12939 0.93212 0.14755 0.0
C1357 C 0.12549 0.92437 0.09297 0.0
C1358 C 0.12699 0.93098 0.11156 0.0
H1359 H 0.1097 0.87854 0.19597 0.0
H1360 H 0.10568 0.89401 0.16647 0.0
H1361 H 0.09742 0.93582 0.14657 0.0
H1362 H 0.09757 0.94252 0.05812 0.0
H1363 H 0.10253 0.95867 0.08776 0.0
C1364 C 0.63897 0.90701 0.56242 0.0
C1365 C 0.61979 0.90571 0.5557 0.0
C1366 C 0.64202 0.91483 0.5795 0.0
C1367 C 0.61557 0.94042 0.61957 0.0
H1368 H 0.65842 0.89436 0.64092 0.0
C1369 C 0.61905 0.89798 0.68972 0.0
C1370 C 0.63659 0.90403 0.69875 0.0
C1371 C 0.61741 0.90622 0.67256 0.0
C1372 C 0.64658 0.90775 0.6351 0.0
H1373 H 0.58874 0.91208 0.56126 0.0
H1374 H 0.59375 0.92385 0.5913 0.0
H1375 H 0.65495 0.89321 0.61021 0.0
H1376 H 0.66594 0.92421 0.69709 0.0
H1377 H 0.66331 0.93755 0.66675 0.0
H1378 H 0.60646 0.95258 0.64495 0.0
C1379 C 0.60667 0.92026 0.5834 0.0
C1380 C 0.64459 0.90733 0.6174 0.0
C1381 C 0.60371 0.91339 0.56615 0.0
C1382 C 0.65221 0.91953 0.69046 0.0
C1383 C 0.65075 0.92703 0.67313 0.0
C1384 C 0.61731 0.94015 0.63735 0.0
C1385 C 0.62587 0.9203 0.59047 0.0
C1386 C 0.62892 0.92335 0.60931 0.0
C1387 C 0.63344 0.91996 0.66399 0.0
C1388 C 0.63273 0.92356 0.64524 0.0
H1389 H 0.65161 0.90124 0.55452 0.0
H1390 H 0.65707 0.91564 0.58415 0.0
H1391 H 0.60356 0.95366 0.61395 0.0
H1392 H 0.60679 0.88607 0.69582 0.0
H1393 H 0.60398 0.9003 0.66575 0.0
C1394 C 0.11583 0.83732 0.5649 0.0
C1395 C 0.13516 0.83733 0.55848 0.0
C1396 C 0.11214 0.82862 0.58177 0.0
C1397 C 0.13668 0.79766 0.62163 0.0
H1398 H 0.09502 0.8459 0.64331 0.0
C1399 C 0.13332 0.83592 0.6924 0.0
C1400 C 0.1152 0.83252 0.70096 0.0
C1401 C 0.13505 0.82765 0.67525 0.0
C1402 C 0.10649 0.83185 0.63739 0.0
H1403 H 0.16581 0.82775 0.56434 0.0
H1404 H 0.15972 0.81438 0.59405 0.0
H1405 H 0.09927 0.84903 0.61273 0.0
H1406 H 0.08488 0.81677 0.69855 0.0
H1407 H 0.08773 0.80329 0.66824 0.0
H1408 H 0.14472 0.78278 0.64685 0.0
C1409 C 0.14714 0.81972 0.58606 0.0
C1410 C 0.10893 0.83345 0.61975 0.0
C1411 C 0.15072 0.8275 0.569 0.0
C1412 C 0.09907 0.81927 0.69228 0.0
C1413 C 0.10066 0.81175 0.67496 0.0
C1414 C 0.13451 0.79672 0.63937 0.0
C1415 C 0.12781 0.8209 0.59285 0.0
C1416 C 0.12421 0.81669 0.61155 0.0
C1417 C 0.11856 0.81657 0.66621 0.0
C1418 C 0.1195 0.81406 0.6474 0.0
H1419 H 0.10358 0.84471 0.55695 0.0
H1420 H 0.09697 0.82882 0.58618 0.0
H1421 H 0.14835 0.78382 0.61591 0.0
H1422 H 0.14596 0.84619 0.69881 0.0
H1423 H 0.14896 0.83185 0.66877 0.0
C1424 C 0.39353 0.68076 0.31466 0.0
C1425 C 0.38307 0.65475 0.30822 0.0
C1426 C 0.39076 0.6906 0.33155 0.0
C1427 C 0.35739 0.68142 0.36912 0.0
H1428 H 0.40548 0.69078 0.39547 0.0
C1429 C 0.38445 0.65047 0.44009 0.0
C1430 C 0.36849 0.66148 0.4499 0.0
C1431 C 0.38664 0.65963 0.42315 0.0
C1432 C 0.39188 0.68847 0.38829 0.0
H1433 H 0.36068 0.61988 0.31424 0.0
H1434 H 0.35595 0.63684 0.34341 0.0
H1435 H 0.40736 0.68795 0.36451 0.0
H1436 H 0.34291 0.69218 0.44986 0.0
H1437 H 0.3467 0.70821 0.42003 0.0
H1438 H 0.34203 0.67997 0.39292 0.0
C1439 C 0.36625 0.6498 0.33552 0.0
C1440 C 0.39295 0.68716 0.37051 0.0
C1441 C 0.36912 0.63985 0.31878 0.0
C1442 C 0.35537 0.68333 0.44263 0.0
C1443 C 0.35746 0.69231 0.42553 0.0
C1444 C 0.35632 0.68276 0.38689 0.0
C1445 C 0.37729 0.67488 0.34225 0.0
C1446 C 0.37578 0.68244 0.36074 0.0
C1447 C 0.37288 0.67993 0.41548 0.0
C1448 C 0.37364 0.68512 0.39672 0.0
H1449 H 0.40438 0.69277 0.30687 0.0
H1450 H 0.3994 0.71015 0.33632 0.0
H1451 H 0.34384 0.67828 0.36195 0.0
H1452 H 0.39491 0.63377 0.44533 0.0
H1453 H 0.39855 0.64932 0.41581 0.0
C1454 C 0.8981 0.56538 0.43953 0.0
C1455 C 0.88693 0.59018 0.44647 0.0
C1456 C 0.8953 0.55609 0.42254 0.0
C1457 C 0.86086 0.56441 0.38555 0.0
H1458 H 0.90859 0.55927 0.35839 0.0
C1459 C 0.88591 0.59837 0.31418 0.0
C1460 C 0.87001 0.58665 0.30453 0.0
C1461 C 0.88854 0.58931 0.3311 0.0
C1462 C 0.8951 0.56045 0.36579 0.0
H1463 H 0.86329 0.62337 0.44123 0.0
H1464 H 0.85853 0.60739 0.41193 0.0
H1465 H 0.91105 0.56113 0.38934 0.0
H1466 H 0.84498 0.55483 0.30491 0.0
H1467 H 0.84957 0.53891 0.33466 0.0
H1468 H 0.84497 0.56569 0.362 0.0
C1469 C 0.8694 0.59494 0.41948 0.0
C1470 C 0.8965 0.56117 0.38357 0.0
C1471 C 0.87228 0.60434 0.43631 0.0
C1472 C 0.85738 0.56427 0.31199 0.0
C1473 C 0.85993 0.55535 0.32906 0.0
C1474 C 0.85946 0.56369 0.36779 0.0
C1475 C 0.88111 0.57114 0.41223 0.0
C1476 C 0.87943 0.56431 0.39366 0.0
C1477 C 0.8753 0.56834 0.33893 0.0
C1478 C 0.8766 0.56284 0.35766 0.0
H1479 H 0.90949 0.55397 0.44699 0.0
H1480 H 0.90447 0.5375 0.41738 0.0
H1481 H 0.84739 0.5663 0.39294 0.0
H1482 H 0.89602 0.61549 0.30882 0.0
H1483 H 0.90039 0.60013 0.33828 0.0
C1484 C 0.38256 0.60686 0.81823 0.0
C1485 C 0.36785 0.59241 0.80826 0.0
C1486 C 0.38557 0.5979 0.83511 0.0
C1487 C 0.35862 0.56534 0.87137 0.0
H1488 H 0.41025 0.56969 0.89276 0.0
C1489 C 0.39769 0.56875 0.94289 0.0
C1490 C 0.38535 0.59169 0.95021 0.0
C1491 C 0.39513 0.55978 0.92583 0.0
C1492 C 0.39574 0.56776 0.88702 0.0
H1493 H 0.34532 0.55613 0.80813 0.0
H1494 H 0.35055 0.54049 0.83783 0.0
H1495 H 0.40771 0.56966 0.8618 0.0
H1496 H 0.35987 0.6216 0.94569 0.0
H1497 H 0.35545 0.60606 0.91625 0.0
H1498 H 0.34662 0.56426 0.89659 0.0
C1499 C 0.35967 0.55894 0.83249 0.0
C1500 C 0.39427 0.56809 0.86925 0.0
C1501 C 0.35676 0.56777 0.81545 0.0
C1502 C 0.36975 0.60403 0.94043 0.0
C1503 C 0.36709 0.59489 0.92354 0.0
C1504 C 0.36008 0.56505 0.88914 0.0
C1505 C 0.37391 0.57429 0.8426 0.0
C1506 C 0.37566 0.56799 0.86121 0.0
C1507 C 0.38001 0.57324 0.91586 0.0
C1508 C 0.37863 0.56736 0.89719 0.0
H1509 H 0.39149 0.62578 0.81311 0.0
H1510 H 0.39648 0.61056 0.84253 0.0
H1511 H 0.34405 0.56533 0.86564 0.0
H1512 H 0.40985 0.55883 0.95008 0.0
H1513 H 0.40525 0.54285 0.92032 0.0
C1514 C 0.89642 0.68093 0.8126 0.0
C1515 C 0.88456 0.65706 0.80558 0.0
C1516 C 0.89394 0.69007 0.82966 0.0
C1517 C 0.85967 0.6832 0.86684 0.0
H1518 H 0.90782 0.68279 0.8936 0.0
C1519 C 0.88436 0.64406 0.93757 0.0
C1520 C 0.86924 0.65723 0.9476 0.0
C1521 C 0.88698 0.6533 0.92068 0.0
C1522 C 0.89422 0.68318 0.88631 0.0
H1523 H 0.86 0.62557 0.81064 0.0
H1524 H 0.85573 0.64135 0.84005 0.0
H1525 H 0.90985 0.68221 0.86262 0.0
H1526 H 0.84558 0.69163 0.94788 0.0
H1527 H 0.85012 0.70779 0.91817 0.0
H1528 H 0.84404 0.68225 0.89053 0.0
C1529 C 0.86692 0.65315 0.83254 0.0
C1530 C 0.89539 0.6832 0.86852 0.0
C1531 C 0.86951 0.64386 0.81566 0.0
C1532 C 0.85736 0.68103 0.94051 0.0
C1533 C 0.85988 0.69012 0.92346 0.0
C1534 C 0.8585 0.68322 0.88463 0.0
C1535 C 0.87938 0.67583 0.83991 0.0
C1536 C 0.87813 0.68206 0.85857 0.0
C1537 C 0.8745 0.67589 0.91325 0.0
C1538 C 0.87576 0.68206 0.89459 0.0
H1539 H 0.90816 0.69155 0.80518 0.0
H1540 H 0.90369 0.70779 0.83492 0.0
H1541 H 0.84608 0.68282 0.85955 0.0
H1542 H 0.89389 0.62583 0.94262 0.0
H1543 H 0.89822 0.64151 0.9132 0.0
C1544 C 0.63276 0.36049 0.68631 0.0
C1545 C 0.61843 0.34563 0.69649 0.0
C1546 C 0.63559 0.35146 0.66941 0.0
C1547 C 0.64403 0.32091 0.63535 0.0
H1548 H 0.596 0.31801 0.60846 0.0
C1549 C 0.64634 0.32026 0.56172 0.0
C1550 C 0.63438 0.34378 0.55446 0.0
C1551 C 0.64388 0.31165 0.57883 0.0
C1552 C 0.60956 0.31849 0.6158 0.0
H1553 H 0.59633 0.3087 0.69701 0.0
H1554 H 0.60116 0.29306 0.66725 0.0
H1555 H 0.59384 0.31904 0.63947 0.0
H1556 H 0.60968 0.37519 0.55917 0.0
H1557 H 0.60539 0.3602 0.58874 0.0
H1558 H 0.65971 0.32209 0.61168 0.0
C1559 C 0.61018 0.31177 0.67246 0.0
C1560 C 0.60833 0.31878 0.63358 0.0
C1561 C 0.6075 0.3206 0.68952 0.0
C1562 C 0.61925 0.35716 0.56438 0.0
C1563 C 0.61667 0.34834 0.58134 0.0
C1564 C 0.64526 0.32047 0.61758 0.0
C1565 C 0.62407 0.32747 0.66215 0.0
C1566 C 0.62553 0.32112 0.64355 0.0
C1567 C 0.62923 0.32605 0.58891 0.0
C1568 C 0.62802 0.32037 0.60759 0.0
H1569 H 0.64155 0.37971 0.69129 0.0
H1570 H 0.64623 0.36433 0.66182 0.0
H1571 H 0.65757 0.32231 0.64269 0.0
H1572 H 0.65813 0.30952 0.55442 0.0
H1573 H 0.65371 0.29423 0.58428 0.0
C1574 C 0.15127 0.41905 0.68637 0.0
C1575 C 0.13526 0.41107 0.69684 0.0
C1576 C 0.14818 0.42662 0.66922 0.0
C1577 C 0.10998 0.41494 0.63539 0.0
H1578 H 0.14792 0.46093 0.60801 0.0
C1579 C 0.10189 0.42644 0.56256 0.0
C1580 C 0.11769 0.41146 0.55425 0.0
C1581 C 0.10342 0.43447 0.57981 0.0
C1582 C 0.13711 0.44831 0.61557 0.0
H1583 H 0.10342 0.40694 0.69818 0.0
H1584 H 0.09775 0.42249 0.66876 0.0
H1585 H 0.151 0.46121 0.639 0.0
H1586 H 0.1479 0.39517 0.55701 0.0
H1587 H 0.15079 0.41028 0.58694 0.0
H1588 H 0.09605 0.40245 0.61186 0.0
C1589 C 0.11285 0.42136 0.67331 0.0
C1590 C 0.13896 0.44813 0.63333 0.0
C1591 C 0.11602 0.41286 0.69027 0.0
C1592 C 0.13549 0.40669 0.56313 0.0
C1593 C 0.13718 0.41543 0.58021 0.0
C1594 C 0.10789 0.41579 0.61771 0.0
C1595 C 0.12891 0.42708 0.66229 0.0
C1596 C 0.1257 0.43075 0.64352 0.0
C1597 C 0.12095 0.42842 0.58886 0.0
C1598 C 0.12168 0.43185 0.60761 0.0
H1599 H 0.16628 0.41743 0.69115 0.0
H1600 H 0.16103 0.43041 0.66128 0.0
H1601 H 0.09969 0.40061 0.64253 0.0
H1602 H 0.08795 0.43012 0.55605 0.0
H1603 H 0.0907 0.44442 0.58624 0.0
C1604 C 0.64705 0.42809 0.18906 0.0
C1605 C 0.63436 0.40568 0.19642 0.0
C1606 C 0.64487 0.4366 0.17189 0.0
C1607 C 0.64609 0.42754 0.13318 0.0
H1608 H 0.59484 0.4309 0.11107 0.0
C1609 C 0.63371 0.38718 0.06452 0.0
C1610 C 0.61951 0.40205 0.0542 0.0
C1611 C 0.63648 0.3964 0.0814 0.0
C1612 C 0.6093 0.43062 0.117 0.0
H1613 H 0.6087 0.37624 0.19183 0.0
H1614 H 0.60494 0.39098 0.16219 0.0
H1615 H 0.59685 0.4325 0.14206 0.0
H1616 H 0.5976 0.43925 0.05342 0.0
H1617 H 0.60235 0.45532 0.08314 0.0
H1618 H 0.65851 0.42478 0.10814 0.0
C1619 C 0.61656 0.40208 0.16953 0.0
C1620 C 0.61044 0.43121 0.13479 0.0
C1621 C 0.61883 0.39339 0.18655 0.0
C1622 C 0.60866 0.42731 0.06102 0.0
C1623 C 0.6113 0.43638 0.07806 0.0
C1624 C 0.64495 0.42687 0.1154 0.0
C1625 C 0.62981 0.4232 0.16184 0.0
C1626 C 0.62881 0.4286 0.14311 0.0
C1627 C 0.62505 0.42067 0.08852 0.0
C1628 C 0.6265 0.42732 0.10711 0.0
H1629 H 0.65916 0.43798 0.19631 0.0
H1630 H 0.65524 0.45313 0.16638 0.0
H1631 H 0.66048 0.42535 0.13913 0.0
H1632 H 0.64245 0.36777 0.05968 0.0
H1633 H 0.647 0.38347 0.08908 0.0
C1634 C 0.13696 0.33406 0.1904 0.0
C1635 C 0.11766 0.33581 0.19685 0.0
C1636 C 0.14027 0.32598 0.17339 0.0
C1637 C 0.11443 0.30064 0.13299 0.0
H1638 H 0.15776 0.3464 0.1122 0.0
C1639 C 0.11885 0.34366 0.06306 0.0
C1640 C 0.13665 0.33852 0.05425 0.0
C1641 C 0.11695 0.3348 0.08011 0.0
C1642 C 0.14579 0.33306 0.11786 0.0
H1643 H 0.08668 0.32987 0.19088 0.0
H1644 H 0.09219 0.31761 0.16096 0.0
H1645 H 0.15383 0.34741 0.14286 0.0
H1646 H 0.16621 0.31916 0.05615 0.0
H1647 H 0.16311 0.30466 0.0863 0.0
H1648 H 0.10566 0.28869 0.1075 0.0
C1649 C 0.10497 0.32108 0.16902 0.0
C1650 C 0.14354 0.33341 0.13553 0.0
C1651 C 0.10173 0.32822 0.1862 0.0
C1652 C 0.15227 0.32313 0.06261 0.0
C1653 C 0.15054 0.31498 0.07983 0.0
C1654 C 0.11644 0.30097 0.11524 0.0
C1655 C 0.1243 0.32068 0.16221 0.0
C1656 C 0.12767 0.31755 0.14342 0.0
C1657 C 0.13299 0.32131 0.0888 0.0
C1658 C 0.13203 0.31746 0.10753 0.0
H1659 H 0.14948 0.33975 0.19844 0.0
H1660 H 0.15541 0.32489 0.16894 0.0
H1661 H 0.10228 0.28752 0.13846 0.0
H1662 H 0.10659 0.3555 0.0569 0.0
H1663 H 0.10333 0.34016 0.08678 0.0
C1664 C 0.56857 0.9552 0.01461 0.0
C1665 C 0.57239 0.92779 0.00517 0.0
C1666 C 0.55002 0.96962 0.01385 0.0
C1667 C 0.50724 0.97566 0.9849 0.0
H1668 H 0.48384 0.02136 0.02252 0.0
C1669 C 0.42955 0.03501 0.98368 0.0
C1670 C 0.42788 0.06387 0.99231 0.0
C1671 C 0.4474 0.01831 0.98396 0.0
C1672 C 0.49032 0.00895 0.01185 0.0
H1673 H 0.55921 0.89253 0.98872 0.0
H1674 H 0.52674 0.91722 0.98778 0.0
H1675 H 0.51344 0.98994 0.0273 0.0
H1676 H 0.4441 0.09926 0.00652 0.0
H1677 H 0.47514 0.07035 0.0068 0.0
H1678 H 0.48392 0.99464 0.9695 0.0
C1679 C 0.53826 0.92815 0.99532 0.0
C1680 C 0.50726 0.9909 0.0146 0.0
C1681 C 0.55683 0.91386 0.99599 0.0
C1682 C 0.44482 0.07687 0.99995 0.0
C1683 C 0.46257 0.06023 1.00024 0.0
C1684 C 0.49019 0.99359 0.98217 0.0
C1685 C 0.53484 0.95679 0.00375 0.0
C1686 C 0.51605 0.97427 1.00113 0.0
C1687 C 0.46382 0.03023 0.99286 0.0
C1688 C 0.48171 0.01072 0.99558 0.0
H1689 H 0.58024 0.96664 0.02175 0.0
H1690 H 0.54795 0.99175 0.02044 0.0
H1691 H 0.5138 0.96357 0.97416 0.0
H1692 H 0.41677 0.02431 0.97773 0.0
H1693 H 0.44798 0.99525 0.97811 0.0
C1694 C 0.80836 0.1636 0.00378 0.0
C1695 C 0.82449 0.17652 0.99488 0.0
C1696 C 0.79027 0.17935 0.00436 0.0
C1697 C 0.77105 0.25968 0.00206 0.0
H1698 H 0.71977 0.21888 1.00165 0.0
C1699 C 0.69717 0.32703 0.99919 0.0
C1700 C 0.68067 0.31435 0.00765 0.0
C1701 C 0.7152 0.31107 0.99913 0.0
C1702 C 0.73401 0.23053 0.00208 0.0
H1703 H 0.83375 0.21496 0.97854 0.0
H1704 H 0.80202 0.24224 0.9794 0.0
H1705 H 0.74951 0.18792 0.9963 0.0
H1706 H 0.6706 0.27613 0.02379 0.0
H1707 H 0.70225 0.24847 0.02387 0.0
H1708 H 0.75558 0.30228 0.00784 0.0
C1709 C 0.80356 0.22021 0.9862 0.0
C1710 C 0.75102 0.21282 0.9989 0.0
C1711 C 0.82167 0.20438 0.98555 0.0
C1712 C 0.683 0.28652 0.01711 0.0
C1713 C 0.70106 0.27048 0.017 0.0
C1714 C 0.75405 0.27737 0.00527 0.0
C1715 C 0.7879 0.20838 0.99608 0.0
C1716 C 0.76971 0.22723 0.99879 0.0
C1717 C 0.71714 0.28207 0.00752 0.0
C1718 C 0.73534 0.26301 0.00527 0.0
H1719 H 0.80998 0.14207 0.01102 0.0
H1720 H 0.7785 0.16963 0.0121 0.0
H1721 H 0.78529 0.27133 0.00244 0.0
H1722 H 0.69593 0.34853 0.99187 0.0
H1723 H 0.72726 0.32062 0.99167 0.0
C1724 C 0.44497 0.16648 0.24838 0.0
C1725 C 0.42894 0.1781 0.25792 0.0
C1726 C 0.4629 0.18273 0.24789 0.0
C1727 C 0.48186 0.26309 0.25236 0.0
H1728 H 0.53321 0.22266 0.2504 0.0
C1729 C 0.55579 0.3311 0.25426 0.0
C1730 C 0.57188 0.31922 0.24489 0.0
C1731 C 0.53787 0.31484 0.25481 0.0
C1732 C 0.51895 0.23426 0.25066 0.0
H1733 H 0.41971 0.21484 0.27538 0.0
H1734 H 0.45116 0.24299 0.27469 0.0
H1735 H 0.50372 0.19102 0.25546 0.0
H1736 H 0.58118 0.28202 0.22773 0.0
H1737 H 0.54974 0.25395 0.22849 0.0
H1738 H 0.49707 0.30633 0.24752 0.0
C1739 C 0.44966 0.22158 0.26733 0.0
C1740 C 0.50207 0.21614 0.25367 0.0
C1741 C 0.43172 0.20523 0.26787 0.0
C1742 C 0.56915 0.29183 0.23513 0.0
C1743 C 0.5512 0.27552 0.23572 0.0
C1744 C 0.49874 0.28121 0.24934 0.0
C1745 C 0.46523 0.21101 0.25692 0.0
C1746 C 0.48333 0.23034 0.25456 0.0
C1747 C 0.53558 0.28633 0.24599 0.0
C1748 C 0.51748 0.26701 0.24844 0.0
H1749 H 0.4434 0.14557 0.24062 0.0
H1750 H 0.47457 0.17398 0.23972 0.0
H1751 H 0.46759 0.27468 0.25263 0.0
H1752 H 0.55732 0.3522 0.26188 0.0
H1753 H 0.52617 0.3238 0.26289 0.0
C1754 C 0.68125 0.96098 0.23703 0.0
C1755 C 0.67859 0.93393 0.24707 0.0
C1756 C 0.69925 0.97721 0.23732 0.0
C1757 C 0.75184 0.9712 0.25053 0.0
H1758 H 0.74756 0.06162 0.25604 0.0
C1759 C 0.81937 0.04581 0.26881 0.0
C1760 C 0.82256 0.07251 0.25861 0.0
C1761 C 0.80123 0.03007 0.26834 0.0
C1762 C 0.749 0.03643 0.25442 0.0
H1763 H 0.69324 0.90144 0.26427 0.0
H1764 H 0.72444 0.92968 0.26478 0.0
H1765 H 0.7178 0.0304 0.25127 0.0
H1766 H 0.80862 0.10503 0.24099 0.0
H1767 H 0.77707 0.07763 0.24023 0.0
H1768 H 0.78303 0.9772 0.25373 0.0
C1769 C 0.71269 0.93845 0.2567 0.0
C1770 C 0.73198 0.01855 0.25157 0.0
C1771 C 0.69473 0.9223 0.25646 0.0
C1772 C 0.80673 0.08441 0.24893 0.0
C1773 C 0.78859 0.06875 0.24852 0.0
C1774 C 0.76885 0.98906 0.2534 0.0
C1775 C 0.71497 0.9666 0.24756 0.0
C1776 C 0.7332 0.98572 0.24962 0.0
C1777 C 0.78587 0.04081 0.25777 0.0
C1778 C 0.76763 0.02186 0.25542 0.0
H1779 H 0.66915 0.97057 0.22964 0.0
H1780 H 0.70069 0.99853 0.22988 0.0
H1781 H 0.75332 0.94601 0.24889 0.0
H1782 H 0.83121 0.03602 0.27644 0.0
H1783 H 0.79942 0.00891 0.27587 0.0
C1784 C 0.19639 0.8331 0.99852 0.0
C1785 C 0.18079 0.82111 0.00844 0.0
C1786 C 0.21463 0.81775 0.99802 0.0
C1787 C 0.24519 0.75662 0.01903 0.0
H1788 H 0.26711 0.74605 0.97373 0.0
C1789 C 0.30845 0.67011 0.00669 0.0
C1790 C 0.32462 0.68195 0.99742 0.0
C1791 C 0.29052 0.68631 0.00703 0.0
C1792 C 0.26125 0.749 0.98646 0.0
H1793 H 0.1726 0.78469 0.02646 0.0
H1794 H 0.20438 0.75783 0.02549 0.0
H1795 H 0.23751 0.77802 0.97771 0.0
H1796 H 0.33411 0.71896 0.98024 0.0
H1797 H 0.30271 0.74722 0.98082 0.0
H1798 H 0.26886 0.72741 0.02775 0.0
C1799 C 0.20254 0.7792 0.01816 0.0
C1800 C 0.24435 0.76743 0.98878 0.0
C1801 C 0.1843 0.79463 0.01872 0.0
C1802 C 0.32197 0.70914 0.98749 0.0
C1803 C 0.30397 0.72539 0.98785 0.0
C1804 C 0.26205 0.73813 0.0167 0.0
C1805 C 0.21769 0.79002 0.00737 0.0
C1806 C 0.23611 0.77143 0.00509 0.0
C1807 C 0.28831 0.7147 0.9981 0.0
C1808 C 0.27022 0.73401 1.00038 0.0
H1809 H 0.19427 0.85365 0.99058 0.0
H1810 H 0.22617 0.82715 0.98992 0.0
H1811 H 0.23938 0.75954 0.03178 0.0
H1812 H 0.30989 0.649 0.01432 0.0
H1813 H 0.27854 0.67708 0.01471 0.0
C1814 C 0.55509 0.83254 0.75461 0.0
C1815 C 0.57133 0.81962 0.74585 0.0
C1816 C 0.53698 0.81678 0.75505 0.0
C1817 C 0.50788 0.75231 0.7356 0.0
H1818 H 0.48473 0.74637 0.78069 0.0
C1819 C 0.44423 0.66677 0.74938 0.0
C1820 C 0.42806 0.67908 0.75848 0.0
C1821 C 0.46211 0.68312 0.74863 0.0
C1822 C 0.4909 0.74801 0.768 0.0
H1823 H 0.58076 0.78108 0.72965 0.0
H1824 H 0.54916 0.7536 0.73044 0.0
H1825 H 0.51413 0.77852 0.77627 0.0
H1826 H 0.41851 0.71731 0.77484 0.0
H1827 H 0.44971 0.74584 0.77349 0.0
H1828 H 0.48465 0.72177 0.72733 0.0
C1829 C 0.55045 0.77595 0.73697 0.0
C1830 C 0.5077 0.76653 0.76544 0.0
C1831 C 0.56858 0.79175 0.7365 0.0
C1832 C 0.43065 0.70708 0.76775 0.0
C1833 C 0.44856 0.72348 0.76696 0.0
C1834 C 0.49106 0.73379 0.73816 0.0
C1835 C 0.53467 0.78775 0.74674 0.0
C1836 C 0.51639 0.7689 0.74921 0.0
C1837 C 0.46427 0.71217 0.75695 0.0
C1838 C 0.4824 0.73136 0.7544 0.0
H1839 H 0.55659 0.85415 0.7618 0.0
H1840 H 0.52495 0.82688 0.76233 0.0
H1841 H 0.51409 0.75389 0.72293 0.0
H1842 H 0.44284 0.64509 0.74223 0.0
H1843 H 0.47411 0.67337 0.74116 0.0
C1844 C 0.31863 0.03908 0.76806 0.0
C1845 C 0.32174 0.06567 0.75776 0.0
C1846 C 0.30059 0.02305 0.76751 0.0
C1847 C 0.24856 0.02828 0.75308 0.0
H1848 H 0.25374 0.93801 0.74737 0.0
C1849 C 0.18157 0.95215 0.7352 0.0
C1850 C 0.17886 0.92539 0.74545 0.0
C1851 C 0.19959 0.96828 0.73537 0.0
C1852 C 0.25203 0.96315 0.74904 0.0
H1853 H 0.30777 0.09782 0.73996 0.0
H1854 H 0.27641 0.06993 0.73907 0.0
H1855 H 0.28311 0.96982 0.75263 0.0
H1856 H 0.19349 0.89306 0.76276 0.0
H1857 H 0.22474 0.92116 0.76306 0.0
H1858 H 0.21747 0.02162 0.74957 0.0
C1859 C 0.2879 0.06134 0.74748 0.0
C1860 C 0.26883 0.98135 0.75216 0.0
C1861 C 0.30593 0.07727 0.74796 0.0
C1862 C 0.19502 0.91374 0.7548 0.0
C1863 C 0.213 0.9298 0.75494 0.0
C1864 C 0.23174 0.01007 0.74999 0.0
C1865 C 0.28529 0.03343 0.75677 0.0
C1866 C 0.26727 0.0141 0.75425 0.0
C1867 C 0.21525 0.95786 0.74571 0.0
C1868 C 0.23329 0.9773 0.74795 0.0
H1869 H 0.33047 0.02953 0.77577 0.0
H1870 H 0.29884 0.00192 0.77507 0.0
H1871 H 0.24687 0.05343 0.75476 0.0
H1872 H 0.16945 0.96173 0.72782 0.0
H1873 H 0.20103 0.98951 0.72785 0.0
C1874 C 0.56896 0.45352 0.51569 0.0
C1875 C 0.57241 0.42722 0.50525 0.0
C1876 C 0.55067 0.4688 0.51537 0.0
C1877 C 0.50882 0.48099 0.48625 0.0
H1878 H 0.48457 0.52074 0.52543 0.0
C1879 C 0.43167 0.54076 0.48536 0.0
C1880 C 0.42925 0.5678 0.49546 0.0
C1881 C 0.44954 0.52418 0.48557 0.0
C1882 C 0.49132 0.51009 0.51433 0.0
H1883 H 0.55877 0.39469 0.48747 0.0
H1884 H 0.52679 0.42097 0.48722 0.0
H1885 H 0.51385 0.48807 0.52928 0.0
H1886 H 0.44428 0.60019 0.51248 0.0
H1887 H 0.47543 0.57154 0.51261 0.0
H1888 H 0.48622 0.50302 0.47131 0.0
C1889 C 0.53842 0.43034 0.49524 0.0
C1890 C 0.50804 0.49129 0.51656 0.0
C1891 C 0.55671 0.41514 0.4955 0.0
C1892 C 0.44554 0.57921 0.50472 0.0
C1893 C 0.46335 0.56268 0.50492 0.0
C1894 C 0.49205 0.49974 0.48403 0.0
C1895 C 0.53542 0.45797 0.50469 0.0
C1896 C 0.51703 0.47662 0.50254 0.0
C1897 C 0.4653 0.53439 0.49585 0.0
C1898 C 0.4832 0.51466 0.49803 0.0
H1899 H 0.58073 0.4635 0.52332 0.0
H1900 H 0.54887 0.49009 0.52277 0.0
H1901 H 0.51561 0.4705 0.47513 0.0
H1902 H 0.41942 0.53129 0.4781 0.0
H1903 H 0.45061 0.50245 0.47844 0.0
C1904 C 0.81003 0.66619 0.50354 0.0
C1905 C 0.82629 0.67842 0.49453 0.0
C1906 C 0.79212 0.68248 0.50405 0.0
C1907 C 0.77335 0.76325 0.50073 0.0
H1908 H 0.722 0.72273 0.50179 0.0
C1909 C 0.69909 0.83055 0.499 0.0
C1910 C 0.68307 0.81822 0.50829 0.0
C1911 C 0.71714 0.81465 0.49844 0.0
C1912 C 0.73626 0.73433 0.50178 0.0
H1913 H 0.83596 0.71628 0.47798 0.0
H1914 H 0.80452 0.74445 0.47866 0.0
H1915 H 0.75152 0.69137 0.49637 0.0
H1916 H 0.67401 0.78069 0.52532 0.0
H1917 H 0.70566 0.75318 0.52449 0.0
H1918 H 0.75805 0.80624 0.50609 0.0
C1919 C 0.80583 0.72256 0.48562 0.0
C1920 C 0.75316 0.71638 0.49857 0.0
C1921 C 0.82377 0.70621 0.48507 0.0
C1922 C 0.686 0.79083 0.518 0.0
C1923 C 0.70406 0.77485 0.51738 0.0
C1924 C 0.75644 0.78121 0.50391 0.0
C1925 C 0.79002 0.71137 0.49556 0.0
C1926 C 0.77191 0.73062 0.49803 0.0
C1927 C 0.71959 0.78605 0.50713 0.0
C1928 C 0.73771 0.76694 0.50451 0.0
H1929 H 0.81139 0.64476 0.5109 0.0
H1930 H 0.78028 0.67323 0.51187 0.0
H1931 H 0.78761 0.77485 0.50074 0.0
H1932 H 0.6974 0.8517 0.49144 0.0
H1933 H 0.7288 0.8239 0.49042 0.0
C1934 C 0.80677 0.58089 0.74887 0.0
C1935 C 0.82276 0.56917 0.75842 0.0
C1936 C 0.78874 0.565 0.7486 0.0
C1937 C 0.76968 0.48495 0.7535 0.0
H1938 H 0.71845 0.52555 0.75051 0.0
C1939 C 0.69531 0.4184 0.75546 0.0
C1940 C 0.67952 0.43014 0.74568 0.0
C1941 C 0.71341 0.43412 0.75587 0.0
C1942 C 0.73269 0.51392 0.75106 0.0
H1943 H 0.83178 0.53292 0.77626 0.0
H1944 H 0.8001 0.50543 0.77597 0.0
H1945 H 0.74787 0.55718 0.7559 0.0
H1946 H 0.67094 0.4662 0.72757 0.0
H1947 H 0.70269 0.49341 0.72813 0.0
H1948 H 0.75448 0.44168 0.74868 0.0
C1949 C 0.80173 0.52658 0.76841 0.0
C1950 C 0.74951 0.53202 0.75426 0.0
C1951 C 0.8198 0.54255 0.76873 0.0
C1952 C 0.68275 0.45657 0.73529 0.0
C1953 C 0.70086 0.47237 0.73575 0.0
C1954 C 0.75285 0.46684 0.75031 0.0
C1955 C 0.78626 0.53704 0.75788 0.0
C1956 C 0.7682 0.51774 0.7555 0.0
C1957 C 0.71612 0.46192 0.74651 0.0
C1958 C 0.73418 0.48115 0.74903 0.0
H1959 H 0.8085 0.60147 0.74088 0.0
H1960 H 0.77713 0.57366 0.74033 0.0
H1961 H 0.78392 0.47332 0.75402 0.0
H1962 H 0.69338 0.39796 0.76353 0.0
H1963 H 0.72487 0.42547 0.76429 0.0
C1964 C 0.30728 0.16464 0.50531 0.0
C1965 C 0.3233 0.17596 0.49565 0.0
C1966 C 0.28942 0.18113 0.50582 0.0
C1967 C 0.27091 0.26178 0.501 0.0
H1968 H 0.21932 0.22233 0.50367 0.0
C1969 C 0.19738 0.33079 0.49846 0.0
C1970 C 0.18128 0.31961 0.50806 0.0
C1971 C 0.21523 0.31427 0.49811 0.0
C1972 C 0.23366 0.23366 0.50321 0.0
H1973 H 0.33253 0.21232 0.47796 0.0
H1974 H 0.30123 0.24079 0.47867 0.0
H1975 H 0.24856 0.19 0.4987 0.0
H1976 H 0.17187 0.28347 0.52581 0.0
H1977 H 0.20316 0.25491 0.52537 0.0
H1978 H 0.25602 0.30544 0.5055 0.0
C1979 C 0.30269 0.21949 0.48613 0.0
C1980 C 0.25039 0.21515 0.50027 0.0
C1981 C 0.32055 0.20295 0.48558 0.0
C1982 C 0.18392 0.29273 0.51824 0.0
C1983 C 0.20178 0.27614 0.51784 0.0
C1984 C 0.25418 0.2803 0.50395 0.0
C1985 C 0.28716 0.20931 0.49669 0.0
C1986 C 0.26921 0.229 0.4991 0.0
C1987 C 0.2174 0.28619 0.50734 0.0
C1988 C 0.23536 0.26646 0.50508 0.0
H1989 H 0.30881 0.14385 0.51317 0.0
H1990 H 0.27779 0.17265 0.51411 0.0
H1991 H 0.28525 0.27312 0.50053 0.0
H1992 H 0.19592 0.35149 0.49052 0.0
H1993 H 0.22693 0.32263 0.48985 0.0
C1994 C 0.18248 0.45368 0.23505 0.0
C1995 C 0.1794 0.42646 0.24487 0.0
C1996 C 0.20042 0.46995 0.236 0.0
C1997 C 0.24146 0.48228 0.266 0.0
H1998 H 0.26646 0.52421 0.22786 0.0
C1999 C 0.31867 0.5411 0.26937 0.0
C2000 C 0.32184 0.5681 0.2594 0.0
C2001 C 0.3006 0.52513 0.26862 0.0
C2002 C 0.25948 0.51302 0.2387 0.0
H2003 H 0.1934 0.3935 0.26221 0.0
H2004 H 0.22474 0.42152 0.26356 0.0
H2005 H 0.23735 0.49159 0.22303 0.0
H2006 H 0.3079 0.60111 0.24206 0.0
H2007 H 0.27635 0.57364 0.24105 0.0
H2008 H 0.2636 0.5037 0.28167 0.0
C2009 C 0.21309 0.43081 0.25554 0.0
C2010 C 0.24286 0.49422 0.23589 0.0
C2011 C 0.19517 0.4146 0.25463 0.0
C2012 C 0.30605 0.58015 0.24974 0.0
C2013 C 0.28801 0.56427 0.24903 0.0
C2014 C 0.25809 0.5011 0.2688 0.0
C2015 C 0.21567 0.45924 0.24671 0.0
C2016 C 0.23367 0.47858 0.24951 0.0
C2017 C 0.28534 0.53594 0.25795 0.0
C2018 C 0.26728 0.51671 0.25518 0.0
H2019 H 0.17064 0.46354 0.22744 0.0
H2020 H 0.20193 0.49181 0.22905 0.0
H2021 H 0.23449 0.47106 0.27682 0.0
H2022 H 0.33052 0.5311 0.27691 0.0
H2023 H 0.29902 0.50335 0.27563 0.0
C2024 C 0.05767 0.91411 0.50084 0.0
C2025 C 0.07337 0.92613 0.51062 0.0
C2026 C 0.03958 0.92987 0.50015 0.0
C2027 C 0.00947 0.99275 0.5201 0.0
H2028 H 0.98867 0.00246 0.47436 0.0
C2029 C 0.94699 0.08003 0.506 0.0
C2030 C 0.93108 0.06834 0.49634 0.0
C2031 C 0.96481 0.06354 0.50686 0.0
C2032 C 0.9942 -0.00023 0.48721 0.0
H2033 H 0.08185 0.96292 0.52831 0.0
H2034 H 0.05029 0.99048 0.52703 0.0
H2035 H 0.01778 0.96977 0.47912 0.0
H2036 H 0.92198 0.03126 0.47905 0.0
H2037 H 0.95313 0.00252 0.48055 0.0
H2038 H 0.98593 0.02287 0.52817 0.0
C2039 C 0.05196 0.96881 0.51993 0.0
C2040 C 0.01082 0.98092 0.48998 0.0
C2041 C 0.07007 0.95296 0.52069 0.0
C2042 C 0.93393 0.04099 0.48657 0.0
C2043 C 0.95179 0.02446 0.48746 0.0
C2044 C 0.99286 0.01163 0.51733 0.0
C2045 C 0.03677 0.95804 0.50917 0.0
C2046 C 0.01865 0.97718 0.50645 0.0
C2047 C 0.96716 0.03501 0.49808 0.0
C2048 C 0.98507 0.01543 0.50085 0.0
H2049 H 0.05962 0.89327 0.49308 0.0
H2050 H 0.02798 0.92051 0.49209 0.0
H2051 H 0.01499 0.99009 0.53296 0.0
H2052 H 0.9454 0.10122 0.51353 0.0
H2053 H 0.97657 0.0727 0.51481 0.0
C2054 C 0.05639 0.33532 0.75456 0.0
C2055 C 0.07216 0.32302 0.74495 0.0
C2056 C 0.03827 0.31963 0.75529 0.0
C2057 C 0.00827 0.25666 0.73526 0.0
H2058 H 0.98617 0.24836 0.78063 0.0
C2059 C 0.9454 0.16986 0.74877 0.0
C2060 C 0.92921 0.18173 0.75801 0.0
C2061 C 0.96321 0.18639 0.74814 0.0
C2062 C 0.99206 0.25066 0.76787 0.0
H2063 H 0.08073 0.28561 0.72766 0.0
H2064 H 0.04916 0.25821 0.72899 0.0
H2065 H 0.01555 0.28064 0.77621 0.0
H2066 H 0.91957 0.21927 0.77479 0.0
H2067 H 0.95072 0.24811 0.77369 0.0
H2068 H 0.98485 0.22655 0.72694 0.0
C2069 C 0.05078 0.28006 0.73593 0.0
C2070 C 0.00884 0.26927 0.7653 0.0
C2071 C 0.06892 0.29582 0.73516 0.0
C2072 C 0.93173 0.20939 0.76759 0.0
C2073 C 0.9496 0.22597 0.76693 0.0
C2074 C 0.99152 0.23802 0.73783 0.0
C2075 C 0.03547 0.29126 0.74644 0.0
C2076 C 0.01716 0.27246 0.74897 0.0
C2077 C 0.96529 0.21518 0.75672 0.0
C2078 C 0.98327 0.2347 0.75418 0.0
H2079 H 0.05829 0.35641 0.76213 0.0
H2080 H 0.0266 0.3293 0.76316 0.0
H2081 H 0.01414 0.25893 0.72249 0.0
H2082 H 0.94407 0.14843 0.7414 0.0
H2083 H 0.9752 0.17705 0.74052 0.0
C2084 C 0.94345 0.67362 0.24047 0.0
C2085 C 0.93069 0.67505 0.25459 0.0
C2086 C 0.96183 0.68822 0.24083 0.0
C2087 C 0.98987 0.75007 0.26387 0.0
H2088 H 0.03169 0.71976 0.23442 0.0
C2089 C 0.0769 0.77843 0.24536 0.0
C2090 C 0.07667 0.81115 0.24759 0.0
C2091 C 0.05946 0.76108 0.24658 0.0
C2092 C 0.02041 0.72849 0.24297 0.0
H2093 H 0.92781 0.6917 0.28054 0.0
H2094 H 0.96061 0.71592 0.28154 0.0
H2095 H 0.00235 0.68841 0.23827 0.0
H2096 H 0.05805 0.8517 0.2521 0.0
H2097 H 0.02725 0.82183 0.25283 0.0
H2098 H 0.00861 0.7891 0.26953 0.0
C2099 C 0.95598 0.70442 0.26992 0.0
C2100 C 0.00327 0.71064 0.24494 0.0
C2101 C 0.93725 0.69025 0.26943 0.0
C2102 C 0.05856 0.82645 0.25028 0.0
C2103 C 0.04097 0.80918 0.25098 0.0
C2104 C 0.0073 0.76753 0.2623 0.0
C2105 C 0.96836 0.70412 0.25546 0.0
C2106 C 0.98753 0.72149 0.25508 0.0
C2107 C 0.04122 0.77611 0.24958 0.0
C2108 C 0.02272 0.75727 0.25159 0.0
H2109 H 0.93891 0.66244 0.22871 0.0
H2110 H 0.97052 0.688 0.22926 0.0
H2111 H 0.97807 0.75949 0.27167 0.0
H2112 H 0.09074 0.76594 0.24368 0.0
H2113 H 0.06053 0.73572 0.24582 0.0
C2114 C 0.93266 0.54142 0.98586 0.0
C2115 C 0.92976 0.56842 0.99589 0.0
C2116 C 0.95069 0.52534 0.98631 0.0
C2117 C 0.00308 0.53136 0.99996 0.0
H2118 H 0.99862 0.44097 0.00552 0.0
C2119 C 0.07059 0.45613 0.01781 0.0
C2120 C 0.07353 0.42936 0.00761 0.0
C2121 C 0.05251 0.4721 0.01748 0.0
C2122 C 1.00012 0.46616 0.00388 0.0
H2123 H 0.9441 0.60104 0.01322 0.0
H2124 H 0.97541 0.57304 0.01399 0.0
H2125 H 0.96894 0.47232 1.00067 0.0
H2126 H 0.05924 0.39696 0.99014 0.0
H2127 H 0.02784 0.42474 0.98961 0.0
H2128 H 0.03426 0.5252 0.00317 0.0
C2129 C 0.96377 0.56419 0.00581 0.0
C2130 C 0.98314 0.4841 1.00099 0.0
C2131 C 0.94576 0.58021 0.00541 0.0
C2132 C 0.05754 0.41762 0.99807 0.0
C2133 C 0.03948 0.43351 0.9978 0.0
C2134 C 0.02006 0.51342 0.00285 0.0
C2135 C 0.96623 0.53603 0.99671 0.0
C2136 C 0.98443 0.51691 0.99899 0.0
C2137 C 0.03698 0.4615 0.00705 0.0
C2138 C 0.01878 0.48061 0.00485 0.0
H2139 H 0.92069 0.5317 0.97836 0.0
H2140 H 0.95229 0.50402 0.97888 0.0
H2141 H 0.00459 0.55654 0.9983 0.0
H2142 H 0.08257 0.4658 0.02532 0.0
H2143 H 0.05089 0.49329 0.02501 0.0
C2144 C 0.32499 0.13946 0.1879 0.0
C2145 C 0.32832 0.11108 0.19659 0.0
C2146 C 0.3167 0.13951 0.17168 0.0
C2147 C 0.29824 0.13616 0.13689 0.0
H2148 H 0.32951 0.07827 0.10995 0.0
C2149 C 0.31538 0.13805 0.06216 0.0
C2150 C 0.336 0.14091 0.06028 0.0
C2151 C 0.30715 0.133 0.07838 0.0
C2152 C 0.32027 0.09413 0.11727 0.0
H2153 H 0.32393 0.06068 0.19584 0.0
H2154 H 0.30945 0.06059 0.16717 0.0
H2155 H 0.32625 0.06965 0.14038 0.0
H2156 H 0.36391 0.14341 0.07378 0.0
H2157 H 0.34963 0.13491 0.10179 0.0
H2158 H 0.29388 0.16207 0.11367 0.0
C2159 C 0.3134 0.08285 0.17294 0.0
C2160 C 0.31828 0.08911 0.13472 0.0
C2161 C 0.3216 0.08286 0.18935 0.0
C2162 C 0.348 0.14102 0.07486 0.0
C2163 C 0.33987 0.13598 0.09086 0.0
C2164 C 0.30025 0.14117 0.11934 0.0
C2165 C 0.31163 0.11111 0.16364 0.0
C2166 C 0.30819 0.11104 0.14492 0.0
C2167 C 0.31953 0.13074 0.09271 0.0
C2168 C 0.31215 0.12103 0.10961 0.0
H2169 H 0.32979 0.16165 0.19329 0.0
H2170 H 0.31579 0.1617 0.16496 0.0
H2171 H 0.29008 0.15321 0.14435 0.0
H2172 H 0.30587 0.1376 0.05107 0.0
H2173 H 0.29137 0.12922 0.07962 0.0
C2174 C 0.93139 0.1026 0.19143 0.0
C2175 C 0.92415 0.13187 0.19688 0.0
C2176 C 0.93915 0.09901 0.17511 0.0
C2177 C 0.953 0.14103 0.13515 0.0
H2178 H 0.92684 0.06991 0.11395 0.0
C2179 C 0.92676 0.14089 0.06634 0.0
C2180 C 0.92434 0.11257 0.05737 0.0
C2181 C 0.93448 0.141 0.08276 0.0
C2182 C 0.93478 0.0894 0.11962 0.0
H2183 H 0.92056 0.18084 0.19014 0.0
H2184 H 0.93375 0.17457 0.16128 0.0
H2185 H 0.92629 0.07527 0.14461 0.0
H2186 H 0.92966 0.06238 0.05795 0.0
H2187 H 0.94333 0.06242 0.08691 0.0
H2188 H 0.96069 0.15579 0.10993 0.0
C2189 C 0.93379 0.15445 0.16972 0.0
C2190 C 0.93443 0.09256 0.1373 0.0
C2191 C 0.92623 0.15812 0.18624 0.0
C2192 C 0.93132 0.08452 0.06462 0.0
C2193 C 0.93899 0.08458 0.08122 0.0
C2194 C 0.95342 0.13779 0.11742 0.0
C2195 C 0.93949 0.1245 0.16374 0.0
C2196 C 0.94297 0.11892 0.14526 0.0
C2197 C 0.93995 0.11272 0.09071 0.0
C2198 C 0.94367 0.11252 0.1094 0.0
H2199 H 0.93002 0.08204 0.1995 0.0
H2200 H 0.94385 0.07582 0.17107 0.0
H2201 H 0.96 0.16133 0.1409 0.0
H2202 H 0.9217 0.16296 0.06097 0.0
H2203 H 0.93479 0.16309 0.08963 0.0
C2204 C 0.67943 0.90952 0.81592 0.0
C2205 C 0.67063 0.88223 0.80929 0.0
C2206 C 0.68817 0.90897 0.83213 0.0
C2207 C 0.70307 0.85471 0.86764 0.0
H2208 H 0.68093 0.92 0.89624 0.0
C2209 C 0.6772 0.83594 0.93652 0.0
C2210 C 0.67679 0.86185 0.94753 0.0
C2211 C 0.6849 0.83921 0.92005 0.0
C2212 C 0.68772 0.9019 0.8885 0.0
H2213 H 0.66569 0.83244 0.81364 0.0
H2214 H 0.68057 0.83153 0.8416 0.0
H2215 H 0.67956 0.92559 0.86559 0.0
H2216 H 0.68545 0.91046 0.95081 0.0
H2217 H 0.69949 0.91594 0.92235 0.0
H2218 H 0.71007 0.83013 0.89071 0.0
C2219 C 0.68088 0.85339 0.83452 0.0
C2220 C 0.68696 0.90519 0.87083 0.0
C2221 C 0.67209 0.854 0.81852 0.0
C2222 C 0.68574 0.89013 0.94249 0.0
C2223 C 0.69358 0.89332 0.92616 0.0
C2224 C 0.70375 0.85135 0.88535 0.0
C2225 C 0.68845 0.88103 0.84181 0.0
C2226 C 0.69387 0.88104 0.86018 0.0
C2227 C 0.69227 0.86845 0.91444 0.0
C2228 C 0.69541 0.87439 0.89597 0.0
H2229 H 0.67859 0.93155 0.80903 0.0
H2230 H 0.69404 0.93062 0.83734 0.0
H2231 H 0.70888 0.83592 0.85978 0.0
H2232 H 0.67006 0.81411 0.94009 0.0
H2233 H 0.68352 0.81962 0.91132 0.0
C2234 C 0.06866 0.85891 0.94481 0.0
C2235 C 0.07712 0.88747 0.95001 0.0
C2236 C 0.061 0.8556 0.92843 0.0
C2237 C 0.06664 0.84756 0.89072 0.0
H2238 H 0.04394 0.91272 0.86233 0.0
C2239 C 0.07866 0.89444 0.81976 0.0
C2240 C 0.08015 0.86594 0.81078 0.0
C2241 C 0.07065 0.89529 0.83607 0.0
C2242 C 0.05021 0.89419 0.8701 0.0
H2243 H 0.0832 0.93554 0.94276 0.0
H2244 H 0.07004 0.92983 0.91388 0.0
H2245 H 0.04358 0.91871 0.89327 0.0
H2246 H 0.07298 0.81632 0.81132 0.0
H2247 H 0.05882 0.8177 0.8401 0.0
H2248 H 0.07436 0.82389 0.86769 0.0
C2249 C 0.06892 0.91009 0.92254 0.0
C2250 C 0.05 0.89766 0.88782 0.0
C2251 C 0.07643 0.91347 0.93907 0.0
C2252 C 0.07209 0.83858 0.81799 0.0
C2253 C 0.06412 0.83938 0.83449 0.0
C2254 C 0.06693 0.84416 0.87304 0.0
C2255 C 0.06199 0.88066 0.91679 0.0
C2256 C 0.0588 0.87484 0.89831 0.0
C2257 C 0.06391 0.86762 0.84392 0.0
C2258 C 0.05939 0.86797 0.86248 0.0
H2259 H 0.06916 0.83851 0.95308 0.0
H2260 H 0.05542 0.83283 0.92453 0.0
H2261 H 0.07381 0.82966 0.89835 0.0
H2262 H 0.08451 0.91605 0.81444 0.0
H2263 H 0.07097 0.9174 0.84291 0.0
C2264 C 0.3265 0.58363 0.68797 0.0
C2265 C 0.32718 0.60953 0.69898 0.0
C2266 C 0.31923 0.58726 0.67136 0.0
C2267 C 0.31787 0.64995 0.63965 0.0
H2268 H 0.29393 0.58631 0.61104 0.0
C2269 C 0.32343 0.66005 0.56699 0.0
C2270 C 0.33072 0.63235 0.55956 0.0
C2271 C 0.31547 0.65935 0.5835 0.0
C2272 C 0.30058 0.60441 0.61886 0.0
H2273 H 0.31938 0.65856 0.70208 0.0
H2274 H 0.30614 0.6647 0.6734 0.0
H2275 H 0.29366 0.57977 0.64195 0.0
H2276 H 0.33366 0.58189 0.5628 0.0
H2277 H 0.32019 0.58069 0.59127 0.0
H2278 H 0.32593 0.67367 0.61673 0.0
C2279 C 0.31153 0.64181 0.6773 0.0
C2280 C 0.30042 0.60062 0.63656 0.0
C2281 C 0.31892 0.63824 0.69376 0.0
C2282 C 0.32841 0.60373 0.56829 0.0
C2283 C 0.32043 0.603 0.58462 0.0
C2284 C 0.31817 0.65362 0.622 0.0
C2285 C 0.31255 0.61685 0.66562 0.0
C2286 C 0.30959 0.62291 0.64714 0.0
C2287 C 0.31453 0.6309 0.59273 0.0
C2288 C 0.31016 0.63037 0.61133 0.0
H2289 H 0.3331 0.56143 0.69167 0.0
H2290 H 0.32034 0.56759 0.66265 0.0
H2291 H 0.32532 0.66743 0.64737 0.0
H2292 H 0.32498 0.6824 0.56051 0.0
H2293 H 0.3108 0.68123 0.58929 0.0
C2294 C 0.92682 0.58523 0.56694 0.0
C2295 C 0.92592 0.6113 0.55605 0.0
C2296 C 0.934 0.58875 0.58359 0.0
C2297 C 0.9352 0.65114 0.61562 0.0
H2298 H 0.95961 0.5874 0.64389 0.0
C2299 C 0.93058 0.66101 0.68832 0.0
C2300 C 0.92329 0.63331 0.69574 0.0
C2301 C 0.93844 0.66032 0.67176 0.0
C2302 C 0.95283 0.60553 0.63617 0.0
H2303 H 0.93334 0.66054 0.55321 0.0
H2304 H 0.94645 0.66648 0.58193 0.0
H2305 H 0.95951 0.58108 0.61297 0.0
H2306 H 0.92021 0.58291 0.69248 0.0
H2307 H 0.93359 0.5817 0.66395 0.0
H2308 H 0.92743 0.6747 0.63867 0.0
C2309 C 0.94123 0.64355 0.57793 0.0
C2310 C 0.95278 0.60186 0.61845 0.0
C2311 C 0.9339 0.6401 0.56144 0.0
C2312 C 0.92554 0.60471 0.68698 0.0
C2313 C 0.93343 0.60398 0.67062 0.0
C2314 C 0.93514 0.65471 0.63329 0.0
C2315 C 0.94042 0.61839 0.58949 0.0
C2316 C 0.94345 0.6242 0.608 0.0
C2317 C 0.93926 0.6319 0.66249 0.0
C2318 C 0.94335 0.63144 0.64384 0.0
H2319 H 0.92048 0.56293 0.5631 0.0
H2320 H 0.93307 0.56891 0.59219 0.0
H2321 H 0.92763 0.66865 0.60802 0.0
H2322 H 0.92903 0.68335 0.69481 0.0
H2323 H 0.94306 0.68222 0.66595 0.0
C2324 C 0.67421 0.35672 0.31551 0.0
C2325 C 0.67194 0.38512 0.30657 0.0
C2326 C 0.68249 0.35631 0.33172 0.0
C2327 C 0.68523 0.40766 0.36863 0.0
H2328 H 0.70993 0.33421 0.38885 0.0
C2329 C 0.68354 0.39257 0.44037 0.0
C2330 C 0.67553 0.36365 0.44553 0.0
C2331 C 0.6912 0.39626 0.42401 0.0
C2332 C 0.70312 0.35495 0.3834 0.0
H2333 H 0.67801 0.43509 0.307 0.0
H2334 H 0.69265 0.43453 0.33563 0.0
H2335 H 0.70961 0.34032 0.35792 0.0
H2336 H 0.67031 0.31535 0.43823 0.0
H2337 H 0.68346 0.32173 0.40937 0.0
H2338 H 0.67796 0.42169 0.39393 0.0
C2339 C 0.68778 0.41255 0.33006 0.0
C2340 C 0.70295 0.35851 0.36568 0.0
C2341 C 0.67955 0.41291 0.31365 0.0
C2342 C 0.67671 0.33772 0.43457 0.0
C2343 C 0.68421 0.34148 0.41805 0.0
C2344 C 0.68551 0.4042 0.3863 0.0
C2345 C 0.6887 0.38435 0.33951 0.0
C2346 C 0.69328 0.38428 0.35806 0.0
C2347 C 0.69066 0.37122 0.41235 0.0
C2348 C 0.69383 0.37727 0.39389 0.0
H2349 H 0.66868 0.33484 0.31027 0.0
H2350 H 0.68271 0.33421 0.33857 0.0
H2351 H 0.67742 0.42757 0.36328 0.0
H2352 H 0.6827 0.41291 0.44866 0.0
H2353 H 0.69641 0.41927 0.42016 0.0
C2354 C 0.08023 0.35378 0.43529 0.0
C2355 C 0.08186 0.38204 0.44447 0.0
C2356 C 0.07195 0.35338 0.41907 0.0
C2357 C 0.06817 0.40538 0.38261 0.0
H2358 H 0.04407 0.3319 0.36192 0.0
C2359 C 0.06983 0.39249 0.31083 0.0
C2360 C 0.07772 0.3637 0.30531 0.0
C2361 C 0.06224 0.39559 0.32724 0.0
C2362 C 0.05072 0.35265 0.36751 0.0
H2363 H 0.07468 0.43167 0.44441 0.0
H2364 H 0.06011 0.4311 0.41578 0.0
H2365 H 0.04466 0.33707 0.39291 0.0
H2366 H 0.08264 0.315 0.312 0.0
H2367 H 0.06979 0.32044 0.34099 0.0
H2368 H 0.07514 0.42032 0.35742 0.0
C2369 C 0.06546 0.40925 0.42118 0.0
C2370 C 0.05104 0.35566 0.38525 0.0
C2371 C 0.07369 0.4096 0.43758 0.0
C2372 C 0.07644 0.33733 0.31596 0.0
C2373 C 0.06907 0.34054 0.33255 0.0
C2374 C 0.06781 0.40242 0.36493 0.0
C2375 C 0.06512 0.38128 0.41153 0.0
C2376 C 0.06046 0.3815 0.39302 0.0
C2377 C 0.06276 0.37012 0.33862 0.0
C2378 C 0.0597 0.37551 0.35716 0.0
H2379 H 0.08616 0.33203 0.44036 0.0
H2380 H 0.07215 0.33147 0.41204 0.0
H2381 H 0.0758 0.42535 0.38809 0.0
H2382 H 0.07062 0.41312 0.30275 0.0
H2383 H 0.05705 0.41848 0.33134 0.0
C2384 C 0.82778 0.15749 0.56796 0.0
C2385 C 0.82988 0.13123 0.55733 0.0
C2386 C 0.81996 0.15387 0.58439 0.0
C2387 C 0.81888 0.09201 0.61672 0.0
H2388 H 0.79258 0.15537 0.64396 0.0
C2389 C 0.82263 0.08477 0.68932 0.0
C2390 C 0.82962 0.11296 0.69639 0.0
C2391 C 0.8147 0.08457 0.6728 0.0
C2392 C 0.79985 0.13733 0.63651 0.0
H2393 H 0.82376 0.0815 0.55458 0.0
H2394 H 0.80952 0.07538 0.58287 0.0
H2395 H 0.79334 0.1608 0.61299 0.0
H2396 H 0.83197 0.16335 0.69261 0.0
H2397 H 0.81849 0.16302 0.6641 0.0
H2398 H 0.82648 0.06949 0.64009 0.0
C2399 C 0.81438 0.09852 0.57889 0.0
C2400 C 0.8003 0.1405 0.61878 0.0
C2401 C 0.82239 0.10205 0.56266 0.0
C2402 C 0.82693 0.14117 0.68736 0.0
C2403 C 0.81896 0.14102 0.67103 0.0
C2404 C 0.81852 0.08893 0.63439 0.0
C2405 C 0.81403 0.12398 0.59028 0.0
C2406 C 0.81038 0.11837 0.60872 0.0
C2407 C 0.81351 0.1126 0.66323 0.0
C2408 C 0.80964 0.11214 0.64457 0.0
H2409 H 0.83363 0.18013 0.56414 0.0
H2410 H 0.82 0.17396 0.59286 0.0
H2411 H 0.82703 0.07469 0.60943 0.0
H2412 H 0.82448 0.06273 0.69604 0.0
H2413 H 0.81037 0.06231 0.66724 0.0
C2414 C 0.42612 0.08817 0.56838 0.0
C2415 C 0.42372 0.11446 0.55781 0.0
C2416 C 0.43374 0.09189 0.58486 0.0
C2417 C 0.43395 0.15348 0.61742 0.0
H2418 H 0.46093 0.09061 0.64452 0.0
C2419 C 0.43019 0.1603 0.68999 0.0
C2420 C 0.42337 0.13195 0.69699 0.0
C2421 C 0.4382 0.16071 0.6735 0.0
C2422 C 0.45347 0.10852 0.63711 0.0
H2423 H 0.42907 0.16444 0.55528 0.0
H2424 H 0.44302 0.17077 0.58366 0.0
H2425 H 0.46023 0.08543 0.61353 0.0
H2426 H 0.4214 0.08155 0.69315 0.0
H2427 H 0.43505 0.08223 0.66469 0.0
H2428 H 0.42615 0.17563 0.64085 0.0
C2429 C 0.43852 0.1475 0.57959 0.0
C2430 C 0.45304 0.10548 0.61936 0.0
C2431 C 0.43068 0.14386 0.5633 0.0
C2432 C 0.42634 0.10382 0.68796 0.0
C2433 C 0.43438 0.10419 0.67165 0.0
C2434 C 0.43431 0.15644 0.6351 0.0
C2435 C 0.43919 0.12192 0.59089 0.0
C2436 C 0.44274 0.12743 0.60935 0.0
C2437 C 0.43962 0.13276 0.66389 0.0
C2438 C 0.44344 0.13341 0.64523 0.0
H2439 H 0.42067 0.06534 0.56443 0.0
H2440 H 0.43396 0.07169 0.59326 0.0
H2441 H 0.42561 0.17064 0.61019 0.0
H2442 H 0.42811 0.18229 0.69671 0.0
H2443 H 0.44236 0.18308 0.66796 0.0
C2444 C 0.17409 0.85559 0.31984 0.0
C2445 C 0.17183 0.88387 0.31078 0.0
C2446 C 0.18222 0.85542 0.33611 0.0
C2447 C 0.18468 0.90703 0.3729 0.0
H2448 H 0.21016 0.8344 0.39326 0.0
C2449 C 0.18359 0.89299 0.44468 0.0
C2450 C 0.17605 0.86389 0.45005 0.0
C2451 C 0.19106 0.89664 0.42825 0.0
C2452 C 0.20312 0.85492 0.38777 0.0
H2453 H 0.17774 0.93391 0.31113 0.0
H2454 H 0.19207 0.93375 0.33986 0.0
H2455 H 0.20955 0.84009 0.36231 0.0
H2456 H 0.17155 0.81523 0.44308 0.0
H2457 H 0.1843 0.82155 0.41409 0.0
H2458 H 0.17744 0.92123 0.39817 0.0
C2459 C 0.18731 0.91169 0.33433 0.0
C2460 C 0.20278 0.85822 0.37004 0.0
C2461 C 0.17923 0.91181 0.31787 0.0
C2462 C 0.17755 0.83778 0.43924 0.0
C2463 C 0.18483 0.8415 0.42265 0.0
C2464 C 0.18509 0.90381 0.39057 0.0
C2465 C 0.18829 0.88358 0.34384 0.0
C2466 C 0.19287 0.88371 0.36238 0.0
C2467 C 0.19079 0.87136 0.41674 0.0
C2468 C 0.19372 0.87717 0.39822 0.0
H2469 H 0.16876 0.83357 0.31461 0.0
H2470 H 0.1825 0.83338 0.34302 0.0
H2471 H 0.17667 0.92672 0.36751 0.0
H2472 H 0.18255 0.91346 0.45286 0.0
H2473 H 0.19593 0.91975 0.42425 0.0
C2474 C 0.58067 0.85279 0.43697 0.0
C2475 C 0.58243 0.88105 0.44612 0.0
C2476 C 0.57213 0.85236 0.42086 0.0
C2477 C 0.5677 0.90453 0.38448 0.0
H2478 H 0.54447 0.83027 0.36386 0.0
C2479 C 0.56963 0.89126 0.31275 0.0
C2480 C 0.5783 0.86293 0.30743 0.0
C2481 C 0.5618 0.89411 0.3291 0.0
C2482 C 0.55085 0.85125 0.36943 0.0
H2483 H 0.57515 0.93064 0.44619 0.0
H2484 H 0.56007 0.93002 0.41775 0.0
H2485 H 0.54492 0.83562 0.39484 0.0
H2486 H 0.58442 0.8147 0.31435 0.0
H2487 H 0.57108 0.81968 0.34322 0.0
H2488 H 0.57448 0.91957 0.35926 0.0
C2489 C 0.56556 0.9082 0.42307 0.0
C2490 C 0.5511 0.85436 0.38717 0.0
C2491 C 0.57406 0.90857 0.43937 0.0
C2492 C 0.57758 0.83664 0.31817 0.0
C2493 C 0.56994 0.83959 0.33468 0.0
C2494 C 0.56736 0.9015 0.3668 0.0
C2495 C 0.56513 0.88023 0.4134 0.0
C2496 C 0.56029 0.88044 0.39492 0.0
C2497 C 0.56285 0.86883 0.34057 0.0
C2498 C 0.55959 0.8743 0.35907 0.0
H2499 H 0.58675 0.83107 0.44196 0.0
H2500 H 0.57229 0.83045 0.41383 0.0
H2501 H 0.57514 0.92471 0.38993 0.0
H2502 H 0.57002 0.91183 0.30461 0.0
H2503 H 0.55607 0.91673 0.3331 0.0
C2504 C 0.82081 0.60357 0.06171 0.0
C2505 C 0.82835 0.63275 0.05643 0.0
C2506 C 0.81295 0.59986 0.07799 0.0
C2507 C 0.79881 0.64097 0.11802 0.0
H2508 H 0.82561 0.57031 0.13908 0.0
C2509 C 0.82363 0.64056 0.18724 0.0
C2510 C 0.82713 0.61217 0.19588 0.0
C2511 C 0.81595 0.6406 0.17079 0.0
C2512 C 0.81747 0.58963 0.13347 0.0
H2513 H 0.83237 0.68151 0.06344 0.0
H2514 H 0.81883 0.67507 0.09221 0.0
H2515 H 0.82637 0.57617 0.10846 0.0
H2516 H 0.82357 0.56163 0.19475 0.0
H2517 H 0.80979 0.56154 0.16585 0.0
H2518 H 0.7905 0.65496 0.14322 0.0
C2519 C 0.8187 0.65511 0.08365 0.0
C2520 C 0.81797 0.5931 0.11581 0.0
C2521 C 0.82643 0.65888 0.0672 0.0
C2522 C 0.82106 0.58384 0.18835 0.0
C2523 C 0.81336 0.58384 0.17175 0.0
C2524 C 0.79816 0.63736 0.13574 0.0
C2525 C 0.81275 0.62518 0.08947 0.0
C2526 C 0.8092 0.61932 0.1079 0.0
C2527 C 0.81155 0.61218 0.1625 0.0
C2528 C 0.80813 0.61226 0.14374 0.0
H2529 H 0.82212 0.58309 0.05356 0.0
H2530 H 0.80811 0.57669 0.08193 0.0
H2531 H 0.79166 0.66117 0.11229 0.0
H2532 H 0.82798 0.66283 0.19282 0.0
H2533 H 0.81497 0.66288 0.16417 0.0
C2534 C 0.43209 0.60374 0.19406 0.0
C2535 C 0.42447 0.6328 0.19941 0.0
C2536 C 0.43994 0.60027 0.17775 0.0
C2537 C 0.45329 0.6423 0.13771 0.0
H2538 H 0.42705 0.57117 0.1166 0.0
C2539 C 0.42642 0.64285 0.06913 0.0
C2540 C 0.42379 0.61465 0.06009 0.0
C2541 C 0.43429 0.64271 0.0855 0.0
C2542 C 0.43502 0.59065 0.12223 0.0
H2543 H 0.42016 0.68154 0.19254 0.0
H2544 H 0.4336 0.67554 0.16374 0.0
H2545 H 0.42687 0.57632 0.14728 0.0
H2546 H 0.42891 0.5644 0.06049 0.0
H2547 H 0.44288 0.56401 0.08935 0.0
H2548 H 0.4607 0.65724 0.11247 0.0
C2549 C 0.4339 0.6555 0.17224 0.0
C2550 C 0.43487 0.5937 0.13992 0.0
C2551 C 0.42621 0.65903 0.18872 0.0
C2552 C 0.43072 0.58645 0.06721 0.0
C2553 C 0.43856 0.58626 0.08376 0.0
C2554 C 0.45354 0.63916 0.11997 0.0
C2555 C 0.43998 0.62569 0.16633 0.0
C2556 C 0.44341 0.6201 0.14786 0.0
C2557 C 0.43974 0.6143 0.09333 0.0
C2558 C 0.44372 0.61392 0.11198 0.0
H2559 H 0.43086 0.58318 0.20215 0.0
H2560 H 0.44487 0.57719 0.17374 0.0
H2561 H 0.46027 0.66264 0.14344 0.0
H2562 H 0.42143 0.66504 0.06386 0.0
H2563 H 0.43475 0.66473 0.09242 0.0
C2564 C 0.18106 0.3385 0.93765 0.0
C2565 C 0.17356 0.36651 0.94457 0.0
C2566 C 0.18901 0.33832 0.92115 0.0
C2567 C 0.20346 0.3908 0.88473 0.0
H2568 H 0.17718 0.32707 0.85775 0.0
C2569 C 0.17645 0.40948 0.81588 0.0
C2570 C 0.17437 0.38303 0.80538 0.0
C2571 C 0.18414 0.40613 0.83236 0.0
C2572 C 0.1851 0.34468 0.865 0.0
H2573 H 0.17026 0.41669 0.94046 0.0
H2574 H 0.1838 0.41637 0.91196 0.0
H2575 H 0.17742 0.32243 0.88843 0.0
H2576 H 0.18038 0.33323 0.80293 0.0
H2577 H 0.1945 0.32757 0.83129 0.0
H2578 H 0.21014 0.41392 0.86115 0.0
C2579 C 0.18369 0.39451 0.91903 0.0
C2580 C 0.18527 0.34194 0.88269 0.0
C2581 C 0.17569 0.39463 0.93536 0.0
C2582 C 0.18175 0.35392 0.8109 0.0
C2583 C 0.18968 0.35066 0.82718 0.0
C2584 C 0.20325 0.39359 0.86697 0.0
C2585 C 0.18973 0.3662 0.91143 0.0
C2586 C 0.1938 0.36554 0.89282 0.0
C2587 C 0.18999 0.37632 0.83844 0.0
C2588 C 0.1935 0.37107 0.85693 0.0
H2589 H 0.17967 0.31652 0.94452 0.0
H2590 H 0.19377 0.31617 0.91572 0.0
H2591 H 0.21045 0.40915 0.89216 0.0
H2592 H 0.17067 0.43208 0.81191 0.0
H2593 H 0.18406 0.42639 0.84071 0.0
C2594 C 0.57411 0.41047 0.93722 0.0
C2595 C 0.58232 0.38282 0.94396 0.0
C2596 C 0.56553 0.4102 0.92094 0.0
C2597 C 0.55028 0.35637 0.88529 0.0
H2598 H 0.57393 0.42067 0.85694 0.0
C2599 C 0.57638 0.33683 0.81639 0.0
C2600 C 0.57715 0.36281 0.80544 0.0
C2601 C 0.56878 0.34028 0.83289 0.0
C2602 C 0.56673 0.40286 0.86461 0.0
H2603 H 0.58633 0.33279 0.93981 0.0
H2604 H 0.57171 0.33232 0.91174 0.0
H2605 H 0.57491 0.42625 0.8876 0.0
H2606 H 0.56917 0.41175 0.80228 0.0
H2607 H 0.55532 0.41756 0.83078 0.0
H2608 H 0.54326 0.33206 0.86214 0.0
C2609 C 0.57173 0.35425 0.91876 0.0
C2610 C 0.56726 0.40615 0.88228 0.0
C2611 C 0.58036 0.35459 0.93482 0.0
C2612 C 0.56864 0.39138 0.81057 0.0
C2613 C 0.56089 0.39476 0.82692 0.0
C2614 C 0.54984 0.353 0.86757 0.0
C2615 C 0.56484 0.3822 0.91131 0.0
C2616 C 0.55977 0.38235 0.89287 0.0
C2617 C 0.56185 0.36976 0.83858 0.0
C2618 C 0.55869 0.37569 0.85705 0.0
H2619 H 0.57537 0.43252 0.94404 0.0
H2620 H 0.56016 0.43209 0.91562 0.0
H2621 H 0.54402 0.33786 0.89309 0.0
H2622 H 0.58316 0.31474 0.81275 0.0
H2623 H 0.56986 0.32059 0.84158 0.0
C2624 C 0.15123 0.98422 0.99768 0.0
C2625 C 0.15066 0.95948 0.98579 0.0
C2626 C 0.16668 0.00626 0.99737 0.0
C2627 C 0.20867 0.03528 0.97057 0.0
H2628 H 0.23328 0.05379 0.014 0.0
C2629 C 0.29054 0.0702 0.97725 0.0
C2630 C 0.29576 0.09367 0.98903 0.0
C2631 C 0.27107 0.05932 0.97618 0.0
C2632 C 0.22641 0.04929 1.00179 0.0
H2633 H 0.16544 0.93965 0.96371 0.0
H2634 H 0.19219 0.97745 0.96333 0.0
H2635 H 0.20192 0.02541 0.01325 0.0
H2636 H 0.28441 0.12442 0.0088 0.0
H2637 H 0.25037 0.10506 0.00704 0.0
H2638 H 0.23363 0.05801 0.95912 0.0
C2639 C 0.18071 0.9802 0.97282 0.0
C2640 C 0.20838 0.03308 1.00134 0.0
C2641 C 0.16536 0.95826 0.97313 0.0
C2642 C 0.2809 0.10641 0.99953 0.0
C2643 C 0.26143 0.09521 0.9986 0.0
C2644 C 0.22674 0.05125 0.97102 0.0
C2645 C 0.18184 0.00414 0.98512 0.0
C2646 C 0.19951 0.02518 0.98571 0.0
C2647 C 0.25634 0.07137 0.98699 0.0
C2648 C 0.23604 0.05782 0.98661 0.0
H2649 H 0.14017 0.98591 0.00762 0.0
H2650 H 0.16693 0.02463 0.00692 0.0
H2651 H 0.20208 0.03026 0.95831 0.0
H2652 H 0.30157 0.05988 0.96895 0.0
H2653 H 0.26769 0.0407 0.96723 0.0
C2654 C 0.08821 0.29463 0.96751 0.0
C2655 C 0.10193 0.29318 0.98095 0.0
C2656 C 0.07199 0.27437 0.96703 0.0
C2657 C 0.0499 0.20164 0.98448 0.0
H2658 H 1.00072 0.24589 0.97602 0.0
C2659 C 0.97214 0.14661 0.99624 0.0
C2660 C 0.95663 0.15578 0.98537 0.0
C2661 C 0.9909 0.16039 0.99478 0.0
C2662 C 0.01429 0.23293 0.97811 0.0
H2663 H 0.10994 0.26772 0.00387 0.0
H2664 H 0.08145 0.23217 0.00299 0.0
H2665 H 0.03177 0.27435 0.97491 0.0
H2666 H 0.94908 0.18522 0.96379 0.0
H2667 H 0.98175 0.20842 0.96093 0.0
H2668 H 0.03226 0.16011 0.98769 0.0
C2669 C 0.08336 0.24911 0.99283 0.0
C2670 C 0.03214 0.24933 0.97751 0.0
C2671 C 0.09968 0.26949 0.99332 0.0
C2672 C 0.96058 0.1779 0.97252 0.0
C2673 C 0.97933 0.19138 0.97096 0.0
C2674 C 0.03196 0.18508 0.98497 0.0
C2675 C 0.069 0.25207 0.97997 0.0
C2676 C 0.05018 0.23393 0.9806 0.0
C2677 C 0.99462 0.18346 0.98234 0.0
C2678 C 0.01391 0.20053 0.98172 0.0
H2679 H 0.08957 0.31225 0.95762 0.0
H2680 H 0.06144 0.27677 0.95673 0.0
H2681 H 0.06357 0.18911 0.98688 0.0
H2682 H 0.96959 0.12972 0.00633 0.0
H2683 H 0.00224 0.15383 0.00385 0.0
C2684 C 0.29308 0.17632 0.28107 0.0
C2685 C 0.29721 0.15397 0.26837 0.0
C2686 C 0.2743 0.18989 0.28237 0.0
C2687 C 0.22184 0.18337 0.26765 0.0
H2688 H 0.22159 0.27262 0.27775 0.0
C2689 C 0.15389 0.26701 0.25814 0.0
C2690 C 0.15117 0.29065 0.27048 0.0
C2691 C 0.17038 0.24697 0.25887 0.0
C2692 C 0.22133 0.24761 0.27512 0.0
H2693 H 0.28449 0.12768 0.24739 0.0
H2694 H 0.25186 0.15188 0.24941 0.0
H2695 H 0.25273 0.24428 0.27721 0.0
H2696 H 0.16299 0.31006 0.29393 0.0
H2697 H 0.19141 0.27521 0.29522 0.0
H2698 H 0.19027 0.18727 0.26514 0.0
C2699 C 0.26305 0.15856 0.25858 0.0
C2700 C 0.23924 0.23126 0.27486 0.0
C2701 C 0.28183 0.14471 0.25739 0.0
C2702 C 0.16468 0.29246 0.28407 0.0
C2703 C 0.18108 0.27255 0.28478 0.0
C2704 C 0.20385 0.19987 0.2678 0.0
C2705 C 0.25915 0.18183 0.27088 0.0
C2706 C 0.23979 0.19886 0.27123 0.0
C2707 C 0.18449 0.25022 0.27193 0.0
C2708 C 0.20339 0.23216 0.27166 0.0
H2709 H 0.30447 0.18378 0.28988 0.0
H2710 H 0.27175 0.20709 0.2923 0.0
H2711 H 0.22163 0.15841 0.26492 0.0
H2712 H 0.14382 0.26495 0.24747 0.0
H2713 H 0.1726 0.23001 0.24876 0.0
C2714 C 0.95848 0.07091 0.28166 0.0
C2715 C 0.9546 0.09294 0.26875 0.0
C2716 C 0.97718 0.05716 0.28321 0.0
C2717 C 0.0298 0.06283 0.26912 0.0
H2718 H 0.02937 0.97356 0.27917 0.0
C2719 C 0.09763 0.97861 0.26086 0.0
C2720 C 0.09984 0.95478 0.27316 0.0
C2721 C 0.0812 -0.0012 0.2613 0.0
C2722 C 0.02982 -0.00143 0.27657 0.0
H2723 H 0.96766 0.11855 0.24767 0.0
H2724 H 1.00017 0.09408 0.25017 0.0
H2725 H 0.9984 0.00231 0.27817 0.0
H2726 H 0.08725 0.93517 0.29626 0.0
H2727 H 0.05897 0.97034 0.29707 0.0
H2728 H 0.06139 0.05855 0.26716 0.0
C2729 C 0.98883 0.08776 0.25927 0.0
C2730 C 0.01201 0.01514 0.27603 0.0
C2731 C 0.97013 0.10175 0.25781 0.0
C2732 C 0.08592 0.95291 0.28643 0.0
C2733 C 0.06961 0.973 0.28686 0.0
C2734 C 0.0477 0.04611 0.26957 0.0
C2735 C 0.99248 0.06478 0.27178 0.0
C2736 C 0.01171 0.04754 0.27241 0.0
C2737 C 0.06669 0.99554 0.27403 0.0
C2738 C 0.0479 0.01381 0.27343 0.0
H2739 H 0.94697 0.06381 0.29044 0.0
H2740 H 0.97954 0.04017 0.29328 0.0
H2741 H 0.03017 0.08779 0.2664 0.0
H2742 H 0.10804 0.9807 0.25045 0.0
H2743 H 0.07937 0.01592 0.25121 0.0
C2744 C 0.72107 0.89297 0.01727 0.0
C2745 C 0.70474 0.91342 0.01628 0.0
C2746 C 0.74038 0.90498 0.01806 0.0
C2747 C 0.76979 0.9711 0.00415 0.0
H2748 H 0.80573 0.95433 0.04156 0.0
C2749 C 0.84931 0.01997 0.00494 0.0
C2750 C 0.8531 0.03908 0.01918 0.0
C2751 C 0.83298 -0.0003 0.00476 0.0
C2752 C 0.79588 0.95894 0.03097 0.0
H2753 H 0.69594 0.96251 0.01533 0.0
H2754 H 0.72956 0.98322 0.01625 0.0
H2755 H 0.77315 0.92862 0.04083 0.0
H2756 H 0.84353 0.05028 0.04482 0.0
H2757 H 0.81536 0.01423 0.04464 0.0
H2758 H 0.79232 0.00147 0.99429 0.0
C2759 C 0.72739 0.95798 0.01663 0.0
C2760 C 0.77734 0.94421 0.03053 0.0
C2761 C 0.70814 0.94607 0.01621 0.0
C2762 C 0.84098 0.03593 0.03364 0.0
C2763 C 0.8249 0.01521 0.03357 0.0
C2764 C 0.78844 0.98527 0.00439 0.0
C2765 C 0.74368 0.93759 0.01746 0.0
C2766 C 0.764 0.95067 0.01728 0.0
C2767 C 0.82038 0.99765 0.01894 0.0
C2768 C 0.80155 0.97978 0.01794 0.0
H2769 H 0.71894 0.86772 0.01735 0.0
H2770 H 0.75275 0.88882 0.01869 0.0
H2771 H 0.75977 0.97637 0.99377 0.0
H2772 H 0.85827 0.02196 0.99356 0.0
H2773 H 0.82986 0.9863 0.99335 0.0
C2774 C 0.03204 0.85743 0.01876 0.0
C2775 C 0.04886 0.83827 0.02071 0.0
C2776 C 0.01298 0.84469 0.02038 0.0
C2777 C 0.98652 0.77281 0.03604 0.0
H2778 H 0.94473 0.80149 0.0061 0.0
C2779 C 0.90789 0.72388 0.00727 0.0
C2780 C 0.90165 0.70629 0.02141 0.0
C2781 C 0.92408 0.7443 0.00855 0.0
C2782 C 0.95625 0.79296 0.01448 0.0
H2783 H 0.05869 0.79052 0.02568 0.0
H2784 H 0.02589 0.76837 0.02791 0.0
H2785 H 0.97676 0.82757 0.00551 0.0
H2786 H 0.90645 0.69807 0.04829 0.0
H2787 H 0.9338 0.73496 0.05086 0.0
H2788 H 0.96672 0.73687 0.04417 0.0
C2789 C 0.0272 0.79343 0.02573 0.0
C2790 C 0.9746 0.80832 0.01433 0.0
C2791 C 0.04614 0.80618 0.02435 0.0
C2792 C 0.91108 0.71106 0.03712 0.0
C2793 C 0.92694 0.73202 0.03851 0.0
C2794 C 0.96836 0.75717 0.03598 0.0
C2795 C 0.0103 0.81242 0.0238 0.0
C2796 C 0.99013 0.7981 0.02492 0.0
C2797 C 0.93418 0.74811 0.02412 0.0
C2798 C 0.95297 0.76671 0.02506 0.0
H2799 H 0.03359 0.88225 0.01596 0.0
H2800 H 1.00037 0.86018 0.019 0.0
H2801 H 0.99787 0.76461 0.04469 0.0
H2802 H 0.90101 0.72048 0.99495 0.0
H2803 H 0.92922 0.75584 0.9971 0.0
C2804 C 0.85012 0.7314 0.74455 0.0
C2805 C 0.85087 0.70642 0.73282 0.0
C2806 C 0.83419 0.75259 0.74444 0.0
C2807 C 0.79053 0.77837 0.71855 0.0
H2808 H 0.76753 0.79756 0.76254 0.0
C2809 C 0.70872 0.81405 0.72732 0.0
C2810 C 0.70425 0.83803 0.73905 0.0
C2811 C 0.72802 0.80246 0.72583 0.0
C2812 C 0.7739 0.7928 0.75016 0.0
H2813 H 0.83589 0.68536 0.71118 0.0
H2814 H 0.80832 0.72161 0.71116 0.0
H2815 H 0.79923 0.77034 0.76108 0.0
H2816 H 0.71679 0.8688 0.75829 0.0
H2817 H 0.7504 0.84832 0.75575 0.0
H2818 H 0.76476 0.79978 0.70767 0.0
C2819 C 0.82002 0.72523 0.72037 0.0
C2820 C 0.79215 0.77728 0.7493 0.0
C2821 C 0.83585 0.70418 0.72047 0.0
C2822 C 0.71966 0.85039 0.74909 0.0
C2823 C 0.73892 0.83854 0.74772 0.0
C2824 C 0.77222 0.79363 0.71941 0.0
C2825 C 0.8187 0.74933 0.73257 0.0
C2826 C 0.80054 0.7693 0.73348 0.0
C2827 C 0.7433 0.81431 0.73614 0.0
C2828 C 0.76353 0.80054 0.73522 0.0
H2829 H 0.86141 0.73387 0.75424 0.0
H2830 H 0.83383 0.77115 0.75388 0.0
H2831 H 0.7967 0.77324 0.70614 0.0
H2832 H 0.69727 0.80397 0.71938 0.0
H2833 H 0.73086 0.78356 0.71691 0.0
C2834 C 0.91579 0.04287 0.71953 0.0
C2835 C 0.90221 0.04192 0.73309 0.0
C2836 C 0.93189 0.02237 0.71905 0.0
C2837 C 0.95379 0.94985 0.73713 0.0
H2838 H 0.00309 0.99267 0.72716 0.0
C2839 C 0.03148 0.89474 0.74907 0.0
C2840 C 0.04682 0.9028 0.73778 0.0
C2841 C 0.01274 0.90857 0.74753 0.0
C2842 C 0.98947 0.9801 0.72969 0.0
H2843 H 0.89435 0.01721 0.75627 0.0
H2844 H 0.92268 0.98133 0.75546 0.0
H2845 H 0.97222 0.02165 0.72608 0.0
H2846 H 0.05407 0.93025 0.71536 0.0
H2847 H 0.02144 0.95361 0.7124 0.0
H2848 H 0.97123 0.90823 0.74081 0.0
C2849 C 0.92073 0.998 0.74517 0.0
C2850 C 0.97172 0.99679 0.72909 0.0
C2851 C 0.9045 0.01857 0.74564 0.0
C2852 C 0.0427 0.9238 0.72442 0.0
C2853 C 0.02398 0.93737 0.72279 0.0
C2854 C 0.97164 0.93301 0.73765 0.0
C2855 C 0.93494 0.00039 0.73214 0.0
C2856 C 0.95365 0.98192 0.73273 0.0
C2857 C 0.00889 0.93062 0.73458 0.0
C2858 C 0.98971 0.94794 0.73386 0.0
H2859 H 0.91437 0.06021 0.7095 0.0
H2860 H 0.9423 0.02432 0.70862 0.0
H2861 H 0.9401 0.9377 0.73995 0.0
H2862 H 0.03414 0.87872 0.75955 0.0
H2863 H 1.00155 0.90294 0.7569 0.0
C2864 C 0.29338 0.57458 0.47332 0.0
C2865 C 0.29765 0.59533 0.48675 0.0
C2866 C 0.27458 0.56134 0.47164 0.0
C2867 C 0.22226 0.56587 0.48654 0.0
H2868 H 0.22277 0.47735 0.47469 0.0
C2869 C 0.15495 0.48036 0.49397 0.0
C2870 C 0.15278 0.45701 0.4814 0.0
C2871 C 0.17116 0.50099 0.4936 0.0
C2872 C 0.22228 0.50217 0.47778 0.0
H2873 H 0.28515 0.61943 0.50858 0.0
H2874 H 0.25236 0.59577 0.50586 0.0
H2875 H 0.25366 0.50618 0.47596 0.0
H2876 H 0.16511 0.43882 0.45786 0.0
H2877 H 0.19299 0.47482 0.45713 0.0
H2878 H 0.1907 0.56128 0.48871 0.0
C2879 C 0.26352 0.59007 0.49646 0.0
C2880 C 0.24005 0.51879 0.47848 0.0
C2881 C 0.28235 0.6036 0.49805 0.0
C2882 C 0.16643 0.45617 0.46789 0.0
C2883 C 0.18251 0.47673 0.46751 0.0
C2884 C 0.20438 0.5491 0.48591 0.0
C2885 C 0.25955 0.56815 0.48347 0.0
C2886 C 0.24032 0.55091 0.48275 0.0
C2887 C 0.18547 0.49867 0.48065 0.0
C2888 C 0.2042 0.51708 0.48138 0.0
H2889 H 0.30471 0.568 0.46424 0.0
H2890 H 0.27194 0.54525 0.4612 0.0
H2891 H 0.22189 0.59061 0.48979 0.0
H2892 H 0.14475 0.48164 0.50457 0.0
H2893 H 0.17302 0.51761 0.50392 0.0
C2894 C 0.08829 0.79194 0.47234 0.0
C2895 C 0.10304 0.78956 0.48491 0.0
C2896 C 0.07284 0.77022 0.47155 0.0
C2897 C 0.04519 0.71503 0.49885 0.0
H2898 H 0.01972 0.69354 0.45618 0.0
C2899 C 0.97361 0.64008 0.49596 0.0
C2900 C 0.95841 0.65281 0.48583 0.0
C2901 C 0.99288 0.65206 0.49505 0.0
C2902 C 0.02665 0.69936 0.4682 0.0
H2903 H 0.11349 0.76128 0.50606 0.0
H2904 H 0.08659 0.7229 0.5045 0.0
H2905 H 0.05112 0.72176 0.4559 0.0
H2906 H 0.95185 0.68745 0.46634 0.0
H2907 H 0.98542 0.70806 0.46467 0.0
H2908 H 0.02054 0.69287 0.5111 0.0
C2909 C 0.08687 0.74205 0.49541 0.0
C2910 C 0.04465 0.71559 0.46806 0.0
C2911 C 0.1024 0.7639 0.49621 0.0
C2912 C 0.96314 0.67707 0.47435 0.0
C2913 C 0.98243 0.68879 0.47332 0.0
C2914 C 0.02725 0.69857 0.49897 0.0
C2915 C 0.07167 0.7453 0.48327 0.0
C2916 C 0.05393 0.72435 0.48339 0.0
C2917 C 0.99747 0.67678 0.48384 0.0
C2918 C 0.01755 0.69118 0.48365 0.0
H2919 H 0.08825 0.81129 0.46337 0.0
H2920 H 0.06134 0.77385 0.46217 0.0
H2921 H 0.05172 0.72166 0.51091 0.0
H2922 H 0.97052 0.62146 0.50499 0.0
H2923 H 0.00417 0.64214 0.50323 0.0
C2924 C 0.29193 0.6795 0.78105 0.0
C2925 C 0.2961 0.65463 0.76979 0.0
C2926 C 0.2727 0.69124 0.78264 0.0
C2927 C 0.22648 0.69937 0.7587 0.0
H2928 H 0.20497 0.72489 0.80231 0.0
C2929 C 0.15124 0.76385 0.76346 0.0
C2930 C 0.15104 0.79021 0.77429 0.0
C2931 C 0.16693 0.74228 0.76402 0.0
C2932 C 0.21078 0.71806 0.79 0.0
H2933 H 0.28306 0.62224 0.75162 0.0
H2934 H 0.24949 0.64295 0.75436 0.0
H2935 H 0.23643 0.69687 0.80119 0.0
H2936 H 0.16686 0.81353 0.79478 0.0
H2937 H 0.19405 0.77652 0.79557 0.0
H2938 H 0.20127 0.72157 0.74742 0.0
C2939 C 0.26119 0.65334 0.76192 0.0
C2940 C 0.22881 0.70195 0.78938 0.0
C2941 C 0.28041 0.64136 0.76044 0.0
C2942 C 0.16645 0.7936 0.7862 0.0
C2943 C 0.18207 0.77215 0.78674 0.0
C2944 C 0.2085 0.71569 0.7593 0.0
C2945 C 0.25714 0.67863 0.77292 0.0
C2946 C 0.23706 0.69293 0.77371 0.0
C2947 C 0.18276 0.74653 0.77544 0.0
C2948 C 0.2006 0.72583 0.77494 0.0
H2949 H 0.3036 0.6903 0.78846 0.0
H2950 H 0.27013 0.71095 0.7911 0.0
H2951 H 0.23252 0.69302 0.7464 0.0
H2952 H 0.13964 0.76043 0.75413 0.0
H2953 H 0.16683 0.72257 0.75529 0.0
C2954 C 0.09343 0.46484 0.78527 0.0
C2955 C 0.10272 0.4591 0.76959 0.0
C2956 C 0.07758 0.48589 0.78639 0.0
C2957 C 0.04784 0.545 0.76135 0.0
H2958 H 0.0066 0.51836 0.79238 0.0
C2959 C 0.95793 0.55742 0.77144 0.0
C2960 C 0.95491 0.58918 0.76717 0.0
C2961 C 0.97698 0.54513 0.77294 0.0
C2962 C 0.01784 0.52606 0.7835 0.0
H2963 H 0.10311 0.47165 0.74288 0.0
H2964 H 0.07492 0.50711 0.74458 0.0
H2965 H 0.03788 0.49101 0.79229 0.0
H2966 H 0.96977 0.63306 0.76135 0.0
H2967 H 0.00321 0.61183 0.76457 0.0
H2968 H 0.02706 0.57864 0.75175 0.0
C2969 C 0.08017 0.49632 0.75621 0.0
C2970 C 0.03609 0.51067 0.78367 0.0
C2971 C 0.09635 0.47583 0.75518 0.0
C2972 C 0.97155 0.60848 0.76465 0.0
C2973 C 0.99074 0.59622 0.76638 0.0
C2974 C 0.0294 0.56009 0.76097 0.0
C2975 C 0.07019 0.50106 0.77176 0.0
C2976 C 0.05134 0.51957 0.77246 0.0
C2977 C 0.99371 0.56428 0.77049 0.0
C2978 C 0.014 0.55043 0.77184 0.0
H2979 H 0.09816 0.4525 0.79663 0.0
H2980 H 0.07083 0.48958 0.79872 0.0
H2981 H 0.05925 0.55307 0.75272 0.0
H2982 H 0.94552 0.54163 0.77323 0.0
H2983 H 0.9785 0.52028 0.77564 0.0
C2984 C 0.70757 0.44282 0.51963 0.0
C2985 C 0.70466 0.41083 0.51584 0.0
C2986 C 0.72658 0.45526 0.52114 0.0
C2987 C 0.77923 0.43974 0.51003 0.0
H2988 H 0.78734 0.51001 0.54063 0.0
C2989 C 0.84341 0.53432 0.53466 0.0
C2990 C 0.85318 0.53947 0.51915 0.0
C2991 C 0.82729 0.51379 0.5356 0.0
C2992 C 0.78563 0.49003 0.53222 0.0
H2993 H 0.71969 0.36672 0.51087 0.0
H2994 H 0.75303 0.38823 0.5141 0.0
H2995 H 0.75591 0.48304 0.54053 0.0
H2996 H 0.85414 0.52636 0.49253 0.0
H2997 H 0.8255 0.49171 0.49389 0.0
H2998 H 0.80929 0.44611 0.50218 0.0
C2999 C 0.74051 0.4039 0.51553 0.0
C3000 C 0.76731 0.47485 0.53193 0.0
C3001 C 0.72137 0.39147 0.51379 0.0
C3002 C 0.84701 0.52264 0.50471 0.0
C3003 C 0.83056 0.50263 0.50554 0.0
C3004 C 0.79772 0.45465 0.51051 0.0
C3005 C 0.74338 0.43604 0.51916 0.0
C3006 C 0.76364 0.44998 0.52055 0.0
C3007 C 0.82013 0.49851 0.52092 0.0
C3008 C 0.8011 0.48045 0.5214 0.0
H3009 H 0.69511 0.45863 0.52105 0.0
H3010 H 0.72804 0.48024 0.52348 0.0
H3011 H 0.77702 0.42081 0.50101 0.0
H3012 H 0.84798 0.54674 0.54605 0.0
H3013 H 0.82017 0.51056 0.54781 0.0
C3014 C 0.04537 0.32008 0.53012 0.0
C3015 C 0.04927 0.34183 0.51707 0.0
C3016 C 0.02666 0.30644 0.53178 0.0
C3017 C 0.97401 0.31216 0.51777 0.0
H3018 H 0.97417 0.22316 0.5285 0.0
C3019 C 0.90597 0.22852 0.50984 0.0
C3020 C 0.90361 0.20476 0.52216 0.0
C3021 C 0.92246 0.24857 0.5103 0.0
C3022 C 0.97379 0.24811 0.52572 0.0
H3023 H 0.03623 0.36703 0.49584 0.0
H3024 H 0.00368 0.34274 0.49853 0.0
H3025 H 0.00523 0.25163 0.52725 0.0
H3026 H 0.91605 0.18513 0.54532 0.0
H3027 H 0.94444 0.22011 0.54617 0.0
H3028 H 0.9424 0.30811 0.51586 0.0
C3029 C 0.01502 0.33656 0.50766 0.0
C3030 C 0.99166 0.26452 0.52504 0.0
C3031 C 0.03374 0.35044 0.50609 0.0
C3032 C 0.91746 0.20284 0.53548 0.0
C3033 C 0.93385 0.22281 0.53593 0.0
C3034 C 0.95606 0.29561 0.51837 0.0
C3035 C 0.01135 0.31388 0.52033 0.0
C3036 C 0.99206 0.29681 0.52114 0.0
C3037 C 0.9369 0.24526 0.52307 0.0
C3038 C 0.95575 0.2634 0.52246 0.0
H3039 H 0.05688 0.31313 0.53894 0.0
H3040 H 0.02428 0.28969 0.54196 0.0
H3041 H 0.97371 0.33705 0.51485 0.0
H3042 H 0.89564 0.23066 0.49937 0.0
H3043 H 0.92438 0.2656 0.50018 0.0
C3044 C 0.71961 0.35003 0.24609 0.0
C3045 C 0.70414 0.34007 0.23538 0.0
C3046 C 0.73847 0.33654 0.2448 0.0
C3047 C 0.76272 0.26402 0.22875 0.0
H3048 H 0.8114 0.30963 0.23727 0.0
C3049 C 0.83759 0.2049 0.21834 0.0
C3050 C 0.85119 0.20679 0.23186 0.0
C3051 C 0.82108 0.22458 0.21779 0.0
C3052 C 0.7979 0.2966 0.23494 0.0
H3053 H 0.69675 0.30937 0.21428 0.0
H3054 H 0.72961 0.28668 0.21167 0.0
H3055 H 0.77972 0.33761 0.23785 0.0
H3056 H 0.85867 0.23249 0.25483 0.0
H3057 H 0.82971 0.26709 0.25379 0.0
H3058 H 0.78078 0.22313 0.22577 0.0
C3059 C 0.72709 0.30413 0.22147 0.0
C3060 C 0.77973 0.31258 0.23531 0.0
C3061 C 0.70822 0.31733 0.22288 0.0
C3062 C 0.84852 0.23038 0.24423 0.0
C3063 C 0.83193 0.25021 0.24364 0.0
C3064 C 0.7808 0.2482 0.22824 0.0
C3065 C 0.74237 0.31296 0.23267 0.0
C3066 C 0.76188 0.29648 0.23215 0.0
C3067 C 0.81769 0.24676 0.23072 0.0
C3068 C 0.79862 0.26426 0.23126 0.0
H3069 H 0.71697 0.36739 0.25592 0.0
H3070 H 0.74977 0.34379 0.25374 0.0
H3071 H 0.74933 0.25054 0.22674 0.0
H3072 H 0.83924 0.18733 0.20846 0.0
H3073 H 0.81062 0.2218 0.20746 0.0
C3074 C 0.90412 0.51704 0.24243 0.0
C3075 C 0.9015 0.54084 0.23017 0.0
C3076 C 0.92065 0.49707 0.24174 0.0
C3077 C 0.97178 0.49793 0.22579 0.0
H3078 H 0.97205 0.40882 0.2362 0.0
C3079 C 0.04366 0.42658 0.2207 0.0
C3080 C 0.04762 0.40436 0.23351 0.0
C3081 C 0.02491 0.4402 0.2192 0.0
C3082 C 0.97226 0.43376 0.23342 0.0
H3083 H 0.91354 0.5606 0.20687 0.0
H3084 H 0.94201 0.52582 0.20566 0.0
H3085 H 0.94067 0.43759 0.23566 0.0
H3086 H 0.03461 0.37838 0.25448 0.0
H3087 H 0.00204 0.40262 0.25208 0.0
H3088 H 0.0032 0.49466 0.22396 0.0
C3089 C 0.93158 0.523 0.21601 0.0
C3090 C 0.95426 0.45021 0.23308 0.0
C3091 C 0.91515 0.54286 0.21668 0.0
C3092 C 0.0321 0.39531 0.24441 0.0
C3093 C 0.01335 0.40918 0.243 0.0
C3094 C 0.9897 0.48163 0.22623 0.0
C3095 C 0.93489 0.50051 0.2288 0.0
C3096 C 0.95381 0.48249 0.22916 0.0
C3097 C 0.00961 0.43229 0.23057 0.0
C3098 C 0.99025 0.44927 0.22996 0.0
H3099 H 0.89396 0.51482 0.25301 0.0
H3100 H 0.92278 0.48 0.25181 0.0
H3101 H 0.97205 0.52293 0.22312 0.0
H3102 H 0.05517 0.4339 0.21197 0.0
H3103 H 0.02251 0.45729 0.20919 0.0
C3104 C 0.78414 0.10114 0.4972 0.0
C3105 C 0.79935 0.09248 0.48589 0.0
C3106 C 0.76533 0.08749 0.49595 0.0
C3107 C 0.74119 0.01599 0.47864 0.0
H3108 H 0.69244 0.05945 0.48983 0.0
C3109 C 0.66671 0.95564 0.46898 0.0
C3110 C 0.65366 0.9558 0.48294 0.0
C3111 C 0.68289 0.97596 0.46844 0.0
C3112 C 0.70596 0.04702 0.48675 0.0
H3113 H 0.80629 0.06399 0.46379 0.0
H3114 H 0.77347 0.04104 0.46127 0.0
H3115 H 0.72384 0.08823 0.49015 0.0
H3116 H 0.64675 0.9791 0.50676 0.0
H3117 H 0.67519 0.01487 0.50577 0.0
H3118 H 0.72344 0.97492 0.47519 0.0
C3119 C 0.77619 0.05759 0.47148 0.0
C3120 C 0.72397 0.06345 0.48696 0.0
C3121 C 0.79502 0.07096 0.47284 0.0
C3122 C 0.65648 0.97838 0.49581 0.0
C3123 C 0.67278 -0.00115 0.49526 0.0
C3124 C 0.72327 -0.00026 0.4783 0.0
C3125 C 0.76122 0.06503 0.48328 0.0
C3126 C 0.74184 0.04813 0.48285 0.0
C3127 C 0.68653 0.99705 0.48184 0.0
C3128 C 0.70542 0.01502 0.48228 0.0
H3129 H 0.78696 0.11753 0.50747 0.0
H3130 H 0.75428 0.09365 0.50536 0.0
H3131 H 0.75462 0.00307 0.47588 0.0
H3132 H 0.66487 0.93891 0.4587 0.0
H3133 H 0.69294 0.97449 0.45774 0.0
C3134 C 0.47087 0.147 0.49798 0.0
C3135 C 0.45555 0.15568 0.48679 0.0
C3136 C 0.48966 0.16071 0.49662 0.0
C3137 C 0.51387 0.23204 0.47898 0.0
H3138 H 0.56259 0.18792 0.48947 0.0
C3139 C 0.58858 0.29098 0.46778 0.0
C3140 C 0.60199 0.29072 0.48148 0.0
C3141 C 0.57222 0.271 0.46763 0.0
C3142 C 0.54908 0.20054 0.48659 0.0
H3143 H 0.44838 0.18439 0.46483 0.0
H3144 H 0.48113 0.20744 0.46213 0.0
H3145 H 0.53104 0.15964 0.49038 0.0
H3146 H 0.60929 0.26753 0.50525 0.0
H3147 H 0.58056 0.23234 0.50493 0.0
H3148 H 0.5318 0.2728 0.47511 0.0
C3149 C 0.47853 0.19082 0.47233 0.0
C3150 C 0.53098 0.18439 0.48715 0.0
C3151 C 0.45973 0.1774 0.47379 0.0
C3152 C 0.5993 0.26834 0.49449 0.0
C3153 C 0.58283 0.2482 0.49432 0.0
C3154 C 0.53189 0.248 0.47829 0.0
C3155 C 0.49366 0.18325 0.48396 0.0
C3156 C 0.51311 0.19993 0.48328 0.0
C3157 C 0.56875 0.25014 0.48116 0.0
C3158 C 0.54973 0.23249 0.482 0.0
H3159 H 0.46817 0.13046 0.5082 0.0
H3160 H 0.50082 0.15445 0.50591 0.0
H3161 H 0.50046 0.24513 0.4764 0.0
H3162 H 0.59028 0.30756 0.45741 0.0
H3163 H 0.5619 0.27257 0.45711 0.0
C3164 C 0.66502 0.29345 0.78346 0.0
C3165 C 0.65157 0.29258 0.76979 0.0
C3166 C 0.68128 0.27328 0.78391 0.0
C3167 C 0.70397 0.20134 0.76629 0.0
H3168 H 0.7528 0.2458 0.77586 0.0
C3169 C 0.78226 0.14629 0.75668 0.0
C3170 C 0.79744 0.15586 0.76779 0.0
C3171 C 0.76341 0.15996 0.75764 0.0
C3172 C 0.73933 0.23276 0.77346 0.0
H3173 H 0.6441 0.26819 0.74642 0.0
H3174 H 0.67269 0.23267 0.74727 0.0
H3175 H 0.72166 0.27408 0.77634 0.0
H3176 H 0.80427 0.18584 0.78932 0.0
H3177 H 0.77143 0.20878 0.79137 0.0
H3178 H 0.72179 0.15988 0.76349 0.0
C3179 C 0.67052 0.24916 0.75761 0.0
C3180 C 0.72143 0.24908 0.77368 0.0
C3181 C 0.65414 0.26949 0.75713 0.0
C3182 C 0.79303 0.1782 0.78042 0.0
C3183 C 0.77418 0.19155 0.7815 0.0
C3184 C 0.72198 0.18484 0.7662 0.0
C3185 C 0.68462 0.25161 0.77073 0.0
C3186 C 0.70351 0.2336 0.77022 0.0
C3187 C 0.75925 0.18332 0.76983 0.0
C3188 C 0.7399 0.20034 0.7699 0.0
H3189 H 0.6634 0.31057 0.79358 0.0
H3190 H 0.69161 0.27527 0.7944 0.0
H3191 H 0.6904 0.18876 0.7636 0.0
H3192 H 0.78516 0.12924 0.74674 0.0
H3193 H 0.75237 0.15312 0.74837 0.0
C3194 C 0.59268 0.96547 0.78625 0.0
C3195 C 0.60138 0.9582 0.77052 0.0
C3196 C 0.57697 0.98677 0.78722 0.0
C3197 C 0.5463 0.04356 0.7615 0.0
H3198 H 0.5062 0.01925 0.79417 0.0
C3199 C 0.45675 0.05645 0.77347 0.0
C3200 C 0.45354 0.08785 0.76857 0.0
C3201 C 0.47587 0.04438 0.77485 0.0
C3202 C 0.51712 0.02629 0.78484 0.0
H3203 H 0.60099 0.96831 0.74353 0.0
H3204 H 0.57296 0.00428 0.74499 0.0
H3205 H 0.53752 0.99205 0.7939 0.0
H3206 H 0.46817 0.13136 0.76157 0.0
H3207 H 0.50172 0.11053 0.76455 0.0
H3208 H 0.52512 0.07636 0.75169 0.0
C3209 C 0.57857 0.99448 0.75675 0.0
C3210 C 0.53539 0.011 0.7849 0.0
C3211 C 0.59466 0.97374 0.75586 0.0
C3212 C 0.47008 0.10706 0.76536 0.0
C3213 C 0.48933 0.09501 0.76695 0.0
C3214 C 0.52782 0.05856 0.76126 0.0
C3215 C 0.56911 0.00063 0.7724 0.0
C3216 C 0.55024 0.01908 0.7731 0.0
C3217 C 0.49248 0.0634 0.77162 0.0
C3218 C 0.51283 0.04972 0.77275 0.0
H3219 H 0.59771 0.95402 0.79779 0.0
H3220 H 0.57065 0.99161 0.79961 0.0
H3221 H 0.55738 0.05094 0.75239 0.0
H3222 H 0.44444 0.04073 0.77582 0.0
H3223 H 0.47754 0.01974 0.77803 0.0
C3224 C 0.20837 0.94052 0.52248 0.0
C3225 C 0.20544 0.90791 0.5207 0.0
C3226 C 0.22744 0.95318 0.52263 0.0
C3227 C 0.27827 0.94071 0.53318 0.0
H3228 H 0.29026 0.00109 0.49759 0.0
C3229 C 0.34089 0.03462 0.53519 0.0
C3230 C 0.35235 0.0384 0.52038 0.0
C3231 C 0.32494 0.01363 0.53546 0.0
C3232 C 0.2872 0.98405 0.50751 0.0
H3233 H 0.22036 0.86296 0.51827 0.0
H3234 H 0.2539 0.88527 0.5192 0.0
H3235 H 0.25805 0.97477 0.49797 0.0
H3236 H 0.35641 0.0223 0.49442 0.0
H3237 H 0.32817 0.98624 0.4948 0.0
H3238 H 0.30713 0.95121 0.54318 0.0
C3239 C 0.24127 0.90085 0.52021 0.0
C3240 C 0.26876 0.96917 0.50777 0.0
C3241 C 0.22212 0.88816 0.51967 0.0
C3242 C 0.34798 0.01978 0.50607 0.0
C3243 C 0.33176 -0.00071 0.50623 0.0
C3244 C 0.2966 0.95618 0.53314 0.0
C3245 C 0.24404 0.93352 0.52138 0.0
C3246 C 0.26409 0.94755 0.52066 0.0
C3247 C 0.31986 0.99647 0.52083 0.0
C3248 C 0.30118 0.97811 0.52033 0.0
H3249 H 0.1959 0.95647 0.52315 0.0
H3250 H 0.22923 0.97844 0.52359 0.0
H3251 H 0.27493 0.92419 0.54328 0.0
H3252 H 0.34389 0.0486 0.54642 0.0
H3253 H 0.31595 0.01205 0.54684 0.0
C3254 C 0.40594 0.72854 0.511 0.0
C3255 C 0.40366 0.70447 0.52315 0.0
C3256 C 0.42263 0.7482 0.51134 0.0
C3257 C 0.47432 0.74558 0.52563 0.0
H3258 H 0.47513 0.83514 0.51644 0.0
C3259 C 0.54689 0.81493 0.53032 0.0
C3260 C 0.55076 0.83775 0.51781 0.0
C3261 C 0.52807 0.80164 0.53191 0.0
C3262 C 0.47519 0.81007 0.51887 0.0
H3263 H 0.41644 0.68393 0.54594 0.0
H3264 H 0.44519 0.71814 0.54657 0.0
H3265 H 0.44349 0.80714 0.51747 0.0
H3266 H 0.53757 0.86512 0.49745 0.0
H3267 H 0.50483 0.84141 0.49999 0.0
H3268 H 0.50583 0.74796 0.52663 0.0
C3269 C 0.43437 0.72141 0.53655 0.0
C3270 C 0.45704 0.79407 0.51949 0.0
C3271 C 0.41779 0.70188 0.53623 0.0
C3272 C 0.53511 0.84768 0.50728 0.0
C3273 C 0.51628 0.83413 0.50877 0.0
C3274 C 0.49238 0.76143 0.5249 0.0
C3275 C 0.43735 0.74412 0.52382 0.0
C3276 C 0.45641 0.76166 0.52301 0.0
C3277 C 0.51261 0.81048 0.52091 0.0
C3278 C 0.49312 0.79395 0.52164 0.0
H3279 H 0.39539 0.73119 0.50073 0.0
H3280 H 0.4245 0.76548 0.50134 0.0
H3281 H 0.47443 0.72047 0.52797 0.0
H3282 H 0.5585 0.80696 0.53879 0.0
H3283 H 0.52572 0.78411 0.54171 0.0
C3284 C 0.33754 0.70554 0.22101 0.0
C3285 C 0.35091 0.70584 0.23473 0.0
C3286 C 0.32164 0.72645 0.2205 0.0
C3287 C 0.29992 0.79884 0.23911 0.0
H3288 H 0.25061 0.75736 0.2277 0.0
C3289 C 0.22185 0.854 0.25027 0.0
C3290 C 0.2069 0.8464 0.23851 0.0
C3291 C 0.24071 0.84042 0.2489 0.0
C3292 C 0.26424 0.76957 0.23064 0.0
H3293 H 0.35863 0.72981 0.25817 0.0
H3294 H 0.33064 0.76632 0.25732 0.0
H3295 H 0.28127 0.72788 0.22681 0.0
H3296 H 0.2005 0.82043 0.2154 0.0
H3297 H 0.2333 0.7976 0.21276 0.0
H3298 H 0.28264 0.84059 0.24306 0.0
C3299 C 0.3326 0.7499 0.24692 0.0
C3300 C 0.28188 0.75258 0.23015 0.0
C3301 C 0.34864 0.72895 0.24741 0.0
C3302 C 0.21157 0.82644 0.22483 0.0
C3303 C 0.23038 0.81317 0.22338 0.0
C3304 C 0.28217 0.81598 0.23955 0.0
C3305 C 0.31856 0.74816 0.23372 0.0
C3306 C 0.29997 0.76697 0.23427 0.0
C3307 C 0.24502 0.81915 0.23568 0.0
C3308 C 0.26411 0.80155 0.23521 0.0
H3309 H 0.33896 0.68839 0.21088 0.0
H3310 H 0.31139 0.72499 0.20993 0.0
H3311 H 0.31362 0.81062 0.24232 0.0
H3312 H 0.21873 0.86922 0.261 0.0
H3313 H 0.25158 0.84549 0.25864 0.0
C3314 C 0.54237 0.92852 0.22502 0.0
C3315 C 0.54701 0.90454 0.2367 0.0
C3316 C 0.52307 0.9401 0.2237 0.0
C3317 C 0.47772 0.95002 0.24874 0.0
H3318 H 0.45476 0.97287 0.20525 0.0
C3319 C 0.40218 0.01421 0.24451 0.0
C3320 C 0.40153 0.03971 0.2331 0.0
C3321 C 0.41797 0.99278 0.24409 0.0
C3322 C 0.46097 0.96681 0.21753 0.0
H3323 H 0.53471 0.87353 0.25592 0.0
H3324 H 0.501 0.89394 0.25364 0.0
H3325 H 0.48618 0.94475 0.20608 0.0
H3326 H 0.41667 0.06165 0.21181 0.0
H3327 H 0.44402 0.0249 0.21124 0.0
H3328 H 0.45293 0.97306 0.26023 0.0
C3329 C 0.51239 0.90376 0.24553 0.0
C3330 C 0.47899 0.95063 0.21798 0.0
C3331 C 0.53169 0.89192 0.24674 0.0
C3332 C 0.4166 0.0424 0.22083 0.0
C3333 C 0.43231 0.02107 0.22042 0.0
C3334 C 0.45975 0.96641 0.24829 0.0
C3335 C 0.5079 0.92823 0.23412 0.0
C3336 C 0.48778 0.94255 0.2336 0.0
C3337 C 0.43344 0.99628 0.23223 0.0
C3338 C 0.45132 0.9756 0.23268 0.0
H3339 H 0.55375 0.93881 0.21707 0.0
H3340 H 0.52018 0.95916 0.2149 0.0
H3341 H 0.48417 0.94443 0.26099 0.0
H3342 H 0.39086 0.01135 0.25414 0.0
H3343 H 0.4182 0.97372 0.25324 0.0
C3344 C 0.65428 0.48028 0.99291 0.0
C3345 C 0.65429 0.45444 0.98172 0.0
C3346 C 0.66962 0.50249 0.9924 0.0
C3347 C 0.71228 0.52972 0.96591 0.0
H3348 H 0.73517 0.55289 0.00938 0.0
C3349 C 0.7934 0.56885 0.97376 0.0
C3350 C 0.79777 0.59307 0.98536 0.0
C3351 C 0.77416 0.5571 0.97232 0.0
C3352 C 0.72879 0.54708 0.99713 0.0
H3353 H 0.67005 0.43265 0.9607 0.0
H3354 H 0.69663 0.47074 0.96 0.0
H3355 H 0.70419 0.52358 0.00862 0.0
H3356 H 0.78509 0.62442 0.00426 0.0
H3357 H 0.75152 0.6037 1.00177 0.0
H3358 H 0.73735 0.55217 0.95447 0.0
C3359 C 0.68476 0.47423 0.96907 0.0
C3360 C 0.71097 0.53033 0.99669 0.0
C3361 C 0.66952 0.45214 0.96957 0.0
C3362 C 0.78228 0.60579 0.99517 0.0
C3363 C 0.76306 0.59381 0.99383 0.0
C3364 C 0.73015 0.54626 0.96636 0.0
C3365 C 0.68524 0.4994 0.98066 0.0
C3366 C 0.70271 0.52081 0.98108 0.0
C3367 C 0.75883 0.56909 0.98253 0.0
C3368 C 0.73882 0.55457 0.98198 0.0
H3369 H 0.6428 0.48283 0.00242 0.0
H3370 H 0.6694 0.52181 1.00138 0.0
H3371 H 0.70616 0.52337 0.95365 0.0
H3372 H 0.80493 0.5585 0.96599 0.0
H3373 H 0.77143 0.53783 0.96361 0.0
C3374 C 0.47164 0.64729 0.9996 0.0
C3375 C 0.4565 0.65624 0.98831 0.0
C3376 C 0.49057 0.66059 0.9983 0.0
C3377 C 0.51504 0.73164 0.98072 0.0
H3378 H 0.5637 0.68775 0.99167 0.0
C3379 C 0.58959 0.79054 0.96951 0.0
C3380 C 0.60276 0.79099 0.98338 0.0
C3381 C 0.57337 0.77029 0.96938 0.0
C3382 C 0.5502 0.70029 0.98865 0.0
H3383 H 0.44976 0.68464 0.96613 0.0
H3384 H 0.48273 0.70687 0.9635 0.0
H3385 H 0.53214 0.65938 0.99246 0.0
H3386 H 0.60986 0.76874 0.00746 0.0
H3387 H 0.58135 0.73307 0.00716 0.0
H3388 H 0.53296 0.77239 0.97682 0.0
C3389 C 0.47991 0.69048 0.97377 0.0
C3390 C 0.53211 0.6841 0.98914 0.0
C3391 C 0.46099 0.67754 0.97519 0.0
C3392 C 0.60003 0.769 0.99657 0.0
C3393 C 0.5837 0.74859 0.99642 0.0
C3394 C 0.53304 0.74763 0.98009 0.0
C3395 C 0.49482 0.6829 0.98558 0.0
C3396 C 0.51428 0.69957 0.98507 0.0
C3397 C 0.56982 0.74986 0.98308 0.0
C3398 C 0.55085 0.73217 0.98394 0.0
H3399 H 0.46867 0.63104 0.0099 0.0
H3400 H 0.50159 0.65429 0.0077 0.0
H3401 H 0.50165 0.7447 0.97801 0.0
H3402 H 0.59135 0.80679 0.959 0.0
H3403 H 0.5632 0.77134 0.95874 0.0
C3404 C 0.65584 0.77085 0.2598 0.0
C3405 C 0.65374 0.79525 0.27179 0.0
C3406 C 0.67235 0.7508 0.26029 0.0
C3407 C 0.72404 0.75164 0.27489 0.0
H3408 H 0.72325 0.66177 0.26662 0.0
C3409 C 0.79533 0.67912 0.28067 0.0
C3410 C 0.79888 0.6558 0.26835 0.0
C3411 C 0.77672 0.69323 0.28211 0.0
C3412 C 0.72376 0.68691 0.26879 0.0
H3413 H 0.6668 0.81616 0.29437 0.0
H3414 H 0.69523 0.78133 0.29524 0.0
H3415 H 0.69215 0.69133 0.26706 0.0
H3416 H 0.78528 0.62836 0.24823 0.0
H3417 H 0.75293 0.65343 0.2505 0.0
H3418 H 0.75548 0.74775 0.27623 0.0
C3419 C 0.68439 0.77805 0.28525 0.0
C3420 C 0.70592 0.70381 0.26907 0.0
C3421 C 0.66797 0.79796 0.28478 0.0
C3422 C 0.78308 0.64613 0.25792 0.0
C3423 C 0.76446 0.66049 0.25926 0.0
C3424 C 0.7418 0.73488 0.27451 0.0
C3425 C 0.6871 0.7548 0.27275 0.0
C3426 C 0.70586 0.73637 0.27226 0.0
C3427 C 0.76115 0.68473 0.27114 0.0
C3428 C 0.74196 0.70223 0.27158 0.0
H3429 H 0.64521 0.76807 0.2496 0.0
H3430 H 0.67401 0.73314 0.25047 0.0
H3431 H 0.7246 0.77681 0.27699 0.0
H3432 H 0.80707 0.68695 0.28905 0.0
H3433 H 0.77464 0.71119 0.29172 0.0
C3434 C 0.59706 0.47787 0.25385 0.0
C3435 C 0.60113 0.45914 0.26818 0.0
C3436 C 0.58104 0.49876 0.25395 0.0
C3437 C 0.54565 0.54183 0.28083 0.0
H3438 H 0.50748 0.52352 0.24532 0.0
C3439 C 0.47034 0.60797 0.26855 0.0
C3440 C 0.45397 0.58753 0.26899 0.0
C3441 C 0.48967 0.59596 0.26886 0.0
C3442 C 0.5181 0.52906 0.25521 0.0
H3443 H 0.59246 0.44923 0.29421 0.0
H3444 H 0.56487 0.48638 0.29449 0.0
H3445 H 0.53986 0.49781 0.24488 0.0
H3446 H 0.44514 0.53846 0.27014 0.0
H3447 H 0.47876 0.51773 0.27021 0.0
H3448 H 0.52365 0.57298 0.29118 0.0
C3449 C 0.57392 0.48462 0.28316 0.0
C3450 C 0.53663 0.51454 0.2549 0.0
C3451 C 0.58967 0.46328 0.28296 0.0
C3452 C 0.45737 0.55492 0.26994 0.0
C3453 C 0.4766 0.54298 0.26986 0.0
C3454 C 0.52721 0.55691 0.28093 0.0
C3455 C 0.56908 0.50184 0.26849 0.0
C3456 C 0.55046 0.52031 0.26788 0.0
C3457 C 0.49291 0.56333 0.26919 0.0
C3458 C 0.51315 0.55011 0.2683 0.0
H3459 H 0.60553 0.47509 0.24224 0.0
H3460 H 0.57764 0.51186 0.24249 0.0
H3461 H 0.55606 0.54664 0.29099 0.0
H3462 H 0.46821 0.63318 0.26781 0.0
H3463 H 0.50206 0.61207 0.26832 0.0
C3464 C 0.34893 0.52036 0.0106 0.0
C3465 C 0.3512 0.54382 0.02309 0.0
C3466 C 0.3325 0.50018 0.0109 0.0
C3467 C 0.28117 0.50045 0.02613 0.0
H3468 H 0.28114 0.41156 0.01515 0.0
C3469 C 0.20947 0.42901 0.03032 0.0
C3470 C 0.20553 0.40735 0.01723 0.0
C3471 C 0.22822 0.44245 0.03204 0.0
C3472 C 0.28088 0.43644 0.01809 0.0
H3473 H 0.33874 0.5627 0.04643 0.0
H3474 H 0.31044 0.52754 0.04701 0.0
H3475 H 0.3125 0.44036 0.01627 0.0
H3476 H 0.21855 0.38208 0.99602 0.0
H3477 H 0.25118 0.40606 0.9988 0.0
H3478 H 0.24973 0.4971 0.02756 0.0
C3479 C 0.32105 0.52518 0.03675 0.0
C3480 C 0.29885 0.45289 0.01876 0.0
C3481 C 0.33737 0.54526 0.03645 0.0
C3482 C 0.22107 0.3986 0.00628 0.0
C3483 C 0.23983 0.4123 0.00791 0.0
C3484 C 0.26329 0.48414 0.02537 0.0
C3485 C 0.31805 0.5031 0.0237 0.0
C3486 C 0.29919 0.48507 0.02291 0.0
C3487 C 0.24353 0.43491 0.02061 0.0
C3488 C 0.26285 0.45187 0.02145 0.0
H3489 H 0.35928 0.5186 1.00011 0.0
H3490 H 0.33061 0.48342 1.00065 0.0
H3491 H 0.28083 0.52539 0.02895 0.0
H3492 H 0.19795 0.43603 0.03912 0.0
H3493 H 0.23062 0.45913 0.04225 0.0
C3494 C 0.5434 0.31642 0.02567 0.0
C3495 C 0.54837 0.34063 0.01425 0.0
C3496 C 0.52391 0.30572 0.02695 0.0
C3497 C 0.47852 0.29797 0.00215 0.0
H3498 H 0.45535 0.27641 0.04575 0.0
C3499 C 0.40353 0.23214 0.00703 0.0
C3500 C 0.4037 0.20656 0.01839 0.0
C3501 C 0.41888 0.25438 0.00725 0.0
C3502 C 0.46161 0.28221 0.03345 0.0
H3503 H 0.53658 0.37289 0.9954 0.0
H3504 H 0.50253 0.35385 0.99753 0.0
H3505 H 0.48693 0.30406 0.04479 0.0
H3506 H 0.41969 0.1853 0.03943 0.0
H3507 H 0.44621 0.22341 0.03968 0.0
H3508 H 0.45366 0.27488 0.99077 0.0
C3509 C 0.51379 0.34327 0.0055 0.0
C3510 C 0.4797 0.29809 0.03292 0.0
C3511 C 0.53327 0.35428 0.00437 0.0
C3512 C 0.41906 0.20455 0.03041 0.0
C3513 C 0.43426 0.22668 0.03067 0.0
C3514 C 0.46047 0.28183 0.00267 0.0
C3515 C 0.50893 0.31872 0.01672 0.0
C3516 C 0.4886 0.30545 0.01727 0.0
C3517 C 0.4346 0.2516 0.01893 0.0
C3518 C 0.45206 0.27299 0.01833 0.0
H3519 H 0.55462 0.30539 0.03349 0.0
H3520 H 0.52069 0.28652 0.03558 0.0
H3521 H 0.48508 0.30315 0.98988 0.0
H3522 H 0.39193 0.23439 0.9976 0.0
H3523 H 0.41859 0.27347 0.99813 0.0
C3524 C 0.34701 0.22629 0.74428 0.0
C3525 C 0.34955 0.20246 0.73203 0.0
C3526 C 0.33062 0.24654 0.74349 0.0
C3527 C 0.27966 0.24614 0.72737 0.0
H3528 H 0.27973 0.33552 0.73705 0.0
C3529 C 0.20813 0.31818 0.72151 0.0
C3530 C 0.20429 0.34079 0.73414 0.0
C3531 C 0.22681 0.30425 0.72015 0.0
C3532 C 0.27942 0.31051 0.73448 0.0
H3533 H 0.33763 0.18298 0.70863 0.0
H3534 H 0.3094 0.21819 0.70724 0.0
H3535 H 0.31098 0.30639 0.73688 0.0
H3536 H 0.21739 0.3671 0.75495 0.0
H3537 H 0.24978 0.34232 0.75283 0.0
H3538 H 0.24826 0.24969 0.72539 0.0
C3539 C 0.31976 0.22082 0.71767 0.0
C3540 C 0.29735 0.29387 0.73435 0.0
C3541 C 0.33604 0.2007 0.71844 0.0
C3542 C 0.21982 0.34987 0.74502 0.0
C3543 C 0.23847 0.3357 0.74376 0.0
C3544 C 0.26181 0.26263 0.72761 0.0
C3545 C 0.31648 0.24331 0.73045 0.0
C3546 C 0.29766 0.2615 0.73069 0.0
C3547 C 0.24212 0.31227 0.73151 0.0
C3548 C 0.26139 0.29509 0.73107 0.0
H3549 H 0.35709 0.22829 0.75494 0.0
H3550 H 0.32849 0.26364 0.75354 0.0
H3551 H 0.27931 0.22108 0.72489 0.0
H3552 H 0.19661 0.31083 0.7128 0.0
H3553 H 0.22916 0.28688 0.71028 0.0
C3554 C 0.54385 0.44298 0.73632 0.0
C3555 C 0.54745 0.41039 0.73669 0.0
C3556 C 0.52455 0.45462 0.73635 0.0
C3557 C 0.47438 0.44076 0.72407 0.0
H3558 H 0.46061 0.49806 0.76066 0.0
C3559 C 0.41183 0.53423 0.72186 0.0
C3560 C 0.39999 0.53783 0.73646 0.0
C3561 C 0.42762 0.51296 0.72175 0.0
C3562 C 0.46414 0.48182 0.75048 0.0
H3563 H 0.53348 0.36446 0.73684 0.0
H3564 H 0.4995 0.3851 0.73626 0.0
H3565 H 0.49299 0.47237 0.76058 0.0
H3566 H 0.39501 0.521 0.76216 0.0
H3567 H 0.42294 0.48436 0.76207 0.0
H3568 H 0.44584 0.45154 0.71351 0.0
C3569 C 0.5118 0.40142 0.73621 0.0
C3570 C 0.48268 0.4673 0.75039 0.0
C3571 C 0.5312 0.38968 0.73656 0.0
C3572 C 0.40377 0.51868 0.75069 0.0
C3573 C 0.41981 0.49784 0.75069 0.0
C3574 C 0.45593 0.45584 0.72396 0.0
C3575 C 0.50837 0.434 0.7364 0.0
C3576 C 0.48804 0.44693 0.7371 0.0
C3577 C 0.43213 0.49526 0.73634 0.0
C3578 C 0.45072 0.47674 0.7371 0.0
H3579 H 0.55598 0.45964 0.73656 0.0
H3580 H 0.52225 0.47985 0.7364 0.0
H3581 H 0.47826 0.42524 0.71365 0.0
H3582 H 0.40927 0.54858 0.71069 0.0
H3583 H 0.43694 0.51159 0.71056 0.0
loop_
_geom_bond_atom_site_label_1
_geom_bond_atom_site_label_2
_geom_bond_distance
_geom_bond_site_symmetry_2
_ccdc_geom_bond_type
Sc0 O3 2.025 1_556 S
Sc0 O10 2.105 . S
Sc0 O13 2.105 1_556 S
Sc0 O16 2.105 . S
Sc0 O19 2.105 . S
Sc1 O3 2.025 . S
Sc1 O11 2.105 . S
Sc1 O15 2.105 . S
Sc1 O17 2.105 . S
Sc1 O21 2.105 . S
Sc2 O3 2.025 . S
Sc2 O12 2.105 . S
Sc2 O14 2.105 . S
Sc2 O18 2.105 . S
Sc2 O20 2.105 1_554 S
O3 Sc0 2.025 1_554 S
O3 Sc1 2.025 . S
O3 Sc2 2.025 . S
C4 O10 1.268 . S
C4 O20 1.268 . S
C5 O11 1.268 1_556 S
C5 O19 1.268 . S
C6 O12 1.268 . S
C6 O21 1.268 . S
C7 O13 1.268 . S
C7 O17 1.268 . S
C8 O14 1.277 . S
C8 O16 1.255 1_554 S
C9 O15 1.268 . S
C9 O18 1.268 . S
O10 Sc0 2.105 . S
O10 C4 1.268 . S
O11 Sc1 2.105 . S
O11 C5 1.268 1_554 S
O12 Sc2 2.105 . S
O12 C6 1.268 . S
O13 Sc0 2.105 1_554 S
O13 C7 1.268 . S
O14 Sc2 2.105 . S
O14 C8 1.277 . S
O15 Sc1 2.105 . S
O15 C9 1.268 . S
O16 Sc0 2.105 . S
O16 C8 1.255 1_556 S
O17 Sc1 2.105 . S
O17 C7 1.268 . S
O18 Sc2 2.105 . S
O18 C9 1.268 . S
O19 Sc0 2.105 . S
O19 C5 1.268 . S
O20 Sc2 2.105 1_556 S
O20 C4 1.268 . S
O21 Sc1 2.105 . S
O21 C6 1.268 . S
Sc22 O25 2.025 . S
Sc22 O32 2.105 . S
Sc22 O35 2.105 . S
Sc22 O38 2.105 1_554 S
Sc22 O41 2.105 . S
Sc23 O25 2.025 . S
Sc23 O33 2.105 . S
Sc23 O37 2.105 . S
Sc23 O39 2.105 . S
Sc23 O43 2.105 . S
Sc24 O25 2.025 1_556 S
Sc24 O34 2.105 1_556 S
Sc24 O36 2.105 . S
Sc24 O40 2.105 . S
Sc24 O42 2.105 . S
O25 Sc22 2.025 . S
O25 Sc23 2.025 . S
O25 Sc24 2.025 1_554 S
C26 O32 1.277 . S
C26 O42 1.255 1_554 S
C27 O33 1.268 . S
C27 O41 1.268 . S
C28 O34 1.268 . S
C28 O43 1.268 . S
C29 O35 1.268 . S
C29 O39 1.268 . S
C30 O36 1.268 . S
C30 O38 1.268 . S
C31 O37 1.268 1_556 S
C31 O40 1.268 . S
O32 Sc22 2.105 . S
O32 C26 1.277 . S
O33 Sc23 2.105 . S
O33 C27 1.268 . S
O34 Sc24 2.105 1_554 S
O34 C28 1.268 . S
O35 Sc22 2.105 . S
O35 C29 1.268 . S
O36 Sc24 2.105 . S
O36 C30 1.268 . S
O37 Sc23 2.105 . S
O37 C31 1.268 1_554 S
O38 Sc22 2.105 1_556 S
O38 C30 1.268 . S
O39 Sc23 2.105 . S
O39 C29 1.268 . S
O40 Sc24 2.105 . S
O40 C31 1.268 . S
O41 Sc22 2.105 . S
O41 C27 1.268 . S
O42 Sc24 2.105 . S
O42 C26 1.255 1_556 S
O43 Sc23 2.105 . S
O43 C28 1.268 . S
Sc44 O47 2.025 . S
Sc44 O54 2.105 . S
Sc44 O57 2.105 . S
Sc44 O60 2.105 . S
Sc44 O63 2.105 . S
Sc45 O47 2.025 . S
Sc45 O55 2.105 . S
Sc45 O59 2.105 . S
Sc45 O61 2.105 . S
Sc45 O65 2.105 . S
Sc46 O47 2.025 . S
Sc46 O56 2.105 . S
Sc46 O58 2.105 . S
Sc46 O62 2.105 . S
Sc46 O64 2.105 . S
O47 Sc44 2.025 . S
O47 Sc45 2.025 . S
O47 Sc46 2.025 . S
C48 O54 1.268 . S
C48 O64 1.268 . S
C49 O55 1.268 . S
C49 O63 1.268 . S
C50 O56 1.268 . S
C50 O65 1.268 . S
C51 O57 1.268 . S
C51 O61 1.268 . S
C52 O58 1.268 . S
C52 O60 1.268 . S
C53 O59 1.268 . S
C53 O62 1.268 . S
O54 Sc44 2.105 . S
O54 C48 1.268 . S
O55 Sc45 2.105 . S
O55 C49 1.268 . S
O56 Sc46 2.105 . S
O56 C50 1.268 . S
O57 Sc44 2.105 . S
O57 C51 1.268 . S
O58 Sc46 2.105 . S
O58 C52 1.268 . S
O59 Sc45 2.105 . S
O59 C53 1.268 . S
O60 Sc44 2.105 . S
O60 C52 1.268 . S
O61 Sc45 2.105 . S
O61 C51 1.268 . S
O62 Sc46 2.105 . S
O62 C53 1.268 . S
O63 Sc44 2.105 . S
O63 C49 1.268 . S
O64 Sc46 2.105 . S
O64 C48 1.268 . S
O65 Sc45 2.105 . S
O65 C50 1.268 . S
Sc66 O69 2.025 . S
Sc66 O76 2.105 . S
Sc66 O79 2.105 . S
Sc66 O82 2.105 . S
Sc66 O85 2.105 . S
Sc67 O69 2.025 . S
Sc67 O77 2.105 . S
Sc67 O81 2.105 . S
Sc67 O83 2.105 . S
Sc67 O87 2.105 . S
Sc68 O69 2.025 . S
Sc68 O78 2.105 . S
Sc68 O80 2.105 . S
Sc68 O84 2.105 . S
Sc68 O86 2.105 . S
O69 Sc66 2.025 . S
O69 Sc67 2.025 . S
O69 Sc68 2.025 . S
C70 O76 1.268 . S
C70 O86 1.268 . S
C71 O77 1.268 . S
C71 O85 1.268 . S
C72 O78 1.268 . S
C72 O87 1.268 . S
C73 O79 1.268 . S
C73 O83 1.268 . S
C74 O80 1.268 . S
C74 O82 1.268 . S
C75 O81 1.268 . S
C75 O84 1.268 . S
O76 Sc66 2.105 . S
O76 C70 1.268 . S
O77 Sc67 2.105 . S
O77 C71 1.268 . S
O78 Sc68 2.105 . S
O78 C72 1.268 . S
O79 Sc66 2.105 . S
O79 C73 1.268 . S
O80 Sc68 2.105 . S
O80 C74 1.268 . S
O81 Sc67 2.105 . S
O81 C75 1.268 . S
O82 Sc66 2.105 . S
O82 C74 1.268 . S
O83 Sc67 2.105 . S
O83 C73 1.268 . S
O84 Sc68 2.105 . S
O84 C75 1.268 . S
O85 Sc66 2.105 . S
O85 C71 1.268 . S
O86 Sc68 2.105 . S
O86 C70 1.268 . S
O87 Sc67 2.105 . S
O87 C72 1.268 . S
Sc88 O91 2.025 . S
Sc88 O98 2.105 1_556 S
Sc88 O101 2.105 . S
Sc88 O104 2.105 . S
Sc88 O107 2.105 . S
Sc89 O91 2.025 . S
Sc89 O99 2.105 . S
Sc89 O103 2.105 . S
Sc89 O105 2.105 . S
Sc89 O109 2.105 . S
Sc90 O91 2.025 1_554 S
Sc90 O100 2.105 . S
Sc90 O102 2.105 . S
Sc90 O106 2.105 1_554 S
Sc90 O108 2.105 . S
O91 Sc88 2.025 . S
O91 Sc89 2.025 . S
O91 Sc90 2.025 1_556 S
C92 O98 1.268 . S
C92 O108 1.268 . S
C93 O99 1.268 . S
C93 O107 1.268 . S
C94 O100 1.268 . S
C94 O109 1.268 1_554 S
C95 O101 1.268 . S
C95 O105 1.268 . S
C96 O102 1.255 1_556 S
C96 O104 1.277 . S
C97 O103 1.268 . S
C97 O106 1.268 . S
O98 Sc88 2.105 1_554 S
O98 C92 1.268 . S
O99 Sc89 2.105 . S
O99 C93 1.268 . S
O100 Sc90 2.105 . S
O100 C94 1.268 . S
O101 Sc88 2.105 . S
O101 C95 1.268 . S
O102 Sc90 2.105 . S
O102 C96 1.255 1_554 S
O103 Sc89 2.105 . S
O103 C97 1.268 . S
O104 Sc88 2.105 . S
O104 C96 1.277 . S
O105 Sc89 2.105 . S
O105 C95 1.268 . S
O106 Sc90 2.105 1_556 S
O106 C97 1.268 . S
O107 Sc88 2.105 . S
O107 C93 1.268 . S
O108 Sc90 2.105 . S
O108 C92 1.268 . S
O109 Sc89 2.105 . S
O109 C94 1.268 1_556 S
Sc110 O113 2.025 1_554 S
Sc110 O120 2.105 . S
Sc110 O123 2.105 . S
Sc110 O126 2.105 . S
Sc110 O129 2.105 1_554 S
Sc111 O113 2.025 . S
Sc111 O121 2.105 . S
Sc111 O125 2.105 . S
Sc111 O127 2.105 . S
Sc111 O131 2.105 . S
Sc112 O113 2.025 . S
Sc112 O122 2.105 . S
Sc112 O124 2.105 1_556 S
Sc112 O128 2.105 . S
Sc112 O130 2.105 . S
O113 Sc110 2.025 1_556 S
O113 Sc111 2.025 . S
O113 Sc112 2.025 . S
C114 O120 1.255 1_556 S
C114 O130 1.277 . S
C115 O121 1.268 . S
C115 O129 1.268 . S
C116 O122 1.268 . S
C116 O131 1.268 . S
C117 O123 1.268 . S
C117 O127 1.268 1_554 S
C118 O124 1.268 . S
C118 O126 1.268 . S
C119 O125 1.268 . S
C119 O128 1.268 . S
O120 Sc110 2.105 . S
O120 C114 1.255 1_554 S
O121 Sc111 2.105 . S
O121 C115 1.268 . S
O122 Sc112 2.105 . S
O122 C116 1.268 . S
O123 Sc110 2.105 . S
O123 C117 1.268 . S
O124 Sc112 2.105 1_554 S
O124 C118 1.268 . S
O125 Sc111 2.105 . S
O125 C119 1.268 . S
O126 Sc110 2.105 . S
O126 C118 1.268 . S
O127 Sc111 2.105 . S
O127 C117 1.268 1_556 S
O128 Sc112 2.105 . S
O128 C119 1.268 . S
O129 Sc110 2.105 1_556 S
O129 C115 1.268 . S
O130 Sc112 2.105 . S
O130 C114 1.277 . S
O131 Sc111 2.105 . S
O131 C116 1.268 . S
Sc132 O135 2.025 . S
Sc132 O142 2.105 . S
Sc132 O145 2.105 . S
Sc132 O148 2.105 . S
Sc132 O151 2.105 . S
Sc133 O135 2.025 . S
Sc133 O143 2.105 . S
Sc133 O147 2.105 . S
Sc133 O149 2.105 . S
Sc133 O153 2.105 . S
Sc134 O135 2.025 . S
Sc134 O144 2.105 . S
Sc134 O146 2.105 . S
Sc134 O150 2.105 . S
Sc134 O152 2.105 . S
O135 Sc132 2.025 . S
O135 Sc133 2.025 . S
O135 Sc134 2.025 . S
C136 O142 1.268 . S
C136 O152 1.268 . S
C137 O143 1.268 . S
C137 O151 1.268 . S
C138 O144 1.268 . S
C138 O153 1.268 . S
C139 O145 1.268 . S
C139 O149 1.268 . S
C140 O146 1.268 . S
C140 O148 1.268 . S
C141 O147 1.268 . S
C141 O150 1.268 . S
O142 Sc132 2.105 . S
O142 C136 1.268 . S
O143 Sc133 2.105 . S
O143 C137 1.268 . S
O144 Sc134 2.105 . S
O144 C138 1.268 . S
O145 Sc132 2.105 . S
O145 C139 1.268 . S
O146 Sc134 2.105 . S
O146 C140 1.268 . S
O147 Sc133 2.105 . S
O147 C141 1.268 . S
O148 Sc132 2.105 . S
O148 C140 1.268 . S
O149 Sc133 2.105 . S
O149 C139 1.268 . S
O150 Sc134 2.105 . S
O150 C141 1.268 . S
O151 Sc132 2.105 . S
O151 C137 1.268 . S
O152 Sc134 2.105 . S
O152 C136 1.268 . S
O153 Sc133 2.105 . S
O153 C138 1.268 . S
Sc154 O157 2.025 . S
Sc154 O164 2.105 . S
Sc154 O167 2.105 . S
Sc154 O170 2.105 . S
Sc154 O173 2.105 . S
Sc155 O157 2.025 . S
Sc155 O165 2.105 . S
Sc155 O169 2.105 . S
Sc155 O171 2.105 . S
Sc155 O175 2.105 . S
Sc156 O157 2.025 . S
Sc156 O166 2.105 . S
Sc156 O168 2.105 . S
Sc156 O172 2.105 . S
Sc156 O174 2.105 . S
O157 Sc154 2.025 . S
O157 Sc155 2.025 . S
O157 Sc156 2.025 . S
C158 O164 1.268 . S
C158 O174 1.268 . S
C159 O165 1.268 . S
C159 O173 1.268 . S
C160 O166 1.268 . S
C160 O175 1.268 . S
C161 O167 1.268 . S
C161 O171 1.268 . S
C162 O168 1.268 . S
C162 O170 1.268 . S
C163 O169 1.268 . S
C163 O172 1.268 . S
O164 Sc154 2.105 . S
O164 C158 1.268 . S
O165 Sc155 2.105 . S
O165 C159 1.268 . S
O166 Sc156 2.105 . S
O166 C160 1.268 . S
O167 Sc154 2.105 . S
O167 C161 1.268 . S
O168 Sc156 2.105 . S
O168 C162 1.268 . S
O169 Sc155 2.105 . S
O169 C163 1.268 . S
O170 Sc154 2.105 . S
O170 C162 1.268 . S
O171 Sc155 2.105 . S
O171 C161 1.268 . S
O172 Sc156 2.105 . S
O172 C163 1.268 . S
O173 Sc154 2.105 . S
O173 C159 1.268 . S
O174 Sc156 2.105 . S
O174 C158 1.268 . S
O175 Sc155 2.105 . S
O175 C160 1.268 . S
Sc176 O179 2.025 . S
Sc176 O186 2.105 . S
Sc176 O189 2.105 . S
Sc176 O192 2.105 . S
Sc176 O195 2.105 . S
Sc177 O179 2.025 . S
Sc177 O187 2.105 . S
Sc177 O191 2.105 . S
Sc177 O193 2.105 . S
Sc177 O197 2.105 . S
Sc178 O179 2.025 . S
Sc178 O188 2.105 . S
Sc178 O190 2.105 . S
Sc178 O194 2.105 . S
Sc178 O196 2.105 . S
O179 Sc176 2.025 . S
O179 Sc177 2.025 . S
O179 Sc178 2.025 . S
C180 O186 1.268 . S
C180 O196 1.268 . S
C181 O187 1.268 . S
C181 O195 1.268 . S
C182 O188 1.268 . S
C182 O197 1.268 . S
C183 O189 1.268 . S
C183 O193 1.268 . S
C184 O190 1.268 . S
C184 O192 1.268 . S
C185 O191 1.268 . S
C185 O194 1.268 . S
O186 Sc176 2.105 . S
O186 C180 1.268 . S
O187 Sc177 2.105 . S
O187 C181 1.268 . S
O188 Sc178 2.105 . S
O188 C182 1.268 . S
O189 Sc176 2.105 . S
O189 C183 1.268 . S
O190 Sc178 2.105 . S
O190 C184 1.268 . S
O191 Sc177 2.105 . S
O191 C185 1.268 . S
O192 Sc176 2.105 . S
O192 C184 1.268 . S
O193 Sc177 2.105 . S
O193 C183 1.268 . S
O194 Sc178 2.105 . S
O194 C185 1.268 . S
O195 Sc176 2.105 . S
O195 C181 1.268 . S
O196 Sc178 2.105 . S
O196 C180 1.268 . S
O197 Sc177 2.105 . S
O197 C182 1.268 . S
Sc198 O201 2.025 . S
Sc198 O208 2.105 . S
Sc198 O211 2.105 . S
Sc198 O214 2.105 . S
Sc198 O217 2.105 . S
Sc199 O201 2.025 . S
Sc199 O209 2.105 . S
Sc199 O213 2.105 . S
Sc199 O215 2.105 . S
Sc199 O219 2.105 . S
Sc200 O201 2.025 . S
Sc200 O210 2.105 . S
Sc200 O212 2.105 . S
Sc200 O216 2.105 . S
Sc200 O218 2.105 . S
O201 Sc198 2.025 . S
O201 Sc199 2.025 . S
O201 Sc200 2.025 . S
C202 O208 1.268 . S
C202 O218 1.268 . S
C203 O209 1.268 . S
C203 O217 1.268 . S
C204 O210 1.268 . S
C204 O219 1.268 . S
C205 O211 1.268 . S
C205 O215 1.268 . S
C206 O212 1.268 . S
C206 O214 1.268 . S
C207 O213 1.268 . S
C207 O216 1.268 . S
O208 Sc198 2.105 . S
O208 C202 1.268 . S
O209 Sc199 2.105 . S
O209 C203 1.268 . S
O210 Sc200 2.105 . S
O210 C204 1.268 . S
O211 Sc198 2.105 . S
O211 C205 1.268 . S
O212 Sc200 2.105 . S
O212 C206 1.268 . S
O213 Sc199 2.105 . S
O213 C207 1.268 . S
O214 Sc198 2.105 . S
O214 C206 1.268 . S
O215 Sc199 2.105 . S
O215 C205 1.268 . S
O216 Sc200 2.105 . S
O216 C207 1.268 . S
O217 Sc198 2.105 . S
O217 C203 1.268 . S
O218 Sc200 2.105 . S
O218 C202 1.268 . S
O219 Sc199 2.105 . S
O219 C204 1.268 . S
Sc220 O223 2.025 . S
Sc220 O230 2.105 . S
Sc220 O233 2.105 . S
Sc220 O236 2.105 . S
Sc220 O239 2.105 . S
Sc221 O223 2.025 . S
Sc221 O231 2.105 . S
Sc221 O235 2.105 . S
Sc221 O237 2.105 . S
Sc221 O241 2.105 . S
Sc222 O223 2.025 . S
Sc222 O232 2.105 . S
Sc222 O234 2.105 . S
Sc222 O238 2.105 . S
Sc222 O240 2.105 . S
O223 Sc220 2.025 . S
O223 Sc221 2.025 . S
O223 Sc222 2.025 . S
C224 O230 1.268 . S
C224 O240 1.268 . S
C225 O231 1.268 . S
C225 O239 1.268 . S
C226 O232 1.268 . S
C226 O241 1.268 . S
C227 O233 1.268 . S
C227 O237 1.268 . S
C228 O234 1.268 . S
C228 O236 1.268 . S
C229 O235 1.268 . S
C229 O238 1.268 . S
O230 Sc220 2.105 . S
O230 C224 1.268 . S
O231 Sc221 2.105 . S
O231 C225 1.268 . S
O232 Sc222 2.105 . S
O232 C226 1.268 . S
O233 Sc220 2.105 . S
O233 C227 1.268 . S
O234 Sc222 2.105 . S
O234 C228 1.268 . S
O235 Sc221 2.105 . S
O235 C229 1.268 . S
O236 Sc220 2.105 . S
O236 C228 1.268 . S
O237 Sc221 2.105 . S
O237 C227 1.268 . S
O238 Sc222 2.105 . S
O238 C229 1.268 . S
O239 Sc220 2.105 . S
O239 C225 1.268 . S
O240 Sc222 2.105 . S
O240 C224 1.268 . S
O241 Sc221 2.105 . S
O241 C226 1.268 . S
Sc242 O245 2.025 . S
Sc242 O252 2.105 . S
Sc242 O255 2.105 . S
Sc242 O258 2.105 . S
Sc242 O261 2.105 . S
Sc243 O245 2.025 . S
Sc243 O253 2.105 . S
Sc243 O257 2.105 . S
Sc243 O259 2.105 . S
Sc243 O263 2.105 . S
Sc244 O245 2.025 . S
Sc244 O254 2.105 . S
Sc244 O256 2.105 . S
Sc244 O260 2.105 . S
Sc244 O262 2.105 . S
O245 Sc242 2.025 . S
O245 Sc243 2.025 . S
O245 Sc244 2.025 . S
C246 O252 1.268 . S
C246 O262 1.268 . S
C247 O253 1.268 . S
C247 O261 1.268 . S
C248 O254 1.268 . S
C248 O263 1.268 . S
C249 O255 1.268 . S
C249 O259 1.268 . S
C250 O256 1.268 . S
C250 O258 1.268 . S
C251 O257 1.268 . S
C251 O260 1.268 . S
O252 Sc242 2.105 . S
O252 C246 1.268 . S
O253 Sc243 2.105 . S
O253 C247 1.268 . S
O254 Sc244 2.105 . S
O254 C248 1.268 . S
O255 Sc242 2.105 . S
O255 C249 1.268 . S
O256 Sc244 2.105 . S
O256 C250 1.268 . S
O257 Sc243 2.105 . S
O257 C251 1.268 . S
O258 Sc242 2.105 . S
O258 C250 1.268 . S
O259 Sc243 2.105 . S
O259 C249 1.268 . S
O260 Sc244 2.105 . S
O260 C251 1.268 . S
O261 Sc242 2.105 . S
O261 C247 1.268 . S
O262 Sc244 2.105 . S
O262 C246 1.268 . S
O263 Sc243 2.105 . S
O263 C248 1.268 . S
Sc264 O267 2.025 . S
Sc264 O274 2.105 . S
Sc264 O277 2.105 . S
Sc264 O280 2.105 . S
Sc264 O283 2.105 . S
Sc265 O267 2.025 . S
Sc265 O275 2.105 . S
Sc265 O279 2.105 . S
Sc265 O281 2.105 . S
Sc265 O285 2.105 . S
Sc266 O267 2.025 . S
Sc266 O276 2.105 . S
Sc266 O278 2.105 . S
Sc266 O282 2.105 . S
Sc266 O284 2.105 . S
O267 Sc264 2.025 . S
O267 Sc265 2.025 . S
O267 Sc266 2.025 . S
C268 O274 1.268 . S
C268 O284 1.268 . S
C269 O275 1.268 . S
C269 O283 1.268 . S
C270 O276 1.268 . S
C270 O285 1.268 . S
C271 O277 1.268 . S
C271 O281 1.268 . S
C272 O278 1.268 . S
C272 O280 1.268 . S
C273 O279 1.268 . S
C273 O282 1.268 . S
O274 Sc264 2.105 . S
O274 C268 1.268 . S
O275 Sc265 2.105 . S
O275 C269 1.268 . S
O276 Sc266 2.105 . S
O276 C270 1.268 . S
O277 Sc264 2.105 . S
O277 C271 1.268 . S
O278 Sc266 2.105 . S
O278 C272 1.268 . S
O279 Sc265 2.105 . S
O279 C273 1.268 . S
O280 Sc264 2.105 . S
O280 C272 1.268 . S
O281 Sc265 2.105 . S
O281 C271 1.268 . S
O282 Sc266 2.105 . S
O282 C273 1.268 . S
O283 Sc264 2.105 . S
O283 C269 1.268 . S
O284 Sc266 2.105 . S
O284 C268 1.268 . S
O285 Sc265 2.105 . S
O285 C270 1.268 . S
Sc286 O289 2.025 . S
Sc286 O296 2.105 . S
Sc286 O299 2.105 . S
Sc286 O302 2.105 . S
Sc286 O305 2.105 . S
Sc287 O289 2.025 . S
Sc287 O297 2.105 . S
Sc287 O301 2.105 . S
Sc287 O303 2.105 . S
Sc287 O307 2.105 . S
Sc288 O289 2.025 . S
Sc288 O298 2.105 . S
Sc288 O300 2.105 . S
Sc288 O304 2.105 . S
Sc288 O306 2.105 . S
O289 Sc286 2.025 . S
O289 Sc287 2.025 . S
O289 Sc288 2.025 . S
C290 O296 1.268 . S
C290 O306 1.268 . S
C291 O297 1.268 . S
C291 O305 1.268 . S
C292 O298 1.268 . S
C292 O307 1.268 . S
C293 O299 1.268 . S
C293 O303 1.268 . S
C294 O300 1.268 . S
C294 O302 1.268 . S
C295 O301 1.268 . S
C295 O304 1.268 . S
O296 Sc286 2.105 . S
O296 C290 1.268 . S
O297 Sc287 2.105 . S
O297 C291 1.268 . S
O298 Sc288 2.105 . S
O298 C292 1.268 . S
O299 Sc286 2.105 . S
O299 C293 1.268 . S
O300 Sc288 2.105 . S
O300 C294 1.268 . S
O301 Sc287 2.105 . S
O301 C295 1.268 . S
O302 Sc286 2.105 . S
O302 C294 1.268 . S
O303 Sc287 2.105 . S
O303 C293 1.268 . S
O304 Sc288 2.105 . S
O304 C295 1.268 . S
O305 Sc286 2.105 . S
O305 C291 1.268 . S
O306 Sc288 2.105 . S
O306 C290 1.268 . S
O307 Sc287 2.105 . S
O307 C292 1.268 . S
Sc308 O311 2.025 . S
Sc308 O318 2.105 . S
Sc308 O321 2.105 . S
Sc308 O324 2.105 . S
Sc308 O327 2.105 . S
Sc309 O311 2.025 . S
Sc309 O319 2.105 . S
Sc309 O323 2.105 . S
Sc309 O325 2.105 . S
Sc309 O329 2.105 . S
Sc310 O311 2.025 . S
Sc310 O320 2.105 . S
Sc310 O322 2.105 . S
Sc310 O326 2.105 . S
Sc310 O328 2.105 . S
O311 Sc308 2.025 . S
O311 Sc309 2.025 . S
O311 Sc310 2.025 . S
C312 O318 1.268 . S
C312 O328 1.268 . S
C313 O319 1.268 . S
C313 O327 1.268 . S
C314 O320 1.268 . S
C314 O329 1.268 . S
C315 O321 1.268 . S
C315 O325 1.268 . S
C316 O322 1.268 . S
C316 O324 1.268 . S
C317 O323 1.268 . S
C317 O326 1.268 . S
O318 Sc308 2.105 . S
O318 C312 1.268 . S
O319 Sc309 2.105 . S
O319 C313 1.268 . S
O320 Sc310 2.105 . S
O320 C314 1.268 . S
O321 Sc308 2.105 . S
O321 C315 1.268 . S
O322 Sc310 2.105 . S
O322 C316 1.268 . S
O323 Sc309 2.105 . S
O323 C317 1.268 . S
O324 Sc308 2.105 . S
O324 C316 1.268 . S
O325 Sc309 2.105 . S
O325 C315 1.268 . S
O326 Sc310 2.105 . S
O326 C317 1.268 . S
O327 Sc308 2.105 . S
O327 C313 1.268 . S
O328 Sc310 2.105 . S
O328 C312 1.268 . S
O329 Sc309 2.105 . S
O329 C314 1.268 . S
Sc330 O333 2.025 . S
Sc330 O340 2.105 . S
Sc330 O343 2.105 . S
Sc330 O346 2.105 . S
Sc330 O349 2.105 . S
Sc331 O333 2.025 . S
Sc331 O341 2.105 . S
Sc331 O345 2.105 . S
Sc331 O347 2.105 . S
Sc331 O351 2.105 . S
Sc332 O333 2.025 . S
Sc332 O342 2.105 . S
Sc332 O344 2.105 . S
Sc332 O348 2.105 . S
Sc332 O350 2.105 . S
O333 Sc330 2.025 . S
O333 Sc331 2.025 . S
O333 Sc332 2.025 . S
C334 O340 1.268 . S
C334 O350 1.268 . S
C335 O341 1.268 . S
C335 O349 1.268 . S
C336 O342 1.268 . S
C336 O351 1.268 . S
C337 O343 1.268 . S
C337 O347 1.268 . S
C338 O344 1.268 . S
C338 O346 1.268 . S
C339 O345 1.268 . S
C339 O348 1.268 . S
O340 Sc330 2.105 . S
O340 C334 1.268 . S
O341 Sc331 2.105 . S
O341 C335 1.268 . S
O342 Sc332 2.105 . S
O342 C336 1.268 . S
O343 Sc330 2.105 . S
O343 C337 1.268 . S
O344 Sc332 2.105 . S
O344 C338 1.268 . S
O345 Sc331 2.105 . S
O345 C339 1.268 . S
O346 Sc330 2.105 . S
O346 C338 1.268 . S
O347 Sc331 2.105 . S
O347 C337 1.268 . S
O348 Sc332 2.105 . S
O348 C339 1.268 . S
O349 Sc330 2.105 . S
O349 C335 1.268 . S
O350 Sc332 2.105 . S
O350 C334 1.268 . S
O351 Sc331 2.105 . S
O351 C336 1.268 . S
Sc352 O355 2.025 . S
Sc352 O362 2.105 . S
Sc352 O365 2.105 . S
Sc352 O368 2.105 . S
Sc352 O371 2.105 . S
Sc353 O355 2.025 . S
Sc353 O363 2.105 . S
Sc353 O367 2.105 . S
Sc353 O369 2.105 . S
Sc353 O373 2.105 . S
Sc354 O355 2.025 . S
Sc354 O364 2.105 . S
Sc354 O366 2.105 . S
Sc354 O370 2.105 . S
Sc354 O372 2.105 . S
O355 Sc352 2.025 . S
O355 Sc353 2.025 . S
O355 Sc354 2.025 . S
C356 O362 1.268 . S
C356 O372 1.268 . S
C357 O363 1.268 . S
C357 O371 1.268 . S
C358 O364 1.268 . S
C358 O373 1.268 . S
C359 O365 1.268 . S
C359 O369 1.268 . S
C360 O366 1.268 . S
C360 O368 1.268 . S
C361 O367 1.268 . S
C361 O370 1.268 . S
O362 Sc352 2.105 . S
O362 C356 1.268 . S
O363 Sc353 2.105 . S
O363 C357 1.268 . S
O364 Sc354 2.105 . S
O364 C358 1.268 . S
O365 Sc352 2.105 . S
O365 C359 1.268 . S
O366 Sc354 2.105 . S
O366 C360 1.268 . S
O367 Sc353 2.105 . S
O367 C361 1.268 . S
O368 Sc352 2.105 . S
O368 C360 1.268 . S
O369 Sc353 2.105 . S
O369 C359 1.268 . S
O370 Sc354 2.105 . S
O370 C361 1.268 . S
O371 Sc352 2.105 . S
O371 C357 1.268 . S
O372 Sc354 2.105 . S
O372 C356 1.268 . S
O373 Sc353 2.105 . S
O373 C358 1.268 . S
Sc374 O377 2.025 . S
Sc374 O384 2.105 . S
Sc374 O387 2.105 . S
Sc374 O390 2.105 . S
Sc374 O393 2.105 . S
Sc375 O377 2.025 . S
Sc375 O385 2.105 . S
Sc375 O389 2.105 . S
Sc375 O391 2.105 . S
Sc375 O395 2.105 . S
Sc376 O377 2.025 . S
Sc376 O386 2.105 . S
Sc376 O388 2.105 . S
Sc376 O392 2.105 . S
Sc376 O394 2.105 . S
O377 Sc374 2.025 . S
O377 Sc375 2.025 . S
O377 Sc376 2.025 . S
C378 O384 1.268 . S
C378 O394 1.268 . S
C379 O385 1.268 . S
C379 O393 1.268 . S
C380 O386 1.268 . S
C380 O395 1.268 . S
C381 O387 1.268 . S
C381 O391 1.268 . S
C382 O388 1.268 . S
C382 O390 1.268 . S
C383 O389 1.268 . S
C383 O392 1.268 . S
O384 Sc374 2.105 . S
O384 C378 1.268 . S
O385 Sc375 2.105 . S
O385 C379 1.268 . S
O386 Sc376 2.105 . S
O386 C380 1.268 . S
O387 Sc374 2.105 . S
O387 C381 1.268 . S
O388 Sc376 2.105 . S
O388 C382 1.268 . S
O389 Sc375 2.105 . S
O389 C383 1.268 . S
O390 Sc374 2.105 . S
O390 C382 1.268 . S
O391 Sc375 2.105 . S
O391 C381 1.268 . S
O392 Sc376 2.105 . S
O392 C383 1.268 . S
O393 Sc374 2.105 . S
O393 C379 1.268 . S
O394 Sc376 2.105 . S
O394 C378 1.268 . S
O395 Sc375 2.105 . S
O395 C380 1.268 . S
Sc396 O399 2.025 . S
Sc396 O406 2.105 . S
Sc396 O409 2.105 . S
Sc396 O412 2.105 . S
Sc396 O415 2.105 . S
Sc397 O399 2.025 . S
Sc397 O407 2.105 . S
Sc397 O411 2.105 . S
Sc397 O413 2.105 . S
Sc397 O417 2.105 . S
Sc398 O399 2.025 . S
Sc398 O408 2.105 . S
Sc398 O410 2.105 . S
Sc398 O414 2.105 . S
Sc398 O416 2.105 . S
O399 Sc396 2.025 . S
O399 Sc397 2.025 . S
O399 Sc398 2.025 . S
C400 O406 1.268 . S
C400 O416 1.268 . S
C401 O407 1.268 . S
C401 O415 1.268 . S
C402 O408 1.268 . S
C402 O417 1.268 . S
C403 O409 1.268 . S
C403 O413 1.268 . S
C404 O410 1.268 . S
C404 O412 1.268 . S
C405 O411 1.268 . S
C405 O414 1.268 . S
O406 Sc396 2.105 . S
O406 C400 1.268 . S
O407 Sc397 2.105 . S
O407 C401 1.268 . S
O408 Sc398 2.105 . S
O408 C402 1.268 . S
O409 Sc396 2.105 . S
O409 C403 1.268 . S
O410 Sc398 2.105 . S
O410 C404 1.268 . S
O411 Sc397 2.105 . S
O411 C405 1.268 . S
O412 Sc396 2.105 . S
O412 C404 1.268 . S
O413 Sc397 2.105 . S
O413 C403 1.268 . S
O414 Sc398 2.105 . S
O414 C405 1.268 . S
O415 Sc396 2.105 . S
O415 C401 1.268 . S
O416 Sc398 2.105 . S
O416 C400 1.268 . S
O417 Sc397 2.105 . S
O417 C402 1.268 . S
Sc418 O421 2.025 . S
Sc418 O428 2.105 . S
Sc418 O431 2.105 . S
Sc418 O434 2.105 . S
Sc418 O437 2.105 . S
Sc419 O421 2.025 . S
Sc419 O429 2.105 . S
Sc419 O433 2.105 . S
Sc419 O435 2.105 . S
Sc419 O439 2.105 . S
Sc420 O421 2.025 . S
Sc420 O430 2.105 . S
Sc420 O432 2.105 . S
Sc420 O436 2.105 . S
Sc420 O438 2.105 . S
O421 Sc418 2.025 . S
O421 Sc419 2.025 . S
O421 Sc420 2.025 . S
C422 O428 1.268 . S
C422 O438 1.268 . S
C423 O429 1.268 . S
C423 O437 1.268 . S
C424 O430 1.268 . S
C424 O439 1.268 . S
C425 O431 1.268 . S
C425 O435 1.268 . S
C426 O432 1.268 . S
C426 O434 1.268 . S
C427 O433 1.268 . S
C427 O436 1.268 . S
O428 Sc418 2.105 . S
O428 C422 1.268 . S
O429 Sc419 2.105 . S
O429 C423 1.268 . S
O430 Sc420 2.105 . S
O430 C424 1.268 . S
O431 Sc418 2.105 . S
O431 C425 1.268 . S
O432 Sc420 2.105 . S
O432 C426 1.268 . S
O433 Sc419 2.105 . S
O433 C427 1.268 . S
O434 Sc418 2.105 . S
O434 C426 1.268 . S
O435 Sc419 2.105 . S
O435 C425 1.268 . S
O436 Sc420 2.105 . S
O436 C427 1.268 . S
O437 Sc418 2.105 . S
O437 C423 1.268 . S
O438 Sc420 2.105 . S
O438 C422 1.268 . S
O439 Sc419 2.105 . S
O439 C424 1.268 . S
Sc440 O443 2.025 . S
Sc440 O450 2.105 . S
Sc440 O453 2.105 . S
Sc440 O456 2.105 . S
Sc440 O459 2.105 . S
Sc441 O443 2.025 . S
Sc441 O451 2.105 . S
Sc441 O455 2.105 . S
Sc441 O457 2.105 . S
Sc441 O461 2.105 . S
Sc442 O443 2.025 . S
Sc442 O452 2.105 . S
Sc442 O454 2.105 . S
Sc442 O458 2.105 . S
Sc442 O460 2.105 . S
O443 Sc440 2.025 . S
O443 Sc441 2.025 . S
O443 Sc442 2.025 . S
C444 O450 1.268 . S
C444 O460 1.268 . S
C445 O451 1.268 . S
C445 O459 1.268 . S
C446 O452 1.268 . S
C446 O461 1.268 . S
C447 O453 1.268 . S
C447 O457 1.268 . S
C448 O454 1.268 . S
C448 O456 1.268 . S
C449 O455 1.268 . S
C449 O458 1.268 . S
O450 Sc440 2.105 . S
O450 C444 1.268 . S
O451 Sc441 2.105 . S
O451 C445 1.268 . S
O452 Sc442 2.105 . S
O452 C446 1.268 . S
O453 Sc440 2.105 . S
O453 C447 1.268 . S
O454 Sc442 2.105 . S
O454 C448 1.268 . S
O455 Sc441 2.105 . S
O455 C449 1.268 . S
O456 Sc440 2.105 . S
O456 C448 1.268 . S
O457 Sc441 2.105 . S
O457 C447 1.268 . S
O458 Sc442 2.105 . S
O458 C449 1.268 . S
O459 Sc440 2.105 . S
O459 C445 1.268 . S
O460 Sc442 2.105 . S
O460 C444 1.268 . S
O461 Sc441 2.105 . S
O461 C446 1.268 . S
Sc462 O465 2.025 . S
Sc462 O472 2.105 . S
Sc462 O475 2.105 . S
Sc462 O478 2.105 . S
Sc462 O481 2.105 . S
Sc463 O465 2.025 . S
Sc463 O473 2.105 . S
Sc463 O477 2.105 . S
Sc463 O479 2.105 . S
Sc463 O483 2.105 . S
Sc464 O465 2.025 . S
Sc464 O474 2.105 . S
Sc464 O476 2.105 . S
Sc464 O480 2.105 . S
Sc464 O482 2.105 . S
O465 Sc462 2.025 . S
O465 Sc463 2.025 . S
O465 Sc464 2.025 . S
C466 O472 1.268 . S
C466 O482 1.268 . S
C467 O473 1.268 . S
C467 O481 1.268 . S
C468 O474 1.268 . S
C468 O483 1.268 . S
C469 O475 1.268 . S
C469 O479 1.268 . S
C470 O476 1.268 . S
C470 O478 1.268 . S
C471 O477 1.268 . S
C471 O480 1.268 . S
O472 Sc462 2.105 . S
O472 C466 1.268 . S
O473 Sc463 2.105 . S
O473 C467 1.268 . S
O474 Sc464 2.105 . S
O474 C468 1.268 . S
O475 Sc462 2.105 . S
O475 C469 1.268 . S
O476 Sc464 2.105 . S
O476 C470 1.268 . S
O477 Sc463 2.105 . S
O477 C471 1.268 . S
O478 Sc462 2.105 . S
O478 C470 1.268 . S
O479 Sc463 2.105 . S
O479 C469 1.268 . S
O480 Sc464 2.105 . S
O480 C471 1.268 . S
O481 Sc462 2.105 . S
O481 C467 1.268 . S
O482 Sc464 2.105 . S
O482 C466 1.268 . S
O483 Sc463 2.105 . S
O483 C468 1.268 . S
Sc484 O487 2.025 . S
Sc484 O494 2.105 . S
Sc484 O497 2.105 . S
Sc484 O500 2.105 . S
Sc484 O503 2.105 . S
Sc485 O487 2.025 . S
Sc485 O495 2.105 . S
Sc485 O499 2.105 . S
Sc485 O501 2.105 . S
Sc485 O505 2.105 . S
Sc486 O487 2.025 . S
Sc486 O496 2.105 . S
Sc486 O498 2.105 . S
Sc486 O502 2.105 . S
Sc486 O504 2.105 . S
O487 Sc484 2.025 . S
O487 Sc485 2.025 . S
O487 Sc486 2.025 . S
C488 O494 1.268 . S
C488 O504 1.268 . S
C489 O495 1.268 . S
C489 O503 1.268 . S
C490 O496 1.268 . S
C490 O505 1.268 . S
C491 O497 1.268 . S
C491 O501 1.268 . S
C492 O498 1.268 . S
C492 O500 1.268 . S
C493 O499 1.268 . S
C493 O502 1.268 . S
O494 Sc484 2.105 . S
O494 C488 1.268 . S
O495 Sc485 2.105 . S
O495 C489 1.268 . S
O496 Sc486 2.105 . S
O496 C490 1.268 . S
O497 Sc484 2.105 . S
O497 C491 1.268 . S
O498 Sc486 2.105 . S
O498 C492 1.268 . S
O499 Sc485 2.105 . S
O499 C493 1.268 . S
O500 Sc484 2.105 . S
O500 C492 1.268 . S
O501 Sc485 2.105 . S
O501 C491 1.268 . S
O502 Sc486 2.105 . S
O502 C493 1.268 . S
O503 Sc484 2.105 . S
O503 C489 1.268 . S
O504 Sc486 2.105 . S
O504 C488 1.268 . S
O505 Sc485 2.105 . S
O505 C490 1.268 . S
Sc506 O509 2.025 . S
Sc506 O516 2.105 . S
Sc506 O519 2.105 . S
Sc506 O522 2.105 . S
Sc506 O525 2.105 . S
Sc507 O509 2.025 . S
Sc507 O517 2.105 . S
Sc507 O521 2.105 . S
Sc507 O523 2.105 . S
Sc507 O527 2.105 . S
Sc508 O509 2.025 . S
Sc508 O518 2.105 . S
Sc508 O520 2.105 . S
Sc508 O524 2.105 . S
Sc508 O526 2.105 . S
O509 Sc506 2.025 . S
O509 Sc507 2.025 . S
O509 Sc508 2.025 . S
C510 O516 1.268 . S
C510 O526 1.268 . S
C511 O517 1.268 . S
C511 O525 1.268 . S
C512 O518 1.268 . S
C512 O527 1.268 . S
C513 O519 1.268 . S
C513 O523 1.268 . S
C514 O520 1.268 . S
C514 O522 1.268 . S
C515 O521 1.268 . S
C515 O524 1.268 . S
O516 Sc506 2.105 . S
O516 C510 1.268 . S
O517 Sc507 2.105 . S
O517 C511 1.268 . S
O518 Sc508 2.105 . S
O518 C512 1.268 . S
O519 Sc506 2.105 . S
O519 C513 1.268 . S
O520 Sc508 2.105 . S
O520 C514 1.268 . S
O521 Sc507 2.105 . S
O521 C515 1.268 . S
O522 Sc506 2.105 . S
O522 C514 1.268 . S
O523 Sc507 2.105 . S
O523 C513 1.268 . S
O524 Sc508 2.105 . S
O524 C515 1.268 . S
O525 Sc506 2.105 . S
O525 C511 1.268 . S
O526 Sc508 2.105 . S
O526 C510 1.268 . S
O527 Sc507 2.105 . S
O527 C512 1.268 . S
Sc528 O531 2.025 1_556 S
Sc528 O538 2.105 . S
Sc528 O541 2.105 1_556 S
Sc528 O544 2.105 . S
Sc528 O547 2.105 . S
Sc529 O531 2.025 . S
Sc529 O539 2.105 . S
Sc529 O543 2.105 . S
Sc529 O545 2.105 . S
Sc529 O549 2.105 . S
Sc530 O531 2.025 . S
Sc530 O540 2.105 . S
Sc530 O542 2.105 . S
Sc530 O546 2.105 . S
Sc530 O548 2.105 1_554 S
O531 Sc528 2.025 1_554 S
O531 Sc529 2.025 . S
O531 Sc530 2.025 . S
C532 O538 1.268 . S
C532 O548 1.268 . S
C533 O539 1.268 1_556 S
C533 O547 1.268 . S
C534 O540 1.268 . S
C534 O549 1.268 . S
C535 O541 1.268 . S
C535 O545 1.268 . S
C536 O542 1.277 . S
C536 O544 1.255 1_554 S
C537 O543 1.268 . S
C537 O546 1.268 . S
O538 Sc528 2.105 . S
O538 C532 1.268 . S
O539 Sc529 2.105 . S
O539 C533 1.268 1_554 S
O540 Sc530 2.105 . S
O540 C534 1.268 . S
O541 Sc528 2.105 1_554 S
O541 C535 1.268 . S
O542 Sc530 2.105 . S
O542 C536 1.277 . S
O543 Sc529 2.105 . S
O543 C537 1.268 . S
O544 Sc528 2.105 . S
O544 C536 1.255 1_556 S
O545 Sc529 2.105 . S
O545 C535 1.268 . S
O546 Sc530 2.105 . S
O546 C537 1.268 . S
O547 Sc528 2.105 . S
O547 C533 1.268 . S
O548 Sc530 2.105 1_556 S
O548 C532 1.268 . S
O549 Sc529 2.105 . S
O549 C534 1.268 . S
Sc550 O553 2.025 . S
Sc550 O560 2.105 . S
Sc550 O563 2.105 . S
Sc550 O566 2.105 1_554 S
Sc550 O569 2.105 . S
Sc551 O553 2.025 . S
Sc551 O561 2.105 . S
Sc551 O565 2.105 . S
Sc551 O567 2.105 . S
Sc551 O571 2.105 . S
Sc552 O553 2.025 1_556 S
Sc552 O562 2.105 1_556 S
Sc552 O564 2.105 . S
Sc552 O568 2.105 . S
Sc552 O570 2.105 . S
O553 Sc550 2.025 . S
O553 Sc551 2.025 . S
O553 Sc552 2.025 1_554 S
C554 O560 1.277 . S
C554 O570 1.255 1_554 S
C555 O561 1.268 . S
C555 O569 1.268 . S
C556 O562 1.268 . S
C556 O571 1.268 . S
C557 O563 1.268 . S
C557 O567 1.268 . S
C558 O564 1.268 . S
C558 O566 1.268 . S
C559 O565 1.268 1_556 S
C559 O568 1.268 . S
O560 Sc550 2.105 . S
O560 C554 1.277 . S
O561 Sc551 2.105 . S
O561 C555 1.268 . S
O562 Sc552 2.105 1_554 S
O562 C556 1.268 . S
O563 Sc550 2.105 . S
O563 C557 1.268 . S
O564 Sc552 2.105 . S
O564 C558 1.268 . S
O565 Sc551 2.105 . S
O565 C559 1.268 1_554 S
O566 Sc550 2.105 1_556 S
O566 C558 1.268 . S
O567 Sc551 2.105 . S
O567 C557 1.268 . S
O568 Sc552 2.105 . S
O568 C559 1.268 . S
O569 Sc550 2.105 . S
O569 C555 1.268 . S
O570 Sc552 2.105 . S
O570 C554 1.255 1_556 S
O571 Sc551 2.105 . S
O571 C556 1.268 . S
Sc572 O575 2.025 . S
Sc572 O582 2.105 . S
Sc572 O585 2.105 . S
Sc572 O588 2.105 . S
Sc572 O591 2.105 . S
Sc573 O575 2.025 . S
Sc573 O583 2.105 . S
Sc573 O587 2.105 . S
Sc573 O589 2.105 . S
Sc573 O593 2.105 . S
Sc574 O575 2.025 . S
Sc574 O584 2.105 . S
Sc574 O586 2.105 . S
Sc574 O590 2.105 . S
Sc574 O592 2.105 . S
O575 Sc572 2.025 . S
O575 Sc573 2.025 . S
O575 Sc574 2.025 . S
C576 O582 1.268 . S
C576 O592 1.268 . S
C577 O583 1.268 . S
C577 O591 1.268 . S
C578 O584 1.268 . S
C578 O593 1.268 . S
C579 O585 1.268 . S
C579 O589 1.268 . S
C580 O586 1.268 . S
C580 O588 1.268 . S
C581 O587 1.268 . S
C581 O590 1.268 . S
O582 Sc572 2.105 . S
O582 C576 1.268 . S
O583 Sc573 2.105 . S
O583 C577 1.268 . S
O584 Sc574 2.105 . S
O584 C578 1.268 . S
O585 Sc572 2.105 . S
O585 C579 1.268 . S
O586 Sc574 2.105 . S
O586 C580 1.268 . S
O587 Sc573 2.105 . S
O587 C581 1.268 . S
O588 Sc572 2.105 . S
O588 C580 1.268 . S
O589 Sc573 2.105 . S
O589 C579 1.268 . S
O590 Sc574 2.105 . S
O590 C581 1.268 . S
O591 Sc572 2.105 . S
O591 C577 1.268 . S
O592 Sc574 2.105 . S
O592 C576 1.268 . S
O593 Sc573 2.105 . S
O593 C578 1.268 . S
Sc594 O597 2.025 . S
Sc594 O604 2.105 . S
Sc594 O607 2.105 . S
Sc594 O610 2.105 . S
Sc594 O613 2.105 . S
Sc595 O597 2.025 . S
Sc595 O605 2.105 . S
Sc595 O609 2.105 . S
Sc595 O611 2.105 . S
Sc595 O615 2.105 . S
Sc596 O597 2.025 . S
Sc596 O606 2.105 . S
Sc596 O608 2.105 . S
Sc596 O612 2.105 . S
Sc596 O614 2.105 . S
O597 Sc594 2.025 . S
O597 Sc595 2.025 . S
O597 Sc596 2.025 . S
C598 O604 1.268 . S
C598 O614 1.268 . S
C599 O605 1.268 . S
C599 O613 1.268 . S
C600 O606 1.268 . S
C600 O615 1.268 . S
C601 O607 1.268 . S
C601 O611 1.268 . S
C602 O608 1.268 . S
C602 O610 1.268 . S
C603 O609 1.268 . S
C603 O612 1.268 . S
O604 Sc594 2.105 . S
O604 C598 1.268 . S
O605 Sc595 2.105 . S
O605 C599 1.268 . S
O606 Sc596 2.105 . S
O606 C600 1.268 . S
O607 Sc594 2.105 . S
O607 C601 1.268 . S
O608 Sc596 2.105 . S
O608 C602 1.268 . S
O609 Sc595 2.105 . S
O609 C603 1.268 . S
O610 Sc594 2.105 . S
O610 C602 1.268 . S
O611 Sc595 2.105 . S
O611 C601 1.268 . S
O612 Sc596 2.105 . S
O612 C603 1.268 . S
O613 Sc594 2.105 . S
O613 C599 1.268 . S
O614 Sc596 2.105 . S
O614 C598 1.268 . S
O615 Sc595 2.105 . S
O615 C600 1.268 . S
Sc616 O619 2.025 . S
Sc616 O626 2.105 1_556 S
Sc616 O629 2.105 . S
Sc616 O632 2.105 . S
Sc616 O635 2.105 . S
Sc617 O619 2.025 . S
Sc617 O627 2.105 . S
Sc617 O631 2.105 . S
Sc617 O633 2.105 . S
Sc617 O637 2.105 . S
Sc618 O619 2.025 1_554 S
Sc618 O628 2.105 . S
Sc618 O630 2.105 . S
Sc618 O634 2.105 1_554 S
Sc618 O636 2.105 . S
O619 Sc616 2.025 . S
O619 Sc617 2.025 . S
O619 Sc618 2.025 1_556 S
C620 O626 1.268 . S
C620 O636 1.268 . S
C621 O627 1.268 . S
C621 O635 1.268 . S
C622 O628 1.268 . S
C622 O637 1.268 1_554 S
C623 O629 1.268 . S
C623 O633 1.268 . S
C624 O630 1.255 1_556 S
C624 O632 1.277 . S
C625 O631 1.268 . S
C625 O634 1.268 . S
O626 Sc616 2.105 1_554 S
O626 C620 1.268 . S
O627 Sc617 2.105 . S
O627 C621 1.268 . S
O628 Sc618 2.105 . S
O628 C622 1.268 . S
O629 Sc616 2.105 . S
O629 C623 1.268 . S
O630 Sc618 2.105 . S
O630 C624 1.255 1_554 S
O631 Sc617 2.105 . S
O631 C625 1.268 . S
O632 Sc616 2.105 . S
O632 C624 1.277 . S
O633 Sc617 2.105 . S
O633 C623 1.268 . S
O634 Sc618 2.105 1_556 S
O634 C625 1.268 . S
O635 Sc616 2.105 . S
O635 C621 1.268 . S
O636 Sc618 2.105 . S
O636 C620 1.268 . S
O637 Sc617 2.105 . S
O637 C622 1.268 1_556 S
Sc638 O641 2.025 1_554 S
Sc638 O648 2.105 . S
Sc638 O651 2.105 . S
Sc638 O654 2.105 . S
Sc638 O657 2.105 1_554 S
Sc639 O641 2.025 . S
Sc639 O649 2.105 . S
Sc639 O653 2.105 . S
Sc639 O655 2.105 . S
Sc639 O659 2.105 . S
Sc640 O641 2.025 . S
Sc640 O650 2.105 . S
Sc640 O652 2.105 1_556 S
Sc640 O656 2.105 . S
Sc640 O658 2.105 . S
O641 Sc638 2.025 1_556 S
O641 Sc639 2.025 . S
O641 Sc640 2.025 . S
C642 O648 1.255 1_556 S
C642 O658 1.277 . S
C643 O649 1.268 . S
C643 O657 1.268 . S
C644 O650 1.268 . S
C644 O659 1.268 . S
C645 O651 1.268 . S
C645 O655 1.268 1_554 S
C646 O652 1.268 . S
C646 O654 1.268 . S
C647 O653 1.268 . S
C647 O656 1.268 . S
O648 Sc638 2.105 . S
O648 C642 1.255 1_554 S
O649 Sc639 2.105 . S
O649 C643 1.268 . S
O650 Sc640 2.105 . S
O650 C644 1.268 . S
O651 Sc638 2.105 . S
O651 C645 1.268 . S
O652 Sc640 2.105 1_554 S
O652 C646 1.268 . S
O653 Sc639 2.105 . S
O653 C647 1.268 . S
O654 Sc638 2.105 . S
O654 C646 1.268 . S
O655 Sc639 2.105 . S
O655 C645 1.268 1_556 S
O656 Sc640 2.105 . S
O656 C647 1.268 . S
O657 Sc638 2.105 1_556 S
O657 C643 1.268 . S
O658 Sc640 2.105 . S
O658 C642 1.277 . S
O659 Sc639 2.105 . S
O659 C644 1.268 . S
Sc660 O663 2.025 . S
Sc660 O670 2.105 . S
Sc660 O673 2.105 . S
Sc660 O676 2.105 . S
Sc660 O679 2.105 . S
Sc661 O663 2.025 . S
Sc661 O671 2.105 . S
Sc661 O675 2.105 . S
Sc661 O677 2.105 . S
Sc661 O681 2.105 . S
Sc662 O663 2.025 . S
Sc662 O672 2.105 . S
Sc662 O674 2.105 . S
Sc662 O678 2.105 . S
Sc662 O680 2.105 . S
O663 Sc660 2.025 . S
O663 Sc661 2.025 . S
O663 Sc662 2.025 . S
C664 O670 1.268 . S
C664 O680 1.268 . S
C665 O671 1.268 . S
C665 O679 1.268 . S
C666 O672 1.268 . S
C666 O681 1.268 . S
C667 O673 1.268 . S
C667 O677 1.268 . S
C668 O674 1.268 . S
C668 O676 1.268 . S
C669 O675 1.268 . S
C669 O678 1.268 . S
O670 Sc660 2.105 . S
O670 C664 1.268 . S
O671 Sc661 2.105 . S
O671 C665 1.268 . S
O672 Sc662 2.105 . S
O672 C666 1.268 . S
O673 Sc660 2.105 . S
O673 C667 1.268 . S
O674 Sc662 2.105 . S
O674 C668 1.268 . S
O675 Sc661 2.105 . S
O675 C669 1.268 . S
O676 Sc660 2.105 . S
O676 C668 1.268 . S
O677 Sc661 2.105 . S
O677 C667 1.268 . S
O678 Sc662 2.105 . S
O678 C669 1.268 . S
O679 Sc660 2.105 . S
O679 C665 1.268 . S
O680 Sc662 2.105 . S
O680 C664 1.268 . S
O681 Sc661 2.105 . S
O681 C666 1.268 . S
Sc682 O685 2.025 . S
Sc682 O692 2.105 . S
Sc682 O695 2.105 . S
Sc682 O698 2.105 . S
Sc682 O701 2.105 . S
Sc683 O685 2.025 . S
Sc683 O693 2.105 . S
Sc683 O697 2.105 . S
Sc683 O699 2.105 . S
Sc683 O703 2.105 . S
Sc684 O685 2.025 . S
Sc684 O694 2.105 . S
Sc684 O696 2.105 . S
Sc684 O700 2.105 . S
Sc684 O702 2.105 . S
O685 Sc682 2.025 . S
O685 Sc683 2.025 . S
O685 Sc684 2.025 . S
C686 O692 1.268 . S
C686 O702 1.268 . S
C687 O693 1.268 . S
C687 O701 1.268 . S
C688 O694 1.268 . S
C688 O703 1.268 . S
C689 O695 1.268 . S
C689 O699 1.268 . S
C690 O696 1.268 . S
C690 O698 1.268 . S
C691 O697 1.268 . S
C691 O700 1.268 . S
O692 Sc682 2.105 . S
O692 C686 1.268 . S
O693 Sc683 2.105 . S
O693 C687 1.268 . S
O694 Sc684 2.105 . S
O694 C688 1.268 . S
O695 Sc682 2.105 . S
O695 C689 1.268 . S
O696 Sc684 2.105 . S
O696 C690 1.268 . S
O697 Sc683 2.105 . S
O697 C691 1.268 . S
O698 Sc682 2.105 . S
O698 C690 1.268 . S
O699 Sc683 2.105 . S
O699 C689 1.268 . S
O700 Sc684 2.105 . S
O700 C691 1.268 . S
O701 Sc682 2.105 . S
O701 C687 1.268 . S
O702 Sc684 2.105 . S
O702 C686 1.268 . S
O703 Sc683 2.105 . S
O703 C688 1.268 . S
C704 C705 1.349 . S
C704 C706 1.327 . S
C704 H729 0.950 . S
C705 C704 1.349 . S
C705 C721 1.349 . S
C706 C704 1.327 . S
C706 C725 1.429 . S
C706 H730 0.950 . S
C707 C724 1.574 . S
C707 C726 1.368 . S
C707 H731 0.949 . S
H708 C712 0.949 . S
C709 C710 1.349 1_565 S
C709 C711 1.327 . S
C709 H732 0.950 1_565 S
C710 C709 1.349 1_545 S
C710 C722 1.349 1_545 S
C711 C709 1.327 . S
C711 C727 1.429 . S
C711 H733 0.950 . S
C712 H708 0.949 . S
C712 C720 1.574 . S
C712 C728 1.368 . S
H713 C721 0.950 . S
H714 C719 0.950 . S
H715 C720 0.949 . S
H716 C722 0.938 1_545 S
H717 C723 0.950 . S
H718 C724 0.949 . S
C719 H714 0.950 . S
C719 C721 1.327 . S
C719 C725 1.429 . S
C720 C712 1.574 . S
C720 H715 0.949 . S
C720 C726 1.368 . S
C721 C705 1.349 . S
C721 H713 0.950 . S
C721 C719 1.327 . S
C722 C710 1.349 1_565 S
C722 H716 0.938 1_565 S
C722 C723 1.327 . S
C723 H717 0.950 . S
C723 C722 1.327 . S
C723 C727 1.429 . S
C724 C707 1.574 . S
C724 H718 0.949 . S
C724 C728 1.368 . S
C725 C706 1.429 . S
C725 C719 1.429 . S
C725 C726 1.523 . S
C726 C707 1.368 . S
C726 C720 1.368 . S
C726 C725 1.523 . S
C727 C711 1.429 . S
C727 C723 1.429 . S
C727 C728 1.523 . S
C728 C712 1.368 . S
C728 C724 1.368 . S
C728 C727 1.523 . S
H729 C704 0.950 . S
H730 C706 0.950 . S
H731 C707 0.949 . S
H732 C709 0.950 1_545 S
H733 C711 0.950 . S
C734 C735 1.349 . S
C734 C736 1.327 . S
C734 H759 0.950 . S
C735 C734 1.349 . S
C735 C751 1.349 . S
C736 C734 1.327 . S
C736 C755 1.429 . S
C736 H760 0.950 . S
C737 C754 1.574 . S
C737 C756 1.368 . S
C737 H761 0.949 . S
H738 C742 0.949 . S
C739 C740 1.349 . S
C739 C741 1.327 . S
C739 H762 0.950 . S
C740 C739 1.349 . S
C740 C752 1.349 . S
C741 C739 1.327 . S
C741 C757 1.429 . S
C741 H763 0.950 . S
C742 H738 0.949 . S
C742 C750 1.574 . S
C742 C758 1.368 . S
H743 C751 0.950 . S
H744 C749 0.950 . S
H745 C750 0.949 . S
H746 C752 0.950 . S
H747 C753 0.950 . S
H748 C754 0.949 . S
C749 H744 0.950 . S
C749 C751 1.327 . S
C749 C755 1.429 . S
C750 C742 1.574 . S
C750 H745 0.949 . S
C750 C756 1.368 . S
C751 C735 1.349 . S
C751 H743 0.950 . S
C751 C749 1.327 . S
C752 C740 1.349 . S
C752 H746 0.950 . S
C752 C753 1.327 . S
C753 H747 0.950 . S
C753 C752 1.327 . S
C753 C757 1.429 . S
C754 C737 1.574 . S
C754 H748 0.949 . S
C754 C758 1.368 . S
C755 C736 1.429 . S
C755 C749 1.429 . S
C755 C756 1.523 . S
C756 C737 1.368 . S
C756 C750 1.368 . S
C756 C755 1.523 . S
C757 C741 1.429 . S
C757 C753 1.429 . S
C757 C758 1.523 . S
C758 C742 1.368 . S
C758 C754 1.368 . S
C758 C757 1.523 . S
H759 C734 0.950 . S
H760 C736 0.950 . S
H761 C737 0.949 . S
H762 C739 0.950 . S
H763 C741 0.950 . S
C764 C765 1.349 . S
C764 C766 1.327 . S
C764 H789 0.950 . S
C765 C764 1.349 . S
C765 C781 1.349 . S
C766 C764 1.327 . S
C766 C785 1.429 . S
C766 H790 0.950 . S
C767 C784 1.574 . S
C767 C786 1.368 . S
C767 H791 0.949 . S
H768 C772 0.949 . S
C769 C770 1.349 . S
C769 C771 1.327 . S
C769 H792 0.950 . S
C770 C769 1.349 . S
C770 C782 1.349 . S
C771 C769 1.327 . S
C771 C787 1.429 . S
C771 H793 0.950 . S
C772 H768 0.949 . S
C772 C780 1.574 . S
C772 C788 1.368 . S
H773 C781 0.950 . S
H774 C779 0.950 . S
H775 C780 0.949 . S
H776 C782 0.950 . S
H777 C783 0.950 . S
H778 C784 0.949 . S
C779 H774 0.950 . S
C779 C781 1.327 . S
C779 C785 1.429 . S
C780 C772 1.574 . S
C780 H775 0.949 . S
C780 C786 1.368 . S
C781 C765 1.349 . S
C781 H773 0.950 . S
C781 C779 1.327 . S
C782 C770 1.349 . S
C782 H776 0.950 . S
C782 C783 1.327 . S
C783 H777 0.950 . S
C783 C782 1.327 . S
C783 C787 1.429 . S
C784 C767 1.574 . S
C784 H778 0.949 . S
C784 C788 1.368 . S
C785 C766 1.429 . S
C785 C779 1.429 . S
C785 C786 1.523 . S
C786 C767 1.368 . S
C786 C780 1.368 . S
C786 C785 1.523 . S
C787 C771 1.429 . S
C787 C783 1.429 . S
C787 C788 1.523 . S
C788 C772 1.368 . S
C788 C784 1.368 . S
C788 C787 1.523 . S
H789 C764 0.950 . S
H790 C766 0.950 . S
H791 C767 0.949 . S
H792 C769 0.950 . S
H793 C771 0.950 . S
C794 C795 1.349 . S
C794 C796 1.327 . S
C794 H819 0.950 . S
C795 C794 1.349 . S
C795 C811 1.349 . S
C796 C794 1.327 . S
C796 C815 1.429 . S
C796 H820 0.950 . S
C797 C814 1.574 . S
C797 C816 1.368 . S
C797 H821 0.949 . S
H798 C802 0.949 . S
C799 C800 1.349 1_565 S
C799 C801 1.327 . S
C799 H822 0.950 1_565 S
C800 C799 1.349 1_545 S
C800 C812 1.349 1_545 S
C801 C799 1.327 . S
C801 C817 1.429 . S
C801 H823 0.950 . S
C802 H798 0.949 . S
C802 C810 1.574 . S
C802 C818 1.368 . S
H803 C811 0.950 . S
H804 C809 0.950 . S
H805 C810 0.949 . S
H806 C812 0.938 1_545 S
H807 C813 0.950 . S
H808 C814 0.949 . S
C809 H804 0.950 . S
C809 C811 1.327 . S
C809 C815 1.429 . S
C810 C802 1.574 . S
C810 H805 0.949 . S
C810 C816 1.368 . S
C811 C795 1.349 . S
C811 H803 0.950 . S
C811 C809 1.327 . S
C812 C800 1.349 1_565 S
C812 H806 0.938 1_565 S
C812 C813 1.327 . S
C813 H807 0.950 . S
C813 C812 1.327 . S
C813 C817 1.429 . S
C814 C797 1.574 . S
C814 H808 0.949 . S
C814 C818 1.368 . S
C815 C796 1.429 . S
C815 C809 1.429 . S
C815 C816 1.523 . S
C816 C797 1.368 . S
C816 C810 1.368 . S
C816 C815 1.523 . S
C817 C801 1.429 . S
C817 C813 1.429 . S
C817 C818 1.523 . S
C818 C802 1.368 . S
C818 C814 1.368 . S
C818 C817 1.523 . S
H819 C794 0.950 . S
H820 C796 0.950 . S
H821 C797 0.949 . S
H822 C799 0.950 1_545 S
H823 C801 0.950 . S
C824 C825 1.349 1_545 S
C824 C826 1.327 . S
C824 H849 0.938 1_545 S
C825 C824 1.349 1_565 S
C825 C841 1.349 1_565 S
C826 C824 1.327 . S
C826 C845 1.429 . S
C826 H850 0.950 . S
C827 C844 1.574 . S
C827 C846 1.368 . S
C827 H851 0.949 . S
H828 C832 0.949 . S
C829 C830 1.349 . S
C829 C831 1.327 . S
C829 H852 0.950 . S
C830 C829 1.349 . S
C830 C842 1.349 . S
C831 C829 1.327 . S
C831 C847 1.429 . S
C831 H853 0.950 . S
C832 H828 0.949 . S
C832 C840 1.574 . S
C832 C848 1.368 . S
H833 C841 0.950 1_565 S
H834 C839 0.950 . S
H835 C840 0.949 . S
H836 C842 0.950 . S
H837 C843 0.950 . S
H838 C844 0.949 . S
C839 H834 0.950 . S
C839 C841 1.327 . S
C839 C845 1.429 . S
C840 C832 1.574 . S
C840 H835 0.949 . S
C840 C846 1.368 . S
C841 C825 1.349 1_545 S
C841 H833 0.950 1_545 S
C841 C839 1.327 . S
C842 C830 1.349 . S
C842 H836 0.950 . S
C842 C843 1.327 . S
C843 H837 0.950 . S
C843 C842 1.327 . S
C843 C847 1.429 . S
C844 C827 1.574 . S
C844 H838 0.949 . S
C844 C848 1.368 . S
C845 C826 1.429 . S
C845 C839 1.429 . S
C845 C846 1.523 . S
C846 C827 1.368 . S
C846 C840 1.368 . S
C846 C845 1.523 . S
C847 C831 1.429 . S
C847 C843 1.429 . S
C847 C848 1.523 . S
C848 C832 1.368 . S
C848 C844 1.368 . S
C848 C847 1.523 . S
H849 C824 0.938 1_565 S
H850 C826 0.950 . S
H851 C827 0.949 . S
H852 C829 0.950 . S
H853 C831 0.950 . S
C854 C855 1.349 . S
C854 C856 1.327 . S
C854 H879 0.950 . S
C855 C854 1.349 . S
C855 C871 1.349 . S
C856 C854 1.327 . S
C856 C875 1.429 . S
C856 H880 0.950 . S
C857 C874 1.574 . S
C857 C876 1.368 . S
C857 H881 0.949 . S
H858 C862 0.949 . S
C859 C860 1.349 . S
C859 C861 1.327 . S
C859 H882 0.950 . S
C860 C859 1.349 . S
C860 C872 1.349 . S
C861 C859 1.327 . S
C861 C877 1.429 . S
C861 H883 0.950 . S
C862 H858 0.949 . S
C862 C870 1.574 . S
C862 C878 1.368 . S
H863 C871 0.950 . S
H864 C869 0.950 . S
H865 C870 0.949 . S
H866 C872 0.950 . S
H867 C873 0.950 . S
H868 C874 0.949 . S
C869 H864 0.950 . S
C869 C871 1.327 . S
C869 C875 1.429 . S
C870 C862 1.574 . S
C870 H865 0.949 . S
C870 C876 1.368 . S
C871 C855 1.349 . S
C871 H863 0.950 . S
C871 C869 1.327 . S
C872 C860 1.349 . S
C872 H866 0.950 . S
C872 C873 1.327 . S
C873 H867 0.950 . S
C873 C872 1.327 . S
C873 C877 1.429 . S
C874 C857 1.574 . S
C874 H868 0.949 . S
C874 C878 1.368 . S
C875 C856 1.429 . S
C875 C869 1.429 . S
C875 C876 1.523 . S
C876 C857 1.368 . S
C876 C870 1.368 . S
C876 C875 1.523 . S
C877 C861 1.429 . S
C877 C873 1.429 . S
C877 C878 1.523 . S
C878 C862 1.368 . S
C878 C874 1.368 . S
C878 C877 1.523 . S
H879 C854 0.950 . S
H880 C856 0.950 . S
H881 C857 0.949 . S
H882 C859 0.950 . S
H883 C861 0.950 . S
C884 C885 1.349 . S
C884 C886 1.327 . S
C884 H909 0.950 . S
C885 C884 1.349 . S
C885 C901 1.349 . S
C886 C884 1.327 . S
C886 C905 1.429 . S
C886 H910 0.950 . S
C887 C904 1.574 . S
C887 C906 1.368 . S
C887 H911 0.949 . S
H888 C892 0.949 . S
C889 C890 1.349 . S
C889 C891 1.327 . S
C889 H912 0.950 . S
C890 C889 1.349 . S
C890 C902 1.349 . S
C891 C889 1.327 . S
C891 C907 1.429 . S
C891 H913 0.950 . S
C892 H888 0.949 . S
C892 C900 1.574 . S
C892 C908 1.368 . S
H893 C901 0.950 . S
H894 C899 0.950 . S
H895 C900 0.949 . S
H896 C902 0.950 . S
H897 C903 0.950 . S
H898 C904 0.949 . S
C899 H894 0.950 . S
C899 C901 1.327 . S
C899 C905 1.429 . S
C900 C892 1.574 . S
C900 H895 0.949 . S
C900 C906 1.368 . S
C901 C885 1.349 . S
C901 H893 0.950 . S
C901 C899 1.327 . S
C902 C890 1.349 . S
C902 H896 0.950 . S
C902 C903 1.327 . S
C903 H897 0.950 . S
C903 C902 1.327 . S
C903 C907 1.429 . S
C904 C887 1.574 . S
C904 H898 0.949 . S
C904 C908 1.368 . S
C905 C886 1.429 . S
C905 C899 1.429 . S
C905 C906 1.523 . S
C906 C887 1.368 . S
C906 C900 1.368 . S
C906 C905 1.523 . S
C907 C891 1.429 . S
C907 C903 1.429 . S
C907 C908 1.523 . S
C908 C892 1.368 . S
C908 C904 1.368 . S
C908 C907 1.523 . S
H909 C884 0.950 . S
H910 C886 0.950 . S
H911 C887 0.949 . S
H912 C889 0.950 . S
H913 C891 0.950 . S
C914 C915 1.349 . S
C914 C916 1.327 . S
C914 H939 0.950 . S
C915 C914 1.349 . S
C915 C931 1.349 . S
C916 C914 1.327 . S
C916 C935 1.429 . S
C916 H940 0.950 . S
C917 C934 1.574 . S
C917 C936 1.368 . S
C917 H941 0.949 . S
H918 C922 0.949 . S
C919 C920 1.349 1_545 S
C919 C921 1.327 . S
C919 H942 0.950 1_545 S
C920 C919 1.349 1_565 S
C920 C932 1.349 1_565 S
C921 C919 1.327 . S
C921 C937 1.429 . S
C921 H943 0.950 . S
C922 H918 0.949 . S
C922 C930 1.574 . S
C922 C938 1.368 . S
H923 C931 0.950 . S
H924 C929 0.950 . S
H925 C930 0.949 . S
H926 C932 0.938 1_565 S
H927 C933 0.950 . S
H928 C934 0.949 . S
C929 H924 0.950 . S
C929 C931 1.327 . S
C929 C935 1.429 . S
C930 C922 1.574 . S
C930 H925 0.949 . S
C930 C936 1.368 . S
C931 C915 1.349 . S
C931 H923 0.950 . S
C931 C929 1.327 . S
C932 C920 1.349 1_545 S
C932 H926 0.938 1_545 S
C932 C933 1.327 . S
C933 H927 0.950 . S
C933 C932 1.327 . S
C933 C937 1.429 . S
C934 C917 1.574 . S
C934 H928 0.949 . S
C934 C938 1.368 . S
C935 C916 1.429 . S
C935 C929 1.429 . S
C935 C936 1.523 . S
C936 C917 1.368 . S
C936 C930 1.368 . S
C936 C935 1.523 . S
C937 C921 1.429 . S
C937 C933 1.429 . S
C937 C938 1.523 . S
C938 C922 1.368 . S
C938 C934 1.368 . S
C938 C937 1.523 . S
H939 C914 0.950 . S
H940 C916 0.950 . S
H941 C917 0.949 . S
H942 C919 0.950 1_565 S
H943 C921 0.950 . S
C944 C945 1.349 . S
C944 C946 1.327 . S
C944 H969 0.950 . S
C945 C944 1.349 . S
C945 C961 1.349 . S
C946 C944 1.327 . S
C946 C965 1.429 . S
C946 H970 0.950 . S
C947 C964 1.574 . S
C947 C966 1.368 . S
C947 H971 0.949 . S
H948 C952 0.949 . S
C949 C950 1.349 . S
C949 C951 1.327 . S
C949 H972 0.950 . S
C950 C949 1.349 . S
C950 C962 1.349 . S
C951 C949 1.327 . S
C951 C967 1.429 . S
C951 H973 0.950 . S
C952 H948 0.949 . S
C952 C960 1.574 . S
C952 C968 1.368 . S
H953 C961 0.950 . S
H954 C959 0.950 . S
H955 C960 0.949 . S
H956 C962 0.950 . S
H957 C963 0.950 . S
H958 C964 0.949 . S
C959 H954 0.950 . S
C959 C961 1.327 . S
C959 C965 1.429 . S
C960 C952 1.574 . S
C960 H955 0.949 . S
C960 C966 1.368 . S
C961 C945 1.349 . S
C961 H953 0.950 . S
C961 C959 1.327 . S
C962 C950 1.349 . S
C962 H956 0.950 . S
C962 C963 1.327 . S
C963 H957 0.950 . S
C963 C962 1.327 . S
C963 C967 1.429 . S
C964 C947 1.574 . S
C964 H958 0.949 . S
C964 C968 1.368 . S
C965 C946 1.429 . S
C965 C959 1.429 . S
C965 C966 1.523 . S
C966 C947 1.368 . S
C966 C960 1.368 . S
C966 C965 1.523 . S
C967 C951 1.429 . S
C967 C963 1.429 . S
C967 C968 1.523 . S
C968 C952 1.368 . S
C968 C964 1.368 . S
C968 C967 1.523 . S
H969 C944 0.950 . S
H970 C946 0.950 . S
H971 C947 0.949 . S
H972 C949 0.950 . S
H973 C951 0.950 . S
C974 C975 1.349 1_565 S
C974 C976 1.327 . S
C974 H999 0.938 1_565 S
C975 C974 1.349 1_545 S
C975 C991 1.349 1_545 S
C976 C974 1.327 . S
C976 C995 1.429 . S
C976 H1000 0.950 . S
C977 C994 1.574 . S
C977 C996 1.368 . S
C977 H1001 0.949 . S
H978 C982 0.949 . S
C979 C980 1.349 . S
C979 C981 1.327 . S
C979 H1002 0.950 . S
C980 C979 1.349 . S
C980 C992 1.349 . S
C981 C979 1.327 . S
C981 C997 1.429 . S
C981 H1003 0.950 . S
C982 H978 0.949 . S
C982 C990 1.574 . S
C982 C998 1.368 . S
H983 C991 0.950 1_545 S
H984 C989 0.950 . S
H985 C990 0.949 . S
H986 C992 0.950 . S
H987 C993 0.950 . S
H988 C994 0.949 . S
C989 H984 0.950 . S
C989 C991 1.327 . S
C989 C995 1.429 . S
C990 C982 1.574 . S
C990 H985 0.949 . S
C990 C996 1.368 . S
C991 C975 1.349 1_565 S
C991 H983 0.950 1_565 S
C991 C989 1.327 . S
C992 C980 1.349 . S
C992 H986 0.950 . S
C992 C993 1.327 . S
C993 H987 0.950 . S
C993 C992 1.327 . S
C993 C997 1.429 . S
C994 C977 1.574 . S
C994 H988 0.949 . S
C994 C998 1.368 . S
C995 C976 1.429 . S
C995 C989 1.429 . S
C995 C996 1.523 . S
C996 C977 1.368 . S
C996 C990 1.368 . S
C996 C995 1.523 . S
C997 C981 1.429 . S
C997 C993 1.429 . S
C997 C998 1.523 . S
C998 C982 1.368 . S
C998 C994 1.368 . S
C998 C997 1.523 . S
H999 C974 0.938 1_545 S
H1000 C976 0.950 . S
H1001 C977 0.949 . S
H1002 C979 0.950 . S
H1003 C981 0.950 . S
C1004 C1005 1.349 1_565 S
C1004 C1006 1.327 . S
C1004 H1029 0.938 1_565 S
C1005 C1004 1.349 1_545 S
C1005 C1021 1.349 1_545 S
C1006 C1004 1.327 . S
C1006 C1025 1.429 . S
C1006 H1030 0.950 . S
C1007 C1024 1.574 . S
C1007 C1026 1.368 . S
C1007 H1031 0.949 . S
H1008 C1012 0.949 . S
C1009 C1010 1.349 . S
C1009 C1011 1.327 . S
C1009 H1032 0.950 . S
C1010 C1009 1.349 . S
C1010 C1022 1.349 . S
C1011 C1009 1.327 . S
C1011 C1027 1.429 . S
C1011 H1033 0.950 . S
C1012 H1008 0.949 . S
C1012 C1020 1.574 . S
C1012 C1028 1.368 . S
H1013 C1021 0.950 1_545 S
H1014 C1019 0.950 . S
H1015 C1020 0.949 . S
H1016 C1022 0.950 . S
H1017 C1023 0.950 . S
H1018 C1024 0.949 . S
C1019 H1014 0.950 . S
C1019 C1021 1.327 . S
C1019 C1025 1.429 . S
C1020 C1012 1.574 . S
C1020 H1015 0.949 . S
C1020 C1026 1.368 . S
C1021 C1005 1.349 1_565 S
C1021 H1013 0.950 1_565 S
C1021 C1019 1.327 . S
C1022 C1010 1.349 . S
C1022 H1016 0.950 . S
C1022 C1023 1.327 . S
C1023 H1017 0.950 . S
C1023 C1022 1.327 . S
C1023 C1027 1.429 . S
C1024 C1007 1.574 . S
C1024 H1018 0.949 . S
C1024 C1028 1.368 . S
C1025 C1006 1.429 . S
C1025 C1019 1.429 . S
C1025 C1026 1.523 . S
C1026 C1007 1.368 . S
C1026 C1020 1.368 . S
C1026 C1025 1.523 . S
C1027 C1011 1.429 . S
C1027 C1023 1.429 . S
C1027 C1028 1.523 . S
C1028 C1012 1.368 . S
C1028 C1024 1.368 . S
C1028 C1027 1.523 . S
H1029 C1004 0.938 1_545 S
H1030 C1006 0.950 . S
H1031 C1007 0.949 . S
H1032 C1009 0.950 . S
H1033 C1011 0.950 . S
C1034 C1035 1.349 . S
C1034 C1036 1.327 . S
C1034 H1059 0.950 . S
C1035 C1034 1.349 . S
C1035 C1051 1.349 . S
C1036 C1034 1.327 . S
C1036 C1055 1.429 . S
C1036 H1060 0.950 . S
C1037 C1054 1.574 . S
C1037 C1056 1.368 . S
C1037 H1061 0.949 . S
H1038 C1042 0.949 . S
C1039 C1040 1.349 . S
C1039 C1041 1.327 . S
C1039 H1062 0.950 . S
C1040 C1039 1.349 . S
C1040 C1052 1.349 . S
C1041 C1039 1.327 . S
C1041 C1057 1.429 . S
C1041 H1063 0.950 . S
C1042 H1038 0.949 . S
C1042 C1050 1.574 . S
C1042 C1058 1.368 . S
H1043 C1051 0.950 . S
H1044 C1049 0.950 . S
H1045 C1050 0.949 . S
H1046 C1052 0.950 . S
H1047 C1053 0.950 . S
H1048 C1054 0.949 . S
C1049 H1044 0.950 . S
C1049 C1051 1.327 . S
C1049 C1055 1.429 . S
C1050 C1042 1.574 . S
C1050 H1045 0.949 . S
C1050 C1056 1.368 . S
C1051 C1035 1.349 . S
C1051 H1043 0.950 . S
C1051 C1049 1.327 . S
C1052 C1040 1.349 . S
C1052 H1046 0.950 . S
C1052 C1053 1.327 . S
C1053 H1047 0.950 . S
C1053 C1052 1.327 . S
C1053 C1057 1.429 . S
C1054 C1037 1.574 . S
C1054 H1048 0.949 . S
C1054 C1058 1.368 . S
C1055 C1036 1.429 . S
C1055 C1049 1.429 . S
C1055 C1056 1.523 . S
C1056 C1037 1.368 . S
C1056 C1050 1.368 . S
C1056 C1055 1.523 . S
C1057 C1041 1.429 . S
C1057 C1053 1.429 . S
C1057 C1058 1.523 . S
C1058 C1042 1.368 . S
C1058 C1054 1.368 . S
C1058 C1057 1.523 . S
H1059 C1034 0.950 . S
H1060 C1036 0.950 . S
H1061 C1037 0.949 . S
H1062 C1039 0.950 . S
H1063 C1041 0.950 . S
C1064 C1065 1.349 . S
C1064 C1066 1.327 . S
C1064 H1089 0.950 . S
C1065 C1064 1.349 . S
C1065 C1081 1.349 . S
C1066 C1064 1.327 . S
C1066 C1085 1.429 . S
C1066 H1090 0.950 . S
C1067 C1084 1.574 . S
C1067 C1086 1.368 . S
C1067 H1091 0.949 . S
H1068 C1072 0.949 . S
C1069 C1070 1.349 . S
C1069 C1071 1.327 . S
C1069 H1092 0.950 . S
C1070 C1069 1.349 . S
C1070 C1082 1.349 . S
C1071 C1069 1.327 . S
C1071 C1087 1.429 . S
C1071 H1093 0.950 . S
C1072 H1068 0.949 . S
C1072 C1080 1.574 . S
C1072 C1088 1.368 . S
H1073 C1081 0.950 . S
H1074 C1079 0.950 . S
H1075 C1080 0.949 . S
H1076 C1082 0.950 . S
H1077 C1083 0.950 . S
H1078 C1084 0.949 . S
C1079 H1074 0.950 . S
C1079 C1081 1.327 . S
C1079 C1085 1.429 . S
C1080 C1072 1.574 . S
C1080 H1075 0.949 . S
C1080 C1086 1.368 . S
C1081 C1065 1.349 . S
C1081 H1073 0.950 . S
C1081 C1079 1.327 . S
C1082 C1070 1.349 . S
C1082 H1076 0.950 . S
C1082 C1083 1.327 . S
C1083 H1077 0.950 . S
C1083 C1082 1.327 . S
C1083 C1087 1.429 . S
C1084 C1067 1.574 . S
C1084 H1078 0.949 . S
C1084 C1088 1.368 . S
C1085 C1066 1.429 . S
C1085 C1079 1.429 . S
C1085 C1086 1.523 . S
C1086 C1067 1.368 . S
C1086 C1080 1.368 . S
C1086 C1085 1.523 . S
C1087 C1071 1.429 . S
C1087 C1083 1.429 . S
C1087 C1088 1.523 . S
C1088 C1072 1.368 . S
C1088 C1084 1.368 . S
C1088 C1087 1.523 . S
H1089 C1064 0.950 . S
H1090 C1066 0.950 . S
H1091 C1067 0.949 . S
H1092 C1069 0.950 . S
H1093 C1071 0.950 . S
C1094 C1095 1.349 1_545 S
C1094 C1096 1.327 . S
C1094 H1119 0.938 1_545 S
C1095 C1094 1.349 1_565 S
C1095 C1111 1.349 1_565 S
C1096 C1094 1.327 . S
C1096 C1115 1.429 . S
C1096 H1120 0.950 . S
C1097 C1114 1.574 . S
C1097 C1116 1.368 . S
C1097 H1121 0.949 . S
H1098 C1102 0.949 . S
C1099 C1100 1.349 . S
C1099 C1101 1.327 . S
C1099 H1122 0.950 . S
C1100 C1099 1.349 . S
C1100 C1112 1.349 . S
C1101 C1099 1.327 . S
C1101 C1117 1.429 . S
C1101 H1123 0.950 . S
C1102 H1098 0.949 . S
C1102 C1110 1.574 . S
C1102 C1118 1.368 . S
H1103 C1111 0.950 1_565 S
H1104 C1109 0.950 . S
H1105 C1110 0.949 . S
H1106 C1112 0.950 . S
H1107 C1113 0.950 . S
H1108 C1114 0.949 . S
C1109 H1104 0.950 . S
C1109 C1111 1.327 . S
C1109 C1115 1.429 . S
C1110 C1102 1.574 . S
C1110 H1105 0.949 . S
C1110 C1116 1.368 . S
C1111 C1095 1.349 1_545 S
C1111 H1103 0.950 1_545 S
C1111 C1109 1.327 . S
C1112 C1100 1.349 . S
C1112 H1106 0.950 . S
C1112 C1113 1.327 . S
C1113 H1107 0.950 . S
C1113 C1112 1.327 . S
C1113 C1117 1.429 . S
C1114 C1097 1.574 . S
C1114 H1108 0.949 . S
C1114 C1118 1.368 . S
C1115 C1096 1.429 . S
C1115 C1109 1.429 . S
C1115 C1116 1.523 . S
C1116 C1097 1.368 . S
C1116 C1110 1.368 . S
C1116 C1115 1.523 . S
C1117 C1101 1.429 . S
C1117 C1113 1.429 . S
C1117 C1118 1.523 . S
C1118 C1102 1.368 . S
C1118 C1114 1.368 . S
C1118 C1117 1.523 . S
H1119 C1094 0.938 1_565 S
H1120 C1096 0.950 . S
H1121 C1097 0.949 . S
H1122 C1099 0.950 . S
H1123 C1101 0.950 . S
C1124 C1125 1.349 . S
C1124 C1126 1.327 . S
C1124 H1149 0.950 . S
C1125 C1124 1.349 . S
C1125 C1141 1.349 . S
C1126 C1124 1.327 . S
C1126 C1145 1.429 . S
C1126 H1150 0.950 . S
C1127 C1144 1.574 . S
C1127 C1146 1.368 . S
C1127 H1151 0.949 . S
H1128 C1132 0.949 . S
C1129 C1130 1.349 1_545 S
C1129 C1131 1.327 . S
C1129 H1152 0.950 1_545 S
C1130 C1129 1.349 1_565 S
C1130 C1142 1.349 1_565 S
C1131 C1129 1.327 . S
C1131 C1147 1.429 . S
C1131 H1153 0.950 . S
C1132 H1128 0.949 . S
C1132 C1140 1.574 . S
C1132 C1148 1.368 . S
H1133 C1141 0.950 . S
H1134 C1139 0.950 . S
H1135 C1140 0.949 . S
H1136 C1142 0.938 1_565 S
H1137 C1143 0.950 . S
H1138 C1144 0.949 . S
C1139 H1134 0.950 . S
C1139 C1141 1.327 . S
C1139 C1145 1.429 . S
C1140 C1132 1.574 . S
C1140 H1135 0.949 . S
C1140 C1146 1.368 . S
C1141 C1125 1.349 . S
C1141 H1133 0.950 . S
C1141 C1139 1.327 . S
C1142 C1130 1.349 1_545 S
C1142 H1136 0.938 1_545 S
C1142 C1143 1.327 . S
C1143 H1137 0.950 . S
C1143 C1142 1.327 . S
C1143 C1147 1.429 . S
C1144 C1127 1.574 . S
C1144 H1138 0.949 . S
C1144 C1148 1.368 . S
C1145 C1126 1.429 . S
C1145 C1139 1.429 . S
C1145 C1146 1.523 . S
C1146 C1127 1.368 . S
C1146 C1140 1.368 . S
C1146 C1145 1.523 . S
C1147 C1131 1.429 . S
C1147 C1143 1.429 . S
C1147 C1148 1.523 . S
C1148 C1132 1.368 . S
C1148 C1144 1.368 . S
C1148 C1147 1.523 . S
H1149 C1124 0.950 . S
H1150 C1126 0.950 . S
H1151 C1127 0.949 . S
H1152 C1129 0.950 1_565 S
H1153 C1131 0.950 . S
C1154 C1155 1.349 . S
C1154 C1156 1.327 . S
C1154 H1179 0.950 . S
C1155 C1154 1.349 . S
C1155 C1171 1.349 . S
C1156 C1154 1.327 . S
C1156 C1175 1.429 . S
C1156 H1180 0.950 . S
C1157 C1174 1.574 . S
C1157 C1176 1.368 . S
C1157 H1181 0.949 . S
H1158 C1162 0.949 . S
C1159 C1160 1.349 . S
C1159 C1161 1.327 . S
C1159 H1182 0.950 . S
C1160 C1159 1.349 . S
C1160 C1172 1.349 . S
C1161 C1159 1.327 . S
C1161 C1177 1.429 . S
C1161 H1183 0.950 . S
C1162 H1158 0.949 . S
C1162 C1170 1.574 . S
C1162 C1178 1.368 . S
H1163 C1171 0.950 . S
H1164 C1169 0.950 . S
H1165 C1170 0.949 . S
H1166 C1172 0.950 . S
H1167 C1173 0.950 . S
H1168 C1174 0.949 . S
C1169 H1164 0.950 . S
C1169 C1171 1.327 . S
C1169 C1175 1.429 . S
C1170 C1162 1.574 . S
C1170 H1165 0.949 . S
C1170 C1176 1.368 . S
C1171 C1155 1.349 . S
C1171 H1163 0.950 . S
C1171 C1169 1.327 . S
C1172 C1160 1.349 . S
C1172 H1166 0.950 . S
C1172 C1173 1.327 . S
C1173 H1167 0.950 . S
C1173 C1172 1.327 . S
C1173 C1177 1.429 . S
C1174 C1157 1.574 . S
C1174 H1168 0.949 . S
C1174 C1178 1.368 . S
C1175 C1156 1.429 . S
C1175 C1169 1.429 . S
C1175 C1176 1.523 . S
C1176 C1157 1.368 . S
C1176 C1170 1.368 . S
C1176 C1175 1.523 . S
C1177 C1161 1.429 . S
C1177 C1173 1.429 . S
C1177 C1178 1.523 . S
C1178 C1162 1.368 . S
C1178 C1174 1.368 . S
C1178 C1177 1.523 . S
H1179 C1154 0.950 . S
H1180 C1156 0.950 . S
H1181 C1157 0.949 . S
H1182 C1159 0.950 . S
H1183 C1161 0.950 . S
C1184 C1185 1.349 . S
C1184 C1186 1.327 . S
C1184 H1209 0.950 . S
C1185 C1184 1.349 . S
C1185 C1201 1.349 . S
C1186 C1184 1.327 . S
C1186 C1205 1.429 . S
C1186 H1210 0.950 . S
C1187 C1204 1.574 . S
C1187 C1206 1.368 . S
C1187 H1211 0.949 . S
H1188 C1192 0.949 . S
C1189 C1190 1.349 . S
C1189 C1191 1.327 . S
C1189 H1212 0.950 . S
C1190 C1189 1.349 . S
C1190 C1202 1.349 . S
C1191 C1189 1.327 . S
C1191 C1207 1.429 . S
C1191 H1213 0.950 . S
C1192 H1188 0.949 . S
C1192 C1200 1.574 . S
C1192 C1208 1.368 . S
H1193 C1201 0.950 . S
H1194 C1199 0.950 . S
H1195 C1200 0.949 . S
H1196 C1202 0.950 . S
H1197 C1203 0.950 . S
H1198 C1204 0.949 . S
C1199 H1194 0.950 . S
C1199 C1201 1.327 . S
C1199 C1205 1.429 . S
C1200 C1192 1.574 . S
C1200 H1195 0.949 . S
C1200 C1206 1.368 . S
C1201 C1185 1.349 . S
C1201 H1193 0.950 . S
C1201 C1199 1.327 . S
C1202 C1190 1.349 . S
C1202 H1196 0.950 . S
C1202 C1203 1.327 . S
C1203 H1197 0.950 . S
C1203 C1202 1.327 . S
C1203 C1207 1.429 . S
C1204 C1187 1.574 . S
C1204 H1198 0.949 . S
C1204 C1208 1.368 . S
C1205 C1186 1.429 . S
C1205 C1199 1.429 . S
C1205 C1206 1.523 . S
C1206 C1187 1.368 . S
C1206 C1200 1.368 . S
C1206 C1205 1.523 . S
C1207 C1191 1.429 . S
C1207 C1203 1.429 . S
C1207 C1208 1.523 . S
C1208 C1192 1.368 . S
C1208 C1204 1.368 . S
C1208 C1207 1.523 . S
H1209 C1184 0.950 . S
H1210 C1186 0.950 . S
H1211 C1187 0.949 . S
H1212 C1189 0.950 . S
H1213 C1191 0.950 . S
C1214 C1215 1.349 . S
C1214 C1216 1.327 . S
C1214 H1239 0.950 . S
C1215 C1214 1.349 . S
C1215 C1231 1.349 . S
C1216 C1214 1.327 . S
C1216 C1235 1.429 . S
C1216 H1240 0.950 . S
C1217 C1234 1.574 . S
C1217 C1236 1.368 . S
C1217 H1241 0.949 . S
H1218 C1222 0.949 . S
C1219 C1220 1.349 . S
C1219 C1221 1.327 . S
C1219 H1242 0.950 . S
C1220 C1219 1.349 . S
C1220 C1232 1.349 . S
C1221 C1219 1.327 . S
C1221 C1237 1.429 . S
C1221 H1243 0.950 . S
C1222 H1218 0.949 . S
C1222 C1230 1.574 . S
C1222 C1238 1.368 . S
H1223 C1231 0.950 . S
H1224 C1229 0.950 . S
H1225 C1230 0.949 . S
H1226 C1232 0.950 . S
H1227 C1233 0.950 . S
H1228 C1234 0.949 . S
C1229 H1224 0.950 . S
C1229 C1231 1.327 . S
C1229 C1235 1.429 . S
C1230 C1222 1.574 . S
C1230 H1225 0.949 . S
C1230 C1236 1.368 . S
C1231 C1215 1.349 . S
C1231 H1223 0.950 . S
C1231 C1229 1.327 . S
C1232 C1220 1.349 . S
C1232 H1226 0.950 . S
C1232 C1233 1.327 . S
C1233 H1227 0.950 . S
C1233 C1232 1.327 . S
C1233 C1237 1.429 . S
C1234 C1217 1.574 . S
C1234 H1228 0.949 . S
C1234 C1238 1.368 . S
C1235 C1216 1.429 . S
C1235 C1229 1.429 . S
C1235 C1236 1.523 . S
C1236 C1217 1.368 . S
C1236 C1230 1.368 . S
C1236 C1235 1.523 . S
C1237 C1221 1.429 . S
C1237 C1233 1.429 . S
C1237 C1238 1.523 . S
C1238 C1222 1.368 . S
C1238 C1234 1.368 . S
C1238 C1237 1.523 . S
H1239 C1214 0.950 . S
H1240 C1216 0.950 . S
H1241 C1217 0.949 . S
H1242 C1219 0.950 . S
H1243 C1221 0.950 . S
C1244 C1245 1.349 . S
C1244 C1246 1.327 . S
C1244 H1269 0.950 . S
C1245 C1244 1.349 . S
C1245 C1261 1.349 . S
C1246 C1244 1.327 . S
C1246 C1265 1.429 . S
C1246 H1270 0.950 . S
C1247 C1264 1.574 . S
C1247 C1266 1.368 . S
C1247 H1271 0.949 . S
H1248 C1252 0.949 . S
C1249 C1250 1.349 . S
C1249 C1251 1.327 . S
C1249 H1272 0.950 . S
C1250 C1249 1.349 . S
C1250 C1262 1.349 . S
C1251 C1249 1.327 . S
C1251 C1267 1.429 . S
C1251 H1273 0.950 . S
C1252 H1248 0.949 . S
C1252 C1260 1.574 . S
C1252 C1268 1.368 . S
H1253 C1261 0.950 . S
H1254 C1259 0.950 . S
H1255 C1260 0.949 . S
H1256 C1262 0.950 . S
H1257 C1263 0.950 . S
H1258 C1264 0.949 . S
C1259 H1254 0.950 . S
C1259 C1261 1.327 . S
C1259 C1265 1.429 . S
C1260 C1252 1.574 . S
C1260 H1255 0.949 . S
C1260 C1266 1.368 . S
C1261 C1245 1.349 . S
C1261 H1253 0.950 . S
C1261 C1259 1.327 . S
C1262 C1250 1.349 . S
C1262 H1256 0.950 . S
C1262 C1263 1.327 . S
C1263 H1257 0.950 . S
C1263 C1262 1.327 . S
C1263 C1267 1.429 . S
C1264 C1247 1.574 . S
C1264 H1258 0.949 . S
C1264 C1268 1.368 . S
C1265 C1246 1.429 . S
C1265 C1259 1.429 . S
C1265 C1266 1.523 . S
C1266 C1247 1.368 . S
C1266 C1260 1.368 . S
C1266 C1265 1.523 . S
C1267 C1251 1.429 . S
C1267 C1263 1.429 . S
C1267 C1268 1.523 . S
C1268 C1252 1.368 . S
C1268 C1264 1.368 . S
C1268 C1267 1.523 . S
H1269 C1244 0.950 . S
H1270 C1246 0.950 . S
H1271 C1247 0.949 . S
H1272 C1249 0.950 . S
H1273 C1251 0.950 . S
C1274 C1275 1.349 . S
C1274 C1276 1.327 . S
C1274 H1299 0.950 . S
C1275 C1274 1.349 . S
C1275 C1291 1.349 . S
C1276 C1274 1.327 . S
C1276 C1295 1.429 . S
C1276 H1300 0.950 . S
C1277 C1294 1.574 . S
C1277 C1296 1.368 . S
C1277 H1301 0.949 . S
H1278 C1282 0.949 . S
C1279 C1280 1.349 . S
C1279 C1281 1.327 . S
C1279 H1302 0.950 . S
C1280 C1279 1.349 . S
C1280 C1292 1.349 . S
C1281 C1279 1.327 . S
C1281 C1297 1.429 . S
C1281 H1303 0.950 . S
C1282 H1278 0.949 . S
C1282 C1290 1.574 . S
C1282 C1298 1.368 . S
H1283 C1291 0.950 . S
H1284 C1289 0.950 . S
H1285 C1290 0.949 . S
H1286 C1292 0.950 . S
H1287 C1293 0.950 . S
H1288 C1294 0.949 . S
C1289 H1284 0.950 . S
C1289 C1291 1.327 . S
C1289 C1295 1.429 . S
C1290 C1282 1.574 . S
C1290 H1285 0.949 . S
C1290 C1296 1.368 . S
C1291 C1275 1.349 . S
C1291 H1283 0.950 . S
C1291 C1289 1.327 . S
C1292 C1280 1.349 . S
C1292 H1286 0.950 . S
C1292 C1293 1.327 . S
C1293 H1287 0.950 . S
C1293 C1292 1.327 . S
C1293 C1297 1.429 . S
C1294 C1277 1.574 . S
C1294 H1288 0.949 . S
C1294 C1298 1.368 . S
C1295 C1276 1.429 . S
C1295 C1289 1.429 . S
C1295 C1296 1.523 . S
C1296 C1277 1.368 . S
C1296 C1290 1.368 . S
C1296 C1295 1.523 . S
C1297 C1281 1.429 . S
C1297 C1293 1.429 . S
C1297 C1298 1.523 . S
C1298 C1282 1.368 . S
C1298 C1294 1.368 . S
C1298 C1297 1.523 . S
H1299 C1274 0.950 . S
H1300 C1276 0.950 . S
H1301 C1277 0.949 . S
H1302 C1279 0.950 . S
H1303 C1281 0.950 . S
C1304 C1305 1.349 . S
C1304 C1306 1.327 . S
C1304 H1329 0.950 . S
C1305 C1304 1.349 . S
C1305 C1321 1.349 . S
C1306 C1304 1.327 . S
C1306 C1325 1.429 . S
C1306 H1330 0.950 . S
C1307 C1324 1.574 . S
C1307 C1326 1.368 . S
C1307 H1331 0.949 . S
H1308 C1312 0.949 . S
C1309 C1310 1.349 . S
C1309 C1311 1.327 . S
C1309 H1332 0.950 . S
C1310 C1309 1.349 . S
C1310 C1322 1.349 . S
C1311 C1309 1.327 . S
C1311 C1327 1.429 . S
C1311 H1333 0.950 . S
C1312 H1308 0.949 . S
C1312 C1320 1.574 . S
C1312 C1328 1.368 . S
H1313 C1321 0.950 . S
H1314 C1319 0.950 . S
H1315 C1320 0.949 . S
H1316 C1322 0.950 . S
H1317 C1323 0.950 . S
H1318 C1324 0.949 . S
C1319 H1314 0.950 . S
C1319 C1321 1.327 . S
C1319 C1325 1.429 . S
C1320 C1312 1.574 . S
C1320 H1315 0.949 . S
C1320 C1326 1.368 . S
C1321 C1305 1.349 . S
C1321 H1313 0.950 . S
C1321 C1319 1.327 . S
C1322 C1310 1.349 . S
C1322 H1316 0.950 . S
C1322 C1323 1.327 . S
C1323 H1317 0.950 . S
C1323 C1322 1.327 . S
C1323 C1327 1.429 . S
C1324 C1307 1.574 . S
C1324 H1318 0.949 . S
C1324 C1328 1.368 . S
C1325 C1306 1.429 . S
C1325 C1319 1.429 . S
C1325 C1326 1.523 . S
C1326 C1307 1.368 . S
C1326 C1320 1.368 . S
C1326 C1325 1.523 . S
C1327 C1311 1.429 . S
C1327 C1323 1.429 . S
C1327 C1328 1.523 . S
C1328 C1312 1.368 . S
C1328 C1324 1.368 . S
C1328 C1327 1.523 . S
H1329 C1304 0.950 . S
H1330 C1306 0.950 . S
H1331 C1307 0.949 . S
H1332 C1309 0.950 . S
H1333 C1311 0.950 . S
C1334 C1335 1.349 . S
C1334 C1336 1.327 . S
C1334 H1359 0.950 . S
C1335 C1334 1.349 . S
C1335 C1351 1.349 . S
C1336 C1334 1.327 . S
C1336 C1355 1.429 . S
C1336 H1360 0.950 . S
C1337 C1354 1.574 . S
C1337 C1356 1.368 . S
C1337 H1361 0.949 . S
H1338 C1342 0.949 . S
C1339 C1340 1.349 . S
C1339 C1341 1.327 . S
C1339 H1362 0.950 . S
C1340 C1339 1.349 . S
C1340 C1352 1.349 . S
C1341 C1339 1.327 . S
C1341 C1357 1.429 . S
C1341 H1363 0.950 . S
C1342 H1338 0.949 . S
C1342 C1350 1.574 . S
C1342 C1358 1.368 . S
H1343 C1351 0.950 . S
H1344 C1349 0.950 . S
H1345 C1350 0.949 . S
H1346 C1352 0.950 . S
H1347 C1353 0.950 . S
H1348 C1354 0.949 . S
C1349 H1344 0.950 . S
C1349 C1351 1.327 . S
C1349 C1355 1.429 . S
C1350 C1342 1.574 . S
C1350 H1345 0.949 . S
C1350 C1356 1.368 . S
C1351 C1335 1.349 . S
C1351 H1343 0.950 . S
C1351 C1349 1.327 . S
C1352 C1340 1.349 . S
C1352 H1346 0.950 . S
C1352 C1353 1.327 . S
C1353 H1347 0.950 . S
C1353 C1352 1.327 . S
C1353 C1357 1.429 . S
C1354 C1337 1.574 . S
C1354 H1348 0.949 . S
C1354 C1358 1.368 . S
C1355 C1336 1.429 . S
C1355 C1349 1.429 . S
C1355 C1356 1.523 . S
C1356 C1337 1.368 . S
C1356 C1350 1.368 . S
C1356 C1355 1.523 . S
C1357 C1341 1.429 . S
C1357 C1353 1.429 . S
C1357 C1358 1.523 . S
C1358 C1342 1.368 . S
C1358 C1354 1.368 . S
C1358 C1357 1.523 . S
H1359 C1334 0.950 . S
H1360 C1336 0.950 . S
H1361 C1337 0.949 . S
H1362 C1339 0.950 . S
H1363 C1341 0.950 . S
C1364 C1365 1.349 . S
C1364 C1366 1.327 . S
C1364 H1389 0.950 . S
C1365 C1364 1.349 . S
C1365 C1381 1.349 . S
C1366 C1364 1.327 . S
C1366 C1385 1.429 . S
C1366 H1390 0.950 . S
C1367 C1384 1.574 . S
C1367 C1386 1.368 . S
C1367 H1391 0.949 . S
H1368 C1372 0.949 . S
C1369 C1370 1.349 . S
C1369 C1371 1.327 . S
C1369 H1392 0.950 . S
C1370 C1369 1.349 . S
C1370 C1382 1.349 . S
C1371 C1369 1.327 . S
C1371 C1387 1.429 . S
C1371 H1393 0.950 . S
C1372 H1368 0.949 . S
C1372 C1380 1.574 . S
C1372 C1388 1.368 . S
H1373 C1381 0.950 . S
H1374 C1379 0.950 . S
H1375 C1380 0.949 . S
H1376 C1382 0.950 . S
H1377 C1383 0.950 . S
H1378 C1384 0.949 . S
C1379 H1374 0.950 . S
C1379 C1381 1.327 . S
C1379 C1385 1.429 . S
C1380 C1372 1.574 . S
C1380 H1375 0.949 . S
C1380 C1386 1.368 . S
C1381 C1365 1.349 . S
C1381 H1373 0.950 . S
C1381 C1379 1.327 . S
C1382 C1370 1.349 . S
C1382 H1376 0.950 . S
C1382 C1383 1.327 . S
C1383 H1377 0.950 . S
C1383 C1382 1.327 . S
C1383 C1387 1.429 . S
C1384 C1367 1.574 . S
C1384 H1378 0.949 . S
C1384 C1388 1.368 . S
C1385 C1366 1.429 . S
C1385 C1379 1.429 . S
C1385 C1386 1.523 . S
C1386 C1367 1.368 . S
C1386 C1380 1.368 . S
C1386 C1385 1.523 . S
C1387 C1371 1.429 . S
C1387 C1383 1.429 . S
C1387 C1388 1.523 . S
C1388 C1372 1.368 . S
C1388 C1384 1.368 . S
C1388 C1387 1.523 . S
H1389 C1364 0.950 . S
H1390 C1366 0.950 . S
H1391 C1367 0.949 . S
H1392 C1369 0.950 . S
H1393 C1371 0.950 . S
C1394 C1395 1.349 . S
C1394 C1396 1.327 . S
C1394 H1419 0.950 . S
C1395 C1394 1.349 . S
C1395 C1411 1.349 . S
C1396 C1394 1.327 . S
C1396 C1415 1.429 . S
C1396 H1420 0.950 . S
C1397 C1414 1.574 . S
C1397 C1416 1.368 . S
C1397 H1421 0.949 . S
H1398 C1402 0.949 . S
C1399 C1400 1.349 . S
C1399 C1401 1.327 . S
C1399 H1422 0.950 . S
C1400 C1399 1.349 . S
C1400 C1412 1.349 . S
C1401 C1399 1.327 . S
C1401 C1417 1.429 . S
C1401 H1423 0.950 . S
C1402 H1398 0.949 . S
C1402 C1410 1.574 . S
C1402 C1418 1.368 . S
H1403 C1411 0.950 . S
H1404 C1409 0.950 . S
H1405 C1410 0.949 . S
H1406 C1412 0.950 . S
H1407 C1413 0.950 . S
H1408 C1414 0.949 . S
C1409 H1404 0.950 . S
C1409 C1411 1.327 . S
C1409 C1415 1.429 . S
C1410 C1402 1.574 . S
C1410 H1405 0.949 . S
C1410 C1416 1.368 . S
C1411 C1395 1.349 . S
C1411 H1403 0.950 . S
C1411 C1409 1.327 . S
C1412 C1400 1.349 . S
C1412 H1406 0.950 . S
C1412 C1413 1.327 . S
C1413 H1407 0.950 . S
C1413 C1412 1.327 . S
C1413 C1417 1.429 . S
C1414 C1397 1.574 . S
C1414 H1408 0.949 . S
C1414 C1418 1.368 . S
C1415 C1396 1.429 . S
C1415 C1409 1.429 . S
C1415 C1416 1.523 . S
C1416 C1397 1.368 . S
C1416 C1410 1.368 . S
C1416 C1415 1.523 . S
C1417 C1401 1.429 . S
C1417 C1413 1.429 . S
C1417 C1418 1.523 . S
C1418 C1402 1.368 . S
C1418 C1414 1.368 . S
C1418 C1417 1.523 . S
H1419 C1394 0.950 . S
H1420 C1396 0.950 . S
H1421 C1397 0.949 . S
H1422 C1399 0.950 . S
H1423 C1401 0.950 . S
C1424 C1425 1.349 . S
C1424 C1426 1.327 . S
C1424 H1449 0.950 . S
C1425 C1424 1.349 . S
C1425 C1441 1.349 . S
C1426 C1424 1.327 . S
C1426 C1445 1.429 . S
C1426 H1450 0.950 . S
C1427 C1444 1.574 . S
C1427 C1446 1.368 . S
C1427 H1451 0.949 . S
H1428 C1432 0.949 . S
C1429 C1430 1.349 . S
C1429 C1431 1.327 . S
C1429 H1452 0.950 . S
C1430 C1429 1.349 . S
C1430 C1442 1.349 . S
C1431 C1429 1.327 . S
C1431 C1447 1.429 . S
C1431 H1453 0.950 . S
C1432 H1428 0.949 . S
C1432 C1440 1.574 . S
C1432 C1448 1.368 . S
H1433 C1441 0.950 . S
H1434 C1439 0.950 . S
H1435 C1440 0.949 . S
H1436 C1442 0.950 . S
H1437 C1443 0.950 . S
H1438 C1444 0.949 . S
C1439 H1434 0.950 . S
C1439 C1441 1.327 . S
C1439 C1445 1.429 . S
C1440 C1432 1.574 . S
C1440 H1435 0.949 . S
C1440 C1446 1.368 . S
C1441 C1425 1.349 . S
C1441 H1433 0.950 . S
C1441 C1439 1.327 . S
C1442 C1430 1.349 . S
C1442 H1436 0.950 . S
C1442 C1443 1.327 . S
C1443 H1437 0.950 . S
C1443 C1442 1.327 . S
C1443 C1447 1.429 . S
C1444 C1427 1.574 . S
C1444 H1438 0.949 . S
C1444 C1448 1.368 . S
C1445 C1426 1.429 . S
C1445 C1439 1.429 . S
C1445 C1446 1.523 . S
C1446 C1427 1.368 . S
C1446 C1440 1.368 . S
C1446 C1445 1.523 . S
C1447 C1431 1.429 . S
C1447 C1443 1.429 . S
C1447 C1448 1.523 . S
C1448 C1432 1.368 . S
C1448 C1444 1.368 . S
C1448 C1447 1.523 . S
H1449 C1424 0.950 . S
H1450 C1426 0.950 . S
H1451 C1427 0.949 . S
H1452 C1429 0.950 . S
H1453 C1431 0.950 . S
C1454 C1455 1.349 . S
C1454 C1456 1.327 . S
C1454 H1479 0.950 . S
C1455 C1454 1.349 . S
C1455 C1471 1.349 . S
C1456 C1454 1.327 . S
C1456 C1475 1.429 . S
C1456 H1480 0.950 . S
C1457 C1474 1.574 . S
C1457 C1476 1.368 . S
C1457 H1481 0.949 . S
H1458 C1462 0.949 . S
C1459 C1460 1.349 . S
C1459 C1461 1.327 . S
C1459 H1482 0.950 . S
C1460 C1459 1.349 . S
C1460 C1472 1.349 . S
C1461 C1459 1.327 . S
C1461 C1477 1.429 . S
C1461 H1483 0.950 . S
C1462 H1458 0.949 . S
C1462 C1470 1.574 . S
C1462 C1478 1.368 . S
H1463 C1471 0.950 . S
H1464 C1469 0.950 . S
H1465 C1470 0.949 . S
H1466 C1472 0.950 . S
H1467 C1473 0.950 . S
H1468 C1474 0.949 . S
C1469 H1464 0.950 . S
C1469 C1471 1.327 . S
C1469 C1475 1.429 . S
C1470 C1462 1.574 . S
C1470 H1465 0.949 . S
C1470 C1476 1.368 . S
C1471 C1455 1.349 . S
C1471 H1463 0.950 . S
C1471 C1469 1.327 . S
C1472 C1460 1.349 . S
C1472 H1466 0.950 . S
C1472 C1473 1.327 . S
C1473 H1467 0.950 . S
C1473 C1472 1.327 . S
C1473 C1477 1.429 . S
C1474 C1457 1.574 . S
C1474 H1468 0.949 . S
C1474 C1478 1.368 . S
C1475 C1456 1.429 . S
C1475 C1469 1.429 . S
C1475 C1476 1.523 . S
C1476 C1457 1.368 . S
C1476 C1470 1.368 . S
C1476 C1475 1.523 . S
C1477 C1461 1.429 . S
C1477 C1473 1.429 . S
C1477 C1478 1.523 . S
C1478 C1462 1.368 . S
C1478 C1474 1.368 . S
C1478 C1477 1.523 . S
H1479 C1454 0.950 . S
H1480 C1456 0.950 . S
H1481 C1457 0.949 . S
H1482 C1459 0.950 . S
H1483 C1461 0.950 . S
C1484 C1485 1.349 . S
C1484 C1486 1.327 . S
C1484 H1509 0.950 . S
C1485 C1484 1.349 . S
C1485 C1501 1.349 . S
C1486 C1484 1.327 . S
C1486 C1505 1.429 . S
C1486 H1510 0.950 . S
C1487 C1504 1.574 . S
C1487 C1506 1.368 . S
C1487 H1511 0.949 . S
H1488 C1492 0.949 . S
C1489 C1490 1.349 . S
C1489 C1491 1.327 . S
C1489 H1512 0.950 . S
C1490 C1489 1.349 . S
C1490 C1502 1.349 . S
C1491 C1489 1.327 . S
C1491 C1507 1.429 . S
C1491 H1513 0.950 . S
C1492 H1488 0.949 . S
C1492 C1500 1.574 . S
C1492 C1508 1.368 . S
H1493 C1501 0.950 . S
H1494 C1499 0.950 . S
H1495 C1500 0.949 . S
H1496 C1502 0.950 . S
H1497 C1503 0.950 . S
H1498 C1504 0.949 . S
C1499 H1494 0.950 . S
C1499 C1501 1.327 . S
C1499 C1505 1.429 . S
C1500 C1492 1.574 . S
C1500 H1495 0.949 . S
C1500 C1506 1.368 . S
C1501 C1485 1.349 . S
C1501 H1493 0.950 . S
C1501 C1499 1.327 . S
C1502 C1490 1.349 . S
C1502 H1496 0.950 . S
C1502 C1503 1.327 . S
C1503 H1497 0.950 . S
C1503 C1502 1.327 . S
C1503 C1507 1.429 . S
C1504 C1487 1.574 . S
C1504 H1498 0.949 . S
C1504 C1508 1.368 . S
C1505 C1486 1.429 . S
C1505 C1499 1.429 . S
C1505 C1506 1.523 . S
C1506 C1487 1.368 . S
C1506 C1500 1.368 . S
C1506 C1505 1.523 . S
C1507 C1491 1.429 . S
C1507 C1503 1.429 . S
C1507 C1508 1.523 . S
C1508 C1492 1.368 . S
C1508 C1504 1.368 . S
C1508 C1507 1.523 . S
H1509 C1484 0.950 . S
H1510 C1486 0.950 . S
H1511 C1487 0.949 . S
H1512 C1489 0.950 . S
H1513 C1491 0.950 . S
C1514 C1515 1.349 . S
C1514 C1516 1.327 . S
C1514 H1539 0.950 . S
C1515 C1514 1.349 . S
C1515 C1531 1.349 . S
C1516 C1514 1.327 . S
C1516 C1535 1.429 . S
C1516 H1540 0.950 . S
C1517 C1534 1.574 . S
C1517 C1536 1.368 . S
C1517 H1541 0.949 . S
H1518 C1522 0.949 . S
C1519 C1520 1.349 . S
C1519 C1521 1.327 . S
C1519 H1542 0.950 . S
C1520 C1519 1.349 . S
C1520 C1532 1.349 . S
C1521 C1519 1.327 . S
C1521 C1537 1.429 . S
C1521 H1543 0.950 . S
C1522 H1518 0.949 . S
C1522 C1530 1.574 . S
C1522 C1538 1.368 . S
H1523 C1531 0.950 . S
H1524 C1529 0.950 . S
H1525 C1530 0.949 . S
H1526 C1532 0.950 . S
H1527 C1533 0.950 . S
H1528 C1534 0.949 . S
C1529 H1524 0.950 . S
C1529 C1531 1.327 . S
C1529 C1535 1.429 . S
C1530 C1522 1.574 . S
C1530 H1525 0.949 . S
C1530 C1536 1.368 . S
C1531 C1515 1.349 . S
C1531 H1523 0.950 . S
C1531 C1529 1.327 . S
C1532 C1520 1.349 . S
C1532 H1526 0.950 . S
C1532 C1533 1.327 . S
C1533 H1527 0.950 . S
C1533 C1532 1.327 . S
C1533 C1537 1.429 . S
C1534 C1517 1.574 . S
C1534 H1528 0.949 . S
C1534 C1538 1.368 . S
C1535 C1516 1.429 . S
C1535 C1529 1.429 . S
C1535 C1536 1.523 . S
C1536 C1517 1.368 . S
C1536 C1530 1.368 . S
C1536 C1535 1.523 . S
C1537 C1521 1.429 . S
C1537 C1533 1.429 . S
C1537 C1538 1.523 . S
C1538 C1522 1.368 . S
C1538 C1534 1.368 . S
C1538 C1537 1.523 . S
H1539 C1514 0.950 . S
H1540 C1516 0.950 . S
H1541 C1517 0.949 . S
H1542 C1519 0.950 . S
H1543 C1521 0.950 . S
C1544 C1545 1.349 . S
C1544 C1546 1.327 . S
C1544 H1569 0.950 . S
C1545 C1544 1.349 . S
C1545 C1561 1.349 . S
C1546 C1544 1.327 . S
C1546 C1565 1.429 . S
C1546 H1570 0.950 . S
C1547 C1564 1.574 . S
C1547 C1566 1.368 . S
C1547 H1571 0.949 . S
H1548 C1552 0.949 . S
C1549 C1550 1.349 . S
C1549 C1551 1.327 . S
C1549 H1572 0.950 . S
C1550 C1549 1.349 . S
C1550 C1562 1.349 . S
C1551 C1549 1.327 . S
C1551 C1567 1.429 . S
C1551 H1573 0.950 . S
C1552 H1548 0.949 . S
C1552 C1560 1.574 . S
C1552 C1568 1.368 . S
H1553 C1561 0.950 . S
H1554 C1559 0.950 . S
H1555 C1560 0.949 . S
H1556 C1562 0.950 . S
H1557 C1563 0.950 . S
H1558 C1564 0.949 . S
C1559 H1554 0.950 . S
C1559 C1561 1.327 . S
C1559 C1565 1.429 . S
C1560 C1552 1.574 . S
C1560 H1555 0.949 . S
C1560 C1566 1.368 . S
C1561 C1545 1.349 . S
C1561 H1553 0.950 . S
C1561 C1559 1.327 . S
C1562 C1550 1.349 . S
C1562 H1556 0.950 . S
C1562 C1563 1.327 . S
C1563 H1557 0.950 . S
C1563 C1562 1.327 . S
C1563 C1567 1.429 . S
C1564 C1547 1.574 . S
C1564 H1558 0.949 . S
C1564 C1568 1.368 . S
C1565 C1546 1.429 . S
C1565 C1559 1.429 . S
C1565 C1566 1.523 . S
C1566 C1547 1.368 . S
C1566 C1560 1.368 . S
C1566 C1565 1.523 . S
C1567 C1551 1.429 . S
C1567 C1563 1.429 . S
C1567 C1568 1.523 . S
C1568 C1552 1.368 . S
C1568 C1564 1.368 . S
C1568 C1567 1.523 . S
H1569 C1544 0.950 . S
H1570 C1546 0.950 . S
H1571 C1547 0.949 . S
H1572 C1549 0.950 . S
H1573 C1551 0.950 . S
C1574 C1575 1.349 . S
C1574 C1576 1.327 . S
C1574 H1599 0.950 . S
C1575 C1574 1.349 . S
C1575 C1591 1.349 . S
C1576 C1574 1.327 . S
C1576 C1595 1.429 . S
C1576 H1600 0.950 . S
C1577 C1594 1.574 . S
C1577 C1596 1.368 . S
C1577 H1601 0.949 . S
H1578 C1582 0.949 . S
C1579 C1580 1.349 . S
C1579 C1581 1.327 . S
C1579 H1602 0.950 . S
C1580 C1579 1.349 . S
C1580 C1592 1.349 . S
C1581 C1579 1.327 . S
C1581 C1597 1.429 . S
C1581 H1603 0.950 . S
C1582 H1578 0.949 . S
C1582 C1590 1.574 . S
C1582 C1598 1.368 . S
H1583 C1591 0.950 . S
H1584 C1589 0.950 . S
H1585 C1590 0.949 . S
H1586 C1592 0.950 . S
H1587 C1593 0.950 . S
H1588 C1594 0.949 . S
C1589 H1584 0.950 . S
C1589 C1591 1.327 . S
C1589 C1595 1.429 . S
C1590 C1582 1.574 . S
C1590 H1585 0.949 . S
C1590 C1596 1.368 . S
C1591 C1575 1.349 . S
C1591 H1583 0.950 . S
C1591 C1589 1.327 . S
C1592 C1580 1.349 . S
C1592 H1586 0.950 . S
C1592 C1593 1.327 . S
C1593 H1587 0.950 . S
C1593 C1592 1.327 . S
C1593 C1597 1.429 . S
C1594 C1577 1.574 . S
C1594 H1588 0.949 . S
C1594 C1598 1.368 . S
C1595 C1576 1.429 . S
C1595 C1589 1.429 . S
C1595 C1596 1.523 . S
C1596 C1577 1.368 . S
C1596 C1590 1.368 . S
C1596 C1595 1.523 . S
C1597 C1581 1.429 . S
C1597 C1593 1.429 . S
C1597 C1598 1.523 . S
C1598 C1582 1.368 . S
C1598 C1594 1.368 . S
C1598 C1597 1.523 . S
H1599 C1574 0.950 . S
H1600 C1576 0.950 . S
H1601 C1577 0.949 . S
H1602 C1579 0.950 . S
H1603 C1581 0.950 . S
C1604 C1605 1.349 . S
C1604 C1606 1.327 . S
C1604 H1629 0.950 . S
C1605 C1604 1.349 . S
C1605 C1621 1.349 . S
C1606 C1604 1.327 . S
C1606 C1625 1.429 . S
C1606 H1630 0.950 . S
C1607 C1624 1.574 . S
C1607 C1626 1.368 . S
C1607 H1631 0.949 . S
H1608 C1612 0.949 . S
C1609 C1610 1.349 . S
C1609 C1611 1.327 . S
C1609 H1632 0.950 . S
C1610 C1609 1.349 . S
C1610 C1622 1.349 . S
C1611 C1609 1.327 . S
C1611 C1627 1.429 . S
C1611 H1633 0.950 . S
C1612 H1608 0.949 . S
C1612 C1620 1.574 . S
C1612 C1628 1.368 . S
H1613 C1621 0.950 . S
H1614 C1619 0.950 . S
H1615 C1620 0.949 . S
H1616 C1622 0.950 . S
H1617 C1623 0.950 . S
H1618 C1624 0.949 . S
C1619 H1614 0.950 . S
C1619 C1621 1.327 . S
C1619 C1625 1.429 . S
C1620 C1612 1.574 . S
C1620 H1615 0.949 . S
C1620 C1626 1.368 . S
C1621 C1605 1.349 . S
C1621 H1613 0.950 . S
C1621 C1619 1.327 . S
C1622 C1610 1.349 . S
C1622 H1616 0.950 . S
C1622 C1623 1.327 . S
C1623 H1617 0.950 . S
C1623 C1622 1.327 . S
C1623 C1627 1.429 . S
C1624 C1607 1.574 . S
C1624 H1618 0.949 . S
C1624 C1628 1.368 . S
C1625 C1606 1.429 . S
C1625 C1619 1.429 . S
C1625 C1626 1.523 . S
C1626 C1607 1.368 . S
C1626 C1620 1.368 . S
C1626 C1625 1.523 . S
C1627 C1611 1.429 . S
C1627 C1623 1.429 . S
C1627 C1628 1.523 . S
C1628 C1612 1.368 . S
C1628 C1624 1.368 . S
C1628 C1627 1.523 . S
H1629 C1604 0.950 . S
H1630 C1606 0.950 . S
H1631 C1607 0.949 . S
H1632 C1609 0.950 . S
H1633 C1611 0.950 . S
C1634 C1635 1.349 . S
C1634 C1636 1.327 . S
C1634 H1659 0.950 . S
C1635 C1634 1.349 . S
C1635 C1651 1.349 . S
C1636 C1634 1.327 . S
C1636 C1655 1.429 . S
C1636 H1660 0.950 . S
C1637 C1654 1.574 . S
C1637 C1656 1.368 . S
C1637 H1661 0.949 . S
H1638 C1642 0.949 . S
C1639 C1640 1.349 . S
C1639 C1641 1.327 . S
C1639 H1662 0.950 . S
C1640 C1639 1.349 . S
C1640 C1652 1.349 . S
C1641 C1639 1.327 . S
C1641 C1657 1.429 . S
C1641 H1663 0.950 . S
C1642 H1638 0.949 . S
C1642 C1650 1.574 . S
C1642 C1658 1.368 . S
H1643 C1651 0.950 . S
H1644 C1649 0.950 . S
H1645 C1650 0.949 . S
H1646 C1652 0.950 . S
H1647 C1653 0.950 . S
H1648 C1654 0.949 . S
C1649 H1644 0.950 . S
C1649 C1651 1.327 . S
C1649 C1655 1.429 . S
C1650 C1642 1.574 . S
C1650 H1645 0.949 . S
C1650 C1656 1.368 . S
C1651 C1635 1.349 . S
C1651 H1643 0.950 . S
C1651 C1649 1.327 . S
C1652 C1640 1.349 . S
C1652 H1646 0.950 . S
C1652 C1653 1.327 . S
C1653 H1647 0.950 . S
C1653 C1652 1.327 . S
C1653 C1657 1.429 . S
C1654 C1637 1.574 . S
C1654 H1648 0.949 . S
C1654 C1658 1.368 . S
C1655 C1636 1.429 . S
C1655 C1649 1.429 . S
C1655 C1656 1.523 . S
C1656 C1637 1.368 . S
C1656 C1650 1.368 . S
C1656 C1655 1.523 . S
C1657 C1641 1.429 . S
C1657 C1653 1.429 . S
C1657 C1658 1.523 . S
C1658 C1642 1.368 . S
C1658 C1654 1.368 . S
C1658 C1657 1.523 . S
H1659 C1634 0.950 . S
H1660 C1636 0.950 . S
H1661 C1637 0.949 . S
H1662 C1639 0.950 . S
H1663 C1641 0.950 . S
C1664 C1665 1.349 . S
C1664 C1666 1.327 . S
C1664 H1689 0.950 . S
C1665 C1664 1.349 . S
C1665 C1681 1.349 1_554 S
C1666 C1664 1.327 . S
C1666 C1685 1.429 . S
C1666 H1690 0.950 . S
C1667 C1684 1.574 . S
C1667 C1686 1.368 1_556 S
C1667 H1691 0.949 . S
H1668 C1672 0.949 . S
C1669 C1670 1.349 . S
C1669 C1671 1.327 . S
C1669 H1692 0.950 . S
C1670 C1669 1.349 . S
C1670 C1682 1.349 1_556 S
C1671 C1669 1.327 . S
C1671 C1687 1.429 . S
C1671 H1693 0.950 . S
C1672 H1668 0.949 . S
C1672 C1680 1.574 . S
C1672 C1688 1.368 1_554 S
H1673 C1681 0.950 . S
H1674 C1679 0.950 . S
H1675 C1680 0.949 . S
H1676 C1682 0.950 . S
H1677 C1683 0.950 . S
H1678 C1684 0.949 . S
C1679 H1674 0.950 . S
C1679 C1681 1.327 . S
C1679 C1685 1.429 1_556 S
C1680 C1672 1.574 . S
C1680 H1675 0.949 . S
C1680 C1686 1.368 1_545 S
C1681 C1665 1.349 1_556 S
C1681 H1673 0.950 . S
C1681 C1679 1.327 . S
C1682 C1670 1.349 1_554 S
C1682 H1676 0.950 . S
C1682 C1683 1.327 . S
C1683 H1677 0.950 . S
C1683 C1682 1.327 . S
C1683 C1687 1.429 1_554 S
C1684 C1667 1.574 . S
C1684 H1678 0.949 . S
C1684 C1688 1.368 1_565 S
C1685 C1666 1.429 . S
C1685 C1679 1.429 1_554 S
C1685 C1686 1.523 . S
C1686 C1667 1.368 1_554 S
C1686 C1680 1.368 1_565 S
C1686 C1685 1.523 . S
C1687 C1671 1.429 . S
C1687 C1683 1.429 1_556 S
C1687 C1688 1.523 . S
C1688 C1672 1.368 1_556 S
C1688 C1684 1.368 1_545 S
C1688 C1687 1.523 . S
H1689 C1664 0.950 . S
H1690 C1666 0.950 . S
H1691 C1667 0.949 . S
H1692 C1669 0.950 . S
H1693 C1671 0.950 . S
C1694 C1695 1.349 . S
C1694 C1696 1.327 . S
C1694 H1719 0.950 . S
C1695 C1694 1.349 . S
C1695 C1711 1.349 1_556 S
C1696 C1694 1.327 . S
C1696 C1715 1.429 . S
C1696 H1720 0.950 . S
C1697 C1714 1.574 . S
C1697 C1716 1.368 1_554 S
C1697 H1721 0.949 . S
H1698 C1702 0.949 . S
C1699 C1700 1.349 . S
C1699 C1701 1.327 . S
C1699 H1722 0.950 . S
C1700 C1699 1.349 . S
C1700 C1712 1.349 1_554 S
C1701 C1699 1.327 . S
C1701 C1717 1.429 . S
C1701 H1723 0.950 . S
C1702 H1698 0.949 . S
C1702 C1710 1.574 . S
C1702 C1718 1.368 1_556 S
H1703 C1711 0.950 . S
H1704 C1709 0.950 . S
H1705 C1710 0.949 . S
H1706 C1712 0.950 . S
H1707 C1713 0.950 . S
H1708 C1714 0.949 . S
C1709 H1704 0.950 . S
C1709 C1711 1.327 . S
C1709 C1715 1.429 1_554 S
C1710 C1702 1.574 . S
C1710 H1705 0.949 . S
C1710 C1716 1.368 . S
C1711 C1695 1.349 1_554 S
C1711 H1703 0.950 . S
C1711 C1709 1.327 . S
C1712 C1700 1.349 1_556 S
C1712 H1706 0.950 . S
C1712 C1713 1.327 . S
C1713 H1707 0.950 . S
C1713 C1712 1.327 . S
C1713 C1717 1.429 1_556 S
C1714 C1697 1.574 . S
C1714 H1708 0.949 . S
C1714 C1718 1.368 . S
C1715 C1696 1.429 . S
C1715 C1709 1.429 1_556 S
C1715 C1716 1.523 . S
C1716 C1697 1.368 1_556 S
C1716 C1710 1.368 . S
C1716 C1715 1.523 . S
C1717 C1701 1.429 . S
C1717 C1713 1.429 1_554 S
C1717 C1718 1.523 . S
C1718 C1702 1.368 1_554 S
C1718 C1714 1.368 . S
C1718 C1717 1.523 . S
H1719 C1694 0.950 . S
H1720 C1696 0.950 . S
H1721 C1697 0.949 . S
H1722 C1699 0.950 . S
H1723 C1701 0.950 . S
C1724 C1725 1.349 . S
C1724 C1726 1.327 . S
C1724 H1749 0.950 . S
C1725 C1724 1.349 . S
C1725 C1741 1.349 . S
C1726 C1724 1.327 . S
C1726 C1745 1.429 . S
C1726 H1750 0.950 . S
C1727 C1744 1.574 . S
C1727 C1746 1.368 . S
C1727 H1751 0.949 . S
H1728 C1732 0.949 . S
C1729 C1730 1.349 . S
C1729 C1731 1.327 . S
C1729 H1752 0.950 . S
C1730 C1729 1.349 . S
C1730 C1742 1.349 . S
C1731 C1729 1.327 . S
C1731 C1747 1.429 . S
C1731 H1753 0.950 . S
C1732 H1728 0.949 . S
C1732 C1740 1.574 . S
C1732 C1748 1.368 . S
H1733 C1741 0.950 . S
H1734 C1739 0.950 . S
H1735 C1740 0.949 . S
H1736 C1742 0.950 . S
H1737 C1743 0.950 . S
H1738 C1744 0.949 . S
C1739 H1734 0.950 . S
C1739 C1741 1.327 . S
C1739 C1745 1.429 . S
C1740 C1732 1.574 . S
C1740 H1735 0.949 . S
C1740 C1746 1.368 . S
C1741 C1725 1.349 . S
C1741 H1733 0.950 . S
C1741 C1739 1.327 . S
C1742 C1730 1.349 . S
C1742 H1736 0.950 . S
C1742 C1743 1.327 . S
C1743 H1737 0.950 . S
C1743 C1742 1.327 . S
C1743 C1747 1.429 . S
C1744 C1727 1.574 . S
C1744 H1738 0.949 . S
C1744 C1748 1.368 . S
C1745 C1726 1.429 . S
C1745 C1739 1.429 . S
C1745 C1746 1.523 . S
C1746 C1727 1.368 . S
C1746 C1740 1.368 . S
C1746 C1745 1.523 . S
C1747 C1731 1.429 . S
C1747 C1743 1.429 . S
C1747 C1748 1.523 . S
C1748 C1732 1.368 . S
C1748 C1744 1.368 . S
C1748 C1747 1.523 . S
H1749 C1724 0.950 . S
H1750 C1726 0.950 . S
H1751 C1727 0.949 . S
H1752 C1729 0.950 . S
H1753 C1731 0.950 . S
C1754 C1755 1.349 . S
C1754 C1756 1.327 . S
C1754 H1779 0.950 . S
C1755 C1754 1.349 . S
C1755 C1771 1.349 . S
C1756 C1754 1.327 . S
C1756 C1775 1.429 . S
C1756 H1780 0.950 1_565 S
C1757 C1774 1.574 . S
C1757 C1776 1.368 . S
C1757 H1781 0.949 . S
H1758 C1762 0.949 . S
C1759 C1760 1.349 . S
C1759 C1761 1.327 . S
C1759 H1782 0.950 . S
C1760 C1759 1.349 . S
C1760 C1772 1.349 . S
C1761 C1759 1.327 . S
C1761 C1777 1.429 . S
C1761 H1783 0.950 1_545 S
C1762 H1758 0.949 . S
C1762 C1770 1.574 . S
C1762 C1778 1.368 . S
H1763 C1771 0.950 . S
H1764 C1769 0.950 . S
H1765 C1770 0.949 . S
H1766 C1772 0.950 . S
H1767 C1773 0.950 . S
H1768 C1774 0.949 . S
C1769 H1764 0.950 . S
C1769 C1771 1.327 . S
C1769 C1775 1.429 . S
C1770 C1762 1.574 . S
C1770 H1765 0.949 . S
C1770 C1776 1.368 1_545 S
C1771 C1755 1.349 . S
C1771 H1763 0.950 . S
C1771 C1769 1.327 . S
C1772 C1760 1.349 . S
C1772 H1766 0.950 . S
C1772 C1773 1.327 . S
C1773 H1767 0.950 . S
C1773 C1772 1.327 . S
C1773 C1777 1.429 . S
C1774 C1757 1.574 . S
C1774 H1768 0.949 . S
C1774 C1778 1.368 1_565 S
C1775 C1756 1.429 . S
C1775 C1769 1.429 . S
C1775 C1776 1.523 . S
C1776 C1757 1.368 . S
C1776 C1770 1.368 1_565 S
C1776 C1775 1.523 . S
C1777 C1761 1.429 . S
C1777 C1773 1.429 . S
C1777 C1778 1.523 . S
C1778 C1762 1.368 . S
C1778 C1774 1.368 1_545 S
C1778 C1777 1.523 . S
H1779 C1754 0.950 . S
H1780 C1756 0.950 1_545 S
H1781 C1757 0.949 . S
H1782 C1759 0.950 . S
H1783 C1761 0.950 1_565 S
C1784 C1785 1.349 1_556 S
C1784 C1786 1.327 . S
C1784 H1809 0.950 . S
C1785 C1784 1.349 1_554 S
C1785 C1801 1.349 . S
C1786 C1784 1.327 . S
C1786 C1805 1.429 1_556 S
C1786 H1810 0.950 . S
C1787 C1804 1.574 . S
C1787 C1806 1.368 . S
C1787 H1811 0.949 . S
H1788 C1792 0.949 . S
C1789 C1790 1.349 1_554 S
C1789 C1791 1.327 . S
C1789 H1812 0.950 . S
C1790 C1789 1.349 1_556 S
C1790 C1802 1.349 . S
C1791 C1789 1.327 . S
C1791 C1807 1.429 1_554 S
C1791 H1813 0.950 . S
C1792 H1788 0.949 . S
C1792 C1800 1.574 . S
C1792 C1808 1.368 . S
H1793 C1801 0.950 . S
H1794 C1799 0.950 . S
H1795 C1800 0.949 . S
H1796 C1802 0.950 . S
H1797 C1803 0.950 . S
H1798 C1804 0.949 . S
C1799 H1794 0.950 . S
C1799 C1801 1.327 . S
C1799 C1805 1.429 . S
C1800 C1792 1.574 . S
C1800 H1795 0.949 . S
C1800 C1806 1.368 1_556 S
C1801 C1785 1.349 . S
C1801 H1793 0.950 . S
C1801 C1799 1.327 . S
C1802 C1790 1.349 . S
C1802 H1796 0.950 . S
C1802 C1803 1.327 . S
C1803 H1797 0.950 . S
C1803 C1802 1.327 . S
C1803 C1807 1.429 . S
C1804 C1787 1.574 . S
C1804 H1798 0.949 . S
C1804 C1808 1.368 1_554 S
C1805 C1786 1.429 1_554 S
C1805 C1799 1.429 . S
C1805 C1806 1.523 . S
C1806 C1787 1.368 . S
C1806 C1800 1.368 1_554 S
C1806 C1805 1.523 . S
C1807 C1791 1.429 1_556 S
C1807 C1803 1.429 . S
C1807 C1808 1.523 . S
C1808 C1792 1.368 . S
C1808 C1804 1.368 1_556 S
C1808 C1807 1.523 . S
H1809 C1784 0.950 . S
H1810 C1786 0.950 . S
H1811 C1787 0.949 . S
H1812 C1789 0.950 . S
H1813 C1791 0.950 . S
C1814 C1815 1.349 . S
C1814 C1816 1.327 . S
C1814 H1839 0.950 . S
C1815 C1814 1.349 . S
C1815 C1831 1.349 . S
C1816 C1814 1.327 . S
C1816 C1835 1.429 . S
C1816 H1840 0.950 . S
C1817 C1834 1.574 . S
C1817 C1836 1.368 . S
C1817 H1841 0.949 . S
H1818 C1822 0.949 . S
C1819 C1820 1.349 . S
C1819 C1821 1.327 . S
C1819 H1842 0.950 . S
C1820 C1819 1.349 . S
C1820 C1832 1.349 . S
C1821 C1819 1.327 . S
C1821 C1837 1.429 . S
C1821 H1843 0.950 . S
C1822 H1818 0.949 . S
C1822 C1830 1.574 . S
C1822 C1838 1.368 . S
H1823 C1831 0.950 . S
H1824 C1829 0.950 . S
H1825 C1830 0.949 . S
H1826 C1832 0.950 . S
H1827 C1833 0.950 . S
H1828 C1834 0.949 . S
C1829 H1824 0.950 . S
C1829 C1831 1.327 . S
C1829 C1835 1.429 . S
C1830 C1822 1.574 . S
C1830 H1825 0.949 . S
C1830 C1836 1.368 . S
C1831 C1815 1.349 . S
C1831 H1823 0.950 . S
C1831 C1829 1.327 . S
C1832 C1820 1.349 . S
C1832 H1826 0.950 . S
C1832 C1833 1.327 . S
C1833 H1827 0.950 . S
C1833 C1832 1.327 . S
C1833 C1837 1.429 . S
C1834 C1817 1.574 . S
C1834 H1828 0.949 . S
C1834 C1838 1.368 . S
C1835 C1816 1.429 . S
C1835 C1829 1.429 . S
C1835 C1836 1.523 . S
C1836 C1817 1.368 . S
C1836 C1830 1.368 . S
C1836 C1835 1.523 . S
C1837 C1821 1.429 . S
C1837 C1833 1.429 . S
C1837 C1838 1.523 . S
C1838 C1822 1.368 . S
C1838 C1834 1.368 . S
C1838 C1837 1.523 . S
H1839 C1814 0.950 . S
H1840 C1816 0.950 . S
H1841 C1817 0.949 . S
H1842 C1819 0.950 . S
H1843 C1821 0.950 . S
C1844 C1845 1.349 . S
C1844 C1846 1.327 . S
C1844 H1869 0.950 . S
C1845 C1844 1.349 . S
C1845 C1861 1.349 . S
C1846 C1844 1.327 . S
C1846 C1865 1.429 . S
C1846 H1870 0.950 . S
C1847 C1864 1.574 1_545 S
C1847 C1866 1.368 . S
C1847 H1871 0.949 . S
H1848 C1852 0.949 . S
C1849 C1850 1.349 . S
C1849 C1851 1.327 . S
C1849 H1872 0.950 . S
C1850 C1849 1.349 . S
C1850 C1862 1.349 . S
C1851 C1849 1.327 . S
C1851 C1867 1.429 . S
C1851 H1873 0.950 . S
C1852 H1848 0.949 . S
C1852 C1860 1.574 1_565 S
C1852 C1868 1.368 . S
H1853 C1861 0.950 . S
H1854 C1859 0.950 . S
H1855 C1860 0.949 . S
H1856 C1862 0.950 . S
H1857 C1863 0.950 . S
H1858 C1864 0.949 . S
C1859 H1854 0.950 . S
C1859 C1861 1.327 . S
C1859 C1865 1.429 . S
C1860 C1852 1.574 1_545 S
C1860 H1855 0.949 . S
C1860 C1866 1.368 . S
C1861 C1845 1.349 . S
C1861 H1853 0.950 . S
C1861 C1859 1.327 . S
C1862 C1850 1.349 . S
C1862 H1856 0.950 . S
C1862 C1863 1.327 . S
C1863 H1857 0.950 . S
C1863 C1862 1.327 . S
C1863 C1867 1.429 . S
C1864 C1847 1.574 1_565 S
C1864 H1858 0.949 . S
C1864 C1868 1.368 . S
C1865 C1846 1.429 . S
C1865 C1859 1.429 . S
C1865 C1866 1.523 . S
C1866 C1847 1.368 . S
C1866 C1860 1.368 . S
C1866 C1865 1.523 . S
C1867 C1851 1.429 . S
C1867 C1863 1.429 . S
C1867 C1868 1.523 . S
C1868 C1852 1.368 . S
C1868 C1864 1.368 . S
C1868 C1867 1.523 . S
H1869 C1844 0.950 . S
H1870 C1846 0.950 . S
H1871 C1847 0.949 . S
H1872 C1849 0.950 . S
H1873 C1851 0.950 . S
C1874 C1875 1.349 . S
C1874 C1876 1.327 . S
C1874 H1899 0.950 . S
C1875 C1874 1.349 . S
C1875 C1891 1.349 . S
C1876 C1874 1.327 . S
C1876 C1895 1.429 . S
C1876 H1900 0.950 . S
C1877 C1894 1.574 . S
C1877 C1896 1.368 . S
C1877 H1901 0.949 . S
H1878 C1882 0.949 . S
C1879 C1880 1.349 . S
C1879 C1881 1.327 . S
C1879 H1902 0.950 . S
C1880 C1879 1.349 . S
C1880 C1892 1.349 . S
C1881 C1879 1.327 . S
C1881 C1897 1.429 . S
C1881 H1903 0.950 . S
C1882 H1878 0.949 . S
C1882 C1890 1.574 . S
C1882 C1898 1.368 . S
H1883 C1891 0.950 . S
H1884 C1889 0.950 . S
H1885 C1890 0.949 . S
H1886 C1892 0.950 . S
H1887 C1893 0.950 . S
H1888 C1894 0.949 . S
C1889 H1884 0.950 . S
C1889 C1891 1.327 . S
C1889 C1895 1.429 . S
C1890 C1882 1.574 . S
C1890 H1885 0.949 . S
C1890 C1896 1.368 . S
C1891 C1875 1.349 . S
C1891 H1883 0.950 . S
C1891 C1889 1.327 . S
C1892 C1880 1.349 . S
C1892 H1886 0.950 . S
C1892 C1893 1.327 . S
C1893 H1887 0.950 . S
C1893 C1892 1.327 . S
C1893 C1897 1.429 . S
C1894 C1877 1.574 . S
C1894 H1888 0.949 . S
C1894 C1898 1.368 . S
C1895 C1876 1.429 . S
C1895 C1889 1.429 . S
C1895 C1896 1.523 . S
C1896 C1877 1.368 . S
C1896 C1890 1.368 . S
C1896 C1895 1.523 . S
C1897 C1881 1.429 . S
C1897 C1893 1.429 . S
C1897 C1898 1.523 . S
C1898 C1882 1.368 . S
C1898 C1894 1.368 . S
C1898 C1897 1.523 . S
H1899 C1874 0.950 . S
H1900 C1876 0.950 . S
H1901 C1877 0.949 . S
H1902 C1879 0.950 . S
H1903 C1881 0.950 . S
C1904 C1905 1.349 . S
C1904 C1906 1.327 . S
C1904 H1929 0.950 . S
C1905 C1904 1.349 . S
C1905 C1921 1.349 . S
C1906 C1904 1.327 . S
C1906 C1925 1.429 . S
C1906 H1930 0.950 . S
C1907 C1924 1.574 . S
C1907 C1926 1.368 . S
C1907 H1931 0.949 . S
H1908 C1912 0.949 . S
C1909 C1910 1.349 . S
C1909 C1911 1.327 . S
C1909 H1932 0.950 . S
C1910 C1909 1.349 . S
C1910 C1922 1.349 . S
C1911 C1909 1.327 . S
C1911 C1927 1.429 . S
C1911 H1933 0.950 . S
C1912 H1908 0.949 . S
C1912 C1920 1.574 . S
C1912 C1928 1.368 . S
H1913 C1921 0.950 . S
H1914 C1919 0.950 . S
H1915 C1920 0.949 . S
H1916 C1922 0.950 . S
H1917 C1923 0.950 . S
H1918 C1924 0.949 . S
C1919 H1914 0.950 . S
C1919 C1921 1.327 . S
C1919 C1925 1.429 . S
C1920 C1912 1.574 . S
C1920 H1915 0.949 . S
C1920 C1926 1.368 . S
C1921 C1905 1.349 . S
C1921 H1913 0.950 . S
C1921 C1919 1.327 . S
C1922 C1910 1.349 . S
C1922 H1916 0.950 . S
C1922 C1923 1.327 . S
C1923 H1917 0.950 . S
C1923 C1922 1.327 . S
C1923 C1927 1.429 . S
C1924 C1907 1.574 . S
C1924 H1918 0.949 . S
C1924 C1928 1.368 . S
C1925 C1906 1.429 . S
C1925 C1919 1.429 . S
C1925 C1926 1.523 . S
C1926 C1907 1.368 . S
C1926 C1920 1.368 . S
C1926 C1925 1.523 . S
C1927 C1911 1.429 . S
C1927 C1923 1.429 . S
C1927 C1928 1.523 . S
C1928 C1912 1.368 . S
C1928 C1924 1.368 . S
C1928 C1927 1.523 . S
H1929 C1904 0.950 . S
H1930 C1906 0.950 . S
H1931 C1907 0.949 . S
H1932 C1909 0.950 . S
H1933 C1911 0.950 . S
C1934 C1935 1.349 . S
C1934 C1936 1.327 . S
C1934 H1959 0.950 . S
C1935 C1934 1.349 . S
C1935 C1951 1.349 . S
C1936 C1934 1.327 . S
C1936 C1955 1.429 . S
C1936 H1960 0.950 . S
C1937 C1954 1.574 . S
C1937 C1956 1.368 . S
C1937 H1961 0.949 . S
H1938 C1942 0.949 . S
C1939 C1940 1.349 . S
C1939 C1941 1.327 . S
C1939 H1962 0.950 . S
C1940 C1939 1.349 . S
C1940 C1952 1.349 . S
C1941 C1939 1.327 . S
C1941 C1957 1.429 . S
C1941 H1963 0.950 . S
C1942 H1938 0.949 . S
C1942 C1950 1.574 . S
C1942 C1958 1.368 . S
H1943 C1951 0.950 . S
H1944 C1949 0.950 . S
H1945 C1950 0.949 . S
H1946 C1952 0.950 . S
H1947 C1953 0.950 . S
H1948 C1954 0.949 . S
C1949 H1944 0.950 . S
C1949 C1951 1.327 . S
C1949 C1955 1.429 . S
C1950 C1942 1.574 . S
C1950 H1945 0.949 . S
C1950 C1956 1.368 . S
C1951 C1935 1.349 . S
C1951 H1943 0.950 . S
C1951 C1949 1.327 . S
C1952 C1940 1.349 . S
C1952 H1946 0.950 . S
C1952 C1953 1.327 . S
C1953 H1947 0.950 . S
C1953 C1952 1.327 . S
C1953 C1957 1.429 . S
C1954 C1937 1.574 . S
C1954 H1948 0.949 . S
C1954 C1958 1.368 . S
C1955 C1936 1.429 . S
C1955 C1949 1.429 . S
C1955 C1956 1.523 . S
C1956 C1937 1.368 . S
C1956 C1950 1.368 . S
C1956 C1955 1.523 . S
C1957 C1941 1.429 . S
C1957 C1953 1.429 . S
C1957 C1958 1.523 . S
C1958 C1942 1.368 . S
C1958 C1954 1.368 . S
C1958 C1957 1.523 . S
H1959 C1934 0.950 . S
H1960 C1936 0.950 . S
H1961 C1937 0.949 . S
H1962 C1939 0.950 . S
H1963 C1941 0.950 . S
C1964 C1965 1.349 . S
C1964 C1966 1.327 . S
C1964 H1989 0.950 . S
C1965 C1964 1.349 . S
C1965 C1981 1.349 . S
C1966 C1964 1.327 . S
C1966 C1985 1.429 . S
C1966 H1990 0.950 . S
C1967 C1984 1.574 . S
C1967 C1986 1.368 . S
C1967 H1991 0.949 . S
H1968 C1972 0.949 . S
C1969 C1970 1.349 . S
C1969 C1971 1.327 . S
C1969 H1992 0.950 . S
C1970 C1969 1.349 . S
C1970 C1982 1.349 . S
C1971 C1969 1.327 . S
C1971 C1987 1.429 . S
C1971 H1993 0.950 . S
C1972 H1968 0.949 . S
C1972 C1980 1.574 . S
C1972 C1988 1.368 . S
H1973 C1981 0.950 . S
H1974 C1979 0.950 . S
H1975 C1980 0.949 . S
H1976 C1982 0.950 . S
H1977 C1983 0.950 . S
H1978 C1984 0.949 . S
C1979 H1974 0.950 . S
C1979 C1981 1.327 . S
C1979 C1985 1.429 . S
C1980 C1972 1.574 . S
C1980 H1975 0.949 . S
C1980 C1986 1.368 . S
C1981 C1965 1.349 . S
C1981 H1973 0.950 . S
C1981 C1979 1.327 . S
C1982 C1970 1.349 . S
C1982 H1976 0.950 . S
C1982 C1983 1.327 . S
C1983 H1977 0.950 . S
C1983 C1982 1.327 . S
C1983 C1987 1.429 . S
C1984 C1967 1.574 . S
C1984 H1978 0.949 . S
C1984 C1988 1.368 . S
C1985 C1966 1.429 . S
C1985 C1979 1.429 . S
C1985 C1986 1.523 . S
C1986 C1967 1.368 . S
C1986 C1980 1.368 . S
C1986 C1985 1.523 . S
C1987 C1971 1.429 . S
C1987 C1983 1.429 . S
C1987 C1988 1.523 . S
C1988 C1972 1.368 . S
C1988 C1984 1.368 . S
C1988 C1987 1.523 . S
H1989 C1964 0.950 . S
H1990 C1966 0.950 . S
H1991 C1967 0.949 . S
H1992 C1969 0.950 . S
H1993 C1971 0.950 . S
C1994 C1995 1.349 . S
C1994 C1996 1.327 . S
C1994 H2019 0.950 . S
C1995 C1994 1.349 . S
C1995 C2011 1.349 . S
C1996 C1994 1.327 . S
C1996 C2015 1.429 . S
C1996 H2020 0.950 . S
C1997 C2014 1.574 . S
C1997 C2016 1.368 . S
C1997 H2021 0.949 . S
H1998 C2002 0.949 . S
C1999 C2000 1.349 . S
C1999 C2001 1.327 . S
C1999 H2022 0.950 . S
C2000 C1999 1.349 . S
C2000 C2012 1.349 . S
C2001 C1999 1.327 . S
C2001 C2017 1.429 . S
C2001 H2023 0.950 . S
C2002 H1998 0.949 . S
C2002 C2010 1.574 . S
C2002 C2018 1.368 . S
H2003 C2011 0.950 . S
H2004 C2009 0.950 . S
H2005 C2010 0.949 . S
H2006 C2012 0.950 . S
H2007 C2013 0.950 . S
H2008 C2014 0.949 . S
C2009 H2004 0.950 . S
C2009 C2011 1.327 . S
C2009 C2015 1.429 . S
C2010 C2002 1.574 . S
C2010 H2005 0.949 . S
C2010 C2016 1.368 . S
C2011 C1995 1.349 . S
C2011 H2003 0.950 . S
C2011 C2009 1.327 . S
C2012 C2000 1.349 . S
C2012 H2006 0.950 . S
C2012 C2013 1.327 . S
C2013 H2007 0.950 . S
C2013 C2012 1.327 . S
C2013 C2017 1.429 . S
C2014 C1997 1.574 . S
C2014 H2008 0.949 . S
C2014 C2018 1.368 . S
C2015 C1996 1.429 . S
C2015 C2009 1.429 . S
C2015 C2016 1.523 . S
C2016 C1997 1.368 . S
C2016 C2010 1.368 . S
C2016 C2015 1.523 . S
C2017 C2001 1.429 . S
C2017 C2013 1.429 . S
C2017 C2018 1.523 . S
C2018 C2002 1.368 . S
C2018 C2014 1.368 . S
C2018 C2017 1.523 . S
H2019 C1994 0.950 . S
H2020 C1996 0.950 . S
H2021 C1997 0.949 . S
H2022 C1999 0.950 . S
H2023 C2001 0.950 . S
C2024 C2025 1.349 . S
C2024 C2026 1.327 . S
C2024 H2049 0.950 . S
C2025 C2024 1.349 . S
C2025 C2041 1.349 . S
C2026 C2024 1.327 . S
C2026 C2045 1.429 . S
C2026 H2050 0.950 . S
C2027 C2044 1.574 1_455 S
C2027 C2046 1.368 1_545 S
C2027 H2051 0.949 . S
H2028 C2032 0.949 . S
C2029 C2030 1.349 . S
C2029 C2031 1.327 . S
C2029 H2052 0.950 . S
C2030 C2029 1.349 . S
C2030 C2042 1.349 . S
C2031 C2029 1.327 . S
C2031 C2047 1.429 . S
C2031 H2053 0.950 . S
C2032 H2028 0.949 . S
C2032 C2040 1.574 1_655 S
C2032 C2048 1.368 1_565 S
H2033 C2041 0.950 . S
H2034 C2039 0.950 . S
H2035 C2040 0.949 . S
H2036 C2042 0.950 . S
H2037 C2043 0.950 . S
H2038 C2044 0.949 . S
C2039 H2034 0.950 . S
C2039 C2041 1.327 . S
C2039 C2045 1.429 . S
C2040 C2032 1.574 1_455 S
C2040 H2035 0.949 . S
C2040 C2046 1.368 . S
C2041 C2025 1.349 . S
C2041 H2033 0.950 . S
C2041 C2039 1.327 . S
C2042 C2030 1.349 . S
C2042 H2036 0.950 . S
C2042 C2043 1.327 . S
C2043 H2037 0.950 . S
C2043 C2042 1.327 . S
C2043 C2047 1.429 . S
C2044 C2027 1.574 1_655 S
C2044 H2038 0.949 . S
C2044 C2048 1.368 . S
C2045 C2026 1.429 . S
C2045 C2039 1.429 . S
C2045 C2046 1.523 . S
C2046 C2027 1.368 1_565 S
C2046 C2040 1.368 . S
C2046 C2045 1.523 . S
C2047 C2031 1.429 . S
C2047 C2043 1.429 . S
C2047 C2048 1.523 . S
C2048 C2032 1.368 1_545 S
C2048 C2044 1.368 . S
C2048 C2047 1.523 . S
H2049 C2024 0.950 . S
H2050 C2026 0.950 . S
H2051 C2027 0.949 . S
H2052 C2029 0.950 . S
H2053 C2031 0.950 . S
C2054 C2055 1.349 . S
C2054 C2056 1.327 . S
C2054 H2079 0.950 . S
C2055 C2054 1.349 . S
C2055 C2071 1.349 . S
C2056 C2054 1.327 . S
C2056 C2075 1.429 . S
C2056 H2080 0.950 . S
C2057 C2074 1.574 1_455 S
C2057 C2076 1.368 . S
C2057 H2081 0.949 . S
H2058 C2062 0.949 . S
C2059 C2060 1.349 . S
C2059 C2061 1.327 . S
C2059 H2082 0.950 . S
C2060 C2059 1.349 . S
C2060 C2072 1.349 . S
C2061 C2059 1.327 . S
C2061 C2077 1.429 . S
C2061 H2083 0.950 . S
C2062 H2058 0.949 . S
C2062 C2070 1.574 1_655 S
C2062 C2078 1.368 . S
H2063 C2071 0.950 . S
H2064 C2069 0.950 . S
H2065 C2070 0.949 . S
H2066 C2072 0.950 . S
H2067 C2073 0.950 . S
H2068 C2074 0.949 . S
C2069 H2064 0.950 . S
C2069 C2071 1.327 . S
C2069 C2075 1.429 . S
C2070 C2062 1.574 1_455 S
C2070 H2065 0.949 . S
C2070 C2076 1.368 . S
C2071 C2055 1.349 . S
C2071 H2063 0.950 . S
C2071 C2069 1.327 . S
C2072 C2060 1.349 . S
C2072 H2066 0.950 . S
C2072 C2073 1.327 . S
C2073 H2067 0.950 . S
C2073 C2072 1.327 . S
C2073 C2077 1.429 . S
C2074 C2057 1.574 1_655 S
C2074 H2068 0.949 . S
C2074 C2078 1.368 . S
C2075 C2056 1.429 . S
C2075 C2069 1.429 . S
C2075 C2076 1.523 . S
C2076 C2057 1.368 . S
C2076 C2070 1.368 . S
C2076 C2075 1.523 . S
C2077 C2061 1.429 . S
C2077 C2073 1.429 . S
C2077 C2078 1.523 . S
C2078 C2062 1.368 . S
C2078 C2074 1.368 . S
C2078 C2077 1.523 . S
H2079 C2054 0.950 . S
H2080 C2056 0.950 . S
H2081 C2057 0.949 . S
H2082 C2059 0.950 . S
H2083 C2061 0.950 . S
C2084 C2085 1.349 . S
C2084 C2086 1.327 . S
C2084 H2109 0.950 . S
C2085 C2084 1.349 . S
C2085 C2101 1.349 . S
C2086 C2084 1.327 . S
C2086 C2105 1.429 . S
C2086 H2110 0.950 . S
C2087 C2104 1.574 1_655 S
C2087 C2106 1.368 . S
C2087 H2111 0.949 . S
H2088 C2092 0.949 . S
C2089 C2090 1.349 . S
C2089 C2091 1.327 . S
C2089 H2112 0.950 . S
C2090 C2089 1.349 . S
C2090 C2102 1.349 . S
C2091 C2089 1.327 . S
C2091 C2107 1.429 . S
C2091 H2113 0.950 . S
C2092 H2088 0.949 . S
C2092 C2100 1.574 1_455 S
C2092 C2108 1.368 . S
H2093 C2101 0.950 . S
H2094 C2099 0.950 . S
H2095 C2100 0.949 . S
H2096 C2102 0.950 . S
H2097 C2103 0.950 . S
H2098 C2104 0.949 . S
C2099 H2094 0.950 . S
C2099 C2101 1.327 . S
C2099 C2105 1.429 . S
C2100 C2092 1.574 1_655 S
C2100 H2095 0.949 . S
C2100 C2106 1.368 . S
C2101 C2085 1.349 . S
C2101 H2093 0.950 . S
C2101 C2099 1.327 . S
C2102 C2090 1.349 . S
C2102 H2096 0.950 . S
C2102 C2103 1.327 . S
C2103 H2097 0.950 . S
C2103 C2102 1.327 . S
C2103 C2107 1.429 . S
C2104 C2087 1.574 1_455 S
C2104 H2098 0.949 . S
C2104 C2108 1.368 . S
C2105 C2086 1.429 . S
C2105 C2099 1.429 . S
C2105 C2106 1.523 . S
C2106 C2087 1.368 . S
C2106 C2100 1.368 . S
C2106 C2105 1.523 . S
C2107 C2091 1.429 . S
C2107 C2103 1.429 . S
C2107 C2108 1.523 . S
C2108 C2092 1.368 . S
C2108 C2104 1.368 . S
C2108 C2107 1.523 . S
H2109 C2084 0.950 . S
H2110 C2086 0.950 . S
H2111 C2087 0.949 . S
H2112 C2089 0.950 . S
H2113 C2091 0.950 . S
C2114 C2115 1.349 . S
C2114 C2116 1.327 . S
C2114 H2139 0.950 . S
C2115 C2114 1.349 . S
C2115 C2131 1.349 . S
C2116 C2114 1.327 . S
C2116 C2135 1.429 . S
C2116 H2140 0.950 . S
C2117 C2134 1.566 1_656 S
C2117 C2136 1.375 . S
C2117 H2141 0.955 . S
H2118 C2122 0.955 . S
C2119 C2120 1.349 . S
C2119 C2121 1.327 . S
C2119 H2142 0.950 . S
C2120 C2119 1.349 . S
C2120 C2132 1.349 . S
C2121 C2119 1.327 . S
C2121 C2137 1.429 . S
C2121 H2143 0.950 . S
C2122 H2118 0.955 . S
C2122 C2130 1.566 1_454 S
C2122 C2138 1.375 . S
H2123 C2131 0.950 . S
H2124 C2129 0.950 . S
H2125 C2130 0.949 . S
H2126 C2132 0.950 . S
H2127 C2133 0.950 . S
H2128 C2134 0.949 . S
C2129 H2124 0.950 . S
C2129 C2131 1.327 . S
C2129 C2135 1.429 . S
C2130 C2122 1.566 1_656 S
C2130 H2125 0.949 . S
C2130 C2136 1.368 . S
C2131 C2115 1.349 . S
C2131 H2123 0.950 . S
C2131 C2129 1.327 . S
C2132 C2120 1.349 . S
C2132 H2126 0.950 . S
C2132 C2133 1.327 . S
C2133 H2127 0.950 . S
C2133 C2132 1.327 . S
C2133 C2137 1.429 . S
C2134 C2117 1.566 1_454 S
C2134 H2128 0.949 . S
C2134 C2138 1.368 . S
C2135 C2116 1.429 . S
C2135 C2129 1.429 . S
C2135 C2136 1.523 . S
C2136 C2117 1.375 . S
C2136 C2130 1.368 . S
C2136 C2135 1.523 . S
C2137 C2121 1.429 . S
C2137 C2133 1.429 . S
C2137 C2138 1.523 . S
C2138 C2122 1.375 . S
C2138 C2134 1.368 . S
C2138 C2137 1.523 . S
H2139 C2114 0.950 . S
H2140 C2116 0.950 . S
H2141 C2117 0.955 . S
H2142 C2119 0.950 . S
H2143 C2121 0.950 . S
C2144 C2145 1.349 . S
C2144 C2146 1.327 . S
C2144 H2169 0.950 . S
C2145 C2144 1.349 . S
C2145 C2161 1.349 . S
C2146 C2144 1.327 . S
C2146 C2165 1.429 . S
C2146 H2170 0.950 . S
C2147 C2164 1.574 . S
C2147 C2166 1.368 . S
C2147 H2171 0.949 . S
H2148 C2152 0.949 . S
C2149 C2150 1.349 . S
C2149 C2151 1.327 . S
C2149 H2172 0.950 . S
C2150 C2149 1.349 . S
C2150 C2162 1.349 . S
C2151 C2149 1.327 . S
C2151 C2167 1.429 . S
C2151 H2173 0.950 . S
C2152 H2148 0.949 . S
C2152 C2160 1.574 . S
C2152 C2168 1.368 . S
H2153 C2161 0.950 . S
H2154 C2159 0.950 . S
H2155 C2160 0.949 . S
H2156 C2162 0.950 . S
H2157 C2163 0.950 . S
H2158 C2164 0.949 . S
C2159 H2154 0.950 . S
C2159 C2161 1.327 . S
C2159 C2165 1.429 . S
C2160 C2152 1.574 . S
C2160 H2155 0.949 . S
C2160 C2166 1.368 . S
C2161 C2145 1.349 . S
C2161 H2153 0.950 . S
C2161 C2159 1.327 . S
C2162 C2150 1.349 . S
C2162 H2156 0.950 . S
C2162 C2163 1.327 . S
C2163 H2157 0.950 . S
C2163 C2162 1.327 . S
C2163 C2167 1.429 . S
C2164 C2147 1.574 . S
C2164 H2158 0.949 . S
C2164 C2168 1.368 . S
C2165 C2146 1.429 . S
C2165 C2159 1.429 . S
C2165 C2166 1.523 . S
C2166 C2147 1.368 . S
C2166 C2160 1.368 . S
C2166 C2165 1.523 . S
C2167 C2151 1.429 . S
C2167 C2163 1.429 . S
C2167 C2168 1.523 . S
C2168 C2152 1.368 . S
C2168 C2164 1.368 . S
C2168 C2167 1.523 . S
H2169 C2144 0.950 . S
H2170 C2146 0.950 . S
H2171 C2147 0.949 . S
H2172 C2149 0.950 . S
H2173 C2151 0.950 . S
C2174 C2175 1.349 . S
C2174 C2176 1.327 . S
C2174 H2199 0.950 . S
C2175 C2174 1.349 . S
C2175 C2191 1.349 . S
C2176 C2174 1.327 . S
C2176 C2195 1.429 . S
C2176 H2200 0.950 . S
C2177 C2194 1.574 . S
C2177 C2196 1.368 . S
C2177 H2201 0.949 . S
H2178 C2182 0.949 . S
C2179 C2180 1.349 . S
C2179 C2181 1.327 . S
C2179 H2202 0.950 . S
C2180 C2179 1.349 . S
C2180 C2192 1.349 . S
C2181 C2179 1.327 . S
C2181 C2197 1.429 . S
C2181 H2203 0.950 . S
C2182 H2178 0.949 . S
C2182 C2190 1.574 . S
C2182 C2198 1.368 . S
H2183 C2191 0.950 . S
H2184 C2189 0.950 . S
H2185 C2190 0.949 . S
H2186 C2192 0.950 . S
H2187 C2193 0.950 . S
H2188 C2194 0.949 . S
C2189 H2184 0.950 . S
C2189 C2191 1.327 . S
C2189 C2195 1.429 . S
C2190 C2182 1.574 . S
C2190 H2185 0.949 . S
C2190 C2196 1.368 . S
C2191 C2175 1.349 . S
C2191 H2183 0.950 . S
C2191 C2189 1.327 . S
C2192 C2180 1.349 . S
C2192 H2186 0.950 . S
C2192 C2193 1.327 . S
C2193 H2187 0.950 . S
C2193 C2192 1.327 . S
C2193 C2197 1.429 . S
C2194 C2177 1.574 . S
C2194 H2188 0.949 . S
C2194 C2198 1.368 . S
C2195 C2176 1.429 . S
C2195 C2189 1.429 . S
C2195 C2196 1.523 . S
C2196 C2177 1.368 . S
C2196 C2190 1.368 . S
C2196 C2195 1.523 . S
C2197 C2181 1.429 . S
C2197 C2193 1.429 . S
C2197 C2198 1.523 . S
C2198 C2182 1.368 . S
C2198 C2194 1.368 . S
C2198 C2197 1.523 . S
H2199 C2174 0.950 . S
H2200 C2176 0.950 . S
H2201 C2177 0.949 . S
H2202 C2179 0.950 . S
H2203 C2181 0.950 . S
C2204 C2205 1.349 . S
C2204 C2206 1.327 . S
C2204 H2229 0.950 . S
C2205 C2204 1.349 . S
C2205 C2221 1.349 . S
C2206 C2204 1.327 . S
C2206 C2225 1.429 . S
C2206 H2230 0.950 . S
C2207 C2224 1.574 . S
C2207 C2226 1.368 . S
C2207 H2231 0.949 . S
H2208 C2212 0.949 . S
C2209 C2210 1.349 . S
C2209 C2211 1.327 . S
C2209 H2232 0.950 . S
C2210 C2209 1.349 . S
C2210 C2222 1.349 . S
C2211 C2209 1.327 . S
C2211 C2227 1.429 . S
C2211 H2233 0.950 . S
C2212 H2208 0.949 . S
C2212 C2220 1.574 . S
C2212 C2228 1.368 . S
H2213 C2221 0.950 . S
H2214 C2219 0.950 . S
H2215 C2220 0.949 . S
H2216 C2222 0.950 . S
H2217 C2223 0.950 . S
H2218 C2224 0.949 . S
C2219 H2214 0.950 . S
C2219 C2221 1.327 . S
C2219 C2225 1.429 . S
C2220 C2212 1.574 . S
C2220 H2215 0.949 . S
C2220 C2226 1.368 . S
C2221 C2205 1.349 . S
C2221 H2213 0.950 . S
C2221 C2219 1.327 . S
C2222 C2210 1.349 . S
C2222 H2216 0.950 . S
C2222 C2223 1.327 . S
C2223 H2217 0.950 . S
C2223 C2222 1.327 . S
C2223 C2227 1.429 . S
C2224 C2207 1.574 . S
C2224 H2218 0.949 . S
C2224 C2228 1.368 . S
C2225 C2206 1.429 . S
C2225 C2219 1.429 . S
C2225 C2226 1.523 . S
C2226 C2207 1.368 . S
C2226 C2220 1.368 . S
C2226 C2225 1.523 . S
C2227 C2211 1.429 . S
C2227 C2223 1.429 . S
C2227 C2228 1.523 . S
C2228 C2212 1.368 . S
C2228 C2224 1.368 . S
C2228 C2227 1.523 . S
H2229 C2204 0.950 . S
H2230 C2206 0.950 . S
H2231 C2207 0.949 . S
H2232 C2209 0.950 . S
H2233 C2211 0.950 . S
C2234 C2235 1.349 . S
C2234 C2236 1.327 . S
C2234 H2259 0.950 . S
C2235 C2234 1.349 . S
C2235 C2251 1.349 . S
C2236 C2234 1.327 . S
C2236 C2255 1.429 . S
C2236 H2260 0.950 . S
C2237 C2254 1.574 . S
C2237 C2256 1.368 . S
C2237 H2261 0.949 . S
H2238 C2242 0.949 . S
C2239 C2240 1.349 . S
C2239 C2241 1.327 . S
C2239 H2262 0.950 . S
C2240 C2239 1.349 . S
C2240 C2252 1.349 . S
C2241 C2239 1.327 . S
C2241 C2257 1.429 . S
C2241 H2263 0.950 . S
C2242 H2238 0.949 . S
C2242 C2250 1.574 . S
C2242 C2258 1.368 . S
H2243 C2251 0.950 . S
H2244 C2249 0.950 . S
H2245 C2250 0.949 . S
H2246 C2252 0.950 . S
H2247 C2253 0.950 . S
H2248 C2254 0.949 . S
C2249 H2244 0.950 . S
C2249 C2251 1.327 . S
C2249 C2255 1.429 . S
C2250 C2242 1.574 . S
C2250 H2245 0.949 . S
C2250 C2256 1.368 . S
C2251 C2235 1.349 . S
C2251 H2243 0.950 . S
C2251 C2249 1.327 . S
C2252 C2240 1.349 . S
C2252 H2246 0.950 . S
C2252 C2253 1.327 . S
C2253 H2247 0.950 . S
C2253 C2252 1.327 . S
C2253 C2257 1.429 . S
C2254 C2237 1.574 . S
C2254 H2248 0.949 . S
C2254 C2258 1.368 . S
C2255 C2236 1.429 . S
C2255 C2249 1.429 . S
C2255 C2256 1.523 . S
C2256 C2237 1.368 . S
C2256 C2250 1.368 . S
C2256 C2255 1.523 . S
C2257 C2241 1.429 . S
C2257 C2253 1.429 . S
C2257 C2258 1.523 . S
C2258 C2242 1.368 . S
C2258 C2254 1.368 . S
C2258 C2257 1.523 . S
H2259 C2234 0.950 . S
H2260 C2236 0.950 . S
H2261 C2237 0.949 . S
H2262 C2239 0.950 . S
H2263 C2241 0.950 . S
C2264 C2265 1.349 . S
C2264 C2266 1.327 . S
C2264 H2289 0.950 . S
C2265 C2264 1.349 . S
C2265 C2281 1.349 . S
C2266 C2264 1.327 . S
C2266 C2285 1.429 . S
C2266 H2290 0.950 . S
C2267 C2284 1.574 . S
C2267 C2286 1.368 . S
C2267 H2291 0.949 . S
H2268 C2272 0.949 . S
C2269 C2270 1.349 . S
C2269 C2271 1.327 . S
C2269 H2292 0.950 . S
C2270 C2269 1.349 . S
C2270 C2282 1.349 . S
C2271 C2269 1.327 . S
C2271 C2287 1.429 . S
C2271 H2293 0.950 . S
C2272 H2268 0.949 . S
C2272 C2280 1.574 . S
C2272 C2288 1.368 . S
H2273 C2281 0.950 . S
H2274 C2279 0.950 . S
H2275 C2280 0.949 . S
H2276 C2282 0.950 . S
H2277 C2283 0.950 . S
H2278 C2284 0.949 . S
C2279 H2274 0.950 . S
C2279 C2281 1.327 . S
C2279 C2285 1.429 . S
C2280 C2272 1.574 . S
C2280 H2275 0.949 . S
C2280 C2286 1.368 . S
C2281 C2265 1.349 . S
C2281 H2273 0.950 . S
C2281 C2279 1.327 . S
C2282 C2270 1.349 . S
C2282 H2276 0.950 . S
C2282 C2283 1.327 . S
C2283 H2277 0.950 . S
C2283 C2282 1.327 . S
C2283 C2287 1.429 . S
C2284 C2267 1.574 . S
C2284 H2278 0.949 . S
C2284 C2288 1.368 . S
C2285 C2266 1.429 . S
C2285 C2279 1.429 . S
C2285 C2286 1.523 . S
C2286 C2267 1.368 . S
C2286 C2280 1.368 . S
C2286 C2285 1.523 . S
C2287 C2271 1.429 . S
C2287 C2283 1.429 . S
C2287 C2288 1.523 . S
C2288 C2272 1.368 . S
C2288 C2284 1.368 . S
C2288 C2287 1.523 . S
H2289 C2264 0.950 . S
H2290 C2266 0.950 . S
H2291 C2267 0.949 . S
H2292 C2269 0.950 . S
H2293 C2271 0.950 . S
C2294 C2295 1.349 . S
C2294 C2296 1.327 . S
C2294 H2319 0.950 . S
C2295 C2294 1.349 . S
C2295 C2311 1.349 . S
C2296 C2294 1.327 . S
C2296 C2315 1.429 . S
C2296 H2320 0.950 . S
C2297 C2314 1.574 . S
C2297 C2316 1.368 . S
C2297 H2321 0.949 . S
H2298 C2302 0.949 . S
C2299 C2300 1.349 . S
C2299 C2301 1.327 . S
C2299 H2322 0.950 . S
C2300 C2299 1.349 . S
C2300 C2312 1.349 . S
C2301 C2299 1.327 . S
C2301 C2317 1.429 . S
C2301 H2323 0.950 . S
C2302 H2298 0.949 . S
C2302 C2310 1.574 . S
C2302 C2318 1.368 . S
H2303 C2311 0.950 . S
H2304 C2309 0.950 . S
H2305 C2310 0.949 . S
H2306 C2312 0.950 . S
H2307 C2313 0.950 . S
H2308 C2314 0.949 . S
C2309 H2304 0.950 . S
C2309 C2311 1.327 . S
C2309 C2315 1.429 . S
C2310 C2302 1.574 . S
C2310 H2305 0.949 . S
C2310 C2316 1.368 . S
C2311 C2295 1.349 . S
C2311 H2303 0.950 . S
C2311 C2309 1.327 . S
C2312 C2300 1.349 . S
C2312 H2306 0.950 . S
C2312 C2313 1.327 . S
C2313 H2307 0.950 . S
C2313 C2312 1.327 . S
C2313 C2317 1.429 . S
C2314 C2297 1.574 . S
C2314 H2308 0.949 . S
C2314 C2318 1.368 . S
C2315 C2296 1.429 . S
C2315 C2309 1.429 . S
C2315 C2316 1.523 . S
C2316 C2297 1.368 . S
C2316 C2310 1.368 . S
C2316 C2315 1.523 . S
C2317 C2301 1.429 . S
C2317 C2313 1.429 . S
C2317 C2318 1.523 . S
C2318 C2302 1.368 . S
C2318 C2314 1.368 . S
C2318 C2317 1.523 . S
H2319 C2294 0.950 . S
H2320 C2296 0.950 . S
H2321 C2297 0.949 . S
H2322 C2299 0.950 . S
H2323 C2301 0.950 . S
C2324 C2325 1.349 . S
C2324 C2326 1.327 . S
C2324 H2349 0.950 . S
C2325 C2324 1.349 . S
C2325 C2341 1.349 . S
C2326 C2324 1.327 . S
C2326 C2345 1.429 . S
C2326 H2350 0.950 . S
C2327 C2344 1.574 . S
C2327 C2346 1.368 . S
C2327 H2351 0.949 . S
H2328 C2332 0.949 . S
C2329 C2330 1.349 . S
C2329 C2331 1.327 . S
C2329 H2352 0.950 . S
C2330 C2329 1.349 . S
C2330 C2342 1.349 . S
C2331 C2329 1.327 . S
C2331 C2347 1.429 . S
C2331 H2353 0.950 . S
C2332 H2328 0.949 . S
C2332 C2340 1.574 . S
C2332 C2348 1.368 . S
H2333 C2341 0.950 . S
H2334 C2339 0.950 . S
H2335 C2340 0.949 . S
H2336 C2342 0.950 . S
H2337 C2343 0.950 . S
H2338 C2344 0.949 . S
C2339 H2334 0.950 . S
C2339 C2341 1.327 . S
C2339 C2345 1.429 . S
C2340 C2332 1.574 . S
C2340 H2335 0.949 . S
C2340 C2346 1.368 . S
C2341 C2325 1.349 . S
C2341 H2333 0.950 . S
C2341 C2339 1.327 . S
C2342 C2330 1.349 . S
C2342 H2336 0.950 . S
C2342 C2343 1.327 . S
C2343 H2337 0.950 . S
C2343 C2342 1.327 . S
C2343 C2347 1.429 . S
C2344 C2327 1.574 . S
C2344 H2338 0.949 . S
C2344 C2348 1.368 . S
C2345 C2326 1.429 . S
C2345 C2339 1.429 . S
C2345 C2346 1.523 . S
C2346 C2327 1.368 . S
C2346 C2340 1.368 . S
C2346 C2345 1.523 . S
C2347 C2331 1.429 . S
C2347 C2343 1.429 . S
C2347 C2348 1.523 . S
C2348 C2332 1.368 . S
C2348 C2344 1.368 . S
C2348 C2347 1.523 . S
H2349 C2324 0.950 . S
H2350 C2326 0.950 . S
H2351 C2327 0.949 . S
H2352 C2329 0.950 . S
H2353 C2331 0.950 . S
C2354 C2355 1.349 . S
C2354 C2356 1.327 . S
C2354 H2379 0.950 . S
C2355 C2354 1.349 . S
C2355 C2371 1.349 . S
C2356 C2354 1.327 . S
C2356 C2375 1.429 . S
C2356 H2380 0.950 . S
C2357 C2374 1.574 . S
C2357 C2376 1.368 . S
C2357 H2381 0.949 . S
H2358 C2362 0.949 . S
C2359 C2360 1.349 . S
C2359 C2361 1.327 . S
C2359 H2382 0.950 . S
C2360 C2359 1.349 . S
C2360 C2372 1.349 . S
C2361 C2359 1.327 . S
C2361 C2377 1.429 . S
C2361 H2383 0.950 . S
C2362 H2358 0.949 . S
C2362 C2370 1.574 . S
C2362 C2378 1.368 . S
H2363 C2371 0.950 . S
H2364 C2369 0.950 . S
H2365 C2370 0.949 . S
H2366 C2372 0.950 . S
H2367 C2373 0.950 . S
H2368 C2374 0.949 . S
C2369 H2364 0.950 . S
C2369 C2371 1.327 . S
C2369 C2375 1.429 . S
C2370 C2362 1.574 . S
C2370 H2365 0.949 . S
C2370 C2376 1.368 . S
C2371 C2355 1.349 . S
C2371 H2363 0.950 . S
C2371 C2369 1.327 . S
C2372 C2360 1.349 . S
C2372 H2366 0.950 . S
C2372 C2373 1.327 . S
C2373 H2367 0.950 . S
C2373 C2372 1.327 . S
C2373 C2377 1.429 . S
C2374 C2357 1.574 . S
C2374 H2368 0.949 . S
C2374 C2378 1.368 . S
C2375 C2356 1.429 . S
C2375 C2369 1.429 . S
C2375 C2376 1.523 . S
C2376 C2357 1.368 . S
C2376 C2370 1.368 . S
C2376 C2375 1.523 . S
C2377 C2361 1.429 . S
C2377 C2373 1.429 . S
C2377 C2378 1.523 . S
C2378 C2362 1.368 . S
C2378 C2374 1.368 . S
C2378 C2377 1.523 . S
H2379 C2354 0.950 . S
H2380 C2356 0.950 . S
H2381 C2357 0.949 . S
H2382 C2359 0.950 . S
H2383 C2361 0.950 . S
C2384 C2385 1.349 . S
C2384 C2386 1.327 . S
C2384 H2409 0.950 . S
C2385 C2384 1.349 . S
C2385 C2401 1.349 . S
C2386 C2384 1.327 . S
C2386 C2405 1.429 . S
C2386 H2410 0.950 . S
C2387 C2404 1.574 . S
C2387 C2406 1.368 . S
C2387 H2411 0.949 . S
H2388 C2392 0.949 . S
C2389 C2390 1.349 . S
C2389 C2391 1.327 . S
C2389 H2412 0.950 . S
C2390 C2389 1.349 . S
C2390 C2402 1.349 . S
C2391 C2389 1.327 . S
C2391 C2407 1.429 . S
C2391 H2413 0.950 . S
C2392 H2388 0.949 . S
C2392 C2400 1.574 . S
C2392 C2408 1.368 . S
H2393 C2401 0.950 . S
H2394 C2399 0.950 . S
H2395 C2400 0.949 . S
H2396 C2402 0.950 . S
H2397 C2403 0.950 . S
H2398 C2404 0.949 . S
C2399 H2394 0.950 . S
C2399 C2401 1.327 . S
C2399 C2405 1.429 . S
C2400 C2392 1.574 . S
C2400 H2395 0.949 . S
C2400 C2406 1.368 . S
C2401 C2385 1.349 . S
C2401 H2393 0.950 . S
C2401 C2399 1.327 . S
C2402 C2390 1.349 . S
C2402 H2396 0.950 . S
C2402 C2403 1.327 . S
C2403 H2397 0.950 . S
C2403 C2402 1.327 . S
C2403 C2407 1.429 . S
C2404 C2387 1.574 . S
C2404 H2398 0.949 . S
C2404 C2408 1.368 . S
C2405 C2386 1.429 . S
C2405 C2399 1.429 . S
C2405 C2406 1.523 . S
C2406 C2387 1.368 . S
C2406 C2400 1.368 . S
C2406 C2405 1.523 . S
C2407 C2391 1.429 . S
C2407 C2403 1.429 . S
C2407 C2408 1.523 . S
C2408 C2392 1.368 . S
C2408 C2404 1.368 . S
C2408 C2407 1.523 . S
H2409 C2384 0.950 . S
H2410 C2386 0.950 . S
H2411 C2387 0.949 . S
H2412 C2389 0.950 . S
H2413 C2391 0.950 . S
C2414 C2415 1.349 . S
C2414 C2416 1.327 . S
C2414 H2439 0.950 . S
C2415 C2414 1.349 . S
C2415 C2431 1.349 . S
C2416 C2414 1.327 . S
C2416 C2435 1.429 . S
C2416 H2440 0.950 . S
C2417 C2434 1.574 . S
C2417 C2436 1.368 . S
C2417 H2441 0.949 . S
H2418 C2422 0.949 . S
C2419 C2420 1.349 . S
C2419 C2421 1.327 . S
C2419 H2442 0.950 . S
C2420 C2419 1.349 . S
C2420 C2432 1.349 . S
C2421 C2419 1.327 . S
C2421 C2437 1.429 . S
C2421 H2443 0.950 . S
C2422 H2418 0.949 . S
C2422 C2430 1.574 . S
C2422 C2438 1.368 . S
H2423 C2431 0.950 . S
H2424 C2429 0.950 . S
H2425 C2430 0.949 . S
H2426 C2432 0.950 . S
H2427 C2433 0.950 . S
H2428 C2434 0.949 . S
C2429 H2424 0.950 . S
C2429 C2431 1.327 . S
C2429 C2435 1.429 . S
C2430 C2422 1.574 . S
C2430 H2425 0.949 . S
C2430 C2436 1.368 . S
C2431 C2415 1.349 . S
C2431 H2423 0.950 . S
C2431 C2429 1.327 . S
C2432 C2420 1.349 . S
C2432 H2426 0.950 . S
C2432 C2433 1.327 . S
C2433 H2427 0.950 . S
C2433 C2432 1.327 . S
C2433 C2437 1.429 . S
C2434 C2417 1.574 . S
C2434 H2428 0.949 . S
C2434 C2438 1.368 . S
C2435 C2416 1.429 . S
C2435 C2429 1.429 . S
C2435 C2436 1.523 . S
C2436 C2417 1.368 . S
C2436 C2430 1.368 . S
C2436 C2435 1.523 . S
C2437 C2421 1.429 . S
C2437 C2433 1.429 . S
C2437 C2438 1.523 . S
C2438 C2422 1.368 . S
C2438 C2434 1.368 . S
C2438 C2437 1.523 . S
H2439 C2414 0.950 . S
H2440 C2416 0.950 . S
H2441 C2417 0.949 . S
H2442 C2419 0.950 . S
H2443 C2421 0.950 . S
C2444 C2445 1.349 . S
C2444 C2446 1.327 . S
C2444 H2469 0.950 . S
C2445 C2444 1.349 . S
C2445 C2461 1.349 . S
C2446 C2444 1.327 . S
C2446 C2465 1.429 . S
C2446 H2470 0.950 . S
C2447 C2464 1.574 . S
C2447 C2466 1.368 . S
C2447 H2471 0.949 . S
H2448 C2452 0.949 . S
C2449 C2450 1.349 . S
C2449 C2451 1.327 . S
C2449 H2472 0.950 . S
C2450 C2449 1.349 . S
C2450 C2462 1.349 . S
C2451 C2449 1.327 . S
C2451 C2467 1.429 . S
C2451 H2473 0.950 . S
C2452 H2448 0.949 . S
C2452 C2460 1.574 . S
C2452 C2468 1.368 . S
H2453 C2461 0.950 . S
H2454 C2459 0.950 . S
H2455 C2460 0.949 . S
H2456 C2462 0.950 . S
H2457 C2463 0.950 . S
H2458 C2464 0.949 . S
C2459 H2454 0.950 . S
C2459 C2461 1.327 . S
C2459 C2465 1.429 . S
C2460 C2452 1.574 . S
C2460 H2455 0.949 . S
C2460 C2466 1.368 . S
C2461 C2445 1.349 . S
C2461 H2453 0.950 . S
C2461 C2459 1.327 . S
C2462 C2450 1.349 . S
C2462 H2456 0.950 . S
C2462 C2463 1.327 . S
C2463 H2457 0.950 . S
C2463 C2462 1.327 . S
C2463 C2467 1.429 . S
C2464 C2447 1.574 . S
C2464 H2458 0.949 . S
C2464 C2468 1.368 . S
C2465 C2446 1.429 . S
C2465 C2459 1.429 . S
C2465 C2466 1.523 . S
C2466 C2447 1.368 . S
C2466 C2460 1.368 . S
C2466 C2465 1.523 . S
C2467 C2451 1.429 . S
C2467 C2463 1.429 . S
C2467 C2468 1.523 . S
C2468 C2452 1.368 . S
C2468 C2464 1.368 . S
C2468 C2467 1.523 . S
H2469 C2444 0.950 . S
H2470 C2446 0.950 . S
H2471 C2447 0.949 . S
H2472 C2449 0.950 . S
H2473 C2451 0.950 . S
C2474 C2475 1.349 . S
C2474 C2476 1.327 . S
C2474 H2499 0.950 . S
C2475 C2474 1.349 . S
C2475 C2491 1.349 . S
C2476 C2474 1.327 . S
C2476 C2495 1.429 . S
C2476 H2500 0.950 . S
C2477 C2494 1.574 . S
C2477 C2496 1.368 . S
C2477 H2501 0.949 . S
H2478 C2482 0.949 . S
C2479 C2480 1.349 . S
C2479 C2481 1.327 . S
C2479 H2502 0.950 . S
C2480 C2479 1.349 . S
C2480 C2492 1.349 . S
C2481 C2479 1.327 . S
C2481 C2497 1.429 . S
C2481 H2503 0.950 . S
C2482 H2478 0.949 . S
C2482 C2490 1.574 . S
C2482 C2498 1.368 . S
H2483 C2491 0.950 . S
H2484 C2489 0.950 . S
H2485 C2490 0.949 . S
H2486 C2492 0.950 . S
H2487 C2493 0.950 . S
H2488 C2494 0.949 . S
C2489 H2484 0.950 . S
C2489 C2491 1.327 . S
C2489 C2495 1.429 . S
C2490 C2482 1.574 . S
C2490 H2485 0.949 . S
C2490 C2496 1.368 . S
C2491 C2475 1.349 . S
C2491 H2483 0.950 . S
C2491 C2489 1.327 . S
C2492 C2480 1.349 . S
C2492 H2486 0.950 . S
C2492 C2493 1.327 . S
C2493 H2487 0.950 . S
C2493 C2492 1.327 . S
C2493 C2497 1.429 . S
C2494 C2477 1.574 . S
C2494 H2488 0.949 . S
C2494 C2498 1.368 . S
C2495 C2476 1.429 . S
C2495 C2489 1.429 . S
C2495 C2496 1.523 . S
C2496 C2477 1.368 . S
C2496 C2490 1.368 . S
C2496 C2495 1.523 . S
C2497 C2481 1.429 . S
C2497 C2493 1.429 . S
C2497 C2498 1.523 . S
C2498 C2482 1.368 . S
C2498 C2494 1.368 . S
C2498 C2497 1.523 . S
H2499 C2474 0.950 . S
H2500 C2476 0.950 . S
H2501 C2477 0.949 . S
H2502 C2479 0.950 . S
H2503 C2481 0.950 . S
C2504 C2505 1.349 . S
C2504 C2506 1.327 . S
C2504 H2529 0.950 . S
C2505 C2504 1.349 . S
C2505 C2521 1.349 . S
C2506 C2504 1.327 . S
C2506 C2525 1.429 . S
C2506 H2530 0.950 . S
C2507 C2524 1.574 . S
C2507 C2526 1.368 . S
C2507 H2531 0.949 . S
H2508 C2512 0.949 . S
C2509 C2510 1.349 . S
C2509 C2511 1.327 . S
C2509 H2532 0.950 . S
C2510 C2509 1.349 . S
C2510 C2522 1.349 . S
C2511 C2509 1.327 . S
C2511 C2527 1.429 . S
C2511 H2533 0.950 . S
C2512 H2508 0.949 . S
C2512 C2520 1.574 . S
C2512 C2528 1.368 . S
H2513 C2521 0.950 . S
H2514 C2519 0.950 . S
H2515 C2520 0.949 . S
H2516 C2522 0.950 . S
H2517 C2523 0.950 . S
H2518 C2524 0.949 . S
C2519 H2514 0.950 . S
C2519 C2521 1.327 . S
C2519 C2525 1.429 . S
C2520 C2512 1.574 . S
C2520 H2515 0.949 . S
C2520 C2526 1.368 . S
C2521 C2505 1.349 . S
C2521 H2513 0.950 . S
C2521 C2519 1.327 . S
C2522 C2510 1.349 . S
C2522 H2516 0.950 . S
C2522 C2523 1.327 . S
C2523 H2517 0.950 . S
C2523 C2522 1.327 . S
C2523 C2527 1.429 . S
C2524 C2507 1.574 . S
C2524 H2518 0.949 . S
C2524 C2528 1.368 . S
C2525 C2506 1.429 . S
C2525 C2519 1.429 . S
C2525 C2526 1.523 . S
C2526 C2507 1.368 . S
C2526 C2520 1.368 . S
C2526 C2525 1.523 . S
C2527 C2511 1.429 . S
C2527 C2523 1.429 . S
C2527 C2528 1.523 . S
C2528 C2512 1.368 . S
C2528 C2524 1.368 . S
C2528 C2527 1.523 . S
H2529 C2504 0.950 . S
H2530 C2506 0.950 . S
H2531 C2507 0.949 . S
H2532 C2509 0.950 . S
H2533 C2511 0.950 . S
C2534 C2535 1.349 . S
C2534 C2536 1.327 . S
C2534 H2559 0.950 . S
C2535 C2534 1.349 . S
C2535 C2551 1.349 . S
C2536 C2534 1.327 . S
C2536 C2555 1.429 . S
C2536 H2560 0.950 . S
C2537 C2554 1.574 . S
C2537 C2556 1.368 . S
C2537 H2561 0.949 . S
H2538 C2542 0.949 . S
C2539 C2540 1.349 . S
C2539 C2541 1.327 . S
C2539 H2562 0.950 . S
C2540 C2539 1.349 . S
C2540 C2552 1.349 . S
C2541 C2539 1.327 . S
C2541 C2557 1.429 . S
C2541 H2563 0.950 . S
C2542 H2538 0.949 . S
C2542 C2550 1.574 . S
C2542 C2558 1.368 . S
H2543 C2551 0.950 . S
H2544 C2549 0.950 . S
H2545 C2550 0.949 . S
H2546 C2552 0.950 . S
H2547 C2553 0.950 . S
H2548 C2554 0.949 . S
C2549 H2544 0.950 . S
C2549 C2551 1.327 . S
C2549 C2555 1.429 . S
C2550 C2542 1.574 . S
C2550 H2545 0.949 . S
C2550 C2556 1.368 . S
C2551 C2535 1.349 . S
C2551 H2543 0.950 . S
C2551 C2549 1.327 . S
C2552 C2540 1.349 . S
C2552 H2546 0.950 . S
C2552 C2553 1.327 . S
C2553 H2547 0.950 . S
C2553 C2552 1.327 . S
C2553 C2557 1.429 . S
C2554 C2537 1.574 . S
C2554 H2548 0.949 . S
C2554 C2558 1.368 . S
C2555 C2536 1.429 . S
C2555 C2549 1.429 . S
C2555 C2556 1.523 . S
C2556 C2537 1.368 . S
C2556 C2550 1.368 . S
C2556 C2555 1.523 . S
C2557 C2541 1.429 . S
C2557 C2553 1.429 . S
C2557 C2558 1.523 . S
C2558 C2542 1.368 . S
C2558 C2554 1.368 . S
C2558 C2557 1.523 . S
H2559 C2534 0.950 . S
H2560 C2536 0.950 . S
H2561 C2537 0.949 . S
H2562 C2539 0.950 . S
H2563 C2541 0.950 . S
C2564 C2565 1.349 . S
C2564 C2566 1.327 . S
C2564 H2589 0.950 . S
C2565 C2564 1.349 . S
C2565 C2581 1.349 . S
C2566 C2564 1.327 . S
C2566 C2585 1.429 . S
C2566 H2590 0.950 . S
C2567 C2584 1.574 . S
C2567 C2586 1.368 . S
C2567 H2591 0.949 . S
H2568 C2572 0.949 . S
C2569 C2570 1.349 . S
C2569 C2571 1.327 . S
C2569 H2592 0.950 . S
C2570 C2569 1.349 . S
C2570 C2582 1.349 . S
C2571 C2569 1.327 . S
C2571 C2587 1.429 . S
C2571 H2593 0.950 . S
C2572 H2568 0.949 . S
C2572 C2580 1.574 . S
C2572 C2588 1.368 . S
H2573 C2581 0.950 . S
H2574 C2579 0.950 . S
H2575 C2580 0.949 . S
H2576 C2582 0.950 . S
H2577 C2583 0.950 . S
H2578 C2584 0.949 . S
C2579 H2574 0.950 . S
C2579 C2581 1.327 . S
C2579 C2585 1.429 . S
C2580 C2572 1.574 . S
C2580 H2575 0.949 . S
C2580 C2586 1.368 . S
C2581 C2565 1.349 . S
C2581 H2573 0.950 . S
C2581 C2579 1.327 . S
C2582 C2570 1.349 . S
C2582 H2576 0.950 . S
C2582 C2583 1.327 . S
C2583 H2577 0.950 . S
C2583 C2582 1.327 . S
C2583 C2587 1.429 . S
C2584 C2567 1.574 . S
C2584 H2578 0.949 . S
C2584 C2588 1.368 . S
C2585 C2566 1.429 . S
C2585 C2579 1.429 . S
C2585 C2586 1.523 . S
C2586 C2567 1.368 . S
C2586 C2580 1.368 . S
C2586 C2585 1.523 . S
C2587 C2571 1.429 . S
C2587 C2583 1.429 . S
C2587 C2588 1.523 . S
C2588 C2572 1.368 . S
C2588 C2584 1.368 . S
C2588 C2587 1.523 . S
H2589 C2564 0.950 . S
H2590 C2566 0.950 . S
H2591 C2567 0.949 . S
H2592 C2569 0.950 . S
H2593 C2571 0.950 . S
C2594 C2595 1.349 . S
C2594 C2596 1.327 . S
C2594 H2619 0.950 . S
C2595 C2594 1.349 . S
C2595 C2611 1.349 . S
C2596 C2594 1.327 . S
C2596 C2615 1.429 . S
C2596 H2620 0.950 . S
C2597 C2614 1.574 . S
C2597 C2616 1.368 . S
C2597 H2621 0.949 . S
H2598 C2602 0.949 . S
C2599 C2600 1.349 . S
C2599 C2601 1.327 . S
C2599 H2622 0.950 . S
C2600 C2599 1.349 . S
C2600 C2612 1.349 . S
C2601 C2599 1.327 . S
C2601 C2617 1.429 . S
C2601 H2623 0.950 . S
C2602 H2598 0.949 . S
C2602 C2610 1.574 . S
C2602 C2618 1.368 . S
H2603 C2611 0.950 . S
H2604 C2609 0.950 . S
H2605 C2610 0.949 . S
H2606 C2612 0.950 . S
H2607 C2613 0.950 . S
H2608 C2614 0.949 . S
C2609 H2604 0.950 . S
C2609 C2611 1.327 . S
C2609 C2615 1.429 . S
C2610 C2602 1.574 . S
C2610 H2605 0.949 . S
C2610 C2616 1.368 . S
C2611 C2595 1.349 . S
C2611 H2603 0.950 . S
C2611 C2609 1.327 . S
C2612 C2600 1.349 . S
C2612 H2606 0.950 . S
C2612 C2613 1.327 . S
C2613 H2607 0.950 . S
C2613 C2612 1.327 . S
C2613 C2617 1.429 . S
C2614 C2597 1.574 . S
C2614 H2608 0.949 . S
C2614 C2618 1.368 . S
C2615 C2596 1.429 . S
C2615 C2609 1.429 . S
C2615 C2616 1.523 . S
C2616 C2597 1.368 . S
C2616 C2610 1.368 . S
C2616 C2615 1.523 . S
C2617 C2601 1.429 . S
C2617 C2613 1.429 . S
C2617 C2618 1.523 . S
C2618 C2602 1.368 . S
C2618 C2614 1.368 . S
C2618 C2617 1.523 . S
H2619 C2594 0.950 . S
H2620 C2596 0.950 . S
H2621 C2597 0.949 . S
H2622 C2599 0.950 . S
H2623 C2601 0.950 . S
C2624 C2625 1.349 . S
C2624 C2626 1.327 . S
C2624 H2649 0.950 . S
C2625 C2624 1.349 . S
C2625 C2641 1.349 . S
C2626 C2624 1.327 . S
C2626 C2645 1.429 . S
C2626 H2650 0.950 1_565 S
C2627 C2644 1.574 . S
C2627 C2646 1.368 1_554 S
C2627 H2651 0.949 . S
H2628 C2632 0.949 . S
C2629 C2630 1.349 . S
C2629 C2631 1.327 . S
C2629 H2652 0.950 . S
C2630 C2629 1.349 . S
C2630 C2642 1.349 1_554 S
C2631 C2629 1.327 . S
C2631 C2647 1.429 1_554 S
C2631 H2653 0.950 . S
C2632 H2628 0.949 . S
C2632 C2640 1.574 . S
C2632 C2648 1.368 . S
H2633 C2641 0.950 1_554 S
H2634 C2639 0.950 1_554 S
H2635 C2640 0.949 . S
H2636 C2642 0.950 . S
H2637 C2643 0.950 . S
H2638 C2644 0.949 . S
C2639 H2634 0.950 1_556 S
C2639 C2641 1.327 . S
C2639 C2645 1.429 . S
C2640 C2632 1.574 . S
C2640 H2635 0.949 . S
C2640 C2646 1.368 1_545 S
C2641 C2625 1.349 . S
C2641 H2633 0.950 1_556 S
C2641 C2639 1.327 . S
C2642 C2630 1.349 1_556 S
C2642 H2636 0.950 . S
C2642 C2643 1.327 . S
C2643 H2637 0.950 . S
C2643 C2642 1.327 . S
C2643 C2647 1.429 . S
C2644 C2627 1.574 . S
C2644 H2638 0.949 . S
C2644 C2648 1.368 1_564 S
C2645 C2626 1.429 . S
C2645 C2639 1.429 . S
C2645 C2646 1.523 . S
C2646 C2627 1.368 1_556 S
C2646 C2640 1.368 1_565 S
C2646 C2645 1.523 . S
C2647 C2631 1.429 1_556 S
C2647 C2643 1.429 . S
C2647 C2648 1.523 . S
C2648 C2632 1.368 . S
C2648 C2644 1.368 1_546 S
C2648 C2647 1.523 . S
H2649 C2624 0.950 . S
H2650 C2626 0.950 1_545 S
H2651 C2627 0.949 . S
H2652 C2629 0.950 . S
H2653 C2631 0.950 . S
C2654 C2655 1.349 . S
C2654 C2656 1.327 . S
C2654 H2679 0.950 . S
C2655 C2654 1.349 . S
C2655 C2671 1.349 . S
C2656 C2654 1.327 . S
C2656 C2675 1.429 . S
C2656 H2680 0.950 . S
C2657 C2674 1.574 . S
C2657 C2676 1.368 1_554 S
C2657 H2681 0.949 . S
H2658 C2662 0.949 . S
C2659 C2660 1.349 . S
C2659 C2661 1.327 . S
C2659 H2682 0.950 . S
C2660 C2659 1.349 . S
C2660 C2672 1.349 1_554 S
C2661 C2659 1.327 . S
C2661 C2677 1.429 1_554 S
C2661 H2683 0.950 . S
C2662 H2658 0.949 . S
C2662 C2670 1.574 1_655 S
C2662 C2678 1.368 . S
H2663 C2671 0.950 1_554 S
H2664 C2669 0.950 1_554 S
H2665 C2670 0.949 . S
H2666 C2672 0.950 . S
H2667 C2673 0.950 . S
H2668 C2674 0.949 . S
C2669 H2664 0.950 1_556 S
C2669 C2671 1.327 . S
C2669 C2675 1.429 . S
C2670 C2662 1.574 1_455 S
C2670 H2665 0.949 . S
C2670 C2676 1.368 . S
C2671 C2655 1.349 . S
C2671 H2663 0.950 1_556 S
C2671 C2669 1.327 . S
C2672 C2660 1.349 1_556 S
C2672 H2666 0.950 . S
C2672 C2673 1.327 . S
C2673 H2667 0.950 . S
C2673 C2672 1.327 . S
C2673 C2677 1.429 . S
C2674 C2657 1.574 . S
C2674 H2668 0.949 . S
C2674 C2678 1.368 1_454 S
C2675 C2656 1.429 . S
C2675 C2669 1.429 . S
C2675 C2676 1.523 . S
C2676 C2657 1.368 1_556 S
C2676 C2670 1.368 . S
C2676 C2675 1.523 . S
C2677 C2661 1.429 1_556 S
C2677 C2673 1.429 . S
C2677 C2678 1.523 . S
C2678 C2662 1.368 . S
C2678 C2674 1.368 1_656 S
C2678 C2677 1.523 . S
H2679 C2654 0.950 . S
H2680 C2656 0.950 . S
H2681 C2657 0.949 . S
H2682 C2659 0.950 . S
H2683 C2661 0.950 . S
C2684 C2685 1.349 . S
C2684 C2686 1.327 . S
C2684 H2709 0.950 . S
C2685 C2684 1.349 . S
C2685 C2701 1.349 . S
C2686 C2684 1.327 . S
C2686 C2705 1.429 . S
C2686 H2710 0.950 . S
C2687 C2704 1.574 . S
C2687 C2706 1.368 . S
C2687 H2711 0.949 . S
H2688 C2692 0.949 . S
C2689 C2690 1.349 . S
C2689 C2691 1.327 . S
C2689 H2712 0.950 . S
C2690 C2689 1.349 . S
C2690 C2702 1.349 . S
C2691 C2689 1.327 . S
C2691 C2707 1.429 . S
C2691 H2713 0.950 . S
C2692 H2688 0.949 . S
C2692 C2700 1.574 . S
C2692 C2708 1.368 . S
H2693 C2701 0.950 . S
H2694 C2699 0.950 . S
H2695 C2700 0.949 . S
H2696 C2702 0.950 . S
H2697 C2703 0.950 . S
H2698 C2704 0.949 . S
C2699 H2694 0.950 . S
C2699 C2701 1.327 . S
C2699 C2705 1.429 . S
C2700 C2692 1.574 . S
C2700 H2695 0.949 . S
C2700 C2706 1.368 . S
C2701 C2685 1.349 . S
C2701 H2693 0.950 . S
C2701 C2699 1.327 . S
C2702 C2690 1.349 . S
C2702 H2696 0.950 . S
C2702 C2703 1.327 . S
C2703 H2697 0.950 . S
C2703 C2702 1.327 . S
C2703 C2707 1.429 . S
C2704 C2687 1.574 . S
C2704 H2698 0.949 . S
C2704 C2708 1.368 . S
C2705 C2686 1.429 . S
C2705 C2699 1.429 . S
C2705 C2706 1.523 . S
C2706 C2687 1.368 . S
C2706 C2700 1.368 . S
C2706 C2705 1.523 . S
C2707 C2691 1.429 . S
C2707 C2703 1.429 . S
C2707 C2708 1.523 . S
C2708 C2692 1.368 . S
C2708 C2704 1.368 . S
C2708 C2707 1.523 . S
H2709 C2684 0.950 . S
H2710 C2686 0.950 . S
H2711 C2687 0.949 . S
H2712 C2689 0.950 . S
H2713 C2691 0.950 . S
C2714 C2715 1.349 . S
C2714 C2716 1.327 . S
C2714 H2739 0.950 . S
C2715 C2714 1.349 . S
C2715 C2731 1.349 . S
C2716 C2714 1.327 . S
C2716 C2735 1.429 . S
C2716 H2740 0.950 . S
C2717 C2734 1.574 . S
C2717 C2736 1.368 1_455 S
C2717 H2741 0.949 . S
H2718 C2722 0.949 . S
C2719 C2720 1.349 . S
C2719 C2721 1.327 . S
C2719 H2742 0.950 . S
C2720 C2719 1.349 . S
C2720 C2732 1.349 . S
C2721 C2719 1.327 . S
C2721 C2737 1.429 . S
C2721 H2743 0.950 . S
C2722 H2718 0.949 . S
C2722 C2730 1.574 1_465 S
C2722 C2738 1.368 . S
H2723 C2731 0.950 . S
H2724 C2729 0.950 . S
H2725 C2730 0.949 . S
H2726 C2732 0.950 . S
H2727 C2733 0.950 . S
H2728 C2734 0.949 . S
C2729 H2724 0.950 . S
C2729 C2731 1.327 . S
C2729 C2735 1.429 . S
C2730 C2722 1.574 1_645 S
C2730 H2725 0.949 . S
C2730 C2736 1.368 . S
C2731 C2715 1.349 . S
C2731 H2723 0.950 . S
C2731 C2729 1.327 . S
C2732 C2720 1.349 . S
C2732 H2726 0.950 . S
C2732 C2733 1.327 . S
C2733 H2727 0.950 . S
C2733 C2732 1.327 . S
C2733 C2737 1.429 . S
C2734 C2717 1.574 . S
C2734 H2728 0.949 . S
C2734 C2738 1.368 1_545 S
C2735 C2716 1.429 . S
C2735 C2729 1.429 . S
C2735 C2736 1.523 . S
C2736 C2717 1.368 1_655 S
C2736 C2730 1.368 . S
C2736 C2735 1.523 . S
C2737 C2721 1.429 . S
C2737 C2733 1.429 . S
C2737 C2738 1.523 . S
C2738 C2722 1.368 . S
C2738 C2734 1.368 1_565 S
C2738 C2737 1.523 . S
H2739 C2714 0.950 . S
H2740 C2716 0.950 . S
H2741 C2717 0.949 . S
H2742 C2719 0.950 . S
H2743 C2721 0.950 . S
C2744 C2745 1.349 1_554 S
C2744 C2746 1.327 . S
C2744 H2769 0.950 . S
C2745 C2744 1.349 1_556 S
C2745 C2761 1.349 . S
C2746 C2744 1.327 . S
C2746 C2765 1.429 . S
C2746 H2770 0.950 . S
C2747 C2764 1.574 1_565 S
C2747 C2766 1.368 1_556 S
C2747 H2771 0.949 . S
H2748 C2752 0.949 . S
C2749 C2750 1.349 1_556 S
C2749 C2751 1.327 . S
C2749 H2772 0.950 . S
C2750 C2749 1.349 1_554 S
C2750 C2762 1.349 . S
C2751 C2749 1.327 . S
C2751 C2767 1.429 1_556 S
C2751 H2773 0.950 . S
C2752 H2748 0.949 . S
C2752 C2760 1.574 . S
C2752 C2768 1.368 1_565 S
H2753 C2761 0.950 . S
H2754 C2759 0.950 . S
H2755 C2760 0.949 . S
H2756 C2762 0.950 . S
H2757 C2763 0.950 . S
H2758 C2764 0.949 . S
C2759 H2754 0.950 . S
C2759 C2761 1.327 . S
C2759 C2765 1.429 1_556 S
C2760 C2752 1.574 . S
C2760 H2755 0.949 . S
C2760 C2766 1.368 . S
C2761 C2745 1.349 . S
C2761 H2753 0.950 . S
C2761 C2759 1.327 . S
C2762 C2750 1.349 . S
C2762 H2756 0.950 . S
C2762 C2763 1.327 . S
C2763 H2757 0.950 . S
C2763 C2762 1.327 . S
C2763 C2767 1.429 . S
C2764 C2747 1.574 1_545 S
C2764 H2758 0.949 . S
C2764 C2768 1.368 1_556 S
C2765 C2746 1.429 . S
C2765 C2759 1.429 1_554 S
C2765 C2766 1.523 . S
C2766 C2747 1.368 1_554 S
C2766 C2760 1.368 . S
C2766 C2765 1.523 . S
C2767 C2751 1.429 1_554 S
C2767 C2763 1.429 . S
C2767 C2768 1.523 . S
C2768 C2752 1.368 1_545 S
C2768 C2764 1.368 1_554 S
C2768 C2767 1.523 . S
H2769 C2744 0.950 . S
H2770 C2746 0.950 . S
H2771 C2747 0.949 . S
H2772 C2749 0.950 . S
H2773 C2751 0.950 . S
C2774 C2775 1.349 1_554 S
C2774 C2776 1.327 . S
C2774 H2799 0.950 . S
C2775 C2774 1.349 1_556 S
C2775 C2791 1.349 . S
C2776 C2774 1.327 . S
C2776 C2795 1.429 . S
C2776 H2800 0.950 . S
C2777 C2794 1.574 1_455 S
C2777 C2796 1.368 1_556 S
C2777 H2801 0.949 . S
H2778 C2782 0.949 . S
C2779 C2780 1.349 . S
C2779 C2781 1.322 1_554 S
C2779 H2802 0.950 1_554 S
C2780 C2779 1.349 . S
C2780 C2792 1.349 . S
C2781 C2779 1.322 1_556 S
C2781 C2797 1.402 1_556 S
C2781 H2803 0.984 . S
C2782 H2778 0.949 . S
C2782 C2790 1.574 . S
C2782 C2798 1.368 . S
H2783 C2791 0.950 . S
H2784 C2789 0.950 . S
H2785 C2790 0.949 . S
H2786 C2792 0.950 . S
H2787 C2793 0.950 . S
H2788 C2794 0.949 . S
C2789 H2784 0.950 . S
C2789 C2791 1.327 . S
C2789 C2795 1.429 1_556 S
C2790 C2782 1.574 . S
C2790 H2785 0.949 . S
C2790 C2796 1.368 1_655 S
C2791 C2775 1.349 . S
C2791 H2783 0.950 . S
C2791 C2789 1.327 . S
C2792 C2780 1.349 . S
C2792 H2786 0.950 . S
C2792 C2793 1.327 . S
C2793 H2787 0.950 . S
C2793 C2792 1.327 . S
C2793 C2797 1.429 . S
C2794 C2777 1.574 1_655 S
C2794 H2788 0.949 . S
C2794 C2798 1.368 1_556 S
C2795 C2776 1.429 . S
C2795 C2789 1.429 1_554 S
C2795 C2796 1.523 . S
C2796 C2777 1.368 1_554 S
C2796 C2790 1.368 1_455 S
C2796 C2795 1.523 . S
C2797 C2781 1.402 1_554 S
C2797 C2793 1.429 . S
C2797 C2798 1.523 . S
C2798 C2782 1.368 . S
C2798 C2794 1.368 1_554 S
C2798 C2797 1.523 . S
H2799 C2774 0.950 . S
H2800 C2776 0.950 . S
H2801 C2777 0.949 . S
H2802 C2779 0.950 1_556 S
H2803 C2781 0.984 . S
C2804 C2805 1.349 . S
C2804 C2806 1.327 . S
C2804 H2829 0.950 . S
C2805 C2804 1.349 . S
C2805 C2821 1.349 . S
C2806 C2804 1.327 . S
C2806 C2825 1.429 . S
C2806 H2830 0.950 . S
C2807 C2824 1.574 . S
C2807 C2826 1.368 . S
C2807 H2831 0.949 . S
H2808 C2812 0.949 . S
C2809 C2810 1.349 . S
C2809 C2811 1.327 . S
C2809 H2832 0.950 . S
C2810 C2809 1.349 . S
C2810 C2822 1.349 . S
C2811 C2809 1.327 . S
C2811 C2827 1.429 . S
C2811 H2833 0.950 . S
C2812 H2808 0.949 . S
C2812 C2820 1.574 . S
C2812 C2828 1.368 . S
H2813 C2821 0.950 . S
H2814 C2819 0.950 . S
H2815 C2820 0.949 . S
H2816 C2822 0.950 . S
H2817 C2823 0.950 . S
H2818 C2824 0.949 . S
C2819 H2814 0.950 . S
C2819 C2821 1.327 . S
C2819 C2825 1.429 . S
C2820 C2812 1.574 . S
C2820 H2815 0.949 . S
C2820 C2826 1.368 . S
C2821 C2805 1.349 . S
C2821 H2813 0.950 . S
C2821 C2819 1.327 . S
C2822 C2810 1.349 . S
C2822 H2816 0.950 . S
C2822 C2823 1.327 . S
C2823 H2817 0.950 . S
C2823 C2822 1.327 . S
C2823 C2827 1.429 . S
C2824 C2807 1.574 . S
C2824 H2818 0.949 . S
C2824 C2828 1.368 . S
C2825 C2806 1.429 . S
C2825 C2819 1.429 . S
C2825 C2826 1.523 . S
C2826 C2807 1.368 . S
C2826 C2820 1.368 . S
C2826 C2825 1.523 . S
C2827 C2811 1.429 . S
C2827 C2823 1.429 . S
C2827 C2828 1.523 . S
C2828 C2812 1.368 . S
C2828 C2824 1.368 . S
C2828 C2827 1.523 . S
H2829 C2804 0.950 . S
H2830 C2806 0.950 . S
H2831 C2807 0.949 . S
H2832 C2809 0.950 . S
H2833 C2811 0.950 . S
C2834 C2835 1.349 . S
C2834 C2836 1.327 . S
C2834 H2859 0.950 . S
C2835 C2834 1.349 . S
C2835 C2851 1.349 . S
C2836 C2834 1.327 . S
C2836 C2855 1.429 . S
C2836 H2860 0.950 . S
C2837 C2854 1.566 1_545 S
C2837 C2856 1.372 . S
C2837 H2861 0.953 . S
H2838 C2842 0.949 1_455 S
C2839 C2840 1.349 . S
C2839 C2841 1.327 . S
C2839 H2862 0.950 . S
C2840 C2839 1.349 . S
C2840 C2852 1.349 . S
C2841 C2839 1.327 . S
C2841 C2857 1.429 . S
C2841 H2863 0.950 . S
C2842 H2838 0.949 1_655 S
C2842 C2850 1.574 1_565 S
C2842 C2858 1.368 1_655 S
H2843 C2851 0.950 . S
H2844 C2849 0.950 . S
H2845 C2850 0.949 . S
H2846 C2852 0.950 . S
H2847 C2853 0.950 . S
H2848 C2854 0.949 . S
C2849 H2844 0.950 . S
C2849 C2851 1.327 . S
C2849 C2855 1.429 . S
C2850 C2842 1.574 1_545 S
C2850 H2845 0.949 . S
C2850 C2856 1.368 . S
C2851 C2835 1.349 . S
C2851 H2843 0.950 . S
C2851 C2849 1.327 . S
C2852 C2840 1.349 . S
C2852 H2846 0.950 . S
C2852 C2853 1.327 . S
C2853 H2847 0.950 . S
C2853 C2852 1.327 . S
C2853 C2857 1.429 . S
C2854 C2837 1.566 1_565 S
C2854 H2848 0.949 . S
C2854 C2858 1.368 1_655 S
C2855 C2836 1.429 . S
C2855 C2849 1.429 . S
C2855 C2856 1.523 . S
C2856 C2837 1.372 . S
C2856 C2850 1.368 . S
C2856 C2855 1.523 . S
C2857 C2841 1.429 . S
C2857 C2853 1.429 . S
C2857 C2858 1.523 . S
C2858 C2842 1.368 1_455 S
C2858 C2854 1.368 1_455 S
C2858 C2857 1.523 . S
H2859 C2834 0.950 . S
H2860 C2836 0.950 . S
H2861 C2837 0.953 . S
H2862 C2839 0.950 . S
H2863 C2841 0.950 . S
C2864 C2865 1.349 . S
C2864 C2866 1.327 . S
C2864 H2889 0.950 . S
C2865 C2864 1.349 . S
C2865 C2881 1.349 . S
C2866 C2864 1.327 . S
C2866 C2885 1.429 . S
C2866 H2890 0.950 . S
C2867 C2884 1.574 . S
C2867 C2886 1.368 . S
C2867 H2891 0.949 . S
H2868 C2872 0.949 . S
C2869 C2870 1.349 . S
C2869 C2871 1.327 . S
C2869 H2892 0.950 . S
C2870 C2869 1.349 . S
C2870 C2882 1.349 . S
C2871 C2869 1.327 . S
C2871 C2887 1.429 . S
C2871 H2893 0.950 . S
C2872 H2868 0.949 . S
C2872 C2880 1.574 . S
C2872 C2888 1.368 . S
H2873 C2881 0.950 . S
H2874 C2879 0.950 . S
H2875 C2880 0.949 . S
H2876 C2882 0.950 . S
H2877 C2883 0.950 . S
H2878 C2884 0.949 . S
C2879 H2874 0.950 . S
C2879 C2881 1.327 . S
C2879 C2885 1.429 . S
C2880 C2872 1.574 . S
C2880 H2875 0.949 . S
C2880 C2886 1.368 . S
C2881 C2865 1.349 . S
C2881 H2873 0.950 . S
C2881 C2879 1.327 . S
C2882 C2870 1.349 . S
C2882 H2876 0.950 . S
C2882 C2883 1.327 . S
C2883 H2877 0.950 . S
C2883 C2882 1.327 . S
C2883 C2887 1.429 . S
C2884 C2867 1.574 . S
C2884 H2878 0.949 . S
C2884 C2888 1.368 . S
C2885 C2866 1.429 . S
C2885 C2879 1.429 . S
C2885 C2886 1.523 . S
C2886 C2867 1.368 . S
C2886 C2880 1.368 . S
C2886 C2885 1.523 . S
C2887 C2871 1.429 . S
C2887 C2883 1.429 . S
C2887 C2888 1.523 . S
C2888 C2872 1.368 . S
C2888 C2884 1.368 . S
C2888 C2887 1.523 . S
H2889 C2864 0.950 . S
H2890 C2866 0.950 . S
H2891 C2867 0.949 . S
H2892 C2869 0.950 . S
H2893 C2871 0.950 . S
C2894 C2895 1.349 . S
C2894 C2896 1.327 . S
C2894 H2919 0.950 . S
C2895 C2894 1.349 . S
C2895 C2911 1.349 . S
C2896 C2894 1.327 . S
C2896 C2915 1.429 . S
C2896 H2920 0.950 . S
C2897 C2914 1.574 . S
C2897 C2916 1.368 . S
C2897 H2921 0.949 . S
H2898 C2902 0.949 . S
C2899 C2900 1.349 . S
C2899 C2901 1.327 . S
C2899 H2922 0.950 . S
C2900 C2899 1.349 . S
C2900 C2912 1.349 . S
C2901 C2899 1.327 . S
C2901 C2917 1.429 . S
C2901 H2923 0.950 . S
C2902 H2898 0.949 . S
C2902 C2910 1.574 1_655 S
C2902 C2918 1.368 . S
H2903 C2911 0.950 . S
H2904 C2909 0.950 . S
H2905 C2910 0.949 . S
H2906 C2912 0.950 . S
H2907 C2913 0.950 . S
H2908 C2914 0.949 . S
C2909 H2904 0.950 . S
C2909 C2911 1.327 . S
C2909 C2915 1.429 . S
C2910 C2902 1.574 1_455 S
C2910 H2905 0.949 . S
C2910 C2916 1.368 . S
C2911 C2895 1.349 . S
C2911 H2903 0.950 . S
C2911 C2909 1.327 . S
C2912 C2900 1.349 . S
C2912 H2906 0.950 . S
C2912 C2913 1.327 . S
C2913 H2907 0.950 . S
C2913 C2912 1.327 . S
C2913 C2917 1.429 . S
C2914 C2897 1.574 . S
C2914 H2908 0.949 . S
C2914 C2918 1.368 1_455 S
C2915 C2896 1.429 . S
C2915 C2909 1.429 . S
C2915 C2916 1.523 . S
C2916 C2897 1.368 . S
C2916 C2910 1.368 . S
C2916 C2915 1.523 . S
C2917 C2901 1.429 . S
C2917 C2913 1.429 . S
C2917 C2918 1.523 . S
C2918 C2902 1.368 . S
C2918 C2914 1.368 1_655 S
C2918 C2917 1.523 . S
H2919 C2894 0.950 . S
H2920 C2896 0.950 . S
H2921 C2897 0.949 . S
H2922 C2899 0.950 . S
H2923 C2901 0.950 . S
C2924 C2925 1.349 . S
C2924 C2926 1.327 . S
C2924 H2949 0.950 . S
C2925 C2924 1.349 . S
C2925 C2941 1.349 . S
C2926 C2924 1.327 . S
C2926 C2945 1.429 . S
C2926 H2950 0.950 . S
C2927 C2944 1.574 . S
C2927 C2946 1.368 . S
C2927 H2951 0.949 . S
H2928 C2932 0.949 . S
C2929 C2930 1.349 . S
C2929 C2931 1.327 . S
C2929 H2952 0.950 . S
C2930 C2929 1.349 . S
C2930 C2942 1.349 . S
C2931 C2929 1.327 . S
C2931 C2947 1.429 . S
C2931 H2953 0.950 . S
C2932 H2928 0.949 . S
C2932 C2940 1.574 . S
C2932 C2948 1.368 . S
H2933 C2941 0.950 . S
H2934 C2939 0.950 . S
H2935 C2940 0.949 . S
H2936 C2942 0.950 . S
H2937 C2943 0.950 . S
H2938 C2944 0.949 . S
C2939 H2934 0.950 . S
C2939 C2941 1.327 . S
C2939 C2945 1.429 . S
C2940 C2932 1.574 . S
C2940 H2935 0.949 . S
C2940 C2946 1.368 . S
C2941 C2925 1.349 . S
C2941 H2933 0.950 . S
C2941 C2939 1.327 . S
C2942 C2930 1.349 . S
C2942 H2936 0.950 . S
C2942 C2943 1.327 . S
C2943 H2937 0.950 . S
C2943 C2942 1.327 . S
C2943 C2947 1.429 . S
C2944 C2927 1.574 . S
C2944 H2938 0.949 . S
C2944 C2948 1.368 . S
C2945 C2926 1.429 . S
C2945 C2939 1.429 . S
C2945 C2946 1.523 . S
C2946 C2927 1.368 . S
C2946 C2940 1.368 . S
C2946 C2945 1.523 . S
C2947 C2931 1.429 . S
C2947 C2943 1.429 . S
C2947 C2948 1.523 . S
C2948 C2932 1.368 . S
C2948 C2944 1.368 . S
C2948 C2947 1.523 . S
H2949 C2924 0.950 . S
H2950 C2926 0.950 . S
H2951 C2927 0.949 . S
H2952 C2929 0.950 . S
H2953 C2931 0.950 . S
C2954 C2955 1.349 . S
C2954 C2956 1.327 . S
C2954 H2979 0.950 . S
C2955 C2954 1.349 . S
C2955 C2971 1.349 . S
C2956 C2954 1.327 . S
C2956 C2975 1.429 . S
C2956 H2980 0.950 . S
C2957 C2974 1.614 . S
C2957 C2976 1.368 . S
C2957 H2981 0.949 . S
H2958 C2962 0.949 . S
C2959 C2960 1.349 . S
C2959 C2961 1.327 . S
C2959 H2982 0.950 . S
C2960 C2959 1.349 . S
C2960 C2972 1.349 . S
C2961 C2959 1.327 . S
C2961 C2977 1.429 . S
C2961 H2983 0.950 . S
C2962 H2958 0.949 . S
C2962 C2970 1.574 . S
C2962 C2978 1.368 1_455 S
H2963 C2971 0.950 . S
H2964 C2969 0.950 . S
H2965 C2970 0.949 . S
H2966 C2972 0.950 . S
H2967 C2973 0.950 . S
H2968 C2974 0.919 1_655 S
C2969 H2964 0.950 . S
C2969 C2971 1.327 . S
C2969 C2975 1.429 . S
C2970 C2962 1.574 . S
C2970 H2965 0.949 . S
C2970 C2976 1.368 . S
C2971 C2955 1.349 . S
C2971 H2963 0.950 . S
C2971 C2969 1.327 . S
C2972 C2960 1.349 . S
C2972 H2966 0.950 . S
C2972 C2973 1.327 . S
C2973 H2967 0.950 . S
C2973 C2972 1.327 . S
C2973 C2977 1.429 . S
C2974 C2957 1.614 . S
C2974 H2968 0.919 1_455 S
C2974 C2978 1.363 1_455 S
C2975 C2956 1.429 . S
C2975 C2969 1.429 . S
C2975 C2976 1.523 . S
C2976 C2957 1.368 . S
C2976 C2970 1.368 . S
C2976 C2975 1.523 . S
C2977 C2961 1.429 . S
C2977 C2973 1.429 . S
C2977 C2978 1.523 . S
C2978 C2962 1.368 1_655 S
C2978 C2974 1.363 1_655 S
C2978 C2977 1.523 . S
H2979 C2954 0.950 . S
H2980 C2956 0.950 . S
H2981 C2957 0.949 . S
H2982 C2959 0.950 . S
H2983 C2961 0.950 . S
C2984 C2985 1.349 . S
C2984 C2986 1.327 . S
C2984 H3009 0.950 . S
C2985 C2984 1.349 . S
C2985 C3001 1.349 . S
C2986 C2984 1.327 . S
C2986 C3005 1.429 . S
C2986 H3010 0.950 . S
C2987 C3004 1.574 . S
C2987 C3006 1.368 . S
C2987 H3011 0.949 . S
H2988 C2992 0.949 . S
C2989 C2990 1.349 . S
C2989 C2991 1.327 . S
C2989 H3012 0.950 . S
C2990 C2989 1.349 . S
C2990 C3002 1.349 . S
C2991 C2989 1.327 . S
C2991 C3007 1.429 . S
C2991 H3013 0.950 . S
C2992 H2988 0.949 . S
C2992 C3000 1.574 . S
C2992 C3008 1.368 . S
H2993 C3001 0.950 . S
H2994 C2999 0.950 . S
H2995 C3000 0.949 . S
H2996 C3002 0.950 . S
H2997 C3003 0.950 . S
H2998 C3004 0.949 . S
C2999 H2994 0.950 . S
C2999 C3001 1.327 . S
C2999 C3005 1.429 . S
C3000 C2992 1.574 . S
C3000 H2995 0.949 . S
C3000 C3006 1.368 . S
C3001 C2985 1.349 . S
C3001 H2993 0.950 . S
C3001 C2999 1.327 . S
C3002 C2990 1.349 . S
C3002 H2996 0.950 . S
C3002 C3003 1.327 . S
C3003 H2997 0.950 . S
C3003 C3002 1.327 . S
C3003 C3007 1.429 . S
C3004 C2987 1.574 . S
C3004 H2998 0.949 . S
C3004 C3008 1.368 . S
C3005 C2986 1.429 . S
C3005 C2999 1.429 . S
C3005 C3006 1.523 . S
C3006 C2987 1.368 . S
C3006 C3000 1.368 . S
C3006 C3005 1.523 . S
C3007 C2991 1.429 . S
C3007 C3003 1.429 . S
C3007 C3008 1.523 . S
C3008 C2992 1.368 . S
C3008 C3004 1.368 . S
C3008 C3007 1.523 . S
H3009 C2984 0.950 . S
H3010 C2986 0.950 . S
H3011 C2987 0.949 . S
H3012 C2989 0.950 . S
H3013 C2991 0.950 . S
C3014 C3015 1.349 . S
C3014 C3016 1.327 . S
C3014 H3039 0.950 . S
C3015 C3014 1.349 . S
C3015 C3031 1.349 . S
C3016 C3014 1.327 . S
C3016 C3035 1.429 . S
C3016 H3040 0.950 . S
C3017 C3034 1.574 . S
C3017 C3036 1.368 1_655 S
C3017 H3041 0.972 . S
H3018 C3022 0.949 . S
C3019 C3020 1.349 . S
C3019 C3021 1.327 . S
C3019 H3042 0.950 . S
C3020 C3019 1.349 . S
C3020 C3032 1.349 . S
C3021 C3019 1.327 . S
C3021 C3037 1.429 . S
C3021 H3043 0.950 . S
C3022 H3018 0.949 . S
C3022 C3030 1.574 . S
C3022 C3038 1.368 . S
H3023 C3031 0.950 . S
H3024 C3029 0.950 . S
H3025 C3030 0.949 1_455 S
H3026 C3032 0.950 . S
H3027 C3033 0.950 . S
H3028 C3034 0.949 . S
C3029 H3024 0.950 . S
C3029 C3031 1.327 . S
C3029 C3035 1.429 . S
C3030 C3022 1.574 . S
C3030 H3025 0.949 1_655 S
C3030 C3036 1.368 1_655 S
C3031 C3015 1.349 . S
C3031 H3023 0.950 . S
C3031 C3029 1.327 . S
C3032 C3020 1.349 . S
C3032 H3026 0.950 . S
C3032 C3033 1.327 . S
C3033 H3027 0.950 . S
C3033 C3032 1.327 . S
C3033 C3037 1.429 . S
C3034 C3017 1.574 . S
C3034 H3028 0.949 . S
C3034 C3038 1.368 . S
C3035 C3016 1.429 . S
C3035 C3029 1.429 . S
C3035 C3036 1.523 . S
C3036 C3017 1.368 1_455 S
C3036 C3030 1.368 1_455 S
C3036 C3035 1.523 . S
C3037 C3021 1.429 . S
C3037 C3033 1.429 . S
C3037 C3038 1.523 . S
C3038 C3022 1.368 . S
C3038 C3034 1.368 . S
C3038 C3037 1.523 . S
H3039 C3014 0.950 . S
H3040 C3016 0.950 . S
H3041 C3017 0.972 . S
H3042 C3019 0.950 . S
H3043 C3021 0.950 . S
C3044 C3045 1.349 . S
C3044 C3046 1.327 . S
C3044 H3069 0.950 . S
C3045 C3044 1.349 . S
C3045 C3061 1.349 . S
C3046 C3044 1.327 . S
C3046 C3065 1.429 . S
C3046 H3070 0.950 . S
C3047 C3064 1.574 . S
C3047 C3066 1.368 . S
C3047 H3071 0.949 . S
H3048 C3052 0.949 . S
C3049 C3050 1.349 . S
C3049 C3051 1.327 . S
C3049 H3072 0.950 . S
C3050 C3049 1.349 . S
C3050 C3062 1.349 . S
C3051 C3049 1.327 . S
C3051 C3067 1.429 . S
C3051 H3073 0.950 . S
C3052 H3048 0.949 . S
C3052 C3060 1.574 . S
C3052 C3068 1.368 . S
H3053 C3061 0.950 . S
H3054 C3059 0.950 . S
H3055 C3060 0.949 . S
H3056 C3062 0.950 . S
H3057 C3063 0.950 . S
H3058 C3064 0.949 . S
C3059 H3054 0.950 . S
C3059 C3061 1.327 . S
C3059 C3065 1.429 . S
C3060 C3052 1.574 . S
C3060 H3055 0.949 . S
C3060 C3066 1.368 . S
C3061 C3045 1.349 . S
C3061 H3053 0.950 . S
C3061 C3059 1.327 . S
C3062 C3050 1.349 . S
C3062 H3056 0.950 . S
C3062 C3063 1.327 . S
C3063 H3057 0.950 . S
C3063 C3062 1.327 . S
C3063 C3067 1.429 . S
C3064 C3047 1.574 . S
C3064 H3058 0.949 . S
C3064 C3068 1.368 . S
C3065 C3046 1.429 . S
C3065 C3059 1.429 . S
C3065 C3066 1.523 . S
C3066 C3047 1.368 . S
C3066 C3060 1.368 . S
C3066 C3065 1.523 . S
C3067 C3051 1.429 . S
C3067 C3063 1.429 . S
C3067 C3068 1.523 . S
C3068 C3052 1.368 . S
C3068 C3064 1.368 . S
C3068 C3067 1.523 . S
H3069 C3044 0.950 . S
H3070 C3046 0.950 . S
H3071 C3047 0.949 . S
H3072 C3049 0.950 . S
H3073 C3051 0.950 . S
C3074 C3075 1.349 . S
C3074 C3076 1.327 . S
C3074 H3099 0.950 . S
C3075 C3074 1.349 . S
C3075 C3091 1.349 . S
C3076 C3074 1.327 . S
C3076 C3095 1.429 . S
C3076 H3100 0.950 . S
C3077 C3094 1.540 1_655 S
C3077 C3096 1.368 . S
C3077 H3101 0.949 . S
H3078 C3082 0.949 . S
C3079 C3080 1.349 . S
C3079 C3081 1.327 . S
C3079 H3102 0.950 . S
C3080 C3079 1.349 . S
C3080 C3092 1.349 . S
C3081 C3079 1.327 . S
C3081 C3097 1.429 . S
C3081 H3103 0.950 . S
C3082 H3078 0.949 . S
C3082 C3090 1.574 . S
C3082 C3098 1.368 1_655 S
H3083 C3091 0.950 . S
H3084 C3089 0.950 . S
H3085 C3090 0.949 . S
H3086 C3092 0.950 . S
H3087 C3093 0.950 . S
H3088 C3094 0.978 . S
C3089 H3084 0.950 . S
C3089 C3091 1.327 . S
C3089 C3095 1.429 . S
C3090 C3082 1.574 . S
C3090 H3085 0.949 . S
C3090 C3096 1.368 . S
C3091 C3075 1.349 . S
C3091 H3083 0.950 . S
C3091 C3089 1.327 . S
C3092 C3080 1.349 . S
C3092 H3086 0.950 . S
C3092 C3093 1.327 . S
C3093 H3087 0.950 . S
C3093 C3092 1.327 . S
C3093 C3097 1.429 . S
C3094 C3077 1.540 1_455 S
C3094 H3088 0.978 . S
C3094 C3098 1.371 . S
C3095 C3076 1.429 . S
C3095 C3089 1.429 . S
C3095 C3096 1.523 . S
C3096 C3077 1.368 . S
C3096 C3090 1.368 . S
C3096 C3095 1.523 . S
C3097 C3081 1.429 . S
C3097 C3093 1.429 . S
C3097 C3098 1.523 . S
C3098 C3082 1.368 1_455 S
C3098 C3094 1.371 . S
C3098 C3097 1.523 . S
H3099 C3074 0.950 . S
H3100 C3076 0.950 . S
H3101 C3077 0.949 . S
H3102 C3079 0.950 . S
H3103 C3081 0.950 . S
C3104 C3105 1.349 . S
C3104 C3106 1.327 . S
C3104 H3129 0.950 . S
C3105 C3104 1.349 . S
C3105 C3121 1.349 . S
C3106 C3104 1.327 . S
C3106 C3125 1.429 . S
C3106 H3130 0.950 . S
C3107 C3124 1.574 1_545 S
C3107 C3126 1.368 . S
C3107 H3131 0.949 . S
H3108 C3112 0.949 . S
C3109 C3110 1.349 . S
C3109 C3111 1.327 . S
C3109 H3132 0.950 . S
C3110 C3109 1.349 . S
C3110 C3122 1.349 . S
C3111 C3109 1.327 . S
C3111 C3127 1.429 . S
C3111 H3133 0.950 . S
C3112 H3108 0.949 . S
C3112 C3120 1.574 . S
C3112 C3128 1.368 1_545 S
H3113 C3121 0.950 . S
H3114 C3119 0.950 . S
H3115 C3120 0.949 . S
H3116 C3122 0.950 . S
H3117 C3123 0.950 . S
H3118 C3124 0.949 . S
C3119 H3114 0.950 . S
C3119 C3121 1.327 . S
C3119 C3125 1.429 . S
C3120 C3112 1.574 . S
C3120 H3115 0.949 . S
C3120 C3126 1.368 . S
C3121 C3105 1.349 . S
C3121 H3113 0.950 . S
C3121 C3119 1.327 . S
C3122 C3110 1.349 . S
C3122 H3116 0.950 . S
C3122 C3123 1.327 . S
C3123 H3117 0.950 . S
C3123 C3122 1.327 . S
C3123 C3127 1.429 . S
C3124 C3107 1.574 1_565 S
C3124 H3118 0.949 . S
C3124 C3128 1.368 . S
C3125 C3106 1.429 . S
C3125 C3119 1.429 . S
C3125 C3126 1.523 . S
C3126 C3107 1.368 . S
C3126 C3120 1.368 . S
C3126 C3125 1.523 . S
C3127 C3111 1.429 . S
C3127 C3123 1.429 . S
C3127 C3128 1.523 . S
C3128 C3112 1.368 1_565 S
C3128 C3124 1.368 . S
C3128 C3127 1.523 . S
H3129 C3104 0.950 . S
H3130 C3106 0.950 . S
H3131 C3107 0.949 . S
H3132 C3109 0.950 . S
H3133 C3111 0.950 . S
C3134 C3135 1.349 . S
C3134 C3136 1.327 . S
C3134 H3159 0.950 . S
C3135 C3134 1.349 . S
C3135 C3151 1.349 . S
C3136 C3134 1.327 . S
C3136 C3155 1.429 . S
C3136 H3160 0.950 . S
C3137 C3154 1.574 . S
C3137 C3156 1.368 . S
C3137 H3161 0.949 . S
H3138 C3142 0.949 . S
C3139 C3140 1.349 . S
C3139 C3141 1.327 . S
C3139 H3162 0.950 . S
C3140 C3139 1.349 . S
C3140 C3152 1.349 . S
C3141 C3139 1.327 . S
C3141 C3157 1.429 . S
C3141 H3163 0.950 . S
C3142 H3138 0.949 . S
C3142 C3150 1.574 . S
C3142 C3158 1.368 . S
H3143 C3151 0.950 . S
H3144 C3149 0.950 . S
H3145 C3150 0.949 . S
H3146 C3152 0.950 . S
H3147 C3153 0.950 . S
H3148 C3154 0.949 . S
C3149 H3144 0.950 . S
C3149 C3151 1.327 . S
C3149 C3155 1.429 . S
C3150 C3142 1.574 . S
C3150 H3145 0.949 . S
C3150 C3156 1.368 . S
C3151 C3135 1.349 . S
C3151 H3143 0.950 . S
C3151 C3149 1.327 . S
C3152 C3140 1.349 . S
C3152 H3146 0.950 . S
C3152 C3153 1.327 . S
C3153 H3147 0.950 . S
C3153 C3152 1.327 . S
C3153 C3157 1.429 . S
C3154 C3137 1.574 . S
C3154 H3148 0.949 . S
C3154 C3158 1.368 . S
C3155 C3136 1.429 . S
C3155 C3149 1.429 . S
C3155 C3156 1.523 . S
C3156 C3137 1.368 . S
C3156 C3150 1.368 . S
C3156 C3155 1.523 . S
C3157 C3141 1.429 . S
C3157 C3153 1.429 . S
C3157 C3158 1.523 . S
C3158 C3142 1.368 . S
C3158 C3154 1.368 . S
C3158 C3157 1.523 . S
H3159 C3134 0.950 . S
H3160 C3136 0.950 . S
H3161 C3137 0.949 . S
H3162 C3139 0.950 . S
H3163 C3141 0.950 . S
C3164 C3165 1.349 . S
C3164 C3166 1.327 . S
C3164 H3189 0.950 . S
C3165 C3164 1.349 . S
C3165 C3181 1.349 . S
C3166 C3164 1.327 . S
C3166 C3185 1.429 . S
C3166 H3190 0.950 . S
C3167 C3184 1.574 . S
C3167 C3186 1.368 . S
C3167 H3191 0.949 . S
H3168 C3172 0.949 . S
C3169 C3170 1.349 . S
C3169 C3171 1.327 . S
C3169 H3192 0.950 . S
C3170 C3169 1.349 . S
C3170 C3182 1.349 . S
C3171 C3169 1.327 . S
C3171 C3187 1.429 . S
C3171 H3193 0.950 . S
C3172 H3168 0.949 . S
C3172 C3180 1.574 . S
C3172 C3188 1.368 . S
H3173 C3181 0.950 . S
H3174 C3179 0.950 . S
H3175 C3180 0.949 . S
H3176 C3182 0.950 . S
H3177 C3183 0.950 . S
H3178 C3184 0.949 . S
C3179 H3174 0.950 . S
C3179 C3181 1.327 . S
C3179 C3185 1.429 . S
C3180 C3172 1.574 . S
C3180 H3175 0.949 . S
C3180 C3186 1.368 . S
C3181 C3165 1.349 . S
C3181 H3173 0.950 . S
C3181 C3179 1.327 . S
C3182 C3170 1.349 . S
C3182 H3176 0.950 . S
C3182 C3183 1.327 . S
C3183 H3177 0.950 . S
C3183 C3182 1.327 . S
C3183 C3187 1.429 . S
C3184 C3167 1.574 . S
C3184 H3178 0.949 . S
C3184 C3188 1.368 . S
C3185 C3166 1.429 . S
C3185 C3179 1.429 . S
C3185 C3186 1.523 . S
C3186 C3167 1.368 . S
C3186 C3180 1.368 . S
C3186 C3185 1.523 . S
C3187 C3171 1.429 . S
C3187 C3183 1.429 . S
C3187 C3188 1.523 . S
C3188 C3172 1.368 . S
C3188 C3184 1.368 . S
C3188 C3187 1.523 . S
H3189 C3164 0.950 . S
H3190 C3166 0.950 . S
H3191 C3167 0.949 . S
H3192 C3169 0.950 . S
H3193 C3171 0.950 . S
C3194 C3195 1.349 . S
C3194 C3196 1.327 . S
C3194 H3219 0.950 . S
C3195 C3194 1.349 . S
C3195 C3211 1.349 . S
C3196 C3194 1.327 . S
C3196 C3215 1.429 . S
C3196 H3220 0.950 . S
C3197 C3214 1.574 1_565 S
C3197 C3216 1.368 . S
C3197 H3221 0.949 . S
H3198 C3202 0.949 . S
C3199 C3200 1.349 . S
C3199 C3201 1.327 . S
C3199 H3222 0.950 . S
C3200 C3199 1.349 . S
C3200 C3212 1.349 . S
C3201 C3199 1.327 . S
C3201 C3217 1.429 . S
C3201 H3223 0.950 . S
C3202 H3198 0.949 . S
C3202 C3210 1.574 . S
C3202 C3218 1.368 . S
H3203 C3211 0.950 . S
H3204 C3209 0.950 . S
H3205 C3210 0.949 . S
H3206 C3212 0.950 . S
H3207 C3213 0.950 . S
H3208 C3214 0.949 1_565 S
C3209 H3204 0.950 . S
C3209 C3211 1.327 . S
C3209 C3215 1.429 . S
C3210 C3202 1.574 . S
C3210 H3205 0.949 . S
C3210 C3216 1.368 1_545 S
C3211 C3195 1.349 . S
C3211 H3203 0.950 . S
C3211 C3209 1.327 . S
C3212 C3200 1.349 . S
C3212 H3206 0.950 . S
C3212 C3213 1.327 . S
C3213 H3207 0.950 . S
C3213 C3212 1.327 . S
C3213 C3217 1.429 . S
C3214 C3197 1.574 1_545 S
C3214 H3208 0.949 1_545 S
C3214 C3218 1.368 . S
C3215 C3196 1.429 . S
C3215 C3209 1.429 . S
C3215 C3216 1.523 . S
C3216 C3197 1.368 . S
C3216 C3210 1.368 1_565 S
C3216 C3215 1.523 . S
C3217 C3201 1.429 . S
C3217 C3213 1.429 . S
C3217 C3218 1.523 . S
C3218 C3202 1.368 . S
C3218 C3214 1.368 . S
C3218 C3217 1.523 . S
H3219 C3194 0.950 . S
H3220 C3196 0.950 . S
H3221 C3197 0.949 . S
H3222 C3199 0.950 . S
H3223 C3201 0.950 . S
C3224 C3225 1.349 . S
C3224 C3226 1.327 . S
C3224 H3249 0.950 . S
C3225 C3224 1.349 . S
C3225 C3241 1.349 . S
C3226 C3224 1.327 . S
C3226 C3245 1.429 . S
C3226 H3250 0.950 . S
C3227 C3244 1.574 . S
C3227 C3246 1.368 . S
C3227 H3251 0.949 . S
H3228 C3232 0.949 . S
C3229 C3230 1.349 . S
C3229 C3231 1.327 . S
C3229 H3252 0.950 . S
C3230 C3229 1.349 . S
C3230 C3242 1.349 . S
C3231 C3229 1.327 . S
C3231 C3247 1.429 . S
C3231 H3253 0.950 . S
C3232 H3228 0.949 . S
C3232 C3240 1.561 1_545 S
C3232 C3248 1.368 . S
H3233 C3241 0.950 . S
H3234 C3239 0.950 . S
H3235 C3240 0.945 1_545 S
H3236 C3242 0.950 . S
H3237 C3243 0.950 . S
H3238 C3244 0.949 . S
C3239 H3234 0.950 . S
C3239 C3241 1.327 . S
C3239 C3245 1.429 . S
C3240 C3232 1.561 1_565 S
C3240 H3235 0.945 1_565 S
C3240 C3246 1.387 . S
C3241 C3225 1.349 . S
C3241 H3233 0.950 . S
C3241 C3239 1.327 . S
C3242 C3230 1.349 . S
C3242 H3236 0.950 . S
C3242 C3243 1.327 . S
C3243 H3237 0.950 . S
C3243 C3242 1.327 . S
C3243 C3247 1.429 . S
C3244 C3227 1.574 . S
C3244 H3238 0.949 . S
C3244 C3248 1.368 1_565 S
C3245 C3226 1.429 . S
C3245 C3239 1.429 . S
C3245 C3246 1.523 . S
C3246 C3227 1.368 . S
C3246 C3240 1.387 . S
C3246 C3245 1.523 . S
C3247 C3231 1.429 . S
C3247 C3243 1.429 . S
C3247 C3248 1.523 . S
C3248 C3232 1.368 . S
C3248 C3244 1.368 1_545 S
C3248 C3247 1.523 . S
H3249 C3224 0.950 . S
H3250 C3226 0.950 . S
H3251 C3227 0.949 . S
H3252 C3229 0.950 . S
H3253 C3231 0.950 . S
C3254 C3255 1.349 . S
C3254 C3256 1.327 . S
C3254 H3279 0.950 . S
C3255 C3254 1.349 . S
C3255 C3271 1.349 . S
C3256 C3254 1.327 . S
C3256 C3275 1.429 . S
C3256 H3280 0.950 . S
C3257 C3274 1.574 . S
C3257 C3276 1.368 . S
C3257 H3281 0.949 . S
H3258 C3262 0.949 . S
C3259 C3260 1.349 . S
C3259 C3261 1.327 . S
C3259 H3282 0.950 . S
C3260 C3259 1.349 . S
C3260 C3272 1.349 . S
C3261 C3259 1.327 . S
C3261 C3277 1.429 . S
C3261 H3283 0.950 . S
C3262 H3258 0.949 . S
C3262 C3270 1.574 . S
C3262 C3278 1.368 . S
H3263 C3271 0.950 . S
H3264 C3269 0.950 . S
H3265 C3270 0.949 . S
H3266 C3272 0.950 . S
H3267 C3273 0.950 . S
H3268 C3274 0.949 . S
C3269 H3264 0.950 . S
C3269 C3271 1.327 . S
C3269 C3275 1.429 . S
C3270 C3262 1.574 . S
C3270 H3265 0.949 . S
C3270 C3276 1.368 . S
C3271 C3255 1.349 . S
C3271 H3263 0.950 . S
C3271 C3269 1.327 . S
C3272 C3260 1.349 . S
C3272 H3266 0.950 . S
C3272 C3273 1.327 . S
C3273 H3267 0.950 . S
C3273 C3272 1.327 . S
C3273 C3277 1.429 . S
C3274 C3257 1.574 . S
C3274 H3268 0.949 . S
C3274 C3278 1.368 . S
C3275 C3256 1.429 . S
C3275 C3269 1.429 . S
C3275 C3276 1.523 . S
C3276 C3257 1.368 . S
C3276 C3270 1.368 . S
C3276 C3275 1.523 . S
C3277 C3261 1.429 . S
C3277 C3273 1.429 . S
C3277 C3278 1.523 . S
C3278 C3262 1.368 . S
C3278 C3274 1.368 . S
C3278 C3277 1.523 . S
H3279 C3254 0.950 . S
H3280 C3256 0.950 . S
H3281 C3257 0.949 . S
H3282 C3259 0.950 . S
H3283 C3261 0.950 . S
C3284 C3285 1.349 . S
C3284 C3286 1.327 . S
C3284 H3309 0.950 . S
C3285 C3284 1.349 . S
C3285 C3301 1.349 . S
C3286 C3284 1.327 . S
C3286 C3305 1.429 . S
C3286 H3310 0.950 . S
C3287 C3304 1.574 . S
C3287 C3306 1.368 . S
C3287 H3311 0.949 . S
H3288 C3292 0.949 . S
C3289 C3290 1.349 . S
C3289 C3291 1.327 . S
C3289 H3312 0.950 . S
C3290 C3289 1.349 . S
C3290 C3302 1.349 . S
C3291 C3289 1.327 . S
C3291 C3307 1.429 . S
C3291 H3313 0.950 . S
C3292 H3288 0.949 . S
C3292 C3300 1.574 . S
C3292 C3308 1.368 . S
H3293 C3301 0.950 . S
H3294 C3299 0.950 . S
H3295 C3300 0.949 . S
H3296 C3302 0.950 . S
H3297 C3303 0.950 . S
H3298 C3304 0.949 . S
C3299 H3294 0.950 . S
C3299 C3301 1.327 . S
C3299 C3305 1.429 . S
C3300 C3292 1.574 . S
C3300 H3295 0.949 . S
C3300 C3306 1.368 . S
C3301 C3285 1.349 . S
C3301 H3293 0.950 . S
C3301 C3299 1.327 . S
C3302 C3290 1.349 . S
C3302 H3296 0.950 . S
C3302 C3303 1.327 . S
C3303 H3297 0.950 . S
C3303 C3302 1.327 . S
C3303 C3307 1.429 . S
C3304 C3287 1.574 . S
C3304 H3298 0.949 . S
C3304 C3308 1.368 . S
C3305 C3286 1.429 . S
C3305 C3299 1.429 . S
C3305 C3306 1.523 . S
C3306 C3287 1.368 . S
C3306 C3300 1.368 . S
C3306 C3305 1.523 . S
C3307 C3291 1.429 . S
C3307 C3303 1.429 . S
C3307 C3308 1.523 . S
C3308 C3292 1.368 . S
C3308 C3304 1.368 . S
C3308 C3307 1.523 . S
H3309 C3284 0.950 . S
H3310 C3286 0.950 . S
H3311 C3287 0.949 . S
H3312 C3289 0.950 . S
H3313 C3291 0.950 . S
C3314 C3315 1.349 . S
C3314 C3316 1.327 . S
C3314 H3339 0.950 . S
C3315 C3314 1.349 . S
C3315 C3331 1.349 . S
C3316 C3314 1.327 . S
C3316 C3335 1.429 . S
C3316 H3340 0.950 . S
C3317 C3334 1.574 . S
C3317 C3336 1.368 1_545 S
C3317 H3341 0.949 . S
H3318 C3322 0.949 . S
C3319 C3320 1.349 . S
C3319 C3321 1.327 . S
C3319 H3342 0.950 . S
C3320 C3319 1.349 . S
C3320 C3332 1.349 . S
C3321 C3319 1.327 . S
C3321 C3337 1.429 . S
C3321 H3343 0.950 . S
C3322 H3318 0.949 . S
C3322 C3330 1.574 . S
C3322 C3338 1.368 1_565 S
H3323 C3331 0.950 . S
H3324 C3329 0.950 . S
H3325 C3330 0.949 . S
H3326 C3332 0.950 . S
H3327 C3333 0.942 1_565 S
H3328 C3334 0.949 . S
C3329 H3324 0.950 . S
C3329 C3331 1.327 . S
C3329 C3335 1.429 . S
C3330 C3322 1.574 . S
C3330 H3325 0.949 . S
C3330 C3336 1.368 . S
C3331 C3315 1.349 . S
C3331 H3323 0.950 . S
C3331 C3329 1.327 . S
C3332 C3320 1.349 . S
C3332 H3326 0.950 . S
C3332 C3333 1.327 . S
C3333 H3327 0.942 1_545 S
C3333 C3332 1.327 . S
C3333 C3337 1.429 . S
C3334 C3317 1.574 . S
C3334 H3328 0.949 . S
C3334 C3338 1.368 . S
C3335 C3316 1.429 . S
C3335 C3329 1.429 . S
C3335 C3336 1.523 . S
C3336 C3317 1.368 1_565 S
C3336 C3330 1.368 . S
C3336 C3335 1.523 . S
C3337 C3321 1.429 . S
C3337 C3333 1.429 . S
C3337 C3338 1.523 . S
C3338 C3322 1.368 1_545 S
C3338 C3334 1.368 . S
C3338 C3337 1.523 . S
H3339 C3314 0.950 . S
H3340 C3316 0.950 . S
H3341 C3317 0.949 . S
H3342 C3319 0.950 . S
H3343 C3321 0.950 . S
C3344 C3345 1.386 . S
C3344 C3346 1.322 1_556 S
C3344 H3369 0.919 1_556 S
C3345 C3344 1.386 . S
C3345 C3361 1.349 . S
C3346 C3344 1.322 1_554 S
C3346 C3365 1.429 1_554 S
C3346 H3370 0.950 . S
C3347 C3364 1.574 . S
C3347 C3366 1.368 . S
C3347 H3371 0.949 . S
H3348 C3352 0.949 . S
C3349 C3350 1.349 1_556 S
C3349 C3351 1.327 . S
C3349 H3372 0.950 . S
C3350 C3349 1.349 1_554 S
C3350 C3362 1.349 . S
C3351 C3349 1.327 . S
C3351 C3367 1.429 . S
C3351 H3373 0.950 . S
C3352 H3348 0.949 . S
C3352 C3360 1.574 . S
C3352 C3368 1.368 1_554 S
H3353 C3361 0.950 . S
H3354 C3359 0.950 . S
H3355 C3360 0.949 . S
H3356 C3362 0.950 . S
H3357 C3363 0.950 . S
H3358 C3364 0.949 . S
C3359 H3354 0.950 . S
C3359 C3361 1.327 . S
C3359 C3365 1.429 . S
C3360 C3352 1.574 . S
C3360 H3355 0.949 . S
C3360 C3366 1.368 1_554 S
C3361 C3345 1.349 . S
C3361 H3353 0.950 . S
C3361 C3359 1.327 . S
C3362 C3350 1.349 . S
C3362 H3356 0.950 . S
C3362 C3363 1.327 . S
C3363 H3357 0.950 . S
C3363 C3362 1.327 . S
C3363 C3367 1.429 1_554 S
C3364 C3347 1.574 . S
C3364 H3358 0.949 . S
C3364 C3368 1.368 . S
C3365 C3346 1.429 1_556 S
C3365 C3359 1.429 . S
C3365 C3366 1.523 . S
C3366 C3347 1.368 . S
C3366 C3360 1.368 1_556 S
C3366 C3365 1.523 . S
C3367 C3351 1.429 . S
C3367 C3363 1.429 1_556 S
C3367 C3368 1.523 . S
C3368 C3352 1.368 1_556 S
C3368 C3364 1.368 . S
C3368 C3367 1.523 . S
H3369 C3344 0.919 1_554 S
H3370 C3346 0.950 . S
H3371 C3347 0.949 . S
H3372 C3349 0.950 . S
H3373 C3351 0.950 . S
C3374 C3375 1.349 . S
C3374 C3376 1.327 . S
C3374 H3399 0.950 . S
C3375 C3374 1.349 . S
C3375 C3391 1.349 1_554 S
C3376 C3374 1.327 . S
C3376 C3395 1.429 1_554 S
C3376 H3400 0.950 . S
C3377 C3394 1.574 . S
C3377 C3396 1.368 . S
C3377 H3401 0.949 . S
H3378 C3382 0.949 . S
C3379 C3380 1.349 . S
C3379 C3381 1.327 . S
C3379 H3402 0.950 . S
C3380 C3379 1.349 . S
C3380 C3392 1.298 1_556 S
C3381 C3379 1.327 . S
C3381 C3397 1.429 . S
C3381 H3403 0.950 . S
C3382 H3378 0.949 . S
C3382 C3390 1.574 . S
C3382 C3398 1.368 1_554 S
H3383 C3391 0.950 . S
H3384 C3389 0.950 . S
H3385 C3390 0.949 . S
H3386 C3392 0.996 . S
H3387 C3393 0.950 . S
H3388 C3394 0.949 . S
C3389 H3384 0.950 . S
C3389 C3391 1.327 . S
C3389 C3395 1.429 . S
C3390 C3382 1.574 . S
C3390 H3385 0.949 . S
C3390 C3396 1.368 1_554 S
C3391 C3375 1.349 1_556 S
C3391 H3383 0.950 . S
C3391 C3389 1.327 . S
C3392 C3380 1.298 1_554 S
C3392 H3386 0.996 . S
C3392 C3393 1.336 . S
C3393 H3387 0.950 . S
C3393 C3392 1.336 . S
C3393 C3397 1.429 1_554 S
C3394 C3377 1.574 . S
C3394 H3388 0.949 . S
C3394 C3398 1.368 . S
C3395 C3376 1.429 1_556 S
C3395 C3389 1.429 . S
C3395 C3396 1.523 . S
C3396 C3377 1.368 . S
C3396 C3390 1.368 1_556 S
C3396 C3395 1.523 . S
C3397 C3381 1.429 . S
C3397 C3393 1.429 1_556 S
C3397 C3398 1.523 . S
C3398 C3382 1.368 1_556 S
C3398 C3394 1.368 . S
C3398 C3397 1.523 . S
H3399 C3374 0.950 . S
H3400 C3376 0.950 . S
H3401 C3377 0.949 . S
H3402 C3379 0.950 . S
H3403 C3381 0.950 . S
C3404 C3405 1.349 . S
C3404 C3406 1.327 . S
C3404 H3429 0.950 . S
C3405 C3404 1.349 . S
C3405 C3421 1.349 . S
C3406 C3404 1.327 . S
C3406 C3425 1.429 . S
C3406 H3430 0.950 . S
C3407 C3424 1.574 . S
C3407 C3426 1.368 . S
C3407 H3431 0.949 . S
H3408 C3412 0.949 . S
C3409 C3410 1.349 . S
C3409 C3411 1.327 . S
C3409 H3432 0.950 . S
C3410 C3409 1.349 . S
C3410 C3422 1.349 . S
C3411 C3409 1.327 . S
C3411 C3427 1.429 . S
C3411 H3433 0.950 . S
C3412 H3408 0.949 . S
C3412 C3420 1.574 . S
C3412 C3428 1.368 . S
H3413 C3421 0.950 . S
H3414 C3419 0.950 . S
H3415 C3420 0.949 . S
H3416 C3422 0.950 . S
H3417 C3423 0.950 . S
H3418 C3424 0.949 . S
C3419 H3414 0.950 . S
C3419 C3421 1.327 . S
C3419 C3425 1.429 . S
C3420 C3412 1.574 . S
C3420 H3415 0.949 . S
C3420 C3426 1.368 . S
C3421 C3405 1.349 . S
C3421 H3413 0.950 . S
C3421 C3419 1.327 . S
C3422 C3410 1.349 . S
C3422 H3416 0.950 . S
C3422 C3423 1.327 . S
C3423 H3417 0.950 . S
C3423 C3422 1.327 . S
C3423 C3427 1.429 . S
C3424 C3407 1.574 . S
C3424 H3418 0.949 . S
C3424 C3428 1.368 . S
C3425 C3406 1.429 . S
C3425 C3419 1.429 . S
C3425 C3426 1.523 . S
C3426 C3407 1.368 . S
C3426 C3420 1.368 . S
C3426 C3425 1.523 . S
C3427 C3411 1.429 . S
C3427 C3423 1.429 . S
C3427 C3428 1.523 . S
C3428 C3412 1.368 . S
C3428 C3424 1.368 . S
C3428 C3427 1.523 . S
H3429 C3404 0.950 . S
H3430 C3406 0.950 . S
H3431 C3407 0.949 . S
H3432 C3409 0.950 . S
H3433 C3411 0.950 . S
C3434 C3435 1.349 . S
C3434 C3436 1.327 . S
C3434 H3459 0.950 . S
C3435 C3434 1.349 . S
C3435 C3451 1.349 . S
C3436 C3434 1.327 . S
C3436 C3455 1.429 . S
C3436 H3460 0.950 . S
C3437 C3454 1.574 . S
C3437 C3456 1.368 . S
C3437 H3461 0.949 . S
H3438 C3442 0.949 . S
C3439 C3440 1.349 . S
C3439 C3441 1.327 . S
C3439 H3462 0.950 . S
C3440 C3439 1.349 . S
C3440 C3452 1.349 . S
C3441 C3439 1.327 . S
C3441 C3457 1.429 . S
C3441 H3463 0.950 . S
C3442 H3438 0.949 . S
C3442 C3450 1.574 . S
C3442 C3458 1.368 . S
H3443 C3451 0.950 . S
H3444 C3449 0.950 . S
H3445 C3450 0.949 . S
H3446 C3452 0.950 . S
H3447 C3453 0.950 . S
H3448 C3454 0.949 . S
C3449 H3444 0.950 . S
C3449 C3451 1.327 . S
C3449 C3455 1.429 . S
C3450 C3442 1.574 . S
C3450 H3445 0.949 . S
C3450 C3456 1.368 . S
C3451 C3435 1.349 . S
C3451 H3443 0.950 . S
C3451 C3449 1.327 . S
C3452 C3440 1.349 . S
C3452 H3446 0.950 . S
C3452 C3453 1.327 . S
C3453 H3447 0.950 . S
C3453 C3452 1.327 . S
C3453 C3457 1.429 . S
C3454 C3437 1.574 . S
C3454 H3448 0.949 . S
C3454 C3458 1.368 . S
C3455 C3436 1.429 . S
C3455 C3449 1.429 . S
C3455 C3456 1.523 . S
C3456 C3437 1.368 . S
C3456 C3450 1.368 . S
C3456 C3455 1.523 . S
C3457 C3441 1.429 . S
C3457 C3453 1.429 . S
C3457 C3458 1.523 . S
C3458 C3442 1.368 . S
C3458 C3454 1.368 . S
C3458 C3457 1.523 . S
H3459 C3434 0.950 . S
H3460 C3436 0.950 . S
H3461 C3437 0.949 . S
H3462 C3439 0.950 . S
H3463 C3441 0.950 . S
C3464 C3465 1.349 . S
C3464 C3466 1.324 1_554 S
C3464 H3489 0.950 1_554 S
C3465 C3464 1.349 . S
C3465 C3481 1.349 . S
C3466 C3464 1.324 1_556 S
C3466 C3485 1.410 1_556 S
C3466 H3490 0.973 . S
C3467 C3484 1.574 . S
C3467 C3486 1.368 . S
C3467 H3491 0.949 . S
H3468 C3472 0.949 . S
C3469 C3470 1.349 1_554 S
C3469 C3471 1.327 . S
C3469 H3492 0.950 . S
C3470 C3469 1.349 1_556 S
C3470 C3482 1.349 . S
C3471 C3469 1.327 . S
C3471 C3487 1.429 . S
C3471 H3493 0.950 . S
C3472 H3468 0.949 . S
C3472 C3480 1.574 . S
C3472 C3488 1.368 1_556 S
H3473 C3481 0.950 . S
H3474 C3479 0.950 . S
H3475 C3480 0.949 . S
H3476 C3482 0.950 . S
H3477 C3483 0.950 . S
H3478 C3484 0.949 . S
C3479 H3474 0.950 . S
C3479 C3481 1.327 . S
C3479 C3485 1.429 . S
C3480 C3472 1.574 . S
C3480 H3475 0.949 . S
C3480 C3486 1.368 1_556 S
C3481 C3465 1.349 . S
C3481 H3473 0.950 . S
C3481 C3479 1.327 . S
C3482 C3470 1.349 . S
C3482 H3476 0.950 . S
C3482 C3483 1.327 . S
C3483 H3477 0.950 . S
C3483 C3482 1.327 . S
C3483 C3487 1.429 1_556 S
C3484 C3467 1.574 . S
C3484 H3478 0.949 . S
C3484 C3488 1.368 . S
C3485 C3466 1.410 1_554 S
C3485 C3479 1.429 . S
C3485 C3486 1.523 . S
C3486 C3467 1.368 . S
C3486 C3480 1.368 1_554 S
C3486 C3485 1.523 . S
C3487 C3471 1.429 . S
C3487 C3483 1.429 1_554 S
C3487 C3488 1.523 . S
C3488 C3472 1.368 1_554 S
C3488 C3484 1.368 . S
C3488 C3487 1.523 . S
H3489 C3464 0.950 1_556 S
H3490 C3466 0.973 . S
H3491 C3467 0.949 . S
H3492 C3469 0.950 . S
H3493 C3471 0.950 . S
C3494 C3495 1.349 . S
C3494 C3496 1.327 . S
C3494 H3519 0.950 . S
C3495 C3494 1.349 . S
C3495 C3511 1.349 1_556 S
C3496 C3494 1.327 . S
C3496 C3515 1.429 1_556 S
C3496 H3520 0.950 . S
C3497 C3514 1.574 . S
C3497 C3516 1.368 . S
C3497 H3521 0.949 . S
H3498 C3502 0.963 . S
C3499 C3500 1.349 . S
C3499 C3501 1.327 . S
C3499 H3522 0.950 . S
C3500 C3499 1.349 . S
C3500 C3512 1.349 . S
C3501 C3499 1.327 . S
C3501 C3517 1.429 . S
C3501 H3523 0.950 . S
C3502 H3498 0.963 . S
C3502 C3510 1.578 . S
C3502 C3518 1.350 1_556 S
H3503 C3511 0.950 . S
H3504 C3509 0.950 . S
H3505 C3510 0.949 . S
H3506 C3512 0.975 . S
H3507 C3513 0.950 1_556 S
H3508 C3514 0.949 . S
C3509 H3504 0.950 . S
C3509 C3511 1.327 . S
C3509 C3515 1.429 . S
C3510 C3502 1.578 . S
C3510 H3505 0.949 . S
C3510 C3516 1.368 1_556 S
C3511 C3495 1.349 1_554 S
C3511 H3503 0.950 . S
C3511 C3509 1.327 . S
C3512 C3500 1.349 . S
C3512 H3506 0.975 . S
C3512 C3513 1.327 . S
C3513 H3507 0.950 1_554 S
C3513 C3512 1.327 . S
C3513 C3517 1.429 . S
C3514 C3497 1.574 . S
C3514 H3508 0.949 . S
C3514 C3518 1.368 . S
C3515 C3496 1.429 1_554 S
C3515 C3509 1.429 . S
C3515 C3516 1.523 . S
C3516 C3497 1.368 . S
C3516 C3510 1.368 1_554 S
C3516 C3515 1.523 . S
C3517 C3501 1.429 . S
C3517 C3513 1.429 . S
C3517 C3518 1.523 . S
C3518 C3502 1.350 1_554 S
C3518 C3514 1.368 . S
C3518 C3517 1.523 . S
H3519 C3494 0.950 . S
H3520 C3496 0.950 . S
H3521 C3497 0.949 . S
H3522 C3499 0.950 . S
H3523 C3501 0.950 . S
C3524 C3525 1.349 . S
C3524 C3526 1.327 . S
C3524 H3549 0.950 . S
C3525 C3524 1.349 . S
C3525 C3541 1.349 . S
C3526 C3524 1.327 . S
C3526 C3545 1.429 . S
C3526 H3550 0.950 . S
C3527 C3544 1.574 . S
C3527 C3546 1.368 . S
C3527 H3551 0.949 . S
H3528 C3532 0.949 . S
C3529 C3530 1.349 . S
C3529 C3531 1.327 . S
C3529 H3552 0.950 . S
C3530 C3529 1.349 . S
C3530 C3542 1.349 . S
C3531 C3529 1.327 . S
C3531 C3547 1.429 . S
C3531 H3553 0.950 . S
C3532 H3528 0.949 . S
C3532 C3540 1.574 . S
C3532 C3548 1.368 . S
H3533 C3541 0.950 . S
H3534 C3539 0.950 . S
H3535 C3540 0.949 . S
H3536 C3542 0.950 . S
H3537 C3543 0.950 . S
H3538 C3544 0.949 . S
C3539 H3534 0.950 . S
C3539 C3541 1.327 . S
C3539 C3545 1.429 . S
C3540 C3532 1.574 . S
C3540 H3535 0.949 . S
C3540 C3546 1.368 . S
C3541 C3525 1.349 . S
C3541 H3533 0.950 . S
C3541 C3539 1.327 . S
C3542 C3530 1.349 . S
C3542 H3536 0.950 . S
C3542 C3543 1.327 . S
C3543 H3537 0.950 . S
C3543 C3542 1.327 . S
C3543 C3547 1.429 . S
C3544 C3527 1.574 . S
C3544 H3538 0.949 . S
C3544 C3548 1.368 . S
C3545 C3526 1.429 . S
C3545 C3539 1.429 . S
C3545 C3546 1.523 . S
C3546 C3527 1.368 . S
C3546 C3540 1.368 . S
C3546 C3545 1.523 . S
C3547 C3531 1.429 . S
C3547 C3543 1.429 . S
C3547 C3548 1.523 . S
C3548 C3532 1.368 . S
C3548 C3544 1.368 . S
C3548 C3547 1.523 . S
H3549 C3524 0.950 . S
H3550 C3526 0.950 . S
H3551 C3527 0.949 . S
H3552 C3529 0.950 . S
H3553 C3531 0.950 . S
C3554 C3555 1.349 . S
C3554 C3556 1.327 . S
C3554 H3579 0.950 . S
C3555 C3554 1.349 . S
C3555 C3571 1.349 . S
C3556 C3554 1.327 . S
C3556 C3575 1.429 . S
C3556 H3580 0.950 . S
C3557 C3574 1.574 . S
C3557 C3576 1.368 . S
C3557 H3581 0.949 . S
H3558 C3562 0.949 . S
C3559 C3560 1.349 . S
C3559 C3561 1.327 . S
C3559 H3582 0.950 . S
C3560 C3559 1.349 . S
C3560 C3572 1.349 . S
C3561 C3559 1.327 . S
C3561 C3577 1.429 . S
C3561 H3583 0.950 . S
C3562 H3558 0.949 . S
C3562 C3570 1.574 . S
C3562 C3578 1.368 . S
H3563 C3571 0.950 . S
H3564 C3569 0.950 . S
H3565 C3570 0.949 . S
H3566 C3572 0.950 . S
H3567 C3573 0.950 . S
H3568 C3574 0.949 . S
C3569 H3564 0.950 . S
C3569 C3571 1.327 . S
C3569 C3575 1.429 . S
C3570 C3562 1.574 . S
C3570 H3565 0.949 . S
C3570 C3576 1.368 . S
C3571 C3555 1.349 . S
C3571 H3563 0.950 . S
C3571 C3569 1.327 . S
C3572 C3560 1.349 . S
C3572 H3566 0.950 . S
C3572 C3573 1.327 . S
C3573 H3567 0.950 . S
C3573 C3572 1.327 . S
C3573 C3577 1.429 . S
C3574 C3557 1.574 . S
C3574 H3568 0.949 . S
C3574 C3578 1.368 . S
C3575 C3556 1.429 . S
C3575 C3569 1.429 . S
C3575 C3576 1.523 . S
C3576 C3557 1.368 . S
C3576 C3570 1.368 . S
C3576 C3575 1.523 . S
C3577 C3561 1.429 . S
C3577 C3573 1.429 . S
C3577 C3578 1.523 . S
C3578 C3562 1.368 . S
C3578 C3574 1.368 . S
C3578 C3577 1.523 . S
H3579 C3554 0.950 . S
H3580 C3556 0.950 . S
H3581 C3557 0.949 . S
H3582 C3559 0.950 . S
H3583 C3561 0.950 . S
C705 C556 1.130 . S
C710 C7 1.130 . S
C735 C535 1.130 . S
C740 C28 1.130 . S
C765 C600 1.130 . S
C770 C51 1.130 . S
C795 C579 1.130 . S
C800 C72 1.130 . S
C825 C97 1.130 . S
C830 C643 1.130 . S
C855 C115 1.130 . S
C860 C625 1.130 . S
C885 C141 1.130 . S
C890 C687 1.130 . S
C915 C669 1.130 . S
C920 C159 1.130 . S
C945 C380 1.130 . S
C950 C183 1.130 . S
C975 C359 1.130 . S
C980 C204 1.130 . S
C1005 C424 1.130 . S
C1010 C227 1.130 . S
C1035 C403 1.130 . S
C1040 C248 1.130 . S
C1065 C273 1.130 . S
C1070 C467 1.130 . S
C1095 C449 1.130 . S
C1100 C291 1.130 . S
C1125 C317 1.130 . S
C1130 C511 1.130 . S
C1155 C493 1.130 . S
C1160 C335 1.130 . S
C1185 C4 1.893 . S
C1190 C426 1.893 . S
C1215 C400 1.893 . S
C1220 C30 1.893 . S
C1245 C382 1.893 . S
C1250 C48 1.893 . S
C1275 C74 1.893 . S
C1280 C356 1.893 . S
C1305 C514 1.893 . S
C1310 C92 1.893 . S
C1335 C488 1.893 . S
C1340 C118 1.893 . S
C1365 C470 1.893 . S
C1370 C136 1.893 . S
C1395 C444 1.893 . S
C1400 C162 1.893 . S
C1425 C602 1.893 . S
C1430 C180 1.893 . S
C1455 C206 1.893 . S
C1460 C576 1.893 . S
C1485 C224 1.893 . S
C1490 C558 1.893 . S
C1515 C250 1.893 . S
C1520 C532 1.893 . S
C1545 C690 1.893 . S
C1550 C268 1.893 . S
C1575 C664 1.893 . S
C1580 C294 1.893 . S
C1605 C312 1.893 . S
C1610 C646 1.893 . S
C1635 C338 1.893 . S
C1640 C620 1.893 . S
C1665 C94 1.089 . S
C1670 C5 1.089 . S
C1695 C31 1.089 . S
C1700 C645 1.089 . S
C1725 C49 1.089 . S
C1730 C314 1.089 . S
C1755 C513 1.089 . S
C1760 C75 1.089 . S
C1785 C117 1.089 . S
C1790 C559 1.089 . S
C1815 C138 1.089 . S
C1820 C225 1.089 . S
C1845 C427 1.089 . S
C1850 C161 1.089 . S
C1875 C270 1.089 . S
C1880 C181 1.089 . S
C1905 C207 1.089 . S
C1910 C469 1.089 . S
C1935 C251 1.089 . S
C1940 C689 1.089 . S
C1965 C383 1.089 . S
C1970 C293 1.089 . S
C1995 C337 1.089 . S
C2000 C603 1.089 . S
C2025 C446 1.089 . S
C2030 C357 1.089 . S
C2055 C666 1.089 . S
C2060 C401 1.089 . S
C2085 C577 1.089 . S
C2090 C490 1.089 . S
C2115 C533 1.089 . S
C2120 C622 1.089 . S
C2145 C53 0.705 . S
C2150 C9 0.705 . S
C2175 C71 0.705 . S
C2180 C27 0.705 . S
C2205 C139 0.705 . S
C2210 C95 0.705 . S
C2235 C116 0.705 . S
C2240 C160 0.705 . S
C2265 C229 0.705 . S
C2270 C185 0.705 . S
C2295 C203 0.705 . S
C2300 C247 0.705 . S
C2325 C315 0.705 . S
C2330 C271 0.705 . S
C2355 C292 0.705 . S
C2360 C336 0.705 . S
C2385 C361 0.705 . S
C2390 C405 0.705 . S
C2415 C379 0.705 . S
C2420 C423 0.705 . S
C2445 C491 0.705 . S
C2450 C447 0.705 . S
C2475 C468 0.705 . S
C2480 C512 0.705 . S
C2505 C537 0.705 . S
C2510 C581 0.705 . S
C2535 C599 0.705 . S
C2540 C555 0.705 . S
C2565 C623 0.705 . S
C2570 C667 0.705 . S
C2595 C644 0.705 . S
C2600 C688 0.705 . S
C2625 C119 1.452 . S
C2630 C8 1.439 . S
C2655 C621 1.452 . S
C2660 C26 1.439 . S
C2685 C52 1.437 . S
C2690 C339 1.452 . S
C2715 C70 1.437 . S
C2720 C489 1.452 . S
C2745 C96 1.439 . S
C2750 C29 1.452 . S
C2775 C114 1.439 . S
C2780 C534 1.452 . S
C2805 C249 1.452 . S
C2810 C140 1.437 . S
C2835 C402 1.452 . S
C2840 C158 1.437 . S
C2865 C184 1.437 . S
C2870 C295 1.452 . S
C2895 C445 1.452 . S
C2900 C202 1.437 . S
C2925 C228 1.437 . S
C2930 C163 1.452 . S
C2955 C665 1.452 . S
C2960 C246 1.437 . S
C2985 C272 1.437 . S
C2990 C205 1.452 . S
C3015 C290 1.437 . S
C3020 C358 1.452 . S
C3045 C316 1.437 . S
C3050 C73 1.452 . S
C3075 C578 1.452 . S
C3080 C334 1.437 . S
C3105 C360 1.437 . S
C3110 C471 1.452 . S
C3135 C378 1.437 . S
C3140 C269 1.452 . S
C3165 C691 1.452 . S
C3170 C404 1.437 . S
C3195 C137 1.452 . S
C3200 C422 1.437 . S
C3225 C448 1.437 . S
C3230 C381 1.452 . S
C3255 C182 1.452 . S
C3260 C466 1.437 . S
C3285 C601 1.452 . S
C3290 C492 1.437 . S
C3315 C510 1.437 . S
C3320 C50 1.452 . S
C3345 C647 1.452 . S
C3350 C536 1.439 . S
C3375 C554 1.439 . S
C3380 C93 1.452 . S
C3405 C515 1.452 . S
C3410 C580 1.437 . S
C3435 C313 1.452 . S
C3440 C598 1.437 . S
C3465 C557 1.452 . S
C3470 C624 1.439 . S
C3495 C642 1.439 . S
C3500 C6 1.452 . S
C3525 C425 1.452 . S
C3530 C668 1.437 . S
C3555 C686 1.437 . S
C3560 C226 1.452 . S
