# Generated by pormake.
# Topology mdf, (4)-cn, num edge types: 1
# Building blocks:
#     Node 0, Type 0, BuildingBlock: ICAMEG_clean_sbu_1, # of connection points: 4
#     Node 1, Type 0, BuildingBlock: ICAMEG_clean_sbu_1, # of connection points: 4
#     Node 2, Type 0, BuildingBlock: ICAMEG_clean_sbu_1, # of connection points: 4
#     Node 3, Type 0, BuildingBlock: ICAMEG_clean_sbu_1, # of connection points: 4
#     Node 4, Type 0, BuildingBlock: ICAMEG_clean_sbu_1, # of connection points: 4
#     Node 5, Type 0, BuildingBlock: ICAMEG_clean_sbu_1, # of connection points: 4
#     Node 6, Type 0, BuildingBlock: ICAMEG_clean_sbu_1, # of connection points: 4
#     Node 7, Type 0, BuildingBlock: ICAMEG_clean_sbu_1, # of connection points: 4
#     Edge 8, Type (0, 0), BuildingBlock: XUDNAN_clean_linker_2, # of connection points: 2
#     Edge 9, Type (0, 0), BuildingBlock: XUDNAN_clean_linker_2, # of connection points: 2
#     Edge 10, Type (0, 0), BuildingBlock: XUDNAN_clean_linker_2, # of connection points: 2
#     Edge 11, Type (0, 0), BuildingBlock: XUDNAN_clean_linker_2, # of connection points: 2
#     Edge 12, Type (0, 0), BuildingBlock: XUDNAN_clean_linker_2, # of connection points: 2
#     Edge 13, Type (0, 0), BuildingBlock: XUDNAN_clean_linker_2, # of connection points: 2
#     Edge 14, Type (0, 0), BuildingBlock: XUDNAN_clean_linker_2, # of connection points: 2
#     Edge 15, Type (0, 0), BuildingBlock: XUDNAN_clean_linker_2, # of connection points: 2
#     Edge 16, Type (0, 0), BuildingBlock: XUDNAN_clean_linker_2, # of connection points: 2
#     Edge 17, Type (0, 0), BuildingBlock: XUDNAN_clean_linker_2, # of connection points: 2
#     Edge 18, Type (0, 0), BuildingBlock: XUDNAN_clean_linker_2, # of connection points: 2
#     Edge 19, Type (0, 0), BuildingBlock: XUDNAN_clean_linker_2, # of connection points: 2
#     Edge 20, Type (0, 0), BuildingBlock: XUDNAN_clean_linker_2, # of connection points: 2
#     Edge 21, Type (0, 0), BuildingBlock: XUDNAN_clean_linker_2, # of connection points: 2
#     Edge 22, Type (0, 0), BuildingBlock: XUDNAN_clean_linker_2, # of connection points: 2
#     Edge 23, Type (0, 0), BuildingBlock: XUDNAN_clean_linker_2, # of connection points: 2
# Relax obj value: 0.008
# Max RMSD: 0.050
# Mean RMSD: 0.050
data_MOF--net-mdf--node1-ICAMEG_clean_sbu_1--edge1-XUDNAN_clean_linker_2
_symmetry_space_group_name_H-M    P1
_symmetry_Int_Tables_number       1
_symmetry_cell_setting            triclinic
loop_
_symmetry_equiv_pos_as_xyz
'x, y, z'
_cell_length_a     41.44501
_cell_length_b     41.364616
_cell_length_c     11.35667
_cell_angle_alpha  90.23724
_cell_angle_beta   90.018144
_cell_angle_gamma 90.551336
loop_
_atom_site_label
_atom_site_type_symbol
_atom_site_fract_x
_atom_site_fract_y
_atom_site_fract_z
_atom_type_partial_charge
Co0 Co 0.25025 0.50248 0.55231 0.0
Co1 Co 0.25921 0.49523 0.25851 0.0
O2 O 0.25531 0.5226 0.3985 0.0
C3 C 0.19731 0.55256 0.56945 0.0
O4 O 0.18516 0.54404 0.46699 0.0
C5 C 0.31792 0.53326 0.17284 0.0
O6 O 0.33749 0.51102 0.21238 0.0
O7 O 0.29694 0.47432 0.32713 0.0
O8 O 0.2784 0.4644 0.50777 0.0
H9 H 0.26836 0.38758 0.05086 0.0
H10 H 0.2724 0.57074 0.5414 0.0
O11 O 0.22303 0.53963 0.60723 0.0
H12 H 0.35875 0.51312 0.74989 0.0
H13 H 0.21293 0.50908 0.95591 0.0
H14 H 0.23712 0.43506 0.63021 0.0
H15 H 0.31027 0.48402 0.67806 0.0
H16 H 0.24793 0.52635 0.79692 0.0
O17 O 0.28742 0.53054 0.18831 0.0
H18 H 0.25255 0.42341 0.2087 0.0
H19 H 0.28247 0.50506 0.00647 0.0
H20 H 0.20735 0.41401 0.80186 0.0
H21 H 0.32031 0.60112 0.61125 0.0
H22 H 0.19251 0.45159 0.96317 0.0
H23 H 0.36402 0.57219 0.71519 0.0
O24 O 0.21079 0.47989 0.49578 0.0
H25 H 0.18877 0.59022 0.17326 0.0
H26 H 0.19641 0.47161 0.15814 0.0
H27 H 0.14496 0.49738 0.10921 0.0
H28 H 0.14086 0.55721 0.11619 0.0
H29 H 0.23939 0.56334 0.22634 0.0
H30 H 0.30492 0.46869 0.86004 0.0
H31 H 0.2961 0.40969 0.87505 0.0
O32 O 0.22981 0.46069 0.32721 0.0
C33 C 0.29821 0.45922 0.42382 0.0
C34 C 0.27161 0.41343 0.04108 0.0
C35 C 0.29212 0.45889 0.93407 0.0
N36 N 0.26544 0.46744 0.11964 0.0
C37 C 0.26155 0.43451 0.12976 0.0
C38 C 0.28008 0.47947 0.02095 0.0
C39 C 0.28741 0.42574 0.9432 0.0
C40 C 0.29114 0.55807 0.58803 0.0
N41 N 0.28836 0.52559 0.60781 0.0
C42 C 0.31826 0.57538 0.62691 0.0
C43 C 0.34277 0.55916 0.68549 0.0
C44 C 0.33985 0.52602 0.70472 0.0
C45 C 0.31236 0.50959 0.66444 0.0
C46 C 0.21889 0.49182 0.88888 0.0
C47 C 0.23352 0.45065 0.70555 0.0
C48 C 0.23854 0.5019 0.79703 0.0
N49 N 0.24316 0.48235 0.70248 0.0
C50 C 0.21585 0.43883 0.80103 0.0
C51 C 0.20755 0.45996 0.8916 0.0
C52 C 0.20857 0.46087 0.40825 0.0
C53 C 0.19031 0.56414 0.16915 0.0
C54 C 0.19485 0.49753 0.163 0.0
C55 C 0.16563 0.51206 0.13419 0.0
C56 C 0.16338 0.54561 0.13781 0.0
N57 N 0.22121 0.51579 0.19384 0.0
C58 C 0.21914 0.54874 0.19728 0.0
Co59 Co 0.49827 0.7668 0.43533 0.0
Co60 Co 0.4983 0.73545 0.71914 0.0
O61 O 0.47594 0.7501 0.57599 0.0
C62 C 0.46709 0.83059 0.39872 0.0
O63 O 0.49595 0.84381 0.40769 0.0
C64 C 0.43573 0.70015 0.72072 0.0
O65 O 0.42333 0.72685 0.67881 0.0
O66 O 0.5272 0.70771 0.62281 0.0
O67 O 0.53256 0.73296 0.44855 0.0
H68 H 0.56529 0.74709 0.08771 0.0
H69 H 0.42887 0.74898 0.4239 0.0
O70 O 0.46341 0.80032 0.41722 0.0
H71 H 0.48075 0.68637 0.10701 0.0
H72 H 0.5043 0.81764 0.03323 0.0
H73 H 0.56637 0.78191 0.37861 0.0
H74 H 0.51308 0.72198 0.23705 0.0
H75 H 0.47722 0.78936 0.19686 0.0
O76 O 0.46623 0.6984 0.73565 0.0
H77 H 0.53155 0.76702 0.92433 0.0
H78 H 0.51516 0.67066 0.8075 0.0
H79 H 0.59446 0.81004 0.21684 0.0
H80 H 0.3954 0.71449 0.29373 0.0
H81 H 0.56338 0.82836 0.04332 0.0
H82 H 0.42126 0.68382 0.13161 0.0
O83 O 0.52446 0.797 0.5344 0.0
H84 H 0.42894 0.76127 0.07144 0.0
H85 H 0.47357 0.80259 0.69862 0.0
H86 H 0.44034 0.83819 0.82233 0.0
H87 H 0.41788 0.81761 0.01074 0.0
H88 H 0.46273 0.72651 0.9454 0.0
H89 H 0.54769 0.64987 0.97159 0.0
H90 H 0.57373 0.68844 0.11097 0.0
O91 O 0.53028 0.77202 0.70849 0.0
C92 C 0.54018 0.71088 0.52174 0.0
C93 C 0.55389 0.73027 0.02752 0.0
C94 C 0.54407 0.67562 0.96242 0.0
N95 N 0.52102 0.72006 0.85725 0.0
C96 C 0.53482 0.74136 0.93494 0.0
C97 C 0.5254 0.68755 0.87031 0.0
C98 C 0.55859 0.69722 0.04083 0.0
C99 C 0.44034 0.7352 0.35482 0.0
N100 N 0.47292 0.7374 0.33813 0.0
C101 C 0.42128 0.71569 0.28151 0.0
C102 C 0.43584 0.6982 0.19125 0.0
C103 C 0.46919 0.69986 0.17684 0.0
C104 C 0.48743 0.71981 0.2513 0.0
C105 C 0.51814 0.80979 0.10849 0.0
C106 C 0.55272 0.78946 0.30261 0.0
C107 C 0.50297 0.79353 0.20096 0.0
N108 N 0.52016 0.78412 0.29752 0.0
C109 C 0.56873 0.80555 0.21163 0.0
C110 C 0.55123 0.81588 0.11426 0.0
C111 C 0.53687 0.79476 0.63655 0.0
C112 C 0.4388 0.77053 0.98999 0.0
C113 C 0.46416 0.79346 0.7807 0.0
C114 C 0.44519 0.81372 0.85024 0.0
C115 C 0.43255 0.80216 0.95581 0.0
N116 N 0.4707 0.76264 0.81574 0.0
C117 C 0.45803 0.75103 0.91854 0.0
Co118 Co 0.24657 0.03558 0.6504 0.0
Co119 Co 0.26816 0.02079 0.92817 0.0
O120 O 0.25561 1.00457 0.77485 0.0
C121 C 0.19702 0.98352 0.60981 0.0
O122 O 0.18908 0.98501 0.72162 0.0
C123 C 0.32808 0.9844 0.97943 0.0
O124 O 0.34261 0.01272 0.98548 0.0
O125 O 0.30427 0.04655 0.85615 0.0
O126 O 0.27393 0.07037 0.72316 0.0
H127 H 0.31373 0.10636 0.18987 0.0
H128 H 0.26842 0.96986 0.58453 0.0
O129 O 0.21872 1.00238 0.56896 0.0
H130 H 0.36136 0.04257 0.5173 0.0
H131 H 0.23271 0.07037 0.22953 0.0
H132 H 0.22996 0.10504 0.64403 0.0
H133 H 0.3069 0.06474 0.54573 0.0
H134 H 0.24277 0.03103 0.38846 0.0
O135 O 0.29828 0.98276 0.94956 0.0
H136 H 0.28391 0.08612 0.01709 0.0
H137 H 0.27996 0.99182 0.16279 0.0
H138 H 0.22032 0.14483 0.48796 0.0
H139 H 0.32153 0.94669 0.54096 0.0
H140 H 0.22233 0.12759 0.27876 0.0
H141 H 0.36894 0.9831 0.51423 0.0
O142 O 0.20922 0.05281 0.74355 0.0
H143 H 0.19465 0.92436 0.94957 0.0
H144 H 0.21444 0.03506 0.09512 0.0
H145 H 0.16353 0.00736 0.14538 0.0
H146 H 0.15253 0.95237 0.06632 0.0
H147 H 0.24539 0.9531 0.90171 0.0
H148 H 0.31204 0.00989 0.32969 0.0
H149 H 0.33023 0.06815 0.34394 0.0
O150 O 0.23762 0.05814 0.91119 0.0
C151 C 0.2994 0.06945 0.78477 0.0
C152 C 0.30635 0.08122 0.18485 0.0
C153 C 0.30517 0.02737 0.26502 0.0
N154 N 0.28087 0.03767 0.07936 0.0
C155 C 0.28913 0.06967 0.08797 0.0
C156 C 0.2869 0.01703 0.16943 0.0
C157 C 0.31528 0.05965 0.27218 0.0
C158 C 0.28828 0.986 0.5643 0.0
N159 N 0.2844 0.01879 0.56971 0.0
C160 C 0.31858 0.97266 0.54261 0.0
C161 C 0.34521 0.99307 0.52824 0.0
C162 C 0.34097 0.02643 0.53032 0.0
C163 C 0.31001 0.03885 0.54695 0.0
C164 C 0.2321 0.07799 0.32022 0.0
C165 C 0.23076 0.09721 0.55324 0.0
C166 C 0.23778 0.05592 0.4105 0.0
N167 N 0.23745 0.06579 0.52526 0.0
C168 C 0.22519 0.11991 0.46523 0.0
C169 C 0.22613 0.11019 0.34791 0.0
C170 C 0.21309 0.06483 0.8471 0.0
C171 C 0.19897 0.94857 0.98289 0.0
C172 C 0.21059 0.0106 0.06539 0.0
C173 C 0.18147 0.99516 0.09265 0.0
C174 C 0.17534 0.96429 0.04821 0.0
N175 N 0.2329 0.99581 -0.00445 0.0
C176 C 0.22784 0.96479 0.9575 0.0
Co177 Co 0.0074 0.77554 0.24155 0.0
Co178 Co 0.99871 0.74429 0.95848 0.0
O179 O 0.02514 0.76085 0.09022 0.0
C180 C 0.06321 0.82198 0.1854 0.0
O181 O 0.06898 0.80701 0.08573 0.0
C182 C 0.04642 0.69246 -0.00024 0.0
O183 O 0.03799 0.69284 0.11114 0.0
O184 O 0.97512 0.71395 0.06372 0.0
O185 O 0.97629 0.73801 0.24147 0.0
H186 H 0.92184 0.75146 0.61608 0.0
H187 H 0.07648 0.75745 0.20558 0.0
O188 O 0.03935 0.81331 0.24985 0.0
H189 H 0.03566 0.6891 0.52729 0.0
H190 H 0.00646 0.83993 0.6182 0.0
H191 H 0.94125 0.77498 0.34187 0.0
H192 H 1.0033 0.73405 0.45367 0.0
H193 H 0.03271 0.80855 0.45996 0.0
O194 O 0.03267 0.71112 0.92685 0.0
H195 H 0.95866 0.77363 0.76827 0.0
H196 H 0.98322 0.67843 0.87172 0.0
H197 H 0.9146 0.80376 0.50396 0.0
H198 H 0.10957 0.71288 0.27656 0.0
H199 H 0.94749 0.83682 0.64322 0.0
H200 H 0.08768 0.67629 0.42861 0.0
O201 O 0.97551 0.80282 0.15854 0.0
H202 H 0.0663 0.77182 0.60553 0.0
H203 H 0.01432 0.81471 0.96271 0.0
H204 H 0.04721 0.85102 0.83996 0.0
H205 H 0.07309 0.82961 0.66038 0.0
H206 H 0.03237 0.73647 0.72918 0.0
H207 H 0.94825 0.65555 0.71608 0.0
H208 H 0.91672 0.69239 0.58878 0.0
O209 O 0.9644 0.7773 0.98729 0.0
C210 C 0.96698 0.71551 0.17161 0.0
C211 C 0.93587 0.73543 0.67011 0.0
C212 C 0.95048 0.6815 0.72668 0.0
N213 N 0.97314 0.72734 0.8287 0.0
C214 C 0.95647 0.74775 0.7571 0.0
C215 C 0.97043 0.69461 0.81408 0.0
C216 C 0.9329 0.70213 0.655 0.0
C217 C 0.06772 0.74335 0.27837 0.0
N218 N 0.03767 0.74832 0.32408 0.0
C219 C 0.08654 0.7178 0.31744 0.0
C220 C 0.07448 0.69753 0.40458 0.0
C221 C 0.04505 0.70434 0.45788 0.0
C222 C 0.02691 0.73009 0.41639 0.0
C223 C 0.99225 0.82491 0.5597 0.0
C224 C 0.95592 0.78853 0.40346 0.0
C225 C 0.00685 0.80768 0.46833 0.0
N226 N 0.98859 0.79081 0.3886 0.0
C227 C 0.94057 0.805 0.49488 0.0
C228 C 0.95894 0.8235 0.57293 0.0
C229 C 0.95882 0.79893 0.06498 0.0
C230 C 0.05501 0.78134 0.68414 0.0
C231 C 0.02517 0.80525 0.88378 0.0
C232 C 0.04421 0.82584 0.81558 0.0
C233 C 0.05925 0.81367 0.71555 0.0
N234 N 0.02149 0.77343 0.85388 0.0
C235 C 0.03569 0.76151 0.75431 0.0
Co236 Co 0.73837 0.99796 0.98736 0.0
Co237 Co 0.75978 0.99219 0.69985 0.0
O238 O 0.75516 0.01757 0.84443 0.0
C239 C 0.69758 0.05633 0.96489 0.0
O240 O 0.69191 0.04795 0.85551 0.0
C241 C 0.82253 0.02867 0.70946 0.0
O242 O 0.82761 0.01559 0.81291 0.0
O243 O 0.78954 0.96254 0.78252 0.0
O244 O 0.76137 0.95651 0.95059 0.0
H245 H 0.73046 0.91356 0.37104 0.0
H246 H 0.77683 0.05882 -0.00712 0.0
O247 O 0.71607 0.03935 0.02853 0.0
H248 H 0.83417 0.98282 0.25061 0.0
H249 H 0.68565 1.00314 0.37985 0.0
H250 H 0.71179 0.933 0.04383 0.0
H251 H 0.7815 0.96799 0.16393 0.0
H252 H 0.72427 0.02143 0.23053 0.0
O253 O 0.79677 0.02186 0.6526 0.0
H254 H 0.7183 0.95087 0.53044 0.0
H255 H 0.81789 0.97397 0.56673 0.0
H256 H 0.67567 0.91246 0.1992 0.0
H257 H 0.82949 0.07471 0.07788 0.0
H258 H 0.66139 0.94826 0.36741 0.0
H259 H 0.85893 0.03584 0.20502 0.0
O260 O 0.69972 0.98284 0.90106 0.0
H261 H 0.71857 0.10325 0.628 0.0
H262 H 0.69055 0.98799 0.60127 0.0
H263 H 0.64888 0.02754 0.57564 0.0
H264 H 0.66174 0.08559 0.59904 0.0
H265 H 0.76009 0.0632 0.65655 0.0
H266 H 0.83057 0.93802 0.40253 0.0
H267 H 0.7867 0.9072 0.30334 0.0
O268 O 0.72316 0.96135 0.74314 0.0
C269 C 0.78387 0.94808 0.87971 0.0
C270 C 0.74953 0.92798 0.41025 0.0
C271 C 0.8057 0.9415 0.42834 0.0
N272 N 0.76684 0.967 0.5557 0.0
C273 C 0.74276 0.94964 0.50149 0.0
C274 C 0.79812 0.96257 0.52037 0.0
C275 C 0.78116 0.92415 0.37292 0.0
C276 C 0.78916 0.04227 0.05054 0.0
N277 N 0.77634 0.01238 0.07254 0.0
C278 C 0.81899 0.05134 0.09818 0.0
C279 C 0.83542 0.02968 0.16979 0.0
C280 C 0.82158 0.99974 0.1952 0.0
C281 C 0.79179 0.9915 0.14585 0.0
C282 C 0.69226 0.98707 0.30953 0.0
C283 C 0.70725 0.94796 0.1201 0.0
C284 C 0.71386 0.99745 0.22339 0.0
N285 N 0.7199 0.97856 0.12728 0.0
C286 C 0.68627 0.93639 0.20679 0.0
C287 C 0.67829 0.9564 0.30109 0.0
C288 C 0.69954 0.9631 0.81527 0.0
C289 C 0.71264 0.07783 0.61843 0.0
C290 C 0.69801 0.0128 0.60321 0.0
C291 C 0.67356 0.03542 0.58983 0.0
C292 C 0.68083 0.06805 0.60106 0.0
N293 N 0.72921 0.02212 0.62681 0.0
C294 C 0.73651 0.05455 0.63136 0.0
Co295 Co 1.00087 0.26923 0.01604 0.0
Co296 Co 1.00165 0.24317 0.30394 0.0
O297 O 0.97825 0.25307 0.158 0.0
C298 C 0.95296 0.32161 0.07641 0.0
O299 O 0.95144 0.31165 0.18584 0.0
C300 C 0.95876 0.18322 0.26746 0.0
O301 O 0.94506 0.19457 0.17213 0.0
O302 O 0.03849 0.224 0.21441 0.0
O303 O 0.02983 0.23086 0.02168 0.0
H304 H 0.10091 0.2492 0.55684 0.0
H305 H 0.92924 0.2627 0.01356 0.0
O306 O 0.97188 0.30802 0.0035 0.0
H307 H 0.96755 0.18763 0.70801 0.0
H308 H 0.01198 0.33025 0.63547 0.0
H309 H 0.06931 0.26909 0.94035 0.0
H310 H 0.00635 0.22131 0.82358 0.0
H311 H 0.98172 0.30317 0.79498 0.0
O312 O 0.98181 0.19858 0.31764 0.0
H313 H 0.06718 0.26156 0.38595 0.0
H314 H 0.99086 0.20378 0.52421 0.0
H315 H 0.09992 0.2925 0.77554 0.0
H316 H 0.88979 0.23132 0.89721 0.0
H317 H 0.07132 0.32377 0.62233 0.0
H318 H 0.90896 0.19337 0.74282 0.0
O319 O 0.03271 0.29621 0.10966 0.0
H320 H 0.88457 0.26349 0.40042 0.0
H321 H 0.99738 0.28642 0.51089 0.0
H322 H 0.95304 0.31106 0.62551 0.0
H323 H 0.89636 0.29894 0.57233 0.0
H324 H 0.92913 0.24105 0.28595 0.0
H325 H 0.0264 0.18626 0.68559 0.0
H326 H 0.08048 0.2116 0.70942 0.0
O327 O 0.02125 0.28702 0.2987 0.0
C328 C 0.04489 0.21798 0.1067 0.0
C329 C 0.07683 0.239 0.55003 0.0
C330 C 0.0348 0.20405 0.62291 0.0
N331 N 0.02644 0.23427 0.44579 0.0
C332 C 0.05719 0.24649 0.4544 0.0
C333 C 0.01504 0.21356 0.52977 0.0
C334 C 0.06545 0.2177 0.63504 0.0
C335 C 0.93785 0.24702 0.94453 0.0
N336 N 0.97016 0.24436 0.92272 0.0
C337 C 0.91533 0.22901 0.8796 0.0
C338 C 0.92609 0.20772 0.79318 0.0
C339 C 0.95906 0.20468 0.77307 0.0
C340 C 0.98085 0.2235 0.83859 0.0
C341 C 0.02457 0.31592 0.7 0.0
C342 C 0.05635 0.28126 0.87124 0.0
C343 C 0.00758 0.30081 0.79108 0.0
N344 N 0.02353 0.28425 0.87652 0.0
C345 C 0.07396 0.29497 0.77902 0.0
C346 C 0.05791 0.31257 0.69321 0.0
C347 C 0.03541 0.30312 0.21879 0.0
C348 C 0.90927 0.26839 0.42646 0.0
C349 C 0.97271 0.28103 0.48788 0.0
C350 C 0.94778 0.29496 0.55296 0.0
C351 C 0.91587 0.28832 0.52257 0.0
N352 N 0.96613 0.26115 0.39462 0.0
C353 C 0.9348 0.25523 0.36265 0.0
Co354 Co 0.75441 0.50689 0.28494 0.0
Co355 Co 0.7645 0.52016 0.57713 0.0
O356 O 0.75935 0.49063 0.44403 0.0
C357 C 0.69591 0.46518 0.30446 0.0
O358 O 0.68865 0.48131 0.40047 0.0
C359 C 0.81776 0.47259 0.62471 0.0
O360 O 0.83109 0.47956 0.5229 0.0
O361 O 0.80299 0.53901 0.50242 0.0
O362 O 0.78687 0.54327 0.31462 0.0
H363 H 0.78653 0.62901 0.75848 0.0
H364 H 0.77149 0.43819 0.32136 0.0
O365 O 0.72251 0.47082 0.25165 0.0
H366 H 0.86062 0.4851 0.08829 0.0
H367 H 0.7073 0.495 0.89247 0.0
H368 H 0.74917 0.57237 0.18549 0.0
H369 H 0.81339 0.51777 0.14133 0.0
H370 H 0.74213 0.47659 0.05092 0.0
O371 O 0.79168 0.4863 0.65608 0.0
H372 H 0.76987 0.59168 0.60225 0.0
H373 H 0.77923 0.51202 0.83535 0.0
H374 H 0.71719 0.59262 0.01986 0.0
H375 H 0.81856 0.40455 0.2717 0.0
H376 H 0.69329 0.55386 0.87829 0.0
H377 H 0.86397 0.42851 0.15749 0.0
O378 O 0.71834 0.53428 0.3351 0.0
H379 H 0.69017 0.42787 0.66791 0.0
H380 H 0.70295 0.54629 0.67471 0.0
H381 H 0.64975 0.52211 0.71752 0.0
H382 H 0.64303 0.46237 0.71444 0.0
H383 H 0.7425 0.45312 0.62196 0.0
H384 H 0.80056 0.54865 0.98773 0.0
H385 H 0.80282 0.60751 0.95285 0.0
O386 O 0.7364 0.55468 0.50372 0.0
C387 C 0.80645 0.55008 0.39878 0.0
C388 C 0.78478 0.60336 0.77614 0.0
C389 C 0.7927 0.55819 0.90457 0.0
N390 N 0.77198 0.54937 0.70953 0.0
C391 C 0.7744 0.58192 0.68851 0.0
C392 C 0.78074 0.53754 0.8169 0.0
C393 C 0.79416 0.59131 0.88473 0.0
C394 C 0.79081 0.44839 0.26897 0.0
N395 N 0.78959 0.47983 0.23311 0.0
C396 C 0.81745 0.42932 0.24174 0.0
C397 C 0.84287 0.44268 0.1773 0.0
C398 C 0.84108 0.47452 0.13878 0.0
C399 C 0.81413 0.49285 0.16804 0.0
C400 C 0.71729 0.51256 0.95287 0.0
C401 C 0.74163 0.55561 0.11742 0.0
C402 C 0.73723 0.50212 0.0433 0.0
N403 N 0.74712 0.52321 0.12871 0.0
C404 C 0.72277 0.56717 0.02542 0.0
C405 C 0.70958 0.54529 0.94516 0.0
C406 C 0.71669 0.55476 0.41769 0.0
C407 C 0.69283 0.45389 0.67163 0.0
C408 C 0.7003 0.52037 0.67314 0.0
C409 C 0.67006 0.50676 0.69771 0.0
C410 C 0.66635 0.47326 0.69651 0.0
N411 N 0.72602 0.50128 0.64664 0.0
C412 C 0.72263 0.46837 0.6471 0.0
Co413 Co 0.50784 0.2729 0.75958 0.0
Co414 Co 0.52114 0.25742 0.47301 0.0
O415 O 0.53818 0.26816 0.62837 0.0
C416 C 0.5619 0.32174 0.80676 0.0
O417 O 0.57526 0.31628 0.70402 0.0
C418 C 0.57191 0.20496 0.45401 0.0
O419 O 0.55819 0.1875 0.53666 0.0
O420 O 0.50015 0.21727 0.53549 0.0
O421 O 0.47691 0.24106 0.68834 0.0
H422 H 0.43991 0.20405 0.21383 0.0
H423 H 0.57637 0.25945 0.81992 0.0
O424 O 0.53663 0.30622 0.83865 0.0
H425 H 0.51682 0.15831 0.89844 0.0
H426 H 0.47485 0.29455 0.17835 0.0
H427 H 0.43635 0.27497 0.77533 0.0
H428 H 0.48756 0.20832 0.85593 0.0
H429 H 0.51371 0.28392 0.01923 0.0
O430 O 0.56146 0.23305 0.43053 0.0
H431 H 0.45644 0.23661 0.3858 0.0
H432 H 0.54743 0.2555 0.23169 0.0
H433 H 0.39705 0.28381 0.93342 0.0
H434 H 0.6063 0.21078 0.87231 0.0
H435 H 0.41626 0.29386 0.13754 0.0
H436 H 0.57671 0.15935 0.90903 0.0
O437 O 0.48514 0.30828 0.6762 0.0
H438 H 0.61412 0.33457 0.41948 0.0
H439 H 0.4992 0.31478 0.33436 0.0
H440 H 0.52475 0.36521 0.26714 0.0
H441 H 0.58267 0.3755 0.31148 0.0
H442 H 0.58727 0.2846 0.4865 0.0
H443 H 0.53504 0.21882 0.07063 0.0
H444 H 0.47995 0.19228 0.05853 0.0
O445 O 0.4808 0.28237 0.50404 0.0
C446 C 0.47883 0.21782 0.6157 0.0
C447 C 0.46381 0.21479 0.21766 0.0
C448 C 0.5168 0.2231 0.13559 0.0
N449 N 0.50376 0.24606 0.3213 0.0
C450 C 0.47313 0.23365 0.31403 0.0
C451 C 0.52432 0.24342 0.22907 0.0
C452 C 0.48632 0.20844 0.12994 0.0
C453 C 0.56297 0.23792 0.842 0.0
N454 N 0.53001 0.23729 0.83568 0.0
C455 C 0.58021 0.21007 0.86938 0.0
C456 C 0.56362 0.18116 0.88888 0.0
C457 C 0.53007 0.18055 0.88257 0.0
C458 C 0.5136 0.20908 0.85769 0.0
C459 C 0.46633 0.28979 0.09064 0.0
C460 C 0.4451 0.27819 0.8642 0.0
C461 C 0.48819 0.2837 -0.0001 0.0
N462 N 0.47749 0.27779 0.8883 0.0
C463 C 0.42259 0.28365 0.95328 0.0
C464 C 0.43336 0.28944 0.06746 0.0
C465 C 0.47209 0.30453 0.57536 0.0
C466 C 0.5889 0.33027 0.39954 0.0
C467 C 0.52434 0.31875 0.35194 0.0
C468 C 0.53878 0.34747 0.31399 0.0
C469 C 0.57125 0.35323 0.33854 0.0
N470 N 0.54164 0.29641 0.41274 0.0
C471 C 0.57357 0.30189 0.43645 0.0
H472 H 0.45069 0.64692 0.85815 0.0
H473 H 0.37054 0.69587 0.69161 0.0
H474 H 0.33251 0.65784 0.78508 0.0
H475 H 0.4151 0.56502 0.83026 0.0
H476 H 0.43057 0.55163 0.96978 0.0
H477 H 0.45233 0.5818 0.88668 0.0
H478 H 0.45019 0.62261 0.06539 0.0
H479 H 0.43135 0.5901 0.14587 0.0
H480 H 0.41175 0.6285 0.137 0.0
H481 H 0.30259 0.6178 0.90737 0.0
H482 H 0.28271 0.57536 0.04082 0.0
H483 H 0.38151 0.55014 0.12595 0.0
C484 C 0.42518 0.64932 0.83993 0.0
C485 C 0.41369 0.67455 0.76722 0.0
C486 C 0.38006 0.67691 0.74675 0.0
C487 C 0.35817 0.65541 0.79974 0.0
C488 C 0.37014 0.63143 0.87294 0.0
C489 C 0.40284 0.62789 0.89217 0.0
C490 C 0.40905 0.59976 0.97493 0.0
C491 C 0.42787 0.57297 0.9116 0.0
C492 C 0.42667 0.61098 0.08727 0.0
C493 C 0.3747 0.58895 0.00212 0.0
C494 C 0.35272 0.60756 0.9419 0.0
C495 C 0.31957 0.60301 0.95488 0.0
C496 C 0.30851 0.57889 0.0317 0.0
C497 C 0.33046 0.55941 0.09502 0.0
C498 C 0.36405 0.56455 0.07915 0.0
H499 H 0.4676 0.89442 0.33172 0.0
H500 H 0.40675 0.80842 0.33479 0.0
H501 H 0.36499 0.8376 0.22337 0.0
H502 H 0.42204 0.98164 0.26843 0.0
H503 H 0.44655 0.95418 0.35159 0.0
H504 H 0.40322 0.95253 0.36472 0.0
H505 H 0.47352 0.93447 0.15876 0.0
H506 H 0.449 0.96165 0.07448 0.0
H507 H 0.44866 0.91904 0.04056 0.0
H508 H 0.32994 0.87657 0.10635 0.0
H509 H 0.30424 0.92227 0.00335 0.0
H510 H 0.38878 0.98192 0.07503 0.0
C511 C 0.44534 0.88177 0.31051 0.0
C512 C 0.44048 0.84911 0.34323 0.0
C513 C 0.41103 0.8335 0.31214 0.0
C514 C 0.38718 0.84985 0.24814 0.0
C515 C 0.39302 0.88186 0.21565 0.0
C516 C 0.42132 0.89768 0.24662 0.0
C517 C 0.42191 0.93199 0.20032 0.0
C518 C 0.42352 0.95654 0.30233 0.0
C519 C 0.44993 0.93707 0.11337 0.0
C520 C 0.38958 0.93303 0.13811 0.0
C521 C 0.37321 0.90393 0.14773 0.0
C522 C 0.34263 0.89944 0.09827 0.0
C523 C 0.32826 0.92551 0.03936 0.0
C524 C 0.34447 0.95573 0.03004 0.0
C525 C 0.37572 0.95917 0.07933 0.0
H526 H 0.07201 0.84459 0.4129 0.0
H527 H 0.10838 0.85538 0.05695 0.0
H528 H 0.14849 0.89543 0.12856 0.0
H529 H 0.07623 0.92299 0.51197 0.0
H530 H 0.09187 0.91432 0.65641 0.0
H531 H 0.06827 0.88432 0.57899 0.0
H532 H 0.11926 0.84081 0.58038 0.0
H533 H 0.13403 0.87127 0.68215 0.0
H534 H 0.15791 0.85864 0.55812 0.0
H535 H 0.18629 0.93276 0.2436 0.0
H536 H 0.21116 0.97262 0.37779 0.0
H537 H 0.14905 0.93855 0.66015 0.0
C538 C 0.08816 0.85545 0.34959 0.0
C539 C 0.08659 0.84697 0.22868 0.0
C540 C 0.10887 0.86149 0.14977 0.0
C541 C 0.13185 0.88424 0.18976 0.0
C542 C 0.1326 0.89206 0.30936 0.0
C543 C 0.11152 0.87791 0.38825 0.0
C544 C 0.1176 0.8904 0.51233 0.0
C545 C 0.08665 0.90379 0.56821 0.0
C546 C 0.13293 0.86381 0.58809 0.0
C547 C 0.14237 0.91672 0.48867 0.0
C548 C 0.15215 0.91583 0.37244 0.0
C549 C 0.1774 0.9352 0.33225 0.0
C550 C 0.19174 0.95739 0.41037 0.0
C551 C 0.1814 0.95961 0.52922 0.0
C552 C 0.15678 0.93838 0.56907 0.0
H553 H 0.0637 0.6799 0.77121 0.0
H554 H 0.08757 0.65584 0.13259 0.0
H555 H 0.13078 0.61992 0.06085 0.0
H556 H 0.06455 0.64292 0.59411 0.0
H557 H 0.07448 0.60284 0.64144 0.0
H558 H 0.09227 0.61899 0.50912 0.0
H559 H 0.11044 0.68918 0.6133 0.0
H560 H 0.13645 0.66362 0.52529 0.0
H561 H 0.14917 0.67762 0.66808 0.0
H562 H 0.17258 0.58873 0.94802 0.0
H563 H 0.2041 0.55719 0.80827 0.0
H564 H 0.15042 0.59789 0.51749 0.0
C565 C 0.07798 0.66711 0.83557 0.0
C566 C 0.07218 0.67065 0.95771 0.0
C567 C 0.09147 0.65345 0.03868 0.0
C568 C 0.11617 0.63312 -0.00124 0.0
C569 C 0.12115 0.63021 0.8777 0.0
C570 C 0.10249 0.64653 0.79746 0.0
C571 C 0.11265 0.6389 0.67232 0.0
C572 C 0.08432 0.62513 0.59984 0.0
C573 C 0.12799 0.66909 0.61597 0.0
C574 C 0.13808 0.61368 0.69369 0.0
C575 C 0.14363 0.61027 0.81293 0.0
C576 C 0.16769 0.59038 0.85499 0.0
C577 C 0.18569 0.57259 0.77382 0.0
C578 C 0.17936 0.57412 0.6511 0.0
C579 C 0.15541 0.59545 0.61062 0.0
H580 H 0.81481 0.07644 0.54277 0.0
H581 H 0.88731 0.02845 0.75311 0.0
H582 H 0.92988 0.06153 0.65861 0.0
H583 H 0.86079 0.08821 0.27249 0.0
H584 H 0.84349 0.12729 0.25003 0.0
H585 H 0.82121 0.09697 0.33051 0.0
H586 H 0.81757 0.14038 0.50087 0.0
H587 H 0.84261 0.16816 0.41901 0.0
H588 H 0.85444 0.15594 0.56474 0.0
H589 H 0.96487 0.09898 0.53847 0.0
H590 H 0.98943 0.14054 0.41 0.0
H591 H 0.89455 0.1655 0.27951 0.0
C592 C 0.83967 0.07286 0.56861 0.0
C593 C 0.84776 0.04961 0.65485 0.0
C594 C 0.8805 0.04608 0.6876 0.0
C595 C 0.90489 0.0647 0.63403 0.0
C596 C 0.89617 0.08724 0.54905 0.0
C597 C 0.86432 0.09178 0.51764 0.0
C598 C 0.86146 0.11893 0.42841 0.0
C599 C 0.8457 0.1071 0.31366 0.0
C600 C 0.84292 0.14755 0.48145 0.0
C601 C 0.89676 0.12758 0.40949 0.0
C602 C 0.91633 0.10928 0.48122 0.0
C603 C 0.94976 0.1133 0.48153 0.0
C604 C 0.96352 0.13681 0.40762 0.0
C605 C 0.94403 0.15576 0.33271 0.0
C606 C 0.91018 0.15081 0.3333 0.0
H607 H 0.95743 0.35857 0.87604 0.0
H608 H 0.89425 0.33708 0.17075 0.0
H609 H 0.85244 0.37198 0.08443 0.0
H610 H 0.93512 0.44321 0.84896 0.0
H611 H 0.93779 0.44289 0.69054 0.0
H612 H 0.96261 0.41621 0.77591 0.0
H613 H 0.9402 0.36781 0.65773 0.0
H614 H 0.91425 0.39362 0.57368 0.0
H615 H 0.8973 0.36002 0.65403 0.0
H616 H 0.81736 0.40943 0.96562 0.0
H617 H 0.79216 0.44719 0.8268 0.0
H618 H 0.8782 0.44499 0.60882 0.0
C619 C 0.93495 0.36154 0.92325 0.0
C620 C 0.92922 0.34521 0.03083 0.0
C621 C 0.89941 0.34965 0.08932 0.0
C622 C 0.87545 0.36935 0.0406 0.0
C623 C 0.88186 0.3851 0.9346 0.0
C624 C 0.91099 0.38163 0.87704 0.0
C625 C 0.91182 0.40131 0.76441 0.0
C626 C 0.93841 0.42746 0.77036 0.0
C627 C 0.91612 0.37935 0.65606 0.0
C628 C 0.8785 0.4162 0.76699 0.0
C629 C 0.86165 0.40656 0.86605 0.0
C630 C 0.83046 0.41728 0.88833 0.0
C631 C 0.81631 0.43875 0.8085 0.0
C632 C 0.83311 0.44916 0.70633 0.0
C633 C 0.86461 0.43746 0.68551 0.0
H634 H 0.70469 0.42002 0.12844 0.0
H635 H 0.63124 0.46331 0.34952 0.0
H636 H 0.58922 0.43236 0.24326 0.0
H637 H 0.65914 0.41879 0.86329 0.0
H638 H 0.67412 0.38039 0.8127 0.0
H639 H 0.69868 0.40563 0.90727 0.0
H640 H 0.70342 0.35862 0.05659 0.0
H641 H 0.67898 0.33326 0.96213 0.0
H642 H 0.66722 0.33978 0.11312 0.0
H643 H 0.555 0.39678 0.11318 0.0
H644 H 0.53101 0.35796 0.97158 0.0
H645 H 0.62618 0.33811 0.83127 0.0
C646 C 0.6798 0.4226 0.15562 0.0
C647 C 0.6713 0.44399 0.24792 0.0
C648 C 0.63843 0.44685 0.28012 0.0
C649 C 0.61433 0.42943 0.21992 0.0
C650 C 0.62347 0.40862 0.12935 0.0
C651 C 0.65542 0.40486 0.09797 0.0
C652 C 0.65864 0.38102 -0.00313 0.0
C653 C 0.67357 0.39742 0.88858 0.0
C654 C 0.67823 0.35141 0.03446 0.0
C655 C 0.62351 0.37214 0.97567 0.0
C656 C 0.60366 0.38828 0.0535 0.0
C657 C 0.57031 0.38381 0.05245 0.0
C658 C 0.55691 0.3618 0.97148 0.0
C659 C 0.5767 0.34519 0.89007 0.0
C660 C 0.61043 0.35071 0.89173 0.0
H661 H 0.68354 0.06551 0.19681 0.0
H662 H 0.67302 0.1096 0.85327 0.0
H663 H 0.64406 0.15549 0.94534 0.0
H664 H 0.60834 0.08149 0.30592 0.0
H665 H 0.62047 0.09133 0.45391 0.0
H666 H 0.64459 0.06442 0.36599 0.0
H667 H 0.69532 0.10113 0.39255 0.0
H668 H 0.67278 0.12958 0.48225 0.0
H669 H 0.69356 0.14301 0.35299 0.0
H670 H 0.61993 0.19836 0.08281 0.0
H671 H 0.59102 0.22763 0.23716 0.0
H672 H 0.60862 0.14991 0.48294 0.0
C673 C 0.67547 0.08494 0.14079 0.0
C674 C 0.68082 0.0842 0.0181 0.0
C675 C 0.66931 0.10983 0.94768 0.0
C676 C 0.65303 0.13602 -0.00073 0.0
C677 C 0.64815 0.13588 0.12093 0.0
C678 C 0.65861 0.11073 0.19004 0.0
C679 C 0.6491 0.11549 0.3173 0.0
C680 C 0.6295 0.08646 0.36363 0.0
C681 C 0.67944 0.12258 0.39109 0.0
C682 C 0.62891 0.14554 0.30821 0.0
C683 C 0.6305 0.15811 0.19576 0.0
C684 C 0.61723 0.18787 0.16931 0.0
C685 C 0.60047 0.20425 0.25815 0.0
C686 C 0.59536 0.19016 0.37063 0.0
C687 C 0.61081 0.16078 0.39671 0.0
H688 H 0.33118 0.43668 0.62066 0.0
H689 H 0.31949 0.42223 0.24391 0.0
H690 H 0.35983 0.37941 0.24803 0.0
H691 H 0.41713 0.42958 0.61292 0.0
H692 H 0.42038 0.40953 0.753 0.0
H693 H 0.38745 0.43664 0.72595 0.0
H694 H 0.3468 0.3913 0.77886 0.0
H695 H 0.37942 0.36377 0.80528 0.0
H696 H 0.34812 0.35321 0.70138 0.0
H697 H 0.40014 0.33873 0.28898 0.0
H698 H 0.44383 0.30488 0.35957 0.0
H699 H 0.43692 0.34917 0.70665 0.0
C700 C 0.33689 0.42439 0.53941 0.0
C701 C 0.32178 0.43271 0.43197 0.0
C702 C 0.33037 0.41616 0.32736 0.0
C703 C 0.3533 0.39173 0.32871 0.0
C704 C 0.36809 0.3845 0.43504 0.0
C705 C 0.36075 0.40049 0.53837 0.0
C706 C 0.38269 0.3896 0.63778 0.0
C707 C 0.40312 0.41803 0.68518 0.0
C708 C 0.36307 0.3735 0.73667 0.0
C709 C 0.40342 0.36513 0.57325 0.0
C710 C 0.3939 0.36235 0.45706 0.0
C711 C 0.40824 0.34094 0.37928 0.0
C712 C 0.43335 0.32195 0.42052 0.0
C713 C 0.44474 0.32496 0.538 0.0
C714 C 0.42928 0.34674 0.61584 0.0
H715 H 0.68869 0.91572 0.64555 0.0
H716 H 0.64635 0.95936 0.95733 0.0
H717 H 0.60051 0.92135 0.94365 0.0
H718 H 0.61356 0.90327 0.48868 0.0
H719 H 0.62478 0.86483 0.42632 0.0
H720 H 0.65538 0.89475 0.45878 0.0
H721 H 0.68607 0.85478 0.58908 0.0
H722 H 0.65635 0.82399 0.55616 0.0
H723 H 0.66523 0.83438 0.70711 0.0
H724 H 0.56059 0.87713 0.90351 0.0
H725 H 0.52737 0.83113 0.83135 0.0
H726 H 0.59263 0.81854 0.53705 0.0
C727 C 0.6696 0.91776 0.70982 0.0
C728 C 0.67126 0.94091 0.802 0.0
C729 C 0.64582 0.94205 0.88551 0.0
C730 C 0.61958 0.92051 0.87866 0.0
C731 C 0.61878 0.89807 0.78704 0.0
C732 C 0.6429 0.89669 0.70333 0.0
C733 C 0.63604 0.87009 0.61389 0.0
C734 C 0.63218 0.8841 0.48956 0.0
C735 C 0.6625 0.84428 0.6168 0.0
C736 C 0.60428 0.85682 0.6606 0.0
C737 C 0.59503 0.87311 0.76145 0.0
C738 C 0.56744 0.86434 0.82421 0.0
C739 C 0.54882 0.83818 0.78305 0.0
C740 C 0.55747 0.82158 0.6789 0.0
C741 C 0.58541 0.83115 0.61638 0.0
H742 H 0.05298 0.17452 0.92127 0.0
H743 H 0.09988 0.21375 0.23345 0.0
H744 H 0.14728 0.18002 0.1946 0.0
H745 H 0.08271 0.09229 0.96947 0.0
H746 H 0.08741 0.08323 0.81507 0.0
H747 H 0.0571 0.11139 0.86252 0.0
H748 H 0.08098 0.15303 0.72153 0.0
H749 H 0.11315 0.12686 0.67717 0.0
H750 H 0.12247 0.16626 0.73726 0.0
H751 H 0.18951 0.14465 0.12305 0.0
H752 H 0.22447 0.1041 0.03484 0.0
H753 H 0.15135 0.08294 0.76982 0.0
C754 C 0.07337 0.17602 0.98077 0.0
C755 C 0.07283 0.19695 0.08036 0.0
C756 C 0.09969 0.19791 0.1572 0.0
C757 C 0.1268 0.17893 0.13552 0.0
C758 C 0.12663 0.15858 0.03755 0.0
C759 C 0.10059 0.15644 0.96199 0.0
C760 C 0.10651 0.13066 0.86784 0.0
C761 C 0.08197 0.10274 0.87944 0.0
C762 C 0.10576 0.14514 0.74361 0.0
C763 C 0.14033 0.1197 0.90039 0.0
C764 C 0.15112 0.1363 -0.0012 0.0
C765 C 0.1813 0.13104 0.04719 0.0
C766 C 0.20101 0.10781 -0.00448 0.0
C767 C 0.19082 0.08983 0.89504 0.0
C768 C 0.15997 0.09614 0.84627 0.0
H769 H 0.91659 0.68252 0.06517 0.0
H770 H 0.97201 0.68879 0.38879 0.0
H771 H 0.93908 0.64504 0.47413 0.0
H772 H 0.84081 0.67133 0.20701 0.0
H773 H 0.82411 0.64323 0.10161 0.0
H774 H 0.85374 0.6727 0.05551 0.0
H775 H 0.89055 0.62814 0.97405 0.0
H776 H 0.86137 0.59773 0.01616 0.0
H777 H 0.90235 0.59524 0.06787 0.0
H778 H 0.8992 0.60363 0.52995 0.0
H779 H 0.85417 0.56553 0.55473 0.0
H780 H 0.82168 0.58573 0.19844 0.0
C781 C 0.92181 0.67447 0.15375 0.0
C782 C 0.94688 0.6891 0.22064 0.0
C783 C 0.95282 0.67824 0.33651 0.0
C784 C 0.93429 0.6533 0.38562 0.0
C785 C 0.90941 0.63984 0.31875 0.0
C786 C 0.90295 0.64996 0.20552 0.0
C787 C 0.87353 0.63234 0.15604 0.0
C788 C 0.84646 0.65632 0.12834 0.0
C789 C 0.88249 0.61217 0.04704 0.0
C790 C 0.86458 0.61082 0.25942 0.0
C791 C 0.88583 0.61561 0.35177 0.0
C792 C 0.88248 0.59946 0.45813 0.0
C793 C 0.85664 0.57785 0.4712 0.0
C794 C 0.83417 0.57245 0.37858 0.0
C795 C 0.83843 0.58911 0.27076 0.0
H796 H 0.36635 0.06828 0.80885 0.0
H797 H 0.28628 0.12995 0.71347 0.0
H798 H 0.32422 0.17165 0.6457 0.0
H799 H 0.41939 0.13489 0.9136 0.0
H800 H 0.45558 0.11668 0.85701 0.0
H801 H 0.42214 0.09151 0.90236 0.0
H802 H 0.42158 0.06439 0.69628 0.0
H803 H 0.45456 0.08999 0.64942 0.0
H804 H 0.41738 0.08911 0.56696 0.0
H805 H 0.36884 0.20593 0.58241 0.0
H806 H 0.41983 0.23535 0.54985 0.0
H807 H 0.47339 0.15383 0.68388 0.0
C808 C 0.35697 0.09088 0.77624 0.0
C809 C 0.3233 0.09578 0.76607 0.0
C810 C 0.31191 0.1255 0.72137 0.0
C811 C 0.33327 0.14936 0.6821 0.0
C812 C 0.36613 0.1434 0.68858 0.0
C813 C 0.37818 0.11534 0.73654 0.0
C814 C 0.41492 0.1159 0.73367 0.0
C815 C 0.42882 0.11467 0.85912 0.0
C816 C 0.42787 0.08819 0.65702 0.0
C817 C 0.42132 0.1486 0.67668 0.0
C818 C 0.39259 0.16368 0.65063 0.0
C819 C 0.39155 0.19434 0.60117 0.0
C820 C 0.42064 0.21068 0.58144 0.0
C821 C 0.45044 0.19632 0.60985 0.0
C822 C 0.45092 0.16471 0.65696 0.0
H823 H 0.83441 0.91965 0.75793 0.0
H824 H 0.78018 0.91458 0.0853 0.0
H825 H 0.81851 0.87527 0.16227 0.0
H826 H 0.8523 0.83155 0.75791 0.0
H827 H 0.8917 0.8366 0.69412 0.0
H828 H 0.86007 0.86444 0.65788 0.0
H829 H 0.89513 0.91288 0.72526 0.0
H830 H 0.9276 0.88601 0.76086 0.0
H831 H 0.9122 0.91319 0.87134 0.0
H832 H 0.86566 0.84404 0.21673 0.0
H833 H 0.91523 0.81274 0.23375 0.0
H834 H 0.93714 0.83047 0.86621 0.0
C835 C 0.83039 0.90998 0.84523 0.0
C836 C 0.80473 0.92107 0.91675 0.0
C837 C 0.80006 0.90734 0.02974 0.0
C838 C 0.82163 0.88482 0.07444 0.0
C839 C 0.84724 0.8754 0.00397 0.0
C840 C 0.85133 0.88662 0.89062 0.0
C841 C 0.88077 0.87146 0.83375 0.0
C842 C 0.87062 0.84974 0.72972 0.0
C843 C 0.90537 0.89744 0.79557 0.0
C844 C 0.89343 0.85154 0.93566 0.0
C845 C 0.87355 0.85444 0.0327 0.0
C846 C 0.88106 0.84083 0.14072 0.0
C847 C 0.90949 0.82329 0.14987 0.0
C848 C 0.92986 0.81894 0.05141 0.0
C849 C 0.92165 0.83308 0.94235 0.0
H850 H 0.09001 0.32848 0.10993 0.0
H851 H 0.02938 0.33853 0.41925 0.0
H852 H 0.06657 0.37986 0.49911 0.0
H853 H 0.16495 0.33527 0.26177 0.0
H854 H 0.18532 0.3582 0.14892 0.0
H855 H 0.15284 0.33095 0.10997 0.0
H856 H 0.12257 0.37775 0.00829 0.0
H857 H 0.15525 0.40494 0.04591 0.0
H858 H 0.11461 0.41429 0.08993 0.0
H859 H 0.11105 0.4185 0.55066 0.0
H860 H 0.15945 0.45328 0.5676 0.0
H861 H 0.19304 0.41748 0.2293 0.0
C862 C 0.08432 0.33985 0.19336 0.0
C863 C 0.05664 0.33029 0.25809 0.0
C864 C 0.0504 0.34534 0.36808 0.0
C865 C 0.07139 0.36891 0.41428 0.0
C866 C 0.0988 0.37724 0.35006 0.0
C867 C 0.10534 0.36335 0.24175 0.0
C868 C 0.13724 0.37602 0.19349 0.0
C869 C 0.16152 0.34846 0.17764 0.0
C870 C 0.1321 0.39434 0.07753 0.0
C871 C 0.14755 0.3989 0.29197 0.0
C872 C 0.1249 0.39932 0.38098 0.0
C873 C 0.12893 0.4185 0.48122 0.0
C874 C 0.15662 0.43815 0.49014 0.0
C875 C 0.1802 0.43849 0.39968 0.0
C876 C 0.17557 0.41815 0.29997 0.0
H877 H 0.58926 0.68567 0.6563 0.0
H878 H 0.54679 0.68228 0.30755 0.0
H879 H 0.58786 0.64316 0.24427 0.0
H880 H 0.67257 0.68153 0.55838 0.0
H881 H 0.68551 0.65642 0.67852 0.0
H882 H 0.65239 0.6838 0.69874 0.0
H883 H 0.61585 0.63619 0.76588 0.0
H884 H 0.6489 0.60869 0.74603 0.0
H885 H 0.61113 0.6013 0.67152 0.0
H886 H 0.63197 0.604 0.21879 0.0
H887 H 0.67752 0.56682 0.2305 0.0
H888 H 0.69538 0.59735 0.59168 0.0
C889 C 0.58873 0.67665 0.56663 0.0
C890 C 0.565 0.68726 0.48603 0.0
C891 C 0.56505 0.67503 0.36962 0.0
C892 C 0.58821 0.65268 0.33315 0.0
C893 C 0.61153 0.64308 0.41368 0.0
C894 C 0.61219 0.65468 0.52789 0.0
C895 C 0.64036 0.64047 0.5956 0.0
C896 C 0.66411 0.66715 0.63513 0.0
C897 C 0.62833 0.62048 0.701 0.0
C898 C 0.65517 0.61897 0.50154 0.0
C899 C 0.63789 0.62081 0.39778 0.0
C900 C 0.64586 0.60251 0.29926 0.0
C901 C 0.67196 0.58145 0.30695 0.0
C902 C 0.69033 0.57895 0.41202 0.0
C903 C 0.68196 0.59846 0.51013 0.0
loop_
_geom_bond_atom_site_label_1
_geom_bond_atom_site_label_2
_geom_bond_distance
_geom_bond_site_symmetry_2
_ccdc_geom_bond_type
Co0 O2 2.143 . S
Co0 O8 2.074 . S
Co0 O11 2.093 . S
Co0 O24 2.097 . S
Co0 N41 2.151 . S
Co0 N49 2.214 . S
Co1 O2 2.160 . S
Co1 O7 2.058 . S
Co1 O17 2.057 . S
Co1 O32 2.037 . S
Co1 N36 2.145 . S
Co1 N57 2.257 . S
O2 Co0 2.143 . S
O2 Co1 2.160 . S
C3 O4 1.278 . S
C3 O11 1.224 . S
O4 C3 1.278 . S
C5 O6 1.245 . S
C5 O17 1.232 . S
O6 C5 1.245 . S
O7 Co1 2.058 . S
O7 C33 1.269 . S
O8 Co0 2.074 . S
O8 C33 1.257 . S
H9 C34 0.930 . S
H10 C40 0.930 . S
O11 Co0 2.093 . S
O11 C3 1.224 . S
H12 C44 0.929 . S
H13 C46 0.930 . S
H14 C47 0.930 . S
H15 C45 0.929 . S
H16 C48 0.928 . S
O17 Co1 2.057 . S
O17 C5 1.232 . S
H18 C37 0.929 . S
H19 C38 0.929 . S
H20 C50 0.931 . S
H21 C42 0.929 . S
H22 C51 0.930 . S
H23 C43 0.931 . S
O24 Co0 2.097 . S
O24 C52 1.214 . S
H25 C53 0.929 . S
H26 C54 0.929 . S
H27 C55 0.930 1_556 S
H28 C56 0.929 1_556 S
H29 C58 0.930 . S
H30 C35 0.930 . S
H31 C39 0.930 . S
O32 Co1 2.037 . S
O32 C52 1.234 . S
C33 O7 1.269 . S
C33 O8 1.257 . S
C34 H9 0.930 . S
C34 C37 1.388 1_556 S
C34 C39 1.418 . S
C35 H30 0.930 . S
C35 C38 1.404 . S
C35 C39 1.353 . S
N36 Co1 2.145 . S
N36 C37 1.397 . S
N36 C38 1.334 1_554 S
C37 H18 0.929 . S
C37 C34 1.388 1_554 S
C37 N36 1.397 . S
C38 H19 0.929 . S
C38 C35 1.404 . S
C38 N36 1.334 1_556 S
C39 H31 0.930 . S
C39 C34 1.418 . S
C39 C35 1.353 . S
C40 H10 0.930 . S
C40 N41 1.330 . S
C40 C42 1.446 . S
N41 Co0 2.151 . S
N41 C40 1.330 . S
N41 C45 1.418 . S
C42 H21 0.929 . S
C42 C40 1.446 . S
C42 C43 1.332 . S
C43 H23 0.931 . S
C43 C42 1.332 . S
C43 C44 1.267 . S
C44 H12 0.929 . S
C44 C43 1.267 . S
C44 C45 1.251 . S
C45 H15 0.929 . S
C45 N41 1.418 . S
C45 C44 1.251 . S
C46 H13 0.930 . S
C46 C48 1.406 . S
C46 C51 1.261 . S
C47 H14 0.930 . S
C47 N49 1.325 . S
C47 C50 1.357 . S
C48 H16 0.928 . S
C48 C46 1.406 . S
C48 N49 1.261 . S
N49 Co0 2.214 . S
N49 C47 1.325 . S
N49 C48 1.261 . S
C50 H20 0.931 . S
C50 C47 1.357 . S
C50 C51 1.312 . S
C51 H22 0.930 . S
C51 C46 1.261 . S
C51 C50 1.312 . S
C52 O24 1.214 . S
C52 O32 1.234 . S
C53 H25 0.929 . S
C53 C56 1.391 . S
C53 C58 1.391 . S
C54 H26 0.929 . S
C54 C55 1.390 . S
C54 N57 1.391 . S
C55 H27 0.930 1_554 S
C55 C54 1.390 . S
C55 C56 1.392 . S
C56 H28 0.929 1_554 S
C56 C53 1.391 . S
C56 C55 1.392 . S
N57 Co1 2.257 . S
N57 C54 1.391 . S
N57 C58 1.388 . S
C58 H29 0.930 . S
C58 C53 1.391 . S
C58 N57 1.388 . S
Co59 O61 2.143 . S
Co59 O67 2.074 . S
Co59 O70 2.093 . S
Co59 O83 2.097 . S
Co59 N100 2.151 . S
Co59 N108 2.214 . S
Co60 O61 2.160 . S
Co60 O66 2.058 . S
Co60 O76 2.057 . S
Co60 O91 2.037 . S
Co60 N95 2.145 . S
Co60 N116 2.257 . S
O61 Co59 2.143 . S
O61 Co60 2.160 . S
C62 O63 1.278 . S
C62 O70 1.224 . S
O63 C62 1.278 . S
C64 O65 1.245 . S
C64 O76 1.232 . S
O65 C64 1.245 . S
O66 Co60 2.058 . S
O66 C92 1.269 . S
O67 Co59 2.074 . S
O67 C92 1.257 . S
H68 C93 0.930 . S
H69 C99 0.930 . S
O70 Co59 2.093 . S
O70 C62 1.224 . S
H71 C103 0.929 . S
H72 C105 0.930 . S
H73 C106 0.930 . S
H74 C104 0.929 . S
H75 C107 0.928 . S
O76 Co60 2.057 . S
O76 C64 1.232 . S
H77 C96 0.929 . S
H78 C97 0.929 . S
H79 C109 0.931 . S
H80 C101 0.929 . S
H81 C110 0.930 . S
H82 C102 0.931 . S
O83 Co59 2.097 . S
O83 C111 1.214 . S
H84 C112 0.929 . S
H85 C113 0.929 . S
H86 C114 0.930 1_554 S
H87 C115 0.929 1_554 S
H88 C117 0.930 . S
H89 C94 0.930 . S
H90 C98 0.930 . S
O91 Co60 2.037 . S
O91 C111 1.234 . S
C92 O66 1.269 . S
C92 O67 1.257 . S
C93 H68 0.930 . S
C93 C96 1.388 1_554 S
C93 C98 1.418 . S
C94 H89 0.930 . S
C94 C97 1.404 . S
C94 C98 1.353 . S
N95 Co60 2.145 . S
N95 C96 1.397 . S
N95 C97 1.334 1_556 S
C96 H77 0.929 . S
C96 C93 1.388 1_556 S
C96 N95 1.397 . S
C97 H78 0.929 . S
C97 C94 1.404 . S
C97 N95 1.334 1_554 S
C98 H90 0.930 . S
C98 C93 1.418 . S
C98 C94 1.353 . S
C99 H69 0.930 . S
C99 N100 1.330 . S
C99 C101 1.446 . S
N100 Co59 2.151 . S
N100 C99 1.330 . S
N100 C104 1.418 . S
C101 H80 0.929 . S
C101 C99 1.446 . S
C101 C102 1.332 . S
C102 H82 0.931 . S
C102 C101 1.332 . S
C102 C103 1.267 . S
C103 H71 0.929 . S
C103 C102 1.267 . S
C103 C104 1.251 . S
C104 H74 0.929 . S
C104 N100 1.418 . S
C104 C103 1.251 . S
C105 H72 0.930 . S
C105 C107 1.406 . S
C105 C110 1.261 . S
C106 H73 0.930 . S
C106 N108 1.325 . S
C106 C109 1.357 . S
C107 H75 0.928 . S
C107 C105 1.406 . S
C107 N108 1.261 . S
N108 Co59 2.214 . S
N108 C106 1.325 . S
N108 C107 1.261 . S
C109 H79 0.931 . S
C109 C106 1.357 . S
C109 C110 1.312 . S
C110 H81 0.930 . S
C110 C105 1.261 . S
C110 C109 1.312 . S
C111 O83 1.214 . S
C111 O91 1.234 . S
C112 H84 0.929 . S
C112 C115 1.391 . S
C112 C117 1.391 . S
C113 H85 0.929 . S
C113 C114 1.390 . S
C113 N116 1.391 . S
C114 H86 0.930 1_556 S
C114 C113 1.390 . S
C114 C115 1.392 . S
C115 H87 0.929 1_556 S
C115 C112 1.391 . S
C115 C114 1.392 . S
N116 Co60 2.257 . S
N116 C113 1.391 . S
N116 C117 1.388 . S
C117 H88 0.930 . S
C117 C112 1.391 . S
C117 N116 1.388 . S
Co118 O120 2.143 1_545 S
Co118 O126 2.074 . S
Co118 O129 2.093 1_545 S
Co118 O142 2.097 . S
Co118 N159 2.151 1_545 S
Co118 N167 2.214 . S
Co119 O120 2.160 1_544 S
Co119 O125 2.058 1_554 S
Co119 O135 2.057 1_545 S
Co119 O150 2.037 1_554 S
Co119 N154 2.145 . S
Co119 N175 2.257 1_545 S
O120 Co118 2.143 1_565 S
O120 Co119 2.160 1_566 S
C121 O122 1.278 . S
C121 O129 1.224 . S
O122 C121 1.278 . S
C123 O124 1.245 1_554 S
C123 O135 1.232 . S
O124 C123 1.245 1_556 S
O125 Co119 2.058 1_556 S
O125 C151 1.269 . S
O126 Co118 2.074 . S
O126 C151 1.257 . S
H127 C152 0.930 . S
H128 C158 0.930 . S
O129 Co118 2.093 1_565 S
O129 C121 1.224 . S
H130 C162 0.929 1_545 S
H131 C164 0.930 . S
H132 C165 0.930 . S
H133 C163 0.929 . S
H134 C166 0.928 . S
O135 Co119 2.057 1_565 S
O135 C123 1.232 . S
H136 C155 0.929 . S
H137 C156 0.929 1_565 S
H138 C168 0.931 . S
H139 C160 0.929 . S
H140 C169 0.930 . S
H141 C161 0.931 . S
O142 Co118 2.097 . S
O142 C170 1.214 . S
H143 C171 0.929 . S
H144 C172 0.929 1_545 S
H145 C173 0.930 . S
H146 C174 0.929 . S
H147 C176 0.930 . S
H148 C153 0.930 . S
H149 C157 0.930 . S
O150 Co119 2.037 1_556 S
O150 C170 1.234 . S
C151 O125 1.269 . S
C151 O126 1.257 . S
C152 H127 0.930 . S
C152 C155 1.388 . S
C152 C157 1.418 . S
C153 H148 0.930 . S
C153 C156 1.404 . S
C153 C157 1.353 . S
N154 Co119 2.145 . S
N154 C155 1.397 . S
N154 C156 1.334 . S
C155 H136 0.929 . S
C155 C152 1.388 . S
C155 N154 1.397 . S
C156 H137 0.929 1_545 S
C156 C153 1.404 . S
C156 N154 1.334 . S
C157 H149 0.930 . S
C157 C152 1.418 . S
C157 C153 1.353 . S
C158 H128 0.930 . S
C158 N159 1.330 . S
C158 C160 1.446 . S
N159 Co118 2.151 1_565 S
N159 C158 1.330 . S
N159 C163 1.418 1_565 S
C160 H139 0.929 . S
C160 C158 1.446 . S
C160 C161 1.332 . S
C161 H141 0.931 . S
C161 C160 1.332 . S
C161 C162 1.267 . S
C162 H130 0.929 1_565 S
C162 C161 1.267 . S
C162 C163 1.251 1_565 S
C163 H133 0.929 . S
C163 N159 1.418 1_545 S
C163 C162 1.251 1_545 S
C164 H131 0.930 . S
C164 C166 1.406 . S
C164 C169 1.261 . S
C165 H132 0.930 . S
C165 N167 1.325 . S
C165 C168 1.357 . S
C166 H134 0.928 . S
C166 C164 1.406 . S
C166 N167 1.261 . S
N167 Co118 2.214 . S
N167 C165 1.325 . S
N167 C166 1.261 . S
C168 H138 0.931 . S
C168 C165 1.357 . S
C168 C169 1.312 . S
C169 H140 0.930 . S
C169 C164 1.261 . S
C169 C168 1.312 . S
C170 O142 1.214 . S
C170 O150 1.234 . S
C171 H143 0.929 . S
C171 C174 1.391 . S
C171 C176 1.391 . S
C172 H144 0.929 1_565 S
C172 C173 1.390 . S
C172 N175 1.391 . S
C173 H145 0.930 . S
C173 C172 1.390 . S
C173 C174 1.392 . S
C174 H146 0.929 . S
C174 C171 1.391 . S
C174 C173 1.392 . S
N175 Co119 2.257 1_565 S
N175 C172 1.391 . S
N175 C176 1.388 . S
C176 H147 0.930 . S
C176 C171 1.391 . S
C176 N175 1.388 . S
Co177 O179 2.143 1_655 S
Co177 O185 2.074 . S
Co177 O188 2.093 1_655 S
Co177 O201 2.097 . S
Co177 N218 2.151 1_655 S
Co177 N226 2.214 . S
Co178 O179 2.160 1_656 S
Co178 O184 2.058 1_556 S
Co178 O194 2.057 1_655 S
Co178 O209 2.037 1_556 S
Co178 N213 2.145 . S
Co178 N234 2.257 1_655 S
O179 Co177 2.143 1_455 S
O179 Co178 2.160 1_454 S
C180 O181 1.278 . S
C180 O188 1.224 . S
O181 C180 1.278 . S
C182 O183 1.245 1_556 S
C182 O194 1.232 . S
O183 C182 1.245 1_554 S
O184 Co178 2.058 1_554 S
O184 C210 1.269 . S
O185 Co177 2.074 . S
O185 C210 1.257 . S
H186 C211 0.930 . S
H187 C217 0.930 . S
O188 Co177 2.093 1_455 S
O188 C180 1.224 . S
H189 C221 0.929 1_655 S
H190 C223 0.930 . S
H191 C224 0.930 . S
H192 C222 0.929 . S
H193 C225 0.928 . S
O194 Co178 2.057 1_455 S
O194 C182 1.232 . S
H195 C214 0.929 . S
H196 C215 0.929 1_455 S
H197 C227 0.931 . S
H198 C219 0.929 . S
H199 C228 0.930 . S
H200 C220 0.931 . S
O201 Co177 2.097 . S
O201 C229 1.214 . S
H202 C230 0.929 . S
H203 C231 0.929 1_655 S
H204 C232 0.930 . S
H205 C233 0.929 . S
H206 C235 0.930 . S
H207 C212 0.930 . S
H208 C216 0.930 . S
O209 Co178 2.037 1_554 S
O209 C229 1.234 . S
C210 O184 1.269 . S
C210 O185 1.257 . S
C211 H186 0.930 . S
C211 C214 1.388 . S
C211 C216 1.418 . S
C212 H207 0.930 . S
C212 C215 1.404 . S
C212 C216 1.353 . S
N213 Co178 2.145 . S
N213 C214 1.397 . S
N213 C215 1.334 . S
C214 H195 0.929 . S
C214 C211 1.388 . S
C214 N213 1.397 . S
C215 H196 0.929 1_655 S
C215 C212 1.404 . S
C215 N213 1.334 . S
C216 H208 0.930 . S
C216 C211 1.418 . S
C216 C212 1.353 . S
C217 H187 0.930 . S
C217 N218 1.330 . S
C217 C219 1.446 . S
N218 Co177 2.151 1_455 S
N218 C217 1.330 . S
N218 C222 1.418 1_455 S
C219 H198 0.929 . S
C219 C217 1.446 . S
C219 C220 1.332 . S
C220 H200 0.931 . S
C220 C219 1.332 . S
C220 C221 1.267 . S
C221 H189 0.929 1_455 S
C221 C220 1.267 . S
C221 C222 1.251 1_455 S
C222 H192 0.929 . S
C222 N218 1.418 1_655 S
C222 C221 1.251 1_655 S
C223 H190 0.930 . S
C223 C225 1.406 . S
C223 C228 1.261 . S
C224 H191 0.930 . S
C224 N226 1.325 . S
C224 C227 1.357 . S
C225 H193 0.928 . S
C225 C223 1.406 . S
C225 N226 1.261 . S
N226 Co177 2.214 . S
N226 C224 1.325 . S
N226 C225 1.261 . S
C227 H197 0.931 . S
C227 C224 1.357 . S
C227 C228 1.312 . S
C228 H199 0.930 . S
C228 C223 1.261 . S
C228 C227 1.312 . S
C229 O201 1.214 . S
C229 O209 1.234 . S
C230 H202 0.929 . S
C230 C233 1.391 . S
C230 C235 1.391 . S
C231 H203 0.929 1_455 S
C231 C232 1.390 . S
C231 N234 1.391 . S
C232 H204 0.930 . S
C232 C231 1.390 . S
C232 C233 1.392 . S
C233 H205 0.929 . S
C233 C230 1.391 . S
C233 C232 1.392 . S
N234 Co178 2.257 1_455 S
N234 C231 1.391 . S
N234 C235 1.388 . S
C235 H206 0.930 . S
C235 C230 1.391 . S
C235 N234 1.388 . S
Co236 O238 2.143 1_564 S
Co236 O244 2.074 1_554 S
Co236 O247 2.093 1_565 S
Co236 O260 2.097 1_554 S
Co236 N277 2.151 1_565 S
Co236 N285 2.214 . S
Co237 O238 2.160 1_565 S
Co237 O243 2.058 . S
Co237 O253 2.057 1_565 S
Co237 O268 2.037 . S
Co237 N272 2.145 . S
Co237 N293 2.257 1_565 S
O238 Co236 2.143 1_546 S
O238 Co237 2.160 1_545 S
C239 O240 1.278 1_554 S
C239 O247 1.224 . S
O240 C239 1.278 1_556 S
C241 O242 1.245 . S
C241 O253 1.232 . S
O242 C241 1.245 . S
O243 Co237 2.058 . S
O243 C269 1.269 . S
O244 Co236 2.074 1_556 S
O244 C269 1.257 . S
H245 C270 0.930 . S
H246 C276 0.930 . S
O247 Co236 2.093 1_545 S
O247 C239 1.224 . S
H248 C280 0.929 1_565 S
H249 C282 0.930 . S
H250 C283 0.930 . S
H251 C281 0.929 . S
H252 C284 0.928 . S
O253 Co237 2.057 1_545 S
O253 C241 1.232 . S
H254 C273 0.929 . S
H255 C274 0.929 1_545 S
H256 C286 0.931 . S
H257 C278 0.929 . S
H258 C287 0.930 . S
H259 C279 0.931 . S
O260 Co236 2.097 1_556 S
O260 C288 1.214 . S
H261 C289 0.929 . S
H262 C290 0.929 1_565 S
H263 C291 0.930 . S
H264 C292 0.929 . S
H265 C294 0.930 . S
H266 C271 0.930 . S
H267 C275 0.930 . S
O268 Co237 2.037 . S
O268 C288 1.234 . S
C269 O243 1.269 . S
C269 O244 1.257 . S
C270 H245 0.930 . S
C270 C273 1.388 . S
C270 C275 1.418 . S
C271 H266 0.930 . S
C271 C274 1.404 . S
C271 C275 1.353 . S
N272 Co237 2.145 . S
N272 C273 1.397 . S
N272 C274 1.334 . S
C273 H254 0.929 . S
C273 C270 1.388 . S
C273 N272 1.397 . S
C274 H255 0.929 1_565 S
C274 C271 1.404 . S
C274 N272 1.334 . S
C275 H267 0.930 . S
C275 C270 1.418 . S
C275 C271 1.353 . S
C276 H246 0.930 . S
C276 N277 1.330 . S
C276 C278 1.446 . S
N277 Co236 2.151 1_545 S
N277 C276 1.330 . S
N277 C281 1.418 1_545 S
C278 H257 0.929 . S
C278 C276 1.446 . S
C278 C279 1.332 . S
C279 H259 0.931 . S
C279 C278 1.332 . S
C279 C280 1.267 . S
C280 H248 0.929 1_545 S
C280 C279 1.267 . S
C280 C281 1.251 1_545 S
C281 H251 0.929 . S
C281 N277 1.418 1_565 S
C281 C280 1.251 1_565 S
C282 H249 0.930 . S
C282 C284 1.406 . S
C282 C287 1.261 . S
C283 H250 0.930 . S
C283 N285 1.325 . S
C283 C286 1.357 . S
C284 H252 0.928 . S
C284 C282 1.406 . S
C284 N285 1.261 . S
N285 Co236 2.214 . S
N285 C283 1.325 . S
N285 C284 1.261 . S
C286 H256 0.931 . S
C286 C283 1.357 . S
C286 C287 1.312 . S
C287 H258 0.930 . S
C287 C282 1.261 . S
C287 C286 1.312 . S
C288 O260 1.214 . S
C288 O268 1.234 . S
C289 H261 0.929 . S
C289 C292 1.391 . S
C289 C294 1.391 . S
C290 H262 0.929 1_545 S
C290 C291 1.390 . S
C290 N293 1.391 . S
C291 H263 0.930 . S
C291 C290 1.390 . S
C291 C292 1.392 . S
C292 H264 0.929 . S
C292 C289 1.391 . S
C292 C291 1.392 . S
N293 Co237 2.257 1_545 S
N293 C290 1.391 . S
N293 C294 1.388 . S
C294 H265 0.930 . S
C294 C289 1.391 . S
C294 N293 1.388 . S
Co295 O297 2.143 1_456 S
Co295 O303 2.074 1_556 S
Co295 O306 2.093 1_455 S
Co295 O319 2.097 1_556 S
Co295 N336 2.151 1_455 S
Co295 N344 2.214 . S
Co296 O297 2.160 1_455 S
Co296 O302 2.058 . S
Co296 O312 2.057 1_455 S
Co296 O327 2.037 . S
Co296 N331 2.145 . S
Co296 N352 2.257 1_455 S
O297 Co295 2.143 1_654 S
O297 Co296 2.160 1_655 S
C298 O299 1.278 1_556 S
C298 O306 1.224 . S
O299 C298 1.278 1_554 S
C300 O301 1.245 . S
C300 O312 1.232 . S
O301 C300 1.245 . S
O302 Co296 2.058 . S
O302 C328 1.269 . S
O303 Co295 2.074 1_554 S
O303 C328 1.257 . S
H304 C329 0.930 . S
H305 C335 0.930 . S
O306 Co295 2.093 1_655 S
O306 C298 1.224 . S
H307 C339 0.929 1_455 S
H308 C341 0.930 . S
H309 C342 0.930 . S
H310 C340 0.929 . S
H311 C343 0.928 . S
O312 Co296 2.057 1_655 S
O312 C300 1.232 . S
H313 C332 0.929 . S
H314 C333 0.929 1_655 S
H315 C345 0.931 . S
H316 C337 0.929 . S
H317 C346 0.930 . S
H318 C338 0.931 . S
O319 Co295 2.097 1_554 S
O319 C347 1.214 . S
H320 C348 0.929 . S
H321 C349 0.929 1_455 S
H322 C350 0.930 . S
H323 C351 0.929 . S
H324 C353 0.930 . S
H325 C330 0.930 . S
H326 C334 0.930 . S
O327 Co296 2.037 . S
O327 C347 1.234 . S
C328 O302 1.269 . S
C328 O303 1.257 . S
C329 H304 0.930 . S
C329 C332 1.388 . S
C329 C334 1.418 . S
C330 H325 0.930 . S
C330 C333 1.404 . S
C330 C334 1.353 . S
N331 Co296 2.145 . S
N331 C332 1.397 . S
N331 C333 1.334 . S
C332 H313 0.929 . S
C332 C329 1.388 . S
C332 N331 1.397 . S
C333 H314 0.929 1_455 S
C333 C330 1.404 . S
C333 N331 1.334 . S
C334 H326 0.930 . S
C334 C329 1.418 . S
C334 C330 1.353 . S
C335 H305 0.930 . S
C335 N336 1.330 . S
C335 C337 1.446 . S
N336 Co295 2.151 1_655 S
N336 C335 1.330 . S
N336 C340 1.418 1_655 S
C337 H316 0.929 . S
C337 C335 1.446 . S
C337 C338 1.332 . S
C338 H318 0.931 . S
C338 C337 1.332 . S
C338 C339 1.267 . S
C339 H307 0.929 1_655 S
C339 C338 1.267 . S
C339 C340 1.251 1_655 S
C340 H310 0.929 . S
C340 N336 1.418 1_455 S
C340 C339 1.251 1_455 S
C341 H308 0.930 . S
C341 C343 1.406 . S
C341 C346 1.261 . S
C342 H309 0.930 . S
C342 N344 1.325 . S
C342 C345 1.357 . S
C343 H311 0.928 . S
C343 C341 1.406 . S
C343 N344 1.261 . S
N344 Co295 2.214 . S
N344 C342 1.325 . S
N344 C343 1.261 . S
C345 H315 0.931 . S
C345 C342 1.357 . S
C345 C346 1.312 . S
C346 H317 0.930 . S
C346 C341 1.261 . S
C346 C345 1.312 . S
C347 O319 1.214 . S
C347 O327 1.234 . S
C348 H320 0.929 . S
C348 C351 1.391 . S
C348 C353 1.391 . S
C349 H321 0.929 1_655 S
C349 C350 1.390 . S
C349 N352 1.391 . S
C350 H322 0.930 . S
C350 C349 1.390 . S
C350 C351 1.392 . S
C351 H323 0.929 . S
C351 C348 1.391 . S
C351 C350 1.392 . S
N352 Co296 2.257 1_655 S
N352 C349 1.391 . S
N352 C353 1.388 . S
C353 H324 0.930 . S
C353 C348 1.391 . S
C353 N352 1.388 . S
Co354 O356 2.143 . S
Co354 O362 2.074 . S
Co354 O365 2.093 . S
Co354 O378 2.097 . S
Co354 N395 2.151 . S
Co354 N403 2.214 . S
Co355 O356 2.160 . S
Co355 O361 2.058 . S
Co355 O371 2.057 . S
Co355 O386 2.037 . S
Co355 N390 2.145 . S
Co355 N411 2.257 . S
O356 Co354 2.143 . S
O356 Co355 2.160 . S
C357 O358 1.278 . S
C357 O365 1.224 . S
O358 C357 1.278 . S
C359 O360 1.245 . S
C359 O371 1.232 . S
O360 C359 1.245 . S
O361 Co355 2.058 . S
O361 C387 1.269 . S
O362 Co354 2.074 . S
O362 C387 1.257 . S
H363 C388 0.930 . S
H364 C394 0.930 . S
O365 Co354 2.093 . S
O365 C357 1.224 . S
H366 C398 0.929 . S
H367 C400 0.930 . S
H368 C401 0.930 . S
H369 C399 0.929 . S
H370 C402 0.928 . S
O371 Co355 2.057 . S
O371 C359 1.232 . S
H372 C391 0.929 . S
H373 C392 0.929 . S
H374 C404 0.931 . S
H375 C396 0.929 . S
H376 C405 0.930 . S
H377 C397 0.931 . S
O378 Co354 2.097 . S
O378 C406 1.214 . S
H379 C407 0.929 . S
H380 C408 0.929 . S
H381 C409 0.930 . S
H382 C410 0.929 . S
H383 C412 0.930 . S
H384 C389 0.930 . S
H385 C393 0.930 . S
O386 Co355 2.037 . S
O386 C406 1.234 . S
C387 O361 1.269 . S
C387 O362 1.257 . S
C388 H363 0.930 . S
C388 C391 1.388 . S
C388 C393 1.418 . S
C389 H384 0.930 . S
C389 C392 1.404 . S
C389 C393 1.353 . S
N390 Co355 2.145 . S
N390 C391 1.397 . S
N390 C392 1.334 . S
C391 H372 0.929 . S
C391 C388 1.388 . S
C391 N390 1.397 . S
C392 H373 0.929 . S
C392 C389 1.404 . S
C392 N390 1.334 . S
C393 H385 0.930 . S
C393 C388 1.418 . S
C393 C389 1.353 . S
C394 H364 0.930 . S
C394 N395 1.330 . S
C394 C396 1.446 1_554 S
N395 Co354 2.151 . S
N395 C394 1.330 . S
N395 C399 1.418 . S
C396 H375 0.929 . S
C396 C394 1.446 1_556 S
C396 C397 1.332 . S
C397 H377 0.931 . S
C397 C396 1.332 . S
C397 C398 1.267 . S
C398 H366 0.929 . S
C398 C397 1.267 . S
C398 C399 1.251 1_556 S
C399 H369 0.929 . S
C399 N395 1.418 . S
C399 C398 1.251 1_554 S
C400 H367 0.930 . S
C400 C402 1.406 . S
C400 C405 1.261 . S
C401 H368 0.930 . S
C401 N403 1.325 . S
C401 C404 1.357 . S
C402 H370 0.928 . S
C402 C400 1.406 . S
C402 N403 1.261 1_556 S
N403 Co354 2.214 . S
N403 C401 1.325 . S
N403 C402 1.261 1_554 S
C404 H374 0.931 . S
C404 C401 1.357 . S
C404 C405 1.312 1_554 S
C405 H376 0.930 . S
C405 C400 1.261 . S
C405 C404 1.312 1_556 S
C406 O378 1.214 . S
C406 O386 1.234 . S
C407 H379 0.929 . S
C407 C410 1.391 . S
C407 C412 1.391 . S
C408 H380 0.929 . S
C408 C409 1.390 . S
C408 N411 1.391 . S
C409 H381 0.930 . S
C409 C408 1.390 . S
C409 C410 1.392 . S
C410 H382 0.929 . S
C410 C407 1.391 . S
C410 C409 1.392 . S
N411 Co355 2.257 . S
N411 C408 1.391 . S
N411 C412 1.388 . S
C412 H383 0.930 . S
C412 C407 1.391 . S
C412 N411 1.388 . S
Co413 O415 2.143 . S
Co413 O421 2.074 . S
Co413 O424 2.093 . S
Co413 O437 2.097 . S
Co413 N454 2.151 . S
Co413 N462 2.214 . S
Co414 O415 2.160 . S
Co414 O420 2.058 . S
Co414 O430 2.057 . S
Co414 O445 2.037 . S
Co414 N449 2.145 . S
Co414 N470 2.257 . S
O415 Co413 2.143 . S
O415 Co414 2.160 . S
C416 O417 1.278 . S
C416 O424 1.224 . S
O417 C416 1.278 . S
C418 O419 1.245 . S
C418 O430 1.232 . S
O419 C418 1.245 . S
O420 Co414 2.058 . S
O420 C446 1.269 . S
O421 Co413 2.074 . S
O421 C446 1.257 . S
H422 C447 0.930 . S
H423 C453 0.930 . S
O424 Co413 2.093 . S
O424 C416 1.224 . S
H425 C457 0.929 . S
H426 C459 0.930 . S
H427 C460 0.930 . S
H428 C458 0.929 . S
H429 C461 0.928 . S
O430 Co414 2.057 . S
O430 C418 1.232 . S
H431 C450 0.929 . S
H432 C451 0.929 . S
H433 C463 0.931 . S
H434 C455 0.929 . S
H435 C464 0.930 . S
H436 C456 0.931 . S
O437 Co413 2.097 . S
O437 C465 1.214 . S
H438 C466 0.929 . S
H439 C467 0.929 . S
H440 C468 0.930 . S
H441 C469 0.929 . S
H442 C471 0.930 . S
H443 C448 0.930 . S
H444 C452 0.930 . S
O445 Co414 2.037 . S
O445 C465 1.234 . S
C446 O420 1.269 . S
C446 O421 1.257 . S
C447 H422 0.930 . S
C447 C450 1.388 . S
C447 C452 1.418 . S
C448 H443 0.930 . S
C448 C451 1.404 . S
C448 C452 1.353 . S
N449 Co414 2.145 . S
N449 C450 1.397 . S
N449 C451 1.334 . S
C450 H431 0.929 . S
C450 C447 1.388 . S
C450 N449 1.397 . S
C451 H432 0.929 . S
C451 C448 1.404 . S
C451 N449 1.334 . S
C452 H444 0.930 . S
C452 C447 1.418 . S
C452 C448 1.353 . S
C453 H423 0.930 . S
C453 N454 1.330 . S
C453 C455 1.446 1_556 S
N454 Co413 2.151 . S
N454 C453 1.330 . S
N454 C458 1.418 . S
C455 H434 0.929 . S
C455 C453 1.446 1_554 S
C455 C456 1.332 . S
C456 H436 0.931 . S
C456 C455 1.332 . S
C456 C457 1.267 . S
C457 H425 0.929 . S
C457 C456 1.267 . S
C457 C458 1.251 1_554 S
C458 H428 0.929 . S
C458 N454 1.418 . S
C458 C457 1.251 1_556 S
C459 H426 0.930 . S
C459 C461 1.406 . S
C459 C464 1.261 . S
C460 H427 0.930 . S
C460 N462 1.325 . S
C460 C463 1.357 . S
C461 H429 0.928 . S
C461 C459 1.406 . S
C461 N462 1.261 1_554 S
N462 Co413 2.214 . S
N462 C460 1.325 . S
N462 C461 1.261 1_556 S
C463 H433 0.931 . S
C463 C460 1.357 . S
C463 C464 1.312 1_556 S
C464 H435 0.930 . S
C464 C459 1.261 . S
C464 C463 1.312 1_554 S
C465 O437 1.214 . S
C465 O445 1.234 . S
C466 H438 0.929 . S
C466 C469 1.391 . S
C466 C471 1.391 . S
C467 H439 0.929 . S
C467 C468 1.390 . S
C467 N470 1.391 . S
C468 H440 0.930 . S
C468 C467 1.390 . S
C468 C469 1.392 . S
C469 H441 0.929 . S
C469 C466 1.391 . S
C469 C468 1.392 . S
N470 Co414 2.257 . S
N470 C467 1.391 . S
N470 C471 1.388 . S
C471 H442 0.930 . S
C471 C466 1.391 . S
C471 N470 1.388 . S
H472 C484 0.930 . S
H473 C486 0.930 . S
H474 C487 0.930 . S
H475 C491 0.959 . S
H476 C491 0.959 1_554 S
H477 C491 0.961 . S
H478 C492 0.960 . S
H479 C492 0.961 . S
H480 C492 0.959 . S
H481 C495 0.929 . S
H482 C496 0.931 . S
H483 C498 0.930 . S
C484 H472 0.930 . S
C484 C485 1.399 . S
C484 C489 1.399 . S
C485 C484 1.399 . S
C485 C486 1.376 . S
C486 H473 0.930 . S
C486 C485 1.376 . S
C486 C487 1.388 . S
C487 H474 0.930 . S
C487 C486 1.388 . S
C487 C488 1.390 . S
C488 C487 1.390 . S
C488 C489 1.394 . S
C488 C494 1.465 1_556 S
C489 C484 1.399 . S
C489 C488 1.394 . S
C489 C490 1.516 1_556 S
C490 C489 1.516 1_554 S
C490 C491 1.502 1_554 S
C490 C492 1.561 . S
C490 C493 1.526 . S
C491 H475 0.959 . S
C491 H476 0.959 1_556 S
C491 H477 0.961 . S
C491 C490 1.502 1_556 S
C492 H478 0.960 . S
C492 H479 0.961 . S
C492 H480 0.959 . S
C492 C490 1.561 . S
C493 C490 1.526 . S
C493 C494 1.396 . S
C493 C498 1.390 . S
C494 C488 1.465 1_554 S
C494 C493 1.396 . S
C494 C495 1.399 . S
C495 H481 0.929 . S
C495 C494 1.399 . S
C495 C496 1.385 . S
C496 H482 0.931 . S
C496 C495 1.385 . S
C496 C497 1.389 . S
C497 C496 1.389 . S
C497 C498 1.387 . S
C498 H483 0.930 . S
C498 C493 1.390 . S
C498 C497 1.387 . S
H499 C511 0.930 . S
H500 C513 0.930 . S
H501 C514 0.930 . S
H502 C518 0.959 . S
H503 C518 0.959 . S
H504 C518 0.961 . S
H505 C519 0.960 . S
H506 C519 0.961 . S
H507 C519 0.959 . S
H508 C522 0.929 1_556 S
H509 C523 0.931 1_556 S
H510 C525 0.930 . S
C511 H499 0.930 . S
C511 C512 1.399 . S
C511 C516 1.399 . S
C512 C511 1.399 . S
C512 C513 1.376 . S
C513 H500 0.930 . S
C513 C512 1.376 . S
C513 C514 1.388 . S
C514 H501 0.930 . S
C514 C513 1.388 . S
C514 C515 1.390 . S
C515 C514 1.390 . S
C515 C516 1.394 . S
C515 C521 1.465 . S
C516 C511 1.399 . S
C516 C515 1.394 . S
C516 C517 1.516 . S
C517 C516 1.516 . S
C517 C518 1.502 . S
C517 C519 1.561 . S
C517 C520 1.526 . S
C518 H502 0.959 . S
C518 H503 0.959 . S
C518 H504 0.961 . S
C518 C517 1.502 . S
C519 H505 0.960 . S
C519 H506 0.961 . S
C519 H507 0.959 . S
C519 C517 1.561 . S
C520 C517 1.526 . S
C520 C521 1.396 . S
C520 C525 1.390 . S
C521 C515 1.465 . S
C521 C520 1.396 . S
C521 C522 1.399 . S
C522 H508 0.929 1_554 S
C522 C521 1.399 . S
C522 C523 1.385 . S
C523 H509 0.931 1_554 S
C523 C522 1.385 . S
C523 C524 1.389 . S
C524 C523 1.389 . S
C524 C525 1.387 . S
C525 H510 0.930 . S
C525 C520 1.390 . S
C525 C524 1.387 . S
H526 C538 0.930 . S
H527 C540 0.930 . S
H528 C541 0.930 . S
H529 C545 0.959 . S
H530 C545 0.959 . S
H531 C545 0.961 . S
H532 C546 0.960 . S
H533 C546 0.961 . S
H534 C546 0.959 . S
H535 C549 0.929 . S
H536 C550 0.931 . S
H537 C552 0.930 . S
C538 H526 0.930 . S
C538 C539 1.399 . S
C538 C543 1.399 . S
C539 C538 1.399 . S
C539 C540 1.376 . S
C540 H527 0.930 . S
C540 C539 1.376 . S
C540 C541 1.388 . S
C541 H528 0.930 . S
C541 C540 1.388 . S
C541 C542 1.390 . S
C542 C541 1.390 . S
C542 C543 1.394 . S
C542 C548 1.465 . S
C543 C538 1.399 . S
C543 C542 1.394 . S
C543 C544 1.516 . S
C544 C543 1.516 . S
C544 C545 1.502 . S
C544 C546 1.561 . S
C544 C547 1.526 . S
C545 H529 0.959 . S
C545 H530 0.959 . S
C545 H531 0.961 . S
C545 C544 1.502 . S
C546 H532 0.960 . S
C546 H533 0.961 . S
C546 H534 0.959 . S
C546 C544 1.561 . S
C547 C544 1.526 . S
C547 C548 1.396 . S
C547 C552 1.390 . S
C548 C542 1.465 . S
C548 C547 1.396 . S
C548 C549 1.399 . S
C549 H535 0.929 . S
C549 C548 1.399 . S
C549 C550 1.385 . S
C550 H536 0.931 . S
C550 C549 1.385 . S
C550 C551 1.389 . S
C551 C550 1.389 . S
C551 C552 1.387 . S
C552 H537 0.930 . S
C552 C547 1.390 . S
C552 C551 1.387 . S
H553 C565 0.930 . S
H554 C567 0.930 1_554 S
H555 C568 0.930 1_554 S
H556 C572 0.959 . S
H557 C572 0.959 . S
H558 C572 0.961 . S
H559 C573 0.960 . S
H560 C573 0.961 . S
H561 C573 0.959 . S
H562 C576 0.929 . S
H563 C577 0.931 . S
H564 C579 0.930 . S
C565 H553 0.930 . S
C565 C566 1.399 . S
C565 C570 1.399 . S
C566 C565 1.399 . S
C566 C567 1.376 . S
C567 H554 0.930 1_556 S
C567 C566 1.376 . S
C567 C568 1.388 . S
C568 H555 0.930 1_556 S
C568 C567 1.388 . S
C568 C569 1.390 . S
C569 C568 1.390 . S
C569 C570 1.394 . S
C569 C575 1.465 . S
C570 C565 1.399 . S
C570 C569 1.394 . S
C570 C571 1.516 . S
C571 C570 1.516 . S
C571 C572 1.502 . S
C571 C573 1.561 . S
C571 C574 1.526 . S
C572 H556 0.959 . S
C572 H557 0.959 . S
C572 H558 0.961 . S
C572 C571 1.502 . S
C573 H559 0.960 . S
C573 H560 0.961 . S
C573 H561 0.959 . S
C573 C571 1.561 . S
C574 C571 1.526 . S
C574 C575 1.396 . S
C574 C579 1.390 . S
C575 C569 1.465 . S
C575 C574 1.396 . S
C575 C576 1.399 . S
C576 H562 0.929 . S
C576 C575 1.399 . S
C576 C577 1.385 . S
C577 H563 0.931 . S
C577 C576 1.385 . S
C577 C578 1.389 . S
C578 C577 1.389 . S
C578 C579 1.387 . S
C579 H564 0.930 . S
C579 C574 1.390 . S
C579 C578 1.387 . S
H580 C592 0.930 . S
H581 C594 0.930 . S
H582 C595 0.930 . S
H583 C599 0.959 . S
H584 C599 0.959 . S
H585 C599 0.961 . S
H586 C600 0.960 . S
H587 C600 0.961 . S
H588 C600 0.959 . S
H589 C603 0.929 . S
H590 C604 0.931 . S
H591 C606 0.930 . S
C592 H580 0.930 . S
C592 C593 1.399 . S
C592 C597 1.399 . S
C593 C592 1.399 . S
C593 C594 1.376 . S
C594 H581 0.930 . S
C594 C593 1.376 . S
C594 C595 1.388 . S
C595 H582 0.930 . S
C595 C594 1.388 . S
C595 C596 1.390 . S
C596 C595 1.390 . S
C596 C597 1.394 . S
C596 C602 1.465 . S
C597 C592 1.399 . S
C597 C596 1.394 . S
C597 C598 1.516 . S
C598 C597 1.516 . S
C598 C599 1.502 . S
C598 C600 1.561 . S
C598 C601 1.526 . S
C599 H583 0.959 . S
C599 H584 0.959 . S
C599 H585 0.961 . S
C599 C598 1.502 . S
C600 H586 0.960 . S
C600 H587 0.961 . S
C600 H588 0.959 . S
C600 C598 1.561 . S
C601 C598 1.526 . S
C601 C602 1.396 . S
C601 C606 1.390 . S
C602 C596 1.465 . S
C602 C601 1.396 . S
C602 C603 1.399 . S
C603 H589 0.929 . S
C603 C602 1.399 . S
C603 C604 1.385 . S
C604 H590 0.931 . S
C604 C603 1.385 . S
C604 C605 1.389 . S
C605 C604 1.389 . S
C605 C606 1.387 . S
C606 H591 0.930 . S
C606 C601 1.390 . S
C606 C605 1.387 . S
H607 C619 0.930 . S
H608 C621 0.930 1_554 S
H609 C622 0.930 . S
H610 C626 0.959 . S
H611 C626 0.959 . S
H612 C626 0.961 . S
H613 C627 0.960 . S
H614 C627 0.961 . S
H615 C627 0.959 . S
H616 C630 0.929 . S
H617 C631 0.931 . S
H618 C633 0.930 . S
C619 H607 0.930 . S
C619 C620 1.399 . S
C619 C624 1.399 . S
C620 C619 1.399 . S
C620 C621 1.376 . S
C621 H608 0.930 1_556 S
C621 C620 1.376 . S
C621 C622 1.388 . S
C622 H609 0.930 . S
C622 C621 1.388 . S
C622 C623 1.390 . S
C623 C622 1.390 . S
C623 C624 1.394 . S
C623 C629 1.465 . S
C624 C619 1.399 . S
C624 C623 1.394 . S
C624 C625 1.516 . S
C625 C624 1.516 . S
C625 C626 1.502 . S
C625 C627 1.561 . S
C625 C628 1.526 . S
C626 H610 0.959 . S
C626 H611 0.959 . S
C626 H612 0.961 . S
C626 C625 1.502 . S
C627 H613 0.960 . S
C627 H614 0.961 . S
C627 H615 0.959 . S
C627 C625 1.561 . S
C628 C625 1.526 . S
C628 C629 1.396 . S
C628 C633 1.390 . S
C629 C623 1.465 . S
C629 C628 1.396 . S
C629 C630 1.399 . S
C630 H616 0.929 . S
C630 C629 1.399 . S
C630 C631 1.385 . S
C631 H617 0.931 . S
C631 C630 1.385 . S
C631 C632 1.389 . S
C632 C631 1.389 . S
C632 C633 1.387 . S
C633 H618 0.930 . S
C633 C628 1.390 . S
C633 C632 1.387 . S
H634 C646 0.930 . S
H635 C648 0.930 . S
H636 C649 0.930 . S
H637 C653 0.959 . S
H638 C653 0.959 . S
H639 C653 0.961 . S
H640 C654 0.960 . S
H641 C654 0.961 . S
H642 C654 0.959 1_554 S
H643 C657 0.929 . S
H644 C658 0.931 . S
H645 C660 0.930 . S
C646 H634 0.930 . S
C646 C647 1.399 . S
C646 C651 1.399 . S
C647 C646 1.399 . S
C647 C648 1.376 . S
C648 H635 0.930 . S
C648 C647 1.376 . S
C648 C649 1.388 . S
C649 H636 0.930 . S
C649 C648 1.388 . S
C649 C650 1.390 . S
C650 C649 1.390 . S
C650 C651 1.394 . S
C650 C656 1.465 . S
C651 C646 1.399 . S
C651 C650 1.394 . S
C651 C652 1.516 1_554 S
C652 C651 1.516 1_556 S
C652 C653 1.502 . S
C652 C654 1.561 . S
C652 C655 1.526 . S
C653 H637 0.959 . S
C653 H638 0.959 . S
C653 H639 0.961 . S
C653 C652 1.502 . S
C654 H640 0.960 . S
C654 H641 0.961 . S
C654 H642 0.959 1_556 S
C654 C652 1.561 . S
C655 C652 1.526 . S
C655 C656 1.396 1_556 S
C655 C660 1.390 . S
C656 C650 1.465 . S
C656 C655 1.396 1_554 S
C656 C657 1.399 . S
C657 H643 0.929 . S
C657 C656 1.399 . S
C657 C658 1.385 1_554 S
C658 H644 0.931 . S
C658 C657 1.385 1_556 S
C658 C659 1.389 . S
C659 C658 1.389 . S
C659 C660 1.387 . S
C660 H645 0.930 . S
C660 C655 1.390 . S
C660 C659 1.387 . S
H661 C673 0.930 . S
H662 C675 0.930 1_556 S
H663 C676 0.930 . S
H664 C680 0.959 . S
H665 C680 0.959 . S
H666 C680 0.961 . S
H667 C681 0.960 . S
H668 C681 0.961 . S
H669 C681 0.959 . S
H670 C684 0.929 . S
H671 C685 0.931 . S
H672 C687 0.930 . S
C673 H661 0.930 . S
C673 C674 1.399 . S
C673 C678 1.399 . S
C674 C673 1.399 . S
C674 C675 1.376 . S
C675 H662 0.930 1_554 S
C675 C674 1.376 . S
C675 C676 1.388 . S
C676 H663 0.930 . S
C676 C675 1.388 . S
C676 C677 1.390 . S
C677 C676 1.390 . S
C677 C678 1.394 . S
C677 C683 1.465 . S
C678 C673 1.399 . S
C678 C677 1.394 . S
C678 C679 1.516 . S
C679 C678 1.516 . S
C679 C680 1.502 . S
C679 C681 1.561 . S
C679 C682 1.526 . S
C680 H664 0.959 . S
C680 H665 0.959 . S
C680 H666 0.961 . S
C680 C679 1.502 . S
C681 H667 0.960 . S
C681 H668 0.961 . S
C681 H669 0.959 . S
C681 C679 1.561 . S
C682 C679 1.526 . S
C682 C683 1.396 . S
C682 C687 1.390 . S
C683 C677 1.465 . S
C683 C682 1.396 . S
C683 C684 1.399 . S
C684 H670 0.929 . S
C684 C683 1.399 . S
C684 C685 1.385 . S
C685 H671 0.931 . S
C685 C684 1.385 . S
C685 C686 1.389 . S
C686 C685 1.389 . S
C686 C687 1.387 . S
C687 H672 0.930 . S
C687 C682 1.390 . S
C687 C686 1.387 . S
H688 C700 0.930 . S
H689 C702 0.930 . S
H690 C703 0.930 . S
H691 C707 0.959 . S
H692 C707 0.959 . S
H693 C707 0.961 . S
H694 C708 0.960 . S
H695 C708 0.961 . S
H696 C708 0.959 . S
H697 C711 0.929 . S
H698 C712 0.931 . S
H699 C714 0.930 . S
C700 H688 0.930 . S
C700 C701 1.399 . S
C700 C705 1.399 . S
C701 C700 1.399 . S
C701 C702 1.376 . S
C702 H689 0.930 . S
C702 C701 1.376 . S
C702 C703 1.388 . S
C703 H690 0.930 . S
C703 C702 1.388 . S
C703 C704 1.390 . S
C704 C703 1.390 . S
C704 C705 1.394 . S
C704 C710 1.465 . S
C705 C700 1.399 . S
C705 C704 1.394 . S
C705 C706 1.516 . S
C706 C705 1.516 . S
C706 C707 1.502 . S
C706 C708 1.561 . S
C706 C709 1.526 . S
C707 H691 0.959 . S
C707 H692 0.959 . S
C707 H693 0.961 . S
C707 C706 1.502 . S
C708 H694 0.960 . S
C708 H695 0.961 . S
C708 H696 0.959 . S
C708 C706 1.561 . S
C709 C706 1.526 . S
C709 C710 1.396 . S
C709 C714 1.390 . S
C710 C704 1.465 . S
C710 C709 1.396 . S
C710 C711 1.399 . S
C711 H697 0.929 . S
C711 C710 1.399 . S
C711 C712 1.385 . S
C712 H698 0.931 . S
C712 C711 1.385 . S
C712 C713 1.389 . S
C713 C712 1.389 . S
C713 C714 1.387 . S
C714 H699 0.930 . S
C714 C709 1.390 . S
C714 C713 1.387 . S
H715 C727 0.930 . S
H716 C729 0.930 . S
H717 C730 0.930 . S
H718 C734 0.959 . S
H719 C734 0.959 . S
H720 C734 0.961 . S
H721 C735 0.960 . S
H722 C735 0.961 . S
H723 C735 0.959 . S
H724 C738 0.929 . S
H725 C739 0.931 . S
H726 C741 0.930 . S
C727 H715 0.930 . S
C727 C728 1.399 . S
C727 C732 1.399 . S
C728 C727 1.399 . S
C728 C729 1.376 . S
C729 H716 0.930 . S
C729 C728 1.376 . S
C729 C730 1.388 . S
C730 H717 0.930 . S
C730 C729 1.388 . S
C730 C731 1.390 . S
C731 C730 1.390 . S
C731 C732 1.394 . S
C731 C737 1.465 . S
C732 C727 1.399 . S
C732 C731 1.394 . S
C732 C733 1.516 . S
C733 C732 1.516 . S
C733 C734 1.502 . S
C733 C735 1.561 . S
C733 C736 1.526 . S
C734 H718 0.959 . S
C734 H719 0.959 . S
C734 H720 0.961 . S
C734 C733 1.502 . S
C735 H721 0.960 . S
C735 H722 0.961 . S
C735 H723 0.959 . S
C735 C733 1.561 . S
C736 C733 1.526 . S
C736 C737 1.396 . S
C736 C741 1.390 . S
C737 C731 1.465 . S
C737 C736 1.396 . S
C737 C738 1.399 . S
C738 H724 0.929 . S
C738 C737 1.399 . S
C738 C739 1.385 . S
C739 H725 0.931 . S
C739 C738 1.385 . S
C739 C740 1.389 . S
C740 C739 1.389 . S
C740 C741 1.387 . S
C741 H726 0.930 . S
C741 C736 1.390 . S
C741 C740 1.387 . S
H742 C754 0.930 . S
H743 C756 0.930 . S
H744 C757 0.930 . S
H745 C761 0.959 . S
H746 C761 0.959 . S
H747 C761 0.961 . S
H748 C762 0.960 . S
H749 C762 0.961 . S
H750 C762 0.959 . S
H751 C765 0.929 . S
H752 C766 0.931 . S
H753 C768 0.930 . S
C754 H742 0.930 . S
C754 C755 1.399 1_556 S
C754 C759 1.399 . S
C755 C754 1.399 1_554 S
C755 C756 1.376 . S
C756 H743 0.930 . S
C756 C755 1.376 . S
C756 C757 1.388 . S
C757 H744 0.930 . S
C757 C756 1.388 . S
C757 C758 1.390 . S
C758 C757 1.390 . S
C758 C759 1.394 1_554 S
C758 C764 1.465 . S
C759 C754 1.399 . S
C759 C758 1.394 1_556 S
C759 C760 1.516 . S
C760 C759 1.516 . S
C760 C761 1.502 . S
C760 C762 1.561 . S
C760 C763 1.526 . S
C761 H745 0.959 . S
C761 H746 0.959 . S
C761 H747 0.961 . S
C761 C760 1.502 . S
C762 H748 0.960 . S
C762 H749 0.961 . S
C762 H750 0.959 . S
C762 C760 1.561 . S
C763 C760 1.526 . S
C763 C764 1.396 1_556 S
C763 C768 1.390 . S
C764 C758 1.465 . S
C764 C763 1.396 1_554 S
C764 C765 1.399 . S
C765 H751 0.929 . S
C765 C764 1.399 . S
C765 C766 1.385 . S
C766 H752 0.931 . S
C766 C765 1.385 . S
C766 C767 1.389 1_554 S
C767 C766 1.389 1_556 S
C767 C768 1.387 . S
C768 H753 0.930 . S
C768 C763 1.390 . S
C768 C767 1.387 . S
H769 C781 0.930 . S
H770 C783 0.930 . S
H771 C784 0.930 . S
H772 C788 0.959 . S
H773 C788 0.959 1_556 S
H774 C788 0.961 1_556 S
H775 C789 0.960 1_556 S
H776 C789 0.961 1_556 S
H777 C789 0.959 . S
H778 C792 0.929 . S
H779 C793 0.931 . S
H780 C795 0.930 . S
C781 H769 0.930 . S
C781 C782 1.399 . S
C781 C786 1.399 . S
C782 C781 1.399 . S
C782 C783 1.376 . S
C783 H770 0.930 . S
C783 C782 1.376 . S
C783 C784 1.388 . S
C784 H771 0.930 . S
C784 C783 1.388 . S
C784 C785 1.390 . S
C785 C784 1.390 . S
C785 C786 1.394 . S
C785 C791 1.465 . S
C786 C781 1.399 . S
C786 C785 1.394 . S
C786 C787 1.516 . S
C787 C786 1.516 . S
C787 C788 1.502 . S
C787 C789 1.561 . S
C787 C790 1.526 . S
C788 H772 0.959 . S
C788 H773 0.959 1_554 S
C788 H774 0.961 1_554 S
C788 C787 1.502 . S
C789 H775 0.960 1_554 S
C789 H776 0.961 1_554 S
C789 H777 0.959 . S
C789 C787 1.561 . S
C790 C787 1.526 . S
C790 C791 1.396 . S
C790 C795 1.390 . S
C791 C785 1.465 . S
C791 C790 1.396 . S
C791 C792 1.399 . S
C792 H778 0.929 . S
C792 C791 1.399 . S
C792 C793 1.385 . S
C793 H779 0.931 . S
C793 C792 1.385 . S
C793 C794 1.389 . S
C794 C793 1.389 . S
C794 C795 1.387 . S
C795 H780 0.930 . S
C795 C790 1.390 . S
C795 C794 1.387 . S
H796 C808 0.930 . S
H797 C810 0.930 . S
H798 C811 0.930 . S
H799 C815 0.959 . S
H800 C815 0.959 . S
H801 C815 0.961 . S
H802 C816 0.960 . S
H803 C816 0.961 . S
H804 C816 0.959 . S
H805 C819 0.929 . S
H806 C820 0.931 . S
H807 C822 0.930 . S
C808 H796 0.930 . S
C808 C809 1.399 . S
C808 C813 1.399 . S
C809 C808 1.399 . S
C809 C810 1.376 . S
C810 H797 0.930 . S
C810 C809 1.376 . S
C810 C811 1.388 . S
C811 H798 0.930 . S
C811 C810 1.388 . S
C811 C812 1.390 . S
C812 C811 1.390 . S
C812 C813 1.394 . S
C812 C818 1.465 . S
C813 C808 1.399 . S
C813 C812 1.394 . S
C813 C814 1.516 . S
C814 C813 1.516 . S
C814 C815 1.502 . S
C814 C816 1.561 . S
C814 C817 1.526 . S
C815 H799 0.959 . S
C815 H800 0.959 . S
C815 H801 0.961 . S
C815 C814 1.502 . S
C816 H802 0.960 . S
C816 H803 0.961 . S
C816 H804 0.959 . S
C816 C814 1.561 . S
C817 C814 1.526 . S
C817 C818 1.396 . S
C817 C822 1.390 . S
C818 C812 1.465 . S
C818 C817 1.396 . S
C818 C819 1.399 . S
C819 H805 0.929 . S
C819 C818 1.399 . S
C819 C820 1.385 . S
C820 H806 0.931 . S
C820 C819 1.385 . S
C820 C821 1.389 . S
C821 C820 1.389 . S
C821 C822 1.387 . S
C822 H807 0.930 . S
C822 C817 1.390 . S
C822 C821 1.387 . S
H823 C835 0.930 . S
H824 C837 0.930 . S
H825 C838 0.930 . S
H826 C842 0.959 . S
H827 C842 0.959 . S
H828 C842 0.961 . S
H829 C843 0.960 . S
H830 C843 0.961 . S
H831 C843 0.959 . S
H832 C846 0.929 . S
H833 C847 0.931 . S
H834 C849 0.930 . S
C835 H823 0.930 . S
C835 C836 1.399 . S
C835 C840 1.399 . S
C836 C835 1.399 . S
C836 C837 1.376 1_556 S
C837 H824 0.930 . S
C837 C836 1.376 1_554 S
C837 C838 1.388 . S
C838 H825 0.930 . S
C838 C837 1.388 . S
C838 C839 1.390 . S
C839 C838 1.390 . S
C839 C840 1.394 1_554 S
C839 C845 1.465 . S
C840 C835 1.399 . S
C840 C839 1.394 1_556 S
C840 C841 1.516 . S
C841 C840 1.516 . S
C841 C842 1.502 . S
C841 C843 1.561 . S
C841 C844 1.526 . S
C842 H826 0.959 . S
C842 H827 0.959 . S
C842 H828 0.961 . S
C842 C841 1.502 . S
C843 H829 0.960 . S
C843 H830 0.961 . S
C843 H831 0.959 . S
C843 C841 1.561 . S
C844 C841 1.526 . S
C844 C845 1.396 1_556 S
C844 C849 1.390 . S
C845 C839 1.465 . S
C845 C844 1.396 1_554 S
C845 C846 1.399 . S
C846 H832 0.929 . S
C846 C845 1.399 . S
C846 C847 1.385 . S
C847 H833 0.931 . S
C847 C846 1.385 . S
C847 C848 1.389 . S
C848 C847 1.389 . S
C848 C849 1.387 1_554 S
C849 H834 0.930 . S
C849 C844 1.390 . S
C849 C848 1.387 1_556 S
H850 C862 0.930 . S
H851 C864 0.930 . S
H852 C865 0.930 . S
H853 C869 0.959 . S
H854 C869 0.959 1_556 S
H855 C869 0.961 1_556 S
H856 C870 0.960 1_556 S
H857 C870 0.961 1_556 S
H858 C870 0.959 . S
H859 C873 0.929 . S
H860 C874 0.931 . S
H861 C876 0.930 . S
C862 H850 0.930 . S
C862 C863 1.399 . S
C862 C867 1.399 . S
C863 C862 1.399 . S
C863 C864 1.376 . S
C864 H851 0.930 . S
C864 C863 1.376 . S
C864 C865 1.388 . S
C865 H852 0.930 . S
C865 C864 1.388 . S
C865 C866 1.390 . S
C866 C865 1.390 . S
C866 C867 1.394 . S
C866 C872 1.465 . S
C867 C862 1.399 . S
C867 C866 1.394 . S
C867 C868 1.516 . S
C868 C867 1.516 . S
C868 C869 1.502 . S
C868 C870 1.561 . S
C868 C871 1.526 . S
C869 H853 0.959 . S
C869 H854 0.959 1_554 S
C869 H855 0.961 1_554 S
C869 C868 1.502 . S
C870 H856 0.960 1_554 S
C870 H857 0.961 1_554 S
C870 H858 0.959 . S
C870 C868 1.561 . S
C871 C868 1.526 . S
C871 C872 1.396 . S
C871 C876 1.390 . S
C872 C866 1.465 . S
C872 C871 1.396 . S
C872 C873 1.399 . S
C873 H859 0.929 . S
C873 C872 1.399 . S
C873 C874 1.385 . S
C874 H860 0.931 . S
C874 C873 1.385 . S
C874 C875 1.389 . S
C875 C874 1.389 . S
C875 C876 1.387 . S
C876 H861 0.930 . S
C876 C871 1.390 . S
C876 C875 1.387 . S
H877 C889 0.930 . S
H878 C891 0.930 . S
H879 C892 0.930 . S
H880 C896 0.959 . S
H881 C896 0.959 . S
H882 C896 0.961 . S
H883 C897 0.960 . S
H884 C897 0.961 . S
H885 C897 0.959 . S
H886 C900 0.929 . S
H887 C901 0.931 . S
H888 C903 0.930 . S
C889 H877 0.930 . S
C889 C890 1.399 . S
C889 C894 1.399 . S
C890 C889 1.399 . S
C890 C891 1.376 . S
C891 H878 0.930 . S
C891 C890 1.376 . S
C891 C892 1.388 . S
C892 H879 0.930 . S
C892 C891 1.388 . S
C892 C893 1.390 . S
C893 C892 1.390 . S
C893 C894 1.394 . S
C893 C899 1.465 . S
C894 C889 1.399 . S
C894 C893 1.394 . S
C894 C895 1.516 . S
C895 C894 1.516 . S
C895 C896 1.502 . S
C895 C897 1.561 . S
C895 C898 1.526 . S
C896 H880 0.959 . S
C896 H881 0.959 . S
C896 H882 0.961 . S
C896 C895 1.502 . S
C897 H883 0.960 . S
C897 H884 0.961 . S
C897 H885 0.959 . S
C897 C895 1.561 . S
C898 C895 1.526 . S
C898 C899 1.396 . S
C898 C903 1.390 . S
C899 C893 1.465 . S
C899 C898 1.396 . S
C899 C900 1.399 . S
C900 H886 0.929 . S
C900 C899 1.399 . S
C900 C901 1.385 . S
C901 H887 0.931 . S
C901 C900 1.385 . S
C901 C902 1.389 . S
C902 C901 1.389 . S
C902 C903 1.387 . S
C903 H888 0.930 . S
C903 C898 1.390 . S
C903 C902 1.387 . S
C485 C64 1.505 . S
C497 C5 1.505 . S
C512 C62 1.486 . S
C524 C123 1.500 . S
C539 C180 1.509 . S
C551 C121 1.505 . S
C566 C182 1.501 . S
C578 C3 1.492 . S
C593 C241 1.490 . S
C605 C300 1.491 . S
C620 C298 1.507 . S
C632 C359 1.506 . S
C647 C357 1.486 . S
C659 C416 1.480 . S
C674 C239 1.507 . S
C686 C418 1.506 . S
C701 C33 1.508 . S
C713 C465 1.513 . S
C728 C288 1.496 . S
C740 C111 1.495 . S
C755 C328 1.507 . S
C767 C170 1.510 . S
C782 C210 1.514 . S
C794 C387 1.510 . S
C809 C151 1.511 . S
C821 C446 1.515 . S
C836 C269 1.509 . S
C848 C229 1.502 . S
C863 C347 1.497 . S
C875 C52 1.500 . S
C890 C92 1.509 . S
C902 C406 1.503 . S
