# Generated by pormake.
# Topology ukb, (4)-cn, num edge types: 1
# Building blocks:
#     Node 0, Type 0, BuildingBlock: UXUYUI_clean_sbu_0, # of connection points: 4
#     Node 1, Type 0, BuildingBlock: UXUYUI_clean_sbu_0, # of connection points: 4
#     Node 2, Type 0, BuildingBlock: UXUYUI_clean_sbu_0, # of connection points: 4
#     Node 3, Type 0, BuildingBlock: UXUYUI_clean_sbu_0, # of connection points: 4
#     Node 4, Type 0, BuildingBlock: UXUYUI_clean_sbu_0, # of connection points: 4
#     Node 5, Type 0, BuildingBlock: UXUYUI_clean_sbu_0, # of connection points: 4
#     Node 6, Type 0, BuildingBlock: UXUYUI_clean_sbu_0, # of connection points: 4
#     Node 7, Type 0, BuildingBlock: UXUYUI_clean_sbu_0, # of connection points: 4
#     Node 8, Type 0, BuildingBlock: UXUYUI_clean_sbu_0, # of connection points: 4
#     Node 9, Type 0, BuildingBlock: UXUYUI_clean_sbu_0, # of connection points: 4
#     Node 10, Type 0, BuildingBlock: UXUYUI_clean_sbu_0, # of connection points: 4
#     Node 11, Type 0, BuildingBlock: UXUYUI_clean_sbu_0, # of connection points: 4
#     Node 12, Type 0, BuildingBlock: UXUYUI_clean_sbu_0, # of connection points: 4
#     Node 13, Type 0, BuildingBlock: UXUYUI_clean_sbu_0, # of connection points: 4
#     Node 14, Type 0, BuildingBlock: UXUYUI_clean_sbu_0, # of connection points: 4
#     Node 15, Type 0, BuildingBlock: UXUYUI_clean_sbu_0, # of connection points: 4
#     Edge 16, Type (0, 0), BuildingBlock: MIFKUJ_clean_linker_0, # of connection points: 2
#     Edge 17, Type (0, 0), BuildingBlock: MIFKUJ_clean_linker_0, # of connection points: 2
#     Edge 18, Type (0, 0), BuildingBlock: MIFKUJ_clean_linker_0, # of connection points: 2
#     Edge 19, Type (0, 0), BuildingBlock: MIFKUJ_clean_linker_0, # of connection points: 2
#     Edge 20, Type (0, 0), BuildingBlock: MIFKUJ_clean_linker_0, # of connection points: 2
#     Edge 21, Type (0, 0), BuildingBlock: MIFKUJ_clean_linker_0, # of connection points: 2
#     Edge 22, Type (0, 0), BuildingBlock: MIFKUJ_clean_linker_0, # of connection points: 2
#     Edge 23, Type (0, 0), BuildingBlock: MIFKUJ_clean_linker_0, # of connection points: 2
#     Edge 24, Type (0, 0), BuildingBlock: MIFKUJ_clean_linker_0, # of connection points: 2
#     Edge 25, Type (0, 0), BuildingBlock: MIFKUJ_clean_linker_0, # of connection points: 2
#     Edge 26, Type (0, 0), BuildingBlock: MIFKUJ_clean_linker_0, # of connection points: 2
#     Edge 27, Type (0, 0), BuildingBlock: MIFKUJ_clean_linker_0, # of connection points: 2
#     Edge 28, Type (0, 0), BuildingBlock: MIFKUJ_clean_linker_0, # of connection points: 2
#     Edge 29, Type (0, 0), BuildingBlock: MIFKUJ_clean_linker_0, # of connection points: 2
#     Edge 30, Type (0, 0), BuildingBlock: MIFKUJ_clean_linker_0, # of connection points: 2
#     Edge 31, Type (0, 0), BuildingBlock: MIFKUJ_clean_linker_0, # of connection points: 2
#     Edge 32, Type (0, 0), BuildingBlock: MIFKUJ_clean_linker_0, # of connection points: 2
#     Edge 33, Type (0, 0), BuildingBlock: MIFKUJ_clean_linker_0, # of connection points: 2
#     Edge 34, Type (0, 0), BuildingBlock: MIFKUJ_clean_linker_0, # of connection points: 2
#     Edge 35, Type (0, 0), BuildingBlock: MIFKUJ_clean_linker_0, # of connection points: 2
#     Edge 36, Type (0, 0), BuildingBlock: MIFKUJ_clean_linker_0, # of connection points: 2
#     Edge 37, Type (0, 0), BuildingBlock: MIFKUJ_clean_linker_0, # of connection points: 2
#     Edge 38, Type (0, 0), BuildingBlock: MIFKUJ_clean_linker_0, # of connection points: 2
#     Edge 39, Type (0, 0), BuildingBlock: MIFKUJ_clean_linker_0, # of connection points: 2
#     Edge 40, Type (0, 0), BuildingBlock: MIFKUJ_clean_linker_0, # of connection points: 2
#     Edge 41, Type (0, 0), BuildingBlock: MIFKUJ_clean_linker_0, # of connection points: 2
#     Edge 42, Type (0, 0), BuildingBlock: MIFKUJ_clean_linker_0, # of connection points: 2
#     Edge 43, Type (0, 0), BuildingBlock: MIFKUJ_clean_linker_0, # of connection points: 2
#     Edge 44, Type (0, 0), BuildingBlock: MIFKUJ_clean_linker_0, # of connection points: 2
#     Edge 45, Type (0, 0), BuildingBlock: MIFKUJ_clean_linker_0, # of connection points: 2
#     Edge 46, Type (0, 0), BuildingBlock: MIFKUJ_clean_linker_0, # of connection points: 2
#     Edge 47, Type (0, 0), BuildingBlock: MIFKUJ_clean_linker_0, # of connection points: 2
# Relax obj value: 0.234
# Max RMSD: 0.198
# Mean RMSD: 0.198
data_MOF--net-ukb--node1-UXUYUI_clean_sbu_0--edge1-MIFKUJ_clean_linker_0
_symmetry_space_group_name_H-M    P1
_symmetry_Int_Tables_number       1
_symmetry_cell_setting            triclinic
loop_
_symmetry_equiv_pos_as_xyz
'x, y, z'
_cell_length_a     73.038989
_cell_length_b     73.036307
_cell_length_c     70.109115
_cell_angle_alpha  90.002089
_cell_angle_beta   90.007717
_cell_angle_gamma 90.011106
loop_
_atom_site_label
_atom_site_type_symbol
_atom_site_fract_x
_atom_site_fract_y
_atom_site_fract_z
_atom_type_partial_charge
Li0 Li 0.50617 0.22633 0.16865 0.0
Li1 Li 0.51455 0.23846 0.19996 0.0
Li2 Li 0.52229 0.20696 0.19151 0.0
Li3 Li 0.49066 0.21532 0.19792 0.0
C4 C 0.54448 0.22583 0.16639 0.0
N5 N 0.5715 0.2174 0.14025 0.0
C6 C 0.56094 0.23558 0.16636 0.0
C7 C 0.54177 0.21175 0.15317 0.0
C8 C 0.57443 0.23112 0.15302 0.0
C9 C 0.55559 0.20772 0.14006 0.0
C10 C 0.48177 0.25647 0.18585 0.0
C11 C 0.45912 0.27762 0.19776 0.0
N12 N 0.46365 0.28963 0.1837 0.0
C13 C 0.48604 0.26893 0.17138 0.0
C14 C 0.46806 0.26075 0.19903 0.0
C15 C 0.4768 0.28566 0.1706 0.0
C16 C 0.48901 0.22384 0.13282 0.0
N17 N 0.50293 0.23204 0.14243 0.0
C18 C 0.51279 0.24736 0.11414 0.0
C19 C 0.51462 0.24378 0.13359 0.0
C20 C 0.49871 0.23889 0.10369 0.0
C21 C 0.48662 0.2271 0.11335 0.0
H22 H 0.47984 0.2147 0.14029 0.0
H23 H 0.52548 0.25024 0.14162 0.0
C24 C 0.53531 0.25528 0.22835 0.0
N25 N 0.52407 0.2591 0.21342 0.0
C26 C 0.54409 0.26937 0.23818 0.0
C27 C 0.52971 0.29117 0.21704 0.0
C28 C 0.52114 0.27663 0.20765 0.0
C29 C 0.54154 0.28761 0.23241 0.0
H30 H 0.53779 0.24121 0.23239 0.0
H31 H 0.51266 0.27937 0.19541 0.0
C32 C 0.4949 0.18277 0.17799 0.0
N33 N 0.48338 0.14695 0.18219 0.0
C34 C 0.49857 0.17324 0.19485 0.0
C35 C 0.4854 0.17407 0.16325 0.0
C36 C 0.49263 0.15514 0.1967 0.0
C37 C 0.47969 0.15595 0.16565 0.0
C38 C 0.50625 0.21867 0.2341 0.0
C39 C 0.51176 0.20656 0.24842 0.0
C40 C 0.49503 0.23352 0.23866 0.0
C41 C 0.50585 0.2095 0.26713 0.0
C42 C 0.48942 0.236 0.25753 0.0
N43 N 0.4949 0.22403 0.27126 0.0
C44 C 0.55207 0.19122 0.2099 0.0
C45 C 0.54226 0.17413 0.18301 0.0
C46 C 0.5657 0.17838 0.21379 0.0
N47 N 0.54066 0.18882 0.1948 0.0
C48 C 0.55559 0.16082 0.18651 0.0
C49 C 0.56749 0.16288 0.2021 0.0
H50 H 0.55044 0.20307 0.219 0.0
H51 H 0.5331 0.17264 0.17099 0.0
C52 C 0.45208 0.21184 0.1994 0.0
N53 N 0.46804 0.20651 0.20772 0.0
C54 C 0.43553 0.20377 0.20485 0.0
C55 C 0.45218 0.18511 0.22745 0.0
C56 C 0.46831 0.19371 0.22179 0.0
C57 C 0.4356 0.1899 0.2187 0.0
H58 H 0.45231 0.22191 0.18808 0.0
H59 H 0.48115 0.18961 0.22812 0.0
O60 O 0.53122 0.23 0.17947 0.0
O61 O 0.49041 0.23986 0.18664 0.0
O62 O 0.50038 0.20057 0.17589 0.0
O63 O 0.51182 0.21586 0.21571 0.0
H64 H 0.56325 0.24648 0.17655 0.0
H65 H 0.52914 0.20404 0.15298 0.0
H66 H 0.58723 0.23857 0.15281 0.0
H67 H 0.55367 0.19688 0.12974 0.0
H68 H 0.44853 0.28113 0.2079 0.0
H69 H 0.49655 0.26584 0.16103 0.0
H70 H 0.46424 0.25111 0.21005 0.0
H71 H 0.48008 0.29549 0.15957 0.0
H72 H 0.52256 0.25637 0.10729 0.0
H73 H 0.47539 0.2205 0.10596 0.0
H74 H 0.55296 0.26597 0.25005 0.0
H75 H 0.52762 0.30498 0.21186 0.0
H76 H 0.50588 0.17974 0.20643 0.0
H77 H 0.48245 0.18124 0.1501 0.0
H78 H 0.49535 0.14763 0.20969 0.0
H79 H 0.4723 0.14906 0.15436 0.0
H80 H 0.52045 0.19499 0.24509 0.0
H81 H 0.49082 0.24308 0.22777 0.0
H82 H 0.50997 0.20022 0.27836 0.0
H83 H 0.48075 0.24745 0.26126 0.0
H84 H 0.5745 0.18037 0.22606 0.0
H85 H 0.55667 0.14913 0.17706 0.0
H86 H 0.42297 0.20768 0.19772 0.0
H87 H 0.45271 0.17452 0.23825 0.0
Li88 Li 0.29117 0.5247 0.69103 0.0
Li89 Li 0.28295 0.49246 0.69422 0.0
Li90 Li 0.27458 0.5098 0.66575 0.0
Li91 Li 0.25934 0.51521 0.69616 0.0
C92 C 0.30748 0.49821 0.65893 0.0
N93 N 0.32188 0.48627 0.62469 0.0
C94 C 0.30818 0.4795 0.65482 0.0
C95 C 0.31414 0.51085 0.64567 0.0
C96 C 0.31553 0.47374 0.63742 0.0
C97 C 0.32134 0.50454 0.62842 0.0
C98 C 0.28707 0.50411 0.72934 0.0
C99 C 0.28383 0.48288 0.75546 0.0
N100 N 0.30146 0.48621 0.76065 0.0
C101 C 0.30513 0.5074 0.73498 0.0
C102 C 0.27629 0.49183 0.73971 0.0
C103 C 0.31216 0.4982 0.75084 0.0
C104 C 0.30461 0.55483 0.71154 0.0
N105 N 0.30907 0.54245 0.69784 0.0
C106 C 0.33917 0.55501 0.69523 0.0
C107 C 0.32595 0.54223 0.68971 0.0
C108 C 0.33495 0.56808 0.70929 0.0
C109 C 0.31734 0.56791 0.71739 0.0
H110 H 0.29115 0.55448 0.71794 0.0
H111 H 0.32924 0.53199 0.67913 0.0
C112 C 0.28199 0.45443 0.70486 0.0
N113 N 0.29234 0.46982 0.70318 0.0
C114 C 0.29008 0.43795 0.71057 0.0
C115 C 0.31915 0.45364 0.71285 0.0
C116 C 0.31056 0.46971 0.70705 0.0
C117 C 0.30897 0.43739 0.71444 0.0
H118 H 0.26758 0.45486 0.70142 0.0
H119 H 0.31845 0.48214 0.7054 0.0
C120 C 0.27143 0.55192 0.67815 0.0
N121 N 0.27782 0.58917 0.68026 0.0
C122 C 0.26141 0.56276 0.69085 0.0
C123 C 0.28465 0.56006 0.66648 0.0
C124 C 0.26485 0.58156 0.6917 0.0
C125 C 0.28771 0.5789 0.66779 0.0
C126 C 0.24148 0.4874 0.68136 0.0
C127 C 0.23002 0.49067 0.66576 0.0
C128 C 0.23428 0.47957 0.69793 0.0
C129 C 0.21147 0.48617 0.66706 0.0
C130 C 0.21565 0.47529 0.69868 0.0
N131 N 0.20473 0.47865 0.68336 0.0
C132 C 0.26874 0.49158 0.63071 0.0
C133 C 0.27039 0.52391 0.62843 0.0
C134 C 0.26579 0.49013 0.61108 0.0
N135 N 0.27096 0.5083 0.63892 0.0
C136 C 0.26757 0.5231 0.60877 0.0
C137 C 0.26511 0.50605 0.59983 0.0
H138 H 0.26909 0.4794 0.63947 0.0
H139 H 0.27206 0.53702 0.63532 0.0
C140 C 0.23534 0.52457 0.72655 0.0
N141 N 0.23688 0.52271 0.70733 0.0
C142 C 0.21968 0.53252 0.73446 0.0
C143 C 0.2073 0.53588 0.70267 0.0
C144 C 0.22324 0.52805 0.69539 0.0
C145 C 0.20553 0.53865 0.72243 0.0
H146 H 0.24658 0.5206 0.73568 0.0
H147 H 0.22504 0.52683 0.68014 0.0
O148 O 0.29988 0.50416 0.67565 0.0
O149 O 0.28006 0.51267 0.71361 0.0
O150 O 0.26848 0.53343 0.67731 0.0
O151 O 0.25962 0.49193 0.68047 0.0
H152 H 0.30292 0.46954 0.66482 0.0
H153 H 0.31351 0.52539 0.64854 0.0
H154 H 0.31609 0.45931 0.63401 0.0
H155 H 0.32643 0.51417 0.61797 0.0
H156 H 0.27568 0.47325 0.76355 0.0
H157 H 0.31371 0.5168 0.72708 0.0
H158 H 0.26229 0.48912 0.73552 0.0
H159 H 0.32615 0.50054 0.75531 0.0
H160 H 0.35265 0.55441 0.68883 0.0
H161 H 0.31335 0.57785 0.72808 0.0
H162 H 0.28176 0.4257 0.71142 0.0
H163 H 0.33367 0.45395 0.716 0.0
H164 H 0.25121 0.55674 0.70008 0.0
H165 H 0.29273 0.55186 0.65677 0.0
H166 H 0.25723 0.5901 0.7015 0.0
H167 H 0.298 0.58534 0.65895 0.0
H168 H 0.23534 0.49682 0.65286 0.0
H169 H 0.24294 0.477 0.71015 0.0
H170 H 0.20243 0.48871 0.65513 0.0
H171 H 0.20987 0.46932 0.71146 0.0
H172 H 0.26372 0.47671 0.60488 0.0
H173 H 0.26742 0.53572 0.60066 0.0
H174 H 0.21907 0.53463 0.74973 0.0
H175 H 0.19669 0.54016 0.69285 0.0
Li176 Li 0.9784 0.29314 0.19114 0.0
Li177 Li 0.00852 0.28252 0.19616 0.0
Li178 Li 0.99242 0.27446 0.16627 0.0
Li179 Li 0.98205 0.26113 0.19865 0.0
C180 C 0.00503 0.31562 0.16991 0.0
N181 N 0.01485 0.35046 0.15845 0.0
C182 C 0.01459 0.32715 0.18233 0.0
C183 C 0.0007 0.32172 0.15156 0.0
C184 C 0.01937 0.34473 0.17629 0.0
C185 C 0.00572 0.33941 0.14606 0.0
C186 C 0.98151 0.29302 0.22898 0.0
C187 C 0.96096 0.29794 0.25542 0.0
N188 N 0.96667 0.31564 0.25654 0.0
C189 C 0.98734 0.31118 0.23057 0.0
C190 C 0.96835 0.28627 0.24164 0.0
C191 C 0.9796 0.32243 0.24452 0.0
C192 C 0.94551 0.30721 0.20487 0.0
N193 N 0.96101 0.31247 0.19564 0.0
C194 C 0.95061 0.34352 0.19492 0.0
C195 C 0.96373 0.33024 0.19055 0.0
C196 C 0.93454 0.33846 0.20458 0.0
C197 C 0.93207 0.31999 0.20951 0.0
H198 H 0.94371 0.29302 0.20886 0.0
H199 H 0.97605 0.33423 0.18322 0.0
C200 C 0.04631 0.29055 0.19366 0.0
N201 N 0.032 0.28866 0.20587 0.0
C202 C 0.06324 0.29673 0.20032 0.0
C203 C 0.0503 0.29891 0.23197 0.0
C204 C 0.03376 0.29235 0.22476 0.0
C205 C 0.06532 0.30144 0.21967 0.0
H206 H 0.04445 0.28767 0.17865 0.0
H207 H 0.02212 0.29077 0.23413 0.0
C208 C 0.9518 0.2784 0.16913 0.0
N209 N 0.92024 0.29218 0.15282 0.0
C210 C 0.93474 0.27126 0.17423 0.0
C211 C 0.95282 0.29241 0.1556 0.0
C212 C 0.91893 0.27845 0.16586 0.0
C213 C 0.93672 0.29923 0.14756 0.0
C214 C 0.02253 0.25039 0.18742 0.0
C215 C 0.03513 0.24867 0.17254 0.0
C216 C 0.02756 0.24538 0.20593 0.0
C217 C 0.05268 0.24204 0.17648 0.0
C218 C 0.04524 0.23883 0.20928 0.0
N219 N 0.05733 0.23732 0.19461 0.0
C220 C 0.00979 0.27578 0.13034 0.0
C221 C 0.98061 0.26151 0.13055 0.0
C222 C 0.01124 0.27325 0.11064 0.0
N223 N 0.9946 0.26999 0.13978 0.0
C224 C 0.9814 0.25888 0.11086 0.0
C225 C 0.99683 0.26486 0.10065 0.0
H226 H 0.02066 0.28255 0.1381 0.0
H227 H 0.96876 0.25694 0.13846 0.0
C228 C 0.95372 0.24234 0.21655 0.0
N229 N 0.97122 0.24042 0.21031 0.0
C230 C 0.94433 0.2274 0.22411 0.0
C231 C 0.97135 0.20883 0.21923 0.0
C232 C 0.98017 0.22414 0.21156 0.0
C233 C 0.9531 0.21034 0.22536 0.0
H234 H 0.94699 0.25548 0.21542 0.0
H235 H 0.99402 0.22295 0.20626 0.0
O236 O 0.00033 0.29828 0.17545 0.0
O237 O 0.98866 0.28188 0.21515 0.0
O238 O 0.96744 0.27187 0.17746 0.0
O239 O 0.00544 0.25724 0.18395 0.0
H240 H 0.01835 0.3226 0.19646 0.0
H241 H 0.99358 0.3129 0.14163 0.0
H242 H 0.02672 0.35382 0.18579 0.0
H243 H 0.00239 0.34434 0.13193 0.0
H244 H 0.95069 0.29293 0.26523 0.0
H245 H 0.99755 0.3166 0.22097 0.0
H246 H 0.96388 0.27219 0.24083 0.0
H247 H 0.98386 0.33657 0.24576 0.0
H248 H 0.95298 0.35757 0.19066 0.0
H249 H 0.92004 0.31549 0.21723 0.0
H250 H 0.07444 0.29811 0.19031 0.0
H251 H 0.05098 0.30265 0.24689 0.0
H252 H 0.93368 0.26031 0.18453 0.0
H253 H 0.96592 0.29807 0.15151 0.0
H254 H 0.90563 0.2731 0.16972 0.0
H255 H 0.93731 0.31015 0.13716 0.0
H256 H 0.03144 0.25252 0.15814 0.0
H257 H 0.01797 0.24678 0.21763 0.0
H258 H 0.06261 0.2407 0.16512 0.0
H259 H 0.04937 0.23501 0.22356 0.0
H260 H 0.0233 0.27816 0.10325 0.0
H261 H 0.97011 0.25215 0.1037 0.0
H262 H 0.93034 0.22915 0.22889 0.0
H263 H 0.9785 0.19586 0.21981 0.0
Li264 Li 0.20265 0.97592 0.68982 0.0
Li265 Li 0.21297 0.00693 0.69381 0.0
Li266 Li 0.22134 0.99013 0.66541 0.0
Li267 Li 0.23467 0.98249 0.69583 0.0
C268 C 0.17905 0.00379 0.67629 0.0
N269 N 0.14422 0.01751 0.68193 0.0
C270 C 0.17005 0.00089 0.69362 0.0
C271 C 0.17034 0.01365 0.66183 0.0
C272 C 0.15244 0.00794 0.6962 0.0
C273 C 0.15272 0.02048 0.66495 0.0
C274 C 0.21985 0.99325 0.73009 0.0
C275 C 0.23988 0.01269 0.74847 0.0
N276 N 0.2326 0.00579 0.76482 0.0
C277 C 0.21258 0.98634 0.74706 0.0
C278 C 0.23362 0.00653 0.73077 0.0
C279 C 0.2192 0.99286 0.76447 0.0
C280 C 0.18743 0.94752 0.7105 0.0
N281 N 0.1842 0.95832 0.69511 0.0
C282 C 0.15589 0.94297 0.68902 0.0
C283 C 0.16887 0.95629 0.6843 0.0
C284 C 0.1589 0.93157 0.70487 0.0
C285 C 0.17492 0.93399 0.71567 0.0
H286 H 0.1998 0.94944 0.71877 0.0
H287 H 0.16674 0.96497 0.672 0.0
C288 C 0.2106 0.04576 0.69421 0.0
N289 N 0.20546 0.03013 0.70329 0.0
C290 C 0.20323 0.06261 0.69978 0.0
C291 C 0.18574 0.04689 0.72407 0.0
C292 C 0.19364 0.03046 0.71826 0.0
C293 C 0.19028 0.06315 0.71455 0.0
H294 H 0.21994 0.04504 0.68226 0.0
H295 H 0.18978 0.01786 0.72526 0.0
C296 C 0.21873 0.95174 0.66486 0.0
N297 N 0.20744 0.92394 0.64087 0.0
C298 C 0.22752 0.93476 0.66529 0.0
C299 C 0.20416 0.95458 0.65227 0.0
C300 C 0.22163 0.92088 0.65303 0.0
C301 C 0.19867 0.94035 0.64024 0.0
C302 C 0.25435 0.00701 0.67311 0.0
C303 C 0.26307 0.99116 0.66658 0.0
C304 C 0.26291 0.02398 0.67088 0.0
C305 C 0.28024 0.99258 0.65793 0.0
C306 C 0.28009 0.02483 0.66216 0.0
N307 N 0.28832 0.00924 0.65592 0.0
C308 C 0.21856 0.00622 0.62893 0.0
C309 C 0.2363 0.97907 0.62981 0.0
C310 C 0.22155 0.00795 0.60932 0.0
N311 N 0.22586 0.9919 0.63869 0.0
C312 C 0.23959 0.98022 0.61026 0.0
C313 C 0.23218 0.99481 0.59972 0.0
H314 H 0.21047 0.01632 0.63642 0.0
H315 H 0.24207 0.96786 0.63788 0.0
C316 C 0.25258 0.95505 0.71491 0.0
N317 N 0.25519 0.97247 0.70876 0.0
C318 C 0.2667 0.94559 0.72393 0.0
C319 C 0.28595 0.9723 0.72037 0.0
C320 C 0.27131 0.98136 0.71165 0.0
C321 C 0.28383 0.95405 0.72645 0.0
H322 H 0.23949 0.94846 0.71265 0.0
H323 H 0.27293 0.99536 0.70693 0.0
O324 O 0.19641 0.99727 0.67347 0.0
O325 O 0.21349 0.98688 0.71297 0.0
O326 O 0.22432 0.96537 0.67691 0.0
O327 O 0.23745 0.00609 0.68149 0.0
H328 H 0.17661 0.9934 0.70503 0.0
H329 H 0.17713 0.01603 0.64833 0.0
H330 H 0.14535 0.00584 0.70956 0.0
H331 H 0.14582 0.02815 0.65389 0.0
H332 H 0.25054 0.02296 0.74921 0.0
H333 H 0.20191 0.97605 0.74675 0.0
H334 H 0.23944 0.01206 0.71782 0.0
H335 H 0.21369 0.98764 0.77772 0.0
H336 H 0.1438 0.94141 0.68023 0.0
H337 H 0.17765 0.92566 0.72812 0.0
H338 H 0.20692 0.07493 0.69207 0.0
H339 H 0.17587 0.04685 0.73559 0.0
H340 H 0.2388 0.93235 0.675 0.0
H341 H 0.19717 0.96762 0.65174 0.0
H342 H 0.22832 0.90767 0.6532 0.0
H343 H 0.18743 0.94236 0.63042 0.0
H344 H 0.25675 0.97788 0.66826 0.0
H345 H 0.25632 0.03638 0.67584 0.0
H346 H 0.28714 0.98042 0.65284 0.0
H347 H 0.28686 0.03789 0.66035 0.0
H348 H 0.21578 0.01956 0.60183 0.0
H349 H 0.24765 0.96964 0.60345 0.0
H350 H 0.26417 0.93177 0.72883 0.0
H351 H 0.29889 0.97939 0.72189 0.0
Li352 Li 0.4878 0.27979 0.80343 0.0
Li353 Li 0.51961 0.29125 0.81011 0.0
Li354 Li 0.51379 0.25899 0.80499 0.0
Li355 Li 0.50464 0.27294 0.83417 0.0
C356 C 0.51714 0.27273 0.77066 0.0
N357 N 0.53315 0.25731 0.73878 0.0
C358 C 0.53553 0.2762 0.76649 0.0
C359 C 0.50687 0.26147 0.75859 0.0
C360 C 0.54337 0.26826 0.75031 0.0
C361 C 0.51522 0.25379 0.74255 0.0
C362 C 0.49707 0.31555 0.82578 0.0
C363 C 0.5098 0.34268 0.84025 0.0
N364 N 0.49908 0.35322 0.82881 0.0
C365 C 0.48612 0.32665 0.81422 0.0
C366 C 0.50895 0.32361 0.83897 0.0
C367 C 0.48735 0.34567 0.81596 0.0
C368 C 0.4506 0.28981 0.80393 0.0
N369 N 0.46516 0.28654 0.79237 0.0
C370 C 0.44856 0.29715 0.76522 0.0
C371 C 0.46438 0.28982 0.77332 0.0
C372 C 0.43352 0.30149 0.77689 0.0
C373 C 0.43455 0.29735 0.79646 0.0
H374 H 0.45177 0.28732 0.81909 0.0
H375 H 0.47628 0.28739 0.76453 0.0
C376 C 0.55371 0.30953 0.81076 0.0
N377 N 0.53608 0.31079 0.80476 0.0
C378 C 0.56634 0.32313 0.80601 0.0
C379 C 0.54239 0.33914 0.78906 0.0
C380 C 0.53029 0.3251 0.79393 0.0
C381 C 0.56077 0.33822 0.79497 0.0
H382 H 0.55811 0.29771 0.81881 0.0
H383 H 0.51632 0.32549 0.78887 0.0
C384 C 0.48327 0.23929 0.81352 0.0
N385 N 0.47032 0.2047 0.80499 0.0
C386 C 0.4907 0.22393 0.82256 0.0
C387 C 0.4692 0.23707 0.80021 0.0
C388 C 0.48399 0.20656 0.81802 0.0
C389 C 0.46284 0.21946 0.79608 0.0
C390 C 0.53919 0.26574 0.8403 0.0
C391 C 0.54303 0.24737 0.84423 0.0
C392 C 0.54464 0.27928 0.8532 0.0
C393 C 0.55219 0.24285 0.86108 0.0
C394 C 0.55374 0.2742 0.86991 0.0
N395 N 0.55729 0.25624 0.87347 0.0
C396 C 0.54384 0.23811 0.7946 0.0
C397 C 0.51629 0.22455 0.78377 0.0
C398 C 0.55408 0.22393 0.7867 0.0
N399 N 0.52527 0.23803 0.79339 0.0
C400 C 0.52601 0.20997 0.77575 0.0
C401 C 0.54519 0.20944 0.77735 0.0
H402 H 0.55075 0.24934 0.8016 0.0
H403 H 0.50163 0.22515 0.78206 0.0
C404 C 0.49581 0.2842 0.87184 0.0
N405 N 0.50123 0.26975 0.86101 0.0
C406 C 0.49382 0.28227 0.89156 0.0
C407 C 0.50279 0.25057 0.88857 0.0
C408 C 0.5044 0.25307 0.86893 0.0
C409 C 0.49748 0.2653 0.90023 0.0
H410 H 0.49301 0.29724 0.86518 0.0
H411 H 0.50851 0.24174 0.86004 0.0
O412 O 0.50938 0.27994 0.78673 0.0
O413 O 0.49622 0.29689 0.82415 0.0
O414 O 0.48943 0.25645 0.81796 0.0
O415 O 0.53003 0.27044 0.82399 0.0
H416 H 0.54371 0.28476 0.77577 0.0
H417 H 0.4927 0.25839 0.7618 0.0
H418 H 0.55761 0.27075 0.74696 0.0
H419 H 0.50748 0.24494 0.73316 0.0
H420 H 0.51901 0.34909 0.85033 0.0
H421 H 0.4769 0.32069 0.80388 0.0
H422 H 0.5175 0.31524 0.84804 0.0
H423 H 0.47902 0.35443 0.80704 0.0
H424 H 0.44832 0.29983 0.75003 0.0
H425 H 0.42344 0.3007 0.80607 0.0
H426 H 0.58044 0.32153 0.81049 0.0
H427 H 0.53738 0.35053 0.78067 0.0
H428 H 0.50173 0.22536 0.83272 0.0
H429 H 0.46326 0.2488 0.79311 0.0
H430 H 0.48969 0.19454 0.82481 0.0
H431 H 0.45198 0.21753 0.78578 0.0
H432 H 0.5387 0.23667 0.83457 0.0
H433 H 0.5418 0.29355 0.85039 0.0
H434 H 0.55515 0.22869 0.86436 0.0
H435 H 0.55795 0.28453 0.88006 0.0
H436 H 0.56887 0.22446 0.78776 0.0
H437 H 0.51856 0.19916 0.76857 0.0
H438 H 0.48934 0.29393 0.89988 0.0
H439 H 0.50601 0.23729 0.89456 0.0
Li440 Li 0.20522 0.52168 0.30621 0.0
Li441 Li 0.21559 0.4896 0.30409 0.0
Li442 Li 0.22452 0.50835 0.33104 0.0
Li443 Li 0.23668 0.51379 0.29891 0.0
C444 C 0.18731 0.50644 0.33739 0.0
N445 N 0.16293 0.51752 0.3652 0.0
C446 C 0.1739 0.49438 0.34401 0.0
C447 C 0.18836 0.52413 0.34493 0.0
C448 C 0.16168 0.50024 0.35807 0.0
C449 C 0.1759 0.52947 0.35898 0.0
C450 C 0.21879 0.51327 0.26552 0.0
C451 C 0.23272 0.50681 0.23504 0.0
N452 N 0.22822 0.52391 0.22896 0.0
C453 C 0.21407 0.53068 0.25885 0.0
C454 C 0.22798 0.50115 0.25342 0.0
C455 C 0.21904 0.53584 0.24037 0.0
C456 C 0.19006 0.55628 0.29933 0.0
N457 N 0.18586 0.53824 0.30109 0.0
C458 C 0.15446 0.54422 0.29379 0.0
C459 C 0.16848 0.53203 0.29859 0.0
C460 C 0.1585 0.56289 0.2914 0.0
C461 C 0.17654 0.5689 0.29444 0.0
H462 H 0.20403 0.56076 0.30124 0.0
H463 H 0.16559 0.51756 0.30003 0.0
C464 C 0.20837 0.45174 0.30951 0.0
N465 N 0.20775 0.46583 0.29685 0.0
C466 C 0.2014 0.43458 0.30451 0.0
C467 C 0.19316 0.44686 0.27366 0.0
C468 C 0.20043 0.46369 0.27919 0.0
C469 C 0.19343 0.43201 0.28644 0.0
H470 H 0.21398 0.45393 0.3236 0.0
H471 H 0.19975 0.47524 0.26957 0.0
C472 C 0.24196 0.5422 0.32467 0.0
N473 N 0.27128 0.56206 0.33863 0.0
C474 C 0.25823 0.53332 0.32972 0.0
C475 C 0.24065 0.56119 0.32673 0.0
C476 C 0.27289 0.5436 0.33673 0.0
C477 C 0.25561 0.57098 0.33382 0.0
C478 C 0.24819 0.47529 0.31318 0.0
C479 C 0.25253 0.46457 0.32906 0.0
C480 C 0.25174 0.46859 0.29489 0.0
C481 C 0.25994 0.44712 0.32634 0.0
C482 C 0.25914 0.45108 0.29275 0.0
N483 N 0.26303 0.44078 0.30839 0.0
C484 C 0.22654 0.49148 0.3669 0.0
C485 C 0.23162 0.52349 0.3681 0.0
C486 C 0.22887 0.4901 0.38662 0.0
N487 N 0.22831 0.50793 0.35802 0.0
C488 C 0.23406 0.52275 0.38782 0.0
C489 C 0.23279 0.50588 0.39734 0.0
H490 H 0.2231 0.47945 0.35865 0.0
H491 H 0.23218 0.53656 0.36097 0.0
C492 C 0.25542 0.5397 0.27748 0.0
N493 N 0.25727 0.5227 0.28511 0.0
C494 C 0.27006 0.54798 0.26813 0.0
C495 C 0.28855 0.52137 0.27519 0.0
C496 C 0.27341 0.51345 0.28419 0.0
C497 C 0.28693 0.53886 0.26703 0.0
H498 H 0.24266 0.54703 0.2791 0.0
H499 H 0.27468 0.50018 0.29086 0.0
O500 O 0.19944 0.50078 0.32374 0.0
O501 O 0.21421 0.50806 0.28367 0.0
O502 O 0.2275 0.53251 0.3174 0.0
O503 O 0.24066 0.4923 0.31553 0.0
H504 H 0.17296 0.48062 0.33834 0.0
H505 H 0.19869 0.53365 0.34006 0.0
H506 H 0.15121 0.49105 0.36333 0.0
H507 H 0.17655 0.54311 0.36495 0.0
H508 H 0.23992 0.49759 0.22558 0.0
H509 H 0.20686 0.54022 0.26789 0.0
H510 H 0.23133 0.48746 0.25808 0.0
H511 H 0.21563 0.54934 0.23512 0.0
H512 H 0.14076 0.53903 0.29143 0.0
H513 H 0.18019 0.5832 0.29295 0.0
H514 H 0.20207 0.42353 0.31479 0.0
H515 H 0.18679 0.44573 0.25977 0.0
H516 H 0.2596 0.51866 0.32826 0.0
H517 H 0.22819 0.56832 0.32294 0.0
H518 H 0.28554 0.53689 0.34067 0.0
H519 H 0.25476 0.58568 0.3355 0.0
H520 H 0.25031 0.46965 0.34334 0.0
H521 H 0.24877 0.47682 0.2825 0.0
H522 H 0.26328 0.43865 0.33851 0.0
H523 H 0.26181 0.44568 0.27865 0.0
H524 H 0.22732 0.47688 0.39343 0.0
H525 H 0.23706 0.53527 0.39548 0.0
H526 H 0.2684 0.56167 0.26244 0.0
H527 H 0.30141 0.51399 0.27472 0.0
Li528 Li 0.98234 0.23628 0.80224 0.0
Li529 Li 0.99264 0.2234 0.83255 0.0
Li530 Li 0.00824 0.21622 0.80264 0.0
Li531 Li 0.97771 0.20376 0.80953 0.0
C532 C 0.02344 0.2465 0.81454 0.0
N533 N 0.05967 0.2572 0.81257 0.0
C534 C 0.03455 0.24561 0.83075 0.0
C535 C 0.03072 0.25291 0.79735 0.0
C536 C 0.05284 0.25108 0.82945 0.0
C537 C 0.04909 0.25822 0.79664 0.0
C538 C 0.95765 0.2309 0.83802 0.0
C539 C 0.94339 0.22491 0.86841 0.0
N540 N 0.93961 0.24306 0.87025 0.0
C541 C 0.95355 0.24948 0.84016 0.0
C542 C 0.95245 0.21848 0.85218 0.0
C543 C 0.94443 0.25535 0.85657 0.0
C544 C 0.95231 0.25513 0.78791 0.0
N545 N 0.97068 0.2566 0.79051 0.0
C546 C 0.97083 0.28621 0.77601 0.0
C547 C 0.98005 0.27174 0.78485 0.0
C548 C 0.95181 0.28505 0.77306 0.0
C549 C 0.94257 0.26923 0.7792 0.0
H550 H 0.94524 0.24294 0.79267 0.0
H551 H 0.99466 0.27253 0.78713 0.0
C552 C 0.00023 0.21461 0.87117 0.0
N553 N 0.99563 0.22835 0.85901 0.0
C554 C 0.00173 0.21801 0.8907 0.0
C555 C 0.99398 0.24969 0.88477 0.0
C556 C 0.99285 0.24572 0.86534 0.0
C557 C 0.99838 0.2357 0.89773 0.0
H558 H 0.00262 0.20098 0.86573 0.0
H559 H 0.98956 0.25644 0.85527 0.0
C560 C 0.97881 0.22051 0.76917 0.0
N561 N 0.96151 0.23362 0.7369 0.0
C562 C 0.96117 0.21455 0.76458 0.0
C563 C 0.98771 0.23305 0.75729 0.0
C564 C 0.95265 0.22135 0.7482 0.0
C565 C 0.97871 0.23955 0.74106 0.0
C566 C 0.00091 0.18089 0.82636 0.0
C567 C 0.01235 0.16955 0.81558 0.0
C568 C 0.989 0.17316 0.83972 0.0
C569 C 0.01158 0.15061 0.81829 0.0
C570 C 0.98862 0.15416 0.84198 0.0
N571 N -0.00018 0.14337 0.8313 0.0
C572 C 0.04588 0.20679 0.80265 0.0
C573 C 0.03167 0.2071 0.77224 0.0
C574 C 0.06206 0.19998 0.79474 0.0
N575 N 0.03107 0.20999 0.79137 0.0
C576 C 0.04752 0.20024 0.76376 0.0
C577 C 0.06284 0.19622 0.77511 0.0
H578 H 0.04486 0.20879 0.81789 0.0
H579 H 0.01962 0.20945 0.76366 0.0
C580 C 0.94383 0.18509 0.81067 0.0
N581 N 0.96163 0.18365 0.80528 0.0
C582 C 0.93135 0.17129 0.80605 0.0
C583 C 0.95588 0.15456 0.79086 0.0
C584 C 0.96779 0.16885 0.79545 0.0
C585 C 0.93726 0.15576 0.79588 0.0
H586 H 0.93917 0.19725 0.81799 0.0
H587 H 0.98189 0.1683 0.79082 0.0
O588 O 0.00558 0.24097 0.81544 0.0
O589 O 0.96691 0.22492 0.82225 0.0
O590 O 0.98719 0.21441 0.78543 0.0
O591 O 0.00135 0.19946 0.82382 0.0
H592 H 0.02916 0.24062 0.84414 0.0
H593 H 0.02235 0.25354 0.78464 0.0
H594 H 0.06162 0.25041 0.84186 0.0
H595 H 0.05494 0.26309 0.7834 0.0
H596 H 0.9394 0.21547 0.87954 0.0
H597 H 0.95758 0.2593 0.82939 0.0
H598 H 0.95551 0.20406 0.85074 0.0
H599 H 0.94126 0.26971 0.85847 0.0
H600 H 0.97852 0.29808 0.77137 0.0
H601 H 0.92789 0.26786 0.77759 0.0
H602 H 0.00507 0.20684 0.90025 0.0
H603 H 0.99155 0.26356 0.88961 0.0
H604 H 0.95404 0.20493 0.77365 0.0
H605 H 0.00129 0.23794 0.76073 0.0
H606 H 0.93896 0.21693 0.74452 0.0
H607 H 0.98536 0.24937 0.73182 0.0
H608 H 0.02159 0.17526 0.80512 0.0
H609 H 0.98002 0.18172 0.84813 0.0
H610 H 0.02029 0.14167 0.81 0.0
H611 H 0.97939 0.14798 0.85219 0.0
H612 H 0.07347 0.19679 0.80403 0.0
H613 H 0.04761 0.19764 0.74855 0.0
H614 H 0.91711 0.17315 0.80985 0.0
H615 H 0.96123 0.14283 0.78326 0.0
Li616 Li 0.26022 0.98037 0.30046 0.0
Li617 Li 0.27385 0.98885 0.33115 0.0
Li618 Li 0.28131 0.00554 0.30194 0.0
Li619 Li 0.29268 0.97429 0.30725 0.0
C620 C 0.25137 0.02105 0.31467 0.0
N621 N 0.24116 0.05745 0.31407 0.0
C622 C 0.25318 0.03178 0.33107 0.0
C623 C 0.24424 0.02877 0.29801 0.0
C624 C 0.24796 0.05018 0.33046 0.0
C625 C 0.23921 0.04722 0.29798 0.0
C626 C 0.26454 0.95398 0.33479 0.0
C627 C 0.26935 0.93849 0.36475 0.0
N628 N 0.2511 0.93492 0.3658 0.0
C629 C 0.24585 0.95007 0.3361 0.0
C630 C 0.27643 0.94805 0.34915 0.0
C631 C 0.23932 0.94043 0.35191 0.0
C632 C 0.24073 0.95356 0.28039 0.0
N633 N 0.23915 0.97039 0.28849 0.0
C634 C 0.20752 0.97191 0.27991 0.0
C635 C 0.22298 0.97963 0.28849 0.0
C636 C 0.20891 0.95473 0.27108 0.0
C637 C 0.22577 0.94554 0.27131 0.0
H638 H 0.25364 0.94635 0.28106 0.0
H639 H 0.22207 0.99288 0.29529 0.0
C640 C 0.28338 0.99564 0.36959 0.0
N641 N 0.26937 0.9911 0.35777 0.0
C642 C 0.28046 0.99705 0.38921 0.0
C643 C 0.24866 0.98931 0.38408 0.0
C644 C 0.25217 0.98825 0.36453 0.0
C645 C 0.26293 0.99369 0.39675 0.0
H646 H 0.29683 0.99824 0.36379 0.0
H647 H 0.24121 0.98496 0.35474 0.0
C648 C 0.27641 0.97846 0.26663 0.0
N649 N 0.26429 0.96456 0.23222 0.0
C650 C 0.28336 0.96189 0.25977 0.0
C651 C 0.26342 0.98805 0.25591 0.0
C652 C 0.27703 0.95508 0.24235 0.0
C653 C 0.25742 0.98076 0.23858 0.0
C654 C 0.31653 0.99588 0.32489 0.0
C655 C 0.32821 0.00726 0.31445 0.0
C656 C 0.3239 0.98321 0.3377 0.0
C657 C 0.34713 0.00565 0.31691 0.0
C658 C 0.34289 0.982 0.33973 0.0
N659 N 0.35401 0.99315 0.32938 0.0
C660 C 0.2918 0.04292 0.30341 0.0
C661 C 0.29086 0.0298 0.27249 0.0
C662 C 0.29895 0.0592 0.29605 0.0
N663 N 0.2881 0.02861 0.29161 0.0
C664 C 0.29809 0.04574 0.26455 0.0
C665 C 0.30257 0.06055 0.27642 0.0
H666 H 0.2899 0.04142 0.31863 0.0
H667 H 0.28811 0.01814 0.26348 0.0
C668 C 0.30996 0.93977 0.30725 0.0
N669 N 0.31214 0.95763 0.30231 0.0
C670 C 0.32335 0.92691 0.30252 0.0
C671 C 0.34117 0.95114 0.28811 0.0
C672 C 0.32726 0.96347 0.29276 0.0
C673 C 0.33916 0.93259 0.29281 0.0
H674 H 0.29763 0.93543 0.31447 0.0
H675 H 0.32835 0.97762 0.28842 0.0
O676 O 0.25666 0.0031 0.31489 0.0
O677 O 0.27116 0.96367 0.3196 0.0
O678 O 0.28222 0.98522 0.28379 0.0
O679 O 0.29798 0.99712 0.32256 0.0
H680 H 0.25871 0.02602 0.34407 0.0
H681 H 0.24276 0.02064 0.28521 0.0
H682 H 0.24936 0.05868 0.34301 0.0
H683 H 0.23377 0.05342 0.28516 0.0
H684 H 0.27836 0.93394 0.37604 0.0
H685 H 0.23647 0.95458 0.32513 0.0
H686 H 0.29093 0.95095 0.34832 0.0
H687 H 0.22488 0.93739 0.35318 0.0
H688 H 0.19466 0.97931 0.28006 0.0
H689 H 0.22723 0.93212 0.2649 0.0
H690 H 0.29179 0.00087 0.39833 0.0
H691 H 0.23497 0.98644 0.38919 0.0
H692 H 0.29341 0.95428 0.26786 0.0
H693 H 0.25788 0.00087 0.26104 0.0
H694 H 0.28222 0.94223 0.2369 0.0
H695 H 0.24728 0.98796 0.23021 0.0
H696 H 0.32277 0.0171 0.30442 0.0
H697 H 0.31505 0.97427 0.34586 0.0
H698 H 0.35634 0.01431 0.30887 0.0
H699 H 0.34878 0.97218 0.34951 0.0
H700 H 0.30247 0.07022 0.30571 0.0
H701 H 0.3006 0.04629 0.24933 0.0
H702 H 0.32135 0.91266 0.3063 0.0
H703 H 0.35306 0.95593 0.28033 0.0
Li704 Li 0.48851 0.77723 0.83251 0.0
Li705 Li 0.50506 0.78489 0.80352 0.0
Li706 Li 0.47329 0.79465 0.80797 0.0
Li707 Li 0.48107 0.76261 0.80206 0.0
C708 C 0.49261 0.8202 0.82476 0.0
N709 N 0.48656 0.85751 0.82687 0.0
C710 C 0.50335 0.83227 0.81407 0.0
C711 C 0.47876 0.82713 0.83651 0.0
C712 C 0.5001 0.85109 0.81536 0.0
C713 C 0.47591 0.84602 0.83736 0.0
C714 C 0.52206 0.75646 0.81668 0.0
C715 C 0.549 0.74572 0.80025 0.0
N716 N 0.55923 0.74956 0.81596 0.0
C717 C 0.53282 0.76028 0.83267 0.0
C718 C 0.53017 0.74907 0.80034 0.0
C719 C 0.5516 0.75669 0.83202 0.0
C720 C 0.4924 0.75573 0.8657 0.0
N721 N 0.49037 0.77317 0.85926 0.0
C722 C 0.48922 0.78458 0.89115 0.0
C723 C 0.48905 0.78753 0.8715 0.0
C724 C 0.49101 0.7667 0.89824 0.0
C725 C 0.49282 0.75216 0.88526 0.0
H726 H 0.49344 0.74458 0.8556 0.0
H727 H 0.48771 0.80126 0.86603 0.0
C728 C 0.53229 0.79121 0.77522 0.0
N729 N 0.52833 0.79234 0.79411 0.0
C730 C 0.54888 0.79798 0.76828 0.0
C731 C 0.55707 0.80673 0.80042 0.0
C732 C 0.54041 0.79962 0.80675 0.0
C733 C 0.5614 0.80624 0.78089 0.0
H734 H 0.52242 0.78542 0.76547 0.0
H735 H 0.5368 0.80046 0.82169 0.0
C736 C 0.45509 0.76557 0.8364 0.0
N737 N 0.43873 0.7506 0.86832 0.0
C738 C 0.45438 0.74657 0.8387 0.0
C739 C 0.44743 0.77695 0.8503 0.0
C740 C 0.44603 0.73927 0.85494 0.0
C741 C 0.43925 0.76912 0.86636 0.0
C742 C 0.47812 0.77736 0.76825 0.0
C743 C 0.46072 0.7826 0.76199 0.0
C744 C 0.48818 0.76461 0.75771 0.0
C745 C 0.45362 0.77488 0.74532 0.0
C746 C 0.48058 0.75718 0.74114 0.0
N747 N 0.4636 0.76242 0.73534 0.0
C748 C 0.46011 0.82786 0.79195 0.0
C749 C 0.43807 0.81027 0.80871 0.0
C750 C 0.44696 0.84109 0.78757 0.0
N751 N 0.4555 0.81295 0.80252 0.0
C752 C 0.42444 0.82299 0.80442 0.0
C753 C 0.42884 0.83863 0.79372 0.0
H754 H 0.47397 0.82938 0.78677 0.0
H755 H 0.43469 0.7981 0.81672 0.0
C756 C 0.48137 0.72593 0.78674 0.0
N757 N 0.47135 0.74121 0.79041 0.0
C758 C 0.47312 0.71074 0.77811 0.0
C759 C 0.44452 0.72738 0.77737 0.0
C760 C 0.45326 0.74215 0.78602 0.0
C761 C 0.45445 0.7114 0.77327 0.0
H762 H 0.49571 0.72552 0.79053 0.0
H763 H 0.44562 0.75442 0.78933 0.0
O764 O 0.49548 0.8017 0.82359 0.0
O765 O 0.50374 0.7603 0.81686 0.0
O766 O 0.4637 0.773 0.82089 0.0
O767 O 0.48513 0.78443 0.78479 0.0
H768 H 0.51394 0.82722 0.8047 0.0
H769 H 0.47002 0.81801 0.84454 0.0
H770 H 0.50828 0.86057 0.80713 0.0
H771 H 0.46517 0.85154 0.84628 0.0
H772 H 0.55548 0.74012 0.78767 0.0
H773 H 0.5268 0.76615 0.84536 0.0
H774 H 0.52206 0.74623 0.78777 0.0
H775 H 0.56012 0.75965 0.84426 0.0
H776 H 0.48806 0.79617 0.90071 0.0
H777 H 0.49413 0.73817 0.89019 0.0
H778 H 0.55172 0.79701 0.75316 0.0
H779 H 0.56608 0.8132 0.81066 0.0
H780 H 0.46042 0.73755 0.82821 0.0
H781 H 0.44804 0.79169 0.84885 0.0
H782 H 0.44546 0.7246 0.85695 0.0
H783 H 0.43339 0.77776 0.87729 0.0
H784 H 0.45269 0.79238 0.76998 0.0
H785 H 0.50155 0.7602 0.76247 0.0
H786 H 0.44014 0.77875 0.74036 0.0
H787 H 0.48815 0.74717 0.73294 0.0
H788 H 0.45079 0.85285 0.77904 0.0
H789 H 0.41061 0.82064 0.80941 0.0
H790 H 0.48128 0.69868 0.77516 0.0
H791 H 0.43002 0.72837 0.77427 0.0
Li792 Li 0.71583 0.50314 0.30525 0.0
Li793 Li 0.72659 0.48792 0.33292 0.0
Li794 Li 0.73947 0.48073 0.30183 0.0
Li795 Li 0.70796 0.47163 0.30986 0.0
C796 C 0.74412 0.52055 0.32503 0.0
N797 N 0.75035 0.55319 0.34388 0.0
C798 C 0.72972 0.52957 0.33422 0.0
C799 C 0.76168 0.52812 0.32544 0.0
C800 C 0.73315 0.54605 0.34366 0.0
C801 C 0.76455 0.54464 0.33504 0.0
C802 C 0.68899 0.48662 0.33972 0.0
C803 C 0.68095 0.46495 0.36429 0.0
N804 N 0.66529 0.47447 0.3677 0.0
C805 C 0.67282 0.49618 0.34345 0.0
C806 C 0.69311 0.47086 0.3502 0.0
C807 C 0.66101 0.48982 0.35766 0.0
C808 C 0.68715 0.52389 0.29208 0.0
N809 N 0.70549 0.52492 0.29505 0.0
C810 C 0.70634 0.5553 0.28236 0.0
C811 C 0.71523 0.54014 0.29032 0.0
C812 C 0.68742 0.55448 0.27895 0.0
C813 C 0.67781 0.53854 0.28393 0.0
H814 H 0.67984 0.51153 0.29586 0.0
H815 H 0.72988 0.54047 0.29253 0.0
C816 C 0.74703 0.48066 0.366 0.0
N817 N 0.73237 0.4901 0.35928 0.0
C818 C 0.75148 0.48129 0.38536 0.0
C819 C 0.72579 0.50157 0.39044 0.0
C820 C 0.72187 0.50058 0.37099 0.0
C821 C 0.74071 0.49175 0.3979 0.0
H822 H 0.75522 0.47257 0.35629 0.0
H823 H 0.7103 0.50801 0.3653 0.0
C824 C 0.71689 0.49268 0.26943 0.0
N825 N 0.71584 0.51345 0.2365 0.0
C826 C 0.70151 0.49212 0.25759 0.0
C827 C 0.73177 0.50376 0.26449 0.0
C828 C 0.70123 0.50274 0.24101 0.0
C829 C 0.73097 0.51416 0.24779 0.0
C830 C 0.73609 0.44595 0.31702 0.0
C831 C 0.73174 0.43922 0.29891 0.0
C832 C 0.74569 0.43488 0.32983 0.0
C833 C 0.73707 0.4215 0.29392 0.0
C834 C 0.75077 0.41722 0.3243 0.0
N835 N 0.7464 0.41095 0.30661 0.0
C836 C 0.77705 0.47239 0.2983 0.0
C837 C 0.75899 0.46508 0.27124 0.0
C838 C 0.79238 0.46417 0.29 0.0
N839 N 0.76077 0.47249 0.28892 0.0
C840 C 0.77392 0.45672 0.26243 0.0
C841 C 0.79082 0.45589 0.27196 0.0
H842 H 0.77794 0.47813 0.3125 0.0
H843 H 0.7458 0.46508 0.26424 0.0
C844 C 0.67517 0.45821 0.29463 0.0
N845 N 0.68914 0.45384 0.30658 0.0
C846 C 0.66118 0.44564 0.29107 0.0
C847 C 0.67583 0.42456 0.31283 0.0
C848 C 0.68952 0.43755 0.31596 0.0
C849 C 0.66152 0.42844 0.30004 0.0
H850 H 0.67495 0.47147 0.28781 0.0
H851 H 0.70047 0.43458 0.32585 0.0
O852 O 0.74122 0.50431 0.31577 0.0
O853 O 0.70058 0.49274 0.32576 0.0
O854 O 0.71722 0.48291 0.28609 0.0
O855 O 0.73134 0.46339 0.32217 0.0
H856 H 0.71602 0.52398 0.33402 0.0
H857 H 0.77297 0.52128 0.31842 0.0
H858 H 0.72213 0.55318 0.35082 0.0
H859 H 0.77808 0.55066 0.33547 0.0
H860 H 0.68397 0.45279 0.37252 0.0
H861 H 0.66943 0.50839 0.33543 0.0
H862 H 0.70556 0.46329 0.34758 0.0
H863 H 0.64844 0.49709 0.3607 0.0
H864 H 0.71419 0.56734 0.27857 0.0
H865 H 0.66317 0.53748 0.28168 0.0
H866 H 0.76327 0.47372 0.39043 0.0
H867 H 0.71696 0.50962 0.39959 0.0
H868 H 0.68987 0.48365 0.26114 0.0
H869 H 0.74369 0.50455 0.27362 0.0
H870 H 0.68939 0.50249 0.23174 0.0
H871 H 0.74234 0.52286 0.24386 0.0
H872 H 0.72432 0.44757 0.28878 0.0
H873 H 0.7492 0.43989 0.34389 0.0
H874 H 0.7338 0.41613 0.27994 0.0
H875 H 0.75821 0.4085 0.33407 0.0
H876 H 0.80509 0.46363 0.29794 0.0
H877 H 0.77216 0.45068 0.24844 0.0
H878 H 0.65047 0.4492 0.28106 0.0
H879 H 0.67642 0.41163 0.32036 0.0
Li880 Li 0.0081 0.72174 0.83338 0.0
Li881 Li 0.98961 0.71481 0.80527 0.0
Li882 Li 0.02231 0.70406 0.80803 0.0
Li883 Li 0.0154 0.73637 0.80155 0.0
C884 C 0.99608 0.6871 0.83937 0.0
N885 N 0.98671 0.6672 0.87147 0.0
C886 C 0.97768 0.68408 0.84385 0.0
C887 C 0.00971 0.6797 0.85105 0.0
C888 C 0.97322 0.67406 0.86017 0.0
C889 C 0.0047 0.66977 0.86726 0.0
C890 C 0.97784 0.7498 0.81637 0.0
C891 C 0.95882 0.7707 0.79857 0.0
N892 N 0.94704 0.77162 0.81356 0.0
C893 C 0.9657 0.7512 0.83171 0.0
C894 C 0.97451 0.75984 0.79976 0.0
C895 C 0.95015 0.7622 0.82997 0.0
C896 C 0.02263 0.73167 0.86923 0.0
N897 N 0.0073 0.72558 0.86026 0.0
C898 C 0.99101 0.72473 0.88982 0.0
C899 C 0.9916 0.72227 0.87009 0.0
C900 C 0.00673 0.73074 0.89953 0.0
C901 C 0.02268 0.73429 0.88895 0.0
H902 H 0.03483 0.73459 0.86107 0.0
H903 H 0.97951 0.71767 0.86261 0.0
C904 C 0.96497 0.69791 0.78007 0.0
N905 N 0.96591 0.70777 0.7965 0.0
C906 C 0.94833 0.69061 0.77397 0.0
C907 C 0.93385 0.70352 0.80189 0.0
C908 C 0.95075 0.71084 0.8073 0.0
C909 C 0.93259 0.69309 0.78514 0.0
H910 H 0.97729 0.6951 0.77206 0.0
H911 H 0.95191 0.71815 0.82062 0.0
C912 C 0.0505 0.72253 0.82388 0.0
N913 N 0.08724 0.71483 0.82894 0.0
C914 C 0.06371 0.73148 0.81287 0.0
C915 C 0.05603 0.70993 0.83773 0.0
C916 C 0.0822 0.72733 0.81557 0.0
C917 C 0.07465 0.70615 0.84001 0.0
C918 C 0.00822 0.71869 0.76669 0.0
C919 C 0.02142 0.71209 0.75399 0.0
C920 C 0.99366 0.72917 0.75978 0.0
C921 C 0.02005 0.71648 0.73464 0.0
C922 C 0.99275 0.73323 0.74034 0.0
N923 N 0.00587 0.72689 0.72828 0.0
C924 C 0.03651 0.66764 0.80736 0.0
C925 C 0.05375 0.68996 0.79066 0.0
C926 C 0.04897 0.65399 0.80217 0.0
N927 N 0.03917 0.68522 0.80162 0.0
C928 C 0.06655 0.67682 0.78522 0.0
C929 C 0.06422 0.65851 0.79087 0.0
H930 H 0.0246 0.66417 0.81577 0.0
H931 H 0.05538 0.70398 0.78605 0.0
C932 C 0.0207 0.77456 0.79514 0.0
N933 N 0.02479 0.75742 0.78888 0.0
C934 C 0.02914 0.78982 0.7869 0.0
C935 C 0.04569 0.76946 0.76589 0.0
C936 C 0.0369 0.75467 0.77445 0.0
C937 C 0.04208 0.78731 0.7723 0.0
H938 H 0.01131 0.77634 0.80693 0.0
H939 H 0.04038 0.74091 0.77017 0.0
O940 O 0.00071 0.69705 0.82353 0.0
O941 O 0.9932 0.73915 0.8179 0.0
O942 O 0.03228 0.7262 0.82123 0.0
O943 O 0.00942 0.7146 0.78571 0.0
H944 H 0.96694 0.68948 0.8349 0.0
H945 H 0.02399 0.68151 0.8476 0.0
H946 H 0.95903 0.67174 0.86387 0.0
H947 H 0.01513 0.66406 0.87647 0.0
H948 H 0.95605 0.77848 0.78576 0.0
H949 H 0.96818 0.74377 0.84479 0.0
H950 H 0.98404 0.75945 0.78799 0.0
H951 H 0.94056 0.76326 0.84168 0.0
H952 H 0.97846 0.72171 0.89742 0.0
H953 H 0.035 0.73928 0.8958 0.0
H954 H 0.94797 0.68229 0.76118 0.0
H955 H 0.92202 0.70557 0.81095 0.0
H956 H 0.05976 0.74148 0.8023 0.0
H957 H 0.04608 0.7032 0.84668 0.0
H958 H 0.09254 0.73406 0.80703 0.0
H959 H 0.07909 0.69633 0.8506 0.0
H960 H 0.03266 0.70376 0.75901 0.0
H961 H 0.98301 0.73386 0.76927 0.0
H962 H 0.03024 0.71157 0.72468 0.0
H963 H 0.98155 0.74136 0.73482 0.0
H964 H 0.04648 0.64001 0.80662 0.0
H965 H 0.07821 0.68102 0.77674 0.0
H966 H 0.02616 0.80334 0.79243 0.0
H967 H 0.05551 0.76693 0.75462 0.0
Li968 Li 0.77176 0.0086 0.33221 0.0
Li969 Li 0.78104 0.99281 0.30409 0.0
Li970 Li 0.78959 0.02466 0.30787 0.0
Li971 Li 0.75705 0.01534 0.29985 0.0
C972 C 0.80741 0.00112 0.33952 0.0
N973 N 0.82798 0.99584 0.37215 0.0
C974 C 0.81131 0.98339 0.34586 0.0
C975 C 0.81419 0.01615 0.34964 0.0
C976 C 0.82167 0.98101 0.36242 0.0
C977 C 0.82449 0.0132 0.36614 0.0
C978 C 0.75004 0.97516 0.31422 0.0
C979 C 0.72979 0.95267 0.30049 0.0
N980 N 0.73793 0.93945 0.31121 0.0
C981 C 0.75815 0.96139 0.32519 0.0
C982 C 0.73571 0.97082 0.30181 0.0
C983 C 0.75186 0.9434 0.32342 0.0
C984 C 0.75855 0.0221 0.36733 0.0
N985 N 0.76686 0.00751 0.35896 0.0
C986 C 0.7689 0.99213 0.38899 0.0
C987 C 0.77168 0.99252 0.3693 0.0
C988 C 0.76076 0.0072 0.39813 0.0
C989 C 0.75537 0.02225 0.38696 0.0
H990 H 0.75435 0.03364 0.35877 0.0
H991 H 0.77784 0.98089 0.36234 0.0
C992 C 0.8093 0.96858 0.29667 0.0
N993 N 0.79096 0.97042 0.29413 0.0
C994 C 0.81846 0.95329 0.28965 0.0
C995 C 0.7898 0.94205 0.27707 0.0
C996 C 0.78119 0.95773 0.2842 0.0
C997 C 0.8087 0.93962 0.27988 0.0
H998 H 0.81692 0.97921 0.30385 0.0
H999 H 0.76679 0.95982 0.28156 0.0
C1000 C 0.76673 0.05093 0.3236 0.0
N1001 N 0.76819 0.08817 0.33044 0.0
C1002 C 0.75606 0.06296 0.31278 0.0
C1003 C 0.77796 0.05783 0.33806 0.0
C1004 C 0.75704 0.08174 0.31642 0.0
C1005 C 0.77856 0.0767 0.34125 0.0
C1006 C 0.78538 0.00399 0.2688 0.0
C1007 C 0.80405 0.00337 0.26451 0.0
C1008 C 0.77283 0.99494 0.25707 0.0
C1009 C 0.8099 0.99348 0.24858 0.0
C1010 C 0.77924 0.98523 0.24125 0.0
N1011 N 0.79748 0.98468 0.23739 0.0
C1012 C 0.82564 0.03851 0.30529 0.0
C1013 C 0.80252 0.05868 0.29435 0.0
C1014 C 0.83925 0.05099 0.30009 0.0
N1015 N 0.8077 0.04258 0.30241 0.0
C1016 C 0.81562 0.07167 0.28923 0.0
C1017 C 0.83433 0.06785 0.29185 0.0
H1018 H 0.82941 0.02535 0.31117 0.0
H1019 H 0.78824 0.06133 0.29156 0.0
C1020 C 0.71902 0.02202 0.29415 0.0
N1021 N 0.73611 0.02367 0.28668 0.0
C1022 C 0.70415 0.03047 0.28517 0.0
C1023 C 0.72481 0.04177 0.26091 0.0
C1024 C 0.7392 0.03302 0.27025 0.0
C1025 C 0.70707 0.04084 0.26856 0.0
H1026 H 0.71706 0.01468 0.3074 0.0
H1027 H 0.753 0.03425 0.26479 0.0
O1028 O 0.79724 0.00371 0.32335 0.0
O1029 O 0.75588 0.99286 0.31582 0.0
O1030 O 0.76602 0.0325 0.32016 0.0
O1031 O 0.77944 0.01309 0.28465 0.0
H1032 H 0.80615 0.97159 0.33823 0.0
H1033 H 0.8116 0.02993 0.34475 0.0
H1034 H 0.82466 0.96738 0.36757 0.0
H1035 H 0.82977 0.02472 0.37414 0.0
H1036 H 0.71874 0.94908 0.2909 0.0
H1037 H 0.76935 0.96451 0.33472 0.0
H1038 H 0.72929 0.98134 0.29325 0.0
H1039 H 0.75809 0.93258 0.33171 0.0
H1040 H 0.77339 0.98027 0.39699 0.0
H1041 H 0.74865 0.03398 0.39328 0.0
H1042 H 0.83314 0.9524 0.29159 0.0
H1043 H 0.78172 0.93195 0.26952 0.0
H1044 H 0.74719 0.05788 0.30163 0.0
H1045 H 0.78604 0.04871 0.34679 0.0
H1046 H 0.74894 0.09121 0.30808 0.0
H1047 H 0.78724 0.08222 0.35236 0.0
H1048 H 0.81391 0.01026 0.27353 0.0
H1049 H 0.75834 0.99523 0.2603 0.0
H1050 H 0.82432 0.99274 0.24515 0.0
H1051 H 0.76971 0.97805 0.2321 0.0
H1052 H 0.85346 0.04723 0.30202 0.0
H1053 H 0.81107 0.08452 0.28316 0.0
H1054 H 0.69069 0.02958 0.29159 0.0
H1055 H 0.72759 0.04949 0.24804 0.0
Li1056 Li 0.4825 0.73986 0.19716 0.0
Li1057 Li 0.47061 0.70839 0.19353 0.0
Li1058 Li 0.50272 0.71488 0.19395 0.0
Li1059 Li 0.48592 0.72474 0.16681 0.0
C1060 C 0.49597 0.71639 0.23009 0.0
N1061 N 0.5201 0.71051 0.25981 0.0
C1062 C 0.49537 0.70002 0.24037 0.0
C1063 C 0.50876 0.72984 0.235 0.0
C1064 C 0.50771 0.69729 0.25533 0.0
C1065 C 0.52085 0.7266 0.25006 0.0
C1066 C 0.44798 0.74149 0.18435 0.0
C1067 C 0.42638 0.76535 0.17668 0.0
N1068 N 0.41948 0.76432 0.19467 0.0
C1069 C 0.44058 0.74056 0.20272 0.0
C1070 C 0.44077 0.75391 0.17117 0.0
C1071 C 0.42621 0.75226 0.20767 0.0
C1072 C 0.47369 0.77714 0.19614 0.0
N1073 N 0.47679 0.76292 0.20822 0.0
C1074 C 0.46577 0.78033 0.23467 0.0
C1075 C 0.47332 0.76429 0.22722 0.0
C1076 C 0.46142 0.79482 0.22233 0.0
C1077 C 0.46578 0.79327 0.20291 0.0
H1078 H 0.47635 0.77551 0.18105 0.0
H1079 H 0.47549 0.75261 0.23641 0.0
C1080 C 0.45847 0.67465 0.20733 0.0
N1081 N 0.45252 0.69069 0.19971 0.0
C1082 C 0.44605 0.6607 0.21155 0.0
C1083 C 0.42163 0.67995 0.19973 0.0
C1084 C 0.43454 0.69348 0.19565 0.0
C1085 C 0.42731 0.66327 0.20781 0.0
H1086 H 0.47293 0.6726 0.20982 0.0
H1087 H 0.43022 0.70611 0.18904 0.0
C1088 C 0.52022 0.73987 0.17024 0.0
N1089 N 0.55148 0.74175 0.14813 0.0
C1090 C 0.52672 0.72426 0.16089 0.0
C1091 C 0.52962 0.75643 0.16833 0.0
C1092 C 0.54255 0.72549 0.14979 0.0
C1093 C 0.5454 0.75711 0.1571 0.0
C1094 C 0.48177 0.68659 0.16378 0.0
C1095 C 0.49054 0.66995 0.16017 0.0
C1096 C 0.46492 0.69032 0.15512 0.0
C1097 C 0.48234 0.65731 0.1479 0.0
C1098 C 0.45717 0.67732 0.14294 0.0
N1099 N 0.46596 0.66122 0.13961 0.0
C1100 C 0.52375 0.6852 0.20414 0.0
C1101 C 0.54087 0.71277 0.2052 0.0
C1102 C 0.53903 0.6751 0.20956 0.0
N1103 N 0.52494 0.70362 0.20195 0.0
C1104 C 0.5566 0.70316 0.21063 0.0
C1105 C 0.55581 0.68402 0.21269 0.0
H1106 H 0.51082 0.67837 0.20171 0.0
H1107 H 0.54138 0.72748 0.20349 0.0
C1108 C 0.48108 0.74528 0.13333 0.0
N1109 N 0.48663 0.72869 0.13993 0.0
C1110 C 0.48163 0.74913 0.11382 0.0
C1111 C 0.49392 0.71887 0.10832 0.0
C1112 C 0.49324 0.71566 0.12791 0.0
C1113 C 0.48805 0.73579 0.101 0.0
H1114 H 0.47646 0.7556 0.14327 0.0
H1115 H 0.49816 0.70279 0.13348 0.0
O1116 O 0.48438 0.71914 0.21505 0.0
O1117 O 0.46259 0.7307 0.17953 0.0
O1118 O 0.50468 0.73916 0.18114 0.0
O1119 O 0.48962 0.69895 0.17597 0.0
H1120 H 0.48554 0.68949 0.23679 0.0
H1121 H 0.50951 0.74252 0.22705 0.0
H1122 H 0.50746 0.68464 0.26336 0.0
H1123 H 0.53091 0.73682 0.25393 0.0
H1124 H 0.42073 0.77509 0.16666 0.0
H1125 H 0.4461 0.73112 0.21314 0.0
H1126 H 0.44627 0.75477 0.15689 0.0
H1127 H 0.42048 0.7518 0.22189 0.0
H1128 H 0.46235 0.781 0.24969 0.0
H1129 H 0.46256 0.80419 0.19301 0.0
H1130 H 0.45112 0.64794 0.21737 0.0
H1131 H 0.40734 0.6826 0.1967 0.0
H1132 H 0.51971 0.7113 0.16218 0.0
H1133 H 0.52474 0.76865 0.17545 0.0
H1134 H 0.54773 0.71352 0.14248 0.0
H1135 H 0.55281 0.76984 0.1555 0.0
H1136 H 0.50357 0.66684 0.16679 0.0
H1137 H 0.45788 0.70309 0.1577 0.0
H1138 H 0.48899 0.64438 0.14497 0.0
H1139 H 0.44415 0.68002 0.13614 0.0
H1140 H 0.53766 0.66044 0.21143 0.0
H1141 H 0.56926 0.71056 0.21287 0.0
H1142 H 0.47735 0.76251 0.10889 0.0
H1143 H 0.49887 0.70813 0.09901 0.0
Li1144 Li 0.75605 0.48146 0.69884 0.0
Li1145 Li 0.78893 0.47298 0.69391 0.0
Li1146 Li 0.77983 0.50496 0.69685 0.0
Li1147 Li 0.77303 0.48823 0.66805 0.0
C1148 C 0.78328 0.49282 0.73245 0.0
N1149 N 0.79652 0.51027 0.76458 0.0
C1150 C 0.80062 0.48846 0.73955 0.0
C1151 C 0.7726 0.50594 0.74178 0.0
C1152 C 0.80708 0.49745 0.75581 0.0
C1153 C 0.77957 0.51466 0.75797 0.0
C1154 C 0.76993 0.44591 0.67769 0.0
C1155 C 0.78617 0.42077 0.66318 0.0
N1156 N 0.77682 0.40885 0.67446 0.0
C1157 C 0.76041 0.43342 0.68908 0.0
C1158 C 0.78285 0.43955 0.66456 0.0
C1159 C 0.76411 0.41473 0.68724 0.0
C1160 C 0.72133 0.46495 0.69797 0.0
N1161 N 0.73376 0.47312 0.7096 0.0
C1162 C 0.71567 0.46616 0.73703 0.0
C1163 C 0.73119 0.47401 0.72876 0.0
C1164 C 0.70285 0.45699 0.7255 0.0
C1165 C 0.70574 0.45669 0.70565 0.0
H1166 H 0.72391 0.46424 0.68279 0.0
H1167 H 0.74139 0.48045 0.73768 0.0
C1168 C 0.82444 0.45733 0.69405 0.0
N1169 N 0.80693 0.45521 0.70024 0.0
C1170 C 0.83768 0.44419 0.69842 0.0
C1171 C 0.8146 0.427 0.71548 0.0
C1172 C 0.80192 0.44064 0.71112 0.0
C1173 C 0.83271 0.4287 0.70905 0.0
H1174 H 0.82813 0.46924 0.68575 0.0
H1175 H 0.78804 0.4396 0.71634 0.0
C1176 C 0.74567 0.5194 0.68516 0.0
N1177 N 0.72439 0.55039 0.68945 0.0
C1178 C 0.74591 0.53307 0.67121 0.0
C1179 C 0.73449 0.5214 0.7012 0.0
C1180 C 0.73509 0.54866 0.67367 0.0
C1181 C 0.72386 0.53719 0.70313 0.0
C1182 C 0.80742 0.49997 0.66371 0.0
C1183 C 0.81021 0.51871 0.66087 0.0
C1184 C 0.81476 0.48739 0.65078 0.0
C1185 C 0.82019 0.52456 0.645 0.0
C1186 C 0.82462 0.4938 0.63506 0.0
N1187 N 0.82711 0.5121 0.63252 0.0
C1188 C 0.80687 0.52644 0.71244 0.0
C1189 C 0.77942 0.54345 0.70912 0.0
C1190 C 0.81566 0.54143 0.72063 0.0
N1191 N 0.78902 0.52759 0.70704 0.0
C1192 C 0.78784 0.55895 0.71688 0.0
C1193 C 0.80612 0.55793 0.72286 0.0
H1194 H 0.81425 0.51375 0.71045 0.0
H1195 H 0.76528 0.5442 0.70491 0.0
C1196 C 0.76394 0.47442 0.6317 0.0
N1197 N 0.77009 0.48951 0.64106 0.0
C1198 C 0.76183 0.47469 0.61191 0.0
C1199 C 0.7722 0.50611 0.61176 0.0
C1200 C 0.77393 0.50527 0.63157 0.0
C1201 C 0.76611 0.49065 0.60162 0.0
H1202 H 0.76054 0.46219 0.6396 0.0
H1203 H 0.77845 0.5172 0.63935 0.0
O1204 O 0.77693 0.4845 0.71628 0.0
O1205 O 0.76672 0.46429 0.67948 0.0
O1206 O 0.756 0.50396 0.68287 0.0
O1207 O 0.7976 0.49396 0.6791 0.0
H1208 H 0.80908 0.47837 0.73249 0.0
H1209 H 0.75922 0.5096 0.73638 0.0
H1210 H 0.82051 0.49429 0.76141 0.0
H1211 H 0.77153 0.52496 0.76523 0.0
H1212 H 0.79621 0.41567 0.65315 0.0
H1213 H 0.75045 0.43809 0.6994 0.0
H1214 H 0.7903 0.44904 0.65563 0.0
H1215 H 0.75692 0.40491 0.69604 0.0
H1216 H 0.71392 0.46705 0.75234 0.0
H1217 H 0.69646 0.44954 0.69618 0.0
H1218 H 0.85157 0.44595 0.6933 0.0
H1219 H 0.81038 0.41537 0.724 0.0
H1220 H 0.75441 0.53169 0.65867 0.0
H1221 H 0.73408 0.51094 0.71209 0.0
H1222 H 0.73519 0.55939 0.66304 0.0
H1223 H 0.7152 0.53896 0.71551 0.0
H1224 H 0.80455 0.52865 0.67066 0.0
H1225 H 0.81279 0.47285 0.6528 0.0
H1226 H 0.82238 0.53902 0.64257 0.0
H1227 H 0.8303 0.48423 0.62489 0.0
H1228 H 0.82986 0.54023 0.72491 0.0
H1229 H 0.78009 0.5715 0.71845 0.0
H1230 H 0.75667 0.46258 0.60481 0.0
H1231 H 0.77582 0.51867 0.60448 0.0
Li1232 Li 0.02477 0.78915 0.19406 0.0
Li1233 Li 0.01625 0.75843 0.20088 0.0
Li1234 Li 0.0106 0.76973 0.16843 0.0
Li1235 Li 0.99253 0.77991 0.19668 0.0
C1236 C 0.04945 0.75632 0.18552 0.0
N1237 N 0.07865 0.73378 0.19441 0.0
C1238 C 0.06316 0.76238 0.19794 0.0
C1239 C 0.05064 0.73879 0.17761 0.0
C1240 C 0.07782 0.7508 0.20222 0.0
C1241 C 0.06548 0.72759 0.18231 0.0
C1242 C 0.01546 0.77537 0.23482 0.0
C1243 C 0.00882 0.75749 0.26291 0.0
N1244 N 0.02386 0.76463 0.27159 0.0
C1245 C 0.03083 0.78258 0.24405 0.0
C1246 C 0.00431 0.76278 0.24435 0.0
C1247 C 0.03485 0.77697 0.26263 0.0
C1248 C 0.03636 0.82205 0.2111 0.0
N1249 N 0.04115 0.809 0.19825 0.0
C1250 C 0.06943 0.82424 0.19192 0.0
C1251 C 0.05713 0.81002 0.18838 0.0
C1252 C 0.06509 0.83778 0.20547 0.0
C1253 C 0.0481 0.83668 0.21487 0.0
H1254 H 0.0234 0.82102 0.21851 0.0
H1255 H 0.06044 0.79958 0.17799 0.0
C1256 C 0.01571 0.72045 0.2094 0.0
N1257 N 0.02375 0.73663 0.21411 0.0
C1258 C 0.02199 0.70406 0.21739 0.0
C1259 C 0.04439 0.72136 0.23524 0.0
C1260 C 0.03779 0.73732 0.22684 0.0
C1261 C 0.03662 0.70442 0.2304 0.0
H1262 H 0.00473 0.72021 0.19906 0.0
H1263 H 0.04432 0.75019 0.23005 0.0
C1264 C 0.00668 0.81301 0.17305 0.0
N1265 N 0.01381 0.84977 0.16753 0.0
C1266 C 0.99771 0.82616 0.18411 0.0
C1267 C 0.01927 0.81854 0.15919 0.0
C1268 C 0.00149 0.84469 0.18108 0.0
C1269 C 0.0227 0.83719 0.15662 0.0
C1270 C 0.97608 0.7509 0.18408 0.0
C1271 C 0.96626 0.75443 0.16738 0.0
C1272 C 0.96707 0.74379 0.20002 0.0
C1273 C 0.94746 0.75091 0.16697 0.0
C1274 C 0.94826 0.74048 0.19904 0.0
N1275 N 0.93892 0.74409 0.18268 0.0
C1276 C 0.01418 0.74813 0.13507 0.0
C1277 C 0.00359 0.77841 0.12999 0.0
C1278 C 0.01358 0.74456 0.1155 0.0
N1279 N 0.00948 0.76491 0.14184 0.0
C1280 C 0.00268 0.77541 0.11034 0.0
C1281 C 0.00785 0.75834 0.10286 0.0
H1282 H 0.01827 0.73748 0.14485 0.0
H1283 H -0.00043 0.79151 0.13578 0.0
C1284 C 0.96455 0.78939 0.22275 0.0
N1285 N 0.96905 0.7887 0.20397 0.0
C1286 C 0.94847 0.79804 0.22855 0.0
C1287 C 0.94167 0.80466 0.19552 0.0
C1288 C 0.95788 0.7958 0.19035 0.0
C1289 C 0.93703 0.80627 0.2149 0.0
H1290 H 0.97375 0.78385 0.2333 0.0
H1291 H 0.96197 0.79528 0.17553 0.0
O1292 O 0.03483 0.76737 0.18136 0.0
O1293 O 0.01128 0.78078 0.21665 0.0
O1294 O 0.00358 0.79479 0.17618 0.0
O1295 O 0.99439 0.75469 0.18494 0.0
H1296 H 0.0623 0.7757 0.2046 0.0
H1297 H 0.04008 0.73374 0.16821 0.0
H1298 H 0.08844 0.75528 0.21191 0.0
H1299 H 0.06648 0.71394 0.1764 0.0
H1300 H 0.00038 0.74766 0.2704 0.0
H1301 H 0.03968 0.79225 0.23688 0.0
H1302 H 0.99246 0.75694 0.23738 0.0
H1303 H 0.04674 0.78237 0.26991 0.0
H1304 H 0.08239 0.82432 0.18444 0.0
H1305 H 0.0439 0.84697 0.22508 0.0
H1306 H 0.01563 0.69126 0.21328 0.0
H1307 H 0.05597 0.72224 0.24485 0.0
H1308 H 0.98812 0.82212 0.19508 0.0
H1309 H 0.02653 0.8085 0.1507 0.0
H1310 H 0.99471 0.85502 0.18958 0.0
H1311 H 0.03248 0.84167 0.14602 0.0
H1312 H 0.97302 0.76 0.15495 0.0
H1313 H 0.97452 0.74095 0.21303 0.0
H1314 H 0.93964 0.75367 0.15418 0.0
H1315 H 0.94107 0.73506 0.2113 0.0
H1316 H 0.01734 0.73109 0.11035 0.0
H1317 H 0.99825 0.78643 0.1011 0.0
H1318 H 0.94531 0.79875 0.24362 0.0
H1319 H 0.93339 0.81099 0.18453 0.0
Li1320 Li 0.70883 0.0232 0.69398 0.0
Li1321 Li 0.74166 0.0134 0.69988 0.0
Li1322 Li 0.72604 0.00818 0.66772 0.0
Li1323 Li 0.71717 0.99198 0.69577 0.0
C1324 C 0.73625 0.04948 0.67892 0.0
N1325 N 0.74614 0.08581 0.67473 0.0
C1326 C 0.74385 0.0591 0.69424 0.0
C1327 C 0.73384 0.05833 0.6614 0.0
C1328 C 0.74871 0.07745 0.69186 0.0
C1329 C 0.73887 0.0767 0.65959 0.0
C1330 C 0.71271 0.001 0.73115 0.0
C1331 C 0.71633 0.97898 0.75651 0.0
N1332 N 0.69808 0.98003 0.76019 0.0
C1333 C 0.694 0.00193 0.73523 0.0
C1334 C 0.724 0.98949 0.74189 0.0
C1335 C 0.68686 0.99119 0.74995 0.0
C1336 C 0.67276 0.03755 0.69818 0.0
N1337 N 0.69089 0.04132 0.70038 0.0
C1338 C 0.68386 0.07092 0.71291 0.0
C1339 C 0.69655 0.05752 0.70785 0.0
C1340 C 0.66506 0.06754 0.71053 0.0
C1341 C 0.65956 0.05057 0.70305 0.0
H1342 H 0.6685 0.02432 0.6929 0.0
H1343 H 0.71091 0.05998 0.71018 0.0
C1344 C 0.77755 0.02677 0.69942 0.0
N1345 N 0.76407 0.02072 0.71118 0.0
C1346 C 0.79336 0.03471 0.70699 0.0
C1347 C 0.78146 0.02923 0.73865 0.0
C1348 C 0.76576 0.02164 0.73045 0.0
C1349 C 0.79539 0.03628 0.72688 0.0
H1350 H 0.77564 0.02615 0.68413 0.0
H1351 H 0.75468 0.01705 0.73947 0.0
C1352 C 0.68862 0.0096 0.66326 0.0
N1353 N 0.66454 0.02248 0.63596 0.0
C1354 C 0.67445 0.99842 0.65661 0.0
C1355 C 0.69054 0.0273 0.65599 0.0
C1356 C 0.66241 0.00518 0.64281 0.0
C1357 C 0.67823 0.03358 0.64222 0.0
C1358 C 0.746 0.97377 0.67977 0.0
C1359 C 0.73524 0.96335 0.66737 0.0
C1360 C 0.76116 0.96584 0.68867 0.0
C1361 C 0.73977 0.94502 0.6642 0.0
C1362 C 0.76525 0.94747 0.6851 0.0
N1363 N 0.75455 0.93752 0.67305 0.0
C1364 C 0.7445 0.01747 0.63375 0.0
C1365 C 0.71952 0.99712 0.62967 0.0
C1366 C 0.74785 0.01748 0.61414 0.0
N1367 N 0.73041 0.00754 0.64104 0.0
C1368 C 0.72239 0.9967 0.61 0.0
C1369 C 0.73667 0.00702 0.60198 0.0
H1370 H 0.75311 0.02541 0.6432 0.0
H1371 H 0.70856 0.98915 0.63584 0.0
C1372 C 0.68923 0.96707 0.7021 0.0
N1373 N 0.70762 0.96892 0.7042 0.0
C1374 C 0.68047 0.95106 0.70783 0.0
C1375 C 0.7097 0.93902 0.71798 0.0
C1376 C 0.71791 0.95539 0.71214 0.0
C1377 C 0.69072 0.93667 0.71576 0.0
H1378 H 0.68129 0.97821 0.69623 0.0
H1379 H 0.73244 0.95734 0.71415 0.0
O1380 O 0.73181 0.03134 0.68083 0.0
O1381 O 0.71984 0.01103 0.71644 0.0
O1382 O 0.70064 0.00299 0.67658 0.0
O1383 O 0.74174 0.99168 0.68319 0.0
H1384 H 0.74574 0.05255 0.70793 0.0
H1385 H 0.72821 0.0511 0.64928 0.0
H1386 H 0.75451 0.08507 0.70364 0.0
H1387 H 0.73705 0.08371 0.64613 0.0
H1388 H 0.72487 0.9699 0.76483 0.0
H1389 H 0.68507 0.01069 0.72699 0.0
H1390 H 0.73845 0.98836 0.73871 0.0
H1391 H 0.67239 0.99169 0.7532 0.0
H1392 H 0.68874 0.08383 0.71857 0.0
H1393 H 0.6452 0.04723 0.70136 0.0
H1394 H 0.80348 0.04022 0.69729 0.0
H1395 H 0.78247 0.02985 0.75404 0.0
H1396 H 0.67283 0.98462 0.66197 0.0
H1397 H 0.70129 0.03617 0.66103 0.0
H1398 H 0.6514 0.99667 0.63753 0.0
H1399 H 0.67955 0.04728 0.63652 0.0
H1400 H 0.72337 0.96928 0.66052 0.0
H1401 H 0.76961 0.97378 0.6983 0.0
H1402 H 0.7315 0.93674 0.65473 0.0
H1403 H 0.77691 0.94111 0.69192 0.0
H1404 H 0.75918 0.02542 0.60859 0.0
H1405 H 0.71333 0.98858 0.60116 0.0
H1406 H 0.66574 0.95011 0.70634 0.0
H1407 H 0.71815 0.92832 0.72403 0.0
H1408 H 0.40202 0.20307 0.22944 0.0
H1409 H 0.37461 0.185 0.23757 0.0
H1410 H 0.40416 0.13524 0.22534 0.0
H1411 H 0.43147 0.15311 0.21755 0.0
H1412 H 0.36764 0.1376 0.20907 0.0
H1413 H 0.40085 0.14681 0.26901 0.0
H1414 H 0.41436 0.1662 0.29414 0.0
H1415 H 0.36199 0.1911 0.30425 0.0
H1416 H 0.34823 0.17201 0.27896 0.0
H1417 H 0.33171 0.06018 0.25241 0.0
H1418 H 0.34937 0.08611 0.24075 0.0
H1419 H 0.31379 0.12321 0.27114 0.0
H1420 H 0.29621 0.09702 0.2833 0.0
H1421 H 0.34763 0.13288 0.27653 0.0
H1422 H 0.31285 0.12002 0.22133 0.0
H1423 H 0.29855 0.10136 0.1961 0.0
H1424 H 0.35164 0.08502 0.17609 0.0
H1425 H 0.36628 0.10336 0.20137 0.0
C1426 C 0.40254 0.18828 0.22843 0.0
C1427 C 0.41881 0.17941 0.22305 0.0
C1428 C 0.38696 0.17802 0.23308 0.0
C1429 C 0.38744 0.15883 0.23204 0.0
C1430 C 0.40355 0.15004 0.22617 0.0
C1431 C 0.41914 0.16023 0.22187 0.0
C1432 C 0.3715 0.14758 0.23765 0.0
C1433 C 0.36319 0.13652 0.22379 0.0
C1434 C 0.3653 0.14679 0.25672 0.0
C1435 C 0.37358 0.15818 0.27194 0.0
C1436 C 0.39226 0.15655 0.27647 0.0
C1437 C 0.39995 0.16745 0.29076 0.0
C1438 C 0.38905 0.17992 0.30074 0.0
C1439 C 0.37043 0.18147 0.29648 0.0
C1440 C 0.36267 0.17061 0.28217 0.0
C1441 C 0.32743 0.07387 0.25635 0.0
C1442 C 0.31247 0.0766 0.2686 0.0
C1443 C 0.33752 0.08872 0.24963 0.0
C1444 C 0.33269 0.10668 0.2547 0.0
C1445 C 0.3177 0.10948 0.26692 0.0
C1446 C 0.30769 0.09455 0.27386 0.0
C1447 C 0.3441 0.12226 0.24804 0.0
C1448 C 0.35161 0.13419 0.26168 0.0
C1449 C 0.34938 0.12403 0.22868 0.0
C1450 C 0.34066 0.11303 0.21333 0.0
C1451 C 0.32148 0.11237 0.21162 0.0
C1452 C 0.31331 0.10185 0.1973 0.0
C1453 C 0.32418 0.09199 0.18451 0.0
C1454 C 0.34324 0.09267 0.186 0.0
C1455 C 0.35149 0.10315 0.20031 0.0
H1456 H 0.31783 0.08385 0.17344 0.0
H1457 H 0.39503 0.18835 0.31181 0.0
H1458 H 0.34228 0.42524 0.70222 0.0
H1459 H 0.35859 0.39781 0.71208 0.0
H1460 H 0.31293 0.38209 0.74754 0.0
H1461 H 0.29674 0.41015 0.73833 0.0
H1462 H 0.34403 0.37832 0.76645 0.0
H1463 H 0.32269 0.35856 0.70604 0.0
H1464 H 0.31636 0.3604 0.67156 0.0
H1465 H 0.37397 0.36384 0.65992 0.0
H1466 H 0.38066 0.36229 0.69436 0.0
H1467 H 0.39703 0.29752 0.78597 0.0
H1468 H 0.37132 0.31612 0.77457 0.0
H1469 H 0.40812 0.34675 0.73858 0.0
H1470 H 0.43382 0.3287 0.75015 0.0
H1471 H 0.37579 0.33783 0.72026 0.0
H1472 H 0.39574 0.36329 0.78112 0.0
H1473 H 0.40195 0.36166 0.81566 0.0
H1474 H 0.34593 0.34688 0.82613 0.0
H1475 H 0.33947 0.34818 0.79159 0.0
C1476 C 0.33569 0.41603 0.7122 0.0
C1477 C 0.31825 0.41998 0.71961 0.0
C1478 C 0.34494 0.40018 0.71761 0.0
C1479 C 0.33688 0.38772 0.73033 0.0
C1480 C 0.31936 0.39146 0.73761 0.0
C1481 C 0.31009 0.40743 0.73224 0.0
C1482 C 0.34739 0.37145 0.73675 0.0
C1483 C 0.35059 0.36917 0.75636 0.0
C1484 C 0.3561 0.35958 0.7236 0.0
C1485 C 0.35217 0.36039 0.70282 0.0
C1486 C 0.33401 0.35982 0.69615 0.0
C1487 C 0.33036 0.3608 0.6766 0.0
C1488 C 0.34475 0.36226 0.66356 0.0
C1489 C 0.36283 0.3627 0.67004 0.0
C1490 C 0.36657 0.36174 0.68957 0.0
C1491 C 0.39964 0.30822 0.77563 0.0
C1492 C 0.41753 0.31159 0.76899 0.0
C1493 C 0.38493 0.31876 0.76907 0.0
C1494 C 0.38785 0.33283 0.75578 0.0
C1495 C 0.40555 0.33585 0.74873 0.0
C1496 C 0.42024 0.32543 0.75532 0.0
C1497 C 0.37283 0.34519 0.74981 0.0
C1498 C 0.36882 0.34671 0.73031 0.0
C1499 C 0.36331 0.35629 0.76304 0.0
C1500 C 0.36718 0.3556 0.78378 0.0
C1501 C 0.38479 0.35955 0.79078 0.0
C1502 C 0.38835 0.35871 0.81035 0.0
C1503 C 0.37436 0.35411 0.82308 0.0
C1504 C 0.35676 0.3504 0.81625 0.0
C1505 C 0.35315 0.35118 0.79668 0.0
H1506 H 0.37713 0.35347 0.83823 0.0
H1507 H 0.34189 0.36302 0.64843 0.0
H1508 H 0.08131 0.29815 0.25512 0.0
H1509 H 0.10661 0.31623 0.26799 0.0
H1510 H 0.11426 0.34188 0.21324 0.0
H1511 H 0.08832 0.32486 0.20046 0.0
H1512 H 0.14851 0.33025 0.23613 0.0
H1513 H 0.09133 0.36515 0.23858 0.0
H1514 H 0.05883 0.36873 0.24735 0.0
H1515 H 0.07216 0.3595 0.30623 0.0
H1516 H 0.10473 0.35556 0.29773 0.0
H1517 H 0.19266 0.41495 0.25155 0.0
H1518 H 0.1744 0.38852 0.24225 0.0
H1519 H 0.15609 0.38213 0.30039 0.0
H1520 H 0.17335 0.4093 0.30957 0.0
H1521 H 0.12827 0.3808 0.27847 0.0
H1522 H 0.18574 0.3507 0.27786 0.0
H1523 H 0.21832 0.34572 0.27032 0.0
H1524 H 0.20564 0.34393 0.21055 0.0
H1525 H 0.17299 0.34916 0.2177 0.0
C1526 C 0.08831 0.30763 0.24575 0.0
C1527 C 0.08249 0.31017 0.22677 0.0
C1528 C 0.10292 0.31776 0.25311 0.0
C1529 C 0.11221 0.33033 0.24153 0.0
C1530 C 0.1073 0.33209 0.22232 0.0
C1531 C 0.09247 0.32224 0.21503 0.0
C1532 C 0.12561 0.34315 0.24994 0.0
C1533 C 0.1442 0.34139 0.24532 0.0
C1534 C 0.11991 0.35725 0.26236 0.0
C1535 C 0.1004 0.35983 0.26749 0.0
C1536 C 0.08729 0.36371 0.25337 0.0
C1537 C 0.06887 0.36583 0.25829 0.0
C1538 C 0.06342 0.36428 0.27732 0.0
C1539 C 0.0764 0.36065 0.29148 0.0
C1540 C 0.09484 0.35848 0.28662 0.0
C1541 C 0.18476 0.40794 0.26239 0.0
C1542 C 0.18438 0.41442 0.28129 0.0
C1543 C 0.17453 0.39261 0.25709 0.0
C1544 C 0.16396 0.38317 0.27064 0.0
C1545 C 0.16415 0.38915 0.28967 0.0
C1546 C 0.1742 0.40462 0.29494 0.0
C1547 C 0.15145 0.3682 0.26459 0.0
C1548 C 0.13287 0.36956 0.26957 0.0
C1549 C 0.15728 0.3536 0.25273 0.0
C1550 C 0.17691 0.35047 0.24832 0.0
C1551 C 0.18991 0.34939 0.26309 0.0
C1552 C 0.20839 0.3465 0.25889 0.0
C1553 C 0.21405 0.34455 0.23997 0.0
C1554 C 0.20123 0.34545 0.2252 0.0
C1555 C 0.18273 0.34836 0.22932 0.0
H1556 H 0.22837 0.34231 0.23674 0.0
H1557 H 0.04915 0.36594 0.28111 0.0
H1558 H 0.15361 0.06805 0.71501 0.0
H1559 H 0.13667 0.09585 0.72315 0.0
H1560 H 0.18749 0.12444 0.7329 0.0
H1561 H 0.20463 0.09653 0.72433 0.0
H1562 H 0.15836 0.12661 0.76336 0.0
H1563 H 0.1682 0.13769 0.69697 0.0
H1564 H 0.16904 0.12958 0.66285 0.0
H1565 H 0.11122 0.11898 0.6637 0.0
H1566 H 0.11008 0.12674 0.69792 0.0
H1567 H 0.09938 0.20303 0.78115 0.0
H1568 H 0.12548 0.18547 0.76886 0.0
H1569 H 0.08828 0.14978 0.73873 0.0
H1570 H 0.06237 0.16735 0.75064 0.0
H1571 H 0.11658 0.15662 0.71713 0.0
H1572 H 0.10737 0.13882 0.7831 0.0
H1573 H 0.10523 0.14426 0.81775 0.0
H1574 H 0.16024 0.16501 0.81823 0.0
H1575 H 0.16262 0.15989 0.7835 0.0
C1576 C 0.16116 0.08028 0.71886 0.0
C1577 C 0.18037 0.08022 0.71914 0.0
C1578 C 0.1515 0.09613 0.72341 0.0
C1579 C 0.16087 0.11215 0.72854 0.0
C1580 C 0.18008 0.11217 0.72892 0.0
C1581 C 0.18981 0.09633 0.72399 0.0
C1582 C 0.15022 0.12855 0.73393 0.0
C1583 C 0.14956 0.13358 0.75321 0.0
C1584 C 0.13852 0.13725 0.72069 0.0
C1585 C 0.13909 0.13271 0.70006 0.0
C1586 C 0.15569 0.1335 0.68993 0.0
C1587 C 0.15621 0.12899 0.67056 0.0
C1588 C 0.14019 0.12375 0.66112 0.0
C1589 C 0.12361 0.12305 0.67103 0.0
C1590 C 0.12302 0.12753 0.69041 0.0
C1591 C 0.09684 0.1915 0.7718 0.0
C1592 C 0.07885 0.18658 0.76682 0.0
C1593 C 0.11174 0.18148 0.76481 0.0
C1594 C 0.10884 0.16619 0.75301 0.0
C1595 C 0.09089 0.16158 0.7477 0.0
C1596 C 0.07607 0.17166 0.75451 0.0
C1597 C 0.12422 0.15434 0.74673 0.0
C1598 C 0.12573 0.1501 0.72725 0.0
C1599 C 0.1365 0.14615 0.75985 0.0
C1600 C 0.13509 0.14921 0.78069 0.0
C1601 C 0.11896 0.14468 0.79058 0.0
C1602 C 0.11771 0.14768 0.81023 0.0
C1603 C 0.13257 0.15504 0.82017 0.0
C1604 C 0.14873 0.15936 0.8105 0.0
C1605 C 0.15004 0.15641 0.79084 0.0
H1606 H 0.13158 0.15735 0.83539 0.0
H1607 H 0.14063 0.12026 0.64612 0.0
H1608 H 0.5654 0.8258 0.74783 0.0
H1609 H 0.59209 0.8429 0.73709 0.0
H1610 H 0.62201 0.82561 0.78694 0.0
H1611 H 0.59548 0.80785 0.79759 0.0
H1612 H 0.62262 0.86329 0.78116 0.0
H1613 H 0.63482 0.80919 0.74529 0.0
H1614 H 0.62765 0.78349 0.72376 0.0
H1615 H 0.61516 0.82131 0.67872 0.0
H1616 H 0.62199 0.84727 0.70006 0.0
H1617 H 0.69763 0.91584 0.74761 0.0
H1618 H 0.68059 0.88908 0.75878 0.0
H1619 H 0.64522 0.89263 0.70962 0.0
H1620 H 0.66276 0.91865 0.69786 0.0
H1621 H 0.65164 0.85816 0.7174 0.0
H1622 H 0.63375 0.91153 0.75385 0.0
H1623 H 0.63912 0.93804 0.77492 0.0
H1624 H 0.6604 0.90236 0.81827 0.0
H1625 H 0.65537 0.87565 0.79733 0.0
C1626 C 0.57777 0.82516 0.75631 0.0
C1627 C 0.57823 0.81539 0.77361 0.0
C1628 C 0.59302 0.83504 0.75016 0.0
C1629 C 0.60905 0.83543 0.76117 0.0
C1630 C 0.60974 0.82547 0.77825 0.0
C1631 C 0.59452 0.81542 0.78435 0.0
C1632 C 0.62448 0.84736 0.75539 0.0
C1633 C 0.62931 0.86193 0.76741 0.0
C1634 C 0.63286 0.84577 0.73728 0.0
C1635 C 0.62882 0.83019 0.72434 0.0
C1636 C 0.63041 0.81204 0.73084 0.0
C1637 C 0.62643 0.79742 0.71866 0.0
C1638 C 0.62093 0.80076 0.69989 0.0
C1639 C 0.61942 0.81874 0.69326 0.0
C1640 C 0.62338 0.83341 0.70539 0.0
C1641 C 0.68648 0.91069 0.73897 0.0
C1642 C 0.68141 0.91956 0.72195 0.0
C1643 C 0.67663 0.89549 0.74547 0.0
C1644 C 0.6614 0.88905 0.73523 0.0
C1645 C 0.65685 0.89739 0.71784 0.0
C1646 C 0.66677 0.91243 0.71124 0.0
C1647 C 0.64946 0.87437 0.74297 0.0
C1648 C 0.64526 0.8593 0.73132 0.0
C1649 C 0.64145 0.87561 0.76133 0.0
C1650 C 0.6444 0.89163 0.77395 0.0
C1651 C 0.6397 0.90936 0.76782 0.0
C1652 C 0.64266 0.92441 0.77975 0.0
C1653 C 0.65015 0.92189 0.7979 0.0
C1654 C 0.65464 0.90429 0.80419 0.0
C1655 C 0.65173 0.88919 0.7923 0.0
H1656 H 0.65243 0.93356 0.80711 0.0
H1657 H 0.61785 0.78942 0.69049 0.0
H1658 H 0.58221 0.69243 0.23924 0.0
H1659 H 0.60771 0.67301 0.24973 0.0
H1660 H 0.59173 0.63173 0.20901 0.0
H1661 H 0.5666 0.65109 0.1982 0.0
H1662 H 0.59516 0.61853 0.24584 0.0
H1663 H 0.6293 0.65607 0.20153 0.0
H1664 H 0.6409 0.68524 0.18858 0.0
H1665 H 0.66759 0.69677 0.24182 0.0
H1666 H 0.65592 0.66777 0.25518 0.0
H1667 H 0.66392 0.55339 0.24896 0.0
H1668 H 0.64453 0.57813 0.23707 0.0
H1669 H 0.6687 0.61531 0.27775 0.0
H1670 H 0.68849 0.59054 0.28948 0.0
H1671 H 0.66165 0.63241 0.24379 0.0
H1672 H 0.6288 0.59535 0.28813 0.0
H1673 H 0.61726 0.56659 0.30209 0.0
H1674 H 0.5876 0.55508 0.25058 0.0
H1675 H 0.5992 0.58364 0.23619 0.0
C1676 C 0.58436 0.67937 0.23227 0.0
C1677 C 0.57224 0.6732 0.21805 0.0
C1678 C 0.5989 0.66829 0.23831 0.0
C1679 C 0.60153 0.65092 0.23017 0.0
C1680 C 0.58983 0.64503 0.21556 0.0
C1681 C 0.57542 0.65608 0.20948 0.0
C1682 C 0.61562 0.63824 0.23763 0.0
C1683 C 0.60971 0.62149 0.2452 0.0
C1684 C 0.63453 0.64244 0.23747 0.0
C1685 C 0.64156 0.65985 0.22943 0.0
C1686 C 0.63749 0.66491 0.21054 0.0
C1687 C 0.64411 0.68139 0.20311 0.0
C1688 C 0.65492 0.69288 0.21439 0.0
C1689 C 0.65918 0.68788 0.23311 0.0
C1690 C 0.65258 0.67141 0.24061 0.0
C1691 C 0.66522 0.5669 0.25522 0.0
C1692 C 0.67747 0.57004 0.2703 0.0
C1693 C 0.65416 0.58101 0.24843 0.0
C1694 C 0.65489 0.59845 0.25682 0.0
C1695 C 0.66787 0.60192 0.27115 0.0
C1696 C 0.67913 0.5878 0.27783 0.0
C1697 C 0.64117 0.61249 0.25146 0.0
C1698 C 0.6471 0.62951 0.24448 0.0
C1699 C 0.62219 0.60867 0.25234 0.0
C1700 C 0.61499 0.59157 0.26103 0.0
C1701 C 0.61991 0.58663 0.27973 0.0
C1702 C 0.61335 0.57037 0.28773 0.0
C1703 C 0.60173 0.559 0.27722 0.0
C1704 C 0.59661 0.5639 0.2587 0.0
C1705 C 0.60317 0.58013 0.25062 0.0
H1706 H 0.59667 0.54641 0.28343 0.0
H1707 H 0.66004 0.70563 0.20861 0.0
H1708 H 0.91203 0.67165 0.80849 0.0
H1709 H 0.88677 0.65141 0.79933 0.0
H1710 H 0.88964 0.67164 0.74164 0.0
H1711 H 0.91514 0.69179 0.75066 0.0
H1712 H 0.85159 0.66477 0.75891 0.0
H1713 H 0.91103 0.63682 0.74651 0.0
H1714 H 0.9422 0.62761 0.75602 0.0
H1715 H 0.92007 0.59472 0.80126 0.0
H1716 H 0.88876 0.60402 0.7922 0.0
H1717 H 0.80988 0.59186 0.70725 0.0
H1718 H 0.82816 0.61737 0.71955 0.0
H1719 H 0.8412 0.58566 0.76975 0.0
H1720 H 0.82366 0.55988 0.75695 0.0
H1721 H 0.87047 0.59952 0.75744 0.0
H1722 H 0.8113 0.62457 0.76966 0.0
H1723 H 0.77968 0.63413 0.76244 0.0
H1724 H 0.79966 0.67233 0.7208 0.0
H1725 H 0.83141 0.66281 0.72758 0.0
C1726 C 0.90696 0.67213 0.79398 0.0
C1727 C 0.91553 0.68321 0.78025 0.0
C1728 C 0.89258 0.66056 0.78877 0.0
C1729 C 0.88643 0.66007 0.76983 0.0
C1730 C 0.89418 0.67194 0.75634 0.0
C1731 C 0.90877 0.68332 0.76147 0.0
C1732 C 0.87351 0.64567 0.76369 0.0
C1733 C 0.85565 0.6505 0.75838 0.0
C1734 C 0.8788 0.62708 0.76355 0.0
C1735 C 0.89759 0.62128 0.76882 0.0
C1736 C 0.91283 0.62776 0.75859 0.0
C1737 C 0.93052 0.6225 0.76388 0.0
C1738 C 0.93312 0.61063 0.77927 0.0
C1739 C 0.91804 0.60394 0.78936 0.0
C1740 C 0.90032 0.6092 0.78415 0.0
C1741 C 0.81647 0.59051 0.72102 0.0
C1742 C 0.81546 0.57399 0.73118 0.0
C1743 C 0.82683 0.60511 0.72811 0.0
C1744 C 0.83595 0.60357 0.74571 0.0
C1745 C 0.83438 0.5872 0.75612 0.0
C1746 C 0.82435 0.5725 0.74886 0.0
C1747 C 0.84821 0.61842 0.75263 0.0
C1748 C 0.86613 0.61371 0.75804 0.0
C1749 C 0.8428 0.63707 0.75312 0.0
C1750 C 0.82373 0.64285 0.74901 0.0
C1751 C 0.80895 0.6349 0.75886 0.0
C1752 C 0.791 0.64034 0.75486 0.0
C1753 C 0.78766 0.6538 0.74114 0.0
C1754 C 0.80227 0.66189 0.73141 0.0
C1755 C 0.82025 0.65649 0.73534 0.0
H1756 H 0.77376 0.65799 0.73807 0.0
H1757 H 0.94683 0.60657 0.78334 0.0
H1758 H 0.83656 0.92066 0.29683 0.0
H1759 H 0.8551 0.89626 0.28306 0.0
H1760 H 0.82127 0.89628 0.23271 0.0
H1761 H 0.80301 0.92141 0.24598 0.0
H1762 H 0.83365 0.8588 0.2511 0.0
H1763 H 0.85474 0.9158 0.22401 0.0
H1764 H 0.86399 0.94823 0.22567 0.0
H1765 H 0.90783 0.93424 0.26379 0.0
H1766 H 0.89861 0.90174 0.26262 0.0
H1767 H 0.90278 0.80871 0.19874 0.0
H1768 H 0.87797 0.82964 0.20773 0.0
H1769 H 0.91109 0.85069 0.25373 0.0
H1770 H 0.93599 0.83037 0.24454 0.0
H1771 H 0.89661 0.87783 0.23327 0.0
H1772 H 0.87542 0.82184 0.26212 0.0
H1773 H 0.86608 0.7894 0.26259 0.0
H1774 H 0.82281 0.80099 0.22292 0.0
H1775 H 0.83206 0.83349 0.22201 0.0
C1776 C 0.83303 0.91557 0.2828 0.0
C1777 C 0.81846 0.92326 0.27238 0.0
C1778 C 0.84353 0.90149 0.27506 0.0
C1779 C 0.83955 0.89461 0.25689 0.0
C1780 C 0.82445 0.90143 0.24681 0.0
C1781 C 0.81403 0.91575 0.25445 0.0
C1782 C 0.85228 0.88142 0.24801 0.0
C1783 C 0.8473 0.86293 0.24678 0.0
C1784 C 0.87015 0.88689 0.2428 0.0
C1785 C 0.87587 0.90638 0.24337 0.0
C1786 C 0.86624 0.91967 0.23289 0.0
C1787 C 0.87149 0.93805 0.23371 0.0
C1788 C 0.88646 0.9433 0.24487 0.0
C1789 C 0.89622 0.93016 0.25517 0.0
C1790 C 0.891 0.91175 0.25442 0.0
C1791 C 0.90474 0.8178 0.21078 0.0
C1792 C 0.92134 0.81781 0.22097 0.0
C1793 C 0.89051 0.82964 0.21597 0.0
C1794 C 0.89267 0.84166 0.23144 0.0
C1795 C 0.90913 0.84152 0.24175 0.0
C1796 C 0.92329 0.82973 0.23659 0.0
C1797 C 0.87819 0.85499 0.23663 0.0
C1798 C 0.88287 0.87361 0.23721 0.0
C1799 C 0.86012 0.84956 0.24132 0.0
C1800 C 0.85458 0.83004 0.24181 0.0
C1801 C 0.86402 0.81743 0.25335 0.0
C1802 C 0.85872 0.79905 0.25373 0.0
C1803 C 0.8439 0.79312 0.24274 0.0
C1804 C 0.83432 0.80559 0.23139 0.0
C1805 C 0.83958 0.824 0.23094 0.0
H1806 H 0.83982 0.77888 0.24306 0.0
H1807 H 0.89051 0.95754 0.24548 0.0
H1808 H 0.57728 0.2873 0.24392 0.0
H1809 H 0.5947 0.31213 0.25837 0.0
H1810 H 0.54718 0.3471 0.25589 0.0
H1811 H 0.52948 0.32214 0.24156 0.0
H1812 H 0.57758 0.36429 0.24281 0.0
H1813 H 0.56117 0.33034 0.29824 0.0
H1814 H 0.55758 0.30289 0.31835 0.0
H1815 H 0.61577 0.29459 0.31789 0.0
H1816 H 0.6197 0.32185 0.29753 0.0
H1817 H 0.62456 0.43348 0.29547 0.0
H1818 H 0.60167 0.41054 0.28655 0.0
H1819 H 0.64357 0.36893 0.28577 0.0
H1820 H 0.66651 0.39175 0.29454 0.0
H1821 H 0.61272 0.35669 0.30287 0.0
H1822 H 0.62856 0.38857 0.24473 0.0
H1823 H 0.63226 0.41578 0.22426 0.0
H1824 H 0.57496 0.4278 0.22982 0.0
H1825 H 0.57097 0.40078 0.25056 0.0
C1826 C 0.57039 0.30014 0.24674 0.0
C1827 C 0.55192 0.30267 0.2417 0.0
C1828 C 0.5804 0.31436 0.25497 0.0
C1829 C 0.57218 0.33139 0.25844 0.0
C1830 C 0.55377 0.33404 0.25338 0.0
C1831 C 0.54371 0.31979 0.24514 0.0
C1832 C 0.58312 0.34656 0.26667 0.0
C1833 C 0.58497 0.36279 0.25614 0.0
C1834 C 0.59299 0.34445 0.2839 0.0
C1835 C 0.59071 0.32808 0.29623 0.0
C1836 C 0.57319 0.32259 0.3023 0.0
C1837 C 0.5711 0.30707 0.31377 0.0
C1838 C 0.58644 0.29698 0.31937 0.0
C1839 C 0.60391 0.30241 0.31354 0.0
C1840 C 0.60608 0.31791 0.30205 0.0
C1841 C 0.6289 0.41945 0.29334 0.0
C1842 C 0.64737 0.41445 0.29564 0.0
C1843 C 0.6158 0.40636 0.2883 0.0
C1844 C 0.62096 0.38807 0.28532 0.0
C1845 C 0.63929 0.38296 0.28806 0.0
C1846 C 0.65237 0.39602 0.29312 0.0
C1847 C 0.60745 0.37425 0.27882 0.0
C1848 C 0.60512 0.35828 0.28968 0.0
C1849 C 0.59714 0.37659 0.26189 0.0
C1850 C 0.59951 0.39279 0.24937 0.0
C1851 C 0.61678 0.3971 0.24171 0.0
C1852 C 0.61892 0.41247 0.23004 0.0
C1853 C 0.60386 0.42354 0.22579 0.0
C1854 C 0.58662 0.41923 0.23316 0.0
C1855 C 0.58441 0.40389 0.24486 0.0
H1856 H 0.60555 0.43544 0.21675 0.0
H1857 H 0.58479 0.28497 0.32824 0.0
H1858 H 0.18664 0.53276 0.75585 0.0
H1859 H 0.16204 0.5515 0.76931 0.0
H1860 H 0.16391 0.58668 0.71992 0.0
H1861 H 0.18895 0.56865 0.70686 0.0
H1862 H 0.16328 0.6064 0.75117 0.0
H1863 H 0.12925 0.55477 0.7271 0.0
H1864 H 0.1213 0.52209 0.72395 0.0
H1865 H 0.10988 0.51923 0.78396 0.0
H1866 H 0.118 0.55185 0.78751 0.0
H1867 H 0.08077 0.65506 0.75611 0.0
H1868 H 0.10415 0.63302 0.74662 0.0
H1869 H 0.101 0.60737 0.80191 0.0
H1870 H 0.07778 0.62969 0.81175 0.0
H1871 H 0.10277 0.58217 0.77114 0.0
H1872 H 0.13513 0.63468 0.79441 0.0
H1873 H 0.14235 0.66757 0.79683 0.0
H1874 H 0.15655 0.66881 0.73742 0.0
H1875 H 0.14914 0.63596 0.73456 0.0
C1876 C 0.18184 0.54451 0.74789 0.0
C1877 C 0.18975 0.54913 0.73022 0.0
C1878 C 0.16765 0.55511 0.75552 0.0
C1879 C 0.16102 0.57042 0.74555 0.0
C1880 C 0.16877 0.57492 0.72785 0.0
C1881 C 0.18297 0.56444 0.72029 0.0
C1882 C 0.14647 0.58227 0.7537 0.0
C1883 C 0.15 0.60109 0.75535 0.0
C1884 C 0.12932 0.57529 0.75972 0.0
C1885 C 0.12444 0.55569 0.75761 0.0
C1886 C 0.1252 0.54713 0.73965 0.0
C1887 C 0.12063 0.52862 0.73779 0.0
C1888 C 0.11514 0.51857 0.75376 0.0
C1889 C 0.11417 0.52702 0.77161 0.0
C1890 C 0.11874 0.54552 0.77356 0.0
C1891 C 0.08511 0.64483 0.76634 0.0
C1892 C 0.07757 0.64431 0.78479 0.0
C1893 C 0.0984 0.63218 0.76084 0.0
C1894 C 0.10444 0.61873 0.77365 0.0
C1895 C 0.0965 0.61768 0.79184 0.0
C1896 C 0.08322 0.63041 0.7974 0.0
C1897 C 0.11951 0.60626 0.76811 0.0
C1898 C 0.11612 0.58738 0.76706 0.0
C1899 C 0.13679 0.61316 0.76254 0.0
C1900 C 0.14144 0.63288 0.76424 0.0
C1901 C 0.13967 0.64199 0.78183 0.0
C1902 C 0.14381 0.66063 0.78328 0.0
C1903 C 0.14987 0.67028 0.76728 0.0
C1904 C 0.15184 0.66131 0.7498 0.0
C1905 C 0.14769 0.64268 0.74826 0.0
H1906 H 0.15307 0.68471 0.76843 0.0
H1907 H 0.11161 0.50425 0.75229 0.0
H1908 H 0.83349 0.09008 0.26036 0.0
H1909 H 0.85625 0.11225 0.25016 0.0
H1910 H 0.89089 0.09712 0.29745 0.0
H1911 H 0.86749 0.07574 0.30863 0.0
H1912 H 0.89136 0.13232 0.29383 0.0
H1913 H 0.90008 0.08319 0.25043 0.0
H1914 H 0.89139 0.05929 0.22729 0.0
H1915 H 0.87128 0.10043 0.18888 0.0
H1916 H 0.87961 0.12457 0.2119 0.0
H1917 H 0.96445 0.18477 0.25139 0.0
H1918 H 0.9471 0.15833 0.26333 0.0
H1919 H 0.90173 0.17298 0.22703 0.0
H1920 H 0.91893 0.1993 0.21507 0.0
H1921 H 0.91077 0.13539 0.22608 0.0
H1922 H 0.89992 0.1839 0.27229 0.0
H1923 H 0.90973 0.2071 0.29573 0.0
H1924 H 0.93603 0.16538 0.32907 0.0
H1925 H 0.92658 0.14196 0.30567 0.0
C1926 C 0.84579 0.0916 0.26882 0.0
C1927 C 0.84855 0.0811 0.28541 0.0
C1928 C 0.85899 0.1041 0.26275 0.0
C1929 C 0.87549 0.10611 0.27279 0.0
C1930 C 0.87833 0.09572 0.28938 0.0
C1931 C 0.86498 0.08336 0.29565 0.0
C1932 C 0.88945 0.11949 0.26619 0.0
C1933 C 0.89588 0.13273 0.27909 0.0
C1934 C 0.89532 0.12016 0.24693 0.0
C1935 C 0.89038 0.10569 0.23296 0.0
C1936 C 0.8937 0.08714 0.2371 0.0
C1937 C 0.88885 0.07355 0.224 0.0
C1938 C 0.88076 0.07834 0.20664 0.0
C1939 C 0.87754 0.09674 0.20233 0.0
C1940 C 0.88235 0.11038 0.21539 0.0
C1941 C 0.95082 0.18224 0.2459 0.0
C1942 C 0.94297 0.19412 0.23241 0.0
C1943 C 0.94092 0.16722 0.25277 0.0
C1944 C 0.92313 0.16379 0.2461 0.0
C1945 C 0.91544 0.17541 0.23235 0.0
C1946 C 0.92522 0.19051 0.22565 0.0
C1947 C 0.91221 0.14832 0.25361 0.0
C1948 C 0.90641 0.13472 0.24086 0.0
C1949 C 0.90715 0.14716 0.27303 0.0
C1950 C 0.91273 0.16122 0.28713 0.0
C1951 C 0.90793 0.1797 0.28454 0.0
C1952 C 0.9134 0.19288 0.29783 0.0
C1953 C 0.92355 0.18772 0.31385 0.0
C1954 C 0.9282 0.16936 0.31664 0.0
C1955 C 0.92279 0.15613 0.30337 0.0
H1956 H 0.92777 0.19795 0.32412 0.0
H1957 H 0.877 0.0678 0.19652 0.0
H1958 H 0.31118 0.96674 0.75013 0.0
H1959 H 0.33675 0.9493 0.7636 0.0
H1960 H 0.31697 0.90042 0.73601 0.0
H1961 H 0.29197 0.91773 0.72177 0.0
H1962 H 0.32566 0.8966 0.77607 0.0
H1963 H 0.35107 0.92042 0.71688 0.0
H1964 H 0.35955 0.94523 0.69472 0.0
H1965 H 0.39401 0.96918 0.73763 0.0
H1966 H 0.38552 0.94462 0.76014 0.0
H1967 H 0.39544 0.83127 0.77843 0.0
H1968 H 0.37159 0.85302 0.76948 0.0
H1969 H 0.40567 0.89777 0.78844 0.0
H1970 H 0.42989 0.87594 0.79687 0.0
H1971 H 0.39016 0.90681 0.75657 0.0
H1972 H 0.36801 0.88253 0.81493 0.0
H1973 H 0.35965 0.85884 0.83842 0.0
H1974 H 0.31913 0.83755 0.79998 0.0
H1975 H 0.32742 0.86095 0.77613 0.0
C1976 C 0.31238 0.95234 0.7467 0.0
C1977 C 0.29939 0.94366 0.7349 0.0
C1978 C 0.32693 0.94239 0.75453 0.0
C1979 C 0.32865 0.9236 0.75082 0.0
C1980 C 0.31574 0.91489 0.73916 0.0
C1981 C 0.30138 0.92483 0.73114 0.0
C1982 C 0.34392 0.91283 0.75894 0.0
C1983 C 0.33977 0.89872 0.77177 0.0
C1984 C 0.36234 0.91613 0.75382 0.0
C1985 C 0.36748 0.93082 0.74026 0.0
C1986 C 0.36032 0.93107 0.72164 0.0
C1987 C 0.36515 0.94507 0.70901 0.0
C1988 C 0.37726 0.95881 0.71478 0.0
C1989 C 0.3846 0.95855 0.73319 0.0
C1990 C 0.37979 0.94459 0.74589 0.0
C1991 C 0.39778 0.84574 0.78081 0.0
C1992 C 0.41442 0.85194 0.78847 0.0
C1993 C 0.38412 0.85817 0.77576 0.0
C1994 C 0.38664 0.87704 0.77867 0.0
C1995 C 0.40337 0.88328 0.78614 0.0
C1996 C 0.41718 0.87083 0.79095 0.0
C1997 C 0.37192 0.89015 0.77344 0.0
C1998 C 0.37613 0.90476 0.76117 0.0
C1999 C 0.35355 0.8875 0.77934 0.0
C2000 C 0.34844 0.87343 0.79368 0.0
C2001 C 0.3574 0.87272 0.81143 0.0
C2002 C 0.35266 0.85935 0.82482 0.0
C2003 C 0.33889 0.84668 0.82068 0.0
C2004 C 0.3298 0.84737 0.80316 0.0
C2005 C 0.3345 0.8607 0.78971 0.0
H2006 H 0.33525 0.83633 0.83106 0.0
H2007 H 0.38099 0.96963 0.70498 0.0
H2008 H 0.53962 0.19079 0.74374 0.0
H2009 H 0.55826 0.16597 0.73047 0.0
H2010 H 0.59401 0.16865 0.77933 0.0
H2011 H 0.57527 0.19297 0.79296 0.0
H2012 H 0.61263 0.16908 0.74468 0.0
H2013 H 0.56458 0.13469 0.77586 0.0
H2014 H 0.53252 0.12596 0.78212 0.0
H2015 H 0.52588 0.11042 0.72345 0.0
H2016 H 0.55785 0.11932 0.71679 0.0
H2017 H 0.66537 0.08923 0.74226 0.0
H2018 H 0.64353 0.11303 0.75107 0.0
H2019 H 0.61164 0.10123 0.70076 0.0
H2020 H 0.63362 0.07739 0.69171 0.0
H2021 H 0.58996 0.10616 0.73218 0.0
H2022 H 0.63812 0.13824 0.70107 0.0
H2023 H 0.67 0.14705 0.6941 0.0
H2024 H 0.67619 0.16752 0.75115 0.0
H2025 H 0.64441 0.15857 0.75857 0.0
C2026 C 0.55129 0.18591 0.7518 0.0
C2027 C 0.556 0.19397 0.76938 0.0
C2028 C 0.56196 0.17179 0.74415 0.0
C2029 C 0.57751 0.16553 0.75392 0.0
C2030 C 0.58214 0.1734 0.77151 0.0
C2031 C 0.57144 0.18737 0.77922 0.0
C2032 C 0.58934 0.15105 0.74577 0.0
C2033 C 0.60773 0.15528 0.74209 0.0
C2034 C 0.58272 0.13325 0.74177 0.0
C2035 C 0.56353 0.12788 0.74578 0.0
C2036 C 0.55623 0.12958 0.76425 0.0
C2037 C 0.53809 0.12456 0.76788 0.0
C2038 C 0.52715 0.11769 0.75318 0.0
C2039 C 0.53435 0.11578 0.73482 0.0
C2040 C 0.55248 0.1208 0.73111 0.0
C2041 C 0.65381 0.09178 0.73296 0.0
C2042 C 0.65135 0.08155 0.71617 0.0
C2043 C 0.64131 0.10535 0.73805 0.0
C2044 C 0.62612 0.10907 0.72641 0.0
C2045 C 0.6233 0.09859 0.7099 0.0
C2046 C 0.63584 0.08496 0.70479 0.0
C2047 C 0.61339 0.12408 0.73155 0.0
C2048 C 0.59483 0.12 0.73459 0.0
C2049 C 0.6198 0.1421 0.73483 0.0
C2050 C 0.63891 0.14759 0.73042 0.0
C2051 C 0.64632 0.14449 0.71218 0.0
C2052 C 0.66437 0.14953 0.70814 0.0
C2053 C 0.67512 0.15781 0.72218 0.0
C2054 C 0.66784 0.1611 0.74029 0.0
C2055 C 0.6498 0.15606 0.74442 0.0
H2056 H 0.6891 0.16171 0.71902 0.0
H2057 H 0.51311 0.11381 0.75602 0.0
H2058 H 0.4266 0.64054 0.23892 0.0
H2059 H 0.40399 0.617 0.24653 0.0
H2060 H 0.37459 0.62959 0.19482 0.0
H2061 H 0.39735 0.6529 0.18685 0.0
H2062 H 0.35223 0.62818 0.22618 0.0
H2063 H 0.39888 0.59093 0.19759 0.0
H2064 H 0.43019 0.57904 0.19328 0.0
H2065 H 0.43014 0.55879 0.25078 0.0
H2066 H 0.3989 0.57081 0.25553 0.0
H2067 H 0.28837 0.55676 0.23294 0.0
H2068 H 0.31351 0.57543 0.22056 0.0
H2069 H 0.34635 0.56125 0.26955 0.0
H2070 H 0.32135 0.54222 0.28177 0.0
H2071 H 0.3672 0.56294 0.23834 0.0
H2072 H 0.32206 0.60133 0.26797 0.0
H2073 H 0.29104 0.61359 0.27342 0.0
H2074 H 0.28875 0.63238 0.21544 0.0
H2075 H 0.31967 0.61998 0.20956 0.0
C2076 C 0.4155 0.63812 0.22899 0.0
C2077 C 0.4138 0.64865 0.21227 0.0
C2078 C 0.40257 0.62468 0.2334 0.0
C2079 C 0.38769 0.62148 0.22117 0.0
C2080 C 0.38597 0.63188 0.20446 0.0
C2081 C 0.39893 0.64527 0.19999 0.0
C2082 C 0.37352 0.6078 0.22623 0.0
C2083 C 0.35544 0.61385 0.22852 0.0
C2084 C 0.37785 0.58923 0.22982 0.0
C2085 C 0.39661 0.58192 0.22697 0.0
C2086 C 0.40559 0.58408 0.20937 0.0
C2087 C 0.42332 0.57729 0.20684 0.0
C2088 C 0.43217 0.5682 0.22176 0.0
C2089 C 0.42328 0.56585 0.23924 0.0
C2090 C 0.40556 0.57263 0.24185 0.0
C2091 C 0.30104 0.55748 0.24093 0.0
C2092 C 0.30289 0.5482 0.25838 0.0
C2093 C 0.31537 0.56816 0.23388 0.0
C2094 C 0.33166 0.57005 0.24434 0.0
C2095 C 0.33388 0.56003 0.26128 0.0
C2096 C 0.31961 0.54916 0.26823 0.0
C2097 C 0.34589 0.58332 0.23824 0.0
C2098 C 0.36397 0.57724 0.23585 0.0
C2099 C 0.34162 0.60194 0.23473 0.0
C2100 C 0.3231 0.60956 0.23828 0.0
C2101 C 0.31489 0.60796 0.25635 0.0
C2102 C 0.29733 0.61495 0.25952 0.0
C2103 C 0.28791 0.62372 0.24477 0.0
C2104 C 0.29605 0.62556 0.22684 0.0
C2105 C 0.3136 0.61857 0.22358 0.0
H2106 H 0.27432 0.62911 0.24725 0.0
H2107 H 0.44589 0.56296 0.21977 0.0
H2108 H 0.82964 0.39209 0.70288 0.0
H2109 H 0.85148 0.36811 0.71155 0.0
H2110 H 0.88793 0.409 0.73474 0.0
H2111 H 0.86637 0.43308 0.72528 0.0
H2112 H 0.90725 0.38415 0.71746 0.0
H2113 H 0.85883 0.38238 0.76347 0.0
H2114 H 0.82685 0.38069 0.77462 0.0
H2115 H 0.82083 0.32796 0.74826 0.0
H2116 H 0.85271 0.32944 0.73673 0.0
H2117 H 0.95647 0.32199 0.77831 0.0
H2118 H 0.93794 0.34684 0.76509 0.0
H2119 H 0.90502 0.3075 0.73461 0.0
H2120 H 0.92369 0.28262 0.74739 0.0
H2121 H 0.88448 0.33176 0.75576 0.0
H2122 H 0.93427 0.334 0.71073 0.0
H2123 H 0.96664 0.33631 0.70106 0.0
H2124 H 0.97061 0.389 0.72793 0.0
H2125 H 0.93832 0.38689 0.738 0.0
C2126 C 0.84236 0.39591 0.70976 0.0
C2127 C 0.84631 0.41436 0.71359 0.0
C2128 C 0.8548 0.38223 0.71478 0.0
C2129 C 0.87118 0.3867 0.72421 0.0
C2130 C 0.87537 0.4052 0.72754 0.0
C2131 C 0.86306 0.41893 0.72218 0.0
C2132 C 0.88369 0.37204 0.73102 0.0
C2133 C 0.9023 0.37282 0.72603 0.0
C2134 C 0.87724 0.3571 0.74203 0.0
C2135 C 0.85811 0.3561 0.74909 0.0
C2136 C 0.85065 0.37047 0.75996 0.0
C2137 C 0.83255 0.36955 0.76635 0.0
C2138 C 0.8218 0.35425 0.76212 0.0
C2139 C 0.82916 0.33981 0.75152 0.0
C2140 C 0.84725 0.34068 0.74506 0.0
C2141 C 0.94553 0.31864 0.7685 0.0
C2142 C 0.94149 0.30029 0.76402 0.0
C2143 C 0.93492 0.33286 0.761 0.0
C2144 C 0.92013 0.32899 0.74887 0.0
C2145 C 0.91633 0.31075 0.74403 0.0
C2146 C 0.92696 0.29655 0.75143 0.0
C2147 C 0.90794 0.34382 0.74206 0.0
C2148 C 0.88939 0.34309 0.74714 0.0
C2149 C 0.91452 0.35889 0.7314 0.0
C2150 C 0.93392 0.3602 0.72528 0.0
C2151 C 0.94208 0.34601 0.71472 0.0
C2152 C 0.96041 0.3473 0.70913 0.0
C2153 C 0.97069 0.36277 0.71392 0.0
C2154 C 0.96264 0.37701 0.72425 0.0
C2155 C 0.94432 0.37578 0.72989 0.0
H2156 H 0.98488 0.36374 0.70958 0.0
H2157 H 0.80779 0.35356 0.76708 0.0
H2158 H 0.07153 0.85345 0.24043 0.0
H2159 H 0.0943 0.87656 0.2486 0.0
H2160 H 0.11257 0.87796 0.19017 0.0
H2161 H 0.08919 0.85546 0.18154 0.0
H2162 H 0.14077 0.87233 0.21851 0.0
H2163 H 0.09087 0.913 0.20452 0.0
H2164 H 0.05922 0.92446 0.2071 0.0
H2165 H 0.06666 0.93348 0.26712 0.0
H2166 H 0.09829 0.9218 0.26496 0.0
H2167 H 0.20601 0.94143 0.23496 0.0
H2168 H 0.1802 0.92469 0.22106 0.0
H2169 H 0.15018 0.93077 0.27374 0.0
H2170 H 0.17568 0.94827 0.28728 0.0
H2171 H 0.12746 0.93361 0.24575 0.0
H2172 H 0.17489 0.89079 0.26172 0.0
H2173 H 0.20609 0.87787 0.26134 0.0
H2174 H 0.20285 0.87094 0.20061 0.0
H2175 H 0.17171 0.88406 0.2006 0.0
C2176 C 0.08003 0.85894 0.22915 0.0
C2177 C 0.07844 0.85251 0.21028 0.0
C2178 C 0.09313 0.87209 0.23391 0.0
C2179 C 0.10504 0.87896 0.21997 0.0
C2180 C 0.10348 0.87276 0.20112 0.0
C2181 C 0.09019 0.85979 0.19627 0.0
C2182 C 0.11975 0.89188 0.22539 0.0
C2183 C 0.13793 0.88588 0.22413 0.0
C2184 C 0.11589 0.90926 0.23328 0.0
C2185 C 0.09691 0.91637 0.2346 0.0
C2186 C 0.08571 0.91728 0.2183 0.0
C2187 C 0.06778 0.92384 0.21968 0.0
C2188 C 0.06092 0.92966 0.23727 0.0
C2189 C 0.07199 0.92896 0.25351 0.0
C2190 C 0.08993 0.92238 0.25221 0.0
C2191 C 0.19379 0.93932 0.24344 0.0
C2192 C 0.19279 0.94598 0.26219 0.0
C2193 C 0.1791 0.9297 0.23555 0.0
C2194 C 0.16339 0.92607 0.2465 0.0
C2195 C 0.16215 0.93334 0.26502 0.0
C2196 C 0.1767 0.9433 0.27276 0.0
C2197 C 0.14861 0.91406 0.23901 0.0
C2198 C 0.13039 0.92016 0.23995 0.0
C2199 C 0.15238 0.89657 0.23116 0.0
C2200 C 0.17106 0.88858 0.23114 0.0
C2201 C 0.18088 0.88662 0.24827 0.0
C2202 C 0.19855 0.87925 0.24813 0.0
C2203 C 0.20646 0.87364 0.23095 0.0
C2204 C 0.19671 0.87533 0.2139 0.0
C2205 C 0.17905 0.88272 0.21396 0.0
H2206 H 0.22014 0.86794 0.23087 0.0
H2207 H 0.04704 0.93474 0.23831 0.0
H2208 H 0.36025 0.58641 0.68749 0.0
H2209 H 0.38266 0.60913 0.69808 0.0
H2210 H 0.36326 0.60361 0.75589 0.0
H2211 H 0.34115 0.58059 0.74556 0.0
H2212 H 0.36603 0.63931 0.74505 0.0
H2213 H 0.40319 0.58526 0.7439 0.0
H2214 H 0.41675 0.55753 0.72967 0.0
H2215 H 0.44298 0.59028 0.68677 0.0
H2216 H 0.42935 0.6182 0.70059 0.0
H2217 H 0.45807 0.67513 0.7826 0.0
H2218 H 0.43983 0.64941 0.77068 0.0
H2219 H 0.41117 0.68588 0.73262 0.0
H2220 H 0.42945 0.71158 0.74427 0.0
H2221 H 0.43309 0.63369 0.73508 0.0
H2222 H 0.36582 0.67508 0.73504 0.0
H2223 H 0.35249 0.70208 0.751 0.0
H2224 H 0.38672 0.69277 0.79984 0.0
H2225 H 0.40004 0.66557 0.7843 0.0
C2226 C 0.36091 0.58982 0.7025 0.0
C2227 C 0.34883 0.58169 0.71566 0.0
C2228 C 0.3737 0.60285 0.70852 0.0
C2229 C 0.37465 0.608 0.72778 0.0
C2230 C 0.36269 0.59988 0.74094 0.0
C2231 C 0.34998 0.58679 0.73498 0.0
C2232 C 0.38771 0.62227 0.73416 0.0
C2233 C 0.38068 0.63807 0.74284 0.0
C2234 C 0.40684 0.62055 0.73148 0.0
C2235 C 0.4151 0.6038 0.72318 0.0
C2236 C 0.41172 0.58653 0.73134 0.0
C2237 C 0.41945 0.57078 0.72336 0.0
C2238 C 0.43068 0.57213 0.70729 0.0
C2239 C 0.43426 0.58925 0.6992 0.0
C2240 C 0.42655 0.60504 0.70711 0.0
C2241 C 0.44816 0.6776 0.77141 0.0
C2242 C 0.44503 0.69543 0.76456 0.0
C2243 C 0.43773 0.6629 0.76464 0.0
C2244 C 0.42399 0.66581 0.75099 0.0
C2245 C 0.42153 0.68341 0.74338 0.0
C2246 C 0.43192 0.69808 0.75012 0.0
C2247 C 0.41133 0.6508 0.74566 0.0
C2248 C 0.41842 0.6349 0.7372 0.0
C2249 C 0.39224 0.6523 0.74875 0.0
C2250 C 0.38404 0.6684 0.75841 0.0
C2251 C 0.37043 0.67875 0.74922 0.0
C2252 C 0.36289 0.69409 0.75819 0.0
C2253 C 0.3688 0.69917 0.7764 0.0
C2254 C 0.3822 0.68886 0.78571 0.0
C2255 C 0.38976 0.67349 0.77682 0.0
H2256 H 0.36296 0.71107 0.7833 0.0
H2257 H 0.43665 0.55993 0.70114 0.0
H2258 H 0.89729 0.33503 0.20262 0.0
H2259 H 0.87418 0.35716 0.21263 0.0
H2260 H 0.91671 0.39551 0.22777 0.0
H2261 H 0.93998 0.37313 0.2184 0.0
H2262 H 0.89131 0.39336 0.25525 0.0
H2263 H 0.89088 0.40177 0.1876 0.0
H2264 H 0.88931 0.39218 0.15392 0.0
H2265 H 0.83543 0.37034 0.16305 0.0
H2266 H 0.83678 0.37957 0.19686 0.0
H2267 H 0.82717 0.46542 0.27131 0.0
H2268 H 0.85274 0.44762 0.25836 0.0
H2269 H 0.81516 0.40519 0.24098 0.0
H2270 H 0.78963 0.42284 0.25386 0.0
H2271 H 0.83969 0.4119 0.21351 0.0
H2272 H 0.84106 0.401 0.28134 0.0
H2273 H 0.84247 0.4099 0.31524 0.0
H2274 H 0.89443 0.4359 0.30582 0.0
H2275 H 0.89321 0.42735 0.27178 0.0
C2276 C 0.90175 0.34814 0.20815 0.0
C2277 C 0.92049 0.3523 0.20973 0.0
C2278 C 0.88851 0.36086 0.21368 0.0
C2279 C 0.89371 0.37808 0.22074 0.0
C2280 C 0.91239 0.38233 0.22227 0.0
C2281 C 0.92566 0.36959 0.21676 0.0
C2282 C 0.8796 0.39135 0.22712 0.0
C2283 C 0.88021 0.39769 0.24601 0.0
C2284 C 0.86491 0.39671 0.21519 0.0
C2285 C 0.864 0.39125 0.19481 0.0
C2286 C 0.87875 0.39481 0.18246 0.0
C2287 C 0.87789 0.38946 0.16334 0.0
C2288 C 0.86229 0.38063 0.15636 0.0
C2289 C 0.84751 0.37717 0.16848 0.0
C2290 C 0.84831 0.38249 0.18762 0.0
C2291 C 0.82438 0.45228 0.26476 0.0
C2292 C 0.80637 0.44555 0.26359 0.0
C2293 C 0.83899 0.44214 0.25736 0.0
C2294 C 0.83587 0.42501 0.24884 0.0
C2295 C 0.81788 0.41841 0.24741 0.0
C2296 C 0.80329 0.42855 0.25473 0.0
C2297 C 0.85129 0.4137 0.24169 0.0
C2298 C 0.85091 0.40772 0.22267 0.0
C2299 C 0.86616 0.40863 0.25352 0.0
C2300 C 0.86694 0.41372 0.27398 0.0
C2301 C 0.85272 0.40874 0.28647 0.0
C2302 C 0.85349 0.4137 0.30571 0.0
C2303 C 0.8685 0.42351 0.31267 0.0
C2304 C 0.8828 0.42833 0.3004 0.0
C2305 C 0.88207 0.42342 0.28114 0.0
H2306 H 0.86908 0.42733 0.32757 0.0
H2307 H 0.86165 0.37649 0.14155 0.0
H2308 H 0.02946 0.82128 0.7619 0.0
H2309 H 0.04752 0.84718 0.74986 0.0
H2310 H 0.0966 0.81452 0.75348 0.0
H2311 H 0.07878 0.78881 0.76573 0.0
H2312 H 0.10101 0.84854 0.76907 0.0
H2313 H 0.07679 0.82207 0.71115 0.0
H2314 H 0.05227 0.81142 0.68966 0.0
H2315 H 0.02912 0.86546 0.68876 0.0
H2316 H 0.05338 0.87637 0.71048 0.0
H2317 H 0.16601 0.89637 0.71549 0.0
H2318 H 0.14423 0.87327 0.72637 0.0
H2319 H 0.09969 0.91109 0.71737 0.0
H2320 H 0.1215 0.93433 0.70634 0.0
H2321 H 0.09071 0.87686 0.70562 0.0
H2322 H 0.11572 0.90395 0.76182 0.0
H2323 H 0.14012 0.91488 0.78329 0.0
H2324 H 0.16125 0.86021 0.78798 0.0
H2325 H 0.13712 0.84898 0.7663 0.0
C2326 C 0.04411 0.81968 0.76015 0.0
C2327 C 0.05269 0.80299 0.76464 0.0
C2328 C 0.05437 0.83442 0.75317 0.0
C2329 C 0.07337 0.8327 0.75067 0.0
C2330 C 0.08195 0.8161 0.75526 0.0
C2331 C 0.07172 0.80138 0.76211 0.0
C2332 C 0.08454 0.84821 0.7436 0.0
C2333 C 0.09886 0.85463 0.75513 0.0
C2334 C 0.08134 0.85653 0.72567 0.0
C2335 C 0.06677 0.84998 0.71262 0.0
C2336 C 0.06638 0.83164 0.70651 0.0
C2337 C 0.05255 0.82557 0.69426 0.0
C2338 C 0.03911 0.83774 0.6879 0.0
C2339 C 0.03951 0.85603 0.69373 0.0
C2340 C 0.0533 0.86217 0.706 0.0
C2341 C 0.15158 0.89979 0.71586 0.0
C2342 C 0.14548 0.91723 0.71027 0.0
C2343 C 0.13915 0.88658 0.72207 0.0
C2344 C 0.12038 0.89058 0.72302 0.0
C2345 C 0.11413 0.90775 0.71681 0.0
C2346 C 0.12659 0.92099 0.71049 0.0
C2347 C 0.10744 0.8769 0.73094 0.0
C2348 C 0.09276 0.87088 0.71963 0.0
C2349 C 0.11023 0.86898 0.74914 0.0
C2350 C 0.12469 0.87565 0.76231 0.0
C2351 C 0.12564 0.89427 0.76733 0.0
C2352 C 0.13942 0.90052 0.77955 0.0
C2353 C 0.15225 0.88826 0.78696 0.0
C2354 C 0.1513 0.8697 0.78221 0.0
C2355 C 0.13757 0.86338 0.76998 0.0
H2356 H 0.16291 0.89312 0.79642 0.0
H2357 H 0.02842 0.83301 0.67841 0.0
H2358 H 0.56319 0.12572 0.2031 0.0
H2359 H 0.58612 0.1027 0.21194 0.0
H2360 H 0.62624 0.14538 0.21981 0.0
H2361 H 0.60344 0.16842 0.21092 0.0
H2362 H 0.63968 0.11481 0.19988 0.0
H2363 H 0.60562 0.12853 0.25745 0.0
H2364 H 0.57751 0.13128 0.27671 0.0
H2365 H 0.56616 0.07417 0.26817 0.0
H2366 H 0.59409 0.07115 0.24861 0.0
H2367 H 0.70826 0.07638 0.25709 0.0
H2368 H 0.68364 0.09464 0.24336 0.0
H2369 H 0.64723 0.0482 0.24676 0.0
H2370 H 0.6719 0.02988 0.26095 0.0
H2371 H 0.63026 0.07777 0.25841 0.0
H2372 H 0.66545 0.06286 0.20348 0.0
H2373 H 0.69325 0.05959 0.18383 0.0
H2374 H 0.70201 0.11768 0.1862 0.0
H2375 H 0.6744 0.12128 0.2061 0.0
C2376 C 0.57697 0.13014 0.2065 0.0
C2377 C 0.58154 0.14885 0.20641 0.0
C2378 C 0.58999 0.11701 0.21164 0.0
C2379 C 0.60781 0.12238 0.21665 0.0
C2380 C 0.61255 0.14098 0.21601 0.0
C2381 C 0.5995 0.15412 0.21106 0.0
C2382 C 0.62144 0.10874 0.22313 0.0
C2383 C 0.63772 0.10677 0.21274 0.0
C2384 C 0.61855 0.09787 0.23956 0.0
C2385 C 0.60182 0.09966 0.25138 0.0
C2386 C 0.59704 0.11659 0.25954 0.0
C2387 C 0.58116 0.1182 0.27054 0.0
C2388 C 0.57002 0.10292 0.27361 0.0
C2389 C 0.57478 0.086 0.26574 0.0
C2390 C 0.59064 0.08433 0.25471 0.0
C2391 C 0.69507 0.06998 0.2547 0.0
C2392 C 0.69204 0.05165 0.2599 0.0
C2393 C 0.681 0.08043 0.24682 0.0
C2394 C 0.66367 0.0727 0.24364 0.0
C2395 C 0.66053 0.05442 0.24898 0.0
C2396 C 0.67459 0.04399 0.25709 0.0
C2397 C 0.64876 0.08401 0.23535 0.0
C2398 C 0.6322 0.08557 0.24539 0.0
C2399 C 0.65133 0.09439 0.21848 0.0
C2400 C 0.66791 0.09231 0.2064 0.0
C2401 C 0.67337 0.07492 0.19992 0.0
C2402 C 0.68908 0.07302 0.18872 0.0
C2403 C 0.69941 0.08841 0.1838 0.0
C2404 C 0.694 0.10576 0.19003 0.0
C2405 C 0.67831 0.10775 0.20125 0.0
H2406 H 0.71157 0.08691 0.17513 0.0
H2407 H 0.55773 0.10419 0.28214 0.0
H2408 H 0.46961 0.81741 0.25222 0.0
H2409 H 0.45102 0.8427 0.26465 0.0
H2410 H 0.41024 0.83217 0.22139 0.0
H2411 H 0.42924 0.80758 0.20846 0.0
H2412 H 0.41299 0.86652 0.22499 0.0
H2413 H 0.40661 0.81732 0.26984 0.0
H2414 H 0.41709 0.79366 0.29244 0.0
H2415 H 0.44175 0.83505 0.32755 0.0
H2416 H 0.43162 0.85895 0.30501 0.0
H2417 H 0.33354 0.90152 0.27234 0.0
H2418 H 0.35664 0.87972 0.26094 0.0
H2419 H 0.39905 0.91127 0.28835 0.0
H2420 H 0.37599 0.93343 0.2994 0.0
H2421 H 0.39718 0.86847 0.2938 0.0
H2422 H 0.40049 0.91776 0.24745 0.0
H2423 H 0.38684 0.9397 0.2248 0.0
H2424 H 0.3642 0.89524 0.19239 0.0
H2425 H 0.37747 0.87304 0.21504 0.0
C2426 C 0.45674 0.82067 0.24533 0.0
C2427 C 0.45083 0.81067 0.22939 0.0
C2428 C 0.44606 0.83501 0.25249 0.0
C2429 C 0.42903 0.83918 0.24419 0.0
C2430 C 0.42332 0.8293 0.22804 0.0
C2431 C 0.43416 0.81526 0.22065 0.0
C2432 C 0.41695 0.85359 0.25236 0.0
C2433 C 0.4095 0.8668 0.24003 0.0
C2434 C 0.41246 0.85422 0.27204 0.0
C2435 C 0.41854 0.83989 0.28563 0.0
C2436 C 0.41438 0.82136 0.28231 0.0
C2437 C 0.42024 0.80791 0.29512 0.0
C2438 C 0.43013 0.81285 0.31139 0.0
C2439 C 0.43413 0.83125 0.31492 0.0
C2440 C 0.42832 0.84475 0.30214 0.0
C2441 C 0.34778 0.90371 0.27602 0.0
C2442 C 0.35305 0.91908 0.28673 0.0
C2443 C 0.36092 0.89133 0.26948 0.0
C2444 C 0.37947 0.89397 0.27383 0.0
C2445 C 0.38476 0.90906 0.2849 0.0
C2446 C 0.37165 0.92168 0.29112 0.0
C2447 C 0.3933 0.88107 0.26638 0.0
C2448 C 0.40096 0.86818 0.27883 0.0
C2449 C 0.39765 0.88045 0.24677 0.0
C2450 C 0.38982 0.89376 0.23305 0.0
C2451 C 0.39245 0.91267 0.2356 0.0
C2452 C 0.38482 0.92515 0.22274 0.0
C2453 C 0.37462 0.91887 0.20719 0.0
C2454 C 0.37208 0.90009 0.20445 0.0
C2455 C 0.37967 0.88756 0.21728 0.0
H2456 H 0.36872 0.92855 0.19725 0.0
H2457 H 0.43465 0.80241 0.32129 0.0
H2458 H 0.66791 0.453 0.7114 0.0
H2459 H 0.64314 0.43447 0.72449 0.0
H2460 H 0.67701 0.42038 0.77274 0.0
H2461 H 0.70223 0.43784 0.75914 0.0
H2462 H 0.66138 0.39124 0.76042 0.0
H2463 H 0.63993 0.45121 0.77572 0.0
H2464 H 0.63139 0.48337 0.76976 0.0
H2465 H 0.58979 0.46593 0.73048 0.0
H2466 H 0.59825 0.43366 0.736 0.0
H2467 H 0.58958 0.35213 0.81561 0.0
H2468 H 0.61286 0.37388 0.80494 0.0
H2469 H 0.58554 0.37892 0.7507 0.0
H2470 H 0.56259 0.35665 0.76086 0.0
H2471 H 0.5974 0.41309 0.76723 0.0
H2472 H 0.62047 0.35278 0.75202 0.0
H2473 H 0.62901 0.32092 0.75949 0.0
H2474 H 0.6679 0.33998 0.80092 0.0
H2475 H 0.65938 0.37197 0.79389 0.0
C2476 C 0.67016 0.44589 0.72475 0.0
C2477 C 0.68715 0.44696 0.73417 0.0
C2478 C 0.65586 0.43548 0.73237 0.0
C2479 C 0.65809 0.42619 0.74975 0.0
C2480 C 0.67491 0.42747 0.75934 0.0
C2481 C 0.68928 0.43767 0.75162 0.0
C2482 C 0.64326 0.41438 0.75749 0.0
C2483 C 0.64748 0.39617 0.76219 0.0
C2484 C 0.62499 0.42063 0.7595 0.0
C2485 C 0.61985 0.44002 0.75614 0.0
C2486 C 0.62906 0.45424 0.76569 0.0
C2487 C 0.62421 0.47248 0.76242 0.0
C2488 C 0.61009 0.47669 0.74971 0.0
C2489 C 0.60074 0.46265 0.7403 0.0
C2490 C 0.60555 0.44438 0.74351 0.0
C2491 C 0.58854 0.35773 0.80135 0.0
C2492 C 0.57422 0.35248 0.78907 0.0
C2493 C 0.60179 0.37027 0.79535 0.0
C2494 C 0.60092 0.37791 0.77702 0.0
C2495 C 0.58637 0.37322 0.76495 0.0
C2496 C 0.57322 0.36053 0.77084 0.0
C2497 C 0.61565 0.39014 0.77012 0.0
C2498 C 0.61138 0.40833 0.76554 0.0
C2499 C 0.63392 0.38398 0.76844 0.0
C2500 C 0.63914 0.36476 0.77258 0.0
C2501 C 0.63073 0.35017 0.76284 0.0
C2502 C 0.63559 0.33209 0.76697 0.0
C2503 C 0.64895 0.32842 0.78071 0.0
C2504 C 0.65753 0.34284 0.7903 0.0
C2505 C 0.6527 0.36095 0.78625 0.0
H2506 H 0.6527 0.31441 0.78388 0.0
H2507 H 0.60635 0.49083 0.7472 0.0
H2508 H 0.12316 0.56581 0.30424 0.0
H2509 H 0.09997 0.58812 0.29431 0.0
H2510 H 0.13837 0.61168 0.25449 0.0
H2511 H 0.16154 0.58959 0.26443 0.0
H2512 H 0.12211 0.6377 0.27367 0.0
H2513 H 0.10278 0.58399 0.23977 0.0
H2514 H 0.09334 0.55174 0.23627 0.0
H2515 H 0.04705 0.56133 0.27267 0.0
H2516 H 0.05635 0.59359 0.27659 0.0
H2517 H 0.04442 0.67297 0.21087 0.0
H2518 H 0.06218 0.64674 0.22225 0.0
H2519 H 0.06517 0.67104 0.27824 0.0
H2520 H 0.0474 0.69729 0.26697 0.0
H2521 H 0.06011 0.62072 0.25068 0.0
H2522 H 0.10924 0.66705 0.29355 0.0
H2523 H 0.11949 0.69926 0.29399 0.0
H2524 H 0.10819 0.70392 0.23408 0.0
H2525 H 0.0982 0.67168 0.23322 0.0
C2526 C 0.12657 0.57566 0.29326 0.0
C2527 C 0.14419 0.57602 0.28519 0.0
C2528 C 0.11332 0.58839 0.28759 0.0
C2529 C 0.1174 0.60152 0.27358 0.0
C2530 C 0.13494 0.60176 0.2654 0.0
C2531 C 0.14818 0.58915 0.27114 0.0
C2532 C 0.10366 0.61539 0.2677 0.0
C2533 C 0.10854 0.63395 0.26872 0.0
C2534 C 0.08602 0.61052 0.261 0.0
C2535 C 0.08037 0.59115 0.25863 0.0
C2536 C 0.09067 0.57918 0.24715 0.0
C2537 C 0.08533 0.56091 0.24507 0.0
C2538 C 0.06963 0.55448 0.25429 0.0
C2539 C 0.05922 0.56632 0.26556 0.0
C2540 C 0.06451 0.58461 0.26771 0.0
C2541 C 0.04845 0.6725 0.22573 0.0
C2542 C 0.04472 0.68728 0.23798 0.0
C2543 C 0.05861 0.65751 0.2322 0.0
C2544 C 0.06521 0.6571 0.25099 0.0
C2545 C 0.06042 0.67124 0.2636 0.0
C2546 C 0.05034 0.68624 0.25713 0.0
C2547 C 0.07858 0.64292 0.25685 0.0
C2548 C 0.07364 0.62439 0.25582 0.0
C2549 C 0.09635 0.64774 0.26313 0.0
C2550 C 0.10278 0.66702 0.26339 0.0
C2551 C 0.10903 0.67493 0.28046 0.0
C2552 C 0.11479 0.69319 0.28078 0.0
C2553 C 0.11443 0.70365 0.26409 0.0
C2554 C 0.10841 0.69583 0.24701 0.0
C2555 C 0.10269 0.67757 0.2466 0.0
H2556 H 0.11885 0.71779 0.26438 0.0
H2557 H 0.06552 0.54032 0.25266 0.0
H2558 H 0.93759 0.13535 0.7629 0.0
H2559 H 0.91537 0.11273 0.75241 0.0
H2560 H 0.88359 0.12188 0.8034 0.0
H2561 H 0.9066 0.14345 0.81482 0.0
H2562 H 0.88262 0.08755 0.79559 0.0
H2563 H 0.87279 0.14181 0.75866 0.0
H2564 H 0.88115 0.16744 0.73749 0.0
H2565 H 0.89684 0.12942 0.69373 0.0
H2566 H 0.88879 0.10354 0.71474 0.0
H2567 H 0.79601 0.05856 0.75843 0.0
H2568 H 0.82173 0.07605 0.77105 0.0
H2569 H 0.85647 0.05507 0.72643 0.0
H2570 H 0.83103 0.03679 0.71411 0.0
H2571 H 0.85651 0.09416 0.73061 0.0
H2572 H 0.86363 0.03981 0.76872 0.0
H2573 H 0.85317 0.01546 0.79051 0.0
H2574 H 0.83978 0.05573 0.83289 0.0
H2575 H 0.84991 0.08035 0.81124 0.0
C2576 C 0.92615 0.13231 0.77217 0.0
C2577 C 0.92395 0.14141 0.78974 0.0
C2578 C 0.91324 0.11953 0.76596 0.0
C2579 C 0.89753 0.11589 0.77687 0.0
C2580 C 0.89551 0.12455 0.79462 0.0
C2581 C 0.9086 0.13709 0.80103 0.0
C2582 C 0.88307 0.10335 0.76961 0.0
C2583 C 0.87679 0.08915 0.78146 0.0
C2584 C 0.87558 0.1052 0.75105 0.0
C2585 C 0.88037 0.12074 0.73835 0.0
C2586 C 0.87815 0.13891 0.74457 0.0
C2587 C 0.88281 0.15349 0.73259 0.0
C2588 C 0.88957 0.15006 0.71429 0.0
C2589 C 0.89163 0.13205 0.70792 0.0
C2590 C 0.88701 0.11743 0.71985 0.0
C2591 C 0.80919 0.05723 0.75152 0.0
C2592 C 0.81137 0.04617 0.73521 0.0
C2593 C 0.82386 0.06738 0.75871 0.0
C2594 C 0.84097 0.06681 0.74968 0.0
C2595 C 0.84332 0.05571 0.73355 0.0
C2596 C 0.82871 0.04536 0.72648 0.0
C2597 C 0.85615 0.0785 0.7566 0.0
C2598 C 0.86248 0.09255 0.74469 0.0
C2599 C 0.86339 0.07673 0.77521 0.0
C2600 C 0.85738 0.06194 0.78828 0.0
C2601 C 0.85831 0.04348 0.78262 0.0
C2602 C 0.85247 0.02963 0.79496 0.0
C2603 C 0.84577 0.03404 0.81305 0.0
C2604 C 0.84495 0.05233 0.81886 0.0
C2605 C 0.85076 0.06624 0.80657 0.0
H2606 H 0.84126 0.0233 0.82258 0.0
H2607 H 0.89318 0.16136 0.70504 0.0
H2608 H 0.48987 0.21386 0.07607 0.0
H2609 H 0.48799 0.21875 0.04169 0.0
H2610 H 0.50252 0.27552 0.04945 0.0
H2611 H 0.50357 0.27096 0.08396 0.0
H2612 H 0.47632 0.2725 0.02348 0.0
H2613 H 0.53421 0.24377 0.03481 0.0
H2614 H 0.55526 0.22025 0.04728 0.0
H2615 H 0.52835 0.17924 0.0135 0.0
H2616 H 0.50696 0.20248 0.00103 0.0
H2617 H 0.50674 0.2899 0.92823 0.0
H2618 H 0.50502 0.28568 0.96275 0.0
H2619 H 0.48396 0.2311 0.95457 0.0
H2620 H 0.485 0.23536 0.92003 0.0
H2621 H 0.51311 0.23298 0.98052 0.0
H2622 H 0.45562 0.26289 0.96866 0.0
H2623 H 0.43558 0.2872 0.95603 0.0
H2624 H 0.46324 0.32703 0.99066 0.0
H2625 H 0.48364 0.30299 0.0033 0.0
C2626 C 0.49238 0.22747 0.07052 0.0
C2627 C 0.49696 0.242 0.0828 0.0
C2628 C 0.4915 0.23019 0.05082 0.0
C2629 C 0.49542 0.24743 0.04296 0.0
C2630 C 0.49955 0.26207 0.05519 0.0
C2631 C 0.50032 0.25939 0.07491 0.0
C2632 C 0.49549 0.25012 0.02197 0.0
C2633 C 0.48453 0.264 0.01411 0.0
C2634 C 0.50599 0.23885 0.0097 0.0
C2635 C 0.51886 0.22484 0.01714 0.0
C2636 C 0.53269 0.22971 0.03016 0.0
C2637 C 0.5447 0.21644 0.03721 0.0
C2638 C 0.54311 0.19825 0.03123 0.0
C2639 C 0.52954 0.19332 0.01814 0.0
C2640 C 0.51748 0.20654 0.01107 0.0
C2641 C 0.50142 0.2771 0.93372 0.0
C2642 C 0.49601 0.26297 0.92127 0.0
C2643 C 0.50055 0.27469 0.95347 0.0
C2644 C 0.49432 0.2581 0.96117 0.0
C2645 C 0.48888 0.24398 0.94887 0.0
C2646 C 0.48959 0.24643 0.92912 0.0
C2647 C 0.49392 0.2553 0.98209 0.0
C2648 C 0.50486 0.24143 0.98991 0.0
C2649 C 0.48356 0.2667 0.99431 0.0
C2650 C 0.47128 0.28117 0.98678 0.0
C2651 C 0.45754 0.27686 0.97346 0.0
C2652 C 0.44609 0.29058 0.96632 0.0
C2653 C 0.44817 0.30865 0.9725 0.0
C2654 C 0.46167 0.31303 0.98587 0.0
C2655 C 0.47317 0.29936 0.99304 0.0
H2656 H 0.43929 0.31926 0.96696 0.0
H2657 H 0.55243 0.188 0.0367 0.0
H2658 H 0.25131 0.47967 0.41758 0.0
H2659 H 0.25646 0.47849 0.45203 0.0
H2660 H 0.2258 0.52853 0.45896 0.0
H2661 H 0.22044 0.52971 0.42459 0.0
H2662 H 0.25757 0.52965 0.47839 0.0
H2663 H 0.20744 0.48768 0.47149 0.0
H2664 H 0.1911 0.46096 0.45836 0.0
H2665 H 0.23342 0.42532 0.47905 0.0
H2666 H 0.25016 0.45187 0.49208 0.0
H2667 H 0.24393 0.52884 0.57808 0.0
H2668 H 0.2389 0.52767 0.54369 0.0
H2669 H 0.27272 0.47942 0.53988 0.0
H2670 H 0.27821 0.4807 0.57431 0.0
H2671 H 0.24044 0.47659 0.51885 0.0
H2672 H 0.2902 0.51869 0.5263 0.0
H2673 H 0.30625 0.54548 0.53966 0.0
H2674 H 0.26429 0.58098 0.51793 0.0
H2675 H 0.24783 0.55435 0.50468 0.0
C2676 C 0.24546 0.4903 0.42646 0.0
C2677 C 0.23548 0.50481 0.41832 0.0
C2678 C 0.24845 0.48962 0.44614 0.0
C2679 C 0.24143 0.50337 0.45806 0.0
C2680 C 0.2314 0.51781 0.45 0.0
C2681 C 0.22841 0.5185 0.43035 0.0
C2682 C 0.24491 0.50301 0.4789 0.0
C2683 C 0.25361 0.51814 0.48727 0.0
C2684 C 0.24019 0.48778 0.49039 0.0
C2685 C 0.23015 0.47179 0.48258 0.0
C2686 C 0.21335 0.47416 0.47309 0.0
C2687 C 0.20399 0.45904 0.4657 0.0
C2688 C 0.21124 0.44146 0.46782 0.0
C2689 C 0.22784 0.43895 0.47739 0.0
C2690 C 0.23726 0.45403 0.48479 0.0
C2691 C 0.25049 0.51808 0.56994 0.0
C2692 C 0.26162 0.50496 0.57896 0.0
C2693 C 0.24751 0.51739 0.55029 0.0
C2694 C 0.25558 0.50357 0.53924 0.0
C2695 C 0.26636 0.49019 0.54819 0.0
C2696 C 0.26942 0.49092 0.56787 0.0
C2697 C 0.25291 0.5033 0.5183 0.0
C2698 C 0.24442 0.48806 0.50993 0.0
C2699 C 0.25779 0.51844 0.50678 0.0
C2700 C 0.26769 0.5345 0.51466 0.0
C2701 C 0.28431 0.53219 0.52451 0.0
C2702 C 0.2935 0.54735 0.53203 0.0
C2703 C 0.28627 0.56492 0.52968 0.0
C2704 C 0.26986 0.56736 0.51976 0.0
C2705 C 0.2606 0.55224 0.51222 0.0
H2706 H 0.2934 0.57664 0.53552 0.0
H2707 H 0.20398 0.42977 0.46209 0.0
H2708 H 0.02544 0.25201 0.07936 0.0
H2709 H 0.02648 0.24757 0.04477 0.0
H2710 H 0.97134 0.26837 0.04005 0.0
H2711 H 0.97013 0.27242 0.07464 0.0
H2712 H 0.97455 0.23932 0.01906 0.0
H2713 H 0.0099 0.29403 0.02701 0.0
H2714 H 0.03442 0.31349 0.04019 0.0
H2715 H 0.07503 0.27683 0.01779 0.0
H2716 H 0.05074 0.25701 0.00469 0.0
H2717 H 0.97367 0.25475 0.9191 0.0
H2718 H 0.97434 0.26015 0.95357 0.0
H2719 H 0.02521 0.23045 0.9577 0.0
H2720 H 0.02467 0.22506 0.92317 0.0
H2721 H 0.02468 0.26375 0.97864 0.0
H2722 H 0.98819 0.20938 0.97041 0.0
H2723 H 0.96305 0.1911 0.95668 0.0
H2724 H 0.92371 0.22902 0.97927 0.0
H2725 H 0.94865 0.24769 0.9929 0.0
C2726 C 0.01361 0.25575 0.0709 0.0
C2727 C 0.9977 0.26255 0.07967 0.0
C2728 C 0.01422 0.25325 0.05113 0.0
C2729 C 0.99906 0.25784 0.03974 0.0
C2730 C 0.98319 0.26469 0.04852 0.0
C2731 C 0.9825 0.26698 0.06828 0.0
C2732 C 0.99951 0.25509 0.01875 0.0
C2733 C 0.98539 0.2449 0.01023 0.0
C2734 C 0.01384 0.26203 0.0072 0.0
C2735 C 0.02849 0.27393 0.01504 0.0
C2736 C 0.02406 0.29004 0.02502 0.0
C2737 C 0.03791 0.30115 0.03246 0.0
C2738 C 0.05627 0.29637 0.02988 0.0
C2739 C 0.06081 0.2805 0.0198 0.0
C2740 C 0.047 0.26933 0.01236 0.0
C2741 C 0.98508 0.24953 0.92734 0.0
C2742 C 0.99911 0.23945 0.91849 0.0
C2743 C 0.98539 0.25253 0.94701 0.0
C2744 C -0.00024 0.24559 0.95816 0.0
C2745 C 0.014 0.23589 0.94932 0.0
C2746 C 0.01361 0.23272 0.92966 0.0
C2747 C -0.00031 0.24814 0.97911 0.0
C2748 C 0.01387 0.25823 0.98756 0.0
C2749 C 0.98532 0.2413 0.99059 0.0
C2750 C 0.9703 0.23002 0.98251 0.0
C2751 C 0.97419 0.2139 0.97232 0.0
C2752 C 0.95997 0.20346 0.96458 0.0
C2753 C 0.94179 0.20892 0.96706 0.0
C2754 C 0.9378 0.22482 0.97733 0.0
C2755 C 0.95197 0.23533 0.98508 0.0
H2756 H 0.93081 0.20081 0.96106 0.0
H2757 H 0.06698 0.30499 0.03564 0.0
H2758 H 0.2858 0.98269 0.42557 0.0
H2759 H 0.28042 0.98417 0.45982 0.0
H2760 H 0.2269 0.00723 0.4498 0.0
H2761 H 0.2326 0.00681 0.41547 0.0
H2762 H 0.24269 0.02426 0.47844 0.0
H2763 H 0.23292 0.96148 0.46175 0.0
H2764 H 0.24048 0.93157 0.44746 0.0
H2765 H 0.28735 0.92694 0.48412 0.0
H2766 H 0.28022 0.95696 0.49844 0.0
H2767 H 0.20792 0.00513 0.57185 0.0
H2768 H 0.21312 0.00619 0.5374 0.0
H2769 H 0.26876 0.98816 0.54579 0.0
H2770 H 0.26382 0.9874 0.58024 0.0
H2771 H 0.25107 0.96857 0.51801 0.0
H2772 H 0.2602 0.0319 0.53459 0.0
H2773 H 0.25174 0.06157 0.54887 0.0
H2774 H 0.2046 0.06464 0.51241 0.0
H2775 H 0.21264 0.03485 0.49809 0.0
C2776 C 0.27298 0.98834 0.4306 0.0
C2777 C 0.25962 0.99459 0.41768 0.0
C2778 C 0.26983 0.98895 0.45023 0.0
C2779 C 0.25312 0.99551 0.4574 0.0
C2780 C 0.23985 0.00201 0.4446 0.0
C2781 C 0.24306 0.00157 0.42495 0.0
C2782 C 0.24951 0.99556 0.47825 0.0
C2783 C 0.24427 0.01202 0.48704 0.0
C2784 C 0.25186 0.97966 0.48956 0.0
C2785 C 0.25613 0.96155 0.48104 0.0
C2786 C 0.24492 0.95414 0.46667 0.0
C2787 C 0.24911 0.93716 0.45858 0.0
C2788 C 0.26441 0.92738 0.46485 0.0
C2789 C 0.27552 0.93454 0.47926 0.0
C2790 C 0.2714 0.95153 0.48738 0.0
C2791 C 0.22135 0.00166 0.5664 0.0
C2792 C 0.23544 0.99614 0.57882 0.0
C2793 C 0.22428 0.00222 0.5467 0.0
C2794 C 0.24134 0.99731 0.53906 0.0
C2795 C 0.25546 0.99192 0.5514 0.0
C2796 C 0.25258 0.99142 0.57108 0.0
C2797 C 0.24438 0.99728 0.51816 0.0
C2798 C 0.24948 0.9808 0.50937 0.0
C2799 C 0.24174 0.01311 0.50686 0.0
C2800 C 0.23692 0.03106 0.51541 0.0
C2801 C 0.24794 0.03883 0.52973 0.0
C2802 C 0.24324 0.05568 0.53781 0.0
C2803 C 0.22761 0.06496 0.53159 0.0
C2804 C 0.21668 0.05743 0.51723 0.0
C2805 C 0.22132 0.04057 0.50912 0.0
H2806 H 0.22399 0.07801 0.53786 0.0
H2807 H 0.26763 0.91423 0.45856 0.0
H2808 H 0.46721 0.7805 0.92448 0.0
H2809 H 0.46702 0.77525 0.95891 0.0
H2810 H 0.51427 0.74014 0.95345 0.0
H2811 H 0.51423 0.74507 0.91889 0.0
H2812 H 0.49072 0.72541 0.97708 0.0
H2813 H 0.51757 0.78481 0.97041 0.0
H2814 H 0.51967 0.81679 0.95935 0.0
H2815 H 0.47031 0.83 0.98962 0.0
H2816 H 0.46777 0.79803 0.00065 0.0
H2817 H 0.51459 0.72556 0.07548 0.0
H2818 H 0.51507 0.7307 0.04106 0.0
H2819 H 0.46389 0.75989 0.04484 0.0
H2820 H 0.46302 0.75443 0.07924 0.0
H2821 H 0.48992 0.77765 0.02233 0.0
H2822 H 0.46365 0.71747 0.02882 0.0
H2823 H 0.46265 0.68551 0.04011 0.0
H2824 H 0.51271 0.67394 0.01034 0.0
H2825 H 0.51414 0.70592 0.99909 0.0
C2826 C 0.47761 0.77174 0.93066 0.0
C2827 C 0.49082 0.76329 0.91906 0.0
C2828 C 0.47751 0.76877 0.95033 0.0
C2829 C 0.49083 0.75756 0.95883 0.0
C2830 C 0.50388 0.74888 0.94722 0.0
C2831 C 0.50385 0.75168 0.9275 0.0
C2832 C 0.49106 0.7548 0.97981 0.0
C2833 C 0.49082 0.73684 0.98695 0.0
C2834 C 0.49086 0.76971 0.99274 0.0
C2835 C 0.49239 0.78898 0.98621 0.0
C2836 C 0.50709 0.79451 0.9746 0.0
C2837 C 0.50837 0.81264 0.96835 0.0
C2838 C 0.49511 0.82541 0.97374 0.0
C2839 C 0.48056 0.82009 0.98544 0.0
C2840 C 0.4792 0.80197 0.99171 0.0
C2841 C 0.50332 0.73291 0.069 0.0
C2842 C 0.4887 0.73947 0.08014 0.0
C2843 C 0.50367 0.7359 0.04933 0.0
C2844 C 0.48944 0.74553 0.04041 0.0
C2845 C 0.47502 0.75244 0.05149 0.0
C2846 C 0.47459 0.74937 0.07115 0.0
C2847 C 0.48955 0.74831 0.01949 0.0
C2848 C 0.48986 0.76625 0.0124 0.0
C2849 C 0.49 0.7334 0.00662 0.0
C2850 C 0.48909 0.71414 0.01327 0.0
C2851 C 0.47452 0.70815 0.02481 0.0
C2852 C 0.47386 0.69002 0.03118 0.0
C2853 C 0.48763 0.67771 0.02599 0.0
C2854 C 0.50206 0.6835 0.01437 0.0
C2855 C 0.5028 0.70162 0.00798 0.0
H2856 H 0.4871 0.66369 0.03093 0.0
H2857 H 0.49612 0.83944 0.96889 0.0
H2858 H 0.77355 0.4633 0.57595 0.0
H2859 H 0.76975 0.46399 0.54141 0.0
H2860 H 0.75142 0.52006 0.54465 0.0
H2861 H 0.75414 0.51915 0.57934 0.0
H2862 H 0.73058 0.50186 0.52107 0.0
H2863 H 0.79538 0.50821 0.52932 0.0
H2864 H 0.826 0.5 0.54141 0.0
H2865 H 0.82307 0.44835 0.51231 0.0
H2866 H 0.7923 0.45615 0.50026 0.0
H2867 H 0.73897 0.5211 0.42219 0.0
H2868 H 0.74403 0.5213 0.45665 0.0
H2869 H 0.75678 0.46366 0.45512 0.0
H2870 H 0.75146 0.46325 0.4207 0.0
H2871 H 0.78082 0.48322 0.47758 0.0
H2872 H 0.71557 0.47721 0.46982 0.0
H2873 H 0.68518 0.48602 0.45755 0.0
H2874 H 0.68949 0.53808 0.48568 0.0
H2875 H 0.72004 0.52967 0.49789 0.0
C2876 C 0.7685 0.47573 0.56938 0.0
C2877 C 0.76417 0.49118 0.58049 0.0
C2878 C 0.76657 0.47617 0.54956 0.0
C2879 C 0.76059 0.49217 0.54038 0.0
C2880 C 0.75617 0.50759 0.55141 0.0
C2881 C 0.75792 0.5071 0.57125 0.0
C2882 C 0.75859 0.49272 0.5193 0.0
C2883 C 0.74167 0.49806 0.51158 0.0
C2884 C 0.77293 0.48739 0.50688 0.0
C2885 C 0.79147 0.4827 0.51403 0.0
C2886 C 0.80121 0.49505 0.52561 0.0
C2887 C 0.8186 0.49048 0.53244 0.0
C2888 C 0.82646 0.47365 0.52767 0.0
C2889 C 0.81696 0.46137 0.51601 0.0
C2890 C 0.79955 0.46587 0.50916 0.0
C2891 C 0.74274 0.50843 0.42919 0.0
C2892 C 0.7447 0.49213 0.41869 0.0
C2893 C 0.74569 0.50859 0.44887 0.0
C2894 C 0.7506 0.49245 0.45845 0.0
C2895 C 0.75303 0.47627 0.44798 0.0
C2896 C 0.75004 0.47608 0.4283 0.0
C2897 C 0.75287 0.49236 0.47945 0.0
C2898 C 0.76979 0.48709 0.48713 0.0
C2899 C 0.73859 0.49786 0.49183 0.0
C2900 C 0.72017 0.50288 0.48461 0.0
C2901 C 0.7101 0.49059 0.47327 0.0
C2902 C 0.69284 0.4955 0.46634 0.0
C2903 C 0.68543 0.51262 0.47079 0.0
C2904 C 0.69525 0.52483 0.48222 0.0
C2905 C 0.71254 0.52 0.48916 0.0
H2906 H 0.67206 0.5164 0.46542 0.0
H2907 H 0.83992 0.47013 0.53297 0.0
H2908 H 0.98109 0.76812 0.07752 0.0
H2909 H 0.98068 0.76309 0.04301 0.0
H2910 H 0.03295 0.7358 0.04656 0.0
H2911 H 0.0336 0.74108 0.08103 0.0
H2912 H 0.0317 0.76072 0.01739 0.0
H2913 H 0.99476 0.71116 0.0408 0.0
H2914 H 0.96952 0.69712 0.05901 0.0
H2915 H 0.93034 0.72755 0.02615 0.0
H2916 H 0.95537 0.74197 0.00791 0.0
H2917 H 0.03324 0.72119 0.92521 0.0
H2918 H 0.03308 0.72585 0.95973 0.0
H2919 H 0.97961 0.75068 0.95593 0.0
H2920 H 0.97969 0.74607 0.92136 0.0
H2921 H 0.98126 0.72721 0.98528 0.0
H2922 H 0.01773 0.77687 0.96192 0.0
H2923 H 0.0427 0.79138 0.94372 0.0
H2924 H 0.08244 0.76157 0.97647 0.0
H2925 H 0.05767 0.74666 0.9947 0.0
C2926 C 0.99253 0.76112 0.07093 0.0
C2927 C 0.00737 0.75497 0.08199 0.0
C2928 C 0.99221 0.75814 0.05125 0.0
C2929 C 0.00672 0.74894 0.04226 0.0
C2930 C 0.02159 0.74288 0.05324 0.0
C2931 C 0.02188 0.74578 0.07293 0.0
C2932 C 0.00651 0.74588 0.02137 0.0
C2933 C 0.02081 0.75318 0.01038 0.0
C2934 C 0.99203 0.73647 0.01221 0.0
C2935 C 0.97695 0.72778 0.02312 0.0
C2936 C 0.98077 0.71497 0.03757 0.0
C2937 C 0.96649 0.70692 0.04787 0.0
C2938 C 0.94834 0.71148 0.04378 0.0
C2939 C 0.94441 0.72405 0.02932 0.0
C2940 C 0.95863 0.73216 0.01899 0.0
C2941 C 0.02151 0.72778 0.9317 0.0
C2942 C 0.00652 0.73335 0.92054 0.0
C2943 C 0.02143 0.73041 0.95143 0.0
C2944 C 0.00643 0.73882 0.96038 0.0
C2945 C 0.99132 0.74416 0.94932 0.0
C2946 C 0.99137 0.74148 0.92958 0.0
C2947 C 0.0065 0.742 0.98128 0.0
C2948 C 0.99216 0.73476 0.99227 0.0
C2949 C 0.0209 0.75154 0.99044 0.0
C2950 C 0.03583 0.76051 0.97955 0.0
C2951 C 0.03178 0.77329 0.96514 0.0
C2952 C 0.0459 0.78161 0.95484 0.0
C2953 C 0.06414 0.77736 0.9589 0.0
C2954 C 0.0683 0.76482 0.97332 0.0
C2955 C 0.05423 0.75645 0.98365 0.0
H2956 H 0.07505 0.78382 0.95091 0.0
H2957 H 0.9373 0.70523 0.05177 0.0
H2958 H 0.74512 0.03611 0.57898 0.0
H2959 H 0.74955 0.03603 0.54442 0.0
H2960 H 0.7391 0.97791 0.54297 0.0
H2961 H 0.73524 0.97777 0.57761 0.0
H2962 H 0.7677 0.98672 0.52069 0.0
H2963 H 0.7063 0.00808 0.52962 0.0
H2964 H 0.68198 0.02774 0.54284 0.0
H2965 H 0.70707 0.07502 0.5175 0.0
H2966 H 0.73171 0.05566 0.50434 0.0
H2967 H 0.75054 0.97859 0.42116 0.0
H2968 H 0.74699 0.97867 0.45582 0.0
H2969 H 0.76084 0.03604 0.4574 0.0
H2970 H 0.76488 0.03603 0.4228 0.0
H2971 H 0.73055 0.02764 0.4795 0.0
H2972 H 0.79193 0.00572 0.47038 0.0
H2973 H 0.8158 0.98563 0.45697 0.0
H2974 H 0.79006 0.93881 0.48252 0.0
H2975 H 0.76586 0.9586 0.49586 0.0
C2976 C 0.74398 0.02327 0.57134 0.0
C2977 C 0.73975 0.00695 0.58104 0.0
C2978 C 0.74634 0.02328 0.55157 0.0
C2979 C 0.74441 0.00701 0.5411 0.0
C2980 C 0.74056 0.99064 0.55077 0.0
C2981 C 0.7382 0.99061 0.57054 0.0
C2982 C 0.74635 0.00706 0.52004 0.0
C2983 C 0.75942 0.99549 0.51167 0.0
C2984 C 0.73577 0.01876 0.50831 0.0
C2985 C 0.72096 0.03044 0.51616 0.0
C2986 C 0.70672 0.02269 0.527 0.0
C2987 C 0.69286 0.03377 0.53446 0.0
C2988 C 0.69301 0.05262 0.53106 0.0
C2989 C 0.70699 0.06042 0.52014 0.0
C2990 C 0.7209 0.04939 0.51267 0.0
C2991 C 0.75303 0.99119 0.42887 0.0
C2992 C 0.75808 0.00729 0.41916 0.0
C2993 C 0.75092 0.99122 0.44867 0.0
C2994 C 0.75379 0.00733 0.45916 0.0
C2995 C 0.75852 0.02348 0.44954 0.0
C2996 C 0.76074 0.02345 0.42975 0.0
C2997 C 0.7519 0.00732 0.48019 0.0
C2998 C 0.73884 0.01888 0.48855 0.0
C2999 C 0.76241 0.99555 0.4919 0.0
C3000 C 0.77698 0.98362 0.48395 0.0
C3001 C 0.79127 0.99112 0.473 0.0
C3002 C 0.80488 0.97979 0.46544 0.0
C3003 C 0.80442 0.96095 0.46884 0.0
C3004 C 0.79038 0.9534 0.47987 0.0
C3005 C 0.77672 0.96467 0.48745 0.0
H3006 H 0.81497 0.9522 0.46298 0.0
H3007 H 0.68226 0.06118 0.53684 0.0
loop_
_geom_bond_atom_site_label_1
_geom_bond_atom_site_label_2
_geom_bond_distance
_geom_bond_site_symmetry_2
_ccdc_geom_bond_type
Li0 N17 1.990 . S
Li0 O60 1.956 . S
Li0 O61 1.970 . S
Li0 O62 1.961 . S
Li1 N25 1.990 . S
Li1 O60 1.970 . S
Li1 O61 1.956 . S
Li1 O63 1.961 . S
Li2 N47 1.990 . S
Li2 O60 1.961 . S
Li2 O62 1.956 . S
Li2 O63 1.970 . S
Li3 N53 1.990 . S
Li3 O61 1.961 . S
Li3 O62 1.970 . S
Li3 O63 1.956 . S
C4 C6 1.348 . S
C4 C7 1.356 . S
C4 O60 1.325 . S
N5 C8 1.314 . S
N5 C9 1.279 . S
C6 C4 1.348 . S
C6 C8 1.353 . S
C6 H64 0.929 . S
C7 C4 1.356 . S
C7 C9 1.358 . S
C7 H65 0.930 . S
C8 N5 1.314 . S
C8 C6 1.353 . S
C8 H66 0.930 . S
C9 N5 1.279 . S
C9 C7 1.358 . S
C9 H67 0.930 . S
C10 C13 1.348 . S
C10 C14 1.356 . S
C10 O61 1.325 . S
C11 N12 1.279 . S
C11 C14 1.358 . S
C11 H68 0.930 . S
N12 C11 1.279 . S
N12 C15 1.314 . S
C13 C10 1.348 . S
C13 C15 1.353 . S
C13 H69 0.929 . S
C14 C10 1.356 . S
C14 C11 1.358 . S
C14 H70 0.930 . S
C15 N12 1.314 . S
C15 C13 1.353 . S
C15 H71 0.930 . S
C16 N17 1.314 . S
C16 C21 1.353 . S
C16 H22 0.930 . S
N17 Li0 1.990 . S
N17 C16 1.314 . S
N17 C19 1.279 . S
C18 C19 1.358 . S
C18 C20 1.356 . S
C18 H72 0.930 . S
C19 N17 1.279 . S
C19 C18 1.358 . S
C19 H23 0.930 . S
C20 C18 1.356 . S
C20 C21 1.348 . S
C21 C16 1.353 . S
C21 C20 1.348 . S
C21 H73 0.929 . S
H22 C16 0.930 . S
H23 C19 0.930 . S
C24 N25 1.314 . S
C24 C26 1.353 . S
C24 H30 0.930 . S
N25 Li1 1.990 . S
N25 C24 1.314 . S
N25 C28 1.279 . S
C26 C24 1.353 . S
C26 C29 1.348 . S
C26 H74 0.929 . S
C27 C28 1.358 . S
C27 C29 1.356 . S
C27 H75 0.930 . S
C28 N25 1.279 . S
C28 C27 1.358 . S
C28 H31 0.930 . S
C29 C26 1.348 . S
C29 C27 1.356 . S
H30 C24 0.930 . S
H31 C28 0.930 . S
C32 C34 1.348 . S
C32 C35 1.356 . S
C32 O62 1.325 . S
N33 C36 1.314 . S
N33 C37 1.279 . S
C34 C32 1.348 . S
C34 C36 1.353 . S
C34 H76 0.929 . S
C35 C32 1.356 . S
C35 C37 1.358 . S
C35 H77 0.930 . S
C36 N33 1.314 . S
C36 C34 1.353 . S
C36 H78 0.930 . S
C37 N33 1.279 . S
C37 C35 1.358 . S
C37 H79 0.930 . S
C38 C39 1.348 . S
C38 C40 1.356 . S
C38 O63 1.325 . S
C39 C38 1.348 . S
C39 C41 1.353 . S
C39 H80 0.929 . S
C40 C38 1.356 . S
C40 C42 1.358 . S
C40 H81 0.930 . S
C41 C39 1.353 . S
C41 N43 1.314 . S
C41 H82 0.930 . S
C42 C40 1.358 . S
C42 N43 1.279 . S
C42 H83 0.930 . S
N43 C41 1.314 . S
N43 C42 1.279 . S
C44 C46 1.353 . S
C44 N47 1.314 . S
C44 H50 0.930 . S
C45 N47 1.279 . S
C45 C48 1.358 . S
C45 H51 0.930 . S
C46 C44 1.353 . S
C46 C49 1.348 . S
C46 H84 0.929 . S
N47 Li2 1.990 . S
N47 C44 1.314 . S
N47 C45 1.279 . S
C48 C45 1.358 . S
C48 C49 1.356 . S
C48 H85 0.930 . S
C49 C46 1.348 . S
C49 C48 1.356 . S
H50 C44 0.930 . S
H51 C45 0.930 . S
C52 N53 1.314 . S
C52 C54 1.353 . S
C52 H58 0.930 . S
N53 Li3 1.990 . S
N53 C52 1.314 . S
N53 C56 1.279 . S
C54 C52 1.353 . S
C54 C57 1.348 . S
C54 H86 0.929 . S
C55 C56 1.358 . S
C55 C57 1.356 . S
C55 H87 0.930 . S
C56 N53 1.279 . S
C56 C55 1.358 . S
C56 H59 0.930 . S
C57 C54 1.348 . S
C57 C55 1.356 . S
H58 C52 0.930 . S
H59 C56 0.930 . S
O60 Li0 1.956 . S
O60 Li1 1.970 . S
O60 Li2 1.961 . S
O60 C4 1.325 . S
O61 Li0 1.970 . S
O61 Li1 1.956 . S
O61 Li3 1.961 . S
O61 C10 1.325 . S
O62 Li0 1.961 . S
O62 Li2 1.956 . S
O62 Li3 1.970 . S
O62 C32 1.325 . S
O63 Li1 1.961 . S
O63 Li2 1.970 . S
O63 Li3 1.956 . S
O63 C38 1.325 . S
H64 C6 0.929 . S
H65 C7 0.930 . S
H66 C8 0.930 . S
H67 C9 0.930 . S
H68 C11 0.930 . S
H69 C13 0.929 . S
H70 C14 0.930 . S
H71 C15 0.930 . S
H72 C18 0.930 . S
H73 C21 0.929 . S
H74 C26 0.929 . S
H75 C27 0.930 . S
H76 C34 0.929 . S
H77 C35 0.930 . S
H78 C36 0.930 . S
H79 C37 0.930 . S
H80 C39 0.929 . S
H81 C40 0.930 . S
H82 C41 0.930 . S
H83 C42 0.930 . S
H84 C46 0.929 . S
H85 C48 0.930 . S
H86 C54 0.929 . S
H87 C55 0.930 . S
Li88 N105 1.990 . S
Li88 O148 1.956 . S
Li88 O149 1.970 . S
Li88 O150 1.961 . S
Li89 N113 1.990 . S
Li89 O148 1.970 . S
Li89 O149 1.956 . S
Li89 O151 1.961 . S
Li90 N135 1.990 . S
Li90 O148 1.961 . S
Li90 O150 1.956 . S
Li90 O151 1.970 . S
Li91 N141 1.990 . S
Li91 O149 1.961 . S
Li91 O150 1.970 . S
Li91 O151 1.956 . S
C92 C94 1.348 . S
C92 C95 1.356 . S
C92 O148 1.325 . S
N93 C96 1.314 . S
N93 C97 1.279 . S
C94 C92 1.348 . S
C94 C96 1.353 . S
C94 H152 0.929 . S
C95 C92 1.356 . S
C95 C97 1.358 . S
C95 H153 0.930 . S
C96 N93 1.314 . S
C96 C94 1.353 . S
C96 H154 0.930 . S
C97 N93 1.279 . S
C97 C95 1.358 . S
C97 H155 0.930 . S
C98 C101 1.348 . S
C98 C102 1.356 . S
C98 O149 1.325 . S
C99 N100 1.279 . S
C99 C102 1.358 . S
C99 H156 0.930 . S
N100 C99 1.279 . S
N100 C103 1.314 . S
C101 C98 1.348 . S
C101 C103 1.353 . S
C101 H157 0.929 . S
C102 C98 1.356 . S
C102 C99 1.358 . S
C102 H158 0.930 . S
C103 N100 1.314 . S
C103 C101 1.353 . S
C103 H159 0.930 . S
C104 N105 1.314 . S
C104 C109 1.353 . S
C104 H110 0.930 . S
N105 Li88 1.990 . S
N105 C104 1.314 . S
N105 C107 1.279 . S
C106 C107 1.358 . S
C106 C108 1.356 . S
C106 H160 0.930 . S
C107 N105 1.279 . S
C107 C106 1.358 . S
C107 H111 0.930 . S
C108 C106 1.356 . S
C108 C109 1.348 . S
C109 C104 1.353 . S
C109 C108 1.348 . S
C109 H161 0.929 . S
H110 C104 0.930 . S
H111 C107 0.930 . S
C112 N113 1.314 . S
C112 C114 1.353 . S
C112 H118 0.930 . S
N113 Li89 1.990 . S
N113 C112 1.314 . S
N113 C116 1.279 . S
C114 C112 1.353 . S
C114 C117 1.348 . S
C114 H162 0.929 . S
C115 C116 1.358 . S
C115 C117 1.356 . S
C115 H163 0.930 . S
C116 N113 1.279 . S
C116 C115 1.358 . S
C116 H119 0.930 . S
C117 C114 1.348 . S
C117 C115 1.356 . S
H118 C112 0.930 . S
H119 C116 0.930 . S
C120 C122 1.348 . S
C120 C123 1.356 . S
C120 O150 1.325 . S
N121 C124 1.314 . S
N121 C125 1.279 . S
C122 C120 1.348 . S
C122 C124 1.353 . S
C122 H164 0.929 . S
C123 C120 1.356 . S
C123 C125 1.358 . S
C123 H165 0.930 . S
C124 N121 1.314 . S
C124 C122 1.353 . S
C124 H166 0.930 . S
C125 N121 1.279 . S
C125 C123 1.358 . S
C125 H167 0.930 . S
C126 C127 1.348 . S
C126 C128 1.356 . S
C126 O151 1.325 . S
C127 C126 1.348 . S
C127 C129 1.353 . S
C127 H168 0.929 . S
C128 C126 1.356 . S
C128 C130 1.358 . S
C128 H169 0.930 . S
C129 C127 1.353 . S
C129 N131 1.314 . S
C129 H170 0.930 . S
C130 C128 1.358 . S
C130 N131 1.279 . S
C130 H171 0.930 . S
N131 C129 1.314 . S
N131 C130 1.279 . S
C132 C134 1.353 . S
C132 N135 1.314 . S
C132 H138 0.930 . S
C133 N135 1.279 . S
C133 C136 1.358 . S
C133 H139 0.930 . S
C134 C132 1.353 . S
C134 C137 1.348 . S
C134 H172 0.929 . S
N135 Li90 1.990 . S
N135 C132 1.314 . S
N135 C133 1.279 . S
C136 C133 1.358 . S
C136 C137 1.356 . S
C136 H173 0.930 . S
C137 C134 1.348 . S
C137 C136 1.356 . S
H138 C132 0.930 . S
H139 C133 0.930 . S
C140 N141 1.314 . S
C140 C142 1.353 . S
C140 H146 0.930 . S
N141 Li91 1.990 . S
N141 C140 1.314 . S
N141 C144 1.279 . S
C142 C140 1.353 . S
C142 C145 1.348 . S
C142 H174 0.929 . S
C143 C144 1.358 . S
C143 C145 1.356 . S
C143 H175 0.930 . S
C144 N141 1.279 . S
C144 C143 1.358 . S
C144 H147 0.930 . S
C145 C142 1.348 . S
C145 C143 1.356 . S
H146 C140 0.930 . S
H147 C144 0.930 . S
O148 Li88 1.956 . S
O148 Li89 1.970 . S
O148 Li90 1.961 . S
O148 C92 1.325 . S
O149 Li88 1.970 . S
O149 Li89 1.956 . S
O149 Li91 1.961 . S
O149 C98 1.325 . S
O150 Li88 1.961 . S
O150 Li90 1.956 . S
O150 Li91 1.970 . S
O150 C120 1.325 . S
O151 Li89 1.961 . S
O151 Li90 1.970 . S
O151 Li91 1.956 . S
O151 C126 1.325 . S
H152 C94 0.929 . S
H153 C95 0.930 . S
H154 C96 0.930 . S
H155 C97 0.930 . S
H156 C99 0.930 . S
H157 C101 0.929 . S
H158 C102 0.930 . S
H159 C103 0.930 . S
H160 C106 0.930 . S
H161 C109 0.929 . S
H162 C114 0.929 . S
H163 C115 0.930 . S
H164 C122 0.929 . S
H165 C123 0.930 . S
H166 C124 0.930 . S
H167 C125 0.930 . S
H168 C127 0.929 . S
H169 C128 0.930 . S
H170 C129 0.930 . S
H171 C130 0.930 . S
H172 C134 0.929 . S
H173 C136 0.930 . S
H174 C142 0.929 . S
H175 C143 0.930 . S
Li176 N193 1.990 . S
Li176 O236 1.956 . S
Li176 O237 1.970 . S
Li176 O238 1.961 . S
Li177 N201 1.990 . S
Li177 O236 1.970 1_455 S
Li177 O237 1.956 1_455 S
Li177 O239 1.961 . S
Li178 N223 1.990 . S
Li178 O236 1.961 . S
Li178 O238 1.956 . S
Li178 O239 1.970 1_655 S
Li179 N229 1.990 . S
Li179 O237 1.961 . S
Li179 O238 1.970 . S
Li179 O239 1.956 1_655 S
C180 C182 1.348 1_655 S
C180 C183 1.356 . S
C180 O236 1.325 . S
N181 C184 1.314 1_655 S
N181 C185 1.279 . S
C182 C180 1.348 1_455 S
C182 C184 1.353 . S
C182 H240 0.929 . S
C183 C180 1.356 . S
C183 C185 1.358 . S
C183 H241 0.930 . S
C184 N181 1.314 1_455 S
C184 C182 1.353 . S
C184 H242 0.930 . S
C185 N181 1.279 . S
C185 C183 1.358 . S
C185 H243 0.930 . S
C186 C189 1.348 . S
C186 C190 1.356 . S
C186 O237 1.325 . S
C187 N188 1.279 . S
C187 C190 1.358 . S
C187 H244 0.930 . S
N188 C187 1.279 . S
N188 C191 1.314 . S
C189 C186 1.348 . S
C189 C191 1.353 . S
C189 H245 0.929 . S
C190 C186 1.356 . S
C190 C187 1.358 . S
C190 H246 0.930 . S
C191 N188 1.314 . S
C191 C189 1.353 . S
C191 H247 0.930 . S
C192 N193 1.314 . S
C192 C197 1.353 . S
C192 H198 0.930 . S
N193 Li176 1.990 . S
N193 C192 1.314 . S
N193 C195 1.279 . S
C194 C195 1.358 . S
C194 C196 1.356 . S
C194 H248 0.930 . S
C195 N193 1.279 . S
C195 C194 1.358 . S
C195 H199 0.930 . S
C196 C194 1.356 . S
C196 C197 1.348 . S
C197 C192 1.353 . S
C197 C196 1.348 . S
C197 H249 0.929 . S
H198 C192 0.930 . S
H199 C195 0.930 . S
C200 N201 1.314 . S
C200 C202 1.353 . S
C200 H206 0.930 . S
N201 Li177 1.990 . S
N201 C200 1.314 . S
N201 C204 1.279 . S
C202 C200 1.353 . S
C202 C205 1.348 . S
C202 H250 0.929 . S
C203 C204 1.358 . S
C203 C205 1.356 . S
C203 H251 0.930 . S
C204 N201 1.279 . S
C204 C203 1.358 . S
C204 H207 0.930 . S
C205 C202 1.348 . S
C205 C203 1.356 . S
H206 C200 0.930 . S
H207 C204 0.930 . S
C208 C210 1.348 . S
C208 C211 1.356 . S
C208 O238 1.325 . S
N209 C212 1.314 . S
N209 C213 1.279 . S
C210 C208 1.348 . S
C210 C212 1.353 . S
C210 H252 0.929 . S
C211 C208 1.356 . S
C211 C213 1.358 . S
C211 H253 0.930 . S
C212 N209 1.314 . S
C212 C210 1.353 . S
C212 H254 0.930 . S
C213 N209 1.279 . S
C213 C211 1.358 . S
C213 H255 0.930 . S
C214 C215 1.348 . S
C214 C216 1.356 . S
C214 O239 1.325 . S
C215 C214 1.348 . S
C215 C217 1.353 . S
C215 H256 0.929 . S
C216 C214 1.356 . S
C216 C218 1.358 . S
C216 H257 0.930 . S
C217 C215 1.353 . S
C217 N219 1.314 . S
C217 H258 0.930 . S
C218 C216 1.358 . S
C218 N219 1.279 . S
C218 H259 0.930 . S
N219 C217 1.314 . S
N219 C218 1.279 . S
C220 C222 1.360 . S
C220 N223 1.287 1_455 S
C220 H226 0.954 . S
C221 N223 1.279 . S
C221 C224 1.358 . S
C221 H227 0.930 . S
C222 C220 1.360 . S
C222 C225 1.348 1_455 S
C222 H260 0.929 . S
N223 Li178 1.990 . S
N223 C220 1.287 1_655 S
N223 C221 1.279 . S
C224 C221 1.358 . S
C224 C225 1.356 . S
C224 H261 0.930 . S
C225 C222 1.348 1_655 S
C225 C224 1.356 . S
H226 C220 0.954 . S
H227 C221 0.930 . S
C228 N229 1.314 . S
C228 C230 1.353 . S
C228 H234 0.930 . S
N229 Li179 1.990 . S
N229 C228 1.314 . S
N229 C232 1.279 . S
C230 C228 1.353 . S
C230 C233 1.348 . S
C230 H262 0.929 . S
C231 C232 1.358 . S
C231 C233 1.356 . S
C231 H263 0.930 . S
C232 N229 1.279 . S
C232 C231 1.358 . S
C232 H235 0.930 . S
C233 C230 1.348 . S
C233 C231 1.356 . S
H234 C228 0.930 . S
H235 C232 0.930 . S
O236 Li176 1.956 . S
O236 Li177 1.970 1_655 S
O236 Li178 1.961 . S
O236 C180 1.325 . S
O237 Li176 1.970 . S
O237 Li177 1.956 1_655 S
O237 Li179 1.961 . S
O237 C186 1.325 . S
O238 Li176 1.961 . S
O238 Li178 1.956 . S
O238 Li179 1.970 . S
O238 C208 1.325 . S
O239 Li177 1.961 . S
O239 Li178 1.970 1_455 S
O239 Li179 1.956 1_455 S
O239 C214 1.325 . S
H240 C182 0.929 . S
H241 C183 0.930 . S
H242 C184 0.930 . S
H243 C185 0.930 . S
H244 C187 0.930 . S
H245 C189 0.929 . S
H246 C190 0.930 . S
H247 C191 0.930 . S
H248 C194 0.930 . S
H249 C197 0.929 . S
H250 C202 0.929 . S
H251 C203 0.930 . S
H252 C210 0.929 . S
H253 C211 0.930 . S
H254 C212 0.930 . S
H255 C213 0.930 . S
H256 C215 0.929 . S
H257 C216 0.930 . S
H258 C217 0.930 . S
H259 C218 0.930 . S
H260 C222 0.929 . S
H261 C224 0.930 . S
H262 C230 0.929 . S
H263 C231 0.930 . S
Li264 N281 1.990 . S
Li264 O324 1.956 . S
Li264 O325 1.970 . S
Li264 O326 1.961 . S
Li265 N289 1.990 . S
Li265 O324 1.970 1_545 S
Li265 O325 1.956 1_545 S
Li265 O327 1.961 . S
Li266 N311 1.990 . S
Li266 O324 1.961 . S
Li266 O326 1.956 . S
Li266 O327 1.970 1_565 S
Li267 N317 1.990 . S
Li267 O325 1.961 . S
Li267 O326 1.970 . S
Li267 O327 1.956 1_565 S
C268 C270 1.348 1_565 S
C268 C271 1.356 . S
C268 O324 1.325 . S
N269 C272 1.314 1_565 S
N269 C273 1.279 . S
C270 C268 1.348 1_545 S
C270 C272 1.353 . S
C270 H328 0.929 . S
C271 C268 1.356 . S
C271 C273 1.358 . S
C271 H329 0.930 . S
C272 N269 1.314 1_545 S
C272 C270 1.353 . S
C272 H330 0.930 . S
C273 N269 1.279 . S
C273 C271 1.358 . S
C273 H331 0.930 . S
C274 C277 1.348 . S
C274 C278 1.356 . S
C274 O325 1.325 . S
C275 N276 1.279 . S
C275 C278 1.358 . S
C275 H332 0.930 . S
N276 C275 1.279 . S
N276 C279 1.314 . S
C277 C274 1.348 . S
C277 C279 1.353 . S
C277 H333 0.929 . S
C278 C274 1.356 . S
C278 C275 1.358 . S
C278 H334 0.930 . S
C279 N276 1.314 . S
C279 C277 1.353 . S
C279 H335 0.930 . S
C280 N281 1.314 . S
C280 C285 1.353 . S
C280 H286 0.930 . S
N281 Li264 1.990 . S
N281 C280 1.314 . S
N281 C283 1.279 . S
C282 C283 1.358 . S
C282 C284 1.356 . S
C282 H336 0.930 . S
C283 N281 1.279 . S
C283 C282 1.358 . S
C283 H287 0.930 . S
C284 C282 1.356 . S
C284 C285 1.348 . S
C285 C280 1.353 . S
C285 C284 1.348 . S
C285 H337 0.929 . S
H286 C280 0.930 . S
H287 C283 0.930 . S
C288 N289 1.314 . S
C288 C290 1.353 . S
C288 H294 0.930 . S
N289 Li265 1.990 . S
N289 C288 1.314 . S
N289 C292 1.279 . S
C290 C288 1.353 . S
C290 C293 1.348 . S
C290 H338 0.929 . S
C291 C292 1.358 . S
C291 C293 1.356 . S
C291 H339 0.930 . S
C292 N289 1.279 . S
C292 C291 1.358 . S
C292 H295 0.930 . S
C293 C290 1.348 . S
C293 C291 1.356 . S
H294 C288 0.930 . S
H295 C292 0.930 . S
C296 C298 1.348 . S
C296 C299 1.356 . S
C296 O326 1.325 . S
N297 C300 1.314 . S
N297 C301 1.279 . S
C298 C296 1.348 . S
C298 C300 1.353 . S
C298 H340 0.929 . S
C299 C296 1.356 . S
C299 C301 1.358 . S
C299 H341 0.930 . S
C300 N297 1.314 . S
C300 C298 1.353 . S
C300 H342 0.930 . S
C301 N297 1.279 . S
C301 C299 1.358 . S
C301 H343 0.930 . S
C302 C303 1.348 . S
C302 C304 1.356 . S
C302 O327 1.325 . S
C303 C302 1.348 . S
C303 C305 1.353 . S
C303 H344 0.929 . S
C304 C302 1.356 . S
C304 C306 1.358 . S
C304 H345 0.930 . S
C305 C303 1.353 . S
C305 N307 1.314 . S
C305 H346 0.930 . S
C306 C304 1.358 . S
C306 N307 1.279 . S
C306 H347 0.930 . S
N307 C305 1.314 . S
N307 C306 1.279 . S
C308 C310 1.360 . S
C308 N311 1.287 1_545 S
C308 H314 0.954 . S
C309 N311 1.279 . S
C309 C312 1.358 . S
C309 H315 0.930 . S
C310 C308 1.360 . S
C310 C313 1.348 1_545 S
C310 H348 0.929 . S
N311 Li266 1.990 . S
N311 C308 1.287 1_565 S
N311 C309 1.279 . S
C312 C309 1.358 . S
C312 C313 1.356 . S
C312 H349 0.930 . S
C313 C310 1.348 1_565 S
C313 C312 1.356 . S
H314 C308 0.954 . S
H315 C309 0.930 . S
C316 N317 1.314 . S
C316 C318 1.353 . S
C316 H322 0.930 . S
N317 Li267 1.990 . S
N317 C316 1.314 . S
N317 C320 1.279 . S
C318 C316 1.353 . S
C318 C321 1.348 . S
C318 H350 0.929 . S
C319 C320 1.358 . S
C319 C321 1.356 . S
C319 H351 0.930 . S
C320 N317 1.279 . S
C320 C319 1.358 . S
C320 H323 0.930 . S
C321 C318 1.348 . S
C321 C319 1.356 . S
H322 C316 0.930 . S
H323 C320 0.930 . S
O324 Li264 1.956 . S
O324 Li265 1.970 1_565 S
O324 Li266 1.961 . S
O324 C268 1.325 . S
O325 Li264 1.970 . S
O325 Li265 1.956 1_565 S
O325 Li267 1.961 . S
O325 C274 1.325 . S
O326 Li264 1.961 . S
O326 Li266 1.956 . S
O326 Li267 1.970 . S
O326 C296 1.325 . S
O327 Li265 1.961 . S
O327 Li266 1.970 1_545 S
O327 Li267 1.956 1_545 S
O327 C302 1.325 . S
H328 C270 0.929 . S
H329 C271 0.930 . S
H330 C272 0.930 . S
H331 C273 0.930 . S
H332 C275 0.930 . S
H333 C277 0.929 . S
H334 C278 0.930 . S
H335 C279 0.930 . S
H336 C282 0.930 . S
H337 C285 0.929 . S
H338 C290 0.929 . S
H339 C291 0.930 . S
H340 C298 0.929 . S
H341 C299 0.930 . S
H342 C300 0.930 . S
H343 C301 0.930 . S
H344 C303 0.929 . S
H345 C304 0.930 . S
H346 C305 0.930 . S
H347 C306 0.930 . S
H348 C310 0.929 . S
H349 C312 0.930 . S
H350 C318 0.929 . S
H351 C319 0.930 . S
Li352 N369 1.990 . S
Li352 O412 1.956 . S
Li352 O413 1.970 . S
Li352 O414 1.961 . S
Li353 N377 1.990 . S
Li353 O412 1.970 . S
Li353 O413 1.956 . S
Li353 O415 1.961 . S
Li354 N399 1.990 . S
Li354 O412 1.961 . S
Li354 O414 1.956 . S
Li354 O415 1.970 . S
Li355 N405 1.990 . S
Li355 O413 1.961 . S
Li355 O414 1.970 . S
Li355 O415 1.956 . S
C356 C358 1.348 . S
C356 C359 1.356 . S
C356 O412 1.325 . S
N357 C360 1.314 . S
N357 C361 1.279 . S
C358 C356 1.348 . S
C358 C360 1.353 . S
C358 H416 0.929 . S
C359 C356 1.356 . S
C359 C361 1.358 . S
C359 H417 0.930 . S
C360 N357 1.314 . S
C360 C358 1.353 . S
C360 H418 0.930 . S
C361 N357 1.279 . S
C361 C359 1.358 . S
C361 H419 0.930 . S
C362 C365 1.348 . S
C362 C366 1.356 . S
C362 O413 1.325 . S
C363 N364 1.279 . S
C363 C366 1.358 . S
C363 H420 0.930 . S
N364 C363 1.279 . S
N364 C367 1.314 . S
C365 C362 1.348 . S
C365 C367 1.353 . S
C365 H421 0.929 . S
C366 C362 1.356 . S
C366 C363 1.358 . S
C366 H422 0.930 . S
C367 N364 1.314 . S
C367 C365 1.353 . S
C367 H423 0.930 . S
C368 N369 1.314 . S
C368 C373 1.353 . S
C368 H374 0.930 . S
N369 Li352 1.990 . S
N369 C368 1.314 . S
N369 C371 1.279 . S
C370 C371 1.358 . S
C370 C372 1.356 . S
C370 H424 0.930 . S
C371 N369 1.279 . S
C371 C370 1.358 . S
C371 H375 0.930 . S
C372 C370 1.356 . S
C372 C373 1.348 . S
C373 C368 1.353 . S
C373 C372 1.348 . S
C373 H425 0.929 . S
H374 C368 0.930 . S
H375 C371 0.930 . S
C376 N377 1.314 . S
C376 C378 1.353 . S
C376 H382 0.930 . S
N377 Li353 1.990 . S
N377 C376 1.314 . S
N377 C380 1.279 . S
C378 C376 1.353 . S
C378 C381 1.348 . S
C378 H426 0.929 . S
C379 C380 1.358 . S
C379 C381 1.356 . S
C379 H427 0.930 . S
C380 N377 1.279 . S
C380 C379 1.358 . S
C380 H383 0.930 . S
C381 C378 1.348 . S
C381 C379 1.356 . S
H382 C376 0.930 . S
H383 C380 0.930 . S
C384 C386 1.348 . S
C384 C387 1.356 . S
C384 O414 1.325 . S
N385 C388 1.314 . S
N385 C389 1.279 . S
C386 C384 1.348 . S
C386 C388 1.353 . S
C386 H428 0.929 . S
C387 C384 1.356 . S
C387 C389 1.358 . S
C387 H429 0.930 . S
C388 N385 1.314 . S
C388 C386 1.353 . S
C388 H430 0.930 . S
C389 N385 1.279 . S
C389 C387 1.358 . S
C389 H431 0.930 . S
C390 C391 1.348 . S
C390 C392 1.356 . S
C390 O415 1.325 . S
C391 C390 1.348 . S
C391 C393 1.353 . S
C391 H432 0.929 . S
C392 C390 1.356 . S
C392 C394 1.358 . S
C392 H433 0.930 . S
C393 C391 1.353 . S
C393 N395 1.314 . S
C393 H434 0.930 . S
C394 C392 1.358 . S
C394 N395 1.279 . S
C394 H435 0.930 . S
N395 C393 1.314 . S
N395 C394 1.279 . S
C396 C398 1.353 . S
C396 N399 1.314 . S
C396 H402 0.930 . S
C397 N399 1.279 . S
C397 C400 1.358 . S
C397 H403 0.930 . S
C398 C396 1.353 . S
C398 C401 1.348 . S
C398 H436 0.929 . S
N399 Li354 1.990 . S
N399 C396 1.314 . S
N399 C397 1.279 . S
C400 C397 1.358 . S
C400 C401 1.356 . S
C400 H437 0.930 . S
C401 C398 1.348 . S
C401 C400 1.356 . S
H402 C396 0.930 . S
H403 C397 0.930 . S
C404 N405 1.314 . S
C404 C406 1.353 . S
C404 H410 0.930 . S
N405 Li355 1.990 . S
N405 C404 1.314 . S
N405 C408 1.279 . S
C406 C404 1.353 . S
C406 C409 1.348 . S
C406 H438 0.929 . S
C407 C408 1.358 . S
C407 C409 1.356 . S
C407 H439 0.930 . S
C408 N405 1.279 . S
C408 C407 1.358 . S
C408 H411 0.930 . S
C409 C406 1.348 . S
C409 C407 1.356 . S
H410 C404 0.930 . S
H411 C408 0.930 . S
O412 Li352 1.956 . S
O412 Li353 1.970 . S
O412 Li354 1.961 . S
O412 C356 1.325 . S
O413 Li352 1.970 . S
O413 Li353 1.956 . S
O413 Li355 1.961 . S
O413 C362 1.325 . S
O414 Li352 1.961 . S
O414 Li354 1.956 . S
O414 Li355 1.970 . S
O414 C384 1.325 . S
O415 Li353 1.961 . S
O415 Li354 1.970 . S
O415 Li355 1.956 . S
O415 C390 1.325 . S
H416 C358 0.929 . S
H417 C359 0.930 . S
H418 C360 0.930 . S
H419 C361 0.930 . S
H420 C363 0.930 . S
H421 C365 0.929 . S
H422 C366 0.930 . S
H423 C367 0.930 . S
H424 C370 0.930 . S
H425 C373 0.929 . S
H426 C378 0.929 . S
H427 C379 0.930 . S
H428 C386 0.929 . S
H429 C387 0.930 . S
H430 C388 0.930 . S
H431 C389 0.930 . S
H432 C391 0.929 . S
H433 C392 0.930 . S
H434 C393 0.930 . S
H435 C394 0.930 . S
H436 C398 0.929 . S
H437 C400 0.930 . S
H438 C406 0.929 . S
H439 C407 0.930 . S
Li440 N457 1.990 . S
Li440 O500 1.956 . S
Li440 O501 1.970 . S
Li440 O502 1.961 . S
Li441 N465 1.990 . S
Li441 O500 1.970 . S
Li441 O501 1.956 . S
Li441 O503 1.961 . S
Li442 N487 1.990 . S
Li442 O500 1.961 . S
Li442 O502 1.956 . S
Li442 O503 1.970 . S
Li443 N493 1.990 . S
Li443 O501 1.961 . S
Li443 O502 1.970 . S
Li443 O503 1.956 . S
C444 C446 1.348 . S
C444 C447 1.356 . S
C444 O500 1.325 . S
N445 C448 1.314 . S
N445 C449 1.279 . S
C446 C444 1.348 . S
C446 C448 1.353 . S
C446 H504 0.929 . S
C447 C444 1.356 . S
C447 C449 1.358 . S
C447 H505 0.930 . S
C448 N445 1.314 . S
C448 C446 1.353 . S
C448 H506 0.930 . S
C449 N445 1.279 . S
C449 C447 1.358 . S
C449 H507 0.930 . S
C450 C453 1.348 . S
C450 C454 1.356 . S
C450 O501 1.325 . S
C451 N452 1.279 . S
C451 C454 1.358 . S
C451 H508 0.930 . S
N452 C451 1.279 . S
N452 C455 1.314 . S
C453 C450 1.348 . S
C453 C455 1.353 . S
C453 H509 0.929 . S
C454 C450 1.356 . S
C454 C451 1.358 . S
C454 H510 0.930 . S
C455 N452 1.314 . S
C455 C453 1.353 . S
C455 H511 0.930 . S
C456 N457 1.314 . S
C456 C461 1.353 . S
C456 H462 0.930 . S
N457 Li440 1.990 . S
N457 C456 1.314 . S
N457 C459 1.279 . S
C458 C459 1.358 . S
C458 C460 1.356 . S
C458 H512 0.930 . S
C459 N457 1.279 . S
C459 C458 1.358 . S
C459 H463 0.930 . S
C460 C458 1.356 . S
C460 C461 1.348 . S
C461 C456 1.353 . S
C461 C460 1.348 . S
C461 H513 0.929 . S
H462 C456 0.930 . S
H463 C459 0.930 . S
C464 N465 1.314 . S
C464 C466 1.353 . S
C464 H470 0.930 . S
N465 Li441 1.990 . S
N465 C464 1.314 . S
N465 C468 1.279 . S
C466 C464 1.353 . S
C466 C469 1.348 . S
C466 H514 0.929 . S
C467 C468 1.358 . S
C467 C469 1.356 . S
C467 H515 0.930 . S
C468 N465 1.279 . S
C468 C467 1.358 . S
C468 H471 0.930 . S
C469 C466 1.348 . S
C469 C467 1.356 . S
H470 C464 0.930 . S
H471 C468 0.930 . S
C472 C474 1.348 . S
C472 C475 1.356 . S
C472 O502 1.325 . S
N473 C476 1.314 . S
N473 C477 1.279 . S
C474 C472 1.348 . S
C474 C476 1.353 . S
C474 H516 0.929 . S
C475 C472 1.356 . S
C475 C477 1.358 . S
C475 H517 0.930 . S
C476 N473 1.314 . S
C476 C474 1.353 . S
C476 H518 0.930 . S
C477 N473 1.279 . S
C477 C475 1.358 . S
C477 H519 0.930 . S
C478 C479 1.348 . S
C478 C480 1.356 . S
C478 O503 1.325 . S
C479 C478 1.348 . S
C479 C481 1.353 . S
C479 H520 0.929 . S
C480 C478 1.356 . S
C480 C482 1.358 . S
C480 H521 0.930 . S
C481 C479 1.353 . S
C481 N483 1.314 . S
C481 H522 0.930 . S
C482 C480 1.358 . S
C482 N483 1.279 . S
C482 H523 0.930 . S
N483 C481 1.314 . S
N483 C482 1.279 . S
C484 C486 1.353 . S
C484 N487 1.314 . S
C484 H490 0.930 . S
C485 N487 1.279 . S
C485 C488 1.358 . S
C485 H491 0.930 . S
C486 C484 1.353 . S
C486 C489 1.348 . S
C486 H524 0.929 . S
N487 Li442 1.990 . S
N487 C484 1.314 . S
N487 C485 1.279 . S
C488 C485 1.358 . S
C488 C489 1.356 . S
C488 H525 0.930 . S
C489 C486 1.348 . S
C489 C488 1.356 . S
H490 C484 0.930 . S
H491 C485 0.930 . S
C492 N493 1.314 . S
C492 C494 1.353 . S
C492 H498 0.930 . S
N493 Li443 1.990 . S
N493 C492 1.314 . S
N493 C496 1.279 . S
C494 C492 1.353 . S
C494 C497 1.348 . S
C494 H526 0.929 . S
C495 C496 1.358 . S
C495 C497 1.356 . S
C495 H527 0.930 . S
C496 N493 1.279 . S
C496 C495 1.358 . S
C496 H499 0.930 . S
C497 C494 1.348 . S
C497 C495 1.356 . S
H498 C492 0.930 . S
H499 C496 0.930 . S
O500 Li440 1.956 . S
O500 Li441 1.970 . S
O500 Li442 1.961 . S
O500 C444 1.325 . S
O501 Li440 1.970 . S
O501 Li441 1.956 . S
O501 Li443 1.961 . S
O501 C450 1.325 . S
O502 Li440 1.961 . S
O502 Li442 1.956 . S
O502 Li443 1.970 . S
O502 C472 1.325 . S
O503 Li441 1.961 . S
O503 Li442 1.970 . S
O503 Li443 1.956 . S
O503 C478 1.325 . S
H504 C446 0.929 . S
H505 C447 0.930 . S
H506 C448 0.930 . S
H507 C449 0.930 . S
H508 C451 0.930 . S
H509 C453 0.929 . S
H510 C454 0.930 . S
H511 C455 0.930 . S
H512 C458 0.930 . S
H513 C461 0.929 . S
H514 C466 0.929 . S
H515 C467 0.930 . S
H516 C474 0.929 . S
H517 C475 0.930 . S
H518 C476 0.930 . S
H519 C477 0.930 . S
H520 C479 0.929 . S
H521 C480 0.930 . S
H522 C481 0.930 . S
H523 C482 0.930 . S
H524 C486 0.929 . S
H525 C488 0.930 . S
H526 C494 0.929 . S
H527 C495 0.930 . S
Li528 N545 1.990 . S
Li528 O588 1.956 1_655 S
Li528 O589 1.970 . S
Li528 O590 1.961 . S
Li529 N553 1.990 . S
Li529 O588 1.970 1_655 S
Li529 O589 1.956 . S
Li529 O591 1.961 . S
Li530 N575 1.990 . S
Li530 O588 1.961 . S
Li530 O590 1.956 1_455 S
Li530 O591 1.970 1_455 S
Li531 N581 1.990 . S
Li531 O589 1.961 . S
Li531 O590 1.970 . S
Li531 O591 1.956 . S
C532 C534 1.348 . S
C532 C535 1.356 . S
C532 O588 1.325 . S
N533 C536 1.314 . S
N533 C537 1.279 . S
C534 C532 1.348 . S
C534 C536 1.353 . S
C534 H592 0.929 . S
C535 C532 1.356 . S
C535 C537 1.358 . S
C535 H593 0.930 . S
C536 N533 1.314 . S
C536 C534 1.353 . S
C536 H594 0.930 . S
C537 N533 1.279 . S
C537 C535 1.358 . S
C537 H595 0.930 . S
C538 C541 1.348 . S
C538 C542 1.356 . S
C538 O589 1.325 . S
C539 N540 1.279 . S
C539 C542 1.358 . S
C539 H596 0.930 . S
N540 C539 1.279 . S
N540 C543 1.314 . S
C541 C538 1.348 . S
C541 C543 1.353 . S
C541 H597 0.929 . S
C542 C538 1.356 . S
C542 C539 1.358 . S
C542 H598 0.930 . S
C543 N540 1.314 . S
C543 C541 1.353 . S
C543 H599 0.930 . S
C544 N545 1.314 . S
C544 C549 1.353 . S
C544 H550 0.930 . S
N545 Li528 1.990 . S
N545 C544 1.314 . S
N545 C547 1.279 . S
C546 C547 1.358 . S
C546 C548 1.356 . S
C546 H600 0.930 . S
C547 N545 1.279 . S
C547 C546 1.358 . S
C547 H551 0.930 . S
C548 C546 1.356 . S
C548 C549 1.348 . S
C549 C544 1.353 . S
C549 C548 1.348 . S
C549 H601 0.929 . S
H550 C544 0.930 . S
H551 C547 0.930 . S
C552 N553 1.287 1_455 S
C552 C554 1.360 . S
C552 H558 0.954 . S
N553 Li529 1.990 . S
N553 C552 1.287 1_655 S
N553 C556 1.279 . S
C554 C552 1.360 . S
C554 C557 1.348 1_455 S
C554 H602 0.929 . S
C555 C556 1.358 . S
C555 C557 1.356 . S
C555 H603 0.930 . S
C556 N553 1.279 . S
C556 C555 1.358 . S
C556 H559 0.930 . S
C557 C554 1.348 1_655 S
C557 C555 1.356 . S
H558 C552 0.954 . S
H559 C556 0.930 . S
C560 C562 1.348 . S
C560 C563 1.356 . S
C560 O590 1.325 . S
N561 C564 1.314 . S
N561 C565 1.279 . S
C562 C560 1.348 . S
C562 C564 1.353 . S
C562 H604 0.929 . S
C563 C560 1.356 . S
C563 C565 1.358 . S
C563 H605 0.930 . S
C564 N561 1.314 . S
C564 C562 1.353 . S
C564 H606 0.930 . S
C565 N561 1.279 . S
C565 C563 1.358 . S
C565 H607 0.930 . S
C566 C567 1.348 1_655 S
C566 C568 1.356 . S
C566 O591 1.325 . S
C567 C566 1.348 1_455 S
C567 C569 1.353 . S
C567 H608 0.929 . S
C568 C566 1.356 . S
C568 C570 1.358 . S
C568 H609 0.930 . S
C569 C567 1.353 . S
C569 N571 1.314 1_455 S
C569 H610 0.930 . S
C570 C568 1.358 . S
C570 N571 1.279 . S
C570 H611 0.930 . S
N571 C569 1.314 1_655 S
N571 C570 1.279 . S
C572 C574 1.353 . S
C572 N575 1.314 . S
C572 H578 0.930 . S
C573 N575 1.279 . S
C573 C576 1.358 . S
C573 H579 0.930 . S
C574 C572 1.353 . S
C574 C577 1.348 . S
C574 H612 0.929 . S
N575 Li530 1.990 . S
N575 C572 1.314 . S
N575 C573 1.279 . S
C576 C573 1.358 . S
C576 C577 1.356 . S
C576 H613 0.930 . S
C577 C574 1.348 . S
C577 C576 1.356 . S
H578 C572 0.930 . S
H579 C573 0.930 . S
C580 N581 1.314 . S
C580 C582 1.353 . S
C580 H586 0.930 . S
N581 Li531 1.990 . S
N581 C580 1.314 . S
N581 C584 1.279 . S
C582 C580 1.353 . S
C582 C585 1.348 . S
C582 H614 0.929 . S
C583 C584 1.358 . S
C583 C585 1.356 . S
C583 H615 0.930 . S
C584 N581 1.279 . S
C584 C583 1.358 . S
C584 H587 0.930 . S
C585 C582 1.348 . S
C585 C583 1.356 . S
H586 C580 0.930 . S
H587 C584 0.930 . S
O588 Li528 1.956 1_455 S
O588 Li529 1.970 1_455 S
O588 Li530 1.961 . S
O588 C532 1.325 . S
O589 Li528 1.970 . S
O589 Li529 1.956 . S
O589 Li531 1.961 . S
O589 C538 1.325 . S
O590 Li528 1.961 . S
O590 Li530 1.956 1_655 S
O590 Li531 1.970 . S
O590 C560 1.325 . S
O591 Li529 1.961 . S
O591 Li530 1.970 1_655 S
O591 Li531 1.956 . S
O591 C566 1.325 . S
H592 C534 0.929 . S
H593 C535 0.930 . S
H594 C536 0.930 . S
H595 C537 0.930 . S
H596 C539 0.930 . S
H597 C541 0.929 . S
H598 C542 0.930 . S
H599 C543 0.930 . S
H600 C546 0.930 . S
H601 C549 0.929 . S
H602 C554 0.929 . S
H603 C555 0.930 . S
H604 C562 0.929 . S
H605 C563 0.930 . S
H606 C564 0.930 . S
H607 C565 0.930 . S
H608 C567 0.929 . S
H609 C568 0.930 . S
H610 C569 0.930 . S
H611 C570 0.930 . S
H612 C574 0.929 . S
H613 C576 0.930 . S
H614 C582 0.929 . S
H615 C583 0.930 . S
Li616 N633 1.990 . S
Li616 O676 1.956 1_565 S
Li616 O677 1.970 . S
Li616 O678 1.961 . S
Li617 N641 1.990 . S
Li617 O676 1.970 1_565 S
Li617 O677 1.956 . S
Li617 O679 1.961 . S
Li618 N663 1.990 . S
Li618 O676 1.961 . S
Li618 O678 1.956 1_545 S
Li618 O679 1.970 1_545 S
Li619 N669 1.990 . S
Li619 O677 1.961 . S
Li619 O678 1.970 . S
Li619 O679 1.956 . S
C620 C622 1.348 . S
C620 C623 1.356 . S
C620 O676 1.325 . S
N621 C624 1.314 . S
N621 C625 1.279 . S
C622 C620 1.348 . S
C622 C624 1.353 . S
C622 H680 0.929 . S
C623 C620 1.356 . S
C623 C625 1.358 . S
C623 H681 0.930 . S
C624 N621 1.314 . S
C624 C622 1.353 . S
C624 H682 0.930 . S
C625 N621 1.279 . S
C625 C623 1.358 . S
C625 H683 0.930 . S
C626 C629 1.348 . S
C626 C630 1.356 . S
C626 O677 1.325 . S
C627 N628 1.279 . S
C627 C630 1.358 . S
C627 H684 0.930 . S
N628 C627 1.279 . S
N628 C631 1.314 . S
C629 C626 1.348 . S
C629 C631 1.353 . S
C629 H685 0.929 . S
C630 C626 1.356 . S
C630 C627 1.358 . S
C630 H686 0.930 . S
C631 N628 1.314 . S
C631 C629 1.353 . S
C631 H687 0.930 . S
C632 N633 1.314 . S
C632 C637 1.353 . S
C632 H638 0.930 . S
N633 Li616 1.990 . S
N633 C632 1.314 . S
N633 C635 1.279 . S
C634 C635 1.358 . S
C634 C636 1.356 . S
C634 H688 0.930 . S
C635 N633 1.279 . S
C635 C634 1.358 . S
C635 H639 0.930 . S
C636 C634 1.356 . S
C636 C637 1.348 . S
C637 C632 1.353 . S
C637 C636 1.348 . S
C637 H689 0.929 . S
H638 C632 0.930 . S
H639 C635 0.930 . S
C640 N641 1.287 1_545 S
C640 C642 1.360 . S
C640 H646 0.954 . S
N641 Li617 1.990 . S
N641 C640 1.287 1_565 S
N641 C644 1.279 . S
C642 C640 1.360 . S
C642 C645 1.348 1_545 S
C642 H690 0.929 . S
C643 C644 1.358 . S
C643 C645 1.356 . S
C643 H691 0.930 . S
C644 N641 1.279 . S
C644 C643 1.358 . S
C644 H647 0.930 . S
C645 C642 1.348 1_565 S
C645 C643 1.356 . S
H646 C640 0.954 . S
H647 C644 0.930 . S
C648 C650 1.348 . S
C648 C651 1.356 . S
C648 O678 1.325 . S
N649 C652 1.314 . S
N649 C653 1.279 . S
C650 C648 1.348 . S
C650 C652 1.353 . S
C650 H692 0.929 . S
C651 C648 1.356 . S
C651 C653 1.358 . S
C651 H693 0.930 . S
C652 N649 1.314 . S
C652 C650 1.353 . S
C652 H694 0.930 . S
C653 N649 1.279 . S
C653 C651 1.358 . S
C653 H695 0.930 . S
C654 C655 1.348 1_565 S
C654 C656 1.356 . S
C654 O679 1.325 . S
C655 C654 1.348 1_545 S
C655 C657 1.353 . S
C655 H696 0.929 . S
C656 C654 1.356 . S
C656 C658 1.358 . S
C656 H697 0.930 . S
C657 C655 1.353 . S
C657 N659 1.314 1_545 S
C657 H698 0.930 . S
C658 C656 1.358 . S
C658 N659 1.279 . S
C658 H699 0.930 . S
N659 C657 1.314 1_565 S
N659 C658 1.279 . S
C660 C662 1.353 . S
C660 N663 1.314 . S
C660 H666 0.930 . S
C661 N663 1.279 . S
C661 C664 1.358 . S
C661 H667 0.930 . S
C662 C660 1.353 . S
C662 C665 1.348 . S
C662 H700 0.929 . S
N663 Li618 1.990 . S
N663 C660 1.314 . S
N663 C661 1.279 . S
C664 C661 1.358 . S
C664 C665 1.356 . S
C664 H701 0.930 . S
C665 C662 1.348 . S
C665 C664 1.356 . S
H666 C660 0.930 . S
H667 C661 0.930 . S
C668 N669 1.314 . S
C668 C670 1.353 . S
C668 H674 0.930 . S
N669 Li619 1.990 . S
N669 C668 1.314 . S
N669 C672 1.279 . S
C670 C668 1.353 . S
C670 C673 1.348 . S
C670 H702 0.929 . S
C671 C672 1.358 . S
C671 C673 1.356 . S
C671 H703 0.930 . S
C672 N669 1.279 . S
C672 C671 1.358 . S
C672 H675 0.930 . S
C673 C670 1.348 . S
C673 C671 1.356 . S
H674 C668 0.930 . S
H675 C672 0.930 . S
O676 Li616 1.956 1_545 S
O676 Li617 1.970 1_545 S
O676 Li618 1.961 . S
O676 C620 1.325 . S
O677 Li616 1.970 . S
O677 Li617 1.956 . S
O677 Li619 1.961 . S
O677 C626 1.325 . S
O678 Li616 1.961 . S
O678 Li618 1.956 1_565 S
O678 Li619 1.970 . S
O678 C648 1.325 . S
O679 Li617 1.961 . S
O679 Li618 1.970 1_565 S
O679 Li619 1.956 . S
O679 C654 1.325 . S
H680 C622 0.929 . S
H681 C623 0.930 . S
H682 C624 0.930 . S
H683 C625 0.930 . S
H684 C627 0.930 . S
H685 C629 0.929 . S
H686 C630 0.930 . S
H687 C631 0.930 . S
H688 C634 0.930 . S
H689 C637 0.929 . S
H690 C642 0.929 . S
H691 C643 0.930 . S
H692 C650 0.929 . S
H693 C651 0.930 . S
H694 C652 0.930 . S
H695 C653 0.930 . S
H696 C655 0.929 . S
H697 C656 0.930 . S
H698 C657 0.930 . S
H699 C658 0.930 . S
H700 C662 0.929 . S
H701 C664 0.930 . S
H702 C670 0.929 . S
H703 C671 0.930 . S
Li704 N721 1.990 . S
Li704 O764 1.956 . S
Li704 O765 1.970 . S
Li704 O766 1.961 . S
Li705 N729 1.990 . S
Li705 O764 1.970 . S
Li705 O765 1.956 . S
Li705 O767 1.961 . S
Li706 N751 1.990 . S
Li706 O764 1.961 . S
Li706 O766 1.956 . S
Li706 O767 1.970 . S
Li707 N757 1.990 . S
Li707 O765 1.961 . S
Li707 O766 1.970 . S
Li707 O767 1.956 . S
C708 C710 1.348 . S
C708 C711 1.356 . S
C708 O764 1.325 . S
N709 C712 1.314 . S
N709 C713 1.279 . S
C710 C708 1.348 . S
C710 C712 1.353 . S
C710 H768 0.929 . S
C711 C708 1.356 . S
C711 C713 1.358 . S
C711 H769 0.930 . S
C712 N709 1.314 . S
C712 C710 1.353 . S
C712 H770 0.930 . S
C713 N709 1.279 . S
C713 C711 1.358 . S
C713 H771 0.930 . S
C714 C717 1.348 . S
C714 C718 1.356 . S
C714 O765 1.325 . S
C715 N716 1.279 . S
C715 C718 1.358 . S
C715 H772 0.930 . S
N716 C715 1.279 . S
N716 C719 1.314 . S
C717 C714 1.348 . S
C717 C719 1.353 . S
C717 H773 0.929 . S
C718 C714 1.356 . S
C718 C715 1.358 . S
C718 H774 0.930 . S
C719 N716 1.314 . S
C719 C717 1.353 . S
C719 H775 0.930 . S
C720 N721 1.314 . S
C720 C725 1.353 . S
C720 H726 0.930 . S
N721 Li704 1.990 . S
N721 C720 1.314 . S
N721 C723 1.279 . S
C722 C723 1.358 . S
C722 C724 1.356 . S
C722 H776 0.930 . S
C723 N721 1.279 . S
C723 C722 1.358 . S
C723 H727 0.930 . S
C724 C722 1.356 . S
C724 C725 1.348 . S
C725 C720 1.353 . S
C725 C724 1.348 . S
C725 H777 0.929 . S
H726 C720 0.930 . S
H727 C723 0.930 . S
C728 N729 1.314 . S
C728 C730 1.353 . S
C728 H734 0.930 . S
N729 Li705 1.990 . S
N729 C728 1.314 . S
N729 C732 1.279 . S
C730 C728 1.353 . S
C730 C733 1.348 . S
C730 H778 0.929 . S
C731 C732 1.358 . S
C731 C733 1.356 . S
C731 H779 0.930 . S
C732 N729 1.279 . S
C732 C731 1.358 . S
C732 H735 0.930 . S
C733 C730 1.348 . S
C733 C731 1.356 . S
H734 C728 0.930 . S
H735 C732 0.930 . S
C736 C738 1.348 . S
C736 C739 1.356 . S
C736 O766 1.325 . S
N737 C740 1.314 . S
N737 C741 1.279 . S
C738 C736 1.348 . S
C738 C740 1.353 . S
C738 H780 0.929 . S
C739 C736 1.356 . S
C739 C741 1.358 . S
C739 H781 0.930 . S
C740 N737 1.314 . S
C740 C738 1.353 . S
C740 H782 0.930 . S
C741 N737 1.279 . S
C741 C739 1.358 . S
C741 H783 0.930 . S
C742 C743 1.348 . S
C742 C744 1.356 . S
C742 O767 1.325 . S
C743 C742 1.348 . S
C743 C745 1.353 . S
C743 H784 0.929 . S
C744 C742 1.356 . S
C744 C746 1.358 . S
C744 H785 0.930 . S
C745 C743 1.353 . S
C745 N747 1.314 . S
C745 H786 0.930 . S
C746 C744 1.358 . S
C746 N747 1.279 . S
C746 H787 0.930 . S
N747 C745 1.314 . S
N747 C746 1.279 . S
C748 C750 1.353 . S
C748 N751 1.314 . S
C748 H754 0.930 . S
C749 N751 1.279 . S
C749 C752 1.358 . S
C749 H755 0.930 . S
C750 C748 1.353 . S
C750 C753 1.348 . S
C750 H788 0.929 . S
N751 Li706 1.990 . S
N751 C748 1.314 . S
N751 C749 1.279 . S
C752 C749 1.358 . S
C752 C753 1.356 . S
C752 H789 0.930 . S
C753 C750 1.348 . S
C753 C752 1.356 . S
H754 C748 0.930 . S
H755 C749 0.930 . S
C756 N757 1.314 . S
C756 C758 1.353 . S
C756 H762 0.930 . S
N757 Li707 1.990 . S
N757 C756 1.314 . S
N757 C760 1.279 . S
C758 C756 1.353 . S
C758 C761 1.348 . S
C758 H790 0.929 . S
C759 C760 1.358 . S
C759 C761 1.356 . S
C759 H791 0.930 . S
C760 N757 1.279 . S
C760 C759 1.358 . S
C760 H763 0.930 . S
C761 C758 1.348 . S
C761 C759 1.356 . S
H762 C756 0.930 . S
H763 C760 0.930 . S
O764 Li704 1.956 . S
O764 Li705 1.970 . S
O764 Li706 1.961 . S
O764 C708 1.325 . S
O765 Li704 1.970 . S
O765 Li705 1.956 . S
O765 Li707 1.961 . S
O765 C714 1.325 . S
O766 Li704 1.961 . S
O766 Li706 1.956 . S
O766 Li707 1.970 . S
O766 C736 1.325 . S
O767 Li705 1.961 . S
O767 Li706 1.970 . S
O767 Li707 1.956 . S
O767 C742 1.325 . S
H768 C710 0.929 . S
H769 C711 0.930 . S
H770 C712 0.930 . S
H771 C713 0.930 . S
H772 C715 0.930 . S
H773 C717 0.929 . S
H774 C718 0.930 . S
H775 C719 0.930 . S
H776 C722 0.930 . S
H777 C725 0.929 . S
H778 C730 0.929 . S
H779 C731 0.930 . S
H780 C738 0.929 . S
H781 C739 0.930 . S
H782 C740 0.930 . S
H783 C741 0.930 . S
H784 C743 0.929 . S
H785 C744 0.930 . S
H786 C745 0.930 . S
H787 C746 0.930 . S
H788 C750 0.929 . S
H789 C752 0.930 . S
H790 C758 0.929 . S
H791 C759 0.930 . S
Li792 N809 1.990 . S
Li792 O852 1.956 . S
Li792 O853 1.970 . S
Li792 O854 1.961 . S
Li793 N817 1.990 . S
Li793 O852 1.970 . S
Li793 O853 1.956 . S
Li793 O855 1.961 . S
Li794 N839 1.990 . S
Li794 O852 1.961 . S
Li794 O854 1.956 . S
Li794 O855 1.970 . S
Li795 N845 1.990 . S
Li795 O853 1.961 . S
Li795 O854 1.970 . S
Li795 O855 1.956 . S
C796 C798 1.348 . S
C796 C799 1.356 . S
C796 O852 1.325 . S
N797 C800 1.314 . S
N797 C801 1.279 . S
C798 C796 1.348 . S
C798 C800 1.353 . S
C798 H856 0.929 . S
C799 C796 1.356 . S
C799 C801 1.358 . S
C799 H857 0.930 . S
C800 N797 1.314 . S
C800 C798 1.353 . S
C800 H858 0.930 . S
C801 N797 1.279 . S
C801 C799 1.358 . S
C801 H859 0.930 . S
C802 C805 1.348 . S
C802 C806 1.356 . S
C802 O853 1.325 . S
C803 N804 1.279 . S
C803 C806 1.358 . S
C803 H860 0.930 . S
N804 C803 1.279 . S
N804 C807 1.314 . S
C805 C802 1.348 . S
C805 C807 1.353 . S
C805 H861 0.929 . S
C806 C802 1.356 . S
C806 C803 1.358 . S
C806 H862 0.930 . S
C807 N804 1.314 . S
C807 C805 1.353 . S
C807 H863 0.930 . S
C808 N809 1.314 . S
C808 C813 1.353 . S
C808 H814 0.930 . S
N809 Li792 1.990 . S
N809 C808 1.314 . S
N809 C811 1.279 . S
C810 C811 1.358 . S
C810 C812 1.356 . S
C810 H864 0.930 . S
C811 N809 1.279 . S
C811 C810 1.358 . S
C811 H815 0.930 . S
C812 C810 1.356 . S
C812 C813 1.348 . S
C813 C808 1.353 . S
C813 C812 1.348 . S
C813 H865 0.929 . S
H814 C808 0.930 . S
H815 C811 0.930 . S
C816 N817 1.314 . S
C816 C818 1.353 . S
C816 H822 0.930 . S
N817 Li793 1.990 . S
N817 C816 1.314 . S
N817 C820 1.279 . S
C818 C816 1.353 . S
C818 C821 1.348 . S
C818 H866 0.929 . S
C819 C820 1.358 . S
C819 C821 1.356 . S
C819 H867 0.930 . S
C820 N817 1.279 . S
C820 C819 1.358 . S
C820 H823 0.930 . S
C821 C818 1.348 . S
C821 C819 1.356 . S
H822 C816 0.930 . S
H823 C820 0.930 . S
C824 C826 1.348 . S
C824 C827 1.356 . S
C824 O854 1.325 . S
N825 C828 1.314 . S
N825 C829 1.279 . S
C826 C824 1.348 . S
C826 C828 1.353 . S
C826 H868 0.929 . S
C827 C824 1.356 . S
C827 C829 1.358 . S
C827 H869 0.930 . S
C828 N825 1.314 . S
C828 C826 1.353 . S
C828 H870 0.930 . S
C829 N825 1.279 . S
C829 C827 1.358 . S
C829 H871 0.930 . S
C830 C831 1.348 . S
C830 C832 1.356 . S
C830 O855 1.325 . S
C831 C830 1.348 . S
C831 C833 1.353 . S
C831 H872 0.929 . S
C832 C830 1.356 . S
C832 C834 1.358 . S
C832 H873 0.930 . S
C833 C831 1.353 . S
C833 N835 1.314 . S
C833 H874 0.930 . S
C834 C832 1.358 . S
C834 N835 1.279 . S
C834 H875 0.930 . S
N835 C833 1.314 . S
N835 C834 1.279 . S
C836 C838 1.353 . S
C836 N839 1.314 . S
C836 H842 0.930 . S
C837 N839 1.279 . S
C837 C840 1.358 . S
C837 H843 0.930 . S
C838 C836 1.353 . S
C838 C841 1.348 . S
C838 H876 0.929 . S
N839 Li794 1.990 . S
N839 C836 1.314 . S
N839 C837 1.279 . S
C840 C837 1.358 . S
C840 C841 1.356 . S
C840 H877 0.930 . S
C841 C838 1.348 . S
C841 C840 1.356 . S
H842 C836 0.930 . S
H843 C837 0.930 . S
C844 N845 1.314 . S
C844 C846 1.353 . S
C844 H850 0.930 . S
N845 Li795 1.990 . S
N845 C844 1.314 . S
N845 C848 1.279 . S
C846 C844 1.353 . S
C846 C849 1.348 . S
C846 H878 0.929 . S
C847 C848 1.358 . S
C847 C849 1.356 . S
C847 H879 0.930 . S
C848 N845 1.279 . S
C848 C847 1.358 . S
C848 H851 0.930 . S
C849 C846 1.348 . S
C849 C847 1.356 . S
H850 C844 0.930 . S
H851 C848 0.930 . S
O852 Li792 1.956 . S
O852 Li793 1.970 . S
O852 Li794 1.961 . S
O852 C796 1.325 . S
O853 Li792 1.970 . S
O853 Li793 1.956 . S
O853 Li795 1.961 . S
O853 C802 1.325 . S
O854 Li792 1.961 . S
O854 Li794 1.956 . S
O854 Li795 1.970 . S
O854 C824 1.325 . S
O855 Li793 1.961 . S
O855 Li794 1.970 . S
O855 Li795 1.956 . S
O855 C830 1.325 . S
H856 C798 0.929 . S
H857 C799 0.930 . S
H858 C800 0.930 . S
H859 C801 0.930 . S
H860 C803 0.930 . S
H861 C805 0.929 . S
H862 C806 0.930 . S
H863 C807 0.930 . S
H864 C810 0.930 . S
H865 C813 0.929 . S
H866 C818 0.929 . S
H867 C819 0.930 . S
H868 C826 0.929 . S
H869 C827 0.930 . S
H870 C828 0.930 . S
H871 C829 0.930 . S
H872 C831 0.929 . S
H873 C832 0.930 . S
H874 C833 0.930 . S
H875 C834 0.930 . S
H876 C838 0.929 . S
H877 C840 0.930 . S
H878 C846 0.929 . S
H879 C847 0.930 . S
Li880 N897 1.990 . S
Li880 O940 1.956 . S
Li880 O941 1.970 1_455 S
Li880 O942 1.961 . S
Li881 N905 1.990 . S
Li881 O940 1.970 1_655 S
Li881 O941 1.956 . S
Li881 O943 1.961 1_655 S
Li882 N927 1.990 . S
Li882 O940 1.961 . S
Li882 O942 1.956 . S
Li882 O943 1.970 . S
Li883 N933 1.990 . S
Li883 O941 1.961 1_455 S
Li883 O942 1.970 . S
Li883 O943 1.956 . S
C884 C886 1.348 1_455 S
C884 C887 1.356 . S
C884 O940 1.325 . S
N885 C888 1.314 . S
N885 C889 1.279 1_655 S
C886 C884 1.348 1_655 S
C886 C888 1.353 . S
C886 H944 0.929 . S
C887 C884 1.356 . S
C887 C889 1.358 . S
C887 H945 0.930 . S
C888 N885 1.314 . S
C888 C886 1.353 . S
C888 H946 0.930 . S
C889 N885 1.279 1_455 S
C889 C887 1.358 . S
C889 H947 0.930 . S
C890 C893 1.348 . S
C890 C894 1.356 . S
C890 O941 1.325 . S
C891 N892 1.279 . S
C891 C894 1.358 . S
C891 H948 0.930 . S
N892 C891 1.279 . S
N892 C895 1.314 . S
C893 C890 1.348 . S
C893 C895 1.353 . S
C893 H949 0.929 . S
C894 C890 1.356 . S
C894 C891 1.358 . S
C894 H950 0.930 . S
C895 N892 1.314 . S
C895 C893 1.353 . S
C895 H951 0.930 . S
C896 N897 1.314 . S
C896 C901 1.353 . S
C896 H902 0.930 . S
N897 Li880 1.990 . S
N897 C896 1.314 . S
N897 C899 1.279 . S
C898 C899 1.359 . S
C898 C900 1.358 . S
C898 H952 0.927 1_455 S
C899 N897 1.279 . S
C899 C898 1.359 . S
C899 H903 0.930 1_455 S
C900 C898 1.358 . S
C900 C901 1.348 . S
C901 C896 1.353 . S
C901 C900 1.348 . S
C901 H953 0.929 . S
H902 C896 0.930 . S
H903 C899 0.930 1_655 S
C904 N905 1.314 . S
C904 C906 1.353 . S
C904 H910 0.930 . S
N905 Li881 1.990 . S
N905 C904 1.314 . S
N905 C908 1.279 . S
C906 C904 1.353 . S
C906 C909 1.348 . S
C906 H954 0.929 . S
C907 C908 1.358 . S
C907 C909 1.356 . S
C907 H955 0.930 . S
C908 N905 1.279 . S
C908 C907 1.358 . S
C908 H911 0.930 . S
C909 C906 1.348 . S
C909 C907 1.356 . S
H910 C904 0.930 . S
H911 C908 0.930 . S
C912 C914 1.348 . S
C912 C915 1.356 . S
C912 O942 1.325 . S
N913 C916 1.314 . S
N913 C917 1.279 . S
C914 C912 1.348 . S
C914 C916 1.353 . S
C914 H956 0.929 . S
C915 C912 1.356 . S
C915 C917 1.358 . S
C915 H957 0.930 . S
C916 N913 1.314 . S
C916 C914 1.353 . S
C916 H958 0.930 . S
C917 N913 1.279 . S
C917 C915 1.358 . S
C917 H959 0.930 . S
C918 C919 1.348 . S
C918 C920 1.356 . S
C918 O943 1.325 . S
C919 C918 1.348 . S
C919 C921 1.353 . S
C919 H960 0.929 . S
C920 C918 1.356 . S
C920 C922 1.358 . S
C920 H961 0.930 1_455 S
C921 C919 1.353 . S
C921 N923 1.314 . S
C921 H962 0.930 . S
C922 C920 1.358 . S
C922 N923 1.279 . S
C922 H963 0.930 1_455 S
N923 C921 1.314 . S
N923 C922 1.279 . S
C924 C926 1.353 . S
C924 N927 1.314 . S
C924 H930 0.930 . S
C925 N927 1.279 . S
C925 C928 1.358 . S
C925 H931 0.930 . S
C926 C924 1.353 . S
C926 C929 1.348 . S
C926 H964 0.929 . S
N927 Li882 1.990 . S
N927 C924 1.314 . S
N927 C925 1.279 . S
C928 C925 1.358 . S
C928 C929 1.356 . S
C928 H965 0.930 . S
C929 C926 1.348 . S
C929 C928 1.356 . S
H930 C924 0.930 . S
H931 C925 0.930 . S
C932 N933 1.314 . S
C932 C934 1.353 . S
C932 H938 0.930 . S
N933 Li883 1.990 . S
N933 C932 1.314 . S
N933 C936 1.279 . S
C934 C932 1.353 . S
C934 C937 1.348 . S
C934 H966 0.929 . S
C935 C936 1.358 . S
C935 C937 1.356 . S
C935 H967 0.930 . S
C936 N933 1.279 . S
C936 C935 1.358 . S
C936 H939 0.930 . S
C937 C934 1.348 . S
C937 C935 1.356 . S
H938 C932 0.930 . S
H939 C936 0.930 . S
O940 Li880 1.956 . S
O940 Li881 1.970 1_455 S
O940 Li882 1.961 . S
O940 C884 1.325 . S
O941 Li880 1.970 1_655 S
O941 Li881 1.956 . S
O941 Li883 1.961 1_655 S
O941 C890 1.325 . S
O942 Li880 1.961 . S
O942 Li882 1.956 . S
O942 Li883 1.970 . S
O942 C912 1.325 . S
O943 Li881 1.961 1_455 S
O943 Li882 1.970 . S
O943 Li883 1.956 . S
O943 C918 1.325 . S
H944 C886 0.929 . S
H945 C887 0.930 . S
H946 C888 0.930 . S
H947 C889 0.930 . S
H948 C891 0.930 . S
H949 C893 0.929 . S
H950 C894 0.930 . S
H951 C895 0.930 . S
H952 C898 0.927 1_655 S
H953 C901 0.929 . S
H954 C906 0.929 . S
H955 C907 0.930 . S
H956 C914 0.929 . S
H957 C915 0.930 . S
H958 C916 0.930 . S
H959 C917 0.930 . S
H960 C919 0.929 . S
H961 C920 0.930 1_655 S
H962 C921 0.930 . S
H963 C922 0.930 1_655 S
H964 C926 0.929 . S
H965 C928 0.930 . S
H966 C934 0.929 . S
H967 C935 0.930 . S
Li968 N985 1.990 . S
Li968 O1028 1.956 . S
Li968 O1029 1.970 1_545 S
Li968 O1030 1.961 . S
Li969 N993 1.990 . S
Li969 O1028 1.970 1_565 S
Li969 O1029 1.956 . S
Li969 O1031 1.961 1_565 S
Li970 N1015 1.990 . S
Li970 O1028 1.961 . S
Li970 O1030 1.956 . S
Li970 O1031 1.970 . S
Li971 N1021 1.990 . S
Li971 O1029 1.961 1_545 S
Li971 O1030 1.970 . S
Li971 O1031 1.956 . S
C972 C974 1.348 1_545 S
C972 C975 1.356 . S
C972 O1028 1.325 . S
N973 C976 1.314 . S
N973 C977 1.279 1_565 S
C974 C972 1.348 1_565 S
C974 C976 1.353 . S
C974 H1032 0.929 . S
C975 C972 1.356 . S
C975 C977 1.358 . S
C975 H1033 0.930 . S
C976 N973 1.314 . S
C976 C974 1.353 . S
C976 H1034 0.930 . S
C977 N973 1.279 1_545 S
C977 C975 1.358 . S
C977 H1035 0.930 . S
C978 C981 1.348 . S
C978 C982 1.356 . S
C978 O1029 1.325 . S
C979 N980 1.279 . S
C979 C982 1.358 . S
C979 H1036 0.930 . S
N980 C979 1.279 . S
N980 C983 1.314 . S
C981 C978 1.348 . S
C981 C983 1.353 . S
C981 H1037 0.929 . S
C982 C978 1.356 . S
C982 C979 1.358 . S
C982 H1038 0.930 . S
C983 N980 1.314 . S
C983 C981 1.353 . S
C983 H1039 0.930 . S
C984 N985 1.314 . S
C984 C989 1.353 . S
C984 H990 0.930 . S
N985 Li968 1.990 . S
N985 C984 1.314 . S
N985 C987 1.279 . S
C986 C987 1.359 . S
C986 C988 1.358 . S
C986 H1040 0.927 1_545 S
C987 N985 1.279 . S
C987 C986 1.359 . S
C987 H991 0.930 1_545 S
C988 C986 1.358 . S
C988 C989 1.348 . S
C989 C984 1.353 . S
C989 C988 1.348 . S
C989 H1041 0.929 . S
H990 C984 0.930 . S
H991 C987 0.930 1_565 S
C992 N993 1.314 . S
C992 C994 1.353 . S
C992 H998 0.930 . S
N993 Li969 1.990 . S
N993 C992 1.314 . S
N993 C996 1.279 . S
C994 C992 1.353 . S
C994 C997 1.348 . S
C994 H1042 0.929 . S
C995 C996 1.358 . S
C995 C997 1.356 . S
C995 H1043 0.930 . S
C996 N993 1.279 . S
C996 C995 1.358 . S
C996 H999 0.930 . S
C997 C994 1.348 . S
C997 C995 1.356 . S
H998 C992 0.930 . S
H999 C996 0.930 . S
C1000 C1002 1.348 . S
C1000 C1003 1.356 . S
C1000 O1030 1.325 . S
N1001 C1004 1.314 . S
N1001 C1005 1.279 . S
C1002 C1000 1.348 . S
C1002 C1004 1.353 . S
C1002 H1044 0.929 . S
C1003 C1000 1.356 . S
C1003 C1005 1.358 . S
C1003 H1045 0.930 . S
C1004 N1001 1.314 . S
C1004 C1002 1.353 . S
C1004 H1046 0.930 . S
C1005 N1001 1.279 . S
C1005 C1003 1.358 . S
C1005 H1047 0.930 . S
C1006 C1007 1.348 . S
C1006 C1008 1.356 . S
C1006 O1031 1.325 . S
C1007 C1006 1.348 . S
C1007 C1009 1.353 . S
C1007 H1048 0.929 . S
C1008 C1006 1.356 . S
C1008 C1010 1.358 . S
C1008 H1049 0.930 1_545 S
C1009 C1007 1.353 . S
C1009 N1011 1.314 . S
C1009 H1050 0.930 . S
C1010 C1008 1.358 . S
C1010 N1011 1.279 . S
C1010 H1051 0.930 1_545 S
N1011 C1009 1.314 . S
N1011 C1010 1.279 . S
C1012 C1014 1.353 . S
C1012 N1015 1.314 . S
C1012 H1018 0.930 . S
C1013 N1015 1.279 . S
C1013 C1016 1.358 . S
C1013 H1019 0.930 . S
C1014 C1012 1.353 . S
C1014 C1017 1.348 . S
C1014 H1052 0.929 . S
N1015 Li970 1.990 . S
N1015 C1012 1.314 . S
N1015 C1013 1.279 . S
C1016 C1013 1.358 . S
C1016 C1017 1.356 . S
C1016 H1053 0.930 . S
C1017 C1014 1.348 . S
C1017 C1016 1.356 . S
H1018 C1012 0.930 . S
H1019 C1013 0.930 . S
C1020 N1021 1.314 . S
C1020 C1022 1.353 . S
C1020 H1026 0.930 . S
N1021 Li971 1.990 . S
N1021 C1020 1.314 . S
N1021 C1024 1.279 . S
C1022 C1020 1.353 . S
C1022 C1025 1.348 . S
C1022 H1054 0.929 . S
C1023 C1024 1.358 . S
C1023 C1025 1.356 . S
C1023 H1055 0.930 . S
C1024 N1021 1.279 . S
C1024 C1023 1.358 . S
C1024 H1027 0.930 . S
C1025 C1022 1.348 . S
C1025 C1023 1.356 . S
H1026 C1020 0.930 . S
H1027 C1024 0.930 . S
O1028 Li968 1.956 . S
O1028 Li969 1.970 1_545 S
O1028 Li970 1.961 . S
O1028 C972 1.325 . S
O1029 Li968 1.970 1_565 S
O1029 Li969 1.956 . S
O1029 Li971 1.961 1_565 S
O1029 C978 1.325 . S
O1030 Li968 1.961 . S
O1030 Li970 1.956 . S
O1030 Li971 1.970 . S
O1030 C1000 1.325 . S
O1031 Li969 1.961 1_545 S
O1031 Li970 1.970 . S
O1031 Li971 1.956 . S
O1031 C1006 1.325 . S
H1032 C974 0.929 . S
H1033 C975 0.930 . S
H1034 C976 0.930 . S
H1035 C977 0.930 . S
H1036 C979 0.930 . S
H1037 C981 0.929 . S
H1038 C982 0.930 . S
H1039 C983 0.930 . S
H1040 C986 0.927 1_565 S
H1041 C989 0.929 . S
H1042 C994 0.929 . S
H1043 C995 0.930 . S
H1044 C1002 0.929 . S
H1045 C1003 0.930 . S
H1046 C1004 0.930 . S
H1047 C1005 0.930 . S
H1048 C1007 0.929 . S
H1049 C1008 0.930 1_565 S
H1050 C1009 0.930 . S
H1051 C1010 0.930 1_565 S
H1052 C1014 0.929 . S
H1053 C1016 0.930 . S
H1054 C1022 0.929 . S
H1055 C1023 0.930 . S
Li1056 N1073 1.990 . S
Li1056 O1116 1.956 . S
Li1056 O1117 1.970 . S
Li1056 O1118 1.961 . S
Li1057 N1081 1.990 . S
Li1057 O1116 1.970 . S
Li1057 O1117 1.956 . S
Li1057 O1119 1.961 . S
Li1058 N1103 1.990 . S
Li1058 O1116 1.961 . S
Li1058 O1118 1.956 . S
Li1058 O1119 1.970 . S
Li1059 N1109 1.990 . S
Li1059 O1117 1.961 . S
Li1059 O1118 1.970 . S
Li1059 O1119 1.956 . S
C1060 C1062 1.348 . S
C1060 C1063 1.356 . S
C1060 O1116 1.325 . S
N1061 C1064 1.314 . S
N1061 C1065 1.279 . S
C1062 C1060 1.348 . S
C1062 C1064 1.353 . S
C1062 H1120 0.929 . S
C1063 C1060 1.356 . S
C1063 C1065 1.358 . S
C1063 H1121 0.930 . S
C1064 N1061 1.314 . S
C1064 C1062 1.353 . S
C1064 H1122 0.930 . S
C1065 N1061 1.279 . S
C1065 C1063 1.358 . S
C1065 H1123 0.930 . S
C1066 C1069 1.348 . S
C1066 C1070 1.356 . S
C1066 O1117 1.325 . S
C1067 N1068 1.279 . S
C1067 C1070 1.358 . S
C1067 H1124 0.930 . S
N1068 C1067 1.279 . S
N1068 C1071 1.314 . S
C1069 C1066 1.348 . S
C1069 C1071 1.353 . S
C1069 H1125 0.929 . S
C1070 C1066 1.356 . S
C1070 C1067 1.358 . S
C1070 H1126 0.930 . S
C1071 N1068 1.314 . S
C1071 C1069 1.353 . S
C1071 H1127 0.930 . S
C1072 N1073 1.314 . S
C1072 C1077 1.353 . S
C1072 H1078 0.930 . S
N1073 Li1056 1.990 . S
N1073 C1072 1.314 . S
N1073 C1075 1.279 . S
C1074 C1075 1.358 . S
C1074 C1076 1.356 . S
C1074 H1128 0.930 . S
C1075 N1073 1.279 . S
C1075 C1074 1.358 . S
C1075 H1079 0.930 . S
C1076 C1074 1.356 . S
C1076 C1077 1.348 . S
C1077 C1072 1.353 . S
C1077 C1076 1.348 . S
C1077 H1129 0.929 . S
H1078 C1072 0.930 . S
H1079 C1075 0.930 . S
C1080 N1081 1.314 . S
C1080 C1082 1.353 . S
C1080 H1086 0.930 . S
N1081 Li1057 1.990 . S
N1081 C1080 1.314 . S
N1081 C1084 1.279 . S
C1082 C1080 1.353 . S
C1082 C1085 1.348 . S
C1082 H1130 0.929 . S
C1083 C1084 1.358 . S
C1083 C1085 1.356 . S
C1083 H1131 0.930 . S
C1084 N1081 1.279 . S
C1084 C1083 1.358 . S
C1084 H1087 0.930 . S
C1085 C1082 1.348 . S
C1085 C1083 1.356 . S
H1086 C1080 0.930 . S
H1087 C1084 0.930 . S
C1088 C1090 1.348 . S
C1088 C1091 1.356 . S
C1088 O1118 1.325 . S
N1089 C1092 1.314 . S
N1089 C1093 1.279 . S
C1090 C1088 1.348 . S
C1090 C1092 1.353 . S
C1090 H1132 0.929 . S
C1091 C1088 1.356 . S
C1091 C1093 1.358 . S
C1091 H1133 0.930 . S
C1092 N1089 1.314 . S
C1092 C1090 1.353 . S
C1092 H1134 0.930 . S
C1093 N1089 1.279 . S
C1093 C1091 1.358 . S
C1093 H1135 0.930 . S
C1094 C1095 1.348 . S
C1094 C1096 1.356 . S
C1094 O1119 1.325 . S
C1095 C1094 1.348 . S
C1095 C1097 1.353 . S
C1095 H1136 0.929 . S
C1096 C1094 1.356 . S
C1096 C1098 1.358 . S
C1096 H1137 0.930 . S
C1097 C1095 1.353 . S
C1097 N1099 1.314 . S
C1097 H1138 0.930 . S
C1098 C1096 1.358 . S
C1098 N1099 1.279 . S
C1098 H1139 0.930 . S
N1099 C1097 1.314 . S
N1099 C1098 1.279 . S
C1100 C1102 1.353 . S
C1100 N1103 1.314 . S
C1100 H1106 0.930 . S
C1101 N1103 1.279 . S
C1101 C1104 1.358 . S
C1101 H1107 0.930 . S
C1102 C1100 1.353 . S
C1102 C1105 1.348 . S
C1102 H1140 0.929 . S
N1103 Li1058 1.990 . S
N1103 C1100 1.314 . S
N1103 C1101 1.279 . S
C1104 C1101 1.358 . S
C1104 C1105 1.356 . S
C1104 H1141 0.930 . S
C1105 C1102 1.348 . S
C1105 C1104 1.356 . S
H1106 C1100 0.930 . S
H1107 C1101 0.930 . S
C1108 N1109 1.314 . S
C1108 C1110 1.353 . S
C1108 H1114 0.930 . S
N1109 Li1059 1.990 . S
N1109 C1108 1.314 . S
N1109 C1112 1.279 . S
C1110 C1108 1.353 . S
C1110 C1113 1.348 . S
C1110 H1142 0.929 . S
C1111 C1112 1.358 . S
C1111 C1113 1.356 . S
C1111 H1143 0.930 . S
C1112 N1109 1.279 . S
C1112 C1111 1.358 . S
C1112 H1115 0.930 . S
C1113 C1110 1.348 . S
C1113 C1111 1.356 . S
H1114 C1108 0.930 . S
H1115 C1112 0.930 . S
O1116 Li1056 1.956 . S
O1116 Li1057 1.970 . S
O1116 Li1058 1.961 . S
O1116 C1060 1.325 . S
O1117 Li1056 1.970 . S
O1117 Li1057 1.956 . S
O1117 Li1059 1.961 . S
O1117 C1066 1.325 . S
O1118 Li1056 1.961 . S
O1118 Li1058 1.956 . S
O1118 Li1059 1.970 . S
O1118 C1088 1.325 . S
O1119 Li1057 1.961 . S
O1119 Li1058 1.970 . S
O1119 Li1059 1.956 . S
O1119 C1094 1.325 . S
H1120 C1062 0.929 . S
H1121 C1063 0.930 . S
H1122 C1064 0.930 . S
H1123 C1065 0.930 . S
H1124 C1067 0.930 . S
H1125 C1069 0.929 . S
H1126 C1070 0.930 . S
H1127 C1071 0.930 . S
H1128 C1074 0.930 . S
H1129 C1077 0.929 . S
H1130 C1082 0.929 . S
H1131 C1083 0.930 . S
H1132 C1090 0.929 . S
H1133 C1091 0.930 . S
H1134 C1092 0.930 . S
H1135 C1093 0.930 . S
H1136 C1095 0.929 . S
H1137 C1096 0.930 . S
H1138 C1097 0.930 . S
H1139 C1098 0.930 . S
H1140 C1102 0.929 . S
H1141 C1104 0.930 . S
H1142 C1110 0.929 . S
H1143 C1111 0.930 . S
Li1144 N1161 1.990 . S
Li1144 O1204 1.956 . S
Li1144 O1205 1.970 . S
Li1144 O1206 1.961 . S
Li1145 N1169 1.990 . S
Li1145 O1204 1.970 . S
Li1145 O1205 1.956 . S
Li1145 O1207 1.961 . S
Li1146 N1191 1.990 . S
Li1146 O1204 1.961 . S
Li1146 O1206 1.956 . S
Li1146 O1207 1.970 . S
Li1147 N1197 1.990 . S
Li1147 O1205 1.961 . S
Li1147 O1206 1.970 . S
Li1147 O1207 1.956 . S
C1148 C1150 1.348 . S
C1148 C1151 1.356 . S
C1148 O1204 1.325 . S
N1149 C1152 1.314 . S
N1149 C1153 1.279 . S
C1150 C1148 1.348 . S
C1150 C1152 1.353 . S
C1150 H1208 0.929 . S
C1151 C1148 1.356 . S
C1151 C1153 1.358 . S
C1151 H1209 0.930 . S
C1152 N1149 1.314 . S
C1152 C1150 1.353 . S
C1152 H1210 0.930 . S
C1153 N1149 1.279 . S
C1153 C1151 1.358 . S
C1153 H1211 0.930 . S
C1154 C1157 1.348 . S
C1154 C1158 1.356 . S
C1154 O1205 1.325 . S
C1155 N1156 1.279 . S
C1155 C1158 1.358 . S
C1155 H1212 0.930 . S
N1156 C1155 1.279 . S
N1156 C1159 1.314 . S
C1157 C1154 1.348 . S
C1157 C1159 1.353 . S
C1157 H1213 0.929 . S
C1158 C1154 1.356 . S
C1158 C1155 1.358 . S
C1158 H1214 0.930 . S
C1159 N1156 1.314 . S
C1159 C1157 1.353 . S
C1159 H1215 0.930 . S
C1160 N1161 1.314 . S
C1160 C1165 1.353 . S
C1160 H1166 0.930 . S
N1161 Li1144 1.990 . S
N1161 C1160 1.314 . S
N1161 C1163 1.279 . S
C1162 C1163 1.358 . S
C1162 C1164 1.356 . S
C1162 H1216 0.930 . S
C1163 N1161 1.279 . S
C1163 C1162 1.358 . S
C1163 H1167 0.930 . S
C1164 C1162 1.356 . S
C1164 C1165 1.348 . S
C1165 C1160 1.353 . S
C1165 C1164 1.348 . S
C1165 H1217 0.929 . S
H1166 C1160 0.930 . S
H1167 C1163 0.930 . S
C1168 N1169 1.314 . S
C1168 C1170 1.353 . S
C1168 H1174 0.930 . S
N1169 Li1145 1.990 . S
N1169 C1168 1.314 . S
N1169 C1172 1.279 . S
C1170 C1168 1.353 . S
C1170 C1173 1.348 . S
C1170 H1218 0.929 . S
C1171 C1172 1.358 . S
C1171 C1173 1.356 . S
C1171 H1219 0.930 . S
C1172 N1169 1.279 . S
C1172 C1171 1.358 . S
C1172 H1175 0.930 . S
C1173 C1170 1.348 . S
C1173 C1171 1.356 . S
H1174 C1168 0.930 . S
H1175 C1172 0.930 . S
C1176 C1178 1.348 . S
C1176 C1179 1.356 . S
C1176 O1206 1.325 . S
N1177 C1180 1.314 . S
N1177 C1181 1.279 . S
C1178 C1176 1.348 . S
C1178 C1180 1.353 . S
C1178 H1220 0.929 . S
C1179 C1176 1.356 . S
C1179 C1181 1.358 . S
C1179 H1221 0.930 . S
C1180 N1177 1.314 . S
C1180 C1178 1.353 . S
C1180 H1222 0.930 . S
C1181 N1177 1.279 . S
C1181 C1179 1.358 . S
C1181 H1223 0.930 . S
C1182 C1183 1.348 . S
C1182 C1184 1.356 . S
C1182 O1207 1.325 . S
C1183 C1182 1.348 . S
C1183 C1185 1.353 . S
C1183 H1224 0.929 . S
C1184 C1182 1.356 . S
C1184 C1186 1.358 . S
C1184 H1225 0.930 . S
C1185 C1183 1.353 . S
C1185 N1187 1.314 . S
C1185 H1226 0.930 . S
C1186 C1184 1.358 . S
C1186 N1187 1.279 . S
C1186 H1227 0.930 . S
N1187 C1185 1.314 . S
N1187 C1186 1.279 . S
C1188 C1190 1.353 . S
C1188 N1191 1.314 . S
C1188 H1194 0.930 . S
C1189 N1191 1.279 . S
C1189 C1192 1.358 . S
C1189 H1195 0.930 . S
C1190 C1188 1.353 . S
C1190 C1193 1.348 . S
C1190 H1228 0.929 . S
N1191 Li1146 1.990 . S
N1191 C1188 1.314 . S
N1191 C1189 1.279 . S
C1192 C1189 1.358 . S
C1192 C1193 1.356 . S
C1192 H1229 0.930 . S
C1193 C1190 1.348 . S
C1193 C1192 1.356 . S
H1194 C1188 0.930 . S
H1195 C1189 0.930 . S
C1196 N1197 1.314 . S
C1196 C1198 1.353 . S
C1196 H1202 0.930 . S
N1197 Li1147 1.990 . S
N1197 C1196 1.314 . S
N1197 C1200 1.279 . S
C1198 C1196 1.353 . S
C1198 C1201 1.348 . S
C1198 H1230 0.929 . S
C1199 C1200 1.358 . S
C1199 C1201 1.356 . S
C1199 H1231 0.930 . S
C1200 N1197 1.279 . S
C1200 C1199 1.358 . S
C1200 H1203 0.930 . S
C1201 C1198 1.348 . S
C1201 C1199 1.356 . S
H1202 C1196 0.930 . S
H1203 C1200 0.930 . S
O1204 Li1144 1.956 . S
O1204 Li1145 1.970 . S
O1204 Li1146 1.961 . S
O1204 C1148 1.325 . S
O1205 Li1144 1.970 . S
O1205 Li1145 1.956 . S
O1205 Li1147 1.961 . S
O1205 C1154 1.325 . S
O1206 Li1144 1.961 . S
O1206 Li1146 1.956 . S
O1206 Li1147 1.970 . S
O1206 C1176 1.325 . S
O1207 Li1145 1.961 . S
O1207 Li1146 1.970 . S
O1207 Li1147 1.956 . S
O1207 C1182 1.325 . S
H1208 C1150 0.929 . S
H1209 C1151 0.930 . S
H1210 C1152 0.930 . S
H1211 C1153 0.930 . S
H1212 C1155 0.930 . S
H1213 C1157 0.929 . S
H1214 C1158 0.930 . S
H1215 C1159 0.930 . S
H1216 C1162 0.930 . S
H1217 C1165 0.929 . S
H1218 C1170 0.929 . S
H1219 C1171 0.930 . S
H1220 C1178 0.929 . S
H1221 C1179 0.930 . S
H1222 C1180 0.930 . S
H1223 C1181 0.930 . S
H1224 C1183 0.929 . S
H1225 C1184 0.930 . S
H1226 C1185 0.930 . S
H1227 C1186 0.930 . S
H1228 C1190 0.929 . S
H1229 C1192 0.930 . S
H1230 C1198 0.929 . S
H1231 C1199 0.930 . S
Li1232 N1249 1.990 . S
Li1232 O1292 1.956 . S
Li1232 O1293 1.970 . S
Li1232 O1294 1.961 . S
Li1233 N1257 1.990 . S
Li1233 O1292 1.970 . S
Li1233 O1293 1.956 . S
Li1233 O1295 1.961 1_455 S
Li1234 N1279 1.990 . S
Li1234 O1292 1.961 . S
Li1234 O1294 1.956 . S
Li1234 O1295 1.970 1_455 S
Li1235 N1285 1.990 . S
Li1235 O1293 1.961 1_655 S
Li1235 O1294 1.970 1_655 S
Li1235 O1295 1.956 . S
C1236 C1238 1.348 . S
C1236 C1239 1.356 . S
C1236 O1292 1.325 . S
N1237 C1240 1.314 . S
N1237 C1241 1.279 . S
C1238 C1236 1.348 . S
C1238 C1240 1.353 . S
C1238 H1296 0.929 . S
C1239 C1236 1.356 . S
C1239 C1241 1.358 . S
C1239 H1297 0.930 . S
C1240 N1237 1.314 . S
C1240 C1238 1.353 . S
C1240 H1298 0.930 . S
C1241 N1237 1.279 . S
C1241 C1239 1.358 . S
C1241 H1299 0.930 . S
C1242 C1245 1.348 . S
C1242 C1246 1.356 . S
C1242 O1293 1.325 . S
C1243 N1244 1.279 . S
C1243 C1246 1.358 . S
C1243 H1300 0.930 1_455 S
N1244 C1243 1.279 . S
N1244 C1247 1.314 . S
C1245 C1242 1.348 . S
C1245 C1247 1.353 . S
C1245 H1301 0.929 . S
C1246 C1242 1.356 . S
C1246 C1243 1.358 . S
C1246 H1302 0.930 1_455 S
C1247 N1244 1.314 . S
C1247 C1245 1.353 . S
C1247 H1303 0.930 . S
C1248 N1249 1.314 . S
C1248 C1253 1.353 . S
C1248 H1254 0.930 . S
N1249 Li1232 1.990 . S
N1249 C1248 1.314 . S
N1249 C1251 1.279 . S
C1250 C1251 1.358 . S
C1250 C1252 1.356 . S
C1250 H1304 0.930 . S
C1251 N1249 1.279 . S
C1251 C1250 1.358 . S
C1251 H1255 0.930 . S
C1252 C1250 1.356 . S
C1252 C1253 1.348 . S
C1253 C1248 1.353 . S
C1253 C1252 1.348 . S
C1253 H1305 0.929 . S
H1254 C1248 0.930 . S
H1255 C1251 0.930 . S
C1256 N1257 1.314 . S
C1256 C1258 1.353 . S
C1256 H1262 0.930 . S
N1257 Li1233 1.990 . S
N1257 C1256 1.314 . S
N1257 C1260 1.279 . S
C1258 C1256 1.353 . S
C1258 C1261 1.348 . S
C1258 H1306 0.929 . S
C1259 C1260 1.358 . S
C1259 C1261 1.356 . S
C1259 H1307 0.930 . S
C1260 N1257 1.279 . S
C1260 C1259 1.358 . S
C1260 H1263 0.930 . S
C1261 C1258 1.348 . S
C1261 C1259 1.356 . S
H1262 C1256 0.930 . S
H1263 C1260 0.930 . S
C1264 C1266 1.348 1_455 S
C1264 C1267 1.356 . S
C1264 O1294 1.325 . S
N1265 C1268 1.314 . S
N1265 C1269 1.279 1_655 S
C1266 C1264 1.348 1_655 S
C1266 C1268 1.353 . S
C1266 H1308 0.929 . S
C1267 C1264 1.356 . S
C1267 C1269 1.358 . S
C1267 H1309 0.930 . S
C1268 N1265 1.314 . S
C1268 C1266 1.353 . S
C1268 H1310 0.930 . S
C1269 N1265 1.279 1_455 S
C1269 C1267 1.358 . S
C1269 H1311 0.930 . S
C1270 C1271 1.348 . S
C1270 C1272 1.356 . S
C1270 O1295 1.325 . S
C1271 C1270 1.348 . S
C1271 C1273 1.353 . S
C1271 H1312 0.929 . S
C1272 C1270 1.356 . S
C1272 C1274 1.358 . S
C1272 H1313 0.930 . S
C1273 C1271 1.353 . S
C1273 N1275 1.314 . S
C1273 H1314 0.930 . S
C1274 C1272 1.358 . S
C1274 N1275 1.279 . S
C1274 H1315 0.930 . S
N1275 C1273 1.314 . S
N1275 C1274 1.279 . S
C1276 C1278 1.353 . S
C1276 N1279 1.314 . S
C1276 H1282 0.930 . S
C1277 N1279 1.279 . S
C1277 C1280 1.359 . S
C1277 H1283 0.930 1_455 S
C1278 C1276 1.353 . S
C1278 C1281 1.348 . S
C1278 H1316 0.929 . S
N1279 Li1234 1.990 . S
N1279 C1276 1.314 . S
N1279 C1277 1.279 . S
C1280 C1277 1.359 . S
C1280 C1281 1.358 . S
C1280 H1317 0.927 1_455 S
C1281 C1278 1.348 . S
C1281 C1280 1.358 . S
H1282 C1276 0.930 . S
H1283 C1277 0.930 1_655 S
C1284 N1285 1.314 . S
C1284 C1286 1.353 . S
C1284 H1290 0.930 . S
N1285 Li1235 1.990 . S
N1285 C1284 1.314 . S
N1285 C1288 1.279 . S
C1286 C1284 1.353 . S
C1286 C1289 1.348 . S
C1286 H1318 0.929 . S
C1287 C1288 1.358 . S
C1287 C1289 1.356 . S
C1287 H1319 0.930 . S
C1288 N1285 1.279 . S
C1288 C1287 1.358 . S
C1288 H1291 0.930 . S
C1289 C1286 1.348 . S
C1289 C1287 1.356 . S
H1290 C1284 0.930 . S
H1291 C1288 0.930 . S
O1292 Li1232 1.956 . S
O1292 Li1233 1.970 . S
O1292 Li1234 1.961 . S
O1292 C1236 1.325 . S
O1293 Li1232 1.970 . S
O1293 Li1233 1.956 . S
O1293 Li1235 1.961 1_455 S
O1293 C1242 1.325 . S
O1294 Li1232 1.961 . S
O1294 Li1234 1.956 . S
O1294 Li1235 1.970 1_455 S
O1294 C1264 1.325 . S
O1295 Li1233 1.961 1_655 S
O1295 Li1234 1.970 1_655 S
O1295 Li1235 1.956 . S
O1295 C1270 1.325 . S
H1296 C1238 0.929 . S
H1297 C1239 0.930 . S
H1298 C1240 0.930 . S
H1299 C1241 0.930 . S
H1300 C1243 0.930 1_655 S
H1301 C1245 0.929 . S
H1302 C1246 0.930 1_655 S
H1303 C1247 0.930 . S
H1304 C1250 0.930 . S
H1305 C1253 0.929 . S
H1306 C1258 0.929 . S
H1307 C1259 0.930 . S
H1308 C1266 0.929 . S
H1309 C1267 0.930 . S
H1310 C1268 0.930 . S
H1311 C1269 0.930 . S
H1312 C1271 0.929 . S
H1313 C1272 0.930 . S
H1314 C1273 0.930 . S
H1315 C1274 0.930 . S
H1316 C1278 0.929 . S
H1317 C1280 0.927 1_655 S
H1318 C1286 0.929 . S
H1319 C1287 0.930 . S
Li1320 N1337 1.990 . S
Li1320 O1380 1.956 . S
Li1320 O1381 1.970 . S
Li1320 O1382 1.961 . S
Li1321 N1345 1.990 . S
Li1321 O1380 1.970 . S
Li1321 O1381 1.956 . S
Li1321 O1383 1.961 1_545 S
Li1322 N1367 1.990 . S
Li1322 O1380 1.961 . S
Li1322 O1382 1.956 . S
Li1322 O1383 1.970 1_545 S
Li1323 N1373 1.990 . S
Li1323 O1381 1.961 1_565 S
Li1323 O1382 1.970 1_565 S
Li1323 O1383 1.956 . S
C1324 C1326 1.348 . S
C1324 C1327 1.356 . S
C1324 O1380 1.325 . S
N1325 C1328 1.314 . S
N1325 C1329 1.279 . S
C1326 C1324 1.348 . S
C1326 C1328 1.353 . S
C1326 H1384 0.929 . S
C1327 C1324 1.356 . S
C1327 C1329 1.358 . S
C1327 H1385 0.930 . S
C1328 N1325 1.314 . S
C1328 C1326 1.353 . S
C1328 H1386 0.930 . S
C1329 N1325 1.279 . S
C1329 C1327 1.358 . S
C1329 H1387 0.930 . S
C1330 C1333 1.348 . S
C1330 C1334 1.356 . S
C1330 O1381 1.325 . S
C1331 N1332 1.279 . S
C1331 C1334 1.358 . S
C1331 H1388 0.930 1_545 S
N1332 C1331 1.279 . S
N1332 C1335 1.314 . S
C1333 C1330 1.348 . S
C1333 C1335 1.353 . S
C1333 H1389 0.929 . S
C1334 C1330 1.356 . S
C1334 C1331 1.358 . S
C1334 H1390 0.930 1_545 S
C1335 N1332 1.314 . S
C1335 C1333 1.353 . S
C1335 H1391 0.930 . S
C1336 N1337 1.314 . S
C1336 C1341 1.353 . S
C1336 H1342 0.930 . S
N1337 Li1320 1.990 . S
N1337 C1336 1.314 . S
N1337 C1339 1.279 . S
C1338 C1339 1.358 . S
C1338 C1340 1.356 . S
C1338 H1392 0.930 . S
C1339 N1337 1.279 . S
C1339 C1338 1.358 . S
C1339 H1343 0.930 . S
C1340 C1338 1.356 . S
C1340 C1341 1.348 . S
C1341 C1336 1.353 . S
C1341 C1340 1.348 . S
C1341 H1393 0.929 . S
H1342 C1336 0.930 . S
H1343 C1339 0.930 . S
C1344 N1345 1.314 . S
C1344 C1346 1.353 . S
C1344 H1350 0.930 . S
N1345 Li1321 1.990 . S
N1345 C1344 1.314 . S
N1345 C1348 1.279 . S
C1346 C1344 1.353 . S
C1346 C1349 1.348 . S
C1346 H1394 0.929 . S
C1347 C1348 1.358 . S
C1347 C1349 1.356 . S
C1347 H1395 0.930 . S
C1348 N1345 1.279 . S
C1348 C1347 1.358 . S
C1348 H1351 0.930 . S
C1349 C1346 1.348 . S
C1349 C1347 1.356 . S
H1350 C1344 0.930 . S
H1351 C1348 0.930 . S
C1352 C1354 1.348 1_545 S
C1352 C1355 1.356 . S
C1352 O1382 1.325 . S
N1353 C1356 1.314 . S
N1353 C1357 1.279 1_565 S
C1354 C1352 1.348 1_565 S
C1354 C1356 1.353 . S
C1354 H1396 0.929 . S
C1355 C1352 1.356 . S
C1355 C1357 1.358 . S
C1355 H1397 0.930 . S
C1356 N1353 1.314 . S
C1356 C1354 1.353 . S
C1356 H1398 0.930 . S
C1357 N1353 1.279 1_545 S
C1357 C1355 1.358 . S
C1357 H1399 0.930 . S
C1358 C1359 1.348 . S
C1358 C1360 1.356 . S
C1358 O1383 1.325 . S
C1359 C1358 1.348 . S
C1359 C1361 1.353 . S
C1359 H1400 0.929 . S
C1360 C1358 1.356 . S
C1360 C1362 1.358 . S
C1360 H1401 0.930 . S
C1361 C1359 1.353 . S
C1361 N1363 1.314 . S
C1361 H1402 0.930 . S
C1362 C1360 1.358 . S
C1362 N1363 1.279 . S
C1362 H1403 0.930 . S
N1363 C1361 1.314 . S
N1363 C1362 1.279 . S
C1364 C1366 1.353 . S
C1364 N1367 1.314 . S
C1364 H1370 0.930 . S
C1365 N1367 1.279 . S
C1365 C1368 1.359 . S
C1365 H1371 0.930 1_545 S
C1366 C1364 1.353 . S
C1366 C1369 1.348 . S
C1366 H1404 0.929 . S
N1367 Li1322 1.990 . S
N1367 C1364 1.314 . S
N1367 C1365 1.279 . S
C1368 C1365 1.359 . S
C1368 C1369 1.358 . S
C1368 H1405 0.927 1_545 S
C1369 C1366 1.348 . S
C1369 C1368 1.358 . S
H1370 C1364 0.930 . S
H1371 C1365 0.930 1_565 S
C1372 N1373 1.314 . S
C1372 C1374 1.353 . S
C1372 H1378 0.930 . S
N1373 Li1323 1.990 . S
N1373 C1372 1.314 . S
N1373 C1376 1.279 . S
C1374 C1372 1.353 . S
C1374 C1377 1.348 . S
C1374 H1406 0.929 . S
C1375 C1376 1.358 . S
C1375 C1377 1.356 . S
C1375 H1407 0.930 . S
C1376 N1373 1.279 . S
C1376 C1375 1.358 . S
C1376 H1379 0.930 . S
C1377 C1374 1.348 . S
C1377 C1375 1.356 . S
H1378 C1372 0.930 . S
H1379 C1376 0.930 . S
O1380 Li1320 1.956 . S
O1380 Li1321 1.970 . S
O1380 Li1322 1.961 . S
O1380 C1324 1.325 . S
O1381 Li1320 1.970 . S
O1381 Li1321 1.956 . S
O1381 Li1323 1.961 1_545 S
O1381 C1330 1.325 . S
O1382 Li1320 1.961 . S
O1382 Li1322 1.956 . S
O1382 Li1323 1.970 1_545 S
O1382 C1352 1.325 . S
O1383 Li1321 1.961 1_565 S
O1383 Li1322 1.970 1_565 S
O1383 Li1323 1.956 . S
O1383 C1358 1.325 . S
H1384 C1326 0.929 . S
H1385 C1327 0.930 . S
H1386 C1328 0.930 . S
H1387 C1329 0.930 . S
H1388 C1331 0.930 1_565 S
H1389 C1333 0.929 . S
H1390 C1334 0.930 1_565 S
H1391 C1335 0.930 . S
H1392 C1338 0.930 . S
H1393 C1341 0.929 . S
H1394 C1346 0.929 . S
H1395 C1347 0.930 . S
H1396 C1354 0.929 . S
H1397 C1355 0.930 . S
H1398 C1356 0.930 . S
H1399 C1357 0.930 . S
H1400 C1359 0.929 . S
H1401 C1360 0.930 . S
H1402 C1361 0.930 . S
H1403 C1362 0.930 . S
H1404 C1366 0.929 . S
H1405 C1368 0.927 1_565 S
H1406 C1374 0.929 . S
H1407 C1375 0.930 . S
H1408 C1426 0.951 . S
H1409 C1428 0.951 . S
H1410 C1430 0.950 . S
H1411 C1431 0.950 . S
H1412 C1433 0.950 . S
H1413 C1436 0.950 . S
H1414 C1437 0.950 . S
H1415 C1439 0.950 . S
H1416 C1440 0.950 . S
H1417 C1441 0.951 . S
H1418 C1443 0.951 . S
H1419 C1445 0.950 . S
H1420 C1446 0.950 . S
H1421 C1448 0.950 . S
H1422 C1451 0.950 . S
H1423 C1452 0.950 . S
H1424 C1454 0.950 . S
H1425 C1455 0.950 . S
C1426 H1408 0.951 . S
C1426 C1427 1.366 . S
C1426 C1428 1.388 . S
C1427 C1426 1.366 . S
C1427 C1431 1.385 . S
C1428 H1409 0.951 . S
C1428 C1426 1.388 . S
C1428 C1429 1.366 . S
C1429 C1428 1.366 . S
C1429 C1430 1.414 . S
C1429 C1432 1.499 . S
C1430 H1410 0.950 . S
C1430 C1429 1.414 . S
C1430 C1431 1.374 . S
C1431 H1411 0.950 . S
C1431 C1427 1.385 . S
C1431 C1430 1.374 . S
C1432 C1429 1.499 . S
C1432 C1433 1.373 . S
C1432 C1434 1.389 . S
C1433 H1412 0.950 . S
C1433 C1432 1.373 . S
C1433 C1449 1.377 . S
C1434 C1432 1.389 . S
C1434 C1435 1.524 . S
C1434 C1448 1.377 . S
C1435 C1434 1.524 . S
C1435 C1436 1.397 . S
C1435 C1440 1.363 . S
C1436 H1413 0.950 . S
C1436 C1435 1.397 . S
C1436 C1437 1.334 . S
C1437 H1414 0.950 . S
C1437 C1436 1.334 . S
C1437 C1438 1.287 . S
C1438 C1437 1.287 . S
C1438 C1439 1.524 . S
C1438 H1457 0.913 . S
C1439 H1415 0.950 . S
C1439 C1438 1.524 . S
C1439 C1440 1.415 . S
C1440 H1416 0.950 . S
C1440 C1435 1.363 . S
C1440 C1439 1.415 . S
C1441 H1417 0.951 . S
C1441 C1442 1.366 . S
C1441 C1443 1.388 . S
C1442 C1441 1.366 . S
C1442 C1446 1.385 . S
C1443 H1418 0.951 . S
C1443 C1441 1.388 . S
C1443 C1444 1.366 . S
C1444 C1443 1.366 . S
C1444 C1445 1.414 . S
C1444 C1447 1.499 . S
C1445 H1419 0.950 . S
C1445 C1444 1.414 . S
C1445 C1446 1.374 . S
C1446 H1420 0.950 . S
C1446 C1442 1.385 . S
C1446 C1445 1.374 . S
C1447 C1444 1.499 . S
C1447 C1448 1.373 . S
C1447 C1449 1.389 . S
C1448 H1421 0.950 . S
C1448 C1434 1.377 . S
C1448 C1447 1.373 . S
C1449 C1433 1.377 . S
C1449 C1447 1.389 . S
C1449 C1450 1.524 . S
C1450 C1449 1.524 . S
C1450 C1451 1.397 . S
C1450 C1455 1.363 . S
C1451 H1422 0.950 . S
C1451 C1450 1.397 . S
C1451 C1452 1.334 . S
C1452 H1423 0.950 . S
C1452 C1451 1.334 . S
C1452 C1453 1.287 . S
C1453 C1452 1.287 . S
C1453 C1454 1.524 . S
C1453 H1456 0.999 . S
C1454 H1424 0.950 . S
C1454 C1453 1.524 . S
C1454 C1455 1.415 . S
C1455 H1425 0.950 . S
C1455 C1450 1.363 . S
C1455 C1454 1.415 . S
H1456 C1453 0.999 . S
H1457 C1438 0.913 . S
H1458 C1476 0.951 . S
H1459 C1478 0.951 . S
H1460 C1480 0.950 . S
H1461 C1481 0.950 . S
H1462 C1483 0.950 . S
H1463 C1486 0.950 . S
H1464 C1487 0.950 . S
H1465 C1489 0.950 . S
H1466 C1490 0.950 . S
H1467 C1491 0.951 . S
H1468 C1493 0.951 . S
H1469 C1495 0.950 . S
H1470 C1496 0.950 . S
H1471 C1498 0.950 . S
H1472 C1501 0.950 . S
H1473 C1502 0.950 . S
H1474 C1504 0.950 . S
H1475 C1505 0.950 . S
C1476 H1458 0.951 . S
C1476 C1477 1.366 . S
C1476 C1478 1.388 . S
C1477 C1476 1.366 . S
C1477 C1481 1.385 . S
C1478 H1459 0.951 . S
C1478 C1476 1.388 . S
C1478 C1479 1.366 . S
C1479 C1478 1.366 . S
C1479 C1480 1.414 . S
C1479 C1482 1.499 . S
C1480 H1460 0.950 . S
C1480 C1479 1.414 . S
C1480 C1481 1.374 . S
C1481 H1461 0.950 . S
C1481 C1477 1.385 . S
C1481 C1480 1.374 . S
C1482 C1479 1.499 . S
C1482 C1483 1.373 . S
C1482 C1484 1.389 . S
C1483 H1462 0.950 . S
C1483 C1482 1.373 . S
C1483 C1499 1.377 . S
C1484 C1482 1.389 . S
C1484 C1485 1.524 . S
C1484 C1498 1.377 . S
C1485 C1484 1.524 . S
C1485 C1486 1.397 . S
C1485 C1490 1.363 . S
C1486 H1463 0.950 . S
C1486 C1485 1.397 . S
C1486 C1487 1.334 . S
C1487 H1464 0.950 . S
C1487 C1486 1.334 . S
C1487 C1488 1.287 . S
C1488 C1487 1.287 . S
C1488 C1489 1.524 . S
C1488 H1507 0.913 . S
C1489 H1465 0.950 . S
C1489 C1488 1.524 . S
C1489 C1490 1.415 . S
C1490 H1466 0.950 . S
C1490 C1485 1.363 . S
C1490 C1489 1.415 . S
C1491 H1467 0.951 . S
C1491 C1492 1.366 . S
C1491 C1493 1.388 . S
C1492 C1491 1.366 . S
C1492 C1496 1.385 . S
C1493 H1468 0.951 . S
C1493 C1491 1.388 . S
C1493 C1494 1.366 . S
C1494 C1493 1.366 . S
C1494 C1495 1.414 . S
C1494 C1497 1.499 . S
C1495 H1469 0.950 . S
C1495 C1494 1.414 . S
C1495 C1496 1.374 . S
C1496 H1470 0.950 . S
C1496 C1492 1.385 . S
C1496 C1495 1.374 . S
C1497 C1494 1.499 . S
C1497 C1498 1.373 . S
C1497 C1499 1.389 . S
C1498 H1471 0.950 . S
C1498 C1484 1.377 . S
C1498 C1497 1.373 . S
C1499 C1483 1.377 . S
C1499 C1497 1.389 . S
C1499 C1500 1.524 . S
C1500 C1499 1.524 . S
C1500 C1501 1.397 . S
C1500 C1505 1.363 . S
C1501 H1472 0.950 . S
C1501 C1500 1.397 . S
C1501 C1502 1.334 . S
C1502 H1473 0.950 . S
C1502 C1501 1.334 . S
C1502 C1503 1.287 . S
C1503 C1502 1.287 . S
C1503 C1504 1.524 . S
C1503 H1506 0.999 . S
C1504 H1474 0.950 . S
C1504 C1503 1.524 . S
C1504 C1505 1.415 . S
C1505 H1475 0.950 . S
C1505 C1500 1.363 . S
C1505 C1504 1.415 . S
H1506 C1503 0.999 . S
H1507 C1488 0.913 . S
H1508 C1526 0.951 . S
H1509 C1528 0.951 . S
H1510 C1530 0.950 . S
H1511 C1531 0.950 . S
H1512 C1533 0.950 . S
H1513 C1536 0.950 . S
H1514 C1537 0.950 . S
H1515 C1539 0.950 . S
H1516 C1540 0.950 . S
H1517 C1541 0.951 . S
H1518 C1543 0.951 . S
H1519 C1545 0.950 . S
H1520 C1546 0.950 . S
H1521 C1548 0.950 . S
H1522 C1551 0.950 . S
H1523 C1552 0.950 . S
H1524 C1554 0.950 . S
H1525 C1555 0.950 . S
C1526 H1508 0.951 . S
C1526 C1527 1.366 . S
C1526 C1528 1.388 . S
C1527 C1526 1.366 . S
C1527 C1531 1.385 . S
C1528 H1509 0.951 . S
C1528 C1526 1.388 . S
C1528 C1529 1.366 . S
C1529 C1528 1.366 . S
C1529 C1530 1.414 . S
C1529 C1532 1.499 . S
C1530 H1510 0.950 . S
C1530 C1529 1.414 . S
C1530 C1531 1.374 . S
C1531 H1511 0.950 . S
C1531 C1527 1.385 . S
C1531 C1530 1.374 . S
C1532 C1529 1.499 . S
C1532 C1533 1.373 . S
C1532 C1534 1.389 . S
C1533 H1512 0.950 . S
C1533 C1532 1.373 . S
C1533 C1549 1.377 . S
C1534 C1532 1.389 . S
C1534 C1535 1.524 . S
C1534 C1548 1.377 . S
C1535 C1534 1.524 . S
C1535 C1536 1.397 . S
C1535 C1540 1.363 . S
C1536 H1513 0.950 . S
C1536 C1535 1.397 . S
C1536 C1537 1.334 . S
C1537 H1514 0.950 . S
C1537 C1536 1.334 . S
C1537 C1538 1.287 . S
C1538 C1537 1.287 . S
C1538 C1539 1.524 . S
C1538 H1557 0.913 . S
C1539 H1515 0.950 . S
C1539 C1538 1.524 . S
C1539 C1540 1.415 . S
C1540 H1516 0.950 . S
C1540 C1535 1.363 . S
C1540 C1539 1.415 . S
C1541 H1517 0.951 . S
C1541 C1542 1.366 . S
C1541 C1543 1.388 . S
C1542 C1541 1.366 . S
C1542 C1546 1.385 . S
C1543 H1518 0.951 . S
C1543 C1541 1.388 . S
C1543 C1544 1.366 . S
C1544 C1543 1.366 . S
C1544 C1545 1.414 . S
C1544 C1547 1.499 . S
C1545 H1519 0.950 . S
C1545 C1544 1.414 . S
C1545 C1546 1.374 . S
C1546 H1520 0.950 . S
C1546 C1542 1.385 . S
C1546 C1545 1.374 . S
C1547 C1544 1.499 . S
C1547 C1548 1.373 . S
C1547 C1549 1.389 . S
C1548 H1521 0.950 . S
C1548 C1534 1.377 . S
C1548 C1547 1.373 . S
C1549 C1533 1.377 . S
C1549 C1547 1.389 . S
C1549 C1550 1.524 . S
C1550 C1549 1.524 . S
C1550 C1551 1.397 . S
C1550 C1555 1.363 . S
C1551 H1522 0.950 . S
C1551 C1550 1.397 . S
C1551 C1552 1.334 . S
C1552 H1523 0.950 . S
C1552 C1551 1.334 . S
C1552 C1553 1.287 . S
C1553 C1552 1.287 . S
C1553 C1554 1.524 . S
C1553 H1556 0.999 . S
C1554 H1524 0.950 . S
C1554 C1553 1.524 . S
C1554 C1555 1.415 . S
C1555 H1525 0.950 . S
C1555 C1550 1.363 . S
C1555 C1554 1.415 . S
H1556 C1553 0.999 . S
H1557 C1538 0.913 . S
H1558 C1576 0.951 . S
H1559 C1578 0.951 . S
H1560 C1580 0.950 . S
H1561 C1581 0.950 . S
H1562 C1583 0.950 . S
H1563 C1586 0.950 . S
H1564 C1587 0.950 . S
H1565 C1589 0.950 . S
H1566 C1590 0.950 . S
H1567 C1591 0.951 . S
H1568 C1593 0.951 . S
H1569 C1595 0.950 . S
H1570 C1596 0.950 . S
H1571 C1598 0.950 . S
H1572 C1601 0.950 . S
H1573 C1602 0.950 . S
H1574 C1604 0.950 . S
H1575 C1605 0.950 . S
C1576 H1558 0.951 . S
C1576 C1577 1.366 . S
C1576 C1578 1.388 . S
C1577 C1576 1.366 . S
C1577 C1581 1.385 . S
C1578 H1559 0.951 . S
C1578 C1576 1.388 . S
C1578 C1579 1.366 . S
C1579 C1578 1.366 . S
C1579 C1580 1.414 . S
C1579 C1582 1.499 . S
C1580 H1560 0.950 . S
C1580 C1579 1.414 . S
C1580 C1581 1.374 . S
C1581 H1561 0.950 . S
C1581 C1577 1.385 . S
C1581 C1580 1.374 . S
C1582 C1579 1.499 . S
C1582 C1583 1.373 . S
C1582 C1584 1.389 . S
C1583 H1562 0.950 . S
C1583 C1582 1.373 . S
C1583 C1599 1.377 . S
C1584 C1582 1.389 . S
C1584 C1585 1.524 . S
C1584 C1598 1.377 . S
C1585 C1584 1.524 . S
C1585 C1586 1.397 . S
C1585 C1590 1.363 . S
C1586 H1563 0.950 . S
C1586 C1585 1.397 . S
C1586 C1587 1.334 . S
C1587 H1564 0.950 . S
C1587 C1586 1.334 . S
C1587 C1588 1.287 . S
C1588 C1587 1.287 . S
C1588 C1589 1.524 . S
C1588 H1607 0.913 . S
C1589 H1565 0.950 . S
C1589 C1588 1.524 . S
C1589 C1590 1.415 . S
C1590 H1566 0.950 . S
C1590 C1585 1.363 . S
C1590 C1589 1.415 . S
C1591 H1567 0.951 . S
C1591 C1592 1.366 . S
C1591 C1593 1.388 . S
C1592 C1591 1.366 . S
C1592 C1596 1.385 . S
C1593 H1568 0.951 . S
C1593 C1591 1.388 . S
C1593 C1594 1.366 . S
C1594 C1593 1.366 . S
C1594 C1595 1.414 . S
C1594 C1597 1.499 . S
C1595 H1569 0.950 . S
C1595 C1594 1.414 . S
C1595 C1596 1.374 . S
C1596 H1570 0.950 . S
C1596 C1592 1.385 . S
C1596 C1595 1.374 . S
C1597 C1594 1.499 . S
C1597 C1598 1.373 . S
C1597 C1599 1.389 . S
C1598 H1571 0.950 . S
C1598 C1584 1.377 . S
C1598 C1597 1.373 . S
C1599 C1583 1.377 . S
C1599 C1597 1.389 . S
C1599 C1600 1.524 . S
C1600 C1599 1.524 . S
C1600 C1601 1.397 . S
C1600 C1605 1.363 . S
C1601 H1572 0.950 . S
C1601 C1600 1.397 . S
C1601 C1602 1.334 . S
C1602 H1573 0.950 . S
C1602 C1601 1.334 . S
C1602 C1603 1.287 . S
C1603 C1602 1.287 . S
C1603 C1604 1.524 . S
C1603 H1606 0.999 . S
C1604 H1574 0.950 . S
C1604 C1603 1.524 . S
C1604 C1605 1.415 . S
C1605 H1575 0.950 . S
C1605 C1600 1.363 . S
C1605 C1604 1.415 . S
H1606 C1603 0.999 . S
H1607 C1588 0.913 . S
H1608 C1626 0.951 . S
H1609 C1628 0.951 . S
H1610 C1630 0.950 . S
H1611 C1631 0.950 . S
H1612 C1633 0.950 . S
H1613 C1636 0.950 . S
H1614 C1637 0.950 . S
H1615 C1639 0.950 . S
H1616 C1640 0.950 . S
H1617 C1641 0.951 . S
H1618 C1643 0.951 . S
H1619 C1645 0.950 . S
H1620 C1646 0.950 . S
H1621 C1648 0.950 . S
H1622 C1651 0.950 . S
H1623 C1652 0.950 . S
H1624 C1654 0.950 . S
H1625 C1655 0.950 . S
C1626 H1608 0.951 . S
C1626 C1627 1.366 . S
C1626 C1628 1.388 . S
C1627 C1626 1.366 . S
C1627 C1631 1.385 . S
C1628 H1609 0.951 . S
C1628 C1626 1.388 . S
C1628 C1629 1.366 . S
C1629 C1628 1.366 . S
C1629 C1630 1.414 . S
C1629 C1632 1.499 . S
C1630 H1610 0.950 . S
C1630 C1629 1.414 . S
C1630 C1631 1.374 . S
C1631 H1611 0.950 . S
C1631 C1627 1.385 . S
C1631 C1630 1.374 . S
C1632 C1629 1.499 . S
C1632 C1633 1.373 . S
C1632 C1634 1.389 . S
C1633 H1612 0.950 . S
C1633 C1632 1.373 . S
C1633 C1649 1.377 . S
C1634 C1632 1.389 . S
C1634 C1635 1.524 . S
C1634 C1648 1.377 . S
C1635 C1634 1.524 . S
C1635 C1636 1.397 . S
C1635 C1640 1.363 . S
C1636 H1613 0.950 . S
C1636 C1635 1.397 . S
C1636 C1637 1.334 . S
C1637 H1614 0.950 . S
C1637 C1636 1.334 . S
C1637 C1638 1.287 . S
C1638 C1637 1.287 . S
C1638 C1639 1.524 . S
C1638 H1657 0.913 . S
C1639 H1615 0.950 . S
C1639 C1638 1.524 . S
C1639 C1640 1.415 . S
C1640 H1616 0.950 . S
C1640 C1635 1.363 . S
C1640 C1639 1.415 . S
C1641 H1617 0.951 . S
C1641 C1642 1.366 . S
C1641 C1643 1.388 . S
C1642 C1641 1.366 . S
C1642 C1646 1.385 . S
C1643 H1618 0.951 . S
C1643 C1641 1.388 . S
C1643 C1644 1.366 . S
C1644 C1643 1.366 . S
C1644 C1645 1.414 . S
C1644 C1647 1.499 . S
C1645 H1619 0.950 . S
C1645 C1644 1.414 . S
C1645 C1646 1.374 . S
C1646 H1620 0.950 . S
C1646 C1642 1.385 . S
C1646 C1645 1.374 . S
C1647 C1644 1.499 . S
C1647 C1648 1.373 . S
C1647 C1649 1.389 . S
C1648 H1621 0.950 . S
C1648 C1634 1.377 . S
C1648 C1647 1.373 . S
C1649 C1633 1.377 . S
C1649 C1647 1.389 . S
C1649 C1650 1.524 . S
C1650 C1649 1.524 . S
C1650 C1651 1.397 . S
C1650 C1655 1.363 . S
C1651 H1622 0.950 . S
C1651 C1650 1.397 . S
C1651 C1652 1.334 . S
C1652 H1623 0.950 . S
C1652 C1651 1.334 . S
C1652 C1653 1.287 . S
C1653 C1652 1.287 . S
C1653 C1654 1.524 . S
C1653 H1656 0.999 . S
C1654 H1624 0.950 . S
C1654 C1653 1.524 . S
C1654 C1655 1.415 . S
C1655 H1625 0.950 . S
C1655 C1650 1.363 . S
C1655 C1654 1.415 . S
H1656 C1653 0.999 . S
H1657 C1638 0.913 . S
H1658 C1676 0.951 . S
H1659 C1678 0.951 . S
H1660 C1680 0.950 . S
H1661 C1681 0.950 . S
H1662 C1683 0.950 . S
H1663 C1686 0.950 . S
H1664 C1687 0.950 . S
H1665 C1689 0.950 . S
H1666 C1690 0.950 . S
H1667 C1691 0.951 . S
H1668 C1693 0.951 . S
H1669 C1695 0.950 . S
H1670 C1696 0.950 . S
H1671 C1698 0.950 . S
H1672 C1701 0.950 . S
H1673 C1702 0.950 . S
H1674 C1704 0.950 . S
H1675 C1705 0.950 . S
C1676 H1658 0.951 . S
C1676 C1677 1.366 . S
C1676 C1678 1.388 . S
C1677 C1676 1.366 . S
C1677 C1681 1.385 . S
C1678 H1659 0.951 . S
C1678 C1676 1.388 . S
C1678 C1679 1.366 . S
C1679 C1678 1.366 . S
C1679 C1680 1.414 . S
C1679 C1682 1.499 . S
C1680 H1660 0.950 . S
C1680 C1679 1.414 . S
C1680 C1681 1.374 . S
C1681 H1661 0.950 . S
C1681 C1677 1.385 . S
C1681 C1680 1.374 . S
C1682 C1679 1.499 . S
C1682 C1683 1.373 . S
C1682 C1684 1.389 . S
C1683 H1662 0.950 . S
C1683 C1682 1.373 . S
C1683 C1699 1.377 . S
C1684 C1682 1.389 . S
C1684 C1685 1.524 . S
C1684 C1698 1.377 . S
C1685 C1684 1.524 . S
C1685 C1686 1.397 . S
C1685 C1690 1.363 . S
C1686 H1663 0.950 . S
C1686 C1685 1.397 . S
C1686 C1687 1.334 . S
C1687 H1664 0.950 . S
C1687 C1686 1.334 . S
C1687 C1688 1.287 . S
C1688 C1687 1.287 . S
C1688 C1689 1.524 . S
C1688 H1707 0.913 . S
C1689 H1665 0.950 . S
C1689 C1688 1.524 . S
C1689 C1690 1.415 . S
C1690 H1666 0.950 . S
C1690 C1685 1.363 . S
C1690 C1689 1.415 . S
C1691 H1667 0.951 . S
C1691 C1692 1.366 . S
C1691 C1693 1.388 . S
C1692 C1691 1.366 . S
C1692 C1696 1.385 . S
C1693 H1668 0.951 . S
C1693 C1691 1.388 . S
C1693 C1694 1.366 . S
C1694 C1693 1.366 . S
C1694 C1695 1.414 . S
C1694 C1697 1.499 . S
C1695 H1669 0.950 . S
C1695 C1694 1.414 . S
C1695 C1696 1.374 . S
C1696 H1670 0.950 . S
C1696 C1692 1.385 . S
C1696 C1695 1.374 . S
C1697 C1694 1.499 . S
C1697 C1698 1.373 . S
C1697 C1699 1.389 . S
C1698 H1671 0.950 . S
C1698 C1684 1.377 . S
C1698 C1697 1.373 . S
C1699 C1683 1.377 . S
C1699 C1697 1.389 . S
C1699 C1700 1.524 . S
C1700 C1699 1.524 . S
C1700 C1701 1.397 . S
C1700 C1705 1.363 . S
C1701 H1672 0.950 . S
C1701 C1700 1.397 . S
C1701 C1702 1.334 . S
C1702 H1673 0.950 . S
C1702 C1701 1.334 . S
C1702 C1703 1.287 . S
C1703 C1702 1.287 . S
C1703 C1704 1.524 . S
C1703 H1706 0.999 . S
C1704 H1674 0.950 . S
C1704 C1703 1.524 . S
C1704 C1705 1.415 . S
C1705 H1675 0.950 . S
C1705 C1700 1.363 . S
C1705 C1704 1.415 . S
H1706 C1703 0.999 . S
H1707 C1688 0.913 . S
H1708 C1726 0.951 . S
H1709 C1728 0.951 . S
H1710 C1730 0.950 . S
H1711 C1731 0.950 . S
H1712 C1733 0.950 . S
H1713 C1736 0.950 . S
H1714 C1737 0.950 . S
H1715 C1739 0.950 . S
H1716 C1740 0.950 . S
H1717 C1741 0.951 . S
H1718 C1743 0.951 . S
H1719 C1745 0.950 . S
H1720 C1746 0.950 . S
H1721 C1748 0.950 . S
H1722 C1751 0.950 . S
H1723 C1752 0.950 . S
H1724 C1754 0.950 . S
H1725 C1755 0.950 . S
C1726 H1708 0.951 . S
C1726 C1727 1.366 . S
C1726 C1728 1.388 . S
C1727 C1726 1.366 . S
C1727 C1731 1.385 . S
C1728 H1709 0.951 . S
C1728 C1726 1.388 . S
C1728 C1729 1.366 . S
C1729 C1728 1.366 . S
C1729 C1730 1.414 . S
C1729 C1732 1.499 . S
C1730 H1710 0.950 . S
C1730 C1729 1.414 . S
C1730 C1731 1.374 . S
C1731 H1711 0.950 . S
C1731 C1727 1.385 . S
C1731 C1730 1.374 . S
C1732 C1729 1.499 . S
C1732 C1733 1.373 . S
C1732 C1734 1.389 . S
C1733 H1712 0.950 . S
C1733 C1732 1.373 . S
C1733 C1749 1.377 . S
C1734 C1732 1.389 . S
C1734 C1735 1.524 . S
C1734 C1748 1.377 . S
C1735 C1734 1.524 . S
C1735 C1736 1.397 . S
C1735 C1740 1.363 . S
C1736 H1713 0.950 . S
C1736 C1735 1.397 . S
C1736 C1737 1.334 . S
C1737 H1714 0.950 . S
C1737 C1736 1.334 . S
C1737 C1738 1.287 . S
C1738 C1737 1.287 . S
C1738 C1739 1.524 . S
C1738 H1757 0.913 . S
C1739 H1715 0.950 . S
C1739 C1738 1.524 . S
C1739 C1740 1.415 . S
C1740 H1716 0.950 . S
C1740 C1735 1.363 . S
C1740 C1739 1.415 . S
C1741 H1717 0.951 . S
C1741 C1742 1.366 . S
C1741 C1743 1.388 . S
C1742 C1741 1.366 . S
C1742 C1746 1.385 . S
C1743 H1718 0.951 . S
C1743 C1741 1.388 . S
C1743 C1744 1.366 . S
C1744 C1743 1.366 . S
C1744 C1745 1.414 . S
C1744 C1747 1.499 . S
C1745 H1719 0.950 . S
C1745 C1744 1.414 . S
C1745 C1746 1.374 . S
C1746 H1720 0.950 . S
C1746 C1742 1.385 . S
C1746 C1745 1.374 . S
C1747 C1744 1.499 . S
C1747 C1748 1.373 . S
C1747 C1749 1.389 . S
C1748 H1721 0.950 . S
C1748 C1734 1.377 . S
C1748 C1747 1.373 . S
C1749 C1733 1.377 . S
C1749 C1747 1.389 . S
C1749 C1750 1.524 . S
C1750 C1749 1.524 . S
C1750 C1751 1.397 . S
C1750 C1755 1.363 . S
C1751 H1722 0.950 . S
C1751 C1750 1.397 . S
C1751 C1752 1.334 . S
C1752 H1723 0.950 . S
C1752 C1751 1.334 . S
C1752 C1753 1.287 . S
C1753 C1752 1.287 . S
C1753 C1754 1.524 . S
C1753 H1756 0.999 . S
C1754 H1724 0.950 . S
C1754 C1753 1.524 . S
C1754 C1755 1.415 . S
C1755 H1725 0.950 . S
C1755 C1750 1.363 . S
C1755 C1754 1.415 . S
H1756 C1753 0.999 . S
H1757 C1738 0.913 . S
H1758 C1776 0.951 . S
H1759 C1778 0.951 . S
H1760 C1780 0.950 . S
H1761 C1781 0.950 . S
H1762 C1783 0.950 . S
H1763 C1786 0.950 . S
H1764 C1787 0.950 . S
H1765 C1789 0.950 . S
H1766 C1790 0.950 . S
H1767 C1791 0.951 . S
H1768 C1793 0.951 . S
H1769 C1795 0.950 . S
H1770 C1796 0.950 . S
H1771 C1798 0.950 . S
H1772 C1801 0.950 . S
H1773 C1802 0.950 . S
H1774 C1804 0.950 . S
H1775 C1805 0.950 . S
C1776 H1758 0.951 . S
C1776 C1777 1.366 . S
C1776 C1778 1.388 . S
C1777 C1776 1.366 . S
C1777 C1781 1.385 . S
C1778 H1759 0.951 . S
C1778 C1776 1.388 . S
C1778 C1779 1.366 . S
C1779 C1778 1.366 . S
C1779 C1780 1.414 . S
C1779 C1782 1.499 . S
C1780 H1760 0.950 . S
C1780 C1779 1.414 . S
C1780 C1781 1.374 . S
C1781 H1761 0.950 . S
C1781 C1777 1.385 . S
C1781 C1780 1.374 . S
C1782 C1779 1.499 . S
C1782 C1783 1.373 . S
C1782 C1784 1.389 . S
C1783 H1762 0.950 . S
C1783 C1782 1.373 . S
C1783 C1799 1.377 . S
C1784 C1782 1.389 . S
C1784 C1785 1.524 . S
C1784 C1798 1.377 . S
C1785 C1784 1.524 . S
C1785 C1786 1.397 . S
C1785 C1790 1.363 . S
C1786 H1763 0.950 . S
C1786 C1785 1.397 . S
C1786 C1787 1.334 . S
C1787 H1764 0.950 . S
C1787 C1786 1.334 . S
C1787 C1788 1.287 . S
C1788 C1787 1.287 . S
C1788 C1789 1.524 . S
C1788 H1807 0.913 . S
C1789 H1765 0.950 . S
C1789 C1788 1.524 . S
C1789 C1790 1.415 . S
C1790 H1766 0.950 . S
C1790 C1785 1.363 . S
C1790 C1789 1.415 . S
C1791 H1767 0.951 . S
C1791 C1792 1.366 . S
C1791 C1793 1.388 . S
C1792 C1791 1.366 . S
C1792 C1796 1.385 . S
C1793 H1768 0.951 . S
C1793 C1791 1.388 . S
C1793 C1794 1.366 . S
C1794 C1793 1.366 . S
C1794 C1795 1.414 . S
C1794 C1797 1.499 . S
C1795 H1769 0.950 . S
C1795 C1794 1.414 . S
C1795 C1796 1.374 . S
C1796 H1770 0.950 . S
C1796 C1792 1.385 . S
C1796 C1795 1.374 . S
C1797 C1794 1.499 . S
C1797 C1798 1.373 . S
C1797 C1799 1.389 . S
C1798 H1771 0.950 . S
C1798 C1784 1.377 . S
C1798 C1797 1.373 . S
C1799 C1783 1.377 . S
C1799 C1797 1.389 . S
C1799 C1800 1.524 . S
C1800 C1799 1.524 . S
C1800 C1801 1.397 . S
C1800 C1805 1.363 . S
C1801 H1772 0.950 . S
C1801 C1800 1.397 . S
C1801 C1802 1.334 . S
C1802 H1773 0.950 . S
C1802 C1801 1.334 . S
C1802 C1803 1.287 . S
C1803 C1802 1.287 . S
C1803 C1804 1.524 . S
C1803 H1806 0.999 . S
C1804 H1774 0.950 . S
C1804 C1803 1.524 . S
C1804 C1805 1.415 . S
C1805 H1775 0.950 . S
C1805 C1800 1.363 . S
C1805 C1804 1.415 . S
H1806 C1803 0.999 . S
H1807 C1788 0.913 . S
H1808 C1826 0.951 . S
H1809 C1828 0.951 . S
H1810 C1830 0.950 . S
H1811 C1831 0.950 . S
H1812 C1833 0.950 . S
H1813 C1836 0.950 . S
H1814 C1837 0.950 . S
H1815 C1839 0.950 . S
H1816 C1840 0.950 . S
H1817 C1841 0.951 . S
H1818 C1843 0.951 . S
H1819 C1845 0.950 . S
H1820 C1846 0.950 . S
H1821 C1848 0.950 . S
H1822 C1851 0.950 . S
H1823 C1852 0.950 . S
H1824 C1854 0.950 . S
H1825 C1855 0.950 . S
C1826 H1808 0.951 . S
C1826 C1827 1.366 . S
C1826 C1828 1.388 . S
C1827 C1826 1.366 . S
C1827 C1831 1.385 . S
C1828 H1809 0.951 . S
C1828 C1826 1.388 . S
C1828 C1829 1.366 . S
C1829 C1828 1.366 . S
C1829 C1830 1.414 . S
C1829 C1832 1.499 . S
C1830 H1810 0.950 . S
C1830 C1829 1.414 . S
C1830 C1831 1.374 . S
C1831 H1811 0.950 . S
C1831 C1827 1.385 . S
C1831 C1830 1.374 . S
C1832 C1829 1.499 . S
C1832 C1833 1.373 . S
C1832 C1834 1.389 . S
C1833 H1812 0.950 . S
C1833 C1832 1.373 . S
C1833 C1849 1.377 . S
C1834 C1832 1.389 . S
C1834 C1835 1.524 . S
C1834 C1848 1.377 . S
C1835 C1834 1.524 . S
C1835 C1836 1.397 . S
C1835 C1840 1.363 . S
C1836 H1813 0.950 . S
C1836 C1835 1.397 . S
C1836 C1837 1.334 . S
C1837 H1814 0.950 . S
C1837 C1836 1.334 . S
C1837 C1838 1.287 . S
C1838 C1837 1.287 . S
C1838 C1839 1.524 . S
C1838 H1857 0.913 . S
C1839 H1815 0.950 . S
C1839 C1838 1.524 . S
C1839 C1840 1.415 . S
C1840 H1816 0.950 . S
C1840 C1835 1.363 . S
C1840 C1839 1.415 . S
C1841 H1817 0.951 . S
C1841 C1842 1.366 . S
C1841 C1843 1.388 . S
C1842 C1841 1.366 . S
C1842 C1846 1.385 . S
C1843 H1818 0.951 . S
C1843 C1841 1.388 . S
C1843 C1844 1.366 . S
C1844 C1843 1.366 . S
C1844 C1845 1.414 . S
C1844 C1847 1.499 . S
C1845 H1819 0.950 . S
C1845 C1844 1.414 . S
C1845 C1846 1.374 . S
C1846 H1820 0.950 . S
C1846 C1842 1.385 . S
C1846 C1845 1.374 . S
C1847 C1844 1.499 . S
C1847 C1848 1.373 . S
C1847 C1849 1.389 . S
C1848 H1821 0.950 . S
C1848 C1834 1.377 . S
C1848 C1847 1.373 . S
C1849 C1833 1.377 . S
C1849 C1847 1.389 . S
C1849 C1850 1.524 . S
C1850 C1849 1.524 . S
C1850 C1851 1.397 . S
C1850 C1855 1.363 . S
C1851 H1822 0.950 . S
C1851 C1850 1.397 . S
C1851 C1852 1.334 . S
C1852 H1823 0.950 . S
C1852 C1851 1.334 . S
C1852 C1853 1.287 . S
C1853 C1852 1.287 . S
C1853 C1854 1.524 . S
C1853 H1856 0.999 . S
C1854 H1824 0.950 . S
C1854 C1853 1.524 . S
C1854 C1855 1.415 . S
C1855 H1825 0.950 . S
C1855 C1850 1.363 . S
C1855 C1854 1.415 . S
H1856 C1853 0.999 . S
H1857 C1838 0.913 . S
H1858 C1876 0.951 . S
H1859 C1878 0.951 . S
H1860 C1880 0.950 . S
H1861 C1881 0.950 . S
H1862 C1883 0.950 . S
H1863 C1886 0.950 . S
H1864 C1887 0.950 . S
H1865 C1889 0.950 . S
H1866 C1890 0.950 . S
H1867 C1891 0.951 . S
H1868 C1893 0.951 . S
H1869 C1895 0.950 . S
H1870 C1896 0.950 . S
H1871 C1898 0.950 . S
H1872 C1901 0.950 . S
H1873 C1902 0.950 . S
H1874 C1904 0.950 . S
H1875 C1905 0.950 . S
C1876 H1858 0.951 . S
C1876 C1877 1.366 . S
C1876 C1878 1.388 . S
C1877 C1876 1.366 . S
C1877 C1881 1.385 . S
C1878 H1859 0.951 . S
C1878 C1876 1.388 . S
C1878 C1879 1.366 . S
C1879 C1878 1.366 . S
C1879 C1880 1.414 . S
C1879 C1882 1.499 . S
C1880 H1860 0.950 . S
C1880 C1879 1.414 . S
C1880 C1881 1.374 . S
C1881 H1861 0.950 . S
C1881 C1877 1.385 . S
C1881 C1880 1.374 . S
C1882 C1879 1.499 . S
C1882 C1883 1.373 . S
C1882 C1884 1.389 . S
C1883 H1862 0.950 . S
C1883 C1882 1.373 . S
C1883 C1899 1.377 . S
C1884 C1882 1.389 . S
C1884 C1885 1.524 . S
C1884 C1898 1.377 . S
C1885 C1884 1.524 . S
C1885 C1886 1.397 . S
C1885 C1890 1.363 . S
C1886 H1863 0.950 . S
C1886 C1885 1.397 . S
C1886 C1887 1.334 . S
C1887 H1864 0.950 . S
C1887 C1886 1.334 . S
C1887 C1888 1.287 . S
C1888 C1887 1.287 . S
C1888 C1889 1.524 . S
C1888 H1907 0.913 . S
C1889 H1865 0.950 . S
C1889 C1888 1.524 . S
C1889 C1890 1.415 . S
C1890 H1866 0.950 . S
C1890 C1885 1.363 . S
C1890 C1889 1.415 . S
C1891 H1867 0.951 . S
C1891 C1892 1.366 . S
C1891 C1893 1.388 . S
C1892 C1891 1.366 . S
C1892 C1896 1.385 . S
C1893 H1868 0.951 . S
C1893 C1891 1.388 . S
C1893 C1894 1.366 . S
C1894 C1893 1.366 . S
C1894 C1895 1.414 . S
C1894 C1897 1.499 . S
C1895 H1869 0.950 . S
C1895 C1894 1.414 . S
C1895 C1896 1.374 . S
C1896 H1870 0.950 . S
C1896 C1892 1.385 . S
C1896 C1895 1.374 . S
C1897 C1894 1.499 . S
C1897 C1898 1.373 . S
C1897 C1899 1.389 . S
C1898 H1871 0.950 . S
C1898 C1884 1.377 . S
C1898 C1897 1.373 . S
C1899 C1883 1.377 . S
C1899 C1897 1.389 . S
C1899 C1900 1.524 . S
C1900 C1899 1.524 . S
C1900 C1901 1.397 . S
C1900 C1905 1.363 . S
C1901 H1872 0.950 . S
C1901 C1900 1.397 . S
C1901 C1902 1.334 . S
C1902 H1873 0.950 . S
C1902 C1901 1.334 . S
C1902 C1903 1.287 . S
C1903 C1902 1.287 . S
C1903 C1904 1.524 . S
C1903 H1906 0.999 . S
C1904 H1874 0.950 . S
C1904 C1903 1.524 . S
C1904 C1905 1.415 . S
C1905 H1875 0.950 . S
C1905 C1900 1.363 . S
C1905 C1904 1.415 . S
H1906 C1903 0.999 . S
H1907 C1888 0.913 . S
H1908 C1926 0.951 . S
H1909 C1928 0.951 . S
H1910 C1930 0.950 . S
H1911 C1931 0.950 . S
H1912 C1933 0.950 . S
H1913 C1936 0.950 . S
H1914 C1937 0.950 . S
H1915 C1939 0.950 . S
H1916 C1940 0.950 . S
H1917 C1941 0.951 . S
H1918 C1943 0.951 . S
H1919 C1945 0.950 . S
H1920 C1946 0.950 . S
H1921 C1948 0.950 . S
H1922 C1951 0.950 . S
H1923 C1952 0.950 . S
H1924 C1954 0.950 . S
H1925 C1955 0.950 . S
C1926 H1908 0.951 . S
C1926 C1927 1.366 . S
C1926 C1928 1.388 . S
C1927 C1926 1.366 . S
C1927 C1931 1.385 . S
C1928 H1909 0.951 . S
C1928 C1926 1.388 . S
C1928 C1929 1.366 . S
C1929 C1928 1.366 . S
C1929 C1930 1.414 . S
C1929 C1932 1.499 . S
C1930 H1910 0.950 . S
C1930 C1929 1.414 . S
C1930 C1931 1.374 . S
C1931 H1911 0.950 . S
C1931 C1927 1.385 . S
C1931 C1930 1.374 . S
C1932 C1929 1.499 . S
C1932 C1933 1.373 . S
C1932 C1934 1.389 . S
C1933 H1912 0.950 . S
C1933 C1932 1.373 . S
C1933 C1949 1.377 . S
C1934 C1932 1.389 . S
C1934 C1935 1.524 . S
C1934 C1948 1.377 . S
C1935 C1934 1.524 . S
C1935 C1936 1.397 . S
C1935 C1940 1.363 . S
C1936 H1913 0.950 . S
C1936 C1935 1.397 . S
C1936 C1937 1.334 . S
C1937 H1914 0.950 . S
C1937 C1936 1.334 . S
C1937 C1938 1.287 . S
C1938 C1937 1.287 . S
C1938 C1939 1.524 . S
C1938 H1957 0.913 . S
C1939 H1915 0.950 . S
C1939 C1938 1.524 . S
C1939 C1940 1.415 . S
C1940 H1916 0.950 . S
C1940 C1935 1.363 . S
C1940 C1939 1.415 . S
C1941 H1917 0.951 . S
C1941 C1942 1.366 . S
C1941 C1943 1.388 . S
C1942 C1941 1.366 . S
C1942 C1946 1.385 . S
C1943 H1918 0.951 . S
C1943 C1941 1.388 . S
C1943 C1944 1.366 . S
C1944 C1943 1.366 . S
C1944 C1945 1.414 . S
C1944 C1947 1.499 . S
C1945 H1919 0.950 . S
C1945 C1944 1.414 . S
C1945 C1946 1.374 . S
C1946 H1920 0.950 . S
C1946 C1942 1.385 . S
C1946 C1945 1.374 . S
C1947 C1944 1.499 . S
C1947 C1948 1.373 . S
C1947 C1949 1.389 . S
C1948 H1921 0.950 . S
C1948 C1934 1.377 . S
C1948 C1947 1.373 . S
C1949 C1933 1.377 . S
C1949 C1947 1.389 . S
C1949 C1950 1.524 . S
C1950 C1949 1.524 . S
C1950 C1951 1.397 . S
C1950 C1955 1.363 . S
C1951 H1922 0.950 . S
C1951 C1950 1.397 . S
C1951 C1952 1.334 . S
C1952 H1923 0.950 . S
C1952 C1951 1.334 . S
C1952 C1953 1.287 . S
C1953 C1952 1.287 . S
C1953 C1954 1.524 . S
C1953 H1956 0.999 . S
C1954 H1924 0.950 . S
C1954 C1953 1.524 . S
C1954 C1955 1.415 . S
C1955 H1925 0.950 . S
C1955 C1950 1.363 . S
C1955 C1954 1.415 . S
H1956 C1953 0.999 . S
H1957 C1938 0.913 . S
H1958 C1976 0.951 . S
H1959 C1978 0.951 . S
H1960 C1980 0.950 . S
H1961 C1981 0.950 . S
H1962 C1983 0.950 . S
H1963 C1986 0.950 . S
H1964 C1987 0.950 . S
H1965 C1989 0.950 . S
H1966 C1990 0.950 . S
H1967 C1991 0.951 . S
H1968 C1993 0.951 . S
H1969 C1995 0.950 . S
H1970 C1996 0.950 . S
H1971 C1998 0.950 . S
H1972 C2001 0.950 . S
H1973 C2002 0.950 . S
H1974 C2004 0.950 . S
H1975 C2005 0.950 . S
C1976 H1958 0.951 . S
C1976 C1977 1.366 . S
C1976 C1978 1.388 . S
C1977 C1976 1.366 . S
C1977 C1981 1.385 . S
C1978 H1959 0.951 . S
C1978 C1976 1.388 . S
C1978 C1979 1.366 . S
C1979 C1978 1.366 . S
C1979 C1980 1.414 . S
C1979 C1982 1.499 . S
C1980 H1960 0.950 . S
C1980 C1979 1.414 . S
C1980 C1981 1.374 . S
C1981 H1961 0.950 . S
C1981 C1977 1.385 . S
C1981 C1980 1.374 . S
C1982 C1979 1.499 . S
C1982 C1983 1.373 . S
C1982 C1984 1.389 . S
C1983 H1962 0.950 . S
C1983 C1982 1.373 . S
C1983 C1999 1.377 . S
C1984 C1982 1.389 . S
C1984 C1985 1.524 . S
C1984 C1998 1.377 . S
C1985 C1984 1.524 . S
C1985 C1986 1.397 . S
C1985 C1990 1.363 . S
C1986 H1963 0.950 . S
C1986 C1985 1.397 . S
C1986 C1987 1.334 . S
C1987 H1964 0.950 . S
C1987 C1986 1.334 . S
C1987 C1988 1.287 . S
C1988 C1987 1.287 . S
C1988 C1989 1.524 . S
C1988 H2007 0.913 . S
C1989 H1965 0.950 . S
C1989 C1988 1.524 . S
C1989 C1990 1.415 . S
C1990 H1966 0.950 . S
C1990 C1985 1.363 . S
C1990 C1989 1.415 . S
C1991 H1967 0.951 . S
C1991 C1992 1.366 . S
C1991 C1993 1.388 . S
C1992 C1991 1.366 . S
C1992 C1996 1.385 . S
C1993 H1968 0.951 . S
C1993 C1991 1.388 . S
C1993 C1994 1.366 . S
C1994 C1993 1.366 . S
C1994 C1995 1.414 . S
C1994 C1997 1.499 . S
C1995 H1969 0.950 . S
C1995 C1994 1.414 . S
C1995 C1996 1.374 . S
C1996 H1970 0.950 . S
C1996 C1992 1.385 . S
C1996 C1995 1.374 . S
C1997 C1994 1.499 . S
C1997 C1998 1.373 . S
C1997 C1999 1.389 . S
C1998 H1971 0.950 . S
C1998 C1984 1.377 . S
C1998 C1997 1.373 . S
C1999 C1983 1.377 . S
C1999 C1997 1.389 . S
C1999 C2000 1.524 . S
C2000 C1999 1.524 . S
C2000 C2001 1.397 . S
C2000 C2005 1.363 . S
C2001 H1972 0.950 . S
C2001 C2000 1.397 . S
C2001 C2002 1.334 . S
C2002 H1973 0.950 . S
C2002 C2001 1.334 . S
C2002 C2003 1.287 . S
C2003 C2002 1.287 . S
C2003 C2004 1.524 . S
C2003 H2006 0.999 . S
C2004 H1974 0.950 . S
C2004 C2003 1.524 . S
C2004 C2005 1.415 . S
C2005 H1975 0.950 . S
C2005 C2000 1.363 . S
C2005 C2004 1.415 . S
H2006 C2003 0.999 . S
H2007 C1988 0.913 . S
H2008 C2026 0.951 . S
H2009 C2028 0.951 . S
H2010 C2030 0.950 . S
H2011 C2031 0.950 . S
H2012 C2033 0.950 . S
H2013 C2036 0.950 . S
H2014 C2037 0.950 . S
H2015 C2039 0.950 . S
H2016 C2040 0.950 . S
H2017 C2041 0.951 . S
H2018 C2043 0.951 . S
H2019 C2045 0.950 . S
H2020 C2046 0.950 . S
H2021 C2048 0.950 . S
H2022 C2051 0.950 . S
H2023 C2052 0.950 . S
H2024 C2054 0.950 . S
H2025 C2055 0.950 . S
C2026 H2008 0.951 . S
C2026 C2027 1.366 . S
C2026 C2028 1.388 . S
C2027 C2026 1.366 . S
C2027 C2031 1.385 . S
C2028 H2009 0.951 . S
C2028 C2026 1.388 . S
C2028 C2029 1.366 . S
C2029 C2028 1.366 . S
C2029 C2030 1.414 . S
C2029 C2032 1.499 . S
C2030 H2010 0.950 . S
C2030 C2029 1.414 . S
C2030 C2031 1.374 . S
C2031 H2011 0.950 . S
C2031 C2027 1.385 . S
C2031 C2030 1.374 . S
C2032 C2029 1.499 . S
C2032 C2033 1.373 . S
C2032 C2034 1.389 . S
C2033 H2012 0.950 . S
C2033 C2032 1.373 . S
C2033 C2049 1.377 . S
C2034 C2032 1.389 . S
C2034 C2035 1.524 . S
C2034 C2048 1.377 . S
C2035 C2034 1.524 . S
C2035 C2036 1.397 . S
C2035 C2040 1.363 . S
C2036 H2013 0.950 . S
C2036 C2035 1.397 . S
C2036 C2037 1.334 . S
C2037 H2014 0.950 . S
C2037 C2036 1.334 . S
C2037 C2038 1.287 . S
C2038 C2037 1.287 . S
C2038 C2039 1.524 . S
C2038 H2057 0.913 . S
C2039 H2015 0.950 . S
C2039 C2038 1.524 . S
C2039 C2040 1.415 . S
C2040 H2016 0.950 . S
C2040 C2035 1.363 . S
C2040 C2039 1.415 . S
C2041 H2017 0.951 . S
C2041 C2042 1.366 . S
C2041 C2043 1.388 . S
C2042 C2041 1.366 . S
C2042 C2046 1.385 . S
C2043 H2018 0.951 . S
C2043 C2041 1.388 . S
C2043 C2044 1.366 . S
C2044 C2043 1.366 . S
C2044 C2045 1.414 . S
C2044 C2047 1.499 . S
C2045 H2019 0.950 . S
C2045 C2044 1.414 . S
C2045 C2046 1.374 . S
C2046 H2020 0.950 . S
C2046 C2042 1.385 . S
C2046 C2045 1.374 . S
C2047 C2044 1.499 . S
C2047 C2048 1.373 . S
C2047 C2049 1.389 . S
C2048 H2021 0.950 . S
C2048 C2034 1.377 . S
C2048 C2047 1.373 . S
C2049 C2033 1.377 . S
C2049 C2047 1.389 . S
C2049 C2050 1.524 . S
C2050 C2049 1.524 . S
C2050 C2051 1.397 . S
C2050 C2055 1.363 . S
C2051 H2022 0.950 . S
C2051 C2050 1.397 . S
C2051 C2052 1.334 . S
C2052 H2023 0.950 . S
C2052 C2051 1.334 . S
C2052 C2053 1.287 . S
C2053 C2052 1.287 . S
C2053 C2054 1.524 . S
C2053 H2056 0.999 . S
C2054 H2024 0.950 . S
C2054 C2053 1.524 . S
C2054 C2055 1.415 . S
C2055 H2025 0.950 . S
C2055 C2050 1.363 . S
C2055 C2054 1.415 . S
H2056 C2053 0.999 . S
H2057 C2038 0.913 . S
H2058 C2076 0.951 . S
H2059 C2078 0.951 . S
H2060 C2080 0.950 . S
H2061 C2081 0.950 . S
H2062 C2083 0.950 . S
H2063 C2086 0.950 . S
H2064 C2087 0.950 . S
H2065 C2089 0.950 . S
H2066 C2090 0.950 . S
H2067 C2091 0.951 . S
H2068 C2093 0.951 . S
H2069 C2095 0.950 . S
H2070 C2096 0.950 . S
H2071 C2098 0.950 . S
H2072 C2101 0.950 . S
H2073 C2102 0.950 . S
H2074 C2104 0.950 . S
H2075 C2105 0.950 . S
C2076 H2058 0.951 . S
C2076 C2077 1.366 . S
C2076 C2078 1.388 . S
C2077 C2076 1.366 . S
C2077 C2081 1.385 . S
C2078 H2059 0.951 . S
C2078 C2076 1.388 . S
C2078 C2079 1.366 . S
C2079 C2078 1.366 . S
C2079 C2080 1.414 . S
C2079 C2082 1.499 . S
C2080 H2060 0.950 . S
C2080 C2079 1.414 . S
C2080 C2081 1.374 . S
C2081 H2061 0.950 . S
C2081 C2077 1.385 . S
C2081 C2080 1.374 . S
C2082 C2079 1.499 . S
C2082 C2083 1.373 . S
C2082 C2084 1.389 . S
C2083 H2062 0.950 . S
C2083 C2082 1.373 . S
C2083 C2099 1.377 . S
C2084 C2082 1.389 . S
C2084 C2085 1.524 . S
C2084 C2098 1.377 . S
C2085 C2084 1.524 . S
C2085 C2086 1.397 . S
C2085 C2090 1.363 . S
C2086 H2063 0.950 . S
C2086 C2085 1.397 . S
C2086 C2087 1.334 . S
C2087 H2064 0.950 . S
C2087 C2086 1.334 . S
C2087 C2088 1.287 . S
C2088 C2087 1.287 . S
C2088 C2089 1.524 . S
C2088 H2107 0.913 . S
C2089 H2065 0.950 . S
C2089 C2088 1.524 . S
C2089 C2090 1.415 . S
C2090 H2066 0.950 . S
C2090 C2085 1.363 . S
C2090 C2089 1.415 . S
C2091 H2067 0.951 . S
C2091 C2092 1.366 . S
C2091 C2093 1.388 . S
C2092 C2091 1.366 . S
C2092 C2096 1.385 . S
C2093 H2068 0.951 . S
C2093 C2091 1.388 . S
C2093 C2094 1.366 . S
C2094 C2093 1.366 . S
C2094 C2095 1.414 . S
C2094 C2097 1.499 . S
C2095 H2069 0.950 . S
C2095 C2094 1.414 . S
C2095 C2096 1.374 . S
C2096 H2070 0.950 . S
C2096 C2092 1.385 . S
C2096 C2095 1.374 . S
C2097 C2094 1.499 . S
C2097 C2098 1.373 . S
C2097 C2099 1.389 . S
C2098 H2071 0.950 . S
C2098 C2084 1.377 . S
C2098 C2097 1.373 . S
C2099 C2083 1.377 . S
C2099 C2097 1.389 . S
C2099 C2100 1.524 . S
C2100 C2099 1.524 . S
C2100 C2101 1.397 . S
C2100 C2105 1.363 . S
C2101 H2072 0.950 . S
C2101 C2100 1.397 . S
C2101 C2102 1.334 . S
C2102 H2073 0.950 . S
C2102 C2101 1.334 . S
C2102 C2103 1.287 . S
C2103 C2102 1.287 . S
C2103 C2104 1.524 . S
C2103 H2106 0.999 . S
C2104 H2074 0.950 . S
C2104 C2103 1.524 . S
C2104 C2105 1.415 . S
C2105 H2075 0.950 . S
C2105 C2100 1.363 . S
C2105 C2104 1.415 . S
H2106 C2103 0.999 . S
H2107 C2088 0.913 . S
H2108 C2126 0.951 . S
H2109 C2128 0.951 . S
H2110 C2130 0.950 . S
H2111 C2131 0.950 . S
H2112 C2133 0.950 . S
H2113 C2136 0.950 . S
H2114 C2137 0.950 . S
H2115 C2139 0.950 . S
H2116 C2140 0.950 . S
H2117 C2141 0.951 . S
H2118 C2143 0.951 . S
H2119 C2145 0.950 . S
H2120 C2146 0.950 . S
H2121 C2148 0.950 . S
H2122 C2151 0.950 . S
H2123 C2152 0.950 . S
H2124 C2154 0.950 . S
H2125 C2155 0.950 . S
C2126 H2108 0.951 . S
C2126 C2127 1.366 . S
C2126 C2128 1.388 . S
C2127 C2126 1.366 . S
C2127 C2131 1.385 . S
C2128 H2109 0.951 . S
C2128 C2126 1.388 . S
C2128 C2129 1.366 . S
C2129 C2128 1.366 . S
C2129 C2130 1.414 . S
C2129 C2132 1.499 . S
C2130 H2110 0.950 . S
C2130 C2129 1.414 . S
C2130 C2131 1.374 . S
C2131 H2111 0.950 . S
C2131 C2127 1.385 . S
C2131 C2130 1.374 . S
C2132 C2129 1.499 . S
C2132 C2133 1.373 . S
C2132 C2134 1.389 . S
C2133 H2112 0.950 . S
C2133 C2132 1.373 . S
C2133 C2149 1.377 . S
C2134 C2132 1.389 . S
C2134 C2135 1.524 . S
C2134 C2148 1.377 . S
C2135 C2134 1.524 . S
C2135 C2136 1.397 . S
C2135 C2140 1.363 . S
C2136 H2113 0.950 . S
C2136 C2135 1.397 . S
C2136 C2137 1.334 . S
C2137 H2114 0.950 . S
C2137 C2136 1.334 . S
C2137 C2138 1.287 . S
C2138 C2137 1.287 . S
C2138 C2139 1.524 . S
C2138 H2157 0.913 . S
C2139 H2115 0.950 . S
C2139 C2138 1.524 . S
C2139 C2140 1.415 . S
C2140 H2116 0.950 . S
C2140 C2135 1.363 . S
C2140 C2139 1.415 . S
C2141 H2117 0.951 . S
C2141 C2142 1.366 . S
C2141 C2143 1.388 . S
C2142 C2141 1.366 . S
C2142 C2146 1.385 . S
C2143 H2118 0.951 . S
C2143 C2141 1.388 . S
C2143 C2144 1.366 . S
C2144 C2143 1.366 . S
C2144 C2145 1.414 . S
C2144 C2147 1.499 . S
C2145 H2119 0.950 . S
C2145 C2144 1.414 . S
C2145 C2146 1.374 . S
C2146 H2120 0.950 . S
C2146 C2142 1.385 . S
C2146 C2145 1.374 . S
C2147 C2144 1.499 . S
C2147 C2148 1.373 . S
C2147 C2149 1.389 . S
C2148 H2121 0.950 . S
C2148 C2134 1.377 . S
C2148 C2147 1.373 . S
C2149 C2133 1.377 . S
C2149 C2147 1.389 . S
C2149 C2150 1.524 . S
C2150 C2149 1.524 . S
C2150 C2151 1.397 . S
C2150 C2155 1.363 . S
C2151 H2122 0.950 . S
C2151 C2150 1.397 . S
C2151 C2152 1.334 . S
C2152 H2123 0.950 . S
C2152 C2151 1.334 . S
C2152 C2153 1.287 . S
C2153 C2152 1.287 . S
C2153 C2154 1.524 . S
C2153 H2156 0.999 . S
C2154 H2124 0.950 . S
C2154 C2153 1.524 . S
C2154 C2155 1.415 . S
C2155 H2125 0.950 . S
C2155 C2150 1.363 . S
C2155 C2154 1.415 . S
H2156 C2153 0.999 . S
H2157 C2138 0.913 . S
H2158 C2176 0.951 . S
H2159 C2178 0.951 . S
H2160 C2180 0.950 . S
H2161 C2181 0.950 . S
H2162 C2183 0.950 . S
H2163 C2186 0.950 . S
H2164 C2187 0.950 . S
H2165 C2189 0.950 . S
H2166 C2190 0.950 . S
H2167 C2191 0.951 . S
H2168 C2193 0.951 . S
H2169 C2195 0.950 . S
H2170 C2196 0.950 . S
H2171 C2198 0.950 . S
H2172 C2201 0.950 . S
H2173 C2202 0.950 . S
H2174 C2204 0.950 . S
H2175 C2205 0.950 . S
C2176 H2158 0.951 . S
C2176 C2177 1.366 . S
C2176 C2178 1.388 . S
C2177 C2176 1.366 . S
C2177 C2181 1.385 . S
C2178 H2159 0.951 . S
C2178 C2176 1.388 . S
C2178 C2179 1.366 . S
C2179 C2178 1.366 . S
C2179 C2180 1.414 . S
C2179 C2182 1.499 . S
C2180 H2160 0.950 . S
C2180 C2179 1.414 . S
C2180 C2181 1.374 . S
C2181 H2161 0.950 . S
C2181 C2177 1.385 . S
C2181 C2180 1.374 . S
C2182 C2179 1.499 . S
C2182 C2183 1.373 . S
C2182 C2184 1.389 . S
C2183 H2162 0.950 . S
C2183 C2182 1.373 . S
C2183 C2199 1.377 . S
C2184 C2182 1.389 . S
C2184 C2185 1.524 . S
C2184 C2198 1.377 . S
C2185 C2184 1.524 . S
C2185 C2186 1.397 . S
C2185 C2190 1.363 . S
C2186 H2163 0.950 . S
C2186 C2185 1.397 . S
C2186 C2187 1.334 . S
C2187 H2164 0.950 . S
C2187 C2186 1.334 . S
C2187 C2188 1.287 . S
C2188 C2187 1.287 . S
C2188 C2189 1.524 . S
C2188 H2207 0.913 . S
C2189 H2165 0.950 . S
C2189 C2188 1.524 . S
C2189 C2190 1.415 . S
C2190 H2166 0.950 . S
C2190 C2185 1.363 . S
C2190 C2189 1.415 . S
C2191 H2167 0.951 . S
C2191 C2192 1.366 . S
C2191 C2193 1.388 . S
C2192 C2191 1.366 . S
C2192 C2196 1.385 . S
C2193 H2168 0.951 . S
C2193 C2191 1.388 . S
C2193 C2194 1.366 . S
C2194 C2193 1.366 . S
C2194 C2195 1.414 . S
C2194 C2197 1.499 . S
C2195 H2169 0.950 . S
C2195 C2194 1.414 . S
C2195 C2196 1.374 . S
C2196 H2170 0.950 . S
C2196 C2192 1.385 . S
C2196 C2195 1.374 . S
C2197 C2194 1.499 . S
C2197 C2198 1.373 . S
C2197 C2199 1.389 . S
C2198 H2171 0.950 . S
C2198 C2184 1.377 . S
C2198 C2197 1.373 . S
C2199 C2183 1.377 . S
C2199 C2197 1.389 . S
C2199 C2200 1.524 . S
C2200 C2199 1.524 . S
C2200 C2201 1.397 . S
C2200 C2205 1.363 . S
C2201 H2172 0.950 . S
C2201 C2200 1.397 . S
C2201 C2202 1.334 . S
C2202 H2173 0.950 . S
C2202 C2201 1.334 . S
C2202 C2203 1.287 . S
C2203 C2202 1.287 . S
C2203 C2204 1.524 . S
C2203 H2206 0.999 . S
C2204 H2174 0.950 . S
C2204 C2203 1.524 . S
C2204 C2205 1.415 . S
C2205 H2175 0.950 . S
C2205 C2200 1.363 . S
C2205 C2204 1.415 . S
H2206 C2203 0.999 . S
H2207 C2188 0.913 . S
H2208 C2226 0.951 . S
H2209 C2228 0.951 . S
H2210 C2230 0.950 . S
H2211 C2231 0.950 . S
H2212 C2233 0.950 . S
H2213 C2236 0.950 . S
H2214 C2237 0.950 . S
H2215 C2239 0.950 . S
H2216 C2240 0.950 . S
H2217 C2241 0.951 . S
H2218 C2243 0.951 . S
H2219 C2245 0.950 . S
H2220 C2246 0.950 . S
H2221 C2248 0.950 . S
H2222 C2251 0.950 . S
H2223 C2252 0.950 . S
H2224 C2254 0.950 . S
H2225 C2255 0.950 . S
C2226 H2208 0.951 . S
C2226 C2227 1.366 . S
C2226 C2228 1.388 . S
C2227 C2226 1.366 . S
C2227 C2231 1.385 . S
C2228 H2209 0.951 . S
C2228 C2226 1.388 . S
C2228 C2229 1.366 . S
C2229 C2228 1.366 . S
C2229 C2230 1.414 . S
C2229 C2232 1.499 . S
C2230 H2210 0.950 . S
C2230 C2229 1.414 . S
C2230 C2231 1.374 . S
C2231 H2211 0.950 . S
C2231 C2227 1.385 . S
C2231 C2230 1.374 . S
C2232 C2229 1.499 . S
C2232 C2233 1.373 . S
C2232 C2234 1.389 . S
C2233 H2212 0.950 . S
C2233 C2232 1.373 . S
C2233 C2249 1.377 . S
C2234 C2232 1.389 . S
C2234 C2235 1.524 . S
C2234 C2248 1.377 . S
C2235 C2234 1.524 . S
C2235 C2236 1.397 . S
C2235 C2240 1.363 . S
C2236 H2213 0.950 . S
C2236 C2235 1.397 . S
C2236 C2237 1.334 . S
C2237 H2214 0.950 . S
C2237 C2236 1.334 . S
C2237 C2238 1.287 . S
C2238 C2237 1.287 . S
C2238 C2239 1.524 . S
C2238 H2257 0.913 . S
C2239 H2215 0.950 . S
C2239 C2238 1.524 . S
C2239 C2240 1.415 . S
C2240 H2216 0.950 . S
C2240 C2235 1.363 . S
C2240 C2239 1.415 . S
C2241 H2217 0.951 . S
C2241 C2242 1.366 . S
C2241 C2243 1.388 . S
C2242 C2241 1.366 . S
C2242 C2246 1.385 . S
C2243 H2218 0.951 . S
C2243 C2241 1.388 . S
C2243 C2244 1.366 . S
C2244 C2243 1.366 . S
C2244 C2245 1.414 . S
C2244 C2247 1.499 . S
C2245 H2219 0.950 . S
C2245 C2244 1.414 . S
C2245 C2246 1.374 . S
C2246 H2220 0.950 . S
C2246 C2242 1.385 . S
C2246 C2245 1.374 . S
C2247 C2244 1.499 . S
C2247 C2248 1.373 . S
C2247 C2249 1.389 . S
C2248 H2221 0.950 . S
C2248 C2234 1.377 . S
C2248 C2247 1.373 . S
C2249 C2233 1.377 . S
C2249 C2247 1.389 . S
C2249 C2250 1.524 . S
C2250 C2249 1.524 . S
C2250 C2251 1.397 . S
C2250 C2255 1.363 . S
C2251 H2222 0.950 . S
C2251 C2250 1.397 . S
C2251 C2252 1.334 . S
C2252 H2223 0.950 . S
C2252 C2251 1.334 . S
C2252 C2253 1.287 . S
C2253 C2252 1.287 . S
C2253 C2254 1.524 . S
C2253 H2256 0.999 . S
C2254 H2224 0.950 . S
C2254 C2253 1.524 . S
C2254 C2255 1.415 . S
C2255 H2225 0.950 . S
C2255 C2250 1.363 . S
C2255 C2254 1.415 . S
H2256 C2253 0.999 . S
H2257 C2238 0.913 . S
H2258 C2276 0.951 . S
H2259 C2278 0.951 . S
H2260 C2280 0.950 . S
H2261 C2281 0.950 . S
H2262 C2283 0.950 . S
H2263 C2286 0.950 . S
H2264 C2287 0.950 . S
H2265 C2289 0.950 . S
H2266 C2290 0.950 . S
H2267 C2291 0.951 . S
H2268 C2293 0.951 . S
H2269 C2295 0.950 . S
H2270 C2296 0.950 . S
H2271 C2298 0.950 . S
H2272 C2301 0.950 . S
H2273 C2302 0.950 . S
H2274 C2304 0.950 . S
H2275 C2305 0.950 . S
C2276 H2258 0.951 . S
C2276 C2277 1.366 . S
C2276 C2278 1.388 . S
C2277 C2276 1.366 . S
C2277 C2281 1.385 . S
C2278 H2259 0.951 . S
C2278 C2276 1.388 . S
C2278 C2279 1.366 . S
C2279 C2278 1.366 . S
C2279 C2280 1.414 . S
C2279 C2282 1.499 . S
C2280 H2260 0.950 . S
C2280 C2279 1.414 . S
C2280 C2281 1.374 . S
C2281 H2261 0.950 . S
C2281 C2277 1.385 . S
C2281 C2280 1.374 . S
C2282 C2279 1.499 . S
C2282 C2283 1.373 . S
C2282 C2284 1.389 . S
C2283 H2262 0.950 . S
C2283 C2282 1.373 . S
C2283 C2299 1.377 . S
C2284 C2282 1.389 . S
C2284 C2285 1.524 . S
C2284 C2298 1.377 . S
C2285 C2284 1.524 . S
C2285 C2286 1.397 . S
C2285 C2290 1.363 . S
C2286 H2263 0.950 . S
C2286 C2285 1.397 . S
C2286 C2287 1.334 . S
C2287 H2264 0.950 . S
C2287 C2286 1.334 . S
C2287 C2288 1.287 . S
C2288 C2287 1.287 . S
C2288 C2289 1.524 . S
C2288 H2307 0.913 . S
C2289 H2265 0.950 . S
C2289 C2288 1.524 . S
C2289 C2290 1.415 . S
C2290 H2266 0.950 . S
C2290 C2285 1.363 . S
C2290 C2289 1.415 . S
C2291 H2267 0.951 . S
C2291 C2292 1.366 . S
C2291 C2293 1.388 . S
C2292 C2291 1.366 . S
C2292 C2296 1.385 . S
C2293 H2268 0.951 . S
C2293 C2291 1.388 . S
C2293 C2294 1.366 . S
C2294 C2293 1.366 . S
C2294 C2295 1.414 . S
C2294 C2297 1.499 . S
C2295 H2269 0.950 . S
C2295 C2294 1.414 . S
C2295 C2296 1.374 . S
C2296 H2270 0.950 . S
C2296 C2292 1.385 . S
C2296 C2295 1.374 . S
C2297 C2294 1.499 . S
C2297 C2298 1.373 . S
C2297 C2299 1.389 . S
C2298 H2271 0.950 . S
C2298 C2284 1.377 . S
C2298 C2297 1.373 . S
C2299 C2283 1.377 . S
C2299 C2297 1.389 . S
C2299 C2300 1.524 . S
C2300 C2299 1.524 . S
C2300 C2301 1.397 . S
C2300 C2305 1.363 . S
C2301 H2272 0.950 . S
C2301 C2300 1.397 . S
C2301 C2302 1.334 . S
C2302 H2273 0.950 . S
C2302 C2301 1.334 . S
C2302 C2303 1.287 . S
C2303 C2302 1.287 . S
C2303 C2304 1.524 . S
C2303 H2306 0.999 . S
C2304 H2274 0.950 . S
C2304 C2303 1.524 . S
C2304 C2305 1.415 . S
C2305 H2275 0.950 . S
C2305 C2300 1.363 . S
C2305 C2304 1.415 . S
H2306 C2303 0.999 . S
H2307 C2288 0.913 . S
H2308 C2326 0.951 . S
H2309 C2328 0.951 . S
H2310 C2330 0.950 . S
H2311 C2331 0.950 . S
H2312 C2333 0.950 . S
H2313 C2336 0.950 . S
H2314 C2337 0.950 . S
H2315 C2339 0.950 . S
H2316 C2340 0.950 . S
H2317 C2341 0.951 . S
H2318 C2343 0.951 . S
H2319 C2345 0.950 . S
H2320 C2346 0.950 . S
H2321 C2348 0.950 . S
H2322 C2351 0.950 . S
H2323 C2352 0.950 . S
H2324 C2354 0.950 . S
H2325 C2355 0.950 . S
C2326 H2308 0.951 . S
C2326 C2327 1.366 . S
C2326 C2328 1.388 . S
C2327 C2326 1.366 . S
C2327 C2331 1.385 . S
C2328 H2309 0.951 . S
C2328 C2326 1.388 . S
C2328 C2329 1.366 . S
C2329 C2328 1.366 . S
C2329 C2330 1.414 . S
C2329 C2332 1.499 . S
C2330 H2310 0.950 . S
C2330 C2329 1.414 . S
C2330 C2331 1.374 . S
C2331 H2311 0.950 . S
C2331 C2327 1.385 . S
C2331 C2330 1.374 . S
C2332 C2329 1.499 . S
C2332 C2333 1.373 . S
C2332 C2334 1.389 . S
C2333 H2312 0.950 . S
C2333 C2332 1.373 . S
C2333 C2349 1.377 . S
C2334 C2332 1.389 . S
C2334 C2335 1.524 . S
C2334 C2348 1.377 . S
C2335 C2334 1.524 . S
C2335 C2336 1.397 . S
C2335 C2340 1.363 . S
C2336 H2313 0.950 . S
C2336 C2335 1.397 . S
C2336 C2337 1.334 . S
C2337 H2314 0.950 . S
C2337 C2336 1.334 . S
C2337 C2338 1.287 . S
C2338 C2337 1.287 . S
C2338 C2339 1.524 . S
C2338 H2357 0.913 . S
C2339 H2315 0.950 . S
C2339 C2338 1.524 . S
C2339 C2340 1.415 . S
C2340 H2316 0.950 . S
C2340 C2335 1.363 . S
C2340 C2339 1.415 . S
C2341 H2317 0.951 . S
C2341 C2342 1.366 . S
C2341 C2343 1.388 . S
C2342 C2341 1.366 . S
C2342 C2346 1.385 . S
C2343 H2318 0.951 . S
C2343 C2341 1.388 . S
C2343 C2344 1.366 . S
C2344 C2343 1.366 . S
C2344 C2345 1.414 . S
C2344 C2347 1.499 . S
C2345 H2319 0.950 . S
C2345 C2344 1.414 . S
C2345 C2346 1.374 . S
C2346 H2320 0.950 . S
C2346 C2342 1.385 . S
C2346 C2345 1.374 . S
C2347 C2344 1.499 . S
C2347 C2348 1.373 . S
C2347 C2349 1.389 . S
C2348 H2321 0.950 . S
C2348 C2334 1.377 . S
C2348 C2347 1.373 . S
C2349 C2333 1.377 . S
C2349 C2347 1.389 . S
C2349 C2350 1.524 . S
C2350 C2349 1.524 . S
C2350 C2351 1.397 . S
C2350 C2355 1.363 . S
C2351 H2322 0.950 . S
C2351 C2350 1.397 . S
C2351 C2352 1.334 . S
C2352 H2323 0.950 . S
C2352 C2351 1.334 . S
C2352 C2353 1.287 . S
C2353 C2352 1.287 . S
C2353 C2354 1.524 . S
C2353 H2356 0.999 . S
C2354 H2324 0.950 . S
C2354 C2353 1.524 . S
C2354 C2355 1.415 . S
C2355 H2325 0.950 . S
C2355 C2350 1.363 . S
C2355 C2354 1.415 . S
H2356 C2353 0.999 . S
H2357 C2338 0.913 . S
H2358 C2376 0.951 . S
H2359 C2378 0.951 . S
H2360 C2380 0.950 . S
H2361 C2381 0.950 . S
H2362 C2383 0.950 . S
H2363 C2386 0.950 . S
H2364 C2387 0.950 . S
H2365 C2389 0.950 . S
H2366 C2390 0.950 . S
H2367 C2391 0.951 . S
H2368 C2393 0.951 . S
H2369 C2395 0.950 . S
H2370 C2396 0.950 . S
H2371 C2398 0.950 . S
H2372 C2401 0.950 . S
H2373 C2402 0.950 . S
H2374 C2404 0.950 . S
H2375 C2405 0.950 . S
C2376 H2358 0.951 . S
C2376 C2377 1.366 . S
C2376 C2378 1.388 . S
C2377 C2376 1.366 . S
C2377 C2381 1.385 . S
C2378 H2359 0.951 . S
C2378 C2376 1.388 . S
C2378 C2379 1.366 . S
C2379 C2378 1.366 . S
C2379 C2380 1.414 . S
C2379 C2382 1.499 . S
C2380 H2360 0.950 . S
C2380 C2379 1.414 . S
C2380 C2381 1.374 . S
C2381 H2361 0.950 . S
C2381 C2377 1.385 . S
C2381 C2380 1.374 . S
C2382 C2379 1.499 . S
C2382 C2383 1.373 . S
C2382 C2384 1.389 . S
C2383 H2362 0.950 . S
C2383 C2382 1.373 . S
C2383 C2399 1.377 . S
C2384 C2382 1.389 . S
C2384 C2385 1.524 . S
C2384 C2398 1.377 . S
C2385 C2384 1.524 . S
C2385 C2386 1.397 . S
C2385 C2390 1.363 . S
C2386 H2363 0.950 . S
C2386 C2385 1.397 . S
C2386 C2387 1.334 . S
C2387 H2364 0.950 . S
C2387 C2386 1.334 . S
C2387 C2388 1.287 . S
C2388 C2387 1.287 . S
C2388 C2389 1.524 . S
C2388 H2407 0.913 . S
C2389 H2365 0.950 . S
C2389 C2388 1.524 . S
C2389 C2390 1.415 . S
C2390 H2366 0.950 . S
C2390 C2385 1.363 . S
C2390 C2389 1.415 . S
C2391 H2367 0.951 . S
C2391 C2392 1.366 . S
C2391 C2393 1.388 . S
C2392 C2391 1.366 . S
C2392 C2396 1.385 . S
C2393 H2368 0.951 . S
C2393 C2391 1.388 . S
C2393 C2394 1.366 . S
C2394 C2393 1.366 . S
C2394 C2395 1.414 . S
C2394 C2397 1.499 . S
C2395 H2369 0.950 . S
C2395 C2394 1.414 . S
C2395 C2396 1.374 . S
C2396 H2370 0.950 . S
C2396 C2392 1.385 . S
C2396 C2395 1.374 . S
C2397 C2394 1.499 . S
C2397 C2398 1.373 . S
C2397 C2399 1.389 . S
C2398 H2371 0.950 . S
C2398 C2384 1.377 . S
C2398 C2397 1.373 . S
C2399 C2383 1.377 . S
C2399 C2397 1.389 . S
C2399 C2400 1.524 . S
C2400 C2399 1.524 . S
C2400 C2401 1.397 . S
C2400 C2405 1.363 . S
C2401 H2372 0.950 . S
C2401 C2400 1.397 . S
C2401 C2402 1.334 . S
C2402 H2373 0.950 . S
C2402 C2401 1.334 . S
C2402 C2403 1.287 . S
C2403 C2402 1.287 . S
C2403 C2404 1.524 . S
C2403 H2406 0.999 . S
C2404 H2374 0.950 . S
C2404 C2403 1.524 . S
C2404 C2405 1.415 . S
C2405 H2375 0.950 . S
C2405 C2400 1.363 . S
C2405 C2404 1.415 . S
H2406 C2403 0.999 . S
H2407 C2388 0.913 . S
H2408 C2426 0.951 . S
H2409 C2428 0.951 . S
H2410 C2430 0.950 . S
H2411 C2431 0.950 . S
H2412 C2433 0.950 . S
H2413 C2436 0.950 . S
H2414 C2437 0.950 . S
H2415 C2439 0.950 . S
H2416 C2440 0.950 . S
H2417 C2441 0.951 . S
H2418 C2443 0.951 . S
H2419 C2445 0.950 . S
H2420 C2446 0.950 . S
H2421 C2448 0.950 . S
H2422 C2451 0.950 . S
H2423 C2452 0.950 . S
H2424 C2454 0.950 . S
H2425 C2455 0.950 . S
C2426 H2408 0.951 . S
C2426 C2427 1.366 . S
C2426 C2428 1.388 . S
C2427 C2426 1.366 . S
C2427 C2431 1.385 . S
C2428 H2409 0.951 . S
C2428 C2426 1.388 . S
C2428 C2429 1.366 . S
C2429 C2428 1.366 . S
C2429 C2430 1.414 . S
C2429 C2432 1.499 . S
C2430 H2410 0.950 . S
C2430 C2429 1.414 . S
C2430 C2431 1.374 . S
C2431 H2411 0.950 . S
C2431 C2427 1.385 . S
C2431 C2430 1.374 . S
C2432 C2429 1.499 . S
C2432 C2433 1.373 . S
C2432 C2434 1.389 . S
C2433 H2412 0.950 . S
C2433 C2432 1.373 . S
C2433 C2449 1.377 . S
C2434 C2432 1.389 . S
C2434 C2435 1.524 . S
C2434 C2448 1.377 . S
C2435 C2434 1.524 . S
C2435 C2436 1.397 . S
C2435 C2440 1.363 . S
C2436 H2413 0.950 . S
C2436 C2435 1.397 . S
C2436 C2437 1.334 . S
C2437 H2414 0.950 . S
C2437 C2436 1.334 . S
C2437 C2438 1.287 . S
C2438 C2437 1.287 . S
C2438 C2439 1.524 . S
C2438 H2457 0.913 . S
C2439 H2415 0.950 . S
C2439 C2438 1.524 . S
C2439 C2440 1.415 . S
C2440 H2416 0.950 . S
C2440 C2435 1.363 . S
C2440 C2439 1.415 . S
C2441 H2417 0.951 . S
C2441 C2442 1.366 . S
C2441 C2443 1.388 . S
C2442 C2441 1.366 . S
C2442 C2446 1.385 . S
C2443 H2418 0.951 . S
C2443 C2441 1.388 . S
C2443 C2444 1.366 . S
C2444 C2443 1.366 . S
C2444 C2445 1.414 . S
C2444 C2447 1.499 . S
C2445 H2419 0.950 . S
C2445 C2444 1.414 . S
C2445 C2446 1.374 . S
C2446 H2420 0.950 . S
C2446 C2442 1.385 . S
C2446 C2445 1.374 . S
C2447 C2444 1.499 . S
C2447 C2448 1.373 . S
C2447 C2449 1.389 . S
C2448 H2421 0.950 . S
C2448 C2434 1.377 . S
C2448 C2447 1.373 . S
C2449 C2433 1.377 . S
C2449 C2447 1.389 . S
C2449 C2450 1.524 . S
C2450 C2449 1.524 . S
C2450 C2451 1.397 . S
C2450 C2455 1.363 . S
C2451 H2422 0.950 . S
C2451 C2450 1.397 . S
C2451 C2452 1.334 . S
C2452 H2423 0.950 . S
C2452 C2451 1.334 . S
C2452 C2453 1.287 . S
C2453 C2452 1.287 . S
C2453 C2454 1.524 . S
C2453 H2456 0.999 . S
C2454 H2424 0.950 . S
C2454 C2453 1.524 . S
C2454 C2455 1.415 . S
C2455 H2425 0.950 . S
C2455 C2450 1.363 . S
C2455 C2454 1.415 . S
H2456 C2453 0.999 . S
H2457 C2438 0.913 . S
H2458 C2476 0.951 . S
H2459 C2478 0.951 . S
H2460 C2480 0.950 . S
H2461 C2481 0.950 . S
H2462 C2483 0.950 . S
H2463 C2486 0.950 . S
H2464 C2487 0.950 . S
H2465 C2489 0.950 . S
H2466 C2490 0.950 . S
H2467 C2491 0.951 . S
H2468 C2493 0.951 . S
H2469 C2495 0.950 . S
H2470 C2496 0.950 . S
H2471 C2498 0.950 . S
H2472 C2501 0.950 . S
H2473 C2502 0.950 . S
H2474 C2504 0.950 . S
H2475 C2505 0.950 . S
C2476 H2458 0.951 . S
C2476 C2477 1.366 . S
C2476 C2478 1.388 . S
C2477 C2476 1.366 . S
C2477 C2481 1.385 . S
C2478 H2459 0.951 . S
C2478 C2476 1.388 . S
C2478 C2479 1.366 . S
C2479 C2478 1.366 . S
C2479 C2480 1.414 . S
C2479 C2482 1.499 . S
C2480 H2460 0.950 . S
C2480 C2479 1.414 . S
C2480 C2481 1.374 . S
C2481 H2461 0.950 . S
C2481 C2477 1.385 . S
C2481 C2480 1.374 . S
C2482 C2479 1.499 . S
C2482 C2483 1.373 . S
C2482 C2484 1.389 . S
C2483 H2462 0.950 . S
C2483 C2482 1.373 . S
C2483 C2499 1.377 . S
C2484 C2482 1.389 . S
C2484 C2485 1.524 . S
C2484 C2498 1.377 . S
C2485 C2484 1.524 . S
C2485 C2486 1.397 . S
C2485 C2490 1.363 . S
C2486 H2463 0.950 . S
C2486 C2485 1.397 . S
C2486 C2487 1.334 . S
C2487 H2464 0.950 . S
C2487 C2486 1.334 . S
C2487 C2488 1.287 . S
C2488 C2487 1.287 . S
C2488 C2489 1.524 . S
C2488 H2507 0.913 . S
C2489 H2465 0.950 . S
C2489 C2488 1.524 . S
C2489 C2490 1.415 . S
C2490 H2466 0.950 . S
C2490 C2485 1.363 . S
C2490 C2489 1.415 . S
C2491 H2467 0.951 . S
C2491 C2492 1.366 . S
C2491 C2493 1.388 . S
C2492 C2491 1.366 . S
C2492 C2496 1.385 . S
C2493 H2468 0.951 . S
C2493 C2491 1.388 . S
C2493 C2494 1.366 . S
C2494 C2493 1.366 . S
C2494 C2495 1.414 . S
C2494 C2497 1.499 . S
C2495 H2469 0.950 . S
C2495 C2494 1.414 . S
C2495 C2496 1.374 . S
C2496 H2470 0.950 . S
C2496 C2492 1.385 . S
C2496 C2495 1.374 . S
C2497 C2494 1.499 . S
C2497 C2498 1.373 . S
C2497 C2499 1.389 . S
C2498 H2471 0.950 . S
C2498 C2484 1.377 . S
C2498 C2497 1.373 . S
C2499 C2483 1.377 . S
C2499 C2497 1.389 . S
C2499 C2500 1.524 . S
C2500 C2499 1.524 . S
C2500 C2501 1.397 . S
C2500 C2505 1.363 . S
C2501 H2472 0.950 . S
C2501 C2500 1.397 . S
C2501 C2502 1.334 . S
C2502 H2473 0.950 . S
C2502 C2501 1.334 . S
C2502 C2503 1.287 . S
C2503 C2502 1.287 . S
C2503 C2504 1.524 . S
C2503 H2506 0.999 . S
C2504 H2474 0.950 . S
C2504 C2503 1.524 . S
C2504 C2505 1.415 . S
C2505 H2475 0.950 . S
C2505 C2500 1.363 . S
C2505 C2504 1.415 . S
H2506 C2503 0.999 . S
H2507 C2488 0.913 . S
H2508 C2526 0.951 . S
H2509 C2528 0.951 . S
H2510 C2530 0.950 . S
H2511 C2531 0.950 . S
H2512 C2533 0.950 . S
H2513 C2536 0.950 . S
H2514 C2537 0.950 . S
H2515 C2539 0.950 . S
H2516 C2540 0.950 . S
H2517 C2541 0.951 . S
H2518 C2543 0.951 . S
H2519 C2545 0.950 . S
H2520 C2546 0.950 . S
H2521 C2548 0.950 . S
H2522 C2551 0.950 . S
H2523 C2552 0.950 . S
H2524 C2554 0.950 . S
H2525 C2555 0.950 . S
C2526 H2508 0.951 . S
C2526 C2527 1.366 . S
C2526 C2528 1.388 . S
C2527 C2526 1.366 . S
C2527 C2531 1.385 . S
C2528 H2509 0.951 . S
C2528 C2526 1.388 . S
C2528 C2529 1.366 . S
C2529 C2528 1.366 . S
C2529 C2530 1.414 . S
C2529 C2532 1.499 . S
C2530 H2510 0.950 . S
C2530 C2529 1.414 . S
C2530 C2531 1.374 . S
C2531 H2511 0.950 . S
C2531 C2527 1.385 . S
C2531 C2530 1.374 . S
C2532 C2529 1.499 . S
C2532 C2533 1.373 . S
C2532 C2534 1.389 . S
C2533 H2512 0.950 . S
C2533 C2532 1.373 . S
C2533 C2549 1.377 . S
C2534 C2532 1.389 . S
C2534 C2535 1.524 . S
C2534 C2548 1.377 . S
C2535 C2534 1.524 . S
C2535 C2536 1.397 . S
C2535 C2540 1.363 . S
C2536 H2513 0.950 . S
C2536 C2535 1.397 . S
C2536 C2537 1.334 . S
C2537 H2514 0.950 . S
C2537 C2536 1.334 . S
C2537 C2538 1.287 . S
C2538 C2537 1.287 . S
C2538 C2539 1.524 . S
C2538 H2557 0.913 . S
C2539 H2515 0.950 . S
C2539 C2538 1.524 . S
C2539 C2540 1.415 . S
C2540 H2516 0.950 . S
C2540 C2535 1.363 . S
C2540 C2539 1.415 . S
C2541 H2517 0.951 . S
C2541 C2542 1.366 . S
C2541 C2543 1.388 . S
C2542 C2541 1.366 . S
C2542 C2546 1.385 . S
C2543 H2518 0.951 . S
C2543 C2541 1.388 . S
C2543 C2544 1.366 . S
C2544 C2543 1.366 . S
C2544 C2545 1.414 . S
C2544 C2547 1.499 . S
C2545 H2519 0.950 . S
C2545 C2544 1.414 . S
C2545 C2546 1.374 . S
C2546 H2520 0.950 . S
C2546 C2542 1.385 . S
C2546 C2545 1.374 . S
C2547 C2544 1.499 . S
C2547 C2548 1.373 . S
C2547 C2549 1.389 . S
C2548 H2521 0.950 . S
C2548 C2534 1.377 . S
C2548 C2547 1.373 . S
C2549 C2533 1.377 . S
C2549 C2547 1.389 . S
C2549 C2550 1.524 . S
C2550 C2549 1.524 . S
C2550 C2551 1.397 . S
C2550 C2555 1.363 . S
C2551 H2522 0.950 . S
C2551 C2550 1.397 . S
C2551 C2552 1.334 . S
C2552 H2523 0.950 . S
C2552 C2551 1.334 . S
C2552 C2553 1.287 . S
C2553 C2552 1.287 . S
C2553 C2554 1.524 . S
C2553 H2556 0.999 . S
C2554 H2524 0.950 . S
C2554 C2553 1.524 . S
C2554 C2555 1.415 . S
C2555 H2525 0.950 . S
C2555 C2550 1.363 . S
C2555 C2554 1.415 . S
H2556 C2553 0.999 . S
H2557 C2538 0.913 . S
H2558 C2576 0.951 . S
H2559 C2578 0.951 . S
H2560 C2580 0.950 . S
H2561 C2581 0.950 . S
H2562 C2583 0.950 . S
H2563 C2586 0.950 . S
H2564 C2587 0.950 . S
H2565 C2589 0.950 . S
H2566 C2590 0.950 . S
H2567 C2591 0.951 . S
H2568 C2593 0.951 . S
H2569 C2595 0.950 . S
H2570 C2596 0.950 . S
H2571 C2598 0.950 . S
H2572 C2601 0.950 . S
H2573 C2602 0.950 . S
H2574 C2604 0.950 . S
H2575 C2605 0.950 . S
C2576 H2558 0.951 . S
C2576 C2577 1.366 . S
C2576 C2578 1.388 . S
C2577 C2576 1.366 . S
C2577 C2581 1.385 . S
C2578 H2559 0.951 . S
C2578 C2576 1.388 . S
C2578 C2579 1.366 . S
C2579 C2578 1.366 . S
C2579 C2580 1.414 . S
C2579 C2582 1.499 . S
C2580 H2560 0.950 . S
C2580 C2579 1.414 . S
C2580 C2581 1.374 . S
C2581 H2561 0.950 . S
C2581 C2577 1.385 . S
C2581 C2580 1.374 . S
C2582 C2579 1.499 . S
C2582 C2583 1.373 . S
C2582 C2584 1.389 . S
C2583 H2562 0.950 . S
C2583 C2582 1.373 . S
C2583 C2599 1.377 . S
C2584 C2582 1.389 . S
C2584 C2585 1.524 . S
C2584 C2598 1.377 . S
C2585 C2584 1.524 . S
C2585 C2586 1.397 . S
C2585 C2590 1.363 . S
C2586 H2563 0.950 . S
C2586 C2585 1.397 . S
C2586 C2587 1.334 . S
C2587 H2564 0.950 . S
C2587 C2586 1.334 . S
C2587 C2588 1.287 . S
C2588 C2587 1.287 . S
C2588 C2589 1.524 . S
C2588 H2607 0.913 . S
C2589 H2565 0.950 . S
C2589 C2588 1.524 . S
C2589 C2590 1.415 . S
C2590 H2566 0.950 . S
C2590 C2585 1.363 . S
C2590 C2589 1.415 . S
C2591 H2567 0.951 . S
C2591 C2592 1.366 . S
C2591 C2593 1.388 . S
C2592 C2591 1.366 . S
C2592 C2596 1.385 . S
C2593 H2568 0.951 . S
C2593 C2591 1.388 . S
C2593 C2594 1.366 . S
C2594 C2593 1.366 . S
C2594 C2595 1.414 . S
C2594 C2597 1.499 . S
C2595 H2569 0.950 . S
C2595 C2594 1.414 . S
C2595 C2596 1.374 . S
C2596 H2570 0.950 . S
C2596 C2592 1.385 . S
C2596 C2595 1.374 . S
C2597 C2594 1.499 . S
C2597 C2598 1.373 . S
C2597 C2599 1.389 . S
C2598 H2571 0.950 . S
C2598 C2584 1.377 . S
C2598 C2597 1.373 . S
C2599 C2583 1.377 . S
C2599 C2597 1.389 . S
C2599 C2600 1.524 . S
C2600 C2599 1.524 . S
C2600 C2601 1.397 . S
C2600 C2605 1.363 . S
C2601 H2572 0.950 . S
C2601 C2600 1.397 . S
C2601 C2602 1.334 . S
C2602 H2573 0.950 . S
C2602 C2601 1.334 . S
C2602 C2603 1.287 . S
C2603 C2602 1.287 . S
C2603 C2604 1.524 . S
C2603 H2606 0.999 . S
C2604 H2574 0.950 . S
C2604 C2603 1.524 . S
C2604 C2605 1.415 . S
C2605 H2575 0.950 . S
C2605 C2600 1.363 . S
C2605 C2604 1.415 . S
H2606 C2603 0.999 . S
H2607 C2588 0.913 . S
H2608 C2626 0.951 . S
H2609 C2628 0.951 . S
H2610 C2630 0.950 . S
H2611 C2631 0.950 . S
H2612 C2633 0.950 . S
H2613 C2636 0.950 . S
H2614 C2637 0.950 . S
H2615 C2639 0.950 . S
H2616 C2640 0.950 1_556 S
H2617 C2641 0.951 . S
H2618 C2643 0.951 . S
H2619 C2645 0.950 . S
H2620 C2646 0.950 . S
H2621 C2648 0.950 . S
H2622 C2651 0.950 . S
H2623 C2652 0.950 . S
H2624 C2654 0.950 . S
H2625 C2655 0.950 1_554 S
C2626 H2608 0.951 . S
C2626 C2627 1.366 . S
C2626 C2628 1.388 . S
C2627 C2626 1.366 . S
C2627 C2631 1.385 . S
C2628 H2609 0.951 . S
C2628 C2626 1.388 . S
C2628 C2629 1.366 . S
C2629 C2628 1.366 . S
C2629 C2630 1.414 . S
C2629 C2632 1.499 . S
C2630 H2610 0.950 . S
C2630 C2629 1.414 . S
C2630 C2631 1.374 . S
C2631 H2611 0.950 . S
C2631 C2627 1.385 . S
C2631 C2630 1.374 . S
C2632 C2629 1.499 . S
C2632 C2633 1.373 . S
C2632 C2634 1.389 . S
C2633 H2612 0.950 . S
C2633 C2632 1.373 . S
C2633 C2649 1.377 1_554 S
C2634 C2632 1.389 . S
C2634 C2635 1.524 . S
C2634 C2648 1.377 1_554 S
C2635 C2634 1.524 . S
C2635 C2636 1.397 . S
C2635 C2640 1.363 . S
C2636 H2613 0.950 . S
C2636 C2635 1.397 . S
C2636 C2637 1.334 . S
C2637 H2614 0.950 . S
C2637 C2636 1.334 . S
C2637 C2638 1.287 . S
C2638 C2637 1.287 . S
C2638 C2639 1.524 . S
C2638 H2657 0.913 . S
C2639 H2615 0.950 . S
C2639 C2638 1.524 . S
C2639 C2640 1.415 . S
C2640 H2616 0.950 1_554 S
C2640 C2635 1.363 . S
C2640 C2639 1.415 . S
C2641 H2617 0.951 . S
C2641 C2642 1.366 . S
C2641 C2643 1.388 . S
C2642 C2641 1.366 . S
C2642 C2646 1.385 . S
C2643 H2618 0.951 . S
C2643 C2641 1.388 . S
C2643 C2644 1.366 . S
C2644 C2643 1.366 . S
C2644 C2645 1.414 . S
C2644 C2647 1.499 . S
C2645 H2619 0.950 . S
C2645 C2644 1.414 . S
C2645 C2646 1.374 . S
C2646 H2620 0.950 . S
C2646 C2642 1.385 . S
C2646 C2645 1.374 . S
C2647 C2644 1.499 . S
C2647 C2648 1.373 . S
C2647 C2649 1.389 . S
C2648 H2621 0.950 . S
C2648 C2634 1.377 1_556 S
C2648 C2647 1.373 . S
C2649 C2633 1.377 1_556 S
C2649 C2647 1.389 . S
C2649 C2650 1.524 . S
C2650 C2649 1.524 . S
C2650 C2651 1.397 . S
C2650 C2655 1.363 . S
C2651 H2622 0.950 . S
C2651 C2650 1.397 . S
C2651 C2652 1.334 . S
C2652 H2623 0.950 . S
C2652 C2651 1.334 . S
C2652 C2653 1.287 . S
C2653 C2652 1.287 . S
C2653 C2654 1.524 . S
C2653 H2656 0.999 . S
C2654 H2624 0.950 . S
C2654 C2653 1.524 . S
C2654 C2655 1.415 . S
C2655 H2625 0.950 1_556 S
C2655 C2650 1.363 . S
C2655 C2654 1.415 . S
H2656 C2653 0.999 . S
H2657 C2638 0.913 . S
H2658 C2676 0.951 . S
H2659 C2678 0.951 . S
H2660 C2680 0.950 . S
H2661 C2681 0.950 . S
H2662 C2683 0.950 . S
H2663 C2686 0.950 . S
H2664 C2687 0.950 . S
H2665 C2689 0.950 . S
H2666 C2690 0.950 . S
H2667 C2691 0.951 . S
H2668 C2693 0.951 . S
H2669 C2695 0.950 . S
H2670 C2696 0.950 . S
H2671 C2698 0.950 . S
H2672 C2701 0.950 . S
H2673 C2702 0.950 . S
H2674 C2704 0.950 . S
H2675 C2705 0.950 . S
C2676 H2658 0.951 . S
C2676 C2677 1.366 . S
C2676 C2678 1.388 . S
C2677 C2676 1.366 . S
C2677 C2681 1.385 . S
C2678 H2659 0.951 . S
C2678 C2676 1.388 . S
C2678 C2679 1.366 . S
C2679 C2678 1.366 . S
C2679 C2680 1.414 . S
C2679 C2682 1.499 . S
C2680 H2660 0.950 . S
C2680 C2679 1.414 . S
C2680 C2681 1.374 . S
C2681 H2661 0.950 . S
C2681 C2677 1.385 . S
C2681 C2680 1.374 . S
C2682 C2679 1.499 . S
C2682 C2683 1.373 . S
C2682 C2684 1.389 . S
C2683 H2662 0.950 . S
C2683 C2682 1.373 . S
C2683 C2699 1.377 . S
C2684 C2682 1.389 . S
C2684 C2685 1.524 . S
C2684 C2698 1.377 . S
C2685 C2684 1.524 . S
C2685 C2686 1.397 . S
C2685 C2690 1.363 . S
C2686 H2663 0.950 . S
C2686 C2685 1.397 . S
C2686 C2687 1.334 . S
C2687 H2664 0.950 . S
C2687 C2686 1.334 . S
C2687 C2688 1.287 . S
C2688 C2687 1.287 . S
C2688 C2689 1.524 . S
C2688 H2707 0.913 . S
C2689 H2665 0.950 . S
C2689 C2688 1.524 . S
C2689 C2690 1.415 . S
C2690 H2666 0.950 . S
C2690 C2685 1.363 . S
C2690 C2689 1.415 . S
C2691 H2667 0.951 . S
C2691 C2692 1.366 . S
C2691 C2693 1.388 . S
C2692 C2691 1.366 . S
C2692 C2696 1.385 . S
C2693 H2668 0.951 . S
C2693 C2691 1.388 . S
C2693 C2694 1.366 . S
C2694 C2693 1.366 . S
C2694 C2695 1.414 . S
C2694 C2697 1.499 . S
C2695 H2669 0.950 . S
C2695 C2694 1.414 . S
C2695 C2696 1.374 . S
C2696 H2670 0.950 . S
C2696 C2692 1.385 . S
C2696 C2695 1.374 . S
C2697 C2694 1.499 . S
C2697 C2698 1.373 . S
C2697 C2699 1.389 . S
C2698 H2671 0.950 . S
C2698 C2684 1.377 . S
C2698 C2697 1.373 . S
C2699 C2683 1.377 . S
C2699 C2697 1.389 . S
C2699 C2700 1.524 . S
C2700 C2699 1.524 . S
C2700 C2701 1.397 . S
C2700 C2705 1.363 . S
C2701 H2672 0.950 . S
C2701 C2700 1.397 . S
C2701 C2702 1.334 . S
C2702 H2673 0.950 . S
C2702 C2701 1.334 . S
C2702 C2703 1.287 . S
C2703 C2702 1.287 . S
C2703 C2704 1.524 . S
C2703 H2706 0.999 . S
C2704 H2674 0.950 . S
C2704 C2703 1.524 . S
C2704 C2705 1.415 . S
C2705 H2675 0.950 . S
C2705 C2700 1.363 . S
C2705 C2704 1.415 . S
H2706 C2703 0.999 . S
H2707 C2688 0.913 . S
H2708 C2726 0.951 . S
H2709 C2728 0.951 . S
H2710 C2730 0.950 . S
H2711 C2731 0.950 . S
H2712 C2733 0.950 . S
H2713 C2736 0.950 . S
H2714 C2737 0.950 . S
H2715 C2739 0.950 . S
H2716 C2740 0.950 . S
H2717 C2741 0.951 . S
H2718 C2743 0.951 . S
H2719 C2745 0.950 . S
H2720 C2746 0.950 . S
H2721 C2748 0.950 . S
H2722 C2751 0.950 . S
H2723 C2752 0.950 . S
H2724 C2754 0.950 . S
H2725 C2755 0.950 . S
C2726 H2708 0.951 . S
C2726 C2727 1.366 1_455 S
C2726 C2728 1.388 . S
C2727 C2726 1.366 1_655 S
C2727 C2731 1.385 . S
C2728 H2709 0.951 . S
C2728 C2726 1.388 . S
C2728 C2729 1.366 1_455 S
C2729 C2728 1.366 1_655 S
C2729 C2730 1.414 . S
C2729 C2732 1.499 . S
C2730 H2710 0.950 . S
C2730 C2729 1.414 . S
C2730 C2731 1.374 . S
C2731 H2711 0.950 . S
C2731 C2727 1.385 . S
C2731 C2730 1.374 . S
C2732 C2729 1.499 . S
C2732 C2733 1.373 . S
C2732 C2734 1.389 1_655 S
C2733 H2712 0.950 . S
C2733 C2732 1.373 . S
C2733 C2749 1.377 1_554 S
C2734 C2732 1.389 1_455 S
C2734 C2735 1.524 . S
C2734 C2748 1.377 1_554 S
C2735 C2734 1.524 . S
C2735 C2736 1.397 . S
C2735 C2740 1.363 . S
C2736 H2713 0.950 . S
C2736 C2735 1.397 . S
C2736 C2737 1.334 . S
C2737 H2714 0.950 . S
C2737 C2736 1.334 . S
C2737 C2738 1.287 . S
C2738 C2737 1.287 . S
C2738 C2739 1.524 . S
C2738 H2757 0.913 . S
C2739 H2715 0.950 . S
C2739 C2738 1.524 . S
C2739 C2740 1.415 . S
C2740 H2716 0.950 . S
C2740 C2735 1.363 . S
C2740 C2739 1.415 . S
C2741 H2717 0.951 . S
C2741 C2742 1.366 . S
C2741 C2743 1.388 . S
C2742 C2741 1.366 . S
C2742 C2746 1.385 1_655 S
C2743 H2718 0.951 . S
C2743 C2741 1.388 . S
C2743 C2744 1.366 . S
C2744 C2743 1.366 . S
C2744 C2745 1.414 1_655 S
C2744 C2747 1.499 . S
C2745 H2719 0.950 . S
C2745 C2744 1.414 1_455 S
C2745 C2746 1.374 . S
C2746 H2720 0.950 . S
C2746 C2742 1.385 1_455 S
C2746 C2745 1.374 . S
C2747 C2744 1.499 . S
C2747 C2748 1.373 1_655 S
C2747 C2749 1.389 . S
C2748 H2721 0.950 . S
C2748 C2734 1.377 1_556 S
C2748 C2747 1.373 1_455 S
C2749 C2733 1.377 1_556 S
C2749 C2747 1.389 . S
C2749 C2750 1.524 . S
C2750 C2749 1.524 . S
C2750 C2751 1.397 . S
C2750 C2755 1.363 . S
C2751 H2722 0.950 . S
C2751 C2750 1.397 . S
C2751 C2752 1.334 . S
C2752 H2723 0.950 . S
C2752 C2751 1.334 . S
C2752 C2753 1.287 . S
C2753 C2752 1.287 . S
C2753 C2754 1.524 . S
C2753 H2756 0.999 . S
C2754 H2724 0.950 . S
C2754 C2753 1.524 . S
C2754 C2755 1.415 . S
C2755 H2725 0.950 . S
C2755 C2750 1.363 . S
C2755 C2754 1.415 . S
H2756 C2753 0.999 . S
H2757 C2738 0.913 . S
H2758 C2776 0.939 1_545 S
H2759 C2778 0.951 1_545 S
H2760 C2780 0.950 . S
H2761 C2781 0.950 . S
H2762 C2783 0.950 . S
H2763 C2786 0.950 . S
H2764 C2787 0.950 . S
H2765 C2789 0.950 . S
H2766 C2790 0.950 . S
H2767 C2791 0.951 . S
H2768 C2793 0.951 . S
H2769 C2795 0.949 . S
H2770 C2796 0.947 1_545 S
H2771 C2798 0.950 . S
H2772 C2801 0.950 . S
H2773 C2802 0.950 . S
H2774 C2804 0.950 . S
H2775 C2805 0.950 . S
C2776 H2758 0.939 1_565 S
C2776 C2777 1.378 . S
C2776 C2778 1.390 . S
C2777 C2776 1.378 . S
C2777 C2781 1.385 . S
C2778 H2759 0.951 1_565 S
C2778 C2776 1.390 . S
C2778 C2779 1.366 . S
C2779 C2778 1.366 . S
C2779 C2780 1.414 . S
C2779 C2782 1.499 . S
C2780 H2760 0.950 . S
C2780 C2779 1.414 . S
C2780 C2781 1.374 . S
C2781 H2761 0.950 . S
C2781 C2777 1.385 . S
C2781 C2780 1.374 . S
C2782 C2779 1.499 . S
C2782 C2783 1.373 1_565 S
C2782 C2784 1.389 . S
C2783 H2762 0.950 . S
C2783 C2782 1.373 1_545 S
C2783 C2799 1.377 . S
C2784 C2782 1.389 . S
C2784 C2785 1.524 . S
C2784 C2798 1.377 . S
C2785 C2784 1.524 . S
C2785 C2786 1.397 . S
C2785 C2790 1.363 . S
C2786 H2763 0.950 . S
C2786 C2785 1.397 . S
C2786 C2787 1.334 . S
C2787 H2764 0.950 . S
C2787 C2786 1.334 . S
C2787 C2788 1.287 . S
C2788 C2787 1.287 . S
C2788 C2789 1.524 . S
C2788 H2807 0.913 . S
C2789 H2765 0.950 . S
C2789 C2788 1.524 . S
C2789 C2790 1.415 . S
C2790 H2766 0.950 . S
C2790 C2785 1.363 . S
C2790 C2789 1.415 . S
C2791 H2767 0.951 . S
C2791 C2792 1.366 . S
C2791 C2793 1.388 . S
C2792 C2791 1.366 . S
C2792 C2796 1.388 . S
C2793 H2768 0.951 . S
C2793 C2791 1.388 . S
C2793 C2794 1.366 . S
C2794 C2793 1.366 . S
C2794 C2795 1.415 1_565 S
C2794 C2797 1.499 . S
C2795 H2769 0.949 . S
C2795 C2794 1.415 1_545 S
C2795 C2796 1.374 1_545 S
C2796 H2770 0.947 1_565 S
C2796 C2792 1.388 . S
C2796 C2795 1.374 1_565 S
C2797 C2794 1.499 . S
C2797 C2798 1.373 . S
C2797 C2799 1.389 1_565 S
C2798 H2771 0.950 . S
C2798 C2784 1.377 . S
C2798 C2797 1.373 . S
C2799 C2783 1.377 . S
C2799 C2797 1.389 1_545 S
C2799 C2800 1.524 . S
C2800 C2799 1.524 . S
C2800 C2801 1.397 . S
C2800 C2805 1.363 . S
C2801 H2772 0.950 . S
C2801 C2800 1.397 . S
C2801 C2802 1.334 . S
C2802 H2773 0.950 . S
C2802 C2801 1.334 . S
C2802 C2803 1.287 . S
C2803 C2802 1.287 . S
C2803 C2804 1.524 . S
C2803 H2806 0.999 . S
C2804 H2774 0.950 . S
C2804 C2803 1.524 . S
C2804 C2805 1.415 . S
C2805 H2775 0.950 . S
C2805 C2800 1.363 . S
C2805 C2804 1.415 . S
H2806 C2803 0.999 . S
H2807 C2788 0.913 . S
H2808 C2826 0.951 . S
H2809 C2828 0.951 . S
H2810 C2830 0.950 . S
H2811 C2831 0.950 . S
H2812 C2833 0.950 . S
H2813 C2836 0.950 . S
H2814 C2837 0.950 . S
H2815 C2839 0.950 1_554 S
H2816 C2840 0.951 1_554 S
H2817 C2841 0.951 . S
H2818 C2843 0.951 . S
H2819 C2845 0.950 . S
H2820 C2846 0.950 . S
H2821 C2848 0.950 . S
H2822 C2851 0.950 . S
H2823 C2852 0.950 . S
H2824 C2854 0.950 1_556 S
H2825 C2855 0.951 1_556 S
C2826 H2808 0.951 . S
C2826 C2827 1.366 . S
C2826 C2828 1.388 . S
C2827 C2826 1.366 . S
C2827 C2831 1.385 . S
C2828 H2809 0.951 . S
C2828 C2826 1.388 . S
C2828 C2829 1.366 . S
C2829 C2828 1.366 . S
C2829 C2830 1.414 . S
C2829 C2832 1.499 . S
C2830 H2810 0.950 . S
C2830 C2829 1.414 . S
C2830 C2831 1.374 . S
C2831 H2811 0.950 . S
C2831 C2827 1.385 . S
C2831 C2830 1.374 . S
C2832 C2829 1.499 . S
C2832 C2833 1.373 . S
C2832 C2834 1.389 . S
C2833 H2812 0.950 . S
C2833 C2832 1.373 . S
C2833 C2849 1.377 1_556 S
C2834 C2832 1.389 . S
C2834 C2835 1.524 . S
C2834 C2848 1.377 1_556 S
C2835 C2834 1.524 . S
C2835 C2836 1.397 . S
C2835 C2840 1.362 . S
C2836 H2813 0.950 . S
C2836 C2835 1.397 . S
C2836 C2837 1.334 . S
C2837 H2814 0.950 . S
C2837 C2836 1.334 . S
C2837 C2838 1.287 . S
C2838 C2837 1.287 . S
C2838 C2839 1.524 . S
C2838 H2857 0.913 . S
C2839 H2815 0.950 1_556 S
C2839 C2838 1.524 . S
C2839 C2840 1.415 . S
C2840 H2816 0.951 1_556 S
C2840 C2835 1.362 . S
C2840 C2839 1.415 . S
C2841 H2817 0.951 . S
C2841 C2842 1.366 . S
C2841 C2843 1.388 . S
C2842 C2841 1.366 . S
C2842 C2846 1.385 . S
C2843 H2818 0.951 . S
C2843 C2841 1.388 . S
C2843 C2844 1.366 . S
C2844 C2843 1.366 . S
C2844 C2845 1.414 . S
C2844 C2847 1.499 . S
C2845 H2819 0.950 . S
C2845 C2844 1.414 . S
C2845 C2846 1.374 . S
C2846 H2820 0.950 . S
C2846 C2842 1.385 . S
C2846 C2845 1.374 . S
C2847 C2844 1.499 . S
C2847 C2848 1.373 . S
C2847 C2849 1.389 . S
C2848 H2821 0.950 . S
C2848 C2834 1.377 1_554 S
C2848 C2847 1.373 . S
C2849 C2833 1.377 1_554 S
C2849 C2847 1.389 . S
C2849 C2850 1.524 . S
C2850 C2849 1.524 . S
C2850 C2851 1.397 . S
C2850 C2855 1.362 . S
C2851 H2822 0.950 . S
C2851 C2850 1.397 . S
C2851 C2852 1.334 . S
C2852 H2823 0.950 . S
C2852 C2851 1.334 . S
C2852 C2853 1.287 . S
C2853 C2852 1.287 . S
C2853 C2854 1.524 . S
C2853 H2856 0.999 . S
C2854 H2824 0.950 1_554 S
C2854 C2853 1.524 . S
C2854 C2855 1.415 . S
C2855 H2825 0.951 1_554 S
C2855 C2850 1.362 . S
C2855 C2854 1.415 . S
H2856 C2853 0.999 . S
H2857 C2838 0.913 . S
H2858 C2876 0.951 . S
H2859 C2878 0.951 . S
H2860 C2880 0.950 . S
H2861 C2881 0.950 . S
H2862 C2883 0.950 . S
H2863 C2886 0.950 . S
H2864 C2887 0.950 . S
H2865 C2889 0.950 . S
H2866 C2890 0.950 . S
H2867 C2891 0.951 . S
H2868 C2893 0.951 . S
H2869 C2895 0.950 . S
H2870 C2896 0.950 . S
H2871 C2898 0.950 . S
H2872 C2901 0.950 . S
H2873 C2902 0.950 . S
H2874 C2904 0.950 . S
H2875 C2905 0.950 . S
C2876 H2858 0.951 . S
C2876 C2877 1.366 . S
C2876 C2878 1.388 . S
C2877 C2876 1.366 . S
C2877 C2881 1.385 . S
C2878 H2859 0.951 . S
C2878 C2876 1.388 . S
C2878 C2879 1.366 . S
C2879 C2878 1.366 . S
C2879 C2880 1.414 . S
C2879 C2882 1.499 . S
C2880 H2860 0.950 . S
C2880 C2879 1.414 . S
C2880 C2881 1.374 . S
C2881 H2861 0.950 . S
C2881 C2877 1.385 . S
C2881 C2880 1.374 . S
C2882 C2879 1.499 . S
C2882 C2883 1.373 . S
C2882 C2884 1.389 . S
C2883 H2862 0.950 . S
C2883 C2882 1.373 . S
C2883 C2899 1.377 . S
C2884 C2882 1.389 . S
C2884 C2885 1.524 . S
C2884 C2898 1.377 . S
C2885 C2884 1.524 . S
C2885 C2886 1.397 . S
C2885 C2890 1.363 . S
C2886 H2863 0.950 . S
C2886 C2885 1.397 . S
C2886 C2887 1.334 . S
C2887 H2864 0.950 . S
C2887 C2886 1.334 . S
C2887 C2888 1.287 . S
C2888 C2887 1.287 . S
C2888 C2889 1.524 . S
C2888 H2907 0.913 . S
C2889 H2865 0.950 . S
C2889 C2888 1.524 . S
C2889 C2890 1.415 . S
C2890 H2866 0.950 . S
C2890 C2885 1.363 . S
C2890 C2889 1.415 . S
C2891 H2867 0.951 . S
C2891 C2892 1.366 . S
C2891 C2893 1.388 . S
C2892 C2891 1.366 . S
C2892 C2896 1.385 . S
C2893 H2868 0.951 . S
C2893 C2891 1.388 . S
C2893 C2894 1.366 . S
C2894 C2893 1.366 . S
C2894 C2895 1.414 . S
C2894 C2897 1.499 . S
C2895 H2869 0.950 . S
C2895 C2894 1.414 . S
C2895 C2896 1.374 . S
C2896 H2870 0.950 . S
C2896 C2892 1.385 . S
C2896 C2895 1.374 . S
C2897 C2894 1.499 . S
C2897 C2898 1.373 . S
C2897 C2899 1.389 . S
C2898 H2871 0.950 . S
C2898 C2884 1.377 . S
C2898 C2897 1.373 . S
C2899 C2883 1.377 . S
C2899 C2897 1.389 . S
C2899 C2900 1.524 . S
C2900 C2899 1.524 . S
C2900 C2901 1.397 . S
C2900 C2905 1.363 . S
C2901 H2872 0.950 . S
C2901 C2900 1.397 . S
C2901 C2902 1.334 . S
C2902 H2873 0.950 . S
C2902 C2901 1.334 . S
C2902 C2903 1.287 . S
C2903 C2902 1.287 . S
C2903 C2904 1.524 . S
C2903 H2906 0.999 . S
C2904 H2874 0.950 . S
C2904 C2903 1.524 . S
C2904 C2905 1.415 . S
C2905 H2875 0.950 . S
C2905 C2900 1.363 . S
C2905 C2904 1.415 . S
H2906 C2903 0.999 . S
H2907 C2888 0.913 . S
H2908 C2926 0.951 . S
H2909 C2928 0.951 . S
H2910 C2930 0.950 . S
H2911 C2931 0.950 . S
H2912 C2933 0.950 . S
H2913 C2936 0.950 . S
H2914 C2937 0.950 . S
H2915 C2939 0.950 . S
H2916 C2940 0.950 . S
H2917 C2941 0.951 . S
H2918 C2943 0.951 . S
H2919 C2945 0.950 . S
H2920 C2946 0.950 . S
H2921 C2948 0.950 . S
H2922 C2951 0.950 . S
H2923 C2952 0.950 . S
H2924 C2954 0.950 . S
H2925 C2955 0.950 . S
C2926 H2908 0.951 . S
C2926 C2927 1.366 1_655 S
C2926 C2928 1.388 . S
C2927 C2926 1.366 1_455 S
C2927 C2931 1.385 . S
C2928 H2909 0.951 . S
C2928 C2926 1.388 . S
C2928 C2929 1.366 1_655 S
C2929 C2928 1.366 1_455 S
C2929 C2930 1.414 . S
C2929 C2932 1.499 . S
C2930 H2910 0.950 . S
C2930 C2929 1.414 . S
C2930 C2931 1.374 . S
C2931 H2911 0.950 . S
C2931 C2927 1.385 . S
C2931 C2930 1.374 . S
C2932 C2929 1.499 . S
C2932 C2933 1.373 . S
C2932 C2934 1.389 1_455 S
C2933 H2912 0.950 . S
C2933 C2932 1.373 . S
C2933 C2949 1.377 1_554 S
C2934 C2932 1.389 1_655 S
C2934 C2935 1.524 . S
C2934 C2948 1.377 1_554 S
C2935 C2934 1.524 . S
C2935 C2936 1.397 . S
C2935 C2940 1.363 . S
C2936 H2913 0.950 . S
C2936 C2935 1.397 . S
C2936 C2937 1.334 . S
C2937 H2914 0.950 . S
C2937 C2936 1.334 . S
C2937 C2938 1.287 . S
C2938 C2937 1.287 . S
C2938 C2939 1.524 . S
C2938 H2957 0.913 . S
C2939 H2915 0.950 . S
C2939 C2938 1.524 . S
C2939 C2940 1.415 . S
C2940 H2916 0.950 . S
C2940 C2935 1.363 . S
C2940 C2939 1.415 . S
C2941 H2917 0.951 . S
C2941 C2942 1.366 . S
C2941 C2943 1.388 . S
C2942 C2941 1.366 . S
C2942 C2946 1.385 1_455 S
C2943 H2918 0.951 . S
C2943 C2941 1.388 . S
C2943 C2944 1.366 . S
C2944 C2943 1.366 . S
C2944 C2945 1.414 1_455 S
C2944 C2947 1.499 . S
C2945 H2919 0.950 . S
C2945 C2944 1.414 1_655 S
C2945 C2946 1.374 . S
C2946 H2920 0.950 . S
C2946 C2942 1.385 1_655 S
C2946 C2945 1.374 . S
C2947 C2944 1.499 . S
C2947 C2948 1.373 1_455 S
C2947 C2949 1.389 . S
C2948 H2921 0.950 . S
C2948 C2934 1.377 1_556 S
C2948 C2947 1.373 1_655 S
C2949 C2933 1.377 1_556 S
C2949 C2947 1.389 . S
C2949 C2950 1.524 . S
C2950 C2949 1.524 . S
C2950 C2951 1.397 . S
C2950 C2955 1.363 . S
C2951 H2922 0.950 . S
C2951 C2950 1.397 . S
C2951 C2952 1.334 . S
C2952 H2923 0.950 . S
C2952 C2951 1.334 . S
C2952 C2953 1.287 . S
C2953 C2952 1.287 . S
C2953 C2954 1.524 . S
C2953 H2956 0.999 . S
C2954 H2924 0.950 . S
C2954 C2953 1.524 . S
C2954 C2955 1.415 . S
C2955 H2925 0.950 . S
C2955 C2950 1.363 . S
C2955 C2954 1.415 . S
H2956 C2953 0.999 . S
H2957 C2938 0.913 . S
H2958 C2976 0.951 . S
H2959 C2978 0.951 . S
H2960 C2980 0.950 . S
H2961 C2981 0.950 . S
H2962 C2983 0.950 . S
H2963 C2986 0.950 1_565 S
H2964 C2987 0.950 . S
H2965 C2989 0.950 . S
H2966 C2990 0.950 . S
H2967 C2991 0.951 . S
H2968 C2993 0.951 . S
H2969 C2995 0.950 . S
H2970 C2996 0.950 . S
H2971 C2998 0.950 . S
H2972 C3001 0.950 1_545 S
H2973 C3002 0.950 . S
H2974 C3004 0.950 . S
H2975 C3005 0.950 . S
C2976 H2958 0.951 . S
C2976 C2977 1.366 . S
C2976 C2978 1.388 . S
C2977 C2976 1.366 . S
C2977 C2981 1.385 1_545 S
C2978 H2959 0.951 . S
C2978 C2976 1.388 . S
C2978 C2979 1.366 . S
C2979 C2978 1.366 . S
C2979 C2980 1.414 1_545 S
C2979 C2982 1.499 . S
C2980 H2960 0.950 . S
C2980 C2979 1.414 1_565 S
C2980 C2981 1.374 . S
C2981 H2961 0.950 . S
C2981 C2977 1.385 1_565 S
C2981 C2980 1.374 . S
C2982 C2979 1.499 . S
C2982 C2983 1.373 1_545 S
C2982 C2984 1.389 . S
C2983 H2962 0.950 . S
C2983 C2982 1.373 1_565 S
C2983 C2999 1.377 . S
C2984 C2982 1.389 . S
C2984 C2985 1.524 . S
C2984 C2998 1.377 . S
C2985 C2984 1.524 . S
C2985 C2986 1.397 . S
C2985 C2990 1.363 . S
C2986 H2963 0.950 1_545 S
C2986 C2985 1.397 . S
C2986 C2987 1.334 . S
C2987 H2964 0.950 . S
C2987 C2986 1.334 . S
C2987 C2988 1.287 . S
C2988 C2987 1.287 . S
C2988 C2989 1.524 . S
C2988 H3007 0.913 . S
C2989 H2965 0.950 . S
C2989 C2988 1.524 . S
C2989 C2990 1.415 . S
C2990 H2966 0.950 . S
C2990 C2985 1.363 . S
C2990 C2989 1.415 . S
C2991 H2967 0.951 . S
C2991 C2992 1.366 1_565 S
C2991 C2993 1.388 . S
C2992 C2991 1.366 1_545 S
C2992 C2996 1.385 . S
C2993 H2968 0.951 . S
C2993 C2991 1.388 . S
C2993 C2994 1.366 1_565 S
C2994 C2993 1.366 1_545 S
C2994 C2995 1.414 . S
C2994 C2997 1.499 . S
C2995 H2969 0.950 . S
C2995 C2994 1.414 . S
C2995 C2996 1.374 . S
C2996 H2970 0.950 . S
C2996 C2992 1.385 . S
C2996 C2995 1.374 . S
C2997 C2994 1.499 . S
C2997 C2998 1.373 . S
C2997 C2999 1.389 1_545 S
C2998 H2971 0.950 . S
C2998 C2984 1.377 . S
C2998 C2997 1.373 . S
C2999 C2983 1.377 . S
C2999 C2997 1.389 1_565 S
C2999 C3000 1.524 . S
C3000 C2999 1.524 . S
C3000 C3001 1.397 . S
C3000 C3005 1.363 . S
C3001 H2972 0.950 1_565 S
C3001 C3000 1.397 . S
C3001 C3002 1.334 . S
C3002 H2973 0.950 . S
C3002 C3001 1.334 . S
C3002 C3003 1.287 . S
C3003 C3002 1.287 . S
C3003 C3004 1.524 . S
C3003 H3006 0.999 . S
C3004 H2974 0.950 . S
C3004 C3003 1.524 . S
C3004 C3005 1.415 . S
C3005 H2975 0.950 . S
C3005 C3000 1.363 . S
C3005 C3004 1.415 . S
H3006 C3003 0.999 . S
H3007 C2988 0.913 . S
C1427 C57 0.820 . S
C1442 C665 0.820 . S
C1477 C117 0.821 . S
C1492 C372 0.821 . S
C1527 C205 0.821 . S
C1542 C469 0.820 . S
C1577 C293 0.821 . S
C1592 C577 0.821 . S
C1627 C733 0.827 . S
C1642 C1377 0.827 . S
C1677 C1105 0.827 . S
C1692 C812 0.828 . S
C1727 C909 0.828 . S
C1742 C1193 0.827 . S
C1777 C997 0.828 . S
C1792 C1289 0.827 . S
C1827 C29 1.226 . S
C1842 C849 1.267 . S
C1877 C145 1.226 . S
C1892 C929 1.266 . S
C1927 C1017 1.266 . S
C1942 C233 1.227 . S
C1977 C321 1.226 . S
C1992 C753 1.266 . S
C2027 C401 1.226 . S
C2042 C1340 1.266 . S
C2077 C1085 1.266 . S
C2092 C497 1.227 . S
C2127 C1173 1.266 . S
C2142 C548 1.226 . S
C2177 C1252 1.266 . S
C2192 C636 1.227 . S
C2227 C108 1.278 . S
C2242 C761 1.237 . S
C2277 C196 1.278 . S
C2292 C841 1.236 . S
C2327 C937 1.236 . S
C2342 C284 1.278 . S
C2377 C49 1.278 . S
C2392 C1025 1.236 . S
C2427 C1076 1.236 . S
C2442 C673 1.278 . S
C2477 C1164 1.235 . S
C2492 C381 1.278 . S
C2527 C460 1.278 . S
C2542 C1261 1.237 . S
C2577 C585 1.278 . S
C2592 C1349 1.236 . S
C2627 C20 1.587 . S
C2642 C409 1.586 . S
C2677 C489 1.586 . S
C2692 C137 1.586 . S
C2727 C225 1.586 . S
C2742 C557 1.586 . S
C2777 C645 1.586 . S
C2792 C313 1.586 . S
C2827 C724 1.578 . S
C2842 C1113 1.578 . S
C2877 C1201 1.578 . S
C2892 C821 1.578 . S
C2927 C1281 1.578 . S
C2942 C900 1.578 . S
C2977 C1369 1.578 . S
C2992 C988 1.578 . S
