# Generated by pormake.
# Topology vmf, (6)-cn, num edge types: 1
# Building blocks:
#     Node 0, Type 0, BuildingBlock: IZENUY_clean_sbu_0, # of connection points: 6
#     Node 1, Type 0, BuildingBlock: IZENUY_clean_sbu_0, # of connection points: 6
#     Node 2, Type 0, BuildingBlock: IZENUY_clean_sbu_0, # of connection points: 6
#     Node 3, Type 0, BuildingBlock: IZENUY_clean_sbu_0, # of connection points: 6
#     Node 4, Type 0, BuildingBlock: IZENUY_clean_sbu_0, # of connection points: 6
#     Node 5, Type 0, BuildingBlock: IZENUY_clean_sbu_0, # of connection points: 6
#     Node 6, Type 0, BuildingBlock: IZENUY_clean_sbu_0, # of connection points: 6
#     Node 7, Type 0, BuildingBlock: IZENUY_clean_sbu_0, # of connection points: 6
#     Edge 8, Type (0, 0), BuildingBlock: EZIPEK_clean_linker_0, # of connection points: 2
#     Edge 9, Type (0, 0), BuildingBlock: EZIPEK_clean_linker_0, # of connection points: 2
#     Edge 10, Type (0, 0), BuildingBlock: EZIPEK_clean_linker_0, # of connection points: 2
#     Edge 11, Type (0, 0), BuildingBlock: EZIPEK_clean_linker_0, # of connection points: 2
#     Edge 12, Type (0, 0), BuildingBlock: EZIPEK_clean_linker_0, # of connection points: 2
#     Edge 13, Type (0, 0), BuildingBlock: EZIPEK_clean_linker_0, # of connection points: 2
#     Edge 14, Type (0, 0), BuildingBlock: EZIPEK_clean_linker_0, # of connection points: 2
#     Edge 15, Type (0, 0), BuildingBlock: EZIPEK_clean_linker_0, # of connection points: 2
#     Edge 16, Type (0, 0), BuildingBlock: EZIPEK_clean_linker_0, # of connection points: 2
#     Edge 17, Type (0, 0), BuildingBlock: EZIPEK_clean_linker_0, # of connection points: 2
#     Edge 18, Type (0, 0), BuildingBlock: EZIPEK_clean_linker_0, # of connection points: 2
#     Edge 19, Type (0, 0), BuildingBlock: EZIPEK_clean_linker_0, # of connection points: 2
#     Edge 20, Type (0, 0), BuildingBlock: EZIPEK_clean_linker_0, # of connection points: 2
#     Edge 21, Type (0, 0), BuildingBlock: EZIPEK_clean_linker_0, # of connection points: 2
#     Edge 22, Type (0, 0), BuildingBlock: EZIPEK_clean_linker_0, # of connection points: 2
#     Edge 23, Type (0, 0), BuildingBlock: EZIPEK_clean_linker_0, # of connection points: 2
#     Edge 24, Type (0, 0), BuildingBlock: EZIPEK_clean_linker_0, # of connection points: 2
#     Edge 25, Type (0, 0), BuildingBlock: EZIPEK_clean_linker_0, # of connection points: 2
#     Edge 26, Type (0, 0), BuildingBlock: EZIPEK_clean_linker_0, # of connection points: 2
#     Edge 27, Type (0, 0), BuildingBlock: EZIPEK_clean_linker_0, # of connection points: 2
#     Edge 28, Type (0, 0), BuildingBlock: EZIPEK_clean_linker_0, # of connection points: 2
#     Edge 29, Type (0, 0), BuildingBlock: EZIPEK_clean_linker_0, # of connection points: 2
#     Edge 30, Type (0, 0), BuildingBlock: EZIPEK_clean_linker_0, # of connection points: 2
#     Edge 31, Type (0, 0), BuildingBlock: EZIPEK_clean_linker_0, # of connection points: 2
# Relax obj value: 0.281
# Max RMSD: 0.266
# Mean RMSD: 0.266
data_MOF--net-vmf--node1-IZENUY_clean_sbu_0--edge1-EZIPEK_clean_linker_0
_symmetry_space_group_name_H-M    P1
_symmetry_Int_Tables_number       1
_symmetry_cell_setting            triclinic
loop_
_symmetry_equiv_pos_as_xyz
'x, y, z'
_cell_length_a     21.193752
_cell_length_b     32.181357
_cell_length_c     20.88662
_cell_angle_alpha  90.096828
_cell_angle_beta   105.80642
_cell_angle_gamma 89.487663
loop_
_atom_site_label
_atom_site_type_symbol
_atom_site_fract_x
_atom_site_fract_y
_atom_site_fract_z
_atom_type_partial_charge
Fe0 Fe 0.22374 0.37245 0.19817 0.0
Fe1 Fe 0.22274 0.28808 0.26702 0.0
O2 O 0.19413 0.33984 0.25256 0.0
Fe3 Fe 0.135 0.35871 0.29114 0.0
O4 O 0.07728 0.36769 0.2085 0.0
O5 O 0.14554 0.39987 0.16456 0.0
O6 O 0.19634 0.33712 0.12954 0.0
C7 C 0.21202 0.29943 0.1294 0.0
C8 C 0.21418 0.43017 0.29058 0.0
O9 O 0.2341 0.28049 0.18387 0.0
C10 C 0.21529 0.31364 0.39417 0.0
O11 O 0.30722 0.34918 0.21967 0.0
O12 O 0.306 0.30644 0.30053 0.0
O13 O 0.16351 0.41229 0.2973 0.0
O14 O 0.25211 0.41184 0.262 0.0
C15 C 0.09322 0.27614 0.25929 0.0
O16 O 0.21748 0.28586 0.35225 0.0
O17 O 0.18963 0.34909 0.37546 0.0
C18 C 0.33716 0.3247 0.26577 0.0
O19 O 0.14053 0.26639 0.23591 0.0
O20 O 0.09476 0.309 0.29262 0.0
C21 C 0.08817 0.387 0.15959 0.0
Fe22 Fe 0.77904 0.37086 0.83333 0.0
Fe23 Fe 0.79089 0.28413 0.77641 0.0
O24 O 0.81656 0.33694 0.78614 0.0
Fe25 Fe 0.87972 0.35547 0.75261 0.0
O26 O 0.92247 0.3832 0.83202 0.0
O27 O 0.85526 0.37599 0.89619 0.0
O28 O 0.75925 0.33015 0.88401 0.0
C29 C 0.78531 0.2954 0.90177 0.0
C30 C 0.81071 0.4289 0.74437 0.0
O31 O 0.8145 0.27625 0.86578 0.0
C32 C 0.79944 0.30148 0.65021 0.0
O33 O 0.69852 0.3657 0.77344 0.0
O34 O 0.70429 0.29709 0.77379 0.0
O35 O 0.83278 0.40104 0.71404 0.0
O36 O 0.79295 0.41991 0.79531 0.0
C37 C 0.92754 0.27548 0.78241 0.0
O38 O 0.76666 0.28728 0.68717 0.0
O39 O 0.84577 0.32777 0.67145 0.0
C40 C 0.67032 0.33059 0.76499 0.0
O41 O 0.87083 0.26107 0.77559 0.0
O42 O 0.93699 0.31378 0.78493 0.0
C43 C 0.91166 0.38263 0.88967 0.0
Fe44 Fe 0.82171 0.75219 0.7928 0.0
Fe45 Fe 0.80518 0.66482 0.8439 0.0
O46 O 0.84301 0.69839 0.79683 0.0
Fe47 Fe 0.90068 0.67805 0.75712 0.0
O48 O 0.96188 0.71813 0.7847 0.0
O49 O 0.90165 0.77291 0.79027 0.0
O50 O 0.8488 0.75649 0.88289 0.0
C51 C 0.81825 0.73822 0.91812 0.0
C52 C 0.82039 0.73655 0.6624 0.0
O53 O 0.78858 0.70517 0.89776 0.0
C54 C 0.82693 0.60686 0.75024 0.0
O55 O 0.73563 0.74178 0.79136 0.0
O56 O 0.72511 0.67334 0.78552 0.0
O57 O 0.86305 0.70701 0.67811 0.0
O58 O 0.79419 0.75275 0.70378 0.0
C59 C 0.93655 0.64707 0.89378 0.0
O60 O 0.81441 0.61578 0.80379 0.0
O61 O 0.84924 0.63415 0.71976 0.0
C62 C 0.69991 0.70953 0.77833 0.0
O63 O 0.88213 0.65603 0.90413 0.0
O64 O 0.94551 0.64877 0.83504 0.0
C65 C 0.95544 0.75685 0.78774 0.0
Fe66 Fe 0.26085 0.6616 0.20907 0.0
Fe67 Fe 0.15913 0.6773 0.28815 0.0
O68 O 0.21968 0.69665 0.2517 0.0
Fe69 Fe 0.24029 0.75034 0.25566 0.0
O70 O 0.22181 0.7544 0.16537 0.0
O71 O 0.28025 0.70003 0.15433 0.0
O72 O 0.18587 0.6526 0.14625 0.0
C73 C 0.13008 0.64506 0.15366 0.0
C74 C 0.36371 0.70643 0.27607 0.0
O75 O 0.11963 0.64579 0.21158 0.0
C76 C 0.23151 0.73628 0.38487 0.0
O77 O 0.24936 0.61408 0.25095 0.0
O78 O 0.21183 0.63547 0.33181 0.0
O79 O 0.32767 0.73897 0.26374 0.0
O80 O 0.33896 0.67042 0.26991 0.0
C81 C 0.10228 0.75441 0.24583 0.0
O82 O 0.18843 0.70799 0.36631 0.0
O83 O 0.26079 0.75184 0.34561 0.0
C84 C 0.23599 0.60718 0.3046 0.0
O85 O 0.09857 0.71592 0.25252 0.0
O86 O 0.15698 0.77101 0.24916 0.0
C87 C 0.25133 0.7331 0.13159 0.0
Fe88 Fe 0.74279 0.87515 0.20464 0.0
Fe89 Fe 0.73604 0.78939 0.26757 0.0
O90 O 0.71086 0.84222 0.25696 0.0
Fe91 Fe 0.65293 0.86315 0.29606 0.0
O92 O 0.59641 0.87569 0.21324 0.0
O93 O 0.66935 0.90799 0.17769 0.0
O94 O 0.70811 0.84323 0.13307 0.0
C95 C 0.7251 0.80605 0.13012 0.0
C96 C 0.74578 0.92902 0.30571 0.0
O97 O 0.74047 0.78359 0.18182 0.0
C98 C 0.72954 0.81176 0.3969 0.0
O99 O 0.8228 0.8486 0.21885 0.0
O100 O 0.82212 0.80339 0.2962 0.0
O101 O 0.68975 0.91561 0.3068 0.0
O102 O 0.77888 0.90905 0.27387 0.0
C103 C 0.60585 0.78065 0.26836 0.0
O104 O 0.73822 0.78712 0.35353 0.0
O105 O 0.70385 0.84798 0.38085 0.0
C106 C 0.85258 0.82258 0.26182 0.0
O107 O 0.65189 0.76902 0.24385 0.0
O108 O 0.60606 0.81635 0.29272 0.0
C109 C 0.61153 0.89508 0.16677 0.0
Fe110 Fe 0.31903 0.78775 0.77734 0.0
Fe111 Fe 0.40169 0.86251 0.75543 0.0
O112 O 0.34292 0.84065 0.79173 0.0
Fe113 Fe 0.30797 0.87122 0.84533 0.0
O114 O 0.29491 0.82776 0.89516 0.0
O115 O 0.34847 0.77602 0.86549 0.0
O116 O 0.39775 0.76766 0.76816 0.0
C117 C 0.45384 0.78347 0.77722 0.0
C118 C 0.19948 0.83015 0.77913 0.0
O119 O 0.46158 0.82186 0.78371 0.0
C120 C 0.32719 0.93283 0.75518 0.0
O121 O 0.28838 0.79504 0.68857 0.0
O122 O 0.36658 0.83588 0.67269 0.0
O123 O 0.2256 0.86575 0.78945 0.0
O124 O 0.23469 0.79763 0.78258 0.0
C125 C 0.44022 0.88712 0.89467 0.0
O126 O 0.34984 0.90717 0.72158 0.0
O127 O 0.31575 0.92187 0.80867 0.0
C128 C 0.31853 0.81089 0.65041 0.0
O129 O 0.44622 0.88983 0.83512 0.0
O130 O 0.38667 0.87691 0.90503 0.0
C131 C 0.32472 0.79357 0.90765 0.0
Fe132 Fe 0.28709 0.2546 0.77306 0.0
Fe133 Fe 0.28942 0.17131 0.846 0.0
O134 O 0.31985 0.20345 0.79171 0.0
Fe135 Fe 0.38215 0.18457 0.75684 0.0
O136 O 0.43595 0.22802 0.78708 0.0
O137 O 0.3632 0.27844 0.76213 0.0
O138 O 0.3129 0.2699 0.86 0.0
C139 C 0.2922 0.25123 0.90315 0.0
C140 C 0.29257 0.22992 0.64886 0.0
O141 O 0.27163 0.2145 0.89437 0.0
C142 C 0.31605 0.11162 0.75565 0.0
O143 O 0.20417 0.2407 0.77935 0.0
O144 O 0.20633 0.17266 0.79137 0.0
O145 O 0.34666 0.21071 0.67455 0.0
O146 O 0.25851 0.24321 0.68564 0.0
C147 C 0.42139 0.15745 0.89446 0.0
O148 O 0.30356 0.12137 0.80946 0.0
O149 O 0.33512 0.13873 0.7219 0.0
C150 C 0.17455 0.20647 0.77921 0.0
O151 O 0.3683 0.16846 0.90532 0.0
O152 O 0.42805 0.15665 0.83524 0.0
C153 C 0.4223 0.26587 0.77601 0.0
Fe154 Fe 0.71749 0.24923 0.25227 0.0
Fe155 Fe 0.73064 0.16064 0.19814 0.0
O156 O 0.69763 0.19554 0.2472 0.0
Fe157 Fe 0.64217 0.17557 0.29 0.0
O158 O 0.59657 0.22361 0.29073 0.0
O159 O 0.63088 0.26624 0.22636 0.0
O160 O 0.71864 0.25315 0.16577 0.0
C161 C 0.70437 0.22883 0.11632 0.0
C162 C 0.71916 0.22685 0.38541 0.0
O163 O 0.70059 0.19047 0.12398 0.0
C164 C 0.72949 0.10672 0.29557 0.0
O165 O 0.80606 0.23909 0.27771 0.0
O166 O 0.81056 0.18494 0.21441 0.0
O167 O 0.69801 0.18975 0.37143 0.0
O168 O 0.72002 0.253 0.34022 0.0
C169 C 0.59671 0.14456 0.16183 0.0
O170 O 0.76531 0.12798 0.26981 0.0
O171 O 0.67467 0.12155 0.29794 0.0
C172 C 0.83786 0.21503 0.24946 0.0
O173 O 0.65435 0.13054 0.16956 0.0
O174 O 0.58347 0.16375 0.20964 0.0
C175 C 0.58763 0.25536 0.25429 0.0
C176 C 0.46714 0.2525 0.23388 0.0
C177 C 0.52337 0.27775 0.24556 0.0
C178 C 0.4566 0.3362 0.26834 0.0
C179 C 0.40361 0.30855 0.26575 0.0
N180 N 0.36848 0.23607 0.26247 0.0
N181 N 0.57381 0.34363 0.28178 0.0
C182 C 0.41214 0.26542 0.25456 0.0
C183 C 0.51874 0.31987 0.26442 0.0
N184 N 0.46508 0.21638 0.19948 0.0
N185 N 0.4481 0.37785 0.27597 0.0
H186 H 0.61938 0.33291 0.27854 0.0
H187 H 0.5752 0.37292 0.30337 0.0
H188 H 0.40571 0.39045 0.28476 0.0
H189 H 0.4819 0.39997 0.27067 0.0
H190 H 0.42563 0.19608 0.18855 0.0
H191 H 0.49806 0.21094 0.17187 0.0
H192 H 0.37929 0.20436 0.26398 0.0
H193 H 0.32433 0.24172 0.27325 0.0
C194 C 0.58075 0.3294 0.82437 0.0
C195 C 0.59929 0.32697 0.76374 0.0
C196 C 0.48899 0.30126 0.70859 0.0
C197 C 0.47687 0.29431 0.77128 0.0
N198 N 0.50995 0.30393 0.88979 0.0
N199 N 0.56999 0.31054 0.64704 0.0
C200 C 0.52236 0.30927 0.82953 0.0
C201 C 0.55278 0.3132 0.70536 0.0
N202 N 0.618 0.35178 0.87639 0.0
N203 N 0.43888 0.29772 0.65212 0.0
H204 H 0.61501 0.321 0.64236 0.0
H205 H 0.54096 0.29614 0.60459 0.0
H206 H 0.39123 0.29163 0.65387 0.0
H207 H 0.44292 0.30608 0.60527 0.0
H208 H 0.6055 0.35677 0.92066 0.0
H209 H 0.65711 0.36983 0.87203 0.0
H210 H 0.54417 0.30978 0.93508 0.0
H211 H 0.46603 0.29154 0.89438 0.0
C212 C 0.53826 0.72699 0.82072 0.0
C213 C 0.51096 0.75756 0.77178 0.0
C214 C 0.59511 0.74063 0.71443 0.0
C215 C 0.62858 0.71599 0.76896 0.0
N216 N 0.63347 0.68523 0.87555 0.0
N217 N 0.518 0.79628 0.67422 0.0
C218 C 0.59994 0.70826 0.82198 0.0
C219 C 0.54038 0.76495 0.71894 0.0
N220 N 0.50627 0.71662 0.86702 0.0
N221 N 0.61625 0.74073 0.65814 0.0
H222 H 0.47687 0.81426 0.67317 0.0
H223 H 0.54288 0.80634 0.64051 0.0
H224 H 0.65619 0.72274 0.65393 0.0
H225 H 0.59043 0.75485 0.61377 0.0
H226 H 0.51975 0.6915 0.89936 0.0
H227 H 0.46345 0.73148 0.8705 0.0
H228 H 0.62057 0.68378 0.92015 0.0
H229 H 0.67604 0.66858 0.87651 0.0
C230 C 0.46884 0.73862 0.33639 0.0
C231 C 0.43489 0.71256 0.28435 0.0
C232 C 0.51781 0.72551 0.22386 0.0
C233 C 0.55206 0.75227 0.27604 0.0
N234 N 0.56755 0.77393 0.39161 0.0
N235 N 0.43615 0.67181 0.18758 0.0
C236 C 0.53006 0.75538 0.33528 0.0
C237 C 0.46274 0.70264 0.23142 0.0
N238 N 0.44075 0.74912 0.38597 0.0
N239 N 0.53415 0.72404 0.16497 0.0
H240 H 0.39601 0.65445 0.19095 0.0
H241 H 0.45809 0.66034 0.15212 0.0
H242 H 0.57417 0.7392 0.15659 0.0
H243 H 0.50492 0.71018 0.12215 0.0
H244 H 0.45701 0.77335 0.41937 0.0
H245 H 0.39836 0.73506 0.39118 0.0
H246 H 0.55832 0.77122 0.43794 0.0
H247 H 0.61141 0.7887 0.39504 0.0
C248 C 0.97972 0.75716 0.21112 0.0
C249 C 0.03927 0.77887 0.238 0.0
C250 C 0.97358 0.83374 0.27375 0.0
C251 C 0.91831 0.8071 0.25897 0.0
N252 N 0.87555 0.73819 0.22585 0.0
N253 N 0.09133 0.84049 0.29611 0.0
C254 C 0.92337 0.76731 0.23155 0.0
C255 C 0.03587 0.81828 0.26893 0.0
N256 N 0.97629 0.72686 0.16465 0.0
N257 N 0.96678 0.87373 0.29304 0.0
H258 H 0.13714 0.83328 0.29004 0.0
H259 H 0.09249 0.86574 0.32765 0.0
H260 H 0.92374 0.88487 0.30224 0.0
H261 H 1.00232 0.89637 0.29625 0.0
H262 H 0.93245 0.71316 0.13841 0.0
H263 H 1.01581 0.71923 0.14674 0.0
H264 H 0.88099 0.7076 0.21154 0.0
H265 H 0.83436 0.7422 0.24297 0.0
C266 C 0.0306 0.78312 0.72117 0.0
C267 C 1.0111 0.78389 0.78139 0.0
C268 C 0.10428 0.82994 0.83097 0.0
C269 C 0.12863 0.82357 0.77439 0.0
N270 N 0.11406 0.79664 0.66413 0.0
N271 N 0.02556 0.81087 0.89181 0.0
C272 C 0.09083 0.80137 0.71879 0.0
C273 C 0.04629 0.8088 0.83539 0.0
N274 N 0.99024 0.76611 0.66518 0.0
N275 N 0.13687 0.85591 0.88065 0.0
H276 H 0.98119 0.79845 0.89465 0.0
H277 H 0.05251 0.82367 0.93653 0.0
H278 H 0.17928 0.87157 0.87961 0.0
H279 H 0.11981 0.86469 0.92091 0.0
H280 H 0.99713 0.7686 0.61789 0.0
H281 H 0.94601 0.75267 0.66468 0.0
H282 H 0.09524 0.7757 0.62581 0.0
H283 H 0.15441 0.81299 0.65818 0.0
C284 C 0.02272 0.22832 0.83862 0.0
C285 C 0.98389 0.24767 0.77983 0.0
C286 C 0.05826 0.21887 0.71864 0.0
C287 C 0.10404 0.20854 0.77877 0.0
N288 N 0.12821 0.19802 0.89703 0.0
N289 N 0.97108 0.265 0.66388 0.0
C290 C 0.08547 0.2112 0.8392 0.0
C291 C 1.00293 0.24353 0.71958 0.0
N292 N 0.99958 0.2263 0.89348 0.0
N293 N 0.06746 0.20437 0.66051 0.0
H294 H 0.93137 0.28421 0.66212 0.0
H295 H 0.98769 0.26631 0.62131 0.0
H296 H 0.10591 0.18386 0.66049 0.0
H297 H 0.03282 0.20804 0.61462 0.0
H298 H 0.02321 0.21024 0.9367 0.0
H299 H 0.95346 0.23784 0.89353 0.0
H300 H 0.12266 0.20458 0.94404 0.0
H301 H 0.16969 0.18034 0.8974 0.0
C302 C 0.02154 0.23734 0.31551 0.0
C303 C 0.03698 0.24794 0.25556 0.0
C304 C 0.92598 0.22995 0.19133 0.0
C305 C 0.90777 0.22383 0.25188 0.0
N306 N 0.93906 0.2184 0.37149 0.0
N307 N 1.01259 0.24008 0.13704 0.0
C308 C 0.9561 0.22621 0.31404 0.0
C309 C 0.99206 0.23941 0.19366 0.0
N310 N 0.07101 0.23611 0.37326 0.0
N311 N 0.87927 0.23014 0.13151 0.0
H312 H 0.06007 0.24788 0.13675 0.0
H313 H 0.98474 0.22901 0.0913 0.0
H314 H 0.83039 0.22375 0.12632 0.0
H315 H 0.88757 0.23972 0.08696 0.0
H316 H 0.06573 0.22629 0.41889 0.0
H317 H 0.11966 0.24148 0.37397 0.0
H318 H 0.96928 0.22395 0.41898 0.0
H319 H 0.89321 0.2071 0.37189 0.0
C320 C 0.96764 0.35113 0.99945 0.0
C321 C 0.96541 0.38416 0.95411 0.0
C322 C 0.04086 0.42283 0.04552 0.0
C323 C 0.03686 0.39087 0.09235 0.0
N324 N 0.96988 0.33385 0.11174 0.0
N325 N 0.99549 0.45379 0.93543 0.0
C326 C 0.99245 0.35776 0.06893 0.0
C327 C 1.00128 0.42066 0.97743 0.0
N328 N 0.946 0.31279 0.97584 0.0
N329 N 0.08069 0.45609 0.06635 0.0
H330 H 0.96793 0.45259 0.88581 0.0
H331 H 1.01541 0.48284 0.95004 0.0
H332 H 0.1006 0.46321 0.11639 0.0
H333 H 0.09407 0.47661 0.03394 0.0
H334 H 0.95095 0.28668 1.00635 0.0
H335 H 0.93033 0.30658 0.92498 0.0
H336 H 0.9335 0.31171 0.09501 0.0
H337 H 0.97778 0.34053 0.16196 0.0
C338 C 0.06211 0.68164 0.05172 0.0
C339 C 0.07514 0.64442 0.09006 0.0
C340 C 1.0048 0.60646 0.99371 0.0
C341 C 0.9925 0.64399 0.95588 0.0
N342 N 0.99678 0.71879 0.95643 0.0
N343 N 0.06282 0.57067 0.09662 0.0
C344 C 0.01843 0.68178 0.98683 0.0
C345 C 0.04703 0.60659 0.06085 0.0
N346 N 0.09309 0.71748 0.07708 0.0
N347 N 0.97358 0.57114 0.96608 0.0
H348 H 0.09181 0.57034 0.14582 0.0
H349 H 0.04905 0.54124 0.07767 0.0
H350 H 0.94558 0.56984 0.91655 0.0
H351 H 0.97291 0.54382 0.99234 0.0
H352 H 0.09599 0.7435 0.04841 0.0
H353 H 0.11775 0.72052 0.12709 0.0
H354 H 1.00377 0.7472 0.98118 0.0
H355 H 0.96657 0.72095 0.9082 0.0
C356 C 0.54886 0.93221 0.05876 0.0
C357 C 0.56834 0.89463 0.09535 0.0
C358 C 0.52706 0.85611 0.98972 0.0
C359 C 0.49686 0.89244 0.95642 0.0
N360 N 0.47747 0.96583 0.96053 0.0
N361 N 0.56779 0.81941 0.09348 0.0
C362 C 0.50787 0.93081 0.99125 0.0
C363 C 0.5551 0.85627 0.06011 0.0
N364 N 0.56969 0.96937 0.08813 0.0
N365 N 0.52895 0.82092 0.95379 0.0
H366 H 0.59022 0.81717 0.1441 0.0
H367 H 0.55136 0.79101 0.0715 0.0
H368 H 0.50857 0.81991 0.90269 0.0
H369 H 0.55646 0.79459 0.97324 0.0
H370 H 0.56604 0.99689 0.06118 0.0
H371 H 0.59518 0.97206 0.13826 0.0
H372 H 0.47749 0.994 0.98511 0.0
H373 H 0.44982 0.96595 0.9108 0.0
C374 C 0.5453 0.18231 0.05318 0.0
C375 C 0.54984 0.14579 0.09254 0.0
C376 C 0.47257 0.11264 0.99571 0.0
C377 C 0.47624 0.14771 0.95522 0.0
N378 N 0.53223 0.21042 0.94342 0.0
N379 N 0.51738 0.07505 0.10017 0.0
C380 C 0.518 0.18057 0.98339 0.0
C381 C 0.51371 0.11034 0.06314 0.0
N382 N 0.56409 0.21962 0.08234 0.0
N383 N 0.42871 0.08209 0.96984 0.0
H384 H 0.54535 0.07319 0.14967 0.0
H385 H 0.49418 0.04749 0.08173 0.0
H386 H 0.40179 0.08184 0.91987 0.0
H387 H 0.41696 0.05824 0.99802 0.0
H388 H 0.55438 0.24781 0.05681 0.0
H389 H 0.5846 0.22235 0.13304 0.0
H390 H 0.56683 0.23345 0.96128 0.0
H391 H 0.51609 0.20861 0.89183 0.0
C392 C 0.29046 0.53759 0.33579 0.0
C393 C 0.23338 0.56302 0.3242 0.0
C394 C 0.16476 0.50221 0.29084 0.0
C395 C 0.22142 0.47572 0.30554 0.0
N396 N 0.33725 0.46833 0.35976 0.0
N397 N 0.11738 0.56659 0.31548 0.0
C398 C 0.28418 0.49342 0.33361 0.0
C399 C 0.17117 0.54424 0.31114 0.0
N400 N 0.35052 0.55574 0.34769 0.0
N401 N 0.10546 0.48897 0.2521 0.0
H402 H 0.11945 0.59734 0.33126 0.0
H403 H 0.07208 0.55287 0.3115 0.0
H404 H 0.09772 0.46007 0.22947 0.0
H405 H 0.06542 0.50891 0.23468 0.0
H406 H 0.39327 0.53922 0.34863 0.0
H407 H 0.35667 0.5878 0.35369 0.0
H408 H 0.38299 0.4797 0.38555 0.0
H409 H 0.3339 0.43608 0.36182 0.0
C410 C 0.75799 0.54252 0.71876 0.0
C411 C 0.81946 0.56241 0.72758 0.0
C412 C 0.87344 0.4939 0.73139 0.0
C413 C 0.81241 0.47394 0.72609 0.0
N414 N 0.69491 0.47859 0.6976 0.0
N415 N 0.93242 0.5573 0.72463 0.0
C416 C 0.7541 0.4982 0.71425 0.0
C417 C 0.87588 0.53817 0.72743 0.0
N418 N 0.70348 0.56621 0.71608 0.0
N419 N 0.93018 0.47096 0.74529 0.0
H420 H 0.93794 0.58937 0.72477 0.0
H421 H 0.97244 0.54148 0.71616 0.0
H422 H 0.93152 0.43868 0.74559 0.0
H423 H 0.97675 0.48386 0.76056 0.0
H424 H 0.65877 0.55414 0.71838 0.0
H425 H 0.70366 0.59858 0.71334 0.0
H426 H 0.6499 0.49398 0.68296 0.0
H427 H 0.69099 0.44635 0.69277 0.0
C428 C 0.79545 0.9967 0.28487 0.0
C429 C 0.76227 0.97383 0.32332 0.0
C430 C 0.72892 0.04072 0.3626 0.0
C431 C 0.74478 0.06139 0.30874 0.0
N432 N 0.78068 0.05311 0.20777 0.0
N433 N 0.7071 0.97509 0.40998 0.0
C434 C 0.77524 0.03798 0.26711 0.0
C435 C 0.73193 0.99624 0.36588 0.0
N436 N 0.84679 0.97975 0.26602 0.0
N437 N 0.71351 0.06344 0.41164 0.0
H438 H 0.71653 0.94349 0.41957 0.0
H439 H 0.67693 0.98873 0.43616 0.0
H440 H 0.7145 0.09583 0.41264 0.0
H441 H 0.70649 0.05035 0.4547 0.0
H442 H 0.87371 0.9967 0.24016 0.0
H443 H 0.86877 0.95177 0.28563 0.0
H444 H 0.79883 0.03502 0.17514 0.0
H445 H 0.75898 0.08069 0.18636 0.0
C446 C 0.26031 0.99863 0.72697 0.0
C447 C 0.32182 0.97806 0.73769 0.0
C448 C 0.37544 0.04581 0.7379 0.0
C449 C 0.31569 0.06647 0.73776 0.0
N450 N 0.20012 0.06318 0.72858 0.0
N451 N 0.43917 0.98198 0.756 0.0
C452 C 0.25765 0.04296 0.73067 0.0
C453 C 0.37945 1.00158 0.74234 0.0
N454 N 0.20438 0.97551 0.71202 0.0
N455 N 0.42907 0.06821 0.73478 0.0
H456 H 0.44494 0.94988 0.75586 0.0
H457 H 0.48372 0.9974 0.77128 0.0
H458 H 0.431 0.10045 0.73602 0.0
H459 H 0.47069 0.05489 0.72558 0.0
H460 H 0.15725 0.98812 0.69816 0.0
H461 H 0.2052 0.94318 0.70795 0.0
H462 H 0.15774 0.04834 0.732 0.0
H463 H 0.19528 0.09545 0.72529 0.0
C464 C 0.20582 0.25833 0.54987 0.0
C465 C 0.27206 0.2451 0.57715 0.0
C466 C 0.30241 0.28443 0.48915 0.0
C467 C 0.23717 0.29985 0.46515 0.0
N468 N 0.12852 0.30618 0.47878 0.0
N469 N 0.37447 0.23084 0.55137 0.0
C470 C 0.18951 0.28836 0.49768 0.0
C471 C 0.31816 0.25387 0.54081 0.0
N472 N 0.15758 0.23858 0.56954 0.0
N473 N 0.34981 0.30006 0.46311 0.0
H474 H 0.38364 0.20466 0.58174 0.0
H475 H 0.40765 0.23382 0.52299 0.0
H476 H 0.33982 0.32383 0.42776 0.0
H477 H 0.39952 0.29303 0.48148 0.0
H478 H 0.10767 0.2437 0.54839 0.0
H479 H 0.16814 0.21268 0.60064 0.0
H480 H 0.09344 0.30227 0.50475 0.0
H481 H 0.11495 0.32791 0.44044 0.0
C482 C 0.73822 0.30398 0.5287 0.0
C483 C 0.78427 0.28355 0.58129 0.0
C484 C 0.78852 0.22501 0.50536 0.0
C485 C 0.73746 0.24346 0.45514 0.0
N486 N 0.65234 0.29603 0.42618 0.0
N487 N 0.83969 0.21875 0.62276 0.0
C488 C 0.70929 0.28185 0.46878 0.0
C489 C 0.80554 0.24238 0.57054 0.0
N490 N 0.72129 0.3444 0.53617 0.0
N491 N 0.82267 0.19175 0.49077 0.0
H492 H 0.85301 0.22958 0.67115 0.0
H493 H 0.84975 0.18725 0.61862 0.0
H494 H 0.81178 0.17795 0.44387 0.0
H495 H 0.86546 0.18027 0.52368 0.0
H496 H 0.69288 0.3623 0.49719 0.0
H497 H 0.74054 0.36115 0.57987 0.0
H498 H 0.6262 0.32169 0.43607 0.0
H499 H 0.627 0.27912 0.38487 0.0
C500 C 0.73503 0.75102 0.47747 0.0
C501 C 0.74846 0.79412 0.46678 0.0
C502 C 0.81399 0.79763 0.58408 0.0
C503 C 0.80059 0.75497 0.5939 0.0
N504 N 0.73649 0.69441 0.55456 0.0
N505 N 0.81391 0.85443 0.50783 0.0
C506 C 0.75846 0.73258 0.54168 0.0
C507 C 0.7907 0.81651 0.51988 0.0
N508 N 0.70225 0.72632 0.42586 0.0
N509 N 0.84787 0.82082 0.63692 0.0
H510 H 0.79994 0.86939 0.46193 0.0
H511 H 0.85188 0.86975 0.54152 0.0
H512 H 0.87068 0.80809 0.6831 0.0
H513 H 0.85021 0.85311 0.63633 0.0
H514 H 0.70349 0.69398 0.42804 0.0
H515 H 0.676 0.73687 0.37934 0.0
H516 H 0.69714 0.67931 0.52235 0.0
H517 H 0.75362 0.67907 0.60003 0.0
C518 C 0.24195 0.80885 0.53346 0.0
C519 C 0.30041 0.79447 0.57973 0.0
C520 C 0.30954 0.73881 0.50003 0.0
C521 C 0.25016 0.75243 0.45512 0.0
N522 N 0.15324 0.7952 0.43374 0.0
N523 N 0.38381 0.74107 0.6105 0.0
C524 C 0.2145 0.78603 0.47327 0.0
C525 C 0.33262 0.75826 0.56362 0.0
N526 N 0.21324 0.84483 0.54681 0.0
N527 N 0.34419 0.70703 0.48169 0.0
H528 H 0.40386 0.75526 0.65569 0.0
H529 H 0.40405 0.71194 0.60645 0.0
H530 H 0.32609 0.68977 0.4383 0.0
H531 H 0.39216 0.69911 0.50721 0.0
H532 H 0.17409 0.8595 0.5131 0.0
H533 H 0.23218 0.86198 0.59016 0.0
H534 H 0.12154 0.81668 0.44616 0.0
H535 H 0.13164 0.77831 0.39085 0.0
C536 C 0.19274 0.30189 1.00484 0.0
C537 C 0.2226 0.28213 0.06674 0.0
C538 C 0.30848 0.25359 0.02215 0.0
C539 C 0.27944 0.27263 0.9604 0.0
N540 N 0.19096 0.31217 0.88896 0.0
N541 N 0.28446 0.22141 0.11642 0.0
C542 C 0.2209 0.29652 0.95067 0.0
C543 C 0.27371 0.25279 0.0708 0.0
N544 N 0.13601 0.32414 0.9976 0.0
N545 N 0.36814 0.2344 0.03262 0.0
H546 H 0.25267 0.21559 0.14559 0.0
H547 H 0.31747 0.19717 0.11683 0.0
H548 H 0.39514 0.23542 0.99761 0.0
H549 H 0.3928 0.221 0.07778 0.0
H550 H 0.11499 0.34346 0.95744 0.0
H551 H 0.10887 0.3223 0.03233 0.0
H552 H 0.14456 0.32581 0.87569 0.0
H553 H 0.21281 0.3111 0.84993 0.0
C554 C 0.71006 0.21855 0.99691 0.0
C555 C 0.70454 0.24515 0.04995 0.0
C556 C 0.7596 0.30005 1.00906 0.0
C557 C 0.76496 0.27472 0.95523 0.0
N558 N 0.7222 0.21505 0.88559 0.0
N559 N 0.6888 0.31643 0.07809 0.0
C560 C 0.73401 0.23524 0.94535 0.0
C561 C 0.71745 0.28777 0.0465 0.0
N562 N 0.69146 0.17793 0.99404 0.0
N563 N 0.7948 0.33572 0.02485 0.0
H564 H 0.65279 0.30814 0.10119 0.0
H565 H 0.69466 0.34834 0.07342 0.0
H566 H 0.8293 0.34486 1.00056 0.0
H567 H 0.79469 0.35336 0.06678 0.0
H568 H 0.70627 0.1561 0.96402 0.0
H569 H 0.65997 0.16612 0.01976 0.0
H570 H 0.69273 0.18884 0.87423 0.0
H571 H 0.73531 0.22621 0.84443 0.0
C572 C 0.78581 0.8016 0.97423 0.0
C573 C 0.80168 0.75863 0.97456 0.0
C574 C 0.7478 0.74775 0.06177 0.0
C575 C 0.74442 0.79117 0.07117 0.0
N576 N 0.78478 0.85902 0.04667 0.0
N577 N 0.81531 0.69363 0.03538 0.0
C578 C 0.77036 0.81835 0.03064 0.0
C579 C 0.78862 0.73259 0.02402 0.0
N580 N 0.78197 0.8264 0.92025 0.0
N581 N 0.7113 0.72096 0.08731 0.0
H582 H 0.84966 0.68254 1.01187 0.0
H583 H 0.80943 0.67489 0.07404 0.0
H584 H 0.67611 0.73122 0.11042 0.0
H585 H 0.71031 0.68911 0.07771 0.0
H586 H 0.76523 0.85709 0.91826 0.0
H587 H 0.78701 0.81571 0.87491 0.0
H588 H 0.80787 0.87764 1.01913 0.0
H589 H 0.78327 0.87294 0.09109 0.0
C590 C 0.24628 0.72749 1.01127 0.0
C591 C 0.26635 0.74991 0.07223 0.0
C592 C 0.34312 0.78927 0.02841 0.0
C593 C 0.31622 0.77116 0.96535 0.0
N594 N 0.23755 0.72575 0.89377 0.0
N595 N 0.33087 0.80481 0.13751 0.0
C596 C 0.26688 0.74078 0.95594 0.0
C597 C 0.31374 0.78176 0.0804 0.0
N598 N 0.20912 0.69264 1.00643 0.0
N599 N 0.39785 0.81309 0.03835 0.0
H600 H 0.31181 0.80008 0.17779 0.0
H601 H 0.36013 0.8311 0.1431 0.0
H602 H 0.42051 0.81764 1.00062 0.0
H603 H 0.42431 0.82427 0.08458 0.0
H604 H 0.20041 0.67221 0.96628 0.0
H605 H 0.19074 0.68242 0.04458 0.0
H606 H 0.19404 0.709 0.88246 0.0
H607 H 0.25488 0.73145 0.8526 0.0
loop_
_geom_bond_atom_site_label_1
_geom_bond_atom_site_label_2
_geom_bond_distance
_geom_bond_site_symmetry_2
_ccdc_geom_bond_type
Fe0 O2 1.918 . S
Fe0 O5 1.997 . S
Fe0 O6 2.002 . S
Fe0 O11 1.976 . S
Fe0 O14 1.996 . S
Fe1 O2 1.918 . S
Fe1 O9 1.997 . S
Fe1 O12 1.996 . S
Fe1 O16 1.976 . S
Fe1 O19 2.002 . S
O2 Fe0 1.918 . S
O2 Fe1 1.918 . S
O2 Fe3 1.918 . S
Fe3 O2 1.918 . S
Fe3 O4 2.002 . S
Fe3 O13 1.976 . S
Fe3 O17 1.996 . S
Fe3 O20 1.997 . S
O4 Fe3 2.002 . S
O4 C21 1.295 . S
O5 Fe0 1.997 . S
O5 C21 1.235 . S
O6 Fe0 2.002 . S
O6 C7 1.295 . S
C7 O6 1.295 . S
C7 O9 1.235 . S
C8 O13 1.287 . S
C8 O14 1.255 . S
O9 Fe1 1.997 . S
O9 C7 1.235 . S
C10 O16 1.287 . S
C10 O17 1.255 . S
O11 Fe0 1.976 . S
O11 C18 1.287 . S
O12 Fe1 1.996 . S
O12 C18 1.255 . S
O13 Fe3 1.976 . S
O13 C8 1.287 . S
O14 Fe0 1.996 . S
O14 C8 1.255 . S
C15 O19 1.295 . S
C15 O20 1.235 . S
O16 Fe1 1.976 . S
O16 C10 1.287 . S
O17 Fe3 1.996 . S
O17 C10 1.255 . S
C18 O11 1.287 . S
C18 O12 1.255 . S
O19 Fe1 2.002 . S
O19 C15 1.295 . S
O20 Fe3 1.997 . S
O20 C15 1.235 . S
C21 O4 1.295 . S
C21 O5 1.235 . S
Fe22 O24 1.918 . S
Fe22 O27 1.997 . S
Fe22 O28 2.002 . S
Fe22 O33 1.976 . S
Fe22 O36 1.996 . S
Fe23 O24 1.918 . S
Fe23 O31 1.997 . S
Fe23 O34 1.996 . S
Fe23 O38 1.976 . S
Fe23 O41 2.002 . S
O24 Fe22 1.918 . S
O24 Fe23 1.918 . S
O24 Fe25 1.918 . S
Fe25 O24 1.918 . S
Fe25 O26 2.002 . S
Fe25 O35 1.976 . S
Fe25 O39 1.996 . S
Fe25 O42 1.997 . S
O26 Fe25 2.002 . S
O26 C43 1.295 . S
O27 Fe22 1.997 . S
O27 C43 1.235 . S
O28 Fe22 2.002 . S
O28 C29 1.295 . S
C29 O28 1.295 . S
C29 O31 1.235 . S
C30 O35 1.287 . S
C30 O36 1.255 . S
O31 Fe23 1.997 . S
O31 C29 1.235 . S
C32 O38 1.287 . S
C32 O39 1.255 . S
O33 Fe22 1.976 . S
O33 C40 1.287 . S
O34 Fe23 1.996 . S
O34 C40 1.255 . S
O35 Fe25 1.976 . S
O35 C30 1.287 . S
O36 Fe22 1.996 . S
O36 C30 1.255 . S
C37 O41 1.295 . S
C37 O42 1.235 . S
O38 Fe23 1.976 . S
O38 C32 1.287 . S
O39 Fe25 1.996 . S
O39 C32 1.255 . S
C40 O33 1.287 . S
C40 O34 1.255 . S
O41 Fe23 2.002 . S
O41 C37 1.295 . S
O42 Fe25 1.997 . S
O42 C37 1.235 . S
C43 O26 1.295 . S
C43 O27 1.235 . S
Fe44 O46 1.918 . S
Fe44 O49 1.997 . S
Fe44 O50 2.002 . S
Fe44 O55 1.976 . S
Fe44 O58 1.996 . S
Fe45 O46 1.918 . S
Fe45 O53 1.997 . S
Fe45 O56 1.996 . S
Fe45 O60 1.976 . S
Fe45 O63 2.002 . S
O46 Fe44 1.918 . S
O46 Fe45 1.918 . S
O46 Fe47 1.918 . S
Fe47 O46 1.918 . S
Fe47 O48 2.002 . S
Fe47 O57 1.976 . S
Fe47 O61 1.996 . S
Fe47 O64 1.997 . S
O48 Fe47 2.002 . S
O48 C65 1.295 . S
O49 Fe44 1.997 . S
O49 C65 1.235 . S
O50 Fe44 2.002 . S
O50 C51 1.295 . S
C51 O50 1.295 . S
C51 O53 1.235 . S
C52 O57 1.287 . S
C52 O58 1.255 . S
O53 Fe45 1.997 . S
O53 C51 1.235 . S
C54 O60 1.287 . S
C54 O61 1.255 . S
O55 Fe44 1.976 . S
O55 C62 1.287 . S
O56 Fe45 1.996 . S
O56 C62 1.255 . S
O57 Fe47 1.976 . S
O57 C52 1.287 . S
O58 Fe44 1.996 . S
O58 C52 1.255 . S
C59 O63 1.295 . S
C59 O64 1.235 . S
O60 Fe45 1.976 . S
O60 C54 1.287 . S
O61 Fe47 1.996 . S
O61 C54 1.255 . S
C62 O55 1.287 . S
C62 O56 1.255 . S
O63 Fe45 2.002 . S
O63 C59 1.295 . S
O64 Fe47 1.997 . S
O64 C59 1.235 . S
C65 O48 1.295 . S
C65 O49 1.235 . S
Fe66 O68 1.918 . S
Fe66 O71 1.997 . S
Fe66 O72 2.002 . S
Fe66 O77 1.976 . S
Fe66 O80 1.996 . S
Fe67 O68 1.918 . S
Fe67 O75 1.997 . S
Fe67 O78 1.996 . S
Fe67 O82 1.976 . S
Fe67 O85 2.002 . S
O68 Fe66 1.918 . S
O68 Fe67 1.918 . S
O68 Fe69 1.918 . S
Fe69 O68 1.918 . S
Fe69 O70 2.002 . S
Fe69 O79 1.976 . S
Fe69 O83 1.996 . S
Fe69 O86 1.997 . S
O70 Fe69 2.002 . S
O70 C87 1.295 . S
O71 Fe66 1.997 . S
O71 C87 1.235 . S
O72 Fe66 2.002 . S
O72 C73 1.295 . S
C73 O72 1.295 . S
C73 O75 1.235 . S
C74 O79 1.287 . S
C74 O80 1.255 . S
O75 Fe67 1.997 . S
O75 C73 1.235 . S
C76 O82 1.287 . S
C76 O83 1.255 . S
O77 Fe66 1.976 . S
O77 C84 1.287 . S
O78 Fe67 1.996 . S
O78 C84 1.255 . S
O79 Fe69 1.976 . S
O79 C74 1.287 . S
O80 Fe66 1.996 . S
O80 C74 1.255 . S
C81 O85 1.295 . S
C81 O86 1.235 . S
O82 Fe67 1.976 . S
O82 C76 1.287 . S
O83 Fe69 1.996 . S
O83 C76 1.255 . S
C84 O77 1.287 . S
C84 O78 1.255 . S
O85 Fe67 2.002 . S
O85 C81 1.295 . S
O86 Fe69 1.997 . S
O86 C81 1.235 . S
C87 O70 1.295 . S
C87 O71 1.235 . S
Fe88 O90 1.918 . S
Fe88 O93 1.997 . S
Fe88 O94 2.002 . S
Fe88 O99 1.976 . S
Fe88 O102 1.996 . S
Fe89 O90 1.918 . S
Fe89 O97 1.997 . S
Fe89 O100 1.996 . S
Fe89 O104 1.976 . S
Fe89 O107 2.002 . S
O90 Fe88 1.918 . S
O90 Fe89 1.918 . S
O90 Fe91 1.918 . S
Fe91 O90 1.918 . S
Fe91 O92 2.002 . S
Fe91 O101 1.976 . S
Fe91 O105 1.996 . S
Fe91 O108 1.997 . S
O92 Fe91 2.002 . S
O92 C109 1.295 . S
O93 Fe88 1.997 . S
O93 C109 1.235 . S
O94 Fe88 2.002 . S
O94 C95 1.295 . S
C95 O94 1.295 . S
C95 O97 1.235 . S
C96 O101 1.287 . S
C96 O102 1.255 . S
O97 Fe89 1.997 . S
O97 C95 1.235 . S
C98 O104 1.287 . S
C98 O105 1.255 . S
O99 Fe88 1.976 . S
O99 C106 1.287 . S
O100 Fe89 1.996 . S
O100 C106 1.255 . S
O101 Fe91 1.976 . S
O101 C96 1.287 . S
O102 Fe88 1.996 . S
O102 C96 1.255 . S
C103 O107 1.295 . S
C103 O108 1.235 . S
O104 Fe89 1.976 . S
O104 C98 1.287 . S
O105 Fe91 1.996 . S
O105 C98 1.255 . S
C106 O99 1.287 . S
C106 O100 1.255 . S
O107 Fe89 2.002 . S
O107 C103 1.295 . S
O108 Fe91 1.997 . S
O108 C103 1.235 . S
C109 O92 1.295 . S
C109 O93 1.235 . S
Fe110 O112 1.918 . S
Fe110 O115 1.997 . S
Fe110 O116 2.002 . S
Fe110 O121 1.976 . S
Fe110 O124 1.996 . S
Fe111 O112 1.918 . S
Fe111 O119 1.997 . S
Fe111 O122 1.996 . S
Fe111 O126 1.976 . S
Fe111 O129 2.002 . S
O112 Fe110 1.918 . S
O112 Fe111 1.918 . S
O112 Fe113 1.918 . S
Fe113 O112 1.918 . S
Fe113 O114 2.002 . S
Fe113 O123 1.976 . S
Fe113 O127 1.996 . S
Fe113 O130 1.997 . S
O114 Fe113 2.002 . S
O114 C131 1.295 . S
O115 Fe110 1.997 . S
O115 C131 1.235 . S
O116 Fe110 2.002 . S
O116 C117 1.295 . S
C117 O116 1.295 . S
C117 O119 1.235 . S
C118 O123 1.287 . S
C118 O124 1.255 . S
O119 Fe111 1.997 . S
O119 C117 1.235 . S
C120 O126 1.287 . S
C120 O127 1.255 . S
O121 Fe110 1.976 . S
O121 C128 1.287 . S
O122 Fe111 1.996 . S
O122 C128 1.255 . S
O123 Fe113 1.976 . S
O123 C118 1.287 . S
O124 Fe110 1.996 . S
O124 C118 1.255 . S
C125 O129 1.295 . S
C125 O130 1.235 . S
O126 Fe111 1.976 . S
O126 C120 1.287 . S
O127 Fe113 1.996 . S
O127 C120 1.255 . S
C128 O121 1.287 . S
C128 O122 1.255 . S
O129 Fe111 2.002 . S
O129 C125 1.295 . S
O130 Fe113 1.997 . S
O130 C125 1.235 . S
C131 O114 1.295 . S
C131 O115 1.235 . S
Fe132 O134 1.918 . S
Fe132 O137 1.997 . S
Fe132 O138 2.002 . S
Fe132 O143 1.976 . S
Fe132 O146 1.996 . S
Fe133 O134 1.918 . S
Fe133 O141 1.997 . S
Fe133 O144 1.996 . S
Fe133 O148 1.976 . S
Fe133 O151 2.002 . S
O134 Fe132 1.918 . S
O134 Fe133 1.918 . S
O134 Fe135 1.918 . S
Fe135 O134 1.918 . S
Fe135 O136 2.002 . S
Fe135 O145 1.976 . S
Fe135 O149 1.996 . S
Fe135 O152 1.997 . S
O136 Fe135 2.002 . S
O136 C153 1.295 . S
O137 Fe132 1.997 . S
O137 C153 1.235 . S
O138 Fe132 2.002 . S
O138 C139 1.295 . S
C139 O138 1.295 . S
C139 O141 1.235 . S
C140 O145 1.287 . S
C140 O146 1.255 . S
O141 Fe133 1.997 . S
O141 C139 1.235 . S
C142 O148 1.287 . S
C142 O149 1.255 . S
O143 Fe132 1.976 . S
O143 C150 1.287 . S
O144 Fe133 1.996 . S
O144 C150 1.255 . S
O145 Fe135 1.976 . S
O145 C140 1.287 . S
O146 Fe132 1.996 . S
O146 C140 1.255 . S
C147 O151 1.295 . S
C147 O152 1.235 . S
O148 Fe133 1.976 . S
O148 C142 1.287 . S
O149 Fe135 1.996 . S
O149 C142 1.255 . S
C150 O143 1.287 . S
C150 O144 1.255 . S
O151 Fe133 2.002 . S
O151 C147 1.295 . S
O152 Fe135 1.997 . S
O152 C147 1.235 . S
C153 O136 1.295 . S
C153 O137 1.235 . S
Fe154 O156 1.918 . S
Fe154 O159 1.997 . S
Fe154 O160 2.002 . S
Fe154 O165 1.976 . S
Fe154 O168 1.996 . S
Fe155 O156 1.918 . S
Fe155 O163 1.997 . S
Fe155 O166 1.996 . S
Fe155 O170 1.976 . S
Fe155 O173 2.002 . S
O156 Fe154 1.918 . S
O156 Fe155 1.918 . S
O156 Fe157 1.918 . S
Fe157 O156 1.918 . S
Fe157 O158 2.002 . S
Fe157 O167 1.976 . S
Fe157 O171 1.996 . S
Fe157 O174 1.997 . S
O158 Fe157 2.002 . S
O158 C175 1.295 . S
O159 Fe154 1.997 . S
O159 C175 1.235 . S
O160 Fe154 2.002 . S
O160 C161 1.295 . S
C161 O160 1.295 . S
C161 O163 1.235 . S
C162 O167 1.287 . S
C162 O168 1.255 . S
O163 Fe155 1.997 . S
O163 C161 1.235 . S
C164 O170 1.287 . S
C164 O171 1.255 . S
O165 Fe154 1.976 . S
O165 C172 1.287 . S
O166 Fe155 1.996 . S
O166 C172 1.255 . S
O167 Fe157 1.976 . S
O167 C162 1.287 . S
O168 Fe154 1.996 . S
O168 C162 1.255 . S
C169 O173 1.295 . S
C169 O174 1.235 . S
O170 Fe155 1.976 . S
O170 C164 1.287 . S
O171 Fe157 1.996 . S
O171 C164 1.255 . S
C172 O165 1.287 . S
C172 O166 1.255 . S
O173 Fe155 2.002 . S
O173 C169 1.295 . S
O174 Fe157 1.997 . S
O174 C169 1.235 . S
C175 O158 1.295 . S
C175 O159 1.235 . S
C176 C177 1.363 . S
C176 C182 1.379 . S
C176 N184 1.356 . S
C177 C176 1.363 . S
C177 C183 1.363 . S
C178 C179 1.363 . S
C178 C183 1.379 . S
C178 N185 1.356 . S
C179 C178 1.363 . S
C179 C182 1.363 . S
N180 C182 1.356 . S
N180 H192 0.984 . S
N180 H193 0.985 . S
N181 C183 1.356 . S
N181 H186 0.984 . S
N181 H187 0.985 . S
C182 C176 1.379 . S
C182 C179 1.363 . S
C182 N180 1.356 . S
C183 C177 1.363 . S
C183 C178 1.379 . S
C183 N181 1.356 . S
N184 C176 1.356 . S
N184 H190 0.984 . S
N184 H191 0.984 . S
N185 C178 1.356 . S
N185 H188 0.984 . S
N185 H189 0.985 . S
H186 N181 0.984 . S
H187 N181 0.985 . S
H188 N185 0.984 . S
H189 N185 0.985 . S
H190 N184 0.984 . S
H191 N184 0.984 . S
H192 N180 0.984 . S
H193 N180 0.985 . S
C194 C195 1.363 . S
C194 C200 1.379 . S
C194 N202 1.356 . S
C195 C194 1.363 . S
C195 C201 1.363 . S
C196 C197 1.363 . S
C196 C201 1.379 . S
C196 N203 1.356 . S
C197 C196 1.363 . S
C197 C200 1.363 . S
N198 C200 1.356 . S
N198 H210 0.984 . S
N198 H211 0.985 . S
N199 C201 1.356 . S
N199 H204 0.984 . S
N199 H205 0.985 . S
C200 C194 1.379 . S
C200 C197 1.363 . S
C200 N198 1.356 . S
C201 C195 1.363 . S
C201 C196 1.379 . S
C201 N199 1.356 . S
N202 C194 1.356 . S
N202 H208 0.984 . S
N202 H209 0.984 . S
N203 C196 1.356 . S
N203 H206 0.984 . S
N203 H207 0.985 . S
H204 N199 0.984 . S
H205 N199 0.985 . S
H206 N203 0.984 . S
H207 N203 0.985 . S
H208 N202 0.984 . S
H209 N202 0.984 . S
H210 N198 0.984 . S
H211 N198 0.985 . S
C212 C213 1.363 . S
C212 C218 1.379 . S
C212 N220 1.356 . S
C213 C212 1.363 . S
C213 C219 1.363 . S
C214 C215 1.363 . S
C214 C219 1.379 . S
C214 N221 1.356 . S
C215 C214 1.363 . S
C215 C218 1.363 . S
N216 C218 1.356 . S
N216 H228 0.984 . S
N216 H229 0.985 . S
N217 C219 1.356 . S
N217 H222 0.984 . S
N217 H223 0.985 . S
C218 C212 1.379 . S
C218 C215 1.363 . S
C218 N216 1.356 . S
C219 C213 1.363 . S
C219 C214 1.379 . S
C219 N217 1.356 . S
N220 C212 1.356 . S
N220 H226 0.984 . S
N220 H227 0.984 . S
N221 C214 1.356 . S
N221 H224 0.984 . S
N221 H225 0.985 . S
H222 N217 0.984 . S
H223 N217 0.985 . S
H224 N221 0.984 . S
H225 N221 0.985 . S
H226 N220 0.984 . S
H227 N220 0.984 . S
H228 N216 0.984 . S
H229 N216 0.985 . S
C230 C231 1.363 . S
C230 C236 1.379 . S
C230 N238 1.356 . S
C231 C230 1.363 . S
C231 C237 1.363 . S
C232 C233 1.363 . S
C232 C237 1.379 . S
C232 N239 1.356 . S
C233 C232 1.363 . S
C233 C236 1.363 . S
N234 C236 1.356 . S
N234 H246 0.984 . S
N234 H247 0.985 . S
N235 C237 1.356 . S
N235 H240 0.984 . S
N235 H241 0.985 . S
C236 C230 1.379 . S
C236 C233 1.363 . S
C236 N234 1.356 . S
C237 C231 1.363 . S
C237 C232 1.379 . S
C237 N235 1.356 . S
N238 C230 1.356 . S
N238 H244 0.984 . S
N238 H245 0.984 . S
N239 C232 1.356 . S
N239 H242 0.984 . S
N239 H243 0.985 . S
H240 N235 0.984 . S
H241 N235 0.985 . S
H242 N239 0.984 . S
H243 N239 0.985 . S
H244 N238 0.984 . S
H245 N238 0.984 . S
H246 N234 0.984 . S
H247 N234 0.985 . S
C248 C249 1.371 . S
C248 C254 1.370 1_455 S
C248 N256 1.360 . S
C249 C248 1.371 . S
C249 C255 1.363 . S
C250 C251 1.363 . S
C250 C255 1.379 1_655 S
C250 N257 1.356 . S
C251 C250 1.363 . S
C251 C254 1.363 . S
N252 C254 1.356 . S
N252 H264 0.984 . S
N252 H265 0.985 . S
N253 C255 1.356 . S
N253 H258 0.984 . S
N253 H259 0.985 . S
C254 C248 1.370 1_655 S
C254 C251 1.363 . S
C254 N252 1.356 . S
C255 C249 1.363 . S
C255 C250 1.379 1_455 S
C255 N253 1.356 . S
N256 C248 1.360 . S
N256 H262 0.984 . S
N256 H263 0.984 . S
N257 C250 1.356 . S
N257 H260 0.984 . S
N257 H261 0.985 . S
H258 N253 0.984 . S
H259 N253 0.985 . S
H260 N257 0.984 . S
H261 N257 0.985 . S
H262 N256 0.984 . S
H263 N256 0.984 . S
H264 N252 0.984 . S
H265 N252 0.985 . S
C266 C267 1.363 . S
C266 C272 1.379 1_655 S
C266 N274 1.356 . S
C267 C266 1.363 . S
C267 C273 1.363 . S
C268 C269 1.363 . S
C268 C273 1.379 1_455 S
C268 N275 1.356 . S
C269 C268 1.363 . S
C269 C272 1.363 . S
N270 C272 1.356 . S
N270 H282 0.984 . S
N270 H283 0.985 . S
N271 C273 1.356 . S
N271 H276 0.984 . S
N271 H277 0.985 . S
C272 C266 1.379 1_455 S
C272 C269 1.363 . S
C272 N270 1.356 . S
C273 C267 1.363 . S
C273 C268 1.379 1_655 S
C273 N271 1.356 . S
N274 C266 1.356 . S
N274 H280 0.984 . S
N274 H281 0.984 . S
N275 C268 1.356 . S
N275 H278 0.984 . S
N275 H279 0.985 . S
H276 N271 0.984 . S
H277 N271 0.985 . S
H278 N275 0.984 . S
H279 N275 0.985 . S
H280 N274 0.984 . S
H281 N274 0.984 . S
H282 N270 0.984 . S
H283 N270 0.985 . S
C284 C285 1.363 1_455 S
C284 C290 1.379 . S
C284 N292 1.356 1_455 S
C285 C284 1.363 1_655 S
C285 C291 1.363 . S
C286 C287 1.363 . S
C286 C291 1.379 1_455 S
C286 N293 1.356 . S
C287 C286 1.363 . S
C287 C290 1.363 . S
N288 C290 1.356 . S
N288 H300 0.984 . S
N288 H301 0.985 . S
N289 C291 1.356 . S
N289 H294 0.984 . S
N289 H295 0.985 . S
C290 C284 1.379 . S
C290 C287 1.363 . S
C290 N288 1.356 . S
C291 C285 1.363 . S
C291 C286 1.379 1_655 S
C291 N289 1.356 . S
N292 C284 1.356 1_655 S
N292 H298 0.984 1_655 S
N292 H299 0.984 . S
N293 C286 1.356 . S
N293 H296 0.984 . S
N293 H297 0.985 . S
H294 N289 0.984 . S
H295 N289 0.985 . S
H296 N293 0.984 . S
H297 N293 0.985 . S
H298 N292 0.984 1_455 S
H299 N292 0.984 . S
H300 N288 0.984 . S
H301 N288 0.985 . S
C302 C303 1.363 . S
C302 C308 1.379 1_455 S
C302 N310 1.356 . S
C303 C302 1.363 . S
C303 C309 1.363 . S
C304 C305 1.363 . S
C304 C309 1.379 1_655 S
C304 N311 1.356 . S
C305 C304 1.363 . S
C305 C308 1.363 . S
N306 C308 1.356 . S
N306 H318 0.984 . S
N306 H319 0.985 . S
N307 C309 1.356 . S
N307 H312 0.984 . S
N307 H313 0.985 . S
C308 C302 1.379 1_655 S
C308 C305 1.363 . S
C308 N306 1.356 . S
C309 C303 1.363 . S
C309 C304 1.379 1_455 S
C309 N307 1.356 . S
N310 C302 1.356 . S
N310 H316 0.984 . S
N310 H317 0.984 . S
N311 C304 1.356 . S
N311 H314 0.984 . S
N311 H315 0.985 . S
H312 N307 0.984 . S
H313 N307 0.985 . S
H314 N311 0.984 . S
H315 N311 0.985 . S
H316 N310 0.984 . S
H317 N310 0.984 . S
H318 N306 0.984 . S
H319 N306 0.985 . S
C320 C321 1.363 . S
C320 C326 1.379 1_656 S
C320 N328 1.356 . S
C321 C320 1.363 . S
C321 C327 1.363 . S
C322 C323 1.363 . S
C322 C327 1.379 1_454 S
C322 N329 1.356 . S
C323 C322 1.363 . S
C323 C326 1.363 . S
N324 C326 1.356 . S
N324 H336 0.993 . S
N324 H337 0.985 . S
N325 C327 1.356 . S
N325 H330 0.984 . S
N325 H331 0.993 . S
C326 C320 1.379 1_454 S
C326 C323 1.363 . S
C326 N324 1.356 . S
C327 C321 1.363 . S
C327 C322 1.379 1_656 S
C327 N325 1.356 . S
N328 C320 1.356 . S
N328 H334 0.984 . S
N328 H335 0.984 . S
N329 C322 1.356 . S
N329 H332 0.984 . S
N329 H333 0.985 . S
H330 N325 0.984 . S
H331 N325 0.993 . S
H332 N329 0.984 . S
H333 N329 0.985 . S
H334 N328 0.984 . S
H335 N328 0.984 . S
H336 N324 0.993 . S
H337 N324 0.985 . S
C338 C339 1.363 . S
C338 C344 1.379 1_454 S
C338 N346 1.356 . S
C339 C338 1.363 . S
C339 C345 1.363 . S
C340 C341 1.363 . S
C340 C345 1.379 1_656 S
C340 N347 1.356 . S
C341 C340 1.363 . S
C341 C344 1.363 . S
N342 C344 1.356 . S
N342 H354 0.984 . S
N342 H355 0.985 . S
N343 C345 1.356 . S
N343 H348 0.984 . S
N343 H349 0.985 . S
C344 C338 1.379 1_656 S
C344 C341 1.363 . S
C344 N342 1.356 . S
C345 C339 1.363 . S
C345 C340 1.379 1_454 S
C345 N343 1.356 . S
N346 C338 1.356 . S
N346 H352 0.984 . S
N346 H353 0.984 . S
N347 C340 1.356 . S
N347 H350 0.984 . S
N347 H351 0.985 . S
H348 N343 0.984 . S
H349 N343 0.985 . S
H350 N347 0.984 . S
H351 N347 0.985 . S
H352 N346 0.984 . S
H353 N346 0.984 . S
H354 N342 0.984 . S
H355 N342 0.985 . S
C356 C357 1.363 . S
C356 C362 1.379 1_554 S
C356 N364 1.356 . S
C357 C356 1.363 . S
C357 C363 1.363 . S
C358 C359 1.363 . S
C358 C363 1.379 1_556 S
C358 N365 1.356 . S
C359 C358 1.363 . S
C359 C362 1.363 . S
N360 C362 1.356 . S
N360 H372 0.984 . S
N360 H373 0.985 . S
N361 C363 1.356 . S
N361 H366 0.984 . S
N361 H367 0.985 . S
C362 C356 1.379 1_556 S
C362 C359 1.363 . S
C362 N360 1.356 . S
C363 C357 1.363 . S
C363 C358 1.379 1_554 S
C363 N361 1.356 . S
N364 C356 1.356 . S
N364 H370 0.984 . S
N364 H371 0.984 . S
N365 C358 1.356 . S
N365 H368 0.984 . S
N365 H369 0.985 . S
H366 N361 0.984 . S
H367 N361 0.985 . S
H368 N365 0.984 . S
H369 N365 0.985 . S
H370 N364 0.984 . S
H371 N364 0.984 . S
H372 N360 0.984 . S
H373 N360 0.985 . S
C374 C375 1.363 . S
C374 C380 1.379 1_554 S
C374 N382 1.356 . S
C375 C374 1.363 . S
C375 C381 1.363 . S
C376 C377 1.363 . S
C376 C381 1.379 1_556 S
C376 N383 1.356 . S
C377 C376 1.363 . S
C377 C380 1.363 . S
N378 C380 1.356 . S
N378 H390 0.984 . S
N378 H391 0.985 . S
N379 C381 1.356 . S
N379 H384 0.984 . S
N379 H385 0.985 . S
C380 C374 1.379 1_556 S
C380 C377 1.363 . S
C380 N378 1.356 . S
C381 C375 1.363 . S
C381 C376 1.379 1_554 S
C381 N379 1.356 . S
N382 C374 1.356 . S
N382 H388 0.984 . S
N382 H389 0.984 . S
N383 C376 1.356 . S
N383 H386 0.984 . S
N383 H387 0.985 . S
H384 N379 0.984 . S
H385 N379 0.985 . S
H386 N383 0.984 . S
H387 N383 0.985 . S
H388 N382 0.984 . S
H389 N382 0.984 . S
H390 N378 0.984 . S
H391 N378 0.985 . S
C392 C393 1.363 . S
C392 C398 1.379 . S
C392 N400 1.356 . S
C393 C392 1.363 . S
C393 C399 1.363 . S
C394 C395 1.363 . S
C394 C399 1.379 . S
C394 N401 1.356 . S
C395 C394 1.363 . S
C395 C398 1.363 . S
N396 C398 1.356 . S
N396 H408 0.984 . S
N396 H409 0.985 . S
N397 C399 1.356 . S
N397 H402 0.984 . S
N397 H403 0.985 . S
C398 C392 1.379 . S
C398 C395 1.363 . S
C398 N396 1.356 . S
C399 C393 1.363 . S
C399 C394 1.379 . S
C399 N397 1.356 . S
N400 C392 1.356 . S
N400 H406 0.984 . S
N400 H407 0.984 . S
N401 C394 1.356 . S
N401 H404 0.984 . S
N401 H405 0.985 . S
H402 N397 0.984 . S
H403 N397 0.985 . S
H404 N401 0.984 . S
H405 N401 0.985 . S
H406 N400 0.984 . S
H407 N400 0.984 . S
H408 N396 0.984 . S
H409 N396 0.985 . S
C410 C411 1.363 . S
C410 C416 1.379 . S
C410 N418 1.356 . S
C411 C410 1.363 . S
C411 C417 1.363 . S
C412 C413 1.363 . S
C412 C417 1.379 . S
C412 N419 1.356 . S
C413 C412 1.363 . S
C413 C416 1.363 . S
N414 C416 1.356 . S
N414 H426 0.984 . S
N414 H427 0.985 . S
N415 C417 1.356 . S
N415 H420 0.984 . S
N415 H421 0.985 . S
C416 C410 1.379 . S
C416 C413 1.363 . S
C416 N414 1.356 . S
C417 C411 1.363 . S
C417 C412 1.379 . S
C417 N415 1.356 . S
N418 C410 1.356 . S
N418 H424 0.984 . S
N418 H425 0.984 . S
N419 C412 1.356 . S
N419 H422 0.984 . S
N419 H423 0.985 . S
H420 N415 0.984 . S
H421 N415 0.985 . S
H422 N419 0.984 . S
H423 N419 0.985 . S
H424 N418 0.984 . S
H425 N418 0.984 . S
H426 N414 0.984 . S
H427 N414 0.985 . S
C428 C429 1.363 . S
C428 C434 1.379 1_565 S
C428 N436 1.356 . S
C429 C428 1.363 . S
C429 C435 1.363 . S
C430 C431 1.363 . S
C430 C435 1.379 1_545 S
C430 N437 1.356 . S
C431 C430 1.363 . S
C431 C434 1.363 . S
N432 C434 1.356 . S
N432 H444 0.984 . S
N432 H445 0.985 . S
N433 C435 1.356 . S
N433 H438 0.984 . S
N433 H439 0.985 . S
C434 C428 1.379 1_545 S
C434 C431 1.363 . S
C434 N432 1.356 . S
C435 C429 1.363 . S
C435 C430 1.379 1_565 S
C435 N433 1.356 . S
N436 C428 1.356 . S
N436 H442 0.984 . S
N436 H443 0.984 . S
N437 C430 1.356 . S
N437 H440 0.984 . S
N437 H441 0.985 . S
H438 N433 0.984 . S
H439 N433 0.985 . S
H440 N437 0.984 . S
H441 N437 0.985 . S
H442 N436 0.984 . S
H443 N436 0.984 . S
H444 N432 0.984 . S
H445 N432 0.985 . S
C446 C447 1.363 . S
C446 C452 1.379 1_565 S
C446 N454 1.356 . S
C447 C446 1.363 . S
C447 C453 1.363 . S
C448 C449 1.363 . S
C448 C453 1.379 1_545 S
C448 N455 1.356 . S
C449 C448 1.363 . S
C449 C452 1.363 . S
N450 C452 1.356 . S
N450 H462 0.984 . S
N450 H463 0.985 . S
N451 C453 1.356 . S
N451 H456 0.984 . S
N451 H457 0.985 . S
C452 C446 1.379 1_545 S
C452 C449 1.363 . S
C452 N450 1.356 . S
C453 C447 1.363 . S
C453 C448 1.379 1_565 S
C453 N451 1.356 . S
N454 C446 1.356 . S
N454 H460 0.984 . S
N454 H461 0.984 . S
N455 C448 1.356 . S
N455 H458 0.984 . S
N455 H459 0.985 . S
H456 N451 0.984 . S
H457 N451 0.985 . S
H458 N455 0.984 . S
H459 N455 0.985 . S
H460 N454 0.984 . S
H461 N454 0.984 . S
H462 N450 0.984 . S
H463 N450 0.985 . S
C464 C465 1.363 . S
C464 C470 1.379 . S
C464 N472 1.356 . S
C465 C464 1.363 . S
C465 C471 1.363 . S
C466 C467 1.363 . S
C466 C471 1.379 . S
C466 N473 1.356 . S
C467 C466 1.363 . S
C467 C470 1.363 . S
N468 C470 1.356 . S
N468 H480 0.984 . S
N468 H481 0.985 . S
N469 C471 1.356 . S
N469 H474 0.984 . S
N469 H475 0.985 . S
C470 C464 1.379 . S
C470 C467 1.363 . S
C470 N468 1.356 . S
C471 C465 1.363 . S
C471 C466 1.379 . S
C471 N469 1.356 . S
N472 C464 1.356 . S
N472 H478 0.984 . S
N472 H479 0.984 . S
N473 C466 1.356 . S
N473 H476 0.984 . S
N473 H477 0.985 . S
H474 N469 0.984 . S
H475 N469 0.985 . S
H476 N473 0.984 . S
H477 N473 0.985 . S
H478 N472 0.984 . S
H479 N472 0.984 . S
H480 N468 0.984 . S
H481 N468 0.985 . S
C482 C483 1.363 . S
C482 C488 1.379 . S
C482 N490 1.356 . S
C483 C482 1.363 . S
C483 C489 1.363 . S
C484 C485 1.363 . S
C484 C489 1.379 . S
C484 N491 1.356 . S
C485 C484 1.363 . S
C485 C488 1.363 . S
N486 C488 1.356 . S
N486 H498 0.984 . S
N486 H499 0.985 . S
N487 C489 1.356 . S
N487 H492 0.984 . S
N487 H493 0.985 . S
C488 C482 1.379 . S
C488 C485 1.363 . S
C488 N486 1.356 . S
C489 C483 1.363 . S
C489 C484 1.379 . S
C489 N487 1.356 . S
N490 C482 1.356 . S
N490 H496 0.984 . S
N490 H497 0.984 . S
N491 C484 1.356 . S
N491 H494 0.984 . S
N491 H495 0.985 . S
H492 N487 0.984 . S
H493 N487 0.985 . S
H494 N491 0.984 . S
H495 N491 0.985 . S
H496 N490 0.984 . S
H497 N490 0.984 . S
H498 N486 0.984 . S
H499 N486 0.985 . S
C500 C501 1.363 . S
C500 C506 1.379 . S
C500 N508 1.356 . S
C501 C500 1.363 . S
C501 C507 1.363 . S
C502 C503 1.363 . S
C502 C507 1.379 . S
C502 N509 1.356 . S
C503 C502 1.363 . S
C503 C506 1.363 . S
N504 C506 1.356 . S
N504 H516 0.984 . S
N504 H517 0.985 . S
N505 C507 1.356 . S
N505 H510 0.984 . S
N505 H511 0.985 . S
C506 C500 1.379 . S
C506 C503 1.363 . S
C506 N504 1.356 . S
C507 C501 1.363 . S
C507 C502 1.379 . S
C507 N505 1.356 . S
N508 C500 1.356 . S
N508 H514 0.984 . S
N508 H515 0.984 . S
N509 C502 1.356 . S
N509 H512 0.984 . S
N509 H513 0.985 . S
H510 N505 0.984 . S
H511 N505 0.985 . S
H512 N509 0.984 . S
H513 N509 0.985 . S
H514 N508 0.984 . S
H515 N508 0.984 . S
H516 N504 0.984 . S
H517 N504 0.985 . S
C518 C519 1.363 . S
C518 C524 1.379 . S
C518 N526 1.356 . S
C519 C518 1.363 . S
C519 C525 1.363 . S
C520 C521 1.363 . S
C520 C525 1.379 . S
C520 N527 1.356 . S
C521 C520 1.363 . S
C521 C524 1.363 . S
N522 C524 1.356 . S
N522 H534 0.984 . S
N522 H535 0.985 . S
N523 C525 1.356 . S
N523 H528 0.984 . S
N523 H529 0.985 . S
C524 C518 1.379 . S
C524 C521 1.363 . S
C524 N522 1.356 . S
C525 C519 1.363 . S
C525 C520 1.379 . S
C525 N523 1.356 . S
N526 C518 1.356 . S
N526 H532 0.984 . S
N526 H533 0.984 . S
N527 C520 1.356 . S
N527 H530 0.984 . S
N527 H531 0.985 . S
H528 N523 0.984 . S
H529 N523 0.985 . S
H530 N527 0.984 . S
H531 N527 0.985 . S
H532 N526 0.984 . S
H533 N526 0.984 . S
H534 N522 0.984 . S
H535 N522 0.985 . S
C536 C537 1.363 . S
C536 C542 1.379 1_554 S
C536 N544 1.356 . S
C537 C536 1.363 . S
C537 C543 1.363 . S
C538 C539 1.363 . S
C538 C543 1.379 1_556 S
C538 N545 1.356 . S
C539 C538 1.363 . S
C539 C542 1.363 . S
N540 C542 1.356 . S
N540 H552 0.984 . S
N540 H553 0.985 . S
N541 C543 1.356 . S
N541 H546 0.984 . S
N541 H547 0.985 . S
C542 C536 1.379 1_556 S
C542 C539 1.363 . S
C542 N540 1.356 . S
C543 C537 1.363 . S
C543 C538 1.379 1_554 S
C543 N541 1.356 . S
N544 C536 1.356 . S
N544 H550 0.984 . S
N544 H551 0.984 . S
N545 C538 1.356 . S
N545 H548 0.984 . S
N545 H549 0.985 . S
H546 N541 0.984 . S
H547 N541 0.985 . S
H548 N545 0.984 . S
H549 N545 0.985 . S
H550 N544 0.984 . S
H551 N544 0.984 . S
H552 N540 0.984 . S
H553 N540 0.985 . S
C554 C555 1.363 . S
C554 C560 1.379 1_554 S
C554 N562 1.356 . S
C555 C554 1.363 . S
C555 C561 1.363 . S
C556 C557 1.363 . S
C556 C561 1.379 1_556 S
C556 N563 1.356 . S
C557 C556 1.363 . S
C557 C560 1.363 . S
N558 C560 1.356 . S
N558 H570 0.984 . S
N558 H571 0.985 . S
N559 C561 1.356 . S
N559 H564 0.984 . S
N559 H565 0.985 . S
C560 C554 1.379 1_556 S
C560 C557 1.363 . S
C560 N558 1.356 . S
C561 C555 1.363 . S
C561 C556 1.379 1_554 S
C561 N559 1.356 . S
N562 C554 1.356 . S
N562 H568 0.984 . S
N562 H569 0.984 . S
N563 C556 1.356 . S
N563 H566 0.984 . S
N563 H567 0.985 . S
H564 N559 0.984 . S
H565 N559 0.985 . S
H566 N563 0.984 . S
H567 N563 0.985 . S
H568 N562 0.984 . S
H569 N562 0.984 . S
H570 N558 0.984 . S
H571 N558 0.985 . S
C572 C573 1.363 . S
C572 C578 1.379 1_556 S
C572 N580 1.356 . S
C573 C572 1.363 . S
C573 C579 1.363 . S
C574 C575 1.363 . S
C574 C579 1.379 1_554 S
C574 N581 1.356 . S
C575 C574 1.363 . S
C575 C578 1.363 . S
N576 C578 1.356 . S
N576 H588 0.984 . S
N576 H589 0.985 . S
N577 C579 1.356 . S
N577 H582 0.984 . S
N577 H583 0.985 . S
C578 C572 1.379 1_554 S
C578 C575 1.363 . S
C578 N576 1.356 . S
C579 C573 1.363 . S
C579 C574 1.379 1_556 S
C579 N577 1.356 . S
N580 C572 1.356 . S
N580 H586 0.984 . S
N580 H587 0.984 . S
N581 C574 1.356 . S
N581 H584 0.984 . S
N581 H585 0.985 . S
H582 N577 0.984 . S
H583 N577 0.985 . S
H584 N581 0.984 . S
H585 N581 0.985 . S
H586 N580 0.984 . S
H587 N580 0.984 . S
H588 N576 0.984 . S
H589 N576 0.985 . S
C590 C591 1.363 . S
C590 C596 1.379 1_554 S
C590 N598 1.356 . S
C591 C590 1.363 . S
C591 C597 1.363 . S
C592 C593 1.363 . S
C592 C597 1.379 1_556 S
C592 N599 1.356 . S
C593 C592 1.363 . S
C593 C596 1.363 . S
N594 C596 1.356 . S
N594 H606 0.984 . S
N594 H607 0.985 . S
N595 C597 1.356 . S
N595 H600 0.984 . S
N595 H601 0.985 . S
C596 C590 1.379 1_556 S
C596 C593 1.363 . S
C596 N594 1.356 . S
C597 C591 1.363 . S
C597 C592 1.379 1_554 S
C597 N595 1.356 . S
N598 C590 1.356 . S
N598 H604 0.984 . S
N598 H605 0.984 . S
N599 C592 1.356 . S
N599 H602 0.984 . S
N599 H603 0.985 . S
H600 N595 0.984 . S
H601 N595 0.985 . S
H602 N599 0.984 . S
H603 N599 0.985 . S
H604 N598 0.984 . S
H605 N598 0.984 . S
H606 N594 0.984 . S
H607 N594 0.985 . S
C177 C175 1.437 . S
C179 C18 1.418 . S
C195 C40 1.418 . S
C197 C153 1.437 . S
C213 C117 1.445 . S
C215 C62 1.424 . S
C231 C74 1.424 . S
C233 C103 1.445 . S
C249 C81 1.437 . S
C251 C106 1.418 . S
C267 C65 1.437 . S
C269 C118 1.418 . S
C285 C37 1.445 . S
C287 C150 1.424 . S
C303 C15 1.445 . S
C305 C172 1.424 . S
C321 C43 1.664 . S
C323 C21 1.664 . S
C339 C73 1.668 . S
C341 C59 1.668 . S
C357 C109 1.664 . S
C359 C125 1.664 . S
C375 C169 1.668 . S
C377 C147 1.668 . S
C393 C84 1.470 . S
C395 C8 1.471 . S
C411 C54 1.471 . S
C413 C30 1.471 . S
C429 C96 1.471 . S
C431 C164 1.470 . S
C447 C120 1.471 . S
C449 C142 1.471 . S
C465 C140 1.821 . S
C467 C10 1.837 . S
C483 C32 1.837 . S
C485 C162 1.821 . S
C501 C98 1.837 . S
C503 C52 1.821 . S
C519 C128 1.837 . S
C521 C76 1.821 . S
C537 C7 1.173 . S
C539 C139 1.185 . S
C555 C161 1.185 . S
C557 C29 1.173 . S
C573 C51 1.185 . S
C575 C95 1.173 . S
C591 C87 1.185 . S
C593 C131 1.173 . S
