# Generated by pormake.
# Topology wio, (6)-cn, num edge types: 1
# Building blocks:
#     Node 0, Type 0, BuildingBlock: BETFEN_clean_sbu_0, # of connection points: 6
#     Node 1, Type 0, BuildingBlock: BETFEN_clean_sbu_0, # of connection points: 6
#     Node 2, Type 0, BuildingBlock: BETFEN_clean_sbu_0, # of connection points: 6
#     Node 3, Type 0, BuildingBlock: BETFEN_clean_sbu_0, # of connection points: 6
#     Node 4, Type 0, BuildingBlock: BETFEN_clean_sbu_0, # of connection points: 6
#     Node 5, Type 0, BuildingBlock: BETFEN_clean_sbu_0, # of connection points: 6
#     Node 6, Type 0, BuildingBlock: BETFEN_clean_sbu_0, # of connection points: 6
#     Node 7, Type 0, BuildingBlock: BETFEN_clean_sbu_0, # of connection points: 6
#     Node 8, Type 0, BuildingBlock: BETFEN_clean_sbu_0, # of connection points: 6
#     Node 9, Type 0, BuildingBlock: BETFEN_clean_sbu_0, # of connection points: 6
#     Node 10, Type 0, BuildingBlock: BETFEN_clean_sbu_0, # of connection points: 6
#     Node 11, Type 0, BuildingBlock: BETFEN_clean_sbu_0, # of connection points: 6
#     Node 12, Type 0, BuildingBlock: BETFEN_clean_sbu_0, # of connection points: 6
#     Node 13, Type 0, BuildingBlock: BETFEN_clean_sbu_0, # of connection points: 6
#     Node 14, Type 0, BuildingBlock: BETFEN_clean_sbu_0, # of connection points: 6
#     Node 15, Type 0, BuildingBlock: BETFEN_clean_sbu_0, # of connection points: 6
#     Node 16, Type 0, BuildingBlock: BETFEN_clean_sbu_0, # of connection points: 6
#     Node 17, Type 0, BuildingBlock: BETFEN_clean_sbu_0, # of connection points: 6
#     Node 18, Type 0, BuildingBlock: BETFEN_clean_sbu_0, # of connection points: 6
#     Node 19, Type 0, BuildingBlock: BETFEN_clean_sbu_0, # of connection points: 6
#     Node 20, Type 0, BuildingBlock: BETFEN_clean_sbu_0, # of connection points: 6
#     Node 21, Type 0, BuildingBlock: BETFEN_clean_sbu_0, # of connection points: 6
#     Node 22, Type 0, BuildingBlock: BETFEN_clean_sbu_0, # of connection points: 6
#     Node 23, Type 0, BuildingBlock: BETFEN_clean_sbu_0, # of connection points: 6
#     Node 24, Type 0, BuildingBlock: BETFEN_clean_sbu_0, # of connection points: 6
#     Node 25, Type 0, BuildingBlock: BETFEN_clean_sbu_0, # of connection points: 6
#     Node 26, Type 0, BuildingBlock: BETFEN_clean_sbu_0, # of connection points: 6
#     Node 27, Type 0, BuildingBlock: BETFEN_clean_sbu_0, # of connection points: 6
#     Node 28, Type 0, BuildingBlock: BETFEN_clean_sbu_0, # of connection points: 6
#     Node 29, Type 0, BuildingBlock: BETFEN_clean_sbu_0, # of connection points: 6
#     Node 30, Type 0, BuildingBlock: BETFEN_clean_sbu_0, # of connection points: 6
#     Node 31, Type 0, BuildingBlock: BETFEN_clean_sbu_0, # of connection points: 6
#     Edge 32, Type (0, 0), BuildingBlock: CIFDUS_clean_linker_0, # of connection points: 2
#     Edge 33, Type (0, 0), BuildingBlock: CIFDUS_clean_linker_0, # of connection points: 2
#     Edge 34, Type (0, 0), BuildingBlock: CIFDUS_clean_linker_0, # of connection points: 2
#     Edge 35, Type (0, 0), BuildingBlock: CIFDUS_clean_linker_0, # of connection points: 2
#     Edge 36, Type (0, 0), BuildingBlock: CIFDUS_clean_linker_0, # of connection points: 2
#     Edge 37, Type (0, 0), BuildingBlock: CIFDUS_clean_linker_0, # of connection points: 2
#     Edge 38, Type (0, 0), BuildingBlock: CIFDUS_clean_linker_0, # of connection points: 2
#     Edge 39, Type (0, 0), BuildingBlock: CIFDUS_clean_linker_0, # of connection points: 2
#     Edge 40, Type (0, 0), BuildingBlock: CIFDUS_clean_linker_0, # of connection points: 2
#     Edge 41, Type (0, 0), BuildingBlock: CIFDUS_clean_linker_0, # of connection points: 2
#     Edge 42, Type (0, 0), BuildingBlock: CIFDUS_clean_linker_0, # of connection points: 2
#     Edge 43, Type (0, 0), BuildingBlock: CIFDUS_clean_linker_0, # of connection points: 2
#     Edge 44, Type (0, 0), BuildingBlock: CIFDUS_clean_linker_0, # of connection points: 2
#     Edge 45, Type (0, 0), BuildingBlock: CIFDUS_clean_linker_0, # of connection points: 2
#     Edge 46, Type (0, 0), BuildingBlock: CIFDUS_clean_linker_0, # of connection points: 2
#     Edge 47, Type (0, 0), BuildingBlock: CIFDUS_clean_linker_0, # of connection points: 2
#     Edge 48, Type (0, 0), BuildingBlock: CIFDUS_clean_linker_0, # of connection points: 2
#     Edge 49, Type (0, 0), BuildingBlock: CIFDUS_clean_linker_0, # of connection points: 2
#     Edge 50, Type (0, 0), BuildingBlock: CIFDUS_clean_linker_0, # of connection points: 2
#     Edge 51, Type (0, 0), BuildingBlock: CIFDUS_clean_linker_0, # of connection points: 2
#     Edge 52, Type (0, 0), BuildingBlock: CIFDUS_clean_linker_0, # of connection points: 2
#     Edge 53, Type (0, 0), BuildingBlock: CIFDUS_clean_linker_0, # of connection points: 2
#     Edge 54, Type (0, 0), BuildingBlock: CIFDUS_clean_linker_0, # of connection points: 2
#     Edge 55, Type (0, 0), BuildingBlock: CIFDUS_clean_linker_0, # of connection points: 2
#     Edge 56, Type (0, 0), BuildingBlock: CIFDUS_clean_linker_0, # of connection points: 2
#     Edge 57, Type (0, 0), BuildingBlock: CIFDUS_clean_linker_0, # of connection points: 2
#     Edge 58, Type (0, 0), BuildingBlock: CIFDUS_clean_linker_0, # of connection points: 2
#     Edge 59, Type (0, 0), BuildingBlock: CIFDUS_clean_linker_0, # of connection points: 2
#     Edge 60, Type (0, 0), BuildingBlock: CIFDUS_clean_linker_0, # of connection points: 2
#     Edge 61, Type (0, 0), BuildingBlock: CIFDUS_clean_linker_0, # of connection points: 2
#     Edge 62, Type (0, 0), BuildingBlock: CIFDUS_clean_linker_0, # of connection points: 2
#     Edge 63, Type (0, 0), BuildingBlock: CIFDUS_clean_linker_0, # of connection points: 2
#     Edge 64, Type (0, 0), BuildingBlock: CIFDUS_clean_linker_0, # of connection points: 2
#     Edge 65, Type (0, 0), BuildingBlock: CIFDUS_clean_linker_0, # of connection points: 2
#     Edge 66, Type (0, 0), BuildingBlock: CIFDUS_clean_linker_0, # of connection points: 2
#     Edge 67, Type (0, 0), BuildingBlock: CIFDUS_clean_linker_0, # of connection points: 2
#     Edge 68, Type (0, 0), BuildingBlock: CIFDUS_clean_linker_0, # of connection points: 2
#     Edge 69, Type (0, 0), BuildingBlock: CIFDUS_clean_linker_0, # of connection points: 2
#     Edge 70, Type (0, 0), BuildingBlock: CIFDUS_clean_linker_0, # of connection points: 2
#     Edge 71, Type (0, 0), BuildingBlock: CIFDUS_clean_linker_0, # of connection points: 2
#     Edge 72, Type (0, 0), BuildingBlock: CIFDUS_clean_linker_0, # of connection points: 2
#     Edge 73, Type (0, 0), BuildingBlock: CIFDUS_clean_linker_0, # of connection points: 2
#     Edge 74, Type (0, 0), BuildingBlock: CIFDUS_clean_linker_0, # of connection points: 2
#     Edge 75, Type (0, 0), BuildingBlock: CIFDUS_clean_linker_0, # of connection points: 2
#     Edge 76, Type (0, 0), BuildingBlock: CIFDUS_clean_linker_0, # of connection points: 2
#     Edge 77, Type (0, 0), BuildingBlock: CIFDUS_clean_linker_0, # of connection points: 2
#     Edge 78, Type (0, 0), BuildingBlock: CIFDUS_clean_linker_0, # of connection points: 2
#     Edge 79, Type (0, 0), BuildingBlock: CIFDUS_clean_linker_0, # of connection points: 2
#     Edge 80, Type (0, 0), BuildingBlock: CIFDUS_clean_linker_0, # of connection points: 2
#     Edge 81, Type (0, 0), BuildingBlock: CIFDUS_clean_linker_0, # of connection points: 2
#     Edge 82, Type (0, 0), BuildingBlock: CIFDUS_clean_linker_0, # of connection points: 2
#     Edge 83, Type (0, 0), BuildingBlock: CIFDUS_clean_linker_0, # of connection points: 2
#     Edge 84, Type (0, 0), BuildingBlock: CIFDUS_clean_linker_0, # of connection points: 2
#     Edge 85, Type (0, 0), BuildingBlock: CIFDUS_clean_linker_0, # of connection points: 2
#     Edge 86, Type (0, 0), BuildingBlock: CIFDUS_clean_linker_0, # of connection points: 2
#     Edge 87, Type (0, 0), BuildingBlock: CIFDUS_clean_linker_0, # of connection points: 2
#     Edge 88, Type (0, 0), BuildingBlock: CIFDUS_clean_linker_0, # of connection points: 2
#     Edge 89, Type (0, 0), BuildingBlock: CIFDUS_clean_linker_0, # of connection points: 2
#     Edge 90, Type (0, 0), BuildingBlock: CIFDUS_clean_linker_0, # of connection points: 2
#     Edge 91, Type (0, 0), BuildingBlock: CIFDUS_clean_linker_0, # of connection points: 2
#     Edge 92, Type (0, 0), BuildingBlock: CIFDUS_clean_linker_0, # of connection points: 2
#     Edge 93, Type (0, 0), BuildingBlock: CIFDUS_clean_linker_0, # of connection points: 2
#     Edge 94, Type (0, 0), BuildingBlock: CIFDUS_clean_linker_0, # of connection points: 2
#     Edge 95, Type (0, 0), BuildingBlock: CIFDUS_clean_linker_0, # of connection points: 2
#     Edge 96, Type (0, 0), BuildingBlock: CIFDUS_clean_linker_0, # of connection points: 2
#     Edge 97, Type (0, 0), BuildingBlock: CIFDUS_clean_linker_0, # of connection points: 2
#     Edge 98, Type (0, 0), BuildingBlock: CIFDUS_clean_linker_0, # of connection points: 2
#     Edge 99, Type (0, 0), BuildingBlock: CIFDUS_clean_linker_0, # of connection points: 2
#     Edge 100, Type (0, 0), BuildingBlock: CIFDUS_clean_linker_0, # of connection points: 2
#     Edge 101, Type (0, 0), BuildingBlock: CIFDUS_clean_linker_0, # of connection points: 2
#     Edge 102, Type (0, 0), BuildingBlock: CIFDUS_clean_linker_0, # of connection points: 2
#     Edge 103, Type (0, 0), BuildingBlock: CIFDUS_clean_linker_0, # of connection points: 2
#     Edge 104, Type (0, 0), BuildingBlock: CIFDUS_clean_linker_0, # of connection points: 2
#     Edge 105, Type (0, 0), BuildingBlock: CIFDUS_clean_linker_0, # of connection points: 2
#     Edge 106, Type (0, 0), BuildingBlock: CIFDUS_clean_linker_0, # of connection points: 2
#     Edge 107, Type (0, 0), BuildingBlock: CIFDUS_clean_linker_0, # of connection points: 2
#     Edge 108, Type (0, 0), BuildingBlock: CIFDUS_clean_linker_0, # of connection points: 2
#     Edge 109, Type (0, 0), BuildingBlock: CIFDUS_clean_linker_0, # of connection points: 2
#     Edge 110, Type (0, 0), BuildingBlock: CIFDUS_clean_linker_0, # of connection points: 2
#     Edge 111, Type (0, 0), BuildingBlock: CIFDUS_clean_linker_0, # of connection points: 2
#     Edge 112, Type (0, 0), BuildingBlock: CIFDUS_clean_linker_0, # of connection points: 2
#     Edge 113, Type (0, 0), BuildingBlock: CIFDUS_clean_linker_0, # of connection points: 2
#     Edge 114, Type (0, 0), BuildingBlock: CIFDUS_clean_linker_0, # of connection points: 2
#     Edge 115, Type (0, 0), BuildingBlock: CIFDUS_clean_linker_0, # of connection points: 2
#     Edge 116, Type (0, 0), BuildingBlock: CIFDUS_clean_linker_0, # of connection points: 2
#     Edge 117, Type (0, 0), BuildingBlock: CIFDUS_clean_linker_0, # of connection points: 2
#     Edge 118, Type (0, 0), BuildingBlock: CIFDUS_clean_linker_0, # of connection points: 2
#     Edge 119, Type (0, 0), BuildingBlock: CIFDUS_clean_linker_0, # of connection points: 2
#     Edge 120, Type (0, 0), BuildingBlock: CIFDUS_clean_linker_0, # of connection points: 2
#     Edge 121, Type (0, 0), BuildingBlock: CIFDUS_clean_linker_0, # of connection points: 2
#     Edge 122, Type (0, 0), BuildingBlock: CIFDUS_clean_linker_0, # of connection points: 2
#     Edge 123, Type (0, 0), BuildingBlock: CIFDUS_clean_linker_0, # of connection points: 2
#     Edge 124, Type (0, 0), BuildingBlock: CIFDUS_clean_linker_0, # of connection points: 2
#     Edge 125, Type (0, 0), BuildingBlock: CIFDUS_clean_linker_0, # of connection points: 2
#     Edge 126, Type (0, 0), BuildingBlock: CIFDUS_clean_linker_0, # of connection points: 2
#     Edge 127, Type (0, 0), BuildingBlock: CIFDUS_clean_linker_0, # of connection points: 2
# Relax obj value: 0.209
# Max RMSD: 0.240
# Mean RMSD: 0.240
data_MOF--net-wio--node1-BETFEN_clean_sbu_0--edge1-CIFDUS_clean_linker_0
_symmetry_space_group_name_H-M    P1
_symmetry_Int_Tables_number       1
_symmetry_cell_setting            triclinic
loop_
_symmetry_equiv_pos_as_xyz
'x, y, z'
_cell_length_a     56.362773
_cell_length_b     56.329058
_cell_length_c     49.747961
_cell_angle_alpha  89.924146
_cell_angle_beta   90.037408
_cell_angle_gamma 89.959924
loop_
_atom_site_label
_atom_site_type_symbol
_atom_site_fract_x
_atom_site_fract_y
_atom_site_fract_z
_atom_type_partial_charge
Pr0 Pr 0.15948 0.11868 0.28275 0.0
Pr1 Pr 0.10279 0.12069 0.29145 0.0
C2 C 0.20309 0.10325 0.26966 0.0
C3 C 0.22057 0.10383 0.24765 0.0
C4 C 0.23769 0.1219 0.24641 0.0
C5 C 0.25472 0.12186 0.22612 0.0
C6 C 0.25505 0.1037 0.20678 0.0
C7 C 0.23808 0.08555 0.20809 0.0
C8 C 0.22101 0.08559 0.22837 0.0
C9 C 0.14604 0.16242 0.30639 0.0
C10 C 0.1242 0.13512 0.23123 0.0
C11 C 0.05908 0.12889 0.31147 0.0
C12 C 0.04361 0.12509 0.33528 0.0
C13 C 0.02622 0.10726 0.33454 0.0
C14 C 0.00899 0.10574 0.35463 0.0
C15 C 0.00843 0.12222 0.37587 0.0
C16 C 0.02678 0.13905 0.37768 0.0
C17 C 0.04417 0.14053 0.35753 0.0
C18 C 0.12034 0.07859 0.26938 0.0
C19 C 0.13852 0.0984 0.34021 0.0
O20 O 0.18378 0.09087 0.26556 0.0
O21 O 0.19937 0.12289 0.28309 0.0
O22 O 0.13317 0.14583 0.29783 0.0
O23 O 0.16793 0.15707 0.30084 0.0
O24 O 0.10583 0.13761 0.2478 0.0
O25 O 0.14501 0.12703 0.23961 0.0
O26 O 0.07643 0.1443 0.31317 0.0
O27 O 0.06434 0.11036 0.29676 0.0
O28 O 0.12988 0.09054 0.28796 0.0
O29 O 0.10055 0.08847 0.26166 0.0
O30 O 0.15737 0.10187 0.32505 0.0
O31 O 0.11673 0.10424 0.33239 0.0
H32 H 0.23806 0.13599 0.2612 0.0
H33 H 0.26781 0.13594 0.22571 0.0
H34 H 0.23783 0.0715 0.19325 0.0
H35 H 0.2082 0.07128 0.22897 0.0
H36 H 0.02526 0.09504 0.31778 0.0
H37 H 0.99546 0.09218 0.35292 0.0
H38 H 0.02692 0.15198 0.39378 0.0
H39 H 0.05738 0.15443 0.35881 0.0
Pr40 Pr 0.14741 0.90634 0.53443 0.0
Pr41 Pr 0.1428 0.85404 0.53984 0.0
C42 C 0.15338 0.95219 0.52051 0.0
C43 C 0.14864 0.96842 0.4978 0.0
C44 C 0.12975 0.98462 0.49951 0.0
C45 C 0.12527 1.00052 0.47861 0.0
C46 C 0.13977 1.00074 0.4557 0.0
C47 C 0.15871 0.98459 0.45392 0.0
C48 C 0.16309 0.96851 0.47476 0.0
C49 C 0.10804 0.89306 0.56448 0.0
C50 C 0.1296 0.87456 0.48074 0.0
C51 C 0.13236 0.81051 0.55977 0.0
C52 C 0.13686 0.79478 0.58332 0.0
C53 C 0.15937 0.78495 0.58828 0.0
C54 C 0.16257 0.76807 0.60872 0.0
C55 C 0.14331 0.76038 0.62463 0.0
C56 C 0.12109 0.7712 0.62054 0.0
C57 C 0.11792 0.78813 0.60013 0.0
C58 C 0.187 0.86838 0.51851 0.0
C59 C 0.16961 0.88454 0.58902 0.0
O60 O 0.16993 0.93609 0.51753 0.0
O61 O 0.1349 0.9444 0.53366 0.0
O62 O 0.11388 0.88319 0.54242 0.0
O63 O 0.12258 0.90986 0.57104 0.0
O64 O 0.12597 0.85622 0.49675 0.0
O65 O 0.13913 0.89431 0.49008 0.0
O66 O 0.11902 0.82918 0.56361 0.0
O67 O 0.14967 0.81441 0.54282 0.0
O68 O 0.17606 0.87787 0.53765 0.0
O69 O 0.17533 0.84992 0.50999 0.0
O70 O 0.17073 0.90291 0.57267 0.0
O71 O 0.1582 0.86499 0.58216 0.0
H72 H 0.1185 0.98516 0.51715 0.0
H73 H 0.11077 0.01303 0.48063 0.0
H74 H 0.17009 0.98436 0.43637 0.0
H75 H 0.17785 0.95631 0.47287 0.0
H76 H 0.17445 0.7898 0.57595 0.0
H77 H 0.1801 0.76063 0.61161 0.0
H78 H 0.10581 0.76577 0.6322 0.0
H79 H 0.10037 0.79544 0.59686 0.0
Pr80 Pr 0.35595 0.89448 0.78521 0.0
Pr81 Pr 0.41317 0.89403 0.7935 0.0
C82 C 0.31223 0.90918 0.77145 0.0
C83 C 0.29463 0.90721 0.74958 0.0
C84 C 0.27702 0.88954 0.75013 0.0
C85 C 0.25973 0.88866 0.73002 0.0
C86 C 0.2596 0.9056 0.70929 0.0
C87 C 0.27724 0.92311 0.70863 0.0
C88 C 0.29458 0.92393 0.72857 0.0
C89 C 0.37023 0.85171 0.81002 0.0
C90 C 0.39109 0.87818 0.73328 0.0
C91 C 0.45751 0.88758 0.81316 0.0
C92 C 0.47171 0.88825 0.83837 0.0
C93 C 0.49417 0.89905 0.83814 0.0
C94 C 0.50873 0.89864 0.86103 0.0
C95 C 0.50124 0.88732 0.88481 0.0
C96 C 0.47836 0.87715 0.88523 0.0
C97 C 0.46376 0.87764 0.86231 0.0
C98 C 0.39406 0.93622 0.77288 0.0
C99 C 0.37725 0.91433 0.84295 0.0
O100 O 0.33158 0.92113 0.76602 0.0
O101 O 0.31596 0.89057 0.78673 0.0
O102 O 0.3831 0.86842 0.80151 0.0
O103 O 0.34829 0.85628 0.80373 0.0
O104 O 0.41029 0.87853 0.74896 0.0
O105 O 0.36973 0.88409 0.74215 0.0
O106 O 0.44226 0.87022 0.80994 0.0
O107 O 0.44995 0.90786 0.80359 0.0
O108 O 0.38487 0.92301 0.79053 0.0
O109 O 0.41439 0.92744 0.76522 0.0
O110 O 0.35842 0.9124 0.82731 0.0
O111 O 0.39887 0.90787 0.83537 0.0
H112 H 0.27642 0.87659 0.76623 0.0
H113 H 0.24615 0.87508 0.73099 0.0
H114 H 0.27763 0.93619 0.69264 0.0
H115 H 0.30778 0.93787 0.72765 0.0
H116 H 0.50072 0.9074 0.81997 0.0
H117 H 0.52622 0.90649 0.85975 0.0
H118 H 0.47175 0.86866 0.90326 0.0
H119 H 0.44641 0.86941 0.86323 0.0
Pr120 Pr 0.36812 0.11003 0.03059 0.0
Pr121 Pr 0.36816 0.16396 0.0392 0.0
C122 C 0.35961 0.06362 1.02107 0.0
C123 C 0.36247 0.04725 0.99806 0.0
C124 C 0.3716 0.02434 1.00209 0.0
C125 C 0.37409 0.00867 0.98041 0.0
C126 C 0.36746 0.01564 0.95426 0.0
C127 C 0.35825 0.0386 0.95037 0.0
C128 C 0.35589 0.05426 0.97197 0.0
C129 C 0.4111 0.12759 0.05259 0.0
C130 C 0.38272 0.14411 0.97914 0.0
C131 C 0.37344 0.20851 0.05891 0.0
C132 C 0.37398 0.22255 0.08428 0.0
C133 C 0.36257 0.24472 0.08509 0.0
C134 C 0.36372 0.25907 0.10811 0.0
C135 C 0.3764 0.25168 0.13106 0.0
C136 C 0.38736 0.22913 0.13043 0.0
C137 C 0.38613 0.21473 0.10736 0.0
C138 C 0.3268 0.14665 1.01399 0.0
C139 C 0.34458 0.13013 0.08699 0.0
O140 O 0.34368 0.08031 1.01827 0.0
O141 O 0.37894 0.07107 0.03291 0.0
O142 O 0.39034 0.134 0.05862 0.0
O143 O 0.4099 0.11214 0.03327 0.0
O144 O 0.38663 0.1614 0.99664 0.0
O145 O 0.37293 0.1239 0.98655 0.0
O146 O 0.39135 0.1944 0.05357 0.0
O147 O 0.353 0.19973 0.05147 0.0
O148 O 0.33796 0.13726 0.03312 0.0
O149 O 0.3372 0.16636 1.00708 0.0
O150 O 0.34923 0.11097 0.07259 0.0
O151 O 0.35101 0.15156 0.07921 0.0
H152 H 0.37687 0.01858 1.02201 0.0
H153 H 0.38156 0.99124 0.98406 0.0
H154 H 0.35266 0.04447 0.93061 0.0
H155 H 0.34883 0.07185 0.9682 0.0
H156 H 0.35306 0.2512 0.06762 0.0
H157 H 0.35525 0.27632 0.10757 0.0
H158 H 0.39696 0.2226 0.14778 0.0
H159 H 0.3949 0.19762 0.10749 0.0
Pr160 Pr 0.15955 0.89557 0.2651 0.0
Pr161 Pr 0.1077 0.89373 0.25919 0.0
C162 C 0.20567 0.89734 0.27899 0.0
C163 C 0.22121 0.89963 0.30237 0.0
C164 C 0.24544 0.89513 0.29919 0.0
C165 C 0.26062 0.89606 0.32125 0.0
C166 C 0.25177 0.9014 0.34696 0.0
C167 C 0.2274 0.9062 0.35003 0.0
C168 C 0.21218 0.90527 0.32784 0.0
C169 C 0.14512 0.8567 0.23463 0.0
C170 C 0.12692 0.88593 0.31983 0.0
C171 C 0.06348 0.88497 0.24002 0.0
C172 C 0.04754 0.88873 0.21645 0.0
C173 C 0.03695 0.9109 0.21139 0.0
C174 C 0.01973 0.91341 0.19124 0.0
C175 C 0.01237 0.89379 0.17573 0.0
C176 C 0.02382 0.87189 0.17997 0.0
C177 C 0.04113 0.8694 0.20009 0.0
C178 C 0.1231 0.93737 0.28027 0.0
C179 C 0.1409 0.91773 0.20968 0.0
O180 O 0.19349 0.91611 0.27191 0.0
O181 O 0.19365 0.87757 0.27733 0.0
O182 O 0.13491 0.86298 0.25637 0.0
O183 O 0.16266 0.87051 0.22879 0.0
O184 O 0.10918 0.87959 0.30401 0.0
O185 O 0.14639 0.89503 0.30958 0.0
O186 O 0.08122 0.87023 0.23731 0.0
O187 O 0.06868 0.90313 0.25523 0.0
O188 O 0.1328 0.92618 0.2613 0.0
O189 O 0.10445 0.92611 0.28893 0.0
O190 O 0.15941 0.91684 0.22567 0.0
O191 O 0.11996 0.90934 0.21707 0.0
H192 H 0.2526 0.8907 0.27961 0.0
H193 H 0.27934 0.89267 0.31815 0.0
H194 H 0.22004 0.91016 0.36963 0.0
H195 H 0.19341 0.90864 0.33058 0.0
H196 H 0.04147 0.92623 0.22347 0.0
H197 H 0.01178 0.93072 0.18824 0.0
H198 H 0.01863 0.85633 0.16866 0.0
H199 H 0.04889 0.85206 0.20351 0.0
Pr200 Pr 0.36717 0.90681 0.51953 0.0
Pr201 Pr 0.37075 0.85042 0.5131 0.0
C202 C 0.35145 0.95009 0.53342 0.0
C203 C 0.35699 0.96975 0.55193 0.0
C204 C 0.37647 0.98493 0.54777 0.0
C205 C 0.38116 1.00336 0.56585 0.0
C206 C 0.36648 1.00685 0.58833 0.0
C207 C 0.34685 0.99185 0.59213 0.0
C208 C 0.34217 0.97355 0.57414 0.0
C209 C 0.41084 0.89538 0.49481 0.0
C210 C 0.38673 0.87408 0.5721 0.0
C211 C 0.37732 0.80591 0.49402 0.0
C212 C 0.37727 0.79224 0.46847 0.0
C213 C 0.36778 0.76921 0.46823 0.0
C214 C 0.3682 0.75542 0.44478 0.0
C215 C 0.37817 0.76429 0.42084 0.0
C216 C 0.38712 0.7877 0.42095 0.0
C217 C 0.38662 0.80153 0.44447 0.0
C218 C 0.32805 0.86727 0.53483 0.0
C219 C 0.3473 0.8838 0.4634 0.0
O220 O 0.3439 0.93042 0.54463 0.0
O221 O 0.36549 0.94654 0.51279 0.0
O222 O 0.39511 0.88123 0.50315 0.0
O223 O 0.40457 0.91693 0.50084 0.0
O224 O 0.38712 0.85449 0.55711 0.0
O225 O 0.37949 0.89476 0.56253 0.0
O226 O 0.3948 0.82078 0.49841 0.0
O227 O 0.35685 0.81382 0.50248 0.0
O228 O 0.33963 0.87658 0.51585 0.0
O229 O 0.339 0.84844 0.54367 0.0
O230 O 0.34662 0.90225 0.47963 0.0
O231 O 0.35762 0.86353 0.47033 0.0
H232 H 0.38815 0.98251 0.53072 0.0
H233 H 0.39647 0.01458 0.56251 0.0
H234 H 0.33493 0.99435 0.60896 0.0
H235 H 0.32687 0.96232 0.57763 0.0
H236 H 0.36033 0.76168 0.48642 0.0
H237 H 0.36132 0.73749 0.4457 0.0
H238 H 0.39455 0.79535 0.40285 0.0
H239 H 0.39373 0.81939 0.44392 0.0
Pr240 Pr 0.35969 0.11867 0.76841 0.0
Pr241 Pr 0.4111 0.12146 0.7577 0.0
C242 C 0.31397 0.11428 0.78338 0.0
C243 C 0.29812 0.11832 0.80645 0.0
C244 C 0.2818 0.13717 0.80554 0.0
C245 C 0.2662 0.14097 0.82682 0.0
C246 C 0.2664 0.12575 0.84909 0.0
C247 C 0.28248 0.10678 0.85006 0.0
C248 C 0.29836 0.10315 0.82894 0.0
C249 C 0.37214 0.15699 0.73586 0.0
C250 C 0.39477 0.13368 0.81962 0.0
C251 C 0.45466 0.12981 0.7363 0.0
C252 C 0.46926 0.12792 0.71142 0.0
C253 C 0.49084 0.11541 0.7122 0.0
C254 C 0.50584 0.11467 0.6897 0.0
C255 C 0.49963 0.12639 0.66569 0.0
C256 C 0.47777 0.13858 0.66477 0.0
C257 C 0.46281 0.13941 0.68736 0.0
C258 C 0.39878 0.07778 0.78151 0.0
C259 C 0.37662 0.09384 0.71337 0.0
O260 O 0.32937 0.09697 0.78509 0.0
O261 O 0.32239 0.13312 0.77139 0.0
O262 O 0.38307 0.15139 0.7573 0.0
O263 O 0.35507 0.14236 0.73061 0.0
O264 O 0.41255 0.13543 0.80238 0.0
O265 O 0.37357 0.12669 0.81189 0.0
O266 O 0.43777 0.14573 0.73725 0.0
O267 O 0.44904 0.11018 0.7487 0.0
O268 O 0.38696 0.08858 0.7638 0.0
O269 O 0.41722 0.09035 0.78818 0.0
O270 O 0.36084 0.09265 0.73274 0.0
O271 O 0.39605 0.10672 0.71623 0.0
H272 H 0.28099 0.14888 0.78827 0.0
H273 H 0.25362 0.15549 0.82565 0.0
H274 H 0.28274 0.09484 0.86716 0.0
H275 H 0.31063 0.08838 0.83015 0.0
H276 H 0.4963 0.1064 0.73044 0.0
H277 H 0.52229 0.10479 0.69107 0.0
H278 H 0.47243 0.14794 0.64673 0.0
H279 H 0.44636 0.14928 0.68604 0.0
Pr280 Pr 0.14358 0.10667 1.01404 0.0
Pr281 Pr 0.14131 0.15821 1.00932 0.0
C282 C 0.14611 0.06034 0.02698 0.0
C283 C 0.146 0.04495 0.05066 0.0
C284 C 0.13636 0.02215 0.0483 0.0
C285 C 0.13474 1.00748 0.07076 0.0
C286 C 0.1426 0.01553 0.09584 0.0
C287 C 0.15241 0.03829 0.09832 0.0
C288 C 0.15414 0.053 0.07574 0.0
C289 C 0.10374 0.12201 0.98565 0.0
C290 C 0.13335 0.13819 0.06969 0.0
C291 C 0.13235 0.20246 0.99008 0.0
C292 C 0.13685 0.21802 0.96625 0.0
C293 C 0.15777 0.23151 0.96417 0.0
C294 C 0.16122 0.24717 0.94257 0.0
C295 C 0.14383 0.24991 0.9224 0.0
C296 C 0.12294 0.23635 0.92447 0.0
C297 C 0.11949 0.22067 0.94609 0.0
C298 C 0.18558 0.14338 0.02902 0.0
C299 C 0.16518 0.12566 0.9589 0.0
O300 O 0.16486 0.07359 1.02318 0.0
O301 O 0.12618 0.07126 1.02184 0.0
O302 O 0.11057 0.13105 1.00775 0.0
O303 O 0.11765 0.10517 0.97777 0.0
O304 O 0.12745 0.15636 0.05422 0.0
O305 O 0.14228 0.11878 0.05901 0.0
O306 O 0.1179 0.18453 0.98701 0.0
O307 O 0.15009 0.19751 1.00607 0.0
O308 O 0.17423 0.13359 1.01016 0.0
O309 O 0.17382 0.16133 0.0387 0.0
O310 O 0.16451 0.10703 0.97466 0.0
O311 O 0.15661 0.14645 0.96671 0.0
H312 H 0.12977 0.01583 0.02912 0.0
H313 H 0.12699 0.98997 0.06868 0.0
H314 H 0.15857 0.04466 0.11764 0.0
H315 H 0.16148 0.07067 0.0779 0.0
H316 H 0.17141 0.23025 0.97944 0.0
H317 H 0.1774 0.25751 0.94199 0.0
H318 H 0.10926 0.2377 0.90925 0.0
H319 H 0.10306 0.21074 0.94711 0.0
Pr320 Pr 0.91027 0.89221 0.75818 0.0
Pr321 Pr 0.85631 0.89415 0.76926 0.0
C322 C 0.95168 0.87708 0.73668 0.0
C323 C 0.96809 0.88224 0.71396 0.0
C324 C 0.9813 0.90339 0.71299 0.0
C325 C 0.99869 0.90675 0.69325 0.0
C326 C 1.00356 0.889 0.67405 0.0
C327 C 0.98938 0.86844 0.67412 0.0
C328 C 0.9719 0.8651 0.69387 0.0
C329 C 0.9015 0.93751 0.77814 0.0
C330 C 0.87594 0.92111 0.71467 0.0
C331 C 0.80974 0.90154 0.77776 0.0
C332 C 0.79385 0.90245 0.80122 0.0
C333 C 0.77602 0.88528 0.80391 0.0
C334 C 0.7614 0.88508 0.82648 0.0
C335 C 0.76404 0.90232 0.84668 0.0
C336 C 0.78183 0.91965 0.84386 0.0
C337 C 0.79668 0.91965 0.82141 0.0
C338 C 0.87277 0.85145 0.74605 0.0
C339 C 0.8907 0.88259 0.82053 0.0
O340 O 0.93119 0.86742 0.73098 0.0
O341 O 0.95041 0.89247 0.7563 0.0
O342 O 0.88579 0.92166 0.77482 0.0
O343 O 0.92249 0.92979 0.7719 0.0
O344 O 0.85741 0.91482 0.7291 0.0
O345 O 0.89783 0.91455 0.72087 0.0
O346 O 0.82501 0.9188 0.77483 0.0
O347 O 0.81863 0.88073 0.77212 0.0
O348 O 0.87866 0.87227 0.73965 0.0
O349 O 0.85832 0.8524 0.76633 0.0
O350 O 0.90731 0.87641 0.80285 0.0
O351 O 0.87068 0.89246 0.81277 0.0
H352 H 0.9787 0.91713 0.72791 0.0
H353 H 0.00877 0.92311 0.69349 0.0
H354 H 0.99255 0.85436 0.65978 0.0
H355 H 0.96193 0.84867 0.69401 0.0
H356 H 0.77361 0.87175 0.78868 0.0
H357 H 0.74825 0.87116 0.82823 0.0
H358 H 0.78419 0.93335 0.85888 0.0
H359 H 0.81037 0.93307 0.81996 0.0
Pr360 Pr 0.87213 0.16258 0.51096 0.0
Pr361 Pr 0.86689 0.11011 0.51713 0.0
C362 C 0.88164 0.20641 0.49099 0.0
C363 C 0.87916 0.22099 0.46607 0.0
C364 C 0.86638 0.24243 0.46682 0.0
C365 C 0.86534 0.25737 0.44423 0.0
C366 C 0.87704 0.25126 0.42021 0.0
C367 C 0.88937 0.2295 0.41929 0.0
C368 C 0.89047 0.2146 0.44191 0.0
C369 C 0.8285 0.14933 0.53414 0.0
C370 C 0.84452 0.13147 0.46302 0.0
C371 C 0.86109 0.06413 0.5306 0.0
C372 C 0.86558 0.04755 0.55294 0.0
C373 C 0.87998 0.02763 0.54838 0.0
C374 C 0.88445 0.01146 0.56902 0.0
C375 C 0.87444 0.01481 0.59455 0.0
C376 C 0.85998 0.03475 0.59915 0.0
C377 C 0.85566 0.05106 0.57854 0.0
C378 C 0.90593 0.12321 0.48658 0.0
C379 C 0.88539 0.14216 0.57006 0.0
O380 O 0.89687 0.18887 0.49084 0.0
O381 O 0.86243 0.20147 0.50456 0.0
O382 O 0.83858 0.13915 0.51475 0.0
O383 O 0.84117 0.1672 0.54248 0.0
O384 O 0.84216 0.1141 0.48045 0.0
O385 O 0.85733 0.15047 0.46856 0.0
O386 O 0.84452 0.08018 0.53374 0.0
O387 O 0.87975 0.0721 0.51794 0.0
O388 O 0.90045 0.13295 0.50874 0.0
O389 O 0.89104 0.1068 0.47978 0.0
O390 O 0.88956 0.1603 0.55389 0.0
O391 O 0.87523 0.12263 0.56103 0.0
H392 H 0.85744 0.24784 0.48509 0.0
H393 H 0.85532 0.27374 0.44558 0.0
H394 H 0.89871 0.22424 0.40124 0.0
H395 H 0.90052 0.19824 0.44055 0.0
H396 H 0.88771 0.02452 0.52876 0.0
H397 H 0.89541 0.99608 0.56486 0.0
H398 H 0.85219 0.03781 0.61875 0.0
H399 H 0.84457 0.06634 0.58266 0.0
Pr400 Pr 0.60062 0.11774 0.25831 0.0
Pr401 Pr 0.65703 0.11745 0.26923 0.0
C402 C 0.55634 0.12405 0.23832 0.0
C403 C 0.54209 0.12448 0.21326 0.0
C404 C 0.51757 0.12066 0.2149 0.0
C405 C 0.50331 0.1214 0.19184 0.0
C406 C 0.5132 0.12572 0.16624 0.0
C407 C 0.53804 0.12908 0.16468 0.0
C408 C 0.55229 0.12854 0.18792 0.0
C409 C 0.61917 0.07573 0.2802 0.0
C410 C 0.63785 0.09793 0.21043 0.0
C411 C 0.70088 0.10354 0.28342 0.0
C412 C 0.71971 0.10844 0.30318 0.0
C413 C 0.74195 0.11642 0.29429 0.0
C414 C 0.76052 0.11954 0.31254 0.0
C415 C 0.7571 0.11471 0.33995 0.0
C416 C 0.73474 0.10708 0.34889 0.0
C417 C 0.7162 0.10396 0.33069 0.0
C418 C 0.64395 0.16132 0.24619 0.0
C419 C 0.62011 0.131 0.32009 0.0
O420 O 0.5711 0.14158 0.24278 0.0
O421 O 0.56458 0.10346 0.24612 0.0
O422 O 0.62881 0.08858 0.26253 0.0
O423 O 0.59843 0.08432 0.28643 0.0
O424 O 0.65584 0.09946 0.22732 0.0
O425 O 0.61611 0.10505 0.21667 0.0
O426 O 0.68149 0.09344 0.29239 0.0
O427 O 0.69701 0.11956 0.26481 0.0
O428 O 0.63043 0.14433 0.25246 0.0
O429 O 0.66539 0.15632 0.25398 0.0
O430 O 0.60169 0.13165 0.30334 0.0
O431 O 0.64177 0.12532 0.3122 0.0
H432 H 0.50932 0.11738 0.23422 0.0
H433 H 0.48439 0.11914 0.19436 0.0
H434 H 0.54659 0.132 0.1455 0.0
H435 H 0.57125 0.13132 0.1861 0.0
H436 H 0.74506 0.11994 0.27317 0.0
H437 H 0.77754 0.12571 0.30524 0.0
H438 H 0.73173 0.10302 0.36991 0.0
H439 H 0.69929 0.0977 0.33818 0.0
Pr440 Pr 0.64458 0.85504 1.0095 0.0
Pr441 Pr 0.64624 0.90843 1.01787 0.0
C442 C 0.63861 0.81014 0.99121 0.0
C443 C 0.64165 0.79456 0.96727 0.0
C444 C 0.65902 0.77673 0.96816 0.0
C445 C 0.66192 0.7609 0.94683 0.0
C446 C 0.64768 0.76241 0.92357 0.0
C447 C 0.63017 0.78034 0.92264 0.0
C448 C 0.62715 0.7962 0.94427 0.0
C449 C 0.68787 0.87131 0.03113 0.0
C450 C 0.66608 0.88876 0.96012 0.0
C451 C 0.65555 0.95456 0.0272 0.0
C452 C 0.65063 0.97196 0.04878 0.0
C453 C 0.63016 0.9862 0.0481 0.0
C454 C 0.62553 1.00231 0.06879 0.0
C455 C 0.64133 1.00462 0.0905 0.0
C456 C 0.66187 0.99049 0.0911 0.0
C457 C 0.66651 0.97442 0.07044 0.0
C458 C 0.60142 0.89183 1.00009 0.0
C459 C 0.63431 0.87501 0.07022 0.0
O460 O 0.62138 0.82577 0.99173 0.0
O461 O 0.658 0.81776 1.00268 0.0
O462 O 0.67593 0.88108 1.01286 0.0
O463 O 0.67756 0.85176 0.03854 0.0
O464 O 0.66397 0.90741 0.97586 0.0
O465 O 0.65933 0.86727 0.96752 0.0
O466 O 0.67014 0.93734 0.03333 0.0
O467 O 0.63775 0.94755 1.01225 0.0
O468 O 0.62146 0.88507 0.99197 0.0
O469 O 0.60441 0.90723 1.01924 0.0
O470 O 0.62722 0.85849 0.05303 0.0
O471 O 0.64535 0.89413 0.06166 0.0
H472 H 0.67026 0.77474 0.9857 0.0
H473 H 0.67512 0.74708 0.94903 0.0
H474 H 0.6189 0.78231 0.90516 0.0
H475 H 0.61345 0.80964 0.94299 0.0
H476 H 0.61769 0.98491 0.03159 0.0
H477 H 0.60973 0.01322 0.06759 0.0
H478 H 0.67426 0.99167 0.10769 0.0
H479 H 0.68254 0.96384 0.07155 0.0
Pr480 Pr 0.90633 0.12137 0.79127 0.0
Pr481 Pr 0.85353 0.11934 0.78699 0.0
C482 C 0.9513 0.12862 0.80915 0.0
C483 C 0.96716 0.12696 0.83313 0.0
C484 C 0.98787 0.11313 0.8315 0.0
C485 C 1.00475 0.11343 0.8522 0.0
C486 C 1.00128 0.1274 0.87525 0.0
C487 C 0.98006 0.14038 0.87762 0.0
C488 C 0.96318 0.14026 0.85671 0.0
C489 C 0.88981 0.07784 0.77023 0.0
C490 C 0.87444 0.09729 0.84103 0.0
C491 C 0.80728 0.11692 0.77399 0.0
C492 C 0.79255 0.11653 0.74967 0.0
C493 C 0.7718 0.13016 0.74905 0.0
C494 C 0.75769 0.13065 0.72606 0.0
C495 C 0.76394 0.11729 0.70326 0.0
C496 C 0.78493 0.10374 0.70388 0.0
C497 C 0.7992 0.10346 0.72687 0.0
C498 C 0.86927 0.15742 0.81745 0.0
C499 C 0.88499 0.13001 0.73128 0.0
O500 O 0.93513 0.14529 0.80835 0.0
O501 O 0.94425 0.10885 0.79808 0.0
O502 O 0.88071 0.08929 0.7893 0.0
O503 O 0.90896 0.08851 0.76205 0.0
O504 O 0.85674 0.09529 0.82401 0.0
O505 O 0.89388 0.1092 0.83478 0.0
O506 O 0.82026 0.09816 0.77897 0.0
O507 O 0.81818 0.13691 0.77891 0.0
O508 O 0.87856 0.15157 0.79506 0.0
O509 O 0.85185 0.14362 0.82399 0.0
O510 O 0.90393 0.13488 0.74605 0.0
O511 O 0.86539 0.12225 0.74257 0.0
H512 H 0.99147 0.10272 0.81366 0.0
H513 H 0.02097 0.10331 0.84982 0.0
H514 H 0.97706 0.15149 0.89505 0.0
H515 H 0.94743 0.15113 0.85867 0.0
H516 H 0.7666 0.14062 0.76635 0.0
H517 H 0.74201 0.14177 0.72608 0.0
H518 H 0.79021 0.09314 0.68674 0.0
H519 H 0.81536 0.09303 0.72681 0.0
Pr520 Pr 0.64437 0.16303 0.54129 0.0
Pr521 Pr 0.64656 0.10617 0.53128 0.0
C522 C 0.63628 0.20683 0.56121 0.0
C523 C 0.63986 0.22134 0.58581 0.0
C524 C 0.65942 0.23673 0.58757 0.0
C525 C 0.6622 0.25177 0.60966 0.0
C526 C 0.64551 0.25189 0.63072 0.0
C527 C 0.62606 0.23628 0.62912 0.0
C528 C 0.62324 0.22123 0.6069 0.0
C529 C 0.68756 0.14539 0.52112 0.0
C530 C 0.66552 0.12686 0.58947 0.0
C531 C 0.66063 0.0631 0.51521 0.0
C532 C 0.65392 0.04523 0.49504 0.0
C533 C 0.63443 0.03005 0.49897 0.0
C534 C 0.62856 0.01319 0.47953 0.0
C535 C 0.64211 0.01123 0.45597 0.0
C536 C 0.6614 0.0266 0.45198 0.0
C537 C 0.66734 0.0433 0.4714 0.0
C538 C 0.60245 0.11951 0.5542 0.0
C539 C 0.63023 0.14256 0.48037 0.0
O540 O 0.62036 0.18987 0.56174 0.0
O541 O 0.6552 0.20121 0.54738 0.0
O542 O 0.67439 0.13548 0.53823 0.0
O543 O 0.67885 0.16609 0.51486 0.0
O544 O 0.66625 0.10911 0.57221 0.0
O545 O 0.65658 0.14799 0.58347 0.0
O546 O 0.66961 0.08287 0.5057 0.0
O547 O 0.64641 0.06625 0.53578 0.0
O548 O 0.61892 0.1323 0.54506 0.0
O549 O 0.60822 0.09757 0.54935 0.0
O550 O 0.62908 0.16101 0.497 0.0
O551 O 0.63707 0.1212 0.48843 0.0
H552 H 0.67241 0.23754 0.57155 0.0
H553 H 0.67716 0.26381 0.60978 0.0
H554 H 0.61298 0.23565 0.64503 0.0
H555 H 0.60787 0.20972 0.60613 0.0
H556 H 0.62381 0.03106 0.51707 0.0
H557 H 0.61376 1.00136 0.48319 0.0
H558 H 0.67195 0.02572 0.43381 0.0
H559 H 0.68248 0.05472 0.46789 0.0
Pr560 Pr 0.60342 0.89123 0.2917 0.0
Pr561 Pr 0.65497 0.89391 0.28267 0.0
C562 C 0.56008 0.88256 0.31358 0.0
C563 C 0.545 0.88681 0.33785 0.0
C564 C 0.53178 0.90787 0.34071 0.0
C565 C 0.51617 0.91092 0.36242 0.0
C566 C 0.51311 0.89294 0.38185 0.0
C567 C 0.52644 0.87194 0.37908 0.0
C568 C 0.54215 0.86893 0.35742 0.0
C569 C 0.61649 0.93461 0.26813 0.0
C570 C 0.63848 0.91696 0.3382 0.0
C571 C 0.70089 0.89658 0.2683 0.0
C572 C 0.71635 0.89691 0.24468 0.0
C573 C 0.73696 0.88304 0.24496 0.0
C574 C 0.75202 0.88281 0.22279 0.0
C575 C 0.74686 0.89672 0.20003 0.0
C576 C 0.72614 0.91068 0.19988 0.0
C577 C 0.7109 0.91065 0.22197 0.0
C578 C 0.64165 0.85554 0.31453 0.0
C579 C 0.62104 0.87922 0.2306 0.0
O580 O 0.57812 0.86809 0.31585 0.0
O581 O 0.56445 0.90035 0.29744 0.0
O582 O 0.6277 0.92418 0.28668 0.0
O583 O 0.59806 0.92228 0.26084 0.0
O584 O 0.65558 0.91704 0.32038 0.0
O585 O 0.61774 0.9069 0.33305 0.0
O586 O 0.68765 0.91527 0.27261 0.0
O587 O 0.69016 0.87653 0.27338 0.0
O588 O 0.63128 0.8612 0.29277 0.0
O589 O 0.65869 0.86999 0.3203 0.0
O590 O 0.60366 0.87489 0.24784 0.0
O591 O 0.64093 0.88909 0.23883 0.0
H592 H 0.53317 0.92192 0.32591 0.0
H593 H 0.50605 0.92723 0.36363 0.0
H594 H 0.5248 0.85782 0.39376 0.0
H595 H 0.55185 0.85239 0.35579 0.0
H596 H 0.74132 0.87221 0.2623 0.0
H597 H 0.7675 0.87143 0.22338 0.0
H598 H 0.72175 0.92179 0.1828 0.0
H599 H 0.69495 0.92138 0.22131 0.0
Pr600 Pr 0.872 0.85271 0.04165 0.0
Pr601 Pr 0.86928 0.90391 0.03333 0.0
C602 C 0.87823 0.80814 0.06125 0.0
C603 C 0.87724 0.79405 0.08641 0.0
C604 C 0.87141 0.76988 0.085 0.0
C605 C 0.8713 0.75572 0.10818 0.0
C606 C 0.87696 0.76538 0.1335 0.0
C607 C 0.88218 0.78987 0.1349 0.0
C608 C 0.88233 0.80404 0.11162 0.0
C609 C 0.8289 0.86625 1.01724 0.0
C610 C 0.84681 0.88616 0.08844 0.0
C611 C 0.86573 0.94997 1.01961 0.0
C612 C 0.86571 0.96528 0.99572 0.0
C613 C 0.88383 0.98208 0.99264 0.0
C614 C 0.88412 0.99707 0.97038 0.0
C615 C 0.86604 0.99577 0.95097 0.0
C616 C 0.84791 0.97885 0.95406 0.0
C617 C 0.8478 0.96365 0.97618 0.0
C618 C 0.90714 0.89118 0.06653 0.0
C619 C 0.88504 0.87062 0.98088 0.0
O620 O 0.89548 0.82346 0.05848 0.0
O621 O 0.85814 0.81587 0.05162 0.0
O622 O 0.83897 0.87688 0.03637 0.0
O623 O 0.84167 0.84831 1.00944 0.0
O624 O 0.84388 0.90206 0.06946 0.0
O625 O 0.86002 0.86715 0.08434 0.0
O626 O 0.84732 0.93628 1.02345 0.0
O627 O 0.88586 0.93976 0.02562 0.0
O628 O 0.90209 0.8805 0.04474 0.0
O629 O 0.89242 0.90824 0.0714 0.0
O630 O 0.88839 0.85288 0.99794 0.0
O631 O 0.87577 0.89079 0.98921 0.0
H632 H 0.86732 0.76181 0.06579 0.0
H633 H 0.86745 0.73699 0.10603 0.0
H634 H 0.88619 0.79813 0.154 0.0
H635 H 0.8866 0.82273 0.11329 0.0
H636 H 0.89783 0.98361 1.00749 0.0
H637 H 0.89859 0.00957 0.96833 0.0
H638 H 0.83356 0.9776 0.93964 0.0
H639 H 0.8336 0.95081 0.97805 0.0
Pr640 Pr 0.65658 0.61713 0.78439 0.0
Pr641 Pr 0.60349 0.62559 0.793 0.0
C642 C 0.70188 0.60943 0.76949 0.0
C643 C 0.71732 0.61067 0.74558 0.0
C644 C 0.73058 0.63128 0.74031 0.0
C645 C 0.74586 0.63226 0.71831 0.0
C646 C 0.74847 0.61254 0.70129 0.0
C647 C 0.73522 0.59192 0.70659 0.0
C648 C 0.7198 0.59099 0.7285 0.0
C649 C 0.64568 0.65696 0.81539 0.0
C650 C 0.62474 0.63684 0.73198 0.0
C651 C 0.56452 0.64385 0.81681 0.0
C652 C 0.54575 0.63783 0.83667 0.0
C653 C 0.52838 0.62056 0.83151 0.0
C654 C 0.50996 0.6166 0.84993 0.0
C655 C 0.50827 0.62998 0.87386 0.0
C656 C 0.52631 0.64652 0.87941 0.0
C657 C 0.54476 0.65037 0.86107 0.0
C658 C 0.60718 0.5781 0.77799 0.0
C659 C 0.63463 0.59314 0.83726 0.0
O660 O 0.68588 0.59263 0.77034 0.0
O661 O 0.69434 0.62956 0.77931 0.0
O662 O 0.63507 0.65129 0.79382 0.0
O663 O 0.66192 0.6416 0.82165 0.0
O664 O 0.60589 0.63923 0.74779 0.0
O665 O 0.64502 0.62833 0.74106 0.0
O666 O 0.58598 0.64611 0.8264 0.0
O667 O 0.56398 0.63408 0.79287 0.0
O668 O 0.6248 0.59196 0.78026 0.0
O669 O 0.58725 0.58913 0.78168 0.0
O670 O 0.65137 0.59061 0.81918 0.0
O671 O 0.61683 0.60813 0.8337 0.0
H672 H 0.72923 0.64667 0.75324 0.0
H673 H 0.75552 0.64854 0.71457 0.0
H674 H 0.73706 0.57629 0.69411 0.0
H675 H 0.71006 0.57475 0.73221 0.0
H676 H 0.52876 0.61035 0.81308 0.0
H677 H 0.49681 0.60325 0.84516 0.0
H678 H 0.52571 0.6573 0.8974 0.0
H679 H 0.55798 0.66372 0.86567 0.0
Pr680 Pr 0.64481 0.40419 0.03291 0.0
Pr681 Pr 0.64323 0.35102 0.04143 0.0
C682 C 0.65435 0.45041 1.02321 0.0
C683 C 0.6531 0.46669 0.99971 0.0
C684 C 0.63352 0.48184 0.996 0.0
C685 C 0.63216 0.49668 0.97343 0.0
C686 C 0.65041 0.49684 0.95413 0.0
C687 C 0.6702 0.48203 0.9582 0.0
C688 C 0.67152 0.46718 0.98065 0.0
C689 C 0.60197 0.38806 0.05674 0.0
C690 C 0.62944 0.37106 0.98151 0.0
C691 C 0.63681 0.30636 0.0603 0.0
C692 C 0.63905 0.29122 0.08477 0.0
C693 C 0.65815 0.27526 0.08676 0.0
C694 C 0.66033 0.26001 0.10882 0.0
C695 C 0.64342 0.26011 0.12963 0.0
C696 C 0.62413 0.27594 0.1276 0.0
C697 C 0.62198 0.29136 0.10544 0.0
C698 C 0.68624 0.3656 1.01789 0.0
C699 C 0.66771 0.38391 0.08954 0.0
O700 O 0.6703 0.4336 1.02219 0.0
O701 O 0.63435 0.44321 0.03373 0.0
O702 O 0.62272 0.38119 0.06174 0.0
O703 O 0.60272 0.40348 0.03729 0.0
O704 O 0.62429 0.35428 0.9992 0.0
O705 O 0.64028 0.39066 0.98891 0.0
O706 O 0.61957 0.32195 0.05876 0.0
O707 O 0.65653 0.31387 0.04943 0.0
O708 O 0.67498 0.3764 0.03605 0.0
O709 O 0.67394 0.34737 1.00997 0.0
O710 O 0.66331 0.40312 0.07506 0.0
O711 O 0.6613 0.36254 0.08147 0.0
H712 H 0.61913 0.48207 1.01041 0.0
H713 H 0.61656 0.50769 0.97088 0.0
H714 H 0.68484 0.48201 0.94412 0.0
H715 H 0.68704 0.456 0.98297 0.0
H716 H 0.6714 0.27436 0.07102 0.0
H717 H 0.67519 0.24782 0.10935 0.0
H718 H 0.61085 0.27663 0.14331 0.0
H719 H 0.60692 0.30327 0.10448 0.0
Pr720 Pr 0.85404 0.39731 0.2849 0.0
Pr721 Pr 0.91161 0.39654 0.29248 0.0
C722 C 0.80941 0.41018 0.27249 0.0
C723 C 0.79273 0.41013 0.24965 0.0
C724 C 0.77327 0.39465 0.25007 0.0
C725 C 0.75689 0.39475 0.2291 0.0
C726 C 0.75958 0.41039 0.20727 0.0
C727 C 0.779 0.426 0.20687 0.0
C728 C 0.79546 0.42587 0.22788 0.0
C729 C 0.86913 0.35449 0.30955 0.0
C730 C 0.88922 0.38527 0.23187 0.0
C731 C 0.95569 0.38934 0.31241 0.0
C732 C 0.96948 0.39039 0.33799 0.0
C733 C 0.98719 0.40773 0.34115 0.0
C734 C 1.00144 0.40827 0.36425 0.0
C735 C 0.99856 0.39134 0.38487 0.0
C736 C 0.98048 0.37425 0.38192 0.0
C737 C 0.96614 0.37376 0.3588 0.0
C738 C 0.89246 0.43837 0.27063 0.0
C739 C 0.87615 0.41925 0.34089 0.0
O740 O 0.82748 0.42472 0.27122 0.0
O741 O 0.81469 0.3896 0.28319 0.0
O742 O 0.88145 0.37106 0.29983 0.0
O743 O 0.84701 0.35956 0.30507 0.0
O744 O 0.90839 0.38272 0.24734 0.0
O745 O 0.86821 0.39123 0.24156 0.0
O746 O 0.94021 0.37217 0.30916 0.0
O747 O 0.94868 0.40955 0.30209 0.0
O748 O 0.88346 0.42568 0.28891 0.0
O749 O 0.91302 0.42968 0.26368 0.0
O750 O 0.85723 0.41642 0.32566 0.0
O751 O 0.89764 0.4118 0.33394 0.0
H752 H 0.77061 0.38254 0.26673 0.0
H753 H 0.74191 0.38275 0.23016 0.0
H754 H 0.78163 0.43807 0.19018 0.0
H755 H 0.81025 0.43811 0.22703 0.0
H756 H 0.99025 0.42078 0.32552 0.0
H757 H 0.01481 0.42199 0.36587 0.0
H758 H 0.9778 0.36077 0.39715 0.0
H759 H 0.95272 0.3601 0.35707 0.0
Pr760 Pr 0.86761 0.60694 0.53388 0.0
Pr761 Pr 0.87025 0.66389 0.53965 0.0
C762 C 0.85245 0.56354 0.52008 0.0
C763 C 0.85829 0.54408 0.50156 0.0
C764 C 0.88008 0.53196 0.50274 0.0
C765 C 0.88506 0.51386 0.48439 0.0
C766 C 0.86838 0.50771 0.46458 0.0
C767 C 0.84655 0.51976 0.4637 0.0
C768 C 0.84158 0.53774 0.48198 0.0
C769 C 0.91125 0.61998 0.55777 0.0
C770 C 0.88605 0.63963 0.48094 0.0
C771 C 0.87652 0.70868 0.55797 0.0
C772 C 0.87638 0.72297 0.58311 0.0
C773 C 0.86482 0.74507 0.58332 0.0
C774 C 0.86546 0.75964 0.60617 0.0
C775 C 0.87776 0.75252 0.62948 0.0
C776 C 0.88872 0.72998 0.62948 0.0
C777 C 0.88801 0.71536 0.60661 0.0
C778 C 0.82792 0.64568 0.51828 0.0
C779 C 0.84777 0.63021 0.58965 0.0
O780 O 0.84461 0.58306 0.50878 0.0
O781 O 0.86653 0.56725 0.54067 0.0
O782 O 0.89508 0.63331 0.54882 0.0
O783 O 0.90544 0.5981 0.55272 0.0
O784 O 0.88657 0.65946 0.49555 0.0
O785 O 0.87878 0.61916 0.49095 0.0
O786 O 0.89408 0.69378 0.55402 0.0
O787 O 0.85609 0.70058 0.54955 0.0
O788 O 0.83988 0.63697 0.53732 0.0
O789 O 0.83798 0.66501 0.50951 0.0
O790 O 0.84716 0.61174 0.57348 0.0
O791 O 0.85771 0.65068 0.58275 0.0
H792 H 0.89332 0.53658 0.51762 0.0
H793 H 0.90209 0.50499 0.48537 0.0
H794 H 0.83316 0.51518 0.44895 0.0
H795 H 0.82464 0.54679 0.48077 0.0
H796 H 0.85564 0.75132 0.56553 0.0
H797 H 0.85695 0.77686 0.6052 0.0
H798 H 0.89798 0.72364 0.64717 0.0
H799 H 0.89681 0.69826 0.60722 0.0
Pr800 Pr 0.65795 0.3949 0.76932 0.0
Pr801 Pr 0.60576 0.39499 0.76069 0.0
C802 C 0.70469 0.39697 0.77979 0.0
C803 C 0.72308 0.3968 0.80041 0.0
C804 C 0.7447 0.38571 0.79458 0.0
C805 C 0.76304 0.38593 0.81331 0.0
C806 C 0.75995 0.39726 0.83815 0.0
C807 C 0.73814 0.40822 0.84406 0.0
C808 C 0.71976 0.40797 0.82529 0.0
C809 C 0.64263 0.3575 0.73711 0.0
C810 C 0.62335 0.38232 0.82174 0.0
C811 C 0.5613 0.38907 0.74104 0.0
C812 C 0.54658 0.39161 0.71632 0.0
C813 C 0.53515 0.41323 0.71065 0.0
C814 C 0.51848 0.41483 0.6899 0.0
C815 C 0.51247 0.3948 0.6744 0.0
C816 C 0.52494 0.37352 0.67896 0.0
C817 C 0.54175 0.37193 0.69976 0.0
C818 C 0.6218 0.43723 0.78474 0.0
C819 C 0.63993 0.42001 0.71467 0.0
O820 O 0.69113 0.41575 0.77818 0.0
O821 O 0.6935 0.37705 0.77548 0.0
O822 O 0.63223 0.36383 0.75857 0.0
O823 O 0.66092 0.37057 0.73203 0.0
O824 O 0.60539 0.38012 0.80483 0.0
O825 O 0.64442 0.38951 0.8136 0.0
O826 O 0.57695 0.37198 0.74212 0.0
O827 O 0.56851 0.40841 0.75297 0.0
O828 O 0.63212 0.42615 0.76615 0.0
O829 O 0.60226 0.42642 0.79131 0.0
O830 O 0.65645 0.42076 0.73325 0.0
O831 O 0.62 0.40828 0.71865 0.0
H832 H 0.74743 0.37695 0.77544 0.0
H833 H 0.77952 0.37698 0.80851 0.0
H834 H 0.73539 0.41716 0.86308 0.0
H835 H 0.70311 0.41659 0.83009 0.0
H836 H 0.53838 0.42879 0.72288 0.0
H837 H 0.50965 0.43167 0.68662 0.0
H838 H 0.52078 0.35775 0.66746 0.0
H839 H 0.55022 0.35499 0.70358 0.0
Pr840 Pr 0.86874 0.40883 1.01844 0.0
Pr841 Pr 0.87241 0.3562 1.01073 0.0
C842 C 0.86333 0.45465 0.03213 0.0
C843 C 0.86485 0.47004 0.05577 0.0
C844 C 0.87806 0.49105 0.05394 0.0
C845 C 0.88028 0.50585 0.07619 0.0
C846 C 0.86927 0.49979 0.10045 0.0
C847 C 0.856 0.47885 0.10244 0.0
C848 C 0.85382 0.46396 0.08017 0.0
C849 C 0.90752 0.39552 0.98752 0.0
C850 C 0.8849 0.37529 0.07089 0.0
C851 C 0.88284 0.31307 0.98992 0.0
C852 C 0.87801 0.29718 0.96668 0.0
C853 C 0.85654 0.28467 0.96446 0.0
C854 C 0.85354 0.26744 0.94448 0.0
C855 C 0.87201 0.26203 0.92636 0.0
C856 C 0.89296 0.27552 0.92766 0.0
C857 C 0.89593 0.29283 0.94761 0.0
C858 C 0.82776 0.37056 0.03111 0.0
C859 C 0.84658 0.3891 0.96299 0.0
O860 O 0.84568 0.43961 0.03108 0.0
O861 O 0.88338 0.44587 1.02351 0.0
O862 O 0.90159 0.38504 1.00919 0.0
O863 O 0.89343 0.41298 0.9819 0.0
O864 O 0.88916 0.35762 0.05412 0.0
O865 O 0.87498 0.39513 0.06233 0.0
O866 O 0.89561 0.33203 0.98552 0.0
O867 O 0.86603 0.31652 1.00763 0.0
O868 O 0.83992 0.38094 1.01358 0.0
O869 O 0.83829 0.35093 0.03818 0.0
O870 O 0.84498 0.40628 0.98073 0.0
O871 O 0.85813 0.36925 0.96843 0.0
H872 H 0.88679 0.49591 0.03533 0.0
H873 H 0.8907 0.52195 0.07455 0.0
H874 H 0.84751 0.47401 0.1212 0.0
H875 H 0.8437 0.4477 0.08208 0.0
H876 H 0.84228 0.28763 0.97865 0.0
H877 H 0.83691 0.25784 0.94374 0.0
H878 H 0.9076 0.27186 0.9142 0.0
H879 H 0.91269 0.30217 0.94878 0.0
Pr880 Pr 0.85751 0.62141 0.26991 0.0
Pr881 Pr 0.90974 0.62127 0.26055 0.0
C882 C 0.81113 0.6128 0.27887 0.0
C883 C 0.79475 0.61305 0.30209 0.0
C884 C 0.78035 0.63291 0.30713 0.0
C885 C 0.76531 0.63334 0.32944 0.0
C886 C 0.76418 0.61381 0.34704 0.0
C887 C 0.77828 0.59378 0.34167 0.0
C888 C 0.79338 0.5934 0.31948 0.0
C889 C 0.87439 0.66459 0.24806 0.0
C890 C 0.89084 0.63707 0.32031 0.0
C891 C 0.95406 0.62659 0.24025 0.0
C892 C 0.96904 0.62384 0.21569 0.0
C893 C 0.98186 0.60274 0.21159 0.0
C894 C 0.99888 0.60114 0.19121 0.0
C895 C 1.00388 0.62067 0.17443 0.0
C896 C 0.99003 0.64132 0.17736 0.0
C897 C 0.97288 0.64292 0.19784 0.0
C898 C 0.89382 0.57951 0.28569 0.0
C899 C 0.87495 0.59868 0.21292 0.0
O900 O 0.82738 0.59626 0.27873 0.0
O901 O 0.81902 0.63325 0.27026 0.0
O902 O 0.88043 0.64395 0.24117 0.0
O903 O 0.85978 0.66321 0.26819 0.0
O904 O 0.90692 0.64236 0.30183 0.0
O905 O 0.87181 0.62484 0.31386 0.0
O906 O 0.93865 0.64397 0.2414 0.0
O907 O 0.94664 0.60732 0.25223 0.0
O908 O 0.88383 0.59026 0.26658 0.0
O909 O 0.91253 0.59117 0.29352 0.0
O910 O 0.85642 0.60609 0.2266 0.0
O911 O 0.89687 0.60168 0.22168 0.0
H912 H 0.78087 0.64825 0.29398 0.0
H913 H 0.75488 0.64915 0.33313 0.0
H914 H 0.77752 0.57824 0.35449 0.0
H915 H 0.80401 0.57767 0.31604 0.0
H916 H 0.97947 0.58766 0.22484 0.0
H917 H 0.00879 0.58476 0.18924 0.0
H918 H 0.99336 0.6567 0.16485 0.0
H919 H 0.96337 0.65947 0.2004 0.0
Pr920 Pr 0.64663 0.60786 0.51859 0.0
Pr921 Pr 0.64267 0.65956 0.51181 0.0
C922 C 0.65359 0.56175 0.53022 0.0
C923 C 0.65129 0.54395 0.55156 0.0
C924 C 0.63996 0.52246 0.54567 0.0
C925 C 0.63883 0.50451 0.56491 0.0
C926 C 0.64916 0.50774 0.59033 0.0
C927 C 0.66008 0.52953 0.59641 0.0
C928 C 0.66108 0.54755 0.57718 0.0
C929 C 0.6074 0.62096 0.48793 0.0
C930 C 0.62848 0.63963 0.5715 0.0
C931 C 0.63399 0.7037 0.49243 0.0
C932 C 0.63805 0.71948 0.4688 0.0
C933 C 0.65596 0.73678 0.46977 0.0
C934 C 0.65784 0.75401 0.44961 0.0
C935 C 0.64161 0.75472 0.42805 0.0
C936 C 0.62458 0.73654 0.42618 0.0
C937 C 0.62278 0.71915 0.44635 0.0
C938 C 0.68688 0.64541 0.53315 0.0
C939 C 0.6679 0.62784 0.46305 0.0
O940 O 0.66999 0.57798 0.53303 0.0
O941 O 0.63395 0.56977 0.51962 0.0
O942 O 0.61318 0.63111 0.5098 0.0
O943 O 0.62196 0.60407 0.48171 0.0
O944 O 0.62603 0.65804 0.55525 0.0
O945 O 0.63747 0.61941 0.56287 0.0
O946 O 0.61918 0.68601 0.48988 0.0
O947 O 0.6521 0.69857 0.50779 0.0
O948 O 0.67591 0.6357 0.51417 0.0
O949 O 0.67485 0.66341 0.5422 0.0
O950 O 0.67074 0.61113 0.48121 0.0
O951 O 0.65516 0.64693 0.46849 0.0
H952 H 0.63222 0.51943 0.52603 0.0
H953 H 0.62986 0.48811 0.55988 0.0
H954 H 0.66832 0.53248 0.6158 0.0
H955 H 0.66984 0.56408 0.58222 0.0
H956 H 0.66806 0.73758 0.48667 0.0
H957 H 0.67161 0.7673 0.45143 0.0
H958 H 0.6118 0.73646 0.40992 0.0
H959 H 0.60878 0.70606 0.44488 0.0
Pr960 Pr 0.4106 0.3929 0.25913 0.0
Pr961 Pr 0.3574 0.39678 0.26432 0.0
C962 C 0.45525 0.38534 0.24074 0.0
C963 C 0.46916 0.38657 0.2152 0.0
C964 C 0.48755 0.4033 0.2127 0.0
C965 C 0.50158 0.40431 0.18944 0.0
C966 C 0.49777 0.38853 0.16792 0.0
C967 C 0.47905 0.37204 0.17024 0.0
C968 C 0.46496 0.37105 0.19356 0.0
C969 C 0.39596 0.43751 0.27861 0.0
C970 C 0.37969 0.41637 0.20776 0.0
C971 C 0.31125 0.40734 0.2722 0.0
C972 C 0.29329 0.40377 0.29362 0.0
C973 C 0.27313 0.38984 0.28866 0.0
C974 C 0.25561 0.38713 0.30838 0.0
C975 C 0.25776 0.39847 0.33347 0.0
C976 C 0.27815 0.41217 0.33851 0.0
C977 C 0.29571 0.41473 0.3189 0.0
C978 C 0.37282 0.3512 0.24734 0.0
C979 C 0.38705 0.38256 0.31877 0.0
O980 O 0.43968 0.36828 0.24382 0.0
O981 O 0.44811 0.40548 0.25089 0.0
O982 O 0.38611 0.42548 0.26046 0.0
O983 O 0.41393 0.4257 0.28817 0.0
O984 O 0.36006 0.41374 0.22184 0.0
O985 O 0.40051 0.40916 0.217 0.0
O986 O 0.32862 0.42196 0.27756 0.0
O987 O 0.31813 0.38869 0.25861 0.0
O988 O 0.38072 0.37095 0.23951 0.0
O989 O 0.35701 0.3549 0.26588 0.0
O990 O 0.40473 0.37573 0.30285 0.0
O991 O 0.36932 0.39497 0.30888 0.0
H992 H 0.49124 0.41556 0.22894 0.0
H993 H 0.51547 0.41755 0.18837 0.0
H994 H 0.47563 0.35942 0.1543 0.0
H995 H 0.45096 0.35793 0.19471 0.0
H996 H 0.27082 0.38114 0.26943 0.0
H997 H 0.2404 0.37607 0.30395 0.0
H998 H 0.28035 0.42141 0.35742 0.0
H999 H 0.31104 0.42558 0.3235 0.0
Pr1000 Pr 0.37068 0.66065 1.01189 0.0
Pr1001 Pr 0.36614 0.60801 1.01422 0.0
C1002 C 0.38081 0.70499 0.9937 0.0
C1003 C 0.37811 0.72001 0.9692 0.0
C1004 C 0.37226 0.74414 0.97187 0.0
C1005 C 0.37074 0.759 0.94922 0.0
C1006 C 0.37483 0.75003 0.92324 0.0
C1007 C 0.38022 0.72571 0.92053 0.0
C1008 C 0.38193 0.71089 0.94323 0.0
C1009 C 0.32703 0.64656 0.03385 0.0
C1010 C 0.34239 0.63134 0.96203 0.0
C1011 C 0.36297 0.56139 0.0259 0.0
C1012 C 0.36194 0.54507 0.04891 0.0
C1013 C 0.37305 0.52293 0.04674 0.0
C1014 C 0.3725 0.50692 0.06812 0.0
C1015 C 0.36085 0.51278 0.09221 0.0
C1016 C 0.34979 0.53511 0.09442 0.0
C1017 C 0.3504 0.55119 0.07294 0.0
C1018 C 0.40461 0.62318 0.98389 0.0
C1019 C 0.37859 0.63781 0.0709 0.0
O1020 O 0.39571 0.6872 0.99262 0.0
O1021 O 0.36165 0.69991 1.00728 0.0
O1022 O 0.33732 0.63688 1.01419 0.0
O1023 O 0.33948 0.66431 0.04295 0.0
O1024 O 0.34239 0.61202 0.97683 0.0
O1025 O 0.35316 0.65101 0.9699 0.0
O1026 O 0.34444 0.57483 1.02136 0.0
O1027 O 0.38314 0.5723 1.02211 0.0
O1028 O 0.39939 0.6316 1.00685 0.0
O1029 O 0.38974 0.60704 0.97629 0.0
O1030 O 0.38468 0.65663 0.05654 0.0
O1031 O 0.36947 0.61893 0.05923 0.0
H1032 H 0.36907 0.75161 0.9916 0.0
H1033 H 0.36614 0.7775 0.95203 0.0
H1034 H 0.38352 0.7182 0.90085 0.0
H1035 H 0.3864 0.69235 0.94046 0.0
H1036 H 0.38212 0.51796 0.02838 0.0
H1037 H 0.38092 0.48978 0.06562 0.0
H1038 H 0.34093 0.54026 0.11283 0.0
H1039 H 0.34193 0.56836 0.07511 0.0
Pr1040 Pr 0.10395 0.62112 0.75899 0.0
Pr1041 Pr 0.15606 0.61612 0.76566 0.0
C1042 C 0.06024 0.63133 0.73893 0.0
C1043 C 0.04533 0.62892 0.71426 0.0
C1044 C 0.02299 0.61792 0.71596 0.0
C1045 C 0.00791 0.61677 0.6935 0.0
C1046 C 0.01479 0.62653 0.66863 0.0
C1047 C 0.03737 0.63717 0.66682 0.0
C1048 C 0.05241 0.63842 0.68933 0.0
C1049 C 0.11614 0.57687 0.78153 0.0
C1050 C 0.13518 0.59242 0.71167 0.0
C1051 C 0.20224 0.60966 0.77747 0.0
C1052 C 0.21988 0.61257 0.79887 0.0
C1053 C 0.24264 0.62048 0.792 0.0
C1054 C 0.26028 0.62211 0.81155 0.0
C1055 C 0.25534 0.61597 0.83829 0.0
C1056 C 0.23233 0.60869 0.84536 0.0
C1057 C 0.21467 0.60696 0.82573 0.0
C1058 C 0.14334 0.65476 0.73364 0.0
C1059 C 0.1248 0.63411 0.81922 0.0
O1060 O 0.07808 0.64617 0.73841 0.0
O1061 O 0.06492 0.61212 0.75266 0.0
O1062 O 0.12726 0.58744 0.76311 0.0
O1063 O 0.09823 0.58975 0.7893 0.0
O1064 O 0.15242 0.59072 0.72934 0.0
O1065 O 0.11592 0.60502 0.71688 0.0
O1066 O 0.18613 0.5932 0.78068 0.0
O1067 O 0.19407 0.62906 0.76643 0.0
O1068 O 0.13327 0.64966 0.75581 0.0
O1069 O 0.15987 0.63968 0.72782 0.0
O1070 O 0.10589 0.63619 0.80351 0.0
O1071 O 0.14507 0.62598 0.80979 0.0
H1072 H 0.01703 0.61041 0.73484 0.0
H1073 H 0.99086 0.6081 0.6956 0.0
H1074 H 0.04325 0.64501 0.64809 0.0
H1075 H 0.06947 0.64707 0.68725 0.0
H1076 H 0.24686 0.6251 0.77139 0.0
H1077 H 0.27781 0.62814 0.80578 0.0
H1078 H 0.22817 0.60386 0.86591 0.0
H1079 H 0.19713 0.60096 0.83146 0.0
Pr1080 Pr 0.14599 0.35374 0.50822 0.0
Pr1081 Pr 0.14767 0.40683 0.51623 0.0
C1082 C 0.13864 0.30919 0.4894 0.0
C1083 C 0.13876 0.29441 0.46463 0.0
C1084 C 0.14914 0.27175 0.46556 0.0
C1085 C 0.14933 0.25704 0.44284 0.0
C1086 C 0.13925 0.26467 0.41842 0.0
C1087 C 0.12911 0.28756 0.41738 0.0
C1088 C 0.12879 0.30225 0.44025 0.0
C1089 C 0.18857 0.36764 0.53256 0.0
C1090 C 0.17253 0.38658 0.46094 0.0
C1091 C 0.15575 0.45362 0.52378 0.0
C1092 C 0.15256 0.47156 0.54509 0.0
C1093 C 0.14447 0.49434 0.53833 0.0
C1094 C 0.14259 0.51196 0.558 0.0
C1095 C 0.14881 0.50715 0.58485 0.0
C1096 C 0.15649 0.48414 0.59167 0.0
C1097 C 0.15829 0.46651 0.57201 0.0
C1098 C 0.10457 0.39001 0.49368 0.0
C1099 C 0.13531 0.3745 0.56926 0.0
O1100 O 0.12149 0.32465 0.49285 0.0
O1101 O 0.15916 0.31679 0.49802 0.0
O1102 O 0.17782 0.37885 0.51421 0.0
O1103 O 0.17601 0.34946 0.54015 0.0
O1104 O 0.16784 0.40561 0.47536 0.0
O1105 O 0.16605 0.36505 0.46864 0.0
O1106 O 0.17154 0.43711 0.52829 0.0
O1107 O 0.13666 0.44558 0.512 0.0
O1108 O 0.12531 0.38374 0.48787 0.0
O1109 O 0.10548 0.40483 0.51366 0.0
O1110 O 0.12892 0.35744 0.55227 0.0
O1111 O 0.14558 0.39389 0.56034 0.0
H1112 H 0.15712 0.26534 0.48402 0.0
H1113 H 0.15767 0.23976 0.4443 0.0
H1114 H 0.12113 0.29401 0.39896 0.0
H1115 H 0.12074 0.31968 0.43887 0.0
H1116 H 0.13983 0.49858 0.51773 0.0
H1117 H 0.1362 0.52936 0.55218 0.0
H1118 H 0.1616 0.47988 0.61211 0.0
H1119 H 0.16449 0.44903 0.57783 0.0
Pr1120 Pr 0.41111 0.62407 0.29137 0.0
Pr1121 Pr 0.357 0.62179 0.28509 0.0
C1122 C 0.45583 0.6309 0.30961 0.0
C1123 C 0.47121 0.62756 0.33374 0.0
C1124 C 0.48599 0.60751 0.3355 0.0
C1125 C 0.50292 0.60554 0.35593 0.0
C1126 C 0.50587 0.6237 0.37507 0.0
C1127 C 0.49015 0.64312 0.37434 0.0
C1128 C 0.47306 0.64507 0.35383 0.0
C1129 C 0.3941 0.57974 0.2731 0.0
C1130 C 0.37918 0.60216 0.34228 0.0
C1131 C 0.31113 0.61062 0.27625 0.0
C1132 C 0.29445 0.61086 0.25314 0.0
C1133 C 0.27521 0.62671 0.25272 0.0
C1134 C 0.25903 0.62655 0.23134 0.0
C1135 C 0.26166 0.61043 0.20994 0.0
C1136 C 0.28107 0.59474 0.21027 0.0
C1137 C 0.29724 0.59493 0.23157 0.0
C1138 C 0.37354 0.66649 0.3032 0.0
C1139 C 0.38943 0.63571 0.23224 0.0
O1140 O 0.43963 0.64758 0.30988 0.0
O1141 O 0.44901 0.61184 0.29682 0.0
O1142 O 0.38505 0.59316 0.29032 0.0
O1143 O 0.41337 0.5895 0.2638 0.0
O1144 O 0.35946 0.60578 0.32845 0.0
O1145 O 0.40023 0.60847 0.33302 0.0
O1146 O 0.32845 0.59521 0.27527 0.0
O1147 O 0.31767 0.63108 0.28625 0.0
O1148 O 0.38102 0.64636 0.31038 0.0
O1149 O 0.3573 0.6636 0.28492 0.0
O1150 O 0.40614 0.64267 0.24916 0.0
O1151 O 0.37098 0.62356 0.24096 0.0
H1152 H 0.48511 0.59364 0.32047 0.0
H1153 H 0.51431 0.59004 0.35616 0.0
H1154 H 0.49187 0.65743 0.38872 0.0
H1155 H 0.46194 0.66075 0.35316 0.0
H1156 H 0.27254 0.63911 0.26907 0.0
H1157 H 0.24416 0.63873 0.23188 0.0
H1158 H 0.28389 0.58236 0.19393 0.0
H1159 H 0.31188 0.58248 0.23111 0.0
Pr1160 Pr 0.14191 0.65899 0.03974 0.0
Pr1161 Pr 0.1473 0.60601 0.03408 0.0
C1162 C 0.13035 0.70225 0.05974 0.0
C1163 C 0.13543 0.71897 0.08227 0.0
C1164 C 0.14859 0.73967 0.0773 0.0
C1165 C 0.1521 0.75656 0.09753 0.0
C1166 C 0.14265 0.75332 0.12353 0.0
C1167 C 0.12951 0.73252 0.12857 0.0
C1168 C 0.12592 0.71558 0.1082 0.0
C1169 C 0.18618 0.64526 1.01859 0.0
C1170 C 0.16993 0.62841 0.08874 0.0
C1171 C 0.15536 0.56067 1.01954 0.0
C1172 C 0.15041 0.54436 0.99693 0.0
C1173 C 0.1298 0.53031 0.99695 0.0
C1174 C 0.12547 0.51433 0.97609 0.0
C1175 C 0.14173 0.5119 0.9549 0.0
C1176 C 0.16231 0.52595 0.95481 0.0
C1177 C 0.16662 0.54201 0.97563 0.0
C1178 C 0.10782 0.6191 0.06407 0.0
C1179 C 0.12818 0.63745 0.98038 0.0
O1180 O 0.11848 0.68287 0.06507 0.0
O1181 O 0.14677 0.69904 0.04151 0.0
O1182 O 0.17508 0.6352 0.03725 0.0
O1183 O 0.17494 0.66435 1.01112 0.0
O1184 O 0.17087 0.61 0.0724 0.0
O1185 O 0.15829 0.64792 0.08186 0.0
O1186 O 0.17059 0.57782 1.01535 0.0
O1187 O 0.13734 0.56718 0.03436 0.0
O1188 O 0.11373 0.62915 0.04209 0.0
O1189 O 0.12205 0.60185 0.07024 0.0
O1190 O 0.12629 0.65651 0.99576 0.0
O1191 O 0.13634 0.61717 0.99001 0.0
H1192 H 0.15585 0.74306 0.0575 0.0
H1193 H 0.16188 0.77248 0.09247 0.0
H1194 H 0.12213 0.72919 0.1483 0.0
H1195 H 0.1155 0.69995 0.11276 0.0
H1196 H 0.1171 0.53143 1.01322 0.0
H1197 H 0.10963 0.50347 0.97689 0.0
H1198 H 0.17507 0.52456 0.93861 0.0
H1199 H 0.18276 0.55244 0.97512 0.0
Pr1200 Pr 0.10407 0.39242 0.79127 0.0
Pr1201 Pr 0.1605 0.39334 0.78253 0.0
C1202 C 0.06001 0.38559 0.81127 0.0
C1203 C 0.04546 0.38893 0.83593 0.0
C1204 C 0.03606 0.41133 0.84241 0.0
C1205 C 0.01953 0.41376 0.86317 0.0
C1206 C 0.01171 0.39386 0.87787 0.0
C1207 C 0.02223 0.37171 0.87254 0.0
C1208 C 0.03886 0.36927 0.85173 0.0
C1209 C 0.12214 0.43532 0.77139 0.0
C1210 C 0.14013 0.41336 0.84042 0.0
C1211 C 0.20443 0.40706 0.76839 0.0
C1212 C 0.22048 0.40523 0.74504 0.0
C1213 C 0.23666 0.38633 0.74281 0.0
C1214 C 0.25185 0.38485 0.72071 0.0
C1215 C 0.25131 0.40235 0.70053 0.0
C1216 C 0.23527 0.42133 0.70295 0.0
C1217 C 0.22005 0.42275 0.72493 0.0
C1218 C 0.14753 0.34983 0.80664 0.0
C1219 C 0.12485 0.3781 0.73075 0.0
O1220 O 0.07636 0.36909 0.8114 0.0
O1221 O 0.06628 0.40452 0.7978 0.0
O1222 O 0.13184 0.42204 0.78866 0.0
O1223 O 0.10205 0.42617 0.76359 0.0
O1224 O 0.15889 0.41031 0.82494 0.0
O1225 O 0.11834 0.40741 0.83274 0.0
O1226 O 0.18562 0.42045 0.76538 0.0
O1227 O 0.20026 0.38768 0.78216 0.0
O1228 O 0.13401 0.36646 0.79915 0.0
O1229 O 0.16914 0.35512 0.79991 0.0
O1230 O 0.1064 0.37618 0.74729 0.0
O1231 O 0.14583 0.38551 0.73927 0.0
H1232 H 0.04078 0.42692 0.83083 0.0
H1233 H 0.01222 0.43121 0.86708 0.0
H1234 H 0.01664 0.35601 0.88339 0.0
H1235 H 0.04579 0.35177 0.84726 0.0
H1236 H 0.23757 0.37265 0.7581 0.0
H1237 H 0.26383 0.36987 0.71931 0.0
H1238 H 0.23469 0.43536 0.68805 0.0
H1239 H 0.20802 0.43772 0.72621 0.0
Pr1240 Pr 0.37541 0.35589 0.54124 0.0
Pr1241 Pr 0.37102 0.40852 0.53163 0.0
C1242 C 0.38566 0.31273 0.56234 0.0
C1243 C 0.38006 0.29633 0.58502 0.0
C1244 C 0.36052 0.28087 0.58376 0.0
C1245 C 0.35729 0.26325 0.60332 0.0
C1246 C 0.37369 0.26029 0.62451 0.0
C1247 C 0.3925 0.27662 0.62654 0.0
C1248 C 0.39564 0.29436 0.60703 0.0
C1249 C 0.33012 0.36984 0.52242 0.0
C1250 C 0.35168 0.3898 0.58925 0.0
C1251 C 0.36394 0.45437 0.51906 0.0
C1252 C 0.36194 0.47169 0.49716 0.0
C1253 C 0.37864 0.49005 0.49581 0.0
C1254 C 0.37682 0.5074 0.47605 0.0
C1255 C 0.35821 0.50675 0.45728 0.0
C1256 C 0.34128 0.48854 0.45874 0.0
C1257 C 0.34315 0.47105 0.47856 0.0
C1258 C 0.4106 0.396 0.56194 0.0
C1259 C 0.38663 0.37445 0.48009 0.0
O1260 O 0.39777 0.33193 0.56775 0.0
O1261 O 0.36974 0.31602 0.54355 0.0
O1262 O 0.34286 0.38055 0.53907 0.0
O1263 O 0.34035 0.35008 0.51541 0.0
O1264 O 0.34889 0.40627 0.57073 0.0
O1265 O 0.36357 0.37009 0.58411 0.0
O1266 O 0.34663 0.43921 0.52239 0.0
O1267 O 0.38498 0.44539 0.52362 0.0
O1268 O 0.40422 0.38501 0.5408 0.0
O1269 O 0.39682 0.41378 0.56707 0.0
O1270 O 0.39247 0.35786 0.49778 0.0
O1271 O 0.3752 0.39378 0.48762 0.0
H1272 H 0.34808 0.28186 0.56719 0.0
H1273 H 0.34219 0.2515 0.60138 0.0
H1274 H 0.40556 0.27499 0.64239 0.0
H1275 H 0.41091 0.30594 0.60864 0.0
H1276 H 0.39305 0.49108 0.5102 0.0
H1277 H 0.38991 0.52147 0.47558 0.0
H1278 H 0.32689 0.48763 0.44435 0.0
H1279 H 0.32993 0.45712 0.47932 0.0
H1280 H 0.26718 0.14131 0.17648 0.0
H1281 H 0.28227 0.06696 0.18812 0.0
H1282 H 0.3119 0.06832 0.15211 0.0
H1283 H 0.33355 0.09108 0.11728 0.0
H1284 H 0.3182 0.16579 0.10751 0.0
H1285 H 0.28883 0.16384 0.14293 0.0
C1286 C 0.27714 0.12546 0.17132 0.0
C1287 C 0.27274 0.10415 0.18493 0.0
C1288 C 0.29417 0.12645 0.15099 0.0
C1289 C 0.28533 0.08357 0.1777 0.0
C1290 C 0.30232 0.08437 0.15726 0.0
C1291 C 0.32393 0.10692 0.12317 0.0
C1292 C 0.32837 0.12857 0.11009 0.0
C1293 C 0.30694 0.10578 0.14378 0.0
C1294 C 0.31559 0.14897 0.11766 0.0
C1295 C 0.29859 0.14789 0.13779 0.0
H1296 H 0.10517 0.07272 0.36679 0.0
H1297 H 0.17981 0.08998 0.36695 0.0
H1298 H 0.18691 0.06064 0.40207 0.0
H1299 H 0.17215 0.02929 0.43191 0.0
H1300 H 0.0977 0.01175 0.43172 0.0
H1301 H 0.09029 0.04196 0.39737 0.0
C1302 C 0.12289 0.07043 0.37492 0.0
C1303 C 0.14187 0.08365 0.36442 0.0
C1304 C 0.12695 0.05326 0.39484 0.0
C1305 C 0.16484 0.08012 0.37479 0.0
C1306 C 0.16897 0.06324 0.39476 0.0
C1307 C 0.15435 0.032 0.42417 0.0
C1308 C 0.1355 0.01836 0.4342 0.0
C1309 C 0.15022 0.04949 0.40467 0.0
C1310 C 0.11245 0.0222 0.42434 0.0
C1311 C 0.10821 0.03944 0.40475 0.0
H1312 H 0.24545 0.86801 0.6796 0.0
H1313 H 0.2323 0.94254 0.6925 0.0
H1314 H 0.20234 0.94249 0.65692 0.0
H1315 H 0.18089 0.92144 0.62114 0.0
H1316 H 0.19377 0.84679 0.60867 0.0
H1317 H 0.22296 0.84663 0.64498 0.0
C1318 C 0.23582 0.88413 0.67474 0.0
C1319 C 0.241 0.90524 0.68845 0.0
C1320 C 0.21869 0.88395 0.65433 0.0
C1321 C 0.22869 0.92615 0.68189 0.0
C1322 C 0.21155 0.92611 0.66167 0.0
C1323 C 0.1899 0.90512 0.62671 0.0
C1324 C 0.18506 0.88411 0.6127 0.0
C1325 C 0.20654 0.90516 0.64763 0.0
C1326 C 0.19688 0.86305 0.61973 0.0
C1327 C 0.21369 0.86299 0.6403 0.0
H1328 H 0.38666 0.96058 0.84562 0.0
H1329 H 0.36162 0.90163 0.89283 0.0
H1330 H 0.35627 0.92792 0.93184 0.0
H1331 H 0.35853 0.96791 0.95205 0.0
H1332 H 0.38337 0.02671 0.90394 0.0
H1333 H 0.38855 1.0004 0.86554 0.0
C1334 C 0.38027 0.95356 0.86462 0.0
C1335 C 0.37494 0.92933 0.86685 0.0
C1336 C 0.37698 0.96879 0.88659 0.0
C1337 C 0.36612 0.92027 0.89108 0.0
C1338 C 0.36301 0.93529 0.91322 0.0
C1339 C 0.36531 0.97491 0.93326 0.0
C1340 C 0.37058 0.9993 0.93099 0.0
C1341 C 0.36842 0.9596 0.91121 0.0
C1342 C 0.37891 0.00812 0.90625 0.0
C1343 C 0.38205 0.99305 0.88429 0.0
H1344 H 0.31376 0.91645 0.45094 0.0
H1345 H 0.34756 0.85291 0.42099 0.0
H1346 H 0.32068 0.85278 0.38238 0.0
H1347 H 0.28685 0.8699 0.35818 0.0
H1348 H 0.25306 0.93328 0.38838 0.0
H1349 H 0.28045 0.93389 0.42646 0.0
C1350 C 0.31553 0.90271 0.43581 0.0
C1351 C 0.33279 0.88479 0.43872 0.0
C1352 C 0.29981 0.9025 0.41403 0.0
C1353 C 0.3345 0.86695 0.41915 0.0
C1354 C 0.31909 0.86681 0.39715 0.0
C1355 C 0.28566 0.88402 0.37292 0.0
C1356 C 0.26803 0.90159 0.37038 0.0
C1357 C 0.30157 0.88438 0.39455 0.0
C1358 C 0.26633 0.91943 0.39 0.0
C1359 C 0.2821 0.9199 0.41164 0.0
H1360 H 0.36417 1.00323 0.64231 0.0
H1361 H 0.38021 0.05288 0.57881 0.0
H1362 H 0.38621 0.0844 0.61202 0.0
H1363 H 0.38499 0.09819 0.65946 0.0
H1364 H 0.36601 0.04818 0.7216 0.0
H1365 H 0.36281 0.01654 0.68862 0.0
C1366 C 0.3688 0.02099 0.63567 0.0
C1367 C 0.37154 0.02577 0.60817 0.0
C1368 C 0.37158 0.039 0.65467 0.0
C1369 C 0.37816 0.04873 0.59994 0.0
C1370 C 0.38143 0.06678 0.61889 0.0
C1371 C 0.38024 0.08032 0.66556 0.0
C1372 C 0.37549 0.07545 0.69266 0.0
C1373 C 0.37794 0.06218 0.64633 0.0
C1374 C 0.36934 0.05233 0.70064 0.0
C1375 C 0.36761 0.03421 0.68187 0.0
H1376 H 0.19759 0.15724 0.94184 0.0
H1377 H 0.16671 0.08912 0.92382 0.0
H1378 H 0.19605 0.08269 0.88832 0.0
H1379 H 0.23145 0.09596 0.86366 0.0
H1380 H 0.26289 0.16364 0.88231 0.0
H1381 H 0.23278 0.17062 0.91697 0.0
C1382 C 0.19698 0.14132 0.92959 0.0
C1383 C 0.17985 0.1239 0.93477 0.0
C1384 C 0.21433 0.13746 0.90994 0.0
C1385 C 0.17962 0.10289 0.91966 0.0
C1386 C 0.19648 0.09913 0.89962 0.0
C1387 C 0.23163 0.11215 0.87547 0.0
C1388 C 0.24912 0.1293 0.87076 0.0
C1389 C 0.21411 0.11614 0.89488 0.0
C1390 C 0.24938 0.15033 0.88581 0.0
C1391 C 0.23218 0.15432 0.90544 0.0
H1392 H 0.11259 0.95377 0.19518 0.0
H1393 H 0.17488 0.91469 0.17152 0.0
H1394 H 0.18131 0.9421 0.1339 0.0
H1395 H 0.16937 0.97768 0.1084 0.0
H1396 H 0.10946 0.01894 0.13488 0.0
H1397 H 0.1021 0.9906 0.17142 0.0
C1398 C 0.12732 0.95116 0.18147 0.0
C1399 C 0.14294 0.93212 0.18539 0.0
C1400 C 0.13153 0.96762 0.16093 0.0
C1401 C 0.16244 0.9291 0.16827 0.0
C1402 C 0.16621 0.94483 0.14703 0.0
C1403 C 0.15488 0.98042 0.12241 0.0
C1404 C 0.13992 1.00009 0.11932 0.0
C1405 C 0.15098 0.96425 0.14333 0.0
C1406 C 0.12117 1.00382 0.1373 0.0
C1407 C 0.11689 0.98759 0.15794 0.0
H1408 H 0.71697 0.89182 0.84824 0.0
H1409 H 0.77577 0.9122 0.89898 0.0
H1410 H 0.74991 0.91135 0.93824 0.0
H1411 H 0.71091 0.90349 0.95834 0.0
H1412 H 0.65338 0.87891 0.90862 0.0
H1413 H 0.67856 0.88237 0.86852 0.0
C1414 C 0.72426 0.8958 0.86789 0.0
C1415 C 0.7483 0.9021 0.87057 0.0
C1416 C 0.70952 0.89452 0.89047 0.0
C1417 C 0.75726 0.9077 0.8962 0.0
C1418 C 0.74254 0.90705 0.91871 0.0
C1419 C 0.70396 0.89911 0.9386 0.0
C1420 C 0.68047 0.89127 0.93597 0.0
C1421 C 0.7187 0.9004 0.91606 0.0
C1422 C 0.67149 0.88508 0.91072 0.0
C1423 C 0.68584 0.88705 0.88797 0.0
H1424 H 0.84191 0.99503 0.62768 0.0
H1425 H 0.9167 0.99519 0.60943 0.0
H1426 H 0.92378 0.9655 0.64444 0.0
H1427 H 0.90872 0.93986 0.68048 0.0
H1428 H 0.83368 0.93982 0.69833 0.0
H1429 H 0.82678 0.9691 0.66329 0.0
C1430 C 0.85977 0.98869 0.63156 0.0
C1431 C 0.87876 0.99728 0.61614 0.0
C1432 C 0.86367 0.97157 0.65153 0.0
C1433 C 0.90178 0.98867 0.621 0.0
C1434 C 0.90584 0.97176 0.64101 0.0
C1435 C 0.89084 0.94609 0.67656 0.0
C1436 C 0.87181 0.93752 0.69197 0.0
C1437 C 0.88691 0.96305 0.65637 0.0
C1438 C 0.84873 0.94595 0.68671 0.0
C1439 C 0.84471 0.96281 0.66672 0.0
H1440 H 0.75574 0.13661 0.38812 0.0
H1441 H 0.80251 0.09852 0.33485 0.0
H1442 H 0.8346 0.10122 0.3679 0.0
H1443 H 0.84869 0.11299 0.41308 0.0
H1444 H 0.80183 0.15175 0.46545 0.0
H1445 H 0.77017 0.14992 0.43191 0.0
C1446 C 0.77297 0.1289 0.3838 0.0
C1447 C 0.77681 0.11731 0.35926 0.0
C1448 C 0.79121 0.13059 0.40276 0.0
C1449 C 0.79927 0.10767 0.35363 0.0
C1450 C 0.81754 0.10911 0.37252 0.0
C1451 C 0.83164 0.12134 0.41671 0.0
C1452 C 0.82736 0.13266 0.44124 0.0
C1453 C 0.81366 0.12039 0.39723 0.0
C1454 C 0.80529 0.14317 0.44636 0.0
C1455 C 0.78726 0.14207 0.42731 0.0
H1456 H 0.67278 0.03434 0.11455 0.0
H1457 H 0.59912 0.01348 0.11556 0.0
H1458 H 0.59112 0.04212 0.15126 0.0
H1459 H 0.60528 0.07223 0.18302 0.0
H1460 H 0.67934 0.09164 0.18346 0.0
H1461 H 0.68696 0.0644 0.1463 0.0
C1462 C 0.655 0.03596 0.12269 0.0
C1463 C 0.63655 0.02188 0.11234 0.0
C1464 C 0.65057 0.05232 0.1433 0.0
C1465 C 0.61356 0.02437 0.12291 0.0
C1466 C 0.60899 0.04067 0.14337 0.0
C1467 C 0.62297 0.07087 0.17458 0.0
C1468 C 0.64164 0.08416 0.18566 0.0
C1469 C 0.62734 0.05477 0.15368 0.0
C1470 C 0.66463 0.08173 0.17506 0.0
C1471 C 0.66903 0.06608 0.15393 0.0
H1472 H 0.71571 0.11788 0.70156 0.0
H1473 H 0.77762 0.11773 0.65038 0.0
H1474 H 0.75224 0.11956 0.61066 0.0
H1475 H 0.7125 0.12246 0.59059 0.0
H1476 H 0.6509 0.12633 0.64159 0.0
H1477 H 0.67618 0.12212 0.6816 0.0
C1478 C 0.72372 0.11852 0.68176 0.0
C1479 C 0.74857 0.1177 0.67902 0.0
C1480 C 0.70908 0.12031 0.65909 0.0
C1481 C 0.75856 0.11797 0.65312 0.0
C1482 C 0.74408 0.11922 0.63039 0.0
C1483 C 0.70474 0.12237 0.61056 0.0
C1484 C 0.68011 0.12464 0.61355 0.0
C1485 C 0.71936 0.12053 0.63319 0.0
C1486 C 0.66993 0.12468 0.63918 0.0
C1487 C 0.68434 0.12224 0.66189 0.0
H1488 H 0.67364 0.98294 0.43091 0.0
H1489 H 0.59873 0.99799 0.43626 0.0
H1490 H 0.59057 0.96805 0.40184 0.0
H1491 H 0.60519 0.93931 0.36837 0.0
H1492 H 0.68047 0.92633 0.36206 0.0
H1493 H 0.68807 0.95394 0.39867 0.0
C1494 C 0.65553 0.97978 0.42443 0.0
C1495 C 0.63683 0.99271 0.43588 0.0
C1496 C 0.65106 0.96292 0.40453 0.0
C1497 C 0.6134 0.98809 0.42777 0.0
C1498 C 0.60874 0.97108 0.40806 0.0
C1499 C 0.62316 0.9422 0.37546 0.0
C1500 C 0.64221 0.9308 0.36276 0.0
C1501 C 0.62747 0.95852 0.39615 0.0
C1502 C 0.66551 0.93495 0.37165 0.0
C1503 C 0.6699 0.95076 0.39249 0.0
H1504 H 0.80004 0.89208 0.08899 0.0
H1505 H 0.86068 0.88423 0.14093 0.0
H1506 H 0.83497 0.88856 0.18058 0.0
H1507 H 0.79519 0.89423 0.19979 0.0
H1508 H 0.73434 0.89768 0.14695 0.0
H1509 H 0.76034 0.89587 0.10802 0.0
C1510 C 0.80756 0.89134 0.10902 0.0
C1511 C 0.83199 0.88791 0.11237 0.0
C1512 C 0.7927 0.89318 0.13133 0.0
C1513 C 0.84176 0.88669 0.13821 0.0
C1514 C 0.82712 0.88926 0.1607 0.0
C1515 C 0.78756 0.89431 0.17978 0.0
C1516 C 0.76281 0.89618 0.17637 0.0
C1517 C 0.80253 0.89238 0.15744 0.0
C1518 C 0.75332 0.89676 0.15024 0.0
C1519 C 0.76815 0.8955 0.12792 0.0
H1520 H 0.86057 0.05226 0.84206 0.0
H1521 H 0.8884 0.10812 0.8921 0.0
H1522 H 0.88736 0.08148 0.93127 0.0
H1523 H 0.8782 0.04247 0.95067 0.0
H1524 H 0.85396 0.9858 0.899 0.0
H1525 H 0.85347 0.01291 0.86081 0.0
C1526 C 0.86624 0.05859 0.86165 0.0
C1527 C 0.87422 0.08199 0.86465 0.0
C1528 C 0.86615 0.04314 0.88354 0.0
C1529 C 0.88213 0.09007 0.88969 0.0
C1530 C 0.88149 0.07491 0.91192 0.0
C1531 C 0.87313 0.03593 0.931 0.0
C1532 C 0.86603 0.01216 0.92774 0.0
C1533 C 0.87357 0.0514 0.909 0.0
C1534 C 0.85906 1.00412 0.90219 0.0
C1535 C 0.85895 0.01953 0.8803 0.0
H1536 H 0.79222 0.63316 0.69928 0.0
H1537 H 0.74171 0.59419 0.6511 0.0
H1538 H 0.7688 0.59536 0.61302 0.0
H1539 H 0.80615 0.60798 0.59325 0.0
H1540 H 0.85555 0.64998 0.63922 0.0
H1541 H 0.82928 0.64738 0.67857 0.0
C1542 C 0.787 0.62515 0.68037 0.0
C1543 C 0.76498 0.61348 0.67813 0.0
C1544 C 0.80241 0.62642 0.65831 0.0
C1545 C 0.7587 0.60287 0.65358 0.0
C1546 C 0.7741 0.60367 0.63172 0.0
C1547 C 0.81127 0.61643 0.61197 0.0
C1548 C 0.83278 0.62893 0.61366 0.0
C1549 C 0.79593 0.61538 0.63392 0.0
C1550 C 0.83903 0.64025 0.63768 0.0
C1551 C 0.82406 0.63873 0.66005 0.0
H1552 H 0.65258 0.54886 0.84138 0.0
H1553 H 0.61861 0.60401 0.88749 0.0
H1554 H 0.62089 0.57925 0.92797 0.0
H1555 H 0.6329 0.54205 0.95015 0.0
H1556 H 0.66424 0.48596 0.90284 0.0
H1557 H 0.66282 0.51109 0.86298 0.0
C1558 C 0.64574 0.55547 0.86033 0.0
C1559 C 0.63558 0.57824 0.86161 0.0
C1560 C 0.64669 0.541 0.88328 0.0
C1561 C 0.62644 0.58648 0.88611 0.0
C1562 C 0.6278 0.57237 0.90921 0.0
C1563 C 0.63917 0.53518 0.93109 0.0
C1564 C 0.64886 0.51215 0.9297 0.0
C1565 C 0.63785 0.54957 0.90802 0.0
C1566 C 0.65717 0.50375 0.90477 0.0
C1567 C 0.65622 0.51806 0.88185 0.0
H1568 H 0.6849 0.42395 0.1137 0.0
H1569 H 0.6859 0.34729 0.11845 0.0
H1570 H 0.71495 0.34897 0.15431 0.0
H1571 H 0.74086 0.37171 0.18351 0.0
H1572 H 0.73961 0.44824 0.18085 0.0
H1573 H 0.71021 0.44706 0.1446 0.0
C1574 C 0.69126 0.40764 0.12283 0.0
C1575 C 0.6831 0.38557 0.11343 0.0
C1576 C 0.70812 0.40865 0.14358 0.0
C1577 C 0.69164 0.36458 0.12537 0.0
C1578 C 0.70842 0.36546 0.14582 0.0
C1579 C 0.73395 0.38816 0.17526 0.0
C1580 C 0.74226 0.41 0.18492 0.0
C1581 C 0.71686 0.38734 0.15494 0.0
C1582 C 0.7336 0.43117 0.17355 0.0
C1583 C 0.71668 0.43051 0.153 0.0
H1584 H 0.85892 0.50919 0.41148 0.0
H1585 H 0.88959 0.46443 0.47276 0.0
H1586 H 0.89598 0.43298 0.4396 0.0
H1587 H 0.89115 0.41763 0.39313 0.0
H1588 H 0.85725 0.46213 0.33381 0.0
H1589 H 0.85366 0.49419 0.36622 0.0
C1590 C 0.86682 0.49248 0.41768 0.0
C1591 C 0.87359 0.48905 0.44453 0.0
C1592 C 0.86976 0.47439 0.39884 0.0
C1593 C 0.88439 0.46754 0.4521 0.0
C1594 C 0.88788 0.44951 0.43322 0.0
C1595 C 0.88296 0.43436 0.38757 0.0
C1596 C 0.87419 0.43757 0.36149 0.0
C1597 C 0.88039 0.45263 0.40657 0.0
C1598 C 0.8637 0.45925 0.3541 0.0
C1599 C 0.86174 0.47762 0.37251 0.0
H1600 H 0.75605 0.38734 0.89089 0.0
H1601 H 0.80699 0.40624 0.82986 0.0
H1602 H 0.83904 0.40459 0.86303 0.0
H1603 H 0.85239 0.39805 0.90986 0.0
H1604 H 0.80087 0.37958 0.97027 0.0
H1605 H 0.76906 0.38097 0.93702 0.0
C1606 C 0.77413 0.39135 0.88494 0.0
C1607 C 0.77923 0.39698 0.85814 0.0
C1608 C 0.7923 0.39036 0.90398 0.0
C1609 C 0.80276 0.4017 0.85047 0.0
C1610 C 0.82103 0.40082 0.86938 0.0
C1611 C 0.83419 0.39417 0.91542 0.0
C1612 C 0.82866 0.38864 0.94207 0.0
C1613 C 0.81602 0.39511 0.89619 0.0
C1614 C 0.8052 0.38384 0.94962 0.0
C1615 C 0.7871 0.38465 0.93071 0.0
H1616 H 0.9009 0.56079 0.19915 0.0
H1617 H 0.83909 0.60118 0.17618 0.0
H1618 H 0.8312 0.57327 0.13943 0.0
H1619 H 0.84245 0.53749 0.1137 0.0
H1620 H 0.90319 0.49645 0.1384 0.0
H1621 H 0.91091 0.52435 0.17515 0.0
C1622 C 0.88594 0.56368 0.18579 0.0
C1623 C 0.87093 0.58322 0.1897 0.0
C1624 C 0.88121 0.54729 0.16544 0.0
C1625 C 0.85106 0.58637 0.17307 0.0
C1626 C 0.8465 0.5704 0.15225 0.0
C1627 C 0.8572 0.53472 0.12739 0.0
C1628 C 0.87231 0.51523 0.12376 0.0
C1629 C 0.86147 0.55081 0.14827 0.0
C1630 C 0.89142 0.51147 0.14123 0.0
C1631 C 0.89587 0.52741 0.162 0.0
H1632 H 0.71955 0.63232 0.35095 0.0
H1633 H 0.7738 0.59664 0.39728 0.0
H1634 H 0.74809 0.59676 0.4366 0.0
H1635 H 0.71067 0.60743 0.45798 0.0
H1636 H 0.65753 0.64616 0.4135 0.0
H1637 H 0.6825 0.64459 0.37312 0.0
C1638 C 0.72587 0.62479 0.36971 0.0
C1639 C 0.74853 0.61432 0.37103 0.0
C1640 C 0.7112 0.62541 0.39247 0.0
C1641 C 0.75627 0.60437 0.39547 0.0
C1642 C 0.74165 0.60456 0.41804 0.0
C1643 C 0.70448 0.6154 0.43939 0.0
C1644 C 0.68228 0.62673 0.43848 0.0
C1645 C 0.71911 0.61499 0.41672 0.0
C1646 C 0.6746 0.63736 0.41451 0.0
C1647 C 0.68885 0.63644 0.39152 0.0
H1648 H 0.64802 0.41469 0.66137 0.0
H1649 H 0.6336 0.4663 0.72307 0.0
H1650 H 0.63521 0.49841 0.69004 0.0
H1651 H 0.64029 0.51158 0.64364 0.0
H1652 H 0.65681 0.46045 0.58187 0.0
H1653 H 0.65469 0.4283 0.61475 0.0
C1654 C 0.64514 0.43299 0.6673 0.0
C1655 C 0.64047 0.43841 0.69417 0.0
C1656 C 0.64647 0.45134 0.64828 0.0
C1657 C 0.63707 0.46202 0.70219 0.0
C1658 C 0.63803 0.4803 0.68342 0.0
C1659 C 0.64369 0.49344 0.63742 0.0
C1660 C 0.64855 0.48837 0.61039 0.0
C1661 C 0.64272 0.47515 0.65641 0.0
C1662 C 0.65262 0.46474 0.60255 0.0
C1663 C 0.65154 0.44636 0.62132 0.0
H1664 H 0.16598 0.38983 0.40685 0.0
H1665 H 0.21937 0.3884 0.46881 0.0
H1666 H 0.25072 0.39186 0.43504 0.0
H1667 H 0.26289 0.39452 0.3879 0.0
H1668 H 0.20958 0.39779 0.32563 0.0
H1669 H 0.17836 0.39398 0.35931 0.0
C1670 C 0.18451 0.39025 0.41272 0.0
C1671 C 0.1906 0.38873 0.43997 0.0
C1672 C 0.20243 0.39241 0.39318 0.0
C1673 C 0.21451 0.38947 0.44775 0.0
C1674 C 0.23238 0.39144 0.4285 0.0
C1675 C 0.24446 0.39469 0.38164 0.0
C1676 C 0.23872 0.39631 0.35415 0.0
C1677 C 0.22655 0.39287 0.40114 0.0
C1678 C 0.21464 0.3961 0.34654 0.0
C1679 C 0.19671 0.39411 0.36582 0.0
H1680 H 0.34243 0.44199 0.18847 0.0
H1681 H 0.41595 0.42517 0.17285 0.0
H1682 H 0.41663 0.45397 0.13626 0.0
H1683 H 0.39696 0.48494 0.10992 0.0
H1684 H 0.32347 0.50177 0.1251 0.0
H1685 H 0.32239 0.47231 0.16122 0.0
C1686 C 0.35852 0.44431 0.17681 0.0
C1687 C 0.37907 0.43129 0.18332 0.0
C1688 C 0.35892 0.4612 0.15606 0.0
C1689 C 0.39982 0.43481 0.16819 0.0
C1690 C 0.40029 0.4514 0.14736 0.0
C1691 C 0.38061 0.48198 0.1209 0.0
C1692 C 0.36031 0.49547 0.11473 0.0
C1693 C 0.38003 0.46485 0.14133 0.0
C1694 C 0.33943 0.49181 0.12962 0.0
C1695 C 0.33874 0.47482 0.15011 0.0
H1696 H 0.25391 0.63808 0.8864 0.0
H1697 H 0.29918 0.59608 0.83531 0.0
H1698 H 0.33083 0.59754 0.86896 0.0
H1699 H 0.34522 0.61014 0.91358 0.0
H1700 H 0.30093 0.65451 0.963 0.0
H1701 H 0.26904 0.65254 0.92969 0.0
C1702 C 0.2707 0.62922 0.88278 0.0
C1703 C 0.2743 0.61691 0.85865 0.0
C1704 C 0.2889 0.63059 0.90188 0.0
C1705 C 0.29617 0.60572 0.85383 0.0
C1706 C 0.3142 0.60651 0.87302 0.0
C1707 C 0.32871 0.61968 0.9166 0.0
C1708 C 0.32524 0.63266 0.94021 0.0
C1709 C 0.31076 0.6189 0.89711 0.0
C1710 C 0.30384 0.64474 0.94454 0.0
C1711 C 0.28565 0.64351 0.92564 0.0
H1712 H 0.14977 0.59799 0.66004 0.0
H1713 H 0.1207 0.54739 0.71597 0.0
H1714 H 0.12252 0.51618 0.68187 0.0
H1715 H 0.13241 0.50335 0.63615 0.0
H1716 H 0.16238 0.5536 0.58015 0.0
H1717 H 0.15995 0.58491 0.61398 0.0
C1718 C 0.14356 0.58018 0.66443 0.0
C1719 C 0.13466 0.57488 0.69002 0.0
C1720 C 0.14485 0.56231 0.64476 0.0
C1721 C 0.12716 0.55175 0.69605 0.0
C1722 C 0.12833 0.53393 0.67666 0.0
C1723 C 0.13857 0.52111 0.63139 0.0
C1724 C 0.14746 0.52611 0.6056 0.0
C1725 C 0.13719 0.53899 0.65095 0.0
C1726 C 0.15511 0.54932 0.59971 0.0
C1727 C 0.15385 0.56723 0.61909 0.0
H1728 H 0.18957 0.59066 0.11483 0.0
H1729 H 0.18557 0.66718 0.11617 0.0
H1730 H 0.21379 0.66838 0.1533 0.0
H1731 H 0.24036 0.64787 0.18476 0.0
H1732 H 0.24341 0.57131 0.18467 0.0
H1733 H 0.21508 0.57002 0.14757 0.0
C1734 C 0.19472 0.60758 0.12343 0.0
C1735 C 0.18532 0.62877 0.11285 0.0
C1736 C 0.21095 0.60817 0.14489 0.0
C1737 C 0.19223 0.65056 0.12415 0.0
C1738 C 0.20852 0.65129 0.1453 0.0
C1739 C 0.23463 0.63088 0.17687 0.0
C1740 C 0.24412 0.60974 0.18751 0.0
C1741 C 0.21805 0.63023 0.15578 0.0
C1742 C 0.23673 0.5879 0.17664 0.0
C1743 C 0.22038 0.58712 0.15553 0.0
H1744 H 0.10733 0.44131 0.86456 0.0
H1745 H 0.18061 0.41945 0.86946 0.0
H1746 H 0.1877 0.44842 0.90503 0.0
H1747 H 0.17335 0.48069 0.93387 0.0
H1748 H 0.10044 0.50348 0.92788 0.0
H1749 H 0.09294 0.47343 0.89353 0.0
C1750 C 0.12471 0.44251 0.87384 0.0
C1751 C 0.14332 0.42803 0.86468 0.0
C1752 C 0.12881 0.45958 0.89382 0.0
C1753 C 0.16592 0.43025 0.87637 0.0
C1754 C 0.17004 0.44691 0.89658 0.0
C1755 C 0.15587 0.47918 0.92488 0.0
C1756 C 0.13746 0.49423 0.93341 0.0
C1757 C 0.15169 0.46187 0.90521 0.0
C1758 C 0.11483 0.4919 0.92184 0.0
C1759 C 0.11054 0.47476 0.9022 0.0
H1760 H 0.3069 0.40501 0.59089 0.0
H1761 H 0.36285 0.37691 0.64077 0.0
H1762 H 0.3366 0.37877 0.68018 0.0
H1763 H 0.29771 0.38849 0.69991 0.0
H1764 H 0.24106 0.41303 0.64826 0.0
H1765 H 0.2678 0.4126 0.60985 0.0
C1766 C 0.3134 0.39948 0.61047 0.0
C1767 C 0.33674 0.39117 0.61327 0.0
C1768 C 0.29811 0.39992 0.63253 0.0
C1769 C 0.34489 0.38348 0.63842 0.0
C1770 C 0.32992 0.38453 0.66081 0.0
C1771 C 0.29112 0.39346 0.68021 0.0
C1772 C 0.26746 0.40102 0.67707 0.0
C1773 C 0.30645 0.39263 0.65803 0.0
C1774 C 0.25931 0.40765 0.6514 0.0
C1775 C 0.27453 0.40728 0.62938 0.0
H1776 H 0.39445 0.52115 0.42656 0.0
H1777 H 0.31978 0.53254 0.44009 0.0
H1778 H 0.31952 0.56411 0.40603 0.0
H1779 H 0.34111 0.58867 0.37272 0.0
H1780 H 0.4164 0.57734 0.36196 0.0
H1781 H 0.41585 0.54581 0.39498 0.0
C1782 C 0.37815 0.53069 0.42221 0.0
C1783 C 0.35724 0.52479 0.43583 0.0
C1784 C 0.3783 0.54897 0.40333 0.0
C1785 C 0.33608 0.53679 0.42963 0.0
C1786 C 0.33598 0.55492 0.41037 0.0
C1787 C 0.35742 0.57956 0.37801 0.0
C1788 C 0.37879 0.58569 0.36523 0.0
C1789 C 0.35708 0.56129 0.39724 0.0
C1790 C 0.39976 0.57347 0.37192 0.0
C1791 C 0.39948 0.55519 0.39062 0.0
H1792 H 0.12892 0.2172 0.41544 0.0
H1793 H 0.15064 0.27663 0.3666 0.0
H1794 H 0.15337 0.25072 0.32728 0.0
H1795 H 0.15184 0.21044 0.30713 0.0
H1796 H 0.1278 0.15165 0.35531 0.0
H1797 H 0.12401 0.17776 0.39442 0.0
C1798 C 0.13424 0.2245 0.39619 0.0
C1799 C 0.13974 0.24889 0.39415 0.0
C1800 C 0.13541 0.20951 0.37347 0.0
C1801 C 0.14622 0.25802 0.36885 0.0
C1802 C 0.14788 0.24316 0.34633 0.0
C1803 C 0.14525 0.20354 0.32606 0.0
C1804 C 0.13974 0.17923 0.32823 0.0
C1805 C 0.14274 0.21882 0.34841 0.0
C1806 C 0.1316 0.17038 0.35297 0.0
C1807 C 0.12965 0.1853 0.37542 0.0
H1808 H 0.10208 0.9045 0.61608 0.0
H1809 H 0.06572 0.87144 0.54978 0.0
H1810 H 0.02969 0.86769 0.57755 0.0
H1811 H 0.00846 0.87492 0.62089 0.0
H1812 H 0.04693 0.90707 0.68663 0.0
H1813 H 0.08198 0.91041 0.65867 0.0
C1814 C 0.0863 0.89636 0.60763 0.0
C1815 C 0.08655 0.8883 0.58088 0.0
C1816 C 0.06591 0.89436 0.6236 0.0
C1817 C 0.06603 0.87763 0.57037 0.0
C1818 C 0.04542 0.87564 0.58623 0.0
C1819 C 0.02453 0.88256 0.62913 0.0
C1820 C 0.0247 0.89109 0.6559 0.0
C1821 C 0.04511 0.8841 0.61291 0.0
C1822 C 0.04582 0.90097 0.66603 0.0
C1823 C 0.06607 0.90267 0.65011 0.0
H1824 H 0.3545 0.80637 0.81475 0.0
H1825 H 0.39921 0.85811 0.85334 0.0
H1826 H 0.40406 0.83169 0.89218 0.0
H1827 H 0.39427 0.79424 0.91602 0.0
H1828 H 0.35173 0.74146 0.87588 0.0
H1829 H 0.34767 0.76756 0.8368 0.0
C1830 C 0.36573 0.81159 0.83144 0.0
C1831 C 0.37672 0.83405 0.83102 0.0
C1832 C 0.36871 0.79611 0.85354 0.0
C1833 C 0.39099 0.84073 0.8529 0.0
C1834 C 0.39355 0.8257 0.87525 0.0
C1835 C 0.38412 0.78846 0.89871 0.0
C1836 C 0.37316 0.76591 0.89908 0.0
C1837 C 0.38227 0.80343 0.87596 0.0
C1838 C 0.36039 0.75862 0.87622 0.0
C1839 C 0.35801 0.77359 0.85385 0.0
H1840 H 0.45517 0.14801 0.05855 0.0
H1841 H 0.40627 0.09936 0.09586 0.0
H1842 H 0.43376 0.09332 0.13328 0.0
H1843 H 0.47134 0.10211 0.15577 0.0
H1844 H 0.5193 0.15329 0.12071 0.0
H1845 H 0.49315 0.15734 0.08195 0.0
C1846 C 0.45069 0.13604 0.07486 0.0
C1847 C 0.42876 0.12409 0.07443 0.0
C1848 C 0.46654 0.13291 0.0967 0.0
C1849 C 0.42307 0.10872 0.09575 0.0
C1850 C 0.43879 0.10526 0.11716 0.0
C1851 C 0.47609 0.11446 0.13996 0.0
C1852 C 0.49752 0.12741 0.14168 0.0
C1853 C 0.46052 0.11737 0.11798 0.0
C1854 C 0.5033 0.1427 0.12018 0.0
C1855 C 0.48814 0.14527 0.09795 0.0
H1856 H 0.17488 0.83759 0.19876 0.0
H1857 H 0.10589 0.82662 0.23398 0.0
H1858 H 0.09912 0.79301 0.20321 0.0
H1859 H 0.11238 0.76831 0.16422 0.0
H1860 H 0.18266 0.77962 0.13185 0.0
H1861 H 0.18909 0.81174 0.1634 0.0
C1862 C 0.15831 0.82784 0.19995 0.0
C1863 C 0.14081 0.83481 0.21856 0.0
C1864 C 0.15469 0.80871 0.18241 0.0
C1865 C 0.11964 0.82171 0.21986 0.0
C1866 C 0.11578 0.80254 0.20217 0.0
C1867 C 0.12924 0.77755 0.16429 0.0
C1868 C 0.14678 0.77165 0.14498 0.0
C1869 C 0.13311 0.79605 0.18306 0.0
C1870 C 0.16847 0.78403 0.14563 0.0
C1871 C 0.1723 0.80237 0.16391 0.0
H1872 H 0.48146 0.86075 0.40323 0.0
H1873 H 0.50648 0.93268 0.41243 0.0
H1874 H 0.4781 0.93918 0.44869 0.0
H1875 H 0.44526 0.92509 0.47703 0.0
H1876 H 0.41954 0.85352 0.46808 0.0
H1877 H 0.44912 0.84616 0.43289 0.0
C1878 C 0.48089 0.87777 0.41335 0.0
C1879 C 0.49614 0.89624 0.40482 0.0
C1880 C 0.46435 0.88146 0.43435 0.0
C1881 C 0.49483 0.91824 0.41812 0.0
C1882 C 0.47864 0.92195 0.43903 0.0
C1883 C 0.44629 0.90777 0.46761 0.0
C1884 C 0.43029 0.8898 0.47544 0.0
C1885 C 0.46319 0.90379 0.44719 0.0
C1886 C 0.43181 0.86755 0.46281 0.0
C1887 C 0.44865 0.8634 0.44251 0.0
H1888 H 0.38486 0.25693 0.6787 0.0
H1889 H 0.36018 0.21526 0.61134 0.0
H1890 H 0.35813 0.18028 0.6397 0.0
H1891 H 0.36302 0.1611 0.68331 0.0
H1892 H 0.38972 0.20082 0.75075 0.0
H1893 H 0.3918 0.23677 0.72261 0.0
C1894 C 0.37918 0.24019 0.67014 0.0
C1895 C 0.37228 0.23911 0.64279 0.0
C1896 C 0.37858 0.21967 0.68655 0.0
C1897 C 0.36489 0.2171 0.63234 0.0
C1898 C 0.36397 0.19687 0.64851 0.0
C1899 C 0.36948 0.1776 0.69183 0.0
C1900 C 0.37623 0.17834 0.71903 0.0
C1901 C 0.3707 0.19795 0.67557 0.0
C1902 C 0.38468 0.19977 0.72977 0.0
C1903 C 0.38568 0.22033 0.71371 0.0
H1904 H 0.09758 0.14356 0.93798 0.0
H1905 H 0.05956 0.10761 1.00092 0.0
H1906 H 0.02376 0.1064 0.97269 0.0
H1907 H 1.004 0.1135 0.92838 0.0
H1908 H 0.04328 0.14844 0.86548 0.0
H1909 H 0.07752 0.15259 0.89527 0.0
C1910 C 0.08118 0.13618 0.94578 0.0
C1911 C 0.08091 0.12643 0.97178 0.0
C1912 C 0.0609 0.13521 0.92922 0.0
C1913 C 0.05988 0.11606 0.98135 0.0
C1914 C 0.03952 0.11509 0.96503 0.0
C1915 C 0.02001 0.12222 0.92141 0.0
C1916 C 0.02117 0.13062 0.89471 0.0
C1917 C 0.03989 0.12431 0.93871 0.0
C1918 C 0.04205 0.14172 0.88585 0.0
C1919 C 0.06162 0.14412 0.9029 0.0
H1920 H 0.90596 0.82025 0.72697 0.0
H1921 H 0.83311 0.84183 0.7176 0.0
H1922 H 0.8279 0.8133 0.68097 0.0
H1923 H 0.84415 0.78233 0.65118 0.0
H1924 H 0.91694 0.76015 0.66099 0.0
H1925 H 0.92185 0.78811 0.698 0.0
C1926 C 0.88893 0.81847 0.71702 0.0
C1927 C 0.86987 0.83293 0.72511 0.0
C1928 C 0.88599 0.80176 0.69607 0.0
C1929 C 0.84793 0.83064 0.71193 0.0
C1930 C 0.84498 0.81439 0.69092 0.0
C1931 C 0.86113 0.78363 0.66132 0.0
C1932 C 0.88013 0.769 0.65307 0.0
C1933 C 0.86389 0.79986 0.68272 0.0
C1934 C 0.90186 0.77084 0.66693 0.0
C1935 C 0.90477 0.78702 0.68806 0.0
H1936 H 1.00671 0.1296 0.43086 0.0
H1937 H 0.96232 0.11819 0.36123 0.0
H1938 H 0.92714 0.11906 0.38927 0.0
H1939 H 0.90871 0.12145 0.43331 0.0
H1940 H 0.95132 0.13385 0.50375 0.0
H1941 H 0.98738 0.1346 0.47576 0.0
C1942 C 0.98932 0.12745 0.42187 0.0
C1943 C 0.98732 0.1233 0.39395 0.0
C1944 C 0.96882 0.12827 0.43823 0.0
C1945 C 0.96457 0.12065 0.38267 0.0
C1946 C 0.94434 0.12138 0.39867 0.0
C1947 C 0.92589 0.12465 0.4425 0.0
C1948 C 0.92745 0.12768 0.47043 0.0
C1949 C 0.94626 0.12493 0.4264 0.0
C1950 C 0.94972 0.13183 0.48217 0.0
C1951 C 0.97031 0.13202 0.46619 0.0
H1952 H 0.60945 0.23357 0.15594 0.0
H1953 H 0.68426 0.25001 0.1567 0.0
H1954 H 0.69046 0.22199 0.19333 0.0
H1955 H 0.67524 0.19195 0.22427 0.0
H1956 H 0.60096 0.17398 0.22365 0.0
H1957 H 0.59385 0.20374 0.18841 0.0
C1958 C 0.62704 0.23124 0.16436 0.0
C1959 C 0.64638 0.24388 0.15329 0.0
C1960 C 0.63058 0.21486 0.18559 0.0
C1961 C 0.66909 0.24035 0.16438 0.0
C1962 C 0.67266 0.22438 0.1855 0.0
C1963 C 0.6574 0.19468 0.2167 0.0
C1964 C 0.63861 0.18079 0.22678 0.0
C1965 C 0.65361 0.21142 0.19612 0.0
C1966 C 0.6157 0.18447 0.21642 0.0
C1967 C 0.61168 0.20145 0.19616 0.0
H1968 H 0.53205 0.92056 0.90538 0.0
H1969 H 0.50769 0.84877 0.91769 0.0
H1970 H 0.53553 0.84395 0.9549 0.0
H1971 H 0.56844 0.85946 0.98306 0.0
H1972 H 0.59208 0.9314 0.97127 0.0
H1973 H 0.56346 0.93664 0.93471 0.0
C1974 C 0.53282 0.90383 0.91614 0.0
C1975 C 0.51765 0.88507 0.90851 0.0
C1976 C 0.54894 0.90114 0.93771 0.0
C1977 C 0.51883 0.86367 0.92314 0.0
C1978 C 0.53492 0.86081 0.94439 0.0
C1979 C 0.56696 0.87637 0.97275 0.0
C1980 C 0.58203 0.89516 0.98018 0.0
C1981 C 0.55022 0.87934 0.9518 0.0
C1982 C 0.58029 0.91686 0.96631 0.0
C1983 C 0.56403 0.91981 0.94527 0.0
H1984 H 0.88816 0.25666 0.87407 0.0
H1985 H 0.85261 0.21917 0.93832 0.0
H1986 H 0.84988 0.18397 0.91054 0.0
H1987 H 0.85712 0.1636 0.86861 0.0
H1988 H 0.89279 0.19904 0.80334 0.0
H1989 H 0.8966 0.23506 0.83118 0.0
C1990 C 0.87991 0.24076 0.882 0.0
C1991 C 0.87024 0.24089 0.90828 0.0
C1992 C 0.87865 0.22013 0.86588 0.0
C1993 C 0.85959 0.22003 0.91807 0.0
C1994 C 0.85825 0.19969 0.90228 0.0
C1995 C 0.86584 0.17916 0.86037 0.0
C1996 C 0.87458 0.1787 0.83391 0.0
C1997 C 0.86764 0.19957 0.87624 0.0
C1998 C 0.88604 0.19892 0.82371 0.0
C1999 C 0.88803 0.21952 0.83959 0.0
H2000 H 0.54803 0.13183 0.66439 0.0
H2001 H 0.48768 0.11983 0.61282 0.0
H2002 H 0.51377 0.1183 0.57363 0.0
H2003 H 0.55419 0.11848 0.55396 0.0
H2004 H 0.61426 0.13189 0.60518 0.0
H2005 H 0.5881 0.1345 0.64436 0.0
C2006 C 0.54057 0.12882 0.64459 0.0
C2007 C 0.51581 0.12585 0.64173 0.0
C2008 C 0.55572 0.12828 0.62196 0.0
C2009 C 0.50655 0.12233 0.61575 0.0
C2010 C 0.52151 0.12137 0.59326 0.0
C2011 C 0.56141 0.12262 0.57361 0.0
C2012 C 0.58608 0.12566 0.57653 0.0
C2013 C 0.54615 0.12422 0.59609 0.0
C2014 C 0.5953 0.13029 0.60224 0.0
C2015 C 0.58033 0.13149 0.62472 0.0
H2016 H 0.64541 0.85349 0.3678 0.0
H2017 H 0.62858 0.81028 0.29908 0.0
H2018 H 0.62735 0.77474 0.32802 0.0
H2019 H 0.63301 0.75597 0.37314 0.0
H2020 H 0.64836 0.80104 0.4412 0.0
H2021 H 0.64845 0.83568 0.41223 0.0
C2022 C 0.64115 0.83631 0.35919 0.0
C2023 C 0.63698 0.83444 0.33145 0.0
C2024 C 0.64054 0.81622 0.37585 0.0
C2025 C 0.63148 0.81216 0.3205 0.0
C2026 C 0.63102 0.79186 0.33703 0.0
C2027 C 0.63622 0.77338 0.38164 0.0
C2028 C 0.64121 0.77563 0.40941 0.0
C2029 C 0.63581 0.79363 0.36477 0.0
C2030 C 0.64526 0.79847 0.41992 0.0
C2031 C 0.64505 0.81844 0.40339 0.0
H2032 H 0.91576 0.91156 0.11419 0.0
H2033 H 0.94703 0.86359 0.0568 0.0
H2034 H 0.98281 0.86057 0.08508 0.0
H2035 H 1.00517 0.87212 0.12636 0.0
H2036 H 0.97191 0.91949 0.18333 0.0
H2037 H 0.93724 0.92253 0.15462 0.0
C2038 C 0.93037 0.90039 0.10774 0.0
C2039 C 0.92872 0.88783 0.08335 0.0
C2040 C 0.95068 0.89883 0.12398 0.0
C2041 C 0.9478 0.87337 0.07551 0.0
C2042 C 0.96827 0.87173 0.09166 0.0
C2043 C 0.99031 0.88303 0.13256 0.0
C2044 C 0.99153 0.89578 0.15705 0.0
C2045 C 0.96993 0.88445 0.11599 0.0
C2046 C 0.972 0.90993 0.16446 0.0
C2047 C 0.95193 0.91151 0.14814 0.0
H2048 H 0.67854 0.67985 0.84486 0.0
H2049 H 0.60563 0.68519 0.81967 0.0
H2050 H 0.59933 0.71807 0.8512 0.0
H2051 H 0.61438 0.74366 0.88825 0.0
H2052 H 0.68935 0.74207 0.90674 0.0
H2053 H 0.69498 0.70973 0.8753 0.0
C2054 C 0.66128 0.68831 0.84609 0.0
C2055 C 0.64228 0.67932 0.83084 0.0
C2056 C 0.65817 0.70794 0.86317 0.0
C2057 C 0.6203 0.69105 0.83198 0.0
C2058 C 0.61677 0.71003 0.84988 0.0
C2059 C 0.63206 0.73662 0.88515 0.0
C2060 C 0.65119 0.74494 0.90102 0.0
C2061 C 0.63552 0.71838 0.866 0.0
C2062 C 0.67395 0.73549 0.8961 0.0
C2063 C 0.67732 0.71704 0.8778 0.0
H2064 H 0.55292 0.38413 0.05559 0.0
H2065 H 0.61209 0.39672 0.10873 0.0
H2066 H 0.58544 0.3989 0.14706 0.0
H2067 H 0.54576 0.3955 0.16632 0.0
H2068 H 0.48589 0.38202 0.11454 0.0
H2069 H 0.51218 0.38145 0.07538 0.0
C2070 C 0.55987 0.38744 0.07556 0.0
C2071 C 0.58455 0.39009 0.07919 0.0
C2072 C 0.54431 0.38824 0.09798 0.0
C2073 C 0.59326 0.39432 0.10528 0.0
C2074 C 0.578 0.39562 0.12732 0.0
C2075 C 0.5383 0.39276 0.14648 0.0
C2076 C 0.51372 0.38884 0.14365 0.0
C2077 C 0.55354 0.39235 0.12402 0.0
C2078 C 0.5047 0.38483 0.1176 0.0
C2079 C 0.51976 0.38463 0.09507 0.0
H2080 H 0.86934 0.30629 0.30868 0.0
H2081 H 0.88208 0.36626 0.36024 0.0
H2082 H 0.88494 0.33985 0.39931 0.0
H2083 H 0.88226 0.29967 0.41913 0.0
H2084 H 0.87087 0.23947 0.36721 0.0
H2085 H 0.86955 0.26574 0.3281 0.0
C2086 C 0.87345 0.31343 0.32838 0.0
C2087 C 0.87614 0.33811 0.33149 0.0
C2088 C 0.87514 0.29805 0.35076 0.0
C2089 C 0.88073 0.34726 0.35722 0.0
C2090 C 0.88206 0.33217 0.37961 0.0
C2091 C 0.87942 0.29229 0.39927 0.0
C2092 C 0.87652 0.26753 0.39629 0.0
C2093 C 0.87899 0.30753 0.3767 0.0
C2094 C 0.87326 0.25835 0.37024 0.0
C2095 C 0.87244 0.27341 0.3478 0.0
H2096 H 0.95937 0.61503 0.55772 0.0
H2097 H 0.9007 0.63664 0.60739 0.0
H2098 H 0.92712 0.63983 0.64631 0.0
H2099 H 0.96691 0.63536 0.66667 0.0
H2100 H 0.02609 0.61573 0.61646 0.0
H2101 H 0.99981 0.61342 0.57744 0.0
C2102 C 0.95256 0.621 0.57694 0.0
C2103 C 0.9282 0.62609 0.57954 0.0
C2104 C 0.968 0.62307 0.59923 0.0
C2105 C 0.91947 0.63329 0.60469 0.0
C2106 C 0.93456 0.63486 0.62704 0.0
C2107 C 0.97407 0.63052 0.64721 0.0
C2108 C 0.99854 0.62558 0.6447 0.0
C2109 C 0.95885 0.62958 0.62464 0.0
C2110 C 0.00744 0.61973 0.61911 0.0
C2111 C 0.99237 0.61832 0.59673 0.0
H2112 H 0.67565 0.32819 0.71708 0.0
H2113 H 0.6 0.33767 0.72231 0.0
H2114 H 0.59397 0.3051 0.69036 0.0
H2115 H 0.61073 0.27624 0.65802 0.0
H2116 H 0.68663 0.26552 0.65562 0.0
H2117 H 0.69203 0.2963 0.68932 0.0
C2118 C 0.65781 0.32287 0.71154 0.0
C2119 C 0.63826 0.3354 0.72187 0.0
C2120 C 0.65458 0.30407 0.69342 0.0
C2121 C 0.61528 0.32825 0.71474 0.0
C2122 C 0.61188 0.30971 0.69631 0.0
C2123 C 0.62843 0.28024 0.66521 0.0
C2124 C 0.64827 0.26878 0.65369 0.0
C2125 C 0.63146 0.29779 0.68511 0.0
C2126 C 0.67105 0.27445 0.66337 0.0
C2127 C 0.67418 0.29197 0.68285 0.0
H2128 H 0.91581 0.41364 0.93888 0.0
H2129 H 0.94669 0.36685 0.99795 0.0
H2130 H 0.98212 0.36221 0.96934 0.0
H2131 H 1.00449 0.37256 0.92745 0.0
H2132 H 0.97154 0.41932 0.86944 0.0
H2133 H 0.93693 0.42313 0.89802 0.0
C2134 C 0.93026 0.40237 0.94565 0.0
C2135 C 0.92867 0.39071 0.9706 0.0
C2136 C 0.95033 0.39999 0.92933 0.0
C2137 C 0.94747 0.376 0.97881 0.0
C2138 C 0.96773 0.37345 0.96248 0.0
C2139 C 0.9897 0.38352 0.92109 0.0
C2140 C 0.99094 0.39595 0.89639 0.0
C2141 C 0.96942 0.38551 0.93769 0.0
C2142 C 0.97152 0.41006 0.88854 0.0
C2143 C 0.95153 0.41209 0.90478 0.0
H2144 H 0.84871 0.72737 0.14687 0.0
H2145 H 0.90859 0.76786 0.17551 0.0
H2146 H 0.91237 0.7414 0.21413 0.0
H2147 H 0.89999 0.70518 0.23902 0.0
H2148 H 0.84115 0.66417 0.20924 0.0
H2149 H 0.83597 0.69194 0.17181 0.0
C2150 C 0.86271 0.73041 0.16141 0.0
C2151 C 0.87834 0.74975 0.15798 0.0
C2152 C 0.86507 0.71483 0.18348 0.0
C2153 C 0.89602 0.75345 0.17757 0.0
C2154 C 0.89836 0.73814 0.19967 0.0
C2155 C 0.8859 0.7026 0.22446 0.0
C2156 C 0.87079 0.68286 0.22698 0.0
C2157 C 0.88314 0.71862 0.20276 0.0
C2158 C 0.8528 0.67942 0.20781 0.0
C2159 C 0.84989 0.69525 0.18637 0.0
H2160 H 0.60398 0.61322 0.43527 0.0
H2161 H 0.56366 0.63962 0.50239 0.0
H2162 H 0.52823 0.6429 0.47348 0.0
H2163 H 0.50853 0.63643 0.4289 0.0
H2164 H 0.55089 0.61075 0.36265 0.0
H2165 H 0.58554 0.60883 0.39149 0.0
C2166 C 0.58747 0.61987 0.4436 0.0
C2167 C 0.58639 0.62611 0.47092 0.0
C2168 C 0.56744 0.62158 0.427 0.0
C2169 C 0.56497 0.63489 0.48135 0.0
C2170 C 0.54471 0.63658 0.46484 0.0
C2171 C 0.52538 0.63055 0.42079 0.0
C2172 C 0.52681 0.62327 0.39362 0.0
C2173 C 0.54566 0.62972 0.4376 0.0
C2174 C 0.54891 0.61577 0.38354 0.0
C2175 C 0.56889 0.61488 0.39998 0.0
H2176 H 0.34297 0.28109 0.15383 0.0
H2177 H 0.41591 0.25904 0.16231 0.0
H2178 H 0.4212 0.28687 0.19944 0.0
H2179 H 0.40572 0.31937 0.22841 0.0
H2180 H 0.33253 0.34033 0.22058 0.0
H2181 H 0.32693 0.31166 0.18424 0.0
C2182 C 0.36006 0.28236 0.16372 0.0
C2183 C 0.37901 0.26788 0.15495 0.0
C2184 C 0.36302 0.29845 0.18525 0.0
C2185 C 0.40088 0.26966 0.16856 0.0
C2186 C 0.404 0.28576 0.18978 0.0
C2187 C 0.38848 0.31732 0.219 0.0
C2188 C 0.36947 0.33172 0.22749 0.0
C2189 C 0.38529 0.30045 0.19819 0.0
C2190 C 0.34731 0.32913 0.21482 0.0
C2191 C 0.34414 0.31282 0.19388 0.0
H2192 H 0.50556 0.63388 0.92933 0.0
H2193 H 0.4623 0.62255 0.85869 0.0
H2194 H 0.42706 0.62034 0.88651 0.0
H2195 H 0.40809 0.62146 0.93049 0.0
H2196 H 0.44964 0.6348 1.00155 0.0
H2197 H 0.48585 0.63706 0.97395 0.0
C2198 C 0.48843 0.63112 0.91994 0.0
C2199 C 0.48691 0.62805 0.89173 0.0
C2200 C 0.46783 0.6305 0.93612 0.0
C2201 C 0.4644 0.62428 0.88022 0.0
C2202 C 0.44406 0.62331 0.89613 0.0
C2203 C 0.42507 0.62514 0.93993 0.0
C2204 C 0.42624 0.62809 0.96795 0.0
C2205 C 0.44556 0.62639 0.92401 0.0
C2206 C 0.44827 0.63284 0.97995 0.0
C2207 C 0.46896 0.63389 0.96417 0.0
H2208 H 0.12251 0.75297 0.67451 0.0
H2209 H 0.16966 0.72043 0.61679 0.0
H2210 H 0.17354 0.68578 0.64542 0.0
H2211 H 0.16326 0.66402 0.68586 0.0
H2212 H 0.11561 0.69449 0.74413 0.0
H2213 H 0.11187 0.73038 0.71606 0.0
C2214 C 0.13358 0.73828 0.66815 0.0
C2215 C 0.14599 0.73968 0.64344 0.0
C2216 C 0.1355 0.7179 0.68471 0.0
C2217 C 0.16035 0.72038 0.63582 0.0
C2218 C 0.16241 0.70032 0.6521 0.0
C2219 C 0.152 0.67848 0.69256 0.0
C2220 C 0.13974 0.67654 0.71712 0.0
C2221 C 0.15004 0.69885 0.67645 0.0
C2222 C 0.12519 0.69547 0.7253 0.0
C2223 C 0.12313 0.716 0.70925 0.0
H2224 H 0.04618 0.40031 0.38593 0.0
H2225 H 0.98793 0.38146 0.43791 0.0
H2226 H 0.01494 0.38001 0.47643 0.0
H2227 H 0.05585 0.38364 0.49557 0.0
H2228 H 0.11336 0.40188 0.44224 0.0
H2229 H 0.08596 0.40466 0.40459 0.0
C2230 C 0.0392 0.39623 0.40571 0.0
C2231 C 0.01489 0.39107 0.40878 0.0
C2232 C 0.05484 0.3954 0.4278 0.0
C2233 C 1.00653 0.38528 0.43468 0.0
C2234 C 0.022 0.38458 0.45684 0.0
C2235 C 0.06225 0.38834 0.47572 0.0
C2236 C 0.08668 0.39244 0.47179 0.0
C2237 C 0.04628 0.38952 0.45369 0.0
C2238 C 0.09472 0.3984 0.44586 0.0
C2239 C 0.07904 0.40003 0.42423 0.0
H2240 H 0.34571 0.73238 0.40104 0.0
H2241 H 0.41531 0.76103 0.38536 0.0
H2242 H 0.41987 0.73428 0.34712 0.0
H2243 H 0.40494 0.70093 0.31911 0.0
H2244 H 0.3352 0.67291 0.33468 0.0
H2245 H 0.33009 0.70064 0.37203 0.0
C2246 C 0.36193 0.73277 0.38934 0.0
C2247 C 0.38016 0.74879 0.39637 0.0
C2248 C 0.3645 0.71723 0.36729 0.0
C2249 C 0.40083 0.74918 0.38046 0.0
C2250 C 0.40356 0.7337 0.35861 0.0
C2251 C 0.38853 0.70123 0.33048 0.0
C2252 C 0.37032 0.68517 0.32391 0.0
C2253 C 0.38562 0.71745 0.35194 0.0
C2254 C 0.34928 0.68543 0.33905 0.0
C2255 C 0.3464 0.7012 0.36052 0.0
H2256 H 0.10212 0.607 0.11552 0.0
H2257 H 0.06579 0.6422 0.0505 0.0
H2258 H 0.03009 0.64609 0.07884 0.0
H2259 H 0.00886 0.63778 0.12223 0.0
H2260 H 0.04731 0.60286 0.18622 0.0
H2261 H 0.08233 0.60041 0.15807 0.0
C2262 C 0.08643 0.61565 0.10746 0.0
C2263 C 0.08659 0.62418 0.08087 0.0
C2264 C 0.06621 0.61766 0.12371 0.0
C2265 C 0.06618 0.63556 0.07094 0.0
C2266 C 0.04575 0.63765 0.08713 0.0
C2267 C 0.02494 0.62974 0.13 0.0
C2268 C 0.02511 0.62006 0.1563 0.0
C2269 C 0.04546 0.62851 0.11356 0.0
C2270 C 0.04625 0.60982 0.16595 0.0
C2271 C 0.06646 0.60859 0.14992 0.0
H2272 H 0.17786 0.31756 0.82784 0.0
H2273 H 0.10464 0.33929 0.83047 0.0
H2274 H 0.09681 0.31016 0.86597 0.0
H2275 H 0.11139 0.27951 0.8978 0.0
H2276 H 0.18498 0.25831 0.89475 0.0
H2277 H 0.19206 0.28638 0.85833 0.0
C2278 C 0.16008 0.31579 0.83594 0.0
C2279 C 0.14178 0.33062 0.82628 0.0
C2280 C 0.15587 0.2992 0.85662 0.0
C2281 C 0.11898 0.3281 0.83727 0.0
C2282 C 0.11455 0.31146 0.85772 0.0
C2283 C 0.12892 0.28079 0.88898 0.0
C2284 C 0.14764 0.26674 0.89935 0.0
C2285 C 0.13293 0.29704 0.86777 0.0
C2286 C 0.17029 0.26905 0.88771 0.0
C2287 C 0.17435 0.28503 0.86666 0.0
H2288 H 0.50719 0.37489 0.62374 0.0
H2289 H 0.4702 0.41621 0.68369 0.0
H2290 H 0.43582 0.41907 0.65456 0.0
H2291 H 0.41629 0.41093 0.6123 0.0
H2292 H 0.45116 0.36944 0.55126 0.0
H2293 H 0.48612 0.36509 0.58075 0.0
C2294 C 0.49156 0.38441 0.63042 0.0
C2295 C 0.49162 0.39575 0.6558 0.0
C2296 C 0.47142 0.38586 0.61346 0.0
C2297 C 0.47109 0.40792 0.66408 0.0
C2298 C 0.45124 0.40939 0.64751 0.0
C2299 C 0.4315 0.40085 0.60533 0.0
C2300 C 0.43122 0.39069 0.57953 0.0
C2301 C 0.45129 0.39864 0.62217 0.0
C2302 C 0.45093 0.3774 0.57106 0.0
C2303 C 0.47093 0.37505 0.58789 0.0
H2304 H 0.12946 0.04662 0.309 0.0
H2305 H 0.11807 0.05256 0.22358 0.0
H2306 H 0.1199 0.00922 0.21918 0.0
H2307 H 0.1223 0.9696 0.2401 0.0
H2308 H 0.12849 0.96339 0.32609 0.0
H2309 H 0.1312 1.00681 0.33003 0.0
C2310 C 0.12778 0.03838 0.28939 0.0
C2311 C 0.12402 0.0527 0.26651 0.0
C2312 C 0.12769 0.01343 0.28726 0.0
C2313 C 0.12122 0.04186 0.24134 0.0
C2314 C 0.12215 0.01711 0.23888 0.0
C2315 C 0.12442 0.97781 0.25965 0.0
C2316 C 0.12537 0.96344 0.28279 0.0
C2317 C 0.125 1.00272 0.26174 0.0
C2318 C 0.12773 0.97418 0.30806 0.0
C2319 C 0.12929 0.99895 0.31027 0.0
H2320 H 0.21819 0.85912 0.55813 0.0
H2321 H 0.21412 0.88218 0.4757 0.0
H2322 H 0.25754 0.88666 0.47435 0.0
H2323 H 0.29678 0.88228 0.49635 0.0
H2324 H 0.30053 0.85605 0.57773 0.0
H2325 H 0.25715 0.85478 0.58001 0.0
C2326 C 0.22689 0.86501 0.53985 0.0
C2327 C 0.21315 0.87005 0.51691 0.0
C2328 C 0.25177 0.86709 0.53918 0.0
C2329 C 0.22447 0.87783 0.4934 0.0
C2330 C 0.24923 0.88052 0.49273 0.0
C2331 C 0.28808 0.87662 0.51471 0.0
C2332 C 0.30187 0.86945 0.53701 0.0
C2333 C 0.2631 0.87503 0.51546 0.0
C2334 C 0.29032 0.86177 0.56044 0.0
C2335 C 0.26553 0.86092 0.56167 0.0
H2336 H 0.42422 0.97109 0.75729 0.0
H2337 H 0.35413 0.95976 0.78944 0.0
H2338 H 0.34889 1.0027 0.7949 0.0
H2339 H 0.36526 0.04381 0.79221 0.0
H2340 H 0.43693 0.05358 0.76412 0.0
H2341 H 0.44057 0.01115 0.7555 0.0
C2342 C 0.40764 0.97798 0.76512 0.0
C2343 C 0.38949 0.96221 0.77259 0.0
C2344 C 0.40522 1.00253 0.7694 0.0
C2345 C 0.36827 0.97152 0.78314 0.0
C2346 C 0.36536 0.99608 0.78652 0.0
C2347 C 0.38174 0.03647 0.78462 0.0
C2348 C 0.40103 0.05169 0.77949 0.0
C2349 C 0.38389 0.01179 0.78014 0.0
C2350 C 0.42212 0.04213 0.76904 0.0
C2351 C 0.42412 0.01789 0.7638 0.0
H2352 H 0.21723 0.13486 0.98879 0.0
H2353 H 0.21273 0.14984 0.07359 0.0
H2354 H 0.25616 0.15071 0.07661 0.0
H2355 H 0.29534 0.14911 0.0547 0.0
H2356 H 0.29995 0.13831 0.96916 0.0
H2357 H 0.25657 0.13396 0.96664 0.0
C2358 C 0.22579 0.13805 1.00797 0.0
C2359 C 0.21182 0.14206 0.03106 0.0
C2360 C 0.25076 0.1395 1.00928 0.0
C2361 C 0.22313 0.14662 0.05565 0.0
C2362 C 0.24793 0.14718 0.05733 0.0
C2363 C 0.28679 0.14572 0.03553 0.0
C2364 C 0.30071 0.14396 1.0121 0.0
C2365 C 0.2619 0.14396 0.03423 0.0
C2366 C 0.28953 0.1398 0.98736 0.0
C2367 C 0.26477 0.13727 0.98599 0.0
H2368 H 0.91325 0.04633 0.80084 0.0
H2369 H 0.86053 0.05126 0.7385 0.0
H2370 H 0.85659 0.00773 0.73802 0.0
H2371 H 0.87052 0.96796 0.75349 0.0
H2372 H 0.92466 0.96397 0.81452 0.0
H2373 H 0.92532 1.00723 0.818 0.0
C2374 C 0.90099 0.03777 0.78711 0.0
C2375 C 0.88759 0.05173 0.76929 0.0
C2376 C 0.89886 0.0129 0.78707 0.0
C2377 C 0.87135 0.04069 0.75198 0.0
C2378 C 0.86901 0.01586 0.75186 0.0
C2379 C 0.8819 0.97664 0.76806 0.0
C2380 C 0.89727 0.96286 0.7841 0.0
C2381 C 0.88288 1.00171 0.76913 0.0
C2382 C 0.91247 0.97426 0.8023 0.0
C2383 C 0.91303 0.99899 0.80409 0.0
H2384 H 0.719 0.16425 0.55577 0.0
H2385 H 0.71384 0.1176 0.48754 0.0
H2386 H 0.75719 0.11265 0.48734 0.0
H2387 H 0.79657 0.12354 0.50516 0.0
H2388 H 0.80169 0.17183 0.57214 0.0
H2389 H 0.75834 0.17359 0.57495 0.0
C2390 C 0.72747 0.15297 0.54094 0.0
C2391 C 0.71348 0.14153 0.52145 0.0
C2392 C 0.75232 0.15038 0.54094 0.0
C2393 C 0.7244 0.12671 0.50251 0.0
C2394 C 0.74912 0.12387 0.50248 0.0
C2395 C 0.78823 0.13436 0.52048 0.0
C2396 C 0.8024 0.14783 0.53821 0.0
C2397 C 0.76329 0.13589 0.52138 0.0
C2398 C 0.79124 0.16148 0.55813 0.0
C2399 C 0.76645 0.16257 0.55965 0.0
H2400 H 0.59849 0.04379 0.24794 0.0
H2401 H 0.64912 0.05013 0.31233 0.0
H2402 H 0.65453 1.00676 0.31281 0.0
H2403 H 0.64289 0.9669 0.29633 0.0
H2404 H 0.59174 0.96118 0.23207 0.0
H2405 H 0.58875 1.00441 0.22974 0.0
C2406 C 0.6107 0.03557 0.26204 0.0
C2407 C 0.62313 0.04985 0.28038 0.0
C2408 C 0.61366 0.01079 0.26208 0.0
C2409 C 0.6392 0.0393 0.2983 0.0
C2410 C 0.6423 0.01457 0.29849 0.0
C2411 C 0.63133 0.97513 0.28157 0.0
C2412 C 0.61743 0.96078 0.26446 0.0
C2413 C 0.62938 1.00009 0.28067 0.0
C2414 C 0.60254 0.97176 0.24551 0.0
C2415 C 0.60075 0.99649 0.24424 0.0
H2416 H 0.71933 0.84678 1.00141 0.0
H2417 H 0.71435 0.90235 0.06046 0.0
H2418 H 0.75765 0.90762 0.05917 0.0
H2419 H 0.79703 0.89523 0.04224 0.0
H2420 H 0.80178 0.83878 0.98405 0.0
H2421 H 0.75851 0.83557 0.9832 0.0
C2422 C 0.72786 0.85984 1.01419 0.0
C2423 C 0.71394 0.87377 0.03152 0.0
C2424 C 0.75265 0.86277 1.0132 0.0
C2425 C 0.7249 0.89114 0.04742 0.0
C2426 C 0.74958 0.8942 0.04656 0.0
C2427 C 0.78859 0.88219 0.02945 0.0
C2428 C 0.8027 0.86691 1.01366 0.0
C2429 C 0.76367 0.87996 0.02969 0.0
C2430 C 0.79142 0.85059 0.99658 0.0
C2431 C 0.76666 0.84864 0.99623 0.0
H2432 H 0.64478 0.54751 0.78703 0.0
H2433 H 0.57127 0.54986 0.76275 0.0
H2434 H 0.56913 0.5068 0.764 0.0
H2435 H 0.58713 0.46843 0.77391 0.0
H2436 H 0.66088 0.46432 0.79584 0.0
H2437 H 0.66391 0.50791 0.79417 0.0
C2438 C 0.62845 0.53852 0.78165 0.0
C2439 C 0.60815 0.55193 0.77496 0.0
C2440 C 0.62722 0.51344 0.78265 0.0
C2441 C 0.5871 0.54002 0.76811 0.0
C2442 C 0.58579 0.51535 0.76895 0.0
C2443 C 0.60377 0.47713 0.77873 0.0
C2444 C 0.62353 0.46338 0.7859 0.0
C2445 C 0.60552 0.50192 0.77674 0.0
C2446 C 0.64528 0.47471 0.79095 0.0
C2447 C 0.64704 0.49957 0.78975 0.0
H2448 H 0.79304 0.33792 0.04163 0.0
H2449 H 0.80384 0.41143 1.02097 0.0
H2450 H 0.76113 0.4168 1.01471 0.0
H2451 H 0.72036 0.40002 1.01323 0.0
H2452 H 0.71039 0.32584 0.0313 0.0
H2453 H 0.75265 0.3214 0.04061 0.0
C2454 C 0.786 0.35521 0.03629 0.0
C2455 C 0.80164 0.37428 0.03204 0.0
C2456 C 0.76142 0.35799 0.03181 0.0
C2457 C 0.79218 0.3965 1.02466 0.0
C2458 C 0.76774 0.39955 1.02083 0.0
C2459 C 0.72759 0.38285 1.0188 0.0
C2460 C 0.71235 0.36314 1.02073 0.0
C2461 C 0.75216 0.38031 1.02387 0.0
C2462 C 0.72184 0.34112 0.0287 0.0
C2463 C 0.74601 0.3386 0.03435 0.0
H2464 H 0.87664 0.54788 0.24913 0.0
H2465 H 0.90777 0.55217 0.32821 0.0
H2466 H 0.90828 0.5087 0.3312 0.0
H2467 H 0.90242 0.46949 0.31007 0.0
H2468 H 0.87442 0.46519 0.22968 0.0
H2469 H 0.87027 0.50865 0.22821 0.0
C2470 C 0.88328 0.53932 0.26718 0.0
C2471 C 0.89206 0.55328 0.28856 0.0
C2472 C 0.8843 0.51433 0.26831 0.0
C2473 C 0.90089 0.54185 0.31157 0.0
C2474 C 0.90125 0.51701 0.31322 0.0
C2475 C 0.89517 0.47815 0.29238 0.0
C2476 C 0.88855 0.46432 0.27006 0.0
C2477 C 0.89339 0.50308 0.29155 0.0
C2478 C 0.87951 0.47557 0.24707 0.0
C2479 C 0.87716 0.50037 0.24628 0.0
H2480 H 0.71829 0.64133 0.49238 0.0
H2481 H 0.71403 0.64616 0.57867 0.0
H2482 H 0.75751 0.64392 0.58179 0.0
H2483 H 0.79675 0.64291 0.55959 0.0
H2484 H 0.80084 0.64246 0.47312 0.0
H2485 H 0.75739 0.64047 0.47023 0.0
C2486 C 0.72691 0.6417 0.51187 0.0
C2487 C 0.71305 0.64379 0.53533 0.0
C2488 C 0.75184 0.64125 0.51335 0.0
C2489 C 0.72439 0.64466 0.56041 0.0
C2490 C 0.7492 0.64334 0.56215 0.0
C2491 C 0.78809 0.64201 0.54015 0.0
C2492 C 0.8019 0.64249 0.51654 0.0
C2493 C 0.76312 0.64192 0.53873 0.0
C2494 C 0.79052 0.64195 0.49148 0.0
C2495 C 0.76572 0.64089 0.48987 0.0
H2496 H 0.41392 0.54389 0.24278 0.0
H2497 H 0.36646 0.55663 0.30929 0.0
H2498 H 0.36356 0.51431 0.31785 0.0
H2499 H 0.37496 0.47302 0.30727 0.0
H2500 H 0.42062 0.45965 0.23964 0.0
H2501 H 0.42346 0.5023 0.2305 0.0
C2502 C 0.40277 0.53735 0.25892 0.0
C2503 C 0.39061 0.55359 0.27537 0.0
C2504 C 0.40089 0.51267 0.2637 0.0
C2505 C 0.37611 0.5447 0.29619 0.0
C2506 C 0.37445 0.52038 0.30126 0.0
C2507 C 0.38567 0.47958 0.29075 0.0
C2508 C 0.39806 0.46342 0.27457 0.0
C2509 C 0.38693 0.50415 0.28536 0.0
C2510 C 0.4114 0.47195 0.25274 0.0
C2511 C 0.41292 0.4963 0.24741 0.0
H2512 H 0.29515 0.62479 1.00099 0.0
H2513 H 0.30008 0.6666 0.07336 0.0
H2514 H 0.25674 0.66961 0.07512 0.0
H2515 H 0.2175 0.66231 0.05454 0.0
H2516 H 0.21275 0.62275 0.98074 0.0
H2517 H 0.25603 0.61731 0.98058 0.0
C2518 C 0.28675 0.63449 1.01722 0.0
C2519 C 0.30085 0.64566 0.03692 0.0
C2520 C 0.2619 0.63694 1.01746 0.0
C2521 C 0.28965 0.65795 0.05792 0.0
C2522 C 0.26489 0.65979 0.05882 0.0
C2523 C 0.22608 0.65273 0.03831 0.0
C2524 C 0.21224 0.64338 1.01732 0.0
C2525 C 0.25088 0.64981 0.03839 0.0
C2526 C 0.22325 0.63052 0.99671 0.0
C2527 C 0.2479 0.62726 0.99678 0.0
H2528 H 0.09076 0.47 0.75791 0.0
H2529 H 0.16196 0.45925 0.78722 0.0
H2530 H 0.16672 0.50216 0.79324 0.0
H2531 H 0.14994 0.54307 0.79131 0.0
H2532 H 0.0774 0.5525 0.766 0.0
H2533 H 0.07383 0.51002 0.75733 0.0
C2534 C 0.10746 0.47704 0.76524 0.0
C2535 C 0.1261 0.46141 0.77168 0.0
C2536 C 0.10967 0.50159 0.7698 0.0
C2537 C 0.14745 0.47089 0.78168 0.0
C2538 C 0.1501 0.49543 0.78537 0.0
C2539 C 0.13328 0.53565 0.78437 0.0
C2540 C 0.11376 0.55076 0.77997 0.0
C2541 C 0.1312 0.51097 0.77985 0.0
C2542 C 0.09241 0.5411 0.77036 0.0
C2543 C 0.09045 0.51684 0.76509 0.0
H2544 H 0.22327 0.40085 0.5404 0.0
H2545 H 0.21181 0.32809 0.51716 0.0
H2546 H 0.25411 0.32298 0.50868 0.0
H2547 H 0.29486 0.33851 0.50958 0.0
H2548 H 0.307 0.41052 0.53531 0.0
H2549 H 0.2644 0.41658 0.54114 0.0
C2550 C 0.23019 0.38384 0.53387 0.0
C2551 C 0.21457 0.36469 0.53018 0.0
C2552 C 0.25474 0.3809 0.52929 0.0
C2553 C 0.22361 0.34287 0.52103 0.0
C2554 C 0.24778 0.34 0.51588 0.0
C2555 C 0.28814 0.35563 0.516 0.0
C2556 C 0.30411 0.37405 0.5218 0.0
C2557 C 0.26359 0.3588 0.52011 0.0
C2558 C 0.29508 0.39606 0.5305 0.0
C2559 C 0.27069 0.39952 0.53402 0.0
H2560 H 0.09957 0.15386 0.10703 0.0
H2561 H 0.17058 0.12588 0.09971 0.0
H2562 H 0.17415 0.12353 0.14825 0.0
H2563 H 0.15718 0.1273 0.19257 0.0
H2564 H 0.08577 0.1534 0.20258 0.0
H2565 H 0.08238 0.1587 0.15361 0.0
C2566 C 0.11589 0.14765 0.11618 0.0
C2567 C 0.13484 0.14013 0.09958 0.0
C2568 C 0.11776 0.14583 0.14467 0.0
C2569 C 0.15572 0.13175 0.11185 0.0
C2570 C 0.15781 0.13036 0.1397 0.0
C2571 C 0.14081 0.13437 0.18433 0.0
C2572 C 0.12179 0.13998 0.20162 0.0
C2573 C 0.1389 0.13701 0.15629 0.0
C2574 C 0.10079 0.14893 0.19 0.0
C2575 C 0.09884 0.15194 0.16189 0.0
H2576 H 0.13768 0.90839 0.44297 0.0
H2577 H 0.11035 0.83729 0.45162 0.0
H2578 H 0.10482 0.83478 0.40271 0.0
H2579 H 0.11021 0.85233 0.35657 0.0
H2580 H 0.1392 0.92299 0.35016 0.0
H2581 H 0.14141 0.92607 0.39876 0.0
C2582 C 0.13032 0.89231 0.43437 0.0
C2583 C 0.1245 0.87305 0.45122 0.0
C2584 C 0.12749 0.89089 0.40632 0.0
C2585 C 0.11503 0.85245 0.43931 0.0
C2586 C 0.11189 0.85099 0.41125 0.0
C2587 C 0.11657 0.86848 0.36593 0.0
C2588 C 0.1245 0.88743 0.34962 0.0
C2589 C 0.11833 0.87003 0.39439 0.0
C2590 C 0.13304 0.90813 0.36212 0.0
C2591 C 0.13437 0.90992 0.39 0.0
H2592 H 0.41537 0.89987 0.69211 0.0
H2593 H 0.3685 0.84146 0.70899 0.0
H2594 H 0.36514 0.83285 0.66087 0.0
H2595 H 0.37256 0.84419 0.6132 0.0
H2596 H 0.41637 0.90506 0.59659 0.0
H2597 H 0.42398 0.91028 0.6446 0.0
C2598 C 0.40496 0.88488 0.68526 0.0
C2599 C 0.39267 0.87097 0.70433 0.0
C2600 C 0.40237 0.88056 0.65726 0.0
C2601 C 0.3785 0.85217 0.69489 0.0
C2602 C 0.37645 0.84733 0.66727 0.0
C2603 C 0.3843 0.85816 0.62008 0.0
C2604 C 0.39428 0.8739 0.60106 0.0
C2605 C 0.38794 0.86164 0.64811 0.0
C2606 C 0.40874 0.89245 0.6106 0.0
C2607 C 0.41301 0.89555 0.63817 0.0
H2608 H 0.37473 0.16531 0.85452 0.0
H2609 H 0.42282 0.10599 0.85073 0.0
H2610 H 0.424 0.10402 0.89995 0.0
H2611 H 0.40885 0.11739 0.94428 0.0
H2612 H 0.36386 0.1791 0.94826 0.0
H2613 H 0.36407 0.18216 0.89908 0.0
C2614 C 0.38596 0.1524 0.86455 0.0
C2615 C 0.39895 0.13601 0.84901 0.0
C2616 C 0.38696 0.15174 0.89296 0.0
C2617 C 0.41309 0.1191 0.86224 0.0
C2618 C 0.41358 0.11783 0.8904 0.0
C2619 C 0.39957 0.13182 0.93434 0.0
C2620 C 0.38649 0.14813 0.94989 0.0
C2621 C 0.4003 0.13382 0.90601 0.0
C2622 C 0.37435 0.16659 0.93677 0.0
C2623 C 0.37433 0.16822 0.90862 0.0
H2624 H 0.89763 0.84523 0.85648 0.0
H2625 H 0.89215 0.92142 0.85095 0.0
H2626 H 0.89092 0.92453 0.89974 0.0
H2627 H 0.88828 0.9059 0.94383 0.0
H2628 H 0.89341 0.82981 0.95131 0.0
H2629 H 0.89817 0.82638 0.90236 0.0
C2630 C 0.89689 0.86248 0.86607 0.0
C2631 C 0.89535 0.88314 0.85001 0.0
C2632 C 0.89582 0.86417 0.89458 0.0
C2633 C 0.8937 0.90532 0.86279 0.0
C2634 C 0.89281 0.90711 0.89075 0.0
C2635 C 0.89063 0.88849 0.93492 0.0
C2636 C 0.89032 0.86813 0.95146 0.0
C2637 C 0.89334 0.88668 0.90683 0.0
C2638 C 0.89359 0.84583 0.93925 0.0
C2639 C 0.89625 0.84386 0.91115 0.0
H2640 H 0.91314 0.15542 0.69409 0.0
H2641 H 0.85586 0.10451 0.70004 0.0
H2642 H 0.85117 0.10449 0.65212 0.0
H2643 H 0.86212 0.11832 0.60829 0.0
H2644 H 0.91823 0.16944 0.59844 0.0
H2645 H 0.92457 0.16984 0.64755 0.0
C2646 C 0.89982 0.14424 0.68481 0.0
C2647 C 0.8848 0.13018 0.70117 0.0
C2648 C 0.89689 0.14425 0.65635 0.0
C2649 C 0.86757 0.11585 0.6885 0.0
C2650 C 0.86481 0.11567 0.66083 0.0
C2651 C 0.87591 0.12952 0.6167 0.0
C2652 C 0.88978 0.14366 0.59959 0.0
C2653 C 0.87921 0.12979 0.6446 0.0
C2654 C 0.90722 0.15837 0.61112 0.0
C2655 C 0.91087 0.15852 0.63923 0.0
H2656 H 0.61543 0.10919 0.44431 0.0
H2657 H 0.63469 0.18306 0.44985 0.0
H2658 H 0.632 0.18683 0.40081 0.0
H2659 H 0.62715 0.16805 0.35556 0.0
H2660 H 0.60603 0.0947 0.35108 0.0
H2661 H 0.60645 0.0918 0.40013 0.0
C2662 C 0.61874 0.12623 0.43488 0.0
C2663 C 0.62535 0.1458 0.45095 0.0
C2664 C 0.61688 0.12833 0.40664 0.0
C2665 C 0.62942 0.16773 0.43817 0.0
C2666 C 0.62802 0.16985 0.41002 0.0
C2667 C 0.62202 0.15168 0.36543 0.0
C2668 C 0.61611 0.1317 0.34967 0.0
C2669 C 0.62212 0.15018 0.39393 0.0
C2670 C 0.61009 0.11043 0.36273 0.0
C2671 C 0.61053 0.10871 0.39082 0.0
H2672 H 0.59712 0.8655 0.1058 0.0
H2673 H 0.67267 0.87712 0.10135 0.0
H2674 H 0.67525 0.87837 0.15009 0.0
H2675 H 0.6563 0.87899 0.19375 0.0
H2676 H 0.58082 0.86824 0.20068 0.0
H2677 H 0.578 0.86354 0.15159 0.0
C2678 C 0.61415 0.86769 0.11562 0.0
C2679 C 0.63475 0.87102 0.09984 0.0
C2680 C 0.61552 0.86881 0.14416 0.0
C2681 C 0.65661 0.87437 0.11293 0.0
C2682 C 0.6581 0.87521 0.14087 0.0
C2683 C 0.63913 0.87548 0.18473 0.0
C2684 C 0.61877 0.87415 0.20112 0.0
C2685 C 0.63768 0.87294 0.15666 0.0
C2686 C 0.59683 0.86936 0.18872 0.0
C2687 C 0.59522 0.86674 0.16056 0.0
H2688 H 0.59417 0.62297 0.69156 0.0
H2689 H 0.65608 0.66557 0.70721 0.0
H2690 H 0.66145 0.67238 0.6591 0.0
H2691 H 0.65087 0.66327 0.61198 0.0
H2692 H 0.59125 0.61782 0.5958 0.0
H2693 H 0.5825 0.61526 0.64403 0.0
C2694 C 0.60839 0.6343 0.68441 0.0
C2695 C 0.62443 0.64415 0.7031 0.0
C2696 C 0.61192 0.63745 0.65636 0.0
C2697 C 0.64327 0.65809 0.69336 0.0
C2698 C 0.64646 0.66187 0.66576 0.0
C2699 C 0.63564 0.65329 0.61905 0.0
C2700 C 0.62142 0.64113 0.60031 0.0
C2701 C 0.63122 0.65126 0.64698 0.0
C2702 C 0.60222 0.62762 0.60981 0.0
C2703 C 0.59729 0.62607 0.63744 0.0
H2704 H 0.63576 0.34723 0.85736 0.0
H2705 H 0.60222 0.41579 0.85185 0.0
H2706 H 0.60003 0.41815 0.90093 0.0
H2707 H 0.61039 0.40201 0.94559 0.0
H2708 H 0.64117 0.33222 0.95169 0.0
H2709 H 0.64157 0.32883 0.90251 0.0
C2710 C 0.62753 0.3624 0.867 0.0
C2711 C 0.61898 0.38126 0.85109 0.0
C2712 C 0.62595 0.36343 0.89537 0.0
C2713 C 0.60862 0.40096 0.86373 0.0
C2714 C 0.6075 0.40237 0.89179 0.0
C2715 C 0.61667 0.38585 0.93612 0.0
C2716 C 0.62556 0.3673 0.95226 0.0
C2717 C 0.61644 0.38389 0.90785 0.0
C2718 C 0.63384 0.34655 0.93974 0.0
C2719 C 0.63427 0.34472 0.91159 0.0
H2720 H 0.87304 0.40669 0.10957 0.0
H2721 H 0.90834 0.33942 0.09891 0.0
H2722 H 0.91505 0.33687 0.14775 0.0
H2723 H 0.90876 0.35339 0.19446 0.0
H2724 H 0.87256 0.42064 0.20207 0.0
H2725 H 0.86846 0.42344 0.15372 0.0
C2726 C 0.88237 0.39142 0.11767 0.0
C2727 C 0.89009 0.37326 0.10034 0.0
C2728 C 0.88599 0.39005 0.14554 0.0
C2729 C 0.90206 0.35367 0.11165 0.0
C2730 C 0.90593 0.35223 0.13965 0.0
C2731 C 0.90043 0.36879 0.18539 0.0
C2732 C 0.89097 0.38679 0.20203 0.0
C2733 C 0.89776 0.37027 0.15697 0.0
C2734 C 0.87994 0.4065 0.18988 0.0
C2735 C 0.87751 0.40814 0.16215 0.0
H2736 H 0.90539 0.60876 0.36094 0.0
H2737 H 0.88165 0.67982 0.34426 0.0
H2738 H 0.87992 0.68838 0.39272 0.0
H2739 H 0.8817 0.67402 0.44053 0.0
H2740 H 0.90614 0.60256 0.45548 0.0
H2741 H 0.91127 0.59602 0.40766 0.0
C2742 C 0.90044 0.62631 0.36795 0.0
C2743 C 0.89405 0.64375 0.34905 0.0
C2744 C 0.8994 0.63101 0.39581 0.0
C2745 C 0.88711 0.66624 0.35841 0.0
C2746 C 0.88595 0.67106 0.38618 0.0
C2747 C 0.88875 0.65729 0.43334 0.0
C2748 C 0.89339 0.63882 0.45193 0.0
C2749 C 0.89163 0.65342 0.40523 0.0
C2750 C 0.90222 0.61712 0.44192 0.0
C2751 C 0.90515 0.61326 0.41441 0.0
H2752 H 0.42236 0.37564 0.3583 0.0
H2753 H 0.3465 0.3756 0.34582 0.0
H2754 H 0.33983 0.37222 0.39368 0.0
H2755 H 0.35471 0.37259 0.43984 0.0
H2756 H 0.42985 0.37051 0.45462 0.0
H2757 H 0.43756 0.37133 0.40586 0.0
C2758 C 0.40444 0.3744 0.36604 0.0
C2759 C 0.38501 0.37624 0.34808 0.0
C2760 C 0.40048 0.37232 0.3943 0.0
C2761 C 0.3619 0.37465 0.35883 0.0
C2762 C 0.35795 0.3727 0.3864 0.0
C2763 C 0.37278 0.3719 0.43236 0.0
C2764 C 0.39165 0.3714 0.45082 0.0
C2765 C 0.377 0.37208 0.40439 0.0
C2766 C 0.41498 0.37061 0.44082 0.0
C2767 C 0.41937 0.37123 0.41288 0.0
H2768 H 0.36094 0.61809 0.19362 0.0
H2769 H 0.42191 0.66335 0.20392 0.0
H2770 H 0.42377 0.66951 0.15493 0.0
H2771 H 0.40806 0.66081 0.10834 0.0
H2772 H 0.34725 0.61445 0.10139 0.0
H2773 H 0.34549 0.61015 0.14956 0.0
C2774 C 0.37468 0.62945 0.1854 0.0
C2775 C 0.39122 0.64025 0.20266 0.0
C2776 C 0.37572 0.63271 0.15748 0.0
C2777 C 0.40891 0.65474 0.19122 0.0
C2778 C 0.40995 0.65828 0.16314 0.0
C2779 C 0.39437 0.64998 0.11747 0.0
C2780 C 0.37798 0.63782 0.10093 0.0
C2781 C 0.39344 0.64724 0.14591 0.0
C2782 C 0.36038 0.62379 0.11328 0.0
C2783 C 0.35923 0.6213 0.14101 0.0
H2784 H 0.09616 0.61728 0.85993 0.0
H2785 H 0.15403 0.66513 0.8441 0.0
H2786 H 0.1587 0.67254 0.89226 0.0
H2787 H 0.14857 0.66298 0.93958 0.0
H2788 H 0.09364 0.6119 0.95569 0.0
H2789 H 0.08543 0.60835 0.90744 0.0
C2790 C 0.10934 0.6298 0.86704 0.0
C2791 C 0.12435 0.6411 0.84826 0.0
C2792 C 0.11258 0.63327 0.89511 0.0
C2793 C 0.14196 0.65656 0.85799 0.0
C2794 C 0.14474 0.66069 0.88562 0.0
C2795 C 0.13444 0.65152 0.9325 0.0
C2796 C 0.12134 0.63813 0.95133 0.0
C2797 C 0.13045 0.64887 0.90449 0.0
C2798 C 0.10368 0.6227 0.94171 0.0
C2799 C 0.09907 0.62057 0.91404 0.0
H2800 H 0.15897 0.38195 0.69245 0.0
H2801 H 0.08522 0.36334 0.70166 0.0
H2802 H 0.0818 0.35816 0.65271 0.0
H2803 H 0.09965 0.3616 0.60619 0.0
H2804 H 0.17349 0.38107 0.59976 0.0
H2805 H 0.17679 0.38319 0.64829 0.0
C2806 C 0.14206 0.37656 0.68402 0.0
C2807 C 0.12238 0.37312 0.70112 0.0
C2808 C 0.1402 0.37381 0.65596 0.0
C2809 C 0.10075 0.36617 0.68926 0.0
C2810 C 0.09878 0.36323 0.66113 0.0
C2811 C 0.11653 0.36572 0.61551 0.0
C2812 C 0.13637 0.37101 0.59909 0.0
C2813 C 0.11836 0.36727 0.64408 0.0
C2814 C 0.15797 0.37681 0.61169 0.0
C2815 C 0.1599 0.37814 0.63957 0.0
loop_
_geom_bond_atom_site_label_1
_geom_bond_atom_site_label_2
_geom_bond_distance
_geom_bond_site_symmetry_2
_ccdc_geom_bond_type
Pr0 C2 2.880 . S
Pr0 O20 2.562 . S
Pr0 O21 2.490 . S
Pr0 O22 2.695 . S
Pr0 O23 2.512 . S
Pr0 O25 2.437 . S
Pr0 O28 2.436 . S
Pr0 O30 2.438 . S
Pr1 C11 2.880 . S
Pr1 O22 2.436 . S
Pr1 O24 2.438 . S
Pr1 O26 2.562 . S
Pr1 O27 2.490 . S
Pr1 O28 2.695 . S
Pr1 O29 2.512 . S
Pr1 O31 2.437 . S
C2 Pr0 2.880 . S
C2 C3 1.491 . S
C2 O20 1.254 . S
C2 O21 1.225 . S
C3 C2 1.491 . S
C3 C4 1.392 . S
C3 C8 1.356 . S
C4 C3 1.392 . S
C4 C5 1.368 . S
C4 H32 0.929 . S
C5 C4 1.368 . S
C5 C6 1.386 . S
C5 H33 0.929 . S
C6 C5 1.386 . S
C6 C7 1.373 . S
C7 C6 1.373 . S
C7 C8 1.409 . S
C7 H34 0.931 . S
C8 C3 1.356 . S
C8 C7 1.409 . S
C8 H35 0.930 . S
C9 O22 1.270 . S
C9 O23 1.248 . S
C10 O24 1.267 . S
C10 O25 1.278 . S
C11 Pr1 2.880 . S
C11 C12 1.491 . S
C11 O26 1.254 . S
C11 O27 1.225 . S
C12 C11 1.491 . S
C12 C13 1.392 . S
C12 C17 1.356 . S
C13 C12 1.392 . S
C13 C14 1.368 . S
C13 H36 0.929 . S
C14 C13 1.368 . S
C14 C15 1.386 . S
C14 H37 0.929 1_455 S
C15 C14 1.386 . S
C15 C16 1.373 . S
C16 C15 1.373 . S
C16 C17 1.409 . S
C16 H38 0.931 . S
C17 C12 1.356 . S
C17 C16 1.409 . S
C17 H39 0.930 . S
C18 O28 1.270 . S
C18 O29 1.248 . S
C19 O30 1.267 . S
C19 O31 1.278 . S
O20 Pr0 2.562 . S
O20 C2 1.254 . S
O21 Pr0 2.490 . S
O21 C2 1.225 . S
O22 Pr0 2.695 . S
O22 Pr1 2.436 . S
O22 C9 1.270 . S
O23 Pr0 2.512 . S
O23 C9 1.248 . S
O24 Pr1 2.438 . S
O24 C10 1.267 . S
O25 Pr0 2.437 . S
O25 C10 1.278 . S
O26 Pr1 2.562 . S
O26 C11 1.254 . S
O27 Pr1 2.490 . S
O27 C11 1.225 . S
O28 Pr0 2.436 . S
O28 Pr1 2.695 . S
O28 C18 1.270 . S
O29 Pr1 2.512 . S
O29 C18 1.248 . S
O30 Pr0 2.438 . S
O30 C19 1.267 . S
O31 Pr1 2.437 . S
O31 C19 1.278 . S
H32 C4 0.929 . S
H33 C5 0.929 . S
H34 C7 0.931 . S
H35 C8 0.930 . S
H36 C13 0.929 . S
H37 C14 0.929 1_655 S
H38 C16 0.931 . S
H39 C17 0.930 . S
Pr40 C42 2.880 . S
Pr40 O60 2.562 . S
Pr40 O61 2.490 . S
Pr40 O62 2.695 . S
Pr40 O63 2.512 . S
Pr40 O65 2.437 . S
Pr40 O68 2.436 . S
Pr40 O70 2.438 . S
Pr41 C51 2.880 . S
Pr41 O62 2.436 . S
Pr41 O64 2.438 . S
Pr41 O66 2.562 . S
Pr41 O67 2.490 . S
Pr41 O68 2.695 . S
Pr41 O69 2.512 . S
Pr41 O71 2.437 . S
C42 Pr40 2.880 . S
C42 C43 1.491 . S
C42 O60 1.254 . S
C42 O61 1.225 . S
C43 C42 1.491 . S
C43 C44 1.392 . S
C43 C48 1.356 . S
C44 C43 1.392 . S
C44 C45 1.346 1_565 S
C44 H72 0.929 . S
C45 C44 1.346 1_545 S
C45 C46 1.383 1_545 S
C45 H73 0.952 . S
C46 C45 1.383 1_565 S
C46 C47 1.408 . S
C47 C46 1.408 . S
C47 C48 1.409 . S
C47 H74 0.931 . S
C48 C43 1.356 . S
C48 C47 1.409 . S
C48 H75 0.930 . S
C49 O62 1.270 . S
C49 O63 1.248 . S
C50 O64 1.267 . S
C50 O65 1.278 . S
C51 Pr41 2.880 . S
C51 C52 1.491 . S
C51 O66 1.254 . S
C51 O67 1.225 . S
C52 C51 1.491 . S
C52 C53 1.392 . S
C52 C57 1.356 . S
C53 C52 1.392 . S
C53 C54 1.368 . S
C53 H76 0.929 . S
C54 C53 1.368 . S
C54 C55 1.386 . S
C54 H77 0.929 . S
C55 C54 1.386 . S
C55 C56 1.373 . S
C56 C55 1.373 . S
C56 C57 1.409 . S
C56 H78 0.931 . S
C57 C52 1.356 . S
C57 C56 1.409 . S
C57 H79 0.930 . S
C58 O68 1.270 . S
C58 O69 1.248 . S
C59 O70 1.267 . S
C59 O71 1.278 . S
O60 Pr40 2.562 . S
O60 C42 1.254 . S
O61 Pr40 2.490 . S
O61 C42 1.225 . S
O62 Pr40 2.695 . S
O62 Pr41 2.436 . S
O62 C49 1.270 . S
O63 Pr40 2.512 . S
O63 C49 1.248 . S
O64 Pr41 2.438 . S
O64 C50 1.267 . S
O65 Pr40 2.437 . S
O65 C50 1.278 . S
O66 Pr41 2.562 . S
O66 C51 1.254 . S
O67 Pr41 2.490 . S
O67 C51 1.225 . S
O68 Pr40 2.436 . S
O68 Pr41 2.695 . S
O68 C58 1.270 . S
O69 Pr41 2.512 . S
O69 C58 1.248 . S
O70 Pr40 2.438 . S
O70 C59 1.267 . S
O71 Pr41 2.437 . S
O71 C59 1.278 . S
H72 C44 0.929 . S
H73 C45 0.952 . S
H74 C47 0.931 . S
H75 C48 0.930 . S
H76 C53 0.929 . S
H77 C54 0.929 . S
H78 C56 0.931 . S
H79 C57 0.930 . S
Pr80 C82 2.880 . S
Pr80 O100 2.562 . S
Pr80 O101 2.490 . S
Pr80 O102 2.695 . S
Pr80 O103 2.512 . S
Pr80 O105 2.437 . S
Pr80 O108 2.436 . S
Pr80 O110 2.438 . S
Pr81 C91 2.880 . S
Pr81 O102 2.436 . S
Pr81 O104 2.438 . S
Pr81 O106 2.562 . S
Pr81 O107 2.490 . S
Pr81 O108 2.695 . S
Pr81 O109 2.512 . S
Pr81 O111 2.437 . S
C82 Pr80 2.880 . S
C82 C83 1.491 . S
C82 O100 1.254 . S
C82 O101 1.225 . S
C83 C82 1.491 . S
C83 C84 1.392 . S
C83 C88 1.356 . S
C84 C83 1.392 . S
C84 C85 1.368 . S
C84 H112 0.929 . S
C85 C84 1.368 . S
C85 C86 1.386 . S
C85 H113 0.929 . S
C86 C85 1.386 . S
C86 C87 1.373 . S
C87 C86 1.373 . S
C87 C88 1.409 . S
C87 H114 0.931 . S
C88 C83 1.356 . S
C88 C87 1.409 . S
C88 H115 0.930 . S
C89 O102 1.270 . S
C89 O103 1.248 . S
C90 O104 1.267 . S
C90 O105 1.278 . S
C91 Pr81 2.880 . S
C91 C92 1.491 . S
C91 O106 1.254 . S
C91 O107 1.225 . S
C92 C91 1.491 . S
C92 C93 1.392 . S
C92 C97 1.356 . S
C93 C92 1.392 . S
C93 C94 1.368 . S
C93 H116 0.929 . S
C94 C93 1.368 . S
C94 C95 1.386 . S
C94 H117 0.929 . S
C95 C94 1.386 . S
C95 C96 1.373 . S
C96 C95 1.373 . S
C96 C97 1.409 . S
C96 H118 0.931 . S
C97 C92 1.356 . S
C97 C96 1.409 . S
C97 H119 0.930 . S
C98 O108 1.270 . S
C98 O109 1.248 . S
C99 O110 1.267 . S
C99 O111 1.278 . S
O100 Pr80 2.562 . S
O100 C82 1.254 . S
O101 Pr80 2.490 . S
O101 C82 1.225 . S
O102 Pr80 2.695 . S
O102 Pr81 2.436 . S
O102 C89 1.270 . S
O103 Pr80 2.512 . S
O103 C89 1.248 . S
O104 Pr81 2.438 . S
O104 C90 1.267 . S
O105 Pr80 2.437 . S
O105 C90 1.278 . S
O106 Pr81 2.562 . S
O106 C91 1.254 . S
O107 Pr81 2.490 . S
O107 C91 1.225 . S
O108 Pr80 2.436 . S
O108 Pr81 2.695 . S
O108 C98 1.270 . S
O109 Pr81 2.512 . S
O109 C98 1.248 . S
O110 Pr80 2.438 . S
O110 C99 1.267 . S
O111 Pr81 2.437 . S
O111 C99 1.278 . S
H112 C84 0.929 . S
H113 C85 0.929 . S
H114 C87 0.931 . S
H115 C88 0.930 . S
H116 C93 0.929 . S
H117 C94 0.929 . S
H118 C96 0.931 . S
H119 C97 0.930 . S
Pr120 C122 2.880 1_554 S
Pr120 O140 2.562 1_554 S
Pr120 O141 2.488 . S
Pr120 O142 2.695 . S
Pr120 O143 2.512 . S
Pr120 O145 2.437 1_554 S
Pr120 O148 2.436 . S
Pr120 O150 2.438 . S
Pr121 C131 2.880 . S
Pr121 O142 2.436 . S
Pr121 O144 2.438 1_554 S
Pr121 O146 2.562 . S
Pr121 O147 2.490 . S
Pr121 O148 2.695 . S
Pr121 O149 2.512 . S
Pr121 O151 2.437 . S
C122 Pr120 2.880 1_556 S
C122 C123 1.491 . S
C122 O140 1.254 . S
C122 O141 1.228 1_556 S
C123 C122 1.491 . S
C123 C124 1.392 . S
C123 C128 1.356 . S
C124 C123 1.392 . S
C124 C125 1.346 1_545 S
C124 H152 0.929 . S
C125 C124 1.346 1_565 S
C125 C126 1.383 1_565 S
C125 H153 0.952 . S
C126 C125 1.383 1_545 S
C126 C127 1.408 . S
C127 C126 1.408 . S
C127 C128 1.409 . S
C127 H154 0.931 . S
C128 C123 1.356 . S
C128 C127 1.409 . S
C128 H155 0.930 . S
C129 O142 1.270 . S
C129 O143 1.248 . S
C130 O144 1.267 . S
C130 O145 1.278 . S
C131 Pr121 2.880 . S
C131 C132 1.491 . S
C131 O146 1.254 . S
C131 O147 1.225 . S
C132 C131 1.491 . S
C132 C133 1.392 . S
C132 C137 1.356 . S
C133 C132 1.392 . S
C133 C134 1.368 . S
C133 H156 0.929 . S
C134 C133 1.368 . S
C134 C135 1.386 . S
C134 H157 0.929 . S
C135 C134 1.386 . S
C135 C136 1.373 . S
C136 C135 1.373 . S
C136 C137 1.409 . S
C136 H158 0.931 . S
C137 C132 1.356 . S
C137 C136 1.409 . S
C137 H159 0.930 . S
C138 O148 1.270 . S
C138 O149 1.248 . S
C139 O150 1.267 . S
C139 O151 1.278 . S
O140 Pr120 2.562 1_556 S
O140 C122 1.254 . S
O141 Pr120 2.488 . S
O141 C122 1.228 1_554 S
O142 Pr120 2.695 . S
O142 Pr121 2.436 . S
O142 C129 1.270 . S
O143 Pr120 2.512 . S
O143 C129 1.248 . S
O144 Pr121 2.438 1_556 S
O144 C130 1.267 . S
O145 Pr120 2.437 1_556 S
O145 C130 1.278 . S
O146 Pr121 2.562 . S
O146 C131 1.254 . S
O147 Pr121 2.490 . S
O147 C131 1.225 . S
O148 Pr120 2.436 . S
O148 Pr121 2.695 . S
O148 C138 1.270 . S
O149 Pr121 2.512 . S
O149 C138 1.248 . S
O150 Pr120 2.438 . S
O150 C139 1.267 . S
O151 Pr121 2.437 . S
O151 C139 1.278 . S
H152 C124 0.929 . S
H153 C125 0.952 . S
H154 C127 0.931 . S
H155 C128 0.930 . S
H156 C133 0.929 . S
H157 C134 0.929 . S
H158 C136 0.931 . S
H159 C137 0.930 . S
Pr160 C162 2.880 . S
Pr160 O180 2.562 . S
Pr160 O181 2.490 . S
Pr160 O182 2.695 . S
Pr160 O183 2.512 . S
Pr160 O185 2.437 . S
Pr160 O188 2.436 . S
Pr160 O190 2.438 . S
Pr161 C171 2.880 . S
Pr161 O182 2.436 . S
Pr161 O184 2.438 . S
Pr161 O186 2.562 . S
Pr161 O187 2.490 . S
Pr161 O188 2.695 . S
Pr161 O189 2.512 . S
Pr161 O191 2.437 . S
C162 Pr160 2.880 . S
C162 C163 1.491 . S
C162 O180 1.254 . S
C162 O181 1.225 . S
C163 C162 1.491 . S
C163 C164 1.392 . S
C163 C168 1.356 . S
C164 C163 1.392 . S
C164 C165 1.368 . S
C164 H192 0.929 . S
C165 C164 1.368 . S
C165 C166 1.386 . S
C165 H193 0.929 . S
C166 C165 1.386 . S
C166 C167 1.373 . S
C167 C166 1.373 . S
C167 C168 1.409 . S
C167 H194 0.931 . S
C168 C163 1.356 . S
C168 C167 1.409 . S
C168 H195 0.930 . S
C169 O182 1.270 . S
C169 O183 1.248 . S
C170 O184 1.267 . S
C170 O185 1.278 . S
C171 Pr161 2.880 . S
C171 C172 1.491 . S
C171 O186 1.254 . S
C171 O187 1.225 . S
C172 C171 1.491 . S
C172 C173 1.392 . S
C172 C177 1.356 . S
C173 C172 1.392 . S
C173 C174 1.368 . S
C173 H196 0.929 . S
C174 C173 1.368 . S
C174 C175 1.386 . S
C174 H197 0.929 1_455 S
C175 C174 1.386 . S
C175 C176 1.373 . S
C176 C175 1.373 . S
C176 C177 1.409 . S
C176 H198 0.931 . S
C177 C172 1.356 . S
C177 C176 1.409 . S
C177 H199 0.930 . S
C178 O188 1.270 . S
C178 O189 1.248 . S
C179 O190 1.267 . S
C179 O191 1.278 . S
O180 Pr160 2.562 . S
O180 C162 1.254 . S
O181 Pr160 2.490 . S
O181 C162 1.225 . S
O182 Pr160 2.695 . S
O182 Pr161 2.436 . S
O182 C169 1.270 . S
O183 Pr160 2.512 . S
O183 C169 1.248 . S
O184 Pr161 2.438 . S
O184 C170 1.267 . S
O185 Pr160 2.437 . S
O185 C170 1.278 . S
O186 Pr161 2.562 . S
O186 C171 1.254 . S
O187 Pr161 2.490 . S
O187 C171 1.225 . S
O188 Pr160 2.436 . S
O188 Pr161 2.695 . S
O188 C178 1.270 . S
O189 Pr161 2.512 . S
O189 C178 1.248 . S
O190 Pr160 2.438 . S
O190 C179 1.267 . S
O191 Pr161 2.437 . S
O191 C179 1.278 . S
H192 C164 0.929 . S
H193 C165 0.929 . S
H194 C167 0.931 . S
H195 C168 0.930 . S
H196 C173 0.929 . S
H197 C174 0.929 1_655 S
H198 C176 0.931 . S
H199 C177 0.930 . S
Pr200 C202 2.880 . S
Pr200 O220 2.562 . S
Pr200 O221 2.490 . S
Pr200 O222 2.695 . S
Pr200 O223 2.512 . S
Pr200 O225 2.437 . S
Pr200 O228 2.436 . S
Pr200 O230 2.438 . S
Pr201 C211 2.880 . S
Pr201 O222 2.436 . S
Pr201 O224 2.438 . S
Pr201 O226 2.562 . S
Pr201 O227 2.490 . S
Pr201 O228 2.695 . S
Pr201 O229 2.512 . S
Pr201 O231 2.437 . S
C202 Pr200 2.880 . S
C202 C203 1.491 . S
C202 O220 1.254 . S
C202 O221 1.225 . S
C203 C202 1.491 . S
C203 C204 1.392 . S
C203 C208 1.356 . S
C204 C203 1.392 . S
C204 C205 1.346 1_565 S
C204 H232 0.929 . S
C205 C204 1.346 1_545 S
C205 C206 1.383 1_545 S
C205 H233 0.952 . S
C206 C205 1.383 1_565 S
C206 C207 1.408 . S
C207 C206 1.408 . S
C207 C208 1.409 . S
C207 H234 0.931 . S
C208 C203 1.356 . S
C208 C207 1.409 . S
C208 H235 0.930 . S
C209 O222 1.270 . S
C209 O223 1.248 . S
C210 O224 1.267 . S
C210 O225 1.278 . S
C211 Pr201 2.880 . S
C211 C212 1.491 . S
C211 O226 1.254 . S
C211 O227 1.225 . S
C212 C211 1.491 . S
C212 C213 1.392 . S
C212 C217 1.356 . S
C213 C212 1.392 . S
C213 C214 1.368 . S
C213 H236 0.929 . S
C214 C213 1.368 . S
C214 C215 1.386 . S
C214 H237 0.929 . S
C215 C214 1.386 . S
C215 C216 1.373 . S
C216 C215 1.373 . S
C216 C217 1.409 . S
C216 H238 0.931 . S
C217 C212 1.356 . S
C217 C216 1.409 . S
C217 H239 0.930 . S
C218 O228 1.270 . S
C218 O229 1.248 . S
C219 O230 1.267 . S
C219 O231 1.278 . S
O220 Pr200 2.562 . S
O220 C202 1.254 . S
O221 Pr200 2.490 . S
O221 C202 1.225 . S
O222 Pr200 2.695 . S
O222 Pr201 2.436 . S
O222 C209 1.270 . S
O223 Pr200 2.512 . S
O223 C209 1.248 . S
O224 Pr201 2.438 . S
O224 C210 1.267 . S
O225 Pr200 2.437 . S
O225 C210 1.278 . S
O226 Pr201 2.562 . S
O226 C211 1.254 . S
O227 Pr201 2.490 . S
O227 C211 1.225 . S
O228 Pr200 2.436 . S
O228 Pr201 2.695 . S
O228 C218 1.270 . S
O229 Pr201 2.512 . S
O229 C218 1.248 . S
O230 Pr200 2.438 . S
O230 C219 1.267 . S
O231 Pr201 2.437 . S
O231 C219 1.278 . S
H232 C204 0.929 . S
H233 C205 0.952 . S
H234 C207 0.931 . S
H235 C208 0.930 . S
H236 C213 0.929 . S
H237 C214 0.929 . S
H238 C216 0.931 . S
H239 C217 0.930 . S
Pr240 C242 2.880 . S
Pr240 O260 2.562 . S
Pr240 O261 2.490 . S
Pr240 O262 2.695 . S
Pr240 O263 2.512 . S
Pr240 O265 2.437 . S
Pr240 O268 2.436 . S
Pr240 O270 2.438 . S
Pr241 C251 2.880 . S
Pr241 O262 2.436 . S
Pr241 O264 2.438 . S
Pr241 O266 2.562 . S
Pr241 O267 2.490 . S
Pr241 O268 2.695 . S
Pr241 O269 2.512 . S
Pr241 O271 2.437 . S
C242 Pr240 2.880 . S
C242 C243 1.491 . S
C242 O260 1.254 . S
C242 O261 1.225 . S
C243 C242 1.491 . S
C243 C244 1.392 . S
C243 C248 1.356 . S
C244 C243 1.392 . S
C244 C245 1.368 . S
C244 H272 0.929 . S
C245 C244 1.368 . S
C245 C246 1.386 . S
C245 H273 0.929 . S
C246 C245 1.386 . S
C246 C247 1.373 . S
C247 C246 1.373 . S
C247 C248 1.409 . S
C247 H274 0.931 . S
C248 C243 1.356 . S
C248 C247 1.409 . S
C248 H275 0.930 . S
C249 O262 1.270 . S
C249 O263 1.248 . S
C250 O264 1.267 . S
C250 O265 1.278 . S
C251 Pr241 2.880 . S
C251 C252 1.491 . S
C251 O266 1.254 . S
C251 O267 1.225 . S
C252 C251 1.491 . S
C252 C253 1.392 . S
C252 C257 1.356 . S
C253 C252 1.392 . S
C253 C254 1.368 . S
C253 H276 0.929 . S
C254 C253 1.368 . S
C254 C255 1.386 . S
C254 H277 0.929 . S
C255 C254 1.386 . S
C255 C256 1.373 . S
C256 C255 1.373 . S
C256 C257 1.409 . S
C256 H278 0.931 . S
C257 C252 1.356 . S
C257 C256 1.409 . S
C257 H279 0.930 . S
C258 O268 1.270 . S
C258 O269 1.248 . S
C259 O270 1.267 . S
C259 O271 1.278 . S
O260 Pr240 2.562 . S
O260 C242 1.254 . S
O261 Pr240 2.490 . S
O261 C242 1.225 . S
O262 Pr240 2.695 . S
O262 Pr241 2.436 . S
O262 C249 1.270 . S
O263 Pr240 2.512 . S
O263 C249 1.248 . S
O264 Pr241 2.438 . S
O264 C250 1.267 . S
O265 Pr240 2.437 . S
O265 C250 1.278 . S
O266 Pr241 2.562 . S
O266 C251 1.254 . S
O267 Pr241 2.490 . S
O267 C251 1.225 . S
O268 Pr240 2.436 . S
O268 Pr241 2.695 . S
O268 C258 1.270 . S
O269 Pr241 2.512 . S
O269 C258 1.248 . S
O270 Pr240 2.438 . S
O270 C259 1.267 . S
O271 Pr241 2.437 . S
O271 C259 1.278 . S
H272 C244 0.929 . S
H273 C245 0.929 . S
H274 C247 0.931 . S
H275 C248 0.930 . S
H276 C253 0.929 . S
H277 C254 0.929 . S
H278 C256 0.931 . S
H279 C257 0.930 . S
Pr280 C282 2.880 1_556 S
Pr280 O300 2.562 1_556 S
Pr280 O301 2.488 . S
Pr280 O302 2.695 . S
Pr280 O303 2.512 . S
Pr280 O305 2.437 1_556 S
Pr280 O308 2.436 . S
Pr280 O310 2.438 . S
Pr281 C291 2.880 . S
Pr281 O302 2.436 . S
Pr281 O304 2.438 1_556 S
Pr281 O306 2.562 . S
Pr281 O307 2.490 . S
Pr281 O308 2.695 . S
Pr281 O309 2.512 . S
Pr281 O311 2.437 . S
C282 Pr280 2.880 1_554 S
C282 C283 1.491 . S
C282 O300 1.254 . S
C282 O301 1.228 1_554 S
C283 C282 1.491 . S
C283 C284 1.392 . S
C283 C288 1.356 . S
C284 C283 1.392 . S
C284 C285 1.346 1_545 S
C284 H312 0.929 . S
C285 C284 1.346 1_565 S
C285 C286 1.383 1_565 S
C285 H313 0.952 . S
C286 C285 1.383 1_545 S
C286 C287 1.408 . S
C287 C286 1.408 . S
C287 C288 1.409 . S
C287 H314 0.931 . S
C288 C283 1.356 . S
C288 C287 1.409 . S
C288 H315 0.930 . S
C289 O302 1.270 . S
C289 O303 1.248 . S
C290 O304 1.267 . S
C290 O305 1.278 . S
C291 Pr281 2.880 . S
C291 C292 1.491 . S
C291 O306 1.254 . S
C291 O307 1.225 . S
C292 C291 1.491 . S
C292 C293 1.392 . S
C292 C297 1.356 . S
C293 C292 1.392 . S
C293 C294 1.368 . S
C293 H316 0.929 . S
C294 C293 1.368 . S
C294 C295 1.386 . S
C294 H317 0.929 . S
C295 C294 1.386 . S
C295 C296 1.373 . S
C296 C295 1.373 . S
C296 C297 1.409 . S
C296 H318 0.931 . S
C297 C292 1.356 . S
C297 C296 1.409 . S
C297 H319 0.930 . S
C298 O308 1.270 . S
C298 O309 1.248 . S
C299 O310 1.267 . S
C299 O311 1.278 . S
O300 Pr280 2.562 1_554 S
O300 C282 1.254 . S
O301 Pr280 2.488 . S
O301 C282 1.228 1_556 S
O302 Pr280 2.695 . S
O302 Pr281 2.436 . S
O302 C289 1.270 . S
O303 Pr280 2.512 . S
O303 C289 1.248 . S
O304 Pr281 2.438 1_554 S
O304 C290 1.267 . S
O305 Pr280 2.437 1_554 S
O305 C290 1.278 . S
O306 Pr281 2.562 . S
O306 C291 1.254 . S
O307 Pr281 2.490 . S
O307 C291 1.225 . S
O308 Pr280 2.436 . S
O308 Pr281 2.695 . S
O308 C298 1.270 . S
O309 Pr281 2.512 . S
O309 C298 1.248 . S
O310 Pr280 2.438 . S
O310 C299 1.267 . S
O311 Pr281 2.437 . S
O311 C299 1.278 . S
H312 C284 0.929 . S
H313 C285 0.952 . S
H314 C287 0.931 . S
H315 C288 0.930 . S
H316 C293 0.929 . S
H317 C294 0.929 . S
H318 C296 0.931 . S
H319 C297 0.930 . S
Pr320 C322 2.880 . S
Pr320 O340 2.562 . S
Pr320 O341 2.490 . S
Pr320 O342 2.695 . S
Pr320 O343 2.512 . S
Pr320 O345 2.437 . S
Pr320 O348 2.436 . S
Pr320 O350 2.438 . S
Pr321 C331 2.880 . S
Pr321 O342 2.436 . S
Pr321 O344 2.438 . S
Pr321 O346 2.562 . S
Pr321 O347 2.490 . S
Pr321 O348 2.695 . S
Pr321 O349 2.512 . S
Pr321 O351 2.437 . S
C322 Pr320 2.880 . S
C322 C323 1.491 . S
C322 O340 1.254 . S
C322 O341 1.225 . S
C323 C322 1.491 . S
C323 C324 1.392 . S
C323 C328 1.356 . S
C324 C323 1.392 . S
C324 C325 1.368 . S
C324 H352 0.929 . S
C325 C324 1.368 . S
C325 C326 1.386 . S
C325 H353 0.929 1_655 S
C326 C325 1.386 . S
C326 C327 1.373 . S
C327 C326 1.373 . S
C327 C328 1.409 . S
C327 H354 0.931 . S
C328 C323 1.356 . S
C328 C327 1.409 . S
C328 H355 0.930 . S
C329 O342 1.270 . S
C329 O343 1.248 . S
C330 O344 1.267 . S
C330 O345 1.278 . S
C331 Pr321 2.880 . S
C331 C332 1.491 . S
C331 O346 1.254 . S
C331 O347 1.225 . S
C332 C331 1.491 . S
C332 C333 1.392 . S
C332 C337 1.356 . S
C333 C332 1.392 . S
C333 C334 1.368 . S
C333 H356 0.929 . S
C334 C333 1.368 . S
C334 C335 1.386 . S
C334 H357 0.929 . S
C335 C334 1.386 . S
C335 C336 1.373 . S
C336 C335 1.373 . S
C336 C337 1.409 . S
C336 H358 0.931 . S
C337 C332 1.356 . S
C337 C336 1.409 . S
C337 H359 0.930 . S
C338 O348 1.270 . S
C338 O349 1.248 . S
C339 O350 1.267 . S
C339 O351 1.278 . S
O340 Pr320 2.562 . S
O340 C322 1.254 . S
O341 Pr320 2.490 . S
O341 C322 1.225 . S
O342 Pr320 2.695 . S
O342 Pr321 2.436 . S
O342 C329 1.270 . S
O343 Pr320 2.512 . S
O343 C329 1.248 . S
O344 Pr321 2.438 . S
O344 C330 1.267 . S
O345 Pr320 2.437 . S
O345 C330 1.278 . S
O346 Pr321 2.562 . S
O346 C331 1.254 . S
O347 Pr321 2.490 . S
O347 C331 1.225 . S
O348 Pr320 2.436 . S
O348 Pr321 2.695 . S
O348 C338 1.270 . S
O349 Pr321 2.512 . S
O349 C338 1.248 . S
O350 Pr320 2.438 . S
O350 C339 1.267 . S
O351 Pr321 2.437 . S
O351 C339 1.278 . S
H352 C324 0.929 . S
H353 C325 0.929 1_455 S
H354 C327 0.931 . S
H355 C328 0.930 . S
H356 C333 0.929 . S
H357 C334 0.929 . S
H358 C336 0.931 . S
H359 C337 0.930 . S
Pr360 C362 2.880 . S
Pr360 O380 2.562 . S
Pr360 O381 2.490 . S
Pr360 O382 2.695 . S
Pr360 O383 2.512 . S
Pr360 O385 2.437 . S
Pr360 O388 2.436 . S
Pr360 O390 2.438 . S
Pr361 C371 2.880 . S
Pr361 O382 2.436 . S
Pr361 O384 2.438 . S
Pr361 O386 2.562 . S
Pr361 O387 2.490 . S
Pr361 O388 2.695 . S
Pr361 O389 2.512 . S
Pr361 O391 2.437 . S
C362 Pr360 2.880 . S
C362 C363 1.491 . S
C362 O380 1.254 . S
C362 O381 1.225 . S
C363 C362 1.491 . S
C363 C364 1.392 . S
C363 C368 1.356 . S
C364 C363 1.392 . S
C364 C365 1.368 . S
C364 H392 0.929 . S
C365 C364 1.368 . S
C365 C366 1.386 . S
C365 H393 0.929 . S
C366 C365 1.386 . S
C366 C367 1.373 . S
C367 C366 1.373 . S
C367 C368 1.409 . S
C367 H394 0.931 . S
C368 C363 1.356 . S
C368 C367 1.409 . S
C368 H395 0.930 . S
C369 O382 1.270 . S
C369 O383 1.248 . S
C370 O384 1.267 . S
C370 O385 1.278 . S
C371 Pr361 2.880 . S
C371 C372 1.491 . S
C371 O386 1.254 . S
C371 O387 1.225 . S
C372 C371 1.491 . S
C372 C373 1.392 . S
C372 C377 1.356 . S
C373 C372 1.392 . S
C373 C374 1.346 1_545 S
C373 H396 0.929 . S
C374 C373 1.346 1_565 S
C374 C375 1.383 1_565 S
C374 H397 0.952 . S
C375 C374 1.383 1_545 S
C375 C376 1.408 . S
C376 C375 1.408 . S
C376 C377 1.409 . S
C376 H398 0.931 . S
C377 C372 1.356 . S
C377 C376 1.409 . S
C377 H399 0.930 . S
C378 O388 1.270 . S
C378 O389 1.248 . S
C379 O390 1.267 . S
C379 O391 1.278 . S
O380 Pr360 2.562 . S
O380 C362 1.254 . S
O381 Pr360 2.490 . S
O381 C362 1.225 . S
O382 Pr360 2.695 . S
O382 Pr361 2.436 . S
O382 C369 1.270 . S
O383 Pr360 2.512 . S
O383 C369 1.248 . S
O384 Pr361 2.438 . S
O384 C370 1.267 . S
O385 Pr360 2.437 . S
O385 C370 1.278 . S
O386 Pr361 2.562 . S
O386 C371 1.254 . S
O387 Pr361 2.490 . S
O387 C371 1.225 . S
O388 Pr360 2.436 . S
O388 Pr361 2.695 . S
O388 C378 1.270 . S
O389 Pr361 2.512 . S
O389 C378 1.248 . S
O390 Pr360 2.438 . S
O390 C379 1.267 . S
O391 Pr361 2.437 . S
O391 C379 1.278 . S
H392 C364 0.929 . S
H393 C365 0.929 . S
H394 C367 0.931 . S
H395 C368 0.930 . S
H396 C373 0.929 . S
H397 C374 0.952 . S
H398 C376 0.931 . S
H399 C377 0.930 . S
Pr400 C402 2.880 . S
Pr400 O420 2.562 . S
Pr400 O421 2.490 . S
Pr400 O422 2.695 . S
Pr400 O423 2.512 . S
Pr400 O425 2.437 . S
Pr400 O428 2.436 . S
Pr400 O430 2.438 . S
Pr401 C411 2.880 . S
Pr401 O422 2.436 . S
Pr401 O424 2.438 . S
Pr401 O426 2.562 . S
Pr401 O427 2.490 . S
Pr401 O428 2.695 . S
Pr401 O429 2.512 . S
Pr401 O431 2.437 . S
C402 Pr400 2.880 . S
C402 C403 1.491 . S
C402 O420 1.254 . S
C402 O421 1.225 . S
C403 C402 1.491 . S
C403 C404 1.392 . S
C403 C408 1.356 . S
C404 C403 1.392 . S
C404 C405 1.368 . S
C404 H432 0.929 . S
C405 C404 1.368 . S
C405 C406 1.386 . S
C405 H433 0.929 . S
C406 C405 1.386 . S
C406 C407 1.373 . S
C407 C406 1.373 . S
C407 C408 1.409 . S
C407 H434 0.931 . S
C408 C403 1.356 . S
C408 C407 1.409 . S
C408 H435 0.930 . S
C409 O422 1.270 . S
C409 O423 1.248 . S
C410 O424 1.267 . S
C410 O425 1.278 . S
C411 Pr401 2.880 . S
C411 C412 1.491 . S
C411 O426 1.254 . S
C411 O427 1.225 . S
C412 C411 1.491 . S
C412 C413 1.392 . S
C412 C417 1.356 . S
C413 C412 1.392 . S
C413 C414 1.368 . S
C413 H436 0.929 . S
C414 C413 1.368 . S
C414 C415 1.386 . S
C414 H437 0.929 . S
C415 C414 1.386 . S
C415 C416 1.373 . S
C416 C415 1.373 . S
C416 C417 1.409 . S
C416 H438 0.931 . S
C417 C412 1.356 . S
C417 C416 1.409 . S
C417 H439 0.930 . S
C418 O428 1.270 . S
C418 O429 1.248 . S
C419 O430 1.267 . S
C419 O431 1.278 . S
O420 Pr400 2.562 . S
O420 C402 1.254 . S
O421 Pr400 2.490 . S
O421 C402 1.225 . S
O422 Pr400 2.695 . S
O422 Pr401 2.436 . S
O422 C409 1.270 . S
O423 Pr400 2.512 . S
O423 C409 1.248 . S
O424 Pr401 2.438 . S
O424 C410 1.267 . S
O425 Pr400 2.437 . S
O425 C410 1.278 . S
O426 Pr401 2.562 . S
O426 C411 1.254 . S
O427 Pr401 2.490 . S
O427 C411 1.225 . S
O428 Pr400 2.436 . S
O428 Pr401 2.695 . S
O428 C418 1.270 . S
O429 Pr401 2.512 . S
O429 C418 1.248 . S
O430 Pr400 2.438 . S
O430 C419 1.267 . S
O431 Pr401 2.437 . S
O431 C419 1.278 . S
H432 C404 0.929 . S
H433 C405 0.929 . S
H434 C407 0.931 . S
H435 C408 0.930 . S
H436 C413 0.929 . S
H437 C414 0.929 . S
H438 C416 0.931 . S
H439 C417 0.930 . S
Pr440 C442 2.880 . S
Pr440 O460 2.562 . S
Pr440 O461 2.490 . S
Pr440 O462 2.695 . S
Pr440 O463 2.512 . S
Pr440 O465 2.437 . S
Pr440 O468 2.436 . S
Pr440 O470 2.438 1_556 S
Pr441 C451 2.880 1_556 S
Pr441 O462 2.436 . S
Pr441 O464 2.438 . S
Pr441 O466 2.562 1_556 S
Pr441 O467 2.488 . S
Pr441 O468 2.695 . S
Pr441 O469 2.512 . S
Pr441 O471 2.437 1_556 S
C442 Pr440 2.880 . S
C442 C443 1.491 . S
C442 O460 1.254 . S
C442 O461 1.225 . S
C443 C442 1.491 . S
C443 C444 1.392 . S
C443 C448 1.356 . S
C444 C443 1.392 . S
C444 C445 1.368 . S
C444 H472 0.929 . S
C445 C444 1.368 . S
C445 C446 1.386 . S
C445 H473 0.929 . S
C446 C445 1.386 . S
C446 C447 1.373 . S
C447 C446 1.373 . S
C447 C448 1.409 . S
C447 H474 0.931 . S
C448 C443 1.356 . S
C448 C447 1.409 . S
C448 H475 0.930 . S
C449 O462 1.270 . S
C449 O463 1.248 . S
C450 O464 1.267 . S
C450 O465 1.278 . S
C451 Pr441 2.880 1_554 S
C451 C452 1.491 . S
C451 O466 1.254 . S
C451 O467 1.228 1_554 S
C452 C451 1.491 . S
C452 C453 1.392 . S
C452 C457 1.356 . S
C453 C452 1.392 . S
C453 C454 1.346 1_565 S
C453 H476 0.929 . S
C454 C453 1.346 1_545 S
C454 C455 1.383 1_545 S
C454 H477 0.952 . S
C455 C454 1.383 1_565 S
C455 C456 1.408 . S
C456 C455 1.408 . S
C456 C457 1.409 . S
C456 H478 0.931 . S
C457 C452 1.356 . S
C457 C456 1.409 . S
C457 H479 0.930 . S
C458 O468 1.270 . S
C458 O469 1.248 . S
C459 O470 1.267 . S
C459 O471 1.278 . S
O460 Pr440 2.562 . S
O460 C442 1.254 . S
O461 Pr440 2.490 . S
O461 C442 1.225 . S
O462 Pr440 2.695 . S
O462 Pr441 2.436 . S
O462 C449 1.270 . S
O463 Pr440 2.512 . S
O463 C449 1.248 . S
O464 Pr441 2.438 . S
O464 C450 1.267 . S
O465 Pr440 2.437 . S
O465 C450 1.278 . S
O466 Pr441 2.562 1_554 S
O466 C451 1.254 . S
O467 Pr441 2.488 . S
O467 C451 1.228 1_556 S
O468 Pr440 2.436 . S
O468 Pr441 2.695 . S
O468 C458 1.270 . S
O469 Pr441 2.512 . S
O469 C458 1.248 . S
O470 Pr440 2.438 1_554 S
O470 C459 1.267 . S
O471 Pr441 2.437 1_554 S
O471 C459 1.278 . S
H472 C444 0.929 . S
H473 C445 0.929 . S
H474 C447 0.931 . S
H475 C448 0.930 . S
H476 C453 0.929 . S
H477 C454 0.952 . S
H478 C456 0.931 . S
H479 C457 0.930 . S
Pr480 C482 2.880 . S
Pr480 O500 2.562 . S
Pr480 O501 2.490 . S
Pr480 O502 2.695 . S
Pr480 O503 2.512 . S
Pr480 O505 2.437 . S
Pr480 O508 2.436 . S
Pr480 O510 2.438 . S
Pr481 C491 2.880 . S
Pr481 O502 2.436 . S
Pr481 O504 2.438 . S
Pr481 O506 2.562 . S
Pr481 O507 2.490 . S
Pr481 O508 2.695 . S
Pr481 O509 2.512 . S
Pr481 O511 2.437 . S
C482 Pr480 2.880 . S
C482 C483 1.491 . S
C482 O500 1.254 . S
C482 O501 1.225 . S
C483 C482 1.491 . S
C483 C484 1.392 . S
C483 C488 1.356 . S
C484 C483 1.392 . S
C484 C485 1.368 . S
C484 H512 0.929 . S
C485 C484 1.368 . S
C485 C486 1.386 . S
C485 H513 0.929 1_655 S
C486 C485 1.386 . S
C486 C487 1.373 . S
C487 C486 1.373 . S
C487 C488 1.409 . S
C487 H514 0.931 . S
C488 C483 1.356 . S
C488 C487 1.409 . S
C488 H515 0.930 . S
C489 O502 1.270 . S
C489 O503 1.248 . S
C490 O504 1.267 . S
C490 O505 1.278 . S
C491 Pr481 2.880 . S
C491 C492 1.491 . S
C491 O506 1.254 . S
C491 O507 1.225 . S
C492 C491 1.491 . S
C492 C493 1.392 . S
C492 C497 1.356 . S
C493 C492 1.392 . S
C493 C494 1.368 . S
C493 H516 0.929 . S
C494 C493 1.368 . S
C494 C495 1.386 . S
C494 H517 0.929 . S
C495 C494 1.386 . S
C495 C496 1.373 . S
C496 C495 1.373 . S
C496 C497 1.409 . S
C496 H518 0.931 . S
C497 C492 1.356 . S
C497 C496 1.409 . S
C497 H519 0.930 . S
C498 O508 1.270 . S
C498 O509 1.248 . S
C499 O510 1.267 . S
C499 O511 1.278 . S
O500 Pr480 2.562 . S
O500 C482 1.254 . S
O501 Pr480 2.490 . S
O501 C482 1.225 . S
O502 Pr480 2.695 . S
O502 Pr481 2.436 . S
O502 C489 1.270 . S
O503 Pr480 2.512 . S
O503 C489 1.248 . S
O504 Pr481 2.438 . S
O504 C490 1.267 . S
O505 Pr480 2.437 . S
O505 C490 1.278 . S
O506 Pr481 2.562 . S
O506 C491 1.254 . S
O507 Pr481 2.490 . S
O507 C491 1.225 . S
O508 Pr480 2.436 . S
O508 Pr481 2.695 . S
O508 C498 1.270 . S
O509 Pr481 2.512 . S
O509 C498 1.248 . S
O510 Pr480 2.438 . S
O510 C499 1.267 . S
O511 Pr481 2.437 . S
O511 C499 1.278 . S
H512 C484 0.929 . S
H513 C485 0.929 1_455 S
H514 C487 0.931 . S
H515 C488 0.930 . S
H516 C493 0.929 . S
H517 C494 0.929 . S
H518 C496 0.931 . S
H519 C497 0.930 . S
Pr520 C522 2.880 . S
Pr520 O540 2.562 . S
Pr520 O541 2.490 . S
Pr520 O542 2.695 . S
Pr520 O543 2.512 . S
Pr520 O545 2.437 . S
Pr520 O548 2.436 . S
Pr520 O550 2.438 . S
Pr521 C531 2.880 . S
Pr521 O542 2.436 . S
Pr521 O544 2.438 . S
Pr521 O546 2.562 . S
Pr521 O547 2.490 . S
Pr521 O548 2.695 . S
Pr521 O549 2.512 . S
Pr521 O551 2.437 . S
C522 Pr520 2.880 . S
C522 C523 1.491 . S
C522 O540 1.254 . S
C522 O541 1.225 . S
C523 C522 1.491 . S
C523 C524 1.392 . S
C523 C528 1.356 . S
C524 C523 1.392 . S
C524 C525 1.368 . S
C524 H552 0.929 . S
C525 C524 1.368 . S
C525 C526 1.386 . S
C525 H553 0.929 . S
C526 C525 1.386 . S
C526 C527 1.373 . S
C527 C526 1.373 . S
C527 C528 1.409 . S
C527 H554 0.931 . S
C528 C523 1.356 . S
C528 C527 1.409 . S
C528 H555 0.930 . S
C529 O542 1.270 . S
C529 O543 1.248 . S
C530 O544 1.267 . S
C530 O545 1.278 . S
C531 Pr521 2.880 . S
C531 C532 1.491 . S
C531 O546 1.254 . S
C531 O547 1.225 . S
C532 C531 1.491 . S
C532 C533 1.392 . S
C532 C537 1.356 . S
C533 C532 1.392 . S
C533 C534 1.346 1_545 S
C533 H556 0.929 . S
C534 C533 1.346 1_565 S
C534 C535 1.383 1_565 S
C534 H557 0.952 . S
C535 C534 1.383 1_545 S
C535 C536 1.408 . S
C536 C535 1.408 . S
C536 C537 1.409 . S
C536 H558 0.931 . S
C537 C532 1.356 . S
C537 C536 1.409 . S
C537 H559 0.930 . S
C538 O548 1.270 . S
C538 O549 1.248 . S
C539 O550 1.267 . S
C539 O551 1.278 . S
O540 Pr520 2.562 . S
O540 C522 1.254 . S
O541 Pr520 2.490 . S
O541 C522 1.225 . S
O542 Pr520 2.695 . S
O542 Pr521 2.436 . S
O542 C529 1.270 . S
O543 Pr520 2.512 . S
O543 C529 1.248 . S
O544 Pr521 2.438 . S
O544 C530 1.267 . S
O545 Pr520 2.437 . S
O545 C530 1.278 . S
O546 Pr521 2.562 . S
O546 C531 1.254 . S
O547 Pr521 2.490 . S
O547 C531 1.225 . S
O548 Pr520 2.436 . S
O548 Pr521 2.695 . S
O548 C538 1.270 . S
O549 Pr521 2.512 . S
O549 C538 1.248 . S
O550 Pr520 2.438 . S
O550 C539 1.267 . S
O551 Pr521 2.437 . S
O551 C539 1.278 . S
H552 C524 0.929 . S
H553 C525 0.929 . S
H554 C527 0.931 . S
H555 C528 0.930 . S
H556 C533 0.929 . S
H557 C534 0.952 . S
H558 C536 0.931 . S
H559 C537 0.930 . S
Pr560 C562 2.880 . S
Pr560 O580 2.562 . S
Pr560 O581 2.490 . S
Pr560 O582 2.695 . S
Pr560 O583 2.512 . S
Pr560 O585 2.437 . S
Pr560 O588 2.436 . S
Pr560 O590 2.438 . S
Pr561 C571 2.880 . S
Pr561 O582 2.436 . S
Pr561 O584 2.438 . S
Pr561 O586 2.562 . S
Pr561 O587 2.490 . S
Pr561 O588 2.695 . S
Pr561 O589 2.512 . S
Pr561 O591 2.437 . S
C562 Pr560 2.880 . S
C562 C563 1.491 . S
C562 O580 1.254 . S
C562 O581 1.225 . S
C563 C562 1.491 . S
C563 C564 1.392 . S
C563 C568 1.356 . S
C564 C563 1.392 . S
C564 C565 1.368 . S
C564 H592 0.929 . S
C565 C564 1.368 . S
C565 C566 1.386 . S
C565 H593 0.929 . S
C566 C565 1.386 . S
C566 C567 1.373 . S
C567 C566 1.373 . S
C567 C568 1.409 . S
C567 H594 0.931 . S
C568 C563 1.356 . S
C568 C567 1.409 . S
C568 H595 0.930 . S
C569 O582 1.270 . S
C569 O583 1.248 . S
C570 O584 1.267 . S
C570 O585 1.278 . S
C571 Pr561 2.880 . S
C571 C572 1.491 . S
C571 O586 1.254 . S
C571 O587 1.225 . S
C572 C571 1.491 . S
C572 C573 1.392 . S
C572 C577 1.356 . S
C573 C572 1.392 . S
C573 C574 1.368 . S
C573 H596 0.929 . S
C574 C573 1.368 . S
C574 C575 1.386 . S
C574 H597 0.929 . S
C575 C574 1.386 . S
C575 C576 1.373 . S
C576 C575 1.373 . S
C576 C577 1.409 . S
C576 H598 0.931 . S
C577 C572 1.356 . S
C577 C576 1.409 . S
C577 H599 0.930 . S
C578 O588 1.270 . S
C578 O589 1.248 . S
C579 O590 1.267 . S
C579 O591 1.278 . S
O580 Pr560 2.562 . S
O580 C562 1.254 . S
O581 Pr560 2.490 . S
O581 C562 1.225 . S
O582 Pr560 2.695 . S
O582 Pr561 2.436 . S
O582 C569 1.270 . S
O583 Pr560 2.512 . S
O583 C569 1.248 . S
O584 Pr561 2.438 . S
O584 C570 1.267 . S
O585 Pr560 2.437 . S
O585 C570 1.278 . S
O586 Pr561 2.562 . S
O586 C571 1.254 . S
O587 Pr561 2.490 . S
O587 C571 1.225 . S
O588 Pr560 2.436 . S
O588 Pr561 2.695 . S
O588 C578 1.270 . S
O589 Pr561 2.512 . S
O589 C578 1.248 . S
O590 Pr560 2.438 . S
O590 C579 1.267 . S
O591 Pr561 2.437 . S
O591 C579 1.278 . S
H592 C564 0.929 . S
H593 C565 0.929 . S
H594 C567 0.931 . S
H595 C568 0.930 . S
H596 C573 0.929 . S
H597 C574 0.929 . S
H598 C576 0.931 . S
H599 C577 0.930 . S
Pr600 C602 2.880 . S
Pr600 O620 2.562 . S
Pr600 O621 2.490 . S
Pr600 O622 2.695 . S
Pr600 O623 2.512 . S
Pr600 O625 2.437 . S
Pr600 O628 2.436 . S
Pr600 O630 2.438 1_554 S
Pr601 C611 2.880 1_554 S
Pr601 O622 2.436 . S
Pr601 O624 2.438 . S
Pr601 O626 2.562 1_554 S
Pr601 O627 2.488 . S
Pr601 O628 2.695 . S
Pr601 O629 2.512 . S
Pr601 O631 2.437 1_554 S
C602 Pr600 2.880 . S
C602 C603 1.491 . S
C602 O620 1.254 . S
C602 O621 1.225 . S
C603 C602 1.491 . S
C603 C604 1.392 . S
C603 C608 1.356 . S
C604 C603 1.392 . S
C604 C605 1.368 . S
C604 H632 0.929 . S
C605 C604 1.368 . S
C605 C606 1.386 . S
C605 H633 0.929 . S
C606 C605 1.386 . S
C606 C607 1.373 . S
C607 C606 1.373 . S
C607 C608 1.409 . S
C607 H634 0.931 . S
C608 C603 1.356 . S
C608 C607 1.409 . S
C608 H635 0.930 . S
C609 O622 1.270 . S
C609 O623 1.248 . S
C610 O624 1.267 . S
C610 O625 1.278 . S
C611 Pr601 2.880 1_556 S
C611 C612 1.491 . S
C611 O626 1.254 . S
C611 O627 1.228 1_556 S
C612 C611 1.491 . S
C612 C613 1.392 . S
C612 C617 1.356 . S
C613 C612 1.392 . S
C613 C614 1.346 1_565 S
C613 H636 0.929 . S
C614 C613 1.346 1_545 S
C614 C615 1.383 1_545 S
C614 H637 0.952 . S
C615 C614 1.383 1_565 S
C615 C616 1.408 . S
C616 C615 1.408 . S
C616 C617 1.409 . S
C616 H638 0.931 . S
C617 C612 1.356 . S
C617 C616 1.409 . S
C617 H639 0.930 . S
C618 O628 1.270 . S
C618 O629 1.248 . S
C619 O630 1.267 . S
C619 O631 1.278 . S
O620 Pr600 2.562 . S
O620 C602 1.254 . S
O621 Pr600 2.490 . S
O621 C602 1.225 . S
O622 Pr600 2.695 . S
O622 Pr601 2.436 . S
O622 C609 1.270 . S
O623 Pr600 2.512 . S
O623 C609 1.248 . S
O624 Pr601 2.438 . S
O624 C610 1.267 . S
O625 Pr600 2.437 . S
O625 C610 1.278 . S
O626 Pr601 2.562 1_556 S
O626 C611 1.254 . S
O627 Pr601 2.488 . S
O627 C611 1.228 1_554 S
O628 Pr600 2.436 . S
O628 Pr601 2.695 . S
O628 C618 1.270 . S
O629 Pr601 2.512 . S
O629 C618 1.248 . S
O630 Pr600 2.438 1_556 S
O630 C619 1.267 . S
O631 Pr601 2.437 1_556 S
O631 C619 1.278 . S
H632 C604 0.929 . S
H633 C605 0.929 . S
H634 C607 0.931 . S
H635 C608 0.930 . S
H636 C613 0.929 . S
H637 C614 0.952 . S
H638 C616 0.931 . S
H639 C617 0.930 . S
Pr640 C642 2.880 . S
Pr640 O660 2.562 . S
Pr640 O661 2.490 . S
Pr640 O662 2.695 . S
Pr640 O663 2.512 . S
Pr640 O665 2.437 . S
Pr640 O668 2.436 . S
Pr640 O670 2.438 . S
Pr641 C651 2.880 . S
Pr641 O662 2.436 . S
Pr641 O664 2.438 . S
Pr641 O666 2.562 . S
Pr641 O667 2.490 . S
Pr641 O668 2.695 . S
Pr641 O669 2.512 . S
Pr641 O671 2.437 . S
C642 Pr640 2.880 . S
C642 C643 1.491 . S
C642 O660 1.254 . S
C642 O661 1.225 . S
C643 C642 1.491 . S
C643 C644 1.392 . S
C643 C648 1.356 . S
C644 C643 1.392 . S
C644 C645 1.368 . S
C644 H672 0.929 . S
C645 C644 1.368 . S
C645 C646 1.386 . S
C645 H673 0.929 . S
C646 C645 1.386 . S
C646 C647 1.373 . S
C647 C646 1.373 . S
C647 C648 1.409 . S
C647 H674 0.931 . S
C648 C643 1.356 . S
C648 C647 1.409 . S
C648 H675 0.930 . S
C649 O662 1.270 . S
C649 O663 1.248 . S
C650 O664 1.267 . S
C650 O665 1.278 . S
C651 Pr641 2.880 . S
C651 C652 1.491 . S
C651 O666 1.254 . S
C651 O667 1.225 . S
C652 C651 1.491 . S
C652 C653 1.392 . S
C652 C657 1.356 . S
C653 C652 1.392 . S
C653 C654 1.368 . S
C653 H676 0.929 . S
C654 C653 1.368 . S
C654 C655 1.386 . S
C654 H677 0.929 . S
C655 C654 1.386 . S
C655 C656 1.373 . S
C656 C655 1.373 . S
C656 C657 1.409 . S
C656 H678 0.931 . S
C657 C652 1.356 . S
C657 C656 1.409 . S
C657 H679 0.930 . S
C658 O668 1.270 . S
C658 O669 1.248 . S
C659 O670 1.267 . S
C659 O671 1.278 . S
O660 Pr640 2.562 . S
O660 C642 1.254 . S
O661 Pr640 2.490 . S
O661 C642 1.225 . S
O662 Pr640 2.695 . S
O662 Pr641 2.436 . S
O662 C649 1.270 . S
O663 Pr640 2.512 . S
O663 C649 1.248 . S
O664 Pr641 2.438 . S
O664 C650 1.267 . S
O665 Pr640 2.437 . S
O665 C650 1.278 . S
O666 Pr641 2.562 . S
O666 C651 1.254 . S
O667 Pr641 2.490 . S
O667 C651 1.225 . S
O668 Pr640 2.436 . S
O668 Pr641 2.695 . S
O668 C658 1.270 . S
O669 Pr641 2.512 . S
O669 C658 1.248 . S
O670 Pr640 2.438 . S
O670 C659 1.267 . S
O671 Pr641 2.437 . S
O671 C659 1.278 . S
H672 C644 0.929 . S
H673 C645 0.929 . S
H674 C647 0.931 . S
H675 C648 0.930 . S
H676 C653 0.929 . S
H677 C654 0.929 . S
H678 C656 0.931 . S
H679 C657 0.930 . S
Pr680 C682 2.880 1_554 S
Pr680 O700 2.562 1_554 S
Pr680 O701 2.488 . S
Pr680 O702 2.695 . S
Pr680 O703 2.512 . S
Pr680 O705 2.437 1_554 S
Pr680 O708 2.436 . S
Pr680 O710 2.438 . S
Pr681 C691 2.880 . S
Pr681 O702 2.436 . S
Pr681 O704 2.438 1_554 S
Pr681 O706 2.562 . S
Pr681 O707 2.490 . S
Pr681 O708 2.695 . S
Pr681 O709 2.512 . S
Pr681 O711 2.437 . S
C682 Pr680 2.880 1_556 S
C682 C683 1.491 . S
C682 O700 1.254 . S
C682 O701 1.228 1_556 S
C683 C682 1.491 . S
C683 C684 1.392 . S
C683 C688 1.356 . S
C684 C683 1.392 . S
C684 C685 1.368 . S
C684 H712 0.929 . S
C685 C684 1.368 . S
C685 C686 1.386 . S
C685 H713 0.929 . S
C686 C685 1.386 . S
C686 C687 1.373 . S
C687 C686 1.373 . S
C687 C688 1.409 . S
C687 H714 0.931 . S
C688 C683 1.356 . S
C688 C687 1.409 . S
C688 H715 0.930 . S
C689 O702 1.270 . S
C689 O703 1.248 . S
C690 O704 1.267 . S
C690 O705 1.278 . S
C691 Pr681 2.880 . S
C691 C692 1.491 . S
C691 O706 1.254 . S
C691 O707 1.225 . S
C692 C691 1.491 . S
C692 C693 1.392 . S
C692 C697 1.356 . S
C693 C692 1.392 . S
C693 C694 1.368 . S
C693 H716 0.929 . S
C694 C693 1.368 . S
C694 C695 1.386 . S
C694 H717 0.929 . S
C695 C694 1.386 . S
C695 C696 1.373 . S
C696 C695 1.373 . S
C696 C697 1.409 . S
C696 H718 0.931 . S
C697 C692 1.356 . S
C697 C696 1.409 . S
C697 H719 0.930 . S
C698 O708 1.270 . S
C698 O709 1.248 . S
C699 O710 1.267 . S
C699 O711 1.278 . S
O700 Pr680 2.562 1_556 S
O700 C682 1.254 . S
O701 Pr680 2.488 . S
O701 C682 1.228 1_554 S
O702 Pr680 2.695 . S
O702 Pr681 2.436 . S
O702 C689 1.270 . S
O703 Pr680 2.512 . S
O703 C689 1.248 . S
O704 Pr681 2.438 1_556 S
O704 C690 1.267 . S
O705 Pr680 2.437 1_556 S
O705 C690 1.278 . S
O706 Pr681 2.562 . S
O706 C691 1.254 . S
O707 Pr681 2.490 . S
O707 C691 1.225 . S
O708 Pr680 2.436 . S
O708 Pr681 2.695 . S
O708 C698 1.270 . S
O709 Pr681 2.512 . S
O709 C698 1.248 . S
O710 Pr680 2.438 . S
O710 C699 1.267 . S
O711 Pr681 2.437 . S
O711 C699 1.278 . S
H712 C684 0.929 . S
H713 C685 0.929 . S
H714 C687 0.931 . S
H715 C688 0.930 . S
H716 C693 0.929 . S
H717 C694 0.929 . S
H718 C696 0.931 . S
H719 C697 0.930 . S
Pr720 C722 2.880 . S
Pr720 O740 2.562 . S
Pr720 O741 2.490 . S
Pr720 O742 2.695 . S
Pr720 O743 2.512 . S
Pr720 O745 2.437 . S
Pr720 O748 2.436 . S
Pr720 O750 2.438 . S
Pr721 C731 2.880 . S
Pr721 O742 2.436 . S
Pr721 O744 2.438 . S
Pr721 O746 2.562 . S
Pr721 O747 2.490 . S
Pr721 O748 2.695 . S
Pr721 O749 2.512 . S
Pr721 O751 2.437 . S
C722 Pr720 2.880 . S
C722 C723 1.491 . S
C722 O740 1.254 . S
C722 O741 1.225 . S
C723 C722 1.491 . S
C723 C724 1.392 . S
C723 C728 1.356 . S
C724 C723 1.392 . S
C724 C725 1.368 . S
C724 H752 0.929 . S
C725 C724 1.368 . S
C725 C726 1.386 . S
C725 H753 0.929 . S
C726 C725 1.386 . S
C726 C727 1.373 . S
C727 C726 1.373 . S
C727 C728 1.409 . S
C727 H754 0.931 . S
C728 C723 1.356 . S
C728 C727 1.409 . S
C728 H755 0.930 . S
C729 O742 1.270 . S
C729 O743 1.248 . S
C730 O744 1.267 . S
C730 O745 1.278 . S
C731 Pr721 2.880 . S
C731 C732 1.491 . S
C731 O746 1.254 . S
C731 O747 1.225 . S
C732 C731 1.491 . S
C732 C733 1.392 . S
C732 C737 1.356 . S
C733 C732 1.392 . S
C733 C734 1.368 . S
C733 H756 0.929 . S
C734 C733 1.368 . S
C734 C735 1.386 . S
C734 H757 0.929 1_655 S
C735 C734 1.386 . S
C735 C736 1.373 . S
C736 C735 1.373 . S
C736 C737 1.409 . S
C736 H758 0.931 . S
C737 C732 1.356 . S
C737 C736 1.409 . S
C737 H759 0.930 . S
C738 O748 1.270 . S
C738 O749 1.248 . S
C739 O750 1.267 . S
C739 O751 1.278 . S
O740 Pr720 2.562 . S
O740 C722 1.254 . S
O741 Pr720 2.490 . S
O741 C722 1.225 . S
O742 Pr720 2.695 . S
O742 Pr721 2.436 . S
O742 C729 1.270 . S
O743 Pr720 2.512 . S
O743 C729 1.248 . S
O744 Pr721 2.438 . S
O744 C730 1.267 . S
O745 Pr720 2.437 . S
O745 C730 1.278 . S
O746 Pr721 2.562 . S
O746 C731 1.254 . S
O747 Pr721 2.490 . S
O747 C731 1.225 . S
O748 Pr720 2.436 . S
O748 Pr721 2.695 . S
O748 C738 1.270 . S
O749 Pr721 2.512 . S
O749 C738 1.248 . S
O750 Pr720 2.438 . S
O750 C739 1.267 . S
O751 Pr721 2.437 . S
O751 C739 1.278 . S
H752 C724 0.929 . S
H753 C725 0.929 . S
H754 C727 0.931 . S
H755 C728 0.930 . S
H756 C733 0.929 . S
H757 C734 0.929 1_455 S
H758 C736 0.931 . S
H759 C737 0.930 . S
Pr760 C762 2.880 . S
Pr760 O780 2.562 . S
Pr760 O781 2.490 . S
Pr760 O782 2.695 . S
Pr760 O783 2.512 . S
Pr760 O785 2.437 . S
Pr760 O788 2.436 . S
Pr760 O790 2.438 . S
Pr761 C771 2.880 . S
Pr761 O782 2.436 . S
Pr761 O784 2.438 . S
Pr761 O786 2.562 . S
Pr761 O787 2.490 . S
Pr761 O788 2.695 . S
Pr761 O789 2.512 . S
Pr761 O791 2.437 . S
C762 Pr760 2.880 . S
C762 C763 1.491 . S
C762 O780 1.254 . S
C762 O781 1.225 . S
C763 C762 1.491 . S
C763 C764 1.392 . S
C763 C768 1.356 . S
C764 C763 1.392 . S
C764 C765 1.368 . S
C764 H792 0.929 . S
C765 C764 1.368 . S
C765 C766 1.386 . S
C765 H793 0.929 . S
C766 C765 1.386 . S
C766 C767 1.373 . S
C767 C766 1.373 . S
C767 C768 1.409 . S
C767 H794 0.931 . S
C768 C763 1.356 . S
C768 C767 1.409 . S
C768 H795 0.930 . S
C769 O782 1.270 . S
C769 O783 1.248 . S
C770 O784 1.267 . S
C770 O785 1.278 . S
C771 Pr761 2.880 . S
C771 C772 1.491 . S
C771 O786 1.254 . S
C771 O787 1.225 . S
C772 C771 1.491 . S
C772 C773 1.392 . S
C772 C777 1.356 . S
C773 C772 1.392 . S
C773 C774 1.368 . S
C773 H796 0.929 . S
C774 C773 1.368 . S
C774 C775 1.386 . S
C774 H797 0.929 . S
C775 C774 1.386 . S
C775 C776 1.373 . S
C776 C775 1.373 . S
C776 C777 1.409 . S
C776 H798 0.931 . S
C777 C772 1.356 . S
C777 C776 1.409 . S
C777 H799 0.930 . S
C778 O788 1.270 . S
C778 O789 1.248 . S
C779 O790 1.267 . S
C779 O791 1.278 . S
O780 Pr760 2.562 . S
O780 C762 1.254 . S
O781 Pr760 2.490 . S
O781 C762 1.225 . S
O782 Pr760 2.695 . S
O782 Pr761 2.436 . S
O782 C769 1.270 . S
O783 Pr760 2.512 . S
O783 C769 1.248 . S
O784 Pr761 2.438 . S
O784 C770 1.267 . S
O785 Pr760 2.437 . S
O785 C770 1.278 . S
O786 Pr761 2.562 . S
O786 C771 1.254 . S
O787 Pr761 2.490 . S
O787 C771 1.225 . S
O788 Pr760 2.436 . S
O788 Pr761 2.695 . S
O788 C778 1.270 . S
O789 Pr761 2.512 . S
O789 C778 1.248 . S
O790 Pr760 2.438 . S
O790 C779 1.267 . S
O791 Pr761 2.437 . S
O791 C779 1.278 . S
H792 C764 0.929 . S
H793 C765 0.929 . S
H794 C767 0.931 . S
H795 C768 0.930 . S
H796 C773 0.929 . S
H797 C774 0.929 . S
H798 C776 0.931 . S
H799 C777 0.930 . S
Pr800 C802 2.880 . S
Pr800 O820 2.562 . S
Pr800 O821 2.490 . S
Pr800 O822 2.695 . S
Pr800 O823 2.512 . S
Pr800 O825 2.437 . S
Pr800 O828 2.436 . S
Pr800 O830 2.438 . S
Pr801 C811 2.880 . S
Pr801 O822 2.436 . S
Pr801 O824 2.438 . S
Pr801 O826 2.562 . S
Pr801 O827 2.490 . S
Pr801 O828 2.695 . S
Pr801 O829 2.512 . S
Pr801 O831 2.437 . S
C802 Pr800 2.880 . S
C802 C803 1.491 . S
C802 O820 1.254 . S
C802 O821 1.225 . S
C803 C802 1.491 . S
C803 C804 1.392 . S
C803 C808 1.356 . S
C804 C803 1.392 . S
C804 C805 1.368 . S
C804 H832 0.929 . S
C805 C804 1.368 . S
C805 C806 1.386 . S
C805 H833 0.929 . S
C806 C805 1.386 . S
C806 C807 1.373 . S
C807 C806 1.373 . S
C807 C808 1.409 . S
C807 H834 0.931 . S
C808 C803 1.356 . S
C808 C807 1.409 . S
C808 H835 0.930 . S
C809 O822 1.270 . S
C809 O823 1.248 . S
C810 O824 1.267 . S
C810 O825 1.278 . S
C811 Pr801 2.880 . S
C811 C812 1.491 . S
C811 O826 1.254 . S
C811 O827 1.225 . S
C812 C811 1.491 . S
C812 C813 1.392 . S
C812 C817 1.356 . S
C813 C812 1.392 . S
C813 C814 1.368 . S
C813 H836 0.929 . S
C814 C813 1.368 . S
C814 C815 1.386 . S
C814 H837 0.929 . S
C815 C814 1.386 . S
C815 C816 1.373 . S
C816 C815 1.373 . S
C816 C817 1.409 . S
C816 H838 0.931 . S
C817 C812 1.356 . S
C817 C816 1.409 . S
C817 H839 0.930 . S
C818 O828 1.270 . S
C818 O829 1.248 . S
C819 O830 1.267 . S
C819 O831 1.278 . S
O820 Pr800 2.562 . S
O820 C802 1.254 . S
O821 Pr800 2.490 . S
O821 C802 1.225 . S
O822 Pr800 2.695 . S
O822 Pr801 2.436 . S
O822 C809 1.270 . S
O823 Pr800 2.512 . S
O823 C809 1.248 . S
O824 Pr801 2.438 . S
O824 C810 1.267 . S
O825 Pr800 2.437 . S
O825 C810 1.278 . S
O826 Pr801 2.562 . S
O826 C811 1.254 . S
O827 Pr801 2.490 . S
O827 C811 1.225 . S
O828 Pr800 2.436 . S
O828 Pr801 2.695 . S
O828 C818 1.270 . S
O829 Pr801 2.512 . S
O829 C818 1.248 . S
O830 Pr800 2.438 . S
O830 C819 1.267 . S
O831 Pr801 2.437 . S
O831 C819 1.278 . S
H832 C804 0.929 . S
H833 C805 0.929 . S
H834 C807 0.931 . S
H835 C808 0.930 . S
H836 C813 0.929 . S
H837 C814 0.929 . S
H838 C816 0.931 . S
H839 C817 0.930 . S
Pr840 C842 2.880 1_556 S
Pr840 O860 2.562 1_556 S
Pr840 O861 2.488 . S
Pr840 O862 2.695 . S
Pr840 O863 2.512 . S
Pr840 O865 2.437 1_556 S
Pr840 O868 2.436 . S
Pr840 O870 2.438 . S
Pr841 C851 2.880 . S
Pr841 O862 2.436 . S
Pr841 O864 2.438 1_556 S
Pr841 O866 2.562 . S
Pr841 O867 2.490 . S
Pr841 O868 2.695 . S
Pr841 O869 2.512 . S
Pr841 O871 2.437 . S
C842 Pr840 2.880 1_554 S
C842 C843 1.491 . S
C842 O860 1.254 . S
C842 O861 1.228 1_554 S
C843 C842 1.491 . S
C843 C844 1.392 . S
C843 C848 1.356 . S
C844 C843 1.392 . S
C844 C845 1.368 . S
C844 H872 0.929 . S
C845 C844 1.368 . S
C845 C846 1.386 . S
C845 H873 0.929 . S
C846 C845 1.386 . S
C846 C847 1.373 . S
C847 C846 1.373 . S
C847 C848 1.409 . S
C847 H874 0.931 . S
C848 C843 1.356 . S
C848 C847 1.409 . S
C848 H875 0.930 . S
C849 O862 1.270 . S
C849 O863 1.248 . S
C850 O864 1.267 . S
C850 O865 1.278 . S
C851 Pr841 2.880 . S
C851 C852 1.491 . S
C851 O866 1.254 . S
C851 O867 1.225 . S
C852 C851 1.491 . S
C852 C853 1.392 . S
C852 C857 1.356 . S
C853 C852 1.392 . S
C853 C854 1.368 . S
C853 H876 0.929 . S
C854 C853 1.368 . S
C854 C855 1.386 . S
C854 H877 0.929 . S
C855 C854 1.386 . S
C855 C856 1.373 . S
C856 C855 1.373 . S
C856 C857 1.409 . S
C856 H878 0.931 . S
C857 C852 1.356 . S
C857 C856 1.409 . S
C857 H879 0.930 . S
C858 O868 1.270 . S
C858 O869 1.248 . S
C859 O870 1.267 . S
C859 O871 1.278 . S
O860 Pr840 2.562 1_554 S
O860 C842 1.254 . S
O861 Pr840 2.488 . S
O861 C842 1.228 1_556 S
O862 Pr840 2.695 . S
O862 Pr841 2.436 . S
O862 C849 1.270 . S
O863 Pr840 2.512 . S
O863 C849 1.248 . S
O864 Pr841 2.438 1_554 S
O864 C850 1.267 . S
O865 Pr840 2.437 1_554 S
O865 C850 1.278 . S
O866 Pr841 2.562 . S
O866 C851 1.254 . S
O867 Pr841 2.490 . S
O867 C851 1.225 . S
O868 Pr840 2.436 . S
O868 Pr841 2.695 . S
O868 C858 1.270 . S
O869 Pr841 2.512 . S
O869 C858 1.248 . S
O870 Pr840 2.438 . S
O870 C859 1.267 . S
O871 Pr841 2.437 . S
O871 C859 1.278 . S
H872 C844 0.929 . S
H873 C845 0.929 . S
H874 C847 0.931 . S
H875 C848 0.930 . S
H876 C853 0.929 . S
H877 C854 0.929 . S
H878 C856 0.931 . S
H879 C857 0.930 . S
Pr880 C882 2.880 . S
Pr880 O900 2.562 . S
Pr880 O901 2.490 . S
Pr880 O902 2.695 . S
Pr880 O903 2.512 . S
Pr880 O905 2.437 . S
Pr880 O908 2.436 . S
Pr880 O910 2.438 . S
Pr881 C891 2.880 . S
Pr881 O902 2.436 . S
Pr881 O904 2.438 . S
Pr881 O906 2.562 . S
Pr881 O907 2.490 . S
Pr881 O908 2.695 . S
Pr881 O909 2.512 . S
Pr881 O911 2.437 . S
C882 Pr880 2.880 . S
C882 C883 1.491 . S
C882 O900 1.254 . S
C882 O901 1.225 . S
C883 C882 1.491 . S
C883 C884 1.392 . S
C883 C888 1.356 . S
C884 C883 1.392 . S
C884 C885 1.368 . S
C884 H912 0.929 . S
C885 C884 1.368 . S
C885 C886 1.386 . S
C885 H913 0.929 . S
C886 C885 1.386 . S
C886 C887 1.373 . S
C887 C886 1.373 . S
C887 C888 1.409 . S
C887 H914 0.931 . S
C888 C883 1.356 . S
C888 C887 1.409 . S
C888 H915 0.930 . S
C889 O902 1.270 . S
C889 O903 1.248 . S
C890 O904 1.267 . S
C890 O905 1.278 . S
C891 Pr881 2.880 . S
C891 C892 1.491 . S
C891 O906 1.254 . S
C891 O907 1.225 . S
C892 C891 1.491 . S
C892 C893 1.392 . S
C892 C897 1.356 . S
C893 C892 1.392 . S
C893 C894 1.368 . S
C893 H916 0.929 . S
C894 C893 1.368 . S
C894 C895 1.386 . S
C894 H917 0.929 1_655 S
C895 C894 1.386 . S
C895 C896 1.373 . S
C896 C895 1.373 . S
C896 C897 1.409 . S
C896 H918 0.931 . S
C897 C892 1.356 . S
C897 C896 1.409 . S
C897 H919 0.930 . S
C898 O908 1.270 . S
C898 O909 1.248 . S
C899 O910 1.267 . S
C899 O911 1.278 . S
O900 Pr880 2.562 . S
O900 C882 1.254 . S
O901 Pr880 2.490 . S
O901 C882 1.225 . S
O902 Pr880 2.695 . S
O902 Pr881 2.436 . S
O902 C889 1.270 . S
O903 Pr880 2.512 . S
O903 C889 1.248 . S
O904 Pr881 2.438 . S
O904 C890 1.267 . S
O905 Pr880 2.437 . S
O905 C890 1.278 . S
O906 Pr881 2.562 . S
O906 C891 1.254 . S
O907 Pr881 2.490 . S
O907 C891 1.225 . S
O908 Pr880 2.436 . S
O908 Pr881 2.695 . S
O908 C898 1.270 . S
O909 Pr881 2.512 . S
O909 C898 1.248 . S
O910 Pr880 2.438 . S
O910 C899 1.267 . S
O911 Pr881 2.437 . S
O911 C899 1.278 . S
H912 C884 0.929 . S
H913 C885 0.929 . S
H914 C887 0.931 . S
H915 C888 0.930 . S
H916 C893 0.929 . S
H917 C894 0.929 1_455 S
H918 C896 0.931 . S
H919 C897 0.930 . S
Pr920 C922 2.880 . S
Pr920 O940 2.562 . S
Pr920 O941 2.490 . S
Pr920 O942 2.695 . S
Pr920 O943 2.512 . S
Pr920 O945 2.437 . S
Pr920 O948 2.436 . S
Pr920 O950 2.438 . S
Pr921 C931 2.880 . S
Pr921 O942 2.436 . S
Pr921 O944 2.438 . S
Pr921 O946 2.562 . S
Pr921 O947 2.490 . S
Pr921 O948 2.695 . S
Pr921 O949 2.512 . S
Pr921 O951 2.437 . S
C922 Pr920 2.880 . S
C922 C923 1.491 . S
C922 O940 1.254 . S
C922 O941 1.225 . S
C923 C922 1.491 . S
C923 C924 1.392 . S
C923 C928 1.356 . S
C924 C923 1.392 . S
C924 C925 1.368 . S
C924 H952 0.929 . S
C925 C924 1.368 . S
C925 C926 1.386 . S
C925 H953 0.929 . S
C926 C925 1.386 . S
C926 C927 1.373 . S
C927 C926 1.373 . S
C927 C928 1.409 . S
C927 H954 0.931 . S
C928 C923 1.356 . S
C928 C927 1.409 . S
C928 H955 0.930 . S
C929 O942 1.270 . S
C929 O943 1.248 . S
C930 O944 1.267 . S
C930 O945 1.278 . S
C931 Pr921 2.880 . S
C931 C932 1.491 . S
C931 O946 1.254 . S
C931 O947 1.225 . S
C932 C931 1.491 . S
C932 C933 1.392 . S
C932 C937 1.356 . S
C933 C932 1.392 . S
C933 C934 1.368 . S
C933 H956 0.929 . S
C934 C933 1.368 . S
C934 C935 1.386 . S
C934 H957 0.929 . S
C935 C934 1.386 . S
C935 C936 1.373 . S
C936 C935 1.373 . S
C936 C937 1.409 . S
C936 H958 0.931 . S
C937 C932 1.356 . S
C937 C936 1.409 . S
C937 H959 0.930 . S
C938 O948 1.270 . S
C938 O949 1.248 . S
C939 O950 1.267 . S
C939 O951 1.278 . S
O940 Pr920 2.562 . S
O940 C922 1.254 . S
O941 Pr920 2.490 . S
O941 C922 1.225 . S
O942 Pr920 2.695 . S
O942 Pr921 2.436 . S
O942 C929 1.270 . S
O943 Pr920 2.512 . S
O943 C929 1.248 . S
O944 Pr921 2.438 . S
O944 C930 1.267 . S
O945 Pr920 2.437 . S
O945 C930 1.278 . S
O946 Pr921 2.562 . S
O946 C931 1.254 . S
O947 Pr921 2.490 . S
O947 C931 1.225 . S
O948 Pr920 2.436 . S
O948 Pr921 2.695 . S
O948 C938 1.270 . S
O949 Pr921 2.512 . S
O949 C938 1.248 . S
O950 Pr920 2.438 . S
O950 C939 1.267 . S
O951 Pr921 2.437 . S
O951 C939 1.278 . S
H952 C924 0.929 . S
H953 C925 0.929 . S
H954 C927 0.931 . S
H955 C928 0.930 . S
H956 C933 0.929 . S
H957 C934 0.929 . S
H958 C936 0.931 . S
H959 C937 0.930 . S
Pr960 C962 2.880 . S
Pr960 O980 2.562 . S
Pr960 O981 2.490 . S
Pr960 O982 2.695 . S
Pr960 O983 2.512 . S
Pr960 O985 2.437 . S
Pr960 O988 2.436 . S
Pr960 O990 2.438 . S
Pr961 C971 2.880 . S
Pr961 O982 2.436 . S
Pr961 O984 2.438 . S
Pr961 O986 2.562 . S
Pr961 O987 2.490 . S
Pr961 O988 2.695 . S
Pr961 O989 2.512 . S
Pr961 O991 2.437 . S
C962 Pr960 2.880 . S
C962 C963 1.491 . S
C962 O980 1.254 . S
C962 O981 1.225 . S
C963 C962 1.491 . S
C963 C964 1.392 . S
C963 C968 1.356 . S
C964 C963 1.392 . S
C964 C965 1.368 . S
C964 H992 0.929 . S
C965 C964 1.368 . S
C965 C966 1.386 . S
C965 H993 0.929 . S
C966 C965 1.386 . S
C966 C967 1.373 . S
C967 C966 1.373 . S
C967 C968 1.409 . S
C967 H994 0.931 . S
C968 C963 1.356 . S
C968 C967 1.409 . S
C968 H995 0.930 . S
C969 O982 1.270 . S
C969 O983 1.248 . S
C970 O984 1.267 . S
C970 O985 1.278 . S
C971 Pr961 2.880 . S
C971 C972 1.491 . S
C971 O986 1.254 . S
C971 O987 1.225 . S
C972 C971 1.491 . S
C972 C973 1.392 . S
C972 C977 1.356 . S
C973 C972 1.392 . S
C973 C974 1.368 . S
C973 H996 0.929 . S
C974 C973 1.368 . S
C974 C975 1.386 . S
C974 H997 0.929 . S
C975 C974 1.386 . S
C975 C976 1.373 . S
C976 C975 1.373 . S
C976 C977 1.409 . S
C976 H998 0.931 . S
C977 C972 1.356 . S
C977 C976 1.409 . S
C977 H999 0.930 . S
C978 O988 1.270 . S
C978 O989 1.248 . S
C979 O990 1.267 . S
C979 O991 1.278 . S
O980 Pr960 2.562 . S
O980 C962 1.254 . S
O981 Pr960 2.490 . S
O981 C962 1.225 . S
O982 Pr960 2.695 . S
O982 Pr961 2.436 . S
O982 C969 1.270 . S
O983 Pr960 2.512 . S
O983 C969 1.248 . S
O984 Pr961 2.438 . S
O984 C970 1.267 . S
O985 Pr960 2.437 . S
O985 C970 1.278 . S
O986 Pr961 2.562 . S
O986 C971 1.254 . S
O987 Pr961 2.490 . S
O987 C971 1.225 . S
O988 Pr960 2.436 . S
O988 Pr961 2.695 . S
O988 C978 1.270 . S
O989 Pr961 2.512 . S
O989 C978 1.248 . S
O990 Pr960 2.438 . S
O990 C979 1.267 . S
O991 Pr961 2.437 . S
O991 C979 1.278 . S
H992 C964 0.929 . S
H993 C965 0.929 . S
H994 C967 0.931 . S
H995 C968 0.930 . S
H996 C973 0.929 . S
H997 C974 0.929 . S
H998 C976 0.931 . S
H999 C977 0.930 . S
Pr1000 C1002 2.880 . S
Pr1000 O1020 2.562 . S
Pr1000 O1021 2.490 . S
Pr1000 O1022 2.695 . S
Pr1000 O1023 2.512 . S
Pr1000 O1025 2.437 . S
Pr1000 O1028 2.436 . S
Pr1000 O1030 2.438 1_556 S
Pr1001 C1011 2.880 1_556 S
Pr1001 O1022 2.436 . S
Pr1001 O1024 2.438 . S
Pr1001 O1026 2.562 1_556 S
Pr1001 O1027 2.488 . S
Pr1001 O1028 2.695 . S
Pr1001 O1029 2.512 . S
Pr1001 O1031 2.437 1_556 S
C1002 Pr1000 2.880 . S
C1002 C1003 1.491 . S
C1002 O1020 1.254 . S
C1002 O1021 1.225 . S
C1003 C1002 1.491 . S
C1003 C1004 1.392 . S
C1003 C1008 1.356 . S
C1004 C1003 1.392 . S
C1004 C1005 1.368 . S
C1004 H1032 0.929 . S
C1005 C1004 1.368 . S
C1005 C1006 1.386 . S
C1005 H1033 0.929 . S
C1006 C1005 1.386 . S
C1006 C1007 1.373 . S
C1007 C1006 1.373 . S
C1007 C1008 1.409 . S
C1007 H1034 0.931 . S
C1008 C1003 1.356 . S
C1008 C1007 1.409 . S
C1008 H1035 0.930 . S
C1009 O1022 1.270 . S
C1009 O1023 1.248 . S
C1010 O1024 1.267 . S
C1010 O1025 1.278 . S
C1011 Pr1001 2.880 1_554 S
C1011 C1012 1.491 . S
C1011 O1026 1.254 . S
C1011 O1027 1.228 1_554 S
C1012 C1011 1.491 . S
C1012 C1013 1.392 . S
C1012 C1017 1.356 . S
C1013 C1012 1.392 . S
C1013 C1014 1.368 . S
C1013 H1036 0.929 . S
C1014 C1013 1.368 . S
C1014 C1015 1.386 . S
C1014 H1037 0.929 . S
C1015 C1014 1.386 . S
C1015 C1016 1.373 . S
C1016 C1015 1.373 . S
C1016 C1017 1.409 . S
C1016 H1038 0.931 . S
C1017 C1012 1.356 . S
C1017 C1016 1.409 . S
C1017 H1039 0.930 . S
C1018 O1028 1.270 . S
C1018 O1029 1.248 . S
C1019 O1030 1.267 . S
C1019 O1031 1.278 . S
O1020 Pr1000 2.562 . S
O1020 C1002 1.254 . S
O1021 Pr1000 2.490 . S
O1021 C1002 1.225 . S
O1022 Pr1000 2.695 . S
O1022 Pr1001 2.436 . S
O1022 C1009 1.270 . S
O1023 Pr1000 2.512 . S
O1023 C1009 1.248 . S
O1024 Pr1001 2.438 . S
O1024 C1010 1.267 . S
O1025 Pr1000 2.437 . S
O1025 C1010 1.278 . S
O1026 Pr1001 2.562 1_554 S
O1026 C1011 1.254 . S
O1027 Pr1001 2.488 . S
O1027 C1011 1.228 1_556 S
O1028 Pr1000 2.436 . S
O1028 Pr1001 2.695 . S
O1028 C1018 1.270 . S
O1029 Pr1001 2.512 . S
O1029 C1018 1.248 . S
O1030 Pr1000 2.438 1_554 S
O1030 C1019 1.267 . S
O1031 Pr1001 2.437 1_554 S
O1031 C1019 1.278 . S
H1032 C1004 0.929 . S
H1033 C1005 0.929 . S
H1034 C1007 0.931 . S
H1035 C1008 0.930 . S
H1036 C1013 0.929 . S
H1037 C1014 0.929 . S
H1038 C1016 0.931 . S
H1039 C1017 0.930 . S
Pr1040 C1042 2.880 . S
Pr1040 O1060 2.562 . S
Pr1040 O1061 2.490 . S
Pr1040 O1062 2.695 . S
Pr1040 O1063 2.512 . S
Pr1040 O1065 2.437 . S
Pr1040 O1068 2.436 . S
Pr1040 O1070 2.438 . S
Pr1041 C1051 2.880 . S
Pr1041 O1062 2.436 . S
Pr1041 O1064 2.438 . S
Pr1041 O1066 2.562 . S
Pr1041 O1067 2.490 . S
Pr1041 O1068 2.695 . S
Pr1041 O1069 2.512 . S
Pr1041 O1071 2.437 . S
C1042 Pr1040 2.880 . S
C1042 C1043 1.491 . S
C1042 O1060 1.254 . S
C1042 O1061 1.225 . S
C1043 C1042 1.491 . S
C1043 C1044 1.392 . S
C1043 C1048 1.356 . S
C1044 C1043 1.392 . S
C1044 C1045 1.368 . S
C1044 H1072 0.929 . S
C1045 C1044 1.368 . S
C1045 C1046 1.386 . S
C1045 H1073 0.929 1_455 S
C1046 C1045 1.386 . S
C1046 C1047 1.373 . S
C1047 C1046 1.373 . S
C1047 C1048 1.409 . S
C1047 H1074 0.931 . S
C1048 C1043 1.356 . S
C1048 C1047 1.409 . S
C1048 H1075 0.930 . S
C1049 O1062 1.270 . S
C1049 O1063 1.248 . S
C1050 O1064 1.267 . S
C1050 O1065 1.278 . S
C1051 Pr1041 2.880 . S
C1051 C1052 1.491 . S
C1051 O1066 1.254 . S
C1051 O1067 1.225 . S
C1052 C1051 1.491 . S
C1052 C1053 1.392 . S
C1052 C1057 1.356 . S
C1053 C1052 1.392 . S
C1053 C1054 1.368 . S
C1053 H1076 0.929 . S
C1054 C1053 1.368 . S
C1054 C1055 1.386 . S
C1054 H1077 0.929 . S
C1055 C1054 1.386 . S
C1055 C1056 1.373 . S
C1056 C1055 1.373 . S
C1056 C1057 1.409 . S
C1056 H1078 0.931 . S
C1057 C1052 1.356 . S
C1057 C1056 1.409 . S
C1057 H1079 0.930 . S
C1058 O1068 1.270 . S
C1058 O1069 1.248 . S
C1059 O1070 1.267 . S
C1059 O1071 1.278 . S
O1060 Pr1040 2.562 . S
O1060 C1042 1.254 . S
O1061 Pr1040 2.490 . S
O1061 C1042 1.225 . S
O1062 Pr1040 2.695 . S
O1062 Pr1041 2.436 . S
O1062 C1049 1.270 . S
O1063 Pr1040 2.512 . S
O1063 C1049 1.248 . S
O1064 Pr1041 2.438 . S
O1064 C1050 1.267 . S
O1065 Pr1040 2.437 . S
O1065 C1050 1.278 . S
O1066 Pr1041 2.562 . S
O1066 C1051 1.254 . S
O1067 Pr1041 2.490 . S
O1067 C1051 1.225 . S
O1068 Pr1040 2.436 . S
O1068 Pr1041 2.695 . S
O1068 C1058 1.270 . S
O1069 Pr1041 2.512 . S
O1069 C1058 1.248 . S
O1070 Pr1040 2.438 . S
O1070 C1059 1.267 . S
O1071 Pr1041 2.437 . S
O1071 C1059 1.278 . S
H1072 C1044 0.929 . S
H1073 C1045 0.929 1_655 S
H1074 C1047 0.931 . S
H1075 C1048 0.930 . S
H1076 C1053 0.929 . S
H1077 C1054 0.929 . S
H1078 C1056 0.931 . S
H1079 C1057 0.930 . S
Pr1080 C1082 2.880 . S
Pr1080 O1100 2.562 . S
Pr1080 O1101 2.490 . S
Pr1080 O1102 2.695 . S
Pr1080 O1103 2.512 . S
Pr1080 O1105 2.437 . S
Pr1080 O1108 2.436 . S
Pr1080 O1110 2.438 . S
Pr1081 C1091 2.880 . S
Pr1081 O1102 2.436 . S
Pr1081 O1104 2.438 . S
Pr1081 O1106 2.562 . S
Pr1081 O1107 2.490 . S
Pr1081 O1108 2.695 . S
Pr1081 O1109 2.512 . S
Pr1081 O1111 2.437 . S
C1082 Pr1080 2.880 . S
C1082 C1083 1.491 . S
C1082 O1100 1.254 . S
C1082 O1101 1.225 . S
C1083 C1082 1.491 . S
C1083 C1084 1.392 . S
C1083 C1088 1.356 . S
C1084 C1083 1.392 . S
C1084 C1085 1.368 . S
C1084 H1112 0.929 . S
C1085 C1084 1.368 . S
C1085 C1086 1.386 . S
C1085 H1113 0.929 . S
C1086 C1085 1.386 . S
C1086 C1087 1.373 . S
C1087 C1086 1.373 . S
C1087 C1088 1.409 . S
C1087 H1114 0.931 . S
C1088 C1083 1.356 . S
C1088 C1087 1.409 . S
C1088 H1115 0.930 . S
C1089 O1102 1.270 . S
C1089 O1103 1.248 . S
C1090 O1104 1.267 . S
C1090 O1105 1.278 . S
C1091 Pr1081 2.880 . S
C1091 C1092 1.491 . S
C1091 O1106 1.254 . S
C1091 O1107 1.225 . S
C1092 C1091 1.491 . S
C1092 C1093 1.392 . S
C1092 C1097 1.356 . S
C1093 C1092 1.392 . S
C1093 C1094 1.368 . S
C1093 H1116 0.929 . S
C1094 C1093 1.368 . S
C1094 C1095 1.386 . S
C1094 H1117 0.929 . S
C1095 C1094 1.386 . S
C1095 C1096 1.373 . S
C1096 C1095 1.373 . S
C1096 C1097 1.409 . S
C1096 H1118 0.931 . S
C1097 C1092 1.356 . S
C1097 C1096 1.409 . S
C1097 H1119 0.930 . S
C1098 O1108 1.270 . S
C1098 O1109 1.248 . S
C1099 O1110 1.267 . S
C1099 O1111 1.278 . S
O1100 Pr1080 2.562 . S
O1100 C1082 1.254 . S
O1101 Pr1080 2.490 . S
O1101 C1082 1.225 . S
O1102 Pr1080 2.695 . S
O1102 Pr1081 2.436 . S
O1102 C1089 1.270 . S
O1103 Pr1080 2.512 . S
O1103 C1089 1.248 . S
O1104 Pr1081 2.438 . S
O1104 C1090 1.267 . S
O1105 Pr1080 2.437 . S
O1105 C1090 1.278 . S
O1106 Pr1081 2.562 . S
O1106 C1091 1.254 . S
O1107 Pr1081 2.490 . S
O1107 C1091 1.225 . S
O1108 Pr1080 2.436 . S
O1108 Pr1081 2.695 . S
O1108 C1098 1.270 . S
O1109 Pr1081 2.512 . S
O1109 C1098 1.248 . S
O1110 Pr1080 2.438 . S
O1110 C1099 1.267 . S
O1111 Pr1081 2.437 . S
O1111 C1099 1.278 . S
H1112 C1084 0.929 . S
H1113 C1085 0.929 . S
H1114 C1087 0.931 . S
H1115 C1088 0.930 . S
H1116 C1093 0.929 . S
H1117 C1094 0.929 . S
H1118 C1096 0.931 . S
H1119 C1097 0.930 . S
Pr1120 C1122 2.880 . S
Pr1120 O1140 2.562 . S
Pr1120 O1141 2.490 . S
Pr1120 O1142 2.695 . S
Pr1120 O1143 2.512 . S
Pr1120 O1145 2.437 . S
Pr1120 O1148 2.436 . S
Pr1120 O1150 2.438 . S
Pr1121 C1131 2.880 . S
Pr1121 O1142 2.436 . S
Pr1121 O1144 2.438 . S
Pr1121 O1146 2.562 . S
Pr1121 O1147 2.490 . S
Pr1121 O1148 2.695 . S
Pr1121 O1149 2.512 . S
Pr1121 O1151 2.437 . S
C1122 Pr1120 2.880 . S
C1122 C1123 1.491 . S
C1122 O1140 1.254 . S
C1122 O1141 1.225 . S
C1123 C1122 1.491 . S
C1123 C1124 1.392 . S
C1123 C1128 1.356 . S
C1124 C1123 1.392 . S
C1124 C1125 1.368 . S
C1124 H1152 0.929 . S
C1125 C1124 1.368 . S
C1125 C1126 1.386 . S
C1125 H1153 0.929 . S
C1126 C1125 1.386 . S
C1126 C1127 1.373 . S
C1127 C1126 1.373 . S
C1127 C1128 1.409 . S
C1127 H1154 0.931 . S
C1128 C1123 1.356 . S
C1128 C1127 1.409 . S
C1128 H1155 0.930 . S
C1129 O1142 1.270 . S
C1129 O1143 1.248 . S
C1130 O1144 1.267 . S
C1130 O1145 1.278 . S
C1131 Pr1121 2.880 . S
C1131 C1132 1.491 . S
C1131 O1146 1.254 . S
C1131 O1147 1.225 . S
C1132 C1131 1.491 . S
C1132 C1133 1.392 . S
C1132 C1137 1.356 . S
C1133 C1132 1.392 . S
C1133 C1134 1.368 . S
C1133 H1156 0.929 . S
C1134 C1133 1.368 . S
C1134 C1135 1.386 . S
C1134 H1157 0.929 . S
C1135 C1134 1.386 . S
C1135 C1136 1.373 . S
C1136 C1135 1.373 . S
C1136 C1137 1.409 . S
C1136 H1158 0.931 . S
C1137 C1132 1.356 . S
C1137 C1136 1.409 . S
C1137 H1159 0.930 . S
C1138 O1148 1.270 . S
C1138 O1149 1.248 . S
C1139 O1150 1.267 . S
C1139 O1151 1.278 . S
O1140 Pr1120 2.562 . S
O1140 C1122 1.254 . S
O1141 Pr1120 2.490 . S
O1141 C1122 1.225 . S
O1142 Pr1120 2.695 . S
O1142 Pr1121 2.436 . S
O1142 C1129 1.270 . S
O1143 Pr1120 2.512 . S
O1143 C1129 1.248 . S
O1144 Pr1121 2.438 . S
O1144 C1130 1.267 . S
O1145 Pr1120 2.437 . S
O1145 C1130 1.278 . S
O1146 Pr1121 2.562 . S
O1146 C1131 1.254 . S
O1147 Pr1121 2.490 . S
O1147 C1131 1.225 . S
O1148 Pr1120 2.436 . S
O1148 Pr1121 2.695 . S
O1148 C1138 1.270 . S
O1149 Pr1121 2.512 . S
O1149 C1138 1.248 . S
O1150 Pr1120 2.438 . S
O1150 C1139 1.267 . S
O1151 Pr1121 2.437 . S
O1151 C1139 1.278 . S
H1152 C1124 0.929 . S
H1153 C1125 0.929 . S
H1154 C1127 0.931 . S
H1155 C1128 0.930 . S
H1156 C1133 0.929 . S
H1157 C1134 0.929 . S
H1158 C1136 0.931 . S
H1159 C1137 0.930 . S
Pr1160 C1162 2.880 . S
Pr1160 O1180 2.562 . S
Pr1160 O1181 2.490 . S
Pr1160 O1182 2.695 . S
Pr1160 O1183 2.512 . S
Pr1160 O1185 2.437 . S
Pr1160 O1188 2.436 . S
Pr1160 O1190 2.438 1_554 S
Pr1161 C1171 2.880 1_554 S
Pr1161 O1182 2.436 . S
Pr1161 O1184 2.438 . S
Pr1161 O1186 2.562 1_554 S
Pr1161 O1187 2.488 . S
Pr1161 O1188 2.695 . S
Pr1161 O1189 2.512 . S
Pr1161 O1191 2.437 1_554 S
C1162 Pr1160 2.880 . S
C1162 C1163 1.491 . S
C1162 O1180 1.254 . S
C1162 O1181 1.225 . S
C1163 C1162 1.491 . S
C1163 C1164 1.392 . S
C1163 C1168 1.356 . S
C1164 C1163 1.392 . S
C1164 C1165 1.368 . S
C1164 H1192 0.929 . S
C1165 C1164 1.368 . S
C1165 C1166 1.386 . S
C1165 H1193 0.929 . S
C1166 C1165 1.386 . S
C1166 C1167 1.373 . S
C1167 C1166 1.373 . S
C1167 C1168 1.409 . S
C1167 H1194 0.931 . S
C1168 C1163 1.356 . S
C1168 C1167 1.409 . S
C1168 H1195 0.930 . S
C1169 O1182 1.270 . S
C1169 O1183 1.248 . S
C1170 O1184 1.267 . S
C1170 O1185 1.278 . S
C1171 Pr1161 2.880 1_556 S
C1171 C1172 1.491 . S
C1171 O1186 1.254 . S
C1171 O1187 1.228 1_556 S
C1172 C1171 1.491 . S
C1172 C1173 1.392 . S
C1172 C1177 1.356 . S
C1173 C1172 1.392 . S
C1173 C1174 1.368 . S
C1173 H1196 0.929 . S
C1174 C1173 1.368 . S
C1174 C1175 1.386 . S
C1174 H1197 0.929 . S
C1175 C1174 1.386 . S
C1175 C1176 1.373 . S
C1176 C1175 1.373 . S
C1176 C1177 1.409 . S
C1176 H1198 0.931 . S
C1177 C1172 1.356 . S
C1177 C1176 1.409 . S
C1177 H1199 0.930 . S
C1178 O1188 1.270 . S
C1178 O1189 1.248 . S
C1179 O1190 1.267 . S
C1179 O1191 1.278 . S
O1180 Pr1160 2.562 . S
O1180 C1162 1.254 . S
O1181 Pr1160 2.490 . S
O1181 C1162 1.225 . S
O1182 Pr1160 2.695 . S
O1182 Pr1161 2.436 . S
O1182 C1169 1.270 . S
O1183 Pr1160 2.512 . S
O1183 C1169 1.248 . S
O1184 Pr1161 2.438 . S
O1184 C1170 1.267 . S
O1185 Pr1160 2.437 . S
O1185 C1170 1.278 . S
O1186 Pr1161 2.562 1_556 S
O1186 C1171 1.254 . S
O1187 Pr1161 2.488 . S
O1187 C1171 1.228 1_554 S
O1188 Pr1160 2.436 . S
O1188 Pr1161 2.695 . S
O1188 C1178 1.270 . S
O1189 Pr1161 2.512 . S
O1189 C1178 1.248 . S
O1190 Pr1160 2.438 1_556 S
O1190 C1179 1.267 . S
O1191 Pr1161 2.437 1_556 S
O1191 C1179 1.278 . S
H1192 C1164 0.929 . S
H1193 C1165 0.929 . S
H1194 C1167 0.931 . S
H1195 C1168 0.930 . S
H1196 C1173 0.929 . S
H1197 C1174 0.929 . S
H1198 C1176 0.931 . S
H1199 C1177 0.930 . S
Pr1200 C1202 2.880 . S
Pr1200 O1220 2.562 . S
Pr1200 O1221 2.490 . S
Pr1200 O1222 2.695 . S
Pr1200 O1223 2.512 . S
Pr1200 O1225 2.437 . S
Pr1200 O1228 2.436 . S
Pr1200 O1230 2.438 . S
Pr1201 C1211 2.880 . S
Pr1201 O1222 2.436 . S
Pr1201 O1224 2.438 . S
Pr1201 O1226 2.562 . S
Pr1201 O1227 2.490 . S
Pr1201 O1228 2.695 . S
Pr1201 O1229 2.512 . S
Pr1201 O1231 2.437 . S
C1202 Pr1200 2.880 . S
C1202 C1203 1.491 . S
C1202 O1220 1.254 . S
C1202 O1221 1.225 . S
C1203 C1202 1.491 . S
C1203 C1204 1.392 . S
C1203 C1208 1.356 . S
C1204 C1203 1.392 . S
C1204 C1205 1.368 . S
C1204 H1232 0.929 . S
C1205 C1204 1.368 . S
C1205 C1206 1.386 . S
C1205 H1233 0.929 1_455 S
C1206 C1205 1.386 . S
C1206 C1207 1.373 . S
C1207 C1206 1.373 . S
C1207 C1208 1.409 . S
C1207 H1234 0.931 . S
C1208 C1203 1.356 . S
C1208 C1207 1.409 . S
C1208 H1235 0.930 . S
C1209 O1222 1.270 . S
C1209 O1223 1.248 . S
C1210 O1224 1.267 . S
C1210 O1225 1.278 . S
C1211 Pr1201 2.880 . S
C1211 C1212 1.491 . S
C1211 O1226 1.254 . S
C1211 O1227 1.225 . S
C1212 C1211 1.491 . S
C1212 C1213 1.392 . S
C1212 C1217 1.356 . S
C1213 C1212 1.392 . S
C1213 C1214 1.368 . S
C1213 H1236 0.929 . S
C1214 C1213 1.368 . S
C1214 C1215 1.386 . S
C1214 H1237 0.929 . S
C1215 C1214 1.386 . S
C1215 C1216 1.373 . S
C1216 C1215 1.373 . S
C1216 C1217 1.409 . S
C1216 H1238 0.931 . S
C1217 C1212 1.356 . S
C1217 C1216 1.409 . S
C1217 H1239 0.930 . S
C1218 O1228 1.270 . S
C1218 O1229 1.248 . S
C1219 O1230 1.267 . S
C1219 O1231 1.278 . S
O1220 Pr1200 2.562 . S
O1220 C1202 1.254 . S
O1221 Pr1200 2.490 . S
O1221 C1202 1.225 . S
O1222 Pr1200 2.695 . S
O1222 Pr1201 2.436 . S
O1222 C1209 1.270 . S
O1223 Pr1200 2.512 . S
O1223 C1209 1.248 . S
O1224 Pr1201 2.438 . S
O1224 C1210 1.267 . S
O1225 Pr1200 2.437 . S
O1225 C1210 1.278 . S
O1226 Pr1201 2.562 . S
O1226 C1211 1.254 . S
O1227 Pr1201 2.490 . S
O1227 C1211 1.225 . S
O1228 Pr1200 2.436 . S
O1228 Pr1201 2.695 . S
O1228 C1218 1.270 . S
O1229 Pr1201 2.512 . S
O1229 C1218 1.248 . S
O1230 Pr1200 2.438 . S
O1230 C1219 1.267 . S
O1231 Pr1201 2.437 . S
O1231 C1219 1.278 . S
H1232 C1204 0.929 . S
H1233 C1205 0.929 1_655 S
H1234 C1207 0.931 . S
H1235 C1208 0.930 . S
H1236 C1213 0.929 . S
H1237 C1214 0.929 . S
H1238 C1216 0.931 . S
H1239 C1217 0.930 . S
Pr1240 C1242 2.880 . S
Pr1240 O1260 2.562 . S
Pr1240 O1261 2.490 . S
Pr1240 O1262 2.695 . S
Pr1240 O1263 2.512 . S
Pr1240 O1265 2.437 . S
Pr1240 O1268 2.436 . S
Pr1240 O1270 2.438 . S
Pr1241 C1251 2.880 . S
Pr1241 O1262 2.436 . S
Pr1241 O1264 2.438 . S
Pr1241 O1266 2.562 . S
Pr1241 O1267 2.490 . S
Pr1241 O1268 2.695 . S
Pr1241 O1269 2.512 . S
Pr1241 O1271 2.437 . S
C1242 Pr1240 2.880 . S
C1242 C1243 1.491 . S
C1242 O1260 1.254 . S
C1242 O1261 1.225 . S
C1243 C1242 1.491 . S
C1243 C1244 1.392 . S
C1243 C1248 1.356 . S
C1244 C1243 1.392 . S
C1244 C1245 1.368 . S
C1244 H1272 0.929 . S
C1245 C1244 1.368 . S
C1245 C1246 1.386 . S
C1245 H1273 0.929 . S
C1246 C1245 1.386 . S
C1246 C1247 1.373 . S
C1247 C1246 1.373 . S
C1247 C1248 1.409 . S
C1247 H1274 0.931 . S
C1248 C1243 1.356 . S
C1248 C1247 1.409 . S
C1248 H1275 0.930 . S
C1249 O1262 1.270 . S
C1249 O1263 1.248 . S
C1250 O1264 1.267 . S
C1250 O1265 1.278 . S
C1251 Pr1241 2.880 . S
C1251 C1252 1.491 . S
C1251 O1266 1.254 . S
C1251 O1267 1.225 . S
C1252 C1251 1.491 . S
C1252 C1253 1.392 . S
C1252 C1257 1.356 . S
C1253 C1252 1.392 . S
C1253 C1254 1.368 . S
C1253 H1276 0.929 . S
C1254 C1253 1.368 . S
C1254 C1255 1.386 . S
C1254 H1277 0.929 . S
C1255 C1254 1.386 . S
C1255 C1256 1.373 . S
C1256 C1255 1.373 . S
C1256 C1257 1.409 . S
C1256 H1278 0.931 . S
C1257 C1252 1.356 . S
C1257 C1256 1.409 . S
C1257 H1279 0.930 . S
C1258 O1268 1.270 . S
C1258 O1269 1.248 . S
C1259 O1270 1.267 . S
C1259 O1271 1.278 . S
O1260 Pr1240 2.562 . S
O1260 C1242 1.254 . S
O1261 Pr1240 2.490 . S
O1261 C1242 1.225 . S
O1262 Pr1240 2.695 . S
O1262 Pr1241 2.436 . S
O1262 C1249 1.270 . S
O1263 Pr1240 2.512 . S
O1263 C1249 1.248 . S
O1264 Pr1241 2.438 . S
O1264 C1250 1.267 . S
O1265 Pr1240 2.437 . S
O1265 C1250 1.278 . S
O1266 Pr1241 2.562 . S
O1266 C1251 1.254 . S
O1267 Pr1241 2.490 . S
O1267 C1251 1.225 . S
O1268 Pr1240 2.436 . S
O1268 Pr1241 2.695 . S
O1268 C1258 1.270 . S
O1269 Pr1241 2.512 . S
O1269 C1258 1.248 . S
O1270 Pr1240 2.438 . S
O1270 C1259 1.267 . S
O1271 Pr1241 2.437 . S
O1271 C1259 1.278 . S
H1272 C1244 0.929 . S
H1273 C1245 0.929 . S
H1274 C1247 0.931 . S
H1275 C1248 0.930 . S
H1276 C1253 0.929 . S
H1277 C1254 0.929 . S
H1278 C1256 0.931 . S
H1279 C1257 0.930 . S
H1280 C1286 0.930 . S
H1281 C1289 0.930 . S
H1282 C1290 0.930 . S
H1283 C1291 0.930 . S
H1284 C1294 0.930 . S
H1285 C1295 0.930 . S
C1286 H1280 0.930 . S
C1286 C1287 1.355 . S
C1286 C1288 1.415 . S
C1287 C1286 1.355 . S
C1287 C1289 1.419 . S
C1288 C1286 1.415 . S
C1288 C1293 1.425 . S
C1288 C1295 1.409 . S
C1289 H1281 0.930 . S
C1289 C1287 1.419 . S
C1289 C1290 1.362 . S
C1290 H1282 0.930 . S
C1290 C1289 1.362 . S
C1290 C1293 1.409 . S
C1291 H1283 0.930 . S
C1291 C1292 1.355 . S
C1291 C1293 1.415 . S
C1292 C1291 1.355 . S
C1292 C1294 1.419 . S
C1293 C1288 1.425 . S
C1293 C1290 1.409 . S
C1293 C1291 1.415 . S
C1294 H1284 0.930 . S
C1294 C1292 1.419 . S
C1294 C1295 1.362 . S
C1295 H1285 0.930 . S
C1295 C1288 1.409 . S
C1295 C1294 1.362 . S
H1296 C1302 0.930 . S
H1297 C1305 0.930 . S
H1298 C1306 0.930 . S
H1299 C1307 0.930 . S
H1300 C1310 0.930 . S
H1301 C1311 0.930 . S
C1302 H1296 0.930 . S
C1302 C1303 1.355 . S
C1302 C1304 1.415 . S
C1303 C1302 1.355 . S
C1303 C1305 1.419 . S
C1304 C1302 1.415 . S
C1304 C1309 1.425 . S
C1304 C1311 1.409 . S
C1305 H1297 0.930 . S
C1305 C1303 1.419 . S
C1305 C1306 1.362 . S
C1306 H1298 0.930 . S
C1306 C1305 1.362 . S
C1306 C1309 1.409 . S
C1307 H1299 0.930 . S
C1307 C1308 1.355 . S
C1307 C1309 1.415 . S
C1308 C1307 1.355 . S
C1308 C1310 1.419 . S
C1309 C1304 1.425 . S
C1309 C1306 1.409 . S
C1309 C1307 1.415 . S
C1310 H1300 0.930 . S
C1310 C1308 1.419 . S
C1310 C1311 1.362 . S
C1311 H1301 0.930 . S
C1311 C1304 1.409 . S
C1311 C1310 1.362 . S
H1312 C1318 0.930 . S
H1313 C1321 0.930 . S
H1314 C1322 0.930 . S
H1315 C1323 0.930 . S
H1316 C1326 0.930 . S
H1317 C1327 0.930 . S
C1318 H1312 0.930 . S
C1318 C1319 1.355 . S
C1318 C1320 1.415 . S
C1319 C1318 1.355 . S
C1319 C1321 1.419 . S
C1320 C1318 1.415 . S
C1320 C1325 1.425 . S
C1320 C1327 1.409 . S
C1321 H1313 0.930 . S
C1321 C1319 1.419 . S
C1321 C1322 1.362 . S
C1322 H1314 0.930 . S
C1322 C1321 1.362 . S
C1322 C1325 1.409 . S
C1323 H1315 0.930 . S
C1323 C1324 1.355 . S
C1323 C1325 1.415 . S
C1324 C1323 1.355 . S
C1324 C1326 1.419 . S
C1325 C1320 1.425 . S
C1325 C1322 1.409 . S
C1325 C1323 1.415 . S
C1326 H1316 0.930 . S
C1326 C1324 1.419 . S
C1326 C1327 1.362 . S
C1327 H1317 0.930 . S
C1327 C1320 1.409 . S
C1327 C1326 1.362 . S
H1328 C1334 0.930 . S
H1329 C1337 0.930 . S
H1330 C1338 0.930 . S
H1331 C1339 0.930 . S
H1332 C1342 0.927 1_545 S
H1333 C1343 0.930 . S
C1334 H1328 0.930 . S
C1334 C1335 1.355 . S
C1334 C1336 1.415 . S
C1335 C1334 1.355 . S
C1335 C1337 1.419 . S
C1336 C1334 1.415 . S
C1336 C1341 1.425 . S
C1336 C1343 1.409 . S
C1337 H1329 0.930 . S
C1337 C1335 1.419 . S
C1337 C1338 1.362 . S
C1338 H1330 0.930 . S
C1338 C1337 1.362 . S
C1338 C1341 1.409 . S
C1339 H1331 0.930 . S
C1339 C1340 1.355 . S
C1339 C1341 1.415 . S
C1340 C1339 1.355 . S
C1340 C1342 1.421 . S
C1341 C1336 1.425 . S
C1341 C1338 1.409 . S
C1341 C1339 1.415 . S
C1342 H1332 0.927 1_565 S
C1342 C1340 1.421 . S
C1342 C1343 1.364 . S
C1343 H1333 0.930 . S
C1343 C1336 1.409 . S
C1343 C1342 1.364 . S
H1344 C1350 0.930 . S
H1345 C1353 0.930 . S
H1346 C1354 0.930 . S
H1347 C1355 0.930 . S
H1348 C1358 0.930 . S
H1349 C1359 0.930 . S
C1350 H1344 0.930 . S
C1350 C1351 1.355 . S
C1350 C1352 1.415 . S
C1351 C1350 1.355 . S
C1351 C1353 1.419 . S
C1352 C1350 1.415 . S
C1352 C1357 1.425 . S
C1352 C1359 1.409 . S
C1353 H1345 0.930 . S
C1353 C1351 1.419 . S
C1353 C1354 1.362 . S
C1354 H1346 0.930 . S
C1354 C1353 1.362 . S
C1354 C1357 1.409 . S
C1355 H1347 0.930 . S
C1355 C1356 1.355 . S
C1355 C1357 1.415 . S
C1356 C1355 1.355 . S
C1356 C1358 1.419 . S
C1357 C1352 1.425 . S
C1357 C1354 1.409 . S
C1357 C1355 1.415 . S
C1358 H1348 0.930 . S
C1358 C1356 1.419 . S
C1358 C1359 1.362 . S
C1359 H1349 0.930 . S
C1359 C1352 1.409 . S
C1359 C1358 1.362 . S
H1360 C1366 0.930 1_565 S
H1361 C1369 0.930 . S
H1362 C1370 0.930 . S
H1363 C1371 0.930 . S
H1364 C1374 0.930 . S
H1365 C1375 0.930 . S
C1366 H1360 0.930 1_545 S
C1366 C1367 1.355 . S
C1366 C1368 1.415 . S
C1367 C1366 1.355 . S
C1367 C1369 1.419 . S
C1368 C1366 1.415 . S
C1368 C1373 1.425 . S
C1368 C1375 1.409 . S
C1369 H1361 0.930 . S
C1369 C1367 1.419 . S
C1369 C1370 1.362 . S
C1370 H1362 0.930 . S
C1370 C1369 1.362 . S
C1370 C1373 1.409 . S
C1371 H1363 0.930 . S
C1371 C1372 1.355 . S
C1371 C1373 1.415 . S
C1372 C1371 1.355 . S
C1372 C1374 1.419 . S
C1373 C1368 1.425 . S
C1373 C1370 1.409 . S
C1373 C1371 1.415 . S
C1374 H1364 0.930 . S
C1374 C1372 1.419 . S
C1374 C1375 1.362 . S
C1375 H1365 0.930 . S
C1375 C1368 1.409 . S
C1375 C1374 1.362 . S
H1376 C1382 0.930 . S
H1377 C1385 0.930 . S
H1378 C1386 0.930 . S
H1379 C1387 0.930 . S
H1380 C1390 0.930 . S
H1381 C1391 0.930 . S
C1382 H1376 0.930 . S
C1382 C1383 1.355 . S
C1382 C1384 1.415 . S
C1383 C1382 1.355 . S
C1383 C1385 1.419 . S
C1384 C1382 1.415 . S
C1384 C1389 1.425 . S
C1384 C1391 1.409 . S
C1385 H1377 0.930 . S
C1385 C1383 1.419 . S
C1385 C1386 1.362 . S
C1386 H1378 0.930 . S
C1386 C1385 1.362 . S
C1386 C1389 1.409 . S
C1387 H1379 0.930 . S
C1387 C1388 1.355 . S
C1387 C1389 1.415 . S
C1388 C1387 1.355 . S
C1388 C1390 1.419 . S
C1389 C1384 1.425 . S
C1389 C1386 1.409 . S
C1389 C1387 1.415 . S
C1390 H1380 0.930 . S
C1390 C1388 1.419 . S
C1390 C1391 1.362 . S
C1391 H1381 0.930 . S
C1391 C1384 1.409 . S
C1391 C1390 1.362 . S
H1392 C1398 0.930 . S
H1393 C1401 0.930 . S
H1394 C1402 0.930 . S
H1395 C1403 0.930 . S
H1396 C1406 0.930 1_545 S
H1397 C1407 0.930 . S
C1398 H1392 0.930 . S
C1398 C1399 1.355 . S
C1398 C1400 1.415 . S
C1399 C1398 1.355 . S
C1399 C1401 1.419 . S
C1400 C1398 1.415 . S
C1400 C1405 1.425 . S
C1400 C1407 1.409 . S
C1401 H1393 0.930 . S
C1401 C1399 1.419 . S
C1401 C1402 1.362 . S
C1402 H1394 0.930 . S
C1402 C1401 1.362 . S
C1402 C1405 1.409 . S
C1403 H1395 0.930 . S
C1403 C1404 1.355 . S
C1403 C1405 1.415 . S
C1404 C1403 1.355 . S
C1404 C1406 1.419 . S
C1405 C1400 1.425 . S
C1405 C1402 1.409 . S
C1405 C1403 1.415 . S
C1406 H1396 0.930 1_565 S
C1406 C1404 1.419 . S
C1406 C1407 1.362 . S
C1407 H1397 0.930 . S
C1407 C1400 1.409 . S
C1407 C1406 1.362 . S
H1408 C1414 0.930 . S
H1409 C1417 0.930 . S
H1410 C1418 0.930 . S
H1411 C1419 0.930 . S
H1412 C1422 0.930 . S
H1413 C1423 0.930 . S
C1414 H1408 0.930 . S
C1414 C1415 1.355 . S
C1414 C1416 1.415 . S
C1415 C1414 1.355 . S
C1415 C1417 1.419 . S
C1416 C1414 1.415 . S
C1416 C1421 1.425 . S
C1416 C1423 1.409 . S
C1417 H1409 0.930 . S
C1417 C1415 1.419 . S
C1417 C1418 1.362 . S
C1418 H1410 0.930 . S
C1418 C1417 1.362 . S
C1418 C1421 1.409 . S
C1419 H1411 0.930 . S
C1419 C1420 1.355 . S
C1419 C1421 1.415 . S
C1420 C1419 1.355 . S
C1420 C1422 1.419 . S
C1421 C1416 1.425 . S
C1421 C1418 1.409 . S
C1421 C1419 1.415 . S
C1422 H1412 0.930 . S
C1422 C1420 1.419 . S
C1422 C1423 1.362 . S
C1423 H1413 0.930 . S
C1423 C1416 1.409 . S
C1423 C1422 1.362 . S
H1424 C1430 0.930 . S
H1425 C1433 0.930 . S
H1426 C1434 0.930 . S
H1427 C1435 0.930 . S
H1428 C1438 0.930 . S
H1429 C1439 0.930 . S
C1430 H1424 0.930 . S
C1430 C1431 1.355 . S
C1430 C1432 1.415 . S
C1431 C1430 1.355 . S
C1431 C1433 1.419 . S
C1432 C1430 1.415 . S
C1432 C1437 1.425 . S
C1432 C1439 1.409 . S
C1433 H1425 0.930 . S
C1433 C1431 1.419 . S
C1433 C1434 1.362 . S
C1434 H1426 0.930 . S
C1434 C1433 1.362 . S
C1434 C1437 1.409 . S
C1435 H1427 0.930 . S
C1435 C1436 1.355 . S
C1435 C1437 1.415 . S
C1436 C1435 1.355 . S
C1436 C1438 1.419 . S
C1437 C1432 1.425 . S
C1437 C1434 1.409 . S
C1437 C1435 1.415 . S
C1438 H1428 0.930 . S
C1438 C1436 1.419 . S
C1438 C1439 1.362 . S
C1439 H1429 0.930 . S
C1439 C1432 1.409 . S
C1439 C1438 1.362 . S
H1440 C1446 0.930 . S
H1441 C1449 0.930 . S
H1442 C1450 0.930 . S
H1443 C1451 0.930 . S
H1444 C1454 0.930 . S
H1445 C1455 0.930 . S
C1446 H1440 0.930 . S
C1446 C1447 1.355 . S
C1446 C1448 1.415 . S
C1447 C1446 1.355 . S
C1447 C1449 1.419 . S
C1448 C1446 1.415 . S
C1448 C1453 1.425 . S
C1448 C1455 1.409 . S
C1449 H1441 0.930 . S
C1449 C1447 1.419 . S
C1449 C1450 1.362 . S
C1450 H1442 0.930 . S
C1450 C1449 1.362 . S
C1450 C1453 1.409 . S
C1451 H1443 0.930 . S
C1451 C1452 1.355 . S
C1451 C1453 1.415 . S
C1452 C1451 1.355 . S
C1452 C1454 1.419 . S
C1453 C1448 1.425 . S
C1453 C1450 1.409 . S
C1453 C1451 1.415 . S
C1454 H1444 0.930 . S
C1454 C1452 1.419 . S
C1454 C1455 1.362 . S
C1455 H1445 0.930 . S
C1455 C1448 1.409 . S
C1455 C1454 1.362 . S
H1456 C1462 0.930 . S
H1457 C1465 0.930 1_565 S
H1458 C1466 0.930 . S
H1459 C1467 0.930 . S
H1460 C1470 0.930 . S
H1461 C1471 0.930 . S
C1462 H1456 0.930 . S
C1462 C1463 1.355 . S
C1462 C1464 1.415 . S
C1463 C1462 1.355 . S
C1463 C1465 1.419 . S
C1464 C1462 1.415 . S
C1464 C1469 1.425 . S
C1464 C1471 1.409 . S
C1465 H1457 0.930 1_545 S
C1465 C1463 1.419 . S
C1465 C1466 1.362 . S
C1466 H1458 0.930 . S
C1466 C1465 1.362 . S
C1466 C1469 1.409 . S
C1467 H1459 0.930 . S
C1467 C1468 1.355 . S
C1467 C1469 1.415 . S
C1468 C1467 1.355 . S
C1468 C1470 1.419 . S
C1469 C1464 1.425 . S
C1469 C1466 1.409 . S
C1469 C1467 1.415 . S
C1470 H1460 0.930 . S
C1470 C1468 1.419 . S
C1470 C1471 1.362 . S
C1471 H1461 0.930 . S
C1471 C1464 1.409 . S
C1471 C1470 1.362 . S
H1472 C1478 0.930 . S
H1473 C1481 0.930 . S
H1474 C1482 0.930 . S
H1475 C1483 0.930 . S
H1476 C1486 0.930 . S
H1477 C1487 0.930 . S
C1478 H1472 0.930 . S
C1478 C1479 1.355 . S
C1478 C1480 1.415 . S
C1479 C1478 1.355 . S
C1479 C1481 1.419 . S
C1480 C1478 1.415 . S
C1480 C1485 1.425 . S
C1480 C1487 1.409 . S
C1481 H1473 0.930 . S
C1481 C1479 1.419 . S
C1481 C1482 1.362 . S
C1482 H1474 0.930 . S
C1482 C1481 1.362 . S
C1482 C1485 1.409 . S
C1483 H1475 0.930 . S
C1483 C1484 1.355 . S
C1483 C1485 1.415 . S
C1484 C1483 1.355 . S
C1484 C1486 1.419 . S
C1485 C1480 1.425 . S
C1485 C1482 1.409 . S
C1485 C1483 1.415 . S
C1486 H1476 0.930 . S
C1486 C1484 1.419 . S
C1486 C1487 1.362 . S
C1487 H1477 0.930 . S
C1487 C1480 1.409 . S
C1487 C1486 1.362 . S
H1488 C1494 0.930 . S
H1489 C1497 0.930 . S
H1490 C1498 0.930 . S
H1491 C1499 0.930 . S
H1492 C1502 0.930 . S
H1493 C1503 0.930 . S
C1494 H1488 0.930 . S
C1494 C1495 1.355 . S
C1494 C1496 1.415 . S
C1495 C1494 1.355 . S
C1495 C1497 1.419 . S
C1496 C1494 1.415 . S
C1496 C1501 1.425 . S
C1496 C1503 1.409 . S
C1497 H1489 0.930 . S
C1497 C1495 1.419 . S
C1497 C1498 1.362 . S
C1498 H1490 0.930 . S
C1498 C1497 1.362 . S
C1498 C1501 1.409 . S
C1499 H1491 0.930 . S
C1499 C1500 1.355 . S
C1499 C1501 1.415 . S
C1500 C1499 1.355 . S
C1500 C1502 1.419 . S
C1501 C1496 1.425 . S
C1501 C1498 1.409 . S
C1501 C1499 1.415 . S
C1502 H1492 0.930 . S
C1502 C1500 1.419 . S
C1502 C1503 1.362 . S
C1503 H1493 0.930 . S
C1503 C1496 1.409 . S
C1503 C1502 1.362 . S
H1504 C1510 0.930 . S
H1505 C1513 0.930 . S
H1506 C1514 0.930 . S
H1507 C1515 0.930 . S
H1508 C1518 0.930 . S
H1509 C1519 0.930 . S
C1510 H1504 0.930 . S
C1510 C1511 1.355 . S
C1510 C1512 1.415 . S
C1511 C1510 1.355 . S
C1511 C1513 1.419 . S
C1512 C1510 1.415 . S
C1512 C1517 1.425 . S
C1512 C1519 1.409 . S
C1513 H1505 0.930 . S
C1513 C1511 1.419 . S
C1513 C1514 1.362 . S
C1514 H1506 0.930 . S
C1514 C1513 1.362 . S
C1514 C1517 1.409 . S
C1515 H1507 0.930 . S
C1515 C1516 1.355 . S
C1515 C1517 1.415 . S
C1516 C1515 1.355 . S
C1516 C1518 1.419 . S
C1517 C1512 1.425 . S
C1517 C1514 1.409 . S
C1517 C1515 1.415 . S
C1518 H1508 0.930 . S
C1518 C1516 1.419 . S
C1518 C1519 1.362 . S
C1519 H1509 0.930 . S
C1519 C1512 1.409 . S
C1519 C1518 1.362 . S
H1520 C1526 0.930 . S
H1521 C1529 0.930 . S
H1522 C1530 0.930 . S
H1523 C1531 0.930 . S
H1524 C1534 0.891 1_565 S
H1525 C1535 0.930 . S
C1526 H1520 0.930 . S
C1526 C1527 1.355 . S
C1526 C1528 1.415 . S
C1527 C1526 1.355 . S
C1527 C1529 1.419 . S
C1528 C1526 1.415 . S
C1528 C1533 1.425 . S
C1528 C1535 1.409 . S
C1529 H1521 0.930 . S
C1529 C1527 1.419 . S
C1529 C1530 1.362 . S
C1530 H1522 0.930 . S
C1530 C1529 1.362 . S
C1530 C1533 1.409 . S
C1531 H1523 0.930 . S
C1531 C1532 1.355 . S
C1531 C1533 1.415 . S
C1532 C1531 1.355 . S
C1532 C1534 1.436 . S
C1533 C1528 1.425 . S
C1533 C1530 1.409 . S
C1533 C1531 1.415 . S
C1534 H1524 0.891 1_545 S
C1534 C1532 1.436 . S
C1534 C1535 1.385 . S
C1535 H1525 0.930 . S
C1535 C1528 1.409 . S
C1535 C1534 1.385 . S
H1536 C1542 0.930 . S
H1537 C1545 0.930 . S
H1538 C1546 0.930 . S
H1539 C1547 0.930 . S
H1540 C1550 0.930 . S
H1541 C1551 0.930 . S
C1542 H1536 0.930 . S
C1542 C1543 1.355 . S
C1542 C1544 1.415 . S
C1543 C1542 1.355 . S
C1543 C1545 1.419 . S
C1544 C1542 1.415 . S
C1544 C1549 1.425 . S
C1544 C1551 1.409 . S
C1545 H1537 0.930 . S
C1545 C1543 1.419 . S
C1545 C1546 1.362 . S
C1546 H1538 0.930 . S
C1546 C1545 1.362 . S
C1546 C1549 1.409 . S
C1547 H1539 0.930 . S
C1547 C1548 1.355 . S
C1547 C1549 1.415 . S
C1548 C1547 1.355 . S
C1548 C1550 1.419 . S
C1549 C1544 1.425 . S
C1549 C1546 1.409 . S
C1549 C1547 1.415 . S
C1550 H1540 0.930 . S
C1550 C1548 1.419 . S
C1550 C1551 1.362 . S
C1551 H1541 0.930 . S
C1551 C1544 1.409 . S
C1551 C1550 1.362 . S
H1552 C1558 0.930 . S
H1553 C1561 0.930 . S
H1554 C1562 0.930 . S
H1555 C1563 0.930 . S
H1556 C1566 0.930 . S
H1557 C1567 0.930 . S
C1558 H1552 0.930 . S
C1558 C1559 1.355 . S
C1558 C1560 1.415 . S
C1559 C1558 1.355 . S
C1559 C1561 1.419 . S
C1560 C1558 1.415 . S
C1560 C1565 1.425 . S
C1560 C1567 1.409 . S
C1561 H1553 0.930 . S
C1561 C1559 1.419 . S
C1561 C1562 1.362 . S
C1562 H1554 0.930 . S
C1562 C1561 1.362 . S
C1562 C1565 1.409 . S
C1563 H1555 0.930 . S
C1563 C1564 1.355 . S
C1563 C1565 1.415 . S
C1564 C1563 1.355 . S
C1564 C1566 1.419 . S
C1565 C1560 1.425 . S
C1565 C1562 1.409 . S
C1565 C1563 1.415 . S
C1566 H1556 0.930 . S
C1566 C1564 1.419 . S
C1566 C1567 1.362 . S
C1567 H1557 0.930 . S
C1567 C1560 1.409 . S
C1567 C1566 1.362 . S
H1568 C1574 0.930 . S
H1569 C1577 0.930 . S
H1570 C1578 0.930 . S
H1571 C1579 0.930 . S
H1572 C1582 0.930 . S
H1573 C1583 0.930 . S
C1574 H1568 0.930 . S
C1574 C1575 1.355 . S
C1574 C1576 1.415 . S
C1575 C1574 1.355 . S
C1575 C1577 1.419 . S
C1576 C1574 1.415 . S
C1576 C1581 1.425 . S
C1576 C1583 1.409 . S
C1577 H1569 0.930 . S
C1577 C1575 1.419 . S
C1577 C1578 1.362 . S
C1578 H1570 0.930 . S
C1578 C1577 1.362 . S
C1578 C1581 1.409 . S
C1579 H1571 0.930 . S
C1579 C1580 1.355 . S
C1579 C1581 1.415 . S
C1580 C1579 1.355 . S
C1580 C1582 1.419 . S
C1581 C1576 1.425 . S
C1581 C1578 1.409 . S
C1581 C1579 1.415 . S
C1582 H1572 0.930 . S
C1582 C1580 1.419 . S
C1582 C1583 1.362 . S
C1583 H1573 0.930 . S
C1583 C1576 1.409 . S
C1583 C1582 1.362 . S
H1584 C1590 0.930 . S
H1585 C1593 0.930 . S
H1586 C1594 0.930 . S
H1587 C1595 0.930 . S
H1588 C1598 0.930 . S
H1589 C1599 0.930 . S
C1590 H1584 0.930 . S
C1590 C1591 1.355 . S
C1590 C1592 1.415 . S
C1591 C1590 1.355 . S
C1591 C1593 1.419 . S
C1592 C1590 1.415 . S
C1592 C1597 1.425 . S
C1592 C1599 1.409 . S
C1593 H1585 0.930 . S
C1593 C1591 1.419 . S
C1593 C1594 1.362 . S
C1594 H1586 0.930 . S
C1594 C1593 1.362 . S
C1594 C1597 1.409 . S
C1595 H1587 0.930 . S
C1595 C1596 1.355 . S
C1595 C1597 1.415 . S
C1596 C1595 1.355 . S
C1596 C1598 1.419 . S
C1597 C1592 1.425 . S
C1597 C1594 1.409 . S
C1597 C1595 1.415 . S
C1598 H1588 0.930 . S
C1598 C1596 1.419 . S
C1598 C1599 1.362 . S
C1599 H1589 0.930 . S
C1599 C1592 1.409 . S
C1599 C1598 1.362 . S
H1600 C1606 0.930 . S
H1601 C1609 0.930 . S
H1602 C1610 0.930 . S
H1603 C1611 0.930 . S
H1604 C1614 0.930 . S
H1605 C1615 0.930 . S
C1606 H1600 0.930 . S
C1606 C1607 1.355 . S
C1606 C1608 1.415 . S
C1607 C1606 1.355 . S
C1607 C1609 1.419 . S
C1608 C1606 1.415 . S
C1608 C1613 1.425 . S
C1608 C1615 1.409 . S
C1609 H1601 0.930 . S
C1609 C1607 1.419 . S
C1609 C1610 1.362 . S
C1610 H1602 0.930 . S
C1610 C1609 1.362 . S
C1610 C1613 1.409 . S
C1611 H1603 0.930 . S
C1611 C1612 1.355 . S
C1611 C1613 1.415 . S
C1612 C1611 1.355 . S
C1612 C1614 1.419 . S
C1613 C1608 1.425 . S
C1613 C1610 1.409 . S
C1613 C1611 1.415 . S
C1614 H1604 0.930 . S
C1614 C1612 1.419 . S
C1614 C1615 1.362 . S
C1615 H1605 0.930 . S
C1615 C1608 1.409 . S
C1615 C1614 1.362 . S
H1616 C1622 0.930 . S
H1617 C1625 0.930 . S
H1618 C1626 0.930 . S
H1619 C1627 0.930 . S
H1620 C1630 0.930 . S
H1621 C1631 0.930 . S
C1622 H1616 0.930 . S
C1622 C1623 1.355 . S
C1622 C1624 1.415 . S
C1623 C1622 1.355 . S
C1623 C1625 1.419 . S
C1624 C1622 1.415 . S
C1624 C1629 1.425 . S
C1624 C1631 1.409 . S
C1625 H1617 0.930 . S
C1625 C1623 1.419 . S
C1625 C1626 1.362 . S
C1626 H1618 0.930 . S
C1626 C1625 1.362 . S
C1626 C1629 1.409 . S
C1627 H1619 0.930 . S
C1627 C1628 1.355 . S
C1627 C1629 1.415 . S
C1628 C1627 1.355 . S
C1628 C1630 1.419 . S
C1629 C1624 1.425 . S
C1629 C1626 1.409 . S
C1629 C1627 1.415 . S
C1630 H1620 0.930 . S
C1630 C1628 1.419 . S
C1630 C1631 1.362 . S
C1631 H1621 0.930 . S
C1631 C1624 1.409 . S
C1631 C1630 1.362 . S
H1632 C1638 0.930 . S
H1633 C1641 0.930 . S
H1634 C1642 0.930 . S
H1635 C1643 0.930 . S
H1636 C1646 0.930 . S
H1637 C1647 0.930 . S
C1638 H1632 0.930 . S
C1638 C1639 1.355 . S
C1638 C1640 1.415 . S
C1639 C1638 1.355 . S
C1639 C1641 1.419 . S
C1640 C1638 1.415 . S
C1640 C1645 1.425 . S
C1640 C1647 1.409 . S
C1641 H1633 0.930 . S
C1641 C1639 1.419 . S
C1641 C1642 1.362 . S
C1642 H1634 0.930 . S
C1642 C1641 1.362 . S
C1642 C1645 1.409 . S
C1643 H1635 0.930 . S
C1643 C1644 1.355 . S
C1643 C1645 1.415 . S
C1644 C1643 1.355 . S
C1644 C1646 1.419 . S
C1645 C1640 1.425 . S
C1645 C1642 1.409 . S
C1645 C1643 1.415 . S
C1646 H1636 0.930 . S
C1646 C1644 1.419 . S
C1646 C1647 1.362 . S
C1647 H1637 0.930 . S
C1647 C1640 1.409 . S
C1647 C1646 1.362 . S
H1648 C1654 0.930 . S
H1649 C1657 0.930 . S
H1650 C1658 0.930 . S
H1651 C1659 0.930 . S
H1652 C1662 0.930 . S
H1653 C1663 0.930 . S
C1654 H1648 0.930 . S
C1654 C1655 1.355 . S
C1654 C1656 1.415 . S
C1655 C1654 1.355 . S
C1655 C1657 1.419 . S
C1656 C1654 1.415 . S
C1656 C1661 1.425 . S
C1656 C1663 1.409 . S
C1657 H1649 0.930 . S
C1657 C1655 1.419 . S
C1657 C1658 1.362 . S
C1658 H1650 0.930 . S
C1658 C1657 1.362 . S
C1658 C1661 1.409 . S
C1659 H1651 0.930 . S
C1659 C1660 1.355 . S
C1659 C1661 1.415 . S
C1660 C1659 1.355 . S
C1660 C1662 1.419 . S
C1661 C1656 1.425 . S
C1661 C1658 1.409 . S
C1661 C1659 1.415 . S
C1662 H1652 0.930 . S
C1662 C1660 1.419 . S
C1662 C1663 1.362 . S
C1663 H1653 0.930 . S
C1663 C1656 1.409 . S
C1663 C1662 1.362 . S
H1664 C1670 0.930 . S
H1665 C1673 0.930 . S
H1666 C1674 0.930 . S
H1667 C1675 0.930 . S
H1668 C1678 0.930 . S
H1669 C1679 0.930 . S
C1670 H1664 0.930 . S
C1670 C1671 1.355 . S
C1670 C1672 1.415 . S
C1671 C1670 1.355 . S
C1671 C1673 1.419 . S
C1672 C1670 1.415 . S
C1672 C1677 1.425 . S
C1672 C1679 1.409 . S
C1673 H1665 0.930 . S
C1673 C1671 1.419 . S
C1673 C1674 1.362 . S
C1674 H1666 0.930 . S
C1674 C1673 1.362 . S
C1674 C1677 1.409 . S
C1675 H1667 0.930 . S
C1675 C1676 1.355 . S
C1675 C1677 1.415 . S
C1676 C1675 1.355 . S
C1676 C1678 1.419 . S
C1677 C1672 1.425 . S
C1677 C1674 1.409 . S
C1677 C1675 1.415 . S
C1678 H1668 0.930 . S
C1678 C1676 1.419 . S
C1678 C1679 1.362 . S
C1679 H1669 0.930 . S
C1679 C1672 1.409 . S
C1679 C1678 1.362 . S
H1680 C1686 0.930 . S
H1681 C1689 0.930 . S
H1682 C1690 0.930 . S
H1683 C1691 0.930 . S
H1684 C1694 0.930 . S
H1685 C1695 0.930 . S
C1686 H1680 0.930 . S
C1686 C1687 1.355 . S
C1686 C1688 1.415 . S
C1687 C1686 1.355 . S
C1687 C1689 1.419 . S
C1688 C1686 1.415 . S
C1688 C1693 1.425 . S
C1688 C1695 1.409 . S
C1689 H1681 0.930 . S
C1689 C1687 1.419 . S
C1689 C1690 1.362 . S
C1690 H1682 0.930 . S
C1690 C1689 1.362 . S
C1690 C1693 1.409 . S
C1691 H1683 0.930 . S
C1691 C1692 1.355 . S
C1691 C1693 1.415 . S
C1692 C1691 1.355 . S
C1692 C1694 1.419 . S
C1693 C1688 1.425 . S
C1693 C1690 1.409 . S
C1693 C1691 1.415 . S
C1694 H1684 0.930 . S
C1694 C1692 1.419 . S
C1694 C1695 1.362 . S
C1695 H1685 0.930 . S
C1695 C1688 1.409 . S
C1695 C1694 1.362 . S
H1696 C1702 0.930 . S
H1697 C1705 0.930 . S
H1698 C1706 0.930 . S
H1699 C1707 0.930 . S
H1700 C1710 0.930 . S
H1701 C1711 0.930 . S
C1702 H1696 0.930 . S
C1702 C1703 1.355 . S
C1702 C1704 1.415 . S
C1703 C1702 1.355 . S
C1703 C1705 1.419 . S
C1704 C1702 1.415 . S
C1704 C1709 1.425 . S
C1704 C1711 1.409 . S
C1705 H1697 0.930 . S
C1705 C1703 1.419 . S
C1705 C1706 1.362 . S
C1706 H1698 0.930 . S
C1706 C1705 1.362 . S
C1706 C1709 1.409 . S
C1707 H1699 0.930 . S
C1707 C1708 1.355 . S
C1707 C1709 1.415 . S
C1708 C1707 1.355 . S
C1708 C1710 1.419 . S
C1709 C1704 1.425 . S
C1709 C1706 1.409 . S
C1709 C1707 1.415 . S
C1710 H1700 0.930 . S
C1710 C1708 1.419 . S
C1710 C1711 1.362 . S
C1711 H1701 0.930 . S
C1711 C1704 1.409 . S
C1711 C1710 1.362 . S
H1712 C1718 0.930 . S
H1713 C1721 0.930 . S
H1714 C1722 0.930 . S
H1715 C1723 0.930 . S
H1716 C1726 0.930 . S
H1717 C1727 0.930 . S
C1718 H1712 0.930 . S
C1718 C1719 1.355 . S
C1718 C1720 1.415 . S
C1719 C1718 1.355 . S
C1719 C1721 1.419 . S
C1720 C1718 1.415 . S
C1720 C1725 1.425 . S
C1720 C1727 1.409 . S
C1721 H1713 0.930 . S
C1721 C1719 1.419 . S
C1721 C1722 1.362 . S
C1722 H1714 0.930 . S
C1722 C1721 1.362 . S
C1722 C1725 1.409 . S
C1723 H1715 0.930 . S
C1723 C1724 1.355 . S
C1723 C1725 1.415 . S
C1724 C1723 1.355 . S
C1724 C1726 1.419 . S
C1725 C1720 1.425 . S
C1725 C1722 1.409 . S
C1725 C1723 1.415 . S
C1726 H1716 0.930 . S
C1726 C1724 1.419 . S
C1726 C1727 1.362 . S
C1727 H1717 0.930 . S
C1727 C1720 1.409 . S
C1727 C1726 1.362 . S
H1728 C1734 0.930 . S
H1729 C1737 0.930 . S
H1730 C1738 0.930 . S
H1731 C1739 0.930 . S
H1732 C1742 0.930 . S
H1733 C1743 0.930 . S
C1734 H1728 0.930 . S
C1734 C1735 1.355 . S
C1734 C1736 1.415 . S
C1735 C1734 1.355 . S
C1735 C1737 1.419 . S
C1736 C1734 1.415 . S
C1736 C1741 1.425 . S
C1736 C1743 1.409 . S
C1737 H1729 0.930 . S
C1737 C1735 1.419 . S
C1737 C1738 1.362 . S
C1738 H1730 0.930 . S
C1738 C1737 1.362 . S
C1738 C1741 1.409 . S
C1739 H1731 0.930 . S
C1739 C1740 1.355 . S
C1739 C1741 1.415 . S
C1740 C1739 1.355 . S
C1740 C1742 1.419 . S
C1741 C1736 1.425 . S
C1741 C1738 1.409 . S
C1741 C1739 1.415 . S
C1742 H1732 0.930 . S
C1742 C1740 1.419 . S
C1742 C1743 1.362 . S
C1743 H1733 0.930 . S
C1743 C1736 1.409 . S
C1743 C1742 1.362 . S
H1744 C1750 0.930 . S
H1745 C1753 0.930 . S
H1746 C1754 0.930 . S
H1747 C1755 0.930 . S
H1748 C1758 0.930 . S
H1749 C1759 0.930 . S
C1750 H1744 0.930 . S
C1750 C1751 1.355 . S
C1750 C1752 1.415 . S
C1751 C1750 1.355 . S
C1751 C1753 1.419 . S
C1752 C1750 1.415 . S
C1752 C1757 1.425 . S
C1752 C1759 1.409 . S
C1753 H1745 0.930 . S
C1753 C1751 1.419 . S
C1753 C1754 1.362 . S
C1754 H1746 0.930 . S
C1754 C1753 1.362 . S
C1754 C1757 1.409 . S
C1755 H1747 0.930 . S
C1755 C1756 1.355 . S
C1755 C1757 1.415 . S
C1756 C1755 1.355 . S
C1756 C1758 1.419 . S
C1757 C1752 1.425 . S
C1757 C1754 1.409 . S
C1757 C1755 1.415 . S
C1758 H1748 0.930 . S
C1758 C1756 1.419 . S
C1758 C1759 1.362 . S
C1759 H1749 0.930 . S
C1759 C1752 1.409 . S
C1759 C1758 1.362 . S
H1760 C1766 0.930 . S
H1761 C1769 0.930 . S
H1762 C1770 0.930 . S
H1763 C1771 0.930 . S
H1764 C1774 0.930 . S
H1765 C1775 0.930 . S
C1766 H1760 0.930 . S
C1766 C1767 1.355 . S
C1766 C1768 1.415 . S
C1767 C1766 1.355 . S
C1767 C1769 1.419 . S
C1768 C1766 1.415 . S
C1768 C1773 1.425 . S
C1768 C1775 1.409 . S
C1769 H1761 0.930 . S
C1769 C1767 1.419 . S
C1769 C1770 1.362 . S
C1770 H1762 0.930 . S
C1770 C1769 1.362 . S
C1770 C1773 1.409 . S
C1771 H1763 0.930 . S
C1771 C1772 1.355 . S
C1771 C1773 1.415 . S
C1772 C1771 1.355 . S
C1772 C1774 1.419 . S
C1773 C1768 1.425 . S
C1773 C1770 1.409 . S
C1773 C1771 1.415 . S
C1774 H1764 0.930 . S
C1774 C1772 1.419 . S
C1774 C1775 1.362 . S
C1775 H1765 0.930 . S
C1775 C1768 1.409 . S
C1775 C1774 1.362 . S
H1776 C1782 0.930 . S
H1777 C1785 0.930 . S
H1778 C1786 0.930 . S
H1779 C1787 0.930 . S
H1780 C1790 0.930 . S
H1781 C1791 0.930 . S
C1782 H1776 0.930 . S
C1782 C1783 1.355 . S
C1782 C1784 1.415 . S
C1783 C1782 1.355 . S
C1783 C1785 1.419 . S
C1784 C1782 1.415 . S
C1784 C1789 1.425 . S
C1784 C1791 1.409 . S
C1785 H1777 0.930 . S
C1785 C1783 1.419 . S
C1785 C1786 1.362 . S
C1786 H1778 0.930 . S
C1786 C1785 1.362 . S
C1786 C1789 1.409 . S
C1787 H1779 0.930 . S
C1787 C1788 1.355 . S
C1787 C1789 1.415 . S
C1788 C1787 1.355 . S
C1788 C1790 1.419 . S
C1789 C1784 1.425 . S
C1789 C1786 1.409 . S
C1789 C1787 1.415 . S
C1790 H1780 0.930 . S
C1790 C1788 1.419 . S
C1790 C1791 1.362 . S
C1791 H1781 0.930 . S
C1791 C1784 1.409 . S
C1791 C1790 1.362 . S
H1792 C1798 0.930 . S
H1793 C1801 0.930 . S
H1794 C1802 0.930 . S
H1795 C1803 0.930 . S
H1796 C1806 0.930 . S
H1797 C1807 0.930 . S
C1798 H1792 0.930 . S
C1798 C1799 1.355 . S
C1798 C1800 1.415 . S
C1799 C1798 1.355 . S
C1799 C1801 1.419 . S
C1800 C1798 1.415 . S
C1800 C1805 1.425 . S
C1800 C1807 1.409 . S
C1801 H1793 0.930 . S
C1801 C1799 1.419 . S
C1801 C1802 1.362 . S
C1802 H1794 0.930 . S
C1802 C1801 1.362 . S
C1802 C1805 1.409 . S
C1803 H1795 0.930 . S
C1803 C1804 1.355 . S
C1803 C1805 1.415 . S
C1804 C1803 1.355 . S
C1804 C1806 1.419 . S
C1805 C1800 1.425 . S
C1805 C1802 1.409 . S
C1805 C1803 1.415 . S
C1806 H1796 0.930 . S
C1806 C1804 1.419 . S
C1806 C1807 1.362 . S
C1807 H1797 0.930 . S
C1807 C1800 1.409 . S
C1807 C1806 1.362 . S
H1808 C1814 0.930 . S
H1809 C1817 0.930 . S
H1810 C1818 0.930 . S
H1811 C1819 0.930 . S
H1812 C1822 0.930 . S
H1813 C1823 0.930 . S
C1814 H1808 0.930 . S
C1814 C1815 1.355 . S
C1814 C1816 1.415 . S
C1815 C1814 1.355 . S
C1815 C1817 1.419 . S
C1816 C1814 1.415 . S
C1816 C1821 1.425 . S
C1816 C1823 1.409 . S
C1817 H1809 0.930 . S
C1817 C1815 1.419 . S
C1817 C1818 1.362 . S
C1818 H1810 0.930 . S
C1818 C1817 1.362 . S
C1818 C1821 1.409 . S
C1819 H1811 0.930 . S
C1819 C1820 1.355 . S
C1819 C1821 1.415 . S
C1820 C1819 1.355 . S
C1820 C1822 1.419 . S
C1821 C1816 1.425 . S
C1821 C1818 1.409 . S
C1821 C1819 1.415 . S
C1822 H1812 0.930 . S
C1822 C1820 1.419 . S
C1822 C1823 1.362 . S
C1823 H1813 0.930 . S
C1823 C1816 1.409 . S
C1823 C1822 1.362 . S
H1824 C1830 0.930 . S
H1825 C1833 0.930 . S
H1826 C1834 0.930 . S
H1827 C1835 0.930 . S
H1828 C1838 0.930 . S
H1829 C1839 0.930 . S
C1830 H1824 0.930 . S
C1830 C1831 1.355 . S
C1830 C1832 1.415 . S
C1831 C1830 1.355 . S
C1831 C1833 1.419 . S
C1832 C1830 1.415 . S
C1832 C1837 1.425 . S
C1832 C1839 1.409 . S
C1833 H1825 0.930 . S
C1833 C1831 1.419 . S
C1833 C1834 1.362 . S
C1834 H1826 0.930 . S
C1834 C1833 1.362 . S
C1834 C1837 1.409 . S
C1835 H1827 0.930 . S
C1835 C1836 1.355 . S
C1835 C1837 1.415 . S
C1836 C1835 1.355 . S
C1836 C1838 1.419 . S
C1837 C1832 1.425 . S
C1837 C1834 1.409 . S
C1837 C1835 1.415 . S
C1838 H1828 0.930 . S
C1838 C1836 1.419 . S
C1838 C1839 1.362 . S
C1839 H1829 0.930 . S
C1839 C1832 1.409 . S
C1839 C1838 1.362 . S
H1840 C1846 0.930 . S
H1841 C1849 0.930 . S
H1842 C1850 0.930 . S
H1843 C1851 0.930 . S
H1844 C1854 0.930 . S
H1845 C1855 0.930 . S
C1846 H1840 0.930 . S
C1846 C1847 1.355 . S
C1846 C1848 1.415 . S
C1847 C1846 1.355 . S
C1847 C1849 1.419 . S
C1848 C1846 1.415 . S
C1848 C1853 1.425 . S
C1848 C1855 1.409 . S
C1849 H1841 0.930 . S
C1849 C1847 1.419 . S
C1849 C1850 1.362 . S
C1850 H1842 0.930 . S
C1850 C1849 1.362 . S
C1850 C1853 1.409 . S
C1851 H1843 0.930 . S
C1851 C1852 1.355 . S
C1851 C1853 1.415 . S
C1852 C1851 1.355 . S
C1852 C1854 1.419 . S
C1853 C1848 1.425 . S
C1853 C1850 1.409 . S
C1853 C1851 1.415 . S
C1854 H1844 0.930 . S
C1854 C1852 1.419 . S
C1854 C1855 1.362 . S
C1855 H1845 0.930 . S
C1855 C1848 1.409 . S
C1855 C1854 1.362 . S
H1856 C1862 0.930 . S
H1857 C1865 0.930 . S
H1858 C1866 0.930 . S
H1859 C1867 0.930 . S
H1860 C1870 0.930 . S
H1861 C1871 0.930 . S
C1862 H1856 0.930 . S
C1862 C1863 1.355 . S
C1862 C1864 1.415 . S
C1863 C1862 1.355 . S
C1863 C1865 1.419 . S
C1864 C1862 1.415 . S
C1864 C1869 1.425 . S
C1864 C1871 1.409 . S
C1865 H1857 0.930 . S
C1865 C1863 1.419 . S
C1865 C1866 1.362 . S
C1866 H1858 0.930 . S
C1866 C1865 1.362 . S
C1866 C1869 1.409 . S
C1867 H1859 0.930 . S
C1867 C1868 1.355 . S
C1867 C1869 1.415 . S
C1868 C1867 1.355 . S
C1868 C1870 1.419 . S
C1869 C1864 1.425 . S
C1869 C1866 1.409 . S
C1869 C1867 1.415 . S
C1870 H1860 0.930 . S
C1870 C1868 1.419 . S
C1870 C1871 1.362 . S
C1871 H1861 0.930 . S
C1871 C1864 1.409 . S
C1871 C1870 1.362 . S
H1872 C1878 0.930 . S
H1873 C1881 0.930 . S
H1874 C1882 0.930 . S
H1875 C1883 0.930 . S
H1876 C1886 0.930 . S
H1877 C1887 0.930 . S
C1878 H1872 0.930 . S
C1878 C1879 1.355 . S
C1878 C1880 1.415 . S
C1879 C1878 1.355 . S
C1879 C1881 1.419 . S
C1880 C1878 1.415 . S
C1880 C1885 1.425 . S
C1880 C1887 1.409 . S
C1881 H1873 0.930 . S
C1881 C1879 1.419 . S
C1881 C1882 1.362 . S
C1882 H1874 0.930 . S
C1882 C1881 1.362 . S
C1882 C1885 1.409 . S
C1883 H1875 0.930 . S
C1883 C1884 1.355 . S
C1883 C1885 1.415 . S
C1884 C1883 1.355 . S
C1884 C1886 1.419 . S
C1885 C1880 1.425 . S
C1885 C1882 1.409 . S
C1885 C1883 1.415 . S
C1886 H1876 0.930 . S
C1886 C1884 1.419 . S
C1886 C1887 1.362 . S
C1887 H1877 0.930 . S
C1887 C1880 1.409 . S
C1887 C1886 1.362 . S
H1888 C1894 0.930 . S
H1889 C1897 0.930 . S
H1890 C1898 0.930 . S
H1891 C1899 0.930 . S
H1892 C1902 0.930 . S
H1893 C1903 0.930 . S
C1894 H1888 0.930 . S
C1894 C1895 1.355 . S
C1894 C1896 1.415 . S
C1895 C1894 1.355 . S
C1895 C1897 1.419 . S
C1896 C1894 1.415 . S
C1896 C1901 1.425 . S
C1896 C1903 1.409 . S
C1897 H1889 0.930 . S
C1897 C1895 1.419 . S
C1897 C1898 1.362 . S
C1898 H1890 0.930 . S
C1898 C1897 1.362 . S
C1898 C1901 1.409 . S
C1899 H1891 0.930 . S
C1899 C1900 1.355 . S
C1899 C1901 1.415 . S
C1900 C1899 1.355 . S
C1900 C1902 1.419 . S
C1901 C1896 1.425 . S
C1901 C1898 1.409 . S
C1901 C1899 1.415 . S
C1902 H1892 0.930 . S
C1902 C1900 1.419 . S
C1902 C1903 1.362 . S
C1903 H1893 0.930 . S
C1903 C1896 1.409 . S
C1903 C1902 1.362 . S
H1904 C1910 0.930 . S
H1905 C1913 0.930 . S
H1906 C1914 0.930 . S
H1907 C1915 0.930 . S
H1908 C1918 0.930 . S
H1909 C1919 0.930 . S
C1910 H1904 0.930 . S
C1910 C1911 1.355 . S
C1910 C1912 1.415 . S
C1911 C1910 1.355 . S
C1911 C1913 1.419 . S
C1912 C1910 1.415 . S
C1912 C1917 1.425 . S
C1912 C1919 1.409 . S
C1913 H1905 0.930 . S
C1913 C1911 1.419 . S
C1913 C1914 1.362 . S
C1914 H1906 0.930 . S
C1914 C1913 1.362 . S
C1914 C1917 1.409 . S
C1915 H1907 0.930 . S
C1915 C1916 1.355 . S
C1915 C1917 1.415 . S
C1916 C1915 1.355 . S
C1916 C1918 1.419 . S
C1917 C1912 1.425 . S
C1917 C1914 1.409 . S
C1917 C1915 1.415 . S
C1918 H1908 0.930 . S
C1918 C1916 1.419 . S
C1918 C1919 1.362 . S
C1919 H1909 0.930 . S
C1919 C1912 1.409 . S
C1919 C1918 1.362 . S
H1920 C1926 0.930 . S
H1921 C1929 0.930 . S
H1922 C1930 0.930 . S
H1923 C1931 0.930 . S
H1924 C1934 0.930 . S
H1925 C1935 0.930 . S
C1926 H1920 0.930 . S
C1926 C1927 1.355 . S
C1926 C1928 1.415 . S
C1927 C1926 1.355 . S
C1927 C1929 1.419 . S
C1928 C1926 1.415 . S
C1928 C1933 1.425 . S
C1928 C1935 1.409 . S
C1929 H1921 0.930 . S
C1929 C1927 1.419 . S
C1929 C1930 1.362 . S
C1930 H1922 0.930 . S
C1930 C1929 1.362 . S
C1930 C1933 1.409 . S
C1931 H1923 0.930 . S
C1931 C1932 1.355 . S
C1931 C1933 1.415 . S
C1932 C1931 1.355 . S
C1932 C1934 1.419 . S
C1933 C1928 1.425 . S
C1933 C1930 1.409 . S
C1933 C1931 1.415 . S
C1934 H1924 0.930 . S
C1934 C1932 1.419 . S
C1934 C1935 1.362 . S
C1935 H1925 0.930 . S
C1935 C1928 1.409 . S
C1935 C1934 1.362 . S
H1936 C1942 0.930 . S
H1937 C1945 0.930 . S
H1938 C1946 0.930 . S
H1939 C1947 0.930 . S
H1940 C1950 0.930 . S
H1941 C1951 0.930 . S
C1942 H1936 0.930 . S
C1942 C1943 1.355 . S
C1942 C1944 1.415 . S
C1943 C1942 1.355 . S
C1943 C1945 1.419 . S
C1944 C1942 1.415 . S
C1944 C1949 1.425 . S
C1944 C1951 1.409 . S
C1945 H1937 0.930 . S
C1945 C1943 1.419 . S
C1945 C1946 1.362 . S
C1946 H1938 0.930 . S
C1946 C1945 1.362 . S
C1946 C1949 1.409 . S
C1947 H1939 0.930 . S
C1947 C1948 1.355 . S
C1947 C1949 1.415 . S
C1948 C1947 1.355 . S
C1948 C1950 1.419 . S
C1949 C1944 1.425 . S
C1949 C1946 1.409 . S
C1949 C1947 1.415 . S
C1950 H1940 0.930 . S
C1950 C1948 1.419 . S
C1950 C1951 1.362 . S
C1951 H1941 0.930 . S
C1951 C1944 1.409 . S
C1951 C1950 1.362 . S
H1952 C1958 0.930 . S
H1953 C1961 0.930 . S
H1954 C1962 0.930 . S
H1955 C1963 0.930 . S
H1956 C1966 0.930 . S
H1957 C1967 0.930 . S
C1958 H1952 0.930 . S
C1958 C1959 1.355 . S
C1958 C1960 1.415 . S
C1959 C1958 1.355 . S
C1959 C1961 1.419 . S
C1960 C1958 1.415 . S
C1960 C1965 1.425 . S
C1960 C1967 1.409 . S
C1961 H1953 0.930 . S
C1961 C1959 1.419 . S
C1961 C1962 1.362 . S
C1962 H1954 0.930 . S
C1962 C1961 1.362 . S
C1962 C1965 1.409 . S
C1963 H1955 0.930 . S
C1963 C1964 1.355 . S
C1963 C1965 1.415 . S
C1964 C1963 1.355 . S
C1964 C1966 1.419 . S
C1965 C1960 1.425 . S
C1965 C1962 1.409 . S
C1965 C1963 1.415 . S
C1966 H1956 0.930 . S
C1966 C1964 1.419 . S
C1966 C1967 1.362 . S
C1967 H1957 0.930 . S
C1967 C1960 1.409 . S
C1967 C1966 1.362 . S
H1968 C1974 0.930 . S
H1969 C1977 0.930 . S
H1970 C1978 0.930 . S
H1971 C1979 0.930 . S
H1972 C1982 0.930 . S
H1973 C1983 0.930 . S
C1974 H1968 0.930 . S
C1974 C1975 1.355 . S
C1974 C1976 1.415 . S
C1975 C1974 1.355 . S
C1975 C1977 1.419 . S
C1976 C1974 1.415 . S
C1976 C1981 1.425 . S
C1976 C1983 1.409 . S
C1977 H1969 0.930 . S
C1977 C1975 1.419 . S
C1977 C1978 1.362 . S
C1978 H1970 0.930 . S
C1978 C1977 1.362 . S
C1978 C1981 1.409 . S
C1979 H1971 0.930 . S
C1979 C1980 1.355 . S
C1979 C1981 1.415 . S
C1980 C1979 1.355 . S
C1980 C1982 1.419 . S
C1981 C1976 1.425 . S
C1981 C1978 1.409 . S
C1981 C1979 1.415 . S
C1982 H1972 0.930 . S
C1982 C1980 1.419 . S
C1982 C1983 1.362 . S
C1983 H1973 0.930 . S
C1983 C1976 1.409 . S
C1983 C1982 1.362 . S
H1984 C1990 0.930 . S
H1985 C1993 0.930 . S
H1986 C1994 0.930 . S
H1987 C1995 0.930 . S
H1988 C1998 0.930 . S
H1989 C1999 0.930 . S
C1990 H1984 0.930 . S
C1990 C1991 1.355 . S
C1990 C1992 1.415 . S
C1991 C1990 1.355 . S
C1991 C1993 1.419 . S
C1992 C1990 1.415 . S
C1992 C1997 1.425 . S
C1992 C1999 1.409 . S
C1993 H1985 0.930 . S
C1993 C1991 1.419 . S
C1993 C1994 1.362 . S
C1994 H1986 0.930 . S
C1994 C1993 1.362 . S
C1994 C1997 1.409 . S
C1995 H1987 0.930 . S
C1995 C1996 1.355 . S
C1995 C1997 1.415 . S
C1996 C1995 1.355 . S
C1996 C1998 1.419 . S
C1997 C1992 1.425 . S
C1997 C1994 1.409 . S
C1997 C1995 1.415 . S
C1998 H1988 0.930 . S
C1998 C1996 1.419 . S
C1998 C1999 1.362 . S
C1999 H1989 0.930 . S
C1999 C1992 1.409 . S
C1999 C1998 1.362 . S
H2000 C2006 0.930 . S
H2001 C2009 0.930 . S
H2002 C2010 0.930 . S
H2003 C2011 0.930 . S
H2004 C2014 0.930 . S
H2005 C2015 0.930 . S
C2006 H2000 0.930 . S
C2006 C2007 1.355 . S
C2006 C2008 1.415 . S
C2007 C2006 1.355 . S
C2007 C2009 1.419 . S
C2008 C2006 1.415 . S
C2008 C2013 1.425 . S
C2008 C2015 1.409 . S
C2009 H2001 0.930 . S
C2009 C2007 1.419 . S
C2009 C2010 1.362 . S
C2010 H2002 0.930 . S
C2010 C2009 1.362 . S
C2010 C2013 1.409 . S
C2011 H2003 0.930 . S
C2011 C2012 1.355 . S
C2011 C2013 1.415 . S
C2012 C2011 1.355 . S
C2012 C2014 1.419 . S
C2013 C2008 1.425 . S
C2013 C2010 1.409 . S
C2013 C2011 1.415 . S
C2014 H2004 0.930 . S
C2014 C2012 1.419 . S
C2014 C2015 1.362 . S
C2015 H2005 0.930 . S
C2015 C2008 1.409 . S
C2015 C2014 1.362 . S
H2016 C2022 0.930 . S
H2017 C2025 0.930 . S
H2018 C2026 0.930 . S
H2019 C2027 0.930 . S
H2020 C2030 0.930 . S
H2021 C2031 0.930 . S
C2022 H2016 0.930 . S
C2022 C2023 1.355 . S
C2022 C2024 1.415 . S
C2023 C2022 1.355 . S
C2023 C2025 1.419 . S
C2024 C2022 1.415 . S
C2024 C2029 1.425 . S
C2024 C2031 1.409 . S
C2025 H2017 0.930 . S
C2025 C2023 1.419 . S
C2025 C2026 1.362 . S
C2026 H2018 0.930 . S
C2026 C2025 1.362 . S
C2026 C2029 1.409 . S
C2027 H2019 0.930 . S
C2027 C2028 1.355 . S
C2027 C2029 1.415 . S
C2028 C2027 1.355 . S
C2028 C2030 1.419 . S
C2029 C2024 1.425 . S
C2029 C2026 1.409 . S
C2029 C2027 1.415 . S
C2030 H2020 0.930 . S
C2030 C2028 1.419 . S
C2030 C2031 1.362 . S
C2031 H2021 0.930 . S
C2031 C2024 1.409 . S
C2031 C2030 1.362 . S
H2032 C2038 0.930 . S
H2033 C2041 0.930 . S
H2034 C2042 0.930 . S
H2035 C2043 0.930 . S
H2036 C2046 0.930 . S
H2037 C2047 0.930 . S
C2038 H2032 0.930 . S
C2038 C2039 1.355 . S
C2038 C2040 1.415 . S
C2039 C2038 1.355 . S
C2039 C2041 1.419 . S
C2040 C2038 1.415 . S
C2040 C2045 1.425 . S
C2040 C2047 1.409 . S
C2041 H2033 0.930 . S
C2041 C2039 1.419 . S
C2041 C2042 1.362 . S
C2042 H2034 0.930 . S
C2042 C2041 1.362 . S
C2042 C2045 1.409 . S
C2043 H2035 0.930 . S
C2043 C2044 1.355 . S
C2043 C2045 1.415 . S
C2044 C2043 1.355 . S
C2044 C2046 1.419 . S
C2045 C2040 1.425 . S
C2045 C2042 1.409 . S
C2045 C2043 1.415 . S
C2046 H2036 0.930 . S
C2046 C2044 1.419 . S
C2046 C2047 1.362 . S
C2047 H2037 0.930 . S
C2047 C2040 1.409 . S
C2047 C2046 1.362 . S
H2048 C2054 0.930 . S
H2049 C2057 0.930 . S
H2050 C2058 0.930 . S
H2051 C2059 0.930 . S
H2052 C2062 0.930 . S
H2053 C2063 0.930 . S
C2054 H2048 0.930 . S
C2054 C2055 1.355 . S
C2054 C2056 1.415 . S
C2055 C2054 1.355 . S
C2055 C2057 1.419 . S
C2056 C2054 1.415 . S
C2056 C2061 1.425 . S
C2056 C2063 1.409 . S
C2057 H2049 0.930 . S
C2057 C2055 1.419 . S
C2057 C2058 1.362 . S
C2058 H2050 0.930 . S
C2058 C2057 1.362 . S
C2058 C2061 1.409 . S
C2059 H2051 0.930 . S
C2059 C2060 1.355 . S
C2059 C2061 1.415 . S
C2060 C2059 1.355 . S
C2060 C2062 1.419 . S
C2061 C2056 1.425 . S
C2061 C2058 1.409 . S
C2061 C2059 1.415 . S
C2062 H2052 0.930 . S
C2062 C2060 1.419 . S
C2062 C2063 1.362 . S
C2063 H2053 0.930 . S
C2063 C2056 1.409 . S
C2063 C2062 1.362 . S
H2064 C2070 0.930 . S
H2065 C2073 0.930 . S
H2066 C2074 0.930 . S
H2067 C2075 0.930 . S
H2068 C2078 0.930 . S
H2069 C2079 0.930 . S
C2070 H2064 0.930 . S
C2070 C2071 1.355 . S
C2070 C2072 1.415 . S
C2071 C2070 1.355 . S
C2071 C2073 1.419 . S
C2072 C2070 1.415 . S
C2072 C2077 1.425 . S
C2072 C2079 1.409 . S
C2073 H2065 0.930 . S
C2073 C2071 1.419 . S
C2073 C2074 1.362 . S
C2074 H2066 0.930 . S
C2074 C2073 1.362 . S
C2074 C2077 1.409 . S
C2075 H2067 0.930 . S
C2075 C2076 1.355 . S
C2075 C2077 1.415 . S
C2076 C2075 1.355 . S
C2076 C2078 1.419 . S
C2077 C2072 1.425 . S
C2077 C2074 1.409 . S
C2077 C2075 1.415 . S
C2078 H2068 0.930 . S
C2078 C2076 1.419 . S
C2078 C2079 1.362 . S
C2079 H2069 0.930 . S
C2079 C2072 1.409 . S
C2079 C2078 1.362 . S
H2080 C2086 0.930 . S
H2081 C2089 0.930 . S
H2082 C2090 0.930 . S
H2083 C2091 0.930 . S
H2084 C2094 0.930 . S
H2085 C2095 0.930 . S
C2086 H2080 0.930 . S
C2086 C2087 1.355 . S
C2086 C2088 1.415 . S
C2087 C2086 1.355 . S
C2087 C2089 1.419 . S
C2088 C2086 1.415 . S
C2088 C2093 1.425 . S
C2088 C2095 1.409 . S
C2089 H2081 0.930 . S
C2089 C2087 1.419 . S
C2089 C2090 1.362 . S
C2090 H2082 0.930 . S
C2090 C2089 1.362 . S
C2090 C2093 1.409 . S
C2091 H2083 0.930 . S
C2091 C2092 1.355 . S
C2091 C2093 1.415 . S
C2092 C2091 1.355 . S
C2092 C2094 1.419 . S
C2093 C2088 1.425 . S
C2093 C2090 1.409 . S
C2093 C2091 1.415 . S
C2094 H2084 0.930 . S
C2094 C2092 1.419 . S
C2094 C2095 1.362 . S
C2095 H2085 0.930 . S
C2095 C2088 1.409 . S
C2095 C2094 1.362 . S
H2096 C2102 0.930 . S
H2097 C2105 0.930 . S
H2098 C2106 0.930 . S
H2099 C2107 0.930 . S
H2100 C2110 0.930 1_455 S
H2101 C2111 0.930 . S
C2102 H2096 0.930 . S
C2102 C2103 1.355 . S
C2102 C2104 1.415 . S
C2103 C2102 1.355 . S
C2103 C2105 1.419 . S
C2104 C2102 1.415 . S
C2104 C2109 1.425 . S
C2104 C2111 1.409 . S
C2105 H2097 0.930 . S
C2105 C2103 1.419 . S
C2105 C2106 1.362 . S
C2106 H2098 0.930 . S
C2106 C2105 1.362 . S
C2106 C2109 1.409 . S
C2107 H2099 0.930 . S
C2107 C2108 1.355 . S
C2107 C2109 1.415 . S
C2108 C2107 1.355 . S
C2108 C2110 1.419 . S
C2109 C2104 1.425 . S
C2109 C2106 1.409 . S
C2109 C2107 1.415 . S
C2110 H2100 0.930 1_655 S
C2110 C2108 1.419 . S
C2110 C2111 1.362 . S
C2111 H2101 0.930 . S
C2111 C2104 1.409 . S
C2111 C2110 1.362 . S
H2112 C2118 0.930 . S
H2113 C2121 0.930 . S
H2114 C2122 0.930 . S
H2115 C2123 0.930 . S
H2116 C2126 0.930 . S
H2117 C2127 0.930 . S
C2118 H2112 0.930 . S
C2118 C2119 1.355 . S
C2118 C2120 1.415 . S
C2119 C2118 1.355 . S
C2119 C2121 1.419 . S
C2120 C2118 1.415 . S
C2120 C2125 1.425 . S
C2120 C2127 1.409 . S
C2121 H2113 0.930 . S
C2121 C2119 1.419 . S
C2121 C2122 1.362 . S
C2122 H2114 0.930 . S
C2122 C2121 1.362 . S
C2122 C2125 1.409 . S
C2123 H2115 0.930 . S
C2123 C2124 1.355 . S
C2123 C2125 1.415 . S
C2124 C2123 1.355 . S
C2124 C2126 1.419 . S
C2125 C2120 1.425 . S
C2125 C2122 1.409 . S
C2125 C2123 1.415 . S
C2126 H2116 0.930 . S
C2126 C2124 1.419 . S
C2126 C2127 1.362 . S
C2127 H2117 0.930 . S
C2127 C2120 1.409 . S
C2127 C2126 1.362 . S
H2128 C2134 0.930 . S
H2129 C2137 0.930 . S
H2130 C2138 0.930 . S
H2131 C2139 0.930 . S
H2132 C2142 0.930 . S
H2133 C2143 0.930 . S
C2134 H2128 0.930 . S
C2134 C2135 1.355 . S
C2134 C2136 1.415 . S
C2135 C2134 1.355 . S
C2135 C2137 1.419 . S
C2136 C2134 1.415 . S
C2136 C2141 1.425 . S
C2136 C2143 1.409 . S
C2137 H2129 0.930 . S
C2137 C2135 1.419 . S
C2137 C2138 1.362 . S
C2138 H2130 0.930 . S
C2138 C2137 1.362 . S
C2138 C2141 1.409 . S
C2139 H2131 0.930 . S
C2139 C2140 1.355 . S
C2139 C2141 1.415 . S
C2140 C2139 1.355 . S
C2140 C2142 1.419 . S
C2141 C2136 1.425 . S
C2141 C2138 1.409 . S
C2141 C2139 1.415 . S
C2142 H2132 0.930 . S
C2142 C2140 1.419 . S
C2142 C2143 1.362 . S
C2143 H2133 0.930 . S
C2143 C2136 1.409 . S
C2143 C2142 1.362 . S
H2144 C2150 0.930 . S
H2145 C2153 0.930 . S
H2146 C2154 0.930 . S
H2147 C2155 0.930 . S
H2148 C2158 0.930 . S
H2149 C2159 0.930 . S
C2150 H2144 0.930 . S
C2150 C2151 1.355 . S
C2150 C2152 1.415 . S
C2151 C2150 1.355 . S
C2151 C2153 1.419 . S
C2152 C2150 1.415 . S
C2152 C2157 1.425 . S
C2152 C2159 1.409 . S
C2153 H2145 0.930 . S
C2153 C2151 1.419 . S
C2153 C2154 1.362 . S
C2154 H2146 0.930 . S
C2154 C2153 1.362 . S
C2154 C2157 1.409 . S
C2155 H2147 0.930 . S
C2155 C2156 1.355 . S
C2155 C2157 1.415 . S
C2156 C2155 1.355 . S
C2156 C2158 1.419 . S
C2157 C2152 1.425 . S
C2157 C2154 1.409 . S
C2157 C2155 1.415 . S
C2158 H2148 0.930 . S
C2158 C2156 1.419 . S
C2158 C2159 1.362 . S
C2159 H2149 0.930 . S
C2159 C2152 1.409 . S
C2159 C2158 1.362 . S
H2160 C2166 0.930 . S
H2161 C2169 0.930 . S
H2162 C2170 0.930 . S
H2163 C2171 0.930 . S
H2164 C2174 0.930 . S
H2165 C2175 0.930 . S
C2166 H2160 0.930 . S
C2166 C2167 1.355 . S
C2166 C2168 1.415 . S
C2167 C2166 1.355 . S
C2167 C2169 1.419 . S
C2168 C2166 1.415 . S
C2168 C2173 1.425 . S
C2168 C2175 1.409 . S
C2169 H2161 0.930 . S
C2169 C2167 1.419 . S
C2169 C2170 1.362 . S
C2170 H2162 0.930 . S
C2170 C2169 1.362 . S
C2170 C2173 1.409 . S
C2171 H2163 0.930 . S
C2171 C2172 1.355 . S
C2171 C2173 1.415 . S
C2172 C2171 1.355 . S
C2172 C2174 1.419 . S
C2173 C2168 1.425 . S
C2173 C2170 1.409 . S
C2173 C2171 1.415 . S
C2174 H2164 0.930 . S
C2174 C2172 1.419 . S
C2174 C2175 1.362 . S
C2175 H2165 0.930 . S
C2175 C2168 1.409 . S
C2175 C2174 1.362 . S
H2176 C2182 0.930 . S
H2177 C2185 0.930 . S
H2178 C2186 0.930 . S
H2179 C2187 0.930 . S
H2180 C2190 0.930 . S
H2181 C2191 0.930 . S
C2182 H2176 0.930 . S
C2182 C2183 1.355 . S
C2182 C2184 1.415 . S
C2183 C2182 1.355 . S
C2183 C2185 1.419 . S
C2184 C2182 1.415 . S
C2184 C2189 1.425 . S
C2184 C2191 1.409 . S
C2185 H2177 0.930 . S
C2185 C2183 1.419 . S
C2185 C2186 1.362 . S
C2186 H2178 0.930 . S
C2186 C2185 1.362 . S
C2186 C2189 1.409 . S
C2187 H2179 0.930 . S
C2187 C2188 1.355 . S
C2187 C2189 1.415 . S
C2188 C2187 1.355 . S
C2188 C2190 1.419 . S
C2189 C2184 1.425 . S
C2189 C2186 1.409 . S
C2189 C2187 1.415 . S
C2190 H2180 0.930 . S
C2190 C2188 1.419 . S
C2190 C2191 1.362 . S
C2191 H2181 0.930 . S
C2191 C2184 1.409 . S
C2191 C2190 1.362 . S
H2192 C2198 0.930 . S
H2193 C2201 0.930 . S
H2194 C2202 0.930 . S
H2195 C2203 0.930 . S
H2196 C2206 0.930 . S
H2197 C2207 0.930 . S
C2198 H2192 0.930 . S
C2198 C2199 1.355 . S
C2198 C2200 1.415 . S
C2199 C2198 1.355 . S
C2199 C2201 1.419 . S
C2200 C2198 1.415 . S
C2200 C2205 1.425 . S
C2200 C2207 1.409 . S
C2201 H2193 0.930 . S
C2201 C2199 1.419 . S
C2201 C2202 1.362 . S
C2202 H2194 0.930 . S
C2202 C2201 1.362 . S
C2202 C2205 1.409 . S
C2203 H2195 0.930 . S
C2203 C2204 1.355 . S
C2203 C2205 1.415 . S
C2204 C2203 1.355 . S
C2204 C2206 1.419 . S
C2205 C2200 1.425 . S
C2205 C2202 1.409 . S
C2205 C2203 1.415 . S
C2206 H2196 0.930 . S
C2206 C2204 1.419 . S
C2206 C2207 1.362 . S
C2207 H2197 0.930 . S
C2207 C2200 1.409 . S
C2207 C2206 1.362 . S
H2208 C2214 0.930 . S
H2209 C2217 0.930 . S
H2210 C2218 0.930 . S
H2211 C2219 0.930 . S
H2212 C2222 0.930 . S
H2213 C2223 0.930 . S
C2214 H2208 0.930 . S
C2214 C2215 1.355 . S
C2214 C2216 1.415 . S
C2215 C2214 1.355 . S
C2215 C2217 1.419 . S
C2216 C2214 1.415 . S
C2216 C2221 1.425 . S
C2216 C2223 1.409 . S
C2217 H2209 0.930 . S
C2217 C2215 1.419 . S
C2217 C2218 1.362 . S
C2218 H2210 0.930 . S
C2218 C2217 1.362 . S
C2218 C2221 1.409 . S
C2219 H2211 0.930 . S
C2219 C2220 1.355 . S
C2219 C2221 1.415 . S
C2220 C2219 1.355 . S
C2220 C2222 1.419 . S
C2221 C2216 1.425 . S
C2221 C2218 1.409 . S
C2221 C2219 1.415 . S
C2222 H2212 0.930 . S
C2222 C2220 1.419 . S
C2222 C2223 1.362 . S
C2223 H2213 0.930 . S
C2223 C2216 1.409 . S
C2223 C2222 1.362 . S
H2224 C2230 0.930 . S
H2225 C2233 0.930 1_655 S
H2226 C2234 0.930 . S
H2227 C2235 0.930 . S
H2228 C2238 0.930 . S
H2229 C2239 0.930 . S
C2230 H2224 0.930 . S
C2230 C2231 1.355 . S
C2230 C2232 1.415 . S
C2231 C2230 1.355 . S
C2231 C2233 1.419 . S
C2232 C2230 1.415 . S
C2232 C2237 1.425 . S
C2232 C2239 1.409 . S
C2233 H2225 0.930 1_455 S
C2233 C2231 1.419 . S
C2233 C2234 1.362 . S
C2234 H2226 0.930 . S
C2234 C2233 1.362 . S
C2234 C2237 1.409 . S
C2235 H2227 0.930 . S
C2235 C2236 1.355 . S
C2235 C2237 1.415 . S
C2236 C2235 1.355 . S
C2236 C2238 1.419 . S
C2237 C2232 1.425 . S
C2237 C2234 1.409 . S
C2237 C2235 1.415 . S
C2238 H2228 0.930 . S
C2238 C2236 1.419 . S
C2238 C2239 1.362 . S
C2239 H2229 0.930 . S
C2239 C2232 1.409 . S
C2239 C2238 1.362 . S
H2240 C2246 0.930 . S
H2241 C2249 0.930 . S
H2242 C2250 0.930 . S
H2243 C2251 0.930 . S
H2244 C2254 0.930 . S
H2245 C2255 0.930 . S
C2246 H2240 0.930 . S
C2246 C2247 1.355 . S
C2246 C2248 1.415 . S
C2247 C2246 1.355 . S
C2247 C2249 1.419 . S
C2248 C2246 1.415 . S
C2248 C2253 1.425 . S
C2248 C2255 1.409 . S
C2249 H2241 0.930 . S
C2249 C2247 1.419 . S
C2249 C2250 1.362 . S
C2250 H2242 0.930 . S
C2250 C2249 1.362 . S
C2250 C2253 1.409 . S
C2251 H2243 0.930 . S
C2251 C2252 1.355 . S
C2251 C2253 1.415 . S
C2252 C2251 1.355 . S
C2252 C2254 1.419 . S
C2253 C2248 1.425 . S
C2253 C2250 1.409 . S
C2253 C2251 1.415 . S
C2254 H2244 0.930 . S
C2254 C2252 1.419 . S
C2254 C2255 1.362 . S
C2255 H2245 0.930 . S
C2255 C2248 1.409 . S
C2255 C2254 1.362 . S
H2256 C2262 0.930 . S
H2257 C2265 0.930 . S
H2258 C2266 0.930 . S
H2259 C2267 0.930 . S
H2260 C2270 0.930 . S
H2261 C2271 0.930 . S
C2262 H2256 0.930 . S
C2262 C2263 1.355 . S
C2262 C2264 1.415 . S
C2263 C2262 1.355 . S
C2263 C2265 1.419 . S
C2264 C2262 1.415 . S
C2264 C2269 1.425 . S
C2264 C2271 1.409 . S
C2265 H2257 0.930 . S
C2265 C2263 1.419 . S
C2265 C2266 1.362 . S
C2266 H2258 0.930 . S
C2266 C2265 1.362 . S
C2266 C2269 1.409 . S
C2267 H2259 0.930 . S
C2267 C2268 1.355 . S
C2267 C2269 1.415 . S
C2268 C2267 1.355 . S
C2268 C2270 1.419 . S
C2269 C2264 1.425 . S
C2269 C2266 1.409 . S
C2269 C2267 1.415 . S
C2270 H2260 0.930 . S
C2270 C2268 1.419 . S
C2270 C2271 1.362 . S
C2271 H2261 0.930 . S
C2271 C2264 1.409 . S
C2271 C2270 1.362 . S
H2272 C2278 0.930 . S
H2273 C2281 0.930 . S
H2274 C2282 0.930 . S
H2275 C2283 0.930 . S
H2276 C2286 0.930 . S
H2277 C2287 0.930 . S
C2278 H2272 0.930 . S
C2278 C2279 1.355 . S
C2278 C2280 1.415 . S
C2279 C2278 1.355 . S
C2279 C2281 1.419 . S
C2280 C2278 1.415 . S
C2280 C2285 1.425 . S
C2280 C2287 1.409 . S
C2281 H2273 0.930 . S
C2281 C2279 1.419 . S
C2281 C2282 1.362 . S
C2282 H2274 0.930 . S
C2282 C2281 1.362 . S
C2282 C2285 1.409 . S
C2283 H2275 0.930 . S
C2283 C2284 1.355 . S
C2283 C2285 1.415 . S
C2284 C2283 1.355 . S
C2284 C2286 1.419 . S
C2285 C2280 1.425 . S
C2285 C2282 1.409 . S
C2285 C2283 1.415 . S
C2286 H2276 0.930 . S
C2286 C2284 1.419 . S
C2286 C2287 1.362 . S
C2287 H2277 0.930 . S
C2287 C2280 1.409 . S
C2287 C2286 1.362 . S
H2288 C2294 0.930 . S
H2289 C2297 0.930 . S
H2290 C2298 0.930 . S
H2291 C2299 0.930 . S
H2292 C2302 0.930 . S
H2293 C2303 0.930 . S
C2294 H2288 0.930 . S
C2294 C2295 1.355 . S
C2294 C2296 1.415 . S
C2295 C2294 1.355 . S
C2295 C2297 1.419 . S
C2296 C2294 1.415 . S
C2296 C2301 1.425 . S
C2296 C2303 1.409 . S
C2297 H2289 0.930 . S
C2297 C2295 1.419 . S
C2297 C2298 1.362 . S
C2298 H2290 0.930 . S
C2298 C2297 1.362 . S
C2298 C2301 1.409 . S
C2299 H2291 0.930 . S
C2299 C2300 1.355 . S
C2299 C2301 1.415 . S
C2300 C2299 1.355 . S
C2300 C2302 1.419 . S
C2301 C2296 1.425 . S
C2301 C2298 1.409 . S
C2301 C2299 1.415 . S
C2302 H2292 0.930 . S
C2302 C2300 1.419 . S
C2302 C2303 1.362 . S
C2303 H2293 0.930 . S
C2303 C2296 1.409 . S
C2303 C2302 1.362 . S
H2304 C2310 0.930 . S
H2305 C2313 0.930 . S
H2306 C2314 0.930 . S
H2307 C2315 0.930 . S
H2308 C2318 0.930 . S
H2309 C2319 0.930 . S
C2310 H2304 0.930 . S
C2310 C2311 1.355 . S
C2310 C2312 1.415 . S
C2311 C2310 1.355 . S
C2311 C2313 1.419 . S
C2312 C2310 1.415 . S
C2312 C2317 1.425 1_545 S
C2312 C2319 1.409 1_545 S
C2313 H2305 0.930 . S
C2313 C2311 1.419 . S
C2313 C2314 1.362 . S
C2314 H2306 0.930 . S
C2314 C2313 1.362 . S
C2314 C2317 1.409 1_545 S
C2315 H2307 0.930 . S
C2315 C2316 1.355 . S
C2315 C2317 1.415 . S
C2316 C2315 1.355 . S
C2316 C2318 1.419 . S
C2317 C2312 1.425 1_565 S
C2317 C2314 1.409 1_565 S
C2317 C2315 1.415 . S
C2318 H2308 0.930 . S
C2318 C2316 1.419 . S
C2318 C2319 1.362 . S
C2319 H2309 0.930 . S
C2319 C2312 1.409 1_565 S
C2319 C2318 1.362 . S
H2320 C2326 0.930 . S
H2321 C2329 0.930 . S
H2322 C2330 0.930 . S
H2323 C2331 0.930 . S
H2324 C2334 0.930 . S
H2325 C2335 0.930 . S
C2326 H2320 0.930 . S
C2326 C2327 1.355 . S
C2326 C2328 1.415 . S
C2327 C2326 1.355 . S
C2327 C2329 1.419 . S
C2328 C2326 1.415 . S
C2328 C2333 1.425 . S
C2328 C2335 1.409 . S
C2329 H2321 0.930 . S
C2329 C2327 1.419 . S
C2329 C2330 1.362 . S
C2330 H2322 0.930 . S
C2330 C2329 1.362 . S
C2330 C2333 1.409 . S
C2331 H2323 0.930 . S
C2331 C2332 1.355 . S
C2331 C2333 1.415 . S
C2332 C2331 1.355 . S
C2332 C2334 1.419 . S
C2333 C2328 1.425 . S
C2333 C2330 1.409 . S
C2333 C2331 1.415 . S
C2334 H2324 0.930 . S
C2334 C2332 1.419 . S
C2334 C2335 1.362 . S
C2335 H2325 0.930 . S
C2335 C2328 1.409 . S
C2335 C2334 1.362 . S
H2336 C2342 0.930 . S
H2337 C2345 0.930 . S
H2338 C2346 0.930 . S
H2339 C2347 0.930 . S
H2340 C2350 0.930 . S
H2341 C2351 0.930 . S
C2342 H2336 0.930 . S
C2342 C2343 1.355 . S
C2342 C2344 1.415 . S
C2343 C2342 1.355 . S
C2343 C2345 1.419 . S
C2344 C2342 1.415 . S
C2344 C2349 1.425 1_565 S
C2344 C2351 1.409 1_565 S
C2345 H2337 0.930 . S
C2345 C2343 1.419 . S
C2345 C2346 1.362 . S
C2346 H2338 0.930 . S
C2346 C2345 1.362 . S
C2346 C2349 1.409 1_565 S
C2347 H2339 0.930 . S
C2347 C2348 1.355 . S
C2347 C2349 1.415 . S
C2348 C2347 1.355 . S
C2348 C2350 1.419 . S
C2349 C2344 1.425 1_545 S
C2349 C2346 1.409 1_545 S
C2349 C2347 1.415 . S
C2350 H2340 0.930 . S
C2350 C2348 1.419 . S
C2350 C2351 1.362 . S
C2351 H2341 0.930 . S
C2351 C2344 1.409 1_545 S
C2351 C2350 1.362 . S
H2352 C2358 0.930 . S
H2353 C2361 0.930 . S
H2354 C2362 0.930 . S
H2355 C2363 0.930 . S
H2356 C2366 0.930 . S
H2357 C2367 0.930 . S
C2358 H2352 0.930 . S
C2358 C2359 1.355 1_556 S
C2358 C2360 1.415 . S
C2359 C2358 1.355 1_554 S
C2359 C2361 1.419 . S
C2360 C2358 1.415 . S
C2360 C2365 1.425 1_556 S
C2360 C2367 1.409 . S
C2361 H2353 0.930 . S
C2361 C2359 1.419 . S
C2361 C2362 1.362 . S
C2362 H2354 0.930 . S
C2362 C2361 1.362 . S
C2362 C2365 1.409 . S
C2363 H2355 0.930 . S
C2363 C2364 1.355 1_554 S
C2363 C2365 1.415 . S
C2364 C2363 1.355 1_556 S
C2364 C2366 1.419 . S
C2365 C2360 1.425 1_554 S
C2365 C2362 1.409 . S
C2365 C2363 1.415 . S
C2366 H2356 0.930 . S
C2366 C2364 1.419 . S
C2366 C2367 1.362 . S
C2367 H2357 0.930 . S
C2367 C2360 1.409 . S
C2367 C2366 1.362 . S
H2368 C2374 0.930 . S
H2369 C2377 0.930 . S
H2370 C2378 0.930 . S
H2371 C2379 0.930 . S
H2372 C2382 0.930 . S
H2373 C2383 0.930 . S
C2374 H2368 0.930 . S
C2374 C2375 1.355 . S
C2374 C2376 1.415 . S
C2375 C2374 1.355 . S
C2375 C2377 1.419 . S
C2376 C2374 1.415 . S
C2376 C2381 1.425 1_545 S
C2376 C2383 1.409 1_545 S
C2377 H2369 0.930 . S
C2377 C2375 1.419 . S
C2377 C2378 1.362 . S
C2378 H2370 0.930 . S
C2378 C2377 1.362 . S
C2378 C2381 1.409 1_545 S
C2379 H2371 0.930 . S
C2379 C2380 1.355 . S
C2379 C2381 1.415 . S
C2380 C2379 1.355 . S
C2380 C2382 1.419 . S
C2381 C2376 1.425 1_565 S
C2381 C2378 1.409 1_565 S
C2381 C2379 1.415 . S
C2382 H2372 0.930 . S
C2382 C2380 1.419 . S
C2382 C2383 1.362 . S
C2383 H2373 0.930 . S
C2383 C2376 1.409 1_565 S
C2383 C2382 1.362 . S
H2384 C2390 0.930 . S
H2385 C2393 0.930 . S
H2386 C2394 0.930 . S
H2387 C2395 0.930 . S
H2388 C2398 0.930 . S
H2389 C2399 0.930 . S
C2390 H2384 0.930 . S
C2390 C2391 1.355 . S
C2390 C2392 1.415 . S
C2391 C2390 1.355 . S
C2391 C2393 1.419 . S
C2392 C2390 1.415 . S
C2392 C2397 1.425 . S
C2392 C2399 1.409 . S
C2393 H2385 0.930 . S
C2393 C2391 1.419 . S
C2393 C2394 1.362 . S
C2394 H2386 0.930 . S
C2394 C2393 1.362 . S
C2394 C2397 1.409 . S
C2395 H2387 0.930 . S
C2395 C2396 1.355 . S
C2395 C2397 1.415 . S
C2396 C2395 1.355 . S
C2396 C2398 1.419 . S
C2397 C2392 1.425 . S
C2397 C2394 1.409 . S
C2397 C2395 1.415 . S
C2398 H2388 0.930 . S
C2398 C2396 1.419 . S
C2398 C2399 1.362 . S
C2399 H2389 0.930 . S
C2399 C2392 1.409 . S
C2399 C2398 1.362 . S
H2400 C2406 0.930 . S
H2401 C2409 0.930 . S
H2402 C2410 0.930 . S
H2403 C2411 0.930 . S
H2404 C2414 0.930 . S
H2405 C2415 0.930 . S
C2406 H2400 0.930 . S
C2406 C2407 1.355 . S
C2406 C2408 1.415 . S
C2407 C2406 1.355 . S
C2407 C2409 1.419 . S
C2408 C2406 1.415 . S
C2408 C2413 1.425 1_545 S
C2408 C2415 1.409 1_545 S
C2409 H2401 0.930 . S
C2409 C2407 1.419 . S
C2409 C2410 1.362 . S
C2410 H2402 0.930 . S
C2410 C2409 1.362 . S
C2410 C2413 1.409 1_545 S
C2411 H2403 0.930 . S
C2411 C2412 1.355 . S
C2411 C2413 1.415 . S
C2412 C2411 1.355 . S
C2412 C2414 1.419 . S
C2413 C2408 1.425 1_565 S
C2413 C2410 1.409 1_565 S
C2413 C2411 1.415 . S
C2414 H2404 0.930 . S
C2414 C2412 1.419 . S
C2414 C2415 1.362 . S
C2415 H2405 0.930 . S
C2415 C2408 1.409 1_565 S
C2415 C2414 1.362 . S
H2416 C2422 0.930 . S
H2417 C2425 0.930 . S
H2418 C2426 0.930 . S
H2419 C2427 0.930 . S
H2420 C2430 0.930 . S
H2421 C2431 0.930 . S
C2422 H2416 0.930 . S
C2422 C2423 1.355 1_556 S
C2422 C2424 1.415 . S
C2423 C2422 1.355 1_554 S
C2423 C2425 1.419 . S
C2424 C2422 1.415 . S
C2424 C2429 1.425 1_556 S
C2424 C2431 1.409 . S
C2425 H2417 0.930 . S
C2425 C2423 1.419 . S
C2425 C2426 1.362 . S
C2426 H2418 0.930 . S
C2426 C2425 1.362 . S
C2426 C2429 1.409 . S
C2427 H2419 0.930 . S
C2427 C2428 1.355 1_554 S
C2427 C2429 1.415 . S
C2428 C2427 1.355 1_556 S
C2428 C2430 1.419 . S
C2429 C2424 1.425 1_554 S
C2429 C2426 1.409 . S
C2429 C2427 1.415 . S
C2430 H2420 0.930 . S
C2430 C2428 1.419 . S
C2430 C2431 1.362 . S
C2431 H2421 0.930 . S
C2431 C2424 1.409 . S
C2431 C2430 1.362 . S
H2432 C2438 0.930 . S
H2433 C2441 0.930 . S
H2434 C2442 0.930 . S
H2435 C2443 0.930 . S
H2436 C2446 0.930 . S
H2437 C2447 0.930 . S
C2438 H2432 0.930 . S
C2438 C2439 1.355 . S
C2438 C2440 1.415 . S
C2439 C2438 1.355 . S
C2439 C2441 1.419 . S
C2440 C2438 1.415 . S
C2440 C2445 1.425 . S
C2440 C2447 1.409 . S
C2441 H2433 0.930 . S
C2441 C2439 1.419 . S
C2441 C2442 1.362 . S
C2442 H2434 0.930 . S
C2442 C2441 1.362 . S
C2442 C2445 1.409 . S
C2443 H2435 0.930 . S
C2443 C2444 1.355 . S
C2443 C2445 1.415 . S
C2444 C2443 1.355 . S
C2444 C2446 1.419 . S
C2445 C2440 1.425 . S
C2445 C2442 1.409 . S
C2445 C2443 1.415 . S
C2446 H2436 0.930 . S
C2446 C2444 1.419 . S
C2446 C2447 1.362 . S
C2447 H2437 0.930 . S
C2447 C2440 1.409 . S
C2447 C2446 1.362 . S
H2448 C2454 0.930 . S
H2449 C2457 0.930 . S
H2450 C2458 0.930 . S
H2451 C2459 0.930 . S
H2452 C2462 0.930 . S
H2453 C2463 0.930 . S
C2454 H2448 0.930 . S
C2454 C2455 1.348 1_554 S
C2454 C2456 1.415 . S
C2455 C2454 1.348 1_556 S
C2455 C2457 1.428 . S
C2456 C2454 1.415 . S
C2456 C2461 1.425 1_554 S
C2456 C2463 1.409 . S
C2457 H2449 0.930 . S
C2457 C2455 1.428 . S
C2457 C2458 1.362 . S
C2458 H2450 0.930 . S
C2458 C2457 1.362 . S
C2458 C2461 1.409 . S
C2459 H2451 0.930 . S
C2459 C2460 1.348 1_556 S
C2459 C2461 1.415 . S
C2460 C2459 1.348 1_554 S
C2460 C2462 1.428 . S
C2461 C2456 1.425 1_556 S
C2461 C2458 1.409 . S
C2461 C2459 1.415 . S
C2462 H2452 0.930 . S
C2462 C2460 1.428 . S
C2462 C2463 1.362 . S
C2463 H2453 0.930 . S
C2463 C2456 1.409 . S
C2463 C2462 1.362 . S
H2464 C2470 0.930 . S
H2465 C2473 0.930 . S
H2466 C2474 0.930 . S
H2467 C2475 0.930 . S
H2468 C2478 0.930 . S
H2469 C2479 0.930 . S
C2470 H2464 0.930 . S
C2470 C2471 1.355 . S
C2470 C2472 1.415 . S
C2471 C2470 1.355 . S
C2471 C2473 1.419 . S
C2472 C2470 1.415 . S
C2472 C2477 1.425 . S
C2472 C2479 1.409 . S
C2473 H2465 0.930 . S
C2473 C2471 1.419 . S
C2473 C2474 1.362 . S
C2474 H2466 0.930 . S
C2474 C2473 1.362 . S
C2474 C2477 1.409 . S
C2475 H2467 0.930 . S
C2475 C2476 1.355 . S
C2475 C2477 1.415 . S
C2476 C2475 1.355 . S
C2476 C2478 1.419 . S
C2477 C2472 1.425 . S
C2477 C2474 1.409 . S
C2477 C2475 1.415 . S
C2478 H2468 0.930 . S
C2478 C2476 1.419 . S
C2478 C2479 1.362 . S
C2479 H2469 0.930 . S
C2479 C2472 1.409 . S
C2479 C2478 1.362 . S
H2480 C2486 0.930 . S
H2481 C2489 0.930 . S
H2482 C2490 0.930 . S
H2483 C2491 0.930 . S
H2484 C2494 0.930 . S
H2485 C2495 0.930 . S
C2486 H2480 0.930 . S
C2486 C2487 1.355 . S
C2486 C2488 1.415 . S
C2487 C2486 1.355 . S
C2487 C2489 1.419 . S
C2488 C2486 1.415 . S
C2488 C2493 1.425 . S
C2488 C2495 1.409 . S
C2489 H2481 0.930 . S
C2489 C2487 1.419 . S
C2489 C2490 1.362 . S
C2490 H2482 0.930 . S
C2490 C2489 1.362 . S
C2490 C2493 1.409 . S
C2491 H2483 0.930 . S
C2491 C2492 1.355 . S
C2491 C2493 1.415 . S
C2492 C2491 1.355 . S
C2492 C2494 1.419 . S
C2493 C2488 1.425 . S
C2493 C2490 1.409 . S
C2493 C2491 1.415 . S
C2494 H2484 0.930 . S
C2494 C2492 1.419 . S
C2494 C2495 1.362 . S
C2495 H2485 0.930 . S
C2495 C2488 1.409 . S
C2495 C2494 1.362 . S
H2496 C2502 0.930 . S
H2497 C2505 0.930 . S
H2498 C2506 0.930 . S
H2499 C2507 0.930 . S
H2500 C2510 0.930 . S
H2501 C2511 0.930 . S
C2502 H2496 0.930 . S
C2502 C2503 1.355 . S
C2502 C2504 1.415 . S
C2503 C2502 1.355 . S
C2503 C2505 1.419 . S
C2504 C2502 1.415 . S
C2504 C2509 1.425 . S
C2504 C2511 1.409 . S
C2505 H2497 0.930 . S
C2505 C2503 1.419 . S
C2505 C2506 1.362 . S
C2506 H2498 0.930 . S
C2506 C2505 1.362 . S
C2506 C2509 1.409 . S
C2507 H2499 0.930 . S
C2507 C2508 1.355 . S
C2507 C2509 1.415 . S
C2508 C2507 1.355 . S
C2508 C2510 1.419 . S
C2509 C2504 1.425 . S
C2509 C2506 1.409 . S
C2509 C2507 1.415 . S
C2510 H2500 0.930 . S
C2510 C2508 1.419 . S
C2510 C2511 1.362 . S
C2511 H2501 0.930 . S
C2511 C2504 1.409 . S
C2511 C2510 1.362 . S
H2512 C2518 0.930 . S
H2513 C2521 0.930 . S
H2514 C2522 0.930 . S
H2515 C2523 0.930 . S
H2516 C2526 0.930 . S
H2517 C2527 0.930 . S
C2518 H2512 0.930 . S
C2518 C2519 1.355 1_556 S
C2518 C2520 1.415 . S
C2519 C2518 1.355 1_554 S
C2519 C2521 1.419 . S
C2520 C2518 1.415 . S
C2520 C2525 1.425 1_556 S
C2520 C2527 1.409 . S
C2521 H2513 0.930 . S
C2521 C2519 1.419 . S
C2521 C2522 1.362 . S
C2522 H2514 0.930 . S
C2522 C2521 1.362 . S
C2522 C2525 1.409 . S
C2523 H2515 0.930 . S
C2523 C2524 1.355 1_554 S
C2523 C2525 1.415 . S
C2524 C2523 1.355 1_556 S
C2524 C2526 1.419 . S
C2525 C2520 1.425 1_554 S
C2525 C2522 1.409 . S
C2525 C2523 1.415 . S
C2526 H2516 0.930 . S
C2526 C2524 1.419 . S
C2526 C2527 1.362 . S
C2527 H2517 0.930 . S
C2527 C2520 1.409 . S
C2527 C2526 1.362 . S
H2528 C2534 0.930 . S
H2529 C2537 0.930 . S
H2530 C2538 0.930 . S
H2531 C2539 0.930 . S
H2532 C2542 0.930 . S
H2533 C2543 0.930 . S
C2534 H2528 0.930 . S
C2534 C2535 1.355 . S
C2534 C2536 1.415 . S
C2535 C2534 1.355 . S
C2535 C2537 1.419 . S
C2536 C2534 1.415 . S
C2536 C2541 1.425 . S
C2536 C2543 1.409 . S
C2537 H2529 0.930 . S
C2537 C2535 1.419 . S
C2537 C2538 1.362 . S
C2538 H2530 0.930 . S
C2538 C2537 1.362 . S
C2538 C2541 1.409 . S
C2539 H2531 0.930 . S
C2539 C2540 1.355 . S
C2539 C2541 1.415 . S
C2540 C2539 1.355 . S
C2540 C2542 1.419 . S
C2541 C2536 1.425 . S
C2541 C2538 1.409 . S
C2541 C2539 1.415 . S
C2542 H2532 0.930 . S
C2542 C2540 1.419 . S
C2542 C2543 1.362 . S
C2543 H2533 0.930 . S
C2543 C2536 1.409 . S
C2543 C2542 1.362 . S
H2544 C2550 0.930 . S
H2545 C2553 0.930 . S
H2546 C2554 0.930 . S
H2547 C2555 0.930 . S
H2548 C2558 0.930 . S
H2549 C2559 0.930 . S
C2550 H2544 0.930 . S
C2550 C2551 1.355 . S
C2550 C2552 1.415 . S
C2551 C2550 1.355 . S
C2551 C2553 1.419 . S
C2552 C2550 1.415 . S
C2552 C2557 1.425 . S
C2552 C2559 1.409 . S
C2553 H2545 0.930 . S
C2553 C2551 1.419 . S
C2553 C2554 1.362 . S
C2554 H2546 0.930 . S
C2554 C2553 1.362 . S
C2554 C2557 1.409 . S
C2555 H2547 0.930 . S
C2555 C2556 1.355 . S
C2555 C2557 1.415 . S
C2556 C2555 1.355 . S
C2556 C2558 1.419 . S
C2557 C2552 1.425 . S
C2557 C2554 1.409 . S
C2557 C2555 1.415 . S
C2558 H2548 0.930 . S
C2558 C2556 1.419 . S
C2558 C2559 1.362 . S
C2559 H2549 0.930 . S
C2559 C2552 1.409 . S
C2559 C2558 1.362 . S
H2560 C2566 0.930 . S
H2561 C2569 0.930 . S
H2562 C2570 0.930 . S
H2563 C2571 0.930 . S
H2564 C2574 0.930 . S
H2565 C2575 0.930 . S
C2566 H2560 0.930 . S
C2566 C2567 1.355 . S
C2566 C2568 1.415 . S
C2567 C2566 1.355 . S
C2567 C2569 1.419 . S
C2568 C2566 1.415 . S
C2568 C2573 1.425 . S
C2568 C2575 1.409 . S
C2569 H2561 0.930 . S
C2569 C2567 1.419 . S
C2569 C2570 1.362 . S
C2570 H2562 0.930 . S
C2570 C2569 1.362 . S
C2570 C2573 1.409 . S
C2571 H2563 0.930 . S
C2571 C2572 1.355 . S
C2571 C2573 1.415 . S
C2572 C2571 1.355 . S
C2572 C2574 1.419 . S
C2573 C2568 1.425 . S
C2573 C2570 1.409 . S
C2573 C2571 1.415 . S
C2574 H2564 0.930 . S
C2574 C2572 1.419 . S
C2574 C2575 1.362 . S
C2575 H2565 0.930 . S
C2575 C2568 1.409 . S
C2575 C2574 1.362 . S
H2576 C2582 0.930 . S
H2577 C2585 0.930 . S
H2578 C2586 0.930 . S
H2579 C2587 0.930 . S
H2580 C2590 0.930 . S
H2581 C2591 0.930 . S
C2582 H2576 0.930 . S
C2582 C2583 1.355 . S
C2582 C2584 1.415 . S
C2583 C2582 1.355 . S
C2583 C2585 1.419 . S
C2584 C2582 1.415 . S
C2584 C2589 1.425 . S
C2584 C2591 1.409 . S
C2585 H2577 0.930 . S
C2585 C2583 1.419 . S
C2585 C2586 1.362 . S
C2586 H2578 0.930 . S
C2586 C2585 1.362 . S
C2586 C2589 1.409 . S
C2587 H2579 0.930 . S
C2587 C2588 1.355 . S
C2587 C2589 1.415 . S
C2588 C2587 1.355 . S
C2588 C2590 1.419 . S
C2589 C2584 1.425 . S
C2589 C2586 1.409 . S
C2589 C2587 1.415 . S
C2590 H2580 0.930 . S
C2590 C2588 1.419 . S
C2590 C2591 1.362 . S
C2591 H2581 0.930 . S
C2591 C2584 1.409 . S
C2591 C2590 1.362 . S
H2592 C2598 0.930 . S
H2593 C2601 0.930 . S
H2594 C2602 0.930 . S
H2595 C2603 0.930 . S
H2596 C2606 0.930 . S
H2597 C2607 0.930 . S
C2598 H2592 0.930 . S
C2598 C2599 1.355 . S
C2598 C2600 1.415 . S
C2599 C2598 1.355 . S
C2599 C2601 1.419 . S
C2600 C2598 1.415 . S
C2600 C2605 1.425 . S
C2600 C2607 1.409 . S
C2601 H2593 0.930 . S
C2601 C2599 1.419 . S
C2601 C2602 1.362 . S
C2602 H2594 0.930 . S
C2602 C2601 1.362 . S
C2602 C2605 1.409 . S
C2603 H2595 0.930 . S
C2603 C2604 1.355 . S
C2603 C2605 1.415 . S
C2604 C2603 1.355 . S
C2604 C2606 1.419 . S
C2605 C2600 1.425 . S
C2605 C2602 1.409 . S
C2605 C2603 1.415 . S
C2606 H2596 0.930 . S
C2606 C2604 1.419 . S
C2606 C2607 1.362 . S
C2607 H2597 0.930 . S
C2607 C2600 1.409 . S
C2607 C2606 1.362 . S
H2608 C2614 0.930 . S
H2609 C2617 0.930 . S
H2610 C2618 0.930 . S
H2611 C2619 0.930 . S
H2612 C2622 0.930 . S
H2613 C2623 0.930 . S
C2614 H2608 0.930 . S
C2614 C2615 1.355 . S
C2614 C2616 1.415 . S
C2615 C2614 1.355 . S
C2615 C2617 1.419 . S
C2616 C2614 1.415 . S
C2616 C2621 1.425 . S
C2616 C2623 1.409 . S
C2617 H2609 0.930 . S
C2617 C2615 1.419 . S
C2617 C2618 1.362 . S
C2618 H2610 0.930 . S
C2618 C2617 1.362 . S
C2618 C2621 1.409 . S
C2619 H2611 0.930 . S
C2619 C2620 1.355 . S
C2619 C2621 1.415 . S
C2620 C2619 1.355 . S
C2620 C2622 1.419 . S
C2621 C2616 1.425 . S
C2621 C2618 1.409 . S
C2621 C2619 1.415 . S
C2622 H2612 0.930 . S
C2622 C2620 1.419 . S
C2622 C2623 1.362 . S
C2623 H2613 0.930 . S
C2623 C2616 1.409 . S
C2623 C2622 1.362 . S
H2624 C2630 0.930 . S
H2625 C2633 0.930 . S
H2626 C2634 0.930 . S
H2627 C2635 0.930 . S
H2628 C2638 0.930 . S
H2629 C2639 0.930 . S
C2630 H2624 0.930 . S
C2630 C2631 1.355 . S
C2630 C2632 1.415 . S
C2631 C2630 1.355 . S
C2631 C2633 1.419 . S
C2632 C2630 1.415 . S
C2632 C2637 1.425 . S
C2632 C2639 1.409 . S
C2633 H2625 0.930 . S
C2633 C2631 1.419 . S
C2633 C2634 1.362 . S
C2634 H2626 0.930 . S
C2634 C2633 1.362 . S
C2634 C2637 1.409 . S
C2635 H2627 0.930 . S
C2635 C2636 1.355 . S
C2635 C2637 1.415 . S
C2636 C2635 1.355 . S
C2636 C2638 1.419 . S
C2637 C2632 1.425 . S
C2637 C2634 1.409 . S
C2637 C2635 1.415 . S
C2638 H2628 0.930 . S
C2638 C2636 1.419 . S
C2638 C2639 1.362 . S
C2639 H2629 0.930 . S
C2639 C2632 1.409 . S
C2639 C2638 1.362 . S
H2640 C2646 0.930 . S
H2641 C2649 0.930 . S
H2642 C2650 0.930 . S
H2643 C2651 0.930 . S
H2644 C2654 0.930 . S
H2645 C2655 0.930 . S
C2646 H2640 0.930 . S
C2646 C2647 1.355 . S
C2646 C2648 1.415 . S
C2647 C2646 1.355 . S
C2647 C2649 1.419 . S
C2648 C2646 1.415 . S
C2648 C2653 1.425 . S
C2648 C2655 1.409 . S
C2649 H2641 0.930 . S
C2649 C2647 1.419 . S
C2649 C2650 1.362 . S
C2650 H2642 0.930 . S
C2650 C2649 1.362 . S
C2650 C2653 1.409 . S
C2651 H2643 0.930 . S
C2651 C2652 1.355 . S
C2651 C2653 1.415 . S
C2652 C2651 1.355 . S
C2652 C2654 1.419 . S
C2653 C2648 1.425 . S
C2653 C2650 1.409 . S
C2653 C2651 1.415 . S
C2654 H2644 0.930 . S
C2654 C2652 1.419 . S
C2654 C2655 1.362 . S
C2655 H2645 0.930 . S
C2655 C2648 1.409 . S
C2655 C2654 1.362 . S
H2656 C2662 0.930 . S
H2657 C2665 0.930 . S
H2658 C2666 0.930 . S
H2659 C2667 0.930 . S
H2660 C2670 0.930 . S
H2661 C2671 0.930 . S
C2662 H2656 0.930 . S
C2662 C2663 1.355 . S
C2662 C2664 1.415 . S
C2663 C2662 1.355 . S
C2663 C2665 1.419 . S
C2664 C2662 1.415 . S
C2664 C2669 1.425 . S
C2664 C2671 1.409 . S
C2665 H2657 0.930 . S
C2665 C2663 1.419 . S
C2665 C2666 1.362 . S
C2666 H2658 0.930 . S
C2666 C2665 1.362 . S
C2666 C2669 1.409 . S
C2667 H2659 0.930 . S
C2667 C2668 1.355 . S
C2667 C2669 1.415 . S
C2668 C2667 1.355 . S
C2668 C2670 1.419 . S
C2669 C2664 1.425 . S
C2669 C2666 1.409 . S
C2669 C2667 1.415 . S
C2670 H2660 0.930 . S
C2670 C2668 1.419 . S
C2670 C2671 1.362 . S
C2671 H2661 0.930 . S
C2671 C2664 1.409 . S
C2671 C2670 1.362 . S
H2672 C2678 0.930 . S
H2673 C2681 0.930 . S
H2674 C2682 0.930 . S
H2675 C2683 0.930 . S
H2676 C2686 0.930 . S
H2677 C2687 0.930 . S
C2678 H2672 0.930 . S
C2678 C2679 1.355 . S
C2678 C2680 1.415 . S
C2679 C2678 1.355 . S
C2679 C2681 1.419 . S
C2680 C2678 1.415 . S
C2680 C2685 1.425 . S
C2680 C2687 1.409 . S
C2681 H2673 0.930 . S
C2681 C2679 1.419 . S
C2681 C2682 1.362 . S
C2682 H2674 0.930 . S
C2682 C2681 1.362 . S
C2682 C2685 1.409 . S
C2683 H2675 0.930 . S
C2683 C2684 1.355 . S
C2683 C2685 1.415 . S
C2684 C2683 1.355 . S
C2684 C2686 1.419 . S
C2685 C2680 1.425 . S
C2685 C2682 1.409 . S
C2685 C2683 1.415 . S
C2686 H2676 0.930 . S
C2686 C2684 1.419 . S
C2686 C2687 1.362 . S
C2687 H2677 0.930 . S
C2687 C2680 1.409 . S
C2687 C2686 1.362 . S
H2688 C2694 0.930 . S
H2689 C2697 0.930 . S
H2690 C2698 0.930 . S
H2691 C2699 0.930 . S
H2692 C2702 0.930 . S
H2693 C2703 0.930 . S
C2694 H2688 0.930 . S
C2694 C2695 1.355 . S
C2694 C2696 1.415 . S
C2695 C2694 1.355 . S
C2695 C2697 1.419 . S
C2696 C2694 1.415 . S
C2696 C2701 1.425 . S
C2696 C2703 1.409 . S
C2697 H2689 0.930 . S
C2697 C2695 1.419 . S
C2697 C2698 1.362 . S
C2698 H2690 0.930 . S
C2698 C2697 1.362 . S
C2698 C2701 1.409 . S
C2699 H2691 0.930 . S
C2699 C2700 1.355 . S
C2699 C2701 1.415 . S
C2700 C2699 1.355 . S
C2700 C2702 1.419 . S
C2701 C2696 1.425 . S
C2701 C2698 1.409 . S
C2701 C2699 1.415 . S
C2702 H2692 0.930 . S
C2702 C2700 1.419 . S
C2702 C2703 1.362 . S
C2703 H2693 0.930 . S
C2703 C2696 1.409 . S
C2703 C2702 1.362 . S
H2704 C2710 0.930 . S
H2705 C2713 0.930 . S
H2706 C2714 0.930 . S
H2707 C2715 0.930 . S
H2708 C2718 0.930 . S
H2709 C2719 0.930 . S
C2710 H2704 0.930 . S
C2710 C2711 1.355 . S
C2710 C2712 1.415 . S
C2711 C2710 1.355 . S
C2711 C2713 1.419 . S
C2712 C2710 1.415 . S
C2712 C2717 1.425 . S
C2712 C2719 1.409 . S
C2713 H2705 0.930 . S
C2713 C2711 1.419 . S
C2713 C2714 1.362 . S
C2714 H2706 0.930 . S
C2714 C2713 1.362 . S
C2714 C2717 1.409 . S
C2715 H2707 0.930 . S
C2715 C2716 1.355 . S
C2715 C2717 1.415 . S
C2716 C2715 1.355 . S
C2716 C2718 1.419 . S
C2717 C2712 1.425 . S
C2717 C2714 1.409 . S
C2717 C2715 1.415 . S
C2718 H2708 0.930 . S
C2718 C2716 1.419 . S
C2718 C2719 1.362 . S
C2719 H2709 0.930 . S
C2719 C2712 1.409 . S
C2719 C2718 1.362 . S
H2720 C2726 0.930 . S
H2721 C2729 0.930 . S
H2722 C2730 0.930 . S
H2723 C2731 0.930 . S
H2724 C2734 0.930 . S
H2725 C2735 0.930 . S
C2726 H2720 0.930 . S
C2726 C2727 1.355 . S
C2726 C2728 1.415 . S
C2727 C2726 1.355 . S
C2727 C2729 1.419 . S
C2728 C2726 1.415 . S
C2728 C2733 1.425 . S
C2728 C2735 1.409 . S
C2729 H2721 0.930 . S
C2729 C2727 1.419 . S
C2729 C2730 1.362 . S
C2730 H2722 0.930 . S
C2730 C2729 1.362 . S
C2730 C2733 1.409 . S
C2731 H2723 0.930 . S
C2731 C2732 1.355 . S
C2731 C2733 1.415 . S
C2732 C2731 1.355 . S
C2732 C2734 1.419 . S
C2733 C2728 1.425 . S
C2733 C2730 1.409 . S
C2733 C2731 1.415 . S
C2734 H2724 0.930 . S
C2734 C2732 1.419 . S
C2734 C2735 1.362 . S
C2735 H2725 0.930 . S
C2735 C2728 1.409 . S
C2735 C2734 1.362 . S
H2736 C2742 0.930 . S
H2737 C2745 0.930 . S
H2738 C2746 0.930 . S
H2739 C2747 0.930 . S
H2740 C2750 0.930 . S
H2741 C2751 0.930 . S
C2742 H2736 0.930 . S
C2742 C2743 1.355 . S
C2742 C2744 1.415 . S
C2743 C2742 1.355 . S
C2743 C2745 1.419 . S
C2744 C2742 1.415 . S
C2744 C2749 1.425 . S
C2744 C2751 1.409 . S
C2745 H2737 0.930 . S
C2745 C2743 1.419 . S
C2745 C2746 1.362 . S
C2746 H2738 0.930 . S
C2746 C2745 1.362 . S
C2746 C2749 1.409 . S
C2747 H2739 0.930 . S
C2747 C2748 1.355 . S
C2747 C2749 1.415 . S
C2748 C2747 1.355 . S
C2748 C2750 1.419 . S
C2749 C2744 1.425 . S
C2749 C2746 1.409 . S
C2749 C2747 1.415 . S
C2750 H2740 0.930 . S
C2750 C2748 1.419 . S
C2750 C2751 1.362 . S
C2751 H2741 0.930 . S
C2751 C2744 1.409 . S
C2751 C2750 1.362 . S
H2752 C2758 0.930 . S
H2753 C2761 0.930 . S
H2754 C2762 0.930 . S
H2755 C2763 0.930 . S
H2756 C2766 0.930 . S
H2757 C2767 0.930 . S
C2758 H2752 0.930 . S
C2758 C2759 1.355 . S
C2758 C2760 1.415 . S
C2759 C2758 1.355 . S
C2759 C2761 1.419 . S
C2760 C2758 1.415 . S
C2760 C2765 1.425 . S
C2760 C2767 1.409 . S
C2761 H2753 0.930 . S
C2761 C2759 1.419 . S
C2761 C2762 1.362 . S
C2762 H2754 0.930 . S
C2762 C2761 1.362 . S
C2762 C2765 1.409 . S
C2763 H2755 0.930 . S
C2763 C2764 1.355 . S
C2763 C2765 1.415 . S
C2764 C2763 1.355 . S
C2764 C2766 1.419 . S
C2765 C2760 1.425 . S
C2765 C2762 1.409 . S
C2765 C2763 1.415 . S
C2766 H2756 0.930 . S
C2766 C2764 1.419 . S
C2766 C2767 1.362 . S
C2767 H2757 0.930 . S
C2767 C2760 1.409 . S
C2767 C2766 1.362 . S
H2768 C2774 0.930 . S
H2769 C2777 0.930 . S
H2770 C2778 0.930 . S
H2771 C2779 0.930 . S
H2772 C2782 0.930 . S
H2773 C2783 0.930 . S
C2774 H2768 0.930 . S
C2774 C2775 1.355 . S
C2774 C2776 1.415 . S
C2775 C2774 1.355 . S
C2775 C2777 1.419 . S
C2776 C2774 1.415 . S
C2776 C2781 1.425 . S
C2776 C2783 1.409 . S
C2777 H2769 0.930 . S
C2777 C2775 1.419 . S
C2777 C2778 1.362 . S
C2778 H2770 0.930 . S
C2778 C2777 1.362 . S
C2778 C2781 1.409 . S
C2779 H2771 0.930 . S
C2779 C2780 1.355 . S
C2779 C2781 1.415 . S
C2780 C2779 1.355 . S
C2780 C2782 1.419 . S
C2781 C2776 1.425 . S
C2781 C2778 1.409 . S
C2781 C2779 1.415 . S
C2782 H2772 0.930 . S
C2782 C2780 1.419 . S
C2782 C2783 1.362 . S
C2783 H2773 0.930 . S
C2783 C2776 1.409 . S
C2783 C2782 1.362 . S
H2784 C2790 0.930 . S
H2785 C2793 0.930 . S
H2786 C2794 0.930 . S
H2787 C2795 0.930 . S
H2788 C2798 0.930 . S
H2789 C2799 0.930 . S
C2790 H2784 0.930 . S
C2790 C2791 1.355 . S
C2790 C2792 1.415 . S
C2791 C2790 1.355 . S
C2791 C2793 1.419 . S
C2792 C2790 1.415 . S
C2792 C2797 1.425 . S
C2792 C2799 1.409 . S
C2793 H2785 0.930 . S
C2793 C2791 1.419 . S
C2793 C2794 1.362 . S
C2794 H2786 0.930 . S
C2794 C2793 1.362 . S
C2794 C2797 1.409 . S
C2795 H2787 0.930 . S
C2795 C2796 1.355 . S
C2795 C2797 1.415 . S
C2796 C2795 1.355 . S
C2796 C2798 1.419 . S
C2797 C2792 1.425 . S
C2797 C2794 1.409 . S
C2797 C2795 1.415 . S
C2798 H2788 0.930 . S
C2798 C2796 1.419 . S
C2798 C2799 1.362 . S
C2799 H2789 0.930 . S
C2799 C2792 1.409 . S
C2799 C2798 1.362 . S
H2800 C2806 0.930 . S
H2801 C2809 0.930 . S
H2802 C2810 0.930 . S
H2803 C2811 0.930 . S
H2804 C2814 0.930 . S
H2805 C2815 0.930 . S
C2806 H2800 0.930 . S
C2806 C2807 1.355 . S
C2806 C2808 1.415 . S
C2807 C2806 1.355 . S
C2807 C2809 1.419 . S
C2808 C2806 1.415 . S
C2808 C2813 1.425 . S
C2808 C2815 1.409 . S
C2809 H2801 0.930 . S
C2809 C2807 1.419 . S
C2809 C2810 1.362 . S
C2810 H2802 0.930 . S
C2810 C2809 1.362 . S
C2810 C2813 1.409 . S
C2811 H2803 0.930 . S
C2811 C2812 1.355 . S
C2811 C2813 1.415 . S
C2812 C2811 1.355 . S
C2812 C2814 1.419 . S
C2813 C2808 1.425 . S
C2813 C2810 1.409 . S
C2813 C2811 1.415 . S
C2814 H2804 0.930 . S
C2814 C2812 1.419 . S
C2814 C2815 1.362 . S
C2815 H2805 0.930 . S
C2815 C2808 1.409 . S
C2815 C2814 1.362 . S
C1287 C6 1.064 . S
C1292 C139 1.012 . S
C1303 C19 1.038 . S
C1308 C46 1.022 1_545 S
C1319 C86 1.065 . S
C1324 C59 0.999 . S
C1335 C99 1.075 . S
C1340 C126 1.021 1_565 S
C1351 C219 1.057 . S
C1356 C166 1.057 . S
C1367 C206 1.029 1_545 S
C1372 C259 0.967 . S
C1383 C299 1.063 . S
C1388 C246 1.052 . S
C1399 C179 1.067 . S
C1404 C286 1.021 1_565 S
C1415 C335 1.053 . S
C1420 C450 1.073 . S
C1431 C375 1.025 1_565 S
C1436 C330 1.008 . S
C1447 C415 1.069 . S
C1452 C370 0.960 . S
C1463 C455 1.022 1_545 S
C1468 C410 1.047 . S
C1479 C495 1.051 . S
C1484 C530 1.076 . S
C1495 C535 1.023 1_565 S
C1500 C570 1.034 . S
C1511 C610 1.062 . S
C1516 C575 1.052 . S
C1527 C490 1.074 . S
C1532 C615 1.021 1_545 S
C1543 C646 1.052 . S
C1548 C779 1.076 . S
C1559 C659 1.070 . S
C1564 C686 1.054 . S
C1575 C699 0.993 . S
C1580 C726 1.066 . S
C1591 C766 1.069 . S
C1596 C739 0.962 . S
C1607 C806 1.068 . S
C1612 C859 0.968 . S
C1623 C899 1.065 . S
C1628 C846 1.051 . S
C1639 C886 1.052 . S
C1644 C939 1.076 . S
C1655 C819 0.963 . S
C1660 C926 1.069 . S
C1671 C1090 0.980 . S
C1676 C975 1.067 . S
C1687 C970 1.056 . S
C1692 C1015 1.057 . S
C1703 C1055 1.068 . S
C1708 C1010 0.959 . S
C1719 C1050 0.989 . S
C1724 C1095 1.066 . S
C1735 C1170 1.033 . S
C1740 C1135 1.061 . S
C1751 C1210 1.015 . S
C1756 C1175 1.058 . S
C1767 C1250 1.073 . S
C1772 C1215 1.051 . S
C1783 C1255 1.068 . S
C1788 C1130 0.972 . S
C1799 C1086 1.615 . S
C1804 C9 1.537 . S
C1815 C49 1.558 . S
C1820 C326 1.600 1_455 S
C1831 C89 1.526 . S
C1836 C1006 1.610 . S
C1847 C129 1.498 . S
C1852 C406 1.587 . S
C1863 C169 1.578 . S
C1868 C1166 1.617 . S
C1879 C566 1.626 . S
C1884 C209 1.571 . S
C1895 C1246 1.584 . S
C1900 C249 1.524 . S
C1911 C289 1.525 . S
C1916 C486 1.584 1_455 S
C1927 C338 1.500 . S
C1932 C775 1.591 . S
C1943 C15 1.591 1_655 S
C1948 C378 1.542 . S
C1959 C695 1.625 . S
C1964 C418 1.576 . S
C1975 C95 1.582 . S
C1980 C458 1.498 . S
C1991 C855 1.604 . S
C1996 C498 1.565 . S
C2007 C255 1.596 . S
C2012 C538 1.506 . S
C2023 C578 1.518 . S
C2028 C935 1.582 . S
C2039 C618 1.554 . S
C2044 C175 1.598 1_655 S
C2055 C649 1.571 . S
C2060 C446 1.625 . S
C2071 C689 1.499 . S
C2076 C966 1.589 . S
C2087 C729 1.505 . S
C2092 C366 1.595 . S
C2103 C769 1.509 . S
C2108 C1046 1.599 1_655 S
C2119 C809 1.561 . S
C2124 C526 1.624 . S
C2135 C849 1.573 . S
C2140 C1206 1.612 1_655 S
C2151 C606 1.597 . S
C2156 C889 1.508 . S
C2167 C929 1.552 . S
C2172 C1126 1.597 . S
C2183 C135 1.582 . S
C2188 C978 1.498 . S
C2199 C655 1.591 . S
C2204 C1018 1.542 . S
C2215 C55 1.612 . S
C2220 C1058 1.573 . S
C2231 C735 1.588 1_455 S
C2236 C1098 1.498 . S
C2247 C215 1.583 . S
C2252 C1138 1.497 . S
C2263 C1178 1.536 . S
C2268 C895 1.589 1_455 S
C2279 C1218 1.579 . S
C2284 C295 1.624 . S
C2295 C815 1.608 . S
C2300 C1258 1.569 . S
C2311 C18 0.985 . S
C2316 C178 0.981 . S
C2327 C58 0.998 . S
C2332 C218 0.938 . S
C2343 C98 0.930 . S
C2348 C258 0.872 . S
C2359 C298 0.986 1_554 S
C2364 C138 0.979 1_556 S
C2375 C489 0.998 . S
C2380 C329 0.939 . S
C2391 C529 0.982 . S
C2396 C369 0.984 . S
C2407 C409 0.998 . S
C2412 C569 0.951 . S
C2423 C449 0.996 1_554 S
C2428 C609 0.961 1_556 S
C2439 C658 0.908 . S
C2444 C818 0.990 . S
C2455 C858 0.891 . S
C2460 C698 0.892 . S
C2471 C898 0.977 . S
C2476 C738 0.988 . S
C2487 C938 0.995 . S
C2492 C778 0.962 . S
C2503 C1129 0.908 . S
C2508 C969 0.877 . S
C2519 C1009 0.952 1_554 S
C2524 C1169 0.998 1_556 S
C2535 C1209 0.945 . S
C2540 C1049 0.873 . S
C2551 C1089 0.890 . S
C2556 C1249 0.889 . S
C2567 C290 2.691 . S
C2572 C10 2.695 . S
C2583 C50 2.699 . S
C2588 C170 2.694 . S
C2599 C90 2.701 . S
C2604 C210 2.701 . S
C2615 C250 2.691 . S
C2620 C130 2.690 . S
C2631 C339 2.692 . S
C2636 C619 2.697 . S
C2647 C499 2.698 . S
C2652 C379 2.701 . S
C2663 C539 2.691 . S
C2668 C419 2.690 . S
C2679 C459 2.693 . S
C2684 C579 2.697 . S
C2695 C650 2.699 . S
C2700 C930 2.702 . S
C2711 C810 2.690 . S
C2716 C690 2.690 . S
C2727 C850 2.701 . S
C2732 C730 2.696 . S
C2743 C890 2.701 . S
C2748 C770 2.701 . S
C2759 C979 2.700 . S
C2764 C1259 2.702 . S
C2775 C1139 2.697 . S
C2780 C1019 2.692 . S
C2791 C1059 2.701 . S
C2796 C1179 2.701 . S
C2807 C1219 2.696 . S
C2812 C1099 2.691 . S
