# Generated by pormake.
# Topology zfa, (5)-cn, num edge types: 1
# Building blocks:
#     Node 0, Type 0, BuildingBlock: BEQFEK_clean_sbu_0, # of connection points: 5
#     Node 1, Type 0, BuildingBlock: BEQFEK_clean_sbu_0, # of connection points: 5
#     Node 2, Type 0, BuildingBlock: BEQFEK_clean_sbu_0, # of connection points: 5
#     Node 3, Type 0, BuildingBlock: BEQFEK_clean_sbu_0, # of connection points: 5
#     Node 4, Type 0, BuildingBlock: BEQFEK_clean_sbu_0, # of connection points: 5
#     Node 5, Type 0, BuildingBlock: BEQFEK_clean_sbu_0, # of connection points: 5
#     Node 6, Type 0, BuildingBlock: BEQFEK_clean_sbu_0, # of connection points: 5
#     Node 7, Type 0, BuildingBlock: BEQFEK_clean_sbu_0, # of connection points: 5
#     Edge 8, Type (0, 0), None
#     Edge 9, Type (0, 0), None
#     Edge 10, Type (0, 0), None
#     Edge 11, Type (0, 0), None
#     Edge 12, Type (0, 0), None
#     Edge 13, Type (0, 0), None
#     Edge 14, Type (0, 0), None
#     Edge 15, Type (0, 0), None
#     Edge 16, Type (0, 0), None
#     Edge 17, Type (0, 0), None
#     Edge 18, Type (0, 0), None
#     Edge 19, Type (0, 0), None
#     Edge 20, Type (0, 0), None
#     Edge 21, Type (0, 0), None
#     Edge 22, Type (0, 0), None
#     Edge 23, Type (0, 0), None
#     Edge 24, Type (0, 0), None
#     Edge 25, Type (0, 0), None
#     Edge 26, Type (0, 0), None
#     Edge 27, Type (0, 0), None
# Relax obj value: 0.728
# Max RMSD: 0.239
# Mean RMSD: 0.239
data_MOF--net-zfa--node1-BEQFEK_clean_sbu_0--edge1-none
_symmetry_space_group_name_H-M    P1
_symmetry_Int_Tables_number       1
_symmetry_cell_setting            triclinic
loop_
_symmetry_equiv_pos_as_xyz
'x, y, z'
_cell_length_a     15.340741
_cell_length_b     15.340742
_cell_length_c     16.354255
_cell_angle_alpha  89.979966
_cell_angle_beta   90.00895
_cell_angle_gamma 89.998386
loop_
_atom_site_label
_atom_site_type_symbol
_atom_site_fract_x
_atom_site_fract_y
_atom_site_fract_z
_atom_type_partial_charge
Co0 Co 0.24327 0.24053 0.27017 0.0
Co1 Co 0.25767 0.40802 0.35222 0.0
C2 C 0.24783 0.27959 0.46078 0.0
O3 O 0.25522 0.23276 0.39631 0.0
O4 O 0.2425 0.3613 0.45617 0.0
C5 C 0.11335 0.12564 0.2839 0.0
O6 O 0.09255 0.18785 0.33522 0.0
C7 C 0.19274 0.55338 0.39609 0.0
C8 C 0.18192 0.58546 0.26497 0.0
C9 C 0.1346 0.58255 0.33718 0.0
N10 N 0.26517 0.52878 0.35729 0.0
N11 N 0.26255 0.55748 0.28137 0.0
C12 C 0.1873 0.55312 0.48759 0.0
H13 H 0.12866 0.51995 0.51047 0.0
H14 H 0.1877 0.62119 0.51019 0.0
H15 H 0.24515 0.52028 0.5141 0.0
C16 C 1.07812 0.3127 0.19963 0.0
N17 N 0.15795 0.32575 0.23403 0.0
N18 N 0.1493 0.37944 0.29516 0.0
C19 C 1.0625 0.39029 0.31014 0.0
C20 C 1.01386 0.35504 0.24619 0.0
C21 C 1.06216 0.25178 0.12974 0.0
H22 H 0.12451 0.22474 0.10642 0.0
H23 H 1.01872 0.19793 0.14942 0.0
H24 H 1.02814 0.28707 0.07989 0.0
O25 O 0.36785 0.25924 0.22943 0.0
O26 O 0.37943 0.37286 0.3108 0.0
H27 H 0.9707 0.44185 0.39783 0.0
H28 H 0.99992 0.3313 0.41263 0.0
C29 C 1.02626 0.39605 0.39497 0.0
H30 H 1.0774 0.41271 0.43936 0.0
H31 H 0.30826 0.54087 0.23676 0.0
O32 O 0.18602 0.12859 0.24596 0.0
C33 C 0.41534 0.31779 0.26313 0.0
Co34 Co 0.43298 0.74326 0.77021 0.0
Co35 Co 0.26555 0.7576 0.85239 0.0
C36 C 0.39402 0.74777 0.96085 0.0
O37 O 0.44079 0.75521 0.89634 0.0
O38 O 0.3123 0.74237 0.95632 0.0
C39 C 0.5479 0.61336 0.78391 0.0
O40 O 0.48571 0.59254 0.83526 0.0
C41 C 0.12018 0.69263 0.89624 0.0
C42 C 0.08812 0.68205 0.76511 0.0
C43 C 0.09102 0.63459 0.83726 0.0
N44 N 0.14479 0.76512 0.85752 0.0
N45 N 0.1161 0.76265 0.78161 0.0
C46 C 0.12038 0.68703 0.98773 0.0
H47 H 0.15352 0.62835 0.01056 0.0
H48 H 1.05229 0.68741 0.0103 0.0
H49 H 0.15321 0.74483 0.01431 0.0
C50 C 0.36081 0.57813 0.69973 0.0
N51 N 0.34777 0.65794 0.73415 0.0
N52 N 0.2941 0.64925 0.79531 0.0
C53 C 0.28325 0.56245 0.81028 0.0
C54 C 0.31847 0.51384 0.74631 0.0
C55 C 0.42174 0.56221 0.62985 0.0
H56 H 0.44875 0.62457 0.60649 0.0
H57 H 0.47562 0.51879 0.64955 0.0
H58 H 0.3865 0.52815 0.58002 0.0
O59 O 0.41424 0.86785 0.72946 0.0
O60 O 0.3007 0.87939 0.81095 0.0
H61 H 0.23167 0.47062 0.89798 0.0
H62 H 0.34224 0.49975 0.91273 0.0
C63 C 0.2775 0.52615 0.89511 0.0
H64 H 0.2609 0.57728 0.93952 0.0
H65 H 0.1327 0.80845 0.73705 0.0
O66 O 0.54493 0.68604 0.74596 0.0
C67 C 0.35573 0.91532 0.76322 0.0
Co68 Co 0.93048 0.93299 0.27014 0.0
Co69 Co 0.91617 0.76554 0.35242 0.0
C70 C 0.92583 0.89404 0.4608 0.0
O71 O 0.91843 0.9408 0.39625 0.0
O72 O 0.93127 0.81233 0.45633 0.0
C73 C 1.06034 1.04791 0.28391 0.0
O74 O 1.0811 0.98572 0.3353 0.0
C75 C 0.9813 0.62027 0.39629 0.0
C76 C 0.99189 0.58835 0.26514 0.0
C77 C 1.03939 0.59139 0.33724 0.0
N78 N 0.90873 0.64476 0.35762 0.0
N79 N 0.91122 0.6161 0.2817 0.0
C80 C 0.98697 0.62046 0.48778 0.0
H81 H 1.04567 0.6536 0.51054 0.0
H82 H 0.98662 0.55237 0.51036 0.0
H83 H 0.92917 0.65326 0.5144 0.0
C84 C 0.09566 0.86089 0.19974 0.0
N85 N 1.01585 0.84781 0.23415 0.0
N86 N 1.02455 0.7942 0.29538 0.0
C87 C 0.11136 0.78344 0.3104 0.0
C88 C 0.15996 0.81863 0.24639 0.0
C89 C 0.11157 0.92177 0.12979 0.0
H90 H 1.0492 0.94871 0.10639 0.0
H91 H 0.15494 0.97569 0.14944 0.0
H92 H 0.14568 0.8865 0.08001 0.0
O93 O 0.80594 0.91418 0.22933 0.0
O94 O 0.7944 0.80064 0.31089 0.0
H95 H 0.20308 0.73187 0.39819 0.0
H96 H 0.1741 0.8425 0.41274 0.0
C97 C 0.14762 0.77778 0.39523 0.0
H98 H 0.09645 0.76132 0.43967 0.0
H99 H 0.86533 0.63258 0.23719 0.0
O100 O 0.9877 1.04495 0.24588 0.0
C101 C 0.75847 0.85565 0.26311 0.0
Co102 Co 0.74055 0.43048 0.77009 0.0
Co103 Co 0.90804 0.4161 0.85227 0.0
C104 C 0.77956 0.42579 0.96073 0.0
O105 O 0.73276 0.41842 0.89622 0.0
O106 O 0.86128 0.43115 0.95619 0.0
C107 C 0.62564 0.56035 0.78388 0.0
O108 O 0.68784 0.5811 0.83524 0.0
C109 C 1.0533 0.48118 0.89618 0.0
C110 C 1.08524 0.49202 0.76504 0.0
C111 C 1.08219 0.53939 0.83721 0.0
N112 N 1.02882 0.40868 0.85743 0.0
N113 N 1.05748 0.41132 0.78151 0.0
C114 C 1.05303 0.48671 0.98767 0.0
H115 H 1.01987 0.54537 0.01047 0.0
H116 H 0.1211 0.48632 0.0103 0.0
H117 H 1.02021 0.42887 0.01423 0.0
C118 C 0.81265 0.59567 0.69965 0.0
N119 N 0.82573 0.51584 0.73404 0.0
N120 N 0.87935 0.5245 0.79525 0.0
C121 C 0.89011 0.6113 0.81028 0.0
C122 C 0.8549 0.65994 0.74628 0.0
C123 C 0.75179 0.61163 0.62969 0.0
H124 H 0.72482 0.54927 0.60631 0.0
H125 H 0.69788 0.65502 0.64931 0.0
H126 H 0.7871 0.6457 0.57989 0.0
O127 O 0.75933 0.30594 0.72931 0.0
O128 O 0.87294 0.29435 0.81076 0.0
H129 H 0.94163 0.703 0.89808 0.0
H130 H 0.83102 0.67393 0.91265 0.0
C131 C 0.89577 0.6475 0.89512 0.0
H132 H 0.91228 0.59632 0.93954 0.0
H133 H 1.04101 0.36552 0.73694 0.0
O134 O 0.62859 0.48772 0.74587 0.0
C135 C 0.81789 0.25845 0.76303 0.0
Co136 Co 0.74326 0.433 0.22863 0.0
Co137 Co 0.75764 0.26552 0.14656 0.0
C138 C 0.74768 0.39395 0.03804 0.0
O139 O 0.75516 0.44079 0.1025 0.0
O140 O 0.7424 0.31223 0.04261 0.0
C141 C 0.61337 0.54793 0.21494 0.0
O142 O 0.59254 0.48575 0.1636 0.0
C143 C 0.69269 0.12016 0.10274 0.0
C144 C 0.682 0.08812 0.23388 0.0
C145 C 0.6346 0.09101 0.1617 0.0
N146 N 0.76515 0.14476 0.14149 0.0
N147 N 0.76262 0.11608 0.21742 0.0
C148 C 0.68717 0.12033 0.01125 0.0
H149 H 0.62854 0.15351 0.98836 0.0
H150 H 0.68751 1.05223 0.98871 0.0
H151 H 0.74503 0.15311 0.98469 0.0
C152 C 0.57813 0.36087 0.29915 0.0
N153 N 0.65795 0.34779 0.26476 0.0
N154 N 0.64928 0.29411 0.20363 0.0
C155 C 0.56248 0.28328 0.18862 0.0
C156 C 0.51385 0.31858 0.25254 0.0
C157 C 0.56219 0.42179 0.36902 0.0
H158 H 0.62454 0.44879 0.39239 0.0
H159 H 0.51878 0.47567 0.34931 0.0
H160 H 0.52811 0.38654 0.41885 0.0
O161 O 0.86785 0.41429 0.26937 0.0
O162 O 0.87943 0.3007 0.18795 0.0
H163 H 0.47065 0.23172 0.10095 0.0
H164 H 0.49992 0.34225 0.0861 0.0
C165 C 0.52623 0.2775 0.1038 0.0
H166 H 0.57736 0.2608 0.05942 0.0
H167 H 0.80838 0.13269 0.262 0.0
O168 O 0.68605 0.54495 0.25288 0.0
C169 C 0.91534 0.35577 0.23564 0.0
Co170 Co 0.24051 0.24324 0.72871 0.0
Co171 Co 0.40803 0.25769 0.64668 0.0
C172 C 0.27964 0.24775 0.53812 0.0
O173 O 0.23276 0.25518 0.60256 0.0
O174 O 0.36136 0.24251 0.54273 0.0
C175 C 0.12563 0.11332 0.71496 0.0
O176 O 0.18786 0.09255 0.66364 0.0
C177 C 0.5534 0.19276 0.60284 0.0
C178 C 0.58542 0.18191 0.73396 0.0
C179 C 0.58253 0.1346 0.66176 0.0
N180 N 0.52879 0.26519 0.64163 0.0
N181 N 0.55746 0.26255 0.71756 0.0
C182 C 0.55321 0.18735 0.51133 0.0
H183 H 0.52001 0.12875 0.48843 0.0
H184 H 0.6213 0.1877 0.48877 0.0
H185 H 0.52043 0.24524 0.48482 0.0
C186 C 0.31265 1.07809 0.79925 0.0
N187 N 0.32573 0.15793 0.76487 0.0
N188 N 0.37942 0.14929 0.70373 0.0
C189 C 0.39025 1.0625 0.68872 0.0
C190 C 0.35493 1.01383 0.75264 0.0
C191 C 0.25174 1.06212 0.86915 0.0
H192 H 0.22471 0.12446 0.89249 0.0
H193 H 0.19788 1.01868 0.84949 0.0
H194 H 0.28704 1.02808 0.91899 0.0
O195 O 0.25919 0.36782 0.76944 0.0
O196 O 0.37284 0.37945 0.68808 0.0
H197 H 0.44182 0.97072 0.60104 0.0
H198 H 0.3313 1.00002 0.58619 0.0
C199 C 0.39605 1.0263 0.60389 0.0
H200 H 0.41277 1.07746 0.55952 0.0
H201 H 0.54084 0.30826 0.76216 0.0
O202 O 0.12857 0.18598 0.75291 0.0
C203 C 0.31774 0.41533 0.73575 0.0
Co204 Co 0.4305 0.74057 0.22876 0.0
Co205 Co 0.41613 0.90807 0.14657 0.0
C206 C 0.42591 0.77962 0.03814 0.0
O207 O 0.41847 0.73279 0.10263 0.0
O208 O 0.43122 0.86134 0.04265 0.0
C209 C 0.56036 0.62566 0.21497 0.0
O210 O 0.58111 0.68787 0.1636 0.0
C211 C 0.48122 1.05334 0.1027 0.0
C212 C 0.49198 1.08523 0.23386 0.0
C213 C 0.53939 1.0822 0.16171 0.0
N214 N 0.40869 1.02886 0.14142 0.0
N215 N 0.41128 1.05749 0.21735 0.0
C216 C 0.48678 1.05316 0.01121 0.0
H217 H 0.54543 1.01998 0.98839 0.0
H218 H 0.48646 0.12126 0.98863 0.0
H219 H 0.42893 1.02041 0.98463 0.0
C220 C 0.59568 0.81265 0.29919 0.0
N221 N 0.51585 0.82575 0.26481 0.0
N222 N 0.52452 0.87937 0.20359 0.0
C223 C 0.61133 0.8901 0.18854 0.0
C224 C 0.65997 0.85484 0.2525 0.0
C225 C 0.61162 0.7518 0.36917 0.0
H226 H 0.54926 0.72485 0.39256 0.0
H227 H 0.655 0.69788 0.34956 0.0
H228 H 0.6457 0.78712 0.41895 0.0
O229 O 0.30596 0.75934 0.26955 0.0
O230 O 0.29436 0.87293 0.18807 0.0
H231 H 0.70305 0.94164 0.10075 0.0
H232 H 0.67393 0.83106 0.08613 0.0
C233 C 0.64753 0.8958 0.1037 0.0
H234 H 0.59635 0.91236 0.05929 0.0
H235 H 0.36545 1.04101 0.26189 0.0
O236 O 0.48774 0.62861 0.25299 0.0
C237 C 0.25847 0.81788 0.23581 0.0
Co238 Co 0.93296 0.93047 0.72869 0.0
Co239 Co 0.76549 0.91618 0.64647 0.0
C240 C 0.89396 0.92596 0.53806 0.0
O241 O 0.94076 0.91849 0.60257 0.0
O242 O 0.81224 0.93133 0.54255 0.0
C243 C 1.0479 1.06032 0.71493 0.0
O244 O 0.98573 1.08111 0.66353 0.0
C245 C 0.62022 0.9813 0.60265 0.0
C246 C 0.58833 0.99189 0.73382 0.0
C247 C 0.59136 1.0394 0.6617 0.0
N248 N 0.6447 0.90873 0.64132 0.0
N249 N 0.61607 0.91122 0.71725 0.0
C250 C 0.62036 0.98695 0.51116 0.0
H251 H 0.65354 1.04562 0.48835 0.0
H252 H 0.55226 0.98666 0.48862 0.0
H253 H 0.6531 0.92912 0.48454 0.0
C254 C 0.86089 0.09564 0.7991 0.0
N255 N 0.84778 1.01583 0.76471 0.0
N256 N 0.79417 1.02454 0.7035 0.0
C257 C 0.78344 0.11135 0.68846 0.0
C258 C 0.81869 0.15995 0.75242 0.0
C259 C 0.92176 0.11154 0.86904 0.0
H260 H 0.94869 1.04916 0.89246 0.0
H261 H 0.9757 0.15489 0.84939 0.0
H262 H 0.8865 0.14565 0.91882 0.0
O263 O 0.91417 0.80592 0.76948 0.0
O264 O 0.80063 0.79438 0.68796 0.0
H265 H 0.73188 0.20312 0.60069 0.0
H266 H 0.84248 0.17403 0.58605 0.0
C267 C 0.77774 0.14761 0.60362 0.0
H268 H 0.76119 0.09646 0.55921 0.0
H269 H 0.63255 0.86533 0.76177 0.0
O270 O 1.04492 0.98767 0.75294 0.0
C271 C 0.85565 0.75846 0.73572 0.0
loop_
_geom_bond_atom_site_label_1
_geom_bond_atom_site_label_2
_geom_bond_distance
_geom_bond_site_symmetry_2
_ccdc_geom_bond_type
Co0 O3 1.970 . S
Co0 N17 1.989 1_455 S
Co0 O25 1.967 . S
Co0 O32 1.920 . S
Co1 O4 1.966 . S
Co1 N10 2.022 . S
Co1 N18 1.993 1_455 S
Co1 O26 1.941 . S
C2 O3 1.258 . S
C2 O4 1.263 . S
O3 Co0 1.970 . S
O3 C2 1.258 . S
O4 Co1 1.966 . S
O4 C2 1.263 . S
C5 O6 1.235 1_465 S
C5 O32 1.289 1_565 S
O6 C5 1.235 1_645 S
C7 C9 1.400 . S
C7 N10 1.351 . S
C7 C12 1.501 . S
C8 C9 1.387 . S
C8 N11 1.341 . S
C9 C7 1.400 . S
C9 C8 1.387 . S
N10 Co1 2.022 . S
N10 C7 1.351 . S
N10 N11 1.365 . S
N11 C8 1.341 . S
N11 N10 1.365 . S
N11 H31 0.862 . S
C12 C7 1.501 . S
C12 H13 0.961 . S
C12 H14 0.961 . S
C12 H15 0.960 . S
H13 C12 0.961 . S
H14 C12 0.961 . S
H15 C12 0.960 . S
C16 N17 1.342 . S
C16 C20 1.401 . S
C16 C21 1.499 . S
N17 Co0 1.989 1_655 S
N17 C16 1.342 . S
N17 N18 1.388 . S
N18 Co1 1.993 1_655 S
N18 N17 1.388 . S
N18 C19 1.346 . S
C19 N18 1.346 . S
C19 C20 1.396 . S
C19 C29 1.510 . S
C20 C16 1.401 . S
C20 C19 1.396 . S
C21 C16 1.499 . S
C21 H22 0.959 . S
C21 H23 0.960 . S
C21 H24 0.961 . S
H22 C21 0.959 . S
H23 C21 0.960 . S
H24 C21 0.961 . S
O25 Co0 1.967 . S
O25 C33 1.258 . S
O26 Co1 1.941 . S
O26 C33 1.266 . S
H27 C29 0.959 . S
H28 C29 0.961 . S
C29 C19 1.510 . S
C29 H27 0.959 . S
C29 H28 0.961 . S
C29 H30 0.960 . S
H30 C29 0.960 . S
H31 N11 0.862 . S
O32 Co0 1.920 . S
O32 C5 1.289 1_545 S
C33 O25 1.258 . S
C33 O26 1.266 . S
Co34 O37 1.970 . S
Co34 N51 1.989 . S
Co34 O59 1.967 . S
Co34 O66 1.920 . S
Co35 O38 1.966 . S
Co35 N44 2.022 . S
Co35 N52 1.993 . S
Co35 O60 1.941 . S
C36 O37 1.258 . S
C36 O38 1.263 . S
O37 Co34 1.970 . S
O37 C36 1.258 . S
O38 Co35 1.966 . S
O38 C36 1.263 . S
C39 O40 1.235 . S
C39 O66 1.289 . S
O40 C39 1.235 . S
C41 C43 1.400 1_455 S
C41 N44 1.351 . S
C41 C46 1.501 1_556 S
C42 C43 1.387 . S
C42 N45 1.341 1_655 S
C43 C41 1.400 1_655 S
C43 C42 1.387 . S
N44 Co35 2.022 . S
N44 C41 1.351 . S
N44 N45 1.365 . S
N45 C42 1.341 1_455 S
N45 N44 1.365 . S
N45 H65 0.862 . S
C46 C41 1.501 1_554 S
C46 H47 0.960 1_554 S
C46 H48 0.961 . S
C46 H49 0.960 . S
H47 C46 0.960 1_556 S
H48 C46 0.961 . S
H49 C46 0.960 . S
C50 N51 1.342 . S
C50 C54 1.401 . S
C50 C55 1.499 . S
N51 Co34 1.989 . S
N51 C50 1.342 . S
N51 N52 1.388 . S
N52 Co35 1.993 . S
N52 N51 1.388 . S
N52 C53 1.346 . S
C53 N52 1.346 . S
C53 C54 1.396 . S
C53 C63 1.510 . S
C54 C50 1.401 . S
C54 C53 1.396 . S
C55 C50 1.499 . S
C55 H56 0.959 . S
C55 H57 0.960 . S
C55 H58 0.961 . S
H56 C55 0.959 . S
H57 C55 0.960 . S
H58 C55 0.961 . S
O59 Co34 1.967 . S
O59 C67 1.258 . S
O60 Co35 1.941 . S
O60 C67 1.266 . S
H61 C63 0.959 . S
H62 C63 0.961 . S
C63 C53 1.510 . S
C63 H61 0.959 . S
C63 H62 0.961 . S
C63 H64 0.960 . S
H64 C63 0.960 . S
H65 N45 0.862 . S
O66 Co34 1.920 . S
O66 C39 1.289 . S
C67 O59 1.258 . S
C67 O60 1.266 . S
Co68 O71 1.970 . S
Co68 N85 1.989 1_655 S
Co68 O93 1.967 . S
Co68 O100 1.920 . S
Co69 O72 1.966 . S
Co69 N78 2.022 . S
Co69 N86 1.993 1_655 S
Co69 O94 1.941 . S
C70 O71 1.258 . S
C70 O72 1.263 . S
O71 Co68 1.970 . S
O71 C70 1.258 . S
O72 Co69 1.966 . S
O72 C70 1.263 . S
C73 O74 1.235 1_645 S
C73 O100 1.289 1_545 S
O74 C73 1.235 1_465 S
C75 C77 1.400 . S
C75 N78 1.351 . S
C75 C80 1.501 . S
C76 C77 1.387 . S
C76 N79 1.341 . S
C77 C75 1.400 . S
C77 C76 1.387 . S
N78 Co69 2.022 . S
N78 C75 1.351 . S
N78 N79 1.365 . S
N79 C76 1.341 . S
N79 N78 1.365 . S
N79 H99 0.862 . S
C80 C75 1.501 . S
C80 H81 0.961 . S
C80 H82 0.961 . S
C80 H83 0.960 . S
H81 C80 0.961 . S
H82 C80 0.961 . S
H83 C80 0.960 . S
C84 N85 1.342 . S
C84 C88 1.401 . S
C84 C89 1.499 . S
N85 Co68 1.989 1_455 S
N85 C84 1.342 . S
N85 N86 1.388 . S
N86 Co69 1.993 1_455 S
N86 N85 1.388 . S
N86 C87 1.346 . S
C87 N86 1.346 . S
C87 C88 1.396 . S
C87 C97 1.510 . S
C88 C84 1.401 . S
C88 C87 1.396 . S
C89 C84 1.499 . S
C89 H90 0.959 . S
C89 H91 0.960 . S
C89 H92 0.961 . S
H90 C89 0.959 . S
H91 C89 0.960 . S
H92 C89 0.961 . S
O93 Co68 1.967 . S
O93 C101 1.258 . S
O94 Co69 1.941 . S
O94 C101 1.266 . S
H95 C97 0.959 . S
H96 C97 0.961 . S
C97 C87 1.510 . S
C97 H95 0.959 . S
C97 H96 0.961 . S
C97 H98 0.960 . S
H98 C97 0.960 . S
H99 N79 0.862 . S
O100 Co68 1.920 . S
O100 C73 1.289 1_565 S
C101 O93 1.258 . S
C101 O94 1.266 . S
Co102 O105 1.970 . S
Co102 N119 1.989 . S
Co102 O127 1.967 . S
Co102 O134 1.920 . S
Co103 O106 1.966 . S
Co103 N112 2.022 . S
Co103 N120 1.993 . S
Co103 O128 1.941 . S
C104 O105 1.258 . S
C104 O106 1.263 . S
O105 Co102 1.970 . S
O105 C104 1.258 . S
O106 Co103 1.966 . S
O106 C104 1.263 . S
C107 O108 1.235 . S
C107 O134 1.289 . S
O108 C107 1.235 . S
C109 C111 1.400 1_655 S
C109 N112 1.351 . S
C109 C114 1.501 1_556 S
C110 C111 1.387 . S
C110 N113 1.341 1_455 S
C111 C109 1.400 1_455 S
C111 C110 1.387 . S
N112 Co103 2.022 . S
N112 C109 1.351 . S
N112 N113 1.365 . S
N113 C110 1.341 1_655 S
N113 N112 1.365 . S
N113 H133 0.862 . S
C114 C109 1.501 1_554 S
C114 H115 0.960 1_554 S
C114 H116 0.961 . S
C114 H117 0.960 . S
H115 C114 0.960 1_556 S
H116 C114 0.961 . S
H117 C114 0.960 . S
C118 N119 1.342 . S
C118 C122 1.401 . S
C118 C123 1.499 . S
N119 Co102 1.989 . S
N119 C118 1.342 . S
N119 N120 1.388 . S
N120 Co103 1.993 . S
N120 N119 1.388 . S
N120 C121 1.346 . S
C121 N120 1.346 . S
C121 C122 1.396 . S
C121 C131 1.510 . S
C122 C118 1.401 . S
C122 C121 1.396 . S
C123 C118 1.499 . S
C123 H124 0.959 . S
C123 H125 0.960 . S
C123 H126 0.961 . S
H124 C123 0.959 . S
H125 C123 0.960 . S
H126 C123 0.961 . S
O127 Co102 1.967 . S
O127 C135 1.258 . S
O128 Co103 1.941 . S
O128 C135 1.266 . S
H129 C131 0.959 . S
H130 C131 0.961 . S
C131 C121 1.510 . S
C131 H129 0.959 . S
C131 H130 0.961 . S
C131 H132 0.960 . S
H132 C131 0.960 . S
H133 N113 0.862 . S
O134 Co102 1.920 . S
O134 C107 1.289 . S
C135 O127 1.258 . S
C135 O128 1.266 . S
Co136 O139 1.970 . S
Co136 N153 1.989 . S
Co136 O161 1.967 . S
Co136 O168 1.920 . S
Co137 O140 1.966 . S
Co137 N146 2.022 . S
Co137 N154 1.993 . S
Co137 O162 1.941 . S
C138 O139 1.258 . S
C138 O140 1.263 . S
O139 Co136 1.970 . S
O139 C138 1.258 . S
O140 Co137 1.966 . S
O140 C138 1.263 . S
C141 O142 1.235 . S
C141 O168 1.289 . S
O142 C141 1.235 . S
C143 C145 1.400 1_545 S
C143 N146 1.351 . S
C143 C148 1.501 1_554 S
C144 C145 1.387 . S
C144 N147 1.341 1_565 S
C145 C143 1.400 1_565 S
C145 C144 1.387 . S
N146 Co137 2.022 . S
N146 C143 1.351 . S
N146 N147 1.365 . S
N147 C144 1.341 1_545 S
N147 N146 1.365 . S
N147 H167 0.862 . S
C148 C143 1.501 1_556 S
C148 H149 0.960 1_556 S
C148 H150 0.961 . S
C148 H151 0.960 . S
H149 C148 0.960 1_554 S
H150 C148 0.961 . S
H151 C148 0.960 . S
C152 N153 1.342 . S
C152 C156 1.401 . S
C152 C157 1.499 . S
N153 Co136 1.989 . S
N153 C152 1.342 . S
N153 N154 1.388 . S
N154 Co137 1.993 . S
N154 N153 1.388 . S
N154 C155 1.346 . S
C155 N154 1.346 . S
C155 C156 1.396 . S
C155 C165 1.510 . S
C156 C152 1.401 . S
C156 C155 1.396 . S
C157 C152 1.499 . S
C157 H158 0.959 . S
C157 H159 0.960 . S
C157 H160 0.961 . S
H158 C157 0.959 . S
H159 C157 0.960 . S
H160 C157 0.961 . S
O161 Co136 1.967 . S
O161 C169 1.258 . S
O162 Co137 1.941 . S
O162 C169 1.266 . S
H163 C165 0.959 . S
H164 C165 0.961 . S
C165 C155 1.510 . S
C165 H163 0.959 . S
C165 H164 0.961 . S
C165 H166 0.960 . S
H166 C165 0.960 . S
H167 N147 0.862 . S
O168 Co136 1.920 . S
O168 C141 1.289 . S
C169 O161 1.258 . S
C169 O162 1.266 . S
Co170 O173 1.970 . S
Co170 N187 1.989 1_545 S
Co170 O195 1.967 . S
Co170 O202 1.920 . S
Co171 O174 1.966 . S
Co171 N180 2.022 . S
Co171 N188 1.993 1_545 S
Co171 O196 1.941 . S
C172 O173 1.258 . S
C172 O174 1.263 . S
O173 Co170 1.970 . S
O173 C172 1.258 . S
O174 Co171 1.966 . S
O174 C172 1.263 . S
C175 O176 1.235 1_645 S
C175 O202 1.289 1_655 S
O176 C175 1.235 1_465 S
C177 C179 1.400 . S
C177 N180 1.351 . S
C177 C182 1.501 . S
C178 C179 1.387 . S
C178 N181 1.341 . S
C179 C177 1.400 . S
C179 C178 1.387 . S
N180 Co171 2.022 . S
N180 C177 1.351 . S
N180 N181 1.365 . S
N181 C178 1.341 . S
N181 N180 1.365 . S
N181 H201 0.862 . S
C182 C177 1.501 . S
C182 H183 0.961 . S
C182 H184 0.961 . S
C182 H185 0.960 . S
H183 C182 0.961 . S
H184 C182 0.961 . S
H185 C182 0.960 . S
C186 N187 1.342 . S
C186 C190 1.401 . S
C186 C191 1.499 . S
N187 Co170 1.989 1_565 S
N187 C186 1.342 . S
N187 N188 1.388 . S
N188 Co171 1.993 1_565 S
N188 N187 1.388 . S
N188 C189 1.346 . S
C189 N188 1.346 . S
C189 C190 1.396 . S
C189 C199 1.510 . S
C190 C186 1.401 . S
C190 C189 1.396 . S
C191 C186 1.499 . S
C191 H192 0.959 . S
C191 H193 0.960 . S
C191 H194 0.961 . S
H192 C191 0.959 . S
H193 C191 0.960 . S
H194 C191 0.961 . S
O195 Co170 1.967 . S
O195 C203 1.258 . S
O196 Co171 1.941 . S
O196 C203 1.266 . S
H197 C199 0.959 . S
H198 C199 0.961 . S
C199 C189 1.510 . S
C199 H197 0.959 . S
C199 H198 0.961 . S
C199 H200 0.960 . S
H200 C199 0.960 . S
H201 N181 0.862 . S
O202 Co170 1.920 . S
O202 C175 1.289 1_455 S
C203 O195 1.258 . S
C203 O196 1.266 . S
Co204 O207 1.970 . S
Co204 N221 1.989 . S
Co204 O229 1.967 . S
Co204 O236 1.920 . S
Co205 O208 1.966 . S
Co205 N214 2.022 . S
Co205 N222 1.993 . S
Co205 O230 1.941 . S
C206 O207 1.258 . S
C206 O208 1.263 . S
O207 Co204 1.970 . S
O207 C206 1.258 . S
O208 Co205 1.966 . S
O208 C206 1.263 . S
C209 O210 1.235 . S
C209 O236 1.289 . S
O210 C209 1.235 . S
C211 C213 1.400 1_565 S
C211 N214 1.351 . S
C211 C216 1.501 1_554 S
C212 C213 1.387 . S
C212 N215 1.341 1_545 S
C213 C211 1.400 1_545 S
C213 C212 1.387 . S
N214 Co205 2.022 . S
N214 C211 1.351 . S
N214 N215 1.365 . S
N215 C212 1.341 1_565 S
N215 N214 1.365 . S
N215 H235 0.862 . S
C216 C211 1.501 1_556 S
C216 H217 0.960 1_556 S
C216 H218 0.961 . S
C216 H219 0.960 . S
H217 C216 0.960 1_554 S
H218 C216 0.961 . S
H219 C216 0.960 . S
C220 N221 1.342 . S
C220 C224 1.401 . S
C220 C225 1.499 . S
N221 Co204 1.989 . S
N221 C220 1.342 . S
N221 N222 1.388 . S
N222 Co205 1.993 . S
N222 N221 1.388 . S
N222 C223 1.346 . S
C223 N222 1.346 . S
C223 C224 1.396 . S
C223 C233 1.510 . S
C224 C220 1.401 . S
C224 C223 1.396 . S
C225 C220 1.499 . S
C225 H226 0.959 . S
C225 H227 0.960 . S
C225 H228 0.961 . S
H226 C225 0.959 . S
H227 C225 0.960 . S
H228 C225 0.961 . S
O229 Co204 1.967 . S
O229 C237 1.258 . S
O230 Co205 1.941 . S
O230 C237 1.266 . S
H231 C233 0.959 . S
H232 C233 0.961 . S
C233 C223 1.510 . S
C233 H231 0.959 . S
C233 H232 0.961 . S
C233 H234 0.960 . S
H234 C233 0.960 . S
H235 N215 0.862 . S
O236 Co204 1.920 . S
O236 C209 1.289 . S
C237 O229 1.258 . S
C237 O230 1.266 . S
Co238 O241 1.970 . S
Co238 N255 1.989 1_565 S
Co238 O263 1.967 . S
Co238 O270 1.920 . S
Co239 O242 1.966 . S
Co239 N248 2.022 . S
Co239 N256 1.993 1_565 S
Co239 O264 1.941 . S
C240 O241 1.258 . S
C240 O242 1.263 . S
O241 Co238 1.970 . S
O241 C240 1.258 . S
O242 Co239 1.966 . S
O242 C240 1.263 . S
C243 O244 1.235 1_465 S
C243 O270 1.289 1_455 S
O244 C243 1.235 1_645 S
C245 C247 1.400 . S
C245 N248 1.351 . S
C245 C250 1.501 . S
C246 C247 1.387 . S
C246 N249 1.341 . S
C247 C245 1.400 . S
C247 C246 1.387 . S
N248 Co239 2.022 . S
N248 C245 1.351 . S
N248 N249 1.365 . S
N249 C246 1.341 . S
N249 N248 1.365 . S
N249 H269 0.862 . S
C250 C245 1.501 . S
C250 H251 0.961 . S
C250 H252 0.961 . S
C250 H253 0.960 . S
H251 C250 0.961 . S
H252 C250 0.961 . S
H253 C250 0.960 . S
C254 N255 1.342 . S
C254 C258 1.401 . S
C254 C259 1.499 . S
N255 Co238 1.989 1_545 S
N255 C254 1.342 . S
N255 N256 1.388 . S
N256 Co239 1.993 1_545 S
N256 N255 1.388 . S
N256 C257 1.346 . S
C257 N256 1.346 . S
C257 C258 1.396 . S
C257 C267 1.510 . S
C258 C254 1.401 . S
C258 C257 1.396 . S
C259 C254 1.499 . S
C259 H260 0.959 . S
C259 H261 0.960 . S
C259 H262 0.961 . S
H260 C259 0.959 . S
H261 C259 0.960 . S
H262 C259 0.961 . S
O263 Co238 1.967 . S
O263 C271 1.258 . S
O264 Co239 1.941 . S
O264 C271 1.266 . S
H265 C267 0.959 . S
H266 C267 0.961 . S
C267 C257 1.510 . S
C267 H265 0.959 . S
C267 H266 0.961 . S
C267 H268 0.960 . S
H268 C267 0.960 . S
H269 N249 0.862 . S
O270 Co238 1.920 . S
O270 C243 1.289 1_655 S
C271 O263 1.258 . S
C271 O264 1.266 . S
C77 C9 1.802 1_655 S
C111 C43 1.803 1_455 S
C213 C145 1.803 1_545 S
C247 C179 1.802 1_565 S
C156 C33 3.517 . S
C190 C67 3.517 . S
C224 C101 3.517 . S
C135 C258 3.517 . S
C20 C169 3.517 . S
C54 C203 3.517 . S
C88 C237 3.517 . S
C271 C122 3.517 . S
C2 C172 2.047 . S
C206 C36 2.047 1_554 S
C240 C70 2.047 . S
C138 C104 2.047 1_554 S
C73 C5 1.207 1_645 S
C39 C107 1.206 . S
C209 C141 1.206 . S
C175 C243 1.207 1_645 S
