# Generated by pormake.
# Topology umm, (4)-cn, num edge types: 1
# Building blocks:
#     Node 0, Type 0, BuildingBlock: GALJAG_clean_sbu_0, # of connection points: 4
#     Node 1, Type 0, BuildingBlock: GALJAG_clean_sbu_0, # of connection points: 4
#     Node 2, Type 0, BuildingBlock: GALJAG_clean_sbu_0, # of connection points: 4
#     Node 3, Type 0, BuildingBlock: GALJAG_clean_sbu_0, # of connection points: 4
#     Node 4, Type 0, BuildingBlock: GALJAG_clean_sbu_0, # of connection points: 4
#     Node 5, Type 0, BuildingBlock: GALJAG_clean_sbu_0, # of connection points: 4
#     Node 6, Type 0, BuildingBlock: GALJAG_clean_sbu_0, # of connection points: 4
#     Node 7, Type 0, BuildingBlock: GALJAG_clean_sbu_0, # of connection points: 4
#     Node 8, Type 0, BuildingBlock: GALJAG_clean_sbu_0, # of connection points: 4
#     Node 9, Type 0, BuildingBlock: GALJAG_clean_sbu_0, # of connection points: 4
#     Node 10, Type 0, BuildingBlock: GALJAG_clean_sbu_0, # of connection points: 4
#     Node 11, Type 0, BuildingBlock: GALJAG_clean_sbu_0, # of connection points: 4
#     Edge 12, Type (0, 0), BuildingBlock: XUDNAN_clean_linker_2, # of connection points: 2
#     Edge 13, Type (0, 0), BuildingBlock: XUDNAN_clean_linker_2, # of connection points: 2
#     Edge 14, Type (0, 0), BuildingBlock: XUDNAN_clean_linker_2, # of connection points: 2
#     Edge 15, Type (0, 0), BuildingBlock: XUDNAN_clean_linker_2, # of connection points: 2
#     Edge 16, Type (0, 0), BuildingBlock: XUDNAN_clean_linker_2, # of connection points: 2
#     Edge 17, Type (0, 0), BuildingBlock: XUDNAN_clean_linker_2, # of connection points: 2
#     Edge 18, Type (0, 0), BuildingBlock: XUDNAN_clean_linker_2, # of connection points: 2
#     Edge 19, Type (0, 0), BuildingBlock: XUDNAN_clean_linker_2, # of connection points: 2
#     Edge 20, Type (0, 0), BuildingBlock: XUDNAN_clean_linker_2, # of connection points: 2
#     Edge 21, Type (0, 0), BuildingBlock: XUDNAN_clean_linker_2, # of connection points: 2
#     Edge 22, Type (0, 0), BuildingBlock: XUDNAN_clean_linker_2, # of connection points: 2
#     Edge 23, Type (0, 0), BuildingBlock: XUDNAN_clean_linker_2, # of connection points: 2
#     Edge 24, Type (0, 0), BuildingBlock: XUDNAN_clean_linker_2, # of connection points: 2
#     Edge 25, Type (0, 0), BuildingBlock: XUDNAN_clean_linker_2, # of connection points: 2
#     Edge 26, Type (0, 0), BuildingBlock: XUDNAN_clean_linker_2, # of connection points: 2
#     Edge 27, Type (0, 0), BuildingBlock: XUDNAN_clean_linker_2, # of connection points: 2
#     Edge 28, Type (0, 0), BuildingBlock: XUDNAN_clean_linker_2, # of connection points: 2
#     Edge 29, Type (0, 0), BuildingBlock: XUDNAN_clean_linker_2, # of connection points: 2
#     Edge 30, Type (0, 0), BuildingBlock: XUDNAN_clean_linker_2, # of connection points: 2
#     Edge 31, Type (0, 0), BuildingBlock: XUDNAN_clean_linker_2, # of connection points: 2
#     Edge 32, Type (0, 0), BuildingBlock: XUDNAN_clean_linker_2, # of connection points: 2
#     Edge 33, Type (0, 0), BuildingBlock: XUDNAN_clean_linker_2, # of connection points: 2
#     Edge 34, Type (0, 0), BuildingBlock: XUDNAN_clean_linker_2, # of connection points: 2
#     Edge 35, Type (0, 0), BuildingBlock: XUDNAN_clean_linker_2, # of connection points: 2
# Relax obj value: 0.093
# Max RMSD: 0.220
# Mean RMSD: 0.220
data_MOF--net-umm--node1-GALJAG_clean_sbu_0--edge1-XUDNAN_clean_linker_2
_symmetry_space_group_name_H-M    P1
_symmetry_Int_Tables_number       1
_symmetry_cell_setting            triclinic
loop_
_symmetry_equiv_pos_as_xyz
'x, y, z'
_cell_length_a     55.937316
_cell_length_b     55.921103
_cell_length_c     28.452008
_cell_angle_alpha  89.91275
_cell_angle_beta   90.082412
_cell_angle_gamma 119.99923
loop_
_atom_site_label
_atom_site_type_symbol
_atom_site_fract_x
_atom_site_fract_y
_atom_site_fract_z
_atom_type_partial_charge
In0 In 0.40429 0.55095 0.05229 0.0
O1 O 0.42042 0.59005 0.0961 0.0
O2 O 0.40308 0.55112 0.1316 0.0
C3 C 0.40605 0.56258 0.96076 0.0
C4 C 0.44737 0.54254 0.05733 0.0
C5 C 0.34929 0.52647 0.05232 0.0
O6 O 0.41578 0.58154 0.99151 0.0
O7 O 0.39628 0.53829 0.97633 0.0
O8 O 0.36121 0.5122 0.05027 0.0
O9 O 0.3652 0.5522 0.05685 0.0
C10 C 0.41465 0.57713 0.13489 0.0
O11 O 0.42309 0.52314 0.06654 0.0
O12 O 0.44905 0.56493 0.04452 0.0
In13 In 0.83874 0.38823 0.41108 0.0
O14 O 0.8171 0.40008 0.46631 0.0
O15 O 0.83785 0.37844 0.48811 0.0
C16 C 0.82067 0.39241 0.32649 0.0
C17 C 0.88945 0.43313 0.41281 0.0
C18 C 0.81335 0.33341 0.40134 0.0
O19 O 0.81266 0.39913 0.36321 0.0
O20 O 0.83814 0.38472 0.33258 0.0
O21 O 0.83933 0.34814 0.396 0.0
O22 O 0.80128 0.34644 0.41341 0.0
C23 C 0.82366 0.38938 0.49953 0.0
O24 O 0.88619 0.40902 0.41527 0.0
O25 O 0.86745 0.434 0.40906 0.0
In26 In 0.45252 0.84177 0.76987 0.0
O27 O 0.42134 0.81761 0.82699 0.0
O28 O 0.46368 0.83088 0.84041 0.0
C29 C 0.42135 0.83111 0.69271 0.0
C30 C 0.46283 0.89328 0.78759 0.0
C31 C 0.48226 0.82174 0.73 0.0
O32 O 0.41413 0.81404 0.72631 0.0
O33 O 0.44328 0.85373 0.69947 0.0
O34 O 0.49424 0.84547 0.74881 0.0
O35 O 0.45637 0.80856 0.7337 0.0
C36 C 0.43915 0.81851 0.85537 0.0
O37 O 0.48132 0.88876 0.77146 0.0
O38 O 0.43996 0.87193 0.79595 0.0
In39 In 0.62765 0.47729 0.11297 0.0
O40 O 0.61164 0.44431 0.17068 0.0
O41 O 0.64445 0.48446 0.18763 0.0
C42 C 0.60798 0.44895 0.03269 0.0
C43 C 0.59611 0.50128 0.11547 0.0
C44 C 0.68006 0.4978 0.08535 0.0
O45 O 0.60255 0.43678 0.0721 0.0
O46 O 0.62261 0.47488 0.03438 0.0
O47 O 0.67143 0.51349 0.10013 0.0
O48 O 0.6628 0.47227 0.08703 0.0
C49 C 0.6282 0.4602 0.20152 0.0
O50 O 0.62195 0.51506 0.10982 0.0
O51 O 0.58655 0.47581 0.12173 0.0
In52 In 0.1374 0.616 0.42873 0.0
O53 O 0.15314 0.59983 0.48845 0.0
O54 O 0.13971 0.62841 0.50517 0.0
C55 C 0.14819 0.59839 0.34772 0.0
C56 C 0.08207 0.58387 0.4306 0.0
C57 C 0.17221 0.66969 0.41126 0.0
O58 O 0.15373 0.59188 0.38727 0.0
O59 O 0.13742 0.61349 0.34956 0.0
O60 O 0.14636 0.65916 0.4063 0.0
O61 O 0.17995 0.65331 0.42599 0.0
C62 C 0.14941 0.61366 0.51986 0.0
O63 O 0.09373 0.60993 0.42847 0.0
O64 O 0.09832 0.57442 0.43245 0.0
In65 In 0.52788 0.13911 0.7334 0.0
O66 O 0.56861 0.15719 0.77434 0.0
O67 O 0.53128 0.14423 0.81244 0.0
C68 C 0.53991 0.14426 0.641 0.0
C69 C 0.50433 0.08434 0.74677 0.0
C70 C 0.51034 0.1758 0.7306 0.0
O71 O 0.5585 0.15061 0.67187 0.0
O72 O 0.51584 0.13495 0.65696 0.0
O73 O 0.49348 0.15006 0.72887 0.0
O74 O 0.53536 0.18246 0.73556 0.0
C75 C 0.55711 0.1542 0.814 0.0
O76 O 0.49147 0.09717 0.75502 0.0
O77 O 0.52839 0.09904 0.73071 0.0
In78 In 0.48366 0.62893 0.55303 0.0
O79 O 0.45224 0.61217 0.49304 0.0
O80 O 0.49393 0.64211 0.47686 0.0
C81 C 0.4541 0.612 0.63284 0.0
C82 C 0.50679 0.59666 0.55419 0.0
C83 C 0.50274 0.6826 0.57079 0.0
O84 O 0.44263 0.60498 0.59293 0.0
O85 O 0.47999 0.62709 0.63194 0.0
O86 O 0.51815 0.67208 0.57441 0.0
O87 O 0.47845 0.66623 0.55685 0.0
C88 C 0.46966 0.62671 0.46198 0.0
O89 O 0.52117 0.62272 0.5561 0.0
O90 O 0.48117 0.58727 0.55076 0.0
In91 In 0.84435 0.4563 0.91347 0.0
O92 O 0.81795 0.42016 0.86581 0.0
O93 O 0.84302 0.45968 0.83408 0.0
C94 C 0.82588 0.43282 0.99791 0.0
C95 C 0.89519 0.46226 0.90892 0.0
C96 C 0.82447 0.49094 0.92302 0.0
O97 O 0.81668 0.41935 0.9602 0.0
O98 O 0.84459 0.45761 0.99275 0.0
O99 O 0.84947 0.49862 0.93201 0.0
O100 O 0.81066 0.46683 0.90667 0.0
C101 C 0.82595 0.43426 0.82845 0.0
O102 O 0.89153 0.48277 0.90513 0.0
O103 O 0.87349 0.43945 0.9153 0.0
In104 In 0.39458 0.83657 0.26388 0.0
O105 O 0.40773 0.81085 0.22098 0.0
O106 O 0.3848 0.82696 0.1867 0.0
C107 C 0.40301 0.82894 0.35372 0.0
C108 C 0.43817 0.88708 0.24916 0.0
C109 C 0.34053 0.81361 0.28089 0.0
O110 O 0.40156 0.81253 0.32178 0.0
O111 O 0.40167 0.84968 0.33972 0.0
O112 O 0.35445 0.83878 0.2687 0.0
O113 O 0.35353 0.8006 0.28106 0.0
C114 C 0.39718 0.81334 0.18326 0.0
O115 O 0.41367 0.88289 0.24794 0.0
O116 O 0.44015 0.866 0.2578 0.0
In117 In 0.55333 0.402 0.60982 0.0
O118 O 0.59218 0.41522 0.5667 0.0
O119 O 0.55324 0.39686 0.53111 0.0
C120 C 0.56241 0.40629 0.70223 0.0
C121 C 0.54722 0.44624 0.59953 0.0
C122 C 0.52885 0.34747 0.6198 0.0
O123 O 0.58216 0.4143 0.67311 0.0
O124 O 0.53872 0.39743 0.68445 0.0
O125 O 0.51459 0.3588 0.60993 0.0
O126 O 0.55471 0.36346 0.62074 0.0
C127 C 0.5792 0.40784 0.52799 0.0
O128 O 0.52682 0.42198 0.59402 0.0
O129 O 0.56965 0.44746 0.61072 0.0
In130 In 0.14422 0.53432 0.92728 0.0
O131 O 0.10203 0.49609 0.91289 0.0
O132 O 0.10416 0.53461 0.92673 0.0
C133 C 0.18321 0.52023 0.93628 0.0
C134 C 0.15842 0.5628 0.84591 0.0
C135 C 0.1473 0.54577 0.01947 0.0
O136 O 0.15852 0.50227 0.92625 0.0
O137 O 0.188 0.54482 0.9382 0.0
O138 O 0.1542 0.56453 0.98869 0.0
O139 O 0.13816 0.52171 0.00346 0.0
C140 C 0.08921 0.50932 0.9172 0.0
O141 O 0.16039 0.57429 0.88519 0.0
O142 O 0.15016 0.53726 0.84812 0.0
In143 In 0.61166 0.1373 0.23033 0.0
O144 O 0.60797 0.09458 0.22943 0.0
O145 O 0.57149 0.09711 0.22107 0.0
C146 C 0.66347 0.1725 0.25778 0.0
C147 C 0.61122 0.15303 0.14049 0.0
C148 C 0.5906 0.14319 0.31163 0.0
O149 O 0.6562 0.14793 0.24616 0.0
O150 O 0.64513 0.17923 0.25325 0.0
O151 O 0.58576 0.15107 0.27274 0.0
O152 O 0.60537 0.13204 0.30892 0.0
C153 C 0.58204 0.08184 0.22404 0.0
O154 O 0.59483 0.15288 0.17121 0.0
O155 O 0.6279 0.14577 0.15537 0.0
H156 H 0.39701 0.55411 0.22176 0.0
H157 H 0.45116 0.63168 0.15165 0.0
H158 H 0.46897 0.65385 0.22881 0.0
H159 H 0.38153 0.58475 0.3246 0.0
H160 H 0.38103 0.55937 0.36435 0.0
H161 H 0.3709 0.55041 0.30387 0.0
H162 H 0.40728 0.53495 0.29486 0.0
H163 H 0.41767 0.54405 0.35508 0.0
H164 H 0.4429 0.55891 0.30875 0.0
H165 H 0.48507 0.6657 0.31239 0.0
H166 H 0.49531 0.66769 0.39734 0.0
H167 H 0.42863 0.58328 0.41361 0.0
C168 C 0.41224 0.5759 0.22271 0.0
C169 C 0.42274 0.59124 0.18082 0.0
C170 C 0.44273 0.61964 0.18338 0.0
C171 C 0.45299 0.63237 0.22701 0.0
C172 C 0.44267 0.61649 0.26765 0.0
C173 C 0.42239 0.58899 0.26593 0.0
C174 C 0.41548 0.57629 0.31461 0.0
C175 C 0.38545 0.56718 0.32762 0.0
C176 C 0.42118 0.55213 0.31853 0.0
C177 C 0.43563 0.60071 0.34389 0.0
C178 C 0.45117 0.62369 0.3161 0.0
C179 C 0.47265 0.64805 0.33463 0.0
C180 C 0.4784 0.64895 0.38278 0.0
C181 C 0.46252 0.62576 0.41188 0.0
C182 C 0.44068 0.60148 0.39223 0.0
H183 H 0.83032 0.43372 0.5495 0.0
H184 H 0.8011 0.34609 0.55957 0.0
H185 H 0.79219 0.34716 0.64449 0.0
H186 H 0.86848 0.45043 0.65221 0.0
H187 H 0.86241 0.47788 0.66987 0.0
H188 H 0.86118 0.46938 0.60867 0.0
H189 H 0.8117 0.46196 0.60236 0.0
H190 H 0.81281 0.47056 0.66367 0.0
H191 H 0.78524 0.4382 0.64183 0.0
H192 H 0.79031 0.35834 0.72845 0.0
H193 H 0.79964 0.37942 0.80734 0.0
H194 H 0.83385 0.46063 0.74395 0.0
C195 C 0.82119 0.41468 0.56952 0.0
C196 C 0.81574 0.38969 0.54842 0.0
C197 C 0.80498 0.36529 0.5755 0.0
C198 C 0.79976 0.36571 0.62352 0.0
C199 C 0.80588 0.39081 0.64378 0.0
C200 C 0.8166 0.41493 0.61779 0.0
C201 C 0.82503 0.43974 0.64919 0.0
C202 C 0.85611 0.46057 0.64471 0.0
C203 C 0.80765 0.45341 0.63863 0.0
C204 C 0.81804 0.42588 0.6969 0.0
C205 C 0.80636 0.39758 0.69287 0.0
C206 C 0.79919 0.38044 0.7321 0.0
C207 C 0.80457 0.39259 0.77672 0.0
C208 C 0.81748 0.42161 0.78159 0.0
C209 C 0.82387 0.43837 0.74116 0.0
H210 H 0.39571 0.81257 0.90685 0.0
H211 H 0.46816 0.80348 0.91381 0.0
H212 H 0.4598 0.79254 0.99857 0.0
H213 H 0.40948 0.84951 0.00788 0.0
H214 H 0.37419 0.8354 0.02666 0.0
H215 H 0.38191 0.83599 0.96528 0.0
H216 H 0.34878 0.7831 0.96031 0.0
H217 H 0.34086 0.78236 0.0219 0.0
H218 H 0.35345 0.7605 0.99976 0.0
H219 H 0.44721 0.78873 0.08361 0.0
H220 H 0.43395 0.79621 0.16268 0.0
H221 H 0.37142 0.81062 0.10047 0.0
C222 C 0.40918 0.80726 0.92592 0.0
C223 C 0.43227 0.80836 0.90395 0.0
C224 C 0.45017 0.80242 0.93017 0.0
C225 C 0.44549 0.79604 0.97816 0.0
C226 C 0.42293 0.7959 0.99925 0.0
C227 C 0.40511 0.80145 0.97395 0.0
C228 C 0.38504 0.80423 0.00589 0.0
C229 C 0.38785 0.83299 0.00114 0.0
C230 C 0.35526 0.78116 0.99639 0.0
C231 C 0.39506 0.80053 0.05324 0.0
C232 C 0.41639 0.79494 0.04866 0.0
C233 C 0.43024 0.79265 0.08765 0.0
C234 C 0.42257 0.79691 0.13239 0.0
C235 C 0.40166 0.80393 0.13751 0.0
C236 C 0.38732 0.80503 0.09751 0.0
H237 H 0.58449 0.41969 0.24984 0.0
H238 H 0.67056 0.48262 0.26448 0.0
H239 H 0.66884 0.47144 0.34897 0.0
H240 H 0.56317 0.43567 0.35371 0.0
H241 H 0.5376 0.40069 0.36842 0.0
H242 H 0.54678 0.41027 0.30798 0.0
H243 H 0.55895 0.37147 0.29889 0.0
H244 H 0.54977 0.36174 0.35946 0.0
H245 H 0.5835 0.37022 0.33848 0.0
H246 H 0.65676 0.45622 0.43279 0.0
H247 H 0.63438 0.44077 0.51041 0.0
H248 H 0.55558 0.38956 0.4417 0.0
C249 C 0.60314 0.43054 0.27065 0.0
C250 C 0.62777 0.45172 0.25074 0.0
C251 C 0.65156 0.46617 0.27919 0.0
C252 C 0.6508 0.45987 0.32708 0.0
C253 C 0.62604 0.43922 0.34598 0.0
C254 C 0.60258 0.42486 0.3187 0.0
C255 C 0.57781 0.40595 0.34852 0.0
C256 C 0.55501 0.41362 0.34441 0.0
C257 C 0.56687 0.37554 0.33556 0.0
C258 C 0.59084 0.41244 0.39692 0.0
C259 C 0.61878 0.43122 0.39463 0.0
C260 C 0.63494 0.44129 0.43501 0.0
C261 C 0.62208 0.43239 0.47893 0.0
C262 C 0.59329 0.41396 0.48201 0.0
C263 C 0.57767 0.40352 0.4404 0.0
H264 H 0.15287 0.57251 0.56672 0.0
H265 H 0.15876 0.65216 0.58665 0.0
H266 H 0.16633 0.64978 0.67167 0.0
H267 H 0.11397 0.54211 0.66896 0.0
H268 H 0.13002 0.52188 0.68256 0.0
H269 H 0.12841 0.53129 0.62262 0.0
H270 H 0.18154 0.55383 0.61568 0.0
H271 H 0.18331 0.5445 0.67571 0.0
H272 H 0.20343 0.58001 0.65726 0.0
H273 H 0.17071 0.63772 0.75502 0.0
H274 H 0.16847 0.61541 0.83123 0.0
H275 H 0.15775 0.54272 0.7578 0.0
C276 C 0.15629 0.58965 0.58893 0.0
C277 C 0.15551 0.61264 0.57016 0.0
C278 C 0.15938 0.6344 0.60038 0.0
C279 C 0.16382 0.63329 0.64866 0.0
C280 C 0.16412 0.61019 0.66627 0.0
C281 C 0.16031 0.58867 0.63741 0.0
C282 C 0.15923 0.56519 0.66582 0.0
C283 C 0.13124 0.53855 0.65962 0.0
C284 C 0.18332 0.56062 0.65284 0.0
C285 C 0.16255 0.57668 0.71513 0.0
C286 C 0.16579 0.60284 0.71456 0.0
C287 C 0.16838 0.61731 0.75591 0.0
C288 C 0.16712 0.6045 0.79903 0.0
C289 C 0.163 0.57738 0.80046 0.0
C290 C 0.16109 0.56354 0.75784 0.0
H291 H 0.56823 0.15251 0.09302 0.0
H292 H 0.6513 0.16679 0.07444 0.0
H293 H 0.64817 0.17316 0.98914 0.0
H294 H 0.54076 0.11198 0.99246 0.0
H295 H 0.51778 0.12471 0.9777 0.0
H296 H 0.52783 0.12498 0.03786 0.0
H297 H 0.54581 0.17754 0.04276 0.0
H298 H 0.53572 0.17742 0.98253 0.0
H299 H 0.57084 0.20045 1.00054 0.0
H300 H 0.63473 0.17452 0.90497 0.0
H301 H 0.61129 0.16896 0.82855 0.0
H302 H 0.53653 0.15224 0.9019 0.0
C303 C 0.58598 0.15764 0.07111 0.0
C304 C 0.61012 0.15946 0.09034 0.0
C305 C 0.63266 0.16546 0.06041 0.0
C306 C 0.63111 0.16919 0.01195 0.0
C307 C 0.60681 0.16673 0.99387 0.0
C308 C 0.58463 0.16107 0.02253 0.0
C309 C 0.56008 0.15713 0.99383 0.0
C310 C 0.53515 0.12797 0.00089 0.0
C311 C 0.55269 0.17947 0.00562 0.0
C312 C 0.57172 0.16088 0.94459 0.0
C313 C 0.59883 0.16681 0.94533 0.0
C314 C 0.61357 0.17013 0.90397 0.0
C315 C 0.60011 0.16695 0.86074 0.0
C316 C 0.57214 0.16022 0.85926 0.0
C317 C 0.55799 0.15752 0.90185 0.0
H318 H 0.32087 0.5531 0.06594 0.0
H319 H 0.31149 0.47599 0.01427 0.0
H320 H 0.26524 0.46343 0.98264 0.0
H321 H 0.24726 0.52819 0.09369 0.0
H322 H 0.25036 0.56024 0.07387 0.0
H323 H 0.27968 0.55995 0.09954 0.0
H324 H 0.30832 0.58412 0.025 0.0
H325 H 0.27903 0.58393 0.99863 0.0
H326 H 0.296 0.56825 0.96834 0.0
H327 H 0.22147 0.46236 0.94918 0.0
H328 H 0.18566 0.47268 0.91959 0.0
H329 H 0.22773 0.55205 0.98972 0.0
C330 C 0.30879 0.53314 0.04928 0.0
C331 C 0.31962 0.51542 0.04283 0.0
C332 C 0.30333 0.48969 0.0202 0.0
C333 C 0.27714 0.48249 0.00191 0.0
C334 C 0.26768 0.50124 0.00686 0.0
C335 C 0.28305 0.52592 0.03056 0.0
C336 C 0.2701 0.54393 0.02762 0.0
C337 C 0.26132 0.54832 0.07659 0.0
C338 C 0.28952 0.57168 0.00345 0.0
C339 C 0.2454 0.52602 0.99736 0.0
C340 C 0.24382 0.50122 0.98622 0.0
C341 C 0.22254 0.48169 0.95796 0.0
C342 C 0.20241 0.48773 0.94111 0.0
C343 C 0.20423 0.51331 0.95179 0.0
C344 C 0.22601 0.53249 0.98027 0.0
H345 H 0.75902 0.29952 0.41697 0.0
H346 H 0.83025 0.30182 0.35232 0.0
H347 H 0.79951 0.25642 0.31508 0.0
H348 H 0.71554 0.2229 0.43212 0.0
H349 H 0.6848 0.22406 0.41722 0.0
H350 H 0.71294 0.25287 0.44687 0.0
H351 H 0.7144 0.28544 0.3806 0.0
H352 H 0.68674 0.25683 0.35031 0.0
H353 H 0.71901 0.27828 0.32056 0.0
H354 H 0.75932 0.2133 0.27644 0.0
H355 H 0.71477 0.17859 0.24019 0.0
H356 H 0.67165 0.20859 0.32662 0.0
C357 C 0.76835 0.29009 0.39633 0.0
C358 C 0.797 0.30404 0.38779 0.0
C359 C 0.80834 0.29123 0.35986 0.0
C360 C 0.79101 0.2655 0.33849 0.0
C361 C 0.76254 0.25297 0.34573 0.0
C362 C 0.75143 0.26487 0.37446 0.0
C363 C 0.7203 0.24968 0.37216 0.0
C364 C 0.70766 0.2366 0.41993 0.0
C365 C 0.70951 0.26869 0.35486 0.0
C366 C 0.71549 0.22795 0.33622 0.0
C367 C 0.73987 0.22952 0.32206 0.0
C368 C 0.74014 0.21181 0.28769 0.0
C369 C 0.71487 0.19225 0.26721 0.0
C370 C 0.69004 0.19132 0.28037 0.0
C371 C 0.69046 0.20915 0.31562 0.0
H372 H 0.46186 0.79028 0.65341 0.0
H373 H 0.53317 0.82605 0.74524 0.0
H374 H 0.55111 0.79887 0.70439 0.0
H375 H 0.44983 0.72502 0.65555 0.0
H376 H 0.43887 0.71691 0.59522 0.0
H377 H 0.43504 0.74295 0.62536 0.0
H378 H 0.4634 0.77854 0.56058 0.0
H379 H 0.46726 0.75249 0.52988 0.0
H380 H 0.49735 0.78468 0.54582 0.0
H381 H 0.55627 0.76124 0.66178 0.0
H382 H 0.54857 0.71846 0.62224 0.0
H383 H 0.47408 0.70931 0.55832 0.0
C384 C 0.48165 0.79296 0.66412 0.0
C385 C 0.49621 0.81009 0.70232 0.0
C386 C 0.52193 0.81314 0.71563 0.0
C387 C 0.53218 0.79778 0.69263 0.0
C388 C 0.51666 0.78015 0.65594 0.0
C389 C 0.49212 0.77815 0.64141 0.0
C390 C 0.47769 0.75603 0.60468 0.0
C391 C 0.44867 0.73393 0.62123 0.0
C392 C 0.47637 0.7687 0.55744 0.0
C393 C 0.49713 0.74473 0.60228 0.0
C394 C 0.51978 0.75906 0.63137 0.0
C395 C 0.53897 0.75034 0.6381 0.0
C396 C 0.53447 0.72604 0.61549 0.0
C397 C 0.51081 0.71071 0.58705 0.0
C398 C 0.49253 0.72077 0.57939 0.0
H399 H 0.68705 0.47952 0.00261 0.0
H400 H 0.73192 0.53845 0.1128 0.0
H401 H 0.77622 0.55056 0.07315 0.0
H402 H 0.72848 0.4526 0.99017 0.0
H403 H 0.72574 0.44886 0.92716 0.0
H404 H 0.69846 0.44897 0.95998 0.0
H405 H 0.70297 0.48996 0.90977 0.0
H406 H 0.72992 0.48923 0.87618 0.0
H407 H 0.73615 0.52078 0.90402 0.0
H408 H 0.81507 0.54919 0.02849 0.0
H409 H 0.84384 0.5346 0.98466 0.0
H410 H 0.77266 0.47904 0.90118 0.0
C411 C 0.70625 0.49542 0.01778 0.0
C412 C 0.70641 0.50798 0.06065 0.0
C413 C 0.73164 0.52874 0.07974 0.0
C414 C 0.75676 0.53576 0.05735 0.0
C415 C 0.75595 0.52241 0.01534 0.0
C416 C 0.73118 0.50303 0.99541 0.0
C417 C 0.7355 0.48987 0.95242 0.0
C418 C 0.72123 0.45823 0.95782 0.0
C419 C 0.72555 0.49795 0.90794 0.0
C420 C 0.76656 0.50323 0.95308 0.0
C421 C 0.77819 0.52242 0.98889 0.0
C422 C 0.80627 0.53481 0.99956 0.0
C423 C 0.82252 0.5265 0.97435 0.0
C424 C 0.81047 0.50585 0.93933 0.0
C425 C 0.78251 0.49519 0.92726 0.0
H426 H 0.22599 0.69844 0.43599 0.0
H427 H 0.16451 0.70407 0.35151 0.0
H428 H 0.20127 0.74746 0.31579 0.0
H429 H 0.27419 0.77487 0.45144 0.0
H430 H 0.30378 0.77025 0.44721 0.0
H431 H 0.2721 0.74348 0.47259 0.0
H432 H 0.27189 0.70831 0.41301 0.0
H433 H 0.30329 0.7349 0.38735 0.0
H434 H 0.27325 0.71546 0.35094 0.0
H435 H 0.24647 0.78626 0.28018 0.0
H436 H 0.29434 0.81518 0.24957 0.0
H437 H 0.32434 0.78227 0.35781 0.0
C438 C 0.22013 0.70928 0.4111 0.0
C439 C 0.1925 0.69807 0.3966 0.0
C440 C 0.1856 0.71258 0.3635 0.0
C441 C 0.20635 0.73721 0.34303 0.0
C442 C 0.23371 0.74714 0.35674 0.0
C443 C 0.24045 0.7337 0.39066 0.0
C444 C 0.27127 0.74633 0.3959 0.0
C445 C 0.2809 0.75952 0.44468 0.0
C446 C 0.28044 0.72499 0.38618 0.0
C447 C 0.28095 0.76803 0.35794 0.0
C448 C 0.25924 0.76884 0.33621 0.0
C449 C 0.2636 0.78612 0.2976 0.0
C450 C 0.29074 0.80245 0.28042 0.0
C451 C 0.31273 0.80072 0.30142 0.0
C452 C 0.30774 0.78389 0.34121 0.0
H453 H 0.5407 0.2301 0.75074 0.0
H454 H 0.46345 0.16955 0.68727 0.0
H455 H 0.45635 0.20732 0.65757 0.0
H456 H 0.51973 0.28233 0.78059 0.0
H457 H 0.55376 0.31028 0.76673 0.0
H458 H 0.54943 0.27838 0.79012 0.0
H459 H 0.57589 0.27442 0.71852 0.0
H460 H 0.5799 0.30593 0.69451 0.0
H461 H 0.56367 0.27475 0.65997 0.0
H462 H 0.46162 0.25322 0.62588 0.0
H463 H 0.47847 0.30129 0.59773 0.0
H464 H 0.55274 0.32935 0.68085 0.0
C465 C 0.52183 0.22471 0.73188 0.0
C466 C 0.50256 0.19701 0.72147 0.0
C467 C 0.47829 0.19073 0.69617 0.0
C468 C 0.47416 0.21205 0.67905 0.0
C469 C 0.49434 0.23938 0.68817 0.0
C470 C 0.51749 0.24558 0.71473 0.0
C471 C 0.53756 0.27621 0.71619 0.0
C472 C 0.54026 0.28746 0.76639 0.0
C473 C 0.5659 0.28321 0.69608 0.0
C474 C 0.52286 0.28632 0.68449 0.0
C475 C 0.49768 0.26509 0.66925 0.0
C476 C 0.48119 0.26997 0.63807 0.0
C477 C 0.49089 0.29721 0.62212 0.0
C478 C 0.51703 0.31881 0.63661 0.0
C479 C 0.53282 0.31315 0.66858 0.0
H480 H 0.45206 0.49771 0.0864 0.0
H481 H 0.5 0.58351 0.04287 0.0
H482 H 0.54293 0.58276 0.05698 0.0
H483 H 0.49817 0.50118 0.17855 0.0
H484 H 0.49381 0.46759 0.16648 0.0
H485 H 0.4663 0.47452 0.15351 0.0
H486 H 0.46549 0.45976 0.06696 0.0
H487 H 0.49279 0.45254 0.0798 0.0
H488 H 0.4969 0.47608 0.03304 0.0
H489 H 0.58079 0.57346 0.07613 0.0
H490 H 0.61144 0.55464 0.09367 0.0
H491 H 0.53977 0.47474 0.12377 0.0
C492 C 0.4716 0.51624 0.07969 0.0
C493 C 0.47263 0.54066 0.06361 0.0
C494 C 0.49862 0.56453 0.0552 0.0
C495 C 0.5232 0.56439 0.06327 0.0
C496 C 0.52156 0.5402 0.07963 0.0
C497 C 0.49652 0.51646 0.08736 0.0
C498 C 0.50083 0.49309 0.10389 0.0
C499 C 0.48908 0.48354 0.15356 0.0
C500 C 0.48826 0.46894 0.06882 0.0
C501 C 0.53212 0.50748 0.10397 0.0
C502 C 0.54362 0.53471 0.09023 0.0
C503 C 0.57209 0.55217 0.08699 0.0
C504 C 0.58933 0.54134 0.09718 0.0
C505 C 0.57801 0.51331 0.11019 0.0
C506 C 0.54903 0.49632 0.11419 0.0
H507 H 0.94136 0.43892 0.4211 0.0
H508 H 0.89865 0.4856 0.40958 0.0
H509 H 0.94301 0.52906 0.4143 0.0
H510 H 0.99324 0.4845 0.50368 0.0
H511 H 0.02058 0.48085 0.47756 0.0
H512 H 0.98537 0.45309 0.47342 0.0
H513 H 0.98951 0.45349 0.38266 0.0
H514 H 0.02475 0.48119 0.38657 0.0
H515 H 0.00032 0.4852 0.35092 0.0
H516 H 0.99179 0.5676 0.4201 0.0
H517 H 0.04231 0.59871 0.42508 0.0
H518 H 0.05359 0.52743 0.43275 0.0
C519 C 0.9414 0.4583 0.41954 0.0
C520 C 0.91653 0.45884 0.41498 0.0
C521 C 0.91742 0.48462 0.41305 0.0
C522 C 0.94253 0.50946 0.41576 0.0
C523 C 0.96665 0.50828 0.42038 0.0
C524 C 0.96638 0.48342 0.42215 0.0
C525 C 0.9954 0.4881 0.42682 0.0
C526 C 0.99884 0.47591 0.47313 0.0
C527 C 0.00293 0.4763 0.3842 0.0
C528 C 0.01187 0.51939 0.42733 0.0
C529 C 0.99489 0.53062 0.42367 0.0
C530 C 0.00534 0.55909 0.42304 0.0
C531 C 0.03403 0.5766 0.42593 0.0
C532 C 0.05182 0.56551 0.42937 0.0
C533 C 0.04049 0.53653 0.43028 0.0
H534 H 0.52816 0.05312 0.72782 0.0
H535 H 0.45547 0.04897 0.79046 0.0
H536 H 0.43829 0.00013 0.81192 0.0
H537 H 0.49391 0.98508 0.67842 0.0
H538 H 0.52226 0.97918 0.68972 0.0
H539 H 0.52877 0.01377 0.68022 0.0
H540 H 0.55448 0.02874 0.76003 0.0
H541 H 0.54779 0.99411 0.77002 0.0
H542 H 0.53708 0.01057 0.81286 0.0
H543 H 0.42913 0.95188 0.82605 0.0
H544 H 0.42691 0.90672 0.82751 0.0
H545 H 0.50575 0.94248 0.75552 0.0
C546 C 0.50858 0.04194 0.74598 0.0
C547 C 0.4931 0.05479 0.75752 0.0
C548 C 0.46759 0.03947 0.78119 0.0
C549 C 0.45776 0.0118 0.7937 0.0
C550 C 0.47373 0.99986 0.78223 0.0
C551 C 0.49849 0.01439 0.75861 0.0
C552 C 0.51138 0.99661 0.74938 0.0
C553 C 0.51423 0.99347 0.69629 0.0
C554 C 0.53934 0.0082 0.77459 0.0
C555 C 0.48989 0.96967 0.77124 0.0
C556 C 0.46844 0.97207 0.79028 0.0
C557 C 0.44583 0.94979 0.81139 0.0
C558 C 0.4448 0.92424 0.81212 0.0
C559 C 0.46622 0.92114 0.79179 0.0
C560 C 0.48925 0.94431 0.77181 0.0
H561 H 0.47891 0.54019 0.55176 0.0
H562 H 0.56099 0.61147 0.5667 0.0
H563 H 0.58002 0.58038 0.5784 0.0
H564 H 0.48579 0.49884 0.63957 0.0
H565 H 0.46637 0.4668 0.60808 0.0
H566 H 0.45928 0.49451 0.59864 0.0
H567 H 0.46756 0.49338 0.5093 0.0
H568 H 0.47453 0.46555 0.5184 0.0
H569 H 0.49962 0.49668 0.48914 0.0
H570 H 0.5897 0.54201 0.59184 0.0
H571 H 0.59021 0.49874 0.60374 0.0
H572 H 0.50173 0.45174 0.57956 0.0
C573 C 0.50094 0.54927 0.55703 0.0
C574 C 0.51855 0.57826 0.55823 0.0
C575 C 0.54719 0.58934 0.56549 0.0
C576 C 0.55815 0.57185 0.57222 0.0
C577 C 0.54017 0.54339 0.57141 0.0
C578 C 0.51221 0.53213 0.56374 0.0
C579 C 0.49735 0.50082 0.56542 0.0
C580 C 0.47594 0.48959 0.6053 0.0
C581 C 0.48398 0.48838 0.51772 0.0
C582 C 0.52133 0.49622 0.5757 0.0
C583 C 0.54579 0.52111 0.57896 0.0
C584 C 0.57072 0.52241 0.58911 0.0
C585 C 0.57074 0.49765 0.59592 0.0
C586 C 0.54599 0.47181 0.59253 0.0
C587 C 0.52095 0.47115 0.58223 0.0
H588 H 0.05942 0.53575 0.91702 0.0
H589 H 0.05088 0.45444 0.9058 0.0
H590 H 0.00014 0.43369 0.89978 0.0
H591 H 0.00046 0.51646 0.98783 0.0
H592 H 0.99123 0.53957 0.9595 0.0
H593 H 0.02676 0.54794 0.9611 0.0
H594 H 0.02934 0.55223 0.87031 0.0
H595 H 0.99381 0.54391 0.8684 0.0
H596 H 0.00476 0.52374 0.83496 0.0
H597 H 0.95047 0.42191 0.89895 0.0
H598 H 0.90533 0.41967 0.90117 0.0
H599 H 0.94653 0.50901 0.9111 0.0
C600 C 0.04691 0.51357 0.91306 0.0
C601 C 0.05901 0.49663 0.91196 0.0
C602 C 0.04198 0.46774 0.90666 0.0
C603 C 0.0132 0.45582 0.90322 0.0
C604 C 0.00194 0.47315 0.90479 0.0
C605 C 0.01828 0.50141 0.90931 0.0
C606 C 0.0011 0.51544 0.91077 0.0
C607 C 0.00513 0.53075 0.95759 0.0
C608 C 0.00765 0.53498 0.86859 0.0
C609 C 0.9724 0.4906 0.90701 0.0
C610 C 0.97337 0.46642 0.90357 0.0
C611 C 0.94948 0.44072 0.90127 0.0
C612 C 0.92395 0.43968 0.90267 0.0
C613 C 0.92246 0.46419 0.90617 0.0
C614 C 0.94705 0.48997 0.90802 0.0
H615 H 0.4413 0.93752 0.23675 0.0
H616 H 0.49136 0.89831 0.24571 0.0
H617 H 0.53349 0.94356 0.23658 0.0
H618 H 0.48401 0.98979 0.14996 0.0
H619 H 0.47917 0.01629 0.17661 0.0
H620 H 0.45265 0.98057 0.1816 0.0
H621 H 0.45412 0.98509 0.27236 0.0
H622 H 0.48061 0.02078 0.26761 0.0
H623 H 0.48648 0.99736 0.30274 0.0
H624 H 0.57042 0.99314 0.23017 0.0
H625 H 0.59954 0.04402 0.22675 0.0
H626 H 0.52575 0.05108 0.22131 0.0
C627 C 0.46112 0.93848 0.23634 0.0
C628 C 0.46303 0.91439 0.24188 0.0
C629 C 0.48936 0.91649 0.24153 0.0
C630 C 0.51345 0.9421 0.23627 0.0
C631 C 0.51092 0.96548 0.23127 0.0
C632 C 0.48547 0.96396 0.23115 0.0
C633 C 0.48866 0.9924 0.22665 0.0
C634 C 0.47533 0.9949 0.18098 0.0
C635 C 0.47677 0.99931 0.26992 0.0
C636 C 0.51983 0.01006 0.22484 0.0
C637 C 0.53229 0.99413 0.22737 0.0
C638 C 0.56093 0.00587 0.2278 0.0
C639 C 0.57729 0.03474 0.22587 0.0
C640 C 0.56492 0.05144 0.22355 0.0
C641 C 0.53582 0.03883 0.22267 0.0
H642 H 0.47212 0.63563 0.71849 0.0
H643 H 0.40268 0.56738 0.64841 0.0
H644 H 0.38045 0.54932 0.72567 0.0
H645 H 0.47644 0.59916 0.81293 0.0
H646 H 0.48507 0.62586 0.85603 0.0
H647 H 0.49388 0.63494 0.79533 0.0
H648 H 0.46702 0.66158 0.79517 0.0
H649 H 0.45824 0.65274 0.85611 0.0
H650 H 0.43137 0.6442 0.8133 0.0
H651 H 0.36949 0.5355 0.81051 0.0
H652 H 0.36846 0.52876 0.89652 0.0
H653 H 0.44368 0.6077 0.91106 0.0
C654 C 0.45198 0.61715 0.71937 0.0
C655 C 0.43906 0.60278 0.6777 0.0
C656 C 0.41278 0.5787 0.68004 0.0
C657 C 0.40007 0.56833 0.7237 0.0
C658 C 0.41373 0.58267 0.76431 0.0
C659 C 0.43889 0.60683 0.76242 0.0
C660 C 0.4499 0.61768 0.81111 0.0
C661 C 0.47797 0.6195 0.81931 0.0
C662 C 0.45173 0.64571 0.8194 0.0
C663 C 0.4275 0.59529 0.84089 0.0
C664 C 0.40679 0.5753 0.81322 0.0
C665 C 0.38522 0.55131 0.83254 0.0
C666 C 0.38489 0.54761 0.8813 0.0
C667 C 0.40583 0.5679 0.91015 0.0
C668 C 0.42712 0.59222 0.88976 0.0
H669 H 0.82893 0.43689 0.27541 0.0
H670 H 0.79136 0.34794 0.27151 0.0
H671 H 0.7817 0.34805 0.18666 0.0
H672 H 0.78526 0.44408 0.17987 0.0
H673 H 0.81478 0.4747 0.15717 0.0
H674 H 0.81237 0.46705 0.21915 0.0
H675 H 0.86003 0.4699 0.21589 0.0
H676 H 0.86245 0.47718 0.15403 0.0
H677 H 0.86526 0.44828 0.17513 0.0
H678 H 0.78253 0.3583 0.1012 0.0
H679 H 0.79518 0.37807 0.02114 0.0
H680 H 0.8348 0.46057 0.08028 0.0
C681 C 0.8175 0.41746 0.25688 0.0
C682 C 0.81006 0.39234 0.27955 0.0
C683 C 0.79651 0.36725 0.25437 0.0
C684 C 0.79095 0.36714 0.20636 0.0
C685 C 0.79938 0.39237 0.18425 0.0
C686 C 0.81231 0.4171 0.2087 0.0
C687 C 0.82307 0.44152 0.17563 0.0
C688 C 0.80796 0.4578 0.18342 0.0
C689 C 0.85456 0.4603 0.18047 0.0
C690 C 0.81535 0.42672 0.12885 0.0
C691 C 0.80106 0.39839 0.13453 0.0
C692 C 0.79331 0.38045 0.09626 0.0
C693 C 0.80063 0.39182 0.05101 0.0
C694 C 0.81599 0.42077 0.04476 0.0
C695 C 0.823 0.43833 0.08413 0.0
H696 H 0.42401 0.86623 0.62461 0.0
H697 H 0.39285 0.77955 0.65429 0.0
H698 H 0.38304 0.76882 0.56968 0.0
H699 H 0.37485 0.8556 0.52669 0.0
H700 H 0.40113 0.8849 0.495 0.0
H701 H 0.4016 0.88458 0.55832 0.0
H702 H 0.45177 0.8936 0.55595 0.0
H703 H 0.45123 0.89314 0.49276 0.0
H704 H 0.45908 0.87 0.52454 0.0
H705 H 0.38357 0.76903 0.48066 0.0
H706 H 0.38784 0.77916 0.39526 0.0
H707 H 0.41769 0.86555 0.42552 0.0
C708 C 0.41419 0.84487 0.61345 0.0
C709 C 0.40893 0.82366 0.6457 0.0
C710 C 0.39652 0.79599 0.63003 0.0
C711 C 0.39113 0.78976 0.58206 0.0
C712 C 0.39785 0.81142 0.55074 0.0
C713 C 0.40844 0.83832 0.566 0.0
C714 C 0.41526 0.85809 0.52533 0.0
C715 C 0.39712 0.87158 0.5264 0.0
C716 C 0.44616 0.87998 0.52463 0.0
C717 C 0.40771 0.83828 0.48468 0.0
C718 C 0.39774 0.81145 0.49987 0.0
C719 C 0.3909 0.78989 0.46837 0.0
C720 C 0.39369 0.79586 0.42007 0.0
C721 C 0.4031 0.82311 0.40408 0.0
C722 C 0.41032 0.8445 0.43687 0.0
H723 H 0.60786 0.44087 0.75456 0.0
H724 H 0.52487 0.37082 0.76485 0.0
H725 H 0.52962 0.37055 0.85116 0.0
H726 H 0.63813 0.42211 0.85386 0.0
H727 H 0.65865 0.45734 0.87324 0.0
H728 H 0.65049 0.44992 0.81179 0.0
H729 H 0.62917 0.48174 0.81016 0.0
H730 H 0.6376 0.48962 0.87128 0.0
H731 H 0.60249 0.47595 0.8517 0.0
H732 H 0.54241 0.37949 0.93668 0.0
H733 H 0.56064 0.40004 0.015 0.0
H734 H 0.63375 0.46592 0.94865 0.0
C735 C 0.59095 0.42521 0.77505 0.0
C736 C 0.56609 0.40579 0.75335 0.0
C737 C 0.54408 0.38592 0.78109 0.0
C738 C 0.54666 0.38546 0.83001 0.0
C739 C 0.57129 0.40516 0.85061 0.0
C740 C 0.59298 0.42481 0.82405 0.0
C741 C 0.61611 0.44537 0.85509 0.0
C742 C 0.6424 0.44356 0.84805 0.0
C743 C 0.62164 0.47491 0.84655 0.0
C744 C 0.60364 0.43475 0.90308 0.0
C745 C 0.57812 0.4111 0.89987 0.0
C746 C 0.56244 0.39793 0.93969 0.0
C747 C 0.5729 0.40965 0.98392 0.0
C748 C 0.5984 0.43454 0.98749 0.0
C749 C 0.61409 0.44691 0.94668 0.0
H750 H 0.14815 0.58867 0.06816 0.0
H751 H 0.15392 0.51466 0.08572 0.0
H752 H 0.15865 0.52215 0.17147 0.0
H753 H 0.19566 0.6292 0.16304 0.0
H754 H 0.17503 0.64406 0.18106 0.0
H755 H 0.17476 0.63443 0.12056 0.0
H756 H 0.12151 0.60354 0.12352 0.0
H757 H 0.12162 0.61312 0.18391 0.0
H758 H 0.10602 0.57719 0.1681 0.0
H759 H 0.16135 0.53681 0.25563 0.0
H760 H 0.15807 0.55568 0.33253 0.0
H761 H 0.14806 0.61859 0.26053 0.0
C762 C 0.15078 0.57431 0.09011 0.0
C763 C 0.15082 0.55119 0.07046 0.0
C764 C 0.15379 0.5325 0.10021 0.0
C765 C 0.15665 0.53665 0.1489 0.0
C766 C 0.15626 0.55948 0.16738 0.0
C767 C 0.15318 0.57789 0.139 0.0
C768 C 0.15132 0.59954 0.16814 0.0
C769 C 0.17565 0.62852 0.15756 0.0
C770 C 0.12346 0.59825 0.16046 0.0
C771 C 0.15345 0.59017 0.2172 0.0
C772 C 0.15677 0.56732 0.21601 0.0
C773 C 0.15883 0.55476 0.25705 0.0
C774 C 0.15701 0.56562 0.30051 0.0
C775 C 0.15275 0.58848 0.30239 0.0
C776 C 0.15128 0.60103 0.26014 0.0
H777 H 0.58245 0.14453 0.59178 0.0
H778 H 0.50901 0.15137 0.57504 0.0
H779 H 0.51573 0.15505 0.4891 0.0
H780 H 0.62246 0.19076 0.49439 0.0
H781 H 0.63673 0.16952 0.4769 0.0
H782 H 0.62789 0.17031 0.53754 0.0
H783 H 0.59654 0.11706 0.53698 0.0
H784 H 0.60525 0.11612 0.4764 0.0
H785 H 0.56959 0.10114 0.49352 0.0
H786 H 0.52949 0.15661 0.40469 0.0
H787 H 0.54778 0.15275 0.32755 0.0
H788 H 0.61044 0.14202 0.3987 0.0
C789 C 0.56811 0.14727 0.56997 0.0
C790 C 0.54533 0.14786 0.58994 0.0
C791 C 0.52661 0.15087 0.56034 0.0
C792 C 0.53032 0.15311 0.51152 0.0
C793 C 0.55272 0.15205 0.49272 0.0
C794 C 0.57124 0.14905 0.52093 0.0
C795 C 0.59235 0.14643 0.49144 0.0
C796 C 0.62159 0.1707 0.50062 0.0
C797 C 0.59082 0.11853 0.50011 0.0
C798 C 0.5825 0.14796 0.44246 0.0
C799 C 0.55993 0.15171 0.44394 0.0
C800 C 0.54719 0.15368 0.40305 0.0
C801 C 0.55768 0.15149 0.35945 0.0
C802 C 0.58033 0.1469 0.35726 0.0
C803 C 0.59293 0.14532 0.39936 0.0
loop_
_geom_bond_atom_site_label_1
_geom_bond_atom_site_label_2
_geom_bond_distance
_geom_bond_site_symmetry_2
_ccdc_geom_bond_type
In0 O1 2.294 . S
In0 O2 2.326 . S
In0 O6 2.266 . S
In0 O7 2.326 1_554 S
In0 O8 2.266 . S
In0 O9 2.326 . S
In0 O11 2.294 . S
In0 O12 2.326 . S
O1 In0 2.294 . S
O1 C10 1.240 . S
O2 In0 2.326 . S
O2 C10 1.252 . S
C3 O6 1.252 1_556 S
C3 O7 1.260 . S
C4 O11 1.240 . S
C4 O12 1.252 . S
C5 O8 1.252 . S
C5 O9 1.260 . S
O6 In0 2.266 . S
O6 C3 1.252 1_554 S
O7 In0 2.326 1_556 S
O7 C3 1.260 . S
O8 In0 2.266 . S
O8 C5 1.252 . S
O9 In0 2.326 . S
O9 C5 1.260 . S
C10 O1 1.240 . S
C10 O2 1.252 . S
O11 In0 2.294 . S
O11 C4 1.240 . S
O12 In0 2.326 . S
O12 C4 1.252 . S
In13 O14 2.294 . S
In13 O15 2.326 . S
In13 O19 2.266 . S
In13 O20 2.326 . S
In13 O21 2.266 . S
In13 O22 2.326 . S
In13 O24 2.294 . S
In13 O25 2.326 . S
O14 In13 2.294 . S
O14 C23 1.240 . S
O15 In13 2.326 . S
O15 C23 1.252 . S
C16 O19 1.252 . S
C16 O20 1.260 . S
C17 O24 1.240 . S
C17 O25 1.252 . S
C18 O21 1.252 . S
C18 O22 1.260 . S
O19 In13 2.266 . S
O19 C16 1.252 . S
O20 In13 2.326 . S
O20 C16 1.260 . S
O21 In13 2.266 . S
O21 C18 1.252 . S
O22 In13 2.326 . S
O22 C18 1.260 . S
C23 O14 1.240 . S
C23 O15 1.252 . S
O24 In13 2.294 . S
O24 C17 1.240 . S
O25 In13 2.326 . S
O25 C17 1.252 . S
In26 O27 2.294 . S
In26 O28 2.326 . S
In26 O32 2.266 . S
In26 O33 2.326 . S
In26 O34 2.266 . S
In26 O35 2.326 . S
In26 O37 2.294 . S
In26 O38 2.326 . S
O27 In26 2.294 . S
O27 C36 1.240 . S
O28 In26 2.326 . S
O28 C36 1.252 . S
C29 O32 1.252 . S
C29 O33 1.260 . S
C30 O37 1.240 . S
C30 O38 1.252 . S
C31 O34 1.252 . S
C31 O35 1.260 . S
O32 In26 2.266 . S
O32 C29 1.252 . S
O33 In26 2.326 . S
O33 C29 1.260 . S
O34 In26 2.266 . S
O34 C31 1.252 . S
O35 In26 2.326 . S
O35 C31 1.260 . S
C36 O27 1.240 . S
C36 O28 1.252 . S
O37 In26 2.294 . S
O37 C30 1.240 . S
O38 In26 2.326 . S
O38 C30 1.252 . S
In39 O40 2.294 . S
In39 O41 2.326 . S
In39 O45 2.266 . S
In39 O46 2.326 1_554 S
In39 O47 2.266 . S
In39 O48 2.326 . S
In39 O50 2.294 . S
In39 O51 2.326 . S
O40 In39 2.294 . S
O40 C49 1.240 . S
O41 In39 2.326 . S
O41 C49 1.252 . S
C42 O45 1.252 1_556 S
C42 O46 1.260 . S
C43 O50 1.240 . S
C43 O51 1.252 . S
C44 O47 1.252 . S
C44 O48 1.260 . S
O45 In39 2.266 . S
O45 C42 1.252 1_554 S
O46 In39 2.326 1_556 S
O46 C42 1.260 . S
O47 In39 2.266 . S
O47 C44 1.252 . S
O48 In39 2.326 . S
O48 C44 1.260 . S
C49 O40 1.240 . S
C49 O41 1.252 . S
O50 In39 2.294 . S
O50 C43 1.240 . S
O51 In39 2.326 . S
O51 C43 1.252 . S
In52 O53 2.294 . S
In52 O54 2.326 . S
In52 O58 2.266 . S
In52 O59 2.326 . S
In52 O60 2.266 . S
In52 O61 2.326 . S
In52 O63 2.294 . S
In52 O64 2.326 . S
O53 In52 2.294 . S
O53 C62 1.240 . S
O54 In52 2.326 . S
O54 C62 1.252 . S
C55 O58 1.252 . S
C55 O59 1.260 . S
C56 O63 1.240 . S
C56 O64 1.252 . S
C57 O60 1.252 . S
C57 O61 1.260 . S
O58 In52 2.266 . S
O58 C55 1.252 . S
O59 In52 2.326 . S
O59 C55 1.260 . S
O60 In52 2.266 . S
O60 C57 1.252 . S
O61 In52 2.326 . S
O61 C57 1.260 . S
C62 O53 1.240 . S
C62 O54 1.252 . S
O63 In52 2.294 . S
O63 C56 1.240 . S
O64 In52 2.326 . S
O64 C56 1.252 . S
In65 O66 2.294 . S
In65 O67 2.326 . S
In65 O71 2.266 . S
In65 O72 2.326 . S
In65 O73 2.266 . S
In65 O74 2.326 . S
In65 O76 2.294 . S
In65 O77 2.326 . S
O66 In65 2.294 . S
O66 C75 1.240 . S
O67 In65 2.326 . S
O67 C75 1.252 . S
C68 O71 1.252 . S
C68 O72 1.260 . S
C69 O76 1.240 . S
C69 O77 1.252 . S
C70 O73 1.252 . S
C70 O74 1.260 . S
O71 In65 2.266 . S
O71 C68 1.252 . S
O72 In65 2.326 . S
O72 C68 1.260 . S
O73 In65 2.266 . S
O73 C70 1.252 . S
O74 In65 2.326 . S
O74 C70 1.260 . S
C75 O66 1.240 . S
C75 O67 1.252 . S
O76 In65 2.294 . S
O76 C69 1.240 . S
O77 In65 2.326 . S
O77 C69 1.252 . S
In78 O79 2.294 . S
In78 O80 2.326 . S
In78 O84 2.266 . S
In78 O85 2.326 . S
In78 O86 2.266 . S
In78 O87 2.326 . S
In78 O89 2.294 . S
In78 O90 2.326 . S
O79 In78 2.294 . S
O79 C88 1.240 . S
O80 In78 2.326 . S
O80 C88 1.252 . S
C81 O84 1.252 . S
C81 O85 1.260 . S
C82 O89 1.240 . S
C82 O90 1.252 . S
C83 O86 1.252 . S
C83 O87 1.260 . S
O84 In78 2.266 . S
O84 C81 1.252 . S
O85 In78 2.326 . S
O85 C81 1.260 . S
O86 In78 2.266 . S
O86 C83 1.252 . S
O87 In78 2.326 . S
O87 C83 1.260 . S
C88 O79 1.240 . S
C88 O80 1.252 . S
O89 In78 2.294 . S
O89 C82 1.240 . S
O90 In78 2.326 . S
O90 C82 1.252 . S
In91 O92 2.294 . S
In91 O93 2.326 . S
In91 O97 2.266 . S
In91 O98 2.326 1_556 S
In91 O99 2.266 . S
In91 O100 2.326 . S
In91 O102 2.294 . S
In91 O103 2.326 . S
O92 In91 2.294 . S
O92 C101 1.240 . S
O93 In91 2.326 . S
O93 C101 1.252 . S
C94 O97 1.252 1_554 S
C94 O98 1.260 . S
C95 O102 1.240 . S
C95 O103 1.252 . S
C96 O99 1.252 . S
C96 O100 1.260 . S
O97 In91 2.266 . S
O97 C94 1.252 1_556 S
O98 In91 2.326 1_554 S
O98 C94 1.260 . S
O99 In91 2.266 . S
O99 C96 1.252 . S
O100 In91 2.326 . S
O100 C96 1.260 . S
C101 O92 1.240 . S
C101 O93 1.252 . S
O102 In91 2.294 . S
O102 C95 1.240 . S
O103 In91 2.326 . S
O103 C95 1.252 . S
In104 O105 2.294 . S
In104 O106 2.326 . S
In104 O110 2.266 . S
In104 O111 2.326 . S
In104 O112 2.266 . S
In104 O113 2.326 . S
In104 O115 2.294 . S
In104 O116 2.326 . S
O105 In104 2.294 . S
O105 C114 1.240 . S
O106 In104 2.326 . S
O106 C114 1.252 . S
C107 O110 1.252 . S
C107 O111 1.260 . S
C108 O115 1.240 . S
C108 O116 1.252 . S
C109 O112 1.252 . S
C109 O113 1.260 . S
O110 In104 2.266 . S
O110 C107 1.252 . S
O111 In104 2.326 . S
O111 C107 1.260 . S
O112 In104 2.266 . S
O112 C109 1.252 . S
O113 In104 2.326 . S
O113 C109 1.260 . S
C114 O105 1.240 . S
C114 O106 1.252 . S
O115 In104 2.294 . S
O115 C108 1.240 . S
O116 In104 2.326 . S
O116 C108 1.252 . S
In117 O118 2.294 . S
In117 O119 2.326 . S
In117 O123 2.266 . S
In117 O124 2.326 . S
In117 O125 2.266 . S
In117 O126 2.326 . S
In117 O128 2.294 . S
In117 O129 2.326 . S
O118 In117 2.294 . S
O118 C127 1.240 . S
O119 In117 2.326 . S
O119 C127 1.252 . S
C120 O123 1.252 . S
C120 O124 1.260 . S
C121 O128 1.240 . S
C121 O129 1.252 . S
C122 O125 1.252 . S
C122 O126 1.260 . S
O123 In117 2.266 . S
O123 C120 1.252 . S
O124 In117 2.326 . S
O124 C120 1.260 . S
O125 In117 2.266 . S
O125 C122 1.252 . S
O126 In117 2.326 . S
O126 C122 1.260 . S
C127 O118 1.240 . S
C127 O119 1.252 . S
O128 In117 2.294 . S
O128 C121 1.240 . S
O129 In117 2.326 . S
O129 C121 1.252 . S
In130 O131 2.294 . S
In130 O132 2.326 . S
In130 O136 2.266 . S
In130 O137 2.326 . S
In130 O138 2.266 . S
In130 O139 2.326 1_556 S
In130 O141 2.294 . S
In130 O142 2.326 . S
O131 In130 2.294 . S
O131 C140 1.240 . S
O132 In130 2.326 . S
O132 C140 1.252 . S
C133 O136 1.252 . S
C133 O137 1.260 . S
C134 O141 1.240 . S
C134 O142 1.252 . S
C135 O138 1.252 1_554 S
C135 O139 1.260 . S
O136 In130 2.266 . S
O136 C133 1.252 . S
O137 In130 2.326 . S
O137 C133 1.260 . S
O138 In130 2.266 . S
O138 C135 1.252 1_556 S
O139 In130 2.326 1_554 S
O139 C135 1.260 . S
C140 O131 1.240 . S
C140 O132 1.252 . S
O141 In130 2.294 . S
O141 C134 1.240 . S
O142 In130 2.326 . S
O142 C134 1.252 . S
In143 O144 2.294 . S
In143 O145 2.326 . S
In143 O149 2.266 . S
In143 O150 2.326 . S
In143 O151 2.266 . S
In143 O152 2.326 . S
In143 O154 2.294 . S
In143 O155 2.326 . S
O144 In143 2.294 . S
O144 C153 1.240 . S
O145 In143 2.326 . S
O145 C153 1.252 . S
C146 O149 1.252 . S
C146 O150 1.260 . S
C147 O154 1.240 . S
C147 O155 1.252 . S
C148 O151 1.252 . S
C148 O152 1.260 . S
O149 In143 2.266 . S
O149 C146 1.252 . S
O150 In143 2.326 . S
O150 C146 1.260 . S
O151 In143 2.266 . S
O151 C148 1.252 . S
O152 In143 2.326 . S
O152 C148 1.260 . S
C153 O144 1.240 . S
C153 O145 1.252 . S
O154 In143 2.294 . S
O154 C147 1.240 . S
O155 In143 2.326 . S
O155 C147 1.252 . S
H156 C168 0.930 . S
H157 C170 0.930 . S
H158 C171 0.930 . S
H159 C175 0.959 . S
H160 C175 0.959 . S
H161 C175 0.961 . S
H162 C176 0.960 . S
H163 C176 0.961 . S
H164 C176 0.959 . S
H165 C179 0.929 . S
H166 C180 0.931 . S
H167 C182 0.930 . S
C168 H156 0.930 . S
C168 C169 1.399 . S
C168 C173 1.399 . S
C169 C168 1.399 . S
C169 C170 1.376 . S
C170 H157 0.930 . S
C170 C169 1.376 . S
C170 C171 1.388 . S
C171 H158 0.930 . S
C171 C170 1.388 . S
C171 C172 1.390 . S
C172 C171 1.390 . S
C172 C173 1.394 . S
C172 C178 1.465 . S
C173 C168 1.399 . S
C173 C172 1.394 . S
C173 C174 1.516 . S
C174 C173 1.516 . S
C174 C175 1.502 . S
C174 C176 1.561 . S
C174 C177 1.526 . S
C175 H159 0.959 . S
C175 H160 0.959 . S
C175 H161 0.961 . S
C175 C174 1.502 . S
C176 H162 0.960 . S
C176 H163 0.961 . S
C176 H164 0.959 . S
C176 C174 1.561 . S
C177 C174 1.526 . S
C177 C178 1.396 . S
C177 C182 1.390 . S
C178 C172 1.465 . S
C178 C177 1.396 . S
C178 C179 1.399 . S
C179 H165 0.929 . S
C179 C178 1.399 . S
C179 C180 1.385 . S
C180 H166 0.931 . S
C180 C179 1.385 . S
C180 C181 1.389 . S
C181 C180 1.389 . S
C181 C182 1.387 . S
C182 H167 0.930 . S
C182 C177 1.390 . S
C182 C181 1.387 . S
H183 C195 0.930 . S
H184 C197 0.930 . S
H185 C198 0.930 . S
H186 C202 0.959 . S
H187 C202 0.959 . S
H188 C202 0.961 . S
H189 C203 0.960 . S
H190 C203 0.961 . S
H191 C203 0.959 . S
H192 C206 0.929 . S
H193 C207 0.931 . S
H194 C209 0.930 . S
C195 H183 0.930 . S
C195 C196 1.399 . S
C195 C200 1.399 . S
C196 C195 1.399 . S
C196 C197 1.376 . S
C197 H184 0.930 . S
C197 C196 1.376 . S
C197 C198 1.388 . S
C198 H185 0.930 . S
C198 C197 1.388 . S
C198 C199 1.390 . S
C199 C198 1.390 . S
C199 C200 1.394 . S
C199 C205 1.465 . S
C200 C195 1.399 . S
C200 C199 1.394 . S
C200 C201 1.516 . S
C201 C200 1.516 . S
C201 C202 1.502 . S
C201 C203 1.561 . S
C201 C204 1.526 . S
C202 H186 0.959 . S
C202 H187 0.959 . S
C202 H188 0.961 . S
C202 C201 1.502 . S
C203 H189 0.960 . S
C203 H190 0.961 . S
C203 H191 0.959 . S
C203 C201 1.561 . S
C204 C201 1.526 . S
C204 C205 1.396 . S
C204 C209 1.390 . S
C205 C199 1.465 . S
C205 C204 1.396 . S
C205 C206 1.399 . S
C206 H192 0.929 . S
C206 C205 1.399 . S
C206 C207 1.385 . S
C207 H193 0.931 . S
C207 C206 1.385 . S
C207 C208 1.389 . S
C208 C207 1.389 . S
C208 C209 1.387 . S
C209 H194 0.930 . S
C209 C204 1.390 . S
C209 C208 1.387 . S
H210 C222 0.930 . S
H211 C224 0.930 . S
H212 C225 0.930 . S
H213 C229 0.958 1_554 S
H214 C229 0.941 1_554 S
H215 C229 0.981 . S
H216 C230 0.960 1_556 S
H217 C230 0.961 . S
H218 C230 0.959 . S
H219 C233 0.929 . S
H220 C234 0.931 . S
H221 C236 0.930 . S
C222 H210 0.930 . S
C222 C223 1.399 . S
C222 C227 1.399 . S
C223 C222 1.399 . S
C223 C224 1.376 . S
C224 H211 0.930 . S
C224 C223 1.376 . S
C224 C225 1.388 . S
C225 H212 0.930 . S
C225 C224 1.388 . S
C225 C226 1.390 . S
C226 C225 1.390 . S
C226 C227 1.394 . S
C226 C232 1.465 1_556 S
C227 C222 1.399 . S
C227 C226 1.394 . S
C227 C228 1.517 . S
C228 C227 1.517 . S
C228 C229 1.502 . S
C228 C230 1.561 1_556 S
C228 C231 1.525 1_556 S
C229 H213 0.958 1_556 S
C229 H214 0.941 1_556 S
C229 H215 0.981 . S
C229 C228 1.502 . S
C230 H216 0.960 1_554 S
C230 H217 0.961 . S
C230 H218 0.959 . S
C230 C228 1.561 1_554 S
C231 C228 1.525 1_554 S
C231 C232 1.396 . S
C231 C236 1.390 . S
C232 C226 1.465 1_554 S
C232 C231 1.396 . S
C232 C233 1.399 . S
C233 H219 0.929 . S
C233 C232 1.399 . S
C233 C234 1.385 . S
C234 H220 0.931 . S
C234 C233 1.385 . S
C234 C235 1.389 . S
C235 C234 1.389 . S
C235 C236 1.387 . S
C236 H221 0.930 . S
C236 C231 1.390 . S
C236 C235 1.387 . S
H237 C249 0.930 . S
H238 C251 0.930 . S
H239 C252 0.930 . S
H240 C256 0.959 . S
H241 C256 0.959 . S
H242 C256 0.961 . S
H243 C257 0.960 . S
H244 C257 0.961 . S
H245 C257 0.959 . S
H246 C260 0.929 . S
H247 C261 0.931 . S
H248 C263 0.930 . S
C249 H237 0.930 . S
C249 C250 1.399 . S
C249 C254 1.399 . S
C250 C249 1.399 . S
C250 C251 1.376 . S
C251 H238 0.930 . S
C251 C250 1.376 . S
C251 C252 1.388 . S
C252 H239 0.930 . S
C252 C251 1.388 . S
C252 C253 1.390 . S
C253 C252 1.390 . S
C253 C254 1.394 . S
C253 C259 1.465 . S
C254 C249 1.399 . S
C254 C253 1.394 . S
C254 C255 1.516 . S
C255 C254 1.516 . S
C255 C256 1.502 . S
C255 C257 1.561 . S
C255 C258 1.526 . S
C256 H240 0.959 . S
C256 H241 0.959 . S
C256 H242 0.961 . S
C256 C255 1.502 . S
C257 H243 0.960 . S
C257 H244 0.961 . S
C257 H245 0.959 . S
C257 C255 1.561 . S
C258 C255 1.526 . S
C258 C259 1.396 . S
C258 C263 1.390 . S
C259 C253 1.465 . S
C259 C258 1.396 . S
C259 C260 1.399 . S
C260 H246 0.929 . S
C260 C259 1.399 . S
C260 C261 1.385 . S
C261 H247 0.931 . S
C261 C260 1.385 . S
C261 C262 1.389 . S
C262 C261 1.389 . S
C262 C263 1.387 . S
C263 H248 0.930 . S
C263 C258 1.390 . S
C263 C262 1.387 . S
H264 C276 0.930 . S
H265 C278 0.930 . S
H266 C279 0.930 . S
H267 C283 0.959 . S
H268 C283 0.959 . S
H269 C283 0.961 . S
H270 C284 0.960 . S
H271 C284 0.961 . S
H272 C284 0.959 . S
H273 C287 0.929 . S
H274 C288 0.931 . S
H275 C290 0.930 . S
C276 H264 0.930 . S
C276 C277 1.399 . S
C276 C281 1.399 . S
C277 C276 1.399 . S
C277 C278 1.376 . S
C278 H265 0.930 . S
C278 C277 1.376 . S
C278 C279 1.388 . S
C279 H266 0.930 . S
C279 C278 1.388 . S
C279 C280 1.390 . S
C280 C279 1.390 . S
C280 C281 1.394 . S
C280 C286 1.465 . S
C281 C276 1.399 . S
C281 C280 1.394 . S
C281 C282 1.516 . S
C282 C281 1.516 . S
C282 C283 1.502 . S
C282 C284 1.561 . S
C282 C285 1.526 . S
C283 H267 0.959 . S
C283 H268 0.959 . S
C283 H269 0.961 . S
C283 C282 1.502 . S
C284 H270 0.960 . S
C284 H271 0.961 . S
C284 H272 0.959 . S
C284 C282 1.561 . S
C285 C282 1.526 . S
C285 C286 1.396 . S
C285 C290 1.390 . S
C286 C280 1.465 . S
C286 C285 1.396 . S
C286 C287 1.399 . S
C287 H273 0.929 . S
C287 C286 1.399 . S
C287 C288 1.385 . S
C288 H274 0.931 . S
C288 C287 1.385 . S
C288 C289 1.389 . S
C289 C288 1.389 . S
C289 C290 1.387 . S
C290 H275 0.930 . S
C290 C285 1.390 . S
C290 C289 1.387 . S
H291 C303 0.930 . S
H292 C305 0.930 . S
H293 C306 0.930 . S
H294 C310 0.959 1_556 S
H295 C310 0.959 1_556 S
H296 C310 0.961 . S
H297 C311 0.960 1_554 S
H298 C311 0.961 . S
H299 C311 0.959 . S
H300 C314 0.929 . S
H301 C315 0.931 . S
H302 C317 0.930 . S
C303 H291 0.930 . S
C303 C304 1.399 . S
C303 C308 1.399 . S
C304 C303 1.399 . S
C304 C305 1.376 . S
C305 H292 0.930 . S
C305 C304 1.376 . S
C305 C306 1.388 . S
C306 H293 0.930 . S
C306 C305 1.388 . S
C306 C307 1.390 . S
C307 C306 1.390 . S
C307 C308 1.394 . S
C307 C313 1.465 1_554 S
C308 C303 1.399 . S
C308 C307 1.394 . S
C308 C309 1.523 . S
C309 C308 1.523 . S
C309 C310 1.502 . S
C309 C311 1.561 1_554 S
C309 C312 1.519 1_554 S
C310 H294 0.959 1_554 S
C310 H295 0.959 1_554 S
C310 H296 0.961 . S
C310 C309 1.502 . S
C311 H297 0.960 1_556 S
C311 H298 0.961 . S
C311 H299 0.959 . S
C311 C309 1.561 1_556 S
C312 C309 1.519 1_556 S
C312 C313 1.396 . S
C312 C317 1.390 . S
C313 C307 1.465 1_556 S
C313 C312 1.396 . S
C313 C314 1.399 . S
C314 H300 0.929 . S
C314 C313 1.399 . S
C314 C315 1.385 . S
C315 H301 0.931 . S
C315 C314 1.385 . S
C315 C316 1.389 . S
C316 C315 1.389 . S
C316 C317 1.387 . S
C317 H302 0.930 . S
C317 C312 1.390 . S
C317 C316 1.387 . S
H318 C330 0.930 . S
H319 C332 0.930 . S
H320 C333 0.930 . S
H321 C337 0.959 . S
H322 C337 0.959 . S
H323 C337 0.961 . S
H324 C338 0.960 1_554 S
H325 C338 0.961 . S
H326 C338 0.959 . S
H327 C341 0.929 . S
H328 C342 0.931 . S
H329 C344 0.930 . S
C330 H318 0.930 . S
C330 C331 1.399 . S
C330 C335 1.399 . S
C331 C330 1.399 . S
C331 C332 1.376 . S
C332 H319 0.930 . S
C332 C331 1.376 . S
C332 C333 1.388 1_554 S
C333 H320 0.930 . S
C333 C332 1.388 1_556 S
C333 C334 1.390 . S
C334 C333 1.390 . S
C334 C335 1.394 1_556 S
C334 C340 1.465 . S
C335 C330 1.399 . S
C335 C334 1.394 1_554 S
C335 C336 1.516 . S
C336 C335 1.516 . S
C336 C337 1.502 . S
C336 C338 1.561 1_554 S
C336 C339 1.526 1_554 S
C337 H321 0.959 . S
C337 H322 0.959 . S
C337 H323 0.961 . S
C337 C336 1.502 . S
C338 H324 0.960 1_556 S
C338 H325 0.961 . S
C338 H326 0.959 . S
C338 C336 1.561 1_556 S
C339 C336 1.526 1_556 S
C339 C340 1.396 . S
C339 C344 1.390 . S
C340 C334 1.465 . S
C340 C339 1.396 . S
C340 C341 1.399 . S
C341 H327 0.929 . S
C341 C340 1.399 . S
C341 C342 1.385 . S
C342 H328 0.931 . S
C342 C341 1.385 . S
C342 C343 1.389 . S
C343 C342 1.389 . S
C343 C344 1.387 . S
C344 H329 0.930 . S
C344 C339 1.390 . S
C344 C343 1.387 . S
H345 C357 0.930 . S
H346 C359 0.930 . S
H347 C360 0.930 . S
H348 C364 0.959 . S
H349 C364 0.959 . S
H350 C364 0.961 . S
H351 C365 0.960 . S
H352 C365 0.961 . S
H353 C365 0.959 . S
H354 C368 0.929 . S
H355 C369 0.931 . S
H356 C371 0.930 . S
C357 H345 0.930 . S
C357 C358 1.399 . S
C357 C362 1.399 . S
C358 C357 1.399 . S
C358 C359 1.376 . S
C359 H346 0.930 . S
C359 C358 1.376 . S
C359 C360 1.388 . S
C360 H347 0.930 . S
C360 C359 1.388 . S
C360 C361 1.390 . S
C361 C360 1.390 . S
C361 C362 1.394 . S
C361 C367 1.465 . S
C362 C357 1.399 . S
C362 C361 1.394 . S
C362 C363 1.516 . S
C363 C362 1.516 . S
C363 C364 1.502 . S
C363 C365 1.561 . S
C363 C366 1.526 . S
C364 H348 0.959 . S
C364 H349 0.959 . S
C364 H350 0.961 . S
C364 C363 1.502 . S
C365 H351 0.960 . S
C365 H352 0.961 . S
C365 H353 0.959 . S
C365 C363 1.561 . S
C366 C363 1.526 . S
C366 C367 1.396 . S
C366 C371 1.390 . S
C367 C361 1.465 . S
C367 C366 1.396 . S
C367 C368 1.399 . S
C368 H354 0.929 . S
C368 C367 1.399 . S
C368 C369 1.385 . S
C369 H355 0.931 . S
C369 C368 1.385 . S
C369 C370 1.389 . S
C370 C369 1.389 . S
C370 C371 1.387 . S
C371 H356 0.930 . S
C371 C366 1.390 . S
C371 C370 1.387 . S
H372 C384 0.930 . S
H373 C386 0.930 . S
H374 C387 0.930 . S
H375 C391 0.959 . S
H376 C391 0.959 . S
H377 C391 0.961 . S
H378 C392 0.960 . S
H379 C392 0.961 . S
H380 C392 0.959 . S
H381 C395 0.929 . S
H382 C396 0.931 . S
H383 C398 0.930 . S
C384 H372 0.930 . S
C384 C385 1.399 . S
C384 C389 1.399 . S
C385 C384 1.399 . S
C385 C386 1.376 . S
C386 H373 0.930 . S
C386 C385 1.376 . S
C386 C387 1.388 . S
C387 H374 0.930 . S
C387 C386 1.388 . S
C387 C388 1.390 . S
C388 C387 1.390 . S
C388 C389 1.394 . S
C388 C394 1.465 . S
C389 C384 1.399 . S
C389 C388 1.394 . S
C389 C390 1.516 . S
C390 C389 1.516 . S
C390 C391 1.502 . S
C390 C392 1.561 . S
C390 C393 1.526 . S
C391 H375 0.959 . S
C391 H376 0.959 . S
C391 H377 0.961 . S
C391 C390 1.502 . S
C392 H378 0.960 . S
C392 H379 0.961 . S
C392 H380 0.959 . S
C392 C390 1.561 . S
C393 C390 1.526 . S
C393 C394 1.396 . S
C393 C398 1.390 . S
C394 C388 1.465 . S
C394 C393 1.396 . S
C394 C395 1.399 . S
C395 H381 0.929 . S
C395 C394 1.399 . S
C395 C396 1.385 . S
C396 H382 0.931 . S
C396 C395 1.385 . S
C396 C397 1.389 . S
C397 C396 1.389 . S
C397 C398 1.387 . S
C398 H383 0.930 . S
C398 C393 1.390 . S
C398 C397 1.387 . S
H399 C411 0.930 . S
H400 C413 0.930 . S
H401 C414 0.930 . S
H402 C418 0.959 . S
H403 C418 0.959 . S
H404 C418 0.961 . S
H405 C419 0.960 . S
H406 C419 0.961 . S
H407 C419 0.959 . S
H408 C422 0.929 . S
H409 C423 0.931 . S
H410 C425 0.930 . S
C411 H399 0.930 . S
C411 C412 1.399 . S
C411 C416 1.399 . S
C412 C411 1.399 . S
C412 C413 1.376 . S
C413 H400 0.930 . S
C413 C412 1.376 . S
C413 C414 1.388 . S
C414 H401 0.930 . S
C414 C413 1.388 . S
C414 C415 1.390 . S
C415 C414 1.390 . S
C415 C416 1.394 . S
C415 C421 1.465 . S
C416 C411 1.399 . S
C416 C415 1.394 . S
C416 C417 1.516 1_554 S
C417 C416 1.516 1_556 S
C417 C418 1.502 . S
C417 C419 1.561 1_556 S
C417 C420 1.526 . S
C418 H402 0.959 . S
C418 H403 0.959 . S
C418 H404 0.961 . S
C418 C417 1.502 . S
C419 H405 0.960 . S
C419 H406 0.961 . S
C419 H407 0.959 . S
C419 C417 1.561 1_554 S
C420 C417 1.526 . S
C420 C421 1.396 1_556 S
C420 C425 1.390 . S
C421 C415 1.465 . S
C421 C420 1.396 1_554 S
C421 C422 1.399 . S
C422 H408 0.929 . S
C422 C421 1.399 . S
C422 C423 1.385 1_554 S
C423 H409 0.931 . S
C423 C422 1.385 1_556 S
C423 C424 1.389 . S
C424 C423 1.389 . S
C424 C425 1.387 . S
C425 H410 0.930 . S
C425 C420 1.390 . S
C425 C424 1.387 . S
H426 C438 0.930 . S
H427 C440 0.930 . S
H428 C441 0.930 . S
H429 C445 0.959 . S
H430 C445 0.959 . S
H431 C445 0.961 . S
H432 C446 0.960 . S
H433 C446 0.961 . S
H434 C446 0.959 . S
H435 C449 0.929 . S
H436 C450 0.931 . S
H437 C452 0.930 . S
C438 H426 0.930 . S
C438 C439 1.399 . S
C438 C443 1.399 . S
C439 C438 1.399 . S
C439 C440 1.376 . S
C440 H427 0.930 . S
C440 C439 1.376 . S
C440 C441 1.388 . S
C441 H428 0.930 . S
C441 C440 1.388 . S
C441 C442 1.390 . S
C442 C441 1.390 . S
C442 C443 1.394 . S
C442 C448 1.465 . S
C443 C438 1.399 . S
C443 C442 1.394 . S
C443 C444 1.516 . S
C444 C443 1.516 . S
C444 C445 1.502 . S
C444 C446 1.561 . S
C444 C447 1.526 . S
C445 H429 0.959 . S
C445 H430 0.959 . S
C445 H431 0.961 . S
C445 C444 1.502 . S
C446 H432 0.960 . S
C446 H433 0.961 . S
C446 H434 0.959 . S
C446 C444 1.561 . S
C447 C444 1.526 . S
C447 C448 1.396 . S
C447 C452 1.390 . S
C448 C442 1.465 . S
C448 C447 1.396 . S
C448 C449 1.399 . S
C449 H435 0.929 . S
C449 C448 1.399 . S
C449 C450 1.385 . S
C450 H436 0.931 . S
C450 C449 1.385 . S
C450 C451 1.389 . S
C451 C450 1.389 . S
C451 C452 1.387 . S
C452 H437 0.930 . S
C452 C447 1.390 . S
C452 C451 1.387 . S
H453 C465 0.930 . S
H454 C467 0.930 . S
H455 C468 0.930 . S
H456 C472 0.959 . S
H457 C472 0.959 . S
H458 C472 0.961 . S
H459 C473 0.960 . S
H460 C473 0.961 . S
H461 C473 0.959 . S
H462 C476 0.929 . S
H463 C477 0.931 . S
H464 C479 0.930 . S
C465 H453 0.930 . S
C465 C466 1.399 . S
C465 C470 1.399 . S
C466 C465 1.399 . S
C466 C467 1.376 . S
C467 H454 0.930 . S
C467 C466 1.376 . S
C467 C468 1.388 . S
C468 H455 0.930 . S
C468 C467 1.388 . S
C468 C469 1.390 . S
C469 C468 1.390 . S
C469 C470 1.394 . S
C469 C475 1.465 . S
C470 C465 1.399 . S
C470 C469 1.394 . S
C470 C471 1.516 . S
C471 C470 1.516 . S
C471 C472 1.502 . S
C471 C473 1.561 . S
C471 C474 1.526 . S
C472 H456 0.959 . S
C472 H457 0.959 . S
C472 H458 0.961 . S
C472 C471 1.502 . S
C473 H459 0.960 . S
C473 H460 0.961 . S
C473 H461 0.959 . S
C473 C471 1.561 . S
C474 C471 1.526 . S
C474 C475 1.396 . S
C474 C479 1.390 . S
C475 C469 1.465 . S
C475 C474 1.396 . S
C475 C476 1.399 . S
C476 H462 0.929 . S
C476 C475 1.399 . S
C476 C477 1.385 . S
C477 H463 0.931 . S
C477 C476 1.385 . S
C477 C478 1.389 . S
C478 C477 1.389 . S
C478 C479 1.387 . S
C479 H464 0.930 . S
C479 C474 1.390 . S
C479 C478 1.387 . S
H480 C492 0.930 . S
H481 C494 0.930 . S
H482 C495 0.930 . S
H483 C499 0.959 . S
H484 C499 0.959 . S
H485 C499 0.961 . S
H486 C500 0.960 . S
H487 C500 0.961 . S
H488 C500 0.959 . S
H489 C503 0.929 . S
H490 C504 0.931 . S
H491 C506 0.930 . S
C492 H480 0.930 . S
C492 C493 1.399 . S
C492 C497 1.399 . S
C493 C492 1.399 . S
C493 C494 1.376 . S
C494 H481 0.930 . S
C494 C493 1.376 . S
C494 C495 1.388 . S
C495 H482 0.930 . S
C495 C494 1.388 . S
C495 C496 1.390 . S
C496 C495 1.390 . S
C496 C497 1.394 . S
C496 C502 1.465 . S
C497 C492 1.399 . S
C497 C496 1.394 . S
C497 C498 1.516 . S
C498 C497 1.516 . S
C498 C499 1.502 . S
C498 C500 1.561 . S
C498 C501 1.526 . S
C499 H483 0.959 . S
C499 H484 0.959 . S
C499 H485 0.961 . S
C499 C498 1.502 . S
C500 H486 0.960 . S
C500 H487 0.961 . S
C500 H488 0.959 . S
C500 C498 1.561 . S
C501 C498 1.526 . S
C501 C502 1.396 . S
C501 C506 1.390 . S
C502 C496 1.465 . S
C502 C501 1.396 . S
C502 C503 1.399 . S
C503 H489 0.929 . S
C503 C502 1.399 . S
C503 C504 1.385 . S
C504 H490 0.931 . S
C504 C503 1.385 . S
C504 C505 1.389 . S
C505 C504 1.389 . S
C505 C506 1.387 . S
C506 H491 0.930 . S
C506 C501 1.390 . S
C506 C505 1.387 . S
H507 C519 0.930 . S
H508 C521 0.930 . S
H509 C522 0.930 . S
H510 C526 0.959 . S
H511 C526 0.959 . S
H512 C526 0.945 1_655 S
H513 C527 0.960 . S
H514 C527 0.961 1_455 S
H515 C527 0.959 . S
H516 C530 0.929 . S
H517 C531 0.931 . S
H518 C533 0.930 . S
C519 H507 0.930 . S
C519 C520 1.399 . S
C519 C524 1.399 . S
C520 C519 1.399 . S
C520 C521 1.376 . S
C521 H508 0.930 . S
C521 C520 1.376 . S
C521 C522 1.388 . S
C522 H509 0.930 . S
C522 C521 1.388 . S
C522 C523 1.390 . S
C523 C522 1.390 . S
C523 C524 1.394 . S
C523 C529 1.465 1_655 S
C524 C519 1.399 . S
C524 C523 1.394 . S
C524 C525 1.516 1_655 S
C525 C524 1.516 1_455 S
C525 C526 1.502 . S
C525 C527 1.561 1_455 S
C525 C528 1.526 . S
C526 H510 0.959 . S
C526 H511 0.959 . S
C526 H512 0.945 1_455 S
C526 C525 1.502 . S
C527 H513 0.960 . S
C527 H514 0.961 1_655 S
C527 H515 0.959 . S
C527 C525 1.561 1_655 S
C528 C525 1.526 . S
C528 C529 1.396 . S
C528 C533 1.390 . S
C529 C523 1.465 1_455 S
C529 C528 1.396 . S
C529 C530 1.399 . S
C530 H516 0.929 . S
C530 C529 1.399 . S
C530 C531 1.385 . S
C531 H517 0.931 . S
C531 C530 1.385 . S
C531 C532 1.389 . S
C532 C531 1.389 . S
C532 C533 1.387 . S
C533 H518 0.930 . S
C533 C528 1.390 . S
C533 C532 1.387 . S
H534 C546 0.930 . S
H535 C548 0.930 . S
H536 C549 0.930 . S
H537 C553 0.959 . S
H538 C553 0.959 1_565 S
H539 C553 0.961 . S
H540 C554 0.960 1_545 S
H541 C554 0.961 . S
H542 C554 0.959 . S
H543 C557 0.929 . S
H544 C558 0.931 . S
H545 C560 0.930 . S
C546 H534 0.930 . S
C546 C547 1.399 . S
C546 C551 1.399 . S
C547 C546 1.399 . S
C547 C548 1.376 . S
C548 H535 0.930 . S
C548 C547 1.376 . S
C548 C549 1.388 . S
C549 H536 0.930 . S
C549 C548 1.388 . S
C549 C550 1.390 . S
C550 C549 1.390 . S
C550 C551 1.394 . S
C550 C556 1.465 1_545 S
C551 C546 1.399 . S
C551 C550 1.394 . S
C551 C552 1.516 . S
C552 C551 1.516 . S
C552 C553 1.502 . S
C552 C554 1.561 1_545 S
C552 C555 1.526 1_545 S
C553 H537 0.959 . S
C553 H538 0.959 1_545 S
C553 H539 0.961 . S
C553 C552 1.502 . S
C554 H540 0.960 1_565 S
C554 H541 0.961 . S
C554 H542 0.959 . S
C554 C552 1.561 1_565 S
C555 C552 1.526 1_565 S
C555 C556 1.396 . S
C555 C560 1.390 . S
C556 C550 1.465 1_565 S
C556 C555 1.396 . S
C556 C557 1.399 . S
C557 H543 0.929 . S
C557 C556 1.399 . S
C557 C558 1.385 . S
C558 H544 0.931 . S
C558 C557 1.385 . S
C558 C559 1.389 . S
C559 C558 1.389 . S
C559 C560 1.387 . S
C560 H545 0.930 . S
C560 C555 1.390 . S
C560 C559 1.387 . S
H561 C573 0.930 . S
H562 C575 0.930 . S
H563 C576 0.930 . S
H564 C580 0.959 . S
H565 C580 0.959 . S
H566 C580 0.961 . S
H567 C581 0.960 . S
H568 C581 0.961 . S
H569 C581 0.959 . S
H570 C584 0.929 . S
H571 C585 0.931 . S
H572 C587 0.930 . S
C573 H561 0.930 . S
C573 C574 1.399 . S
C573 C578 1.399 . S
C574 C573 1.399 . S
C574 C575 1.376 . S
C575 H562 0.930 . S
C575 C574 1.376 . S
C575 C576 1.388 . S
C576 H563 0.930 . S
C576 C575 1.388 . S
C576 C577 1.390 . S
C577 C576 1.390 . S
C577 C578 1.394 . S
C577 C583 1.465 . S
C578 C573 1.399 . S
C578 C577 1.394 . S
C578 C579 1.516 . S
C579 C578 1.516 . S
C579 C580 1.502 . S
C579 C581 1.561 . S
C579 C582 1.526 . S
C580 H564 0.959 . S
C580 H565 0.959 . S
C580 H566 0.961 . S
C580 C579 1.502 . S
C581 H567 0.960 . S
C581 H568 0.961 . S
C581 H569 0.959 . S
C581 C579 1.561 . S
C582 C579 1.526 . S
C582 C583 1.396 . S
C582 C587 1.390 . S
C583 C577 1.465 . S
C583 C582 1.396 . S
C583 C584 1.399 . S
C584 H570 0.929 . S
C584 C583 1.399 . S
C584 C585 1.385 . S
C585 H571 0.931 . S
C585 C584 1.385 . S
C585 C586 1.389 . S
C586 C585 1.389 . S
C586 C587 1.387 . S
C587 H572 0.930 . S
C587 C582 1.390 . S
C587 C586 1.387 . S
H588 C600 0.930 . S
H589 C602 0.930 . S
H590 C603 0.930 . S
H591 C607 0.959 . S
H592 C607 0.959 1_655 S
H593 C607 0.961 . S
H594 C608 0.960 1_455 S
H595 C608 0.961 . S
H596 C608 0.959 . S
H597 C611 0.929 . S
H598 C612 0.931 . S
H599 C614 0.930 . S
C600 H588 0.930 . S
C600 C601 1.399 . S
C600 C605 1.399 . S
C601 C600 1.399 . S
C601 C602 1.376 . S
C602 H589 0.930 . S
C602 C601 1.376 . S
C602 C603 1.388 . S
C603 H590 0.930 . S
C603 C602 1.388 . S
C603 C604 1.390 . S
C604 C603 1.390 . S
C604 C605 1.394 . S
C604 C610 1.465 1_455 S
C605 C600 1.399 . S
C605 C604 1.394 . S
C605 C606 1.516 . S
C606 C605 1.516 . S
C606 C607 1.502 . S
C606 C608 1.561 1_455 S
C606 C609 1.526 1_455 S
C607 H591 0.959 . S
C607 H592 0.959 1_455 S
C607 H593 0.961 . S
C607 C606 1.502 . S
C608 H594 0.960 1_655 S
C608 H595 0.961 . S
C608 H596 0.959 . S
C608 C606 1.561 1_655 S
C609 C606 1.526 1_655 S
C609 C610 1.396 . S
C609 C614 1.390 . S
C610 C604 1.465 1_655 S
C610 C609 1.396 . S
C610 C611 1.399 . S
C611 H597 0.929 . S
C611 C610 1.399 . S
C611 C612 1.385 . S
C612 H598 0.931 . S
C612 C611 1.385 . S
C612 C613 1.389 . S
C613 C612 1.389 . S
C613 C614 1.387 . S
C614 H599 0.930 . S
C614 C609 1.390 . S
C614 C613 1.387 . S
H615 C627 0.930 . S
H616 C629 0.930 . S
H617 C630 0.930 . S
H618 C634 0.959 . S
H619 C634 0.959 . S
H620 C634 0.957 1_565 S
H621 C635 0.960 . S
H622 C635 0.961 1_545 S
H623 C635 0.959 . S
H624 C638 0.929 . S
H625 C639 0.931 . S
H626 C641 0.930 . S
C627 H615 0.930 . S
C627 C628 1.399 . S
C627 C632 1.399 . S
C628 C627 1.399 . S
C628 C629 1.376 . S
C629 H616 0.930 . S
C629 C628 1.376 . S
C629 C630 1.388 . S
C630 H617 0.930 . S
C630 C629 1.388 . S
C630 C631 1.390 . S
C631 C630 1.390 . S
C631 C632 1.394 . S
C631 C637 1.465 1_565 S
C632 C627 1.399 . S
C632 C631 1.394 . S
C632 C633 1.516 1_565 S
C633 C632 1.516 1_545 S
C633 C634 1.502 . S
C633 C635 1.561 1_545 S
C633 C636 1.526 . S
C634 H618 0.959 . S
C634 H619 0.959 . S
C634 H620 0.957 1_545 S
C634 C633 1.502 . S
C635 H621 0.960 . S
C635 H622 0.961 1_565 S
C635 H623 0.959 . S
C635 C633 1.561 1_565 S
C636 C633 1.526 . S
C636 C637 1.396 . S
C636 C641 1.390 . S
C637 C631 1.465 1_545 S
C637 C636 1.396 . S
C637 C638 1.399 . S
C638 H624 0.929 . S
C638 C637 1.399 . S
C638 C639 1.385 . S
C639 H625 0.931 . S
C639 C638 1.385 . S
C639 C640 1.389 . S
C640 C639 1.389 . S
C640 C641 1.387 . S
C641 H626 0.930 . S
C641 C636 1.390 . S
C641 C640 1.387 . S
H642 C654 0.930 . S
H643 C656 0.930 . S
H644 C657 0.930 . S
H645 C661 0.959 . S
H646 C661 0.959 . S
H647 C661 0.961 . S
H648 C662 0.960 . S
H649 C662 0.961 . S
H650 C662 0.959 . S
H651 C665 0.929 . S
H652 C666 0.931 . S
H653 C668 0.930 . S
C654 H642 0.930 . S
C654 C655 1.399 . S
C654 C659 1.399 . S
C655 C654 1.399 . S
C655 C656 1.376 . S
C656 H643 0.930 . S
C656 C655 1.376 . S
C656 C657 1.388 . S
C657 H644 0.930 . S
C657 C656 1.388 . S
C657 C658 1.390 . S
C658 C657 1.390 . S
C658 C659 1.394 . S
C658 C664 1.465 . S
C659 C654 1.399 . S
C659 C658 1.394 . S
C659 C660 1.516 . S
C660 C659 1.516 . S
C660 C661 1.502 . S
C660 C662 1.561 . S
C660 C663 1.526 . S
C661 H645 0.959 . S
C661 H646 0.959 . S
C661 H647 0.961 . S
C661 C660 1.502 . S
C662 H648 0.960 . S
C662 H649 0.961 . S
C662 H650 0.959 . S
C662 C660 1.561 . S
C663 C660 1.526 . S
C663 C664 1.396 . S
C663 C668 1.390 . S
C664 C658 1.465 . S
C664 C663 1.396 . S
C664 C665 1.399 . S
C665 H651 0.929 . S
C665 C664 1.399 . S
C665 C666 1.385 . S
C666 H652 0.931 . S
C666 C665 1.385 . S
C666 C667 1.389 . S
C667 C666 1.389 . S
C667 C668 1.387 . S
C668 H653 0.930 . S
C668 C663 1.390 . S
C668 C667 1.387 . S
H669 C681 0.930 . S
H670 C683 0.930 . S
H671 C684 0.930 . S
H672 C688 0.959 . S
H673 C688 0.959 . S
H674 C688 0.961 . S
H675 C689 0.960 . S
H676 C689 0.961 . S
H677 C689 0.959 . S
H678 C692 0.929 . S
H679 C693 0.931 . S
H680 C695 0.930 . S
C681 H669 0.930 . S
C681 C682 1.399 . S
C681 C686 1.399 . S
C682 C681 1.399 . S
C682 C683 1.376 . S
C683 H670 0.930 . S
C683 C682 1.376 . S
C683 C684 1.388 . S
C684 H671 0.930 . S
C684 C683 1.388 . S
C684 C685 1.390 . S
C685 C684 1.390 . S
C685 C686 1.394 . S
C685 C691 1.465 . S
C686 C681 1.399 . S
C686 C685 1.394 . S
C686 C687 1.516 . S
C687 C686 1.516 . S
C687 C688 1.502 . S
C687 C689 1.561 . S
C687 C690 1.526 . S
C688 H672 0.959 . S
C688 H673 0.959 . S
C688 H674 0.961 . S
C688 C687 1.502 . S
C689 H675 0.960 . S
C689 H676 0.961 . S
C689 H677 0.959 . S
C689 C687 1.561 . S
C690 C687 1.526 . S
C690 C691 1.396 . S
C690 C695 1.390 . S
C691 C685 1.465 . S
C691 C690 1.396 . S
C691 C692 1.399 . S
C692 H678 0.929 . S
C692 C691 1.399 . S
C692 C693 1.385 . S
C693 H679 0.931 . S
C693 C692 1.385 . S
C693 C694 1.389 . S
C694 C693 1.389 . S
C694 C695 1.387 . S
C695 H680 0.930 . S
C695 C690 1.390 . S
C695 C694 1.387 . S
H696 C708 0.930 . S
H697 C710 0.930 . S
H698 C711 0.930 . S
H699 C715 0.959 . S
H700 C715 0.959 . S
H701 C715 0.961 . S
H702 C716 0.960 . S
H703 C716 0.961 . S
H704 C716 0.959 . S
H705 C719 0.929 . S
H706 C720 0.931 . S
H707 C722 0.930 . S
C708 H696 0.930 . S
C708 C709 1.399 . S
C708 C713 1.399 . S
C709 C708 1.399 . S
C709 C710 1.376 . S
C710 H697 0.930 . S
C710 C709 1.376 . S
C710 C711 1.388 . S
C711 H698 0.930 . S
C711 C710 1.388 . S
C711 C712 1.390 . S
C712 C711 1.390 . S
C712 C713 1.394 . S
C712 C718 1.465 . S
C713 C708 1.399 . S
C713 C712 1.394 . S
C713 C714 1.516 . S
C714 C713 1.516 . S
C714 C715 1.502 . S
C714 C716 1.561 . S
C714 C717 1.526 . S
C715 H699 0.959 . S
C715 H700 0.959 . S
C715 H701 0.961 . S
C715 C714 1.502 . S
C716 H702 0.960 . S
C716 H703 0.961 . S
C716 H704 0.959 . S
C716 C714 1.561 . S
C717 C714 1.526 . S
C717 C718 1.396 . S
C717 C722 1.390 . S
C718 C712 1.465 . S
C718 C717 1.396 . S
C718 C719 1.399 . S
C719 H705 0.929 . S
C719 C718 1.399 . S
C719 C720 1.385 . S
C720 H706 0.931 . S
C720 C719 1.385 . S
C720 C721 1.389 . S
C721 C720 1.389 . S
C721 C722 1.387 . S
C722 H707 0.930 . S
C722 C717 1.390 . S
C722 C721 1.387 . S
H723 C735 0.930 . S
H724 C737 0.930 . S
H725 C738 0.930 . S
H726 C742 0.959 . S
H727 C742 0.959 . S
H728 C742 0.961 . S
H729 C743 0.960 . S
H730 C743 0.961 . S
H731 C743 0.959 . S
H732 C746 0.929 . S
H733 C747 0.931 . S
H734 C749 0.930 . S
C735 H723 0.930 . S
C735 C736 1.399 . S
C735 C740 1.399 . S
C736 C735 1.399 . S
C736 C737 1.376 . S
C737 H724 0.930 . S
C737 C736 1.376 . S
C737 C738 1.388 . S
C738 H725 0.930 . S
C738 C737 1.388 . S
C738 C739 1.390 . S
C739 C738 1.390 . S
C739 C740 1.394 . S
C739 C745 1.465 . S
C740 C735 1.399 . S
C740 C739 1.394 . S
C740 C741 1.516 . S
C741 C740 1.516 . S
C741 C742 1.502 . S
C741 C743 1.561 . S
C741 C744 1.526 . S
C742 H726 0.959 . S
C742 H727 0.959 . S
C742 H728 0.961 . S
C742 C741 1.502 . S
C743 H729 0.960 . S
C743 H730 0.961 . S
C743 H731 0.959 . S
C743 C741 1.561 . S
C744 C741 1.526 . S
C744 C745 1.396 . S
C744 C749 1.390 . S
C745 C739 1.465 . S
C745 C744 1.396 . S
C745 C746 1.399 . S
C746 H732 0.929 . S
C746 C745 1.399 . S
C746 C747 1.385 . S
C747 H733 0.931 . S
C747 C746 1.385 . S
C747 C748 1.389 . S
C748 C747 1.389 . S
C748 C749 1.387 . S
C749 H734 0.930 . S
C749 C744 1.390 . S
C749 C748 1.387 . S
H750 C762 0.930 . S
H751 C764 0.930 . S
H752 C765 0.930 . S
H753 C769 0.959 . S
H754 C769 0.959 . S
H755 C769 0.961 . S
H756 C770 0.960 . S
H757 C770 0.961 . S
H758 C770 0.959 . S
H759 C773 0.929 . S
H760 C774 0.931 . S
H761 C776 0.930 . S
C762 H750 0.930 . S
C762 C763 1.399 . S
C762 C767 1.399 . S
C763 C762 1.399 . S
C763 C764 1.376 . S
C764 H751 0.930 . S
C764 C763 1.376 . S
C764 C765 1.388 . S
C765 H752 0.930 . S
C765 C764 1.388 . S
C765 C766 1.390 . S
C766 C765 1.390 . S
C766 C767 1.394 . S
C766 C772 1.465 . S
C767 C762 1.399 . S
C767 C766 1.394 . S
C767 C768 1.516 . S
C768 C767 1.516 . S
C768 C769 1.502 . S
C768 C770 1.561 . S
C768 C771 1.526 . S
C769 H753 0.959 . S
C769 H754 0.959 . S
C769 H755 0.961 . S
C769 C768 1.502 . S
C770 H756 0.960 . S
C770 H757 0.961 . S
C770 H758 0.959 . S
C770 C768 1.561 . S
C771 C768 1.526 . S
C771 C772 1.396 . S
C771 C776 1.390 . S
C772 C766 1.465 . S
C772 C771 1.396 . S
C772 C773 1.399 . S
C773 H759 0.929 . S
C773 C772 1.399 . S
C773 C774 1.385 . S
C774 H760 0.931 . S
C774 C773 1.385 . S
C774 C775 1.389 . S
C775 C774 1.389 . S
C775 C776 1.387 . S
C776 H761 0.930 . S
C776 C771 1.390 . S
C776 C775 1.387 . S
H777 C789 0.930 . S
H778 C791 0.930 . S
H779 C792 0.930 . S
H780 C796 0.959 . S
H781 C796 0.959 . S
H782 C796 0.961 . S
H783 C797 0.960 . S
H784 C797 0.961 . S
H785 C797 0.959 . S
H786 C800 0.929 . S
H787 C801 0.931 . S
H788 C803 0.930 . S
C789 H777 0.930 . S
C789 C790 1.399 . S
C789 C794 1.399 . S
C790 C789 1.399 . S
C790 C791 1.376 . S
C791 H778 0.930 . S
C791 C790 1.376 . S
C791 C792 1.388 . S
C792 H779 0.930 . S
C792 C791 1.388 . S
C792 C793 1.390 . S
C793 C792 1.390 . S
C793 C794 1.394 . S
C793 C799 1.465 . S
C794 C789 1.399 . S
C794 C793 1.394 . S
C794 C795 1.516 . S
C795 C794 1.516 . S
C795 C796 1.502 . S
C795 C797 1.561 . S
C795 C798 1.526 . S
C796 H780 0.959 . S
C796 H781 0.959 . S
C796 H782 0.961 . S
C796 C795 1.502 . S
C797 H783 0.960 . S
C797 H784 0.961 . S
C797 H785 0.959 . S
C797 C795 1.561 . S
C798 C795 1.526 . S
C798 C799 1.396 . S
C798 C803 1.390 . S
C799 C793 1.465 . S
C799 C798 1.396 . S
C799 C800 1.399 . S
C800 H786 0.929 . S
C800 C799 1.399 . S
C800 C801 1.385 . S
C801 H787 0.931 . S
C801 C800 1.385 . S
C801 C802 1.389 . S
C802 C801 1.389 . S
C802 C803 1.387 . S
C803 H788 0.930 . S
C803 C798 1.390 . S
C803 C802 1.387 . S
C169 C10 1.414 . S
C181 C88 1.374 . S
C196 C23 1.402 . S
C208 C101 1.417 . S
C223 C36 1.372 . S
C235 C114 1.394 . S
C250 C49 1.377 . S
C262 C127 1.417 . S
C277 C62 1.399 . S
C289 C134 1.418 . S
C304 C147 1.371 . S
C316 C75 1.397 . S
C331 C5 1.355 . S
C343 C133 1.381 . S
C358 C18 1.331 . S
C370 C146 1.366 . S
C385 C31 1.382 . S
C397 C83 1.354 . S
C412 C44 1.356 . S
C424 C96 1.332 . S
C439 C57 1.335 . S
C451 C109 1.346 . S
C466 C70 1.334 . S
C478 C122 1.348 . S
C493 C4 1.461 . S
C505 C43 1.425 . S
C520 C17 1.426 . S
C532 C56 1.465 . S
C547 C69 1.458 . S
C559 C30 1.426 . S
C574 C82 1.465 . S
C586 C121 1.421 . S
C601 C140 1.461 . S
C613 C95 1.424 . S
C628 C108 1.425 . S
C640 C153 1.466 . S
C655 C81 1.154 . S
C667 C3 1.067 . S
C682 C16 1.062 . S
C694 C94 1.149 . S
C709 C29 1.089 . S
C721 C107 1.143 . S
C736 C120 1.091 . S
C748 C42 1.109 . S
C763 C135 1.087 . S
C775 C55 1.113 . S
C790 C68 1.114 . S
C802 C148 1.086 . S
