# Generated by pormake.
# Topology tfs, (6)-cn, num edge types: 1
# Building blocks:
#     Node 0, Type 0, BuildingBlock: BETFEN_clean_sbu_0, # of connection points: 6
#     Node 1, Type 0, BuildingBlock: BETFEN_clean_sbu_0, # of connection points: 6
#     Node 2, Type 0, BuildingBlock: BETFEN_clean_sbu_0, # of connection points: 6
#     Node 3, Type 0, BuildingBlock: BETFEN_clean_sbu_0, # of connection points: 6
#     Node 4, Type 0, BuildingBlock: BETFEN_clean_sbu_0, # of connection points: 6
#     Node 5, Type 0, BuildingBlock: BETFEN_clean_sbu_0, # of connection points: 6
#     Edge 6, Type (0, 0), BuildingBlock: EZIPEK_clean_linker_0, # of connection points: 2
#     Edge 7, Type (0, 0), BuildingBlock: EZIPEK_clean_linker_0, # of connection points: 2
#     Edge 8, Type (0, 0), BuildingBlock: EZIPEK_clean_linker_0, # of connection points: 2
#     Edge 9, Type (0, 0), BuildingBlock: EZIPEK_clean_linker_0, # of connection points: 2
#     Edge 10, Type (0, 0), BuildingBlock: EZIPEK_clean_linker_0, # of connection points: 2
#     Edge 11, Type (0, 0), BuildingBlock: EZIPEK_clean_linker_0, # of connection points: 2
#     Edge 12, Type (0, 0), BuildingBlock: EZIPEK_clean_linker_0, # of connection points: 2
#     Edge 13, Type (0, 0), BuildingBlock: EZIPEK_clean_linker_0, # of connection points: 2
#     Edge 14, Type (0, 0), BuildingBlock: EZIPEK_clean_linker_0, # of connection points: 2
#     Edge 15, Type (0, 0), BuildingBlock: EZIPEK_clean_linker_0, # of connection points: 2
#     Edge 16, Type (0, 0), BuildingBlock: EZIPEK_clean_linker_0, # of connection points: 2
#     Edge 17, Type (0, 0), BuildingBlock: EZIPEK_clean_linker_0, # of connection points: 2
#     Edge 18, Type (0, 0), BuildingBlock: EZIPEK_clean_linker_0, # of connection points: 2
#     Edge 19, Type (0, 0), BuildingBlock: EZIPEK_clean_linker_0, # of connection points: 2
#     Edge 20, Type (0, 0), BuildingBlock: EZIPEK_clean_linker_0, # of connection points: 2
#     Edge 21, Type (0, 0), BuildingBlock: EZIPEK_clean_linker_0, # of connection points: 2
#     Edge 22, Type (0, 0), BuildingBlock: EZIPEK_clean_linker_0, # of connection points: 2
#     Edge 23, Type (0, 0), BuildingBlock: EZIPEK_clean_linker_0, # of connection points: 2
# Relax obj value: 0.608
# Max RMSD: 0.476
# Mean RMSD: 0.366
data_MOF--net-tfs--node1-BETFEN_clean_sbu_0--edge1-EZIPEK_clean_linker_0
_symmetry_space_group_name_H-M    P1
_symmetry_Int_Tables_number       1
_symmetry_cell_setting            triclinic
loop_
_symmetry_equiv_pos_as_xyz
'x, y, z'
_cell_length_a     40.375036
_cell_length_b     36.781337
_cell_length_c     10.041277
_cell_angle_alpha  100.22109
_cell_angle_beta   82.206462
_cell_angle_gamma 111.31374
loop_
_atom_site_label
_atom_site_type_symbol
_atom_site_fract_x
_atom_site_fract_y
_atom_site_fract_z
_atom_type_partial_charge
Pr0 Pr 0.27986 0.35811 0.18984 0.0
Pr1 Pr 0.26629 0.43442 0.18076 0.0
C2 C 0.29871 0.2989 0.23662 0.0
C3 C 0.28536 0.26629 0.31745 0.0
C4 C 0.30998 0.25412 0.36568 0.0
C5 C 0.29834 0.22548 0.45204 0.0
C6 C 0.26189 0.20851 0.4911 0.0
C7 C 0.23695 0.21932 0.43809 0.0
C8 C 0.24869 0.24841 0.35222 0.0
C9 C 0.27122 0.3705 0.93614 0.0
C10 C 0.19683 0.35441 0.24416 0.0
C11 C 0.24526 0.48765 0.10008 0.0
C12 C 0.26171 0.51852 0.01357 0.0
C13 C 0.25339 0.55291 0.0442 0.0
C14 C 0.27265 0.58511 -0.02282 0.0
C15 C 0.3004 0.58322 0.87874 0.0
C16 C 0.30723 0.5479 0.84101 0.0
C17 C 0.28808 0.51564 0.90926 0.0
C18 C 0.27559 0.42439 0.43788 0.0
C19 C 0.35036 0.44287 0.15033 0.0
O20 O 0.31023 0.33441 0.30477 0.0
O21 O 0.28027 0.29614 0.13537 0.0
O22 O 0.28942 0.39592 0.02336 0.0
O23 O 0.25721 0.33589 -0.02529 0.0
O24 O 0.20834 0.38667 0.18566 0.0
O25 O 0.21956 0.33948 0.27567 0.0
O26 O 0.23756 0.45145 0.03873 0.0
O27 O 0.25949 0.49377 0.21541 0.0
O28 O 0.25824 0.39769 0.35113 0.0
O29 O 0.28584 0.45908 0.40003 0.0
O30 O 0.33875 0.40623 0.17982 0.0
O31 O 0.32763 0.45938 0.13112 0.0
H32 H 0.33828 0.26752 0.3393 0.0
H33 H 0.31792 0.21729 0.49174 0.0
H34 H 0.20874 0.20627 0.46668 0.0
H35 H 0.22931 0.25753 0.31548 0.0
H36 H 0.23313 0.55547 0.12421 0.0
H37 H 0.26704 0.61223 0.00658 0.0
H38 H 0.32848 0.54609 0.76468 0.0
H39 H 0.29484 0.48914 0.88464 0.0
Pr40 Pr 0.87181 0.27768 0.64103 0.0
Pr41 Pr 0.78906 0.25589 0.69282 0.0
C42 C 0.94387 0.30651 0.61975 0.0
C43 C 0.97739 0.30222 0.54853 0.0
C44 C 0.99324 0.32164 0.43469 0.0
C45 C 1.02756 0.32371 0.38032 0.0
C46 C 0.04688 0.30641 0.43812 0.0
C47 C 1.03064 0.28529 0.54742 0.0
C48 C 0.99623 0.28335 0.60257 0.0
C49 C 0.83271 0.24269 0.41932 0.0
C50 C 0.82011 0.18279 0.64366 0.0
C51 C 0.7198 0.24434 0.75109 0.0
C52 C 0.68162 0.23815 0.78361 0.0
C53 C 0.67057 0.26703 0.86886 0.0
C54 C 0.63435 0.25976 0.90749 0.0
C55 C 0.60884 0.22324 0.86343 0.0
C56 C 0.61999 0.19414 0.78065 0.0
C57 C 0.65603 0.20163 0.74019 0.0
C58 C 0.8257 0.2577 0.90528 0.0
C59 C 0.83618 0.34838 0.65748 0.0
O60 O 0.92533 0.28289 0.70816 0.0
O61 O 0.92404 0.31663 0.55099 0.0
O62 O 0.82749 0.2691 0.50765 0.0
O63 O 0.86114 0.23627 0.43805 0.0
O64 O 0.79313 0.19301 0.62265 0.0
O65 O 0.85164 0.20987 0.67373 0.0
O66 O 0.73134 0.22415 0.64566 0.0
O67 O 0.74451 0.27204 0.82049 0.0
O68 O 0.83615 0.28414 0.83077 0.0
O69 O 0.7956 0.23136 0.87513 0.0
O70 O 0.86535 0.34032 0.66382 0.0
O71 O 0.80439 0.32073 0.65307 0.0
H72 H 0.97983 0.33694 0.3912 0.0
H73 H 1.03976 0.34051 0.29704 0.0
H74 H 1.04532 0.27218 0.59457 0.0
H75 H 0.98507 0.26858 0.69107 0.0
H76 H 0.68988 0.29525 0.90536 0.0
H77 H 0.62619 0.28267 -0.0297 0.0
H78 H 0.60062 0.16587 0.74489 0.0
H79 H 0.6639 0.17862 0.67664 0.0
Pr80 Pr 0.69714 0.80789 0.38353 0.0
Pr81 Pr 0.64128 0.71378 0.30584 0.0
C82 C 0.73047 0.88476 0.47103 0.0
C83 C 0.7485 0.92823 0.50356 0.0
C84 C 0.75136 0.95262 0.40567 0.0
C85 C 0.76641 0.99363 0.4343 0.0
C86 C 0.77915 1.01153 0.5614 0.0
C87 C 0.7772 0.98743 0.65893 0.0
C88 C 0.76198 0.94609 0.63026 0.0
C89 C 0.69944 0.7778 0.10714 0.0
C90 C 0.72351 0.73398 0.41557 0.0
C91 C 0.60082 0.64494 0.17039 0.0
C92 C 0.56301 0.61868 0.16249 0.0
C93 C 0.5384 0.61533 0.2771 0.0
C94 C 0.5036 0.58774 0.26978 0.0
C95 C 0.49291 0.5625 0.14838 0.0
C96 C 0.51706 0.56744 0.03224 0.0
C97 C 0.55167 0.59533 0.03916 0.0
C98 C 0.63974 0.74231 0.58044 0.0
C99 C 0.61411 0.78769 0.28792 0.0
O100 O 0.7291 0.85778 0.54423 0.0
O101 O 0.71448 0.87102 0.3588 0.0
O102 O 0.68851 0.75875 0.20649 0.0
O103 O 0.71893 0.8133 0.15335 0.0
O104 O 0.69621 0.70832 0.3469 0.0
O105 O 0.72921 0.77235 0.44394 0.0
O106 O 0.61016 0.67876 0.12452 0.0
O107 O 0.61614 0.64728 0.28033 0.0
O108 O 0.64849 0.76293 0.48387 0.0
O109 O 0.6217 0.70604 0.5335 0.0
O110 O 0.6429 0.81372 0.34431 0.0
O111 O 0.60715 0.74936 0.26967 0.0
H112 H 0.74147 0.9401 0.30659 0.0
H113 H 0.76746 1.01151 0.35783 0.0
H114 H 0.78675 1.00068 0.75808 0.0
H115 H 0.76019 0.92824 0.7077 0.0
H116 H 0.54632 0.6334 0.37301 0.0
H117 H 0.4854 0.58499 0.36026 0.0
H118 H 0.50948 0.54877 0.937 0.0
H119 H 0.57003 0.5976 0.94914 0.0
Pr120 Pr 0.84975 0.59643 0.61717 0.0
Pr121 Pr 0.76855 0.54906 0.67191 0.0
C122 C 0.91907 0.62552 0.53291 0.0
C123 C 0.94601 0.66311 0.50583 0.0
C124 C 0.98144 0.66525 0.47807 0.0
C125 C 1.00785 0.70064 0.45289 0.0
C126 C 0.99921 0.73443 0.45539 0.0
C127 C 0.96376 0.73268 0.48595 0.0
C128 C 0.93712 0.69696 0.51096 0.0
C129 C 0.82374 0.59816 0.88564 0.0
C130 C 0.7952 0.64377 0.60108 0.0
C131 C 0.70256 0.52726 0.79515 0.0
C132 C 0.67996 0.50713 0.90751 0.0
C133 C 0.65438 0.46957 0.87825 0.0
C134 C 0.62744 0.45404 -0.02356 0.0
C135 C 0.62558 0.47584 0.10535 0.0
C136 C 0.6533 0.51132 0.13998 0.0
C137 C 0.68005 0.52715 0.04084 0.0
C138 C 0.7927 0.54769 0.40128 0.0
C139 C 0.82224 0.49963 0.64662 0.0
O140 O 0.89386 0.60936 0.44894 0.0
O141 O 0.90764 0.62295 0.66019 0.0
O142 O 0.81626 0.56853 0.79674 0.0
O143 O 0.84686 0.6292 0.83892 0.0
O144 O 0.7694 0.6127 0.64462 0.0
O145 O 0.82874 0.64531 0.5802 0.0
O146 O 0.7271 0.5617 0.82697 0.0
O147 O 0.71205 0.50574 0.68869 0.0
O148 O 0.80192 0.57622 0.49316 0.0
O149 O 0.76649 0.51814 0.44509 0.0
O150 O 0.8463 0.52943 0.59022 0.0
O151 O 0.79141 0.50157 0.70421 0.0
H152 H 0.98867 0.63946 0.47524 0.0
H153 H 1.03516 0.70161 0.42953 0.0
H154 H 0.95678 0.75859 0.4884 0.0
H155 H 0.90973 0.69563 0.53371 0.0
H156 H 0.65356 0.45342 0.7767 0.0
H157 H 0.6062 0.42652 0.94781 0.0
H158 H 0.65248 0.52838 0.2393 0.0
H159 H 0.69918 0.55621 0.06617 0.0
Pr160 Pr 0.28895 0.79416 0.01981 0.0
Pr161 Pr 0.37164 0.83617 0.96343 0.0
C162 C 0.22219 0.75496 0.11292 0.0
C163 C 0.19223 0.76715 0.17448 0.0
C164 C 0.19181 0.8044 0.16144 0.0
C165 C 0.16232 0.8152 0.21406 0.0
C166 C 0.13295 0.78855 0.27888 0.0
C167 C 0.13402 0.75193 0.29608 0.0
C168 C 0.16355 0.7413 0.2443 0.0
C169 C 0.31009 0.82104 0.77235 0.0
C170 C 0.32071 0.88984 0.08951 0.0
C171 C 0.44124 0.87483 0.91057 0.0
C172 C 0.47048 0.86433 0.94594 0.0
C173 C 0.50248 0.89366 -0.01388 0.0
C174 C 0.52751 0.88379 0.04245 0.0
C175 C 0.52045 0.84458 0.06045 0.0
C176 C 0.4888 0.81525 0.01765 0.0
C177 C 0.46402 0.82503 0.96115 0.0
C178 C 0.34898 0.80909 0.21142 0.0
C179 C 0.34039 0.74055 0.89506 0.0
O180 O 0.24946 0.76574 0.18642 0.0
O181 O 0.23127 0.75951 -0.01487 0.0
O182 O 0.32584 0.80467 0.82774 0.0
O183 O 0.28083 0.82248 0.84169 0.0
O184 O 0.34916 0.88855 0.00833 0.0
O185 O 0.29582 0.85728 0.12351 0.0
O186 O 0.42122 0.85019 0.81752 0.0
O187 O 0.42272 0.88623 0.01569 0.0
O188 O 0.33448 0.82592 0.15314 0.0
O189 O 0.37845 0.80769 0.14506 0.0
O190 O 0.31026 0.74159 0.96307 0.0
O191 O 0.36717 0.77242 0.86738 0.0
H192 H 0.21391 0.82457 0.10758 0.0
H193 H 0.16184 0.84354 0.20024 0.0
H194 H 0.1115 0.73112 0.34644 0.0
H195 H 0.16365 0.71262 0.25606 0.0
H196 H 0.50759 0.92422 -0.02225 0.0
H197 H 0.55201 0.90669 0.07398 0.0
H198 H 0.48307 0.78481 0.02991 0.0
H199 H 0.43921 0.802 0.93358 0.0
Pr200 Pr 0.37452 0.13513 0.92132 0.0
Pr201 Pr 0.39247 0.22161 0.89715 0.0
C202 C 0.36116 0.06011 0.94714 0.0
C203 C 0.34386 1.02778 0.84196 0.0
C204 C 0.31742 0.03157 0.77326 0.0
C205 C 0.31039 1.01177 0.64274 0.0
C206 C 0.32825 0.98609 0.58124 0.0
C207 C 0.35214 0.97926 0.65496 0.0
C208 C 0.36032 1.00043 0.78374 0.0
C209 C 0.38859 0.15099 0.65272 0.0
C210 C 0.31222 0.15939 0.82953 0.0
C211 C 0.40671 0.29698 0.87127 0.0
C212 C 0.43439 0.33189 0.93628 0.0
C213 C 0.42688 0.35113 0.06505 0.0
C214 C 0.45456 0.37888 0.13809 0.0
C215 C 0.48988 0.38762 0.08293 0.0
C216 C 0.49728 0.36991 0.95262 0.0
C217 C 0.46982 0.34247 0.87949 0.0
C218 C 0.38024 0.205 0.16339 0.0
C219 C 0.45775 0.19509 0.94434 0.0
O220 O 0.3415 0.07988 0.01494 0.0
O221 O 0.39268 0.08305 0.90542 0.0
O222 O 0.40517 0.17228 0.75209 0.0
O223 O 0.36399 0.12001 0.69185 0.0
O224 O 0.33798 0.19212 0.8029 0.0
O225 O 0.31735 0.13377 0.89366 0.0
O226 O 0.41828 0.27326 0.78019 0.0
O227 O 0.38039 0.27811 0.95285 0.0
O228 O 0.36192 0.18458 0.0669 0.0
O229 O 0.40676 0.23414 0.1213 0.0
O230 O 0.43293 0.16461 -0.00666 0.0
O231 O 0.44945 0.21941 0.88465 0.0
H232 H 0.30438 0.05251 0.81557 0.0
H233 H 0.29204 1.01766 0.58755 0.0
H234 H 0.3665 0.95994 0.6082 0.0
H235 H 0.38159 0.99792 0.83236 0.0
H236 H 0.39983 0.34374 0.11132 0.0
H237 H 0.44858 0.39306 0.23774 0.0
H238 H 0.52449 0.37719 0.90792 0.0
H239 H 0.47659 0.32849 0.78053 0.0
C240 C 0.26184 0.18077 0.82704 0.0
C241 C 0.27773 0.15215 0.77715 0.0
C242 C 0.25643 0.14464 0.55458 0.0
C243 C 0.25153 0.18126 0.59381 0.0
N244 N 0.24061 0.22977 0.77126 0.0
N245 N 0.28257 0.09936 0.60678 0.0
C246 C 0.25008 0.19716 0.73281 0.0
C247 C 0.27131 0.13063 0.64609 0.0
N248 N 0.26086 0.1939 0.96291 0.0
N249 N 0.24871 0.12511 0.42754 0.0
H250 H 0.29287 0.08887 0.67526 0.0
H251 H 0.28186 0.08417 0.50881 0.0
H252 H 0.23839 0.13621 0.36046 0.0
H253 H 0.24979 0.09714 0.39311 0.0
H254 H 0.24858 0.21386 0.00935 0.0
H255 H 0.27045 0.18206 0.0301 0.0
H256 H 0.24226 0.24535 0.86876 0.0
H257 H 0.23114 0.24143 0.70343 0.0
C258 C 0.13496 0.30239 0.24743 0.0
C259 C 0.15872 0.34005 0.2988 0.0
C260 C 0.11024 0.35125 0.45797 0.0
C261 C 0.0857 0.31577 0.39646 0.0
N262 N 0.07338 0.25843 0.22695 0.0
N263 N 0.16779 0.4027 0.44162 0.0
C264 C 0.09773 0.29139 0.28999 0.0
C265 C 0.14602 0.36507 0.40102 0.0
N266 N 0.14793 0.27735 0.15733 0.0
N267 N 0.0995 0.37154 0.57301 0.0
H268 H 0.19465 0.41388 0.40891 0.0
H269 H 0.1587 0.42394 0.50102 0.0
H270 H 0.07334 0.36308 0.61642 0.0
H271 H 0.1171 0.39476 0.63258 0.0
H272 H 0.13292 0.24807 0.12605 0.0
H273 H 0.1746 0.28519 0.11957 0.0
H274 H 0.07953 0.24158 0.13908 0.0
H275 H 0.04626 0.24909 0.25866 0.0
C276 C 0.8344 0.12062 0.54384 0.0
C277 C 0.81365 0.13947 0.63657 0.0
C278 C 0.77085 0.07434 0.68056 0.0
C279 C 0.79229 0.05558 0.59347 0.0
N280 N 0.84783 0.06077 0.46153 0.0
N281 N 0.76887 0.1334 0.82478 0.0
C282 C 0.82516 0.07877 0.53113 0.0
C283 C 0.78383 0.11602 0.71395 0.0
N284 N 0.86198 0.14225 0.46347 0.0
N285 N 0.73735 0.05258 0.72789 0.0
H286 H 0.77959 0.16324 0.85928 0.0
H287 H 0.74926 0.11763 0.8925 0.0
H288 H 0.72659 1.02197 0.70618 0.0
H289 H 0.71902 0.06522 0.77845 0.0
H290 H 0.875 0.12976 0.38186 0.0
H291 H 0.87049 0.1728 0.47215 0.0
H292 H 0.87373 0.07608 0.42531 0.0
H293 H 0.84182 0.03034 0.45014 0.0
C294 C 0.7883 0.67922 0.41711 0.0
C295 C 0.78466 0.67466 0.55681 0.0
C296 C 0.75313 0.72216 0.60517 0.0
C297 C 0.74889 0.71848 0.46397 0.0
N298 N 0.76941 0.69855 0.23383 0.0
N299 N 0.76457 0.69351 0.78643 0.0
C300 C 0.76841 0.69867 0.37004 0.0
C301 C 0.7675 0.69684 0.65159 0.0
N302 N 0.81059 0.66493 0.32691 0.0
N303 N 0.74502 0.75077 0.69503 0.0
H304 H 0.7768 0.67745 0.82507 0.0
H305 H 0.74877 0.70524 0.85877 0.0
H306 H 0.73453 0.77013 0.66806 0.0
H307 H 0.75187 0.75776 0.79517 0.0
H308 H 0.81548 0.67024 0.22612 0.0
H309 H 0.8255 0.64974 0.35287 0.0
H310 H 0.75667 0.71301 0.18953 0.0
H311 H 0.75667 0.71301 0.18953 0.0
C312 C 0.0729 0.78434 0.22824 0.0
C313 C 0.09949 0.79655 0.32176 0.0
C314 C 0.05439 0.7902 0.51234 0.0
C315 C 1.02825 0.77028 0.41876 0.0
N316 N 1.00959 0.76267 0.19601 0.0
N317 N 0.11746 0.82452 0.54631 0.0
C318 C 1.0366 0.77309 0.27909 0.0
C319 C 0.09074 0.80477 0.46231 0.0
N320 N 0.08236 0.78027 0.09205 0.0
N321 N 1.04426 0.79188 0.64793 0.0
H322 H 0.14412 0.83506 0.50849 0.0
H323 H 0.11329 0.8327 0.65005 0.0
H324 H 1.01737 0.78172 0.68333 0.0
H325 H 0.06188 0.80294 0.724 0.0
H326 H 0.06423 0.76733 0.01813 0.0
H327 H 0.10891 0.78935 0.05285 0.0
H328 H 1.01347 0.76572 0.09342 0.0
H329 H 0.98292 0.75402 0.23408 0.0
C330 C 0.28838 0.9261 0.25544 0.0
C331 C 0.31984 0.92757 0.1721 0.0
C332 C 0.35462 0.97948 0.3392 0.0
C333 C 0.32445 0.96918 0.43571 0.0
N334 N 0.26105 0.93432 0.4802 0.0
N335 N 0.37893 0.96873 0.10509 0.0
C336 C 0.29076 0.94367 0.39175 0.0
C337 C 0.35198 0.9586 0.2045 0.0
N338 N 0.25574 0.90647 0.20741 0.0
N339 N 0.38544 1.00896 0.37706 0.0
H340 H 0.37521 0.95672 0.00374 0.0
H341 H 0.40344 0.99108 0.11877 0.0
H342 H 0.3872 1.02677 0.4709 0.0
H343 H 0.4093 1.01627 0.31662 0.0
H344 H 0.2524 0.89435 0.10573 0.0
H345 H 0.2524 0.89435 0.10573 0.0
H346 H 0.2362 0.91525 0.44923 0.0
H347 H 0.26145 0.9438 0.58429 0.0
C348 C 0.32136 0.67711 0.74255 0.0
C349 C 0.34306 0.70155 0.84622 0.0
C350 C 0.35245 0.64479 0.90579 0.0
C351 C 0.32369 0.6202 0.8284 0.0
N352 N 0.28514 0.61043 0.65353 0.0
N353 N 0.3836 0.71088 0.01455 0.0
C354 C 0.3102 0.63562 0.73742 0.0
C355 C 0.36087 0.68618 0.92148 0.0
N356 N 0.31101 0.69396 0.65249 0.0
N357 N 0.3704 0.62824 -0.03197 0.0
H358 H 0.3911 0.74143 0.02419 0.0
H359 H 0.39425 0.70132 0.08458 0.0
H360 H 0.36426 0.59784 0.95777 0.0
H361 H 0.39315 0.64434 0.0192 0.0
H362 H 0.29643 0.67818 0.57003 0.0
H363 H 0.31973 0.72448 0.65507 0.0
H364 H 0.27132 0.6194 0.59332 0.0
H365 H 0.27794 0.57989 0.64633 0.0
C366 C 0.51582 0.20776 0.04512 0.0
C367 C 0.49561 0.1982 0.93078 0.0
C368 C 0.54987 0.21045 0.7792 0.0
C369 C 0.57011 0.21642 0.89076 0.0
N370 N 0.5717 0.21412 0.12864 0.0
N371 N 0.49255 0.17638 0.69035 0.0
C372 C 0.55294 0.2132 0.02395 0.0
C373 C 0.51239 0.1954 0.79812 0.0
N374 N 0.49988 0.21252 0.17273 0.0
N375 N 0.56632 0.22012 0.65562 0.0
H376 H 0.46512 0.16159 0.70261 0.0
H377 H 0.50383 0.171 0.59251 0.0
H378 H 0.59393 0.23276 0.63827 0.0
H379 H 0.55228 0.21954 0.57494 0.0
H380 H 0.51395 0.22333 0.25938 0.0
H381 H 0.47269 0.20794 0.19086 0.0
H382 H 0.55987 0.2081 0.22487 0.0
H383 H 0.59876 0.21784 0.11624 0.0
C384 C 0.43244 0.52768 0.05336 0.0
C385 C 0.4573 0.52956 0.14401 0.0
C386 C 0.41462 0.46854 0.22495 0.0
C387 C 0.3897 0.467 0.1339 0.0
N388 N 0.3822 0.48607 0.92548 0.0
N389 N 0.47512 0.49692 0.2951 0.0
C390 C 0.40095 0.49385 0.03705 0.0
C391 C 0.44919 0.49865 0.2242 0.0
N392 N 0.43794 0.55901 -0.01298 0.0
N393 N 0.40563 0.44174 0.31363 0.0
H394 H 0.50087 0.5176 0.2956 0.0
H395 H 0.47257 0.47294 0.34234 0.0
H396 H 0.3846 0.41511 0.30295 0.0
H397 H 0.41934 0.44586 0.3989 0.0
H398 H 0.41884 0.56079 0.93073 0.0
H399 H 0.45995 0.58495 -0.0005 0.0
H400 H 0.39076 0.50272 0.84544 0.0
H401 H 0.36057 0.46009 0.90512 0.0
C402 C 0.8407 0.45527 0.76344 0.0
C403 C 0.82981 0.46263 0.64493 0.0
C404 C 0.82877 0.39737 0.5285 0.0
C405 C 0.83854 0.38948 0.64834 0.0
N406 N 0.85885 0.41217 0.87302 0.0
N407 N 0.81529 0.44266 0.41246 0.0
C408 C 0.84628 0.41899 0.76352 0.0
C409 C 0.82464 0.43427 0.52639 0.0
N410 N 0.84448 0.4826 0.87738 0.0
N411 N 0.82311 0.36909 0.41707 0.0
H412 H 0.80956 0.468 0.41098 0.0
H413 H 0.81366 0.42542 0.31805 0.0
H414 H 0.82853 0.34321 0.4119 0.0
H415 H 0.81325 0.37083 0.32917 0.0
H416 H 0.84879 0.47815 -0.02801 0.0
H417 H 0.84166 0.50973 0.87897 0.0
H418 H 0.86826 0.43331 0.95575 0.0
H419 H 0.86188 0.38552 0.87846 0.0
C420 C 0.56516 0.81122 0.03404 0.0
C421 C 0.5464 0.8332 0.12002 0.0
C422 C 0.57326 0.82741 0.31745 0.0
C423 C 0.58954 0.80228 0.23245 0.0
N424 N 0.59386 0.76337 0.01181 0.0
N425 N 0.52816 0.85809 0.34534 0.0
C426 C 0.5833 0.79201 0.09164 0.0
C427 C 0.5494 0.84045 0.26235 0.0
N428 N 0.56658 0.80966 0.89625 0.0
N429 N 0.57991 0.83809 0.45138 0.0
H430 H 0.51067 0.86827 0.30851 0.0
H431 H 0.52591 0.86021 0.45069 0.0
H432 H 0.59407 0.82602 0.49902 0.0
H433 H 0.5726 0.8601 0.51434 0.0
H434 H 0.58314 0.79775 0.82849 0.0
H435 H 0.55393 0.82377 0.84997 0.0
H436 H 0.58515 0.75109 0.91542 0.0
H437 H 0.60944 0.74976 0.04228 0.0
C438 C 0.56667 0.4816 0.15588 0.0
C439 C 0.59075 0.46497 0.18579 0.0
C440 C 0.54086 0.40487 0.22554 0.0
C441 C 0.51983 0.41741 0.15433 0.0
N442 N 0.51272 0.46772 0.04837 0.0
N443 N 0.60102 0.41471 0.27785 0.0
C444 C 0.53224 0.45626 0.12239 0.0
C445 C 0.57759 0.42814 0.2342 0.0
N446 N 0.57736 0.52106 0.15232 0.0
N447 N 0.52602 0.37013 0.2777 0.0
H448 H 0.62775 0.43249 0.28641 0.0
H449 H 0.59434 0.3865 0.30283 0.0
H450 H 0.49915 0.35284 0.27015 0.0
H451 H 0.53935 0.36006 0.3364 0.0
H452 H 0.55966 0.53474 0.14111 0.0
H453 H 0.60259 0.54034 0.1775 0.0
H454 H 0.52326 0.49351 0.00409 0.0
H455 H 0.48673 0.45038 0.02513 0.0
C456 C 0.24175 0.38889 0.77246 0.0
C457 C 0.27074 0.3794 0.80065 0.0
C458 C 0.30629 0.40769 0.60303 0.0
C459 C 0.27716 0.41691 0.57504 0.0
N460 N 0.2232 0.42952 0.65548 0.0
N461 N 0.32874 0.37437 0.73842 0.0
C462 C 0.24642 0.41113 0.66584 0.0
C463 C 0.30267 0.38744 0.71483 0.0
N464 N 0.20967 0.37591 0.84587 0.0
N465 N 0.33784 0.42041 0.52672 0.0
H466 H 0.32617 0.35864 0.81846 0.0
H467 H 0.35159 0.37622 0.67404 0.0
H468 H 0.34119 0.43745 0.44993 0.0
H469 H 0.36131 0.4177 0.54744 0.0
H470 H 0.18663 0.37913 0.82234 0.0
H471 H 0.20539 0.35849 0.92234 0.0
H472 H 0.20161 0.42924 0.72552 0.0
H473 H 0.22842 0.4492 0.58565 0.0
C474 C 0.80217 0.25946 0.25973 0.0
C475 C 0.81975 0.235 0.28594 0.0
C476 C 0.84979 0.23512 0.06281 0.0
C477 C 0.83527 0.2628 0.0403 0.0
N478 N 0.80019 0.30442 0.11406 0.0
N479 N 0.84417 0.18452 0.19763 0.0
C480 C 0.81253 0.27646 0.13928 0.0
C481 C 0.83823 0.21763 0.18152 0.0
N482 N 0.77556 0.26546 0.3499 0.0
N483 N 0.87453 0.22598 -0.02988 0.0
H484 H 0.8336 0.17082 0.28426 0.0
H485 H 0.85581 0.16884 0.12121 0.0
H486 H 0.88438 0.24067 0.8856 0.0
H487 H 0.88755 0.20731 -0.01576 0.0
H488 H 0.76053 0.28209 0.3365 0.0
H489 H 0.76669 0.25039 0.43389 0.0
H490 H 0.78292 0.31538 0.18081 0.0
H491 H 0.80905 0.31832 0.02728 0.0
C492 C 0.67573 0.73014 0.89879 0.0
C493 C 0.68291 0.76812 -0.02542 0.0
C494 C 0.66304 0.79022 0.79019 0.0
C495 C 0.65637 0.75236 0.71323 0.0
N496 N 0.66692 0.69018 0.68018 0.0
N497 N 0.67243 0.83017 0.00925 0.0
C498 C 0.66476 0.72299 0.76472 0.0
C499 C 0.67439 0.79744 0.92384 0.0
N500 N 0.67997 0.70072 0.95339 0.0
N501 N 0.65813 0.81952 0.73712 0.0
H502 H 0.67525 0.83467 0.11275 0.0
H503 H 0.66273 0.85043 -0.01641 0.0
H504 H 0.6452 0.81489 0.64958 0.0
H505 H 0.66864 0.84921 0.77642 0.0
H506 H 0.66929 0.67101 0.91444 0.0
H507 H 0.69218 0.70526 0.04274 0.0
H508 H 0.67614 0.66976 0.7075 0.0
H509 H 0.66518 0.68582 0.57605 0.0
C510 C 0.83102 0.55759 0.18954 0.0
C511 C 0.79811 0.5562 0.26205 0.0
C512 C 0.78658 0.59235 0.1016 0.0
C513 C 0.81889 0.59244 0.0277 0.0
N514 N 0.87584 0.58431 0.01185 0.0
N515 N 0.74479 0.57317 0.29659 0.0
C516 C 0.84239 0.57785 0.07514 0.0
C517 C 0.77575 0.57372 0.2204 0.0
N518 N 0.85094 0.53886 0.22947 0.0
N519 N 0.76758 0.61194 0.06043 0.0
H520 H 0.73578 0.55916 0.3829 0.0
H521 H 0.72741 0.58601 0.2754 0.0
H522 H 0.77631 0.62713 -0.02348 0.0
H523 H 0.74481 0.61584 0.11249 0.0
H524 H 0.87371 0.53556 0.17487 0.0
H525 H 0.84324 0.524 0.31395 0.0
H526 H 0.89565 0.57762 0.04761 0.0
H527 H 0.88492 0.59943 0.92802 0.0
C528 C 0.31602 0.77872 0.40987 0.0
C529 C 0.34293 0.81087 0.35754 0.0
C530 C 0.34458 0.8522 0.57657 0.0
C531 C 0.31599 0.82086 0.6265 0.0
N532 N 0.27034 0.7566 0.58983 0.0
N533 N 0.38065 0.87957 0.38162 0.0
C534 C 0.30027 0.7848 0.5425 0.0
C535 C 0.35684 0.84799 0.43841 0.0
N536 N 0.30621 0.74237 0.3331 0.0
N537 N 0.36054 0.88556 0.66247 0.0
H538 H 0.39195 0.87727 0.28219 0.0
H539 H 0.38792 0.90845 0.43083 0.0
H540 H 0.34952 0.89148 0.76026 0.0
H541 H 0.38517 0.90649 0.63841 0.0
H542 H 0.28886 0.71675 0.36923 0.0
H543 H 0.3181 0.73729 0.23596 0.0
H544 H 0.25579 0.73116 0.52952 0.0
H545 H 0.25824 0.76004 0.68743 0.0
C546 C 0.36734 0.13774 0.42022 0.0
C547 C 0.39071 0.16329 0.51767 0.0
C548 C 0.40078 0.21862 0.39597 0.0
C549 C 0.37738 0.19308 0.29911 0.0
N550 N 0.3269 0.1332 0.25719 0.0
N551 N 0.44124 0.22335 0.55815 0.0
C552 C 0.35723 0.15394 0.32171 0.0
C553 C 0.41074 0.20255 0.49503 0.0
N554 N 0.35706 0.09782 0.41478 0.0
N555 N 0.41166 0.25852 0.39908 0.0
H556 H 0.45211 0.21079 0.6175 0.0
H557 H 0.45845 0.25083 0.5351 0.0
H558 H 0.40171 0.27146 0.33707 0.0
H559 H 0.42635 0.27853 0.47544 0.0
H560 H 0.34236 0.07792 0.33828 0.0
H561 H 0.36769 0.08486 0.47419 0.0
H562 H 0.31026 0.10516 0.27653 0.0
H563 H 0.31555 0.14619 0.20072 0.0
loop_
_geom_bond_atom_site_label_1
_geom_bond_atom_site_label_2
_geom_bond_distance
_geom_bond_site_symmetry_2
_ccdc_geom_bond_type
Pr0 C2 2.880 1_556 S
Pr0 O20 2.562 1_556 S
Pr0 O21 2.490 . S
Pr0 O22 2.695 . S
Pr0 O23 2.512 . S
Pr0 O25 2.437 . S
Pr0 O28 2.436 1_556 S
Pr0 O30 2.438 . S
Pr1 C11 2.880 1_554 S
Pr1 O22 2.436 1_554 S
Pr1 O24 2.438 . S
Pr1 O26 2.562 1_554 S
Pr1 O27 2.490 . S
Pr1 O28 2.695 . S
Pr1 O29 2.512 . S
Pr1 O31 2.437 . S
C2 Pr0 2.880 1_554 S
C2 C3 1.491 . S
C2 O20 1.254 . S
C2 O21 1.225 1_554 S
C3 C2 1.491 . S
C3 C4 1.392 1_554 S
C3 C8 1.356 . S
C4 C3 1.392 1_556 S
C4 C5 1.368 . S
C4 H32 0.929 . S
C5 C4 1.368 . S
C5 C6 1.386 1_556 S
C5 H33 0.929 . S
C6 C5 1.386 1_554 S
C6 C7 1.373 . S
C7 C6 1.373 . S
C7 C8 1.409 . S
C7 H34 0.931 . S
C8 C3 1.356 . S
C8 C7 1.409 . S
C8 H35 0.930 . S
C9 O22 1.270 . S
C9 O23 1.248 . S
C10 O24 1.267 . S
C10 O25 1.278 1_554 S
C11 Pr1 2.880 1_556 S
C11 C12 1.491 . S
C11 O26 1.254 . S
C11 O27 1.225 1_556 S
C12 C11 1.491 . S
C12 C13 1.392 1_556 S
C12 C17 1.356 . S
C13 C12 1.392 1_554 S
C13 C14 1.368 . S
C13 H36 0.929 . S
C14 C13 1.368 . S
C14 C15 1.386 1_554 S
C14 H37 0.929 . S
C15 C14 1.386 1_556 S
C15 C16 1.373 . S
C16 C15 1.373 . S
C16 C17 1.409 . S
C16 H38 0.931 . S
C17 C12 1.356 . S
C17 C16 1.409 . S
C17 H39 0.930 . S
C18 O28 1.270 . S
C18 O29 1.248 . S
C19 O30 1.267 . S
C19 O31 1.278 1_556 S
O20 Pr0 2.562 1_554 S
O20 C2 1.254 . S
O21 Pr0 2.490 . S
O21 C2 1.225 1_556 S
O22 Pr0 2.695 . S
O22 Pr1 2.436 1_556 S
O22 C9 1.270 . S
O23 Pr0 2.512 . S
O23 C9 1.248 . S
O24 Pr1 2.438 . S
O24 C10 1.267 . S
O25 Pr0 2.437 . S
O25 C10 1.278 1_556 S
O26 Pr1 2.562 1_556 S
O26 C11 1.254 . S
O27 Pr1 2.490 . S
O27 C11 1.225 1_554 S
O28 Pr0 2.436 1_554 S
O28 Pr1 2.695 . S
O28 C18 1.270 . S
O29 Pr1 2.512 . S
O29 C18 1.248 . S
O30 Pr0 2.438 . S
O30 C19 1.267 . S
O31 Pr1 2.437 . S
O31 C19 1.278 1_554 S
H32 C4 0.929 . S
H33 C5 0.929 . S
H34 C7 0.931 . S
H35 C8 0.930 . S
H36 C13 0.929 . S
H37 C14 0.929 . S
H38 C16 0.931 . S
H39 C17 0.930 . S
Pr40 C42 2.880 . S
Pr40 O60 2.562 . S
Pr40 O61 2.490 . S
Pr40 O62 2.695 . S
Pr40 O63 2.512 . S
Pr40 O65 2.437 . S
Pr40 O68 2.436 1_556 S
Pr40 O70 2.438 . S
Pr41 C51 2.880 1_556 S
Pr41 O62 2.436 . S
Pr41 O64 2.438 . S
Pr41 O66 2.562 . S
Pr41 O67 2.490 1_556 S
Pr41 O68 2.695 1_556 S
Pr41 O69 2.512 1_556 S
Pr41 O71 2.437 1_556 S
C42 Pr40 2.880 . S
C42 C43 1.491 . S
C42 O60 1.254 . S
C42 O61 1.225 . S
C43 C42 1.491 . S
C43 C44 1.392 . S
C43 C48 1.356 . S
C44 C43 1.392 . S
C44 C45 1.368 . S
C44 H72 0.929 . S
C45 C44 1.368 . S
C45 C46 1.386 . S
C45 H73 0.929 . S
C46 C45 1.386 . S
C46 C47 1.373 . S
C47 C46 1.373 . S
C47 C48 1.409 . S
C47 H74 0.931 . S
C48 C43 1.356 . S
C48 C47 1.409 . S
C48 H75 0.930 1_556 S
C49 O62 1.270 . S
C49 O63 1.248 . S
C50 O64 1.267 . S
C50 O65 1.278 . S
C51 Pr41 2.880 1_554 S
C51 C52 1.491 . S
C51 O66 1.254 1_554 S
C51 O67 1.225 . S
C52 C51 1.491 . S
C52 C53 1.392 . S
C52 C57 1.356 1_554 S
C53 C52 1.392 . S
C53 C54 1.368 . S
C53 H76 0.929 . S
C54 C53 1.368 . S
C54 C55 1.386 . S
C54 H77 0.929 . S
C55 C54 1.386 . S
C55 C56 1.373 1_554 S
C56 C55 1.373 1_556 S
C56 C57 1.409 . S
C56 H78 0.931 . S
C57 C52 1.356 1_556 S
C57 C56 1.409 . S
C57 H79 0.930 . S
C58 O68 1.270 . S
C58 O69 1.248 . S
C59 O70 1.267 1_554 S
C59 O71 1.278 . S
O60 Pr40 2.562 . S
O60 C42 1.254 . S
O61 Pr40 2.490 . S
O61 C42 1.225 . S
O62 Pr40 2.695 . S
O62 Pr41 2.436 . S
O62 C49 1.270 . S
O63 Pr40 2.512 . S
O63 C49 1.248 . S
O64 Pr41 2.438 . S
O64 C50 1.267 . S
O65 Pr40 2.437 . S
O65 C50 1.278 . S
O66 Pr41 2.562 . S
O66 C51 1.254 1_556 S
O67 Pr41 2.490 1_554 S
O67 C51 1.225 . S
O68 Pr40 2.436 1_554 S
O68 Pr41 2.695 1_554 S
O68 C58 1.270 . S
O69 Pr41 2.512 1_554 S
O69 C58 1.248 . S
O70 Pr40 2.438 . S
O70 C59 1.267 1_556 S
O71 Pr41 2.437 1_554 S
O71 C59 1.278 . S
H72 C44 0.929 . S
H73 C45 0.929 . S
H74 C47 0.931 . S
H75 C48 0.930 1_554 S
H76 C53 0.929 . S
H77 C54 0.929 . S
H78 C56 0.931 . S
H79 C57 0.930 . S
Pr80 C82 2.880 . S
Pr80 O100 2.562 . S
Pr80 O101 2.490 . S
Pr80 O102 2.695 1_554 S
Pr80 O103 2.512 1_554 S
Pr80 O105 2.437 . S
Pr80 O108 2.436 . S
Pr80 O110 2.438 . S
Pr81 C91 2.880 1_554 S
Pr81 O102 2.436 1_554 S
Pr81 O104 2.438 . S
Pr81 O106 2.562 1_554 S
Pr81 O107 2.490 . S
Pr81 O108 2.695 . S
Pr81 O109 2.512 . S
Pr81 O111 2.437 . S
C82 Pr80 2.880 . S
C82 C83 1.491 . S
C82 O100 1.254 . S
C82 O101 1.225 . S
C83 C82 1.491 . S
C83 C84 1.392 . S
C83 C88 1.356 . S
C84 C83 1.392 . S
C84 C85 1.368 . S
C84 H112 0.929 . S
C85 C84 1.368 . S
C85 C86 1.386 . S
C85 H113 0.929 . S
C86 C85 1.386 . S
C86 C87 1.373 . S
C87 C86 1.373 . S
C87 C88 1.409 . S
C87 H114 0.931 . S
C88 C83 1.356 . S
C88 C87 1.409 . S
C88 H115 0.930 . S
C89 O102 1.270 . S
C89 O103 1.248 . S
C90 O104 1.267 . S
C90 O105 1.278 . S
C91 Pr81 2.880 1_556 S
C91 C92 1.491 . S
C91 O106 1.254 . S
C91 O107 1.225 1_556 S
C92 C91 1.491 . S
C92 C93 1.392 . S
C92 C97 1.356 . S
C93 C92 1.392 . S
C93 C94 1.368 . S
C93 H116 0.929 1_556 S
C94 C93 1.368 . S
C94 C95 1.386 . S
C94 H117 0.929 1_556 S
C95 C94 1.386 . S
C95 C96 1.373 . S
C96 C95 1.373 . S
C96 C97 1.409 . S
C96 H118 0.931 . S
C97 C92 1.356 . S
C97 C96 1.409 . S
C97 H119 0.930 . S
C98 O108 1.270 . S
C98 O109 1.248 . S
C99 O110 1.267 . S
C99 O111 1.278 . S
O100 Pr80 2.562 . S
O100 C82 1.254 . S
O101 Pr80 2.490 . S
O101 C82 1.225 . S
O102 Pr80 2.695 1_556 S
O102 Pr81 2.436 1_556 S
O102 C89 1.270 . S
O103 Pr80 2.512 1_556 S
O103 C89 1.248 . S
O104 Pr81 2.438 . S
O104 C90 1.267 . S
O105 Pr80 2.437 . S
O105 C90 1.278 . S
O106 Pr81 2.562 1_556 S
O106 C91 1.254 . S
O107 Pr81 2.490 . S
O107 C91 1.225 1_554 S
O108 Pr80 2.436 . S
O108 Pr81 2.695 . S
O108 C98 1.270 . S
O109 Pr81 2.512 . S
O109 C98 1.248 . S
O110 Pr80 2.438 . S
O110 C99 1.267 . S
O111 Pr81 2.437 . S
O111 C99 1.278 . S
H112 C84 0.929 . S
H113 C85 0.929 . S
H114 C87 0.931 . S
H115 C88 0.930 . S
H116 C93 0.929 1_554 S
H117 C94 0.929 1_554 S
H118 C96 0.931 . S
H119 C97 0.930 . S
Pr120 C122 2.880 . S
Pr120 O140 2.562 . S
Pr120 O141 2.490 1_556 S
Pr120 O142 2.695 1_556 S
Pr120 O143 2.512 1_556 S
Pr120 O145 2.437 1_556 S
Pr120 O148 2.436 . S
Pr120 O150 2.438 1_556 S
Pr121 C131 2.880 . S
Pr121 O142 2.436 . S
Pr121 O144 2.438 1_554 S
Pr121 O146 2.562 . S
Pr121 O147 2.490 1_554 S
Pr121 O148 2.695 1_554 S
Pr121 O149 2.512 1_554 S
Pr121 O151 2.437 1_554 S
C122 Pr120 2.880 . S
C122 C123 1.491 . S
C122 O140 1.254 . S
C122 O141 1.225 1_556 S
C123 C122 1.491 . S
C123 C124 1.392 . S
C123 C128 1.356 . S
C124 C123 1.392 . S
C124 C125 1.368 . S
C124 H152 0.929 1_556 S
C125 C124 1.368 . S
C125 C126 1.386 . S
C125 H153 0.929 . S
C126 C125 1.386 . S
C126 C127 1.373 . S
C127 C126 1.373 . S
C127 C128 1.409 . S
C127 H154 0.931 . S
C128 C123 1.356 . S
C128 C127 1.409 . S
C128 H155 0.930 . S
C129 O142 1.270 . S
C129 O143 1.248 . S
C130 O144 1.267 . S
C130 O145 1.278 1_556 S
C131 Pr121 2.880 . S
C131 C132 1.491 . S
C131 O146 1.254 . S
C131 O147 1.225 1_554 S
C132 C131 1.491 . S
C132 C133 1.392 . S
C132 C137 1.356 . S
C133 C132 1.392 . S
C133 C134 1.368 . S
C133 H156 0.929 1_554 S
C134 C133 1.368 . S
C134 C135 1.386 . S
C134 H157 0.929 . S
C135 C134 1.386 . S
C135 C136 1.373 . S
C136 C135 1.373 . S
C136 C137 1.409 . S
C136 H158 0.931 . S
C137 C132 1.356 . S
C137 C136 1.409 . S
C137 H159 0.930 . S
C138 O148 1.270 . S
C138 O149 1.248 . S
C139 O150 1.267 . S
C139 O151 1.278 1_554 S
O140 Pr120 2.562 . S
O140 C122 1.254 . S
O141 Pr120 2.490 1_554 S
O141 C122 1.225 1_554 S
O142 Pr120 2.695 1_554 S
O142 Pr121 2.436 . S
O142 C129 1.270 . S
O143 Pr120 2.512 1_554 S
O143 C129 1.248 . S
O144 Pr121 2.438 1_556 S
O144 C130 1.267 . S
O145 Pr120 2.437 1_554 S
O145 C130 1.278 1_554 S
O146 Pr121 2.562 . S
O146 C131 1.254 . S
O147 Pr121 2.490 1_556 S
O147 C131 1.225 1_556 S
O148 Pr120 2.436 . S
O148 Pr121 2.695 1_556 S
O148 C138 1.270 . S
O149 Pr121 2.512 1_556 S
O149 C138 1.248 . S
O150 Pr120 2.438 1_554 S
O150 C139 1.267 . S
O151 Pr121 2.437 1_556 S
O151 C139 1.278 1_556 S
H152 C124 0.929 1_554 S
H153 C125 0.929 . S
H154 C127 0.931 . S
H155 C128 0.930 . S
H156 C133 0.929 1_556 S
H157 C134 0.929 . S
H158 C136 0.931 . S
H159 C137 0.930 . S
Pr160 C162 2.880 . S
Pr160 O180 2.562 . S
Pr160 O181 2.490 1_554 S
Pr160 O182 2.695 1_554 S
Pr160 O183 2.512 1_554 S
Pr160 O185 2.437 . S
Pr160 O188 2.436 . S
Pr160 O190 2.438 1_554 S
Pr161 C171 2.880 . S
Pr161 O182 2.436 . S
Pr161 O184 2.438 1_556 S
Pr161 O186 2.562 . S
Pr161 O187 2.490 1_556 S
Pr161 O188 2.695 1_556 S
Pr161 O189 2.512 1_556 S
Pr161 O191 2.437 . S
C162 Pr160 2.880 . S
C162 C163 1.491 . S
C162 O180 1.254 . S
C162 O181 1.225 1_554 S
C163 C162 1.491 . S
C163 C164 1.392 . S
C163 C168 1.356 . S
C164 C163 1.392 . S
C164 C165 1.368 . S
C164 H192 0.929 1_554 S
C165 C164 1.368 . S
C165 C166 1.386 . S
C165 H193 0.929 . S
C166 C165 1.386 . S
C166 C167 1.373 . S
C167 C166 1.373 . S
C167 C168 1.409 . S
C167 H194 0.931 . S
C168 C163 1.356 . S
C168 C167 1.409 . S
C168 H195 0.930 . S
C169 O182 1.270 . S
C169 O183 1.248 . S
C170 O184 1.267 . S
C170 O185 1.278 . S
C171 Pr161 2.880 . S
C171 C172 1.491 . S
C171 O186 1.254 . S
C171 O187 1.225 1_556 S
C172 C171 1.491 . S
C172 C173 1.392 . S
C172 C177 1.356 . S
C173 C172 1.392 . S
C173 C174 1.368 . S
C173 H196 0.929 1_556 S
C174 C173 1.368 . S
C174 C175 1.386 . S
C174 H197 0.929 . S
C175 C174 1.386 . S
C175 C176 1.373 . S
C176 C175 1.373 . S
C176 C177 1.409 . S
C176 H198 0.931 . S
C177 C172 1.356 . S
C177 C176 1.409 . S
C177 H199 0.930 . S
C178 O188 1.270 . S
C178 O189 1.248 . S
C179 O190 1.267 . S
C179 O191 1.278 . S
O180 Pr160 2.562 . S
O180 C162 1.254 . S
O181 Pr160 2.490 1_556 S
O181 C162 1.225 1_556 S
O182 Pr160 2.695 1_556 S
O182 Pr161 2.436 . S
O182 C169 1.270 . S
O183 Pr160 2.512 1_556 S
O183 C169 1.248 . S
O184 Pr161 2.438 1_554 S
O184 C170 1.267 . S
O185 Pr160 2.437 . S
O185 C170 1.278 . S
O186 Pr161 2.562 . S
O186 C171 1.254 . S
O187 Pr161 2.490 1_554 S
O187 C171 1.225 1_554 S
O188 Pr160 2.436 . S
O188 Pr161 2.695 1_554 S
O188 C178 1.270 . S
O189 Pr161 2.512 1_554 S
O189 C178 1.248 . S
O190 Pr160 2.438 1_556 S
O190 C179 1.267 . S
O191 Pr161 2.437 . S
O191 C179 1.278 . S
H192 C164 0.929 1_556 S
H193 C165 0.929 . S
H194 C167 0.931 . S
H195 C168 0.930 . S
H196 C173 0.929 1_554 S
H197 C174 0.929 . S
H198 C176 0.931 . S
H199 C177 0.930 . S
Pr200 C202 2.880 . S
Pr200 O220 2.562 1_556 S
Pr200 O221 2.490 . S
Pr200 O222 2.695 . S
Pr200 O223 2.512 . S
Pr200 O225 2.437 . S
Pr200 O228 2.436 1_556 S
Pr200 O230 2.438 . S
Pr201 C211 2.880 . S
Pr201 O222 2.436 1_554 S
Pr201 O224 2.438 . S
Pr201 O226 2.562 1_554 S
Pr201 O227 2.490 . S
Pr201 O228 2.695 . S
Pr201 O229 2.512 . S
Pr201 O231 2.437 . S
C202 Pr200 2.880 . S
C202 C203 1.491 . S
C202 O220 1.254 1_556 S
C202 O221 1.225 . S
C203 C202 1.491 . S
C203 C204 1.392 1_545 S
C203 C208 1.356 . S
C204 C203 1.392 1_565 S
C204 C205 1.368 . S
C204 H232 0.929 . S
C205 C204 1.368 . S
C205 C206 1.386 . S
C205 H233 0.929 . S
C206 C205 1.386 . S
C206 C207 1.373 . S
C207 C206 1.373 . S
C207 C208 1.409 1_565 S
C207 H234 0.931 1_556 S
C208 C203 1.356 . S
C208 C207 1.409 1_545 S
C208 H235 0.930 1_556 S
C209 O222 1.270 . S
C209 O223 1.248 . S
C210 O224 1.267 1_556 S
C210 O225 1.278 . S
C211 Pr201 2.880 . S
C211 C212 1.491 . S
C211 O226 1.254 1_554 S
C211 O227 1.225 . S
C212 C211 1.491 . S
C212 C213 1.392 . S
C212 C217 1.356 . S
C213 C212 1.392 . S
C213 C214 1.368 . S
C213 H236 0.929 . S
C214 C213 1.368 . S
C214 C215 1.386 . S
C214 H237 0.929 . S
C215 C214 1.386 . S
C215 C216 1.373 . S
C216 C215 1.373 . S
C216 C217 1.409 . S
C216 H238 0.931 1_554 S
C217 C212 1.356 . S
C217 C216 1.409 . S
C217 H239 0.930 1_554 S
C218 O228 1.270 . S
C218 O229 1.248 . S
C219 O230 1.267 1_554 S
C219 O231 1.278 . S
O220 Pr200 2.562 1_554 S
O220 C202 1.254 1_554 S
O221 Pr200 2.490 . S
O221 C202 1.225 . S
O222 Pr200 2.695 . S
O222 Pr201 2.436 1_556 S
O222 C209 1.270 . S
O223 Pr200 2.512 . S
O223 C209 1.248 . S
O224 Pr201 2.438 . S
O224 C210 1.267 1_554 S
O225 Pr200 2.437 . S
O225 C210 1.278 . S
O226 Pr201 2.562 1_556 S
O226 C211 1.254 1_556 S
O227 Pr201 2.490 . S
O227 C211 1.225 . S
O228 Pr200 2.436 1_554 S
O228 Pr201 2.695 . S
O228 C218 1.270 . S
O229 Pr201 2.512 . S
O229 C218 1.248 . S
O230 Pr200 2.438 . S
O230 C219 1.267 1_556 S
O231 Pr201 2.437 . S
O231 C219 1.278 . S
H232 C204 0.929 . S
H233 C205 0.929 . S
H234 C207 0.931 1_554 S
H235 C208 0.930 1_554 S
H236 C213 0.929 . S
H237 C214 0.929 . S
H238 C216 0.931 1_556 S
H239 C217 0.930 1_556 S
C240 C241 1.363 . S
C240 C246 1.379 . S
C240 N248 1.356 . S
C241 C240 1.363 . S
C241 C247 1.363 . S
C242 C243 1.363 . S
C242 C247 1.379 . S
C242 N249 1.356 . S
C243 C242 1.363 . S
C243 C246 1.363 . S
N244 C246 1.356 . S
N244 H256 0.984 . S
N244 H257 0.985 . S
N245 C247 1.356 . S
N245 H250 0.984 . S
N245 H251 0.985 . S
C246 C240 1.379 . S
C246 C243 1.363 . S
C246 N244 1.356 . S
C247 C241 1.363 . S
C247 C242 1.379 . S
C247 N245 1.356 . S
N248 C240 1.356 . S
N248 H254 0.984 . S
N248 H255 0.984 . S
N249 C242 1.356 . S
N249 H252 0.984 . S
N249 H253 0.985 . S
H250 N245 0.984 . S
H251 N245 0.985 . S
H252 N249 0.984 . S
H253 N249 0.985 . S
H254 N248 0.984 . S
H255 N248 0.984 . S
H256 N244 0.984 . S
H257 N244 0.985 . S
C258 C259 1.363 . S
C258 C264 1.379 . S
C258 N266 1.356 . S
C259 C258 1.363 . S
C259 C265 1.363 . S
C260 C261 1.363 . S
C260 C265 1.379 . S
C260 N267 1.356 . S
C261 C260 1.363 . S
C261 C264 1.363 . S
N262 C264 1.356 . S
N262 H274 0.984 1_455 S
N262 H275 0.985 1_455 S
N263 C265 1.356 . S
N263 H268 0.984 . S
N263 H269 0.985 . S
C264 C258 1.379 . S
C264 C261 1.363 . S
C264 N262 1.356 . S
C265 C259 1.363 . S
C265 C260 1.379 . S
C265 N263 1.356 . S
N266 C258 1.356 . S
N266 H272 0.984 . S
N266 H273 0.984 . S
N267 C260 1.356 . S
N267 H270 0.984 . S
N267 H271 0.985 . S
H268 N263 0.984 . S
H269 N263 0.985 . S
H270 N267 0.984 . S
H271 N267 0.985 . S
H272 N266 0.984 . S
H273 N266 0.984 . S
H274 N262 0.984 1_655 S
H275 N262 0.985 1_655 S
C276 C277 1.363 . S
C276 C282 1.379 . S
C276 N284 1.356 . S
C277 C276 1.363 . S
C277 C283 1.363 . S
C278 C279 1.363 . S
C278 C283 1.379 . S
C278 N285 1.356 1_545 S
C279 C278 1.363 . S
C279 C282 1.363 . S
N280 C282 1.356 . S
N280 H292 0.984 . S
N280 H293 0.985 . S
N281 C283 1.356 . S
N281 H286 0.984 . S
N281 H287 0.985 . S
C282 C276 1.379 . S
C282 C279 1.363 . S
C282 N280 1.356 . S
C283 C277 1.363 . S
C283 C278 1.379 . S
C283 N281 1.356 . S
N284 C276 1.356 . S
N284 H290 0.984 . S
N284 H291 0.984 . S
N285 C278 1.356 1_565 S
N285 H288 0.984 . S
N285 H289 0.985 . S
H286 N281 0.984 . S
H287 N281 0.985 . S
H288 N285 0.984 . S
H289 N285 0.985 . S
H290 N284 0.984 . S
H291 N284 0.984 . S
H292 N280 0.984 . S
H293 N280 0.985 . S
C294 C295 1.363 . S
C294 C300 1.379 . S
C294 N302 1.356 . S
C295 C294 1.363 . S
C295 C301 1.363 . S
C296 C297 1.363 . S
C296 C301 1.379 . S
C296 N303 1.356 . S
C297 C296 1.363 . S
C297 C300 1.363 . S
N298 C300 1.356 . S
N298 H310 0.984 . S
N298 H311 0.985 . S
N299 C301 1.356 . S
N299 H304 0.984 . S
N299 H305 0.985 . S
C300 C294 1.379 . S
C300 C297 1.363 . S
C300 N298 1.356 . S
C301 C295 1.363 . S
C301 C296 1.379 . S
C301 N299 1.356 . S
N302 C294 1.356 . S
N302 H308 0.984 . S
N302 H309 0.984 . S
N303 C296 1.356 . S
N303 H306 0.984 . S
N303 H307 0.985 . S
H304 N299 0.984 . S
H305 N299 0.985 . S
H306 N303 0.984 . S
H307 N303 0.985 . S
H308 N302 0.984 . S
H309 N302 0.984 . S
H310 N298 0.984 . S
H311 N298 0.985 . S
C312 C313 1.363 . S
C312 C318 1.379 1_455 S
C312 N320 1.356 . S
C313 C312 1.363 . S
C313 C319 1.363 . S
C314 C315 1.363 1_455 S
C314 C319 1.379 . S
C314 N321 1.356 . S
C315 C314 1.363 1_655 S
C315 C318 1.363 . S
N316 C318 1.356 . S
N316 H328 0.984 . S
N316 H329 0.985 . S
N317 C319 1.356 . S
N317 H322 0.984 . S
N317 H323 0.985 . S
C318 C312 1.379 1_655 S
C318 C315 1.363 . S
C318 N316 1.356 . S
C319 C313 1.363 . S
C319 C314 1.379 . S
C319 N317 1.356 . S
N320 C312 1.356 . S
N320 H326 0.984 1_455 S
N320 H327 0.984 . S
N321 C314 1.356 . S
N321 H324 0.984 . S
N321 H325 0.985 . S
H322 N317 0.984 . S
H323 N317 0.985 . S
H324 N321 0.984 . S
H325 N321 0.985 . S
H326 N320 0.984 1_655 S
H327 N320 0.984 . S
H328 N316 0.984 . S
H329 N316 0.985 . S
C330 C331 1.363 . S
C330 C336 1.379 . S
C330 N338 1.356 . S
C331 C330 1.363 . S
C331 C337 1.363 . S
C332 C333 1.363 . S
C332 C337 1.379 . S
C332 N339 1.356 . S
C333 C332 1.363 . S
C333 C336 1.363 . S
N334 C336 1.356 . S
N334 H346 0.984 . S
N334 H347 0.985 . S
N335 C337 1.356 . S
N335 H340 0.984 . S
N335 H341 0.985 . S
C336 C330 1.379 . S
C336 C333 1.363 . S
C336 N334 1.356 . S
C337 C331 1.363 . S
C337 C332 1.379 . S
C337 N335 1.356 . S
N338 C330 1.356 . S
N338 H344 0.984 . S
N338 H345 0.984 . S
N339 C332 1.356 . S
N339 H342 0.984 . S
N339 H343 0.985 . S
H340 N335 0.984 . S
H341 N335 0.985 . S
H342 N339 0.984 . S
H343 N339 0.985 . S
H344 N338 0.984 . S
H345 N338 0.984 . S
H346 N334 0.984 . S
H347 N334 0.985 . S
C348 C349 1.363 . S
C348 C354 1.379 . S
C348 N356 1.356 . S
C349 C348 1.363 . S
C349 C355 1.363 . S
C350 C351 1.363 . S
C350 C355 1.379 . S
C350 N357 1.356 1_556 S
C351 C350 1.363 . S
C351 C354 1.363 . S
N352 C354 1.356 . S
N352 H364 0.984 . S
N352 H365 0.985 . S
N353 C355 1.356 1_554 S
N353 H358 0.984 . S
N353 H359 0.985 . S
C354 C348 1.379 . S
C354 C351 1.363 . S
C354 N352 1.356 . S
C355 C349 1.363 . S
C355 C350 1.379 . S
C355 N353 1.356 1_556 S
N356 C348 1.356 . S
N356 H362 0.984 . S
N356 H363 0.984 . S
N357 C350 1.356 1_554 S
N357 H360 0.984 . S
N357 H361 0.985 . S
H358 N353 0.984 . S
H359 N353 0.985 . S
H360 N357 0.984 . S
H361 N357 0.985 . S
H362 N356 0.984 . S
H363 N356 0.984 . S
H364 N352 0.984 . S
H365 N352 0.985 . S
C366 C367 1.363 . S
C366 C372 1.379 . S
C366 N374 1.356 . S
C367 C366 1.363 . S
C367 C373 1.366 . S
C368 C369 1.363 . S
C368 C373 1.380 . S
C368 N375 1.356 1_554 S
C369 C368 1.363 . S
C369 C372 1.363 . S
N370 C372 1.356 . S
N370 H382 0.984 . S
N370 H383 0.985 . S
N371 C373 1.352 1_556 S
N371 H376 0.984 . S
N371 H377 0.985 . S
C372 C366 1.379 . S
C372 C369 1.363 . S
C372 N370 1.356 . S
C373 C367 1.366 . S
C373 C368 1.380 . S
C373 N371 1.352 1_554 S
N374 C366 1.356 . S
N374 H380 0.984 . S
N374 H381 0.984 . S
N375 C368 1.356 1_556 S
N375 H378 0.984 1_556 S
N375 H379 0.985 . S
H376 N371 0.984 . S
H377 N371 0.985 . S
H378 N375 0.984 1_554 S
H379 N375 0.985 . S
H380 N374 0.984 . S
H381 N374 0.984 . S
H382 N370 0.984 . S
H383 N370 0.985 . S
C384 C385 1.363 . S
C384 C390 1.379 . S
C384 N392 1.356 . S
C385 C384 1.363 . S
C385 C391 1.363 . S
C386 C387 1.363 . S
C386 C391 1.379 . S
C386 N393 1.356 1_556 S
C387 C386 1.363 . S
C387 C390 1.363 . S
N388 C390 1.356 . S
N388 H400 0.984 . S
N388 H401 0.985 . S
N389 C391 1.356 1_554 S
N389 H394 0.984 1_554 S
N389 H395 0.985 . S
C390 C384 1.379 . S
C390 C387 1.363 . S
C390 N388 1.356 . S
C391 C385 1.363 . S
C391 C386 1.379 . S
C391 N389 1.356 1_556 S
N392 C384 1.356 . S
N392 H398 0.984 . S
N392 H399 0.984 . S
N393 C386 1.356 1_554 S
N393 H396 0.984 . S
N393 H397 0.985 . S
H394 N389 0.984 1_556 S
H395 N389 0.985 . S
H396 N393 0.984 . S
H397 N393 0.985 . S
H398 N392 0.984 . S
H399 N392 0.984 . S
H400 N388 0.984 . S
H401 N388 0.985 . S
C402 C403 1.363 . S
C402 C408 1.379 . S
C402 N410 1.356 . S
C403 C402 1.363 . S
C403 C409 1.363 1_554 S
C404 C405 1.363 1_556 S
C404 C409 1.379 . S
C404 N411 1.356 . S
C405 C404 1.363 1_554 S
C405 C408 1.363 . S
N406 C408 1.356 . S
N406 H418 0.984 . S
N406 H419 0.985 . S
N407 C409 1.356 . S
N407 H412 0.984 . S
N407 H413 0.985 . S
C408 C402 1.379 . S
C408 C405 1.363 . S
C408 N406 1.356 . S
C409 C403 1.363 1_556 S
C409 C404 1.379 . S
C409 N407 1.356 . S
N410 C402 1.356 . S
N410 H416 0.984 . S
N410 H417 0.984 . S
N411 C404 1.356 . S
N411 H414 0.984 . S
N411 H415 0.985 . S
H412 N407 0.984 . S
H413 N407 0.985 . S
H414 N411 0.984 . S
H415 N411 0.985 . S
H416 N410 0.984 . S
H417 N410 0.984 . S
H418 N406 0.984 . S
H419 N406 0.985 . S
C420 C421 1.363 . S
C420 C426 1.379 . S
C420 N428 1.356 . S
C421 C420 1.363 . S
C421 C427 1.363 . S
C422 C423 1.363 1_554 S
C422 C427 1.379 1_554 S
C422 N429 1.356 . S
C423 C422 1.363 1_556 S
C423 C426 1.363 . S
N424 C426 1.356 . S
N424 H436 0.984 . S
N424 H437 0.985 . S
N425 C427 1.356 . S
N425 H430 0.984 . S
N425 H431 0.985 1_556 S
C426 C420 1.379 . S
C426 C423 1.363 . S
C426 N424 1.356 . S
C427 C421 1.363 . S
C427 C422 1.379 1_556 S
C427 N425 1.356 . S
N428 C420 1.356 . S
N428 H434 0.984 . S
N428 H435 0.984 . S
N429 C422 1.356 . S
N429 H432 0.984 . S
N429 H433 0.985 . S
H430 N425 0.984 . S
H431 N425 0.985 1_554 S
H432 N429 0.984 . S
H433 N429 0.985 . S
H434 N428 0.984 . S
H435 N428 0.984 . S
H436 N424 0.984 . S
H437 N424 0.985 . S
C438 C439 1.363 . S
C438 C444 1.379 . S
C438 N446 1.356 . S
C439 C438 1.363 . S
C439 C445 1.363 . S
C440 C441 1.363 . S
C440 C445 1.379 . S
C440 N447 1.356 . S
C441 C440 1.363 . S
C441 C444 1.363 . S
N442 C444 1.356 . S
N442 H454 0.984 1_554 S
N442 H455 0.985 . S
N443 C445 1.356 . S
N443 H448 0.984 . S
N443 H449 0.985 . S
C444 C438 1.379 . S
C444 C441 1.363 . S
C444 N442 1.356 . S
C445 C439 1.363 . S
C445 C440 1.379 . S
C445 N443 1.356 . S
N446 C438 1.356 . S
N446 H452 0.984 1_554 S
N446 H453 0.984 . S
N447 C440 1.356 . S
N447 H450 0.984 . S
N447 H451 0.985 . S
H448 N443 0.984 . S
H449 N443 0.985 . S
H450 N447 0.984 . S
H451 N447 0.985 . S
H452 N446 0.984 1_556 S
H453 N446 0.984 . S
H454 N442 0.984 1_556 S
H455 N442 0.985 . S
C456 C457 1.363 . S
C456 C462 1.379 . S
C456 N464 1.356 . S
C457 C456 1.363 . S
C457 C463 1.363 . S
C458 C459 1.363 . S
C458 C463 1.379 . S
C458 N465 1.356 . S
C459 C458 1.363 . S
C459 C462 1.363 . S
N460 C462 1.356 . S
N460 H472 0.984 . S
N460 H473 0.985 . S
N461 C463 1.356 . S
N461 H466 0.984 . S
N461 H467 0.985 . S
C462 C456 1.379 . S
C462 C459 1.363 . S
C462 N460 1.356 . S
C463 C457 1.363 . S
C463 C458 1.379 . S
C463 N461 1.356 . S
N464 C456 1.356 . S
N464 H470 0.984 . S
N464 H471 0.984 . S
N465 C458 1.356 . S
N465 H468 0.984 . S
N465 H469 0.985 . S
H466 N461 0.984 . S
H467 N461 0.985 . S
H468 N465 0.984 . S
H469 N465 0.985 . S
H470 N464 0.984 . S
H471 N464 0.984 . S
H472 N460 0.984 . S
H473 N460 0.985 . S
C474 C475 1.363 . S
C474 C480 1.379 . S
C474 N482 1.356 . S
C475 C474 1.363 . S
C475 C481 1.363 . S
C476 C477 1.363 . S
C476 C481 1.379 . S
C476 N483 1.356 . S
C477 C476 1.363 . S
C477 C480 1.363 . S
N478 C480 1.356 . S
N478 H490 0.984 . S
N478 H491 0.985 . S
N479 C481 1.356 . S
N479 H484 0.984 . S
N479 H485 0.985 . S
C480 C474 1.379 . S
C480 C477 1.363 . S
C480 N478 1.356 . S
C481 C475 1.363 . S
C481 C476 1.379 . S
C481 N479 1.356 . S
N482 C474 1.356 . S
N482 H488 0.984 . S
N482 H489 0.984 . S
N483 C476 1.356 . S
N483 H486 0.984 . S
N483 H487 0.985 . S
H484 N479 0.984 . S
H485 N479 0.985 . S
H486 N483 0.984 . S
H487 N483 0.985 . S
H488 N482 0.984 . S
H489 N482 0.984 . S
H490 N478 0.984 . S
H491 N478 0.985 . S
C492 C493 1.363 . S
C492 C498 1.379 . S
C492 N500 1.356 . S
C493 C492 1.363 . S
C493 C499 1.363 . S
C494 C495 1.363 . S
C494 C499 1.379 . S
C494 N501 1.356 . S
C495 C494 1.363 . S
C495 C498 1.363 . S
N496 C498 1.356 . S
N496 H508 0.984 . S
N496 H509 0.985 . S
N497 C499 1.356 . S
N497 H502 0.984 . S
N497 H503 0.985 . S
C498 C492 1.379 . S
C498 C495 1.363 . S
C498 N496 1.356 . S
C499 C493 1.363 . S
C499 C494 1.379 . S
C499 N497 1.356 . S
N500 C492 1.356 . S
N500 H506 0.984 . S
N500 H507 0.984 . S
N501 C494 1.356 . S
N501 H504 0.984 . S
N501 H505 0.985 . S
H502 N497 0.984 . S
H503 N497 0.985 . S
H504 N501 0.984 . S
H505 N501 0.985 . S
H506 N500 0.984 . S
H507 N500 0.984 . S
H508 N496 0.984 . S
H509 N496 0.985 . S
C510 C511 1.363 . S
C510 C516 1.379 . S
C510 N518 1.356 . S
C511 C510 1.363 . S
C511 C517 1.363 . S
C512 C513 1.363 . S
C512 C517 1.379 . S
C512 N519 1.356 . S
C513 C512 1.363 . S
C513 C516 1.363 . S
N514 C516 1.356 . S
N514 H526 0.984 . S
N514 H527 0.985 . S
N515 C517 1.356 . S
N515 H520 0.984 . S
N515 H521 0.985 . S
C516 C510 1.379 . S
C516 C513 1.363 . S
C516 N514 1.356 . S
C517 C511 1.363 . S
C517 C512 1.379 . S
C517 N515 1.356 . S
N518 C510 1.356 . S
N518 H524 0.984 . S
N518 H525 0.984 . S
N519 C512 1.356 . S
N519 H522 0.984 . S
N519 H523 0.985 . S
H520 N515 0.984 . S
H521 N515 0.985 . S
H522 N519 0.984 . S
H523 N519 0.985 . S
H524 N518 0.984 . S
H525 N518 0.984 . S
H526 N514 0.984 . S
H527 N514 0.985 . S
C528 C529 1.363 . S
C528 C534 1.379 . S
C528 N536 1.356 . S
C529 C528 1.363 . S
C529 C535 1.363 . S
C530 C531 1.363 . S
C530 C535 1.379 . S
C530 N537 1.356 . S
C531 C530 1.363 . S
C531 C534 1.363 . S
N532 C534 1.356 . S
N532 H544 0.984 . S
N532 H545 0.985 . S
N533 C535 1.356 . S
N533 H538 0.984 . S
N533 H539 0.985 . S
C534 C528 1.379 . S
C534 C531 1.363 . S
C534 N532 1.356 . S
C535 C529 1.363 . S
C535 C530 1.379 . S
C535 N533 1.356 . S
N536 C528 1.356 . S
N536 H542 0.984 . S
N536 H543 0.984 . S
N537 C530 1.356 . S
N537 H540 0.984 . S
N537 H541 0.985 . S
H538 N533 0.984 . S
H539 N533 0.985 . S
H540 N537 0.984 . S
H541 N537 0.985 . S
H542 N536 0.984 . S
H543 N536 0.984 . S
H544 N532 0.984 . S
H545 N532 0.985 . S
C546 C547 1.363 . S
C546 C552 1.379 . S
C546 N554 1.356 . S
C547 C546 1.363 . S
C547 C553 1.363 . S
C548 C549 1.363 . S
C548 C553 1.379 . S
C548 N555 1.356 . S
C549 C548 1.363 . S
C549 C552 1.363 . S
N550 C552 1.356 . S
N550 H562 0.984 . S
N550 H563 0.985 . S
N551 C553 1.356 . S
N551 H556 0.984 . S
N551 H557 0.985 . S
C552 C546 1.379 . S
C552 C549 1.363 . S
C552 N550 1.356 . S
C553 C547 1.363 . S
C553 C548 1.379 . S
C553 N551 1.356 . S
N554 C546 1.356 . S
N554 H560 0.984 . S
N554 H561 0.984 . S
N555 C548 1.356 . S
N555 H558 0.984 . S
N555 H559 0.985 . S
H556 N551 0.984 . S
H557 N551 0.985 . S
H558 N555 0.984 . S
H559 N555 0.985 . S
H560 N554 0.984 . S
H561 N554 0.984 . S
H562 N550 0.984 . S
H563 N550 0.985 . S
C241 C210 2.980 . S
C243 C6 2.816 . S
C259 C10 3.698 . S
C261 C46 3.575 1_455 S
C277 C50 3.789 . S
C279 C86 3.471 1_545 S
C295 C130 3.252 . S
C297 C90 3.268 . S
C313 C166 2.363 . S
C315 C126 2.168 . S
C331 C170 3.650 . S
C333 C206 3.081 . S
C349 C179 1.150 . S
C351 C15 1.184 . S
C367 C219 2.598 . S
C369 C55 2.492 . S
C385 C95 3.085 . S
C387 C19 3.120 . S
C403 C139 3.691 . S
C405 C59 3.711 . S
C421 C175 1.914 . S
C423 C99 2.078 1_556 S
C439 C135 0.760 . S
C441 C215 0.761 . S
C457 C9 0.957 . S
C459 C18 0.957 . S
C475 C49 0.835 . S
C477 C58 0.835 . S
C493 C89 0.940 . S
C495 C98 0.940 . S
C511 C138 0.955 . S
C513 C129 0.955 . S
C529 C178 0.782 . S
C531 C169 0.782 . S
C547 C209 1.002 . S
C549 C218 1.002 . S
