# Generated by pormake.
# Topology bcs, (6)-cn, num edge types: 1
# Building blocks:
#     Node 0, Type 0, BuildingBlock: UKALOJ_clean_sbu_0, # of connection points: 6
#     Node 1, Type 0, BuildingBlock: UKALOJ_clean_sbu_0, # of connection points: 6
#     Node 2, Type 0, BuildingBlock: UKALOJ_clean_sbu_0, # of connection points: 6
#     Node 3, Type 0, BuildingBlock: UKALOJ_clean_sbu_0, # of connection points: 6
#     Node 4, Type 0, BuildingBlock: UKALOJ_clean_sbu_0, # of connection points: 6
#     Node 5, Type 0, BuildingBlock: UKALOJ_clean_sbu_0, # of connection points: 6
#     Node 6, Type 0, BuildingBlock: UKALOJ_clean_sbu_0, # of connection points: 6
#     Node 7, Type 0, BuildingBlock: UKALOJ_clean_sbu_0, # of connection points: 6
#     Node 8, Type 0, BuildingBlock: UKALOJ_clean_sbu_0, # of connection points: 6
#     Node 9, Type 0, BuildingBlock: UKALOJ_clean_sbu_0, # of connection points: 6
#     Node 10, Type 0, BuildingBlock: UKALOJ_clean_sbu_0, # of connection points: 6
#     Node 11, Type 0, BuildingBlock: UKALOJ_clean_sbu_0, # of connection points: 6
#     Node 12, Type 0, BuildingBlock: UKALOJ_clean_sbu_0, # of connection points: 6
#     Node 13, Type 0, BuildingBlock: UKALOJ_clean_sbu_0, # of connection points: 6
#     Node 14, Type 0, BuildingBlock: UKALOJ_clean_sbu_0, # of connection points: 6
#     Node 15, Type 0, BuildingBlock: UKALOJ_clean_sbu_0, # of connection points: 6
#     Edge 16, Type (0, 0), BuildingBlock: CIFDUS_clean_linker_0, # of connection points: 2
#     Edge 17, Type (0, 0), BuildingBlock: CIFDUS_clean_linker_0, # of connection points: 2
#     Edge 18, Type (0, 0), BuildingBlock: CIFDUS_clean_linker_0, # of connection points: 2
#     Edge 19, Type (0, 0), BuildingBlock: CIFDUS_clean_linker_0, # of connection points: 2
#     Edge 20, Type (0, 0), BuildingBlock: CIFDUS_clean_linker_0, # of connection points: 2
#     Edge 21, Type (0, 0), BuildingBlock: CIFDUS_clean_linker_0, # of connection points: 2
#     Edge 22, Type (0, 0), BuildingBlock: CIFDUS_clean_linker_0, # of connection points: 2
#     Edge 23, Type (0, 0), BuildingBlock: CIFDUS_clean_linker_0, # of connection points: 2
#     Edge 24, Type (0, 0), BuildingBlock: CIFDUS_clean_linker_0, # of connection points: 2
#     Edge 25, Type (0, 0), BuildingBlock: CIFDUS_clean_linker_0, # of connection points: 2
#     Edge 26, Type (0, 0), BuildingBlock: CIFDUS_clean_linker_0, # of connection points: 2
#     Edge 27, Type (0, 0), BuildingBlock: CIFDUS_clean_linker_0, # of connection points: 2
#     Edge 28, Type (0, 0), BuildingBlock: CIFDUS_clean_linker_0, # of connection points: 2
#     Edge 29, Type (0, 0), BuildingBlock: CIFDUS_clean_linker_0, # of connection points: 2
#     Edge 30, Type (0, 0), BuildingBlock: CIFDUS_clean_linker_0, # of connection points: 2
#     Edge 31, Type (0, 0), BuildingBlock: CIFDUS_clean_linker_0, # of connection points: 2
#     Edge 32, Type (0, 0), BuildingBlock: CIFDUS_clean_linker_0, # of connection points: 2
#     Edge 33, Type (0, 0), BuildingBlock: CIFDUS_clean_linker_0, # of connection points: 2
#     Edge 34, Type (0, 0), BuildingBlock: CIFDUS_clean_linker_0, # of connection points: 2
#     Edge 35, Type (0, 0), BuildingBlock: CIFDUS_clean_linker_0, # of connection points: 2
#     Edge 36, Type (0, 0), BuildingBlock: CIFDUS_clean_linker_0, # of connection points: 2
#     Edge 37, Type (0, 0), BuildingBlock: CIFDUS_clean_linker_0, # of connection points: 2
#     Edge 38, Type (0, 0), BuildingBlock: CIFDUS_clean_linker_0, # of connection points: 2
#     Edge 39, Type (0, 0), BuildingBlock: CIFDUS_clean_linker_0, # of connection points: 2
#     Edge 40, Type (0, 0), BuildingBlock: CIFDUS_clean_linker_0, # of connection points: 2
#     Edge 41, Type (0, 0), BuildingBlock: CIFDUS_clean_linker_0, # of connection points: 2
#     Edge 42, Type (0, 0), BuildingBlock: CIFDUS_clean_linker_0, # of connection points: 2
#     Edge 43, Type (0, 0), BuildingBlock: CIFDUS_clean_linker_0, # of connection points: 2
#     Edge 44, Type (0, 0), BuildingBlock: CIFDUS_clean_linker_0, # of connection points: 2
#     Edge 45, Type (0, 0), BuildingBlock: CIFDUS_clean_linker_0, # of connection points: 2
#     Edge 46, Type (0, 0), BuildingBlock: CIFDUS_clean_linker_0, # of connection points: 2
#     Edge 47, Type (0, 0), BuildingBlock: CIFDUS_clean_linker_0, # of connection points: 2
#     Edge 48, Type (0, 0), BuildingBlock: CIFDUS_clean_linker_0, # of connection points: 2
#     Edge 49, Type (0, 0), BuildingBlock: CIFDUS_clean_linker_0, # of connection points: 2
#     Edge 50, Type (0, 0), BuildingBlock: CIFDUS_clean_linker_0, # of connection points: 2
#     Edge 51, Type (0, 0), BuildingBlock: CIFDUS_clean_linker_0, # of connection points: 2
#     Edge 52, Type (0, 0), BuildingBlock: CIFDUS_clean_linker_0, # of connection points: 2
#     Edge 53, Type (0, 0), BuildingBlock: CIFDUS_clean_linker_0, # of connection points: 2
#     Edge 54, Type (0, 0), BuildingBlock: CIFDUS_clean_linker_0, # of connection points: 2
#     Edge 55, Type (0, 0), BuildingBlock: CIFDUS_clean_linker_0, # of connection points: 2
#     Edge 56, Type (0, 0), BuildingBlock: CIFDUS_clean_linker_0, # of connection points: 2
#     Edge 57, Type (0, 0), BuildingBlock: CIFDUS_clean_linker_0, # of connection points: 2
#     Edge 58, Type (0, 0), BuildingBlock: CIFDUS_clean_linker_0, # of connection points: 2
#     Edge 59, Type (0, 0), BuildingBlock: CIFDUS_clean_linker_0, # of connection points: 2
#     Edge 60, Type (0, 0), BuildingBlock: CIFDUS_clean_linker_0, # of connection points: 2
#     Edge 61, Type (0, 0), BuildingBlock: CIFDUS_clean_linker_0, # of connection points: 2
#     Edge 62, Type (0, 0), BuildingBlock: CIFDUS_clean_linker_0, # of connection points: 2
#     Edge 63, Type (0, 0), BuildingBlock: CIFDUS_clean_linker_0, # of connection points: 2
# Relax obj value: 0.524
# Max RMSD: 0.303
# Mean RMSD: 0.269
data_MOF--net-bcs--node1-UKALOJ_clean_sbu_0--edge1-CIFDUS_clean_linker_0
_symmetry_space_group_name_H-M    P1
_symmetry_Int_Tables_number       1
_symmetry_cell_setting            triclinic
loop_
_symmetry_equiv_pos_as_xyz
'x, y, z'
_cell_length_a     32.648289
_cell_length_b     32.400316
_cell_length_c     34.801959
_cell_angle_alpha  89.883263
_cell_angle_beta   91.084679
_cell_angle_gamma 75.599408
loop_
_atom_site_label
_atom_site_type_symbol
_atom_site_fract_x
_atom_site_fract_y
_atom_site_fract_z
_atom_type_partial_charge
Zn0 Zn 0.03255 0.03015 0.99641 0.0
O1 O 0.06959 0.0019 0.04422 0.0
C2 C 0.05787 0.94737 0.95431 0.0
Zn3 Zn 0.98712 0.98848 0.00429 0.0
C4 C 0.0584 0.97328 0.06351 0.0
O5 O 0.02525 0.96173 0.05329 0.0
C6 C 0.96204 0.04636 0.93698 0.0
O7 O 0.95065 0.0366 0.03839 0.0
O8 O 0.99566 0.07634 0.03273 0.0
N9 N 0.94548 0.95053 0.0144 0.0
C10 C 0.93019 0.93833 0.0473 0.0
C11 C 0.90165 0.91219 0.00091 0.0
N12 N 0.92759 0.93419 0.9857 0.0
N13 N 0.90275 0.914 0.03961 0.0
C14 C 0.10958 0.06695 0.97052 0.0
C15 C 0.08693 0.13234 0.98491 0.0
N16 N 0.07172 0.07105 0.98719 0.0
N17 N 0.05803 0.11178 0.99632 0.0
N18 N 0.11966 0.10492 0.96849 0.0
H19 H 0.1365 0.00023 0.97897 0.0
H20 H 0.17083 0.0279 0.95551 0.0
H21 H 0.12626 0.0176 0.92937 0.0
C22 C 0.13761 0.02567 0.95794 0.0
C23 C 0.94034 0.95217 0.0867 0.0
H24 H 0.95195 0.98136 0.08578 0.0
H25 H 0.96553 0.92661 0.10016 0.0
H26 H 0.91204 0.9578 0.105 0.0
O27 O 0.95058 0.01695 0.955 0.0
O28 O 0.99481 0.05765 0.9485 0.0
C29 C 0.96179 0.07046 0.04645 0.0
O30 O 0.06777 0.98237 0.96076 0.0
O31 O 0.02467 0.94073 0.96903 0.0
Zn32 Zn 0.2157 0.7451 0.27795 0.0
O33 O 0.26216 0.69122 0.30017 0.0
C34 C 0.26214 0.79923 0.31898 0.0
Zn35 Zn 0.26593 0.75869 0.24126 0.0
C36 C 0.30019 0.68228 0.28883 0.0
O37 O 0.31074 0.70548 0.26325 0.0
C38 C 0.18194 0.82122 0.22919 0.0
O39 O 0.25202 0.72196 0.19621 0.0
O40 O 0.20198 0.70763 0.23117 0.0
N41 N 0.31131 0.7763 0.21051 0.0
C42 C 0.30941 0.79703 0.17663 0.0
C43 C 0.3693 0.7953 0.20285 0.0
N44 N 0.34869 0.77493 0.22658 0.0
N45 N 0.34524 0.80993 0.17141 0.0
C46 C 0.16944 0.71046 0.34396 0.0
C47 C 0.10773 0.71835 0.31931 0.0
N48 N 0.16931 0.72877 0.30908 0.0
N49 N 0.13088 0.73376 0.29393 0.0
N50 N 0.13111 0.70326 0.351 0.0
H51 H 0.22594 0.66881 0.36708 0.0
H52 H 0.19572 0.70471 0.40167 0.0
H53 H 0.22686 0.72373 0.36665 0.0
C54 C 0.2065 0.70168 0.37153 0.0
C55 C 0.27345 0.80269 0.14799 0.0
H56 H 0.25773 0.77627 0.14984 0.0
H57 H 0.28487 0.80424 0.11832 0.0
H58 H 0.24958 0.8327 0.15387 0.0
O59 O 0.22047 0.81219 0.21964 0.0
O60 O 0.17013 0.79844 0.25441 0.0
C61 C 0.2221 0.70381 0.19984 0.0
O62 O 0.23062 0.78348 0.32408 0.0
O63 O 0.28059 0.79421 0.28697 0.0
Zn64 Zn 0.53107 0.01671 0.49834 0.0
O65 O 0.49077 0.06172 0.46209 0.0
C66 C 0.46188 0.03018 0.55731 0.0
Zn67 Zn 0.49021 0.97046 0.49254 0.0
C68 C 0.45856 0.05128 0.44793 0.0
O69 O 0.45212 0.0152 0.45586 0.0
C70 C 0.56226 0.93682 0.54377 0.0
O71 O 0.52768 0.94173 0.4457 0.0
O72 O 0.56723 0.98736 0.44937 0.0
N73 N 0.45015 0.93086 0.48505 0.0
C74 C 0.43499 0.91651 0.45277 0.0
C75 C 0.40678 0.89288 0.50004 0.0
N76 N 0.43242 0.91625 0.51439 0.0
N77 N 0.40799 0.89252 0.4614 0.0
C78 C 0.57498 0.08633 0.53142 0.0
C79 C 0.63513 0.06746 0.50525 0.0
N80 N 0.5732 0.05471 0.50663 0.0
N81 N 0.6106 0.04344 0.49024 0.0
N82 N 0.61371 0.09446 0.5315 0.0
H83 H 0.50855 0.11504 0.5366 0.0
H84 H 0.54254 0.14269 0.56172 0.0
H85 H 0.5358 0.09306 0.58056 0.0
C86 C 0.53826 0.11083 0.55382 0.0
C87 C 0.44464 0.92757 0.41263 0.0
H88 H 0.46894 0.90065 0.40091 0.0
H89 H 0.45672 0.95646 0.41155 0.0
H90 H 0.41591 0.93235 0.39392 0.0
O91 O 0.52938 0.92685 0.53071 0.0
O92 O 0.56978 0.97188 0.53406 0.0
C93 C 0.5582 0.95544 0.43311 0.0
O94 O 0.49368 0.04361 0.54738 0.0
O95 O 0.45318 -0.00048 0.53893 0.0
Zn96 Zn 0.29826 0.24403 0.7773 0.0
O97 O 0.25647 0.29626 0.8025 0.0
C98 C 0.25235 0.18592 0.81137 0.0
Zn99 Zn 0.24568 0.23691 0.73756 0.0
C100 C 0.21757 0.3086 0.79316 0.0
O101 O 0.20287 0.28931 0.76635 0.0
C102 C 0.32874 0.1738 0.72154 0.0
O103 O 0.2587 0.27897 0.69597 0.0
O104 O 0.31165 0.28452 0.73371 0.0
N105 N 0.1959 0.22683 0.70445 0.0
C106 C 0.19346 0.20815 0.67006 0.0
C107 C 0.13226 0.22079 0.69435 0.0
N108 N 0.15764 0.2351 0.71915 0.0
N109 N 0.15381 0.20376 0.66315 0.0
C110 C 0.3504 0.27467 0.84382 0.0
C111 C 0.4091 0.26864 0.81612 0.0
N112 N 0.34755 0.25636 0.80929 0.0
N113 N 0.3842 0.25253 0.79235 0.0
N114 N 0.38881 0.28333 0.84868 0.0
H115 H 0.29623 0.31465 0.87016 0.0
H116 H 0.33021 0.27708 0.90251 0.0
H117 H 0.29583 0.25943 0.86835 0.0
C118 C 0.31627 0.28169 0.87301 0.0
C119 C 0.23078 0.19085 0.64527 0.0
H120 H 0.25426 0.2102 0.64843 0.0
H121 H 0.22162 0.19064 0.61458 0.0
H122 H 0.24549 0.15752 0.65414 0.0
O123 O 0.29008 0.18523 0.7107 0.0
O124 O 0.34091 0.19194 0.75044 0.0
C125 C 0.29074 0.29377 0.7023 0.0
O126 O 0.28279 0.20254 0.82029 0.0
O127 O 0.23345 0.19463 0.77901 0.0
Zn128 Zn 0.05378 0.98355 0.47668 0.0
O129 O 0.03104 0.93725 0.44497 0.0
C130 C 0.97385 0.04704 0.46069 0.0
Zn131 Zn 0.0056 0.97979 0.5194 0.0
C132 C 0.00045 0.92239 0.4556 0.0
O133 O 0.9821 0.93528 0.48681 0.0
C134 C 0.05935 0.03969 0.54194 0.0
O135 O 0.04825 0.92922 0.547 0.0
O136 O 0.09682 0.93486 0.50601 0.0
N137 N 0.96103 0.98222 0.55971 0.0
C138 C 0.96389 0.97299 0.59756 0.0
C139 C 0.89857 -0.00226 0.58347 0.0
N140 N 0.92043 -0.00206 0.55108 0.0
N141 N 0.92526 0.98278 0.61307 0.0
C142 C 0.09448 0.99198 0.39882 0.0
C143 C 0.15912 0.98437 0.41518 0.0
N144 N 0.09808 0.98335 0.43676 0.0
N145 N 0.13836 0.97797 0.4468 0.0
N146 N 0.13233 0.99336 0.38462 0.0
H147 H 0.03526 0.97611 0.38596 0.0
H148 H 0.06127 0.99058 0.34471 0.0
H149 H 0.03483 0.03057 0.37796 0.0
C150 C 0.05429 -0.00258 0.37547 0.0
C151 C 0.00433 0.95561 0.61973 0.0
H152 H 0.02965 0.9698 0.60929 0.0
H153 H 0.01427 0.92061 0.6158 0.0
H154 H -2e-05 0.96215 0.65087 0.0
O155 O 0.02963 0.02353 0.55232 0.0
O156 O 0.07622 0.0296 0.50954 0.0
C157 C 0.08591 0.9172 0.53529 0.0
O158 O 0.01075 0.0333 0.44779 0.0
O159 O 0.96338 0.03023 0.49067 0.0
Zn160 Zn 0.29736 0.78344 0.75812 0.0
O161 O 0.25288 0.80728 0.71366 0.0
C162 C 0.22894 0.80669 0.81644 0.0
Zn163 Zn 0.26254 0.73337 0.76706 0.0
C164 C 0.22264 0.79033 0.7056 0.0
O165 O 0.21843 0.75828 0.72449 0.0
C166 C 0.33647 0.72521 0.81983 0.0
O167 O 0.30277 0.69771 0.72437 0.0
O168 O 0.33679 0.74766 0.71818 0.0
N169 N 0.23278 0.68576 0.77548 0.0
C170 C 0.24297 0.64416 0.76624 0.0
C171 C 0.17916 0.65953 0.78437 0.0
N172 N 0.19329 0.69505 0.78738 0.0
N173 N 0.20971 0.62702 0.77109 0.0
C174 C 0.3128 0.87402 0.75238 0.0
C175 C 0.37812 0.85946 0.73965 0.0
N176 N 0.32621 0.83139 0.74889 0.0
N177 N 0.3666 0.82249 0.74017 0.0
N178 N 0.3453 0.89285 0.74766 0.0
H179 H 0.24627 0.87503 0.75083 0.0
H180 H 0.25795 0.92325 0.73611 0.0
H181 H 0.26168 0.90839 0.78673 0.0
C182 C 0.26712 0.89644 0.75693 0.0
C183 C 0.28585 0.61971 0.75387 0.0
H184 H 0.28867 0.62345 0.72246 0.0
H185 H 0.29062 0.58526 0.76036 0.0
H186 H 0.31081 0.63183 0.76877 0.0
O187 O 0.30628 0.7089 0.81019 0.0
O188 O 0.34182 0.75775 0.80214 0.0
C189 C 0.3317 0.71159 0.70876 0.0
O190 O 0.25791 0.81934 0.79977 0.0
O191 O 0.22298 0.77047 0.80824 0.0
Zn192 Zn 0.49786 0.02618 0.03511 0.0
O193 O 0.46309 0.07244 0.07448 0.0
C194 C 0.44145 0.96841 0.05079 0.0
Zn195 Zn 0.44096 0.03822 0.99678 0.0
C196 C 0.42468 0.09104 0.06655 0.0
O197 O 0.40767 0.08215 0.03558 0.0
C198 C 0.51296 0.97275 0.96503 0.0
O199 O 0.46388 0.08704 0.97116 0.0
O200 O 0.52113 0.07346 0.00775 0.0
N201 N 0.38964 0.04992 0.96038 0.0
C202 C 0.38689 0.05781 0.92229 0.0
C203 C 0.3304 0.04136 0.93815 0.0
N204 N 0.3541 0.04053 0.97035 0.0
N205 N 0.35037 0.05174 0.90736 0.0
C206 C 0.57218 0.03413 0.08897 0.0
C207 C 0.59537 0.97016 0.10921 0.0
N208 N 0.54863 0.0106 0.07175 0.0
N209 N 0.56315 0.97086 0.08425 0.0
N210 N 0.60183 0.00942 0.11226 0.0
H211 H 0.5311 0.09647 0.07721 0.0
H212 H 0.5846 0.08859 0.06141 0.0
H213 H 0.57327 0.09586 0.11167 0.0
C214 C 0.56459 0.08153 0.08474 0.0
C215 C 0.41866 0.07426 0.90023 0.0
H216 H 0.4203 0.10539 0.91221 0.0
H217 H 0.40943 0.08 0.8695 0.0
H218 H 0.45039 0.05191 0.90303 0.0
O219 O 0.47492 0.99269 0.95765 0.0
O220 O 0.53087 0.98091 0.99582 0.0
C221 C 0.49883 0.09496 0.98084 0.0
O222 O 0.47521 0.97809 0.06133 0.0
O223 O 0.41886 0.98926 0.02372 0.0
Zn224 Zn 0.2724 0.31458 0.28333 0.0
O225 O 0.3078 0.27514 0.32547 0.0
C226 C 0.31056 0.2543 0.22487 0.0
Zn227 Zn 0.23383 0.26802 0.27531 0.0
C228 C 0.30141 0.23914 0.33346 0.0
O229 O 0.27163 0.22717 0.3164 0.0
C230 C 0.20562 0.34228 0.22368 0.0
O231 O 0.18902 0.29465 0.31737 0.0
O232 O 0.22727 0.3412 0.32455 0.0
N233 N 0.2022 0.22414 0.26008 0.0
C234 C 0.19081 0.19354 0.28012 0.0
C235 C 0.17082 0.18875 0.22183 0.0
N236 N 0.18982 0.22118 0.22387 0.0
N237 N 0.17155 0.1709 0.25675 0.0
C238 C 0.32493 0.38131 0.27761 0.0
C239 C 0.32676 0.40171 0.33585 0.0
N240 N 0.3034 0.35916 0.29832 0.0
N241 N 0.30457 0.37175 0.33451 0.0
N242 N 0.33995 0.40784 0.30048 0.0
H243 H 0.36254 0.35226 0.23082 0.0
H244 H 0.33463 0.40662 0.22186 0.0
H245 H 0.3066 0.36507 0.22068 0.0
C246 C 0.33222 0.37624 0.23525 0.0
C247 C 0.19831 0.18585 0.32246 0.0
H248 H 0.22898 0.16213 0.32716 0.0
H249 H 0.17315 0.17273 0.33498 0.0
H250 H 0.19951 0.21564 0.33746 0.0
O251 O 0.19785 0.30783 0.23461 0.0
O252 O 0.2359 0.35458 0.2396 0.0
C253 C 0.19587 0.32719 0.33402 0.0
O254 O 0.31865 0.28593 0.24223 0.0
O255 O 0.27775 0.24223 0.23341 0.0
Zn256 Zn 0.48057 0.50559 0.04352 0.0
O257 O 0.5208 0.45382 0.07445 0.0
C258 C 0.55029 0.55394 0.05055 0.0
Zn259 Zn 0.52697 0.4956 0.99703 0.0
C260 C 0.55592 0.43471 0.05998 0.0
O261 O 0.56575 0.44585 0.02719 0.0
C262 C 0.45394 0.56781 0.98054 0.0
O263 O 0.49049 0.4535 0.97722 0.0
O264 O 0.44284 0.46521 0.02213 0.0
N265 N 0.56363 0.48031 0.95023 0.0
C266 C 0.55195 0.47752 0.91317 0.0
C267 C 0.61762 0.47424 0.91446 0.0
N268 N 0.60478 0.47717 0.95112 0.0
N269 N 0.58503 0.47453 0.88989 0.0
C270 C 0.43408 0.5049 0.12016 0.0
C271 C 0.40684 0.57142 0.12769 0.0
N272 N 0.44325 0.52506 0.089 0.0
N273 N 0.42633 0.56635 0.09368 0.0
N274 N 0.41184 0.53337 0.14508 0.0
H275 H 0.47539 0.447 0.14112 0.0
H276 H 0.44841 0.4416 0.09652 0.0
H277 H 0.42017 0.44727 0.1412 0.0
C278 C 0.44495 0.4574 0.12492 0.0
C279 C 0.50817 0.47726 0.89905 0.0
H280 H 0.50264 0.44548 0.90507 0.0
H281 H 0.50452 0.48248 0.86753 0.0
H282 H 0.48361 0.50141 0.91364 0.0
O283 O 0.48874 0.54726 0.96702 0.0
O284 O 0.44197 0.55662 0.01244 0.0
C285 C 0.45752 0.44611 0.99159 0.0
O286 O 0.5179 0.5453 0.06482 0.0
O287 O 0.56374 0.53761 0.01855 0.0
Zn288 Zn 0.78726 0.27249 0.25642 0.0
O289 O 0.73887 0.29991 0.21686 0.0
C290 C 0.72649 0.29682 0.32122 0.0
Zn291 Zn 0.75047 0.22529 0.26994 0.0
C292 C 0.70541 0.28691 0.21314 0.0
O293 O 0.70109 0.25536 0.23274 0.0
C294 C 0.83138 0.20991 0.314 0.0
O295 O 0.78272 0.1906 0.22286 0.0
O296 O 0.82046 0.23683 0.21227 0.0
N297 N 0.71931 0.17952 0.2803 0.0
C298 C 0.72935 0.1377 0.2721 0.0
C299 C 0.66448 0.15475 0.28672 0.0
N300 N 0.67916 0.1899 0.29025 0.0
N301 N 0.6953 0.12143 0.27514 0.0
C302 C 0.79986 0.3628 0.24878 0.0
C303 C 0.86525 0.35241 0.26277 0.0
N304 N 0.81683 0.32035 0.24846 0.0
N305 N 0.85767 0.31401 0.25648 0.0
N306 N 0.8294 0.3838 0.2588 0.0
H307 H 0.74933 0.37126 0.2071 0.0
H308 H 0.75026 0.41861 0.23258 0.0
H309 H 0.73251 0.37625 0.25616 0.0
C310 C 0.75541 0.38363 0.23574 0.0
C311 C 0.77255 0.11227 0.26146 0.0
H312 H 0.79739 0.12586 0.27465 0.0
H313 H 0.77585 0.11237 0.22992 0.0
H314 H 0.77726 0.07865 0.27094 0.0
O315 O 0.79883 0.196 0.30785 0.0
O316 O 0.8357 0.24269 0.29608 0.0
C317 C 0.81074 0.20235 0.20371 0.0
O318 O 0.75354 0.30865 0.3011 0.0
O319 O 0.71888 0.26088 0.31502 0.0
Zn320 Zn 0.01042 0.51359 0.54546 0.0
O321 O 0.97558 0.55849 0.58481 0.0
C322 C 0.95398 0.45545 0.55918 0.0
Zn323 Zn 0.95329 0.52843 0.50716 0.0
C324 C 0.93696 0.57748 0.5785 0.0
O325 O 0.91857 0.57037 0.54756 0.0
C326 C 0.02673 0.46442 0.47433 0.0
O327 O 0.97495 0.57916 0.48353 0.0
O328 O 0.03354 0.56164 0.51814 0.0
N329 N 0.90287 0.53914 0.46947 0.0
C330 C 0.9017 0.54684 0.43131 0.0
C331 C 0.84867 0.52262 0.44397 0.0
N332 N 0.86939 0.52485 0.47737 0.0
N333 N 0.86853 0.53558 0.41428 0.0
C334 C 0.08459 0.52335 0.59846 0.0
C335 C 0.10912 0.46012 0.62 0.0
N336 N 0.06122 0.49888 0.58242 0.0
N337 N 0.0765 0.45959 0.59579 0.0
N338 N 0.11497 0.49971 0.62172 0.0
H339 H 0.04235 0.58518 0.58725 0.0
H340 H 0.09462 0.57738 0.56829 0.0
H341 H 0.08655 0.58579 0.61892 0.0
C342 C 0.07633 0.57069 0.59309 0.0
C343 C 0.93063 0.56919 0.41154 0.0
H344 H 0.92993 0.59949 0.42651 0.0
H345 H 0.92033 0.5777 0.3814 0.0
H346 H 0.96352 0.54901 0.41254 0.0
O347 O 0.98901 0.48523 0.46679 0.0
O348 O 0.04382 0.46984 0.50636 0.0
C349 C 0.01084 0.58519 0.4926 0.0
O350 O 0.98772 0.46445 0.57103 0.0
O351 O 0.93234 0.4774 0.53213 0.0
Zn352 Zn 0.74386 0.74696 0.23162 0.0
O353 O 0.7694 0.78477 0.19145 0.0
C354 C 0.81727 0.67186 0.21584 0.0
Zn355 Zn 0.79865 0.74187 0.27274 0.0
C356 C 0.8046 0.7928 0.20082 0.0
O357 O 0.82195 0.77934 0.23301 0.0
C358 C 0.73868 0.69626 0.30434 0.0
O359 O 0.76191 0.79847 0.29936 0.0
O360 O 0.70821 0.80305 0.25933 0.0
N361 N 0.85064 0.74049 0.30794 0.0
C362 C 0.85608 0.75895 0.34179 0.0
C363 C 0.91729 0.73282 0.31951 0.0
N364 N 0.88883 0.72371 0.29457 0.0
N365 N 0.8977 0.75488 0.34957 0.0
C366 C 0.69015 0.72784 0.16109 0.0
C367 C 0.62827 0.74477 0.1838 0.0
N368 N 0.69297 0.74626 0.19557 0.0
N369 N 0.65424 0.75739 0.20922 0.0
N370 N 0.64991 0.72609 0.15319 0.0
H371 H 0.75373 0.72356 0.14248 0.0
H372 H 0.71801 0.7138 0.10558 0.0
H373 H 0.73719 0.67405 0.14177 0.0
C374 C 0.72707 0.70887 0.13639 0.0
C375 C 0.82053 0.78396 0.36529 0.0
H376 H 0.79248 0.77064 0.36222 0.0
H377 H 0.81239 0.81756 0.3553 0.0
H378 H 0.82931 0.78352 0.39613 0.0
O379 O 0.77427 0.704 0.31234 0.0
O380 O 0.72004 0.70979 0.27258 0.0
C381 C 0.72437 0.81709 0.28856 0.0
O382 O 0.77961 0.69041 0.20581 0.0
O383 O 0.8343 0.68613 0.24434 0.0
Zn384 Zn 0.70986 0.25293 0.77894 0.0
O385 O 0.75115 0.19813 0.80453 0.0
C386 C 0.76491 0.30279 0.81404 0.0
Zn387 Zn 0.76174 0.25671 0.73952 0.0
C388 C 0.78865 0.18313 0.79311 0.0
O389 O 0.80202 0.20092 0.765 0.0
C390 C 0.68342 0.32684 0.72573 0.0
O391 O 0.7387 0.21908 0.69735 0.0
O392 O 0.68873 0.21494 0.73762 0.0
N393 N 0.81002 0.26486 0.70593 0.0
C394 C 0.80984 0.28464 0.67174 0.0
C395 C 0.87069 0.27808 0.69766 0.0
N396 N 0.84804 0.2604 0.72173 0.0
N397 N 0.84745 0.2942 0.66613 0.0
C398 C 0.65344 0.21541 0.83283 0.0
C399 C 0.61085 0.2713 0.85396 0.0
N400 N 0.66245 0.249 0.81516 0.0
N401 N 0.6358 0.28371 0.82818 0.0
N402 N 0.62164 0.22858 0.85753 0.0
H403 H 0.68778 0.1658 0.79578 0.0
H404 H 0.65153 0.14972 0.82781 0.0
H405 H 0.70022 0.15842 0.8465 0.0
C406 C 0.67444 0.1697 0.82494 0.0
C407 C 0.77391 0.29146 0.64303 0.0
H408 H 0.75637 0.26652 0.64609 0.0
H409 H 0.78578 0.29089 0.61332 0.0
H410 H 0.75153 0.32267 0.64793 0.0
O411 O 0.72136 0.31277 0.71521 0.0
O412 O 0.66964 0.30779 0.7527 0.0
C413 C 0.70609 0.20591 0.70524 0.0
O414 O 0.73138 0.29091 0.82016 0.0
O415 O 0.78349 0.29345 0.78232 0.0
Zn416 Zn 0.74543 0.78292 0.78103 0.0
O417 O 0.78573 0.75104 0.8248 0.0
C418 C 0.77646 0.71595 0.7261 0.0
Zn419 Zn 0.70371 0.73866 0.78157 0.0
C420 C 0.777 0.71784 0.8381 0.0
O421 O 0.74482 0.70667 0.82517 0.0
C422 C 0.67223 0.80153 0.72371 0.0
O423 O 0.66256 0.77307 0.82363 0.0
O424 O 0.70467 0.81667 0.8229 0.0
N425 N 0.67622 0.68958 0.78032 0.0
C426 C 0.63658 0.68425 0.77988 0.0
C427 C 0.67908 0.62304 0.77471 0.0
N428 N 0.7024 0.65155 0.77687 0.0
N429 N 0.63745 0.6423 0.77624 0.0
C430 C 0.81618 0.83035 0.77281 0.0
C431 C 0.77962 0.89408 0.76473 0.0
N432 N 0.77547 0.83068 0.77888 0.0
N433 N 0.7529 0.87043 0.77449 0.0
N434 N 0.81962 0.86977 0.76296 0.0
H435 H 0.84723 0.7738 0.80458 0.0
H436 H 0.88255 0.80159 0.78395 0.0
H437 H 0.85558 0.77077 0.75388 0.0
C438 C 0.85252 0.79203 0.77913 0.0
C439 C 0.59783 0.72052 0.78113 0.0
H440 H 0.60433 0.75037 0.77047 0.0
H441 H 0.58788 0.72612 0.81138 0.0
H442 H 0.57171 0.71331 0.76366 0.0
O443 O 0.66371 0.7692 0.7387 0.0
O444 O 0.70394 0.8141 0.7361 0.0
C445 C 0.67248 0.80634 0.83598 0.0
O446 O 0.78638 0.74862 0.73934 0.0
O447 O 0.74431 0.70562 0.73892 0.0
Zn448 Zn 0.52176 0.52551 0.49263 0.0
O449 O 0.56656 0.50589 0.5385 0.0
C450 C 0.55429 0.44343 0.45279 0.0
Zn451 Zn 0.48432 0.47754 0.50556 0.0
C452 C 0.55954 0.47634 0.55965 0.0
O453 O 0.52843 0.46057 0.55166 0.0
C454 C 0.44555 0.52659 0.43939 0.0
O455 O 0.44546 0.52147 0.54039 0.0
O456 O 0.48148 0.56928 0.53032 0.0
N457 N 0.45769 0.42933 0.52266 0.0
C458 C 0.42315 0.42797 0.54286 0.0
C459 C 0.46101 0.36439 0.53954 0.0
N460 N 0.4808 0.38958 0.52025 0.0
N461 N 0.4245 0.38767 0.55372 0.0
C462 C 0.58478 0.57418 0.45501 0.0
C463 C 0.54719 0.63798 0.45649 0.0
N464 N 0.54952 0.57359 0.4747 0.0
N465 N 0.52663 0.61351 0.47589 0.0
N466 N 0.58397 0.61418 0.44315 0.0
H467 H 0.62258 0.51122 0.46779 0.0
H468 H 0.64862 0.54317 0.43916 0.0
H469 H 0.60785 0.52217 0.41756 0.0
C470 C 0.61804 0.53537 0.44444 0.0
C471 C 0.38944 0.46607 0.55419 0.0
H472 H 0.40048 0.48072 0.5799 0.0
H473 H 0.35995 0.45694 0.56153 0.0
H474 H 0.38262 0.48953 0.53021 0.0
O475 O 0.44039 0.49585 0.45995 0.0
O476 O 0.47609 0.54343 0.44706 0.0
C477 C 0.45095 0.55831 0.54623 0.0
O478 O 0.56025 0.48051 0.45643 0.0
O479 O 0.52408 0.43393 0.47011 0.0
Zn480 Zn 0.03503 0.51656 0.99776 0.0
O481 O 0.00163 0.56608 0.96262 0.0
C482 C 0.96988 0.53649 0.06081 0.0
Zn483 Zn 0.98796 0.47725 0.99551 0.0
C484 C 0.96568 0.56174 0.95166 0.0
O485 O 0.95428 0.52835 0.96091 0.0
C486 C 0.05711 0.43468 0.04429 0.0
O487 O 0.02073 0.44729 0.94611 0.0
O488 O 0.06763 0.48534 0.94929 0.0
N489 N 0.93973 0.44832 0.98528 0.0
C490 C 0.93823 0.41283 0.96576 0.0
C491 C 0.87471 0.44869 0.97279 0.0
N492 N 0.90018 0.47029 0.98998 0.0
N493 N 0.89771 0.41262 0.95692 0.0
C494 C 0.08123 0.58216 0.02834 0.0
C495 C 0.14555 0.54679 0.02698 0.0
N496 N 0.08225 0.5462 0.00864 0.0
N497 N 0.12234 0.52452 0.00735 0.0
N498 N 0.12042 0.58293 0.0408 0.0
H499 H 0.01901 0.61822 0.01011 0.0
H500 H 0.05086 0.64869 0.03486 0.0
H501 H 0.0273 0.61336 0.06116 0.0
C502 C 0.04233 0.61761 0.03374 0.0
C503 C 0.97619 0.37722 0.95792 0.0
H504 H 0.00121 0.37613 0.98017 0.0
H505 H 0.98919 0.38229 0.92971 0.0
H506 H 0.96739 0.34626 0.95725 0.0
O507 O 0.02261 0.42744 0.03193 0.0
O508 O 0.06763 0.46771 0.03301 0.0
C509 C 0.05352 0.45645 0.93294 0.0
O510 O 0.00204 0.54635 0.04709 0.0
O511 O 0.95579 0.50768 0.04444 0.0
H512 H 0.24809 0.19225 0.88968 0.0
H513 H 0.21709 0.12121 0.79344 0.0
H514 H 0.17625 0.08642 0.83485 0.0
H515 H 0.14245 0.08237 0.89644 0.0
H516 H 0.16847 0.1563 0.99218 0.0
H517 H 0.21802 0.18383 0.95332 0.0
C518 C 0.23333 0.16829 0.87814 0.0
C519 C 0.23566 0.15927 0.83859 0.0
C520 C 0.20852 0.14935 0.90198 0.0
C521 C 0.21563 0.12881 0.82378 0.0
C522 C 0.19206 0.10904 0.84738 0.0
C523 C 0.15998 0.10347 0.90907 0.0
C524 C 0.15253 0.11674 0.94726 0.0
C525 C 0.18733 0.1199 0.88626 0.0
C526 C 0.17412 0.14547 0.96289 0.0
C527 C 0.20231 0.16119 0.94066 0.0
H528 H 0.03749 0.92257 0.11858 0.0
H529 H 0.13848 0.97759 0.08324 0.0
H530 H 0.1841 0.93915 0.13477 0.0
H531 H 0.19714 0.8857 0.18646 0.0
H532 H 0.0968 0.8296 0.22132 0.0
H533 H 0.04862 0.87383 0.17427 0.0
C534 C 0.06934 0.9264 0.12229 0.0
C535 C 0.08464 0.95252 0.09673 0.0
C536 C 0.09544 0.90423 0.15207 0.0
C537 C 0.1259 0.95755 0.10234 0.0
C538 C 0.15206 0.93556 0.13181 0.0
C539 C 0.16463 0.88339 0.18397 0.0
C540 C 0.15079 0.85389 0.20688 0.0
C541 C 0.13742 0.90821 0.15635 0.0
C542 C 0.10828 0.85203 0.20402 0.0
C543 C 0.08082 0.87702 0.17686 0.0
H544 H 0.32491 0.89422 0.45905 0.0
H545 H 0.44427 0.83834 0.40671 0.0
H546 H 0.40886 0.80511 0.35781 0.0
H547 H 0.34443 0.79429 0.32856 0.0
H548 H 0.22402 0.84561 0.381 0.0
H549 H 0.25914 0.87822 0.43164 0.0
C550 C 0.3429 0.87442 0.43704 0.0
C551 C 0.3869 0.8697 0.43552 0.0
C552 C 0.32217 0.85496 0.40914 0.0
C553 C 0.41024 0.84359 0.4074 0.0
C554 C 0.39005 0.82439 0.37968 0.0
C555 C 0.32571 0.81279 0.35097 0.0
C556 C 0.28165 0.81834 0.35073 0.0
C557 C 0.34606 0.83053 0.37988 0.0
C558 C 0.25799 0.84128 0.38051 0.0
C559 C 0.27808 0.85985 0.40937 0.0
H560 H 0.3146 0.11611 0.66891 0.0
H561 H 0.41406 0.1652 0.71994 0.0
H562 H 0.46443 0.12474 0.67441 0.0
H563 H 0.47936 0.07879 0.6171 0.0
H564 H 0.37987 0.02872 0.56727 0.0
H565 H 0.33067 0.06613 0.61497 0.0
C566 C 0.3473 0.11782 0.67021 0.0
C567 C 0.36023 0.14411 0.69762 0.0
C568 C 0.37619 0.0945 0.64381 0.0
C569 C 0.40308 0.14518 0.69929 0.0
C570 C 0.43194 0.12226 0.67302 0.0
C571 C 0.44695 0.0761 0.61668 0.0
C572 C 0.43335 0.05134 0.58823 0.0
C573 C 0.4187 0.09744 0.64462 0.0
C574 C 0.39133 0.04754 0.58871 0.0
C575 C 0.36304 0.06903 0.61599 0.0
H576 H 0.07246 0.86361 0.59046 0.0
H577 H 0.17129 0.9049 0.53255 0.0
H578 H 0.22321 0.86738 0.58001 0.0
H579 H 0.2388 0.82971 0.64168 0.0
H580 H 0.14038 0.78765 0.6993 0.0
H581 H 0.08961 0.81925 0.64835 0.0
C582 C 0.10544 0.86397 0.58804 0.0
C583 C 0.11797 0.88757 0.55869 0.0
C584 C 0.13491 0.84295 0.61565 0.0
C585 C 0.1609 0.88704 0.55514 0.0
C586 C 0.19054 0.86595 0.5824 0.0
C587 C 0.20622 0.82747 0.64292 0.0
C588 C 0.19286 0.80734 0.67423 0.0
C589 C 0.17757 0.84508 0.61344 0.0
C590 C 0.15103 0.80348 0.67539 0.0
C591 C 0.1221 0.82142 0.64635 0.0
H592 H 0.28523 0.96686 0.76914 0.0
H593 H 0.41982 0.91449 0.75737 0.0
H594 H 0.43351 0.96611 0.80255 0.0
H595 H 0.40803 0.01 0.85752 0.0
H596 H 0.2745 0.0615 0.8724 0.0
H597 H 0.25949 0.02343 0.81507 0.0
C598 C 0.31759 0.96533 0.77655 0.0
C599 C 0.35123 0.93301 0.76233 0.0
C600 C 0.32548 0.99445 0.80379 0.0
C601 C 0.39286 0.93691 0.76928 0.0
C602 C 0.40095 0.96648 0.79538 0.0
C603 C 0.37569 0.01548 0.84707 0.0
C604 C 0.3423 0.03957 0.86876 0.0
C605 C 0.36756 0.99316 0.81475 0.0
C606 C 0.30054 0.04368 0.85571 0.0
C607 C 0.2921 0.02167 0.82318 0.0
H608 H 0.45118 0.14035 0.1211 0.0
H609 H 0.33969 0.11105 0.07112 0.0
H610 H 0.29501 0.16093 0.1141 0.0
H611 H 0.28718 0.21075 0.16684 0.0
H612 H 0.39644 0.24346 0.21724 0.0
H613 H 0.44245 0.19506 0.17263 0.0
C614 C 0.41713 0.14496 0.11979 0.0
C615 C 0.3988 0.1218 0.09316 0.0
C616 C 0.39125 0.17446 0.14436 0.0
C617 C 0.3546 0.12846 0.09131 0.0
C618 C 0.32896 0.15699 0.11587 0.0
C619 C 0.32108 0.20753 0.16796 0.0
C620 C 0.33852 0.23022 0.19542 0.0
C621 C 0.34692 0.17989 0.14256 0.0
C622 C 0.38235 0.22631 0.19619 0.0
C623 C 0.4086 0.19843 0.17092 0.0
H624 H 0.0817 0.0614 0.34887 0.0
H625 H 0.20454 0.97335 0.34504 0.0
H626 H 0.22672 0.01908 0.29767 0.0
H627 H 0.21403 0.09039 0.26723 0.0
H628 H 0.09074 0.1766 0.27182 0.0
H629 H 0.06431 0.12385 0.30784 0.0
C630 C 0.11232 0.05043 0.33607 0.0
C631 C 0.1412 0.01353 0.35005 0.0
C632 C 0.12463 0.0768 0.30926 0.0
C633 C 0.18182 0.00161 0.33452 0.0
C634 C 0.19448 0.02777 0.30764 0.0
C635 C 0.18105 0.09649 0.27495 0.0
C636 C 0.154 0.13662 0.26732 0.0
C637 C 0.16666 0.06636 0.29618 0.0
C638 C 0.1115 0.1454 0.27746 0.0
C639 C 0.09672 0.11553 0.29825 0.0
H640 H 0.88122 0.20987 0.16729 0.0
H641 H 0.78804 0.13586 0.16864 0.0
H642 H 0.82615 0.0892 0.11928 0.0
H643 H 0.88706 0.06802 0.07756 0.0
H644 H 0.97986 0.14252 0.07521 0.0
H645 H 0.94024 0.19091 0.12286 0.0
C646 C 0.86911 0.18367 0.15665 0.0
C647 C 0.83237 0.17576 0.17223 0.0
C648 C 0.89099 0.15719 0.12805 0.0
C649 C 0.81689 0.14191 0.15792 0.0
C650 C 0.83848 0.11541 0.12947 0.0
C651 C 0.89855 0.09498 0.08726 0.0
C652 C 0.93646 0.10152 0.07305 0.0
C653 C 0.87581 0.12248 0.1147 0.0
C654 C 0.95077 0.13673 0.08577 0.0
C655 C 0.92821 0.16435 0.11307 0.0
H656 H 0.0927 0.58049 0.47735 0.0
H657 H 0.96625 0.65833 0.45733 0.0
H658 H 0.99343 0.70471 0.41428 0.0
H659 H 0.05258 0.71955 0.37846 0.0
H660 H 0.17696 0.6351 0.39223 0.0
H661 H 0.15157 0.59564 0.44199 0.0
C662 C 0.07123 0.60808 0.4641 0.0
C663 C 0.02762 0.61616 0.4706 0.0
C664 C 0.08685 0.6335 0.43824 0.0
C665 C -1e-05 0.65151 0.45271 0.0
C666 C 0.01549 0.67795 0.42806 0.0
C667 C 0.07418 0.69279 0.39271 0.0
C668 C 0.11705 0.68152 0.38249 0.0
C669 C 0.05877 0.66867 0.41997 0.0
C670 C 0.14447 0.64619 0.40071 0.0
C671 C 0.12972 0.62297 0.42881 0.0
H672 H 0.54432 0.8756 0.58878 0.0
H673 H 0.6421 0.93972 0.56394 0.0
H674 H 0.68481 0.90348 0.61792 0.0
H675 H 0.69273 0.8567 0.67394 0.0
H676 H 0.59508 0.79269 0.69949 0.0
H677 H 0.5537 0.82618 0.64354 0.0
C678 C 0.57526 0.88105 0.59486 0.0
C679 C 0.59001 0.91029 0.57268 0.0
C680 C 0.59932 0.86076 0.62634 0.0
C681 C 0.63001 0.91743 0.58088 0.0
C682 C 0.65438 0.8969 0.61177 0.0
C683 C 0.6623 0.85026 0.66736 0.0
C684 C 0.64675 0.82272 0.69085 0.0
C685 C 0.63895 0.86921 0.63512 0.0
C686 C 0.60759 0.81405 0.68178 0.0
C687 C 0.58398 0.83303 0.64979 0.0
H688 H 0.4964 0.37692 0.95164 0.0
H689 H 0.37307 0.44739 0.98696 0.0
H690 H 0.34001 0.40161 0.94708 0.0
H691 H 0.34669 0.34601 0.89744 0.0
H692 H 0.47097 0.27465 0.86486 0.0
H693 H 0.50317 0.31666 0.90818 0.0
C694 C 0.46226 0.38198 0.95096 0.0
C695 C 0.43716 0.41569 0.97188 0.0
C696 C 0.4437 0.35547 0.92833 0.0
C697 C 0.39305 0.42158 0.97111 0.0
C698 C 0.37418 0.39554 0.94815 0.0
C699 C 0.38068 0.33815 0.90082 0.0
C700 C 0.40623 0.30575 0.87839 0.0
C701 C 0.39921 0.36277 0.92605 0.0
C702 C 0.45046 0.29849 0.88216 0.0
C703 C 0.46898 0.32278 0.9068 0.0
H704 H 0.94653 0.80572 0.32941 0.0
H705 H 0.89317 0.75866 0.4274 0.0
H706 H 0.91973 0.80735 0.46949 0.0
H707 H 0.95593 0.86558 0.4775 0.0
H708 H 0.01359 0.90812 0.37931 0.0
H709 H 0.98809 0.85861 0.33821 0.0
C710 C 0.94112 0.80594 0.36006 0.0
C711 C 0.91664 0.77998 0.3752 0.0
C712 C 0.95718 0.83326 0.38392 0.0
C713 C 0.91031 0.77986 0.41497 0.0
C714 C 0.92584 0.80735 0.439 0.0
C715 C 0.96287 0.86396 0.44711 0.0
C716 C 0.98613 0.89095 0.4314 0.0
C717 C 0.94867 0.8348 0.42364 0.0
C718 C 0.99558 0.88793 0.39212 0.0
C719 C 0.981 0.85961 0.36855 0.0
H720 H 0.46733 0.62305 0.58864 0.0
H721 H 0.37023 0.5577 0.5624 0.0
H722 H 0.32529 0.59812 0.6113 0.0
H723 H 0.3141 0.65077 0.66275 0.0
H724 H 0.40976 0.71819 0.68819 0.0
H725 H 0.45459 0.67851 0.6384 0.0
C726 C 0.43615 0.61811 0.59339 0.0
C727 C 0.42246 0.58687 0.57253 0.0
C728 C 0.41031 0.64162 0.62161 0.0
C729 C 0.38196 0.58076 0.57885 0.0
C730 C 0.35611 0.604 0.60669 0.0
C731 C 0.3449 0.65645 0.6576 0.0
C732 C 0.35885 0.68686 0.67931 0.0
C733 C 0.37022 0.63401 0.62866 0.0
C734 C 0.39843 0.69472 0.67181 0.0
C735 C 0.42405 0.67213 0.64335 0.0
H736 H 0.57946 0.10297 0.97838 0.0
H737 H 0.45327 0.1584 0.9343 0.0
H738 H 0.4802 0.20536 0.89239 0.0
H739 H 0.54059 0.22913 0.86618 0.0
H740 H 0.66632 0.17321 0.90964 0.0
H741 H 0.63894 0.12845 0.95423 0.0
C742 C 0.55779 0.12581 0.96001 0.0
C743 C 0.51453 0.12679 0.95905 0.0
C744 C 0.57355 0.15271 0.93586 0.0
C745 C 0.48684 0.15646 0.93505 0.0
C746 C 0.50219 0.18362 0.91124 0.0
C747 C 0.56158 0.20735 0.88578 0.0
C748 C 0.60517 0.20373 0.88453 0.0
C749 C 0.54554 0.18167 0.91102 0.0
C750 C 0.63267 0.17554 0.90974 0.0
C751 C 0.61701 0.15028 0.93531 0.0
H752 H 0.12585 0.45062 0.07913 0.0
H753 H 0.04588 0.36247 0.07988 0.0
H754 H 0.0849 0.32666 0.1365 0.0
H755 H 0.13959 0.3226 0.18647 0.0
H756 H 0.21768 0.41253 0.18626 0.0
H757 H 0.18017 0.44657 0.12855 0.0
C758 C 0.11695 0.42333 0.09132 0.0
C759 C 0.08295 0.40913 0.07526 0.0
C760 C 0.13856 0.40392 0.12416 0.0
C761 C 0.07201 0.37384 0.09161 0.0
C762 C 0.09408 0.35364 0.12407 0.0
C763 C 0.14839 0.34978 0.17396 0.0
C764 C 0.18131 0.36518 0.19069 0.0
C765 C 0.12697 0.36887 0.14081 0.0
C766 C 0.19229 0.40032 0.17409 0.0
C767 C 0.17107 0.41955 0.141 0.0
H768 H 0.53555 0.54991 0.87067 0.0
H769 H 0.63105 0.44456 0.82766 0.0
H770 H 0.64439 0.48945 0.77478 0.0
H771 H 0.64299 0.56206 0.75449 0.0
H772 H 0.56028 0.66788 0.81206 0.0
H773 H 0.52538 0.62005 0.84266 0.0
C774 C 0.55777 0.53625 0.84856 0.0
C775 C 0.58248 0.49425 0.85279 0.0
C776 C 0.56765 0.56305 0.82078 0.0
C777 C 0.61187 0.47692 0.82469 0.0
C778 C 0.61961 0.5027 0.79481 0.0
C779 C 0.61657 0.57482 0.77304 0.0
C780 C 0.60585 0.6187 0.78174 0.0
C781 C 0.59994 0.54655 0.79455 0.0
C782 C 0.57039 0.63479 0.80458 0.0
C783 C 0.55051 0.60706 0.82291 0.0
H784 H 0.71538 0.32242 0.14562 0.0
H785 H 0.62042 0.30019 0.22181 0.0
H786 H 0.56444 0.34288 0.17989 0.0
H787 H 0.5434 0.39027 0.12345 0.0
H788 H 0.63965 0.4085 0.04629 0.0
H789 H 0.69425 0.36305 0.08646 0.0
C790 C 0.68237 0.32678 0.15282 0.0
C791 C 0.67172 0.30895 0.18666 0.0
C792 C 0.65071 0.35053 0.12847 0.0
C793 C 0.62905 0.31391 0.19568 0.0
C794 C 0.59717 0.33833 0.17187 0.0
C795 C 0.57628 0.38392 0.11537 0.0
C796 C 0.5875 0.40307 0.08229 0.0
C797 C 0.60772 0.35737 0.13846 0.0
C798 C 0.63015 0.39417 0.0717 0.0
C799 C 0.6615 0.36834 0.0947 0.0
H800 H 0.79713 0.52751 0.37986 0.0
H801 H 0.93093 0.5087 0.36179 0.0
H802 H 0.92552 0.47113 0.30308 0.0
H803 H 0.88741 0.4287 0.26555 0.0
H804 H 0.76008 0.42921 0.29706 0.0
H805 H 0.75783 0.48802 0.33993 0.0
C806 C 0.8248 0.5162 0.36241 0.0
C807 C 0.86391 0.52258 0.37508 0.0
C808 C 0.82264 0.49007 0.33071 0.0
C809 C 0.89975 0.50692 0.35239 0.0
C810 C 0.89698 0.4841 0.31895 0.0
C811 C 0.85877 0.4426 0.28099 0.0
C812 C 0.82375 0.42495 0.27674 0.0
C813 C 0.85917 0.47349 0.30906 0.0
C814 C 0.78702 0.4429 0.29762 0.0
C815 C 0.78599 0.47619 0.32323 0.0
H816 H 0.66721 0.61287 0.44554 0.0
H817 H 0.55445 0.64604 0.37435 0.0
H818 H 0.59306 0.67198 0.32385 0.0
H819 H 0.6579 0.68783 0.301 0.0
H820 H 0.77116 0.65675 0.37222 0.0
H821 H 0.73386 0.62674 0.42121 0.0
C822 C 0.65149 0.62533 0.41872 0.0
C823 C 0.60817 0.62744 0.4134 0.0
C824 C 0.67398 0.64053 0.38986 0.0
C825 C 0.58776 0.64426 0.37889 0.0
C826 C 0.60984 0.65898 0.35008 0.0
C827 C 0.67467 0.67415 0.32705 0.0
C828 C 0.71735 0.67469 0.33281 0.0
C829 C 0.65284 0.65764 0.35536 0.0
C830 C 0.73831 0.65693 0.36695 0.0
C831 C 0.71694 0.63982 0.39507 0.0
H832 H 0.84184 0.3208 0.81422 0.0
H833 H 0.73085 0.33259 0.88292 0.0
H834 H 0.76365 0.36501 0.93454 0.0
H835 H 0.82378 0.39094 0.95989 0.0
H836 H 0.93278 0.38169 0.88942 0.0
H837 H 0.90153 0.34628 0.83948 0.0
C838 C 0.82468 0.33063 0.84039 0.0
C839 C 0.78383 0.32447 0.84454 0.0
C840 C 0.84382 0.34891 0.87007 0.0
C841 C 0.76226 0.3371 0.87884 0.0
C842 C 0.78106 0.3555 0.90847 0.0
C843 C 0.84083 0.38054 0.93379 0.0
C844 C 0.88132 0.38749 0.92921 0.0
C845 C 0.82187 0.3615 0.90442 0.0
C846 C 0.90272 0.37478 0.89484 0.0
C847 C 0.88439 0.3553 0.86578 0.0
H848 H 0.77675 0.83306 0.13169 0.0
H849 H 0.88411 0.80335 0.2104 0.0
H850 H 0.92379 0.83752 0.16769 0.0
H851 H 0.92954 0.87383 0.10719 0.0
H852 H 0.82253 0.90731 0.029 0.0
H853 H 0.78182 0.87281 0.07153 0.0
C854 C 0.80873 0.83427 0.13955 0.0
C855 C 0.82716 0.81556 0.17441 0.0
C856 C 0.8317 0.85444 0.11476 0.0
C857 C 0.86878 0.81749 0.18397 0.0
C858 C 0.89173 0.83699 0.15946 0.0
C859 C 0.89695 0.87485 0.09995 0.0
C860 C 0.87879 0.89433 0.06542 0.0
C861 C 0.87362 0.85552 0.12479 0.0
C862 C 0.83715 0.89291 0.05558 0.0
C863 C 0.81383 0.87326 0.07995 0.0
H864 H 0.87344 0.1702 0.80324 0.0
H865 H 0.76853 0.11892 0.83356 0.0
H866 H 0.81379 0.06935 0.87888 0.0
H867 H 0.88172 0.04521 0.91426 0.0
H868 H 0.98567 0.09912 0.88555 0.0
H869 H 0.94257 0.1425 0.8352 0.0
C870 C 0.86073 0.14758 0.81922 0.0
C871 C 0.81757 0.14855 0.81539 0.0
C872 C 0.88676 0.11983 0.84587 0.0
C873 C 0.80145 0.11932 0.83653 0.0
C874 C 0.82737 0.09089 0.8624 0.0
C875 C 0.8951 0.06603 0.89665 0.0
C876 C 0.93678 0.06909 0.90396 0.0
C877 C 0.86982 0.09164 0.86809 0.0
C878 C 0.95356 0.09635 0.88086 0.0
C879 C 0.92894 0.12122 0.85198 0.0
H880 H 0.71746 0.19988 0.62738 0.0
H881 H 0.6508 0.1578 0.7197 0.0
H882 H 0.61544 0.12071 0.67403 0.0
H883 H 0.60375 0.09941 0.60811 0.0
H884 H 0.66823 0.14196 0.51497 0.0
H885 H 0.70448 0.17927 0.56056 0.0
C886 C 0.69542 0.18234 0.63747 0.0
C887 C 0.68694 0.18159 0.67698 0.0
C888 C 0.67456 0.16141 0.61086 0.0
C889 C 0.65794 0.15902 0.68951 0.0
C890 C 0.6376 0.1378 0.66339 0.0
C891 C 0.62475 0.11787 0.59766 0.0
C892 C 0.6323 0.11907 0.55809 0.0
C893 C 0.64542 0.139 0.62401 0.0
C894 C 0.66144 0.14124 0.54526 0.0
C895 C 0.68222 0.1624 0.57133 0.0
H896 H 0.64158 0.94879 0.41659 0.0
H897 H 0.53032 0.91235 0.37556 0.0
H898 H 0.57074 0.86996 0.32494 0.0
H899 H 0.63884 0.83845 0.29514 0.0
H900 H 0.75134 0.8717 0.33724 0.0
H901 H 0.70966 0.9201 0.38398 0.0
C902 C 0.62615 0.93199 0.39624 0.0
C903 C 0.58292 0.93343 0.40025 0.0
C904 C 0.65 0.9068 0.36735 0.0
C905 C 0.56355 0.91126 0.37369 0.0
C906 C 0.58668 0.88708 0.34453 0.0
C907 C 0.65416 0.85687 0.31405 0.0
C908 C 0.69828 0.85117 0.31278 0.0
C909 C 0.63009 0.88391 0.34149 0.0
C910 C 0.71757 0.875 0.33788 0.0
C911 C 0.69368 0.90277 0.36464 0.0
H912 H 0.81801 0.16699 0.37627 0.0
H913 H 0.91671 0.20206 0.31307 0.0
H914 H 0.97047 0.15579 0.35479 0.0
H915 H 0.98872 0.10112 0.40592 0.0
H916 H 0.88876 0.06795 0.46923 0.0
H917 H 0.83589 0.11826 0.43082 0.0
C918 C 0.85132 0.16474 0.37188 0.0
C919 C 0.86368 0.18716 0.34155 0.0
C920 C 0.88163 0.13841 0.39579 0.0
C921 C 0.90671 0.18485 0.33637 0.0
C922 C 0.93732 0.15831 0.36002 0.0
C923 C 0.95536 0.10514 0.4114 0.0
C924 C 0.94257 0.08048 0.43991 0.0
C925 C 0.92508 0.13423 0.38928 0.0
C926 C 0.89935 0.08646 0.44728 0.0
C927 C 0.86909 0.11511 0.42531 0.0
H928 H 0.71245 0.10751 0.20121 0.0
H929 H 0.65446 0.06304 0.29769 0.0
H930 H 0.62439 0.01742 0.25487 0.0
H931 H 0.6064 -0.00052 0.18848 0.0
H932 H 0.66119 0.04906 0.09277 0.0
H933 H 0.70236 0.08272 0.13678 0.0
C934 C 0.69513 0.08617 0.21317 0.0
C935 C 0.68651 0.08758 0.25258 0.0
C936 C 0.677 0.06164 0.18832 0.0
C937 C 0.66188 0.0617 0.26745 0.0
C938 C 0.64453 0.03604 0.24296 0.0
C939 C 0.62828 0.01679 0.17763 0.0
C940 C 0.63087 0.02247 0.13785 0.0
C941 C 0.65061 0.03705 0.20315 0.0
C942 C 0.65879 0.04499 0.12347 0.0
C943 C 0.68209 0.06414 0.14854 0.0
H944 H 0.58681 0.83392 0.83981 0.0
H945 H 0.70318 0.84065 0.89709 0.0
H946 H 0.66392 0.89158 0.94306 0.0
H947 H 0.59716 0.93668 0.96506 0.0
H948 H 0.48057 0.93506 0.90528 0.0
H949 H 0.5191 0.8801 0.86202 0.0
C950 C 0.60329 0.84618 0.86277 0.0
C951 C 0.64763 0.83346 0.86547 0.0
C952 C 0.58056 0.87676 0.88826 0.0
C953 C 0.66897 0.85005 0.89469 0.0
C954 C 0.64659 0.87922 0.92086 0.0
C955 C 0.58011 0.92423 0.94266 0.0
C956 C 0.53609 0.93989 0.93846 0.0
C957 C 0.60248 0.89326 0.91758 0.0
C958 C 0.51453 0.92364 0.90906 0.0
C959 C 0.53651 0.8921 0.88439 0.0
H960 H 0.94104 0.90328 0.63822 0.0
H961 H 0.8802 0.03261 0.667 0.0
H962 H 0.84865 0.00792 0.7235 0.0
H963 H 0.83035 0.94881 0.75798 0.0
H964 H 0.88079 0.82029 0.71828 0.0
H965 H 0.92608 0.84466 0.67472 0.0
C966 C 0.92189 0.92585 0.65771 0.0
C967 C 0.913 0.96941 0.64925 0.0
C968 C 0.90227 0.91128 0.68844 0.0
C969 C 0.88731 -0.00114 0.67358 0.0
C970 C 0.86932 0.98471 0.70559 0.0
C971 C 0.85204 0.92608 0.74042 0.0
C972 C 0.85277 0.88251 0.74285 0.0
C973 C 0.87533 0.94085 0.7124 0.0
C974 C 0.8806 0.85355 0.71928 0.0
C975 C 0.90604 0.86767 0.69326 0.0
H976 H 0.15217 0.8017 0.84306 0.0
H977 H 0.24647 0.87414 0.85314 0.0
H978 H 0.20246 0.92238 0.89798 0.0
H979 H 0.13749 0.94455 0.93307 0.0
H980 H 0.04033 0.87628 0.92161 0.0
H981 H 0.08571 0.82491 0.87912 0.0
C982 C 0.1631 0.82791 0.85529 0.0
C983 C 0.20246 0.83442 0.84473 0.0
C984 C 0.13728 0.85608 0.88072 0.0
C985 C 0.2162 0.86861 0.8606 0.0
C986 C 0.19112 0.89617 0.88629 0.0
C987 C 0.12576 0.91902 0.92093 0.0
C988 C 0.08524 0.91494 0.92991 0.0
C989 C 0.15153 0.89042 0.8962 0.0
C990 C 0.07136 0.88036 0.91496 0.0
C991 C 0.09725 0.85107 0.89061 0.0
H992 H 0.87388 0.44622 0.56533 0.0
H993 H 0.00416 0.38422 0.59235 0.0
H994 H 0.98245 0.32556 0.62338 0.0
H995 H 0.9263 0.29422 0.64639 0.0
H996 H 0.79595 0.36228 0.62763 0.0
H997 H 0.81764 0.41485 0.58886 0.0
C998 C 0.89746 0.41964 0.57773 0.0
C999 C 0.9405 0.41951 0.57663 0.0
C1000 C 0.88469 0.38665 0.59662 0.0
C1001 C 0.97078 0.38516 0.59313 0.0
C1002 C 0.95841 0.35155 0.61075 0.0
C1003 C 0.90259 0.32021 0.63334 0.0
C1004 C 0.85942 0.3228 0.63897 0.0
C1005 C 0.91541 0.35228 0.61316 0.0
C1006 C 0.82922 0.3574 0.62241 0.0
C1007 C 0.8417 0.38839 0.60077 0.0
H1008 H 0.44887 0.13647 0.4406 0.0
H1009 H 0.39717 0.0328 0.40235 0.0
H1010 H 0.34207 0.08241 0.36551 0.0
H1011 H 0.30916 0.15481 0.34356 0.0
H1012 H 0.36071 0.25872 0.38132 0.0
H1013 H 0.41496 0.20938 0.41947 0.0
C1014 C 0.42574 0.12477 0.42394 0.0
C1015 C 0.42716 0.08117 0.42399 0.0
C1016 C 0.39387 0.15345 0.40313 0.0
C1017 C 0.39672 0.06635 0.4027 0.0
C1018 C 0.36513 0.09464 0.38172 0.0
C1019 C 0.33193 0.16673 0.3605 0.0
C1020 C 0.33099 0.2102 0.35965 0.0
C1021 C 0.36335 0.13823 0.38183 0.0
C1022 C 0.36089 0.22524 0.38149 0.0
C1023 C 0.39201 0.19709 0.40318 0.0
H1024 H 0.59108 0.61392 0.02541 0.0
H1025 H 0.55801 0.55433 0.12735 0.0
H1026 H 0.58695 0.60163 0.16782 0.0
H1027 H 0.6186 0.66186 0.17494 0.0
H1028 H 0.64963 0.72526 0.075 0.0
H1029 H 0.62492 0.67488 0.03305 0.0
C1030 C 0.59082 0.6111 0.05645 0.0
C1031 C 0.57234 0.58071 0.07335 0.0
C1032 C 0.60686 0.63932 0.07991 0.0
C1033 C 0.57178 0.57763 0.11363 0.0
C1034 C 0.58829 0.60468 0.13687 0.0
C1035 C 0.61983 0.66457 0.14393 0.0
C1036 C 0.63595 0.6969 0.12797 0.0
C1037 C 0.60522 0.63602 0.12038 0.0
C1038 C 0.63779 0.70016 0.08782 0.0
C1039 C 0.6235 0.67149 0.06394 0.0
H1040 H 0.11519 0.1425 0.67849 0.0
H1041 H 0.15698 0.2081 0.58516 0.0
H1042 H 0.13371 0.16131 0.53872 0.0
H1043 H 0.10051 0.10154 0.52497 0.0
H1044 H 0.05324 0.04131 0.61934 0.0
H1045 H 0.07898 0.08634 0.66493 0.0
C1046 C 0.1191 0.14651 0.64795 0.0
C1047 C 0.13918 0.17753 0.6353 0.0
C1048 C 0.10438 0.12054 0.6216 0.0
C1049 C 0.14348 0.18304 0.59566 0.0
C1050 C 0.12963 0.15667 0.56912 0.0
C1051 C 0.09597 0.09833 0.55552 0.0
C1052 C 0.07509 0.06801 0.56871 0.0
C1053 C 0.11018 0.12509 0.58179 0.0
C1054 C 0.06902 0.06449 0.60836 0.0
C1055 C 0.08381 0.09017 0.63453 0.0
H1056 H 0.65578 0.2889 0.35652 0.0
H1057 H 0.74058 0.37155 0.3471 0.0
H1058 H 0.6948 0.42411 0.38771 0.0
H1059 H 0.6297 0.44732 0.4237 0.0
H1060 H 0.54356 0.36599 0.43108 0.0
H1061 H 0.59122 0.31182 0.39341 0.0
C1062 C 0.66452 0.31818 0.36373 0.0
C1063 C 0.70144 0.32636 0.34891 0.0
C1064 C 0.63773 0.34855 0.38635 0.0
C1065 C 0.71225 0.36455 0.35821 0.0
C1066 C 0.68606 0.39466 0.38129 0.0
C1067 C 0.62107 0.41805 0.41675 0.0
C1068 C 0.5829 0.41103 0.42968 0.0
C1069 C 0.64843 0.38722 0.39499 0.0
C1070 C 0.57271 0.37231 0.42124 0.0
C1071 C 0.59993 0.34129 0.39977 0.0
H1072 H 0.36225 0.96017 0.06397 0.0
H1073 H 0.49424 0.89723 0.08071 0.0
H1074 H 0.47552 0.83956 0.11605 0.0
H1075 H 0.42183 0.80956 0.14584 0.0
H1076 H 0.29067 0.87808 0.13682 0.0
H1077 H 0.30848 0.93005 0.09414 0.0
C1078 C 0.38676 0.93352 0.07502 0.0
C1079 C 0.42944 0.93278 0.06989 0.0
C1080 C 0.37583 0.90122 0.09643 0.0
C1081 C 0.46111 0.89848 0.08465 0.0
C1082 C 0.45046 0.86551 0.10475 0.0
C1083 C 0.39716 0.83559 0.13405 0.0
C1084 C 0.35484 0.83868 0.14332 0.0
C1085 C 0.40795 0.86693 0.11137 0.0
C1086 C 0.32321 0.87318 0.12859 0.0
C1087 C 0.3335 0.90362 0.10472 0.0
H1088 H 0.8824 0.56949 0.94109 0.0
H1089 H 0.98168 0.63148 0.91603 0.0
H1090 H 0.93065 0.68817 0.8813 0.0
H1091 H 0.85848 0.71772 0.85568 0.0
H1092 H 0.76029 0.65426 0.88105 0.0
H1093 H 0.81045 0.60069 0.91891 0.0
C1094 C 0.89302 0.59529 0.92793 0.0
C1095 C 0.93576 0.59606 0.93055 0.0
C1096 C 0.86371 0.6276 0.90847 0.0
C1097 C 0.94889 0.6301 0.91403 0.0
C1098 C 0.91977 0.66251 0.89433 0.0
C1099 C 0.84797 0.69255 0.86998 0.0
C1100 C 0.80589 0.68973 0.86539 0.0
C1101 C 0.87715 0.66135 0.89113 0.0
C1102 C 0.79264 0.6569 0.88398 0.0
C1103 C 0.82128 0.62618 0.90549 0.0
H1104 H 0.45426 0.48448 0.20194 0.0
H1105 H 0.33336 0.56688 0.17013 0.0
H1106 H 0.30116 0.54237 0.22601 0.0
H1107 H 0.30477 0.48481 0.27315 0.0
H1108 H 0.42378 0.39648 0.29928 0.0
H1109 H 0.46021 0.43584 0.25705 0.0
C1110 C 0.42099 0.49715 0.20766 0.0
C1111 C 0.39553 0.52572 0.1815 0.0
C1112 C 0.40268 0.48162 0.2387 0.0
C1113 C 0.35302 0.54396 0.18973 0.0
C1114 C 0.33472 0.52988 0.22147 0.0
C1115 C 0.33891 0.47576 0.27074 0.0
C1116 C 0.36199 0.43828 0.28868 0.0
C1117 C 0.35877 0.49694 0.24473 0.0
C1118 C 0.40599 0.42563 0.28555 0.0
C1119 C 0.4265 0.44774 0.26111 0.0
H1120 H 0.47839 0.61704 0.9272 0.0
H1121 H 0.36877 0.5968 0.98449 0.0
H1122 H 0.32242 0.64835 0.94161 0.0
H1123 H 0.31323 0.69233 0.88362 0.0
H1124 H 0.42195 0.71458 0.82666 0.0
H1125 H 0.46893 0.66999 0.8747 0.0
C1126 C 0.44436 0.62438 0.93049 0.0
C1127 C 0.42677 0.60279 0.95828 0.0
C1128 C 0.41801 0.65418 0.90597 0.0
C1129 C 0.38283 0.61295 0.96302 0.0
C1130 C 0.35638 0.64226 0.93851 0.0
C1131 C 0.34725 0.68772 0.88207 0.0
C1132 C 0.3645 0.70564 0.85159 0.0
C1133 C 0.37365 0.66199 0.90926 0.0
C1134 C 0.40832 0.70063 0.84999 0.0
C1135 C 0.43504 0.67489 0.87711 0.0
H1136 H 0.12045 0.49693 0.69833 0.0
H1137 H 0.17513 0.53562 0.59713 0.0
H1138 H 0.21695 0.57314 0.63671 0.0
H1139 H 0.22742 0.60472 0.69835 0.0
H1140 H 0.16907 0.57133 0.79975 0.0
H1141 H 0.13895 0.52149 0.76221 0.0
C1142 C 0.14254 0.51263 0.68538 0.0
C1143 C 0.14497 0.51405 0.64523 0.0
C1144 C 0.16515 0.53529 0.7083 0.0
C1145 C 0.17304 0.53462 0.62813 0.0
C1146 C 0.19666 0.55607 0.65069 0.0
C1147 C 0.20991 0.58501 0.71262 0.0
C1148 C 0.20109 0.59089 0.75184 0.0
C1149 C 0.19167 0.55796 0.69062 0.0
C1150 C 0.1765 0.56674 0.76962 0.0
C1151 C 0.15913 0.53861 0.74812 0.0
H1152 H 0.36246 0.32139 0.70469 0.0
H1153 H 0.25504 0.31876 0.63132 0.0
H1154 H 0.28618 0.35 0.57869 0.0
H1155 H 0.34692 0.37348 0.55213 0.0
H1156 H 0.45459 0.37299 0.62541 0.0
H1157 H 0.42062 0.34745 0.67961 0.0
C1158 C 0.34551 0.32809 0.67737 0.0
C1159 C 0.30654 0.3176 0.67196 0.0
C1160 C 0.36396 0.3451 0.64711 0.0
C1161 C 0.28512 0.3265 0.63628 0.0
C1162 C 0.30299 0.34419 0.6061 0.0
C1163 C 0.36245 0.36792 0.58014 0.0
C1164 C 0.40301 0.37462 0.58522 0.0
C1165 C 0.3428 0.35283 0.61095 0.0
C1166 C 0.42337 0.36757 0.62131 0.0
C1167 C 0.40397 0.35313 0.65211 0.0
H1168 H 0.15253 0.67256 0.19345 0.0
H1169 H 0.26314 0.68349 0.13217 0.0
H1170 H 0.24051 0.64832 0.07659 0.0
H1171 H 0.18885 0.61433 0.04518 0.0
H1172 H 0.07999 0.60191 0.10779 0.0
H1173 H 0.10173 0.63849 0.16256 0.0
C1174 C 0.17181 0.66708 0.16803 0.0
C1175 C 0.20946 0.68053 0.16704 0.0
C1176 C 0.15846 0.64726 0.13605 0.0
C1177 C 0.23397 0.67339 0.13374 0.0
C1178 C 0.22103 0.65339 0.10186 0.0
C1179 C 0.16982 0.62027 0.07072 0.0
C1180 C 0.13199 0.6072 0.07183 0.0
C1181 C 0.18321 0.64036 0.10262 0.0
C1182 C 0.10796 0.61383 0.10538 0.0
C1183 C 0.12084 0.63399 0.13705 0.0
H1184 H 0.70377 0.38273 0.675 0.0
H1185 H 0.59732 0.34859 0.72639 0.0
H1186 H 0.54918 0.39558 0.68146 0.0
H1187 H 0.53813 0.43907 0.62287 0.0
H1188 H 0.64374 0.47327 0.57029 0.0
H1189 H 0.69152 0.43345 0.62037 0.0
C1190 C 0.67003 0.38579 0.67651 0.0
C1191 C 0.65431 0.36135 0.70345 0.0
C1192 C 0.64246 0.4125 0.65015 0.0
C1193 C 0.61037 0.36672 0.70581 0.0
C1194 C 0.58278 0.39341 0.67995 0.0
C1195 C 0.57156 0.43824 0.62261 0.0
C1196 C 0.58757 0.45848 0.59266 0.0
C1197 C 0.59862 0.41527 0.65125 0.0
C1198 C 0.63074 0.45783 0.59303 0.0
C1199 C 0.65804 0.43491 0.62154 0.0
H1200 H 0.90178 0.65318 0.20288 0.0
H1201 H 0.78804 0.61495 0.17252 0.0
H1202 H 0.82583 0.5676 0.12316 0.0
H1203 H 0.88967 0.54177 0.08481 0.0
H1204 H 0.00299 0.58138 0.11423 0.0
H1205 H 0.96708 0.62332 0.16748 0.0
C1206 C 0.88554 0.63377 0.18601 0.0
C1207 C 0.84209 0.63775 0.1912 0.0
C1208 C 0.90727 0.60734 0.15699 0.0
C1209 C 0.82136 0.6128 0.16878 0.0
C1210 C 0.84295 0.58574 0.14051 0.0
C1211 C 0.90662 0.55926 0.10309 0.0
C1212 C 0.94874 0.5591 0.09496 0.0
C1213 C 0.88564 0.58357 0.13367 0.0
C1214 C 0.97024 0.58184 0.1191 0.0
C1215 C 0.9498 0.6056 0.14982 0.0
H1216 H 0.85275 0.59676 0.58922 0.0
H1217 H 0.96818 0.62284 0.63287 0.0
H1218 H 0.92839 0.67027 0.68142 0.0
H1219 H 0.86058 0.70292 0.7124 0.0
H1220 H 0.74663 0.6715 0.67126 0.0
H1221 H 0.78595 0.62767 0.62071 0.0
C1222 C 0.86914 0.61306 0.6092 0.0
C1223 C 0.91318 0.60661 0.6074 0.0
C1224 C 0.84631 0.63923 0.63752 0.0
C1225 C 0.9342 0.62734 0.63382 0.0
C1226 C 0.91149 0.65447 0.6615 0.0
C1227 C 0.84447 0.68665 0.69216 0.0
C1228 C 0.80085 0.69047 0.69536 0.0
C1229 C 0.86752 0.66048 0.66376 0.0
C1230 C 0.78028 0.66883 0.66938 0.0
C1231 C 0.80268 0.64385 0.64045 0.0
H1232 H 0.45882 0.57244 0.37799 0.0
H1233 H 0.36304 0.52279 0.43195 0.0
H1234 H 0.30946 0.56361 0.38699 0.0
H1235 H 0.28884 0.61985 0.33735 0.0
H1236 H 0.38556 0.66852 0.28358 0.0
H1237 H 0.43977 0.62109 0.32302 0.0
C1238 C 0.4263 0.57013 0.37959 0.0
C1239 C 0.41472 0.54527 0.40859 0.0
C1240 C 0.39578 0.5937 0.35383 0.0
C1241 C 0.37268 0.5419 0.40993 0.0
C1242 C 0.342 0.56539 0.38437 0.0
C1243 C 0.32182 0.61971 0.33399 0.0
C1244 C 0.33297 0.64835 0.30813 0.0
C1245 C 0.35299 0.59243 0.35698 0.0
C1246 C 0.37596 0.64712 0.30349 0.0
C1247 C 0.40706 0.6201 0.32616 0.0
H1248 H 0.1317 0.32627 0.80247 0.0
H1249 H 0.24234 0.36965 0.83408 0.0
H1250 H 0.20086 0.4213 0.87799 0.0
H1251 H 0.13467 0.45017 0.91168 0.0
H1252 H 0.02363 0.40735 0.88072 0.0
H1253 H 0.06346 0.35988 0.83256 0.0
C1254 C 0.1465 0.34752 0.81851 0.0
C1255 C 0.19021 0.34365 0.81529 0.0
C1256 C 0.12246 0.37701 0.84431 0.0
C1257 C 0.20892 0.37141 0.83641 0.0
C1258 C 0.1852 0.40108 0.86156 0.0
C1259 C 0.119 0.43086 0.89409 0.0
C1260 C 0.07641 0.43166 0.90054 0.0
C1261 C 0.14218 0.4035 0.86645 0.0
C1262 C 0.05667 0.40649 0.87725 0.0
C1263 C 0.07939 0.37949 0.84944 0.0
H1264 H 0.10989 0.34758 0.33693 0.0
H1265 H 0.22262 0.3551 0.4002 0.0
H1266 H 0.17988 0.39591 0.45054 0.0
H1267 H 0.1112 0.43274 0.47466 0.0
H1268 H 0.9976 0.43156 0.40971 0.0
H1269 H 0.03979 0.38514 0.36179 0.0
C1270 C 0.12481 0.35778 0.36206 0.0
C1271 C 0.16911 0.34837 0.3652 0.0
C1272 C 0.09998 0.38264 0.39027 0.0
C1273 C 0.18846 0.36217 0.39738 0.0
C1274 C 0.1641 0.3855 0.42608 0.0
C1275 C 0.09555 0.42208 0.45021 0.0
C1276 C 0.0514 0.43539 0.44579 0.0
C1277 C 0.11993 0.39645 0.42251 0.0
C1278 C 0.03164 0.42172 0.4137 0.0
C1279 C 0.05572 0.39517 0.38634 0.0
loop_
_geom_bond_atom_site_label_1
_geom_bond_atom_site_label_2
_geom_bond_distance
_geom_bond_site_symmetry_2
_ccdc_geom_bond_type
Zn0 O1 2.063 . S
Zn0 O8 2.046 . S
Zn0 N16 2.036 1_554 S
Zn0 O28 2.053 1_454 S
Zn0 O30 2.066 1_544 S
O1 Zn0 2.063 . S
O1 C4 1.245 1_545 S
C2 O30 1.256 . S
C2 O31 1.244 . S
Zn3 O5 2.046 1_655 S
Zn3 O7 2.055 1_565 S
Zn3 N9 2.036 . S
Zn3 O27 2.066 1_564 S
Zn3 O31 2.053 1_654 S
C4 O1 1.245 1_565 S
C4 O5 1.254 . S
O5 Zn3 2.046 1_455 S
O5 C4 1.254 . S
C6 O27 1.256 . S
C6 O28 1.244 . S
O7 Zn3 2.055 1_545 S
O7 C29 1.259 . S
O8 Zn0 2.046 . S
O8 C29 1.254 1_455 S
N9 Zn3 2.036 . S
N9 C10 1.298 . S
N9 N12 1.398 . S
C10 N9 1.298 . S
C10 N13 1.367 . S
C10 C23 1.481 . S
C11 N12 1.299 . S
C11 N13 1.379 . S
N12 N9 1.398 . S
N12 C11 1.299 . S
N13 C10 1.367 . S
N13 C11 1.379 . S
C14 N16 1.298 . S
C14 N18 1.367 . S
C14 C22 1.481 . S
C15 N17 1.299 . S
C15 N18 1.379 . S
N16 Zn0 2.036 1_556 S
N16 C14 1.298 . S
N16 N17 1.398 . S
N17 C15 1.299 . S
N17 N16 1.398 . S
N18 C14 1.367 . S
N18 C15 1.379 . S
H19 C22 0.980 1_554 S
H20 C22 0.973 1_554 S
H21 C22 0.981 . S
C22 C14 1.481 . S
C22 H19 0.980 1_556 S
C22 H20 0.973 1_556 S
C22 H21 0.981 . S
C23 C10 1.481 . S
C23 H24 0.980 1_565 S
C23 H25 0.981 . S
C23 H26 0.981 . S
H24 C23 0.980 1_545 S
H25 C23 0.981 . S
H26 C23 0.981 . S
O27 Zn3 2.066 1_546 S
O27 C6 1.256 . S
O28 Zn0 2.053 1_656 S
O28 C6 1.244 . S
C29 O7 1.259 . S
C29 O8 1.254 1_655 S
O30 Zn0 2.066 1_566 S
O30 C2 1.256 . S
O31 C2 1.244 . S
O31 Zn3 2.053 1_456 S
Zn32 O33 2.055 . S
Zn32 O40 2.046 . S
Zn32 N48 2.036 . S
Zn32 O60 2.053 . S
Zn32 O62 2.066 . S
O33 Zn32 2.055 . S
O33 C36 1.259 . S
C34 O62 1.256 . S
C34 O63 1.244 . S
Zn35 O37 2.046 . S
Zn35 O39 2.055 . S
Zn35 N41 2.036 . S
Zn35 O59 2.066 . S
Zn35 O63 2.053 . S
C36 O33 1.259 . S
C36 O37 1.254 . S
O37 Zn35 2.046 . S
O37 C36 1.254 . S
C38 O59 1.256 . S
C38 O60 1.244 . S
O39 Zn35 2.055 . S
O39 C61 1.259 . S
O40 Zn32 2.046 . S
O40 C61 1.254 . S
N41 Zn35 2.036 . S
N41 C42 1.298 . S
N41 N44 1.398 . S
C42 N41 1.298 . S
C42 N45 1.367 . S
C42 C55 1.481 . S
C43 N44 1.299 . S
C43 N45 1.379 . S
N44 N41 1.398 . S
N44 C43 1.299 . S
N45 C42 1.367 . S
N45 C43 1.379 . S
C46 N48 1.298 . S
C46 N50 1.367 . S
C46 C54 1.481 . S
C47 N49 1.299 . S
C47 N50 1.379 . S
N48 Zn32 2.036 . S
N48 C46 1.298 . S
N48 N49 1.398 . S
N49 C47 1.299 . S
N49 N48 1.398 . S
N50 C46 1.367 . S
N50 C47 1.379 . S
H51 C54 0.980 . S
H52 C54 0.981 . S
H53 C54 0.981 . S
C54 C46 1.481 . S
C54 H51 0.980 . S
C54 H52 0.981 . S
C54 H53 0.981 . S
C55 C42 1.481 . S
C55 H56 0.980 . S
C55 H57 0.981 . S
C55 H58 0.981 . S
H56 C55 0.980 . S
H57 C55 0.981 . S
H58 C55 0.981 . S
O59 Zn35 2.066 . S
O59 C38 1.256 . S
O60 Zn32 2.053 . S
O60 C38 1.244 . S
C61 O39 1.259 . S
C61 O40 1.254 . S
O62 Zn32 2.066 . S
O62 C34 1.256 . S
O63 C34 1.244 . S
O63 Zn35 2.053 . S
Zn64 O65 2.055 . S
Zn64 O72 2.046 . S
Zn64 N80 2.036 . S
Zn64 O92 2.053 1_545 S
Zn64 O94 2.066 . S
O65 Zn64 2.055 . S
O65 C68 1.259 . S
C66 O94 1.256 . S
C66 O95 1.244 . S
Zn67 O69 2.046 1_565 S
Zn67 O71 2.055 . S
Zn67 N73 2.036 . S
Zn67 O91 2.066 . S
Zn67 O95 2.053 1_565 S
C68 O65 1.259 . S
C68 O69 1.254 . S
O69 Zn67 2.046 1_545 S
O69 C68 1.254 . S
C70 O91 1.256 . S
C70 O92 1.244 . S
O71 Zn67 2.055 . S
O71 C93 1.259 . S
O72 Zn64 2.046 . S
O72 C93 1.254 1_545 S
N73 Zn67 2.036 . S
N73 C74 1.298 . S
N73 N76 1.398 . S
C74 N73 1.298 . S
C74 N77 1.367 . S
C74 C87 1.481 . S
C75 N76 1.299 . S
C75 N77 1.379 . S
N76 N73 1.398 . S
N76 C75 1.299 . S
N77 C74 1.367 . S
N77 C75 1.379 . S
C78 N80 1.298 . S
C78 N82 1.367 . S
C78 C86 1.481 . S
C79 N81 1.299 . S
C79 N82 1.379 . S
N80 Zn64 2.036 . S
N80 C78 1.298 . S
N80 N81 1.398 . S
N81 C79 1.299 . S
N81 N80 1.398 . S
N82 C78 1.367 . S
N82 C79 1.379 . S
H83 C86 0.980 . S
H84 C86 0.981 . S
H85 C86 0.981 . S
C86 C78 1.481 . S
C86 H83 0.980 . S
C86 H84 0.981 . S
C86 H85 0.981 . S
C87 C74 1.481 . S
C87 H88 0.980 . S
C87 H89 0.981 . S
C87 H90 0.981 . S
H88 C87 0.980 . S
H89 C87 0.981 . S
H90 C87 0.981 . S
O91 Zn67 2.066 . S
O91 C70 1.256 . S
O92 Zn64 2.053 1_565 S
O92 C70 1.244 . S
C93 O71 1.259 . S
C93 O72 1.254 1_565 S
O94 Zn64 2.066 . S
O94 C66 1.256 . S
O95 C66 1.244 . S
O95 Zn67 2.053 1_545 S
Zn96 O97 2.055 . S
Zn96 O104 2.046 . S
Zn96 N112 2.036 . S
Zn96 O124 2.053 . S
Zn96 O126 2.066 . S
O97 Zn96 2.055 . S
O97 C100 1.259 . S
C98 O126 1.256 . S
C98 O127 1.244 . S
Zn99 O101 2.046 . S
Zn99 O103 2.055 . S
Zn99 N105 2.036 . S
Zn99 O123 2.066 . S
Zn99 O127 2.053 . S
C100 O97 1.259 . S
C100 O101 1.254 . S
O101 Zn99 2.046 . S
O101 C100 1.254 . S
C102 O123 1.256 . S
C102 O124 1.244 . S
O103 Zn99 2.055 . S
O103 C125 1.259 . S
O104 Zn96 2.046 . S
O104 C125 1.254 . S
N105 Zn99 2.036 . S
N105 C106 1.298 . S
N105 N108 1.398 . S
C106 N105 1.298 . S
C106 N109 1.367 . S
C106 C119 1.481 . S
C107 N108 1.299 . S
C107 N109 1.379 . S
N108 N105 1.398 . S
N108 C107 1.299 . S
N109 C106 1.367 . S
N109 C107 1.379 . S
C110 N112 1.298 . S
C110 N114 1.367 . S
C110 C118 1.481 . S
C111 N113 1.299 . S
C111 N114 1.379 . S
N112 Zn96 2.036 . S
N112 C110 1.298 . S
N112 N113 1.398 . S
N113 C111 1.299 . S
N113 N112 1.398 . S
N114 C110 1.367 . S
N114 C111 1.379 . S
H115 C118 0.980 . S
H116 C118 0.981 . S
H117 C118 0.981 . S
C118 C110 1.481 . S
C118 H115 0.980 . S
C118 H116 0.981 . S
C118 H117 0.981 . S
C119 C106 1.481 . S
C119 H120 0.980 . S
C119 H121 0.981 . S
C119 H122 0.981 . S
H120 C119 0.980 . S
H121 C119 0.981 . S
H122 C119 0.981 . S
O123 Zn99 2.066 . S
O123 C102 1.256 . S
O124 Zn96 2.053 . S
O124 C102 1.244 . S
C125 O103 1.259 . S
C125 O104 1.254 . S
O126 Zn96 2.066 . S
O126 C98 1.256 . S
O127 C98 1.244 . S
O127 Zn99 2.053 . S
Zn128 O129 2.055 1_545 S
Zn128 O136 2.046 1_545 S
Zn128 N144 2.036 . S
Zn128 O156 2.053 . S
Zn128 O158 2.066 1_455 S
O129 Zn128 2.055 1_565 S
O129 C132 1.259 1_455 S
C130 O158 1.256 . S
C130 O159 1.244 . S
Zn131 O133 2.046 . S
Zn131 O135 2.055 1_655 S
Zn131 N137 2.036 . S
Zn131 O155 2.066 1_565 S
Zn131 O159 2.053 1_565 S
C132 O129 1.259 1_655 S
C132 O133 1.254 . S
O133 Zn131 2.046 . S
O133 C132 1.254 . S
C134 O155 1.256 1_455 S
C134 O156 1.244 . S
O135 Zn131 2.055 1_455 S
O135 C157 1.259 . S
O136 Zn128 2.046 1_565 S
O136 C157 1.254 . S
N137 Zn131 2.036 . S
N137 C138 1.298 . S
N137 N140 1.398 . S
C138 N137 1.298 . S
C138 N141 1.367 . S
C138 C151 1.481 . S
C139 N140 1.299 . S
C139 N141 1.379 . S
N140 N137 1.398 . S
N140 C139 1.299 . S
N141 C138 1.367 . S
N141 C139 1.379 . S
C142 N144 1.298 . S
C142 N146 1.367 . S
C142 C150 1.481 . S
C143 N145 1.299 . S
C143 N146 1.379 . S
N144 Zn128 2.036 . S
N144 C142 1.298 . S
N144 N145 1.398 . S
N145 C143 1.299 . S
N145 N144 1.398 . S
N146 C142 1.367 . S
N146 C143 1.379 . S
H147 C150 0.980 1_565 S
H148 C150 0.981 . S
H149 C150 0.981 . S
C150 C142 1.481 . S
C150 H147 0.980 1_545 S
C150 H148 0.981 . S
C150 H149 0.981 . S
C151 C138 1.481 . S
C151 H152 0.980 . S
C151 H153 0.981 . S
C151 H154 0.981 . S
H152 C151 0.980 . S
H153 C151 0.981 . S
H154 C151 0.981 . S
O155 Zn131 2.066 1_545 S
O155 C134 1.256 1_655 S
O156 Zn128 2.053 . S
O156 C134 1.244 . S
C157 O135 1.259 . S
C157 O136 1.254 . S
O158 Zn128 2.066 1_655 S
O158 C130 1.256 . S
O159 C130 1.244 . S
O159 Zn131 2.053 1_545 S
Zn160 O161 2.055 . S
Zn160 O168 2.046 . S
Zn160 N176 2.036 . S
Zn160 O188 2.053 . S
Zn160 O190 2.066 . S
O161 Zn160 2.055 . S
O161 C164 1.259 . S
C162 O190 1.256 . S
C162 O191 1.244 . S
Zn163 O165 2.046 . S
Zn163 O167 2.055 . S
Zn163 N169 2.036 . S
Zn163 O187 2.066 . S
Zn163 O191 2.053 . S
C164 O161 1.259 . S
C164 O165 1.254 . S
O165 Zn163 2.046 . S
O165 C164 1.254 . S
C166 O187 1.256 . S
C166 O188 1.244 . S
O167 Zn163 2.055 . S
O167 C189 1.259 . S
O168 Zn160 2.046 . S
O168 C189 1.254 . S
N169 Zn163 2.036 . S
N169 C170 1.298 . S
N169 N172 1.398 . S
C170 N169 1.298 . S
C170 N173 1.367 . S
C170 C183 1.481 . S
C171 N172 1.299 . S
C171 N173 1.379 . S
N172 N169 1.398 . S
N172 C171 1.299 . S
N173 C170 1.367 . S
N173 C171 1.379 . S
C174 N176 1.298 . S
C174 N178 1.367 . S
C174 C182 1.481 . S
C175 N177 1.299 . S
C175 N178 1.379 . S
N176 Zn160 2.036 . S
N176 C174 1.298 . S
N176 N177 1.398 . S
N177 C175 1.299 . S
N177 N176 1.398 . S
N178 C174 1.367 . S
N178 C175 1.379 . S
H179 C182 0.980 . S
H180 C182 0.981 . S
H181 C182 0.981 . S
C182 C174 1.481 . S
C182 H179 0.980 . S
C182 H180 0.981 . S
C182 H181 0.981 . S
C183 C170 1.481 . S
C183 H184 0.980 . S
C183 H185 0.981 . S
C183 H186 0.981 . S
H184 C183 0.980 . S
H185 C183 0.981 . S
H186 C183 0.981 . S
O187 Zn163 2.066 . S
O187 C166 1.256 . S
O188 Zn160 2.053 . S
O188 C166 1.244 . S
C189 O167 1.259 . S
C189 O168 1.254 . S
O190 Zn160 2.066 . S
O190 C162 1.256 . S
O191 C162 1.244 . S
O191 Zn163 2.053 . S
Zn192 O193 2.055 . S
Zn192 O200 2.046 1_554 S
Zn192 N208 2.036 . S
Zn192 O220 2.053 1_545 S
Zn192 O222 2.066 1_545 S
O193 Zn192 2.055 . S
O193 C196 1.259 . S
C194 O222 1.256 . S
C194 O223 1.244 . S
Zn195 O197 2.046 1_556 S
Zn195 O199 2.055 . S
Zn195 N201 2.036 1_545 S
Zn195 O219 2.066 1_545 S
Zn195 O223 2.053 1_546 S
C196 O193 1.259 . S
C196 O197 1.254 . S
O197 Zn195 2.046 1_554 S
O197 C196 1.254 . S
C198 O219 1.256 . S
C198 O220 1.244 1_556 S
O199 Zn195 2.055 . S
O199 C221 1.259 . S
O200 Zn192 2.046 1_556 S
O200 C221 1.254 . S
N201 Zn195 2.036 1_565 S
N201 C202 1.298 . S
N201 N204 1.398 . S
C202 N201 1.298 . S
C202 N205 1.367 . S
C202 C215 1.481 1_565 S
C203 N204 1.299 . S
C203 N205 1.379 . S
N204 N201 1.398 . S
N204 C203 1.299 . S
N205 C202 1.367 . S
N205 C203 1.379 . S
C206 N208 1.298 . S
C206 N210 1.367 . S
C206 C214 1.481 . S
C207 N209 1.299 . S
C207 N210 1.379 . S
N208 Zn192 2.036 . S
N208 C206 1.298 . S
N208 N209 1.398 . S
N209 C207 1.299 . S
N209 N208 1.398 . S
N210 C206 1.367 . S
N210 C207 1.379 . S
H211 C214 0.980 . S
H212 C214 0.981 . S
H213 C214 0.981 . S
C214 C206 1.481 . S
C214 H211 0.980 . S
C214 H212 0.981 . S
C214 H213 0.981 . S
C215 C202 1.481 1_545 S
C215 H216 0.980 . S
C215 H217 0.981 . S
C215 H218 0.981 1_545 S
H216 C215 0.980 . S
H217 C215 0.981 . S
H218 C215 0.981 1_565 S
O219 Zn195 2.066 1_565 S
O219 C198 1.256 . S
O220 Zn192 2.053 1_565 S
O220 C198 1.244 1_554 S
C221 O199 1.259 . S
C221 O200 1.254 . S
O222 Zn192 2.066 1_565 S
O222 C194 1.256 . S
O223 C194 1.244 . S
O223 Zn195 2.053 1_564 S
Zn224 O225 2.055 . S
Zn224 O232 2.046 . S
Zn224 N240 2.036 . S
Zn224 O252 2.053 . S
Zn224 O254 2.066 . S
O225 Zn224 2.055 . S
O225 C228 1.259 . S
C226 O254 1.256 . S
C226 O255 1.244 . S
Zn227 O229 2.046 . S
Zn227 O231 2.055 . S
Zn227 N233 2.036 . S
Zn227 O251 2.066 . S
Zn227 O255 2.053 . S
C228 O225 1.259 . S
C228 O229 1.254 . S
O229 Zn227 2.046 . S
O229 C228 1.254 . S
C230 O251 1.256 . S
C230 O252 1.244 . S
O231 Zn227 2.055 . S
O231 C253 1.259 . S
O232 Zn224 2.046 . S
O232 C253 1.254 . S
N233 Zn227 2.036 . S
N233 C234 1.298 . S
N233 N236 1.398 . S
C234 N233 1.298 . S
C234 N237 1.367 . S
C234 C247 1.481 . S
C235 N236 1.299 . S
C235 N237 1.379 . S
N236 N233 1.398 . S
N236 C235 1.299 . S
N237 C234 1.367 . S
N237 C235 1.379 . S
C238 N240 1.298 . S
C238 N242 1.367 . S
C238 C246 1.481 . S
C239 N241 1.299 . S
C239 N242 1.379 . S
N240 Zn224 2.036 . S
N240 C238 1.298 . S
N240 N241 1.398 . S
N241 C239 1.299 . S
N241 N240 1.398 . S
N242 C238 1.367 . S
N242 C239 1.379 . S
H243 C246 0.980 . S
H244 C246 0.981 . S
H245 C246 0.981 . S
C246 C238 1.481 . S
C246 H243 0.980 . S
C246 H244 0.981 . S
C246 H245 0.981 . S
C247 C234 1.481 . S
C247 H248 0.980 . S
C247 H249 0.981 . S
C247 H250 0.981 . S
H248 C247 0.980 . S
H249 C247 0.981 . S
H250 C247 0.981 . S
O251 Zn227 2.066 . S
O251 C230 1.256 . S
O252 Zn224 2.053 . S
O252 C230 1.244 . S
C253 O231 1.259 . S
C253 O232 1.254 . S
O254 Zn224 2.066 . S
O254 C226 1.256 . S
O255 C226 1.244 . S
O255 Zn227 2.053 . S
Zn256 O257 2.055 . S
Zn256 O264 2.046 1_554 S
Zn256 N272 2.036 . S
Zn256 O284 2.053 1_554 S
Zn256 O286 2.066 . S
O257 Zn256 2.055 . S
O257 C260 1.259 . S
C258 O286 1.256 . S
C258 O287 1.244 . S
Zn259 O261 2.046 1_556 S
Zn259 O263 2.055 . S
Zn259 N265 2.036 . S
Zn259 O283 2.066 . S
Zn259 O287 2.053 1_556 S
C260 O257 1.259 . S
C260 O261 1.254 . S
O261 Zn259 2.046 1_554 S
O261 C260 1.254 . S
C262 O283 1.256 . S
C262 O284 1.244 . S
O263 Zn259 2.055 . S
O263 C285 1.259 . S
O264 Zn256 2.046 1_556 S
O264 C285 1.254 . S
N265 Zn259 2.036 . S
N265 C266 1.298 . S
N265 N268 1.398 . S
C266 N265 1.298 . S
C266 N269 1.367 . S
C266 C279 1.481 . S
C267 N268 1.299 . S
C267 N269 1.379 . S
N268 N265 1.398 . S
N268 C267 1.299 . S
N269 C266 1.367 . S
N269 C267 1.379 . S
C270 N272 1.298 . S
C270 N274 1.367 . S
C270 C278 1.481 . S
C271 N273 1.299 . S
C271 N274 1.379 . S
N272 Zn256 2.036 . S
N272 C270 1.298 . S
N272 N273 1.398 . S
N273 C271 1.299 . S
N273 N272 1.398 . S
N274 C270 1.367 . S
N274 C271 1.379 . S
H275 C278 0.980 . S
H276 C278 0.981 . S
H277 C278 0.981 . S
C278 C270 1.481 . S
C278 H275 0.980 . S
C278 H276 0.981 . S
C278 H277 0.981 . S
C279 C266 1.481 . S
C279 H280 0.980 . S
C279 H281 0.981 . S
C279 H282 0.981 . S
H280 C279 0.980 . S
H281 C279 0.981 . S
H282 C279 0.981 . S
O283 Zn259 2.066 . S
O283 C262 1.256 . S
O284 Zn256 2.053 1_556 S
O284 C262 1.244 . S
C285 O263 1.259 . S
C285 O264 1.254 . S
O286 Zn256 2.066 . S
O286 C258 1.256 . S
O287 C258 1.244 . S
O287 Zn259 2.053 1_554 S
Zn288 O289 2.055 . S
Zn288 O296 2.046 . S
Zn288 N304 2.036 . S
Zn288 O316 2.053 . S
Zn288 O318 2.066 . S
O289 Zn288 2.055 . S
O289 C292 1.259 . S
C290 O318 1.256 . S
C290 O319 1.244 . S
Zn291 O293 2.046 . S
Zn291 O295 2.055 . S
Zn291 N297 2.036 . S
Zn291 O315 2.066 . S
Zn291 O319 2.053 . S
C292 O289 1.259 . S
C292 O293 1.254 . S
O293 Zn291 2.046 . S
O293 C292 1.254 . S
C294 O315 1.256 . S
C294 O316 1.244 . S
O295 Zn291 2.055 . S
O295 C317 1.259 . S
O296 Zn288 2.046 . S
O296 C317 1.254 . S
N297 Zn291 2.036 . S
N297 C298 1.298 . S
N297 N300 1.398 . S
C298 N297 1.298 . S
C298 N301 1.367 . S
C298 C311 1.481 . S
C299 N300 1.299 . S
C299 N301 1.379 . S
N300 N297 1.398 . S
N300 C299 1.299 . S
N301 C298 1.367 . S
N301 C299 1.379 . S
C302 N304 1.298 . S
C302 N306 1.367 . S
C302 C310 1.481 . S
C303 N305 1.299 . S
C303 N306 1.379 . S
N304 Zn288 2.036 . S
N304 C302 1.298 . S
N304 N305 1.398 . S
N305 C303 1.299 . S
N305 N304 1.398 . S
N306 C302 1.367 . S
N306 C303 1.379 . S
H307 C310 0.980 . S
H308 C310 0.981 . S
H309 C310 0.981 . S
C310 C302 1.481 . S
C310 H307 0.980 . S
C310 H308 0.981 . S
C310 H309 0.981 . S
C311 C298 1.481 . S
C311 H312 0.980 . S
C311 H313 0.981 . S
C311 H314 0.981 . S
H312 C311 0.980 . S
H313 C311 0.981 . S
H314 C311 0.981 . S
O315 Zn291 2.066 . S
O315 C294 1.256 . S
O316 Zn288 2.053 . S
O316 C294 1.244 . S
C317 O295 1.259 . S
C317 O296 1.254 . S
O318 Zn288 2.066 . S
O318 C290 1.256 . S
O319 C290 1.244 . S
O319 Zn291 2.053 . S
Zn320 O321 2.055 1_455 S
Zn320 O328 2.046 . S
Zn320 N336 2.036 . S
Zn320 O348 2.053 . S
Zn320 O350 2.066 . S
O321 Zn320 2.055 1_655 S
O321 C324 1.259 . S
C322 O350 1.256 1_655 S
C322 O351 1.244 . S
Zn323 O325 2.046 . S
Zn323 O327 2.055 . S
Zn323 N329 2.036 . S
Zn323 O347 2.066 1_655 S
Zn323 O351 2.053 . S
C324 O321 1.259 . S
C324 O325 1.254 . S
O325 Zn323 2.046 . S
O325 C324 1.254 . S
C326 O347 1.256 . S
C326 O348 1.244 . S
O327 Zn323 2.055 . S
O327 C349 1.259 1_655 S
O328 Zn320 2.046 . S
O328 C349 1.254 . S
N329 Zn323 2.036 . S
N329 C330 1.298 . S
N329 N332 1.398 . S
C330 N329 1.298 . S
C330 N333 1.367 . S
C330 C343 1.481 . S
C331 N332 1.299 . S
C331 N333 1.379 . S
N332 N329 1.398 . S
N332 C331 1.299 . S
N333 C330 1.367 . S
N333 C331 1.379 . S
C334 N336 1.298 . S
C334 N338 1.367 . S
C334 C342 1.481 . S
C335 N337 1.299 . S
C335 N338 1.379 . S
N336 Zn320 2.036 . S
N336 C334 1.298 . S
N336 N337 1.398 . S
N337 C335 1.299 . S
N337 N336 1.398 . S
N338 C334 1.367 . S
N338 C335 1.379 . S
H339 C342 0.980 . S
H340 C342 0.981 . S
H341 C342 0.981 . S
C342 C334 1.481 . S
C342 H339 0.980 . S
C342 H340 0.981 . S
C342 H341 0.981 . S
C343 C330 1.481 . S
C343 H344 0.980 . S
C343 H345 0.981 . S
C343 H346 0.981 . S
H344 C343 0.980 . S
H345 C343 0.981 . S
H346 C343 0.981 . S
O347 Zn323 2.066 1_455 S
O347 C326 1.256 . S
O348 Zn320 2.053 . S
O348 C326 1.244 . S
C349 O327 1.259 1_455 S
C349 O328 1.254 . S
O350 Zn320 2.066 . S
O350 C322 1.256 1_455 S
O351 C322 1.244 . S
O351 Zn323 2.053 . S
Zn352 O353 2.055 . S
Zn352 O360 2.046 . S
Zn352 N368 2.036 . S
Zn352 O380 2.053 . S
Zn352 O382 2.066 . S
O353 Zn352 2.055 . S
O353 C356 1.259 . S
C354 O382 1.256 . S
C354 O383 1.244 . S
Zn355 O357 2.046 . S
Zn355 O359 2.055 . S
Zn355 N361 2.036 . S
Zn355 O379 2.066 . S
Zn355 O383 2.053 . S
C356 O353 1.259 . S
C356 O357 1.254 . S
O357 Zn355 2.046 . S
O357 C356 1.254 . S
C358 O379 1.256 . S
C358 O380 1.244 . S
O359 Zn355 2.055 . S
O359 C381 1.259 . S
O360 Zn352 2.046 . S
O360 C381 1.254 . S
N361 Zn355 2.036 . S
N361 C362 1.298 . S
N361 N364 1.398 . S
C362 N361 1.298 . S
C362 N365 1.367 . S
C362 C375 1.481 . S
C363 N364 1.299 . S
C363 N365 1.379 . S
N364 N361 1.398 . S
N364 C363 1.299 . S
N365 C362 1.367 . S
N365 C363 1.379 . S
C366 N368 1.298 . S
C366 N370 1.367 . S
C366 C374 1.481 . S
C367 N369 1.299 . S
C367 N370 1.379 . S
N368 Zn352 2.036 . S
N368 C366 1.298 . S
N368 N369 1.398 . S
N369 C367 1.299 . S
N369 N368 1.398 . S
N370 C366 1.367 . S
N370 C367 1.379 . S
H371 C374 0.980 . S
H372 C374 0.981 . S
H373 C374 0.981 . S
C374 C366 1.481 . S
C374 H371 0.980 . S
C374 H372 0.981 . S
C374 H373 0.981 . S
C375 C362 1.481 . S
C375 H376 0.980 . S
C375 H377 0.981 . S
C375 H378 0.981 . S
H376 C375 0.980 . S
H377 C375 0.981 . S
H378 C375 0.981 . S
O379 Zn355 2.066 . S
O379 C358 1.256 . S
O380 Zn352 2.053 . S
O380 C358 1.244 . S
C381 O359 1.259 . S
C381 O360 1.254 . S
O382 Zn352 2.066 . S
O382 C354 1.256 . S
O383 C354 1.244 . S
O383 Zn355 2.053 . S
Zn384 O385 2.055 . S
Zn384 O392 2.046 . S
Zn384 N400 2.036 . S
Zn384 O412 2.053 . S
Zn384 O414 2.066 . S
O385 Zn384 2.055 . S
O385 C388 1.259 . S
C386 O414 1.256 . S
C386 O415 1.244 . S
Zn387 O389 2.046 . S
Zn387 O391 2.055 . S
Zn387 N393 2.036 . S
Zn387 O411 2.066 . S
Zn387 O415 2.053 . S
C388 O385 1.259 . S
C388 O389 1.254 . S
O389 Zn387 2.046 . S
O389 C388 1.254 . S
C390 O411 1.256 . S
C390 O412 1.244 . S
O391 Zn387 2.055 . S
O391 C413 1.259 . S
O392 Zn384 2.046 . S
O392 C413 1.254 . S
N393 Zn387 2.036 . S
N393 C394 1.298 . S
N393 N396 1.398 . S
C394 N393 1.298 . S
C394 N397 1.367 . S
C394 C407 1.481 . S
C395 N396 1.299 . S
C395 N397 1.379 . S
N396 N393 1.398 . S
N396 C395 1.299 . S
N397 C394 1.367 . S
N397 C395 1.379 . S
C398 N400 1.298 . S
C398 N402 1.367 . S
C398 C406 1.481 . S
C399 N401 1.299 . S
C399 N402 1.379 . S
N400 Zn384 2.036 . S
N400 C398 1.298 . S
N400 N401 1.398 . S
N401 C399 1.299 . S
N401 N400 1.398 . S
N402 C398 1.367 . S
N402 C399 1.379 . S
H403 C406 0.980 . S
H404 C406 0.981 . S
H405 C406 0.981 . S
C406 C398 1.481 . S
C406 H403 0.980 . S
C406 H404 0.981 . S
C406 H405 0.981 . S
C407 C394 1.481 . S
C407 H408 0.980 . S
C407 H409 0.981 . S
C407 H410 0.981 . S
H408 C407 0.980 . S
H409 C407 0.981 . S
H410 C407 0.981 . S
O411 Zn387 2.066 . S
O411 C390 1.256 . S
O412 Zn384 2.053 . S
O412 C390 1.244 . S
C413 O391 1.259 . S
C413 O392 1.254 . S
O414 Zn384 2.066 . S
O414 C386 1.256 . S
O415 C386 1.244 . S
O415 Zn387 2.053 . S
Zn416 O417 2.055 . S
Zn416 O424 2.046 . S
Zn416 N432 2.036 . S
Zn416 O444 2.053 . S
Zn416 O446 2.066 . S
O417 Zn416 2.055 . S
O417 C420 1.259 . S
C418 O446 1.256 . S
C418 O447 1.244 . S
Zn419 O421 2.046 . S
Zn419 O423 2.055 . S
Zn419 N425 2.036 . S
Zn419 O443 2.066 . S
Zn419 O447 2.053 . S
C420 O417 1.259 . S
C420 O421 1.254 . S
O421 Zn419 2.046 . S
O421 C420 1.254 . S
C422 O443 1.256 . S
C422 O444 1.244 . S
O423 Zn419 2.055 . S
O423 C445 1.259 . S
O424 Zn416 2.046 . S
O424 C445 1.254 . S
N425 Zn419 2.036 . S
N425 C426 1.298 . S
N425 N428 1.398 . S
C426 N425 1.298 . S
C426 N429 1.367 . S
C426 C439 1.481 . S
C427 N428 1.299 . S
C427 N429 1.379 . S
N428 N425 1.398 . S
N428 C427 1.299 . S
N429 C426 1.367 . S
N429 C427 1.379 . S
C430 N432 1.298 . S
C430 N434 1.367 . S
C430 C438 1.481 . S
C431 N433 1.299 . S
C431 N434 1.379 . S
N432 Zn416 2.036 . S
N432 C430 1.298 . S
N432 N433 1.398 . S
N433 C431 1.299 . S
N433 N432 1.398 . S
N434 C430 1.367 . S
N434 C431 1.379 . S
H435 C438 0.980 . S
H436 C438 0.981 . S
H437 C438 0.981 . S
C438 C430 1.481 . S
C438 H435 0.980 . S
C438 H436 0.981 . S
C438 H437 0.981 . S
C439 C426 1.481 . S
C439 H440 0.980 . S
C439 H441 0.981 . S
C439 H442 0.981 . S
H440 C439 0.980 . S
H441 C439 0.981 . S
H442 C439 0.981 . S
O443 Zn419 2.066 . S
O443 C422 1.256 . S
O444 Zn416 2.053 . S
O444 C422 1.244 . S
C445 O423 1.259 . S
C445 O424 1.254 . S
O446 Zn416 2.066 . S
O446 C418 1.256 . S
O447 C418 1.244 . S
O447 Zn419 2.053 . S
Zn448 O449 2.055 . S
Zn448 O456 2.046 . S
Zn448 N464 2.036 . S
Zn448 O476 2.053 . S
Zn448 O478 2.066 . S
O449 Zn448 2.055 . S
O449 C452 1.259 . S
C450 O478 1.256 . S
C450 O479 1.244 . S
Zn451 O453 2.046 . S
Zn451 O455 2.055 . S
Zn451 N457 2.036 . S
Zn451 O475 2.066 . S
Zn451 O479 2.053 . S
C452 O449 1.259 . S
C452 O453 1.254 . S
O453 Zn451 2.046 . S
O453 C452 1.254 . S
C454 O475 1.256 . S
C454 O476 1.244 . S
O455 Zn451 2.055 . S
O455 C477 1.259 . S
O456 Zn448 2.046 . S
O456 C477 1.254 . S
N457 Zn451 2.036 . S
N457 C458 1.298 . S
N457 N460 1.398 . S
C458 N457 1.298 . S
C458 N461 1.367 . S
C458 C471 1.481 . S
C459 N460 1.299 . S
C459 N461 1.379 . S
N460 N457 1.398 . S
N460 C459 1.299 . S
N461 C458 1.367 . S
N461 C459 1.379 . S
C462 N464 1.298 . S
C462 N466 1.367 . S
C462 C470 1.481 . S
C463 N465 1.299 . S
C463 N466 1.379 . S
N464 Zn448 2.036 . S
N464 C462 1.298 . S
N464 N465 1.398 . S
N465 C463 1.299 . S
N465 N464 1.398 . S
N466 C462 1.367 . S
N466 C463 1.379 . S
H467 C470 0.980 . S
H468 C470 0.981 . S
H469 C470 0.981 . S
C470 C462 1.481 . S
C470 H467 0.980 . S
C470 H468 0.981 . S
C470 H469 0.981 . S
C471 C458 1.481 . S
C471 H472 0.980 . S
C471 H473 0.981 . S
C471 H474 0.981 . S
H472 C471 0.980 . S
H473 C471 0.981 . S
H474 C471 0.981 . S
O475 Zn451 2.066 . S
O475 C454 1.256 . S
O476 Zn448 2.053 . S
O476 C454 1.244 . S
C477 O455 1.259 . S
C477 O456 1.254 . S
O478 Zn448 2.066 . S
O478 C450 1.256 . S
O479 C450 1.244 . S
O479 Zn451 2.053 . S
Zn480 O481 2.055 1_454 S
Zn480 O488 2.046 1_554 S
Zn480 N496 2.036 . S
Zn480 O508 2.053 . S
Zn480 O510 2.066 1_455 S
O481 Zn480 2.055 1_656 S
O481 C484 1.259 . S
C482 O510 1.256 . S
C482 O511 1.244 . S
Zn483 O485 2.046 . S
Zn483 O487 2.055 1_655 S
Zn483 N489 2.036 . S
Zn483 O507 2.066 1_656 S
Zn483 O511 2.053 1_556 S
C484 O481 1.259 . S
C484 O485 1.254 . S
O485 Zn483 2.046 . S
O485 C484 1.254 . S
C486 O507 1.256 . S
C486 O508 1.244 . S
O487 Zn483 2.055 1_455 S
O487 C509 1.259 . S
O488 Zn480 2.046 1_556 S
O488 C509 1.254 . S
N489 Zn483 2.036 . S
N489 C490 1.298 . S
N489 N492 1.398 . S
C490 N489 1.298 . S
C490 N493 1.367 . S
C490 C503 1.481 . S
C491 N492 1.299 . S
C491 N493 1.379 . S
N492 N489 1.398 . S
N492 C491 1.299 . S
N493 C490 1.367 . S
N493 C491 1.379 . S
C494 N496 1.298 . S
C494 N498 1.367 . S
C494 C502 1.481 . S
C495 N497 1.299 . S
C495 N498 1.379 . S
N496 Zn480 2.036 . S
N496 C494 1.298 . S
N496 N497 1.398 . S
N497 C495 1.299 . S
N497 N496 1.398 . S
N498 C494 1.367 . S
N498 C495 1.379 . S
H499 C502 0.980 . S
H500 C502 0.981 . S
H501 C502 0.981 . S
C502 C494 1.481 . S
C502 H499 0.980 . S
C502 H500 0.981 . S
C502 H501 0.981 . S
C503 C490 1.481 . S
C503 H504 0.980 . S
C503 H505 0.981 . S
C503 H506 0.981 . S
H504 C503 0.980 . S
H505 C503 0.981 . S
H506 C503 0.981 . S
O507 Zn483 2.066 1_454 S
O507 C486 1.256 . S
O508 Zn480 2.053 . S
O508 C486 1.244 . S
C509 O487 1.259 . S
C509 O488 1.254 . S
O510 Zn480 2.066 1_655 S
O510 C482 1.256 . S
O511 C482 1.244 . S
O511 Zn483 2.053 1_554 S
H512 C518 0.930 . S
H513 C521 0.930 . S
H514 C522 0.930 . S
H515 C523 0.930 . S
H516 C526 0.930 . S
H517 C527 0.930 . S
C518 H512 0.930 . S
C518 C519 1.355 . S
C518 C520 1.415 . S
C519 C518 1.355 . S
C519 C521 1.419 . S
C520 C518 1.415 . S
C520 C525 1.425 . S
C520 C527 1.409 . S
C521 H513 0.930 . S
C521 C519 1.419 . S
C521 C522 1.362 . S
C522 H514 0.930 . S
C522 C521 1.362 . S
C522 C525 1.409 . S
C523 H515 0.930 . S
C523 C524 1.355 . S
C523 C525 1.415 . S
C524 C523 1.355 . S
C524 C526 1.419 . S
C525 C520 1.425 . S
C525 C522 1.409 . S
C525 C523 1.415 . S
C526 H516 0.930 . S
C526 C524 1.419 . S
C526 C527 1.362 . S
C527 H517 0.930 . S
C527 C520 1.409 . S
C527 C526 1.362 . S
H528 C534 0.930 . S
H529 C537 0.906 1_545 S
H530 C538 0.930 . S
H531 C539 0.930 . S
H532 C542 0.930 . S
H533 C543 0.930 . S
C534 H528 0.930 . S
C534 C535 1.355 . S
C534 C536 1.415 . S
C535 C534 1.355 . S
C535 C537 1.419 . S
C536 C534 1.415 . S
C536 C541 1.425 . S
C536 C543 1.409 . S
C537 H529 0.906 1_565 S
C537 C535 1.419 . S
C537 C538 1.362 . S
C538 H530 0.930 . S
C538 C537 1.362 . S
C538 C541 1.409 . S
C539 H531 0.930 . S
C539 C540 1.355 . S
C539 C541 1.415 . S
C540 C539 1.355 . S
C540 C542 1.419 . S
C541 C536 1.425 . S
C541 C538 1.409 . S
C541 C539 1.415 . S
C542 H532 0.930 . S
C542 C540 1.419 . S
C542 C543 1.362 . S
C543 H533 0.930 . S
C543 C536 1.409 . S
C543 C542 1.362 . S
H544 C550 0.930 . S
H545 C553 0.930 . S
H546 C554 0.930 . S
H547 C555 0.930 . S
H548 C558 0.930 . S
H549 C559 0.930 . S
C550 H544 0.930 . S
C550 C551 1.355 . S
C550 C552 1.415 . S
C551 C550 1.355 . S
C551 C553 1.419 . S
C552 C550 1.415 . S
C552 C557 1.425 . S
C552 C559 1.409 . S
C553 H545 0.930 . S
C553 C551 1.419 . S
C553 C554 1.362 . S
C554 H546 0.930 . S
C554 C553 1.362 . S
C554 C557 1.409 . S
C555 H547 0.930 . S
C555 C556 1.355 . S
C555 C557 1.415 . S
C556 C555 1.355 . S
C556 C558 1.419 . S
C557 C552 1.425 . S
C557 C554 1.409 . S
C557 C555 1.415 . S
C558 H548 0.930 . S
C558 C556 1.419 . S
C558 C559 1.362 . S
C559 H549 0.930 . S
C559 C552 1.409 . S
C559 C558 1.362 . S
H560 C566 0.930 . S
H561 C569 0.930 . S
H562 C570 0.930 . S
H563 C571 0.930 . S
H564 C574 0.930 . S
H565 C575 0.930 . S
C566 H560 0.930 . S
C566 C567 1.355 . S
C566 C568 1.415 . S
C567 C566 1.355 . S
C567 C569 1.419 . S
C568 C566 1.415 . S
C568 C573 1.425 . S
C568 C575 1.409 . S
C569 H561 0.930 . S
C569 C567 1.419 . S
C569 C570 1.362 . S
C570 H562 0.930 . S
C570 C569 1.362 . S
C570 C573 1.409 . S
C571 H563 0.930 . S
C571 C572 1.355 . S
C571 C573 1.415 . S
C572 C571 1.355 . S
C572 C574 1.419 . S
C573 C568 1.425 . S
C573 C570 1.409 . S
C573 C571 1.415 . S
C574 H564 0.930 . S
C574 C572 1.419 . S
C574 C575 1.362 . S
C575 H565 0.930 . S
C575 C568 1.409 . S
C575 C574 1.362 . S
H576 C582 0.930 . S
H577 C585 0.930 . S
H578 C586 0.930 . S
H579 C587 0.930 . S
H580 C590 0.930 . S
H581 C591 0.930 . S
C582 H576 0.930 . S
C582 C583 1.355 . S
C582 C584 1.415 . S
C583 C582 1.355 . S
C583 C585 1.419 . S
C584 C582 1.415 . S
C584 C589 1.425 . S
C584 C591 1.409 . S
C585 H577 0.930 . S
C585 C583 1.419 . S
C585 C586 1.362 . S
C586 H578 0.930 . S
C586 C585 1.362 . S
C586 C589 1.409 . S
C587 H579 0.930 . S
C587 C588 1.355 . S
C587 C589 1.415 . S
C588 C587 1.355 . S
C588 C590 1.419 . S
C589 C584 1.425 . S
C589 C586 1.409 . S
C589 C587 1.415 . S
C590 H580 0.930 . S
C590 C588 1.419 . S
C590 C591 1.362 . S
C591 H581 0.930 . S
C591 C584 1.409 . S
C591 C590 1.362 . S
H592 C598 0.930 . S
H593 C601 0.930 . S
H594 C602 0.930 . S
H595 C603 0.930 . S
H596 C606 0.930 1_545 S
H597 C607 0.930 . S
C598 H592 0.930 . S
C598 C599 1.355 . S
C598 C600 1.415 . S
C599 C598 1.355 . S
C599 C601 1.419 . S
C600 C598 1.415 . S
C600 C605 1.425 . S
C600 C607 1.409 . S
C601 H593 0.930 . S
C601 C599 1.419 . S
C601 C602 1.362 . S
C602 H594 0.930 . S
C602 C601 1.362 . S
C602 C605 1.409 . S
C603 H595 0.930 . S
C603 C604 1.355 . S
C603 C605 1.415 . S
C604 C603 1.355 . S
C604 C606 1.419 . S
C605 C600 1.425 . S
C605 C602 1.409 . S
C605 C603 1.415 . S
C606 H596 0.930 1_565 S
C606 C604 1.419 . S
C606 C607 1.362 . S
C607 H597 0.930 . S
C607 C600 1.409 . S
C607 C606 1.362 . S
H608 C614 0.930 . S
H609 C617 0.930 . S
H610 C618 0.930 . S
H611 C619 0.930 . S
H612 C622 0.930 . S
H613 C623 0.930 . S
C614 H608 0.930 . S
C614 C615 1.355 . S
C614 C616 1.415 . S
C615 C614 1.355 . S
C615 C617 1.419 . S
C616 C614 1.415 . S
C616 C621 1.425 . S
C616 C623 1.409 . S
C617 H609 0.930 . S
C617 C615 1.419 . S
C617 C618 1.362 . S
C618 H610 0.930 . S
C618 C617 1.362 . S
C618 C621 1.409 . S
C619 H611 0.930 . S
C619 C620 1.355 . S
C619 C621 1.415 . S
C620 C619 1.355 . S
C620 C622 1.419 . S
C621 C616 1.425 . S
C621 C618 1.409 . S
C621 C619 1.415 . S
C622 H612 0.930 . S
C622 C620 1.419 . S
C622 C623 1.362 . S
C623 H613 0.930 . S
C623 C616 1.409 . S
C623 C622 1.362 . S
H624 C630 0.930 . S
H625 C633 0.930 . S
H626 C634 0.930 . S
H627 C635 0.930 . S
H628 C638 0.930 . S
H629 C639 0.930 . S
C630 H624 0.930 . S
C630 C631 1.355 . S
C630 C632 1.415 . S
C631 C630 1.355 . S
C631 C633 1.419 . S
C632 C630 1.415 . S
C632 C637 1.425 . S
C632 C639 1.409 . S
C633 H625 0.930 . S
C633 C631 1.419 . S
C633 C634 1.362 . S
C634 H626 0.930 . S
C634 C633 1.362 . S
C634 C637 1.409 . S
C635 H627 0.930 . S
C635 C636 1.355 . S
C635 C637 1.415 . S
C636 C635 1.355 . S
C636 C638 1.419 . S
C637 C632 1.425 . S
C637 C634 1.409 . S
C637 C635 1.415 . S
C638 H628 0.930 . S
C638 C636 1.419 . S
C638 C639 1.362 . S
C639 H629 0.930 . S
C639 C632 1.409 . S
C639 C638 1.362 . S
H640 C646 0.930 . S
H641 C649 0.930 . S
H642 C650 0.930 . S
H643 C651 0.930 . S
H644 C654 0.930 . S
H645 C655 0.930 . S
C646 H640 0.930 . S
C646 C647 1.355 . S
C646 C648 1.415 . S
C647 C646 1.355 . S
C647 C649 1.419 . S
C648 C646 1.415 . S
C648 C653 1.425 . S
C648 C655 1.409 . S
C649 H641 0.930 . S
C649 C647 1.419 . S
C649 C650 1.362 . S
C650 H642 0.930 . S
C650 C649 1.362 . S
C650 C653 1.409 . S
C651 H643 0.930 . S
C651 C652 1.355 . S
C651 C653 1.415 . S
C652 C651 1.355 . S
C652 C654 1.419 . S
C653 C648 1.425 . S
C653 C650 1.409 . S
C653 C651 1.415 . S
C654 H644 0.930 . S
C654 C652 1.419 . S
C654 C655 1.362 . S
C655 H645 0.930 . S
C655 C648 1.409 . S
C655 C654 1.362 . S
H656 C662 0.930 . S
H657 C665 0.930 1_655 S
H658 C666 0.930 . S
H659 C667 0.930 . S
H660 C670 0.930 . S
H661 C671 0.930 . S
C662 H656 0.930 . S
C662 C663 1.355 . S
C662 C664 1.415 . S
C663 C662 1.355 . S
C663 C665 1.419 . S
C664 C662 1.415 . S
C664 C669 1.425 . S
C664 C671 1.409 . S
C665 H657 0.930 1_455 S
C665 C663 1.419 . S
C665 C666 1.362 . S
C666 H658 0.930 . S
C666 C665 1.362 . S
C666 C669 1.409 . S
C667 H659 0.930 . S
C667 C668 1.355 . S
C667 C669 1.415 . S
C668 C667 1.355 . S
C668 C670 1.419 . S
C669 C664 1.425 . S
C669 C666 1.409 . S
C669 C667 1.415 . S
C670 H660 0.930 . S
C670 C668 1.419 . S
C670 C671 1.362 . S
C671 H661 0.930 . S
C671 C664 1.409 . S
C671 C670 1.362 . S
H672 C678 0.930 . S
H673 C681 0.930 . S
H674 C682 0.930 . S
H675 C683 0.930 . S
H676 C686 0.930 . S
H677 C687 0.930 . S
C678 H672 0.930 . S
C678 C679 1.355 . S
C678 C680 1.415 . S
C679 C678 1.355 . S
C679 C681 1.419 . S
C680 C678 1.415 . S
C680 C685 1.425 . S
C680 C687 1.409 . S
C681 H673 0.930 . S
C681 C679 1.419 . S
C681 C682 1.362 . S
C682 H674 0.930 . S
C682 C681 1.362 . S
C682 C685 1.409 . S
C683 H675 0.930 . S
C683 C684 1.355 . S
C683 C685 1.415 . S
C684 C683 1.355 . S
C684 C686 1.419 . S
C685 C680 1.425 . S
C685 C682 1.409 . S
C685 C683 1.415 . S
C686 H676 0.930 . S
C686 C684 1.419 . S
C686 C687 1.362 . S
C687 H677 0.930 . S
C687 C680 1.409 . S
C687 C686 1.362 . S
H688 C694 0.930 . S
H689 C697 0.930 . S
H690 C698 0.930 . S
H691 C699 0.930 . S
H692 C702 0.930 . S
H693 C703 0.930 . S
C694 H688 0.930 . S
C694 C695 1.355 . S
C694 C696 1.415 . S
C695 C694 1.355 . S
C695 C697 1.419 . S
C696 C694 1.415 . S
C696 C701 1.425 . S
C696 C703 1.409 . S
C697 H689 0.930 . S
C697 C695 1.419 . S
C697 C698 1.362 . S
C698 H690 0.930 . S
C698 C697 1.362 . S
C698 C701 1.409 . S
C699 H691 0.930 . S
C699 C700 1.355 . S
C699 C701 1.415 . S
C700 C699 1.355 . S
C700 C702 1.419 . S
C701 C696 1.425 . S
C701 C698 1.409 . S
C701 C699 1.415 . S
C702 H692 0.930 . S
C702 C700 1.419 . S
C702 C703 1.362 . S
C703 H693 0.930 . S
C703 C696 1.409 . S
C703 C702 1.362 . S
H704 C710 0.930 . S
H705 C713 0.930 . S
H706 C714 0.930 . S
H707 C715 0.930 . S
H708 C718 0.930 . S
H709 C719 0.930 . S
C710 H704 0.930 . S
C710 C711 1.355 . S
C710 C712 1.415 . S
C711 C710 1.355 . S
C711 C713 1.419 . S
C712 C710 1.415 . S
C712 C717 1.425 . S
C712 C719 1.409 . S
C713 H705 0.930 . S
C713 C711 1.419 . S
C713 C714 1.362 . S
C714 H706 0.930 . S
C714 C713 1.362 . S
C714 C717 1.409 . S
C715 H707 0.930 . S
C715 C716 1.355 . S
C715 C717 1.415 . S
C716 C715 1.355 . S
C716 C718 1.419 . S
C717 C712 1.425 . S
C717 C714 1.409 . S
C717 C715 1.415 . S
C718 H708 0.930 . S
C718 C716 1.419 . S
C718 C719 1.362 . S
C719 H709 0.930 . S
C719 C712 1.409 . S
C719 C718 1.362 . S
H720 C726 0.930 . S
H721 C729 0.930 . S
H722 C730 0.930 . S
H723 C731 0.930 . S
H724 C734 0.930 . S
H725 C735 0.930 . S
C726 H720 0.930 . S
C726 C727 1.355 . S
C726 C728 1.415 . S
C727 C726 1.355 . S
C727 C729 1.419 . S
C728 C726 1.415 . S
C728 C733 1.425 . S
C728 C735 1.409 . S
C729 H721 0.930 . S
C729 C727 1.419 . S
C729 C730 1.362 . S
C730 H722 0.930 . S
C730 C729 1.362 . S
C730 C733 1.409 . S
C731 H723 0.930 . S
C731 C732 1.355 . S
C731 C733 1.415 . S
C732 C731 1.355 . S
C732 C734 1.419 . S
C733 C728 1.425 . S
C733 C730 1.409 . S
C733 C731 1.415 . S
C734 H724 0.930 . S
C734 C732 1.419 . S
C734 C735 1.362 . S
C735 H725 0.930 . S
C735 C728 1.409 . S
C735 C734 1.362 . S
H736 C742 0.930 . S
H737 C745 0.930 . S
H738 C746 0.930 . S
H739 C747 0.930 . S
H740 C750 0.930 . S
H741 C751 0.930 . S
C742 H736 0.930 . S
C742 C743 1.355 . S
C742 C744 1.415 . S
C743 C742 1.355 . S
C743 C745 1.419 . S
C744 C742 1.415 . S
C744 C749 1.425 . S
C744 C751 1.409 . S
C745 H737 0.930 . S
C745 C743 1.419 . S
C745 C746 1.362 . S
C746 H738 0.930 . S
C746 C745 1.362 . S
C746 C749 1.409 . S
C747 H739 0.930 . S
C747 C748 1.355 . S
C747 C749 1.415 . S
C748 C747 1.355 . S
C748 C750 1.419 . S
C749 C744 1.425 . S
C749 C746 1.409 . S
C749 C747 1.415 . S
C750 H740 0.930 . S
C750 C748 1.419 . S
C750 C751 1.362 . S
C751 H741 0.930 . S
C751 C744 1.409 . S
C751 C750 1.362 . S
H752 C758 0.930 . S
H753 C761 0.930 . S
H754 C762 0.930 . S
H755 C763 0.930 . S
H756 C766 0.930 . S
H757 C767 0.930 . S
C758 H752 0.930 . S
C758 C759 1.355 . S
C758 C760 1.415 . S
C759 C758 1.355 . S
C759 C761 1.419 . S
C760 C758 1.415 . S
C760 C765 1.425 . S
C760 C767 1.409 . S
C761 H753 0.930 . S
C761 C759 1.419 . S
C761 C762 1.362 . S
C762 H754 0.930 . S
C762 C761 1.362 . S
C762 C765 1.409 . S
C763 H755 0.930 . S
C763 C764 1.355 . S
C763 C765 1.415 . S
C764 C763 1.355 . S
C764 C766 1.419 . S
C765 C760 1.425 . S
C765 C762 1.409 . S
C765 C763 1.415 . S
C766 H756 0.930 . S
C766 C764 1.419 . S
C766 C767 1.362 . S
C767 H757 0.930 . S
C767 C760 1.409 . S
C767 C766 1.362 . S
H768 C774 0.930 . S
H769 C777 0.930 . S
H770 C778 0.930 . S
H771 C779 0.930 . S
H772 C782 0.930 . S
H773 C783 0.930 . S
C774 H768 0.930 . S
C774 C775 1.355 . S
C774 C776 1.415 . S
C775 C774 1.355 . S
C775 C777 1.419 . S
C776 C774 1.415 . S
C776 C781 1.425 . S
C776 C783 1.409 . S
C777 H769 0.930 . S
C777 C775 1.419 . S
C777 C778 1.362 . S
C778 H770 0.930 . S
C778 C777 1.362 . S
C778 C781 1.409 . S
C779 H771 0.930 . S
C779 C780 1.355 . S
C779 C781 1.415 . S
C780 C779 1.355 . S
C780 C782 1.419 . S
C781 C776 1.425 . S
C781 C778 1.409 . S
C781 C779 1.415 . S
C782 H772 0.930 . S
C782 C780 1.419 . S
C782 C783 1.362 . S
C783 H773 0.930 . S
C783 C776 1.409 . S
C783 C782 1.362 . S
H784 C790 0.930 . S
H785 C793 0.930 . S
H786 C794 0.930 . S
H787 C795 0.930 . S
H788 C798 0.930 . S
H789 C799 0.930 . S
C790 H784 0.930 . S
C790 C791 1.355 . S
C790 C792 1.415 . S
C791 C790 1.355 . S
C791 C793 1.419 . S
C792 C790 1.415 . S
C792 C797 1.425 . S
C792 C799 1.409 . S
C793 H785 0.930 . S
C793 C791 1.419 . S
C793 C794 1.362 . S
C794 H786 0.930 . S
C794 C793 1.362 . S
C794 C797 1.409 . S
C795 H787 0.930 . S
C795 C796 1.355 . S
C795 C797 1.415 . S
C796 C795 1.355 . S
C796 C798 1.419 . S
C797 C792 1.425 . S
C797 C794 1.409 . S
C797 C795 1.415 . S
C798 H788 0.930 . S
C798 C796 1.419 . S
C798 C799 1.362 . S
C799 H789 0.930 . S
C799 C792 1.409 . S
C799 C798 1.362 . S
H800 C806 0.930 . S
H801 C809 0.930 . S
H802 C810 0.930 . S
H803 C811 0.930 . S
H804 C814 0.930 . S
H805 C815 0.930 . S
C806 H800 0.930 . S
C806 C807 1.355 . S
C806 C808 1.415 . S
C807 C806 1.355 . S
C807 C809 1.419 . S
C808 C806 1.415 . S
C808 C813 1.425 . S
C808 C815 1.409 . S
C809 H801 0.930 . S
C809 C807 1.419 . S
C809 C810 1.362 . S
C810 H802 0.930 . S
C810 C809 1.362 . S
C810 C813 1.409 . S
C811 H803 0.930 . S
C811 C812 1.355 . S
C811 C813 1.415 . S
C812 C811 1.355 . S
C812 C814 1.419 . S
C813 C808 1.425 . S
C813 C810 1.409 . S
C813 C811 1.415 . S
C814 H804 0.930 . S
C814 C812 1.419 . S
C814 C815 1.362 . S
C815 H805 0.930 . S
C815 C808 1.409 . S
C815 C814 1.362 . S
H816 C822 0.930 . S
H817 C825 0.930 . S
H818 C826 0.930 . S
H819 C827 0.930 . S
H820 C830 0.930 . S
H821 C831 0.930 . S
C822 H816 0.930 . S
C822 C823 1.355 . S
C822 C824 1.415 . S
C823 C822 1.355 . S
C823 C825 1.419 . S
C824 C822 1.415 . S
C824 C829 1.425 . S
C824 C831 1.409 . S
C825 H817 0.930 . S
C825 C823 1.419 . S
C825 C826 1.362 . S
C826 H818 0.930 . S
C826 C825 1.362 . S
C826 C829 1.409 . S
C827 H819 0.930 . S
C827 C828 1.355 . S
C827 C829 1.415 . S
C828 C827 1.355 . S
C828 C830 1.419 . S
C829 C824 1.425 . S
C829 C826 1.409 . S
C829 C827 1.415 . S
C830 H820 0.930 . S
C830 C828 1.419 . S
C830 C831 1.362 . S
C831 H821 0.930 . S
C831 C824 1.409 . S
C831 C830 1.362 . S
H832 C838 0.930 . S
H833 C841 0.930 . S
H834 C842 0.930 . S
H835 C843 0.930 . S
H836 C846 0.930 . S
H837 C847 0.930 . S
C838 H832 0.930 . S
C838 C839 1.355 . S
C838 C840 1.415 . S
C839 C838 1.355 . S
C839 C841 1.419 . S
C840 C838 1.415 . S
C840 C845 1.425 . S
C840 C847 1.409 . S
C841 H833 0.930 . S
C841 C839 1.419 . S
C841 C842 1.362 . S
C842 H834 0.930 . S
C842 C841 1.362 . S
C842 C845 1.409 . S
C843 H835 0.930 . S
C843 C844 1.355 . S
C843 C845 1.415 . S
C844 C843 1.355 . S
C844 C846 1.419 . S
C845 C840 1.425 . S
C845 C842 1.409 . S
C845 C843 1.415 . S
C846 H836 0.930 . S
C846 C844 1.419 . S
C846 C847 1.362 . S
C847 H837 0.930 . S
C847 C840 1.409 . S
C847 C846 1.362 . S
H848 C854 0.930 . S
H849 C857 0.930 . S
H850 C858 0.930 . S
H851 C859 0.930 . S
H852 C862 0.930 . S
H853 C863 0.930 . S
C854 H848 0.930 . S
C854 C855 1.355 . S
C854 C856 1.415 . S
C855 C854 1.355 . S
C855 C857 1.419 . S
C856 C854 1.415 . S
C856 C861 1.425 . S
C856 C863 1.409 . S
C857 H849 0.930 . S
C857 C855 1.419 . S
C857 C858 1.362 . S
C858 H850 0.930 . S
C858 C857 1.362 . S
C858 C861 1.409 . S
C859 H851 0.930 . S
C859 C860 1.355 . S
C859 C861 1.415 . S
C860 C859 1.355 . S
C860 C862 1.419 . S
C861 C856 1.425 . S
C861 C858 1.409 . S
C861 C859 1.415 . S
C862 H852 0.930 . S
C862 C860 1.419 . S
C862 C863 1.362 . S
C863 H853 0.930 . S
C863 C856 1.409 . S
C863 C862 1.362 . S
H864 C870 0.930 . S
H865 C873 0.930 . S
H866 C874 0.930 . S
H867 C875 0.930 . S
H868 C878 0.930 . S
H869 C879 0.930 . S
C870 H864 0.930 . S
C870 C871 1.355 . S
C870 C872 1.415 . S
C871 C870 1.355 . S
C871 C873 1.419 . S
C872 C870 1.415 . S
C872 C877 1.425 . S
C872 C879 1.409 . S
C873 H865 0.930 . S
C873 C871 1.419 . S
C873 C874 1.362 . S
C874 H866 0.930 . S
C874 C873 1.362 . S
C874 C877 1.409 . S
C875 H867 0.930 . S
C875 C876 1.355 . S
C875 C877 1.415 . S
C876 C875 1.355 . S
C876 C878 1.419 . S
C877 C872 1.425 . S
C877 C874 1.409 . S
C877 C875 1.415 . S
C878 H868 0.930 . S
C878 C876 1.419 . S
C878 C879 1.362 . S
C879 H869 0.930 . S
C879 C872 1.409 . S
C879 C878 1.362 . S
H880 C886 0.930 . S
H881 C889 0.930 . S
H882 C890 0.930 . S
H883 C891 0.930 . S
H884 C894 0.930 . S
H885 C895 0.930 . S
C886 H880 0.930 . S
C886 C887 1.355 . S
C886 C888 1.415 . S
C887 C886 1.355 . S
C887 C889 1.419 . S
C888 C886 1.415 . S
C888 C893 1.425 . S
C888 C895 1.409 . S
C889 H881 0.930 . S
C889 C887 1.419 . S
C889 C890 1.362 . S
C890 H882 0.930 . S
C890 C889 1.362 . S
C890 C893 1.409 . S
C891 H883 0.930 . S
C891 C892 1.355 . S
C891 C893 1.415 . S
C892 C891 1.355 . S
C892 C894 1.419 . S
C893 C888 1.425 . S
C893 C890 1.409 . S
C893 C891 1.415 . S
C894 H884 0.930 . S
C894 C892 1.419 . S
C894 C895 1.362 . S
C895 H885 0.930 . S
C895 C888 1.409 . S
C895 C894 1.362 . S
H896 C902 0.930 . S
H897 C905 0.930 . S
H898 C906 0.930 . S
H899 C907 0.930 . S
H900 C910 0.930 . S
H901 C911 0.930 . S
C902 H896 0.930 . S
C902 C903 1.355 . S
C902 C904 1.415 . S
C903 C902 1.355 . S
C903 C905 1.419 . S
C904 C902 1.415 . S
C904 C909 1.425 . S
C904 C911 1.409 . S
C905 H897 0.930 . S
C905 C903 1.419 . S
C905 C906 1.362 . S
C906 H898 0.930 . S
C906 C905 1.362 . S
C906 C909 1.409 . S
C907 H899 0.930 . S
C907 C908 1.355 . S
C907 C909 1.415 . S
C908 C907 1.355 . S
C908 C910 1.419 . S
C909 C904 1.425 . S
C909 C906 1.409 . S
C909 C907 1.415 . S
C910 H900 0.930 . S
C910 C908 1.419 . S
C910 C911 1.362 . S
C911 H901 0.930 . S
C911 C904 1.409 . S
C911 C910 1.362 . S
H912 C918 0.930 . S
H913 C921 0.930 . S
H914 C922 0.930 . S
H915 C923 0.930 . S
H916 C926 0.930 . S
H917 C927 0.930 . S
C918 H912 0.930 . S
C918 C919 1.355 . S
C918 C920 1.415 . S
C919 C918 1.355 . S
C919 C921 1.419 . S
C920 C918 1.415 . S
C920 C925 1.425 . S
C920 C927 1.409 . S
C921 H913 0.930 . S
C921 C919 1.419 . S
C921 C922 1.362 . S
C922 H914 0.930 . S
C922 C921 1.362 . S
C922 C925 1.409 . S
C923 H915 0.930 . S
C923 C924 1.355 . S
C923 C925 1.415 . S
C924 C923 1.355 . S
C924 C926 1.419 . S
C925 C920 1.425 . S
C925 C922 1.409 . S
C925 C923 1.415 . S
C926 H916 0.930 . S
C926 C924 1.419 . S
C926 C927 1.362 . S
C927 H917 0.930 . S
C927 C920 1.409 . S
C927 C926 1.362 . S
H928 C934 0.930 . S
H929 C937 0.930 . S
H930 C938 0.930 . S
H931 C939 0.930 . S
H932 C942 0.930 . S
H933 C943 0.930 . S
C934 H928 0.930 . S
C934 C935 1.355 . S
C934 C936 1.415 . S
C935 C934 1.355 . S
C935 C937 1.419 . S
C936 C934 1.415 . S
C936 C941 1.425 . S
C936 C943 1.409 . S
C937 H929 0.930 . S
C937 C935 1.419 . S
C937 C938 1.362 . S
C938 H930 0.930 . S
C938 C937 1.362 . S
C938 C941 1.409 . S
C939 H931 0.930 . S
C939 C940 1.355 . S
C939 C941 1.415 . S
C940 C939 1.355 . S
C940 C942 1.419 . S
C941 C936 1.425 . S
C941 C938 1.409 . S
C941 C939 1.415 . S
C942 H932 0.930 . S
C942 C940 1.419 . S
C942 C943 1.362 . S
C943 H933 0.930 . S
C943 C936 1.409 . S
C943 C942 1.362 . S
H944 C950 0.930 . S
H945 C953 0.930 . S
H946 C954 0.930 . S
H947 C955 0.930 . S
H948 C958 0.930 . S
H949 C959 0.930 . S
C950 H944 0.930 . S
C950 C951 1.355 . S
C950 C952 1.415 . S
C951 C950 1.355 . S
C951 C953 1.419 . S
C952 C950 1.415 . S
C952 C957 1.425 . S
C952 C959 1.409 . S
C953 H945 0.930 . S
C953 C951 1.419 . S
C953 C954 1.362 . S
C954 H946 0.930 . S
C954 C953 1.362 . S
C954 C957 1.409 . S
C955 H947 0.930 . S
C955 C956 1.355 . S
C955 C957 1.415 . S
C956 C955 1.355 . S
C956 C958 1.419 . S
C957 C952 1.425 . S
C957 C954 1.409 . S
C957 C955 1.415 . S
C958 H948 0.930 . S
C958 C956 1.419 . S
C958 C959 1.362 . S
C959 H949 0.930 . S
C959 C952 1.409 . S
C959 C958 1.362 . S
H960 C966 0.930 . S
H961 C969 0.930 1_545 S
H962 C970 0.930 . S
H963 C971 0.930 . S
H964 C974 0.930 . S
H965 C975 0.930 . S
C966 H960 0.930 . S
C966 C967 1.355 . S
C966 C968 1.415 . S
C967 C966 1.355 . S
C967 C969 1.419 . S
C968 C966 1.415 . S
C968 C973 1.425 . S
C968 C975 1.409 . S
C969 H961 0.930 1_565 S
C969 C967 1.419 . S
C969 C970 1.362 . S
C970 H962 0.930 . S
C970 C969 1.362 . S
C970 C973 1.409 . S
C971 H963 0.930 . S
C971 C972 1.355 . S
C971 C973 1.415 . S
C972 C971 1.355 . S
C972 C974 1.419 . S
C973 C968 1.425 . S
C973 C970 1.409 . S
C973 C971 1.415 . S
C974 H964 0.930 . S
C974 C972 1.419 . S
C974 C975 1.362 . S
C975 H965 0.930 . S
C975 C968 1.409 . S
C975 C974 1.362 . S
H976 C982 0.930 . S
H977 C985 0.930 . S
H978 C986 0.930 . S
H979 C987 0.930 . S
H980 C990 0.930 . S
H981 C991 0.930 . S
C982 H976 0.930 . S
C982 C983 1.355 . S
C982 C984 1.415 . S
C983 C982 1.355 . S
C983 C985 1.419 . S
C984 C982 1.415 . S
C984 C989 1.425 . S
C984 C991 1.409 . S
C985 H977 0.930 . S
C985 C983 1.419 . S
C985 C986 1.362 . S
C986 H978 0.930 . S
C986 C985 1.362 . S
C986 C989 1.409 . S
C987 H979 0.930 . S
C987 C988 1.355 . S
C987 C989 1.415 . S
C988 C987 1.355 . S
C988 C990 1.419 . S
C989 C984 1.425 . S
C989 C986 1.409 . S
C989 C987 1.415 . S
C990 H980 0.930 . S
C990 C988 1.419 . S
C990 C991 1.362 . S
C991 H981 0.930 . S
C991 C984 1.409 . S
C991 C990 1.362 . S
H992 C998 0.930 . S
H993 C1001 0.930 1_455 S
H994 C1002 0.930 . S
H995 C1003 0.930 . S
H996 C1006 0.930 . S
H997 C1007 0.930 . S
C998 H992 0.930 . S
C998 C999 1.355 . S
C998 C1000 1.415 . S
C999 C998 1.355 . S
C999 C1001 1.419 . S
C1000 C998 1.415 . S
C1000 C1005 1.425 . S
C1000 C1007 1.409 . S
C1001 H993 0.930 1_655 S
C1001 C999 1.419 . S
C1001 C1002 1.362 . S
C1002 H994 0.930 . S
C1002 C1001 1.362 . S
C1002 C1005 1.409 . S
C1003 H995 0.930 . S
C1003 C1004 1.355 . S
C1003 C1005 1.415 . S
C1004 C1003 1.355 . S
C1004 C1006 1.419 . S
C1005 C1000 1.425 . S
C1005 C1002 1.409 . S
C1005 C1003 1.415 . S
C1006 H996 0.930 . S
C1006 C1004 1.419 . S
C1006 C1007 1.362 . S
C1007 H997 0.930 . S
C1007 C1000 1.409 . S
C1007 C1006 1.362 . S
H1008 C1014 0.930 . S
H1009 C1017 0.930 . S
H1010 C1018 0.930 . S
H1011 C1019 0.930 . S
H1012 C1022 0.930 . S
H1013 C1023 0.930 . S
C1014 H1008 0.930 . S
C1014 C1015 1.355 . S
C1014 C1016 1.415 . S
C1015 C1014 1.355 . S
C1015 C1017 1.419 . S
C1016 C1014 1.415 . S
C1016 C1021 1.425 . S
C1016 C1023 1.409 . S
C1017 H1009 0.930 . S
C1017 C1015 1.419 . S
C1017 C1018 1.362 . S
C1018 H1010 0.930 . S
C1018 C1017 1.362 . S
C1018 C1021 1.409 . S
C1019 H1011 0.930 . S
C1019 C1020 1.355 . S
C1019 C1021 1.415 . S
C1020 C1019 1.355 . S
C1020 C1022 1.419 . S
C1021 C1016 1.425 . S
C1021 C1018 1.409 . S
C1021 C1019 1.415 . S
C1022 H1012 0.930 . S
C1022 C1020 1.419 . S
C1022 C1023 1.362 . S
C1023 H1013 0.930 . S
C1023 C1016 1.409 . S
C1023 C1022 1.362 . S
H1024 C1030 0.930 . S
H1025 C1033 0.930 . S
H1026 C1034 0.930 . S
H1027 C1035 0.930 . S
H1028 C1038 0.930 . S
H1029 C1039 0.930 . S
C1030 H1024 0.930 . S
C1030 C1031 1.355 . S
C1030 C1032 1.415 . S
C1031 C1030 1.355 . S
C1031 C1033 1.419 . S
C1032 C1030 1.415 . S
C1032 C1037 1.425 . S
C1032 C1039 1.409 . S
C1033 H1025 0.930 . S
C1033 C1031 1.419 . S
C1033 C1034 1.362 . S
C1034 H1026 0.930 . S
C1034 C1033 1.362 . S
C1034 C1037 1.409 . S
C1035 H1027 0.930 . S
C1035 C1036 1.355 . S
C1035 C1037 1.415 . S
C1036 C1035 1.355 . S
C1036 C1038 1.419 . S
C1037 C1032 1.425 . S
C1037 C1034 1.409 . S
C1037 C1035 1.415 . S
C1038 H1028 0.930 . S
C1038 C1036 1.419 . S
C1038 C1039 1.362 . S
C1039 H1029 0.930 . S
C1039 C1032 1.409 . S
C1039 C1038 1.362 . S
H1040 C1046 0.930 . S
H1041 C1049 0.930 . S
H1042 C1050 0.930 . S
H1043 C1051 0.930 . S
H1044 C1054 0.930 . S
H1045 C1055 0.930 . S
C1046 H1040 0.930 . S
C1046 C1047 1.355 . S
C1046 C1048 1.415 . S
C1047 C1046 1.355 . S
C1047 C1049 1.419 . S
C1048 C1046 1.415 . S
C1048 C1053 1.425 . S
C1048 C1055 1.409 . S
C1049 H1041 0.930 . S
C1049 C1047 1.419 . S
C1049 C1050 1.362 . S
C1050 H1042 0.930 . S
C1050 C1049 1.362 . S
C1050 C1053 1.409 . S
C1051 H1043 0.930 . S
C1051 C1052 1.355 . S
C1051 C1053 1.415 . S
C1052 C1051 1.355 . S
C1052 C1054 1.419 . S
C1053 C1048 1.425 . S
C1053 C1050 1.409 . S
C1053 C1051 1.415 . S
C1054 H1044 0.930 . S
C1054 C1052 1.419 . S
C1054 C1055 1.362 . S
C1055 H1045 0.930 . S
C1055 C1048 1.409 . S
C1055 C1054 1.362 . S
H1056 C1062 0.930 . S
H1057 C1065 0.930 . S
H1058 C1066 0.930 . S
H1059 C1067 0.930 . S
H1060 C1070 0.930 . S
H1061 C1071 0.930 . S
C1062 H1056 0.930 . S
C1062 C1063 1.355 . S
C1062 C1064 1.415 . S
C1063 C1062 1.355 . S
C1063 C1065 1.419 . S
C1064 C1062 1.415 . S
C1064 C1069 1.425 . S
C1064 C1071 1.409 . S
C1065 H1057 0.930 . S
C1065 C1063 1.419 . S
C1065 C1066 1.362 . S
C1066 H1058 0.930 . S
C1066 C1065 1.362 . S
C1066 C1069 1.409 . S
C1067 H1059 0.930 . S
C1067 C1068 1.355 . S
C1067 C1069 1.415 . S
C1068 C1067 1.355 . S
C1068 C1070 1.419 . S
C1069 C1064 1.425 . S
C1069 C1066 1.409 . S
C1069 C1067 1.415 . S
C1070 H1060 0.930 . S
C1070 C1068 1.419 . S
C1070 C1071 1.362 . S
C1071 H1061 0.930 . S
C1071 C1064 1.409 . S
C1071 C1070 1.362 . S
H1072 C1078 0.930 . S
H1073 C1081 0.930 . S
H1074 C1082 0.930 . S
H1075 C1083 0.930 . S
H1076 C1086 0.930 . S
H1077 C1087 0.930 . S
C1078 H1072 0.930 . S
C1078 C1079 1.355 . S
C1078 C1080 1.415 . S
C1079 C1078 1.355 . S
C1079 C1081 1.419 . S
C1080 C1078 1.415 . S
C1080 C1085 1.425 . S
C1080 C1087 1.409 . S
C1081 H1073 0.930 . S
C1081 C1079 1.419 . S
C1081 C1082 1.362 . S
C1082 H1074 0.930 . S
C1082 C1081 1.362 . S
C1082 C1085 1.409 . S
C1083 H1075 0.930 . S
C1083 C1084 1.355 . S
C1083 C1085 1.415 . S
C1084 C1083 1.355 . S
C1084 C1086 1.419 . S
C1085 C1080 1.425 . S
C1085 C1082 1.409 . S
C1085 C1083 1.415 . S
C1086 H1076 0.930 . S
C1086 C1084 1.419 . S
C1086 C1087 1.362 . S
C1087 H1077 0.930 . S
C1087 C1080 1.409 . S
C1087 C1086 1.362 . S
H1088 C1094 0.930 . S
H1089 C1097 0.930 . S
H1090 C1098 0.930 . S
H1091 C1099 0.930 . S
H1092 C1102 0.930 . S
H1093 C1103 0.930 . S
C1094 H1088 0.930 . S
C1094 C1095 1.355 . S
C1094 C1096 1.415 . S
C1095 C1094 1.355 . S
C1095 C1097 1.419 . S
C1096 C1094 1.415 . S
C1096 C1101 1.425 . S
C1096 C1103 1.409 . S
C1097 H1089 0.930 . S
C1097 C1095 1.419 . S
C1097 C1098 1.362 . S
C1098 H1090 0.930 . S
C1098 C1097 1.362 . S
C1098 C1101 1.409 . S
C1099 H1091 0.930 . S
C1099 C1100 1.355 . S
C1099 C1101 1.415 . S
C1100 C1099 1.355 . S
C1100 C1102 1.419 . S
C1101 C1096 1.425 . S
C1101 C1098 1.409 . S
C1101 C1099 1.415 . S
C1102 H1092 0.930 . S
C1102 C1100 1.419 . S
C1102 C1103 1.362 . S
C1103 H1093 0.930 . S
C1103 C1096 1.409 . S
C1103 C1102 1.362 . S
H1104 C1110 0.930 . S
H1105 C1113 0.930 . S
H1106 C1114 0.930 . S
H1107 C1115 0.930 . S
H1108 C1118 0.930 . S
H1109 C1119 0.930 . S
C1110 H1104 0.930 . S
C1110 C1111 1.355 . S
C1110 C1112 1.415 . S
C1111 C1110 1.355 . S
C1111 C1113 1.419 . S
C1112 C1110 1.415 . S
C1112 C1117 1.425 . S
C1112 C1119 1.409 . S
C1113 H1105 0.930 . S
C1113 C1111 1.419 . S
C1113 C1114 1.362 . S
C1114 H1106 0.930 . S
C1114 C1113 1.362 . S
C1114 C1117 1.409 . S
C1115 H1107 0.930 . S
C1115 C1116 1.355 . S
C1115 C1117 1.415 . S
C1116 C1115 1.355 . S
C1116 C1118 1.419 . S
C1117 C1112 1.425 . S
C1117 C1114 1.409 . S
C1117 C1115 1.415 . S
C1118 H1108 0.930 . S
C1118 C1116 1.419 . S
C1118 C1119 1.362 . S
C1119 H1109 0.930 . S
C1119 C1112 1.409 . S
C1119 C1118 1.362 . S
H1120 C1126 0.930 . S
H1121 C1129 0.930 . S
H1122 C1130 0.930 . S
H1123 C1131 0.930 . S
H1124 C1134 0.930 . S
H1125 C1135 0.930 . S
C1126 H1120 0.930 . S
C1126 C1127 1.355 . S
C1126 C1128 1.415 . S
C1127 C1126 1.355 . S
C1127 C1129 1.419 . S
C1128 C1126 1.415 . S
C1128 C1133 1.425 . S
C1128 C1135 1.409 . S
C1129 H1121 0.930 . S
C1129 C1127 1.419 . S
C1129 C1130 1.362 . S
C1130 H1122 0.930 . S
C1130 C1129 1.362 . S
C1130 C1133 1.409 . S
C1131 H1123 0.930 . S
C1131 C1132 1.355 . S
C1131 C1133 1.415 . S
C1132 C1131 1.355 . S
C1132 C1134 1.419 . S
C1133 C1128 1.425 . S
C1133 C1130 1.409 . S
C1133 C1131 1.415 . S
C1134 H1124 0.930 . S
C1134 C1132 1.419 . S
C1134 C1135 1.362 . S
C1135 H1125 0.930 . S
C1135 C1128 1.409 . S
C1135 C1134 1.362 . S
H1136 C1142 0.930 . S
H1137 C1145 0.930 . S
H1138 C1146 0.930 . S
H1139 C1147 0.930 . S
H1140 C1150 0.930 . S
H1141 C1151 0.930 . S
C1142 H1136 0.930 . S
C1142 C1143 1.355 . S
C1142 C1144 1.415 . S
C1143 C1142 1.355 . S
C1143 C1145 1.419 . S
C1144 C1142 1.415 . S
C1144 C1149 1.425 . S
C1144 C1151 1.409 . S
C1145 H1137 0.930 . S
C1145 C1143 1.419 . S
C1145 C1146 1.362 . S
C1146 H1138 0.930 . S
C1146 C1145 1.362 . S
C1146 C1149 1.409 . S
C1147 H1139 0.930 . S
C1147 C1148 1.355 . S
C1147 C1149 1.415 . S
C1148 C1147 1.355 . S
C1148 C1150 1.419 . S
C1149 C1144 1.425 . S
C1149 C1146 1.409 . S
C1149 C1147 1.415 . S
C1150 H1140 0.930 . S
C1150 C1148 1.419 . S
C1150 C1151 1.362 . S
C1151 H1141 0.930 . S
C1151 C1144 1.409 . S
C1151 C1150 1.362 . S
H1152 C1158 0.930 . S
H1153 C1161 0.930 . S
H1154 C1162 0.930 . S
H1155 C1163 0.930 . S
H1156 C1166 0.930 . S
H1157 C1167 0.930 . S
C1158 H1152 0.930 . S
C1158 C1159 1.355 . S
C1158 C1160 1.415 . S
C1159 C1158 1.355 . S
C1159 C1161 1.419 . S
C1160 C1158 1.415 . S
C1160 C1165 1.425 . S
C1160 C1167 1.409 . S
C1161 H1153 0.930 . S
C1161 C1159 1.419 . S
C1161 C1162 1.362 . S
C1162 H1154 0.930 . S
C1162 C1161 1.362 . S
C1162 C1165 1.409 . S
C1163 H1155 0.930 . S
C1163 C1164 1.355 . S
C1163 C1165 1.415 . S
C1164 C1163 1.355 . S
C1164 C1166 1.419 . S
C1165 C1160 1.425 . S
C1165 C1162 1.409 . S
C1165 C1163 1.415 . S
C1166 H1156 0.930 . S
C1166 C1164 1.419 . S
C1166 C1167 1.362 . S
C1167 H1157 0.930 . S
C1167 C1160 1.409 . S
C1167 C1166 1.362 . S
H1168 C1174 0.930 . S
H1169 C1177 0.930 . S
H1170 C1178 0.930 . S
H1171 C1179 0.930 . S
H1172 C1182 0.930 . S
H1173 C1183 0.930 . S
C1174 H1168 0.930 . S
C1174 C1175 1.355 . S
C1174 C1176 1.415 . S
C1175 C1174 1.355 . S
C1175 C1177 1.419 . S
C1176 C1174 1.415 . S
C1176 C1181 1.425 . S
C1176 C1183 1.409 . S
C1177 H1169 0.930 . S
C1177 C1175 1.419 . S
C1177 C1178 1.362 . S
C1178 H1170 0.930 . S
C1178 C1177 1.362 . S
C1178 C1181 1.409 . S
C1179 H1171 0.930 . S
C1179 C1180 1.355 . S
C1179 C1181 1.415 . S
C1180 C1179 1.355 . S
C1180 C1182 1.419 . S
C1181 C1176 1.425 . S
C1181 C1178 1.409 . S
C1181 C1179 1.415 . S
C1182 H1172 0.930 . S
C1182 C1180 1.419 . S
C1182 C1183 1.362 . S
C1183 H1173 0.930 . S
C1183 C1176 1.409 . S
C1183 C1182 1.362 . S
H1184 C1190 0.930 . S
H1185 C1193 0.930 . S
H1186 C1194 0.930 . S
H1187 C1195 0.930 . S
H1188 C1198 0.930 . S
H1189 C1199 0.930 . S
C1190 H1184 0.930 . S
C1190 C1191 1.355 . S
C1190 C1192 1.415 . S
C1191 C1190 1.355 . S
C1191 C1193 1.419 . S
C1192 C1190 1.415 . S
C1192 C1197 1.425 . S
C1192 C1199 1.409 . S
C1193 H1185 0.930 . S
C1193 C1191 1.419 . S
C1193 C1194 1.362 . S
C1194 H1186 0.930 . S
C1194 C1193 1.362 . S
C1194 C1197 1.409 . S
C1195 H1187 0.930 . S
C1195 C1196 1.355 . S
C1195 C1197 1.415 . S
C1196 C1195 1.355 . S
C1196 C1198 1.419 . S
C1197 C1192 1.425 . S
C1197 C1194 1.409 . S
C1197 C1195 1.415 . S
C1198 H1188 0.930 . S
C1198 C1196 1.419 . S
C1198 C1199 1.362 . S
C1199 H1189 0.930 . S
C1199 C1192 1.409 . S
C1199 C1198 1.362 . S
H1200 C1206 0.930 . S
H1201 C1209 0.930 . S
H1202 C1210 0.930 . S
H1203 C1211 0.930 . S
H1204 C1214 0.930 . S
H1205 C1215 0.930 . S
C1206 H1200 0.930 . S
C1206 C1207 1.355 . S
C1206 C1208 1.415 . S
C1207 C1206 1.355 . S
C1207 C1209 1.419 . S
C1208 C1206 1.415 . S
C1208 C1213 1.425 . S
C1208 C1215 1.409 . S
C1209 H1201 0.930 . S
C1209 C1207 1.419 . S
C1209 C1210 1.362 . S
C1210 H1202 0.930 . S
C1210 C1209 1.362 . S
C1210 C1213 1.409 . S
C1211 H1203 0.930 . S
C1211 C1212 1.355 . S
C1211 C1213 1.415 . S
C1212 C1211 1.355 . S
C1212 C1214 1.419 . S
C1213 C1208 1.425 . S
C1213 C1210 1.409 . S
C1213 C1211 1.415 . S
C1214 H1204 0.930 . S
C1214 C1212 1.419 . S
C1214 C1215 1.362 . S
C1215 H1205 0.930 . S
C1215 C1208 1.409 . S
C1215 C1214 1.362 . S
H1216 C1222 0.930 . S
H1217 C1225 0.930 . S
H1218 C1226 0.930 . S
H1219 C1227 0.930 . S
H1220 C1230 0.930 . S
H1221 C1231 0.930 . S
C1222 H1216 0.930 . S
C1222 C1223 1.355 . S
C1222 C1224 1.415 . S
C1223 C1222 1.355 . S
C1223 C1225 1.419 . S
C1224 C1222 1.415 . S
C1224 C1229 1.425 . S
C1224 C1231 1.409 . S
C1225 H1217 0.930 . S
C1225 C1223 1.419 . S
C1225 C1226 1.362 . S
C1226 H1218 0.930 . S
C1226 C1225 1.362 . S
C1226 C1229 1.409 . S
C1227 H1219 0.930 . S
C1227 C1228 1.355 . S
C1227 C1229 1.415 . S
C1228 C1227 1.355 . S
C1228 C1230 1.419 . S
C1229 C1224 1.425 . S
C1229 C1226 1.409 . S
C1229 C1227 1.415 . S
C1230 H1220 0.930 . S
C1230 C1228 1.419 . S
C1230 C1231 1.362 . S
C1231 H1221 0.930 . S
C1231 C1224 1.409 . S
C1231 C1230 1.362 . S
H1232 C1238 0.930 . S
H1233 C1241 0.930 . S
H1234 C1242 0.930 . S
H1235 C1243 0.930 . S
H1236 C1246 0.930 . S
H1237 C1247 0.930 . S
C1238 H1232 0.930 . S
C1238 C1239 1.355 . S
C1238 C1240 1.415 . S
C1239 C1238 1.355 . S
C1239 C1241 1.419 . S
C1240 C1238 1.415 . S
C1240 C1245 1.425 . S
C1240 C1247 1.409 . S
C1241 H1233 0.930 . S
C1241 C1239 1.419 . S
C1241 C1242 1.362 . S
C1242 H1234 0.930 . S
C1242 C1241 1.362 . S
C1242 C1245 1.409 . S
C1243 H1235 0.930 . S
C1243 C1244 1.355 . S
C1243 C1245 1.415 . S
C1244 C1243 1.355 . S
C1244 C1246 1.419 . S
C1245 C1240 1.425 . S
C1245 C1242 1.409 . S
C1245 C1243 1.415 . S
C1246 H1236 0.930 . S
C1246 C1244 1.419 . S
C1246 C1247 1.362 . S
C1247 H1237 0.930 . S
C1247 C1240 1.409 . S
C1247 C1246 1.362 . S
H1248 C1254 0.930 . S
H1249 C1257 0.930 . S
H1250 C1258 0.930 . S
H1251 C1259 0.930 . S
H1252 C1262 0.930 . S
H1253 C1263 0.930 . S
C1254 H1248 0.930 . S
C1254 C1255 1.355 . S
C1254 C1256 1.415 . S
C1255 C1254 1.355 . S
C1255 C1257 1.419 . S
C1256 C1254 1.415 . S
C1256 C1261 1.425 . S
C1256 C1263 1.409 . S
C1257 H1249 0.930 . S
C1257 C1255 1.419 . S
C1257 C1258 1.362 . S
C1258 H1250 0.930 . S
C1258 C1257 1.362 . S
C1258 C1261 1.409 . S
C1259 H1251 0.930 . S
C1259 C1260 1.355 . S
C1259 C1261 1.415 . S
C1260 C1259 1.355 . S
C1260 C1262 1.419 . S
C1261 C1256 1.425 . S
C1261 C1258 1.409 . S
C1261 C1259 1.415 . S
C1262 H1252 0.930 . S
C1262 C1260 1.419 . S
C1262 C1263 1.362 . S
C1263 H1253 0.930 . S
C1263 C1256 1.409 . S
C1263 C1262 1.362 . S
H1264 C1270 0.930 . S
H1265 C1273 0.930 . S
H1266 C1274 0.930 . S
H1267 C1275 0.930 . S
H1268 C1278 0.930 . S
H1269 C1279 0.930 . S
C1270 H1264 0.930 . S
C1270 C1271 1.355 . S
C1270 C1272 1.415 . S
C1271 C1270 1.355 . S
C1271 C1273 1.419 . S
C1272 C1270 1.415 . S
C1272 C1277 1.425 . S
C1272 C1279 1.409 . S
C1273 H1265 0.930 . S
C1273 C1271 1.419 . S
C1273 C1274 1.362 . S
C1274 H1266 0.930 . S
C1274 C1273 1.362 . S
C1274 C1277 1.409 . S
C1275 H1267 0.930 . S
C1275 C1276 1.355 . S
C1275 C1277 1.415 . S
C1276 C1275 1.355 . S
C1276 C1278 1.419 . S
C1277 C1272 1.425 . S
C1277 C1274 1.409 . S
C1277 C1275 1.415 . S
C1278 H1268 0.930 . S
C1278 C1276 1.419 . S
C1278 C1279 1.362 . S
C1279 H1269 0.930 . S
C1279 C1272 1.409 . S
C1279 C1278 1.362 . S
C519 C98 1.348 . S
C524 N18 1.251 . S
C535 C4 1.422 . S
C540 C38 1.432 . S
C551 N77 1.373 . S
C556 C34 1.469 . S
C567 C102 1.693 . S
C572 C66 1.714 . S
C583 C157 1.483 . S
C588 C164 1.428 . S
C599 N178 0.145 . S
C604 N205 0.494 . S
C615 C196 1.766 . S
C620 C226 1.753 . S
C631 N146 0.381 . S
C636 N237 0.838 . S
C647 C317 1.582 . S
C652 C29 1.574 . S
C663 C349 1.502 . S
C668 N50 1.352 . S
C679 C70 1.459 . S
C684 C422 1.481 . S
C695 C285 1.540 . S
C700 N114 1.421 . S
C711 N365 1.442 . S
C716 C132 1.554 . S
C727 C477 1.574 . S
C732 C189 1.592 . S
C743 C221 1.563 . S
C748 N402 1.454 . S
C759 C486 1.496 . S
C764 C230 1.474 . S
C775 N269 0.542 . S
C780 N429 0.787 . S
C791 C292 1.492 . S
C796 C260 1.523 . S
C807 N333 0.391 . S
C812 N306 0.385 . S
C823 N466 1.282 . S
C828 C358 1.337 . S
C839 C386 1.464 . S
C844 N493 1.323 . S
C855 C356 1.492 . S
C860 N13 1.456 . S
C871 C388 1.510 . S
C876 C6 1.503 . S
C887 C413 1.470 . S
C892 N82 1.346 . S
C903 C93 1.833 . S
C908 C381 1.836 . S
C919 C294 1.480 . S
C924 C130 1.498 . S
C935 N301 0.404 . S
C940 N210 0.459 . S
C951 C445 1.833 . S
C956 C198 1.824 . S
C967 N141 0.635 . S
C972 N434 0.780 . S
C983 C162 1.863 . S
C988 C2 1.882 . S
C999 C322 1.561 . S
C1004 N397 1.473 . S
C1015 C68 1.430 . S
C1020 C228 1.456 . S
C1031 C258 1.576 . S
C1036 N370 1.493 . S
C1047 N109 1.528 . S
C1052 C134 1.599 . S
C1063 C290 1.866 . S
C1068 C450 1.881 . S
C1079 C194 1.580 . S
C1084 N45 1.509 . S
C1095 C484 1.461 . S
C1100 C420 1.447 . S
C1111 N274 0.470 . S
C1116 N242 0.719 . S
C1127 C262 1.530 . S
C1132 C166 1.510 . S
C1143 N338 0.328 . S
C1148 N173 0.516 . S
C1159 C125 1.512 . S
C1164 N461 1.377 . S
C1175 C61 1.503 . S
C1180 N498 1.409 . S
C1191 C390 1.461 . S
C1196 C452 1.458 . S
C1207 C354 1.695 . S
C1212 C482 1.715 . S
C1223 C324 1.749 . S
C1228 C418 1.760 . S
C1239 C454 1.539 . S
C1244 C36 1.542 . S
C1255 C100 1.860 . S
C1260 C509 1.858 . S
C1271 C253 1.822 . S
C1276 C326 1.808 . S
