# Generated by pormake.
# Topology vbf, (5)-cn, num edge types: 1
# Building blocks:
#     Node 0, Type 0, BuildingBlock: BEQFEK_clean_sbu_0, # of connection points: 5
#     Node 1, Type 0, BuildingBlock: BEQFEK_clean_sbu_0, # of connection points: 5
#     Node 2, Type 0, BuildingBlock: BEQFEK_clean_sbu_0, # of connection points: 5
#     Node 3, Type 0, BuildingBlock: BEQFEK_clean_sbu_0, # of connection points: 5
#     Node 4, Type 0, BuildingBlock: BEQFEK_clean_sbu_0, # of connection points: 5
#     Node 5, Type 0, BuildingBlock: BEQFEK_clean_sbu_0, # of connection points: 5
#     Node 6, Type 0, BuildingBlock: BEQFEK_clean_sbu_0, # of connection points: 5
#     Node 7, Type 0, BuildingBlock: BEQFEK_clean_sbu_0, # of connection points: 5
#     Node 8, Type 0, BuildingBlock: BEQFEK_clean_sbu_0, # of connection points: 5
#     Node 9, Type 0, BuildingBlock: BEQFEK_clean_sbu_0, # of connection points: 5
#     Node 10, Type 0, BuildingBlock: BEQFEK_clean_sbu_0, # of connection points: 5
#     Node 11, Type 0, BuildingBlock: BEQFEK_clean_sbu_0, # of connection points: 5
#     Node 12, Type 0, BuildingBlock: BEQFEK_clean_sbu_0, # of connection points: 5
#     Node 13, Type 0, BuildingBlock: BEQFEK_clean_sbu_0, # of connection points: 5
#     Node 14, Type 0, BuildingBlock: BEQFEK_clean_sbu_0, # of connection points: 5
#     Node 15, Type 0, BuildingBlock: BEQFEK_clean_sbu_0, # of connection points: 5
#     Edge 16, Type (0, 0), None
#     Edge 17, Type (0, 0), None
#     Edge 18, Type (0, 0), None
#     Edge 19, Type (0, 0), None
#     Edge 20, Type (0, 0), None
#     Edge 21, Type (0, 0), None
#     Edge 22, Type (0, 0), None
#     Edge 23, Type (0, 0), None
#     Edge 24, Type (0, 0), None
#     Edge 25, Type (0, 0), None
#     Edge 26, Type (0, 0), None
#     Edge 27, Type (0, 0), None
#     Edge 28, Type (0, 0), None
#     Edge 29, Type (0, 0), None
#     Edge 30, Type (0, 0), None
#     Edge 31, Type (0, 0), None
#     Edge 32, Type (0, 0), None
#     Edge 33, Type (0, 0), None
#     Edge 34, Type (0, 0), None
#     Edge 35, Type (0, 0), None
#     Edge 36, Type (0, 0), None
#     Edge 37, Type (0, 0), None
#     Edge 38, Type (0, 0), None
#     Edge 39, Type (0, 0), None
#     Edge 40, Type (0, 0), None
#     Edge 41, Type (0, 0), None
#     Edge 42, Type (0, 0), None
#     Edge 43, Type (0, 0), None
#     Edge 44, Type (0, 0), None
#     Edge 45, Type (0, 0), None
#     Edge 46, Type (0, 0), None
#     Edge 47, Type (0, 0), None
#     Edge 48, Type (0, 0), None
#     Edge 49, Type (0, 0), None
#     Edge 50, Type (0, 0), None
#     Edge 51, Type (0, 0), None
#     Edge 52, Type (0, 0), None
#     Edge 53, Type (0, 0), None
#     Edge 54, Type (0, 0), None
#     Edge 55, Type (0, 0), None
# Relax obj value: 0.062
# Max RMSD: 0.101
# Mean RMSD: 0.101
data_MOF--net-vbf--node1-BEQFEK_clean_sbu_0--edge1-none
_symmetry_space_group_name_H-M    P1
_symmetry_Int_Tables_number       1
_symmetry_cell_setting            triclinic
loop_
_symmetry_equiv_pos_as_xyz
'x, y, z'
_cell_length_a     19.65711
_cell_length_b     44.919589
_cell_length_c     14.182703
_cell_angle_alpha  89.998437
_cell_angle_beta   90.000471
_cell_angle_gamma 89.998725
loop_
_atom_site_label
_atom_site_type_symbol
_atom_site_fract_x
_atom_site_fract_y
_atom_site_fract_z
_atom_type_partial_charge
Co0 Co 0.14175 0.31806 0.97428 0.0
Co1 Co 0.04677 0.27275 0.07922 0.0
C2 C 0.19496 0.26133 1.06119 0.0
O3 O 0.2047 0.28684 1.02416 0.0
O4 O 0.13582 0.25236 0.08348 0.0
C5 C 0.23339 0.36842 0.96823 0.0
O6 O 0.23169 0.36671 1.0606 0.0
C7 C -0.00908 0.24115 0.24572 0.0
C8 C 0.88742 0.23041 0.19593 0.0
C9 C 0.92962 0.2287 0.27401 0.0
N10 N -0.01556 0.2505 0.15572 0.0
N11 N 0.92268 0.24361 0.12625 0.0
C12 C 0.05506 0.24338 0.30212 0.0
H13 H 0.0929 0.25764 0.26563 0.0
H14 H 0.04425 0.25253 0.37318 0.0
H15 H 0.07666 0.22076 0.31174 0.0
C16 C 0.06077 0.36048 0.09193 0.0
N17 N 0.08117 0.33284 0.06752 0.0
N18 N 0.05053 0.31336 0.12236 0.0
C19 C 0.0149 0.32828 0.18884 0.0
C20 C 0.02043 0.35857 0.1716 0.0
C21 C 0.06884 0.38766 1.03208 0.0
H22 H 0.10248 0.38369 0.97111 0.0
H23 H 0.08726 0.4064 0.07598 0.0
H24 H 0.01824 0.39427 1.00436 0.0
O25 O 0.08974 0.30043 0.87073 0.0
O26 O 0.01494 0.27104 0.94293 0.0
H27 H 0.92952 0.30114 0.22625 0.0
H28 H 0.94766 0.33047 0.30945 0.0
C29 C 0.97054 0.31395 0.26132 0.0
H30 H 0.00164 0.29877 0.30467 0.0
H31 H 0.90399 0.24863 1.05923 0.0
O32 O 0.19912 0.35013 0.91917 0.0
C33 C 0.03947 0.28266 0.86792 0.0
Co34 Co 0.8046 0.68332 0.9743 0.0
Co35 Co 0.89959 0.72863 0.07922 0.0
C36 C 0.75139 0.74004 1.0612 0.0
O37 O 0.74165 0.71453 1.02418 0.0
O38 O 0.81053 0.74901 0.08348 0.0
C39 C 0.71299 0.63295 0.96825 0.0
O40 O 0.7147 0.63465 1.06062 0.0
C41 C 0.95543 0.76023 0.24571 0.0
C42 C 0.05891 0.77099 0.19591 0.0
C43 C 0.01673 0.77269 0.274 0.0
N44 N 0.9619 0.75089 0.15571 0.0
N45 N 0.02366 0.75779 0.12622 0.0
C46 C 0.8913 0.75798 0.30213 0.0
H47 H 0.85347 0.74372 0.26563 0.0
H48 H 0.90212 0.74883 0.37318 0.0
H49 H 0.86969 0.7806 0.31177 0.0
C50 C 0.88562 0.6409 0.09193 0.0
N51 N 0.8652 0.66854 0.06753 0.0
N52 N 0.89584 0.68802 0.12236 0.0
C53 C 0.93149 0.6731 0.18882 0.0
C54 C 0.92597 0.64281 0.17159 0.0
C55 C 0.87755 0.61372 1.03207 0.0
H56 H 0.84389 0.61769 0.97113 0.0
H57 H 0.85916 0.59497 0.07598 0.0
H58 H 0.92815 0.60712 1.00434 0.0
O59 O 0.8566 0.70095 0.87074 0.0
O60 O 0.93141 0.73034 0.94292 0.0
H61 H 0.01687 0.70025 0.22618 0.0
H62 H -0.00121 0.67092 0.30938 0.0
C63 C -0.02413 0.68743 0.26128 0.0
H64 H 0.94478 0.7026 0.30467 0.0
H65 H 0.04235 0.75278 1.0592 0.0
O66 O 0.74724 0.65124 0.91919 0.0
C67 C 0.90688 0.71872 0.86791 0.0
Co68 Co 0.0546 0.56807 0.22424 0.0
Co69 Co 0.1496 0.52275 0.32915 0.0
C70 C 0.00141 0.51134 0.31116 0.0
O71 O -0.00834 0.53684 0.27413 0.0
O72 O 0.06055 0.50236 0.33344 0.0
C73 C 0.96297 0.61842 0.21832 0.0
O74 O 0.96472 0.6167 0.31069 0.0
C75 C 0.20546 0.49115 0.49563 0.0
C76 C 0.30895 0.4804 0.44584 0.0
C77 C 0.26676 0.4787 0.52393 0.0
N78 N 0.21193 0.5005 0.40563 0.0
N79 N 0.27369 0.4936 0.37615 0.0
C80 C 0.14133 0.49339 0.55204 0.0
H81 H 0.1035 0.50766 0.51555 0.0
H82 H 0.15214 0.50254 0.6231 0.0
H83 H 0.11972 0.47077 0.56166 0.0
C84 C 0.13561 0.61048 0.34187 0.0
N85 N 0.1152 0.58284 0.31747 0.0
N86 N 0.14585 0.56335 0.3723 0.0
C87 C 0.1815 0.57827 0.43876 0.0
C88 C 0.17597 0.60856 0.42153 0.0
C89 C 0.12752 0.63766 0.28204 0.0
H90 H 0.09388 0.63369 0.22107 0.0
H91 H 0.10909 0.6564 0.32595 0.0
H92 H 0.17812 0.64428 0.25434 0.0
O93 O 0.1066 0.55044 0.12066 0.0
O94 O 0.18141 0.52104 0.19284 0.0
H95 H 0.26688 0.55113 0.47612 0.0
H96 H 0.24879 0.58046 0.55933 0.0
C97 C 0.22588 0.56394 0.51122 0.0
H98 H 0.19479 0.54877 0.5546 0.0
H99 H 0.29238 0.49861 0.30913 0.0
O100 O -0.00279 0.60014 0.16919 0.0
C101 C 0.15687 0.53267 0.11784 0.0
Co102 Co 0.89177 0.4333 0.22427 0.0
Co103 Co 0.79677 0.47862 0.32917 0.0
C104 C 0.94496 0.49003 0.31119 0.0
O105 O 0.95471 0.46453 0.27415 0.0
O106 O 0.88582 0.49901 0.33345 0.0
C107 C -0.01656 0.38296 0.21834 0.0
O108 O -0.01828 0.38469 0.3107 0.0
C109 C 0.74091 0.51022 0.49565 0.0
C110 C 0.63742 0.52097 0.44586 0.0
C111 C 0.67961 0.52267 0.52395 0.0
N112 N 0.73444 0.50087 0.40566 0.0
N113 N 0.67268 0.50777 0.37617 0.0
C114 C 0.80505 0.50798 0.55207 0.0
H115 H 0.84288 0.49371 0.51558 0.0
H116 H 0.79423 0.49882 0.62312 0.0
H117 H 0.82665 0.5306 0.5617 0.0
C118 C 0.81078 0.39089 0.34193 0.0
N119 N 0.83118 0.41853 0.31751 0.0
N120 N 0.80052 0.43801 0.37233 0.0
C121 C 0.76488 0.42309 0.43879 0.0
C122 C 0.77041 0.3928 0.42158 0.0
C123 C 0.81889 0.3637 0.28212 0.0
H124 H 0.85253 0.36767 0.22115 0.0
H125 H 0.83735 0.34497 0.32605 0.0
H126 H 0.76831 0.35707 0.25442 0.0
O127 O 0.83976 0.45093 0.1207 0.0
O128 O 0.76496 0.48033 0.19287 0.0
H129 H 0.67949 0.45024 0.47614 0.0
H130 H 0.69758 0.42091 0.55935 0.0
C131 C 0.72049 0.43742 0.51124 0.0
H132 H 0.75157 0.45259 0.55462 0.0
H133 H 0.65399 0.50276 0.30916 0.0
O134 O 0.94916 0.40123 0.16921 0.0
C135 C 0.78948 0.4687 0.11787 0.0
Co136 Co 0.14176 0.81806 0.4743 0.0
Co137 Co 0.04676 0.77275 0.5792 0.0
C138 C 0.19495 0.76132 0.56119 0.0
O139 O 0.2047 0.78683 0.52417 0.0
O140 O 0.1358 0.75235 0.58346 0.0
C141 C 0.2334 0.86842 0.46826 0.0
O142 O 0.23169 0.86672 0.56064 0.0
C143 C -0.0091 0.74116 0.7457 0.0
C144 C 0.88741 0.73041 0.69592 0.0
C145 C 0.92958 0.72873 0.77403 0.0
N146 N -0.01557 0.7505 0.65569 0.0
N147 N 0.92267 0.7436 0.62621 0.0
C148 C 0.05504 0.7434 0.80211 0.0
H149 H 0.09287 0.75766 0.76562 0.0
H150 H 0.04423 0.75255 0.87317 0.0
H151 H 0.07664 0.72078 0.81173 0.0
C152 C 0.06078 0.86048 0.59194 0.0
N153 N 0.08118 0.83283 0.56754 0.0
N154 N 0.05053 0.81335 0.62236 0.0
C155 C 0.01488 0.82827 0.68882 0.0
C156 C 0.02042 0.85856 0.67159 0.0
C157 C 0.06885 0.88766 0.53209 0.0
H158 H 0.1025 0.88369 0.47113 0.0
H159 H 0.08726 0.9064 0.57599 0.0
H160 H 0.01825 0.89426 0.50436 0.0
O161 O 0.08974 0.80044 0.37073 0.0
O162 O 0.01493 0.77105 0.4429 0.0
H163 H 0.9295 0.80113 0.72617 0.0
H164 H 0.94757 0.83047 0.80936 0.0
C165 C 0.97049 0.81395 0.76128 0.0
H166 H 0.00158 0.79878 0.80468 0.0
H167 H 0.90399 0.74859 0.55917 0.0
O168 O 0.19914 0.85013 0.4192 0.0
C169 C 0.03945 0.78268 0.3679 0.0
Co170 Co 0.80459 0.18331 0.47429 0.0
Co171 Co 0.89959 0.22862 0.57921 0.0
C172 C 0.7514 0.24004 0.56119 0.0
O173 O 0.74165 0.21453 0.52417 0.0
O174 O 0.81054 0.24902 0.58347 0.0
C175 C 0.71297 0.13295 0.46823 0.0
O176 O 0.71468 0.13465 0.5606 0.0
C177 C 0.95545 0.26021 0.74572 0.0
C178 C 0.05893 0.27097 0.69592 0.0
C179 C 0.01677 0.27264 0.77403 0.0
N180 N 0.96191 0.25088 0.6557 0.0
N181 N 0.02367 0.25778 0.62622 0.0
C182 C 0.89131 0.25797 0.80213 0.0
H183 H 0.85348 0.24371 0.76564 0.0
H184 H 0.90213 0.24882 0.87319 0.0
H185 H 0.86971 0.28059 0.81175 0.0
C186 C 0.88559 0.14089 0.59193 0.0
N187 N 0.86518 0.16854 0.56753 0.0
N188 N 0.89583 0.18802 0.62236 0.0
C189 C 0.93147 0.1731 0.68882 0.0
C190 C 0.92595 0.14281 0.67159 0.0
C191 C 0.87753 0.11371 0.53207 0.0
H192 H 0.84388 0.11769 0.47111 0.0
H193 H 0.85911 0.09497 0.57597 0.0
H194 H 0.92813 0.10711 0.50436 0.0
O195 O 0.85661 0.20094 0.37074 0.0
O196 O 0.93142 0.23033 0.44291 0.0
H197 H 0.01685 0.20024 0.7262 0.0
H198 H -0.00123 0.1709 0.80938 0.0
C199 C -0.02415 0.18742 0.76129 0.0
H200 H 0.94476 0.20259 0.80468 0.0
H201 H 0.04234 0.25279 0.55919 0.0
O202 O 0.74723 0.15124 0.41918 0.0
C203 C 0.9069 0.2187 0.36791 0.0
Co204 Co 0.0546 0.06807 0.72425 0.0
Co205 Co 0.1496 0.02275 0.82915 0.0
C206 C 0.00141 0.01133 0.81114 0.0
O207 O -0.00834 0.03684 0.77412 0.0
O208 O 0.06055 0.00236 0.83343 0.0
C209 C 0.96294 0.11842 0.71832 0.0
O210 O 0.96467 0.11668 0.81069 0.0
C211 C 0.20545 0.99114 0.99564 0.0
C212 C 0.30894 0.98039 0.94584 0.0
C213 C 0.26675 0.97869 1.02393 0.0
N214 N 0.21193 1.00049 0.90564 0.0
N215 N 0.27368 0.9936 0.87615 0.0
C216 C 0.14132 0.99339 1.05206 0.0
H217 H 0.10349 0.00766 1.01556 0.0
H218 H 0.15214 0.00254 0.12311 0.0
H219 H 0.11971 0.97077 1.06168 0.0
C220 C 0.13559 0.11048 0.84191 0.0
N221 N 0.11519 0.08284 0.81749 0.0
N222 N 0.14585 0.06335 0.87231 0.0
C223 C 0.18149 0.07827 0.93878 0.0
C224 C 0.17596 0.10856 0.92157 0.0
C225 C 0.1275 0.13767 0.78209 0.0
H226 H 0.09384 0.1337 0.72113 0.0
H227 H 0.10907 0.1564 0.82602 0.0
H228 H 0.17809 0.14428 0.75437 0.0
O229 O 0.10661 0.05044 0.62067 0.0
O230 O 0.18141 0.02104 0.69285 0.0
H231 H 0.26687 0.05112 0.97612 0.0
H232 H 0.2488 0.08046 1.05932 0.0
C233 C 0.22588 0.06394 1.01123 0.0
H234 H 0.1948 0.04877 1.05462 0.0
H235 H 0.29237 0.9986 0.80913 0.0
O236 O -0.00279 0.10015 0.66919 0.0
C237 C 0.15688 0.03267 0.61785 0.0
Co238 Co 0.89177 0.9333 0.72423 0.0
Co239 Co 0.79677 0.97862 0.82914 0.0
C240 C 0.94496 0.99003 0.81116 0.0
O241 O 0.95471 0.96453 0.77412 0.0
O242 O 0.88582 0.99901 0.83342 0.0
C243 C -0.01658 0.88295 0.71832 0.0
O244 O -0.01832 0.88468 0.81069 0.0
C245 C 0.74091 0.01022 0.99561 0.0
C246 C 0.63741 0.02096 0.94582 0.0
C247 C 0.6796 0.02267 1.02391 0.0
N248 N 0.73443 0.00087 0.90562 0.0
N249 N 0.67267 0.00776 0.87614 0.0
C250 C 0.80505 0.00799 1.05202 0.0
H251 H 0.84288 0.99372 1.01553 0.0
H252 H 0.79424 0.99884 0.12308 0.0
H253 H 0.82665 0.03061 1.06162 0.0
C254 C 0.81077 0.89089 0.84188 0.0
N255 N 0.83117 0.91853 0.81747 0.0
N256 N 0.80053 0.93801 0.8723 0.0
C257 C 0.76489 0.92309 0.93877 0.0
C258 C 0.77042 0.8928 0.92155 0.0
C259 C 0.81885 0.8637 0.78205 0.0
H260 H 0.85252 0.86767 0.7211 0.0
H261 H 0.83726 0.84496 0.82597 0.0
H262 H 0.76826 0.8571 0.75432 0.0
O263 O 0.83977 0.95093 0.62065 0.0
O264 O 0.76496 0.98033 0.69283 0.0
H265 H 0.67951 0.95023 0.97615 0.0
H266 H 0.69763 0.92091 1.05937 0.0
C267 C 0.72052 0.93742 1.01124 0.0
H268 H 0.75162 0.9526 1.05459 0.0
H269 H 0.65398 0.00275 0.80913 0.0
O270 O 0.94916 0.90123 0.66918 0.0
C271 C 0.78949 0.9687 0.61783 0.0
Co272 Co 0.64175 0.31807 0.47426 0.0
Co273 Co 0.54675 0.27275 0.57918 0.0
C274 C 0.69494 0.26135 0.5612 0.0
O275 O 0.70469 0.28685 0.52415 0.0
O276 O 0.63581 0.25236 0.58346 0.0
C277 C 0.73342 0.36841 0.46832 0.0
O278 O 0.7317 0.36668 0.56068 0.0
C279 C 0.4909 0.24114 0.74566 0.0
C280 C 0.38742 0.2304 0.69587 0.0
C281 C 0.42961 0.22869 0.77396 0.0
N282 N 0.48443 0.2505 0.65566 0.0
N283 N 0.42267 0.2436 0.62619 0.0
C284 C 0.55504 0.24339 0.80207 0.0
H285 H 0.59287 0.25765 0.76558 0.0
H286 H 0.54422 0.25254 0.87313 0.0
H287 H 0.57665 0.22077 0.8117 0.0
C288 C 0.56076 0.36049 0.59192 0.0
N289 N 0.58116 0.33284 0.5675 0.0
N290 N 0.55051 0.31336 0.62232 0.0
C291 C 0.51486 0.32828 0.68879 0.0
C292 C 0.5204 0.35857 0.67157 0.0
C293 C 0.56886 0.38767 0.5321 0.0
H294 H 0.60252 0.3837 0.47115 0.0
H295 H 0.58728 0.40641 0.57603 0.0
H296 H 0.51827 0.39429 0.50437 0.0
O297 O 0.58975 0.30044 0.37069 0.0
O298 O 0.51495 0.27104 0.44287 0.0
H299 H 0.42948 0.30113 0.72615 0.0
H300 H 0.44758 0.33046 0.80937 0.0
C301 C 0.47049 0.31395 0.76125 0.0
H302 H 0.50158 0.29877 0.80462 0.0
H303 H 0.40398 0.24861 0.55917 0.0
O304 O 0.69914 0.35015 0.4192 0.0
C305 C 0.53948 0.28267 0.36787 0.0
Co306 Co 0.30461 0.6833 0.47426 0.0
Co307 Co 0.39959 0.72862 0.57919 0.0
C308 C 0.2514 0.74002 0.56121 0.0
O309 O 0.24166 0.71452 0.52415 0.0
O310 O 0.31053 0.749 0.58347 0.0
C311 C 0.21296 0.63295 0.46828 0.0
O312 O 0.21468 0.63468 0.56065 0.0
C313 C 0.45544 0.76023 0.74568 0.0
C314 C 0.55892 0.77098 0.69588 0.0
C315 C 0.51674 0.77269 0.77397 0.0
N316 N 0.46192 0.75088 0.65568 0.0
N317 N 0.52367 0.75777 0.6262 0.0
C318 C 0.39131 0.75798 0.8021 0.0
H319 H 0.35348 0.74372 0.7656 0.0
H320 H 0.40213 0.74883 0.87315 0.0
H321 H 0.3697 0.7806 0.81173 0.0
C322 C 0.38561 0.64089 0.59191 0.0
N323 N 0.36521 0.66853 0.56749 0.0
N324 N 0.39585 0.68801 0.62232 0.0
C325 C 0.43149 0.67309 0.68879 0.0
C326 C 0.42597 0.6428 0.67157 0.0
C327 C 0.37752 0.6137 0.53209 0.0
H328 H 0.34387 0.61767 0.47113 0.0
H329 H 0.35909 0.59497 0.57601 0.0
H330 H 0.42811 0.60708 0.50437 0.0
O331 O 0.35661 0.70094 0.37069 0.0
O332 O 0.4314 0.73034 0.44289 0.0
H333 H 0.51687 0.70024 0.72618 0.0
H334 H 0.49875 0.67091 0.80939 0.0
C335 C 0.47586 0.68742 0.76126 0.0
H336 H 0.44476 0.7026 0.80462 0.0
H337 H 0.54236 0.75277 0.55918 0.0
O338 O 0.24723 0.65123 0.41917 0.0
C339 C 0.40687 0.71871 0.36788 0.0
Co340 Co 0.55461 0.56806 0.72426 0.0
Co341 Co 0.64961 0.52274 0.82915 0.0
C342 C 0.50141 0.51133 0.81117 0.0
O343 O 0.49167 0.53684 0.77415 0.0
O344 O 0.56055 0.50235 0.83343 0.0
C345 C 0.46296 0.61841 0.71832 0.0
O346 O 0.4647 0.61669 0.81068 0.0
C347 C 0.70547 0.49115 0.99566 0.0
C348 C 0.80894 0.48037 0.94585 0.0
C349 C 0.76678 0.47871 1.02398 0.0
N350 N 0.71193 0.50048 0.90564 0.0
N351 N 0.77368 0.49356 0.87614 0.0
C352 C 0.64134 0.4934 1.05209 0.0
H353 H 0.60351 0.50767 1.01558 0.0
H354 H 0.65217 0.50256 0.12313 0.0
H355 H 0.61972 0.47079 1.06174 0.0
C356 C 0.63566 0.61047 0.84184 0.0
N357 N 0.61522 0.58283 0.81747 0.0
N358 N 0.64588 0.56334 0.87229 0.0
C359 C 0.68157 0.57826 0.93871 0.0
C360 C 0.6761 0.60855 0.92142 0.0
C361 C 0.62751 0.63766 0.78205 0.0
H362 H 0.59388 0.63368 0.72107 0.0
H363 H 0.60902 0.65638 0.82599 0.0
H364 H 0.67809 0.6443 0.75437 0.0
O365 O 0.60661 0.55043 0.62068 0.0
O366 O 0.68142 0.52103 0.69284 0.0
H367 H 0.76691 0.55109 0.97608 0.0
H368 H 0.7489 0.58045 1.05923 0.0
C369 C 0.72594 0.56393 1.01117 0.0
H370 H 0.69484 0.54878 1.0546 0.0
H371 H 0.79235 0.49855 0.8091 0.0
O372 O 0.49722 0.60014 0.6692 0.0
C373 C 0.65689 0.53267 0.61785 0.0
Co374 Co 0.39177 0.43331 0.72424 0.0
Co375 Co 0.29676 0.47863 0.82913 0.0
C376 C 0.44496 0.49003 0.81119 0.0
O377 O 0.4547 0.46453 0.77415 0.0
O378 O 0.38582 0.49902 0.83343 0.0
C379 C 0.48341 0.38296 0.71831 0.0
O380 O 0.48166 0.38468 0.81068 0.0
C381 C 0.24089 0.51022 0.99563 0.0
C382 C 0.13741 0.52098 0.94583 0.0
C383 C 0.17957 0.52265 1.02395 0.0
N384 N 0.23443 0.50089 0.90561 0.0
N385 N 0.17268 0.50779 0.87612 0.0
C386 C 0.30503 0.50798 1.05205 0.0
H387 H 0.34286 0.49371 1.01555 0.0
H388 H 0.29421 0.49882 0.1231 0.0
H389 H 0.32663 0.5306 1.06168 0.0
C390 C 0.31071 0.3909 0.84181 0.0
N391 N 0.33115 0.41854 0.81745 0.0
N392 N 0.3005 0.43803 0.87227 0.0
C393 C 0.26482 0.42311 0.9387 0.0
C394 C 0.27028 0.39282 0.9214 0.0
C395 C 0.31884 0.36371 0.782 0.0
H396 H 0.35248 0.36769 0.72104 0.0
H397 H 0.33731 0.34499 0.82594 0.0
H398 H 0.26826 0.35708 0.75431 0.0
O399 O 0.33977 0.45094 0.62066 0.0
O400 O 0.26496 0.48034 0.69282 0.0
H401 H 0.17947 0.45026 0.97611 0.0
H402 H 0.19754 0.42092 1.05927 0.0
C403 C 0.22046 0.43744 1.01119 0.0
H404 H 0.25157 0.4526 1.05458 0.0
H405 H 0.154 0.5028 0.80909 0.0
O406 O 0.44916 0.40123 0.66919 0.0
C407 C 0.28949 0.4687 0.61783 0.0
Co408 Co 0.64176 0.81807 0.97426 0.0
Co409 Co 0.54675 0.77276 0.07917 0.0
C410 C 0.69494 0.76134 1.0612 0.0
O411 O 0.70469 0.78685 1.02415 0.0
O412 O 0.6358 0.75236 0.08345 0.0
C413 C 0.73343 0.86841 0.96829 0.0
O414 O 0.73171 0.86669 1.06066 0.0
C415 C 0.49089 0.74116 0.24567 0.0
C416 C 0.38739 0.73042 0.19589 0.0
C417 C 0.42957 0.72874 0.27399 0.0
N418 N 0.48442 0.75051 0.15566 0.0
N419 N 0.42266 0.74361 0.12618 0.0
C420 C 0.55503 0.7434 0.30208 0.0
H421 H 0.59286 0.75766 0.26559 0.0
H422 H 0.54422 0.75254 0.37314 0.0
H423 H 0.57663 0.72077 0.31168 0.0
C424 C 0.56078 0.86049 0.09192 0.0
N425 N 0.58117 0.83285 0.0675 0.0
N426 N 0.55052 0.81336 0.12232 0.0
C427 C 0.51488 0.82828 0.18879 0.0
C428 C 0.52042 0.85857 0.17157 0.0
C429 C 0.56888 0.88767 1.0321 0.0
H430 H 0.60253 0.8837 0.97113 0.0
H431 H 0.58733 0.90641 0.07602 0.0
H432 H 0.51829 0.8943 1.00439 0.0
O433 O 0.58974 0.80045 0.87069 0.0
O434 O 0.51493 0.77105 0.94287 0.0
H435 H 0.4295 0.80114 0.22618 0.0
H436 H 0.44761 0.83047 0.30938 0.0
C437 C 0.47051 0.81396 0.26126 0.0
H438 H 0.5016 0.79878 0.30463 0.0
H439 H 0.40398 0.74861 1.05915 0.0
O440 O 0.69915 0.85014 0.91918 0.0
C441 C 0.53946 0.78269 0.86787 0.0
Co442 Co 0.3046 0.1833 0.97427 0.0
Co443 Co 0.3996 0.22862 0.07916 0.0
C444 C 0.25141 0.24003 1.0612 0.0
O445 O 0.24166 0.21453 1.02416 0.0
O446 O 0.31055 0.24901 0.08345 0.0
C447 C 0.21294 0.13295 0.96832 0.0
O448 O 0.21468 0.13467 1.06069 0.0
C449 C 0.45546 0.26022 0.24566 0.0
C450 C 0.55894 0.27098 0.19586 0.0
C451 C 0.51678 0.27265 0.27398 0.0
N452 N 0.46193 0.25088 0.15565 0.0
N453 N 0.52368 0.25779 0.12616 0.0
C454 C 0.39133 0.25797 0.30208 0.0
H455 H 0.3535 0.2437 0.26559 0.0
H456 H 0.40215 0.24882 0.37314 0.0
H457 H 0.36972 0.28059 0.31171 0.0
C458 C 0.38561 0.14089 0.09192 0.0
N459 N 0.3652 0.16853 0.0675 0.0
N460 N 0.39586 0.18802 0.12232 0.0
C461 C 0.43151 0.1731 0.18877 0.0
C462 C 0.42598 0.14281 0.17156 0.0
C463 C 0.37751 0.11371 1.0321 0.0
H464 H 0.34385 0.11768 0.97114 0.0
H465 H 0.35909 0.09497 0.07602 0.0
H466 H 0.4281 0.10709 1.00436 0.0
O467 O 0.35661 0.20093 0.8707 0.0
O468 O 0.43142 0.23033 0.94285 0.0
H469 H 0.51689 0.20025 0.2261 0.0
H470 H 0.49884 0.17091 0.3093 0.0
C471 C 0.47591 0.18743 0.26122 0.0
H472 H 0.44482 0.20259 0.30462 0.0
H473 H 0.54235 0.2528 1.05912 0.0
O474 O 0.24721 0.15123 0.9192 0.0
C475 C 0.40689 0.21869 0.86786 0.0
Co476 Co 0.55461 0.06806 0.22422 0.0
Co477 Co 0.64961 0.02274 0.32911 0.0
C478 C 0.50141 0.01133 0.31114 0.0
O479 O 0.49167 0.03684 0.27412 0.0
O480 O 0.56055 0.00235 0.3334 0.0
C481 C 0.46297 0.11842 0.2183 0.0
O482 O 0.46473 0.11669 0.31067 0.0
C483 C 0.70547 0.99114 0.49562 0.0
C484 C 0.80895 0.98038 0.44582 0.0
C485 C 0.76679 0.97871 0.52393 0.0
N486 N 0.71193 1.00048 0.4056 0.0
N487 N 0.77369 0.99357 0.37611 0.0
C488 C 0.64134 0.99339 0.55204 0.0
H489 H 0.60351 0.00766 0.51554 0.0
H490 H 0.65216 0.00254 0.62309 0.0
H491 H 0.61973 0.97077 0.56166 0.0
C492 C 0.63567 0.11047 0.3418 0.0
N493 N 0.61523 0.08283 0.31743 0.0
N494 N 0.64587 0.06334 0.37225 0.0
C495 C 0.68155 0.07826 0.43869 0.0
C496 C 0.67609 0.10855 0.42138 0.0
C497 C 0.62755 0.13765 0.28198 0.0
H498 H 0.5939 0.13368 0.22102 0.0
H499 H 0.60911 0.15639 0.32591 0.0
H500 H 0.67814 0.14428 0.25426 0.0
O501 O 0.6066 0.05043 0.12064 0.0
O502 O 0.68141 0.02103 0.1928 0.0
H503 H 0.76689 0.0511 0.47609 0.0
H504 H 0.74884 0.08044 0.55925 0.0
C505 C 0.72591 0.06393 0.51117 0.0
H506 H 0.6948 0.04877 0.55457 0.0
H507 H 0.79236 0.99856 0.30907 0.0
O508 O 0.49722 0.10014 0.16917 0.0
C509 C 0.65688 0.03267 0.11781 0.0
Co510 Co 0.39176 0.93331 0.22425 0.0
Co511 Co 0.29676 0.97863 0.32914 0.0
C512 C 0.44496 0.99003 0.31117 0.0
O513 O 0.4547 0.96453 0.27414 0.0
O514 O 0.38582 0.99902 0.33342 0.0
C515 C 0.48344 0.88296 0.21831 0.0
O516 O 0.48171 0.88469 0.31068 0.0
C517 C 0.2409 0.01022 0.49564 0.0
C518 C 0.13742 0.02099 0.44584 0.0
C519 C 0.17959 0.02266 0.52396 0.0
N520 N 0.23444 0.00089 0.40562 0.0
N521 N 0.17269 0.0078 0.37613 0.0
C522 C 0.30504 0.00798 0.55206 0.0
H523 H 0.34287 0.99371 0.51556 0.0
H524 H 0.29421 0.99882 0.62311 0.0
H525 H 0.32664 0.0306 0.5617 0.0
C526 C 0.31073 0.8909 0.34185 0.0
N527 N 0.33116 0.91854 0.31747 0.0
N528 N 0.30051 0.93803 0.37229 0.0
C529 C 0.26483 0.92311 0.43872 0.0
C530 C 0.27029 0.89282 0.42143 0.0
C531 C 0.31887 0.86371 0.28206 0.0
H532 H 0.35252 0.86768 0.2211 0.0
H533 H 0.33733 0.84499 0.32601 0.0
H534 H 0.26829 0.85707 0.25435 0.0
O535 O 0.33976 0.95093 0.12067 0.0
O536 O 0.26495 0.98034 0.19283 0.0
H537 H 0.17948 0.95027 0.47611 0.0
H538 H 0.19753 0.92092 0.55928 0.0
C539 C 0.22046 0.93744 0.51119 0.0
H540 H 0.25156 0.9526 0.55459 0.0
H541 H 0.15401 0.00281 0.3091 0.0
O542 O 0.44916 0.90123 0.16919 0.0
C543 C 0.28948 0.9687 0.11784 0.0
loop_
_geom_bond_atom_site_label_1
_geom_bond_atom_site_label_2
_geom_bond_distance
_geom_bond_site_symmetry_2
_ccdc_geom_bond_type
Co0 O3 1.970 . S
Co0 N17 1.989 1_556 S
Co0 O25 1.967 . S
Co0 O32 1.920 . S
Co1 O4 1.966 . S
Co1 N10 2.022 . S
Co1 N18 1.993 . S
Co1 O26 1.941 1_554 S
C2 O3 1.258 . S
C2 O4 1.263 1_556 S
O3 Co0 1.970 . S
O3 C2 1.258 . S
O4 Co1 1.966 . S
O4 C2 1.263 1_554 S
C5 O6 1.235 . S
C5 O32 1.289 . S
O6 C5 1.235 . S
C7 C9 1.400 1_455 S
C7 N10 1.351 . S
C7 C12 1.501 . S
C8 C9 1.387 . S
C8 N11 1.341 . S
C9 C7 1.400 1_655 S
C9 C8 1.387 . S
N10 Co1 2.022 . S
N10 C7 1.351 . S
N10 N11 1.365 1_455 S
N11 C8 1.341 . S
N11 N10 1.365 1_655 S
N11 H31 0.862 . S
C12 C7 1.501 . S
C12 H13 0.961 . S
C12 H14 0.961 . S
C12 H15 0.960 . S
H13 C12 0.961 . S
H14 C12 0.961 . S
H15 C12 0.960 . S
C16 N17 1.342 . S
C16 C20 1.401 . S
C16 C21 1.499 1_554 S
N17 Co0 1.989 1_554 S
N17 C16 1.342 . S
N17 N18 1.388 . S
N18 Co1 1.993 . S
N18 N17 1.388 . S
N18 C19 1.346 . S
C19 N18 1.346 . S
C19 C20 1.396 . S
C19 C29 1.510 1_455 S
C20 C16 1.401 . S
C20 C19 1.396 . S
C21 C16 1.499 1_556 S
C21 H22 0.959 . S
C21 H23 0.960 1_556 S
C21 H24 0.961 . S
H22 C21 0.959 . S
H23 C21 0.960 1_554 S
H24 C21 0.961 . S
O25 Co0 1.967 . S
O25 C33 1.258 . S
O26 Co1 1.941 1_556 S
O26 C33 1.266 . S
H27 C29 0.959 . S
H28 C29 0.961 . S
C29 C19 1.510 1_655 S
C29 H27 0.959 . S
C29 H28 0.961 . S
C29 H30 0.960 . S
H30 C29 0.960 . S
H31 N11 0.862 . S
O32 Co0 1.920 . S
O32 C5 1.289 . S
C33 O25 1.258 . S
C33 O26 1.266 . S
Co34 O37 1.970 . S
Co34 N51 1.989 1_556 S
Co34 O59 1.967 . S
Co34 O66 1.920 . S
Co35 O38 1.966 . S
Co35 N44 2.022 . S
Co35 N52 1.993 . S
Co35 O60 1.941 1_554 S
C36 O37 1.258 . S
C36 O38 1.263 1_556 S
O37 Co34 1.970 . S
O37 C36 1.258 . S
O38 Co35 1.966 . S
O38 C36 1.263 1_554 S
C39 O40 1.235 . S
C39 O66 1.289 . S
O40 C39 1.235 . S
C41 C43 1.400 1_655 S
C41 N44 1.351 . S
C41 C46 1.501 . S
C42 C43 1.387 . S
C42 N45 1.341 . S
C43 C41 1.400 1_455 S
C43 C42 1.387 . S
N44 Co35 2.022 . S
N44 C41 1.351 . S
N44 N45 1.365 1_655 S
N45 C42 1.341 . S
N45 N44 1.365 1_455 S
N45 H65 0.862 . S
C46 C41 1.501 . S
C46 H47 0.961 . S
C46 H48 0.961 . S
C46 H49 0.960 . S
H47 C46 0.961 . S
H48 C46 0.961 . S
H49 C46 0.960 . S
C50 N51 1.342 . S
C50 C54 1.401 . S
C50 C55 1.499 1_554 S
N51 Co34 1.989 1_554 S
N51 C50 1.342 . S
N51 N52 1.388 . S
N52 Co35 1.993 . S
N52 N51 1.388 . S
N52 C53 1.346 . S
C53 N52 1.346 . S
C53 C54 1.396 . S
C53 C63 1.510 1_655 S
C54 C50 1.401 . S
C54 C53 1.396 . S
C55 C50 1.499 1_556 S
C55 H56 0.959 . S
C55 H57 0.960 1_556 S
C55 H58 0.961 . S
H56 C55 0.959 . S
H57 C55 0.960 1_554 S
H58 C55 0.961 . S
O59 Co34 1.967 . S
O59 C67 1.258 . S
O60 Co35 1.941 1_556 S
O60 C67 1.266 . S
H61 C63 0.959 . S
H62 C63 0.961 . S
C63 C53 1.510 1_455 S
C63 H61 0.959 . S
C63 H62 0.961 . S
C63 H64 0.960 . S
H64 C63 0.960 . S
H65 N45 0.862 . S
O66 Co34 1.920 . S
O66 C39 1.289 . S
C67 O59 1.258 . S
C67 O60 1.266 . S
Co68 O71 1.970 . S
Co68 N85 1.989 . S
Co68 O93 1.967 . S
Co68 O100 1.920 . S
Co69 O72 1.966 . S
Co69 N78 2.022 . S
Co69 N86 1.993 . S
Co69 O94 1.941 . S
C70 O71 1.258 . S
C70 O72 1.263 . S
O71 Co68 1.970 . S
O71 C70 1.258 . S
O72 Co69 1.966 . S
O72 C70 1.263 . S
C73 O74 1.235 1_455 S
C73 O100 1.289 . S
O74 C73 1.235 1_655 S
C75 C77 1.400 . S
C75 N78 1.351 . S
C75 C80 1.501 . S
C76 C77 1.387 . S
C76 N79 1.341 . S
C77 C75 1.400 . S
C77 C76 1.387 . S
N78 Co69 2.022 . S
N78 C75 1.351 . S
N78 N79 1.365 . S
N79 C76 1.341 . S
N79 N78 1.365 . S
N79 H99 0.862 . S
C80 C75 1.501 . S
C80 H81 0.961 . S
C80 H82 0.961 . S
C80 H83 0.960 . S
H81 C80 0.961 . S
H82 C80 0.961 . S
H83 C80 0.960 . S
C84 N85 1.342 . S
C84 C88 1.401 . S
C84 C89 1.499 . S
N85 Co68 1.989 . S
N85 C84 1.342 . S
N85 N86 1.388 . S
N86 Co69 1.993 . S
N86 N85 1.388 . S
N86 C87 1.346 . S
C87 N86 1.346 . S
C87 C88 1.396 . S
C87 C97 1.510 . S
C88 C84 1.401 . S
C88 C87 1.396 . S
C89 C84 1.499 . S
C89 H90 0.959 . S
C89 H91 0.960 . S
C89 H92 0.961 . S
H90 C89 0.959 . S
H91 C89 0.960 . S
H92 C89 0.961 . S
O93 Co68 1.967 . S
O93 C101 1.258 . S
O94 Co69 1.941 . S
O94 C101 1.266 . S
H95 C97 0.959 . S
H96 C97 0.961 . S
C97 C87 1.510 . S
C97 H95 0.959 . S
C97 H96 0.961 . S
C97 H98 0.960 . S
H98 C97 0.960 . S
H99 N79 0.862 . S
O100 Co68 1.920 . S
O100 C73 1.289 . S
C101 O93 1.258 . S
C101 O94 1.266 . S
Co102 O105 1.970 . S
Co102 N119 1.989 . S
Co102 O127 1.967 . S
Co102 O134 1.920 . S
Co103 O106 1.966 . S
Co103 N112 2.022 . S
Co103 N120 1.993 . S
Co103 O128 1.941 . S
C104 O105 1.258 . S
C104 O106 1.263 . S
O105 Co102 1.970 . S
O105 C104 1.258 . S
O106 Co103 1.966 . S
O106 C104 1.263 . S
C107 O108 1.235 1_655 S
C107 O134 1.289 . S
O108 C107 1.235 1_455 S
C109 C111 1.400 . S
C109 N112 1.351 . S
C109 C114 1.501 . S
C110 C111 1.387 . S
C110 N113 1.341 . S
C111 C109 1.400 . S
C111 C110 1.387 . S
N112 Co103 2.022 . S
N112 C109 1.351 . S
N112 N113 1.365 . S
N113 C110 1.341 . S
N113 N112 1.365 . S
N113 H133 0.862 . S
C114 C109 1.501 . S
C114 H115 0.961 . S
C114 H116 0.961 . S
C114 H117 0.960 . S
H115 C114 0.961 . S
H116 C114 0.961 . S
H117 C114 0.960 . S
C118 N119 1.342 . S
C118 C122 1.401 . S
C118 C123 1.499 . S
N119 Co102 1.989 . S
N119 C118 1.342 . S
N119 N120 1.388 . S
N120 Co103 1.993 . S
N120 N119 1.388 . S
N120 C121 1.346 . S
C121 N120 1.346 . S
C121 C122 1.396 . S
C121 C131 1.510 . S
C122 C118 1.401 . S
C122 C121 1.396 . S
C123 C118 1.499 . S
C123 H124 0.959 . S
C123 H125 0.960 . S
C123 H126 0.961 . S
H124 C123 0.959 . S
H125 C123 0.960 . S
H126 C123 0.961 . S
O127 Co102 1.967 . S
O127 C135 1.258 . S
O128 Co103 1.941 . S
O128 C135 1.266 . S
H129 C131 0.959 . S
H130 C131 0.961 . S
C131 C121 1.510 . S
C131 H129 0.959 . S
C131 H130 0.961 . S
C131 H132 0.960 . S
H132 C131 0.960 . S
H133 N113 0.862 . S
O134 Co102 1.920 . S
O134 C107 1.289 . S
C135 O127 1.258 . S
C135 O128 1.266 . S
Co136 O139 1.970 . S
Co136 N153 1.989 . S
Co136 O161 1.967 . S
Co136 O168 1.920 . S
Co137 O140 1.966 . S
Co137 N146 2.022 . S
Co137 N154 1.993 . S
Co137 O162 1.941 . S
C138 O139 1.258 . S
C138 O140 1.263 . S
O139 Co136 1.970 . S
O139 C138 1.258 . S
O140 Co137 1.966 . S
O140 C138 1.263 . S
C141 O142 1.235 . S
C141 O168 1.289 . S
O142 C141 1.235 . S
C143 C145 1.400 1_455 S
C143 N146 1.351 . S
C143 C148 1.501 . S
C144 C145 1.387 . S
C144 N147 1.341 . S
C145 C143 1.400 1_655 S
C145 C144 1.387 . S
N146 Co137 2.022 . S
N146 C143 1.351 . S
N146 N147 1.365 1_455 S
N147 C144 1.341 . S
N147 N146 1.365 1_655 S
N147 H167 0.862 . S
C148 C143 1.501 . S
C148 H149 0.961 . S
C148 H150 0.961 . S
C148 H151 0.960 . S
H149 C148 0.961 . S
H150 C148 0.961 . S
H151 C148 0.960 . S
C152 N153 1.342 . S
C152 C156 1.401 . S
C152 C157 1.499 . S
N153 Co136 1.989 . S
N153 C152 1.342 . S
N153 N154 1.388 . S
N154 Co137 1.993 . S
N154 N153 1.388 . S
N154 C155 1.346 . S
C155 N154 1.346 . S
C155 C156 1.396 . S
C155 C165 1.510 1_455 S
C156 C152 1.401 . S
C156 C155 1.396 . S
C157 C152 1.499 . S
C157 H158 0.959 . S
C157 H159 0.960 . S
C157 H160 0.961 . S
H158 C157 0.959 . S
H159 C157 0.960 . S
H160 C157 0.961 . S
O161 Co136 1.967 . S
O161 C169 1.258 . S
O162 Co137 1.941 . S
O162 C169 1.266 . S
H163 C165 0.959 . S
H164 C165 0.961 . S
C165 C155 1.510 1_655 S
C165 H163 0.959 . S
C165 H164 0.961 . S
C165 H166 0.960 . S
H166 C165 0.960 . S
H167 N147 0.862 . S
O168 Co136 1.920 . S
O168 C141 1.289 . S
C169 O161 1.258 . S
C169 O162 1.266 . S
Co170 O173 1.970 . S
Co170 N187 1.989 . S
Co170 O195 1.967 . S
Co170 O202 1.920 . S
Co171 O174 1.966 . S
Co171 N180 2.022 . S
Co171 N188 1.993 . S
Co171 O196 1.941 . S
C172 O173 1.258 . S
C172 O174 1.263 . S
O173 Co170 1.970 . S
O173 C172 1.258 . S
O174 Co171 1.966 . S
O174 C172 1.263 . S
C175 O176 1.235 . S
C175 O202 1.289 . S
O176 C175 1.235 . S
C177 C179 1.400 1_655 S
C177 N180 1.351 . S
C177 C182 1.501 . S
C178 C179 1.387 . S
C178 N181 1.341 . S
C179 C177 1.400 1_455 S
C179 C178 1.387 . S
N180 Co171 2.022 . S
N180 C177 1.351 . S
N180 N181 1.365 1_655 S
N181 C178 1.341 . S
N181 N180 1.365 1_455 S
N181 H201 0.862 . S
C182 C177 1.501 . S
C182 H183 0.961 . S
C182 H184 0.961 . S
C182 H185 0.960 . S
H183 C182 0.961 . S
H184 C182 0.961 . S
H185 C182 0.960 . S
C186 N187 1.342 . S
C186 C190 1.401 . S
C186 C191 1.499 . S
N187 Co170 1.989 . S
N187 C186 1.342 . S
N187 N188 1.388 . S
N188 Co171 1.993 . S
N188 N187 1.388 . S
N188 C189 1.346 . S
C189 N188 1.346 . S
C189 C190 1.396 . S
C189 C199 1.510 1_655 S
C190 C186 1.401 . S
C190 C189 1.396 . S
C191 C186 1.499 . S
C191 H192 0.959 . S
C191 H193 0.960 . S
C191 H194 0.961 . S
H192 C191 0.959 . S
H193 C191 0.960 . S
H194 C191 0.961 . S
O195 Co170 1.967 . S
O195 C203 1.258 . S
O196 Co171 1.941 . S
O196 C203 1.266 . S
H197 C199 0.959 . S
H198 C199 0.961 . S
C199 C189 1.510 1_455 S
C199 H197 0.959 . S
C199 H198 0.961 . S
C199 H200 0.960 . S
H200 C199 0.960 . S
H201 N181 0.862 . S
O202 Co170 1.920 . S
O202 C175 1.289 . S
C203 O195 1.258 . S
C203 O196 1.266 . S
Co204 O207 1.970 . S
Co204 N221 1.989 . S
Co204 O229 1.967 . S
Co204 O236 1.920 . S
Co205 O208 1.966 . S
Co205 N214 2.022 1_545 S
Co205 N222 1.993 . S
Co205 O230 1.941 . S
C206 O207 1.258 . S
C206 O208 1.263 . S
O207 Co204 1.970 . S
O207 C206 1.258 . S
O208 Co205 1.966 . S
O208 C206 1.263 . S
C209 O210 1.235 1_455 S
C209 O236 1.289 . S
O210 C209 1.235 1_655 S
C211 C213 1.400 . S
C211 N214 1.351 . S
C211 C216 1.501 . S
C212 C213 1.387 . S
C212 N215 1.341 . S
C213 C211 1.400 . S
C213 C212 1.387 . S
N214 Co205 2.022 1_565 S
N214 C211 1.351 . S
N214 N215 1.365 . S
N215 C212 1.341 . S
N215 N214 1.365 . S
N215 H235 0.862 1_565 S
C216 C211 1.501 . S
C216 H217 0.961 . S
C216 H218 0.961 . S
C216 H219 0.960 . S
H217 C216 0.961 . S
H218 C216 0.961 . S
H219 C216 0.960 . S
C220 N221 1.342 . S
C220 C224 1.401 . S
C220 C225 1.499 . S
N221 Co204 1.989 . S
N221 C220 1.342 . S
N221 N222 1.388 . S
N222 Co205 1.993 . S
N222 N221 1.388 . S
N222 C223 1.346 . S
C223 N222 1.346 . S
C223 C224 1.396 . S
C223 C233 1.510 . S
C224 C220 1.401 . S
C224 C223 1.396 . S
C225 C220 1.499 . S
C225 H226 0.959 . S
C225 H227 0.960 . S
C225 H228 0.961 . S
H226 C225 0.959 . S
H227 C225 0.960 . S
H228 C225 0.961 . S
O229 Co204 1.967 . S
O229 C237 1.258 . S
O230 Co205 1.941 . S
O230 C237 1.266 . S
H231 C233 0.959 . S
H232 C233 0.961 . S
C233 C223 1.510 . S
C233 H231 0.959 . S
C233 H232 0.961 . S
C233 H234 0.960 . S
H234 C233 0.960 . S
H235 N215 0.862 1_545 S
O236 Co204 1.920 . S
O236 C209 1.289 . S
C237 O229 1.258 . S
C237 O230 1.266 . S
Co238 O241 1.970 . S
Co238 N255 1.989 . S
Co238 O263 1.967 . S
Co238 O270 1.920 . S
Co239 O242 1.966 . S
Co239 N248 2.022 1_565 S
Co239 N256 1.993 . S
Co239 O264 1.941 . S
C240 O241 1.258 . S
C240 O242 1.263 . S
O241 Co238 1.970 . S
O241 C240 1.258 . S
O242 Co239 1.966 . S
O242 C240 1.263 . S
C243 O244 1.235 1_655 S
C243 O270 1.289 . S
O244 C243 1.235 1_455 S
C245 C247 1.400 . S
C245 N248 1.351 . S
C245 C250 1.501 . S
C246 C247 1.387 . S
C246 N249 1.341 . S
C247 C245 1.400 . S
C247 C246 1.387 . S
N248 Co239 2.022 1_545 S
N248 C245 1.351 . S
N248 N249 1.365 . S
N249 C246 1.341 . S
N249 N248 1.365 . S
N249 H269 0.862 1_545 S
C250 C245 1.501 . S
C250 H251 0.961 . S
C250 H252 0.961 . S
C250 H253 0.960 . S
H251 C250 0.961 . S
H252 C250 0.961 . S
H253 C250 0.960 . S
C254 N255 1.342 . S
C254 C258 1.401 . S
C254 C259 1.499 . S
N255 Co238 1.989 . S
N255 C254 1.342 . S
N255 N256 1.388 . S
N256 Co239 1.993 . S
N256 N255 1.388 . S
N256 C257 1.346 . S
C257 N256 1.346 . S
C257 C258 1.396 . S
C257 C267 1.510 . S
C258 C254 1.401 . S
C258 C257 1.396 . S
C259 C254 1.499 . S
C259 H260 0.959 . S
C259 H261 0.960 . S
C259 H262 0.961 . S
H260 C259 0.959 . S
H261 C259 0.960 . S
H262 C259 0.961 . S
O263 Co238 1.967 . S
O263 C271 1.258 . S
O264 Co239 1.941 . S
O264 C271 1.266 . S
H265 C267 0.959 . S
H266 C267 0.961 . S
C267 C257 1.510 . S
C267 H265 0.959 . S
C267 H266 0.961 . S
C267 H268 0.960 . S
H268 C267 0.960 . S
H269 N249 0.862 1_565 S
O270 Co238 1.920 . S
O270 C243 1.289 . S
C271 O263 1.258 . S
C271 O264 1.266 . S
Co272 O275 1.970 . S
Co272 N289 1.989 . S
Co272 O297 1.967 . S
Co272 O304 1.920 . S
Co273 O276 1.966 . S
Co273 N282 2.022 . S
Co273 N290 1.993 . S
Co273 O298 1.941 . S
C274 O275 1.258 . S
C274 O276 1.263 . S
O275 Co272 1.970 . S
O275 C274 1.258 . S
O276 Co273 1.966 . S
O276 C274 1.263 . S
C277 O278 1.235 . S
C277 O304 1.289 . S
O278 C277 1.235 . S
C279 C281 1.400 . S
C279 N282 1.351 . S
C279 C284 1.501 . S
C280 C281 1.387 . S
C280 N283 1.341 . S
C281 C279 1.400 . S
C281 C280 1.387 . S
N282 Co273 2.022 . S
N282 C279 1.351 . S
N282 N283 1.365 . S
N283 C280 1.341 . S
N283 N282 1.365 . S
N283 H303 0.862 . S
C284 C279 1.501 . S
C284 H285 0.961 . S
C284 H286 0.961 . S
C284 H287 0.960 . S
H285 C284 0.961 . S
H286 C284 0.961 . S
H287 C284 0.960 . S
C288 N289 1.342 . S
C288 C292 1.401 . S
C288 C293 1.499 . S
N289 Co272 1.989 . S
N289 C288 1.342 . S
N289 N290 1.388 . S
N290 Co273 1.993 . S
N290 N289 1.388 . S
N290 C291 1.346 . S
C291 N290 1.346 . S
C291 C292 1.396 . S
C291 C301 1.510 . S
C292 C288 1.401 . S
C292 C291 1.396 . S
C293 C288 1.499 . S
C293 H294 0.959 . S
C293 H295 0.960 . S
C293 H296 0.961 . S
H294 C293 0.959 . S
H295 C293 0.960 . S
H296 C293 0.961 . S
O297 Co272 1.967 . S
O297 C305 1.258 . S
O298 Co273 1.941 . S
O298 C305 1.266 . S
H299 C301 0.959 . S
H300 C301 0.961 . S
C301 C291 1.510 . S
C301 H299 0.959 . S
C301 H300 0.961 . S
C301 H302 0.960 . S
H302 C301 0.960 . S
H303 N283 0.862 . S
O304 Co272 1.920 . S
O304 C277 1.289 . S
C305 O297 1.258 . S
C305 O298 1.266 . S
Co306 O309 1.970 . S
Co306 N323 1.989 . S
Co306 O331 1.967 . S
Co306 O338 1.920 . S
Co307 O310 1.966 . S
Co307 N316 2.022 . S
Co307 N324 1.993 . S
Co307 O332 1.941 . S
C308 O309 1.258 . S
C308 O310 1.263 . S
O309 Co306 1.970 . S
O309 C308 1.258 . S
O310 Co307 1.966 . S
O310 C308 1.263 . S
C311 O312 1.235 . S
C311 O338 1.289 . S
O312 C311 1.235 . S
C313 C315 1.400 . S
C313 N316 1.351 . S
C313 C318 1.501 . S
C314 C315 1.387 . S
C314 N317 1.341 . S
C315 C313 1.400 . S
C315 C314 1.387 . S
N316 Co307 2.022 . S
N316 C313 1.351 . S
N316 N317 1.365 . S
N317 C314 1.341 . S
N317 N316 1.365 . S
N317 H337 0.862 . S
C318 C313 1.501 . S
C318 H319 0.961 . S
C318 H320 0.961 . S
C318 H321 0.960 . S
H319 C318 0.961 . S
H320 C318 0.961 . S
H321 C318 0.960 . S
C322 N323 1.342 . S
C322 C326 1.401 . S
C322 C327 1.499 . S
N323 Co306 1.989 . S
N323 C322 1.342 . S
N323 N324 1.388 . S
N324 Co307 1.993 . S
N324 N323 1.388 . S
N324 C325 1.346 . S
C325 N324 1.346 . S
C325 C326 1.396 . S
C325 C335 1.510 . S
C326 C322 1.401 . S
C326 C325 1.396 . S
C327 C322 1.499 . S
C327 H328 0.959 . S
C327 H329 0.960 . S
C327 H330 0.961 . S
H328 C327 0.959 . S
H329 C327 0.960 . S
H330 C327 0.961 . S
O331 Co306 1.967 . S
O331 C339 1.258 . S
O332 Co307 1.941 . S
O332 C339 1.266 . S
H333 C335 0.959 . S
H334 C335 0.961 . S
C335 C325 1.510 . S
C335 H333 0.959 . S
C335 H334 0.961 . S
C335 H336 0.960 . S
H336 C335 0.960 . S
H337 N317 0.862 . S
O338 Co306 1.920 . S
O338 C311 1.289 . S
C339 O331 1.258 . S
C339 O332 1.266 . S
Co340 O343 1.970 . S
Co340 N357 1.989 . S
Co340 O365 1.967 . S
Co340 O372 1.920 . S
Co341 O344 1.966 . S
Co341 N350 2.022 . S
Co341 N358 1.993 . S
Co341 O366 1.941 . S
C342 O343 1.258 . S
C342 O344 1.263 . S
O343 Co340 1.970 . S
O343 C342 1.258 . S
O344 Co341 1.966 . S
O344 C342 1.263 . S
C345 O346 1.235 . S
C345 O372 1.289 . S
O346 C345 1.235 . S
C347 C349 1.400 . S
C347 N350 1.351 . S
C347 C352 1.501 . S
C348 C349 1.387 . S
C348 N351 1.341 . S
C349 C347 1.400 . S
C349 C348 1.387 . S
N350 Co341 2.022 . S
N350 C347 1.351 . S
N350 N351 1.365 . S
N351 C348 1.341 . S
N351 N350 1.365 . S
N351 H371 0.862 . S
C352 C347 1.501 . S
C352 H353 0.961 . S
C352 H354 0.961 . S
C352 H355 0.960 . S
H353 C352 0.961 . S
H354 C352 0.961 . S
H355 C352 0.960 . S
C356 N357 1.342 . S
C356 C360 1.401 . S
C356 C361 1.499 . S
N357 Co340 1.989 . S
N357 C356 1.342 . S
N357 N358 1.388 . S
N358 Co341 1.993 . S
N358 N357 1.388 . S
N358 C359 1.346 . S
C359 N358 1.346 . S
C359 C360 1.396 . S
C359 C369 1.510 . S
C360 C356 1.401 . S
C360 C359 1.396 . S
C361 C356 1.499 . S
C361 H362 0.959 . S
C361 H363 0.960 . S
C361 H364 0.961 . S
H362 C361 0.959 . S
H363 C361 0.960 . S
H364 C361 0.961 . S
O365 Co340 1.967 . S
O365 C373 1.258 . S
O366 Co341 1.941 . S
O366 C373 1.266 . S
H367 C369 0.959 . S
H368 C369 0.961 . S
C369 C359 1.510 . S
C369 H367 0.959 . S
C369 H368 0.961 . S
C369 H370 0.960 . S
H370 C369 0.960 . S
H371 N351 0.862 . S
O372 Co340 1.920 . S
O372 C345 1.289 . S
C373 O365 1.258 . S
C373 O366 1.266 . S
Co374 O377 1.970 . S
Co374 N391 1.989 . S
Co374 O399 1.967 . S
Co374 O406 1.920 . S
Co375 O378 1.966 . S
Co375 N384 2.022 . S
Co375 N392 1.993 . S
Co375 O400 1.941 . S
C376 O377 1.258 . S
C376 O378 1.263 . S
O377 Co374 1.970 . S
O377 C376 1.258 . S
O378 Co375 1.966 . S
O378 C376 1.263 . S
C379 O380 1.235 . S
C379 O406 1.289 . S
O380 C379 1.235 . S
C381 C383 1.400 . S
C381 N384 1.351 . S
C381 C386 1.501 . S
C382 C383 1.387 . S
C382 N385 1.341 . S
C383 C381 1.400 . S
C383 C382 1.387 . S
N384 Co375 2.022 . S
N384 C381 1.351 . S
N384 N385 1.365 . S
N385 C382 1.341 . S
N385 N384 1.365 . S
N385 H405 0.862 . S
C386 C381 1.501 . S
C386 H387 0.961 . S
C386 H388 0.961 . S
C386 H389 0.960 . S
H387 C386 0.961 . S
H388 C386 0.961 . S
H389 C386 0.960 . S
C390 N391 1.342 . S
C390 C394 1.401 . S
C390 C395 1.499 . S
N391 Co374 1.989 . S
N391 C390 1.342 . S
N391 N392 1.388 . S
N392 Co375 1.993 . S
N392 N391 1.388 . S
N392 C393 1.346 . S
C393 N392 1.346 . S
C393 C394 1.396 . S
C393 C403 1.510 . S
C394 C390 1.401 . S
C394 C393 1.396 . S
C395 C390 1.499 . S
C395 H396 0.959 . S
C395 H397 0.960 . S
C395 H398 0.961 . S
H396 C395 0.959 . S
H397 C395 0.960 . S
H398 C395 0.961 . S
O399 Co374 1.967 . S
O399 C407 1.258 . S
O400 Co375 1.941 . S
O400 C407 1.266 . S
H401 C403 0.959 . S
H402 C403 0.961 . S
C403 C393 1.510 . S
C403 H401 0.959 . S
C403 H402 0.961 . S
C403 H404 0.960 . S
H404 C403 0.960 . S
H405 N385 0.862 . S
O406 Co374 1.920 . S
O406 C379 1.289 . S
C407 O399 1.258 . S
C407 O400 1.266 . S
Co408 O411 1.970 . S
Co408 N425 1.989 1_556 S
Co408 O433 1.967 . S
Co408 O440 1.920 . S
Co409 O412 1.966 . S
Co409 N418 2.022 . S
Co409 N426 1.993 . S
Co409 O434 1.941 1_554 S
C410 O411 1.258 . S
C410 O412 1.263 1_556 S
O411 Co408 1.970 . S
O411 C410 1.258 . S
O412 Co409 1.966 . S
O412 C410 1.263 1_554 S
C413 O414 1.235 . S
C413 O440 1.289 . S
O414 C413 1.235 . S
C415 C417 1.400 . S
C415 N418 1.351 . S
C415 C420 1.501 . S
C416 C417 1.387 . S
C416 N419 1.341 . S
C417 C415 1.400 . S
C417 C416 1.387 . S
N418 Co409 2.022 . S
N418 C415 1.351 . S
N418 N419 1.365 . S
N419 C416 1.341 . S
N419 N418 1.365 . S
N419 H439 0.862 . S
C420 C415 1.501 . S
C420 H421 0.961 . S
C420 H422 0.961 . S
C420 H423 0.960 . S
H421 C420 0.961 . S
H422 C420 0.961 . S
H423 C420 0.960 . S
C424 N425 1.342 . S
C424 C428 1.401 . S
C424 C429 1.499 1_554 S
N425 Co408 1.989 1_554 S
N425 C424 1.342 . S
N425 N426 1.388 . S
N426 Co409 1.993 . S
N426 N425 1.388 . S
N426 C427 1.346 . S
C427 N426 1.346 . S
C427 C428 1.396 . S
C427 C437 1.510 . S
C428 C424 1.401 . S
C428 C427 1.396 . S
C429 C424 1.499 1_556 S
C429 H430 0.959 . S
C429 H431 0.960 1_556 S
C429 H432 0.961 . S
H430 C429 0.959 . S
H431 C429 0.960 1_554 S
H432 C429 0.961 . S
O433 Co408 1.967 . S
O433 C441 1.258 . S
O434 Co409 1.941 1_556 S
O434 C441 1.266 . S
H435 C437 0.959 . S
H436 C437 0.961 . S
C437 C427 1.510 . S
C437 H435 0.959 . S
C437 H436 0.961 . S
C437 H438 0.960 . S
H438 C437 0.960 . S
H439 N419 0.862 . S
O440 Co408 1.920 . S
O440 C413 1.289 . S
C441 O433 1.258 . S
C441 O434 1.266 . S
Co442 O445 1.970 . S
Co442 N459 1.989 1_556 S
Co442 O467 1.967 . S
Co442 O474 1.920 . S
Co443 O446 1.966 . S
Co443 N452 2.022 . S
Co443 N460 1.993 . S
Co443 O468 1.941 1_554 S
C444 O445 1.258 . S
C444 O446 1.263 1_556 S
O445 Co442 1.970 . S
O445 C444 1.258 . S
O446 Co443 1.966 . S
O446 C444 1.263 1_554 S
C447 O448 1.235 . S
C447 O474 1.289 . S
O448 C447 1.235 . S
C449 C451 1.400 . S
C449 N452 1.351 . S
C449 C454 1.501 . S
C450 C451 1.387 . S
C450 N453 1.341 . S
C451 C449 1.400 . S
C451 C450 1.387 . S
N452 Co443 2.022 . S
N452 C449 1.351 . S
N452 N453 1.365 . S
N453 C450 1.341 . S
N453 N452 1.365 . S
N453 H473 0.862 . S
C454 C449 1.501 . S
C454 H455 0.961 . S
C454 H456 0.961 . S
C454 H457 0.960 . S
H455 C454 0.961 . S
H456 C454 0.961 . S
H457 C454 0.960 . S
C458 N459 1.342 . S
C458 C462 1.401 . S
C458 C463 1.499 1_554 S
N459 Co442 1.989 1_554 S
N459 C458 1.342 . S
N459 N460 1.388 . S
N460 Co443 1.993 . S
N460 N459 1.388 . S
N460 C461 1.346 . S
C461 N460 1.346 . S
C461 C462 1.396 . S
C461 C471 1.510 . S
C462 C458 1.401 . S
C462 C461 1.396 . S
C463 C458 1.499 1_556 S
C463 H464 0.959 . S
C463 H465 0.960 1_556 S
C463 H466 0.961 . S
H464 C463 0.959 . S
H465 C463 0.960 1_554 S
H466 C463 0.961 . S
O467 Co442 1.967 . S
O467 C475 1.258 . S
O468 Co443 1.941 1_556 S
O468 C475 1.266 . S
H469 C471 0.959 . S
H470 C471 0.961 . S
C471 C461 1.510 . S
C471 H469 0.959 . S
C471 H470 0.961 . S
C471 H472 0.960 . S
H472 C471 0.960 . S
H473 N453 0.862 . S
O474 Co442 1.920 . S
O474 C447 1.289 . S
C475 O467 1.258 . S
C475 O468 1.266 . S
Co476 O479 1.970 . S
Co476 N493 1.989 . S
Co476 O501 1.967 . S
Co476 O508 1.920 . S
Co477 O480 1.966 . S
Co477 N486 2.022 1_545 S
Co477 N494 1.993 . S
Co477 O502 1.941 . S
C478 O479 1.258 . S
C478 O480 1.263 . S
O479 Co476 1.970 . S
O479 C478 1.258 . S
O480 Co477 1.966 . S
O480 C478 1.263 . S
C481 O482 1.235 . S
C481 O508 1.289 . S
O482 C481 1.235 . S
C483 C485 1.400 . S
C483 N486 1.351 . S
C483 C488 1.501 . S
C484 C485 1.387 . S
C484 N487 1.341 . S
C485 C483 1.400 . S
C485 C484 1.387 . S
N486 Co477 2.022 1_565 S
N486 C483 1.351 . S
N486 N487 1.365 . S
N487 C484 1.341 . S
N487 N486 1.365 . S
N487 H507 0.862 1_565 S
C488 C483 1.501 . S
C488 H489 0.961 . S
C488 H490 0.961 . S
C488 H491 0.960 . S
H489 C488 0.961 . S
H490 C488 0.961 . S
H491 C488 0.960 . S
C492 N493 1.342 . S
C492 C496 1.401 . S
C492 C497 1.499 . S
N493 Co476 1.989 . S
N493 C492 1.342 . S
N493 N494 1.388 . S
N494 Co477 1.993 . S
N494 N493 1.388 . S
N494 C495 1.346 . S
C495 N494 1.346 . S
C495 C496 1.396 . S
C495 C505 1.510 . S
C496 C492 1.401 . S
C496 C495 1.396 . S
C497 C492 1.499 . S
C497 H498 0.959 . S
C497 H499 0.960 . S
C497 H500 0.961 . S
H498 C497 0.959 . S
H499 C497 0.960 . S
H500 C497 0.961 . S
O501 Co476 1.967 . S
O501 C509 1.258 . S
O502 Co477 1.941 . S
O502 C509 1.266 . S
H503 C505 0.959 . S
H504 C505 0.961 . S
C505 C495 1.510 . S
C505 H503 0.959 . S
C505 H504 0.961 . S
C505 H506 0.960 . S
H506 C505 0.960 . S
H507 N487 0.862 1_545 S
O508 Co476 1.920 . S
O508 C481 1.289 . S
C509 O501 1.258 . S
C509 O502 1.266 . S
Co510 O513 1.970 . S
Co510 N527 1.989 . S
Co510 O535 1.967 . S
Co510 O542 1.920 . S
Co511 O514 1.966 . S
Co511 N520 2.022 1_565 S
Co511 N528 1.993 . S
Co511 O536 1.941 . S
C512 O513 1.258 . S
C512 O514 1.263 . S
O513 Co510 1.970 . S
O513 C512 1.258 . S
O514 Co511 1.966 . S
O514 C512 1.263 . S
C515 O516 1.235 . S
C515 O542 1.289 . S
O516 C515 1.235 . S
C517 C519 1.400 . S
C517 N520 1.351 . S
C517 C522 1.501 . S
C518 C519 1.387 . S
C518 N521 1.341 . S
C519 C517 1.400 . S
C519 C518 1.387 . S
N520 Co511 2.022 1_545 S
N520 C517 1.351 . S
N520 N521 1.365 . S
N521 C518 1.341 . S
N521 N520 1.365 . S
N521 H541 0.862 1_545 S
C522 C517 1.501 . S
C522 H523 0.961 . S
C522 H524 0.961 . S
C522 H525 0.960 . S
H523 C522 0.961 . S
H524 C522 0.961 . S
H525 C522 0.960 . S
C526 N527 1.342 . S
C526 C530 1.401 . S
C526 C531 1.499 . S
N527 Co510 1.989 . S
N527 C526 1.342 . S
N527 N528 1.388 . S
N528 Co511 1.993 . S
N528 N527 1.388 . S
N528 C529 1.346 . S
C529 N528 1.346 . S
C529 C530 1.396 . S
C529 C539 1.510 . S
C530 C526 1.401 . S
C530 C529 1.396 . S
C531 C526 1.499 . S
C531 H532 0.959 . S
C531 H533 0.960 . S
C531 H534 0.961 . S
H532 C531 0.959 . S
H533 C531 0.960 . S
H534 C531 0.961 . S
O535 Co510 1.967 . S
O535 C543 1.258 . S
O536 Co511 1.941 . S
O536 C543 1.266 . S
H537 C539 0.959 . S
H538 C539 0.961 . S
C539 C529 1.510 . S
C539 H537 0.959 . S
C539 H538 0.961 . S
C539 H540 0.960 . S
H540 C539 0.960 . S
H541 N521 0.862 1_565 S
O542 Co510 1.920 . S
O542 C515 1.289 . S
C543 O535 1.258 . S
C543 O536 1.266 . S
C5 C394 1.372 . S
C39 C360 1.372 . S
C54 C73 1.372 1_655 S
C20 C107 1.372 1_455 S
C141 C530 1.372 . S
C175 C496 1.372 . S
C190 C209 1.372 1_655 S
C243 C156 1.372 1_655 S
C122 C277 1.372 . S
C88 C311 1.372 . S
C326 C345 1.372 . S
C292 C379 1.372 . S
C413 C258 1.372 . S
C447 C224 1.372 . S
C481 C462 1.372 . S
C428 C515 1.372 . S
C203 C9 1.779 . S
C169 C43 1.779 . S
C77 C407 1.779 . S
C373 C111 1.779 . S
C67 C145 1.779 . S
C33 C179 1.779 . S
C213 C543 1.779 1_556 S
C247 C509 1.779 1_556 S
C281 C475 1.779 . S
C441 C315 1.779 . S
C135 C349 1.779 1_554 S
C101 C383 1.779 1_554 S
C339 C417 1.779 . S
C305 C451 1.779 . S
C271 C485 1.779 . S
C237 C519 1.779 . S
C444 C2 2.026 . S
C36 C410 2.026 . S
C70 C104 2.027 1_455 S
C308 C138 2.026 . S
C172 C274 2.026 . S
C206 C240 2.026 1_445 S
C376 C342 2.026 . S
C512 C478 2.026 1_565 S
