# Generated by pormake.
# Topology whw, (6)-cn, num edge types: 1
# Building blocks:
#     Node 0, Type 0, BuildingBlock: PAMTUU_clean_sbu_0, # of connection points: 6
#     Node 1, Type 0, BuildingBlock: PAMTUU_clean_sbu_0, # of connection points: 6
#     Node 2, Type 0, BuildingBlock: PAMTUU_clean_sbu_0, # of connection points: 6
#     Node 3, Type 0, BuildingBlock: PAMTUU_clean_sbu_0, # of connection points: 6
#     Node 4, Type 0, BuildingBlock: PAMTUU_clean_sbu_0, # of connection points: 6
#     Node 5, Type 0, BuildingBlock: PAMTUU_clean_sbu_0, # of connection points: 6
#     Node 6, Type 0, BuildingBlock: PAMTUU_clean_sbu_0, # of connection points: 6
#     Node 7, Type 0, BuildingBlock: PAMTUU_clean_sbu_0, # of connection points: 6
#     Node 8, Type 0, BuildingBlock: PAMTUU_clean_sbu_0, # of connection points: 6
#     Node 9, Type 0, BuildingBlock: PAMTUU_clean_sbu_0, # of connection points: 6
#     Node 10, Type 0, BuildingBlock: PAMTUU_clean_sbu_0, # of connection points: 6
#     Node 11, Type 0, BuildingBlock: PAMTUU_clean_sbu_0, # of connection points: 6
#     Node 12, Type 0, BuildingBlock: PAMTUU_clean_sbu_0, # of connection points: 6
#     Node 13, Type 0, BuildingBlock: PAMTUU_clean_sbu_0, # of connection points: 6
#     Node 14, Type 0, BuildingBlock: PAMTUU_clean_sbu_0, # of connection points: 6
#     Node 15, Type 0, BuildingBlock: PAMTUU_clean_sbu_0, # of connection points: 6
#     Edge 16, Type (0, 0), BuildingBlock: KIFKEQ_clean_linker_1, # of connection points: 2
#     Edge 17, Type (0, 0), BuildingBlock: KIFKEQ_clean_linker_1, # of connection points: 2
#     Edge 18, Type (0, 0), BuildingBlock: KIFKEQ_clean_linker_1, # of connection points: 2
#     Edge 19, Type (0, 0), BuildingBlock: KIFKEQ_clean_linker_1, # of connection points: 2
#     Edge 20, Type (0, 0), BuildingBlock: KIFKEQ_clean_linker_1, # of connection points: 2
#     Edge 21, Type (0, 0), BuildingBlock: KIFKEQ_clean_linker_1, # of connection points: 2
#     Edge 22, Type (0, 0), BuildingBlock: KIFKEQ_clean_linker_1, # of connection points: 2
#     Edge 23, Type (0, 0), BuildingBlock: KIFKEQ_clean_linker_1, # of connection points: 2
#     Edge 24, Type (0, 0), BuildingBlock: KIFKEQ_clean_linker_1, # of connection points: 2
#     Edge 25, Type (0, 0), BuildingBlock: KIFKEQ_clean_linker_1, # of connection points: 2
#     Edge 26, Type (0, 0), BuildingBlock: KIFKEQ_clean_linker_1, # of connection points: 2
#     Edge 27, Type (0, 0), BuildingBlock: KIFKEQ_clean_linker_1, # of connection points: 2
#     Edge 28, Type (0, 0), BuildingBlock: KIFKEQ_clean_linker_1, # of connection points: 2
#     Edge 29, Type (0, 0), BuildingBlock: KIFKEQ_clean_linker_1, # of connection points: 2
#     Edge 30, Type (0, 0), BuildingBlock: KIFKEQ_clean_linker_1, # of connection points: 2
#     Edge 31, Type (0, 0), BuildingBlock: KIFKEQ_clean_linker_1, # of connection points: 2
#     Edge 32, Type (0, 0), BuildingBlock: KIFKEQ_clean_linker_1, # of connection points: 2
#     Edge 33, Type (0, 0), BuildingBlock: KIFKEQ_clean_linker_1, # of connection points: 2
#     Edge 34, Type (0, 0), BuildingBlock: KIFKEQ_clean_linker_1, # of connection points: 2
#     Edge 35, Type (0, 0), BuildingBlock: KIFKEQ_clean_linker_1, # of connection points: 2
#     Edge 36, Type (0, 0), BuildingBlock: KIFKEQ_clean_linker_1, # of connection points: 2
#     Edge 37, Type (0, 0), BuildingBlock: KIFKEQ_clean_linker_1, # of connection points: 2
#     Edge 38, Type (0, 0), BuildingBlock: KIFKEQ_clean_linker_1, # of connection points: 2
#     Edge 39, Type (0, 0), BuildingBlock: KIFKEQ_clean_linker_1, # of connection points: 2
#     Edge 40, Type (0, 0), BuildingBlock: KIFKEQ_clean_linker_1, # of connection points: 2
#     Edge 41, Type (0, 0), BuildingBlock: KIFKEQ_clean_linker_1, # of connection points: 2
#     Edge 42, Type (0, 0), BuildingBlock: KIFKEQ_clean_linker_1, # of connection points: 2
#     Edge 43, Type (0, 0), BuildingBlock: KIFKEQ_clean_linker_1, # of connection points: 2
#     Edge 44, Type (0, 0), BuildingBlock: KIFKEQ_clean_linker_1, # of connection points: 2
#     Edge 45, Type (0, 0), BuildingBlock: KIFKEQ_clean_linker_1, # of connection points: 2
#     Edge 46, Type (0, 0), BuildingBlock: KIFKEQ_clean_linker_1, # of connection points: 2
#     Edge 47, Type (0, 0), BuildingBlock: KIFKEQ_clean_linker_1, # of connection points: 2
#     Edge 48, Type (0, 0), BuildingBlock: KIFKEQ_clean_linker_1, # of connection points: 2
#     Edge 49, Type (0, 0), BuildingBlock: KIFKEQ_clean_linker_1, # of connection points: 2
#     Edge 50, Type (0, 0), BuildingBlock: KIFKEQ_clean_linker_1, # of connection points: 2
#     Edge 51, Type (0, 0), BuildingBlock: KIFKEQ_clean_linker_1, # of connection points: 2
#     Edge 52, Type (0, 0), BuildingBlock: KIFKEQ_clean_linker_1, # of connection points: 2
#     Edge 53, Type (0, 0), BuildingBlock: KIFKEQ_clean_linker_1, # of connection points: 2
#     Edge 54, Type (0, 0), BuildingBlock: KIFKEQ_clean_linker_1, # of connection points: 2
#     Edge 55, Type (0, 0), BuildingBlock: KIFKEQ_clean_linker_1, # of connection points: 2
#     Edge 56, Type (0, 0), BuildingBlock: KIFKEQ_clean_linker_1, # of connection points: 2
#     Edge 57, Type (0, 0), BuildingBlock: KIFKEQ_clean_linker_1, # of connection points: 2
#     Edge 58, Type (0, 0), BuildingBlock: KIFKEQ_clean_linker_1, # of connection points: 2
#     Edge 59, Type (0, 0), BuildingBlock: KIFKEQ_clean_linker_1, # of connection points: 2
#     Edge 60, Type (0, 0), BuildingBlock: KIFKEQ_clean_linker_1, # of connection points: 2
#     Edge 61, Type (0, 0), BuildingBlock: KIFKEQ_clean_linker_1, # of connection points: 2
#     Edge 62, Type (0, 0), BuildingBlock: KIFKEQ_clean_linker_1, # of connection points: 2
#     Edge 63, Type (0, 0), BuildingBlock: KIFKEQ_clean_linker_1, # of connection points: 2
# Relax obj value: 0.454
# Max RMSD: 0.230
# Mean RMSD: 0.218
data_MOF--net-whw--node1-PAMTUU_clean_sbu_0--edge1-KIFKEQ_clean_linker_1
_symmetry_space_group_name_H-M    P1
_symmetry_Int_Tables_number       1
_symmetry_cell_setting            triclinic
loop_
_symmetry_equiv_pos_as_xyz
'x, y, z'
_cell_length_a     47.997166
_cell_length_b     48.087107
_cell_length_c     33.873295
_cell_angle_alpha  83.878587
_cell_angle_beta   84.108749
_cell_angle_gamma 88.867917
loop_
_atom_site_label
_atom_site_type_symbol
_atom_site_fract_x
_atom_site_fract_y
_atom_site_fract_z
_atom_type_partial_charge
Tb0 Tb 0.96245 0.14873 0.16938 0.0
Tb1 Tb 0.02128 0.12407 0.1973 0.0
C2 C 0.00299 0.18335 0.21486 0.0
C3 C 0.90109 0.15351 0.11656 0.0
C4 C 0.88092 0.13107 0.05235 0.0
C5 C 0.8778 0.15981 0.05623 0.0
C6 C 0.88799 0.17102 0.08822 0.0
C7 C 0.90248 0.12453 0.11396 0.0
C8 C 0.89252 0.11341 0.08203 0.0
C9 C 0.9167 0.16546 0.14543 0.0
O10 O 0.98983 0.14672 0.11444 0.0
O11 O 0.0312 0.15115 0.14051 0.0
O12 O 0.00743 0.09333 0.16247 0.0
O13 O 0.96074 0.10362 0.16372 0.0
O14 O 0.06483 0.12736 0.19377 0.0
O15 O 0.04354 0.09063 0.22458 0.0
O16 O 0.99272 0.12234 0.25446 0.0
O17 O 0.95418 0.14636 0.23319 0.0
O18 O 0.98553 0.1841 0.18689 0.0
O19 O 0.01602 0.16056 0.22686 0.0
C20 C 0.01639 0.1534 0.10954 0.0
O21 O 0.91871 0.14936 0.17851 0.0
O22 O 0.94073 0.17643 0.13081 0.0
C23 C 0.98215 0.08677 0.15653 0.0
C24 C 0.08211 0.10657 0.25236 0.0
C25 C 0.10603 0.10946 0.32373 0.0
C26 C 0.10483 0.08377 0.30784 0.0
C27 C 0.093 0.08237 0.27222 0.0
C28 C 0.0838 0.13235 0.26784 0.0
C29 C 0.09576 0.13379 0.30322 0.0
C30 C 0.06708 0.10433 0.21746 0.0
C31 C 0.96802 0.13488 0.26208 0.0
H32 H 0.86918 0.17381 1.03325 0.0
H33 H 0.88698 0.19342 0.08969 0.0
H34 H 0.91245 0.11055 0.13554 0.0
H35 H 0.89504 0.0912 0.07954 0.0
H36 H 0.11262 0.06477 0.32331 0.0
H37 H 0.09165 0.0623 0.26073 0.0
H38 H 0.07527 0.15127 0.25322 0.0
H39 H 0.09596 0.15374 0.31534 0.0
Tb40 Tb 0.10105 0.70208 0.38402 0.0
Tb41 Tb 0.13418 0.75563 0.40501 0.0
C42 C 0.07137 0.75347 0.42231 0.0
C43 C 0.09069 0.63835 0.3415 0.0
C44 C 0.10963 0.61463 0.27171 0.0
C45 C 0.08082 0.61555 0.28427 0.0
C46 C 0.07138 0.62747 0.31906 0.0
C47 C 0.11956 0.6356 0.33026 0.0
C48 C 0.12894 0.62382 0.29564 0.0
C49 C 0.08108 0.65626 0.37252 0.0
O50 O 0.09717 0.7285 0.32975 0.0
O51 O 0.11535 0.7689 0.34772 0.0
O52 O 0.16739 0.73332 0.37452 0.0
O53 O 0.143 0.69914 0.35111 0.0
O54 O 0.13658 0.79934 0.39837 0.0
O55 O 0.16715 0.774 0.42885 0.0
O56 O 0.12907 0.72882 0.46357 0.0
O57 O 0.09811 0.69688 0.44855 0.0
O58 O 0.06975 0.73458 0.39719 0.0
O59 O 0.09426 0.75732 0.43807 0.0
C60 C 0.10222 0.75534 0.32284 0.0
O61 O 0.0988 0.6588 0.39865 0.0
O62 O 0.07051 0.68034 0.35962 0.0
C63 C 0.16612 0.71336 0.35162 0.0
C64 C 0.15044 0.81398 0.45719 0.0
C65 C 0.13853 0.8325 0.53273 0.0
C66 C 0.16644 0.82972 0.51648 0.0
C67 C 0.17235 0.82046 0.47885 0.0
C68 C 0.12256 0.81821 0.47262 0.0
C69 C 0.11667 0.82748 0.51004 0.0
C70 C 0.1565 0.79899 0.42187 0.0
C71 C 0.11167 0.70763 0.47472 0.0
H72 H 0.06559 0.60884 0.26585 0.0
H73 H 0.04908 0.62969 0.32714 0.0
H74 H 0.13497 0.64392 0.34696 0.0
H75 H 0.15123 0.62321 0.28646 0.0
H76 H 0.18363 0.83326 0.53365 0.0
H77 H 0.19395 0.81699 0.46755 0.0
H78 H 0.10523 0.81322 0.4566 0.0
H79 H 0.09498 0.82985 0.52178 0.0
Tb80 Tb 0.53392 0.87837 0.68325 0.0
Tb81 Tb 0.50673 0.85652 0.59652 0.0
C82 C 0.52752 0.92043 0.60468 0.0
C83 C 0.55219 0.86425 0.7946 0.0
C84 C 0.56738 0.84185 0.87277 0.0
C85 C 0.58399 0.86205 0.84786 0.0
C86 C 0.57658 0.87294 0.80968 0.0
C87 C 0.53567 0.84404 0.81944 0.0
C88 C 0.54328 0.83278 0.85725 0.0
C89 C 0.54169 0.87926 0.75686 0.0
O90 O 0.49242 0.89481 0.67461 0.0
O91 O 0.47175 0.86298 0.64097 0.0
O92 O 0.49615 0.82535 0.64657 0.0
O93 O 0.53565 0.8358 0.6701 0.0
O94 O 0.48161 0.86462 0.5484 0.0
O95 O 0.50666 0.82616 0.55541 0.0
O96 O 0.55292 0.85517 0.59046 0.0
O97 O 0.57125 0.87406 0.64407 0.0
O98 O 0.5349 0.91706 0.64192 0.0
O99 O 0.51634 0.90092 0.58642 0.0
C100 C 0.47067 0.88029 0.66871 0.0
O101 O 0.51946 0.86938 0.74393 0.0
O102 O 0.55915 0.8902 0.72706 0.0
C103 C 0.51273 0.82167 0.67482 0.0
C104 C 0.47878 0.83176 0.49707 0.0
C105 C 0.46042 0.81426 0.42499 0.0
C106 C 0.47315 0.79533 0.45285 0.0
C107 C 0.48232 0.80395 0.4879 0.0
C108 C 0.46558 0.85064 0.46998 0.0
C109 C 0.45675 0.84214 0.43458 0.0
C110 C 0.48921 0.84102 0.53418 0.0
C111 C 0.57364 0.86418 0.60907 0.0
H112 H 0.60282 0.86969 0.85791 0.0
H113 H 0.58963 0.88891 0.79239 0.0
H114 H 0.51603 0.8376 0.81039 0.0
H115 H 0.52944 0.81776 0.87507 0.0
H116 H 0.47594 0.77353 0.44804 0.0
H117 H 0.49213 0.78864 0.50802 0.0
H118 H 0.46247 0.87226 0.47577 0.0
H119 H 0.44753 0.85781 0.41441 0.0
Tb120 Tb 0.37294 0.25886 0.98651 0.0
Tb121 Tb 0.38805 0.22914 0.89329 0.0
C122 C 0.32733 0.24218 0.93213 0.0
C123 C 0.38833 0.28471 0.08921 0.0
C124 C 0.4101 0.29699 0.16261 0.0
C125 C 0.41091 0.31676 0.12839 0.0
C126 C 0.40043 0.31072 0.09274 0.0
C127 C 0.38763 0.26467 0.12294 0.0
C128 C 0.39848 0.27058 0.15867 0.0
C129 C 0.37368 0.2809 0.05232 0.0
O130 O 0.365 0.21452 0.99628 0.0
O131 O 0.39346 0.19785 0.94375 0.0
O132 O 0.42073 0.25782 0.90043 0.0
O133 O 0.41425 0.24574 0.96628 0.0
O134 O 0.37542 0.21841 0.8387 0.0
O135 O 0.41612 0.20594 0.85682 0.0
O136 O 0.37392 0.27195 0.87935 0.0
O137 O 0.37142 0.29311 0.93937 0.0
O138 O 0.33345 0.2591 0.95865 0.0
O139 O 0.34486 0.22288 0.91895 0.0
C140 C 0.37798 0.1941 0.97849 0.0
O141 O 0.3854 0.29149 1.01769 0.0
O142 O 0.36033 0.2579 0.04899 0.0
C143 C 0.42698 0.26119 0.9362 0.0
C144 C 0.41036 0.20504 0.78604 0.0
C145 C 0.43005 0.19445 0.70543 0.0
C146 C 0.44844 0.1938 0.73562 0.0
C147 C 0.43877 0.1988 0.7751 0.0
C148 C 0.39209 0.20636 0.75583 0.0
C149 C 0.4017 0.20123 0.71641 0.0
C150 C 0.39894 0.20534 0.82933 0.0
C151 C 0.37006 0.29361 0.90054 0.0
H152 H 0.41884 0.33756 0.1291 0.0
H153 H 0.40099 0.32705 0.06802 0.0
H154 H 0.37829 0.24447 0.12203 0.0
H155 H 0.39756 0.25421 0.18324 0.0
H156 H 0.47048 0.18922 0.72901 0.0
H157 H 0.45355 0.197 0.79735 0.0
H158 H 0.36996 0.21036 0.76298 0.0
H159 H 0.38646 0.2016 0.69493 0.0
Tb160 Tb 0.96091 0.85173 1.02106 0.0
Tb161 Tb 0.02431 0.86111 0.97976 0.0
C162 C -0.0054 0.80323 0.98167 0.0
C163 C 0.9004 0.86535 0.08975 0.0
C164 C 0.8828 0.89134 0.15863 0.0
C165 C 0.86955 0.86693 0.15043 0.0
C166 C 0.87826 0.85411 0.11615 0.0
C167 C 0.91271 0.89039 0.09659 0.0
C168 C 0.90372 0.90353 0.13039 0.0
C169 C 0.91247 0.84982 0.05723 0.0
O170 O 0.98801 0.84245 0.07052 0.0
O171 O 0.03309 0.84588 1.03962 0.0
O172 O 0.01456 0.89591 1.01511 0.0
O173 O 0.96767 0.89659 1.01265 0.0
O174 O 0.06639 0.8499 0.96713 0.0
O175 O 0.0503 0.88999 0.9435 0.0
O176 O -0.00104 0.86073 0.92818 0.0
O177 O 0.95519 0.84813 0.95818 0.0
O178 O 0.97048 0.81279 0.99668 0.0
O179 O 0.01818 0.81667 0.98107 0.0
C180 C 0.01552 0.8401 0.0716 0.0
O181 O 0.91906 0.86502 1.02351 0.0
O182 O 0.93244 0.83225 0.06635 0.0
C183 C 0.99042 0.90875 1.01972 0.0
C184 C 0.08143 0.86657 0.9015 0.0
C185 C 0.09592 0.86082 0.8208 0.0
C186 C 0.10982 0.88031 0.83973 0.0
C187 C 0.10254 0.88318 0.87999 0.0
C188 C 0.06804 0.84656 0.88299 0.0
C189 C 0.07533 0.84362 0.84291 0.0
C190 C 0.07106 0.87207 0.94178 0.0
C191 C 0.97286 0.85304 0.92575 0.0
H192 H 0.85385 0.85643 0.17179 0.0
H193 H 0.86873 0.83466 0.11139 0.0
H194 H 0.93016 0.89908 0.07673 0.0
H195 H 0.91427 0.92233 0.1355 0.0
H196 H 0.12558 0.89396 0.82312 0.0
H197 H 0.1127 0.89894 0.89396 0.0
H198 H 0.05142 0.83376 0.89924 0.0
H199 H 0.06459 0.82817 0.8291 0.0
Tb200 Tb 0.39299 0.69218 0.12051 0.0
Tb201 Tb 0.37642 0.75367 0.0819 0.0
C202 C 0.43802 0.73298 0.06718 0.0
C203 C 0.38985 0.62811 0.18745 0.0
C204 C 0.36967 0.60738 0.26496 0.0
C205 C 0.39616 0.59893 0.24828 0.0
C206 C 0.40616 0.60923 0.2096 0.0
C207 C 0.36274 0.63519 0.20295 0.0
C208 C 0.35258 0.62466 0.24137 0.0
C209 C 0.4026 0.64368 0.15129 0.0
O210 O 0.39527 0.71821 0.16937 0.0
O211 O 0.39584 0.7625 0.13565 0.0
O212 O 0.34498 0.7417 0.13141 0.0
O213 O 0.34727 0.69491 0.12972 0.0
O214 O 0.37984 0.79692 0.06654 0.0
O215 O 0.34294 0.77452 0.05621 0.0
O216 O 0.37891 0.72675 1.03144 0.0
O217 O 0.40104 0.68764 0.05802 0.0
O218 O 0.43208 0.71045 0.0922 0.0
O219 O 0.41961 0.75246 0.05836 0.0
C220 C 0.39932 0.74538 0.16814 0.0
O221 O 0.38615 0.64919 0.12305 0.0
O222 O 0.41657 0.66555 0.15744 0.0
C223 C 0.33401 0.71704 0.14158 0.0
C224 C 0.36014 0.80896 1.0069 0.0
C225 C 0.36612 0.82841 0.92549 0.0
C226 C 0.34744 0.84183 0.95235 0.0
C227 C 0.34445 0.83209 0.99292 0.0
C228 C 0.37867 0.7955 0.98026 0.0
C229 C 0.3817 0.80516 0.93995 0.0
C230 C 0.35685 0.79791 0.04886 0.0
C231 C 0.39298 0.70303 1.02713 0.0
H232 H 0.41005 0.58607 0.26598 0.0
H233 H 0.42726 0.60393 0.19801 0.0
H234 H 0.35004 0.65008 0.18626 0.0
H235 H 0.33203 0.63133 0.25338 0.0
H236 H 0.33512 0.85974 0.942 0.0
H237 H 0.32993 0.84252 1.01328 0.0
H238 H 0.39097 0.77759 0.99072 0.0
H239 H 0.39675 0.79476 0.9203 0.0
Tb240 Tb 0.55432 0.14074 0.3553 0.0
Tb241 Tb 0.49171 0.12361 0.33968 0.0
C242 C 0.51131 0.18453 0.31345 0.0
C243 C 0.61754 0.13907 0.4047 0.0
C244 C 0.6318 0.11812 0.48019 0.0
C245 C 0.63692 0.14628 0.46586 0.0
C246 C 0.62979 0.1567 0.4282 0.0
C247 C 0.61504 0.11036 0.41745 0.0
C248 C 0.62231 0.09994 0.45486 0.0
C249 C 0.60259 0.15129 0.3715 0.0
O250 O 0.52845 0.14518 0.41218 0.0
O251 O 0.4832 0.14381 0.39496 0.0
O252 O 0.50487 0.09515 0.38874 0.0
O253 O 0.55175 0.09587 0.37281 0.0
O254 O 0.44828 0.12488 0.33687 0.0
O255 O 0.47293 0.08769 0.32527 0.0
O256 O 0.51587 0.12806 0.27938 0.0
O257 O 0.56008 0.14019 0.29129 0.0
O258 O 0.53586 0.17828 0.32659 0.0
O259 O 0.49046 0.16695 0.3172 0.0
C260 C 0.50109 0.14819 0.42084 0.0
O261 O 0.59761 0.13422 0.34568 0.0
O262 O 0.58049 0.16609 0.38193 0.0
C263 C 0.52965 0.08457 0.39365 0.0
C264 C 0.43707 0.09936 0.28557 0.0
C265 C 0.42054 0.09396 0.2098 0.0
C266 C 0.41007 0.07562 0.24286 0.0
C267 C 0.41845 0.07824 0.28061 0.0
C268 C 0.44704 0.11802 0.25286 0.0
C269 C 0.43876 0.11544 0.21535 0.0
C270 C 0.44862 0.10031 0.32354 0.0
C271 C 0.54183 0.13591 0.26655 0.0
H272 H 0.64395 0.16079 0.48502 0.0
H273 H 0.63167 0.17891 0.41886 0.0
H274 H 0.60552 0.09629 0.39993 0.0
H275 H 0.61842 0.07811 0.46519 0.0
H276 H 0.39592 0.05899 0.23937 0.0
H277 H 0.41091 0.06348 0.30567 0.0
H278 H 0.46161 0.13434 0.2562 0.0
H279 H 0.44657 0.1304 0.1907 0.0
Tb280 Tb 0.10817 0.28314 0.75802 0.0
Tb281 Tb 0.11357 0.21951 0.73788 0.0
C282 C 0.05771 0.25374 0.72642 0.0
C283 C 0.12775 0.3416 0.80699 0.0
C284 C 0.15558 0.35714 0.86994 0.0
C285 C 0.13661 0.37574 0.8514 0.0
C286 C 0.12277 0.36797 0.82007 0.0
C287 C 0.14776 0.32362 0.8238 0.0
C288 C 0.16174 0.33139 0.85488 0.0
C289 C 0.11082 0.33169 0.77806 0.0
O290 O 0.10076 0.25715 0.81634 0.0
O291 O 0.0897 0.21492 0.79629 0.0
O292 O 0.14448 0.2268 0.77811 0.0
O293 O 0.15218 0.27119 0.75292 0.0
O294 O 0.10149 0.17796 0.7371 0.0
O295 O 0.14371 0.19159 0.7157 0.0
O296 O 0.11852 0.24473 0.6781 0.0
O297 O 0.10415 0.2884 0.69382 0.0
O298 O 0.06664 0.27517 0.74253 0.0
O299 O 0.0723 0.23063 0.72256 0.0
C300 C 0.09041 0.23161 0.8245 0.0
O301 O 0.12518 0.3233 0.7467 0.0
O302 O 0.0914 0.31394 0.79327 0.0
C303 C 0.16033 0.24875 0.77377 0.0
C304 C 0.12342 0.16037 0.67988 0.0
C305 C 0.12552 0.14471 0.60241 0.0
C306 C 0.14348 0.13189 0.62934 0.0
C307 C 0.14243 0.13972 0.66792 0.0
C308 C 0.10498 0.17271 0.65345 0.0
C309 C 0.10588 0.16478 0.61509 0.0
C310 C 0.12532 0.17169 0.71768 0.0
C311 C 0.11026 0.27069 0.66705 0.0
H312 H 0.13093 0.39547 0.86288 0.0
H313 H 0.10727 0.38196 0.8074 0.0
H314 H 0.15165 0.30306 0.81409 0.0
H315 H 0.1762 0.31666 0.86854 0.0
H316 H 0.15901 0.11659 0.62015 0.0
H317 H 0.1571 0.13044 0.6879 0.0
H318 H 0.09047 0.18907 0.66206 0.0
H319 H 0.09149 0.17469 0.59516 0.0
Tb320 Tb 0.89847 0.19211 0.61976 0.0
Tb321 Tb 0.8696 0.2495 0.5863 0.0
C322 C 0.93431 0.23796 0.5649 0.0
C323 C 0.90381 0.12996 0.6877 0.0
C324 C 0.8868 0.11185 0.76764 0.0
C325 C 0.91485 0.10853 0.75221 0.0
C326 C 0.92333 0.11762 0.71235 0.0
C327 C 0.87545 0.13161 0.70262 0.0
C328 C 0.86702 0.12254 0.74222 0.0
C329 C 0.91332 0.14462 0.64869 0.0
O330 O 0.91295 0.22265 0.6563 0.0
O331 O 0.87924 0.25674 0.64715 0.0
O332 O 0.83556 0.22289 0.61502 0.0
O333 O 0.86065 0.1983 0.66004 0.0
O334 O 0.86512 0.29323 0.58104 0.0
O335 O 0.83766 0.26745 0.55389 0.0
O336 O 0.88434 0.22901 0.53242 0.0
O337 O 0.88508 0.18447 0.56225 0.0
O338 O 0.93185 0.2113 0.57826 0.0
O339 O 0.91382 0.25613 0.57008 0.0
C340 C 0.90003 0.24559 0.66671 0.0
O341 O 0.89413 0.1487 0.62407 0.0
O342 O 0.92788 0.16713 0.64966 0.0
C343 C 0.83663 0.20863 0.64993 0.0
C344 C 0.8545 0.30772 0.51573 0.0
C345 C 0.86831 0.32754 0.43532 0.0
C346 C 0.84036 0.32815 0.45221 0.0
C347 C 0.83351 0.31834 0.4923 0.0
C348 C 0.88251 0.30763 0.49898 0.0
C349 C 0.88936 0.31761 0.45917 0.0
C350 C 0.84687 0.29263 0.5551 0.0
C351 C 0.88781 0.20202 0.52977 0.0
H352 H 0.93051 0.10066 0.77153 0.0
H353 H 0.9453 0.11647 0.70141 0.0
H354 H 0.85991 0.14121 0.68434 0.0
H355 H 0.84527 0.12518 0.7535 0.0
H356 H 0.82385 0.33585 0.43428 0.0
H357 H 0.81176 0.31806 0.50459 0.0
H358 H 0.899 0.29889 0.51619 0.0
H359 H 0.91101 0.31656 0.44662 0.0
Tb360 Tb 0.60685 0.78563 0.25316 0.0
Tb361 Tb 0.61461 0.72099 0.23218 0.0
C362 C 0.5592 0.75246 0.22334 0.0
C363 C 0.62368 0.84206 0.30534 0.0
C364 C 0.65377 0.85381 0.36818 0.0
C365 C 0.63434 0.87344 0.35277 0.0
C366 C 0.61943 0.86761 0.32126 0.0
C367 C 0.64379 0.82311 0.31964 0.0
C368 C 0.65917 0.82916 0.35004 0.0
C369 C 0.60687 0.83373 0.27513 0.0
O370 O 0.59627 0.75961 0.31062 0.0
O371 O 0.59836 0.71403 0.29455 0.0
O372 O 0.64712 0.72868 0.26918 0.0
O373 O 0.65136 0.77509 0.25101 0.0
O374 O 0.59983 0.68144 0.22429 0.0
O375 O 0.64409 0.69068 0.21552 0.0
O376 O 0.61814 0.74666 0.17282 0.0
O377 O 0.60536 0.79093 0.18844 0.0
O378 O 0.56898 0.7772 0.22708 0.0
O379 O 0.5704 0.72992 0.24029 0.0
C380 C 0.59302 0.73238 0.32054 0.0
O381 O 0.62176 0.82664 0.24332 0.0
O382 O 0.58756 0.81533 0.2885 0.0
C383 C 0.66091 0.75181 0.26842 0.0
C384 C 0.62709 0.66122 0.17384 0.0
C385 C 0.63363 0.64032 0.09961 0.0
C386 C 0.63924 0.62309 0.1341 0.0
C387 C 0.63602 0.63357 0.17115 0.0
C388 C 0.62132 0.67836 0.13956 0.0
C389 C 0.62448 0.66799 0.10268 0.0
C390 C 0.62476 0.67267 0.21202 0.0
C391 C 0.6112 0.77302 0.16181 0.0
H392 H 0.62929 0.89241 0.36668 0.0
H393 H 0.60386 0.88239 0.31059 0.0
H394 H 0.64681 0.80302 0.30841 0.0
H395 H 0.67401 0.81369 0.36105 0.0
H396 H 0.64634 0.60169 0.13231 0.0
H397 H 0.64067 0.62022 0.19754 0.0
H398 H 0.61445 0.69977 0.14134 0.0
H399 H 0.61943 0.68152 0.07666 0.0
Tb400 Tb 0.60278 0.20413 0.88917 0.0
Tb401 Tb 0.63532 0.25854 0.90885 0.0
C402 C 0.57248 0.25578 0.9264 0.0
C403 C 0.58662 0.14326 0.84306 0.0
C404 C 0.59755 0.11964 0.77106 0.0
C405 C 0.57058 0.11809 0.79179 0.0
C406 C 0.56512 0.12997 0.82763 0.0
C407 C 0.61386 0.14344 0.82347 0.0
C408 C 0.61927 0.1318 0.78775 0.0
C409 C 0.5804 0.15967 0.87675 0.0
O410 O 0.60611 0.22881 0.83149 0.0
O411 O 0.61492 0.27111 0.85337 0.0
O412 O 0.66866 0.23406 0.88083 0.0
O413 O 0.64387 0.20132 0.85494 0.0
O414 O 0.63838 0.30219 0.90044 0.0
O415 O 0.66882 0.27681 0.9314 0.0
O416 O 0.62577 0.23585 0.96926 0.0
O417 O 0.60716 0.19551 0.95286 0.0
O418 O 0.5714 0.23654 0.90172 0.0
O419 O 0.59529 0.26046 0.94196 0.0
C420 C 0.60711 0.25621 0.82573 0.0
O421 O 0.60075 0.16056 0.8993 0.0
O422 O 0.56944 0.18434 0.86805 0.0
C423 C 0.66722 0.21473 0.85674 0.0
C424 C 0.65405 0.31818 0.95737 0.0
C425 C 0.64579 0.34134 1.03005 0.0
C426 C 0.67298 0.33811 1.01144 0.0
C427 C 0.67707 0.32665 0.97519 0.0
C428 C 0.62677 0.32218 0.97541 0.0
C429 C 0.62267 0.33386 1.01143 0.0
C430 C 0.65878 0.30194 0.92317 0.0
C431 C 0.61454 0.21088 0.97968 0.0
H432 H 0.55354 0.10859 0.77958 0.0
H433 H 0.544 0.12977 0.84241 0.0
H434 H 0.63081 0.15363 0.83481 0.0
H435 H 0.64012 0.13379 0.77216 0.0
H436 H 0.69106 0.34378 1.02546 0.0
H437 H 0.69823 0.32334 0.96188 0.0
H438 H 0.60868 0.31532 0.96253 0.0
H439 H 0.60154 0.33575 1.02566 0.0
Tb440 Tb 0.87442 0.75986 0.48142 0.0
Tb441 Tb 0.8904 0.72657 0.39095 0.0
C442 C 0.82977 0.74366 0.42582 0.0
C443 C 0.8871 0.78487 0.58599 0.0
C444 C 0.90702 0.79741 0.66054 0.0
C445 C 0.87863 0.79094 0.65784 0.0
C446 C 0.86896 0.7849 0.6215 0.0
C447 C 0.91558 0.79076 0.5887 0.0
C448 C 0.92532 0.79669 0.62508 0.0
C449 C 0.87529 0.78329 0.5461 0.0
O450 O 0.86517 0.71571 0.49402 0.0
O451 O 0.89271 0.69599 0.44294 0.0
O452 O 0.92556 0.75189 0.39937 0.0
O453 O 0.91479 0.74241 0.46495 0.0
O454 O 0.87756 0.71692 0.33616 0.0
O455 O 0.91622 0.69986 0.35675 0.0
O456 O 0.88251 0.77041 0.37354 0.0
O457 O 0.87627 0.79312 0.43225 0.0
O458 O 0.83627 0.76193 0.45023 0.0
O459 O 0.84687 0.72313 0.41587 0.0
C460 C 0.87703 0.69408 0.47759 0.0
O461 O 0.89168 0.7895 0.51326 0.0
O462 O 0.85722 0.76408 0.54142 0.0
C463 C 0.93023 0.75594 0.4356 0.0
C464 C 0.91195 0.70026 0.28556 0.0
C465 C 0.93082 0.69023 0.20455 0.0
C466 C 0.9437 0.677 0.23741 0.0
C467 C 0.9345 0.68197 0.27694 0.0
C468 C 0.89914 0.71379 0.25298 0.0
C469 C 0.90852 0.70904 0.21327 0.0
C470 C 0.89962 0.70127 0.32824 0.0
C471 C 0.87882 0.79286 0.39301 0.0
H472 H 0.86355 0.79066 0.6839 0.0
H473 H 0.84685 0.78105 0.62098 0.0
H474 H 0.93037 0.79173 0.56233 0.0
H475 H 0.94721 0.80176 0.62482 0.0
H476 H 0.96042 0.6619 0.23304 0.0
H477 H 0.94451 0.67055 0.30105 0.0
H478 H 0.8814 0.72767 0.25812 0.0
H479 H 0.89805 0.72017 0.18945 0.0
Tb480 Tb 0.46343 0.64421 0.66681 0.0
Tb481 Tb 0.52521 0.63126 0.69221 0.0
C482 C 0.49491 0.68618 0.71393 0.0
C483 C 0.4045 0.63963 0.61093 0.0
C484 C 0.38605 0.6178 0.54528 0.0
C485 C 0.37215 0.64089 0.56091 0.0
C486 C 0.38134 0.65172 0.59378 0.0
C487 C 0.41796 0.61619 0.59611 0.0
C488 C 0.40862 0.60516 0.56375 0.0
C489 C 0.41611 0.65217 0.64256 0.0
O490 O 0.49148 0.64862 0.61117 0.0
O491 O 0.53232 0.65843 0.6359 0.0
O492 O 0.51605 0.60126 0.65182 0.0
O493 O 0.46932 0.59905 0.66763 0.0
O494 O 0.56765 0.63935 0.69493 0.0
O495 O 0.55014 0.59822 0.71408 0.0
O496 O 0.49734 0.62635 0.75011 0.0
O497 O 0.45503 0.64262 0.73051 0.0
O498 O 0.47586 0.68243 0.68959 0.0
O499 O 0.51615 0.66917 0.71873 0.0
C500 C 0.5171 0.65858 0.60567 0.0
O501 O 0.4209 0.63446 0.67304 0.0
O502 O 0.43735 0.66855 0.6306 0.0
C503 C 0.49259 0.58795 0.65263 0.0
C504 C 0.58314 0.61411 0.75129 0.0
C505 C 0.60178 0.60911 0.82711 0.0
C506 C 0.61752 0.59733 0.79567 0.0
C507 C 0.60812 0.59973 0.75784 0.0
C508 C 0.56774 0.62645 0.78235 0.0
C509 C 0.577 0.62397 0.82006 0.0
C510 C 0.57173 0.61449 0.71318 0.0
C511 C 0.47107 0.63498 0.75874 0.0
H512 H 0.355 0.65132 0.54676 0.0
H513 H 0.37101 0.66996 0.60495 0.0
H514 H 0.43609 0.60681 0.60899 0.0
H515 H 0.41951 0.58719 0.55259 0.0
H516 H 0.63667 0.58576 0.80061 0.0
H517 H 0.62 0.58995 0.734 0.0
H518 H 0.54832 0.63758 0.77757 0.0
H519 H 0.56479 0.63366 0.8437 0.0
Tb520 Tb 0.02814 0.37595 0.18353 0.0
Tb521 Tb 0.00362 0.36184 0.09174 0.0
C522 C 0.01094 0.42272 0.11605 0.0
C523 C 0.04901 0.35891 0.29605 0.0
C524 C 0.06309 0.33884 0.37631 0.0
C525 C 0.07083 0.36578 0.35744 0.0
C526 C 0.06383 0.37555 0.31856 0.0
C527 C 0.04166 0.33183 0.31431 0.0
C528 C 0.04847 0.32209 0.35331 0.0
C529 C 0.03736 0.37153 0.25756 0.0
O530 O 0.98449 0.38677 0.18241 0.0
O531 O 0.97324 0.35246 0.14443 0.0
O532 O 0.03585 0.33049 0.10234 0.0
O533 O 0.022 0.33511 0.16597 0.0
O534 O -0.00613 0.37463 1.03255 0.0
O535 O 0.98024 0.33464 0.06336 0.0
O536 O 0.04605 0.37899 0.07966 0.0
O537 O 0.06555 0.376 0.14146 0.0
O538 O 0.0262 0.41663 0.1467 0.0
O539 O -0.00613 0.40457 0.1045 0.0
C540 C 0.96642 0.36936 0.17224 0.0
O541 O 0.01881 0.3575 0.24243 0.0
O542 O 0.0514 0.38842 0.22987 0.0
C543 C 0.03991 0.32481 0.1397 0.0
C544 C 0.97702 0.34038 0.99151 0.0
C545 C 0.96168 0.32065 0.91918 0.0
C546 C 0.96324 0.30237 0.95451 0.0
C547 C 0.9707 0.31203 0.98989 0.0
C548 C 0.97591 0.3586 0.95624 0.0
C549 C 0.96857 0.34894 0.92077 0.0
C550 C 0.97986 0.35179 1.03074 0.0
C551 C 0.06714 0.38087 0.10199 0.0
H552 H 0.08239 0.37975 0.37257 0.0
H553 H 0.06947 0.39667 0.30644 0.0
H554 H 0.02976 0.31826 0.2989 0.0
H555 H 0.04132 0.30151 0.36568 0.0
H556 H 0.95772 0.28058 0.95552 0.0
H557 H 0.97055 0.29733 1.01645 0.0
H558 H 0.97997 0.38068 0.9563 0.0
H559 H 0.96819 0.3639 0.8946 0.0
Tb560 Tb 0.4661 0.34648 0.52487 0.0
Tb561 Tb 0.52953 0.35951 0.47989 0.0
C562 C 0.50319 0.30111 0.48522 0.0
C563 C 0.40551 0.35512 0.59429 0.0
C564 C 0.38596 0.38146 0.66175 0.0
C565 C 0.37067 0.35951 0.65 0.0
C566 C 0.38042 0.3464 0.61627 0.0
C567 C 0.42 0.37763 0.60504 0.0
C568 C 0.41026 0.39096 0.63819 0.0
C569 C 0.41788 0.34054 0.56109 0.0
O570 O 0.49446 0.33573 0.57187 0.0
O571 O 0.53852 0.34826 0.54134 0.0
O572 O 0.51949 0.39664 0.50973 0.0
O573 O 0.47237 0.39108 0.52762 0.0
O574 O 0.57002 0.34624 0.46026 0.0
O575 O 0.55694 0.38922 0.44821 0.0
O576 O 0.50312 0.35807 0.42988 0.0
O577 O 0.45975 0.34551 0.46154 0.0
O578 O 0.47781 0.3095 0.4964 0.0
O579 O 0.52495 0.31474 0.4929 0.0
C580 C 0.52183 0.3382 0.57275 0.0
O581 O 0.42346 0.35682 0.52802 0.0
O582 O 0.439 0.32409 0.56916 0.0
C583 C 0.49536 0.40576 0.52495 0.0
C584 C 0.58522 0.37006 0.39838 0.0
C585 C 0.60038 0.3719 0.31614 0.0
C586 C 0.61739 0.38451 0.34056 0.0
C587 C 0.60988 0.38344 0.38158 0.0
C588 C 0.56808 0.35788 0.37411 0.0
C589 C 0.57576 0.35836 0.33347 0.0
C590 C 0.57613 0.37049 0.44061 0.0
C591 C 0.47694 0.35033 0.4286 0.0
H592 H 0.35218 0.35131 0.66822 0.0
H593 H 0.36907 0.3289 0.60834 0.0
H594 H 0.43951 0.38406 0.58849 0.0
H595 H 0.4225 0.40766 0.64664 0.0
H596 H 0.63624 0.3955 0.32798 0.0
H597 H 0.62301 0.39342 0.40001 0.0
H598 H 0.54857 0.34825 0.38648 0.0
H599 H 0.56241 0.348 0.31579 0.0
Tb600 Tb 0.05507 0.63879 0.85642 0.0
Tb601 Tb 0.99353 0.62073 0.8363 0.0
C602 C 0.01295 0.6819 0.8117 0.0
C603 C 0.11769 0.63664 0.90693 0.0
C604 C 0.13363 0.61575 0.98149 0.0
C605 C 0.14014 0.64337 0.96583 0.0
C606 C 0.13211 0.6538 0.92865 0.0
C607 C 0.11316 0.60843 0.92129 0.0
C608 C 0.12112 0.59805 0.95832 0.0
C609 C 0.10308 0.64912 0.87361 0.0
O610 O 0.02837 0.64374 0.91161 0.0
O611 O 0.98392 0.64101 0.89186 0.0
O612 O 0.00476 0.59243 0.88591 0.0
O613 O 0.05208 0.5939 0.87648 0.0
O614 O 0.95032 0.62344 0.83208 0.0
O615 O 0.97382 0.58535 0.82179 0.0
O616 O 0.02048 0.6216 0.77821 0.0
O617 O 0.06054 0.64212 0.79223 0.0
O618 O 0.03575 0.67696 0.83025 0.0
O619 O -0.00607 0.66308 0.81003 0.0
C620 C 0.00092 0.64609 0.91868 0.0
O621 O 0.09838 0.63223 0.84735 0.0
O622 O 0.08089 0.6638 0.88407 0.0
C623 C 0.02903 0.58238 0.89448 0.0
C624 C 0.93803 0.5975 0.78209 0.0
C625 C 0.91908 0.59251 0.70776 0.0
C626 C 0.90811 0.57525 0.74167 0.0
C627 C 0.91765 0.57769 0.77872 0.0
C628 C 0.9487 0.615 0.74852 0.0
C629 C 0.9392 0.61264 0.7117 0.0
C630 C 0.9499 0.59863 0.81968 0.0
C631 C 0.04483 0.63402 0.76643 0.0
H632 H 0.14944 0.65748 0.98355 0.0
H633 H 0.13542 0.67569 0.91814 0.0
H634 H 0.10192 0.59481 0.90514 0.0
H635 H 0.11596 0.57668 0.96989 0.0
H636 H 0.89253 0.55967 0.73941 0.0
H637 H 0.90949 0.56391 0.80453 0.0
H638 H 0.96459 0.63031 0.75075 0.0
H639 H 0.94747 0.6268 0.68637 0.0
H640 H 0.06704 0.18057 0.08598 0.0
H641 H -0.0058 0.15122 1.03865 0.0
H642 H 0.08567 0.19944 1.01831 0.0
H643 H 0.0125 0.17004 0.97183 0.0
H644 H 0.06353 0.18214 0.85076 0.0
H645 H 0.04778 0.16314 0.91863 0.0
H646 H 0.07881 0.23608 0.96338 0.0
H647 H 0.09498 0.25511 0.89493 0.0
C648 C 0.05503 0.17798 0.06127 0.0
C649 C 0.02903 0.1642 0.06822 0.0
C650 C 0.06563 0.18904 1.02234 0.0
C651 C 0.05075 0.18637 0.98904 0.0
C652 C 0.02493 0.17233 0.99619 0.0
C653 C 0.01427 0.16159 1.0349 0.0
C654 C 0.06706 0.1943 0.8749 0.0
C655 C 0.08048 0.22041 0.86683 0.0
C656 C 0.05782 0.18336 0.91414 0.0
C657 C 0.06172 0.19799 0.94707 0.0
C658 C 0.07551 0.22397 0.93912 0.0
C659 C 0.08462 0.23505 0.89966 0.0
H660 H 0.11812 0.80548 0.27686 0.0
H661 H 0.05734 0.73949 0.28797 0.0
H662 H 0.09716 0.82763 0.2177 0.0
H663 H 0.03678 0.76117 0.22979 0.0
H664 H 0.98846 0.81742 0.14372 0.0
H665 H 0.00907 0.79959 0.20467 0.0
H666 H 0.09136 0.82187 0.14786 0.0
H667 H 0.07079 0.83989 0.08721 0.0
C668 C 0.10032 0.79572 0.26691 0.0
C669 C 0.08978 0.77044 0.28728 0.0
C670 C 0.08831 0.80833 0.23277 0.0
C671 C 0.06503 0.79636 0.21855 0.0
C672 C 0.05433 0.77141 0.23963 0.0
C673 C 0.06647 0.75872 0.27307 0.0
C674 C 0.01092 0.81876 0.14423 0.0
C675 C 0.02774 0.83024 0.11011 0.0
C676 C 0.02287 0.80831 0.17928 0.0
C677 C 0.0521 0.8091 0.18167 0.0
C678 C 0.06883 0.82108 0.14775 0.0
C679 C 0.05692 0.83131 0.11264 0.0
H680 H 0.40276 0.80056 0.18527 0.0
H681 H 0.41585 0.71569 0.2358 0.0
H682 H 0.41722 0.81774 0.2457 0.0
H683 H 0.43 0.73268 0.29575 0.0
H684 H 0.48165 0.77095 0.38178 0.0
H685 H 0.46694 0.75559 0.32136 0.0
H686 H 0.40467 0.82137 0.31685 0.0
H687 H 0.41861 0.83638 0.37837 0.0
C688 C 0.40868 0.7855 0.20913 0.0
C689 C 0.40803 0.7566 0.20512 0.0
C690 C 0.41687 0.79538 0.2441 0.0
C691 C 0.42506 0.77675 0.27614 0.0
C692 C 0.42437 0.74791 0.27191 0.0
C693 C 0.41597 0.73807 0.2373 0.0
C694 C 0.46445 0.78208 0.36877 0.0
C695 C 0.45141 0.80503 0.38635 0.0
C696 C 0.45602 0.77319 0.33348 0.0
C697 C 0.43437 0.78698 0.31367 0.0
C698 C 0.4216 0.81022 0.33062 0.0
C699 C 0.42979 0.81894 0.36628 0.0
H700 H 0.47327 0.15875 0.68072 0.0
H701 H 0.40997 0.21389 0.63296 0.0
H702 H 0.48951 0.14783 0.61375 0.0
H703 H 0.42603 0.20254 0.56601 0.0
H704 H 0.44643 0.15846 0.45156 0.0
H705 H 0.42916 0.16886 0.51893 0.0
H706 H 0.51378 0.16452 0.55186 0.0
H707 H 0.53085 0.15367 0.485 0.0
C708 C 0.46286 0.16892 0.65615 0.0
C709 C 0.44017 0.18754 0.6633 0.0
C710 C 0.47226 0.1625 0.61725 0.0
C711 C 0.45935 0.17426 0.58362 0.0
C712 C 0.43649 0.19262 0.59071 0.0
C713 C 0.42717 0.19917 0.62961 0.0
C714 C 0.46141 0.15975 0.47309 0.0
C715 C 0.49019 0.15523 0.46219 0.0
C716 C 0.45147 0.16591 0.51199 0.0
C717 C 0.46988 0.16765 0.54164 0.0
C718 C 0.49865 0.16306 0.53059 0.0
C719 C 0.50857 0.15702 0.49175 0.0
H720 H 0.91235 0.80507 0.32539 0.0
H721 H 0.84832 0.84082 0.4045 0.0
H722 H 0.91338 0.84738 0.28029 0.0
H723 H 0.84823 0.8836 0.3572 0.0
H724 H 0.83426 0.89199 0.20942 0.0
H725 H 0.83355 0.8825 0.28145 0.0
H726 H 0.92127 0.90234 0.27324 0.0
H727 H 0.92269 0.91016 0.20149 0.0
C728 C 0.89872 0.82227 0.33336 0.0
C729 C 0.88013 0.81974 0.36817 0.0
C730 C 0.89962 0.84674 0.30782 0.0
C731 C 0.88122 0.86899 0.3157 0.0
C732 C 0.86299 0.8669 0.35107 0.0
C733 C 0.86286 0.84249 0.37771 0.0
C734 C 0.85315 0.89549 0.22309 0.0
C735 C 0.87885 0.90011 0.19956 0.0
C736 C 0.85257 0.89061 0.26451 0.0
C737 C 0.87766 0.8906 0.28239 0.0
C738 C 0.90178 0.90177 0.2598 0.0
C739 C 0.90253 0.9061 0.21839 0.0
H740 H 0.85799 0.14848 0.81173 0.0
H741 H 0.89891 0.06755 0.82075 0.0
H742 H 0.85088 0.14643 0.88372 0.0
H743 H 0.8911 0.06501 0.89358 0.0
H744 H 0.91712 0.10115 1.00695 0.0
H745 H 0.91272 0.09006 0.93969 0.0
H746 H 0.82898 0.12544 0.94602 0.0
H747 H 0.834 0.13751 1.01326 0.0
C748 C 0.86459 0.12978 0.82925 0.0
C749 C 0.87899 0.10813 0.81092 0.0
C750 C 0.86039 0.12853 0.87055 0.0
C751 C 0.87037 0.10551 0.89432 0.0
C752 C 0.88343 0.08312 0.87592 0.0
C753 C 0.88789 0.08451 0.83443 0.0
C754 C 0.8975 0.10584 0.99431 0.0
C755 C 0.87589 0.12027 1.01487 0.0
C756 C 0.89489 0.09934 0.95588 0.0
C757 C 0.87053 0.10698 0.93754 0.0
C758 C 0.84815 0.11968 0.9593 0.0
C759 C 0.85093 0.12655 0.99761 0.0
H760 H 0.5638 0.13073 0.71177 0.0
H761 H 0.6431 0.09236 0.73757 0.0
H762 H 0.57444 0.12375 0.64185 0.0
H763 H 0.65402 0.08606 0.6669 0.0
H764 H 0.67001 0.12845 0.53134 0.0
H765 H 0.66238 0.12277 0.60433 0.0
H766 H 0.58302 0.08338 0.59847 0.0
H767 H 0.59018 0.08953 0.52608 0.0
C768 C 0.58313 0.12007 0.7027 0.0
C769 C 0.6025 0.11181 0.7301 0.0
C770 C 0.58927 0.11623 0.6627 0.0
C771 C 0.61493 0.10421 0.64941 0.0
C772 C 0.63411 0.09538 0.67674 0.0
C773 C 0.62785 0.09898 0.71695 0.0
C774 C 0.65132 0.11798 0.54581 0.0
C775 C 0.63074 0.1094 0.52324 0.0
C776 C 0.64704 0.11459 0.58736 0.0
C777 C 0.62207 0.10277 0.60657 0.0
C778 C 0.60237 0.09261 0.58407 0.0
C779 C 0.60666 0.09589 0.54272 0.0
H780 H 0.61909 0.82918 0.61179 0.0
H781 H 0.58866 0.9066 0.55495 0.0
H782 H 0.65969 0.8305 0.56135 0.0
H783 H 0.62752 0.90758 0.50371 0.0
H784 H 0.65643 0.81231 0.42861 0.0
H785 H 0.65483 0.81835 0.49783 0.0
H786 H 0.67178 0.90657 0.46817 0.0
H787 H 0.67268 0.90042 0.39743 0.0
C788 C 0.6216 0.84676 0.58894 0.0
C789 C 0.60073 0.86732 0.5858 0.0
C790 C 0.64473 0.84765 0.5602 0.0
C791 C 0.64651 0.86862 0.52758 0.0
C792 C 0.62716 0.89101 0.52802 0.0
C793 C 0.60445 0.89026 0.55693 0.0
C794 C 0.66122 0.83283 0.43643 0.0
C795 C 0.66357 0.85616 0.40761 0.0
C796 C 0.66048 0.83632 0.47665 0.0
C797 C 0.66184 0.86327 0.4888 0.0
C798 C 0.6695 0.8857 0.45971 0.0
C799 C 0.66991 0.88226 0.41925 0.0
H800 H 0.59325 0.75857 0.38931 0.0
H801 H 0.56938 0.68152 0.34786 0.0
H802 H 0.57606 0.74062 0.45778 0.0
H803 H 0.55217 0.66372 0.41596 0.0
H804 H 0.49515 0.65411 0.53484 0.0
H805 H 0.51393 0.67159 0.46734 0.0
H806 H 0.58531 0.70481 0.51372 0.0
H807 H 0.56646 0.68723 0.58161 0.0
C808 C 0.58432 0.73784 0.39469 0.0
C809 C 0.58273 0.72163 0.36274 0.0
C810 C 0.57461 0.72742 0.43412 0.0
C811 C 0.56256 0.70065 0.44276 0.0
C812 C 0.56099 0.6845 0.41071 0.0
C813 C 0.57107 0.69471 0.37149 0.0
C814 C 0.51487 0.66513 0.53086 0.0
C815 C 0.52913 0.66925 0.56412 0.0
C816 C 0.52578 0.67506 0.49189 0.0
C817 C 0.55122 0.68976 0.48468 0.0
C818 C 0.56553 0.69391 0.51792 0.0
C819 C 0.55475 0.68366 0.55697 0.0
H820 H 0.5815 0.30801 0.81326 0.0
H821 H 0.60821 0.23603 0.75294 0.0
H822 H 0.56097 0.32869 0.75311 0.0
H823 H 0.58831 0.25685 0.69288 0.0
H824 H 0.57466 0.31663 0.57942 0.0
H825 H 0.59588 0.29827 0.63966 0.0
H826 H 0.52035 0.31825 0.71186 0.0
H827 H 0.49875 0.33602 0.65126 0.0
C828 C 0.58345 0.29679 0.78702 0.0
C829 C 0.59685 0.27039 0.78805 0.0
C830 C 0.5714 0.30853 0.75259 0.0
C831 C 0.57292 0.29453 0.71785 0.0
C832 C 0.58685 0.26843 0.71875 0.0
C833 C 0.59829 0.25644 0.75334 0.0
C834 C 0.56254 0.31727 0.60811 0.0
C835 C 0.5349 0.32792 0.61023 0.0
C836 C 0.57471 0.30656 0.64276 0.0
C837 C 0.55995 0.30672 0.68091 0.0
C838 C 0.53249 0.3179 0.68315 0.0
C839 C 0.52002 0.32798 0.64833 0.0
H840 H 0.93344 0.34949 0.85911 0.0
H841 H 0.96865 0.26805 0.89227 0.0
H842 H 0.91962 0.33314 0.79849 0.0
H843 H 0.95304 0.25121 0.83343 0.0
H844 H 0.94554 0.23123 0.70784 0.0
H845 H 0.96031 0.24989 0.76593 0.0
H846 H 0.88992 0.3073 0.76655 0.0
H847 H 0.87573 0.28908 0.70692 0.0
C848 C 0.9384 0.32808 0.85374 0.0
C849 C 0.95255 0.31038 0.8814 0.0
C850 C 0.92994 0.31846 0.81883 0.0
C851 C 0.93508 0.29063 0.81005 0.0
C852 C 0.94897 0.27291 0.83794 0.0
C853 C 0.95762 0.28257 0.87259 0.0
C854 C 0.93307 0.24786 0.72016 0.0
C855 C 0.90913 0.2583 0.70232 0.0
C856 C 0.9415 0.25854 0.75415 0.0
C857 C 0.92628 0.28005 0.77228 0.0
C858 C 0.90256 0.29093 0.75393 0.0
C859 C 0.89421 0.28031 0.71956 0.0
H860 H 0.90029 0.69233 0.13825 0.0
H861 H 0.98345 0.67366 0.17238 0.0
H862 H 0.91605 0.68309 0.07033 0.0
H863 H -0.00164 0.66198 0.10595 0.0
H864 H 0.02938 0.66603 0.97575 0.0
H865 H 0.01226 0.67715 0.04191 0.0
H866 H 0.92884 0.65305 1.02264 0.0
H867 H 0.94611 0.64317 0.95498 0.0
C868 C 0.92196 0.6863 0.13166 0.0
C869 C 0.94037 0.68406 0.16192 0.0
C870 C 0.93098 0.68043 0.09231 0.0
C871 C 0.95877 0.67177 0.08146 0.0
C872 C 0.97699 0.66915 0.1119 0.0
C873 C 0.96813 0.67541 0.15094 0.0
C874 C 0.0073 0.66317 0.98533 0.0
C875 C 0.98928 0.65363 0.95941 0.0
C876 C -0.00263 0.66932 1.02399 0.0
C877 C 0.96895 0.66581 1.03897 0.0
C878 C 0.95078 0.65646 1.01281 0.0
C879 C 0.96074 0.65061 0.97371 0.0
H880 H 0.33507 0.39526 0.69917 0.0
H881 H 0.42298 0.38665 0.71572 0.0
H882 H 0.32367 0.3911 0.77145 0.0
H883 H 0.41174 0.3819 0.78703 0.0
H884 H 0.33258 0.30238 0.847 0.0
H885 H 0.32967 0.34259 0.79848 0.0
H886 H 0.39051 0.38541 0.85549 0.0
H887 H 0.39279 0.3446 0.90513 0.0
C888 C 0.35196 0.39372 0.71822 0.0
C889 C 0.37974 0.39024 0.70211 0.0
C890 C 0.34549 0.39157 0.75951 0.0
C891 C 0.3667 0.38502 0.7848 0.0
C892 C 0.39481 0.3867 0.7685 0.0
C893 C 0.40129 0.3892 0.72732 0.0
C894 C 0.34457 0.32077 0.84992 0.0
C895 C 0.36355 0.3203 0.87861 0.0
C896 C 0.34261 0.34412 0.82252 0.0
C897 C 0.36019 0.36716 0.82278 0.0
C898 C 0.37686 0.36788 0.85449 0.0
C899 C 0.37835 0.34454 0.88259 0.0
H900 H 0.42206 0.60336 0.48347 0.0
H901 H 0.33381 0.61247 0.52186 0.0
H902 H 0.41058 0.59326 0.41831 0.0
H903 H 0.3226 0.60367 0.45538 0.0
H904 H 0.37784 0.55932 0.3133 0.0
H905 H 0.37681 0.55529 0.38604 0.0
H906 H 0.34376 0.63933 0.38677 0.0
H907 H 0.346 0.64413 0.31446 0.0
C908 C 0.4002 0.60239 0.47841 0.0
C909 C 0.37876 0.60859 0.50771 0.0
C910 C 0.3937 0.59663 0.44118 0.0
C911 C 0.36576 0.59738 0.43262 0.0
C912 C 0.34423 0.60274 0.46198 0.0
C913 C 0.35068 0.60803 0.49958 0.0
C914 C 0.36975 0.57666 0.32911 0.0
C915 C 0.36218 0.60205 0.30827 0.0
C916 C 0.36897 0.57424 0.37049 0.0
C917 C 0.35998 0.59693 0.39133 0.0
C918 C 0.35017 0.62143 0.37099 0.0
C919 C 0.3514 0.62407 0.32964 0.0
H920 H 0.09642 0.56933 0.23555 0.0
H921 H 0.14374 0.64589 0.21682 0.0
H922 H 0.10809 0.56206 0.16535 0.0
H923 H 0.15459 0.63934 0.14695 0.0
H924 H 0.17815 0.62066 1.02417 0.0
H925 H 0.17782 0.61316 0.09678 0.0
H926 H 0.09179 0.58588 0.10631 0.0
H927 H 0.09255 0.59249 1.03433 0.0
C928 C 0.10962 0.58431 0.21644 0.0
C929 C 0.11927 0.60805 0.23125 0.0
C930 C 0.11626 0.58024 0.17645 0.0
C931 C 0.13224 0.60013 0.1507 0.0
C932 C 0.14281 0.62328 0.16614 0.0
C933 C 0.13647 0.62714 0.20611 0.0
C934 C 0.15952 0.61237 0.04199 0.0
C935 C 0.13546 0.60704 1.02399 0.0
C936 C 0.15926 0.60816 0.08336 0.0
C937 C 0.13476 0.59902 0.10718 0.0
C938 C 0.11119 0.59235 0.08882 0.0
C939 C 0.11158 0.59624 0.04757 0.0
H940 H 0.17383 0.40612 0.89284 0.0
H941 H 0.15554 0.31999 0.93621 0.0
H942 H 0.16874 0.41826 0.96139 0.0
H943 H 0.15041 0.33195 1.00379 0.0
H944 H 0.11595 0.35336 0.11473 0.0
H945 H 0.15687 0.35208 0.06544 0.0
H946 H 0.12007 0.41853 0.99064 0.0
H947 H 0.07972 0.41961 1.0396 0.0
C948 C 0.16995 0.38961 0.91705 0.0
C949 C 0.16409 0.36236 0.90919 0.0
C950 C 0.1672 0.39651 0.95627 0.0
C951 C 0.15822 0.37628 0.98784 0.0
C952 C 0.15724 0.34815 0.98027 0.0
C953 C 0.16007 0.34125 0.94119 0.0
C954 C 0.11742 0.36851 0.08854 0.0
C955 C 0.0947 0.38615 0.08014 0.0
C956 C 0.14078 0.36781 0.06039 0.0
C957 C 0.1415 0.3848 1.02382 0.0
C958 C 0.12037 0.40517 1.01844 0.0
C959 C 0.097 0.40561 0.04623 0.0
H960 H 0.06995 0.28127 0.1094 0.0
H961 H 0.06833 0.33721 0.201 0.0
H962 H 0.08139 0.24293 0.15773 0.0
H963 H 0.07551 0.29812 0.2499 0.0
H964 H 0.03964 0.18637 0.27078 0.0
H965 H 0.07404 0.22327 0.26532 0.0
H966 H 0.02094 0.27653 0.19377 0.0
H967 H 0.98883 0.23818 0.19332 0.0
C968 C 0.07392 0.28583 0.13896 0.0
C969 C 0.06543 0.31131 0.15293 0.0
C970 C 0.08064 0.26387 0.16692 0.0
C971 C 0.0751 0.26763 0.20773 0.0
C972 C 0.0773 0.29458 0.21868 0.0
C973 C 0.07261 0.31694 0.19054 0.0
C974 C 0.03507 0.20612 0.2541 0.0
C975 C 0.01304 0.20877 0.22914 0.0
C976 C 0.05465 0.22728 0.25181 0.0
C977 C 0.05079 0.2518 0.22728 0.0
C978 C 0.02482 0.25703 0.21148 0.0
C979 C 0.00629 0.23519 0.21126 0.0
H980 H 0.93757 0.80397 0.38406 0.0
H981 H 0.94842 0.76938 0.50443 0.0
H982 H 0.96645 0.84338 0.3923 0.0
H983 H 0.97799 0.8087 0.51104 0.0
H984 H 0.06029 0.78387 0.48518 0.0
H985 H 0.02472 0.82019 0.49281 0.0
H986 H 0.00306 0.8111 0.37367 0.0
H987 H 0.03808 0.77503 0.36697 0.0
C988 C 0.94562 0.80495 0.41241 0.0
C989 C 0.94278 0.78232 0.44244 0.0
C990 C 0.96162 0.82797 0.41771 0.0
C991 C 0.97945 0.82451 0.44828 0.0
C992 C 0.96843 0.80847 0.48349 0.0
C993 C 0.95201 0.7855 0.47962 0.0
C994 C 0.04757 0.78968 0.4609 0.0
C995 C 0.04994 0.77512 0.42685 0.0
C996 C 0.02773 0.81098 0.46483 0.0
C997 C 0.00914 0.81709 0.43552 0.0
C998 C 0.01536 0.8059 0.39851 0.0
C999 C 0.03496 0.78449 0.39477 0.0
H1000 H 0.44441 0.71044 0.73535 0.0
H1001 H 0.52847 0.69992 0.7694 0.0
H1002 H 0.43498 0.74463 0.78276 0.0
H1003 H 0.51867 0.73436 0.81635 0.0
H1004 H 0.54304 0.80604 0.73691 0.0
H1005 H 0.52655 0.77917 0.79903 0.0
H1006 H 0.44146 0.78995 0.76926 0.0
H1007 H 0.45818 0.8154 0.70607 0.0
C1008 C 0.46124 0.71626 0.75175 0.0
C1009 C 0.48851 0.70561 0.74438 0.0
C1010 C 0.4557 0.73536 0.77983 0.0
C1011 C 0.47834 0.74693 0.79575 0.0
C1012 C 0.50223 0.72957 0.79863 0.0
C1013 C 0.50817 0.71024 0.77096 0.0
C1014 C 0.52077 0.80228 0.74352 0.0
C1015 C 0.50206 0.81017 0.71512 0.0
C1016 C 0.51111 0.78715 0.7795 0.0
C1017 C 0.48315 0.77776 0.78543 0.0
C1018 C 0.46377 0.79317 0.76288 0.0
C1019 C 0.47326 0.80763 0.7263 0.0
H1020 H 0.56087 0.28852 0.98679 0.0
H1021 H 0.53732 0.27338 0.87145 0.0
H1022 H 0.52392 0.32378 0.99261 0.0
H1023 H 0.50098 0.3082 0.8764 0.0
H1024 H 0.43444 0.30931 0.88456 0.0
H1025 H 0.46752 0.34597 0.89088 0.0
H1026 H 0.47668 0.31213 1.01098 0.0
H1027 H 0.44387 0.27533 1.00591 0.0
C1028 C 0.54768 0.29279 0.96269 0.0
C1029 C 0.55036 0.27693 0.92997 0.0
C1030 C 0.52698 0.31343 0.9656 0.0
C1031 C 0.50818 0.31799 0.93627 0.0
C1032 C 0.51393 0.30481 0.90083 0.0
C1033 C 0.53435 0.28407 0.89819 0.0
C1034 C 0.44328 0.30981 0.91264 0.0
C1035 C 0.43935 0.28761 0.94324 0.0
C1036 C 0.46146 0.33141 0.91687 0.0
C1037 C 0.47889 0.32716 0.94792 0.0
C1038 C 0.46686 0.31241 0.98355 0.0
C1039 C 0.44855 0.29079 0.9805 0.0
H1040 H 0.03847 0.7772 0.94282 0.0
H1041 H 0.94853 0.78757 0.94905 0.0
H1042 H 0.03903 0.76328 0.87684 0.0
H1043 H 0.94903 0.77636 0.88175 0.0
H1044 H 0.96079 0.70473 0.80828 0.0
H1045 H 0.95079 0.74796 0.836 0.0
H1046 H 0.03771 0.77123 0.81048 0.0
H1047 H 0.04832 0.72595 0.78635 0.0
C1048 C 0.01871 0.77609 0.93021 0.0
C1049 C 0.99361 0.78402 0.95097 0.0
C1050 C 0.01902 0.7692 0.89139 0.0
C1051 C -0.00582 0.77012 0.87213 0.0
C1052 C 0.96876 0.77569 0.89456 0.0
C1053 C 0.9684 0.78175 0.93384 0.0
C1054 C 0.97773 0.71944 0.80721 0.0
C1055 C 0.00574 0.71105 0.79964 0.0
C1056 C 0.97202 0.74455 0.82343 0.0
C1057 C -0.00542 0.76054 0.83168 0.0
C1058 C 0.02058 0.75709 0.80934 0.0
C1059 C 0.02669 0.73137 0.79495 0.0
H1060 H 0.52511 0.78972 0.18544 0.0
H1061 H 0.56895 0.71126 0.17505 0.0
H1062 H 0.51205 0.78955 0.1186 0.0
H1063 H 0.55936 0.71247 0.10667 0.0
H1064 H 0.47899 0.69368 0.05828 0.0
H1065 H 0.52587 0.70169 0.07229 0.0
H1066 H 0.51238 0.79091 0.0516 0.0
H1067 H 0.46422 0.78269 1.03973 0.0
C1068 C 0.53182 0.77236 0.1687 0.0
C1069 C 0.54707 0.75004 0.18593 0.0
C1070 C 0.52526 0.77261 0.1296 0.0
C1071 C 0.53438 0.75076 0.10634 0.0
C1072 C 0.55092 0.72918 0.12344 0.0
C1073 C 0.55628 0.72832 0.16306 0.0
C1074 C 0.48628 0.71505 0.05557 0.0
C1075 C 0.46747 0.7376 0.0523 0.0
C1076 C 0.5135 0.71986 0.06338 0.0
C1077 C 0.5211 0.74714 0.06937 0.0
C1078 C 0.50559 0.76953 0.05199 0.0
C1079 C 0.47801 0.76487 0.04494 0.0
H1080 H 0.46066 0.21223 0.30984 0.0
H1081 H 0.54975 0.22481 0.28563 0.0
H1082 H 0.45542 0.25838 0.33266 0.0
H1083 H 0.54496 0.26939 0.31112 0.0
H1084 H 0.54476 0.30597 0.42451 0.0
H1085 H 0.53977 0.29808 0.35658 0.0
H1086 H 0.4629 0.25292 0.39735 0.0
H1087 H 0.46628 0.26485 0.46384 0.0
C1088 C 0.47902 0.22525 0.30784 0.0
C1089 C 0.50603 0.21407 0.30044 0.0
C1090 C 0.47611 0.25163 0.32145 0.0
C1091 C 0.50024 0.26504 0.3302 0.0
C1092 C 0.52594 0.25815 0.30938 0.0
C1093 C 0.52884 0.23231 0.29452 0.0
C1094 C 0.52681 0.2944 0.41867 0.0
C1095 C 0.50569 0.28645 0.44925 0.0
C1096 C 0.52381 0.28987 0.37945 0.0
C1097 C 0.50065 0.27516 0.37025 0.0
C1098 C 0.48054 0.26541 0.40191 0.0
C1099 C 0.48292 0.27122 0.44073 0.0
H1100 H 0.04735 0.30289 0.68297 0.0
H1101 H 0.02262 0.21627 0.70425 0.0
H1102 H 0.03253 0.3056 0.6161 0.0
H1103 H 0.00664 0.21919 0.63855 0.0
H1104 H 0.95046 0.29268 0.55375 0.0
H1105 H 0.99244 0.30486 0.58082 0.0
H1106 H 0.02607 0.22213 0.56798 0.0
H1107 H 0.9827 0.20891 0.54409 0.0
C1108 C 0.03764 0.28474 0.67398 0.0
C1109 C 0.03661 0.25913 0.69837 0.0
C1110 C 0.02994 0.28612 0.63525 0.0
C1111 C 0.02033 0.26213 0.62092 0.0
C1112 C 0.01587 0.23761 0.64748 0.0
C1113 C 0.02389 0.23616 0.68582 0.0
C1114 C 0.96727 0.27733 0.55488 0.0
C1115 C 0.9624 0.249 0.55139 0.0
C1116 C 0.99167 0.2845 0.57009 0.0
C1117 C 0.01071 0.26321 0.58076 0.0
C1118 C 0.01022 0.23812 0.56296 0.0
C1119 C 0.98534 0.23049 0.54934 0.0
H1120 H 0.01354 0.03994 0.16903 0.0
H1121 H 0.94554 0.0732 0.10383 0.0
H1122 H 0.0149 -0.00186 0.13475 0.0
H1123 H 0.94741 0.03141 0.06799 0.0
H1124 H 0.94348 0.94094 1.03553 0.0
H1125 H 0.93957 0.98298 0.06989 0.0
H1126 H 0.02937 0.98243 0.07317 0.0
H1127 H 0.03299 0.93942 1.04108 0.0
C1128 C -0.00134 0.0382 0.14745 0.0
C1129 C 0.97928 0.05989 0.13937 0.0
C1130 C -0.0003 0.01428 0.12728 0.0
C1131 C 0.98163 0.01134 0.09785 0.0
C1132 C 0.96156 0.03269 0.09061 0.0
C1133 C 0.96033 0.05666 0.11127 0.0
C1134 C 0.9624 0.94967 0.04378 0.0
C1135 C 0.98848 0.93634 1.03619 0.0
C1136 C 0.96018 0.97408 0.06319 0.0
C1137 C 0.98405 0.98615 0.07502 0.0
C1138 C 0.01033 0.97347 0.06569 0.0
C1139 C 0.01248 0.94886 0.04678 0.0
H1140 H 0.1727 0.67982 0.28931 0.0
H1141 H 0.21693 0.73863 0.3475 0.0
H1142 H 0.2124 0.67926 0.23742 0.0
H1143 H 0.25595 0.73799 0.29637 0.0
H1144 H 0.30524 0.75899 0.17675 0.0
H1145 H 0.26511 0.75567 0.22673 0.0
H1146 H 0.26313 0.66634 0.22264 0.0
H1147 H 0.30347 0.6697 0.17164 0.0
C1148 C 0.19095 0.69222 0.29153 0.0
C1149 C 0.19137 0.70924 0.32284 0.0
C1150 C 0.21373 0.69196 0.26169 0.0
C1151 C 0.23733 0.70891 0.26224 0.0
C1152 C 0.23801 0.7251 0.29432 0.0
C1153 C 0.21554 0.72522 0.32404 0.0
C1154 C 0.29627 0.73856 0.18611 0.0
C1155 C 0.30793 0.71457 0.17007 0.0
C1156 C 0.27325 0.73664 0.21518 0.0
C1157 C 0.26094 0.71066 0.22931 0.0
C1158 C 0.27196 0.6867 0.21247 0.0
C1159 C 0.29523 0.68862 0.18333 0.0
H1160 H 0.57394 0.04839 0.40592 0.0
H1161 H 0.49164 0.07058 0.45794 0.0
H1162 H 0.57726 0.01143 0.4611 0.0
H1163 H 0.49515 0.03402 0.51296 0.0
H1164 H 0.5197 0.97549 0.62224 0.0
H1165 H 0.52285 0.01767 0.57349 0.0
H1166 H 0.55045 0.96646 0.47952 0.0
H1167 H 0.54682 0.9251 0.5271 0.0
C1168 C 0.55666 0.0455 0.42913 0.0
C1169 C 0.53238 0.06216 0.42703 0.0
C1170 C 0.55857 0.02441 0.46081 0.0
C1171 C 0.53649 0.01987 0.49156 0.0
C1172 C 0.51264 0.03715 0.49011 0.0
C1173 C 0.51052 0.05787 0.45815 0.0
C1174 C 0.52702 0.9735 0.59134 0.0
C1175 C 0.5332 0.94699 0.57863 0.0
C1176 C 0.52862 -0.00248 0.56338 0.0
C1177 C 0.53707 -0.0046 0.52259 0.0
C1178 C 0.54432 0.96898 0.51062 0.0
C1179 C 0.54217 0.94521 0.53806 0.0
H1180 H 0.27227 0.24731 0.96417 0.0
H1181 H 0.32491 0.24722 0.85302 0.0
H1182 H 0.23048 0.25075 0.92688 0.0
H1183 H 0.28381 0.25152 0.81616 0.0
H1184 H 0.20346 0.28622 0.76347 0.0
H1185 H 0.24262 0.28771 0.80434 0.0
H1186 H 0.21017 0.21532 0.88002 0.0
H1187 H 0.1714 0.2134 0.83892 0.0
C1188 C 0.27488 0.24846 0.9319 0.0
C1189 C 0.30171 0.24681 0.91145 0.0
C1190 C 0.2511 0.25031 0.91061 0.0
C1191 C 0.25399 0.25145 0.86862 0.0
C1192 C 0.28094 0.25087 0.84839 0.0
C1193 C 0.30443 0.24824 0.86956 0.0
C1194 C 0.20475 0.27058 0.78873 0.0
C1195 C 0.18452 0.24951 0.79761 0.0
C1196 C 0.22705 0.27152 0.81221 0.0
C1197 C 0.22925 0.25177 0.84554 0.0
C1198 C 0.20878 0.23101 0.85484 0.0
C1199 C 0.1868 0.22974 0.83095 0.0
H1200 H 0.72193 0.22804 0.86225 0.0
H1201 H 0.66941 0.1922 0.78514 0.0
H1202 H 0.76212 0.22533 0.81231 0.0
H1203 H 0.70969 0.18983 0.73486 0.0
H1204 H 0.78216 0.22426 0.63866 0.0
H1205 H 0.74152 0.22388 0.68877 0.0
H1206 H 0.79301 0.1895 0.77953 0.0
H1207 H 0.83351 0.18954 0.72958 0.0
C1208 C 0.71898 0.21922 0.83488 0.0
C1209 C 0.69236 0.21 0.82812 0.0
C1210 C 0.7421 0.21768 0.80616 0.0
C1211 C 0.73926 0.20735 0.76943 0.0
C1212 C 0.71267 0.19802 0.76268 0.0
C1213 C 0.68961 0.19908 0.79175 0.0
C1214 C 0.78479 0.2163 0.66919 0.0
C1215 C 0.81124 0.20673 0.6798 0.0
C1216 C 0.76142 0.21604 0.69796 0.0
C1217 C 0.76389 0.20664 0.73831 0.0
C1218 C 0.7903 0.19705 0.74886 0.0
C1219 C 0.81355 0.1969 0.72005 0.0
H1220 H 0.79109 0.78723 0.42188 0.0
H1221 H 0.80756 0.704 0.38744 0.0
H1222 H 0.74952 0.79044 0.3847 0.0
H1223 H 0.76769 0.70768 0.34959 0.0
H1224 H 0.68086 0.70809 0.31539 0.0
H1225 H 0.71878 0.70748 0.35718 0.0
H1226 H 0.73567 0.79431 0.31645 0.0
H1227 H 0.69666 0.79516 0.27492 0.0
C1228 C 0.7857 0.76954 0.40696 0.0
C1229 C 0.80261 0.74529 0.40809 0.0
C1230 C 0.76215 0.77152 0.38516 0.0
C1231 C 0.7551 0.74928 0.36415 0.0
C1232 C 0.77193 0.72504 0.36593 0.0
C1233 C 0.79509 0.72301 0.38767 0.0
C1234 C 0.69266 0.72711 0.31496 0.0
C1235 C 0.68573 0.75164 0.2914 0.0
C1236 C 0.71456 0.72674 0.33905 0.0
C1237 C 0.73057 0.75078 0.34011 0.0
C1238 C 0.72366 0.77546 0.31669 0.0
C1239 C 0.70149 0.77587 0.29254 0.0
H1240 H 0.44846 0.55292 0.64904 0.0
H1241 H 0.53692 0.56277 0.61258 0.0
H1242 H 0.44891 0.50992 0.61653 0.0
H1243 H 0.53748 0.5197 0.58076 0.0
H1244 H 0.52362 0.45397 0.49575 0.0
H1245 H 0.52264 0.4984 0.52536 0.0
H1246 H 0.46564 0.46264 0.62386 0.0
H1247 H 0.4667 0.41893 0.59421 0.0
C1248 C 0.46802 0.54589 0.63427 0.0
C1249 C 0.49262 0.56135 0.63365 0.0
C1250 C 0.46834 0.52113 0.61571 0.0
C1251 C 0.49326 0.51118 0.59588 0.0
C1252 C 0.51782 0.52678 0.59517 0.0
C1253 C 0.51751 0.55144 0.61382 0.0
C1254 C 0.51068 0.45581 0.52351 0.0
C1255 C 0.49436 0.43314 0.54185 0.0
C1256 C 0.51022 0.4812 0.54067 0.0
C1257 C 0.49371 0.48439 0.57688 0.0
C1258 C 0.47787 0.46144 0.59538 0.0
C1259 C 0.47824 0.43627 0.57813 0.0
H1260 H 0.07253 0.54772 0.9206 0.0
H1261 H 0.98492 0.56737 0.94825 0.0
H1262 H 0.0693 0.51112 0.97767 0.0
H1263 H 0.98216 0.53278 1.0049 0.0
H1264 H 0.97267 0.44736 0.07002 0.0
H1265 H 0.9796 0.48508 1.01736 0.0
H1266 H 0.06278 0.49812 0.04977 0.0
H1267 H 0.05616 0.45849 0.10206 0.0
C1268 C 0.05271 0.54437 0.93871 0.0
C1269 C 0.02889 0.56016 0.92895 0.0
C1270 C 0.05087 0.52358 0.97168 0.0
C1271 C 0.02526 0.51843 0.99576 0.0
C1272 C 0.002 0.53517 0.98661 0.0
C1273 C 0.00369 0.55532 0.95379 0.0
C1274 C 0.99233 0.45849 0.06661 0.0
C1275 C 0.01369 0.45003 0.09082 0.0
C1276 C -0.00366 0.48038 1.03621 0.0
C1277 C 0.02174 0.49512 1.02912 0.0
C1278 C 0.043 0.48723 0.05405 0.0
C1279 C 0.03901 0.46491 0.08462 0.0
H1280 H 0.09076 0.07574 0.39155 0.0
H1281 H 0.14243 0.14661 0.34465 0.0
H1282 H 0.10056 0.08253 0.45891 0.0
H1283 H 0.1528 0.15315 0.41208 0.0
H1284 H 0.12348 0.18106 0.53549 0.0
H1285 H 0.12382 0.16993 0.46725 0.0
H1286 H 0.13491 0.08224 0.50661 0.0
H1287 H 0.13293 0.09326 0.57551 0.0
C1288 C 0.10491 0.09223 0.39565 0.0
C1289 C 0.11576 0.11078 0.36319 0.0
C1290 C 0.11057 0.0961 0.43415 0.0
C1291 C 0.12727 0.1185 0.44068 0.0
C1292 C 0.13948 0.136 0.40789 0.0
C1293 C 0.13365 0.13225 0.36942 0.0
C1294 C 0.12582 0.15939 0.52961 0.0
C1295 C 0.12778 0.13796 0.5608 0.0
C1296 C 0.12653 0.15306 0.49045 0.0
C1297 C 0.1295 0.12521 0.48166 0.0
C1298 C 0.13239 0.10386 0.51267 0.0
C1299 C 0.13148 0.11018 0.55197 0.0
H1300 H 0.16205 0.87201 0.57075 0.0
H1301 H 0.101 0.80579 0.58855 0.0
H1302 H 0.15156 0.88093 0.64052 0.0
H1303 H 0.09058 0.81466 0.65789 0.0
H1304 H 0.05861 0.85728 0.76645 0.0
H1305 H 0.0689 0.85234 0.69561 0.0
H1306 H 0.15757 0.85553 0.70743 0.0
H1307 H 0.14729 0.86041 0.77845 0.0
C1308 C 0.14644 0.85942 0.58961 0.0
C1309 C 0.1321 0.83847 0.57436 0.0
C1310 C 0.14048 0.86448 0.62935 0.0
C1311 C 0.12014 0.8486 0.65424 0.0
C1312 C 0.10593 0.82757 0.63899 0.0
C1313 C 0.11187 0.82253 0.59939 0.0
C1314 C 0.08029 0.8568 0.7539 0.0
C1315 C 0.10221 0.85893 0.7778 0.0
C1316 C 0.08614 0.85405 0.71347 0.0
C1317 C 0.11399 0.85343 0.69634 0.0
C1318 C 0.13591 0.85626 0.71998 0.0
C1319 C 0.13005 0.85899 0.76049 0.0
H1320 H 0.37019 0.88304 0.89416 0.0
H1321 H 0.37339 0.79867 0.86076 0.0
H1322 H 0.38613 0.90072 0.82582 0.0
H1323 H 0.39129 0.81611 0.79317 0.0
H1324 H 0.42145 0.85154 0.67158 0.0
H1325 H 0.38718 0.84259 0.72985 0.0
H1326 H 0.4317 0.89852 0.7926 0.0
H1327 H 0.46486 0.90815 0.73476 0.0
C1328 C 0.37369 0.86832 0.87205 0.0
C1329 C 0.37097 0.83944 0.88294 0.0
C1330 C 0.38313 0.87842 0.83297 0.0
C1331 C 0.39043 0.85981 0.8042 0.0
C1332 C 0.38569 0.83108 0.81443 0.0
C1333 C 0.37587 0.82103 0.85337 0.0
C1334 C 0.42326 0.86265 0.69737 0.0
C1335 C 0.44609 0.88026 0.69866 0.0
C1336 C 0.4038 0.85733 0.73085 0.0
C1337 C 0.40684 0.86963 0.766 0.0
C1338 C 0.42837 0.88898 0.76594 0.0
C1339 C 0.44761 0.89439 0.7326 0.0
H1340 H 0.36802 0.08461 0.18958 0.0
H1341 H 0.45357 0.09864 0.13931 0.0
H1342 H 0.35238 0.09353 0.12324 0.0
H1343 H 0.43805 0.10988 0.07397 0.0
H1344 H 0.34113 0.17629 1.04171 0.0
H1345 H 0.34752 0.1375 0.09078 0.0
H1346 H 0.4179 0.10827 1.01514 0.0
H1347 H 0.41236 0.14874 0.96658 0.0
C1348 C 0.38355 0.08886 0.16422 0.0
C1349 C 0.41187 0.09196 0.16963 0.0
C1350 C 0.3746 0.09424 0.12619 0.0
C1351 C 0.39374 0.10353 0.09331 0.0
C1352 C 0.4225 0.10297 0.09828 0.0
C1353 C 0.43145 0.09703 0.13604 0.0
C1354 C 0.35773 0.16136 1.03515 0.0
C1355 C 0.37717 0.1663 1.00138 0.0
C1356 C 0.36113 0.13862 0.06315 0.0
C1357 C 0.38394 0.12012 0.05774 0.0
C1358 C 0.40075 0.12273 1.02093 0.0
C1359 C 0.39754 0.14584 0.99301 0.0
H1360 H 0.95956 0.7895 0.68983 0.0
H1361 H 0.87789 0.82452 0.7212 0.0
H1362 H 0.97526 0.80286 0.75137 0.0
H1363 H 0.89354 0.83805 0.78221 0.0
H1364 H 0.91978 0.84109 0.90762 0.0
H1365 H 0.90486 0.82723 0.84617 0.0
H1366 H 0.98963 0.83601 0.79029 0.0
H1367 H 0.00461 0.84922 0.85259 0.0
C1368 C 0.94482 0.80024 0.70944 0.0
C1369 C 0.91711 0.80557 0.69947 0.0
C1370 C 0.95398 0.80807 0.74526 0.0
C1371 C 0.93597 0.82179 0.773 0.0
C1372 C 0.90831 0.82713 0.76291 0.0
C1373 C 0.89916 0.81923 0.72725 0.0
C1374 C 0.93533 0.84046 0.8822 0.0
C1375 C 0.96351 0.8469 0.88574 0.0
C1376 C 0.92665 0.83248 0.84633 0.0
C1377 C 0.94568 0.83045 0.8119 0.0
C1378 C 0.97397 0.83693 0.81547 0.0
C1379 C 0.98265 0.84499 0.85147 0.0
H1380 H 0.8901 0.2291 0.45312 0.0
H1381 H 0.91227 0.15093 0.5176 0.0
H1382 H 0.91058 0.21226 0.39073 0.0
H1383 H 0.93283 0.13415 0.45535 0.0
H1384 H 0.99017 0.12342 0.33599 0.0
H1385 H 0.97167 0.13947 0.40047 0.0
H1386 H 0.90166 0.17869 0.34551 0.0
H1387 H 0.91938 0.16268 0.28262 0.0
C1388 C 0.89907 0.20822 0.45408 0.0
C1389 C 0.89883 0.19131 0.49071 0.0
C1390 C 0.91093 0.19847 0.41813 0.0
C1391 C 0.92345 0.1716 0.41749 0.0
C1392 C 0.92364 0.15493 0.45427 0.0
C1393 C 0.91142 0.16451 0.49011 0.0
C1394 C 0.97062 0.13504 0.33785 0.0
C1395 C 0.95641 0.14129 0.30351 0.0
C1396 C 0.95998 0.14443 0.3749 0.0
C1397 C 0.93512 0.16078 0.37856 0.0
C1398 C 0.921 0.16667 0.34427 0.0
C1399 C 0.93125 0.15706 0.30785 0.0
H1400 H 0.61446 0.15667 1.01448 0.0
H1401 H 0.59427 0.24048 0.04266 0.0
H1402 H 0.59631 0.13814 0.08224 0.0
H1403 H 0.57504 0.22171 0.11036 0.0
H1404 H 0.51327 0.16717 0.21012 0.0
H1405 H 0.5316 0.18653 0.14227 0.0
H1406 H 0.60978 0.1429 0.15657 0.0
H1407 H 0.59195 0.12461 0.22463 0.0
C1408 C 0.60649 0.17125 1.03527 0.0
C1409 C 0.60657 0.20024 1.02296 0.0
C1410 C 0.59589 0.16054 0.07421 0.0
C1411 C 0.58402 0.17829 0.10208 0.0
C1412 C 0.58389 0.20731 0.08985 0.0
C1413 C 0.5953 0.21814 0.0511 0.0
C1414 C 0.53415 0.16123 0.19848 0.0
C1415 C 0.55081 0.14365 0.22279 0.0
C1416 C 0.54485 0.17269 0.15972 0.0
C1417 C 0.57229 0.16636 0.14361 0.0
C1418 C 0.58857 0.1482 0.16761 0.0
C1419 C 0.57822 0.13749 0.20667 0.0
H1420 H 0.55949 0.78888 0.91486 0.0
H1421 H 0.59131 0.87026 0.92806 0.0
H1422 H 0.56989 0.77239 0.98266 0.0
H1423 H 0.60245 0.85359 0.99514 0.0
H1424 H 0.59516 0.82523 0.12942 0.0
H1425 H 0.58446 0.84076 0.06193 0.0
H1426 H 0.60499 0.75857 1.02693 0.0
H1427 H 0.61563 0.74293 0.09506 0.0
C1428 C 0.56872 0.80341 0.93196 0.0
C1429 C 0.5745 0.83114 0.91491 0.0
C1430 C 0.57504 0.79374 0.97114 0.0
C1431 C 0.58724 0.81138 0.99534 0.0
C1432 C 0.59289 0.83911 0.97831 0.0
C1433 C 0.58676 0.8487 0.93912 0.0
C1434 C 0.5978 0.81036 0.10745 0.0
C1435 C 0.60673 0.78268 0.1185 0.0
C1436 C 0.59162 0.81941 0.06819 0.0
C1437 C 0.59388 0.80123 1.03786 0.0
C1438 C 0.6027 0.77345 0.04889 0.0
C1439 C 0.60915 0.76443 0.08826 0.0
H1440 H 0.65409 0.61761 0.84743 0.0
H1441 H 0.57018 0.59441 0.89699 0.0
H1442 H 0.6679 0.61834 0.91476 0.0
H1443 H 0.5836 0.59611 0.96397 0.0
H1444 H 0.61491 0.59057 0.08183 0.0
H1445 H 0.61274 0.57596 1.01539 0.0
H1446 H 0.65453 0.65197 0.96314 0.0
H1447 H 0.65772 0.66593 1.02942 0.0
C1448 C 0.63881 0.61214 0.87278 0.0
C1449 C 0.61106 0.60624 0.86731 0.0
C1450 C 0.64664 0.61271 0.91114 0.0
C1451 C 0.6268 0.60735 0.94441 0.0
C1452 C 0.59943 0.59995 0.93887 0.0
C1453 C 0.59164 0.59937 0.9006 0.0
C1454 C 0.6244 0.60365 0.05614 0.0
C1455 C 0.6362 0.62947 0.06048 0.0
C1456 C 0.62298 0.59541 1.01824 0.0
C1457 C 0.63329 0.61293 0.98428 0.0
C1458 C 0.6467 0.6379 0.98884 0.0
C1459 C 0.64819 0.64607 1.02668 0.0
H1460 H 0.56583 0.37747 0.25639 0.0
H1461 H 0.65294 0.36718 0.27796 0.0
H1462 H 0.57833 0.37248 0.18634 0.0
H1463 H 0.66571 0.36488 0.20719 0.0
H1464 H 0.6715 0.32017 0.09419 0.0
H1465 H 0.66154 0.33104 0.16264 0.0
H1466 H 0.6006 0.39329 0.12511 0.0
H1467 H 0.60995 0.38141 0.05666 0.0
C1468 C 0.5877 0.37447 0.24611 0.0
C1469 C 0.60836 0.37231 0.27285 0.0
C1470 C 0.59491 0.37213 0.20579 0.0
C1471 C 0.62301 0.3682 0.19125 0.0
C1472 C 0.64382 0.36742 0.21765 0.0
C1473 C 0.63654 0.36918 0.25813 0.0
C1474 C 0.65634 0.3365 0.10059 0.0
C1475 C 0.64155 0.35011 0.07043 0.0
C1476 C 0.65067 0.34281 0.13972 0.0
C1477 C 0.63035 0.36312 0.14925 0.0
C1478 C 0.61611 0.37729 0.11875 0.0
C1479 C 0.62152 0.37066 0.07965 0.0
H1480 H 0.93635 0.40873 0.20924 0.0
H1481 H 0.93958 0.32015 0.19738 0.0
H1482 H 0.90448 0.40025 0.26994 0.0
H1483 H 0.90772 0.31164 0.25859 0.0
H1484 H 0.90961 0.36291 0.40262 0.0
H1485 H 0.92482 0.37445 0.33206 0.0
H1486 H 0.85948 0.32282 0.30092 0.0
H1487 H 0.84414 0.31116 0.37215 0.0
C1488 C 0.92936 0.38757 0.21886 0.0
C1489 C 0.94066 0.36502 0.19924 0.0
C1490 C 0.91122 0.38274 0.25353 0.0
C1491 C 0.90423 0.35531 0.26911 0.0
C1492 C 0.91284 0.333 0.24697 0.0
C1493 C 0.931 0.33786 0.21199 0.0
C1494 C 0.89828 0.35433 0.3807 0.0
C1495 C 0.87568 0.33632 0.3926 0.0
C1496 C 0.90679 0.36108 0.34041 0.0
C1497 C 0.89298 0.34978 0.31125 0.0
C1498 C 0.87021 0.33192 0.32299 0.0
C1499 C 0.86142 0.32542 0.36351 0.0
H1500 H 0.86509 0.58669 0.69093 0.0
H1501 H 0.95018 0.59456 0.63584 0.0
H1502 H 0.84785 0.59635 0.62569 0.0
H1503 H 0.93325 0.60649 0.57154 0.0
H1504 H 0.90685 0.64591 0.46538 0.0
H1505 H 0.91054 0.60543 0.51438 0.0
H1506 H 0.84577 0.64095 0.59306 0.0
H1507 H 0.84111 0.68004 0.54369 0.0
C1508 C 0.88012 0.5897 0.66476 0.0
C1509 C 0.90892 0.59089 0.66844 0.0
C1510 C 0.87027 0.59547 0.62738 0.0
C1511 C 0.88904 0.60325 0.59345 0.0
C1512 C 0.91798 0.60075 0.59674 0.0
C1513 C 0.92779 0.59443 0.63387 0.0
C1514 C 0.89281 0.64452 0.49266 0.0
C1515 C 0.87467 0.66675 0.50166 0.0
C1516 C 0.89493 0.62134 0.52076 0.0
C1517 C 0.87929 0.62038 0.55838 0.0
C1518 C 0.85841 0.64082 0.56472 0.0
C1519 C 0.85607 0.6637 0.53655 0.0
H1520 H 0.42732 0.32611 0.41526 0.0
H1521 H 0.50425 0.35821 0.35152 0.0
H1522 H 0.41205 0.31324 0.35345 0.0
H1523 H 0.48957 0.34442 0.28963 0.0
H1524 H 0.44897 0.33734 0.17493 0.0
H1525 H 0.46363 0.35049 0.23648 0.0
H1526 H 0.41248 0.28526 0.30305 0.0
H1527 H 0.39603 0.27346 0.24163 0.0
C1528 C 0.44105 0.33071 0.38801 0.0
C1529 C 0.46703 0.34382 0.38912 0.0
C1530 C 0.43236 0.32284 0.35207 0.0
C1531 C 0.44921 0.32759 0.3152 0.0
C1532 C 0.4753 0.34067 0.31644 0.0
C1533 C 0.48396 0.3486 0.35245 0.0
C1534 C 0.44023 0.32586 0.20244 0.0
C1535 C 0.4207 0.3042 0.20182 0.0
C1536 C 0.44925 0.33325 0.23845 0.0
C1537 C 0.43961 0.31922 0.27607 0.0
C1538 C 0.42043 0.29726 0.27552 0.0
C1539 C 0.41117 0.29004 0.23949 0.0
H1540 H 0.42648 0.65788 1.01246 0.0
H1541 H 0.38413 0.72646 0.94969 0.0
H1542 H 0.44585 0.64226 0.94988 0.0
H1543 H 0.40393 0.71044 0.88592 0.0
H1544 H 0.41892 0.65528 0.78181 0.0
H1545 H 0.40121 0.67321 0.84363 0.0
H1546 H 0.47941 0.65151 0.892 0.0
H1547 H 0.49766 0.63362 0.82892 0.0
C1548 C 0.42101 0.66974 0.9853 0.0
C1549 C 0.40314 0.69348 0.98685 0.0
C1550 C 0.4326 0.66077 0.949 0.0
C1551 C 0.42679 0.6749 0.91226 0.0
C1552 C 0.40883 0.69867 0.91344 0.0
C1553 C 0.39735 0.70793 0.95014 0.0
C1554 C 0.43254 0.65386 0.80553 0.0
C1555 C 0.45985 0.64225 0.7999 0.0
C1556 C 0.42229 0.66468 0.84119 0.0
C1557 C 0.43864 0.6641 0.87336 0.0
C1558 C 0.46588 0.65218 0.86823 0.0
C1559 C 0.4764 0.64165 0.83201 0.0
H1560 H 0.0775 0.66351 0.50328 0.0
H1561 H 0.12657 0.72638 0.54545 0.0
H1562 H 0.0615 0.64598 0.57109 0.0
H1563 H 0.10992 0.70889 0.61445 0.0
H1564 H 0.09568 0.65582 0.73516 0.0
H1565 H 0.11158 0.6737 0.6673 0.0
H1566 H 0.03262 0.65115 0.62943 0.0
H1567 H 0.01675 0.63258 0.69816 0.0
C1568 C 0.08507 0.67376 0.527 0.0
C1569 C 0.10376 0.69652 0.51805 0.0
C1570 C 0.07546 0.66369 0.56647 0.0
C1571 C 0.084 0.67578 0.59925 0.0
C1572 C 0.10289 0.6985 0.5905 0.0
C1573 C 0.11256 0.7087 0.55065 0.0
C1574 C 0.08159 0.65425 0.71252 0.0
C1575 C 0.05482 0.64217 0.72283 0.0
C1576 C 0.09075 0.66502 0.67315 0.0
C1577 C 0.07366 0.66429 0.64191 0.0
C1578 C 0.04688 0.65194 0.65203 0.0
C1579 C 0.03763 0.64112 0.69173 0.0
H1580 H 0.06695 0.28403 0.4144 0.0
H1581 H 0.07494 0.36962 0.4387 0.0
H1582 H 0.07681 0.2681 0.48152 0.0
H1583 H 0.0874 0.35379 0.50432 0.0
H1584 H 0.09772 0.32363 0.63334 0.0
H1585 H 0.08541 0.33912 0.56729 0.0
H1586 H 0.09873 0.25503 0.5343 0.0
H1587 H 0.10963 0.23954 0.60184 0.0
C1588 C 0.07081 0.29978 0.43363 0.0
C1589 C 0.06994 0.32855 0.41925 0.0
C1590 C 0.07713 0.29038 0.47298 0.0
C1591 C 0.08347 0.3091 0.50041 0.0
C1592 C 0.08256 0.3379 0.48591 0.0
C1593 C 0.07576 0.34729 0.44685 0.0
C1594 C 0.09829 0.30834 0.612 0.0
C1595 C 0.10524 0.28019 0.62375 0.0
C1596 C 0.09123 0.31739 0.57309 0.0
C1597 C 0.09098 0.2989 0.54315 0.0
C1598 C 0.09812 0.27059 0.55513 0.0
C1599 C 0.10493 0.26148 0.59439 0.0
loop_
_geom_bond_atom_site_label_1
_geom_bond_atom_site_label_2
_geom_bond_distance
_geom_bond_site_symmetry_2
_ccdc_geom_bond_type
Tb0 C9 2.764 . S
Tb0 O10 2.325 1_655 S
Tb0 O13 2.286 1_655 S
Tb0 O17 2.322 . S
Tb0 O18 2.349 . S
Tb0 O21 2.415 . S
Tb0 O22 2.399 . S
Tb1 O11 2.322 . S
Tb1 O12 2.349 . S
Tb1 O14 2.415 . S
Tb1 O15 2.399 . S
Tb1 O16 2.325 . S
Tb1 O19 2.303 . S
Tb1 C30 2.764 . S
C2 O18 1.261 1_455 S
C2 O19 1.257 . S
C3 C6 1.358 1_554 S
C3 C7 1.332 1_554 S
C3 C9 1.504 . S
C4 C5 1.373 . S
C4 C8 1.308 . S
C5 C4 1.373 . S
C5 C6 1.429 . S
C5 H32 0.932 . S
C6 C3 1.358 1_556 S
C6 C5 1.429 . S
C6 H33 0.930 1_556 S
C7 C3 1.332 1_556 S
C7 C8 1.394 . S
C7 H34 0.932 . S
C8 C4 1.308 . S
C8 C7 1.394 . S
C8 H35 0.929 . S
C9 Tb0 2.764 . S
C9 C3 1.504 . S
C9 O21 1.239 . S
C9 O22 1.263 . S
O10 Tb0 2.325 1_455 S
O10 C20 1.236 . S
O11 Tb1 2.322 . S
O11 C20 1.257 . S
O12 Tb1 2.349 . S
O12 C23 1.261 . S
O13 Tb0 2.286 1_455 S
O13 C23 1.273 . S
O14 Tb1 2.415 . S
O14 C30 1.239 . S
O15 Tb1 2.399 . S
O15 C30 1.263 . S
O16 Tb1 2.325 . S
O16 C31 1.236 1_455 S
O17 Tb0 2.322 . S
O17 C31 1.257 . S
O18 Tb0 2.349 . S
O18 C2 1.261 1_655 S
O19 Tb1 2.303 . S
O19 C2 1.257 . S
C20 O10 1.236 . S
C20 O11 1.257 . S
O21 Tb0 2.415 . S
O21 C9 1.239 . S
O22 Tb0 2.399 . S
O22 C9 1.263 . S
C23 O12 1.261 . S
C23 O13 1.273 . S
C24 C27 1.358 . S
C24 C28 1.332 . S
C24 C30 1.504 . S
C25 C26 1.373 . S
C25 C29 1.308 . S
C26 C25 1.373 . S
C26 C27 1.429 . S
C26 H36 0.932 . S
C27 C24 1.358 . S
C27 C26 1.429 . S
C27 H37 0.930 . S
C28 C24 1.332 . S
C28 C29 1.394 . S
C28 H38 0.932 . S
C29 C25 1.308 . S
C29 C28 1.394 . S
C29 H39 0.929 . S
C30 Tb1 2.764 . S
C30 O14 1.239 . S
C30 O15 1.263 . S
C30 C24 1.504 . S
C31 O16 1.236 1_655 S
C31 O17 1.257 . S
H32 C5 0.932 . S
H33 C6 0.930 1_554 S
H34 C7 0.932 . S
H35 C8 0.929 . S
H36 C26 0.932 . S
H37 C27 0.930 . S
H38 C28 0.932 . S
H39 C29 0.929 . S
Tb40 C49 2.764 . S
Tb40 O50 2.325 . S
Tb40 O53 2.303 . S
Tb40 O57 2.322 . S
Tb40 O58 2.349 . S
Tb40 O61 2.415 . S
Tb40 O62 2.399 . S
Tb41 O51 2.322 . S
Tb41 O52 2.349 . S
Tb41 O54 2.415 . S
Tb41 O55 2.399 . S
Tb41 O56 2.325 . S
Tb41 O59 2.303 . S
Tb41 C70 2.764 . S
C42 O58 1.261 . S
C42 O59 1.257 . S
C43 C46 1.358 . S
C43 C47 1.332 . S
C43 C49 1.504 . S
C44 C45 1.373 . S
C44 C48 1.308 . S
C45 C44 1.373 . S
C45 C46 1.429 . S
C45 H72 0.932 . S
C46 C43 1.358 . S
C46 C45 1.429 . S
C46 H73 0.930 . S
C47 C43 1.332 . S
C47 C48 1.394 . S
C47 H74 0.932 . S
C48 C44 1.308 . S
C48 C47 1.394 . S
C48 H75 0.929 . S
C49 Tb40 2.764 . S
C49 C43 1.504 . S
C49 O61 1.239 . S
C49 O62 1.263 . S
O50 Tb40 2.325 . S
O50 C60 1.236 . S
O51 Tb41 2.322 . S
O51 C60 1.257 . S
O52 Tb41 2.349 . S
O52 C63 1.261 . S
O53 Tb40 2.303 . S
O53 C63 1.257 . S
O54 Tb41 2.415 . S
O54 C70 1.239 . S
O55 Tb41 2.399 . S
O55 C70 1.263 . S
O56 Tb41 2.325 . S
O56 C71 1.236 . S
O57 Tb40 2.322 . S
O57 C71 1.257 . S
O58 Tb40 2.349 . S
O58 C42 1.261 . S
O59 Tb41 2.303 . S
O59 C42 1.257 . S
C60 O50 1.236 . S
C60 O51 1.257 . S
O61 Tb40 2.415 . S
O61 C49 1.239 . S
O62 Tb40 2.399 . S
O62 C49 1.263 . S
C63 O52 1.261 . S
C63 O53 1.257 . S
C64 C67 1.358 . S
C64 C68 1.332 . S
C64 C70 1.504 . S
C65 C66 1.373 . S
C65 C69 1.308 . S
C66 C65 1.373 . S
C66 C67 1.429 . S
C66 H76 0.932 . S
C67 C64 1.358 . S
C67 C66 1.429 . S
C67 H77 0.930 . S
C68 C64 1.332 . S
C68 C69 1.394 . S
C68 H78 0.932 . S
C69 C65 1.308 . S
C69 C68 1.394 . S
C69 H79 0.929 . S
C70 Tb41 2.764 . S
C70 O54 1.239 . S
C70 O55 1.263 . S
C70 C64 1.504 . S
C71 O56 1.236 . S
C71 O57 1.257 . S
H72 C45 0.932 . S
H73 C46 0.930 . S
H74 C47 0.932 . S
H75 C48 0.929 . S
H76 C66 0.932 . S
H77 C67 0.930 . S
H78 C68 0.932 . S
H79 C69 0.929 . S
Tb80 C89 2.764 . S
Tb80 O90 2.325 . S
Tb80 O93 2.303 . S
Tb80 O97 2.322 . S
Tb80 O98 2.349 . S
Tb80 O101 2.415 . S
Tb80 O102 2.399 . S
Tb81 O91 2.322 . S
Tb81 O92 2.349 . S
Tb81 O94 2.415 . S
Tb81 O95 2.399 . S
Tb81 O96 2.325 . S
Tb81 O99 2.303 . S
Tb81 C110 2.764 . S
C82 O98 1.261 . S
C82 O99 1.257 . S
C83 C86 1.358 . S
C83 C87 1.332 . S
C83 C89 1.504 . S
C84 C85 1.373 . S
C84 C88 1.308 . S
C85 C84 1.373 . S
C85 C86 1.429 . S
C85 H112 0.932 . S
C86 C83 1.358 . S
C86 C85 1.429 . S
C86 H113 0.930 . S
C87 C83 1.332 . S
C87 C88 1.394 . S
C87 H114 0.932 . S
C88 C84 1.308 . S
C88 C87 1.394 . S
C88 H115 0.929 . S
C89 Tb80 2.764 . S
C89 C83 1.504 . S
C89 O101 1.239 . S
C89 O102 1.263 . S
O90 Tb80 2.325 . S
O90 C100 1.236 . S
O91 Tb81 2.322 . S
O91 C100 1.257 . S
O92 Tb81 2.349 . S
O92 C103 1.261 . S
O93 Tb80 2.303 . S
O93 C103 1.257 . S
O94 Tb81 2.415 . S
O94 C110 1.239 . S
O95 Tb81 2.399 . S
O95 C110 1.263 . S
O96 Tb81 2.325 . S
O96 C111 1.236 . S
O97 Tb80 2.322 . S
O97 C111 1.257 . S
O98 Tb80 2.349 . S
O98 C82 1.261 . S
O99 Tb81 2.303 . S
O99 C82 1.257 . S
C100 O90 1.236 . S
C100 O91 1.257 . S
O101 Tb80 2.415 . S
O101 C89 1.239 . S
O102 Tb80 2.399 . S
O102 C89 1.263 . S
C103 O92 1.261 . S
C103 O93 1.257 . S
C104 C107 1.358 . S
C104 C108 1.332 . S
C104 C110 1.504 . S
C105 C106 1.373 . S
C105 C109 1.308 . S
C106 C105 1.373 . S
C106 C107 1.429 . S
C106 H116 0.932 . S
C107 C104 1.358 . S
C107 C106 1.429 . S
C107 H117 0.930 . S
C108 C104 1.332 . S
C108 C109 1.394 . S
C108 H118 0.932 . S
C109 C105 1.308 . S
C109 C108 1.394 . S
C109 H119 0.929 . S
C110 Tb81 2.764 . S
C110 O94 1.239 . S
C110 O95 1.263 . S
C110 C104 1.504 . S
C111 O96 1.236 . S
C111 O97 1.257 . S
H112 C85 0.932 . S
H113 C86 0.930 . S
H114 C87 0.932 . S
H115 C88 0.929 . S
H116 C106 0.932 . S
H117 C107 0.930 . S
H118 C108 0.932 . S
H119 C109 0.929 . S
Tb120 C129 2.764 . S
Tb120 O130 2.325 . S
Tb120 O133 2.303 . S
Tb120 O137 2.322 . S
Tb120 O138 2.349 . S
Tb120 O141 2.415 . S
Tb120 O142 2.399 . S
Tb121 O131 2.322 . S
Tb121 O132 2.349 . S
Tb121 O134 2.415 . S
Tb121 O135 2.399 . S
Tb121 O136 2.325 . S
Tb121 O139 2.303 . S
Tb121 C150 2.764 . S
C122 O138 1.261 . S
C122 O139 1.257 . S
C123 C126 1.358 . S
C123 C127 1.332 . S
C123 C129 1.504 1_554 S
C124 C125 1.373 . S
C124 C128 1.308 . S
C125 C124 1.373 . S
C125 C126 1.429 . S
C125 H152 0.932 . S
C126 C123 1.358 . S
C126 C125 1.429 . S
C126 H153 0.930 . S
C127 C123 1.332 . S
C127 C128 1.394 . S
C127 H154 0.932 . S
C128 C124 1.308 . S
C128 C127 1.394 . S
C128 H155 0.929 . S
C129 Tb120 2.764 . S
C129 C123 1.504 1_556 S
C129 O141 1.239 . S
C129 O142 1.263 . S
O130 Tb120 2.325 . S
O130 C140 1.236 . S
O131 Tb121 2.322 . S
O131 C140 1.257 . S
O132 Tb121 2.349 . S
O132 C143 1.261 . S
O133 Tb120 2.303 . S
O133 C143 1.257 . S
O134 Tb121 2.415 . S
O134 C150 1.239 . S
O135 Tb121 2.399 . S
O135 C150 1.263 . S
O136 Tb121 2.325 . S
O136 C151 1.236 . S
O137 Tb120 2.322 . S
O137 C151 1.257 . S
O138 Tb120 2.349 . S
O138 C122 1.261 . S
O139 Tb121 2.303 . S
O139 C122 1.257 . S
C140 O130 1.236 . S
C140 O131 1.257 . S
O141 Tb120 2.415 . S
O141 C129 1.239 . S
O142 Tb120 2.399 . S
O142 C129 1.263 . S
C143 O132 1.261 . S
C143 O133 1.257 . S
C144 C147 1.358 . S
C144 C148 1.332 . S
C144 C150 1.504 . S
C145 C146 1.373 . S
C145 C149 1.308 . S
C146 C145 1.373 . S
C146 C147 1.429 . S
C146 H156 0.932 . S
C147 C144 1.358 . S
C147 C146 1.429 . S
C147 H157 0.930 . S
C148 C144 1.332 . S
C148 C149 1.394 . S
C148 H158 0.932 . S
C149 C145 1.308 . S
C149 C148 1.394 . S
C149 H159 0.929 . S
C150 Tb121 2.764 . S
C150 O134 1.239 . S
C150 O135 1.263 . S
C150 C144 1.504 . S
C151 O136 1.236 . S
C151 O137 1.257 . S
H152 C125 0.932 . S
H153 C126 0.930 . S
H154 C127 0.932 . S
H155 C128 0.929 . S
H156 C146 0.932 . S
H157 C147 0.930 . S
H158 C148 0.932 . S
H159 C149 0.929 . S
Tb160 C169 2.764 1_556 S
Tb160 O170 2.325 1_655 S
Tb160 O173 2.303 . S
Tb160 O177 2.322 . S
Tb160 O178 2.349 . S
Tb160 O181 2.415 1_556 S
Tb160 O182 2.399 1_556 S
Tb161 O171 2.322 . S
Tb161 O172 2.349 . S
Tb161 O174 2.415 . S
Tb161 O175 2.399 . S
Tb161 O176 2.325 1_455 S
Tb161 O179 2.303 . S
Tb161 C190 2.764 . S
C162 O178 1.261 . S
C162 O179 1.257 1_655 S
C163 C166 1.358 . S
C163 C167 1.332 . S
C163 C169 1.504 . S
C164 C165 1.373 . S
C164 C168 1.308 . S
C165 C164 1.373 . S
C165 C166 1.429 . S
C165 H192 0.932 . S
C166 C163 1.358 . S
C166 C165 1.429 . S
C166 H193 0.930 . S
C167 C163 1.332 . S
C167 C168 1.394 . S
C167 H194 0.932 . S
C168 C164 1.308 . S
C168 C167 1.394 . S
C168 H195 0.929 . S
C169 Tb160 2.764 1_554 S
C169 C163 1.504 . S
C169 O181 1.239 . S
C169 O182 1.263 . S
O170 Tb160 2.325 1_455 S
O170 C180 1.236 . S
O171 Tb161 2.322 . S
O171 C180 1.257 . S
O172 Tb161 2.349 . S
O172 C183 1.261 . S
O173 Tb160 2.303 . S
O173 C183 1.257 1_655 S
O174 Tb161 2.415 . S
O174 C190 1.239 . S
O175 Tb161 2.399 . S
O175 C190 1.263 . S
O176 Tb161 2.325 1_655 S
O176 C191 1.236 . S
O177 Tb160 2.322 . S
O177 C191 1.257 . S
O178 Tb160 2.349 . S
O178 C162 1.261 . S
O179 Tb161 2.303 . S
O179 C162 1.257 1_455 S
C180 O170 1.236 . S
C180 O171 1.257 . S
O181 Tb160 2.415 1_554 S
O181 C169 1.239 . S
O182 Tb160 2.399 1_554 S
O182 C169 1.263 . S
C183 O172 1.261 . S
C183 O173 1.257 1_455 S
C184 C187 1.358 . S
C184 C188 1.332 . S
C184 C190 1.504 . S
C185 C186 1.373 . S
C185 C189 1.308 . S
C186 C185 1.373 . S
C186 C187 1.429 . S
C186 H196 0.932 . S
C187 C184 1.358 . S
C187 C186 1.429 . S
C187 H197 0.930 . S
C188 C184 1.332 . S
C188 C189 1.394 . S
C188 H198 0.932 . S
C189 C185 1.308 . S
C189 C188 1.394 . S
C189 H199 0.929 . S
C190 Tb161 2.764 . S
C190 O174 1.239 . S
C190 O175 1.263 . S
C190 C184 1.504 . S
C191 O176 1.236 . S
C191 O177 1.257 . S
H192 C165 0.932 . S
H193 C166 0.930 . S
H194 C167 0.932 . S
H195 C168 0.929 . S
H196 C186 0.932 . S
H197 C187 0.930 . S
H198 C188 0.932 . S
H199 C189 0.929 . S
Tb200 C209 2.764 . S
Tb200 O210 2.325 . S
Tb200 O213 2.303 . S
Tb200 O217 2.322 . S
Tb200 O218 2.349 . S
Tb200 O221 2.415 . S
Tb200 O222 2.399 . S
Tb201 O211 2.322 . S
Tb201 O212 2.349 . S
Tb201 O214 2.415 1_554 S
Tb201 O215 2.399 1_554 S
Tb201 O216 2.325 . S
Tb201 O219 2.303 . S
Tb201 C230 2.764 1_554 S
C202 O218 1.261 . S
C202 O219 1.257 . S
C203 C206 1.358 . S
C203 C207 1.332 . S
C203 C209 1.504 . S
C204 C205 1.373 . S
C204 C208 1.308 . S
C205 C204 1.373 . S
C205 C206 1.429 . S
C205 H232 0.932 . S
C206 C203 1.358 . S
C206 C205 1.429 . S
C206 H233 0.930 . S
C207 C203 1.332 . S
C207 C208 1.394 . S
C207 H234 0.932 . S
C208 C204 1.308 . S
C208 C207 1.394 . S
C208 H235 0.929 . S
C209 Tb200 2.764 . S
C209 C203 1.504 . S
C209 O221 1.239 . S
C209 O222 1.263 . S
O210 Tb200 2.325 . S
O210 C220 1.236 . S
O211 Tb201 2.322 . S
O211 C220 1.257 . S
O212 Tb201 2.349 . S
O212 C223 1.261 . S
O213 Tb200 2.303 . S
O213 C223 1.257 . S
O214 Tb201 2.415 1_556 S
O214 C230 1.239 . S
O215 Tb201 2.399 1_556 S
O215 C230 1.263 . S
O216 Tb201 2.325 . S
O216 C231 1.236 . S
O217 Tb200 2.322 . S
O217 C231 1.257 . S
O218 Tb200 2.349 . S
O218 C202 1.261 . S
O219 Tb201 2.303 . S
O219 C202 1.257 . S
C220 O210 1.236 . S
C220 O211 1.257 . S
O221 Tb200 2.415 . S
O221 C209 1.239 . S
O222 Tb200 2.399 . S
O222 C209 1.263 . S
C223 O212 1.261 . S
C223 O213 1.257 . S
C224 C227 1.358 . S
C224 C228 1.332 . S
C224 C230 1.504 . S
C225 C226 1.373 . S
C225 C229 1.308 . S
C226 C225 1.373 . S
C226 C227 1.429 . S
C226 H236 0.932 . S
C227 C224 1.358 . S
C227 C226 1.429 . S
C227 H237 0.930 . S
C228 C224 1.332 . S
C228 C229 1.394 . S
C228 H238 0.932 . S
C229 C225 1.308 . S
C229 C228 1.394 . S
C229 H239 0.929 . S
C230 Tb201 2.764 1_556 S
C230 O214 1.239 . S
C230 O215 1.263 . S
C230 C224 1.504 . S
C231 O216 1.236 . S
C231 O217 1.257 . S
H232 C205 0.932 . S
H233 C206 0.930 . S
H234 C207 0.932 . S
H235 C208 0.929 . S
H236 C226 0.932 . S
H237 C227 0.930 . S
H238 C228 0.932 . S
H239 C229 0.929 . S
Tb240 C249 2.764 . S
Tb240 O250 2.325 . S
Tb240 O253 2.303 . S
Tb240 O257 2.322 . S
Tb240 O258 2.349 . S
Tb240 O261 2.415 . S
Tb240 O262 2.399 . S
Tb241 O251 2.322 . S
Tb241 O252 2.349 . S
Tb241 O254 2.415 . S
Tb241 O255 2.399 . S
Tb241 O256 2.325 . S
Tb241 O259 2.303 . S
Tb241 C270 2.764 . S
C242 O258 1.261 . S
C242 O259 1.257 . S
C243 C246 1.358 . S
C243 C247 1.332 . S
C243 C249 1.504 . S
C244 C245 1.373 . S
C244 C248 1.308 . S
C245 C244 1.373 . S
C245 C246 1.429 . S
C245 H272 0.932 . S
C246 C243 1.358 . S
C246 C245 1.429 . S
C246 H273 0.930 . S
C247 C243 1.332 . S
C247 C248 1.394 . S
C247 H274 0.932 . S
C248 C244 1.308 . S
C248 C247 1.394 . S
C248 H275 0.929 . S
C249 Tb240 2.764 . S
C249 C243 1.504 . S
C249 O261 1.239 . S
C249 O262 1.263 . S
O250 Tb240 2.325 . S
O250 C260 1.236 . S
O251 Tb241 2.322 . S
O251 C260 1.257 . S
O252 Tb241 2.349 . S
O252 C263 1.261 . S
O253 Tb240 2.303 . S
O253 C263 1.257 . S
O254 Tb241 2.415 . S
O254 C270 1.239 . S
O255 Tb241 2.399 . S
O255 C270 1.263 . S
O256 Tb241 2.325 . S
O256 C271 1.236 . S
O257 Tb240 2.322 . S
O257 C271 1.257 . S
O258 Tb240 2.349 . S
O258 C242 1.261 . S
O259 Tb241 2.303 . S
O259 C242 1.257 . S
C260 O250 1.236 . S
C260 O251 1.257 . S
O261 Tb240 2.415 . S
O261 C249 1.239 . S
O262 Tb240 2.399 . S
O262 C249 1.263 . S
C263 O252 1.261 . S
C263 O253 1.257 . S
C264 C267 1.358 . S
C264 C268 1.332 . S
C264 C270 1.504 . S
C265 C266 1.373 . S
C265 C269 1.308 . S
C266 C265 1.373 . S
C266 C267 1.429 . S
C266 H276 0.932 . S
C267 C264 1.358 . S
C267 C266 1.429 . S
C267 H277 0.930 . S
C268 C264 1.332 . S
C268 C269 1.394 . S
C268 H278 0.932 . S
C269 C265 1.308 . S
C269 C268 1.394 . S
C269 H279 0.929 . S
C270 Tb241 2.764 . S
C270 O254 1.239 . S
C270 O255 1.263 . S
C270 C264 1.504 . S
C271 O256 1.236 . S
C271 O257 1.257 . S
H272 C245 0.932 . S
H273 C246 0.930 . S
H274 C247 0.932 . S
H275 C248 0.929 . S
H276 C266 0.932 . S
H277 C267 0.930 . S
H278 C268 0.932 . S
H279 C269 0.929 . S
Tb280 C289 2.764 . S
Tb280 O290 2.325 . S
Tb280 O293 2.303 . S
Tb280 O297 2.322 . S
Tb280 O298 2.349 . S
Tb280 O301 2.415 . S
Tb280 O302 2.399 . S
Tb281 O291 2.322 . S
Tb281 O292 2.349 . S
Tb281 O294 2.415 . S
Tb281 O295 2.399 . S
Tb281 O296 2.325 . S
Tb281 O299 2.303 . S
Tb281 C310 2.764 . S
C282 O298 1.261 . S
C282 O299 1.257 . S
C283 C286 1.358 . S
C283 C287 1.332 . S
C283 C289 1.504 . S
C284 C285 1.373 . S
C284 C288 1.308 . S
C285 C284 1.373 . S
C285 C286 1.429 . S
C285 H312 0.932 . S
C286 C283 1.358 . S
C286 C285 1.429 . S
C286 H313 0.930 . S
C287 C283 1.332 . S
C287 C288 1.394 . S
C287 H314 0.932 . S
C288 C284 1.308 . S
C288 C287 1.394 . S
C288 H315 0.929 . S
C289 Tb280 2.764 . S
C289 C283 1.504 . S
C289 O301 1.239 . S
C289 O302 1.263 . S
O290 Tb280 2.325 . S
O290 C300 1.236 . S
O291 Tb281 2.322 . S
O291 C300 1.257 . S
O292 Tb281 2.349 . S
O292 C303 1.261 . S
O293 Tb280 2.303 . S
O293 C303 1.257 . S
O294 Tb281 2.415 . S
O294 C310 1.239 . S
O295 Tb281 2.399 . S
O295 C310 1.263 . S
O296 Tb281 2.325 . S
O296 C311 1.236 . S
O297 Tb280 2.322 . S
O297 C311 1.257 . S
O298 Tb280 2.349 . S
O298 C282 1.261 . S
O299 Tb281 2.303 . S
O299 C282 1.257 . S
C300 O290 1.236 . S
C300 O291 1.257 . S
O301 Tb280 2.415 . S
O301 C289 1.239 . S
O302 Tb280 2.399 . S
O302 C289 1.263 . S
C303 O292 1.261 . S
C303 O293 1.257 . S
C304 C307 1.358 . S
C304 C308 1.332 . S
C304 C310 1.504 . S
C305 C306 1.373 . S
C305 C309 1.308 . S
C306 C305 1.373 . S
C306 C307 1.429 . S
C306 H316 0.932 . S
C307 C304 1.358 . S
C307 C306 1.429 . S
C307 H317 0.930 . S
C308 C304 1.332 . S
C308 C309 1.394 . S
C308 H318 0.932 . S
C309 C305 1.308 . S
C309 C308 1.394 . S
C309 H319 0.929 . S
C310 Tb281 2.764 . S
C310 O294 1.239 . S
C310 O295 1.263 . S
C310 C304 1.504 . S
C311 O296 1.236 . S
C311 O297 1.257 . S
H312 C285 0.932 . S
H313 C286 0.930 . S
H314 C287 0.932 . S
H315 C288 0.929 . S
H316 C306 0.932 . S
H317 C307 0.930 . S
H318 C308 0.932 . S
H319 C309 0.929 . S
Tb320 C329 2.764 . S
Tb320 O330 2.325 . S
Tb320 O333 2.303 . S
Tb320 O337 2.322 . S
Tb320 O338 2.349 . S
Tb320 O341 2.415 . S
Tb320 O342 2.399 . S
Tb321 O331 2.322 . S
Tb321 O332 2.349 . S
Tb321 O334 2.415 . S
Tb321 O335 2.399 . S
Tb321 O336 2.325 . S
Tb321 O339 2.303 . S
Tb321 C350 2.764 . S
C322 O338 1.261 . S
C322 O339 1.257 . S
C323 C326 1.358 . S
C323 C327 1.332 . S
C323 C329 1.504 . S
C324 C325 1.373 . S
C324 C328 1.308 . S
C325 C324 1.373 . S
C325 C326 1.429 . S
C325 H352 0.932 . S
C326 C323 1.358 . S
C326 C325 1.429 . S
C326 H353 0.930 . S
C327 C323 1.332 . S
C327 C328 1.394 . S
C327 H354 0.932 . S
C328 C324 1.308 . S
C328 C327 1.394 . S
C328 H355 0.929 . S
C329 Tb320 2.764 . S
C329 C323 1.504 . S
C329 O341 1.239 . S
C329 O342 1.263 . S
O330 Tb320 2.325 . S
O330 C340 1.236 . S
O331 Tb321 2.322 . S
O331 C340 1.257 . S
O332 Tb321 2.349 . S
O332 C343 1.261 . S
O333 Tb320 2.303 . S
O333 C343 1.257 . S
O334 Tb321 2.415 . S
O334 C350 1.239 . S
O335 Tb321 2.399 . S
O335 C350 1.263 . S
O336 Tb321 2.325 . S
O336 C351 1.236 . S
O337 Tb320 2.322 . S
O337 C351 1.257 . S
O338 Tb320 2.349 . S
O338 C322 1.261 . S
O339 Tb321 2.303 . S
O339 C322 1.257 . S
C340 O330 1.236 . S
C340 O331 1.257 . S
O341 Tb320 2.415 . S
O341 C329 1.239 . S
O342 Tb320 2.399 . S
O342 C329 1.263 . S
C343 O332 1.261 . S
C343 O333 1.257 . S
C344 C347 1.358 . S
C344 C348 1.332 . S
C344 C350 1.504 . S
C345 C346 1.373 . S
C345 C349 1.308 . S
C346 C345 1.373 . S
C346 C347 1.429 . S
C346 H356 0.932 . S
C347 C344 1.358 . S
C347 C346 1.429 . S
C347 H357 0.930 . S
C348 C344 1.332 . S
C348 C349 1.394 . S
C348 H358 0.932 . S
C349 C345 1.308 . S
C349 C348 1.394 . S
C349 H359 0.929 . S
C350 Tb321 2.764 . S
C350 O334 1.239 . S
C350 O335 1.263 . S
C350 C344 1.504 . S
C351 O336 1.236 . S
C351 O337 1.257 . S
H352 C325 0.932 . S
H353 C326 0.930 . S
H354 C327 0.932 . S
H355 C328 0.929 . S
H356 C346 0.932 . S
H357 C347 0.930 . S
H358 C348 0.932 . S
H359 C349 0.929 . S
Tb360 C369 2.764 . S
Tb360 O370 2.325 . S
Tb360 O373 2.303 . S
Tb360 O377 2.322 . S
Tb360 O378 2.349 . S
Tb360 O381 2.415 . S
Tb360 O382 2.399 . S
Tb361 O371 2.322 . S
Tb361 O372 2.349 . S
Tb361 O374 2.415 . S
Tb361 O375 2.399 . S
Tb361 O376 2.325 . S
Tb361 O379 2.303 . S
Tb361 C390 2.764 . S
C362 O378 1.261 . S
C362 O379 1.257 . S
C363 C366 1.358 . S
C363 C367 1.332 . S
C363 C369 1.504 . S
C364 C365 1.373 . S
C364 C368 1.308 . S
C365 C364 1.373 . S
C365 C366 1.429 . S
C365 H392 0.932 . S
C366 C363 1.358 . S
C366 C365 1.429 . S
C366 H393 0.930 . S
C367 C363 1.332 . S
C367 C368 1.394 . S
C367 H394 0.932 . S
C368 C364 1.308 . S
C368 C367 1.394 . S
C368 H395 0.929 . S
C369 Tb360 2.764 . S
C369 C363 1.504 . S
C369 O381 1.239 . S
C369 O382 1.263 . S
O370 Tb360 2.325 . S
O370 C380 1.236 . S
O371 Tb361 2.322 . S
O371 C380 1.257 . S
O372 Tb361 2.349 . S
O372 C383 1.261 . S
O373 Tb360 2.303 . S
O373 C383 1.257 . S
O374 Tb361 2.415 . S
O374 C390 1.239 . S
O375 Tb361 2.399 . S
O375 C390 1.263 . S
O376 Tb361 2.325 . S
O376 C391 1.236 . S
O377 Tb360 2.322 . S
O377 C391 1.257 . S
O378 Tb360 2.349 . S
O378 C362 1.261 . S
O379 Tb361 2.303 . S
O379 C362 1.257 . S
C380 O370 1.236 . S
C380 O371 1.257 . S
O381 Tb360 2.415 . S
O381 C369 1.239 . S
O382 Tb360 2.399 . S
O382 C369 1.263 . S
C383 O372 1.261 . S
C383 O373 1.257 . S
C384 C387 1.358 . S
C384 C388 1.332 . S
C384 C390 1.504 . S
C385 C386 1.373 1_556 S
C385 C389 1.308 . S
C386 C385 1.373 1_554 S
C386 C387 1.429 . S
C386 H396 0.932 . S
C387 C384 1.358 . S
C387 C386 1.429 . S
C387 H397 0.930 . S
C388 C384 1.332 . S
C388 C389 1.394 1_554 S
C388 H398 0.932 . S
C389 C385 1.308 . S
C389 C388 1.394 1_556 S
C389 H399 0.929 . S
C390 Tb361 2.764 . S
C390 O374 1.239 . S
C390 O375 1.263 . S
C390 C384 1.504 . S
C391 O376 1.236 . S
C391 O377 1.257 . S
H392 C365 0.932 . S
H393 C366 0.930 . S
H394 C367 0.932 . S
H395 C368 0.929 . S
H396 C386 0.932 . S
H397 C387 0.930 . S
H398 C388 0.932 . S
H399 C389 0.929 . S
Tb400 C409 2.764 . S
Tb400 O410 2.325 . S
Tb400 O413 2.303 . S
Tb400 O417 2.322 . S
Tb400 O418 2.349 . S
Tb400 O421 2.415 . S
Tb400 O422 2.399 . S
Tb401 O411 2.322 . S
Tb401 O412 2.349 . S
Tb401 O414 2.415 . S
Tb401 O415 2.399 . S
Tb401 O416 2.325 . S
Tb401 O419 2.303 . S
Tb401 C430 2.764 . S
C402 O418 1.261 . S
C402 O419 1.257 . S
C403 C406 1.358 . S
C403 C407 1.332 . S
C403 C409 1.504 . S
C404 C405 1.373 . S
C404 C408 1.308 . S
C405 C404 1.373 . S
C405 C406 1.429 . S
C405 H432 0.932 . S
C406 C403 1.358 . S
C406 C405 1.429 . S
C406 H433 0.930 . S
C407 C403 1.332 . S
C407 C408 1.394 . S
C407 H434 0.932 . S
C408 C404 1.308 . S
C408 C407 1.394 . S
C408 H435 0.929 . S
C409 Tb400 2.764 . S
C409 C403 1.504 . S
C409 O421 1.239 . S
C409 O422 1.263 . S
O410 Tb400 2.325 . S
O410 C420 1.236 . S
O411 Tb401 2.322 . S
O411 C420 1.257 . S
O412 Tb401 2.349 . S
O412 C423 1.261 . S
O413 Tb400 2.303 . S
O413 C423 1.257 . S
O414 Tb401 2.415 . S
O414 C430 1.239 . S
O415 Tb401 2.399 . S
O415 C430 1.263 . S
O416 Tb401 2.325 . S
O416 C431 1.236 . S
O417 Tb400 2.322 . S
O417 C431 1.257 . S
O418 Tb400 2.349 . S
O418 C402 1.261 . S
O419 Tb401 2.303 . S
O419 C402 1.257 . S
C420 O410 1.236 . S
C420 O411 1.257 . S
O421 Tb400 2.415 . S
O421 C409 1.239 . S
O422 Tb400 2.399 . S
O422 C409 1.263 . S
C423 O412 1.261 . S
C423 O413 1.257 . S
C424 C427 1.358 . S
C424 C428 1.332 1_556 S
C424 C430 1.504 . S
C425 C426 1.373 . S
C425 C429 1.308 . S
C426 C425 1.373 . S
C426 C427 1.429 1_554 S
C426 H436 0.932 . S
C427 C424 1.358 . S
C427 C426 1.429 1_556 S
C427 H437 0.930 . S
C428 C424 1.332 1_554 S
C428 C429 1.394 . S
C428 H438 0.932 . S
C429 C425 1.308 . S
C429 C428 1.394 . S
C429 H439 0.929 . S
C430 Tb401 2.764 . S
C430 O414 1.239 . S
C430 O415 1.263 . S
C430 C424 1.504 . S
C431 O416 1.236 . S
C431 O417 1.257 . S
H432 C405 0.932 . S
H433 C406 0.930 . S
H434 C407 0.932 . S
H435 C408 0.929 . S
H436 C426 0.932 . S
H437 C427 0.930 . S
H438 C428 0.932 . S
H439 C429 0.929 . S
Tb440 C449 2.764 . S
Tb440 O450 2.325 . S
Tb440 O453 2.303 . S
Tb440 O457 2.322 . S
Tb440 O458 2.349 . S
Tb440 O461 2.415 . S
Tb440 O462 2.399 . S
Tb441 O451 2.322 . S
Tb441 O452 2.349 . S
Tb441 O454 2.415 . S
Tb441 O455 2.399 . S
Tb441 O456 2.325 . S
Tb441 O459 2.303 . S
Tb441 C470 2.764 . S
C442 O458 1.261 . S
C442 O459 1.257 . S
C443 C446 1.358 . S
C443 C447 1.332 . S
C443 C449 1.504 . S
C444 C445 1.373 . S
C444 C448 1.308 . S
C445 C444 1.373 . S
C445 C446 1.429 . S
C445 H472 0.932 . S
C446 C443 1.358 . S
C446 C445 1.429 . S
C446 H473 0.930 . S
C447 C443 1.332 . S
C447 C448 1.394 . S
C447 H474 0.932 . S
C448 C444 1.308 . S
C448 C447 1.394 . S
C448 H475 0.929 . S
C449 Tb440 2.764 . S
C449 C443 1.504 . S
C449 O461 1.239 . S
C449 O462 1.263 . S
O450 Tb440 2.325 . S
O450 C460 1.236 . S
O451 Tb441 2.322 . S
O451 C460 1.257 . S
O452 Tb441 2.349 . S
O452 C463 1.261 . S
O453 Tb440 2.303 . S
O453 C463 1.257 . S
O454 Tb441 2.415 . S
O454 C470 1.239 . S
O455 Tb441 2.399 . S
O455 C470 1.263 . S
O456 Tb441 2.325 . S
O456 C471 1.236 . S
O457 Tb440 2.322 . S
O457 C471 1.257 . S
O458 Tb440 2.349 . S
O458 C442 1.261 . S
O459 Tb441 2.303 . S
O459 C442 1.257 . S
C460 O450 1.236 . S
C460 O451 1.257 . S
O461 Tb440 2.415 . S
O461 C449 1.239 . S
O462 Tb440 2.399 . S
O462 C449 1.263 . S
C463 O452 1.261 . S
C463 O453 1.257 . S
C464 C467 1.358 . S
C464 C468 1.332 . S
C464 C470 1.504 . S
C465 C466 1.373 . S
C465 C469 1.308 . S
C466 C465 1.373 . S
C466 C467 1.429 . S
C466 H476 0.932 . S
C467 C464 1.358 . S
C467 C466 1.429 . S
C467 H477 0.930 . S
C468 C464 1.332 . S
C468 C469 1.394 . S
C468 H478 0.932 . S
C469 C465 1.308 . S
C469 C468 1.394 . S
C469 H479 0.929 . S
C470 Tb441 2.764 . S
C470 O454 1.239 . S
C470 O455 1.263 . S
C470 C464 1.504 . S
C471 O456 1.236 . S
C471 O457 1.257 . S
H472 C445 0.932 . S
H473 C446 0.930 . S
H474 C447 0.932 . S
H475 C448 0.929 . S
H476 C466 0.932 . S
H477 C467 0.930 . S
H478 C468 0.932 . S
H479 C469 0.929 . S
Tb480 C489 2.764 . S
Tb480 O490 2.325 . S
Tb480 O493 2.303 . S
Tb480 O497 2.322 . S
Tb480 O498 2.349 . S
Tb480 O501 2.415 . S
Tb480 O502 2.399 . S
Tb481 O491 2.322 . S
Tb481 O492 2.349 . S
Tb481 O494 2.415 . S
Tb481 O495 2.399 . S
Tb481 O496 2.325 . S
Tb481 O499 2.303 . S
Tb481 C510 2.764 . S
C482 O498 1.261 . S
C482 O499 1.257 . S
C483 C486 1.358 . S
C483 C487 1.332 . S
C483 C489 1.504 . S
C484 C485 1.373 . S
C484 C488 1.308 . S
C485 C484 1.373 . S
C485 C486 1.429 . S
C485 H512 0.932 . S
C486 C483 1.358 . S
C486 C485 1.429 . S
C486 H513 0.930 . S
C487 C483 1.332 . S
C487 C488 1.394 . S
C487 H514 0.932 . S
C488 C484 1.308 . S
C488 C487 1.394 . S
C488 H515 0.929 . S
C489 Tb480 2.764 . S
C489 C483 1.504 . S
C489 O501 1.239 . S
C489 O502 1.263 . S
O490 Tb480 2.325 . S
O490 C500 1.236 . S
O491 Tb481 2.322 . S
O491 C500 1.257 . S
O492 Tb481 2.349 . S
O492 C503 1.261 . S
O493 Tb480 2.303 . S
O493 C503 1.257 . S
O494 Tb481 2.415 . S
O494 C510 1.239 . S
O495 Tb481 2.399 . S
O495 C510 1.263 . S
O496 Tb481 2.325 . S
O496 C511 1.236 . S
O497 Tb480 2.322 . S
O497 C511 1.257 . S
O498 Tb480 2.349 . S
O498 C482 1.261 . S
O499 Tb481 2.303 . S
O499 C482 1.257 . S
C500 O490 1.236 . S
C500 O491 1.257 . S
O501 Tb480 2.415 . S
O501 C489 1.239 . S
O502 Tb480 2.399 . S
O502 C489 1.263 . S
C503 O492 1.261 . S
C503 O493 1.257 . S
C504 C507 1.358 . S
C504 C508 1.332 . S
C504 C510 1.504 . S
C505 C506 1.373 . S
C505 C509 1.308 . S
C506 C505 1.373 . S
C506 C507 1.429 . S
C506 H516 0.932 . S
C507 C504 1.358 . S
C507 C506 1.429 . S
C507 H517 0.930 . S
C508 C504 1.332 . S
C508 C509 1.394 . S
C508 H518 0.932 . S
C509 C505 1.308 . S
C509 C508 1.394 . S
C509 H519 0.929 . S
C510 Tb481 2.764 . S
C510 O494 1.239 . S
C510 O495 1.263 . S
C510 C504 1.504 . S
C511 O496 1.236 . S
C511 O497 1.257 . S
H512 C485 0.932 . S
H513 C486 0.930 . S
H514 C487 0.932 . S
H515 C488 0.929 . S
H516 C506 0.932 . S
H517 C507 0.930 . S
H518 C508 0.932 . S
H519 C509 0.929 . S
Tb520 C529 2.764 . S
Tb520 O530 2.325 . S
Tb520 O533 2.303 . S
Tb520 O537 2.322 . S
Tb520 O538 2.349 . S
Tb520 O541 2.415 . S
Tb520 O542 2.399 . S
Tb521 O531 2.322 . S
Tb521 O532 2.349 1_655 S
Tb521 O534 2.415 . S
Tb521 O535 2.399 . S
Tb521 O536 2.325 1_655 S
Tb521 O539 2.303 1_655 S
Tb521 C550 2.764 . S
C522 O538 1.261 . S
C522 O539 1.257 . S
C523 C526 1.358 . S
C523 C527 1.332 . S
C523 C529 1.504 . S
C524 C525 1.373 . S
C524 C528 1.308 . S
C525 C524 1.373 . S
C525 C526 1.429 . S
C525 H552 0.932 . S
C526 C523 1.358 . S
C526 C525 1.429 . S
C526 H553 0.930 . S
C527 C523 1.332 . S
C527 C528 1.394 . S
C527 H554 0.932 . S
C528 C524 1.308 . S
C528 C527 1.394 . S
C528 H555 0.929 . S
C529 Tb520 2.764 . S
C529 C523 1.504 . S
C529 O541 1.239 . S
C529 O542 1.263 . S
O530 Tb520 2.325 . S
O530 C540 1.236 1_455 S
O531 Tb521 2.322 . S
O531 C540 1.257 . S
O532 Tb521 2.349 1_455 S
O532 C543 1.261 . S
O533 Tb520 2.303 . S
O533 C543 1.257 . S
O534 Tb521 2.415 . S
O534 C550 1.239 . S
O535 Tb521 2.399 . S
O535 C550 1.263 . S
O536 Tb521 2.325 1_455 S
O536 C551 1.236 . S
O537 Tb520 2.322 . S
O537 C551 1.257 . S
O538 Tb520 2.349 . S
O538 C522 1.261 . S
O539 Tb521 2.303 1_455 S
O539 C522 1.257 . S
C540 O530 1.236 1_655 S
C540 O531 1.257 . S
O541 Tb520 2.415 . S
O541 C529 1.239 . S
O542 Tb520 2.399 . S
O542 C529 1.263 . S
C543 O532 1.261 . S
C543 O533 1.257 . S
C544 C547 1.358 . S
C544 C548 1.332 . S
C544 C550 1.504 1_556 S
C545 C546 1.373 . S
C545 C549 1.308 . S
C546 C545 1.373 . S
C546 C547 1.429 . S
C546 H556 0.932 . S
C547 C544 1.358 . S
C547 C546 1.429 . S
C547 H557 0.930 . S
C548 C544 1.332 . S
C548 C549 1.394 . S
C548 H558 0.932 . S
C549 C545 1.308 . S
C549 C548 1.394 . S
C549 H559 0.929 . S
C550 Tb521 2.764 . S
C550 O534 1.239 . S
C550 O535 1.263 . S
C550 C544 1.504 1_554 S
C551 O536 1.236 . S
C551 O537 1.257 . S
H552 C525 0.932 . S
H553 C526 0.930 . S
H554 C527 0.932 . S
H555 C528 0.929 . S
H556 C546 0.932 . S
H557 C547 0.930 . S
H558 C548 0.932 . S
H559 C549 0.929 . S
Tb560 C569 2.764 . S
Tb560 O570 2.325 . S
Tb560 O573 2.303 . S
Tb560 O577 2.322 . S
Tb560 O578 2.349 . S
Tb560 O581 2.415 . S
Tb560 O582 2.399 . S
Tb561 O571 2.322 . S
Tb561 O572 2.349 . S
Tb561 O574 2.415 . S
Tb561 O575 2.399 . S
Tb561 O576 2.325 . S
Tb561 O579 2.303 . S
Tb561 C590 2.764 . S
C562 O578 1.261 . S
C562 O579 1.257 . S
C563 C566 1.358 . S
C563 C567 1.332 . S
C563 C569 1.504 . S
C564 C565 1.373 . S
C564 C568 1.308 . S
C565 C564 1.373 . S
C565 C566 1.429 . S
C565 H592 0.932 . S
C566 C563 1.358 . S
C566 C565 1.429 . S
C566 H593 0.930 . S
C567 C563 1.332 . S
C567 C568 1.394 . S
C567 H594 0.932 . S
C568 C564 1.308 . S
C568 C567 1.394 . S
C568 H595 0.929 . S
C569 Tb560 2.764 . S
C569 C563 1.504 . S
C569 O581 1.239 . S
C569 O582 1.263 . S
O570 Tb560 2.325 . S
O570 C580 1.236 . S
O571 Tb561 2.322 . S
O571 C580 1.257 . S
O572 Tb561 2.349 . S
O572 C583 1.261 . S
O573 Tb560 2.303 . S
O573 C583 1.257 . S
O574 Tb561 2.415 . S
O574 C590 1.239 . S
O575 Tb561 2.399 . S
O575 C590 1.263 . S
O576 Tb561 2.325 . S
O576 C591 1.236 . S
O577 Tb560 2.322 . S
O577 C591 1.257 . S
O578 Tb560 2.349 . S
O578 C562 1.261 . S
O579 Tb561 2.303 . S
O579 C562 1.257 . S
C580 O570 1.236 . S
C580 O571 1.257 . S
O581 Tb560 2.415 . S
O581 C569 1.239 . S
O582 Tb560 2.399 . S
O582 C569 1.263 . S
C583 O572 1.261 . S
C583 O573 1.257 . S
C584 C587 1.358 . S
C584 C588 1.332 . S
C584 C590 1.504 . S
C585 C586 1.373 . S
C585 C589 1.308 . S
C586 C585 1.373 . S
C586 C587 1.429 . S
C586 H596 0.932 . S
C587 C584 1.358 . S
C587 C586 1.429 . S
C587 H597 0.930 . S
C588 C584 1.332 . S
C588 C589 1.394 . S
C588 H598 0.932 . S
C589 C585 1.308 . S
C589 C588 1.394 . S
C589 H599 0.929 . S
C590 Tb561 2.764 . S
C590 O574 1.239 . S
C590 O575 1.263 . S
C590 C584 1.504 . S
C591 O576 1.236 . S
C591 O577 1.257 . S
H592 C565 0.932 . S
H593 C566 0.930 . S
H594 C567 0.932 . S
H595 C568 0.929 . S
H596 C586 0.932 . S
H597 C587 0.930 . S
H598 C588 0.932 . S
H599 C589 0.929 . S
Tb600 C609 2.764 . S
Tb600 O610 2.325 . S
Tb600 O613 2.303 . S
Tb600 O617 2.322 . S
Tb600 O618 2.349 . S
Tb600 O621 2.415 . S
Tb600 O622 2.399 . S
Tb601 O611 2.322 . S
Tb601 O612 2.349 . S
Tb601 O614 2.415 . S
Tb601 O615 2.399 . S
Tb601 O616 2.325 1_655 S
Tb601 O619 2.303 . S
Tb601 C630 2.764 . S
C602 O618 1.261 . S
C602 O619 1.257 1_455 S
C603 C606 1.358 . S
C603 C607 1.332 . S
C603 C609 1.504 . S
C604 C605 1.373 . S
C604 C608 1.308 . S
C605 C604 1.373 . S
C605 C606 1.429 1_554 S
C605 H632 0.932 . S
C606 C603 1.358 . S
C606 C605 1.429 1_556 S
C606 H633 0.930 . S
C607 C603 1.332 . S
C607 C608 1.394 1_556 S
C607 H634 0.932 . S
C608 C604 1.308 . S
C608 C607 1.394 1_554 S
C608 H635 0.929 . S
C609 Tb600 2.764 . S
C609 C603 1.504 . S
C609 O621 1.239 . S
C609 O622 1.263 . S
O610 Tb600 2.325 . S
O610 C620 1.236 1_455 S
O611 Tb601 2.322 . S
O611 C620 1.257 . S
O612 Tb601 2.349 . S
O612 C623 1.261 1_655 S
O613 Tb600 2.303 . S
O613 C623 1.257 . S
O614 Tb601 2.415 . S
O614 C630 1.239 . S
O615 Tb601 2.399 . S
O615 C630 1.263 . S
O616 Tb601 2.325 1_455 S
O616 C631 1.236 . S
O617 Tb600 2.322 . S
O617 C631 1.257 . S
O618 Tb600 2.349 . S
O618 C602 1.261 . S
O619 Tb601 2.303 . S
O619 C602 1.257 1_655 S
C620 O610 1.236 1_655 S
C620 O611 1.257 . S
O621 Tb600 2.415 . S
O621 C609 1.239 . S
O622 Tb600 2.399 . S
O622 C609 1.263 . S
C623 O612 1.261 1_455 S
C623 O613 1.257 . S
C624 C627 1.358 . S
C624 C628 1.332 . S
C624 C630 1.504 . S
C625 C626 1.373 . S
C625 C629 1.308 . S
C626 C625 1.373 . S
C626 C627 1.429 . S
C626 H636 0.932 . S
C627 C624 1.358 . S
C627 C626 1.429 . S
C627 H637 0.930 . S
C628 C624 1.332 . S
C628 C629 1.394 . S
C628 H638 0.932 . S
C629 C625 1.308 . S
C629 C628 1.394 . S
C629 H639 0.929 . S
C630 Tb601 2.764 . S
C630 O614 1.239 . S
C630 O615 1.263 . S
C630 C624 1.504 . S
C631 O616 1.236 . S
C631 O617 1.257 . S
H632 C605 0.932 . S
H633 C606 0.930 . S
H634 C607 0.932 . S
H635 C608 0.929 . S
H636 C626 0.932 . S
H637 C627 0.930 . S
H638 C628 0.932 . S
H639 C629 0.929 . S
H640 C648 0.950 1_554 S
H641 C653 0.950 . S
H642 C650 0.950 . S
H643 C652 0.950 . S
H644 C654 0.950 . S
H645 C656 0.950 . S
H646 C658 0.950 . S
H647 C659 0.950 . S
C648 H640 0.950 1_556 S
C648 C649 1.386 . S
C648 C650 1.391 . S
C649 C648 1.386 . S
C649 C653 1.406 . S
C650 H642 0.950 . S
C650 C648 1.391 . S
C650 C651 1.400 . S
C651 C650 1.400 . S
C651 C652 1.398 . S
C651 C657 1.491 . S
C652 H643 0.950 . S
C652 C651 1.398 . S
C652 C653 1.391 . S
C653 H641 0.950 . S
C653 C649 1.406 . S
C653 C652 1.391 . S
C654 H644 0.950 . S
C654 C655 1.386 . S
C654 C656 1.391 . S
C655 C654 1.386 . S
C655 C659 1.393 . S
C656 H645 0.950 . S
C656 C654 1.391 . S
C656 C657 1.400 . S
C657 C651 1.491 . S
C657 C656 1.400 . S
C657 C658 1.398 . S
C658 H646 0.950 . S
C658 C657 1.398 . S
C658 C659 1.391 . S
C659 H647 0.950 . S
C659 C655 1.393 . S
C659 C658 1.391 . S
H660 C668 0.950 . S
H661 C673 0.950 . S
H662 C670 0.950 . S
H663 C672 0.950 . S
H664 C674 0.950 . S
H665 C676 0.950 . S
H666 C678 0.950 . S
H667 C679 0.950 . S
C668 H660 0.950 . S
C668 C669 1.386 . S
C668 C670 1.391 . S
C669 C668 1.386 . S
C669 C673 1.393 . S
C670 H662 0.950 . S
C670 C668 1.391 . S
C670 C671 1.400 . S
C671 C670 1.400 . S
C671 C672 1.398 . S
C671 C677 1.491 . S
C672 H663 0.950 . S
C672 C671 1.398 . S
C672 C673 1.391 . S
C673 H661 0.950 . S
C673 C669 1.393 . S
C673 C672 1.391 . S
C674 H664 0.950 . S
C674 C675 1.386 . S
C674 C676 1.391 . S
C675 C674 1.386 . S
C675 C679 1.393 . S
C676 H665 0.950 . S
C676 C674 1.391 . S
C676 C677 1.400 . S
C677 C671 1.491 . S
C677 C676 1.400 . S
C677 C678 1.398 . S
C678 H666 0.950 . S
C678 C677 1.398 . S
C678 C679 1.391 . S
C679 H667 0.950 . S
C679 C675 1.393 . S
C679 C678 1.391 . S
H680 C688 0.950 . S
H681 C693 0.950 . S
H682 C690 0.950 . S
H683 C692 0.950 . S
H684 C694 0.950 . S
H685 C696 0.950 . S
H686 C698 0.950 . S
H687 C699 0.950 . S
C688 H680 0.950 . S
C688 C689 1.386 . S
C688 C690 1.391 . S
C689 C688 1.386 . S
C689 C693 1.393 . S
C690 H682 0.950 . S
C690 C688 1.391 . S
C690 C691 1.400 . S
C691 C690 1.400 . S
C691 C692 1.398 . S
C691 C697 1.491 . S
C692 H683 0.950 . S
C692 C691 1.398 . S
C692 C693 1.391 . S
C693 H681 0.950 . S
C693 C689 1.393 . S
C693 C692 1.391 . S
C694 H684 0.950 . S
C694 C695 1.386 . S
C694 C696 1.391 . S
C695 C694 1.386 . S
C695 C699 1.393 . S
C696 H685 0.950 . S
C696 C694 1.391 . S
C696 C697 1.400 . S
C697 C691 1.491 . S
C697 C696 1.400 . S
C697 C698 1.398 . S
C698 H686 0.950 . S
C698 C697 1.398 . S
C698 C699 1.391 . S
C699 H687 0.950 . S
C699 C695 1.393 . S
C699 C698 1.391 . S
H700 C708 0.950 . S
H701 C713 0.950 . S
H702 C710 0.950 . S
H703 C712 0.950 . S
H704 C714 0.950 . S
H705 C716 0.950 . S
H706 C718 0.950 . S
H707 C719 0.950 . S
C708 H700 0.950 . S
C708 C709 1.386 . S
C708 C710 1.391 . S
C709 C708 1.386 . S
C709 C713 1.393 . S
C710 H702 0.950 . S
C710 C708 1.391 . S
C710 C711 1.400 . S
C711 C710 1.400 . S
C711 C712 1.398 . S
C711 C717 1.491 . S
C712 H703 0.950 . S
C712 C711 1.398 . S
C712 C713 1.391 . S
C713 H701 0.950 . S
C713 C709 1.393 . S
C713 C712 1.391 . S
C714 H704 0.950 . S
C714 C715 1.386 . S
C714 C716 1.391 . S
C715 C714 1.386 . S
C715 C719 1.393 . S
C716 H705 0.950 . S
C716 C714 1.391 . S
C716 C717 1.400 . S
C717 C711 1.491 . S
C717 C716 1.400 . S
C717 C718 1.398 . S
C718 H706 0.950 . S
C718 C717 1.398 . S
C718 C719 1.391 . S
C719 H707 0.950 . S
C719 C715 1.393 . S
C719 C718 1.391 . S
H720 C728 0.950 . S
H721 C733 0.950 . S
H722 C730 0.950 . S
H723 C732 0.950 . S
H724 C734 0.950 . S
H725 C736 0.950 . S
H726 C738 0.950 . S
H727 C739 0.950 . S
C728 H720 0.950 . S
C728 C729 1.386 . S
C728 C730 1.391 . S
C729 C728 1.386 . S
C729 C733 1.393 . S
C730 H722 0.950 . S
C730 C728 1.391 . S
C730 C731 1.400 . S
C731 C730 1.400 . S
C731 C732 1.398 . S
C731 C737 1.491 . S
C732 H723 0.950 . S
C732 C731 1.398 . S
C732 C733 1.391 . S
C733 H721 0.950 . S
C733 C729 1.393 . S
C733 C732 1.391 . S
C734 H724 0.950 . S
C734 C735 1.386 . S
C734 C736 1.391 . S
C735 C734 1.386 . S
C735 C739 1.393 . S
C736 H725 0.950 . S
C736 C734 1.391 . S
C736 C737 1.400 . S
C737 C731 1.491 . S
C737 C736 1.400 . S
C737 C738 1.398 . S
C738 H726 0.950 . S
C738 C737 1.398 . S
C738 C739 1.391 . S
C739 H727 0.950 . S
C739 C735 1.393 . S
C739 C738 1.391 . S
H740 C748 0.950 . S
H741 C753 0.950 . S
H742 C750 0.950 . S
H743 C752 0.950 . S
H744 C754 0.950 . S
H745 C756 0.950 . S
H746 C758 0.950 . S
H747 C759 0.950 . S
C748 H740 0.950 . S
C748 C749 1.386 . S
C748 C750 1.391 . S
C749 C748 1.386 . S
C749 C753 1.393 . S
C750 H742 0.950 . S
C750 C748 1.391 . S
C750 C751 1.400 . S
C751 C750 1.400 . S
C751 C752 1.398 . S
C751 C757 1.491 . S
C752 H743 0.950 . S
C752 C751 1.398 . S
C752 C753 1.391 . S
C753 H741 0.950 . S
C753 C749 1.393 . S
C753 C752 1.391 . S
C754 H744 0.950 . S
C754 C755 1.386 . S
C754 C756 1.391 . S
C755 C754 1.386 . S
C755 C759 1.393 . S
C756 H745 0.950 . S
C756 C754 1.391 . S
C756 C757 1.400 . S
C757 C751 1.491 . S
C757 C756 1.400 . S
C757 C758 1.398 . S
C758 H746 0.950 . S
C758 C757 1.398 . S
C758 C759 1.391 . S
C759 H747 0.950 . S
C759 C755 1.393 . S
C759 C758 1.391 . S
H760 C768 0.950 . S
H761 C773 0.950 . S
H762 C770 0.950 . S
H763 C772 0.950 . S
H764 C774 0.950 . S
H765 C776 0.950 . S
H766 C778 0.950 . S
H767 C779 0.950 . S
C768 H760 0.950 . S
C768 C769 1.386 . S
C768 C770 1.391 . S
C769 C768 1.386 . S
C769 C773 1.393 . S
C770 H762 0.950 . S
C770 C768 1.391 . S
C770 C771 1.400 . S
C771 C770 1.400 . S
C771 C772 1.398 . S
C771 C777 1.491 . S
C772 H763 0.950 . S
C772 C771 1.398 . S
C772 C773 1.391 . S
C773 H761 0.950 . S
C773 C769 1.393 . S
C773 C772 1.391 . S
C774 H764 0.950 . S
C774 C775 1.386 . S
C774 C776 1.391 . S
C775 C774 1.386 . S
C775 C779 1.393 . S
C776 H765 0.950 . S
C776 C774 1.391 . S
C776 C777 1.400 . S
C777 C771 1.491 . S
C777 C776 1.400 . S
C777 C778 1.398 . S
C778 H766 0.950 . S
C778 C777 1.398 . S
C778 C779 1.391 . S
C779 H767 0.950 . S
C779 C775 1.393 . S
C779 C778 1.391 . S
H780 C788 0.950 . S
H781 C793 0.950 . S
H782 C790 0.950 . S
H783 C792 0.950 . S
H784 C794 0.950 . S
H785 C796 0.950 . S
H786 C798 0.950 . S
H787 C799 0.950 . S
C788 H780 0.950 . S
C788 C789 1.386 . S
C788 C790 1.391 . S
C789 C788 1.386 . S
C789 C793 1.393 . S
C790 H782 0.950 . S
C790 C788 1.391 . S
C790 C791 1.400 . S
C791 C790 1.400 . S
C791 C792 1.398 . S
C791 C797 1.491 . S
C792 H783 0.950 . S
C792 C791 1.398 . S
C792 C793 1.391 . S
C793 H781 0.950 . S
C793 C789 1.393 . S
C793 C792 1.391 . S
C794 H784 0.950 . S
C794 C795 1.386 . S
C794 C796 1.391 . S
C795 C794 1.386 . S
C795 C799 1.393 . S
C796 H785 0.950 . S
C796 C794 1.391 . S
C796 C797 1.400 . S
C797 C791 1.491 . S
C797 C796 1.400 . S
C797 C798 1.398 . S
C798 H786 0.950 . S
C798 C797 1.398 . S
C798 C799 1.391 . S
C799 H787 0.950 . S
C799 C795 1.393 . S
C799 C798 1.391 . S
H800 C808 0.950 . S
H801 C813 0.950 . S
H802 C810 0.950 . S
H803 C812 0.950 . S
H804 C814 0.950 . S
H805 C816 0.950 . S
H806 C818 0.950 . S
H807 C819 0.950 . S
C808 H800 0.950 . S
C808 C809 1.386 . S
C808 C810 1.391 . S
C809 C808 1.386 . S
C809 C813 1.393 . S
C810 H802 0.950 . S
C810 C808 1.391 . S
C810 C811 1.400 . S
C811 C810 1.400 . S
C811 C812 1.398 . S
C811 C817 1.491 . S
C812 H803 0.950 . S
C812 C811 1.398 . S
C812 C813 1.391 . S
C813 H801 0.950 . S
C813 C809 1.393 . S
C813 C812 1.391 . S
C814 H804 0.950 . S
C814 C815 1.386 . S
C814 C816 1.391 . S
C815 C814 1.386 . S
C815 C819 1.393 . S
C816 H805 0.950 . S
C816 C814 1.391 . S
C816 C817 1.400 . S
C817 C811 1.491 . S
C817 C816 1.400 . S
C817 C818 1.398 . S
C818 H806 0.950 . S
C818 C817 1.398 . S
C818 C819 1.391 . S
C819 H807 0.950 . S
C819 C815 1.393 . S
C819 C818 1.391 . S
H820 C828 0.950 . S
H821 C833 0.950 . S
H822 C830 0.950 . S
H823 C832 0.950 . S
H824 C834 0.950 . S
H825 C836 0.950 . S
H826 C838 0.950 . S
H827 C839 0.950 . S
C828 H820 0.950 . S
C828 C829 1.386 . S
C828 C830 1.391 . S
C829 C828 1.386 . S
C829 C833 1.393 . S
C830 H822 0.950 . S
C830 C828 1.391 . S
C830 C831 1.400 . S
C831 C830 1.400 . S
C831 C832 1.398 . S
C831 C837 1.491 . S
C832 H823 0.950 . S
C832 C831 1.398 . S
C832 C833 1.391 . S
C833 H821 0.950 . S
C833 C829 1.393 . S
C833 C832 1.391 . S
C834 H824 0.950 . S
C834 C835 1.386 . S
C834 C836 1.391 . S
C835 C834 1.386 . S
C835 C839 1.393 . S
C836 H825 0.950 . S
C836 C834 1.391 . S
C836 C837 1.400 . S
C837 C831 1.491 . S
C837 C836 1.400 . S
C837 C838 1.398 . S
C838 H826 0.950 . S
C838 C837 1.398 . S
C838 C839 1.391 . S
C839 H827 0.950 . S
C839 C835 1.393 . S
C839 C838 1.391 . S
H840 C848 0.950 . S
H841 C853 0.950 . S
H842 C850 0.950 . S
H843 C852 0.950 . S
H844 C854 0.950 . S
H845 C856 0.950 . S
H846 C858 0.950 . S
H847 C859 0.950 . S
C848 H840 0.950 . S
C848 C849 1.386 . S
C848 C850 1.391 . S
C849 C848 1.386 . S
C849 C853 1.393 . S
C850 H842 0.950 . S
C850 C848 1.391 . S
C850 C851 1.400 . S
C851 C850 1.400 . S
C851 C852 1.398 . S
C851 C857 1.491 . S
C852 H843 0.950 . S
C852 C851 1.398 . S
C852 C853 1.391 . S
C853 H841 0.950 . S
C853 C849 1.393 . S
C853 C852 1.391 . S
C854 H844 0.950 . S
C854 C855 1.386 . S
C854 C856 1.391 . S
C855 C854 1.386 . S
C855 C859 1.393 . S
C856 H845 0.950 . S
C856 C854 1.391 . S
C856 C857 1.400 . S
C857 C851 1.491 . S
C857 C856 1.400 . S
C857 C858 1.398 . S
C858 H846 0.950 . S
C858 C857 1.398 . S
C858 C859 1.391 . S
C859 H847 0.950 . S
C859 C855 1.393 . S
C859 C858 1.391 . S
H860 C868 0.950 . S
H861 C873 0.950 . S
H862 C870 0.950 . S
H863 C872 0.950 . S
H864 C874 0.950 . S
H865 C876 0.950 . S
H866 C878 0.950 . S
H867 C879 0.950 . S
C868 H860 0.950 . S
C868 C869 1.386 . S
C868 C870 1.391 . S
C869 C868 1.386 . S
C869 C873 1.393 . S
C870 H862 0.950 . S
C870 C868 1.391 . S
C870 C871 1.400 . S
C871 C870 1.400 . S
C871 C872 1.398 . S
C871 C877 1.491 . S
C872 H863 0.950 . S
C872 C871 1.398 . S
C872 C873 1.391 . S
C873 H861 0.950 . S
C873 C869 1.393 . S
C873 C872 1.391 . S
C874 H864 0.950 . S
C874 C875 1.386 . S
C874 C876 1.391 1_556 S
C875 C874 1.386 . S
C875 C879 1.393 . S
C876 H865 0.950 . S
C876 C874 1.391 1_554 S
C876 C877 1.400 . S
C877 C871 1.491 . S
C877 C876 1.400 . S
C877 C878 1.398 1_554 S
C878 H866 0.950 . S
C878 C877 1.398 1_556 S
C878 C879 1.391 . S
C879 H867 0.950 . S
C879 C875 1.393 . S
C879 C878 1.391 . S
H880 C888 0.950 . S
H881 C893 0.950 . S
H882 C890 0.950 . S
H883 C892 0.950 . S
H884 C894 0.950 . S
H885 C896 0.950 . S
H886 C898 0.950 . S
H887 C899 0.950 . S
C888 H880 0.950 . S
C888 C889 1.386 . S
C888 C890 1.391 . S
C889 C888 1.386 . S
C889 C893 1.393 . S
C890 H882 0.950 . S
C890 C888 1.391 . S
C890 C891 1.400 . S
C891 C890 1.400 . S
C891 C892 1.398 . S
C891 C897 1.491 . S
C892 H883 0.950 . S
C892 C891 1.398 . S
C892 C893 1.391 . S
C893 H881 0.950 . S
C893 C889 1.393 . S
C893 C892 1.391 . S
C894 H884 0.950 . S
C894 C895 1.386 . S
C894 C896 1.391 . S
C895 C894 1.386 . S
C895 C899 1.393 . S
C896 H885 0.950 . S
C896 C894 1.391 . S
C896 C897 1.400 . S
C897 C891 1.491 . S
C897 C896 1.400 . S
C897 C898 1.398 . S
C898 H886 0.950 . S
C898 C897 1.398 . S
C898 C899 1.391 . S
C899 H887 0.950 . S
C899 C895 1.393 . S
C899 C898 1.391 . S
H900 C908 0.950 . S
H901 C913 0.950 . S
H902 C910 0.950 . S
H903 C912 0.950 . S
H904 C914 0.950 . S
H905 C916 0.950 . S
H906 C918 0.950 . S
H907 C919 0.950 . S
C908 H900 0.950 . S
C908 C909 1.386 . S
C908 C910 1.391 . S
C909 C908 1.386 . S
C909 C913 1.393 . S
C910 H902 0.950 . S
C910 C908 1.391 . S
C910 C911 1.400 . S
C911 C910 1.400 . S
C911 C912 1.398 . S
C911 C917 1.491 . S
C912 H903 0.950 . S
C912 C911 1.398 . S
C912 C913 1.391 . S
C913 H901 0.950 . S
C913 C909 1.393 . S
C913 C912 1.391 . S
C914 H904 0.950 . S
C914 C915 1.386 . S
C914 C916 1.391 . S
C915 C914 1.386 . S
C915 C919 1.393 . S
C916 H905 0.950 . S
C916 C914 1.391 . S
C916 C917 1.400 . S
C917 C911 1.491 . S
C917 C916 1.400 . S
C917 C918 1.398 . S
C918 H906 0.950 . S
C918 C917 1.398 . S
C918 C919 1.391 . S
C919 H907 0.950 . S
C919 C915 1.393 . S
C919 C918 1.391 . S
H920 C928 0.950 . S
H921 C933 0.950 . S
H922 C930 0.950 . S
H923 C932 0.950 . S
H924 C934 0.950 1_556 S
H925 C936 0.950 . S
H926 C938 0.950 . S
H927 C939 0.950 . S
C928 H920 0.950 . S
C928 C929 1.386 . S
C928 C930 1.391 . S
C929 C928 1.386 . S
C929 C933 1.393 . S
C930 H922 0.950 . S
C930 C928 1.391 . S
C930 C931 1.400 . S
C931 C930 1.400 . S
C931 C932 1.398 . S
C931 C937 1.491 . S
C932 H923 0.950 . S
C932 C931 1.398 . S
C932 C933 1.391 . S
C933 H921 0.950 . S
C933 C929 1.393 . S
C933 C932 1.391 . S
C934 H924 0.950 1_554 S
C934 C935 1.386 . S
C934 C936 1.391 . S
C935 C934 1.386 . S
C935 C939 1.393 . S
C936 H925 0.950 . S
C936 C934 1.391 . S
C936 C937 1.400 . S
C937 C931 1.491 . S
C937 C936 1.400 . S
C937 C938 1.398 . S
C938 H926 0.950 . S
C938 C937 1.398 . S
C938 C939 1.391 . S
C939 H927 0.950 . S
C939 C935 1.393 . S
C939 C938 1.391 . S
H940 C948 0.950 . S
H941 C953 0.950 . S
H942 C950 0.950 . S
H943 C952 0.950 . S
H944 C954 0.950 . S
H945 C956 0.950 . S
H946 C958 0.950 . S
H947 C959 0.950 . S
C948 H940 0.950 . S
C948 C949 1.386 . S
C948 C950 1.391 . S
C949 C948 1.386 . S
C949 C953 1.393 . S
C950 H942 0.950 . S
C950 C948 1.391 . S
C950 C951 1.400 . S
C951 C950 1.400 . S
C951 C952 1.398 . S
C951 C957 1.491 . S
C952 H943 0.950 . S
C952 C951 1.398 . S
C952 C953 1.391 . S
C953 H941 0.950 . S
C953 C949 1.393 . S
C953 C952 1.391 . S
C954 H944 0.950 . S
C954 C955 1.386 . S
C954 C956 1.391 . S
C955 C954 1.386 . S
C955 C959 1.393 . S
C956 H945 0.950 . S
C956 C954 1.391 . S
C956 C957 1.400 1_554 S
C957 C951 1.491 . S
C957 C956 1.400 1_556 S
C957 C958 1.398 . S
C958 H946 0.950 . S
C958 C957 1.398 . S
C958 C959 1.391 1_556 S
C959 H947 0.950 . S
C959 C955 1.393 . S
C959 C958 1.391 1_554 S
H960 C968 0.950 1_655 S
H961 C973 0.950 . S
H962 C970 0.950 1_655 S
H963 C972 0.950 . S
H964 C974 0.950 . S
H965 C976 0.950 . S
H966 C978 0.950 . S
H967 C979 0.950 . S
C968 H960 0.950 1_455 S
C968 C969 1.386 . S
C968 C970 1.391 . S
C969 C968 1.386 . S
C969 C973 1.393 . S
C970 H962 0.950 1_455 S
C970 C968 1.391 . S
C970 C971 1.400 . S
C971 C970 1.400 . S
C971 C972 1.398 . S
C971 C977 1.491 . S
C972 H963 0.950 . S
C972 C971 1.398 . S
C972 C973 1.391 . S
C973 H961 0.950 . S
C973 C969 1.393 . S
C973 C972 1.391 . S
C974 H964 0.950 . S
C974 C975 1.386 . S
C974 C976 1.391 . S
C975 C974 1.386 . S
C975 C979 1.393 1_455 S
C976 H965 0.950 . S
C976 C974 1.391 . S
C976 C977 1.400 . S
C977 C971 1.491 . S
C977 C976 1.400 . S
C977 C978 1.398 1_455 S
C978 H966 0.950 . S
C978 C977 1.398 1_655 S
C978 C979 1.391 . S
C979 H967 0.950 . S
C979 C975 1.393 1_655 S
C979 C978 1.391 . S
H980 C988 0.950 . S
H981 C993 0.950 . S
H982 C990 0.950 . S
H983 C992 0.950 . S
H984 C994 0.950 . S
H985 C996 0.950 . S
H986 C998 0.950 . S
H987 C999 0.950 . S
C988 H980 0.950 . S
C988 C989 1.386 . S
C988 C990 1.391 . S
C989 C988 1.386 . S
C989 C993 1.393 . S
C990 H982 0.950 . S
C990 C988 1.391 . S
C990 C991 1.400 . S
C991 C990 1.400 . S
C991 C992 1.398 . S
C991 C997 1.491 1_655 S
C992 H983 0.950 . S
C992 C991 1.398 . S
C992 C993 1.391 . S
C993 H981 0.950 . S
C993 C989 1.393 . S
C993 C992 1.391 . S
C994 H984 0.950 . S
C994 C995 1.386 . S
C994 C996 1.391 . S
C995 C994 1.386 . S
C995 C999 1.393 . S
C996 H985 0.950 . S
C996 C994 1.391 . S
C996 C997 1.400 . S
C997 C991 1.491 1_455 S
C997 C996 1.400 . S
C997 C998 1.398 . S
C998 H986 0.950 . S
C998 C997 1.398 . S
C998 C999 1.391 . S
C999 H987 0.950 . S
C999 C995 1.393 . S
C999 C998 1.391 . S
H1000 C1008 0.950 . S
H1001 C1013 0.950 . S
H1002 C1010 0.950 . S
H1003 C1012 0.950 . S
H1004 C1014 0.950 . S
H1005 C1016 0.950 . S
H1006 C1018 0.950 . S
H1007 C1019 0.950 . S
C1008 H1000 0.950 . S
C1008 C1009 1.386 . S
C1008 C1010 1.391 . S
C1009 C1008 1.386 . S
C1009 C1013 1.393 . S
C1010 H1002 0.950 . S
C1010 C1008 1.391 . S
C1010 C1011 1.400 . S
C1011 C1010 1.400 . S
C1011 C1012 1.398 . S
C1011 C1017 1.491 . S
C1012 H1003 0.950 . S
C1012 C1011 1.398 . S
C1012 C1013 1.391 . S
C1013 H1001 0.950 . S
C1013 C1009 1.393 . S
C1013 C1012 1.391 . S
C1014 H1004 0.950 . S
C1014 C1015 1.386 . S
C1014 C1016 1.391 . S
C1015 C1014 1.386 . S
C1015 C1019 1.393 . S
C1016 H1005 0.950 . S
C1016 C1014 1.391 . S
C1016 C1017 1.400 . S
C1017 C1011 1.491 . S
C1017 C1016 1.400 . S
C1017 C1018 1.398 . S
C1018 H1006 0.950 . S
C1018 C1017 1.398 . S
C1018 C1019 1.391 . S
C1019 H1007 0.950 . S
C1019 C1015 1.393 . S
C1019 C1018 1.391 . S
H1020 C1028 0.950 . S
H1021 C1033 0.950 . S
H1022 C1030 0.950 . S
H1023 C1032 0.950 . S
H1024 C1034 0.950 . S
H1025 C1036 0.950 . S
H1026 C1038 0.950 . S
H1027 C1039 0.950 . S
C1028 H1020 0.950 . S
C1028 C1029 1.386 . S
C1028 C1030 1.391 . S
C1029 C1028 1.386 . S
C1029 C1033 1.393 . S
C1030 H1022 0.950 . S
C1030 C1028 1.391 . S
C1030 C1031 1.400 . S
C1031 C1030 1.400 . S
C1031 C1032 1.398 . S
C1031 C1037 1.491 . S
C1032 H1023 0.950 . S
C1032 C1031 1.398 . S
C1032 C1033 1.391 . S
C1033 H1021 0.950 . S
C1033 C1029 1.393 . S
C1033 C1032 1.391 . S
C1034 H1024 0.950 . S
C1034 C1035 1.386 . S
C1034 C1036 1.391 . S
C1035 C1034 1.386 . S
C1035 C1039 1.393 . S
C1036 H1025 0.950 . S
C1036 C1034 1.391 . S
C1036 C1037 1.400 . S
C1037 C1031 1.491 . S
C1037 C1036 1.400 . S
C1037 C1038 1.398 . S
C1038 H1026 0.950 . S
C1038 C1037 1.398 . S
C1038 C1039 1.391 . S
C1039 H1027 0.950 . S
C1039 C1035 1.393 . S
C1039 C1038 1.391 . S
H1040 C1048 0.950 . S
H1041 C1053 0.950 . S
H1042 C1050 0.950 . S
H1043 C1052 0.950 . S
H1044 C1054 0.950 . S
H1045 C1056 0.950 . S
H1046 C1058 0.950 . S
H1047 C1059 0.950 . S
C1048 H1040 0.950 . S
C1048 C1049 1.386 1_455 S
C1048 C1050 1.391 . S
C1049 C1048 1.386 1_655 S
C1049 C1053 1.392 . S
C1050 H1042 0.950 . S
C1050 C1048 1.391 . S
C1050 C1051 1.400 . S
C1051 C1050 1.400 . S
C1051 C1052 1.398 1_455 S
C1051 C1057 1.491 . S
C1052 H1043 0.950 . S
C1052 C1051 1.398 1_655 S
C1052 C1053 1.391 . S
C1053 H1041 0.950 . S
C1053 C1049 1.392 . S
C1053 C1052 1.391 . S
C1054 H1044 0.950 . S
C1054 C1055 1.386 1_655 S
C1054 C1056 1.391 . S
C1055 C1054 1.386 1_455 S
C1055 C1059 1.393 . S
C1056 H1045 0.950 . S
C1056 C1054 1.391 . S
C1056 C1057 1.400 1_655 S
C1057 C1051 1.491 . S
C1057 C1056 1.400 1_455 S
C1057 C1058 1.398 . S
C1058 H1046 0.950 . S
C1058 C1057 1.398 . S
C1058 C1059 1.391 . S
C1059 H1047 0.950 . S
C1059 C1055 1.393 . S
C1059 C1058 1.391 . S
H1060 C1068 0.950 . S
H1061 C1073 0.950 . S
H1062 C1070 0.950 . S
H1063 C1072 0.950 . S
H1064 C1074 0.950 . S
H1065 C1076 0.950 . S
H1066 C1078 0.950 . S
H1067 C1079 0.950 . S
C1068 H1060 0.950 . S
C1068 C1069 1.386 . S
C1068 C1070 1.391 . S
C1069 C1068 1.386 . S
C1069 C1073 1.393 . S
C1070 H1062 0.950 . S
C1070 C1068 1.391 . S
C1070 C1071 1.400 . S
C1071 C1070 1.400 . S
C1071 C1072 1.398 . S
C1071 C1077 1.491 . S
C1072 H1063 0.950 . S
C1072 C1071 1.398 . S
C1072 C1073 1.391 . S
C1073 H1061 0.950 . S
C1073 C1069 1.393 . S
C1073 C1072 1.391 . S
C1074 H1064 0.950 . S
C1074 C1075 1.386 . S
C1074 C1076 1.391 . S
C1075 C1074 1.386 . S
C1075 C1079 1.393 . S
C1076 H1065 0.950 . S
C1076 C1074 1.391 . S
C1076 C1077 1.400 . S
C1077 C1071 1.491 . S
C1077 C1076 1.400 . S
C1077 C1078 1.398 . S
C1078 H1066 0.950 . S
C1078 C1077 1.398 . S
C1078 C1079 1.391 . S
C1079 H1067 0.950 . S
C1079 C1075 1.393 . S
C1079 C1078 1.391 . S
H1080 C1088 0.950 . S
H1081 C1093 0.950 . S
H1082 C1090 0.950 . S
H1083 C1092 0.950 . S
H1084 C1094 0.950 . S
H1085 C1096 0.950 . S
H1086 C1098 0.950 . S
H1087 C1099 0.950 . S
C1088 H1080 0.950 . S
C1088 C1089 1.386 . S
C1088 C1090 1.391 . S
C1089 C1088 1.386 . S
C1089 C1093 1.393 . S
C1090 H1082 0.950 . S
C1090 C1088 1.391 . S
C1090 C1091 1.400 . S
C1091 C1090 1.400 . S
C1091 C1092 1.398 . S
C1091 C1097 1.491 . S
C1092 H1083 0.950 . S
C1092 C1091 1.398 . S
C1092 C1093 1.391 . S
C1093 H1081 0.950 . S
C1093 C1089 1.393 . S
C1093 C1092 1.391 . S
C1094 H1084 0.950 . S
C1094 C1095 1.386 . S
C1094 C1096 1.391 . S
C1095 C1094 1.386 . S
C1095 C1099 1.393 . S
C1096 H1085 0.950 . S
C1096 C1094 1.391 . S
C1096 C1097 1.400 . S
C1097 C1091 1.491 . S
C1097 C1096 1.400 . S
C1097 C1098 1.398 . S
C1098 H1086 0.950 . S
C1098 C1097 1.398 . S
C1098 C1099 1.391 . S
C1099 H1087 0.950 . S
C1099 C1095 1.393 . S
C1099 C1098 1.391 . S
H1100 C1108 0.950 . S
H1101 C1113 0.950 . S
H1102 C1110 0.950 . S
H1103 C1112 0.950 . S
H1104 C1114 0.950 . S
H1105 C1116 0.950 . S
H1106 C1118 0.950 . S
H1107 C1119 0.950 . S
C1108 H1100 0.950 . S
C1108 C1109 1.386 . S
C1108 C1110 1.391 . S
C1109 C1108 1.386 . S
C1109 C1113 1.393 . S
C1110 H1102 0.950 . S
C1110 C1108 1.391 . S
C1110 C1111 1.400 . S
C1111 C1110 1.400 . S
C1111 C1112 1.398 . S
C1111 C1117 1.491 . S
C1112 H1103 0.950 . S
C1112 C1111 1.398 . S
C1112 C1113 1.391 . S
C1113 H1101 0.950 . S
C1113 C1109 1.393 . S
C1113 C1112 1.391 . S
C1114 H1104 0.950 . S
C1114 C1115 1.386 . S
C1114 C1116 1.391 . S
C1115 C1114 1.386 . S
C1115 C1119 1.393 . S
C1116 H1105 0.950 . S
C1116 C1114 1.391 . S
C1116 C1117 1.400 1_655 S
C1117 C1111 1.491 . S
C1117 C1116 1.400 1_455 S
C1117 C1118 1.398 . S
C1118 H1106 0.950 . S
C1118 C1117 1.398 . S
C1118 C1119 1.391 1_455 S
C1119 H1107 0.950 . S
C1119 C1115 1.393 . S
C1119 C1118 1.391 1_655 S
H1120 C1128 0.950 . S
H1121 C1133 0.950 . S
H1122 C1130 0.955 . S
H1123 C1132 0.950 . S
H1124 C1134 0.950 . S
H1125 C1136 0.950 . S
H1126 C1138 0.950 . S
H1127 C1139 0.950 . S
C1128 H1120 0.950 . S
C1128 C1129 1.386 . S
C1128 C1130 1.391 . S
C1129 C1128 1.386 . S
C1129 C1133 1.393 1_455 S
C1130 H1122 0.955 . S
C1130 C1128 1.391 . S
C1130 C1131 1.400 . S
C1131 C1130 1.400 . S
C1131 C1132 1.398 1_455 S
C1131 C1137 1.491 1_545 S
C1132 H1123 0.950 . S
C1132 C1131 1.398 1_655 S
C1132 C1133 1.391 . S
C1133 H1121 0.950 . S
C1133 C1129 1.393 1_655 S
C1133 C1132 1.391 . S
C1134 H1124 0.950 . S
C1134 C1135 1.386 1_655 S
C1134 C1136 1.391 1_556 S
C1135 C1134 1.386 1_455 S
C1135 C1139 1.393 . S
C1136 H1125 0.950 . S
C1136 C1134 1.391 1_554 S
C1136 C1137 1.400 1_655 S
C1137 C1131 1.491 1_565 S
C1137 C1136 1.400 1_455 S
C1137 C1138 1.398 . S
C1138 H1126 0.950 . S
C1138 C1137 1.398 . S
C1138 C1139 1.391 1_554 S
C1139 H1127 0.950 . S
C1139 C1135 1.393 . S
C1139 C1138 1.391 1_556 S
H1140 C1148 0.950 . S
H1141 C1153 0.950 . S
H1142 C1150 0.950 . S
H1143 C1152 0.950 . S
H1144 C1154 0.950 . S
H1145 C1156 0.950 . S
H1146 C1158 0.950 . S
H1147 C1159 0.950 . S
C1148 H1140 0.950 . S
C1148 C1149 1.386 . S
C1148 C1150 1.391 . S
C1149 C1148 1.386 . S
C1149 C1153 1.393 . S
C1150 H1142 0.950 . S
C1150 C1148 1.391 . S
C1150 C1151 1.400 . S
C1151 C1150 1.400 . S
C1151 C1152 1.398 . S
C1151 C1157 1.491 . S
C1152 H1143 0.950 . S
C1152 C1151 1.398 . S
C1152 C1153 1.391 . S
C1153 H1141 0.950 . S
C1153 C1149 1.393 . S
C1153 C1152 1.391 . S
C1154 H1144 0.950 . S
C1154 C1155 1.386 . S
C1154 C1156 1.391 . S
C1155 C1154 1.386 . S
C1155 C1159 1.393 . S
C1156 H1145 0.950 . S
C1156 C1154 1.391 . S
C1156 C1157 1.400 . S
C1157 C1151 1.491 . S
C1157 C1156 1.400 . S
C1157 C1158 1.398 . S
C1158 H1146 0.950 . S
C1158 C1157 1.398 . S
C1158 C1159 1.391 . S
C1159 H1147 0.950 . S
C1159 C1155 1.393 . S
C1159 C1158 1.391 . S
H1160 C1168 0.950 . S
H1161 C1173 0.950 . S
H1162 C1170 0.950 . S
H1163 C1172 0.950 . S
H1164 C1174 0.950 . S
H1165 C1176 0.950 . S
H1166 C1178 0.950 . S
H1167 C1179 0.950 . S
C1168 H1160 0.950 . S
C1168 C1169 1.386 . S
C1168 C1170 1.391 1_545 S
C1169 C1168 1.386 . S
C1169 C1173 1.393 . S
C1170 H1162 0.950 . S
C1170 C1168 1.391 1_565 S
C1170 C1171 1.400 1_565 S
C1171 C1170 1.400 1_545 S
C1171 C1172 1.398 . S
C1171 C1177 1.491 1_545 S
C1172 H1163 0.950 . S
C1172 C1171 1.398 . S
C1172 C1173 1.391 . S
C1173 H1161 0.950 . S
C1173 C1169 1.393 . S
C1173 C1172 1.391 . S
C1174 H1164 0.950 . S
C1174 C1175 1.386 . S
C1174 C1176 1.391 1_565 S
C1175 C1174 1.386 . S
C1175 C1179 1.393 . S
C1176 H1165 0.950 . S
C1176 C1174 1.391 1_545 S
C1176 C1177 1.400 1_545 S
C1177 C1171 1.491 1_565 S
C1177 C1176 1.400 1_565 S
C1177 C1178 1.398 . S
C1178 H1166 0.950 . S
C1178 C1177 1.398 . S
C1178 C1179 1.391 . S
C1179 H1167 0.950 . S
C1179 C1175 1.393 . S
C1179 C1178 1.391 . S
H1180 C1188 0.950 . S
H1181 C1193 0.950 . S
H1182 C1190 0.950 . S
H1183 C1192 0.950 . S
H1184 C1194 0.950 . S
H1185 C1196 0.950 . S
H1186 C1198 0.950 . S
H1187 C1199 0.950 . S
C1188 H1180 0.950 . S
C1188 C1189 1.386 . S
C1188 C1190 1.391 . S
C1189 C1188 1.386 . S
C1189 C1193 1.393 . S
C1190 H1182 0.950 . S
C1190 C1188 1.391 . S
C1190 C1191 1.400 . S
C1191 C1190 1.400 . S
C1191 C1192 1.398 . S
C1191 C1197 1.491 . S
C1192 H1183 0.950 . S
C1192 C1191 1.398 . S
C1192 C1193 1.391 . S
C1193 H1181 0.950 . S
C1193 C1189 1.393 . S
C1193 C1192 1.391 . S
C1194 H1184 0.950 . S
C1194 C1195 1.386 . S
C1194 C1196 1.391 . S
C1195 C1194 1.386 . S
C1195 C1199 1.393 . S
C1196 H1185 0.950 . S
C1196 C1194 1.391 . S
C1196 C1197 1.400 . S
C1197 C1191 1.491 . S
C1197 C1196 1.400 . S
C1197 C1198 1.398 . S
C1198 H1186 0.950 . S
C1198 C1197 1.398 . S
C1198 C1199 1.391 . S
C1199 H1187 0.950 . S
C1199 C1195 1.393 . S
C1199 C1198 1.391 . S
H1200 C1208 0.950 . S
H1201 C1213 0.950 . S
H1202 C1210 0.950 . S
H1203 C1212 0.950 . S
H1204 C1214 0.950 . S
H1205 C1216 0.950 . S
H1206 C1218 0.950 . S
H1207 C1219 0.950 . S
C1208 H1200 0.950 . S
C1208 C1209 1.386 . S
C1208 C1210 1.391 . S
C1209 C1208 1.386 . S
C1209 C1213 1.393 . S
C1210 H1202 0.950 . S
C1210 C1208 1.391 . S
C1210 C1211 1.400 . S
C1211 C1210 1.400 . S
C1211 C1212 1.398 . S
C1211 C1217 1.491 . S
C1212 H1203 0.950 . S
C1212 C1211 1.398 . S
C1212 C1213 1.391 . S
C1213 H1201 0.950 . S
C1213 C1209 1.393 . S
C1213 C1212 1.391 . S
C1214 H1204 0.950 . S
C1214 C1215 1.386 . S
C1214 C1216 1.391 . S
C1215 C1214 1.386 . S
C1215 C1219 1.393 . S
C1216 H1205 0.950 . S
C1216 C1214 1.391 . S
C1216 C1217 1.400 . S
C1217 C1211 1.491 . S
C1217 C1216 1.400 . S
C1217 C1218 1.398 . S
C1218 H1206 0.950 . S
C1218 C1217 1.398 . S
C1218 C1219 1.391 . S
C1219 H1207 0.950 . S
C1219 C1215 1.393 . S
C1219 C1218 1.391 . S
H1220 C1228 0.950 . S
H1221 C1233 0.950 . S
H1222 C1230 0.950 . S
H1223 C1232 0.950 . S
H1224 C1234 0.950 . S
H1225 C1236 0.950 . S
H1226 C1238 0.950 . S
H1227 C1239 0.950 . S
C1228 H1220 0.950 . S
C1228 C1229 1.386 . S
C1228 C1230 1.391 . S
C1229 C1228 1.386 . S
C1229 C1233 1.393 . S
C1230 H1222 0.950 . S
C1230 C1228 1.391 . S
C1230 C1231 1.400 . S
C1231 C1230 1.400 . S
C1231 C1232 1.398 . S
C1231 C1237 1.491 . S
C1232 H1223 0.950 . S
C1232 C1231 1.398 . S
C1232 C1233 1.391 . S
C1233 H1221 0.950 . S
C1233 C1229 1.393 . S
C1233 C1232 1.391 . S
C1234 H1224 0.950 . S
C1234 C1235 1.386 . S
C1234 C1236 1.391 . S
C1235 C1234 1.386 . S
C1235 C1239 1.393 . S
C1236 H1225 0.950 . S
C1236 C1234 1.391 . S
C1236 C1237 1.400 . S
C1237 C1231 1.491 . S
C1237 C1236 1.400 . S
C1237 C1238 1.398 . S
C1238 H1226 0.950 . S
C1238 C1237 1.398 . S
C1238 C1239 1.391 . S
C1239 H1227 0.950 . S
C1239 C1235 1.393 . S
C1239 C1238 1.391 . S
H1240 C1248 0.950 . S
H1241 C1253 0.950 . S
H1242 C1250 0.950 . S
H1243 C1252 0.950 . S
H1244 C1254 0.950 . S
H1245 C1256 0.950 . S
H1246 C1258 0.950 . S
H1247 C1259 0.950 . S
C1248 H1240 0.950 . S
C1248 C1249 1.386 . S
C1248 C1250 1.391 . S
C1249 C1248 1.386 . S
C1249 C1253 1.393 . S
C1250 H1242 0.950 . S
C1250 C1248 1.391 . S
C1250 C1251 1.400 . S
C1251 C1250 1.400 . S
C1251 C1252 1.398 . S
C1251 C1257 1.491 . S
C1252 H1243 0.950 . S
C1252 C1251 1.398 . S
C1252 C1253 1.391 . S
C1253 H1241 0.950 . S
C1253 C1249 1.393 . S
C1253 C1252 1.391 . S
C1254 H1244 0.950 . S
C1254 C1255 1.386 . S
C1254 C1256 1.391 . S
C1255 C1254 1.386 . S
C1255 C1259 1.393 . S
C1256 H1245 0.950 . S
C1256 C1254 1.391 . S
C1256 C1257 1.400 . S
C1257 C1251 1.491 . S
C1257 C1256 1.400 . S
C1257 C1258 1.398 . S
C1258 H1246 0.950 . S
C1258 C1257 1.398 . S
C1258 C1259 1.391 . S
C1259 H1247 0.950 . S
C1259 C1255 1.393 . S
C1259 C1258 1.391 . S
H1260 C1268 0.950 . S
H1261 C1273 0.950 . S
H1262 C1270 0.950 . S
H1263 C1272 0.950 . S
H1264 C1274 0.922 1_655 S
H1265 C1276 0.950 . S
H1266 C1278 0.951 1_556 S
H1267 C1279 0.950 . S
C1268 H1260 0.950 . S
C1268 C1269 1.386 . S
C1268 C1270 1.391 . S
C1269 C1268 1.386 . S
C1269 C1273 1.393 1_455 S
C1270 H1262 0.950 . S
C1270 C1268 1.391 . S
C1270 C1271 1.400 . S
C1271 C1270 1.400 . S
C1271 C1272 1.398 1_455 S
C1271 C1277 1.491 . S
C1272 H1263 0.950 . S
C1272 C1271 1.398 1_655 S
C1272 C1273 1.391 . S
C1273 H1261 0.950 . S
C1273 C1269 1.393 1_655 S
C1273 C1272 1.391 . S
C1274 H1264 0.922 1_455 S
C1274 C1275 1.420 . S
C1274 C1276 1.385 1_454 S
C1275 C1274 1.420 . S
C1275 C1279 1.393 . S
C1276 H1265 0.950 . S
C1276 C1274 1.385 1_656 S
C1276 C1277 1.400 1_655 S
C1277 C1271 1.491 . S
C1277 C1276 1.400 1_455 S
C1277 C1278 1.399 1_556 S
C1278 H1266 0.951 1_554 S
C1278 C1277 1.399 1_554 S
C1278 C1279 1.389 . S
C1279 H1267 0.950 . S
C1279 C1275 1.393 . S
C1279 C1278 1.389 . S
H1280 C1288 0.950 . S
H1281 C1293 0.950 . S
H1282 C1290 0.950 . S
H1283 C1292 0.950 . S
H1284 C1294 0.950 . S
H1285 C1296 0.950 . S
H1286 C1298 0.950 . S
H1287 C1299 0.950 . S
C1288 H1280 0.950 . S
C1288 C1289 1.386 . S
C1288 C1290 1.391 . S
C1289 C1288 1.386 . S
C1289 C1293 1.393 . S
C1290 H1282 0.950 . S
C1290 C1288 1.391 . S
C1290 C1291 1.400 . S
C1291 C1290 1.400 . S
C1291 C1292 1.398 . S
C1291 C1297 1.491 . S
C1292 H1283 0.950 . S
C1292 C1291 1.398 . S
C1292 C1293 1.391 . S
C1293 H1281 0.950 . S
C1293 C1289 1.393 . S
C1293 C1292 1.391 . S
C1294 H1284 0.950 . S
C1294 C1295 1.386 . S
C1294 C1296 1.391 . S
C1295 C1294 1.386 . S
C1295 C1299 1.393 . S
C1296 H1285 0.950 . S
C1296 C1294 1.391 . S
C1296 C1297 1.400 . S
C1297 C1291 1.491 . S
C1297 C1296 1.400 . S
C1297 C1298 1.398 . S
C1298 H1286 0.950 . S
C1298 C1297 1.398 . S
C1298 C1299 1.391 . S
C1299 H1287 0.950 . S
C1299 C1295 1.393 . S
C1299 C1298 1.391 . S
H1300 C1308 0.950 . S
H1301 C1313 0.950 . S
H1302 C1310 0.950 . S
H1303 C1312 0.950 . S
H1304 C1314 0.950 . S
H1305 C1316 0.950 . S
H1306 C1318 0.950 . S
H1307 C1319 0.950 . S
C1308 H1300 0.950 . S
C1308 C1309 1.386 . S
C1308 C1310 1.391 . S
C1309 C1308 1.386 . S
C1309 C1313 1.393 . S
C1310 H1302 0.950 . S
C1310 C1308 1.391 . S
C1310 C1311 1.400 . S
C1311 C1310 1.400 . S
C1311 C1312 1.398 . S
C1311 C1317 1.491 . S
C1312 H1303 0.950 . S
C1312 C1311 1.398 . S
C1312 C1313 1.391 . S
C1313 H1301 0.950 . S
C1313 C1309 1.393 . S
C1313 C1312 1.391 . S
C1314 H1304 0.950 . S
C1314 C1315 1.386 . S
C1314 C1316 1.391 . S
C1315 C1314 1.386 . S
C1315 C1319 1.393 . S
C1316 H1305 0.950 . S
C1316 C1314 1.391 . S
C1316 C1317 1.400 . S
C1317 C1311 1.491 . S
C1317 C1316 1.400 . S
C1317 C1318 1.398 . S
C1318 H1306 0.950 . S
C1318 C1317 1.398 . S
C1318 C1319 1.391 . S
C1319 H1307 0.950 . S
C1319 C1315 1.393 . S
C1319 C1318 1.391 . S
H1320 C1328 0.950 . S
H1321 C1333 0.950 . S
H1322 C1330 0.950 . S
H1323 C1332 0.950 . S
H1324 C1334 0.950 . S
H1325 C1336 0.950 . S
H1326 C1338 0.950 . S
H1327 C1339 0.950 . S
C1328 H1320 0.950 . S
C1328 C1329 1.386 . S
C1328 C1330 1.391 . S
C1329 C1328 1.386 . S
C1329 C1333 1.393 . S
C1330 H1322 0.950 . S
C1330 C1328 1.391 . S
C1330 C1331 1.400 . S
C1331 C1330 1.400 . S
C1331 C1332 1.398 . S
C1331 C1337 1.491 . S
C1332 H1323 0.950 . S
C1332 C1331 1.398 . S
C1332 C1333 1.391 . S
C1333 H1321 0.950 . S
C1333 C1329 1.393 . S
C1333 C1332 1.391 . S
C1334 H1324 0.950 . S
C1334 C1335 1.386 . S
C1334 C1336 1.391 . S
C1335 C1334 1.386 . S
C1335 C1339 1.393 . S
C1336 H1325 0.950 . S
C1336 C1334 1.391 . S
C1336 C1337 1.400 . S
C1337 C1331 1.491 . S
C1337 C1336 1.400 . S
C1337 C1338 1.398 . S
C1338 H1326 0.950 . S
C1338 C1337 1.398 . S
C1338 C1339 1.391 . S
C1339 H1327 0.950 . S
C1339 C1335 1.393 . S
C1339 C1338 1.391 . S
H1340 C1348 0.950 . S
H1341 C1353 0.950 . S
H1342 C1350 0.950 . S
H1343 C1352 0.950 . S
H1344 C1354 0.950 . S
H1345 C1356 0.950 . S
H1346 C1358 0.950 . S
H1347 C1359 0.950 . S
C1348 H1340 0.950 . S
C1348 C1349 1.386 . S
C1348 C1350 1.391 . S
C1349 C1348 1.386 . S
C1349 C1353 1.393 . S
C1350 H1342 0.950 . S
C1350 C1348 1.391 . S
C1350 C1351 1.400 . S
C1351 C1350 1.400 . S
C1351 C1352 1.398 . S
C1351 C1357 1.491 . S
C1352 H1343 0.950 . S
C1352 C1351 1.398 . S
C1352 C1353 1.391 . S
C1353 H1341 0.950 . S
C1353 C1349 1.393 . S
C1353 C1352 1.391 . S
C1354 H1344 0.950 . S
C1354 C1355 1.386 . S
C1354 C1356 1.391 1_556 S
C1355 C1354 1.386 . S
C1355 C1359 1.393 . S
C1356 H1345 0.950 . S
C1356 C1354 1.391 1_554 S
C1356 C1357 1.400 . S
C1357 C1351 1.491 . S
C1357 C1356 1.400 . S
C1357 C1358 1.398 . S
C1358 H1346 0.950 . S
C1358 C1357 1.398 . S
C1358 C1359 1.391 1_554 S
C1359 H1347 0.950 . S
C1359 C1355 1.393 . S
C1359 C1358 1.391 1_556 S
H1360 C1368 0.950 . S
H1361 C1373 0.950 . S
H1362 C1370 0.950 . S
H1363 C1372 0.950 . S
H1364 C1374 0.950 . S
H1365 C1376 0.950 . S
H1366 C1378 0.950 . S
H1367 C1379 0.950 . S
C1368 H1360 0.950 . S
C1368 C1369 1.386 . S
C1368 C1370 1.391 . S
C1369 C1368 1.386 . S
C1369 C1373 1.393 . S
C1370 H1362 0.950 . S
C1370 C1368 1.391 . S
C1370 C1371 1.400 . S
C1371 C1370 1.400 . S
C1371 C1372 1.398 . S
C1371 C1377 1.491 . S
C1372 H1363 0.950 . S
C1372 C1371 1.398 . S
C1372 C1373 1.391 . S
C1373 H1361 0.950 . S
C1373 C1369 1.393 . S
C1373 C1372 1.391 . S
C1374 H1364 0.950 . S
C1374 C1375 1.386 . S
C1374 C1376 1.391 . S
C1375 C1374 1.386 . S
C1375 C1379 1.393 . S
C1376 H1365 0.950 . S
C1376 C1374 1.391 . S
C1376 C1377 1.400 . S
C1377 C1371 1.491 . S
C1377 C1376 1.400 . S
C1377 C1378 1.398 . S
C1378 H1366 0.950 . S
C1378 C1377 1.398 . S
C1378 C1379 1.391 . S
C1379 H1367 0.950 . S
C1379 C1375 1.393 . S
C1379 C1378 1.391 . S
H1380 C1388 0.950 . S
H1381 C1393 0.950 . S
H1382 C1390 0.950 . S
H1383 C1392 0.950 . S
H1384 C1394 0.950 . S
H1385 C1396 0.950 . S
H1386 C1398 0.950 . S
H1387 C1399 0.950 . S
C1388 H1380 0.950 . S
C1388 C1389 1.386 . S
C1388 C1390 1.391 . S
C1389 C1388 1.386 . S
C1389 C1393 1.393 . S
C1390 H1382 0.950 . S
C1390 C1388 1.391 . S
C1390 C1391 1.400 . S
C1391 C1390 1.400 . S
C1391 C1392 1.398 . S
C1391 C1397 1.491 . S
C1392 H1383 0.950 . S
C1392 C1391 1.398 . S
C1392 C1393 1.391 . S
C1393 H1381 0.950 . S
C1393 C1389 1.393 . S
C1393 C1392 1.391 . S
C1394 H1384 0.950 . S
C1394 C1395 1.386 . S
C1394 C1396 1.391 . S
C1395 C1394 1.386 . S
C1395 C1399 1.393 . S
C1396 H1385 0.950 . S
C1396 C1394 1.391 . S
C1396 C1397 1.400 . S
C1397 C1391 1.491 . S
C1397 C1396 1.400 . S
C1397 C1398 1.398 . S
C1398 H1386 0.950 . S
C1398 C1397 1.398 . S
C1398 C1399 1.391 . S
C1399 H1387 0.950 . S
C1399 C1395 1.393 . S
C1399 C1398 1.391 . S
H1400 C1408 0.950 . S
H1401 C1413 0.950 . S
H1402 C1410 0.950 . S
H1403 C1412 0.950 . S
H1404 C1414 0.950 . S
H1405 C1416 0.950 . S
H1406 C1418 0.950 . S
H1407 C1419 0.950 . S
C1408 H1400 0.950 . S
C1408 C1409 1.386 . S
C1408 C1410 1.391 . S
C1409 C1408 1.386 . S
C1409 C1413 1.393 . S
C1410 H1402 0.950 . S
C1410 C1408 1.391 . S
C1410 C1411 1.400 . S
C1411 C1410 1.400 . S
C1411 C1412 1.398 . S
C1411 C1417 1.491 . S
C1412 H1403 0.950 . S
C1412 C1411 1.398 . S
C1412 C1413 1.391 . S
C1413 H1401 0.950 . S
C1413 C1409 1.393 . S
C1413 C1412 1.391 . S
C1414 H1404 0.950 . S
C1414 C1415 1.386 . S
C1414 C1416 1.391 . S
C1415 C1414 1.386 . S
C1415 C1419 1.393 . S
C1416 H1405 0.950 . S
C1416 C1414 1.391 . S
C1416 C1417 1.400 . S
C1417 C1411 1.491 . S
C1417 C1416 1.400 . S
C1417 C1418 1.398 . S
C1418 H1406 0.950 . S
C1418 C1417 1.398 . S
C1418 C1419 1.391 . S
C1419 H1407 0.950 . S
C1419 C1415 1.393 . S
C1419 C1418 1.391 . S
H1420 C1428 0.950 . S
H1421 C1433 0.950 . S
H1422 C1430 0.950 . S
H1423 C1432 0.950 . S
H1424 C1434 0.950 . S
H1425 C1436 0.950 . S
H1426 C1438 0.950 . S
H1427 C1439 0.950 . S
C1428 H1420 0.950 . S
C1428 C1429 1.386 . S
C1428 C1430 1.391 . S
C1429 C1428 1.386 . S
C1429 C1433 1.393 . S
C1430 H1422 0.950 . S
C1430 C1428 1.391 . S
C1430 C1431 1.400 . S
C1431 C1430 1.400 . S
C1431 C1432 1.398 . S
C1431 C1437 1.491 . S
C1432 H1423 0.950 . S
C1432 C1431 1.398 . S
C1432 C1433 1.391 . S
C1433 H1421 0.950 . S
C1433 C1429 1.393 . S
C1433 C1432 1.391 . S
C1434 H1424 0.950 . S
C1434 C1435 1.386 . S
C1434 C1436 1.391 . S
C1435 C1434 1.386 . S
C1435 C1439 1.393 . S
C1436 H1425 0.950 . S
C1436 C1434 1.391 . S
C1436 C1437 1.400 1_554 S
C1437 C1431 1.491 . S
C1437 C1436 1.400 1_556 S
C1437 C1438 1.398 . S
C1438 H1426 0.950 . S
C1438 C1437 1.398 . S
C1438 C1439 1.391 1_556 S
C1439 H1427 0.950 . S
C1439 C1435 1.393 . S
C1439 C1438 1.391 1_554 S
H1440 C1448 0.950 . S
H1441 C1453 0.950 . S
H1442 C1450 0.950 . S
H1443 C1452 0.950 . S
H1444 C1454 0.950 1_554 S
H1445 C1456 0.950 . S
H1446 C1458 0.950 . S
H1447 C1459 0.950 . S
C1448 H1440 0.950 . S
C1448 C1449 1.386 . S
C1448 C1450 1.391 . S
C1449 C1448 1.386 . S
C1449 C1453 1.393 . S
C1450 H1442 0.950 . S
C1450 C1448 1.391 . S
C1450 C1451 1.400 . S
C1451 C1450 1.400 . S
C1451 C1452 1.398 . S
C1451 C1457 1.491 . S
C1452 H1443 0.950 . S
C1452 C1451 1.398 . S
C1452 C1453 1.391 . S
C1453 H1441 0.950 . S
C1453 C1449 1.393 . S
C1453 C1452 1.391 . S
C1454 H1444 0.950 1_556 S
C1454 C1455 1.386 . S
C1454 C1456 1.391 . S
C1455 C1454 1.386 . S
C1455 C1459 1.393 . S
C1456 H1445 0.950 . S
C1456 C1454 1.391 . S
C1456 C1457 1.400 . S
C1457 C1451 1.491 . S
C1457 C1456 1.400 . S
C1457 C1458 1.398 . S
C1458 H1446 0.950 . S
C1458 C1457 1.398 . S
C1458 C1459 1.391 . S
C1459 H1447 0.950 . S
C1459 C1455 1.393 . S
C1459 C1458 1.391 . S
H1460 C1468 0.950 . S
H1461 C1473 0.950 . S
H1462 C1470 0.950 . S
H1463 C1472 0.950 . S
H1464 C1474 0.950 . S
H1465 C1476 0.950 . S
H1466 C1478 0.950 . S
H1467 C1479 0.950 . S
C1468 H1460 0.950 . S
C1468 C1469 1.386 . S
C1468 C1470 1.391 . S
C1469 C1468 1.386 . S
C1469 C1473 1.393 . S
C1470 H1462 0.950 . S
C1470 C1468 1.391 . S
C1470 C1471 1.400 . S
C1471 C1470 1.400 . S
C1471 C1472 1.398 . S
C1471 C1477 1.491 . S
C1472 H1463 0.950 . S
C1472 C1471 1.398 . S
C1472 C1473 1.391 . S
C1473 H1461 0.950 . S
C1473 C1469 1.393 . S
C1473 C1472 1.391 . S
C1474 H1464 0.950 . S
C1474 C1475 1.386 . S
C1474 C1476 1.391 . S
C1475 C1474 1.386 . S
C1475 C1479 1.393 . S
C1476 H1465 0.950 . S
C1476 C1474 1.391 . S
C1476 C1477 1.400 . S
C1477 C1471 1.491 . S
C1477 C1476 1.400 . S
C1477 C1478 1.398 . S
C1478 H1466 0.950 . S
C1478 C1477 1.398 . S
C1478 C1479 1.391 . S
C1479 H1467 0.950 . S
C1479 C1475 1.393 . S
C1479 C1478 1.391 . S
H1480 C1488 0.950 . S
H1481 C1493 0.950 1_455 S
H1482 C1490 0.950 . S
H1483 C1492 0.950 . S
H1484 C1494 0.950 . S
H1485 C1496 0.950 . S
H1486 C1498 0.950 . S
H1487 C1499 0.950 . S
C1488 H1480 0.950 . S
C1488 C1489 1.386 . S
C1488 C1490 1.391 . S
C1489 C1488 1.386 . S
C1489 C1493 1.393 . S
C1490 H1482 0.950 . S
C1490 C1488 1.391 . S
C1490 C1491 1.400 . S
C1491 C1490 1.400 . S
C1491 C1492 1.398 . S
C1491 C1497 1.491 . S
C1492 H1483 0.950 . S
C1492 C1491 1.398 . S
C1492 C1493 1.391 . S
C1493 H1481 0.950 1_655 S
C1493 C1489 1.393 . S
C1493 C1492 1.391 . S
C1494 H1484 0.950 . S
C1494 C1495 1.386 . S
C1494 C1496 1.391 . S
C1495 C1494 1.386 . S
C1495 C1499 1.393 . S
C1496 H1485 0.950 . S
C1496 C1494 1.391 . S
C1496 C1497 1.400 . S
C1497 C1491 1.491 . S
C1497 C1496 1.400 . S
C1497 C1498 1.398 . S
C1498 H1486 0.950 . S
C1498 C1497 1.398 . S
C1498 C1499 1.391 . S
C1499 H1487 0.950 . S
C1499 C1495 1.393 . S
C1499 C1498 1.391 . S
H1500 C1508 0.950 . S
H1501 C1513 0.950 . S
H1502 C1510 0.950 . S
H1503 C1512 0.950 . S
H1504 C1514 0.950 . S
H1505 C1516 0.950 . S
H1506 C1518 0.950 . S
H1507 C1519 0.950 . S
C1508 H1500 0.950 . S
C1508 C1509 1.386 . S
C1508 C1510 1.391 . S
C1509 C1508 1.386 . S
C1509 C1513 1.393 . S
C1510 H1502 0.950 . S
C1510 C1508 1.391 . S
C1510 C1511 1.400 . S
C1511 C1510 1.400 . S
C1511 C1512 1.398 . S
C1511 C1517 1.491 . S
C1512 H1503 0.950 . S
C1512 C1511 1.398 . S
C1512 C1513 1.391 . S
C1513 H1501 0.950 . S
C1513 C1509 1.393 . S
C1513 C1512 1.391 . S
C1514 H1504 0.950 . S
C1514 C1515 1.386 . S
C1514 C1516 1.391 . S
C1515 C1514 1.386 . S
C1515 C1519 1.393 . S
C1516 H1505 0.950 . S
C1516 C1514 1.391 . S
C1516 C1517 1.400 . S
C1517 C1511 1.491 . S
C1517 C1516 1.400 . S
C1517 C1518 1.398 . S
C1518 H1506 0.950 . S
C1518 C1517 1.398 . S
C1518 C1519 1.391 . S
C1519 H1507 0.950 . S
C1519 C1515 1.393 . S
C1519 C1518 1.391 . S
H1520 C1528 0.950 . S
H1521 C1533 0.950 . S
H1522 C1530 0.950 . S
H1523 C1532 0.950 . S
H1524 C1534 0.950 . S
H1525 C1536 0.950 . S
H1526 C1538 0.950 . S
H1527 C1539 0.950 . S
C1528 H1520 0.950 . S
C1528 C1529 1.386 . S
C1528 C1530 1.391 . S
C1529 C1528 1.386 . S
C1529 C1533 1.393 . S
C1530 H1522 0.950 . S
C1530 C1528 1.391 . S
C1530 C1531 1.400 . S
C1531 C1530 1.400 . S
C1531 C1532 1.398 . S
C1531 C1537 1.491 . S
C1532 H1523 0.950 . S
C1532 C1531 1.398 . S
C1532 C1533 1.391 . S
C1533 H1521 0.950 . S
C1533 C1529 1.393 . S
C1533 C1532 1.391 . S
C1534 H1524 0.950 . S
C1534 C1535 1.386 . S
C1534 C1536 1.391 . S
C1535 C1534 1.386 . S
C1535 C1539 1.393 . S
C1536 H1525 0.950 . S
C1536 C1534 1.391 . S
C1536 C1537 1.400 . S
C1537 C1531 1.491 . S
C1537 C1536 1.400 . S
C1537 C1538 1.398 . S
C1538 H1526 0.950 . S
C1538 C1537 1.398 . S
C1538 C1539 1.391 . S
C1539 H1527 0.950 . S
C1539 C1535 1.393 . S
C1539 C1538 1.391 . S
H1540 C1548 0.950 . S
H1541 C1553 0.950 . S
H1542 C1550 0.950 . S
H1543 C1552 0.950 . S
H1544 C1554 0.950 . S
H1545 C1556 0.950 . S
H1546 C1558 0.950 . S
H1547 C1559 0.950 . S
C1548 H1540 0.950 . S
C1548 C1549 1.386 . S
C1548 C1550 1.391 . S
C1549 C1548 1.386 . S
C1549 C1553 1.393 . S
C1550 H1542 0.950 . S
C1550 C1548 1.391 . S
C1550 C1551 1.400 . S
C1551 C1550 1.400 . S
C1551 C1552 1.398 . S
C1551 C1557 1.491 . S
C1552 H1543 0.950 . S
C1552 C1551 1.398 . S
C1552 C1553 1.391 . S
C1553 H1541 0.950 . S
C1553 C1549 1.393 . S
C1553 C1552 1.391 . S
C1554 H1544 0.950 . S
C1554 C1555 1.386 . S
C1554 C1556 1.391 . S
C1555 C1554 1.386 . S
C1555 C1559 1.393 . S
C1556 H1545 0.950 . S
C1556 C1554 1.391 . S
C1556 C1557 1.400 . S
C1557 C1551 1.491 . S
C1557 C1556 1.400 . S
C1557 C1558 1.398 . S
C1558 H1546 0.950 . S
C1558 C1557 1.398 . S
C1558 C1559 1.391 . S
C1559 H1547 0.950 . S
C1559 C1555 1.393 . S
C1559 C1558 1.391 . S
H1560 C1568 0.950 . S
H1561 C1573 0.950 . S
H1562 C1570 0.950 . S
H1563 C1572 0.950 . S
H1564 C1574 0.950 . S
H1565 C1576 0.950 . S
H1566 C1578 0.950 . S
H1567 C1579 0.950 . S
C1568 H1560 0.950 . S
C1568 C1569 1.386 . S
C1568 C1570 1.391 . S
C1569 C1568 1.386 . S
C1569 C1573 1.393 . S
C1570 H1562 0.950 . S
C1570 C1568 1.391 . S
C1570 C1571 1.400 . S
C1571 C1570 1.400 . S
C1571 C1572 1.398 . S
C1571 C1577 1.491 . S
C1572 H1563 0.950 . S
C1572 C1571 1.398 . S
C1572 C1573 1.391 . S
C1573 H1561 0.950 . S
C1573 C1569 1.393 . S
C1573 C1572 1.391 . S
C1574 H1564 0.950 . S
C1574 C1575 1.386 . S
C1574 C1576 1.391 . S
C1575 C1574 1.386 . S
C1575 C1579 1.393 . S
C1576 H1565 0.950 . S
C1576 C1574 1.391 . S
C1576 C1577 1.400 . S
C1577 C1571 1.491 . S
C1577 C1576 1.400 . S
C1577 C1578 1.398 . S
C1578 H1566 0.950 . S
C1578 C1577 1.398 . S
C1578 C1579 1.391 . S
C1579 H1567 0.950 . S
C1579 C1575 1.393 . S
C1579 C1578 1.391 . S
H1580 C1588 0.950 . S
H1581 C1593 0.950 . S
H1582 C1590 0.950 . S
H1583 C1592 0.950 . S
H1584 C1594 0.950 . S
H1585 C1596 0.950 . S
H1586 C1598 0.950 . S
H1587 C1599 0.950 . S
C1588 H1580 0.950 . S
C1588 C1589 1.386 . S
C1588 C1590 1.391 . S
C1589 C1588 1.386 . S
C1589 C1593 1.393 . S
C1590 H1582 0.950 . S
C1590 C1588 1.391 . S
C1590 C1591 1.400 . S
C1591 C1590 1.400 . S
C1591 C1592 1.398 . S
C1591 C1597 1.491 . S
C1592 H1583 0.950 . S
C1592 C1591 1.398 . S
C1592 C1593 1.391 . S
C1593 H1581 0.950 . S
C1593 C1589 1.393 . S
C1593 C1592 1.391 . S
C1594 H1584 0.950 . S
C1594 C1595 1.386 . S
C1594 C1596 1.391 . S
C1595 C1594 1.386 . S
C1595 C1599 1.393 . S
C1596 H1585 0.950 . S
C1596 C1594 1.391 . S
C1596 C1597 1.400 . S
C1597 C1591 1.491 . S
C1597 C1596 1.400 . S
C1597 C1598 1.398 . S
C1598 H1586 0.950 . S
C1598 C1597 1.398 . S
C1598 C1599 1.391 . S
C1599 H1587 0.950 . S
C1599 C1595 1.393 . S
C1599 C1598 1.391 . S
C649 C20 2.888 1_556 S
C655 C300 2.945 . S
C669 C60 2.890 . S
C675 C180 2.939 1_554 S
C689 C220 2.129 . S
C695 C105 2.115 . S
C709 C145 2.159 . S
C715 C260 2.160 . S
C729 C471 0.269 . S
C735 C164 0.461 . S
C749 C324 0.786 . S
C755 C4 0.651 . S
C769 C404 0.719 . S
C775 C244 0.801 . S
C789 C111 0.232 . S
C795 C364 0.504 . S
C809 C380 2.948 . S
C815 C500 2.905 . S
C829 C420 2.897 . S
C835 C580 2.933 . S
C849 C545 2.118 . S
C855 C340 2.127 . S
C869 C465 2.145 . S
C875 C620 2.171 . S
C889 C564 0.475 . S
C895 C151 0.186 . S
C909 C484 0.673 . S
C915 C204 0.785 . S
C929 C44 0.701 . S
C935 C604 0.813 . S
C949 C284 0.434 . S
C955 C551 0.279 . S
C969 C543 0.575 . S
C975 C2 0.574 . S
C989 C463 0.608 . S
C995 C42 0.533 . S
C1009 C482 0.594 . S
C1015 C103 0.550 . S
C1029 C402 0.590 . S
C1035 C143 0.537 . S
C1049 C162 0.919 . S
C1055 C602 0.869 . S
C1069 C362 0.907 . S
C1075 C202 0.811 . S
C1089 C242 0.841 . S
C1095 C562 0.915 . S
C1109 C282 0.927 . S
C1115 C322 0.844 . S
C1129 C23 1.206 . S
C1135 C183 1.205 . S
C1149 C63 1.553 . S
C1155 C223 1.556 . S
C1169 C263 1.615 . S
C1175 C82 1.632 . S
C1189 C122 1.240 . S
C1195 C303 1.247 . S
C1209 C423 1.568 . S
C1215 C343 1.545 . S
C1229 C442 1.236 . S
C1235 C383 1.244 . S
C1249 C503 1.190 . S
C1255 C583 1.180 . S
C1269 C623 1.595 . S
C1275 C522 1.616 . S
C1289 C25 0.459 . S
C1295 C305 0.427 . S
C1309 C65 0.382 . S
C1315 C185 0.432 . S
C1329 C225 0.830 . S
C1335 C100 0.874 . S
C1349 C265 0.819 . S
C1355 C140 0.853 . S
C1369 C444 2.716 . S
C1375 C191 2.797 . S
C1389 C351 3.520 . S
C1395 C31 3.495 . S
C1409 C431 3.427 1_554 S
C1415 C271 3.461 . S
C1429 C84 2.684 . S
C1435 C391 2.765 . S
C1449 C505 0.419 . S
C1455 C385 0.508 . S
C1469 C585 0.499 . S
C1475 C425 0.378 . S
C1489 C540 0.862 . S
C1495 C345 0.854 . S
C1509 C625 0.809 . S
C1515 C460 0.858 . S
C1529 C591 2.801 . S
C1535 C124 2.707 . S
C1549 C231 3.524 1_556 S
C1555 C511 3.488 . S
C1569 C71 3.428 . S
C1575 C631 3.458 . S
C1589 C524 2.684 . S
C1595 C311 2.765 . S
