# Generated by pormake.
# Topology unn, (4)-cn, num edge types: 1
# Building blocks:
#     Node 0, Type 0, BuildingBlock: ESEHIV_clean_sbu_0, # of connection points: 4
#     Node 1, Type 0, BuildingBlock: ESEHIV_clean_sbu_0, # of connection points: 4
#     Node 2, Type 0, BuildingBlock: ESEHIV_clean_sbu_0, # of connection points: 4
#     Node 3, Type 0, BuildingBlock: ESEHIV_clean_sbu_0, # of connection points: 4
#     Node 4, Type 0, BuildingBlock: ESEHIV_clean_sbu_0, # of connection points: 4
#     Node 5, Type 0, BuildingBlock: ESEHIV_clean_sbu_0, # of connection points: 4
#     Node 6, Type 0, BuildingBlock: ESEHIV_clean_sbu_0, # of connection points: 4
#     Node 7, Type 0, BuildingBlock: ESEHIV_clean_sbu_0, # of connection points: 4
#     Node 8, Type 0, BuildingBlock: ESEHIV_clean_sbu_0, # of connection points: 4
#     Node 9, Type 0, BuildingBlock: ESEHIV_clean_sbu_0, # of connection points: 4
#     Node 10, Type 0, BuildingBlock: ESEHIV_clean_sbu_0, # of connection points: 4
#     Node 11, Type 0, BuildingBlock: ESEHIV_clean_sbu_0, # of connection points: 4
#     Node 12, Type 0, BuildingBlock: ESEHIV_clean_sbu_0, # of connection points: 4
#     Node 13, Type 0, BuildingBlock: ESEHIV_clean_sbu_0, # of connection points: 4
#     Node 14, Type 0, BuildingBlock: ESEHIV_clean_sbu_0, # of connection points: 4
#     Node 15, Type 0, BuildingBlock: ESEHIV_clean_sbu_0, # of connection points: 4
#     Node 16, Type 0, BuildingBlock: ESEHIV_clean_sbu_0, # of connection points: 4
#     Node 17, Type 0, BuildingBlock: ESEHIV_clean_sbu_0, # of connection points: 4
#     Edge 18, Type (0, 0), BuildingBlock: UVAHIK_clean_linker_0, # of connection points: 2
#     Edge 19, Type (0, 0), BuildingBlock: UVAHIK_clean_linker_0, # of connection points: 2
#     Edge 20, Type (0, 0), BuildingBlock: UVAHIK_clean_linker_0, # of connection points: 2
#     Edge 21, Type (0, 0), BuildingBlock: UVAHIK_clean_linker_0, # of connection points: 2
#     Edge 22, Type (0, 0), BuildingBlock: UVAHIK_clean_linker_0, # of connection points: 2
#     Edge 23, Type (0, 0), BuildingBlock: UVAHIK_clean_linker_0, # of connection points: 2
#     Edge 24, Type (0, 0), BuildingBlock: UVAHIK_clean_linker_0, # of connection points: 2
#     Edge 25, Type (0, 0), BuildingBlock: UVAHIK_clean_linker_0, # of connection points: 2
#     Edge 26, Type (0, 0), BuildingBlock: UVAHIK_clean_linker_0, # of connection points: 2
#     Edge 27, Type (0, 0), BuildingBlock: UVAHIK_clean_linker_0, # of connection points: 2
#     Edge 28, Type (0, 0), BuildingBlock: UVAHIK_clean_linker_0, # of connection points: 2
#     Edge 29, Type (0, 0), BuildingBlock: UVAHIK_clean_linker_0, # of connection points: 2
#     Edge 30, Type (0, 0), BuildingBlock: UVAHIK_clean_linker_0, # of connection points: 2
#     Edge 31, Type (0, 0), BuildingBlock: UVAHIK_clean_linker_0, # of connection points: 2
#     Edge 32, Type (0, 0), BuildingBlock: UVAHIK_clean_linker_0, # of connection points: 2
#     Edge 33, Type (0, 0), BuildingBlock: UVAHIK_clean_linker_0, # of connection points: 2
#     Edge 34, Type (0, 0), BuildingBlock: UVAHIK_clean_linker_0, # of connection points: 2
#     Edge 35, Type (0, 0), BuildingBlock: UVAHIK_clean_linker_0, # of connection points: 2
#     Edge 36, Type (0, 0), BuildingBlock: UVAHIK_clean_linker_0, # of connection points: 2
#     Edge 37, Type (0, 0), BuildingBlock: UVAHIK_clean_linker_0, # of connection points: 2
#     Edge 38, Type (0, 0), BuildingBlock: UVAHIK_clean_linker_0, # of connection points: 2
#     Edge 39, Type (0, 0), BuildingBlock: UVAHIK_clean_linker_0, # of connection points: 2
#     Edge 40, Type (0, 0), BuildingBlock: UVAHIK_clean_linker_0, # of connection points: 2
#     Edge 41, Type (0, 0), BuildingBlock: UVAHIK_clean_linker_0, # of connection points: 2
#     Edge 42, Type (0, 0), BuildingBlock: UVAHIK_clean_linker_0, # of connection points: 2
#     Edge 43, Type (0, 0), BuildingBlock: UVAHIK_clean_linker_0, # of connection points: 2
#     Edge 44, Type (0, 0), BuildingBlock: UVAHIK_clean_linker_0, # of connection points: 2
#     Edge 45, Type (0, 0), BuildingBlock: UVAHIK_clean_linker_0, # of connection points: 2
#     Edge 46, Type (0, 0), BuildingBlock: UVAHIK_clean_linker_0, # of connection points: 2
#     Edge 47, Type (0, 0), BuildingBlock: UVAHIK_clean_linker_0, # of connection points: 2
#     Edge 48, Type (0, 0), BuildingBlock: UVAHIK_clean_linker_0, # of connection points: 2
#     Edge 49, Type (0, 0), BuildingBlock: UVAHIK_clean_linker_0, # of connection points: 2
#     Edge 50, Type (0, 0), BuildingBlock: UVAHIK_clean_linker_0, # of connection points: 2
#     Edge 51, Type (0, 0), BuildingBlock: UVAHIK_clean_linker_0, # of connection points: 2
#     Edge 52, Type (0, 0), BuildingBlock: UVAHIK_clean_linker_0, # of connection points: 2
#     Edge 53, Type (0, 0), BuildingBlock: UVAHIK_clean_linker_0, # of connection points: 2
# Relax obj value: 0.007
# Max RMSD: 0.141
# Mean RMSD: 0.139
data_MOF--net-unn--node1-ESEHIV_clean_sbu_0--edge1-UVAHIK_clean_linker_0
_symmetry_space_group_name_H-M    P1
_symmetry_Int_Tables_number       1
_symmetry_cell_setting            triclinic
loop_
_symmetry_equiv_pos_as_xyz
'x, y, z'
_cell_length_a     68.085124
_cell_length_b     67.698376
_cell_length_c     54.836549
_cell_angle_alpha  90.129096
_cell_angle_beta   90.160891
_cell_angle_gamma 119.92422
loop_
_atom_site_label
_atom_site_type_symbol
_atom_site_fract_x
_atom_site_fract_y
_atom_site_fract_z
_atom_type_partial_charge
Cu0 Cu 0.01959 0.74199 0.26259 0.0
N1 N 0.04475 0.77044 0.26971 0.0
N2 N 0.07851 0.79681 0.28453 0.0
C3 C 0.06232 0.77453 0.2844 0.0
C4 C 0.07069 0.80704 0.26934 0.0
C5 C 0.04994 0.79075 0.2602 0.0
O6 O 1.01415 0.72286 0.29124 0.0
C7 C 0.01488 0.7107 0.22451 0.0
O8 O 0.99749 0.69537 0.23695 0.0
H9 H 0.06344 0.76126 0.29417 0.0
H10 H 0.03952 0.79346 0.24725 0.0
N11 N 0.9941 0.74497 0.25576 0.0
N12 N 0.96039 0.73796 0.24107 0.0
C13 C 0.97576 0.73083 0.24228 0.0
C14 C 0.99029 0.76169 0.26327 0.0
C15 C 0.96958 0.75741 0.25435 0.0
C16 C 1.00556 0.72689 0.3099 0.0
O17 O 0.99989 0.74276 0.30853 0.0
H18 H 0.97387 0.71577 0.23329 0.0
H19 H 1.00169 0.7759 0.27468 0.0
O20 O 0.02676 0.73071 0.23323 0.0
H21 H 0.0793 0.82502 0.26505 0.0
H22 H 0.96184 0.76773 0.2578 0.0
Cu23 Cu 0.29719 0.29245 0.26597 0.0
N24 N 0.29187 0.26321 0.25874 0.0
N25 N 0.29774 0.23576 0.24375 0.0
C26 C 0.30516 0.25838 0.24472 0.0
C27 C 0.27893 0.22606 0.25775 0.0
C28 C 0.2754 0.24303 0.26699 0.0
O29 O 0.31434 0.31097 0.23831 0.0
C30 C 0.32193 0.32064 0.30723 0.0
O31 O 0.32247 0.33774 0.29537 0.0
H32 H 0.32002 0.27135 0.23547 0.0
H33 H 0.26201 0.24086 0.27919 0.0
N34 N 0.26969 0.29225 0.26907 0.0
N35 N 0.24343 0.30066 0.28181 0.0
C36 C 0.26482 0.30454 0.28479 0.0
C37 C 0.25077 0.2801 0.25572 0.0
C38 C 0.23457 0.28522 0.2635 0.0
C39 C 0.31141 0.3262 0.22818 0.0
O40 O 0.29818 0.33269 0.23857 0.0
H41 H 0.27688 0.31641 0.29784 0.0
H42 H 0.24894 0.26837 0.24128 0.0
O43 O 0.31306 0.3011 0.29713 0.0
H44 H 0.26873 0.20806 0.26163 0.0
H45 H 0.21753 0.27793 0.25632 0.0
Cu46 Cu 0.7454 0.01697 0.26506 0.0
N47 N 0.74708 0.99037 0.26945 0.0
N48 N 0.73964 0.95602 0.28273 0.0
C49 C 0.73515 0.97327 0.28524 0.0
C50 C 0.75515 0.96272 0.26472 0.0
C51 C 0.75967 0.98384 0.2566 0.0
O52 O 0.73459 0.02363 0.29505 0.0
C53 C 0.71285 0.99508 0.22674 0.0
O54 O 0.70739 0.97606 0.23828 0.0
H55 H 0.72296 0.97321 0.29784 0.0
H56 H 0.77114 0.99367 0.24212 0.0
N57 N 0.77421 0.04162 0.25881 0.0
N58 N 0.80131 0.07508 0.24422 0.0
C59 C 0.77881 0.06009 0.24541 0.0
C60 C 0.79442 0.04492 0.26642 0.0
C61 C 0.81116 0.06553 0.25747 0.0
C62 C 0.71479 0.01147 0.30373 0.0
O63 O 0.6995 0.99409 0.29099 0.0
H64 H 0.76579 0.06254 0.23701 0.0
H65 H 0.7968 0.03314 0.27761 0.0
O66 O 0.7273 0.01402 0.23626 0.0
H67 H 0.76277 0.95312 0.25784 0.0
H68 H 0.82919 0.07271 0.26027 0.0
Cu69 Cu 0.0198 0.28975 0.7632 0.0
N70 N 0.99539 0.26081 0.75633 0.0
N71 N 0.96185 0.23372 0.74182 0.0
C72 C 0.97701 0.25629 0.74286 0.0
C73 C 0.97117 0.22372 0.7552 0.0
C74 C 0.99184 0.24047 0.7641 0.0
O75 O 0.02302 0.30808 0.73459 0.0
C76 C 0.0242 0.31961 0.80304 0.0
O77 O 0.04258 0.33524 0.79218 0.0
H78 H 0.97465 0.26941 0.73447 0.0
H79 H 1.00341 0.23803 0.77555 0.0
N80 N 0.0462 0.28805 0.76809 0.0
N81 N 0.08035 0.29554 0.78166 0.0
C82 C 0.06316 0.29999 0.78413 0.0
C83 C 0.05277 0.27549 0.75513 0.0
C84 C 0.07376 0.28003 0.76343 0.0
C85 C 0.04193 0.32299 0.72576 0.0
O86 O 0.06068 0.32871 0.73793 0.0
H87 H 0.06319 0.31219 0.79687 0.0
H88 H 0.04307 0.26406 0.74042 0.0
O89 O 1.01233 0.30021 0.79295 0.0
H90 H 0.96371 0.2056 0.75822 0.0
H91 H 0.08337 0.27246 0.75649 0.0
Cu92 Cu 0.74269 0.73947 0.7656 0.0
N93 N 0.74601 0.76817 0.77237 0.0
N94 N 0.7398 0.79553 0.78698 0.0
C95 C 0.73417 0.77337 0.78828 0.0
C96 C 0.75597 0.80462 0.76966 0.0
C97 C 0.75973 0.78774 0.76072 0.0
O98 O 0.73149 0.72061 0.79468 0.0
C99 C 0.7162 0.70769 0.72769 0.0
O100 O 0.71904 0.69262 0.73991 0.0
H101 H 0.72117 0.76103 0.80004 0.0
H102 H 0.77134 0.78949 0.74636 0.0
N103 N 0.77108 0.74284 0.75832 0.0
N104 N 0.79784 0.73622 0.74327 0.0
C105 C 0.7755 0.72944 0.74379 0.0
C106 C 0.7913 0.75867 0.76731 0.0
C107 C 0.80783 0.75468 0.75804 0.0
C108 C 0.71242 0.71428 0.80466 0.0
O109 O 0.6976 0.71828 0.79364 0.0
H110 H 0.76261 0.71505 0.73372 0.0
H111 H 0.79379 0.77198 0.78001 0.0
O112 O 0.72367 0.72755 0.73662 0.0
H113 H 0.76443 0.82218 0.76373 0.0
H114 H 0.82572 0.76431 0.76237 0.0
Cu115 Cu 0.2982 0.01608 0.7639 0.0
N116 N 0.29621 0.04253 0.7597 0.0
N117 N 0.30323 0.07681 0.74667 0.0
C118 C 0.30799 0.05976 0.744 0.0
C119 C 0.28772 0.06986 0.76469 0.0
C120 C 0.28345 0.04877 0.77266 0.0
O121 O 0.30887 1.00955 0.73369 0.0
C122 C 0.33028 0.03797 0.80269 0.0
O123 O 0.3354 0.05706 0.79148 0.0
H124 H 0.32025 0.06006 0.73133 0.0
H125 H 0.27204 0.03877 0.7871 0.0
N126 N 0.26949 0.99126 0.77018 0.0
N127 N 0.24257 0.95775 0.78483 0.0
C128 C 0.26501 0.97302 0.78394 0.0
C129 C 0.24926 0.98752 0.76206 0.0
C130 C 0.23263 0.96687 0.77105 0.0
C131 C 0.32849 0.02181 0.7246 0.0
O132 O 0.3439 0.03931 0.7371 0.0
H133 H 0.27807 0.9709 0.79276 0.0
H134 H 0.24681 0.99901 0.75044 0.0
O135 O 0.31634 0.01904 0.79272 0.0
H136 H 0.27992 0.07926 0.77167 0.0
H137 H 0.2146 0.95935 0.76786 0.0
Cu138 Cu 0.68689 0.07349 0.59653 0.0
N139 N 0.66136 0.07638 0.58969 0.0
N140 N 0.62734 0.06883 0.57561 0.0
C141 C 0.64265 0.06168 0.57705 0.0
C142 C 0.63686 0.08885 0.58783 0.0
C143 C 0.65778 0.09346 0.59641 0.0
O144 O 0.69418 0.06244 0.56708 0.0
C145 C 0.67183 0.0574 0.64339 0.0
O146 O 0.66521 0.07254 0.64179 0.0
H147 H 0.64014 0.04588 0.56936 0.0
H148 H 0.66951 0.1082 0.60699 0.0
N149 N 0.71201 0.10191 0.60384 0.0
N150 N 0.7458 0.12818 0.61871 0.0
C151 C 0.72962 0.10589 0.61837 0.0
C152 C 0.71715 0.1223 0.59459 0.0
C153 C 0.7379 0.13853 0.60378 0.0
C154 C 0.68242 0.04248 0.55821 0.0
O155 O 0.66509 0.02697 0.57057 0.0
H156 H 0.73079 0.09252 0.62786 0.0
H157 H 0.70672 0.12511 0.58174 0.0
O158 O 0.68139 0.0542 0.62506 0.0
H159 H 0.62939 0.09957 0.59018 0.0
H160 H 0.74645 0.15653 0.59965 0.0
Cu161 Cu 0.96256 0.6272 0.59787 0.0
N162 N 0.96091 0.59899 0.59274 0.0
N163 N 0.96854 0.57238 0.5789 0.0
C164 C 0.97324 0.59423 0.57709 0.0
C165 C 0.95246 0.56301 0.59627 0.0
C166 C 0.94785 0.57946 0.60479 0.0
O167 O 0.97271 0.64501 0.56807 0.0
C168 C 0.99513 0.63748 0.63604 0.0
O169 O 1.00033 0.62378 0.62431 0.0
H170 H 0.98545 0.60651 0.56462 0.0
H171 H 0.93609 0.57747 0.61909 0.0
N172 N 0.93378 0.62279 0.60466 0.0
N173 N 0.90683 0.62927 0.61935 0.0
C174 C 0.92928 0.6366 0.61835 0.0
C175 C 0.91356 0.60612 0.59665 0.0
C176 C 0.8969 0.61002 0.60571 0.0
C177 C 0.99197 0.65251 0.55805 0.0
O178 O 1.00777 0.65015 0.5692 0.0
H179 H 0.94231 0.65169 0.62745 0.0
H180 H 0.91114 0.59225 0.58484 0.0
O181 O 0.98088 0.64224 0.62664 0.0
H182 H 0.94502 0.54571 0.60287 0.0
H183 H 0.87892 0.59972 0.60205 0.0
Cu184 Cu 0.40994 0.35162 0.60194 0.0
N185 N 0.43853 0.37652 0.59537 0.0
N186 N 0.46541 0.41008 0.58078 0.0
C187 C 0.44298 0.39472 0.58155 0.0
C188 C 0.47536 0.40106 0.59469 0.0
C189 C 0.45876 0.3804 0.60364 0.0
O190 O 0.3911 0.34831 0.57355 0.0
C191 C 0.37975 0.34593 0.64115 0.0
O192 O 0.36434 0.32864 0.6284 0.0
H193 H 0.42992 0.39678 0.57264 0.0
H194 H 0.46124 0.36901 0.6154 0.0
N195 N 0.41228 0.32539 0.60641 0.0
N196 N 0.40549 0.29123 0.61963 0.0
C197 C 0.40031 0.30802 0.6219 0.0
C198 C 0.42561 0.31949 0.59401 0.0
C199 C 0.42146 0.29848 0.60208 0.0
C200 C 0.37939 0.32961 0.56203 0.0
O201 O 0.37743 0.31077 0.57107 0.0
H202 H 0.38763 0.30744 0.63414 0.0
H203 H 0.43732 0.32968 0.57987 0.0
O204 O 0.39945 0.35815 0.63227 0.0
H205 H 0.49338 0.40868 0.59801 0.0
H206 H 0.42966 0.28932 0.59552 0.0
Cu207 Cu 0.68429 0.62778 0.09962 0.0
N208 N 0.65985 0.59866 0.09353 0.0
N209 N 0.62638 0.57127 0.07919 0.0
C210 C 0.64135 0.59388 0.08018 0.0
C211 C 0.63596 0.56149 0.09251 0.0
C212 C 0.6566 0.57842 0.10131 0.0
O213 O 0.68583 0.64553 0.07102 0.0
C214 C 0.6903 0.65812 0.13944 0.0
O215 O 0.70739 0.67379 0.12691 0.0
H216 H 0.63882 0.60688 0.07172 0.0
H217 H 0.6684 0.57617 0.11257 0.0
N218 N 0.71107 0.62652 0.10298 0.0
N219 N 0.74528 0.63371 0.11589 0.0
C220 C 0.7284 0.63856 0.11858 0.0
C221 C 0.71717 0.61357 0.08999 0.0
C222 C 0.73821 0.61792 0.09793 0.0
C223 C 0.70398 0.66042 0.06081 0.0
O224 O 0.72358 0.66696 0.07152 0.0
H225 H 0.72856 0.65049 0.13181 0.0
H226 H 0.70706 0.60191 0.07562 0.0
O227 O 0.67818 0.63836 0.13021 0.0
H228 H 0.62875 0.54339 0.0955 0.0
H229 H 0.74774 0.61037 0.09068 0.0
Cu230 Cu 0.40813 0.07009 0.10004 0.0
N231 N 0.43691 0.07426 0.09386 0.0
N232 N 0.46397 0.06789 0.07927 0.0
C233 C 0.44151 0.06058 0.08007 0.0
C234 C 0.4738 0.08697 0.09317 0.0
C235 C 0.45708 0.09084 0.10213 0.0
O236 O 0.39024 0.05525 0.07092 0.0
C237 C 0.37753 0.04482 0.13883 0.0
O238 O 0.36214 0.04681 0.12629 0.0
H239 H 0.42852 0.04533 0.07115 0.0
H240 H 0.45944 0.10474 0.11384 0.0
N241 N 0.40998 0.09841 0.10491 0.0
N242 N 0.40264 0.12524 0.11866 0.0
C243 C 0.39764 0.1033 0.12042 0.0
C244 C 0.42332 0.11793 0.09298 0.0
C245 C 0.41888 0.13452 0.10145 0.0
C246 C 0.37645 0.06038 0.061 0.0
O247 O 0.37132 0.07428 0.07242 0.0
H248 H 0.38526 0.09104 0.13278 0.0
H249 H 0.43519 0.11985 0.07885 0.0
O250 O 0.39724 0.05245 0.12991 0.0
H251 H 0.4918 0.09756 0.09646 0.0
H252 H 0.4266 0.15188 0.09495 0.0
Cu253 Cu 0.96298 0.34995 0.09815 0.0
N254 N 0.9603 0.37575 0.09219 0.0
N255 N 0.96759 0.40956 0.07734 0.0
C256 C 0.97306 0.39289 0.07678 0.0
C257 C 0.95064 0.40246 0.09375 0.0
C258 C 0.94623 0.38168 0.10288 0.0
O259 O 0.97538 0.34427 0.06861 0.0
C260 C 0.99098 0.3727 0.13964 0.0
O261 O 0.99051 0.39071 0.13159 0.0
H262 H 0.98614 0.39307 0.06546 0.0
H263 H 0.93395 0.37179 0.11671 0.0
N264 N 0.93461 0.32467 0.10515 0.0
N265 N 0.90854 0.2908 0.11992 0.0
C266 C 0.9309 0.3059 0.11744 0.0
C267 C 0.91393 0.32145 0.09975 0.0
C268 C 0.89783 0.30058 0.10874 0.0
C269 C 0.96206 0.33447 0.05066 0.0
O270 O 0.94041 0.32754 0.05315 0.0
H271 H 0.94441 0.30335 0.12424 0.0
H272 H 0.91077 0.33346 0.08998 0.0
O273 O 0.98166 0.35441 0.12704 0.0
H274 H 0.9424 0.41187 0.09935 0.0
H275 H 0.87966 0.29339 0.10751 0.0
Cu276 Cu 0.35165 0.40665 0.9341 0.0
N277 N 0.37654 0.43532 0.94167 0.0
N278 N 0.40999 0.46243 0.95654 0.0
C279 C 0.39467 0.43989 0.95566 0.0
C280 C 0.40105 0.47239 0.94254 0.0
C281 C 0.3805 0.45567 0.93341 0.0
O282 O 0.34412 0.38743 0.96288 0.0
C283 C 0.347 0.37535 0.89608 0.0
O284 O 0.329 0.36032 0.90799 0.0
H285 H 0.39687 0.42693 0.96456 0.0
H286 H 0.36929 0.45814 0.9214 0.0
N287 N 0.32638 0.40972 0.92687 0.0
N288 N 0.29289 0.40286 0.91185 0.0
C289 C 0.3094 0.39729 0.91102 0.0
C290 C 0.32047 0.42369 0.93804 0.0
C291 C 0.29989 0.41954 0.92882 0.0
C292 C 0.35665 0.38058 0.97256 0.0
O293 O 0.37517 0.38418 0.96135 0.0
H294 H 0.30878 0.38391 0.8997 0.0
H295 H 0.33027 0.43575 0.95226 0.0
O296 O 0.35922 0.39516 0.90515 0.0
H297 H 0.4087 0.49048 0.93914 0.0
H298 H 0.29077 0.42809 0.93432 0.0
Cu299 Cu 0.62818 0.95911 0.93206 0.0
N300 N 0.62644 0.9308 0.92756 0.0
N301 N 0.63381 0.9038 0.91435 0.0
C302 C 0.63832 0.92554 0.91177 0.0
C303 C 0.61833 0.89506 0.93239 0.0
C304 C 0.61385 0.91172 0.94047 0.0
O305 O 0.63815 0.97641 0.90192 0.0
C306 C 0.66123 0.97011 0.96982 0.0
O307 O 0.6665 0.95647 0.95809 0.0
H308 H 0.65051 0.93761 0.89914 0.0
H309 H 0.60244 0.91015 0.95498 0.0
N310 N 0.59946 0.95481 0.93897 0.0
N311 N 0.57256 0.96128 0.95382 0.0
C312 C 0.59502 0.96869 0.95262 0.0
C313 C 0.57919 0.93801 0.93123 0.0
C314 C 0.56256 0.94194 0.94035 0.0
C315 C 0.65738 0.98377 0.89189 0.0
O316 O 0.6732 0.98156 0.90321 0.0
H317 H 0.60811 0.98416 0.96109 0.0
H318 H 0.57671 0.92394 0.91972 0.0
O319 O 0.64673 0.97458 0.96055 0.0
H320 H 0.61073 0.87787 0.93934 0.0
H321 H 0.54452 0.93123 0.93742 0.0
Cu322 Cu 0.0783 0.68455 0.93176 0.0
N323 N 0.08015 0.65808 0.93649 0.0
N324 N 0.07287 0.62392 0.95019 0.0
C325 C 0.06817 0.64104 0.95233 0.0
C326 C 0.08855 0.63058 0.93239 0.0
C327 C 0.09295 0.65159 0.92396 0.0
O328 O 0.06733 0.69126 0.9616 0.0
C329 C 0.046 0.66232 0.89327 0.0
O330 O 0.0407 0.64335 0.90484 0.0
H331 H 0.05624 0.64118 0.96517 0.0
H332 H 0.10439 0.66131 0.90942 0.0
N333 N 0.10703 0.70933 0.92551 0.0
N334 N 0.13397 0.74287 0.91094 0.0
C335 C 0.11153 0.7276 0.91182 0.0
C336 C 0.12726 0.71305 0.93362 0.0
C337 C 0.1439 0.73372 0.92469 0.0
C338 C 0.04756 0.67905 0.97032 0.0
O339 O 0.03234 0.66154 0.95767 0.0
H340 H 0.09847 0.72976 0.90302 0.0
H341 H 0.1297 0.70154 0.94521 0.0
O342 O 0.06024 0.68133 0.90284 0.0
H343 H 0.09588 0.62073 0.92542 0.0
H344 H 0.16192 0.74123 0.92787 0.0
Cu345 Cu 0.35238 0.95755 0.43179 0.0
N346 N 0.32695 0.92908 0.425 0.0
N347 N 0.29321 0.90224 0.41052 0.0
C348 C 0.30934 0.92453 0.41015 0.0
C349 C 0.3011 0.89243 0.42619 0.0
C350 C 0.32184 0.90899 0.43508 0.0
O351 O 0.3595 0.97632 0.40271 0.0
C352 C 0.35807 0.98961 0.46952 0.0
O353 O 0.37581 1.00448 0.45717 0.0
H354 H 0.3081 0.93742 0.39979 0.0
H355 H 0.33234 0.90662 0.44823 0.0
N356 N 0.37738 0.95391 0.43873 0.0
N357 N 0.41087 0.96029 0.45327 0.0
C358 C 0.39536 0.96722 0.45307 0.0
C359 C 0.38161 0.93799 0.42953 0.0
C360 C 0.40219 0.94183 0.43846 0.0
C361 C 0.34734 0.98403 0.39395 0.0
O362 O 0.32968 0.98144 0.40626 0.0
H363 H 0.39727 0.98201 0.4627 0.0
H364 H 0.37058 0.92464 0.41701 0.0
O365 O 0.34565 0.96969 0.4608 0.0
H366 H 0.29257 0.87455 0.43094 0.0
H367 H 0.41003 0.93171 0.43437 0.0
Cu368 Cu 0.08044 0.41012 0.43233 0.0
N369 N 0.08464 0.43891 0.43983 0.0
N370 N 0.07765 0.46559 0.45487 0.0
C371 C 0.07091 0.44312 0.45385 0.0
C372 C 0.09646 0.47583 0.4409 0.0
C373 C 0.10068 0.45934 0.43163 0.0
O374 O 0.06516 0.39121 0.46047 0.0
C375 C 0.05474 0.38101 0.39207 0.0
O376 O 0.05621 0.36462 0.40318 0.0
H377 H 0.05622 0.42983 0.46302 0.0
H378 H 0.11423 0.46199 0.41942 0.0
N379 N 0.10849 0.41185 0.42738 0.0
N380 N 0.13509 0.4044 0.41352 0.0
C381 C 0.11338 0.39974 0.41139 0.0
C382 C 0.12776 0.42471 0.43995 0.0
C383 C 0.14417 0.42018 0.43148 0.0
C384 C 0.06998 0.37694 0.4698 0.0
O385 O 0.084 0.37213 0.45834 0.0
H386 H 0.10108 0.38731 0.39894 0.0
H387 H 0.12963 0.43637 0.45448 0.0
O388 O 0.06302 0.40048 0.4022 0.0
H389 H 0.10619 0.49387 0.43704 0.0
H390 H 0.16145 0.42798 0.43806 0.0
Cu391 Cu 0.63082 0.68358 0.43354 0.0
N392 N 0.62793 0.70915 0.42676 0.0
N393 N 0.63463 0.74281 0.41202 0.0
C394 C 0.64018 0.72622 0.41104 0.0
C395 C 0.61814 0.73577 0.42897 0.0
C396 C 0.61409 0.71508 0.438 0.0
O397 O 0.64226 0.67614 0.40449 0.0
C398 C 0.6568 0.67802 0.4717 0.0
O399 O 0.65398 0.6601 0.45941 0.0
H400 H 0.65337 0.72681 0.39963 0.0
H401 H 0.60213 0.70519 0.45209 0.0
N402 N 0.60223 0.65859 0.44044 0.0
N403 N 0.57508 0.62514 0.45507 0.0
C404 C 0.5975 0.64056 0.45472 0.0
C405 C 0.58214 0.65448 0.43144 0.0
C406 C 0.56539 0.63392 0.44041 0.0
C407 C 0.66188 0.6885 0.39546 0.0
O408 O 0.67689 0.70658 0.40754 0.0
H409 H 0.61029 0.63856 0.46426 0.0
H410 H 0.57987 0.66561 0.41908 0.0
O411 O 0.64953 0.69051 0.46273 0.0
H412 H 0.60961 0.7449 0.43454 0.0
H413 H 0.54746 0.62617 0.43651 0.0
C414 C 1.00337 0.68553 0.18729 0.0
C415 C 0.01907 0.70575 0.19925 0.0
C416 C 1.00627 0.68192 0.16271 0.0
C417 C 0.04901 0.70113 0.11347 0.0
H418 H 0.99685 0.67808 0.07039 0.0
C419 C 0.05888 0.70202 1.00904 0.0
C420 C 0.04281 0.68292 0.99578 0.0
C421 C 0.05546 0.70466 0.0337 0.0
C422 C 1.01155 0.68427 0.08218 0.0
H423 H 0.05049 0.73774 0.19484 0.0
H424 H 0.05556 0.7314 0.15214 0.0
H425 H 0.99227 0.68205 0.11393 0.0
H426 H 1.01026 0.65185 0.99804 0.0
H427 H 1.00441 0.65631 0.0411 0.0
H428 H 0.0683 0.70327 0.08186 0.0
C429 C 0.04103 0.71828 0.16174 0.0
C430 C 1.00892 0.68654 0.10717 0.0
C431 C 0.03807 0.72195 0.18624 0.0
C432 C 0.02294 0.66683 1.00764 0.0
C433 C 0.01956 0.66943 0.03237 0.0
C434 C 0.05163 0.69879 0.08852 0.0
C435 C 0.02502 0.69837 0.14956 0.0
C436 C 0.02764 0.69512 0.12311 0.0
C437 C 0.03593 0.68823 0.04583 0.0
C438 C 0.03297 0.69047 0.07248 0.0
H439 H 0.98852 0.6727 0.19672 0.0
H440 H 0.99377 0.66627 0.15397 0.0
H441 H 0.06373 0.70747 0.12527 0.0
H442 H 0.07432 0.71483 1.00047 0.0
H443 H 0.06822 0.71961 0.04328 0.0
C444 C 0.33056 0.36357 1.0082 0.0
C445 C 0.35218 0.37203 0.99799 0.0
C446 C 0.3269 0.35794 0.03295 0.0
C447 C 0.35349 0.34866 0.08857 0.0
H448 H 0.31007 0.36036 0.12162 0.0
C449 C 0.32655 0.32102 0.18848 0.0
C450 C 0.31981 0.33372 0.20302 0.0
C451 C 0.33174 0.32627 0.16382 0.0
C452 C 0.32254 0.3573 0.11288 0.0
H453 H 0.38687 0.38092 1.00572 0.0
H454 H 0.38076 0.3719 0.04895 0.0
H455 H 0.31649 0.36789 0.07839 0.0
H456 H 0.31433 0.3626 0.20329 0.0
H457 H 0.32438 0.37246 0.16066 0.0
H458 H 0.36035 0.33916 0.12337 0.0
C459 C 0.36638 0.36895 0.03783 0.0
C460 C 0.32591 0.3612 0.08779 0.0
C461 C 0.36994 0.3742 1.01296 0.0
C462 C 0.31932 0.35239 0.19256 0.0
C463 C 0.32487 0.35788 0.16798 0.0
C464 C 0.35036 0.34508 0.11376 0.0
C465 C 0.34486 0.36105 0.04831 0.0
C466 C 0.34132 0.3568 0.07517 0.0
C467 C 0.33068 0.34459 0.15307 0.0
C468 C 0.33474 0.34922 0.12631 0.0
H469 H 0.31649 0.36157 0.9971 0.0
H470 H 0.30994 0.35132 0.04004 0.0
H471 H 0.36533 0.3448 0.07961 0.0
H472 H 0.32692 0.30638 0.19586 0.0
H473 H 0.33578 0.31536 0.15304 0.0
C474 C 0.71463 0.01411 0.18683 0.0
C475 C 0.70502 0.99432 0.20126 0.0
C476 C 0.70944 0.01287 0.16195 0.0
C477 C 0.68874 0.97148 0.11077 0.0
H478 H 0.68456 0.01927 0.07648 0.0
C479 C 0.65969 0.98729 1.00996 0.0
C480 C 0.66919 0.97714 0.9953 0.0
C481 C 0.66491 0.99109 0.03486 0.0
C482 C 0.68555 1.0057 0.08578 0.0
H483 H 0.68149 0.95792 0.201 0.0
H484 H 0.67207 0.95584 0.15783 0.0
H485 H 0.68992 0.02178 0.12064 0.0
H486 H 0.69257 0.96416 0.99515 0.0
H487 H 0.70206 0.97126 0.03834 0.0
H488 H 0.68381 0.95508 0.07614 0.0
C489 C 0.68408 0.97225 0.16558 0.0
C490 C 0.68884 1.00725 0.11111 0.0
C491 C 0.68933 0.97347 0.19042 0.0
C492 C 0.68482 0.97186 1.00591 0.0
C493 C 0.69011 0.97575 0.03077 0.0
C494 C 0.68541 0.96991 0.08552 0.0
C495 C 0.69446 0.99184 0.15087 0.0
C496 C 0.69046 0.99014 0.12395 0.0
C497 C 0.67982 0.98492 0.04571 0.0
C498 C 0.68381 0.987 0.07263 0.0
H499 H 0.72684 0.03047 0.19453 0.0
H500 H 0.71791 0.02829 0.15122 0.0
H501 H 0.69026 0.95814 0.11991 0.0
H502 H 0.64752 0.99151 1.00244 0.0
H503 H 0.65652 0.99802 0.04578 0.0
C504 C 0.7056 0.05415 0.51994 0.0
C505 C 0.6866 0.03781 0.53283 0.0
C506 C 0.70847 0.05084 0.49531 0.0
C507 C 0.68883 1.00694 0.44617 0.0
H508 H 0.71154 0.05959 0.40386 0.0
C509 C 0.69001 0.99937 0.34092 0.0
C510 C 0.71001 0.01535 0.32917 0.0
C511 C 0.68648 1.00206 0.36557 0.0
C512 C 0.70535 0.04474 0.41544 0.0
H513 H 0.65595 1.00488 0.52994 0.0
H514 H 0.66079 0.99924 0.48691 0.0
H515 H 0.7072 0.0639 0.44729 0.0
H516 H 0.74172 0.04703 0.33406 0.0
H517 H 0.73552 0.05175 0.3769 0.0
H518 H 0.68685 0.98779 0.41416 0.0
C519 C 0.67367 0.01451 0.49592 0.0
C520 C 0.70292 0.04721 0.4404 0.0
C521 C 0.67085 0.01777 0.52063 0.0
C522 C 0.7261 0.0344 0.34249 0.0
C523 C 0.72251 0.03716 0.36707 0.0
C524 C 0.69116 1.00445 0.42115 0.0
C525 C 0.69235 0.03117 0.48283 0.0
C526 C 0.69476 0.02838 0.45616 0.0
C527 C 0.70279 0.02088 0.37901 0.0
C528 C 0.69956 0.02335 0.4055 0.0
H529 H 0.71815 0.06973 0.52878 0.0
H530 H 0.72332 0.06382 0.48601 0.0
H531 H 0.68276 0.9921 0.45774 0.0
H532 H 0.67726 0.98448 0.33124 0.0
H533 H 0.67098 0.98936 0.37414 0.0
C534 C 0.97952 0.66614 0.52189 0.0
C535 C 0.99531 0.66118 0.53267 0.0
C536 C 0.98128 0.67219 0.49731 0.0
C537 C 0.02049 0.69192 0.44423 0.0
H538 H 0.9643 0.66949 0.40797 0.0
C539 C 0.01717 0.70628 0.33976 0.0
C540 C 1.0032 0.71533 0.33352 0.0
C541 C 0.01636 0.69777 0.3633 0.0
C542 C 0.98014 0.6759 0.41785 0.0
H543 H 0.02566 0.65918 0.52608 0.0
H544 H 0.02852 0.66937 0.48303 0.0
H545 H 0.96321 0.6592 0.45065 0.0
H546 H 0.9769 0.72176 0.34667 0.0
H547 H 0.97517 0.70657 0.38727 0.0
H548 H 0.03733 0.70853 0.41112 0.0
C549 C 0.01493 0.66891 0.49368 0.0
C550 C 0.97954 0.67014 0.4424 0.0
C551 C 1.01328 0.66302 0.51839 0.0
C552 C 0.98789 0.71493 0.35091 0.0
C553 C 0.98683 0.70613 0.37417 0.0
C554 C 0.02109 0.69752 0.41953 0.0
C555 C 0.99874 0.67324 0.4827 0.0
C556 C 0.99967 0.67843 0.45611 0.0
C557 C 1.00126 0.69776 0.38079 0.0
C558 C 1.00089 0.6899 0.4062 0.0
H559 H 0.96557 0.66507 0.53238 0.0
H560 H 0.96882 0.67598 0.48975 0.0
H561 H 0.03633 0.69878 0.45417 0.0
H562 H 0.02924 0.70652 0.32678 0.0
H563 H 0.0276 0.69131 0.36786 0.0
C564 C 0.37484 0.34989 0.52585 0.0
C565 C 0.3707 0.32951 0.5371 0.0
C566 C 0.36867 0.34994 0.50145 0.0
C567 C 0.33305 0.31155 0.45103 0.0
H568 H 0.3755 0.36033 0.40932 0.0
C569 C 0.32645 0.30421 0.3464 0.0
C570 C 0.32921 0.32322 0.33319 0.0
C571 C 0.33147 0.30598 0.37132 0.0
C572 C 0.36335 0.34671 0.42077 0.0
H573 H 0.35629 0.29312 0.53155 0.0
H574 H 0.34585 0.29326 0.48919 0.0
H575 H 0.38337 0.36151 0.45294 0.0
H576 H 0.34005 0.35921 0.33586 0.0
H577 H 0.34896 0.3623 0.37945 0.0
H578 H 0.31326 0.29657 0.41881 0.0
C579 C 0.35357 0.3092 0.49921 0.0
C580 C 0.36782 0.3474 0.44582 0.0
C581 C 0.35968 0.30913 0.52356 0.0
C582 C 0.33775 0.34423 0.34544 0.0
C583 C 0.3429 0.34602 0.37042 0.0
C584 C 0.32866 0.31081 0.42602 0.0
C585 C 0.35822 0.32963 0.48769 0.0
C586 C 0.35283 0.3297 0.46126 0.0
C587 C 0.33949 0.32682 0.38373 0.0
C588 C 0.34387 0.32824 0.41051 0.0
H589 H 0.38329 0.36591 0.53572 0.0
H590 H 0.37222 0.36595 0.49332 0.0
H591 H 0.32087 0.29785 0.46237 0.0
H592 H 0.31999 0.28777 0.33761 0.0
H593 H 0.32903 0.29095 0.3809 0.0
C594 C 0.03425 0.34178 0.84241 0.0
C595 C 0.01839 0.3235 0.82799 0.0
C596 C 0.02927 0.34424 0.86664 0.0
C597 C 0.98158 0.32773 0.9089 0.0
H598 H 0.02528 0.33803 0.95993 0.0
C599 C 0.95542 0.31685 1.0093 0.0
C600 C 0.97059 0.33243 0.02649 0.0
C601 C 0.96242 0.31628 0.98554 0.0
C602 C 1.01299 0.33546 0.94591 0.0
H603 H 0.98469 0.29378 0.82762 0.0
H604 H 0.97596 0.29826 0.86961 0.0
H605 H 0.0352 0.33718 0.91726 0.0
H606 H 1.00527 0.35925 0.03244 0.0
H607 H 0.0175 0.35862 0.99062 0.0
H608 H 0.95942 0.32624 0.93721 0.0
C609 C 0.99223 0.31068 0.86224 0.0
C610 C 0.01868 0.33496 0.92145 0.0
C611 C 0.99728 0.30808 0.83817 0.0
C612 C 0.99322 0.34696 0.01961 0.0
C613 C 1.0002 0.34657 0.99564 0.0
C614 C 0.97596 0.32841 0.93324 0.0
C615 C 1.00823 0.32865 0.87684 0.0
C616 C 1.00291 0.33076 0.9027 0.0
C617 C 0.98474 0.3315 0.97815 0.0
C618 C 0.99142 0.3319 0.95215 0.0
H619 H 0.0507 0.3539 0.83518 0.0
H620 H 0.04186 0.35836 0.87738 0.0
H621 H 0.96919 0.32486 0.89486 0.0
H622 H 0.93793 0.30522 1.0141 0.0
H623 H 0.95018 0.30396 0.97287 0.0
C624 C 0.7223 0.68614 0.02493 0.0
C625 C 0.70319 0.66766 0.03543 0.0
C626 C 0.72225 0.69149 1.00027 0.0
C627 C 0.68401 0.67888 0.94591 0.0
H628 H 0.74039 0.70138 0.9107 0.0
C629 C 0.6932 0.70821 0.84518 0.0
C630 C 0.70863 0.70589 0.83017 0.0
C631 C 0.69165 0.70296 0.87005 0.0
C632 C 0.72436 0.69478 0.92006 0.0
H633 H 0.66887 0.64047 0.02823 0.0
H634 H 0.669 0.64921 0.98528 0.0
H635 H 0.73937 0.69376 0.95394 0.0
H636 H 0.73378 0.69521 0.82927 0.0
H637 H 0.73036 0.68501 0.87223 0.0
H638 H 0.66876 0.6788 0.91173 0.0
C639 C 0.6839 0.66008 0.99608 0.0
C640 C 0.72388 0.69082 0.94515 0.0
C641 C 0.68384 0.65497 0.02082 0.0
C642 C 0.72182 0.69733 0.84038 0.0
C643 C 0.72001 0.69172 0.86515 0.0
C644 C 0.68442 0.68253 0.92073 0.0
C645 C 0.7032 0.67825 0.98531 0.0
C646 C 0.70372 0.68286 0.95852 0.0
C647 C 0.70526 0.69492 0.88052 0.0
C648 C 0.70462 0.69057 0.90738 0.0
H649 H 0.73745 0.69634 0.0357 0.0
H650 H 0.73727 0.70596 0.99294 0.0
H651 H 0.66818 0.67305 0.95547 0.0
H652 H 0.68296 0.715 0.83795 0.0
H653 H 0.68031 0.70601 0.88118 0.0
C654 C 0.35402 0.05942 0.02415 0.0
C655 C 0.36918 0.05377 0.03526 0.0
C656 C 0.34935 0.05586 0.99914 0.0
C657 C 0.35516 0.06207 0.9445 0.0
H658 H 0.35124 0.01044 0.90943 0.0
C659 C 0.35307 0.05933 0.8395 0.0
C660 C 0.33771 0.03853 0.82832 0.0
C661 C 0.35787 0.06037 0.86446 0.0
C662 C 0.35215 0.02491 0.91893 0.0
H663 H 0.39073 0.03914 0.02881 0.0
H664 H 0.38284 0.03322 0.98521 0.0
H665 H 0.35569 0.01258 0.95369 0.0
H666 H 0.31597 1.0023 0.8346 0.0
H667 H 0.32408 1.00415 0.8781 0.0
H668 H 0.35101 0.07414 0.90997 0.0
C669 C 0.37431 0.04017 0.99585 0.0
C670 C 0.35494 0.02625 0.94434 0.0
C671 C 0.37888 0.04363 0.0209 0.0
C672 C 0.32796 0.01862 0.84255 0.0
C673 C 0.33267 0.01968 0.86756 0.0
C674 C 0.35232 0.06071 0.91917 0.0
C675 C 0.35983 0.04668 0.98452 0.0
C676 C 0.35645 0.04485 0.95748 0.0
C677 C 0.34733 0.04064 0.87897 0.0
C678 C 0.35081 0.04214 0.90599 0.0
H679 H 0.34612 0.06713 0.03465 0.0
H680 H 0.33772 0.0606 0.99121 0.0
H681 H 0.35661 0.07685 0.95386 0.0
H682 H 0.36101 0.07498 0.82909 0.0
H683 H 0.36965 0.07674 0.87245 0.0
C684 C 0.35268 0.03387 0.68693 0.0
C685 C 0.33282 0.01797 0.69895 0.0
C686 C 0.35574 0.03128 0.6621 0.0
C687 C 0.32295 1.00249 0.60608 0.0
H688 H 0.38179 0.01808 0.58001 0.0
C689 C 0.33499 0.97897 0.50788 0.0
C690 C 0.35416 0.9948 0.49481 0.0
C691 C 0.33231 0.98275 0.53244 0.0
C692 C 0.36529 0.01392 0.58694 0.0
H693 H 0.30094 0.98641 0.69437 0.0
H694 H 0.30647 0.98165 0.65138 0.0
H695 H 0.3777 0.02212 0.62364 0.0
H696 H 0.38532 0.02734 0.49732 0.0
H697 H 0.38056 0.03398 0.54014 0.0
H698 H 0.31051 0.99408 0.56942 0.0
C699 C 0.31949 0.99644 0.66094 0.0
C700 C 0.36294 0.01622 0.612 0.0
C701 C 0.3164 0.99907 0.68571 0.0
C702 C 0.37032 0.01479 0.50678 0.0
C703 C 0.3677 0.01851 0.53141 0.0
C704 C 0.32529 1.00012 0.58106 0.0
C705 C 0.33904 0.01269 0.64868 0.0
C706 C 0.3417 0.01043 0.62194 0.0
C707 C 0.34879 1.00241 0.54463 0.0
C708 C 0.34647 1.00571 0.57117 0.0
H709 H 0.36564 0.04869 0.69651 0.0
H710 H 0.37092 0.04425 0.65328 0.0
H711 H 0.30643 0.99831 0.61294 0.0
H712 H 0.32221 0.96337 0.49929 0.0
H713 H 0.31764 0.96988 0.54207 0.0
C714 C 0.02364 0.32127 0.68534 0.0
C715 C 0.04303 0.33108 0.70037 0.0
C716 C 0.02524 0.32672 0.66054 0.0
C717 C 0.06732 0.3488 0.61065 0.0
H718 H 0.01967 0.35201 0.57515 0.0
C719 C 0.05213 0.37782 0.50955 0.0
C720 C 0.06282 0.36876 0.49511 0.0
C721 C 0.04811 0.37244 0.53434 0.0
C722 C 0.03321 0.35131 0.58479 0.0
H723 H 0.07911 0.35525 0.7013 0.0
H724 H 0.0818 0.36516 0.65827 0.0
H725 H 0.01656 0.3463 0.6192 0.0
H726 H 0.07657 0.34596 0.49521 0.0
H727 H 0.0691 0.33615 0.5382 0.0
H728 H 0.08427 0.35439 0.57648 0.0
C729 C 0.06543 0.35278 0.66548 0.0
C730 C 0.03132 0.34781 0.61005 0.0
C731 C 0.06386 0.34724 0.69024 0.0
C732 C 0.06845 0.35338 0.5058 0.0
C733 C 0.06434 0.34791 0.53055 0.0
C734 C 0.06923 0.35235 0.58546 0.0
C735 C 0.04625 0.34221 0.65016 0.0
C736 C 0.04836 0.34651 0.62333 0.0
C737 C 0.0546 0.35777 0.5453 0.0
C738 C 0.05219 0.35359 0.57214 0.0
H739 H 1.00732 0.30869 0.69249 0.0
H740 H 1.01013 0.31809 0.64933 0.0
H741 H 0.08063 0.34755 0.62013 0.0
H742 H 0.04762 0.3898 0.50196 0.0
H743 H 0.04074 0.38051 0.5451 0.0
C744 C 0.66886 0.66565 0.50941 0.0
C745 C 0.66532 0.6819 0.49727 0.0
C746 C 0.67444 0.66812 0.53428 0.0
C747 C 0.67062 0.69726 0.59006 0.0
H748 H 0.71246 0.67989 0.61713 0.0
C749 C 0.70449 0.71907 0.68913 0.0
C750 C 0.70739 0.70285 0.70224 0.0
C751 C 0.69843 0.71566 0.66442 0.0
C752 C 0.7005 0.68454 0.60992 0.0
H753 H 0.66582 0.714 0.50165 0.0
H754 H 0.67598 0.71854 0.54472 0.0
H755 H 0.70497 0.67635 0.57333 0.0
H756 H 0.70558 0.67001 0.69964 0.0
H757 H 0.69484 0.664 0.65658 0.0
H758 H 0.66629 0.70561 0.6266 0.0
C759 C 0.67392 0.70357 0.53522 0.0
C760 C 0.69622 0.68254 0.58476 0.0
C761 C 0.66828 0.70107 0.51041 0.0
C762 C 0.70348 0.68285 0.69015 0.0
C763 C 0.69752 0.6795 0.66538 0.0
C764 C 0.67495 0.69931 0.61517 0.0
C765 C 0.67669 0.68694 0.54763 0.0
C766 C 0.68129 0.68897 0.57446 0.0
C767 C 0.69519 0.69599 0.65212 0.0
C768 C 0.69001 0.69306 0.62544 0.0
H769 H 0.66661 0.65061 0.49992 0.0
H770 H 0.67626 0.65487 0.54322 0.0
H771 H 0.65866 0.70192 0.58291 0.0
H772 H 0.7074 0.7347 0.69779 0.0
H773 H 0.697 0.72883 0.65477 0.0
C774 C 0.33538 0.35069 0.85845 0.0
C775 C 0.35134 0.37052 0.87081 0.0
C776 C 0.33838 0.34733 0.83383 0.0
C777 C 0.38146 0.36636 0.78486 0.0
H778 H 0.32962 0.34501 0.74154 0.0
C779 C 0.3916 0.36829 0.68031 0.0
C780 C 0.37523 0.34958 0.6668 0.0
C781 C 0.38828 0.37073 0.70505 0.0
C782 C 0.34423 0.35072 0.75339 0.0
H783 H 0.38334 0.40203 0.86706 0.0
H784 H 0.38858 0.39611 0.82427 0.0
H785 H 0.32499 0.34856 0.78514 0.0
H786 H 0.34228 0.31897 0.66875 0.0
H787 H 0.33659 0.32308 0.71194 0.0
H788 H 0.40071 0.36844 0.75323 0.0
C789 C 0.37377 0.38311 0.8336 0.0
C790 C 0.34156 0.35275 0.77843 0.0
C791 C 0.37071 0.38654 0.85816 0.0
C792 C 0.3552 0.33366 0.67854 0.0
C793 C 0.3519 0.33606 0.70334 0.0
C794 C 0.38411 0.36425 0.75986 0.0
C795 C 0.35748 0.36362 0.82101 0.0
C796 C 0.36016 0.36069 0.79447 0.0
C797 C 0.36853 0.35448 0.71703 0.0
C798 C 0.36557 0.35653 0.74373 0.0
H799 H 0.32024 0.33801 0.86759 0.0
H800 H 0.32566 0.33198 0.82478 0.0
H801 H 0.39608 0.37221 0.79673 0.0
H802 H 0.40719 0.38096 0.67185 0.0
H803 H 0.40126 0.38539 0.71482 0.0
C804 C 0.68415 0.0377 0.67365 0.0
C805 C 0.66949 0.04581 0.66698 0.0
C806 C 0.68329 0.0292 0.6972 0.0
C807 C 0.64629 1.00587 0.75108 0.0
H808 H 0.70211 0.03061 0.78842 0.0
C809 C 0.64464 0.9965 0.85523 0.0
C810 C 0.66072 0.9922 0.86641 0.0
C811 C 0.64651 1.00242 0.83059 0.0
C812 C 0.68639 0.02325 0.77819 0.0
H813 H 0.64193 0.05058 0.6794 0.0
H814 H 0.64014 0.03544 0.72004 0.0
H815 H 0.70336 0.04031 0.74532 0.0
H816 H 0.6917 0.99122 0.86047 0.0
H817 H 0.69479 1.00121 0.81734 0.0
H818 H 0.62923 0.98876 0.78368 0.0
C819 C 0.65237 0.03571 0.70725 0.0
C820 C 0.68713 0.02881 0.75347 0.0
C821 C 0.65347 0.04448 0.68397 0.0
C822 C 0.67907 0.99453 0.85247 0.0
C823 C 0.68086 1.00031 0.82771 0.0
C824 C 0.64555 1.00017 0.77567 0.0
C825 C 0.66747 0.02829 0.7143 0.0
C826 C 0.66704 0.0205 0.73976 0.0
C827 C 0.6644 1.004 0.81635 0.0
C828 C 0.66553 1.00913 0.78973 0.0
H829 H 0.69678 0.03866 0.661 0.0
H830 H 0.69506 0.02348 0.70209 0.0
H831 H 0.63054 0.99892 0.74091 0.0
H832 H 0.63038 0.99504 0.86544 0.0
H833 H 0.63382 1.00569 0.82271 0.0
C834 C 0.04783 0.68123 0.85327 0.0
C835 C 0.03825 0.66148 0.86773 0.0
C836 C 0.04272 0.67994 0.82836 0.0
C837 C 0.02211 0.63846 0.77722 0.0
H838 H 0.0181 0.68629 0.74281 0.0
C839 C 0.99348 0.65454 0.67622 0.0
C840 C 1.00293 0.64432 0.6616 0.0
C841 C 0.99858 0.65823 0.70116 0.0
C842 C 0.01903 0.67269 0.75213 0.0
H843 H 0.01485 0.62504 0.8675 0.0
H844 H 1.00552 0.62287 0.82429 0.0
H845 H 0.02336 0.68881 0.78697 0.0
H846 H 0.0261 0.63108 0.66157 0.0
H847 H 0.0354 0.63801 0.70482 0.0
H848 H 0.01718 0.62201 0.74261 0.0
C849 C 0.01747 0.6393 0.83203 0.0
C850 C 0.02228 0.67426 0.77747 0.0
C851 C 0.02267 0.64058 0.8569 0.0
C852 C 0.01838 0.63884 0.6723 0.0
C853 C 0.02356 0.64263 0.69719 0.0
C854 C 0.01881 0.63687 0.75195 0.0
C855 C 0.02781 0.65888 0.81729 0.0
C856 C 0.02385 0.65714 0.79036 0.0
C857 C 1.01334 0.6519 0.71209 0.0
C858 C 0.01727 0.65397 0.73902 0.0
H859 H 0.05998 0.69762 0.86097 0.0
H860 H 0.05117 0.69535 0.81762 0.0
H861 H 0.02359 0.6251 0.78639 0.0
H862 H 0.98144 0.65891 0.66864 0.0
H863 H 0.99023 0.66524 0.71202 0.0
C864 C 0.65045 0.66485 0.35716 0.0
C865 C 0.66645 0.68431 0.37002 0.0
C866 C 0.65352 0.66202 0.33243 0.0
C867 C 0.6964 0.68298 0.28274 0.0
H868 H 0.64323 0.65854 0.241 0.0
C869 C 0.70246 0.68258 0.17727 0.0
C870 C 0.68671 0.66245 0.1652 0.0
C871 C 0.70004 0.68574 0.20211 0.0
C872 C 0.65823 0.66521 0.25241 0.0
H873 H 0.69856 0.71578 0.36695 0.0
H874 H 0.70378 0.71098 0.32381 0.0
H875 H 0.63942 0.66255 0.28462 0.0
H876 H 0.65575 0.63007 0.16981 0.0
H877 H 0.65152 0.63561 0.21298 0.0
H878 H 0.7152 0.68576 0.25039 0.0
C879 C 0.68896 0.69774 0.3329 0.0
C880 C 0.65604 0.66745 0.27749 0.0
C881 C 0.68594 0.70053 0.35768 0.0
C882 C 0.66819 0.64581 0.17846 0.0
C883 C 0.6657 0.64903 0.20324 0.0
C884 C 0.69859 0.68081 0.25762 0.0
C885 C 0.67261 0.67862 0.31982 0.0
C886 C 0.67507 0.67627 0.29305 0.0
C887 C 0.68173 0.66891 0.21547 0.0
C888 C 0.67952 0.67182 0.24214 0.0
H889 H 0.63529 0.65194 0.36607 0.0
H890 H 0.64079 0.64684 0.32316 0.0
H891 H 0.71139 0.68956 0.29414 0.0
H892 H 0.71695 0.69574 0.16766 0.0
H893 H 0.71253 0.70138 0.21087 0.0
C894 C 0.38945 0.03409 0.17767 0.0
C895 C 0.37309 0.03657 0.16442 0.0
C896 C 0.38631 0.02842 0.20243 0.0
C897 C 0.34282 1.00501 0.25138 0.0
H898 H 0.39528 0.03539 0.29396 0.0
C899 C 0.33536 0.99692 0.3566 0.0
C900 C 0.35136 0.99299 0.36863 0.0
C901 C 0.33805 1.00312 0.33195 0.0
C902 C 0.38048 0.02662 0.28231 0.0
H903 H 0.34033 0.03451 0.16684 0.0
H904 H 0.33497 0.02487 0.21005 0.0
H905 H 0.39942 0.04348 0.25042 0.0
H906 H 0.38311 0.99318 0.36425 0.0
H907 H 0.38783 1.00404 0.32142 0.0
H908 H 0.3239 0.98823 0.28339 0.0
C909 C 0.35013 0.02704 0.20124 0.0
C910 C 0.38286 0.0312 0.25728 0.0
C911 C 0.35324 0.03263 0.17642 0.0
C912 C 0.37046 0.9961 0.3556 0.0
C913 C 0.37322 1.00242 0.33103 0.0
C914 C 0.34043 1.00049 0.27644 0.0
C915 C 0.36678 0.02517 0.21468 0.0
C916 C 0.3641 0.02036 0.24142 0.0
C917 C 0.35689 1.00569 0.31877 0.0
C918 C 0.35926 0.01115 0.29222 0.0
H919 H 0.4049 0.03687 0.16902 0.0
H920 H 0.39929 0.02666 0.21199 0.0
H921 H 0.32804 0.99612 0.23974 0.0
H922 H 0.32042 0.99466 0.36603 0.0
H923 H 0.32531 1.00581 0.32317 0.0
C924 C 0.03898 0.35747 0.35384 0.0
C925 C 0.04565 0.37781 0.36682 0.0
C926 C 0.03208 0.35534 0.32939 0.0
C927 C 1.01238 0.38151 0.28271 0.0
H928 H 0.03397 0.35333 0.23642 0.0
C929 C 1.00743 0.39241 0.17943 0.0
C930 C 0.99944 0.37285 0.16469 0.0
C931 C 1.013 0.39199 0.20389 0.0
C932 C 0.02763 0.36105 0.24916 0.0
H933 H 0.04985 0.4117 0.36428 0.0
H934 H 0.0381 0.40807 0.3219 0.0
H935 H 0.04266 0.35388 0.27979 0.0
H936 H 0.99184 0.33768 0.16401 0.0
H937 H 1.00174 0.33703 0.2068 0.0
H938 H 0.99765 0.38898 0.25212 0.0
C939 C 0.0379 0.39362 0.33058 0.0
C940 C 0.03254 0.36131 0.27404 0.0
C941 C 0.04478 0.39575 0.35493 0.0
C942 C 0.99797 0.35307 0.17482 0.0
C943 C 1.00367 0.3527 0.19934 0.0
C944 C 1.00758 0.38134 0.2579 0.0
C945 C 0.03162 0.37347 0.31739 0.0
C946 C 0.0252 0.37179 0.29111 0.0
C947 C 1.01081 0.37203 0.21428 0.0
C948 C 0.01536 0.37136 0.24077 0.0
H949 H 0.03945 0.34332 0.36242 0.0
H950 H 0.02709 0.33947 0.3199 0.0
H951 H 1.00602 0.38929 0.29535 0.0
H952 H 1.00887 0.40798 0.17226 0.0
H953 H 0.01885 0.40731 0.21477 0.0
C954 C 0.26865 0.90113 0.37634 0.0
C955 C 0.27172 0.89141 0.39765 0.0
C956 C 0.24777 0.89079 0.36411 0.0
C957 C 0.19415 0.83568 0.35727 0.0
H958 H 0.1711 0.87341 0.33124 0.0
C959 C 0.10296 0.79731 0.31851 0.0
C960 C 0.1 0.80732 0.29739 0.0
C961 C 0.12381 0.80747 0.33084 0.0
C962 C 0.17738 0.86261 0.33814 0.0
H963 H 0.25485 0.86316 0.42281 0.0
H964 H 0.21859 0.84521 0.40152 0.0
H965 H 0.20759 0.89121 0.35223 0.0
H966 H 0.11703 0.8358 0.27254 0.0
H967 H 0.15321 0.85342 0.29394 0.0
H968 H 0.16395 0.80709 0.34316 0.0
C969 C 0.23245 0.86067 0.39405 0.0
C970 C 0.19835 0.87284 0.3502 0.0
C971 C 0.25332 0.871 0.40629 0.0
C972 C 0.11847 0.82776 0.28895 0.0
C973 C 0.13929 0.8379 0.30126 0.0
C974 C 0.17319 0.82545 0.34521 0.0
C975 C 0.22937 0.87044 0.37282 0.0
C976 C 0.20703 0.85952 0.35991 0.0
C977 C 0.14226 0.82791 0.32238 0.0
C978 C 0.16452 0.83878 0.33545 0.0
H979 H 0.28246 0.9166 0.36888 0.0
H980 H 0.24614 0.89862 0.3476 0.0
H981 H 0.20044 0.8249 0.3642 0.0
H982 H 0.08908 0.78177 0.32577 0.0
H983 H 0.12534 0.79945 0.34724 0.0
C984 C 0.24024 0.32062 0.31837 0.0
C985 C 0.2325 0.31103 0.29508 0.0
C986 C 0.22969 0.3307 0.33114 0.0
C987 C 0.19224 0.35549 0.32232 0.0
H988 H 0.18345 0.34664 0.39211 0.0
C989 C 0.13798 0.38427 0.37697 0.0
C990 C 0.14601 0.39412 0.4001 0.0
C991 C 0.14847 0.37417 0.36411 0.0
C992 C 0.18598 0.34951 0.37267 0.0
H993 H 0.20753 0.30489 0.267 0.0
H994 H 0.18891 0.32195 0.2894 0.0
H995 H 0.20179 0.32905 0.36994 0.0
H996 H 0.17141 0.40074 0.42781 0.0
H997 H 0.18987 0.38357 0.40527 0.0
H998 H 0.17638 0.37592 0.32506 0.0
C999 C 0.20334 0.32191 0.29771 0.0
C1000 C 0.19653 0.33941 0.35993 0.0
C1001 C 0.21388 0.31183 0.28495 0.0
C1002 C 0.16485 0.39358 0.40998 0.0
C1003 C 0.1753 0.38345 0.39715 0.0
C1004 C 0.18166 0.36557 0.33506 0.0
C1005 C 0.21109 0.3315 0.32098 0.0
C1006 C 0.19983 0.34227 0.33458 0.0
C1007 C 0.16726 0.37359 0.37404 0.0
C1008 C 0.17841 0.36274 0.36042 0.0
H1009 H 0.25435 0.32018 0.32693 0.0
H1010 H 0.2363 0.33812 0.34889 0.0
H1011 H 0.19479 0.35839 0.30289 0.0
H1012 H 0.12368 0.38451 0.36864 0.0
H1013 H 0.14166 0.36656 0.34647 0.0
C1014 C 0.72912 0.91532 0.28589 0.0
C1015 C 0.72937 0.93464 0.29584 0.0
C1016 C 0.71892 0.89456 0.29839 0.0
C1017 C 0.67689 0.86273 0.34655 0.0
H1018 H 0.70563 0.82565 0.34764 0.0
C1019 C 0.6446 0.78326 0.40808 0.0
C1020 C 0.6449 0.76405 0.39869 0.0
C1021 C 0.65479 0.80391 0.39539 0.0
C1022 C 0.6972 0.83563 0.34727 0.0
H1023 H 0.7193 0.94708 0.32718 0.0
H1024 H 0.70149 0.91094 0.34884 0.0
H1025 H 0.72366 0.86187 0.326 0.0
H1026 H 0.65592 0.75159 0.36821 0.0
H1027 H 0.67357 0.78751 0.34604 0.0
H1028 H 0.6504 0.83649 0.36773 0.0
C1029 C 0.70893 0.9118 0.33117 0.0
C1030 C 0.70757 0.85644 0.33487 0.0
C1031 C 0.71918 0.93258 0.3187 0.0
C1032 C 0.65562 0.76606 0.37619 0.0
C1033 C 0.66578 0.78672 0.36347 0.0
C1034 C 0.6665 0.84189 0.35891 0.0
C1035 C 0.70864 0.89249 0.32117 0.0
C1036 C 0.69758 0.87029 0.33437 0.0
C1037 C 0.66554 0.80595 0.37291 0.0
C1038 C 0.67652 0.82806 0.35949 0.0
H1039 H 0.73643 0.91603 0.26821 0.0
H1040 H 0.71873 0.87998 0.28996 0.0
H1041 H 0.66852 0.87275 0.34622 0.0
H1042 H 0.63687 0.78253 0.42551 0.0
H1043 H 0.65459 0.81842 0.40347 0.0
C1044 C 0.83426 0.11392 0.23848 0.0
C1045 C 0.81241 0.09668 0.23156 0.0
C1046 C 0.84495 0.13484 0.22629 0.0
C1047 C 0.84342 0.16253 0.16843 0.0
H1048 H 0.87836 0.21841 0.20537 0.0
C1049 C 0.87629 0.25163 0.12567 0.0
C1050 C 0.89821 0.269 0.13213 0.0
C1051 C 0.86617 0.2306 0.13761 0.0
C1052 C 0.86889 0.20296 0.19472 0.0
H1053 H 0.78491 0.08812 0.20597 0.0
H1054 H 0.80329 0.12465 0.18516 0.0
H1055 H 0.86007 0.18193 0.22648 0.0
H1056 H 0.92655 0.27771 0.1565 0.0
H1057 H 0.90904 0.24096 0.1771 0.0
H1058 H 0.85215 0.1836 0.13669 0.0
C1059 C 0.81229 0.1219 0.19987 0.0
C1060 C 0.85839 0.182 0.20685 0.0
C1061 C 0.80159 0.10098 0.21205 0.0
C1062 C 0.90976 0.26471 0.15085 0.0
C1063 C 0.8996 0.24369 0.16287 0.0
C1064 C 0.85388 0.18349 0.15632 0.0
C1065 C 0.83411 0.13914 0.20682 0.0
C1066 C 0.84547 0.16149 0.19387 0.0
C1067 C 0.87766 0.22636 0.15642 0.0
C1068 C 0.86673 0.204 0.1693 0.0
H1069 H 0.84308 0.1114 0.25351 0.0
H1070 H 0.86185 0.14758 0.232 0.0
H1071 H 0.83395 0.1471 0.15776 0.0
H1072 H 0.86696 0.25419 0.1112 0.0
H1073 H 0.84917 0.21775 0.13231 0.0
C1074 C 0.77819 0.63154 0.13212 0.0
C1075 C 0.7666 0.64371 0.12897 0.0
C1076 C 0.79894 0.64131 0.14458 0.0
C1077 C 0.83527 0.68854 0.18744 0.0
H1078 H 0.88251 0.67699 0.16475 0.0
C1079 C 0.92755 0.73938 0.22313 0.0
C1080 C 0.93874 0.72712 0.22845 0.0
C1081 C 0.90651 0.72889 0.21125 0.0
C1082 C 0.86942 0.68021 0.17147 0.0
H1083 H 0.76807 0.6759 0.13622 0.0
H1084 H 0.8043 0.69305 0.1576 0.0
H1085 H 0.84607 0.65946 0.14362 0.0
H1086 H 0.93603 0.69385 0.2253 0.0
H1087 H 0.89958 0.67576 0.20432 0.0
H1088 H 0.85881 0.70957 0.21507 0.0
C1089 C 0.79714 0.67573 0.15095 0.0
C1090 C 0.84846 0.67011 0.15938 0.0
C1091 C 0.77632 0.6659 0.13862 0.0
C1092 C 0.92825 0.70405 0.22131 0.0
C1093 C 0.90726 0.6936 0.20926 0.0
C1094 C 0.85627 0.69875 0.19942 0.0
C1095 C 0.80877 0.66358 0.15411 0.0
C1096 C 0.83108 0.67415 0.16717 0.0
C1097 C 0.89608 0.70587 0.20418 0.0
C1098 C 0.87363 0.69475 0.19156 0.0
H1099 H 0.77105 0.61431 0.12524 0.0
H1100 H 0.80713 0.63124 0.147 0.0
H1101 H 0.82221 0.69174 0.19431 0.0
H1102 H 0.9351 0.75722 0.22786 0.0
H1103 H 0.89855 0.73895 0.20728 0.0
C1104 C 0.33103 0.23677 0.22399 0.0
C1105 C 0.30814 0.22451 0.2311 0.0
C1106 C 0.34111 0.22592 0.21182 0.0
C1107 C 0.3354 0.16937 0.20109 0.0
H1108 H 0.3752 0.1993 0.14642 0.0
C1109 C 0.36988 0.12344 0.14035 0.0
C1110 C 0.39221 0.1362 0.13169 0.0
C1111 C 0.35962 0.13411 0.15255 0.0
C1112 C 0.36439 0.1908 0.16185 0.0
H1113 H 0.27797 0.19103 0.23052 0.0
H1114 H 0.29562 0.17215 0.20956 0.0
H1115 H 0.35736 0.218 0.16742 0.0
H1116 H 0.42137 0.17019 0.12961 0.0
H1117 H 0.40365 0.18876 0.15109 0.0
H1118 H 0.34257 0.14227 0.19572 0.0
C1119 C 0.3058 0.19017 0.21365 0.0
C1120 C 0.35411 0.20153 0.17387 0.0
C1121 C 0.29567 0.20104 0.22571 0.0
C1122 C 0.40406 0.15988 0.1357 0.0
C1123 C 0.39384 0.17054 0.148 0.0
C1124 C 0.34577 0.15868 0.18915 0.0
C1125 C 0.32865 0.20248 0.20652 0.0
C1126 C 0.33948 0.19096 0.19364 0.0
C1127 C 0.37144 0.15782 0.15652 0.0
C1128 C 0.36042 0.16924 0.16934 0.0
H1129 H 0.34139 0.25472 0.22811 0.0
H1130 H 0.35883 0.23586 0.20694 0.0
H1131 H 0.32449 0.16089 0.21647 0.0
H1132 H 0.3601 0.10524 0.13726 0.0
H1133 H 0.34223 0.12377 0.15844 0.0
C1134 C 0.7856 0.15945 0.62348 0.0
C1135 C 0.76737 0.13858 0.63141 0.0
C1136 C 0.80653 0.16943 0.63556 0.0
C1137 C 0.83369 0.16893 0.6942 0.0
H1138 H 0.8889 0.1987 0.6562 0.0
C1139 C 0.92253 0.20145 0.73726 0.0
C1140 C 0.94015 0.22273 0.72942 0.0
C1141 C 0.90146 0.19095 0.72541 0.0
C1142 C 0.87366 0.19066 0.66712 0.0
H1143 H 0.75707 0.11209 0.65869 0.0
H1144 H 0.79366 0.12922 0.67938 0.0
H1145 H 0.85228 0.18081 0.63552 0.0
H1146 H 0.94934 0.2494 0.7026 0.0
H1147 H 0.91258 0.23127 0.6822 0.0
H1148 H 0.85514 0.17875 0.72581 0.0
C1149 C 0.79167 0.13801 0.66392 0.0
C1150 C 0.85262 0.1804 0.65525 0.0
C1151 C 0.7707 0.12802 0.65185 0.0
C1152 C 0.93615 0.23315 0.70934 0.0
C1153 C 0.91511 0.22261 0.69744 0.0
C1154 C 0.85475 0.17915 0.70607 0.0
C1155 C 0.80989 0.15883 0.6559 0.0
C1156 C 0.83233 0.16946 0.66861 0.0
C1157 C 0.89747 0.20138 0.70534 0.0
C1158 C 0.87501 0.19023 0.6927 0.0
H1159 H 0.78388 0.16804 0.60772 0.0
H1160 H 0.82004 0.18561 0.62902 0.0
H1161 H 0.81846 0.16097 0.70513 0.0
H1162 H 0.92488 0.193 0.75278 0.0
H1163 H 0.88835 0.1745 0.73185 0.0
C1164 C 0.9079 0.66336 0.6377 0.0
C1165 C 0.89585 0.63997 0.63188 0.0
C1166 C 0.89726 0.67374 0.64969 0.0
C1167 C 0.84069 0.66661 0.66262 0.0
H1168 H 0.87276 0.71108 0.71365 0.0
C1169 C 0.79642 0.70233 0.72398 0.0
C1170 C 0.80866 0.72557 0.73035 0.0
C1171 C 0.80699 0.69194 0.71184 0.0
C1172 C 0.86364 0.69891 0.69924 0.0
H1173 H 0.86309 0.6092 0.63462 0.0
H1174 H 0.84457 0.62729 0.65543 0.0
H1175 H 0.89124 0.69289 0.69292 0.0
H1176 H 0.84162 0.75616 0.72836 0.0
H1177 H 0.85999 0.73812 0.70715 0.0
H1178 H 0.8131 0.67266 0.66889 0.0
C1179 C 0.86221 0.63767 0.65039 0.0
C1180 C 0.87425 0.68845 0.68735 0.0
C1181 C 0.87286 0.62728 0.63842 0.0
C1182 C 0.83173 0.73817 0.72411 0.0
C1183 C 0.84229 0.72779 0.71194 0.0
C1184 C 0.83008 0.67709 0.67449 0.0
C1185 C 0.87427 0.66105 0.65618 0.0
C1186 C 0.86292 0.67215 0.66888 0.0
C1187 C 0.83008 0.70452 0.7057 0.0
C1188 C 0.84141 0.69339 0.69297 0.0
H1189 H 0.92549 0.67382 0.63264 0.0
H1190 H 0.90699 0.69184 0.65351 0.0
H1191 H 0.83158 0.6544 0.64823 0.0
H1192 H 0.77875 0.69196 0.7288 0.0
H1193 H 0.79712 0.67392 0.70768 0.0
C1194 C 0.31347 0.11745 0.74394 0.0
C1195 C 0.31326 0.09826 0.7337 0.0
C1196 C 0.32342 0.13828 0.73157 0.0
C1197 C 0.34183 0.16366 0.67009 0.0
H1198 H 0.37691 0.21985 0.7065 0.0
C1199 C 0.3955 0.25067 0.62239 0.0
C1200 C 0.39546 0.26977 0.63255 0.0
C1201 C 0.38554 0.22983 0.63472 0.0
C1202 C 0.36696 0.20435 0.69607 0.0
H1203 H 0.32324 0.08612 0.70204 0.0
H1204 H 0.34094 0.12246 0.68076 0.0
H1205 H 0.35946 0.18349 0.72782 0.0
H1206 H 0.38505 0.28174 0.66399 0.0
H1207 H 0.36741 0.24537 0.68526 0.0
H1208 H 0.34937 0.18454 0.63833 0.0
C1209 C 0.33318 0.12134 0.6983 0.0
C1210 C 0.35693 0.18346 0.70832 0.0
C1211 C 0.32323 0.1005 0.71067 0.0
C1212 C 0.38525 0.26743 0.65545 0.0
C1213 C 0.37533 0.24658 0.6678 0.0
C1214 C 0.35188 0.18456 0.65784 0.0
C1215 C 0.33346 0.14054 0.7086 0.0
C1216 C 0.34421 0.16282 0.69551 0.0
C1217 C 0.37529 0.22748 0.65758 0.0
C1218 C 0.36458 0.2052 0.67066 0.0
H1219 H 0.30621 0.11655 0.7617 0.0
H1220 H 0.32306 0.15258 0.73997 0.0
H1221 H 0.33187 0.14817 0.65965 0.0
H1222 H 0.40295 0.25168 0.60472 0.0
H1223 H 0.38607 0.21558 0.62639 0.0
C1224 C 0.24216 0.93242 0.81775 0.0
C1225 C 0.2316 0.93621 0.79763 0.0
C1226 C 0.2316 0.91155 0.83004 0.0
C1227 C 0.17547 0.86004 0.83995 0.0
H1228 H 0.21132 0.83338 0.86172 0.0
C1229 C 0.13439 0.76827 0.8781 0.0
C1230 C 0.14493 0.76444 0.89821 0.0
C1231 C 0.14494 0.78917 0.86586 0.0
C1232 C 0.20108 0.84069 0.85603 0.0
H1233 H 0.20164 0.92064 0.77458 0.0
H1234 H 0.18328 0.88435 0.79595 0.0
H1235 H 0.22966 0.86979 0.84048 0.0
H1236 H 0.17489 0.77997 0.92128 0.0
H1237 H 0.19324 0.81631 0.9 0.0
H1238 H 0.14689 0.83094 0.85549 0.0
C1239 C 0.19961 0.89767 0.80248 0.0
C1240 C 0.21161 0.86161 0.84383 0.0
C1241 C 0.21016 0.91854 0.79018 0.0
C1242 C 0.16637 0.7821 0.90568 0.0
C1243 C 0.17692 0.803 0.89344 0.0
C1244 C 0.16493 0.83912 0.85215 0.0
C1245 C 0.21018 0.89387 0.82256 0.0
C1246 C 0.19895 0.87158 0.83562 0.0
C1247 C 0.16635 0.80684 0.87337 0.0
C1248 C 0.17759 0.82915 0.86036 0.0
H1249 H 0.25846 0.94569 0.8243 0.0
H1250 H 0.2401 0.9094 0.84567 0.0
H1251 H 0.16522 0.86735 0.83425 0.0
H1252 H 0.11808 0.75501 0.87152 0.0
H1253 H 0.13644 0.79135 0.85025 0.0
C1254 C 0.1209 0.30637 0.78497 0.0
C1255 C 0.10164 0.30594 0.79491 0.0
C1256 C 0.14158 0.31674 0.79758 0.0
C1257 C 0.16656 0.33624 0.85933 0.0
H1258 H 0.22245 0.37157 0.82353 0.0
C1259 C 0.25254 0.39244 0.90786 0.0
C1260 C 0.2717 0.39232 0.89846 0.0
C1261 C 0.23192 0.3819 0.89516 0.0
C1262 C 0.20703 0.36156 0.83379 0.0
H1263 H 0.08926 0.31596 0.82631 0.0
H1264 H 0.12534 0.33442 0.84797 0.0
H1265 H 0.18635 0.35325 0.80171 0.0
H1266 H 0.28407 0.38119 0.86799 0.0
H1267 H 0.24804 0.3626 0.84599 0.0
H1268 H 0.18725 0.34466 0.89143 0.0
C1269 C 0.12438 0.3265 0.8305 0.0
C1270 C 0.18629 0.35102 0.82126 0.0
C1271 C 0.10368 0.31611 0.8179 0.0
C1272 C 0.26967 0.38147 0.87592 0.0
C1273 C 0.24904 0.37099 0.86316 0.0
C1274 C 0.18729 0.34682 0.87186 0.0
C1275 C 0.14364 0.327 0.8205 0.0
C1276 C 0.16576 0.33821 0.83386 0.0
C1277 C 0.22987 0.371 0.87267 0.0
C1278 C 0.2078 0.35964 0.85926 0.0
H1279 H 0.12016 0.29898 0.76726 0.0
H1280 H 0.15594 0.31653 0.78942 0.0
H1281 H 0.15117 0.32621 0.86962 0.0
H1282 H 0.25334 0.40039 0.92525 0.0
H1283 H 0.21759 0.38247 0.90291 0.0
C1284 C 0.72987 0.82605 0.79053 0.0
C1285 C 0.72969 0.80672 0.8002 0.0
C1286 C 0.71962 0.83657 0.80302 0.0
C1287 C 0.67705 0.82598 0.85087 0.0
H1288 H 0.70528 0.89187 0.85139 0.0
C1289 C 0.64449 0.87375 0.91147 0.0
C1290 C 0.64413 0.89266 0.90136 0.0
C1291 C 0.6548 0.86322 0.89913 0.0
C1292 C 0.69703 0.87344 0.8512 0.0
H1293 H 0.71889 0.78369 0.83103 0.0
H1294 H 0.70112 0.80205 0.85282 0.0
H1295 H 0.7237 0.87379 0.83027 0.0
H1296 H 0.65412 0.91493 0.86988 0.0
H1297 H 0.67214 0.89665 0.84849 0.0
H1298 H 0.65041 0.82565 0.87187 0.0
C1299 C 0.70886 0.80885 0.83532 0.0
C1300 C 0.7076 0.86305 0.83907 0.0
C1301 C 0.71909 0.79831 0.82281 0.0
C1302 C 0.65432 0.90067 0.87848 0.0
C1303 C 0.66469 0.89017 0.86617 0.0
C1304 C 0.6665 0.83637 0.86303 0.0
C1305 C 0.70892 0.82809 0.82556 0.0
C1306 C 0.69775 0.83918 0.83871 0.0
C1307 C 0.66511 0.87132 0.87635 0.0
C1308 C 0.67633 0.86024 0.86334 0.0
H1309 H 0.7375 0.83283 0.77302 0.0
H1310 H 0.7197 0.85111 0.79473 0.0
H1311 H 0.66875 0.80755 0.85065 0.0
H1312 H 0.63718 0.86726 0.92918 0.0
H1313 H 0.65509 0.84896 0.9077 0.0
C1314 C 0.49765 0.44942 0.57583 0.0
C1315 C 0.47638 0.43167 0.56809 0.0
C1316 C 0.50827 0.47032 0.5636 0.0
C1317 C 0.49666 0.50624 0.52159 0.0
H1318 H 0.56162 0.53734 0.51142 0.0
C1319 C 0.54276 0.5858 0.45996 0.0
C1320 C 0.56394 0.60361 0.46788 0.0
C1321 C 0.53206 0.56492 0.47221 0.0
C1322 C 0.5435 0.52903 0.51434 0.0
H1323 H 0.44983 0.42208 0.541 0.0
H1324 H 0.46832 0.45843 0.5197 0.0
H1325 H 0.54307 0.50085 0.53249 0.0
H1326 H 0.5902 0.61327 0.49536 0.0
H1327 H 0.5716 0.57692 0.51663 0.0
H1328 H 0.4971 0.53442 0.50339 0.0
C1329 C 0.47665 0.45632 0.53551 0.0
C1330 C 0.53284 0.50807 0.52645 0.0
C1331 C 0.46602 0.43541 0.54775 0.0
C1332 C 0.5741 0.59992 0.48845 0.0
C1333 C 0.56341 0.57901 0.50068 0.0
C1334 C 0.50731 0.5272 0.50946 0.0
C1335 C 0.49792 0.47407 0.54327 0.0
C1336 C 0.50927 0.49638 0.53026 0.0
C1337 C 0.54225 0.56122 0.49272 0.0
C1338 C 0.53089 0.53889 0.50568 0.0
H1339 H 0.50601 0.44735 0.59162 0.0
H1340 H 0.52446 0.48369 0.57037 0.0
H1341 H 0.47854 0.49795 0.52452 0.0
H1342 H 0.53454 0.58779 0.44401 0.0
H1343 H 0.51595 0.5515 0.46531 0.0
C1344 C 0.60119 0.04246 0.544 0.0
C1345 C 0.60545 0.05751 0.56363 0.0
C1346 C 0.58005 0.03172 0.53226 0.0
C1347 C 0.52831 0.03625 0.52318 0.0
H1348 H 0.50185 0.97347 0.50167 0.0
C1349 C 0.4363 0.98487 0.48646 0.0
C1350 C 0.43244 0.97078 0.46598 0.0
C1351 C 0.45726 0.99524 0.49854 0.0
C1352 C 0.50909 0.99108 0.50734 0.0
H1353 H 0.59047 0.07257 0.58659 0.0
H1354 H 0.5537 0.0538 0.5663 0.0
H1355 H 0.53852 0.99182 0.52234 0.0
H1356 H 0.44802 0.95689 0.44217 0.0
H1357 H 0.48437 0.97482 0.46327 0.0
H1358 H 0.49883 0.03547 0.50824 0.0
C1359 C 0.56683 0.05063 0.55961 0.0
C1360 C 0.53017 1.00164 0.51919 0.0
C1361 C 0.58796 0.06141 0.57129 0.0
C1362 C 0.45013 0.96729 0.45805 0.0
C1363 C 0.47106 0.97761 0.47017 0.0
C1364 C 0.50722 0.02568 0.51139 0.0
C1365 C 0.56259 0.03569 0.53987 0.0
C1366 C 0.54008 0.02438 0.52726 0.0
C1367 C 0.47493 0.99177 0.49054 0.0
C1368 C 0.49733 1.00296 0.50328 0.0
H1369 H 0.61431 0.03929 0.53736 0.0
H1370 H 0.57756 0.02061 0.5169 0.0
H1371 H 0.53556 0.0539 0.52874 0.0
H1372 H 0.42305 0.98771 0.4934 0.0
H1373 H 0.45951 1.00575 0.51439 0.0
C1374 C 0.04377 0.46348 0.47446 0.0
C1375 C 0.06667 0.47627 0.46748 0.0
C1376 C 0.03312 0.47383 0.48647 0.0
C1377 C 0.0372 0.52974 0.49682 0.0
H1378 H 0.99746 0.49934 0.55139 0.0
C1379 C 1.0015 0.57466 0.55722 0.0
C1380 C 0.97921 0.56165 0.5659 0.0
C1381 C 1.01202 0.56423 0.54508 0.0
C1382 C 1.00824 0.50796 0.53598 0.0
H1383 H 0.09626 0.51016 0.46823 0.0
H1384 H 0.07763 0.52817 0.48892 0.0
H1385 H 0.01602 0.48124 0.53063 0.0
H1386 H 0.95038 0.52746 0.56811 0.0
H1387 H 0.96855 0.50928 0.54671 0.0
H1388 H 0.02931 0.55636 0.50198 0.0
C1389 C 0.06787 0.51012 0.48482 0.0
C1390 C 0.01894 0.49757 0.5241 0.0
C1391 C 0.07857 0.49975 0.47291 0.0
C1392 C 0.96765 0.53795 0.56198 0.0
C1393 C 0.97813 0.52752 0.54973 0.0
C1394 C 0.02642 0.54008 0.50862 0.0
C1395 C 0.04501 0.4973 0.49176 0.0
C1396 C 0.03359 0.50835 0.50439 0.0
C1397 C 1.0005 0.5405 0.54118 0.0
C1398 C 1.01182 0.52936 0.52841 0.0
H1399 H 0.03385 0.44548 0.47031 0.0
H1400 H 0.01541 0.4635 0.49124 0.0
H1401 H 0.0481 0.53836 0.48148 0.0
H1402 H 1.01106 0.59288 0.56025 0.0
H1403 H 0.02937 0.57476 0.53917 0.0
C1404 C 0.44921 0.49482 0.96163 0.0
C1405 C 0.43162 0.47339 0.96915 0.0
C1406 C 0.47023 0.50526 0.97358 0.0
C1407 C 0.49824 0.5046 0.03154 0.0
H1408 H 0.55324 0.5366 0.99351 0.0
C1409 C 0.58739 0.53845 0.07422 0.0
C1410 C 0.6047 0.56004 0.06673 0.0
C1411 C 0.56633 0.52773 0.06233 0.0
C1412 C 0.53805 0.52796 1.00445 0.0
H1413 H 0.4225 0.44642 0.99561 0.0
H1414 H 0.45919 0.46438 0.01606 0.0
H1415 H 0.51654 0.51834 0.97295 0.0
H1416 H 0.61333 0.587 0.0404 0.0
H1417 H 0.5766 0.56854 0.02002 0.0
H1418 H 0.51978 0.51422 0.06304 0.0
C1419 C 0.45666 0.47323 1.00102 0.0
C1420 C 0.51697 0.51748 0.99264 0.0
C1421 C 0.43563 0.46278 0.98907 0.0
C1422 C 0.60039 0.57053 0.04691 0.0
C1423 C 0.57936 0.5598 0.035 0.0
C1424 C 0.51934 0.51507 0.04335 0.0
C1425 C 0.47427 0.4946 0.99341 0.0
C1426 C 0.49676 0.50568 1.00602 0.0
C1427 C 0.56202 0.53827 0.04257 0.0
C1428 C 0.53953 0.52693 0.02997 0.0
H1429 H 0.44692 0.50347 0.94627 0.0
H1430 H 0.48327 0.52184 0.96737 0.0
H1431 H 0.48306 0.49599 0.04249 0.0
H1432 H 0.58995 0.52991 0.08951 0.0
H1433 H 0.55348 0.51106 0.06851 0.0
C1434 C 0.57228 0.98661 0.98645 0.0
C1435 C 0.56163 0.97194 0.9665 0.0
C1436 C 0.56176 0.99702 0.99864 0.0
C1437 C 0.50562 0.99219 1.00859 0.0
H1438 H 0.54145 0.05505 0.02989 0.0
C1439 C 0.46453 0.04295 0.04634 0.0
C1440 C 0.47502 0.0574 0.06649 0.0
C1441 C 0.47512 0.03264 0.03412 0.0
C1442 C 0.53122 0.03741 0.02432 0.0
H1443 H 0.53155 0.95709 0.94362 0.0
H1444 H 0.51327 0.97522 0.96479 0.0
H1445 H 0.55978 0.03688 1.00877 0.0
H1446 H 0.50495 0.07204 0.0896 0.0
H1447 H 0.52339 0.05412 0.06831 0.0
H1448 H 0.47706 0.99272 0.02412 0.0
C1449 C 0.52963 0.97839 0.97128 0.0
C1450 C 0.54174 0.02696 1.01219 0.0
C1451 C 0.54015 0.96797 0.95911 0.0
C1452 C 0.49647 0.06132 0.07399 0.0
C1453 C 0.50707 0.05101 0.06175 0.0
C1454 C 0.4951 1.00263 0.0207 0.0
C1455 C 0.5403 0.99307 0.99121 0.0
C1456 C 0.52909 1.00421 1.00416 0.0
C1457 C 0.49652 0.0365 0.04168 0.0
C1458 C 0.50775 0.02538 0.02873 0.0
H1459 H 0.58864 0.98981 0.99295 0.0
H1460 H 0.57034 1.00792 1.01414 0.0
H1461 H 0.49538 0.97453 1.00304 0.0
H1462 H 0.44823 0.03981 0.03974 0.0
H1463 H 0.46666 0.02187 0.0185 0.0
C1464 C 0.0741 0.59032 0.96627 0.0
C1465 C 0.06259 0.60259 0.96336 0.0
C1466 C 0.064 0.56949 0.97866 0.0
C1467 C 0.01781 0.53456 0.02225 0.0
H1468 H 0.02587 0.4852 0.99808 0.0
C1469 C 0.96653 0.44291 0.06016 0.0
C1470 C 0.97812 0.43082 0.06401 0.0
C1471 C 0.97687 0.46374 0.04779 0.0
C1472 C 0.02363 0.49887 1.00524 0.0
H1473 H 0.03118 0.60223 0.97103 0.0
H1474 H 1.01358 0.56599 0.99247 0.0
H1475 H 0.04382 0.52169 0.97696 0.0
H1476 H 1.00992 0.43152 0.05777 0.0
H1477 H 0.02785 0.4677 0.03616 0.0
H1478 H 0.99753 0.51169 0.05046 0.0
C1479 C 0.03061 0.57265 0.98557 0.0
C1480 C 0.03397 0.51984 0.99313 0.0
C1481 C 0.04073 0.5935 0.97324 0.0
C1482 C 1.00029 0.44008 0.0549 0.0
C1483 C 1.01062 0.4609 0.04249 0.0
C1484 C 1.00744 0.51358 0.03432 0.0
C1485 C 0.04209 0.56032 0.98844 0.0
C1486 C 0.03119 0.53799 1.00145 0.0
C1487 C 0.99908 0.47306 0.03886 0.0
C1488 C 1.01019 0.49544 0.02597 0.0
H1489 H 0.09106 0.59693 0.95923 0.0
H1490 H 0.07353 0.56072 0.98085 0.0
H1491 H 0.01559 0.54821 0.02947 0.0
H1492 H 0.94934 0.43621 0.06648 0.0
H1493 H 0.96732 0.47242 0.04497 0.0
loop_
_geom_bond_atom_site_label_1
_geom_bond_atom_site_label_2
_geom_bond_distance
_geom_bond_site_symmetry_2
_ccdc_geom_bond_type
Cu0 N1 1.999 . S
Cu0 O6 1.974 1_455 S
Cu0 N11 1.985 1_455 S
Cu0 O20 1.959 . S
N1 Cu0 1.999 . S
N1 C3 1.263 . S
N1 C5 1.389 . S
N2 C3 1.358 . S
N2 C4 1.400 . S
C3 N1 1.263 . S
C3 N2 1.358 . S
C3 H9 0.930 . S
C4 N2 1.400 . S
C4 C5 1.351 . S
C4 H21 0.930 . S
C5 N1 1.389 . S
C5 C4 1.351 . S
C5 H10 0.930 . S
O6 Cu0 1.974 1_655 S
O6 C16 1.282 . S
C7 O8 1.261 . S
C7 O20 1.251 . S
O8 C7 1.261 . S
H9 C3 0.930 . S
H10 C5 0.930 . S
N11 Cu0 1.985 1_655 S
N11 C13 1.335 . S
N11 C14 1.390 . S
N12 C13 1.345 . S
N12 C15 1.336 . S
C13 N11 1.335 . S
C13 N12 1.345 . S
C13 H18 0.930 . S
C14 N11 1.390 . S
C14 C15 1.346 . S
C14 H19 0.930 . S
C15 N12 1.336 . S
C15 C14 1.346 . S
C15 H22 0.929 . S
C16 O6 1.282 . S
C16 O17 1.216 . S
O17 C16 1.216 . S
H18 C13 0.930 . S
H19 C14 0.930 . S
O20 Cu0 1.959 . S
O20 C7 1.251 . S
H21 C4 0.930 . S
H22 C15 0.929 . S
Cu23 N24 1.999 . S
Cu23 O29 1.974 . S
Cu23 N34 1.985 . S
Cu23 O43 1.959 . S
N24 Cu23 1.999 . S
N24 C26 1.263 . S
N24 C28 1.389 . S
N25 C26 1.358 . S
N25 C27 1.400 . S
C26 N24 1.263 . S
C26 N25 1.358 . S
C26 H32 0.930 . S
C27 N25 1.400 . S
C27 C28 1.351 . S
C27 H44 0.930 . S
C28 N24 1.389 . S
C28 C27 1.351 . S
C28 H33 0.930 . S
O29 Cu23 1.974 . S
O29 C39 1.282 . S
C30 O31 1.261 . S
C30 O43 1.251 . S
O31 C30 1.261 . S
H32 C26 0.930 . S
H33 C28 0.930 . S
N34 Cu23 1.985 . S
N34 C36 1.335 . S
N34 C37 1.390 . S
N35 C36 1.345 . S
N35 C38 1.336 . S
C36 N34 1.335 . S
C36 N35 1.345 . S
C36 H41 0.930 . S
C37 N34 1.390 . S
C37 C38 1.346 . S
C37 H42 0.930 . S
C38 N35 1.336 . S
C38 C37 1.346 . S
C38 H45 0.929 . S
C39 O29 1.282 . S
C39 O40 1.216 . S
O40 C39 1.216 . S
H41 C36 0.930 . S
H42 C37 0.930 . S
O43 Cu23 1.959 . S
O43 C30 1.251 . S
H44 C27 0.930 . S
H45 C38 0.929 . S
Cu46 N47 1.999 1_545 S
Cu46 O52 1.974 . S
Cu46 N57 1.985 . S
Cu46 O66 1.959 1_545 S
N47 Cu46 1.999 1_565 S
N47 C49 1.263 . S
N47 C51 1.389 . S
N48 C49 1.358 . S
N48 C50 1.400 . S
C49 N47 1.263 . S
C49 N48 1.358 . S
C49 H55 0.930 . S
C50 N48 1.400 . S
C50 C51 1.351 . S
C50 H67 0.930 . S
C51 N47 1.389 . S
C51 C50 1.351 . S
C51 H56 0.930 . S
O52 Cu46 1.974 . S
O52 C62 1.282 . S
C53 O54 1.261 . S
C53 O66 1.251 . S
O54 C53 1.261 . S
H55 C49 0.930 . S
H56 C51 0.930 . S
N57 Cu46 1.985 . S
N57 C59 1.335 . S
N57 C60 1.390 . S
N58 C59 1.345 . S
N58 C61 1.336 . S
C59 N57 1.335 . S
C59 N58 1.345 . S
C59 H64 0.930 . S
C60 N57 1.390 . S
C60 C61 1.346 . S
C60 H65 0.930 . S
C61 N58 1.336 . S
C61 C60 1.346 . S
C61 H68 0.929 . S
C62 O52 1.282 . S
C62 O63 1.216 . S
O63 C62 1.216 . S
H64 C59 0.930 . S
H65 C60 0.930 . S
O66 Cu46 1.959 1_565 S
O66 C53 1.251 . S
H67 C50 0.930 . S
H68 C61 0.929 . S
Cu69 N70 1.999 1_455 S
Cu69 O75 1.974 . S
Cu69 N80 1.985 . S
Cu69 O89 1.955 1_455 S
N70 Cu69 1.999 1_655 S
N70 C72 1.263 . S
N70 C74 1.389 . S
N71 C72 1.358 . S
N71 C73 1.400 . S
C72 N70 1.263 . S
C72 N71 1.358 . S
C72 H78 0.930 . S
C73 N71 1.400 . S
C73 C74 1.351 . S
C73 H90 0.930 . S
C74 N70 1.389 . S
C74 C73 1.351 . S
C74 H79 0.930 . S
O75 Cu69 1.974 . S
O75 C85 1.282 . S
C76 O77 1.261 . S
C76 O89 1.266 . S
O77 C76 1.261 . S
H78 C72 0.930 . S
H79 C74 0.930 . S
N80 Cu69 1.985 . S
N80 C82 1.335 . S
N80 C83 1.390 . S
N81 C82 1.345 . S
N81 C84 1.336 . S
C82 N80 1.335 . S
C82 N81 1.345 . S
C82 H87 0.930 . S
C83 N80 1.390 . S
C83 C84 1.346 . S
C83 H88 0.930 . S
C84 N81 1.336 . S
C84 C83 1.346 . S
C84 H91 0.929 . S
C85 O75 1.282 . S
C85 O86 1.216 . S
O86 C85 1.216 . S
H87 C82 0.930 . S
H88 C83 0.930 . S
O89 Cu69 1.955 1_655 S
O89 C76 1.266 . S
H90 C73 0.930 . S
H91 C84 0.929 . S
Cu92 N93 1.999 . S
Cu92 O98 1.974 . S
Cu92 N103 1.985 . S
Cu92 O112 1.959 . S
N93 Cu92 1.999 . S
N93 C95 1.263 . S
N93 C97 1.389 . S
N94 C95 1.358 . S
N94 C96 1.400 . S
C95 N93 1.263 . S
C95 N94 1.358 . S
C95 H101 0.930 . S
C96 N94 1.400 . S
C96 C97 1.351 . S
C96 H113 0.930 . S
C97 N93 1.389 . S
C97 C96 1.351 . S
C97 H102 0.930 . S
O98 Cu92 1.974 . S
O98 C108 1.282 . S
C99 O100 1.261 . S
C99 O112 1.251 . S
O100 C99 1.261 . S
H101 C95 0.930 . S
H102 C97 0.930 . S
N103 Cu92 1.985 . S
N103 C105 1.335 . S
N103 C106 1.390 . S
N104 C105 1.345 . S
N104 C107 1.336 . S
C105 N103 1.335 . S
C105 N104 1.345 . S
C105 H110 0.930 . S
C106 N103 1.390 . S
C106 C107 1.346 . S
C106 H111 0.930 . S
C107 N104 1.336 . S
C107 C106 1.346 . S
C107 H114 0.929 . S
C108 O98 1.282 . S
C108 O109 1.216 . S
O109 C108 1.216 . S
H110 C105 0.930 . S
H111 C106 0.930 . S
O112 Cu92 1.959 . S
O112 C99 1.251 . S
H113 C96 0.930 . S
H114 C107 0.929 . S
Cu115 N116 1.999 . S
Cu115 O121 1.974 1_545 S
Cu115 N126 1.985 1_545 S
Cu115 O135 1.959 . S
N116 Cu115 1.999 . S
N116 C118 1.263 . S
N116 C120 1.389 . S
N117 C118 1.358 . S
N117 C119 1.400 . S
C118 N116 1.263 . S
C118 N117 1.358 . S
C118 H124 0.930 . S
C119 N117 1.400 . S
C119 C120 1.351 . S
C119 H136 0.930 . S
C120 N116 1.389 . S
C120 C119 1.351 . S
C120 H125 0.930 . S
O121 Cu115 1.974 1_565 S
O121 C131 1.282 . S
C122 O123 1.261 . S
C122 O135 1.251 . S
O123 C122 1.261 . S
H124 C118 0.930 . S
H125 C120 0.930 . S
N126 Cu115 1.985 1_565 S
N126 C128 1.335 . S
N126 C129 1.390 . S
N127 C128 1.345 . S
N127 C130 1.336 . S
C128 N126 1.335 . S
C128 N127 1.345 . S
C128 H133 0.930 . S
C129 N126 1.390 . S
C129 C130 1.346 . S
C129 H134 0.930 . S
C130 N127 1.336 . S
C130 C129 1.346 . S
C130 H137 0.929 . S
C131 O121 1.282 . S
C131 O132 1.216 . S
O132 C131 1.216 . S
H133 C128 0.930 . S
H134 C129 0.930 . S
O135 Cu115 1.959 . S
O135 C122 1.251 . S
H136 C119 0.930 . S
H137 C130 0.929 . S
Cu138 N139 1.999 . S
Cu138 O144 1.974 . S
Cu138 N149 1.985 . S
Cu138 O158 1.959 . S
N139 Cu138 1.999 . S
N139 C141 1.263 . S
N139 C143 1.389 . S
N140 C141 1.358 . S
N140 C142 1.400 . S
C141 N139 1.263 . S
C141 N140 1.358 . S
C141 H147 0.930 . S
C142 N140 1.400 . S
C142 C143 1.351 . S
C142 H159 0.930 . S
C143 N139 1.389 . S
C143 C142 1.351 . S
C143 H148 0.930 . S
O144 Cu138 1.974 . S
O144 C154 1.282 . S
C145 O146 1.261 . S
C145 O158 1.251 . S
O146 C145 1.261 . S
H147 C141 0.930 . S
H148 C143 0.930 . S
N149 Cu138 1.985 . S
N149 C151 1.335 . S
N149 C152 1.390 . S
N150 C151 1.345 . S
N150 C153 1.336 . S
C151 N149 1.335 . S
C151 N150 1.345 . S
C151 H156 0.930 . S
C152 N149 1.390 . S
C152 C153 1.346 . S
C152 H157 0.930 . S
C153 N150 1.336 . S
C153 C152 1.346 . S
C153 H160 0.929 . S
C154 O144 1.282 . S
C154 O155 1.216 . S
O155 C154 1.216 . S
H156 C151 0.930 . S
H157 C152 0.930 . S
O158 Cu138 1.959 . S
O158 C145 1.251 . S
H159 C142 0.930 . S
H160 C153 0.929 . S
Cu161 N162 1.999 . S
Cu161 O167 1.974 . S
Cu161 N172 1.985 . S
Cu161 O181 1.959 . S
N162 Cu161 1.999 . S
N162 C164 1.263 . S
N162 C166 1.389 . S
N163 C164 1.358 . S
N163 C165 1.400 . S
C164 N162 1.263 . S
C164 N163 1.358 . S
C164 H170 0.930 . S
C165 N163 1.400 . S
C165 C166 1.351 . S
C165 H182 0.930 . S
C166 N162 1.389 . S
C166 C165 1.351 . S
C166 H171 0.930 . S
O167 Cu161 1.974 . S
O167 C177 1.282 . S
C168 O169 1.261 . S
C168 O181 1.251 . S
O169 C168 1.261 . S
H170 C164 0.930 . S
H171 C166 0.930 . S
N172 Cu161 1.985 . S
N172 C174 1.335 . S
N172 C175 1.390 . S
N173 C174 1.345 . S
N173 C176 1.336 . S
C174 N172 1.335 . S
C174 N173 1.345 . S
C174 H179 0.930 . S
C175 N172 1.390 . S
C175 C176 1.346 . S
C175 H180 0.930 . S
C176 N173 1.336 . S
C176 C175 1.346 . S
C176 H183 0.929 . S
C177 O167 1.282 . S
C177 O178 1.216 . S
O178 C177 1.216 . S
H179 C174 0.930 . S
H180 C175 0.930 . S
O181 Cu161 1.959 . S
O181 C168 1.251 . S
H182 C165 0.930 . S
H183 C176 0.929 . S
Cu184 N185 1.999 . S
Cu184 O190 1.974 . S
Cu184 N195 1.985 . S
Cu184 O204 1.959 . S
N185 Cu184 1.999 . S
N185 C187 1.263 . S
N185 C189 1.389 . S
N186 C187 1.358 . S
N186 C188 1.400 . S
C187 N185 1.263 . S
C187 N186 1.358 . S
C187 H193 0.930 . S
C188 N186 1.400 . S
C188 C189 1.351 . S
C188 H205 0.930 . S
C189 N185 1.389 . S
C189 C188 1.351 . S
C189 H194 0.930 . S
O190 Cu184 1.974 . S
O190 C200 1.282 . S
C191 O192 1.261 . S
C191 O204 1.251 . S
O192 C191 1.261 . S
H193 C187 0.930 . S
H194 C189 0.930 . S
N195 Cu184 1.985 . S
N195 C197 1.335 . S
N195 C198 1.390 . S
N196 C197 1.345 . S
N196 C199 1.336 . S
C197 N195 1.335 . S
C197 N196 1.345 . S
C197 H202 0.930 . S
C198 N195 1.390 . S
C198 C199 1.346 . S
C198 H203 0.930 . S
C199 N196 1.336 . S
C199 C198 1.346 . S
C199 H206 0.929 . S
C200 O190 1.282 . S
C200 O201 1.216 . S
O201 C200 1.216 . S
H202 C197 0.930 . S
H203 C198 0.930 . S
O204 Cu184 1.959 . S
O204 C191 1.251 . S
H205 C188 0.930 . S
H206 C199 0.929 . S
Cu207 N208 1.999 . S
Cu207 O213 1.974 . S
Cu207 N218 1.985 . S
Cu207 O227 1.959 . S
N208 Cu207 1.999 . S
N208 C210 1.263 . S
N208 C212 1.389 . S
N209 C210 1.358 . S
N209 C211 1.400 . S
C210 N208 1.263 . S
C210 N209 1.358 . S
C210 H216 0.930 . S
C211 N209 1.400 . S
C211 C212 1.351 . S
C211 H228 0.930 . S
C212 N208 1.389 . S
C212 C211 1.351 . S
C212 H217 0.930 . S
O213 Cu207 1.974 . S
O213 C223 1.282 . S
C214 O215 1.261 . S
C214 O227 1.251 . S
O215 C214 1.261 . S
H216 C210 0.930 . S
H217 C212 0.930 . S
N218 Cu207 1.985 . S
N218 C220 1.335 . S
N218 C221 1.390 . S
N219 C220 1.345 . S
N219 C222 1.336 . S
C220 N218 1.335 . S
C220 N219 1.345 . S
C220 H225 0.930 . S
C221 N218 1.390 . S
C221 C222 1.346 . S
C221 H226 0.930 . S
C222 N219 1.336 . S
C222 C221 1.346 . S
C222 H229 0.929 . S
C223 O213 1.282 . S
C223 O224 1.216 . S
O224 C223 1.216 . S
H225 C220 0.930 . S
H226 C221 0.930 . S
O227 Cu207 1.959 . S
O227 C214 1.251 . S
H228 C211 0.930 . S
H229 C222 0.929 . S
Cu230 N231 1.999 . S
Cu230 O236 1.974 . S
Cu230 N241 1.985 . S
Cu230 O250 1.959 . S
N231 Cu230 1.999 . S
N231 C233 1.263 . S
N231 C235 1.389 . S
N232 C233 1.358 . S
N232 C234 1.400 . S
C233 N231 1.263 . S
C233 N232 1.358 . S
C233 H239 0.930 . S
C234 N232 1.400 . S
C234 C235 1.351 . S
C234 H251 0.930 . S
C235 N231 1.389 . S
C235 C234 1.351 . S
C235 H240 0.930 . S
O236 Cu230 1.974 . S
O236 C246 1.282 . S
C237 O238 1.261 . S
C237 O250 1.251 . S
O238 C237 1.261 . S
H239 C233 0.930 . S
H240 C235 0.930 . S
N241 Cu230 1.985 . S
N241 C243 1.335 . S
N241 C244 1.390 . S
N242 C243 1.345 . S
N242 C245 1.336 . S
C243 N241 1.335 . S
C243 N242 1.345 . S
C243 H248 0.930 . S
C244 N241 1.390 . S
C244 C245 1.346 . S
C244 H249 0.930 . S
C245 N242 1.336 . S
C245 C244 1.346 . S
C245 H252 0.929 . S
C246 O236 1.282 . S
C246 O247 1.216 . S
O247 C246 1.216 . S
H248 C243 0.930 . S
H249 C244 0.930 . S
O250 Cu230 1.959 . S
O250 C237 1.251 . S
H251 C234 0.930 . S
H252 C245 0.929 . S
Cu253 N254 1.999 . S
Cu253 O259 1.974 . S
Cu253 N264 1.985 . S
Cu253 O273 1.959 . S
N254 Cu253 1.999 . S
N254 C256 1.263 . S
N254 C258 1.389 . S
N255 C256 1.358 . S
N255 C257 1.400 . S
C256 N254 1.263 . S
C256 N255 1.358 . S
C256 H262 0.930 . S
C257 N255 1.400 . S
C257 C258 1.351 . S
C257 H274 0.930 . S
C258 N254 1.389 . S
C258 C257 1.351 . S
C258 H263 0.930 . S
O259 Cu253 1.974 . S
O259 C269 1.282 . S
C260 O261 1.261 . S
C260 O273 1.251 . S
O261 C260 1.261 . S
H262 C256 0.930 . S
H263 C258 0.930 . S
N264 Cu253 1.985 . S
N264 C266 1.335 . S
N264 C267 1.390 . S
N265 C266 1.345 . S
N265 C268 1.336 . S
C266 N264 1.335 . S
C266 N265 1.345 . S
C266 H271 0.930 . S
C267 N264 1.390 . S
C267 C268 1.346 . S
C267 H272 0.930 . S
C268 N265 1.336 . S
C268 C267 1.346 . S
C268 H275 0.929 . S
C269 O259 1.282 . S
C269 O270 1.216 . S
O270 C269 1.216 . S
H271 C266 0.930 . S
H272 C267 0.930 . S
O273 Cu253 1.959 . S
O273 C260 1.251 . S
H274 C257 0.930 . S
H275 C268 0.929 . S
Cu276 N277 1.999 . S
Cu276 O282 1.974 . S
Cu276 N287 1.985 . S
Cu276 O296 1.959 . S
N277 Cu276 1.999 . S
N277 C279 1.263 . S
N277 C281 1.389 . S
N278 C279 1.358 . S
N278 C280 1.400 . S
C279 N277 1.263 . S
C279 N278 1.358 . S
C279 H285 0.930 . S
C280 N278 1.400 . S
C280 C281 1.351 . S
C280 H297 0.930 . S
C281 N277 1.389 . S
C281 C280 1.351 . S
C281 H286 0.930 . S
O282 Cu276 1.974 . S
O282 C292 1.282 . S
C283 O284 1.261 . S
C283 O296 1.251 . S
O284 C283 1.261 . S
H285 C279 0.930 . S
H286 C281 0.930 . S
N287 Cu276 1.985 . S
N287 C289 1.335 . S
N287 C290 1.390 . S
N288 C289 1.345 . S
N288 C291 1.336 . S
C289 N287 1.335 . S
C289 N288 1.345 . S
C289 H294 0.930 . S
C290 N287 1.390 . S
C290 C291 1.346 . S
C290 H295 0.930 . S
C291 N288 1.336 . S
C291 C290 1.346 . S
C291 H298 0.929 . S
C292 O282 1.282 . S
C292 O293 1.216 . S
O293 C292 1.216 . S
H294 C289 0.930 . S
H295 C290 0.930 . S
O296 Cu276 1.959 . S
O296 C283 1.251 . S
H297 C280 0.930 . S
H298 C291 0.929 . S
Cu299 N300 1.999 . S
Cu299 O305 1.974 . S
Cu299 N310 1.985 . S
Cu299 O319 1.959 . S
N300 Cu299 1.999 . S
N300 C302 1.263 . S
N300 C304 1.389 . S
N301 C302 1.358 . S
N301 C303 1.400 . S
C302 N300 1.263 . S
C302 N301 1.358 . S
C302 H308 0.930 . S
C303 N301 1.400 . S
C303 C304 1.351 . S
C303 H320 0.930 . S
C304 N300 1.389 . S
C304 C303 1.351 . S
C304 H309 0.930 . S
O305 Cu299 1.974 . S
O305 C315 1.282 . S
C306 O307 1.261 . S
C306 O319 1.251 . S
O307 C306 1.261 . S
H308 C302 0.930 . S
H309 C304 0.930 . S
N310 Cu299 1.985 . S
N310 C312 1.335 . S
N310 C313 1.390 . S
N311 C312 1.345 . S
N311 C314 1.336 . S
C312 N310 1.335 . S
C312 N311 1.345 . S
C312 H317 0.930 . S
C313 N310 1.390 . S
C313 C314 1.346 . S
C313 H318 0.930 . S
C314 N311 1.336 . S
C314 C313 1.346 . S
C314 H321 0.950 . S
C315 O305 1.282 . S
C315 O316 1.216 . S
O316 C315 1.216 . S
H317 C312 0.930 . S
H318 C313 0.930 . S
O319 Cu299 1.959 . S
O319 C306 1.251 . S
H320 C303 0.930 . S
H321 C314 0.950 . S
Cu322 N323 1.999 . S
Cu322 O328 1.974 . S
Cu322 N333 1.985 . S
Cu322 O342 1.959 . S
N323 Cu322 1.999 . S
N323 C325 1.263 . S
N323 C327 1.389 . S
N324 C325 1.358 . S
N324 C326 1.400 . S
C325 N323 1.263 . S
C325 N324 1.358 . S
C325 H331 0.930 . S
C326 N324 1.400 . S
C326 C327 1.351 . S
C326 H343 0.930 . S
C327 N323 1.389 . S
C327 C326 1.351 . S
C327 H332 0.930 . S
O328 Cu322 1.974 . S
O328 C338 1.282 . S
C329 O330 1.261 . S
C329 O342 1.251 . S
O330 C329 1.261 . S
H331 C325 0.930 . S
H332 C327 0.930 . S
N333 Cu322 1.985 . S
N333 C335 1.335 . S
N333 C336 1.390 . S
N334 C335 1.345 . S
N334 C337 1.336 . S
C335 N333 1.335 . S
C335 N334 1.345 . S
C335 H340 0.930 . S
C336 N333 1.390 . S
C336 C337 1.346 . S
C336 H341 0.930 . S
C337 N334 1.336 . S
C337 C336 1.346 . S
C337 H344 0.929 . S
C338 O328 1.282 . S
C338 O339 1.216 . S
O339 C338 1.216 . S
H340 C335 0.930 . S
H341 C336 0.930 . S
O342 Cu322 1.959 . S
O342 C329 1.251 . S
H343 C326 0.930 . S
H344 C337 0.929 . S
Cu345 N346 1.999 . S
Cu345 O351 1.974 . S
Cu345 N356 1.985 . S
Cu345 O365 1.959 . S
N346 Cu345 1.999 . S
N346 C348 1.263 . S
N346 C350 1.389 . S
N347 C348 1.358 . S
N347 C349 1.400 . S
C348 N346 1.263 . S
C348 N347 1.358 . S
C348 H354 0.930 . S
C349 N347 1.400 . S
C349 C350 1.351 . S
C349 H366 0.930 . S
C350 N346 1.389 . S
C350 C349 1.351 . S
C350 H355 0.930 . S
O351 Cu345 1.974 . S
O351 C361 1.282 . S
C352 O353 1.261 . S
C352 O365 1.251 . S
O353 C352 1.261 . S
H354 C348 0.930 . S
H355 C350 0.930 . S
N356 Cu345 1.985 . S
N356 C358 1.335 . S
N356 C359 1.390 . S
N357 C358 1.345 . S
N357 C360 1.336 . S
C358 N356 1.335 . S
C358 N357 1.345 . S
C358 H363 0.930 . S
C359 N356 1.390 . S
C359 C360 1.346 . S
C359 H364 0.930 . S
C360 N357 1.336 . S
C360 C359 1.346 . S
C360 H367 0.922 1_565 S
C361 O351 1.282 . S
C361 O362 1.216 . S
O362 C361 1.216 . S
H363 C358 0.930 . S
H364 C359 0.930 . S
O365 Cu345 1.959 . S
O365 C352 1.251 . S
H366 C349 0.930 . S
H367 C360 0.922 1_545 S
Cu368 N369 1.999 . S
Cu368 O374 1.974 . S
Cu368 N379 1.985 . S
Cu368 O388 1.959 . S
N369 Cu368 1.999 . S
N369 C371 1.263 . S
N369 C373 1.389 . S
N370 C371 1.358 . S
N370 C372 1.400 . S
C371 N369 1.263 . S
C371 N370 1.358 . S
C371 H377 0.930 . S
C372 N370 1.400 . S
C372 C373 1.351 . S
C372 H389 0.930 . S
C373 N369 1.389 . S
C373 C372 1.351 . S
C373 H378 0.930 . S
O374 Cu368 1.974 . S
O374 C384 1.282 . S
C375 O376 1.261 . S
C375 O388 1.251 . S
O376 C375 1.261 . S
H377 C371 0.930 . S
H378 C373 0.930 . S
N379 Cu368 1.985 . S
N379 C381 1.335 . S
N379 C382 1.390 . S
N380 C381 1.345 . S
N380 C383 1.336 . S
C381 N379 1.335 . S
C381 N380 1.345 . S
C381 H386 0.930 . S
C382 N379 1.390 . S
C382 C383 1.346 . S
C382 H387 0.930 . S
C383 N380 1.336 . S
C383 C382 1.346 . S
C383 H390 0.929 . S
C384 O374 1.282 . S
C384 O385 1.216 . S
O385 C384 1.216 . S
H386 C381 0.930 . S
H387 C382 0.930 . S
O388 Cu368 1.959 . S
O388 C375 1.251 . S
H389 C372 0.930 . S
H390 C383 0.929 . S
Cu391 N392 1.999 . S
Cu391 O397 1.974 . S
Cu391 N402 1.985 . S
Cu391 O411 1.959 . S
N392 Cu391 1.999 . S
N392 C394 1.263 . S
N392 C396 1.389 . S
N393 C394 1.358 . S
N393 C395 1.400 . S
C394 N392 1.263 . S
C394 N393 1.358 . S
C394 H400 0.930 . S
C395 N393 1.400 . S
C395 C396 1.351 . S
C395 H412 0.930 . S
C396 N392 1.389 . S
C396 C395 1.351 . S
C396 H401 0.930 . S
O397 Cu391 1.974 . S
O397 C407 1.282 . S
C398 O399 1.261 . S
C398 O411 1.251 . S
O399 C398 1.261 . S
H400 C394 0.930 . S
H401 C396 0.930 . S
N402 Cu391 1.985 . S
N402 C404 1.335 . S
N402 C405 1.390 . S
N403 C404 1.345 . S
N403 C406 1.336 . S
C404 N402 1.335 . S
C404 N403 1.345 . S
C404 H409 0.930 . S
C405 N402 1.390 . S
C405 C406 1.346 . S
C405 H410 0.930 . S
C406 N403 1.336 . S
C406 C405 1.346 . S
C406 H413 0.929 . S
C407 O397 1.282 . S
C407 O408 1.216 . S
O408 C407 1.216 . S
H409 C404 0.930 . S
H410 C405 0.930 . S
O411 Cu391 1.959 . S
O411 C398 1.251 . S
H412 C395 0.930 . S
H413 C406 0.929 . S
C414 C415 1.349 . S
C414 C416 1.327 . S
C414 H439 0.950 1_455 S
C415 C414 1.349 . S
C415 C431 1.349 . S
C416 C414 1.327 . S
C416 C435 1.429 . S
C416 H440 0.950 1_455 S
C417 C434 1.574 . S
C417 C436 1.368 . S
C417 H441 0.949 . S
H418 C422 0.949 . S
C419 C420 1.349 1_554 S
C419 C421 1.327 . S
C419 H442 0.931 1_554 S
C420 C419 1.349 1_556 S
C420 C432 1.349 1_556 S
C421 C419 1.327 . S
C421 C437 1.429 . S
C421 H443 0.950 . S
C422 H418 0.949 . S
C422 C430 1.574 . S
C422 C438 1.368 . S
H423 C431 0.950 . S
H424 C429 0.950 . S
H425 C430 0.949 . S
H426 C432 0.950 1_556 S
H427 C433 0.950 . S
H428 C434 0.949 . S
C429 H424 0.950 . S
C429 C431 1.327 . S
C429 C435 1.429 . S
C430 C422 1.574 . S
C430 H425 0.949 . S
C430 C436 1.368 . S
C431 C415 1.349 . S
C431 H423 0.950 . S
C431 C429 1.327 . S
C432 C420 1.349 1_554 S
C432 H426 0.950 1_554 S
C432 C433 1.327 . S
C433 H427 0.950 . S
C433 C432 1.327 . S
C433 C437 1.429 . S
C434 C417 1.574 . S
C434 H428 0.949 . S
C434 C438 1.368 . S
C435 C416 1.429 . S
C435 C429 1.429 . S
C435 C436 1.523 . S
C436 C417 1.368 . S
C436 C430 1.368 . S
C436 C435 1.523 . S
C437 C421 1.429 . S
C437 C433 1.429 . S
C437 C438 1.523 . S
C438 C422 1.368 . S
C438 C434 1.368 . S
C438 C437 1.523 . S
H439 C414 0.950 1_655 S
H440 C416 0.950 1_655 S
H441 C417 0.949 . S
H442 C419 0.931 1_556 S
H443 C421 0.950 . S
C444 C445 1.349 1_554 S
C444 C446 1.327 . S
C444 H469 0.950 . S
C445 C444 1.349 1_556 S
C445 C461 1.349 . S
C446 C444 1.327 . S
C446 C465 1.429 . S
C446 H470 0.950 . S
C447 C464 1.574 . S
C447 C466 1.368 . S
C447 H471 0.949 . S
H448 C452 0.949 . S
C449 C450 1.349 . S
C449 C451 1.327 . S
C449 H472 0.950 . S
C450 C449 1.349 . S
C450 C462 1.349 . S
C451 C449 1.327 . S
C451 C467 1.429 . S
C451 H473 0.950 . S
C452 H448 0.949 . S
C452 C460 1.574 . S
C452 C468 1.368 . S
H453 C461 0.950 . S
H454 C459 0.950 . S
H455 C460 0.949 . S
H456 C462 0.950 . S
H457 C463 0.950 . S
H458 C464 0.949 . S
C459 H454 0.950 . S
C459 C461 1.327 1_554 S
C459 C465 1.429 . S
C460 C452 1.574 . S
C460 H455 0.949 . S
C460 C466 1.368 . S
C461 C445 1.349 . S
C461 H453 0.950 . S
C461 C459 1.327 1_556 S
C462 C450 1.349 . S
C462 H456 0.950 . S
C462 C463 1.327 . S
C463 H457 0.950 . S
C463 C462 1.327 . S
C463 C467 1.429 . S
C464 C447 1.574 . S
C464 H458 0.949 . S
C464 C468 1.368 . S
C465 C446 1.429 . S
C465 C459 1.429 . S
C465 C466 1.523 . S
C466 C447 1.368 . S
C466 C460 1.368 . S
C466 C465 1.523 . S
C467 C451 1.429 . S
C467 C463 1.429 . S
C467 C468 1.523 . S
C468 C452 1.368 . S
C468 C464 1.368 . S
C468 C467 1.523 . S
H469 C444 0.950 . S
H470 C446 0.950 . S
H471 C447 0.949 . S
H472 C449 0.950 . S
H473 C451 0.950 . S
C474 C475 1.349 1_545 S
C474 C476 1.327 1_545 S
C474 H499 0.950 . S
C475 C474 1.349 1_565 S
C475 C491 1.349 . S
C476 C474 1.327 1_565 S
C476 C495 1.429 . S
C476 H500 0.950 1_565 S
C477 C494 1.574 . S
C477 C496 1.368 . S
C477 H501 0.949 . S
H478 C482 0.949 . S
C479 C480 1.349 1_554 S
C479 C481 1.327 . S
C479 H502 0.950 . S
C480 C479 1.349 1_556 S
C480 C492 1.349 . S
C481 C479 1.327 . S
C481 C497 1.429 . S
C481 H503 0.950 . S
C482 H478 0.949 . S
C482 C490 1.574 . S
C482 C498 1.368 . S
H483 C491 0.950 . S
H484 C489 0.950 . S
H485 C490 0.949 1_545 S
H486 C492 0.950 . S
H487 C493 0.950 . S
H488 C494 0.949 . S
C489 H484 0.950 . S
C489 C491 1.327 . S
C489 C495 1.429 . S
C490 C482 1.574 . S
C490 H485 0.949 1_565 S
C490 C496 1.368 . S
C491 C475 1.349 . S
C491 H483 0.950 . S
C491 C489 1.327 . S
C492 C480 1.349 . S
C492 H486 0.950 . S
C492 C493 1.327 1_556 S
C493 H487 0.950 . S
C493 C492 1.327 1_554 S
C493 C497 1.429 . S
C494 C477 1.574 . S
C494 H488 0.949 . S
C494 C498 1.368 . S
C495 C476 1.429 . S
C495 C489 1.429 . S
C495 C496 1.523 . S
C496 C477 1.368 . S
C496 C490 1.368 . S
C496 C495 1.523 . S
C497 C481 1.429 . S
C497 C493 1.429 . S
C497 C498 1.523 . S
C498 C482 1.368 . S
C498 C494 1.368 . S
C498 C497 1.523 . S
H499 C474 0.950 . S
H500 C476 0.950 1_545 S
H501 C477 0.949 . S
H502 C479 0.950 . S
H503 C481 0.950 . S
C504 C505 1.349 . S
C504 C506 1.327 . S
C504 H529 0.950 . S
C505 C504 1.349 . S
C505 C521 1.349 . S
C506 C504 1.327 . S
C506 C525 1.429 . S
C506 H530 0.950 . S
C507 C524 1.574 . S
C507 C526 1.368 . S
C507 H531 0.949 . S
H508 C512 0.949 . S
C509 C510 1.349 . S
C509 C511 1.327 . S
C509 H532 0.950 1_545 S
C510 C509 1.349 . S
C510 C522 1.349 . S
C511 C509 1.327 . S
C511 C527 1.429 . S
C511 H533 0.950 1_545 S
C512 H508 0.949 . S
C512 C520 1.574 . S
C512 C528 1.368 . S
H513 C521 0.950 . S
H514 C519 0.950 . S
H515 C520 0.949 . S
H516 C522 0.950 . S
H517 C523 0.950 . S
H518 C524 0.949 . S
C519 H514 0.950 . S
C519 C521 1.327 . S
C519 C525 1.429 . S
C520 C512 1.574 . S
C520 H515 0.949 . S
C520 C526 1.368 . S
C521 C505 1.349 . S
C521 H513 0.950 . S
C521 C519 1.327 . S
C522 C510 1.349 . S
C522 H516 0.950 . S
C522 C523 1.327 . S
C523 H517 0.950 . S
C523 C522 1.327 . S
C523 C527 1.429 . S
C524 C507 1.574 . S
C524 H518 0.949 . S
C524 C528 1.368 . S
C525 C506 1.429 . S
C525 C519 1.429 . S
C525 C526 1.523 . S
C526 C507 1.368 . S
C526 C520 1.368 . S
C526 C525 1.523 . S
C527 C511 1.429 . S
C527 C523 1.429 . S
C527 C528 1.523 . S
C528 C512 1.368 . S
C528 C524 1.368 . S
C528 C527 1.523 . S
H529 C504 0.950 . S
H530 C506 0.950 . S
H531 C507 0.949 . S
H532 C509 0.950 1_565 S
H533 C511 0.950 1_565 S
C534 C535 1.349 . S
C534 C536 1.327 . S
C534 H559 0.950 . S
C535 C534 1.349 . S
C535 C551 1.349 . S
C536 C534 1.327 . S
C536 C555 1.429 . S
C536 H560 0.950 . S
C537 C554 1.574 . S
C537 C556 1.368 . S
C537 H561 0.949 . S
H538 C542 0.949 . S
C539 C540 1.349 1_455 S
C539 C541 1.327 . S
C539 H562 0.950 . S
C540 C539 1.349 1_655 S
C540 C552 1.349 . S
C541 C539 1.327 . S
C541 C557 1.429 1_455 S
C541 H563 0.950 . S
C542 H538 0.949 . S
C542 C550 1.574 . S
C542 C558 1.368 . S
H543 C551 0.950 . S
H544 C549 0.950 . S
H545 C550 0.949 . S
H546 C552 0.950 . S
H547 C553 0.950 . S
H548 C554 0.949 1_455 S
C549 H544 0.950 . S
C549 C551 1.327 . S
C549 C555 1.429 . S
C550 C542 1.574 . S
C550 H545 0.949 . S
C550 C556 1.368 . S
C551 C535 1.349 . S
C551 H543 0.950 . S
C551 C549 1.327 . S
C552 C540 1.349 . S
C552 H546 0.950 . S
C552 C553 1.327 . S
C553 H547 0.950 . S
C553 C552 1.327 . S
C553 C557 1.429 . S
C554 C537 1.574 . S
C554 H548 0.949 1_655 S
C554 C558 1.368 . S
C555 C536 1.429 . S
C555 C549 1.429 . S
C555 C556 1.523 . S
C556 C537 1.368 . S
C556 C550 1.368 . S
C556 C555 1.523 . S
C557 C541 1.429 1_655 S
C557 C553 1.429 . S
C557 C558 1.523 . S
C558 C542 1.368 . S
C558 C554 1.368 . S
C558 C557 1.523 . S
H559 C534 0.950 . S
H560 C536 0.950 . S
H561 C537 0.949 . S
H562 C539 0.950 . S
H563 C541 0.950 . S
C564 C565 1.349 . S
C564 C566 1.327 . S
C564 H589 0.950 . S
C565 C564 1.349 . S
C565 C581 1.349 . S
C566 C564 1.327 . S
C566 C585 1.429 . S
C566 H590 0.950 . S
C567 C584 1.574 . S
C567 C586 1.368 . S
C567 H591 0.949 . S
H568 C572 0.949 . S
C569 C570 1.349 . S
C569 C571 1.327 . S
C569 H592 0.950 . S
C570 C569 1.349 . S
C570 C582 1.349 . S
C571 C569 1.327 . S
C571 C587 1.429 . S
C571 H593 0.950 . S
C572 H568 0.949 . S
C572 C580 1.574 . S
C572 C588 1.368 . S
H573 C581 0.950 . S
H574 C579 0.950 . S
H575 C580 0.949 . S
H576 C582 0.950 . S
H577 C583 0.950 . S
H578 C584 0.949 . S
C579 H574 0.950 . S
C579 C581 1.327 . S
C579 C585 1.429 . S
C580 C572 1.574 . S
C580 H575 0.949 . S
C580 C586 1.368 . S
C581 C565 1.349 . S
C581 H573 0.950 . S
C581 C579 1.327 . S
C582 C570 1.349 . S
C582 H576 0.950 . S
C582 C583 1.327 . S
C583 H577 0.950 . S
C583 C582 1.327 . S
C583 C587 1.429 . S
C584 C567 1.574 . S
C584 H578 0.949 . S
C584 C588 1.368 . S
C585 C566 1.429 . S
C585 C579 1.429 . S
C585 C586 1.523 . S
C586 C567 1.368 . S
C586 C580 1.368 . S
C586 C585 1.523 . S
C587 C571 1.429 . S
C587 C583 1.429 . S
C587 C588 1.523 . S
C588 C572 1.368 . S
C588 C584 1.368 . S
C588 C587 1.523 . S
H589 C564 0.950 . S
H590 C566 0.950 . S
H591 C567 0.949 . S
H592 C569 0.950 . S
H593 C571 0.950 . S
C594 C595 1.349 . S
C594 C596 1.327 . S
C594 H619 0.950 . S
C595 C594 1.349 . S
C595 C611 1.349 . S
C596 C594 1.327 . S
C596 C615 1.429 . S
C596 H620 0.950 . S
C597 C614 1.574 . S
C597 C616 1.368 . S
C597 H621 0.949 . S
H598 C602 0.949 . S
C599 C600 1.349 . S
C599 C601 1.327 1_554 S
C599 H622 0.950 . S
C600 C599 1.349 . S
C600 C612 1.349 1_554 S
C601 C599 1.327 1_556 S
C601 C617 1.429 . S
C601 H623 0.950 . S
C602 H598 0.949 . S
C602 C610 1.574 . S
C602 C618 1.368 . S
H603 C611 0.950 . S
H604 C609 0.950 . S
H605 C610 0.949 . S
H606 C612 0.950 . S
H607 C613 0.950 . S
H608 C614 0.949 . S
C609 H604 0.950 . S
C609 C611 1.327 . S
C609 C615 1.429 . S
C610 C602 1.574 . S
C610 H605 0.949 . S
C610 C616 1.368 . S
C611 C595 1.349 . S
C611 H603 0.950 . S
C611 C609 1.327 . S
C612 C600 1.349 1_556 S
C612 H606 0.950 . S
C612 C613 1.327 . S
C613 H607 0.950 . S
C613 C612 1.327 . S
C613 C617 1.429 . S
C614 C597 1.574 . S
C614 H608 0.949 . S
C614 C618 1.368 . S
C615 C596 1.429 . S
C615 C609 1.429 . S
C615 C616 1.523 . S
C616 C597 1.368 . S
C616 C610 1.368 . S
C616 C615 1.523 . S
C617 C601 1.429 . S
C617 C613 1.429 . S
C617 C618 1.523 . S
C618 C602 1.368 . S
C618 C614 1.368 . S
C618 C617 1.523 . S
H619 C594 0.950 . S
H620 C596 0.950 . S
H621 C597 0.949 . S
H622 C599 0.950 . S
H623 C601 0.950 . S
C624 C625 1.349 . S
C624 C626 1.327 1_554 S
C624 H649 0.950 . S
C625 C624 1.349 . S
C625 C641 1.349 1_554 S
C626 C624 1.327 1_556 S
C626 C645 1.429 . S
C626 H650 0.950 . S
C627 C644 1.574 . S
C627 C646 1.368 . S
C627 H651 0.949 . S
H628 C632 0.949 . S
C629 C630 1.349 . S
C629 C631 1.327 . S
C629 H652 0.950 . S
C630 C629 1.349 . S
C630 C642 1.349 . S
C631 C629 1.327 . S
C631 C647 1.429 . S
C631 H653 0.950 . S
C632 H628 0.949 . S
C632 C640 1.574 . S
C632 C648 1.368 . S
H633 C641 0.950 . S
H634 C639 0.950 . S
H635 C640 0.949 . S
H636 C642 0.950 . S
H637 C643 0.950 . S
H638 C644 0.949 . S
C639 H634 0.950 . S
C639 C641 1.327 . S
C639 C645 1.429 . S
C640 C632 1.574 . S
C640 H635 0.949 . S
C640 C646 1.368 . S
C641 C625 1.349 1_556 S
C641 H633 0.950 . S
C641 C639 1.327 . S
C642 C630 1.349 . S
C642 H636 0.950 . S
C642 C643 1.327 . S
C643 H637 0.950 . S
C643 C642 1.327 . S
C643 C647 1.429 . S
C644 C627 1.574 . S
C644 H638 0.949 . S
C644 C648 1.368 . S
C645 C626 1.429 . S
C645 C639 1.429 . S
C645 C646 1.523 . S
C646 C627 1.368 . S
C646 C640 1.368 . S
C646 C645 1.523 . S
C647 C631 1.429 . S
C647 C643 1.429 . S
C647 C648 1.523 . S
C648 C632 1.368 . S
C648 C644 1.368 . S
C648 C647 1.523 . S
H649 C624 0.950 . S
H650 C626 0.950 . S
H651 C627 0.949 . S
H652 C629 0.950 . S
H653 C631 0.950 . S
C654 C655 1.349 . S
C654 C656 1.327 1_554 S
C654 H679 0.950 . S
C655 C654 1.349 . S
C655 C671 1.349 1_554 S
C656 C654 1.327 1_556 S
C656 C675 1.429 . S
C656 H680 0.950 . S
C657 C674 1.574 . S
C657 C676 1.368 . S
C657 H681 0.949 . S
H658 C662 0.949 . S
C659 C660 1.349 . S
C659 C661 1.327 . S
C659 H682 0.950 . S
C660 C659 1.349 . S
C660 C672 1.349 . S
C661 C659 1.327 . S
C661 C677 1.429 . S
C661 H683 0.950 . S
C662 H658 0.949 . S
C662 C670 1.574 . S
C662 C678 1.368 . S
H663 C671 0.950 . S
H664 C669 0.950 . S
H665 C670 0.949 . S
H666 C672 0.950 . S
H667 C673 0.950 . S
H668 C674 0.949 . S
C669 H664 0.950 . S
C669 C671 1.327 . S
C669 C675 1.429 . S
C670 C662 1.574 . S
C670 H665 0.949 . S
C670 C676 1.368 . S
C671 C655 1.349 1_556 S
C671 H663 0.950 . S
C671 C669 1.327 . S
C672 C660 1.349 . S
C672 H666 0.950 . S
C672 C673 1.327 . S
C673 H667 0.950 . S
C673 C672 1.327 . S
C673 C677 1.429 . S
C674 C657 1.574 . S
C674 H668 0.949 . S
C674 C678 1.368 . S
C675 C656 1.429 . S
C675 C669 1.429 . S
C675 C676 1.523 . S
C676 C657 1.368 . S
C676 C670 1.368 . S
C676 C675 1.523 . S
C677 C661 1.429 . S
C677 C673 1.429 . S
C677 C678 1.523 . S
C678 C662 1.368 . S
C678 C674 1.368 . S
C678 C677 1.523 . S
H679 C654 0.950 . S
H680 C656 0.950 . S
H681 C657 0.949 . S
H682 C659 0.950 . S
H683 C661 0.950 . S
C684 C685 1.349 1_545 S
C684 C686 1.342 . S
C684 H709 0.950 . S
C685 C684 1.349 1_565 S
C685 C701 1.349 . S
C686 C684 1.342 . S
C686 C705 1.409 1_545 S
C686 H710 0.957 . S
C687 C704 1.574 . S
C687 C706 1.368 . S
C687 H711 0.949 . S
H688 C692 0.949 . S
C689 C690 1.349 . S
C689 C691 1.327 . S
C689 H712 0.950 . S
C690 C689 1.349 . S
C690 C702 1.349 . S
C691 C689 1.327 . S
C691 C707 1.429 . S
C691 H713 0.950 . S
C692 H688 0.949 . S
C692 C700 1.574 . S
C692 C708 1.368 . S
H693 C701 0.950 . S
H694 C699 0.950 . S
H695 C700 0.949 1_545 S
H696 C702 0.950 . S
H697 C703 0.950 . S
H698 C704 0.949 . S
C699 H694 0.950 . S
C699 C701 1.327 . S
C699 C705 1.429 . S
C700 C692 1.574 . S
C700 H695 0.949 1_565 S
C700 C706 1.368 . S
C701 C685 1.349 . S
C701 H693 0.950 . S
C701 C699 1.327 . S
C702 C690 1.349 . S
C702 H696 0.950 . S
C702 C703 1.327 . S
C703 H697 0.950 . S
C703 C702 1.327 . S
C703 C707 1.429 . S
C704 C687 1.574 . S
C704 H698 0.949 . S
C704 C708 1.368 . S
C705 C686 1.409 1_565 S
C705 C699 1.429 . S
C705 C706 1.523 . S
C706 C687 1.368 . S
C706 C700 1.368 . S
C706 C705 1.523 . S
C707 C691 1.429 . S
C707 C703 1.429 . S
C707 C708 1.523 . S
C708 C692 1.368 . S
C708 C704 1.368 . S
C708 C707 1.523 . S
H709 C684 0.950 . S
H710 C686 0.957 . S
H711 C687 0.949 . S
H712 C689 0.950 . S
H713 C691 0.950 . S
C714 C715 1.349 . S
C714 C716 1.327 . S
C714 H739 0.950 1_455 S
C715 C714 1.349 . S
C715 C731 1.349 . S
C716 C714 1.327 . S
C716 C735 1.429 . S
C716 H740 0.950 . S
C717 C734 1.574 . S
C717 C736 1.368 . S
C717 H741 0.949 . S
H718 C722 0.949 . S
C719 C720 1.349 . S
C719 C721 1.327 . S
C719 H742 0.950 . S
C720 C719 1.349 . S
C720 C732 1.349 . S
C721 C719 1.327 . S
C721 C737 1.429 . S
C721 H743 0.950 . S
C722 H718 0.949 . S
C722 C730 1.574 . S
C722 C738 1.368 . S
H723 C731 0.950 . S
H724 C729 0.950 . S
H725 C730 0.949 . S
H726 C732 0.950 . S
H727 C733 0.950 . S
H728 C734 0.949 . S
C729 H724 0.950 . S
C729 C731 1.327 . S
C729 C735 1.429 . S
C730 C722 1.574 . S
C730 H725 0.949 . S
C730 C736 1.368 . S
C731 C715 1.349 . S
C731 H723 0.950 . S
C731 C729 1.327 . S
C732 C720 1.349 . S
C732 H726 0.950 . S
C732 C733 1.327 . S
C733 H727 0.950 . S
C733 C732 1.327 . S
C733 C737 1.429 . S
C734 C717 1.574 . S
C734 H728 0.949 . S
C734 C738 1.368 . S
C735 C716 1.429 . S
C735 C729 1.429 . S
C735 C736 1.523 . S
C736 C717 1.368 . S
C736 C730 1.368 . S
C736 C735 1.523 . S
C737 C721 1.429 . S
C737 C733 1.429 . S
C737 C738 1.523 . S
C738 C722 1.368 . S
C738 C734 1.368 . S
C738 C737 1.523 . S
H739 C714 0.950 1_655 S
H740 C716 0.950 . S
H741 C717 0.949 . S
H742 C719 0.950 . S
H743 C721 0.950 . S
C744 C745 1.349 . S
C744 C746 1.327 . S
C744 H769 0.950 . S
C745 C744 1.349 . S
C745 C761 1.349 . S
C746 C744 1.327 . S
C746 C765 1.429 . S
C746 H770 0.950 . S
C747 C764 1.574 . S
C747 C766 1.368 . S
C747 H771 0.949 . S
H748 C752 0.949 . S
C749 C750 1.349 . S
C749 C751 1.327 . S
C749 H772 0.950 . S
C750 C749 1.349 . S
C750 C762 1.349 . S
C751 C749 1.327 . S
C751 C767 1.429 . S
C751 H773 0.950 . S
C752 H748 0.949 . S
C752 C760 1.574 . S
C752 C768 1.368 . S
H753 C761 0.950 . S
H754 C759 0.950 . S
H755 C760 0.949 . S
H756 C762 0.950 . S
H757 C763 0.950 . S
H758 C764 0.949 . S
C759 H754 0.950 . S
C759 C761 1.327 . S
C759 C765 1.429 . S
C760 C752 1.574 . S
C760 H755 0.949 . S
C760 C766 1.368 . S
C761 C745 1.349 . S
C761 H753 0.950 . S
C761 C759 1.327 . S
C762 C750 1.349 . S
C762 H756 0.950 . S
C762 C763 1.327 . S
C763 H757 0.950 . S
C763 C762 1.327 . S
C763 C767 1.429 . S
C764 C747 1.574 . S
C764 H758 0.949 . S
C764 C768 1.368 . S
C765 C746 1.429 . S
C765 C759 1.429 . S
C765 C766 1.523 . S
C766 C747 1.368 . S
C766 C760 1.368 . S
C766 C765 1.523 . S
C767 C751 1.429 . S
C767 C763 1.429 . S
C767 C768 1.523 . S
C768 C752 1.368 . S
C768 C764 1.368 . S
C768 C767 1.523 . S
H769 C744 0.950 . S
H770 C746 0.950 . S
H771 C747 0.949 . S
H772 C749 0.950 . S
H773 C751 0.950 . S
C774 C775 1.349 . S
C774 C776 1.327 . S
C774 H799 0.950 . S
C775 C774 1.349 . S
C775 C791 1.349 . S
C776 C774 1.327 . S
C776 C795 1.429 . S
C776 H800 0.950 . S
C777 C794 1.574 . S
C777 C796 1.368 . S
C777 H801 0.949 . S
H778 C782 0.949 . S
C779 C780 1.349 . S
C779 C781 1.327 . S
C779 H802 0.950 . S
C780 C779 1.349 . S
C780 C792 1.349 . S
C781 C779 1.327 . S
C781 C797 1.429 . S
C781 H803 0.950 . S
C782 H778 0.949 . S
C782 C790 1.574 . S
C782 C798 1.368 . S
H783 C791 0.950 . S
H784 C789 0.950 . S
H785 C790 0.949 . S
H786 C792 0.950 . S
H787 C793 0.950 . S
H788 C794 0.949 . S
C789 H784 0.950 . S
C789 C791 1.327 . S
C789 C795 1.429 . S
C790 C782 1.574 . S
C790 H785 0.949 . S
C790 C796 1.368 . S
C791 C775 1.349 . S
C791 H783 0.950 . S
C791 C789 1.327 . S
C792 C780 1.349 . S
C792 H786 0.950 . S
C792 C793 1.327 . S
C793 H787 0.950 . S
C793 C792 1.327 . S
C793 C797 1.429 . S
C794 C777 1.574 . S
C794 H788 0.949 . S
C794 C798 1.368 . S
C795 C776 1.429 . S
C795 C789 1.429 . S
C795 C796 1.523 . S
C796 C777 1.368 . S
C796 C790 1.368 . S
C796 C795 1.523 . S
C797 C781 1.429 . S
C797 C793 1.429 . S
C797 C798 1.523 . S
C798 C782 1.368 . S
C798 C794 1.368 . S
C798 C797 1.523 . S
H799 C774 0.950 . S
H800 C776 0.950 . S
H801 C777 0.949 . S
H802 C779 0.950 . S
H803 C781 0.950 . S
C804 C805 1.349 . S
C804 C806 1.327 . S
C804 H829 0.950 . S
C805 C804 1.349 . S
C805 C821 1.349 . S
C806 C804 1.327 . S
C806 C825 1.429 . S
C806 H830 0.950 . S
C807 C824 1.574 . S
C807 C826 1.368 1_565 S
C807 H831 0.949 . S
H808 C812 0.949 . S
C809 C810 1.349 . S
C809 C811 1.327 . S
C809 H832 0.950 . S
C810 C809 1.349 . S
C810 C822 1.349 . S
C811 C809 1.327 . S
C811 C827 1.429 . S
C811 H833 0.950 . S
C812 H808 0.949 . S
C812 C820 1.574 . S
C812 C828 1.368 1_545 S
H813 C821 0.950 . S
H814 C819 0.950 . S
H815 C820 0.949 . S
H816 C822 0.950 . S
H817 C823 0.950 1_545 S
H818 C824 0.949 . S
C819 H814 0.950 . S
C819 C821 1.327 . S
C819 C825 1.429 . S
C820 C812 1.574 . S
C820 H815 0.949 . S
C820 C826 1.368 . S
C821 C805 1.349 . S
C821 H813 0.950 . S
C821 C819 1.327 . S
C822 C810 1.349 . S
C822 H816 0.950 . S
C822 C823 1.327 . S
C823 H817 0.950 1_565 S
C823 C822 1.327 . S
C823 C827 1.429 . S
C824 C807 1.574 . S
C824 H818 0.949 . S
C824 C828 1.368 . S
C825 C806 1.429 . S
C825 C819 1.429 . S
C825 C826 1.523 . S
C826 C807 1.368 1_545 S
C826 C820 1.368 . S
C826 C825 1.523 . S
C827 C811 1.429 . S
C827 C823 1.429 . S
C827 C828 1.523 . S
C828 C812 1.368 1_565 S
C828 C824 1.368 . S
C828 C827 1.523 . S
H829 C804 0.950 . S
H830 C806 0.950 . S
H831 C807 0.949 . S
H832 C809 0.950 . S
H833 C811 0.950 . S
C834 C835 1.349 . S
C834 C836 1.327 . S
C834 H859 0.950 . S
C835 C834 1.349 . S
C835 C851 1.349 . S
C836 C834 1.327 . S
C836 C855 1.429 . S
C836 H860 0.950 . S
C837 C854 1.574 . S
C837 C856 1.368 1_655 S
C837 H861 0.949 . S
H838 C842 0.949 . S
C839 C840 1.349 . S
C839 C841 1.327 . S
C839 H862 0.950 . S
C840 C839 1.349 . S
C840 C852 1.349 . S
C841 C839 1.327 . S
C841 C857 1.429 . S
C841 H863 0.950 . S
C842 H838 0.949 . S
C842 C850 1.574 . S
C842 C858 1.368 1_455 S
H843 C851 0.950 . S
H844 C849 0.950 1_655 S
H845 C850 0.949 . S
H846 C852 0.951 . S
H847 C853 0.945 1_455 S
H848 C854 0.949 . S
C849 H844 0.950 1_455 S
C849 C851 1.327 . S
C849 C855 1.429 . S
C850 C842 1.574 . S
C850 H845 0.949 . S
C850 C856 1.368 . S
C851 C835 1.349 . S
C851 H843 0.950 . S
C851 C849 1.327 . S
C852 C840 1.349 . S
C852 H846 0.951 . S
C852 C853 1.329 . S
C853 H847 0.945 1_655 S
C853 C852 1.329 . S
C853 C857 1.431 . S
C854 C837 1.574 . S
C854 H848 0.949 . S
C854 C858 1.368 . S
C855 C836 1.429 . S
C855 C849 1.429 . S
C855 C856 1.523 . S
C856 C837 1.368 1_455 S
C856 C850 1.368 . S
C856 C855 1.523 . S
C857 C841 1.429 . S
C857 C853 1.431 . S
C857 C858 1.523 . S
C858 C842 1.368 1_655 S
C858 C854 1.368 . S
C858 C857 1.523 . S
H859 C834 0.950 . S
H860 C836 0.950 . S
H861 C837 0.949 . S
H862 C839 0.950 . S
H863 C841 0.950 . S
C864 C865 1.349 . S
C864 C866 1.327 . S
C864 H889 0.950 . S
C865 C864 1.349 . S
C865 C881 1.349 . S
C866 C864 1.327 . S
C866 C885 1.429 . S
C866 H890 0.950 . S
C867 C884 1.574 . S
C867 C886 1.368 . S
C867 H891 0.949 . S
H868 C872 0.949 . S
C869 C870 1.349 . S
C869 C871 1.327 . S
C869 H892 0.950 . S
C870 C869 1.349 . S
C870 C882 1.349 . S
C871 C869 1.327 . S
C871 C887 1.429 . S
C871 H893 0.950 . S
C872 H868 0.949 . S
C872 C880 1.574 . S
C872 C888 1.368 . S
H873 C881 0.950 . S
H874 C879 0.950 . S
H875 C880 0.949 . S
H876 C882 0.950 . S
H877 C883 0.950 . S
H878 C884 0.949 . S
C879 H874 0.950 . S
C879 C881 1.327 . S
C879 C885 1.429 . S
C880 C872 1.574 . S
C880 H875 0.949 . S
C880 C886 1.368 . S
C881 C865 1.349 . S
C881 H873 0.950 . S
C881 C879 1.327 . S
C882 C870 1.349 . S
C882 H876 0.950 . S
C882 C883 1.327 . S
C883 H877 0.950 . S
C883 C882 1.327 . S
C883 C887 1.429 . S
C884 C867 1.574 . S
C884 H878 0.949 . S
C884 C888 1.368 . S
C885 C866 1.429 . S
C885 C879 1.429 . S
C885 C886 1.523 . S
C886 C867 1.368 . S
C886 C880 1.368 . S
C886 C885 1.523 . S
C887 C871 1.429 . S
C887 C883 1.429 . S
C887 C888 1.523 . S
C888 C872 1.368 . S
C888 C884 1.368 . S
C888 C887 1.523 . S
H889 C864 0.950 . S
H890 C866 0.950 . S
H891 C867 0.949 . S
H892 C869 0.950 . S
H893 C871 0.950 . S
C894 C895 1.349 . S
C894 C896 1.327 . S
C894 H919 0.950 . S
C895 C894 1.349 . S
C895 C911 1.349 . S
C896 C894 1.327 . S
C896 C915 1.429 . S
C896 H920 0.950 . S
C897 C914 1.574 1_545 S
C897 C916 1.368 . S
C897 H921 0.949 . S
H898 C902 0.949 . S
C899 C900 1.349 . S
C899 C901 1.327 . S
C899 H922 0.950 . S
C900 C899 1.349 . S
C900 C912 1.349 . S
C901 C899 1.327 . S
C901 C917 1.429 . S
C901 H923 0.950 . S
C902 H898 0.949 . S
C902 C910 1.574 . S
C902 C918 1.368 1_545 S
H903 C911 0.950 . S
H904 C909 0.950 . S
H905 C910 0.949 . S
H906 C912 0.950 . S
H907 C913 0.950 . S
H908 C914 0.949 . S
C909 H904 0.950 . S
C909 C911 1.327 . S
C909 C915 1.429 . S
C910 C902 1.574 . S
C910 H905 0.949 . S
C910 C916 1.368 . S
C911 C895 1.349 . S
C911 H903 0.950 . S
C911 C909 1.327 . S
C912 C900 1.349 . S
C912 H906 0.950 . S
C912 C913 1.327 . S
C913 H907 0.950 . S
C913 C912 1.327 . S
C913 C917 1.429 . S
C914 C897 1.574 1_565 S
C914 H908 0.949 . S
C914 C918 1.368 . S
C915 C896 1.429 . S
C915 C909 1.429 . S
C915 C916 1.523 . S
C916 C897 1.368 . S
C916 C910 1.368 . S
C916 C915 1.523 . S
C917 C901 1.429 . S
C917 C913 1.429 . S
C917 C918 1.523 . S
C918 C902 1.368 1_565 S
C918 C914 1.368 . S
C918 C917 1.523 . S
H919 C894 0.950 . S
H920 C896 0.950 . S
H921 C897 0.949 . S
H922 C899 0.950 . S
H923 C901 0.950 . S
C924 C925 1.349 . S
C924 C926 1.327 . S
C924 H949 0.950 . S
C925 C924 1.349 . S
C925 C941 1.349 . S
C926 C924 1.327 . S
C926 C945 1.429 . S
C926 H950 0.950 1_455 S
C927 C944 1.574 . S
C927 C946 1.368 . S
C927 H951 0.949 . S
H928 C932 0.949 . S
C929 C930 1.349 . S
C929 C931 1.327 . S
C929 H952 0.950 . S
C930 C929 1.349 . S
C930 C942 1.349 . S
C931 C929 1.327 . S
C931 C947 1.429 . S
C931 H953 0.950 1_655 S
C932 H928 0.949 . S
C932 C940 1.574 . S
C932 C948 1.368 . S
H933 C941 0.950 . S
H934 C939 0.950 . S
H935 C940 0.949 . S
H936 C942 0.950 . S
H937 C943 0.950 . S
H938 C944 0.949 . S
C939 H934 0.950 . S
C939 C941 1.327 . S
C939 C945 1.429 . S
C940 C932 1.574 . S
C940 H935 0.949 . S
C940 C946 1.368 1_655 S
C941 C925 1.349 . S
C941 H933 0.950 . S
C941 C939 1.327 . S
C942 C930 1.349 . S
C942 H936 0.950 . S
C942 C943 1.327 . S
C943 H937 0.950 . S
C943 C942 1.327 . S
C943 C947 1.429 . S
C944 C927 1.574 . S
C944 H938 0.949 . S
C944 C948 1.368 1_455 S
C945 C926 1.429 . S
C945 C939 1.429 . S
C945 C946 1.523 . S
C946 C927 1.368 . S
C946 C940 1.368 1_455 S
C946 C945 1.523 . S
C947 C931 1.429 . S
C947 C943 1.429 . S
C947 C948 1.523 . S
C948 C932 1.368 . S
C948 C944 1.368 1_655 S
C948 C947 1.523 . S
H949 C924 0.950 . S
H950 C926 0.950 1_655 S
H951 C927 0.949 . S
H952 C929 0.950 . S
H953 C931 0.950 1_455 S
C954 C955 1.349 . S
C954 C956 1.327 . S
C954 H979 0.950 . S
C955 C954 1.349 . S
C955 C971 1.349 . S
C956 C954 1.327 . S
C956 C975 1.429 . S
C956 H980 0.950 . S
C957 C974 1.574 . S
C957 C976 1.368 . S
C957 H981 0.949 . S
H958 C962 0.949 . S
C959 C960 1.349 . S
C959 C961 1.327 . S
C959 H982 0.950 . S
C960 C959 1.349 . S
C960 C972 1.349 . S
C961 C959 1.327 . S
C961 C977 1.429 . S
C961 H983 0.950 . S
C962 H958 0.949 . S
C962 C970 1.574 . S
C962 C978 1.368 . S
H963 C971 0.950 . S
H964 C969 0.950 . S
H965 C970 0.949 . S
H966 C972 0.950 . S
H967 C973 0.950 . S
H968 C974 0.949 . S
C969 H964 0.950 . S
C969 C971 1.327 . S
C969 C975 1.429 . S
C970 C962 1.574 . S
C970 H965 0.949 . S
C970 C976 1.368 . S
C971 C955 1.349 . S
C971 H963 0.950 . S
C971 C969 1.327 . S
C972 C960 1.349 . S
C972 H966 0.950 . S
C972 C973 1.327 . S
C973 H967 0.950 . S
C973 C972 1.327 . S
C973 C977 1.429 . S
C974 C957 1.574 . S
C974 H968 0.949 . S
C974 C978 1.368 . S
C975 C956 1.429 . S
C975 C969 1.429 . S
C975 C976 1.523 . S
C976 C957 1.368 . S
C976 C970 1.368 . S
C976 C975 1.523 . S
C977 C961 1.429 . S
C977 C973 1.429 . S
C977 C978 1.523 . S
C978 C962 1.368 . S
C978 C974 1.368 . S
C978 C977 1.523 . S
H979 C954 0.950 . S
H980 C956 0.950 . S
H981 C957 0.949 . S
H982 C959 0.950 . S
H983 C961 0.950 . S
C984 C985 1.349 . S
C984 C986 1.327 . S
C984 H1009 0.950 . S
C985 C984 1.349 . S
C985 C1001 1.349 . S
C986 C984 1.327 . S
C986 C1005 1.429 . S
C986 H1010 0.950 . S
C987 C1004 1.574 . S
C987 C1006 1.368 . S
C987 H1011 0.949 . S
H988 C992 0.949 . S
C989 C990 1.349 . S
C989 C991 1.327 . S
C989 H1012 0.950 . S
C990 C989 1.349 . S
C990 C1002 1.349 . S
C991 C989 1.327 . S
C991 C1007 1.429 . S
C991 H1013 0.950 . S
C992 H988 0.949 . S
C992 C1000 1.574 . S
C992 C1008 1.368 . S
H993 C1001 0.950 . S
H994 C999 0.950 . S
H995 C1000 0.949 . S
H996 C1002 0.950 . S
H997 C1003 0.950 . S
H998 C1004 0.949 . S
C999 H994 0.950 . S
C999 C1001 1.327 . S
C999 C1005 1.429 . S
C1000 C992 1.574 . S
C1000 H995 0.949 . S
C1000 C1006 1.368 . S
C1001 C985 1.349 . S
C1001 H993 0.950 . S
C1001 C999 1.327 . S
C1002 C990 1.349 . S
C1002 H996 0.950 . S
C1002 C1003 1.327 . S
C1003 H997 0.950 . S
C1003 C1002 1.327 . S
C1003 C1007 1.429 . S
C1004 C987 1.574 . S
C1004 H998 0.949 . S
C1004 C1008 1.368 . S
C1005 C986 1.429 . S
C1005 C999 1.429 . S
C1005 C1006 1.523 . S
C1006 C987 1.368 . S
C1006 C1000 1.368 . S
C1006 C1005 1.523 . S
C1007 C991 1.429 . S
C1007 C1003 1.429 . S
C1007 C1008 1.523 . S
C1008 C992 1.368 . S
C1008 C1004 1.368 . S
C1008 C1007 1.523 . S
H1009 C984 0.950 . S
H1010 C986 0.950 . S
H1011 C987 0.949 . S
H1012 C989 0.950 . S
H1013 C991 0.950 . S
C1014 C1015 1.349 . S
C1014 C1016 1.327 . S
C1014 H1039 0.950 . S
C1015 C1014 1.349 . S
C1015 C1031 1.349 . S
C1016 C1014 1.327 . S
C1016 C1035 1.429 . S
C1016 H1040 0.950 . S
C1017 C1034 1.574 . S
C1017 C1036 1.368 . S
C1017 H1041 0.949 . S
H1018 C1022 0.949 . S
C1019 C1020 1.349 . S
C1019 C1021 1.327 . S
C1019 H1042 0.950 . S
C1020 C1019 1.349 . S
C1020 C1032 1.349 . S
C1021 C1019 1.327 . S
C1021 C1037 1.429 . S
C1021 H1043 0.950 . S
C1022 H1018 0.949 . S
C1022 C1030 1.574 . S
C1022 C1038 1.368 . S
H1023 C1031 0.950 . S
H1024 C1029 0.950 . S
H1025 C1030 0.949 . S
H1026 C1032 0.950 . S
H1027 C1033 0.950 . S
H1028 C1034 0.949 . S
C1029 H1024 0.950 . S
C1029 C1031 1.327 . S
C1029 C1035 1.429 . S
C1030 C1022 1.574 . S
C1030 H1025 0.949 . S
C1030 C1036 1.368 . S
C1031 C1015 1.349 . S
C1031 H1023 0.950 . S
C1031 C1029 1.327 . S
C1032 C1020 1.349 . S
C1032 H1026 0.950 . S
C1032 C1033 1.327 . S
C1033 H1027 0.950 . S
C1033 C1032 1.327 . S
C1033 C1037 1.429 . S
C1034 C1017 1.574 . S
C1034 H1028 0.949 . S
C1034 C1038 1.368 . S
C1035 C1016 1.429 . S
C1035 C1029 1.429 . S
C1035 C1036 1.523 . S
C1036 C1017 1.368 . S
C1036 C1030 1.368 . S
C1036 C1035 1.523 . S
C1037 C1021 1.429 . S
C1037 C1033 1.429 . S
C1037 C1038 1.523 . S
C1038 C1022 1.368 . S
C1038 C1034 1.368 . S
C1038 C1037 1.523 . S
H1039 C1014 0.950 . S
H1040 C1016 0.950 . S
H1041 C1017 0.949 . S
H1042 C1019 0.950 . S
H1043 C1021 0.950 . S
C1044 C1045 1.349 . S
C1044 C1046 1.327 . S
C1044 H1069 0.950 . S
C1045 C1044 1.349 . S
C1045 C1061 1.349 . S
C1046 C1044 1.327 . S
C1046 C1065 1.429 . S
C1046 H1070 0.950 . S
C1047 C1064 1.574 . S
C1047 C1066 1.368 . S
C1047 H1071 0.949 . S
H1048 C1052 0.949 . S
C1049 C1050 1.349 . S
C1049 C1051 1.327 . S
C1049 H1072 0.950 . S
C1050 C1049 1.349 . S
C1050 C1062 1.349 . S
C1051 C1049 1.327 . S
C1051 C1067 1.429 . S
C1051 H1073 0.950 . S
C1052 H1048 0.949 . S
C1052 C1060 1.574 . S
C1052 C1068 1.368 . S
H1053 C1061 0.950 . S
H1054 C1059 0.950 . S
H1055 C1060 0.949 . S
H1056 C1062 0.950 . S
H1057 C1063 0.950 . S
H1058 C1064 0.949 . S
C1059 H1054 0.950 . S
C1059 C1061 1.327 . S
C1059 C1065 1.429 . S
C1060 C1052 1.574 . S
C1060 H1055 0.949 . S
C1060 C1066 1.368 . S
C1061 C1045 1.349 . S
C1061 H1053 0.950 . S
C1061 C1059 1.327 . S
C1062 C1050 1.349 . S
C1062 H1056 0.950 . S
C1062 C1063 1.327 . S
C1063 H1057 0.950 . S
C1063 C1062 1.327 . S
C1063 C1067 1.429 . S
C1064 C1047 1.574 . S
C1064 H1058 0.949 . S
C1064 C1068 1.368 . S
C1065 C1046 1.429 . S
C1065 C1059 1.429 . S
C1065 C1066 1.523 . S
C1066 C1047 1.368 . S
C1066 C1060 1.368 . S
C1066 C1065 1.523 . S
C1067 C1051 1.429 . S
C1067 C1063 1.429 . S
C1067 C1068 1.523 . S
C1068 C1052 1.368 . S
C1068 C1064 1.368 . S
C1068 C1067 1.523 . S
H1069 C1044 0.950 . S
H1070 C1046 0.950 . S
H1071 C1047 0.949 . S
H1072 C1049 0.950 . S
H1073 C1051 0.950 . S
C1074 C1075 1.349 . S
C1074 C1076 1.327 . S
C1074 H1099 0.950 . S
C1075 C1074 1.349 . S
C1075 C1091 1.349 . S
C1076 C1074 1.327 . S
C1076 C1095 1.429 . S
C1076 H1100 0.950 . S
C1077 C1094 1.574 . S
C1077 C1096 1.368 . S
C1077 H1101 0.949 . S
H1078 C1082 0.949 . S
C1079 C1080 1.349 . S
C1079 C1081 1.327 . S
C1079 H1102 0.950 . S
C1080 C1079 1.349 . S
C1080 C1092 1.349 . S
C1081 C1079 1.327 . S
C1081 C1097 1.429 . S
C1081 H1103 0.950 . S
C1082 H1078 0.949 . S
C1082 C1090 1.574 . S
C1082 C1098 1.368 . S
H1083 C1091 0.950 . S
H1084 C1089 0.950 . S
H1085 C1090 0.949 . S
H1086 C1092 0.950 . S
H1087 C1093 0.950 . S
H1088 C1094 0.949 . S
C1089 H1084 0.950 . S
C1089 C1091 1.327 . S
C1089 C1095 1.429 . S
C1090 C1082 1.574 . S
C1090 H1085 0.949 . S
C1090 C1096 1.368 . S
C1091 C1075 1.349 . S
C1091 H1083 0.950 . S
C1091 C1089 1.327 . S
C1092 C1080 1.349 . S
C1092 H1086 0.950 . S
C1092 C1093 1.327 . S
C1093 H1087 0.950 . S
C1093 C1092 1.327 . S
C1093 C1097 1.429 . S
C1094 C1077 1.574 . S
C1094 H1088 0.949 . S
C1094 C1098 1.368 . S
C1095 C1076 1.429 . S
C1095 C1089 1.429 . S
C1095 C1096 1.523 . S
C1096 C1077 1.368 . S
C1096 C1090 1.368 . S
C1096 C1095 1.523 . S
C1097 C1081 1.429 . S
C1097 C1093 1.429 . S
C1097 C1098 1.523 . S
C1098 C1082 1.368 . S
C1098 C1094 1.368 . S
C1098 C1097 1.523 . S
H1099 C1074 0.950 . S
H1100 C1076 0.950 . S
H1101 C1077 0.949 . S
H1102 C1079 0.950 . S
H1103 C1081 0.950 . S
C1104 C1105 1.349 . S
C1104 C1106 1.327 . S
C1104 H1129 0.950 . S
C1105 C1104 1.349 . S
C1105 C1121 1.349 . S
C1106 C1104 1.327 . S
C1106 C1125 1.429 . S
C1106 H1130 0.950 . S
C1107 C1124 1.574 . S
C1107 C1126 1.368 . S
C1107 H1131 0.949 . S
H1108 C1112 0.949 . S
C1109 C1110 1.349 . S
C1109 C1111 1.327 . S
C1109 H1132 0.950 . S
C1110 C1109 1.349 . S
C1110 C1122 1.349 . S
C1111 C1109 1.327 . S
C1111 C1127 1.429 . S
C1111 H1133 0.950 . S
C1112 H1108 0.949 . S
C1112 C1120 1.574 . S
C1112 C1128 1.368 . S
H1113 C1121 0.950 . S
H1114 C1119 0.950 . S
H1115 C1120 0.949 . S
H1116 C1122 0.950 . S
H1117 C1123 0.950 . S
H1118 C1124 0.949 . S
C1119 H1114 0.950 . S
C1119 C1121 1.327 . S
C1119 C1125 1.429 . S
C1120 C1112 1.574 . S
C1120 H1115 0.949 . S
C1120 C1126 1.368 . S
C1121 C1105 1.349 . S
C1121 H1113 0.950 . S
C1121 C1119 1.327 . S
C1122 C1110 1.349 . S
C1122 H1116 0.950 . S
C1122 C1123 1.327 . S
C1123 H1117 0.950 . S
C1123 C1122 1.327 . S
C1123 C1127 1.429 . S
C1124 C1107 1.574 . S
C1124 H1118 0.949 . S
C1124 C1128 1.368 . S
C1125 C1106 1.429 . S
C1125 C1119 1.429 . S
C1125 C1126 1.523 . S
C1126 C1107 1.368 . S
C1126 C1120 1.368 . S
C1126 C1125 1.523 . S
C1127 C1111 1.429 . S
C1127 C1123 1.429 . S
C1127 C1128 1.523 . S
C1128 C1112 1.368 . S
C1128 C1124 1.368 . S
C1128 C1127 1.523 . S
H1129 C1104 0.950 . S
H1130 C1106 0.950 . S
H1131 C1107 0.949 . S
H1132 C1109 0.950 . S
H1133 C1111 0.950 . S
C1134 C1135 1.349 . S
C1134 C1136 1.327 . S
C1134 H1159 0.950 . S
C1135 C1134 1.349 . S
C1135 C1151 1.349 . S
C1136 C1134 1.327 . S
C1136 C1155 1.429 . S
C1136 H1160 0.950 . S
C1137 C1154 1.574 . S
C1137 C1156 1.368 . S
C1137 H1161 0.949 . S
H1138 C1142 0.949 . S
C1139 C1140 1.349 . S
C1139 C1141 1.327 . S
C1139 H1162 0.950 . S
C1140 C1139 1.349 . S
C1140 C1152 1.349 . S
C1141 C1139 1.327 . S
C1141 C1157 1.429 . S
C1141 H1163 0.950 . S
C1142 H1138 0.949 . S
C1142 C1150 1.574 . S
C1142 C1158 1.368 . S
H1143 C1151 0.950 . S
H1144 C1149 0.950 . S
H1145 C1150 0.949 . S
H1146 C1152 0.950 . S
H1147 C1153 0.950 . S
H1148 C1154 0.949 . S
C1149 H1144 0.950 . S
C1149 C1151 1.327 . S
C1149 C1155 1.429 . S
C1150 C1142 1.574 . S
C1150 H1145 0.949 . S
C1150 C1156 1.368 . S
C1151 C1135 1.349 . S
C1151 H1143 0.950 . S
C1151 C1149 1.327 . S
C1152 C1140 1.349 . S
C1152 H1146 0.950 . S
C1152 C1153 1.327 . S
C1153 H1147 0.950 . S
C1153 C1152 1.327 . S
C1153 C1157 1.429 . S
C1154 C1137 1.574 . S
C1154 H1148 0.949 . S
C1154 C1158 1.368 . S
C1155 C1136 1.429 . S
C1155 C1149 1.429 . S
C1155 C1156 1.523 . S
C1156 C1137 1.368 . S
C1156 C1150 1.368 . S
C1156 C1155 1.523 . S
C1157 C1141 1.429 . S
C1157 C1153 1.429 . S
C1157 C1158 1.523 . S
C1158 C1142 1.368 . S
C1158 C1154 1.368 . S
C1158 C1157 1.523 . S
H1159 C1134 0.950 . S
H1160 C1136 0.950 . S
H1161 C1137 0.949 . S
H1162 C1139 0.950 . S
H1163 C1141 0.950 . S
C1164 C1165 1.349 . S
C1164 C1166 1.327 . S
C1164 H1189 0.950 . S
C1165 C1164 1.349 . S
C1165 C1181 1.349 . S
C1166 C1164 1.327 . S
C1166 C1185 1.429 . S
C1166 H1190 0.950 . S
C1167 C1184 1.574 . S
C1167 C1186 1.368 . S
C1167 H1191 0.949 . S
H1168 C1172 0.949 . S
C1169 C1170 1.349 . S
C1169 C1171 1.327 . S
C1169 H1192 0.950 . S
C1170 C1169 1.349 . S
C1170 C1182 1.349 . S
C1171 C1169 1.327 . S
C1171 C1187 1.429 . S
C1171 H1193 0.950 . S
C1172 H1168 0.949 . S
C1172 C1180 1.574 . S
C1172 C1188 1.368 . S
H1173 C1181 0.950 . S
H1174 C1179 0.950 . S
H1175 C1180 0.949 . S
H1176 C1182 0.950 . S
H1177 C1183 0.950 . S
H1178 C1184 0.949 . S
C1179 H1174 0.950 . S
C1179 C1181 1.327 . S
C1179 C1185 1.429 . S
C1180 C1172 1.574 . S
C1180 H1175 0.949 . S
C1180 C1186 1.368 . S
C1181 C1165 1.349 . S
C1181 H1173 0.950 . S
C1181 C1179 1.327 . S
C1182 C1170 1.349 . S
C1182 H1176 0.950 . S
C1182 C1183 1.327 . S
C1183 H1177 0.950 . S
C1183 C1182 1.327 . S
C1183 C1187 1.429 . S
C1184 C1167 1.574 . S
C1184 H1178 0.949 . S
C1184 C1188 1.368 . S
C1185 C1166 1.429 . S
C1185 C1179 1.429 . S
C1185 C1186 1.523 . S
C1186 C1167 1.368 . S
C1186 C1180 1.368 . S
C1186 C1185 1.523 . S
C1187 C1171 1.429 . S
C1187 C1183 1.429 . S
C1187 C1188 1.523 . S
C1188 C1172 1.368 . S
C1188 C1184 1.368 . S
C1188 C1187 1.523 . S
H1189 C1164 0.950 . S
H1190 C1166 0.950 . S
H1191 C1167 0.949 . S
H1192 C1169 0.950 . S
H1193 C1171 0.950 . S
C1194 C1195 1.349 . S
C1194 C1196 1.327 . S
C1194 H1219 0.950 . S
C1195 C1194 1.349 . S
C1195 C1211 1.349 . S
C1196 C1194 1.327 . S
C1196 C1215 1.429 . S
C1196 H1220 0.950 . S
C1197 C1214 1.574 . S
C1197 C1216 1.368 . S
C1197 H1221 0.949 . S
H1198 C1202 0.949 . S
C1199 C1200 1.349 . S
C1199 C1201 1.327 . S
C1199 H1222 0.950 . S
C1200 C1199 1.349 . S
C1200 C1212 1.349 . S
C1201 C1199 1.327 . S
C1201 C1217 1.429 . S
C1201 H1223 0.950 . S
C1202 H1198 0.949 . S
C1202 C1210 1.574 . S
C1202 C1218 1.368 . S
H1203 C1211 0.950 . S
H1204 C1209 0.950 . S
H1205 C1210 0.949 . S
H1206 C1212 0.950 . S
H1207 C1213 0.950 . S
H1208 C1214 0.949 . S
C1209 H1204 0.950 . S
C1209 C1211 1.327 . S
C1209 C1215 1.429 . S
C1210 C1202 1.574 . S
C1210 H1205 0.949 . S
C1210 C1216 1.368 . S
C1211 C1195 1.349 . S
C1211 H1203 0.950 . S
C1211 C1209 1.327 . S
C1212 C1200 1.349 . S
C1212 H1206 0.950 . S
C1212 C1213 1.327 . S
C1213 H1207 0.950 . S
C1213 C1212 1.327 . S
C1213 C1217 1.429 . S
C1214 C1197 1.574 . S
C1214 H1208 0.949 . S
C1214 C1218 1.368 . S
C1215 C1196 1.429 . S
C1215 C1209 1.429 . S
C1215 C1216 1.523 . S
C1216 C1197 1.368 . S
C1216 C1210 1.368 . S
C1216 C1215 1.523 . S
C1217 C1201 1.429 . S
C1217 C1213 1.429 . S
C1217 C1218 1.523 . S
C1218 C1202 1.368 . S
C1218 C1214 1.368 . S
C1218 C1217 1.523 . S
H1219 C1194 0.950 . S
H1220 C1196 0.950 . S
H1221 C1197 0.949 . S
H1222 C1199 0.950 . S
H1223 C1201 0.950 . S
C1224 C1225 1.349 . S
C1224 C1226 1.327 . S
C1224 H1249 0.950 . S
C1225 C1224 1.349 . S
C1225 C1241 1.349 . S
C1226 C1224 1.327 . S
C1226 C1245 1.429 . S
C1226 H1250 0.950 . S
C1227 C1244 1.574 . S
C1227 C1246 1.368 . S
C1227 H1251 0.949 . S
H1228 C1232 0.949 . S
C1229 C1230 1.349 . S
C1229 C1231 1.327 . S
C1229 H1252 0.950 . S
C1230 C1229 1.349 . S
C1230 C1242 1.349 . S
C1231 C1229 1.327 . S
C1231 C1247 1.429 . S
C1231 H1253 0.950 . S
C1232 H1228 0.949 . S
C1232 C1240 1.574 . S
C1232 C1248 1.368 . S
H1233 C1241 0.950 . S
H1234 C1239 0.950 . S
H1235 C1240 0.949 . S
H1236 C1242 0.950 . S
H1237 C1243 0.950 . S
H1238 C1244 0.949 . S
C1239 H1234 0.950 . S
C1239 C1241 1.327 . S
C1239 C1245 1.429 . S
C1240 C1232 1.574 . S
C1240 H1235 0.949 . S
C1240 C1246 1.368 . S
C1241 C1225 1.349 . S
C1241 H1233 0.950 . S
C1241 C1239 1.327 . S
C1242 C1230 1.349 . S
C1242 H1236 0.950 . S
C1242 C1243 1.327 . S
C1243 H1237 0.950 . S
C1243 C1242 1.327 . S
C1243 C1247 1.429 . S
C1244 C1227 1.574 . S
C1244 H1238 0.949 . S
C1244 C1248 1.368 . S
C1245 C1226 1.429 . S
C1245 C1239 1.429 . S
C1245 C1246 1.523 . S
C1246 C1227 1.368 . S
C1246 C1240 1.368 . S
C1246 C1245 1.523 . S
C1247 C1231 1.429 . S
C1247 C1243 1.429 . S
C1247 C1248 1.523 . S
C1248 C1232 1.368 . S
C1248 C1244 1.368 . S
C1248 C1247 1.523 . S
H1249 C1224 0.950 . S
H1250 C1226 0.950 . S
H1251 C1227 0.949 . S
H1252 C1229 0.950 . S
H1253 C1231 0.950 . S
C1254 C1255 1.349 . S
C1254 C1256 1.327 . S
C1254 H1279 0.950 . S
C1255 C1254 1.349 . S
C1255 C1271 1.349 . S
C1256 C1254 1.327 . S
C1256 C1275 1.429 . S
C1256 H1280 0.950 . S
C1257 C1274 1.574 . S
C1257 C1276 1.368 . S
C1257 H1281 0.949 . S
H1258 C1262 0.949 . S
C1259 C1260 1.349 . S
C1259 C1261 1.327 . S
C1259 H1282 0.950 . S
C1260 C1259 1.349 . S
C1260 C1272 1.349 . S
C1261 C1259 1.327 . S
C1261 C1277 1.429 . S
C1261 H1283 0.950 . S
C1262 H1258 0.949 . S
C1262 C1270 1.574 . S
C1262 C1278 1.368 . S
H1263 C1271 0.950 . S
H1264 C1269 0.950 . S
H1265 C1270 0.949 . S
H1266 C1272 0.950 . S
H1267 C1273 0.950 . S
H1268 C1274 0.949 . S
C1269 H1264 0.950 . S
C1269 C1271 1.327 . S
C1269 C1275 1.429 . S
C1270 C1262 1.574 . S
C1270 H1265 0.949 . S
C1270 C1276 1.368 . S
C1271 C1255 1.349 . S
C1271 H1263 0.950 . S
C1271 C1269 1.327 . S
C1272 C1260 1.349 . S
C1272 H1266 0.950 . S
C1272 C1273 1.327 . S
C1273 H1267 0.950 . S
C1273 C1272 1.327 . S
C1273 C1277 1.429 . S
C1274 C1257 1.574 . S
C1274 H1268 0.949 . S
C1274 C1278 1.368 . S
C1275 C1256 1.429 . S
C1275 C1269 1.429 . S
C1275 C1276 1.523 . S
C1276 C1257 1.368 . S
C1276 C1270 1.368 . S
C1276 C1275 1.523 . S
C1277 C1261 1.429 . S
C1277 C1273 1.429 . S
C1277 C1278 1.523 . S
C1278 C1262 1.368 . S
C1278 C1274 1.368 . S
C1278 C1277 1.523 . S
H1279 C1254 0.950 . S
H1280 C1256 0.950 . S
H1281 C1257 0.949 . S
H1282 C1259 0.950 . S
H1283 C1261 0.950 . S
C1284 C1285 1.349 . S
C1284 C1286 1.327 . S
C1284 H1309 0.950 . S
C1285 C1284 1.349 . S
C1285 C1301 1.349 . S
C1286 C1284 1.327 . S
C1286 C1305 1.429 . S
C1286 H1310 0.950 . S
C1287 C1304 1.574 . S
C1287 C1306 1.368 . S
C1287 H1311 0.949 . S
H1288 C1292 0.949 . S
C1289 C1290 1.349 . S
C1289 C1291 1.327 . S
C1289 H1312 0.950 . S
C1290 C1289 1.349 . S
C1290 C1302 1.349 . S
C1291 C1289 1.327 . S
C1291 C1307 1.429 . S
C1291 H1313 0.950 . S
C1292 H1288 0.949 . S
C1292 C1300 1.574 . S
C1292 C1308 1.368 . S
H1293 C1301 0.950 . S
H1294 C1299 0.950 . S
H1295 C1300 0.949 . S
H1296 C1302 0.950 . S
H1297 C1303 0.950 . S
H1298 C1304 0.949 . S
C1299 H1294 0.950 . S
C1299 C1301 1.327 . S
C1299 C1305 1.429 . S
C1300 C1292 1.574 . S
C1300 H1295 0.949 . S
C1300 C1306 1.368 . S
C1301 C1285 1.349 . S
C1301 H1293 0.950 . S
C1301 C1299 1.327 . S
C1302 C1290 1.349 . S
C1302 H1296 0.950 . S
C1302 C1303 1.327 . S
C1303 H1297 0.950 . S
C1303 C1302 1.327 . S
C1303 C1307 1.429 . S
C1304 C1287 1.574 . S
C1304 H1298 0.949 . S
C1304 C1308 1.368 . S
C1305 C1286 1.429 . S
C1305 C1299 1.429 . S
C1305 C1306 1.523 . S
C1306 C1287 1.368 . S
C1306 C1300 1.368 . S
C1306 C1305 1.523 . S
C1307 C1291 1.429 . S
C1307 C1303 1.429 . S
C1307 C1308 1.523 . S
C1308 C1292 1.368 . S
C1308 C1304 1.368 . S
C1308 C1307 1.523 . S
H1309 C1284 0.950 . S
H1310 C1286 0.950 . S
H1311 C1287 0.949 . S
H1312 C1289 0.950 . S
H1313 C1291 0.950 . S
C1314 C1315 1.349 . S
C1314 C1316 1.327 . S
C1314 H1339 0.950 . S
C1315 C1314 1.349 . S
C1315 C1331 1.349 . S
C1316 C1314 1.327 . S
C1316 C1335 1.429 . S
C1316 H1340 0.950 . S
C1317 C1334 1.574 . S
C1317 C1336 1.368 . S
C1317 H1341 0.949 . S
H1318 C1322 0.949 . S
C1319 C1320 1.349 . S
C1319 C1321 1.327 . S
C1319 H1342 0.950 . S
C1320 C1319 1.349 . S
C1320 C1332 1.349 . S
C1321 C1319 1.327 . S
C1321 C1337 1.429 . S
C1321 H1343 0.950 . S
C1322 H1318 0.949 . S
C1322 C1330 1.574 . S
C1322 C1338 1.368 . S
H1323 C1331 0.950 . S
H1324 C1329 0.950 . S
H1325 C1330 0.949 . S
H1326 C1332 0.950 . S
H1327 C1333 0.950 . S
H1328 C1334 0.949 . S
C1329 H1324 0.950 . S
C1329 C1331 1.327 . S
C1329 C1335 1.429 . S
C1330 C1322 1.574 . S
C1330 H1325 0.949 . S
C1330 C1336 1.368 . S
C1331 C1315 1.349 . S
C1331 H1323 0.950 . S
C1331 C1329 1.327 . S
C1332 C1320 1.349 . S
C1332 H1326 0.950 . S
C1332 C1333 1.327 . S
C1333 H1327 0.950 . S
C1333 C1332 1.327 . S
C1333 C1337 1.429 . S
C1334 C1317 1.574 . S
C1334 H1328 0.949 . S
C1334 C1338 1.368 . S
C1335 C1316 1.429 . S
C1335 C1329 1.429 . S
C1335 C1336 1.523 . S
C1336 C1317 1.368 . S
C1336 C1330 1.368 . S
C1336 C1335 1.523 . S
C1337 C1321 1.429 . S
C1337 C1333 1.429 . S
C1337 C1338 1.523 . S
C1338 C1322 1.368 . S
C1338 C1334 1.368 . S
C1338 C1337 1.523 . S
H1339 C1314 0.950 . S
H1340 C1316 0.950 . S
H1341 C1317 0.949 . S
H1342 C1319 0.950 . S
H1343 C1321 0.950 . S
C1344 C1345 1.349 . S
C1344 C1346 1.327 . S
C1344 H1369 0.950 . S
C1345 C1344 1.349 . S
C1345 C1361 1.349 . S
C1346 C1344 1.327 . S
C1346 C1365 1.429 . S
C1346 H1370 0.950 . S
C1347 C1364 1.574 1_545 S
C1347 C1366 1.368 . S
C1347 H1371 0.949 1_545 S
H1348 C1352 0.949 . S
C1349 C1350 1.349 . S
C1349 C1351 1.327 . S
C1349 H1372 0.950 . S
C1350 C1349 1.349 . S
C1350 C1362 1.349 . S
C1351 C1349 1.327 . S
C1351 C1367 1.429 . S
C1351 H1373 0.950 . S
C1352 H1348 0.949 . S
C1352 C1360 1.574 . S
C1352 C1368 1.371 . S
H1353 C1361 0.950 . S
H1354 C1359 0.950 . S
H1355 C1360 0.949 . S
H1356 C1362 0.950 . S
H1357 C1363 0.950 1_545 S
H1358 C1364 0.949 . S
C1359 H1354 0.950 . S
C1359 C1361 1.327 . S
C1359 C1365 1.429 . S
C1360 C1352 1.574 . S
C1360 H1355 0.949 . S
C1360 C1366 1.368 . S
C1361 C1345 1.349 . S
C1361 H1353 0.950 . S
C1361 C1359 1.327 . S
C1362 C1350 1.349 . S
C1362 H1356 0.950 . S
C1362 C1363 1.323 . S
C1363 H1357 0.950 1_565 S
C1363 C1362 1.323 . S
C1363 C1367 1.433 . S
C1364 C1347 1.574 1_565 S
C1364 H1358 0.949 . S
C1364 C1368 1.357 1_565 S
C1365 C1346 1.429 . S
C1365 C1359 1.429 . S
C1365 C1366 1.523 . S
C1366 C1347 1.368 . S
C1366 C1360 1.368 . S
C1366 C1365 1.523 . S
C1367 C1351 1.429 . S
C1367 C1363 1.433 . S
C1367 C1368 1.538 1_565 S
C1368 C1352 1.371 . S
C1368 C1364 1.357 1_545 S
C1368 C1367 1.538 1_545 S
H1369 C1344 0.950 . S
H1370 C1346 0.950 . S
H1371 C1347 0.949 1_565 S
H1372 C1349 0.950 . S
H1373 C1351 0.950 . S
C1374 C1375 1.349 . S
C1374 C1376 1.327 1_455 S
C1374 H1399 0.950 1_455 S
C1375 C1374 1.349 . S
C1375 C1391 1.349 . S
C1376 C1374 1.327 1_655 S
C1376 C1395 1.429 1_655 S
C1376 H1400 0.950 . S
C1377 C1394 1.574 . S
C1377 C1396 1.368 . S
C1377 H1401 0.949 . S
H1378 C1382 0.949 . S
C1379 C1380 1.349 1_455 S
C1379 C1381 1.327 . S
C1379 H1402 0.950 . S
C1380 C1379 1.349 1_655 S
C1380 C1392 1.349 . S
C1381 C1379 1.327 . S
C1381 C1397 1.429 1_455 S
C1381 H1403 0.950 . S
C1382 H1378 0.949 . S
C1382 C1390 1.574 . S
C1382 C1398 1.365 1_655 S
H1383 C1391 0.950 . S
H1384 C1389 0.950 . S
H1385 C1390 0.949 . S
H1386 C1392 0.950 . S
H1387 C1393 0.950 . S
H1388 C1394 0.949 . S
C1389 H1384 0.950 . S
C1389 C1391 1.327 . S
C1389 C1395 1.429 . S
C1390 C1382 1.574 . S
C1390 H1385 0.949 . S
C1390 C1396 1.368 1_655 S
C1391 C1375 1.349 . S
C1391 H1383 0.950 . S
C1391 C1389 1.327 . S
C1392 C1380 1.349 . S
C1392 H1386 0.950 . S
C1392 C1393 1.327 . S
C1393 H1387 0.950 . S
C1393 C1392 1.327 . S
C1393 C1397 1.429 . S
C1394 C1377 1.574 . S
C1394 H1388 0.949 . S
C1394 C1398 1.375 . S
C1395 C1376 1.429 1_455 S
C1395 C1389 1.429 . S
C1395 C1396 1.523 . S
C1396 C1377 1.368 . S
C1396 C1390 1.368 1_455 S
C1396 C1395 1.523 . S
C1397 C1381 1.429 1_655 S
C1397 C1393 1.429 . S
C1397 C1398 1.518 1_655 S
C1398 C1382 1.365 1_455 S
C1398 C1394 1.375 . S
C1398 C1397 1.518 1_455 S
H1399 C1374 0.950 1_655 S
H1400 C1376 0.950 . S
H1401 C1377 0.949 . S
H1402 C1379 0.950 . S
H1403 C1381 0.950 . S
C1404 C1405 1.349 . S
C1404 C1406 1.327 . S
C1404 H1429 0.950 . S
C1405 C1404 1.349 . S
C1405 C1421 1.349 . S
C1406 C1404 1.327 . S
C1406 C1425 1.429 . S
C1406 H1430 0.950 . S
C1407 C1424 1.574 . S
C1407 C1426 1.368 1_554 S
C1407 H1431 0.949 . S
H1408 C1412 0.949 . S
C1409 C1410 1.349 . S
C1409 C1411 1.327 . S
C1409 H1432 0.950 . S
C1410 C1409 1.349 . S
C1410 C1422 1.349 . S
C1411 C1409 1.327 . S
C1411 C1427 1.429 . S
C1411 H1433 0.950 . S
C1412 H1408 0.949 . S
C1412 C1420 1.574 . S
C1412 C1428 1.368 1_556 S
H1413 C1421 0.950 . S
H1414 C1419 0.950 . S
H1415 C1420 0.949 . S
H1416 C1422 0.950 . S
H1417 C1423 0.950 . S
H1418 C1424 0.949 . S
C1419 H1414 0.950 . S
C1419 C1421 1.327 . S
C1419 C1425 1.429 . S
C1420 C1412 1.574 . S
C1420 H1415 0.949 . S
C1420 C1426 1.368 . S
C1421 C1405 1.349 . S
C1421 H1413 0.950 . S
C1421 C1419 1.327 . S
C1422 C1410 1.349 . S
C1422 H1416 0.950 . S
C1422 C1423 1.327 . S
C1423 H1417 0.950 . S
C1423 C1422 1.327 . S
C1423 C1427 1.429 . S
C1424 C1407 1.574 . S
C1424 H1418 0.949 . S
C1424 C1428 1.368 . S
C1425 C1406 1.429 . S
C1425 C1419 1.429 . S
C1425 C1426 1.523 . S
C1426 C1407 1.368 1_556 S
C1426 C1420 1.368 . S
C1426 C1425 1.523 . S
C1427 C1411 1.429 . S
C1427 C1423 1.429 . S
C1427 C1428 1.523 . S
C1428 C1412 1.368 1_554 S
C1428 C1424 1.368 . S
C1428 C1427 1.523 . S
H1429 C1404 0.950 . S
H1430 C1406 0.950 . S
H1431 C1407 0.949 . S
H1432 C1409 0.950 . S
H1433 C1411 0.950 . S
C1434 C1435 1.349 . S
C1434 C1436 1.327 . S
C1434 H1459 0.950 . S
C1435 C1434 1.349 . S
C1435 C1451 1.349 . S
C1436 C1434 1.327 . S
C1436 C1455 1.429 . S
C1436 H1460 0.950 1_556 S
C1437 C1454 1.574 . S
C1437 C1456 1.398 . S
C1437 H1461 0.949 . S
H1438 C1442 0.949 . S
C1439 C1440 1.349 . S
C1439 C1441 1.327 . S
C1439 H1462 0.950 . S
C1440 C1439 1.349 . S
C1440 C1452 1.349 . S
C1441 C1439 1.327 . S
C1441 C1457 1.429 . S
C1441 H1463 0.950 1_554 S
C1442 H1438 0.949 . S
C1442 C1450 1.574 . S
C1442 C1458 1.368 1_565 S
H1443 C1451 0.950 1_545 S
H1444 C1449 0.950 . S
H1445 C1450 0.949 . S
H1446 C1452 0.950 . S
H1447 C1453 0.950 . S
H1448 C1454 0.949 . S
C1449 H1444 0.950 . S
C1449 C1451 1.327 1_545 S
C1449 C1455 1.429 1_545 S
C1450 C1442 1.574 . S
C1450 H1445 0.949 . S
C1450 C1456 1.358 1_564 S
C1451 C1435 1.349 . S
C1451 H1443 0.950 1_565 S
C1451 C1449 1.327 1_565 S
C1452 C1440 1.349 . S
C1452 H1446 0.950 . S
C1452 C1453 1.327 . S
C1453 H1447 0.950 . S
C1453 C1452 1.327 . S
C1453 C1457 1.429 . S
C1454 C1437 1.574 . S
C1454 H1448 0.949 . S
C1454 C1458 1.368 1_556 S
C1455 C1436 1.429 . S
C1455 C1449 1.429 1_565 S
C1455 C1456 1.498 1_565 S
C1456 C1437 1.398 . S
C1456 C1450 1.358 1_546 S
C1456 C1455 1.498 1_545 S
C1457 C1441 1.429 . S
C1457 C1453 1.429 . S
C1457 C1458 1.523 . S
C1458 C1442 1.368 1_545 S
C1458 C1454 1.368 1_554 S
C1458 C1457 1.523 . S
H1459 C1434 0.950 . S
H1460 C1436 0.950 1_554 S
H1461 C1437 0.949 . S
H1462 C1439 0.950 . S
H1463 C1441 0.950 1_556 S
C1464 C1465 1.349 . S
C1464 C1466 1.327 . S
C1464 H1489 0.950 . S
C1465 C1464 1.349 . S
C1465 C1481 1.349 . S
C1466 C1464 1.327 . S
C1466 C1485 1.429 . S
C1466 H1490 0.950 . S
C1467 C1484 1.576 1_556 S
C1467 C1486 1.366 1_655 S
C1467 H1491 0.949 . S
H1468 C1472 0.951 . S
C1469 C1470 1.349 . S
C1469 C1471 1.327 . S
C1469 H1492 0.950 . S
C1470 C1469 1.349 . S
C1470 C1482 1.349 1_655 S
C1471 C1469 1.327 . S
C1471 C1487 1.429 . S
C1471 H1493 0.950 . S
C1472 H1468 0.951 . S
C1472 C1480 1.556 1_554 S
C1472 C1488 1.387 . S
H1473 C1481 0.950 1_655 S
H1474 C1479 0.955 . S
H1475 C1480 0.949 . S
H1476 C1482 0.950 . S
H1477 C1483 0.950 . S
H1478 C1484 0.949 . S
C1479 H1474 0.955 . S
C1479 C1481 1.329 1_655 S
C1479 C1485 1.422 1_655 S
C1480 C1472 1.556 1_556 S
C1480 H1475 0.949 . S
C1480 C1486 1.368 . S
C1481 C1465 1.349 . S
C1481 H1473 0.950 1_455 S
C1481 C1479 1.329 1_455 S
C1482 C1470 1.349 1_455 S
C1482 H1476 0.950 . S
C1482 C1483 1.327 . S
C1483 H1477 0.950 . S
C1483 C1482 1.327 . S
C1483 C1487 1.429 1_455 S
C1484 C1467 1.576 1_554 S
C1484 H1478 0.949 . S
C1484 C1488 1.366 1_655 S
C1485 C1466 1.429 . S
C1485 C1479 1.422 1_455 S
C1485 C1486 1.523 . S
C1486 C1467 1.366 1_455 S
C1486 C1480 1.368 . S
C1486 C1485 1.523 . S
C1487 C1471 1.429 . S
C1487 C1483 1.429 1_655 S
C1487 C1488 1.524 1_655 S
C1488 C1472 1.387 . S
C1488 C1484 1.366 1_455 S
C1488 C1487 1.524 1_455 S
H1489 C1464 0.950 . S
H1490 C1466 0.950 . S
H1491 C1467 0.949 . S
H1492 C1469 0.950 . S
H1493 C1471 0.950 . S
C415 C7 1.753 . S
C420 C338 1.716 . S
C445 C292 1.674 . S
C450 C39 1.676 . S
C475 C53 1.796 . S
C480 C306 1.795 . S
C505 C154 1.677 . S
C510 C62 1.676 . S
C535 C177 1.675 . S
C540 C16 1.674 . S
C565 C200 1.708 . S
C570 C30 1.744 . S
C595 C76 1.738 . S
C600 C269 1.702 . S
C625 C223 1.671 . S
C630 C108 1.671 . S
C655 C246 1.705 . S
C660 C122 1.741 . S
C685 C131 1.717 . S
C690 C352 1.752 . S
C715 C85 1.675 . S
C720 C384 1.675 . S
C745 C398 1.795 . S
C750 C99 1.795 . S
C775 C283 1.794 . S
C780 C191 1.793 . S
C805 C145 1.762 . S
C810 C315 1.725 . S
C835 C329 1.796 . S
C840 C168 1.796 . S
C865 C407 1.730 . S
C870 C214 1.767 . S
C895 C237 1.765 . S
C900 C361 1.729 . S
C925 C375 1.799 . S
C930 C260 1.799 . S
C955 N347 1.549 . S
C960 N2 1.549 . S
C985 N35 1.579 . S
C990 N380 1.579 . S
C1015 N48 1.541 . S
C1020 N393 1.541 . S
C1045 N58 1.570 . S
C1050 N265 1.571 . S
C1075 N219 1.576 . S
C1080 N12 1.576 . S
C1105 N25 1.531 . S
C1110 N242 1.584 . S
C1135 N150 1.584 . S
C1140 N71 1.532 . S
C1165 N173 1.570 . S
C1170 N104 1.570 . S
C1195 N117 1.527 . S
C1200 N196 1.579 . S
C1225 N127 1.560 . S
C1230 N334 1.560 . S
C1255 N81 1.568 . S
C1260 N288 1.568 . S
C1285 N94 1.531 . S
C1290 N301 1.532 . S
C1315 N186 1.525 . S
C1320 N403 1.576 . S
C1345 N140 1.530 . S
C1350 N357 1.582 . S
C1375 N370 1.537 . S
C1380 N163 1.537 . S
C1405 N278 1.538 . S
C1410 N209 1.537 . S
C1435 N311 1.576 . S
C1440 N232 1.525 . S
C1465 N324 1.533 . S
C1470 N255 1.533 . S
