# Generated by pormake.
# Topology cbo, (4)-cn, num edge types: 1
# Building blocks:
#     Node 0, Type 0, BuildingBlock: CEKHIL_clean_sbu_0, # of connection points: 4
#     Node 1, Type 0, BuildingBlock: CEKHIL_clean_sbu_0, # of connection points: 4
#     Node 2, Type 0, BuildingBlock: CEKHIL_clean_sbu_0, # of connection points: 4
#     Node 3, Type 0, BuildingBlock: CEKHIL_clean_sbu_0, # of connection points: 4
#     Node 4, Type 0, BuildingBlock: CEKHIL_clean_sbu_0, # of connection points: 4
#     Node 5, Type 0, BuildingBlock: CEKHIL_clean_sbu_0, # of connection points: 4
#     Node 6, Type 0, BuildingBlock: CEKHIL_clean_sbu_0, # of connection points: 4
#     Node 7, Type 0, BuildingBlock: CEKHIL_clean_sbu_0, # of connection points: 4
#     Node 8, Type 0, BuildingBlock: CEKHIL_clean_sbu_0, # of connection points: 4
#     Node 9, Type 0, BuildingBlock: CEKHIL_clean_sbu_0, # of connection points: 4
#     Node 10, Type 0, BuildingBlock: CEKHIL_clean_sbu_0, # of connection points: 4
#     Node 11, Type 0, BuildingBlock: CEKHIL_clean_sbu_0, # of connection points: 4
#     Node 12, Type 0, BuildingBlock: CEKHIL_clean_sbu_0, # of connection points: 4
#     Node 13, Type 0, BuildingBlock: CEKHIL_clean_sbu_0, # of connection points: 4
#     Node 14, Type 0, BuildingBlock: CEKHIL_clean_sbu_0, # of connection points: 4
#     Node 15, Type 0, BuildingBlock: CEKHIL_clean_sbu_0, # of connection points: 4
#     Node 16, Type 0, BuildingBlock: CEKHIL_clean_sbu_0, # of connection points: 4
#     Node 17, Type 0, BuildingBlock: CEKHIL_clean_sbu_0, # of connection points: 4
#     Node 18, Type 0, BuildingBlock: CEKHIL_clean_sbu_0, # of connection points: 4
#     Node 19, Type 0, BuildingBlock: CEKHIL_clean_sbu_0, # of connection points: 4
#     Node 20, Type 0, BuildingBlock: CEKHIL_clean_sbu_0, # of connection points: 4
#     Node 21, Type 0, BuildingBlock: CEKHIL_clean_sbu_0, # of connection points: 4
#     Node 22, Type 0, BuildingBlock: CEKHIL_clean_sbu_0, # of connection points: 4
#     Node 23, Type 0, BuildingBlock: CEKHIL_clean_sbu_0, # of connection points: 4
#     Edge 24, Type (0, 0), BuildingBlock: CIFDUS_clean_linker_0, # of connection points: 2
#     Edge 25, Type (0, 0), BuildingBlock: CIFDUS_clean_linker_0, # of connection points: 2
#     Edge 26, Type (0, 0), BuildingBlock: CIFDUS_clean_linker_0, # of connection points: 2
#     Edge 27, Type (0, 0), BuildingBlock: CIFDUS_clean_linker_0, # of connection points: 2
#     Edge 28, Type (0, 0), BuildingBlock: CIFDUS_clean_linker_0, # of connection points: 2
#     Edge 29, Type (0, 0), BuildingBlock: CIFDUS_clean_linker_0, # of connection points: 2
#     Edge 30, Type (0, 0), BuildingBlock: CIFDUS_clean_linker_0, # of connection points: 2
#     Edge 31, Type (0, 0), BuildingBlock: CIFDUS_clean_linker_0, # of connection points: 2
#     Edge 32, Type (0, 0), BuildingBlock: CIFDUS_clean_linker_0, # of connection points: 2
#     Edge 33, Type (0, 0), BuildingBlock: CIFDUS_clean_linker_0, # of connection points: 2
#     Edge 34, Type (0, 0), BuildingBlock: CIFDUS_clean_linker_0, # of connection points: 2
#     Edge 35, Type (0, 0), BuildingBlock: CIFDUS_clean_linker_0, # of connection points: 2
#     Edge 36, Type (0, 0), BuildingBlock: CIFDUS_clean_linker_0, # of connection points: 2
#     Edge 37, Type (0, 0), BuildingBlock: CIFDUS_clean_linker_0, # of connection points: 2
#     Edge 38, Type (0, 0), BuildingBlock: CIFDUS_clean_linker_0, # of connection points: 2
#     Edge 39, Type (0, 0), BuildingBlock: CIFDUS_clean_linker_0, # of connection points: 2
#     Edge 40, Type (0, 0), BuildingBlock: CIFDUS_clean_linker_0, # of connection points: 2
#     Edge 41, Type (0, 0), BuildingBlock: CIFDUS_clean_linker_0, # of connection points: 2
#     Edge 42, Type (0, 0), BuildingBlock: CIFDUS_clean_linker_0, # of connection points: 2
#     Edge 43, Type (0, 0), BuildingBlock: CIFDUS_clean_linker_0, # of connection points: 2
#     Edge 44, Type (0, 0), BuildingBlock: CIFDUS_clean_linker_0, # of connection points: 2
#     Edge 45, Type (0, 0), BuildingBlock: CIFDUS_clean_linker_0, # of connection points: 2
#     Edge 46, Type (0, 0), BuildingBlock: CIFDUS_clean_linker_0, # of connection points: 2
#     Edge 47, Type (0, 0), BuildingBlock: CIFDUS_clean_linker_0, # of connection points: 2
#     Edge 48, Type (0, 0), BuildingBlock: CIFDUS_clean_linker_0, # of connection points: 2
#     Edge 49, Type (0, 0), BuildingBlock: CIFDUS_clean_linker_0, # of connection points: 2
#     Edge 50, Type (0, 0), BuildingBlock: CIFDUS_clean_linker_0, # of connection points: 2
#     Edge 51, Type (0, 0), BuildingBlock: CIFDUS_clean_linker_0, # of connection points: 2
#     Edge 52, Type (0, 0), BuildingBlock: CIFDUS_clean_linker_0, # of connection points: 2
#     Edge 53, Type (0, 0), BuildingBlock: CIFDUS_clean_linker_0, # of connection points: 2
#     Edge 54, Type (0, 0), BuildingBlock: CIFDUS_clean_linker_0, # of connection points: 2
#     Edge 55, Type (0, 0), BuildingBlock: CIFDUS_clean_linker_0, # of connection points: 2
#     Edge 56, Type (0, 0), BuildingBlock: CIFDUS_clean_linker_0, # of connection points: 2
#     Edge 57, Type (0, 0), BuildingBlock: CIFDUS_clean_linker_0, # of connection points: 2
#     Edge 58, Type (0, 0), BuildingBlock: CIFDUS_clean_linker_0, # of connection points: 2
#     Edge 59, Type (0, 0), BuildingBlock: CIFDUS_clean_linker_0, # of connection points: 2
#     Edge 60, Type (0, 0), BuildingBlock: CIFDUS_clean_linker_0, # of connection points: 2
#     Edge 61, Type (0, 0), BuildingBlock: CIFDUS_clean_linker_0, # of connection points: 2
#     Edge 62, Type (0, 0), BuildingBlock: CIFDUS_clean_linker_0, # of connection points: 2
#     Edge 63, Type (0, 0), BuildingBlock: CIFDUS_clean_linker_0, # of connection points: 2
#     Edge 64, Type (0, 0), BuildingBlock: CIFDUS_clean_linker_0, # of connection points: 2
#     Edge 65, Type (0, 0), BuildingBlock: CIFDUS_clean_linker_0, # of connection points: 2
#     Edge 66, Type (0, 0), BuildingBlock: CIFDUS_clean_linker_0, # of connection points: 2
#     Edge 67, Type (0, 0), BuildingBlock: CIFDUS_clean_linker_0, # of connection points: 2
#     Edge 68, Type (0, 0), BuildingBlock: CIFDUS_clean_linker_0, # of connection points: 2
#     Edge 69, Type (0, 0), BuildingBlock: CIFDUS_clean_linker_0, # of connection points: 2
#     Edge 70, Type (0, 0), BuildingBlock: CIFDUS_clean_linker_0, # of connection points: 2
#     Edge 71, Type (0, 0), BuildingBlock: CIFDUS_clean_linker_0, # of connection points: 2
# Relax obj value: 0.197
# Max RMSD: 0.203
# Mean RMSD: 0.197
data_MOF--net-cbo--node1-CEKHIL_clean_sbu_0--edge1-CIFDUS_clean_linker_0
_symmetry_space_group_name_H-M    P1
_symmetry_Int_Tables_number       1
_symmetry_cell_setting            triclinic
loop_
_symmetry_equiv_pos_as_xyz
'x, y, z'
_cell_length_a     45.461411
_cell_length_b     45.035244
_cell_length_c     44.420496
_cell_angle_alpha  90.07469
_cell_angle_beta   89.985792
_cell_angle_gamma 90.000376
loop_
_atom_site_label
_atom_site_type_symbol
_atom_site_fract_x
_atom_site_fract_y
_atom_site_fract_z
_atom_type_partial_charge
Co0 Co 0.09866 0.17565 0.31854 0.0
O1 O 0.05953 0.18768 0.32899 0.0
O2 O 0.07175 0.14223 0.31442 0.0
C3 C 0.10974 0.21468 0.28926 0.0
O4 O 0.13756 0.15625 0.30517 0.0
Co5 Co 0.15074 0.21586 0.34017 0.0
O6 O 0.17421 0.18885 0.31478 0.0
C7 C 0.12033 0.17741 0.38347 0.0
C8 C 0.0515 0.16061 0.32361 0.0
C9 C 0.16483 0.16444 0.30386 0.0
O10 O 0.1057 0.16508 0.36208 0.0
O11 O 0.1379 0.19924 0.37968 0.0
O12 O 0.09466 0.19262 0.27837 0.0
O13 O 0.11427 0.21394 0.31792 0.0
Co14 Co 0.41557 0.82077 0.81125 0.0
O15 O 0.45711 0.81851 0.81844 0.0
O16 O 0.4321 0.86052 0.81335 0.0
C17 C 0.41326 0.78646 0.77421 0.0
O18 O 0.37255 0.83086 0.80276 0.0
Co19 Co 0.3776 0.76467 0.82491 0.0
O20 O 0.34545 0.78914 0.80795 0.0
C21 C 0.40058 0.80056 0.87482 0.0
C22 C 0.45716 0.84726 0.81783 0.0
C23 C 0.34793 0.81661 0.80147 0.0
O24 O 0.40808 0.82104 0.85616 0.0
O25 O 0.39108 0.77508 0.86652 0.0
O26 O 0.42141 0.81347 0.76829 0.0
O27 O 0.41054 0.78038 0.80249 0.0
Co28 Co 0.5968 0.31874 0.67718 0.0
O29 O 0.55611 0.31264 0.6674 0.0
O30 O 0.57495 0.35576 0.6816 0.0
C31 C 0.60229 0.27888 0.70737 0.0
O32 O 0.63815 0.33229 0.68988 0.0
Co33 Co 0.64214 0.27074 0.65596 0.0
O34 O 0.66975 0.29474 0.68016 0.0
C35 C 0.61877 0.3137 0.61237 0.0
C36 C 0.55197 0.34049 0.67338 0.0
C37 C 0.66406 0.32042 0.69076 0.0
O38 O 0.60545 0.32795 0.63347 0.0
O39 O 0.6327 0.28937 0.61633 0.0
O40 O 0.59058 0.30315 0.71766 0.0
O41 O 0.60668 0.27834 0.67865 0.0
Co42 Co 0.90367 0.68088 0.1703 0.0
O43 O 0.94531 0.68561 0.16692 0.0
O44 O 0.92186 0.64247 0.16336 0.0
C45 C 0.89797 0.70989 0.21115 0.0
O46 O 0.86072 0.66829 0.17465 0.0
Co47 Co 0.86446 0.73684 0.16132 0.0
O48 O 0.83284 0.70976 0.17515 0.0
C49 C 0.89301 0.70934 0.10924 0.0
C50 C 0.94655 0.65713 0.16312 0.0
C51 C 0.83583 0.68172 0.17786 0.0
O52 O 0.89922 0.68655 0.12544 0.0
O53 O 0.88202 0.73323 0.12008 0.0
O54 O 0.90651 0.68252 0.21419 0.0
O55 O 0.89659 0.71943 0.18378 0.0
Co56 Co 0.31465 0.08902 0.15559 0.0
O57 O 0.32355 0.04757 0.15918 0.0
O58 O 0.31856 0.07177 0.1159 0.0
C59 C 0.27724 0.09091 0.18894 0.0
O60 O 0.30448 0.13128 0.14343 0.0
Co61 Co 0.32522 0.13018 0.21034 0.0
O62 O 0.30665 0.16085 0.1843 0.0
C63 C 0.37577 0.10657 0.17749 0.0
C64 C 0.32378 0.04704 0.12998 0.0
C65 C 0.30095 0.15656 0.15651 0.0
O66 O 0.35813 0.0985 0.15638 0.0
O67 O 0.36686 0.11678 0.20279 0.0
O68 O 0.27287 0.08151 0.16165 0.0
O69 O 0.30455 0.09507 0.19619 0.0
Co70 Co 0.18067 0.89594 0.6781 0.0
O71 O 0.17548 0.93791 0.68106 0.0
O72 O 0.17492 0.91236 0.63821 0.0
C73 C 0.21993 0.89316 0.70867 0.0
O74 O 0.18737 0.85249 0.66718 0.0
Co75 Co 0.17073 0.85826 0.73549 0.0
O76 O 0.18687 0.82581 0.71013 0.0
C77 C 0.11973 0.88236 0.70376 0.0
C78 C 0.17344 0.93784 0.65199 0.0
C79 C 0.1909 0.82803 0.68181 0.0
O80 O 0.13687 0.88958 0.68197 0.0
O81 O 0.12919 0.87222 0.72886 0.0
O82 O 0.22296 0.90099 0.68075 0.0
O83 O 0.19304 0.8908 0.7181 0.0
Co84 Co 0.81963 0.39509 0.83381 0.0
O85 O 0.82809 0.43646 0.82959 0.0
O86 O 0.82254 0.41348 0.87337 0.0
C87 C 0.78269 0.39291 0.80003 0.0
O88 O 0.80964 0.35234 0.84553 0.0
Co89 Co 0.83271 0.35541 0.77841 0.0
O90 O 0.81375 0.32435 0.80353 0.0
C91 C 0.88191 0.3782 0.81373 0.0
C92 C 0.82753 0.43798 0.85868 0.0
C93 C 0.80707 0.32745 0.83127 0.0
O94 O 0.86329 0.38609 0.83404 0.0
O95 O 0.87413 0.36833 0.78791 0.0
O96 O 0.77799 0.40227 0.82723 0.0
O97 O 0.81013 0.38903 0.79306 0.0
Co98 Co 0.6774 0.59773 0.30647 0.0
O99 O 0.66135 0.55928 0.29791 0.0
O100 O 0.67281 0.57591 0.34355 0.0
C101 C 0.71256 0.59808 0.27065 0.0
O102 O 0.69502 0.63581 0.32364 0.0
Co103 Co 0.67214 0.64767 0.25838 0.0
O104 O 0.69608 0.67072 0.2873 0.0
C105 C 0.6208 0.63287 0.29586 0.0
C106 C 0.66258 0.55464 0.32671 0.0
C107 C 0.70166 0.66192 0.31395 0.0
O108 O 0.63631 0.61414 0.31076 0.0
O109 O 0.6305 0.64743 0.27323 0.0
O110 O 0.71678 0.58429 0.29593 0.0
O111 O 0.6861 0.6078 0.26636 0.0
Co112 Co 0.18815 0.33658 0.09613 0.0
O113 O 0.19191 0.35084 0.05523 0.0
O114 O 0.15034 0.33683 0.07707 0.0
C115 C 0.22593 0.30417 0.09625 0.0
O116 O 0.17475 0.31901 0.13585 0.0
Co117 Co 0.2356 0.34589 0.14551 0.0
O118 O 0.21189 0.3174 0.16916 0.0
C119 C 0.19605 0.39526 0.12962 0.0
C120 C 0.16371 0.3462 0.05309 0.0
C121 C 0.1858 0.31085 0.16113 0.0
O122 O 0.18196 0.37837 0.11123 0.0
O123 O 0.2188 0.38694 0.1443 0.0
O124 O 0.20101 0.29724 0.08374 0.0
O125 O 0.2284 0.33154 0.10486 0.0
Co126 Co 0.67301 0.1674 0.91 0.0
O127 O 0.67824 0.15677 0.95166 0.0
O128 O 0.63521 0.16392 0.9293 0.0
C129 C 0.70645 0.20447 0.90831 0.0
O130 O 0.65876 0.18016 0.86861 0.0
Co131 Co 0.72323 0.1592 0.86357 0.0
O132 O 0.69682 0.18162 0.83625 0.0
C133 C 0.69202 0.10681 0.8868 0.0
C134 C 0.64976 0.15808 0.95377 0.0
C135 C 0.66997 0.18658 0.84282 0.0
O136 O 0.67235 0.1239 0.89838 0.0
O137 O 0.71558 0.11664 0.87455 0.0
O138 O 0.68043 0.20894 0.91945 0.0
O139 O 0.71257 0.17708 0.90186 0.0
Co140 Co 0.81592 0.83247 0.3962 0.0
O141 O 0.81074 0.8429 0.43782 0.0
O142 O 0.85347 0.83179 0.4167 0.0
C143 C 0.77873 0.79955 0.39268 0.0
O144 O 0.82937 0.81917 0.35443 0.0
Co145 Co 0.76665 0.84699 0.34955 0.0
O146 O 0.79128 0.82308 0.3221 0.0
C147 C 0.80736 0.89418 0.36883 0.0
C148 C 0.83888 0.83897 0.44084 0.0
C149 C 0.81751 0.81531 0.32835 0.0
O150 O 0.82165 0.87568 0.38534 0.0
O151 O 0.78414 0.88744 0.35407 0.0
O152 O 0.80372 0.79177 0.40443 0.0
O153 O 0.77587 0.8276 0.38725 0.0
Co154 Co 0.31927 0.66587 0.59633 0.0
O155 O 0.31051 0.65873 0.55477 0.0
O156 O 0.35548 0.66075 0.57372 0.0
C157 C 0.28854 0.70473 0.60225 0.0
O158 O 0.33627 0.67472 0.63795 0.0
Co159 Co 0.26982 0.65738 0.64393 0.0
O160 O 0.29916 0.67494 0.67171 0.0
C161 C 0.29563 0.60556 0.61383 0.0
C162 C 0.33866 0.65781 0.55018 0.0
C163 C 0.32603 0.67917 0.66466 0.0
O164 O 0.31712 0.62174 0.60461 0.0
O165 O 0.27289 0.61619 0.62697 0.0
O166 O 0.31434 0.70843 0.59029 0.0
O167 O 0.28106 0.67745 0.60713 0.0
Co168 Co 0.91152 0.83167 0.6715 0.0
O169 O 0.95005 0.82644 0.65435 0.0
O170 O 0.93189 0.86937 0.67024 0.0
C171 C 0.91417 0.79399 0.70463 0.0
O172 O 0.87355 0.84514 0.69206 0.0
Co173 Co 0.86409 0.78233 0.6643 0.0
O174 O 0.84173 0.80676 0.69337 0.0
C175 C 0.87675 0.8223 0.61348 0.0
C176 C 0.95411 0.85447 0.65963 0.0
C177 C 0.84913 0.83314 0.70049 0.0
O178 O 0.8941 0.83791 0.63003 0.0
O179 O 0.86412 0.79849 0.62233 0.0
O180 O 0.92627 0.81941 0.71041 0.0
O181 O 0.90376 0.79091 0.67765 0.0
Co182 Co 0.58922 0.15476 0.18913 0.0
O183 O 0.54943 0.15646 0.1749 0.0
O184 O 0.57153 0.11543 0.19043 0.0
C185 C 0.58592 0.19348 0.22099 0.0
O186 O 0.63013 0.14593 0.2064 0.0
Co187 Co 0.62973 0.20873 0.17427 0.0
O188 O 0.65807 0.18694 0.19992 0.0
C189 C 0.61361 0.16661 0.12672 0.0
C190 C 0.54773 0.12836 0.18066 0.0
C191 C 0.65431 0.16065 0.20988 0.0
O192 O 0.60375 0.14843 0.14661 0.0
O193 O 0.62182 0.19313 0.13273 0.0
O194 O 0.57662 0.16743 0.2289 0.0
O195 O 0.59356 0.19604 0.19308 0.0
Co196 Co 0.40926 0.67127 0.32141 0.0
O197 O 0.44637 0.67932 0.33989 0.0
O198 O 0.43118 0.6346 0.3263 0.0
C199 C 0.4128 0.7072 0.28641 0.0
O200 O 0.37293 0.65532 0.29949 0.0
Co201 Co 0.36038 0.71966 0.3232 0.0
O202 O 0.34155 0.69362 0.29309 0.0
C203 C 0.37053 0.68205 0.37655 0.0
C204 C 0.45238 0.65141 0.33626 0.0
C205 C 0.34944 0.6669 0.28818 0.0
O206 O 0.38999 0.66679 0.36225 0.0
O207 O 0.35743 0.70468 0.36547 0.0
O208 O 0.42566 0.6818 0.28265 0.0
O209 O 0.40078 0.71134 0.31252 0.0
Co210 Co 0.09739 0.33197 0.81984 0.0
O211 O 0.05708 0.33075 0.8328 0.0
O212 O 0.07851 0.37016 0.81279 0.0
C213 C 0.09618 0.28934 0.79322 0.0
O214 O 0.13873 0.34006 0.80304 0.0
Co215 Co 0.13921 0.28131 0.84186 0.0
O216 O 0.16708 0.30024 0.81354 0.0
C217 C 0.122 0.32921 0.88335 0.0
C218 C 0.05469 0.35776 0.82319 0.0
C219 C 0.16321 0.3255 0.80118 0.0
O220 O 0.11044 0.34406 0.86163 0.0
O221 O 0.13181 0.30273 0.88065 0.0
O222 O 0.08652 0.31386 0.78162 0.0
O223 O 0.10302 0.2907 0.82141 0.0
Co224 Co 0.67175 0.87431 0.85764 0.0
O225 O 0.63637 0.87405 0.88126 0.0
O226 O 0.6385 0.88665 0.83321 0.0
C227 C 0.6886 0.82905 0.87159 0.0
O228 O 0.70422 0.87537 0.82584 0.0
Co229 Co 0.73252 0.87247 0.89033 0.0
O230 O 0.74776 0.86739 0.84889 0.0
C231 C 0.70064 0.92936 0.88573 0.0
C232 C 0.62249 0.8819 0.85704 0.0
C233 C 0.73228 0.87111 0.82527 0.0
O234 O 0.68034 0.91709 0.86963 0.0
O235 O 0.72168 0.91478 0.89786 0.0
O236 O 0.6685 0.83142 0.851 0.0
O237 O 0.69479 0.85344 0.88556 0.0
Co238 Co 0.8323 0.12473 0.35364 0.0
O239 O 0.87175 0.13151 0.36752 0.0
O240 O 0.85999 0.11995 0.32063 0.0
C241 C 0.81058 0.16424 0.37556 0.0
O242 O 0.7936 0.11759 0.33127 0.0
Co243 Co 0.78385 0.1106 0.40111 0.0
O244 O 0.75733 0.11337 0.36567 0.0
C245 C 0.82777 0.06567 0.38663 0.0
C246 C 0.88039 0.12629 0.34018 0.0
C247 C 0.76619 0.11494 0.33845 0.0
O248 O 0.83573 0.0811 0.36367 0.0
O249 O 0.81001 0.0753 0.40672 0.0
O250 O 0.82516 0.16751 0.35059 0.0
O251 O 0.81345 0.13863 0.38822 0.0
Co252 Co 0.1658 0.62794 0.14231 0.0
O253 O 0.1267 0.63087 0.12551 0.0
O254 O 0.13717 0.62528 0.17396 0.0
C255 C 0.18718 0.66599 0.11774 0.0
O256 O 0.20224 0.62547 0.16857 0.0
Co257 Co 0.22051 0.61287 0.10334 0.0
O258 O 0.2433 0.62078 0.1408 0.0
C259 C 0.17626 0.56723 0.11562 0.0
C260 C 0.1174 0.62835 0.15309 0.0
C261 C 0.2304 0.62422 0.16606 0.0
O262 O 0.16525 0.58351 0.1366 0.0
O263 O 0.196 0.57634 0.09732 0.0
O264 O 0.17068 0.67109 0.14111 0.0
O265 O 0.18688 0.63897 0.10799 0.0
Co266 Co 0.33138 0.37179 0.64375 0.0
O267 O 0.36664 0.36538 0.62104 0.0
O268 O 0.36606 0.37944 0.66868 0.0
C269 C 0.30826 0.32938 0.63022 0.0
O270 O 0.29789 0.37871 0.67402 0.0
Co271 Co 0.27326 0.37934 0.60682 0.0
O272 O 0.25543 0.37867 0.64742 0.0
C273 C 0.31371 0.42989 0.61235 0.0
C274 C 0.38139 0.37162 0.64516 0.0
C275 C 0.26949 0.37978 0.67224 0.0
O276 O 0.32996 0.415 0.63072 0.0
O277 O 0.29184 0.41857 0.59831 0.0
O278 O 0.328 0.32911 0.6513 0.0
O279 O 0.30635 0.35402 0.61549 0.0
Co280 Co 0.85517 0.65947 0.87706 0.0
O281 O 0.87839 0.62437 0.87224 0.0
O282 O 0.83248 0.62457 0.88867 0.0
C283 C 0.86685 0.6794 0.83193 0.0
O284 O 0.82456 0.69222 0.88367 0.0
Co285 Co 0.88814 0.72043 0.87801 0.0
O286 O 0.84762 0.73647 0.87911 0.0
C287 C 0.88745 0.68315 0.93256 0.0
C288 C 0.85579 0.60935 0.88127 0.0
C289 C 0.82454 0.72088 0.88309 0.0
O290 O 0.86993 0.66454 0.91972 0.0
O291 O 0.89893 0.70532 0.91889 0.0
O292 O 0.84609 0.65968 0.83384 0.0
O293 O 0.88138 0.68397 0.85641 0.0
Co294 Co 0.36069 0.83188 0.10605 0.0
O295 O 0.38587 0.86606 0.1051 0.0
O296 O 0.33907 0.86582 0.09125 0.0
C297 C 0.3734 0.81713 0.15278 0.0
O298 O 0.3274 0.80154 0.10577 0.0
Co299 Co 0.38707 0.76828 0.11273 0.0
O300 O 0.34539 0.75622 0.11699 0.0
C301 C 0.38935 0.79871 0.05384 0.0
C302 C 0.36307 0.88087 0.096 0.0
C303 C 0.32405 0.77376 0.11156 0.0
O304 O 0.37324 0.82017 0.06383 0.0
O305 O 0.39908 0.77778 0.07058 0.0
O306 O 0.35388 0.83788 0.14924 0.0
O307 O 0.38619 0.80819 0.1285 0.0
Co308 Co 0.15258 0.15668 0.62178 0.0
O309 O 0.13899 0.11644 0.62434 0.0
O310 O 0.18558 0.12994 0.61818 0.0
C311 C 0.12743 0.17514 0.66116 0.0
O312 O 0.17453 0.19602 0.61879 0.0
Co313 Co 0.10733 0.2064 0.60691 0.0
O314 O 0.14168 0.23303 0.6129 0.0
C315 C 0.12682 0.16589 0.5593 0.0
C316 C 0.1663 0.10875 0.62094 0.0
C317 C 0.16801 0.22373 0.61609 0.0
O318 O 0.14689 0.15592 0.57694 0.0
O319 O 0.10666 0.18384 0.56789 0.0
O320 O 0.15186 0.1608 0.6655 0.0
O321 O 0.11735 0.17435 0.63398 0.0
Co322 Co 0.64737 0.33985 0.38044 0.0
O323 O 0.62614 0.3765 0.37675 0.0
O324 O 0.67296 0.3726 0.39027 0.0
C325 C 0.63208 0.31962 0.33682 0.0
O326 O 0.67719 0.30646 0.38463 0.0
Co327 Co 0.61435 0.2796 0.38509 0.0
O328 O 0.65434 0.26216 0.38176 0.0
C329 C 0.61429 0.32066 0.4365 0.0
C330 C 0.6506 0.38954 0.38407 0.0
C331 C 0.67758 0.27794 0.3833 0.0
O332 O 0.63476 0.33607 0.42393 0.0
O333 O 0.60104 0.29927 0.4232 0.0
O334 O 0.65352 0.33871 0.33684 0.0
O335 O 0.61897 0.31593 0.36232 0.0
H336 H 0.19047 0.30642 0.22176 0.0
H337 H 0.1402 0.2747 0.14585 0.0
H338 H 0.1114 0.24275 0.17904 0.0
H339 H 0.10185 0.22245 0.22935 0.0
H340 H 0.15091 0.25566 0.30545 0.0
H341 H 0.17873 0.28855 0.27247 0.0
C342 C 0.17318 0.29253 0.21253 0.0
C343 C 0.16758 0.29272 0.18145 0.0
C344 C 0.15651 0.27451 0.23173 0.0
C345 C 0.14486 0.27497 0.16977 0.0
C346 C 0.12844 0.25664 0.18869 0.0
C347 C 0.1185 0.23703 0.23871 0.0
C348 C 0.12456 0.23639 0.26969 0.0
C349 C 0.13425 0.25606 0.21967 0.0
C350 C 0.14597 0.25559 0.28162 0.0
C351 C 0.16193 0.27438 0.26278 0.0
H352 H 0.38223 0.7353 0.78056 0.0
H353 H 0.42204 0.79199 0.71381 0.0
H354 H 0.40166 0.76112 0.67361 0.0
H355 H 0.36856 0.7208 0.65745 0.0
H356 H 0.32549 0.66699 0.72449 0.0
H357 H 0.35129 0.69363 0.76451 0.0
C358 C 0.38674 0.7407 0.75724 0.0
C359 C 0.40348 0.76598 0.75018 0.0
C360 C 0.37427 0.72335 0.73426 0.0
C361 C 0.40907 0.77271 0.71983 0.0
C362 C 0.39742 0.75508 0.69682 0.0
C363 C 0.36542 0.71451 0.6808 0.0
C364 C 0.34532 0.69192 0.68807 0.0
C365 C 0.37946 0.73071 0.70375 0.0
C366 C 0.34091 0.68433 0.71841 0.0
C367 C 0.35555 0.69961 0.74128 0.0
H368 H 0.58944 0.27139 0.76633 0.0
H369 H 0.64236 0.23548 0.69435 0.0
H370 H 0.66718 0.20256 0.72983 0.0
H371 H 0.67643 0.18682 0.78199 0.0
H372 H 0.62212 0.22137 0.85363 0.0
H373 H 0.59504 0.25174 0.81755 0.0
C374 C 0.6062 0.25613 0.75838 0.0
C375 C 0.6144 0.25621 0.72788 0.0
C376 C 0.62019 0.23711 0.77886 0.0
C377 C 0.63581 0.23604 0.71776 0.0
C378 C 0.65007 0.21725 0.73806 0.0
C379 C 0.65849 0.2008 0.78964 0.0
C380 C 0.65148 0.20208 0.82045 0.0
C381 C 0.64287 0.21806 0.76876 0.0
C382 C 0.62792 0.21996 0.83001 0.0
C383 C 0.61251 0.23745 0.80943 0.0
H384 H 0.86949 0.76248 0.209 0.0
H385 H 0.90336 0.69731 0.27104 0.0
H386 H 0.88389 0.72589 0.31351 0.0
H387 H 0.85443 0.76805 0.33268 0.0
H388 H 0.81775 0.83066 0.26963 0.0
H389 H 0.8413 0.80464 0.22788 0.0
C390 C 0.8728 0.75461 0.23181 0.0
C391 C 0.88774 0.72783 0.2369 0.0
C392 C 0.86102 0.77075 0.25594 0.0
C393 C 0.8918 0.71787 0.26658 0.0
C394 C 0.8807 0.73419 0.29085 0.0
C395 C 0.85209 0.77616 0.30982 0.0
C396 C 0.83457 0.8012 0.30411 0.0
C397 C 0.86492 0.76049 0.28577 0.0
C398 C 0.83115 0.81134 0.27443 0.0
C399 C 0.84455 0.79648 0.25058 0.0
H400 H 0.27973 0.11199 0.24632 0.0
H401 H 0.21869 0.08854 0.17589 0.0
H402 H 0.17759 0.10586 0.20665 0.0
H403 H 0.15929 0.13184 0.2521 0.0
H404 H 0.22099 0.15621 0.3216 0.0
H405 H 0.26117 0.134 0.2931 0.0
C406 C 0.25742 0.1104 0.23783 0.0
C407 C 0.25236 0.09922 0.20878 0.0
C408 C 0.23385 0.12057 0.25558 0.0
C409 C 0.22326 0.09721 0.19816 0.0
C410 C 0.19968 0.10711 0.21574 0.0
C411 C 0.18141 0.13157 0.26125 0.0
C412 C 0.18717 0.14568 0.28885 0.0
C413 C 0.20472 0.11934 0.24432 0.0
C414 C 0.21603 0.14558 0.30029 0.0
C415 C 0.23908 0.13299 0.28397 0.0
H416 H 0.34429 0.86264 0.76216 0.0
H417 H 0.29136 0.80452 0.81706 0.0
H418 H 0.24654 0.82543 0.79553 0.0
H419 H 0.22245 0.85701 0.75768 0.0
H420 H 0.2757 0.9123 0.7002 0.0
H421 H 0.32011 0.89608 0.72624 0.0
C422 C 0.32293 0.85496 0.76975 0.0
C423 C 0.32114 0.83203 0.79103 0.0
C424 C 0.29723 0.86645 0.75662 0.0
C425 C 0.2933 0.82203 0.80047 0.0
C426 C 0.26764 0.83395 0.78819 0.0
C427 C 0.24374 0.8658 0.75124 0.0
C428 C 0.24586 0.88568 0.72705 0.0
C429 C 0.26933 0.85567 0.76572 0.0
C430 C 0.27358 0.89677 0.71868 0.0
C431 C 0.299 0.88751 0.73353 0.0
H432 H 0.78427 0.36269 0.74676 0.0
H433 H 0.72503 0.40593 0.80873 0.0
H434 H 0.68292 0.39003 0.77883 0.0
H435 H 0.66246 0.36035 0.73714 0.0
H436 H 0.72181 0.31557 0.6764 0.0
H437 H 0.76399 0.33571 0.70335 0.0
C438 C 0.76217 0.3689 0.75348 0.0
C439 C 0.75782 0.38528 0.77999 0.0
C440 C 0.7379 0.35929 0.7364 0.0
C441 C 0.72901 0.39312 0.78848 0.0
C442 C 0.70485 0.38405 0.77139 0.0
C443 C 0.68462 0.3555 0.72953 0.0
C444 C 0.68894 0.33637 0.70495 0.0
C445 C 0.70895 0.36665 0.74558 0.0
C446 C 0.71785 0.33003 0.69548 0.0
C447 C 0.74204 0.34152 0.71089 0.0
H448 H 0.83406 0.63152 0.21181 0.0
H449 H 0.77863 0.6945 0.16569 0.0
H450 H 0.73494 0.6719 0.18789 0.0
H451 H 0.71294 0.63785 0.22459 0.0
H452 H 0.76856 0.57693 0.27324 0.0
H453 H 0.81152 0.59481 0.24572 0.0
C454 C 0.81237 0.63983 0.20612 0.0
C455 C 0.80959 0.66469 0.18725 0.0
C456 C 0.78734 0.62731 0.21972 0.0
C457 C 0.78135 0.67548 0.18034 0.0
C458 C 0.75635 0.66263 0.19307 0.0
C459 C 0.73439 0.6282 0.22886 0.0
C460 C 0.73759 0.60631 0.25111 0.0
C461 C 0.75914 0.6391 0.21348 0.0
C462 C 0.76554 0.594 0.25637 0.0
C463 C 0.79015 0.60423 0.24066 0.0
H464 H 0.30823 0.21573 0.16626 0.0
H465 H 0.26514 0.15298 0.10749 0.0
H466 H 0.2398 0.19356 0.08189 0.0
H467 H 0.22675 0.2464 0.0791 0.0
H468 H 0.27115 0.30939 0.13655 0.0
H469 H 0.29935 0.26924 0.15951 0.0
C470 C 0.29346 0.21099 0.14769 0.0
C471 C 0.28828 0.18138 0.13903 0.0
C472 C 0.27913 0.23444 0.13291 0.0
C473 C 0.26948 0.17558 0.11461 0.0
C474 C 0.2549 0.19876 0.10003 0.0
C475 C 0.24287 0.25139 0.09638 0.0
C476 C 0.24642 0.28077 0.1065 0.0
C477 C 0.2591 0.2282 0.1094 0.0
C478 C 0.26771 0.28694 0.12857 0.0
C479 C 0.28381 0.26397 0.14179 0.0
H480 H 0.76761 0.32652 0.87751 0.0
H481 H 0.81804 0.2693 0.81911 0.0
H482 H 0.7932 0.22577 0.83963 0.0
H483 H 0.75425 0.20417 0.87117 0.0
H484 H 0.7017 0.26165 0.9273 0.0
H485 H 0.73026 0.30459 0.91093 0.0
C486 C 0.77351 0.30448 0.8697 0.0
C487 C 0.7946 0.3012 0.8468 0.0
C488 C 0.75852 0.27951 0.88101 0.0
C489 C 0.80174 0.27248 0.83662 0.0
C490 C 0.78752 0.24754 0.84831 0.0
C491 C 0.7493 0.22604 0.88008 0.0
C492 C 0.72581 0.2297 0.90031 0.0
C493 C 0.7654 0.25081 0.87003 0.0
C494 C 0.71958 0.25823 0.91154 0.0
C495 C 0.7359 0.28284 0.9022 0.0
H496 H 0.78077 0.7396 0.39974 0.0
H497 H 0.73091 0.80948 0.35712 0.0
H498 H 0.70186 0.7727 0.32996 0.0
H499 H 0.69334 0.72105 0.31522 0.0
H500 H 0.74156 0.65065 0.35861 0.0
H501 H 0.76847 0.6873 0.38886 0.0
C502 C 0.7633 0.74675 0.38479 0.0
C503 C 0.75835 0.77725 0.38005 0.0
C504 C 0.74659 0.72544 0.36927 0.0
C505 C 0.73541 0.78618 0.36093 0.0
C506 C 0.71881 0.76516 0.34532 0.0
C507 C 0.70966 0.71374 0.33143 0.0
C508 C 0.71589 0.68333 0.33442 0.0
C509 C 0.72471 0.73481 0.34877 0.0
C510 C 0.73654 0.67401 0.35591 0.0
C511 C 0.75195 0.69494 0.37308 0.0
H512 H 0.22924 0.82699 0.63516 0.0
H513 H 0.17909 0.77002 0.69386 0.0
H514 H 0.2033 0.72629 0.6726 0.0
H515 H 0.24165 0.70464 0.64029 0.0
H516 H 0.29446 0.76212 0.58454 0.0
H517 H 0.26633 0.80517 0.60155 0.0
C518 C 0.22321 0.80494 0.64281 0.0
C519 C 0.20237 0.80167 0.6659 0.0
C520 C 0.23799 0.78001 0.63128 0.0
C521 C 0.19513 0.77304 0.67608 0.0
C522 C 0.20902 0.74806 0.66401 0.0
C523 C 0.24679 0.72655 0.63167 0.0
C524 C 0.27014 0.73023 0.6113 0.0
C525 C 0.23097 0.75132 0.64209 0.0
C526 C 0.27668 0.75876 0.60041 0.0
C527 C 0.26058 0.78339 0.61008 0.0
H528 H 0.90994 0.71953 0.82368 0.0
H529 H 0.83679 0.67805 0.77834 0.0
H530 H 0.8461 0.70843 0.73356 0.0
H531 H 0.87407 0.74865 0.70824 0.0
H532 H 0.94616 0.7902 0.75545 0.0
H533 H 0.9384 0.7577 0.7984 0.0
C534 C 0.89604 0.71703 0.804 0.0
C535 C 0.87264 0.69672 0.80436 0.0
C536 C 0.9014 0.73457 0.7786 0.0
C537 C 0.85494 0.69363 0.77861 0.0
C538 C 0.86025 0.71099 0.75302 0.0
C539 C 0.88824 0.75025 0.7278 0.0
C540 C 0.91059 0.77182 0.72873 0.0
C541 C 0.88331 0.73175 0.75284 0.0
C542 C 0.92869 0.77387 0.75428 0.0
C543 C 0.92428 0.75533 0.77888 0.0
H544 H 0.62206 0.24192 0.21869 0.0
H545 H 0.55702 0.19808 0.27374 0.0
H546 H 0.56436 0.2345 0.31358 0.0
H547 H 0.59095 0.27674 0.33397 0.0
H548 H 0.658 0.31989 0.28103 0.0
H549 H 0.64812 0.28591 0.23906 0.0
C550 C 0.60931 0.24064 0.23928 0.0
C551 C 0.58909 0.21738 0.24337 0.0
C552 C 0.61413 0.26135 0.2625 0.0
C553 C 0.57284 0.21573 0.2702 0.0
C554 C 0.57701 0.23652 0.29299 0.0
C555 C 0.60334 0.27887 0.31322 0.0
C556 C 0.62524 0.30066 0.31063 0.0
C557 C 0.59791 0.25908 0.28958 0.0
C558 C 0.64103 0.30319 0.28355 0.0
C559 C 0.63542 0.28376 0.25959 0.0
H560 H 0.37478 0.75399 0.2798 0.0
H561 H 0.44646 0.70766 0.23656 0.0
H562 H 0.44156 0.73892 0.19232 0.0
H563 H 0.4154 0.77698 0.16462 0.0
H564 H 0.3427 0.82328 0.20575 0.0
H565 H 0.34961 0.79466 0.25219 0.0
C566 C 0.38947 0.75106 0.26079 0.0
C567 C 0.4108 0.72845 0.26133 0.0
C568 C 0.38626 0.76893 0.23502 0.0
C569 C 0.42968 0.72475 0.23657 0.0
C570 C 0.42694 0.74261 0.21124 0.0
C571 C 0.40111 0.78097 0.18378 0.0
C572 C 0.37846 0.80199 0.18173 0.0
C573 C 0.40501 0.76435 0.21002 0.0
C574 C 0.3603 0.80711 0.20682 0.0
C575 C 0.3642 0.79072 0.23331 0.0
H576 H 0.14408 0.18005 0.7197 0.0
H577 H 0.08313 0.21524 0.65433 0.0
H578 H 0.06688 0.25265 0.69038 0.0
H579 H 0.07274 0.27775 0.73887 0.0
H580 H 0.1327 0.24242 0.80497 0.0
H581 H 0.14643 0.20243 0.77033 0.0
C582 C 0.12702 0.19572 0.71348 0.0
C583 C 0.11513 0.19517 0.68425 0.0
C584 C 0.11774 0.21719 0.73436 0.0
C585 C 0.09282 0.21536 0.67659 0.0
C586 C 0.08354 0.2368 0.69717 0.0
C587 C 0.08864 0.26114 0.74578 0.0
C588 C 0.10201 0.26319 0.77419 0.0
C589 C 0.0963 0.2383 0.72585 0.0
C590 C 0.12221 0.24133 0.78312 0.0
C591 C 0.13013 0.21855 0.76329 0.0
H592 H 0.78698 0.89045 0.81209 0.0
H593 H 0.71214 0.84556 0.77353 0.0
H594 H 0.74134 0.83252 0.72908 0.0
H595 H 0.78986 0.82833 0.70479 0.0
H596 H 0.86449 0.87387 0.74315 0.0
H597 H 0.83351 0.89273 0.78395 0.0
C598 C 0.77696 0.87828 0.79366 0.0
C599 C 0.74764 0.86861 0.79613 0.0
C600 C 0.79387 0.87085 0.76835 0.0
C601 C 0.73467 0.85325 0.77204 0.0
C602 C 0.75143 0.84561 0.74677 0.0
C603 C 0.7992 0.84282 0.72182 0.0
C604 C 0.82948 0.84936 0.72128 0.0
C605 C 0.7813 0.85344 0.74521 0.0
C606 C 0.84125 0.86852 0.74312 0.0
C607 C 0.8236 0.87911 0.76656 0.0
H608 H 0.65152 0.1246 0.25912 0.0
H609 H 0.71254 0.1688 0.19989 0.0
H610 H 0.75341 0.15553 0.23281 0.0
H611 H 0.77107 0.1365 0.2813 0.0
H612 H 0.70968 0.09487 0.34214 0.0
H613 H 0.67003 0.10171 0.30584 0.0
C614 C 0.67386 0.13067 0.25313 0.0
C615 C 0.67898 0.14773 0.22721 0.0
C616 C 0.69725 0.12377 0.27272 0.0
C617 C 0.70801 0.15581 0.21988 0.0
C618 C 0.73141 0.1483 0.23872 0.0
C619 C 0.74915 0.12843 0.28639 0.0
C620 C 0.74339 0.11543 0.31453 0.0
C621 C 0.7262 0.13308 0.26568 0.0
C622 C 0.71474 0.10526 0.32078 0.0
C623 C 0.69198 0.10915 0.30002 0.0
H624 H 0.2905 0.66698 0.28578 0.0
H625 H 0.36707 0.6294 0.24313 0.0
H626 H 0.33641 0.61081 0.20169 0.0
H627 H 0.28852 0.6107 0.17501 0.0
H628 H 0.21239 0.64838 0.21905 0.0
H629 H 0.24219 0.66139 0.26253 0.0
C630 C 0.30036 0.65417 0.26769 0.0
C631 C 0.33091 0.64969 0.26727 0.0
C632 C 0.28273 0.64398 0.24399 0.0
C633 C 0.34351 0.63291 0.24395 0.0
C634 C 0.32603 0.6226 0.22013 0.0
C635 C 0.27843 0.6215 0.19425 0.0
C636 C 0.24832 0.62891 0.19351 0.0
C637 C 0.29574 0.62888 0.21945 0.0
C638 C 0.23549 0.64249 0.21885 0.0
C639 C 0.25253 0.65002 0.24378 0.0
H640 H 0.27709 0.34757 0.72333 0.0
H641 H 0.21978 0.41153 0.68147 0.0
H642 H 0.18234 0.4028 0.71989 0.0
H643 H 0.16318 0.37179 0.76105 0.0
H644 H 0.22005 0.30615 0.80141 0.0
H645 H 0.26 0.32074 0.76827 0.0
C646 C 0.2568 0.36026 0.72329 0.0
C647 C 0.25117 0.38013 0.69969 0.0
C648 C 0.23487 0.35432 0.74485 0.0
C649 C 0.22455 0.39608 0.6995 0.0
C650 C 0.20304 0.39093 0.72132 0.0
C651 C 0.18443 0.36101 0.76293 0.0
C652 C 0.18824 0.33753 0.78339 0.0
C653 C 0.20746 0.36923 0.74342 0.0
C654 C 0.21612 0.32395 0.78554 0.0
C655 C 0.23916 0.33231 0.76661 0.0
H656 H 0.77242 0.71891 0.85248 0.0
H657 H 0.81674 0.76111 0.92685 0.0
H658 H 0.77645 0.7965 0.93226 0.0
H659 H 0.73194 0.81921 0.91203 0.0
H660 H 0.68821 0.77938 0.83591 0.0
H661 H 0.72453 0.73927 0.83512 0.0
C662 C 0.77271 0.73539 0.8703 0.0
C663 C 0.79732 0.73749 0.88932 0.0
C664 C 0.7498 0.75638 0.87267 0.0
C665 C 0.79789 0.75919 0.91203 0.0
C666 C 0.77496 0.77949 0.91504 0.0
C667 C 0.73009 0.80153 0.89553 0.0
C668 C 0.70763 0.80247 0.87389 0.0
C669 C 0.75131 0.77892 0.89487 0.0
C670 C 0.7054 0.77926 0.85279 0.0
C671 C 0.72623 0.75635 0.85224 0.0
H672 H 0.19896 0.72144 0.13999 0.0
H673 H 0.22845 0.657 0.07452 0.0
H674 H 0.27277 0.68588 0.06555 0.0
H675 H 0.30575 0.72637 0.08025 0.0
H676 H 0.2763 0.79252 0.14349 0.0
H677 H 0.22925 0.76627 0.14929 0.0
C678 C 0.21484 0.71403 0.12337 0.0
C679 C 0.2107 0.68674 0.10846 0.0
C680 C 0.24039 0.7309 0.11815 0.0
C681 C 0.23129 0.67763 0.08672 0.0
C682 C 0.25672 0.69411 0.08156 0.0
C683 C 0.28877 0.7352 0.09492 0.0
C684 C 0.2943 0.76099 0.11166 0.0
C685 C 0.26191 0.72023 0.09781 0.0
C686 C 0.27227 0.77262 0.13039 0.0
C687 C 0.24552 0.75755 0.13379 0.0
H688 H 0.25507 0.33189 0.60265 0.0
H689 H 0.312 0.27307 0.65228 0.0
H690 H 0.27405 0.23455 0.65152 0.0
H691 H 0.22375 0.21839 0.63848 0.0
H692 H 0.16609 0.27919 0.592 0.0
H693 H 0.2051 0.31619 0.59018 0.0
C694 C 0.25928 0.31061 0.61314 0.0
C695 C 0.28629 0.30535 0.62746 0.0
C696 C 0.23706 0.28899 0.61348 0.0
C697 C 0.29132 0.27765 0.64109 0.0
C698 C 0.26961 0.25565 0.64075 0.0
C699 C 0.21979 0.2397 0.62787 0.0
C700 C 0.19201 0.24597 0.61545 0.0
C701 C 0.24223 0.2612 0.62731 0.0
C702 C 0.18716 0.27381 0.60198 0.0
C703 C 0.20951 0.29498 0.60078 0.0
H704 H 0.69311 0.22796 0.41281 0.0
H705 H 0.72589 0.29385 0.35108 0.0
H706 H 0.77138 0.26537 0.34446 0.0
H707 H 0.79988 0.21953 0.35328 0.0
H708 H 0.76816 0.15571 0.41803 0.0
H709 H 0.72445 0.1857 0.42672 0.0
C710 C 0.7104 0.23616 0.39818 0.0
C711 C 0.7062 0.26266 0.38219 0.0
C712 C 0.7366 0.22 0.39495 0.0
C713 C 0.72879 0.27344 0.36361 0.0
C714 C 0.75469 0.25712 0.35974 0.0
C715 C 0.78359 0.21243 0.3696 0.0
C716 C 0.78697 0.18507 0.38443 0.0
C717 C 0.75859 0.23006 0.37487 0.0
C718 C 0.76592 0.17639 0.40588 0.0
C719 C 0.74084 0.19353 0.41088 0.0
H720 H 0.08287 0.16374 0.51785 0.0
H721 H 0.17679 0.15402 0.52808 0.0
H722 H 0.18283 0.15326 0.47356 0.0
H723 H 0.16212 0.16261 0.42343 0.0
H724 H 0.06832 0.17033 0.4125 0.0
H725 H 0.06133 0.16424 0.46687 0.0
C726 C 0.10456 0.16092 0.50807 0.0
C727 C 0.12938 0.1595 0.52687 0.0
C728 C 0.10788 0.16037 0.47668 0.0
C729 C 0.15734 0.15529 0.51405 0.0
C730 C 0.16086 0.15503 0.48288 0.0
C731 C 0.14016 0.16224 0.433 0.0
C732 C 0.11576 0.16719 0.41442 0.0
C733 C 0.13641 0.15863 0.46406 0.0
C734 C 0.08733 0.16645 0.42664 0.0
C735 C 0.08339 0.16321 0.45766 0.0
H736 H 0.38627 0.84194 0.01012 0.0
H737 H 0.40564 0.74895 0.02382 0.0
H738 H 0.41236 0.74204 0.9702 0.0
H739 H 0.41016 0.76111 0.91913 0.0
H740 H 0.39272 0.85391 0.90366 0.0
H741 H 0.38825 0.86223 0.95809 0.0
C742 C 0.39213 0.82026 0.00133 0.0
C743 C 0.39525 0.79604 0.02111 0.0
C744 C 0.39632 0.81632 0.97012 0.0
C745 C 0.40314 0.76811 0.00932 0.0
C746 C 0.40693 0.76401 0.97854 0.0
C747 C 0.40558 0.78322 0.92767 0.0
C748 C 0.40145 0.80676 0.90748 0.0
C749 C 0.4032 0.78779 0.95875 0.0
C750 C 0.39602 0.8354 0.91884 0.0
C751 C 0.39328 0.84012 0.94993 0.0
H752 H 0.64958 0.34498 0.47944 0.0
H753 H 0.56364 0.30651 0.46588 0.0
H754 H 0.55539 0.30563 0.52011 0.0
H755 H 0.57552 0.30884 0.57142 0.0
H756 H 0.66278 0.34342 0.58498 0.0
H757 H 0.66753 0.3533 0.53095 0.0
C758 C 0.62879 0.33707 0.48833 0.0
C759 C 0.60742 0.32549 0.46868 0.0
C760 C 0.62454 0.33575 0.51964 0.0
C761 C 0.58062 0.31519 0.48057 0.0
C762 C 0.57587 0.31464 0.51159 0.0
C763 C 0.59514 0.31935 0.56248 0.0
C764 C 0.61867 0.32572 0.58177 0.0
C765 C 0.59808 0.32384 0.53135 0.0
C766 C 0.64434 0.33871 0.57026 0.0
C767 C 0.64711 0.34413 0.53943 0.0
H768 H 0.88719 0.66093 0.07296 0.0
H769 H 0.90836 0.75432 0.07197 0.0
H770 H 0.9118 0.7533 0.01716 0.0
H771 H 0.90495 0.7272 0.96977 0.0
H772 H 0.87934 0.6349 0.96954 0.0
H773 H 0.8817 0.63406 0.02465 0.0
C774 C 0.89294 0.68091 0.06069 0.0
C775 C 0.89748 0.70768 0.07639 0.0
C776 C 0.89392 0.68038 0.02904 0.0
C777 C 0.90458 0.73352 0.0603 0.0
C778 C 0.90657 0.73294 0.029 0.0
C779 C 0.90034 0.70668 0.98164 0.0
C780 C 0.89207 0.68111 0.9655 0.0
C781 C 0.90073 0.70667 0.01315 0.0
C782 C 0.88575 0.6549 0.98141 0.0
C783 C 0.88704 0.65444 0.01291 0.0
H784 H 0.42032 0.08743 0.21361 0.0
H785 H 0.40247 0.12668 0.12706 0.0
H786 H 0.45515 0.13375 0.1185 0.0
H787 H 0.5057 0.13399 0.1383 0.0
H788 H 0.5244 0.09182 0.22313 0.0
H789 H 0.47213 0.07989 0.22948 0.0
C790 C 0.42811 0.09713 0.19274 0.0
C791 C 0.40767 0.10696 0.17116 0.0
C792 C 0.45851 0.10047 0.18767 0.0
C793 C 0.41787 0.11905 0.14399 0.0
C794 C 0.44795 0.12316 0.13912 0.0
C795 C 0.49837 0.12139 0.15772 0.0
C796 C 0.51869 0.1138 0.18025 0.0
C797 C 0.4684 0.11462 0.16111 0.0
C798 C 0.50912 0.09755 0.20535 0.0
C799 C 0.4792 0.09109 0.20915 0.0
H800 H 0.98108 0.88079 0.70619 0.0
H801 H 0.99471 0.85225 0.6147 0.0
H802 H 0.04758 0.8621 0.61938 0.0
H803 H 0.09035 0.87305 0.6515 0.0
H804 H 0.07706 0.89457 0.74515 0.0
H805 H 0.02371 0.89325 0.73787 0.0
C806 C 0.99561 0.87765 0.68706 0.0
C807 C 0.98418 0.8665 0.65993 0.0
C808 C 0.02608 0.88152 0.69061 0.0
C809 C 0.00314 0.86135 0.63558 0.0
C810 C 0.03333 0.86671 0.63838 0.0
C811 C 0.07574 0.8779 0.67018 0.0
C812 C 0.08758 0.88392 0.69882 0.0
C813 C 0.04514 0.87591 0.66608 0.0
C814 C 0.06844 0.88972 0.72295 0.0
C815 C 0.03796 0.88902 0.71877 0.0
H816 H 0.00955 0.35327 0.8624 0.0
H817 H 0.03338 0.39071 0.77661 0.0
H818 H 0.98151 0.40139 0.76599 0.0
H819 H 0.92877 0.39476 0.77904 0.0
H820 H 0.9058 0.36039 0.8665 0.0
H821 H 0.95782 0.35386 0.87863 0.0
C822 C 0.0034 0.36449 0.84173 0.0
C823 C 0.02515 0.37116 0.82028 0.0
C824 C 0.97363 0.37063 0.83591 0.0
C825 C 0.01703 0.38568 0.7936 0.0
C826 C 0.98733 0.39145 0.78738 0.0
C827 C 0.93527 0.38617 0.80085 0.0
C828 C 0.91353 0.37767 0.82171 0.0
C829 C 0.96535 0.38316 0.80798 0.0
C830 C 0.92215 0.36703 0.85008 0.0
C831 C 0.95189 0.36322 0.857 0.0
H832 H 0.49983 0.68664 0.3352 0.0
H833 H 0.4745 0.59434 0.33534 0.0
H834 H 0.52574 0.57995 0.32534 0.0
H835 H 0.57693 0.59443 0.31155 0.0
H836 H 0.59862 0.68743 0.30488 0.0
H837 H 0.54948 0.70086 0.32222 0.0
C838 C 0.50547 0.66328 0.33367 0.0
C839 C 0.48341 0.64157 0.33622 0.0
C840 C 0.5343 0.65542 0.32615 0.0
C841 C 0.49115 0.61146 0.33367 0.0
C842 C 0.52037 0.60328 0.3277 0.0
C843 C 0.57076 0.61756 0.31411 0.0
C844 C 0.59111 0.64 0.30685 0.0
C845 C 0.54199 0.62516 0.32304 0.0
C846 C 0.58308 0.6699 0.31002 0.0
C847 C 0.5551 0.67756 0.32007 0.0
H848 H 0.17354 0.43159 0.08694 0.0
H849 H 0.19743 0.42819 0.18081 0.0
H850 H 0.18737 0.48125 0.18603 0.0
H851 H 0.17841 0.52955 0.16229 0.0
H852 H 0.16119 0.53395 0.06707 0.0
H853 H 0.16125 0.47963 0.06391 0.0
C854 C 0.17595 0.44244 0.10862 0.0
C855 C 0.18633 0.42622 0.13341 0.0
C856 C 0.17136 0.47316 0.11112 0.0
C857 C 0.18973 0.44043 0.16136 0.0
C858 C 0.18395 0.47071 0.16437 0.0
C859 C 0.1738 0.51847 0.1411 0.0
C860 C 0.16955 0.53539 0.115 0.0
C861 C 0.17566 0.48745 0.13919 0.0
C862 C 0.16433 0.5211 0.08742 0.0
C863 C 0.16458 0.49015 0.08561 0.0
H864 H 0.65574 0.97067 0.88345 0.0
H865 H 0.74999 0.96196 0.89217 0.0
H866 H 0.75537 0.01549 0.89314 0.0
H867 H 0.73409 0.06493 0.89053 0.0
H868 H 0.64005 0.07564 0.88519 0.0
H869 H 0.6338 0.02147 0.88408 0.0
C870 C 0.67737 0.98058 0.8857 0.0
C871 C 0.70238 0.9622 0.88779 0.0
C872 C 0.68042 0.01179 0.88681 0.0
C873 C 0.73028 0.97542 0.89084 0.0
C874 C 0.73348 0.00613 0.89125 0.0
C875 C 0.7122 0.05543 0.88911 0.0
C876 C 0.68762 0.07422 0.88761 0.0
C877 C 0.7088 0.0245 0.8891 0.0
C878 C 0.65936 0.06158 0.88635 0.0
C879 C 0.65579 0.03063 0.88562 0.0
H880 H 0.82867 0.02829 0.33947 0.0
H881 H 0.84046 0.03165 0.43566 0.0
H882 H 0.83981 0.97732 0.43804 0.0
H883 H 0.82808 0.9295 0.41362 0.0
H884 H 0.80974 0.92761 0.31842 0.0
H885 H 0.82087 0.98052 0.3146 0.0
C886 C 0.83202 0.01705 0.3608 0.0
C887 C 0.8347 0.03375 0.38733 0.0
C888 C 0.82983 0.98604 0.36217 0.0
C889 C 0.8384 0.01908 0.41496 0.0
C890 C 0.83781 0.98808 0.41633 0.0
C891 C 0.82713 0.94067 0.39202 0.0
C892 C 0.81795 0.92495 0.36639 0.0
C893 C 0.83231 0.97139 0.39025 0.0
C894 C 0.81647 0.93951 0.33849 0.0
C895 C 0.82286 0.9697 0.33629 0.0
H896 H 0.27327 0.46967 0.59398 0.0
H897 H 0.36249 0.46364 0.62657 0.0
H898 H 0.36588 0.51806 0.62737 0.0
H899 H 0.3418 0.56748 0.62205 0.0
H900 H 0.25097 0.57141 0.59431 0.0
H901 H 0.24992 0.51762 0.58819 0.0
C902 C 0.29372 0.4801 0.60083 0.0
C903 C 0.31767 0.46252 0.61001 0.0
C904 C 0.29508 0.51111 0.6023 0.0
C905 C 0.34374 0.47663 0.61932 0.0
C906 C 0.34563 0.50773 0.61986 0.0
C907 C 0.32197 0.55643 0.61436 0.0
C908 C 0.29647 0.57324 0.60859 0.0
C909 C 0.32122 0.52523 0.61189 0.0
C910 C 0.27076 0.55883 0.59902 0.0
C911 C 0.27016 0.52812 0.59548 0.0
H912 H 0.81323 0.8549 0.49334 0.0
H913 H 0.89581 0.82542 0.45591 0.0
H914 H 0.91645 0.82101 0.50663 0.0
H915 H 0.90901 0.82036 0.562 0.0
H916 H 0.82536 0.84741 0.59842 0.0
H917 H 0.80717 0.85828 0.54781 0.0
C918 C 0.83588 0.84786 0.4962 0.0
C919 C 0.85285 0.84019 0.47091 0.0
C920 C 0.84735 0.84486 0.52533 0.0
C921 C 0.88222 0.83133 0.47503 0.0
C922 C 0.89401 0.82871 0.50404 0.0
C923 C 0.88708 0.82927 0.55869 0.0
C924 C 0.86848 0.83333 0.5836 0.0
C925 C 0.87653 0.83468 0.5294 0.0
C926 C 0.83996 0.84437 0.57936 0.0
C927 C 0.82955 0.85043 0.55049 0.0
H928 H 0.66723 0.12756 0.00326 0.0
H929 H 0.59969 0.18641 0.97041 0.0
H930 H 0.58043 0.19237 0.02143 0.0
H931 H 0.58685 0.18568 0.07616 0.0
H932 H 0.65234 0.12465 0.10886 0.0
H933 H 0.66826 0.11431 0.05716 0.0
C934 C 0.64796 0.14121 0.00729 0.0
C935 C 0.63509 0.15684 0.98332 0.0
C936 C 0.63681 0.14426 0.03662 0.0
C937 C 0.60993 0.17418 0.98859 0.0
C938 C 0.59903 0.17775 0.01776 0.0
C939 C 0.6041 0.1696 0.07175 0.0
C940 C 0.61858 0.15597 0.09592 0.0
C941 C 0.61285 0.16361 0.04205 0.0
C942 C 0.64088 0.13518 0.09034 0.0
C943 C 0.65008 0.12946 0.06087 0.0
H944 H 0.40479 0.66866 0.4253 0.0
H945 H 0.31485 0.67442 0.39503 0.0
H946 H 0.29727 0.6637 0.44572 0.0
H947 H 0.30709 0.65741 0.49895 0.0
H948 H 0.39644 0.6558 0.53157 0.0
H949 H 0.41472 0.65987 0.47974 0.0
C950 C 0.38141 0.6671 0.42991 0.0
C951 C 0.36105 0.67237 0.40667 0.0
C952 C 0.3714 0.66193 0.45949 0.0
C953 C 0.33081 0.67062 0.41273 0.0
C954 C 0.32077 0.6645 0.44166 0.0
C955 C 0.33061 0.65758 0.49482 0.0
C956 C 0.35037 0.65646 0.5191 0.0
C957 C 0.34082 0.66085 0.46529 0.0
C958 C 0.38076 0.65671 0.51324 0.0
C959 C 0.3912 0.65913 0.48363 0.0
H960 H 0.18177 0.37297 0.00117 0.0
H961 H 0.11038 0.3226 0.03981 0.0
H962 H 0.08829 0.31655 0.99027 0.0
H963 H 0.09336 0.31897 0.93523 0.0
H964 H 0.16365 0.37004 0.89616 0.0
H965 H 0.18184 0.38293 0.94647 0.0
C966 C 0.1611 0.36118 -0.00124 0.0
C967 C 0.14806 0.34776 0.02401 0.0
C968 C 0.14837 0.35783 0.9701 0.0
C969 C 0.12103 0.33293 0.02069 0.0
C970 C 0.10838 0.32935 0.99233 0.0
C971 C 0.11202 0.33377 0.93791 0.0
C972 C 0.12717 0.34372 0.91239 0.0
C973 C 0.1224 0.34078 0.96679 0.0
C974 C 0.15154 0.36253 0.91574 0.0
C975 C 0.16209 0.3696 0.94444 0.0
H976 H 0.58599 0.89589 0.80989 0.0
H977 H 0.58561 0.86613 0.90228 0.0
H978 H 0.53319 0.85597 0.89919 0.0
H979 H 0.48888 0.84923 0.86848 0.0
H980 H 0.48776 0.87966 0.77672 0.0
H981 H 0.5391 0.89619 0.78129 0.0
C982 C 0.5743 0.88775 0.82949 0.0
C983 C 0.58989 0.88135 0.85611 0.0
C984 C 0.54388 0.88187 0.82761 0.0
C985 C 0.57432 0.87103 0.8814 0.0
C986 C 0.54427 0.86509 0.87967 0.0
C987 C 0.49974 0.86026 0.84982 0.0
C988 C 0.48486 0.86342 0.8224 0.0
C989 C 0.52907 0.86952 0.85266 0.0
C990 C 0.49891 0.87742 0.79815 0.0
C991 C 0.52828 0.88659 0.80071 0.0
H992 H 0.92486 0.14363 0.3763 0.0
H993 H 0.90702 0.11336 0.28599 0.0
H994 H 0.95932 0.11843 0.27324 0.0
H995 H 0.01012 0.13418 0.28746 0.0
H996 H 0.02553 0.16748 0.37708 0.0
H997 H 0.9744 0.15808 0.3906 0.0
C998 C 0.93234 0.13794 0.35383 0.0
C999 C 0.91202 0.12818 0.33213 0.0
C1000 C 0.96216 0.14134 0.34661 0.0
C1001 C 0.92219 0.12101 0.30312 0.0
C1002 C 0.95211 0.12388 0.29583 0.0
C1003 C 0.00222 0.13883 0.31002 0.0
C1004 C 0.02145 0.15119 0.33143 0.0
C1005 C 0.97231 0.13432 0.31734 0.0
C1006 C 0.01104 0.15778 0.3604 0.0
C1007 C 0.98181 0.15254 0.36808 0.0
H1008 H 0.07019 0.61535 0.11759 0.0
H1009 H 0.09428 0.64653 0.20612 0.0
H1010 H 0.04267 0.65533 0.21817 0.0
H1011 H 0.99129 0.65867 0.20186 0.0
H1012 H 0.96601 0.62561 0.11467 0.0
H1013 H 0.01741 0.61246 0.10377 0.0
C1014 C 0.06402 0.6238 0.13957 0.0
C1015 C 0.08594 0.63069 0.1608 0.0
C1016 C 0.03417 0.62834 0.14657 0.0
C1017 C 0.07776 0.64116 0.18939 0.0
C1018 C 0.04828 0.64625 0.19629 0.0
C1019 C 0.99706 0.64787 0.18081 0.0
C1020 C 0.97526 0.64291 0.15909 0.0
C1021 C 0.02641 0.64048 0.17486 0.0
C1022 C 0.98262 0.62915 0.13179 0.0
C1023 C 0.01197 0.62198 0.12549 0.0
H1024 H 0.42289 0.39229 0.68582 0.0
H1025 H 0.41256 0.3391 0.6055 0.0
H1026 H 0.46429 0.32624 0.60652 0.0
H1027 H 0.51197 0.32731 0.63131 0.0
H1028 H 0.5252 0.38209 0.70964 0.0
H1029 H 0.47323 0.39739 0.70816 0.0
C1030 C 0.43209 0.37809 0.66849 0.0
C1031 C 0.41367 0.36654 0.64576 0.0
C1032 C 0.46243 0.37102 0.66881 0.0
C1033 C 0.42605 0.34839 0.62327 0.0
C1034 C 0.45572 0.34088 0.62381 0.0
C1035 C 0.50353 0.34286 0.64789 0.0
C1036 C 0.52218 0.35339 0.67066 0.0
C1037 C 0.47399 0.3517 0.64663 0.0
C1038 C 0.51118 0.3738 0.6918 0.0
C1039 C 0.48144 0.38236 0.69105 0.0
H1040 H 0.81557 0.56934 0.90403 0.0
H1041 H 0.89818 0.57534 0.85628 0.0
H1042 H 0.89838 0.52207 0.84851 0.0
H1043 H 0.87274 0.47457 0.84998 0.0
H1044 H 0.79124 0.46636 0.89849 0.0
H1045 H 0.79313 0.51938 0.91179 0.0
C1046 C 0.83373 0.55887 0.89228 0.0
C1047 C 0.85655 0.57646 0.88036 0.0
C1048 C 0.83395 0.5278 0.88802 0.0
C1049 C 0.88016 0.5625 0.86552 0.0
C1050 C 0.88036 0.53195 0.86099 0.0
C1051 C 0.85584 0.4843 0.86417 0.0
C1052 C 0.83197 0.46689 0.87335 0.0
C1053 C 0.85707 0.51453 0.87145 0.0
C1054 C 0.81003 0.47947 0.89157 0.0
C1055 C 0.81096 0.5098 0.89883 0.0
H1056 H 0.32012 0.91867 0.07643 0.0
H1057 H 0.40656 0.91678 0.11667 0.0
H1058 H 0.40312 0.96948 0.12814 0.0
H1059 H 0.3727 0.0142 0.13346 0.0
H1060 H 0.28726 0.01759 0.09189 0.0
H1061 H 0.2931 0.9663 0.07399 0.0
C1062 C 0.33844 0.92997 0.08709 0.0
C1063 C 0.36329 0.91368 0.0962 0.0
C1064 C 0.33634 0.96044 0.0937 0.0
C1065 C 0.38704 0.92868 0.10964 0.0
C1066 C 0.38506 0.95884 0.11639 0.0
C1067 C 0.35574 0.00381 0.11985 0.0
C1068 C 0.32958 0.01916 0.11404 0.0
C1069 C 0.35939 0.97462 0.10958 0.0
C1070 C 0.30763 0.00592 0.09639 0.0
C1071 C 0.31091 0.97663 0.08637 0.0
H1072 H 0.2128 0.98171 0.65232 0.0
H1073 H 0.12771 0.95718 0.61779 0.0
H1074 H 0.11879 0.00875 0.60234 0.0
H1075 H 0.13294 0.06156 0.60514 0.0
H1076 H 0.21877 0.08559 0.63861 0.0
H1077 H 0.23007 0.03325 0.64769 0.0
C1078 C 0.19269 0.98766 0.64062 0.0
C1079 C 0.17088 0.96611 0.63606 0.0
C1080 C 0.18782 0.01715 0.63205 0.0
C1081 C 0.14481 0.97362 0.62111 0.0
C1082 C 0.13966 0.00306 0.6126 0.0
C1083 C 0.15426 0.05522 0.61401 0.0
C1084 C 0.17484 0.07725 0.62176 0.0
C1085 C 0.16061 0.02515 0.61896 0.0
C1086 C 0.20259 0.06893 0.63267 0.0
C1087 C 0.20899 0.03907 0.63795 0.0
H1088 H 0.61573 0.42669 0.35292 0.0
H1089 H 0.69287 0.42489 0.40938 0.0
H1090 H 0.70122 0.47779 0.3997 0.0
H1091 H 0.68932 0.52307 0.37073 0.0
H1092 H 0.61554 0.52216 0.30981 0.0
H1093 H 0.60282 0.47188 0.32584 0.0
C1094 C 0.63407 0.43799 0.36356 0.0
C1095 C 0.65366 0.42203 0.38183 0.0
C1096 C 0.63939 0.46787 0.35685 0.0
C1097 C 0.67755 0.43681 0.39516 0.0
C1098 C 0.68235 0.46698 0.38957 0.0
C1099 C 0.6702 0.51192 0.36147 0.0
C1100 C 0.6533 0.52603 0.33924 0.0
C1101 C 0.66384 0.48254 0.36981 0.0
C1102 C 0.62884 0.51147 0.3269 0.0
C1103 C 0.6216 0.4828 0.33602 0.0
loop_
_geom_bond_atom_site_label_1
_geom_bond_atom_site_label_2
_geom_bond_distance
_geom_bond_site_symmetry_2
_ccdc_geom_bond_type
Co0 O1 2.216 . S
Co0 O2 2.091 . S
Co0 O4 2.004 . S
Co0 O10 2.021 . S
Co0 O12 2.137 . S
Co0 O13 2.244 . S
O1 Co0 2.216 . S
O1 C8 1.247 . S
O2 Co0 2.091 . S
O2 C8 1.261 . S
C3 O12 1.247 . S
C3 O13 1.272 . S
O4 Co0 2.004 . S
O4 C9 1.259 . S
Co5 O6 2.061 . S
Co5 O11 2.052 . S
Co5 O13 2.135 . S
O6 Co5 2.061 . S
O6 C9 1.235 . S
C7 O10 1.238 . S
C7 O11 1.241 . S
C8 O1 1.247 . S
C8 O2 1.261 . S
C9 O4 1.259 . S
C9 O6 1.235 . S
O10 Co0 2.021 . S
O10 C7 1.238 . S
O11 Co5 2.052 . S
O11 C7 1.241 . S
O12 Co0 2.137 . S
O12 C3 1.247 . S
O13 Co0 2.244 . S
O13 C3 1.272 . S
O13 Co5 2.135 . S
Co14 O15 2.216 . S
Co14 O16 2.091 . S
Co14 O18 2.004 . S
Co14 O24 2.021 . S
Co14 O26 2.137 . S
Co14 O27 2.244 . S
O15 Co14 2.216 . S
O15 C22 1.247 . S
O16 Co14 2.091 . S
O16 C22 1.261 . S
C17 O26 1.247 . S
C17 O27 1.272 . S
O18 Co14 2.004 . S
O18 C23 1.259 . S
Co19 O20 2.061 . S
Co19 O25 2.052 . S
Co19 O27 2.135 . S
O20 Co19 2.061 . S
O20 C23 1.235 . S
C21 O24 1.238 . S
C21 O25 1.241 . S
C22 O15 1.247 . S
C22 O16 1.261 . S
C23 O18 1.259 . S
C23 O20 1.235 . S
O24 Co14 2.021 . S
O24 C21 1.238 . S
O25 Co19 2.052 . S
O25 C21 1.241 . S
O26 Co14 2.137 . S
O26 C17 1.247 . S
O27 Co14 2.244 . S
O27 C17 1.272 . S
O27 Co19 2.135 . S
Co28 O29 2.216 . S
Co28 O30 2.091 . S
Co28 O32 2.004 . S
Co28 O38 2.021 . S
Co28 O40 2.137 . S
Co28 O41 2.244 . S
O29 Co28 2.216 . S
O29 C36 1.247 . S
O30 Co28 2.091 . S
O30 C36 1.261 . S
C31 O40 1.247 . S
C31 O41 1.272 . S
O32 Co28 2.004 . S
O32 C37 1.259 . S
Co33 O34 2.061 . S
Co33 O39 2.052 . S
Co33 O41 2.135 . S
O34 Co33 2.061 . S
O34 C37 1.235 . S
C35 O38 1.238 . S
C35 O39 1.241 . S
C36 O29 1.247 . S
C36 O30 1.261 . S
C37 O32 1.259 . S
C37 O34 1.235 . S
O38 Co28 2.021 . S
O38 C35 1.238 . S
O39 Co33 2.052 . S
O39 C35 1.241 . S
O40 Co28 2.137 . S
O40 C31 1.247 . S
O41 Co28 2.244 . S
O41 C31 1.272 . S
O41 Co33 2.135 . S
Co42 O43 2.216 . S
Co42 O44 2.091 . S
Co42 O46 2.004 . S
Co42 O52 2.021 . S
Co42 O54 2.137 . S
Co42 O55 2.244 . S
O43 Co42 2.216 . S
O43 C50 1.247 . S
O44 Co42 2.091 . S
O44 C50 1.261 . S
C45 O54 1.247 . S
C45 O55 1.272 . S
O46 Co42 2.004 . S
O46 C51 1.259 . S
Co47 O48 2.061 . S
Co47 O53 2.052 . S
Co47 O55 2.135 . S
O48 Co47 2.061 . S
O48 C51 1.235 . S
C49 O52 1.238 . S
C49 O53 1.241 . S
C50 O43 1.247 . S
C50 O44 1.261 . S
C51 O46 1.259 . S
C51 O48 1.235 . S
O52 Co42 2.021 . S
O52 C49 1.238 . S
O53 Co47 2.052 . S
O53 C49 1.241 . S
O54 Co42 2.137 . S
O54 C45 1.247 . S
O55 Co42 2.244 . S
O55 C45 1.272 . S
O55 Co47 2.135 . S
Co56 O57 2.216 . S
Co56 O58 2.091 . S
Co56 O60 2.004 . S
Co56 O66 2.021 . S
Co56 O68 2.137 . S
Co56 O69 2.244 . S
O57 Co56 2.216 . S
O57 C64 1.247 . S
O58 Co56 2.091 . S
O58 C64 1.261 . S
C59 O68 1.247 . S
C59 O69 1.272 . S
O60 Co56 2.004 . S
O60 C65 1.259 . S
Co61 O62 2.061 . S
Co61 O67 2.052 . S
Co61 O69 2.135 . S
O62 Co61 2.061 . S
O62 C65 1.235 . S
C63 O66 1.238 . S
C63 O67 1.241 . S
C64 O57 1.247 . S
C64 O58 1.261 . S
C65 O60 1.259 . S
C65 O62 1.235 . S
O66 Co56 2.021 . S
O66 C63 1.238 . S
O67 Co61 2.052 . S
O67 C63 1.241 . S
O68 Co56 2.137 . S
O68 C59 1.247 . S
O69 Co56 2.244 . S
O69 C59 1.272 . S
O69 Co61 2.135 . S
Co70 O71 2.216 . S
Co70 O72 2.091 . S
Co70 O74 2.004 . S
Co70 O80 2.021 . S
Co70 O82 2.137 . S
Co70 O83 2.244 . S
O71 Co70 2.216 . S
O71 C78 1.247 . S
O72 Co70 2.091 . S
O72 C78 1.261 . S
C73 O82 1.247 . S
C73 O83 1.272 . S
O74 Co70 2.004 . S
O74 C79 1.259 . S
Co75 O76 2.061 . S
Co75 O81 2.052 . S
Co75 O83 2.135 . S
O76 Co75 2.061 . S
O76 C79 1.235 . S
C77 O80 1.238 . S
C77 O81 1.241 . S
C78 O71 1.247 . S
C78 O72 1.261 . S
C79 O74 1.259 . S
C79 O76 1.235 . S
O80 Co70 2.021 . S
O80 C77 1.238 . S
O81 Co75 2.052 . S
O81 C77 1.241 . S
O82 Co70 2.137 . S
O82 C73 1.247 . S
O83 Co70 2.244 . S
O83 C73 1.272 . S
O83 Co75 2.135 . S
Co84 O85 2.216 . S
Co84 O86 2.091 . S
Co84 O88 2.004 . S
Co84 O94 2.021 . S
Co84 O96 2.137 . S
Co84 O97 2.244 . S
O85 Co84 2.216 . S
O85 C92 1.247 . S
O86 Co84 2.091 . S
O86 C92 1.261 . S
C87 O96 1.247 . S
C87 O97 1.272 . S
O88 Co84 2.004 . S
O88 C93 1.259 . S
Co89 O90 2.061 . S
Co89 O95 2.052 . S
Co89 O97 2.135 . S
O90 Co89 2.061 . S
O90 C93 1.235 . S
C91 O94 1.238 . S
C91 O95 1.241 . S
C92 O85 1.247 . S
C92 O86 1.261 . S
C93 O88 1.259 . S
C93 O90 1.235 . S
O94 Co84 2.021 . S
O94 C91 1.238 . S
O95 Co89 2.052 . S
O95 C91 1.241 . S
O96 Co84 2.137 . S
O96 C87 1.247 . S
O97 Co84 2.244 . S
O97 C87 1.272 . S
O97 Co89 2.135 . S
Co98 O99 2.216 . S
Co98 O100 2.091 . S
Co98 O102 2.004 . S
Co98 O108 2.021 . S
Co98 O110 2.137 . S
Co98 O111 2.244 . S
O99 Co98 2.216 . S
O99 C106 1.247 . S
O100 Co98 2.091 . S
O100 C106 1.261 . S
C101 O110 1.247 . S
C101 O111 1.272 . S
O102 Co98 2.004 . S
O102 C107 1.259 . S
Co103 O104 2.061 . S
Co103 O109 2.052 . S
Co103 O111 2.135 . S
O104 Co103 2.061 . S
O104 C107 1.235 . S
C105 O108 1.238 . S
C105 O109 1.241 . S
C106 O99 1.247 . S
C106 O100 1.261 . S
C107 O102 1.259 . S
C107 O104 1.235 . S
O108 Co98 2.021 . S
O108 C105 1.238 . S
O109 Co103 2.052 . S
O109 C105 1.241 . S
O110 Co98 2.137 . S
O110 C101 1.247 . S
O111 Co98 2.244 . S
O111 C101 1.272 . S
O111 Co103 2.135 . S
Co112 O113 2.216 . S
Co112 O114 2.091 . S
Co112 O116 2.004 . S
Co112 O122 2.021 . S
Co112 O124 2.137 . S
Co112 O125 2.244 . S
O113 Co112 2.216 . S
O113 C120 1.247 . S
O114 Co112 2.091 . S
O114 C120 1.261 . S
C115 O124 1.247 . S
C115 O125 1.272 . S
O116 Co112 2.004 . S
O116 C121 1.259 . S
Co117 O118 2.061 . S
Co117 O123 2.052 . S
Co117 O125 2.135 . S
O118 Co117 2.061 . S
O118 C121 1.235 . S
C119 O122 1.238 . S
C119 O123 1.241 . S
C120 O113 1.247 . S
C120 O114 1.261 . S
C121 O116 1.259 . S
C121 O118 1.235 . S
O122 Co112 2.021 . S
O122 C119 1.238 . S
O123 Co117 2.052 . S
O123 C119 1.241 . S
O124 Co112 2.137 . S
O124 C115 1.247 . S
O125 Co112 2.244 . S
O125 C115 1.272 . S
O125 Co117 2.135 . S
Co126 O127 2.216 . S
Co126 O128 2.091 . S
Co126 O130 2.004 . S
Co126 O136 2.021 . S
Co126 O138 2.137 . S
Co126 O139 2.244 . S
O127 Co126 2.216 . S
O127 C134 1.247 . S
O128 Co126 2.091 . S
O128 C134 1.261 . S
C129 O138 1.247 . S
C129 O139 1.272 . S
O130 Co126 2.004 . S
O130 C135 1.259 . S
Co131 O132 2.061 . S
Co131 O137 2.052 . S
Co131 O139 2.135 . S
O132 Co131 2.061 . S
O132 C135 1.235 . S
C133 O136 1.238 . S
C133 O137 1.241 . S
C134 O127 1.247 . S
C134 O128 1.261 . S
C135 O130 1.259 . S
C135 O132 1.235 . S
O136 Co126 2.021 . S
O136 C133 1.238 . S
O137 Co131 2.052 . S
O137 C133 1.241 . S
O138 Co126 2.137 . S
O138 C129 1.247 . S
O139 Co126 2.244 . S
O139 C129 1.272 . S
O139 Co131 2.135 . S
Co140 O141 2.216 . S
Co140 O142 2.091 . S
Co140 O144 2.004 . S
Co140 O150 2.021 . S
Co140 O152 2.137 . S
Co140 O153 2.244 . S
O141 Co140 2.216 . S
O141 C148 1.247 . S
O142 Co140 2.091 . S
O142 C148 1.261 . S
C143 O152 1.247 . S
C143 O153 1.272 . S
O144 Co140 2.004 . S
O144 C149 1.259 . S
Co145 O146 2.061 . S
Co145 O151 2.052 . S
Co145 O153 2.135 . S
O146 Co145 2.061 . S
O146 C149 1.235 . S
C147 O150 1.238 . S
C147 O151 1.241 . S
C148 O141 1.247 . S
C148 O142 1.261 . S
C149 O144 1.259 . S
C149 O146 1.235 . S
O150 Co140 2.021 . S
O150 C147 1.238 . S
O151 Co145 2.052 . S
O151 C147 1.241 . S
O152 Co140 2.137 . S
O152 C143 1.247 . S
O153 Co140 2.244 . S
O153 C143 1.272 . S
O153 Co145 2.135 . S
Co154 O155 2.216 . S
Co154 O156 2.091 . S
Co154 O158 2.004 . S
Co154 O164 2.021 . S
Co154 O166 2.137 . S
Co154 O167 2.244 . S
O155 Co154 2.216 . S
O155 C162 1.247 . S
O156 Co154 2.091 . S
O156 C162 1.261 . S
C157 O166 1.247 . S
C157 O167 1.272 . S
O158 Co154 2.004 . S
O158 C163 1.259 . S
Co159 O160 2.061 . S
Co159 O165 2.052 . S
Co159 O167 2.135 . S
O160 Co159 2.061 . S
O160 C163 1.235 . S
C161 O164 1.238 . S
C161 O165 1.241 . S
C162 O155 1.247 . S
C162 O156 1.261 . S
C163 O158 1.259 . S
C163 O160 1.235 . S
O164 Co154 2.021 . S
O164 C161 1.238 . S
O165 Co159 2.052 . S
O165 C161 1.241 . S
O166 Co154 2.137 . S
O166 C157 1.247 . S
O167 Co154 2.244 . S
O167 C157 1.272 . S
O167 Co159 2.135 . S
Co168 O169 2.216 . S
Co168 O170 2.091 . S
Co168 O172 2.004 . S
Co168 O178 2.021 . S
Co168 O180 2.137 . S
Co168 O181 2.244 . S
O169 Co168 2.216 . S
O169 C176 1.247 . S
O170 Co168 2.091 . S
O170 C176 1.261 . S
C171 O180 1.247 . S
C171 O181 1.272 . S
O172 Co168 2.004 . S
O172 C177 1.259 . S
Co173 O174 2.061 . S
Co173 O179 2.052 . S
Co173 O181 2.135 . S
O174 Co173 2.061 . S
O174 C177 1.235 . S
C175 O178 1.238 . S
C175 O179 1.241 . S
C176 O169 1.247 . S
C176 O170 1.261 . S
C177 O172 1.259 . S
C177 O174 1.235 . S
O178 Co168 2.021 . S
O178 C175 1.238 . S
O179 Co173 2.052 . S
O179 C175 1.241 . S
O180 Co168 2.137 . S
O180 C171 1.247 . S
O181 Co168 2.244 . S
O181 C171 1.272 . S
O181 Co173 2.135 . S
Co182 O183 2.216 . S
Co182 O184 2.091 . S
Co182 O186 2.004 . S
Co182 O192 2.021 . S
Co182 O194 2.137 . S
Co182 O195 2.244 . S
O183 Co182 2.216 . S
O183 C190 1.247 . S
O184 Co182 2.091 . S
O184 C190 1.261 . S
C185 O194 1.247 . S
C185 O195 1.272 . S
O186 Co182 2.004 . S
O186 C191 1.259 . S
Co187 O188 2.061 . S
Co187 O193 2.052 . S
Co187 O195 2.135 . S
O188 Co187 2.061 . S
O188 C191 1.235 . S
C189 O192 1.238 . S
C189 O193 1.241 . S
C190 O183 1.247 . S
C190 O184 1.261 . S
C191 O186 1.259 . S
C191 O188 1.235 . S
O192 Co182 2.021 . S
O192 C189 1.238 . S
O193 Co187 2.052 . S
O193 C189 1.241 . S
O194 Co182 2.137 . S
O194 C185 1.247 . S
O195 Co182 2.244 . S
O195 C185 1.272 . S
O195 Co187 2.135 . S
Co196 O197 2.216 . S
Co196 O198 2.091 . S
Co196 O200 2.004 . S
Co196 O206 2.021 . S
Co196 O208 2.137 . S
Co196 O209 2.244 . S
O197 Co196 2.216 . S
O197 C204 1.247 . S
O198 Co196 2.091 . S
O198 C204 1.261 . S
C199 O208 1.247 . S
C199 O209 1.272 . S
O200 Co196 2.004 . S
O200 C205 1.259 . S
Co201 O202 2.061 . S
Co201 O207 2.052 . S
Co201 O209 2.135 . S
O202 Co201 2.061 . S
O202 C205 1.235 . S
C203 O206 1.238 . S
C203 O207 1.241 . S
C204 O197 1.247 . S
C204 O198 1.261 . S
C205 O200 1.259 . S
C205 O202 1.235 . S
O206 Co196 2.021 . S
O206 C203 1.238 . S
O207 Co201 2.052 . S
O207 C203 1.241 . S
O208 Co196 2.137 . S
O208 C199 1.247 . S
O209 Co196 2.244 . S
O209 C199 1.272 . S
O209 Co201 2.135 . S
Co210 O211 2.216 . S
Co210 O212 2.091 . S
Co210 O214 2.004 . S
Co210 O220 2.021 . S
Co210 O222 2.137 . S
Co210 O223 2.244 . S
O211 Co210 2.216 . S
O211 C218 1.247 . S
O212 Co210 2.091 . S
O212 C218 1.261 . S
C213 O222 1.247 . S
C213 O223 1.272 . S
O214 Co210 2.004 . S
O214 C219 1.259 . S
Co215 O216 2.061 . S
Co215 O221 2.052 . S
Co215 O223 2.135 . S
O216 Co215 2.061 . S
O216 C219 1.235 . S
C217 O220 1.238 . S
C217 O221 1.241 . S
C218 O211 1.247 . S
C218 O212 1.261 . S
C219 O214 1.259 . S
C219 O216 1.235 . S
O220 Co210 2.021 . S
O220 C217 1.238 . S
O221 Co215 2.052 . S
O221 C217 1.241 . S
O222 Co210 2.137 . S
O222 C213 1.247 . S
O223 Co210 2.244 . S
O223 C213 1.272 . S
O223 Co215 2.135 . S
Co224 O225 2.216 . S
Co224 O226 2.091 . S
Co224 O228 2.004 . S
Co224 O234 2.021 . S
Co224 O236 2.137 . S
Co224 O237 2.244 . S
O225 Co224 2.216 . S
O225 C232 1.247 . S
O226 Co224 2.091 . S
O226 C232 1.261 . S
C227 O236 1.247 . S
C227 O237 1.272 . S
O228 Co224 2.004 . S
O228 C233 1.259 . S
Co229 O230 2.061 . S
Co229 O235 2.052 . S
Co229 O237 2.135 . S
O230 Co229 2.061 . S
O230 C233 1.235 . S
C231 O234 1.238 . S
C231 O235 1.241 . S
C232 O225 1.247 . S
C232 O226 1.261 . S
C233 O228 1.259 . S
C233 O230 1.235 . S
O234 Co224 2.021 . S
O234 C231 1.238 . S
O235 Co229 2.052 . S
O235 C231 1.241 . S
O236 Co224 2.137 . S
O236 C227 1.247 . S
O237 Co224 2.244 . S
O237 C227 1.272 . S
O237 Co229 2.135 . S
Co238 O239 2.216 . S
Co238 O240 2.091 . S
Co238 O242 2.004 . S
Co238 O248 2.021 . S
Co238 O250 2.137 . S
Co238 O251 2.244 . S
O239 Co238 2.216 . S
O239 C246 1.247 . S
O240 Co238 2.091 . S
O240 C246 1.261 . S
C241 O250 1.247 . S
C241 O251 1.272 . S
O242 Co238 2.004 . S
O242 C247 1.259 . S
Co243 O244 2.061 . S
Co243 O249 2.052 . S
Co243 O251 2.135 . S
O244 Co243 2.061 . S
O244 C247 1.235 . S
C245 O248 1.238 . S
C245 O249 1.241 . S
C246 O239 1.247 . S
C246 O240 1.261 . S
C247 O242 1.259 . S
C247 O244 1.235 . S
O248 Co238 2.021 . S
O248 C245 1.238 . S
O249 Co243 2.052 . S
O249 C245 1.241 . S
O250 Co238 2.137 . S
O250 C241 1.247 . S
O251 Co238 2.244 . S
O251 C241 1.272 . S
O251 Co243 2.135 . S
Co252 O253 2.216 . S
Co252 O254 2.091 . S
Co252 O256 2.004 . S
Co252 O262 2.021 . S
Co252 O264 2.137 . S
Co252 O265 2.244 . S
O253 Co252 2.216 . S
O253 C260 1.247 . S
O254 Co252 2.091 . S
O254 C260 1.261 . S
C255 O264 1.247 . S
C255 O265 1.272 . S
O256 Co252 2.004 . S
O256 C261 1.259 . S
Co257 O258 2.061 . S
Co257 O263 2.052 . S
Co257 O265 2.135 . S
O258 Co257 2.061 . S
O258 C261 1.235 . S
C259 O262 1.238 . S
C259 O263 1.241 . S
C260 O253 1.247 . S
C260 O254 1.261 . S
C261 O256 1.259 . S
C261 O258 1.235 . S
O262 Co252 2.021 . S
O262 C259 1.238 . S
O263 Co257 2.052 . S
O263 C259 1.241 . S
O264 Co252 2.137 . S
O264 C255 1.247 . S
O265 Co252 2.244 . S
O265 C255 1.272 . S
O265 Co257 2.135 . S
Co266 O267 2.216 . S
Co266 O268 2.091 . S
Co266 O270 2.004 . S
Co266 O276 2.021 . S
Co266 O278 2.137 . S
Co266 O279 2.244 . S
O267 Co266 2.216 . S
O267 C274 1.247 . S
O268 Co266 2.091 . S
O268 C274 1.261 . S
C269 O278 1.247 . S
C269 O279 1.272 . S
O270 Co266 2.004 . S
O270 C275 1.259 . S
Co271 O272 2.061 . S
Co271 O277 2.052 . S
Co271 O279 2.135 . S
O272 Co271 2.061 . S
O272 C275 1.235 . S
C273 O276 1.238 . S
C273 O277 1.241 . S
C274 O267 1.247 . S
C274 O268 1.261 . S
C275 O270 1.259 . S
C275 O272 1.235 . S
O276 Co266 2.021 . S
O276 C273 1.238 . S
O277 Co271 2.052 . S
O277 C273 1.241 . S
O278 Co266 2.137 . S
O278 C269 1.247 . S
O279 Co266 2.244 . S
O279 C269 1.272 . S
O279 Co271 2.135 . S
Co280 O281 2.216 . S
Co280 O282 2.091 . S
Co280 O284 2.004 . S
Co280 O290 2.021 . S
Co280 O292 2.137 . S
Co280 O293 2.244 . S
O281 Co280 2.216 . S
O281 C288 1.247 . S
O282 Co280 2.091 . S
O282 C288 1.261 . S
C283 O292 1.247 . S
C283 O293 1.272 . S
O284 Co280 2.004 . S
O284 C289 1.259 . S
Co285 O286 2.061 . S
Co285 O291 2.052 . S
Co285 O293 2.135 . S
O286 Co285 2.061 . S
O286 C289 1.235 . S
C287 O290 1.238 . S
C287 O291 1.241 . S
C288 O281 1.247 . S
C288 O282 1.261 . S
C289 O284 1.259 . S
C289 O286 1.235 . S
O290 Co280 2.021 . S
O290 C287 1.238 . S
O291 Co285 2.052 . S
O291 C287 1.241 . S
O292 Co280 2.137 . S
O292 C283 1.247 . S
O293 Co280 2.244 . S
O293 C283 1.272 . S
O293 Co285 2.135 . S
Co294 O295 2.216 . S
Co294 O296 2.091 . S
Co294 O298 2.004 . S
Co294 O304 2.021 . S
Co294 O306 2.137 . S
Co294 O307 2.244 . S
O295 Co294 2.216 . S
O295 C302 1.247 . S
O296 Co294 2.091 . S
O296 C302 1.261 . S
C297 O306 1.247 . S
C297 O307 1.272 . S
O298 Co294 2.004 . S
O298 C303 1.259 . S
Co299 O300 2.061 . S
Co299 O305 2.052 . S
Co299 O307 2.135 . S
O300 Co299 2.061 . S
O300 C303 1.235 . S
C301 O304 1.238 . S
C301 O305 1.241 . S
C302 O295 1.247 . S
C302 O296 1.261 . S
C303 O298 1.259 . S
C303 O300 1.235 . S
O304 Co294 2.021 . S
O304 C301 1.238 . S
O305 Co299 2.052 . S
O305 C301 1.241 . S
O306 Co294 2.137 . S
O306 C297 1.247 . S
O307 Co294 2.244 . S
O307 C297 1.272 . S
O307 Co299 2.135 . S
Co308 O309 2.216 . S
Co308 O310 2.091 . S
Co308 O312 2.004 . S
Co308 O318 2.021 . S
Co308 O320 2.137 . S
Co308 O321 2.244 . S
O309 Co308 2.216 . S
O309 C316 1.247 . S
O310 Co308 2.091 . S
O310 C316 1.261 . S
C311 O320 1.247 . S
C311 O321 1.272 . S
O312 Co308 2.004 . S
O312 C317 1.259 . S
Co313 O314 2.061 . S
Co313 O319 2.052 . S
Co313 O321 2.135 . S
O314 Co313 2.061 . S
O314 C317 1.235 . S
C315 O318 1.238 . S
C315 O319 1.241 . S
C316 O309 1.247 . S
C316 O310 1.261 . S
C317 O312 1.259 . S
C317 O314 1.235 . S
O318 Co308 2.021 . S
O318 C315 1.238 . S
O319 Co313 2.052 . S
O319 C315 1.241 . S
O320 Co308 2.137 . S
O320 C311 1.247 . S
O321 Co308 2.244 . S
O321 C311 1.272 . S
O321 Co313 2.135 . S
Co322 O323 2.216 . S
Co322 O324 2.091 . S
Co322 O326 2.004 . S
Co322 O332 2.021 . S
Co322 O334 2.137 . S
Co322 O335 2.244 . S
O323 Co322 2.216 . S
O323 C330 1.247 . S
O324 Co322 2.091 . S
O324 C330 1.261 . S
C325 O334 1.247 . S
C325 O335 1.272 . S
O326 Co322 2.004 . S
O326 C331 1.259 . S
Co327 O328 2.061 . S
Co327 O333 2.052 . S
Co327 O335 2.135 . S
O328 Co327 2.061 . S
O328 C331 1.235 . S
C329 O332 1.238 . S
C329 O333 1.241 . S
C330 O323 1.247 . S
C330 O324 1.261 . S
C331 O326 1.259 . S
C331 O328 1.235 . S
O332 Co322 2.021 . S
O332 C329 1.238 . S
O333 Co327 2.052 . S
O333 C329 1.241 . S
O334 Co322 2.137 . S
O334 C325 1.247 . S
O335 Co322 2.244 . S
O335 C325 1.272 . S
O335 Co327 2.135 . S
H336 C342 0.930 . S
H337 C345 0.930 . S
H338 C346 0.930 . S
H339 C347 0.930 . S
H340 C350 0.930 . S
H341 C351 0.930 . S
C342 H336 0.930 . S
C342 C343 1.355 . S
C342 C344 1.415 . S
C343 C342 1.355 . S
C343 C345 1.419 . S
C344 C342 1.415 . S
C344 C349 1.425 . S
C344 C351 1.409 . S
C345 H337 0.930 . S
C345 C343 1.419 . S
C345 C346 1.362 . S
C346 H338 0.930 . S
C346 C345 1.362 . S
C346 C349 1.409 . S
C347 H339 0.930 . S
C347 C348 1.355 . S
C347 C349 1.415 . S
C348 C347 1.355 . S
C348 C350 1.419 . S
C349 C344 1.425 . S
C349 C346 1.409 . S
C349 C347 1.415 . S
C350 H340 0.930 . S
C350 C348 1.419 . S
C350 C351 1.362 . S
C351 H341 0.930 . S
C351 C344 1.409 . S
C351 C350 1.362 . S
H352 C358 0.930 . S
H353 C361 0.930 . S
H354 C362 0.930 . S
H355 C363 0.930 . S
H356 C366 0.930 . S
H357 C367 0.930 . S
C358 H352 0.930 . S
C358 C359 1.355 . S
C358 C360 1.415 . S
C359 C358 1.355 . S
C359 C361 1.419 . S
C360 C358 1.415 . S
C360 C365 1.425 . S
C360 C367 1.409 . S
C361 H353 0.930 . S
C361 C359 1.419 . S
C361 C362 1.362 . S
C362 H354 0.930 . S
C362 C361 1.362 . S
C362 C365 1.409 . S
C363 H355 0.930 . S
C363 C364 1.355 . S
C363 C365 1.415 . S
C364 C363 1.355 . S
C364 C366 1.419 . S
C365 C360 1.425 . S
C365 C362 1.409 . S
C365 C363 1.415 . S
C366 H356 0.930 . S
C366 C364 1.419 . S
C366 C367 1.362 . S
C367 H357 0.930 . S
C367 C360 1.409 . S
C367 C366 1.362 . S
H368 C374 0.930 . S
H369 C377 0.930 . S
H370 C378 0.930 . S
H371 C379 0.930 . S
H372 C382 0.930 . S
H373 C383 0.930 . S
C374 H368 0.930 . S
C374 C375 1.355 . S
C374 C376 1.415 . S
C375 C374 1.355 . S
C375 C377 1.419 . S
C376 C374 1.415 . S
C376 C381 1.425 . S
C376 C383 1.409 . S
C377 H369 0.930 . S
C377 C375 1.419 . S
C377 C378 1.362 . S
C378 H370 0.930 . S
C378 C377 1.362 . S
C378 C381 1.409 . S
C379 H371 0.930 . S
C379 C380 1.355 . S
C379 C381 1.415 . S
C380 C379 1.355 . S
C380 C382 1.419 . S
C381 C376 1.425 . S
C381 C378 1.409 . S
C381 C379 1.415 . S
C382 H372 0.930 . S
C382 C380 1.419 . S
C382 C383 1.362 . S
C383 H373 0.930 . S
C383 C376 1.409 . S
C383 C382 1.362 . S
H384 C390 0.930 . S
H385 C393 0.930 . S
H386 C394 0.930 . S
H387 C395 0.930 . S
H388 C398 0.930 . S
H389 C399 0.930 . S
C390 H384 0.930 . S
C390 C391 1.355 . S
C390 C392 1.415 . S
C391 C390 1.355 . S
C391 C393 1.419 . S
C392 C390 1.415 . S
C392 C397 1.425 . S
C392 C399 1.409 . S
C393 H385 0.930 . S
C393 C391 1.419 . S
C393 C394 1.362 . S
C394 H386 0.930 . S
C394 C393 1.362 . S
C394 C397 1.409 . S
C395 H387 0.930 . S
C395 C396 1.355 . S
C395 C397 1.415 . S
C396 C395 1.355 . S
C396 C398 1.419 . S
C397 C392 1.425 . S
C397 C394 1.409 . S
C397 C395 1.415 . S
C398 H388 0.930 . S
C398 C396 1.419 . S
C398 C399 1.362 . S
C399 H389 0.930 . S
C399 C392 1.409 . S
C399 C398 1.362 . S
H400 C406 0.930 . S
H401 C409 0.930 . S
H402 C410 0.930 . S
H403 C411 0.930 . S
H404 C414 0.930 . S
H405 C415 0.930 . S
C406 H400 0.930 . S
C406 C407 1.355 . S
C406 C408 1.415 . S
C407 C406 1.355 . S
C407 C409 1.419 . S
C408 C406 1.415 . S
C408 C413 1.425 . S
C408 C415 1.409 . S
C409 H401 0.930 . S
C409 C407 1.419 . S
C409 C410 1.362 . S
C410 H402 0.930 . S
C410 C409 1.362 . S
C410 C413 1.409 . S
C411 H403 0.930 . S
C411 C412 1.355 . S
C411 C413 1.415 . S
C412 C411 1.355 . S
C412 C414 1.419 . S
C413 C408 1.425 . S
C413 C410 1.409 . S
C413 C411 1.415 . S
C414 H404 0.930 . S
C414 C412 1.419 . S
C414 C415 1.362 . S
C415 H405 0.930 . S
C415 C408 1.409 . S
C415 C414 1.362 . S
H416 C422 0.930 . S
H417 C425 0.930 . S
H418 C426 0.930 . S
H419 C427 0.930 . S
H420 C430 0.930 . S
H421 C431 0.930 . S
C422 H416 0.930 . S
C422 C423 1.355 . S
C422 C424 1.415 . S
C423 C422 1.355 . S
C423 C425 1.419 . S
C424 C422 1.415 . S
C424 C429 1.425 . S
C424 C431 1.409 . S
C425 H417 0.930 . S
C425 C423 1.419 . S
C425 C426 1.362 . S
C426 H418 0.930 . S
C426 C425 1.362 . S
C426 C429 1.409 . S
C427 H419 0.930 . S
C427 C428 1.355 . S
C427 C429 1.415 . S
C428 C427 1.355 . S
C428 C430 1.419 . S
C429 C424 1.425 . S
C429 C426 1.409 . S
C429 C427 1.415 . S
C430 H420 0.930 . S
C430 C428 1.419 . S
C430 C431 1.362 . S
C431 H421 0.930 . S
C431 C424 1.409 . S
C431 C430 1.362 . S
H432 C438 0.930 . S
H433 C441 0.930 . S
H434 C442 0.930 . S
H435 C443 0.930 . S
H436 C446 0.930 . S
H437 C447 0.930 . S
C438 H432 0.930 . S
C438 C439 1.355 . S
C438 C440 1.415 . S
C439 C438 1.355 . S
C439 C441 1.419 . S
C440 C438 1.415 . S
C440 C445 1.425 . S
C440 C447 1.409 . S
C441 H433 0.930 . S
C441 C439 1.419 . S
C441 C442 1.362 . S
C442 H434 0.930 . S
C442 C441 1.362 . S
C442 C445 1.409 . S
C443 H435 0.930 . S
C443 C444 1.355 . S
C443 C445 1.415 . S
C444 C443 1.355 . S
C444 C446 1.419 . S
C445 C440 1.425 . S
C445 C442 1.409 . S
C445 C443 1.415 . S
C446 H436 0.930 . S
C446 C444 1.419 . S
C446 C447 1.362 . S
C447 H437 0.930 . S
C447 C440 1.409 . S
C447 C446 1.362 . S
H448 C454 0.930 . S
H449 C457 0.930 . S
H450 C458 0.930 . S
H451 C459 0.930 . S
H452 C462 0.930 . S
H453 C463 0.930 . S
C454 H448 0.930 . S
C454 C455 1.355 . S
C454 C456 1.415 . S
C455 C454 1.355 . S
C455 C457 1.419 . S
C456 C454 1.415 . S
C456 C461 1.425 . S
C456 C463 1.409 . S
C457 H449 0.930 . S
C457 C455 1.419 . S
C457 C458 1.362 . S
C458 H450 0.930 . S
C458 C457 1.362 . S
C458 C461 1.409 . S
C459 H451 0.930 . S
C459 C460 1.355 . S
C459 C461 1.415 . S
C460 C459 1.355 . S
C460 C462 1.419 . S
C461 C456 1.425 . S
C461 C458 1.409 . S
C461 C459 1.415 . S
C462 H452 0.930 . S
C462 C460 1.419 . S
C462 C463 1.362 . S
C463 H453 0.930 . S
C463 C456 1.409 . S
C463 C462 1.362 . S
H464 C470 0.930 . S
H465 C473 0.930 . S
H466 C474 0.930 . S
H467 C475 0.930 . S
H468 C478 0.930 . S
H469 C479 0.930 . S
C470 H464 0.930 . S
C470 C471 1.355 . S
C470 C472 1.415 . S
C471 C470 1.355 . S
C471 C473 1.419 . S
C472 C470 1.415 . S
C472 C477 1.425 . S
C472 C479 1.409 . S
C473 H465 0.930 . S
C473 C471 1.419 . S
C473 C474 1.362 . S
C474 H466 0.930 . S
C474 C473 1.362 . S
C474 C477 1.409 . S
C475 H467 0.930 . S
C475 C476 1.355 . S
C475 C477 1.415 . S
C476 C475 1.355 . S
C476 C478 1.419 . S
C477 C472 1.425 . S
C477 C474 1.409 . S
C477 C475 1.415 . S
C478 H468 0.930 . S
C478 C476 1.419 . S
C478 C479 1.362 . S
C479 H469 0.930 . S
C479 C472 1.409 . S
C479 C478 1.362 . S
H480 C486 0.930 . S
H481 C489 0.930 . S
H482 C490 0.930 . S
H483 C491 0.930 . S
H484 C494 0.930 . S
H485 C495 0.930 . S
C486 H480 0.930 . S
C486 C487 1.355 . S
C486 C488 1.415 . S
C487 C486 1.355 . S
C487 C489 1.419 . S
C488 C486 1.415 . S
C488 C493 1.425 . S
C488 C495 1.409 . S
C489 H481 0.930 . S
C489 C487 1.419 . S
C489 C490 1.362 . S
C490 H482 0.930 . S
C490 C489 1.362 . S
C490 C493 1.409 . S
C491 H483 0.930 . S
C491 C492 1.355 . S
C491 C493 1.415 . S
C492 C491 1.355 . S
C492 C494 1.419 . S
C493 C488 1.425 . S
C493 C490 1.409 . S
C493 C491 1.415 . S
C494 H484 0.930 . S
C494 C492 1.419 . S
C494 C495 1.362 . S
C495 H485 0.930 . S
C495 C488 1.409 . S
C495 C494 1.362 . S
H496 C502 0.930 . S
H497 C505 0.930 . S
H498 C506 0.930 . S
H499 C507 0.930 . S
H500 C510 0.930 . S
H501 C511 0.930 . S
C502 H496 0.930 . S
C502 C503 1.355 . S
C502 C504 1.415 . S
C503 C502 1.355 . S
C503 C505 1.419 . S
C504 C502 1.415 . S
C504 C509 1.425 . S
C504 C511 1.409 . S
C505 H497 0.930 . S
C505 C503 1.419 . S
C505 C506 1.362 . S
C506 H498 0.930 . S
C506 C505 1.362 . S
C506 C509 1.409 . S
C507 H499 0.930 . S
C507 C508 1.355 . S
C507 C509 1.415 . S
C508 C507 1.355 . S
C508 C510 1.419 . S
C509 C504 1.425 . S
C509 C506 1.409 . S
C509 C507 1.415 . S
C510 H500 0.930 . S
C510 C508 1.419 . S
C510 C511 1.362 . S
C511 H501 0.930 . S
C511 C504 1.409 . S
C511 C510 1.362 . S
H512 C518 0.930 . S
H513 C521 0.930 . S
H514 C522 0.930 . S
H515 C523 0.930 . S
H516 C526 0.930 . S
H517 C527 0.930 . S
C518 H512 0.930 . S
C518 C519 1.355 . S
C518 C520 1.415 . S
C519 C518 1.355 . S
C519 C521 1.419 . S
C520 C518 1.415 . S
C520 C525 1.425 . S
C520 C527 1.409 . S
C521 H513 0.930 . S
C521 C519 1.419 . S
C521 C522 1.362 . S
C522 H514 0.930 . S
C522 C521 1.362 . S
C522 C525 1.409 . S
C523 H515 0.930 . S
C523 C524 1.355 . S
C523 C525 1.415 . S
C524 C523 1.355 . S
C524 C526 1.419 . S
C525 C520 1.425 . S
C525 C522 1.409 . S
C525 C523 1.415 . S
C526 H516 0.930 . S
C526 C524 1.419 . S
C526 C527 1.362 . S
C527 H517 0.930 . S
C527 C520 1.409 . S
C527 C526 1.362 . S
H528 C534 0.930 . S
H529 C537 0.930 . S
H530 C538 0.930 . S
H531 C539 0.930 . S
H532 C542 0.930 . S
H533 C543 0.930 . S
C534 H528 0.930 . S
C534 C535 1.355 . S
C534 C536 1.415 . S
C535 C534 1.355 . S
C535 C537 1.419 . S
C536 C534 1.415 . S
C536 C541 1.425 . S
C536 C543 1.409 . S
C537 H529 0.930 . S
C537 C535 1.419 . S
C537 C538 1.362 . S
C538 H530 0.930 . S
C538 C537 1.362 . S
C538 C541 1.409 . S
C539 H531 0.930 . S
C539 C540 1.355 . S
C539 C541 1.415 . S
C540 C539 1.355 . S
C540 C542 1.419 . S
C541 C536 1.425 . S
C541 C538 1.409 . S
C541 C539 1.415 . S
C542 H532 0.930 . S
C542 C540 1.419 . S
C542 C543 1.362 . S
C543 H533 0.930 . S
C543 C536 1.409 . S
C543 C542 1.362 . S
H544 C550 0.930 . S
H545 C553 0.930 . S
H546 C554 0.930 . S
H547 C555 0.930 . S
H548 C558 0.930 . S
H549 C559 0.930 . S
C550 H544 0.930 . S
C550 C551 1.355 . S
C550 C552 1.415 . S
C551 C550 1.355 . S
C551 C553 1.419 . S
C552 C550 1.415 . S
C552 C557 1.425 . S
C552 C559 1.409 . S
C553 H545 0.930 . S
C553 C551 1.419 . S
C553 C554 1.362 . S
C554 H546 0.930 . S
C554 C553 1.362 . S
C554 C557 1.409 . S
C555 H547 0.930 . S
C555 C556 1.355 . S
C555 C557 1.415 . S
C556 C555 1.355 . S
C556 C558 1.419 . S
C557 C552 1.425 . S
C557 C554 1.409 . S
C557 C555 1.415 . S
C558 H548 0.930 . S
C558 C556 1.419 . S
C558 C559 1.362 . S
C559 H549 0.930 . S
C559 C552 1.409 . S
C559 C558 1.362 . S
H560 C566 0.930 . S
H561 C569 0.930 . S
H562 C570 0.930 . S
H563 C571 0.930 . S
H564 C574 0.930 . S
H565 C575 0.930 . S
C566 H560 0.930 . S
C566 C567 1.355 . S
C566 C568 1.415 . S
C567 C566 1.355 . S
C567 C569 1.419 . S
C568 C566 1.415 . S
C568 C573 1.425 . S
C568 C575 1.409 . S
C569 H561 0.930 . S
C569 C567 1.419 . S
C569 C570 1.362 . S
C570 H562 0.930 . S
C570 C569 1.362 . S
C570 C573 1.409 . S
C571 H563 0.930 . S
C571 C572 1.355 . S
C571 C573 1.415 . S
C572 C571 1.355 . S
C572 C574 1.419 . S
C573 C568 1.425 . S
C573 C570 1.409 . S
C573 C571 1.415 . S
C574 H564 0.930 . S
C574 C572 1.419 . S
C574 C575 1.362 . S
C575 H565 0.930 . S
C575 C568 1.409 . S
C575 C574 1.362 . S
H576 C582 0.930 . S
H577 C585 0.930 . S
H578 C586 0.930 . S
H579 C587 0.930 . S
H580 C590 0.930 . S
H581 C591 0.930 . S
C582 H576 0.930 . S
C582 C583 1.355 . S
C582 C584 1.415 . S
C583 C582 1.355 . S
C583 C585 1.419 . S
C584 C582 1.415 . S
C584 C589 1.425 . S
C584 C591 1.409 . S
C585 H577 0.930 . S
C585 C583 1.419 . S
C585 C586 1.362 . S
C586 H578 0.930 . S
C586 C585 1.362 . S
C586 C589 1.409 . S
C587 H579 0.930 . S
C587 C588 1.355 . S
C587 C589 1.415 . S
C588 C587 1.355 . S
C588 C590 1.419 . S
C589 C584 1.425 . S
C589 C586 1.409 . S
C589 C587 1.415 . S
C590 H580 0.930 . S
C590 C588 1.419 . S
C590 C591 1.362 . S
C591 H581 0.930 . S
C591 C584 1.409 . S
C591 C590 1.362 . S
H592 C598 0.930 . S
H593 C601 0.930 . S
H594 C602 0.930 . S
H595 C603 0.930 . S
H596 C606 0.930 . S
H597 C607 0.930 . S
C598 H592 0.930 . S
C598 C599 1.355 . S
C598 C600 1.415 . S
C599 C598 1.355 . S
C599 C601 1.419 . S
C600 C598 1.415 . S
C600 C605 1.425 . S
C600 C607 1.409 . S
C601 H593 0.930 . S
C601 C599 1.419 . S
C601 C602 1.362 . S
C602 H594 0.930 . S
C602 C601 1.362 . S
C602 C605 1.409 . S
C603 H595 0.930 . S
C603 C604 1.355 . S
C603 C605 1.415 . S
C604 C603 1.355 . S
C604 C606 1.419 . S
C605 C600 1.425 . S
C605 C602 1.409 . S
C605 C603 1.415 . S
C606 H596 0.930 . S
C606 C604 1.419 . S
C606 C607 1.362 . S
C607 H597 0.930 . S
C607 C600 1.409 . S
C607 C606 1.362 . S
H608 C614 0.930 . S
H609 C617 0.930 . S
H610 C618 0.930 . S
H611 C619 0.930 . S
H612 C622 0.930 . S
H613 C623 0.930 . S
C614 H608 0.930 . S
C614 C615 1.355 . S
C614 C616 1.415 . S
C615 C614 1.355 . S
C615 C617 1.419 . S
C616 C614 1.415 . S
C616 C621 1.425 . S
C616 C623 1.409 . S
C617 H609 0.930 . S
C617 C615 1.419 . S
C617 C618 1.362 . S
C618 H610 0.930 . S
C618 C617 1.362 . S
C618 C621 1.409 . S
C619 H611 0.930 . S
C619 C620 1.355 . S
C619 C621 1.415 . S
C620 C619 1.355 . S
C620 C622 1.419 . S
C621 C616 1.425 . S
C621 C618 1.409 . S
C621 C619 1.415 . S
C622 H612 0.930 . S
C622 C620 1.419 . S
C622 C623 1.362 . S
C623 H613 0.930 . S
C623 C616 1.409 . S
C623 C622 1.362 . S
H624 C630 0.930 . S
H625 C633 0.930 . S
H626 C634 0.930 . S
H627 C635 0.930 . S
H628 C638 0.930 . S
H629 C639 0.930 . S
C630 H624 0.930 . S
C630 C631 1.355 . S
C630 C632 1.415 . S
C631 C630 1.355 . S
C631 C633 1.419 . S
C632 C630 1.415 . S
C632 C637 1.425 . S
C632 C639 1.409 . S
C633 H625 0.930 . S
C633 C631 1.419 . S
C633 C634 1.362 . S
C634 H626 0.930 . S
C634 C633 1.362 . S
C634 C637 1.409 . S
C635 H627 0.930 . S
C635 C636 1.355 . S
C635 C637 1.415 . S
C636 C635 1.355 . S
C636 C638 1.419 . S
C637 C632 1.425 . S
C637 C634 1.409 . S
C637 C635 1.415 . S
C638 H628 0.930 . S
C638 C636 1.419 . S
C638 C639 1.362 . S
C639 H629 0.930 . S
C639 C632 1.409 . S
C639 C638 1.362 . S
H640 C646 0.930 . S
H641 C649 0.930 . S
H642 C650 0.930 . S
H643 C651 0.930 . S
H644 C654 0.930 . S
H645 C655 0.930 . S
C646 H640 0.930 . S
C646 C647 1.355 . S
C646 C648 1.415 . S
C647 C646 1.355 . S
C647 C649 1.419 . S
C648 C646 1.415 . S
C648 C653 1.425 . S
C648 C655 1.409 . S
C649 H641 0.930 . S
C649 C647 1.419 . S
C649 C650 1.362 . S
C650 H642 0.930 . S
C650 C649 1.362 . S
C650 C653 1.409 . S
C651 H643 0.930 . S
C651 C652 1.355 . S
C651 C653 1.415 . S
C652 C651 1.355 . S
C652 C654 1.419 . S
C653 C648 1.425 . S
C653 C650 1.409 . S
C653 C651 1.415 . S
C654 H644 0.930 . S
C654 C652 1.419 . S
C654 C655 1.362 . S
C655 H645 0.930 . S
C655 C648 1.409 . S
C655 C654 1.362 . S
H656 C662 0.930 . S
H657 C665 0.930 . S
H658 C666 0.930 . S
H659 C667 0.930 . S
H660 C670 0.930 . S
H661 C671 0.930 . S
C662 H656 0.930 . S
C662 C663 1.355 . S
C662 C664 1.415 . S
C663 C662 1.355 . S
C663 C665 1.419 . S
C664 C662 1.415 . S
C664 C669 1.425 . S
C664 C671 1.409 . S
C665 H657 0.930 . S
C665 C663 1.419 . S
C665 C666 1.362 . S
C666 H658 0.930 . S
C666 C665 1.362 . S
C666 C669 1.409 . S
C667 H659 0.930 . S
C667 C668 1.355 . S
C667 C669 1.415 . S
C668 C667 1.355 . S
C668 C670 1.419 . S
C669 C664 1.425 . S
C669 C666 1.409 . S
C669 C667 1.415 . S
C670 H660 0.930 . S
C670 C668 1.419 . S
C670 C671 1.362 . S
C671 H661 0.930 . S
C671 C664 1.409 . S
C671 C670 1.362 . S
H672 C678 0.930 . S
H673 C681 0.930 . S
H674 C682 0.930 . S
H675 C683 0.930 . S
H676 C686 0.930 . S
H677 C687 0.930 . S
C678 H672 0.930 . S
C678 C679 1.355 . S
C678 C680 1.415 . S
C679 C678 1.355 . S
C679 C681 1.419 . S
C680 C678 1.415 . S
C680 C685 1.425 . S
C680 C687 1.409 . S
C681 H673 0.930 . S
C681 C679 1.419 . S
C681 C682 1.362 . S
C682 H674 0.930 . S
C682 C681 1.362 . S
C682 C685 1.409 . S
C683 H675 0.930 . S
C683 C684 1.355 . S
C683 C685 1.415 . S
C684 C683 1.355 . S
C684 C686 1.419 . S
C685 C680 1.425 . S
C685 C682 1.409 . S
C685 C683 1.415 . S
C686 H676 0.930 . S
C686 C684 1.419 . S
C686 C687 1.362 . S
C687 H677 0.930 . S
C687 C680 1.409 . S
C687 C686 1.362 . S
H688 C694 0.930 . S
H689 C697 0.930 . S
H690 C698 0.930 . S
H691 C699 0.930 . S
H692 C702 0.930 . S
H693 C703 0.930 . S
C694 H688 0.930 . S
C694 C695 1.355 . S
C694 C696 1.415 . S
C695 C694 1.355 . S
C695 C697 1.419 . S
C696 C694 1.415 . S
C696 C701 1.425 . S
C696 C703 1.409 . S
C697 H689 0.930 . S
C697 C695 1.419 . S
C697 C698 1.362 . S
C698 H690 0.930 . S
C698 C697 1.362 . S
C698 C701 1.409 . S
C699 H691 0.930 . S
C699 C700 1.355 . S
C699 C701 1.415 . S
C700 C699 1.355 . S
C700 C702 1.419 . S
C701 C696 1.425 . S
C701 C698 1.409 . S
C701 C699 1.415 . S
C702 H692 0.930 . S
C702 C700 1.419 . S
C702 C703 1.362 . S
C703 H693 0.930 . S
C703 C696 1.409 . S
C703 C702 1.362 . S
H704 C710 0.930 . S
H705 C713 0.930 . S
H706 C714 0.930 . S
H707 C715 0.930 . S
H708 C718 0.930 . S
H709 C719 0.930 . S
C710 H704 0.930 . S
C710 C711 1.355 . S
C710 C712 1.415 . S
C711 C710 1.355 . S
C711 C713 1.419 . S
C712 C710 1.415 . S
C712 C717 1.425 . S
C712 C719 1.409 . S
C713 H705 0.930 . S
C713 C711 1.419 . S
C713 C714 1.362 . S
C714 H706 0.930 . S
C714 C713 1.362 . S
C714 C717 1.409 . S
C715 H707 0.930 . S
C715 C716 1.355 . S
C715 C717 1.415 . S
C716 C715 1.355 . S
C716 C718 1.419 . S
C717 C712 1.425 . S
C717 C714 1.409 . S
C717 C715 1.415 . S
C718 H708 0.930 . S
C718 C716 1.419 . S
C718 C719 1.362 . S
C719 H709 0.930 . S
C719 C712 1.409 . S
C719 C718 1.362 . S
H720 C726 0.930 . S
H721 C729 0.930 . S
H722 C730 0.930 . S
H723 C731 0.930 . S
H724 C734 0.930 . S
H725 C735 0.930 . S
C726 H720 0.930 . S
C726 C727 1.355 . S
C726 C728 1.415 . S
C727 C726 1.355 . S
C727 C729 1.419 . S
C728 C726 1.415 . S
C728 C733 1.425 . S
C728 C735 1.409 . S
C729 H721 0.930 . S
C729 C727 1.419 . S
C729 C730 1.362 . S
C730 H722 0.930 . S
C730 C729 1.362 . S
C730 C733 1.409 . S
C731 H723 0.930 . S
C731 C732 1.355 . S
C731 C733 1.415 . S
C732 C731 1.355 . S
C732 C734 1.419 . S
C733 C728 1.425 . S
C733 C730 1.409 . S
C733 C731 1.415 . S
C734 H724 0.930 . S
C734 C732 1.419 . S
C734 C735 1.362 . S
C735 H725 0.930 . S
C735 C728 1.409 . S
C735 C734 1.362 . S
H736 C742 0.930 . S
H737 C745 0.930 . S
H738 C746 0.930 . S
H739 C747 0.930 . S
H740 C750 0.930 . S
H741 C751 0.930 . S
C742 H736 0.930 . S
C742 C743 1.355 . S
C742 C744 1.415 1_554 S
C743 C742 1.355 . S
C743 C745 1.419 . S
C744 C742 1.415 1_556 S
C744 C749 1.425 . S
C744 C751 1.409 . S
C745 H737 0.930 . S
C745 C743 1.419 . S
C745 C746 1.362 1_554 S
C746 H738 0.930 . S
C746 C745 1.362 1_556 S
C746 C749 1.409 . S
C747 H739 0.930 . S
C747 C748 1.355 . S
C747 C749 1.415 . S
C748 C747 1.355 . S
C748 C750 1.419 . S
C749 C744 1.425 . S
C749 C746 1.409 . S
C749 C747 1.415 . S
C750 H740 0.930 . S
C750 C748 1.419 . S
C750 C751 1.362 . S
C751 H741 0.930 . S
C751 C744 1.409 . S
C751 C750 1.362 . S
H752 C758 0.930 . S
H753 C761 0.930 . S
H754 C762 0.930 . S
H755 C763 0.930 . S
H756 C766 0.930 . S
H757 C767 0.930 . S
C758 H752 0.930 . S
C758 C759 1.355 . S
C758 C760 1.415 . S
C759 C758 1.355 . S
C759 C761 1.419 . S
C760 C758 1.415 . S
C760 C765 1.425 . S
C760 C767 1.409 . S
C761 H753 0.930 . S
C761 C759 1.419 . S
C761 C762 1.362 . S
C762 H754 0.930 . S
C762 C761 1.362 . S
C762 C765 1.409 . S
C763 H755 0.930 . S
C763 C764 1.355 . S
C763 C765 1.415 . S
C764 C763 1.355 . S
C764 C766 1.419 . S
C765 C760 1.425 . S
C765 C762 1.409 . S
C765 C763 1.415 . S
C766 H756 0.930 . S
C766 C764 1.419 . S
C766 C767 1.362 . S
C767 H757 0.930 . S
C767 C760 1.409 . S
C767 C766 1.362 . S
H768 C774 0.930 . S
H769 C777 0.930 . S
H770 C778 0.930 . S
H771 C779 0.930 . S
H772 C782 0.930 . S
H773 C783 0.930 . S
C774 H768 0.930 . S
C774 C775 1.355 . S
C774 C776 1.415 . S
C775 C774 1.355 . S
C775 C777 1.419 . S
C776 C774 1.415 . S
C776 C781 1.425 . S
C776 C783 1.409 . S
C777 H769 0.930 . S
C777 C775 1.419 . S
C777 C778 1.362 . S
C778 H770 0.930 . S
C778 C777 1.362 . S
C778 C781 1.409 . S
C779 H771 0.930 . S
C779 C780 1.355 . S
C779 C781 1.415 1_556 S
C780 C779 1.355 . S
C780 C782 1.419 . S
C781 C776 1.425 . S
C781 C778 1.409 . S
C781 C779 1.415 1_554 S
C782 H772 0.930 . S
C782 C780 1.419 . S
C782 C783 1.362 1_556 S
C783 H773 0.930 . S
C783 C776 1.409 . S
C783 C782 1.362 1_554 S
H784 C790 0.930 . S
H785 C793 0.930 . S
H786 C794 0.930 . S
H787 C795 0.930 . S
H788 C798 0.930 . S
H789 C799 0.930 . S
C790 H784 0.930 . S
C790 C791 1.355 . S
C790 C792 1.415 . S
C791 C790 1.355 . S
C791 C793 1.419 . S
C792 C790 1.415 . S
C792 C797 1.425 . S
C792 C799 1.409 . S
C793 H785 0.930 . S
C793 C791 1.419 . S
C793 C794 1.362 . S
C794 H786 0.930 . S
C794 C793 1.362 . S
C794 C797 1.409 . S
C795 H787 0.930 . S
C795 C796 1.355 . S
C795 C797 1.415 . S
C796 C795 1.355 . S
C796 C798 1.419 . S
C797 C792 1.425 . S
C797 C794 1.409 . S
C797 C795 1.415 . S
C798 H788 0.930 . S
C798 C796 1.419 . S
C798 C799 1.362 . S
C799 H789 0.930 . S
C799 C792 1.409 . S
C799 C798 1.362 . S
H800 C806 0.930 . S
H801 C809 0.930 . S
H802 C810 0.930 . S
H803 C811 0.930 . S
H804 C814 0.930 . S
H805 C815 0.930 . S
C806 H800 0.930 . S
C806 C807 1.355 . S
C806 C808 1.415 1_655 S
C807 C806 1.355 . S
C807 C809 1.419 . S
C808 C806 1.415 1_455 S
C808 C813 1.425 . S
C808 C815 1.409 . S
C809 H801 0.930 . S
C809 C807 1.419 . S
C809 C810 1.362 1_655 S
C810 H802 0.930 . S
C810 C809 1.362 1_455 S
C810 C813 1.409 . S
C811 H803 0.930 . S
C811 C812 1.355 . S
C811 C813 1.415 . S
C812 C811 1.355 . S
C812 C814 1.419 . S
C813 C808 1.425 . S
C813 C810 1.409 . S
C813 C811 1.415 . S
C814 H804 0.930 . S
C814 C812 1.419 . S
C814 C815 1.362 . S
C815 H805 0.930 . S
C815 C808 1.409 . S
C815 C814 1.362 . S
H816 C822 0.925 1_455 S
H817 C825 0.930 . S
H818 C826 0.930 . S
H819 C827 0.930 . S
H820 C830 0.930 . S
H821 C831 0.930 . S
C822 H816 0.925 1_655 S
C822 C823 1.322 1_655 S
C822 C824 1.453 . S
C823 C822 1.322 1_455 S
C823 C825 1.419 . S
C824 C822 1.453 . S
C824 C829 1.425 . S
C824 C831 1.409 . S
C825 H817 0.930 . S
C825 C823 1.419 . S
C825 C826 1.362 1_455 S
C826 H818 0.930 . S
C826 C825 1.362 1_655 S
C826 C829 1.409 . S
C827 H819 0.930 . S
C827 C828 1.355 . S
C827 C829 1.415 . S
C828 C827 1.355 . S
C828 C830 1.419 . S
C829 C824 1.425 . S
C829 C826 1.409 . S
C829 C827 1.415 . S
C830 H820 0.930 . S
C830 C828 1.419 . S
C830 C831 1.362 . S
C831 H821 0.930 . S
C831 C824 1.409 . S
C831 C830 1.362 . S
H832 C838 0.930 . S
H833 C841 0.930 . S
H834 C842 0.930 . S
H835 C843 0.930 . S
H836 C846 0.930 . S
H837 C847 0.930 . S
C838 H832 0.930 . S
C838 C839 1.355 . S
C838 C840 1.415 . S
C839 C838 1.355 . S
C839 C841 1.419 . S
C840 C838 1.415 . S
C840 C845 1.425 . S
C840 C847 1.409 . S
C841 H833 0.930 . S
C841 C839 1.419 . S
C841 C842 1.362 . S
C842 H834 0.930 . S
C842 C841 1.362 . S
C842 C845 1.409 . S
C843 H835 0.930 . S
C843 C844 1.355 . S
C843 C845 1.415 . S
C844 C843 1.355 . S
C844 C846 1.419 . S
C845 C840 1.425 . S
C845 C842 1.409 . S
C845 C843 1.415 . S
C846 H836 0.930 . S
C846 C844 1.419 . S
C846 C847 1.362 . S
C847 H837 0.930 . S
C847 C840 1.409 . S
C847 C846 1.362 . S
H848 C854 0.930 . S
H849 C857 0.930 . S
H850 C858 0.930 . S
H851 C859 0.930 . S
H852 C862 0.930 . S
H853 C863 0.930 . S
C854 H848 0.930 . S
C854 C855 1.355 . S
C854 C856 1.415 . S
C855 C854 1.355 . S
C855 C857 1.419 . S
C856 C854 1.415 . S
C856 C861 1.425 . S
C856 C863 1.409 . S
C857 H849 0.930 . S
C857 C855 1.419 . S
C857 C858 1.362 . S
C858 H850 0.930 . S
C858 C857 1.362 . S
C858 C861 1.409 . S
C859 H851 0.930 . S
C859 C860 1.355 . S
C859 C861 1.415 . S
C860 C859 1.355 . S
C860 C862 1.419 . S
C861 C856 1.425 . S
C861 C858 1.409 . S
C861 C859 1.415 . S
C862 H852 0.930 . S
C862 C860 1.419 . S
C862 C863 1.362 . S
C863 H853 0.930 . S
C863 C856 1.409 . S
C863 C862 1.362 . S
H864 C870 0.930 . S
H865 C873 0.930 . S
H866 C874 0.930 . S
H867 C875 0.930 . S
H868 C878 0.930 . S
H869 C879 0.930 . S
C870 H864 0.930 . S
C870 C871 1.355 . S
C870 C872 1.415 1_565 S
C871 C870 1.355 . S
C871 C873 1.419 . S
C872 C870 1.415 1_545 S
C872 C877 1.425 . S
C872 C879 1.409 . S
C873 H865 0.930 . S
C873 C871 1.419 . S
C873 C874 1.362 1_565 S
C874 H866 0.930 . S
C874 C873 1.362 1_545 S
C874 C877 1.409 . S
C875 H867 0.930 . S
C875 C876 1.355 . S
C875 C877 1.415 . S
C876 C875 1.355 . S
C876 C878 1.419 . S
C877 C872 1.425 . S
C877 C874 1.409 . S
C877 C875 1.415 . S
C878 H868 0.930 . S
C878 C876 1.419 . S
C878 C879 1.362 . S
C879 H869 0.930 . S
C879 C872 1.409 . S
C879 C878 1.362 . S
H880 C886 0.930 . S
H881 C889 0.930 . S
H882 C890 0.930 . S
H883 C891 0.930 . S
H884 C894 0.930 . S
H885 C895 0.930 . S
C886 H880 0.930 . S
C886 C887 1.355 . S
C886 C888 1.415 1_545 S
C887 C886 1.355 . S
C887 C889 1.419 . S
C888 C886 1.415 1_565 S
C888 C893 1.425 . S
C888 C895 1.409 . S
C889 H881 0.930 . S
C889 C887 1.419 . S
C889 C890 1.362 1_545 S
C890 H882 0.930 . S
C890 C889 1.362 1_565 S
C890 C893 1.409 . S
C891 H883 0.930 . S
C891 C892 1.355 . S
C891 C893 1.415 . S
C892 C891 1.355 . S
C892 C894 1.419 . S
C893 C888 1.425 . S
C893 C890 1.409 . S
C893 C891 1.415 . S
C894 H884 0.930 . S
C894 C892 1.419 . S
C894 C895 1.362 . S
C895 H885 0.930 . S
C895 C888 1.409 . S
C895 C894 1.362 . S
H896 C902 0.930 . S
H897 C905 0.930 . S
H898 C906 0.930 . S
H899 C907 0.930 . S
H900 C910 0.930 . S
H901 C911 0.930 . S
C902 H896 0.930 . S
C902 C903 1.355 . S
C902 C904 1.415 . S
C903 C902 1.355 . S
C903 C905 1.419 . S
C904 C902 1.415 . S
C904 C909 1.425 . S
C904 C911 1.409 . S
C905 H897 0.930 . S
C905 C903 1.419 . S
C905 C906 1.362 . S
C906 H898 0.930 . S
C906 C905 1.362 . S
C906 C909 1.409 . S
C907 H899 0.930 . S
C907 C908 1.355 . S
C907 C909 1.415 . S
C908 C907 1.355 . S
C908 C910 1.419 . S
C909 C904 1.425 . S
C909 C906 1.409 . S
C909 C907 1.415 . S
C910 H900 0.930 . S
C910 C908 1.419 . S
C910 C911 1.362 . S
C911 H901 0.930 . S
C911 C904 1.409 . S
C911 C910 1.362 . S
H912 C918 0.930 . S
H913 C921 0.930 . S
H914 C922 0.930 . S
H915 C923 0.930 . S
H916 C926 0.930 . S
H917 C927 0.930 . S
C918 H912 0.930 . S
C918 C919 1.355 . S
C918 C920 1.415 . S
C919 C918 1.355 . S
C919 C921 1.419 . S
C920 C918 1.415 . S
C920 C925 1.425 . S
C920 C927 1.409 . S
C921 H913 0.930 . S
C921 C919 1.419 . S
C921 C922 1.362 . S
C922 H914 0.930 . S
C922 C921 1.362 . S
C922 C925 1.409 . S
C923 H915 0.930 . S
C923 C924 1.355 . S
C923 C925 1.415 . S
C924 C923 1.355 . S
C924 C926 1.419 . S
C925 C920 1.425 . S
C925 C922 1.409 . S
C925 C923 1.415 . S
C926 H916 0.930 . S
C926 C924 1.419 . S
C926 C927 1.362 . S
C927 H917 0.930 . S
C927 C920 1.409 . S
C927 C926 1.362 . S
H928 C934 0.930 . S
H929 C937 0.930 . S
H930 C938 0.930 . S
H931 C939 0.930 . S
H932 C942 0.930 . S
H933 C943 0.930 . S
C934 H928 0.930 . S
C934 C935 1.355 . S
C934 C936 1.415 1_556 S
C935 C934 1.355 . S
C935 C937 1.419 . S
C936 C934 1.415 1_554 S
C936 C941 1.425 . S
C936 C943 1.409 . S
C937 H929 0.930 . S
C937 C935 1.419 . S
C937 C938 1.362 1_556 S
C938 H930 0.930 . S
C938 C937 1.362 1_554 S
C938 C941 1.409 . S
C939 H931 0.930 . S
C939 C940 1.355 . S
C939 C941 1.415 . S
C940 C939 1.355 . S
C940 C942 1.419 . S
C941 C936 1.425 . S
C941 C938 1.409 . S
C941 C939 1.415 . S
C942 H932 0.930 . S
C942 C940 1.419 . S
C942 C943 1.362 . S
C943 H933 0.930 . S
C943 C936 1.409 . S
C943 C942 1.362 . S
H944 C950 0.930 . S
H945 C953 0.930 . S
H946 C954 0.930 . S
H947 C955 0.930 . S
H948 C958 0.930 . S
H949 C959 0.930 . S
C950 H944 0.930 . S
C950 C951 1.355 . S
C950 C952 1.415 . S
C951 C950 1.355 . S
C951 C953 1.419 . S
C952 C950 1.415 . S
C952 C957 1.425 . S
C952 C959 1.409 . S
C953 H945 0.930 . S
C953 C951 1.419 . S
C953 C954 1.362 . S
C954 H946 0.930 . S
C954 C953 1.362 . S
C954 C957 1.409 . S
C955 H947 0.930 . S
C955 C956 1.355 . S
C955 C957 1.415 . S
C956 C955 1.355 . S
C956 C958 1.419 . S
C957 C952 1.425 . S
C957 C954 1.409 . S
C957 C955 1.415 . S
C958 H948 0.930 . S
C958 C956 1.419 . S
C958 C959 1.362 . S
C959 H949 0.930 . S
C959 C952 1.409 . S
C959 C958 1.362 . S
H960 C966 0.930 . S
H961 C969 0.930 . S
H962 C970 0.930 . S
H963 C971 0.930 . S
H964 C974 0.930 . S
H965 C975 0.930 . S
C966 H960 0.930 . S
C966 C967 1.355 . S
C966 C968 1.415 1_554 S
C967 C966 1.355 . S
C967 C969 1.419 . S
C968 C966 1.415 1_556 S
C968 C973 1.425 . S
C968 C975 1.409 . S
C969 H961 0.930 . S
C969 C967 1.419 . S
C969 C970 1.362 1_554 S
C970 H962 0.930 . S
C970 C969 1.362 1_556 S
C970 C973 1.409 . S
C971 H963 0.930 . S
C971 C972 1.355 . S
C971 C973 1.415 . S
C972 C971 1.355 . S
C972 C974 1.419 . S
C973 C968 1.425 . S
C973 C970 1.409 . S
C973 C971 1.415 . S
C974 H964 0.930 . S
C974 C972 1.419 . S
C974 C975 1.362 . S
C975 H965 0.930 . S
C975 C968 1.409 . S
C975 C974 1.362 . S
H976 C982 0.930 . S
H977 C985 0.930 . S
H978 C986 0.930 . S
H979 C987 0.930 . S
H980 C990 0.930 . S
H981 C991 0.930 . S
C982 H976 0.930 . S
C982 C983 1.355 . S
C982 C984 1.415 . S
C983 C982 1.355 . S
C983 C985 1.419 . S
C984 C982 1.415 . S
C984 C989 1.425 . S
C984 C991 1.409 . S
C985 H977 0.930 . S
C985 C983 1.419 . S
C985 C986 1.362 . S
C986 H978 0.930 . S
C986 C985 1.362 . S
C986 C989 1.409 . S
C987 H979 0.930 . S
C987 C988 1.355 . S
C987 C989 1.415 . S
C988 C987 1.355 . S
C988 C990 1.419 . S
C989 C984 1.425 . S
C989 C986 1.409 . S
C989 C987 1.415 . S
C990 H980 0.930 . S
C990 C988 1.419 . S
C990 C991 1.362 . S
C991 H981 0.930 . S
C991 C984 1.409 . S
C991 C990 1.362 . S
H992 C998 0.930 . S
H993 C1001 0.930 . S
H994 C1002 0.930 . S
H995 C1003 0.930 . S
H996 C1006 0.930 . S
H997 C1007 0.930 . S
C998 H992 0.930 . S
C998 C999 1.355 . S
C998 C1000 1.415 . S
C999 C998 1.355 . S
C999 C1001 1.419 . S
C1000 C998 1.415 . S
C1000 C1005 1.425 . S
C1000 C1007 1.409 . S
C1001 H993 0.930 . S
C1001 C999 1.419 . S
C1001 C1002 1.362 . S
C1002 H994 0.930 . S
C1002 C1001 1.362 . S
C1002 C1005 1.409 . S
C1003 H995 0.930 . S
C1003 C1004 1.355 . S
C1003 C1005 1.415 1_455 S
C1004 C1003 1.355 . S
C1004 C1006 1.419 . S
C1005 C1000 1.425 . S
C1005 C1002 1.409 . S
C1005 C1003 1.415 1_655 S
C1006 H996 0.930 . S
C1006 C1004 1.419 . S
C1006 C1007 1.362 1_455 S
C1007 H997 0.930 . S
C1007 C1000 1.409 . S
C1007 C1006 1.362 1_655 S
H1008 C1014 0.930 . S
H1009 C1017 0.930 . S
H1010 C1018 0.930 . S
H1011 C1019 0.930 . S
H1012 C1022 0.930 . S
H1013 C1023 0.932 . S
C1014 H1008 0.930 . S
C1014 C1015 1.355 . S
C1014 C1016 1.415 . S
C1015 C1014 1.355 . S
C1015 C1017 1.419 . S
C1016 C1014 1.415 . S
C1016 C1021 1.425 . S
C1016 C1023 1.423 . S
C1017 H1009 0.930 . S
C1017 C1015 1.419 . S
C1017 C1018 1.362 . S
C1018 H1010 0.930 . S
C1018 C1017 1.362 . S
C1018 C1021 1.409 . S
C1019 H1011 0.930 . S
C1019 C1020 1.355 . S
C1019 C1021 1.415 1_655 S
C1020 C1019 1.355 . S
C1020 C1022 1.419 . S
C1021 C1016 1.425 . S
C1021 C1018 1.409 . S
C1021 C1019 1.415 1_455 S
C1022 H1012 0.930 . S
C1022 C1020 1.419 . S
C1022 C1023 1.347 1_655 S
C1023 H1013 0.932 . S
C1023 C1016 1.423 . S
C1023 C1022 1.347 1_455 S
H1024 C1030 0.930 . S
H1025 C1033 0.930 . S
H1026 C1034 0.930 . S
H1027 C1035 0.930 . S
H1028 C1038 0.930 . S
H1029 C1039 0.930 . S
C1030 H1024 0.930 . S
C1030 C1031 1.355 . S
C1030 C1032 1.415 . S
C1031 C1030 1.355 . S
C1031 C1033 1.419 . S
C1032 C1030 1.415 . S
C1032 C1037 1.425 . S
C1032 C1039 1.409 . S
C1033 H1025 0.930 . S
C1033 C1031 1.419 . S
C1033 C1034 1.362 . S
C1034 H1026 0.930 . S
C1034 C1033 1.362 . S
C1034 C1037 1.409 . S
C1035 H1027 0.930 . S
C1035 C1036 1.355 . S
C1035 C1037 1.415 . S
C1036 C1035 1.355 . S
C1036 C1038 1.419 . S
C1037 C1032 1.425 . S
C1037 C1034 1.409 . S
C1037 C1035 1.415 . S
C1038 H1028 0.930 . S
C1038 C1036 1.419 . S
C1038 C1039 1.362 . S
C1039 H1029 0.930 . S
C1039 C1032 1.409 . S
C1039 C1038 1.362 . S
H1040 C1046 0.930 . S
H1041 C1049 0.930 . S
H1042 C1050 0.930 . S
H1043 C1051 0.930 . S
H1044 C1054 0.930 . S
H1045 C1055 0.930 . S
C1046 H1040 0.930 . S
C1046 C1047 1.355 . S
C1046 C1048 1.415 . S
C1047 C1046 1.355 . S
C1047 C1049 1.419 . S
C1048 C1046 1.415 . S
C1048 C1053 1.425 . S
C1048 C1055 1.409 . S
C1049 H1041 0.930 . S
C1049 C1047 1.419 . S
C1049 C1050 1.362 . S
C1050 H1042 0.930 . S
C1050 C1049 1.362 . S
C1050 C1053 1.409 . S
C1051 H1043 0.930 . S
C1051 C1052 1.355 . S
C1051 C1053 1.415 . S
C1052 C1051 1.355 . S
C1052 C1054 1.419 . S
C1053 C1048 1.425 . S
C1053 C1050 1.409 . S
C1053 C1051 1.415 . S
C1054 H1044 0.930 . S
C1054 C1052 1.419 . S
C1054 C1055 1.362 . S
C1055 H1045 0.930 . S
C1055 C1048 1.409 . S
C1055 C1054 1.362 . S
H1056 C1062 0.930 . S
H1057 C1065 0.930 . S
H1058 C1066 0.930 . S
H1059 C1067 0.930 . S
H1060 C1070 0.930 . S
H1061 C1071 0.930 . S
C1062 H1056 0.930 . S
C1062 C1063 1.355 . S
C1062 C1064 1.415 . S
C1063 C1062 1.355 . S
C1063 C1065 1.419 . S
C1064 C1062 1.415 . S
C1064 C1069 1.425 . S
C1064 C1071 1.409 . S
C1065 H1057 0.930 . S
C1065 C1063 1.419 . S
C1065 C1066 1.362 . S
C1066 H1058 0.930 . S
C1066 C1065 1.362 . S
C1066 C1069 1.409 . S
C1067 H1059 0.930 . S
C1067 C1068 1.355 . S
C1067 C1069 1.415 1_545 S
C1068 C1067 1.355 . S
C1068 C1070 1.419 . S
C1069 C1064 1.425 . S
C1069 C1066 1.409 . S
C1069 C1067 1.415 1_565 S
C1070 H1060 0.930 . S
C1070 C1068 1.419 . S
C1070 C1071 1.362 1_545 S
C1071 H1061 0.930 . S
C1071 C1064 1.409 . S
C1071 C1070 1.362 1_565 S
H1072 C1078 0.930 . S
H1073 C1081 0.930 . S
H1074 C1082 0.930 . S
H1075 C1083 0.930 . S
H1076 C1086 0.930 . S
H1077 C1087 0.930 . S
C1078 H1072 0.930 . S
C1078 C1079 1.355 . S
C1078 C1080 1.415 1_565 S
C1079 C1078 1.355 . S
C1079 C1081 1.419 . S
C1080 C1078 1.415 1_545 S
C1080 C1085 1.425 . S
C1080 C1087 1.409 . S
C1081 H1073 0.930 . S
C1081 C1079 1.419 . S
C1081 C1082 1.362 1_565 S
C1082 H1074 0.930 . S
C1082 C1081 1.362 1_545 S
C1082 C1085 1.409 . S
C1083 H1075 0.930 . S
C1083 C1084 1.355 . S
C1083 C1085 1.415 . S
C1084 C1083 1.355 . S
C1084 C1086 1.419 . S
C1085 C1080 1.425 . S
C1085 C1082 1.409 . S
C1085 C1083 1.415 . S
C1086 H1076 0.930 . S
C1086 C1084 1.419 . S
C1086 C1087 1.362 . S
C1087 H1077 0.930 . S
C1087 C1080 1.409 . S
C1087 C1086 1.362 . S
H1088 C1094 0.930 . S
H1089 C1097 0.930 . S
H1090 C1098 0.930 . S
H1091 C1099 0.930 . S
H1092 C1102 0.930 . S
H1093 C1103 0.930 . S
C1094 H1088 0.930 . S
C1094 C1095 1.355 . S
C1094 C1096 1.415 . S
C1095 C1094 1.355 . S
C1095 C1097 1.419 . S
C1096 C1094 1.415 . S
C1096 C1101 1.425 . S
C1096 C1103 1.409 . S
C1097 H1089 0.930 . S
C1097 C1095 1.419 . S
C1097 C1098 1.362 . S
C1098 H1090 0.930 . S
C1098 C1097 1.362 . S
C1098 C1101 1.409 . S
C1099 H1091 0.930 . S
C1099 C1100 1.355 . S
C1099 C1101 1.415 . S
C1100 C1099 1.355 . S
C1100 C1102 1.419 . S
C1101 C1096 1.425 . S
C1101 C1098 1.409 . S
C1101 C1099 1.415 . S
C1102 H1092 0.930 . S
C1102 C1100 1.419 . S
C1102 C1103 1.362 . S
C1103 H1093 0.930 . S
C1103 C1096 1.409 . S
C1103 C1102 1.362 . S
C343 C121 1.158 . S
C348 C3 1.134 . S
C359 C17 1.099 . S
C364 C163 1.154 . S
C375 C31 1.168 . S
C380 C135 1.092 . S
C391 C45 1.142 . S
C396 C149 1.071 . S
C407 C59 1.110 . S
C412 C9 1.046 . S
C423 C23 1.048 . S
C428 C73 1.107 . S
C439 C87 1.076 . S
C444 C37 1.087 . S
C455 C51 1.125 . S
C460 C101 1.074 . S
C471 C65 1.099 . S
C476 C115 1.168 . S
C487 C93 1.153 . S
C492 C129 1.099 . S
C503 C143 1.167 . S
C508 C107 1.109 . S
C519 C79 1.155 . S
C524 C157 1.100 . S
C535 C283 1.104 . S
C540 C171 1.153 . S
C551 C185 1.089 . S
C556 C325 1.155 . S
C567 C199 1.079 . S
C572 C297 1.146 . S
C583 C311 1.157 . S
C588 C213 1.095 . S
C599 C233 1.098 . S
C604 C177 1.037 . S
C615 C191 1.062 . S
C620 C247 1.037 . S
C631 C205 1.126 . S
C636 C261 1.030 . S
C647 C275 1.042 . S
C652 C219 1.057 . S
C663 C289 1.034 . S
C668 C227 1.101 . S
C679 C255 1.095 . S
C684 C303 1.132 . S
C695 C269 1.070 . S
C700 C317 1.114 . S
C711 C331 1.129 . S
C716 C241 1.081 . S
C727 C315 1.391 . S
C732 C7 1.362 . S
C743 C301 1.329 . S
C748 C21 1.388 . S
C759 C329 1.359 . S
C764 C35 1.341 . S
C775 C49 1.397 . S
C780 C287 1.345 . S
C791 C63 1.364 . S
C796 C190 1.378 . S
C807 C176 1.404 . S
C812 C77 1.369 . S
C823 C218 1.383 . S
C828 C91 1.352 . S
C839 C204 1.377 . S
C844 C105 1.370 . S
C855 C119 1.365 . S
C860 C259 1.394 . S
C871 C231 1.339 . S
C876 C133 1.403 . S
C887 C245 1.377 . S
C892 C147 1.360 . S
C903 C273 1.404 . S
C908 C161 1.389 . S
C919 C148 1.444 . S
C924 C175 1.387 . S
C935 C134 1.424 . S
C940 C189 1.428 . S
C951 C203 1.409 . S
C956 C162 1.421 . S
C967 C120 1.422 . S
C972 C217 1.417 . S
C983 C232 1.443 . S
C988 C22 1.433 . S
C999 C246 1.461 . S
C1004 C8 1.462 . S
C1015 C260 1.438 . S
C1020 C50 1.444 . S
C1031 C274 1.444 . S
C1036 C36 1.433 . S
C1047 C288 1.421 . S
C1052 C92 1.407 . S
C1063 C302 1.426 . S
C1068 C64 1.409 . S
C1079 C78 1.433 . S
C1084 C316 1.422 . S
C1095 C330 1.417 . S
C1100 C106 1.427 . S
