# Generated by pormake.
# Topology rac, (4)-cn, num edge types: 1
# Building blocks:
#     Node 0, Type 0, BuildingBlock: CEKHIL_clean_sbu_0, # of connection points: 4
#     Node 1, Type 0, BuildingBlock: CEKHIL_clean_sbu_0, # of connection points: 4
#     Node 2, Type 0, BuildingBlock: CEKHIL_clean_sbu_0, # of connection points: 4
#     Node 3, Type 0, BuildingBlock: CEKHIL_clean_sbu_0, # of connection points: 4
#     Node 4, Type 0, BuildingBlock: CEKHIL_clean_sbu_0, # of connection points: 4
#     Node 5, Type 0, BuildingBlock: CEKHIL_clean_sbu_0, # of connection points: 4
#     Node 6, Type 0, BuildingBlock: CEKHIL_clean_sbu_0, # of connection points: 4
#     Node 7, Type 0, BuildingBlock: CEKHIL_clean_sbu_0, # of connection points: 4
#     Edge 8, Type (0, 0), BuildingBlock: FUNLAD_clean_linker_1, # of connection points: 2
#     Edge 9, Type (0, 0), BuildingBlock: FUNLAD_clean_linker_1, # of connection points: 2
#     Edge 10, Type (0, 0), BuildingBlock: FUNLAD_clean_linker_1, # of connection points: 2
#     Edge 11, Type (0, 0), BuildingBlock: FUNLAD_clean_linker_1, # of connection points: 2
#     Edge 12, Type (0, 0), BuildingBlock: FUNLAD_clean_linker_1, # of connection points: 2
#     Edge 13, Type (0, 0), BuildingBlock: FUNLAD_clean_linker_1, # of connection points: 2
#     Edge 14, Type (0, 0), BuildingBlock: FUNLAD_clean_linker_1, # of connection points: 2
#     Edge 15, Type (0, 0), BuildingBlock: FUNLAD_clean_linker_1, # of connection points: 2
#     Edge 16, Type (0, 0), BuildingBlock: FUNLAD_clean_linker_1, # of connection points: 2
#     Edge 17, Type (0, 0), BuildingBlock: FUNLAD_clean_linker_1, # of connection points: 2
#     Edge 18, Type (0, 0), BuildingBlock: FUNLAD_clean_linker_1, # of connection points: 2
#     Edge 19, Type (0, 0), BuildingBlock: FUNLAD_clean_linker_1, # of connection points: 2
#     Edge 20, Type (0, 0), BuildingBlock: FUNLAD_clean_linker_1, # of connection points: 2
#     Edge 21, Type (0, 0), BuildingBlock: FUNLAD_clean_linker_1, # of connection points: 2
#     Edge 22, Type (0, 0), BuildingBlock: FUNLAD_clean_linker_1, # of connection points: 2
#     Edge 23, Type (0, 0), BuildingBlock: FUNLAD_clean_linker_1, # of connection points: 2
# Relax obj value: 0.229
# Max RMSD: 0.071
# Mean RMSD: 0.071
data_MOF--net-rac--node1-CEKHIL_clean_sbu_0--edge1-FUNLAD_clean_linker_1
_symmetry_space_group_name_H-M    P1
_symmetry_Int_Tables_number       1
_symmetry_cell_setting            triclinic
loop_
_symmetry_equiv_pos_as_xyz
'x, y, z'
_cell_length_a     42.904817
_cell_length_b     22.151199
_cell_length_c     37.161615
_cell_angle_alpha  90.040468
_cell_angle_beta   90.003347
_cell_angle_gamma 90.013745
loop_
_atom_site_label
_atom_site_type_symbol
_atom_site_fract_x
_atom_site_fract_y
_atom_site_fract_z
_atom_type_partial_charge
Co0 Co 0.38466 0.27573 0.052 0.0
O1 O 0.40991 0.34746 0.05624 0.0
O2 O 0.40844 0.28961 0.00791 0.0
C3 C 0.39849 0.24181 0.10696 0.0
O4 O 0.36044 0.19834 0.03858 0.0
Co5 Co 0.3318 0.24709 0.10684 0.0
O6 O 0.33677 0.16403 0.08833 0.0
C7 C 0.32077 0.33063 0.04519 0.0
C8 C 0.41987 0.33703 0.02398 0.0
C9 C 0.34477 0.15752 0.05563 0.0
O10 O 0.34875 0.32441 0.03332 0.0
O11 O 0.31045 0.30564 0.07387 0.0
O12 O 0.41602 0.23028 0.0793 0.0
O13 O 0.37407 0.27387 0.1007 0.0
Co14 Co 0.13703 0.72395 0.05093 0.0
O15 O 0.11355 0.64983 0.05577 0.0
O16 O 0.10465 0.71876 0.01417 0.0
C17 C 0.13591 0.74423 0.11033 0.0
O18 O 0.15721 0.80592 0.038 0.0
Co19 Co 0.20015 0.74664 0.08946 0.0
O20 O 0.18717 0.83173 0.08465 0.0
C21 C 0.19778 0.68148 0.01923 0.0
C22 C 0.09709 0.66709 0.02845 0.0
C23 C 0.17396 0.845 0.05515 0.0
O24 O 0.16783 0.6829 0.0184 0.0
O25 O 0.21428 0.70419 0.04458 0.0
O26 O 0.11254 0.75967 0.09004 0.0
O27 O 0.15835 0.71602 0.09466 0.0
Co28 Co 0.37488 0.20332 0.44165 0.0
O29 O 0.40382 0.13693 0.44138 0.0
O30 O 0.40468 0.21041 0.48141 0.0
C31 C 0.37878 0.22072 0.38202 0.0
O32 O 0.34769 0.27985 0.44831 0.0
Co33 Co 0.31389 0.18651 0.39655 0.0
O34 O 0.30466 0.2692 0.41367 0.0
C35 C 0.32384 0.11868 0.46328 0.0
C36 C 0.41686 0.1603 0.46945 0.0
C37 C 0.32115 0.29906 0.43606 0.0
O38 O 0.34564 0.15507 0.47276 0.0
O39 O 0.3115 0.11843 0.43197 0.0
O40 O 0.39918 0.24378 0.40392 0.0
O41 O 0.35872 0.18513 0.39646 0.0
Co42 Co 0.1222 0.78115 0.44626 0.0
O43 O 0.09331 0.84751 0.44488 0.0
O44 O 0.09237 0.77597 0.48609 0.0
C45 C 0.11822 0.76027 0.38698 0.0
O46 O 0.14922 0.70461 0.45412 0.0
Co47 Co 0.18321 0.79478 0.40194 0.0
O48 O 0.1908 0.71066 0.41701 0.0
C49 C 0.17647 0.85902 0.47093 0.0
C50 C 0.08041 0.82582 0.47348 0.0
C51 C 0.17475 0.68279 0.44061 0.0
O52 O 0.15097 0.83076 0.47724 0.0
O53 O 0.19144 0.85469 0.44122 0.0
O54 O 0.09818 0.73832 0.4096 0.0
O55 O 0.13824 0.79757 0.40035 0.0
Co56 Co 0.62731 0.72367 0.93793 0.0
O57 O 0.59953 0.65552 0.93657 0.0
O58 O 0.6019 0.72008 0.98168 0.0
C59 C 0.61653 0.75279 0.88103 0.0
O60 O 0.65388 0.80035 0.94681 0.0
Co61 Co 0.68305 0.72262 0.88384 0.0
O62 O 0.69325 0.80094 0.90629 0.0
C63 C 0.68429 0.64517 0.94812 0.0
C64 C 0.58929 0.6718 0.96778 0.0
C65 C 0.67881 0.82395 0.93295 0.0
O66 O 0.66022 0.67191 0.96109 0.0
O67 O 0.69492 0.65464 0.91648 0.0
O68 O 0.59868 0.76977 0.90735 0.0
O69 O 0.63856 0.71604 0.88962 0.0
Co70 Co 0.884 0.29063 0.94567 0.0
O71 O 0.91123 0.35974 0.94634 0.0
O72 O 0.91147 0.28869 0.98782 0.0
C73 C 0.89247 0.26958 0.88694 0.0
O74 O 0.85841 0.21206 0.95196 0.0
Co75 Co 0.82608 0.2971 0.89498 0.0
O76 O 0.81873 0.2139 0.91195 0.0
C77 C 0.82538 0.36039 0.96501 0.0
C78 C 0.92317 0.33915 0.97578 0.0
C79 C 0.83383 0.1884 0.93728 0.0
O80 O 0.85166 0.33685 0.97374 0.0
O81 O 0.81292 0.35417 0.9339 0.0
O82 O 0.91153 0.24989 0.91134 0.0
O83 O 0.87067 0.30472 0.89839 0.0
Co84 Co 0.63344 0.78432 0.54725 0.0
O85 O 0.61037 0.85905 0.54994 0.0
O86 O 0.60292 0.78933 0.50838 0.0
C87 C 0.62889 0.76603 0.60655 0.0
O88 O 0.65376 0.70167 0.5365 0.0
Co89 Co 0.69414 0.76169 0.59081 0.0
O90 O 0.68121 0.67662 0.58531 0.0
C91 C 0.69611 0.82358 0.51953 0.0
C92 C 0.59497 0.84139 0.5219 0.0
C93 C 0.66962 0.66295 0.55495 0.0
O94 O 0.66624 0.82329 0.51653 0.0
O95 O 0.71097 0.80176 0.54643 0.0
O96 O 0.60664 0.75026 0.58475 0.0
O97 O 0.65235 0.79325 0.59233 0.0
Co98 Co 0.87213 0.21939 0.55157 0.0
O99 O 0.8952 0.1449 0.55606 0.0
O100 O 0.90372 0.21313 0.51394 0.0
C101 C 0.87459 0.24054 0.61081 0.0
O102 O 0.85196 0.30131 0.53893 0.0
Co103 Co 0.80965 0.2413 0.59192 0.0
O104 O 0.82145 0.3268 0.58528 0.0
C105 C 0.81072 0.17588 0.52179 0.0
C106 C 0.91114 0.16134 0.52817 0.0
C107 C 0.83478 0.33995 0.55581 0.0
O108 O 0.84059 0.17904 0.51981 0.0
O109 O 0.79469 0.1968 0.54806 0.0
O110 O 0.8976 0.25522 0.58981 0.0
O111 O 0.8518 0.2121 0.59594 0.0
H112 H 0.31007 0.13227 0.01557 0.0
C113 C 0.32606 0.11312 0.03512 0.0
H114 H 0.33722 0.04046 0.06812 0.0
H115 H 0.21199 0.93757 0.11849 0.0
H116 H 0.2394 0.95962 0.17336 0.0
H117 H 0.2882 0.01821 0.17267 0.0
H118 H 0.31036 0.05276 0.11694 0.0
C119 C 0.3204 0.05796 0.04893 0.0
C120 C 0.2885 0.02937 0.04841 0.0
C121 C 0.2743 0.01378 0.08179 0.0
C122 C 0.24471 0.98448 0.08246 0.0
C123 C 0.23313 0.96367 0.11607 0.0
C124 C 0.24884 0.97544 0.14805 0.0
C125 C 0.27637 0.00805 0.14764 0.0
C126 C 0.28903 0.0271 0.11512 0.0
H127 H 0.20294 0.8809 0.01228 0.0
C128 C 0.18899 0.89489 0.03519 0.0
H129 H 0.18088 0.95955 0.07466 0.0
H130 H 0.31003 0.04231 0.97947 0.0
H131 H 0.27982 0.03177 0.92462 0.0
H132 H 0.22457 1.00115 0.92684 0.0
H133 H 0.1996 0.97815 0.9838 0.0
C134 C 0.19572 0.94705 0.05218 0.0
C135 C 0.22744 0.9762 0.05007 0.0
C136 C 0.24087 0.99485 0.0169 0.0
C137 C 0.27199 0.01806 0.01589 0.0
C138 C 0.28589 0.02901 0.982 0.0
C139 C 0.2689 0.0225 0.95029 0.0
C140 C 0.23784 0.00488 0.95152 0.0
C141 C 0.22387 0.9912 0.98436 0.0
H142 H 0.17039 0.58972 0.46343 0.0
C143 C 0.18644 0.62211 0.45171 0.0
H144 H 0.23242 0.63923 0.43389 0.0
H145 H 0.28889 0.40501 0.5111 0.0
H146 H 0.28731 0.46688 0.565 0.0
H147 H 0.25944 0.56428 0.56544 0.0
H148 H 0.23242 0.60009 0.51203 0.0
C149 C 0.21644 0.60619 0.44513 0.0
C150 C 0.22888 0.54316 0.44724 0.0
C151 C 0.24497 0.52293 0.47833 0.0
C152 C 0.26169 0.46705 0.47781 0.0
C153 C 0.27653 0.44746 0.50971 0.0
C154 C 0.2757 0.48248 0.54087 0.0
C155 C 0.25998 0.53734 0.54113 0.0
C156 C 0.2447 0.5575 0.51032 0.0
H157 H 0.32474 0.3948 0.4548 0.0
C158 C 0.30866 0.35919 0.44713 0.0
H159 H 0.26208 0.33366 0.43765 0.0
H160 H 0.20005 0.56734 0.38329 0.0
H161 H 0.20238 0.50713 0.3289 0.0
H162 H 0.23267 0.41257 0.32709 0.0
H163 H 0.26076 0.37761 0.37955 0.0
C164 C 0.27762 0.37042 0.44503 0.0
C165 C 0.26291 0.43191 0.44585 0.0
C166 C 0.24667 0.4523 0.41476 0.0
C167 C 0.22955 0.50745 0.41557 0.0
C168 C 0.21364 0.52622 0.38409 0.0
C169 C 0.21471 0.49203 0.35267 0.0
C170 C 0.2317 0.43874 0.35168 0.0
C171 C 0.24757 0.41899 0.38217 0.0
H172 H 0.67746 0.92024 0.95009 0.0
C173 C 0.69229 0.88078 0.94745 0.0
H174 H 0.73731 0.84415 0.94876 0.0
H175 H 0.81943 0.05349 0.89288 0.0
H176 H 0.82594 0.97673 0.84719 0.0
H177 H 0.79371 0.88461 0.84765 0.0
H178 H 0.7549 0.86867 0.89366 0.0
C179 C 0.72361 0.88525 0.95125 0.0
C180 C 0.7416 0.94349 0.95079 0.0
C181 C 0.76436 0.95248 0.92336 0.0
C182 C 0.78274 0.00616 0.92269 0.0
C183 C 0.80487 0.0138 0.89475 0.0
C184 C 0.80886 0.97006 0.86826 0.0
C185 C 0.79077 0.91818 0.86857 0.0
C186 C 0.76867 0.90941 0.8955 0.0
H187 H 0.83721 0.09758 0.96329 0.0
C188 C 0.82168 0.12894 0.94978 0.0
H189 H 0.77597 0.14597 0.93102 0.0
H190 H 0.70364 0.93849 0.00991 0.0
H191 H 0.69654 0.01692 0.05476 0.0
H192 H 0.72632 0.11204 0.05147 0.0
H193 H 0.76391 0.12889 0.00359 0.0
C194 C 0.79169 0.11323 0.94305 0.0
C195 C 0.77809 0.05178 0.94891 0.0
C196 C 0.75577 0.04256 0.97656 0.0
C197 C 0.73791 0.98813 0.9779 0.0
C198 C 0.71694 0.9796 0.00683 0.0
C199 C 0.71282 0.02412 0.03291 0.0
C200 C 0.72961 0.07768 0.03109 0.0
C201 C 0.75097 0.08693 0.0034 0.0
H202 H 0.69894 0.62579 0.51254 0.0
C203 C 0.68565 0.61285 0.53616 0.0
H204 H 0.67904 0.55086 0.5775 0.0
H205 H 0.80587 0.46223 0.48037 0.0
H206 H 0.77473 0.47051 0.42604 0.0
H207 H 0.71958 0.50162 0.42908 0.0
H208 H 0.69573 0.52774 0.48621 0.0
C209 C 0.69322 0.56219 0.55424 0.0
C210 C 0.72495 0.53323 0.55169 0.0
C211 C 0.73757 0.51234 0.51857 0.0
C212 C 0.76848 0.48822 0.51725 0.0
C213 C 0.78178 0.47577 0.48322 0.0
C214 C 0.76428 0.48105 0.4518 0.0
C215 C 0.73329 0.49898 0.45349 0.0
C216 C 0.71997 0.51447 0.48641 0.0
H217 H 0.80216 0.37262 0.51609 0.0
C218 C 0.81927 0.38857 0.53542 0.0
H219 H 0.83374 0.45814 0.56894 0.0
H220 H 0.71174 0.57857 0.61918 0.0
H221 H 0.74014 0.55979 0.67385 0.0
H222 H 0.78803 0.4985 0.67343 0.0
H223 H 0.80836 0.45807 0.61826 0.0
C224 C 0.81602 0.44393 0.54989 0.0
C225 C 0.78534 0.47728 0.5496 0.0
C226 C 0.77217 0.49625 0.58294 0.0
C227 C 0.74298 0.52705 0.58367 0.0
C228 C 0.73247 0.55122 0.61695 0.0
C229 C 0.74876 0.54135 0.64876 0.0
C230 C 0.77579 0.50722 0.64849 0.0
C231 C 0.78741 0.48476 0.61621 0.0
H232 H 0.42913 0.2023 0.14894 0.0
C233 C 0.40733 0.22588 0.14408 0.0
H234 H 0.36872 0.27113 0.16673 0.0
H235 H 0.40714 0.12664 0.31361 0.0
H236 H 0.39592 0.03392 0.2812 0.0
H237 H 0.38566 0.03547 0.21586 0.0
H238 H 0.38721 0.12946 0.18246 0.0
C239 C 0.38983 0.24533 0.17177 0.0
C240 C 0.4 0.24172 0.20984 0.0
C241 C 0.39853 0.18643 0.22885 0.0
C242 C 0.40314 0.1859 0.26673 0.0
C243 C 0.40258 0.12988 0.28505 0.0
C244 C 0.3964 0.0763 0.26673 0.0
C245 C 0.39071 0.07716 0.22993 0.0
C246 C 0.39172 0.13145 0.21106 0.0
H247 H 0.35985 0.21418 0.32734 0.0
C248 C 0.38024 0.22753 0.3428 0.0
H249 H 0.42738 0.25515 0.34052 0.0
H250 H 0.40871 0.35381 0.18055 0.0
H251 H 0.4203 0.44631 0.213 0.0
H252 H 0.4264 0.44583 0.27903 0.0
H253 H 0.42109 0.3528 0.31299 0.0
C254 C 0.40664 0.24228 0.32557 0.0
C255 C 0.40786 0.24097 0.28557 0.0
C256 C 0.4115 0.2955 0.26623 0.0
C257 C 0.4076 0.29586 0.22827 0.0
C258 C 0.41099 0.35113 0.20951 0.0
C259 C 0.41776 0.4045 0.22778 0.0
C260 C 0.42122 0.40421 0.26495 0.0
C261 C 0.4181 0.35051 0.28411 0.0
H262 H 0.09732 0.71847 0.33887 0.0
C263 C 0.11541 0.74919 0.34807 0.0
H264 H 0.14995 0.81201 0.33293 0.0
H265 H 0.12118 0.65228 0.18337 0.0
H266 H 0.14073 0.5654 0.216 0.0
H267 H 0.1555 0.5738 0.27998 0.0
H268 H 0.15005 0.66866 0.31187 0.0
C269 C 0.13285 0.77909 0.32394 0.0
C270 C 0.12652 0.77444 0.28464 0.0
C271 C 0.13124 0.71922 0.26607 0.0
C272 C 0.12445 0.71528 0.22869 0.0
C273 C 0.12745 0.65861 0.21131 0.0
C274 C 0.1384 0.60822 0.2298 0.0
C275 C 0.14658 0.61288 0.26585 0.0
C276 C 0.14311 0.66759 0.2839 0.0
H277 H 0.1598 0.74908 0.16232 0.0
C278 C 0.13736 0.75545 0.14924 0.0
H279 H 0.08931 0.77181 0.15716 0.0
H280 H 0.11333 0.88627 0.31239 0.0
H281 H 0.09518 0.97364 0.27921 0.0
H282 H 0.08608 0.96794 0.21374 0.0
H283 H 0.09481 0.87453 0.1811 0.0
C284 C 0.11205 0.76562 0.1695 0.0
C285 C 0.11486 0.76749 0.20945 0.0
C286 C 0.10976 0.82237 0.22808 0.0
C287 C 0.11549 0.82583 0.26573 0.0
C288 C 0.10984 0.88119 0.28372 0.0
C289 C 0.09933 0.93172 0.26501 0.0
C290 C 0.09418 0.9285 0.22816 0.0
C291 C 0.09931 0.87461 0.20975 0.0
H292 H 0.58686 0.78801 0.83726 0.0
C293 C 0.60879 0.76561 0.84323 0.0
H294 H 0.6483 0.72105 0.82263 0.0
H295 H 0.59853 0.6286 0.67641 0.0
H296 H 0.60519 0.53509 0.70972 0.0
H297 H 0.61613 0.53669 0.7749 0.0
H298 H 0.62081 0.63148 0.8071 0.0
C299 C 0.6269 0.74515 0.81639 0.0
C300 C 0.61656 0.74525 0.7782 0.0
C301 C 0.61297 0.68918 0.76005 0.0
C302 C 0.60617 0.68806 0.72263 0.0
C303 C 0.60362 0.63172 0.70488 0.0
C304 C 0.60729 0.57781 0.72368 0.0
C305 C 0.61348 0.57872 0.76037 0.0
C306 C 0.61624 0.63355 0.7785 0.0
H307 H 0.64898 0.7675 0.6606 0.0
C308 C 0.6279 0.75685 0.6456 0.0
H309 H 0.58035 0.73186 0.64966 0.0
H310 H 0.62279 0.86108 0.80403 0.0
H311 H 0.61297 0.95346 0.77114 0.0
H312 H 0.59721 0.95061 0.70731 0.0
H313 H 0.59174 0.85496 0.67587 0.0
C314 C 0.60195 0.7422 0.66361 0.0
C315 C 0.60269 0.7428 0.70357 0.0
C316 C 0.60406 0.79869 0.72211 0.0
C317 C 0.61179 0.80013 0.75931 0.0
C318 C 0.61555 0.85694 0.7763 0.0
C319 C 0.61025 0.91048 0.75761 0.0
C320 C 0.60148 0.9089 0.72165 0.0
C321 C 0.59854 0.85379 0.70391 0.0
H322 H 0.85226 0.24447 0.66376 0.0
C323 C 0.87414 0.25217 0.64971 0.0
H324 H 0.922 0.2729 0.6555 0.0
H325 H 0.89737 0.39118 0.80992 0.0
H326 H 0.91266 0.47896 0.77518 0.0
H327 H 0.92129 0.47143 0.70969 0.0
H328 H 0.91492 0.37582 0.67858 0.0
C329 C 0.89981 0.26509 0.66881 0.0
C330 C 0.8981 0.26814 0.7088 0.0
C331 C 0.90194 0.32421 0.72653 0.0
C332 C 0.8965 0.32865 0.7642 0.0
C333 C 0.90071 0.38529 0.78127 0.0
C334 C 0.90958 0.43606 0.76167 0.0
C335 C 0.91446 0.43181 0.7248 0.0
C336 C 0.9107 0.37668 0.70728 0.0
H337 H 0.91677 0.22836 0.84071 0.0
C338 C 0.89739 0.25719 0.84844 0.0
H339 H 0.86123 0.31428 0.83058 0.0
H340 H 0.89499 0.15151 0.68444 0.0
H341 H 0.87876 0.06377 0.71869 0.0
H342 H 0.86469 0.07303 0.78283 0.0
H343 H 0.86748 0.16962 0.81325 0.0
C344 C 0.87973 0.28328 0.82298 0.0
C345 C 0.88705 0.27702 0.78401 0.0
C346 C 0.88403 0.22047 0.76641 0.0
C347 C 0.89047 0.21574 0.72897 0.0
C348 C 0.88898 0.15817 0.71243 0.0
C349 C 0.87992 0.10734 0.73184 0.0
C350 C 0.87213 0.11251 0.76797 0.0
C351 C 0.87406 0.16827 0.78518 0.0
H352 H 0.4528 0.3649 0.98081 0.0
C353 C 0.44358 0.37692 0.00708 0.0
H354 H 0.44528 0.43774 0.05077 0.0
H355 H 0.57899 0.54455 0.02928 0.0
H356 H 0.58573 0.48526 0.08339 0.0
H357 H 0.54415 0.41721 0.10468 0.0
H358 H 0.49573 0.40743 0.07169 0.0
C359 C 0.4541 0.42694 0.02411 0.0
C360 C 0.47954 0.46679 0.00987 0.0
C361 C 0.50765 0.47316 0.02982 0.0
C362 C 0.53155 0.51324 0.01782 0.0
C363 C 0.55976 0.51626 0.03755 0.0
C364 C 0.56404 0.48214 0.06861 0.0
C365 C 0.54064 0.4438 0.08058 0.0
C366 C 0.51284 0.4389 0.06145 0.0
H367 H 0.55527 0.65192 0.01158 0.0
C368 C 0.56445 0.63628 0.98598 0.0
H369 H 0.56209 0.57073 0.94479 0.0
H370 H 0.42757 0.47115 0.967 0.0
H371 H 0.42101 0.53006 0.91272 0.0
H372 H 0.46272 0.59768 0.89132 0.0
H373 H 0.51115 0.60732 0.92436 0.0
C374 C 0.55324 0.5851 0.97083 0.0
C375 C 0.52724 0.54789 0.9861 0.0
C376 C 0.49906 0.54184 0.9663 0.0
C377 C 0.47513 0.50186 0.97831 0.0
C378 C 0.4469 0.49907 0.95863 0.0
C379 C 0.4427 0.53308 0.9275 0.0
C380 C 0.46617 0.57119 0.91546 0.0
C381 C 0.49396 0.576 0.93461 0.0
H382 H 0.05808 0.6455 0.99122 0.0
C383 C 0.07103 0.62949 0.01445 0.0
H384 H 0.07559 0.56131 0.05377 0.0
H385 H 0.93971 0.45527 0.04453 0.0
H386 H 0.93821 0.50585 0.10227 0.0
H387 H 0.98161 0.57102 0.1219 0.0
H388 H 0.02668 0.58655 0.08369 0.0
C389 C 0.06323 0.57631 0.02987 0.0
C390 C 0.03671 0.53753 0.01715 0.0
C391 C 0.01069 0.52757 0.04007 0.0
C392 C 0.98574 0.48912 0.02894 0.0
C393 C 0.9596 0.48256 0.05186 0.0
C394 C 0.95835 0.51164 0.08507 0.0
C395 C 0.98278 0.54837 0.09611 0.0
C396 C 0.0086 0.55665 0.07395 0.0
H397 H 0.96012 0.35214 0.01733 0.0
C398 C 0.94914 0.37195 0.9938 0.0
H399 H 0.94875 0.44389 0.95661 0.0
H400 H 0.0844 0.54044 0.96815 0.0
H401 H 0.08614 0.48912 0.91066 0.0
H402 H 0.04279 0.42378 0.89108 0.0
H403 H 0.99755 0.40889 0.92907 0.0
C404 C 0.95945 0.42539 0.98071 0.0
C405 C 0.98697 0.4596 0.99505 0.0
C406 C 0.01329 0.46865 0.97245 0.0
C407 C 0.03819 0.50714 0.98355 0.0
C408 C 0.06447 0.51327 0.96077 0.0
C409 C 0.06589 0.48369 0.92773 0.0
C410 C 0.04149 0.44688 0.91672 0.0
C411 C 0.01555 0.43903 0.93874 0.0
H412 H 0.55678 0.86212 0.48336 0.0
C413 C 0.56923 0.87856 0.50686 0.0
H414 H 0.57259 0.94671 0.54642 0.0
H415 H 0.49349 0.09713 0.42202 0.0
H416 H 0.53914 0.08508 0.38425 0.0
H417 H 0.58317 0.02142 0.40368 0.0
H418 H 0.58174 0.96894 0.46079 0.0
C419 C 0.56075 0.93144 0.52222 0.0
C420 C 0.53382 0.96898 0.50949 0.0
C421 C 0.5351 0.99996 0.4761 0.0
C422 C 0.50979 0.03745 0.46509 0.0
C423 C 0.51184 0.06771 0.4316 0.0
C424 C 0.53799 0.06149 0.40972 0.0
C425 C 0.56277 0.02562 0.42065 0.0
C426 C 0.56155 0.99539 0.45347 0.0
H427 H 0.45518 0.15116 0.50967 0.0
C428 C 0.44418 0.13031 0.48646 0.0
H429 H 0.44462 0.05803 0.4494 0.0
H430 H 0.52404 0.91832 0.57563 0.0
H431 H 0.47863 0.93113 0.61364 0.0
H432 H 0.43456 0.99464 0.59418 0.0
H433 H 0.43574 0.04627 0.53682 0.0
C434 C 0.45529 0.07755 0.47325 0.0
C435 C 0.48326 0.04487 0.48757 0.0
C436 C 0.48223 0.01477 0.52127 0.0
C437 C 0.50758 0.97732 0.5323 0.0
C438 C 0.50567 0.94756 0.56597 0.0
C439 C 0.47965 0.95428 0.58802 0.0
C440 C 0.45485 0.99006 0.57706 0.0
C441 C 0.45591 0.01975 0.54406 0.0
H442 H 0.94903 0.13766 0.48985 0.0
C443 C 0.93635 0.12246 0.51347 0.0
H444 H 0.93154 0.05467 0.55301 0.0
H445 H 1.00419 0.89546 0.42746 0.0
H446 H 0.95822 0.9119 0.39083 0.0
H447 H 0.91643 0.98028 0.41116 0.0
H448 H 0.92044 0.03311 0.46804 0.0
C449 C 0.94364 0.06891 0.52876 0.0
C450 C 0.96926 0.02859 0.51548 0.0
C451 C 0.96644 0.9974 0.48226 0.0
C452 C 0.99044 0.95719 0.47073 0.0
C453 C 0.98689 0.92684 0.43741 0.0
C454 C 0.96053 0.93558 0.41618 0.0
C455 C 0.937 0.97411 0.42762 0.0
C456 C 0.93971 0.0045 0.4603 0.0
H457 H 0.04288 0.83858 0.51437 0.0
C458 C 0.05391 0.85804 0.49076 0.0
H459 H 0.05463 0.92989 0.45346 0.0
H460 H 0.98175 0.07896 0.5811 0.0
H461 H 0.02757 0.06209 0.61789 0.0
H462 H 0.06944 0.99395 0.59749 0.0
H463 H 0.06564 0.94173 0.54043 0.0
C464 C 0.04388 0.91161 0.47759 0.0
C465 C 0.01716 0.94727 0.49254 0.0
C466 C 0.01974 0.97769 0.52604 0.0
C467 C 0.9957 0.01785 0.53761 0.0
C468 C 0.99911 0.04779 0.57107 0.0
C469 C 0.02537 0.03874 0.59242 0.0
C470 C 0.04894 1.00035 0.58094 0.0
C471 C 0.04637 0.97035 0.54812 0.0
H472 H 0.2384 0.65827 0.98718 0.0
C473 C 0.2147 0.64402 0.99332 0.0
H474 H 0.18524 0.56899 0.0002 0.0
H475 H 0.29879 0.40677 0.93382 0.0
H476 H 0.27017 0.41815 0.87751 0.0
H477 H 0.22528 0.48754 0.87343 0.0
H478 H 0.20826 0.54521 0.92574 0.0
C479 C 0.20786 0.58511 0.99116 0.0
C480 C 0.23408 0.54168 0.99284 0.0
C481 C 0.24409 0.51002 0.96184 0.0
C482 C 0.27015 0.47051 0.96408 0.0
C483 C 0.2791 0.4373 0.9333 0.0
C484 C 0.26297 0.44365 0.90094 0.0
C485 C 0.23769 0.48282 0.89863 0.0
C486 C 0.22822 0.51573 0.9287 0.0
H487 H 0.27526 0.37171 0.03677 0.0
C488 C 0.2991 0.37102 0.02669 0.0
H489 H 0.33164 0.41539 0.99266 0.0
H490 H 0.21779 0.58564 0.0597 0.0
H491 H 0.24951 0.58288 0.11359 0.0
H492 H 0.30015 0.52992 0.11379 0.0
H493 H 0.31837 0.47734 0.06033 0.0
C494 C 0.308 0.4134 0.00305 0.0
C495 C 0.28645 0.46463 0.99696 0.0
C496 C 0.27807 0.50058 0.02694 0.0
C497 C 0.25055 0.53547 0.02578 0.0
C498 C 0.24002 0.56303 0.05802 0.0
C499 C 0.25778 0.56089 0.08938 0.0
C500 C 0.28615 0.53081 0.08957 0.0
C501 C 0.29622 0.50061 0.05883 0.0
H502 H 0.30298 0.03324 0.47856 0.0
C503 C 0.31073 0.07642 0.48937 0.0
H504 H 0.30477 0.13973 0.53139 0.0
H505 H 0.17469 0.01461 0.49828 0.0
H506 H 0.16208 0.12093 0.4912 0.0
H507 H 0.20054 0.19975 0.50673 0.0
H508 H 0.25212 0.17217 0.52927 0.0
C509 C 0.30027 0.09422 0.52177 0.0
C510 C 0.27445 0.05832 0.53744 0.0
C511 C 0.24382 0.07512 0.52771 0.0
C512 C 0.2217 0.0297 0.51907 0.0
C513 C 0.19229 0.04729 0.50551 0.0
C514 C 0.18479 0.10817 0.50138 0.0
C515 C 0.20644 0.15258 0.51013 0.0
C516 C 0.23581 0.13642 0.52293 0.0
H517 H 0.17455 0.90917 0.52266 0.0
C518 C 0.18886 0.89906 0.49929 0.0
H519 H 0.23207 0.91166 0.47349 0.0
H520 H 0.32677 0.01588 0.56912 0.0
H521 H 0.33801 0.90989 0.58313 0.0
H522 H 0.29936 0.83028 0.56948 0.0
H523 H 0.24934 0.85592 0.54172 0.0
C524 C 0.21719 0.9239 0.49603 0.0
C525 C 0.23045 0.96818 0.52165 0.0
C526 C 0.25841 0.95266 0.53949 0.0
C527 C 0.28052 0.99817 0.54755 0.0
C528 C 0.30937 0.98196 0.56293 0.0
C529 C 0.31592 0.92179 0.57099 0.0
C530 C 0.29414 0.87693 0.56327 0.0
C531 C 0.2657 0.89195 0.54739 0.0
H532 H 0.72144 0.58007 0.95738 0.0
C533 C 0.70168 0.60212 0.97027 0.0
H534 H 0.67541 0.60856 0.01878 0.0
H535 H 0.73768 0.34255 0.00356 0.0
H536 H 0.68249 0.3149 0.00529 0.0
H537 H 0.64208 0.39254 0.01565 0.0
H538 H 0.65669 0.49842 0.02454 0.0
C539 C 0.69521 0.58901 0.0048 0.0
C540 C 0.71536 0.54368 0.02259 0.0
C541 C 0.70663 0.48262 0.0198 0.0
C542 C 0.72983 0.43838 0.01354 0.0
C543 C 0.72063 0.37776 0.00824 0.0
C544 C 0.68921 0.36154 0.00925 0.0
C545 C 0.66644 0.40527 0.0151 0.0
C546 C 0.67495 0.46547 0.02009 0.0
H547 H 0.81754 0.39775 0.01973 0.0
C548 C 0.80818 0.3949 0.99262 0.0
H549 H 0.77111 0.41597 0.95776 0.0
H550 H 0.73821 0.65242 0.04217 0.0
H551 H 0.79337 0.68027 0.04607 0.0
H552 H 0.83436 0.60505 0.03315 0.0
H553 H 0.82086 0.5023 0.01686 0.0
C554 C 0.78095 0.42137 0.98453 0.0
C555 C 0.76142 0.45605 0.01014 0.0
C556 C 0.77043 0.51496 0.02091 0.0
C557 C 0.747 0.55865 0.02788 0.0
C558 C 0.75567 0.61826 0.03675 0.0
C559 C 0.78698 0.6345 0.03899 0.0
C560 C 0.81006 0.59209 0.03171 0.0
C561 C 0.80201 0.53308 0.02239 0.0
H562 H 0.7391 0.84238 0.49057 0.0
C563 C 0.71496 0.8568 0.4934 0.0
H564 H 0.68436 0.93111 0.49031 0.0
H565 H 0.81726 0.04396 0.54223 0.0
H566 H 0.80077 0.00346 0.59983 0.0
H567 H 0.75161 0.9462 0.60507 0.0
H568 H 0.71951 0.92759 0.5527 0.0
C569 C 0.70765 0.91388 0.4851 0.0
C570 C 0.73338 0.95826 0.48256 0.0
C571 C 0.75053 0.97242 0.51416 0.0
C572 C 0.77743 0.00898 0.51171 0.0
C573 C 0.79574 0.0185 0.543 0.0
C574 C 0.78664 0.99532 0.57618 0.0
C575 C 0.75909 0.96287 0.57908 0.0
C576 C 0.7411 0.95169 0.54861 0.0
H577 H 0.76823 0.14578 0.49538 0.0
C578 C 0.79349 0.14081 0.49491 0.0
H579 H 0.83061 0.08243 0.48179 0.0
H580 H 0.70576 0.93942 0.41729 0.0
H581 H 0.72068 0.986 0.36044 0.0
H582 H 0.76479 0.05746 0.35754 0.0
H583 H 0.79471 0.08205 0.41146 0.0
C584 C 0.80568 0.09074 0.4803 0.0
C585 C 0.78478 0.03773 0.47876 0.0
C586 C 0.76758 0.0244 0.44732 0.0
C587 C 0.74202 0.98365 0.44909 0.0
C588 C 0.72537 0.97018 0.41726 0.0
C589 C 0.73365 0.99669 0.3846 0.0
C590 C 0.75849 0.03703 0.38297 0.0
C591 C 0.77534 0.05099 0.41397 0.0
loop_
_geom_bond_atom_site_label_1
_geom_bond_atom_site_label_2
_geom_bond_distance
_geom_bond_site_symmetry_2
_ccdc_geom_bond_type
Co0 O1 2.216 . S
Co0 O2 2.091 . S
Co0 O4 2.004 . S
Co0 O10 2.021 . S
Co0 O12 2.137 . S
Co0 O13 2.244 . S
O1 Co0 2.216 . S
O1 C8 1.247 . S
O2 Co0 2.091 . S
O2 C8 1.261 . S
C3 O12 1.247 . S
C3 O13 1.272 . S
O4 Co0 2.004 . S
O4 C9 1.259 . S
Co5 O6 2.061 . S
Co5 O11 2.052 . S
Co5 O13 2.135 . S
O6 Co5 2.061 . S
O6 C9 1.235 . S
C7 O10 1.238 . S
C7 O11 1.241 . S
C8 O1 1.247 . S
C8 O2 1.261 . S
C9 O4 1.259 . S
C9 O6 1.235 . S
O10 Co0 2.021 . S
O10 C7 1.238 . S
O11 Co5 2.052 . S
O11 C7 1.241 . S
O12 Co0 2.137 . S
O12 C3 1.247 . S
O13 Co0 2.244 . S
O13 C3 1.272 . S
O13 Co5 2.135 . S
Co14 O15 2.216 . S
Co14 O16 2.091 . S
Co14 O18 2.004 . S
Co14 O24 2.021 . S
Co14 O26 2.137 . S
Co14 O27 2.244 . S
O15 Co14 2.216 . S
O15 C22 1.247 . S
O16 Co14 2.091 . S
O16 C22 1.261 . S
C17 O26 1.247 . S
C17 O27 1.272 . S
O18 Co14 2.004 . S
O18 C23 1.259 . S
Co19 O20 2.061 . S
Co19 O25 2.052 . S
Co19 O27 2.135 . S
O20 Co19 2.061 . S
O20 C23 1.235 . S
C21 O24 1.238 . S
C21 O25 1.241 . S
C22 O15 1.247 . S
C22 O16 1.261 . S
C23 O18 1.259 . S
C23 O20 1.235 . S
O24 Co14 2.021 . S
O24 C21 1.238 . S
O25 Co19 2.052 . S
O25 C21 1.241 . S
O26 Co14 2.137 . S
O26 C17 1.247 . S
O27 Co14 2.244 . S
O27 C17 1.272 . S
O27 Co19 2.135 . S
Co28 O29 2.216 . S
Co28 O30 2.091 . S
Co28 O32 2.004 . S
Co28 O38 2.021 . S
Co28 O40 2.137 . S
Co28 O41 2.244 . S
O29 Co28 2.216 . S
O29 C36 1.247 . S
O30 Co28 2.091 . S
O30 C36 1.261 . S
C31 O40 1.247 . S
C31 O41 1.272 . S
O32 Co28 2.004 . S
O32 C37 1.259 . S
Co33 O34 2.061 . S
Co33 O39 2.052 . S
Co33 O41 2.135 . S
O34 Co33 2.061 . S
O34 C37 1.235 . S
C35 O38 1.238 . S
C35 O39 1.241 . S
C36 O29 1.247 . S
C36 O30 1.261 . S
C37 O32 1.259 . S
C37 O34 1.235 . S
O38 Co28 2.021 . S
O38 C35 1.238 . S
O39 Co33 2.052 . S
O39 C35 1.241 . S
O40 Co28 2.137 . S
O40 C31 1.247 . S
O41 Co28 2.244 . S
O41 C31 1.272 . S
O41 Co33 2.135 . S
Co42 O43 2.216 . S
Co42 O44 2.091 . S
Co42 O46 2.004 . S
Co42 O52 2.021 . S
Co42 O54 2.137 . S
Co42 O55 2.244 . S
O43 Co42 2.216 . S
O43 C50 1.247 . S
O44 Co42 2.091 . S
O44 C50 1.261 . S
C45 O54 1.247 . S
C45 O55 1.272 . S
O46 Co42 2.004 . S
O46 C51 1.259 . S
Co47 O48 2.061 . S
Co47 O53 2.052 . S
Co47 O55 2.135 . S
O48 Co47 2.061 . S
O48 C51 1.235 . S
C49 O52 1.238 . S
C49 O53 1.241 . S
C50 O43 1.247 . S
C50 O44 1.261 . S
C51 O46 1.259 . S
C51 O48 1.235 . S
O52 Co42 2.021 . S
O52 C49 1.238 . S
O53 Co47 2.052 . S
O53 C49 1.241 . S
O54 Co42 2.137 . S
O54 C45 1.247 . S
O55 Co42 2.244 . S
O55 C45 1.272 . S
O55 Co47 2.135 . S
Co56 O57 2.216 . S
Co56 O58 2.091 . S
Co56 O60 2.004 . S
Co56 O66 2.021 . S
Co56 O68 2.137 . S
Co56 O69 2.244 . S
O57 Co56 2.216 . S
O57 C64 1.247 . S
O58 Co56 2.091 . S
O58 C64 1.261 . S
C59 O68 1.247 . S
C59 O69 1.272 . S
O60 Co56 2.004 . S
O60 C65 1.259 . S
Co61 O62 2.061 . S
Co61 O67 2.052 . S
Co61 O69 2.135 . S
O62 Co61 2.061 . S
O62 C65 1.235 . S
C63 O66 1.238 . S
C63 O67 1.241 . S
C64 O57 1.247 . S
C64 O58 1.261 . S
C65 O60 1.259 . S
C65 O62 1.235 . S
O66 Co56 2.021 . S
O66 C63 1.238 . S
O67 Co61 2.052 . S
O67 C63 1.241 . S
O68 Co56 2.137 . S
O68 C59 1.247 . S
O69 Co56 2.244 . S
O69 C59 1.272 . S
O69 Co61 2.135 . S
Co70 O71 2.216 . S
Co70 O72 2.091 . S
Co70 O74 2.004 . S
Co70 O80 2.021 . S
Co70 O82 2.137 . S
Co70 O83 2.244 . S
O71 Co70 2.216 . S
O71 C78 1.247 . S
O72 Co70 2.091 . S
O72 C78 1.261 . S
C73 O82 1.247 . S
C73 O83 1.272 . S
O74 Co70 2.004 . S
O74 C79 1.259 . S
Co75 O76 2.061 . S
Co75 O81 2.052 . S
Co75 O83 2.135 . S
O76 Co75 2.061 . S
O76 C79 1.235 . S
C77 O80 1.238 . S
C77 O81 1.241 . S
C78 O71 1.247 . S
C78 O72 1.261 . S
C79 O74 1.259 . S
C79 O76 1.235 . S
O80 Co70 2.021 . S
O80 C77 1.238 . S
O81 Co75 2.052 . S
O81 C77 1.241 . S
O82 Co70 2.137 . S
O82 C73 1.247 . S
O83 Co70 2.244 . S
O83 C73 1.272 . S
O83 Co75 2.135 . S
Co84 O85 2.216 . S
Co84 O86 2.091 . S
Co84 O88 2.004 . S
Co84 O94 2.021 . S
Co84 O96 2.137 . S
Co84 O97 2.244 . S
O85 Co84 2.216 . S
O85 C92 1.247 . S
O86 Co84 2.091 . S
O86 C92 1.261 . S
C87 O96 1.247 . S
C87 O97 1.272 . S
O88 Co84 2.004 . S
O88 C93 1.259 . S
Co89 O90 2.061 . S
Co89 O95 2.052 . S
Co89 O97 2.135 . S
O90 Co89 2.061 . S
O90 C93 1.235 . S
C91 O94 1.238 . S
C91 O95 1.241 . S
C92 O85 1.247 . S
C92 O86 1.261 . S
C93 O88 1.259 . S
C93 O90 1.235 . S
O94 Co84 2.021 . S
O94 C91 1.238 . S
O95 Co89 2.052 . S
O95 C91 1.241 . S
O96 Co84 2.137 . S
O96 C87 1.247 . S
O97 Co84 2.244 . S
O97 C87 1.272 . S
O97 Co89 2.135 . S
Co98 O99 2.216 . S
Co98 O100 2.091 . S
Co98 O102 2.004 . S
Co98 O108 2.021 . S
Co98 O110 2.137 . S
Co98 O111 2.244 . S
O99 Co98 2.216 . S
O99 C106 1.247 . S
O100 Co98 2.091 . S
O100 C106 1.261 . S
C101 O110 1.247 . S
C101 O111 1.272 . S
O102 Co98 2.004 . S
O102 C107 1.259 . S
Co103 O104 2.061 . S
Co103 O109 2.052 . S
Co103 O111 2.135 . S
O104 Co103 2.061 . S
O104 C107 1.235 . S
C105 O108 1.238 . S
C105 O109 1.241 . S
C106 O99 1.247 . S
C106 O100 1.261 . S
C107 O102 1.259 . S
C107 O104 1.235 . S
O108 Co98 2.021 . S
O108 C105 1.238 . S
O109 Co103 2.052 . S
O109 C105 1.241 . S
O110 Co98 2.137 . S
O110 C101 1.247 . S
O111 Co98 2.244 . S
O111 C101 1.272 . S
O111 Co103 2.135 . S
H112 C113 0.951 . S
C113 H112 0.951 . S
C113 C119 1.265 . S
H114 C119 0.950 . S
H115 C123 0.949 . S
H116 C124 0.950 . S
H117 C125 0.951 . S
H118 C126 0.951 . S
C119 C113 1.265 . S
C119 H114 0.950 . S
C119 C120 1.478 . S
C120 C119 1.478 . S
C120 C121 1.397 . S
C120 C137 1.394 1_554 S
C121 C120 1.397 . S
C121 C122 1.438 1_545 S
C121 C126 1.429 . S
C122 C121 1.438 1_565 S
C122 C123 1.428 . S
C122 C135 1.394 . S
C123 H115 0.949 . S
C123 C122 1.428 . S
C123 C124 1.345 . S
C124 H116 0.950 . S
C124 C123 1.345 . S
C124 C125 1.424 . S
C125 H117 0.951 . S
C125 C124 1.424 . S
C125 C126 1.347 1_565 S
C126 H118 0.951 . S
C126 C121 1.429 . S
C126 C125 1.347 1_545 S
H127 C128 0.951 . S
C128 H127 0.951 . S
C128 C134 1.265 . S
H129 C134 0.950 . S
H130 C138 0.949 . S
H131 C139 0.950 . S
H132 C140 0.951 . S
H133 C141 0.951 . S
C134 C128 1.265 . S
C134 H129 0.950 . S
C134 C135 1.478 . S
C135 C122 1.394 . S
C135 C134 1.478 . S
C135 C136 1.397 1_554 S
C136 C135 1.397 1_556 S
C136 C137 1.438 1_565 S
C136 C141 1.429 . S
C137 C120 1.394 1_556 S
C137 C136 1.438 1_545 S
C137 C138 1.428 . S
C138 H130 0.949 . S
C138 C137 1.428 . S
C138 C139 1.345 . S
C139 H131 0.950 . S
C139 C138 1.345 . S
C139 C140 1.424 . S
C140 H132 0.951 . S
C140 C139 1.424 . S
C140 C141 1.347 1_545 S
C141 H133 0.951 . S
C141 C136 1.429 . S
C141 C140 1.347 1_565 S
H142 C143 0.951 . S
C143 H142 0.951 . S
C143 C149 1.265 . S
H144 C149 0.950 . S
H145 C153 0.949 . S
H146 C154 0.950 . S
H147 C155 0.951 . S
H148 C156 0.951 . S
C149 C143 1.265 . S
C149 H144 0.950 . S
C149 C150 1.478 . S
C150 C149 1.478 . S
C150 C151 1.397 . S
C150 C167 1.394 . S
C151 C150 1.397 . S
C151 C152 1.438 . S
C151 C156 1.429 . S
C152 C151 1.438 . S
C152 C153 1.428 . S
C152 C165 1.394 . S
C153 H145 0.949 . S
C153 C152 1.428 . S
C153 C154 1.345 . S
C154 H146 0.950 . S
C154 C153 1.345 . S
C154 C155 1.424 . S
C155 H147 0.951 . S
C155 C154 1.424 . S
C155 C156 1.347 . S
C156 H148 0.951 . S
C156 C151 1.429 . S
C156 C155 1.347 . S
H157 C158 0.951 . S
C158 H157 0.951 . S
C158 C164 1.265 . S
H159 C164 0.950 . S
H160 C168 0.949 . S
H161 C169 0.950 . S
H162 C170 0.951 . S
H163 C171 0.951 . S
C164 C158 1.265 . S
C164 H159 0.950 . S
C164 C165 1.478 . S
C165 C152 1.394 . S
C165 C164 1.478 . S
C165 C166 1.397 . S
C166 C165 1.397 . S
C166 C167 1.438 . S
C166 C171 1.429 . S
C167 C150 1.394 . S
C167 C166 1.438 . S
C167 C168 1.428 . S
C168 H160 0.949 . S
C168 C167 1.428 . S
C168 C169 1.345 . S
C169 H161 0.950 . S
C169 C168 1.345 . S
C169 C170 1.424 . S
C170 H162 0.951 . S
C170 C169 1.424 . S
C170 C171 1.347 . S
C171 H163 0.951 . S
C171 C166 1.429 . S
C171 C170 1.347 . S
H172 C173 0.951 . S
C173 H172 0.951 . S
C173 C179 1.265 . S
H174 C179 0.950 . S
H175 C183 0.949 . S
H176 C184 0.950 . S
H177 C185 0.951 . S
H178 C186 0.951 . S
C179 C173 1.265 . S
C179 H174 0.950 . S
C179 C180 1.478 . S
C180 C179 1.478 . S
C180 C181 1.397 . S
C180 C197 1.394 1_556 S
C181 C180 1.397 . S
C181 C182 1.438 1_565 S
C181 C186 1.429 . S
C182 C181 1.438 1_545 S
C182 C183 1.428 . S
C182 C195 1.394 . S
C183 H175 0.949 . S
C183 C182 1.428 . S
C183 C184 1.345 1_545 S
C184 H176 0.950 . S
C184 C183 1.345 1_565 S
C184 C185 1.424 . S
C185 H177 0.951 . S
C185 C184 1.424 . S
C185 C186 1.347 . S
C186 H178 0.951 . S
C186 C181 1.429 . S
C186 C185 1.347 . S
H187 C188 0.951 . S
C188 H187 0.951 . S
C188 C194 1.265 . S
H189 C194 0.950 . S
H190 C198 0.949 . S
H191 C199 0.950 . S
H192 C200 0.951 . S
H193 C201 0.951 . S
C194 C188 1.265 . S
C194 H189 0.950 . S
C194 C195 1.478 . S
C195 C182 1.394 . S
C195 C194 1.478 . S
C195 C196 1.397 1_556 S
C196 C195 1.397 1_554 S
C196 C197 1.438 1_545 S
C196 C201 1.429 . S
C197 C180 1.394 1_554 S
C197 C196 1.438 1_565 S
C197 C198 1.428 . S
C198 H190 0.949 . S
C198 C197 1.428 . S
C198 C199 1.345 1_565 S
C199 H191 0.950 . S
C199 C198 1.345 1_545 S
C199 C200 1.424 . S
C200 H192 0.951 . S
C200 C199 1.424 . S
C200 C201 1.347 . S
C201 H193 0.951 . S
C201 C196 1.429 . S
C201 C200 1.347 . S
H202 C203 0.951 . S
C203 H202 0.951 . S
C203 C209 1.265 . S
H204 C209 0.950 . S
H205 C213 0.949 . S
H206 C214 0.950 . S
H207 C215 0.951 . S
H208 C216 0.951 . S
C209 C203 1.265 . S
C209 H204 0.950 . S
C209 C210 1.478 . S
C210 C209 1.478 . S
C210 C211 1.397 . S
C210 C227 1.394 . S
C211 C210 1.397 . S
C211 C212 1.438 . S
C211 C216 1.429 . S
C212 C211 1.438 . S
C212 C213 1.428 . S
C212 C225 1.394 . S
C213 H205 0.949 . S
C213 C212 1.428 . S
C213 C214 1.345 . S
C214 H206 0.950 . S
C214 C213 1.345 . S
C214 C215 1.424 . S
C215 H207 0.951 . S
C215 C214 1.424 . S
C215 C216 1.347 . S
C216 H208 0.951 . S
C216 C211 1.429 . S
C216 C215 1.347 . S
H217 C218 0.951 . S
C218 H217 0.951 . S
C218 C224 1.265 . S
H219 C224 0.950 . S
H220 C228 0.949 . S
H221 C229 0.950 . S
H222 C230 0.951 . S
H223 C231 0.951 . S
C224 C218 1.265 . S
C224 H219 0.950 . S
C224 C225 1.478 . S
C225 C212 1.394 . S
C225 C224 1.478 . S
C225 C226 1.397 . S
C226 C225 1.397 . S
C226 C227 1.438 . S
C226 C231 1.429 . S
C227 C210 1.394 . S
C227 C226 1.438 . S
C227 C228 1.428 . S
C228 H220 0.949 . S
C228 C227 1.428 . S
C228 C229 1.345 . S
C229 H221 0.950 . S
C229 C228 1.345 . S
C229 C230 1.424 . S
C230 H222 0.951 . S
C230 C229 1.424 . S
C230 C231 1.347 . S
C231 H223 0.951 . S
C231 C226 1.429 . S
C231 C230 1.347 . S
H232 C233 0.951 . S
C233 H232 0.951 . S
C233 C239 1.265 . S
H234 C239 0.950 . S
H235 C243 0.949 . S
H236 C244 0.950 . S
H237 C245 0.951 . S
H238 C246 0.951 . S
C239 C233 1.265 . S
C239 H234 0.950 . S
C239 C240 1.478 . S
C240 C239 1.478 . S
C240 C241 1.397 . S
C240 C257 1.394 . S
C241 C240 1.397 . S
C241 C242 1.438 . S
C241 C246 1.429 . S
C242 C241 1.438 . S
C242 C243 1.428 . S
C242 C255 1.394 . S
C243 H235 0.949 . S
C243 C242 1.428 . S
C243 C244 1.345 . S
C244 H236 0.950 . S
C244 C243 1.345 . S
C244 C245 1.424 . S
C245 H237 0.951 . S
C245 C244 1.424 . S
C245 C246 1.347 . S
C246 H238 0.951 . S
C246 C241 1.429 . S
C246 C245 1.347 . S
H247 C248 0.951 . S
C248 H247 0.951 . S
C248 C254 1.265 . S
H249 C254 0.950 . S
H250 C258 0.949 . S
H251 C259 0.950 . S
H252 C260 0.951 . S
H253 C261 0.951 . S
C254 C248 1.265 . S
C254 H249 0.950 . S
C254 C255 1.478 . S
C255 C242 1.394 . S
C255 C254 1.478 . S
C255 C256 1.397 . S
C256 C255 1.397 . S
C256 C257 1.438 . S
C256 C261 1.429 . S
C257 C240 1.394 . S
C257 C256 1.438 . S
C257 C258 1.428 . S
C258 H250 0.949 . S
C258 C257 1.428 . S
C258 C259 1.345 . S
C259 H251 0.950 . S
C259 C258 1.345 . S
C259 C260 1.424 . S
C260 H252 0.951 . S
C260 C259 1.424 . S
C260 C261 1.347 . S
C261 H253 0.951 . S
C261 C256 1.429 . S
C261 C260 1.347 . S
H262 C263 0.951 . S
C263 H262 0.951 . S
C263 C269 1.265 . S
H264 C269 0.950 . S
H265 C273 0.949 . S
H266 C274 0.950 . S
H267 C275 0.951 . S
H268 C276 0.951 . S
C269 C263 1.265 . S
C269 H264 0.950 . S
C269 C270 1.478 . S
C270 C269 1.478 . S
C270 C271 1.397 . S
C270 C287 1.394 . S
C271 C270 1.397 . S
C271 C272 1.438 . S
C271 C276 1.429 . S
C272 C271 1.438 . S
C272 C273 1.428 . S
C272 C285 1.394 . S
C273 H265 0.949 . S
C273 C272 1.428 . S
C273 C274 1.345 . S
C274 H266 0.950 . S
C274 C273 1.345 . S
C274 C275 1.424 . S
C275 H267 0.951 . S
C275 C274 1.424 . S
C275 C276 1.347 . S
C276 H268 0.951 . S
C276 C271 1.429 . S
C276 C275 1.347 . S
H277 C278 0.951 . S
C278 H277 0.951 . S
C278 C284 1.265 . S
H279 C284 0.950 . S
H280 C288 0.949 . S
H281 C289 0.950 . S
H282 C290 0.951 . S
H283 C291 0.951 . S
C284 C278 1.265 . S
C284 H279 0.950 . S
C284 C285 1.478 . S
C285 C272 1.394 . S
C285 C284 1.478 . S
C285 C286 1.397 . S
C286 C285 1.397 . S
C286 C287 1.438 . S
C286 C291 1.429 . S
C287 C270 1.394 . S
C287 C286 1.438 . S
C287 C288 1.428 . S
C288 H280 0.949 . S
C288 C287 1.428 . S
C288 C289 1.345 . S
C289 H281 0.950 . S
C289 C288 1.345 . S
C289 C290 1.424 . S
C290 H282 0.951 . S
C290 C289 1.424 . S
C290 C291 1.347 . S
C291 H283 0.951 . S
C291 C286 1.429 . S
C291 C290 1.347 . S
H292 C293 0.951 . S
C293 H292 0.951 . S
C293 C299 1.265 . S
H294 C299 0.950 . S
H295 C303 0.949 . S
H296 C304 0.950 . S
H297 C305 0.951 . S
H298 C306 0.951 . S
C299 C293 1.265 . S
C299 H294 0.950 . S
C299 C300 1.478 . S
C300 C299 1.478 . S
C300 C301 1.397 . S
C300 C317 1.394 . S
C301 C300 1.397 . S
C301 C302 1.438 . S
C301 C306 1.429 . S
C302 C301 1.438 . S
C302 C303 1.428 . S
C302 C315 1.394 . S
C303 H295 0.949 . S
C303 C302 1.428 . S
C303 C304 1.345 . S
C304 H296 0.950 . S
C304 C303 1.345 . S
C304 C305 1.424 . S
C305 H297 0.951 . S
C305 C304 1.424 . S
C305 C306 1.347 . S
C306 H298 0.951 . S
C306 C301 1.429 . S
C306 C305 1.347 . S
H307 C308 0.951 . S
C308 H307 0.951 . S
C308 C314 1.265 . S
H309 C314 0.950 . S
H310 C318 0.949 . S
H311 C319 0.950 . S
H312 C320 0.951 . S
H313 C321 0.951 . S
C314 C308 1.265 . S
C314 H309 0.950 . S
C314 C315 1.478 . S
C315 C302 1.394 . S
C315 C314 1.478 . S
C315 C316 1.397 . S
C316 C315 1.397 . S
C316 C317 1.438 . S
C316 C321 1.429 . S
C317 C300 1.394 . S
C317 C316 1.438 . S
C317 C318 1.428 . S
C318 H310 0.949 . S
C318 C317 1.428 . S
C318 C319 1.345 . S
C319 H311 0.950 . S
C319 C318 1.345 . S
C319 C320 1.424 . S
C320 H312 0.951 . S
C320 C319 1.424 . S
C320 C321 1.347 . S
C321 H313 0.951 . S
C321 C316 1.429 . S
C321 C320 1.347 . S
H322 C323 0.951 . S
C323 H322 0.951 . S
C323 C329 1.265 . S
H324 C329 0.950 . S
H325 C333 0.949 . S
H326 C334 0.950 . S
H327 C335 0.951 . S
H328 C336 0.951 . S
C329 C323 1.265 . S
C329 H324 0.950 . S
C329 C330 1.478 . S
C330 C329 1.478 . S
C330 C331 1.397 . S
C330 C347 1.394 . S
C331 C330 1.397 . S
C331 C332 1.438 . S
C331 C336 1.429 . S
C332 C331 1.438 . S
C332 C333 1.428 . S
C332 C345 1.394 . S
C333 H325 0.949 . S
C333 C332 1.428 . S
C333 C334 1.345 . S
C334 H326 0.950 . S
C334 C333 1.345 . S
C334 C335 1.424 . S
C335 H327 0.951 . S
C335 C334 1.424 . S
C335 C336 1.347 . S
C336 H328 0.951 . S
C336 C331 1.429 . S
C336 C335 1.347 . S
H337 C338 0.951 . S
C338 H337 0.951 . S
C338 C344 1.265 . S
H339 C344 0.950 . S
H340 C348 0.949 . S
H341 C349 0.950 . S
H342 C350 0.951 . S
H343 C351 0.951 . S
C344 C338 1.265 . S
C344 H339 0.950 . S
C344 C345 1.478 . S
C345 C332 1.394 . S
C345 C344 1.478 . S
C345 C346 1.397 . S
C346 C345 1.397 . S
C346 C347 1.438 . S
C346 C351 1.429 . S
C347 C330 1.394 . S
C347 C346 1.438 . S
C347 C348 1.428 . S
C348 H340 0.949 . S
C348 C347 1.428 . S
C348 C349 1.345 . S
C349 H341 0.950 . S
C349 C348 1.345 . S
C349 C350 1.424 . S
C350 H342 0.951 . S
C350 C349 1.424 . S
C350 C351 1.347 . S
C351 H343 0.951 . S
C351 C346 1.429 . S
C351 C350 1.347 . S
H352 C353 0.951 . S
C353 H352 0.951 . S
C353 C359 1.262 1_554 S
H354 C359 0.953 . S
H355 C363 0.949 . S
H356 C364 0.950 . S
H357 C365 0.951 . S
H358 C366 0.951 . S
C359 C353 1.262 1_556 S
C359 H354 0.953 . S
C359 C360 1.478 . S
C360 C359 1.478 . S
C360 C361 1.396 1_556 S
C360 C377 1.395 . S
C361 C360 1.396 1_554 S
C361 C362 1.438 . S
C361 C366 1.429 . S
C362 C361 1.438 . S
C362 C363 1.428 . S
C362 C375 1.395 . S
C363 H355 0.949 . S
C363 C362 1.428 . S
C363 C364 1.345 . S
C364 H356 0.950 . S
C364 C363 1.345 . S
C364 C365 1.424 . S
C365 H357 0.951 . S
C365 C364 1.424 . S
C365 C366 1.347 . S
C366 H358 0.951 . S
C366 C361 1.429 . S
C366 C365 1.347 . S
H367 C368 0.951 . S
C368 H367 0.951 . S
C368 C374 1.262 1_556 S
H369 C374 0.953 . S
H370 C378 0.949 . S
H371 C379 0.950 . S
H372 C380 0.951 . S
H373 C381 0.951 . S
C374 C368 1.262 1_554 S
C374 H369 0.953 . S
C374 C375 1.478 . S
C375 C362 1.395 . S
C375 C374 1.478 . S
C375 C376 1.396 1_554 S
C376 C375 1.396 1_556 S
C376 C377 1.438 . S
C376 C381 1.429 . S
C377 C360 1.395 . S
C377 C376 1.438 . S
C377 C378 1.428 . S
C378 H370 0.949 . S
C378 C377 1.428 . S
C378 C379 1.345 . S
C379 H371 0.950 . S
C379 C378 1.345 . S
C379 C380 1.424 . S
C380 H372 0.951 . S
C380 C379 1.424 . S
C380 C381 1.347 . S
C381 H373 0.951 . S
C381 C376 1.429 . S
C381 C380 1.347 . S
H382 C383 0.951 . S
C383 H382 0.951 . S
C383 C389 1.265 . S
H384 C389 0.950 . S
H385 C393 0.949 . S
H386 C394 0.951 . S
H387 C395 0.951 . S
H388 C396 0.951 . S
C389 C383 1.265 . S
C389 H384 0.950 . S
C389 C390 1.478 . S
C390 C389 1.478 . S
C390 C391 1.397 . S
C390 C407 1.394 1_554 S
C391 C390 1.397 . S
C391 C392 1.438 1_455 S
C391 C396 1.429 . S
C392 C391 1.438 1_655 S
C392 C393 1.428 . S
C392 C405 1.394 1_554 S
C393 H385 0.949 . S
C393 C392 1.428 . S
C393 C394 1.348 . S
C394 H386 0.951 . S
C394 C393 1.348 . S
C394 C395 1.419 1_655 S
C395 H387 0.951 . S
C395 C394 1.419 1_455 S
C395 C396 1.347 . S
C396 H388 0.951 . S
C396 C391 1.429 . S
C396 C395 1.347 . S
H397 C398 0.951 . S
C398 H397 0.951 . S
C398 C404 1.265 . S
H399 C404 0.950 . S
H400 C408 0.949 . S
H401 C409 0.951 . S
H402 C410 0.951 . S
H403 C411 0.951 . S
C404 C398 1.265 . S
C404 H399 0.950 . S
C404 C405 1.478 . S
C405 C392 1.394 1_556 S
C405 C404 1.478 . S
C405 C406 1.397 . S
C406 C405 1.397 . S
C406 C407 1.438 1_655 S
C406 C411 1.429 . S
C407 C390 1.394 1_556 S
C407 C406 1.438 1_455 S
C407 C408 1.428 . S
C408 H400 0.949 . S
C408 C407 1.428 . S
C408 C409 1.348 . S
C409 H401 0.951 . S
C409 C408 1.348 . S
C409 C410 1.419 1_455 S
C410 H402 0.951 . S
C410 C409 1.419 1_655 S
C410 C411 1.347 . S
C411 H403 0.951 . S
C411 C406 1.429 . S
C411 C410 1.347 . S
H412 C413 0.951 . S
C413 H412 0.951 . S
C413 C419 1.265 . S
H414 C419 0.950 . S
H415 C423 0.949 . S
H416 C424 0.950 . S
H417 C425 0.951 . S
H418 C426 0.951 . S
C419 C413 1.265 . S
C419 H414 0.950 . S
C419 C420 1.478 . S
C420 C419 1.478 . S
C420 C421 1.397 . S
C420 C437 1.394 . S
C421 C420 1.397 . S
C421 C422 1.438 1_565 S
C421 C426 1.429 . S
C422 C421 1.438 1_545 S
C422 C423 1.428 . S
C422 C435 1.394 . S
C423 H415 0.949 . S
C423 C422 1.428 . S
C423 C424 1.345 . S
C424 H416 0.950 . S
C424 C423 1.345 . S
C424 C425 1.424 . S
C425 H417 0.951 . S
C425 C424 1.424 . S
C425 C426 1.347 1_545 S
C426 H418 0.951 . S
C426 C421 1.429 . S
C426 C425 1.347 1_565 S
H427 C428 0.951 . S
C428 H427 0.951 . S
C428 C434 1.265 . S
H429 C434 0.950 . S
H430 C438 0.949 . S
H431 C439 0.950 . S
H432 C440 0.951 . S
H433 C441 0.951 . S
C434 C428 1.265 . S
C434 H429 0.950 . S
C434 C435 1.478 . S
C435 C422 1.394 . S
C435 C434 1.478 . S
C435 C436 1.397 . S
C436 C435 1.397 . S
C436 C437 1.438 1_545 S
C436 C441 1.429 . S
C437 C420 1.394 . S
C437 C436 1.438 1_565 S
C437 C438 1.428 . S
C438 H430 0.949 . S
C438 C437 1.428 . S
C438 C439 1.345 . S
C439 H431 0.950 . S
C439 C438 1.345 . S
C439 C440 1.424 . S
C440 H432 0.951 . S
C440 C439 1.424 . S
C440 C441 1.347 1_565 S
C441 H433 0.951 . S
C441 C436 1.429 . S
C441 C440 1.347 1_545 S
H442 C443 0.951 . S
C443 H442 0.951 . S
C443 C449 1.265 . S
H444 C449 0.950 . S
H445 C453 0.949 . S
H446 C454 0.950 . S
H447 C455 0.951 . S
H448 C456 0.951 . S
C449 C443 1.265 . S
C449 H444 0.950 . S
C449 C450 1.478 . S
C450 C449 1.478 . S
C450 C451 1.397 . S
C450 C467 1.394 . S
C451 C450 1.397 . S
C451 C452 1.438 1_645 S
C451 C456 1.429 . S
C452 C451 1.438 1_465 S
C452 C453 1.428 . S
C452 C465 1.394 . S
C453 H445 0.949 . S
C453 C452 1.428 . S
C453 C454 1.345 . S
C454 H446 0.950 . S
C454 C453 1.345 . S
C454 C455 1.424 1_465 S
C455 H447 0.951 . S
C455 C454 1.424 1_645 S
C455 C456 1.347 . S
C456 H448 0.951 . S
C456 C451 1.429 . S
C456 C455 1.347 . S
H457 C458 0.951 . S
C458 H457 0.951 . S
C458 C464 1.265 . S
H459 C464 0.950 . S
H460 C468 0.949 . S
H461 C469 0.950 . S
H462 C470 0.951 . S
H463 C471 0.951 . S
C464 C458 1.265 . S
C464 H459 0.950 . S
C464 C465 1.478 . S
C465 C452 1.394 . S
C465 C464 1.478 . S
C465 C466 1.397 . S
C466 C465 1.397 . S
C466 C467 1.438 1_465 S
C466 C471 1.429 . S
C467 C450 1.394 . S
C467 C466 1.438 1_645 S
C467 C468 1.428 . S
C468 H460 0.949 . S
C468 C467 1.428 . S
C468 C469 1.345 . S
C469 H461 0.950 . S
C469 C468 1.345 . S
C469 C470 1.424 1_645 S
C470 H462 0.951 . S
C470 C469 1.424 1_465 S
C470 C471 1.347 . S
C471 H463 0.951 . S
C471 C466 1.429 . S
C471 C470 1.347 . S
H472 C473 0.951 . S
C473 H472 0.951 . S
C473 C479 1.265 . S
H474 C479 0.950 . S
H475 C483 0.949 . S
H476 C484 0.950 . S
H477 C485 0.951 . S
H478 C486 0.951 . S
C479 C473 1.265 . S
C479 H474 0.950 . S
C479 C480 1.478 . S
C480 C479 1.478 . S
C480 C481 1.397 1_554 S
C480 C497 1.394 . S
C481 C480 1.397 1_556 S
C481 C482 1.438 . S
C481 C486 1.429 . S
C482 C481 1.438 . S
C482 C483 1.428 . S
C482 C495 1.394 1_556 S
C483 H475 0.949 . S
C483 C482 1.428 . S
C483 C484 1.345 . S
C484 H476 0.950 . S
C484 C483 1.345 . S
C484 C485 1.424 . S
C485 H477 0.951 . S
C485 C484 1.424 . S
C485 C486 1.347 . S
C486 H478 0.951 . S
C486 C481 1.429 . S
C486 C485 1.347 . S
H487 C488 0.951 . S
C488 H487 0.951 . S
C488 C494 1.265 . S
H489 C494 0.950 . S
H490 C498 0.949 . S
H491 C499 0.950 . S
H492 C500 0.951 . S
H493 C501 0.951 . S
C494 C488 1.265 . S
C494 H489 0.950 . S
C494 C495 1.478 . S
C495 C482 1.394 1_554 S
C495 C494 1.478 . S
C495 C496 1.397 . S
C496 C495 1.397 . S
C496 C497 1.438 . S
C496 C501 1.429 . S
C497 C480 1.394 . S
C497 C496 1.438 . S
C497 C498 1.428 . S
C498 H490 0.949 . S
C498 C497 1.428 . S
C498 C499 1.345 . S
C499 H491 0.950 . S
C499 C498 1.345 . S
C499 C500 1.424 . S
C500 H492 0.951 . S
C500 C499 1.424 . S
C500 C501 1.347 . S
C501 H493 0.951 . S
C501 C496 1.429 . S
C501 C500 1.347 . S
H502 C503 0.951 . S
C503 H502 0.951 . S
C503 C509 1.265 . S
H504 C509 0.950 . S
H505 C513 0.949 . S
H506 C514 0.950 1_565 S
H507 C515 0.951 . S
H508 C516 0.951 . S
C509 C503 1.265 . S
C509 H504 0.950 . S
C509 C510 1.478 . S
C510 C509 1.478 . S
C510 C511 1.397 . S
C510 C527 1.394 . S
C511 C510 1.397 . S
C511 C512 1.438 1_545 S
C511 C516 1.429 . S
C512 C511 1.438 1_565 S
C512 C513 1.428 . S
C512 C525 1.394 . S
C513 H505 0.949 . S
C513 C512 1.428 . S
C513 C514 1.345 1_565 S
C514 H506 0.950 1_545 S
C514 C513 1.345 1_545 S
C514 C515 1.424 . S
C515 H507 0.951 . S
C515 C514 1.424 . S
C515 C516 1.347 . S
C516 H508 0.951 . S
C516 C511 1.429 . S
C516 C515 1.347 . S
H517 C518 0.951 . S
C518 H517 0.951 . S
C518 C524 1.265 . S
H519 C524 0.950 . S
H520 C528 0.949 . S
H521 C529 0.950 1_545 S
H522 C530 0.951 . S
H523 C531 0.951 . S
C524 C518 1.265 . S
C524 H519 0.950 . S
C524 C525 1.478 . S
C525 C512 1.394 . S
C525 C524 1.478 . S
C525 C526 1.397 . S
C526 C525 1.397 . S
C526 C527 1.438 1_565 S
C526 C531 1.429 . S
C527 C510 1.394 . S
C527 C526 1.438 1_545 S
C527 C528 1.428 . S
C528 H520 0.949 . S
C528 C527 1.428 . S
C528 C529 1.345 1_545 S
C529 H521 0.950 1_565 S
C529 C528 1.345 1_565 S
C529 C530 1.424 . S
C530 H522 0.951 . S
C530 C529 1.424 . S
C530 C531 1.347 . S
C531 H523 0.951 . S
C531 C526 1.429 . S
C531 C530 1.347 . S
H532 C533 0.951 . S
C533 H532 0.951 . S
C533 C539 1.265 . S
H534 C539 0.950 . S
H535 C543 0.949 . S
H536 C544 0.950 . S
H537 C545 0.951 . S
H538 C546 0.951 . S
C539 C533 1.265 . S
C539 H534 0.950 . S
C539 C540 1.478 . S
C540 C539 1.478 . S
C540 C541 1.397 . S
C540 C557 1.394 1_556 S
C541 C540 1.397 . S
C541 C542 1.438 . S
C541 C546 1.429 . S
C542 C541 1.438 . S
C542 C543 1.428 . S
C542 C555 1.394 . S
C543 H535 0.949 . S
C543 C542 1.428 . S
C543 C544 1.345 . S
C544 H536 0.950 . S
C544 C543 1.345 . S
C544 C545 1.424 . S
C545 H537 0.951 . S
C545 C544 1.424 . S
C545 C546 1.347 . S
C546 H538 0.951 . S
C546 C541 1.429 . S
C546 C545 1.347 . S
H547 C548 0.951 . S
C548 H547 0.951 . S
C548 C554 1.265 . S
H549 C554 0.950 . S
H550 C558 0.949 . S
H551 C559 0.950 . S
H552 C560 0.951 . S
H553 C561 0.951 . S
C554 C548 1.265 . S
C554 H549 0.950 . S
C554 C555 1.478 . S
C555 C542 1.394 . S
C555 C554 1.478 . S
C555 C556 1.397 1_556 S
C556 C555 1.397 1_554 S
C556 C557 1.438 . S
C556 C561 1.429 . S
C557 C540 1.394 1_554 S
C557 C556 1.438 . S
C557 C558 1.428 . S
C558 H550 0.949 . S
C558 C557 1.428 . S
C558 C559 1.345 . S
C559 H551 0.950 . S
C559 C558 1.345 . S
C559 C560 1.424 . S
C560 H552 0.951 . S
C560 C559 1.424 . S
C560 C561 1.347 . S
C561 H553 0.951 . S
C561 C556 1.429 . S
C561 C560 1.347 . S
H562 C563 0.951 . S
C563 H562 0.951 . S
C563 C569 1.265 . S
H564 C569 0.950 . S
H565 C573 0.949 . S
H566 C574 0.950 . S
H567 C575 0.951 . S
H568 C576 0.951 . S
C569 C563 1.265 . S
C569 H564 0.950 . S
C569 C570 1.478 . S
C570 C569 1.478 . S
C570 C571 1.397 . S
C570 C587 1.394 . S
C571 C570 1.397 . S
C571 C572 1.438 1_565 S
C571 C576 1.429 . S
C572 C571 1.438 1_545 S
C572 C573 1.428 . S
C572 C585 1.394 . S
C573 H565 0.949 . S
C573 C572 1.428 . S
C573 C574 1.345 . S
C574 H566 0.950 . S
C574 C573 1.345 . S
C574 C575 1.424 1_545 S
C575 H567 0.951 . S
C575 C574 1.424 1_565 S
C575 C576 1.347 . S
C576 H568 0.951 . S
C576 C571 1.429 . S
C576 C575 1.347 . S
H577 C578 0.951 . S
C578 H577 0.951 . S
C578 C584 1.265 . S
H579 C584 0.950 . S
H580 C588 0.949 . S
H581 C589 0.950 . S
H582 C590 0.951 . S
H583 C591 0.951 . S
C584 C578 1.265 . S
C584 H579 0.950 . S
C584 C585 1.478 . S
C585 C572 1.394 . S
C585 C584 1.478 . S
C585 C586 1.397 . S
C586 C585 1.397 . S
C586 C587 1.438 1_545 S
C586 C591 1.429 . S
C587 C570 1.394 . S
C587 C586 1.438 1_565 S
C587 C588 1.428 . S
C588 H580 0.949 . S
C588 C587 1.428 . S
C588 C589 1.345 . S
C589 H581 0.950 . S
C589 C588 1.345 . S
C589 C590 1.424 1_565 S
C590 H582 0.951 . S
C590 C589 1.424 1_545 S
C590 C591 1.347 . S
C591 H583 0.951 . S
C591 C586 1.429 . S
C591 C590 1.347 . S
C113 C9 1.495 . S
C128 C23 1.487 . S
C143 C51 1.557 . S
C158 C37 1.570 . S
C173 C65 1.549 . S
C188 C79 1.574 . S
C203 C93 1.494 . S
C218 C107 1.488 . S
C233 C3 1.654 . S
C248 C31 1.629 . S
C263 C45 1.654 . S
C278 C17 1.629 . S
C293 C59 1.653 . S
C308 C87 1.628 . S
C323 C101 1.628 . S
C338 C73 1.653 . S
C353 C8 1.423 . S
C368 C64 1.423 . S
C383 C22 1.439 . S
C398 C78 1.439 . S
C413 C92 1.437 . S
C428 C36 1.437 . S
C443 C106 1.427 . S
C458 C50 1.427 . S
C473 C21 0.900 . S
C488 C7 0.906 . S
C503 C35 0.984 . S
C518 C49 0.981 . S
C533 C63 0.909 . S
C548 C77 0.896 . S
C563 C91 0.938 . S
C578 C105 0.874 . S
