# Generated by pormake.
# Topology crr, (4)-cn, num edge types: 1
# Building blocks:
#     Node 0, Type 0, BuildingBlock: NAWXER_clean_sbu_0, # of connection points: 4
#     Node 1, Type 0, BuildingBlock: NAWXER_clean_sbu_0, # of connection points: 4
#     Node 2, Type 0, BuildingBlock: NAWXER_clean_sbu_0, # of connection points: 4
#     Node 3, Type 0, BuildingBlock: NAWXER_clean_sbu_0, # of connection points: 4
#     Node 4, Type 0, BuildingBlock: NAWXER_clean_sbu_0, # of connection points: 4
#     Node 5, Type 0, BuildingBlock: NAWXER_clean_sbu_0, # of connection points: 4
#     Node 6, Type 0, BuildingBlock: NAWXER_clean_sbu_0, # of connection points: 4
#     Node 7, Type 0, BuildingBlock: NAWXER_clean_sbu_0, # of connection points: 4
#     Node 8, Type 0, BuildingBlock: NAWXER_clean_sbu_0, # of connection points: 4
#     Node 9, Type 0, BuildingBlock: NAWXER_clean_sbu_0, # of connection points: 4
#     Node 10, Type 0, BuildingBlock: NAWXER_clean_sbu_0, # of connection points: 4
#     Node 11, Type 0, BuildingBlock: NAWXER_clean_sbu_0, # of connection points: 4
#     Edge 12, Type (0, 0), BuildingBlock: EZIPEK_clean_linker_0, # of connection points: 2
#     Edge 13, Type (0, 0), BuildingBlock: EZIPEK_clean_linker_0, # of connection points: 2
#     Edge 14, Type (0, 0), BuildingBlock: EZIPEK_clean_linker_0, # of connection points: 2
#     Edge 15, Type (0, 0), BuildingBlock: EZIPEK_clean_linker_0, # of connection points: 2
#     Edge 16, Type (0, 0), BuildingBlock: EZIPEK_clean_linker_0, # of connection points: 2
#     Edge 17, Type (0, 0), BuildingBlock: EZIPEK_clean_linker_0, # of connection points: 2
#     Edge 18, Type (0, 0), BuildingBlock: EZIPEK_clean_linker_0, # of connection points: 2
#     Edge 19, Type (0, 0), BuildingBlock: EZIPEK_clean_linker_0, # of connection points: 2
#     Edge 20, Type (0, 0), BuildingBlock: EZIPEK_clean_linker_0, # of connection points: 2
#     Edge 21, Type (0, 0), BuildingBlock: EZIPEK_clean_linker_0, # of connection points: 2
#     Edge 22, Type (0, 0), BuildingBlock: EZIPEK_clean_linker_0, # of connection points: 2
#     Edge 23, Type (0, 0), BuildingBlock: EZIPEK_clean_linker_0, # of connection points: 2
#     Edge 24, Type (0, 0), BuildingBlock: EZIPEK_clean_linker_0, # of connection points: 2
#     Edge 25, Type (0, 0), BuildingBlock: EZIPEK_clean_linker_0, # of connection points: 2
#     Edge 26, Type (0, 0), BuildingBlock: EZIPEK_clean_linker_0, # of connection points: 2
#     Edge 27, Type (0, 0), BuildingBlock: EZIPEK_clean_linker_0, # of connection points: 2
#     Edge 28, Type (0, 0), BuildingBlock: EZIPEK_clean_linker_0, # of connection points: 2
#     Edge 29, Type (0, 0), BuildingBlock: EZIPEK_clean_linker_0, # of connection points: 2
#     Edge 30, Type (0, 0), BuildingBlock: EZIPEK_clean_linker_0, # of connection points: 2
#     Edge 31, Type (0, 0), BuildingBlock: EZIPEK_clean_linker_0, # of connection points: 2
#     Edge 32, Type (0, 0), BuildingBlock: EZIPEK_clean_linker_0, # of connection points: 2
#     Edge 33, Type (0, 0), BuildingBlock: EZIPEK_clean_linker_0, # of connection points: 2
#     Edge 34, Type (0, 0), BuildingBlock: EZIPEK_clean_linker_0, # of connection points: 2
#     Edge 35, Type (0, 0), BuildingBlock: EZIPEK_clean_linker_0, # of connection points: 2
# Relax obj value: 0.065
# Max RMSD: 0.110
# Mean RMSD: 0.110
data_MOF--net-crr--node1-NAWXER_clean_sbu_0--edge1-EZIPEK_clean_linker_0
_symmetry_space_group_name_H-M    P1
_symmetry_Int_Tables_number       1
_symmetry_cell_setting            triclinic
loop_
_symmetry_equiv_pos_as_xyz
'x, y, z'
_cell_length_a     29.07718
_cell_length_b     28.883218
_cell_length_c     29.141724
_cell_angle_alpha  89.557644
_cell_angle_beta   90.576081
_cell_angle_gamma 90.333421
loop_
_atom_site_label
_atom_site_type_symbol
_atom_site_fract_x
_atom_site_fract_y
_atom_site_fract_z
_atom_type_partial_charge
C0 C 0.06079 0.34582 0.43673 0.0
C1 C 0.16479 0.38028 0.31169 0.0
O2 O 0.09973 0.36591 0.43931 0.0
Zn3 Zn 0.11254 0.36545 0.37492 0.0
O4 O 0.04495 0.33195 0.398 0.0
Zn5 Zn 0.06531 0.33374 0.32761 0.0
O6 O 0.07147 0.26819 0.31348 0.0
O7 O 0.12504 0.29439 0.3613 0.0
O8 O 0.12824 0.35924 0.29817 0.0
O9 O 0.16866 0.39346 0.35309 0.0
O10 O 0.06023 0.40933 0.34938 0.0
O11 O 0.01659 0.37243 0.30031 0.0
C12 C 0.10788 0.26157 0.3373 0.0
C13 C 0.02597 0.40966 0.32155 0.0
C14 C 0.41027 0.8101 0.67332 0.0
C15 C 0.36613 0.90682 0.54098 0.0
O16 O 0.38803 0.84652 0.68397 0.0
Zn17 Zn 0.36039 0.90676 0.6509 0.0
O18 O 0.42496 0.80531 0.63257 0.0
Zn19 Zn 0.39626 0.86062 0.60668 0.0
O20 O 0.43858 0.91432 0.63262 0.0
O21 O 0.39601 0.95933 0.67523 0.0
O22 O 0.39476 0.87366 0.54066 0.0
O23 O 0.35123 0.92092 0.57958 0.0
O24 O 0.29662 0.89626 0.66707 0.0
O25 O 0.32562 0.84337 0.6208 0.0
C26 C 0.43479 0.95005 0.65791 0.0
C27 C 0.29216 0.85887 0.64435 0.0
C28 C 0.8984 0.5564 0.35945 0.0
C29 C 0.79812 0.68474 0.40149 0.0
O30 O 0.91458 0.59643 0.34906 0.0
Zn31 Zn 0.8959 0.66753 0.35448 0.0
O32 O 0.86063 0.5529 0.38085 0.0
Zn33 Zn 0.84861 0.61926 0.38506 0.0
O34 O 0.83488 0.63709 0.31505 0.0
O35 O 0.88873 0.68548 0.29048 0.0
O36 O 0.79215 0.6423 0.41218 0.0
O37 O 0.83501 0.69765 0.38142 0.0
O38 O 0.94474 0.69419 0.3919 0.0
O39 O 0.90165 0.64429 0.43043 0.0
C40 C 0.8519 0.66249 0.28328 0.0
C41 C 0.93566 0.6727 0.42894 0.0
C42 C 0.64291 0.19362 0.69813 0.0
C43 C 0.68375 0.09263 0.57267 0.0
O44 O 0.65795 0.15463 0.71329 0.0
Zn45 Zn 0.68141 0.09029 0.68352 0.0
O46 O 0.63881 0.20041 0.65522 0.0
Zn47 Zn 0.66345 0.1424 0.63595 0.0
O48 O 0.60887 0.09393 0.65128 0.0
O49 O 0.63565 0.04513 0.70352 0.0
O50 O 0.671 0.13458 0.57132 0.0
O51 O 0.68937 0.07219 0.61163 0.0
O52 O 0.74385 0.08635 0.70832 0.0
O53 O 0.7336 0.14547 0.66089 0.0
C54 C 0.60291 0.05861 0.67756 0.0
C55 C 0.75961 0.12218 0.6882 0.0
C56 C 0.10395 0.66608 0.75554 0.0
C57 C 0.03637 0.66635 0.60111 0.0
O58 O 0.12957 0.64804 0.72511 0.0
Zn59 Zn 0.12796 0.63308 0.65322 0.0
O60 O 0.06349 0.67946 0.74514 0.0
Zn61 Zn 0.06773 0.66342 0.68041 0.0
O62 O 0.06862 0.589 0.68336 0.0
O63 O 0.1333 0.56618 0.65202 0.0
O64 O 0.01711 0.67719 0.63843 0.0
O65 O 0.07741 0.65044 0.60246 0.0
O66 O 0.17957 0.6701 0.63429 0.0
O67 O 0.12204 0.71146 0.66128 0.0
C68 C 0.09548 0.55631 0.67127 0.0
C69 C 0.16281 0.70908 0.64505 0.0
C70 C 0.5758 0.96686 0.3393 0.0
C71 C 0.67984 0.84139 0.37993 0.0
O72 O 0.56613 0.92649 0.35407 0.0
Zn73 Zn 0.62788 0.90392 0.35819 0.0
O74 O 0.61768 0.97741 0.33028 0.0
Zn75 Zn 0.68402 0.94357 0.33465 0.0
O76 O 0.70275 0.94022 0.27115 0.0
O77 O 0.64522 0.89285 0.28742 0.0
O78 O 0.70145 0.87556 0.36147 0.0
O79 O 0.63683 0.84405 0.38627 0.0
O80 O 0.65687 0.95154 0.40737 0.0
O81 O 0.71675 0.98573 0.37521 0.0
C82 C 0.67451 0.90892 0.25869 0.0
C83 C 0.69024 0.98067 0.40931 0.0
C84 C 0.87349 0.36402 0.74092 0.0
C85 C 0.94675 0.33334 0.5962 0.0
O86 O 0.86113 0.37796 0.70127 0.0
Zn87 Zn 0.90872 0.34808 0.66767 0.0
O88 O 0.90961 0.33928 0.74606 0.0
Zn89 Zn 0.96166 0.31071 0.70338 0.0
O90 O 0.01769 0.34357 0.72237 0.0
O91 O 0.96851 0.38777 0.68406 0.0
O92 O 0.96849 0.3154 0.63034 0.0
O93 O 0.90844 0.35334 0.60203 0.0
O94 O 0.89383 0.27668 0.6795 0.0
O95 O 0.95306 0.24435 0.71512 0.0
C96 C 0.00741 0.38242 0.70415 0.0
C97 C 0.91272 0.24119 0.69801 0.0
C98 C 0.41481 0.07821 0.33248 0.0
C99 C 0.25774 0.13561 0.34065 0.0
O100 O 0.40238 0.11588 0.35094 0.0
Zn101 Zn 0.33755 0.10745 0.33871 0.0
O102 O 0.38518 0.05155 0.31313 0.0
Zn103 Zn 0.31201 0.04844 0.30156 0.0
O104 O 0.30822 0.05127 0.23453 0.0
O105 O 0.33439 0.11573 0.26634 0.0
O106 O 0.26016 0.09747 0.31875 0.0
O107 O 0.29362 0.15273 0.35925 0.0
O108 O 0.32594 0.04766 0.37939 0.0
O109 O 0.29615 0.99228 0.33681 0.0
C110 C 0.32257 0.09287 0.23069 0.0
C111 C 0.31143 0.00598 0.37552 0.0
C112 C 0.3272 0.39993 0.04488 0.0
C113 C 0.335 0.24569 0.11238 0.0
O114 O 0.35319 0.39901 0.08069 0.0
Zn115 Zn 0.37494 0.34809 0.1312 0.0
O116 O 0.30629 0.3635 0.032 0.0
Zn117 Zn 0.33147 0.32326 0.07887 0.0
O118 O 0.29694 0.34634 0.14026 0.0
O119 O 0.35135 0.37189 0.18733 0.0
O120 O 0.3149 0.2585 0.07564 0.0
O121 O 0.35863 0.27504 0.13576 0.0
O122 O 0.44042 0.35061 0.12489 0.0
O123 O 0.40425 0.32574 0.06263 0.0
C124 C 0.30917 0.36411 0.17878 0.0
C125 C 0.44154 0.33775 0.08341 0.0
C126 C 0.24975 0.6724 0.88022 0.0
C127 C 0.39618 0.68404 0.96137 0.0
O128 O 0.26015 0.69626 0.9152 0.0
Zn129 Zn 0.32366 0.67742 0.92054 0.0
O130 O 0.27968 0.64526 0.86304 0.0
Zn131 Zn 0.35011 0.62659 0.87791 0.0
O132 O 0.346 0.56231 0.89339 0.0
O133 O 0.3203 0.60718 0.9482 0.0
O134 O 0.39737 0.65338 0.9297 0.0
O135 O 0.35992 0.70748 0.96718 0.0
O136 O 0.35474 0.70268 0.85683 0.0
O137 O 0.38089 0.64075 0.82175 0.0
C138 C 0.33014 0.56666 0.9335 0.0
C139 C 0.37522 0.68423 0.82263 0.0
C140 C 0.66428 0.79515 0.10229 0.0
C141 C 0.67125 0.65354 0.01227 0.0
O142 O 0.64636 0.75989 0.12216 0.0
Zn143 Zn 0.63507 0.6882 0.10955 0.0
O144 O 0.67977 0.79182 0.06178 0.0
Zn145 Zn 0.66879 0.72546 0.05593 0.0
O146 O 0.59509 0.71942 0.04903 0.0
O147 O 0.56909 0.68206 0.11012 0.0
O148 O 0.68839 0.69269 0.00142 0.0
O149 O 0.6515 0.64799 0.05097 0.0
O150 O 0.67067 0.66058 0.15857 0.0
O151 O 0.71362 0.69977 0.10939 0.0
C152 C 0.56165 0.70125 0.07137 0.0
C153 C 0.70977 0.676 0.14646 0.0
C154 C 0.62319 0.34084 0.82995 0.0
C155 C 0.65008 0.48379 0.91316 0.0
O156 O 0.60603 0.3804 0.82152 0.0
Zn157 Zn 0.63279 0.41168 0.87374 0.0
O158 O 0.64641 0.33412 0.86701 0.0
Zn159 Zn 0.67029 0.37503 0.92462 0.0
O160 O 0.63899 0.3491 0.97678 0.0
O161 O 0.59232 0.3877 0.93026 0.0
O162 O 0.66743 0.44884 0.93437 0.0
O163 O 0.62749 0.47794 0.87614 0.0
O164 O 0.70501 0.40184 0.86083 0.0
O165 O 0.73555 0.36497 0.92057 0.0
C166 C 0.59911 0.36399 0.96704 0.0
C167 C 0.73979 0.38348 0.88111 0.0
C168 C 0.17027 0.22263 0.29575 0.0
C169 C 0.13705 0.22044 0.33093 0.0
C170 C 0.17869 0.15636 0.36796 0.0
C171 C 0.21523 0.16341 0.33672 0.0
N172 N 0.24701 0.20294 0.27091 0.0
N173 N 0.10701 0.18507 0.39915 0.0
C174 C 0.21112 0.19612 0.30025 0.0
C175 C 0.14025 0.18677 0.36639 0.0
N176 N 0.1628 0.25073 0.25843 0.0
N177 N 0.18081 0.12053 0.39879 0.0
H178 H 0.07699 0.20458 0.39635 0.0
H179 H 0.10937 0.16546 0.42917 0.0
H180 H 0.20894 0.09837 0.40112 0.0
H181 H 0.15383 0.11084 0.42005 0.0
H182 H 0.18369 0.2519 0.2297 0.0
H183 H 0.13313 0.27048 0.25432 0.0
H184 H 0.2482 0.22891 0.24607 0.0
H185 H 0.27742 0.18413 0.27289 0.0
C186 C 0.25124 0.79682 0.68698 0.0
C187 C 0.25165 0.82833 0.64945 0.0
C188 C 0.18873 0.78538 0.61213 0.0
C189 C 0.19268 0.75063 0.64655 0.0
N190 N 0.22826 0.72137 0.71608 0.0
N191 N 0.22287 0.85312 0.57565 0.0
C192 C 0.22391 0.75598 0.68402 0.0
C193 C 0.22058 0.82303 0.61201 0.0
N194 N 0.27757 0.80581 0.7251 0.0
N195 N 0.15457 0.7823 0.57969 0.0
H196 H 0.24419 0.88233 0.57581 0.0
H197 H 0.2053 0.84826 0.54475 0.0
H198 H 0.13174 0.75434 0.57798 0.0
H199 H 0.14686 0.80865 0.55635 0.0
H200 H 0.27624 0.78662 0.7554 0.0
H201 H 0.29848 0.8351 0.72801 0.0
H202 H 0.25272 0.72116 0.74232 0.0
H203 H 0.20862 0.69111 0.71551 0.0
C204 C 0.69621 0.75774 0.36436 0.0
C205 C 0.7048 0.79794 0.39104 0.0
C206 C 0.76504 0.75665 0.43445 0.0
C207 C 0.76033 0.71882 0.4041 0.0
N208 N 0.72317 0.6829 0.33903 0.0
N209 N 0.74642 0.83661 0.45168 0.0
C210 C 0.72571 0.71881 0.36934 0.0
C211 C 0.73879 0.79754 0.42642 0.0
N212 N 0.6604 0.7571 0.33353 0.0
N213 N 0.79444 0.7529 0.47118 0.0
H214 H 0.72605 0.86611 0.44853 0.0
H215 H 0.77384 0.84077 0.4745 0.0
H216 H 0.81324 0.72286 0.47788 0.0
H217 H 0.79762 0.77748 0.49693 0.0
H218 H 0.64875 0.72731 0.31714 0.0
H219 H 0.64025 0.78591 0.3259 0.0
H220 H 0.70337 0.68334 0.3091 0.0
H221 H 0.74288 0.65302 0.34238 0.0
C222 C 0.85417 0.19602 0.74146 0.0
C223 C 0.88413 0.1989 0.70343 0.0
C224 C 0.84149 0.13603 0.66602 0.0
C225 C 0.80634 0.14045 0.69892 0.0
N226 N 0.77948 0.17172 0.77007 0.0
N227 N 0.90901 0.17038 0.63059 0.0
C228 C 0.8132 0.1689 0.73788 0.0
C229 C 0.879 0.16793 0.66629 0.0
N230 N 0.86466 0.22013 0.78039 0.0
N231 N 0.83908 0.10075 0.63525 0.0
H232 H 0.93813 0.19168 0.63138 0.0
H233 H 0.90425 0.15273 0.59987 0.0
H234 H 0.81323 0.07561 0.637 0.0
H235 H 0.86481 0.09348 0.61184 0.0
H236 H 0.84625 0.21739 0.81073 0.0
H237 H 0.89434 0.24041 0.78341 0.0
H238 H 0.78006 0.19501 0.79708 0.0
H239 H 0.74969 0.15146 0.76892 0.0
C240 C 0.28511 0.18449 0.14879 0.0
C241 C 0.32842 0.1981 0.13078 0.0
C242 C 0.36474 0.13011 0.16613 0.0
C243 C 0.32222 0.11832 0.18651 0.0
N244 N 0.23997 0.12498 0.18742 0.0
N245 N 0.40545 0.17753 0.11032 0.0
C246 C 0.2816 0.14217 0.17388 0.0
C247 C 0.367 0.16863 0.1355 0.0
N248 N 0.24825 0.21352 0.14488 0.0
N249 N 0.40318 0.10559 0.17788 0.0
H250 H 0.4069 0.20476 0.08665 0.0
H251 H 0.43384 0.15578 0.10953 0.0
H252 H 0.40163 0.0758 0.19837 0.0
H253 H 0.43637 0.11544 0.1688 0.0
H254 H 0.21722 0.20805 0.16158 0.0
H255 H 0.24932 0.24487 0.12698 0.0
H256 H 0.20855 0.1385 0.17662 0.0
H257 H 0.23694 0.09433 0.20634 0.0
C258 C 0.17342 0.63765 0.85781 0.0
C259 C 0.20373 0.67647 0.85809 0.0
C260 C 0.15314 0.71716 0.80344 0.0
C261 C 0.12583 0.67656 0.80018 0.0
N262 N 0.09895 0.60636 0.83456 0.0
N263 N 0.21832 0.7567 0.83877 0.0
C264 C 0.13232 0.63957 0.83118 0.0
C265 C 0.19177 0.71777 0.83395 0.0
N266 N 0.18499 0.59828 0.88131 0.0
N267 N 0.14355 0.75374 0.77494 0.0
H268 H 0.24836 0.75767 0.85853 0.0
H269 H 0.20976 0.7889 0.82508 0.0
H270 H 0.11425 0.75438 0.75397 0.0
H271 H 0.16449 0.78279 0.77108 0.0
H272 H 0.16708 0.5671 0.87845 0.0
H273 H 0.21427 0.5962 0.90198 0.0
H274 H 0.09934 0.57986 0.85897 0.0
H275 H 0.06855 0.60832 0.81524 0.0
C276 C 0.63302 0.86294 0.14357 0.0
C277 C 0.67169 0.837 0.1304 0.0
C278 C 0.71552 0.8651 0.19697 0.0
C279 C 0.67589 0.88924 0.21173 0.0
N280 N 0.60063 0.91976 0.19469 0.0
N281 N 0.75287 0.82256 0.13623 0.0
C282 C 0.6358 0.89099 0.18343 0.0
C283 C 0.71418 0.84173 0.15414 0.0
N284 N 0.59319 0.85915 0.11858 0.0
N285 N 0.75304 0.86129 0.22542 0.0
H286 H 0.75255 0.80464 0.10531 0.0
H287 H 0.78583 0.82794 0.14947 0.0
H288 H 0.7552 0.8767 0.25758 0.0
H289 H 0.78099 0.84011 0.21886 0.0
H290 H 0.56163 0.87206 0.12887 0.0
H291 H 0.59193 0.84183 0.08729 0.0
H292 H 0.57205 0.92597 0.17384 0.0
H293 H 0.60169 0.94021 0.22389 0.0
C294 C 0.77823 0.33525 0.82383 0.0
C295 C 0.78047 0.37407 0.85312 0.0
C296 C 0.8484 0.40325 0.81289 0.0
C297 C 0.84182 0.36807 0.77972 0.0
N298 N 0.79977 0.30165 0.75138 0.0
N299 N 0.8176 0.44382 0.87862 0.0
C300 C 0.80664 0.33417 0.78469 0.0
C301 C 0.81587 0.40762 0.8488 0.0
N302 N 0.74888 0.29946 0.83385 0.0
N303 N 0.88582 0.43198 0.81008 0.0
H304 H 0.79649 0.44522 0.90732 0.0
H305 H 0.83898 0.47256 0.87472 0.0
H306 H 0.90946 0.43021 0.78345 0.0
H307 H 0.89501 0.4558 0.8352 0.0
H308 H 0.74707 0.26866 0.81572 0.0
H309 H 0.72891 0.29865 0.86334 0.0
H310 H 0.77284 0.27786 0.75125 0.0
H311 H 0.81961 0.29978 0.72192 0.0
C312 C 0.43158 0.78008 0.75156 0.0
C313 C 0.41152 0.77181 0.70771 0.0
C314 C 0.36923 0.70492 0.73892 0.0
C315 C 0.38948 0.71308 0.78272 0.0
N316 N 0.4468 0.75176 0.82899 0.0
N317 N 0.36856 0.72106 0.65722 0.0
C318 C 0.42278 0.74872 0.78852 0.0
C319 C 0.38319 0.73216 0.70053 0.0
N320 N 0.45819 0.81871 0.75799 0.0
N321 N 0.33427 0.67324 0.73458 0.0
H322 H 0.37575 0.74098 0.62826 0.0
H323 H 0.3525 0.68985 0.64908 0.0
H324 H 0.32169 0.65364 0.76193 0.0
H325 H 0.31456 0.66911 0.70488 0.0
H326 H 0.46902 0.83034 0.79007 0.0
H327 H 0.46804 0.84039 0.73095 0.0
H328 H 0.47462 0.77402 0.83412 0.0
H329 H 0.44134 0.72923 0.85658 0.0
C330 C 0.78368 0.64014 0.17397 0.0
C331 C 0.74916 0.67417 0.17885 0.0
C332 C 0.79154 0.7083 0.24356 0.0
C333 C 0.82288 0.67091 0.24228 0.0
N334 N 0.84843 0.59974 0.2089 0.0
N335 N 0.71755 0.73887 0.21975 0.0
C336 C 0.8191 0.63655 0.20793 0.0
C337 C 0.75251 0.708 0.21389 0.0
N338 N 0.78261 0.6115 0.13683 0.0
N339 N 0.79894 0.74376 0.27369 0.0
H340 H 0.68867 0.74034 0.1984 0.0
H341 H 0.71522 0.76105 0.24757 0.0
H342 H 0.827 0.74492 0.29619 0.0
H343 H 0.77951 0.77384 0.27435 0.0
H344 H 0.8091 0.58897 0.12878 0.0
H345 H 0.75638 0.61249 0.11214 0.0
H346 H 0.84433 0.57061 0.18842 0.0
H347 H 0.87599 0.59745 0.23203 0.0
C348 C 0.66126 0.27378 0.72554 0.0
C349 C 0.63517 0.2323 0.7304 0.0
C350 C 0.59991 0.26245 0.80034 0.0
C351 C 0.62395 0.30486 0.79393 0.0
N352 N 0.67369 0.35354 0.748 0.0
N353 N 0.57421 0.18966 0.76731 0.0
C354 C 0.65301 0.31148 0.75543 0.0
C355 C 0.603 0.22726 0.76648 0.0
N356 N 0.69607 0.27607 0.69426 0.0
N357 N 0.5746 0.25563 0.83913 0.0
H358 H 0.57511 0.16361 0.74273 0.0
H359 H 0.54691 0.18603 0.78989 0.0
H360 H 0.56952 0.28153 0.8633 0.0
H361 H 0.56076 0.22372 0.84872 0.0
H362 H 0.71881 0.30382 0.6912 0.0
H363 H 0.70537 0.24844 0.67361 0.0
H364 H 0.69035 0.36251 0.71775 0.0
H365 H 0.67194 0.38105 0.77078 0.0
C366 C 0.24059 0.40621 0.20868 0.0
C367 C 0.27453 0.37158 0.2148 0.0
C368 C 0.24145 0.34957 0.28905 0.0
C369 C 0.20493 0.38126 0.28083 0.0
N370 N 0.16727 0.43761 0.23233 0.0
N371 N 0.30599 0.30741 0.258 0.0
C372 C 0.20387 0.40907 0.24049 0.0
C373 C 0.27499 0.34283 0.25454 0.0
N374 N 0.24446 0.43727 0.17325 0.0
N375 N 0.24349 0.32512 0.32946 0.0
H376 H 0.33042 0.30058 0.23305 0.0
H377 H 0.30601 0.28248 0.28392 0.0
H378 H 0.21805 0.32619 0.35431 0.0
H379 H 0.27166 0.30561 0.34004 0.0
H380 H 0.22349 0.46609 0.16906 0.0
H381 H 0.2713 0.43635 0.14979 0.0
H382 H 0.16139 0.45465 0.20125 0.0
H383 H 0.14124 0.44256 0.25617 0.0
C384 C 0.98513 0.29581 0.53024 0.0
C385 C 0.97075 0.33687 0.55202 0.0
C386 C 0.01205 0.38371 0.49531 0.0
C387 C 0.03097 0.34268 0.47718 0.0
N388 N 0.0405 0.25992 0.48025 0.0
N389 N 0.97669 0.42009 0.56029 0.0
C390 C 0.01872 0.29868 0.49528 0.0
C391 C 0.98554 0.38097 0.53577 0.0
N392 N 0.96589 0.25428 0.54247 0.0
N393 N 0.01821 0.42519 0.47317 0.0
H394 H 0.95799 0.42012 0.59058 0.0
H395 H 0.99144 0.4522 0.55285 0.0
H396 H 0.03759 0.42893 0.44345 0.0
H397 H 1.00071 0.45515 0.48196 0.0
H398 H 0.97177 0.22354 0.52511 0.0
H399 H 0.9405 0.25145 0.56741 0.0
H400 H 0.03636 0.22731 0.49517 0.0
H401 H 0.06598 0.26116 0.45535 0.0
C402 C 0.33458 0.92944 0.41435 0.0
C403 C 0.31632 0.97503 0.41663 0.0
C404 C 0.33593 0.97709 0.49823 0.0
C405 C 0.34926 0.92974 0.49765 0.0
N406 N 0.34485 0.85745 0.4559 0.0
N407 N 0.28414 0.03343 0.4654 0.0
C408 C 0.34366 0.9047 0.45599 0.0
C409 C 0.31158 0.99568 0.46023 0.0
N410 N 0.34571 0.91015 0.37335 0.0
N411 N 0.34893 0.00571 0.53322 0.0
H412 H 0.26403 0.0466 0.43853 0.0
H413 H 0.2774 0.04768 0.49741 0.0
H414 H 0.37149 0.99593 0.55942 0.0
H415 H 0.34237 0.04118 0.53255 0.0
H416 H 0.36347 0.87898 0.37124 0.0
H417 H 0.34135 0.92669 0.34182 0.0
H418 H 0.33735 0.83814 0.42665 0.0
H419 H 0.34718 0.83753 0.48576 0.0
C420 C 0.98268 0.70919 0.54601 0.0
C421 C 0.01173 0.67071 0.55597 0.0
C422 C 1.00148 0.64499 0.47659 0.0
C423 C 0.96579 0.67725 0.46994 0.0
N424 N 0.91952 0.7389 0.49944 0.0
N425 N 0.03837 0.5952 0.53201 0.0
C426 C 0.95539 0.70903 0.50506 0.0
C427 C 0.01867 0.63684 0.52151 0.0
N428 N 0.98292 0.74697 0.57392 0.0
N429 N 0.01926 0.62223 0.44005 0.0
H430 H 0.04648 0.58493 0.56545 0.0
H431 H 0.04077 0.56848 0.50829 0.0
H432 H 0.00737 0.62756 0.40652 0.0
H433 H 0.04866 0.60184 0.44285 0.0
H434 H 0.96522 0.77729 0.56595 0.0
H435 H 0.00494 0.75028 0.60214 0.0
H436 H 0.90712 0.75925 0.52593 0.0
H437 H 0.9005 0.74116 0.46894 0.0
C438 C 0.72799 0.04024 0.5201 0.0
C439 C 0.68769 0.06607 0.5294 0.0
C440 C 0.65598 0.0443 0.45459 0.0
C441 C 0.69263 0.01288 0.44857 0.0
N442 N 0.76191 0.97731 0.47746 0.0
N443 N 0.6088 0.08412 0.50895 0.0
C444 C 0.72838 0.00986 0.4818 0.0
C445 C 0.65043 0.06592 0.49754 0.0
N446 N 0.76642 0.04618 0.54669 0.0
N447 N 0.62722 0.05473 0.4187 0.0
H448 H 0.60208 0.09854 0.54084 0.0
H449 H 0.57939 0.08014 0.48857 0.0
H450 H 0.63206 0.04166 0.38593 0.0
H451 H 0.60227 0.08043 0.42013 0.0
H452 H 0.79809 0.03148 0.53928 0.0
H453 H 0.76766 0.06982 0.57346 0.0
H454 H 0.786 0.97006 0.50318 0.0
H455 H 0.76361 0.95528 0.44932 0.0
C456 C 0.49189 0.06139 0.30049 0.0
C457 C 0.46196 0.06064 0.33841 0.0
C458 C 0.51481 0.00999 0.3806 0.0
C459 C 0.54 1.00337 0.33967 0.0
N460 N 0.555 0.0252 0.26099 0.0
N461 N 0.44337 0.03401 0.4147 0.0
C462 C 0.52982 0.03044 0.29987 0.0
C463 C 0.47331 0.03545 0.37881 0.0
N464 N 0.48388 0.09201 0.26535 0.0
N465 N 0.53148 0.99332 0.42153 0.0
H466 H 0.41369 0.05404 0.41574 0.0
H467 H 0.44665 0.01109 0.44231 0.0
H468 H 0.56276 0.97601 0.42455 0.0
H469 H 0.51703 1.00107 0.4531 0.0
H470 H 0.50625 0.09747 0.23816 0.0
H471 H 0.45641 0.11512 0.26561 0.0
H472 H 0.54574 0.0391 0.22919 0.0
H473 H 0.58467 1.0054 0.25998 0.0
C474 C 0.07147 0.49476 0.72739 0.0
C475 C 0.08241 0.50746 0.68155 0.0
C476 C 0.06072 0.42947 0.65645 0.0
C477 C 0.04134 0.42058 0.70011 0.0
N478 N 0.02694 0.44457 0.77746 0.0
N479 N 0.08549 0.48733 0.60127 0.0
C480 C 0.04686 0.45292 0.73594 0.0
C481 C 0.07732 0.47466 0.64576 0.0
N482 N 0.08581 0.52215 0.76278 0.0
N483 N 0.06307 0.3945 0.62527 0.0
H484 H 0.09745 0.52004 0.59177 0.0
H485 H 0.07729 0.46651 0.57332 0.0
H486 H 0.05159 0.36098 0.63261 0.0
H487 H 0.08029 0.39743 0.59421 0.0
H488 H 0.08248 0.51273 0.79716 0.0
H489 H 0.10555 0.55197 0.75755 0.0
H490 H 0.0249 0.46932 0.80316 0.0
H491 H 0.01018 0.41346 0.78519 0.0
C492 C 0.54532 0.01445 0.63018 0.0
C493 C 0.55941 0.03128 0.67376 0.0
C494 C 0.49207 0.99337 0.7085 0.0
C495 C 0.47564 0.981 0.66407 0.0
N496 N 0.4818 0.99048 0.58183 0.0
N497 N 0.54181 0.04388 0.75337 0.0
C498 C 0.50082 0.99482 0.62469 0.0
C499 C 0.53151 0.02281 0.71271 0.0
N500 N 0.57531 0.01481 0.59436 0.0
N501 N 0.47164 0.97525 0.7467 0.0
H502 H 0.5701 0.06587 0.75761 0.0
H503 H 0.52007 0.04286 0.78156 0.0
H504 H 0.44349 0.95279 0.74522 0.0
H505 H 0.4852 0.97914 0.77967 0.0
H506 H 0.56827 0.99875 0.56314 0.0
H507 H 0.60917 0.02641 0.59744 0.0
H508 H 0.49686 1.00441 0.55245 0.0
H509 H 0.44877 0.97748 0.5761 0.0
C510 C 0.96958 0.51231 0.37286 0.0
C511 C 0.92705 0.51545 0.34972 0.0
C512 C 0.95071 0.45217 0.29893 0.0
C513 C 0.99454 0.45117 0.32165 0.0
N514 N 0.04995 0.5001 0.36114 0.0
N515 N 0.87894 0.49391 0.28565 0.0
C516 C 0.00539 0.48721 0.35291 0.0
C517 C 0.91789 0.48675 0.3113 0.0
N518 N 0.97598 0.53312 0.41427 0.0
N519 N 0.94087 0.42167 0.26466 0.0
H520 H 0.85409 0.51802 0.29469 0.0
H521 H 0.87237 0.47797 0.25434 0.0
H522 H 0.96618 0.4034 0.2476 0.0
H523 H 0.90771 0.41569 0.25214 0.0
H524 H 0.00557 0.52773 0.4341 0.0
H525 H 0.94991 0.55128 0.43056 0.0
H526 H 0.05868 0.52796 0.38215 0.0
H527 H 0.07708 0.4879 0.34152 0.0
C528 C 0.28829 0.47263 0.01729 0.0
C529 C 0.32625 0.44216 0.01595 0.0
C530 C 0.36861 0.49743 0.96827 0.0
C531 C 0.32884 0.5256 0.96467 0.0
N532 N 0.24931 0.53884 0.9838 0.0
N533 N 0.39871 0.42091 0.98277 0.0
C534 C 0.28827 0.51309 0.98892 0.0
C535 C 0.3653 0.45323 0.98931 0.0
N536 N 0.25279 0.46339 0.04643 0.0
N537 N 0.4103 0.51384 0.9538 0.0
H538 H 0.39709 0.38767 0.99683 0.0
H539 H 0.42565 0.42555 0.95983 0.0
H540 H 0.41499 0.54708 0.94037 0.0
H541 H 0.44113 0.4966 0.96013 0.0
H542 H 0.22672 0.48681 0.05331 0.0
H543 H 0.25095 0.43315 0.06616 0.0
H544 H 0.21722 0.52834 0.99564 0.0
H545 H 0.24841 0.5698 0.96548 0.0
C546 C 0.45783 0.73338 0.99829 0.0
C547 C 0.4361 0.68961 0.99294 0.0
C548 C 0.4963 0.65327 0.03996 0.0
C549 C 0.51602 0.69756 0.04847 0.0
N550 N 0.50966 0.78058 0.0441 0.0
N551 N 0.42758 0.61058 0.01935 0.0
C552 C 0.49489 0.73792 0.03019 0.0
C553 C 0.45317 0.65035 0.01706 0.0
N554 N 0.44471 0.77006 0.97139 0.0
N555 N 0.5198 0.61376 0.05097 0.0
H556 H 0.39489 0.60764 0.00466 0.0
H557 H 0.43659 0.5824 0.04004 0.0
H558 H 0.55238 0.61371 0.06614 0.0
H559 H 0.50899 0.58099 0.04054 0.0
H560 H 0.46263 0.80138 0.97045 0.0
H561 H 0.41843 0.76792 0.94687 0.0
H562 H 0.49293 0.81121 0.03523 0.0
H563 H 0.53583 0.7848 0.06846 0.0
C564 C 0.61711 0.55702 0.94462 0.0
C565 C 0.65612 0.53071 0.93254 0.0
C566 C 0.70701 0.58855 0.96826 0.0
C567 C 0.668 0.61537 0.97886 0.0
N568 N 0.58804 0.63237 0.96489 0.0
N569 N 0.73813 0.52709 0.92186 0.0
C570 C 0.62369 0.60188 0.96301 0.0
C571 C 0.70116 0.54824 0.94101 0.0
N572 N 0.5739 0.53834 0.94118 0.0
N573 N 0.7492 0.6005 0.98566 0.0
H574 H 0.7346 0.49865 0.90025 0.0
H575 H 0.77145 0.54045 0.92349 0.0
H576 H 0.75473 0.63043 0.00481 0.0
H577 H 0.77795 0.57931 0.98355 0.0
H578 H 0.54487 0.55419 0.9545 0.0
H579 H 0.56739 0.50511 0.92892 0.0
H580 H 0.55584 0.62595 0.95019 0.0
H581 H 0.59229 0.66613 0.97667 0.0
C582 C 0.50017 0.38935 0.04655 0.0
C583 C 0.48422 0.34384 0.05676 0.0
C584 C 0.54321 0.31124 0.00714 0.0
C585 C 0.56078 0.35652 0.99923 0.0
N586 N 0.56228 0.43766 0.01832 0.0
N587 N 0.49522 0.26142 0.05429 0.0
C588 C 0.54108 0.39531 0.02097 0.0
C589 C 0.50713 0.30471 0.03921 0.0
N590 N 0.47518 0.42696 0.05954 0.0
N591 N 0.55968 0.27483 0.98264 0.0
H592 H 0.46957 0.25588 0.0785 0.0
H593 H 0.51339 0.23166 0.04626 0.0
H594 H 0.58609 0.2783 0.95887 0.0
H595 H 0.54484 0.24194 0.98313 0.0
H596 H 0.48191 0.46052 0.048 0.0
H597 H 0.44516 0.42446 0.07864 0.0
H598 H 0.55231 0.46618 0.03739 0.0
H599 H 0.59259 0.44338 1.00025 0.0
loop_
_geom_bond_atom_site_label_1
_geom_bond_atom_site_label_2
_geom_bond_distance
_geom_bond_site_symmetry_2
_ccdc_geom_bond_type
C0 O2 1.247 . S
C0 O4 1.247 1_455 S
C1 O8 1.247 . S
C1 O9 1.258 . S
O2 C0 1.247 . S
O2 Zn3 2.028 . S
Zn3 O2 2.028 . S
Zn3 O7 2.035 . S
Zn3 O9 2.035 . S
Zn3 O10 2.028 . S
O4 C0 1.247 1_655 S
O4 Zn5 2.027 1_655 S
Zn5 O4 2.027 1_455 S
Zn5 O6 2.028 . S
Zn5 O8 2.028 . S
Zn5 O11 2.027 1_455 S
O6 Zn5 2.028 . S
O6 C12 1.247 . S
O7 Zn3 2.035 . S
O7 C12 1.258 . S
O8 C1 1.247 . S
O8 Zn5 2.028 . S
O9 C1 1.258 . S
O9 Zn3 2.035 . S
O10 Zn3 2.028 . S
O10 C13 1.247 . S
O11 Zn5 2.027 1_655 S
O11 C13 1.247 1_655 S
C12 O6 1.247 . S
C12 O7 1.258 . S
C13 O10 1.247 . S
C13 O11 1.247 1_455 S
C14 O16 1.247 . S
C14 O18 1.258 . S
C15 O22 1.247 . S
C15 O23 1.247 1_565 S
O16 C14 1.247 . S
O16 Zn17 2.028 . S
Zn17 O16 2.028 . S
Zn17 O21 2.027 1_565 S
Zn17 O23 2.027 1_565 S
Zn17 O24 2.028 . S
O18 C14 1.258 . S
O18 Zn19 2.035 . S
Zn19 O18 2.035 . S
Zn19 O20 2.028 . S
Zn19 O22 2.028 . S
Zn19 O25 2.035 . S
O20 Zn19 2.028 . S
O20 C26 1.247 . S
O21 Zn17 2.027 1_545 S
O21 C26 1.247 1_545 S
O22 C15 1.247 . S
O22 Zn19 2.028 . S
O23 C15 1.247 1_545 S
O23 Zn17 2.027 1_545 S
O24 Zn17 2.028 . S
O24 C27 1.247 . S
O25 Zn19 2.035 . S
O25 C27 1.258 . S
C26 O20 1.247 . S
C26 O21 1.247 1_565 S
C27 O24 1.247 . S
C27 O25 1.258 . S
C28 O30 1.236 1_655 S
C28 O32 1.258 . S
C29 O36 1.247 . S
C29 O37 1.258 . S
O30 C28 1.236 1_455 S
O30 Zn31 2.020 1_455 S
Zn31 O30 2.020 1_655 S
Zn31 O35 2.035 . S
Zn31 O37 2.035 . S
Zn31 O38 2.020 1_655 S
O32 C28 1.258 . S
O32 Zn33 2.035 . S
Zn33 O32 2.035 . S
Zn33 O34 2.028 . S
Zn33 O36 2.028 . S
Zn33 O39 2.035 . S
O34 Zn33 2.028 . S
O34 C40 1.247 . S
O35 Zn31 2.035 . S
O35 C40 1.258 . S
O36 C29 1.247 . S
O36 Zn33 2.028 . S
O37 C29 1.258 . S
O37 Zn31 2.035 . S
O38 Zn31 2.020 1_455 S
O38 C41 1.236 1_455 S
O39 Zn33 2.035 . S
O39 C41 1.258 . S
C40 O34 1.247 . S
C40 O35 1.258 . S
C41 O38 1.236 1_655 S
C41 O39 1.258 . S
C42 O44 1.247 . S
C42 O46 1.258 . S
C43 O50 1.247 . S
C43 O51 1.247 1_545 S
O44 C42 1.247 . S
O44 Zn45 2.028 . S
Zn45 O44 2.028 . S
Zn45 O49 2.027 1_545 S
Zn45 O51 2.027 1_545 S
Zn45 O52 2.028 . S
O46 C42 1.258 . S
O46 Zn47 2.035 . S
Zn47 O46 2.035 . S
Zn47 O48 2.028 . S
Zn47 O50 2.028 . S
Zn47 O53 2.035 . S
O48 Zn47 2.028 . S
O48 C54 1.247 . S
O49 Zn45 2.027 1_565 S
O49 C54 1.247 1_565 S
O50 C43 1.247 . S
O50 Zn47 2.028 . S
O51 C43 1.247 1_565 S
O51 Zn45 2.027 1_565 S
O52 Zn45 2.028 . S
O52 C55 1.247 . S
O53 Zn47 2.035 . S
O53 C55 1.258 . S
C54 O48 1.247 . S
C54 O49 1.247 1_545 S
C55 O52 1.247 . S
C55 O53 1.258 . S
C56 O58 1.247 . S
C56 O60 1.258 . S
C57 O64 1.236 1_455 S
C57 O65 1.258 . S
O58 C56 1.247 . S
O58 Zn59 2.028 . S
Zn59 O58 2.028 . S
Zn59 O63 2.035 . S
Zn59 O65 2.035 . S
Zn59 O66 2.028 . S
O60 C56 1.258 . S
O60 Zn61 2.035 . S
Zn61 O60 2.035 . S
Zn61 O62 2.020 1_455 S
Zn61 O64 2.020 1_455 S
Zn61 O67 2.035 . S
O62 Zn61 2.020 1_655 S
O62 C68 1.236 1_655 S
O63 Zn59 2.035 . S
O63 C68 1.258 . S
O64 C57 1.236 1_655 S
O64 Zn61 2.020 1_655 S
O65 C57 1.258 . S
O65 Zn59 2.035 . S
O66 Zn59 2.028 . S
O66 C69 1.247 . S
O67 Zn61 2.035 . S
O67 C69 1.258 . S
C68 O62 1.236 1_455 S
C68 O63 1.258 . S
C69 O66 1.247 . S
C69 O67 1.258 . S
C70 O72 1.247 . S
C70 O74 1.247 1_565 S
C71 O78 1.247 . S
C71 O79 1.258 . S
O72 C70 1.247 . S
O72 Zn73 2.028 . S
Zn73 O72 2.028 . S
Zn73 O77 2.035 . S
Zn73 O79 2.035 . S
Zn73 O80 2.028 . S
O74 C70 1.247 1_545 S
O74 Zn75 2.027 1_545 S
Zn75 O74 2.027 1_565 S
Zn75 O76 2.028 . S
Zn75 O78 2.028 . S
Zn75 O81 2.027 1_565 S
O76 Zn75 2.028 . S
O76 C82 1.247 . S
O77 Zn73 2.035 . S
O77 C82 1.258 . S
O78 C71 1.247 . S
O78 Zn75 2.028 . S
O79 C71 1.258 . S
O79 Zn73 2.035 . S
O80 Zn73 2.028 . S
O80 C83 1.247 . S
O81 Zn75 2.027 1_545 S
O81 C83 1.247 1_545 S
C82 O76 1.247 . S
C82 O77 1.258 . S
C83 O80 1.247 . S
C83 O81 1.247 1_565 S
C84 O86 1.247 . S
C84 O88 1.258 . S
C85 O92 1.236 1_655 S
C85 O93 1.258 . S
O86 C84 1.247 . S
O86 Zn87 2.028 . S
Zn87 O86 2.028 . S
Zn87 O91 2.035 . S
Zn87 O93 2.035 . S
Zn87 O94 2.028 . S
O88 C84 1.258 . S
O88 Zn89 2.035 . S
Zn89 O88 2.035 . S
Zn89 O90 2.020 1_655 S
Zn89 O92 2.020 1_655 S
Zn89 O95 2.035 . S
O90 Zn89 2.020 1_455 S
O90 C96 1.236 1_455 S
O91 Zn87 2.035 . S
O91 C96 1.258 . S
O92 C85 1.236 1_455 S
O92 Zn89 2.020 1_455 S
O93 C85 1.258 . S
O93 Zn87 2.035 . S
O94 Zn87 2.028 . S
O94 C97 1.247 . S
O95 Zn89 2.035 . S
O95 C97 1.258 . S
C96 O90 1.236 1_655 S
C96 O91 1.258 . S
C97 O94 1.247 . S
C97 O95 1.258 . S
C98 O100 1.247 . S
C98 O102 1.247 1_545 S
C99 O106 1.247 . S
C99 O107 1.258 . S
O100 C98 1.247 . S
O100 Zn101 2.028 . S
Zn101 O100 2.028 . S
Zn101 O105 2.035 . S
Zn101 O107 2.035 . S
Zn101 O108 2.028 . S
O102 C98 1.247 1_565 S
O102 Zn103 2.027 1_565 S
Zn103 O102 2.027 1_545 S
Zn103 O104 2.028 . S
Zn103 O106 2.028 . S
Zn103 O109 2.027 1_545 S
O104 Zn103 2.028 . S
O104 C110 1.247 . S
O105 Zn101 2.035 . S
O105 C110 1.258 . S
O106 C99 1.247 . S
O106 Zn103 2.028 . S
O107 C99 1.258 . S
O107 Zn101 2.035 . S
O108 Zn101 2.028 . S
O108 C111 1.247 . S
O109 Zn103 2.027 1_565 S
O109 C111 1.247 1_565 S
C110 O104 1.247 . S
C110 O105 1.258 . S
C111 O108 1.247 . S
C111 O109 1.247 1_545 S
C112 O114 1.247 . S
C112 O116 1.247 1_554 S
C113 O120 1.247 . S
C113 O121 1.258 . S
O114 C112 1.247 . S
O114 Zn115 2.028 . S
Zn115 O114 2.028 . S
Zn115 O119 2.035 . S
Zn115 O121 2.035 . S
Zn115 O122 2.028 . S
O116 C112 1.247 1_556 S
O116 Zn117 2.027 1_556 S
Zn117 O116 2.027 1_554 S
Zn117 O118 2.028 . S
Zn117 O120 2.028 . S
Zn117 O123 2.027 1_554 S
O118 Zn117 2.028 . S
O118 C124 1.247 . S
O119 Zn115 2.035 . S
O119 C124 1.258 . S
O120 C113 1.247 . S
O120 Zn117 2.028 . S
O121 C113 1.258 . S
O121 Zn115 2.035 . S
O122 Zn115 2.028 . S
O122 C125 1.247 . S
O123 Zn117 2.027 1_556 S
O123 C125 1.247 1_556 S
C124 O118 1.247 . S
C124 O119 1.258 . S
C125 O122 1.247 . S
C125 O123 1.247 1_554 S
C126 O128 1.247 . S
C126 O130 1.258 . S
C127 O134 1.247 . S
C127 O135 1.247 1_556 S
O128 C126 1.247 . S
O128 Zn129 2.028 . S
Zn129 O128 2.028 . S
Zn129 O133 2.027 1_556 S
Zn129 O135 2.027 1_556 S
Zn129 O136 2.028 . S
O130 C126 1.258 . S
O130 Zn131 2.035 . S
Zn131 O130 2.035 . S
Zn131 O132 2.028 . S
Zn131 O134 2.028 . S
Zn131 O137 2.035 . S
O132 Zn131 2.028 . S
O132 C138 1.247 . S
O133 Zn129 2.027 1_554 S
O133 C138 1.247 1_554 S
O134 C127 1.247 . S
O134 Zn131 2.028 . S
O135 C127 1.247 1_554 S
O135 Zn129 2.027 1_554 S
O136 Zn129 2.028 . S
O136 C139 1.247 . S
O137 Zn131 2.035 . S
O137 C139 1.258 . S
C138 O132 1.247 . S
C138 O133 1.247 1_556 S
C139 O136 1.247 . S
C139 O137 1.258 . S
C140 O142 1.247 . S
C140 O144 1.258 . S
C141 O148 1.236 1_554 S
C141 O149 1.258 . S
O142 C140 1.247 . S
O142 Zn143 2.028 . S
Zn143 O142 2.028 . S
Zn143 O147 2.035 . S
Zn143 O149 2.035 . S
Zn143 O150 2.028 . S
O144 C140 1.258 . S
O144 Zn145 2.035 . S
Zn145 O144 2.035 . S
Zn145 O146 2.020 1_554 S
Zn145 O148 2.020 1_554 S
Zn145 O151 2.035 . S
O146 Zn145 2.020 1_556 S
O146 C152 1.236 1_556 S
O147 Zn143 2.035 . S
O147 C152 1.258 . S
O148 C141 1.236 1_556 S
O148 Zn145 2.020 1_556 S
O149 C141 1.258 . S
O149 Zn143 2.035 . S
O150 Zn143 2.028 . S
O150 C153 1.247 . S
O151 Zn145 2.035 . S
O151 C153 1.258 . S
C152 O146 1.236 1_554 S
C152 O147 1.258 . S
C153 O150 1.247 . S
C153 O151 1.258 . S
C154 O156 1.247 . S
C154 O158 1.258 . S
C155 O162 1.236 1_556 S
C155 O163 1.258 . S
O156 C154 1.247 . S
O156 Zn157 2.028 . S
Zn157 O156 2.028 . S
Zn157 O161 2.035 . S
Zn157 O163 2.035 . S
Zn157 O164 2.028 . S
O158 C154 1.258 . S
O158 Zn159 2.035 . S
Zn159 O158 2.035 . S
Zn159 O160 2.020 1_556 S
Zn159 O162 2.020 1_556 S
Zn159 O165 2.035 . S
O160 Zn159 2.020 1_554 S
O160 C166 1.236 1_554 S
O161 Zn157 2.035 . S
O161 C166 1.258 . S
O162 C155 1.236 1_554 S
O162 Zn159 2.020 1_554 S
O163 C155 1.258 . S
O163 Zn157 2.035 . S
O164 Zn157 2.028 . S
O164 C167 1.247 . S
O165 Zn159 2.035 . S
O165 C167 1.258 . S
C166 O160 1.236 1_556 S
C166 O161 1.258 . S
C167 O164 1.247 . S
C167 O165 1.258 . S
C168 C169 1.363 . S
C168 C174 1.379 . S
C168 N176 1.356 . S
C169 C168 1.363 . S
C169 C175 1.363 . S
C170 C171 1.363 . S
C170 C175 1.379 . S
C170 N177 1.356 . S
C171 C170 1.363 . S
C171 C174 1.363 . S
N172 C174 1.356 . S
N172 H184 0.984 . S
N172 H185 0.985 . S
N173 C175 1.356 . S
N173 H178 0.984 . S
N173 H179 0.985 . S
C174 C168 1.379 . S
C174 C171 1.363 . S
C174 N172 1.356 . S
C175 C169 1.363 . S
C175 C170 1.379 . S
C175 N173 1.356 . S
N176 C168 1.356 . S
N176 H182 0.984 . S
N176 H183 0.984 . S
N177 C170 1.356 . S
N177 H180 0.984 . S
N177 H181 0.985 . S
H178 N173 0.984 . S
H179 N173 0.985 . S
H180 N177 0.984 . S
H181 N177 0.985 . S
H182 N176 0.984 . S
H183 N176 0.984 . S
H184 N172 0.984 . S
H185 N172 0.985 . S
C186 C187 1.363 . S
C186 C192 1.379 . S
C186 N194 1.356 . S
C187 C186 1.363 . S
C187 C193 1.363 . S
C188 C189 1.363 . S
C188 C193 1.379 . S
C188 N195 1.356 . S
C189 C188 1.363 . S
C189 C192 1.363 . S
N190 C192 1.356 . S
N190 H202 0.984 . S
N190 H203 0.985 . S
N191 C193 1.356 . S
N191 H196 0.984 . S
N191 H197 0.985 . S
C192 C186 1.379 . S
C192 C189 1.363 . S
C192 N190 1.356 . S
C193 C187 1.363 . S
C193 C188 1.379 . S
C193 N191 1.356 . S
N194 C186 1.356 . S
N194 H200 0.984 . S
N194 H201 0.984 . S
N195 C188 1.356 . S
N195 H198 0.984 . S
N195 H199 0.985 . S
H196 N191 0.984 . S
H197 N191 0.985 . S
H198 N195 0.984 . S
H199 N195 0.985 . S
H200 N194 0.984 . S
H201 N194 0.984 . S
H202 N190 0.984 . S
H203 N190 0.985 . S
C204 C205 1.363 . S
C204 C210 1.379 . S
C204 N212 1.356 . S
C205 C204 1.363 . S
C205 C211 1.363 . S
C206 C207 1.363 . S
C206 C211 1.379 . S
C206 N213 1.356 . S
C207 C206 1.363 . S
C207 C210 1.363 . S
N208 C210 1.356 . S
N208 H220 0.984 . S
N208 H221 0.985 . S
N209 C211 1.356 . S
N209 H214 0.984 . S
N209 H215 0.985 . S
C210 C204 1.379 . S
C210 C207 1.363 . S
C210 N208 1.356 . S
C211 C205 1.363 . S
C211 C206 1.379 . S
C211 N209 1.356 . S
N212 C204 1.356 . S
N212 H218 0.984 . S
N212 H219 0.984 . S
N213 C206 1.356 . S
N213 H216 0.984 . S
N213 H217 0.985 . S
H214 N209 0.984 . S
H215 N209 0.985 . S
H216 N213 0.984 . S
H217 N213 0.985 . S
H218 N212 0.984 . S
H219 N212 0.984 . S
H220 N208 0.984 . S
H221 N208 0.985 . S
C222 C223 1.363 . S
C222 C228 1.379 . S
C222 N230 1.356 . S
C223 C222 1.363 . S
C223 C229 1.363 . S
C224 C225 1.363 . S
C224 C229 1.379 . S
C224 N231 1.356 . S
C225 C224 1.363 . S
C225 C228 1.363 . S
N226 C228 1.356 . S
N226 H238 0.984 . S
N226 H239 0.985 . S
N227 C229 1.356 . S
N227 H232 0.984 . S
N227 H233 0.985 . S
C228 C222 1.379 . S
C228 C225 1.363 . S
C228 N226 1.356 . S
C229 C223 1.363 . S
C229 C224 1.379 . S
C229 N227 1.356 . S
N230 C222 1.356 . S
N230 H236 0.984 . S
N230 H237 0.984 . S
N231 C224 1.356 . S
N231 H234 0.984 . S
N231 H235 0.985 . S
H232 N227 0.984 . S
H233 N227 0.985 . S
H234 N231 0.984 . S
H235 N231 0.985 . S
H236 N230 0.984 . S
H237 N230 0.984 . S
H238 N226 0.984 . S
H239 N226 0.985 . S
C240 C241 1.363 . S
C240 C246 1.379 . S
C240 N248 1.356 . S
C241 C240 1.363 . S
C241 C247 1.363 . S
C242 C243 1.363 . S
C242 C247 1.379 . S
C242 N249 1.356 . S
C243 C242 1.363 . S
C243 C246 1.363 . S
N244 C246 1.356 . S
N244 H256 0.984 . S
N244 H257 0.985 . S
N245 C247 1.356 . S
N245 H250 0.984 . S
N245 H251 0.985 . S
C246 C240 1.379 . S
C246 C243 1.363 . S
C246 N244 1.356 . S
C247 C241 1.363 . S
C247 C242 1.379 . S
C247 N245 1.356 . S
N248 C240 1.356 . S
N248 H254 0.984 . S
N248 H255 0.984 . S
N249 C242 1.356 . S
N249 H252 0.984 . S
N249 H253 0.985 . S
H250 N245 0.984 . S
H251 N245 0.985 . S
H252 N249 0.984 . S
H253 N249 0.985 . S
H254 N248 0.984 . S
H255 N248 0.984 . S
H256 N244 0.984 . S
H257 N244 0.985 . S
C258 C259 1.363 . S
C258 C264 1.379 . S
C258 N266 1.356 . S
C259 C258 1.363 . S
C259 C265 1.363 . S
C260 C261 1.363 . S
C260 C265 1.379 . S
C260 N267 1.356 . S
C261 C260 1.363 . S
C261 C264 1.363 . S
N262 C264 1.356 . S
N262 H274 0.984 . S
N262 H275 0.985 . S
N263 C265 1.356 . S
N263 H268 0.984 . S
N263 H269 0.985 . S
C264 C258 1.379 . S
C264 C261 1.363 . S
C264 N262 1.356 . S
C265 C259 1.363 . S
C265 C260 1.379 . S
C265 N263 1.356 . S
N266 C258 1.356 . S
N266 H272 0.984 . S
N266 H273 0.984 . S
N267 C260 1.356 . S
N267 H270 0.984 . S
N267 H271 0.985 . S
H268 N263 0.984 . S
H269 N263 0.985 . S
H270 N267 0.984 . S
H271 N267 0.985 . S
H272 N266 0.984 . S
H273 N266 0.984 . S
H274 N262 0.984 . S
H275 N262 0.985 . S
C276 C277 1.363 . S
C276 C282 1.379 . S
C276 N284 1.356 . S
C277 C276 1.363 . S
C277 C283 1.363 . S
C278 C279 1.363 . S
C278 C283 1.379 . S
C278 N285 1.356 . S
C279 C278 1.363 . S
C279 C282 1.363 . S
N280 C282 1.356 . S
N280 H292 0.984 . S
N280 H293 0.985 . S
N281 C283 1.356 . S
N281 H286 0.984 . S
N281 H287 0.985 . S
C282 C276 1.379 . S
C282 C279 1.363 . S
C282 N280 1.356 . S
C283 C277 1.363 . S
C283 C278 1.379 . S
C283 N281 1.356 . S
N284 C276 1.356 . S
N284 H290 0.984 . S
N284 H291 0.984 . S
N285 C278 1.356 . S
N285 H288 0.984 . S
N285 H289 0.985 . S
H286 N281 0.984 . S
H287 N281 0.985 . S
H288 N285 0.984 . S
H289 N285 0.985 . S
H290 N284 0.984 . S
H291 N284 0.984 . S
H292 N280 0.984 . S
H293 N280 0.985 . S
C294 C295 1.363 . S
C294 C300 1.379 . S
C294 N302 1.356 . S
C295 C294 1.363 . S
C295 C301 1.363 . S
C296 C297 1.363 . S
C296 C301 1.379 . S
C296 N303 1.356 . S
C297 C296 1.363 . S
C297 C300 1.363 . S
N298 C300 1.356 . S
N298 H310 0.984 . S
N298 H311 0.985 . S
N299 C301 1.356 . S
N299 H304 0.984 . S
N299 H305 0.985 . S
C300 C294 1.379 . S
C300 C297 1.363 . S
C300 N298 1.356 . S
C301 C295 1.363 . S
C301 C296 1.379 . S
C301 N299 1.356 . S
N302 C294 1.356 . S
N302 H308 0.984 . S
N302 H309 0.984 . S
N303 C296 1.356 . S
N303 H306 0.984 . S
N303 H307 0.985 . S
H304 N299 0.984 . S
H305 N299 0.985 . S
H306 N303 0.984 . S
H307 N303 0.985 . S
H308 N302 0.984 . S
H309 N302 0.984 . S
H310 N298 0.984 . S
H311 N298 0.985 . S
C312 C313 1.363 . S
C312 C318 1.379 . S
C312 N320 1.356 . S
C313 C312 1.363 . S
C313 C319 1.363 . S
C314 C315 1.363 . S
C314 C319 1.379 . S
C314 N321 1.356 . S
C315 C314 1.363 . S
C315 C318 1.363 . S
N316 C318 1.356 . S
N316 H328 0.984 . S
N316 H329 0.985 . S
N317 C319 1.356 . S
N317 H322 0.984 . S
N317 H323 0.985 . S
C318 C312 1.379 . S
C318 C315 1.363 . S
C318 N316 1.356 . S
C319 C313 1.363 . S
C319 C314 1.379 . S
C319 N317 1.356 . S
N320 C312 1.356 . S
N320 H326 0.984 . S
N320 H327 0.984 . S
N321 C314 1.356 . S
N321 H324 0.984 . S
N321 H325 0.985 . S
H322 N317 0.984 . S
H323 N317 0.985 . S
H324 N321 0.984 . S
H325 N321 0.985 . S
H326 N320 0.984 . S
H327 N320 0.984 . S
H328 N316 0.984 . S
H329 N316 0.985 . S
C330 C331 1.363 . S
C330 C336 1.379 . S
C330 N338 1.356 . S
C331 C330 1.363 . S
C331 C337 1.363 . S
C332 C333 1.363 . S
C332 C337 1.379 . S
C332 N339 1.356 . S
C333 C332 1.363 . S
C333 C336 1.363 . S
N334 C336 1.356 . S
N334 H346 0.984 . S
N334 H347 0.985 . S
N335 C337 1.356 . S
N335 H340 0.984 . S
N335 H341 0.985 . S
C336 C330 1.379 . S
C336 C333 1.363 . S
C336 N334 1.356 . S
C337 C331 1.363 . S
C337 C332 1.379 . S
C337 N335 1.356 . S
N338 C330 1.356 . S
N338 H344 0.984 . S
N338 H345 0.984 . S
N339 C332 1.356 . S
N339 H342 0.984 . S
N339 H343 0.985 . S
H340 N335 0.984 . S
H341 N335 0.985 . S
H342 N339 0.984 . S
H343 N339 0.985 . S
H344 N338 0.984 . S
H345 N338 0.984 . S
H346 N334 0.984 . S
H347 N334 0.985 . S
C348 C349 1.363 . S
C348 C354 1.379 . S
C348 N356 1.356 . S
C349 C348 1.363 . S
C349 C355 1.363 . S
C350 C351 1.363 . S
C350 C355 1.379 . S
C350 N357 1.356 . S
C351 C350 1.363 . S
C351 C354 1.363 . S
N352 C354 1.356 . S
N352 H364 0.984 . S
N352 H365 0.985 . S
N353 C355 1.356 . S
N353 H358 0.984 . S
N353 H359 0.985 . S
C354 C348 1.379 . S
C354 C351 1.363 . S
C354 N352 1.356 . S
C355 C349 1.363 . S
C355 C350 1.379 . S
C355 N353 1.356 . S
N356 C348 1.356 . S
N356 H362 0.984 . S
N356 H363 0.984 . S
N357 C350 1.356 . S
N357 H360 0.984 . S
N357 H361 0.985 . S
H358 N353 0.984 . S
H359 N353 0.985 . S
H360 N357 0.984 . S
H361 N357 0.985 . S
H362 N356 0.984 . S
H363 N356 0.984 . S
H364 N352 0.984 . S
H365 N352 0.985 . S
C366 C367 1.363 . S
C366 C372 1.379 . S
C366 N374 1.356 . S
C367 C366 1.363 . S
C367 C373 1.363 . S
C368 C369 1.363 . S
C368 C373 1.379 . S
C368 N375 1.356 . S
C369 C368 1.363 . S
C369 C372 1.363 . S
N370 C372 1.356 . S
N370 H382 0.984 . S
N370 H383 0.985 . S
N371 C373 1.356 . S
N371 H376 0.984 . S
N371 H377 0.985 . S
C372 C366 1.379 . S
C372 C369 1.363 . S
C372 N370 1.356 . S
C373 C367 1.363 . S
C373 C368 1.379 . S
C373 N371 1.356 . S
N374 C366 1.356 . S
N374 H380 0.984 . S
N374 H381 0.984 . S
N375 C368 1.356 . S
N375 H378 0.984 . S
N375 H379 0.985 . S
H376 N371 0.984 . S
H377 N371 0.985 . S
H378 N375 0.984 . S
H379 N375 0.985 . S
H380 N374 0.984 . S
H381 N374 0.984 . S
H382 N370 0.984 . S
H383 N370 0.985 . S
C384 C385 1.363 1_455 S
C384 C390 1.379 . S
C384 N392 1.356 . S
C385 C384 1.363 1_655 S
C385 C391 1.363 . S
C386 C387 1.363 1_655 S
C386 C391 1.379 . S
C386 N393 1.356 . S
C387 C386 1.363 1_455 S
C387 C390 1.363 . S
N388 C390 1.356 . S
N388 H400 0.984 . S
N388 H401 0.985 . S
N389 C391 1.356 . S
N389 H394 0.984 . S
N389 H395 0.985 . S
C390 C384 1.379 . S
C390 C387 1.363 . S
C390 N388 1.356 . S
C391 C385 1.363 . S
C391 C386 1.379 . S
C391 N389 1.356 . S
N392 C384 1.356 . S
N392 H398 0.984 . S
N392 H399 0.984 . S
N393 C386 1.356 . S
N393 H396 0.984 . S
N393 H397 0.985 . S
H394 N389 0.984 . S
H395 N389 0.985 . S
H396 N393 0.984 . S
H397 N393 0.985 . S
H398 N392 0.984 . S
H399 N392 0.984 . S
H400 N388 0.984 . S
H401 N388 0.985 . S
C402 C403 1.363 1_565 S
C402 C408 1.379 . S
C402 N410 1.356 . S
C403 C402 1.363 1_545 S
C403 C409 1.363 . S
C404 C405 1.363 1_545 S
C404 C409 1.379 . S
C404 N411 1.356 . S
C405 C404 1.363 1_565 S
C405 C408 1.363 . S
N406 C408 1.356 . S
N406 H418 0.984 . S
N406 H419 0.985 . S
N407 C409 1.356 . S
N407 H412 0.984 . S
N407 H413 0.985 . S
C408 C402 1.379 . S
C408 C405 1.363 . S
C408 N406 1.356 . S
C409 C403 1.363 . S
C409 C404 1.379 . S
C409 N407 1.356 . S
N410 C402 1.356 . S
N410 H416 0.984 . S
N410 H417 0.984 . S
N411 C404 1.356 . S
N411 H414 0.984 . S
N411 H415 0.985 . S
H412 N407 0.984 . S
H413 N407 0.985 . S
H414 N411 0.984 . S
H415 N411 0.985 . S
H416 N410 0.984 . S
H417 N410 0.984 . S
H418 N406 0.984 . S
H419 N406 0.985 . S
C420 C421 1.363 1_655 S
C420 C426 1.379 . S
C420 N428 1.356 . S
C421 C420 1.363 1_455 S
C421 C427 1.363 . S
C422 C423 1.363 1_455 S
C422 C427 1.379 . S
C422 N429 1.356 . S
C423 C422 1.363 1_655 S
C423 C426 1.363 . S
N424 C426 1.356 . S
N424 H436 0.984 . S
N424 H437 0.985 . S
N425 C427 1.356 . S
N425 H430 0.984 . S
N425 H431 0.985 . S
C426 C420 1.379 . S
C426 C423 1.363 . S
C426 N424 1.356 . S
C427 C421 1.363 . S
C427 C422 1.379 . S
C427 N425 1.356 . S
N428 C420 1.356 . S
N428 H434 0.984 . S
N428 H435 0.984 . S
N429 C422 1.356 . S
N429 H432 0.984 . S
N429 H433 0.985 . S
H430 N425 0.984 . S
H431 N425 0.985 . S
H432 N429 0.984 . S
H433 N429 0.985 . S
H434 N428 0.984 . S
H435 N428 0.984 . S
H436 N424 0.984 . S
H437 N424 0.985 . S
C438 C439 1.363 1_565 S
C438 C444 1.379 . S
C438 N446 1.356 . S
C439 C438 1.363 1_545 S
C439 C445 1.363 . S
C440 C441 1.363 1_545 S
C440 C445 1.379 . S
C440 N447 1.356 . S
C441 C440 1.363 1_565 S
C441 C444 1.363 . S
N442 C444 1.356 . S
N442 H454 0.984 . S
N442 H455 0.985 . S
N443 C445 1.356 . S
N443 H448 0.984 . S
N443 H449 0.985 . S
C444 C438 1.379 . S
C444 C441 1.363 . S
C444 N442 1.356 . S
C445 C439 1.363 . S
C445 C440 1.379 . S
C445 N443 1.356 . S
N446 C438 1.356 . S
N446 H452 0.984 . S
N446 H453 0.984 . S
N447 C440 1.356 . S
N447 H450 0.984 . S
N447 H451 0.985 . S
H448 N443 0.984 . S
H449 N443 0.985 . S
H450 N447 0.984 . S
H451 N447 0.985 . S
H452 N446 0.984 . S
H453 N446 0.984 . S
H454 N442 0.984 . S
H455 N442 0.985 . S
C456 C457 1.363 1_565 S
C456 C462 1.379 . S
C456 N464 1.356 . S
C457 C456 1.363 1_545 S
C457 C463 1.363 . S
C458 C459 1.363 1_545 S
C458 C463 1.379 . S
C458 N465 1.356 . S
C459 C458 1.363 1_565 S
C459 C462 1.363 . S
N460 C462 1.356 . S
N460 H472 0.984 . S
N460 H473 0.985 . S
N461 C463 1.356 . S
N461 H466 0.984 . S
N461 H467 0.985 . S
C462 C456 1.379 . S
C462 C459 1.363 . S
C462 N460 1.356 . S
C463 C457 1.363 . S
C463 C458 1.379 . S
C463 N461 1.356 . S
N464 C456 1.356 . S
N464 H470 0.984 . S
N464 H471 0.984 . S
N465 C458 1.356 . S
N465 H468 0.984 . S
N465 H469 0.985 . S
H466 N461 0.984 . S
H467 N461 0.985 . S
H468 N465 0.984 . S
H469 N465 0.985 . S
H470 N464 0.984 . S
H471 N464 0.984 . S
H472 N460 0.984 . S
H473 N460 0.985 . S
C474 C475 1.363 . S
C474 C480 1.379 . S
C474 N482 1.356 . S
C475 C474 1.363 . S
C475 C481 1.363 1_455 S
C476 C477 1.363 . S
C476 C481 1.379 . S
C476 N483 1.356 . S
C477 C476 1.363 . S
C477 C480 1.363 1_655 S
N478 C480 1.356 . S
N478 H490 0.984 . S
N478 H491 0.985 . S
N479 C481 1.356 . S
N479 H484 0.984 . S
N479 H485 0.985 . S
C480 C474 1.379 . S
C480 C477 1.363 1_455 S
C480 N478 1.356 . S
C481 C475 1.363 1_655 S
C481 C476 1.379 . S
C481 N479 1.356 . S
N482 C474 1.356 . S
N482 H488 0.984 . S
N482 H489 0.984 . S
N483 C476 1.356 . S
N483 H486 0.984 . S
N483 H487 0.985 . S
H484 N479 0.984 . S
H485 N479 0.985 . S
H486 N483 0.984 . S
H487 N483 0.985 . S
H488 N482 0.984 . S
H489 N482 0.984 . S
H490 N478 0.984 . S
H491 N478 0.985 . S
C492 C493 1.363 . S
C492 C498 1.379 . S
C492 N500 1.356 . S
C493 C492 1.363 . S
C493 C499 1.363 1_545 S
C494 C495 1.363 . S
C494 C499 1.379 . S
C494 N501 1.356 . S
C495 C494 1.363 . S
C495 C498 1.363 1_565 S
N496 C498 1.356 . S
N496 H508 0.984 . S
N496 H509 0.985 . S
N497 C499 1.356 . S
N497 H502 0.984 . S
N497 H503 0.985 . S
C498 C492 1.379 . S
C498 C495 1.363 1_545 S
C498 N496 1.356 . S
C499 C493 1.363 1_565 S
C499 C494 1.379 . S
C499 N497 1.356 . S
N500 C492 1.356 . S
N500 H506 0.984 . S
N500 H507 0.984 . S
N501 C494 1.356 . S
N501 H504 0.984 . S
N501 H505 0.985 . S
H502 N497 0.984 . S
H503 N497 0.985 . S
H504 N501 0.984 . S
H505 N501 0.985 . S
H506 N500 0.984 . S
H507 N500 0.984 . S
H508 N496 0.984 . S
H509 N496 0.985 . S
C510 C511 1.363 1_455 S
C510 C516 1.379 . S
C510 N518 1.356 . S
C511 C510 1.363 1_655 S
C511 C517 1.363 . S
C512 C513 1.363 1_655 S
C512 C517 1.379 . S
C512 N519 1.356 . S
C513 C512 1.363 1_455 S
C513 C516 1.363 . S
N514 C516 1.356 . S
N514 H526 0.984 . S
N514 H527 0.985 . S
N515 C517 1.356 . S
N515 H520 0.984 . S
N515 H521 0.985 . S
C516 C510 1.379 . S
C516 C513 1.363 . S
C516 N514 1.356 . S
C517 C511 1.363 . S
C517 C512 1.379 . S
C517 N515 1.356 . S
N518 C510 1.356 . S
N518 H524 0.984 . S
N518 H525 0.984 . S
N519 C512 1.356 . S
N519 H522 0.984 . S
N519 H523 0.985 . S
H520 N515 0.984 . S
H521 N515 0.985 . S
H522 N519 0.984 . S
H523 N519 0.985 . S
H524 N518 0.984 . S
H525 N518 0.984 . S
H526 N514 0.984 . S
H527 N514 0.985 . S
C528 C529 1.363 . S
C528 C534 1.379 . S
C528 N536 1.356 . S
C529 C528 1.363 . S
C529 C535 1.363 1_554 S
C530 C531 1.363 . S
C530 C535 1.379 . S
C530 N537 1.356 . S
C531 C530 1.363 . S
C531 C534 1.363 1_556 S
N532 C534 1.356 . S
N532 H544 0.984 . S
N532 H545 0.985 . S
N533 C535 1.356 . S
N533 H538 0.984 . S
N533 H539 0.985 . S
C534 C528 1.379 . S
C534 C531 1.363 1_554 S
C534 N532 1.356 . S
C535 C529 1.363 1_556 S
C535 C530 1.379 . S
C535 N533 1.356 . S
N536 C528 1.356 . S
N536 H542 0.984 . S
N536 H543 0.984 . S
N537 C530 1.356 . S
N537 H540 0.984 . S
N537 H541 0.985 . S
H538 N533 0.984 . S
H539 N533 0.985 . S
H540 N537 0.984 . S
H541 N537 0.985 . S
H542 N536 0.984 . S
H543 N536 0.984 . S
H544 N532 0.984 . S
H545 N532 0.985 . S
C546 C547 1.363 . S
C546 C552 1.379 . S
C546 N554 1.356 . S
C547 C546 1.363 . S
C547 C553 1.363 1_556 S
C548 C549 1.363 . S
C548 C553 1.379 . S
C548 N555 1.356 . S
C549 C548 1.363 . S
C549 C552 1.363 1_554 S
N550 C552 1.356 . S
N550 H562 0.984 . S
N550 H563 0.985 . S
N551 C553 1.356 . S
N551 H556 0.984 . S
N551 H557 0.985 . S
C552 C546 1.379 . S
C552 C549 1.363 1_556 S
C552 N550 1.356 . S
C553 C547 1.363 1_554 S
C553 C548 1.379 . S
C553 N551 1.356 . S
N554 C546 1.356 . S
N554 H560 0.984 . S
N554 H561 0.984 . S
N555 C548 1.356 . S
N555 H558 0.984 . S
N555 H559 0.985 . S
H556 N551 0.984 . S
H557 N551 0.985 . S
H558 N555 0.984 . S
H559 N555 0.985 . S
H560 N554 0.984 . S
H561 N554 0.984 . S
H562 N550 0.984 . S
H563 N550 0.985 . S
C564 C565 1.363 1_554 S
C564 C570 1.379 . S
C564 N572 1.356 . S
C565 C564 1.363 1_556 S
C565 C571 1.363 . S
C566 C567 1.363 1_556 S
C566 C571 1.379 . S
C566 N573 1.356 . S
C567 C566 1.363 1_554 S
C567 C570 1.363 . S
N568 C570 1.356 . S
N568 H580 0.984 . S
N568 H581 0.985 . S
N569 C571 1.356 . S
N569 H574 0.984 . S
N569 H575 0.985 . S
C570 C564 1.379 . S
C570 C567 1.363 . S
C570 N568 1.356 . S
C571 C565 1.363 . S
C571 C566 1.379 . S
C571 N569 1.356 . S
N572 C564 1.356 . S
N572 H578 0.984 . S
N572 H579 0.984 . S
N573 C566 1.356 . S
N573 H576 0.984 . S
N573 H577 0.985 . S
H574 N569 0.984 . S
H575 N569 0.985 . S
H576 N573 0.984 . S
H577 N573 0.985 . S
H578 N572 0.984 . S
H579 N572 0.984 . S
H580 N568 0.984 . S
H581 N568 0.985 . S
C582 C583 1.363 1_556 S
C582 C588 1.379 . S
C582 N590 1.356 . S
C583 C582 1.363 1_554 S
C583 C589 1.363 . S
C584 C585 1.363 1_554 S
C584 C589 1.379 . S
C584 N591 1.356 . S
C585 C584 1.363 1_556 S
C585 C588 1.363 . S
N586 C588 1.356 . S
N586 H598 0.984 . S
N586 H599 0.985 . S
N587 C589 1.356 . S
N587 H592 0.984 . S
N587 H593 0.985 . S
C588 C582 1.379 . S
C588 C585 1.363 . S
C588 N586 1.356 . S
C589 C583 1.363 . S
C589 C584 1.379 . S
C589 N587 1.356 . S
N590 C582 1.356 . S
N590 H596 0.984 . S
N590 H597 0.984 . S
N591 C584 1.356 . S
N591 H594 0.984 . S
N591 H595 0.985 . S
H592 N587 0.984 . S
H593 N587 0.985 . S
H594 N591 0.984 . S
H595 N591 0.985 . S
H596 N590 0.984 . S
H597 N590 0.984 . S
H598 N586 0.984 . S
H599 N586 0.985 . S
C169 C12 1.493 . S
C171 C99 1.493 . S
C187 C27 1.493 . S
C189 C69 1.492 . S
C205 C71 1.493 . S
C207 C29 1.492 . S
C223 C97 1.492 . S
C225 C55 1.493 . S
C241 C113 1.493 . S
C243 C110 1.493 . S
C259 C126 1.493 . S
C261 C56 1.492 . S
C277 C140 1.492 . S
C279 C82 1.493 . S
C295 C167 1.492 . S
C297 C84 1.492 . S
C313 C14 1.493 . S
C315 C139 1.493 . S
C331 C153 1.492 . S
C333 C40 1.492 . S
C349 C42 1.493 . S
C351 C154 1.492 . S
C367 C124 1.493 . S
C369 C1 1.493 . S
C385 C85 1.709 . S
C387 C0 1.706 . S
C403 C111 1.706 . S
C405 C15 1.706 . S
C421 C57 1.709 . S
C423 C41 1.709 . S
C439 C43 1.706 . S
C441 C83 1.706 . S
C457 C98 1.706 . S
C459 C70 1.706 . S
C475 C68 1.709 . S
C477 C96 1.709 . S
C493 C54 1.706 . S
C495 C26 1.706 . S
C511 C28 1.709 . S
C513 C13 1.706 . S
C529 C112 1.706 . S
C531 C138 1.706 . S
C547 C127 1.706 . S
C549 C152 1.709 . S
C565 C155 1.709 . S
C567 C141 1.709 . S
C583 C125 1.706 . S
C585 C166 1.709 . S
