# Generated by pormake.
# Topology unp, (4)-cn, num edge types: 1
# Building blocks:
#     Node 0, Type 0, BuildingBlock: QUQFOY_clean_sbu_1, # of connection points: 4
#     Node 1, Type 0, BuildingBlock: QUQFOY_clean_sbu_1, # of connection points: 4
#     Node 2, Type 0, BuildingBlock: QUQFOY_clean_sbu_1, # of connection points: 4
#     Node 3, Type 0, BuildingBlock: QUQFOY_clean_sbu_1, # of connection points: 4
#     Node 4, Type 0, BuildingBlock: QUQFOY_clean_sbu_1, # of connection points: 4
#     Node 5, Type 0, BuildingBlock: QUQFOY_clean_sbu_1, # of connection points: 4
#     Node 6, Type 0, BuildingBlock: QUQFOY_clean_sbu_1, # of connection points: 4
#     Node 7, Type 0, BuildingBlock: QUQFOY_clean_sbu_1, # of connection points: 4
#     Node 8, Type 0, BuildingBlock: QUQFOY_clean_sbu_1, # of connection points: 4
#     Node 9, Type 0, BuildingBlock: QUQFOY_clean_sbu_1, # of connection points: 4
#     Node 10, Type 0, BuildingBlock: QUQFOY_clean_sbu_1, # of connection points: 4
#     Node 11, Type 0, BuildingBlock: QUQFOY_clean_sbu_1, # of connection points: 4
#     Node 12, Type 0, BuildingBlock: QUQFOY_clean_sbu_1, # of connection points: 4
#     Node 13, Type 0, BuildingBlock: QUQFOY_clean_sbu_1, # of connection points: 4
#     Node 14, Type 0, BuildingBlock: QUQFOY_clean_sbu_1, # of connection points: 4
#     Node 15, Type 0, BuildingBlock: QUQFOY_clean_sbu_1, # of connection points: 4
#     Node 16, Type 0, BuildingBlock: QUQFOY_clean_sbu_1, # of connection points: 4
#     Node 17, Type 0, BuildingBlock: QUQFOY_clean_sbu_1, # of connection points: 4
#     Edge 18, Type (0, 0), BuildingBlock: XIVTED_clean_linker_0, # of connection points: 2
#     Edge 19, Type (0, 0), BuildingBlock: XIVTED_clean_linker_0, # of connection points: 2
#     Edge 20, Type (0, 0), BuildingBlock: XIVTED_clean_linker_0, # of connection points: 2
#     Edge 21, Type (0, 0), BuildingBlock: XIVTED_clean_linker_0, # of connection points: 2
#     Edge 22, Type (0, 0), BuildingBlock: XIVTED_clean_linker_0, # of connection points: 2
#     Edge 23, Type (0, 0), BuildingBlock: XIVTED_clean_linker_0, # of connection points: 2
#     Edge 24, Type (0, 0), BuildingBlock: XIVTED_clean_linker_0, # of connection points: 2
#     Edge 25, Type (0, 0), BuildingBlock: XIVTED_clean_linker_0, # of connection points: 2
#     Edge 26, Type (0, 0), BuildingBlock: XIVTED_clean_linker_0, # of connection points: 2
#     Edge 27, Type (0, 0), BuildingBlock: XIVTED_clean_linker_0, # of connection points: 2
#     Edge 28, Type (0, 0), BuildingBlock: XIVTED_clean_linker_0, # of connection points: 2
#     Edge 29, Type (0, 0), BuildingBlock: XIVTED_clean_linker_0, # of connection points: 2
#     Edge 30, Type (0, 0), BuildingBlock: XIVTED_clean_linker_0, # of connection points: 2
#     Edge 31, Type (0, 0), BuildingBlock: XIVTED_clean_linker_0, # of connection points: 2
#     Edge 32, Type (0, 0), BuildingBlock: XIVTED_clean_linker_0, # of connection points: 2
#     Edge 33, Type (0, 0), BuildingBlock: XIVTED_clean_linker_0, # of connection points: 2
#     Edge 34, Type (0, 0), BuildingBlock: XIVTED_clean_linker_0, # of connection points: 2
#     Edge 35, Type (0, 0), BuildingBlock: XIVTED_clean_linker_0, # of connection points: 2
#     Edge 36, Type (0, 0), BuildingBlock: XIVTED_clean_linker_0, # of connection points: 2
#     Edge 37, Type (0, 0), BuildingBlock: XIVTED_clean_linker_0, # of connection points: 2
#     Edge 38, Type (0, 0), BuildingBlock: XIVTED_clean_linker_0, # of connection points: 2
#     Edge 39, Type (0, 0), BuildingBlock: XIVTED_clean_linker_0, # of connection points: 2
#     Edge 40, Type (0, 0), BuildingBlock: XIVTED_clean_linker_0, # of connection points: 2
#     Edge 41, Type (0, 0), BuildingBlock: XIVTED_clean_linker_0, # of connection points: 2
#     Edge 42, Type (0, 0), BuildingBlock: XIVTED_clean_linker_0, # of connection points: 2
#     Edge 43, Type (0, 0), BuildingBlock: XIVTED_clean_linker_0, # of connection points: 2
#     Edge 44, Type (0, 0), BuildingBlock: XIVTED_clean_linker_0, # of connection points: 2
#     Edge 45, Type (0, 0), BuildingBlock: XIVTED_clean_linker_0, # of connection points: 2
#     Edge 46, Type (0, 0), BuildingBlock: XIVTED_clean_linker_0, # of connection points: 2
#     Edge 47, Type (0, 0), BuildingBlock: XIVTED_clean_linker_0, # of connection points: 2
#     Edge 48, Type (0, 0), BuildingBlock: XIVTED_clean_linker_0, # of connection points: 2
#     Edge 49, Type (0, 0), BuildingBlock: XIVTED_clean_linker_0, # of connection points: 2
#     Edge 50, Type (0, 0), BuildingBlock: XIVTED_clean_linker_0, # of connection points: 2
#     Edge 51, Type (0, 0), BuildingBlock: XIVTED_clean_linker_0, # of connection points: 2
#     Edge 52, Type (0, 0), BuildingBlock: XIVTED_clean_linker_0, # of connection points: 2
#     Edge 53, Type (0, 0), BuildingBlock: XIVTED_clean_linker_0, # of connection points: 2
# Relax obj value: 0.372
# Max RMSD: 0.180
# Mean RMSD: 0.180
data_MOF--net-unp--node1-QUQFOY_clean_sbu_1--edge1-XIVTED_clean_linker_0
_symmetry_space_group_name_H-M    P1
_symmetry_Int_Tables_number       1
_symmetry_cell_setting            triclinic
loop_
_symmetry_equiv_pos_as_xyz
'x, y, z'
_cell_length_a     48.293213
_cell_length_b     48.302094
_cell_length_c     72.945667
_cell_angle_alpha  90.004138
_cell_angle_beta   89.998827
_cell_angle_gamma 120.01125
loop_
_atom_site_label
_atom_site_type_symbol
_atom_site_fract_x
_atom_site_fract_y
_atom_site_fract_z
_atom_type_partial_charge
O0 O 0.16524 0.12993 0.14017 0.0
Cd1 Cd 0.16917 0.17414 0.13767 0.0
Cd2 Cd 0.16369 0.1618 0.09981 0.0
O3 O 0.16893 0.12491 0.11039 0.0
O4 O 0.1948 0.20118 0.15849 0.0
O5 O 0.21104 0.21058 0.12952 0.0
C6 C 0.21678 0.2181 0.14668 0.0
C7 C 0.17679 0.16909 0.06838 0.0
C8 C 0.16721 0.11456 0.1266 0.0
C9 C 0.11143 0.1684 0.12031 0.0
O10 O 0.12216 0.1628 0.10569 0.0
O11 O 0.12728 0.17491 0.13513 0.0
O12 O 0.15236 0.14393 0.07466 0.0
O13 O 0.1942 0.19124 0.07993 0.0
O14 O 0.86396 0.03529 0.13465 0.0
Cd15 Cd 0.81973 0.99487 0.13671 0.0
Cd16 Cd 0.82544 0.99009 0.09893 0.0
O17 O 0.86649 0.03308 0.10453 0.0
O18 O 0.79651 -0.00015 0.15769 0.0
O19 O 0.78139 0.99712 0.12868 0.0
C20 C 0.77699 0.00056 0.14584 0.0
C21 C 0.81002 0.98457 0.06792 0.0
C22 C 0.87858 0.04696 0.11966 0.0
C23 C 0.8209 0.9374 0.12479 0.0
O24 O 0.82268 0.94858 0.10878 0.0
O25 O 0.81908 0.95217 0.13871 0.0
O26 O 0.8352 0.98435 0.07327 0.0
O27 O 0.79313 0.98858 0.08019 0.0
O28 O 0.95935 0.82856 0.13909 0.0
Cd29 Cd -0.00033 0.8245 0.13905 0.0
Cd30 Cd 0.00152 0.83803 0.10077 0.0
O31 O 0.95832 0.83344 0.10905 0.0
O32 O 0.99627 0.79621 0.15965 0.0
O33 O 0.99598 0.78355 0.13037 0.0
C34 C 0.99396 0.77573 0.14749 0.0
C35 C 0.00363 0.83283 0.06867 0.0
C36 C 0.94589 0.83112 0.12476 0.0
C37 C 0.05623 0.88393 0.12668 0.0
O38 O 0.0437 0.87592 0.11083 0.0
O39 O 0.04265 0.86628 0.14047 0.0
O40 O 0.00366 0.85682 0.07621 0.0
O41 O 0.00228 0.81092 0.07936 0.0
O42 O 0.12491 0.16597 0.86577 0.0
Cd43 Cd 0.16903 0.1698 0.86302 0.0
Cd44 Cd 0.16376 0.15731 0.90102 0.0
O45 O 0.12228 0.15867 0.89572 0.0
O46 O 0.19118 0.19779 0.84177 0.0
O47 O 0.20788 0.21046 0.87053 0.0
C48 C 0.21142 0.21807 0.85333 0.0
C49 C 0.17799 0.16514 0.93226 0.0
C50 C 0.1102 0.16163 0.88086 0.0
C51 C 0.16919 0.11121 0.87388 0.0
O52 O 0.16808 0.12003 0.89015 0.0
O53 O 0.16964 0.12784 0.8603 0.0
O54 O 0.15349 0.13974 0.92627 0.0
O55 O 0.19493 0.18714 0.92053 0.0
O56 O 0.82392 0.95908 0.86128 0.0
Cd57 Cd 0.81977 -0.00072 0.86355 0.0
Cd58 Cd 0.82454 0.9929 0.90131 0.0
O59 O 0.82045 0.95106 0.89111 0.0
O60 O 0.79466 0.00064 0.84242 0.0
O61 O 0.77761 0.99372 0.87124 0.0
C62 C 0.77234 0.9955 0.854 0.0
C63 C 0.80943 0.98646 0.93239 0.0
C64 C 0.82234 0.94218 0.87499 0.0
C65 C 0.87723 0.05158 0.88117 0.0
O66 O 0.86625 0.03546 0.89584 0.0
O67 O 0.86161 0.04202 0.86628 0.0
O68 O 0.83429 0.98593 0.92673 0.0
O69 O 0.79284 0.99161 0.92045 0.0
O70 O 0.03042 0.86428 0.85917 0.0
Cd71 Cd 0.99038 0.8199 0.86116 0.0
Cd72 Cd 0.9931 0.83375 0.89918 0.0
O73 O 0.03539 0.87141 0.88912 0.0
O74 O 0.99141 0.7929 0.84102 0.0
O75 O 0.99581 0.78405 0.87047 0.0
C76 C 0.99579 0.77643 0.85345 0.0
C77 C 0.99592 0.82837 0.93121 0.0
C78 C 0.0458 0.88082 0.87298 0.0
C79 C 0.93552 0.82385 0.87569 0.0
O80 O 0.94999 0.82962 0.89101 0.0
O81 O 0.94725 0.81844 0.86148 0.0
O82 O 0.99553 0.85229 0.92385 0.0
O83 O 0.99435 0.80654 0.92037 0.0
O84 O 0.83268 0.46335 0.47302 0.0
Cd85 Cd 0.83638 0.50757 0.47128 0.0
Cd86 Cd 0.83111 0.49714 0.43335 0.0
O87 O 0.83523 0.45913 0.44308 0.0
O88 O 0.86164 0.5337 0.49247 0.0
O89 O 0.87823 0.54464 0.4636 0.0
C90 C 0.8837 0.55135 0.48087 0.0
C91 C 0.84521 0.50596 0.40211 0.0
C92 C 0.83386 0.4482 0.4591 0.0
C93 C 0.77865 0.50261 0.45418 0.0
O94 O 0.78963 0.49809 0.43932 0.0
O95 O 0.79429 0.5081 0.46902 0.0
O96 O 0.82036 0.4807 0.40791 0.0
O97 O 0.86242 0.52746 0.41403 0.0
O98 O 0.53096 0.36783 0.4694 0.0
Cd99 Cd 0.48672 0.32765 0.47192 0.0
Cd100 Cd 0.49223 0.32105 0.43397 0.0
O101 O 0.53365 0.36389 0.43939 0.0
O102 O 0.46428 0.33345 0.49302 0.0
O103 O 0.44827 0.32995 0.46415 0.0
C104 C 0.44445 0.33393 0.48132 0.0
C105 C 0.47773 0.31482 0.40278 0.0
C106 C 0.5457 0.37856 0.45434 0.0
C107 C 0.48663 0.26908 0.46084 0.0
O108 O 0.48806 0.27938 0.44463 0.0
O109 O 0.48584 0.28493 0.4745 0.0
O110 O 0.50233 0.31398 0.40863 0.0
O111 O 0.46088 0.31981 0.41462 0.0
O112 O 0.62645 0.16201 0.47473 0.0
Cd113 Cd 0.66658 0.15784 0.47267 0.0
Cd114 Cd 0.66332 0.16854 0.4346 0.0
O115 O 0.62107 0.1638 0.44481 0.0
O116 O 0.66602 0.13057 0.49312 0.0
O117 O 0.66121 0.11631 0.46383 0.0
C118 C 0.66155 0.10932 0.48093 0.0
C119 C 0.65999 0.15988 0.40261 0.0
C120 C 0.61085 0.16294 0.46098 0.0
C121 C 0.72111 0.21663 0.45779 0.0
O122 O 0.70644 0.20777 0.44254 0.0
O123 O 0.70963 0.19958 0.47205 0.0
O124 O 0.66034 0.18421 0.4099 0.0
O125 O 0.66197 0.13989 0.41348 0.0
O126 O 0.79447 0.49898 0.19925 0.0
Cd127 Cd 0.8388 0.50297 0.19767 0.0
Cd128 Cd 0.83181 0.49227 0.23538 0.0
O129 O 0.7906 0.49366 0.22932 0.0
O130 O 0.8623 0.53114 0.17674 0.0
O131 O 0.87684 0.54375 0.2058 0.0
C132 C 0.88147 0.55153 0.18864 0.0
C133 C 0.8467 0.50208 0.26644 0.0
C134 C 0.77912 0.49561 0.214 0.0
C135 C 0.83747 0.4444 0.20985 0.0
O136 O 0.83523 0.45378 0.22576 0.0
O137 O 0.83956 0.46093 0.19585 0.0
O138 O 0.82172 0.4766 0.26099 0.0
O139 O 0.86359 0.52322 0.25428 0.0
O140 O 0.49123 0.29311 0.19502 0.0
Cd141 Cd 0.48725 0.33334 0.19806 0.0
Cd142 Cd 0.49314 0.32554 0.23547 0.0
O143 O 0.48679 0.28315 0.22466 0.0
O144 O 0.46155 0.33513 0.17739 0.0
O145 O 0.44534 0.3276 0.20638 0.0
C146 C 0.43956 0.32972 0.18927 0.0
C147 C 0.4795 0.31972 0.2668 0.0
C148 C 0.48873 0.2751 0.20834 0.0
C149 C 0.54574 0.38437 0.21527 0.0
O150 O 0.53543 0.36738 0.22968 0.0
O151 O 0.52914 0.37601 0.20069 0.0
O152 O 0.50357 0.31818 0.26066 0.0
O153 O 0.46278 0.3253 0.25516 0.0
O154 O 0.69643 0.19706 0.19497 0.0
Cd155 Cd 0.65607 0.1527 0.19509 0.0
Cd156 Cd 0.65417 0.16468 0.2332 0.0
O157 O 0.69722 0.20356 0.22495 0.0
O158 O 0.65954 0.12771 0.17458 0.0
O159 O 0.65983 0.11555 0.2039 0.0
C160 C 0.66193 0.10968 0.1868 0.0
C161 C 0.65186 0.15679 0.26525 0.0
C162 C 0.70973 0.2134 0.20923 0.0
C163 C 0.59941 0.15551 0.20728 0.0
O164 O 0.61188 0.16009 0.22315 0.0
O165 O 0.61309 0.15149 0.19352 0.0
O166 O 0.65168 0.1808 0.25786 0.0
O167 O 0.6536 0.1366 0.25444 0.0
O168 O 0.49942 0.79744 0.80175 0.0
Cd169 Cd 0.50352 0.84177 0.79932 0.0
Cd170 Cd 0.50027 0.83171 0.76241 0.0
O171 O 0.50312 0.79289 0.77196 0.0
O172 O 0.52848 0.86846 0.82042 0.0
O173 O 0.5457 0.87827 0.79163 0.0
C174 C 0.55089 0.88549 0.80885 0.0
C175 C 0.52181 0.84676 0.73286 0.0
C176 C 0.5009 0.782 0.78807 0.0
C177 C 0.44619 0.83618 0.78122 0.0
O178 O 0.45765 0.83135 0.76666 0.0
O179 O 0.46157 0.84239 0.79621 0.0
O180 O 0.49633 0.82006 0.73609 0.0
O181 O 0.53531 0.86608 0.74639 0.0
O182 O 0.19862 0.7019 0.80074 0.0
Cd183 Cd 0.15466 0.66172 0.80443 0.0
Cd184 Cd 0.15841 0.6521 0.76687 0.0
O185 O 0.20055 0.69486 0.77098 0.0
O186 O 0.13344 0.66882 0.8257 0.0
O187 O 0.11541 0.66296 0.79715 0.0
C188 C 0.11263 0.66806 0.81429 0.0
C189 C 0.14124 0.64415 0.73615 0.0
C190 C 0.21303 0.71101 0.78546 0.0
C191 C 0.15417 0.60227 0.79476 0.0
O192 O 0.15452 0.61107 0.7783 0.0
O193 O 0.15427 0.61937 0.808 0.0
O194 O 0.16593 0.6429 0.74141 0.0
O195 O 0.12579 0.6504 0.74832 0.0
O196 O 0.29404 0.49608 0.80865 0.0
Cd197 Cd 0.33404 0.49178 0.80626 0.0
Cd198 Cd 0.32901 0.50058 0.76814 0.0
O199 O 0.28665 0.49499 0.77876 0.0
O200 O 0.33391 0.46416 0.82637 0.0
O201 O 0.32821 0.45035 0.79698 0.0
C202 C 0.32893 0.44305 0.81398 0.0
C203 C 0.32516 0.49197 0.73614 0.0
C204 C 0.27737 0.49538 0.79503 0.0
C205 C 0.38758 0.55 0.79049 0.0
O206 O 0.37205 0.54045 0.77554 0.0
O207 O 0.37706 0.53346 0.805 0.0
O208 O 0.32491 0.5159 0.74356 0.0
O209 O 0.32788 0.47226 0.74688 0.0
O210 O 0.45901 0.83409 0.53566 0.0
Cd211 Cd 0.50306 0.83773 0.5327 0.0
Cd212 Cd 0.49955 0.82793 0.56996 0.0
O213 O 0.45698 0.82759 0.56565 0.0
O214 O 0.52483 0.86501 0.51116 0.0
O215 O 0.5421 0.87855 0.53976 0.0
C216 C 0.54532 0.88563 0.52249 0.0
C217 C 0.52035 0.84298 0.5997 0.0
C218 C 0.44447 0.82992 0.55081 0.0
C219 C 0.50314 0.77946 0.5443 0.0
O220 O 0.50265 0.78923 0.56041 0.0
O221 O 0.50348 0.79557 0.53048 0.0
O222 O 0.49517 0.81613 0.59627 0.0
O223 O 0.53408 0.86235 0.58621 0.0
O224 O 0.15851 0.62941 0.52872 0.0
Cd225 Cd 0.15396 0.66904 0.5328 0.0
Cd226 Cd 0.15793 0.6584 0.56988 0.0
O227 O 0.15346 0.61735 0.5581 0.0
O228 O 0.1284 0.67199 0.51242 0.0
O229 O 0.11168 0.66205 0.54131 0.0
C230 C 0.10608 0.66525 0.52431 0.0
C231 C 0.1419 0.65003 0.60082 0.0
C232 C 0.15612 0.61065 0.54158 0.0
C233 C 0.21116 0.71914 0.55153 0.0
O234 O 0.20003 0.70118 0.56554 0.0
O235 O 0.19562 0.71157 0.53658 0.0
O236 O 0.16656 0.64918 0.59508 0.0
O237 O 0.12588 0.65622 0.58901 0.0
O238 O 0.36439 0.53228 0.5284 0.0
Cd239 Cd 0.32407 0.48782 0.52869 0.0
Cd240 Cd 0.32274 0.50021 0.56669 0.0
O241 O 0.36606 0.53858 0.55842 0.0
O242 O 0.3273 0.46275 0.50813 0.0
O243 O 0.32809 0.4508 0.53744 0.0
C244 C 0.32992 0.44482 0.52033 0.0
C245 C 0.32031 0.49216 0.59872 0.0
C246 C 0.37817 0.54847 0.54263 0.0
C247 C 0.26799 0.49159 0.54095 0.0
O248 O 0.28093 0.49678 0.5567 0.0
O249 O 0.281 0.48646 0.52726 0.0
O250 O 0.3208 0.51653 0.59138 0.0
O251 O 0.32146 0.47169 0.58786 0.0
H252 H 0.42036 0.33249 0.15439 0.0
H253 H 0.23589 0.23932 0.18169 0.0
H254 H 0.38593 0.31151 0.21012 0.0
H255 H 0.27035 0.25424 0.12592 0.0
H256 H 0.29044 0.27469 0.19228 0.0
H257 H 0.36575 0.31315 0.14387 0.0
C258 C 0.40138 0.32425 0.16446 0.0
C259 C 0.40765 0.32315 0.18315 0.0
C260 C 0.28604 0.27058 0.17771 0.0
C261 C 0.34499 0.3007 0.17116 0.0
C262 C 0.25486 0.2504 0.17163 0.0
C263 C 0.24862 0.24341 0.1529 0.0
C264 C 0.3112 0.28375 0.16498 0.0
C265 C 0.27411 0.25869 0.1405 0.0
C266 C 0.37016 0.31315 0.15842 0.0
C267 C 0.38215 0.3125 0.19557 0.0
N268 N 0.30436 0.27783 0.14679 0.0
N269 N 0.35187 0.30129 0.18932 0.0
H270 H 0.73685 0.01145 0.12434 0.0
H271 H 0.67736 0.07344 0.20887 0.0
H272 H 0.76016 0.00597 0.18086 0.0
H273 H 0.66459 0.08979 0.15211 0.0
H274 H 0.69824 0.03898 0.19903 0.0
H275 H 0.70101 0.03047 0.13451 0.0
C276 C 0.73409 0.01381 0.13889 0.0
C277 C 0.75188 0.00758 0.15176 0.0
C278 C 0.69048 0.04979 0.18874 0.0
C279 C 0.71108 0.02947 0.16348 0.0
C280 C 0.67846 0.06939 0.19435 0.0
C281 C 0.66968 0.08489 0.18129 0.0
C282 C 0.69373 0.04571 0.16994 0.0
C283 C 0.67148 0.07865 0.16266 0.0
C284 C 0.71368 0.02473 0.14469 0.0
C285 C 0.74722 0.01088 0.17045 0.0
N286 N 0.68362 0.05982 0.15754 0.0
N287 N 0.72753 0.02192 0.17574 0.0
H288 H 0.92066 0.60292 0.2102 0.0
H289 H 0.97933 0.72411 0.12554 0.0
H290 H 0.89868 0.57375 0.15364 0.0
H291 H 0.99114 0.7534 0.18226 0.0
H292 H 0.95917 0.66894 0.13547 0.0
H293 H 0.95584 0.65792 0.20003 0.0
C294 C 0.92359 0.60798 0.19564 0.0
C295 C 0.90635 0.5838 0.18276 0.0
C296 C 0.96655 0.68751 0.14574 0.0
C297 C 0.94637 0.64667 0.17104 0.0
C298 C 0.97815 0.71903 0.14007 0.0
C299 C 0.98648 0.74331 0.15309 0.0
C300 C 0.96325 0.68026 0.16455 0.0
C301 C 0.9846 0.73536 0.17174 0.0
C302 C 0.94361 0.63941 0.18984 0.0
C303 C 0.9112 0.59172 0.16406 0.0
N304 N 0.97287 0.70447 0.17691 0.0
N305 N 0.93049 0.62252 0.15877 0.0
H306 H 0.33101 0.42131 0.84827 0.0
H307 H 0.22753 0.23914 0.81807 0.0
H308 H 0.30853 0.39037 0.792 0.0
H309 H 0.25227 0.26971 0.87425 0.0
H310 H 0.26381 0.29374 0.80796 0.0
H311 H 0.30947 0.36577 0.85764 0.0
C312 C 0.32197 0.40287 0.83784 0.0
C313 C 0.32113 0.41044 0.81934 0.0
C314 C 0.26163 0.28848 0.82249 0.0
C315 C 0.29608 0.34674 0.83001 0.0
C316 C 0.24088 0.25728 0.82829 0.0
C317 C 0.23652 0.24995 0.84706 0.0
C318 C 0.27795 0.31264 0.83556 0.0
C319 C 0.2547 0.27435 0.85965 0.0
C320 C 0.30963 0.37114 0.84321 0.0
C321 C 0.3094 0.38561 0.80643 0.0
N322 N 0.27431 0.30471 0.85368 0.0
N323 N 0.29692 0.35481 0.81204 0.0
H324 H 0.75432 0.99808 0.81879 0.0
H325 H 0.56897 0.90608 0.84406 0.0
H326 H 0.71807 0.97759 0.87418 0.0
H327 H 0.60522 0.92162 0.78867 0.0
H328 H 0.62324 0.9409 0.85524 0.0
H329 H 0.70012 0.97906 0.80762 0.0
C330 C 0.73502 0.99 0.82864 0.0
C331 C 0.74066 0.98897 0.84744 0.0
C332 C 0.6193 0.93705 0.84062 0.0
C333 C 0.67847 0.96689 0.8347 0.0
C334 C 0.58828 0.91718 0.83421 0.0
C335 C 0.58261 0.91053 0.81541 0.0
C336 C 0.64488 0.95024 0.82816 0.0
C337 C 0.60852 0.92583 0.8033 0.0
C338 C 0.70405 0.97909 0.82224 0.0
C339 C 0.71478 0.97852 0.85956 0.0
N340 N 0.6386 0.94464 0.8099 0.0
N341 N 0.68473 0.9675 0.85296 0.0
H342 H 0.09765 0.67442 0.84957 0.0
H343 H 0.9939 0.75259 0.8192 0.0
H344 H 0.07112 0.67801 0.79348 0.0
H345 H 0.01605 0.74415 0.87553 0.0
H346 H 0.01536 0.71848 0.80994 0.0
H347 H 0.06163 0.69306 0.85968 0.0
C348 C 0.08396 0.67879 0.83938 0.0
C349 C 0.08774 0.67509 0.82062 0.0
C350 C 0.01514 0.7237 0.82436 0.0
C351 C 0.0466 0.69671 0.83212 0.0
C352 C 0.00286 0.74318 0.82967 0.0
C353 C 0.00362 0.75161 0.84815 0.0
C354 C 0.02857 0.71281 0.8376 0.0
C355 C 0.01524 0.73848 0.86112 0.0
C356 C 0.06335 0.68941 0.84518 0.0
C357 C 0.06915 0.68079 0.80806 0.0
N358 N 0.02768 0.7201 0.85556 0.0
N359 N 0.04969 0.69173 0.81403 0.0
H360 H 0.90221 0.57092 0.51617 0.0
H361 H 0.08694 0.66939 0.48963 0.0
H362 H 0.93732 0.58922 0.46052 0.0
H363 H 0.05201 0.64474 0.54512 0.0
H364 H 0.03221 0.64922 0.47905 0.0
H365 H 0.95642 0.60668 0.52713 0.0
C366 C 0.92125 0.58281 0.50622 0.0
C367 C 0.9153 0.57669 0.4874 0.0
C368 C 0.03653 0.6486 0.49357 0.0
C369 C 0.97751 0.6175 0.49989 0.0
C370 C 0.06781 0.66018 0.49964 0.0
C371 C 0.07401 0.65829 0.51827 0.0
C372 C 0.01122 0.63489 0.5062 0.0
C373 C 0.0483 0.64637 0.53061 0.0
C374 C 0.95223 0.60321 0.5125 0.0
C375 C 0.94086 0.59299 0.47516 0.0
N376 N 0.01798 0.63474 0.52433 0.0
N377 N 0.97093 0.61234 0.48163 0.0
H378 H 0.33049 0.42361 0.48568 0.0
H379 H 0.42748 0.33846 0.51645 0.0
H380 H 0.34729 0.4099 0.5422 0.0
H381 H 0.40518 0.34649 0.46009 0.0
H382 H 0.39204 0.35798 0.5263 0.0
H383 H 0.35124 0.38898 0.47625 0.0
C384 C 0.33815 0.41296 0.49614 0.0
C385 C 0.33759 0.42002 0.51475 0.0
C386 C 0.39455 0.3551 0.51178 0.0
C387 C 0.3617 0.38059 0.50402 0.0
C388 C 0.41482 0.34397 0.50614 0.0
C389 C 0.41965 0.34127 0.4874 0.0
C390 C 0.37921 0.36393 0.4986 0.0
C391 C 0.40237 0.34845 0.47467 0.0
C392 C 0.35001 0.39317 0.49074 0.0
C393 C 0.34753 0.40531 0.5277 0.0
N394 N 0.38325 0.35986 0.4805 0.0
N395 N 0.35961 0.38664 0.52207 0.0
H396 H 0.664 0.08863 0.51545 0.0
H397 H 0.56079 0.90562 0.48702 0.0
H398 H 0.6413 0.05608 0.45945 0.0
H399 H 0.58655 0.93787 0.54287 0.0
H400 H 0.59682 0.95993 0.47636 0.0
H401 H 0.64285 0.03343 0.52535 0.0
C402 C 0.65498 0.06991 0.50519 0.0
C403 C 0.65396 0.07692 0.48661 0.0
C404 C 0.59492 0.9551 0.49094 0.0
C405 C 0.62938 0.01359 0.4979 0.0
C406 C 0.57431 0.92406 0.49705 0.0
C407 C 0.5703 0.9173 0.51589 0.0
C408 C 0.61144 0.97965 0.50376 0.0
C409 C 0.5887 0.94207 0.52823 0.0
C410 C 0.64288 0.03836 0.51087 0.0
C411 C 0.6423 0.05174 0.47393 0.0
N412 N 0.60816 0.97225 0.52196 0.0
N413 N 0.63003 0.02112 0.47984 0.0
H414 H 0.07462 0.16423 0.15005 0.0
H415 H 0.91552 0.08011 0.09025 0.0
H416 H 0.07243 0.15891 0.09094 0.0
H417 H 0.91675 0.0773 0.1494 0.0
H418 H 0.9724 0.11953 0.09046 0.0
H419 H 0.0169 0.14344 0.15011 0.0
C420 C 0.06217 0.15937 0.13706 0.0
C421 C 0.07833 0.16273 0.12047 0.0
C422 C 0.96017 0.11065 0.10342 0.0
C423 C 0.01224 0.13864 0.12048 0.0
C424 C 0.92762 0.08811 0.10332 0.0
C425 C 0.91142 0.07487 0.11982 0.0
C426 C 0.97678 0.1199 0.12014 0.0
C427 C 0.92833 0.08654 0.13632 0.0
C428 C 0.02916 0.14734 0.13712 0.0
C429 C 0.06092 0.15618 0.10408 0.0
N430 N 0.96022 0.10801 0.13605 0.0
N431 N 0.02878 0.14404 0.10451 0.0
H432 H 0.83587 0.91631 0.15623 0.0
H433 H 0.90522 0.82676 0.09741 0.0
H434 H 0.81884 0.89636 0.09835 0.0
H435 H 0.92166 0.84422 0.15551 0.0
H436 H 0.86434 0.84214 0.09903 0.0
H437 H 0.85743 0.88007 0.15781 0.0
C438 C 0.83589 0.90371 0.14395 0.0
C439 C 0.82618 0.90993 0.12704 0.0
C440 C 0.87651 0.84219 0.1115 0.0
C441 C 0.85121 0.86881 0.12871 0.0
C442 C 0.89992 0.83341 0.11058 0.0
C443 C 0.91734 0.83479 0.12629 0.0
C444 C 0.87072 0.8529 0.1282 0.0
C445 C 0.90906 0.84313 0.14302 0.0
C446 C 0.84838 0.88313 0.14484 0.0
C447 C 0.82664 0.89279 0.11161 0.0
N448 N 0.88675 0.85245 0.14348 0.0
N449 N 0.83947 0.87347 0.11276 0.0
H450 H 0.17844 0.07925 0.10159 0.0
H451 H 0.07773 0.91878 0.15847 0.0
H452 H 0.14713 0.07649 0.15733 0.0
H453 H 0.09784 0.92322 0.10055 0.0
H454 H 0.11538 0.97627 0.16073 0.0
H455 H 0.16177 0.02269 0.10371 0.0
C456 C 0.16853 0.06688 0.1144 0.0
C457 C 0.16353 0.08249 0.12917 0.0
C458 C 0.11202 0.96451 0.14761 0.0
C459 C 0.14399 0.01748 0.13161 0.0
C460 C 0.09067 0.93164 0.14632 0.0
C461 C 0.08417 0.9163 0.12921 0.0
C462 C 0.12699 0.98202 0.1317 0.0
C463 C 0.10168 0.93417 0.11396 0.0
C464 C 0.15898 0.03453 0.1156 0.0
C465 C 0.15107 0.06532 0.14552 0.0
N466 N 0.12193 0.96613 0.11552 0.0
N467 N 0.14116 0.03355 0.14619 0.0
H468 H 0.06684 0.91664 0.84146 0.0
H469 H 0.17744 0.07374 0.89879 0.0
H470 H 0.08935 0.91833 0.89886 0.0
H471 H 0.14969 0.07461 0.84264 0.0
H472 H 0.15691 0.01641 0.89638 0.0
H473 H 0.10764 0.97324 0.83925 0.0
C474 C 0.08078 0.92871 0.85351 0.0
C475 C 0.0742 0.9129 0.87047 0.0
C476 C 0.15579 0.02917 0.88446 0.0
C477 C 0.12077 0.9776 0.86805 0.0
C478 C 0.16762 0.06198 0.88581 0.0
C479 C 0.16465 0.07888 0.87102 0.0
C480 C 0.14045 0.013 0.86828 0.0
C481 C 0.15214 0.06246 0.85447 0.0
C482 C 0.10402 0.96105 0.85224 0.0
C483 C 0.09316 0.9297 0.88559 0.0
N484 N 0.13985 0.03026 0.85366 0.0
N485 N 0.11524 0.96119 0.88407 0.0
H486 H 0.07342 0.15606 0.91072 0.0
H487 H 0.91399 0.08453 0.85148 0.0
H488 H 0.07185 0.15551 0.85153 0.0
H489 H 0.91647 0.08053 0.91056 0.0
H490 H 0.97178 0.12099 0.85136 0.0
H491 H 0.01662 0.13895 0.91091 0.0
C492 C 0.06125 0.15277 0.89774 0.0
C493 C 0.07735 0.15665 0.88108 0.0
C494 C 0.95958 0.11256 0.86437 0.0
C495 C 0.01207 0.13673 0.88121 0.0
C496 C 0.92653 0.09183 0.86446 0.0
C497 C 0.91041 0.0789 0.88104 0.0
C498 C 0.97661 0.12036 0.88097 0.0
C499 C 0.92794 0.08942 0.89742 0.0
C500 C 0.02876 0.14298 0.89786 0.0
C501 C 0.06036 0.15245 0.86471 0.0
N502 N 0.96013 0.10913 0.89694 0.0
N503 N 0.02852 0.14222 0.86519 0.0
H504 H 0.89663 0.82302 0.90314 0.0
H505 H 0.83927 0.92193 0.84388 0.0
H506 H 0.91103 0.83567 0.84467 0.0
H507 H 0.81607 0.89879 0.90105 0.0
H508 H 0.85713 0.88267 0.84242 0.0
H509 H 0.85869 0.84223 0.90132 0.0
C510 C 0.89134 0.82927 0.88985 0.0
C511 C 0.90743 0.82826 0.87408 0.0
C512 C 0.84756 0.88577 0.85519 0.0
C513 C 0.86446 0.85099 0.87193 0.0
C514 C 0.83729 0.90815 0.85602 0.0
C515 C 0.8268 0.91419 0.87271 0.0
C516 C 0.84749 0.86949 0.87119 0.0
C517 C 0.82457 0.89543 0.88797 0.0
C518 C 0.86966 0.8403 0.8888 0.0
C519 C 0.89935 0.83631 0.8572 0.0
N520 N 0.83532 0.87435 0.88691 0.0
N521 N 0.87892 0.848 0.85661 0.0
H522 H 0.74175 0.49728 0.4841 0.0
H523 H 0.58254 0.41058 0.42466 0.0
H524 H 0.73944 0.49347 0.42495 0.0
H525 H 0.5839 0.41012 0.48384 0.0
H526 H 0.63927 0.45051 0.42466 0.0
H527 H 0.6839 0.47558 0.48432 0.0
C528 C 0.72924 0.49256 0.47114 0.0
C529 C 0.74543 0.4966 0.45449 0.0
C530 C 0.62711 0.44203 0.43766 0.0
C531 C 0.67916 0.47143 0.45466 0.0
C532 C 0.59465 0.41917 0.43768 0.0
C533 C 0.57852 0.40649 0.45428 0.0
C534 C 0.64372 0.45213 0.45436 0.0
C535 C 0.59543 0.41892 0.47071 0.0
C536 C 0.69615 0.48002 0.47128 0.0
C537 C 0.72792 0.49023 0.43814 0.0
N538 N 0.62723 0.44068 0.47033 0.0
N539 N 0.69571 0.47752 0.43865 0.0
H540 H 0.47871 0.22379 0.4357 0.0
H541 H 0.58986 0.17753 0.4926 0.0
H542 H 0.50606 0.25165 0.49198 0.0
H543 H 0.56711 0.15681 0.4352 0.0
H544 H 0.54889 0.19306 0.49496 0.0
H545 H 0.49951 0.1872 0.43789 0.0
C546 C 0.48849 0.22172 0.44866 0.0
C547 C 0.49127 0.24132 0.46356 0.0
C548 C 0.55249 0.18457 0.48193 0.0
C549 C 0.51579 0.1999 0.46604 0.0
C550 C 0.57584 0.17562 0.48058 0.0
C551 C 0.58239 0.1665 0.46358 0.0
C552 C 0.53562 0.18433 0.46618 0.0
C553 C 0.56332 0.16429 0.44851 0.0
C554 C 0.50048 0.20086 0.44988 0.0
C555 C 0.50374 0.23725 0.48008 0.0
N556 N 0.54114 0.17356 0.45011 0.0
N557 N 0.51619 0.21748 0.48077 0.0
H558 H 0.81819 0.41081 0.49008 0.0
H559 H 0.75912 0.25492 0.43012 0.0
H560 H 0.83915 0.41129 0.4325 0.0
H561 H 0.74643 0.25284 0.48877 0.0
H562 H 0.79701 0.31211 0.43192 0.0
H563 H 0.80049 0.35371 0.49121 0.0
C564 C 0.81971 0.39911 0.47776 0.0
C565 C 0.82952 0.41575 0.46108 0.0
C566 C 0.78642 0.29912 0.44447 0.0
C567 C 0.80901 0.35037 0.46223 0.0
C568 C 0.76477 0.2664 0.44344 0.0
C569 C 0.74916 0.24918 0.45927 0.0
C570 C 0.79208 0.31491 0.46141 0.0
C571 C 0.75771 0.26524 0.47618 0.0
C572 C 0.80953 0.36646 0.47841 0.0
C573 C 0.83119 0.39934 0.4456 0.0
N574 N 0.7781 0.29735 0.47677 0.0
N575 N 0.82053 0.36751 0.44649 0.0
H576 H 0.73577 0.24892 0.17802 0.0
H577 H 0.84162 0.40663 0.23628 0.0
H578 H 0.74879 0.25146 0.23668 0.0
H579 H 0.82029 0.4071 0.17886 0.0
H580 H 0.81951 0.34896 0.23471 0.0
H581 H 0.77732 0.30531 0.17644 0.0
C582 C 0.74774 0.26114 0.19053 0.0
C583 C 0.73833 0.24559 0.20756 0.0
C584 C 0.82015 0.3617 0.22235 0.0
C585 C 0.78582 0.31007 0.20583 0.0
C586 C 0.8329 0.39469 0.22322 0.0
C587 C 0.83218 0.41163 0.20777 0.0
C588 C 0.80623 0.3454 0.20596 0.0
C589 C 0.82101 0.39495 0.19117 0.0
C590 C 0.77143 0.29335 0.18961 0.0
C591 C 0.75484 0.26259 0.22328 0.0
N592 N 0.80785 0.36262 0.19078 0.0
N593 N 0.77747 0.29397 0.22206 0.0
H594 H 0.74324 0.49013 0.1836 0.0
H595 H 0.57895 0.42306 0.18618 0.0
H596 H 0.73962 0.48856 0.24274 0.0
H597 H 0.58879 0.40737 0.24349 0.0
H598 H 0.63629 0.46013 0.18461 0.0
H599 H 0.68648 0.47206 0.18271 0.0
C600 C 0.73062 0.48668 0.19643 0.0
C601 C 0.74619 0.4904 0.21326 0.0
C602 C 0.62613 0.44859 0.19754 0.0
C603 C 0.68071 0.46985 0.21245 0.0
C604 C 0.59314 0.42763 0.19849 0.0
C605 C 0.57907 0.41142 0.21488 0.0
C606 C 0.64523 0.45304 0.21306 0.0
C607 C 0.5986 0.41879 0.23045 0.0
C608 C 0.69797 0.47642 0.19594 0.0
C609 C 0.72858 0.48561 0.22942 0.0
N610 N 0.63066 0.43866 0.22908 0.0
N611 N 0.69676 0.47516 0.22859 0.0
H612 H 0.47634 0.22733 0.23269 0.0
H613 H 0.57842 0.16955 0.17554 0.0
H614 H 0.50946 0.25821 0.17745 0.0
H615 H 0.55719 0.15226 0.23327 0.0
H616 H 0.54071 0.18933 0.17333 0.0
H617 H 0.49285 0.18737 0.23015 0.0
C618 C 0.4866 0.22536 0.21989 0.0
C619 C 0.49218 0.24665 0.2054 0.0
C620 C 0.54383 0.18057 0.18639 0.0
C621 C 0.51154 0.2011 0.20249 0.0
C622 C 0.56521 0.16909 0.18765 0.0
C623 C 0.57142 0.15983 0.20471 0.0
C624 C 0.52852 0.18263 0.20229 0.0
C625 C 0.55358 0.15972 0.21992 0.0
C626 C 0.49606 0.20252 0.21846 0.0
C627 C 0.50507 0.24256 0.18905 0.0
N628 N 0.53331 0.17139 0.2184 0.0
N629 N 0.51489 0.22065 0.18815 0.0
H630 H 0.25096 0.74723 0.81403 0.0
H631 H 0.407 0.82498 0.75166 0.0
H632 H 0.2503 0.73811 0.75512 0.0
H633 H 0.4089 0.83185 0.81071 0.0
H634 H 0.34924 0.80289 0.75231 0.0
H635 H 0.30782 0.78719 0.81268 0.0
C636 C 0.2626 0.75396 0.80078 0.0
C637 C 0.24591 0.73882 0.78469 0.0
C638 C 0.36232 0.80968 0.76512 0.0
C639 C 0.31107 0.78444 0.78307 0.0
C640 C 0.39538 0.8224 0.76476 0.0
C641 C 0.4128 0.82971 0.78118 0.0
C642 C 0.34646 0.80392 0.78204 0.0
C643 C 0.39642 0.8262 0.79771 0.0
C644 C 0.29512 0.77678 0.80002 0.0
C645 C 0.26226 0.74875 0.76791 0.0
N646 N 0.3641 0.81303 0.79774 0.0
N647 N 0.29398 0.7706 0.76757 0.0
H648 H 0.23038 0.48367 0.77023 0.0
H649 H 0.17315 0.58623 0.82661 0.0
H650 H 0.25942 0.51497 0.82592 0.0
H651 H 0.14695 0.55603 0.7705 0.0
H652 H 0.19401 0.54953 0.8293 0.0
H653 H 0.18957 0.49903 0.77282 0.0
C654 C 0.22785 0.49334 0.78312 0.0
C655 C 0.24879 0.49867 0.79775 0.0
C656 C 0.18308 0.55044 0.81653 0.0
C657 C 0.20233 0.5168 0.80073 0.0
C658 C 0.17099 0.57129 0.81501 0.0
C659 C 0.15895 0.57474 0.79817 0.0
C660 C 0.18313 0.53304 0.80109 0.0
C661 C 0.15664 0.55464 0.78364 0.0
C662 C 0.2045 0.50211 0.78459 0.0
C663 C 0.24403 0.51078 0.81421 0.0
N664 N 0.16912 0.53508 0.78534 0.0
N665 N 0.22169 0.52004 0.81514 0.0
H666 H 0.48573 0.74588 0.81953 0.0
H667 H 0.42409 0.58699 0.76204 0.0
H668 H 0.50465 0.74355 0.76187 0.0
H669 H 0.41415 0.58781 0.8208 0.0
H670 H 0.46183 0.64429 0.76278 0.0
H671 H 0.46773 0.68878 0.82148 0.0
C672 C 0.4867 0.73355 0.80736 0.0
C673 C 0.49609 0.74942 0.79043 0.0
C674 C 0.45188 0.63192 0.77558 0.0
C675 C 0.47524 0.68403 0.79253 0.0
C676 C 0.43032 0.59914 0.77515 0.0
C677 C 0.41553 0.58269 0.79134 0.0
C678 C 0.45829 0.64855 0.79228 0.0
C679 C 0.42479 0.5996 0.80796 0.0
C680 C 0.47637 0.7009 0.80848 0.0
C681 C 0.49707 0.73223 0.77515 0.0
N682 N 0.44509 0.63175 0.80797 0.0
N683 N 0.48628 0.70041 0.77651 0.0
H684 H 0.50856 0.74159 0.57022 0.0
H685 H 0.40306 0.58451 0.51147 0.0
H686 H 0.48538 0.74254 0.51316 0.0
H687 H 0.41819 0.58609 0.56988 0.0
H688 H 0.44403 0.64111 0.51 0.0
H689 H 0.48742 0.68411 0.5682 0.0
C690 C 0.49961 0.72982 0.55715 0.0
C691 C 0.49809 0.74682 0.54194 0.0
C692 C 0.43874 0.6289 0.52308 0.0
C693 C 0.47331 0.6808 0.53962 0.0
C694 C 0.4154 0.59655 0.52393 0.0
C695 C 0.40671 0.58068 0.54089 0.0
C696 C 0.45349 0.64541 0.53929 0.0
C697 C 0.42367 0.59748 0.55655 0.0
C698 C 0.48744 0.69693 0.55602 0.0
C699 C 0.48667 0.73034 0.52529 0.0
N700 N 0.44592 0.62899 0.55541 0.0
N701 N 0.47411 0.6981 0.52467 0.0
H702 H 0.24898 0.74609 0.58167 0.0
H703 H 0.40743 0.82747 0.52159 0.0
H704 H 0.24936 0.7537 0.52269 0.0
H705 H 0.40596 0.81964 0.5806 0.0
H706 H 0.35037 0.80982 0.52208 0.0
H707 H 0.30662 0.78244 0.58188 0.0
C708 C 0.26109 0.75585 0.56877 0.0
C709 C 0.24437 0.74633 0.5521 0.0
C710 C 0.36264 0.81242 0.53494 0.0
C711 C 0.31058 0.78764 0.55223 0.0
C712 C 0.39526 0.82253 0.53468 0.0
C713 C 0.41144 0.82448 0.55105 0.0
C714 C 0.34603 0.80405 0.55168 0.0
C715 C 0.39443 0.81803 0.5676 0.0
C716 C 0.29407 0.77659 0.5689 0.0
C717 C 0.26131 0.7601 0.53585 0.0
N718 N 0.36261 0.8077 0.56746 0.0
N719 N 0.29358 0.77961 0.53629 0.0
H720 H 0.24228 0.49787 0.50862 0.0
H721 H 0.17625 0.59581 0.50975 0.0
H722 H 0.23061 0.49661 0.56733 0.0
H723 H 0.1468 0.56274 0.56514 0.0
H724 H 0.19443 0.55734 0.50636 0.0
H725 H 0.20474 0.51743 0.50521 0.0
C726 C 0.23148 0.50128 0.52079 0.0
C727 C 0.24027 0.49638 0.53832 0.0
C728 C 0.18311 0.55761 0.51908 0.0
C729 C 0.1981 0.51991 0.53459 0.0
C730 C 0.17279 0.57982 0.52104 0.0
C731 C 0.16055 0.58297 0.53787 0.0
C732 C 0.1811 0.53838 0.5341 0.0
C733 C 0.15661 0.56158 0.55201 0.0
C734 C 0.21031 0.51293 0.51885 0.0
C735 C 0.22513 0.50074 0.55356 0.0
N736 N 0.16736 0.54064 0.5499 0.0
N737 N 0.20519 0.51266 0.55134 0.0
H738 H 0.2131 0.22291 0.04708 0.0
H739 H 0.16292 0.11667 0.9558 0.0
H740 H 0.15675 0.11999 0.04461 0.0
H741 H 0.21005 0.2196 0.95362 0.0
H742 H 0.1689 0.11931 0.98882 0.0
H743 H 0.21973 0.22407 0.01345 0.0
C744 C 0.20246 0.20064 0.03951 0.0
C745 C 0.18401 0.17133 0.04858 0.0
C746 C 0.17814 0.14148 0.98125 0.0
C747 C 0.19164 0.17244 0.01048 0.0
C748 C 0.17472 0.13995 0.96233 0.0
C749 C 0.18559 0.16793 0.95201 0.0
C750 C 0.19212 0.17123 0.99014 0.0
C751 C 0.20121 0.19747 0.96116 0.0
C752 C 0.20618 0.20131 0.02038 0.0
C753 C 0.17077 0.14317 0.0382 0.0
N754 N 0.20364 0.19838 0.97983 0.0
N755 N 0.17476 0.14447 0.0198 0.0
H756 H 0.81925 0.94807 0.9548 0.0
H757 H 0.776 0.00614 0.04769 0.0
H758 H 0.7799 0.0109 0.95433 0.0
H759 H 0.82478 0.9521 0.04357 0.0
H760 H 0.76853 0.00208 0.01408 0.0
H761 H 0.81176 0.9423 0.9877 0.0
C762 C 0.80883 0.96057 0.9617 0.0
C763 C 0.80063 0.98037 0.95192 0.0
C764 C 0.78051 0.99085 0.02065 0.0
C765 C 0.79251 0.97444 0.98991 0.0
C766 C 0.78466 0.99307 0.03976 0.0
C767 C 0.8014 0.97979 0.04831 0.0
C768 C 0.79285 0.9749 0.01027 0.0
C769 C 0.81219 0.96313 0.03751 0.0
C770 C 0.80454 0.95729 0.98054 0.0
C771 C 0.78666 0.99554 0.96147 0.0
N772 N 0.80784 0.9613 0.01914 0.0
N773 N 0.78349 0.9927 0.98009 0.0
H774 H 0.99169 0.77921 0.95292 0.0
H775 H 0.01596 0.88026 0.04463 0.0
H776 H 0.00614 0.87485 0.95555 0.0
H777 H 0.9945 0.78217 0.04657 0.0
H778 H 0.01582 0.8783 0.01153 0.0
H779 H 0.99537 0.77915 0.98667 0.0
C780 C 0.9957 0.80014 0.96055 0.0
C781 C -0.00153 0.82702 0.95139 0.0
C782 C 0.01112 0.85706 0.01906 0.0
C783 C 0.00282 0.82716 0.98973 0.0
C784 C 0.0112 0.85818 0.03807 0.0
C785 C 0.00498 0.83125 0.04844 0.0
C786 C 0.00459 0.82872 0.01008 0.0
C787 C -0.00067 0.80346 0.03907 0.0
C788 C 0.99777 0.80008 0.97976 0.0
C789 C 0.00366 0.85349 0.96192 0.0
N790 N -0.00092 0.80281 0.02035 0.0
N791 N 0.00564 0.85282 0.98041 0.0
H792 H 0.83604 0.45478 0.28982 0.0
H793 H 0.87995 0.56052 0.38107 0.0
H794 H 0.87642 0.55705 0.28757 0.0
H795 H 0.82872 0.45748 0.37841 0.0
H796 H 0.88744 0.56227 0.34748 0.0
H797 H 0.84291 0.45796 0.32279 0.0
C798 C 0.84656 0.47804 0.29634 0.0
C799 C 0.85523 0.50562 0.28604 0.0
C800 C 0.87487 0.53938 0.35437 0.0
C801 C 0.86263 0.50952 0.32409 0.0
C802 C 0.87067 0.53837 0.37347 0.0
C803 C 0.85332 0.5088 0.38244 0.0
C804 C 0.86195 0.51059 0.34443 0.0
C805 C 0.8418 0.48081 0.37204 0.0
C806 C 0.85049 0.47988 0.31522 0.0
C807 C 0.8693 0.53521 0.29513 0.0
N808 N 0.84624 0.48243 0.35368 0.0
N809 N 0.87212 0.53638 0.31378 0.0
H810 H 0.44468 0.33922 0.28798 0.0
H811 H 0.49095 0.27989 0.37938 0.0
H812 H 0.49708 0.28858 0.29057 0.0
H813 H 0.4469 0.33854 0.3814 0.0
H814 H 0.48476 0.27637 0.34637 0.0
H815 H 0.43761 0.33374 0.32158 0.0
C816 C 0.45434 0.32668 0.29557 0.0
C817 C 0.47185 0.31469 0.28655 0.0
C818 C 0.47623 0.28996 0.3539 0.0
C819 C 0.46372 0.30817 0.32462 0.0
C820 C 0.47977 0.29195 0.37281 0.0
C821 C 0.46984 0.3099 0.38308 0.0
C822 C 0.46313 0.30652 0.34496 0.0
C823 C 0.45499 0.32457 0.37389 0.0
C824 C 0.45037 0.32363 0.31468 0.0
C825 C 0.48384 0.29863 0.29695 0.0
N826 N 0.45249 0.32298 0.35523 0.0
N827 N 0.47964 0.29598 0.31534 0.0
H828 H 0.66598 0.116 0.38085 0.0
H829 H 0.63653 0.18951 0.28937 0.0
H830 H 0.64699 0.19428 0.37839 0.0
H831 H 0.66315 0.11655 0.2872 0.0
H832 H 0.63637 0.18726 0.32246 0.0
H833 H 0.66186 0.11195 0.34712 0.0
C834 C 0.66086 0.1322 0.37327 0.0
C835 C 0.65701 0.15564 0.38246 0.0
C836 C 0.64227 0.17162 0.31488 0.0
C837 C 0.65213 0.15104 0.34414 0.0
C838 C 0.64237 0.17292 0.29588 0.0
C839 C 0.65018 0.1534 0.28545 0.0
C840 C 0.65024 0.15079 0.32379 0.0
C841 C 0.65711 0.13209 0.29475 0.0
C842 C 0.65854 0.12989 0.35406 0.0
C843 C 0.65038 0.17598 0.37198 0.0
N844 N 0.65721 0.13147 0.31347 0.0
N845 N 0.6482 0.17319 0.35351 0.0
H846 H 0.54548 0.89991 0.61872 0.0
H847 H 0.5332 0.80787 0.71198 0.0
H848 H 0.52239 0.80171 0.62359 0.0
H849 H 0.53921 0.8999 0.71137 0.0
H850 H 0.54416 0.8125 0.67923 0.0
H851 H 0.55656 0.9068 0.65198 0.0
C852 C 0.5435 0.88011 0.62672 0.0
C853 C 0.53268 0.8501 0.61859 0.0
C854 C 0.54353 0.83199 0.68619 0.0
C855 C 0.54535 0.85772 0.6562 0.0
C856 C 0.53742 0.82936 0.7049 0.0
C857 C 0.53507 0.8534 0.71421 0.0
C858 C 0.54642 0.85848 0.67654 0.0
C859 C 0.54087 0.88089 0.70454 0.0
C860 C 0.54965 0.88398 0.64564 0.0
C861 C 0.53027 0.82511 0.62943 0.0
N862 N 0.54566 0.88244 0.68604 0.0
N863 N 0.53636 0.82944 0.64763 0.0
H864 H 0.10839 0.67088 0.62207 0.0
H865 H 0.14976 0.60583 0.71283 0.0
H866 H 0.15551 0.61506 0.62403 0.0
H867 H 0.11184 0.66981 0.7152 0.0
H868 H 0.14206 0.60173 0.67988 0.0
H869 H 0.10051 0.66448 0.65559 0.0
C870 C 0.1166 0.65693 0.6295 0.0
C871 C 0.13301 0.64383 0.62037 0.0
C872 C 0.13514 0.61657 0.68749 0.0
C873 C 0.12398 0.6363 0.65833 0.0
C874 C 0.13953 0.61887 0.70636 0.0
C875 C 0.13184 0.63853 0.71667 0.0
C876 C 0.12353 0.63457 0.67867 0.0
C877 C 0.11818 0.65449 0.70765 0.0
C878 C 0.1122 0.65337 0.64857 0.0
C879 C 0.1432 0.62599 0.63055 0.0
N880 N 0.11493 0.65261 0.68903 0.0
N881 N 0.13865 0.62291 0.64891 0.0
H882 H 0.30701 0.52628 0.62295 0.0
H883 H 0.33241 0.44914 0.71412 0.0
H884 H 0.3292 0.45017 0.62054 0.0
H885 H 0.31132 0.52603 0.71214 0.0
H886 H 0.32922 0.44605 0.68035 0.0
H887 H 0.30606 0.5233 0.65602 0.0
C888 C 0.31171 0.50883 0.6294 0.0
C889 C 0.31844 0.48861 0.61891 0.0
C890 C 0.3252 0.46345 0.6874 0.0
C891 C 0.31754 0.4851 0.65724 0.0
C892 C 0.32699 0.46521 0.70663 0.0
C893 C 0.32234 0.48803 0.71597 0.0
C894 C 0.31859 0.48458 0.6776 0.0
C895 C 0.31535 0.50822 0.70561 0.0
C896 C 0.31113 0.50711 0.6484 0.0
C897 C 0.32398 0.46627 0.62813 0.0
N898 N 0.31377 0.50603 0.68711 0.0
N899 N 0.32361 0.46522 0.64685 0.0
loop_
_geom_bond_atom_site_label_1
_geom_bond_atom_site_label_2
_geom_bond_distance
_geom_bond_site_symmetry_2
_ccdc_geom_bond_type
O0 Cd1 2.223 . S
O0 C8 1.315 . S
Cd1 O0 2.223 . S
Cd1 O4 2.297 . S
Cd1 O5 2.439 . S
Cd1 O11 2.240 . S
Cd2 O3 2.240 . S
Cd2 O10 2.223 . S
Cd2 O12 2.297 . S
Cd2 O13 2.439 . S
O3 Cd2 2.240 . S
O3 C8 1.279 . S
O4 Cd1 2.297 . S
O4 C6 1.247 . S
O5 Cd1 2.439 . S
O5 C6 1.208 . S
C6 O4 1.247 . S
C6 O5 1.208 . S
C7 O12 1.247 . S
C7 O13 1.208 . S
C8 O0 1.315 . S
C8 O3 1.279 . S
C9 O10 1.315 . S
C9 O11 1.279 . S
O10 Cd2 2.223 . S
O10 C9 1.315 . S
O11 Cd1 2.240 . S
O11 C9 1.279 . S
O12 Cd2 2.297 . S
O12 C7 1.247 . S
O13 Cd2 2.439 . S
O13 C7 1.208 . S
O14 Cd15 2.223 1_545 S
O14 C22 1.315 . S
Cd15 O14 2.223 1_565 S
Cd15 O18 2.297 1_565 S
Cd15 O19 2.439 1_565 S
Cd15 O25 2.240 . S
Cd16 O17 2.240 . S
Cd16 O24 2.223 1_545 S
Cd16 O26 2.297 1_545 S
Cd16 O27 2.439 1_545 S
O17 Cd16 2.240 . S
O17 C22 1.279 . S
O18 Cd15 2.297 1_545 S
O18 C20 1.247 . S
O19 Cd15 2.439 1_545 S
O19 C20 1.208 . S
C20 O18 1.247 . S
C20 O19 1.208 . S
C21 O26 1.247 . S
C21 O27 1.208 . S
C22 O14 1.315 . S
C22 O17 1.279 . S
C23 O24 1.315 . S
C23 O25 1.279 . S
O24 Cd16 2.223 1_565 S
O24 C23 1.315 . S
O25 Cd15 2.240 . S
O25 C23 1.279 . S
O26 Cd16 2.297 1_565 S
O26 C21 1.247 . S
O27 Cd16 2.439 1_565 S
O27 C21 1.208 . S
O28 Cd29 2.223 1_655 S
O28 C36 1.315 . S
Cd29 O28 2.223 1_455 S
Cd29 O32 2.297 1_455 S
Cd29 O33 2.439 1_455 S
Cd29 O39 2.240 . S
Cd30 O31 2.240 . S
Cd30 O38 2.223 1_655 S
Cd30 O40 2.297 1_655 S
Cd30 O41 2.439 1_655 S
O31 Cd30 2.240 . S
O31 C36 1.279 . S
O32 Cd29 2.297 1_655 S
O32 C34 1.247 . S
O33 Cd29 2.439 1_655 S
O33 C34 1.208 . S
C34 O32 1.247 . S
C34 O33 1.208 . S
C35 O40 1.247 . S
C35 O41 1.208 . S
C36 O28 1.315 . S
C36 O31 1.279 . S
C37 O38 1.315 . S
C37 O39 1.279 . S
O38 Cd30 2.223 1_455 S
O38 C37 1.315 . S
O39 Cd29 2.240 . S
O39 C37 1.279 . S
O40 Cd30 2.297 1_455 S
O40 C35 1.247 . S
O41 Cd30 2.439 1_455 S
O41 C35 1.208 . S
O42 Cd43 2.223 . S
O42 C50 1.315 . S
Cd43 O42 2.223 . S
Cd43 O46 2.297 . S
Cd43 O47 2.439 . S
Cd43 O53 2.240 . S
Cd44 O45 2.240 . S
Cd44 O52 2.223 . S
Cd44 O54 2.297 . S
Cd44 O55 2.439 . S
O45 Cd44 2.240 . S
O45 C50 1.279 . S
O46 Cd43 2.297 . S
O46 C48 1.247 . S
O47 Cd43 2.439 . S
O47 C48 1.208 . S
C48 O46 1.247 . S
C48 O47 1.208 . S
C49 O54 1.247 . S
C49 O55 1.208 . S
C50 O42 1.315 . S
C50 O45 1.279 . S
C51 O52 1.315 . S
C51 O53 1.279 . S
O52 Cd44 2.223 . S
O52 C51 1.315 . S
O53 Cd43 2.240 . S
O53 C51 1.279 . S
O54 Cd44 2.297 . S
O54 C49 1.247 . S
O55 Cd44 2.439 . S
O55 C49 1.208 . S
O56 Cd57 2.223 1_565 S
O56 C64 1.315 . S
Cd57 O56 2.223 1_545 S
Cd57 O60 2.297 1_545 S
Cd57 O61 2.439 1_545 S
Cd57 O67 2.240 . S
Cd58 O59 2.240 . S
Cd58 O66 2.223 1_565 S
Cd58 O68 2.297 1_565 S
Cd58 O69 2.439 1_565 S
O59 Cd58 2.240 . S
O59 C64 1.279 . S
O60 Cd57 2.297 1_565 S
O60 C62 1.247 . S
O61 Cd57 2.439 1_565 S
O61 C62 1.208 . S
C62 O60 1.247 . S
C62 O61 1.208 . S
C63 O68 1.247 . S
C63 O69 1.208 . S
C64 O56 1.315 . S
C64 O59 1.279 . S
C65 O66 1.315 . S
C65 O67 1.279 . S
O66 Cd58 2.223 1_545 S
O66 C65 1.315 . S
O67 Cd57 2.240 . S
O67 C65 1.279 . S
O68 Cd58 2.297 1_545 S
O68 C63 1.247 . S
O69 Cd58 2.439 1_545 S
O69 C63 1.208 . S
O70 Cd71 2.223 1_455 S
O70 C78 1.315 . S
Cd71 O70 2.223 1_655 S
Cd71 O74 2.297 1_655 S
Cd71 O75 2.439 1_655 S
Cd71 O81 2.240 . S
Cd72 O73 2.240 . S
Cd72 O80 2.223 1_455 S
Cd72 O82 2.297 1_455 S
Cd72 O83 2.439 1_455 S
O73 Cd72 2.240 . S
O73 C78 1.279 . S
O74 Cd71 2.297 1_455 S
O74 C76 1.247 . S
O75 Cd71 2.439 1_455 S
O75 C76 1.208 . S
C76 O74 1.247 . S
C76 O75 1.208 . S
C77 O82 1.247 . S
C77 O83 1.208 . S
C78 O70 1.315 . S
C78 O73 1.279 . S
C79 O80 1.315 . S
C79 O81 1.279 . S
O80 Cd72 2.223 1_655 S
O80 C79 1.315 . S
O81 Cd71 2.240 . S
O81 C79 1.279 . S
O82 Cd72 2.297 1_655 S
O82 C77 1.247 . S
O83 Cd72 2.439 1_655 S
O83 C77 1.208 . S
O84 Cd85 2.223 . S
O84 C92 1.315 . S
Cd85 O84 2.223 . S
Cd85 O88 2.297 . S
Cd85 O89 2.439 . S
Cd85 O95 2.240 . S
Cd86 O87 2.240 . S
Cd86 O94 2.223 . S
Cd86 O96 2.297 . S
Cd86 O97 2.439 . S
O87 Cd86 2.240 . S
O87 C92 1.279 . S
O88 Cd85 2.297 . S
O88 C90 1.247 . S
O89 Cd85 2.439 . S
O89 C90 1.208 . S
C90 O88 1.247 . S
C90 O89 1.208 . S
C91 O96 1.247 . S
C91 O97 1.208 . S
C92 O84 1.315 . S
C92 O87 1.279 . S
C93 O94 1.315 . S
C93 O95 1.279 . S
O94 Cd86 2.223 . S
O94 C93 1.315 . S
O95 Cd85 2.240 . S
O95 C93 1.279 . S
O96 Cd86 2.297 . S
O96 C91 1.247 . S
O97 Cd86 2.439 . S
O97 C91 1.208 . S
O98 Cd99 2.223 . S
O98 C106 1.315 . S
Cd99 O98 2.223 . S
Cd99 O102 2.297 . S
Cd99 O103 2.439 . S
Cd99 O109 2.240 . S
Cd100 O101 2.240 . S
Cd100 O108 2.223 . S
Cd100 O110 2.297 . S
Cd100 O111 2.439 . S
O101 Cd100 2.240 . S
O101 C106 1.279 . S
O102 Cd99 2.297 . S
O102 C104 1.247 . S
O103 Cd99 2.439 . S
O103 C104 1.208 . S
C104 O102 1.247 . S
C104 O103 1.208 . S
C105 O110 1.247 . S
C105 O111 1.208 . S
C106 O98 1.315 . S
C106 O101 1.279 . S
C107 O108 1.315 . S
C107 O109 1.279 . S
O108 Cd100 2.223 . S
O108 C107 1.315 . S
O109 Cd99 2.240 . S
O109 C107 1.279 . S
O110 Cd100 2.297 . S
O110 C105 1.247 . S
O111 Cd100 2.439 . S
O111 C105 1.208 . S
O112 Cd113 2.223 . S
O112 C120 1.315 . S
Cd113 O112 2.223 . S
Cd113 O116 2.297 . S
Cd113 O117 2.439 . S
Cd113 O123 2.240 . S
Cd114 O115 2.240 . S
Cd114 O122 2.223 . S
Cd114 O124 2.297 . S
Cd114 O125 2.439 . S
O115 Cd114 2.240 . S
O115 C120 1.279 . S
O116 Cd113 2.297 . S
O116 C118 1.247 . S
O117 Cd113 2.439 . S
O117 C118 1.208 . S
C118 O116 1.247 . S
C118 O117 1.208 . S
C119 O124 1.247 . S
C119 O125 1.208 . S
C120 O112 1.315 . S
C120 O115 1.279 . S
C121 O122 1.315 . S
C121 O123 1.279 . S
O122 Cd114 2.223 . S
O122 C121 1.315 . S
O123 Cd113 2.240 . S
O123 C121 1.279 . S
O124 Cd114 2.297 . S
O124 C119 1.247 . S
O125 Cd114 2.439 . S
O125 C119 1.208 . S
O126 Cd127 2.223 . S
O126 C134 1.315 . S
Cd127 O126 2.223 . S
Cd127 O130 2.297 . S
Cd127 O131 2.439 . S
Cd127 O137 2.240 . S
Cd128 O129 2.240 . S
Cd128 O136 2.223 . S
Cd128 O138 2.297 . S
Cd128 O139 2.439 . S
O129 Cd128 2.240 . S
O129 C134 1.279 . S
O130 Cd127 2.297 . S
O130 C132 1.247 . S
O131 Cd127 2.439 . S
O131 C132 1.208 . S
C132 O130 1.247 . S
C132 O131 1.208 . S
C133 O138 1.247 . S
C133 O139 1.208 . S
C134 O126 1.315 . S
C134 O129 1.279 . S
C135 O136 1.315 . S
C135 O137 1.279 . S
O136 Cd128 2.223 . S
O136 C135 1.315 . S
O137 Cd127 2.240 . S
O137 C135 1.279 . S
O138 Cd128 2.297 . S
O138 C133 1.247 . S
O139 Cd128 2.439 . S
O139 C133 1.208 . S
O140 Cd141 2.223 . S
O140 C148 1.315 . S
Cd141 O140 2.223 . S
Cd141 O144 2.297 . S
Cd141 O145 2.439 . S
Cd141 O151 2.240 . S
Cd142 O143 2.240 . S
Cd142 O150 2.223 . S
Cd142 O152 2.297 . S
Cd142 O153 2.439 . S
O143 Cd142 2.240 . S
O143 C148 1.279 . S
O144 Cd141 2.297 . S
O144 C146 1.247 . S
O145 Cd141 2.439 . S
O145 C146 1.208 . S
C146 O144 1.247 . S
C146 O145 1.208 . S
C147 O152 1.247 . S
C147 O153 1.208 . S
C148 O140 1.315 . S
C148 O143 1.279 . S
C149 O150 1.315 . S
C149 O151 1.279 . S
O150 Cd142 2.223 . S
O150 C149 1.315 . S
O151 Cd141 2.240 . S
O151 C149 1.279 . S
O152 Cd142 2.297 . S
O152 C147 1.247 . S
O153 Cd142 2.439 . S
O153 C147 1.208 . S
O154 Cd155 2.223 . S
O154 C162 1.315 . S
Cd155 O154 2.223 . S
Cd155 O158 2.297 . S
Cd155 O159 2.439 . S
Cd155 O165 2.240 . S
Cd156 O157 2.240 . S
Cd156 O164 2.223 . S
Cd156 O166 2.297 . S
Cd156 O167 2.439 . S
O157 Cd156 2.240 . S
O157 C162 1.279 . S
O158 Cd155 2.297 . S
O158 C160 1.247 . S
O159 Cd155 2.439 . S
O159 C160 1.208 . S
C160 O158 1.247 . S
C160 O159 1.208 . S
C161 O166 1.247 . S
C161 O167 1.208 . S
C162 O154 1.315 . S
C162 O157 1.279 . S
C163 O164 1.315 . S
C163 O165 1.279 . S
O164 Cd156 2.223 . S
O164 C163 1.315 . S
O165 Cd155 2.240 . S
O165 C163 1.279 . S
O166 Cd156 2.297 . S
O166 C161 1.247 . S
O167 Cd156 2.439 . S
O167 C161 1.208 . S
O168 Cd169 2.223 . S
O168 C176 1.315 . S
Cd169 O168 2.223 . S
Cd169 O172 2.297 . S
Cd169 O173 2.439 . S
Cd169 O179 2.240 . S
Cd170 O171 2.240 . S
Cd170 O178 2.223 . S
Cd170 O180 2.297 . S
Cd170 O181 2.439 . S
O171 Cd170 2.240 . S
O171 C176 1.279 . S
O172 Cd169 2.297 . S
O172 C174 1.247 . S
O173 Cd169 2.439 . S
O173 C174 1.208 . S
C174 O172 1.247 . S
C174 O173 1.208 . S
C175 O180 1.247 . S
C175 O181 1.208 . S
C176 O168 1.315 . S
C176 O171 1.279 . S
C177 O178 1.315 . S
C177 O179 1.279 . S
O178 Cd170 2.223 . S
O178 C177 1.315 . S
O179 Cd169 2.240 . S
O179 C177 1.279 . S
O180 Cd170 2.297 . S
O180 C175 1.247 . S
O181 Cd170 2.439 . S
O181 C175 1.208 . S
O182 Cd183 2.223 . S
O182 C190 1.315 . S
Cd183 O182 2.223 . S
Cd183 O186 2.297 . S
Cd183 O187 2.439 . S
Cd183 O193 2.240 . S
Cd184 O185 2.240 . S
Cd184 O192 2.223 . S
Cd184 O194 2.297 . S
Cd184 O195 2.439 . S
O185 Cd184 2.240 . S
O185 C190 1.279 . S
O186 Cd183 2.297 . S
O186 C188 1.247 . S
O187 Cd183 2.439 . S
O187 C188 1.208 . S
C188 O186 1.247 . S
C188 O187 1.208 . S
C189 O194 1.247 . S
C189 O195 1.208 . S
C190 O182 1.315 . S
C190 O185 1.279 . S
C191 O192 1.315 . S
C191 O193 1.279 . S
O192 Cd184 2.223 . S
O192 C191 1.315 . S
O193 Cd183 2.240 . S
O193 C191 1.279 . S
O194 Cd184 2.297 . S
O194 C189 1.247 . S
O195 Cd184 2.439 . S
O195 C189 1.208 . S
O196 Cd197 2.223 . S
O196 C204 1.315 . S
Cd197 O196 2.223 . S
Cd197 O200 2.297 . S
Cd197 O201 2.439 . S
Cd197 O207 2.240 . S
Cd198 O199 2.240 . S
Cd198 O206 2.223 . S
Cd198 O208 2.297 . S
Cd198 O209 2.439 . S
O199 Cd198 2.240 . S
O199 C204 1.279 . S
O200 Cd197 2.297 . S
O200 C202 1.247 . S
O201 Cd197 2.439 . S
O201 C202 1.208 . S
C202 O200 1.247 . S
C202 O201 1.208 . S
C203 O208 1.247 . S
C203 O209 1.208 . S
C204 O196 1.315 . S
C204 O199 1.279 . S
C205 O206 1.315 . S
C205 O207 1.279 . S
O206 Cd198 2.223 . S
O206 C205 1.315 . S
O207 Cd197 2.240 . S
O207 C205 1.279 . S
O208 Cd198 2.297 . S
O208 C203 1.247 . S
O209 Cd198 2.439 . S
O209 C203 1.208 . S
O210 Cd211 2.223 . S
O210 C218 1.315 . S
Cd211 O210 2.223 . S
Cd211 O214 2.297 . S
Cd211 O215 2.439 . S
Cd211 O221 2.240 . S
Cd212 O213 2.240 . S
Cd212 O220 2.223 . S
Cd212 O222 2.297 . S
Cd212 O223 2.439 . S
O213 Cd212 2.240 . S
O213 C218 1.279 . S
O214 Cd211 2.297 . S
O214 C216 1.247 . S
O215 Cd211 2.439 . S
O215 C216 1.208 . S
C216 O214 1.247 . S
C216 O215 1.208 . S
C217 O222 1.247 . S
C217 O223 1.208 . S
C218 O210 1.315 . S
C218 O213 1.279 . S
C219 O220 1.315 . S
C219 O221 1.279 . S
O220 Cd212 2.223 . S
O220 C219 1.315 . S
O221 Cd211 2.240 . S
O221 C219 1.279 . S
O222 Cd212 2.297 . S
O222 C217 1.247 . S
O223 Cd212 2.439 . S
O223 C217 1.208 . S
O224 Cd225 2.223 . S
O224 C232 1.315 . S
Cd225 O224 2.223 . S
Cd225 O228 2.297 . S
Cd225 O229 2.439 . S
Cd225 O235 2.240 . S
Cd226 O227 2.240 . S
Cd226 O234 2.223 . S
Cd226 O236 2.297 . S
Cd226 O237 2.439 . S
O227 Cd226 2.240 . S
O227 C232 1.279 . S
O228 Cd225 2.297 . S
O228 C230 1.247 . S
O229 Cd225 2.439 . S
O229 C230 1.208 . S
C230 O228 1.247 . S
C230 O229 1.208 . S
C231 O236 1.247 . S
C231 O237 1.208 . S
C232 O224 1.315 . S
C232 O227 1.279 . S
C233 O234 1.315 . S
C233 O235 1.279 . S
O234 Cd226 2.223 . S
O234 C233 1.315 . S
O235 Cd225 2.240 . S
O235 C233 1.279 . S
O236 Cd226 2.297 . S
O236 C231 1.247 . S
O237 Cd226 2.439 . S
O237 C231 1.208 . S
O238 Cd239 2.223 . S
O238 C246 1.315 . S
Cd239 O238 2.223 . S
Cd239 O242 2.297 . S
Cd239 O243 2.439 . S
Cd239 O249 2.240 . S
Cd240 O241 2.240 . S
Cd240 O248 2.223 . S
Cd240 O250 2.297 . S
Cd240 O251 2.439 . S
O241 Cd240 2.240 . S
O241 C246 1.279 . S
O242 Cd239 2.297 . S
O242 C244 1.247 . S
O243 Cd239 2.439 . S
O243 C244 1.208 . S
C244 O242 1.247 . S
C244 O243 1.208 . S
C245 O250 1.247 . S
C245 O251 1.208 . S
C246 O238 1.315 . S
C246 O241 1.279 . S
C247 O248 1.315 . S
C247 O249 1.279 . S
O248 Cd240 2.223 . S
O248 C247 1.315 . S
O249 Cd239 2.240 . S
O249 C247 1.279 . S
O250 Cd240 2.297 . S
O250 C245 1.247 . S
O251 Cd240 2.439 . S
O251 C245 1.208 . S
H252 C258 0.930 . S
H253 C262 0.930 . S
H254 C267 0.929 . S
H255 C265 0.929 . S
H256 C260 0.929 . S
H257 C266 0.929 . S
C258 H252 0.930 . S
C258 C259 1.367 . S
C258 C266 1.378 . S
C259 C258 1.367 . S
C259 C267 1.433 . S
C260 H256 0.929 . S
C260 C262 1.378 . S
C260 C264 1.350 . S
C261 C264 1.463 . S
C261 C266 1.350 . S
C261 N269 1.427 . S
C262 H253 0.930 . S
C262 C260 1.378 . S
C262 C263 1.367 . S
C263 C262 1.367 . S
C263 C265 1.433 . S
C264 C260 1.350 . S
C264 C261 1.463 . S
C264 N268 1.427 . S
C265 H255 0.929 . S
C265 C263 1.433 . S
C265 N268 1.384 . S
C266 H257 0.929 . S
C266 C258 1.378 . S
C266 C261 1.350 . S
C267 H254 0.929 . S
C267 C259 1.433 . S
C267 N269 1.384 . S
N268 C264 1.427 . S
N268 C265 1.384 . S
N269 C261 1.427 . S
N269 C267 1.384 . S
H270 C276 0.930 . S
H271 C280 0.930 . S
H272 C285 0.929 . S
H273 C283 0.929 . S
H274 C278 0.929 . S
H275 C284 0.929 . S
C276 H270 0.930 . S
C276 C277 1.367 . S
C276 C284 1.378 . S
C277 C276 1.367 . S
C277 C285 1.433 . S
C278 H274 0.929 . S
C278 C280 1.378 . S
C278 C282 1.350 . S
C279 C282 1.463 . S
C279 C284 1.350 . S
C279 N287 1.427 . S
C280 H271 0.930 . S
C280 C278 1.378 . S
C280 C281 1.367 . S
C281 C280 1.367 . S
C281 C283 1.433 . S
C282 C278 1.350 . S
C282 C279 1.463 . S
C282 N286 1.427 . S
C283 H273 0.929 . S
C283 C281 1.433 . S
C283 N286 1.384 . S
C284 H275 0.929 . S
C284 C276 1.378 . S
C284 C279 1.350 . S
C285 H272 0.929 . S
C285 C277 1.433 . S
C285 N287 1.384 . S
N286 C282 1.427 . S
N286 C283 1.384 . S
N287 C279 1.427 . S
N287 C285 1.384 . S
H288 C294 0.930 . S
H289 C298 0.930 . S
H290 C303 0.929 . S
H291 C301 0.929 . S
H292 C296 0.929 . S
H293 C302 0.929 . S
C294 H288 0.930 . S
C294 C295 1.367 . S
C294 C302 1.378 . S
C295 C294 1.367 . S
C295 C303 1.433 . S
C296 H292 0.929 . S
C296 C298 1.378 . S
C296 C300 1.350 . S
C297 C300 1.463 . S
C297 C302 1.350 . S
C297 N305 1.427 . S
C298 H289 0.930 . S
C298 C296 1.378 . S
C298 C299 1.367 . S
C299 C298 1.367 . S
C299 C301 1.433 . S
C300 C296 1.350 . S
C300 C297 1.463 . S
C300 N304 1.427 . S
C301 H291 0.929 . S
C301 C299 1.433 . S
C301 N304 1.384 . S
C302 H293 0.929 . S
C302 C294 1.378 . S
C302 C297 1.350 . S
C303 H290 0.929 . S
C303 C295 1.433 . S
C303 N305 1.384 . S
N304 C300 1.427 . S
N304 C301 1.384 . S
N305 C297 1.427 . S
N305 C303 1.384 . S
H306 C312 0.930 . S
H307 C316 0.930 . S
H308 C321 0.929 . S
H309 C319 0.929 . S
H310 C314 0.929 . S
H311 C320 0.929 . S
C312 H306 0.930 . S
C312 C313 1.367 . S
C312 C320 1.378 . S
C313 C312 1.367 . S
C313 C321 1.433 . S
C314 H310 0.929 . S
C314 C316 1.378 . S
C314 C318 1.350 . S
C315 C318 1.463 . S
C315 C320 1.350 . S
C315 N323 1.427 . S
C316 H307 0.930 . S
C316 C314 1.378 . S
C316 C317 1.367 . S
C317 C316 1.367 . S
C317 C319 1.433 . S
C318 C314 1.350 . S
C318 C315 1.463 . S
C318 N322 1.427 . S
C319 H309 0.929 . S
C319 C317 1.433 . S
C319 N322 1.384 . S
C320 H311 0.929 . S
C320 C312 1.378 . S
C320 C315 1.350 . S
C321 H308 0.929 . S
C321 C313 1.433 . S
C321 N323 1.384 . S
N322 C318 1.427 . S
N322 C319 1.384 . S
N323 C315 1.427 . S
N323 C321 1.384 . S
H324 C330 0.930 . S
H325 C334 0.930 . S
H326 C339 0.929 . S
H327 C337 0.929 . S
H328 C332 0.929 . S
H329 C338 0.929 . S
C330 H324 0.930 . S
C330 C331 1.367 . S
C330 C338 1.378 . S
C331 C330 1.367 . S
C331 C339 1.433 . S
C332 H328 0.929 . S
C332 C334 1.378 . S
C332 C336 1.350 . S
C333 C336 1.463 . S
C333 C338 1.350 . S
C333 N341 1.427 . S
C334 H325 0.930 . S
C334 C332 1.378 . S
C334 C335 1.367 . S
C335 C334 1.367 . S
C335 C337 1.433 . S
C336 C332 1.350 . S
C336 C333 1.463 . S
C336 N340 1.427 . S
C337 H327 0.929 . S
C337 C335 1.433 . S
C337 N340 1.384 . S
C338 H329 0.929 . S
C338 C330 1.378 . S
C338 C333 1.350 . S
C339 H326 0.929 . S
C339 C331 1.433 . S
C339 N341 1.384 . S
N340 C336 1.427 . S
N340 C337 1.384 . S
N341 C333 1.427 . S
N341 C339 1.384 . S
H342 C348 0.930 . S
H343 C352 0.930 . S
H344 C357 0.929 . S
H345 C355 0.929 . S
H346 C350 0.929 . S
H347 C356 0.929 . S
C348 H342 0.930 . S
C348 C349 1.367 . S
C348 C356 1.378 . S
C349 C348 1.367 . S
C349 C357 1.433 . S
C350 H346 0.929 . S
C350 C352 1.378 . S
C350 C354 1.350 . S
C351 C354 1.463 . S
C351 C356 1.350 . S
C351 N359 1.427 . S
C352 H343 0.930 . S
C352 C350 1.378 . S
C352 C353 1.367 . S
C353 C352 1.367 . S
C353 C355 1.433 . S
C354 C350 1.350 . S
C354 C351 1.463 . S
C354 N358 1.427 . S
C355 H345 0.929 . S
C355 C353 1.433 . S
C355 N358 1.384 . S
C356 H347 0.929 . S
C356 C348 1.378 . S
C356 C351 1.350 . S
C357 H344 0.929 . S
C357 C349 1.433 . S
C357 N359 1.384 . S
N358 C354 1.427 . S
N358 C355 1.384 . S
N359 C351 1.427 . S
N359 C357 1.384 . S
H360 C366 0.930 . S
H361 C370 0.930 . S
H362 C375 0.929 . S
H363 C373 0.929 . S
H364 C368 0.929 . S
H365 C374 0.929 . S
C366 H360 0.930 . S
C366 C367 1.367 . S
C366 C374 1.378 . S
C367 C366 1.367 . S
C367 C375 1.433 . S
C368 H364 0.929 . S
C368 C370 1.378 . S
C368 C372 1.350 . S
C369 C372 1.463 1_655 S
C369 C374 1.350 . S
C369 N377 1.427 . S
C370 H361 0.930 . S
C370 C368 1.378 . S
C370 C371 1.367 . S
C371 C370 1.367 . S
C371 C373 1.433 . S
C372 C368 1.350 . S
C372 C369 1.463 1_455 S
C372 N376 1.427 . S
C373 H363 0.929 . S
C373 C371 1.433 . S
C373 N376 1.384 . S
C374 H365 0.929 . S
C374 C366 1.378 . S
C374 C369 1.350 . S
C375 H362 0.929 . S
C375 C367 1.433 . S
C375 N377 1.384 . S
N376 C372 1.427 . S
N376 C373 1.384 . S
N377 C369 1.427 . S
N377 C375 1.384 . S
H378 C384 0.930 . S
H379 C388 0.930 . S
H380 C393 0.929 . S
H381 C391 0.929 . S
H382 C386 0.929 . S
H383 C392 0.929 . S
C384 H378 0.930 . S
C384 C385 1.367 . S
C384 C392 1.378 . S
C385 C384 1.367 . S
C385 C393 1.433 . S
C386 H382 0.929 . S
C386 C388 1.378 . S
C386 C390 1.350 . S
C387 C390 1.463 . S
C387 C392 1.350 . S
C387 N395 1.427 . S
C388 H379 0.930 . S
C388 C386 1.378 . S
C388 C389 1.367 . S
C389 C388 1.367 . S
C389 C391 1.433 . S
C390 C386 1.350 . S
C390 C387 1.463 . S
C390 N394 1.427 . S
C391 H381 0.929 . S
C391 C389 1.433 . S
C391 N394 1.384 . S
C392 H383 0.929 . S
C392 C384 1.378 . S
C392 C387 1.350 . S
C393 H380 0.929 . S
C393 C385 1.433 . S
C393 N395 1.384 . S
N394 C390 1.427 . S
N394 C391 1.384 . S
N395 C387 1.427 . S
N395 C393 1.384 . S
H396 C402 0.930 . S
H397 C406 0.930 . S
H398 C411 0.929 . S
H399 C409 0.929 . S
H400 C404 0.929 . S
H401 C410 0.929 . S
C402 H396 0.930 . S
C402 C403 1.367 . S
C402 C410 1.378 . S
C403 C402 1.367 . S
C403 C411 1.433 . S
C404 H400 0.929 . S
C404 C406 1.378 . S
C404 C408 1.350 . S
C405 C408 1.463 1_545 S
C405 C410 1.350 . S
C405 N413 1.427 . S
C406 H397 0.930 . S
C406 C404 1.378 . S
C406 C407 1.367 . S
C407 C406 1.367 . S
C407 C409 1.433 . S
C408 C404 1.350 . S
C408 C405 1.463 1_565 S
C408 N412 1.427 . S
C409 H399 0.929 . S
C409 C407 1.433 . S
C409 N412 1.384 . S
C410 H401 0.929 . S
C410 C402 1.378 . S
C410 C405 1.350 . S
C411 H398 0.929 . S
C411 C403 1.433 . S
C411 N413 1.384 . S
N412 C408 1.427 . S
N412 C409 1.384 . S
N413 C405 1.427 . S
N413 C411 1.384 . S
H414 C420 0.930 . S
H415 C424 0.930 . S
H416 C429 0.929 . S
H417 C427 0.929 . S
H418 C422 0.929 . S
H419 C428 0.929 . S
C420 H414 0.930 . S
C420 C421 1.367 . S
C420 C428 1.378 . S
C421 C420 1.367 . S
C421 C429 1.433 . S
C422 H418 0.929 . S
C422 C424 1.378 . S
C422 C426 1.350 . S
C423 C426 1.463 1_455 S
C423 C428 1.350 . S
C423 N431 1.427 . S
C424 H415 0.930 . S
C424 C422 1.378 . S
C424 C425 1.367 . S
C425 C424 1.367 . S
C425 C427 1.433 . S
C426 C422 1.350 . S
C426 C423 1.463 1_655 S
C426 N430 1.427 . S
C427 H417 0.929 . S
C427 C425 1.433 . S
C427 N430 1.384 . S
C428 H419 0.929 . S
C428 C420 1.378 . S
C428 C423 1.350 . S
C429 H416 0.929 . S
C429 C421 1.433 . S
C429 N431 1.384 . S
N430 C426 1.427 . S
N430 C427 1.384 . S
N431 C423 1.427 . S
N431 C429 1.384 . S
H432 C438 0.930 . S
H433 C442 0.930 . S
H434 C447 0.929 . S
H435 C445 0.929 . S
H436 C440 0.929 . S
H437 C446 0.929 . S
C438 H432 0.930 . S
C438 C439 1.367 . S
C438 C446 1.378 . S
C439 C438 1.367 . S
C439 C447 1.433 . S
C440 H436 0.929 . S
C440 C442 1.378 . S
C440 C444 1.350 . S
C441 C444 1.463 . S
C441 C446 1.350 . S
C441 N449 1.427 . S
C442 H433 0.930 . S
C442 C440 1.378 . S
C442 C443 1.367 . S
C443 C442 1.367 . S
C443 C445 1.433 . S
C444 C440 1.350 . S
C444 C441 1.463 . S
C444 N448 1.427 . S
C445 H435 0.929 . S
C445 C443 1.433 . S
C445 N448 1.384 . S
C446 H437 0.929 . S
C446 C438 1.378 . S
C446 C441 1.350 . S
C447 H434 0.929 . S
C447 C439 1.433 . S
C447 N449 1.384 . S
N448 C444 1.427 . S
N448 C445 1.384 . S
N449 C441 1.427 . S
N449 C447 1.384 . S
H450 C456 0.930 . S
H451 C460 0.930 . S
H452 C465 0.929 . S
H453 C463 0.929 . S
H454 C458 0.929 . S
H455 C464 0.929 . S
C456 H450 0.930 . S
C456 C457 1.367 . S
C456 C464 1.378 . S
C457 C456 1.367 . S
C457 C465 1.433 . S
C458 H454 0.929 . S
C458 C460 1.378 . S
C458 C462 1.350 . S
C459 C462 1.463 1_545 S
C459 C464 1.350 . S
C459 N467 1.427 . S
C460 H451 0.930 . S
C460 C458 1.378 . S
C460 C461 1.367 . S
C461 C460 1.367 . S
C461 C463 1.433 . S
C462 C458 1.350 . S
C462 C459 1.463 1_565 S
C462 N466 1.427 . S
C463 H453 0.929 . S
C463 C461 1.433 . S
C463 N466 1.384 . S
C464 H455 0.929 . S
C464 C456 1.378 . S
C464 C459 1.350 . S
C465 H452 0.929 . S
C465 C457 1.433 . S
C465 N467 1.384 . S
N466 C462 1.427 . S
N466 C463 1.384 . S
N467 C459 1.427 . S
N467 C465 1.384 . S
H468 C474 0.930 . S
H469 C478 0.930 . S
H470 C483 0.929 . S
H471 C481 0.929 . S
H472 C476 0.929 . S
H473 C482 0.929 . S
C474 H468 0.930 . S
C474 C475 1.367 . S
C474 C482 1.378 . S
C475 C474 1.367 . S
C475 C483 1.433 . S
C476 H472 0.929 . S
C476 C478 1.378 . S
C476 C480 1.350 . S
C477 C480 1.463 1_565 S
C477 C482 1.350 . S
C477 N485 1.427 . S
C478 H469 0.930 . S
C478 C476 1.378 . S
C478 C479 1.367 . S
C479 C478 1.367 . S
C479 C481 1.433 . S
C480 C476 1.350 . S
C480 C477 1.463 1_545 S
C480 N484 1.427 . S
C481 H471 0.929 . S
C481 C479 1.433 . S
C481 N484 1.384 . S
C482 H473 0.929 . S
C482 C474 1.378 . S
C482 C477 1.350 . S
C483 H470 0.929 . S
C483 C475 1.433 . S
C483 N485 1.384 . S
N484 C480 1.427 . S
N484 C481 1.384 . S
N485 C477 1.427 . S
N485 C483 1.384 . S
H486 C492 0.930 . S
H487 C496 0.930 . S
H488 C501 0.929 . S
H489 C499 0.929 . S
H490 C494 0.929 . S
H491 C500 0.929 . S
C492 H486 0.930 . S
C492 C493 1.367 . S
C492 C500 1.378 . S
C493 C492 1.367 . S
C493 C501 1.433 . S
C494 H490 0.929 . S
C494 C496 1.378 . S
C494 C498 1.350 . S
C495 C498 1.463 1_455 S
C495 C500 1.350 . S
C495 N503 1.427 . S
C496 H487 0.930 . S
C496 C494 1.378 . S
C496 C497 1.367 . S
C497 C496 1.367 . S
C497 C499 1.433 . S
C498 C494 1.350 . S
C498 C495 1.463 1_655 S
C498 N502 1.427 . S
C499 H489 0.929 . S
C499 C497 1.433 . S
C499 N502 1.384 . S
C500 H491 0.929 . S
C500 C492 1.378 . S
C500 C495 1.350 . S
C501 H488 0.929 . S
C501 C493 1.433 . S
C501 N503 1.384 . S
N502 C498 1.427 . S
N502 C499 1.384 . S
N503 C495 1.427 . S
N503 C501 1.384 . S
H504 C510 0.930 . S
H505 C514 0.930 . S
H506 C519 0.929 . S
H507 C517 0.929 . S
H508 C512 0.929 . S
H509 C518 0.929 . S
C510 H504 0.930 . S
C510 C511 1.367 . S
C510 C518 1.378 . S
C511 C510 1.367 . S
C511 C519 1.433 . S
C512 H508 0.929 . S
C512 C514 1.378 . S
C512 C516 1.350 . S
C513 C516 1.463 . S
C513 C518 1.350 . S
C513 N521 1.427 . S
C514 H505 0.930 . S
C514 C512 1.378 . S
C514 C515 1.367 . S
C515 C514 1.367 . S
C515 C517 1.433 . S
C516 C512 1.350 . S
C516 C513 1.463 . S
C516 N520 1.427 . S
C517 H507 0.929 . S
C517 C515 1.433 . S
C517 N520 1.384 . S
C518 H509 0.929 . S
C518 C510 1.378 . S
C518 C513 1.350 . S
C519 H506 0.929 . S
C519 C511 1.433 . S
C519 N521 1.384 . S
N520 C516 1.427 . S
N520 C517 1.384 . S
N521 C513 1.427 . S
N521 C519 1.384 . S
H522 C528 0.930 . S
H523 C532 0.930 . S
H524 C537 0.929 . S
H525 C535 0.929 . S
H526 C530 0.929 . S
H527 C536 0.929 . S
C528 H522 0.930 . S
C528 C529 1.367 . S
C528 C536 1.378 . S
C529 C528 1.367 . S
C529 C537 1.433 . S
C530 H526 0.929 . S
C530 C532 1.378 . S
C530 C534 1.350 . S
C531 C534 1.463 . S
C531 C536 1.350 . S
C531 N539 1.427 . S
C532 H523 0.930 . S
C532 C530 1.378 . S
C532 C533 1.367 . S
C533 C532 1.367 . S
C533 C535 1.433 . S
C534 C530 1.350 . S
C534 C531 1.463 . S
C534 N538 1.427 . S
C535 H525 0.929 . S
C535 C533 1.433 . S
C535 N538 1.384 . S
C536 H527 0.929 . S
C536 C528 1.378 . S
C536 C531 1.350 . S
C537 H524 0.929 . S
C537 C529 1.433 . S
C537 N539 1.384 . S
N538 C534 1.427 . S
N538 C535 1.384 . S
N539 C531 1.427 . S
N539 C537 1.384 . S
H540 C546 0.930 . S
H541 C550 0.930 . S
H542 C555 0.929 . S
H543 C553 0.929 . S
H544 C548 0.929 . S
H545 C554 0.929 . S
C546 H540 0.930 . S
C546 C547 1.367 . S
C546 C554 1.378 . S
C547 C546 1.367 . S
C547 C555 1.433 . S
C548 H544 0.929 . S
C548 C550 1.378 . S
C548 C552 1.350 . S
C549 C552 1.463 . S
C549 C554 1.350 . S
C549 N557 1.427 . S
C550 H541 0.930 . S
C550 C548 1.378 . S
C550 C551 1.367 . S
C551 C550 1.367 . S
C551 C553 1.433 . S
C552 C548 1.350 . S
C552 C549 1.463 . S
C552 N556 1.427 . S
C553 H543 0.929 . S
C553 C551 1.433 . S
C553 N556 1.384 . S
C554 H545 0.929 . S
C554 C546 1.378 . S
C554 C549 1.350 . S
C555 H542 0.929 . S
C555 C547 1.433 . S
C555 N557 1.384 . S
N556 C552 1.427 . S
N556 C553 1.384 . S
N557 C549 1.427 . S
N557 C555 1.384 . S
H558 C564 0.930 . S
H559 C568 0.930 . S
H560 C573 0.929 . S
H561 C571 0.929 . S
H562 C566 0.929 . S
H563 C572 0.929 . S
C564 H558 0.930 . S
C564 C565 1.367 . S
C564 C572 1.378 . S
C565 C564 1.367 . S
C565 C573 1.433 . S
C566 H562 0.929 . S
C566 C568 1.378 . S
C566 C570 1.350 . S
C567 C570 1.463 . S
C567 C572 1.350 . S
C567 N575 1.427 . S
C568 H559 0.930 . S
C568 C566 1.378 . S
C568 C569 1.367 . S
C569 C568 1.367 . S
C569 C571 1.433 . S
C570 C566 1.350 . S
C570 C567 1.463 . S
C570 N574 1.427 . S
C571 H561 0.929 . S
C571 C569 1.433 . S
C571 N574 1.384 . S
C572 H563 0.929 . S
C572 C564 1.378 . S
C572 C567 1.350 . S
C573 H560 0.929 . S
C573 C565 1.433 . S
C573 N575 1.384 . S
N574 C570 1.427 . S
N574 C571 1.384 . S
N575 C567 1.427 . S
N575 C573 1.384 . S
H576 C582 0.930 . S
H577 C586 0.930 . S
H578 C591 0.929 . S
H579 C589 0.929 . S
H580 C584 0.929 . S
H581 C590 0.929 . S
C582 H576 0.930 . S
C582 C583 1.367 . S
C582 C590 1.378 . S
C583 C582 1.367 . S
C583 C591 1.433 . S
C584 H580 0.929 . S
C584 C586 1.378 . S
C584 C588 1.350 . S
C585 C588 1.463 . S
C585 C590 1.350 . S
C585 N593 1.427 . S
C586 H577 0.930 . S
C586 C584 1.378 . S
C586 C587 1.367 . S
C587 C586 1.367 . S
C587 C589 1.433 . S
C588 C584 1.350 . S
C588 C585 1.463 . S
C588 N592 1.427 . S
C589 H579 0.929 . S
C589 C587 1.433 . S
C589 N592 1.384 . S
C590 H581 0.929 . S
C590 C582 1.378 . S
C590 C585 1.350 . S
C591 H578 0.929 . S
C591 C583 1.433 . S
C591 N593 1.384 . S
N592 C588 1.427 . S
N592 C589 1.384 . S
N593 C585 1.427 . S
N593 C591 1.384 . S
H594 C600 0.930 . S
H595 C604 0.930 . S
H596 C609 0.929 . S
H597 C607 0.929 . S
H598 C602 0.929 . S
H599 C608 0.929 . S
C600 H594 0.930 . S
C600 C601 1.367 . S
C600 C608 1.378 . S
C601 C600 1.367 . S
C601 C609 1.433 . S
C602 H598 0.929 . S
C602 C604 1.378 . S
C602 C606 1.350 . S
C603 C606 1.463 . S
C603 C608 1.350 . S
C603 N611 1.427 . S
C604 H595 0.930 . S
C604 C602 1.378 . S
C604 C605 1.367 . S
C605 C604 1.367 . S
C605 C607 1.433 . S
C606 C602 1.350 . S
C606 C603 1.463 . S
C606 N610 1.427 . S
C607 H597 0.929 . S
C607 C605 1.433 . S
C607 N610 1.384 . S
C608 H599 0.929 . S
C608 C600 1.378 . S
C608 C603 1.350 . S
C609 H596 0.929 . S
C609 C601 1.433 . S
C609 N611 1.384 . S
N610 C606 1.427 . S
N610 C607 1.384 . S
N611 C603 1.427 . S
N611 C609 1.384 . S
H612 C618 0.930 . S
H613 C622 0.930 . S
H614 C627 0.929 . S
H615 C625 0.929 . S
H616 C620 0.929 . S
H617 C626 0.929 . S
C618 H612 0.930 . S
C618 C619 1.367 . S
C618 C626 1.378 . S
C619 C618 1.367 . S
C619 C627 1.433 . S
C620 H616 0.929 . S
C620 C622 1.378 . S
C620 C624 1.350 . S
C621 C624 1.463 . S
C621 C626 1.350 . S
C621 N629 1.427 . S
C622 H613 0.930 . S
C622 C620 1.378 . S
C622 C623 1.367 . S
C623 C622 1.367 . S
C623 C625 1.433 . S
C624 C620 1.350 . S
C624 C621 1.463 . S
C624 N628 1.427 . S
C625 H615 0.929 . S
C625 C623 1.433 . S
C625 N628 1.384 . S
C626 H617 0.929 . S
C626 C618 1.378 . S
C626 C621 1.350 . S
C627 H614 0.929 . S
C627 C619 1.433 . S
C627 N629 1.384 . S
N628 C624 1.427 . S
N628 C625 1.384 . S
N629 C621 1.427 . S
N629 C627 1.384 . S
H630 C636 0.930 . S
H631 C640 0.930 . S
H632 C645 0.929 . S
H633 C643 0.929 . S
H634 C638 0.929 . S
H635 C644 0.929 . S
C636 H630 0.930 . S
C636 C637 1.367 . S
C636 C644 1.378 . S
C637 C636 1.367 . S
C637 C645 1.433 . S
C638 H634 0.929 . S
C638 C640 1.378 . S
C638 C642 1.350 . S
C639 C642 1.463 . S
C639 C644 1.350 . S
C639 N647 1.427 . S
C640 H631 0.930 . S
C640 C638 1.378 . S
C640 C641 1.367 . S
C641 C640 1.367 . S
C641 C643 1.433 . S
C642 C638 1.350 . S
C642 C639 1.463 . S
C642 N646 1.427 . S
C643 H633 0.929 . S
C643 C641 1.433 . S
C643 N646 1.384 . S
C644 H635 0.929 . S
C644 C636 1.378 . S
C644 C639 1.350 . S
C645 H632 0.929 . S
C645 C637 1.433 . S
C645 N647 1.384 . S
N646 C642 1.427 . S
N646 C643 1.384 . S
N647 C639 1.427 . S
N647 C645 1.384 . S
H648 C654 0.930 . S
H649 C658 0.930 . S
H650 C663 0.929 . S
H651 C661 0.929 . S
H652 C656 0.929 . S
H653 C662 0.929 . S
C654 H648 0.930 . S
C654 C655 1.367 . S
C654 C662 1.378 . S
C655 C654 1.367 . S
C655 C663 1.433 . S
C656 H652 0.929 . S
C656 C658 1.378 . S
C656 C660 1.350 . S
C657 C660 1.463 . S
C657 C662 1.350 . S
C657 N665 1.427 . S
C658 H649 0.930 . S
C658 C656 1.378 . S
C658 C659 1.367 . S
C659 C658 1.367 . S
C659 C661 1.433 . S
C660 C656 1.350 . S
C660 C657 1.463 . S
C660 N664 1.427 . S
C661 H651 0.929 . S
C661 C659 1.433 . S
C661 N664 1.384 . S
C662 H653 0.929 . S
C662 C654 1.378 . S
C662 C657 1.350 . S
C663 H650 0.929 . S
C663 C655 1.433 . S
C663 N665 1.384 . S
N664 C660 1.427 . S
N664 C661 1.384 . S
N665 C657 1.427 . S
N665 C663 1.384 . S
H666 C672 0.930 . S
H667 C676 0.930 . S
H668 C681 0.929 . S
H669 C679 0.929 . S
H670 C674 0.929 . S
H671 C680 0.929 . S
C672 H666 0.930 . S
C672 C673 1.367 . S
C672 C680 1.378 . S
C673 C672 1.367 . S
C673 C681 1.433 . S
C674 H670 0.929 . S
C674 C676 1.378 . S
C674 C678 1.350 . S
C675 C678 1.463 . S
C675 C680 1.350 . S
C675 N683 1.427 . S
C676 H667 0.930 . S
C676 C674 1.378 . S
C676 C677 1.367 . S
C677 C676 1.367 . S
C677 C679 1.433 . S
C678 C674 1.350 . S
C678 C675 1.463 . S
C678 N682 1.427 . S
C679 H669 0.929 . S
C679 C677 1.433 . S
C679 N682 1.384 . S
C680 H671 0.929 . S
C680 C672 1.378 . S
C680 C675 1.350 . S
C681 H668 0.929 . S
C681 C673 1.433 . S
C681 N683 1.384 . S
N682 C678 1.427 . S
N682 C679 1.384 . S
N683 C675 1.427 . S
N683 C681 1.384 . S
H684 C690 0.930 . S
H685 C694 0.930 . S
H686 C699 0.929 . S
H687 C697 0.929 . S
H688 C692 0.929 . S
H689 C698 0.929 . S
C690 H684 0.930 . S
C690 C691 1.367 . S
C690 C698 1.378 . S
C691 C690 1.367 . S
C691 C699 1.433 . S
C692 H688 0.929 . S
C692 C694 1.378 . S
C692 C696 1.350 . S
C693 C696 1.463 . S
C693 C698 1.350 . S
C693 N701 1.427 . S
C694 H685 0.930 . S
C694 C692 1.378 . S
C694 C695 1.367 . S
C695 C694 1.367 . S
C695 C697 1.433 . S
C696 C692 1.350 . S
C696 C693 1.463 . S
C696 N700 1.427 . S
C697 H687 0.929 . S
C697 C695 1.433 . S
C697 N700 1.384 . S
C698 H689 0.929 . S
C698 C690 1.378 . S
C698 C693 1.350 . S
C699 H686 0.929 . S
C699 C691 1.433 . S
C699 N701 1.384 . S
N700 C696 1.427 . S
N700 C697 1.384 . S
N701 C693 1.427 . S
N701 C699 1.384 . S
H702 C708 0.930 . S
H703 C712 0.930 . S
H704 C717 0.929 . S
H705 C715 0.929 . S
H706 C710 0.929 . S
H707 C716 0.929 . S
C708 H702 0.930 . S
C708 C709 1.367 . S
C708 C716 1.378 . S
C709 C708 1.367 . S
C709 C717 1.433 . S
C710 H706 0.929 . S
C710 C712 1.378 . S
C710 C714 1.350 . S
C711 C714 1.463 . S
C711 C716 1.350 . S
C711 N719 1.427 . S
C712 H703 0.930 . S
C712 C710 1.378 . S
C712 C713 1.367 . S
C713 C712 1.367 . S
C713 C715 1.433 . S
C714 C710 1.350 . S
C714 C711 1.463 . S
C714 N718 1.427 . S
C715 H705 0.929 . S
C715 C713 1.433 . S
C715 N718 1.384 . S
C716 H707 0.929 . S
C716 C708 1.378 . S
C716 C711 1.350 . S
C717 H704 0.929 . S
C717 C709 1.433 . S
C717 N719 1.384 . S
N718 C714 1.427 . S
N718 C715 1.384 . S
N719 C711 1.427 . S
N719 C717 1.384 . S
H720 C726 0.930 . S
H721 C730 0.930 . S
H722 C735 0.929 . S
H723 C733 0.929 . S
H724 C728 0.929 . S
H725 C734 0.929 . S
C726 H720 0.930 . S
C726 C727 1.367 . S
C726 C734 1.378 . S
C727 C726 1.367 . S
C727 C735 1.433 . S
C728 H724 0.929 . S
C728 C730 1.378 . S
C728 C732 1.350 . S
C729 C732 1.463 . S
C729 C734 1.350 . S
C729 N737 1.427 . S
C730 H721 0.930 . S
C730 C728 1.378 . S
C730 C731 1.367 . S
C731 C730 1.367 . S
C731 C733 1.433 . S
C732 C728 1.350 . S
C732 C729 1.463 . S
C732 N736 1.427 . S
C733 H723 0.929 . S
C733 C731 1.433 . S
C733 N736 1.384 . S
C734 H725 0.929 . S
C734 C726 1.378 . S
C734 C729 1.350 . S
C735 H722 0.929 . S
C735 C727 1.433 . S
C735 N737 1.384 . S
N736 C732 1.427 . S
N736 C733 1.384 . S
N737 C729 1.427 . S
N737 C735 1.384 . S
H738 C744 0.930 . S
H739 C748 0.930 . S
H740 C753 0.929 . S
H741 C751 0.929 . S
H742 C746 0.929 . S
H743 C752 0.929 . S
C744 H738 0.930 . S
C744 C745 1.367 . S
C744 C752 1.378 . S
C745 C744 1.367 . S
C745 C753 1.433 . S
C746 H742 0.929 . S
C746 C748 1.378 . S
C746 C750 1.350 . S
C747 C750 1.463 1_554 S
C747 C752 1.350 . S
C747 N755 1.427 . S
C748 H739 0.930 . S
C748 C746 1.378 . S
C748 C749 1.367 . S
C749 C748 1.367 . S
C749 C751 1.433 . S
C750 C746 1.350 . S
C750 C747 1.463 1_556 S
C750 N754 1.427 . S
C751 H741 0.929 . S
C751 C749 1.433 . S
C751 N754 1.384 . S
C752 H743 0.929 . S
C752 C744 1.378 . S
C752 C747 1.350 . S
C753 H740 0.929 . S
C753 C745 1.433 . S
C753 N755 1.384 . S
N754 C750 1.427 . S
N754 C751 1.384 . S
N755 C747 1.427 . S
N755 C753 1.384 . S
H756 C762 0.930 . S
H757 C766 0.930 . S
H758 C771 0.929 . S
H759 C769 0.929 . S
H760 C764 0.929 . S
H761 C770 0.929 . S
C762 H756 0.930 . S
C762 C763 1.367 1_565 S
C762 C770 1.378 . S
C763 C762 1.367 1_545 S
C763 C771 1.433 . S
C764 H760 0.929 . S
C764 C766 1.378 . S
C764 C768 1.350 1_545 S
C765 C768 1.466 1_556 S
C765 C770 1.373 . S
C765 N773 1.400 1_565 S
C766 H757 0.930 . S
C766 C764 1.378 . S
C766 C767 1.367 1_545 S
C767 C766 1.367 1_565 S
C767 C769 1.433 . S
C768 C764 1.350 1_565 S
C768 C765 1.466 1_554 S
C768 N772 1.427 . S
C769 H759 0.929 . S
C769 C767 1.433 . S
C769 N772 1.384 . S
C770 H761 0.929 . S
C770 C762 1.378 . S
C770 C765 1.373 . S
C771 H758 0.929 . S
C771 C763 1.433 . S
C771 N773 1.384 . S
N772 C768 1.427 . S
N772 C769 1.384 . S
N773 C765 1.400 1_545 S
N773 C771 1.384 . S
H774 C780 0.930 . S
H775 C784 0.930 . S
H776 C789 0.929 . S
H777 C787 0.928 . S
H778 C782 0.929 . S
H779 C788 0.929 . S
C780 H774 0.930 . S
C780 C781 1.367 . S
C780 C788 1.378 . S
C781 C780 1.367 . S
C781 C789 1.433 . S
C782 H778 0.929 . S
C782 C784 1.378 . S
C782 C786 1.349 . S
C783 C786 1.461 1_656 S
C783 C788 1.350 . S
C783 N791 1.425 . S
C784 H775 0.930 . S
C784 C782 1.378 . S
C784 C785 1.367 . S
C785 C784 1.367 . S
C785 C787 1.434 1_455 S
C786 C782 1.349 . S
C786 C783 1.461 1_454 S
C786 N790 1.430 1_455 S
C787 H777 0.928 . S
C787 C785 1.434 1_655 S
C787 N790 1.384 . S
C788 H779 0.929 . S
C788 C780 1.378 . S
C788 C783 1.350 . S
C789 H776 0.929 . S
C789 C781 1.433 . S
C789 N791 1.385 . S
N790 C786 1.430 1_655 S
N790 C787 1.384 . S
N791 C783 1.425 . S
N791 C789 1.385 . S
H792 C798 0.930 . S
H793 C802 0.930 . S
H794 C807 0.929 . S
H795 C805 0.929 . S
H796 C800 0.929 . S
H797 C806 0.929 . S
C798 H792 0.930 . S
C798 C799 1.367 . S
C798 C806 1.378 . S
C799 C798 1.367 . S
C799 C807 1.433 . S
C800 H796 0.929 . S
C800 C802 1.378 . S
C800 C804 1.350 . S
C801 C804 1.463 . S
C801 C806 1.350 . S
C801 N809 1.427 . S
C802 H793 0.930 . S
C802 C800 1.378 . S
C802 C803 1.367 . S
C803 C802 1.367 . S
C803 C805 1.433 . S
C804 C800 1.350 . S
C804 C801 1.463 . S
C804 N808 1.427 . S
C805 H795 0.929 . S
C805 C803 1.433 . S
C805 N808 1.384 . S
C806 H797 0.929 . S
C806 C798 1.378 . S
C806 C801 1.350 . S
C807 H794 0.929 . S
C807 C799 1.433 . S
C807 N809 1.384 . S
N808 C804 1.427 . S
N808 C805 1.384 . S
N809 C801 1.427 . S
N809 C807 1.384 . S
H810 C816 0.930 . S
H811 C820 0.930 . S
H812 C825 0.929 . S
H813 C823 0.929 . S
H814 C818 0.929 . S
H815 C824 0.929 . S
C816 H810 0.930 . S
C816 C817 1.367 . S
C816 C824 1.378 . S
C817 C816 1.367 . S
C817 C825 1.433 . S
C818 H814 0.929 . S
C818 C820 1.378 . S
C818 C822 1.350 . S
C819 C822 1.463 . S
C819 C824 1.350 . S
C819 N827 1.427 . S
C820 H811 0.930 . S
C820 C818 1.378 . S
C820 C821 1.367 . S
C821 C820 1.367 . S
C821 C823 1.433 . S
C822 C818 1.350 . S
C822 C819 1.463 . S
C822 N826 1.427 . S
C823 H813 0.929 . S
C823 C821 1.433 . S
C823 N826 1.384 . S
C824 H815 0.929 . S
C824 C816 1.378 . S
C824 C819 1.350 . S
C825 H812 0.929 . S
C825 C817 1.433 . S
C825 N827 1.384 . S
N826 C822 1.427 . S
N826 C823 1.384 . S
N827 C819 1.427 . S
N827 C825 1.384 . S
H828 C834 0.930 . S
H829 C838 0.930 . S
H830 C843 0.929 . S
H831 C841 0.929 . S
H832 C836 0.929 . S
H833 C842 0.929 . S
C834 H828 0.930 . S
C834 C835 1.367 . S
C834 C842 1.378 . S
C835 C834 1.367 . S
C835 C843 1.433 . S
C836 H832 0.929 . S
C836 C838 1.378 . S
C836 C840 1.350 . S
C837 C840 1.463 . S
C837 C842 1.350 . S
C837 N845 1.427 . S
C838 H829 0.930 . S
C838 C836 1.378 . S
C838 C839 1.367 . S
C839 C838 1.367 . S
C839 C841 1.433 . S
C840 C836 1.350 . S
C840 C837 1.463 . S
C840 N844 1.427 . S
C841 H831 0.929 . S
C841 C839 1.433 . S
C841 N844 1.384 . S
C842 H833 0.929 . S
C842 C834 1.378 . S
C842 C837 1.350 . S
C843 H830 0.929 . S
C843 C835 1.433 . S
C843 N845 1.384 . S
N844 C840 1.427 . S
N844 C841 1.384 . S
N845 C837 1.427 . S
N845 C843 1.384 . S
H846 C852 0.930 . S
H847 C856 0.930 . S
H848 C861 0.929 . S
H849 C859 0.929 . S
H850 C854 0.929 . S
H851 C860 0.929 . S
C852 H846 0.930 . S
C852 C853 1.367 . S
C852 C860 1.378 . S
C853 C852 1.367 . S
C853 C861 1.433 . S
C854 H850 0.929 . S
C854 C856 1.378 . S
C854 C858 1.350 . S
C855 C858 1.463 . S
C855 C860 1.350 . S
C855 N863 1.427 . S
C856 H847 0.930 . S
C856 C854 1.378 . S
C856 C857 1.367 . S
C857 C856 1.367 . S
C857 C859 1.433 . S
C858 C854 1.350 . S
C858 C855 1.463 . S
C858 N862 1.427 . S
C859 H849 0.929 . S
C859 C857 1.433 . S
C859 N862 1.384 . S
C860 H851 0.929 . S
C860 C852 1.378 . S
C860 C855 1.350 . S
C861 H848 0.929 . S
C861 C853 1.433 . S
C861 N863 1.384 . S
N862 C858 1.427 . S
N862 C859 1.384 . S
N863 C855 1.427 . S
N863 C861 1.384 . S
H864 C870 0.930 . S
H865 C874 0.930 . S
H866 C879 0.929 . S
H867 C877 0.929 . S
H868 C872 0.929 . S
H869 C878 0.929 . S
C870 H864 0.930 . S
C870 C871 1.367 . S
C870 C878 1.378 . S
C871 C870 1.367 . S
C871 C879 1.433 . S
C872 H868 0.929 . S
C872 C874 1.378 . S
C872 C876 1.350 . S
C873 C876 1.463 . S
C873 C878 1.350 . S
C873 N881 1.427 . S
C874 H865 0.930 . S
C874 C872 1.378 . S
C874 C875 1.367 . S
C875 C874 1.367 . S
C875 C877 1.433 . S
C876 C872 1.350 . S
C876 C873 1.463 . S
C876 N880 1.427 . S
C877 H867 0.929 . S
C877 C875 1.433 . S
C877 N880 1.384 . S
C878 H869 0.929 . S
C878 C870 1.378 . S
C878 C873 1.350 . S
C879 H866 0.929 . S
C879 C871 1.433 . S
C879 N881 1.384 . S
N880 C876 1.427 . S
N880 C877 1.384 . S
N881 C873 1.427 . S
N881 C879 1.384 . S
H882 C888 0.930 . S
H883 C892 0.930 . S
H884 C897 0.929 . S
H885 C895 0.929 . S
H886 C890 0.929 . S
H887 C896 0.929 . S
C888 H882 0.930 . S
C888 C889 1.367 . S
C888 C896 1.378 . S
C889 C888 1.367 . S
C889 C897 1.433 . S
C890 H886 0.929 . S
C890 C892 1.378 . S
C890 C894 1.350 . S
C891 C894 1.463 . S
C891 C896 1.350 . S
C891 N899 1.427 . S
C892 H883 0.930 . S
C892 C890 1.378 . S
C892 C893 1.367 . S
C893 C892 1.367 . S
C893 C895 1.433 . S
C894 C890 1.350 . S
C894 C891 1.463 . S
C894 N898 1.427 . S
C895 H885 0.929 . S
C895 C893 1.433 . S
C895 N898 1.384 . S
C896 H887 0.929 . S
C896 C888 1.378 . S
C896 C891 1.350 . S
C897 H884 0.929 . S
C897 C889 1.433 . S
C897 N899 1.384 . S
N898 C894 1.427 . S
N898 C895 1.384 . S
N899 C891 1.427 . S
N899 C897 1.384 . S
C259 C146 1.139 . S
C263 C6 1.139 . S
C277 C20 1.147 . S
C281 C160 1.146 . S
C295 C132 1.147 . S
C299 C34 1.147 . S
C313 C202 1.140 . S
C317 C48 1.139 . S
C331 C62 1.141 . S
C335 C174 1.143 . S
C349 C188 1.139 . S
C353 C76 1.140 . S
C367 C90 1.142 . S
C371 C230 1.141 . S
C385 C244 1.140 . S
C389 C104 1.141 . S
C403 C118 1.139 . S
C407 C216 1.139 . S
C421 C9 1.191 . S
C425 C22 1.218 . S
C439 C23 1.187 . S
C443 C36 1.218 . S
C457 C8 1.220 . S
C461 C37 1.180 . S
C475 C78 1.224 . S
C479 C51 1.184 . S
C493 C50 1.219 . S
C497 C65 1.183 . S
C511 C79 1.172 . S
C515 C64 1.225 . S
C529 C93 1.191 . S
C533 C106 1.218 . S
C547 C107 1.177 . S
C551 C120 1.225 . S
C565 C92 1.225 . S
C569 C121 1.178 . S
C583 C162 1.225 . S
C587 C135 1.181 . S
C601 C134 1.220 . S
C605 C149 1.191 . S
C619 C148 1.218 . S
C623 C163 1.186 . S
C637 C190 1.226 . S
C641 C177 1.173 . S
C655 C204 1.222 . S
C659 C191 1.176 . S
C673 C176 1.225 . S
C677 C205 1.177 . S
C691 C219 1.186 . S
C695 C246 1.223 . S
C709 C233 1.176 . S
C713 C218 1.225 . S
C727 C247 1.190 . S
C731 C232 1.220 . S
C745 C7 1.659 . S
C749 C49 1.651 . S
C763 C63 1.640 . S
C767 C21 1.650 . S
C781 C77 1.659 . S
C785 C35 1.644 . S
C799 C133 1.650 . S
C803 C91 1.659 . S
C817 C147 1.658 . S
C821 C105 1.651 . S
C835 C119 1.659 . S
C839 C161 1.650 . S
C853 C217 1.644 . S
C857 C175 1.644 . S
C871 C231 1.659 . S
C875 C189 1.651 . S
C889 C245 1.644 . S
C893 C203 1.658 . S
