# Generated by pormake.
# Topology yfk, (5)-cn, num edge types: 1
# Building blocks:
#     Node 0, Type 0, BuildingBlock: XOMCOT_clean_sbu_1, # of connection points: 5
#     Node 1, Type 0, BuildingBlock: XOMCOT_clean_sbu_1, # of connection points: 5
#     Node 2, Type 0, BuildingBlock: XOMCOT_clean_sbu_1, # of connection points: 5
#     Node 3, Type 0, BuildingBlock: XOMCOT_clean_sbu_1, # of connection points: 5
#     Node 4, Type 0, BuildingBlock: XOMCOT_clean_sbu_1, # of connection points: 5
#     Node 5, Type 0, BuildingBlock: XOMCOT_clean_sbu_1, # of connection points: 5
#     Node 6, Type 0, BuildingBlock: XOMCOT_clean_sbu_1, # of connection points: 5
#     Node 7, Type 0, BuildingBlock: XOMCOT_clean_sbu_1, # of connection points: 5
#     Node 8, Type 0, BuildingBlock: XOMCOT_clean_sbu_1, # of connection points: 5
#     Node 9, Type 0, BuildingBlock: XOMCOT_clean_sbu_1, # of connection points: 5
#     Node 10, Type 0, BuildingBlock: XOMCOT_clean_sbu_1, # of connection points: 5
#     Node 11, Type 0, BuildingBlock: XOMCOT_clean_sbu_1, # of connection points: 5
#     Node 12, Type 0, BuildingBlock: XOMCOT_clean_sbu_1, # of connection points: 5
#     Node 13, Type 0, BuildingBlock: XOMCOT_clean_sbu_1, # of connection points: 5
#     Node 14, Type 0, BuildingBlock: XOMCOT_clean_sbu_1, # of connection points: 5
#     Node 15, Type 0, BuildingBlock: XOMCOT_clean_sbu_1, # of connection points: 5
#     Edge 16, Type (0, 0), BuildingBlock: XIVTED_clean_linker_0, # of connection points: 2
#     Edge 17, Type (0, 0), BuildingBlock: XIVTED_clean_linker_0, # of connection points: 2
#     Edge 18, Type (0, 0), BuildingBlock: XIVTED_clean_linker_0, # of connection points: 2
#     Edge 19, Type (0, 0), BuildingBlock: XIVTED_clean_linker_0, # of connection points: 2
#     Edge 20, Type (0, 0), BuildingBlock: XIVTED_clean_linker_0, # of connection points: 2
#     Edge 21, Type (0, 0), BuildingBlock: XIVTED_clean_linker_0, # of connection points: 2
#     Edge 22, Type (0, 0), BuildingBlock: XIVTED_clean_linker_0, # of connection points: 2
#     Edge 23, Type (0, 0), BuildingBlock: XIVTED_clean_linker_0, # of connection points: 2
#     Edge 24, Type (0, 0), BuildingBlock: XIVTED_clean_linker_0, # of connection points: 2
#     Edge 25, Type (0, 0), BuildingBlock: XIVTED_clean_linker_0, # of connection points: 2
#     Edge 26, Type (0, 0), BuildingBlock: XIVTED_clean_linker_0, # of connection points: 2
#     Edge 27, Type (0, 0), BuildingBlock: XIVTED_clean_linker_0, # of connection points: 2
#     Edge 28, Type (0, 0), BuildingBlock: XIVTED_clean_linker_0, # of connection points: 2
#     Edge 29, Type (0, 0), BuildingBlock: XIVTED_clean_linker_0, # of connection points: 2
#     Edge 30, Type (0, 0), BuildingBlock: XIVTED_clean_linker_0, # of connection points: 2
#     Edge 31, Type (0, 0), BuildingBlock: XIVTED_clean_linker_0, # of connection points: 2
#     Edge 32, Type (0, 0), BuildingBlock: XIVTED_clean_linker_0, # of connection points: 2
#     Edge 33, Type (0, 0), BuildingBlock: XIVTED_clean_linker_0, # of connection points: 2
#     Edge 34, Type (0, 0), BuildingBlock: XIVTED_clean_linker_0, # of connection points: 2
#     Edge 35, Type (0, 0), BuildingBlock: XIVTED_clean_linker_0, # of connection points: 2
#     Edge 36, Type (0, 0), BuildingBlock: XIVTED_clean_linker_0, # of connection points: 2
#     Edge 37, Type (0, 0), BuildingBlock: XIVTED_clean_linker_0, # of connection points: 2
#     Edge 38, Type (0, 0), BuildingBlock: XIVTED_clean_linker_0, # of connection points: 2
#     Edge 39, Type (0, 0), BuildingBlock: XIVTED_clean_linker_0, # of connection points: 2
#     Edge 40, Type (0, 0), BuildingBlock: XIVTED_clean_linker_0, # of connection points: 2
#     Edge 41, Type (0, 0), BuildingBlock: XIVTED_clean_linker_0, # of connection points: 2
#     Edge 42, Type (0, 0), BuildingBlock: XIVTED_clean_linker_0, # of connection points: 2
#     Edge 43, Type (0, 0), BuildingBlock: XIVTED_clean_linker_0, # of connection points: 2
#     Edge 44, Type (0, 0), BuildingBlock: XIVTED_clean_linker_0, # of connection points: 2
#     Edge 45, Type (0, 0), BuildingBlock: XIVTED_clean_linker_0, # of connection points: 2
#     Edge 46, Type (0, 0), BuildingBlock: XIVTED_clean_linker_0, # of connection points: 2
#     Edge 47, Type (0, 0), BuildingBlock: XIVTED_clean_linker_0, # of connection points: 2
#     Edge 48, Type (0, 0), BuildingBlock: XIVTED_clean_linker_0, # of connection points: 2
#     Edge 49, Type (0, 0), BuildingBlock: XIVTED_clean_linker_0, # of connection points: 2
#     Edge 50, Type (0, 0), BuildingBlock: XIVTED_clean_linker_0, # of connection points: 2
#     Edge 51, Type (0, 0), BuildingBlock: XIVTED_clean_linker_0, # of connection points: 2
#     Edge 52, Type (0, 0), BuildingBlock: XIVTED_clean_linker_0, # of connection points: 2
#     Edge 53, Type (0, 0), BuildingBlock: XIVTED_clean_linker_0, # of connection points: 2
#     Edge 54, Type (0, 0), BuildingBlock: XIVTED_clean_linker_0, # of connection points: 2
#     Edge 55, Type (0, 0), BuildingBlock: XIVTED_clean_linker_0, # of connection points: 2
# Relax obj value: 0.583
# Max RMSD: 0.279
# Mean RMSD: 0.279
data_MOF--net-yfk--node1-XOMCOT_clean_sbu_1--edge1-XIVTED_clean_linker_0
_symmetry_space_group_name_H-M    P1
_symmetry_Int_Tables_number       1
_symmetry_cell_setting            triclinic
loop_
_symmetry_equiv_pos_as_xyz
'x, y, z'
_cell_length_a     49.387349
_cell_length_b     49.595013
_cell_length_c     27.86249
_cell_angle_alpha  90.079137
_cell_angle_beta   89.984815
_cell_angle_gamma 90.024911
loop_
_atom_site_label
_atom_site_type_symbol
_atom_site_fract_x
_atom_site_fract_y
_atom_site_fract_z
_atom_type_partial_charge
C0 C 0.10404 0.13535 0.38116 0.0
C1 C 0.11078 0.12558 0.42542 0.0
N2 N 0.12654 0.10371 0.41928 0.0
N3 N 0.11479 0.11937 0.34679 0.0
C4 C 0.12795 0.09988 0.37131 0.0
H5 H 0.09427 0.15452 0.37484 0.0
Co6 Co 0.12108 0.13106 0.28395 0.0
C7 C 0.0868 0.09412 0.22534 0.0
O8 O 0.07973 0.11545 0.20038 0.0
N9 N 0.12945 0.14466 0.22345 0.0
C10 C 0.14009 0.15714 0.14907 0.0
C11 C 0.13121 0.13607 0.17752 0.0
C12 C 0.13961 0.16981 0.22231 0.0
N13 N 0.14503 0.17855 0.17764 0.0
O14 O 0.15743 0.11617 0.28649 0.0
H15 H 0.12673 0.11589 0.16522 0.0
H16 H 0.1433 0.18142 0.2545 0.0
O17 O 0.10535 0.09656 0.25759 0.0
C18 C 0.17346 0.12951 0.31362 0.0
O19 O 0.16416 0.15099 0.33582 0.0
N20 N 0.0858 0.14735 0.28333 0.0
C21 C 0.03559 0.17171 0.29971 0.0
C22 C 0.03856 0.14376 0.30312 0.0
C23 C 0.06384 0.13218 0.29646 0.0
C24 C 0.08299 0.1747 0.27893 0.0
C25 C 0.05805 0.18729 0.28697 0.0
H26 H 0.06604 0.11115 0.3056 0.0
H27 H 0.10025 0.18744 0.27322 0.0
H28 H 0.1411 0.08526 0.35434 0.0
H29 H 0.10613 0.13515 0.45934 0.0
H30 H 0.14226 0.15675 0.11043 0.0
H31 H 0.02208 0.13114 0.31558 0.0
H32 H 0.05674 0.20909 0.28616 0.0
C33 C 0.13396 0.9219 0.59673 0.0
C34 C 0.12445 0.9147 0.55239 0.0
N35 N 0.10209 0.89954 0.55847 0.0
N36 N 0.11739 0.91188 0.6309 0.0
C37 C 0.09777 0.89887 0.60631 0.0
H38 H 0.15323 0.93151 0.60339 0.0
Co39 Co 0.12777 0.90632 0.69451 0.0
C40 C 0.08642 0.9397 0.74784 0.0
O41 O 0.10561 0.94878 0.77624 0.0
N42 N 0.1402 0.89892 0.75623 0.0
C43 C 0.15321 0.89109 0.83148 0.0
C44 C 0.13196 0.89924 0.80247 0.0
C45 C 0.16529 0.88843 0.75811 0.0
N46 N 0.17438 0.8847 0.8031 0.0
O47 O 0.1133 0.86997 0.69164 0.0
H48 H 0.11197 0.90471 0.81476 0.0
H49 H 0.17679 0.88366 0.7262 0.0
O50 O 0.09222 0.92136 0.71674 0.0
C51 C 0.12731 0.85412 0.66533 0.0
O52 O 0.14934 0.86345 0.64477 0.0
N53 N 0.14375 0.94139 0.69528 0.0
C54 C 0.16943 0.98958 0.67071 0.0
C55 C 0.14119 0.98776 0.67102 0.0
C56 C 0.12885 0.96336 0.68168 0.0
C57 C 0.17136 0.94344 0.69776 0.0
C58 C 0.18462 0.96735 0.68547 0.0
H59 H 0.10762 0.96156 0.67345 0.0
H60 H 0.1837 0.92599 0.70396 0.0
H61 H 0.08262 0.88638 0.62337 0.0
H62 H 0.13444 0.91871 0.51858 0.0
H63 H 0.1532 0.89059 0.8703 0.0
H64 H 0.12879 1.00406 0.6573 0.0
H65 H 0.20653 0.96775 0.68369 0.0
C66 C 0.92046 0.89911 0.37256 0.0
C67 C 0.91188 0.90899 0.41592 0.0
N68 N 0.8983 0.93213 0.40807 0.0
N69 N 0.91298 0.91621 0.33735 0.0
C70 C 0.89988 0.93634 0.36025 0.0
H71 H 0.92942 0.87948 0.36691 0.0
Co72 Co 0.91 0.90695 0.27277 0.0
C73 C 0.94817 0.94425 0.22366 0.0
O74 O 0.95591 0.92319 0.19845 0.0
N75 N 0.90474 0.89611 0.20893 0.0
C76 C 0.89597 0.89093 0.13093 0.0
C77 C 0.90381 0.90896 0.16616 0.0
C78 C 0.8953 0.8712 0.19909 0.0
N79 N 0.89055 0.86716 0.15213 0.0
O80 O 0.87418 0.92275 0.27183 0.0
H81 H 0.90777 0.93017 0.16078 0.0
H82 H 0.89123 0.8563 0.22629 0.0
O83 O 0.92817 0.94176 0.2531 0.0
C84 C 0.85749 0.90504 0.28702 0.0
O85 O 0.86674 0.88091 0.29744 0.0
N86 N 0.94441 0.88938 0.27656 0.0
C87 C 0.99156 0.862 0.30277 0.0
C88 C 0.99009 0.89009 0.30609 0.0
C89 C 0.96617 0.90319 0.29457 0.0
C90 C 0.94587 0.86194 0.27208 0.0
C91 C 0.96929 0.84785 0.28485 0.0
H92 H 0.96454 0.92419 0.3043 0.0
H93 H 0.9283 0.85028 0.26336 0.0
H94 H 0.88917 0.95216 0.34153 0.0
H95 H 0.91403 0.89887 0.45007 0.0
H96 H 0.89389 0.89514 0.09301 0.0
H97 H 1.00627 0.90166 0.32246 0.0
H98 H 0.96927 0.82601 0.28404 0.0
C99 C 0.89153 0.10704 0.58501 0.0
C100 C 0.89764 0.11653 0.54011 0.0
N101 N 0.91577 0.1366 0.5447 0.0
N102 N 0.90569 0.12095 0.61859 0.0
C103 C 0.92068 0.13837 0.59228 0.0
H104 H 0.87781 0.09059 0.59159 0.0
Co105 Co 0.90248 0.12046 0.68697 0.0
C106 C 0.94832 0.08208 0.66427 0.0
O107 O 0.93931 0.08062 0.62011 0.0
N108 N 0.89721 0.1211 0.75249 0.0
C109 C 0.88848 0.10756 0.82682 0.0
C110 C 0.90669 0.10606 0.7891 0.0
C111 C 0.87398 0.13186 0.76889 0.0
N112 N 0.86785 0.12378 0.81362 0.0
O113 O 0.92261 0.1541 0.6907 0.0
H114 H 0.92378 0.0925 0.78674 0.0
H115 H 0.8598 0.14221 0.74585 0.0
O116 O 0.9365 0.09798 0.69432 0.0
C117 C 0.90634 0.17389 0.68508 0.0
O118 O 0.8805 0.16864 0.67904 0.0
N119 N 0.88052 0.08974 0.68476 0.0
C120 C 0.84686 0.04746 0.65966 0.0
C121 C 0.87187 0.04243 0.68191 0.0
C122 C 0.88834 0.06401 0.6949 0.0
C123 C 0.85427 0.09498 0.67274 0.0
C124 C 0.83701 0.07399 0.65939 0.0
H125 H 0.90779 0.05972 0.71059 0.0
H126 H 0.84774 0.11563 0.66818 0.0
H127 H 0.93487 0.15231 0.60773 0.0
H128 H 0.88946 0.10888 0.50678 0.0
H129 H 0.8892 0.09583 0.85952 0.0
H130 H 0.88007 0.02224 0.68458 0.0
H131 H 0.81742 0.0787 0.6441 0.0
C132 C 0.10409 0.39842 0.84773 0.0
C133 C 0.11148 0.40579 0.8022 0.0
N134 N 0.1295 0.42608 0.80543 0.0
N135 N 0.11689 0.41433 0.87994 0.0
C136 C 0.13176 0.43139 0.85282 0.0
H137 H 0.09225 0.38078 0.85634 0.0
Co138 Co 0.12319 0.40549 0.94436 0.0
C139 C 0.09351 0.44745 0.00035 0.0
O140 O 0.08662 0.42822 0.03037 0.0
N141 N 0.13158 0.39489 0.00727 0.0
C142 C 0.14754 0.39019 0.08179 0.0
C143 C 0.13835 0.40833 0.04786 0.0
C144 C 0.13886 0.36921 0.01644 0.0
N145 N 0.14801 0.36561 0.06136 0.0
O146 O 0.16011 0.4181 0.93803 0.0
H147 H 0.13797 0.42999 0.05205 0.0
H148 H 0.13901 0.35349 -0.01025 0.0
O149 O 0.10953 0.44187 0.96521 0.0
C150 C 0.17413 0.39876 0.9208 0.0
O151 O 0.16187 0.37566 0.91276 0.0
N152 N 0.08742 0.3909 0.94834 0.0
C153 C 0.03744 0.36697 0.92841 0.0
C154 C 0.04016 0.39501 0.92931 0.0
C155 C 0.06539 0.40646 0.93745 0.0
C156 C 0.08465 0.36346 0.94982 0.0
C157 C 0.05983 0.35108 0.94006 0.0
H158 H 0.0675 0.42752 0.92913 0.0
H159 H 0.10207 0.35068 0.95242 0.0
H160 H 0.14633 0.44536 0.86774 0.0
H161 H 0.10545 0.39561 0.76955 0.0
H162 H 0.15443 0.39485 0.11773 0.0
H163 H 0.02376 0.40797 0.91768 0.0
H164 H 0.05876 0.3293 0.93739 0.0
C165 C 0.39811 0.9323 0.10988 0.0
C166 C 0.40554 0.92712 0.1563 0.0
N167 N 0.42723 0.91072 0.15547 0.0
N168 N 0.41532 0.91968 0.07959 0.0
C169 C 0.43324 0.90719 0.10862 0.0
H170 H 0.37959 0.94226 0.09942 0.0
Co171 Co 0.40686 0.91047 0.01629 0.0
C172 C 0.44966 0.93836 0.95878 0.0
O173 O 0.43069 0.94462 0.92768 0.0
N174 N 0.39637 0.89934 0.95483 0.0
C175 C 0.38975 0.88306 0.88108 0.0
C176 C 0.40873 0.89316 0.9129 0.0
C177 C 0.37074 0.89067 0.94866 0.0
N178 N 0.36583 0.88147 0.9041 0.0
O179 O 0.41971 0.87408 0.02805 0.0
H180 H 0.43019 0.89493 0.90605 0.0
H181 H 0.35591 0.89044 0.97708 0.0
O182 O 0.44358 0.92317 -0.00534 0.0
C183 C 0.40168 0.86106 0.05135 0.0
O184 O 0.37856 0.87324 0.06008 0.0
N185 N 0.39222 0.94583 0.00723 0.0
C186 C 0.36781 0.99548 0.02634 0.0
C187 C 0.39599 0.99305 0.02547 0.0
C188 C 0.40768 0.96799 0.01772 0.0
C189 C 0.36471 0.94858 0.00373 0.0
C190 C 0.35208 0.97323 0.01332 0.0
H191 H 0.42877 0.96608 0.02679 0.0
H192 H 0.35189 0.93129 -9e-05 0.0
H193 H 0.44823 0.893 0.09573 0.0
H194 H 0.39448 0.9332 0.18805 0.0
H195 H 0.3934 0.87681 0.84441 0.0
H196 H 0.40886 1.00941 0.03762 0.0
H197 H 0.33019 0.97415 0.01533 0.0
C198 C 0.93619 0.63279 0.84244 0.0
C199 C 0.92888 0.62296 0.79833 0.0
N200 N 0.91267 0.60146 0.80501 0.0
N201 N 0.92512 0.61729 0.87709 0.0
C202 C 0.91159 0.59785 0.853 0.0
H203 H 0.94632 0.65182 0.84848 0.0
Co204 Co 0.91811 0.62944 0.93944 0.0
C205 C 0.94952 0.59083 0.00023 0.0
O206 O 0.95683 0.6113 0.02727 0.0
N207 N 0.90914 0.64341 -0.00051 0.0
C208 C 0.89726 0.65626 0.07321 0.0
C209 C 0.90595 0.63487 0.0452 0.0
C210 C 0.89997 0.66893 0.00018 0.0
N211 N 0.89389 0.67783 0.04448 0.0
O212 O 0.88171 0.61518 0.93532 0.0
H213 H 0.90917 0.61449 0.05758 0.0
H214 H 0.89716 0.68068 0.96792 0.0
O215 O 0.93249 0.59474 0.966 0.0
C216 C 0.86635 0.62866 0.90739 0.0
O217 O 0.87617 0.65028 0.88642 0.0
N218 N 0.95354 0.64503 0.94168 0.0
C219 C 1.00425 0.66836 0.92565 0.0
C220 C 1.00098 0.64036 0.92483 0.0
C221 C 0.97548 0.62926 0.93114 0.0
C222 C 0.95664 0.67244 0.94393 0.0
C223 C 0.98184 0.68453 0.93601 0.0
H224 H 0.97315 0.60816 0.92299 0.0
H225 H 0.93945 0.68551 0.94727 0.0
H226 H 0.89818 0.58364 0.87037 0.0
H227 H 0.93329 0.63242 0.76425 0.0
H228 H 0.89408 0.65597 0.11163 0.0
H229 H 0.0174 0.62719 0.91402 0.0
H230 H 0.98338 0.7063 0.9346 0.0
C231 C 0.60466 0.10081 0.10469 0.0
C232 C 0.60193 0.10709 0.15244 0.0
N233 N 0.6099 0.13281 0.15874 0.0
N234 N 0.61428 0.12253 0.08104 0.0
C235 C 0.61725 0.14174 0.115 0.0
H236 H 0.60085 0.08133 0.08869 0.0
Co237 Co 0.62607 0.12414 0.01805 0.0
C238 C 0.58388 0.0916 0.96148 0.0
O239 O 0.59124 0.10132 0.91972 0.0
N240 N 0.63964 0.12636 0.95428 0.0
C241 C 0.6519 0.14336 0.88325 0.0
C242 C 0.63161 0.14218 0.91737 0.0
C243 C 0.66468 0.11809 0.94109 0.0
N244 N 0.67268 0.1281 0.89857 0.0
O245 O 0.60481 0.15652 0.00964 0.0
H246 H 0.61306 0.15375 0.91671 0.0
H247 H 0.67831 0.10715 0.96408 0.0
O248 O 0.59547 0.10009 -0.00025 0.0
C249 C 0.6201 0.17727 0.01211 0.0
O250 O 0.64646 0.17365 0.01322 0.0
N251 N 0.64821 0.09465 0.03039 0.0
C252 C 0.67997 0.0551 0.0728 0.0
C253 C 0.65863 0.0481 0.04158 0.0
C254 C 0.64317 0.06826 0.02011 0.0
C255 C 0.67042 0.10189 0.0563 0.0
C256 C 0.68708 0.08243 0.07663 0.0
H257 H 0.62621 0.0624 -0.00186 0.0
H258 H 0.67447 0.12303 0.06281 0.0
H259 H 0.62551 0.16157 0.10823 0.0
H260 H 0.59448 0.09385 0.18035 0.0
H261 H 0.65196 0.15568 0.85122 0.0
H262 H 0.65215 0.02745 0.03677 0.0
H263 H 0.7041 0.08899 0.09812 0.0
C264 C 0.60832 0.6355 0.88267 0.0
C265 C 0.61497 0.62644 0.92751 0.0
N266 N 0.62918 0.60341 0.92276 0.0
N267 N 0.61759 0.61798 0.84935 0.0
C268 C 0.62974 0.59834 0.87507 0.0
H269 H 0.5996 0.65501 0.87508 0.0
Co270 Co 0.62361 0.62677 0.78483 0.0
C271 C 0.58664 0.59019 0.73142 0.0
O272 O 0.58048 0.6112 0.70488 0.0
N273 N 0.63182 0.63693 0.72205 0.0
C274 C 0.64347 0.64141 0.64525 0.0
C275 C 0.63406 0.62377 0.67971 0.0
C276 C 0.64229 0.6615 0.71317 0.0
N277 N 0.6486 0.66522 0.66669 0.0
O278 O 0.65873 0.60976 0.78786 0.0
H279 H 0.62975 0.60263 0.67411 0.0
H280 H 0.64575 0.67637 0.74078 0.0
O281 O 0.60536 0.59247 0.76339 0.0
C282 C 0.67547 0.62417 0.81159 0.0
O283 O 0.66728 0.64745 0.82883 0.0
N284 N 0.58964 0.64542 0.784 0.0
C285 C 0.54277 0.67431 0.80685 0.0
C286 C 0.54303 0.64614 0.80868 0.0
C287 C 0.56677 0.63227 0.79898 0.0
C288 C 0.58924 0.67292 0.77996 0.0
C289 C 0.56601 0.68777 0.79122 0.0
H290 H 0.5673 0.61121 0.80851 0.0
H291 H 0.60747 0.68401 0.77325 0.0
H292 H 0.64149 0.58239 0.85874 0.0
H293 H 0.61121 0.63715 0.96067 0.0
H294 H 0.64653 0.63698 0.60759 0.0
H295 H 0.52602 0.63499 0.82319 0.0
H296 H 0.5669 0.70959 0.79146 0.0
C297 C 0.63568 0.42821 0.09363 0.0
C298 C 0.62784 0.42244 0.04758 0.0
N299 N 0.60562 0.40673 0.04942 0.0
N300 N 0.6182 0.41673 0.12479 0.0
C301 C 0.59966 0.40446 0.09658 0.0
H302 H 0.65459 0.43772 0.10328 0.0
Co303 Co 0.62643 0.40796 0.18855 0.0
C304 C 0.58577 0.43957 0.24541 0.0
O305 O 0.60511 0.44513 0.27626 0.0
N306 N 0.6364 0.39721 0.25052 0.0
C307 C 0.64153 0.38283 0.32574 0.0
C308 C 0.6233 0.39249 0.29229 0.0
C309 C 0.66166 0.38794 0.25846 0.0
N310 N 0.66573 0.38001 0.30404 0.0
O311 O 0.61074 0.37249 0.17879 0.0
H312 H 0.60185 0.39525 0.29813 0.0
H313 H 0.67683 0.38641 0.23076 0.0
O314 O 0.59084 0.42356 0.2101 0.0
C315 C 0.62685 0.35767 0.1545 0.0
O316 O 0.65104 0.36723 0.14455 0.0
N317 N 0.64364 0.44234 0.19569 0.0
C318 C 0.67105 0.4906 0.17771 0.0
C319 C 0.64277 0.4898 0.17845 0.0
C320 C 0.62959 0.46542 0.18552 0.0
C321 C 0.6713 0.44331 0.19822 0.0
C322 C 0.68542 0.46724 0.18934 0.0
H323 H 0.60841 0.46485 0.17657 0.0
H324 H 0.68299 0.42518 0.20087 0.0
H325 H 0.58413 0.39127 0.11057 0.0
H326 H 0.63904 0.42768 0.01557 0.0
H327 H 0.63721 0.37792 0.3628 0.0
H328 H 0.63091 0.50701 0.16699 0.0
H329 H 0.70731 0.46685 0.18697 0.0
C330 C 0.42793 0.39081 0.86714 0.0
C331 C 0.42032 0.39927 0.91197 0.0
N332 N 0.40545 0.42188 0.90724 0.0
N333 N 0.41854 0.40832 0.83404 0.0
C334 C 0.40522 0.42722 0.85969 0.0
H335 H 0.43766 0.37181 0.8592 0.0
Co336 Co 0.41429 0.40045 0.7691 0.0
C337 C 0.44896 0.44023 0.71899 0.0
O338 O 0.45592 0.42019 0.69065 0.0
N339 N 0.40779 0.39089 0.7051 0.0
C340 C 0.39483 0.38797 0.62856 0.0
C341 C 0.40343 0.40518 0.66449 0.0
C342 C 0.39971 0.36573 0.69373 0.0
N343 N 0.39234 0.36316 0.64753 0.0
O344 O 0.37789 0.4147 0.77208 0.0
H345 H 0.40525 0.42683 0.66143 0.0
H346 H 0.39795 0.34967 0.71956 0.0
O347 O 0.4303 0.43636 0.7506 0.0
C348 C 0.36232 0.396 0.78716 0.0
O349 O 0.37292 0.37205 0.79456 0.0
N350 N 0.44965 0.38451 0.76895 0.0
C351 C 0.49863 0.3595 0.79211 0.0
C352 C 0.49585 0.38746 0.79538 0.0
C353 C 0.47107 0.39932 0.78571 0.0
C354 C 0.45243 0.35719 0.7639 0.0
C355 C 0.47676 0.34425 0.77545 0.0
H356 H 0.46857 0.42004 0.79656 0.0
H357 H 0.43527 0.3447 0.75615 0.0
H358 H 0.39323 0.44295 0.8433 0.0
H359 H 0.42416 0.38858 0.94507 0.0
H360 H 0.38986 0.39342 0.592 0.0
H361 H 0.51171 0.3998 0.81096 0.0
H362 H 0.47779 0.32243 0.77491 0.0
C363 C 0.40105 0.60641 0.09259 0.0
C364 C 0.41066 0.61522 0.04927 0.0
N365 N 0.43241 0.63093 0.05741 0.0
N366 N 0.41699 0.61593 0.12817 0.0
C367 C 0.43627 0.6304 0.10539 0.0
H368 H 0.38204 0.59602 0.09775 0.0
Co369 Co 0.40564 0.61968 0.19166 0.0
C370 C 0.44416 0.58556 0.24757 0.0
O371 O 0.42327 0.57741 0.27289 0.0
N372 N 0.39218 0.62567 0.25364 0.0
C373 C 0.38025 0.63411 0.32944 0.0
C374 C 0.40145 0.62725 0.29923 0.0
C375 C 0.36633 0.63403 0.25696 0.0
N376 N 0.35801 0.63801 0.30234 0.0
O377 O 0.42003 0.65602 0.19233 0.0
H378 H 0.42221 0.62407 0.3101 0.0
H379 H 0.35391 0.63804 0.22594 0.0
O380 O 0.44071 0.60382 0.2153 0.0
C381 C 0.40331 0.67268 0.17396 0.0
O382 O 0.3797 0.66371 0.15925 0.0
N383 N 0.38988 0.58437 0.18873 0.0
C384 C 0.36603 0.53522 0.16347 0.0
C385 C 0.39417 0.5383 0.16307 0.0
C386 C 0.40554 0.5631 0.17425 0.0
C387 C 0.36236 0.58129 0.19082 0.0
C388 C 0.35004 0.55686 0.17859 0.0
H389 H 0.42675 0.56572 0.16653 0.0
H390 H 0.34929 0.59815 0.19715 0.0
H391 H 0.45088 0.64286 0.12398 0.0
H392 H 0.40112 0.61185 0.01483 0.0
H393 H 0.38115 0.63579 0.36813 0.0
H394 H 0.40724 0.52261 0.14905 0.0
H395 H 0.32815 0.55555 0.17747 0.0
C396 C 0.60785 0.89809 0.34547 0.0
C397 C 0.61589 0.9104 0.30375 0.0
N398 N 0.62884 0.93339 0.3154 0.0
N399 N 0.61541 0.91348 0.38312 0.0
C400 C 0.6277 0.93507 0.36364 0.0
H401 H 0.5994 0.87804 0.34829 0.0
Co402 Co 0.61969 0.90098 0.44508 0.0
C403 C 0.58638 0.93915 0.50224 0.0
O404 O 0.57792 0.91813 0.52668 0.0
N405 N 0.62599 0.88676 0.50611 0.0
C406 C 0.63638 0.87551 0.58134 0.0
C407 C 0.62887 0.89639 0.55125 0.0
C408 C 0.63384 0.86087 0.50935 0.0
N409 N 0.63919 0.85307 0.55451 0.0
O410 O 0.65681 0.91387 0.44393 0.0
H411 H 0.62643 0.91725 0.5617 0.0
H412 H 0.63684 0.84812 0.47839 0.0
O413 O 0.60541 0.93598 0.47114 0.0
C414 C 0.67094 0.89647 0.4212 0.0
O415 O 0.6589 0.87404 0.40781 0.0
N416 N 0.58377 0.88655 0.44252 0.0
C417 C 0.53361 0.86474 0.41711 0.0
C418 C 0.53772 0.89261 0.41702 0.0
C419 C 0.56305 0.90295 0.42798 0.0
C420 C 0.57973 0.85926 0.44403 0.0
C421 C 0.55478 0.84793 0.43147 0.0
H422 H 0.56646 0.92402 0.42054 0.0
H423 H 0.59622 0.84568 0.45031 0.0
H424 H 0.63851 0.94996 0.38466 0.0
H425 H 0.61399 0.90211 0.26796 0.0
H426 H 0.6395 0.87679 0.61972 0.0
H427 H 0.52236 0.90621 0.4034 0.0
H428 H 0.55267 0.8262 0.42967 0.0
C429 C 0.89163 0.42919 0.63295 0.0
C430 C 0.90033 0.42303 0.67822 0.0
N431 N 0.92289 0.40799 0.67438 0.0
N432 N 0.9089 0.41864 0.60032 0.0
C433 C 0.92812 0.40628 0.62688 0.0
H434 H 0.87231 0.43828 0.62466 0.0
Co435 Co 0.89877 0.41116 0.53697 0.0
C436 C 0.93769 0.44384 0.4795 0.0
O437 O 0.91703 0.45068 0.45242 0.0
N438 N 0.88647 0.40168 0.47572 0.0
C439 C 0.87543 0.39054 0.40072 0.0
C440 C 0.89611 0.39924 0.43053 0.0
C441 C 0.86099 0.39216 0.47284 0.0
N442 N 0.85313 0.38646 0.4277 0.0
O443 O 0.91363 0.37512 0.54369 0.0
H444 H 0.91671 0.40326 0.41962 0.0
H445 H 0.84846 0.38913 0.50412 0.0
O446 O 0.93415 0.42606 0.51258 0.0
C447 C 0.8979 0.3607 0.56945 0.0
O448 O 0.87454 0.37109 0.58254 0.0
N449 N 0.88252 0.44623 0.53315 0.0
C450 C 0.8575 0.49548 0.55373 0.0
C451 C 0.88569 0.49303 0.55479 0.0
C452 C 0.8976 0.4682 0.5463 0.0
C453 C 0.855 0.4488 0.52906 0.0
C454 C 0.84207 0.47325 0.53934 0.0
H455 H 0.91869 0.4662 0.55563 0.0
H456 H 0.84236 0.43154 0.5231 0.0
H457 H 0.94356 0.39337 0.61165 0.0
H458 H 0.88965 0.42748 0.7112 0.0
H459 H 0.87669 0.38795 0.36222 0.0
H460 H 0.89834 0.50924 0.5682 0.0
H461 H 0.82016 0.47411 0.53999 0.0
C462 C 0.44043 0.13422 0.32284 0.0
C463 C 0.43393 0.125 0.27802 0.0
N464 N 0.41706 0.10387 0.28284 0.0
N465 N 0.42838 0.1186 0.35632 0.0
C466 C 0.41475 0.09984 0.33064 0.0
H467 H 0.45088 0.15295 0.32999 0.0
Co468 Co 0.42121 0.13042 0.419 0.0
C469 C 0.45342 0.09322 0.48007 0.0
O470 O 0.46046 0.11462 0.505 0.0
N471 N 0.41202 0.14405 0.47912 0.0
C472 C 0.39904 0.15526 0.55304 0.0
C473 C 0.40831 0.13456 0.5241 0.0
C474 C 0.40266 0.16948 0.481 0.0
N475 N 0.39581 0.17738 0.52557 0.0
O476 O 0.38467 0.11612 0.41455 0.0
H477 H 0.41154 0.11396 0.53527 0.0
H478 H 0.40015 0.18181 0.44935 0.0
O479 O 0.43578 0.09573 0.44629 0.0
C480 C 0.36907 0.12967 0.38706 0.0
O481 O 0.37886 0.15108 0.3654 0.0
N482 N 0.45683 0.14612 0.42169 0.0
C483 C 0.50806 0.16939 0.41027 0.0
C484 C 0.50449 0.14153 0.40603 0.0
C485 C 0.47876 0.1305 0.4102 0.0
C486 C 0.46013 0.17341 0.4264 0.0
C487 C 0.48557 0.18546 0.42081 0.0
H488 H 0.47633 0.10952 0.40083 0.0
H489 H 0.44301 0.1865 0.43068 0.0
H490 H 0.40066 0.08575 0.34657 0.0
H491 H 0.43949 0.1346 0.2446 0.0
H492 H 0.39527 0.1541 0.59124 0.0
H493 H 0.52104 0.12856 0.3951 0.0
H494 H 0.48738 0.20722 0.42204 0.0
C495 C 0.1442 0.5961 0.63168 0.0
C496 C 0.13719 0.60263 0.67774 0.0
N497 N 0.11357 0.61613 0.67656 0.0
N498 N 0.12488 0.60493 0.60123 0.0
C499 C 0.10617 0.6166 0.62984 0.0
H500 H 0.16372 0.58832 0.62095 0.0
Co501 Co 0.13186 0.612 0.53659 0.0
C502 C 0.09204 0.5774 0.48476 0.0
O503 O 0.11209 0.57063 0.45613 0.0
N504 N 0.14083 0.62119 0.4738 0.0
C505 C 0.14585 0.63365 0.39758 0.0
C506 C 0.12794 0.62361 0.43124 0.0
C507 C 0.16546 0.63196 0.46589 0.0
N508 N 0.16951 0.63887 0.4198 0.0
O509 O 0.11601 0.64755 0.54388 0.0
H510 H 0.10686 0.61901 0.42493 0.0
H511 H 0.18027 0.63477 0.49396 0.0
O512 O 0.09609 0.59551 0.5172 0.0
C513 C 0.13121 0.66347 0.56787 0.0
O514 O 0.1549 0.65461 0.58241 0.0
N515 N 0.14921 0.57754 0.53165 0.0
C516 C 0.17674 0.52941 0.54981 0.0
C517 C 0.14863 0.53091 0.55476 0.0
C518 C 0.13553 0.55524 0.54747 0.0
C519 C 0.17655 0.5759 0.52399 0.0
C520 C 0.19076 0.55204 0.5332 0.0
H521 H 0.11481 0.55663 0.55943 0.0
H522 H 0.18822 0.59355 0.51578 0.0
H523 H 0.08907 0.62779 0.61608 0.0
H524 H 0.15009 0.60033 0.70885 0.0
H525 H 0.1417 0.63707 0.35994 0.0
H526 H 0.1372 0.51434 0.57006 0.0
H527 H 0.21266 0.55191 0.53104 0.0
H528 H 0.17242 0.32362 0.01653 0.0
H529 H 0.13736 0.22391 0.23116 0.0
H530 H 0.1405 0.34929 0.15315 0.0
H531 H 0.16645 0.19665 0.09309 0.0
H532 H 0.14478 0.27004 0.20676 0.0
H533 H 0.17686 0.27782 0.04757 0.0
C534 C 0.16657 0.31963 0.05328 0.0
C535 C 0.15555 0.34014 0.08211 0.0
C536 C 0.14983 0.25402 0.18188 0.0
C537 C 0.16061 0.28776 0.11788 0.0
C538 C 0.14578 0.22742 0.19592 0.0
C539 C 0.15131 0.206 0.1642 0.0
C540 C 0.15925 0.25957 0.13553 0.0
C541 C 0.16159 0.21236 0.11861 0.0
C542 C 0.16917 0.29349 0.071 0.0
C543 C 0.14901 0.33405 0.12978 0.0
N544 N 0.16505 0.23859 0.10551 0.0
N545 N 0.15128 0.3083 0.146 0.0
H546 H 0.19313 0.86503 0.88845 0.0
H547 H 0.34787 0.88765 0.81277 0.0
H548 H 0.2195 0.89184 0.74859 0.0
H549 H 0.32348 0.85965 0.95274 0.0
H550 H 0.30097 0.88356 0.7857 0.0
H551 H 0.24072 0.85855 0.91094 0.0
C552 C 0.20878 0.86937 0.86238 0.0
C553 C 0.20206 0.87892 0.81649 0.0
C554 C 0.3059 0.87804 0.82225 0.0
C555 C 0.25654 0.87147 0.84183 0.0
C556 C 0.33276 0.88015 0.83753 0.0
C557 C 0.33956 0.87447 0.88528 0.0
C558 C 0.28566 0.87025 0.85502 0.0
C559 C 0.31904 0.86496 0.91595 0.0
C560 C 0.23595 0.86554 0.87513 0.0
C561 C 0.22334 0.884 0.78408 0.0
N562 N 0.29299 0.86347 0.9005 0.0
N563 N 0.24947 0.88037 0.79747 0.0
H564 H 0.90452 0.84978 0.06318 0.0
H565 H 0.86845 0.69655 0.12497 0.0
H566 H 0.86191 0.82592 0.19145 0.0
H567 H 0.90713 0.72271 -0.00597 0.0
H568 H 0.8621 0.74397 0.14746 0.0
H569 H 0.90063 0.80365 0.03311 0.0
C570 C 0.8939 0.83498 0.08461 0.0
C571 C 0.88402 0.84162 0.13027 0.0
C572 C 0.87167 0.73922 0.11352 0.0
C573 C 0.87997 0.78858 0.0967 0.0
C574 C 0.87542 0.71215 0.10083 0.0
C575 C 0.88827 0.70546 0.05748 0.0
C576 C 0.88102 0.75971 0.08278 0.0
C577 C 0.89671 0.72664 0.02741 0.0
C578 C 0.89187 0.80854 0.06768 0.0
C579 C 0.87053 0.82152 0.15664 0.0
N580 N 0.89309 0.75267 0.04076 0.0
N581 N 0.86921 0.79584 0.13978 0.0
H582 H 0.8404 0.08533 0.86328 0.0
H583 H 0.70073 0.16783 0.85319 0.0
H584 H 0.83385 0.16627 0.80833 0.0
H585 H 0.70755 0.08636 0.90555 0.0
H586 H 0.74941 0.16778 0.83595 0.0
H587 H 0.79209 0.08621 0.88288 0.0
C588 C 0.82894 0.10351 0.8564 0.0
C589 C 0.84113 0.12575 0.83409 0.0
C590 C 0.74022 0.14985 0.85097 0.0
C591 C 0.78567 0.12667 0.85505 0.0
C592 C 0.71237 0.14978 0.8602 0.0
C593 C 0.70011 0.12709 0.88095 0.0
C594 C 0.75587 0.12706 0.86256 0.0
C595 C 0.71627 0.10437 0.89003 0.0
C596 C 0.80126 0.10389 0.86694 0.0
C597 C 0.82514 0.14863 0.82519 0.0
N598 N 0.74329 0.10497 0.88105 0.0
N599 N 0.79823 0.14844 0.83533 0.0
H600 H 0.63698 0.68116 0.57598 0.0
H601 H 0.66566 0.83644 0.63536 0.0
H602 H 0.67442 0.70792 0.70762 0.0
H603 H 0.62553 0.80711 0.50787 0.0
H604 H 0.67397 0.78953 0.65939 0.0
H605 H 0.6394 0.72712 0.54549 0.0
C606 C 0.64622 0.69657 0.59812 0.0
C607 C 0.65499 0.69073 0.64479 0.0
C608 C 0.66362 0.7935 0.62589 0.0
C609 C 0.65721 0.74366 0.61067 0.0
C610 C 0.65872 0.82025 0.61237 0.0
C611 C 0.64503 0.82584 0.56938 0.0
C612 C 0.65465 0.7723 0.59625 0.0
C613 C 0.63665 0.804 0.54079 0.0
C614 C 0.64735 0.72293 0.58092 0.0
C615 C 0.66668 0.71165 0.67194 0.0
N616 N 0.64151 0.77833 0.55481 0.0
N617 N 0.66711 0.73726 0.65477 0.0
H618 H 0.80656 0.39526 0.47776 0.0
H619 H 0.70923 0.35706 0.26016 0.0
H620 H 0.83632 0.3648 0.34228 0.0
H621 H 0.68175 0.38875 0.39592 0.0
H622 H 0.7552 0.35442 0.29216 0.0
H623 H 0.76072 0.38775 0.45094 0.0
C624 C 0.80367 0.38654 0.44257 0.0
C625 C 0.82575 0.38055 0.41243 0.0
C626 C 0.73907 0.36167 0.31513 0.0
C627 C 0.7724 0.37249 0.38082 0.0
C628 C 0.71279 0.36325 0.29687 0.0
C629 C 0.69161 0.3736 0.32516 0.0
C630 C 0.74429 0.37053 0.36205 0.0
C631 C 0.69736 0.38064 0.37283 0.0
C632 C 0.77721 0.38244 0.42711 0.0
C633 C 0.82011 0.36995 0.3667 0.0
N634 N 0.72319 0.37929 0.38955 0.0
N635 N 0.79398 0.36641 0.35218 0.0
H636 H 0.36992 0.19374 0.60721 0.0
H637 H 0.40215 0.34897 0.55524 0.0
H638 H 0.40744 0.22364 0.47769 0.0
H639 H 0.36615 0.32043 0.68673 0.0
H640 H 0.39737 0.30373 0.52117 0.0
H641 H 0.36277 0.24041 0.63319 0.0
C642 C 0.37647 0.20999 0.58408 0.0
C643 C 0.38934 0.20456 0.54019 0.0
C644 C 0.39024 0.30742 0.55734 0.0
C645 C 0.3811 0.25799 0.5695 0.0
C646 C 0.39276 0.33331 0.57657 0.0
C647 C 0.38507 0.3383 0.62414 0.0
C648 C 0.37999 0.28641 0.58599 0.0
C649 C 0.37308 0.31724 0.65034 0.0
C650 C 0.37226 0.23665 0.59879 0.0
C651 C 0.39711 0.22657 0.51147 0.0
N652 N 0.37123 0.29214 0.63117 0.0
N653 N 0.39304 0.25219 0.52678 0.0
H654 H 0.3125 0.62657 0.25162 0.0
H655 H 0.21115 0.66532 0.46305 0.0
H656 H 0.33971 0.65928 0.38705 0.0
H657 H 0.18697 0.62866 0.32926 0.0
H658 H 0.2574 0.66914 0.43263 0.0
H659 H 0.26613 0.63288 0.27648 0.0
C660 C 0.30887 0.63554 0.28641 0.0
C661 C 0.33035 0.64264 0.31707 0.0
C662 C 0.24191 0.66054 0.40975 0.0
C663 C 0.2765 0.64926 0.34647 0.0
C664 C 0.21549 0.6583 0.42708 0.0
C665 C 0.1952 0.64616 0.39897 0.0
C666 C 0.24812 0.65059 0.36392 0.0
C667 C 0.20187 0.63812 0.3522 0.0
C668 C 0.28215 0.63894 0.30075 0.0
C669 C 0.32391 0.65337 0.36232 0.0
N670 N 0.22781 0.64018 0.3364 0.0
N671 N 0.29752 0.65626 0.37577 0.0
H672 H 0.21223 0.11156 0.25027 0.0
H673 H 0.33046 0.10952 0.44858 0.0
H674 H 0.19848 0.12828 0.40011 0.0
H675 H 0.34382 0.13113 0.30068 0.0
H676 H 0.28205 0.1027 0.43042 0.0
H677 H 0.26074 0.10497 0.26782 0.0
C678 C 0.21933 0.1132 0.28694 0.0
C679 C 0.2015 0.12069 0.32375 0.0
C680 C 0.29573 0.10852 0.40186 0.0
C681 C 0.25656 0.11305 0.34411 0.0
C682 C 0.3233 0.11225 0.41216 0.0
C683 C 0.34099 0.12116 0.37618 0.0
C684 C 0.28605 0.11319 0.35508 0.0
C685 C 0.33071 0.12459 0.32958 0.0
C686 C 0.24695 0.10963 0.2969 0.0
C687 C 0.21171 0.12281 0.37066 0.0
N688 N 0.30395 0.12067 0.32037 0.0
N689 N 0.23853 0.11909 0.37951 0.0
H690 H 0.11995 0.83423 0.57586 0.0
H691 H 0.13737 0.68445 0.65677 0.0
H692 H 0.11498 0.81184 0.7249 0.0
H693 H 0.10495 0.70341 0.5173 0.0
H694 H 0.12845 0.73069 0.68281 0.0
H695 H 0.11328 0.78694 0.55309 0.0
C696 C 0.11689 0.81932 0.60375 0.0
C697 C 0.11797 0.8268 0.65229 0.0
C698 C 0.12286 0.72472 0.64674 0.0
C699 C 0.11118 0.77261 0.62661 0.0
C700 C 0.12804 0.69837 0.63179 0.0
C701 C 0.12198 0.69021 0.58476 0.0
C702 C 0.11234 0.74343 0.61396 0.0
C703 C 0.10982 0.70894 0.55389 0.0
C704 C 0.11307 0.79237 0.59075 0.0
C705 C 0.11407 0.80683 0.6871 0.0
N706 N 0.10591 0.73489 0.56872 0.0
N707 N 0.11139 0.78051 0.67361 0.0
H708 H 0.81568 0.87417 0.25978 0.0
H709 H 0.70101 0.94423 0.42046 0.0
H710 H 0.83401 0.94688 0.3381 0.0
H711 H 0.70473 0.86013 0.38091 0.0
H712 H 0.74588 0.95088 0.38237 0.0
H713 H 0.76972 0.87533 0.2911 0.0
C714 C 0.80973 0.8908 0.28277 0.0
C715 C 0.82855 0.9105 0.29615 0.0
C716 C 0.73673 0.93104 0.3824 0.0
C717 C 0.77603 0.91145 0.33405 0.0
C718 C 0.71128 0.92719 0.40434 0.0
C719 C 0.69897 0.90158 0.40386 0.0
C720 C 0.74955 0.90919 0.35943 0.0
C721 C 0.71311 0.88029 0.38204 0.0
C722 C 0.78356 0.89131 0.30115 0.0
C723 C 0.81988 0.93151 0.32644 0.0
N724 N 0.73734 0.88463 0.36065 0.0
N725 N 0.79422 0.93129 0.34501 0.0
H726 H 0.88395 0.34275 0.65729 0.0
H727 H 0.94776 0.19519 0.62927 0.0
H728 H 0.93203 0.32063 0.53419 0.0
H729 H 0.8836 0.2173 0.72647 0.0
H730 H 0.95139 0.24268 0.60426 0.0
H731 H 0.89331 0.29917 0.6931 0.0
C732 C 0.89654 0.32863 0.63769 0.0
C733 C 0.90667 0.3351 0.5921 0.0
C734 C 0.93695 0.23715 0.6318 0.0
C735 C 0.91743 0.28461 0.63315 0.0
C736 C 0.935 0.21007 0.64637 0.0
C737 C 0.91516 0.20227 0.67978 0.0
C738 C 0.91927 0.25643 0.65155 0.0
C739 C 0.89914 0.22243 0.70058 0.0
C740 C 0.90196 0.30369 0.65831 0.0
C741 C 0.92357 0.31627 0.56918 0.0
N742 N 0.90143 0.24842 0.68598 0.0
N743 N 0.92811 0.29161 0.58962 0.0
H744 H 0.33637 0.4434 0.81479 0.0
H745 H 0.21032 0.35854 0.91179 0.0
H746 H 0.32323 0.35828 0.79281 0.0
H747 H 0.20334 0.44476 0.89571 0.0
H748 H 0.25533 0.36034 0.87772 0.0
H749 H 0.29037 0.44677 0.84975 0.0
C750 C 0.3237 0.4256 0.81647 0.0
C751 C 0.33369 0.40047 0.80111 0.0
C752 C 0.24414 0.379 0.88151 0.0
C753 C 0.28176 0.40406 0.84169 0.0
C754 C 0.21837 0.37799 0.9013 0.0
C755 C 0.20289 0.4015 0.90629 0.0
C756 C 0.25491 0.40372 0.86615 0.0
C757 C 0.21467 0.42616 0.89258 0.0
C758 C 0.2976 0.4275 0.83669 0.0
C759 C 0.31658 0.37801 0.80461 0.0
N760 N 0.24004 0.42666 0.87274 0.0
N761 N 0.29173 0.38033 0.82471 0.0
H762 H 0.44341 0.82438 0.03447 0.0
H763 H 0.37371 0.71444 0.20578 0.0
H764 H 0.37107 0.83633 0.11878 0.0
H765 H 0.4453 0.69609 0.12374 0.0
H766 H 0.37694 0.7613 0.18066 0.0
H767 H 0.44838 0.77923 0.07097 0.0
C768 C 0.42869 0.81762 0.06065 0.0
C769 C 0.40658 0.83408 0.073 0.0
C770 C 0.39229 0.74729 0.16848 0.0
C771 C 0.41228 0.78286 0.11514 0.0
C772 C 0.39053 0.72055 0.18327 0.0
C773 C 0.40943 0.70156 0.16732 0.0
C774 C 0.41275 0.7552 0.13628 0.0
C775 C 0.43061 0.71035 0.13748 0.0
C776 C 0.43156 0.79191 0.08151 0.0
C777 C 0.38824 0.82436 0.10739 0.0
N778 N 0.43152 0.73654 0.12231 0.0
N779 N 0.39148 0.79957 0.12693 0.0
H780 H 0.82656 0.60698 0.96463 0.0
H781 H 0.71627 0.6065 0.75269 0.0
H782 H 0.8444 0.6289 0.81835 0.0
H783 H 0.69638 0.6211 0.90102 0.0
H784 H 0.764 0.60011 0.77596 0.0
H785 H 0.77932 0.59784 0.94092 0.0
C786 C 0.82063 0.60934 0.92745 0.0
C787 C 0.83913 0.61908 0.89351 0.0
C788 C 0.74904 0.60415 0.80347 0.0
C789 C 0.78566 0.6084 0.86611 0.0
C790 C 0.72188 0.60757 0.79023 0.0
C791 C 0.70261 0.61444 0.82503 0.0
C792 C 0.75671 0.60725 0.85184 0.0
C793 C 0.71081 0.61598 0.87318 0.0
C794 C 0.79375 0.60425 0.91397 0.0
C795 C 0.83053 0.62186 0.84574 0.0
N796 N 0.73726 0.61256 0.88518 0.0
N797 N 0.80442 0.61665 0.83347 0.0
H798 H 0.58296 0.19308 0.08012 0.0
H799 H 0.63805 0.34451 0.06285 0.0
H800 H 0.63597 0.22365 0.97017 0.0
H801 H 0.59448 0.31553 0.1865 0.0
H802 H 0.62833 0.3025 0.02124 0.0
H803 H 0.57802 0.23925 0.11199 0.0
C804 C 0.59268 0.20966 0.0616 0.0
C805 C 0.6098 0.20466 0.02232 0.0
C806 C 0.6207 0.30517 0.05738 0.0
C807 C 0.60466 0.2572 0.0588 0.0
C808 C 0.62632 0.3292 0.08124 0.0
C809 C 0.61754 0.33326 0.12856 0.0
C810 C 0.60652 0.28456 0.08109 0.0
C811 C 0.60181 0.31304 0.15015 0.0
C812 C 0.59014 0.23592 0.08013 0.0
C813 C 0.62248 0.22668 0.00036 0.0
N814 N 0.59718 0.28928 0.12653 0.0
N815 N 0.61981 0.25184 0.01904 0.0
H816 H 0.09489 0.04131 0.2556 0.0
H817 H 0.9383 0.99887 0.23793 0.0
H818 H 0.03369 0.09459 0.19908 0.0
H819 H 1.00295 0.94139 0.21924 0.0
H820 H 0.97244 0.03533 0.24052 0.0
H821 H 0.06073 1.00494 0.25854 0.0
C822 C 0.07442 0.04535 0.24368 0.0
C823 C 0.0674 0.07097 0.22628 0.0
C824 C 0.97903 1.01466 0.23599 0.0
C825 C 0.02805 0.02985 0.23112 0.0
C826 C 0.95957 0.99391 0.23463 0.0
C827 C 0.9677 0.9671 0.22757 0.0
C828 C 1.00679 1.00841 0.23169 0.0
C829 C 0.99566 0.96182 0.22381 0.0
C830 C 0.05493 0.02466 0.24545 0.0
C831 C 0.04033 0.07509 0.2119 0.0
N832 N 1.01412 0.98216 0.22614 0.0
N833 N 0.02172 0.05493 0.21495 0.0
H834 H 0.06602 0.97786 0.80955 0.0
H835 H 0.9733 0.04478 0.60768 0.0
H836 H 0.05161 0.94234 0.6705 0.0
H837 H 0.96998 0.07146 0.75509 0.0
H838 H 1.00356 1.00861 0.63087 0.0
H839 H 0.0318 1.01229 0.79202 0.0
C840 C 0.05532 0.97694 0.77566 0.0
C841 C 0.06185 0.95699 0.7415 0.0
C842 C 0.99629 0.02228 0.65834 0.0
C843 C 0.02292 0.99699 0.72076 0.0
C844 C 0.979 0.04324 0.6451 0.0
C845 C 0.96885 0.0615 0.67941 0.0
C846 C 1.00405 0.0193 0.70644 0.0
C847 C 0.97727 0.05806 0.72727 0.0
C848 C 0.03584 0.99675 0.76563 0.0
C849 C 0.04728 0.95706 0.69817 0.0
N850 N 0.99443 0.03744 0.73933 0.0
N851 N 0.02885 0.97687 0.68891 0.0
H852 H 0.07089 0.47222 0.07754 0.0
H853 H 0.96295 0.55674 0.92521 0.0
H854 H 0.07515 0.4776 0.92333 0.0
H855 H 0.97863 0.571 0.07535 0.0
H856 H 1.00007 0.52364 0.92407 0.0
H857 H 0.0347 0.50578 0.07755 0.0
C858 C 0.06457 0.48088 0.04367 0.0
C859 C 0.07628 0.47213 0.00043 0.0
C860 C 0.99519 0.53387 0.95731 0.0
C861 C 0.03386 0.51006 -1e-05 0.0
C862 C 0.97372 0.55248 0.95819 0.0
C863 C 0.96752 0.56667 0.00054 0.0
C864 C 1.01032 0.52908 -0.00075 0.0
C865 C 0.98259 0.56056 0.04192 0.0
C866 C 0.0437 0.49991 0.04367 0.0
C867 C 0.06697 0.48392 0.95759 0.0
N868 N 1.00316 0.54232 0.04023 0.0
N869 N 0.04606 0.50198 0.95838 0.0
H870 H 0.47344 0.96294 0.88242 0.0
H871 H 0.5654 0.06288 0.04037 0.0
H872 H 0.48129 0.95478 0.03579 0.0
H873 H 0.55885 0.06612 0.88612 0.0
H874 H 0.53606 0.02289 0.04048 0.0
H875 H 0.50697 0.99902 0.88377 0.0
C876 C 0.48263 0.96838 0.91638 0.0
C877 C 0.47445 0.95565 0.95901 0.0
C878 C 0.5411 0.03235 0.00663 0.0
C879 C 0.5127 0.99791 0.9611 0.0
C880 C 0.55781 0.05532 0.00654 0.0
C881 C 0.56475 0.06814 0.96318 0.0
C882 C 0.53111 0.022 0.96304 0.0
C883 C 0.55414 0.05718 0.92054 0.0
C884 C 0.5017 0.98922 0.91719 0.0
C885 C 0.4871 0.96378 0.00194 0.0
N886 N 0.53797 0.03492 0.92161 0.0
N887 N 0.50531 0.98459 0.00198 0.0
H888 H 0.50324 0.43771 0.70513 0.0
H889 H 0.53249 0.59379 0.71633 0.0
H890 H 0.44043 0.49364 0.74592 0.0
H891 H 0.59444 0.53593 0.75201 0.0
H892 H 0.49866 0.5579 0.71819 0.0
H893 H 0.53675 0.47353 0.71313 0.0
C894 C 0.49639 0.45764 0.71542 0.0
C895 C 0.46878 0.46272 0.72419 0.0
C896 C 0.51961 0.55303 0.72578 0.0
C897 C 0.50746 0.50404 0.73328 0.0
C898 C 0.53907 0.57344 0.72429 0.0
C899 C 0.56653 0.56782 0.7334 0.0
C900 C 0.52756 0.52649 0.73535 0.0
C901 C 0.5736 0.54115 0.74448 0.0
C902 C 0.51569 0.47801 0.72044 0.0
C903 C 0.4614 0.48885 0.73848 0.0
N904 N 0.55429 0.52138 0.74443 0.0
N905 N 0.48059 0.50866 0.74189 0.0
H906 H 0.46512 0.55882 0.32394 0.0
H907 H 0.5559 0.4576 0.16769 0.0
H908 H 0.4775 0.57037 0.17223 0.0
H909 H 0.5626 0.46532 0.32137 0.0
H910 H 0.52329 0.49519 0.16746 0.0
H911 H 0.49829 0.52229 0.32287 0.0
C912 C 0.47525 0.55402 0.2905 0.0
C913 C 0.4686 0.56792 0.24823 0.0
C914 C 0.53176 0.48847 0.20122 0.0
C915 C 0.50611 0.52511 0.24631 0.0
C916 C 0.55006 0.46672 0.20148 0.0
C917 C 0.56196 0.45811 0.2447 0.0
C918 C 0.52497 0.50145 0.24456 0.0
C919 C 0.55394 0.47115 0.28722 0.0
C920 C 0.49406 0.53296 0.28982 0.0
C921 C 0.4822 0.56048 0.20582 0.0
N922 N 0.53605 0.49201 0.28607 0.0
N923 N 0.50001 0.53936 0.20579 0.0
H924 H 0.59737 0.9914 0.47237 0.0
H925 H 0.44255 0.03886 0.46517 0.0
H926 H 0.53254 0.9406 0.52342 0.0
H927 H 0.50751 0.09426 0.49676 0.0
H928 H 0.4754 1.00131 0.46946 0.0
H929 H 0.56465 0.02878 0.46468 0.0
C930 C 0.57641 0.98813 0.48221 0.0
C931 C 0.5679 0.96293 0.49942 0.0
C932 C 0.48232 0.02177 0.47539 0.0
C933 C 0.53026 1.00514 0.48897 0.0
C934 C 0.46362 0.04312 0.47288 0.0
C935 C 0.47215 0.06968 0.48142 0.0
C936 C 0.50983 0.02717 0.48495 0.0
C937 C 0.49985 0.07407 0.49086 0.0
C938 C 0.55774 1.00939 0.47768 0.0
C939 C 0.54027 0.95977 0.51091 0.0
N940 N 0.51764 0.05316 0.49205 0.0
N941 N 0.52249 0.98046 0.50512 0.0
H942 H 0.93793 0.49672 0.45344 0.0
H943 H 0.09474 0.52294 0.47903 0.0
H944 H 0.99031 0.43547 0.5121 0.0
H945 H 0.03724 0.58731 0.49942 0.0
H946 H 0.05775 0.49021 0.48161 0.0
H947 H 0.97466 0.5294 0.45973 0.0
C948 C 0.95728 0.48996 0.46717 0.0
C949 C 0.96104 0.46301 0.48166 0.0
C950 C 0.05319 0.51145 0.48577 0.0
C951 C 1.00343 0.50082 0.48889 0.0
C952 C 0.07425 0.53024 0.48398 0.0
C953 C 0.06907 0.55803 0.48861 0.0
C954 C 0.02645 0.52038 0.49094 0.0
C955 C 0.04215 0.56615 0.49562 0.0
C956 C 0.97816 0.50884 0.47121 0.0
C957 C 0.98651 0.45588 0.50013 0.0
N958 N 0.02178 0.54744 0.4958 0.0
N959 N 1.00685 0.47457 0.50262 0.0
H960 H 0.19991 0.98435 0.59063 0.0
H961 H 0.14315 0.1253 0.50424 0.0
H962 H 0.16461 0.04395 0.68432 0.0
H963 H 0.14895 0.0537 0.41643 0.0
H964 H 0.16796 0.10233 0.56754 0.0
H965 H 0.20053 0.01744 0.52578 0.0
C966 C 0.19366 1.00485 0.59828 0.0
C967 C 0.1817 1.01143 0.64242 0.0
C968 C 0.16411 0.09183 0.53411 0.0
C969 C 0.18169 0.04889 0.56848 0.0
C970 C 0.14953 0.10473 0.49814 0.0
C971 C 0.14302 0.09105 0.45543 0.0
C972 C 0.17237 0.06509 0.5274 0.0
C973 C 0.15312 0.06487 0.44895 0.0
C974 C 0.19365 0.02358 0.56106 0.0
C975 C 0.17366 0.03814 0.65045 0.0
N976 N 0.16698 0.05258 0.48489 0.0
N977 N 0.17316 0.0558 0.61334 0.0
H978 H 0.05133 0.8787 0.56142 0.0
H979 H 0.9857 0.82562 0.37483 0.0
H980 H 0.12353 0.88167 0.47418 0.0
H981 H 0.04627 0.86866 0.29406 0.0
H982 H 0.01741 0.8218 0.44163 0.0
H983 H 0.02872 0.8536 0.49811 0.0
C984 C 0.0626 0.87366 0.52933 0.0
C985 C 0.08911 0.88304 0.52269 0.0
C986 C 0.02399 0.83157 0.40893 0.0
C987 C 0.06355 0.85372 0.45003 0.0
C988 C 1.00612 0.83321 0.37034 0.0
C989 C 1.01321 0.84831 0.3297 0.0
C990 C 0.04876 0.84543 0.40652 0.0
C991 C 0.03992 0.85749 0.32548 0.0
C992 C 0.04978 0.85895 0.49326 0.0
C993 C 0.10273 0.87585 0.48026 0.0
N994 N 0.05656 0.85663 0.36414 0.0
N995 N 0.08961 0.86211 0.44516 0.0
H996 H 0.84229 0.99236 0.67125 0.0
H997 H 0.87809 0.98291 0.39918 0.0
H998 H 0.82793 0.05615 0.56913 0.0
H999 H 0.87903 0.91407 0.49412 0.0
H1000 H 0.85107 1.00727 0.45773 0.0
H1001 H 0.845 0.96029 0.60486 0.0
C1002 C 0.83873 0.99948 0.63506 0.0
C1003 C 0.836 0.02714 0.62567 0.0
C1004 C 0.85691 0.98669 0.46554 0.0
C1005 C 0.83958 0.99082 0.5497 0.0
C1006 C 0.87249 0.97275 0.43204 0.0
C1007 C 0.88154 0.94652 0.4419 0.0
C1008 C 0.85065 0.97455 0.5097 0.0
C1009 C 0.87346 0.93454 0.48535 0.0
C1010 C 0.84042 0.98118 0.59709 0.0
C1011 C 0.83065 0.03512 0.57824 0.0
N1012 N 0.85885 0.94879 0.51791 0.0
N1013 N 0.83348 0.01718 0.54188 0.0
H1014 H 0.95963 0.17021 0.55014 0.0
H1015 H 0.98264 0.1616 0.27762 0.0
H1016 H 0.89845 0.14101 0.45196 0.0
H1017 H 0.03344 0.2079 0.37268 0.0
H1018 H 0.94588 0.16462 0.33591 0.0
H1019 H 0.98144 0.1933 0.48431 0.0
C1020 C 0.95042 0.1688 0.51507 0.0
C1021 C 0.92745 0.15271 0.50681 0.0
C1022 C 0.9647 0.17499 0.34343 0.0
C1023 C 0.95291 0.17912 0.43043 0.0
C1024 C 0.98558 0.17347 0.30988 0.0
C1025 C 1.01119 0.18391 0.32109 0.0
C1026 C 0.96988 0.18648 0.38865 0.0
C1027 C 1.01405 0.19924 0.36307 0.0
C1028 C 0.96297 0.1822 0.47722 0.0
C1029 C 0.91667 0.15215 0.4601 0.0
N1030 N 0.99391 0.1993 0.39618 0.0
N1031 N 0.9298 0.16466 0.42355 0.0
H1032 H 0.21078 0.5342 0.62531 0.0
H1033 H 0.14173 0.40133 0.72067 0.0
H1034 H 0.17193 0.47504 0.53532 0.0
H1035 H 0.15798 0.47303 0.80405 0.0
H1036 H 0.16871 0.41978 0.65538 0.0
H1037 H 0.21057 0.50203 0.69143 0.0
C1038 C 0.20366 0.51387 0.6186 0.0
C1039 C 0.19057 0.50742 0.57543 0.0
C1040 C 0.16668 0.43124 0.68831 0.0
C1041 C 0.18942 0.47106 0.65099 0.0
C1042 C 0.15087 0.42096 0.72543 0.0
C1043 C 0.14675 0.43603 0.76761 0.0
C1044 C 0.17854 0.45677 0.69326 0.0
C1045 C 0.16025 0.46081 0.77215 0.0
C1046 C 0.2031 0.49567 0.65666 0.0
C1047 C 0.18169 0.48085 0.56857 0.0
N1048 N 0.17522 0.47056 0.73516 0.0
N1049 N 0.18041 0.46383 0.6066 0.0
H1050 H 0.40015 0.89535 0.23594 0.0
H1051 H 0.48007 0.87515 0.4324 0.0
H1052 H 0.47739 0.88926 0.1643 0.0
H1053 H 0.53474 0.83283 0.33829 0.0
H1054 H 0.44689 0.87703 0.36805 0.0
H1055 H 0.41868 0.87067 0.30396 0.0
C1056 C 0.42112 0.88913 0.23471 0.0
C1057 C 0.43759 0.89526 0.19504 0.0
C1058 C 0.46551 0.86608 0.36186 0.0
C1059 C 0.45882 0.86682 0.27273 0.0
C1060 C 0.48442 0.86491 0.39889 0.0
C1061 C 0.51023 0.85426 0.39017 0.0
C1062 C 0.47282 0.85683 0.31591 0.0
C1063 C 0.51508 0.84141 0.34619 0.0
C1064 C 0.43161 0.87484 0.27349 0.0
C1065 C 0.46415 0.88538 0.19444 0.0
N1066 N 0.4969 0.84392 0.30999 0.0
N1067 N 0.47405 0.87191 0.233 0.0
H1068 H 0.88842 0.55243 0.80927 0.0
H1069 H 0.82302 0.49214 0.62948 0.0
H1070 H 0.89498 0.62375 0.72134 0.0
H1071 H 0.86612 0.54966 0.54237 0.0
H1072 H 0.82487 0.52354 0.69676 0.0
H1073 H 0.85945 0.53215 0.74871 0.0
C1074 C 0.88345 0.564 0.77757 0.0
C1075 C 0.89478 0.58957 0.77003 0.0
C1076 C 0.83347 0.52956 0.66269 0.0
C1077 C 0.86092 0.56674 0.70055 0.0
C1078 C 0.83177 0.51192 0.6238 0.0
C1079 C 0.84544 0.51799 0.581 0.0
C1080 C 0.84917 0.55305 0.65834 0.0
C1081 C 0.85607 0.544 0.57541 0.0
C1082 C 0.86651 0.55255 0.74311 0.0
C1083 C 0.8876 0.60361 0.72811 0.0
N1084 N 0.85858 0.56031 0.61429 0.0
N1085 N 0.87154 0.59181 0.69461 0.0
H1086 H 0.62189 0.11456 0.24715 0.0
H1087 H 0.55981 0.1586 0.43974 0.0
H1088 H 0.59508 0.18496 0.17047 0.0
H1089 H 0.51421 0.20548 0.3379 0.0
H1090 H 0.59906 0.16075 0.38655 0.0
H1091 H 0.60929 0.13589 0.32222 0.0
C1092 C 0.61395 0.13491 0.24649 0.0
C1093 C 0.60878 0.14777 0.20279 0.0
C1094 C 0.58064 0.17093 0.37598 0.0
C1095 C 0.59425 0.17276 0.28875 0.0
C1096 C 0.55843 0.17017 0.40687 0.0
C1097 C 0.53358 0.18105 0.39221 0.0
C1098 C 0.5774 0.18176 0.3297 0.0
C1099 C 0.53289 0.19629 0.34994 0.0
C1100 C 0.60703 0.14739 0.28954 0.0
C1101 C 0.59901 0.17429 0.20359 0.0
N1102 N 0.55422 0.19541 0.31926 0.0
N1103 N 0.59127 0.18563 0.24587 0.0
H1104 H 0.65159 0.55326 0.91948 0.0
H1105 H 0.66715 0.54496 0.19332 0.0
H1106 H 0.64409 0.62369 0.01006 0.0
H1107 H 0.70181 0.48596 0.09774 0.0
H1108 H 0.66752 0.57779 0.12815 0.0
H1109 H 0.67668 0.53094 0.98311 0.0
C1110 C 0.65535 0.56421 0.95241 0.0
C1111 C 0.64494 0.59024 0.9595 0.0
C1112 C 0.67603 0.55799 0.12179 0.0
C1113 C 0.67365 0.56461 0.03296 0.0
C1114 C 0.67612 0.53938 0.15924 0.0
C1115 C 0.68384 0.51263 0.15042 0.0
C1116 C 0.68315 0.54942 0.07536 0.0
C1117 C 0.69534 0.50633 0.10576 0.0
C1118 C 0.66987 0.55146 -0.01123 0.0
C1119 C 0.65069 0.6033 0.00322 0.0
N1120 N 0.69374 0.52432 0.06925 0.0
N1121 N 0.66423 0.59018 0.03851 0.0
H1122 H 0.49476 0.3267 0.86924 0.0
H1123 H 0.62968 0.39413 0.96394 0.0
H1124 H 0.553 0.36651 0.77857 0.0
H1125 H 0.55688 0.3811 0.0469 0.0
H1126 H 0.60995 0.36828 0.89842 0.0
H1127 H 0.52729 0.32783 0.93515 0.0
C1128 C 0.51498 0.33428 0.86239 0.0
C1129 C 0.5211 0.34716 0.81896 0.0
C1130 C 0.59854 0.3708 0.93133 0.0
C1131 C 0.55784 0.3493 0.89421 0.0
C1132 C 0.60956 0.38599 0.96863 0.0
C1133 C 0.59464 0.39063 0.01088 0.0
C1134 C 0.5725 0.35999 0.93626 0.0
C1135 C 0.56911 0.37838 0.0151 0.0
C1136 C 0.53336 0.33534 0.90027 0.0
C1137 C 0.54749 0.35679 0.81195 0.0
N1138 N 0.55874 0.36389 0.97805 0.0
N1139 N 0.56472 0.35843 0.84977 0.0
H1140 H 0.38336 0.47207 0.90439 0.0
H1141 H 0.32928 0.53755 0.09085 0.0
H1142 H 0.39052 0.40149 -0.0057 0.0
H1143 H 0.37735 0.48144 0.1726 0.0
H1144 H 0.32699 0.50489 0.02548 0.0
H1145 H 0.3592 0.49472 0.9685 0.0
C1146 C 0.37945 0.46108 0.93717 0.0
C1147 C 0.3896 0.43495 0.94397 0.0
C1148 C 0.33761 0.49951 0.05807 0.0
C1149 C 0.36139 0.46076 0.01786 0.0
C1150 C 0.33842 0.51791 0.09587 0.0
C1151 C 0.35434 0.51244 0.13641 0.0
C1152 C 0.3531 0.47584 0.06103 0.0
C1153 C 0.36553 0.48661 0.14121 0.0
C1154 C 0.36527 0.47398 0.9738 0.0
C1155 C 0.38395 0.42192 -0.01233 0.0
N1156 N 0.36537 0.46947 0.10325 0.0
N1157 N 0.37071 0.43517 0.02326 0.0
H1158 H 0.48274 0.65264 0.06329 0.0
H1159 H 0.54923 0.70911 0.88137 0.0
H1160 H 0.41119 0.65063 0.9744 0.0
H1161 H 0.48785 0.66997 0.79624 0.0
H1162 H 0.51753 0.71163 0.94832 0.0
H1163 H 0.5054 0.6795 0.00248 0.0
C1164 C 0.47162 0.65826 0.03138 0.0
C1165 C 0.4453 0.64864 0.02345 0.0
C1166 C 0.51077 0.70296 0.91473 0.0
C1167 C 0.4709 0.68004 0.95365 0.0
C1168 C 0.52865 0.70215 0.87602 0.0
C1169 C 0.52135 0.68836 0.83397 0.0
C1170 C 0.48578 0.68959 0.911 0.0
C1171 C 0.4944 0.68005 0.82874 0.0
C1172 C 0.48446 0.67398 -0.00327 0.0
C1173 C 0.43185 0.65664 0.98136 0.0
N1174 N 0.47777 0.67997 0.86748 0.0
N1175 N 0.44499 0.6714 0.94766 0.0
H1176 H 0.69933 0.06471 0.16442 0.0
H1177 H 0.64205 0.98571 0.32832 0.0
H1178 H 0.68441 0.99938 0.06479 0.0
H1179 H 0.65376 0.91828 0.23256 0.0
H1180 H 0.66837 1.01373 0.27488 0.0
H1181 H 0.69919 0.03296 0.22934 0.0
C1182 C 0.69642 0.04369 0.15552 0.0
C1183 C 0.69006 0.03519 0.10861 0.0
C1184 C 0.66605 0.99267 0.26582 0.0
C1185 C 0.68745 0.9989 0.18459 0.0
C1186 C 0.6506 0.97671 0.29632 0.0
C1187 C 0.64524 0.9498 0.28447 0.0
C1188 C 0.67629 0.98163 0.22293 0.0
C1189 C 0.65669 0.93917 0.24238 0.0
C1190 C 0.69563 0.02551 0.19339 0.0
C1191 C 0.68743 1.00732 0.10056 0.0
N1192 N 0.67137 0.95523 0.21278 0.0
N1193 N 0.68512 0.99026 0.1384 0.0
H1194 H 0.89844 0.38859 0.75467 0.0
H1195 H 0.98358 0.37469 0.94585 0.0
H1196 H 0.97462 0.39 0.67885 0.0
H1197 H 0.03914 0.33591 0.84856 0.0
H1198 H 0.94926 0.3746 0.88317 0.0
H1199 H 0.92022 0.36487 0.82075 0.0
C1200 C 0.91983 0.38416 0.75208 0.0
C1201 C 0.93505 0.39228 0.71197 0.0
C1202 C 0.96843 0.36484 0.87599 0.0
C1203 C 0.95998 0.36492 0.78737 0.0
C1204 C 0.98799 0.36482 0.91202 0.0
C1205 C 1.01422 0.35566 0.90198 0.0
C1206 C 0.97549 0.35601 0.82965 0.0
C1207 C 0.01914 0.34328 0.85755 0.0
C1208 C 0.93218 0.37043 0.78974 0.0
C1209 C 0.9623 0.38461 0.70947 0.0
N1210 N 1.00024 0.3447 0.82233 0.0
N1211 N 0.974 0.37166 0.74702 0.0
H1212 H 0.40262 0.1271 0.19806 0.0
H1213 H 0.337 0.99099 0.10623 0.0
H1214 H 0.39165 0.05522 0.28326 0.0
H1215 H 0.37473 0.04985 0.01424 0.0
H1216 H 0.33863 0.02318 0.17243 0.0
H1217 H 0.37662 0.10641 0.13367 0.0
C1218 C 0.39489 0.10693 0.20335 0.0
C1219 C 0.40023 0.09249 0.24572 0.0
C1220 C 0.34559 0.02942 0.13728 0.0
C1221 C 0.36951 0.06918 0.17243 0.0
C1222 C 0.34426 1.01123 0.09922 0.0
C1223 C 0.35633 0.01768 0.0551 0.0
C1224 C 0.35896 0.0541 0.13077 0.0
C1225 C 0.36562 0.04408 0.04805 0.0
C1226 C 0.37964 0.09535 0.16674 0.0
C1227 C 0.38842 0.06694 0.25107 0.0
N1228 N 0.36744 0.06117 0.08599 0.0
N1229 N 0.3739 0.05594 0.21454 0.0
H1230 H 0.08307 0.66193 0.67017 0.0
H1231 H 0.05712 0.65892 0.94907 0.0
H1232 H 0.12015 0.6076 0.77179 0.0
H1233 H 1.00665 0.70118 0.84798 0.0
H1234 H 0.09247 0.65566 0.88811 0.0
H1235 H 0.06531 0.68842 0.73695 0.0
C1236 C 0.08745 0.65545 0.70638 0.0
C1237 C 0.10271 0.63207 0.71528 0.0
C1238 C 0.07405 0.66652 0.87972 0.0
C1239 C 0.08308 0.66287 0.7918 0.0
C1240 C 0.05407 0.66875 0.91478 0.0
C1241 C 0.02871 0.67946 0.90278 0.0
C1242 C 0.06827 0.67484 0.83265 0.0
C1243 C 0.02579 0.69221 0.8582 0.0
C1244 C 0.07766 0.67089 0.74449 0.0
C1245 C 0.10843 0.62534 0.7631 0.0
N1246 N 0.04498 0.68867 0.82393 0.0
N1247 N 0.09839 0.64049 0.79949 0.0
loop_
_geom_bond_atom_site_label_1
_geom_bond_atom_site_label_2
_geom_bond_distance
_geom_bond_site_symmetry_2
_ccdc_geom_bond_type
C0 C1 1.351 . S
C0 N3 1.368 . S
C0 H5 0.931 . S
C1 C0 1.351 . S
C1 N2 1.373 . S
C1 H29 0.930 . S
N2 C1 1.373 . S
N2 C4 1.340 . S
N3 C0 1.368 . S
N3 C4 1.321 . S
N3 Co6 2.135 . S
C4 N2 1.340 . S
C4 N3 1.321 . S
C4 H28 0.930 . S
H5 C0 0.931 . S
Co6 N3 2.135 . S
Co6 N9 2.121 . S
Co6 O14 2.055 . S
Co6 O17 2.039 . S
Co6 N20 2.140 . S
C7 O8 1.227 . S
C7 O17 1.265 . S
O8 C7 1.227 . S
N9 Co6 2.121 . S
N9 C11 1.375 . S
N9 C12 1.313 . S
C10 C11 1.338 . S
C10 N13 1.377 . S
C10 H30 0.930 . S
C11 N9 1.375 . S
C11 C10 1.338 . S
C11 H15 0.931 . S
C12 N9 1.313 . S
C12 N13 1.344 . S
C12 H16 0.930 . S
N13 C10 1.377 . S
N13 C12 1.344 . S
O14 Co6 2.055 . S
O14 C18 1.253 . S
H15 C11 0.931 . S
H16 C12 0.930 . S
O17 Co6 2.039 . S
O17 C7 1.265 . S
C18 O14 1.253 . S
C18 O19 1.227 . S
O19 C18 1.227 . S
N20 Co6 2.140 . S
N20 C23 1.346 . S
N20 C24 1.345 . S
C21 C22 1.387 . S
C21 C25 1.391 . S
C22 C21 1.387 . S
C22 C23 1.369 . S
C22 H31 0.929 . S
C23 N20 1.346 . S
C23 C22 1.369 . S
C23 H26 0.928 . S
C24 N20 1.345 . S
C24 C25 1.371 . S
C24 H27 0.931 . S
C25 C21 1.391 . S
C25 C24 1.371 . S
C25 H32 0.930 . S
H26 C23 0.928 . S
H27 C24 0.931 . S
H28 C4 0.930 . S
H29 C1 0.930 . S
H30 C10 0.930 . S
H31 C22 0.929 . S
H32 C25 0.930 . S
C33 C34 1.351 . S
C33 N36 1.368 . S
C33 H38 0.931 . S
C34 C33 1.351 . S
C34 N35 1.373 . S
C34 H62 0.930 . S
N35 C34 1.373 . S
N35 C37 1.340 . S
N36 C33 1.368 . S
N36 C37 1.321 . S
N36 Co39 2.135 . S
C37 N35 1.340 . S
C37 N36 1.321 . S
C37 H61 0.930 . S
H38 C33 0.931 . S
Co39 N36 2.135 . S
Co39 N42 2.121 . S
Co39 O47 2.055 . S
Co39 O50 2.039 . S
Co39 N53 2.140 . S
C40 O41 1.227 . S
C40 O50 1.265 . S
O41 C40 1.227 . S
N42 Co39 2.121 . S
N42 C44 1.375 . S
N42 C45 1.313 . S
C43 C44 1.338 . S
C43 N46 1.377 . S
C43 H63 0.930 . S
C44 N42 1.375 . S
C44 C43 1.338 . S
C44 H48 0.931 . S
C45 N42 1.313 . S
C45 N46 1.344 . S
C45 H49 0.930 . S
N46 C43 1.377 . S
N46 C45 1.344 . S
O47 Co39 2.055 . S
O47 C51 1.253 . S
H48 C44 0.931 . S
H49 C45 0.930 . S
O50 Co39 2.039 . S
O50 C40 1.265 . S
C51 O47 1.253 . S
C51 O52 1.227 . S
O52 C51 1.227 . S
N53 Co39 2.140 . S
N53 C56 1.346 . S
N53 C57 1.345 . S
C54 C55 1.387 . S
C54 C58 1.391 . S
C55 C54 1.387 . S
C55 C56 1.369 . S
C55 H64 0.929 . S
C56 N53 1.346 . S
C56 C55 1.369 . S
C56 H59 0.928 . S
C57 N53 1.345 . S
C57 C58 1.371 . S
C57 H60 0.931 . S
C58 C54 1.391 . S
C58 C57 1.371 . S
C58 H65 0.930 . S
H59 C56 0.928 . S
H60 C57 0.931 . S
H61 C37 0.930 . S
H62 C34 0.930 . S
H63 C43 0.930 . S
H64 C55 0.929 . S
H65 C58 0.930 . S
C66 C67 1.351 . S
C66 N69 1.368 . S
C66 H71 0.931 . S
C67 C66 1.351 . S
C67 N68 1.373 . S
C67 H95 0.930 . S
N68 C67 1.373 . S
N68 C70 1.340 . S
N69 C66 1.368 . S
N69 C70 1.321 . S
N69 Co72 2.135 . S
C70 N68 1.340 . S
C70 N69 1.321 . S
C70 H94 0.930 . S
H71 C66 0.931 . S
Co72 N69 2.135 . S
Co72 N75 2.121 . S
Co72 O80 2.055 . S
Co72 O83 2.039 . S
Co72 N86 2.140 . S
C73 O74 1.227 . S
C73 O83 1.265 . S
O74 C73 1.227 . S
N75 Co72 2.121 . S
N75 C77 1.375 . S
N75 C78 1.313 . S
C76 C77 1.338 . S
C76 N79 1.377 . S
C76 H96 0.930 . S
C77 N75 1.375 . S
C77 C76 1.338 . S
C77 H81 0.931 . S
C78 N75 1.313 . S
C78 N79 1.344 . S
C78 H82 0.930 . S
N79 C76 1.377 . S
N79 C78 1.344 . S
O80 Co72 2.055 . S
O80 C84 1.253 . S
H81 C77 0.931 . S
H82 C78 0.930 . S
O83 Co72 2.039 . S
O83 C73 1.265 . S
C84 O80 1.253 . S
C84 O85 1.227 . S
O85 C84 1.227 . S
N86 Co72 2.140 . S
N86 C89 1.346 . S
N86 C90 1.345 . S
C87 C88 1.387 . S
C87 C91 1.391 . S
C88 C87 1.387 . S
C88 C89 1.369 . S
C88 H97 0.929 . S
C89 N86 1.346 . S
C89 C88 1.369 . S
C89 H92 0.928 . S
C90 N86 1.345 . S
C90 C91 1.371 . S
C90 H93 0.931 . S
C91 C87 1.391 . S
C91 C90 1.371 . S
C91 H98 0.930 . S
H92 C89 0.928 . S
H93 C90 0.931 . S
H94 C70 0.930 . S
H95 C67 0.930 . S
H96 C76 0.930 . S
H97 C88 0.929 . S
H98 C91 0.930 . S
C99 C100 1.351 . S
C99 N102 1.368 . S
C99 H104 0.931 . S
C100 C99 1.351 . S
C100 N101 1.373 . S
C100 H128 0.930 . S
N101 C100 1.373 . S
N101 C103 1.340 . S
N102 C99 1.368 . S
N102 C103 1.321 . S
N102 Co105 2.135 . S
C103 N101 1.340 . S
C103 N102 1.321 . S
C103 H127 0.930 . S
H104 C99 0.931 . S
Co105 N102 2.135 . S
Co105 N108 2.121 . S
Co105 O113 2.055 . S
Co105 O116 2.039 . S
Co105 N119 2.140 . S
C106 O107 1.227 . S
C106 O116 1.265 . S
O107 C106 1.227 . S
N108 Co105 2.121 . S
N108 C110 1.375 . S
N108 C111 1.313 . S
C109 C110 1.338 . S
C109 N112 1.377 . S
C109 H129 0.930 . S
C110 N108 1.375 . S
C110 C109 1.338 . S
C110 H114 0.931 . S
C111 N108 1.313 . S
C111 N112 1.344 . S
C111 H115 0.930 . S
N112 C109 1.377 . S
N112 C111 1.344 . S
O113 Co105 2.055 . S
O113 C117 1.253 . S
H114 C110 0.931 . S
H115 C111 0.930 . S
O116 Co105 2.039 . S
O116 C106 1.265 . S
C117 O113 1.253 . S
C117 O118 1.227 . S
O118 C117 1.227 . S
N119 Co105 2.140 . S
N119 C122 1.346 . S
N119 C123 1.345 . S
C120 C121 1.387 . S
C120 C124 1.391 . S
C121 C120 1.387 . S
C121 C122 1.369 . S
C121 H130 0.929 . S
C122 N119 1.346 . S
C122 C121 1.369 . S
C122 H125 0.928 . S
C123 N119 1.345 . S
C123 C124 1.371 . S
C123 H126 0.931 . S
C124 C120 1.391 . S
C124 C123 1.371 . S
C124 H131 0.930 . S
H125 C122 0.928 . S
H126 C123 0.931 . S
H127 C103 0.930 . S
H128 C100 0.930 . S
H129 C109 0.930 . S
H130 C121 0.929 . S
H131 C124 0.930 . S
C132 C133 1.351 . S
C132 N135 1.368 . S
C132 H137 0.931 . S
C133 C132 1.351 . S
C133 N134 1.373 . S
C133 H161 0.930 . S
N134 C133 1.373 . S
N134 C136 1.340 . S
N135 C132 1.368 . S
N135 C136 1.321 . S
N135 Co138 2.135 . S
C136 N134 1.340 . S
C136 N135 1.321 . S
C136 H160 0.930 . S
H137 C132 0.931 . S
Co138 N135 2.135 . S
Co138 N141 2.121 1_556 S
Co138 O146 2.055 . S
Co138 O149 2.039 1_556 S
Co138 N152 2.140 . S
C139 O140 1.227 1_554 S
C139 O149 1.265 . S
O140 C139 1.227 1_556 S
N141 Co138 2.121 1_554 S
N141 C143 1.375 . S
N141 C144 1.313 . S
C142 C143 1.338 . S
C142 N145 1.377 . S
C142 H162 0.930 . S
C143 N141 1.375 . S
C143 C142 1.338 . S
C143 H147 0.931 . S
C144 N141 1.313 . S
C144 N145 1.344 . S
C144 H148 0.930 . S
N145 C142 1.377 . S
N145 C144 1.344 . S
O146 Co138 2.055 . S
O146 C150 1.253 . S
H147 C143 0.931 . S
H148 C144 0.930 . S
O149 Co138 2.039 1_554 S
O149 C139 1.265 . S
C150 O146 1.253 . S
C150 O151 1.227 . S
O151 C150 1.227 . S
N152 Co138 2.140 . S
N152 C155 1.346 . S
N152 C156 1.345 . S
C153 C154 1.387 . S
C153 C157 1.391 . S
C154 C153 1.387 . S
C154 C155 1.369 . S
C154 H163 0.929 . S
C155 N152 1.346 . S
C155 C154 1.369 . S
C155 H158 0.928 . S
C156 N152 1.345 . S
C156 C157 1.371 . S
C156 H159 0.931 . S
C157 C153 1.391 . S
C157 C156 1.371 . S
C157 H164 0.930 . S
H158 C155 0.928 . S
H159 C156 0.931 . S
H160 C136 0.930 . S
H161 C133 0.930 . S
H162 C142 0.930 . S
H163 C154 0.929 . S
H164 C157 0.930 . S
C165 C166 1.351 . S
C165 N168 1.368 . S
C165 H170 0.931 . S
C166 C165 1.351 . S
C166 N167 1.373 . S
C166 H194 0.930 . S
N167 C166 1.373 . S
N167 C169 1.340 . S
N168 C165 1.368 . S
N168 C169 1.321 . S
N168 Co171 2.135 . S
C169 N167 1.340 . S
C169 N168 1.321 . S
C169 H193 0.930 . S
H170 C165 0.931 . S
Co171 N168 2.135 . S
Co171 N174 2.121 1_554 S
Co171 O179 2.055 . S
Co171 O182 2.039 1_554 S
Co171 N185 2.140 . S
C172 O173 1.227 1_556 S
C172 O182 1.265 . S
O173 C172 1.227 1_554 S
N174 Co171 2.121 1_556 S
N174 C176 1.375 . S
N174 C177 1.313 . S
C175 C176 1.338 . S
C175 N178 1.377 . S
C175 H195 0.930 . S
C176 N174 1.375 . S
C176 C175 1.338 . S
C176 H180 0.931 . S
C177 N174 1.313 . S
C177 N178 1.344 . S
C177 H181 0.930 . S
N178 C175 1.377 . S
N178 C177 1.344 . S
O179 Co171 2.055 . S
O179 C183 1.253 . S
H180 C176 0.931 . S
H181 C177 0.930 . S
O182 Co171 2.039 1_556 S
O182 C172 1.265 . S
C183 O179 1.253 . S
C183 O184 1.227 . S
O184 C183 1.227 . S
N185 Co171 2.140 . S
N185 C188 1.346 . S
N185 C189 1.345 . S
C186 C187 1.387 . S
C186 C190 1.391 . S
C187 C186 1.387 . S
C187 C188 1.369 . S
C187 H196 0.929 . S
C188 N185 1.346 . S
C188 C187 1.369 . S
C188 H191 0.928 . S
C189 N185 1.345 . S
C189 C190 1.371 . S
C189 H192 0.931 . S
C190 C186 1.391 . S
C190 C189 1.371 . S
C190 H197 0.930 . S
H191 C188 0.928 . S
H192 C189 0.931 . S
H193 C169 0.930 . S
H194 C166 0.930 . S
H195 C175 0.930 . S
H196 C187 0.929 . S
H197 C190 0.930 . S
C198 C199 1.351 . S
C198 N201 1.368 . S
C198 H203 0.931 . S
C199 C198 1.351 . S
C199 N200 1.373 . S
C199 H227 0.930 . S
N200 C199 1.373 . S
N200 C202 1.340 . S
N201 C198 1.368 . S
N201 C202 1.321 . S
N201 Co204 2.135 . S
C202 N200 1.340 . S
C202 N201 1.321 . S
C202 H226 0.930 . S
H203 C198 0.931 . S
Co204 N201 2.135 . S
Co204 N207 2.121 1_556 S
Co204 O212 2.055 . S
Co204 O215 2.039 1_556 S
Co204 N218 2.140 . S
C205 O206 1.227 1_554 S
C205 O215 1.265 . S
O206 C205 1.227 1_556 S
N207 Co204 2.121 1_554 S
N207 C209 1.375 . S
N207 C210 1.313 . S
C208 C209 1.338 . S
C208 N211 1.377 . S
C208 H228 0.930 . S
C209 N207 1.375 . S
C209 C208 1.338 . S
C209 H213 0.931 . S
C210 N207 1.313 . S
C210 N211 1.344 . S
C210 H214 0.930 . S
N211 C208 1.377 . S
N211 C210 1.344 . S
O212 Co204 2.055 . S
O212 C216 1.253 . S
H213 C209 0.931 . S
H214 C210 0.930 . S
O215 Co204 2.039 1_554 S
O215 C205 1.265 . S
C216 O212 1.253 . S
C216 O217 1.227 . S
O217 C216 1.227 . S
N218 Co204 2.140 . S
N218 C221 1.346 . S
N218 C222 1.345 . S
C219 C220 1.387 . S
C219 C223 1.391 . S
C220 C219 1.387 . S
C220 C221 1.369 . S
C220 H229 0.929 . S
C221 N218 1.346 . S
C221 C220 1.369 . S
C221 H224 0.928 . S
C222 N218 1.345 . S
C222 C223 1.371 . S
C222 H225 0.931 . S
C223 C219 1.391 . S
C223 C222 1.371 . S
C223 H230 0.930 . S
H224 C221 0.928 . S
H225 C222 0.931 . S
H226 C202 0.930 . S
H227 C199 0.930 . S
H228 C208 0.930 . S
H229 C220 0.929 . S
H230 C223 0.930 . S
C231 C232 1.351 . S
C231 N234 1.368 . S
C231 H236 0.931 . S
C232 C231 1.351 . S
C232 N233 1.373 . S
C232 H260 0.930 . S
N233 C232 1.373 . S
N233 C235 1.340 . S
N234 C231 1.368 . S
N234 C235 1.321 . S
N234 Co237 2.135 . S
C235 N233 1.340 . S
C235 N234 1.321 . S
C235 H259 0.930 . S
H236 C231 0.931 . S
Co237 N234 2.135 . S
Co237 N240 2.121 1_554 S
Co237 O245 2.055 . S
Co237 O248 2.039 1_554 S
Co237 N251 2.140 . S
C238 O239 1.227 1_556 S
C238 O248 1.265 . S
O239 C238 1.227 1_554 S
N240 Co237 2.121 1_556 S
N240 C242 1.375 . S
N240 C243 1.313 . S
C241 C242 1.338 . S
C241 N244 1.377 . S
C241 H261 0.930 . S
C242 N240 1.375 . S
C242 C241 1.338 . S
C242 H246 0.931 . S
C243 N240 1.313 . S
C243 N244 1.344 . S
C243 H247 0.930 . S
N244 C241 1.377 . S
N244 C243 1.344 . S
O245 Co237 2.055 . S
O245 C249 1.253 . S
H246 C242 0.931 . S
H247 C243 0.930 . S
O248 Co237 2.039 1_556 S
O248 C238 1.265 . S
C249 O245 1.253 . S
C249 O250 1.227 . S
O250 C249 1.227 . S
N251 Co237 2.140 . S
N251 C254 1.346 . S
N251 C255 1.345 . S
C252 C253 1.387 . S
C252 C256 1.391 . S
C253 C252 1.387 . S
C253 C254 1.369 . S
C253 H262 0.929 . S
C254 N251 1.346 . S
C254 C253 1.369 . S
C254 H257 0.928 . S
C255 N251 1.345 . S
C255 C256 1.371 . S
C255 H258 0.931 . S
C256 C252 1.391 . S
C256 C255 1.371 . S
C256 H263 0.930 . S
H257 C254 0.928 . S
H258 C255 0.931 . S
H259 C235 0.930 . S
H260 C232 0.930 . S
H261 C241 0.930 . S
H262 C253 0.929 . S
H263 C256 0.930 . S
C264 C265 1.351 . S
C264 N267 1.368 . S
C264 H269 0.931 . S
C265 C264 1.351 . S
C265 N266 1.373 . S
C265 H293 0.930 . S
N266 C265 1.373 . S
N266 C268 1.340 . S
N267 C264 1.368 . S
N267 C268 1.321 . S
N267 Co270 2.135 . S
C268 N266 1.340 . S
C268 N267 1.321 . S
C268 H292 0.930 . S
H269 C264 0.931 . S
Co270 N267 2.135 . S
Co270 N273 2.121 . S
Co270 O278 2.055 . S
Co270 O281 2.039 . S
Co270 N284 2.140 . S
C271 O272 1.227 . S
C271 O281 1.265 . S
O272 C271 1.227 . S
N273 Co270 2.121 . S
N273 C275 1.375 . S
N273 C276 1.313 . S
C274 C275 1.338 . S
C274 N277 1.377 . S
C274 H294 0.930 . S
C275 N273 1.375 . S
C275 C274 1.338 . S
C275 H279 0.931 . S
C276 N273 1.313 . S
C276 N277 1.344 . S
C276 H280 0.930 . S
N277 C274 1.377 . S
N277 C276 1.344 . S
O278 Co270 2.055 . S
O278 C282 1.253 . S
H279 C275 0.931 . S
H280 C276 0.930 . S
O281 Co270 2.039 . S
O281 C271 1.265 . S
C282 O278 1.253 . S
C282 O283 1.227 . S
O283 C282 1.227 . S
N284 Co270 2.140 . S
N284 C287 1.346 . S
N284 C288 1.345 . S
C285 C286 1.387 . S
C285 C289 1.391 . S
C286 C285 1.387 . S
C286 C287 1.369 . S
C286 H295 0.929 . S
C287 N284 1.346 . S
C287 C286 1.369 . S
C287 H290 0.928 . S
C288 N284 1.345 . S
C288 C289 1.371 . S
C288 H291 0.931 . S
C289 C285 1.391 . S
C289 C288 1.371 . S
C289 H296 0.930 . S
H290 C287 0.928 . S
H291 C288 0.931 . S
H292 C268 0.930 . S
H293 C265 0.930 . S
H294 C274 0.930 . S
H295 C286 0.929 . S
H296 C289 0.930 . S
C297 C298 1.351 . S
C297 N300 1.368 . S
C297 H302 0.931 . S
C298 C297 1.351 . S
C298 N299 1.373 . S
C298 H326 0.930 . S
N299 C298 1.373 . S
N299 C301 1.340 . S
N300 C297 1.368 . S
N300 C301 1.321 . S
N300 Co303 2.135 . S
C301 N299 1.340 . S
C301 N300 1.321 . S
C301 H325 0.930 . S
H302 C297 0.931 . S
Co303 N300 2.135 . S
Co303 N306 2.121 . S
Co303 O311 2.055 . S
Co303 O314 2.039 . S
Co303 N317 2.140 . S
C304 O305 1.227 . S
C304 O314 1.265 . S
O305 C304 1.227 . S
N306 Co303 2.121 . S
N306 C308 1.375 . S
N306 C309 1.313 . S
C307 C308 1.338 . S
C307 N310 1.377 . S
C307 H327 0.930 . S
C308 N306 1.375 . S
C308 C307 1.338 . S
C308 H312 0.931 . S
C309 N306 1.313 . S
C309 N310 1.344 . S
C309 H313 0.930 . S
N310 C307 1.377 . S
N310 C309 1.344 . S
O311 Co303 2.055 . S
O311 C315 1.253 . S
H312 C308 0.931 . S
H313 C309 0.930 . S
O314 Co303 2.039 . S
O314 C304 1.265 . S
C315 O311 1.253 . S
C315 O316 1.227 . S
O316 C315 1.227 . S
N317 Co303 2.140 . S
N317 C320 1.346 . S
N317 C321 1.345 . S
C318 C319 1.387 . S
C318 C322 1.391 . S
C319 C318 1.387 . S
C319 C320 1.369 . S
C319 H328 0.929 . S
C320 N317 1.346 . S
C320 C319 1.369 . S
C320 H323 0.928 . S
C321 N317 1.345 . S
C321 C322 1.371 . S
C321 H324 0.931 . S
C322 C318 1.391 . S
C322 C321 1.371 . S
C322 H329 0.930 . S
H323 C320 0.928 . S
H324 C321 0.931 . S
H325 C301 0.930 . S
H326 C298 0.930 . S
H327 C307 0.930 . S
H328 C319 0.929 . S
H329 C322 0.930 . S
C330 C331 1.351 . S
C330 N333 1.368 . S
C330 H335 0.931 . S
C331 C330 1.351 . S
C331 N332 1.373 . S
C331 H359 0.930 . S
N332 C331 1.373 . S
N332 C334 1.340 . S
N333 C330 1.368 . S
N333 C334 1.321 . S
N333 Co336 2.135 . S
C334 N332 1.340 . S
C334 N333 1.321 . S
C334 H358 0.930 . S
H335 C330 0.931 . S
Co336 N333 2.135 . S
Co336 N339 2.121 . S
Co336 O344 2.055 . S
Co336 O347 2.039 . S
Co336 N350 2.140 . S
C337 O338 1.227 . S
C337 O347 1.265 . S
O338 C337 1.227 . S
N339 Co336 2.121 . S
N339 C341 1.375 . S
N339 C342 1.313 . S
C340 C341 1.338 . S
C340 N343 1.377 . S
C340 H360 0.930 . S
C341 N339 1.375 . S
C341 C340 1.338 . S
C341 H345 0.931 . S
C342 N339 1.313 . S
C342 N343 1.344 . S
C342 H346 0.930 . S
N343 C340 1.377 . S
N343 C342 1.344 . S
O344 Co336 2.055 . S
O344 C348 1.253 . S
H345 C341 0.931 . S
H346 C342 0.930 . S
O347 Co336 2.039 . S
O347 C337 1.265 . S
C348 O344 1.253 . S
C348 O349 1.227 . S
O349 C348 1.227 . S
N350 Co336 2.140 . S
N350 C353 1.346 . S
N350 C354 1.345 . S
C351 C352 1.387 . S
C351 C355 1.391 . S
C352 C351 1.387 . S
C352 C353 1.369 . S
C352 H361 0.929 . S
C353 N350 1.346 . S
C353 C352 1.369 . S
C353 H356 0.928 . S
C354 N350 1.345 . S
C354 C355 1.371 . S
C354 H357 0.931 . S
C355 C351 1.391 . S
C355 C354 1.371 . S
C355 H362 0.930 . S
H356 C353 0.928 . S
H357 C354 0.931 . S
H358 C334 0.930 . S
H359 C331 0.930 . S
H360 C340 0.930 . S
H361 C352 0.929 . S
H362 C355 0.930 . S
C363 C364 1.351 . S
C363 N366 1.368 . S
C363 H368 0.931 . S
C364 C363 1.351 . S
C364 N365 1.373 . S
C364 H392 0.930 . S
N365 C364 1.373 . S
N365 C367 1.340 . S
N366 C363 1.368 . S
N366 C367 1.321 . S
N366 Co369 2.135 . S
C367 N365 1.340 . S
C367 N366 1.321 . S
C367 H391 0.930 . S
H368 C363 0.931 . S
Co369 N366 2.135 . S
Co369 N372 2.121 . S
Co369 O377 2.055 . S
Co369 O380 2.039 . S
Co369 N383 2.140 . S
C370 O371 1.227 . S
C370 O380 1.265 . S
O371 C370 1.227 . S
N372 Co369 2.121 . S
N372 C374 1.375 . S
N372 C375 1.313 . S
C373 C374 1.338 . S
C373 N376 1.377 . S
C373 H393 0.930 . S
C374 N372 1.375 . S
C374 C373 1.338 . S
C374 H378 0.931 . S
C375 N372 1.313 . S
C375 N376 1.344 . S
C375 H379 0.930 . S
N376 C373 1.377 . S
N376 C375 1.344 . S
O377 Co369 2.055 . S
O377 C381 1.253 . S
H378 C374 0.931 . S
H379 C375 0.930 . S
O380 Co369 2.039 . S
O380 C370 1.265 . S
C381 O377 1.253 . S
C381 O382 1.227 . S
O382 C381 1.227 . S
N383 Co369 2.140 . S
N383 C386 1.346 . S
N383 C387 1.345 . S
C384 C385 1.387 . S
C384 C388 1.391 . S
C385 C384 1.387 . S
C385 C386 1.369 . S
C385 H394 0.929 . S
C386 N383 1.346 . S
C386 C385 1.369 . S
C386 H389 0.928 . S
C387 N383 1.345 . S
C387 C388 1.371 . S
C387 H390 0.931 . S
C388 C384 1.391 . S
C388 C387 1.371 . S
C388 H395 0.930 . S
H389 C386 0.928 . S
H390 C387 0.931 . S
H391 C367 0.930 . S
H392 C364 0.930 . S
H393 C373 0.930 . S
H394 C385 0.929 . S
H395 C388 0.930 . S
C396 C397 1.351 . S
C396 N399 1.368 . S
C396 H401 0.931 . S
C397 C396 1.351 . S
C397 N398 1.373 . S
C397 H425 0.930 . S
N398 C397 1.373 . S
N398 C400 1.340 . S
N399 C396 1.368 . S
N399 C400 1.321 . S
N399 Co402 2.135 . S
C400 N398 1.340 . S
C400 N399 1.321 . S
C400 H424 0.930 . S
H401 C396 0.931 . S
Co402 N399 2.135 . S
Co402 N405 2.121 . S
Co402 O410 2.055 . S
Co402 O413 2.039 . S
Co402 N416 2.140 . S
C403 O404 1.227 . S
C403 O413 1.265 . S
O404 C403 1.227 . S
N405 Co402 2.121 . S
N405 C407 1.375 . S
N405 C408 1.313 . S
C406 C407 1.338 . S
C406 N409 1.377 . S
C406 H426 0.930 . S
C407 N405 1.375 . S
C407 C406 1.338 . S
C407 H411 0.931 . S
C408 N405 1.313 . S
C408 N409 1.344 . S
C408 H412 0.930 . S
N409 C406 1.377 . S
N409 C408 1.344 . S
O410 Co402 2.055 . S
O410 C414 1.253 . S
H411 C407 0.931 . S
H412 C408 0.930 . S
O413 Co402 2.039 . S
O413 C403 1.265 . S
C414 O410 1.253 . S
C414 O415 1.227 . S
O415 C414 1.227 . S
N416 Co402 2.140 . S
N416 C419 1.346 . S
N416 C420 1.345 . S
C417 C418 1.387 . S
C417 C421 1.391 . S
C418 C417 1.387 . S
C418 C419 1.369 . S
C418 H427 0.929 . S
C419 N416 1.346 . S
C419 C418 1.369 . S
C419 H422 0.928 . S
C420 N416 1.345 . S
C420 C421 1.371 . S
C420 H423 0.931 . S
C421 C417 1.391 . S
C421 C420 1.371 . S
C421 H428 0.930 . S
H422 C419 0.928 . S
H423 C420 0.931 . S
H424 C400 0.930 . S
H425 C397 0.930 . S
H426 C406 0.930 . S
H427 C418 0.929 . S
H428 C421 0.930 . S
C429 C430 1.351 . S
C429 N432 1.368 . S
C429 H434 0.931 . S
C430 C429 1.351 . S
C430 N431 1.373 . S
C430 H458 0.930 . S
N431 C430 1.373 . S
N431 C433 1.340 . S
N432 C429 1.368 . S
N432 C433 1.321 . S
N432 Co435 2.135 . S
C433 N431 1.340 . S
C433 N432 1.321 . S
C433 H457 0.930 . S
H434 C429 0.931 . S
Co435 N432 2.135 . S
Co435 N438 2.121 . S
Co435 O443 2.055 . S
Co435 O446 2.039 . S
Co435 N449 2.140 . S
C436 O437 1.227 . S
C436 O446 1.265 . S
O437 C436 1.227 . S
N438 Co435 2.121 . S
N438 C440 1.375 . S
N438 C441 1.313 . S
C439 C440 1.338 . S
C439 N442 1.377 . S
C439 H459 0.930 . S
C440 N438 1.375 . S
C440 C439 1.338 . S
C440 H444 0.931 . S
C441 N438 1.313 . S
C441 N442 1.344 . S
C441 H445 0.930 . S
N442 C439 1.377 . S
N442 C441 1.344 . S
O443 Co435 2.055 . S
O443 C447 1.253 . S
H444 C440 0.931 . S
H445 C441 0.930 . S
O446 Co435 2.039 . S
O446 C436 1.265 . S
C447 O443 1.253 . S
C447 O448 1.227 . S
O448 C447 1.227 . S
N449 Co435 2.140 . S
N449 C452 1.346 . S
N449 C453 1.345 . S
C450 C451 1.387 . S
C450 C454 1.391 . S
C451 C450 1.387 . S
C451 C452 1.369 . S
C451 H460 0.929 . S
C452 N449 1.346 . S
C452 C451 1.369 . S
C452 H455 0.928 . S
C453 N449 1.345 . S
C453 C454 1.371 . S
C453 H456 0.931 . S
C454 C450 1.391 . S
C454 C453 1.371 . S
C454 H461 0.930 . S
H455 C452 0.928 . S
H456 C453 0.931 . S
H457 C433 0.930 . S
H458 C430 0.930 . S
H459 C439 0.930 . S
H460 C451 0.929 . S
H461 C454 0.930 . S
C462 C463 1.351 . S
C462 N465 1.368 . S
C462 H467 0.931 . S
C463 C462 1.351 . S
C463 N464 1.373 . S
C463 H491 0.930 . S
N464 C463 1.373 . S
N464 C466 1.340 . S
N465 C462 1.368 . S
N465 C466 1.321 . S
N465 Co468 2.135 . S
C466 N464 1.340 . S
C466 N465 1.321 . S
C466 H490 0.930 . S
H467 C462 0.931 . S
Co468 N465 2.135 . S
Co468 N471 2.121 . S
Co468 O476 2.055 . S
Co468 O479 2.039 . S
Co468 N482 2.140 . S
C469 O470 1.227 . S
C469 O479 1.265 . S
O470 C469 1.227 . S
N471 Co468 2.121 . S
N471 C473 1.375 . S
N471 C474 1.313 . S
C472 C473 1.338 . S
C472 N475 1.377 . S
C472 H492 0.930 . S
C473 N471 1.375 . S
C473 C472 1.338 . S
C473 H477 0.931 . S
C474 N471 1.313 . S
C474 N475 1.344 . S
C474 H478 0.930 . S
N475 C472 1.377 . S
N475 C474 1.344 . S
O476 Co468 2.055 . S
O476 C480 1.253 . S
H477 C473 0.931 . S
H478 C474 0.930 . S
O479 Co468 2.039 . S
O479 C469 1.265 . S
C480 O476 1.253 . S
C480 O481 1.227 . S
O481 C480 1.227 . S
N482 Co468 2.140 . S
N482 C485 1.346 . S
N482 C486 1.345 . S
C483 C484 1.387 . S
C483 C487 1.391 . S
C484 C483 1.387 . S
C484 C485 1.369 . S
C484 H493 0.929 . S
C485 N482 1.346 . S
C485 C484 1.369 . S
C485 H488 0.928 . S
C486 N482 1.345 . S
C486 C487 1.371 . S
C486 H489 0.931 . S
C487 C483 1.391 . S
C487 C486 1.371 . S
C487 H494 0.930 . S
H488 C485 0.928 . S
H489 C486 0.931 . S
H490 C466 0.930 . S
H491 C463 0.930 . S
H492 C472 0.930 . S
H493 C484 0.929 . S
H494 C487 0.930 . S
C495 C496 1.351 . S
C495 N498 1.368 . S
C495 H500 0.931 . S
C496 C495 1.351 . S
C496 N497 1.373 . S
C496 H524 0.930 . S
N497 C496 1.373 . S
N497 C499 1.340 . S
N498 C495 1.368 . S
N498 C499 1.321 . S
N498 Co501 2.135 . S
C499 N497 1.340 . S
C499 N498 1.321 . S
C499 H523 0.930 . S
H500 C495 0.931 . S
Co501 N498 2.135 . S
Co501 N504 2.121 . S
Co501 O509 2.055 . S
Co501 O512 2.039 . S
Co501 N515 2.140 . S
C502 O503 1.227 . S
C502 O512 1.265 . S
O503 C502 1.227 . S
N504 Co501 2.121 . S
N504 C506 1.375 . S
N504 C507 1.313 . S
C505 C506 1.338 . S
C505 N508 1.377 . S
C505 H525 0.930 . S
C506 N504 1.375 . S
C506 C505 1.338 . S
C506 H510 0.931 . S
C507 N504 1.313 . S
C507 N508 1.344 . S
C507 H511 0.930 . S
N508 C505 1.377 . S
N508 C507 1.344 . S
O509 Co501 2.055 . S
O509 C513 1.253 . S
H510 C506 0.931 . S
H511 C507 0.930 . S
O512 Co501 2.039 . S
O512 C502 1.265 . S
C513 O509 1.253 . S
C513 O514 1.227 . S
O514 C513 1.227 . S
N515 Co501 2.140 . S
N515 C518 1.346 . S
N515 C519 1.345 . S
C516 C517 1.387 . S
C516 C520 1.391 . S
C517 C516 1.387 . S
C517 C518 1.369 . S
C517 H526 0.929 . S
C518 N515 1.346 . S
C518 C517 1.369 . S
C518 H521 0.928 . S
C519 N515 1.345 . S
C519 C520 1.371 . S
C519 H522 0.931 . S
C520 C516 1.391 . S
C520 C519 1.371 . S
C520 H527 0.930 . S
H521 C518 0.928 . S
H522 C519 0.931 . S
H523 C499 0.930 . S
H524 C496 0.930 . S
H525 C505 0.930 . S
H526 C517 0.929 . S
H527 C520 0.930 . S
H528 C534 0.930 . S
H529 C538 0.930 . S
H530 C543 0.929 . S
H531 C541 0.929 . S
H532 C536 0.929 . S
H533 C542 0.929 . S
C534 H528 0.930 . S
C534 C535 1.367 . S
C534 C542 1.378 . S
C535 C534 1.367 . S
C535 C543 1.433 . S
C536 H532 0.929 . S
C536 C538 1.378 . S
C536 C540 1.350 . S
C537 C540 1.463 . S
C537 C542 1.350 . S
C537 N545 1.427 . S
C538 H529 0.930 . S
C538 C536 1.378 . S
C538 C539 1.367 . S
C539 C538 1.367 . S
C539 C541 1.433 . S
C540 C536 1.350 . S
C540 C537 1.463 . S
C540 N544 1.427 . S
C541 H531 0.929 . S
C541 C539 1.433 . S
C541 N544 1.384 . S
C542 H533 0.929 . S
C542 C534 1.378 . S
C542 C537 1.350 . S
C543 H530 0.929 . S
C543 C535 1.433 . S
C543 N545 1.384 . S
N544 C540 1.427 . S
N544 C541 1.384 . S
N545 C537 1.427 . S
N545 C543 1.384 . S
H546 C552 0.930 . S
H547 C556 0.930 . S
H548 C561 0.929 . S
H549 C559 0.929 . S
H550 C554 0.929 . S
H551 C560 0.929 . S
C552 H546 0.930 . S
C552 C553 1.367 . S
C552 C560 1.378 . S
C553 C552 1.367 . S
C553 C561 1.433 . S
C554 H550 0.929 . S
C554 C556 1.378 . S
C554 C558 1.350 . S
C555 C558 1.463 . S
C555 C560 1.350 . S
C555 N563 1.427 . S
C556 H547 0.930 . S
C556 C554 1.378 . S
C556 C557 1.367 . S
C557 C556 1.367 . S
C557 C559 1.433 . S
C558 C554 1.350 . S
C558 C555 1.463 . S
C558 N562 1.427 . S
C559 H549 0.929 . S
C559 C557 1.433 . S
C559 N562 1.384 . S
C560 H551 0.929 . S
C560 C552 1.378 . S
C560 C555 1.350 . S
C561 H548 0.929 . S
C561 C553 1.433 . S
C561 N563 1.384 . S
N562 C558 1.427 . S
N562 C559 1.384 . S
N563 C555 1.427 . S
N563 C561 1.384 . S
H564 C570 0.930 . S
H565 C574 0.930 . S
H566 C579 0.929 . S
H567 C577 0.929 . S
H568 C572 0.929 . S
H569 C578 0.929 . S
C570 H564 0.930 . S
C570 C571 1.367 . S
C570 C578 1.378 . S
C571 C570 1.367 . S
C571 C579 1.433 . S
C572 H568 0.929 . S
C572 C574 1.378 . S
C572 C576 1.350 . S
C573 C576 1.463 . S
C573 C578 1.350 . S
C573 N581 1.427 . S
C574 H565 0.930 . S
C574 C572 1.378 . S
C574 C575 1.367 . S
C575 C574 1.367 . S
C575 C577 1.433 . S
C576 C572 1.350 . S
C576 C573 1.463 . S
C576 N580 1.427 . S
C577 H567 0.929 . S
C577 C575 1.433 . S
C577 N580 1.384 . S
C578 H569 0.929 . S
C578 C570 1.378 . S
C578 C573 1.350 . S
C579 H566 0.929 . S
C579 C571 1.433 . S
C579 N581 1.384 . S
N580 C576 1.427 . S
N580 C577 1.384 . S
N581 C573 1.427 . S
N581 C579 1.384 . S
H582 C588 0.930 . S
H583 C592 0.930 . S
H584 C597 0.929 . S
H585 C595 0.929 . S
H586 C590 0.929 . S
H587 C596 0.929 . S
C588 H582 0.930 . S
C588 C589 1.367 . S
C588 C596 1.378 . S
C589 C588 1.367 . S
C589 C597 1.433 . S
C590 H586 0.929 . S
C590 C592 1.378 . S
C590 C594 1.350 . S
C591 C594 1.463 . S
C591 C596 1.350 . S
C591 N599 1.427 . S
C592 H583 0.930 . S
C592 C590 1.378 . S
C592 C593 1.367 . S
C593 C592 1.367 . S
C593 C595 1.433 . S
C594 C590 1.350 . S
C594 C591 1.463 . S
C594 N598 1.427 . S
C595 H585 0.929 . S
C595 C593 1.433 . S
C595 N598 1.384 . S
C596 H587 0.929 . S
C596 C588 1.378 . S
C596 C591 1.350 . S
C597 H584 0.929 . S
C597 C589 1.433 . S
C597 N599 1.384 . S
N598 C594 1.427 . S
N598 C595 1.384 . S
N599 C591 1.427 . S
N599 C597 1.384 . S
H600 C606 0.930 . S
H601 C610 0.930 . S
H602 C615 0.929 . S
H603 C613 0.929 . S
H604 C608 0.929 . S
H605 C614 0.929 . S
C606 H600 0.930 . S
C606 C607 1.367 . S
C606 C614 1.378 . S
C607 C606 1.367 . S
C607 C615 1.433 . S
C608 H604 0.929 . S
C608 C610 1.378 . S
C608 C612 1.350 . S
C609 C612 1.463 . S
C609 C614 1.350 . S
C609 N617 1.427 . S
C610 H601 0.930 . S
C610 C608 1.378 . S
C610 C611 1.367 . S
C611 C610 1.367 . S
C611 C613 1.433 . S
C612 C608 1.350 . S
C612 C609 1.463 . S
C612 N616 1.427 . S
C613 H603 0.929 . S
C613 C611 1.433 . S
C613 N616 1.384 . S
C614 H605 0.929 . S
C614 C606 1.378 . S
C614 C609 1.350 . S
C615 H602 0.929 . S
C615 C607 1.433 . S
C615 N617 1.384 . S
N616 C612 1.427 . S
N616 C613 1.384 . S
N617 C609 1.427 . S
N617 C615 1.384 . S
H618 C624 0.930 . S
H619 C628 0.930 . S
H620 C633 0.929 . S
H621 C631 0.929 . S
H622 C626 0.929 . S
H623 C632 0.929 . S
C624 H618 0.930 . S
C624 C625 1.367 . S
C624 C632 1.378 . S
C625 C624 1.367 . S
C625 C633 1.433 . S
C626 H622 0.929 . S
C626 C628 1.378 . S
C626 C630 1.350 . S
C627 C630 1.463 . S
C627 C632 1.350 . S
C627 N635 1.427 . S
C628 H619 0.930 . S
C628 C626 1.378 . S
C628 C629 1.367 . S
C629 C628 1.367 . S
C629 C631 1.433 . S
C630 C626 1.350 . S
C630 C627 1.463 . S
C630 N634 1.427 . S
C631 H621 0.929 . S
C631 C629 1.433 . S
C631 N634 1.384 . S
C632 H623 0.929 . S
C632 C624 1.378 . S
C632 C627 1.350 . S
C633 H620 0.929 . S
C633 C625 1.433 . S
C633 N635 1.384 . S
N634 C630 1.427 . S
N634 C631 1.384 . S
N635 C627 1.427 . S
N635 C633 1.384 . S
H636 C642 0.930 . S
H637 C646 0.930 . S
H638 C651 0.929 . S
H639 C649 0.929 . S
H640 C644 0.929 . S
H641 C650 0.929 . S
C642 H636 0.930 . S
C642 C643 1.367 . S
C642 C650 1.378 . S
C643 C642 1.367 . S
C643 C651 1.433 . S
C644 H640 0.929 . S
C644 C646 1.378 . S
C644 C648 1.350 . S
C645 C648 1.463 . S
C645 C650 1.350 . S
C645 N653 1.427 . S
C646 H637 0.930 . S
C646 C644 1.378 . S
C646 C647 1.367 . S
C647 C646 1.367 . S
C647 C649 1.433 . S
C648 C644 1.350 . S
C648 C645 1.463 . S
C648 N652 1.427 . S
C649 H639 0.929 . S
C649 C647 1.433 . S
C649 N652 1.384 . S
C650 H641 0.929 . S
C650 C642 1.378 . S
C650 C645 1.350 . S
C651 H638 0.929 . S
C651 C643 1.433 . S
C651 N653 1.384 . S
N652 C648 1.427 . S
N652 C649 1.384 . S
N653 C645 1.427 . S
N653 C651 1.384 . S
H654 C660 0.930 . S
H655 C664 0.930 . S
H656 C669 0.929 . S
H657 C667 0.929 . S
H658 C662 0.929 . S
H659 C668 0.929 . S
C660 H654 0.930 . S
C660 C661 1.367 . S
C660 C668 1.378 . S
C661 C660 1.367 . S
C661 C669 1.433 . S
C662 H658 0.929 . S
C662 C664 1.378 . S
C662 C666 1.350 . S
C663 C666 1.463 . S
C663 C668 1.350 . S
C663 N671 1.427 . S
C664 H655 0.930 . S
C664 C662 1.378 . S
C664 C665 1.367 . S
C665 C664 1.367 . S
C665 C667 1.433 . S
C666 C662 1.350 . S
C666 C663 1.463 . S
C666 N670 1.427 . S
C667 H657 0.929 . S
C667 C665 1.433 . S
C667 N670 1.384 . S
C668 H659 0.929 . S
C668 C660 1.378 . S
C668 C663 1.350 . S
C669 H656 0.929 . S
C669 C661 1.433 . S
C669 N671 1.384 . S
N670 C666 1.427 . S
N670 C667 1.384 . S
N671 C663 1.427 . S
N671 C669 1.384 . S
H672 C678 0.930 . S
H673 C682 0.930 . S
H674 C687 0.929 . S
H675 C685 0.929 . S
H676 C680 0.929 . S
H677 C686 0.929 . S
C678 H672 0.930 . S
C678 C679 1.367 . S
C678 C686 1.378 . S
C679 C678 1.367 . S
C679 C687 1.433 . S
C680 H676 0.929 . S
C680 C682 1.378 . S
C680 C684 1.350 . S
C681 C684 1.463 . S
C681 C686 1.350 . S
C681 N689 1.427 . S
C682 H673 0.930 . S
C682 C680 1.378 . S
C682 C683 1.367 . S
C683 C682 1.367 . S
C683 C685 1.433 . S
C684 C680 1.350 . S
C684 C681 1.463 . S
C684 N688 1.427 . S
C685 H675 0.929 . S
C685 C683 1.433 . S
C685 N688 1.384 . S
C686 H677 0.929 . S
C686 C678 1.378 . S
C686 C681 1.350 . S
C687 H674 0.929 . S
C687 C679 1.433 . S
C687 N689 1.384 . S
N688 C684 1.427 . S
N688 C685 1.384 . S
N689 C681 1.427 . S
N689 C687 1.384 . S
H690 C696 0.930 . S
H691 C700 0.930 . S
H692 C705 0.929 . S
H693 C703 0.929 . S
H694 C698 0.929 . S
H695 C704 0.929 . S
C696 H690 0.930 . S
C696 C697 1.367 . S
C696 C704 1.378 . S
C697 C696 1.367 . S
C697 C705 1.433 . S
C698 H694 0.929 . S
C698 C700 1.378 . S
C698 C702 1.350 . S
C699 C702 1.463 . S
C699 C704 1.350 . S
C699 N707 1.427 . S
C700 H691 0.930 . S
C700 C698 1.378 . S
C700 C701 1.367 . S
C701 C700 1.367 . S
C701 C703 1.433 . S
C702 C698 1.350 . S
C702 C699 1.463 . S
C702 N706 1.427 . S
C703 H693 0.929 . S
C703 C701 1.433 . S
C703 N706 1.384 . S
C704 H695 0.929 . S
C704 C696 1.378 . S
C704 C699 1.350 . S
C705 H692 0.929 . S
C705 C697 1.433 . S
C705 N707 1.384 . S
N706 C702 1.427 . S
N706 C703 1.384 . S
N707 C699 1.427 . S
N707 C705 1.384 . S
H708 C714 0.930 . S
H709 C718 0.930 . S
H710 C723 0.929 . S
H711 C721 0.929 . S
H712 C716 0.929 . S
H713 C722 0.929 . S
C714 H708 0.930 . S
C714 C715 1.367 . S
C714 C722 1.378 . S
C715 C714 1.367 . S
C715 C723 1.433 . S
C716 H712 0.929 . S
C716 C718 1.378 . S
C716 C720 1.350 . S
C717 C720 1.463 . S
C717 C722 1.350 . S
C717 N725 1.427 . S
C718 H709 0.930 . S
C718 C716 1.378 . S
C718 C719 1.367 . S
C719 C718 1.367 . S
C719 C721 1.433 . S
C720 C716 1.350 . S
C720 C717 1.463 . S
C720 N724 1.427 . S
C721 H711 0.929 . S
C721 C719 1.433 . S
C721 N724 1.384 . S
C722 H713 0.929 . S
C722 C714 1.378 . S
C722 C717 1.350 . S
C723 H710 0.929 . S
C723 C715 1.433 . S
C723 N725 1.384 . S
N724 C720 1.427 . S
N724 C721 1.384 . S
N725 C717 1.427 . S
N725 C723 1.384 . S
H726 C732 0.930 . S
H727 C736 0.930 . S
H728 C741 0.929 . S
H729 C739 0.929 . S
H730 C734 0.929 . S
H731 C740 0.929 . S
C732 H726 0.930 . S
C732 C733 1.367 . S
C732 C740 1.378 . S
C733 C732 1.367 . S
C733 C741 1.433 . S
C734 H730 0.929 . S
C734 C736 1.378 . S
C734 C738 1.350 . S
C735 C738 1.463 . S
C735 C740 1.350 . S
C735 N743 1.427 . S
C736 H727 0.930 . S
C736 C734 1.378 . S
C736 C737 1.367 . S
C737 C736 1.367 . S
C737 C739 1.433 . S
C738 C734 1.350 . S
C738 C735 1.463 . S
C738 N742 1.427 . S
C739 H729 0.929 . S
C739 C737 1.433 . S
C739 N742 1.384 . S
C740 H731 0.929 . S
C740 C732 1.378 . S
C740 C735 1.350 . S
C741 H728 0.929 . S
C741 C733 1.433 . S
C741 N743 1.384 . S
N742 C738 1.427 . S
N742 C739 1.384 . S
N743 C735 1.427 . S
N743 C741 1.384 . S
H744 C750 0.930 . S
H745 C754 0.930 . S
H746 C759 0.929 . S
H747 C757 0.929 . S
H748 C752 0.929 . S
H749 C758 0.929 . S
C750 H744 0.930 . S
C750 C751 1.367 . S
C750 C758 1.378 . S
C751 C750 1.367 . S
C751 C759 1.433 . S
C752 H748 0.929 . S
C752 C754 1.378 . S
C752 C756 1.350 . S
C753 C756 1.463 . S
C753 C758 1.350 . S
C753 N761 1.427 . S
C754 H745 0.930 . S
C754 C752 1.378 . S
C754 C755 1.367 . S
C755 C754 1.367 . S
C755 C757 1.433 . S
C756 C752 1.350 . S
C756 C753 1.463 . S
C756 N760 1.427 . S
C757 H747 0.929 . S
C757 C755 1.433 . S
C757 N760 1.384 . S
C758 H749 0.929 . S
C758 C750 1.378 . S
C758 C753 1.350 . S
C759 H746 0.929 . S
C759 C751 1.433 . S
C759 N761 1.384 . S
N760 C756 1.427 . S
N760 C757 1.384 . S
N761 C753 1.427 . S
N761 C759 1.384 . S
H762 C768 0.930 . S
H763 C772 0.930 . S
H764 C777 0.929 . S
H765 C775 0.929 . S
H766 C770 0.929 . S
H767 C776 0.929 . S
C768 H762 0.930 . S
C768 C769 1.367 . S
C768 C776 1.378 . S
C769 C768 1.367 . S
C769 C777 1.433 . S
C770 H766 0.929 . S
C770 C772 1.378 . S
C770 C774 1.350 . S
C771 C774 1.463 . S
C771 C776 1.350 . S
C771 N779 1.427 . S
C772 H763 0.930 . S
C772 C770 1.378 . S
C772 C773 1.367 . S
C773 C772 1.367 . S
C773 C775 1.433 . S
C774 C770 1.350 . S
C774 C771 1.463 . S
C774 N778 1.427 . S
C775 H765 0.929 . S
C775 C773 1.433 . S
C775 N778 1.384 . S
C776 H767 0.929 . S
C776 C768 1.378 . S
C776 C771 1.350 . S
C777 H764 0.929 . S
C777 C769 1.433 . S
C777 N779 1.384 . S
N778 C774 1.427 . S
N778 C775 1.384 . S
N779 C771 1.427 . S
N779 C777 1.384 . S
H780 C786 0.930 . S
H781 C790 0.930 . S
H782 C795 0.929 . S
H783 C793 0.929 . S
H784 C788 0.929 . S
H785 C794 0.929 . S
C786 H780 0.930 . S
C786 C787 1.367 . S
C786 C794 1.378 . S
C787 C786 1.367 . S
C787 C795 1.433 . S
C788 H784 0.929 . S
C788 C790 1.378 . S
C788 C792 1.350 . S
C789 C792 1.463 . S
C789 C794 1.350 . S
C789 N797 1.427 . S
C790 H781 0.930 . S
C790 C788 1.378 . S
C790 C791 1.367 . S
C791 C790 1.367 . S
C791 C793 1.433 . S
C792 C788 1.350 . S
C792 C789 1.463 . S
C792 N796 1.427 . S
C793 H783 0.929 . S
C793 C791 1.433 . S
C793 N796 1.384 . S
C794 H785 0.929 . S
C794 C786 1.378 . S
C794 C789 1.350 . S
C795 H782 0.929 . S
C795 C787 1.433 . S
C795 N797 1.384 . S
N796 C792 1.427 . S
N796 C793 1.384 . S
N797 C789 1.427 . S
N797 C795 1.384 . S
H798 C804 0.930 . S
H799 C808 0.930 . S
H800 C813 0.929 . S
H801 C811 0.929 . S
H802 C806 0.929 . S
H803 C812 0.929 . S
C804 H798 0.930 . S
C804 C805 1.367 . S
C804 C812 1.378 . S
C805 C804 1.367 . S
C805 C813 1.433 . S
C806 H802 0.929 . S
C806 C808 1.378 . S
C806 C810 1.350 . S
C807 C810 1.463 . S
C807 C812 1.350 . S
C807 N815 1.427 . S
C808 H799 0.930 . S
C808 C806 1.378 . S
C808 C809 1.367 . S
C809 C808 1.367 . S
C809 C811 1.433 . S
C810 C806 1.350 . S
C810 C807 1.463 . S
C810 N814 1.427 . S
C811 H801 0.929 . S
C811 C809 1.433 . S
C811 N814 1.384 . S
C812 H803 0.929 . S
C812 C804 1.378 . S
C812 C807 1.350 . S
C813 H800 0.929 . S
C813 C805 1.433 . S
C813 N815 1.384 . S
N814 C810 1.427 . S
N814 C811 1.384 . S
N815 C807 1.427 . S
N815 C813 1.384 . S
H816 C822 0.918 1_565 S
H817 C826 0.918 1_545 S
H818 C831 0.929 . S
H819 C829 0.929 . S
H820 C824 0.929 . S
H821 C830 0.929 . S
C822 H816 0.918 1_545 S
C822 C823 1.367 . S
C822 C830 1.378 1_545 S
C823 C822 1.367 . S
C823 C831 1.433 . S
C824 H820 0.929 . S
C824 C826 1.378 1_545 S
C824 C828 1.350 1_545 S
C825 C828 1.463 1_445 S
C825 C830 1.350 1_545 S
C825 N833 1.427 . S
C826 H817 0.918 1_565 S
C826 C824 1.378 1_565 S
C826 C827 1.367 . S
C827 C826 1.367 . S
C827 C829 1.433 . S
C828 C824 1.350 1_565 S
C828 C825 1.463 1_665 S
C828 N832 1.427 . S
C829 H819 0.929 . S
C829 C827 1.433 . S
C829 N832 1.384 . S
C830 H821 0.929 . S
C830 C822 1.378 1_565 S
C830 C825 1.350 1_565 S
C831 H818 0.929 . S
C831 C823 1.433 . S
C831 N833 1.384 . S
N832 C828 1.427 . S
N832 C829 1.384 . S
N833 C825 1.427 . S
N833 C831 1.384 . S
H834 C840 0.930 . S
H835 C844 0.930 . S
H836 C849 0.929 1_655 S
H837 C847 0.929 1_455 S
H838 C842 0.929 1_565 S
H839 C848 0.929 1_545 S
C840 H834 0.930 . S
C840 C841 1.367 . S
C840 C848 1.378 . S
C841 C840 1.367 . S
C841 C849 1.433 . S
C842 H838 0.929 1_545 S
C842 C844 1.378 . S
C842 C846 1.350 . S
C843 C846 1.463 1_465 S
C843 C848 1.350 . S
C843 N851 1.427 1_455 S
C844 H835 0.930 . S
C844 C842 1.378 . S
C844 C845 1.367 . S
C845 C844 1.367 . S
C845 C847 1.433 . S
C846 C842 1.350 . S
C846 C843 1.463 1_645 S
C846 N850 1.427 1_655 S
C847 H837 0.929 1_655 S
C847 C845 1.433 . S
C847 N850 1.384 1_655 S
C848 H839 0.929 1_565 S
C848 C840 1.378 . S
C848 C843 1.350 . S
C849 H836 0.929 1_455 S
C849 C841 1.433 . S
C849 N851 1.384 1_455 S
N850 C846 1.427 1_455 S
N850 C847 1.384 1_455 S
N851 C843 1.427 1_655 S
N851 C849 1.384 1_655 S
H852 C858 0.930 . S
H853 C862 0.930 . S
H854 C867 0.929 . S
H855 C865 0.929 . S
H856 C860 0.929 . S
H857 C866 0.929 . S
C858 H852 0.930 . S
C858 C859 1.367 . S
C858 C866 1.378 . S
C859 C858 1.367 . S
C859 C867 1.433 1_554 S
C860 H856 0.929 . S
C860 C862 1.378 . S
C860 C864 1.350 1_556 S
C861 C864 1.463 1_455 S
C861 C866 1.350 . S
C861 N869 1.427 1_554 S
C862 H853 0.930 . S
C862 C860 1.378 . S
C862 C863 1.367 1_556 S
C863 C862 1.367 1_554 S
C863 C865 1.433 . S
C864 C860 1.350 1_554 S
C864 C861 1.463 1_655 S
C864 N868 1.427 . S
C865 H855 0.929 . S
C865 C863 1.433 . S
C865 N868 1.384 . S
C866 H857 0.929 . S
C866 C858 1.378 . S
C866 C861 1.350 . S
C867 H854 0.929 . S
C867 C859 1.433 1_556 S
C867 N869 1.384 . S
N868 C864 1.427 . S
N868 C865 1.384 . S
N869 C861 1.427 1_556 S
N869 C867 1.384 . S
H870 C876 0.930 . S
H871 C880 0.930 . S
H872 C885 0.929 . S
H873 C883 0.929 . S
H874 C878 0.929 . S
H875 C884 0.929 . S
C876 H870 0.930 . S
C876 C877 1.367 . S
C876 C884 1.378 . S
C877 C876 1.367 . S
C877 C885 1.433 1_556 S
C878 H874 0.929 . S
C878 C880 1.378 . S
C878 C882 1.350 1_554 S
C879 C882 1.463 1_565 S
C879 C884 1.350 . S
C879 N887 1.427 1_556 S
C880 H871 0.930 . S
C880 C878 1.378 . S
C880 C881 1.367 1_554 S
C881 C880 1.367 1_556 S
C881 C883 1.433 . S
C882 C878 1.350 1_556 S
C882 C879 1.463 1_545 S
C882 N886 1.427 . S
C883 H873 0.929 . S
C883 C881 1.433 . S
C883 N886 1.384 . S
C884 H875 0.929 . S
C884 C876 1.378 . S
C884 C879 1.350 . S
C885 H872 0.929 . S
C885 C877 1.433 1_554 S
C885 N887 1.384 . S
N886 C882 1.427 . S
N886 C883 1.384 . S
N887 C879 1.427 1_554 S
N887 C885 1.384 . S
H888 C894 0.930 . S
H889 C898 0.930 . S
H890 C903 0.929 . S
H891 C901 0.929 . S
H892 C896 0.929 . S
H893 C902 0.929 . S
C894 H888 0.930 . S
C894 C895 1.367 . S
C894 C902 1.378 . S
C895 C894 1.367 . S
C895 C903 1.433 . S
C896 H892 0.929 . S
C896 C898 1.378 . S
C896 C900 1.350 . S
C897 C900 1.463 . S
C897 C902 1.350 . S
C897 N905 1.427 . S
C898 H889 0.930 . S
C898 C896 1.378 . S
C898 C899 1.367 . S
C899 C898 1.367 . S
C899 C901 1.433 . S
C900 C896 1.350 . S
C900 C897 1.463 . S
C900 N904 1.427 . S
C901 H891 0.929 . S
C901 C899 1.433 . S
C901 N904 1.384 . S
C902 H893 0.929 . S
C902 C894 1.378 . S
C902 C897 1.350 . S
C903 H890 0.929 . S
C903 C895 1.433 . S
C903 N905 1.384 . S
N904 C900 1.427 . S
N904 C901 1.384 . S
N905 C897 1.427 . S
N905 C903 1.384 . S
H906 C912 0.930 . S
H907 C916 0.930 . S
H908 C921 0.929 . S
H909 C919 0.929 . S
H910 C914 0.929 . S
H911 C920 0.929 . S
C912 H906 0.930 . S
C912 C913 1.367 . S
C912 C920 1.378 . S
C913 C912 1.367 . S
C913 C921 1.433 . S
C914 H910 0.929 . S
C914 C916 1.378 . S
C914 C918 1.350 . S
C915 C918 1.463 . S
C915 C920 1.350 . S
C915 N923 1.427 . S
C916 H907 0.930 . S
C916 C914 1.378 . S
C916 C917 1.367 . S
C917 C916 1.367 . S
C917 C919 1.433 . S
C918 C914 1.350 . S
C918 C915 1.463 . S
C918 N922 1.427 . S
C919 H909 0.929 . S
C919 C917 1.433 . S
C919 N922 1.384 . S
C920 H911 0.929 . S
C920 C912 1.378 . S
C920 C915 1.350 . S
C921 H908 0.929 . S
C921 C913 1.433 . S
C921 N923 1.384 . S
N922 C918 1.427 . S
N922 C919 1.384 . S
N923 C915 1.427 . S
N923 C921 1.384 . S
H924 C930 0.930 . S
H925 C934 0.930 . S
H926 C939 0.929 . S
H927 C937 0.929 . S
H928 C932 0.929 1_565 S
H929 C938 0.929 1_545 S
C930 H924 0.930 . S
C930 C931 1.367 . S
C930 C938 1.378 . S
C931 C930 1.367 . S
C931 C939 1.433 . S
C932 H928 0.929 1_545 S
C932 C934 1.378 . S
C932 C936 1.350 . S
C933 C936 1.463 1_565 S
C933 C938 1.350 . S
C933 N941 1.427 . S
C934 H925 0.930 . S
C934 C932 1.378 . S
C934 C935 1.367 . S
C935 C934 1.367 . S
C935 C937 1.433 . S
C936 C932 1.350 . S
C936 C933 1.463 1_545 S
C936 N940 1.427 . S
C937 H927 0.929 . S
C937 C935 1.433 . S
C937 N940 1.384 . S
C938 H929 0.929 1_565 S
C938 C930 1.378 . S
C938 C933 1.350 . S
C939 H926 0.929 . S
C939 C931 1.433 . S
C939 N941 1.384 . S
N940 C936 1.427 . S
N940 C937 1.384 . S
N941 C933 1.427 . S
N941 C939 1.384 . S
H942 C948 0.930 . S
H943 C952 0.930 . S
H944 C957 0.929 . S
H945 C955 0.929 . S
H946 C950 0.929 . S
H947 C956 0.929 . S
C948 H942 0.930 . S
C948 C949 1.367 . S
C948 C956 1.378 . S
C949 C948 1.367 . S
C949 C957 1.433 . S
C950 H946 0.929 . S
C950 C952 1.378 . S
C950 C954 1.350 . S
C951 C954 1.463 1_655 S
C951 C956 1.350 . S
C951 N959 1.427 . S
C952 H943 0.930 . S
C952 C950 1.378 . S
C952 C953 1.367 . S
C953 C952 1.367 . S
C953 C955 1.433 . S
C954 C950 1.350 . S
C954 C951 1.463 1_455 S
C954 N958 1.427 . S
C955 H945 0.929 . S
C955 C953 1.433 . S
C955 N958 1.384 . S
C956 H947 0.929 . S
C956 C948 1.378 . S
C956 C951 1.350 . S
C957 H944 0.929 . S
C957 C949 1.433 . S
C957 N959 1.384 . S
N958 C954 1.427 . S
N958 C955 1.384 . S
N959 C951 1.427 . S
N959 C957 1.384 . S
H960 C966 0.930 . S
H961 C970 0.930 . S
H962 C975 0.929 . S
H963 C973 0.929 . S
H964 C968 0.920 1_545 S
H965 C974 0.929 . S
C966 H960 0.930 . S
C966 C967 1.367 . S
C966 C974 1.378 . S
C967 C966 1.367 . S
C967 C975 1.433 . S
C968 H964 0.920 1_565 S
C968 C970 1.358 1_565 S
C968 C972 1.381 . S
C969 C972 1.463 . S
C969 C974 1.350 . S
C969 N977 1.427 . S
C970 H961 0.930 . S
C970 C968 1.358 1_545 S
C970 C971 1.367 . S
C971 C970 1.367 . S
C971 C973 1.433 1_545 S
C972 C968 1.381 . S
C972 C969 1.463 . S
C972 N976 1.427 . S
C973 H963 0.929 . S
C973 C971 1.433 1_565 S
C973 N976 1.384 . S
C974 H965 0.929 . S
C974 C966 1.378 . S
C974 C969 1.350 . S
C975 H962 0.929 . S
C975 C967 1.433 . S
C975 N977 1.384 . S
N976 C972 1.427 . S
N976 C973 1.384 . S
N977 C969 1.427 . S
N977 C975 1.384 . S
H978 C984 0.930 . S
H979 C988 0.930 . S
H980 C993 0.929 . S
H981 C991 0.929 . S
H982 C986 0.929 . S
H983 C992 0.929 . S
C984 H978 0.930 . S
C984 C985 1.367 . S
C984 C992 1.378 . S
C985 C984 1.367 . S
C985 C993 1.433 1_455 S
C986 H982 0.929 . S
C986 C988 1.378 . S
C986 C990 1.350 . S
C987 C990 1.463 . S
C987 C992 1.350 1_655 S
C987 N995 1.427 . S
C988 H979 0.930 . S
C988 C986 1.378 . S
C988 C989 1.367 . S
C989 C988 1.367 . S
C989 C991 1.433 . S
C990 C986 1.350 . S
C990 C987 1.463 . S
C990 N994 1.427 . S
C991 H981 0.929 . S
C991 C989 1.433 . S
C991 N994 1.384 . S
C992 H983 0.929 . S
C992 C984 1.378 . S
C992 C987 1.350 1_455 S
C993 H980 0.929 . S
C993 C985 1.433 1_655 S
C993 N995 1.384 . S
N994 C990 1.427 . S
N994 C991 1.384 . S
N995 C987 1.427 . S
N995 C993 1.384 . S
H996 C1002 0.930 . S
H997 C1006 0.930 . S
H998 C1011 0.929 . S
H999 C1009 0.929 . S
H1000 C1004 0.929 . S
H1001 C1010 0.929 . S
C1002 H996 0.930 . S
C1002 C1003 1.367 . S
C1002 C1010 1.378 . S
C1003 C1002 1.367 . S
C1003 C1011 1.433 . S
C1004 H1000 0.929 . S
C1004 C1006 1.378 . S
C1004 C1008 1.350 . S
C1005 C1008 1.463 . S
C1005 C1010 1.350 . S
C1005 N1013 1.427 . S
C1006 H997 0.930 . S
C1006 C1004 1.378 . S
C1006 C1007 1.367 1_545 S
C1007 C1006 1.367 1_565 S
C1007 C1009 1.433 . S
C1008 C1004 1.350 . S
C1008 C1005 1.463 . S
C1008 N1012 1.427 1_545 S
C1009 H999 0.929 . S
C1009 C1007 1.433 . S
C1009 N1012 1.384 . S
C1010 H1001 0.929 . S
C1010 C1002 1.378 . S
C1010 C1005 1.350 . S
C1011 H998 0.929 . S
C1011 C1003 1.433 . S
C1011 N1013 1.384 . S
N1012 C1008 1.427 1_565 S
N1012 C1009 1.384 . S
N1013 C1005 1.427 . S
N1013 C1011 1.384 . S
H1014 C1020 0.930 . S
H1015 C1024 0.930 . S
H1016 C1029 0.929 . S
H1017 C1027 0.929 . S
H1018 C1022 0.929 . S
H1019 C1028 0.929 . S
C1020 H1014 0.930 . S
C1020 C1021 1.367 1_455 S
C1020 C1028 1.378 . S
C1021 C1020 1.367 1_655 S
C1021 C1029 1.433 . S
C1022 H1018 0.929 . S
C1022 C1024 1.378 . S
C1022 C1026 1.350 . S
C1023 C1026 1.463 . S
C1023 C1028 1.350 . S
C1023 N1031 1.427 . S
C1024 H1015 0.930 . S
C1024 C1022 1.378 . S
C1024 C1025 1.367 . S
C1025 C1024 1.367 . S
C1025 C1027 1.433 . S
C1026 C1022 1.350 . S
C1026 C1023 1.463 . S
C1026 N1030 1.427 . S
C1027 H1017 0.929 . S
C1027 C1025 1.433 . S
C1027 N1030 1.384 . S
C1028 H1019 0.929 . S
C1028 C1020 1.378 . S
C1028 C1023 1.350 . S
C1029 H1016 0.929 . S
C1029 C1021 1.433 . S
C1029 N1031 1.384 1_655 S
N1030 C1026 1.427 . S
N1030 C1027 1.384 . S
N1031 C1023 1.427 . S
N1031 C1029 1.384 1_455 S
H1032 C1038 0.930 . S
H1033 C1042 0.930 . S
H1034 C1047 0.929 . S
H1035 C1045 0.929 . S
H1036 C1040 0.929 . S
H1037 C1046 0.929 . S
C1038 H1032 0.930 . S
C1038 C1039 1.367 . S
C1038 C1046 1.378 . S
C1039 C1038 1.367 . S
C1039 C1047 1.433 . S
C1040 H1036 0.929 . S
C1040 C1042 1.378 . S
C1040 C1044 1.350 . S
C1041 C1044 1.463 . S
C1041 C1046 1.350 . S
C1041 N1049 1.427 . S
C1042 H1033 0.930 . S
C1042 C1040 1.378 . S
C1042 C1043 1.367 . S
C1043 C1042 1.367 . S
C1043 C1045 1.433 . S
C1044 C1040 1.350 . S
C1044 C1041 1.463 . S
C1044 N1048 1.427 . S
C1045 H1035 0.929 . S
C1045 C1043 1.433 . S
C1045 N1048 1.384 . S
C1046 H1037 0.929 . S
C1046 C1038 1.378 . S
C1046 C1041 1.350 . S
C1047 H1034 0.929 . S
C1047 C1039 1.433 . S
C1047 N1049 1.384 . S
N1048 C1044 1.427 . S
N1048 C1045 1.384 . S
N1049 C1041 1.427 . S
N1049 C1047 1.384 . S
H1050 C1056 0.930 . S
H1051 C1060 0.930 . S
H1052 C1065 0.929 . S
H1053 C1063 0.929 . S
H1054 C1058 0.929 . S
H1055 C1064 0.929 . S
C1056 H1050 0.930 . S
C1056 C1057 1.367 . S
C1056 C1064 1.378 . S
C1057 C1056 1.367 . S
C1057 C1065 1.433 . S
C1058 H1054 0.929 . S
C1058 C1060 1.378 . S
C1058 C1062 1.350 . S
C1059 C1062 1.463 . S
C1059 C1064 1.350 . S
C1059 N1067 1.427 . S
C1060 H1051 0.930 . S
C1060 C1058 1.378 . S
C1060 C1061 1.367 . S
C1061 C1060 1.367 . S
C1061 C1063 1.433 . S
C1062 C1058 1.350 . S
C1062 C1059 1.463 . S
C1062 N1066 1.427 . S
C1063 H1053 0.929 . S
C1063 C1061 1.433 . S
C1063 N1066 1.384 . S
C1064 H1055 0.929 . S
C1064 C1056 1.378 . S
C1064 C1059 1.350 . S
C1065 H1052 0.929 . S
C1065 C1057 1.433 . S
C1065 N1067 1.384 . S
N1066 C1062 1.427 . S
N1066 C1063 1.384 . S
N1067 C1059 1.427 . S
N1067 C1065 1.384 . S
H1068 C1074 0.930 . S
H1069 C1078 0.930 . S
H1070 C1083 0.929 . S
H1071 C1081 0.929 . S
H1072 C1076 0.929 . S
H1073 C1082 0.929 . S
C1074 H1068 0.930 . S
C1074 C1075 1.367 . S
C1074 C1082 1.378 . S
C1075 C1074 1.367 . S
C1075 C1083 1.433 . S
C1076 H1072 0.929 . S
C1076 C1078 1.378 . S
C1076 C1080 1.350 . S
C1077 C1080 1.463 . S
C1077 C1082 1.350 . S
C1077 N1085 1.427 . S
C1078 H1069 0.930 . S
C1078 C1076 1.378 . S
C1078 C1079 1.367 . S
C1079 C1078 1.367 . S
C1079 C1081 1.433 . S
C1080 C1076 1.350 . S
C1080 C1077 1.463 . S
C1080 N1084 1.427 . S
C1081 H1071 0.929 . S
C1081 C1079 1.433 . S
C1081 N1084 1.384 . S
C1082 H1073 0.929 . S
C1082 C1074 1.378 . S
C1082 C1077 1.350 . S
C1083 H1070 0.929 . S
C1083 C1075 1.433 . S
C1083 N1085 1.384 . S
N1084 C1080 1.427 . S
N1084 C1081 1.384 . S
N1085 C1077 1.427 . S
N1085 C1083 1.384 . S
H1086 C1092 0.930 . S
H1087 C1096 0.930 . S
H1088 C1101 0.929 . S
H1089 C1099 0.929 . S
H1090 C1094 0.929 . S
H1091 C1100 0.929 . S
C1092 H1086 0.930 . S
C1092 C1093 1.367 . S
C1092 C1100 1.378 . S
C1093 C1092 1.367 . S
C1093 C1101 1.433 . S
C1094 H1090 0.929 . S
C1094 C1096 1.378 . S
C1094 C1098 1.350 . S
C1095 C1098 1.463 . S
C1095 C1100 1.350 . S
C1095 N1103 1.427 . S
C1096 H1087 0.930 . S
C1096 C1094 1.378 . S
C1096 C1097 1.367 . S
C1097 C1096 1.367 . S
C1097 C1099 1.433 . S
C1098 C1094 1.350 . S
C1098 C1095 1.463 . S
C1098 N1102 1.427 . S
C1099 H1089 0.929 . S
C1099 C1097 1.433 . S
C1099 N1102 1.384 . S
C1100 H1091 0.929 . S
C1100 C1092 1.378 . S
C1100 C1095 1.350 . S
C1101 H1088 0.929 . S
C1101 C1093 1.433 . S
C1101 N1103 1.384 . S
N1102 C1098 1.427 . S
N1102 C1099 1.384 . S
N1103 C1095 1.427 . S
N1103 C1101 1.384 . S
H1104 C1110 0.930 . S
H1105 C1114 0.930 . S
H1106 C1119 0.929 . S
H1107 C1117 0.929 . S
H1108 C1112 0.929 . S
H1109 C1118 0.929 . S
C1110 H1104 0.930 . S
C1110 C1111 1.367 . S
C1110 C1118 1.378 . S
C1111 C1110 1.367 . S
C1111 C1119 1.433 . S
C1112 H1108 0.929 . S
C1112 C1114 1.378 . S
C1112 C1116 1.350 . S
C1113 C1116 1.463 1_556 S
C1113 C1118 1.350 . S
C1113 N1121 1.427 . S
C1114 H1105 0.930 . S
C1114 C1112 1.378 . S
C1114 C1115 1.367 . S
C1115 C1114 1.367 . S
C1115 C1117 1.433 . S
C1116 C1112 1.350 . S
C1116 C1113 1.463 1_554 S
C1116 N1120 1.427 . S
C1117 H1107 0.929 . S
C1117 C1115 1.433 . S
C1117 N1120 1.384 . S
C1118 H1109 0.929 . S
C1118 C1110 1.378 . S
C1118 C1113 1.350 . S
C1119 H1106 0.929 . S
C1119 C1111 1.433 . S
C1119 N1121 1.384 . S
N1120 C1116 1.427 . S
N1120 C1117 1.384 . S
N1121 C1113 1.427 . S
N1121 C1119 1.384 . S
H1122 C1128 0.930 . S
H1123 C1132 0.930 . S
H1124 C1137 0.929 . S
H1125 C1135 0.929 . S
H1126 C1130 0.929 . S
H1127 C1136 0.929 . S
C1128 H1122 0.930 . S
C1128 C1129 1.367 . S
C1128 C1136 1.378 . S
C1129 C1128 1.367 . S
C1129 C1137 1.433 . S
C1130 H1126 0.929 . S
C1130 C1132 1.378 . S
C1130 C1134 1.350 . S
C1131 C1134 1.463 1_556 S
C1131 C1136 1.350 . S
C1131 N1139 1.427 . S
C1132 H1123 0.930 . S
C1132 C1130 1.378 . S
C1132 C1133 1.367 . S
C1133 C1132 1.367 . S
C1133 C1135 1.433 . S
C1134 C1130 1.350 . S
C1134 C1131 1.463 1_554 S
C1134 N1138 1.427 . S
C1135 H1125 0.929 . S
C1135 C1133 1.433 . S
C1135 N1138 1.384 . S
C1136 H1127 0.929 . S
C1136 C1128 1.378 . S
C1136 C1131 1.350 . S
C1137 H1124 0.929 . S
C1137 C1129 1.433 . S
C1137 N1139 1.384 . S
N1138 C1134 1.427 . S
N1138 C1135 1.384 . S
N1139 C1131 1.427 . S
N1139 C1137 1.384 . S
H1140 C1146 0.930 . S
H1141 C1150 0.930 . S
H1142 C1155 0.929 . S
H1143 C1153 0.929 . S
H1144 C1148 0.929 1_556 S
H1145 C1154 0.929 . S
C1146 H1140 0.930 . S
C1146 C1147 1.367 . S
C1146 C1154 1.378 . S
C1147 C1146 1.367 . S
C1147 C1155 1.433 . S
C1148 H1144 0.929 1_554 S
C1148 C1150 1.378 . S
C1148 C1152 1.350 . S
C1149 C1152 1.463 1_556 S
C1149 C1154 1.350 . S
C1149 N1157 1.427 . S
C1150 H1141 0.930 . S
C1150 C1148 1.378 . S
C1150 C1151 1.367 . S
C1151 C1150 1.367 . S
C1151 C1153 1.433 . S
C1152 C1148 1.350 . S
C1152 C1149 1.463 1_554 S
C1152 N1156 1.427 . S
C1153 H1143 0.929 . S
C1153 C1151 1.433 . S
C1153 N1156 1.384 . S
C1154 H1145 0.929 . S
C1154 C1146 1.378 . S
C1154 C1149 1.350 . S
C1155 H1142 0.929 . S
C1155 C1147 1.433 . S
C1155 N1157 1.384 . S
N1156 C1152 1.427 . S
N1156 C1153 1.384 . S
N1157 C1149 1.427 . S
N1157 C1155 1.384 . S
H1158 C1164 0.930 . S
H1159 C1168 0.930 . S
H1160 C1173 0.929 . S
H1161 C1171 0.929 . S
H1162 C1166 0.929 1_554 S
H1163 C1172 0.929 . S
C1164 H1158 0.930 . S
C1164 C1165 1.367 . S
C1164 C1172 1.378 . S
C1165 C1164 1.367 . S
C1165 C1173 1.433 . S
C1166 H1162 0.929 1_556 S
C1166 C1168 1.378 . S
C1166 C1170 1.350 . S
C1167 C1170 1.463 1_554 S
C1167 C1172 1.350 . S
C1167 N1175 1.427 . S
C1168 H1159 0.930 . S
C1168 C1166 1.378 . S
C1168 C1169 1.367 . S
C1169 C1168 1.367 . S
C1169 C1171 1.433 . S
C1170 C1166 1.350 . S
C1170 C1167 1.463 1_556 S
C1170 N1174 1.427 . S
C1171 H1161 0.929 . S
C1171 C1169 1.433 . S
C1171 N1174 1.384 . S
C1172 H1163 0.929 . S
C1172 C1164 1.378 . S
C1172 C1167 1.350 . S
C1173 H1160 0.929 . S
C1173 C1165 1.433 . S
C1173 N1175 1.384 . S
N1174 C1170 1.427 . S
N1174 C1171 1.384 . S
N1175 C1167 1.427 . S
N1175 C1173 1.384 . S
H1176 C1182 0.930 . S
H1177 C1186 0.930 . S
H1178 C1191 0.929 . S
H1179 C1189 0.929 . S
H1180 C1184 0.929 . S
H1181 C1190 0.929 . S
C1182 H1176 0.930 . S
C1182 C1183 1.367 . S
C1182 C1190 1.378 . S
C1183 C1182 1.367 . S
C1183 C1191 1.433 . S
C1184 H1180 0.929 . S
C1184 C1186 1.378 . S
C1184 C1188 1.350 1_565 S
C1185 C1188 1.463 . S
C1185 C1190 1.350 . S
C1185 N1193 1.427 . S
C1186 H1177 0.930 . S
C1186 C1184 1.378 . S
C1186 C1187 1.367 . S
C1187 C1186 1.367 . S
C1187 C1189 1.433 1_565 S
C1188 C1184 1.350 1_545 S
C1188 C1185 1.463 . S
C1188 N1192 1.427 . S
C1189 H1179 0.929 . S
C1189 C1187 1.433 1_545 S
C1189 N1192 1.384 . S
C1190 H1181 0.929 . S
C1190 C1182 1.378 . S
C1190 C1185 1.350 . S
C1191 H1178 0.929 . S
C1191 C1183 1.433 . S
C1191 N1193 1.384 . S
N1192 C1188 1.427 . S
N1192 C1189 1.384 . S
N1193 C1185 1.427 . S
N1193 C1191 1.384 . S
H1194 C1200 0.938 . S
H1195 C1204 0.930 . S
H1196 C1209 0.929 . S
H1197 C1207 0.929 . S
H1198 C1202 0.929 . S
H1199 C1208 0.929 . S
C1200 H1194 0.938 . S
C1200 C1201 1.367 1_455 S
C1200 C1208 1.378 . S
C1201 C1200 1.367 1_655 S
C1201 C1209 1.433 . S
C1202 H1198 0.929 . S
C1202 C1204 1.378 . S
C1202 C1206 1.350 . S
C1203 C1206 1.463 . S
C1203 C1208 1.350 . S
C1203 N1211 1.427 . S
C1204 H1195 0.930 . S
C1204 C1202 1.378 . S
C1204 C1205 1.367 . S
C1205 C1204 1.367 . S
C1205 C1207 1.433 . S
C1206 C1202 1.350 . S
C1206 C1203 1.463 . S
C1206 N1210 1.427 . S
C1207 H1197 0.929 . S
C1207 C1205 1.433 . S
C1207 N1210 1.384 . S
C1208 H1199 0.929 . S
C1208 C1200 1.378 . S
C1208 C1203 1.350 . S
C1209 H1196 0.929 . S
C1209 C1201 1.433 . S
C1209 N1211 1.384 1_655 S
N1210 C1206 1.427 . S
N1210 C1207 1.384 . S
N1211 C1203 1.427 . S
N1211 C1209 1.384 1_455 S
H1212 C1218 0.930 . S
H1213 C1222 0.930 . S
H1214 C1227 0.929 . S
H1215 C1225 0.929 . S
H1216 C1220 0.929 . S
H1217 C1226 0.929 . S
C1218 H1212 0.930 . S
C1218 C1219 1.367 . S
C1218 C1226 1.378 1_545 S
C1219 C1218 1.367 . S
C1219 C1227 1.433 1_545 S
C1220 H1216 0.929 . S
C1220 C1222 1.378 . S
C1220 C1224 1.350 . S
C1221 C1224 1.463 . S
C1221 C1226 1.350 . S
C1221 N1229 1.427 . S
C1222 H1213 0.930 . S
C1222 C1220 1.378 . S
C1222 C1223 1.367 . S
C1223 C1222 1.367 . S
C1223 C1225 1.433 . S
C1224 C1220 1.350 . S
C1224 C1221 1.463 . S
C1224 N1228 1.427 . S
C1225 H1215 0.929 . S
C1225 C1223 1.433 . S
C1225 N1228 1.384 . S
C1226 H1217 0.929 . S
C1226 C1218 1.378 1_565 S
C1226 C1221 1.350 . S
C1227 H1214 0.929 . S
C1227 C1219 1.433 1_565 S
C1227 N1229 1.384 . S
N1228 C1224 1.427 . S
N1228 C1225 1.384 . S
N1229 C1221 1.427 . S
N1229 C1227 1.384 . S
H1230 C1236 0.930 . S
H1231 C1240 0.930 . S
H1232 C1245 0.929 . S
H1233 C1243 0.929 . S
H1234 C1238 0.929 . S
H1235 C1244 0.929 . S
C1236 H1230 0.930 . S
C1236 C1237 1.367 1_655 S
C1236 C1244 1.378 . S
C1237 C1236 1.367 1_455 S
C1237 C1245 1.433 . S
C1238 H1234 0.929 . S
C1238 C1240 1.378 . S
C1238 C1242 1.350 . S
C1239 C1242 1.463 . S
C1239 C1244 1.350 . S
C1239 N1247 1.447 . S
C1240 H1231 0.930 . S
C1240 C1238 1.378 . S
C1240 C1241 1.367 . S
C1241 C1240 1.367 . S
C1241 C1243 1.433 . S
C1242 C1238 1.350 . S
C1242 C1239 1.463 . S
C1242 N1246 1.427 . S
C1243 H1233 0.929 . S
C1243 C1241 1.433 . S
C1243 N1246 1.384 . S
C1244 H1235 0.929 . S
C1244 C1236 1.378 . S
C1244 C1239 1.350 . S
C1245 H1232 0.929 . S
C1245 C1237 1.433 . S
C1245 N1247 1.371 1_455 S
N1246 C1242 1.427 . S
N1246 C1243 1.384 . S
N1247 C1239 1.447 . S
N1247 C1245 1.371 1_655 S
C535 N145 2.166 . S
C539 N13 2.163 . S
C553 N46 2.170 . S
C557 N178 2.162 . S
C571 N79 2.165 . S
C575 N211 2.170 . S
C589 N112 2.165 . S
C593 N244 2.170 . S
C607 N277 2.166 . S
C611 N409 2.169 . S
C625 N442 2.162 . S
C629 N310 2.167 . S
C643 N475 2.168 . S
C647 N343 2.168 . S
C661 N376 2.162 . S
C665 N508 2.167 . S
C679 C18 1.352 . S
C683 C480 1.353 . S
C697 C51 1.333 . S
C701 C513 1.333 . S
C715 C84 1.344 . S
C719 C414 1.341 . S
C733 C447 1.334 . S
C737 C117 1.333 . S
C751 C348 1.335 . S
C755 C150 1.338 . S
C769 C183 1.339 . S
C773 C381 1.343 . S
C787 C216 1.343 . S
C791 C282 1.346 . S
C805 C249 1.339 . S
C809 C315 1.343 . S
C823 C7 1.499 . S
C827 C73 1.509 . S
C841 C40 1.502 . S
C845 C106 1.494 . S
C859 C139 1.512 . S
C863 C205 1.491 . S
C877 C172 1.510 . S
C881 C238 1.490 . S
C895 C337 1.499 . S
C899 C271 1.497 . S
C913 C370 1.511 . S
C917 C304 1.491 . S
C931 C403 1.494 . S
C935 C469 1.512 . S
C949 C436 1.508 . S
C953 C502 1.490 . S
C967 C54 0.436 . S
C971 N2 0.489 . S
C985 N35 0.494 . S
C989 C87 0.451 . S
C1003 C120 0.481 . S
C1007 N68 0.544 . S
C1021 N101 0.503 . S
C1025 C21 0.435 . S
C1039 C516 0.438 . S
C1043 N134 0.489 . S
C1057 N167 0.503 . S
C1061 C417 0.435 . S
C1075 N200 0.506 . S
C1079 C450 0.465 . S
C1093 N233 0.509 . S
C1097 C483 0.438 . S
C1111 N266 0.534 . S
C1115 C318 0.485 . S
C1129 C351 0.433 . S
C1133 N299 0.491 . S
C1147 N332 0.496 . S
C1151 C384 0.453 . S
C1165 N365 0.524 . S
C1169 C285 0.480 . S
C1183 C252 0.449 . S
C1187 N398 0.493 . S
C1201 N431 0.502 . S
C1205 C153 0.435 . S
C1219 N464 0.493 . S
C1223 C186 0.433 . S
C1237 N497 0.519 . S
C1241 C219 0.446 . S
