# Generated by pormake.
# Topology snl, (6)-cn, num edge types: 1
# Building blocks:
#     Node 0, Type 0, BuildingBlock: FUNLAD_clean_sbu_0, # of connection points: 6
#     Node 1, Type 0, BuildingBlock: FUNLAD_clean_sbu_0, # of connection points: 6
#     Node 2, Type 0, BuildingBlock: FUNLAD_clean_sbu_0, # of connection points: 6
#     Node 3, Type 0, BuildingBlock: FUNLAD_clean_sbu_0, # of connection points: 6
#     Node 4, Type 0, BuildingBlock: FUNLAD_clean_sbu_0, # of connection points: 6
#     Node 5, Type 0, BuildingBlock: FUNLAD_clean_sbu_0, # of connection points: 6
#     Node 6, Type 0, BuildingBlock: FUNLAD_clean_sbu_0, # of connection points: 6
#     Node 7, Type 0, BuildingBlock: FUNLAD_clean_sbu_0, # of connection points: 6
#     Node 8, Type 0, BuildingBlock: FUNLAD_clean_sbu_0, # of connection points: 6
#     Node 9, Type 0, BuildingBlock: FUNLAD_clean_sbu_0, # of connection points: 6
#     Node 10, Type 0, BuildingBlock: FUNLAD_clean_sbu_0, # of connection points: 6
#     Node 11, Type 0, BuildingBlock: FUNLAD_clean_sbu_0, # of connection points: 6
#     Node 12, Type 0, BuildingBlock: FUNLAD_clean_sbu_0, # of connection points: 6
#     Node 13, Type 0, BuildingBlock: FUNLAD_clean_sbu_0, # of connection points: 6
#     Node 14, Type 0, BuildingBlock: FUNLAD_clean_sbu_0, # of connection points: 6
#     Node 15, Type 0, BuildingBlock: FUNLAD_clean_sbu_0, # of connection points: 6
#     Edge 16, Type (0, 0), BuildingBlock: AJUNOK_clean_linker_0, # of connection points: 2
#     Edge 17, Type (0, 0), BuildingBlock: AJUNOK_clean_linker_0, # of connection points: 2
#     Edge 18, Type (0, 0), BuildingBlock: AJUNOK_clean_linker_0, # of connection points: 2
#     Edge 19, Type (0, 0), BuildingBlock: AJUNOK_clean_linker_0, # of connection points: 2
#     Edge 20, Type (0, 0), BuildingBlock: AJUNOK_clean_linker_0, # of connection points: 2
#     Edge 21, Type (0, 0), BuildingBlock: AJUNOK_clean_linker_0, # of connection points: 2
#     Edge 22, Type (0, 0), BuildingBlock: AJUNOK_clean_linker_0, # of connection points: 2
#     Edge 23, Type (0, 0), BuildingBlock: AJUNOK_clean_linker_0, # of connection points: 2
#     Edge 24, Type (0, 0), BuildingBlock: AJUNOK_clean_linker_0, # of connection points: 2
#     Edge 25, Type (0, 0), BuildingBlock: AJUNOK_clean_linker_0, # of connection points: 2
#     Edge 26, Type (0, 0), BuildingBlock: AJUNOK_clean_linker_0, # of connection points: 2
#     Edge 27, Type (0, 0), BuildingBlock: AJUNOK_clean_linker_0, # of connection points: 2
#     Edge 28, Type (0, 0), BuildingBlock: AJUNOK_clean_linker_0, # of connection points: 2
#     Edge 29, Type (0, 0), BuildingBlock: AJUNOK_clean_linker_0, # of connection points: 2
#     Edge 30, Type (0, 0), BuildingBlock: AJUNOK_clean_linker_0, # of connection points: 2
#     Edge 31, Type (0, 0), BuildingBlock: AJUNOK_clean_linker_0, # of connection points: 2
#     Edge 32, Type (0, 0), BuildingBlock: AJUNOK_clean_linker_0, # of connection points: 2
#     Edge 33, Type (0, 0), BuildingBlock: AJUNOK_clean_linker_0, # of connection points: 2
#     Edge 34, Type (0, 0), BuildingBlock: AJUNOK_clean_linker_0, # of connection points: 2
#     Edge 35, Type (0, 0), BuildingBlock: AJUNOK_clean_linker_0, # of connection points: 2
#     Edge 36, Type (0, 0), BuildingBlock: AJUNOK_clean_linker_0, # of connection points: 2
#     Edge 37, Type (0, 0), BuildingBlock: AJUNOK_clean_linker_0, # of connection points: 2
#     Edge 38, Type (0, 0), BuildingBlock: AJUNOK_clean_linker_0, # of connection points: 2
#     Edge 39, Type (0, 0), BuildingBlock: AJUNOK_clean_linker_0, # of connection points: 2
#     Edge 40, Type (0, 0), BuildingBlock: AJUNOK_clean_linker_0, # of connection points: 2
#     Edge 41, Type (0, 0), BuildingBlock: AJUNOK_clean_linker_0, # of connection points: 2
#     Edge 42, Type (0, 0), BuildingBlock: AJUNOK_clean_linker_0, # of connection points: 2
#     Edge 43, Type (0, 0), BuildingBlock: AJUNOK_clean_linker_0, # of connection points: 2
#     Edge 44, Type (0, 0), BuildingBlock: AJUNOK_clean_linker_0, # of connection points: 2
#     Edge 45, Type (0, 0), BuildingBlock: AJUNOK_clean_linker_0, # of connection points: 2
#     Edge 46, Type (0, 0), BuildingBlock: AJUNOK_clean_linker_0, # of connection points: 2
#     Edge 47, Type (0, 0), BuildingBlock: AJUNOK_clean_linker_0, # of connection points: 2
#     Edge 48, Type (0, 0), BuildingBlock: AJUNOK_clean_linker_0, # of connection points: 2
#     Edge 49, Type (0, 0), BuildingBlock: AJUNOK_clean_linker_0, # of connection points: 2
#     Edge 50, Type (0, 0), BuildingBlock: AJUNOK_clean_linker_0, # of connection points: 2
#     Edge 51, Type (0, 0), BuildingBlock: AJUNOK_clean_linker_0, # of connection points: 2
#     Edge 52, Type (0, 0), BuildingBlock: AJUNOK_clean_linker_0, # of connection points: 2
#     Edge 53, Type (0, 0), BuildingBlock: AJUNOK_clean_linker_0, # of connection points: 2
#     Edge 54, Type (0, 0), BuildingBlock: AJUNOK_clean_linker_0, # of connection points: 2
#     Edge 55, Type (0, 0), BuildingBlock: AJUNOK_clean_linker_0, # of connection points: 2
#     Edge 56, Type (0, 0), BuildingBlock: AJUNOK_clean_linker_0, # of connection points: 2
#     Edge 57, Type (0, 0), BuildingBlock: AJUNOK_clean_linker_0, # of connection points: 2
#     Edge 58, Type (0, 0), BuildingBlock: AJUNOK_clean_linker_0, # of connection points: 2
#     Edge 59, Type (0, 0), BuildingBlock: AJUNOK_clean_linker_0, # of connection points: 2
#     Edge 60, Type (0, 0), BuildingBlock: AJUNOK_clean_linker_0, # of connection points: 2
#     Edge 61, Type (0, 0), BuildingBlock: AJUNOK_clean_linker_0, # of connection points: 2
#     Edge 62, Type (0, 0), BuildingBlock: AJUNOK_clean_linker_0, # of connection points: 2
#     Edge 63, Type (0, 0), BuildingBlock: AJUNOK_clean_linker_0, # of connection points: 2
# Relax obj value: 0.151
# Max RMSD: 0.144
# Mean RMSD: 0.105
data_MOF--net-snl--node1-FUNLAD_clean_sbu_0--edge1-AJUNOK_clean_linker_0
_symmetry_space_group_name_H-M    P1
_symmetry_Int_Tables_number       1
_symmetry_cell_setting            triclinic
loop_
_symmetry_equiv_pos_as_xyz
'x, y, z'
_cell_length_a     56.119779
_cell_length_b     54.874375
_cell_length_c     11.371997
_cell_angle_alpha  90.793714
_cell_angle_beta   90.669422
_cell_angle_gamma 91.088238
loop_
_atom_site_label
_atom_site_type_symbol
_atom_site_fract_x
_atom_site_fract_y
_atom_site_fract_z
_atom_type_partial_charge
C0 C 0.17864 0.64378 0.54847 0.0
N1 N 0.17847 0.70107 0.31402 0.0
C2 C 0.16272 0.71191 0.38676 0.0
C3 C 0.16012 0.73698 0.38466 0.0
C4 C 0.17388 0.75072 0.30684 0.0
C5 C 0.19078 0.73925 0.23662 0.0
C6 C 0.19283 0.71411 0.24176 0.0
Zn7 Zn 0.17881 0.66495 0.30595 0.0
C8 C 0.23245 0.64703 0.30856 0.0
N9 N 0.17914 0.58899 0.29065 0.0
C10 C 0.16232 0.57454 0.34114 0.0
C11 C 0.19565 0.57974 0.21652 0.0
C12 C 0.19496 0.55519 0.18567 0.0
C13 C 0.17699 0.54017 0.23086 0.0
C14 C 0.16092 0.54978 0.31215 0.0
Zn15 Zn 0.17825 0.62547 0.30484 0.0
O16 O 0.17914 0.66378 0.49347 0.0
C17 C 0.12433 0.64442 0.30159 0.0
O18 O 0.17812 0.62393 0.48977 0.0
H19 H 0.2086 0.59165 0.17585 0.0
H20 H 0.15157 0.701 0.44338 0.0
H21 H 0.14942 0.5824 0.39971 0.0
O22 O 0.13724 0.66403 0.30401 0.0
O23 O 0.13619 0.62454 0.30083 0.0
H24 H 0.20515 0.7049 0.18478 0.0
O25 O 0.17823 0.62651 0.12003 0.0
O26 O 0.17849 0.66618 0.11788 0.0
O27 O 0.22014 0.62701 0.30894 0.0
O28 O 0.22011 0.66646 0.30745 0.0
C29 C 0.17835 0.646 0.06199 0.0
H30 H 0.14693 0.74545 0.43988 0.0
H31 H 0.20136 0.74941 0.17427 0.0
H32 H 0.20751 0.54832 0.12215 0.0
H33 H 0.147 0.53845 0.3495 0.0
C34 C 0.68568 0.91744 0.49345 0.0
N35 N 0.6321 0.93116 0.25518 0.0
C36 C 0.61909 0.91885 0.33583 0.0
C37 C 0.59496 0.92258 0.34431 0.0
C38 C 0.58422 0.939 0.26856 0.0
C39 C 0.59791 0.95205 0.18789 0.0
C40 C 0.62222 0.94776 0.18252 0.0
Zn41 Zn 0.66618 0.92275 0.24723 0.0
C42 C 0.69664 0.9659 0.2497 0.0
N43 N 0.73731 0.90267 0.24697 0.0
C44 C 0.74422 0.88558 0.16723 0.0
C45 C 0.75325 0.91518 0.31658 0.0
C46 C 0.77747 0.9118 0.30204 0.0
C47 C 0.78508 0.89543 0.21531 0.0
C48 C 0.76833 0.8816 0.14982 0.0
Zn49 Zn 0.70317 0.91192 0.25246 0.0
O50 O 0.66765 0.92339 0.43317 0.0
C51 C 0.67028 0.86937 0.24521 0.0
O52 O 0.70435 0.91118 0.43992 0.0
H53 H 0.74719 0.92859 0.37942 0.0
H54 H 0.6273 0.90564 0.39222 0.0
H55 H 0.73108 0.87593 0.11304 0.0
O56 O 0.65606 0.88684 0.24545 0.0
O57 O 0.69255 0.87401 0.24824 0.0
H58 H 0.63309 0.95723 0.11922 0.0
O59 O 0.7022 0.91261 0.06423 0.0
O60 O 0.66467 0.92243 0.06265 0.0
O61 O 0.71321 0.95044 0.25629 0.0
O62 O 0.67519 0.95858 0.24653 0.0
C63 C 0.68341 0.91754 0.00658 0.0
H64 H 0.58468 0.91238 0.4077 0.0
H65 H 0.5898 0.96473 0.12793 0.0
H66 H 0.79015 0.92268 0.35387 0.0
H67 H 0.7738 0.86904 0.0814 0.0
C68 C 0.4046 0.37278 0.0762 0.0
N69 N 0.46088 0.37133 0.32842 0.0
C70 C 0.47116 0.35205 0.27331 0.0
C71 C 0.49389 0.34458 0.3075 0.0
C72 C 0.50605 0.3571 0.39909 0.0
C73 C 0.49591 0.37826 0.44643 0.0
C74 C 0.47315 0.385 0.41019 0.0
Zn75 Zn 0.42451 0.37409 0.32156 0.0
C76 C 0.4064 0.42817 0.31394 0.0
N77 N 0.34885 0.37457 0.32658 0.0
C78 C 0.33584 0.35361 0.30742 0.0
C79 C 0.33989 0.39341 0.39014 0.0
C80 C 0.31862 0.39047 0.44956 0.0
C81 C 0.30693 0.36777 0.4459 0.0
C82 C 0.31481 0.34955 0.36938 0.0
Zn83 Zn 0.38513 0.37396 0.31703 0.0
O84 O 0.42394 0.37332 0.13591 0.0
C85 C 0.40247 0.32025 0.32566 0.0
O86 O 0.38477 0.37258 0.12985 0.0
H87 H 0.35043 0.40968 0.40812 0.0
H88 H 0.46107 0.34133 0.20884 0.0
H89 H 0.34292 0.33898 0.25479 0.0
O90 O 0.42221 0.33234 0.32465 0.0
O91 O 0.3836 0.33285 0.32334 0.0
H92 H 0.46462 0.40011 0.45361 0.0
O93 O 0.38579 0.37522 0.50536 0.0
O94 O 0.42462 0.37472 0.50636 0.0
O95 O 0.38723 0.41514 0.31037 0.0
O96 O 0.42599 0.41637 0.3196 0.0
C97 C 0.40531 0.37505 0.56276 0.0
H98 H 0.50124 0.32838 0.26764 0.0
H99 H 0.50508 0.38895 0.51442 0.0
H100 H 0.31292 0.40479 0.50887 0.0
H101 H 0.30595 0.33184 0.3649 0.0
C102 C 0.88352 0.21096 0.70217 0.0
N103 N 0.85305 0.2597 0.93795 0.0
C104 C 0.86173 0.27658 0.86237 0.0
C105 C 0.85479 0.3006 0.87185 0.0
C106 C 0.8393 0.30723 0.96156 0.0
C107 C 0.82895 0.28932 0.03202 0.0
C108 C 0.83602 0.26525 0.01774 0.0
Zn109 Zn 0.87027 0.22796 0.94498 0.0
C110 C 0.8399 0.18502 0.91041 0.0
N111 N 0.90796 0.16253 0.95679 0.0
C112 C 0.92506 0.15454 0.88229 0.0
C113 C 0.8985 0.14779 0.04006 0.0
C114 C 0.90566 0.12403 0.04966 0.0
C115 C 0.92205 0.1148 0.97001 0.0
C116 C 0.93243 0.13031 0.88714 0.0
Zn117 Zn 0.89172 0.19498 0.94543 0.0
O118 O 0.87337 0.22782 0.75895 0.0
C119 C 0.92314 0.2366 0.96463 0.0
O120 O 0.89335 0.19401 0.75904 0.0
H121 H 0.88432 0.1539 0.09571 0.0
H122 H 0.87557 0.27195 0.80124 0.0
H123 H 0.93212 0.16655 0.816 0.0
O124 O 0.90355 0.24783 0.96401 0.0
O125 O 0.92334 0.21359 0.95546 0.0
H126 H 0.82936 0.25143 0.07646 0.0
O127 O 0.89042 0.19645 0.12958 0.0
O128 O 0.86711 0.2277 0.13413 0.0
O129 O 0.85993 0.1759 0.93227 0.0
O130 O 0.83783 0.20801 0.91905 0.0
C131 C 0.87876 0.21167 0.18879 0.0
H132 H 0.86332 0.31428 0.81785 0.0
H133 H 0.81721 0.29419 0.10319 0.0
H134 H 0.89738 0.11249 0.11484 0.0
H135 H 0.94505 0.12352 0.82389 0.0
C136 C 0.16006 0.3884 0.26839 0.0
N137 N 0.10438 0.40113 0.02808 0.0
C138 C 0.09007 0.38865 0.10293 0.0
C139 C 0.06617 0.39478 0.11368 0.0
C140 C 0.05715 0.41393 0.04702 0.0
C141 C 0.07212 0.42594 0.9679 0.0
C142 C 0.09582 0.41927 0.9601 0.0
Zn143 Zn 0.13973 0.39482 0.02225 0.0
C144 C 0.16656 0.44109 0.05765 0.0
N145 N 0.21461 0.38391 0.01001 0.0
C146 C 0.22285 0.36068 0.00668 0.0
C147 C 0.22663 0.40227 0.95553 0.0
C148 C 0.24497 0.397 0.87912 0.0
C149 C 0.25079 0.37268 0.85793 0.0
C150 C 0.24095 0.35451 0.92879 0.0
Zn151 Zn 0.1787 0.3893 0.02882 0.0
O152 O 0.14133 0.3923 0.20794 0.0
C153 C 0.1505 0.34334 -0.00773 0.0
O154 O 0.17967 0.38512 0.21533 0.0
H155 H 0.22016 0.42063 0.95715 0.0
H156 H 0.09731 0.3743 0.15598 0.0
H157 H 0.21359 0.34632 0.05263 0.0
O158 O 0.1332 0.35765 0.00398 0.0
O159 O 0.17168 0.35165 0.00166 0.0
H160 H 0.10752 0.42896 0.90122 0.0
O161 O 0.17733 0.3935 0.84082 0.0
O162 O 0.13867 0.39711 0.83756 0.0
O163 O 0.18431 0.42714 0.05758 0.0
O164 O 0.14592 0.43207 0.03992 0.0
C165 C 0.15807 0.39563 0.78223 0.0
H166 H 0.05503 0.38509 0.17536 0.0
H167 H 0.06559 0.44043 0.91318 0.0
H168 H 0.25267 0.41152 0.82728 0.0
H169 H 0.24537 0.33554 0.91558 0.0
C170 C 0.93289 0.90973 0.36708 0.0
N171 N 0.93872 0.85104 0.13313 0.0
C172 C 0.9509 0.84124 0.22463 0.0
C173 C 0.94654 0.81707 0.25573 0.0
C174 C 0.92952 0.80311 0.1918 0.0
C175 C 0.91882 0.81305 0.09184 0.0
C176 C 0.92365 0.83723 0.06408 0.0
Zn177 Zn 0.93625 0.88768 0.12114 0.0
C178 C 0.88529 0.90133 0.12098 0.0
N179 N 0.92726 0.96351 0.1111 0.0
C180 C 0.9411 0.97951 0.17515 0.0
C181 C 0.91317 0.97097 0.02106 0.0
C182 C 0.91382 0.99511 -0.013 0.0
C183 C 0.9284 1.01201 0.04891 0.0
C184 C 0.9417 1.00414 0.14626 0.0
Zn185 Zn 0.93077 0.92728 0.1263 0.0
O186 O 0.93558 0.8901 0.30864 0.0
C187 C 0.98146 0.9149 0.13057 0.0
O188 O 0.93018 0.92949 0.31187 0.0
H189 H 0.90221 0.95797 0.97169 0.0
H190 H 0.96273 0.85262 0.27856 0.0
H191 H 0.95219 0.97307 0.24623 0.0
O192 O 0.97364 0.89298 0.12606 0.0
O193 O 0.96695 0.93222 0.13052 0.0
H194 H 0.91402 0.84544 -0.00761 0.0
O195 O 0.93167 0.92485 0.94143 0.0
O196 O 0.93689 0.88559 0.93279 0.0
O197 O 0.89434 0.92262 0.12308 0.0
O198 O 0.89884 0.88314 0.11863 0.0
C199 C 0.93434 0.90569 0.88026 0.0
H200 H 0.95532 0.80983 0.33267 0.0
H201 H 0.90612 0.80253 0.0385 0.0
H202 H 0.90327 1.00038 0.91145 0.0
H203 H 0.95247 0.01677 0.19912 0.0
C204 C 0.39603 0.65669 0.06759 0.0
N205 N 0.392 0.72029 0.31324 0.0
C206 C 0.40673 0.73501 0.2484 0.0
C207 C 0.40457 0.76099 0.24792 0.0
C208 C 0.38688 0.7731 0.31374 0.0
C209 C 0.37209 0.75736 0.38047 0.0
C210 C 0.37488 0.73149 0.37896 0.0
Zn211 Zn 0.39498 0.67879 0.31159 0.0
C212 C 0.34268 0.65252 0.3093 0.0
N213 N 0.39988 0.59276 0.30888 0.0
C214 C 0.41743 0.58055 0.25051 0.0
C215 C 0.38361 0.57893 0.36927 0.0
C216 C 0.38445 0.5529 0.37159 0.0
C217 C 0.40216 0.53966 0.3111 0.0
C218 C 0.41891 0.55448 0.25096 0.0
Zn219 Zn 0.3976 0.63439 0.3092 0.0
O220 O 0.39485 0.67666 0.12645 0.0
C221 C 0.45003 0.6608 0.31109 0.0
O222 O 0.39726 0.63632 0.12108 0.0
H223 H 0.36974 0.58803 0.41724 0.0
H224 H 0.42037 0.72671 0.19552 0.0
H225 H 0.43057 0.59094 0.20242 0.0
O226 O 0.43672 0.67988 0.31216 0.0
O227 O 0.439 0.63981 0.31013 0.0
H228 H 0.36311 0.72037 0.43156 0.0
O229 O 0.3977 0.63668 0.49707 0.0
O230 O 0.39533 0.67701 0.49692 0.0
O231 O 0.35592 0.63341 0.30834 0.0
O232 O 0.35374 0.67345 0.31054 0.0
C233 C 0.39654 0.65703 0.5532 0.0
H234 H 0.41665 0.77149 0.19409 0.0
H235 H 0.35852 0.76491 0.43622 0.0
H236 H 0.3713 0.5433 0.42316 0.0
H237 H 0.43307 0.546 0.20228 0.0
C238 C 0.70279 0.12225 0.09806 0.0
N239 N 0.64497 0.11759 0.32577 0.0
C240 C 0.63563 0.1337 0.24875 0.0
C241 C 0.61123 0.1372 0.2432 0.0
C242 C 0.59629 0.12426 0.3187 0.0
C243 C 0.60611 0.10688 0.39364 0.0
C244 C 0.63078 0.10384 0.39598 0.0
Zn245 Zn 0.68095 0.11795 0.34092 0.0
C246 C 0.70207 0.06977 0.31313 0.0
N247 N 0.75619 0.12248 0.3633 0.0
C248 C 0.76767 0.14413 0.34558 0.0
C249 C 0.76468 0.10621 0.44181 0.0
C250 C 0.78219 0.11344 0.5229 0.0
C251 C 0.79135 0.13738 0.52053 0.0
C252 C 0.7855 0.15206 0.42442 0.0
Zn253 Zn 0.72025 0.12072 0.34011 0.0
O254 O 0.68344 0.12002 0.15417 0.0
C255 C 0.69836 0.16904 0.37007 0.0
O256 O 0.72237 0.12394 0.15553 0.0
H257 H 0.75519 0.08921 0.45599 0.0
H258 H 0.64719 0.14464 0.19443 0.0
H259 H 0.76081 0.15669 0.28165 0.0
O260 O 0.67979 0.15575 0.35846 0.0
O261 O 0.71859 0.15926 0.36328 0.0
H262 H 0.63865 0.0912 0.45667 0.0
O263 O 0.71784 0.1177 0.52489 0.0
O264 O 0.679 0.11576 0.52905 0.0
O265 O 0.72127 0.08234 0.31855 0.0
O266 O 0.68214 0.08012 0.32379 0.0
C267 C 0.69887 0.11654 0.58399 0.0
H268 H 0.60416 0.15039 0.1826 0.0
H269 H 0.59497 0.09653 0.4528 0.0
H270 H 0.78588 0.10147 0.59542 0.0
H271 H 0.79273 0.17043 0.4176 0.0
C272 C 0.85769 0.46079 0.81538 0.0
N273 N 0.79922 0.46383 0.03721 0.0
C274 C 0.79147 0.47449 0.93685 0.0
C275 C 0.77244 0.46408 0.87234 0.0
C276 C 0.76043 0.44331 0.91494 0.0
C277 C 0.76655 0.43517 0.02778 0.0
C278 C 0.78609 0.44577 0.08795 0.0
Zn279 Zn 0.83559 0.46203 0.05914 0.0
C280 C 0.84874 0.40999 0.04404 0.0
N281 N 0.91026 0.45172 0.07053 0.0
C282 C 0.92532 0.46473 0.00141 0.0
C283 C 0.91842 0.43439 0.14445 0.0
C284 C 0.94256 0.42912 0.14884 0.0
C285 C 0.95841 0.44187 0.07665 0.0
C286 C 0.94965 0.46003 0.00296 0.0
Zn287 Zn 0.87465 0.45653 0.05821 0.0
O288 O 0.83856 0.46361 0.87175 0.0
C289 C 0.86243 0.50858 0.08478 0.0
O290 O 0.87684 0.45756 0.87284 0.0
H291 H 0.9061 0.42424 0.19846 0.0
H292 H 0.80207 0.48885 0.89774 0.0
H293 H 0.91838 0.47834 0.94308 0.0
O294 O 0.84101 0.50038 0.07748 0.0
O295 O 0.87959 0.49408 0.07197 0.0
H296 H 0.79261 0.4373 0.16705 0.0
O297 O 0.87228 0.45555 0.24261 0.0
O298 O 0.83358 0.46017 0.24686 0.0
O299 O 0.86966 0.41898 0.04797 0.0
O300 O 0.83113 0.42399 0.04474 0.0
C301 C 0.85333 0.45761 0.30151 0.0
H302 H 0.76873 0.47096 0.78547 0.0
H303 H 0.75745 0.4196 0.06545 0.0
H304 H 0.94876 0.41505 0.20697 0.0
H305 H 0.96135 0.46993 0.94461 0.0
C306 C 0.39389 0.15638 0.58456 0.0
N307 N 0.33614 0.15736 0.35975 0.0
C308 C 0.32897 0.14011 0.43732 0.0
C309 C 0.30641 0.1404 0.48444 0.0
C310 C 0.29043 0.1583 0.45068 0.0
C311 C 0.29771 0.17553 0.36697 0.0
C312 C 0.32095 0.17477 0.32243 0.0
Zn313 Zn 0.37223 0.15723 0.33781 0.0
C314 C 0.39534 0.20961 0.34103 0.0
N315 N 0.44705 0.15216 0.33833 0.0
C316 C 0.45703 0.13555 0.41062 0.0
C317 C 0.46042 0.16543 0.26248 0.0
C318 C 0.48495 0.16193 0.25654 0.0
C319 C 0.49555 0.14465 0.32945 0.0
C320 C 0.48136 0.13147 0.4075 0.0
Zn321 Zn 0.41125 0.15473 0.34371 0.0
O322 O 0.37461 0.15731 0.52598 0.0
C323 C 0.38852 0.10236 0.33544 0.0
O324 O 0.41328 0.15536 0.5292 0.0
H325 H 0.45199 0.17842 0.20551 0.0
H326 H 0.34132 0.12709 0.47124 0.0
H327 H 0.44606 0.12517 0.47011 0.0
O328 O 0.37025 0.11585 0.33053 0.0
O329 O 0.40869 0.11349 0.3427 0.0
H330 H 0.32716 0.18872 0.26318 0.0
O331 O 0.40917 0.15425 0.15869 0.0
O332 O 0.37026 0.15746 0.1503 0.0
O333 O 0.41372 0.19603 0.34278 0.0
O334 O 0.37494 0.1986 0.3407 0.0
C335 C 0.39014 0.15581 0.09779 0.0
H336 H 0.3022 0.12754 0.55293 0.0
H337 H 0.28594 0.18986 0.33986 0.0
H338 H 0.49543 0.17222 0.19433 0.0
H339 H 0.48902 0.11814 0.46554 0.0
C340 C 0.61406 0.66917 0.55544 0.0
N341 N 0.61354 0.6107 0.32649 0.0
C342 C 0.62842 0.60397 0.41468 0.0
C343 C 0.62678 0.58094 0.46033 0.0
C344 C 0.61134 0.5636 0.40775 0.0
C345 C 0.59662 0.57052 0.31347 0.0
C346 C 0.59774 0.59464 0.27497 0.0
Zn347 Zn 0.61391 0.6469 0.30743 0.0
C348 C 0.56043 0.66665 0.30978 0.0
N349 N 0.61786 0.72309 0.30799 0.0
C350 C 0.63433 0.73334 0.38319 0.0
C351 C 0.60762 0.73613 0.22072 0.0
C352 C 0.61481 0.76031 0.20347 0.0
C353 C 0.63245 0.7709 0.27762 0.0
C354 C 0.64182 0.75734 0.36988 0.0
Zn355 Zn 0.61481 0.68651 0.31522 0.0
O356 O 0.61362 0.64949 0.49618 0.0
C357 C 0.66848 0.66601 0.30999 0.0
O358 O 0.61454 0.68904 0.50063 0.0
H359 H 0.59484 0.72744 0.16099 0.0
H360 H 0.64079 0.61694 0.4552 0.0
H361 H 0.64271 0.72254 0.45016 0.0
O362 O 0.65566 0.6464 0.30555 0.0
O363 O 0.65656 0.68574 0.31605 0.0
H364 H 0.58575 0.60065 0.20656 0.0
O365 O 0.61489 0.68436 0.13002 0.0
O366 O 0.61366 0.64449 0.12014 0.0
O367 O 0.5729 0.68668 0.31291 0.0
O368 O 0.57261 0.64703 0.30692 0.0
C369 C 0.61432 0.66491 0.06832 0.0
H370 H 0.63753 0.57687 0.53701 0.0
H371 H 0.58437 0.55758 0.27109 0.0
H372 H 0.60738 0.77024 0.1305 0.0
H373 H 0.65526 0.76504 0.42941 0.0
C374 C 0.13003 0.95231 0.94624 0.0
N375 N 0.11871 1.00911 0.1782 0.0
C376 C 0.13375 0.02242 0.1104 0.0
C377 C 0.1271 0.04512 0.07011 0.0
C378 C 0.10462 0.05416 0.09828 0.0
C379 C 0.08995 0.04073 0.17389 0.0
C380 C 0.09748 0.01811 0.21368 0.0
Zn381 Zn 0.12584 0.97309 0.19319 0.0
C382 C 0.08117 0.94189 0.17692 0.0
N383 N 0.13815 0.89827 0.1944 0.0
C384 C 0.15548 0.88867 0.12635 0.0
C385 C 0.12622 0.88477 0.27473 0.0
C386 C 0.13202 0.86062 0.29134 0.0
C387 C 0.15028 0.8505 0.22484 0.0
C388 C 0.16191 0.86455 0.14033 0.0
Zn389 Zn 0.13123 0.93369 0.18584 0.0
O390 O 0.1282 0.97159 0.0078 0.0
C391 C 0.17659 0.96124 0.20526 0.0
O392 O 0.13167 0.93208 -0.00162 0.0
H393 H 0.11254 0.89288 0.32782 0.0
H394 H 0.1503 1.01479 0.08106 0.0
H395 H 0.16465 0.89988 0.0631 0.0
O396 O 0.16403 0.9803 0.21064 0.0
O397 O 0.16635 0.94078 0.19103 0.0
H398 H 0.08571 1.00716 0.267 0.0
O399 O 0.13075 0.93576 0.37445 0.0
O400 O 0.12337 0.97479 0.37744 0.0
O401 O 0.09637 0.92539 0.1809 0.0
O402 O 0.08817 0.96412 0.17823 0.0
C403 C 0.12696 0.95522 0.4328 0.0
H404 H 0.13912 0.05513 0.0137 0.0
H405 H 0.07243 0.04702 0.19715 0.0
H406 H 0.12275 0.85012 0.35725 0.0
H407 H 0.17582 0.85699 0.08642 0.0
C408 C 0.89624 0.65258 0.53119 0.0
N409 N 0.83179 0.66124 0.28935 0.0
C410 C 0.82039 0.67939 0.35029 0.0
C411 C 0.79477 0.68093 0.35482 0.0
C412 C 0.77911 0.66375 0.29653 0.0
C413 C 0.7915 0.64516 0.2352 0.0
C414 C 0.81717 0.6443 0.23238 0.0
Zn415 Zn 0.87377 0.65762 0.28838 0.0
C416 C 0.90352 0.70339 0.29814 0.0
N417 N 0.96057 0.6472 0.29163 0.0
C418 C 0.97421 0.66352 0.35783 0.0
C419 C 0.97305 0.63018 0.22812 0.0
C420 C 0.99881 0.62933 0.22952 0.0
C421 C 1.01344 0.64623 0.29555 0.0
C422 C 0.99991 0.66333 0.36098 0.0
Zn423 Zn 0.9184 0.65051 0.28882 0.0
O424 O 0.87655 0.65614 0.4759 0.0
C425 C 0.88812 0.60493 0.26728 0.0
O426 O 0.9156 0.64937 0.47452 0.0
H427 H 0.96316 0.61699 0.17431 0.0
H428 H 0.8311 0.69292 0.39796 0.0
H429 H 0.96527 0.67716 0.4098 0.0
O430 O 0.87112 0.61996 0.27723 0.0
O431 O 0.91005 0.61227 0.27285 0.0
H432 H 0.82527 0.62959 0.18384 0.0
O433 O 0.9159 0.65251 0.10408 0.0
O434 O 0.8766 0.65817 0.09978 0.0
O435 O 0.92082 0.68851 0.29882 0.0
O436 O 0.88178 0.6956 0.29563 0.0
C437 C 0.89645 0.65543 0.04599 0.0
H438 H 0.78742 0.69546 0.40737 0.0
H439 H 0.7814 0.63116 0.18751 0.0
H440 H 1.00723 0.6155 0.17639 0.0
H441 H 1.00902 0.6766 0.41736 0.0
C442 C 0.11104 0.19468 0.64906 0.0
N443 N 0.16596 0.17569 0.86825 0.0
C444 C 0.16606 0.15802 0.78317 0.0
C445 C 0.18673 0.15299 0.72277 0.0
C446 C 0.20798 0.16552 0.75265 0.0
C447 C 0.20795 0.18214 0.84816 0.0
C448 C 0.18651 0.18718 0.90461 0.0
Zn449 Zn 0.13304 0.18963 0.89529 0.0
C450 C 0.13153 0.2416 0.88781 0.0
N451 N 0.06313 0.2156 0.90449 0.0
C452 C 0.04445 0.20779 0.83608 0.0
C453 C 0.06119 0.23477 -0.01896 0.0
C454 C 0.03963 0.2466 -0.00701 0.0
C455 C 1.01998 0.23858 0.92536 0.0
C456 C 1.02255 0.21914 0.8451 0.0
Zn457 Zn 0.09533 0.20011 0.89011 0.0
O458 O 0.12991 0.19094 0.70792 0.0
C459 C 0.09625 0.14831 0.90559 0.0
O460 O 0.09196 0.19876 0.70416 0.0
H461 H 0.07639 0.24089 0.03359 0.0
H462 H 0.14956 0.14959 0.75221 0.0
H463 H 0.0465 0.19263 0.77548 0.0
O464 O 0.11818 0.15405 0.89787 0.0
O465 O 0.08067 0.16476 0.90437 0.0
H466 H 0.18599 0.20149 0.97077 0.0
O467 O 0.09885 0.20106 0.07475 0.0
O468 O 0.13573 0.1887 0.08339 0.0
O469 O 0.10982 0.23512 0.87991 0.0
O470 O 0.14727 0.22546 0.89753 0.0
C471 C 0.1168 0.19502 0.13586 0.0
H472 H 0.18545 0.14083 0.64718 0.0
H473 H 0.22402 0.19212 0.87448 0.0
H474 H 1.0382 0.26152 0.05571 0.0
H475 H 1.00754 0.21223 0.79296 0.0
C476 C 0.64752 0.36423 0.3673 0.0
N477 N 0.62426 0.41625 0.59941 0.0
C478 C 0.63447 0.42801 0.50785 0.0
C479 C 0.62848 0.45147 0.48203 0.0
C480 C 0.61358 0.46417 0.55752 0.0
C481 C 0.60278 0.45199 0.65131 0.0
C482 C 0.60827 0.42749 0.67017 0.0
Zn483 Zn 0.63635 0.382 0.6143 0.0
C484 C 0.59939 0.34611 0.58114 0.0
N485 N 0.66725 0.31313 0.6043 0.0
C486 C 0.68788 0.31016 0.54445 0.0
C487 C 0.65446 0.29372 0.64408 0.0
C488 C 0.66158 0.27008 0.61728 0.0
C489 C 0.68199 0.26656 0.5491 0.0
C490 C 0.69562 0.28689 0.51568 0.0
Zn491 Zn 0.65352 0.34699 0.60797 0.0
O492 O 0.63576 0.37922 0.4274 0.0
C493 C 0.68935 0.38612 0.6469 0.0
O494 O 0.65951 0.34851 0.4216 0.0
H495 H 0.63805 0.29657 0.69088 0.0
H496 H 0.64805 0.4196 0.4557 0.0
H497 H 0.69755 0.32587 0.51219 0.0
O498 O 0.67061 0.3973 0.62047 0.0
O499 O 0.68837 0.36294 0.64966 0.0
H500 H 0.60045 0.41778 0.74275 0.0
O501 O 0.64773 0.34541 0.79459 0.0
O502 O 0.63625 0.38346 0.79879 0.0
O503 O 0.61742 0.33255 0.56723 0.0
O504 O 0.60246 0.36816 0.61218 0.0
C505 C 0.64163 0.3642 0.85346 0.0
H506 H 0.63682 0.46021 0.40769 0.0
H507 H 0.5911 0.46146 0.71091 0.0
H508 H 0.65069 0.25473 0.64486 0.0
H509 H 0.7112 0.28492 0.46131 0.0
C510 C 0.38037 0.93798 0.07533 0.0
N511 N 0.32495 0.94125 0.31116 0.0
C512 C 0.31724 0.95885 0.2372 0.0
C513 C 0.29339 0.96482 0.23197 0.0
C514 C 0.27719 0.9523 0.30214 0.0
C515 C 0.28534 0.93402 0.37728 0.0
C516 C 0.30963 0.92889 0.38134 0.0
Zn517 Zn 0.36067 0.93811 0.3182 0.0
C518 C 0.37937 0.88422 0.3156 0.0
N519 N 0.43441 0.9391 0.31976 0.0
C520 C 0.44499 0.95519 0.24596 0.0
C521 C 0.44717 0.92443 0.39089 0.0
C522 C 0.47189 0.92549 0.38825 0.0
C523 C 0.48309 0.94187 0.31211 0.0
C524 C 0.46953 0.95688 0.24064 0.0
Zn525 Zn 0.39928 0.93844 0.31984 0.0
O526 O 0.36082 0.93777 0.13002 0.0
C527 C 0.3821 0.99195 0.32485 0.0
O528 O 0.39959 0.93824 0.13455 0.0
H529 H 0.43815 0.91189 0.44877 0.0
H530 H 0.32966 0.96853 0.18201 0.0
H531 H 0.43438 0.9666 0.19007 0.0
O532 O 0.36249 0.97975 0.32293 0.0
O533 O 0.40098 0.97944 0.32434 0.0
H534 H 0.31624 0.9152 0.44028 0.0
O535 O 0.39928 0.93847 0.50482 0.0
O536 O 0.36031 0.93818 0.50569 0.0
O537 O 0.39857 0.89724 0.31664 0.0
O538 O 0.3597 0.89599 0.31571 0.0
C539 C 0.38001 0.93832 0.56208 0.0
H540 H 0.28753 0.97849 0.17071 0.0
H541 H 0.27302 0.92376 0.43105 0.0
H542 H 0.48216 0.91362 0.44389 0.0
H543 H 0.47782 0.96928 0.17932 0.0
C544 C 0.17865 0.66658 0.8662 0.0
C545 C 0.17838 0.64496 0.93127 0.0
C546 C 0.17874 0.666 0.74282 0.0
C547 C 0.17858 0.64377 0.67921 0.0
H548 H 0.17879 0.68417 0.91071 0.0
H549 H 0.17893 0.68319 0.69713 0.0
S550 S 0.17789 0.58183 0.80747 0.0
N551 N 0.17797 0.60054 0.92226 0.0
N552 N 0.17815 0.5995 0.69126 0.0
C553 C 0.17831 0.62198 0.74318 0.0
C554 C 0.17822 0.62256 0.86878 0.0
C555 C 0.70426 0.91156 0.81463 0.0
C556 C 0.68348 0.91767 0.8759 0.0
C557 C 0.70484 0.91156 0.69133 0.0
C558 C 0.68468 0.9177 0.62404 0.0
H559 H 0.72028 0.90668 0.86212 0.0
H560 H 0.72127 0.9067 0.64862 0.0
S561 S 0.62572 0.93518 0.74141 0.0
N562 N 0.64216 0.93009 0.85937 0.0
N563 N 0.64322 0.9301 0.62852 0.0
C564 C 0.66375 0.92388 0.68423 0.0
C565 C 0.66316 0.92386 0.80973 0.0
C566 C 0.38388 0.37332 0.87915 0.0
C567 C 0.40524 0.37301 0.94541 0.0
C568 C 0.38405 0.37411 0.75583 0.0
C569 C 0.40559 0.37461 0.6935 0.0
H570 H 0.36681 0.37304 0.92265 0.0
H571 H 0.36711 0.37429 0.7092 0.0
S572 S 0.46656 0.37383 0.82476 0.0
N573 N 0.44862 0.37307 0.93856 0.0
N574 N 0.44893 0.37457 0.70786 0.0
C575 C 0.4271 0.37422 0.7586 0.0
C576 C 0.42693 0.3734 0.88406 0.0
C577 C 0.87122 0.22952 0.51083 0.0
C578 C 0.88284 0.21079 0.57139 0.0
C579 C 0.86967 0.22956 0.38753 0.0
C580 C 0.87972 0.21089 0.31951 0.0
H581 H 0.86315 0.24435 0.55889 0.0
H582 H 0.86067 0.24445 0.3454 0.0
S583 S 0.91174 0.15725 0.43481 0.0
N584 N 0.90429 0.17285 0.55338 0.0
N585 N 0.9015 0.17285 0.32268 0.0
C586 C 0.89131 0.19195 0.37905 0.0
C587 C 0.89286 0.19192 0.50451 0.0
C588 C 0.18015 0.38895 0.46761 0.0
C589 C 0.15907 0.38948 0.39937 0.0
C590 C 0.17967 0.3914 0.59075 0.0
C591 C 0.15813 0.39448 0.65117 0.0
H592 H 0.19725 0.38685 0.42577 0.0
H593 H 0.19636 0.39076 0.63905 0.0
S594 S 0.09777 0.39681 0.51428 0.0
N595 N 0.11586 0.3931 0.40246 0.0
N596 N 0.11506 0.39774 0.6326 0.0
C597 C 0.1369 0.39499 0.58405 0.0
C598 C 0.13735 0.39246 0.45879 0.0
C599 C 0.93542 0.88588 0.6799 0.0
C600 C 0.93419 0.90716 0.74969 0.0
C601 C 0.93495 0.88693 0.55664 0.0
C602 C 0.93319 0.9093 0.49785 0.0
H603 H 0.93668 0.8682 0.72056 0.0
H604 H 0.93593 0.86996 0.50719 0.0
S605 S 0.92989 0.97052 0.63958 0.0
N606 N 0.93148 0.95147 0.75018 0.0
N607 N 0.93049 0.95333 0.51952 0.0
C608 C 0.93202 0.93075 0.56654 0.0
C609 C 0.93255 0.92971 0.69199 0.0
C610 C 0.39722 0.63554 0.74699 0.0
C611 C 0.39646 0.65748 0.68422 0.0
C612 C 0.39705 0.63545 0.87042 0.0
C613 C 0.39612 0.65728 0.93663 0.0
H614 H 0.39791 0.6182 0.70062 0.0
H615 H 0.39765 0.61804 0.91405 0.0
S616 S 0.39403 0.71983 0.81533 0.0
N617 N 0.39483 0.70175 0.69845 0.0
N618 N 0.39453 0.70159 0.92932 0.0
C619 C 0.39539 0.67939 0.87497 0.0
C620 C 0.39556 0.67948 0.74932 0.0
C621 C 0.67944 0.11644 0.78238 0.0
C622 C 0.70028 0.11763 0.71503 0.0
C623 C 0.68041 0.11829 0.9057 0.0
C624 C 0.70227 0.12146 0.96712 0.0
H625 H 0.66217 0.1141 0.7397 0.0
H626 H 0.66381 0.11709 0.95312 0.0
S627 S 0.7621 0.12597 0.83311 0.0
N628 N 0.74357 0.12245 0.72023 0.0
N629 N 0.74525 0.12582 0.95079 0.0
C630 C 0.72323 0.12278 0.901 0.0
C631 C 0.72228 0.12087 0.77556 0.0
C632 C 0.83425 0.46167 0.49963 0.0
C633 C 0.85478 0.45796 0.43238 0.0
C634 C 0.83543 0.4628 0.62299 0.0
C635 C 0.8572 0.46028 0.68449 0.0
H636 H 0.81708 0.46382 0.45686 0.0
H637 H 0.81905 0.46559 0.67035 0.0
S638 S 0.9163 0.45022 0.55032 0.0
N639 N 0.8977 0.45171 0.4374 0.0
N640 N 0.89982 0.4539 0.66817 0.0
C641 C 0.87789 0.45658 0.6184 0.0
C642 C 0.8767 0.45539 0.49287 0.0
C643 C 0.37064 0.15727 0.89792 0.0
C644 C 0.39151 0.15587 0.96713 0.0
C645 C 0.37161 0.15745 0.77465 0.0
C646 C 0.39349 0.15629 0.71528 0.0
H647 H 0.35337 0.15822 0.93905 0.0
H648 H 0.355 0.15851 0.72567 0.0
S649 S 0.45343 0.15239 0.85505 0.0
N650 N 0.43485 0.15327 0.96627 0.0
N651 N 0.43657 0.15365 0.7356 0.0
C652 C 0.41451 0.15488 0.78332 0.0
C653 C 0.41354 0.15467 0.90876 0.0
C654 C 0.6126 0.64511 0.86775 0.0
C655 C 0.6144 0.66642 0.93777 0.0
C656 C 0.61249 0.64621 0.74453 0.0
C657 C 0.61415 0.66866 0.68606 0.0
H658 H 0.6112 0.62739 0.9082 0.0
H659 H 0.61105 0.62924 0.69485 0.0
S660 S 0.61969 0.72988 0.82823 0.0
N661 N 0.61824 0.71077 0.9387 0.0
N662 N 0.61795 0.71273 0.70806 0.0
C663 C 0.61605 0.69012 0.75492 0.0
C664 C 0.6162 0.68902 0.88032 0.0
C665 C 0.13082 0.933 0.62335 0.0
C666 C 0.12741 0.95504 0.56365 0.0
C667 C 0.13179 0.93229 0.74663 0.0
C668 C 0.12946 0.95358 0.81561 0.0
H669 H 0.13277 0.91607 0.57462 0.0
H670 H 0.13437 0.91485 0.78798 0.0
S671 S 0.12025 1.01608 0.70302 0.0
N672 N 0.12171 0.99876 0.58367 0.0
N673 N 0.12356 0.99747 0.81445 0.0
C674 C 0.12607 0.97578 0.75706 0.0
C675 C 0.12502 0.97649 0.63155 0.0
C676 C 0.87581 0.65795 0.84907 0.0
C677 C 0.89693 0.65488 0.9149 0.0
C678 C 0.87573 0.657 0.7256 0.0
C679 C 0.89676 0.6529 0.66232 0.0
H680 H 0.8591 0.66109 0.89302 0.0
H681 H 0.85897 0.65957 0.67962 0.0
S682 S 0.95696 0.64355 0.79226 0.0
N683 N 0.93957 0.64746 0.9066 0.0
N684 N 0.93939 0.64567 0.67575 0.0
C685 C 0.91803 0.64975 0.72704 0.0
C686 C 0.91812 0.65075 0.85273 0.0
C687 C 0.13345 0.18998 0.46046 0.0
C688 C 0.11182 0.19455 0.51823 0.0
C689 C 0.13497 0.19014 0.33729 0.0
C690 C 0.11495 0.19491 0.26647 0.0
H691 H 0.14948 0.1863 0.51066 0.0
H692 H 0.15202 0.18657 0.29753 0.0
S693 S 0.05382 0.20731 0.37358 0.0
N694 N 0.0698 0.20352 0.49441 0.0
N695 N 0.0725 0.20381 0.26395 0.0
C696 C 0.09311 0.1993 0.32314 0.0
C697 C 0.09159 0.19911 0.44851 0.0
C698 C 0.65551 0.34555 0.16849 0.0
C699 C 0.64616 0.36468 0.23642 0.0
C700 C 0.65352 0.34526 0.04511 0.0
C701 C 0.64225 0.36417 -0.01558 0.0
H702 H 0.6643 0.33056 0.21083 0.0
H703 H 0.66118 0.3302 -0.00301 0.0
S704 S 0.61457 0.4185 0.12079 0.0
N705 N 0.62499 0.40304 0.23295 0.0
N706 N 0.62138 0.40249 0.00245 0.0
C707 C 0.63277 0.38338 0.05134 0.0
C708 C 0.6347 0.38364 0.17675 0.0
C709 C 0.35928 0.93781 0.87954 0.0
C710 C 0.38078 0.93802 0.94471 0.0
C711 C 0.3592 0.93791 0.75618 0.0
C712 C 0.3806 0.93825 0.69278 0.0
H713 H 0.34231 0.93756 0.92396 0.0
H714 H 0.34216 0.93773 0.71036 0.0
S715 S 0.44184 0.93897 0.82137 0.0
N716 N 0.42413 0.93862 0.93609 0.0
N717 N 0.42398 0.93883 0.70513 0.0
C718 C 0.40226 0.93848 0.7569 0.0
C719 C 0.40234 0.93837 0.88245 0.0
C720 C 0.14497 0.78282 0.26366 0.0
C721 C 0.16856 0.77641 0.28905 0.0
C722 C 0.13927 0.80692 0.24181 0.0
C723 C 0.15702 0.82526 0.24447 0.0
H724 H 0.13088 0.76905 0.25896 0.0
H725 H 0.12091 0.81122 0.22184 0.0
S726 S 0.22122 0.81798 0.31218 0.0
N727 N 0.20965 0.79013 0.31906 0.0
N728 N 0.19886 0.83582 0.27803 0.0
C729 C 0.18066 0.81916 0.27019 0.0
C730 C 0.18647 0.79457 0.29251 0.0
C731 C 0.5445 0.91959 0.25691 0.0
C732 C 0.55844 0.94094 0.27075 0.0
C733 C 0.51999 0.9201 0.27151 0.0
C734 C 0.50886 0.94199 0.29996 0.0
H735 H 0.55268 0.90233 0.23631 0.0
H736 H 0.50968 0.90331 0.26007 0.0
S737 S 0.53763 1.00278 0.34495 0.0
N738 N 0.55977 0.98446 0.31345 0.0
N739 N 0.51317 0.98552 0.34058 0.0
C740 C 0.52252 0.96359 0.31183 0.0
C741 C 0.54754 0.96305 0.29703 0.0
C742 C 0.3791 0.27898 0.332 0.0
C743 C 0.40123 0.29198 0.3298 0.0
C744 C 0.37739 0.25293 0.33589 0.0
C745 C 0.39767 0.23785 0.33795 0.0
H746 H 0.3627 0.28905 0.33067 0.0
H747 H 0.35978 0.24453 0.33716 0.0
S748 S 0.46021 0.26197 0.33333 0.0
N749 N 0.44412 0.28684 0.32997 0.0
N750 N 0.441 0.23883 0.3371 0.0
C751 C 0.41994 0.25062 0.3358 0.0
C752 C 0.42168 0.27716 0.33182 0.0
C753 C 0.95675 0.25522 0.86311 0.0
C754 C 0.94608 0.24933 0.97017 0.0
C755 C 0.98152 0.25453 0.85167 0.0
C756 C 0.99606 0.24808 0.94734 0.0
H757 H 0.94587 0.25727 0.7846 0.0
H758 H 0.9891 0.25667 0.76514 0.0
S759 S 0.97647 0.2358 0.25127 0.0
N760 N 0.95159 0.24063 0.1769 0.0
N761 N 0.99828 0.2395 0.15651 0.0
C762 C 0.9857 0.24542 0.0584 0.0
C763 C 0.96053 0.24604 0.06958 0.0
C764 C 0.16347 0.30012 -0.01932 0.0
C765 C 0.14602 0.31764 0.95945 0.0
C766 C 0.15924 0.27552 0.95157 0.0
C767 C 0.1375 0.26777 0.89949 0.0
H768 H 0.18025 0.30533 0.02282 0.0
H769 H 0.17271 0.26244 0.97404 0.0
S770 S 0.0875 0.30717 0.80976 0.0
N771 N 0.10722 0.32599 0.8726 0.0
N772 N 0.09937 0.27995 0.81646 0.0
C773 C 0.12047 0.28538 0.87184 0.0
C774 C 0.12468 0.31028 0.90243 0.0
C775 C 1.03868 0.95217 0.14325 0.0
C776 C 0.05584 0.93468 0.1675 0.0
C777 C 1.01471 0.94541 0.1297 0.0
C778 C 1.00704 0.92091 0.14004 0.0
H779 H 0.04376 0.97118 0.13371 0.0
H780 H 1.00212 0.95962 0.11097 0.0
S781 S 0.04486 0.86813 0.20695 0.0
N782 N 0.0635 0.89171 0.20424 0.0
N783 N 1.01835 0.87921 0.1782 0.0
C784 C 1.02397 0.90322 0.16473 0.0
C785 C 0.04839 0.91006 0.17884 0.0
C786 C 0.40438 0.81756 0.30853 0.0
C787 C 0.38426 0.8015 0.31376 0.0
C788 C 0.40257 0.8436 0.30952 0.0
C789 C 0.38047 0.85582 0.3146 0.0
H790 H 0.42203 0.80997 0.30539 0.0
H791 H 0.41894 0.85431 0.30621 0.0
S792 S 0.32168 0.82326 0.32295 0.0
N793 N 0.34093 0.80087 0.31968 0.0
N794 N 0.33769 0.84882 0.32176 0.0
C795 C 0.36014 0.84006 0.31848 0.0
C796 C 0.36197 0.81348 0.31816 0.0
C797 C 0.55356 0.11088 0.31087 0.0
C798 C 0.57069 0.12977 0.32212 0.0
C799 C 0.52922 0.11591 0.31187 0.0
C800 C 0.52129 0.13998 0.32432 0.0
H801 H 0.55902 0.09216 0.29989 0.0
H802 H 0.5165 0.1009 0.30224 0.0
S803 S 0.55906 0.19558 0.36644 0.0
N804 N 0.57817 0.17324 0.35253 0.0
N805 N 0.53232 0.18265 0.35404 0.0
C806 C 0.53823 0.15897 0.33697 0.0
C807 C 0.56298 0.15387 0.33614 0.0
C808 C 0.82166 0.3485 0.96154 0.0
C809 C 0.83946 0.33275 -0.00094 0.0
C810 C 0.82429 0.37367 -0.0191 0.0
C811 C 0.84498 0.38353 0.03614 0.0
H812 H 0.8062 0.34144 0.91331 0.0
H813 H 0.81058 0.38552 0.94778 0.0
S814 S 0.89543 0.34904 0.15964 0.0
N815 N 0.87729 0.32803 0.10115 0.0
N816 N 0.88249 0.37534 0.13648 0.0
C817 C 0.86232 0.36767 0.0785 0.0
C818 C 0.85948 0.34221 0.06012 0.0
C819 C 0.67565 0.82428 0.25121 0.0
C820 C 0.66041 0.84422 0.24463 0.0
C821 C 0.66642 0.80049 0.25843 0.0
C822 C 0.64165 0.79586 0.25914 0.0
H823 H 0.69482 0.82704 0.25295 0.0
H824 H 0.67875 0.7856 0.26498 0.0
S825 S 0.594 0.84145 0.24013 0.0
N826 N 0.61909 0.85753 0.23492 0.0
N827 N 0.60207 0.81281 0.25089 0.0
C828 C 0.62621 0.81547 0.24956 0.0
C829 C 0.63551 0.83967 0.24188 0.0
C830 C 0.93345 0.7373 0.28192 0.0
C831 C 0.90933 0.72968 0.28728 0.0
C832 C 0.93984 0.76125 0.25418 0.0
C833 C 0.92238 0.7785 0.23074 0.0
H834 H 0.94767 0.72451 0.29518 0.0
H835 H 0.95858 0.76605 0.24684 0.0
S836 S 0.8569 0.76921 0.25032 0.0
N837 N 0.86796 0.74221 0.2785 0.0
N838 N 0.88011 0.78741 0.22763 0.0
C839 C 0.89826 0.77165 0.24248 0.0
C840 C 0.89169 0.74722 0.27074 0.0
C841 C 0.67318 0.20538 0.39706 0.0
C842 C 0.69583 0.1949 0.40489 0.0
C843 C 0.66901 0.2285 0.44424 0.0
C844 C 0.6873 0.24211 0.50108 0.0
H845 H 0.65833 0.19547 0.3561 0.0
H846 H 0.65126 0.23578 0.43604 0.0
S847 S 0.74995 0.22347 0.54291 0.0
N848 N 0.73702 0.20025 0.4717 0.0
N849 N 0.72903 0.24392 0.5607 0.0
C850 C 0.71021 0.23226 0.50694 0.0
C851 C 0.71452 0.20861 0.45869 0.0
C852 C 0.98985 0.41065 0.05814 0.0
C853 C 0.98375 0.43522 0.07373 0.0
C854 C 1.01368 0.40385 0.0512 0.0
C855 C 1.03218 0.42141 0.05947 0.0
H856 H 0.97607 0.39663 0.04885 0.0
H857 H 1.01764 0.3848 0.03677 0.0
S858 S 1.02569 0.48782 0.11148 0.0
N859 N 0.99806 0.47693 0.10451 0.0
N860 N 0.04299 0.46414 0.09169 0.0
C861 C 1.02636 0.44596 0.07777 0.0
C862 C 1.00209 0.45288 0.08476 0.0
C863 C 0.49305 0.64202 0.30933 0.0
C864 C 0.47823 0.66287 0.31074 0.0
C865 C 0.51879 0.64343 0.30889 0.0
C866 C 0.5322 0.6658 0.30989 0.0
H867 H 0.48465 0.6241 0.30853 0.0
H868 H 0.52833 0.62647 0.30785 0.0
S869 S 0.5032 0.72644 0.31304 0.0
N870 N 0.48024 0.70713 0.31262 0.0
N871 N 0.52733 0.70966 0.31196 0.0
C872 C 0.51764 0.68681 0.31116 0.0
C873 C 0.49139 0.68539 0.31153 0.0
C874 C 0.54782 0.34221 0.37288 0.0
C875 C 0.52888 0.34799 0.44786 0.0
C876 C 0.57071 0.33783 0.41858 0.0
C877 C 0.57529 0.33903 0.54042 0.0
H878 H 0.54539 0.34288 0.27835 0.0
H879 H 0.58533 0.33596 0.35786 0.0
S880 S 0.53095 0.34858 0.77418 0.0
N881 N 0.51548 0.35055 0.65033 0.0
N882 N 0.55863 0.3432 0.73509 0.0
C883 C 0.55608 0.34245 0.6161 0.0
C884 C 0.53283 0.34674 0.57008 0.0
C885 C 0.08112 0.62368 0.28932 0.0
C886 C 0.09604 0.645 0.29981 0.0
C887 C 0.0553 0.62418 0.28696 0.0
C888 C 0.04188 0.64602 0.29644 0.0
H889 H 0.0895 0.60612 0.28244 0.0
H890 H 0.04572 0.60692 0.27919 0.0
S891 S 0.07134 0.70759 0.31997 0.0
N892 N 0.09415 0.68905 0.31612 0.0
N893 N 0.04716 0.69002 0.31179 0.0
C894 C 0.05665 0.66747 0.30609 0.0
C895 C 0.0829 0.66696 0.30763 0.0
C896 C 0.19348 0.49933 0.1862 0.0
C897 C 0.17406 0.51508 0.18535 0.0
C898 C 0.19118 0.47563 0.14039 0.0
C899 C 0.1694 0.46699 0.09175 0.0
H900 H 0.21045 0.50529 0.22408 0.0
H901 H 0.20642 0.46386 0.14586 0.0
S902 S 0.11399 0.50238 0.05753 0.0
N903 N 0.13304 0.52138 0.12439 0.0
N904 N 0.12851 0.4768 0.03805 0.0
C905 C 0.15007 0.48297 0.08678 0.0
C906 C 0.15244 0.50703 0.13391 0.0
C907 C 0.821 0.91763 0.15087 0.0
C908 C 0.81021 0.8955 0.18294 0.0
C909 C 0.84513 0.91896 0.12533 0.0
C910 C 0.85937 0.8982 0.13163 0.0
H911 H 0.81071 0.93413 0.14699 0.0
H912 H 0.85275 0.9366 0.10352 0.0
S913 S 0.83885 0.83553 0.2043 0.0
N914 N 0.81469 0.85215 0.21373 0.0
N915 N 0.86056 0.85446 0.16617 0.0
C916 C 0.84852 0.87565 0.15882 0.0
C917 C 0.82377 0.87435 0.18447 0.0
C918 C 0.42601 0.47205 0.31526 0.0
C919 C 0.40536 0.45662 0.31219 0.0
C920 C 0.42493 0.49823 0.31394 0.0
C921 C 0.40311 0.5111 0.3107 0.0
H922 H 0.44339 0.46383 0.31886 0.0
H923 H 0.44158 0.50852 0.31733 0.0
S924 S 0.34345 0.48005 0.29439 0.0
N925 N 0.3621 0.45721 0.30119 0.0
N926 N 0.36016 0.50513 0.29819 0.0
C927 C 0.38237 0.49583 0.30626 0.0
C928 C 0.38347 0.46925 0.30705 0.0
C929 C 0.80559 0.18215 0.76989 0.0
C930 C 0.82324 0.17031 0.8351 0.0
C931 C 0.79555 0.17131 0.66839 0.0
C932 C 0.80289 0.14833 0.62729 0.0
H933 H 0.80051 0.20054 0.79296 0.0
H934 H 0.78208 0.1812 0.62101 0.0
S935 S 0.84619 0.10824 0.77478 0.0
N936 N 0.84519 0.13271 0.86029 0.0
N937 N 0.82757 0.11327 0.66484 0.0
C938 C 0.81942 0.13563 0.69554 0.0
C939 C 0.82912 0.14631 0.80095 0.0
C940 C 0.89828 0.56545 0.16987 0.0
C941 C 0.88173 0.57964 0.23055 0.0
C942 C 0.89155 0.54297 0.11874 0.0
C943 C 0.86798 0.53376 0.12598 0.0
H944 H 0.91645 0.572 0.15902 0.0
H945 H 0.90502 0.53266 0.07347 0.0
S946 S 0.81807 0.56326 0.28074 0.0
N947 N 0.84087 0.58241 0.29922 0.0
N948 N 0.82826 0.54029 0.20218 0.0
C949 C 0.85128 0.54766 0.18723 0.0
C950 C 0.85817 0.57049 0.24008 0.0
C951 C 0.24197 0.18416 0.64205 0.0
C952 C 0.22907 0.16316 0.67568 0.0
C953 C 0.261 0.18267 0.56372 0.0
C954 C 0.26764 0.16018 0.51475 0.0
H955 H 0.23729 0.20195 0.67597 0.0
H956 H 0.27105 0.19916 0.54456 0.0
S957 S 0.23896 0.0999 0.56881 0.0
N958 N 0.22451 0.11909 0.65378 0.0
N959 N 0.25878 0.11667 0.49871 0.0
C960 C 0.25429 0.13918 0.54389 0.0
C961 C 0.23545 0.14056 0.62635 0.0
C962 C 0.59012 0.52528 0.46993 0.0
C963 C 0.61152 0.53842 0.45123 0.0
C964 C 0.59046 0.50148 0.51348 0.0
C965 C 0.61219 0.49058 0.54134 0.0
H966 H 0.5731 0.53331 0.44968 0.0
H967 H 0.57386 0.49124 0.52063 0.0
S968 S 0.67293 0.51735 0.51155 0.0
N969 N 0.65494 0.53819 0.46041 0.0
N970 N 0.65528 0.49501 0.55567 0.0
C971 C 0.6335 0.50406 0.52916 0.0
C972 C 0.63327 0.52753 0.4798 0.0
C973 C 0.23794 0.93586 0.24186 0.0
C974 C 0.25161 0.95581 0.28262 0.0
C975 C 0.21407 0.93844 0.21251 0.0
C976 C 0.20263 0.96104 0.22465 0.0
H977 H 0.24588 0.91814 0.23038 0.0
H978 H 0.2045 0.92223 0.18135 0.0
S979 S 0.23124 0.01914 0.3262 0.0
N980 N 0.25287 0.99913 0.33087 0.0
N981 N 0.2072 1.00394 0.27884 0.0
C982 C 0.21624 0.98134 0.26423 0.0
C983 C 0.24092 0.97872 0.29266 0.0
C984 C 0.71932 1.00333 0.31829 0.0
C985 C 0.70114 0.99237 0.24861 0.0
C986 C 0.72015 0.02872 0.33631 0.0
C987 C 0.70266 0.04357 0.28621 0.0
H988 H 0.73209 0.99219 0.36397 0.0
H989 H 0.73382 0.03664 0.39392 0.0
S990 S 0.65429 0.02403 0.07925 0.0
N991 N 0.66755 0.99859 0.11565 0.0
N992 N 0.66882 0.046 0.15203 0.0
C993 C 0.68549 0.03294 0.21023 0.0
C994 C 0.68484 1.00737 0.19061 0.0
C995 C 0.25471 0.37543 0.64166 0.0
C996 C 0.2635 0.36655 0.74912 0.0
C997 C 0.26788 0.37353 0.53871 0.0
C998 C 0.2901 0.36241 0.53993 0.0
H999 H 0.23809 0.38509 0.63853 0.0
H1000 H 0.26141 0.3822 0.45977 0.0
S1001 S 0.32028 0.33474 0.79569 0.0
N1002 N 0.295 0.34493 0.84888 0.0
N1003 N 0.31992 0.3412 0.65417 0.0
C1004 C 0.29839 0.35197 0.64461 0.0
C1005 C 0.28499 0.35403 0.74981 0.0
C1006 C 0.90643 0.0485 -0.01331 0.0
C1007 C 0.92831 0.03791 0.01534 0.0
C1008 C 0.90511 0.07317 0.96237 0.0
C1009 C 0.9255 0.08837 0.96842 0.0
H1010 H 0.88995 0.03791 -0.0123 0.0
H1011 H 0.88774 0.08071 0.94477 0.0
S1012 S 0.98745 0.06944 0.02556 0.0
N1013 N 0.97133 0.04404 0.03508 0.0
N1014 N 0.96844 0.09119 -0.00465 0.0
C1015 C 0.94769 0.07803 -0.00934 0.0
C1016 C 0.94917 0.05262 0.01366 0.0
C1017 C 0.27408 0.67021 0.30972 0.0
C1018 C 0.26063 0.64788 0.30896 0.0
C1019 C 0.29981 0.6715 0.30985 0.0
C1020 C 0.31451 0.65057 0.30911 0.0
H1021 H 0.26458 0.6872 0.31023 0.0
H1022 H 0.30828 0.68939 0.31052 0.0
S1023 S 0.28936 0.5871 0.30655 0.0
N1024 N 0.26529 0.60398 0.30719 0.0
N1025 N 0.31238 0.60632 0.3074 0.0
C1026 C 0.30131 0.6281 0.30826 0.0
C1027 C 0.27509 0.62679 0.30819 0.0
C1028 C 0.40521 0.03327 0.33163 0.0
C1029 C 0.38315 0.02015 0.32758 0.0
C1030 C 0.40676 0.05931 0.33425 0.0
C1031 C 0.38635 0.07419 0.33274 0.0
H1032 H 0.42168 0.02329 0.33288 0.0
H1033 H 0.4243 0.06786 0.33736 0.0
S1034 S 0.32395 0.04969 0.32255 0.0
N1035 N 0.34021 0.02492 0.3224 0.0
N1036 N 0.34303 0.07298 0.32706 0.0
C1037 C 0.36416 0.06132 0.32867 0.0
C1038 C 0.36259 0.03478 0.32618 0.0
C1039 C 0.73573 0.64351 0.29496 0.0
C1040 C 0.75075 0.66485 0.3003 0.0
C1041 C 0.70998 0.64399 0.29871 0.0
C1042 C 0.69671 0.66586 0.30721 0.0
H1043 H 0.74394 0.62586 0.28928 0.0
H1044 H 0.70033 0.62672 0.29471 0.0
S1045 S 0.72588 0.72753 0.31716 0.0
N1046 N 0.74874 0.70907 0.30988 0.0
N1047 N 0.70176 0.70983 0.31744 0.0
C1048 C 0.71139 0.68734 0.31141 0.0
C1049 C 0.73763 0.68688 0.30802 0.0
C1050 C 0.09809 0.10387 0.87441 0.0
C1051 C 0.09039 0.12356 0.94282 0.0
C1052 C 0.10082 0.08089 0.92379 0.0
C1053 C 0.09663 0.07706 0.04416 0.0
H1054 H 0.10357 0.10665 0.78442 0.0
H1055 H 0.10764 0.06637 0.86893 0.0
S1056 S 0.07496 0.12289 0.2585 0.0
N1057 N 0.07697 0.13773 0.13355 0.0
N1058 N 0.08295 0.09467 0.22838 0.0
C1059 C 0.08739 0.09629 0.1115 0.0
C1060 C 0.08412 0.11958 0.06023 0.0
C1061 C 0.72748 0.38939 0.76557 0.0
C1062 C 0.70989 0.40063 0.69708 0.0
C1063 C 0.74383 0.4033 0.83458 0.0
C1064 C 0.74317 0.42902 0.8388 0.0
H1065 H 0.72805 0.36971 0.76983 0.0
H1066 H 0.75697 0.39376 0.88606 0.0
S1067 S 0.70156 0.46744 0.67076 0.0
N1068 N 0.69406 0.43928 0.63138 0.0
N1069 N 0.7238 0.46505 0.76554 0.0
C1070 C 0.72621 0.44046 0.76769 0.0
C1071 C 0.70989 0.42639 0.69582 0.0
loop_
_geom_bond_atom_site_label_1
_geom_bond_atom_site_label_2
_geom_bond_distance
_geom_bond_site_symmetry_2
_ccdc_geom_bond_type
C0 O16 1.251 . S
C0 O18 1.254 . S
N1 C2 1.333 . S
N1 C6 1.307 . S
N1 Zn7 2.020 . S
C2 N1 1.333 . S
C2 C3 1.379 . S
C2 H20 0.952 . S
C3 C2 1.379 . S
C3 C4 1.390 . S
C3 H30 0.949 . S
C4 C3 1.390 . S
C4 C5 1.357 . S
C5 C4 1.357 . S
C5 C6 1.370 . S
C5 H31 0.950 . S
C6 N1 1.307 . S
C6 C5 1.370 . S
C6 H24 0.948 . S
Zn7 N1 2.020 . S
Zn7 O16 2.039 . S
Zn7 O22 2.034 . S
Zn7 O26 2.025 1_554 S
Zn7 O28 2.024 . S
C8 O27 1.246 . S
C8 O28 1.249 . S
N9 C10 1.307 . S
N9 C11 1.333 . S
N9 Zn15 2.020 . S
C10 N9 1.307 . S
C10 C14 1.370 . S
C10 H21 0.948 . S
C11 N9 1.333 . S
C11 C12 1.379 . S
C11 H19 0.952 1_554 S
C12 C11 1.379 . S
C12 C13 1.390 . S
C12 H32 0.949 1_554 S
C13 C12 1.390 . S
C13 C14 1.357 . S
C14 C10 1.370 . S
C14 C13 1.357 . S
C14 H33 0.950 . S
Zn15 N9 2.020 . S
Zn15 O18 2.025 . S
Zn15 O23 2.024 . S
Zn15 O25 2.039 1_554 S
Zn15 O27 2.034 . S
O16 C0 1.251 . S
O16 Zn7 2.039 . S
C17 O22 1.246 . S
C17 O23 1.249 . S
O18 C0 1.254 . S
O18 Zn15 2.025 . S
H19 C11 0.952 1_556 S
H20 C2 0.952 . S
H21 C10 0.948 . S
O22 Zn7 2.034 . S
O22 C17 1.246 . S
O23 Zn15 2.024 . S
O23 C17 1.249 . S
H24 C6 0.948 . S
O25 Zn15 2.039 1_556 S
O25 C29 1.251 . S
O26 Zn7 2.025 1_556 S
O26 C29 1.254 . S
O27 C8 1.246 . S
O27 Zn15 2.034 . S
O28 Zn7 2.024 . S
O28 C8 1.249 . S
C29 O25 1.251 . S
C29 O26 1.254 . S
H30 C3 0.949 . S
H31 C5 0.950 . S
H32 C12 0.949 1_556 S
H33 C14 0.950 . S
C34 O50 1.251 . S
C34 O52 1.254 . S
N35 C36 1.333 . S
N35 C40 1.307 . S
N35 Zn41 2.020 . S
C36 N35 1.333 . S
C36 C37 1.379 . S
C36 H54 0.952 . S
C37 C36 1.379 . S
C37 C38 1.390 . S
C37 H64 0.949 . S
C38 C37 1.390 . S
C38 C39 1.357 . S
C39 C38 1.357 . S
C39 C40 1.370 . S
C39 H65 0.950 . S
C40 N35 1.307 . S
C40 C39 1.370 . S
C40 H58 0.948 . S
Zn41 N35 2.020 . S
Zn41 O50 2.039 . S
Zn41 O56 2.034 . S
Zn41 O60 2.025 . S
Zn41 O62 2.024 . S
C42 O61 1.246 . S
C42 O62 1.249 . S
N43 C44 1.307 . S
N43 C45 1.333 . S
N43 Zn49 2.020 . S
C44 N43 1.307 . S
C44 C48 1.370 . S
C44 H55 0.948 . S
C45 N43 1.333 . S
C45 C46 1.379 . S
C45 H53 0.952 . S
C46 C45 1.379 . S
C46 C47 1.390 . S
C46 H66 0.949 . S
C47 C46 1.390 . S
C47 C48 1.357 . S
C48 C44 1.370 . S
C48 C47 1.357 . S
C48 H67 0.950 . S
Zn49 N43 2.020 . S
Zn49 O52 2.025 . S
Zn49 O57 2.024 . S
Zn49 O59 2.039 . S
Zn49 O61 2.034 . S
O50 C34 1.251 . S
O50 Zn41 2.039 . S
C51 O56 1.246 . S
C51 O57 1.249 . S
O52 C34 1.254 . S
O52 Zn49 2.025 . S
H53 C45 0.952 . S
H54 C36 0.952 . S
H55 C44 0.948 . S
O56 Zn41 2.034 . S
O56 C51 1.246 . S
O57 Zn49 2.024 . S
O57 C51 1.249 . S
H58 C40 0.948 . S
O59 Zn49 2.039 . S
O59 C63 1.251 . S
O60 Zn41 2.025 . S
O60 C63 1.254 . S
O61 C42 1.246 . S
O61 Zn49 2.034 . S
O62 Zn41 2.024 . S
O62 C42 1.249 . S
C63 O59 1.251 . S
C63 O60 1.254 . S
H64 C37 0.949 . S
H65 C39 0.950 . S
H66 C46 0.949 . S
H67 C48 0.950 . S
C68 O84 1.251 . S
C68 O86 1.254 . S
N69 C70 1.333 . S
N69 C74 1.307 . S
N69 Zn75 2.020 . S
C70 N69 1.333 . S
C70 C71 1.379 . S
C70 H88 0.952 . S
C71 C70 1.379 . S
C71 C72 1.390 . S
C71 H98 0.949 . S
C72 C71 1.390 . S
C72 C73 1.357 . S
C73 C72 1.357 . S
C73 C74 1.370 . S
C73 H99 0.950 . S
C74 N69 1.307 . S
C74 C73 1.370 . S
C74 H92 0.948 . S
Zn75 N69 2.020 . S
Zn75 O84 2.039 . S
Zn75 O90 2.034 . S
Zn75 O94 2.025 . S
Zn75 O96 2.024 . S
C76 O95 1.246 . S
C76 O96 1.249 . S
N77 C78 1.307 . S
N77 C79 1.333 . S
N77 Zn83 2.020 . S
C78 N77 1.307 . S
C78 C82 1.370 . S
C78 H89 0.948 . S
C79 N77 1.333 . S
C79 C80 1.379 . S
C79 H87 0.952 . S
C80 C79 1.379 . S
C80 C81 1.390 . S
C80 H100 0.949 . S
C81 C80 1.390 . S
C81 C82 1.357 . S
C82 C78 1.370 . S
C82 C81 1.357 . S
C82 H101 0.950 . S
Zn83 N77 2.020 . S
Zn83 O86 2.025 . S
Zn83 O91 2.024 . S
Zn83 O93 2.039 . S
Zn83 O95 2.034 . S
O84 C68 1.251 . S
O84 Zn75 2.039 . S
C85 O90 1.246 . S
C85 O91 1.249 . S
O86 C68 1.254 . S
O86 Zn83 2.025 . S
H87 C79 0.952 . S
H88 C70 0.952 . S
H89 C78 0.948 . S
O90 Zn75 2.034 . S
O90 C85 1.246 . S
O91 Zn83 2.024 . S
O91 C85 1.249 . S
H92 C74 0.948 . S
O93 Zn83 2.039 . S
O93 C97 1.251 . S
O94 Zn75 2.025 . S
O94 C97 1.254 . S
O95 C76 1.246 . S
O95 Zn83 2.034 . S
O96 Zn75 2.024 . S
O96 C76 1.249 . S
C97 O93 1.251 . S
C97 O94 1.254 . S
H98 C71 0.949 . S
H99 C73 0.950 . S
H100 C80 0.949 . S
H101 C82 0.950 . S
C102 O118 1.251 . S
C102 O120 1.254 . S
N103 C104 1.333 . S
N103 C108 1.307 . S
N103 Zn109 2.020 . S
C104 N103 1.333 . S
C104 C105 1.379 . S
C104 H122 0.952 . S
C105 C104 1.379 . S
C105 C106 1.390 . S
C105 H132 0.949 . S
C106 C105 1.390 . S
C106 C107 1.357 . S
C107 C106 1.357 . S
C107 C108 1.370 . S
C107 H133 0.950 1_556 S
C108 N103 1.307 . S
C108 C107 1.370 . S
C108 H126 0.948 1_556 S
Zn109 N103 2.020 . S
Zn109 O118 2.039 . S
Zn109 O124 2.034 . S
Zn109 O128 2.025 1_556 S
Zn109 O130 2.024 . S
C110 O129 1.246 . S
C110 O130 1.249 . S
N111 C112 1.307 . S
N111 C113 1.333 . S
N111 Zn117 2.020 . S
C112 N111 1.307 . S
C112 C116 1.370 . S
C112 H123 0.948 . S
C113 N111 1.333 . S
C113 C114 1.379 1_556 S
C113 H121 0.952 1_556 S
C114 C113 1.379 1_554 S
C114 C115 1.390 1_554 S
C114 H134 0.949 . S
C115 C114 1.390 1_556 S
C115 C116 1.357 . S
C116 C112 1.370 . S
C116 C115 1.357 . S
C116 H135 0.950 . S
Zn117 N111 2.020 . S
Zn117 O120 2.025 . S
Zn117 O125 2.024 . S
Zn117 O127 2.039 1_556 S
Zn117 O129 2.034 . S
O118 C102 1.251 . S
O118 Zn109 2.039 . S
C119 O124 1.246 . S
C119 O125 1.249 . S
O120 C102 1.254 . S
O120 Zn117 2.025 . S
H121 C113 0.952 1_554 S
H122 C104 0.952 . S
H123 C112 0.948 . S
O124 Zn109 2.034 . S
O124 C119 1.246 . S
O125 Zn117 2.024 . S
O125 C119 1.249 . S
H126 C108 0.948 1_554 S
O127 Zn117 2.039 1_554 S
O127 C131 1.251 . S
O128 Zn109 2.025 1_554 S
O128 C131 1.254 . S
O129 C110 1.246 . S
O129 Zn117 2.034 . S
O130 Zn109 2.024 . S
O130 C110 1.249 . S
C131 O127 1.251 . S
C131 O128 1.254 . S
H132 C105 0.949 . S
H133 C107 0.950 1_554 S
H134 C114 0.949 . S
H135 C116 0.950 . S
C136 O152 1.251 . S
C136 O154 1.254 . S
N137 C138 1.333 1_556 S
N137 C142 1.307 . S
N137 Zn143 2.020 . S
C138 N137 1.333 1_554 S
C138 C139 1.379 . S
C138 H156 0.952 . S
C139 C138 1.379 . S
C139 C140 1.390 1_554 S
C139 H166 0.949 . S
C140 C139 1.390 1_556 S
C140 C141 1.357 . S
C141 C140 1.357 . S
C141 C142 1.370 . S
C141 H167 0.950 . S
C142 N137 1.307 . S
C142 C141 1.370 . S
C142 H160 0.948 . S
Zn143 N137 2.020 . S
Zn143 O152 2.039 1_556 S
Zn143 O158 2.034 . S
Zn143 O162 2.025 . S
Zn143 O164 2.024 . S
C144 O163 1.246 . S
C144 O164 1.249 . S
N145 C146 1.307 . S
N145 C147 1.333 . S
N145 Zn151 2.020 . S
C146 N145 1.307 . S
C146 C150 1.370 . S
C146 H157 0.948 1_556 S
C147 N145 1.333 . S
C147 C148 1.379 . S
C147 H155 0.952 . S
C148 C147 1.379 . S
C148 C149 1.390 . S
C148 H168 0.949 . S
C149 C148 1.390 . S
C149 C150 1.357 . S
C150 C146 1.370 . S
C150 C149 1.357 . S
C150 H169 0.950 1_556 S
Zn151 N145 2.020 . S
Zn151 O154 2.025 1_556 S
Zn151 O159 2.024 . S
Zn151 O161 2.039 . S
Zn151 O163 2.034 . S
O152 C136 1.251 . S
O152 Zn143 2.039 1_554 S
C153 O158 1.246 . S
C153 O159 1.249 . S
O154 C136 1.254 . S
O154 Zn151 2.025 1_554 S
H155 C147 0.952 . S
H156 C138 0.952 . S
H157 C146 0.948 1_554 S
O158 Zn143 2.034 . S
O158 C153 1.246 . S
O159 Zn151 2.024 . S
O159 C153 1.249 . S
H160 C142 0.948 . S
O161 Zn151 2.039 . S
O161 C165 1.251 . S
O162 Zn143 2.025 . S
O162 C165 1.254 . S
O163 C144 1.246 . S
O163 Zn151 2.034 . S
O164 Zn143 2.024 . S
O164 C144 1.249 . S
C165 O161 1.251 . S
C165 O162 1.254 . S
H166 C139 0.949 . S
H167 C141 0.950 . S
H168 C148 0.949 . S
H169 C150 0.950 1_554 S
C170 O186 1.251 . S
C170 O188 1.254 . S
N171 C172 1.333 . S
N171 C176 1.307 . S
N171 Zn177 2.020 . S
C172 N171 1.333 . S
C172 C173 1.379 . S
C172 H190 0.952 . S
C173 C172 1.379 . S
C173 C174 1.390 . S
C173 H200 0.949 . S
C174 C173 1.390 . S
C174 C175 1.357 . S
C175 C174 1.357 . S
C175 C176 1.370 . S
C175 H201 0.950 . S
C176 N171 1.307 . S
C176 C175 1.370 . S
C176 H194 0.948 . S
Zn177 N171 2.020 . S
Zn177 O186 2.039 . S
Zn177 O192 2.034 . S
Zn177 O196 2.025 1_554 S
Zn177 O198 2.024 . S
C178 O197 1.246 . S
C178 O198 1.249 . S
N179 C180 1.307 . S
N179 C181 1.333 . S
N179 Zn185 2.020 . S
C180 N179 1.307 . S
C180 C184 1.370 . S
C180 H191 0.948 . S
C181 N179 1.333 . S
C181 C182 1.379 . S
C181 H189 0.952 . S
C182 C181 1.379 . S
C182 C183 1.390 . S
C182 H202 0.949 1_554 S
C183 C182 1.390 . S
C183 C184 1.357 . S
C184 C180 1.370 . S
C184 C183 1.357 . S
C184 H203 0.950 . S
Zn185 N179 2.020 . S
Zn185 O188 2.025 . S
Zn185 O193 2.024 . S
Zn185 O195 2.039 1_554 S
Zn185 O197 2.034 . S
O186 C170 1.251 . S
O186 Zn177 2.039 . S
C187 O192 1.246 . S
C187 O193 1.249 . S
O188 C170 1.254 . S
O188 Zn185 2.025 . S
H189 C181 0.952 . S
H190 C172 0.952 . S
H191 C180 0.948 . S
O192 Zn177 2.034 . S
O192 C187 1.246 . S
O193 Zn185 2.024 . S
O193 C187 1.249 . S
H194 C176 0.948 . S
O195 Zn185 2.039 1_556 S
O195 C199 1.251 . S
O196 Zn177 2.025 1_556 S
O196 C199 1.254 . S
O197 C178 1.246 . S
O197 Zn185 2.034 . S
O198 Zn177 2.024 . S
O198 C178 1.249 . S
C199 O195 1.251 . S
C199 O196 1.254 . S
H200 C173 0.949 . S
H201 C175 0.950 . S
H202 C182 0.949 1_556 S
H203 C184 0.950 . S
C204 O220 1.251 . S
C204 O222 1.254 . S
N205 C206 1.333 . S
N205 C210 1.307 . S
N205 Zn211 2.020 . S
C206 N205 1.333 . S
C206 C207 1.379 . S
C206 H224 0.952 . S
C207 C206 1.379 . S
C207 C208 1.390 . S
C207 H234 0.949 . S
C208 C207 1.390 . S
C208 C209 1.357 . S
C209 C208 1.357 . S
C209 C210 1.370 . S
C209 H235 0.950 . S
C210 N205 1.307 . S
C210 C209 1.370 . S
C210 H228 0.948 . S
Zn211 N205 2.020 . S
Zn211 O220 2.039 . S
Zn211 O226 2.034 . S
Zn211 O230 2.025 . S
Zn211 O232 2.024 . S
C212 O231 1.246 . S
C212 O232 1.249 . S
N213 C214 1.307 . S
N213 C215 1.333 . S
N213 Zn219 2.020 . S
C214 N213 1.307 . S
C214 C218 1.370 . S
C214 H225 0.948 . S
C215 N213 1.333 . S
C215 C216 1.379 . S
C215 H223 0.952 . S
C216 C215 1.379 . S
C216 C217 1.390 . S
C216 H236 0.949 . S
C217 C216 1.390 . S
C217 C218 1.357 . S
C218 C214 1.370 . S
C218 C217 1.357 . S
C218 H237 0.950 . S
Zn219 N213 2.020 . S
Zn219 O222 2.025 . S
Zn219 O227 2.024 . S
Zn219 O229 2.039 . S
Zn219 O231 2.034 . S
O220 C204 1.251 . S
O220 Zn211 2.039 . S
C221 O226 1.246 . S
C221 O227 1.249 . S
O222 C204 1.254 . S
O222 Zn219 2.025 . S
H223 C215 0.952 . S
H224 C206 0.952 . S
H225 C214 0.948 . S
O226 Zn211 2.034 . S
O226 C221 1.246 . S
O227 Zn219 2.024 . S
O227 C221 1.249 . S
H228 C210 0.948 . S
O229 Zn219 2.039 . S
O229 C233 1.251 . S
O230 Zn211 2.025 . S
O230 C233 1.254 . S
O231 C212 1.246 . S
O231 Zn219 2.034 . S
O232 Zn211 2.024 . S
O232 C212 1.249 . S
C233 O229 1.251 . S
C233 O230 1.254 . S
H234 C207 0.949 . S
H235 C209 0.950 . S
H236 C216 0.949 . S
H237 C218 0.950 . S
C238 O254 1.251 . S
C238 O256 1.254 . S
N239 C240 1.333 . S
N239 C244 1.307 . S
N239 Zn245 2.020 . S
C240 N239 1.333 . S
C240 C241 1.379 . S
C240 H258 0.952 . S
C241 C240 1.379 . S
C241 C242 1.390 . S
C241 H268 0.949 . S
C242 C241 1.390 . S
C242 C243 1.357 . S
C243 C242 1.357 . S
C243 C244 1.370 . S
C243 H269 0.950 . S
C244 N239 1.307 . S
C244 C243 1.370 . S
C244 H262 0.948 . S
Zn245 N239 2.020 . S
Zn245 O254 2.039 . S
Zn245 O260 2.034 . S
Zn245 O264 2.025 . S
Zn245 O266 2.024 . S
C246 O265 1.246 . S
C246 O266 1.249 . S
N247 C248 1.307 . S
N247 C249 1.333 . S
N247 Zn253 2.020 . S
C248 N247 1.307 . S
C248 C252 1.370 . S
C248 H259 0.948 . S
C249 N247 1.333 . S
C249 C250 1.379 . S
C249 H257 0.952 . S
C250 C249 1.379 . S
C250 C251 1.390 . S
C250 H270 0.949 . S
C251 C250 1.390 . S
C251 C252 1.357 . S
C252 C248 1.370 . S
C252 C251 1.357 . S
C252 H271 0.950 . S
Zn253 N247 2.020 . S
Zn253 O256 2.025 . S
Zn253 O261 2.024 . S
Zn253 O263 2.039 . S
Zn253 O265 2.034 . S
O254 C238 1.251 . S
O254 Zn245 2.039 . S
C255 O260 1.246 . S
C255 O261 1.249 . S
O256 C238 1.254 . S
O256 Zn253 2.025 . S
H257 C249 0.952 . S
H258 C240 0.952 . S
H259 C248 0.948 . S
O260 Zn245 2.034 . S
O260 C255 1.246 . S
O261 Zn253 2.024 . S
O261 C255 1.249 . S
H262 C244 0.948 . S
O263 Zn253 2.039 . S
O263 C267 1.251 . S
O264 Zn245 2.025 . S
O264 C267 1.254 . S
O265 C246 1.246 . S
O265 Zn253 2.034 . S
O266 Zn245 2.024 . S
O266 C246 1.249 . S
C267 O263 1.251 . S
C267 O264 1.254 . S
H268 C241 0.949 . S
H269 C243 0.950 . S
H270 C250 0.949 . S
H271 C252 0.950 . S
C272 O288 1.251 . S
C272 O290 1.254 . S
N273 C274 1.333 . S
N273 C278 1.307 . S
N273 Zn279 2.020 . S
C274 N273 1.333 . S
C274 C275 1.379 . S
C274 H292 0.952 . S
C275 C274 1.379 . S
C275 C276 1.390 . S
C275 H302 0.949 . S
C276 C275 1.390 . S
C276 C277 1.357 . S
C277 C276 1.357 . S
C277 C278 1.370 . S
C277 H303 0.950 1_556 S
C278 N273 1.307 . S
C278 C277 1.370 . S
C278 H296 0.948 1_556 S
Zn279 N273 2.020 . S
Zn279 O288 2.039 . S
Zn279 O294 2.034 . S
Zn279 O298 2.025 1_556 S
Zn279 O300 2.024 . S
C280 O299 1.246 . S
C280 O300 1.249 . S
N281 C282 1.307 . S
N281 C283 1.333 1_556 S
N281 Zn287 2.020 . S
C282 N281 1.307 . S
C282 C286 1.370 . S
C282 H293 0.948 . S
C283 N281 1.333 1_554 S
C283 C284 1.379 . S
C283 H291 0.952 . S
C284 C283 1.379 . S
C284 C285 1.390 1_554 S
C284 H304 0.949 . S
C285 C284 1.390 1_556 S
C285 C286 1.357 . S
C286 C282 1.370 . S
C286 C285 1.357 . S
C286 H305 0.950 . S
Zn287 N281 2.020 . S
Zn287 O290 2.025 . S
Zn287 O295 2.024 . S
Zn287 O297 2.039 1_556 S
Zn287 O299 2.034 . S
O288 C272 1.251 . S
O288 Zn279 2.039 . S
C289 O294 1.246 . S
C289 O295 1.249 . S
O290 C272 1.254 . S
O290 Zn287 2.025 . S
H291 C283 0.952 . S
H292 C274 0.952 . S
H293 C282 0.948 . S
O294 Zn279 2.034 . S
O294 C289 1.246 . S
O295 Zn287 2.024 . S
O295 C289 1.249 . S
H296 C278 0.948 1_554 S
O297 Zn287 2.039 1_554 S
O297 C301 1.251 . S
O298 Zn279 2.025 1_554 S
O298 C301 1.254 . S
O299 C280 1.246 . S
O299 Zn287 2.034 . S
O300 Zn279 2.024 . S
O300 C280 1.249 . S
C301 O297 1.251 . S
C301 O298 1.254 . S
H302 C275 0.949 . S
H303 C277 0.950 1_554 S
H304 C284 0.949 . S
H305 C286 0.950 . S
C306 O322 1.251 . S
C306 O324 1.254 . S
N307 C308 1.333 . S
N307 C312 1.307 . S
N307 Zn313 2.020 . S
C308 N307 1.333 . S
C308 C309 1.379 . S
C308 H326 0.952 . S
C309 C308 1.379 . S
C309 C310 1.390 . S
C309 H336 0.949 . S
C310 C309 1.390 . S
C310 C311 1.357 . S
C311 C310 1.357 . S
C311 C312 1.370 . S
C311 H337 0.950 . S
C312 N307 1.307 . S
C312 C311 1.370 . S
C312 H330 0.948 . S
Zn313 N307 2.020 . S
Zn313 O322 2.039 . S
Zn313 O328 2.034 . S
Zn313 O332 2.025 . S
Zn313 O334 2.024 . S
C314 O333 1.246 . S
C314 O334 1.249 . S
N315 C316 1.307 . S
N315 C317 1.333 . S
N315 Zn321 2.020 . S
C316 N315 1.307 . S
C316 C320 1.370 . S
C316 H327 0.948 . S
C317 N315 1.333 . S
C317 C318 1.379 . S
C317 H325 0.952 . S
C318 C317 1.379 . S
C318 C319 1.390 . S
C318 H338 0.949 . S
C319 C318 1.390 . S
C319 C320 1.357 . S
C320 C316 1.370 . S
C320 C319 1.357 . S
C320 H339 0.950 . S
Zn321 N315 2.020 . S
Zn321 O324 2.025 . S
Zn321 O329 2.024 . S
Zn321 O331 2.039 . S
Zn321 O333 2.034 . S
O322 C306 1.251 . S
O322 Zn313 2.039 . S
C323 O328 1.246 . S
C323 O329 1.249 . S
O324 C306 1.254 . S
O324 Zn321 2.025 . S
H325 C317 0.952 . S
H326 C308 0.952 . S
H327 C316 0.948 . S
O328 Zn313 2.034 . S
O328 C323 1.246 . S
O329 Zn321 2.024 . S
O329 C323 1.249 . S
H330 C312 0.948 . S
O331 Zn321 2.039 . S
O331 C335 1.251 . S
O332 Zn313 2.025 . S
O332 C335 1.254 . S
O333 C314 1.246 . S
O333 Zn321 2.034 . S
O334 Zn313 2.024 . S
O334 C314 1.249 . S
C335 O331 1.251 . S
C335 O332 1.254 . S
H336 C309 0.949 . S
H337 C311 0.950 . S
H338 C318 0.949 . S
H339 C320 0.950 . S
C340 O356 1.251 . S
C340 O358 1.254 . S
N341 C342 1.333 . S
N341 C346 1.307 . S
N341 Zn347 2.020 . S
C342 N341 1.333 . S
C342 C343 1.379 . S
C342 H360 0.952 . S
C343 C342 1.379 . S
C343 C344 1.390 . S
C343 H370 0.949 . S
C344 C343 1.390 . S
C344 C345 1.357 . S
C345 C344 1.357 . S
C345 C346 1.370 . S
C345 H371 0.950 . S
C346 N341 1.307 . S
C346 C345 1.370 . S
C346 H364 0.948 . S
Zn347 N341 2.020 . S
Zn347 O356 2.039 . S
Zn347 O362 2.034 . S
Zn347 O366 2.025 . S
Zn347 O368 2.024 . S
C348 O367 1.246 . S
C348 O368 1.249 . S
N349 C350 1.307 . S
N349 C351 1.333 . S
N349 Zn355 2.020 . S
C350 N349 1.307 . S
C350 C354 1.370 . S
C350 H361 0.948 . S
C351 N349 1.333 . S
C351 C352 1.379 . S
C351 H359 0.952 . S
C352 C351 1.379 . S
C352 C353 1.390 . S
C352 H372 0.949 . S
C353 C352 1.390 . S
C353 C354 1.357 . S
C354 C350 1.370 . S
C354 C353 1.357 . S
C354 H373 0.950 . S
Zn355 N349 2.020 . S
Zn355 O358 2.025 . S
Zn355 O363 2.024 . S
Zn355 O365 2.039 . S
Zn355 O367 2.034 . S
O356 C340 1.251 . S
O356 Zn347 2.039 . S
C357 O362 1.246 . S
C357 O363 1.249 . S
O358 C340 1.254 . S
O358 Zn355 2.025 . S
H359 C351 0.952 . S
H360 C342 0.952 . S
H361 C350 0.948 . S
O362 Zn347 2.034 . S
O362 C357 1.246 . S
O363 Zn355 2.024 . S
O363 C357 1.249 . S
H364 C346 0.948 . S
O365 Zn355 2.039 . S
O365 C369 1.251 . S
O366 Zn347 2.025 . S
O366 C369 1.254 . S
O367 C348 1.246 . S
O367 Zn355 2.034 . S
O368 Zn347 2.024 . S
O368 C348 1.249 . S
C369 O365 1.251 . S
C369 O366 1.254 . S
H370 C343 0.949 . S
H371 C345 0.950 . S
H372 C352 0.949 . S
H373 C354 0.950 . S
C374 O390 1.251 . S
C374 O392 1.254 . S
N375 C376 1.333 . S
N375 C380 1.307 . S
N375 Zn381 2.020 . S
C376 N375 1.333 . S
C376 C377 1.379 1_565 S
C376 H394 0.952 . S
C377 C376 1.379 1_545 S
C377 C378 1.390 . S
C377 H404 0.949 1_554 S
C378 C377 1.390 . S
C378 C379 1.357 . S
C379 C378 1.357 . S
C379 C380 1.370 1_545 S
C379 H405 0.950 . S
C380 N375 1.307 . S
C380 C379 1.370 1_565 S
C380 H398 0.948 . S
Zn381 N375 2.020 . S
Zn381 O390 2.039 1_554 S
Zn381 O396 2.034 . S
Zn381 O400 2.025 . S
Zn381 O402 2.024 . S
C382 O401 1.246 . S
C382 O402 1.249 . S
N383 C384 1.307 . S
N383 C385 1.333 . S
N383 Zn389 2.020 . S
C384 N383 1.307 . S
C384 C388 1.370 . S
C384 H395 0.948 . S
C385 N383 1.333 . S
C385 C386 1.379 . S
C385 H393 0.952 . S
C386 C385 1.379 . S
C386 C387 1.390 . S
C386 H406 0.949 . S
C387 C386 1.390 . S
C387 C388 1.357 . S
C388 C384 1.370 . S
C388 C387 1.357 . S
C388 H407 0.950 . S
Zn389 N383 2.020 . S
Zn389 O392 2.025 1_554 S
Zn389 O397 2.024 . S
Zn389 O399 2.039 . S
Zn389 O401 2.034 . S
O390 C374 1.251 . S
O390 Zn381 2.039 1_556 S
C391 O396 1.246 . S
C391 O397 1.249 . S
O392 C374 1.254 . S
O392 Zn389 2.025 1_556 S
H393 C385 0.952 . S
H394 C376 0.952 . S
H395 C384 0.948 . S
O396 Zn381 2.034 . S
O396 C391 1.246 . S
O397 Zn389 2.024 . S
O397 C391 1.249 . S
H398 C380 0.948 . S
O399 Zn389 2.039 . S
O399 C403 1.251 . S
O400 Zn381 2.025 . S
O400 C403 1.254 . S
O401 C382 1.246 . S
O401 Zn389 2.034 . S
O402 Zn381 2.024 . S
O402 C382 1.249 . S
C403 O399 1.251 . S
C403 O400 1.254 . S
H404 C377 0.949 1_556 S
H405 C379 0.950 . S
H406 C386 0.949 . S
H407 C388 0.950 . S
C408 O424 1.251 . S
C408 O426 1.254 . S
N409 C410 1.333 . S
N409 C414 1.307 . S
N409 Zn415 2.020 . S
C410 N409 1.333 . S
C410 C411 1.379 . S
C410 H428 0.952 . S
C411 C410 1.379 . S
C411 C412 1.390 . S
C411 H438 0.949 . S
C412 C411 1.390 . S
C412 C413 1.357 . S
C413 C412 1.357 . S
C413 C414 1.370 . S
C413 H439 0.950 . S
C414 N409 1.307 . S
C414 C413 1.370 . S
C414 H432 0.948 1_554 S
Zn415 N409 2.020 . S
Zn415 O424 2.039 . S
Zn415 O430 2.034 . S
Zn415 O434 2.025 1_554 S
Zn415 O436 2.024 . S
C416 O435 1.246 . S
C416 O436 1.249 . S
N417 C418 1.307 . S
N417 C419 1.333 . S
N417 Zn423 2.020 . S
C418 N417 1.307 . S
C418 C422 1.370 . S
C418 H429 0.948 . S
C419 N417 1.333 . S
C419 C420 1.379 . S
C419 H427 0.952 1_554 S
C420 C419 1.379 . S
C420 C421 1.390 . S
C420 H440 0.949 1_554 S
C421 C420 1.390 . S
C421 C422 1.357 . S
C422 C418 1.370 . S
C422 C421 1.357 . S
C422 H441 0.950 . S
Zn423 N417 2.020 . S
Zn423 O426 2.025 . S
Zn423 O431 2.024 . S
Zn423 O433 2.039 1_554 S
Zn423 O435 2.034 . S
O424 C408 1.251 . S
O424 Zn415 2.039 . S
C425 O430 1.246 . S
C425 O431 1.249 . S
O426 C408 1.254 . S
O426 Zn423 2.025 . S
H427 C419 0.952 1_556 S
H428 C410 0.952 . S
H429 C418 0.948 . S
O430 Zn415 2.034 . S
O430 C425 1.246 . S
O431 Zn423 2.024 . S
O431 C425 1.249 . S
H432 C414 0.948 1_556 S
O433 Zn423 2.039 1_556 S
O433 C437 1.251 . S
O434 Zn415 2.025 1_556 S
O434 C437 1.254 . S
O435 C416 1.246 . S
O435 Zn423 2.034 . S
O436 Zn415 2.024 . S
O436 C416 1.249 . S
C437 O433 1.251 . S
C437 O434 1.254 . S
H438 C411 0.949 . S
H439 C413 0.950 . S
H440 C420 0.949 1_556 S
H441 C422 0.950 . S
C442 O458 1.251 . S
C442 O460 1.254 . S
N443 C444 1.333 . S
N443 C448 1.307 . S
N443 Zn449 2.020 . S
C444 N443 1.333 . S
C444 C445 1.379 . S
C444 H462 0.952 . S
C445 C444 1.379 . S
C445 C446 1.390 . S
C445 H472 0.949 . S
C446 C445 1.390 . S
C446 C447 1.357 . S
C447 C446 1.357 . S
C447 C448 1.370 . S
C447 H473 0.950 1_556 S
C448 N443 1.307 . S
C448 C447 1.370 . S
C448 H466 0.948 1_556 S
Zn449 N443 2.020 . S
Zn449 O458 2.039 . S
Zn449 O464 2.034 . S
Zn449 O468 2.025 1_556 S
Zn449 O470 2.024 . S
C450 O469 1.246 . S
C450 O470 1.249 . S
N451 C452 1.307 . S
N451 C453 1.333 1_556 S
N451 Zn457 2.020 . S
C452 N451 1.307 . S
C452 C456 1.370 1_455 S
C452 H463 0.948 . S
C453 N451 1.333 1_554 S
C453 C454 1.379 1_455 S
C453 H461 0.952 . S
C454 C453 1.379 1_655 S
C454 C455 1.390 1_554 S
C454 H474 0.949 . S
C455 C454 1.390 1_556 S
C455 C456 1.357 . S
C456 C452 1.370 1_655 S
C456 C455 1.357 . S
C456 H475 0.950 . S
Zn457 N451 2.020 . S
Zn457 O460 2.025 . S
Zn457 O465 2.024 . S
Zn457 O467 2.039 1_556 S
Zn457 O469 2.034 . S
O458 C442 1.251 . S
O458 Zn449 2.039 . S
C459 O464 1.246 . S
C459 O465 1.249 . S
O460 C442 1.254 . S
O460 Zn457 2.025 . S
H461 C453 0.952 . S
H462 C444 0.952 . S
H463 C452 0.948 . S
O464 Zn449 2.034 . S
O464 C459 1.246 . S
O465 Zn457 2.024 . S
O465 C459 1.249 . S
H466 C448 0.948 1_554 S
O467 Zn457 2.039 1_554 S
O467 C471 1.251 . S
O468 Zn449 2.025 1_554 S
O468 C471 1.254 . S
O469 C450 1.246 . S
O469 Zn457 2.034 . S
O470 Zn449 2.024 . S
O470 C450 1.249 . S
C471 O467 1.251 . S
C471 O468 1.254 . S
H472 C445 0.949 . S
H473 C447 0.950 1_554 S
H474 C454 0.949 . S
H475 C456 0.950 . S
C476 O492 1.251 . S
C476 O494 1.254 . S
N477 C478 1.333 . S
N477 C482 1.307 . S
N477 Zn483 2.020 . S
C478 N477 1.333 . S
C478 C479 1.379 . S
C478 H496 0.952 . S
C479 C478 1.379 . S
C479 C480 1.390 . S
C479 H506 0.949 . S
C480 C479 1.390 . S
C480 C481 1.357 . S
C481 C480 1.357 . S
C481 C482 1.370 . S
C481 H507 0.950 . S
C482 N477 1.307 . S
C482 C481 1.370 . S
C482 H500 0.948 . S
Zn483 N477 2.020 . S
Zn483 O492 2.039 . S
Zn483 O498 2.034 . S
Zn483 O502 2.025 . S
Zn483 O504 2.024 . S
C484 O503 1.246 . S
C484 O504 1.249 . S
N485 C486 1.307 . S
N485 C487 1.333 . S
N485 Zn491 2.020 . S
C486 N485 1.307 . S
C486 C490 1.370 . S
C486 H497 0.948 . S
C487 N485 1.333 . S
C487 C488 1.379 . S
C487 H495 0.952 . S
C488 C487 1.379 . S
C488 C489 1.390 . S
C488 H508 0.949 . S
C489 C488 1.390 . S
C489 C490 1.357 . S
C490 C486 1.370 . S
C490 C489 1.357 . S
C490 H509 0.950 . S
Zn491 N485 2.020 . S
Zn491 O494 2.025 . S
Zn491 O499 2.024 . S
Zn491 O501 2.039 . S
Zn491 O503 2.034 . S
O492 C476 1.251 . S
O492 Zn483 2.039 . S
C493 O498 1.246 . S
C493 O499 1.249 . S
O494 C476 1.254 . S
O494 Zn491 2.025 . S
H495 C487 0.952 . S
H496 C478 0.952 . S
H497 C486 0.948 . S
O498 Zn483 2.034 . S
O498 C493 1.246 . S
O499 Zn491 2.024 . S
O499 C493 1.249 . S
H500 C482 0.948 . S
O501 Zn491 2.039 . S
O501 C505 1.251 . S
O502 Zn483 2.025 . S
O502 C505 1.254 . S
O503 C484 1.246 . S
O503 Zn491 2.034 . S
O504 Zn483 2.024 . S
O504 C484 1.249 . S
C505 O501 1.251 . S
C505 O502 1.254 . S
H506 C479 0.949 . S
H507 C481 0.950 . S
H508 C488 0.949 . S
H509 C490 0.950 . S
C510 O526 1.251 . S
C510 O528 1.254 . S
N511 C512 1.333 . S
N511 C516 1.307 . S
N511 Zn517 2.020 . S
C512 N511 1.333 . S
C512 C513 1.379 . S
C512 H530 0.952 . S
C513 C512 1.379 . S
C513 C514 1.390 . S
C513 H540 0.949 . S
C514 C513 1.390 . S
C514 C515 1.357 . S
C515 C514 1.357 . S
C515 C516 1.370 . S
C515 H541 0.950 . S
C516 N511 1.307 . S
C516 C515 1.370 . S
C516 H534 0.948 . S
Zn517 N511 2.020 . S
Zn517 O526 2.039 . S
Zn517 O532 2.034 . S
Zn517 O536 2.025 . S
Zn517 O538 2.024 . S
C518 O537 1.246 . S
C518 O538 1.249 . S
N519 C520 1.307 . S
N519 C521 1.333 . S
N519 Zn525 2.020 . S
C520 N519 1.307 . S
C520 C524 1.370 . S
C520 H531 0.948 . S
C521 N519 1.333 . S
C521 C522 1.379 . S
C521 H529 0.952 . S
C522 C521 1.379 . S
C522 C523 1.390 . S
C522 H542 0.949 . S
C523 C522 1.390 . S
C523 C524 1.357 . S
C524 C520 1.370 . S
C524 C523 1.357 . S
C524 H543 0.950 . S
Zn525 N519 2.020 . S
Zn525 O528 2.025 . S
Zn525 O533 2.024 . S
Zn525 O535 2.039 . S
Zn525 O537 2.034 . S
O526 C510 1.251 . S
O526 Zn517 2.039 . S
C527 O532 1.246 . S
C527 O533 1.249 . S
O528 C510 1.254 . S
O528 Zn525 2.025 . S
H529 C521 0.952 . S
H530 C512 0.952 . S
H531 C520 0.948 . S
O532 Zn517 2.034 . S
O532 C527 1.246 . S
O533 Zn525 2.024 . S
O533 C527 1.249 . S
H534 C516 0.948 . S
O535 Zn525 2.039 . S
O535 C539 1.251 . S
O536 Zn517 2.025 . S
O536 C539 1.254 . S
O537 C518 1.246 . S
O537 Zn525 2.034 . S
O538 Zn517 2.024 . S
O538 C518 1.249 . S
C539 O535 1.251 . S
C539 O536 1.254 . S
H540 C513 0.949 . S
H541 C515 0.950 . S
H542 C522 0.949 . S
H543 C524 0.950 . S
C544 C545 1.369 . S
C544 C546 1.419 . S
C544 H548 0.930 . S
C545 C544 1.369 . S
C545 C554 1.429 . S
C546 C544 1.419 . S
C546 C547 1.363 . S
C546 H549 0.929 . S
C547 C546 1.363 . S
C547 C553 1.428 . S
H548 C544 0.930 . S
H549 C546 0.929 . S
S550 N551 1.613 . S
S550 N552 1.610 . S
N551 S550 1.613 . S
N551 C554 1.350 . S
N552 S550 1.610 . S
N552 C553 1.351 . S
C553 C547 1.428 . S
C553 N552 1.351 . S
C553 C554 1.434 . S
C554 C545 1.429 . S
C554 N551 1.350 . S
C554 C553 1.434 . S
C555 C556 1.369 1_556 S
C555 C557 1.419 . S
C555 H559 0.930 . S
C556 C555 1.369 1_554 S
C556 C565 1.429 1_554 S
C557 C555 1.419 . S
C557 C558 1.363 . S
C557 H560 0.929 . S
C558 C557 1.363 . S
C558 C564 1.428 . S
H559 C555 0.930 . S
H560 C557 0.929 . S
S561 N562 1.613 . S
S561 N563 1.610 . S
N562 S561 1.613 . S
N562 C565 1.350 . S
N563 S561 1.610 . S
N563 C564 1.351 . S
C564 C558 1.428 . S
C564 N563 1.351 . S
C564 C565 1.434 . S
C565 C556 1.429 1_556 S
C565 N562 1.350 . S
C565 C564 1.434 . S
C566 C567 1.369 . S
C566 C568 1.419 1_554 S
C566 H570 0.930 . S
C567 C566 1.369 . S
C567 C576 1.429 . S
C568 C566 1.419 1_556 S
C568 C569 1.363 . S
C568 H571 0.929 . S
C569 C568 1.363 . S
C569 C575 1.428 . S
H570 C566 0.930 . S
H571 C568 0.929 . S
S572 N573 1.613 . S
S572 N574 1.610 1_554 S
N573 S572 1.613 . S
N573 C576 1.350 . S
N574 S572 1.610 1_556 S
N574 C575 1.351 . S
C575 C569 1.428 . S
C575 N574 1.351 . S
C575 C576 1.434 1_556 S
C576 C567 1.429 . S
C576 N573 1.350 . S
C576 C575 1.434 1_554 S
C577 C578 1.369 . S
C577 C579 1.419 . S
C577 H581 0.930 . S
C578 C577 1.369 . S
C578 C587 1.429 . S
C579 C577 1.419 . S
C579 C580 1.363 . S
C579 H582 0.929 . S
C580 C579 1.363 . S
C580 C586 1.428 . S
H581 C577 0.930 . S
H582 C579 0.929 . S
S583 N584 1.613 . S
S583 N585 1.610 . S
N584 S583 1.613 . S
N584 C587 1.350 . S
N585 S583 1.610 . S
N585 C586 1.351 . S
C586 C580 1.428 . S
C586 N585 1.351 . S
C586 C587 1.434 . S
C587 C578 1.429 . S
C587 N584 1.350 . S
C587 C586 1.434 . S
C588 C589 1.369 . S
C588 C590 1.419 . S
C588 H592 0.930 . S
C589 C588 1.369 . S
C589 C598 1.429 . S
C590 C588 1.419 . S
C590 C591 1.363 . S
C590 H593 0.929 . S
C591 C590 1.363 . S
C591 C597 1.428 . S
H592 C588 0.930 . S
H593 C590 0.929 . S
S594 N595 1.613 . S
S594 N596 1.610 . S
N595 S594 1.613 . S
N595 C598 1.350 . S
N596 S594 1.610 . S
N596 C597 1.351 . S
C597 C591 1.428 . S
C597 N596 1.351 . S
C597 C598 1.434 . S
C598 C589 1.429 . S
C598 N595 1.350 . S
C598 C597 1.434 . S
C599 C600 1.369 . S
C599 C601 1.419 . S
C599 H603 0.930 . S
C600 C599 1.369 . S
C600 C609 1.429 . S
C601 C599 1.419 . S
C601 C602 1.363 . S
C601 H604 0.929 . S
C602 C601 1.363 . S
C602 C608 1.428 . S
H603 C599 0.930 . S
H604 C601 0.929 . S
S605 N606 1.613 . S
S605 N607 1.610 . S
N606 S605 1.613 . S
N606 C609 1.350 . S
N607 S605 1.610 . S
N607 C608 1.351 . S
C608 C602 1.428 . S
C608 N607 1.351 . S
C608 C609 1.434 . S
C609 C600 1.429 . S
C609 N606 1.350 . S
C609 C608 1.434 . S
C610 C611 1.369 . S
C610 C612 1.419 . S
C610 H614 0.930 . S
C611 C610 1.369 . S
C611 C620 1.429 . S
C612 C610 1.419 . S
C612 C613 1.363 . S
C612 H615 0.929 . S
C613 C612 1.363 . S
C613 C619 1.428 . S
H614 C610 0.930 . S
H615 C612 0.929 . S
S616 N617 1.613 . S
S616 N618 1.610 . S
N617 S616 1.613 . S
N617 C620 1.350 . S
N618 S616 1.610 . S
N618 C619 1.351 . S
C619 C613 1.428 . S
C619 N618 1.351 . S
C619 C620 1.434 . S
C620 C611 1.429 . S
C620 N617 1.350 . S
C620 C619 1.434 . S
C621 C622 1.369 1_554 S
C621 C623 1.419 . S
C621 H625 0.930 1_554 S
C622 C621 1.369 1_556 S
C622 C631 1.429 1_556 S
C623 C621 1.419 . S
C623 C624 1.363 . S
C623 H626 0.929 . S
C624 C623 1.363 . S
C624 C630 1.428 . S
H625 C621 0.930 1_556 S
H626 C623 0.929 . S
S627 N628 1.613 1_554 S
S627 N629 1.610 . S
N628 S627 1.613 1_556 S
N628 C631 1.350 1_556 S
N629 S627 1.610 . S
N629 C630 1.351 . S
C630 C624 1.428 . S
C630 N629 1.351 . S
C630 C631 1.434 . S
C631 C622 1.429 1_554 S
C631 N628 1.350 1_554 S
C631 C630 1.434 . S
C632 C633 1.369 . S
C632 C634 1.419 . S
C632 H636 0.930 . S
C633 C632 1.369 . S
C633 C642 1.429 . S
C634 C632 1.419 . S
C634 C635 1.363 . S
C634 H637 0.929 . S
C635 C634 1.363 . S
C635 C641 1.428 . S
H636 C632 0.930 . S
H637 C634 0.929 . S
S638 N639 1.613 . S
S638 N640 1.610 . S
N639 S638 1.613 . S
N639 C642 1.350 . S
N640 S638 1.610 . S
N640 C641 1.351 . S
C641 C635 1.428 . S
C641 N640 1.351 . S
C641 C642 1.434 . S
C642 C633 1.429 . S
C642 N639 1.350 . S
C642 C641 1.434 . S
C643 C644 1.369 . S
C643 C645 1.419 1_554 S
C643 H647 0.930 . S
C644 C643 1.369 . S
C644 C653 1.429 . S
C645 C643 1.419 1_556 S
C645 C646 1.363 . S
C645 H648 0.929 . S
C646 C645 1.363 . S
C646 C652 1.428 . S
H647 C643 0.930 . S
H648 C645 0.929 . S
S649 N650 1.613 . S
S649 N651 1.610 1_554 S
N650 S649 1.613 . S
N650 C653 1.350 . S
N651 S649 1.610 1_556 S
N651 C652 1.351 . S
C652 C646 1.428 . S
C652 N651 1.351 . S
C652 C653 1.434 1_556 S
C653 C644 1.429 . S
C653 N650 1.350 . S
C653 C652 1.434 1_554 S
C654 C655 1.369 . S
C654 C656 1.419 . S
C654 H658 0.930 . S
C655 C654 1.369 . S
C655 C664 1.429 . S
C656 C654 1.419 . S
C656 C657 1.363 . S
C656 H659 0.929 . S
C657 C656 1.363 . S
C657 C663 1.428 . S
H658 C654 0.930 . S
H659 C656 0.929 . S
S660 N661 1.613 . S
S660 N662 1.610 . S
N661 S660 1.613 . S
N661 C664 1.350 . S
N662 S660 1.610 . S
N662 C663 1.351 . S
C663 C657 1.428 . S
C663 N662 1.351 . S
C663 C664 1.434 . S
C664 C655 1.429 . S
C664 N661 1.350 . S
C664 C663 1.434 . S
C665 C666 1.369 . S
C665 C667 1.419 . S
C665 H669 0.930 . S
C666 C665 1.369 . S
C666 C675 1.429 . S
C667 C665 1.419 . S
C667 C668 1.363 . S
C667 H670 0.929 . S
C668 C667 1.363 . S
C668 C674 1.428 . S
H669 C665 0.930 . S
H670 C667 0.929 . S
S671 N672 1.613 . S
S671 N673 1.610 . S
N672 S671 1.613 . S
N672 C675 1.350 . S
N673 S671 1.610 . S
N673 C674 1.351 . S
C674 C668 1.428 . S
C674 N673 1.351 . S
C674 C675 1.434 . S
C675 C666 1.429 . S
C675 N672 1.350 . S
C675 C674 1.434 . S
C676 C677 1.369 . S
C676 C678 1.419 . S
C676 H680 0.930 . S
C677 C676 1.369 . S
C677 C686 1.429 . S
C678 C676 1.419 . S
C678 C679 1.363 . S
C678 H681 0.929 . S
C679 C678 1.363 . S
C679 C685 1.428 . S
H680 C676 0.930 . S
H681 C678 0.929 . S
S682 N683 1.613 . S
S682 N684 1.610 . S
N683 S682 1.613 . S
N683 C686 1.350 . S
N684 S682 1.610 . S
N684 C685 1.351 . S
C685 C679 1.428 . S
C685 N684 1.351 . S
C685 C686 1.434 . S
C686 C677 1.429 . S
C686 N683 1.350 . S
C686 C685 1.434 . S
C687 C688 1.369 . S
C687 C689 1.419 . S
C687 H691 0.930 . S
C688 C687 1.369 . S
C688 C697 1.429 . S
C689 C687 1.419 . S
C689 C690 1.363 . S
C689 H692 0.929 . S
C690 C689 1.363 . S
C690 C696 1.428 . S
H691 C687 0.930 . S
H692 C689 0.929 . S
S693 N694 1.613 . S
S693 N695 1.610 . S
N694 S693 1.613 . S
N694 C697 1.350 . S
N695 S693 1.610 . S
N695 C696 1.351 . S
C696 C690 1.428 . S
C696 N695 1.351 . S
C696 C697 1.434 . S
C697 C688 1.429 . S
C697 N694 1.350 . S
C697 C696 1.434 . S
C698 C699 1.369 . S
C698 C700 1.419 . S
C698 H702 0.930 . S
C699 C698 1.369 . S
C699 C708 1.429 . S
C700 C698 1.419 . S
C700 C701 1.363 1_554 S
C700 H703 0.929 1_554 S
C701 C700 1.363 1_556 S
C701 C707 1.428 1_556 S
H702 C698 0.930 . S
H703 C700 0.929 1_556 S
S704 N705 1.613 . S
S704 N706 1.610 1_554 S
N705 S704 1.613 . S
N705 C708 1.350 . S
N706 S704 1.610 1_556 S
N706 C707 1.351 1_556 S
C707 C701 1.428 1_554 S
C707 N706 1.351 1_554 S
C707 C708 1.434 . S
C708 C699 1.429 . S
C708 N705 1.350 . S
C708 C707 1.434 . S
C709 C710 1.369 1_556 S
C709 C711 1.419 . S
C709 H713 0.930 . S
C710 C709 1.369 1_554 S
C710 C719 1.429 1_554 S
C711 C709 1.419 . S
C711 C712 1.363 . S
C711 H714 0.929 . S
C712 C711 1.363 . S
C712 C718 1.428 . S
H713 C709 0.930 . S
H714 C711 0.929 . S
S715 N716 1.613 1_556 S
S715 N717 1.610 . S
N716 S715 1.613 1_554 S
N716 C719 1.350 1_554 S
N717 S715 1.610 . S
N717 C718 1.351 . S
C718 C712 1.428 . S
C718 N717 1.351 . S
C718 C719 1.434 . S
C719 C710 1.429 1_556 S
C719 N716 1.350 1_556 S
C719 C718 1.434 . S
C720 C721 1.369 . S
C720 C722 1.419 . S
C720 H724 0.930 . S
C721 C720 1.369 . S
C721 C730 1.429 . S
C722 C720 1.419 . S
C722 C723 1.363 . S
C722 H725 0.929 . S
C723 C722 1.363 . S
C723 C729 1.428 . S
H724 C720 0.930 . S
H725 C722 0.929 . S
S726 N727 1.613 . S
S726 N728 1.610 . S
N727 S726 1.613 . S
N727 C730 1.350 . S
N728 S726 1.610 . S
N728 C729 1.351 . S
C729 C723 1.428 . S
C729 N728 1.351 . S
C729 C730 1.434 . S
C730 C721 1.429 . S
C730 N727 1.350 . S
C730 C729 1.434 . S
C731 C732 1.369 . S
C731 C733 1.419 . S
C731 H735 0.930 . S
C732 C731 1.369 . S
C732 C741 1.429 . S
C733 C731 1.419 . S
C733 C734 1.363 . S
C733 H736 0.929 . S
C734 C733 1.363 . S
C734 C740 1.428 . S
H735 C731 0.930 . S
H736 C733 0.929 . S
S737 N738 1.613 . S
S737 N739 1.610 . S
N738 S737 1.613 . S
N738 C741 1.350 . S
N739 S737 1.610 . S
N739 C740 1.351 . S
C740 C734 1.428 . S
C740 N739 1.351 . S
C740 C741 1.434 . S
C741 C732 1.429 . S
C741 N738 1.350 . S
C741 C740 1.434 . S
C742 C743 1.369 . S
C742 C744 1.419 . S
C742 H746 0.930 . S
C743 C742 1.369 . S
C743 C752 1.429 . S
C744 C742 1.419 . S
C744 C745 1.363 . S
C744 H747 0.929 . S
C745 C744 1.363 . S
C745 C751 1.428 . S
H746 C742 0.930 . S
H747 C744 0.929 . S
S748 N749 1.613 . S
S748 N750 1.610 . S
N749 S748 1.613 . S
N749 C752 1.350 . S
N750 S748 1.610 . S
N750 C751 1.351 . S
C751 C745 1.428 . S
C751 N750 1.351 . S
C751 C752 1.434 . S
C752 C743 1.429 . S
C752 N749 1.350 . S
C752 C751 1.434 . S
C753 C754 1.369 . S
C753 C755 1.419 . S
C753 H757 0.930 . S
C754 C753 1.369 . S
C754 C763 1.429 . S
C755 C753 1.419 . S
C755 C756 1.363 . S
C755 H758 0.929 . S
C756 C755 1.363 . S
C756 C762 1.428 . S
H757 C753 0.930 . S
H758 C755 0.929 . S
S759 N760 1.613 . S
S759 N761 1.610 . S
N760 S759 1.613 . S
N760 C763 1.350 . S
N761 S759 1.610 . S
N761 C762 1.351 . S
C762 C756 1.428 . S
C762 N761 1.351 . S
C762 C763 1.434 . S
C763 C754 1.429 . S
C763 N760 1.350 . S
C763 C762 1.434 . S
C764 C765 1.369 . S
C764 C766 1.419 . S
C764 H768 0.930 1_556 S
C765 C764 1.369 . S
C765 C774 1.429 . S
C766 C764 1.419 . S
C766 C767 1.363 . S
C766 H769 0.929 1_556 S
C767 C766 1.363 . S
C767 C773 1.428 . S
H768 C764 0.930 1_554 S
H769 C766 0.929 1_554 S
S770 N771 1.613 . S
S770 N772 1.610 . S
N771 S770 1.613 . S
N771 C774 1.350 . S
N772 S770 1.610 . S
N772 C773 1.351 . S
C773 C767 1.428 . S
C773 N772 1.351 . S
C773 C774 1.434 . S
C774 C765 1.429 . S
C774 N771 1.350 . S
C774 C773 1.434 . S
C775 C776 1.369 1_655 S
C775 C777 1.419 . S
C775 H779 0.930 . S
C776 C775 1.369 1_455 S
C776 C785 1.429 . S
C777 C775 1.419 . S
C777 C778 1.363 . S
C777 H780 0.929 . S
C778 C777 1.363 . S
C778 C784 1.428 . S
H779 C775 0.930 . S
H780 C777 0.929 . S
S781 N782 1.613 . S
S781 N783 1.610 1_455 S
N782 S781 1.613 . S
N782 C785 1.350 . S
N783 S781 1.610 1_655 S
N783 C784 1.351 . S
C784 C778 1.428 . S
C784 N783 1.351 . S
C784 C785 1.434 1_655 S
C785 C776 1.429 . S
C785 N782 1.350 . S
C785 C784 1.434 1_455 S
C786 C787 1.369 . S
C786 C788 1.419 . S
C786 H790 0.930 . S
C787 C786 1.369 . S
C787 C796 1.429 . S
C788 C786 1.419 . S
C788 C789 1.363 . S
C788 H791 0.929 . S
C789 C788 1.363 . S
C789 C795 1.428 . S
H790 C786 0.930 . S
H791 C788 0.929 . S
S792 N793 1.613 . S
S792 N794 1.610 . S
N793 S792 1.613 . S
N793 C796 1.350 . S
N794 S792 1.610 . S
N794 C795 1.351 . S
C795 C789 1.428 . S
C795 N794 1.351 . S
C795 C796 1.434 . S
C796 C787 1.429 . S
C796 N793 1.350 . S
C796 C795 1.434 . S
C797 C798 1.369 . S
C797 C799 1.419 . S
C797 H801 0.930 . S
C798 C797 1.369 . S
C798 C807 1.429 . S
C799 C797 1.419 . S
C799 C800 1.363 . S
C799 H802 0.929 . S
C800 C799 1.363 . S
C800 C806 1.428 . S
H801 C797 0.930 . S
H802 C799 0.929 . S
S803 N804 1.613 . S
S803 N805 1.610 . S
N804 S803 1.613 . S
N804 C807 1.350 . S
N805 S803 1.610 . S
N805 C806 1.351 . S
C806 C800 1.428 . S
C806 N805 1.351 . S
C806 C807 1.434 . S
C807 C798 1.429 . S
C807 N804 1.350 . S
C807 C806 1.434 . S
C808 C809 1.369 . S
C808 C810 1.419 . S
C808 H812 0.930 . S
C809 C808 1.369 . S
C809 C818 1.429 . S
C810 C808 1.419 . S
C810 C811 1.363 . S
C810 H813 0.929 . S
C811 C810 1.363 . S
C811 C817 1.428 . S
H812 C808 0.930 . S
H813 C810 0.929 . S
S814 N815 1.613 . S
S814 N816 1.610 . S
N815 S814 1.613 . S
N815 C818 1.350 . S
N816 S814 1.610 . S
N816 C817 1.351 . S
C817 C811 1.428 . S
C817 N816 1.351 . S
C817 C818 1.434 . S
C818 C809 1.429 . S
C818 N815 1.350 . S
C818 C817 1.434 . S
C819 C820 1.369 . S
C819 C821 1.419 . S
C819 H823 0.930 . S
C820 C819 1.369 . S
C820 C829 1.429 . S
C821 C819 1.419 . S
C821 C822 1.363 . S
C821 H824 0.929 . S
C822 C821 1.363 . S
C822 C828 1.428 . S
H823 C819 0.930 . S
H824 C821 0.929 . S
S825 N826 1.613 . S
S825 N827 1.610 . S
N826 S825 1.613 . S
N826 C829 1.350 . S
N827 S825 1.610 . S
N827 C828 1.351 . S
C828 C822 1.428 . S
C828 N827 1.351 . S
C828 C829 1.434 . S
C829 C820 1.429 . S
C829 N826 1.350 . S
C829 C828 1.434 . S
C830 C831 1.369 . S
C830 C832 1.419 . S
C830 H834 0.930 . S
C831 C830 1.369 . S
C831 C840 1.429 . S
C832 C830 1.419 . S
C832 C833 1.363 . S
C832 H835 0.929 . S
C833 C832 1.363 . S
C833 C839 1.428 . S
H834 C830 0.930 . S
H835 C832 0.929 . S
S836 N837 1.613 . S
S836 N838 1.610 . S
N837 S836 1.613 . S
N837 C840 1.350 . S
N838 S836 1.610 . S
N838 C839 1.351 . S
C839 C833 1.428 . S
C839 N838 1.351 . S
C839 C840 1.434 . S
C840 C831 1.429 . S
C840 N837 1.350 . S
C840 C839 1.434 . S
C841 C842 1.369 . S
C841 C843 1.419 . S
C841 H845 0.930 . S
C842 C841 1.369 . S
C842 C851 1.429 . S
C843 C841 1.419 . S
C843 C844 1.363 . S
C843 H846 0.929 . S
C844 C843 1.363 . S
C844 C850 1.428 . S
H845 C841 0.930 . S
H846 C843 0.929 . S
S847 N848 1.613 . S
S847 N849 1.610 . S
N848 S847 1.613 . S
N848 C851 1.350 . S
N849 S847 1.610 . S
N849 C850 1.351 . S
C850 C844 1.428 . S
C850 N849 1.351 . S
C850 C851 1.434 . S
C851 C842 1.429 . S
C851 N848 1.350 . S
C851 C850 1.434 . S
C852 C853 1.369 . S
C852 C854 1.419 . S
C852 H856 0.930 . S
C853 C852 1.369 . S
C853 C862 1.429 . S
C854 C852 1.419 . S
C854 C855 1.363 . S
C854 H857 0.929 . S
C855 C854 1.363 . S
C855 C861 1.428 . S
H856 C852 0.930 . S
H857 C854 0.929 . S
S858 N859 1.613 1_455 S
S858 N860 1.610 . S
N859 S858 1.613 1_655 S
N859 C862 1.350 1_554 S
N860 S858 1.610 . S
N860 C861 1.351 1_454 S
C861 C855 1.428 . S
C861 N860 1.351 1_656 S
C861 C862 1.434 . S
C862 C853 1.429 . S
C862 N859 1.350 1_556 S
C862 C861 1.434 . S
C863 C864 1.369 . S
C863 C865 1.419 . S
C863 H867 0.930 . S
C864 C863 1.369 . S
C864 C873 1.429 . S
C865 C863 1.419 . S
C865 C866 1.363 . S
C865 H868 0.929 . S
C866 C865 1.363 . S
C866 C872 1.428 . S
H867 C863 0.930 . S
H868 C865 0.929 . S
S869 N870 1.613 . S
S869 N871 1.610 . S
N870 S869 1.613 . S
N870 C873 1.350 . S
N871 S869 1.610 . S
N871 C872 1.351 . S
C872 C866 1.428 . S
C872 N871 1.351 . S
C872 C873 1.434 . S
C873 C864 1.429 . S
C873 N870 1.350 . S
C873 C872 1.434 . S
C874 C875 1.369 . S
C874 C876 1.419 . S
C874 H878 0.930 . S
C875 C874 1.369 . S
C875 C884 1.429 . S
C876 C874 1.419 . S
C876 C877 1.363 . S
C876 H879 0.929 . S
C877 C876 1.363 . S
C877 C883 1.428 . S
H878 C874 0.930 . S
H879 C876 0.929 . S
S880 N881 1.613 . S
S880 N882 1.610 . S
N881 S880 1.613 . S
N881 C884 1.350 . S
N882 S880 1.610 . S
N882 C883 1.351 . S
C883 C877 1.428 . S
C883 N882 1.351 . S
C883 C884 1.434 . S
C884 C875 1.429 . S
C884 N881 1.350 . S
C884 C883 1.434 . S
C885 C886 1.369 . S
C885 C887 1.419 . S
C885 H889 0.930 1_554 S
C886 C885 1.369 . S
C886 C895 1.429 . S
C887 C885 1.419 . S
C887 C888 1.363 1_455 S
C887 H890 0.929 1_554 S
C888 C887 1.363 1_655 S
C888 C894 1.428 1_655 S
H889 C885 0.930 1_556 S
H890 C887 0.929 1_556 S
S891 N892 1.613 . S
S891 N893 1.610 1_455 S
N892 S891 1.613 . S
N892 C895 1.350 . S
N893 S891 1.610 1_655 S
N893 C894 1.351 1_655 S
C894 C888 1.428 1_455 S
C894 N893 1.351 1_455 S
C894 C895 1.434 . S
C895 C886 1.429 . S
C895 N892 1.350 . S
C895 C894 1.434 . S
C896 C897 1.369 . S
C896 C898 1.419 1_554 S
C896 H900 0.930 . S
C897 C896 1.369 . S
C897 C906 1.429 . S
C898 C896 1.419 1_556 S
C898 C899 1.363 . S
C898 H901 0.929 . S
C899 C898 1.363 . S
C899 C905 1.428 1_556 S
H900 C896 0.930 . S
H901 C898 0.929 . S
S902 N903 1.613 . S
S902 N904 1.610 . S
N903 S902 1.613 . S
N903 C906 1.350 . S
N904 S902 1.610 . S
N904 C905 1.351 . S
C905 C899 1.428 1_554 S
C905 N904 1.351 . S
C905 C906 1.434 . S
C906 C897 1.429 . S
C906 N903 1.350 . S
C906 C905 1.434 . S
C907 C908 1.369 . S
C907 C909 1.419 . S
C907 H911 0.930 . S
C908 C907 1.369 . S
C908 C917 1.429 . S
C909 C907 1.419 . S
C909 C910 1.363 . S
C909 H912 0.929 . S
C910 C909 1.363 . S
C910 C916 1.428 . S
H911 C907 0.930 . S
H912 C909 0.929 . S
S913 N914 1.613 . S
S913 N915 1.610 . S
N914 S913 1.613 . S
N914 C917 1.350 . S
N915 S913 1.610 . S
N915 C916 1.351 . S
C916 C910 1.428 . S
C916 N915 1.351 . S
C916 C917 1.434 . S
C917 C908 1.429 . S
C917 N914 1.350 . S
C917 C916 1.434 . S
C918 C919 1.369 . S
C918 C920 1.419 . S
C918 H922 0.930 . S
C919 C918 1.369 . S
C919 C928 1.429 . S
C920 C918 1.419 . S
C920 C921 1.363 . S
C920 H923 0.929 . S
C921 C920 1.363 . S
C921 C927 1.428 . S
H922 C918 0.930 . S
H923 C920 0.929 . S
S924 N925 1.613 . S
S924 N926 1.610 . S
N925 S924 1.613 . S
N925 C928 1.350 . S
N926 S924 1.610 . S
N926 C927 1.351 . S
C927 C921 1.428 . S
C927 N926 1.351 . S
C927 C928 1.434 . S
C928 C919 1.429 . S
C928 N925 1.350 . S
C928 C927 1.434 . S
C929 C930 1.369 . S
C929 C931 1.419 . S
C929 H933 0.930 . S
C930 C929 1.369 . S
C930 C939 1.429 . S
C931 C929 1.419 . S
C931 C932 1.363 . S
C931 H934 0.929 . S
C932 C931 1.363 . S
C932 C938 1.428 . S
H933 C929 0.930 . S
H934 C931 0.929 . S
S935 N936 1.613 . S
S935 N937 1.610 . S
N936 S935 1.613 . S
N936 C939 1.350 . S
N937 S935 1.610 . S
N937 C938 1.351 . S
C938 C932 1.428 . S
C938 N937 1.351 . S
C938 C939 1.434 . S
C939 C930 1.429 . S
C939 N936 1.350 . S
C939 C938 1.434 . S
C940 C941 1.369 1_556 S
C940 C942 1.419 . S
C940 H944 0.930 . S
C941 C940 1.369 1_554 S
C941 C950 1.429 . S
C942 C940 1.419 . S
C942 C943 1.363 . S
C942 H945 0.929 . S
C943 C942 1.363 . S
C943 C949 1.428 1_556 S
H944 C940 0.930 . S
H945 C942 0.929 . S
S946 N947 1.613 . S
S946 N948 1.610 . S
N947 S946 1.613 . S
N947 C950 1.350 . S
N948 S946 1.610 . S
N948 C949 1.351 . S
C949 C943 1.428 1_554 S
C949 N948 1.351 . S
C949 C950 1.434 . S
C950 C941 1.429 . S
C950 N947 1.350 . S
C950 C949 1.434 . S
C951 C952 1.369 . S
C951 C953 1.419 . S
C951 H955 0.930 . S
C952 C951 1.369 . S
C952 C961 1.429 . S
C953 C951 1.419 . S
C953 C954 1.363 . S
C953 H956 0.929 . S
C954 C953 1.363 . S
C954 C960 1.428 . S
H955 C951 0.930 . S
H956 C953 0.929 . S
S957 N958 1.613 . S
S957 N959 1.610 . S
N958 S957 1.613 . S
N958 C961 1.350 . S
N959 S957 1.610 . S
N959 C960 1.351 . S
C960 C954 1.428 . S
C960 N959 1.351 . S
C960 C961 1.434 . S
C961 C952 1.429 . S
C961 N958 1.350 . S
C961 C960 1.434 . S
C962 C963 1.369 . S
C962 C964 1.419 . S
C962 H966 0.930 . S
C963 C962 1.369 . S
C963 C972 1.429 . S
C964 C962 1.419 . S
C964 C965 1.363 . S
C964 H967 0.929 . S
C965 C964 1.363 . S
C965 C971 1.428 . S
H966 C962 0.930 . S
H967 C964 0.929 . S
S968 N969 1.613 . S
S968 N970 1.610 . S
N969 S968 1.613 . S
N969 C972 1.350 . S
N970 S968 1.610 . S
N970 C971 1.351 . S
C971 C965 1.428 . S
C971 N970 1.351 . S
C971 C972 1.434 . S
C972 C963 1.429 . S
C972 N969 1.350 . S
C972 C971 1.434 . S
C973 C974 1.369 . S
C973 C975 1.419 . S
C973 H977 0.930 . S
C974 C973 1.369 . S
C974 C983 1.429 . S
C975 C973 1.419 . S
C975 C976 1.363 . S
C975 H978 0.929 . S
C976 C975 1.363 . S
C976 C982 1.428 . S
H977 C973 0.930 . S
H978 C975 0.929 . S
S979 N980 1.613 . S
S979 N981 1.610 . S
N980 S979 1.613 . S
N980 C983 1.350 . S
N981 S979 1.610 . S
N981 C982 1.351 . S
C982 C976 1.428 . S
C982 N981 1.351 . S
C982 C983 1.434 . S
C983 C974 1.429 . S
C983 N980 1.350 . S
C983 C982 1.434 . S
C984 C985 1.369 1_545 S
C984 C986 1.419 . S
C984 H988 0.930 1_545 S
C985 C984 1.369 1_565 S
C985 C994 1.429 1_565 S
C986 C984 1.419 . S
C986 C987 1.363 . S
C986 H989 0.929 . S
C987 C986 1.363 . S
C987 C993 1.428 . S
H988 C984 0.930 1_565 S
H989 C986 0.929 . S
S990 N991 1.613 . S
S990 N992 1.610 . S
N991 S990 1.613 . S
N991 C994 1.350 . S
N992 S990 1.610 . S
N992 C993 1.351 . S
C993 C987 1.428 . S
C993 N992 1.351 . S
C993 C994 1.434 . S
C994 C985 1.429 1_545 S
C994 N991 1.350 . S
C994 C993 1.434 . S
C995 C996 1.369 . S
C995 C997 1.419 . S
C995 H999 0.930 . S
C996 C995 1.369 . S
C996 C1005 1.429 . S
C997 C995 1.419 . S
C997 C998 1.363 . S
C997 H1000 0.929 . S
C998 C997 1.363 . S
C998 C1004 1.428 . S
H999 C995 0.930 . S
H1000 C997 0.929 . S
S1001 N1002 1.613 . S
S1001 N1003 1.610 . S
N1002 S1001 1.613 . S
N1002 C1005 1.350 . S
N1003 S1001 1.610 . S
N1003 C1004 1.351 . S
C1004 C998 1.428 . S
C1004 N1003 1.351 . S
C1004 C1005 1.434 . S
C1005 C996 1.429 . S
C1005 N1002 1.350 . S
C1005 C1004 1.434 . S
C1006 C1007 1.369 . S
C1006 C1008 1.419 . S
C1006 H1010 0.930 . S
C1007 C1006 1.369 . S
C1007 C1016 1.429 1_554 S
C1008 C1006 1.419 . S
C1008 C1009 1.363 1_554 S
C1008 H1011 0.929 . S
C1009 C1008 1.363 1_556 S
C1009 C1015 1.428 . S
H1010 C1006 0.930 . S
H1011 C1008 0.929 . S
S1012 N1013 1.613 . S
S1012 N1014 1.610 . S
N1013 S1012 1.613 . S
N1013 C1016 1.350 . S
N1014 S1012 1.610 . S
N1014 C1015 1.351 . S
C1015 C1009 1.428 . S
C1015 N1014 1.351 . S
C1015 C1016 1.434 . S
C1016 C1007 1.429 1_556 S
C1016 N1013 1.350 . S
C1016 C1015 1.434 . S
C1017 C1018 1.369 . S
C1017 C1019 1.419 . S
C1017 H1021 0.930 . S
C1018 C1017 1.369 . S
C1018 C1027 1.429 . S
C1019 C1017 1.419 . S
C1019 C1020 1.363 . S
C1019 H1022 0.929 . S
C1020 C1019 1.363 . S
C1020 C1026 1.428 . S
H1021 C1017 0.930 . S
H1022 C1019 0.929 . S
S1023 N1024 1.613 . S
S1023 N1025 1.610 . S
N1024 S1023 1.613 . S
N1024 C1027 1.350 . S
N1025 S1023 1.610 . S
N1025 C1026 1.351 . S
C1026 C1020 1.428 . S
C1026 N1025 1.351 . S
C1026 C1027 1.434 . S
C1027 C1018 1.429 . S
C1027 N1024 1.350 . S
C1027 C1026 1.434 . S
C1028 C1029 1.369 . S
C1028 C1030 1.419 . S
C1028 H1032 0.930 . S
C1029 C1028 1.369 . S
C1029 C1038 1.429 . S
C1030 C1028 1.419 . S
C1030 C1031 1.363 . S
C1030 H1033 0.929 . S
C1031 C1030 1.363 . S
C1031 C1037 1.428 . S
H1032 C1028 0.930 . S
H1033 C1030 0.929 . S
S1034 N1035 1.613 . S
S1034 N1036 1.610 . S
N1035 S1034 1.613 . S
N1035 C1038 1.350 . S
N1036 S1034 1.610 . S
N1036 C1037 1.351 . S
C1037 C1031 1.428 . S
C1037 N1036 1.351 . S
C1037 C1038 1.434 . S
C1038 C1029 1.429 . S
C1038 N1035 1.350 . S
C1038 C1037 1.434 . S
C1039 C1040 1.369 . S
C1039 C1041 1.419 . S
C1039 H1043 0.930 . S
C1040 C1039 1.369 . S
C1040 C1049 1.429 . S
C1041 C1039 1.419 . S
C1041 C1042 1.363 . S
C1041 H1044 0.929 . S
C1042 C1041 1.363 . S
C1042 C1048 1.428 . S
H1043 C1039 0.930 . S
H1044 C1041 0.929 . S
S1045 N1046 1.613 . S
S1045 N1047 1.610 . S
N1046 S1045 1.613 . S
N1046 C1049 1.350 . S
N1047 S1045 1.610 . S
N1047 C1048 1.351 . S
C1048 C1042 1.428 . S
C1048 N1047 1.351 . S
C1048 C1049 1.434 . S
C1049 C1040 1.429 . S
C1049 N1046 1.350 . S
C1049 C1048 1.434 . S
C1050 C1051 1.369 . S
C1050 C1052 1.419 . S
C1050 H1054 0.930 . S
C1051 C1050 1.369 . S
C1051 C1060 1.429 1_556 S
C1052 C1050 1.419 . S
C1052 C1053 1.363 1_556 S
C1052 H1055 0.929 . S
C1053 C1052 1.363 1_554 S
C1053 C1059 1.428 . S
H1054 C1050 0.930 . S
H1055 C1052 0.929 . S
S1056 N1057 1.613 . S
S1056 N1058 1.610 . S
N1057 S1056 1.613 . S
N1057 C1060 1.350 . S
N1058 S1056 1.610 . S
N1058 C1059 1.351 . S
C1059 C1053 1.428 . S
C1059 N1058 1.351 . S
C1059 C1060 1.434 . S
C1060 C1051 1.429 1_554 S
C1060 N1057 1.350 . S
C1060 C1059 1.434 . S
C1061 C1062 1.369 . S
C1061 C1063 1.419 . S
C1061 H1065 0.930 . S
C1062 C1061 1.369 . S
C1062 C1071 1.429 . S
C1063 C1061 1.419 . S
C1063 C1064 1.363 . S
C1063 H1066 0.929 . S
C1064 C1063 1.363 . S
C1064 C1070 1.428 . S
H1065 C1061 0.930 . S
H1066 C1063 0.929 . S
S1067 N1068 1.613 . S
S1067 N1069 1.610 . S
N1068 S1067 1.613 . S
N1068 C1071 1.350 . S
N1069 S1067 1.610 . S
N1069 C1070 1.351 . S
C1070 C1064 1.428 . S
C1070 N1069 1.351 . S
C1070 C1071 1.434 . S
C1071 C1062 1.429 . S
C1071 N1068 1.350 . S
C1071 C1070 1.434 . S
C545 C29 1.369 . S
C547 C0 1.369 . S
C556 C63 1.369 . S
C558 C34 1.368 . S
C567 C68 1.371 . S
C569 C97 1.371 . S
C578 C102 1.371 . S
C580 C131 1.370 . S
C589 C136 1.371 . S
C591 C165 1.371 . S
C600 C199 1.369 . S
C602 C170 1.370 . S
C611 C233 1.370 . S
C613 C204 1.369 1_556 S
C622 C267 1.370 . S
C624 C238 1.371 . S
C633 C301 1.369 . S
C635 C272 1.370 . S
C644 C335 1.371 . S
C646 C306 1.371 . S
C655 C369 1.369 1_556 S
C657 C340 1.369 . S
C666 C403 1.370 . S
C668 C374 1.370 . S
C677 C437 1.368 . S
C679 C408 1.368 . S
C688 C442 1.372 . S
C690 C471 1.371 . S
C699 C476 1.371 . S
C701 C505 1.371 . S
C710 C510 1.368 . S
C712 C539 1.369 . S
C721 C4 1.207 . S
C723 C387 1.207 . S
C732 C38 1.423 . S
C734 C523 1.422 . S
C743 C85 2.315 . S
C745 C314 2.325 . S
C754 C119 0.995 . S
C756 C455 0.989 . S
C765 C153 1.499 . S
C767 C450 1.488 . S
C776 C382 2.283 . S
C778 C187 2.256 . S
C787 C208 2.193 . S
C789 C518 2.205 . S
C798 C242 1.060 . S
C800 C319 1.074 . S
C809 C106 1.157 . S
C811 C280 1.162 . S
C820 C51 1.563 . S
C822 C353 1.531 . S
C831 C416 1.586 . S
C833 C174 1.559 . S
C842 C255 1.327 . S
C844 C489 1.313 . S
C853 C285 1.116 . S
C855 C140 1.119 1_655 S
C864 C221 3.114 . S
C866 C348 3.103 . S
C875 C72 1.072 . S
C877 C484 1.088 . S
C886 C17 2.351 . S
C888 C421 2.339 . S
C897 C13 1.310 . S
C899 C144 1.326 . S
C908 C47 1.854 . S
C910 C178 1.851 . S
C919 C76 2.301 . S
C921 C217 2.303 . S
C930 C110 1.343 . S
C932 C251 1.326 . S
C941 C425 1.918 . S
C943 C289 1.894 . S
C952 C446 1.338 . S
C954 C310 1.334 . S
C963 C344 1.165 . S
C965 C480 1.168 . S
C974 C514 1.791 . S
C976 C391 1.786 . S
C985 C42 1.762 . S
C987 C246 1.757 . S
C996 C149 1.243 . S
C998 C81 1.235 . S
C1007 C183 1.152 1_545 S
C1009 C115 1.157 . S
C1018 C8 3.064 . S
C1020 C212 3.070 . S
C1029 C527 2.195 1_545 S
C1031 C323 2.204 . S
C1040 C412 2.323 . S
C1042 C357 2.326 . S
C1051 C459 1.725 . S
C1053 C378 1.725 . S
C1062 C493 1.497 . S
C1064 C276 1.461 . S
