# Generated by pormake.
# Topology xfg, (7)-cn, num edge types: 1
# Building blocks:
#     Node 0, Type 0, BuildingBlock: NUHQUE_clean_sbu_2, # of connection points: 7
#     Node 1, Type 0, BuildingBlock: NUHQUE_clean_sbu_2, # of connection points: 7
#     Node 2, Type 0, BuildingBlock: NUHQUE_clean_sbu_2, # of connection points: 7
#     Node 3, Type 0, BuildingBlock: NUHQUE_clean_sbu_2, # of connection points: 7
#     Node 4, Type 0, BuildingBlock: NUHQUE_clean_sbu_2, # of connection points: 7
#     Node 5, Type 0, BuildingBlock: NUHQUE_clean_sbu_2, # of connection points: 7
#     Node 6, Type 0, BuildingBlock: NUHQUE_clean_sbu_2, # of connection points: 7
#     Node 7, Type 0, BuildingBlock: NUHQUE_clean_sbu_2, # of connection points: 7
#     Node 8, Type 0, BuildingBlock: NUHQUE_clean_sbu_2, # of connection points: 7
#     Node 9, Type 0, BuildingBlock: NUHQUE_clean_sbu_2, # of connection points: 7
#     Node 10, Type 0, BuildingBlock: NUHQUE_clean_sbu_2, # of connection points: 7
#     Node 11, Type 0, BuildingBlock: NUHQUE_clean_sbu_2, # of connection points: 7
#     Node 12, Type 0, BuildingBlock: NUHQUE_clean_sbu_2, # of connection points: 7
#     Node 13, Type 0, BuildingBlock: NUHQUE_clean_sbu_2, # of connection points: 7
#     Node 14, Type 0, BuildingBlock: NUHQUE_clean_sbu_2, # of connection points: 7
#     Node 15, Type 0, BuildingBlock: NUHQUE_clean_sbu_2, # of connection points: 7
#     Edge 16, Type (0, 0), BuildingBlock: KIFKEQ_clean_linker_1, # of connection points: 2
#     Edge 17, Type (0, 0), BuildingBlock: KIFKEQ_clean_linker_1, # of connection points: 2
#     Edge 18, Type (0, 0), BuildingBlock: KIFKEQ_clean_linker_1, # of connection points: 2
#     Edge 19, Type (0, 0), BuildingBlock: KIFKEQ_clean_linker_1, # of connection points: 2
#     Edge 20, Type (0, 0), BuildingBlock: KIFKEQ_clean_linker_1, # of connection points: 2
#     Edge 21, Type (0, 0), BuildingBlock: KIFKEQ_clean_linker_1, # of connection points: 2
#     Edge 22, Type (0, 0), BuildingBlock: KIFKEQ_clean_linker_1, # of connection points: 2
#     Edge 23, Type (0, 0), BuildingBlock: KIFKEQ_clean_linker_1, # of connection points: 2
#     Edge 24, Type (0, 0), BuildingBlock: KIFKEQ_clean_linker_1, # of connection points: 2
#     Edge 25, Type (0, 0), BuildingBlock: KIFKEQ_clean_linker_1, # of connection points: 2
#     Edge 26, Type (0, 0), BuildingBlock: KIFKEQ_clean_linker_1, # of connection points: 2
#     Edge 27, Type (0, 0), BuildingBlock: KIFKEQ_clean_linker_1, # of connection points: 2
#     Edge 28, Type (0, 0), BuildingBlock: KIFKEQ_clean_linker_1, # of connection points: 2
#     Edge 29, Type (0, 0), BuildingBlock: KIFKEQ_clean_linker_1, # of connection points: 2
#     Edge 30, Type (0, 0), BuildingBlock: KIFKEQ_clean_linker_1, # of connection points: 2
#     Edge 31, Type (0, 0), BuildingBlock: KIFKEQ_clean_linker_1, # of connection points: 2
#     Edge 32, Type (0, 0), BuildingBlock: KIFKEQ_clean_linker_1, # of connection points: 2
#     Edge 33, Type (0, 0), BuildingBlock: KIFKEQ_clean_linker_1, # of connection points: 2
#     Edge 34, Type (0, 0), BuildingBlock: KIFKEQ_clean_linker_1, # of connection points: 2
#     Edge 35, Type (0, 0), BuildingBlock: KIFKEQ_clean_linker_1, # of connection points: 2
#     Edge 36, Type (0, 0), BuildingBlock: KIFKEQ_clean_linker_1, # of connection points: 2
#     Edge 37, Type (0, 0), BuildingBlock: KIFKEQ_clean_linker_1, # of connection points: 2
#     Edge 38, Type (0, 0), BuildingBlock: KIFKEQ_clean_linker_1, # of connection points: 2
#     Edge 39, Type (0, 0), BuildingBlock: KIFKEQ_clean_linker_1, # of connection points: 2
#     Edge 40, Type (0, 0), BuildingBlock: KIFKEQ_clean_linker_1, # of connection points: 2
#     Edge 41, Type (0, 0), BuildingBlock: KIFKEQ_clean_linker_1, # of connection points: 2
#     Edge 42, Type (0, 0), BuildingBlock: KIFKEQ_clean_linker_1, # of connection points: 2
#     Edge 43, Type (0, 0), BuildingBlock: KIFKEQ_clean_linker_1, # of connection points: 2
#     Edge 44, Type (0, 0), BuildingBlock: KIFKEQ_clean_linker_1, # of connection points: 2
#     Edge 45, Type (0, 0), BuildingBlock: KIFKEQ_clean_linker_1, # of connection points: 2
#     Edge 46, Type (0, 0), BuildingBlock: KIFKEQ_clean_linker_1, # of connection points: 2
#     Edge 47, Type (0, 0), BuildingBlock: KIFKEQ_clean_linker_1, # of connection points: 2
#     Edge 48, Type (0, 0), BuildingBlock: KIFKEQ_clean_linker_1, # of connection points: 2
#     Edge 49, Type (0, 0), BuildingBlock: KIFKEQ_clean_linker_1, # of connection points: 2
#     Edge 50, Type (0, 0), BuildingBlock: KIFKEQ_clean_linker_1, # of connection points: 2
#     Edge 51, Type (0, 0), BuildingBlock: KIFKEQ_clean_linker_1, # of connection points: 2
#     Edge 52, Type (0, 0), BuildingBlock: KIFKEQ_clean_linker_1, # of connection points: 2
#     Edge 53, Type (0, 0), BuildingBlock: KIFKEQ_clean_linker_1, # of connection points: 2
#     Edge 54, Type (0, 0), BuildingBlock: KIFKEQ_clean_linker_1, # of connection points: 2
#     Edge 55, Type (0, 0), BuildingBlock: KIFKEQ_clean_linker_1, # of connection points: 2
#     Edge 56, Type (0, 0), BuildingBlock: KIFKEQ_clean_linker_1, # of connection points: 2
#     Edge 57, Type (0, 0), BuildingBlock: KIFKEQ_clean_linker_1, # of connection points: 2
#     Edge 58, Type (0, 0), BuildingBlock: KIFKEQ_clean_linker_1, # of connection points: 2
#     Edge 59, Type (0, 0), BuildingBlock: KIFKEQ_clean_linker_1, # of connection points: 2
#     Edge 60, Type (0, 0), BuildingBlock: KIFKEQ_clean_linker_1, # of connection points: 2
#     Edge 61, Type (0, 0), BuildingBlock: KIFKEQ_clean_linker_1, # of connection points: 2
#     Edge 62, Type (0, 0), BuildingBlock: KIFKEQ_clean_linker_1, # of connection points: 2
#     Edge 63, Type (0, 0), BuildingBlock: KIFKEQ_clean_linker_1, # of connection points: 2
#     Edge 64, Type (0, 0), BuildingBlock: KIFKEQ_clean_linker_1, # of connection points: 2
#     Edge 65, Type (0, 0), BuildingBlock: KIFKEQ_clean_linker_1, # of connection points: 2
#     Edge 66, Type (0, 0), BuildingBlock: KIFKEQ_clean_linker_1, # of connection points: 2
#     Edge 67, Type (0, 0), BuildingBlock: KIFKEQ_clean_linker_1, # of connection points: 2
#     Edge 68, Type (0, 0), BuildingBlock: KIFKEQ_clean_linker_1, # of connection points: 2
#     Edge 69, Type (0, 0), BuildingBlock: KIFKEQ_clean_linker_1, # of connection points: 2
#     Edge 70, Type (0, 0), BuildingBlock: KIFKEQ_clean_linker_1, # of connection points: 2
#     Edge 71, Type (0, 0), BuildingBlock: KIFKEQ_clean_linker_1, # of connection points: 2
# Relax obj value: 0.104
# Max RMSD: 0.187
# Mean RMSD: 0.187
data_MOF--net-xfg--node1-NUHQUE_clean_sbu_2--edge1-KIFKEQ_clean_linker_1
_symmetry_space_group_name_H-M    P1
_symmetry_Int_Tables_number       1
_symmetry_cell_setting            triclinic
loop_
_symmetry_equiv_pos_as_xyz
'x, y, z'
_cell_length_a     32.868057
_cell_length_b     32.992761
_cell_length_c     70.809457
_cell_angle_alpha  90.266794
_cell_angle_beta   90.246295
_cell_angle_gamma 89.79987
loop_
_atom_site_label
_atom_site_type_symbol
_atom_site_fract_x
_atom_site_fract_y
_atom_site_fract_z
_atom_type_partial_charge
O0 O 0.30079 0.11936 0.00997 0.0
Tb1 Tb 0.32388 0.09616 0.03678 0.0
Eu2 Eu 0.37452 0.11993 0.07577 0.0
C3 C 0.32128 0.14509 -0.00047 0.0
O4 O 0.3545 0.16184 0.00626 0.0
C5 C 0.41989 0.0934 0.03777 0.0
O6 O 0.39847 0.10538 0.10468 0.0
C7 C 0.36687 0.19777 0.07129 0.0
C8 C 0.39439 0.06823 0.11095 0.0
O9 O 0.38031 0.04024 0.09942 0.0
C10 C 0.28057 0.09923 0.07523 0.0
C11 C 0.34442 0.23684 0.07331 0.0
C12 C 0.33696 0.25791 0.05648 0.0
C13 C 0.32202 0.29746 0.05678 0.0
C14 C 0.31296 0.31622 0.07396 0.0
C15 C 0.31948 0.29621 0.09116 0.0
C16 C 0.33555 0.25614 0.09087 0.0
O17 O 0.38757 0.10907 0.02934 0.0
O18 O 0.42041 0.08935 0.05632 0.0
O19 O 0.2939 0.04203 0.02624 0.0
O20 O 0.34428 1.0354 0.04498 0.0
C21 C 0.31679 1.01625 0.03515 0.0
O22 O 0.31558 0.08933 0.08286 0.0
O23 O 0.28005 0.11592 0.05835 0.0
O24 O 0.38585 0.18173 0.08584 0.0
O25 O 0.35329 0.17092 0.05897 0.0
H26 H 0.34522 0.2444 0.04302 0.0
H27 H 0.30213 0.34734 0.07397 0.0
H28 H 0.3424 0.24097 0.10404 0.0
O29 O 0.7055 0.55804 0.261 0.0
Tb30 Tb 0.73564 0.57221 0.28756 0.0
Eu31 Eu 0.70863 0.62613 0.32639 0.0
C32 C 0.72526 0.57024 0.24593 0.0
O33 O 0.75962 0.58982 0.24845 0.0
C34 C 0.73721 0.67118 0.28795 0.0
O35 O 0.72523 0.65253 0.35469 0.0
C36 C 0.63245 0.60676 0.32532 0.0
C37 C 0.76233 0.64665 0.3611 0.0
O38 O 0.78958 0.63016 0.3499 0.0
C39 C 0.73331 0.53478 0.3265 0.0
C40 C 0.58877 0.59568 0.32467 0.0
C41 C 0.56877 0.596 0.30713 0.0
C42 C 0.52884 0.58184 0.30538 0.0
C43 C 0.50872 0.56732 0.32138 0.0
C44 C 0.52785 0.56617 0.33912 0.0
C45 C 0.56797 0.58124 0.34082 0.0
O46 O 0.73283 0.63625 0.27894 0.0
O47 O 0.73111 0.67481 0.30633 0.0
O48 O 0.77945 0.53055 0.27529 0.0
O49 O 0.80115 0.57922 0.29235 0.0
C50 C 0.81172 0.54802 0.28207 0.0
O51 O 0.74545 0.57017 0.33272 0.0
O52 O 0.71384 0.53324 0.31026 0.0
O53 O 0.64809 0.62841 0.33918 0.0
O54 O 0.65759 0.59807 0.31142 0.0
H55 H 0.5847 0.60633 0.29467 0.0
H56 H 0.47762 0.55675 0.32001 0.0
H57 H 0.58348 0.57991 0.35434 0.0
O58 O 0.26521 0.94478 0.51086 0.0
Tb59 Tb 0.25215 0.97517 0.53744 0.0
Eu60 Eu 0.20557 0.95317 0.57811 0.0
C61 C 0.24733 0.96085 0.496 0.0
O62 O 0.22133 0.99063 0.49877 0.0
C63 C 0.15696 0.98186 0.54142 0.0
O64 O 0.18032 0.96911 0.60653 0.0
C65 C 0.2096 0.87489 0.57319 0.0
C66 C 0.18535 1.00633 0.61272 0.0
O67 O 0.20154 1.0332 0.60139 0.0
C68 C 0.29994 0.97244 0.57539 0.0
C69 C 0.23434 0.83683 0.57379 0.0
C70 C 0.2434 0.81855 0.55634 0.0
C71 C 0.26197 0.78032 0.55527 0.0
C72 C 0.27325 0.76082 0.57208 0.0
C73 C 0.26566 0.77837 0.58982 0.0
C74 C 0.24524 0.81629 0.5907 0.0
O75 O 0.18698 0.9636 0.53241 0.0
O76 O 0.1592 0.98656 0.5599 0.0
O77 O 0.28705 1.01935 0.52201 0.0
O78 O 0.24165 0.04066 0.541 0.0
C79 C 0.26927 0.05131 0.5288 0.0
O80 O 0.26641 0.98104 0.58453 0.0
O81 O 0.29822 0.9567 0.55825 0.0
O82 O 0.19673 0.89167 0.58895 0.0
O83 O 0.21814 0.90145 0.55994 0.0
H84 H 0.23489 0.83391 0.54341 0.0
H85 H 0.28684 0.73086 0.5715 0.0
H86 H 0.23806 0.82953 0.60431 0.0
O87 O 0.88228 0.51825 0.7611 0.0
Tb88 Tb 0.85095 0.50195 0.78694 0.0
Eu89 Eu 0.87579 0.4528 0.82732 0.0
C90 C 0.87127 0.49898 0.74562 0.0
O91 O 0.84304 0.4711 0.74668 0.0
C92 C 0.84494 0.40586 0.78994 0.0
O93 O 0.85806 0.42542 0.85491 0.0
C94 C 0.95457 0.45746 0.82389 0.0
C95 C 0.81992 0.43 0.85985 0.0
O96 O 0.79439 0.44579 0.84755 0.0
C97 C 0.85647 0.54701 0.82509 0.0
C98 C 0.99053 0.485 0.8244 0.0
C99 C 1.00751 0.49573 0.80696 0.0
C100 C 0.04262 0.51928 0.80602 0.0
C101 C 0.06118 0.53266 0.8227 0.0
C102 C 0.0459 0.52208 0.84051 0.0
C103 C 1.01047 0.4976 0.84134 0.0
O104 O 0.85968 0.43709 0.78062 0.0
O105 O 0.84418 0.40595 0.80859 0.0
O106 O 0.80483 0.53675 0.77224 0.0
O107 O 0.78593 0.49367 0.79267 0.0
C108 C 0.77369 0.5208 0.78054 0.0
O109 O 0.84711 0.51349 0.83388 0.0
O110 O 0.87248 0.54542 0.80811 0.0
O111 O 0.93681 0.44717 0.83975 0.0
O112 O 0.92875 0.46211 0.80975 0.0
H113 H 0.99388 0.48493 0.7939 0.0
H114 H 0.08925 0.54973 0.82178 0.0
H115 H 0.9987 0.48852 0.85493 0.0
O116 O 0.76864 0.94924 0.98771 0.0
Tb117 Tb 0.75219 0.97928 0.96157 0.0
Eu118 Eu 0.70472 0.95347 0.92091 0.0
C119 C 0.74739 0.95769 0.00294 0.0
O120 O 0.71665 0.9831 0.00165 0.0
C121 C 0.65728 0.98242 0.95775 0.0
O122 O 0.67966 0.97099 0.89263 0.0
C123 C 0.70752 0.87498 0.92488 0.0
C124 C 0.68917 1.00706 0.88632 0.0
O125 O 0.7089 1.03209 0.89754 0.0
C126 C 0.79976 0.97254 0.92367 0.0
C127 C 0.73144 0.83644 0.92359 0.0
C128 C 0.73977 0.8166 0.94069 0.0
C129 C 0.75754 0.77795 0.94107 0.0
C130 C 0.76857 0.75942 0.92396 0.0
C131 C 0.76151 0.77838 0.90658 0.0
C132 C 0.74222 0.81695 0.90633 0.0
O133 O 0.68781 0.96452 0.96655 0.0
O134 O 0.65905 0.98738 0.93931 0.0
O135 O 0.78318 1.02839 0.97613 0.0
O136 O 0.73811 0.04303 0.95555 0.0
C137 C 0.76449 0.05776 0.96754 0.0
O138 O 0.76606 0.97965 0.91429 0.0
O139 O 0.79866 0.95978 0.94127 0.0
O140 O 0.69392 0.89255 0.90945 0.0
O141 O 0.71736 0.90088 0.93837 0.0
H142 H 0.73132 0.83109 0.95388 0.0
H143 H 0.78156 0.72916 0.92401 0.0
H144 H 0.73551 0.83132 0.89295 0.0
O145 O 0.38101 0.51943 0.7366 0.0
Tb146 Tb 0.34497 0.50353 0.71178 0.0
Eu147 Eu 0.37626 0.45298 0.67125 0.0
C148 C 0.37816 0.49701 0.75188 0.0
O149 O 0.35481 0.46484 0.75164 0.0
C150 C 0.34015 0.40606 0.70762 0.0
O151 O 0.35867 0.42637 0.64322 0.0
C152 C 0.45509 0.45716 0.67507 0.0
C153 C 0.32238 0.43577 0.63675 0.0
O154 O 0.29732 0.45607 0.6477 0.0
C155 C 0.35325 0.54754 0.67326 0.0
C156 C 0.49223 0.48314 0.67449 0.0
C157 C 0.51081 0.49195 0.69191 0.0
C158 C 0.54683 0.51408 0.69291 0.0
C159 C 0.56485 0.52797 0.67633 0.0
C160 C 0.54812 0.51906 0.6585 0.0
C161 C 0.51164 0.49601 0.65757 0.0
O162 O 0.34973 0.43835 0.7177 0.0
O163 O 0.34459 0.40509 0.68908 0.0
O164 O 0.30177 0.53745 0.72875 0.0
O165 O 0.27929 0.50087 0.7062 0.0
C166 C 0.26931 0.52567 0.71982 0.0
O167 O 0.34799 0.51345 0.664 0.0
O168 O 0.3658 0.54744 0.69092 0.0
O169 O 0.43735 0.4457 0.65926 0.0
O170 O 0.4292 0.46384 0.68894 0.0
H171 H 0.49762 0.48079 0.70491 0.0
H172 H 0.59345 0.54419 0.67732 0.0
H173 H 0.49866 0.48833 0.64395 0.0
O174 O 0.79893 0.10868 0.48865 0.0
Tb175 Tb 0.82427 0.0925 0.46142 0.0
Eu176 Eu 0.87435 0.12028 0.42351 0.0
C177 C 0.80763 0.14248 0.49765 0.0
O178 O 0.82898 0.17061 0.48919 0.0
C179 C 0.91972 0.0987 0.46286 0.0
O180 O 0.902 0.1048 0.39551 0.0
C181 C 0.85477 0.19625 0.42437 0.0
C182 C 0.90286 0.06669 0.39016 0.0
O183 O 0.89202 1.03878 0.40231 0.0
C184 C 0.78309 0.09436 0.42311 0.0
C185 C 0.84356 0.23981 0.42498 0.0
C186 C 0.83971 0.25868 0.44266 0.0
C187 C 0.82815 0.29944 0.4441 0.0
C188 C 0.82023 0.32154 0.4276 0.0
C189 C 0.82343 0.30353 0.40969 0.0
C190 C 0.83516 0.26233 0.40837 0.0
O191 O 0.88539 0.10978 0.47109 0.0
O192 O 0.92223 0.09715 0.44424 0.0
O193 O 0.79463 1.03623 0.46871 0.0
O194 O 0.84964 1.03362 0.45302 0.0
C195 C 0.82083 1.01232 0.46069 0.0
O196 O 0.81862 0.08363 0.41634 0.0
O197 O 0.78201 0.11312 0.43953 0.0
O198 O 0.87795 0.18081 0.41105 0.0
O199 O 0.84464 0.17097 0.43791 0.0
H200 H 0.84552 0.24147 0.4554 0.0
H201 H 0.81182 0.3533 0.42865 0.0
H202 H 0.83767 0.24801 0.39463 0.0
O203 O 0.21518 0.55093 0.23848 0.0
Tb204 Tb 0.23469 0.57428 0.21128 0.0
Eu205 Eu 0.20613 0.62272 0.17225 0.0
C206 C 0.18585 0.56783 0.2484 0.0
O207 O 0.16444 0.59754 0.24104 0.0
C208 C 0.23249 0.66909 0.21013 0.0
O209 O 0.22024 0.64829 0.14372 0.0
C210 C 0.12797 0.61516 0.1769 0.0
C211 C 0.25765 0.64529 0.13741 0.0
O212 O 0.28606 0.63108 0.14871 0.0
C213 C 0.22947 0.52907 0.17321 0.0
C214 C 0.09094 0.58944 0.17532 0.0
C215 C 0.07177 0.57943 0.19234 0.0
C216 C 1.03562 0.55739 0.19246 0.0
C217 C 1.0183 0.54474 0.17539 0.0
C218 C 1.03587 0.55479 0.15799 0.0
C219 C 0.07233 0.57779 0.15794 0.0
O220 O 0.21762 0.63681 0.21862 0.0
O221 O 0.23606 0.66939 0.19156 0.0
O222 O 0.29217 0.54914 0.22101 0.0
O223 O 0.2931 0.59872 0.20194 0.0
C224 C 0.31536 0.57358 0.21163 0.0
O225 O 0.23722 0.56373 0.165 0.0
O226 O 0.21458 0.52905 0.19045 0.0
O227 O 0.14392 0.63126 0.16169 0.0
O228 O 0.1552 0.60505 0.18978 0.0
H229 H 0.08465 0.58956 0.20568 0.0
H230 H 0.98963 0.52854 0.17563 0.0
H231 H 0.0859 0.58633 0.14464 0.0
O232 O 0.80237 0.60431 0.50964 0.0
Tb233 Tb 0.82534 0.58844 0.53739 0.0
Eu234 Eu 0.87502 0.62466 0.57573 0.0
C235 C 0.81206 0.63806 0.501 0.0
O236 O 0.83425 0.66528 0.50985 0.0
C237 C 0.92055 0.59411 0.53792 0.0
O238 O 0.90129 0.60855 0.60396 0.0
C239 C 0.86955 0.70261 0.57129 0.0
C240 C 0.8959 0.57104 0.60943 0.0
O241 O 0.88032 0.54503 0.59731 0.0
C242 C 0.78051 0.60188 0.57499 0.0
C243 C 0.84646 0.7414 0.57245 0.0
C244 C 0.84057 0.76163 0.5553 0.0
C245 C 0.82333 0.80036 0.55462 0.0
C246 C 0.81 0.81852 0.57144 0.0
C247 C 0.81438 0.79894 0.58892 0.0
C248 C 0.83366 0.76038 0.5895 0.0
O249 O 0.88706 0.60512 0.52892 0.0
O250 O 0.92197 0.5942 0.55659 0.0
O251 O 0.79663 0.53178 0.52954 0.0
O252 O 0.84908 0.52996 0.54722 0.0
C253 C 0.8215 0.50827 0.53866 0.0
O254 O 0.81503 0.59673 0.58404 0.0
O255 O 0.7806 0.61285 0.55717 0.0
O256 O 0.88528 0.68617 0.58655 0.0
O257 O 0.85818 0.67603 0.55835 0.0
H258 H 0.85044 0.74725 0.54229 0.0
H259 H 0.79718 0.84884 0.57109 0.0
H260 H 0.83831 0.7454 0.60291 0.0
O261 O 0.20573 0.0448 0.76212 0.0
Tb262 Tb 0.23896 0.06556 0.78693 0.0
Eu263 Eu 0.20789 0.11953 0.82491 0.0
C264 C 0.18377 0.06935 0.75157 0.0
O265 O 0.17489 0.10583 0.75782 0.0
C266 C 0.23953 0.16459 0.78665 0.0
O267 O 0.21978 0.14155 0.8544 0.0
C268 C 0.1318 0.09995 0.8238 0.0
C269 C 0.25576 0.15346 0.8602 0.0
O270 O 0.28535 0.15782 0.84798 0.0
C271 C 0.2372 1.02953 0.82639 0.0
C272 C 0.08824 0.08846 0.82375 0.0
C273 C 0.06695 0.08992 0.80662 0.0
C274 C 1.02568 0.07978 0.80574 0.0
C275 C 1.00583 0.06647 0.82207 0.0
C276 C 1.02652 0.06377 0.83941 0.0
C277 C 0.06783 0.07568 0.84032 0.0
O278 O 0.23875 0.12914 0.7779 0.0
O279 O 0.2306 0.16853 0.80482 0.0
O280 O 0.28389 1.02804 0.77277 0.0
O281 O 0.30399 0.07084 0.79331 0.0
C282 C 0.31548 0.04295 0.78137 0.0
O283 O 0.24668 0.06567 0.83273 0.0
O284 O 0.21887 1.02661 0.80993 0.0
O285 O 0.14647 0.126 0.83614 0.0
O286 O 0.15791 0.08659 0.81109 0.0
H287 H 0.08231 0.10013 0.79398 0.0
H288 H 0.97409 0.0577 0.82125 0.0
H289 H 0.08422 0.07383 0.8536 0.0
O290 O 0.77208 0.45359 0.01106 0.0
Tb291 Tb 0.754 0.48045 0.03772 0.0
Eu292 Eu 0.7066 0.45506 0.07729 0.0
C293 C 0.75207 0.46544 0.99596 0.0
O294 O 0.72335 0.49291 0.99775 0.0
C295 C 0.65906 0.48031 0.03988 0.0
O296 O 0.67855 0.47012 0.10521 0.0
C297 C 0.71331 0.37714 0.0724 0.0
C298 C 0.67645 0.50846 0.11009 0.0
O299 O 0.68716 0.53592 0.09769 0.0
C300 C 0.80053 0.47602 0.07573 0.0
C301 C 0.73865 0.33972 0.07364 0.0
C302 C 0.74799 0.32033 0.05648 0.0
C303 C 0.76506 0.28157 0.05622 0.0
C304 C 0.77469 0.26235 0.07318 0.0
C305 C 0.76596 0.28058 0.09063 0.0
C306 C 0.7478 0.31962 0.0909 0.0
O307 O 0.69068 0.46353 0.03145 0.0
O308 O 0.66005 0.48602 0.05831 0.0
O309 O 0.78465 0.53266 0.02596 0.0
O310 O 0.73359 0.5424 0.04387 0.0
C311 C 0.76147 0.55985 0.03376 0.0
O312 O 0.76657 0.48401 0.08469 0.0
O313 O 0.79945 0.46103 0.05848 0.0
O314 O 0.69815 0.39343 0.08783 0.0
O315 O 0.72275 0.40388 0.05938 0.0
H316 H 0.73897 0.33404 0.0432 0.0
H317 H 0.78698 0.23177 0.07277 0.0
H318 H 0.73914 0.33315 0.10426 0.0
O319 O 0.37006 1.02305 0.26012 0.0
Tb320 Tb 0.34847 1.00034 0.28707 0.0
Eu321 Eu 0.37524 0.9533 0.32633 0.0
C322 C 0.39714 1.00392 0.24971 0.0
O323 O 0.41573 0.97176 0.25643 0.0
C324 C 0.34722 0.90582 0.28913 0.0
O325 O 0.36147 0.92794 0.35487 0.0
C326 C 0.45326 0.95845 0.32087 0.0
C327 C 0.32324 0.92761 0.36006 0.0
O328 O 0.29537 0.93834 0.34766 0.0
C329 C 0.35424 0.04744 0.32501 0.0
C330 C 0.49043 0.98386 0.32263 0.0
C331 C 0.50912 0.99555 0.30574 0.0
C332 C 0.54606 1.01633 0.30588 0.0
C333 C 0.56457 1.02627 0.3231 0.0
C334 C 0.54747 1.0141 0.34026 0.0
C335 C 0.51016 0.99268 0.34007 0.0
O336 O 0.36355 0.93693 0.28033 0.0
O337 O 0.34252 0.90736 0.30762 0.0
O338 O 0.29359 1.02819 0.27603 0.0
O339 O 0.28792 0.98022 0.29584 0.0
C340 C 0.26822 1.00624 0.28547 0.0
O341 O 0.34727 1.01361 0.33409 0.0
O342 O 0.36814 0.04631 0.30759 0.0
O343 O 0.43752 0.94197 0.33603 0.0
O344 O 0.4258 0.96966 0.30829 0.0
H345 H 0.49561 0.98716 0.29227 0.0
H346 H 0.5939 0.04129 0.32311 0.0
H347 H 0.49736 0.98217 0.35323 0.0
O348 O 0.28118 0.46799 0.48786 0.0
Tb349 Tb 0.2575 0.48656 0.46063 0.0
Eu350 Eu 0.20604 0.45364 0.42208 0.0
C351 C 0.26698 0.43712 0.49741 0.0
O352 O 0.2396 0.41328 0.48967 0.0
C353 C 0.16162 0.48459 0.46017 0.0
O354 O 0.17961 0.46828 0.39365 0.0
C355 C 0.21326 0.37557 0.42649 0.0
C356 C 0.18289 0.50552 0.38737 0.0
O357 O 0.19717 0.53362 0.3988 0.0
C358 C 0.29996 0.47452 0.42252 0.0
C359 C 0.23879 0.33818 0.42497 0.0
C360 C 0.24836 0.31892 0.44205 0.0
C361 C 0.26954 0.28221 0.44236 0.0
C362 C 0.2822 0.26458 0.42537 0.0
C363 C 0.27285 0.28227 0.40788 0.0
C364 C 0.2504 0.31922 0.40765 0.0
O365 O 0.19491 0.47253 0.46907 0.0
O366 O 0.16011 0.48478 0.44149 0.0
O367 O 0.29028 0.54035 0.46951 0.0
O368 O 0.23786 0.5475 0.45216 0.0
C369 C 0.26702 0.56643 0.46104 0.0
O370 O 0.26533 0.48271 0.41413 0.0
O371 O 0.30003 0.46137 0.44001 0.0
O372 O 0.19704 0.39183 0.4113 0.0
O373 O 0.22348 0.40242 0.4395 0.0
H374 H 0.23831 0.33209 0.45532 0.0
H375 H 0.29777 0.23553 0.42572 0.0
H376 H 0.24221 0.33289 0.39429 0.0
O377 O 0.87593 1.02173 0.23845 0.0
Tb378 Tb 0.84845 1.0071 0.21133 0.0
Eu379 Eu 0.87418 0.95543 0.17216 0.0
C380 C 0.85618 1.00787 0.25321 0.0
O381 O 0.82341 0.98602 0.25017 0.0
C382 C 0.84377 0.91081 0.20961 0.0
O383 O 0.86421 0.93256 0.14271 0.0
C384 C 0.9518 0.96378 0.17796 0.0
C385 C 0.82882 0.91837 0.13727 0.0
O386 O 0.79985 0.91374 0.14979 0.0
C387 C 0.85365 0.04863 0.17272 0.0
C388 C 0.99007 0.98741 0.17619 0.0
C389 C 1.00991 0.99635 0.19321 0.0
C390 C 0.04946 1.01166 0.19354 0.0
C391 C 0.06867 1.02075 0.17646 0.0
C392 C 0.04958 1.01311 0.15902 0.0
C393 C 1.01001 0.99592 0.15886 0.0
O394 O 0.85852 0.94287 0.21852 0.0
O395 O 0.84216 0.9099 0.19096 0.0
O396 O 0.80209 0.04594 0.22347 0.0
O397 O 0.7834 0.99612 0.20637 0.0
C398 C 0.77096 1.02671 0.21663 0.0
O399 O 0.84321 1.01408 0.16492 0.0
O400 O 0.87056 0.04865 0.18962 0.0
O401 O 0.93691 0.9442 0.1633 0.0
O402 O 0.92392 0.97698 0.18984 0.0
H403 H 0.99514 0.98924 0.20646 0.0
H404 H 0.09968 1.0319 0.17664 0.0
H405 H 0.99574 0.98797 0.14554 0.0
O406 O 0.30365 0.62961 0.98795 0.0
Tb407 Tb 0.32687 0.60067 0.9625 0.0
Eu408 Eu 0.37511 0.62174 0.92259 0.0
C409 C 0.32573 0.65252 -0.00074 0.0
O410 O 0.36193 0.66445 0.99389 0.0
C411 C 0.42193 0.5943 0.95983 0.0
O412 O 0.40016 0.60724 0.89395 0.0
C413 C 0.37068 0.69951 0.9284 0.0
C414 C 0.39455 0.57022 0.88766 0.0
O415 O 0.3784 0.54346 0.89907 0.0
C416 C 0.28057 0.60233 0.92403 0.0
C417 C 0.34709 0.73804 0.92731 0.0
C418 C 0.33693 0.75639 0.94459 0.0
C419 C 0.32049 0.79553 0.94535 0.0
C420 C 0.3127 0.81611 0.92844 0.0
C421 C 0.32201 0.79869 0.91087 0.0
C422 C 0.33947 0.75939 0.91027 0.0
O423 O 0.3915 0.6127 0.96849 0.0
O424 O 0.42018 0.58841 0.94141 0.0
O425 O 0.29785 0.55205 0.9778 0.0
O426 O 0.33986 0.53677 0.95609 0.0
C427 C 0.31533 0.52246 0.96882 0.0
O428 O 0.31464 0.59402 0.91527 0.0
O429 O 0.28125 0.6178 0.94123 0.0
O430 O 0.38671 0.68367 0.91306 0.0
O431 O 0.35889 0.67233 0.94078 0.0
H432 H 0.34338 0.74062 0.95768 0.0
H433 H 0.30102 0.84689 0.92889 0.0
H434 H 0.3483 0.74637 0.89682 0.0
O435 O 0.7262 0.05171 0.73812 0.0
Tb436 Tb 0.73965 0.07445 0.71025 0.0
Eu437 Eu 0.70575 0.12321 0.67182 0.0
C438 C 0.6918 0.05914 0.74685 0.0
O439 O 0.66259 0.07882 0.73805 0.0
C440 C 0.73356 0.16825 0.71021 0.0
O441 O 0.7237 0.15133 0.6443 0.0
C442 C 0.62686 0.11975 0.67524 0.0
C443 C 0.75985 0.14223 0.63764 0.0
O444 O 0.78508 0.12148 0.64836 0.0
C445 C 0.7261 1.02819 0.67298 0.0
C446 C 0.58974 0.09383 0.67424 0.0
C447 C 0.57147 0.08417 0.69152 0.0
C448 C 0.53587 0.06141 0.69217 0.0
C449 C 0.51778 0.04803 0.67541 0.0
C450 C 0.53418 0.05783 0.65773 0.0
C451 C 0.57036 0.08134 0.65713 0.0
O452 O 0.71986 0.13539 0.71857 0.0
O453 O 0.73673 0.16885 0.69158 0.0
O454 O 0.79793 0.04805 0.71778 0.0
O455 O 0.79708 0.0999 0.70012 0.0
C456 C 0.82032 0.0736 0.70866 0.0
O457 O 0.73223 0.06215 0.66388 0.0
O458 O 0.71533 1.02901 0.69083 0.0
O459 O 0.64471 0.13161 0.65965 0.0
O460 O 0.6527 0.11235 0.6891 0.0
H461 H 0.58474 0.09486 0.70469 0.0
H462 H 0.48951 1.03122 0.67615 0.0
H463 H 0.58319 0.08955 0.64363 0.0
H464 H 0.22051 0.10873 0.88752 0.0
H465 H 0.30998 0.20211 0.87887 0.0
H466 H 0.23603 0.10817 0.92101 0.0
H467 H 0.32375 0.20402 0.91278 0.0
H468 H 0.37086 0.16737 0.97072 0.0
H469 H 0.3547 0.17038 0.93728 0.0
H470 H 0.22957 0.14015 0.94959 0.0
H471 H 0.24681 0.13446 0.98295 0.0
C472 C 0.24294 0.12987 0.89292 0.0
C473 C 0.26393 0.15566 0.88066 0.0
C474 C 0.25172 0.12977 0.91221 0.0
C475 C 0.28103 0.15626 0.91986 0.0
C476 C 0.30153 0.18261 0.9075 0.0
C477 C 0.29346 0.18189 0.88807 0.0
C478 C 0.33981 0.16174 0.96627 0.0
C479 C 0.31005 0.15083 0.97947 0.0
C480 C 0.3304 0.16366 0.94703 0.0
C481 C 0.29071 0.15559 0.94051 0.0
C482 C 0.26069 0.14575 0.95388 0.0
C483 C 0.27039 0.14289 0.97309 0.0
H484 H 0.65396 0.45973 0.13947 0.0
H485 H 0.68749 0.58284 0.12603 0.0
H486 H 0.65874 0.47593 0.17317 0.0
H487 H 0.69212 0.59876 0.15953 0.0
H488 H 0.76676 0.5847 0.21382 0.0
H489 H 0.74625 0.57127 0.18159 0.0
H490 H 0.63252 0.52182 0.20104 0.0
H491 H 0.65331 0.53527 0.23394 0.0
C492 C 0.66141 0.49043 0.14369 0.0
C493 C 0.67096 0.51986 0.13011 0.0
C494 C 0.66393 0.49969 0.16296 0.0
C495 C 0.67633 0.5384 0.16889 0.0
C496 C 0.68295 0.56852 0.1553 0.0
C497 C 0.68015 0.55941 0.13611 0.0
C498 C 0.73718 0.57124 0.21138 0.0
C499 C 0.71147 0.56136 0.22647 0.0
C500 C 0.72538 0.56375 0.19284 0.0
C501 C 0.68752 0.5462 0.18883 0.0
C502 C 0.66182 0.53557 0.20383 0.0
C503 C 0.67367 0.54326 0.22258 0.0
H504 H 0.24807 0.93487 0.37554 0.0
H505 H 0.37366 0.91037 0.39003 0.0
H506 H 0.23096 0.93769 0.40883 0.0
H507 H 0.35626 0.91354 0.42363 0.0
H508 H 0.29343 0.89619 0.48324 0.0
H509 H 0.31296 0.88184 0.45032 0.0
H510 H 0.25016 0.99034 0.43244 0.0
H511 H 0.23033 1.00417 0.46466 0.0
C512 C 0.27195 0.9294 0.38581 0.0
C513 C 0.31229 0.9228 0.38013 0.0
C514 C 0.26215 0.93122 0.40491 0.0
C515 C 0.29239 0.92639 0.41879 0.0
C516 C 0.33236 0.9173 0.4132 0.0
C517 C 0.34228 0.91563 0.39399 0.0
C518 C 0.28375 0.91672 0.4722 0.0
C519 C 0.25973 0.95085 0.47649 0.0
C520 C 0.29504 0.90864 0.45344 0.0
C521 C 0.28239 0.9346 0.43883 0.0
C522 C 0.25936 0.96916 0.44332 0.0
C523 C 0.24805 0.97707 0.46185 0.0
H524 H 0.93778 0.61075 0.63756 0.0
H525 H 0.86072 0.50736 0.62678 0.0
H526 H 0.9397 0.59357 0.67118 0.0
H527 H 0.8607 0.49154 0.66003 0.0
H528 H 0.8873 0.44804 0.71681 0.0
H529 H 0.90077 0.46542 0.68415 0.0
H530 H 0.89906 0.59274 0.69905 0.0
H531 H 0.88804 0.5747 0.73216 0.0
C532 C 0.92146 0.5843 0.64237 0.0
C533 C 0.89965 0.56002 0.62952 0.0
C534 C 0.92226 0.57463 0.66162 0.0
C535 C 0.9008 0.54083 0.66836 0.0
C536 C 0.87877 0.51697 0.65539 0.0
C537 C 0.87858 0.52617 0.63624 0.0
C538 C 0.89084 0.47969 0.71314 0.0
C539 C 0.88662 0.51007 0.72689 0.0
C540 C 0.89806 0.48975 0.69439 0.0
C541 C 0.89999 0.53056 0.68881 0.0
C542 C 0.89797 0.561 0.70282 0.0
C543 C 0.89166 0.55076 0.72177 0.0
H544 H 0.82186 0.92854 0.01381 0.0
H545 H 0.70055 0.95268 0.03431 0.0
H546 H 0.84353 0.9106 0.0458 0.0
H547 H 0.72212 0.9353 0.06616 0.0
H548 H 0.76389 0.88085 0.1205 0.0
H549 H 0.74545 0.88171 0.08704 0.0
H550 H 0.85461 0.94918 0.07483 0.0
H551 H 0.87355 0.94727 0.10802 0.0
C552 C 0.7997 0.92933 0.02509 0.0
C553 C 0.7596 0.94218 0.02163 0.0
C554 C 0.81215 0.91935 0.04341 0.0
C555 C 0.78457 0.92161 0.05853 0.0
C556 C 0.74402 0.93276 0.05482 0.0
C557 C 0.73173 0.94306 0.03659 0.0
C558 C 0.78421 0.89525 0.1106 0.0
C559 C 0.82002 0.91413 0.11689 0.0
C560 C 0.77361 0.8959 0.09146 0.0
C561 C 0.79844 0.91574 0.0783 0.0
C562 C 0.83511 0.93311 0.08453 0.0
C563 C 0.84586 0.93216 0.10361 0.0
H564 H 0.36962 0.50232 0.86935 0.0
H565 H 0.432 0.61566 0.8604 0.0
H566 H 0.37409 0.48701 0.83599 0.0
H567 H 0.43786 0.59951 0.82671 0.0
H568 H 0.38438 0.57427 0.7656 0.0
H569 H 0.39522 0.59335 0.79869 0.0
H570 H 0.42097 0.46814 0.81215 0.0
H571 H 0.40821 0.44918 0.77943 0.0
C572 C 0.38511 0.52363 0.8603 0.0
C573 C 0.40075 0.56005 0.86755 0.0
C574 C 0.38791 0.51473 0.84112 0.0
C575 C 0.40694 0.54173 0.82867 0.0
C576 C 0.42296 0.57811 0.83592 0.0
C577 C 0.41982 0.58724 0.85521 0.0
C578 C 0.3935 0.55117 0.7756 0.0
C579 C 0.3951 0.51027 0.77012 0.0
C580 C 0.39967 0.56202 0.79454 0.0
C581 C 0.40804 0.5321 0.80815 0.0
C582 C 0.41336 0.49176 0.80216 0.0
C583 C 0.40649 0.48091 0.78339 0.0
H584 H 0.81861 0.1044 0.61713 0.0
H585 H 0.7212 0.19217 0.61241 0.0
H586 H 0.82878 0.1071 0.58309 0.0
H587 H 0.73221 0.19537 0.57818 0.0
H588 H 0.8062 0.21096 0.51988 0.0
H589 H 0.79472 0.21457 0.55412 0.0
H590 H 0.77747 0.08506 0.55548 0.0
H591 H 0.78795 0.08132 0.52149 0.0
C592 C 0.79987 0.12487 0.60889 0.0
C593 C 0.76907 0.1481 0.61745 0.0
C594 C 0.80558 0.12618 0.5894 0.0
C595 C 0.78115 0.1513 0.5781 0.0
C596 C 0.75149 0.17589 0.58667 0.0
C597 C 0.74521 0.174 0.60619 0.0
C598 C 0.79951 0.18338 0.52748 0.0
C599 C 0.79791 0.1459 0.51798 0.0
C600 C 0.79291 0.18549 0.54701 0.0
C601 C 0.78553 0.15005 0.55734 0.0
C602 C 0.78341 0.11275 0.54781 0.0
C603 C 0.78917 0.11073 0.52833 0.0
H604 H 0.14134 0.60768 0.27527 0.0
H605 H 0.21831 0.5027 0.26696 0.0
H606 H 0.13664 0.59204 0.30885 0.0
H607 H 0.21362 0.4872 0.30056 0.0
H608 H 0.16607 0.45192 0.35882 0.0
H609 H 0.16332 0.46578 0.32499 0.0
H610 H 0.18474 0.59271 0.33619 0.0
H611 H 0.18726 0.57903 0.36998 0.0
C612 C 0.15686 0.581 0.28055 0.0
C613 C 0.18014 0.55639 0.26842 0.0
C614 C 0.15439 0.57224 0.29981 0.0
C615 C 0.17478 0.53843 0.30734 0.0
C616 C 0.19721 0.51322 0.29514 0.0
C617 C 0.20003 0.52221 0.27591 0.0
C618 C 0.16964 0.48287 0.35409 0.0
C619 C 0.17682 0.51439 0.36709 0.0
C620 C 0.16838 0.49073 0.3347 0.0
C621 C 0.1739 0.5303 0.32794 0.0
C622 C 0.17993 0.56197 0.34098 0.0
C623 C 0.18147 0.55409 0.36034 0.0
H624 H 0.73022 0.70086 0.3864 0.0
H625 H 0.81236 0.59886 0.38176 0.0
H626 H 0.741 0.70199 0.42082 0.0
H627 H 0.82192 0.59925 0.41597 0.0
H628 H 0.77741 0.58205 0.4776 0.0
H629 H 0.76525 0.58738 0.44373 0.0
H630 H 0.80994 0.71012 0.44452 0.0
H631 H 0.823 0.70486 0.47857 0.0
C632 C 0.75074 0.679 0.39273 0.0
C633 C 0.77079 0.65007 0.38149 0.0
C634 C 0.75688 0.67966 0.41232 0.0
C635 C 0.78216 0.65063 0.4209 0.0
C636 C 0.80228 0.62189 0.40962 0.0
C637 C 0.79703 0.62191 0.39008 0.0
C638 C 0.78439 0.61037 0.47067 0.0
C639 C 0.80136 0.64302 0.4808 0.0
C640 C 0.7775 0.61329 0.45127 0.0
C641 C 0.78682 0.64908 0.44163 0.0
C642 C 0.80237 0.6823 0.45175 0.0
C643 C 0.80989 0.67921 0.47118 0.0
H644 H 0.15407 0.95753 0.64014 0.0
H645 H 0.2016 0.07772 0.63077 0.0
H646 H 0.14835 0.9724 0.67381 0.0
H647 H 0.19671 0.09221 0.66442 0.0
H648 H 0.15287 0.11795 0.72374 0.0
H649 H 0.14854 0.10297 0.69004 0.0
H650 H 0.19506 0.98238 0.70024 0.0
H651 H 0.19875 0.99703 0.73393 0.0
C652 C 0.16299 0.98722 0.64524 0.0
C653 C 0.17826 1.01645 0.63279 0.0
C654 C 0.15997 0.99563 0.66454 0.0
C655 C 0.17215 1.03344 0.6718 0.0
C656 C 0.1865 0.06299 0.65926 0.0
C657 C 0.18945 0.05461 0.63997 0.0
C658 C 0.16143 0.08797 0.71885 0.0
C659 C 0.17599 0.05862 0.73156 0.0
C660 C 0.15933 0.07954 0.69951 0.0
C661 C 0.17155 0.04153 0.69245 0.0
C662 C 0.18489 1.01178 0.70523 0.0
C663 C 0.18711 1.02023 0.72456 0.0
H664 H 0.82707 0.44955 0.98128 0.0
H665 H 0.69883 0.44692 0.96822 0.0
H666 H 0.8428 0.43449 0.94826 0.0
H667 H 0.71394 0.42892 0.93566 0.0
H668 H 0.75255 0.46122 0.87644 0.0
H669 H 0.7367 0.4635 0.90967 0.0
H670 H 0.84349 0.39096 0.92189 0.0
H671 H 0.86065 0.39086 0.88833 0.0
C672 C 0.80232 0.44452 0.9714 0.0
C673 C 0.76185 0.44977 0.97709 0.0
C674 C 0.81121 0.4357 0.9525 0.0
C675 C 0.77965 0.43109 0.93913 0.0
C676 C 0.7391 0.43355 0.94534 0.0
C677 C 0.73034 0.44348 0.96403 0.0
C678 C 0.77237 0.44519 0.88614 0.0
C679 C 0.80783 0.42582 0.87977 0.0
C680 C 0.76314 0.44626 0.9053 0.0
C681 C 0.78863 0.42719 0.91861 0.0
C682 C 0.82343 0.40646 0.91212 0.0
C683 C 0.8331 0.40605 0.89288 0.0
H684 H 0.41706 0.1204 0.13925 0.0
H685 H 0.38418 0.99563 0.12855 0.0
H686 H 0.42153 0.10616 0.17303 0.0
H687 H 0.38823 0.98165 0.16224 0.0
H688 H 0.43557 0.96118 0.2218 0.0
H689 H 0.43865 0.97745 0.18827 0.0
H690 H 0.37312 0.08893 0.19873 0.0
H691 H 0.37018 0.07285 0.23231 0.0
C692 C 0.41114 0.08988 0.14407 0.0
C693 C 0.40043 0.0591 0.1312 0.0
C694 C 0.41344 0.08182 0.16342 0.0
C695 C 0.4053 0.04278 0.17028 0.0
C696 C 0.39529 1.01188 0.15736 0.0
C697 C 0.39285 1.01995 0.13805 0.0
C698 C 0.42233 0.98944 0.21701 0.0
C699 C 0.40265 1.01573 0.22973 0.0
C700 C 0.42382 0.99859 0.19777 0.0
C701 C 0.40601 1.03439 0.19086 0.0
C702 C 0.38745 0.0613 0.20366 0.0
C703 C 0.38564 0.05198 0.22288 0.0
H704 H 0.34365 0.37421 0.61272 0.0
H705 H 0.28206 0.48993 0.61517 0.0
H706 H 0.33137 0.37122 0.5784 0.0
H707 H 0.27117 0.48756 0.58106 0.0
H708 H 0.3128 0.48884 0.51868 0.0
H709 H 0.32642 0.48563 0.55248 0.0
H710 H 0.26117 0.37271 0.55574 0.0
H711 H 0.24666 0.37595 0.52176 0.0
C712 C 0.32738 0.39877 0.60591 0.0
C713 C 0.31337 0.43204 0.61648 0.0
C714 C 0.32037 0.39706 0.5864 0.0
C715 C 0.30046 0.42921 0.57724 0.0
C716 C 0.2866 0.46245 0.58786 0.0
C717 C 0.29257 0.46362 0.60734 0.0
C718 C 0.30162 0.46303 0.52648 0.0
C719 C 0.27852 0.43265 0.51752 0.0
C720 C 0.30936 0.46135 0.54584 0.0
C721 C 0.29473 0.42899 0.55658 0.0
C722 C 0.27293 0.3978 0.54763 0.0
C723 C 0.26461 0.39975 0.52824 0.0
H724 H 0.92637 0.04459 0.26617 0.0
H725 H 0.81244 0.99353 0.28472 0.0
H726 H 0.94501 0.05819 0.2993 0.0
H727 H 0.83078 1.00726 0.31726 0.0
H728 H 0.88887 0.99366 0.37335 0.0
H729 H 0.8831 0.97963 0.33971 0.0
H730 H 0.91919 0.10231 0.32729 0.0
H731 H 0.92516 0.11658 0.36115 0.0
C732 C 0.90539 1.03636 0.27725 0.0
C733 C 0.86822 1.01752 0.27285 0.0
C734 C 0.916 0.04418 0.29614 0.0
C735 C 0.88963 1.03306 0.31082 0.0
C736 C 0.85219 1.01515 0.30629 0.0
C737 C 0.84165 1.00744 0.28758 0.0
C738 C 0.89647 1.01747 0.3635 0.0
C739 C 0.90702 0.05637 0.36993 0.0
C740 C 0.89293 1.00947 0.34422 0.0
C741 C 0.90013 0.04007 0.33093 0.0
C742 C 0.9135 0.07818 0.33725 0.0
C743 C 0.91677 0.08633 0.35662 0.0
H744 H 0.25718 0.62358 0.01615 0.0
H745 H 0.36483 0.69485 0.02729 0.0
H746 H 0.24008 0.62592 0.04953 0.0
H747 H 0.34717 0.69783 0.0607 0.0
H748 H 0.3318 0.6433 0.12025 0.0
H749 H 0.34627 0.64953 0.0867 0.0
H750 H 0.21861 0.67012 0.07539 0.0
H751 H 0.20398 0.66325 0.10899 0.0
C752 C 0.2768 0.64046 0.02564 0.0
C753 C 0.31246 0.65896 0.01902 0.0
C754 C 0.26689 0.64188 0.04481 0.0
C755 C 0.29236 0.66191 0.0578 0.0
C756 C 0.32723 0.68167 0.05108 0.0
C757 C 0.33717 0.68023 0.0319 0.0
C758 C 0.30685 0.6496 0.11065 0.0
C759 C 0.26675 0.65288 0.1173 0.0
C760 C 0.31519 0.65338 0.09141 0.0
C761 C 0.28361 0.66043 0.07837 0.0
C762 C 0.24357 0.66439 0.08506 0.0
C763 C 0.23524 0.66076 0.10433 0.0
H764 H 0.73511 0.05899 0.86602 0.0
H765 H 0.63481 0.97525 0.86098 0.0
H766 H 0.73347 0.06978 0.83199 0.0
H767 H 0.63265 0.98697 0.82674 0.0
H768 H 0.62426 0.06451 0.76944 0.0
H769 H 0.62067 0.05151 0.80348 0.0
H770 H 0.74775 1.01829 0.80386 0.0
H771 H 0.7515 1.03058 0.77005 0.0
C772 C 0.7122 0.04348 0.85768 0.0
C773 C 0.68494 1.0164 0.8661 0.0
C774 C 0.7115 0.04944 0.83821 0.0
C775 C 0.68301 1.02909 0.82685 0.0
C776 C 0.65478 1.00305 0.83529 0.0
C777 C 0.65606 0.99636 0.85479 0.0
C778 C 0.65128 0.05403 0.77676 0.0
C779 C 0.68816 0.04869 0.76705 0.0
C780 C 0.64916 0.04653 0.79617 0.0
C781 C 0.684 1.03422 0.80617 0.0
C782 C 0.72058 1.02814 0.79643 0.0
C783 C 0.72259 1.03504 0.77706 0.0
H784 H 0.22602 0.44928 0.18582 0.0
H785 H 0.25969 0.52133 0.13761 0.0
H786 H 0.25014 0.38792 0.16925 0.0
H787 H 0.28355 0.46095 0.12143 0.0
H788 H 0.36369 0.3599 0.10367 0.0
H789 H 0.34185 0.413 0.1255 0.0
H790 H 0.23492 0.34365 0.13904 0.0
H791 H 0.25711 0.29016 0.11691 0.0
C792 C 0.23824 0.45212 0.17172 0.0
C793 C 0.24102 0.49056 0.16318 0.0
C794 C 0.25208 0.41692 0.16222 0.0
C795 C 0.26949 0.41946 0.14409 0.0
C796 C 0.27125 0.45777 0.13551 0.0
C797 C 0.25722 0.49257 0.14483 0.0
C798 C 0.33632 0.35522 0.11184 0.0
C799 C 0.31245 0.32053 0.10872 0.0
C800 C 0.32343 0.38596 0.12418 0.0
C801 C 0.28618 0.38308 0.13382 0.0
C802 C 0.26377 0.34691 0.13188 0.0
C803 C 0.27662 0.31607 0.11933 0.0
H804 H 0.50928 0.59836 0.37421 0.0
H805 H 0.49313 0.49173 0.33958 0.0
H806 H 0.4582 0.57254 0.39649 0.0
H807 H 0.44243 0.46628 0.36152 0.0
H808 H 0.3111 0.47579 0.38456 0.0
H809 H 0.37174 0.49455 0.36709 0.0
H810 H 0.43698 0.51281 0.41943 0.0
H811 H 0.37576 0.49323 0.43713 0.0
C812 C 0.4958 0.56893 0.37166 0.0
C813 C 0.50501 0.54728 0.35504 0.0
C814 C 0.46644 0.55418 0.38436 0.0
C815 C 0.44568 0.51765 0.3806 0.0
C816 C 0.45724 0.49482 0.36469 0.0
C817 C 0.48649 0.50933 0.35216 0.0
C818 C 0.33843 0.48332 0.39241 0.0
C819 C 0.33856 0.48272 0.41226 0.0
C820 C 0.37332 0.49401 0.38237 0.0
C821 C 0.40936 0.50509 0.39183 0.0
C822 C 0.40971 0.50449 0.41172 0.0
C823 C 0.37478 0.49295 0.42184 0.0
H824 H 0.34304 0.75828 0.59929 0.0
H825 H 0.2192 0.74268 0.61749 0.0
H826 H 0.36551 0.70585 0.62129 0.0
H827 H 0.24176 0.68993 0.63977 0.0
H828 H 0.31061 0.61316 0.68684 0.0
H829 H 0.28889 0.67392 0.66933 0.0
H830 H 0.35189 0.62959 0.62001 0.0
H831 H 0.37223 0.56866 0.63725 0.0
C832 C 0.32077 0.74448 0.60846 0.0
C833 C 0.2794 0.75504 0.60678 0.0
C834 C 0.33359 0.71409 0.62093 0.0
C835 C 0.30545 0.69325 0.63217 0.0
C836 C 0.2643 0.70552 0.63142 0.0
C837 C 0.25137 0.73596 0.61877 0.0
C838 C 0.32021 0.61678 0.67233 0.0
C839 C 0.34354 0.58634 0.66348 0.0
C840 C 0.30747 0.65138 0.66226 0.0
C841 C 0.31881 0.65685 0.64327 0.0
C842 C 0.3429 0.62666 0.63464 0.0
C843 C 0.35457 0.59169 0.64451 0.0
H844 H 0.20739 0.57802 0.93921 0.0
H845 H 0.2656 0.60495 0.88625 0.0
H846 H 0.14513 0.55805 0.92197 0.0
H847 H 0.2035 0.58641 0.86928 0.0
H848 H 0.0727 0.59832 0.84819 0.0
H849 H 0.12633 0.61833 0.87021 0.0
H850 H 0.12837 0.49774 0.89332 0.0
H851 H 0.07504 0.47702 0.87066 0.0
C852 C 0.2067 0.58029 0.92396 0.0
C853 C 0.24138 0.59345 0.91412 0.0
C854 C 0.17122 0.56851 0.9141 0.0
C855 C 0.16938 0.57073 0.89427 0.0
C856 C 0.20386 0.58452 0.88455 0.0
C857 C 0.23945 0.5952 0.8943 0.0
C858 C 0.08384 0.57617 0.85823 0.0
C859 C 0.06964 0.53592 0.8575 0.0
C860 C 0.11471 0.58767 0.87081 0.0
C861 C 0.13192 0.55957 0.88336 0.0
C862 C 0.1156 0.52011 0.88383 0.0
C863 C 0.08485 0.50832 0.87095 0.0
H864 H 0.88932 0.58149 0.85669 0.0
H865 H 0.79738 0.60027 0.81408 0.0
H866 H 0.86658 0.6428 0.87329 0.0
H867 H 0.77374 0.66134 0.83084 0.0
H868 H 0.71458 0.73135 0.88318 0.0
H869 H 0.73883 0.67859 0.86136 0.0
H870 H 0.86245 0.71751 0.87093 0.0
H871 H 0.83799 0.76988 0.89274 0.0
C872 C 0.86459 0.59917 0.85075 0.0
C873 C 0.84557 0.58652 0.83396 0.0
C874 C 0.85151 0.63438 0.86022 0.0
C875 C 0.81829 0.65737 0.85343 0.0
C876 C 0.79934 0.64456 0.83654 0.0
C877 C 0.81308 0.60979 0.82683 0.0
C878 C 0.74674 0.7297 0.87996 0.0
C879 C 0.77426 0.75554 0.88931 0.0
C880 C 0.76076 0.69918 0.86757 0.0
C881 C 0.80276 0.69336 0.86444 0.0
C882 C 0.83 0.72063 0.87312 0.0
C883 C 0.81596 0.75115 0.88539 0.0
H884 H 0.76428 0.61099 0.61246 0.0
H885 H 0.70938 0.57043 0.56029 0.0
H886 H 0.70291 0.59206 0.62959 0.0
H887 H 0.64794 0.55019 0.57768 0.0
H888 H 0.57753 0.47454 0.62819 0.0
H889 H 0.63046 0.49594 0.60579 0.0
H890 H 0.62683 0.61654 0.62942 0.0
H891 H 0.57386 0.59562 0.65131 0.0
C892 C 0.73898 0.59822 0.60462 0.0
C893 C 0.74164 0.59273 0.58496 0.0
C894 C 0.70374 0.58734 0.61445 0.0
C895 C 0.67038 0.56966 0.60503 0.0
C896 C 0.67305 0.56373 0.58536 0.0
C897 C 0.70808 0.57566 0.57539 0.0
C898 C 0.58693 0.50597 0.62807 0.0
C899 C 0.57136 0.53334 0.64158 0.0
C900 C 0.61749 0.51817 0.61535 0.0
C901 C 0.63335 0.55784 0.61602 0.0
C902 C 0.61577 0.58568 0.62868 0.0
C903 C 0.58514 0.57371 0.64114 0.0
H904 H 0.76905 0.53075 0.36116 0.0
H905 H 0.72409 0.45407 0.31616 0.0
H906 H 0.79191 0.47153 0.37836 0.0
H907 H 0.74777 0.39398 0.33353 0.0
H908 H 0.75938 0.29916 0.38458 0.0
H909 H 0.73686 0.35269 0.36277 0.0
H910 H 0.84494 0.42124 0.3762 0.0
H911 H 0.86657 0.36844 0.39806 0.0
C912 C 0.76407 0.50118 0.35485 0.0
C913 C 0.74491 0.49741 0.33714 0.0
C914 C 0.77756 0.46703 0.36472 0.0
C915 C 0.77251 0.42775 0.35725 0.0
C916 C 0.75228 0.42369 0.33974 0.0
C917 C 0.73873 0.45815 0.32976 0.0
C918 C 0.77881 0.32513 0.38235 0.0
C919 C 0.81487 0.32952 0.39293 0.0
C920 C 0.76584 0.35595 0.36994 0.0
C921 C 0.7886 0.39186 0.36798 0.0
C922 C 0.82604 0.39462 0.37765 0.0
C923 C 0.83881 0.36408 0.39 0.0
H924 H 0.81894 0.46764 0.11299 0.0
H925 H 0.87081 0.50597 0.06018 0.0
H926 H 0.882 0.48575 0.1294 0.0
H927 H 0.93383 0.52562 0.07685 0.0
H928 H 1.00444 0.60186 0.12922 0.0
H929 H 0.95083 0.58149 0.10666 0.0
H930 H 0.95993 0.45837 0.12638 0.0
H931 H 1.01367 0.47833 0.1484 0.0
C932 C 0.84391 0.47983 0.10488 0.0
C933 C 0.84002 0.48493 0.08526 0.0
C934 C 0.88003 0.49022 0.11427 0.0
C935 C 0.91293 0.50709 0.10442 0.0
C936 C 0.90903 0.51267 0.0848 0.0
C937 C 0.87313 0.50113 0.07527 0.0
C938 C 0.99623 0.57017 0.12811 0.0
C939 C 1.01344 0.54169 0.14058 0.0
C940 C 0.96529 0.55856 0.11531 0.0
C941 C 0.9508 0.51839 0.11495 0.0
C942 C 0.97015 0.48956 0.12645 0.0
C943 C 1.00118 0.50097 0.13896 0.0
H944 H 0.73668 0.82258 0.59538 0.0
H945 H 0.85675 0.82771 0.61993 0.0
H946 H 0.71298 0.87394 0.61773 0.0
H947 H 0.83286 0.87936 0.6426 0.0
H948 H 0.75995 0.95841 0.6875 0.0
H949 H 0.78046 0.89696 0.67003 0.0
H950 H 0.7325 0.94879 0.61869 0.0
H951 H 0.71321 1.01013 0.63593 0.0
C952 C 0.7577 0.83379 0.60599 0.0
C953 C 0.79854 0.82084 0.60593 0.0
C954 C 0.74421 0.86355 0.61869 0.0
C955 C 0.77109 0.88126 0.63181 0.0
C956 C 0.8113 0.86624 0.63274 0.0
C957 C 0.82495 0.83644 0.61985 0.0
C958 C 0.75333 0.95633 0.67253 0.0
C959 C 0.73463 0.98904 0.66312 0.0
C960 C 0.7654 0.9213 0.6625 0.0
C961 C 0.75799 0.91779 0.64295 0.0
C962 C 0.73835 0.9502 0.63375 0.0
C963 C 0.72731 0.98545 0.64362 0.0
H964 H 1.00091 0.98643 0.84377 0.0
H965 H 0.99868 0.10314 0.87126 0.0
H966 H 0.95119 0.96089 0.8663 0.0
H967 H 0.94825 0.07776 0.8939 0.0
H968 H 0.87007 1.00653 0.93801 0.0
H969 H 0.93092 1.02688 0.92021 0.0
H970 H 0.87785 0.97702 0.86935 0.0
H971 H 0.81745 0.95766 0.88692 0.0
C972 C 0.99052 1.00632 0.85498 0.0
C973 C 1.004 0.04667 0.85583 0.0
C974 C 0.96169 0.99183 0.86781 0.0
C975 C 0.94518 1.01734 0.88182 0.0
C976 C 0.96046 0.05713 0.8834 0.0
C977 C 0.98947 0.07169 0.87048 0.0
C978 C 0.87191 0.99932 0.92309 0.0
C979 C 0.83908 0.98015 0.9139 0.0
C980 C 0.90655 1.01132 0.91286 0.0
C981 C 0.90952 1.00348 0.89331 0.0
C982 C 0.87705 0.98318 0.88438 0.0
C983 C 0.84228 0.97211 0.89446 0.0
H984 H 0.83375 0.05689 0.13567 0.0
H985 H 0.8496 0.12731 0.18671 0.0
H986 H 0.81011 0.11682 0.11917 0.0
H987 H 0.82541 0.18814 0.16993 0.0
H988 H 0.82144 0.28969 0.11975 0.0
H989 H 0.8433 0.23627 0.14187 0.0
H990 H 0.74741 0.15895 0.12091 0.0
H991 H 0.72592 0.21185 0.09913 0.0
C992 C 0.8323 0.08524 0.14342 0.0
C993 C 0.84336 0.08701 0.16261 0.0
C994 C 0.81844 0.11971 0.13394 0.0
C995 C 0.81503 0.15728 0.14328 0.0
C996 C 0.82758 0.15968 0.16231 0.0
C997 C 0.84151 0.12485 0.17191 0.0
C998 C 0.80421 0.26182 0.12046 0.0
C999 C 0.77185 0.25501 0.10777 0.0
C1000 C 0.81687 0.2311 0.13301 0.0
C1001 C 0.7977 0.19292 0.13287 0.0
C1002 C 0.76342 0.18759 0.12117 0.0
C1003 C 0.75072 0.21813 0.10883 0.0
H1004 H 0.77705 0.05242 0.38993 0.0
H1005 H 0.70285 0.10856 0.43298 0.0
H1006 H 0.71621 1.03054 0.37326 0.0
H1007 H 0.64133 0.08629 0.41611 0.0
H1008 H 0.54864 0.08035 0.36364 0.0
H1009 H 0.6033 0.09896 0.38576 0.0
H1010 H 0.6601 0.98245 0.3764 0.0
H1011 H 0.60555 0.96425 0.35439 0.0
C1012 C 0.74772 0.06009 0.39591 0.0
C1013 C 0.74508 0.08231 0.41288 0.0
C1014 C 0.71266 0.04716 0.38637 0.0
C1015 C 0.67364 0.05612 0.3934 0.0
C1016 C 0.67082 0.07885 0.41026 0.0
C1017 C 0.70612 0.0916 0.41994 0.0
C1018 C 0.57198 0.05821 0.36696 0.0
C1019 C 0.57241 1.02053 0.3576 0.0
C1020 C 0.6035 0.06893 0.37952 0.0
C1021 C 0.63656 0.04248 0.3827 0.0
C1022 C 0.63553 1.00386 0.37412 0.0
C1023 C 0.60393 0.99309 0.36173 0.0
H1024 H 0.22589 0.24991 0.37905 0.0
H1025 H 0.34976 0.25966 0.39871 0.0
H1026 H 0.24681 0.19628 0.3567 0.0
H1027 H 0.37037 0.20606 0.37683 0.0
H1028 H 0.36837 0.06737 0.3618 0.0
H1029 H 0.3496 0.12959 0.37859 0.0
H1030 H 0.29772 0.17802 0.32737 0.0
H1031 H 0.318 0.11586 0.3103 0.0
C1032 C 0.25777 0.24179 0.3781 0.0
C1033 C 0.28618 0.25938 0.3906 0.0
C1034 C 0.26973 0.21078 0.36542 0.0
C1035 C 0.31022 0.19641 0.36516 0.0
C1036 C 0.33891 0.21596 0.37679 0.0
C1037 C 0.32713 0.24703 0.38921 0.0
C1038 C 0.35347 0.09148 0.35403 0.0
C1039 C 0.34523 0.08682 0.33465 0.0
C1040 C 0.34269 0.12719 0.36365 0.0
C1041 C 0.32221 0.15896 0.35435 0.0
C1042 C 0.31349 0.15422 0.33496 0.0
C1043 C 0.32543 0.1188 0.32516 0.0
H1044 H 0.0423 0.07333 0.13227 0.0
H1045 H 0.11541 0.97007 0.14781 0.0
H1046 H 0.09523 0.09455 0.10987 0.0
H1047 H 0.16782 0.99074 0.12561 0.0
H1048 H 0.27469 0.07073 0.11108 0.0
H1049 H 0.21516 0.04793 0.12791 0.0
H1050 H 0.13913 0.07944 0.08034 0.0
H1051 H 0.19974 0.10274 0.06314 0.0
C1052 C 0.06892 0.05434 0.13036 0.0
C1053 C 0.07446 1.01975 0.14167 0.0
C1054 C 0.09941 0.06662 0.11762 0.0
C1055 C 0.1363 0.04484 0.11615 0.0
C1056 C 0.14029 1.00877 0.12657 0.0
C1057 C 0.10996 0.99652 0.13913 0.0
C1058 C 0.24545 0.073 0.10404 0.0
C1059 C 0.2424 0.08848 0.08559 0.0
C1060 C 0.2111 0.05955 0.11374 0.0
C1061 C 0.17218 0.06103 0.10544 0.0
C1062 C 0.1686 0.07772 0.08719 0.0
C1063 C 0.20336 0.09112 0.07733 0.0
H1064 H 0.36554 0.86484 0.90135 0.0
H1065 H 0.26283 0.79344 0.88342 0.0
H1066 H 0.34582 0.91839 0.87948 0.0
H1067 H 0.24236 0.84747 0.86151 0.0
H1068 H 0.23305 0.94903 0.81562 0.0
H1069 H 0.25651 0.88959 0.83336 0.0
H1070 H 0.29157 0.96761 0.87973 0.0
H1071 H 0.2689 1.02651 0.86204 0.0
C1072 C 0.33939 0.86012 0.89224 0.0
C1073 C 0.3161 0.82469 0.8939 0.0
C1074 C 0.32762 0.89111 0.87991 0.0
C1075 C 0.29194 0.88782 0.86893 0.0
C1076 C 0.27003 0.85115 0.86968 0.0
C1077 C 0.28188 0.82 0.88212 0.0
C1078 C 0.24566 0.95342 0.82963 0.0
C1079 C 0.24929 0.99273 0.83731 0.0
C1080 C 0.25908 0.91929 0.83982 0.0
C1081 C 0.27659 0.92363 0.85792 0.0
C1082 C 0.27931 0.96294 0.86567 0.0
C1083 C 0.26596 0.99687 0.85554 0.0
H1084 H 0.51104 0.98082 0.64957 0.0
H1085 H 0.50262 0.1026 0.62804 0.0
H1086 H 0.45789 0.95909 0.62765 0.0
H1087 H 0.44953 0.08038 0.60557 0.0
H1088 H 0.37024 1.00305 0.55984 0.0
H1089 H 0.43258 1.02428 0.57671 0.0
H1090 H 0.38071 0.98382 0.62915 0.0
H1091 H 0.31852 0.96405 0.61256 0.0
C1092 C 0.49875 1.00272 0.63969 0.0
C1093 C 0.51119 0.0435 0.64062 0.0
C1094 C 0.46805 0.99027 0.62721 0.0
C1095 C 0.4491 1.01803 0.615 0.0
C1096 C 0.46364 0.0582 0.61476 0.0
C1097 C 0.49428 0.07088 0.62752 0.0
C1098 C 0.3725 0.99828 0.57493 0.0
C1099 C 0.3396 0.9814 0.58484 0.0
C1100 C 0.40799 1.0108 0.5846 0.0
C1101 C 0.4117 1.0056 0.60427 0.0
C1102 C 0.37902 0.988 0.614 0.0
C1103 C 0.34336 0.97659 0.60448 0.0
H1104 H 0.60263 0.04281 0.94852 0.0
H1105 H 0.63031 0.95726 0.99256 0.0
H1106 H 0.5476 0.071 0.96755 0.0
H1107 H 0.57395 0.98362 0.01125 0.0
H1108 H 0.49267 0.05939 0.04957 0.0
H1109 H 0.54864 1.03362 0.03048 0.0
H1110 H 0.48329 0.06724 0.9798 0.0
H1111 H 0.4283 0.09443 0.999 0.0
C1112 C 0.59652 1.02944 0.96215 0.0
C1113 C 0.62118 0.99756 0.96887 0.0
C1114 C 0.56458 0.0456 0.97318 0.0
C1115 C 0.55553 1.03009 0.99127 0.0
C1116 C 0.5799 0.99753 0.99775 0.0
C1117 C 0.61228 0.98191 0.98686 0.0
C1118 C 0.49035 0.06169 0.03436 0.0
C1119 C 0.4556 0.07934 0.02601 0.0
C1120 C 0.52253 0.04632 0.02325 0.0
C1121 C 0.52121 0.04764 0.00328 0.0
C1122 C 0.48647 0.06578 0.99499 0.0
C1123 C 0.45444 0.08137 0.00611 0.0
H1124 H 0.73069 0.75371 0.29594 0.0
H1125 H 0.77649 0.6705 0.25392 0.0
H1126 H 0.75527 0.81075 0.27714 0.0
H1127 H 0.80236 0.72671 0.23564 0.0
H1128 H 0.81547 0.8364 0.19708 0.0
H1129 H 0.78846 0.78052 0.2156 0.0
H1130 H 0.8118 0.84794 0.26691 0.0
H1131 H 0.83802 0.90392 0.24833 0.0
C1132 C 0.74606 0.74745 0.28274 0.0
C1133 C 0.75103 0.70712 0.27651 0.0
C1134 C 0.76056 0.78032 0.27193 0.0
C1135 C 0.78108 0.77402 0.2546 0.0
C1136 C 0.78608 0.73355 0.24853 0.0
C1137 C 0.77119 0.70092 0.25917 0.0
C1138 C 0.81501 0.83935 0.21231 0.0
C1139 C 0.82918 0.87512 0.22103 0.0
C1140 C 0.79956 0.80697 0.22307 0.0
C1141 C 0.79755 0.80904 0.24301 0.0
C1142 C 0.81196 0.84485 0.25169 0.0
C1143 C 0.82751 0.87714 0.24093 0.0
H1144 H 0.99922 0.08373 0.4522 0.0
H1145 H 0.92084 0.08062 0.50083 0.0
H1146 H 0.05499 0.05632 0.47111 0.0
H1147 H 0.9759 0.05166 0.51961 0.0
H1148 H 0.09278 1.02918 0.55393 0.0
H1149 H 1.03727 0.05885 0.53558 0.0
H1150 H 0.08259 0.99937 0.48539 0.0
H1151 H 0.13859 0.97089 0.50367 0.0
C1152 C 0.99379 0.0773 0.46695 0.0
C1153 C 0.95521 0.08486 0.47486 0.0
C1154 C 1.02588 0.06099 0.47787 0.0
C1155 C 1.02061 0.05107 0.49712 0.0
C1156 C 0.98203 0.05918 0.50504 0.0
C1157 C 0.95008 0.07588 0.49417 0.0
C1158 C 0.09085 1.02221 0.53899 0.0
C1159 C 0.12068 0.99753 0.53043 0.0
C1160 C 0.05865 0.03925 0.52836 0.0
C1161 C 0.05486 1.03216 0.50871 0.0
C1162 C 0.08438 1.00672 0.50028 0.0
C1163 C 0.11663 0.98988 0.5109 0.0
H1164 H 0.76461 0.24163 0.69849 0.0
H1165 H 0.73697 0.17509 0.74909 0.0
H1166 H 0.7921 0.29676 0.7176 0.0
H1167 H 0.7633 0.23072 0.76832 0.0
H1168 H 0.84517 0.32383 0.79894 0.0
H1169 H 0.81904 0.26703 0.78002 0.0
H1170 H 0.7792 0.35125 0.73717 0.0
H1171 H 0.80633 0.40694 0.75574 0.0
C1172 C 0.7639 0.23885 0.71372 0.0
C1173 C 0.74812 0.2036 0.72207 0.0
C1174 C 0.77962 0.27083 0.72483 0.0
C1175 C 0.78019 0.269 0.74479 0.0
C1176 C 0.76421 0.23367 0.75311 0.0
C1177 C 0.74853 0.20165 0.74199 0.0
C1178 C 0.83099 0.33009 0.78543 0.0
C1179 C 0.82882 0.37023 0.77878 0.0
C1180 C 0.81564 0.29741 0.77452 0.0
C1181 C 0.79695 0.30378 0.75671 0.0
C1182 C 0.79425 0.3442 0.75038 0.0
C1183 C 0.81 0.37656 0.76112 0.0
H1184 H 0.24664 0.24582 0.7972 0.0
H1185 H 0.26226 0.16603 0.74932 0.0
H1186 H 0.2709 0.30255 0.7783 0.0
H1187 H 0.28503 0.22237 0.73035 0.0
H1188 H 0.35839 0.32423 0.70307 0.0
H1189 H 0.33502 0.26732 0.72225 0.0
H1190 H 0.26046 0.34959 0.75497 0.0
H1191 H 0.28597 0.40612 0.73656 0.0
C1192 C 0.25483 0.24028 0.78262 0.0
C1193 C 0.25219 0.20084 0.77501 0.0
C1194 C 0.26868 0.27311 0.77159 0.0
C1195 C 0.2804 0.26785 0.75249 0.0
C1196 C 0.27731 0.22834 0.74494 0.0
C1197 C 0.26361 0.19567 0.75593 0.0
C1198 C 0.33691 0.33001 0.71432 0.0
C1199 C 0.32427 0.36995 0.71823 0.0
C1200 C 0.32317 0.29721 0.7254 0.0
C1201 C 0.29552 0.30305 0.74051 0.0
C1202 C 0.28237 0.34317 0.74399 0.0
C1203 C 0.2968 0.37588 0.73323 0.0
H1204 H 0.25102 0.7469 0.19874 0.0
H1205 H 0.24905 0.67133 0.24822 0.0
H1206 H 0.27797 0.8028 0.21762 0.0
H1207 H 0.27796 0.72615 0.26696 0.0
H1208 H 0.30011 0.84188 0.30105 0.0
H1209 H 0.27134 0.78672 0.28242 0.0
H1210 H 0.33217 0.83202 0.23285 0.0
H1211 H 0.35919 0.88819 0.25142 0.0
C1212 C 0.2564 0.7421 0.21367 0.0
C1213 C 0.24737 0.70438 0.22185 0.0
C1214 C 0.27243 0.77425 0.22458 0.0
C1215 C 0.28075 0.76976 0.24409 0.0
C1216 C 0.27156 0.73183 0.2522 0.0
C1217 C 0.25496 0.69996 0.24135 0.0
C1218 C 0.30756 0.84001 0.28619 0.0
C1219 C 0.33221 0.86984 0.27789 0.0
C1220 C 0.29108 0.80796 0.27538 0.0
C1221 C 0.2989 0.80413 0.25582 0.0
C1222 C 0.32428 0.83374 0.24765 0.0
C1223 C 0.34036 0.86603 0.25843 0.0
H1224 H 1.00285 0.60649 0.54395 0.0
H1225 H 0.919 0.54671 0.50625 0.0
H1226 H 0.06004 0.58119 0.52518 0.0
H1227 H 0.97566 0.51916 0.48815 0.0
H1228 H 0.08318 0.50183 0.44819 0.0
H1229 H 1.02652 0.52895 0.46649 0.0
H1230 H 0.10152 0.52751 0.51675 0.0
H1231 H 0.15826 0.50154 0.49827 0.0
C1232 C 0.99663 0.5876 0.53173 0.0
C1233 C 0.95617 0.57903 0.52658 0.0
C1234 C 1.02957 0.57266 0.52094 0.0
C1235 C 1.02326 0.5477 0.50487 0.0
C1236 C 0.98251 0.5389 0.49997 0.0
C1237 C 0.94969 0.55462 0.51048 0.0
C1238 C 0.08762 0.5072 0.46315 0.0
C1239 C 0.12565 0.49912 0.47161 0.0
C1240 C 0.05478 0.52266 0.47381 0.0
C1241 C 0.05864 0.53083 0.49338 0.0
C1242 C 0.0968 0.52249 0.50179 0.0
C1243 C 0.12955 0.50696 0.49114 0.0
H1244 H 0.64779 0.47584 0.00132 0.0
H1245 H 0.58814 0.51728 0.05191 0.0
H1246 H 0.59454 0.5051 0.98228 0.0
H1247 H 0.53222 0.54334 0.03318 0.0
H1248 H 0.44171 0.61081 0.99692 0.0
H1249 H 0.4975 0.58461 0.01562 0.0
H1250 H 0.53774 0.5138 0.96744 0.0
H1251 H 0.48358 0.54282 0.94867 0.0
C1252 C 0.62303 0.49103 0.00847 0.0
C1253 C 0.62315 0.49458 0.02829 0.0
C1254 C 0.59145 0.50765 0.9974 0.0
C1255 C 0.55766 0.52764 0.00567 0.0
C1256 C 0.55735 0.52972 0.02568 0.0
C1257 C 0.58956 0.51398 0.0367 0.0
C1258 C 0.46285 0.58998 0.99027 0.0
C1259 C 0.45784 0.57925 0.97114 0.0
C1260 C 0.49511 0.57414 0.00119 0.0
C1261 C 0.52337 0.54593 0.99362 0.0
C1262 C 0.51809 0.53555 0.9743 0.0
C1263 C 0.48636 0.55217 0.9633 0.0
H1264 H 0.37155 0.79399 0.97605 0.0
H1265 H 0.25833 0.84565 0.95614 0.0
H1266 H 0.36819 0.83631 0.00422 0.0
H1267 H 0.25642 0.88994 0.98347 0.0
H1268 H 0.2514 0.96749 0.03192 0.0
H1269 H 0.24934 0.9022 0.01566 0.0
H1270 H 0.38036 0.90529 0.00998 0.0
H1271 H 0.38213 0.96891 0.0275 0.0
C1272 C 0.34549 0.81379 0.97785 0.0
C1273 C 0.31537 0.81676 0.96373 0.0
C1274 C 0.34386 0.83847 0.99391 0.0
C1275 C 0.31234 0.86698 0.99611 0.0
C1276 C 0.28098 0.8681 0.9825 0.0
C1277 C 0.28236 0.84312 0.96659 0.0
C1278 C 0.27975 0.95311 0.02786 0.0
C1279 C 0.31686 0.97291 0.03077 0.0
C1280 C 0.27864 0.91603 0.01835 0.0
C1281 C 0.31452 0.89901 0.01094 0.0
C1282 C 0.35207 0.9172 0.01551 0.0
C1283 C 0.35321 0.95375 0.02554 0.0
H1284 H 1.01232 0.61414 0.21804 0.0
H1285 H 1.00854 0.48573 0.20654 0.0
H1286 H 0.96565 0.6054 0.24423 0.0
H1287 H 0.96344 0.47618 0.23346 0.0
H1288 H 0.83252 0.49233 0.25581 0.0
H1289 H 0.89481 0.48971 0.23788 0.0
H1290 H 0.94693 0.58194 0.2742 0.0
H1291 H 0.88287 0.586 0.29158 0.0
C1292 C 1.00248 0.58382 0.22159 0.0
C1293 C 1.01357 0.55064 0.21027 0.0
C1294 C 0.97591 0.57866 0.2367 0.0
C1295 C 0.96034 0.54007 0.24093 0.0
C1296 C 0.97405 0.50645 0.23037 0.0
C1297 C 1.00001 0.51178 0.21503 0.0
C1298 C 0.85761 0.51138 0.26026 0.0
C1299 C 0.85278 0.53983 0.27486 0.0
C1300 C 0.89364 0.50969 0.25003 0.0
C1301 C 0.92595 0.53603 0.25437 0.0
C1302 C 0.92232 0.56191 0.27017 0.0
C1303 C 0.88586 0.56401 0.28026 0.0
H1304 H 0.31718 0.06974 0.49951 0.0
H1305 H 0.23453 0.12376 0.53972 0.0
H1306 H 0.32154 0.13301 0.48282 0.0
H1307 H 0.24027 0.18891 0.52326 0.0
H1308 H 0.21145 0.26455 0.46825 0.0
H1309 H 0.21633 0.21519 0.49362 0.0
H1310 H 0.34473 0.20035 0.48229 0.0
H1311 H 0.33918 0.24854 0.45638 0.0
C1312 C 0.30079 0.09566 0.50512 0.0
C1313 C 0.27547 0.09192 0.5209 0.0
C1314 C 0.3036 0.13223 0.49561 0.0
C1315 C 0.28157 0.16634 0.50176 0.0
C1316 C 0.25744 0.16311 0.5181 0.0
C1317 C 0.25428 0.12602 0.52757 0.0
C1318 C 0.2409 0.25148 0.47155 0.0
C1319 C 0.27481 0.25968 0.4602 0.0
C1320 C 0.24378 0.2233 0.48615 0.0
C1321 C 0.28074 0.20313 0.48975 0.0
C1322 C 0.31553 0.2145 0.47955 0.0
C1323 C 0.31249 0.24217 0.46477 0.0
H1324 H 0.56968 0.58488 0.70971 0.0
H1325 H 0.57258 0.45514 0.71664 0.0
H1326 H 0.61435 0.59286 0.73714 0.0
H1327 H 0.61902 0.46246 0.74326 0.0
H1328 H 0.70499 0.47867 0.79001 0.0
H1329 H 0.639 0.48258 0.7739 0.0
H1330 H 0.68382 0.58182 0.74015 0.0
H1331 H 0.74807 0.57887 0.75671 0.0
C1332 C 0.57954 0.55817 0.71733 0.0
C1333 C 0.56815 0.51944 0.71111 0.0
C1334 C 0.60524 0.5626 0.73296 0.0
C1335 C 0.62098 0.52828 0.74227 0.0
C1336 C 0.60724 0.48965 0.73668 0.0
C1337 C 0.58086 0.48534 0.72132 0.0
C1338 C 0.69998 0.50205 0.77956 0.0
C1339 C 0.73162 0.52801 0.77432 0.0
C1340 C 0.6624 0.50413 0.77021 0.0
C1341 C 0.65617 0.53203 0.75544 0.0
C1342 C 0.68701 0.56016 0.7515 0.0
C1343 C 0.7242 0.55823 0.76089 0.0
H1344 H 0.82941 0.09226 0.98465 0.0
H1345 H 0.70885 0.11874 0.96355 0.0
H1346 H 0.8307 0.15747 0.0011 0.0
H1347 H 0.70979 0.18379 0.98051 0.0
H1348 H 0.81598 0.28813 0.02576 0.0
H1349 H 0.81801 0.24262 0.99796 0.0
H1350 H 0.71515 0.17701 0.0198 0.0
H1351 H 0.71399 0.22125 0.04751 0.0
C1352 C 0.80375 0.11269 0.98304 0.0
C1353 C 0.76881 0.10049 0.97309 0.0
C1354 C 0.80466 0.15006 0.99232 0.0
C1355 C 0.77032 0.17536 0.99205 0.0
C1356 C 0.73667 0.1647 0.98078 0.0
C1357 C 0.73611 0.12759 0.97114 0.0
C1358 C 0.79366 0.26422 0.02435 0.0
C1359 C 0.765 0.25767 0.03864 0.0
C1360 C 0.79467 0.23851 0.00852 0.0
C1361 C 0.7663 0.20692 0.00672 0.0
C1362 C 0.73671 0.20173 0.0207 0.0
C1363 C 0.73628 0.22668 0.03658 0.0
H1364 H 0.19752 0.49227 0.70767 0.0
H1365 H 0.24804 0.57901 0.74702 0.0
H1366 H 0.13147 0.49798 0.72342 0.0
H1367 H 0.18332 0.58391 0.763 0.0
H1368 H 0.06802 0.59137 0.79162 0.0
H1369 H 0.11352 0.60107 0.76483 0.0
H1370 H 0.11021 0.47223 0.7534 0.0
H1371 H 0.06366 0.46314 0.77963 0.0
C1372 C 0.1942 0.51316 0.71941 0.0
C1373 C 0.22785 0.53465 0.72638 0.0
C1374 C 0.15655 0.51631 0.72849 0.0
C1375 C 0.15215 0.54097 0.74465 0.0
C1376 C 0.18522 0.56492 0.75052 0.0
C1377 C 0.22259 0.56182 0.74146 0.0
C1378 C 0.07625 0.56544 0.78299 0.0
C1379 C 0.06287 0.52649 0.78775 0.0
C1380 C 0.10234 0.57089 0.76771 0.0
C1381 C 0.11617 0.53733 0.75716 0.0
C1382 C 0.09998 0.49885 0.76104 0.0
C1383 C 0.07344 0.49353 0.77616 0.0
H1384 H 0.888 0.96921 0.47013 0.0
H1385 H 0.75811 0.96006 0.46265 0.0
H1386 H 0.88767 0.90859 0.48952 0.0
H1387 H 0.75769 0.89772 0.48099 0.0
H1388 H 0.7625 0.8504 0.5419 0.0
H1389 H 0.76253 0.89218 0.51386 0.0
H1390 H 0.87809 0.84034 0.49725 0.0
H1391 H 0.87965 0.80107 0.52615 0.0
C1392 C 0.85975 0.95279 0.47178 0.0
C1393 C 0.82303 0.9692 0.46519 0.0
C1394 C 0.85941 0.91802 0.48295 0.0
C1395 C 0.82237 0.89889 0.48732 0.0
C1396 C 0.78651 0.91252 0.47847 0.0
C1397 C 0.78675 0.9478 0.46773 0.0
C1398 C 0.788 0.84799 0.53232 0.0
C1399 C 0.82121 0.82263 0.53644 0.0
C1400 C 0.78768 0.87138 0.51597 0.0
C1401 C 0.8203 0.86957 0.50316 0.0
C1402 C 0.85266 0.84281 0.50686 0.0
C1403 C 0.85327 0.81988 0.52337 0.0
H1404 H 0.48635 0.51936 0.29005 0.0
H1405 H 0.52446 0.64197 0.27886 0.0
H1406 H 0.44455 0.51986 0.26184 0.0
H1407 H 0.4837 0.6421 0.24983 0.0
H1408 H 0.35056 0.64232 0.22425 0.0
H1409 H 0.41266 0.64546 0.2431 0.0
H1410 H 0.43864 0.52037 0.22886 0.0
H1411 H 0.37478 0.51684 0.21121 0.0
C1412 C 0.48622 0.54626 0.28133 0.0
C1413 C 0.50804 0.58085 0.2868 0.0
C1414 C 0.46276 0.54638 0.26492 0.0
C1415 C 0.46071 0.58105 0.25345 0.0
C1416 C 0.48431 0.61502 0.25842 0.0
C1417 C 0.50784 0.61489 0.27495 0.0
C1418 C 0.37053 0.6161 0.22457 0.0
C1419 C 0.35822 0.57929 0.21646 0.0
C1420 C 0.40616 0.61781 0.23538 0.0
C1421 C 0.43021 0.58282 0.2379 0.0
C1422 C 0.42016 0.54749 0.2277 0.0
C1423 C 0.38397 0.54551 0.21739 0.0
H1424 H 0.88923 0.46514 0.53005 0.0
H1425 H 0.7593 0.45538 0.53662 0.0
H1426 H 0.88963 0.40337 0.51105 0.0
H1427 H 0.75965 0.39223 0.51857 0.0
H1428 H 0.76791 0.34972 0.45639 0.0
H1429 H 0.76652 0.38945 0.48525 0.0
H1430 H 0.87888 0.33303 0.5035 0.0
H1431 H 0.88106 0.29437 0.47399 0.0
C1432 C 0.86115 0.44837 0.52834 0.0
C1433 C 0.82418 0.46485 0.53456 0.0
C1434 C 0.86127 0.41297 0.51741 0.0
C1435 C 0.82443 0.39347 0.51284 0.0
C1436 C 0.78833 0.40723 0.52136 0.0
C1437 C 0.78813 0.44303 0.53189 0.0
C1438 C 0.79219 0.34562 0.46661 0.0
C1439 C 0.82489 0.31945 0.46281 0.0
C1440 C 0.7911 0.36789 0.48335 0.0
C1441 C 0.8226 0.36439 0.49679 0.0
C1442 C 0.85431 0.33662 0.49341 0.0
C1443 C 0.85542 0.31431 0.47657 0.0
H1444 H 0.51694 0.98876 0.70779 0.0
H1445 H 0.5084 0.11778 0.71698 0.0
H1446 H 0.47436 0.97709 0.73545 0.0
H1447 H 0.46416 0.10671 0.74393 0.0
H1448 H 0.38417 0.08435 0.79152 0.0
H1449 H 0.44902 0.08309 0.77469 0.0
H1450 H 0.40416 0.9854 0.73942 0.0
H1451 H 0.34077 0.98585 0.75663 0.0
C1452 C 0.50628 1.01452 0.71595 0.0
C1453 C 0.51547 0.05409 0.71032 0.0
C1454 C 0.48184 1.00796 0.73172 0.0
C1455 C 0.46532 0.04094 0.74182 0.0
C1456 C 0.47674 0.0805 0.73675 0.0
C1457 C 0.5018 0.08697 0.7212 0.0
C1458 C 0.38895 0.06177 0.78059 0.0
C1459 C 0.3574 1.03573 0.77507 0.0
C1460 C 0.42588 0.06123 0.77084 0.0
C1461 C 0.43157 1.03478 0.7554 0.0
C1462 C 0.40121 1.00609 0.75125 0.0
C1463 C 0.36458 1.00651 0.76103 0.0
H1464 H 0.82728 0.60697 0.0283 0.0
H1465 H 0.69629 0.60679 0.0252 0.0
H1466 H 0.82912 0.67014 0.01062 0.0
H1467 H 0.6977 0.66806 0.00624 0.0
H1468 H 0.70546 0.77758 0.97134 0.0
H1469 H 0.70918 0.73558 -0.00066 0.0
H1470 H 0.82129 0.68254 0.97886 0.0
H1471 H 0.81954 0.72721 0.95191 0.0
C1472 C 0.79885 0.62115 0.02414 0.0
C1473 C 0.76168 0.60235 0.02797 0.0
C1474 C 0.79982 0.65698 0.01379 0.0
C1475 C 0.76367 0.67374 0.00643 0.0
C1476 C 0.72623 0.65645 0.0117 0.0
C1477 C 0.72527 0.62123 0.02257 0.0
C1478 C 0.73166 0.75798 0.97311 0.0
C1479 C 0.762 0.75554 0.95918 0.0
C1480 C 0.73346 0.73335 0.9891 0.0
C1481 C 0.76521 0.70511 0.99138 0.0
C1482 C 0.79653 0.70414 0.97787 0.0
C1483 C 0.79514 0.7293 0.96211 0.0
H1484 H 0.21638 0.06956 0.28462 0.0
H1485 H 0.22474 0.94088 0.27453 0.0
H1486 H 0.15266 0.07221 0.26683 0.0
H1487 H 0.16257 0.9435 0.2557 0.0
H1488 H 0.05 0.95576 0.22187 0.0
H1489 H 0.0922 0.95508 0.25013 0.0
H1490 H 0.1453 0.0692 0.23355 0.0
H1491 H 0.10128 0.071 0.20589 0.0
C1492 C 0.20365 0.04165 0.27908 0.0
C1493 C 0.22495 1.00506 0.28086 0.0
C1494 C 0.16758 0.04318 0.26869 0.0
C1495 C 0.15311 1.00833 0.25939 0.0
C1496 C 0.1726 0.97092 0.26275 0.0
C1497 C 0.20818 0.96928 0.27357 0.0
C1498 C 0.06975 0.98137 0.22457 0.0
C1499 C 0.07233 1.01351 0.21162 0.0
C1500 C 0.09428 0.98071 0.24068 0.0
C1501 C 0.12224 1.01196 0.24413 0.0
C1502 C 0.12364 0.04488 0.23155 0.0
C1503 C 0.09887 0.04569 0.21551 0.0
H1504 H 0.32444 0.73045 0.54392 0.0
H1505 H 0.21096 0.78239 0.52437 0.0
H1506 H 0.32697 0.68794 0.51607 0.0
H1507 H 0.21566 0.74285 0.49552 0.0
H1508 H 0.20218 0.61499 0.46808 0.0
H1509 H 0.20382 0.67623 0.48723 0.0
H1510 H 0.33536 0.67672 0.48422 0.0
H1511 H 0.33323 0.61357 0.46626 0.0
C1512 C 0.30034 0.73338 0.53353 0.0
C1513 C 0.26708 0.75938 0.53671 0.0
C1514 C 0.30222 0.7095 0.51724 0.0
C1515 C 0.27132 0.71156 0.50342 0.0
C1516 C 0.23959 0.73973 0.50597 0.0
C1517 C 0.23725 0.76299 0.52247 0.0
C1518 C 0.23127 0.62914 0.47095 0.0
C1519 C 0.26757 0.60961 0.46596 0.0
C1520 C 0.23237 0.66437 0.48198 0.0
C1521 C 0.26986 0.68103 0.48783 0.0
C1522 C 0.30598 0.664 0.48064 0.0
C1523 C 0.30485 0.6282 0.47009 0.0
H1524 H 0.74672 0.08443 0.24116 0.0
H1525 H 0.702 0.98351 0.20819 0.0
H1526 H 0.68432 0.0862 0.25889 0.0
H1527 H 0.63749 0.98671 0.22526 0.0
H1528 H 0.5714 0.95863 0.28144 0.0
H1529 H 0.61807 0.96655 0.25523 0.0
H1530 H 0.61611 0.09663 0.26367 0.0
H1531 H 0.57146 0.0878 0.29085 0.0
C1532 C 0.72278 0.06345 0.23726 0.0
C1533 C 0.72936 1.03336 0.22354 0.0
C1534 C 0.6866 0.06467 0.24737 0.0
C1535 C 0.65573 1.0362 0.24379 0.0
C1536 C 0.66097 1.00844 0.22877 0.0
C1537 C 0.69768 1.00681 0.21882 0.0
C1538 C 0.58048 0.98891 0.27739 0.0
C1539 C 0.56833 1.0226 0.28813 0.0
C1540 C 0.60699 0.99361 0.26224 0.0
C1541 C 0.62139 1.03227 0.25732 0.0
C1542 C 0.60658 0.06629 0.26731 0.0
C1543 C 0.58081 0.06141 0.28277 0.0
H1544 H 0.25364 0.48906 0.98813 0.0
H1545 H 0.37074 0.46154 0.96375 0.0
H1546 H 0.25475 0.42474 0.00488 0.0
H1547 H 0.37221 0.397 0.9809 0.0
H1548 H 0.26352 0.29891 0.02937 0.0
H1549 H 0.26031 0.34498 0.00213 0.0
H1550 H 0.37653 0.39532 0.01832 0.0
H1551 H 0.37924 0.34991 0.0455 0.0
C1552 C 0.27903 0.46856 0.98592 0.0
C1553 C 0.31224 0.48012 0.97482 0.0
C1554 C 0.27954 0.43169 0.99541 0.0
C1555 C 0.31361 0.40613 0.99419 0.0
C1556 C 0.34561 0.41634 0.98201 0.0
C1557 C 0.34473 0.45305 0.97219 0.0
C1558 C 0.2885 0.31947 0.0268 0.0
C1559 C 0.32147 0.32145 0.03937 0.0
C1560 C 0.2868 0.34553 0.01128 0.0
C1561 C 0.31838 0.37328 0.0081 0.0
C1562 C 0.35223 0.37364 0.02026 0.0
C1563 C 0.35362 0.34808 0.03585 0.0
H1564 H 0.87693 1.01532 0.7139 0.0
H1565 H 0.85832 0.14475 0.716 0.0
H1566 H 0.93693 1.02215 0.73405 0.0
H1567 H 0.91794 0.15162 0.73658 0.0
H1568 H 0.95353 0.11819 0.80002 0.0
H1569 H 0.91444 0.12261 0.77072 0.0
H1570 H 1.00754 0.05438 0.74159 0.0
H1571 H 0.04698 0.05018 0.77104 0.0
C1572 C 0.88697 0.0454 0.71793 0.0
C1573 C 0.86323 0.07948 0.71353 0.0
C1574 C 0.9212 0.04934 0.7295 0.0
C1575 C 0.93151 0.08732 0.7371 0.0
C1576 C 0.91034 0.12198 0.73096 0.0
C1577 C 0.87655 0.11811 0.71905 0.0
C1578 C 0.96577 0.10446 0.78732 0.0
C1579 C 1.00304 0.08364 0.78776 0.0
C1580 C 0.94375 0.10748 0.77051 0.0
C1581 C 0.95834 0.08931 0.75387 0.0
C1582 C 0.99592 0.06896 0.75421 0.0
C1583 C 1.01832 0.0665 0.77101 0.0
loop_
_geom_bond_atom_site_label_1
_geom_bond_atom_site_label_2
_geom_bond_distance
_geom_bond_site_symmetry_2
_ccdc_geom_bond_type
O0 Tb1 2.292 1_556 S
O0 C3 1.255 . S
Tb1 O0 2.292 1_554 S
Tb1 O17 2.326 . S
Tb1 O19 2.500 1_545 S
Tb1 O20 2.448 1_545 S
Tb1 O23 2.324 . S
Eu2 O6 2.292 . S
Eu2 C7 2.852 . S
Eu2 O18 2.324 . S
Eu2 O22 2.326 . S
Eu2 O24 2.500 . S
Eu2 O25 2.473 . S
C3 O0 1.255 . S
C3 O4 1.247 . S
O4 C3 1.247 . S
C5 O17 1.242 . S
C5 O18 1.258 . S
O6 Eu2 2.292 . S
O6 C8 1.255 . S
C7 Eu2 2.852 . S
C7 C11 1.503 . S
C7 O24 1.273 . S
C7 O25 1.257 . S
C8 O6 1.255 . S
C8 O9 1.247 . S
O9 C8 1.247 . S
C10 O22 1.242 . S
C10 O23 1.258 . S
C11 C7 1.503 . S
C11 C12 1.379 . S
C11 C16 1.392 . S
C12 C11 1.379 . S
C12 C13 1.404 . S
C12 H26 0.929 . S
C13 C12 1.404 . S
C13 C14 1.389 . S
C14 C13 1.389 . S
C14 C15 1.399 . S
C14 H27 0.931 . S
C15 C14 1.399 . S
C15 C16 1.390 . S
C16 C11 1.392 . S
C16 C15 1.390 . S
C16 H28 0.929 . S
O17 Tb1 2.326 . S
O17 C5 1.242 . S
O18 Eu2 2.324 . S
O18 C5 1.258 . S
O19 Tb1 2.500 1_565 S
O19 C21 1.273 . S
O20 Tb1 2.448 1_565 S
O20 C21 1.274 . S
C21 O19 1.273 . S
C21 O20 1.274 . S
O22 Eu2 2.326 . S
O22 C10 1.242 . S
O23 Tb1 2.324 . S
O23 C10 1.258 . S
O24 Eu2 2.500 . S
O24 C7 1.273 . S
O25 Eu2 2.473 . S
O25 C7 1.257 . S
H26 C12 0.929 . S
H27 C14 0.931 . S
H28 C16 0.929 . S
O29 Tb30 2.292 . S
O29 C32 1.255 . S
Tb30 O29 2.292 . S
Tb30 O46 2.326 . S
Tb30 O48 2.500 . S
Tb30 O49 2.473 . S
Tb30 O52 2.324 . S
Eu31 O35 2.292 . S
Eu31 C36 2.852 . S
Eu31 O47 2.324 . S
Eu31 O51 2.326 . S
Eu31 O53 2.500 . S
Eu31 O54 2.473 . S
C32 O29 1.255 . S
C32 O33 1.247 . S
O33 C32 1.247 . S
C34 O46 1.242 . S
C34 O47 1.258 . S
O35 Eu31 2.292 . S
O35 C37 1.255 . S
C36 Eu31 2.852 . S
C36 C40 1.503 . S
C36 O53 1.273 . S
C36 O54 1.257 . S
C37 O35 1.255 . S
C37 O38 1.247 . S
O38 C37 1.247 . S
C39 O51 1.242 . S
C39 O52 1.258 . S
C40 C36 1.503 . S
C40 C41 1.379 . S
C40 C45 1.392 . S
C41 C40 1.379 . S
C41 C42 1.404 . S
C41 H55 0.929 . S
C42 C41 1.404 . S
C42 C43 1.389 . S
C43 C42 1.389 . S
C43 C44 1.399 . S
C43 H56 0.931 . S
C44 C43 1.399 . S
C44 C45 1.390 . S
C45 C40 1.392 . S
C45 C44 1.390 . S
C45 H57 0.929 . S
O46 Tb30 2.326 . S
O46 C34 1.242 . S
O47 Eu31 2.324 . S
O47 C34 1.258 . S
O48 Tb30 2.500 . S
O48 C50 1.273 . S
O49 Tb30 2.473 . S
O49 C50 1.257 . S
C50 O48 1.273 . S
C50 O49 1.257 . S
O51 Eu31 2.326 . S
O51 C39 1.242 . S
O52 Tb30 2.324 . S
O52 C39 1.258 . S
O53 Eu31 2.500 . S
O53 C36 1.273 . S
O54 Eu31 2.473 . S
O54 C36 1.257 . S
H55 C41 0.929 . S
H56 C43 0.931 . S
H57 C45 0.929 . S
O58 Tb59 2.292 . S
O58 C61 1.255 . S
Tb59 O58 2.292 . S
Tb59 O75 2.326 . S
Tb59 O77 2.500 1_565 S
Tb59 O78 2.448 1_565 S
Tb59 O81 2.324 . S
Eu60 O64 2.292 . S
Eu60 C65 2.852 . S
Eu60 O76 2.324 . S
Eu60 O80 2.326 . S
Eu60 O82 2.500 . S
Eu60 O83 2.473 . S
C61 O58 1.255 . S
C61 O62 1.247 . S
O62 C61 1.247 . S
C63 O75 1.242 . S
C63 O76 1.258 . S
O64 Eu60 2.292 . S
O64 C66 1.255 . S
C65 Eu60 2.852 . S
C65 C69 1.503 . S
C65 O82 1.273 . S
C65 O83 1.257 . S
C66 O64 1.255 . S
C66 O67 1.247 . S
O67 C66 1.247 . S
C68 O80 1.242 . S
C68 O81 1.258 . S
C69 C65 1.503 . S
C69 C70 1.379 . S
C69 C74 1.392 . S
C70 C69 1.379 . S
C70 C71 1.404 . S
C70 H84 0.929 . S
C71 C70 1.404 . S
C71 C72 1.389 . S
C72 C71 1.389 . S
C72 C73 1.399 . S
C72 H85 0.931 . S
C73 C72 1.399 . S
C73 C74 1.390 . S
C74 C69 1.392 . S
C74 C73 1.390 . S
C74 H86 0.929 . S
O75 Tb59 2.326 . S
O75 C63 1.242 . S
O76 Eu60 2.324 . S
O76 C63 1.258 . S
O77 Tb59 2.500 1_545 S
O77 C79 1.273 . S
O78 Tb59 2.448 1_545 S
O78 C79 1.274 . S
C79 O77 1.273 . S
C79 O78 1.274 . S
O80 Eu60 2.326 . S
O80 C68 1.242 . S
O81 Tb59 2.324 . S
O81 C68 1.258 . S
O82 Eu60 2.500 . S
O82 C65 1.273 . S
O83 Eu60 2.473 . S
O83 C65 1.257 . S
H84 C70 0.929 . S
H85 C72 0.931 . S
H86 C74 0.929 . S
O87 Tb88 2.292 . S
O87 C90 1.255 . S
Tb88 O87 2.292 . S
Tb88 O104 2.326 . S
Tb88 O106 2.500 . S
Tb88 O107 2.473 . S
Tb88 O110 2.324 . S
Eu89 O93 2.292 . S
Eu89 C94 2.852 . S
Eu89 O105 2.324 . S
Eu89 O109 2.326 . S
Eu89 O111 2.500 . S
Eu89 O112 2.473 . S
C90 O87 1.255 . S
C90 O91 1.247 . S
O91 C90 1.247 . S
C92 O104 1.242 . S
C92 O105 1.258 . S
O93 Eu89 2.292 . S
O93 C95 1.255 . S
C94 Eu89 2.852 . S
C94 C98 1.503 . S
C94 O111 1.273 . S
C94 O112 1.257 . S
C95 O93 1.255 . S
C95 O96 1.247 . S
O96 C95 1.247 . S
C97 O109 1.242 . S
C97 O110 1.258 . S
C98 C94 1.503 . S
C98 C99 1.379 . S
C98 C103 1.392 . S
C99 C98 1.379 . S
C99 C100 1.404 1_655 S
C99 H113 0.929 . S
C100 C99 1.404 1_455 S
C100 C101 1.389 . S
C101 C100 1.389 . S
C101 C102 1.399 . S
C101 H114 0.931 . S
C102 C101 1.399 . S
C102 C103 1.390 1_455 S
C103 C98 1.392 . S
C103 C102 1.390 1_655 S
C103 H115 0.929 . S
O104 Tb88 2.326 . S
O104 C92 1.242 . S
O105 Eu89 2.324 . S
O105 C92 1.258 . S
O106 Tb88 2.500 . S
O106 C108 1.273 . S
O107 Tb88 2.473 . S
O107 C108 1.257 . S
C108 O106 1.273 . S
C108 O107 1.257 . S
O109 Eu89 2.326 . S
O109 C97 1.242 . S
O110 Tb88 2.324 . S
O110 C97 1.258 . S
O111 Eu89 2.500 . S
O111 C94 1.273 . S
O112 Eu89 2.473 . S
O112 C94 1.257 . S
H113 C99 0.929 . S
H114 C101 0.931 . S
H115 C103 0.929 . S
O116 Tb117 2.292 1_554 S
O116 C119 1.255 . S
Tb117 O116 2.292 1_556 S
Tb117 O133 2.326 . S
Tb117 O135 2.500 1_565 S
Tb117 O136 2.448 1_565 S
Tb117 O139 2.324 . S
Eu118 O122 2.292 . S
Eu118 C123 2.852 . S
Eu118 O134 2.324 . S
Eu118 O138 2.326 . S
Eu118 O140 2.500 . S
Eu118 O141 2.473 . S
C119 O116 1.255 . S
C119 O120 1.247 . S
O120 C119 1.247 . S
C121 O133 1.242 . S
C121 O134 1.258 . S
O122 Eu118 2.292 . S
O122 C124 1.255 . S
C123 Eu118 2.852 . S
C123 C127 1.503 . S
C123 O140 1.273 . S
C123 O141 1.257 . S
C124 O122 1.255 . S
C124 O125 1.247 . S
O125 C124 1.247 . S
C126 O138 1.242 . S
C126 O139 1.258 . S
C127 C123 1.503 . S
C127 C128 1.379 . S
C127 C132 1.392 . S
C128 C127 1.379 . S
C128 C129 1.404 . S
C128 H142 0.929 . S
C129 C128 1.404 . S
C129 C130 1.389 . S
C130 C129 1.389 . S
C130 C131 1.399 . S
C130 H143 0.931 . S
C131 C130 1.399 . S
C131 C132 1.390 . S
C132 C127 1.392 . S
C132 C131 1.390 . S
C132 H144 0.929 . S
O133 Tb117 2.326 . S
O133 C121 1.242 . S
O134 Eu118 2.324 . S
O134 C121 1.258 . S
O135 Tb117 2.500 1_545 S
O135 C137 1.273 . S
O136 Tb117 2.448 1_545 S
O136 C137 1.274 . S
C137 O135 1.273 . S
C137 O136 1.274 . S
O138 Eu118 2.326 . S
O138 C126 1.242 . S
O139 Tb117 2.324 . S
O139 C126 1.258 . S
O140 Eu118 2.500 . S
O140 C123 1.273 . S
O141 Eu118 2.473 . S
O141 C123 1.257 . S
H142 C128 0.929 . S
H143 C130 0.931 . S
H144 C132 0.929 . S
O145 Tb146 2.292 . S
O145 C148 1.255 . S
Tb146 O145 2.292 . S
Tb146 O162 2.326 . S
Tb146 O164 2.500 . S
Tb146 O165 2.473 . S
Tb146 O168 2.324 . S
Eu147 O151 2.292 . S
Eu147 C152 2.852 . S
Eu147 O163 2.324 . S
Eu147 O167 2.326 . S
Eu147 O169 2.500 . S
Eu147 O170 2.473 . S
C148 O145 1.255 . S
C148 O149 1.247 . S
O149 C148 1.247 . S
C150 O162 1.242 . S
C150 O163 1.258 . S
O151 Eu147 2.292 . S
O151 C153 1.255 . S
C152 Eu147 2.852 . S
C152 C156 1.503 . S
C152 O169 1.273 . S
C152 O170 1.257 . S
C153 O151 1.255 . S
C153 O154 1.247 . S
O154 C153 1.247 . S
C155 O167 1.242 . S
C155 O168 1.258 . S
C156 C152 1.503 . S
C156 C157 1.379 . S
C156 C161 1.392 . S
C157 C156 1.379 . S
C157 C158 1.404 . S
C157 H171 0.929 . S
C158 C157 1.404 . S
C158 C159 1.389 . S
C159 C158 1.389 . S
C159 C160 1.399 . S
C159 H172 0.931 . S
C160 C159 1.399 . S
C160 C161 1.390 . S
C161 C156 1.392 . S
C161 C160 1.390 . S
C161 H173 0.929 . S
O162 Tb146 2.326 . S
O162 C150 1.242 . S
O163 Eu147 2.324 . S
O163 C150 1.258 . S
O164 Tb146 2.500 . S
O164 C166 1.273 . S
O165 Tb146 2.473 . S
O165 C166 1.257 . S
C166 O164 1.273 . S
C166 O165 1.257 . S
O167 Eu147 2.326 . S
O167 C155 1.242 . S
O168 Tb146 2.324 . S
O168 C155 1.258 . S
O169 Eu147 2.500 . S
O169 C152 1.273 . S
O170 Eu147 2.473 . S
O170 C152 1.257 . S
H171 C157 0.929 . S
H172 C159 0.931 . S
H173 C161 0.929 . S
O174 Tb175 2.292 . S
O174 C177 1.255 . S
Tb175 O174 2.292 . S
Tb175 O191 2.326 . S
Tb175 O193 2.500 1_545 S
Tb175 O194 2.448 1_545 S
Tb175 O197 2.324 . S
Eu176 O180 2.292 . S
Eu176 C181 2.852 . S
Eu176 O192 2.324 . S
Eu176 O196 2.326 . S
Eu176 O198 2.500 . S
Eu176 O199 2.473 . S
C177 O174 1.255 . S
C177 O178 1.247 . S
O178 C177 1.247 . S
C179 O191 1.242 . S
C179 O192 1.258 . S
O180 Eu176 2.292 . S
O180 C182 1.255 . S
C181 Eu176 2.852 . S
C181 C185 1.503 . S
C181 O198 1.273 . S
C181 O199 1.257 . S
C182 O180 1.255 . S
C182 O183 1.247 . S
O183 C182 1.247 . S
C184 O196 1.242 . S
C184 O197 1.258 . S
C185 C181 1.503 . S
C185 C186 1.379 . S
C185 C190 1.392 . S
C186 C185 1.379 . S
C186 C187 1.404 . S
C186 H200 0.929 . S
C187 C186 1.404 . S
C187 C188 1.389 . S
C188 C187 1.389 . S
C188 C189 1.399 . S
C188 H201 0.931 . S
C189 C188 1.399 . S
C189 C190 1.390 . S
C190 C185 1.392 . S
C190 C189 1.390 . S
C190 H202 0.929 . S
O191 Tb175 2.326 . S
O191 C179 1.242 . S
O192 Eu176 2.324 . S
O192 C179 1.258 . S
O193 Tb175 2.500 1_565 S
O193 C195 1.273 . S
O194 Tb175 2.448 1_565 S
O194 C195 1.274 . S
C195 O193 1.273 . S
C195 O194 1.274 . S
O196 Eu176 2.326 . S
O196 C184 1.242 . S
O197 Tb175 2.324 . S
O197 C184 1.258 . S
O198 Eu176 2.500 . S
O198 C181 1.273 . S
O199 Eu176 2.473 . S
O199 C181 1.257 . S
H200 C186 0.929 . S
H201 C188 0.931 . S
H202 C190 0.929 . S
O203 Tb204 2.292 . S
O203 C206 1.255 . S
Tb204 O203 2.292 . S
Tb204 O220 2.326 . S
Tb204 O222 2.500 . S
Tb204 O223 2.473 . S
Tb204 O226 2.324 . S
Eu205 O209 2.292 . S
Eu205 C210 2.852 . S
Eu205 O221 2.324 . S
Eu205 O225 2.326 . S
Eu205 O227 2.500 . S
Eu205 O228 2.473 . S
C206 O203 1.255 . S
C206 O207 1.247 . S
O207 C206 1.247 . S
C208 O220 1.242 . S
C208 O221 1.258 . S
O209 Eu205 2.292 . S
O209 C211 1.255 . S
C210 Eu205 2.852 . S
C210 C214 1.503 . S
C210 O227 1.273 . S
C210 O228 1.257 . S
C211 O209 1.255 . S
C211 O212 1.247 . S
O212 C211 1.247 . S
C213 O225 1.242 . S
C213 O226 1.258 . S
C214 C210 1.503 . S
C214 C215 1.379 . S
C214 C219 1.392 . S
C215 C214 1.379 . S
C215 C216 1.404 1_455 S
C215 H229 0.929 . S
C216 C215 1.404 1_655 S
C216 C217 1.389 . S
C217 C216 1.389 . S
C217 C218 1.399 . S
C217 H230 0.931 . S
C218 C217 1.399 . S
C218 C219 1.390 1_655 S
C219 C214 1.392 . S
C219 C218 1.390 1_455 S
C219 H231 0.929 . S
O220 Tb204 2.326 . S
O220 C208 1.242 . S
O221 Eu205 2.324 . S
O221 C208 1.258 . S
O222 Tb204 2.500 . S
O222 C224 1.273 . S
O223 Tb204 2.473 . S
O223 C224 1.257 . S
C224 O222 1.273 . S
C224 O223 1.257 . S
O225 Eu205 2.326 . S
O225 C213 1.242 . S
O226 Tb204 2.324 . S
O226 C213 1.258 . S
O227 Eu205 2.500 . S
O227 C210 1.273 . S
O228 Eu205 2.473 . S
O228 C210 1.257 . S
H229 C215 0.929 . S
H230 C217 0.931 . S
H231 C219 0.929 . S
O232 Tb233 2.292 . S
O232 C235 1.255 . S
Tb233 O232 2.292 . S
Tb233 O249 2.326 . S
Tb233 O251 2.500 . S
Tb233 O252 2.473 . S
Tb233 O255 2.324 . S
Eu234 O238 2.292 . S
Eu234 C239 2.852 . S
Eu234 O250 2.324 . S
Eu234 O254 2.326 . S
Eu234 O256 2.500 . S
Eu234 O257 2.473 . S
C235 O232 1.255 . S
C235 O236 1.247 . S
O236 C235 1.247 . S
C237 O249 1.242 . S
C237 O250 1.258 . S
O238 Eu234 2.292 . S
O238 C240 1.255 . S
C239 Eu234 2.852 . S
C239 C243 1.503 . S
C239 O256 1.273 . S
C239 O257 1.257 . S
C240 O238 1.255 . S
C240 O241 1.247 . S
O241 C240 1.247 . S
C242 O254 1.242 . S
C242 O255 1.258 . S
C243 C239 1.503 . S
C243 C244 1.379 . S
C243 C248 1.392 . S
C244 C243 1.379 . S
C244 C245 1.404 . S
C244 H258 0.929 . S
C245 C244 1.404 . S
C245 C246 1.389 . S
C246 C245 1.389 . S
C246 C247 1.399 . S
C246 H259 0.931 . S
C247 C246 1.399 . S
C247 C248 1.390 . S
C248 C243 1.392 . S
C248 C247 1.390 . S
C248 H260 0.929 . S
O249 Tb233 2.326 . S
O249 C237 1.242 . S
O250 Eu234 2.324 . S
O250 C237 1.258 . S
O251 Tb233 2.500 . S
O251 C253 1.273 . S
O252 Tb233 2.473 . S
O252 C253 1.257 . S
C253 O251 1.273 . S
C253 O252 1.257 . S
O254 Eu234 2.326 . S
O254 C242 1.242 . S
O255 Tb233 2.324 . S
O255 C242 1.258 . S
O256 Eu234 2.500 . S
O256 C239 1.273 . S
O257 Eu234 2.473 . S
O257 C239 1.257 . S
H258 C244 0.929 . S
H259 C246 0.931 . S
H260 C248 0.929 . S
O261 Tb262 2.292 . S
O261 C264 1.255 . S
Tb262 O261 2.292 . S
Tb262 O278 2.326 . S
Tb262 O280 2.500 . S
Tb262 O281 2.473 . S
Tb262 O284 2.324 1_545 S
Eu263 O267 2.292 . S
Eu263 C268 2.852 . S
Eu263 O279 2.324 . S
Eu263 O283 2.326 . S
Eu263 O285 2.500 . S
Eu263 O286 2.473 . S
C264 O261 1.255 . S
C264 O265 1.247 . S
O265 C264 1.247 . S
C266 O278 1.242 . S
C266 O279 1.258 . S
O267 Eu263 2.292 . S
O267 C269 1.255 . S
C268 Eu263 2.852 . S
C268 C272 1.503 . S
C268 O285 1.273 . S
C268 O286 1.257 . S
C269 O267 1.255 . S
C269 O270 1.247 . S
O270 C269 1.247 . S
C271 O283 1.242 1_565 S
C271 O284 1.258 . S
C272 C268 1.503 . S
C272 C273 1.379 . S
C272 C277 1.392 . S
C273 C272 1.379 . S
C273 C274 1.404 1_455 S
C273 H287 0.929 . S
C274 C273 1.404 1_655 S
C274 C275 1.389 . S
C275 C274 1.389 . S
C275 C276 1.399 . S
C275 H288 0.931 . S
C276 C275 1.399 . S
C276 C277 1.390 1_655 S
C277 C272 1.392 . S
C277 C276 1.390 1_455 S
C277 H289 0.929 . S
O278 Tb262 2.326 . S
O278 C266 1.242 . S
O279 Eu263 2.324 . S
O279 C266 1.258 . S
O280 Tb262 2.500 . S
O280 C282 1.273 . S
O281 Tb262 2.473 . S
O281 C282 1.257 . S
C282 O280 1.273 . S
C282 O281 1.257 . S
O283 Eu263 2.326 . S
O283 C271 1.242 1_545 S
O284 Tb262 2.324 1_565 S
O284 C271 1.258 . S
O285 Eu263 2.500 . S
O285 C268 1.273 . S
O286 Eu263 2.473 . S
O286 C268 1.257 . S
H287 C273 0.929 . S
H288 C275 0.931 . S
H289 C277 0.929 . S
O290 Tb291 2.292 1_556 S
O290 C293 1.255 . S
Tb291 O290 2.292 1_554 S
Tb291 O307 2.326 . S
Tb291 O309 2.500 . S
Tb291 O310 2.473 . S
Tb291 O313 2.324 . S
Eu292 O296 2.292 . S
Eu292 C297 2.852 . S
Eu292 O308 2.324 . S
Eu292 O312 2.326 . S
Eu292 O314 2.500 . S
Eu292 O315 2.473 . S
C293 O290 1.255 . S
C293 O294 1.247 . S
O294 C293 1.247 . S
C295 O307 1.242 . S
C295 O308 1.258 . S
O296 Eu292 2.292 . S
O296 C298 1.255 . S
C297 Eu292 2.852 . S
C297 C301 1.503 . S
C297 O314 1.273 . S
C297 O315 1.257 . S
C298 O296 1.255 . S
C298 O299 1.247 . S
O299 C298 1.247 . S
C300 O312 1.242 . S
C300 O313 1.258 . S
C301 C297 1.503 . S
C301 C302 1.379 . S
C301 C306 1.392 . S
C302 C301 1.379 . S
C302 C303 1.404 . S
C302 H316 0.929 . S
C303 C302 1.404 . S
C303 C304 1.389 . S
C304 C303 1.389 . S
C304 C305 1.399 . S
C304 H317 0.931 . S
C305 C304 1.399 . S
C305 C306 1.390 . S
C306 C301 1.392 . S
C306 C305 1.390 . S
C306 H318 0.929 . S
O307 Tb291 2.326 . S
O307 C295 1.242 . S
O308 Eu292 2.324 . S
O308 C295 1.258 . S
O309 Tb291 2.500 . S
O309 C311 1.273 . S
O310 Tb291 2.473 . S
O310 C311 1.257 . S
C311 O309 1.273 . S
C311 O310 1.257 . S
O312 Eu292 2.326 . S
O312 C300 1.242 . S
O313 Tb291 2.324 . S
O313 C300 1.258 . S
O314 Eu292 2.500 . S
O314 C297 1.273 . S
O315 Eu292 2.473 . S
O315 C297 1.257 . S
H316 C302 0.929 . S
H317 C304 0.931 . S
H318 C306 0.929 . S
O319 Tb320 2.292 . S
O319 C322 1.255 . S
Tb320 O319 2.292 . S
Tb320 O336 2.326 . S
Tb320 O338 2.500 . S
Tb320 O339 2.473 . S
Tb320 O342 2.324 1_565 S
Eu321 O325 2.292 . S
Eu321 C326 2.852 . S
Eu321 O337 2.324 . S
Eu321 O341 2.326 . S
Eu321 O343 2.500 . S
Eu321 O344 2.473 . S
C322 O319 1.255 . S
C322 O323 1.247 . S
O323 C322 1.247 . S
C324 O336 1.242 . S
C324 O337 1.258 . S
O325 Eu321 2.292 . S
O325 C327 1.255 . S
C326 Eu321 2.852 . S
C326 C330 1.503 . S
C326 O343 1.273 . S
C326 O344 1.257 . S
C327 O325 1.255 . S
C327 O328 1.247 . S
O328 C327 1.247 . S
C329 O341 1.242 1_545 S
C329 O342 1.258 . S
C330 C326 1.503 . S
C330 C331 1.379 . S
C330 C335 1.392 . S
C331 C330 1.379 . S
C331 C332 1.404 . S
C331 H345 0.929 . S
C332 C331 1.404 . S
C332 C333 1.389 . S
C333 C332 1.389 . S
C333 C334 1.399 . S
C333 H346 0.931 . S
C334 C333 1.399 . S
C334 C335 1.390 . S
C335 C330 1.392 . S
C335 C334 1.390 . S
C335 H347 0.929 . S
O336 Tb320 2.326 . S
O336 C324 1.242 . S
O337 Eu321 2.324 . S
O337 C324 1.258 . S
O338 Tb320 2.500 . S
O338 C340 1.273 . S
O339 Tb320 2.473 . S
O339 C340 1.257 . S
C340 O338 1.273 . S
C340 O339 1.257 . S
O341 Eu321 2.326 . S
O341 C329 1.242 1_565 S
O342 Tb320 2.324 1_545 S
O342 C329 1.258 . S
O343 Eu321 2.500 . S
O343 C326 1.273 . S
O344 Eu321 2.473 . S
O344 C326 1.257 . S
H345 C331 0.929 . S
H346 C333 0.931 . S
H347 C335 0.929 . S
O348 Tb349 2.292 . S
O348 C351 1.255 . S
Tb349 O348 2.292 . S
Tb349 O365 2.326 . S
Tb349 O367 2.500 . S
Tb349 O368 2.473 . S
Tb349 O371 2.324 . S
Eu350 O354 2.292 . S
Eu350 C355 2.852 . S
Eu350 O366 2.324 . S
Eu350 O370 2.326 . S
Eu350 O372 2.500 . S
Eu350 O373 2.473 . S
C351 O348 1.255 . S
C351 O352 1.247 . S
O352 C351 1.247 . S
C353 O365 1.242 . S
C353 O366 1.258 . S
O354 Eu350 2.292 . S
O354 C356 1.255 . S
C355 Eu350 2.852 . S
C355 C359 1.503 . S
C355 O372 1.273 . S
C355 O373 1.257 . S
C356 O354 1.255 . S
C356 O357 1.247 . S
O357 C356 1.247 . S
C358 O370 1.242 . S
C358 O371 1.258 . S
C359 C355 1.503 . S
C359 C360 1.379 . S
C359 C364 1.392 . S
C360 C359 1.379 . S
C360 C361 1.404 . S
C360 H374 0.929 . S
C361 C360 1.404 . S
C361 C362 1.389 . S
C362 C361 1.389 . S
C362 C363 1.399 . S
C362 H375 0.931 . S
C363 C362 1.399 . S
C363 C364 1.390 . S
C364 C359 1.392 . S
C364 C363 1.390 . S
C364 H376 0.929 . S
O365 Tb349 2.326 . S
O365 C353 1.242 . S
O366 Eu350 2.324 . S
O366 C353 1.258 . S
O367 Tb349 2.500 . S
O367 C369 1.273 . S
O368 Tb349 2.473 . S
O368 C369 1.257 . S
C369 O367 1.273 . S
C369 O368 1.257 . S
O370 Eu350 2.326 . S
O370 C358 1.242 . S
O371 Tb349 2.324 . S
O371 C358 1.258 . S
O372 Eu350 2.500 . S
O372 C355 1.273 . S
O373 Eu350 2.473 . S
O373 C355 1.257 . S
H374 C360 0.929 . S
H375 C362 0.931 . S
H376 C364 0.929 . S
O377 Tb378 2.292 . S
O377 C380 1.255 . S
Tb378 O377 2.292 . S
Tb378 O394 2.326 . S
Tb378 O396 2.500 . S
Tb378 O397 2.473 . S
Tb378 O400 2.324 1_565 S
Eu379 O383 2.292 . S
Eu379 C384 2.852 . S
Eu379 O395 2.324 . S
Eu379 O399 2.326 . S
Eu379 O401 2.500 . S
Eu379 O402 2.473 . S
C380 O377 1.255 . S
C380 O381 1.247 . S
O381 C380 1.247 . S
C382 O394 1.242 . S
C382 O395 1.258 . S
O383 Eu379 2.292 . S
O383 C385 1.255 . S
C384 Eu379 2.852 . S
C384 C388 1.503 . S
C384 O401 1.273 . S
C384 O402 1.257 . S
C385 O383 1.255 . S
C385 O386 1.247 . S
O386 C385 1.247 . S
C387 O399 1.242 1_545 S
C387 O400 1.258 . S
C388 C384 1.503 . S
C388 C389 1.379 . S
C388 C393 1.392 . S
C389 C388 1.379 . S
C389 C390 1.404 1_655 S
C389 H403 0.929 . S
C390 C389 1.404 1_455 S
C390 C391 1.389 . S
C391 C390 1.389 . S
C391 C392 1.399 . S
C391 H404 0.931 . S
C392 C391 1.399 . S
C392 C393 1.390 1_455 S
C393 C388 1.392 . S
C393 C392 1.390 1_655 S
C393 H405 0.929 . S
O394 Tb378 2.326 . S
O394 C382 1.242 . S
O395 Eu379 2.324 . S
O395 C382 1.258 . S
O396 Tb378 2.500 . S
O396 C398 1.273 . S
O397 Tb378 2.473 . S
O397 C398 1.257 . S
C398 O396 1.273 . S
C398 O397 1.257 . S
O399 Eu379 2.326 . S
O399 C387 1.242 1_565 S
O400 Tb378 2.324 1_545 S
O400 C387 1.258 . S
O401 Eu379 2.500 . S
O401 C384 1.273 . S
O402 Eu379 2.473 . S
O402 C384 1.257 . S
H403 C389 0.929 . S
H404 C391 0.931 . S
H405 C393 0.929 . S
O406 Tb407 2.292 1_554 S
O406 C409 1.255 . S
Tb407 O406 2.292 1_556 S
Tb407 O423 2.326 . S
Tb407 O425 2.500 . S
Tb407 O426 2.473 . S
Tb407 O429 2.324 . S
Eu408 O412 2.292 . S
Eu408 C413 2.852 . S
Eu408 O424 2.324 . S
Eu408 O428 2.326 . S
Eu408 O430 2.500 . S
Eu408 O431 2.473 . S
C409 O406 1.255 . S
C409 O410 1.247 . S
O410 C409 1.247 . S
C411 O423 1.242 . S
C411 O424 1.258 . S
O412 Eu408 2.292 . S
O412 C414 1.255 . S
C413 Eu408 2.852 . S
C413 C417 1.503 . S
C413 O430 1.273 . S
C413 O431 1.257 . S
C414 O412 1.255 . S
C414 O415 1.247 . S
O415 C414 1.247 . S
C416 O428 1.242 . S
C416 O429 1.258 . S
C417 C413 1.503 . S
C417 C418 1.379 . S
C417 C422 1.392 . S
C418 C417 1.379 . S
C418 C419 1.404 . S
C418 H432 0.929 . S
C419 C418 1.404 . S
C419 C420 1.389 . S
C420 C419 1.389 . S
C420 C421 1.399 . S
C420 H433 0.931 . S
C421 C420 1.399 . S
C421 C422 1.390 . S
C422 C417 1.392 . S
C422 C421 1.390 . S
C422 H434 0.929 . S
O423 Tb407 2.326 . S
O423 C411 1.242 . S
O424 Eu408 2.324 . S
O424 C411 1.258 . S
O425 Tb407 2.500 . S
O425 C427 1.273 . S
O426 Tb407 2.473 . S
O426 C427 1.257 . S
C427 O425 1.273 . S
C427 O426 1.257 . S
O428 Eu408 2.326 . S
O428 C416 1.242 . S
O429 Tb407 2.324 . S
O429 C416 1.258 . S
O430 Eu408 2.500 . S
O430 C413 1.273 . S
O431 Eu408 2.473 . S
O431 C413 1.257 . S
H432 C418 0.929 . S
H433 C420 0.931 . S
H434 C422 0.929 . S
O435 Tb436 2.292 . S
O435 C438 1.255 . S
Tb436 O435 2.292 . S
Tb436 O452 2.326 . S
Tb436 O454 2.500 . S
Tb436 O455 2.473 . S
Tb436 O458 2.324 1_545 S
Eu437 O441 2.292 . S
Eu437 C442 2.852 . S
Eu437 O453 2.324 . S
Eu437 O457 2.326 . S
Eu437 O459 2.500 . S
Eu437 O460 2.473 . S
C438 O435 1.255 . S
C438 O439 1.247 . S
O439 C438 1.247 . S
C440 O452 1.242 . S
C440 O453 1.258 . S
O441 Eu437 2.292 . S
O441 C443 1.255 . S
C442 Eu437 2.852 . S
C442 C446 1.503 . S
C442 O459 1.273 . S
C442 O460 1.257 . S
C443 O441 1.255 . S
C443 O444 1.247 . S
O444 C443 1.247 . S
C445 O457 1.242 1_565 S
C445 O458 1.258 . S
C446 C442 1.503 . S
C446 C447 1.379 . S
C446 C451 1.392 . S
C447 C446 1.379 . S
C447 C448 1.404 . S
C447 H461 0.929 . S
C448 C447 1.404 . S
C448 C449 1.389 . S
C449 C448 1.389 . S
C449 C450 1.399 . S
C449 H462 0.931 . S
C450 C449 1.399 . S
C450 C451 1.390 . S
C451 C446 1.392 . S
C451 C450 1.390 . S
C451 H463 0.929 . S
O452 Tb436 2.326 . S
O452 C440 1.242 . S
O453 Eu437 2.324 . S
O453 C440 1.258 . S
O454 Tb436 2.500 . S
O454 C456 1.273 . S
O455 Tb436 2.473 . S
O455 C456 1.257 . S
C456 O454 1.273 . S
C456 O455 1.257 . S
O457 Eu437 2.326 . S
O457 C445 1.242 1_545 S
O458 Tb436 2.324 1_565 S
O458 C445 1.258 . S
O459 Eu437 2.500 . S
O459 C442 1.273 . S
O460 Eu437 2.473 . S
O460 C442 1.257 . S
H461 C447 0.929 . S
H462 C449 0.931 . S
H463 C451 0.929 . S
H464 C472 0.950 . S
H465 C477 0.950 . S
H466 C474 0.950 . S
H467 C476 0.950 . S
H468 C478 0.950 . S
H469 C480 0.950 . S
H470 C482 0.950 . S
H471 C483 0.950 . S
C472 H464 0.950 . S
C472 C473 1.386 . S
C472 C474 1.391 . S
C473 C472 1.386 . S
C473 C477 1.393 . S
C474 H466 0.950 . S
C474 C472 1.391 . S
C474 C475 1.400 . S
C475 C474 1.400 . S
C475 C476 1.398 . S
C475 C481 1.491 . S
C476 H467 0.950 . S
C476 C475 1.398 . S
C476 C477 1.391 . S
C477 H465 0.950 . S
C477 C473 1.393 . S
C477 C476 1.391 . S
C478 H468 0.950 . S
C478 C479 1.386 . S
C478 C480 1.391 . S
C479 C478 1.386 . S
C479 C483 1.393 . S
C480 H469 0.950 . S
C480 C478 1.391 . S
C480 C481 1.400 . S
C481 C475 1.491 . S
C481 C480 1.400 . S
C481 C482 1.398 . S
C482 H470 0.950 . S
C482 C481 1.398 . S
C482 C483 1.391 . S
C483 H471 0.950 . S
C483 C479 1.393 . S
C483 C482 1.391 . S
H484 C492 0.950 . S
H485 C497 0.950 . S
H486 C494 0.950 . S
H487 C496 0.950 . S
H488 C498 0.950 . S
H489 C500 0.950 . S
H490 C502 0.950 . S
H491 C503 0.950 . S
C492 H484 0.950 . S
C492 C493 1.386 . S
C492 C494 1.391 . S
C493 C492 1.386 . S
C493 C497 1.393 . S
C494 H486 0.950 . S
C494 C492 1.391 . S
C494 C495 1.400 . S
C495 C494 1.400 . S
C495 C496 1.398 . S
C495 C501 1.491 . S
C496 H487 0.950 . S
C496 C495 1.398 . S
C496 C497 1.391 . S
C497 H485 0.950 . S
C497 C493 1.393 . S
C497 C496 1.391 . S
C498 H488 0.950 . S
C498 C499 1.386 . S
C498 C500 1.391 . S
C499 C498 1.386 . S
C499 C503 1.393 . S
C500 H489 0.950 . S
C500 C498 1.391 . S
C500 C501 1.400 . S
C501 C495 1.491 . S
C501 C500 1.400 . S
C501 C502 1.398 . S
C502 H490 0.950 . S
C502 C501 1.398 . S
C502 C503 1.391 . S
C503 H491 0.950 . S
C503 C499 1.393 . S
C503 C502 1.391 . S
H504 C512 0.950 . S
H505 C517 0.950 . S
H506 C514 0.950 . S
H507 C516 0.950 . S
H508 C518 0.950 . S
H509 C520 0.950 . S
H510 C522 0.950 . S
H511 C523 0.950 . S
C512 H504 0.950 . S
C512 C513 1.386 . S
C512 C514 1.391 . S
C513 C512 1.386 . S
C513 C517 1.393 . S
C514 H506 0.950 . S
C514 C512 1.391 . S
C514 C515 1.400 . S
C515 C514 1.400 . S
C515 C516 1.398 . S
C515 C521 1.491 . S
C516 H507 0.950 . S
C516 C515 1.398 . S
C516 C517 1.391 . S
C517 H505 0.950 . S
C517 C513 1.393 . S
C517 C516 1.391 . S
C518 H508 0.950 . S
C518 C519 1.386 . S
C518 C520 1.391 . S
C519 C518 1.386 . S
C519 C523 1.393 . S
C520 H509 0.950 . S
C520 C518 1.391 . S
C520 C521 1.400 . S
C521 C515 1.491 . S
C521 C520 1.400 . S
C521 C522 1.398 . S
C522 H510 0.950 . S
C522 C521 1.398 . S
C522 C523 1.391 . S
C523 H511 0.950 . S
C523 C519 1.393 . S
C523 C522 1.391 . S
H524 C532 0.950 . S
H525 C537 0.950 . S
H526 C534 0.950 . S
H527 C536 0.950 . S
H528 C538 0.950 . S
H529 C540 0.950 . S
H530 C542 0.950 . S
H531 C543 0.950 . S
C532 H524 0.950 . S
C532 C533 1.386 . S
C532 C534 1.391 . S
C533 C532 1.386 . S
C533 C537 1.393 . S
C534 H526 0.950 . S
C534 C532 1.391 . S
C534 C535 1.400 . S
C535 C534 1.400 . S
C535 C536 1.398 . S
C535 C541 1.491 . S
C536 H527 0.950 . S
C536 C535 1.398 . S
C536 C537 1.391 . S
C537 H525 0.950 . S
C537 C533 1.393 . S
C537 C536 1.391 . S
C538 H528 0.950 . S
C538 C539 1.386 . S
C538 C540 1.391 . S
C539 C538 1.386 . S
C539 C543 1.393 . S
C540 H529 0.950 . S
C540 C538 1.391 . S
C540 C541 1.400 . S
C541 C535 1.491 . S
C541 C540 1.400 . S
C541 C542 1.398 . S
C542 H530 0.950 . S
C542 C541 1.398 . S
C542 C543 1.391 . S
C543 H531 0.950 . S
C543 C539 1.393 . S
C543 C542 1.391 . S
H544 C552 0.950 . S
H545 C557 0.950 . S
H546 C554 0.950 . S
H547 C556 0.950 . S
H548 C558 0.950 . S
H549 C560 0.950 . S
H550 C562 0.950 . S
H551 C563 0.950 . S
C552 H544 0.950 . S
C552 C553 1.386 . S
C552 C554 1.391 . S
C553 C552 1.386 . S
C553 C557 1.393 . S
C554 H546 0.950 . S
C554 C552 1.391 . S
C554 C555 1.400 . S
C555 C554 1.400 . S
C555 C556 1.398 . S
C555 C561 1.491 . S
C556 H547 0.950 . S
C556 C555 1.398 . S
C556 C557 1.391 . S
C557 H545 0.950 . S
C557 C553 1.393 . S
C557 C556 1.391 . S
C558 H548 0.950 . S
C558 C559 1.386 . S
C558 C560 1.391 . S
C559 C558 1.386 . S
C559 C563 1.393 . S
C560 H549 0.950 . S
C560 C558 1.391 . S
C560 C561 1.400 . S
C561 C555 1.491 . S
C561 C560 1.400 . S
C561 C562 1.398 . S
C562 H550 0.950 . S
C562 C561 1.398 . S
C562 C563 1.391 . S
C563 H551 0.950 . S
C563 C559 1.393 . S
C563 C562 1.391 . S
H564 C572 0.950 . S
H565 C577 0.950 . S
H566 C574 0.950 . S
H567 C576 0.950 . S
H568 C578 0.950 . S
H569 C580 0.950 . S
H570 C582 0.950 . S
H571 C583 0.950 . S
C572 H564 0.950 . S
C572 C573 1.386 . S
C572 C574 1.391 . S
C573 C572 1.386 . S
C573 C577 1.393 . S
C574 H566 0.950 . S
C574 C572 1.391 . S
C574 C575 1.400 . S
C575 C574 1.400 . S
C575 C576 1.398 . S
C575 C581 1.491 . S
C576 H567 0.950 . S
C576 C575 1.398 . S
C576 C577 1.391 . S
C577 H565 0.950 . S
C577 C573 1.393 . S
C577 C576 1.391 . S
C578 H568 0.950 . S
C578 C579 1.386 . S
C578 C580 1.391 . S
C579 C578 1.386 . S
C579 C583 1.393 . S
C580 H569 0.950 . S
C580 C578 1.391 . S
C580 C581 1.400 . S
C581 C575 1.491 . S
C581 C580 1.400 . S
C581 C582 1.398 . S
C582 H570 0.950 . S
C582 C581 1.398 . S
C582 C583 1.391 . S
C583 H571 0.950 . S
C583 C579 1.393 . S
C583 C582 1.391 . S
H584 C592 0.950 . S
H585 C597 0.950 . S
H586 C594 0.950 . S
H587 C596 0.950 . S
H588 C598 0.950 . S
H589 C600 0.950 . S
H590 C602 0.950 . S
H591 C603 0.950 . S
C592 H584 0.950 . S
C592 C593 1.386 . S
C592 C594 1.391 . S
C593 C592 1.386 . S
C593 C597 1.393 . S
C594 H586 0.950 . S
C594 C592 1.391 . S
C594 C595 1.400 . S
C595 C594 1.400 . S
C595 C596 1.398 . S
C595 C601 1.491 . S
C596 H587 0.950 . S
C596 C595 1.398 . S
C596 C597 1.391 . S
C597 H585 0.950 . S
C597 C593 1.393 . S
C597 C596 1.391 . S
C598 H588 0.950 . S
C598 C599 1.386 . S
C598 C600 1.391 . S
C599 C598 1.386 . S
C599 C603 1.393 . S
C600 H589 0.950 . S
C600 C598 1.391 . S
C600 C601 1.400 . S
C601 C595 1.491 . S
C601 C600 1.400 . S
C601 C602 1.398 . S
C602 H590 0.950 . S
C602 C601 1.398 . S
C602 C603 1.391 . S
C603 H591 0.950 . S
C603 C599 1.393 . S
C603 C602 1.391 . S
H604 C612 0.950 . S
H605 C617 0.950 . S
H606 C614 0.950 . S
H607 C616 0.950 . S
H608 C618 0.950 . S
H609 C620 0.950 . S
H610 C622 0.950 . S
H611 C623 0.950 . S
C612 H604 0.950 . S
C612 C613 1.386 . S
C612 C614 1.391 . S
C613 C612 1.386 . S
C613 C617 1.393 . S
C614 H606 0.950 . S
C614 C612 1.391 . S
C614 C615 1.400 . S
C615 C614 1.400 . S
C615 C616 1.398 . S
C615 C621 1.491 . S
C616 H607 0.950 . S
C616 C615 1.398 . S
C616 C617 1.391 . S
C617 H605 0.950 . S
C617 C613 1.393 . S
C617 C616 1.391 . S
C618 H608 0.950 . S
C618 C619 1.386 . S
C618 C620 1.391 . S
C619 C618 1.386 . S
C619 C623 1.393 . S
C620 H609 0.950 . S
C620 C618 1.391 . S
C620 C621 1.400 . S
C621 C615 1.491 . S
C621 C620 1.400 . S
C621 C622 1.398 . S
C622 H610 0.950 . S
C622 C621 1.398 . S
C622 C623 1.391 . S
C623 H611 0.950 . S
C623 C619 1.393 . S
C623 C622 1.391 . S
H624 C632 0.950 . S
H625 C637 0.950 . S
H626 C634 0.950 . S
H627 C636 0.950 . S
H628 C638 0.950 . S
H629 C640 0.950 . S
H630 C642 0.950 . S
H631 C643 0.950 . S
C632 H624 0.950 . S
C632 C633 1.386 . S
C632 C634 1.391 . S
C633 C632 1.386 . S
C633 C637 1.393 . S
C634 H626 0.950 . S
C634 C632 1.391 . S
C634 C635 1.400 . S
C635 C634 1.400 . S
C635 C636 1.398 . S
C635 C641 1.491 . S
C636 H627 0.950 . S
C636 C635 1.398 . S
C636 C637 1.391 . S
C637 H625 0.950 . S
C637 C633 1.393 . S
C637 C636 1.391 . S
C638 H628 0.950 . S
C638 C639 1.386 . S
C638 C640 1.391 . S
C639 C638 1.386 . S
C639 C643 1.393 . S
C640 H629 0.950 . S
C640 C638 1.391 . S
C640 C641 1.400 . S
C641 C635 1.491 . S
C641 C640 1.400 . S
C641 C642 1.398 . S
C642 H630 0.950 . S
C642 C641 1.398 . S
C642 C643 1.391 . S
C643 H631 0.950 . S
C643 C639 1.393 . S
C643 C642 1.391 . S
H644 C652 0.950 . S
H645 C657 0.950 . S
H646 C654 0.950 . S
H647 C656 0.945 1_545 S
H648 C658 0.950 . S
H649 C660 0.950 . S
H650 C662 0.950 . S
H651 C663 0.950 . S
C652 H644 0.950 . S
C652 C653 1.386 . S
C652 C654 1.391 . S
C653 C652 1.386 . S
C653 C657 1.393 . S
C654 H646 0.950 . S
C654 C652 1.391 . S
C654 C655 1.400 . S
C655 C654 1.400 . S
C655 C656 1.401 . S
C655 C661 1.502 . S
C656 H647 0.945 1_565 S
C656 C655 1.401 . S
C656 C657 1.393 . S
C657 H645 0.950 . S
C657 C653 1.393 . S
C657 C656 1.393 . S
C658 H648 0.950 . S
C658 C659 1.386 . S
C658 C660 1.391 . S
C659 C658 1.386 . S
C659 C663 1.393 1_545 S
C660 H649 0.950 . S
C660 C658 1.391 . S
C660 C661 1.377 1_545 S
C661 C655 1.502 . S
C661 C660 1.377 1_565 S
C661 C662 1.410 . S
C662 H650 0.950 . S
C662 C661 1.410 . S
C662 C663 1.391 . S
C663 H651 0.950 . S
C663 C659 1.393 1_565 S
C663 C662 1.391 . S
H664 C672 0.950 . S
H665 C677 0.950 . S
H666 C674 0.950 . S
H667 C676 0.950 . S
H668 C678 0.950 . S
H669 C680 0.950 . S
H670 C682 0.950 . S
H671 C683 0.950 . S
C672 H664 0.950 . S
C672 C673 1.386 . S
C672 C674 1.391 . S
C673 C672 1.386 . S
C673 C677 1.393 . S
C674 H666 0.950 . S
C674 C672 1.391 . S
C674 C675 1.400 . S
C675 C674 1.400 . S
C675 C676 1.398 . S
C675 C681 1.491 . S
C676 H667 0.950 . S
C676 C675 1.398 . S
C676 C677 1.391 . S
C677 H665 0.950 . S
C677 C673 1.393 . S
C677 C676 1.391 . S
C678 H668 0.950 . S
C678 C679 1.386 . S
C678 C680 1.391 . S
C679 C678 1.386 . S
C679 C683 1.393 . S
C680 H669 0.950 . S
C680 C678 1.391 . S
C680 C681 1.400 . S
C681 C675 1.491 . S
C681 C680 1.400 . S
C681 C682 1.398 . S
C682 H670 0.950 . S
C682 C681 1.398 . S
C682 C683 1.391 . S
C683 H671 0.950 . S
C683 C679 1.393 . S
C683 C682 1.391 . S
H684 C692 0.950 . S
H685 C697 0.950 . S
H686 C694 0.950 . S
H687 C696 0.940 1_565 S
H688 C698 0.950 . S
H689 C700 0.950 . S
H690 C702 0.950 . S
H691 C703 0.950 . S
C692 H684 0.950 . S
C692 C693 1.386 . S
C692 C694 1.391 . S
C693 C692 1.386 . S
C693 C697 1.393 . S
C694 H686 0.950 . S
C694 C692 1.391 . S
C694 C695 1.400 . S
C695 C694 1.400 . S
C695 C696 1.403 . S
C695 C701 1.501 . S
C696 H687 0.940 1_545 S
C696 C695 1.403 . S
C696 C697 1.395 . S
C697 H685 0.950 . S
C697 C693 1.393 . S
C697 C696 1.395 . S
C698 H688 0.950 . S
C698 C699 1.386 . S
C698 C700 1.391 . S
C699 C698 1.386 . S
C699 C703 1.393 1_565 S
C700 H689 0.950 . S
C700 C698 1.391 . S
C700 C701 1.379 1_565 S
C701 C695 1.501 . S
C701 C700 1.379 1_545 S
C701 C702 1.409 . S
C702 H690 0.950 . S
C702 C701 1.409 . S
C702 C703 1.391 . S
C703 H691 0.950 . S
C703 C699 1.393 1_545 S
C703 C702 1.391 . S
H704 C712 0.950 . S
H705 C717 0.950 . S
H706 C714 0.950 . S
H707 C716 0.950 . S
H708 C718 0.950 . S
H709 C720 0.950 . S
H710 C722 0.950 . S
H711 C723 0.950 . S
C712 H704 0.950 . S
C712 C713 1.386 . S
C712 C714 1.391 . S
C713 C712 1.386 . S
C713 C717 1.393 . S
C714 H706 0.950 . S
C714 C712 1.391 . S
C714 C715 1.400 . S
C715 C714 1.400 . S
C715 C716 1.398 . S
C715 C721 1.491 . S
C716 H707 0.950 . S
C716 C715 1.398 . S
C716 C717 1.391 . S
C717 H705 0.950 . S
C717 C713 1.393 . S
C717 C716 1.391 . S
C718 H708 0.950 . S
C718 C719 1.386 . S
C718 C720 1.391 . S
C719 C718 1.386 . S
C719 C723 1.393 . S
C720 H709 0.950 . S
C720 C718 1.391 . S
C720 C721 1.400 . S
C721 C715 1.491 . S
C721 C720 1.400 . S
C721 C722 1.398 . S
C722 H710 0.950 . S
C722 C721 1.398 . S
C722 C723 1.391 . S
C723 H711 0.950 . S
C723 C719 1.393 . S
C723 C722 1.391 . S
H724 C732 0.950 . S
H725 C737 0.950 . S
H726 C734 0.950 . S
H727 C736 0.950 . S
H728 C738 0.950 . S
H729 C740 0.953 . S
H730 C742 0.950 . S
H731 C743 0.950 . S
C732 H724 0.950 . S
C732 C733 1.386 . S
C732 C734 1.391 1_565 S
C733 C732 1.386 . S
C733 C737 1.393 . S
C734 H726 0.950 . S
C734 C732 1.391 1_545 S
C734 C735 1.400 . S
C735 C734 1.400 . S
C735 C736 1.398 1_545 S
C735 C741 1.491 . S
C736 H727 0.950 . S
C736 C735 1.398 1_565 S
C736 C737 1.391 . S
C737 H725 0.950 . S
C737 C733 1.393 . S
C737 C736 1.391 . S
C738 H728 0.950 . S
C738 C739 1.386 . S
C738 C740 1.391 . S
C739 C738 1.386 . S
C739 C743 1.393 . S
C740 H729 0.953 . S
C740 C738 1.391 . S
C740 C741 1.400 . S
C741 C735 1.491 . S
C741 C740 1.400 . S
C741 C742 1.398 . S
C742 H730 0.950 . S
C742 C741 1.398 . S
C742 C743 1.391 . S
C743 H731 0.950 . S
C743 C739 1.393 . S
C743 C742 1.391 . S
H744 C752 0.950 . S
H745 C757 0.950 . S
H746 C754 0.950 . S
H747 C756 0.950 . S
H748 C758 0.950 . S
H749 C760 0.950 . S
H750 C762 0.950 . S
H751 C763 0.950 . S
C752 H744 0.950 . S
C752 C753 1.386 . S
C752 C754 1.391 . S
C753 C752 1.386 . S
C753 C757 1.393 . S
C754 H746 0.950 . S
C754 C752 1.391 . S
C754 C755 1.400 . S
C755 C754 1.400 . S
C755 C756 1.398 . S
C755 C761 1.491 . S
C756 H747 0.950 . S
C756 C755 1.398 . S
C756 C757 1.391 . S
C757 H745 0.950 . S
C757 C753 1.393 . S
C757 C756 1.391 . S
C758 H748 0.950 . S
C758 C759 1.386 . S
C758 C760 1.391 . S
C759 C758 1.386 . S
C759 C763 1.393 . S
C760 H749 0.950 . S
C760 C758 1.391 . S
C760 C761 1.400 . S
C761 C755 1.491 . S
C761 C760 1.400 . S
C761 C762 1.398 . S
C762 H750 0.950 . S
C762 C761 1.398 . S
C762 C763 1.391 . S
C763 H751 0.950 . S
C763 C759 1.393 . S
C763 C762 1.391 . S
H764 C772 0.950 . S
H765 C777 0.950 . S
H766 C774 0.950 . S
H767 C776 0.950 . S
H768 C778 0.950 . S
H769 C780 0.950 . S
H770 C782 0.950 . S
H771 C783 0.950 . S
C772 H764 0.950 . S
C772 C773 1.386 . S
C772 C774 1.391 . S
C773 C772 1.386 . S
C773 C777 1.393 . S
C774 H766 0.950 . S
C774 C772 1.391 . S
C774 C775 1.400 . S
C775 C774 1.400 . S
C775 C776 1.398 . S
C775 C781 1.489 . S
C776 H767 0.950 . S
C776 C775 1.398 . S
C776 C777 1.391 . S
C777 H765 0.950 . S
C777 C773 1.393 . S
C777 C776 1.391 . S
C778 H768 0.950 . S
C778 C779 1.386 . S
C778 C780 1.391 . S
C779 C778 1.386 . S
C779 C783 1.393 . S
C780 H769 0.950 . S
C780 C778 1.391 . S
C780 C781 1.401 1_545 S
C781 C775 1.489 . S
C781 C780 1.401 1_565 S
C781 C782 1.399 1_565 S
C782 H770 0.950 . S
C782 C781 1.399 1_545 S
C782 C783 1.391 . S
C783 H771 0.950 . S
C783 C779 1.393 . S
C783 C782 1.391 . S
H784 C792 0.950 . S
H785 C797 0.950 . S
H786 C794 0.950 . S
H787 C796 0.950 . S
H788 C798 0.950 . S
H789 C800 0.950 . S
H790 C802 0.950 . S
H791 C803 0.950 . S
C792 H784 0.950 . S
C792 C793 1.386 . S
C792 C794 1.391 . S
C793 C792 1.386 . S
C793 C797 1.393 . S
C794 H786 0.950 . S
C794 C792 1.391 . S
C794 C795 1.400 . S
C795 C794 1.400 . S
C795 C796 1.398 . S
C795 C801 1.491 . S
C796 H787 0.950 . S
C796 C795 1.398 . S
C796 C797 1.391 . S
C797 H785 0.950 . S
C797 C793 1.393 . S
C797 C796 1.391 . S
C798 H788 0.950 . S
C798 C799 1.386 . S
C798 C800 1.391 . S
C799 C798 1.386 . S
C799 C803 1.393 . S
C800 H789 0.950 . S
C800 C798 1.391 . S
C800 C801 1.400 . S
C801 C795 1.491 . S
C801 C800 1.400 . S
C801 C802 1.398 . S
C802 H790 0.950 . S
C802 C801 1.398 . S
C802 C803 1.391 . S
C803 H791 0.950 . S
C803 C799 1.393 . S
C803 C802 1.391 . S
H804 C812 0.950 . S
H805 C817 0.950 . S
H806 C814 0.950 . S
H807 C816 0.950 . S
H808 C818 0.950 . S
H809 C820 0.950 . S
H810 C822 0.950 . S
H811 C823 0.950 . S
C812 H804 0.950 . S
C812 C813 1.386 . S
C812 C814 1.391 . S
C813 C812 1.386 . S
C813 C817 1.393 . S
C814 H806 0.950 . S
C814 C812 1.391 . S
C814 C815 1.400 . S
C815 C814 1.400 . S
C815 C816 1.398 . S
C815 C821 1.491 . S
C816 H807 0.950 . S
C816 C815 1.398 . S
C816 C817 1.391 . S
C817 H805 0.950 . S
C817 C813 1.393 . S
C817 C816 1.391 . S
C818 H808 0.950 . S
C818 C819 1.386 . S
C818 C820 1.391 . S
C819 C818 1.386 . S
C819 C823 1.393 . S
C820 H809 0.950 . S
C820 C818 1.391 . S
C820 C821 1.400 . S
C821 C815 1.491 . S
C821 C820 1.400 . S
C821 C822 1.398 . S
C822 H810 0.950 . S
C822 C821 1.398 . S
C822 C823 1.391 . S
C823 H811 0.950 . S
C823 C819 1.393 . S
C823 C822 1.391 . S
H824 C832 0.950 . S
H825 C837 0.950 . S
H826 C834 0.950 . S
H827 C836 0.950 . S
H828 C838 0.950 . S
H829 C840 0.950 . S
H830 C842 0.950 . S
H831 C843 0.950 . S
C832 H824 0.950 . S
C832 C833 1.386 . S
C832 C834 1.391 . S
C833 C832 1.386 . S
C833 C837 1.393 . S
C834 H826 0.950 . S
C834 C832 1.391 . S
C834 C835 1.400 . S
C835 C834 1.400 . S
C835 C836 1.398 . S
C835 C841 1.491 . S
C836 H827 0.950 . S
C836 C835 1.398 . S
C836 C837 1.391 . S
C837 H825 0.950 . S
C837 C833 1.393 . S
C837 C836 1.391 . S
C838 H828 0.950 . S
C838 C839 1.386 . S
C838 C840 1.391 . S
C839 C838 1.386 . S
C839 C843 1.393 . S
C840 H829 0.950 . S
C840 C838 1.391 . S
C840 C841 1.400 . S
C841 C835 1.491 . S
C841 C840 1.400 . S
C841 C842 1.398 . S
C842 H830 0.950 . S
C842 C841 1.398 . S
C842 C843 1.391 . S
C843 H831 0.950 . S
C843 C839 1.393 . S
C843 C842 1.391 . S
H844 C852 0.950 . S
H845 C857 0.950 . S
H846 C854 0.950 . S
H847 C856 0.950 . S
H848 C858 0.950 . S
H849 C860 0.950 . S
H850 C862 0.950 . S
H851 C863 0.950 . S
C852 H844 0.950 . S
C852 C853 1.386 . S
C852 C854 1.391 . S
C853 C852 1.386 . S
C853 C857 1.393 . S
C854 H846 0.950 . S
C854 C852 1.391 . S
C854 C855 1.400 . S
C855 C854 1.400 . S
C855 C856 1.398 . S
C855 C861 1.491 . S
C856 H847 0.950 . S
C856 C855 1.398 . S
C856 C857 1.391 . S
C857 H845 0.950 . S
C857 C853 1.393 . S
C857 C856 1.391 . S
C858 H848 0.950 . S
C858 C859 1.386 . S
C858 C860 1.391 . S
C859 C858 1.386 . S
C859 C863 1.393 . S
C860 H849 0.950 . S
C860 C858 1.391 . S
C860 C861 1.400 . S
C861 C855 1.491 . S
C861 C860 1.400 . S
C861 C862 1.398 . S
C862 H850 0.950 . S
C862 C861 1.398 . S
C862 C863 1.391 . S
C863 H851 0.950 . S
C863 C859 1.393 . S
C863 C862 1.391 . S
H864 C872 0.950 . S
H865 C877 0.950 . S
H866 C874 0.950 . S
H867 C876 0.950 . S
H868 C878 0.950 . S
H869 C880 0.950 . S
H870 C882 0.950 . S
H871 C883 0.950 . S
C872 H864 0.950 . S
C872 C873 1.386 . S
C872 C874 1.391 . S
C873 C872 1.386 . S
C873 C877 1.393 . S
C874 H866 0.950 . S
C874 C872 1.391 . S
C874 C875 1.400 . S
C875 C874 1.400 . S
C875 C876 1.398 . S
C875 C881 1.491 . S
C876 H867 0.950 . S
C876 C875 1.398 . S
C876 C877 1.391 . S
C877 H865 0.950 . S
C877 C873 1.393 . S
C877 C876 1.391 . S
C878 H868 0.950 . S
C878 C879 1.386 . S
C878 C880 1.391 . S
C879 C878 1.386 . S
C879 C883 1.393 . S
C880 H869 0.950 . S
C880 C878 1.391 . S
C880 C881 1.400 . S
C881 C875 1.491 . S
C881 C880 1.400 . S
C881 C882 1.398 . S
C882 H870 0.950 . S
C882 C881 1.398 . S
C882 C883 1.391 . S
C883 H871 0.950 . S
C883 C879 1.393 . S
C883 C882 1.391 . S
H884 C892 0.950 . S
H885 C897 0.950 . S
H886 C894 0.950 . S
H887 C896 0.950 . S
H888 C898 0.950 . S
H889 C900 0.950 . S
H890 C902 0.950 . S
H891 C903 0.950 . S
C892 H884 0.950 . S
C892 C893 1.386 . S
C892 C894 1.391 . S
C893 C892 1.386 . S
C893 C897 1.393 . S
C894 H886 0.950 . S
C894 C892 1.391 . S
C894 C895 1.400 . S
C895 C894 1.400 . S
C895 C896 1.398 . S
C895 C901 1.491 . S
C896 H887 0.950 . S
C896 C895 1.398 . S
C896 C897 1.391 . S
C897 H885 0.950 . S
C897 C893 1.393 . S
C897 C896 1.391 . S
C898 H888 0.950 . S
C898 C899 1.386 . S
C898 C900 1.391 . S
C899 C898 1.386 . S
C899 C903 1.393 . S
C900 H889 0.950 . S
C900 C898 1.391 . S
C900 C901 1.400 . S
C901 C895 1.491 . S
C901 C900 1.400 . S
C901 C902 1.398 . S
C902 H890 0.950 . S
C902 C901 1.398 . S
C902 C903 1.391 . S
C903 H891 0.950 . S
C903 C899 1.393 . S
C903 C902 1.391 . S
H904 C912 0.950 . S
H905 C917 0.950 . S
H906 C914 0.950 . S
H907 C916 0.950 . S
H908 C918 0.950 . S
H909 C920 0.950 . S
H910 C922 0.950 . S
H911 C923 0.950 . S
C912 H904 0.950 . S
C912 C913 1.386 . S
C912 C914 1.391 . S
C913 C912 1.386 . S
C913 C917 1.393 . S
C914 H906 0.950 . S
C914 C912 1.391 . S
C914 C915 1.400 . S
C915 C914 1.400 . S
C915 C916 1.398 . S
C915 C921 1.491 . S
C916 H907 0.950 . S
C916 C915 1.398 . S
C916 C917 1.391 . S
C917 H905 0.950 . S
C917 C913 1.393 . S
C917 C916 1.391 . S
C918 H908 0.950 . S
C918 C919 1.386 . S
C918 C920 1.391 . S
C919 C918 1.386 . S
C919 C923 1.393 . S
C920 H909 0.950 . S
C920 C918 1.391 . S
C920 C921 1.400 . S
C921 C915 1.491 . S
C921 C920 1.400 . S
C921 C922 1.398 . S
C922 H910 0.950 . S
C922 C921 1.398 . S
C922 C923 1.391 . S
C923 H911 0.950 . S
C923 C919 1.393 . S
C923 C922 1.391 . S
H924 C932 0.950 . S
H925 C937 0.950 . S
H926 C934 0.950 . S
H927 C936 0.950 . S
H928 C938 0.950 . S
H929 C940 0.950 . S
H930 C942 0.950 . S
H931 C943 0.950 . S
C932 H924 0.950 . S
C932 C933 1.386 . S
C932 C934 1.391 . S
C933 C932 1.386 . S
C933 C937 1.393 . S
C934 H926 0.950 . S
C934 C932 1.391 . S
C934 C935 1.400 . S
C935 C934 1.400 . S
C935 C936 1.398 . S
C935 C941 1.491 . S
C936 H927 0.950 . S
C936 C935 1.398 . S
C936 C937 1.391 . S
C937 H925 0.950 . S
C937 C933 1.393 . S
C937 C936 1.391 . S
C938 H928 0.950 . S
C938 C939 1.386 . S
C938 C940 1.391 . S
C939 C938 1.386 . S
C939 C943 1.393 . S
C940 H929 0.950 . S
C940 C938 1.391 . S
C940 C941 1.400 . S
C941 C935 1.491 . S
C941 C940 1.400 . S
C941 C942 1.398 . S
C942 H930 0.950 . S
C942 C941 1.398 . S
C942 C943 1.391 . S
C943 H931 0.950 . S
C943 C939 1.393 . S
C943 C942 1.391 . S
H944 C952 0.950 . S
H945 C957 0.950 . S
H946 C954 0.950 . S
H947 C956 0.950 . S
H948 C958 0.950 . S
H949 C960 0.950 . S
H950 C962 0.950 . S
H951 C963 0.950 . S
C952 H944 0.950 . S
C952 C953 1.386 . S
C952 C954 1.391 . S
C953 C952 1.386 . S
C953 C957 1.393 . S
C954 H946 0.950 . S
C954 C952 1.391 . S
C954 C955 1.400 . S
C955 C954 1.400 . S
C955 C956 1.398 . S
C955 C961 1.491 . S
C956 H947 0.950 . S
C956 C955 1.398 . S
C956 C957 1.391 . S
C957 H945 0.950 . S
C957 C953 1.393 . S
C957 C956 1.391 . S
C958 H948 0.950 . S
C958 C959 1.386 . S
C958 C960 1.391 . S
C959 C958 1.386 . S
C959 C963 1.393 . S
C960 H949 0.950 . S
C960 C958 1.391 . S
C960 C961 1.400 . S
C961 C955 1.491 . S
C961 C960 1.400 . S
C961 C962 1.398 . S
C962 H950 0.950 . S
C962 C961 1.398 . S
C962 C963 1.391 . S
C963 H951 0.950 . S
C963 C959 1.393 . S
C963 C962 1.391 . S
H964 C972 0.950 . S
H965 C977 0.950 . S
H966 C974 0.950 . S
H967 C976 0.950 . S
H968 C978 0.950 . S
H969 C980 0.950 1_545 S
H970 C982 0.950 . S
H971 C983 0.950 . S
C972 H964 0.950 . S
C972 C973 1.386 1_565 S
C972 C974 1.391 . S
C973 C972 1.386 1_545 S
C973 C977 1.393 . S
C974 H966 0.950 . S
C974 C972 1.391 . S
C974 C975 1.400 . S
C975 C974 1.400 . S
C975 C976 1.398 1_565 S
C975 C981 1.491 . S
C976 H967 0.950 . S
C976 C975 1.398 1_545 S
C976 C977 1.391 . S
C977 H965 0.950 . S
C977 C973 1.393 . S
C977 C976 1.391 . S
C978 H968 0.950 . S
C978 C979 1.386 . S
C978 C980 1.391 . S
C979 C978 1.386 . S
C979 C983 1.393 . S
C980 H969 0.950 1_565 S
C980 C978 1.391 . S
C980 C981 1.400 . S
C981 C975 1.491 . S
C981 C980 1.400 . S
C981 C982 1.398 . S
C982 H970 0.950 . S
C982 C981 1.398 . S
C982 C983 1.391 . S
C983 H971 0.950 . S
C983 C979 1.393 . S
C983 C982 1.391 . S
H984 C992 0.950 . S
H985 C997 0.950 . S
H986 C994 0.950 . S
H987 C996 0.950 . S
H988 C998 0.950 . S
H989 C1000 0.950 . S
H990 C1002 0.950 . S
H991 C1003 0.950 . S
C992 H984 0.950 . S
C992 C993 1.386 . S
C992 C994 1.391 . S
C993 C992 1.386 . S
C993 C997 1.393 . S
C994 H986 0.950 . S
C994 C992 1.391 . S
C994 C995 1.400 . S
C995 C994 1.400 . S
C995 C996 1.398 . S
C995 C1001 1.491 . S
C996 H987 0.950 . S
C996 C995 1.398 . S
C996 C997 1.391 . S
C997 H985 0.950 . S
C997 C993 1.393 . S
C997 C996 1.391 . S
C998 H988 0.950 . S
C998 C999 1.386 . S
C998 C1000 1.391 . S
C999 C998 1.386 . S
C999 C1003 1.393 . S
C1000 H989 0.950 . S
C1000 C998 1.391 . S
C1000 C1001 1.400 . S
C1001 C995 1.491 . S
C1001 C1000 1.400 . S
C1001 C1002 1.398 . S
C1002 H990 0.950 . S
C1002 C1001 1.398 . S
C1002 C1003 1.391 . S
C1003 H991 0.950 . S
C1003 C999 1.393 . S
C1003 C1002 1.391 . S
H1004 C1012 0.950 . S
H1005 C1017 0.950 . S
H1006 C1014 0.950 . S
H1007 C1016 0.950 . S
H1008 C1018 0.950 . S
H1009 C1020 0.950 . S
H1010 C1022 0.950 . S
H1011 C1023 0.950 . S
C1012 H1004 0.950 . S
C1012 C1013 1.386 . S
C1012 C1014 1.391 . S
C1013 C1012 1.386 . S
C1013 C1017 1.393 . S
C1014 H1006 0.950 . S
C1014 C1012 1.391 . S
C1014 C1015 1.400 . S
C1015 C1014 1.400 . S
C1015 C1016 1.398 . S
C1015 C1021 1.491 . S
C1016 H1007 0.950 . S
C1016 C1015 1.398 . S
C1016 C1017 1.391 . S
C1017 H1005 0.950 . S
C1017 C1013 1.393 . S
C1017 C1016 1.391 . S
C1018 H1008 0.950 . S
C1018 C1019 1.386 1_545 S
C1018 C1020 1.391 . S
C1019 C1018 1.386 1_565 S
C1019 C1023 1.393 . S
C1020 H1009 0.950 . S
C1020 C1018 1.391 . S
C1020 C1021 1.400 . S
C1021 C1015 1.491 . S
C1021 C1020 1.400 . S
C1021 C1022 1.398 1_545 S
C1022 H1010 0.950 . S
C1022 C1021 1.398 1_565 S
C1022 C1023 1.391 . S
C1023 H1011 0.950 . S
C1023 C1019 1.393 . S
C1023 C1022 1.391 . S
H1024 C1032 0.950 . S
H1025 C1037 0.950 . S
H1026 C1034 0.950 . S
H1027 C1036 0.950 . S
H1028 C1038 0.950 . S
H1029 C1040 0.950 . S
H1030 C1042 0.950 . S
H1031 C1043 0.950 . S
C1032 H1024 0.950 . S
C1032 C1033 1.386 . S
C1032 C1034 1.391 . S
C1033 C1032 1.386 . S
C1033 C1037 1.393 . S
C1034 H1026 0.950 . S
C1034 C1032 1.391 . S
C1034 C1035 1.400 . S
C1035 C1034 1.400 . S
C1035 C1036 1.398 . S
C1035 C1041 1.491 . S
C1036 H1027 0.950 . S
C1036 C1035 1.398 . S
C1036 C1037 1.391 . S
C1037 H1025 0.950 . S
C1037 C1033 1.393 . S
C1037 C1036 1.391 . S
C1038 H1028 0.950 . S
C1038 C1039 1.386 . S
C1038 C1040 1.391 . S
C1039 C1038 1.386 . S
C1039 C1043 1.393 . S
C1040 H1029 0.950 . S
C1040 C1038 1.391 . S
C1040 C1041 1.400 . S
C1041 C1035 1.491 . S
C1041 C1040 1.400 . S
C1041 C1042 1.398 . S
C1042 H1030 0.950 . S
C1042 C1041 1.398 . S
C1042 C1043 1.391 . S
C1043 H1031 0.950 . S
C1043 C1039 1.393 . S
C1043 C1042 1.391 . S
H1044 C1052 0.950 . S
H1045 C1057 0.950 . S
H1046 C1054 0.950 . S
H1047 C1056 0.950 . S
H1048 C1058 0.950 . S
H1049 C1060 0.950 . S
H1050 C1062 0.950 . S
H1051 C1063 0.950 . S
C1052 H1044 0.950 . S
C1052 C1053 1.386 1_545 S
C1052 C1054 1.391 . S
C1053 C1052 1.386 1_565 S
C1053 C1057 1.393 . S
C1054 H1046 0.950 . S
C1054 C1052 1.391 . S
C1054 C1055 1.400 . S
C1055 C1054 1.400 . S
C1055 C1056 1.398 . S
C1055 C1061 1.491 . S
C1056 H1047 0.950 . S
C1056 C1055 1.398 . S
C1056 C1057 1.391 1_545 S
C1057 H1045 0.950 . S
C1057 C1053 1.393 . S
C1057 C1056 1.391 1_565 S
C1058 H1048 0.950 . S
C1058 C1059 1.386 . S
C1058 C1060 1.391 . S
C1059 C1058 1.386 . S
C1059 C1063 1.393 . S
C1060 H1049 0.950 . S
C1060 C1058 1.391 . S
C1060 C1061 1.400 . S
C1061 C1055 1.491 . S
C1061 C1060 1.400 . S
C1061 C1062 1.398 . S
C1062 H1050 0.950 . S
C1062 C1061 1.398 . S
C1062 C1063 1.391 . S
C1063 H1051 0.950 . S
C1063 C1059 1.393 . S
C1063 C1062 1.391 . S
H1064 C1072 0.950 . S
H1065 C1077 0.950 . S
H1066 C1074 0.950 . S
H1067 C1076 0.950 . S
H1068 C1078 0.950 . S
H1069 C1080 0.950 . S
H1070 C1082 0.950 . S
H1071 C1083 0.950 . S
C1072 H1064 0.950 . S
C1072 C1073 1.386 . S
C1072 C1074 1.391 . S
C1073 C1072 1.386 . S
C1073 C1077 1.393 . S
C1074 H1066 0.950 . S
C1074 C1072 1.391 . S
C1074 C1075 1.400 . S
C1075 C1074 1.400 . S
C1075 C1076 1.398 . S
C1075 C1081 1.491 . S
C1076 H1067 0.950 . S
C1076 C1075 1.398 . S
C1076 C1077 1.391 . S
C1077 H1065 0.950 . S
C1077 C1073 1.393 . S
C1077 C1076 1.391 . S
C1078 H1068 0.950 . S
C1078 C1079 1.386 . S
C1078 C1080 1.391 . S
C1079 C1078 1.386 . S
C1079 C1083 1.393 . S
C1080 H1069 0.950 . S
C1080 C1078 1.391 . S
C1080 C1081 1.400 . S
C1081 C1075 1.491 . S
C1081 C1080 1.400 . S
C1081 C1082 1.398 . S
C1082 H1070 0.950 . S
C1082 C1081 1.398 . S
C1082 C1083 1.391 . S
C1083 H1071 0.950 . S
C1083 C1079 1.393 . S
C1083 C1082 1.391 . S
H1084 C1092 0.950 . S
H1085 C1097 0.950 . S
H1086 C1094 0.950 . S
H1087 C1096 0.950 . S
H1088 C1098 0.950 . S
H1089 C1100 0.949 . S
H1090 C1102 0.950 . S
H1091 C1103 0.950 . S
C1092 H1084 0.950 . S
C1092 C1093 1.386 1_565 S
C1092 C1094 1.391 . S
C1093 C1092 1.386 1_545 S
C1093 C1097 1.393 . S
C1094 H1086 0.950 . S
C1094 C1092 1.391 . S
C1094 C1095 1.400 . S
C1095 C1094 1.400 . S
C1095 C1096 1.398 1_565 S
C1095 C1101 1.491 . S
C1096 H1087 0.950 . S
C1096 C1095 1.398 1_545 S
C1096 C1097 1.391 . S
C1097 H1085 0.950 . S
C1097 C1093 1.393 . S
C1097 C1096 1.391 . S
C1098 H1088 0.950 . S
C1098 C1099 1.386 . S
C1098 C1100 1.391 . S
C1099 C1098 1.386 . S
C1099 C1103 1.393 . S
C1100 H1089 0.949 . S
C1100 C1098 1.391 . S
C1100 C1101 1.400 . S
C1101 C1095 1.491 . S
C1101 C1100 1.400 . S
C1101 C1102 1.398 . S
C1102 H1090 0.950 . S
C1102 C1101 1.398 . S
C1102 C1103 1.391 . S
C1103 H1091 0.950 . S
C1103 C1099 1.393 . S
C1103 C1102 1.391 . S
H1104 C1112 0.950 1_545 S
H1105 C1117 0.940 1_554 S
H1106 C1114 0.950 . S
H1107 C1116 0.950 . S
H1108 C1118 0.950 1_565 S
H1109 C1120 0.950 . S
H1110 C1122 0.950 . S
H1111 C1123 0.940 1_556 S
C1112 H1104 0.950 1_565 S
C1112 C1113 1.386 . S
C1112 C1114 1.391 1_565 S
C1113 C1112 1.386 . S
C1113 C1117 1.393 . S
C1114 H1106 0.950 . S
C1114 C1112 1.391 1_545 S
C1114 C1115 1.400 1_545 S
C1115 C1114 1.400 1_565 S
C1115 C1116 1.398 1_556 S
C1115 C1121 1.491 1_566 S
C1116 H1107 0.950 . S
C1116 C1115 1.398 1_554 S
C1116 C1117 1.391 1_554 S
C1117 H1105 0.940 1_556 S
C1117 C1113 1.393 . S
C1117 C1116 1.391 1_556 S
C1118 H1108 0.950 1_545 S
C1118 C1119 1.386 . S
C1118 C1120 1.391 1_545 S
C1119 C1118 1.386 . S
C1119 C1123 1.393 . S
C1120 H1109 0.950 . S
C1120 C1118 1.391 1_565 S
C1120 C1121 1.400 1_565 S
C1121 C1115 1.491 1_544 S
C1121 C1120 1.400 1_545 S
C1121 C1122 1.398 1_554 S
C1122 H1110 0.950 . S
C1122 C1121 1.398 1_556 S
C1122 C1123 1.391 1_556 S
C1123 H1111 0.940 1_554 S
C1123 C1119 1.393 . S
C1123 C1122 1.391 1_554 S
H1124 C1132 0.950 . S
H1125 C1137 0.950 . S
H1126 C1134 0.950 . S
H1127 C1136 0.950 . S
H1128 C1138 0.950 . S
H1129 C1140 0.950 . S
H1130 C1142 0.950 . S
H1131 C1143 0.950 . S
C1132 H1124 0.950 . S
C1132 C1133 1.386 . S
C1132 C1134 1.391 . S
C1133 C1132 1.386 . S
C1133 C1137 1.393 . S
C1134 H1126 0.950 . S
C1134 C1132 1.391 . S
C1134 C1135 1.400 . S
C1135 C1134 1.400 . S
C1135 C1136 1.398 . S
C1135 C1141 1.491 . S
C1136 H1127 0.950 . S
C1136 C1135 1.398 . S
C1136 C1137 1.391 . S
C1137 H1125 0.950 . S
C1137 C1133 1.393 . S
C1137 C1136 1.391 . S
C1138 H1128 0.950 . S
C1138 C1139 1.386 . S
C1138 C1140 1.391 . S
C1139 C1138 1.386 . S
C1139 C1143 1.393 . S
C1140 H1129 0.950 . S
C1140 C1138 1.391 . S
C1140 C1141 1.400 . S
C1141 C1135 1.491 . S
C1141 C1140 1.400 . S
C1141 C1142 1.398 . S
C1142 H1130 0.950 . S
C1142 C1141 1.398 . S
C1142 C1143 1.391 . S
C1143 H1131 0.950 . S
C1143 C1139 1.393 . S
C1143 C1142 1.391 . S
H1144 C1152 0.950 . S
H1145 C1157 0.950 . S
H1146 C1154 0.950 . S
H1147 C1156 0.950 . S
H1148 C1158 0.950 . S
H1149 C1160 0.950 . S
H1150 C1162 0.950 . S
H1151 C1163 0.950 . S
C1152 H1144 0.950 . S
C1152 C1153 1.386 . S
C1152 C1154 1.391 . S
C1153 C1152 1.386 . S
C1153 C1157 1.393 . S
C1154 H1146 0.950 . S
C1154 C1152 1.391 . S
C1154 C1155 1.400 . S
C1155 C1154 1.400 . S
C1155 C1156 1.398 . S
C1155 C1161 1.491 1_645 S
C1156 H1147 0.950 . S
C1156 C1155 1.398 . S
C1156 C1157 1.391 . S
C1157 H1145 0.950 . S
C1157 C1153 1.393 . S
C1157 C1156 1.391 . S
C1158 H1148 0.950 . S
C1158 C1159 1.386 . S
C1158 C1160 1.391 . S
C1159 C1158 1.386 . S
C1159 C1163 1.393 . S
C1160 H1149 0.950 . S
C1160 C1158 1.391 . S
C1160 C1161 1.400 . S
C1161 C1155 1.491 1_465 S
C1161 C1160 1.400 . S
C1161 C1162 1.398 . S
C1162 H1150 0.950 . S
C1162 C1161 1.398 . S
C1162 C1163 1.391 . S
C1163 H1151 0.950 . S
C1163 C1159 1.393 . S
C1163 C1162 1.391 . S
H1164 C1172 0.950 . S
H1165 C1177 0.950 . S
H1166 C1174 0.950 . S
H1167 C1176 0.950 . S
H1168 C1178 0.950 . S
H1169 C1180 0.950 . S
H1170 C1182 0.950 . S
H1171 C1183 0.950 . S
C1172 H1164 0.950 . S
C1172 C1173 1.386 . S
C1172 C1174 1.391 . S
C1173 C1172 1.386 . S
C1173 C1177 1.393 . S
C1174 H1166 0.950 . S
C1174 C1172 1.391 . S
C1174 C1175 1.400 . S
C1175 C1174 1.400 . S
C1175 C1176 1.398 . S
C1175 C1181 1.491 . S
C1176 H1167 0.950 . S
C1176 C1175 1.398 . S
C1176 C1177 1.391 . S
C1177 H1165 0.950 . S
C1177 C1173 1.393 . S
C1177 C1176 1.391 . S
C1178 H1168 0.950 . S
C1178 C1179 1.386 . S
C1178 C1180 1.391 . S
C1179 C1178 1.386 . S
C1179 C1183 1.393 . S
C1180 H1169 0.950 . S
C1180 C1178 1.391 . S
C1180 C1181 1.400 . S
C1181 C1175 1.491 . S
C1181 C1180 1.400 . S
C1181 C1182 1.398 . S
C1182 H1170 0.950 . S
C1182 C1181 1.398 . S
C1182 C1183 1.391 . S
C1183 H1171 0.950 . S
C1183 C1179 1.393 . S
C1183 C1182 1.391 . S
H1184 C1192 0.950 . S
H1185 C1197 0.950 . S
H1186 C1194 0.950 . S
H1187 C1196 0.950 . S
H1188 C1198 0.950 . S
H1189 C1200 0.950 . S
H1190 C1202 0.950 . S
H1191 C1203 0.950 . S
C1192 H1184 0.950 . S
C1192 C1193 1.386 . S
C1192 C1194 1.391 . S
C1193 C1192 1.386 . S
C1193 C1197 1.393 . S
C1194 H1186 0.950 . S
C1194 C1192 1.391 . S
C1194 C1195 1.400 . S
C1195 C1194 1.400 . S
C1195 C1196 1.398 . S
C1195 C1201 1.491 . S
C1196 H1187 0.950 . S
C1196 C1195 1.398 . S
C1196 C1197 1.391 . S
C1197 H1185 0.950 . S
C1197 C1193 1.393 . S
C1197 C1196 1.391 . S
C1198 H1188 0.950 . S
C1198 C1199 1.386 . S
C1198 C1200 1.391 . S
C1199 C1198 1.386 . S
C1199 C1203 1.393 . S
C1200 H1189 0.950 . S
C1200 C1198 1.391 . S
C1200 C1201 1.400 . S
C1201 C1195 1.491 . S
C1201 C1200 1.400 . S
C1201 C1202 1.398 . S
C1202 H1190 0.950 . S
C1202 C1201 1.398 . S
C1202 C1203 1.391 . S
C1203 H1191 0.950 . S
C1203 C1199 1.393 . S
C1203 C1202 1.391 . S
H1204 C1212 0.950 . S
H1205 C1217 0.950 . S
H1206 C1214 0.950 . S
H1207 C1216 0.950 . S
H1208 C1218 0.950 . S
H1209 C1220 0.950 . S
H1210 C1222 0.950 . S
H1211 C1223 0.950 . S
C1212 H1204 0.950 . S
C1212 C1213 1.386 . S
C1212 C1214 1.391 . S
C1213 C1212 1.386 . S
C1213 C1217 1.393 . S
C1214 H1206 0.950 . S
C1214 C1212 1.391 . S
C1214 C1215 1.400 . S
C1215 C1214 1.400 . S
C1215 C1216 1.398 . S
C1215 C1221 1.491 . S
C1216 H1207 0.950 . S
C1216 C1215 1.398 . S
C1216 C1217 1.391 . S
C1217 H1205 0.950 . S
C1217 C1213 1.393 . S
C1217 C1216 1.391 . S
C1218 H1208 0.950 . S
C1218 C1219 1.386 . S
C1218 C1220 1.391 . S
C1219 C1218 1.386 . S
C1219 C1223 1.393 . S
C1220 H1209 0.950 . S
C1220 C1218 1.391 . S
C1220 C1221 1.400 . S
C1221 C1215 1.491 . S
C1221 C1220 1.400 . S
C1221 C1222 1.398 . S
C1222 H1210 0.950 . S
C1222 C1221 1.398 . S
C1222 C1223 1.391 . S
C1223 H1211 0.950 . S
C1223 C1219 1.393 . S
C1223 C1222 1.391 . S
H1224 C1232 0.950 . S
H1225 C1237 0.950 . S
H1226 C1234 0.943 1_455 S
H1227 C1236 0.950 . S
H1228 C1238 0.950 . S
H1229 C1240 0.943 1_655 S
H1230 C1242 0.950 . S
H1231 C1243 0.950 . S
C1232 H1224 0.950 . S
C1232 C1233 1.386 . S
C1232 C1234 1.391 . S
C1233 C1232 1.386 . S
C1233 C1237 1.393 . S
C1234 H1226 0.943 1_655 S
C1234 C1232 1.391 . S
C1234 C1235 1.400 . S
C1235 C1234 1.400 . S
C1235 C1236 1.398 . S
C1235 C1241 1.491 1_655 S
C1236 H1227 0.950 . S
C1236 C1235 1.398 . S
C1236 C1237 1.391 . S
C1237 H1225 0.950 . S
C1237 C1233 1.393 . S
C1237 C1236 1.391 . S
C1238 H1228 0.950 . S
C1238 C1239 1.386 . S
C1238 C1240 1.391 . S
C1239 C1238 1.386 . S
C1239 C1243 1.393 . S
C1240 H1229 0.943 1_455 S
C1240 C1238 1.391 . S
C1240 C1241 1.400 . S
C1241 C1235 1.491 1_455 S
C1241 C1240 1.400 . S
C1241 C1242 1.398 . S
C1242 H1230 0.950 . S
C1242 C1241 1.398 . S
C1242 C1243 1.391 . S
C1243 H1231 0.950 . S
C1243 C1239 1.393 . S
C1243 C1242 1.391 . S
H1244 C1252 0.950 1_556 S
H1245 C1257 0.950 . S
H1246 C1254 0.950 . S
H1247 C1256 0.950 . S
H1248 C1258 0.950 1_554 S
H1249 C1260 0.950 . S
H1250 C1262 0.950 . S
H1251 C1263 0.950 . S
C1252 H1244 0.950 1_554 S
C1252 C1253 1.386 . S
C1252 C1254 1.391 1_554 S
C1253 C1252 1.386 . S
C1253 C1257 1.393 . S
C1254 H1246 0.950 . S
C1254 C1252 1.391 1_556 S
C1254 C1255 1.400 1_556 S
C1255 C1254 1.400 1_554 S
C1255 C1256 1.398 . S
C1255 C1261 1.491 1_554 S
C1256 H1247 0.950 . S
C1256 C1255 1.398 . S
C1256 C1257 1.391 . S
C1257 H1245 0.950 . S
C1257 C1253 1.393 . S
C1257 C1256 1.391 . S
C1258 H1248 0.950 1_556 S
C1258 C1259 1.386 . S
C1258 C1260 1.391 1_556 S
C1259 C1258 1.386 . S
C1259 C1263 1.393 . S
C1260 H1249 0.950 . S
C1260 C1258 1.391 1_554 S
C1260 C1261 1.400 1_554 S
C1261 C1255 1.491 1_556 S
C1261 C1260 1.400 1_556 S
C1261 C1262 1.398 . S
C1262 H1250 0.950 . S
C1262 C1261 1.398 . S
C1262 C1263 1.391 . S
C1263 H1251 0.950 . S
C1263 C1259 1.393 . S
C1263 C1262 1.391 . S
H1264 C1272 0.950 . S
H1265 C1277 0.950 . S
H1266 C1274 0.950 . S
H1267 C1276 0.950 . S
H1268 C1278 0.950 . S
H1269 C1280 0.950 . S
H1270 C1282 0.950 1_556 S
H1271 C1283 0.950 . S
C1272 H1264 0.950 . S
C1272 C1273 1.386 . S
C1272 C1274 1.391 . S
C1273 C1272 1.386 . S
C1273 C1277 1.393 . S
C1274 H1266 0.950 . S
C1274 C1272 1.391 . S
C1274 C1275 1.400 . S
C1275 C1274 1.400 . S
C1275 C1276 1.398 . S
C1275 C1281 1.491 1_556 S
C1276 H1267 0.950 . S
C1276 C1275 1.398 . S
C1276 C1277 1.391 . S
C1277 H1265 0.950 . S
C1277 C1273 1.393 . S
C1277 C1276 1.391 . S
C1278 H1268 0.950 . S
C1278 C1279 1.386 . S
C1278 C1280 1.391 . S
C1279 C1278 1.386 . S
C1279 C1283 1.393 . S
C1280 H1269 0.950 . S
C1280 C1278 1.391 . S
C1280 C1281 1.400 . S
C1281 C1275 1.491 1_554 S
C1281 C1280 1.400 . S
C1281 C1282 1.398 . S
C1282 H1270 0.950 1_554 S
C1282 C1281 1.398 . S
C1282 C1283 1.391 . S
C1283 H1271 0.950 . S
C1283 C1279 1.393 . S
C1283 C1282 1.391 . S
H1284 C1292 0.950 . S
H1285 C1297 0.950 . S
H1286 C1294 0.950 . S
H1287 C1296 0.950 . S
H1288 C1298 0.950 . S
H1289 C1300 0.950 . S
H1290 C1302 0.950 . S
H1291 C1303 0.950 . S
C1292 H1284 0.950 . S
C1292 C1293 1.386 . S
C1292 C1294 1.391 . S
C1293 C1292 1.386 . S
C1293 C1297 1.393 . S
C1294 H1286 0.950 . S
C1294 C1292 1.391 . S
C1294 C1295 1.400 . S
C1295 C1294 1.400 . S
C1295 C1296 1.398 . S
C1295 C1301 1.491 . S
C1296 H1287 0.950 . S
C1296 C1295 1.398 . S
C1296 C1297 1.391 . S
C1297 H1285 0.950 . S
C1297 C1293 1.393 . S
C1297 C1296 1.391 . S
C1298 H1288 0.950 . S
C1298 C1299 1.386 . S
C1298 C1300 1.391 . S
C1299 C1298 1.386 . S
C1299 C1303 1.393 . S
C1300 H1289 0.950 . S
C1300 C1298 1.391 . S
C1300 C1301 1.400 . S
C1301 C1295 1.491 . S
C1301 C1300 1.400 . S
C1301 C1302 1.398 . S
C1302 H1290 0.950 . S
C1302 C1301 1.398 . S
C1302 C1303 1.391 . S
C1303 H1291 0.950 . S
C1303 C1299 1.393 . S
C1303 C1302 1.391 . S
H1304 C1312 0.950 . S
H1305 C1317 0.950 . S
H1306 C1314 0.950 . S
H1307 C1316 0.950 . S
H1308 C1318 0.950 . S
H1309 C1320 0.950 . S
H1310 C1322 0.950 . S
H1311 C1323 0.950 . S
C1312 H1304 0.950 . S
C1312 C1313 1.386 . S
C1312 C1314 1.391 . S
C1313 C1312 1.386 . S
C1313 C1317 1.393 . S
C1314 H1306 0.950 . S
C1314 C1312 1.391 . S
C1314 C1315 1.400 . S
C1315 C1314 1.400 . S
C1315 C1316 1.398 . S
C1315 C1321 1.491 . S
C1316 H1307 0.950 . S
C1316 C1315 1.398 . S
C1316 C1317 1.391 . S
C1317 H1305 0.950 . S
C1317 C1313 1.393 . S
C1317 C1316 1.391 . S
C1318 H1308 0.950 . S
C1318 C1319 1.386 . S
C1318 C1320 1.391 . S
C1319 C1318 1.386 . S
C1319 C1323 1.393 . S
C1320 H1309 0.950 . S
C1320 C1318 1.391 . S
C1320 C1321 1.400 . S
C1321 C1315 1.491 . S
C1321 C1320 1.400 . S
C1321 C1322 1.398 . S
C1322 H1310 0.950 . S
C1322 C1321 1.398 . S
C1322 C1323 1.391 . S
C1323 H1311 0.950 . S
C1323 C1319 1.393 . S
C1323 C1322 1.391 . S
H1324 C1332 0.950 . S
H1325 C1337 0.950 . S
H1326 C1334 0.950 . S
H1327 C1336 0.950 . S
H1328 C1338 0.950 . S
H1329 C1340 0.950 . S
H1330 C1342 0.950 . S
H1331 C1343 0.950 . S
C1332 H1324 0.950 . S
C1332 C1333 1.386 . S
C1332 C1334 1.391 . S
C1333 C1332 1.386 . S
C1333 C1337 1.393 . S
C1334 H1326 0.950 . S
C1334 C1332 1.391 . S
C1334 C1335 1.400 . S
C1335 C1334 1.400 . S
C1335 C1336 1.398 . S
C1335 C1341 1.491 . S
C1336 H1327 0.950 . S
C1336 C1335 1.398 . S
C1336 C1337 1.391 . S
C1337 H1325 0.950 . S
C1337 C1333 1.393 . S
C1337 C1336 1.391 . S
C1338 H1328 0.950 . S
C1338 C1339 1.386 . S
C1338 C1340 1.391 . S
C1339 C1338 1.386 . S
C1339 C1343 1.393 . S
C1340 H1329 0.950 . S
C1340 C1338 1.391 . S
C1340 C1341 1.400 . S
C1341 C1335 1.491 . S
C1341 C1340 1.400 . S
C1341 C1342 1.398 . S
C1342 H1330 0.950 . S
C1342 C1341 1.398 . S
C1342 C1343 1.391 . S
C1343 H1331 0.950 . S
C1343 C1339 1.393 . S
C1343 C1342 1.391 . S
H1344 C1352 0.929 1_554 S
H1345 C1357 0.950 . S
H1346 C1354 0.950 . S
H1347 C1356 0.950 . S
H1348 C1358 0.950 . S
H1349 C1360 0.950 1_556 S
H1350 C1362 0.950 . S
H1351 C1363 0.950 . S
C1352 H1344 0.929 1_556 S
C1352 C1353 1.386 . S
C1352 C1354 1.391 1_556 S
C1353 C1352 1.386 . S
C1353 C1357 1.393 . S
C1354 H1346 0.950 . S
C1354 C1352 1.391 1_554 S
C1354 C1355 1.400 1_554 S
C1355 C1354 1.400 1_556 S
C1355 C1356 1.398 . S
C1355 C1361 1.491 1_556 S
C1356 H1347 0.950 . S
C1356 C1355 1.398 . S
C1356 C1357 1.391 . S
C1357 H1345 0.950 . S
C1357 C1353 1.393 . S
C1357 C1356 1.391 . S
C1358 H1348 0.950 . S
C1358 C1359 1.386 . S
C1358 C1360 1.391 . S
C1359 C1358 1.386 . S
C1359 C1363 1.393 . S
C1360 H1349 0.950 1_554 S
C1360 C1358 1.391 . S
C1360 C1361 1.400 . S
C1361 C1355 1.491 1_554 S
C1361 C1360 1.400 . S
C1361 C1362 1.398 . S
C1362 H1350 0.950 . S
C1362 C1361 1.398 . S
C1362 C1363 1.391 . S
C1363 H1351 0.950 . S
C1363 C1359 1.393 . S
C1363 C1362 1.391 . S
H1364 C1372 0.950 . S
H1365 C1377 0.950 . S
H1366 C1374 0.950 . S
H1367 C1376 0.950 . S
H1368 C1378 0.950 . S
H1369 C1380 0.950 . S
H1370 C1382 0.950 . S
H1371 C1383 0.950 . S
C1372 H1364 0.950 . S
C1372 C1373 1.386 . S
C1372 C1374 1.391 . S
C1373 C1372 1.386 . S
C1373 C1377 1.393 . S
C1374 H1366 0.950 . S
C1374 C1372 1.391 . S
C1374 C1375 1.400 . S
C1375 C1374 1.400 . S
C1375 C1376 1.398 . S
C1375 C1381 1.491 . S
C1376 H1367 0.950 . S
C1376 C1375 1.398 . S
C1376 C1377 1.391 . S
C1377 H1365 0.950 . S
C1377 C1373 1.393 . S
C1377 C1376 1.391 . S
C1378 H1368 0.950 . S
C1378 C1379 1.386 . S
C1378 C1380 1.391 . S
C1379 C1378 1.386 . S
C1379 C1383 1.393 . S
C1380 H1369 0.950 . S
C1380 C1378 1.391 . S
C1380 C1381 1.400 . S
C1381 C1375 1.491 . S
C1381 C1380 1.400 . S
C1381 C1382 1.398 . S
C1382 H1370 0.950 . S
C1382 C1381 1.398 . S
C1382 C1383 1.391 . S
C1383 H1371 0.950 . S
C1383 C1379 1.393 . S
C1383 C1382 1.391 . S
H1384 C1392 0.950 . S
H1385 C1397 0.950 . S
H1386 C1394 0.950 . S
H1387 C1396 0.950 . S
H1388 C1398 0.950 . S
H1389 C1400 0.950 . S
H1390 C1402 0.950 . S
H1391 C1403 0.950 . S
C1392 H1384 0.950 . S
C1392 C1393 1.386 . S
C1392 C1394 1.391 . S
C1393 C1392 1.386 . S
C1393 C1397 1.393 . S
C1394 H1386 0.950 . S
C1394 C1392 1.391 . S
C1394 C1395 1.400 . S
C1395 C1394 1.400 . S
C1395 C1396 1.398 . S
C1395 C1401 1.491 . S
C1396 H1387 0.950 . S
C1396 C1395 1.398 . S
C1396 C1397 1.391 . S
C1397 H1385 0.950 . S
C1397 C1393 1.393 . S
C1397 C1396 1.391 . S
C1398 H1388 0.950 . S
C1398 C1399 1.386 . S
C1398 C1400 1.391 . S
C1399 C1398 1.386 . S
C1399 C1403 1.393 . S
C1400 H1389 0.950 . S
C1400 C1398 1.391 . S
C1400 C1401 1.400 . S
C1401 C1395 1.491 . S
C1401 C1400 1.400 . S
C1401 C1402 1.398 . S
C1402 H1390 0.950 . S
C1402 C1401 1.398 . S
C1402 C1403 1.391 . S
C1403 H1391 0.950 . S
C1403 C1399 1.393 . S
C1403 C1402 1.391 . S
H1404 C1412 0.950 . S
H1405 C1417 0.950 . S
H1406 C1414 0.950 . S
H1407 C1416 0.950 . S
H1408 C1418 0.950 . S
H1409 C1420 0.950 . S
H1410 C1422 0.950 . S
H1411 C1423 0.950 . S
C1412 H1404 0.950 . S
C1412 C1413 1.386 . S
C1412 C1414 1.391 . S
C1413 C1412 1.386 . S
C1413 C1417 1.393 . S
C1414 H1406 0.950 . S
C1414 C1412 1.391 . S
C1414 C1415 1.400 . S
C1415 C1414 1.400 . S
C1415 C1416 1.398 . S
C1415 C1421 1.491 . S
C1416 H1407 0.950 . S
C1416 C1415 1.398 . S
C1416 C1417 1.391 . S
C1417 H1405 0.950 . S
C1417 C1413 1.393 . S
C1417 C1416 1.391 . S
C1418 H1408 0.950 . S
C1418 C1419 1.386 . S
C1418 C1420 1.391 . S
C1419 C1418 1.386 . S
C1419 C1423 1.393 . S
C1420 H1409 0.950 . S
C1420 C1418 1.391 . S
C1420 C1421 1.400 . S
C1421 C1415 1.491 . S
C1421 C1420 1.400 . S
C1421 C1422 1.398 . S
C1422 H1410 0.950 . S
C1422 C1421 1.398 . S
C1422 C1423 1.391 . S
C1423 H1411 0.950 . S
C1423 C1419 1.393 . S
C1423 C1422 1.391 . S
H1424 C1432 0.950 . S
H1425 C1437 0.950 . S
H1426 C1434 0.950 . S
H1427 C1436 0.950 . S
H1428 C1438 0.950 . S
H1429 C1440 0.950 . S
H1430 C1442 0.950 . S
H1431 C1443 0.950 . S
C1432 H1424 0.950 . S
C1432 C1433 1.386 . S
C1432 C1434 1.391 . S
C1433 C1432 1.386 . S
C1433 C1437 1.393 . S
C1434 H1426 0.950 . S
C1434 C1432 1.391 . S
C1434 C1435 1.400 . S
C1435 C1434 1.400 . S
C1435 C1436 1.398 . S
C1435 C1441 1.491 . S
C1436 H1427 0.950 . S
C1436 C1435 1.398 . S
C1436 C1437 1.391 . S
C1437 H1425 0.950 . S
C1437 C1433 1.393 . S
C1437 C1436 1.391 . S
C1438 H1428 0.950 . S
C1438 C1439 1.386 . S
C1438 C1440 1.391 . S
C1439 C1438 1.386 . S
C1439 C1443 1.393 . S
C1440 H1429 0.950 . S
C1440 C1438 1.391 . S
C1440 C1441 1.400 . S
C1441 C1435 1.491 . S
C1441 C1440 1.400 . S
C1441 C1442 1.398 . S
C1442 H1430 0.950 . S
C1442 C1441 1.398 . S
C1442 C1443 1.391 . S
C1443 H1431 0.950 . S
C1443 C1439 1.393 . S
C1443 C1442 1.391 . S
H1444 C1452 0.950 . S
H1445 C1457 0.950 . S
H1446 C1454 0.950 . S
H1447 C1456 0.950 . S
H1448 C1458 0.950 . S
H1449 C1460 0.950 . S
H1450 C1462 0.950 1_565 S
H1451 C1463 0.950 1_565 S
C1452 H1444 0.950 . S
C1452 C1453 1.386 1_565 S
C1452 C1454 1.391 . S
C1453 C1452 1.386 1_545 S
C1453 C1457 1.393 . S
C1454 H1446 0.950 . S
C1454 C1452 1.391 . S
C1454 C1455 1.400 1_565 S
C1455 C1454 1.400 1_545 S
C1455 C1456 1.398 . S
C1455 C1461 1.491 . S
C1456 H1447 0.950 . S
C1456 C1455 1.398 . S
C1456 C1457 1.391 . S
C1457 H1445 0.950 . S
C1457 C1453 1.393 . S
C1457 C1456 1.391 . S
C1458 H1448 0.950 . S
C1458 C1459 1.386 . S
C1458 C1460 1.391 . S
C1459 C1458 1.386 . S
C1459 C1463 1.393 . S
C1460 H1449 0.950 . S
C1460 C1458 1.391 . S
C1460 C1461 1.400 . S
C1461 C1455 1.491 . S
C1461 C1460 1.400 . S
C1461 C1462 1.398 . S
C1462 H1450 0.950 1_545 S
C1462 C1461 1.398 . S
C1462 C1463 1.391 . S
C1463 H1451 0.950 1_545 S
C1463 C1459 1.393 . S
C1463 C1462 1.391 . S
H1464 C1472 0.950 . S
H1465 C1477 0.950 . S
H1466 C1474 0.950 . S
H1467 C1476 0.950 1_556 S
H1468 C1478 0.950 . S
H1469 C1480 0.950 . S
H1470 C1482 0.950 . S
H1471 C1483 0.950 . S
C1472 H1464 0.950 . S
C1472 C1473 1.386 . S
C1472 C1474 1.391 . S
C1473 C1472 1.386 . S
C1473 C1477 1.393 . S
C1474 H1466 0.950 . S
C1474 C1472 1.391 . S
C1474 C1475 1.400 . S
C1475 C1474 1.400 . S
C1475 C1476 1.398 . S
C1475 C1481 1.491 1_554 S
C1476 H1467 0.950 1_554 S
C1476 C1475 1.398 . S
C1476 C1477 1.391 . S
C1477 H1465 0.950 . S
C1477 C1473 1.393 . S
C1477 C1476 1.391 . S
C1478 H1468 0.950 . S
C1478 C1479 1.386 . S
C1478 C1480 1.391 . S
C1479 C1478 1.386 . S
C1479 C1483 1.393 . S
C1480 H1469 0.950 . S
C1480 C1478 1.391 . S
C1480 C1481 1.400 . S
C1481 C1475 1.491 1_556 S
C1481 C1480 1.400 . S
C1481 C1482 1.398 . S
C1482 H1470 0.950 . S
C1482 C1481 1.398 . S
C1482 C1483 1.391 . S
C1483 H1471 0.950 . S
C1483 C1479 1.393 . S
C1483 C1482 1.391 . S
H1484 C1492 0.950 1_545 S
H1485 C1497 0.950 . S
H1486 C1494 0.950 1_545 S
H1487 C1496 0.950 . S
H1488 C1498 0.950 . S
H1489 C1500 0.950 . S
H1490 C1502 0.950 1_545 S
H1491 C1503 0.950 . S
C1492 H1484 0.950 1_565 S
C1492 C1493 1.386 . S
C1492 C1494 1.391 . S
C1493 C1492 1.386 . S
C1493 C1497 1.393 . S
C1494 H1486 0.950 1_565 S
C1494 C1492 1.391 . S
C1494 C1495 1.400 . S
C1495 C1494 1.400 . S
C1495 C1496 1.398 . S
C1495 C1501 1.491 . S
C1496 H1487 0.950 . S
C1496 C1495 1.398 . S
C1496 C1497 1.391 . S
C1497 H1485 0.950 . S
C1497 C1493 1.393 . S
C1497 C1496 1.391 . S
C1498 H1488 0.950 . S
C1498 C1499 1.386 . S
C1498 C1500 1.391 . S
C1499 C1498 1.386 . S
C1499 C1503 1.393 1_565 S
C1500 H1489 0.950 . S
C1500 C1498 1.391 . S
C1500 C1501 1.400 . S
C1501 C1495 1.491 . S
C1501 C1500 1.400 . S
C1501 C1502 1.398 . S
C1502 H1490 0.950 1_565 S
C1502 C1501 1.398 . S
C1502 C1503 1.391 1_565 S
C1503 H1491 0.950 . S
C1503 C1499 1.393 1_545 S
C1503 C1502 1.391 1_545 S
H1504 C1512 0.950 . S
H1505 C1517 0.950 . S
H1506 C1514 0.950 . S
H1507 C1516 0.950 . S
H1508 C1518 0.950 . S
H1509 C1520 0.950 . S
H1510 C1522 0.950 . S
H1511 C1523 0.950 . S
C1512 H1504 0.950 . S
C1512 C1513 1.386 . S
C1512 C1514 1.391 . S
C1513 C1512 1.386 . S
C1513 C1517 1.393 . S
C1514 H1506 0.950 . S
C1514 C1512 1.391 . S
C1514 C1515 1.400 . S
C1515 C1514 1.400 . S
C1515 C1516 1.398 . S
C1515 C1521 1.491 . S
C1516 H1507 0.950 . S
C1516 C1515 1.398 . S
C1516 C1517 1.391 . S
C1517 H1505 0.950 . S
C1517 C1513 1.393 . S
C1517 C1516 1.391 . S
C1518 H1508 0.950 . S
C1518 C1519 1.386 . S
C1518 C1520 1.391 . S
C1519 C1518 1.386 . S
C1519 C1523 1.393 . S
C1520 H1509 0.950 . S
C1520 C1518 1.391 . S
C1520 C1521 1.400 . S
C1521 C1515 1.491 . S
C1521 C1520 1.400 . S
C1521 C1522 1.398 . S
C1522 H1510 0.950 . S
C1522 C1521 1.398 . S
C1522 C1523 1.391 . S
C1523 H1511 0.950 . S
C1523 C1519 1.393 . S
C1523 C1522 1.391 . S
H1524 C1532 0.950 1_545 S
H1525 C1537 0.950 . S
H1526 C1534 0.950 1_545 S
H1527 C1536 0.950 . S
H1528 C1538 0.950 . S
H1529 C1540 0.950 . S
H1530 C1542 0.950 1_545 S
H1531 C1543 0.950 1_545 S
C1532 H1524 0.950 1_565 S
C1532 C1533 1.386 . S
C1532 C1534 1.391 . S
C1533 C1532 1.386 . S
C1533 C1537 1.393 . S
C1534 H1526 0.950 1_565 S
C1534 C1532 1.391 . S
C1534 C1535 1.400 . S
C1535 C1534 1.400 . S
C1535 C1536 1.398 . S
C1535 C1541 1.491 . S
C1536 H1527 0.950 . S
C1536 C1535 1.398 . S
C1536 C1537 1.391 . S
C1537 H1525 0.950 . S
C1537 C1533 1.393 . S
C1537 C1536 1.391 . S
C1538 H1528 0.950 . S
C1538 C1539 1.386 . S
C1538 C1540 1.391 . S
C1539 C1538 1.386 . S
C1539 C1543 1.393 . S
C1540 H1529 0.950 . S
C1540 C1538 1.391 . S
C1540 C1541 1.400 . S
C1541 C1535 1.491 . S
C1541 C1540 1.400 . S
C1541 C1542 1.398 . S
C1542 H1530 0.950 1_565 S
C1542 C1541 1.398 . S
C1542 C1543 1.391 . S
C1543 H1531 0.950 1_565 S
C1543 C1539 1.393 . S
C1543 C1542 1.391 . S
H1544 C1552 0.950 1_554 S
H1545 C1557 0.950 . S
H1546 C1554 0.950 . S
H1547 C1556 0.950 . S
H1548 C1558 0.950 . S
H1549 C1560 0.950 1_556 S
H1550 C1562 0.950 . S
H1551 C1563 0.950 . S
C1552 H1544 0.950 1_556 S
C1552 C1553 1.386 . S
C1552 C1554 1.391 1_556 S
C1553 C1552 1.386 . S
C1553 C1557 1.393 . S
C1554 H1546 0.950 . S
C1554 C1552 1.391 1_554 S
C1554 C1555 1.400 1_554 S
C1555 C1554 1.400 1_556 S
C1555 C1556 1.398 . S
C1555 C1561 1.491 1_556 S
C1556 H1547 0.950 . S
C1556 C1555 1.398 . S
C1556 C1557 1.391 . S
C1557 H1545 0.950 . S
C1557 C1553 1.393 . S
C1557 C1556 1.391 . S
C1558 H1548 0.950 . S
C1558 C1559 1.386 . S
C1558 C1560 1.391 . S
C1559 C1558 1.386 . S
C1559 C1563 1.393 . S
C1560 H1549 0.950 1_554 S
C1560 C1558 1.391 . S
C1560 C1561 1.400 . S
C1561 C1555 1.491 1_554 S
C1561 C1560 1.400 . S
C1561 C1562 1.398 . S
C1562 H1550 0.950 . S
C1562 C1561 1.398 . S
C1562 C1563 1.391 . S
C1563 H1551 0.950 . S
C1563 C1559 1.393 . S
C1563 C1562 1.391 . S
H1564 C1572 0.950 . S
H1565 C1577 0.950 . S
H1566 C1574 0.950 . S
H1567 C1576 0.950 . S
H1568 C1578 0.950 . S
H1569 C1580 0.950 . S
H1570 C1582 0.950 . S
H1571 C1583 0.950 . S
C1572 H1564 0.950 . S
C1572 C1573 1.386 . S
C1572 C1574 1.391 . S
C1573 C1572 1.386 . S
C1573 C1577 1.393 . S
C1574 H1566 0.950 . S
C1574 C1572 1.391 . S
C1574 C1575 1.400 . S
C1575 C1574 1.400 . S
C1575 C1576 1.398 . S
C1575 C1581 1.491 . S
C1576 H1567 0.950 . S
C1576 C1575 1.398 . S
C1576 C1577 1.391 . S
C1577 H1565 0.950 . S
C1577 C1573 1.393 . S
C1577 C1576 1.391 . S
C1578 H1568 0.950 . S
C1578 C1579 1.386 . S
C1578 C1580 1.391 . S
C1579 C1578 1.386 . S
C1579 C1583 1.393 . S
C1580 H1569 0.950 . S
C1580 C1578 1.391 . S
C1580 C1581 1.400 . S
C1581 C1575 1.491 . S
C1581 C1580 1.400 . S
C1581 C1582 1.398 . S
C1582 H1570 0.950 . S
C1582 C1581 1.398 . S
C1582 C1583 1.391 . S
C1583 H1571 0.950 . S
C1583 C1579 1.393 . S
C1583 C1582 1.391 . S
C473 C269 1.014 . S
C479 C3 1.032 . S
C493 C298 1.052 . S
C499 C32 1.065 . S
C513 C327 1.008 . S
C519 C61 1.039 . S
C533 C240 1.046 . S
C539 C90 1.056 . S
C553 C119 1.068 . S
C559 C385 1.042 . S
C573 C414 1.048 . S
C579 C148 1.058 . S
C593 C443 1.053 . S
C599 C177 1.068 . S
C613 C206 1.041 . S
C619 C356 1.029 . S
C633 C37 1.052 . S
C639 C235 1.070 . S
C653 C66 1.034 . S
C659 C264 1.045 . S
C673 C293 1.057 . S
C679 C95 1.047 . S
C693 C8 1.036 . S
C699 C322 1.047 . S
C713 C153 1.013 . S
C719 C351 1.032 . S
C733 C380 1.036 . S
C739 C182 1.006 . S
C753 C409 1.066 . S
C759 C211 1.038 . S
C773 C124 1.051 . S
C779 C438 1.071 . S
C793 C213 2.274 . S
C799 C15 2.328 . S
C813 C44 2.325 . S
C819 C358 2.270 . S
C833 C73 2.330 . S
C839 C155 2.270 . S
C853 C416 2.272 . S
C859 C102 2.326 . S
C873 C97 2.260 . S
C879 C131 2.322 . S
C893 C242 2.265 . S
C899 C160 2.323 . S
C913 C39 2.274 . S
C919 C189 2.329 . S
C933 C300 2.265 . S
C939 C218 2.322 . S
C953 C247 2.330 . S
C959 C445 2.268 . S
C973 C276 2.330 . S
C979 C126 2.267 . S
C993 C387 2.259 . S
C999 C305 2.327 . S
C1013 C184 2.258 . S
C1019 C334 2.322 . S
C1033 C363 2.329 . S
C1039 C329 2.265 . S
C1053 C392 2.323 . S
C1059 C10 2.256 . S
C1073 C421 2.328 . S
C1079 C271 2.274 . S
C1093 C450 2.323 . S
C1099 C68 2.268 . S
C1113 C121 2.419 . S
C1119 C5 2.419 . S
C1133 C34 2.417 . S
C1139 C382 2.417 . S
C1153 C179 2.427 . S
C1159 C63 2.427 . S
C1173 C440 2.433 . S
C1179 C92 2.433 . S
C1193 C266 2.416 . S
C1199 C150 2.416 . S
C1213 C208 2.424 . S
C1219 C324 2.424 . S
C1233 C237 2.416 . S
C1239 C353 2.416 . S
C1253 C295 2.419 . S
C1259 C411 2.419 . S
C1273 C419 1.249 . S
C1279 C21 1.249 . S
C1293 C216 1.243 . S
C1299 C50 1.225 . S
C1313 C79 1.238 . S
C1319 C361 1.273 . S
C1333 C158 1.280 . S
C1339 C108 1.217 . S
C1353 C137 1.220 . S
C1359 C303 1.245 . S
C1373 C166 1.226 . S
C1379 C100 1.279 . S
C1393 C195 1.204 . S
C1399 C245 1.272 . S
C1413 C42 1.252 . S
C1419 C224 1.250 . S
C1433 C253 1.248 . S
C1439 C187 1.247 . S
C1453 C448 1.280 . S
C1459 C282 1.215 . S
C1473 C311 1.209 . S
C1479 C129 1.278 . S
C1493 C340 1.204 . S
C1499 C390 1.272 . S
C1513 C71 1.241 . S
C1519 C369 1.238 . S
C1533 C398 1.234 . S
C1539 C332 1.241 . S
C1553 C427 1.217 . S
C1559 C13 1.247 . S
C1573 C456 1.244 . S
C1579 C274 1.268 . S
