# Generated by pormake.
# Topology wne, (6)-cn, num edge types: 1
# Building blocks:
#     Node 0, Type 0, BuildingBlock: KUMJIN_clean_sbu_1, # of connection points: 6
#     Node 1, Type 0, BuildingBlock: KUMJIN_clean_sbu_1, # of connection points: 6
#     Node 2, Type 0, BuildingBlock: KUMJIN_clean_sbu_1, # of connection points: 6
#     Node 3, Type 0, BuildingBlock: KUMJIN_clean_sbu_1, # of connection points: 6
#     Node 4, Type 0, BuildingBlock: KUMJIN_clean_sbu_1, # of connection points: 6
#     Node 5, Type 0, BuildingBlock: KUMJIN_clean_sbu_1, # of connection points: 6
#     Node 6, Type 0, BuildingBlock: KUMJIN_clean_sbu_1, # of connection points: 6
#     Node 7, Type 0, BuildingBlock: KUMJIN_clean_sbu_1, # of connection points: 6
#     Node 8, Type 0, BuildingBlock: KUMJIN_clean_sbu_1, # of connection points: 6
#     Node 9, Type 0, BuildingBlock: KUMJIN_clean_sbu_1, # of connection points: 6
#     Node 10, Type 0, BuildingBlock: KUMJIN_clean_sbu_1, # of connection points: 6
#     Node 11, Type 0, BuildingBlock: KUMJIN_clean_sbu_1, # of connection points: 6
#     Node 12, Type 0, BuildingBlock: KUMJIN_clean_sbu_1, # of connection points: 6
#     Node 13, Type 0, BuildingBlock: KUMJIN_clean_sbu_1, # of connection points: 6
#     Node 14, Type 0, BuildingBlock: KUMJIN_clean_sbu_1, # of connection points: 6
#     Node 15, Type 0, BuildingBlock: KUMJIN_clean_sbu_1, # of connection points: 6
#     Node 16, Type 0, BuildingBlock: KUMJIN_clean_sbu_1, # of connection points: 6
#     Node 17, Type 0, BuildingBlock: KUMJIN_clean_sbu_1, # of connection points: 6
#     Node 18, Type 0, BuildingBlock: KUMJIN_clean_sbu_1, # of connection points: 6
#     Node 19, Type 0, BuildingBlock: KUMJIN_clean_sbu_1, # of connection points: 6
#     Node 20, Type 0, BuildingBlock: KUMJIN_clean_sbu_1, # of connection points: 6
#     Node 21, Type 0, BuildingBlock: KUMJIN_clean_sbu_1, # of connection points: 6
#     Node 22, Type 0, BuildingBlock: KUMJIN_clean_sbu_1, # of connection points: 6
#     Node 23, Type 0, BuildingBlock: KUMJIN_clean_sbu_1, # of connection points: 6
#     Node 24, Type 0, BuildingBlock: KUMJIN_clean_sbu_1, # of connection points: 6
#     Node 25, Type 0, BuildingBlock: KUMJIN_clean_sbu_1, # of connection points: 6
#     Node 26, Type 0, BuildingBlock: KUMJIN_clean_sbu_1, # of connection points: 6
#     Node 27, Type 0, BuildingBlock: KUMJIN_clean_sbu_1, # of connection points: 6
#     Node 28, Type 0, BuildingBlock: KUMJIN_clean_sbu_1, # of connection points: 6
#     Node 29, Type 0, BuildingBlock: KUMJIN_clean_sbu_1, # of connection points: 6
#     Node 30, Type 0, BuildingBlock: KUMJIN_clean_sbu_1, # of connection points: 6
#     Node 31, Type 0, BuildingBlock: KUMJIN_clean_sbu_1, # of connection points: 6
#     Node 32, Type 0, BuildingBlock: KUMJIN_clean_sbu_1, # of connection points: 6
#     Node 33, Type 0, BuildingBlock: KUMJIN_clean_sbu_1, # of connection points: 6
#     Node 34, Type 0, BuildingBlock: KUMJIN_clean_sbu_1, # of connection points: 6
#     Node 35, Type 0, BuildingBlock: KUMJIN_clean_sbu_1, # of connection points: 6
#     Edge 36, Type (0, 0), BuildingBlock: UVAHIK_clean_linker_0, # of connection points: 2
#     Edge 37, Type (0, 0), BuildingBlock: UVAHIK_clean_linker_0, # of connection points: 2
#     Edge 38, Type (0, 0), BuildingBlock: UVAHIK_clean_linker_0, # of connection points: 2
#     Edge 39, Type (0, 0), BuildingBlock: UVAHIK_clean_linker_0, # of connection points: 2
#     Edge 40, Type (0, 0), BuildingBlock: UVAHIK_clean_linker_0, # of connection points: 2
#     Edge 41, Type (0, 0), BuildingBlock: UVAHIK_clean_linker_0, # of connection points: 2
#     Edge 42, Type (0, 0), BuildingBlock: UVAHIK_clean_linker_0, # of connection points: 2
#     Edge 43, Type (0, 0), BuildingBlock: UVAHIK_clean_linker_0, # of connection points: 2
#     Edge 44, Type (0, 0), BuildingBlock: UVAHIK_clean_linker_0, # of connection points: 2
#     Edge 45, Type (0, 0), BuildingBlock: UVAHIK_clean_linker_0, # of connection points: 2
#     Edge 46, Type (0, 0), BuildingBlock: UVAHIK_clean_linker_0, # of connection points: 2
#     Edge 47, Type (0, 0), BuildingBlock: UVAHIK_clean_linker_0, # of connection points: 2
#     Edge 48, Type (0, 0), BuildingBlock: UVAHIK_clean_linker_0, # of connection points: 2
#     Edge 49, Type (0, 0), BuildingBlock: UVAHIK_clean_linker_0, # of connection points: 2
#     Edge 50, Type (0, 0), BuildingBlock: UVAHIK_clean_linker_0, # of connection points: 2
#     Edge 51, Type (0, 0), BuildingBlock: UVAHIK_clean_linker_0, # of connection points: 2
#     Edge 52, Type (0, 0), BuildingBlock: UVAHIK_clean_linker_0, # of connection points: 2
#     Edge 53, Type (0, 0), BuildingBlock: UVAHIK_clean_linker_0, # of connection points: 2
#     Edge 54, Type (0, 0), BuildingBlock: UVAHIK_clean_linker_0, # of connection points: 2
#     Edge 55, Type (0, 0), BuildingBlock: UVAHIK_clean_linker_0, # of connection points: 2
#     Edge 56, Type (0, 0), BuildingBlock: UVAHIK_clean_linker_0, # of connection points: 2
#     Edge 57, Type (0, 0), BuildingBlock: UVAHIK_clean_linker_0, # of connection points: 2
#     Edge 58, Type (0, 0), BuildingBlock: UVAHIK_clean_linker_0, # of connection points: 2
#     Edge 59, Type (0, 0), BuildingBlock: UVAHIK_clean_linker_0, # of connection points: 2
#     Edge 60, Type (0, 0), BuildingBlock: UVAHIK_clean_linker_0, # of connection points: 2
#     Edge 61, Type (0, 0), BuildingBlock: UVAHIK_clean_linker_0, # of connection points: 2
#     Edge 62, Type (0, 0), BuildingBlock: UVAHIK_clean_linker_0, # of connection points: 2
#     Edge 63, Type (0, 0), BuildingBlock: UVAHIK_clean_linker_0, # of connection points: 2
#     Edge 64, Type (0, 0), BuildingBlock: UVAHIK_clean_linker_0, # of connection points: 2
#     Edge 65, Type (0, 0), BuildingBlock: UVAHIK_clean_linker_0, # of connection points: 2
#     Edge 66, Type (0, 0), BuildingBlock: UVAHIK_clean_linker_0, # of connection points: 2
#     Edge 67, Type (0, 0), BuildingBlock: UVAHIK_clean_linker_0, # of connection points: 2
#     Edge 68, Type (0, 0), BuildingBlock: UVAHIK_clean_linker_0, # of connection points: 2
#     Edge 69, Type (0, 0), BuildingBlock: UVAHIK_clean_linker_0, # of connection points: 2
#     Edge 70, Type (0, 0), BuildingBlock: UVAHIK_clean_linker_0, # of connection points: 2
#     Edge 71, Type (0, 0), BuildingBlock: UVAHIK_clean_linker_0, # of connection points: 2
#     Edge 72, Type (0, 0), BuildingBlock: UVAHIK_clean_linker_0, # of connection points: 2
#     Edge 73, Type (0, 0), BuildingBlock: UVAHIK_clean_linker_0, # of connection points: 2
#     Edge 74, Type (0, 0), BuildingBlock: UVAHIK_clean_linker_0, # of connection points: 2
#     Edge 75, Type (0, 0), BuildingBlock: UVAHIK_clean_linker_0, # of connection points: 2
#     Edge 76, Type (0, 0), BuildingBlock: UVAHIK_clean_linker_0, # of connection points: 2
#     Edge 77, Type (0, 0), BuildingBlock: UVAHIK_clean_linker_0, # of connection points: 2
#     Edge 78, Type (0, 0), BuildingBlock: UVAHIK_clean_linker_0, # of connection points: 2
#     Edge 79, Type (0, 0), BuildingBlock: UVAHIK_clean_linker_0, # of connection points: 2
#     Edge 80, Type (0, 0), BuildingBlock: UVAHIK_clean_linker_0, # of connection points: 2
#     Edge 81, Type (0, 0), BuildingBlock: UVAHIK_clean_linker_0, # of connection points: 2
#     Edge 82, Type (0, 0), BuildingBlock: UVAHIK_clean_linker_0, # of connection points: 2
#     Edge 83, Type (0, 0), BuildingBlock: UVAHIK_clean_linker_0, # of connection points: 2
#     Edge 84, Type (0, 0), BuildingBlock: UVAHIK_clean_linker_0, # of connection points: 2
#     Edge 85, Type (0, 0), BuildingBlock: UVAHIK_clean_linker_0, # of connection points: 2
#     Edge 86, Type (0, 0), BuildingBlock: UVAHIK_clean_linker_0, # of connection points: 2
#     Edge 87, Type (0, 0), BuildingBlock: UVAHIK_clean_linker_0, # of connection points: 2
#     Edge 88, Type (0, 0), BuildingBlock: UVAHIK_clean_linker_0, # of connection points: 2
#     Edge 89, Type (0, 0), BuildingBlock: UVAHIK_clean_linker_0, # of connection points: 2
#     Edge 90, Type (0, 0), BuildingBlock: UVAHIK_clean_linker_0, # of connection points: 2
#     Edge 91, Type (0, 0), BuildingBlock: UVAHIK_clean_linker_0, # of connection points: 2
#     Edge 92, Type (0, 0), BuildingBlock: UVAHIK_clean_linker_0, # of connection points: 2
#     Edge 93, Type (0, 0), BuildingBlock: UVAHIK_clean_linker_0, # of connection points: 2
#     Edge 94, Type (0, 0), BuildingBlock: UVAHIK_clean_linker_0, # of connection points: 2
#     Edge 95, Type (0, 0), BuildingBlock: UVAHIK_clean_linker_0, # of connection points: 2
#     Edge 96, Type (0, 0), BuildingBlock: UVAHIK_clean_linker_0, # of connection points: 2
#     Edge 97, Type (0, 0), BuildingBlock: UVAHIK_clean_linker_0, # of connection points: 2
#     Edge 98, Type (0, 0), BuildingBlock: UVAHIK_clean_linker_0, # of connection points: 2
#     Edge 99, Type (0, 0), BuildingBlock: UVAHIK_clean_linker_0, # of connection points: 2
#     Edge 100, Type (0, 0), BuildingBlock: UVAHIK_clean_linker_0, # of connection points: 2
#     Edge 101, Type (0, 0), BuildingBlock: UVAHIK_clean_linker_0, # of connection points: 2
#     Edge 102, Type (0, 0), BuildingBlock: UVAHIK_clean_linker_0, # of connection points: 2
#     Edge 103, Type (0, 0), BuildingBlock: UVAHIK_clean_linker_0, # of connection points: 2
#     Edge 104, Type (0, 0), BuildingBlock: UVAHIK_clean_linker_0, # of connection points: 2
#     Edge 105, Type (0, 0), BuildingBlock: UVAHIK_clean_linker_0, # of connection points: 2
#     Edge 106, Type (0, 0), BuildingBlock: UVAHIK_clean_linker_0, # of connection points: 2
#     Edge 107, Type (0, 0), BuildingBlock: UVAHIK_clean_linker_0, # of connection points: 2
#     Edge 108, Type (0, 0), BuildingBlock: UVAHIK_clean_linker_0, # of connection points: 2
#     Edge 109, Type (0, 0), BuildingBlock: UVAHIK_clean_linker_0, # of connection points: 2
#     Edge 110, Type (0, 0), BuildingBlock: UVAHIK_clean_linker_0, # of connection points: 2
#     Edge 111, Type (0, 0), BuildingBlock: UVAHIK_clean_linker_0, # of connection points: 2
#     Edge 112, Type (0, 0), BuildingBlock: UVAHIK_clean_linker_0, # of connection points: 2
#     Edge 113, Type (0, 0), BuildingBlock: UVAHIK_clean_linker_0, # of connection points: 2
#     Edge 114, Type (0, 0), BuildingBlock: UVAHIK_clean_linker_0, # of connection points: 2
#     Edge 115, Type (0, 0), BuildingBlock: UVAHIK_clean_linker_0, # of connection points: 2
#     Edge 116, Type (0, 0), BuildingBlock: UVAHIK_clean_linker_0, # of connection points: 2
#     Edge 117, Type (0, 0), BuildingBlock: UVAHIK_clean_linker_0, # of connection points: 2
#     Edge 118, Type (0, 0), BuildingBlock: UVAHIK_clean_linker_0, # of connection points: 2
#     Edge 119, Type (0, 0), BuildingBlock: UVAHIK_clean_linker_0, # of connection points: 2
#     Edge 120, Type (0, 0), BuildingBlock: UVAHIK_clean_linker_0, # of connection points: 2
#     Edge 121, Type (0, 0), BuildingBlock: UVAHIK_clean_linker_0, # of connection points: 2
#     Edge 122, Type (0, 0), BuildingBlock: UVAHIK_clean_linker_0, # of connection points: 2
#     Edge 123, Type (0, 0), BuildingBlock: UVAHIK_clean_linker_0, # of connection points: 2
#     Edge 124, Type (0, 0), BuildingBlock: UVAHIK_clean_linker_0, # of connection points: 2
#     Edge 125, Type (0, 0), BuildingBlock: UVAHIK_clean_linker_0, # of connection points: 2
#     Edge 126, Type (0, 0), BuildingBlock: UVAHIK_clean_linker_0, # of connection points: 2
#     Edge 127, Type (0, 0), BuildingBlock: UVAHIK_clean_linker_0, # of connection points: 2
#     Edge 128, Type (0, 0), BuildingBlock: UVAHIK_clean_linker_0, # of connection points: 2
#     Edge 129, Type (0, 0), BuildingBlock: UVAHIK_clean_linker_0, # of connection points: 2
#     Edge 130, Type (0, 0), BuildingBlock: UVAHIK_clean_linker_0, # of connection points: 2
#     Edge 131, Type (0, 0), BuildingBlock: UVAHIK_clean_linker_0, # of connection points: 2
#     Edge 132, Type (0, 0), BuildingBlock: UVAHIK_clean_linker_0, # of connection points: 2
#     Edge 133, Type (0, 0), BuildingBlock: UVAHIK_clean_linker_0, # of connection points: 2
#     Edge 134, Type (0, 0), BuildingBlock: UVAHIK_clean_linker_0, # of connection points: 2
#     Edge 135, Type (0, 0), BuildingBlock: UVAHIK_clean_linker_0, # of connection points: 2
#     Edge 136, Type (0, 0), BuildingBlock: UVAHIK_clean_linker_0, # of connection points: 2
#     Edge 137, Type (0, 0), BuildingBlock: UVAHIK_clean_linker_0, # of connection points: 2
#     Edge 138, Type (0, 0), BuildingBlock: UVAHIK_clean_linker_0, # of connection points: 2
#     Edge 139, Type (0, 0), BuildingBlock: UVAHIK_clean_linker_0, # of connection points: 2
#     Edge 140, Type (0, 0), BuildingBlock: UVAHIK_clean_linker_0, # of connection points: 2
#     Edge 141, Type (0, 0), BuildingBlock: UVAHIK_clean_linker_0, # of connection points: 2
#     Edge 142, Type (0, 0), BuildingBlock: UVAHIK_clean_linker_0, # of connection points: 2
#     Edge 143, Type (0, 0), BuildingBlock: UVAHIK_clean_linker_0, # of connection points: 2
# Relax obj value: 0.259
# Max RMSD: 0.228
# Mean RMSD: 0.227
data_MOF--net-wne--node1-KUMJIN_clean_sbu_1--edge1-UVAHIK_clean_linker_0
_symmetry_space_group_name_H-M    P1
_symmetry_Int_Tables_number       1
_symmetry_cell_setting            triclinic
loop_
_symmetry_equiv_pos_as_xyz
'x, y, z'
_cell_length_a     101.4936
_cell_length_b     101.58459
_cell_length_c     48.221805
_cell_angle_alpha  90.056693
_cell_angle_beta   90.023528
_cell_angle_gamma 119.92056
loop_
_atom_site_label
_atom_site_type_symbol
_atom_site_fract_x
_atom_site_fract_y
_atom_site_fract_z
_atom_type_partial_charge
Eu0 Eu 0.3006 0.2286 0.10102 0.0
C1 C 0.23269 0.17463 0.08509 0.0
N2 N 0.24321 0.17585 0.10397 0.0
C3 C 0.22386 0.16443 0.13879 0.0
C4 C 0.21735 0.16874 0.09278 0.0
C5 C 0.23885 0.17003 0.13006 0.0
C6 C 0.21311 0.16405 0.12022 0.0
C7 C 0.22594 0.17498 0.03687 0.0
C8 C 0.23694 0.17782 0.05743 0.0
C9 C 0.21087 0.17005 0.04471 0.0
C10 C 0.20659 0.16699 0.07262 0.0
Eu11 Eu 0.26839 0.18636 0.08721 0.0
N12 N 0.25159 0.18253 0.05034 0.0
C13 C 0.23027 0.1765 1.00895 0.0
C14 C 0.25565 0.183 0.02319 0.0
C15 C 0.24511 0.18022 1.00208 0.0
H16 H 0.24703 0.16986 0.14425 0.0
H17 H 0.24844 0.18096 0.98056 0.0
H18 H 0.32702 0.23454 0.05396 0.0
H19 H 0.30374 0.22604 0.21494 0.0
H20 H 0.2671 0.1858 0.01791 0.0
H21 H 0.22213 0.17433 0.99255 0.0
H22 H 0.29333 0.22858 0.17098 0.0
H23 H 0.22056 0.16024 0.15973 0.0
H24 H 0.20231 0.16803 0.02925 0.0
H25 H 0.1948 0.16265 0.07822 0.0
H26 H 0.35196 0.23595 0.05128 0.0
H27 H 0.20145 0.15948 0.12693 0.0
H28 H 0.32778 0.22546 0.21579 0.0
N29 N 0.32452 0.2302 0.0972 0.0
C30 C 0.33144 0.22998 0.1212 0.0
C31 C 0.34623 0.23405 0.07104 0.0
C32 C 0.34581 0.23098 0.12078 0.0
C33 C 0.33196 0.23292 0.07249 0.0
C34 C 0.35312 0.23288 0.09525 0.0
N35 N 0.31009 0.2276 0.1459 0.0
C36 C 0.30326 0.22744 0.1704 0.0
C37 C 0.33062 0.22748 0.17124 0.0
C38 C 0.3239 0.22834 0.14614 0.0
C39 C 0.32302 0.22619 0.19612 0.0
C40 C 0.30941 0.22641 0.1957 0.0
H41 H 0.36416 0.23368 0.09407 0.0
H42 H 0.3633 0.23045 0.14573 0.0
H43 H 0.34996 0.22729 0.18988 0.0
O44 O 0.31187 0.25125 0.11949 0.0
O45 O 0.30406 0.20794 0.10043 0.0
O46 O 0.28387 0.19015 0.12391 0.0
O47 O 0.31247 0.24871 0.07494 0.0
O48 O 0.28001 0.2226 0.12836 0.0
O49 O 0.26572 0.19623 0.13083 0.0
O50 O 0.27767 0.17152 0.07539 0.0
O51 O 0.26708 0.20511 0.06272 0.0
O52 O 0.27722 0.22612 0.09091 0.0
O53 O 0.25399 0.16147 0.08419 0.0
O54 O 0.28881 0.19691 0.05515 0.0
O55 O 0.29742 0.22263 0.05504 0.0
C56 C 0.29851 0.19716 0.1192 0.0
C57 C 0.31758 0.27272 0.09144 0.0
C58 C 0.30994 0.29139 0.10103 0.0
C59 C 0.32176 0.3018 0.08389 0.0
C60 C 0.32928 0.28324 0.07434 0.0
C61 C 0.33134 0.29771 0.07056 0.0
C62 C 0.30775 0.27674 0.10474 0.0
C63 C 0.26926 0.2101 0.14033 0.0
C64 C 0.31676 0.25808 0.09578 0.0
C65 C 0.35236 0.2299 0.14568 0.0
C66 C 0.34474 0.22807 0.17082 0.0
C67 C 0.26687 0.21711 0.0727 0.0
C68 C 0.26424 0.14475 0.08641 0.0
C69 C 0.25837 0.11799 0.08003 0.0
C70 C 0.26223 0.11802 0.10808 0.0
C71 C 0.26796 0.14409 0.11413 0.0
C72 C 0.25957 0.13164 0.06916 0.0
C73 C 0.26701 0.13088 0.12477 0.0
C74 C 0.29704 0.21065 0.04369 0.0
C75 C 0.26468 0.15887 0.07603 0.0
H76 H 0.32353 0.31315 0.08079 0.0
H77 H 0.33698 0.28028 0.06413 0.0
H78 H 0.34042 0.3058 0.05744 0.0
H79 H 0.29869 0.2687 0.11803 0.0
H80 H 0.26165 0.108 0.11722 0.0
H81 H 0.27152 0.15382 0.12766 0.0
H82 H 0.25654 0.13195 0.04772 0.0
H83 H 0.26992 0.13055 0.14626 0.0
Eu84 Eu 0.80197 0.07467 0.10153 0.0
C85 C 0.85652 0.06286 0.08535 0.0
N86 N 0.85493 0.07179 0.10457 0.0
C87 C 0.86553 0.06299 0.13956 0.0
C88 C 0.86217 0.05318 0.09288 0.0
C89 C 0.86018 0.07263 0.131 0.0
C90 C 0.86626 0.05301 0.12054 0.0
C91 C 0.85685 0.0565 0.03687 0.0
C92 C 0.85378 0.06439 0.05763 0.0
C93 C 0.86164 0.04622 0.04448 0.0
C94 C 0.86424 0.04451 0.07243 0.0
Eu95 Eu 0.84487 0.08696 0.08788 0.0
N96 N 0.84897 0.07429 0.0508 0.0
C97 C 0.85549 0.05957 1.00901 0.0
C98 C 0.84854 0.07804 0.02374 0.0
C99 C 0.85157 0.07057 1.00244 0.0
H100 H 0.86034 0.08079 0.1456 0.0
H101 H 0.85087 0.0733 0.98099 0.0
H102 H 0.79576 0.09628 0.05764 0.0
H103 H 0.79894 0.07357 0.21553 0.0
H104 H 0.84561 0.08662 0.01869 0.0
H105 H 0.85782 0.05379 0.99247 0.0
H106 H 0.79794 0.063 0.16937 0.0
H107 H 0.86932 0.06344 0.1607 0.0
H108 H 0.86382 0.03987 0.02885 0.0
H109 H 0.86841 0.0369 0.07791 0.0
H110 H 0.79352 0.11942 0.05836 0.0
H111 H 0.87064 0.04573 0.12714 0.0
H112 H 0.79992 0.09827 0.22036 0.0
N113 N 0.79872 0.09612 0.10111 0.0
C114 C 0.79843 0.10223 0.126 0.0
C115 C 0.79504 0.1148 0.07752 0.0
C116 C 0.79718 0.11543 0.12751 0.0
C117 C 0.79646 0.1018 0.0771 0.0
C118 C 0.79559 0.12177 0.10283 0.0
N119 N 0.80039 0.08235 0.14762 0.0
C120 C 0.79931 0.07418 0.17084 0.0
C121 C 0.79961 0.10156 0.17608 0.0
C122 C 0.79965 0.09534 0.14991 0.0
C123 C 0.79991 0.09387 0.19988 0.0
C124 C 0.79944 0.07996 0.19723 0.0
H125 H 0.79462 0.13192 0.1031 0.0
H126 H 0.79698 0.13219 0.15504 0.0
H127 H 0.79911 0.12005 0.19761 0.0
O128 O 0.77862 0.06032 0.11594 0.0
O129 O 0.8214 0.09946 0.10154 0.0
O130 O 0.84031 0.09841 0.12412 0.0
O131 O 0.78303 0.066 0.07254 0.0
O132 O 0.80963 0.06106 0.12809 0.0
O133 O 0.83565 0.07664 0.13298 0.0
O134 O 0.85962 0.11052 0.07335 0.0
O135 O 0.82672 0.06608 0.06366 0.0
O136 O 0.80643 0.05501 0.09321 0.0
O137 O 0.86986 0.09791 0.08808 0.0
O138 O 0.83386 0.09656 0.05631 0.0
O139 O 0.80858 0.0783 0.05595 0.0
C140 C 0.83245 0.10524 0.11989 0.0
C141 C 0.76518 0.04065 0.08363 0.0
C142 C 0.74791 0.01439 0.09703 0.0
C143 C 0.75139 1.00947 0.07223 0.0
C144 C 0.76844 0.03547 0.05887 0.0
C145 C 0.76159 0.01997 0.05333 0.0
C146 C 0.75493 0.03004 0.1026 0.0
C147 C 0.82237 0.06494 0.14164 0.0
C148 C 0.77328 0.05695 0.09077 0.0
C149 C 0.79768 0.12192 0.15347 0.0
C150 C 0.79894 0.11503 0.17769 0.0
C151 C 0.81487 0.05381 0.07373 0.0
C152 C 0.88588 0.12493 0.08736 0.0
C153 C 0.91154 0.14751 0.08034 0.0
C154 C 0.91106 0.15155 0.10812 0.0
C155 C 0.88601 0.12956 0.11475 0.0
C156 C 0.89881 0.13389 0.07013 0.0
C157 C 0.89851 0.1427 0.12501 0.0
C158 C 0.82005 0.09042 0.04485 0.0
C159 C 0.87239 0.11064 0.07714 0.0
H160 H 0.74586 0.99752 0.06697 0.0
H161 H 0.77641 0.04335 0.04388 0.0
H162 H 0.76413 0.01609 0.03422 0.0
H163 H 0.7525 0.03398 0.12179 0.0
H164 H 0.92055 0.16161 0.11702 0.0
H165 H 0.87641 0.12294 0.12829 0.0
H166 H 0.89883 0.13043 0.04889 0.0
H167 H 0.89849 0.14609 0.14629 0.0
Eu168 Eu 0.95485 0.73159 0.09877 0.0
C169 C 0.96786 0.79843 0.08387 0.0
N170 N 0.95858 0.78821 0.1031 0.0
C171 C 0.96746 0.80786 0.13757 0.0
C172 C 0.97784 0.81371 0.09123 0.0
C173 C 0.95758 0.79291 0.12919 0.0
C174 C 0.97786 0.81823 0.11867 0.0
C175 C 0.97464 0.80468 0.03542 0.0
C176 C 0.96635 0.79397 0.05624 0.0
C177 C 0.98531 0.81965 0.04293 0.0
C178 C 0.98693 0.82414 0.07078 0.0
Eu179 Eu 0.94326 0.76296 0.08693 0.0
N180 N 0.95602 0.77939 0.0495 0.0
C181 C 0.97153 0.80018 1.0076 0.0
C182 C 0.95213 0.77522 0.02244 0.0
C183 C 0.96001 0.78547 1.00109 0.0
H184 H 0.9492 0.78508 0.14365 0.0
H185 H 0.95722 0.78203 0.97966 0.0
H186 H 0.93663 0.70543 0.04981 0.0
H187 H 0.94833 0.72547 0.21227 0.0
H188 H 0.9432 0.76385 0.01744 0.0
H189 H 0.97763 0.80809 0.99102 0.0
H190 H 0.96142 0.7373 0.1691 0.0
H191 H 0.96693 0.81141 0.15851 0.0
H192 H 0.99197 0.82797 0.02727 0.0
H193 H 0.99481 0.83587 0.07614 0.0
H194 H 0.91401 0.67997 0.04512 0.0
H195 H 0.98537 0.82986 0.12513 0.0
H196 H 0.92449 0.70074 0.21129 0.0
N197 N 0.93415 0.70672 0.09325 0.0
C198 C 0.9268 0.69916 0.11658 0.0
C199 C 0.91737 0.68529 0.06532 0.0
C200 C 0.91388 0.68452 0.11499 0.0
C201 C 0.93004 0.69981 0.06796 0.0
C202 C 0.90913 0.67767 0.08891 0.0
N203 N 0.94464 0.72037 0.14283 0.0
C204 C 0.95077 0.72693 0.1678 0.0
C205 C 0.92435 0.69883 0.16658 0.0
C206 C 0.93205 0.70626 0.14204 0.0
C207 C 0.93009 0.70604 0.19201 0.0
C208 C 0.9435 0.72003 0.19262 0.0
H209 H 0.89925 0.66645 0.08681 0.0
H210 H 0.89601 0.6661 0.13848 0.0
H211 H 0.90513 0.67865 0.18365 0.0
O212 O 0.96912 0.72278 0.11477 0.0
O213 O 0.93021 0.72667 0.0999 0.0
O214 O 0.93194 0.74682 0.12306 0.0
O215 O 0.96461 0.72194 0.07081 0.0
O216 O 0.96804 0.75171 0.1279 0.0
O217 O 0.95526 0.76532 0.13099 0.0
O218 O 0.91932 0.75419 0.07445 0.0
O219 O 0.96336 0.76468 0.06183 0.0
O220 O 0.97468 0.75574 0.09118 0.0
O221 O 0.93282 0.77747 0.08609 0.0
O222 O 0.93305 0.74233 0.05542 0.0
O223 O 0.95116 0.73506 0.05337 0.0
C224 C 0.92476 0.73213 0.11852 0.0
C225 C 0.9897 0.72955 0.08434 0.0
C226 C 1.01559 0.73736 0.09895 0.0
C227 C 0.02114 0.74673 0.07539 0.0
C228 C 0.99552 0.73902 0.06094 0.0
C229 C 1.01114 0.74756 0.05662 0.0
C230 C 0.9998 0.72886 0.10333 0.0
C231 C 0.96576 0.762 0.14043 0.0
C232 C 0.97323 0.72116 0.08997 0.0
C233 C 0.90606 0.67726 0.13932 0.0
C234 C 0.91125 0.68442 0.16503 0.0
C235 C 0.97576 0.76547 0.07207 0.0
C236 C 0.9059 0.76722 0.08769 0.0
C237 C 0.88356 0.77084 0.08128 0.0
C238 C 0.88041 0.76767 0.10972 0.0
C239 C 0.90215 0.76406 0.11575 0.0
C240 C 0.89662 0.77077 0.0704 0.0
C241 C 0.88957 0.76437 0.12662 0.0
C242 C 0.93895 0.73465 0.0431 0.0
C243 C 0.91967 0.76713 0.07683 0.0
H244 H 0.0332 0.75307 0.07093 0.0
H245 H 0.98805 0.73997 0.04604 0.0
H246 H 1.01552 0.75474 0.03849 0.0
H247 H 0.99534 0.72172 0.12153 0.0
H248 H 0.87081 0.76786 0.11911 0.0
H249 H 0.90904 0.76144 0.12933 0.0
H250 H 0.89941 0.77323 0.04864 0.0
H251 H 0.88687 0.76201 0.14842 0.0
Eu252 Eu 0.19211 0.25854 0.44403 0.0
C253 C 0.24896 0.31957 0.46885 0.0
N254 N 0.24046 0.31492 0.44534 0.0
C255 C 0.24098 0.33869 0.44199 0.0
C256 C 0.25323 0.33387 0.4806 0.0
C257 C 0.23693 0.32438 0.43122 0.0
C258 C 0.24902 0.3434 0.46697 0.0
C259 C 0.26213 0.31457 0.50568 0.0
C260 C 0.25341 0.31 0.48108 0.0
C261 C 0.2658 0.3285 0.51815 0.0
C262 C 0.26146 0.33817 0.50554 0.0
Eu263 Eu 0.2342 0.29083 0.42823 0.0
N264 N 0.24985 0.29662 0.46834 0.0
C265 C 0.26732 0.30523 0.51659 0.0
C266 C 0.25608 0.28822 0.47766 0.0
C267 C 0.26454 0.29217 0.50222 0.0
H268 H 0.23092 0.32078 0.41175 0.0
H269 H 0.26913 0.28525 0.5098 0.0
H270 H 0.19374 0.23042 0.47871 0.0
H271 H 0.16328 0.25562 0.34652 0.0
H272 H 0.25493 0.2786 0.46614 0.0
H273 H 0.27401 0.30832 0.53547 0.0
H274 H 0.17704 0.26741 0.38977 0.0
H275 H 0.23792 0.34607 0.43104 0.0
H276 H 0.27233 0.33208 0.5372 0.0
H277 H 0.26465 0.34901 0.51511 0.0
H278 H 0.1882 0.20425 0.47027 0.0
H279 H 0.25206 0.35445 0.47538 0.0
H280 H 0.15676 0.22936 0.33473 0.0
N281 N 0.18667 0.23311 0.43869 0.0
C282 C 0.17911 0.22592 0.4151 0.0
C283 C 0.18581 0.21028 0.45437 0.0
C284 C 0.1751 0.21069 0.40987 0.0
C285 C 0.18937 0.2253 0.4588 0.0
C286 C 0.17882 0.203 0.42965 0.0
N287 N 0.17923 0.24844 0.40162 0.0
C288 C 0.1747 0.25614 0.38456 0.0
C289 C 0.16701 0.22643 0.3719 0.0
C290 C 0.17502 0.23367 0.39632 0.0
C291 C 0.16296 0.23454 0.35367 0.0
C292 C 0.16669 0.2494 0.36017 0.0
H293 H 0.17594 0.19131 0.42639 0.0
H294 H 0.1642 0.19188 0.38102 0.0
H295 H 0.15714 0.20566 0.34778 0.0
O296 O 0.17116 0.26024 0.45334 0.0
O297 O 0.2032 0.2572 0.40077 0.0
O298 O 0.229 0.26854 0.40783 0.0
O299 O 0.17421 0.2423 0.4707 0.0
O300 O 0.19451 0.28105 0.43007 0.0
O301 O 0.21522 0.2899 0.40141 0.0
O302 O 0.2579 0.30565 0.41759 0.0
O303 O 0.21969 0.29606 0.45772 0.0
O304 O 0.20576 0.27422 0.48173 0.0
O305 O 0.24099 0.29825 0.38525 0.0
O306 O 0.2316 0.26805 0.44322 0.0
O307 O 0.21024 0.25756 0.47091 0.0
C308 C 0.21692 0.25962 0.39285 0.0
C309 C 0.15051 0.24104 0.48456 0.0
C310 C 0.12503 0.23721 0.49712 0.0
C311 C 0.12323 0.22574 0.51548 0.0
C312 C 0.14792 0.22943 0.50346 0.0
C313 C 0.13452 0.22192 0.51861 0.0
C314 C 0.13885 0.24501 0.48144 0.0
C315 C 0.20298 0.29005 0.40996 0.0
C316 C 0.16538 0.2481 0.46875 0.0
C317 C 0.1673 0.20354 0.38539 0.0
C318 C 0.16325 0.21138 0.36648 0.0
C319 C 0.2142 0.28929 0.48152 0.0
C320 C 0.26466 0.30038 0.37439 0.0
C321 C 0.2813 0.28948 0.37325 0.0
C322 C 0.28504 0.29434 0.34557 0.0
C323 C 0.26852 0.30525 0.34694 0.0
C324 C 0.27032 0.29171 0.38668 0.0
C325 C 0.27842 0.30191 0.33238 0.0
C326 C 0.22282 0.25808 0.46217 0.0
C327 C 0.25543 0.30487 0.39102 0.0
H328 H 0.11292 0.21964 0.52762 0.0
H329 H 0.15634 0.22599 0.50668 0.0
H330 H 0.13285 0.21303 0.53294 0.0
H331 H 0.14043 0.25386 0.46707 0.0
H332 H 0.29355 0.29297 0.33452 0.0
H333 H 0.26407 0.31177 0.33697 0.0
H334 H 0.26675 0.28738 0.4075 0.0
H335 H 0.28148 0.30577 0.31122 0.0
Eu336 Eu 0.77204 0.9393 0.44244 0.0
C337 C 0.71162 0.93548 0.47006 0.0
N338 N 0.71583 0.93117 0.44655 0.0
C339 C 0.69236 0.90753 0.44611 0.0
C340 C 0.6978 0.92552 0.48336 0.0
C341 C 0.7062 0.91776 0.43374 0.0
C342 C 0.68823 0.91133 0.47124 0.0
C343 C 0.71687 0.95476 0.50478 0.0
C344 C 0.72109 0.94998 0.48055 0.0
C345 C 0.70349 0.94459 0.51889 0.0
C346 C 0.69396 0.93003 0.50815 0.0
Eu347 Eu 0.73949 0.94882 0.42743 0.0
N348 N 0.73394 0.95964 0.46632 0.0
C349 C 0.72594 0.96978 0.51364 0.0
C350 C 0.74204 0.97463 0.47362 0.0
C351 C 0.73838 0.97983 0.49766 0.0
H352 H 0.70938 0.91492 0.41424 0.0
H353 H 0.74505 0.99165 0.50365 0.0
H354 H 0.80005 0.96916 0.47733 0.0
H355 H 0.77516 0.91397 0.34446 0.0
H356 H 0.75122 0.98279 0.46088 0.0
H357 H 0.72309 0.97388 0.53215 0.0
H358 H 0.76335 0.91565 0.38793 0.0
H359 H 0.68489 0.89673 0.43628 0.0
H360 H 0.70022 0.94801 0.53777 0.0
H361 H 0.68354 0.92243 0.51898 0.0
H362 H 0.826 0.99012 0.46872 0.0
H363 H 0.67754 0.90335 0.48087 0.0
H364 H 0.80124 0.93405 0.33253 0.0
N365 N 0.79729 0.95962 0.43703 0.0
C366 C 0.80444 0.95952 0.41319 0.0
C367 C 0.81999 0.98174 0.45274 0.0
C368 C 0.81957 0.97094 0.40788 0.0
C369 C 0.80509 0.97007 0.45726 0.0
C370 C 0.82721 0.98229 0.42779 0.0
N371 N 0.78213 0.93694 0.39975 0.0
C372 C 0.77454 0.92469 0.38264 0.0
C373 C 0.80404 0.94711 0.3698 0.0
C374 C 0.79679 0.94771 0.39433 0.0
C375 C 0.79605 0.93493 0.35155 0.0
C376 C 0.7813 0.92361 0.35814 0.0
H377 H 0.83882 0.99125 0.42447 0.0
H378 H 0.8383 0.97922 0.3788 0.0
H379 H 0.82471 0.95838 0.34548 0.0
O380 O 0.7702 0.9166 0.45183 0.0
O381 O 0.7725 0.95138 0.39913 0.0
O382 O 0.76205 0.96632 0.4087 0.0
O383 O 0.78872 0.9376 0.46791 0.0
O384 O 0.7496 0.91906 0.42878 0.0
O385 O 0.74006 0.93053 0.40064 0.0
O386 O 0.72355 0.95621 0.41608 0.0
O387 O 0.73473 0.92921 0.45664 0.0
O388 O 0.75669 0.93751 0.48045 0.0
O389 O 0.73317 0.94888 0.38385 0.0
O390 O 0.76216 0.96893 0.44318 0.0
O391 O 0.77288 0.95803 0.47027 0.0
C392 C 0.77061 0.96319 0.39262 0.0
C393 C 0.78991 0.91511 0.48177 0.0
C394 C 0.79347 0.89331 0.49467 0.0
C395 C 0.80558 0.90316 0.51182 0.0
C396 C 0.80216 0.92428 0.49948 0.0
C397 C 0.80983 0.91839 0.5142 0.0
C398 C 0.78549 0.89933 0.47943 0.0
C399 C 0.74032 0.91834 0.409 0.0
C400 C 0.78267 0.92294 0.46645 0.0
C401 C 0.82671 0.97051 0.38323 0.0
C402 C 0.81898 0.95862 0.36428 0.0
C403 C 0.74162 0.93082 0.48041 0.0
C404 C 0.72839 0.96891 0.37394 0.0
C405 C 0.73701 0.99601 0.37639 0.0
C406 C 0.72918 0.99459 0.35132 0.0
C407 C 0.72073 0.9677 0.34915 0.0
C408 C 0.7374 0.98318 0.3862 0.0
C409 C 0.72149 0.98063 0.33749 0.0
C410 C 0.77211 0.97003 0.46217 0.0
C411 C 0.7251 0.95524 0.38954 0.0
H412 H 0.81184 0.89898 0.52361 0.0
H413 H 0.80597 0.93625 0.50211 0.0
H414 H 0.81921 0.92575 0.52761 0.0
H415 H 0.77613 0.89193 0.466 0.0
H416 H 0.72824 1.00393 0.34285 0.0
H417 H 0.71375 0.95674 0.33943 0.0
H418 H 0.74378 0.98388 0.40467 0.0
H419 H 0.71536 0.97966 0.31853 0.0
Eu420 Eu 0.09135 0.83947 0.44245 0.0
C421 C 0.09628 0.78309 0.46719 0.0
N422 N 0.10022 0.79182 0.44402 0.0
C423 C 0.12413 0.79249 0.44215 0.0
C424 C 0.10659 0.77941 0.47968 0.0
C425 C 0.11357 0.79594 0.43064 0.0
C426 C 0.12073 0.78439 0.46702 0.0
C427 C 0.07744 0.76853 0.50215 0.0
C428 C 0.08182 0.77769 0.47817 0.0
C429 C 0.08796 0.76552 0.51553 0.0
C430 C 0.10247 0.77088 0.50425 0.0
Eu431 Eu 0.08209 0.79767 0.42648 0.0
N432 N 0.07183 0.78071 0.46464 0.0
C433 C 0.06246 0.76227 0.51151 0.0
C434 C 0.05689 0.77353 0.47236 0.0
C435 C 0.05207 0.76451 0.49621 0.0
H436 H 0.11607 0.80204 0.41128 0.0
H437 H 0.04029 0.75914 0.50258 0.0
H438 H 0.06104 0.83777 0.47522 0.0
H439 H 0.11847 0.86833 0.34576 0.0
H440 H 0.0485 0.77448 0.46013 0.0
H441 H 0.05866 0.7552 0.52987 0.0
H442 H 0.11612 0.85485 0.38941 0.0
H443 H 0.13487 0.79609 0.43186 0.0
H444 H 0.08485 0.75871 0.53422 0.0
H445 H 0.11035 0.7682 0.51448 0.0
H446 H 0.04031 0.84297 0.46518 0.0
H447 H 0.12897 0.78181 0.47601 0.0
H448 H 0.09861 0.87442 0.33227 0.0
N449 N 0.07127 0.84469 0.43557 0.0
C450 C 0.07182 0.85207 0.41165 0.0
C451 C 0.04894 0.84535 0.44973 0.0
C452 C 0.06053 0.85588 0.40549 0.0
C453 C 0.06047 0.84198 0.45507 0.0
C454 C 0.04885 0.85215 0.42467 0.0
N455 N 0.09456 0.8522 0.39975 0.0
C456 C 0.10709 0.8569 0.38341 0.0
C457 C 0.08495 0.86414 0.36888 0.0
C458 C 0.08393 0.8562 0.39352 0.0
C459 C 0.09741 0.8683 0.35136 0.0
C460 C 0.1086 0.86481 0.35882 0.0
H461 H 0.03999 0.85489 0.4207 0.0
H462 H 0.05278 0.86648 0.37563 0.0
H463 H 0.07414 0.87368 0.34359 0.0
O464 O 0.11392 0.86028 0.45228 0.0
O465 O 0.07906 0.8279 0.39927 0.0
O466 O 0.06422 0.80263 0.40915 0.0
O467 O 0.09283 0.85758 0.46854 0.0
O468 O 0.11168 0.83726 0.42941 0.0
O469 O 0.09989 0.81696 0.40005 0.0
O470 O 0.07473 0.77461 0.41332 0.0
O471 O 0.10157 0.81215 0.45619 0.0
O472 O 0.09313 0.82569 0.4801 0.0
O473 O 0.08236 0.79227 0.38245 0.0
O474 O 0.0619 0.79966 0.44392 0.0
O475 O 0.07228 0.82176 0.46998 0.0
C476 C 0.06722 0.8142 0.39295 0.0
C477 C 0.11533 0.88118 0.48276 0.0
C478 C 0.13721 0.90637 0.49599 0.0
C479 C 0.12744 0.90857 0.51349 0.0
C480 C 0.10622 0.88417 0.50078 0.0
C481 C 0.11219 0.89763 0.51584 0.0
C482 C 0.13112 0.89249 0.48041 0.0
C483 C 0.11229 0.82892 0.40914 0.0
C484 C 0.1075 0.86623 0.46717 0.0
C485 C 0.06139 0.86353 0.38072 0.0
C486 C 0.07357 0.86767 0.3625 0.0
C487 C 0.0999 0.81737 0.47996 0.0
C488 C 0.0621 0.76799 0.37085 0.0
C489 C 0.035 0.74966 0.37238 0.0
C490 C 0.03618 0.7445 0.3458 0.0
C491 C 0.06316 0.76275 0.34459 0.0
C492 C 0.04789 0.76226 0.38352 0.0
C493 C 0.0501 0.75131 0.33176 0.0
C494 C 0.06058 0.8085 0.46274 0.0
C495 C 0.0758 0.77774 0.38699 0.0
H496 H 0.13169 0.91892 0.52554 0.0
H497 H 0.09425 0.87603 0.5034 0.0
H498 H 0.10488 0.8996 0.52951 0.0
H499 H 0.13846 0.89059 0.46674 0.0
H500 H 0.02667 0.73471 0.33634 0.0
H501 H 0.07408 0.76713 0.33447 0.0
H502 H 0.04722 0.76695 0.40331 0.0
H503 H 0.05093 0.74709 0.31161 0.0
Eu504 Eu 0.76851 0.83775 0.94681 0.0
C505 C 0.70568 0.78889 0.91543 0.0
N506 N 0.71304 0.78994 0.93955 0.0
C507 C 0.69102 0.78525 0.96561 0.0
C508 C 0.69082 0.78671 0.91559 0.0
C509 C 0.70578 0.78753 0.96437 0.0
C510 C 0.68357 0.78503 0.94112 0.0
C511 C 0.70587 0.78952 0.86522 0.0
C512 C 0.71316 0.79025 0.89059 0.0
C513 C 0.69128 0.78787 0.86529 0.0
C514 C 0.68375 0.78641 0.8904 0.0
Eu515 Eu 0.73811 0.79435 0.93628 0.0
N516 N 0.72736 0.79194 0.89121 0.0
C517 C 0.71335 0.79018 0.84048 0.0
C518 C 0.7341 0.79137 0.86706 0.0
C519 C 0.72739 0.79083 0.84143 0.0
H520 H 0.71131 0.78719 0.98321 0.0
H521 H 0.73296 0.79068 0.8224 0.0
H522 H 0.79007 0.85309 0.88928 0.0
H523 H 0.78693 0.8416 0.05447 0.0
H524 H 0.74443 0.79089 0.86711 0.0
H525 H 0.70815 0.78969 0.82059 0.0
H526 H 0.76864 0.83676 1.01649 0.0
H527 H 0.6854 0.7836 0.98542 0.0
H528 H 0.68561 0.78746 0.84599 0.0
H529 H 0.67243 0.78498 0.89011 0.0
H530 H 0.81681 0.86359 0.87521 0.0
H531 H 0.67216 0.78335 0.94211 0.0
H532 H 0.81386 0.8503 0.04355 0.0
N533 N 0.79392 0.84888 0.93096 0.0
C534 C 0.80447 0.8512 0.95065 0.0
C535 C 0.81347 0.85997 0.8964 0.0
C536 C 0.81996 0.85754 0.9436 0.0
C537 C 0.79828 0.8538 0.90438 0.0
C538 C 0.82432 0.86165 0.916 0.0
N539 N 0.78497 0.84195 0.98459 0.0
C540 C 0.78036 0.84047 1.01162 0.0
C541 C 0.81074 0.85079 0.9992 0.0
C542 C 0.79993 0.84784 0.97821 0.0
C543 C 0.80589 0.84816 0.02685 0.0
C544 C 0.79068 0.84323 0.03311 0.0
H545 H 0.8361 0.86654 0.90978 0.0
H546 H 0.84256 0.8646 0.95923 0.0
H547 H 0.83449 0.85872 1.00786 0.0
O548 O 0.76004 0.85261 0.96277 0.0
O549 O 0.77295 0.82049 0.97002 0.0
O550 O 0.76209 0.79849 0.94427 0.0
O551 O 0.78191 0.86272 0.94372 0.0
O552 O 0.74772 0.82717 0.97792 0.0
O553 O 0.74206 0.80241 0.98125 0.0
O554 O 0.72923 0.7709 0.92259 0.0
O555 O 0.73216 0.8134 0.93409 0.0
O556 O 0.75205 0.83214 0.91096 0.0
O557 O 0.72874 0.77585 0.96601 0.0
O558 O 0.75865 0.80172 0.90783 0.0
O559 O 0.77022 0.82791 0.90262 0.0
C560 C 0.77273 0.80808 0.96126 0.0
C561 C 0.77077 0.87864 0.94771 0.0
C562 C 0.77392 0.9043 0.95575 0.0
C563 C 0.7679 0.90339 0.92904 0.0
C564 C 0.76478 0.87835 0.92143 0.0
C565 C 0.76344 0.89064 0.91219 0.0
C566 C 0.77552 0.89178 0.96487 0.0
C567 C 0.74067 0.81378 0.99083 0.0
C568 C 0.77229 0.86535 0.95683 0.0
C569 C 0.83065 0.85989 0.96434 0.0
C570 C 0.82605 0.85654 0.99205 0.0
C571 C 0.73738 0.82432 0.91552 0.0
C572 C 0.73457 0.75669 0.95531 0.0
C573 C 0.74456 0.74007 0.94188 0.0
C574 C 0.74759 0.73902 0.97015 0.0
C575 C 0.7376 0.75526 0.98324 0.0
C576 C 0.73839 0.74934 0.93473 0.0
C577 C 0.7443 0.74669 0.99047 0.0
C578 C 0.768 0.81429 0.89427 0.0
C579 C 0.72735 0.76574 0.94787 0.0
H580 H 0.76671 0.91268 0.92093 0.0
H581 H 0.76119 0.8686 0.90795 0.0
H582 H 0.75887 0.89029 0.89174 0.0
H583 H 0.78016 0.89214 0.98527 0.0
H584 H 0.75185 0.73172 0.97706 0.0
H585 H 0.7348 0.76077 0.99959 0.0
H586 H 0.73626 0.75069 0.91323 0.0
H587 H 0.74655 0.74563 1.01206 0.0
Eu588 Eu 0.19092 0.93633 0.94564 0.0
C589 C 0.2407 0.92188 0.91986 0.0
N590 N 0.23999 0.92945 0.94252 0.0
C591 C 0.24612 0.91431 0.97207 0.0
C592 C 0.24346 0.90964 0.92268 0.0
C593 C 0.24328 0.92631 0.96822 0.0
C594 C 0.24601 0.9058 0.94923 0.0
C595 C 0.23878 0.91835 0.87 0.0
C596 C 0.23843 0.92627 0.89383 0.0
C597 C 0.24114 0.90592 0.87279 0.0
C598 C 0.24351 0.90159 0.89904 0.0
Eu599 Eu 0.23408 0.94885 0.93489 0.0
N600 N 0.23588 0.93821 0.89181 0.0
C601 C 0.23685 0.92321 0.844 0.0
C602 C 0.2348 0.94342 0.86627 0.0
C603 C 0.23507 0.93592 0.84213 0.0
H604 H 0.24389 0.93316 0.98578 0.0
H605 H 0.23401 0.94004 0.82204 0.0
H606 H 0.17496 0.94278 0.88899 0.0
H607 H 0.18455 0.9481 0.05371 0.0
H608 H 0.234 0.95347 0.86396 0.0
H609 H 0.23703 0.91743 0.82523 0.0
H610 H 0.19004 0.9355 1.0151 0.0
H611 H 0.24844 0.91168 0.99262 0.0
H612 H 0.24129 0.89964 0.85472 0.0
H613 H 0.24543 0.89205 0.90083 0.0
H614 H 0.16553 0.96002 0.87536 0.0
H615 H 0.24814 0.89645 0.95226 0.0
H616 H 0.17727 0.96751 0.04366 0.0
N617 N 0.18044 0.95134 0.93027 0.0
C618 C 0.17873 0.95989 0.95017 0.0
C619 C 0.16942 0.96027 0.89636 0.0
C620 C 0.17283 0.96948 0.9435 0.0
C621 C 0.175 0.95069 0.90406 0.0
C622 C 0.16861 0.96992 0.91603 0.0
N623 N 0.18658 0.9482 0.98382 0.0
C624 C 0.18702 0.94407 1.01062 0.0
C625 C 0.17831 0.96548 0.99909 0.0
C626 C 0.18156 0.95803 0.97773 0.0
C627 C 0.17972 0.96207 0.02669 0.0
C628 C 0.18384 0.95112 0.03246 0.0
H629 H 0.16406 0.97715 0.91009 0.0
H630 H 0.16626 0.98527 0.95976 0.0
H631 H 0.17098 0.98171 1.00842 0.0
O632 O 0.17585 0.91222 0.95734 0.0
O633 O 0.20875 0.9569 0.97081 0.0
O634 O 0.22891 0.96816 0.94133 0.0
O635 O 0.16598 0.92568 0.94593 0.0
O636 O 0.20146 0.92618 0.97708 0.0
O637 O 0.22651 0.94482 0.98004 0.0
O638 O 0.25708 0.96298 0.91897 0.0
O639 O 0.21507 0.92395 0.93302 0.0
O640 O 0.19637 0.92523 0.9098 0.0
O641 O 0.25317 0.96067 0.96323 0.0
O642 O 0.22683 0.96118 0.90447 0.0
O643 O 0.20045 0.94863 0.9017 0.0
C644 C 0.22048 0.96929 0.96082 0.0
C645 C 0.14928 0.89882 0.94422 0.0
C646 C 0.12323 0.8766 0.95066 0.0
C647 C 0.1228 0.87416 0.9218 0.0
C648 C 0.14823 0.89563 0.91582 0.0
C649 C 0.13509 0.88347 0.90477 0.0
C650 C 0.13665 0.88929 0.96174 0.0
C651 C 0.21493 0.93233 0.98984 0.0
C652 C 0.16321 0.91253 0.95505 0.0
C653 C 0.17062 0.97774 0.96458 0.0
C654 C 0.17329 0.97569 0.99231 0.0
C655 C 0.20411 0.91827 0.91448 0.0
C656 C 0.26958 0.98534 0.94611 0.0
C657 C 0.28365 1.01073 0.92509 0.0
C658 C 0.2822 0.01686 0.95056 0.0
C659 C 0.2687 0.99191 0.97115 0.0
C660 C 0.27667 0.99474 0.92313 0.0
C661 C 0.27475 1.00752 0.97312 0.0
C662 C 0.21427 0.95894 0.89197 0.0
C663 C 0.26244 0.96865 0.94341 0.0
H664 H 0.11277 0.86502 0.91208 0.0
H665 H 0.15755 0.90272 0.90206 0.0
H666 H 0.13438 0.88128 0.88269 0.0
H667 H 0.13734 0.89167 0.98375 0.0
H668 H 0.2873 0.0289 0.95409 0.0
H669 H 0.26319 0.985 0.98921 0.0
H670 H 0.27685 0.98931 0.90404 0.0
H671 H 0.27397 0.01248 0.9925 0.0
Eu672 Eu 0.09369 0.25972 0.94646 0.0
C673 C 0.10954 0.32403 0.91993 0.0
N674 N 0.10215 0.31598 0.94285 0.0
C675 C 0.11815 0.33722 0.97189 0.0
C676 C 0.12211 0.33887 0.92233 0.0
C677 C 0.10584 0.32254 0.96846 0.0
C678 C 0.12645 0.34536 0.94875 0.0
C679 C 0.11258 0.32525 0.86998 0.0
C680 C 0.10472 0.31728 0.89405 0.0
C681 C 0.12529 0.33988 0.87236 0.0
C682 C 0.13001 0.34669 0.89845 0.0
Eu683 Eu 0.08176 0.29108 0.93581 0.0
N684 N 0.09247 0.30296 0.89239 0.0
C685 C 0.10741 0.31832 0.84416 0.0
C686 C 0.08698 0.29657 0.867 0.0
C687 C 0.09445 0.30401 0.84267 0.0
H688 H 0.09912 0.31657 0.98625 0.0
H689 H 0.09011 0.29873 0.8227 0.0
H690 H 0.08858 0.23836 0.88925 0.0
H691 H 0.07855 0.2413 0.05396 0.0
H692 H 0.07673 0.28589 0.86495 0.0
H693 H 0.11316 0.32404 0.82523 0.0
H694 H 0.09204 0.25964 1.01625 0.0
H695 H 0.12115 0.34226 0.99236 0.0
H696 H 0.13149 0.34607 0.8541 0.0
H697 H 0.13977 0.35802 0.89992 0.0
H698 H 0.07299 0.21152 0.87496 0.0
H699 H 0.13603 0.35672 0.95146 0.0
H700 H 0.06086 0.2143 0.04278 0.0
N701 N 0.08013 0.23433 0.93058 0.0
C702 C 0.07183 0.22375 0.95013 0.0
C703 C 0.07243 0.21483 0.89608 0.0
C704 C 0.06303 0.20825 0.94299 0.0
C705 C 0.08109 0.23003 0.90414 0.0
C706 C 0.06319 0.20392 0.91548 0.0
N707 N 0.08146 0.24327 0.98416 0.0
C708 C 0.08426 0.24789 1.01123 0.0
C709 C 0.06482 0.21745 0.99853 0.0
C710 C 0.07269 0.2283 0.97766 0.0
C711 C 0.06671 0.22229 0.02618 0.0
C712 C 0.07667 0.23753 0.03258 0.0
H713 H 0.05657 0.19212 0.9092 0.0
H714 H 0.04774 0.1856 0.95841 0.0
H715 H 0.04932 0.19364 1.00697 0.0
O716 O 0.11739 0.26892 0.96102 0.0
O717 O 0.07196 0.25542 0.96921 0.0
O718 O 0.06158 0.26733 0.94414 0.0
O719 O 0.10532 0.2463 0.94516 0.0
O720 O 0.10368 0.28028 0.97805 0.0
O721 O 0.08482 0.28633 0.98079 0.0
O722 O 0.06709 0.29949 0.92001 0.0
O723 O 0.10643 0.29609 0.93384 0.0
O724 O 0.10446 0.27591 0.91034 0.0
O725 O 0.07259 0.30129 0.9636 0.0
O726 O 0.06887 0.27135 0.9057 0.0
O727 O 0.08098 0.257 0.90303 0.0
C728 C 0.0601 0.25632 0.96059 0.0
C729 C 0.13241 0.25748 0.94758 0.0
C730 C 0.15395 0.25259 0.95468 0.0
C731 C 0.15882 0.25804 0.92762 0.0
C732 C 0.13785 0.26283 0.9209 0.0
C733 C 0.15094 0.26314 0.91111 0.0
C734 C 0.14064 0.25249 0.96471 0.0
C735 C 0.09735 0.2874 0.99083 0.0
C736 C 0.11782 0.25646 0.95685 0.0
C737 C 0.05467 0.19753 0.96358 0.0
C738 C 0.05558 0.20211 0.99126 0.0
C739 C 0.11178 0.29057 0.91511 0.0
C740 C 0.04759 0.29509 0.95237 0.0
C741 C 0.02093 0.28494 0.93918 0.0
C742 C 1.01698 0.28227 0.96753 0.0
C743 C 0.04325 0.29244 0.9804 0.0
C744 C 0.03635 0.29103 0.93185 0.0
C745 C 0.02803 0.28585 0.9878 0.0
C746 C 0.07076 0.26072 0.89348 0.0
C747 C 0.06383 0.30212 0.94483 0.0
H748 H 0.1689 0.25846 0.91916 0.0
H749 H 0.13186 0.26665 0.90748 0.0
H750 H 0.15498 0.26728 0.8904 0.0
H751 H 0.13649 0.2482 0.98532 0.0
H752 H 1.00545 0.27809 0.97454 0.0
H753 H 0.05161 0.29545 0.99673 0.0
H754 H 0.03973 0.29292 0.91029 0.0
H755 H 0.02482 0.28389 1.00945 0.0
Eu756 Eu 0.80277 0.7338 0.60731 0.0
C757 C 0.85707 0.79772 0.62339 0.0
N758 N 0.85007 0.79102 0.5991 0.0
C759 C 0.85094 0.81406 0.58473 0.0
C760 C 0.86075 0.81275 0.62964 0.0
C761 C 0.84769 0.79921 0.57932 0.0
C762 C 0.85731 0.82079 0.61016 0.0
C763 C 0.8686 0.79648 0.66679 0.0
C764 C 0.86104 0.78972 0.64175 0.0
C765 C 0.87195 0.8113 0.67329 0.0
C766 C 0.86802 0.81941 0.65479 0.0
Eu767 Eu 0.84491 0.76576 0.59224 0.0
N768 N 0.85727 0.77518 0.63532 0.0
C769 C 0.87267 0.78817 0.68447 0.0
C770 C 0.86187 0.76733 0.65184 0.0
C771 C 0.86944 0.7736 0.6768 0.0
H772 H 0.84384 0.79457 0.55894 0.0
H773 H 0.87289 0.76724 0.69001 0.0
H774 H 0.80635 0.7034 0.61961 0.0
H775 H 0.76399 0.73911 0.53446 0.0
H776 H 0.85992 0.7563 0.64574 0.0
H777 H 0.87853 0.79299 0.70384 0.0
H778 H 0.7798 0.74531 0.5763 0.0
H779 H 0.84881 0.82039 0.56905 0.0
H780 H 0.8777 0.81666 0.69248 0.0
H781 H 0.87086 0.83092 0.65995 0.0
H782 H 0.79988 0.679 0.59691 0.0
H783 H 0.85996 0.83236 0.61418 0.0
H784 H 0.75961 0.71732 0.50509 0.0
N785 N 0.79638 0.71005 0.58788 0.0
C786 C 0.78768 0.70594 0.5646 0.0
C787 C 0.7965 0.68653 0.58749 0.0
C788 C 0.78373 0.69218 0.55094 0.0
C789 C 0.80019 0.70032 0.60023 0.0
C790 C 0.78843 0.68254 0.5625 0.0
N791 N 0.78573 0.72815 0.5695 0.0
C792 C 0.7786 0.73617 0.56317 0.0
C793 C 0.77311 0.7112 0.53107 0.0
C794 C 0.78247 0.7154 0.55484 0.0
C795 C 0.76687 0.72018 0.52319 0.0
C796 C 0.76935 0.73251 0.53966 0.0
H797 H 0.78564 0.67188 0.55258 0.0
H798 H 0.77222 0.67804 0.51534 0.0
H799 H 0.7629 0.69467 0.49794 0.0
O800 O 0.77969 0.71785 0.61986 0.0
O801 O 0.81728 0.72866 0.57788 0.0
O802 O 0.83122 0.75054 0.55418 0.0
O803 O 0.79697 0.72841 0.65131 0.0
O804 O 0.80539 0.75626 0.59033 0.0
O805 O 0.82745 0.76746 0.56431 0.0
O806 O 0.86554 0.76355 0.58216 0.0
O807 O 0.83317 0.76589 0.63559 0.0
O808 O 0.80812 0.75668 0.62513 0.0
O809 O 0.86347 0.78253 0.56738 0.0
O810 O 0.84241 0.7431 0.60535 0.0
O811 O 0.8216 0.7341 0.63377 0.0
C812 C 0.82264 0.73551 0.55417 0.0
C813 C 0.77216 0.72352 0.66159 0.0
C814 C 0.75343 0.73182 0.65829 0.0
C815 C 0.74717 0.72437 0.68368 0.0
C816 C 0.76585 0.71623 0.68669 0.0
C817 C 0.75364 0.71704 0.69808 0.0
C818 C 0.76673 0.73225 0.64877 0.0
C819 C 0.81431 0.76623 0.57147 0.0
C820 C 0.78251 0.72005 0.64625 0.0
C821 C 0.77512 0.68841 0.52645 0.0
C822 C 0.76985 0.69792 0.5165 0.0
C823 C 0.81977 0.76488 0.64148 0.0
C824 C 0.88672 0.7832 0.55222 0.0
C825 C 0.91205 0.78675 0.53888 0.0
C826 C 0.91385 0.7983 0.52071 0.0
C827 C 0.88934 0.79488 0.53346 0.0
C828 C 0.8983 0.77905 0.55487 0.0
C829 C 0.90266 0.80228 0.51804 0.0
C830 C 0.83383 0.73395 0.62518 0.0
C831 C 0.87183 0.77617 0.56808 0.0
H832 H 0.73684 0.72345 0.69193 0.0
H833 H 0.76998 0.70947 0.69686 0.0
H834 H 0.74859 0.71119 0.71729 0.0
H835 H 0.77227 0.73836 0.63003 0.0
H836 H 0.92408 0.80432 0.50835 0.0
H837 H 0.88099 0.79843 0.5305 0.0
H838 H 0.89669 0.77012 0.56906 0.0
H839 H 0.90433 0.81122 0.50382 0.0
Eu840 Eu 0.29738 0.07528 0.60644 0.0
C841 C 0.23137 0.0661 0.61245 0.0
N842 N 0.2393 0.06669 0.58929 0.0
C843 C 0.21662 0.0467 0.56856 0.0
C844 C 0.21574 0.05541 0.61478 0.0
C845 C 0.23204 0.05764 0.56705 0.0
C846 C 0.20847 0.04545 0.59266 0.0
C847 C 0.23069 0.07681 0.65713 0.0
C848 C 0.23872 0.07669 0.63337 0.0
C849 C 0.21522 0.06594 0.65982 0.0
C850 C 0.20777 0.05525 0.63872 0.0
Eu851 Eu 0.26535 0.08551 0.58884 0.0
N852 N 0.25378 0.08691 0.63046 0.0
C853 C 0.23841 0.08795 0.67736 0.0
C854 C 0.26118 0.09825 0.64945 0.0
C855 C 0.25368 0.09881 0.67335 0.0
H856 H 0.23802 0.05914 0.54781 0.0
H857 H 0.25965 0.10769 0.68857 0.0
H858 H 0.32729 0.10879 0.62236 0.0
H859 H 0.29262 0.03402 0.52733 0.0
H860 H 0.27283 0.1069 0.6462 0.0
H861 H 0.23263 0.08844 0.69589 0.0
H862 H 0.28581 0.04201 0.57042 0.0
H863 H 0.21099 0.03941 0.55096 0.0
H864 H 0.20888 0.0658 0.67799 0.0
H865 H 0.19578 0.04708 0.64091 0.0
H866 H 0.3523 0.12723 0.60236 0.0
H867 H 0.19648 0.03708 0.59366 0.0
H868 H 0.31539 0.05217 0.50098 0.0
N869 N 0.32146 0.09313 0.5892 0.0
C870 C 0.32613 0.08918 0.56583 0.0
C871 C 0.345 0.11664 0.59175 0.0
C872 C 0.34026 0.09929 0.55366 0.0
C873 C 0.33085 0.10629 0.60295 0.0
C874 C 0.34964 0.11323 0.5668 0.0
N875 N 0.30349 0.06514 0.56719 0.0
C876 C 0.29532 0.05037 0.55859 0.0
C877 C 0.32136 0.07064 0.52984 0.0
C878 C 0.31674 0.07496 0.55416 0.0
C879 C 0.31225 0.05591 0.51962 0.0
C880 C 0.29935 0.04565 0.53438 0.0
H881 H 0.36056 0.12131 0.55806 0.0
H882 H 0.35524 0.10296 0.51892 0.0
H883 H 0.33869 0.0779 0.49802 0.0
O884 O 0.31219 0.06646 0.61792 0.0
O885 O 0.30273 0.09499 0.57698 0.0
O886 O 0.28107 0.08658 0.55219 0.0
O887 O 0.3043 0.07577 0.64975 0.0
O888 O 0.27478 0.05533 0.59009 0.0
O889 O 0.26385 0.06597 0.56256 0.0
O890 O 0.26861 0.10864 0.58348 0.0
O891 O 0.26292 0.07244 0.63182 0.0
O892 O 0.2747 0.05827 0.62567 0.0
O893 O 0.25238 0.0905 0.55828 0.0
O894 O 0.28786 0.10507 0.60416 0.0
O895 O 0.29626 0.09311 0.63349 0.0
C896 C 0.29612 0.0934 0.55291 0.0
C897 C 0.30609 0.05411 0.66072 0.0
C898 C 0.2939 0.02648 0.66137 0.0
C899 C 0.29873 0.02723 0.689 0.0
C900 C 0.31091 0.05475 0.68814 0.0
C901 C 0.30693 0.04129 0.70241 0.0
C902 C 0.29687 0.03998 0.64818 0.0
C903 C 0.26477 0.05408 0.57105 0.0
C904 C 0.311 0.06798 0.64442 0.0
C905 C 0.34456 0.09522 0.52887 0.0
C906 C 0.3351 0.08096 0.51693 0.0
C907 C 0.26549 0.06129 0.64012 0.0
C908 C 0.24721 0.11069 0.56715 0.0
C909 C 0.2393 0.12998 0.55858 0.0
C910 C 0.22513 0.11979 0.57049 0.0
C911 C 0.23296 0.10124 0.5792 0.0
C912 C 0.25036 0.12518 0.55658 0.0
C913 C 0.22207 0.10571 0.58067 0.0
C914 C 0.29647 0.10548 0.6249 0.0
C915 C 0.25814 0.1048 0.5646 0.0
H916 H 0.29682 0.01711 0.69986 0.0
H917 H 0.31785 0.06559 0.6983 0.0
H918 H 0.31075 0.04179 0.72355 0.0
H919 H 0.2926 0.03956 0.62741 0.0
H920 H 0.21621 0.12267 0.5718 0.0
H921 H 0.23009 0.09018 0.58711 0.0
H922 H 0.26129 0.13264 0.5472 0.0
H923 H 0.21107 0.09814 0.5897 0.0
Eu924 Eu 0.95538 0.22661 0.60661 0.0
C925 C 0.96497 0.17056 0.61496 0.0
N926 N 0.96415 0.17745 0.59136 0.0
C927 C 0.98428 0.17476 0.57119 0.0
C928 C 0.97583 0.16584 0.61778 0.0
C929 C 0.97315 0.17898 0.56918 0.0
C930 C 0.98576 0.16832 0.59572 0.0
C931 C 0.95439 0.15962 0.6599 0.0
C932 C 0.95438 0.16747 0.63581 0.0
C933 C 0.96546 0.1553 0.6631 0.0
C934 C 0.97617 0.15843 0.64213 0.0
Eu935 Eu 0.94508 0.18438 0.59019 0.0
N936 N 0.94392 0.17198 0.63234 0.0
C937 C 0.9431 0.15613 0.67987 0.0
C938 C 0.93243 0.16793 0.65104 0.0
C939 C 0.93199 0.16017 0.67526 0.0
H940 H 0.97147 0.18306 0.54963 0.0
H941 H 0.92301 0.15719 0.69025 0.0
H942 H 0.9217 0.22332 0.62053 0.0
H943 H 0.99822 0.2641 0.53097 0.0
H944 H 0.9236 0.17065 0.64731 0.0
H945 H 0.9427 0.15008 0.69863 0.0
H946 H 0.98935 0.24905 0.57372 0.0
H947 H 0.99153 0.17621 0.55363 0.0
H948 H 0.96569 0.14933 0.68154 0.0
H949 H 0.98447 0.15479 0.64469 0.0
H950 H 0.90352 0.22984 0.59894 0.0
H951 H 0.99426 0.16487 0.59709 0.0
H952 H 0.98044 0.26845 0.50261 0.0
N953 N 0.93788 0.23313 0.58819 0.0
C954 C 0.94215 0.24169 0.56479 0.0
C955 C 0.91429 0.23313 0.58901 0.0
C956 C 0.93217 0.24563 0.55167 0.0
C957 C 0.92452 0.2294 0.60113 0.0
C958 C 0.91803 0.24109 0.56394 0.0
N959 N 0.96624 0.24337 0.56832 0.0
C960 C 0.98123 0.25019 0.56102 0.0
C961 C 0.96135 0.25565 0.53003 0.0
C962 C 0.95659 0.24665 0.55421 0.0
C963 C 0.97636 0.26151 0.52111 0.0
C964 C 0.98641 0.25904 0.53701 0.0
H965 H 0.91004 0.24386 0.55446 0.0
H966 H 0.92901 0.25683 0.51617 0.0
H967 H 0.95455 0.26559 0.49718 0.0
O968 O 0.96415 0.24997 0.61978 0.0
O969 O 0.93563 0.21221 0.5773 0.0
O970 O 0.94395 0.1987 0.55301 0.0
O971 O 0.95457 0.23211 0.65033 0.0
O972 O 0.97514 0.22377 0.58965 0.0
O973 O 0.96437 0.20194 0.56287 0.0
O974 O 0.92172 0.16511 0.58413 0.0
O975 O 0.95764 0.19556 0.63348 0.0
O976 O 0.9727 0.22089 0.6241 0.0
O977 O 0.94003 0.16547 0.56181 0.0
O978 O 0.92544 0.18732 0.60481 0.0
O979 O 0.93736 0.20789 0.63364 0.0
C980 C 0.93714 0.20696 0.55343 0.0
C981 C 0.97603 0.25522 0.66323 0.0
C982 C 1.0036 0.27122 0.66515 0.0
C983 C 1.00238 0.27477 0.69293 0.0
C984 C 0.97493 0.2589 0.69078 0.0
C985 C 0.98813 0.26839 0.70577 0.0
C986 C 0.99037 0.26064 0.65123 0.0
C987 C 0.97626 0.21494 0.57059 0.0
C988 C 0.96239 0.24667 0.64609 0.0
C989 C 0.93663 0.25397 0.52689 0.0
C990 C 0.95116 0.25891 0.51603 0.0
C991 C 0.96948 0.20921 0.64018 0.0
C992 C 0.91883 0.14087 0.57158 0.0
C993 C 0.89906 0.1138 0.56381 0.0
C994 C 0.90793 0.10963 0.58005 0.0
C995 C 0.92697 0.13592 0.58783 0.0
C996 C 0.90478 0.12967 0.55929 0.0
C997 C 0.92161 0.12051 0.59188 0.0
C998 C 0.925 0.19567 0.62522 0.0
C999 C 0.92553 0.15765 0.56705 0.0
H1000 H 1.01225 0.28301 0.70437 0.0
H1001 H 0.96392 0.25468 0.70046 0.0
H1002 H 0.98726 0.27135 0.72699 0.0
H1003 H 0.99112 0.25721 0.63027 0.0
H1004 H 0.90434 0.09777 0.58353 0.0
H1005 H 0.93768 0.14401 0.59717 0.0
H1006 H 0.89832 0.13328 0.54669 0.0
H1007 H 0.92818 0.11694 0.60426 0.0
Eu1008 Eu 0.96453 0.56204 0.43299 0.0
C1009 C 0.89857 0.50398 0.41893 0.0
N1010 N 0.90908 0.5067 0.43893 0.0
C1011 C 0.88924 0.49531 0.47301 0.0
C1012 C 0.88299 0.49733 0.42548 0.0
C1013 C 0.9045 0.50166 0.46541 0.0
C1014 C 0.87846 0.49339 0.45305 0.0
C1015 C 0.8925 0.50256 0.36996 0.0
C1016 C 0.90322 0.5065 0.39151 0.0
C1017 C 0.87709 0.49675 0.37649 0.0
C1018 C 0.87235 0.49415 0.40421 0.0
Eu1019 Eu 0.93483 0.51805 0.42408 0.0
N1020 N 0.91818 0.51209 0.38582 0.0
C1021 C 0.89751 0.50417 0.34248 0.0
C1022 C 0.92303 0.51293 0.3591 0.0
C1023 C 0.91281 0.50919 0.33704 0.0
H1024 H 0.91264 0.50253 0.48082 0.0
H1025 H 0.91674 0.51015 0.31588 0.0
H1026 H 0.98945 0.57358 0.38127 0.0
H1027 H 0.97446 0.56017 0.54529 0.0
H1028 H 0.93483 0.51672 0.35484 0.0
H1029 H 0.88961 0.50124 0.32535 0.0
H1030 H 0.95995 0.5594 0.50468 0.0
H1031 H 0.88577 0.49171 0.49417 0.0
H1032 H 0.8687 0.49381 0.36024 0.0
H1033 H 0.86036 0.48918 0.40889 0.0
H1034 H 1.01613 0.58042 0.373 0.0
H1035 H 0.8666 0.48825 0.45891 0.0
H1036 H 1.00107 0.56608 0.54053 0.0
N1037 N 0.9902 0.56983 0.42425 0.0
C1038 C 0.99902 0.57113 0.44645 0.0
C1039 C 1.01144 0.57769 0.39373 0.0
C1040 C 1.01438 0.57516 0.44284 0.0
C1041 C 0.99627 0.57357 0.39833 0.0
C1042 C 0.0205 0.57833 0.41605 0.0
N1043 N 0.97758 0.56396 0.47555 0.0
C1044 C 0.97129 0.5616 0.50144 0.0
C1045 C 1.00136 0.56873 0.49598 0.0
C1046 C 0.99252 0.56797 0.47274 0.0
C1047 C 0.99467 0.56564 0.52222 0.0
C1048 C 0.97964 0.56224 0.52496 0.0
H1049 H 0.03224 0.58144 0.41243 0.0
H1050 H 0.03486 0.5787 0.46351 0.0
H1051 H 0.02346 0.57304 0.51 0.0
O1052 O 0.97271 0.58484 0.44936 0.0
O1053 O 0.97256 0.54464 0.43402 0.0
O1054 O 0.95298 0.52595 0.45756 0.0
O1055 O 0.97052 0.581 0.40501 0.0
O1056 O 0.94551 0.55458 0.46461 0.0
O1057 O 0.93097 0.52821 0.46624 0.0
O1058 O 0.9383 0.50085 0.40189 0.0
O1059 O 0.93 0.53458 0.39927 0.0
O1060 O 0.93968 0.55586 0.42662 0.0
O1061 O 0.92806 0.4956 0.44176 0.0
O1062 O 0.95575 0.52898 0.39296 0.0
O1063 O 0.96023 0.55333 0.38847 0.0
C1064 C 0.96744 0.53317 0.45125 0.0
C1065 C 0.96223 0.59712 0.42383 0.0
C1066 C 0.95471 0.61462 0.44348 0.0
C1067 C 0.94405 0.61066 0.4217 0.0
C1068 C 0.9515 0.59338 0.40249 0.0
C1069 C 0.94235 0.59998 0.40174 0.0
C1070 C 0.96331 0.60721 0.44472 0.0
C1071 C 0.93482 0.54202 0.47639 0.0
C1072 C 0.97194 0.59015 0.42521 0.0
C1073 C 0.02308 0.57576 0.46592 0.0
C1074 C 1.01659 0.57252 0.49239 0.0
C1075 C 0.92965 0.54665 0.40836 0.0
C1076 C 0.91974 0.47459 0.41052 0.0
C1077 C 0.91153 0.44863 0.39244 0.0
C1078 C 0.89639 0.44542 0.39435 0.0
C1079 C 0.90438 0.47061 0.41189 0.0
C1080 C 0.92333 0.46337 0.4009 0.0
C1081 C 0.8929 0.45624 0.40398 0.0
C1082 C 0.96208 0.54218 0.37919 0.0
C1083 C 0.93155 0.49021 0.42029 0.0
H1084 H 0.9374 0.6162 0.41902 0.0
H1085 H 0.9501 0.58533 0.38641 0.0
H1086 H 0.93417 0.59712 0.38514 0.0
H1087 H 0.97115 0.6094 0.46161 0.0
H1088 H 0.88712 0.43436 0.38841 0.0
H1089 H 0.90114 0.47858 0.41947 0.0
H1090 H 0.93508 0.46612 0.39975 0.0
H1091 H 0.88113 0.45344 0.40538 0.0
Eu1092 Eu 0.4688 0.40663 0.43065 0.0
C1093 C 0.52777 0.40065 0.41295 0.0
N1094 N 0.52539 0.40771 0.43474 0.0
C1095 C 0.53768 0.39859 0.46543 0.0
C1096 C 0.53494 0.39193 0.41683 0.0
C1097 C 0.53048 0.40705 0.46065 0.0
C1098 C 0.53983 0.39091 0.44347 0.0
C1099 C 0.52522 0.39477 0.36377 0.0
C1100 C 0.52293 0.40207 0.38668 0.0
C1101 C 0.53215 0.38591 0.36767 0.0
C1102 C 0.53701 0.38451 0.3941 0.0
Eu1103 Eu 0.51274 0.42138 0.42492 0.0
N1104 N 0.51597 0.4105 0.38354 0.0
C1105 C 0.52057 0.39666 0.33751 0.0
C1106 C 0.51222 0.41303 0.35767 0.0
C1107 C 0.51423 0.40599 0.33442 0.0
H1108 H 0.52908 0.41313 0.47773 0.0
H1109 H 0.51104 0.40791 0.31405 0.0
H1110 H 0.45472 0.4158 0.37586 0.0
H1111 H 0.4731 0.42457 0.53949 0.0
H1112 H 0.50803 0.4207 0.35442 0.0
H1113 H 0.52214 0.39125 0.31942 0.0
H1114 H 0.47526 0.41024 0.50078 0.0
H1115 H 0.54159 0.39802 0.48604 0.0
H1116 H 0.53392 0.38019 0.35031 0.0
H1117 H 0.54243 0.37772 0.39673 0.0
H1118 H 0.44526 0.43332 0.3643 0.0
H1119 H 0.5454 0.38434 0.44725 0.0
H1120 H 0.46313 0.44203 0.53172 0.0
N1121 N 0.45833 0.42199 0.4183 0.0
C1122 C 0.45655 0.43 0.43914 0.0
C1123 C 0.44849 0.43258 0.38539 0.0
C1124 C 0.45093 0.43994 0.43363 0.0
C1125 C 0.4541 0.42289 0.39184 0.0
C1126 C 0.44698 0.44122 0.40635 0.0
N1127 N 0.46679 0.41939 0.4705 0.0
C1128 C 0.47091 0.41771 0.49666 0.0
C1129 C 0.45939 0.43709 0.48781 0.0
C1130 C 0.46073 0.42855 0.46599 0.0
C1131 C 0.46396 0.43564 0.51445 0.0
C1132 C 0.46964 0.42584 0.5189 0.0
H1133 H 0.44266 0.44877 0.4013 0.0
H1134 H 0.44533 0.45612 0.45148 0.0
H1135 H 0.45275 0.45364 0.49886 0.0
O1136 O 0.45179 0.38591 0.45087 0.0
O1137 O 0.48533 0.43223 0.43596 0.0
O1138 O 0.5052 0.43229 0.45764 0.0
O1139 O 0.44558 0.39437 0.41485 0.0
O1140 O 0.47697 0.39574 0.4626 0.0
O1141 O 0.50322 0.40859 0.46763 0.0
O1142 O 0.53268 0.44058 0.40308 0.0
O1143 O 0.49736 0.39566 0.41905 0.0
O1144 O 0.47575 0.39379 0.40015 0.0
O1145 O 0.53369 0.43637 0.44685 0.0
O1146 O 0.50172 0.43163 0.39413 0.0
O1147 O 0.47775 0.4116 0.38681 0.0
C1148 C 0.49742 0.43904 0.45187 0.0
C1149 C 0.42645 0.38048 0.44813 0.0
C1150 C 0.4026 0.36026 0.46691 0.0
C1151 C 0.39717 0.37063 0.46823 0.0
C1152 C 0.42093 0.39065 0.44962 0.0
C1153 C 0.40641 0.38576 0.46013 0.0
C1154 C 0.41762 0.36567 0.45803 0.0
C1155 C 0.48929 0.39802 0.47597 0.0
C1156 C 0.44086 0.38439 0.43467 0.0
C1157 C 0.44957 0.44839 0.45536 0.0
C1158 C 0.45378 0.44697 0.48235 0.0
C1159 C 0.48454 0.3879 0.4052 0.0
C1160 C 0.55693 0.45785 0.42859 0.0
C1161 C 0.58187 0.4784 0.41133 0.0
C1162 C 0.58663 0.4822 0.43894 0.0
C1163 C 0.56244 0.46226 0.45579 0.0
C1164 C 0.56685 0.46606 0.40603 0.0
C1165 C 0.57705 0.47422 0.46083 0.0
C1166 C 0.48874 0.42509 0.37951 0.0
C1167 C 0.54094 0.44462 0.42552 0.0
H1168 H 0.38561 0.36703 0.47431 0.0
H1169 H 0.42765 0.40219 0.44221 0.0
H1170 H 0.40205 0.39355 0.46096 0.0
H1171 H 0.42239 0.35823 0.45758 0.0
H1172 H 0.59794 0.49144 0.44364 0.0
H1173 H 0.55541 0.45643 0.47355 0.0
H1174 H 0.56298 0.46293 0.38486 0.0
H1175 H 0.58099 0.47735 0.48196 0.0
Eu1176 Eu 0.62118 0.06426 0.43343 0.0
C1177 C 0.63347 0.1313 0.41898 0.0
N1178 N 0.62451 0.1209 0.43825 0.0
C1179 C 0.63305 0.14043 0.47292 0.0
C1180 C 0.64308 0.14666 0.42637 0.0
C1181 C 0.6235 0.12541 0.4645 0.0
C1182 C 0.6431 0.15104 0.45391 0.0
C1183 C 0.63986 0.13779 0.37047 0.0
C1184 C 0.63198 0.12692 0.3913 0.0
C1185 C 0.65013 0.15287 0.37798 0.0
C1186 C 0.65177 0.15729 0.40588 0.0
Eu1187 Eu 0.60959 0.09564 0.42189 0.0
N1188 N 0.62202 0.11223 0.38454 0.0
C1189 C 0.63672 0.1333 0.34265 0.0
C1190 C 0.61811 0.10803 0.35751 0.0
C1191 C 0.62558 0.11843 0.33615 0.0
H1192 H 0.61534 0.11739 0.47905 0.0
H1193 H 0.62276 0.11498 0.31472 0.0
H1194 H 0.60219 0.03811 0.38488 0.0
H1195 H 0.61578 0.05839 0.54711 0.0
H1196 H 0.60944 0.09655 0.35251 0.0
H1197 H 0.64249 0.14134 0.32606 0.0
H1198 H 0.62846 0.07007 0.50358 0.0
H1199 H 0.6325 0.14384 0.49396 0.0
H1200 H 0.65645 0.16133 0.36229 0.0
H1201 H 0.65933 0.16909 0.41125 0.0
H1202 H 0.57946 0.01268 0.38078 0.0
H1203 H 0.65032 0.16272 0.4604 0.0
H1204 H 0.59184 0.03374 0.54678 0.0
N1205 N 0.60024 0.03947 0.42844 0.0
C1206 C 0.59314 0.03196 0.45198 0.0
C1207 C 0.58308 0.01802 0.40092 0.0
C1208 C 0.58018 0.01733 0.45072 0.0
C1209 C 0.5958 0.03253 0.40323 0.0
C1210 C 0.57511 1.01045 0.42476 0.0
N1211 N 0.61131 0.0532 0.47776 0.0
C1212 C 0.61774 0.05977 0.50257 0.0
C1213 C 0.5912 0.03176 0.50205 0.0
C1214 C 0.59866 0.03912 0.4773 0.0
C1215 C 0.59724 0.039 0.52734 0.0
C1216 C 0.6107 0.05294 0.52759 0.0
H1217 H 0.56518 0.99924 0.42292 0.0
H1218 H 0.56249 0.99901 0.4747 0.0
H1219 H 0.57211 0.01165 0.51965 0.0
O1220 O 0.63566 0.05554 0.44883 0.0
O1221 O 0.59652 0.05934 0.43461 0.0
O1222 O 0.59828 0.07945 0.45792 0.0
O1223 O 0.63025 0.05406 0.40522 0.0
O1224 O 0.63455 0.08441 0.46244 0.0
O1225 O 0.62179 0.09804 0.46574 0.0
O1226 O 0.58567 0.08666 0.40909 0.0
O1227 O 0.62991 0.09784 0.39683 0.0
O1228 O 0.64109 0.08835 0.42548 0.0
O1229 O 0.59883 0.10987 0.42153 0.0
O1230 O 0.59951 0.07513 0.39017 0.0
O1231 O 0.61774 0.06806 0.38813 0.0
C1232 C 0.59102 0.06479 0.45319 0.0
C1233 C 0.6555 0.06137 0.417 0.0
C1234 C 0.68167 0.06954 0.43024 0.0
C1235 C 0.68671 0.07779 0.40534 0.0
C1236 C 0.66082 0.06967 0.39217 0.0
C1237 C 0.67633 0.07783 0.38649 0.0
C1238 C 0.666 0.0614 0.43596 0.0
C1239 C 0.63233 0.09472 0.47503 0.0
C1240 C 0.63916 0.0534 0.42388 0.0
C1241 C 0.57259 1.01015 0.47528 0.0
C1242 C 0.57805 0.01737 0.50086 0.0
C1243 C 0.64224 0.09827 0.40668 0.0
C1244 C 0.57183 0.09937 0.42184 0.0
C1245 C 0.55081 0.10502 0.41539 0.0
C1246 C 0.54642 0.10031 0.44296 0.0
C1247 C 0.56693 0.0948 0.44906 0.0
C1248 C 0.5636 0.10435 0.4048 0.0
C1249 C 0.55432 0.09523 0.45944 0.0
C1250 C 0.60553 0.0676 0.37776 0.0
C1251 C 0.58583 0.09951 0.4117 0.0
H1252 H 0.69866 0.08379 0.39993 0.0
H1253 H 0.65305 0.06998 0.37714 0.0
H1254 H 0.68031 0.0841 0.36728 0.0
H1255 H 0.66196 0.05509 0.45516 0.0
H1256 H 0.53669 0.10046 0.45185 0.0
H1257 H 0.57296 0.09098 0.46241 0.0
H1258 H 0.56735 0.10803 0.38375 0.0
H1259 H 0.55067 0.09167 0.48055 0.0
Eu1260 Eu 0.85702 0.591 0.77734 0.0
C1261 C 0.91526 0.65191 0.79825 0.0
N1262 N 0.90625 0.64689 0.77539 0.0
C1263 C 0.9069 0.6707 0.77133 0.0
C1264 C 0.91983 0.6664 0.80941 0.0
C1265 C 0.90256 0.65621 0.76116 0.0
C1266 C 0.91539 0.67575 0.79579 0.0
C1267 C 0.92965 0.64766 0.83372 0.0
C1268 C 0.92017 0.64262 0.8101 0.0
C1269 C 0.93349 0.66172 0.84585 0.0
C1270 C 0.92868 0.67111 0.83362 0.0
Eu1271 Eu 0.89915 0.62228 0.75986 0.0
N1272 N 0.91646 0.62916 0.79763 0.0
C1273 C 0.93545 0.63868 0.84389 0.0
C1274 C 0.92326 0.62112 0.80601 0.0
C1275 C 0.93251 0.62554 0.82961 0.0
H1276 H 0.89619 0.65235 0.74211 0.0
H1277 H 0.93755 0.6189 0.83655 0.0
H1278 H 0.85575 0.56316 0.81754 0.0
H1279 H 0.82937 0.58606 0.67768 0.0
H1280 H 0.92183 0.61139 0.79449 0.0
H1281 H 0.94274 0.64214 0.86202 0.0
H1282 H 0.84311 0.59885 0.72046 0.0
H1283 H 0.90369 0.67796 0.76032 0.0
H1284 H 0.94058 0.66564 0.86422 0.0
H1285 H 0.93207 0.68209 0.84279 0.0
H1286 H 0.84875 0.53628 0.81328 0.0
H1287 H 0.91865 0.68695 0.80374 0.0
H1288 H 0.82194 0.55921 0.66924 0.0
N1289 N 0.85003 0.56499 0.7759 0.0
C1290 C 0.84292 0.5573 0.75239 0.0
C1291 C 0.84726 0.54211 0.79583 0.0
C1292 C 0.83807 0.54172 0.74946 0.0
C1293 C 0.8516 0.55747 0.79795 0.0
C1294 C 0.84064 0.53423 0.77134 0.0
N1295 N 0.84433 0.5798 0.73531 0.0
C1296 C 0.8403 0.58729 0.7167 0.0
C1297 C 0.83163 0.55699 0.70777 0.0
C1298 C 0.83968 0.56481 0.73177 0.0
C1299 C 0.82813 0.56483 0.68793 0.0
C1300 C 0.83235 0.58 0.69257 0.0
H1301 H 0.83709 0.52227 0.76989 0.0
H1302 H 0.82668 0.52203 0.7226 0.0
H1303 H 0.82107 0.53541 0.68609 0.0
O1304 O 0.83707 0.59417 0.78243 0.0
O1305 O 0.86805 0.58915 0.73431 0.0
O1306 O 0.89313 0.59884 0.74482 0.0
O1307 O 0.83888 0.57778 0.8073 0.0
O1308 O 0.86005 0.61361 0.76248 0.0
O1309 O 0.88034 0.62173 0.73311 0.0
O1310 O 0.92195 0.63785 0.74564 0.0
O1311 O 0.88532 0.62848 0.78899 0.0
O1312 O 0.87148 0.607 0.81394 0.0
O1313 O 0.90456 0.62527 0.71528 0.0
O1314 O 0.89657 0.60025 0.77919 0.0
O1315 O 0.87438 0.589 0.805 0.0
C1316 C 0.88165 0.59068 0.72819 0.0
C1317 C 0.81363 0.57263 0.79775 0.0
C1318 C 0.7864 0.56459 0.8058 0.0
C1319 C 0.78256 0.5506 0.79319 0.0
C1320 C 0.80901 0.55858 0.78498 0.0
C1321 C 0.79369 0.5477 0.7829 0.0
C1322 C 0.80219 0.57561 0.80839 0.0
C1323 C 0.86826 0.62213 0.74171 0.0
C1324 C 0.83035 0.58356 0.80094 0.0
C1325 C 0.83042 0.53398 0.72523 0.0
C1326 C 0.82719 0.54159 0.70446 0.0
C1327 C 0.87997 0.62203 0.81304 0.0
C1328 C 0.92931 0.62923 0.70668 0.0
C1329 C 0.95155 0.62619 0.71142 0.0
C1330 C 0.95172 0.62439 0.68254 0.0
C1331 C 0.9296 0.62755 0.67787 0.0
C1332 C 0.9397 0.62755 0.72321 0.0
C1333 C 0.94057 0.62478 0.66594 0.0
C1334 C 0.88757 0.59029 0.79806 0.0
C1335 C 0.91906 0.63376 0.71981 0.0
H1336 H 0.7708 0.54169 0.79144 0.0
H1337 H 0.81731 0.55586 0.77699 0.0
H1338 H 0.79039 0.53685 0.77332 0.0
H1339 H 0.80554 0.5864 0.81831 0.0
H1340 H 0.9607 0.62326 0.67274 0.0
H1341 H 0.92152 0.62859 0.66467 0.0
H1342 H 0.93908 0.62809 0.74559 0.0
H1343 H 0.94079 0.62352 0.64368 0.0
Eu1344 Eu 0.43965 0.27167 0.77497 0.0
C1345 C 0.37918 0.26907 0.8012 0.0
N1346 N 0.38373 0.26507 0.77777 0.0
C1347 C 0.35972 0.2421 0.77439 0.0
C1348 C 0.36481 0.25927 0.81291 0.0
C1349 C 0.3741 0.25214 0.76366 0.0
C1350 C 0.35512 0.24559 0.79932 0.0
C1351 C 0.38436 0.2875 0.83759 0.0
C1352 C 0.38884 0.2831 0.8132 0.0
C1353 C 0.37039 0.27745 0.85012 0.0
C1354 C 0.36059 0.26344 0.83768 0.0
Eu1355 Eu 0.40799 0.28251 0.76075 0.0
N1356 N 0.40219 0.29271 0.8003 0.0
C1357 C 0.39382 0.30207 0.84819 0.0
C1358 C 0.41076 0.30737 0.80932 0.0
C1359 C 0.40691 0.31214 0.83369 0.0
H1360 H 0.37762 0.24959 0.74423 0.0
H1361 H 0.41394 0.32367 0.84105 0.0
H1362 H 0.46721 0.29823 0.8161 0.0
H1363 H 0.44497 0.25156 0.67291 0.0
H1364 H 0.42046 0.31562 0.79772 0.0
H1365 H 0.39081 0.30586 0.86691 0.0
H1366 H 0.43203 0.25124 0.71653 0.0
H1367 H 0.35221 0.23169 0.76345 0.0
H1368 H 0.36686 0.2806 0.86901 0.0
H1369 H 0.34968 0.25599 0.84717 0.0
H1370 H 0.49369 0.319 0.81175 0.0
H1371 H 0.34401 0.23775 0.8077 0.0
H1372 H 0.47149 0.27186 0.66466 0.0
N1373 N 0.46536 0.29142 0.77388 0.0
C1374 C 0.473 0.29273 0.74991 0.0
C1375 C 0.48795 0.31183 0.79408 0.0
C1376 C 0.4884 0.30403 0.74691 0.0
C1377 C 0.4728 0.30027 0.79627 0.0
C1378 C 0.49574 0.31386 0.76917 0.0
N1379 N 0.45076 0.27158 0.73199 0.0
C1380 C 0.4435 0.26027 0.71286 0.0
C1381 C 0.47348 0.2829 0.70415 0.0
C1382 C 0.46565 0.28231 0.72867 0.0
C1383 C 0.46584 0.27182 0.68376 0.0
C1384 C 0.45085 0.26036 0.68828 0.0
H1385 H 0.50754 0.32271 0.76765 0.0
H1386 H 0.5079 0.31361 0.71945 0.0
H1387 H 0.49485 0.29508 0.68208 0.0
O1388 O 0.43619 0.24851 0.77817 0.0
O1389 O 0.44016 0.28405 0.73217 0.0
O1390 O 0.43093 0.29978 0.74324 0.0
O1391 O 0.45499 0.26658 0.79938 0.0
O1392 O 0.41687 0.25216 0.76094 0.0
O1393 O 0.40809 0.26432 0.73299 0.0
O1394 O 0.3937 0.29185 0.74889 0.0
O1395 O 0.40246 0.26253 0.78954 0.0
O1396 O 0.42431 0.26948 0.81328 0.0
O1397 O 0.40165 0.28246 0.71723 0.0
O1398 O 0.43086 0.30191 0.7774 0.0
O1399 O 0.44117 0.29035 0.80392 0.0
C1400 C 0.439 0.29635 0.72653 0.0
C1401 C 0.44591 0.24137 0.81698 0.0
C1402 C 0.44863 0.22025 0.83671 0.0
C1403 C 0.44094 0.22085 0.86048 0.0
C1404 C 0.43835 0.24151 0.84118 0.0
C1405 C 0.43596 0.23139 0.86272 0.0
C1406 C 0.45121 0.23073 0.81487 0.0
C1407 C 0.40797 0.25188 0.7409 0.0
C1408 C 0.4479 0.25209 0.79394 0.0
C1409 C 0.4961 0.30495 0.72214 0.0
C1410 C 0.48868 0.29438 0.70087 0.0
C1411 C 0.40927 0.2634 0.81317 0.0
C1412 C 0.39954 0.3039 0.70581 0.0
C1413 C 0.41117 0.33154 0.7062 0.0
C1414 C 0.40394 0.33052 0.68054 0.0
C1415 C 0.39239 0.3031 0.6806 0.0
C1416 C 0.40979 0.31807 0.71716 0.0
C1417 C 0.395 0.31645 0.66759 0.0
C1418 C 0.44068 0.3026 0.79632 0.0
C1419 C 0.39487 0.29019 0.7224 0.0
H1420 H 0.43882 0.21312 0.87756 0.0
H1421 H 0.43421 0.24944 0.84336 0.0
H1422 H 0.43011 0.23165 0.88129 0.0
H1423 H 0.45702 0.23043 0.79625 0.0
H1424 H 0.40437 0.34031 0.67089 0.0
H1425 H 0.3845 0.29221 0.67147 0.0
H1426 H 0.41577 0.31824 0.7358 0.0
H1427 H 0.38933 0.31583 0.6482 0.0
Eu1428 Eu 0.75921 0.17225 0.77637 0.0
C1429 C 0.76246 0.11495 0.80175 0.0
N1430 N 0.76607 0.12314 0.77793 0.0
C1431 C 0.78937 0.12267 0.77453 0.0
C1432 C 0.77266 0.11096 0.81372 0.0
C1433 C 0.77894 0.12647 0.7636 0.0
C1434 C 0.78631 0.11505 0.7999 0.0
C1435 C 0.74457 0.10222 0.83907 0.0
C1436 C 0.74852 0.11061 0.81414 0.0
C1437 C 0.75499 0.09882 0.85174 0.0
C1438 C 0.76896 0.1031 0.83902 0.0
Eu1439 Eu 0.74824 0.12958 0.76112 0.0
N1440 N 0.73863 0.11403 0.80132 0.0
C1441 C 0.73011 0.09716 0.85018 0.0
C1442 C 0.72407 0.10794 0.81089 0.0
C1443 C 0.71972 0.09977 0.83573 0.0
H1444 H 0.78118 0.1322 0.7439 0.0
H1445 H 0.70827 0.0953 0.84352 0.0
H1446 H 0.73442 0.17557 0.81799 0.0
H1447 H 0.78053 0.19792 0.6749 0.0
H1448 H 0.71557 0.10906 0.79937 0.0
H1449 H 0.72666 0.09074 0.86933 0.0
H1450 H 0.77997 0.18469 0.71809 0.0
H1451 H 0.79974 0.12561 0.76341 0.0
H1452 H 0.75222 0.09259 0.87109 0.0
H1453 H 0.77678 0.10019 0.84881 0.0
H1454 H 0.71532 0.18378 0.815 0.0
H1455 H 0.79446 0.11222 0.80844 0.0
H1456 H 0.76161 0.20615 0.66729 0.0
N1457 N 0.74096 0.18028 0.77578 0.0
C1458 C 0.74016 0.18715 0.75215 0.0
C1459 C 0.72205 0.18457 0.79701 0.0
C1460 C 0.72988 0.19263 0.74983 0.0
C1461 C 0.7326 0.17956 0.79846 0.0
C1462 C 0.72054 0.19096 0.77245 0.0
N1463 N 0.76036 0.18451 0.734 0.0
C1464 C 0.77144 0.18787 0.71472 0.0
C1465 C 0.75037 0.19741 0.70667 0.0
C1466 C 0.75032 0.18959 0.73086 0.0
C1467 C 0.7612 0.20017 0.68616 0.0
C1468 C 0.77188 0.19551 0.69034 0.0
H1469 H 0.71252 0.19505 0.77151 0.0
H1470 H 0.72172 0.20426 0.72326 0.0
H1471 H 0.73963 0.20839 0.68544 0.0
O1472 O 0.7825 0.19207 0.78014 0.0
O1473 O 0.74601 0.16094 0.73366 0.0
O1474 O 0.73119 0.1355 0.74296 0.0
O1475 O 0.76499 0.19048 0.80673 0.0
O1476 O 0.77841 0.16862 0.76166 0.0
O1477 O 0.76602 0.14795 0.73316 0.0
O1478 O 0.73825 0.10579 0.74992 0.0
O1479 O 0.76832 0.14405 0.78967 0.0
O1480 O 0.76035 0.15797 0.81361 0.0
O1481 O 0.7486 0.12284 0.71803 0.0
O1482 O 0.72869 0.13283 0.77779 0.0
O1483 O 0.73938 0.15517 0.80326 0.0
C1484 C 0.73436 0.14719 0.7269 0.0
C1485 C 0.78502 0.21563 0.79675 0.0
C1486 C 0.80426 0.24279 0.80531 0.0
C1487 C 0.79404 0.24673 0.79331 0.0
C1488 C 0.77553 0.22038 0.78461 0.0
C1489 C 0.77996 0.23571 0.78309 0.0
C1490 C 0.7995 0.22697 0.80737 0.0
C1491 C 0.77853 0.16015 0.74118 0.0
C1492 C 0.77915 0.19886 0.79945 0.0
C1493 C 0.72958 0.20004 0.72544 0.0
C1494 C 0.73981 0.20242 0.70393 0.0
C1495 C 0.76707 0.14963 0.81336 0.0
C1496 C 0.72655 0.0999 0.70618 0.0
C1497 C 0.69895 0.08403 0.70367 0.0
C1498 C 0.70033 0.08066 0.67583 0.0
C1499 C 0.72777 0.09641 0.67855 0.0
C1500 C 0.71215 0.09438 0.718 0.0
C1501 C 0.71464 0.08706 0.66328 0.0
C1502 C 0.72754 0.14204 0.79596 0.0
C1503 C 0.74018 0.10844 0.7234 0.0
H1504 H 0.79689 0.25851 0.79196 0.0
H1505 H 0.76447 0.21218 0.77668 0.0
H1506 H 0.77235 0.2391 0.774 0.0
H1507 H 0.80698 0.22354 0.81686 0.0
H1508 H 0.6905 0.07257 0.66409 0.0
H1509 H 0.73882 0.10068 0.669 0.0
H1510 H 0.71129 0.09768 0.73901 0.0
H1511 H 0.71561 0.08424 0.642 0.0
Eu1512 Eu 0.43725 0.17215 0.2792 0.0
C1513 C 0.37289 0.12213 0.25214 0.0
N1514 N 0.38128 0.12183 0.27384 0.0
C1515 C 0.35975 0.11293 0.30399 0.0
C1516 C 0.35764 0.11842 0.25596 0.0
C1517 C 0.37484 0.11679 0.29922 0.0
C1518 C 0.35115 0.11391 0.28233 0.0
C1519 C 0.37128 0.12729 0.20351 0.0
C1520 C 0.37967 0.12644 0.22614 0.0
C1521 C 0.35617 0.12381 0.20737 0.0
C1522 C 0.34936 0.11936 0.23349 0.0
Eu1523 Eu 0.4068 0.12917 0.26455 0.0
N1524 N 0.3945 0.13018 0.22312 0.0
C1525 C 0.37836 0.13174 0.17765 0.0
C1526 C 0.40124 0.13404 0.19763 0.0
C1527 C 0.39335 0.13499 0.17467 0.0
H1528 H 0.38124 0.11545 0.31568 0.0
H1529 H 0.39885 0.13823 0.15463 0.0
H1530 H 0.45921 0.19003 0.2232 0.0
H1531 H 0.45618 0.17801 0.38671 0.0
H1532 H 0.41264 0.13635 0.19447 0.0
H1533 H 0.37232 0.13259 0.15982 0.0
H1534 H 0.43778 0.1727 0.34865 0.0
H1535 H 0.35475 0.10912 0.3243 0.0
H1536 H 0.34963 0.12453 0.19025 0.0
H1537 H 0.33767 0.11667 0.2361 0.0
H1538 H 0.48599 0.20066 0.20889 0.0
H1539 H 0.33947 0.11097 0.28608 0.0
H1540 H 0.48284 0.18553 0.37576 0.0
N1541 N 0.46273 0.1837 0.26342 0.0
C1542 C 0.47316 0.1852 0.28277 0.0
C1543 C 0.4825 0.19615 0.2296 0.0
C1544 C 0.48867 0.19166 0.27574 0.0
C1545 C 0.46732 0.18997 0.23767 0.0
C1546 C 0.49317 0.19671 0.24854 0.0
N1547 N 0.4538 0.17658 0.31682 0.0
C1548 C 0.44939 0.1759 0.34381 0.0
C1549 C 0.47948 0.18492 0.3313 0.0
C1550 C 0.46862 0.18179 0.3103 0.0
C1551 C 0.47482 0.18316 0.35905 0.0
C1552 C 0.45978 0.17894 0.36533 0.0
H1553 H 0.50496 0.20172 0.24235 0.0
H1554 H 0.51122 0.19842 0.29123 0.0
H1555 H 0.50319 0.19258 0.33988 0.0
O1556 O 0.42705 0.18633 0.28992 0.0
O1557 O 0.43949 0.15411 0.3041 0.0
O1558 O 0.43104 0.13412 0.27415 0.0
O1559 O 0.45094 0.19704 0.28291 0.0
O1560 O 0.41665 0.16034 0.31088 0.0
O1561 O 0.40936 0.13487 0.31063 0.0
O1562 O 0.40054 0.10873 0.24073 0.0
O1563 O 0.401 0.14829 0.265 0.0
O1564 O 0.42115 0.1673 0.24296 0.0
O1565 O 0.39841 0.10743 0.28577 0.0
O1566 O 0.42655 0.13713 0.23495 0.0
O1567 O 0.44138 0.16341 0.23547 0.0
C1568 C 0.44048 0.14264 0.29375 0.0
C1569 C 0.44004 0.213 0.27856 0.0
C1570 C 0.44418 0.23918 0.28408 0.0
C1571 C 0.44091 0.23892 0.25561 0.0
C1572 C 0.43678 0.21336 0.25047 0.0
C1573 C 0.43727 0.22623 0.23914 0.0
C1574 C 0.4439 0.22605 0.29541 0.0
C1575 C 0.40892 0.14644 0.32209 0.0
C1576 C 0.43983 0.1992 0.28991 0.0
C1577 C 0.49931 0.19366 0.29634 0.0
C1578 C 0.49473 0.19034 0.32406 0.0
C1579 C 0.40647 0.15978 0.24765 0.0
C1580 C 0.38514 0.0844 0.25987 0.0
C1581 C 0.37949 0.05859 0.25052 0.0
C1582 C 0.36406 0.0534 0.2564 0.0
C1583 C 0.36984 0.07924 0.26577 0.0
C1584 C 0.38977 0.07421 0.25148 0.0
C1585 C 0.35928 0.06372 0.26371 0.0
C1586 C 0.43758 0.14979 0.22436 0.0
C1587 C 0.39704 0.10019 0.26264 0.0
H1588 H 0.44131 0.2487 0.2458 0.0
H1589 H 0.43394 0.20368 0.23721 0.0
H1590 H 0.43484 0.22638 0.21732 0.0
H1591 H 0.44644 0.22589 0.31718 0.0
H1592 H 0.35579 0.04138 0.25624 0.0
H1593 H 0.36611 0.0871 0.27206 0.0
H1594 H 0.40163 0.07852 0.24633 0.0
H1595 H 0.34744 0.05963 0.26842 0.0
Eu1596 Eu 0.85773 0.26912 0.28018 0.0
C1597 C 0.90501 0.2531 0.24682 0.0
N1598 N 0.90511 0.26043 0.27043 0.0
C1599 C 0.91066 0.24399 0.29737 0.0
C1600 C 0.9071 0.24037 0.2478 0.0
C1601 C 0.90845 0.25647 0.29533 0.0
C1602 C 0.90981 0.23578 0.27353 0.0
C1603 C 0.90212 0.25057 0.19689 0.0
C1604 C 0.90257 0.2582 0.22168 0.0
C1605 C 0.9038 0.23766 0.19786 0.0
C1606 C 0.90633 0.23261 0.22323 0.0
Eu1607 Eu 0.90054 0.2809 0.26589 0.0
N1608 N 0.90075 0.27063 0.22143 0.0
C1609 C 0.90017 0.25624 0.17177 0.0
C1610 C 0.89986 0.27671 0.19671 0.0
C1611 C 0.89929 0.2695 0.17166 0.0
H1612 H 0.90959 0.26305 0.31359 0.0
H1613 H 0.89835 0.27429 0.15223 0.0
H1614 H 0.83984 0.2722 0.22313 0.0
H1615 H 0.85214 0.28476 0.38599 0.0
H1616 H 0.89998 0.28731 0.19574 0.0
H1617 H 0.89975 0.2507 0.15231 0.0
H1618 H 0.857 0.27049 0.3495 0.0
H1619 H 0.91309 0.24075 0.31728 0.0
H1620 H 0.90333 0.23161 0.17904 0.0
H1621 H 0.90773 0.22271 0.22362 0.0
H1622 H 0.82985 0.28858 0.20664 0.0
H1623 H 0.91145 0.22606 0.27516 0.0
H1624 H 0.84554 0.3043 0.37275 0.0
N1625 N 0.84659 0.28306 0.2625 0.0
C1626 C 0.84553 0.2927 0.2808 0.0
C1627 C 0.83441 0.29 0.22741 0.0
C1628 C 0.83946 0.30192 0.27254 0.0
C1629 C 0.8402 0.28085 0.23672 0.0
C1630 C 0.83434 0.30081 0.24521 0.0
N1631 N 0.85371 0.28233 0.31636 0.0
C1632 C 0.85416 0.27905 0.34371 0.0
C1633 C 0.84614 0.30057 0.32863 0.0
C1634 C 0.84895 0.29214 0.30859 0.0
C1635 C 0.84769 0.29811 0.35674 0.0
C1636 C 0.85138 0.28707 0.36432 0.0
H1637 H 0.82963 0.30772 0.23807 0.0
H1638 H 0.83343 0.3186 0.28605 0.0
H1639 H 0.8392 0.31734 0.33517 0.0
O1640 O 0.84291 0.2445 0.2886 0.0
O1641 O 0.87625 0.28937 0.30488 0.0
O1642 O 0.89601 0.30046 0.27443 0.0
O1643 O 0.83313 0.25877 0.28707 0.0
O1644 O 0.86895 0.25999 0.31243 0.0
O1645 O 0.89457 0.27755 0.31176 0.0
O1646 O 0.9231 0.2945 0.24775 0.0
O1647 O 0.88095 0.25632 0.26661 0.0
O1648 O 0.8623 0.25772 0.24376 0.0
O1649 O 0.92061 0.29184 0.29227 0.0
O1650 O 0.89309 0.294 0.23788 0.0
O1651 O 0.86671 0.28141 0.23609 0.0
C1652 C 0.88784 0.30167 0.29436 0.0
C1653 C 0.81585 0.23245 0.27989 0.0
C1654 C 0.78938 0.21082 0.28557 0.0
C1655 C 0.78812 0.21026 0.25641 0.0
C1656 C 0.81393 0.23115 0.2511 0.0
C1657 C 0.80019 0.22021 0.23955 0.0
C1658 C 0.80344 0.22228 0.29726 0.0
C1659 C 0.88289 0.26582 0.32339 0.0
C1660 C 0.83042 0.24506 0.29145 0.0
C1661 C 0.83788 0.31129 0.29212 0.0
C1662 C 0.84115 0.31057 0.32012 0.0
C1663 C 0.86998 0.25068 0.24814 0.0
C1664 C 0.93688 0.31644 0.27487 0.0
C1665 C 0.95421 0.34175 0.25654 0.0
C1666 C 0.95036 0.34807 0.27907 0.0
C1667 C 0.93324 0.32306 0.29703 0.0
C1668 C 0.94701 0.32581 0.25437 0.0
C1669 C 0.93986 0.33877 0.2989 0.0
C1670 C 0.8804 0.29183 0.22612 0.0
C1671 C 0.92933 0.29981 0.27183 0.0
H1672 H 0.77761 0.20216 0.24638 0.0
H1673 H 0.82305 0.2388 0.23749 0.0
H1674 H 0.79883 0.21949 0.21723 0.0
H1675 H 0.80477 0.22323 0.31958 0.0
H1676 H 0.95588 0.36021 0.2823 0.0
H1677 H 0.92517 0.31615 0.31284 0.0
H1678 H 0.94932 0.32056 0.23691 0.0
H1679 H 0.93706 0.34378 0.31611 0.0
Eu1680 Eu 0.76161 0.59464 0.27942 0.0
C1681 C 0.77621 0.65634 0.24338 0.0
N1682 N 0.77019 0.64967 0.26811 0.0
C1683 C 0.78865 0.67189 0.29233 0.0
C1684 C 0.78929 0.67088 0.24229 0.0
C1685 C 0.77578 0.65741 0.29235 0.0
C1686 C 0.79557 0.67859 0.2672 0.0
C1687 C 0.77561 0.655 0.19322 0.0
C1688 C 0.76939 0.64845 0.21919 0.0
C1689 C 0.78895 0.66924 0.19204 0.0
C1690 C 0.79574 0.67719 0.2165 0.0
Eu1691 Eu 0.74873 0.62505 0.2669 0.0
N1692 N 0.75652 0.6346 0.22102 0.0
C1693 C 0.76808 0.64719 0.16916 0.0
C1694 C 0.74852 0.62762 0.19753 0.0
C1695 C 0.75433 0.63359 0.17135 0.0
H1696 H 0.77022 0.65244 0.31165 0.0
H1697 H 0.74806 0.62781 0.15285 0.0
H1698 H 0.75571 0.5728 0.22231 0.0
H1699 H 0.74757 0.57734 0.38761 0.0
H1700 H 0.73743 0.61767 0.19858 0.0
H1701 H 0.7725 0.65182 0.14883 0.0
H1702 H 0.76005 0.5954 0.34918 0.0
H1703 H 0.79319 0.67788 0.31168 0.0
H1704 H 0.79395 0.67434 0.17227 0.0
H1705 H 0.80591 0.68824 0.21526 0.0
H1706 H 0.74042 0.5458 0.20919 0.0
H1707 H 0.80561 0.68977 0.26724 0.0
H1708 H 0.73089 0.55 0.37763 0.0
N1709 N 0.74808 0.56911 0.26423 0.0
C1710 C 0.74044 0.55864 0.28438 0.0
C1711 C 0.74018 0.54928 0.23032 0.0
C1712 C 0.73191 0.54302 0.27788 0.0
C1713 C 0.74862 0.5646 0.23774 0.0
C1714 C 0.73162 0.53846 0.25038 0.0
N1715 N 0.7499 0.57854 0.31773 0.0
C1716 C 0.75266 0.58352 0.34459 0.0
C1717 C 0.73433 0.55273 0.33321 0.0
C1718 C 0.74162 0.56344 0.31185 0.0
C1719 C 0.7363 0.55788 0.36067 0.0
C1720 C 0.74567 0.57331 0.3664 0.0
H1721 H 0.72518 0.52658 0.24458 0.0
H1722 H 0.71754 0.52041 0.29435 0.0
H1723 H 0.71967 0.5289 0.34271 0.0
O1724 O 0.78577 0.60424 0.29187 0.0
O1725 O 0.73934 0.58964 0.30123 0.0
O1726 O 0.72872 0.60128 0.27581 0.0
O1727 O 0.77282 0.58092 0.28011 0.0
O1728 O 0.77091 0.61515 0.31125 0.0
O1729 O 0.75189 0.62104 0.31219 0.0
O1730 O 0.73436 0.63411 0.25261 0.0
O1731 O 0.77353 0.63033 0.26615 0.0
O1732 O 0.77233 0.61051 0.24285 0.0
O1733 O 0.74055 0.63583 0.29579 0.0
O1734 O 0.73533 0.6041 0.23946 0.0
O1735 O 0.74992 0.59238 0.23514 0.0
C1736 C 0.72737 0.59035 0.29241 0.0
C1737 C 0.79967 0.59143 0.27904 0.0
C1738 C 0.82143 0.5868 0.28547 0.0
C1739 C 0.82409 0.58913 0.25669 0.0
C1740 C 0.80311 0.59393 0.25079 0.0
C1741 C 0.81515 0.59271 0.23977 0.0
C1742 C 0.80885 0.58777 0.29648 0.0
C1743 C 0.76436 0.62234 0.32306 0.0
C1744 C 0.7858 0.59145 0.2896 0.0
C1745 C 0.72423 0.53242 0.29903 0.0
C1746 C 0.72546 0.53726 0.32659 0.0
C1747 C 0.77915 0.62518 0.24724 0.0
C1748 C 0.71544 0.62989 0.28567 0.0
C1749 C 0.68907 0.62109 0.27291 0.0
C1750 C 0.68448 0.61499 0.29964 0.0
C1751 C 0.71063 0.62411 0.31258 0.0
C1752 C 0.70458 0.62846 0.26603 0.0
C1753 C 0.69523 0.6166 0.31936 0.0
C1754 C 0.73855 0.59459 0.22642 0.0
C1755 C 0.7316 0.63685 0.2777 0.0
H1756 H 0.83306 0.58799 0.2469 0.0
H1757 H 0.79625 0.59652 0.23708 0.0
H1758 H 0.8175 0.59442 0.21777 0.0
H1759 H 0.80623 0.58577 0.31836 0.0
H1760 H 0.67263 0.60953 0.30569 0.0
H1761 H 0.7187 0.6251 0.3283 0.0
H1762 H 0.70819 0.63315 0.24542 0.0
H1763 H 0.69161 0.61207 0.34002 0.0
Eu1764 Eu 0.47108 0.06822 0.93796 0.0
C1765 C 0.52571 0.13271 0.94814 0.0
N1766 N 0.51911 0.12498 0.92433 0.0
C1767 C 0.52089 0.14747 0.90448 0.0
C1768 C 0.52974 0.14809 0.95123 0.0
C1769 C 0.51738 0.13234 0.90215 0.0
C1770 C 0.52692 0.15532 0.92924 0.0
C1771 C 0.53655 0.13337 0.99348 0.0
C1772 C 0.52905 0.12544 0.96916 0.0
C1773 C 0.54022 0.14855 0.99682 0.0
C1774 C 0.53678 0.15587 0.97581 0.0
Eu1775 Eu 0.51325 0.09928 0.92327 0.0
N1776 N 0.52488 0.11054 0.96589 0.0
C1777 C 0.54023 0.12581 1.01366 0.0
C1778 C 0.52915 0.10336 0.98477 0.0
C1779 C 0.53666 0.1108 1.00914 0.0
H1780 H 0.51352 0.12669 0.88239 0.0
H1781 H 0.53976 0.10498 0.02433 0.0
H1782 H 0.4732 0.03785 0.95614 0.0
H1783 H 0.4372 0.07429 0.85495 0.0
H1784 H 0.5267 0.09188 0.98109 0.0
H1785 H 0.54602 0.13152 0.03259 0.0
H1786 H 0.45159 0.08118 0.89842 0.0
H1787 H 0.51916 0.15313 0.88702 0.0
H1788 H 0.54587 0.15478 1.01546 0.0
H1789 H 0.53987 0.16765 0.97856 0.0
H1790 H 0.46521 0.01205 0.93835 0.0
H1791 H 0.52979 0.1671 0.93086 0.0
H1792 H 0.43105 0.05039 0.83095 0.0
N1793 N 0.46393 0.04368 0.92207 0.0
C1794 C 0.4553 0.03889 0.89873 0.0
C1795 C 0.46246 0.01952 0.92688 0.0
C1796 C 0.45043 0.02428 0.88786 0.0
C1797 C 0.46709 0.03413 0.93679 0.0
C1798 C 0.45423 0.01462 0.90214 0.0
N1799 N 0.45543 0.06233 0.89781 0.0
C1800 C 0.44985 0.07114 0.88765 0.0
C1801 C 0.44244 0.04394 0.86142 0.0
C1802 C 0.45129 0.04863 0.88585 0.0
C1803 C 0.43781 0.05356 0.84974 0.0
C1804 C 0.4413 0.06708 0.86318 0.0
H1805 H 0.45072 1.00333 0.89441 0.0
H1806 H 0.43831 1.00869 0.85428 0.0
H1807 H 0.43146 0.02595 0.83095 0.0
O1808 O 0.44736 0.05465 0.94888 0.0
O1809 O 0.48517 0.06225 0.9089 0.0
O1810 O 0.49986 0.08395 0.88494 0.0
O1811 O 0.46426 0.06164 0.98122 0.0
O1812 O 0.47478 0.09124 0.92188 0.0
O1813 O 0.49606 0.10061 0.89425 0.0
O1814 O 0.53237 0.09498 0.91794 0.0
O1815 O 0.50181 0.10008 0.96656 0.0
O1816 O 0.47689 0.09114 0.95588 0.0
O1817 O 0.53393 0.11498 0.90026 0.0
O1818 O 0.51003 0.0766 0.93767 0.0
O1819 O 0.48916 0.06789 0.96576 0.0
C1820 C 0.49092 0.06892 0.88512 0.0
C1821 C 0.44049 0.05982 0.99229 0.0
C1822 C 0.41685 0.0604 0.99637 0.0
C1823 C 0.42207 0.06863 0.02121 0.0
C1824 C 0.44552 0.06775 0.01749 0.0
C1825 C 0.43631 0.07214 0.03183 0.0
C1826 C 0.42613 0.05608 0.98227 0.0
C1827 C 0.48369 0.10067 0.90242 0.0
C1828 C 0.44983 0.05544 0.97547 0.0
C1829 C 0.44199 0.01979 0.86315 0.0
C1830 C 0.43812 0.02964 0.84984 0.0
C1831 C 0.48844 0.09909 0.97253 0.0
C1832 C 0.54909 0.10573 0.87917 0.0
C1833 C 0.57217 0.10771 0.85714 0.0
C1834 C 0.564 0.10316 0.83199 0.0
C1835 C 0.54148 0.10099 0.85373 0.0
C1836 C 0.56457 0.10919 0.88084 0.0
C1837 C 0.54891 0.09982 0.83038 0.0
C1838 C 0.5015 0.06778 0.9578 0.0
C1839 C 0.54081 0.10717 0.90358 0.0
H1840 H 0.41512 0.07217 0.03243 0.0
H1841 H 0.45657 0.07074 0.02588 0.0
H1842 H 0.44029 0.07838 0.0511 0.0
H1843 H 0.42227 0.05006 0.96271 0.0
H1844 H 0.56934 0.10224 0.81321 0.0
H1845 H 0.52975 0.09829 0.85187 0.0
H1846 H 0.57053 0.11275 0.90047 0.0
H1847 H 0.54292 0.0963 0.81079 0.0
Eu1848 Eu 0.96323 0.40751 0.94194 0.0
C1849 C 0.89914 0.39922 0.95429 0.0
N1850 N 0.90617 0.39843 0.9308 0.0
C1851 C 0.88314 0.3764 0.91599 0.0
C1852 C 0.88389 0.38821 0.95989 0.0
C1853 C 0.89818 0.38767 0.91116 0.0
C1854 C 0.87602 0.37655 0.94062 0.0
C1855 C 0.89994 0.41259 0.99669 0.0
C1856 C 0.90706 0.41131 0.97253 0.0
C1857 C 0.88486 0.40149 1.00247 0.0
C1858 C 0.87687 0.38933 0.98417 0.0
Eu1859 Eu 0.93165 0.41817 0.92481 0.0
N1860 N 0.92184 0.42166 0.96691 0.0
C1861 C 0.90819 0.42499 1.01434 0.0
C1862 C 0.92969 0.43413 0.98339 0.0
C1863 C 0.92307 0.43588 1.00751 0.0
H1864 H 0.90314 0.38808 0.89125 0.0
H1865 H 0.92941 0.44571 0.02068 0.0
H1866 H 0.99333 0.44049 0.95942 0.0
H1867 H 0.95928 0.36569 0.86472 0.0
H1868 H 0.94095 0.44292 0.97785 0.0
H1869 H 0.9031 0.42638 0.03306 0.0
H1870 H 0.95171 0.37401 0.90644 0.0
H1871 H 0.87696 0.36779 0.90044 0.0
H1872 H 0.87923 0.40226 0.021 0.0
H1873 H 0.86519 0.38095 0.98881 0.0
H1874 H 0.01904 0.45834 0.9414 0.0
H1875 H 0.8643 0.36789 0.94418 0.0
H1876 H 0.98275 0.38347 0.83972 0.0
N1877 N 0.98778 0.42492 0.9262 0.0
C1878 C 0.99274 0.42081 0.90342 0.0
C1879 C 1.01172 0.4479 0.93038 0.0
C1880 C 1.00731 0.43057 0.89243 0.0
C1881 C 0.99716 0.43789 0.94042 0.0
C1882 C 1.01675 0.44432 0.90607 0.0
N1883 N 0.96975 0.39704 0.90372 0.0
C1884 C 0.96155 0.38226 0.89514 0.0
C1885 C 0.98836 0.40211 0.86797 0.0
C1886 C 0.98333 0.40666 0.89146 0.0
C1887 C 0.97928 0.38739 0.85771 0.0
C1888 C 0.96599 0.37733 0.87171 0.0
H1889 H 0.02801 0.45212 0.89825 0.0
H1890 H 0.02306 0.43376 0.85934 0.0
H1891 H 1.00646 0.4089 0.83781 0.0
O1892 O 0.97897 0.40017 0.955 0.0
O1893 O 0.96923 0.4273 0.91226 0.0
O1894 O 0.94758 0.41998 0.88771 0.0
O1895 O 0.96698 0.40522 0.98622 0.0
O1896 O 0.94094 0.38797 0.92385 0.0
O1897 O 0.93028 0.39914 0.8971 0.0
O1898 O 0.93397 0.44101 0.91465 0.0
O1899 O 0.93016 0.40568 0.96812 0.0
O1900 O 0.93999 0.39027 0.95845 0.0
O1901 O 0.91542 0.42008 0.89839 0.0
O1902 O 0.9543 0.43797 0.93882 0.0
O1903 O 0.96287 0.42608 0.96812 0.0
C1904 C 0.96263 0.42626 0.88831 0.0
C1905 C 0.97086 0.38435 0.9936 0.0
C1906 C 0.96347 0.35786 0.9853 0.0
C1907 C 0.96738 0.35683 1.01297 0.0
C1908 C 0.97475 0.38323 0.02096 0.0
C1909 C 0.9726 0.36935 0.03082 0.0
C1910 C 0.96419 0.37138 0.97673 0.0
C1911 C 0.93118 0.38711 0.90464 0.0
C1912 C 0.9754 0.39918 0.98106 0.0
C1913 C 1.01201 0.4263 0.86836 0.0
C1914 C 1.00253 0.41215 0.85606 0.0
C1915 C 0.93168 0.39366 0.97464 0.0
C1916 C 0.91514 0.44269 0.88253 0.0
C1917 C 0.91126 0.46424 0.86924 0.0
C1918 C 0.90126 0.45502 0.84839 0.0
C1919 C 0.90501 0.43414 0.86112 0.0
C1920 C 0.9183 0.45801 0.8866 0.0
C1921 C 0.89819 0.44021 0.84442 0.0
C1922 C 0.96313 0.43846 0.95925 0.0
C1923 C 0.92167 0.43477 0.89959 0.0
H1924 H 0.96714 0.3467 0.02055 0.0
H1925 H 0.97982 0.39312 0.03436 0.0
H1926 H 0.97578 0.36851 0.0519 0.0
H1927 H 0.96054 0.37223 0.95603 0.0
H1928 H 0.89573 0.45936 0.83496 0.0
H1929 H 0.90228 0.42256 0.85706 0.0
H1930 H 0.92603 0.46491 0.90287 0.0
H1931 H 0.89043 0.43334 0.82816 0.0
Eu1932 Eu 0.62277 0.56073 0.9429 0.0
C1933 C 0.63142 0.50459 0.94999 0.0
N1934 N 0.63058 0.51154 0.92648 0.0
C1935 C 0.65068 0.50885 0.90609 0.0
C1936 C 0.64228 0.49986 0.95266 0.0
C1937 C 0.63955 0.51308 0.90422 0.0
C1938 C 0.65218 0.50237 0.93054 0.0
C1939 C 0.62089 0.49356 0.99494 0.0
C1940 C 0.62084 0.50143 0.97092 0.0
C1941 C 0.63196 0.48923 0.99797 0.0
C1942 C 0.64264 0.49238 0.97691 0.0
Eu1943 Eu 0.61141 0.51835 0.92557 0.0
N1944 N 0.61036 0.50593 0.9676 0.0
C1945 C 0.60965 0.49005 1.01499 0.0
C1946 C 0.59892 0.50188 0.9864 0.0
C1947 C 0.59852 0.49409 1.01055 0.0
H1948 H 0.63787 0.51719 0.88469 0.0
H1949 H 0.58957 0.49111 0.02562 0.0
H1950 H 0.59 0.55847 0.96032 0.0
H1951 H 0.66491 0.59817 0.86601 0.0
H1952 H 0.5901 0.50465 0.98278 0.0
H1953 H 0.60928 0.48397 0.0337 0.0
H1954 H 0.65635 0.58227 0.90764 0.0
H1955 H 0.6579 0.51033 0.88849 0.0
H1956 H 0.63222 0.48322 1.01633 0.0
H1957 H 0.65094 0.48872 0.97934 0.0
H1958 H 0.57239 0.56666 0.94216 0.0
H1959 H 0.66068 0.49891 0.9318 0.0
H1960 H 0.64735 0.60419 0.84086 0.0
N1961 N 0.60564 0.5683 0.92717 0.0
C1962 C 0.60982 0.5773 0.90434 0.0
C1963 C 0.58281 0.56962 0.9312 0.0
C1964 C 0.60018 0.58226 0.89324 0.0
C1965 C 0.59269 0.5649 0.94133 0.0
C1966 C 0.58647 0.57817 0.90683 0.0
N1967 N 0.63343 0.5777 0.90481 0.0
C1968 C 0.64821 0.58406 0.89631 0.0
C1969 C 0.62861 0.59137 0.86897 0.0
C1970 C 0.62394 0.58183 0.89247 0.0
C1971 C 0.64334 0.59683 0.85884 0.0
C1972 C 0.65327 0.59341 0.87292 0.0
H1973 H 0.57875 0.58174 0.89892 0.0
H1974 H 0.59716 0.59484 0.86 0.0
H1975 H 0.62202 0.60279 0.83868 0.0
O1976 O 0.63063 0.58384 0.95633 0.0
O1977 O 0.60272 0.5471 0.91356 0.0
O1978 O 0.60986 0.53269 0.8888 0.0
O1979 O 0.62536 0.56663 0.98725 0.0
O1980 O 0.64194 0.55746 0.92439 0.0
O1981 O 0.63041 0.53568 0.89759 0.0
O1982 O 0.58813 0.49874 0.92037 0.0
O1983 O 0.62409 0.52944 0.96889 0.0
O1984 O 0.63995 0.55442 0.95863 0.0
O1985 O 0.60626 0.49965 0.89658 0.0
O1986 O 0.59205 0.52171 0.94029 0.0
O1987 O 0.60401 0.54224 0.96943 0.0
C1988 C 0.60358 0.54144 0.88959 0.0
C1989 C 0.64668 0.59103 0.99468 0.0
C1990 C 0.67321 0.60973 0.98581 0.0
C1991 C 0.67448 0.61494 1.01334 0.0
C1992 C 0.64803 0.59633 0.0219 0.0
C1993 C 0.66206 0.60796 0.03143 0.0
C1994 C 0.65957 0.59692 0.97767 0.0
C1995 C 0.64259 0.54845 0.90518 0.0
C1996 C 0.63169 0.58111 0.98229 0.0
C1997 C 0.60454 0.59115 0.86912 0.0
C1998 C 0.61868 0.59564 0.85694 0.0
C1999 C 0.63643 0.54283 0.97503 0.0
C2000 C 0.58558 0.47477 0.9065 0.0
C2001 C 0.56629 0.44756 0.89824 0.0
C2002 C 0.57559 0.44361 0.91368 0.0
C2003 C 0.59414 0.47001 0.92194 0.0
C2004 C 0.57154 0.4634 0.89435 0.0
C2005 C 0.58924 0.45465 0.92535 0.0
C2006 C 0.59166 0.52999 0.9609 0.0
C2007 C 0.59187 0.49155 0.90251 0.0
H2008 H 0.68472 0.62484 0.02059 0.0
H2009 H 0.6382 0.59183 0.03539 0.0
H2010 H 0.66308 0.6122 0.05238 0.0
H2011 H 0.65852 0.59226 0.95706 0.0
H2012 H 0.57235 0.43181 0.91665 0.0
H2013 H 0.60484 0.47822 0.93113 0.0
H2014 H 0.56475 0.46684 0.88234 0.0
H2015 H 0.59613 0.45124 0.93711 0.0
Eu2016 Eu 0.63016 0.89401 0.76916 0.0
C2017 C 0.56409 0.83702 0.74943 0.0
N2018 N 0.57453 0.83875 0.76895 0.0
C2019 C 0.55467 0.82562 0.80233 0.0
C2020 C 0.5485 0.83006 0.75614 0.0
C2021 C 0.56994 0.83231 0.79458 0.0
C2022 C 0.54394 0.82478 0.7832 0.0
C2023 C 0.55795 0.83742 0.70082 0.0
C2024 C 0.56877 0.84075 0.72201 0.0
C2025 C 0.54259 0.83146 0.70777 0.0
C2026 C 0.53788 0.82784 0.73537 0.0
Eu2027 Eu 0.60012 0.85102 0.75366 0.0
N2028 N 0.58371 0.84648 0.71576 0.0
C2029 C 0.56281 0.83955 0.67317 0.0
C2030 C 0.58834 0.84754 0.68883 0.0
C2031 C 0.57802 0.84435 0.66715 0.0
H2032 H 0.57813 0.83252 0.80921 0.0
H2033 H 0.58178 0.84557 0.64583 0.0
H2034 H 0.65523 0.9094 0.71747 0.0
H2035 H 0.6395 0.88368 0.87756 0.0
H2036 H 0.60007 0.85116 0.68419 0.0
H2037 H 0.55484 0.83705 0.65632 0.0
H2038 H 0.62478 0.88474 0.83852 0.0
H2039 H 0.55115 0.82096 0.82294 0.0
H2040 H 0.53416 0.82907 0.69181 0.0
H2041 H 0.52589 0.82269 0.74024 0.0
H2042 H 0.68208 0.91742 0.70795 0.0
H2043 H 0.53208 0.81938 0.78915 0.0
H2044 H 0.6666 0.89154 0.87159 0.0
N2045 N 0.65587 0.90274 0.75886 0.0
C2046 C 0.66468 0.90275 0.78009 0.0
C2047 C 0.6773 0.91316 0.72824 0.0
C2048 C 0.68017 0.90747 0.77577 0.0
C2049 C 0.66202 0.90834 0.7335 0.0
C2050 C 0.68639 0.91258 0.74939 0.0
N2051 N 0.64312 0.89311 0.80969 0.0
C2052 C 0.63651 0.88827 0.83512 0.0
C2053 C 0.66704 0.89735 0.82829 0.0
C2054 C 0.65817 0.89784 0.80617 0.0
C2055 C 0.66019 0.89214 0.85415 0.0
C2056 C 0.64489 0.88766 0.85758 0.0
H2057 H 0.69823 0.9163 0.74526 0.0
H2058 H 0.70082 0.91042 0.79476 0.0
H2059 H 0.68932 0.90146 0.84065 0.0
O2060 O 0.63587 0.91398 0.79402 0.0
O2061 O 0.63645 0.87522 0.76915 0.0
O2062 O 0.61604 0.85588 0.79019 0.0
O2063 O 0.63761 0.91587 0.74897 0.0
O2064 O 0.61079 0.88563 0.79963 0.0
O2065 O 0.59525 0.85945 0.79719 0.0
O2066 O 0.6108 0.83732 0.74266 0.0
O2067 O 0.59754 0.86895 0.72906 0.0
O2068 O 0.60579 0.8886 0.7597 0.0
O2069 O 0.58688 0.8261 0.74967 0.0
O2070 O 0.62095 0.86317 0.72254 0.0
O2071 O 0.62786 0.88851 0.72296 0.0
C2072 C 0.63076 0.86342 0.78586 0.0
C2073 C 0.6503 0.93864 0.77562 0.0
C2074 C 0.65502 0.96423 0.784 0.0
C2075 C 0.67071 0.96975 0.78051 0.0
C2076 C 0.66586 0.94412 0.77212 0.0
C2077 C 0.67607 0.95969 0.77484 0.0
C2078 C 0.64503 0.94857 0.78226 0.0
C2079 C 0.59943 0.87294 0.80937 0.0
C2080 C 0.63884 0.92272 0.77251 0.0
C2081 C 0.68895 0.90694 0.79776 0.0
C2082 C 0.6824 0.90187 0.82392 0.0
C2083 C 0.5965 0.88032 0.73973 0.0
C2084 C 0.59829 0.81054 0.75313 0.0
C2085 C 0.59283 0.78392 0.74742 0.0
C2086 C 0.5974 0.78441 0.77515 0.0
C2087 C 0.60271 0.81037 0.78057 0.0
C2088 C 0.59347 0.79726 0.73636 0.0
C2089 C 0.60231 0.79744 0.79138 0.0
C2090 C 0.6286 0.87711 0.71148 0.0
C2091 C 0.59818 0.8243 0.74245 0.0
H2092 H 0.67878 0.9818 0.78131 0.0
H2093 H 0.67006 0.93646 0.76726 0.0
H2094 H 0.68812 0.96403 0.77199 0.0
H2095 H 0.63295 0.944 0.78561 0.0
H2096 H 0.59727 0.77462 0.78438 0.0
H2097 H 0.60637 0.82025 0.79373 0.0
H2098 H 0.58991 0.79721 0.71517 0.0
H2099 H 0.60576 0.79749 0.81264 0.0
Eu2100 Eu 0.13535 0.74205 0.76772 0.0
C2101 C 0.19049 0.73055 0.75429 0.0
N2102 N 0.18921 0.74013 0.77244 0.0
C2103 C 0.20135 0.73339 0.80792 0.0
C2104 C 0.19667 0.72147 0.76283 0.0
C2105 C 0.19547 0.7424 0.79835 0.0
C2106 C 0.20166 0.72265 0.79027 0.0
C2107 C 0.1903 0.72277 0.70654 0.0
C2108 C 0.18722 0.73108 0.7264 0.0
C2109 C 0.19538 0.71289 0.71531 0.0
C2110 C 0.19851 0.7122 0.7434 0.0
Eu2111 Eu 0.17811 0.75399 0.75423 0.0
N2112 N 0.1824 0.74081 0.71838 0.0
C2113 C 0.18894 0.72524 0.67836 0.0
C2114 C 0.18215 0.74412 0.69099 0.0
C2115 C 0.18519 0.73622 0.67055 0.0
H2116 H 0.19568 0.75104 0.81181 0.0
H2117 H 0.18459 0.73855 0.64884 0.0
H2118 H 0.12771 0.76177 0.7218 0.0
H2119 H 0.13455 0.74465 0.88185 0.0
H2120 H 0.17927 0.75264 0.68503 0.0
H2121 H 0.19129 0.71914 0.66249 0.0
H2122 H 0.13332 0.73285 0.83702 0.0
H2123 H 0.20583 0.73488 0.82878 0.0
H2124 H 0.19756 0.70621 0.70039 0.0
H2125 H 0.20306 0.70501 0.74968 0.0
H2126 H 0.12475 0.78446 0.7202 0.0
H2127 H 0.20646 0.71586 0.7976 0.0
H2128 H 0.13434 0.76885 0.8841 0.0
N2129 N 0.13134 0.76298 0.76522 0.0
C2130 C 0.13117 0.76968 0.78946 0.0
C2131 C 0.12671 0.78053 0.73981 0.0
C2132 C 0.12944 0.78263 0.78967 0.0
C2133 C 0.12859 0.76781 0.74068 0.0
C2134 C 0.12732 0.7881 0.76439 0.0
N2135 N 0.13423 0.75093 0.81309 0.0
C2136 C 0.13409 0.74378 0.83717 0.0
C2137 C 0.13309 0.77058 0.83955 0.0
C2138 C 0.13295 0.76366 0.81405 0.0
C2139 C 0.13417 0.76388 0.86411 0.0
C2140 C 0.13438 0.75027 0.86291 0.0
H2141 H 0.12598 0.79802 0.76367 0.0
H2142 H 0.12895 0.79984 0.81549 0.0
H2143 H 0.13217 0.78931 0.8592 0.0
O2144 O 0.1122 0.72811 0.78322 0.0
O2145 O 0.15489 0.76672 0.76766 0.0
O2146 O 0.17345 0.76528 0.79071 0.0
O2147 O 0.11617 0.73221 0.73926 0.0
O2148 O 0.1426 0.72854 0.79528 0.0
O2149 O 0.16893 0.74183 0.79833 0.0
O2150 O 0.193 0.77861 0.74613 0.0
O2151 O 0.15973 0.73375 0.72924 0.0
O2152 O 0.13979 0.72239 0.75926 0.0
O2153 O 0.20271 0.76426 0.74765 0.0
O2154 O 0.16721 0.76341 0.72181 0.0
O2155 O 0.14166 0.74578 0.72202 0.0
C2156 C 0.16579 0.77233 0.78629 0.0
C2157 C 0.09875 0.70718 0.75291 0.0
C2158 C 0.0848 0.68093 0.76993 0.0
C2159 C 0.08424 0.67592 0.74233 0.0
C2160 C 0.09774 0.70175 0.72576 0.0
C2161 C 0.0908 0.68624 0.72067 0.0
C2162 C 0.09272 0.69674 0.77489 0.0
C2163 C 0.15526 0.73106 0.80773 0.0
C2164 C 0.10669 0.7237 0.75836 0.0
C2165 C 0.13002 0.78975 0.81494 0.0
C2166 C 0.1319 0.78377 0.83981 0.0
C2167 C 0.14814 0.72133 0.73949 0.0
C2168 C 0.21996 0.79048 0.75539 0.0
C2169 C 0.24664 0.81167 0.7503 0.0
C2170 C 0.24754 0.81251 0.7795 0.0
C2171 C 0.22149 0.79201 0.78422 0.0
C2172 C 0.23266 0.8003 0.73832 0.0
C2173 C 0.23517 0.80288 0.7961 0.0
C2174 C 0.15332 0.75763 0.71066 0.0
C2175 C 0.20547 0.778 0.74346 0.0
H2176 H 0.0781 0.66404 0.73674 0.0
H2177 H 0.10241 0.70948 0.70838 0.0
H2178 H 0.09006 0.68216 0.69966 0.0
H2179 H 0.09402 0.7011 0.79575 0.0
H2180 H 0.25798 0.82058 0.78976 0.0
H2181 H 0.21213 0.78459 0.79762 0.0
H2182 H 0.2316 0.79916 0.71598 0.0
H2183 H 0.23624 0.80379 0.81845 0.0
Eu2184 Eu 0.28928 0.39888 0.76597 0.0
C2185 C 0.29428 0.46496 0.75326 0.0
N2186 N 0.28813 0.45447 0.77386 0.0
C2187 C 0.29621 0.47439 0.80772 0.0
C2188 C 0.30208 0.48066 0.75933 0.0
C2189 C 0.28842 0.45898 0.80069 0.0
C2190 C 0.30324 0.48527 0.787 0.0
C2191 C 0.29776 0.47067 0.70401 0.0
C2192 C 0.29206 0.46005 0.72588 0.0
C2193 C 0.3059 0.48626 0.71005 0.0
C2194 C 0.30806 0.49124 0.73762 0.0
Eu2195 Eu 0.2749 0.42868 0.75956 0.0
N2196 N 0.28434 0.44488 0.72061 0.0
C2197 C 0.29497 0.46529 0.67668 0.0
C2198 C 0.28103 0.43959 0.69399 0.0
C2199 C 0.28646 0.44969 0.67167 0.0
H2200 H 0.28241 0.4507 0.81674 0.0
H2201 H 0.284 0.44545 0.6506 0.0
H2202 H 0.27545 0.37461 0.71288 0.0
H2203 H 0.27622 0.38849 0.8777 0.0
H2204 H 0.27424 0.42759 0.68993 0.0
H2205 H 0.29914 0.47309 0.65933 0.0
H2206 H 0.28969 0.40352 0.83744 0.0
H2207 H 0.29659 0.47786 0.82907 0.0
H2208 H 0.31041 0.49458 0.69352 0.0
H2209 H 0.31413 0.50333 0.74193 0.0
H2210 H 0.25617 0.34784 0.70424 0.0
H2211 H 0.30911 0.49721 0.79248 0.0
H2212 H 0.25667 0.36152 0.87237 0.0
N2213 N 0.27132 0.3734 0.75619 0.0
C2214 C 0.26412 0.36433 0.77828 0.0
C2215 C 0.25818 0.35235 0.72512 0.0
C2216 C 0.2531 0.34891 0.77434 0.0
C2217 C 0.26892 0.36757 0.73001 0.0
C2218 C 0.25014 0.343 0.74736 0.0
N2219 N 0.27783 0.38568 0.80806 0.0
C2220 C 0.28117 0.39196 0.83401 0.0
C2221 C 0.25939 0.36154 0.82785 0.0
C2222 C 0.26735 0.37063 0.80484 0.0
C2223 C 0.26257 0.36811 0.85423 0.0
C2224 C 0.27356 0.38335 0.8573 0.0
H2225 H 0.24176 0.33122 0.74351 0.0
H2226 H 0.23673 0.32808 0.7946 0.0
H2227 H 0.24216 0.33913 0.84138 0.0
O2228 O 0.30431 0.3914 0.78341 0.0
O2229 O 0.26384 0.39092 0.76856 0.0
O2230 O 0.26508 0.41047 0.79287 0.0
O2231 O 0.30117 0.39123 0.73823 0.0
O2232 O 0.30135 0.41786 0.79762 0.0
O2233 O 0.28976 0.43268 0.8004 0.0
O2234 O 0.25429 0.42586 0.73807 0.0
O2235 O 0.29765 0.4364 0.73724 0.0
O2236 O 0.30844 0.42295 0.75604 0.0
O2237 O 0.25897 0.43451 0.77936 0.0
O2238 O 0.26471 0.4078 0.72841 0.0
O2239 O 0.28484 0.40393 0.72203 0.0
C2240 C 0.25765 0.39607 0.78619 0.0
C2241 C 0.31805 0.38265 0.75506 0.0
C2242 C 0.34219 0.38419 0.76471 0.0
C2243 C 0.33886 0.37286 0.74475 0.0
C2244 C 0.31485 0.37143 0.73502 0.0
C2245 C 0.32519 0.36645 0.73011 0.0
C2246 C 0.33166 0.3889 0.77022 0.0
C2247 C 0.29981 0.42872 0.80967 0.0
C2248 C 0.30765 0.38847 0.75895 0.0
C2249 C 0.24528 0.33991 0.79727 0.0
C2250 C 0.24838 0.34621 0.82392 0.0
C2251 C 0.30948 0.43461 0.74203 0.0
C2252 C 0.24617 0.44378 0.75025 0.0
C2253 C 0.2286 0.45205 0.73157 0.0
C2254 C 0.23956 0.4671 0.73798 0.0
C2255 C 0.2565 0.45904 0.7566 0.0
C2256 C 0.23194 0.44026 0.73788 0.0
C2257 C 0.25327 0.47051 0.75041 0.0
C2258 C 0.27155 0.40173 0.71377 0.0
C2259 C 0.25026 0.43184 0.75781 0.0
H2260 H 0.34694 0.36911 0.74034 0.0
H2261 H 0.30439 0.36657 0.72315 0.0
H2262 H 0.32272 0.35778 0.71466 0.0
H2263 H 0.33431 0.39779 0.78535 0.0
H2264 H 0.2374 0.47632 0.7336 0.0
H2265 H 0.2671 0.46221 0.76682 0.0
H2266 H 0.22365 0.42858 0.7331 0.0
H2267 H 0.26146 0.48218 0.7555 0.0
Eu2268 Eu 0.52413 0.92508 0.10997 0.0
C2269 C 0.5821 0.98838 0.12697 0.0
N2270 N 0.57416 0.98196 0.10335 0.0
C2271 C 0.5772 1.00582 0.0887 0.0
C2272 C 0.58754 1.00388 0.1327 0.0
C2273 C 0.57201 0.99043 0.08394 0.0
C2274 C 0.58495 0.01257 0.11324 0.0
C2275 C 0.59144 0.98556 0.17162 0.0
C2276 C 0.58416 0.97927 0.14607 0.0
C2277 C 0.59704 1.00103 0.17716 0.0
C2278 C 0.59514 1.01017 0.15774 0.0
Eu2279 Eu 0.5669 0.95644 0.09552 0.0
N2280 N 0.57832 0.96416 0.14043 0.0
C2281 C 0.59251 0.97606 0.19129 0.0
C2282 C 0.57901 0.95486 0.16012 0.0
C2283 C 0.58616 0.96064 0.18559 0.0
H2284 H 0.56655 0.98536 0.06456 0.0
H2285 H 0.58662 0.95312 0.20096 0.0
H2286 H 0.51918 0.8975 0.15507 0.0
H2287 H 0.49813 0.91972 1.00826 0.0
H2288 H 0.57389 0.94292 0.15706 0.0
H2289 H 0.59791 0.98045 0.21118 0.0
H2290 H 0.51225 0.9331 0.05039 0.0
H2291 H 0.57534 0.01249 0.07333 0.0
H2292 H 0.60264 1.00599 0.19667 0.0
H2293 H 0.59935 0.02204 0.16252 0.0
H2294 H 0.50795 0.86964 0.15523 0.0
H2295 H 0.58893 0.0245 0.11693 0.0
H2296 H 0.48791 0.89205 1.00362 0.0
N2297 N 0.5139 0.89848 0.11263 0.0
C2298 C 0.5064 0.89044 0.08965 0.0
C2299 C 0.50756 0.87535 0.13658 0.0
C2300 C 0.49962 0.87447 0.08904 0.0
C2301 C 0.51402 0.89115 0.13633 0.0
C2302 C 0.50052 0.867 0.11272 0.0
N2303 N 0.5108 0.9134 0.06876 0.0
C2304 C 0.50811 0.9211 0.04839 0.0
C2305 C 0.49634 0.88993 0.04367 0.0
C2306 C 0.50467 0.89807 0.06725 0.0
C2307 C 0.49425 0.8979 0.02205 0.0
C2308 C 0.50001 0.91353 0.02457 0.0
H2309 H 0.49543 0.85475 0.11305 0.0
H2310 H 0.48655 0.85416 0.06435 0.0
H2311 H 0.48375 0.8677 0.0246 0.0
O2312 O 0.50286 0.92619 0.11092 0.0
O2313 O 0.53456 0.92214 0.06743 0.0
O2314 O 0.56068 0.93448 0.07279 0.0
O2315 O 0.50836 0.91659 0.14531 0.0
O2316 O 0.52822 0.94788 0.09429 0.0
O2317 O 0.54893 0.95583 0.06605 0.0
O2318 O 0.59135 0.96852 0.09082 0.0
O2319 O 0.55247 0.96278 0.12252 0.0
O2320 O 0.53863 0.94103 0.14664 0.0
O2321 O 0.57727 0.96506 0.05475 0.0
O2322 O 0.56529 0.93432 0.11225 0.0
O2323 O 0.54056 0.91816 0.12842 0.0
C2324 C 0.54835 0.92504 0.05889 0.0
C2325 C 0.48179 0.90757 0.13804 0.0
C2326 C 0.45476 0.89936 0.14856 0.0
C2327 C 0.45144 0.88422 0.14603 0.0
C2328 C 0.47766 0.89222 0.13553 0.0
C2329 C 0.46273 0.88073 0.13962 0.0
C2330 C 0.47019 0.91114 0.14487 0.0
C2331 C 0.53664 0.95618 0.07354 0.0
C2332 C 0.49826 0.9195 0.13482 0.0
C2333 C 0.49173 0.86641 0.06523 0.0
C2334 C 0.49011 0.87412 0.04261 0.0
C2335 C 0.54633 0.95612 0.14603 0.0
C2336 C 0.60101 0.96629 0.04795 0.0
C2337 C 0.61926 0.95729 0.0491 0.0
C2338 C 0.62543 0.96508 0.02392 0.0
C2339 C 0.60722 0.97386 0.023 0.0
C2340 C 0.60623 0.95709 0.05957 0.0
C2341 C 0.61912 0.97289 1.01065 0.0
C2342 C 0.55485 0.92162 0.12456 0.0
C2343 C 0.59099 0.96995 0.06404 0.0
H2344 H 0.43997 0.87492 0.14918 0.0
H2345 H 0.48602 0.889 0.13073 0.0
H2346 H 0.45986 0.86897 0.13785 0.0
H2347 H 0.47309 0.9229 0.14698 0.0
H2348 H 0.63556 0.96589 1.01493 0.0
H2349 H 0.60326 0.98097 1.01367 0.0
H2350 H 0.60067 0.95065 0.07799 0.0
H2351 H 0.62409 0.97897 0.99158 0.0
Eu2352 Eu 0.10523 0.60533 0.1109 0.0
C2353 C 0.04532 0.6024 0.1368 0.0
N2354 N 0.04949 0.59785 0.11353 0.0
C2355 C 0.02596 0.57427 0.11351 0.0
C2356 C 0.0315 0.59259 0.15022 0.0
C2357 C 0.0398 0.58436 0.101 0.0
C2358 C 0.02188 0.57831 0.13845 0.0
C2359 C 0.05059 0.62202 0.17083 0.0
C2360 C 0.05483 0.617 0.14694 0.0
C2361 C 0.0372 0.612 0.18505 0.0
C2362 C 0.02766 0.59735 0.17473 0.0
Eu2363 Eu 0.07313 0.61537 0.09416 0.0
N2364 N 0.06772 0.62651 0.13265 0.0
C2365 C 0.05968 0.63713 0.17925 0.0
C2366 C 0.07586 0.64157 0.13952 0.0
C2367 C 0.07217 0.64701 0.16319 0.0
H2368 H 0.04296 0.58134 0.08164 0.0
H2369 H 0.07884 0.65888 0.16882 0.0
H2370 H 0.13217 0.63234 0.15192 0.0
H2371 H 0.11168 0.58324 1.0118 0.0
H2372 H 0.08508 0.64958 0.12667 0.0
H2373 H 0.05679 0.64142 0.19747 0.0
H2374 H 0.09819 0.58395 0.05386 0.0
H2375 H 0.01845 0.56341 0.10395 0.0
H2376 H 0.03391 0.61562 0.20367 0.0
H2377 H 1.01722 0.58986 0.18563 0.0
H2378 H 0.15899 0.65253 0.14859 0.0
H2379 H 1.01118 0.57044 0.14818 0.0
H2380 H 0.13857 0.60288 1.00452 0.0
N2381 N 0.1311 0.62461 0.11055 0.0
C2382 C 0.13912 0.62537 0.08742 0.0
C2383 C 0.1535 0.64509 0.1311 0.0
C2384 C 0.15467 0.63632 0.08507 0.0
C2385 C 0.13819 0.63384 0.1327 0.0
C2386 C 0.16174 0.64644 0.10707 0.0
N2387 N 0.11696 0.60423 0.06938 0.0
C2388 C 0.1098 0.59274 0.05058 0.0
C2389 C 0.14015 0.61464 0.04295 0.0
C2390 C 0.13195 0.6147 0.0665 0.0
C2391 C 0.13266 0.60332 0.02289 0.0
C2392 C 0.11746 0.59224 0.02687 0.0
H2393 H 0.17366 0.65503 0.10604 0.0
H2394 H 0.1747 0.64494 0.05907 0.0
H2395 H 0.162 0.62594 0.02225 0.0
O2396 O 0.10106 0.58199 0.11767 0.0
O2397 O 0.10702 0.61798 0.06752 0.0
O2398 O 0.09572 0.63246 0.07495 0.0
O2399 O 0.11927 0.60045 0.1392 0.0
O2400 O 0.08283 0.58565 0.09539 0.0
O2401 O 0.07381 0.59741 0.06688 0.0
O2402 O 0.05719 0.62279 0.08299 0.0
O2403 O 0.06816 0.59572 0.1236 0.0
O2404 O 0.08987 0.6043 0.14819 0.0
O2405 O 0.06667 0.61543 0.05063 0.0
O2406 O 0.0959 0.63541 0.10975 0.0
O2407 O 0.10617 0.62442 0.13778 0.0
C2408 C 0.10456 0.6293 0.05969 0.0
C2409 C 0.12245 0.57902 0.12981 0.0
C2410 C 0.1297 0.55919 0.13768 0.0
C2411 C 0.1424 0.56765 0.12052 0.0
C2412 C 0.13526 0.5868 0.11281 0.0
C2413 C 0.14511 0.5812 0.10832 0.0
C2414 C 0.11972 0.56512 0.14258 0.0
C2415 C 0.07397 0.58516 0.07505 0.0
C2416 C 0.11248 0.5859 0.13444 0.0
C2417 C 0.16276 0.63658 0.06125 0.0
C2418 C 0.15554 0.62574 0.04029 0.0
C2419 C 0.07481 0.59743 0.14769 0.0
C2420 C 0.06176 0.63541 0.04083 0.0
C2421 C 0.07007 0.66244 0.0434 0.0
C2422 C 0.06236 0.661 0.01817 0.0
C2423 C 0.05422 0.63417 1.01589 0.0
C2424 C 0.07056 0.64968 0.05321 0.0
C2425 C 0.05489 0.64706 1.00421 0.0
C2426 C 0.1058 0.63651 0.12888 0.0
C2427 C 0.05861 0.62178 0.05643 0.0
H2428 H 0.15046 0.56381 0.1166 0.0
H2429 H 0.13781 0.59739 0.10317 0.0
H2430 H 0.15499 0.58747 0.09527 0.0
H2431 H 0.1099 0.55894 0.15581 0.0
H2432 H 0.06136 0.6703 1.00966 0.0
H2433 H 0.0474 0.62322 1.00603 0.0
H2434 H 0.07695 0.65042 0.07169 0.0
H2435 H 0.04885 0.64607 0.9851 0.0
Eu2436 Eu 0.42507 0.50479 0.11294 0.0
C2437 C 0.42901 0.44832 0.13924 0.0
N2438 N 0.43245 0.45618 0.11502 0.0
C2439 C 0.45572 0.45566 0.11151 0.0
C2440 C 0.43927 0.44439 0.15119 0.0
C2441 C 0.44524 0.45937 0.10052 0.0
C2442 C 0.4528 0.44828 0.1371 0.0
C2443 C 0.41162 0.43645 0.17763 0.0
C2444 C 0.4153 0.44443 0.15226 0.0
C2445 C 0.42201 0.43291 0.18999 0.0
C2446 C 0.43577 0.43683 0.17678 0.0
Eu2447 Eu 0.4143 0.46202 0.09783 0.0
N2448 N 0.40543 0.44806 0.13986 0.0
C2449 C 0.39748 0.43202 0.18965 0.0
C2450 C 0.39118 0.44267 0.15051 0.0
C2451 C 0.38714 0.43492 0.17579 0.0
H2452 H 0.44736 0.4649 0.0806 0.0
H2453 H 0.37592 0.43096 0.18436 0.0
H2454 H 0.39846 0.50512 0.15452 0.0
H2455 H 0.44645 0.53285 1.0134 0.0
H2456 H 0.38263 0.44391 0.1395 0.0
H2457 H 0.39426 0.42592 0.20915 0.0
H2458 H 0.44616 0.51902 0.05573 0.0
H2459 H 0.46601 0.45847 0.10025 0.0
H2460 H 0.41942 0.42695 0.20962 0.0
H2461 H 0.4436 0.43391 0.18649 0.0
H2462 H 0.37812 0.51163 0.15146 0.0
H2463 H 0.46098 0.4455 0.14566 0.0
H2464 H 0.42651 0.53975 1.00612 0.0
N2465 N 0.40573 0.51136 0.11286 0.0
C2466 C 0.40471 0.51839 0.08963 0.0
C2467 C 0.38541 0.51343 0.13379 0.0
C2468 C 0.39367 0.5229 0.08739 0.0
C2469 C 0.39674 0.50945 0.13526 0.0
C2470 C 0.38374 0.52003 0.10964 0.0
N2471 N 0.42587 0.51746 0.07141 0.0
C2472 C 0.43728 0.52175 0.05247 0.0
C2473 C 0.41504 0.5298 0.04482 0.0
C2474 C 0.41525 0.52181 0.06853 0.0
C2475 C 0.42627 0.53358 0.02461 0.0
C2476 C 0.43753 0.52967 0.0286 0.0
H2477 H 0.37508 0.52328 0.10869 0.0
H2478 H 0.38467 0.53395 0.0613 0.0
H2479 H 0.4034 0.54002 0.02408 0.0
O2480 O 0.44848 0.52401 0.11885 0.0
O2481 O 0.41258 0.49396 0.06969 0.0
O2482 O 0.39817 0.46803 0.07591 0.0
O2483 O 0.43025 0.52371 0.14137 0.0
O2484 O 0.44417 0.50135 0.09667 0.0
O2485 O 0.43213 0.47999 0.06925 0.0
O2486 O 0.40312 0.43774 0.09048 0.0
O2487 O 0.4345 0.47708 0.12603 0.0
O2488 O 0.42644 0.49081 0.15032 0.0
O2489 O 0.41479 0.45305 0.05663 0.0
O2490 O 0.39454 0.4656 0.11142 0.0
O2491 O 0.40593 0.48673 0.13959 0.0
C2492 C 0.40153 0.48024 0.06123 0.0
C2493 C 0.45133 0.54828 0.13111 0.0
C2494 C 0.4709 0.57544 0.13855 0.0
C2495 C 0.46207 0.57943 0.12177 0.0
C2496 C 0.44318 0.55306 0.11446 0.0
C2497 C 0.44847 0.56842 0.10993 0.0
C2498 C 0.46528 0.55962 0.14349 0.0
C2499 C 0.44438 0.49273 0.07648 0.0
C2500 C 0.44473 0.53153 0.13593 0.0
C2501 C 0.39312 0.53046 0.06341 0.0
C2502 C 0.40381 0.53394 0.04222 0.0
C2503 C 0.43331 0.48261 0.14986 0.0
C2504 C 0.39242 0.4298 0.04591 0.0
C2505 C 0.36542 0.41104 0.041 0.0
C2506 C 0.36761 0.41045 1.0123 0.0
C2507 C 0.39439 0.42896 0.01731 0.0
C2508 C 0.37783 0.42117 0.05738 0.0
C2509 C 0.38198 0.4195 1.00057 0.0
C2510 C 0.39364 0.4747 0.13005 0.0
C2511 C 0.40565 0.43902 0.06393 0.0
H2512 H 0.46565 0.59125 0.1179 0.0
H2513 H 0.43252 0.54488 0.10515 0.0
H2514 H 0.44192 0.57184 0.09717 0.0
H2515 H 0.47173 0.55617 0.15647 0.0
H2516 H 0.35838 0.40265 0.99903 0.0
H2517 H 0.40553 0.43552 1.008 0.0
H2518 H 0.37617 0.42206 0.07934 0.0
H2519 H 0.38358 0.41885 0.97852 0.0
Eu2520 Eu 0.10344 0.50562 0.61401 0.0
C2521 C 0.03848 0.45342 0.59045 0.0
N2522 N 0.04765 0.45382 0.61137 0.0
C2523 C 0.02673 0.44386 0.64313 0.0
C2524 C 0.02305 0.44869 0.59549 0.0
C2525 C 0.04193 0.44865 0.63718 0.0
C2526 C 1.01727 0.44401 0.62226 0.0
C2527 C 0.03529 0.45795 0.54211 0.0
C2528 C 0.04454 0.45789 0.56393 0.0
C2529 C 0.01998 0.45341 0.54719 0.0
C2530 C 1.01388 0.44877 0.57377 0.0
Eu2531 Eu 0.07317 0.46245 0.59956 0.0
N2532 N 0.05953 0.46261 0.55966 0.0
C2533 C 0.04172 0.46273 0.51581 0.0
C2534 C 0.06574 0.46696 0.53384 0.0
C2535 C 0.05697 0.46717 0.51165 0.0
H2536 H 0.04901 0.44797 0.65315 0.0
H2537 H 0.06201 0.47079 0.49132 0.0
H2538 H 0.12597 0.52351 0.55859 0.0
H2539 H 0.12108 0.51083 0.72225 0.0
H2540 H 0.07742 0.47037 0.52996 0.0
H2541 H 0.035 0.46299 0.49857 0.0
H2542 H 0.10311 0.50563 0.68348 0.0
H2543 H 0.0223 0.43996 0.66376 0.0
H2544 H 1.01276 0.45346 0.53068 0.0
H2545 H 1.00203 0.44525 0.57732 0.0
H2546 H 0.1529 0.53421 0.54533 0.0
H2547 H 1.00549 0.4403 0.62694 0.0
H2548 H 0.14794 0.51869 0.71235 0.0
N2549 N 0.12909 0.51726 0.59918 0.0
C2550 C 0.13932 0.51879 0.61898 0.0
C2551 C 0.1492 0.52972 0.56599 0.0
C2552 C 0.15491 0.5253 0.61255 0.0
C2553 C 0.13394 0.52349 0.57347 0.0
C2554 C 0.15969 0.53035 0.58545 0.0
N2555 N 0.11955 0.50988 0.6523 0.0
C2556 C 0.1148 0.50896 0.67911 0.0
C2557 C 0.1451 0.51834 0.66778 0.0
C2558 C 0.13447 0.51526 0.64635 0.0
C2559 C 0.1401 0.51637 0.69533 0.0
C2560 C 0.12495 0.51194 0.70102 0.0
H2561 H 0.17155 0.53539 0.5797 0.0
H2562 H 0.1773 0.53211 0.62893 0.0
H2563 H 0.16873 0.52609 0.67729 0.0
O2564 O 0.09318 0.51973 0.625 0.0
O2565 O 0.10579 0.48765 0.63892 0.0
O2566 O 0.09757 0.46801 0.60832 0.0
O2567 O 0.117 0.53056 0.61727 0.0
O2568 O 0.08227 0.49375 0.6444 0.0
O2569 O 0.07585 0.46857 0.64551 0.0
O2570 O 0.06769 0.44245 0.57499 0.0
O2571 O 0.06708 0.48135 0.59785 0.0
O2572 O 0.08776 0.50063 0.57715 0.0
O2573 O 0.06577 0.44066 0.62002 0.0
O2574 O 0.09234 0.47075 0.56855 0.0
O2575 O 0.10791 0.49695 0.57039 0.0
C2576 C 0.10679 0.47624 0.62834 0.0
C2577 C 0.10599 0.54652 0.61425 0.0
C2578 C 0.11148 0.57315 0.62028 0.0
C2579 C 0.10744 0.57293 0.59227 0.0
C2580 C 0.1021 0.54697 0.58656 0.0
C2581 C 0.10277 0.56003 0.57576 0.0
C2582 C 0.11056 0.55967 0.6313 0.0
C2583 C 0.07483 0.47998 0.65614 0.0
C2584 C 0.10592 0.53263 0.62484 0.0
C2585 C 0.16533 0.5273 0.63358 0.0
C2586 C 0.16045 0.52388 0.66114 0.0
C2587 C 0.07301 0.49311 0.58104 0.0
C2588 C 0.05294 0.41789 0.59339 0.0
C2589 C 0.04771 0.39219 0.58429 0.0
C2590 C 0.03209 0.38691 0.58819 0.0
C2591 C 0.03744 0.41264 0.59728 0.0
C2592 C 0.05792 0.4078 0.58618 0.0
C2593 C 0.02702 0.39713 0.5944 0.0
C2594 C 0.10369 0.48338 0.55853 0.0
C2595 C 0.0646 0.43374 0.59657 0.0
H2596 H 0.1078 0.58282 0.58303 0.0
H2597 H 0.09864 0.53721 0.57317 0.0
H2598 H 0.09973 0.5602 0.5543 0.0
H2599 H 0.11373 0.55952 0.6527 0.0
H2600 H 0.02385 0.3749 0.5873 0.0
H2601 H 0.03345 0.42042 0.60256 0.0
H2602 H 0.06994 0.4122 0.5825 0.0
H2603 H 1.01502 0.39297 0.59755 0.0
Eu2604 Eu 0.52525 0.60288 0.61339 0.0
C2605 C 0.57176 0.5872 0.57716 0.0
N2606 N 0.57123 0.59325 0.60196 0.0
C2607 C 0.57441 0.57437 0.62593 0.0
C2608 C 0.5729 0.57393 0.57586 0.0
C2609 C 0.57315 0.58746 0.62614 0.0
C2610 C 0.57409 0.56745 0.60068 0.0
C2611 C 0.57118 0.58804 0.52702 0.0
C2612 C 0.57089 0.5942 0.5531 0.0
C2613 C 0.57177 0.57452 0.5256 0.0
C2614 C 0.57267 0.56751 0.54995 0.0
Eu2615 Eu 0.56819 0.61482 0.6011 0.0
N2616 N 0.57019 0.60722 0.55519 0.0
C2617 C 0.5712 0.59582 0.50311 0.0
C2618 C 0.5715 0.61544 0.53191 0.0
C2619 C 0.57167 0.60973 0.50559 0.0
H2620 H 0.57375 0.59297 0.64558 0.0
H2621 H 0.57239 0.61618 0.48724 0.0
H2622 H 0.51035 0.6098 0.55569 0.0
H2623 H 0.51868 0.61578 0.72047 0.0
H2624 H 0.57284 0.62661 0.53329 0.0
H2625 H 0.5714 0.59146 0.48269 0.0
H2626 H 0.52392 0.60257 0.68252 0.0
H2627 H 0.57564 0.56964 0.64521 0.0
H2628 H 0.5718 0.56954 0.50573 0.0
H2629 H 0.57329 0.55718 0.54853 0.0
H2630 H 0.50189 0.62761 0.54084 0.0
H2631 H 0.57495 0.55724 0.60057 0.0
H2632 H 0.51233 0.63576 0.70937 0.0
N2633 N 0.51562 0.61847 0.59696 0.0
C2634 C 0.51409 0.62737 0.61633 0.0
C2635 C 0.5055 0.62782 0.56204 0.0
C2636 C 0.50872 0.63731 0.60895 0.0
C2637 C 0.51055 0.61792 0.57046 0.0
C2638 C 0.50485 0.63776 0.58125 0.0
N2639 N 0.52111 0.61541 0.65068 0.0
C2640 C 0.52123 0.61135 0.67765 0.0
C2641 C 0.51357 0.6334 0.66494 0.0
C2642 C 0.51661 0.62556 0.64403 0.0
C2643 C 0.51464 0.63003 0.69272 0.0
C2644 C 0.51823 0.61876 0.69909 0.0
H2645 H 0.5007 0.64525 0.57476 0.0
H2646 H 0.50274 0.65372 0.62421 0.0
H2647 H 0.5069 0.65023 0.67325 0.0
O2648 O 0.51023 0.57937 0.62778 0.0
O2649 O 0.54339 0.62326 0.63844 0.0
O2650 O 0.56382 0.63454 0.60931 0.0
O2651 O 0.50025 0.59206 0.61209 0.0
O2652 O 0.53586 0.59269 0.64465 0.0
O2653 O 0.56118 0.61084 0.6465 0.0
O2654 O 0.59165 0.62897 0.58708 0.0
O2655 O 0.54854 0.59016 0.59967 0.0
O2656 O 0.53003 0.59184 0.57687 0.0
O2657 O 0.58695 0.62347 0.63052 0.0
O2658 O 0.56096 0.62865 0.57423 0.0
O2659 O 0.5349 0.61371 0.56873 0.0
C2660 C 0.55524 0.63561 0.62864 0.0
C2661 C 0.48398 0.56501 0.61371 0.0
C2662 C 0.45815 0.5428 0.62137 0.0
C2663 C 0.45888 0.53783 0.59446 0.0
C2664 C 0.48408 0.55951 0.58714 0.0
C2665 C 0.47162 0.54609 0.57761 0.0
C2666 C 0.47084 0.55667 0.63081 0.0
C2667 C 0.54947 0.59866 0.65688 0.0
C2668 C 0.49755 0.57937 0.62348 0.0
C2669 C 0.5067 0.64592 0.62956 0.0
C2670 C 0.50906 0.64393 0.6575 0.0
C2671 C 0.53767 0.58477 0.58097 0.0
C2672 C 0.60504 0.64872 0.61917 0.0
C2673 C 0.62331 0.67476 0.60603 0.0
C2674 C 0.61922 0.68001 0.6297 0.0
C2675 C 0.60113 0.65423 0.64275 0.0
C2676 C 0.61607 0.65905 0.60088 0.0
C2677 C 0.60819 0.66978 0.64787 0.0
C2678 C 0.54841 0.62523 0.56043 0.0
C2679 C 0.59684 0.6324 0.61233 0.0
H2680 H 0.44945 0.52747 0.58624 0.0
H2681 H 0.49385 0.56562 0.57372 0.0
H2682 H 0.47184 0.542 0.55698 0.0
H2683 H 0.47063 0.56079 0.65145 0.0
H2684 H 0.62486 0.692 0.63467 0.0
H2685 H 0.5925 0.64657 0.6571 0.0
H2686 H 0.61894 0.65484 0.58251 0.0
H2687 H 0.60516 0.67392 0.6661 0.0
Eu2688 Eu 0.42733 0.92692 0.61254 0.0
C2689 C 0.43778 0.99045 0.58748 0.0
N2690 N 0.42959 0.98153 0.60908 0.0
C2691 C 0.44113 1.00286 0.63996 0.0
C2692 C 0.4485 1.00594 0.59168 0.0
C2693 C 0.43071 0.98757 0.63483 0.0
C2694 C 0.45018 0.01206 0.61835 0.0
C2695 C 0.44447 0.99296 0.53865 0.0
C2696 C 0.43569 0.98401 0.56116 0.0
C2697 C 0.45526 1.00833 0.54289 0.0
C2698 C 0.45724 0.0148 0.5693 0.0
Eu2699 Eu 0.41276 0.95581 0.5987 0.0
N2700 N 0.42546 0.96893 0.55773 0.0
C2701 C 0.44225 0.98617 0.51253 0.0
C2702 C 0.42292 0.96243 0.53206 0.0
C2703 C 0.43134 0.97089 0.5092 0.0
H2704 H 0.4234 0.98068 0.6514 0.0
H2705 H 0.42939 0.96561 0.48897 0.0
H2706 H 0.41931 0.90319 0.55695 0.0
H2707 H 0.41727 0.91112 0.7217 0.0
H2708 H 0.41438 0.9508 0.52882 0.0
H2709 H 0.4488 0.99265 0.49477 0.0
H2710 H 0.42918 0.92833 0.68171 0.0
H2711 H 0.44213 1.00754 0.66053 0.0
H2712 H 0.46215 0.01532 0.52586 0.0
H2713 H 0.4656 0.02668 0.57219 0.0
H2714 H 0.40166 0.87644 0.54532 0.0
H2715 H 0.45829 0.02389 0.6224 0.0
H2716 H 0.3978 0.88424 0.7137 0.0
N2717 N 0.41174 0.90113 0.59885 0.0
C2718 C 0.40369 0.89128 0.61957 0.0
C2719 C 0.40192 0.88051 0.56618 0.0
C2720 C 0.39389 0.8757 0.614 0.0
C2721 C 0.4117 0.89577 0.57277 0.0
C2722 C 0.39275 0.87049 0.58675 0.0
N2723 N 0.41606 0.91145 0.65175 0.0
C2724 C 0.42059 0.91663 0.67817 0.0
C2725 C 0.39909 0.8863 0.66894 0.0
C2726 C 0.40617 0.8965 0.64679 0.0
C2727 C 0.40296 0.89174 0.69615 0.0
C2728 C 0.41393 0.90692 0.70076 0.0
H2729 H 0.38536 0.85861 0.58166 0.0
H2730 H 0.37842 0.85374 0.63191 0.0
H2731 H 0.38302 0.86302 0.68002 0.0
O2732 O 0.45084 0.93563 0.6275 0.0
O2733 O 0.40668 0.92389 0.63766 0.0
O2734 O 0.39438 0.93126 0.60749 0.0
O2735 O 0.43866 0.91323 0.61068 0.0
O2736 O 0.43686 0.94849 0.64189 0.0
O2737 O 0.4173 0.95376 0.64452 0.0
O2738 O 0.39765 0.96103 0.57543 0.0
O2739 O 0.43817 0.96318 0.59634 0.0
O2740 O 0.43834 0.94303 0.57634 0.0
O2741 O 0.39855 0.96307 0.62048 0.0
O2742 O 0.4011 0.93553 0.56959 0.0
O2743 O 0.41615 0.92428 0.5676 0.0
C2744 C 0.39393 0.92225 0.6274 0.0
C2745 C 0.46573 0.92437 0.61284 0.0
C2746 C 0.48811 0.92093 0.6201 0.0
C2747 C 0.493 0.92677 0.59324 0.0
C2748 C 0.47118 0.93017 0.58638 0.0
C2749 C 0.48464 0.93128 0.57668 0.0
C2750 C 0.47418 0.91958 0.62969 0.0
C2751 C 0.43021 0.95547 0.65431 0.0
C2752 C 0.45118 0.92318 0.62261 0.0
C2753 C 0.3861 0.8657 0.63588 0.0
C2754 C 0.38874 0.87097 0.66329 0.0
C2755 C 0.44469 0.95775 0.57994 0.0
C2756 C 0.38834 0.97602 0.59483 0.0
C2757 C 0.36824 0.98163 0.58422 0.0
C2758 C 0.3783 0.99702 0.59058 0.0
C2759 C 0.39831 0.99131 0.60112 0.0
C2760 C 0.37363 0.97138 0.58568 0.0
C2761 C 0.39328 1.00181 0.59872 0.0
C2762 C 0.40472 0.92607 0.55778 0.0
C2763 C 0.39242 0.96422 0.59749 0.0
H2764 H 0.50335 0.92778 0.58481 0.0
H2765 H 0.46496 0.9338 0.57315 0.0
H2766 H 0.48868 0.93572 0.55611 0.0
H2767 H 0.47009 0.9151 0.65023 0.0
H2768 H 0.37451 1.00527 0.59012 0.0
H2769 H 0.40981 0.99507 0.6079 0.0
H2770 H 0.36623 0.95955 0.58018 0.0
H2771 H 0.4009 0.01363 0.60375 0.0
Eu2772 Eu 0.13673 0.40055 0.27326 0.0
C2773 C 0.19242 0.46591 0.27917 0.0
N2774 N 0.18518 0.45783 0.25606 0.0
C2775 C 0.18708 0.48017 0.23532 0.0
C2776 C 0.19697 0.48145 0.28143 0.0
C2777 C 0.18308 0.46488 0.2338 0.0
C2778 C 0.1939 0.48846 0.25935 0.0
C2779 C 0.2043 0.46711 0.3236 0.0
C2780 C 0.19603 0.45884 0.3001 0.0
C2781 C 0.20848 0.48248 0.3262 0.0
C2782 C 0.20479 0.48961 0.30521 0.0
Eu2783 Eu 0.17871 0.43196 0.25588 0.0
N2784 N 0.19164 0.44388 0.29725 0.0
C2785 C 0.20829 0.45973 0.34361 0.0
C2786 C 0.19612 0.43682 0.316 0.0
C2787 C 0.20431 0.44457 0.33964 0.0
H2788 H 0.17863 0.45884 0.21456 0.0
H2789 H 0.20766 0.43888 0.35467 0.0
H2790 H 0.13947 0.37031 0.28989 0.0
H2791 H 0.10072 0.406 0.19386 0.0
H2792 H 0.19341 0.42524 0.31273 0.0
H2793 H 0.21467 0.46571 0.36192 0.0
H2794 H 0.11564 0.4128 0.23675 0.0
H2795 H 0.18514 0.48561 0.21776 0.0
H2796 H 0.21476 0.48899 0.34419 0.0
H2797 H 0.20832 0.50154 0.30732 0.0
H2798 H 0.13164 0.34469 0.27121 0.0
H2799 H 0.19718 0.50036 0.26032 0.0
H2800 H 0.09518 0.38269 0.16833 0.0
N2801 N 0.12976 0.37618 0.25659 0.0
C2802 C 0.12094 0.37147 0.23349 0.0
C2803 C 0.12867 0.35215 0.26028 0.0
C2804 C 0.11621 0.357 0.22206 0.0
C2805 C 0.13318 0.36664 0.27071 0.0
C2806 C 0.1203 0.34737 0.23565 0.0
N2807 N 0.12038 0.39457 0.23414 0.0
C2808 C 0.11415 0.40305 0.22524 0.0
C2809 C 0.10738 0.37644 0.19739 0.0
C2810 C 0.11649 0.38109 0.2215 0.0
C2811 C 0.10216 0.38584 0.18684 0.0
C2812 C 0.10532 0.39903 0.20114 0.0
H2813 H 0.11691 0.33618 0.22749 0.0
H2814 H 0.10407 0.34164 0.18821 0.0
H2815 H 0.09646 0.35871 0.16643 0.0
O2816 O 0.11331 0.38595 0.28559 0.0
O2817 O 0.1508 0.39463 0.24405 0.0
O2818 O 0.16436 0.41611 0.21903 0.0
O2819 O 0.13081 0.39446 0.31699 0.0
O2820 O 0.13965 0.4233 0.25713 0.0
O2821 O 0.16069 0.43301 0.22875 0.0
O2822 O 0.19804 0.42798 0.24948 0.0
O2823 O 0.16809 0.43389 0.29947 0.0
O2824 O 0.14258 0.42351 0.29116 0.0
O2825 O 0.1974 0.44578 0.22715 0.0
O2826 O 0.17596 0.40958 0.27146 0.0
O2827 O 0.15547 0.40124 0.30039 0.0
C2828 C 0.15608 0.40107 0.21993 0.0
C2829 C 0.10693 0.3916 0.32871 0.0
C2830 C 0.0888 0.40067 0.32819 0.0
C2831 C 0.0838 0.39428 0.35477 0.0
C2832 C 0.10185 0.38526 0.35497 0.0
C2833 C 0.09062 0.38701 0.36831 0.0
C2834 C 0.10128 0.4003 0.31659 0.0
C2835 C 0.14838 0.43295 0.23771 0.0
C2836 C 0.11628 0.38734 0.31202 0.0
C2837 C 0.10761 0.35262 0.19754 0.0
C2838 C 0.10331 0.36236 0.18512 0.0
C2839 C 0.1545 0.43212 0.30669 0.0
C2840 C 0.22212 0.44939 0.23681 0.0
C2841 C 0.24918 0.45674 0.22912 0.0
C2842 C 0.25335 0.46967 0.24565 0.0
C2843 C 0.22703 0.46243 0.25318 0.0
C2844 C 0.23333 0.44661 0.22445 0.0
C2845 C 0.24244 0.47244 0.25747 0.0
C2846 C 0.16766 0.40099 0.29207 0.0
C2847 C 0.20535 0.43921 0.23233 0.0
H2848 H 0.07412 0.39406 0.36458 0.0
H2849 H 0.10618 0.37855 0.36467 0.0
H2850 H 0.0865 0.3819 0.38845 0.0
H2851 H 0.10585 0.40569 0.29681 0.0
H2852 H 0.26522 0.47785 0.24934 0.0
H2853 H 0.21892 0.46503 0.26247 0.0
H2854 H 0.22977 0.4366 0.2117 0.0
H2855 H 0.24598 0.4825 0.27003 0.0
Eu2856 Eu 0.62981 0.74026 0.27353 0.0
C2857 C 0.56496 0.72963 0.28608 0.0
N2858 N 0.57251 0.73119 0.26186 0.0
C2859 C 0.54995 0.71068 0.24177 0.0
C2860 C 0.54967 0.71811 0.28927 0.0
C2861 C 0.56501 0.72244 0.23941 0.0
C2862 C 0.54231 0.70836 0.26693 0.0
C2863 C 0.56455 0.73918 0.33213 0.0
C2864 C 0.5723 0.74003 0.30735 0.0
C2865 C 0.54948 0.72744 0.33565 0.0
C2866 C 0.54208 0.71691 0.31432 0.0
Eu2867 Eu 0.59816 0.75108 0.2607 0.0
N2868 N 0.58706 0.75104 0.30376 0.0
C2869 C 0.57212 0.7503 0.3525 0.0
C2870 C 0.59421 0.7624 0.32283 0.0
C2871 C 0.58694 0.76207 0.34766 0.0
H2872 H 0.57052 0.72466 0.21946 0.0
H2873 H 0.59275 0.77091 0.363 0.0
H2874 H 0.66037 0.77334 0.28879 0.0
H2875 H 0.62268 0.6989 0.19276 0.0
H2876 H 0.60556 0.77163 0.31896 0.0
H2877 H 0.56654 0.75007 0.37179 0.0
H2878 H 0.61678 0.70707 0.23658 0.0
H2879 H 0.54418 0.70356 0.22405 0.0
H2880 H 0.54338 0.72654 0.35464 0.0
H2881 H 0.53037 0.70807 0.31717 0.0
H2882 H 0.68546 0.79117 0.26838 0.0
H2883 H 0.53058 0.69935 0.26859 0.0
H2884 H 0.64538 0.71666 0.16584 0.0
N2885 N 0.65373 0.75776 0.2553 0.0
C2886 C 0.6579 0.75369 0.23149 0.0
C2887 C 0.67778 0.78073 0.25769 0.0
C2888 C 0.67209 0.76344 0.21913 0.0
C2889 C 0.66358 0.77072 0.2691 0.0
C2890 C 0.682 0.77716 0.23242 0.0
N2891 N 0.63488 0.73002 0.23322 0.0
C2892 C 0.62625 0.71531 0.2245 0.0
C2893 C 0.65218 0.73514 0.19505 0.0
C2894 C 0.64804 0.73962 0.21975 0.0
C2895 C 0.64261 0.72052 0.18477 0.0
C2896 C 0.62976 0.71047 0.19986 0.0
H2897 H 0.69297 0.78497 0.22353 0.0
H2898 H 0.68671 0.76663 0.18404 0.0
H2899 H 0.66923 0.74195 0.16279 0.0
O2900 O 0.64486 0.73152 0.28303 0.0
O2901 O 0.63492 0.76038 0.24531 0.0
O2902 O 0.613 0.75301 0.22179 0.0
O2903 O 0.63652 0.73946 0.31654 0.0
O2904 O 0.60671 0.72082 0.25801 0.0
O2905 O 0.59664 0.73253 0.23148 0.0
O2906 O 0.60267 0.77454 0.25504 0.0
O2907 O 0.59824 0.73906 0.30366 0.0
O2908 O 0.60717 0.72308 0.29251 0.0
O2909 O 0.58213 0.75616 0.23891 0.0
O2910 O 0.62078 0.77053 0.2754 0.0
O2911 O 0.63046 0.7586 0.30196 0.0
C2912 C 0.62806 0.75938 0.22168 0.0
C2913 C 0.64033 0.71867 0.32505 0.0
C2914 C 0.63161 0.69156 0.32216 0.0
C2915 C 0.63924 0.69279 0.34741 0.0
C2916 C 0.64777 0.71967 0.35003 0.0
C2917 C 0.64685 0.70665 0.36155 0.0
C2918 C 0.63136 0.70447 0.31246 0.0
C2919 C 0.59688 0.72019 0.23924 0.0
C2920 C 0.64387 0.73249 0.30975 0.0
C2921 C 0.67595 0.75921 0.19404 0.0
C2922 C 0.66597 0.74515 0.18192 0.0
C2923 C 0.59923 0.72666 0.30929 0.0
C2924 C 0.59146 0.78019 0.21649 0.0
C2925 C 0.58947 0.80101 0.19322 0.0
C2926 C 0.59382 0.79693 0.16834 0.0
C2927 C 0.59597 0.77686 0.19124 0.0
C2928 C 0.5881 0.79231 0.21744 0.0
C2929 C 0.59703 0.78509 0.16743 0.0
C2930 C 0.62998 0.77087 0.2949 0.0
C2931 C 0.59024 0.77085 0.2414 0.0
H2932 H 0.64007 0.68337 0.35578 0.0
H2933 H 0.65471 0.73057 0.36003 0.0
H2934 H 0.65283 0.70748 0.38065 0.0
H2935 H 0.62514 0.7039 0.29383 0.0
H2936 H 0.59467 0.8029 0.14924 0.0
H2937 H 0.5986 0.76776 0.18989 0.0
H2938 H 0.58471 0.79507 0.23689 0.0
H2939 H 0.60039 0.78226 0.14802 0.0
Eu2940 Eu 0.28887 0.89396 0.27451 0.0
C2941 C 0.29709 0.83741 0.28194 0.0
N2942 N 0.29651 0.84446 0.25837 0.0
C2943 C 0.31653 0.8415 0.23846 0.0
C2944 C 0.30778 0.83248 0.28488 0.0
C2945 C 0.30556 0.84594 0.23632 0.0
C2946 C 0.31778 0.83491 0.26297 0.0
C2947 C 0.28622 0.82639 0.32672 0.0
C2948 C 0.28642 0.83436 0.30265 0.0
C2949 C 0.29712 0.82186 0.33002 0.0
C2950 C 0.30789 0.82491 0.30918 0.0
Eu2951 Eu 0.27761 0.85163 0.25696 0.0
N2952 N 0.27613 0.83909 0.2991 0.0
C2953 C 0.27491 0.82302 0.34657 0.0
C2954 C 0.26462 0.83516 0.3177 0.0
C2955 C 0.26398 0.82729 0.34189 0.0
H2956 H 0.30405 0.85012 0.21675 0.0
H2957 H 0.25497 0.8244 0.35679 0.0
H2958 H 0.25627 0.89136 0.29408 0.0
H2959 H 0.32882 0.93014 0.19374 0.0
H2960 H 0.25589 0.83803 0.31388 0.0
H2961 H 0.27436 0.81689 0.36531 0.0
H2962 H 0.32147 0.91506 0.23643 0.0
H2963 H 0.32383 0.84292 0.22101 0.0
H2964 H 0.29719 0.81579 0.34843 0.0
H2965 H 0.31606 0.8211 0.31182 0.0
H2966 H 0.238 0.89898 0.27715 0.0
H2967 H 0.32615 0.83129 0.26444 0.0
H2968 H 0.31063 0.93586 0.17018 0.0
N2969 N 0.27126 0.90118 0.26006 0.0
C2970 C 0.27491 0.91006 0.23713 0.0
C2971 C 0.24826 0.90205 0.26556 0.0
C2972 C 0.26489 0.91469 0.22668 0.0
C2973 C 0.25851 0.89764 0.27498 0.0
C2974 C 0.25136 0.91046 0.24109 0.0
N2975 N 0.29856 0.91059 0.23576 0.0
C2976 C 0.31305 0.91671 0.22584 0.0
C2977 C 0.29275 0.92368 0.2002 0.0
C2978 C 0.28876 0.91455 0.22421 0.0
C2979 C 0.30714 0.92887 0.18865 0.0
C2980 C 0.31743 0.92562 0.20184 0.0
H2981 H 0.24336 0.91377 0.23371 0.0
H2982 H 0.26095 0.92676 0.19363 0.0
H2983 H 0.28529 0.93454 0.17032 0.0
O2984 O 0.29867 0.91737 0.28806 0.0
O2985 O 0.26894 0.88047 0.24487 0.0
O2986 O 0.27618 0.86609 0.22021 0.0
O2987 O 0.28917 0.89946 0.31859 0.0
O2988 O 0.30819 0.89085 0.25629 0.0
O2989 O 0.29693 0.869 0.22951 0.0
O2990 O 0.2543 0.83218 0.25137 0.0
O2991 O 0.29047 0.86259 0.30019 0.0
O2992 O 0.30608 0.88774 0.29054 0.0
O2993 O 0.27248 0.83295 0.22793 0.0
O2994 O 0.2583 0.85513 0.27143 0.0
O2995 O 0.27076 0.8751 0.30127 0.0
C2996 C 0.26983 0.8748 0.22094 0.0
C2997 C 0.31154 0.9221 0.33041 0.0
C2998 C 0.33917 0.9377 0.3298 0.0
C2999 C 0.33883 0.94129 0.35793 0.0
C3000 C 0.31132 0.9258 0.3583 0.0
C3001 C 0.32499 0.93507 0.37219 0.0
C3002 C 0.32548 0.92721 0.31701 0.0
C3003 C 0.30899 0.88188 0.23713 0.0
C3004 C 0.29741 0.91401 0.31433 0.0
C3005 C 0.26862 0.92331 0.20225 0.0
C3006 C 0.28247 0.9277 0.18894 0.0
C3007 C 0.30268 0.87603 0.30658 0.0
C3008 C 0.25161 0.80815 0.23773 0.0
C3009 C 0.23206 0.78102 0.22968 0.0
C3010 C 0.24115 0.77693 0.24545 0.0
C3011 C 0.25998 0.80326 0.25345 0.0
C3012 C 0.23754 0.79689 0.22555 0.0
C3013 C 0.25484 0.78787 0.25713 0.0
C3014 C 0.25815 0.86334 0.29232 0.0
C3015 C 0.25805 0.82494 0.23366 0.0
H3016 H 0.34907 0.94945 0.3686 0.0
H3017 H 0.30063 0.9218 0.36908 0.0
H3018 H 0.32481 0.93807 0.39367 0.0
H3019 H 0.32555 0.92371 0.29579 0.0
H3020 H 0.2377 0.76509 0.24865 0.0
H3021 H 0.2707 0.8114 0.26266 0.0
H3022 H 0.2309 0.80043 0.21334 0.0
H3023 H 0.26158 0.78436 0.26913 0.0
C3024 C 0.24192 0.0894 0.07496 0.0
C3025 C 0.25295 0.1034 0.06355 0.0
C3026 C 0.23831 0.07541 0.06258 0.0
C3027 C 0.24294 0.05695 0.9976 0.0
H3028 H 0.23302 0.0236 0.04795 0.0
C3029 C 0.23506 0.99832 0.95836 0.0
C3030 C 0.22462 0.98484 0.97215 0.0
C3031 C 0.23867 0.01281 0.96866 0.0
C3032 C 0.23551 0.0326 0.0333 0.0
H3033 H 0.26851 0.11328 0.02917 0.0
H3034 H 0.26233 0.08893 1.0075 0.0
H3035 H 0.23855 0.04809 0.06617 0.0
H3036 H 0.2106 0.97657 1.00875 0.0
H3037 H 0.21607 1.00132 0.02586 0.0
H3038 H 0.23991 0.04136 0.96469 0.0
C3039 C 0.25628 0.08875 0.0261 0.0
C3040 C 0.23873 0.04687 0.04391 0.0
C3041 C 0.25984 0.10284 0.03851 0.0
C3042 C 0.21822 0.98648 0.99691 0.0
C3043 C 0.22169 1.0009 1.00709 0.0
C3044 C 0.23968 0.04261 0.98694 0.0
C3045 C 0.24565 0.07469 0.03823 0.0
C3046 C 0.24243 0.05938 0.02636 0.0
C3047 C 0.232 0.01446 0.99324 0.0
C3048 C 0.2358 0.03006 1.00454 0.0
H3049 H 0.23621 0.08923 0.09405 0.0
H3050 H 0.22974 0.0651 0.07241 0.0
H3051 H 0.24556 0.06605 0.9831 0.0
H3052 H 0.24046 0.99772 0.93941 0.0
H3053 H 0.24689 0.02274 0.9574 0.0
C3054 C 0.03897 0.22926 0.96965 0.0
C3055 C 0.04447 0.245 0.97118 0.0
C3056 C 0.02445 0.21861 0.9798 0.0
C3057 C 0.99354 0.21487 0.0278 0.0
H3058 H 0.96881 0.17643 0.99034 0.0
C3059 C 0.93164 0.17385 0.0648 0.0
C3060 C 0.92542 0.15797 0.06312 0.0
C3061 C 0.9456 0.18402 0.05226 0.0
C3062 C 0.97555 0.18698 1.00143 0.0
H3063 H 0.03847 0.26172 0.98395 0.0
H3064 H 1.01322 0.24332 1.00172 0.0
H3065 H 0.99373 0.19471 0.97169 0.0
H3066 H 0.92929 0.14055 0.0457 0.0
H3067 H 0.95373 0.15822 0.02395 0.0
H3068 H 0.97567 0.20717 0.05782 0.0
C3069 C 0.02024 0.2391 0.99305 0.0
C3070 C 0.98998 0.19759 0.99059 0.0
C3071 C 0.03475 0.24973 0.98264 0.0
C3072 C 0.93354 0.15264 0.04738 0.0
C3073 C 0.94767 0.16289 0.03489 0.0
C3074 C 0.97921 0.20426 0.03873 0.0
C3075 C 1.01479 0.22329 0.99195 0.0
C3076 C 0.99926 0.21181 1.00348 0.0
C3077 C 0.95417 0.17884 0.03754 0.0
C3078 C 0.9698 0.19009 0.02573 0.0
H3079 H 0.04574 0.22509 0.95994 0.0
H3080 H 0.02088 0.20665 0.9784 0.0
H3081 H 1.0003 0.22545 0.03886 0.0
H3082 H 0.92574 0.17851 0.0763 0.0
H3083 H 0.94967 0.19605 0.05429 0.0
C3084 C 0.79996 0.81396 0.96815 0.0
C3085 C 0.78428 0.80418 0.97226 0.0
C3086 C 0.81084 0.81038 0.97844 0.0
C3087 C 0.8159 0.78562 0.03051 0.0
H3088 H 0.8526 0.79619 0.98918 0.0
C3089 C 0.85693 0.76474 0.06781 0.0
C3090 C 0.87278 0.77389 0.06415 0.0
C3091 C 0.8466 0.76837 0.05534 0.0
C3092 C 0.84255 0.79328 1.00132 0.0
H3093 H 0.76783 0.7826 0.98982 0.0
H3094 H 0.7866 0.77626 1.00777 0.0
H3095 H 0.83402 0.8025 0.97057 0.0
H3096 H 0.88993 0.79401 0.04326 0.0
H3097 H 0.87196 0.80047 0.02155 0.0
H3098 H 0.8244 0.77665 0.06145 0.0
C3099 C 0.79065 0.78693 0.99699 0.0
C3100 C 0.83177 0.79691 0.99052 0.0
C3101 C 0.77979 0.7905 0.98649 0.0
C3102 C 0.87786 0.78658 0.04651 0.0
C3103 C 0.86745 0.7903 0.03406 0.0
C3104 C 0.82668 0.78207 0.04136 0.0
C3105 C 0.80643 0.79683 0.99327 0.0
C3106 C 0.81816 0.79307 1.00482 0.0
C3107 C 0.85157 0.78142 0.03869 0.0
C3108 C 0.84021 0.78568 0.02695 0.0
H3109 H 0.80387 0.82425 0.95634 0.0
H3110 H 0.82275 0.8184 0.97498 0.0
H3111 H 0.80584 0.7827 0.04266 0.0
H3112 H 0.85243 0.75474 0.08082 0.0
H3113 H 0.83459 0.76083 0.05897 0.0
C3114 C 1.00509 0.22961 0.57416 0.0
C3115 C 0.99188 0.21931 0.55953 0.0
C3116 C 0.01969 0.233 0.5652 0.0
C3117 C 0.04124 0.22915 0.50414 0.0
H3118 H 0.07189 0.23766 0.56005 0.0
C3119 C 0.0989 0.23063 0.48015 0.0
C3120 C 0.11193 0.24022 0.49591 0.0
C3121 C 0.08471 0.22953 0.48567 0.0
C3122 C 0.06363 0.23555 0.54395 0.0
H3123 H 0.98413 0.20519 0.52277 0.0
H3124 H 1.00931 0.21057 0.50774 0.0
H3125 H 0.04682 0.23271 0.57392 0.0
H3126 H 0.11997 0.25621 0.52994 0.0
H3127 H 0.09556 0.25478 0.53901 0.0
H3128 H 0.05809 0.23171 0.47423 0.0
C3129 C 1.0085 0.21619 0.52619 0.0
C3130 C 0.04906 0.23269 0.552 0.0
C3131 C 0.99389 0.21289 0.53508 0.0
C3132 C 0.11038 0.24909 0.51673 0.0
C3133 C 0.0962 0.24797 0.52234 0.0
C3134 C 0.05582 0.23195 0.4961 0.0
C3135 C 0.02174 0.22621 0.54122 0.0
C3136 C 0.0375 0.22942 0.53231 0.0
C3137 C 0.08294 0.23782 0.5075 0.0
C3138 C 0.06734 0.23523 0.51584 0.0
H3139 H 1.00419 0.23492 0.593 0.0
H3140 H 0.02939 0.24106 0.57724 0.0
H3141 H 0.03296 0.22697 0.48805 0.0
H3142 H 0.09947 0.22317 0.46472 0.0
H3143 H 0.07492 0.22146 0.47382 0.0
C3144 C 0.79919 0.87307 0.47817 0.0
C3145 C 0.79009 0.87706 0.4942 0.0
C3146 C 0.80012 0.85993 0.48411 0.0
C3147 C 0.79441 0.8334 0.54346 0.0
H3148 H 0.80217 0.81054 0.48793 0.0
C3149 C 0.79966 0.78048 0.5745 0.0
C3150 C 0.80991 0.7774 0.56004 0.0
C3151 C 0.79636 0.79173 0.56535 0.0
C3152 C 0.8002 0.81685 0.50391 0.0
H3153 H 0.77482 0.87004 0.52924 0.0
H3154 H 0.77591 0.84696 0.53903 0.0
H3155 H 0.79762 0.831 0.47373 0.0
H3156 H 0.82412 0.78361 0.52347 0.0
H3157 H 0.81873 0.80334 0.50787 0.0
H3158 H 0.79721 0.8195 0.57366 0.0
C3159 C 0.78248 0.85401 0.52181 0.0
C3160 C 0.79753 0.82869 0.49566 0.0
C3161 C 0.78154 0.86713 0.51579 0.0
C3162 C 0.81633 0.78569 0.5355 0.0
C3163 C 0.81309 0.79701 0.52636 0.0
C3164 C 0.79712 0.82162 0.5517 0.0
C3165 C 0.79215 0.85035 0.50665 0.0
C3166 C 0.79458 0.83725 0.51526 0.0
C3167 C 0.80316 0.80042 0.54127 0.0
C3168 C 0.80009 0.81305 0.53215 0.0
H3169 H 0.80643 0.88071 0.46212 0.0
H3170 H 0.80784 0.85781 0.47197 0.0
H3171 H 0.79256 0.83977 0.55948 0.0
H3172 H 0.79435 0.77439 0.59342 0.0
H3173 H 0.78839 0.79355 0.57731 0.0
C3174 C 0.16342 0.92051 0.51715 0.0
C3175 C 0.15348 0.91915 0.49551 0.0
C3176 C 0.17662 0.9345 0.52308 0.0
C3177 C 0.2022 0.97458 0.49655 0.0
H3178 H 0.21122 0.98385 0.57455 0.0
C3179 C 0.24535 0.03638 0.53531 0.0
C3180 C 0.2535 0.03843 0.56014 0.0
C3181 C 0.234 0.0218 0.52645 0.0
C3182 C 0.20915 0.98152 0.55259 0.0
H3183 H 0.14991 0.93178 0.46322 0.0
H3184 H 0.17295 0.95598 0.47292 0.0
H3185 H 0.19087 0.95894 0.56053 0.0
H3186 H 0.2563 0.02621 0.59432 0.0
H3187 H 0.23709 1.001 0.57867 0.0
H3188 H 0.22049 0.99719 0.48862 0.0
C3189 C 0.17077 0.94618 0.48517 0.0
C3190 C 0.19732 0.96704 0.54446 0.0
C3191 C 0.15754 0.93217 0.47932 0.0
C3192 C 0.25028 0.02526 0.5752 0.0
C3193 C 0.23901 1.01068 0.56629 0.0
C3194 C 0.21409 0.98906 0.50469 0.0
C3195 C 0.18035 0.94778 0.50776 0.0
C3196 C 0.19353 0.96324 0.51626 0.0
C3197 C 0.23044 1.00861 0.5419 0.0
C3198 C 0.21782 0.9929 0.53293 0.0
H3199 H 0.16046 0.91093 0.53068 0.0
H3200 H 0.18367 0.93499 0.54033 0.0
H3201 H 0.19993 0.97224 0.47463 0.0
H3202 H 0.24766 0.04609 0.52265 0.0
H3203 H 0.2278 0.02099 0.50768 0.0
C3204 C 0.81702 0.03621 0.03827 0.0
C3205 C 0.81067 0.03816 0.06285 0.0
C3206 C 0.81348 0.02165 0.02872 0.0
C3207 C 0.78431 0.98002 0.0354 0.0
H3208 H 0.81481 0.97387 0.99877 0.0
C3209 C 0.76808 0.92429 0.97409 0.0
C3210 C 0.77806 0.91838 0.97308 0.0
C3211 C 0.77225 0.93832 0.98682 0.0
C3212 C 0.80612 0.97525 1.00913 0.0
H3213 H 0.79491 0.0257 0.09597 0.0
H3214 H 0.78861 1.00049 0.07938 0.0
H3215 H 0.82157 0.99899 1.01684 0.0
H3216 H 0.80044 0.92301 0.98564 0.0
H3217 H 0.80776 0.94752 1.00808 0.0
H3218 H 0.76888 0.95634 0.02786 0.0
C3219 C 0.79653 1.01027 0.0674 0.0
C3220 C 0.80998 0.98984 0.01929 0.0
C3221 C 0.80022 0.02487 0.07708 0.0
C3222 C 0.79234 0.92699 0.98609 0.0
C3223 C 0.79661 0.94122 0.9987 0.0
C3224 C 0.78044 0.9655 0.02509 0.0
C3225 C 0.80316 1.00832 0.04308 0.0
C3226 C 0.79914 0.99257 0.03255 0.0
C3227 C 0.78667 0.94725 0.9991 0.0
C3228 C 0.7912 0.96278 1.01153 0.0
H3229 H 0.82456 0.04597 0.02602 0.0
H3230 H 0.81864 0.02085 1.00961 0.0
H3231 H 0.7755 0.98144 0.04516 0.0
H3232 H 0.75698 0.91811 0.96445 0.0
H3233 H 0.76422 0.94239 0.98617 0.0
C3234 C 0.10153 0.84998 0.9611 0.0
C3235 C 0.10948 0.86561 0.96787 0.0
C3236 C 0.08765 0.83975 0.97381 0.0
C3237 C 0.06185 0.83354 0.0345 0.0
H3238 H 0.03144 0.80289 0.98627 0.0
C3239 C 1.00457 0.78215 0.07691 0.0
C3240 C 0.99123 0.77704 0.06094 0.0
C3241 C 0.01895 0.79328 0.06671 0.0
C3242 C 0.03966 0.81138 1.0002 0.0
H3243 H 0.10885 0.88225 0.99511 0.0
H3244 H 0.08469 0.86431 0.01774 0.0
H3245 H 0.056 0.82152 0.96748 0.0
H3246 H 0.98306 0.77943 0.02095 0.0
H3247 H 1.00774 0.79883 1.00341 0.0
H3248 H 0.04534 0.82332 0.06724 0.0
C3249 C 0.08927 0.86003 1.00215 0.0
C3250 C 0.05398 0.82208 0.98938 0.0
C3251 C 0.10325 0.87039 0.98918 0.0
C3252 C 0.99288 0.78327 0.03423 0.0
C3253 C 1.00722 0.79433 0.02397 0.0
C3254 C 0.04751 0.8227 0.04544 0.0
C3255 C 0.081 0.84454 0.9942 0.0
C3256 C 0.06545 0.83337 1.00624 0.0
C3257 C 0.0206 0.79961 0.03996 0.0
C3258 C 0.03609 0.81136 0.02849 0.0
H3259 H 0.10596 0.84557 0.94545 0.0
H3260 H 0.08208 0.82795 0.96747 0.0
H3261 H 0.07023 0.84191 0.04839 0.0
H3262 H 1.00389 0.77764 0.09754 0.0
H3263 H 0.02884 0.79674 0.07972 0.0
C3264 C 0.25116 0.23048 0.07673 0.0
C3265 C 0.25523 0.22108 0.06178 0.0
C3266 C 0.23985 0.23361 0.06678 0.0
C3267 C 0.21788 0.2316 1.0014 0.0
H3268 H 0.19186 0.23797 0.05177 0.0
C3269 C 0.16708 0.23695 0.95835 0.0
C3270 C 0.16302 0.24696 0.97097 0.0
C3271 C 0.1775 0.2334 0.97079 0.0
C3272 C 0.19907 0.23638 0.03723 0.0
H3273 H 0.25069 0.20828 0.02377 0.0
H3274 H 0.23084 0.21301 1.00712 0.0
H3275 H 0.21136 0.23292 0.07017 0.0
H3276 H 0.16677 0.26072 1.00755 0.0
H3277 H 0.18503 0.25467 0.02931 0.0
H3278 H 0.20577 0.23511 0.96851 0.0
C3279 C 0.23639 0.2182 0.0265 0.0
C3280 C 0.2104 0.23347 0.0479 0.0
C3281 C 0.24771 0.21517 0.03638 0.0
C3282 C 0.1694 0.25284 0.99722 0.0
C3283 C 0.17999 0.24936 1.00969 0.0
C3284 C 0.2066 0.23449 0.99079 0.0
C3285 C 0.23216 0.22752 0.04139 0.0
C3286 C 0.22004 0.23092 0.03021 0.0
C3287 C 0.18456 0.23982 0.99641 0.0
C3288 C 0.19683 0.23686 1.00838 0.0
H3289 H 0.25662 0.23533 0.09637 0.0
H3290 H 0.23729 0.241 0.07897 0.0
H3291 H 0.22512 0.23014 0.98673 0.0
H3292 H 0.16239 0.23204 0.93828 0.0
H3293 H 0.18012 0.22565 0.95997 0.0
C3294 C 0.03167 0.7935 0.45967 0.0
C3295 C 0.04493 0.80388 0.47412 0.0
C3296 C 1.01708 0.79012 0.46874 0.0
C3297 C 0.99567 0.79419 0.52997 0.0
H3298 H 0.9649 0.78577 0.4744 0.0
C3299 C 0.93821 0.79297 0.55529 0.0
C3300 C 0.9251 0.78359 0.53953 0.0
C3301 C 0.95235 0.79399 0.54938 0.0
C3302 C 0.97318 0.78785 0.49043 0.0
H3303 H 0.05276 0.8182 0.51061 0.0
H3304 H 0.0276 0.81269 0.52602 0.0
H3305 H 0.98986 0.79046 0.46028 0.0
H3306 H 0.91691 0.76795 0.50497 0.0
H3307 H 0.94118 0.76921 0.49527 0.0
H3308 H 0.97898 0.79182 0.56007 0.0
C3309 C 0.02836 0.80701 0.50762 0.0
C3310 C 0.9877 0.79057 0.48223 0.0
C3311 C 0.04295 0.81032 0.49859 0.0
C3312 C 0.92655 0.77489 0.51823 0.0
C3313 C 0.94067 0.77592 0.51224 0.0
C3314 C 0.98115 0.79152 0.53817 0.0
C3315 C 1.01506 0.79696 0.49272 0.0
C3316 C 0.99932 0.79382 0.50178 0.0
C3317 C 0.954 0.78584 0.52714 0.0
C3318 C 0.96956 0.78829 0.51858 0.0
H3319 H 0.03255 0.78819 0.44081 0.0
H3320 H 1.00734 0.78207 0.45678 0.0
H3321 H 1.00399 0.79636 0.54598 0.0
H3322 H 0.93776 0.80033 0.57108 0.0
H3323 H 0.96218 0.8019 0.56132 0.0
C3324 C 0.24741 0.15144 0.52263 0.0
C3325 C 0.24171 0.14531 0.54907 0.0
C3326 C 0.24712 0.16449 0.51288 0.0
C3327 C 0.24072 0.19667 0.53733 0.0
H3328 H 0.23295 0.1998 0.4597 0.0
C3329 C 0.22197 0.23954 0.49879 0.0
C3330 C 0.22688 0.24651 0.47267 0.0
C3331 C 0.22486 0.22797 0.50764 0.0
C3332 C 0.23527 0.19927 0.48146 0.0
H3333 H 0.23193 0.14894 0.58623 0.0
H3334 H 0.23112 0.17095 0.56949 0.0
H3335 H 0.23647 0.1789 0.47546 0.0
H3336 H 0.23912 0.24672 0.43574 0.0
H3337 H 0.24428 0.22676 0.45113 0.0
H3338 H 0.2393 0.21686 0.54343 0.0
C3339 C 0.23601 0.166 0.55603 0.0
C3340 C 0.23735 0.18717 0.49058 0.0
C3341 C 0.23635 0.15311 0.56569 0.0
C3342 C 0.23512 0.24171 0.45599 0.0
C3343 C 0.23795 0.23006 0.46476 0.0
C3344 C 0.23854 0.20865 0.52826 0.0
C3345 C 0.24119 0.17194 0.52928 0.0
C3346 C 0.23995 0.18549 0.51883 0.0
C3347 C 0.23281 0.22287 0.49074 0.0
C3348 C 0.23563 0.21017 0.50018 0.0
H3349 H 0.25155 0.14581 0.50903 0.0
H3350 H 0.25147 0.16866 0.49233 0.0
H3351 H 0.2431 0.19628 0.55909 0.0
H3352 H 0.21566 0.24291 0.51237 0.0
H3353 H 0.22053 0.22278 0.52764 0.0
C3354 C 0.87476 0.08859 0.5698 0.0
C3355 C 0.88404 0.10109 0.55264 0.0
C3356 C 0.86209 0.07543 0.55936 0.0
C3357 C 0.84404 0.05434 0.49254 0.0
H3358 H 0.81126 0.02854 0.54234 0.0
C3359 C 0.78916 0.99849 0.45552 0.0
C3360 C 0.78372 0.98559 0.47273 0.0
C3361 C 0.80088 0.01288 0.46441 0.0
C3362 C 0.82034 0.03549 0.52808 0.0
H3363 H 0.88645 0.10936 0.51057 0.0
H3364 H 0.86397 0.0866 0.49236 0.0
H3365 H 0.83158 0.05294 0.55854 0.0
H3366 H 0.78631 0.97808 0.51329 0.0
H3367 H 0.80638 1.00307 0.52902 0.0
H3368 H 0.83237 0.03682 0.46189 0.0
C3369 C 0.86679 0.08685 0.51407 0.0
C3370 C 0.8322 0.04963 0.53747 0.0
C3371 C 0.87963 0.10011 0.52462 0.0
C3372 C 0.79013 0.98768 0.49941 0.0
C3373 C 0.80168 1.0021 0.50846 0.0
C3374 C 0.83203 0.04023 0.48303 0.0
C3375 C 0.85785 0.07409 0.53118 0.0
C3376 C 0.84449 0.05933 0.52011 0.0
C3377 C 0.8074 0.01498 0.49107 0.0
C3378 C 0.82004 0.03042 0.50075 0.0
H3379 H 0.87756 0.08879 0.59153 0.0
H3380 H 0.85596 0.06607 0.57353 0.0
H3381 H 0.85318 0.06114 0.47832 0.0
H3382 H 0.78462 0.99741 0.43479 0.0
H3383 H 0.80476 0.02241 0.45038 0.0
C3384 C 0.91972 0.42862 0.39718 0.0
C3385 C 0.914 0.43616 0.38087 0.0
C3386 C 0.9186 0.4148 0.38814 0.0
C3387 C 0.90939 0.38918 0.32475 0.0
H3388 H 0.90158 0.35803 0.37893 0.0
C3389 C 0.90191 0.33051 0.2902 0.0
C3390 C 0.89208 0.3173 0.30523 0.0
C3391 C 0.90566 0.34511 0.29985 0.0
C3392 C 0.90359 0.36646 0.3633 0.0
H3393 H 0.90283 0.43495 0.34198 0.0
H3394 H 0.90094 0.41133 0.32633 0.0
H3395 H 0.90632 0.3829 0.39427 0.0
H3396 H 0.87929 0.30961 0.3433 0.0
H3397 H 0.88494 0.33465 0.35938 0.0
H3398 H 0.90611 0.37269 0.29373 0.0
C3399 C 0.90655 0.416 0.34592 0.0
C3400 C 0.90658 0.38098 0.37225 0.0
C3401 C 0.90764 0.42969 0.35493 0.0
C3402 C 0.88642 0.31932 0.33059 0.0
C3403 C 0.89 0.33389 0.34013 0.0
C3404 C 0.90635 0.37469 0.31582 0.0
C3405 C 0.91173 0.40804 0.36247 0.0
C3406 C 0.90943 0.39265 0.35315 0.0
C3407 C 0.89965 0.34716 0.32492 0.0
C3408 C 0.90328 0.36293 0.33482 0.0
H3409 H 0.92439 0.43301 0.41751 0.0
H3410 H 0.92295 0.4093 0.40157 0.0
H3411 H 0.91174 0.3977 0.3091 0.0
H3412 H 0.90672 0.32961 0.27073 0.0
H3413 H 0.91344 0.35481 0.28758 0.0
C3414 C 0.70738 0.56319 0.30429 0.0
C3415 C 0.71167 0.57863 0.30222 0.0
C3416 C 0.69284 0.5522 0.31367 0.0
C3417 C 0.65304 0.54523 0.32647 0.0
H3418 H 0.64909 0.5111 0.36895 0.0
C3419 C 0.59706 0.50313 0.38578 0.0
C3420 C 0.59333 0.4879 0.38955 0.0
C3421 C 0.61066 0.51373 0.37254 0.0
C3422 C 0.64982 0.52038 0.35676 0.0
H3423 H 0.7033 0.59426 0.30705 0.0
H3424 H 0.67806 0.57539 0.3239 0.0
H3425 H 0.67395 0.53031 0.35231 0.0
H3426 H 0.60126 0.47204 0.38209 0.0
H3427 H 0.62468 0.49025 0.35825 0.0
H3428 H 0.62887 0.53533 0.33132 0.0
C3429 C 0.68598 0.57163 0.31837 0.0
C3430 C 0.66425 0.53154 0.34712 0.0
C3431 C 0.70059 0.58259 0.30886 0.0
C3432 C 0.60346 0.48351 0.37881 0.0
C3433 C 0.61712 0.49412 0.36563 0.0
C3434 C 0.63859 0.53407 0.33621 0.0
C3435 C 0.68183 0.55617 0.32121 0.0
C3436 C 0.66621 0.54422 0.33172 0.0
C3437 C 0.62122 0.50957 0.36289 0.0
C3438 C 0.63666 0.52138 0.35156 0.0
H3439 H 0.71501 0.5594 0.29762 0.0
H3440 H 0.69018 0.54048 0.31436 0.0
H3441 H 0.65379 0.55456 0.31441 0.0
H3442 H 0.58984 0.50709 0.39465 0.0
H3443 H 0.61327 0.52543 0.37135 0.0
C3444 C 0.45622 0.12939 0.29039 0.0
C3445 C 0.45211 0.13883 0.30509 0.0
C3446 C 0.46727 0.12606 0.30084 0.0
C3447 C 0.48822 0.12741 0.36699 0.0
H3448 H 0.51437 0.12068 0.31753 0.0
C3449 C 0.53809 0.121 0.41133 0.0
C3450 C 0.54184 0.11069 0.39903 0.0
C3451 C 0.52792 0.12479 0.39862 0.0
C3452 C 0.50711 0.12236 0.3318 0.0
H3453 H 0.45632 0.15155 0.34313 0.0
H3454 H 0.47581 0.14648 0.36068 0.0
H3455 H 0.49544 0.12635 0.29846 0.0
H3456 H 0.53787 0.09668 0.36272 0.0
H3457 H 0.52005 0.10317 0.34048 0.0
H3458 H 0.49976 0.1234 0.40029 0.0
C3459 C 0.47045 0.14141 0.34111 0.0
C3460 C 0.49612 0.12564 0.32075 0.0
C3461 C 0.45936 0.14463 0.33073 0.0
C3462 C 0.53545 0.10476 0.37282 0.0
C3463 C 0.52513 0.10849 0.36007 0.0
C3464 C 0.49918 0.12417 0.37799 0.0
C3465 C 0.47466 0.132 0.32648 0.0
C3466 C 0.48646 0.12831 0.33812 0.0
C3467 C 0.52088 0.11835 0.37303 0.0
C3468 C 0.50896 0.12165 0.36071 0.0
H3469 H 0.45093 0.12459 0.27061 0.0
H3470 H 0.46982 0.11859 0.28886 0.0
H3471 H 0.48093 0.12895 0.38139 0.0
H3472 H 0.54285 0.126 0.43131 0.0
H3473 H 0.52552 0.13277 0.40916 0.0
C3474 C 0.76026 0.56153 0.799 0.0
C3475 C 0.77345 0.5669 0.81551 0.0
C3476 C 0.74707 0.56119 0.80883 0.0
C3477 C 0.72757 0.56266 0.87462 0.0
H3478 H 0.69932 0.56412 0.82229 0.0
C3479 C 0.67127 0.56094 0.90999 0.0
C3480 C 0.658 0.55221 0.89411 0.0
C3481 C 0.68562 0.56368 0.90084 0.0
C3482 C 0.70695 0.56352 0.83729 0.0
H3483 H 0.78293 0.57683 0.85546 0.0
H3484 H 0.76007 0.57679 0.87243 0.0
H3485 H 0.72371 0.56807 0.80615 0.0
H3486 H 0.64986 0.54 0.85537 0.0
H3487 H 0.67475 0.54475 0.83936 0.0
H3488 H 0.71073 0.55835 0.90582 0.0
C3489 C 0.75982 0.5724 0.85187 0.0
C3490 C 0.72109 0.56577 0.82796 0.0
C3491 C 0.77312 0.57266 0.84197 0.0
C3492 C 0.6597 0.54665 0.86836 0.0
C3493 C 0.67408 0.54949 0.85908 0.0
C3494 C 0.71344 0.56056 0.884 0.0
C3495 C 0.7464 0.56642 0.83561 0.0
C3496 C 0.73166 0.56515 0.8463 0.0
C3497 C 0.68733 0.55796 0.87523 0.0
C3498 C 0.70276 0.56075 0.86545 0.0
H3499 H 0.75996 0.55712 0.77841 0.0
H3500 H 0.73717 0.55628 0.79548 0.0
H3501 H 0.73509 0.56189 0.88961 0.0
H3502 H 0.67054 0.56545 0.92994 0.0
H3503 H 0.69544 0.57041 0.91384 0.0
C3504 C 0.47729 0.12129 0.91213 0.0
C3505 C 0.48068 0.11303 0.89273 0.0
C3506 C 0.4749 0.13324 0.90373 0.0
C3507 C 0.46193 0.14746 0.8454 0.0
H3508 H 0.48226 0.18628 0.88345 0.0
C3509 C 0.44229 0.1928 0.83725 0.0
C3510 C 0.45338 0.20832 0.83574 0.0
C3511 C 0.44634 0.18153 0.84137 0.0
C3512 C 0.47651 0.17556 0.87242 0.0
H3513 H 0.48403 0.1109 0.84903 0.0
H3514 H 0.47907 0.13125 0.83415 0.0
H3515 H 0.48779 0.16618 0.89639 0.0
H3516 H 0.47758 0.224 0.83766 0.0
H3517 H 0.48471 0.20437 0.84512 0.0
H3518 H 0.45027 0.15664 0.82206 0.0
C3519 C 0.47855 0.12864 0.85603 0.0
C3520 C 0.47962 0.16395 0.88002 0.0
C3521 C 0.48143 0.11698 0.86454 0.0
C3522 C 0.46873 0.21218 0.83813 0.0
C3523 C 0.4728 0.20089 0.84279 0.0
C3524 C 0.45855 0.15895 0.83824 0.0
C3525 C 0.47536 0.13707 0.87552 0.0
C3526 C 0.47237 0.14967 0.86669 0.0
C3527 C 0.46165 0.18535 0.84482 0.0
C3528 C 0.46577 0.17323 0.85163 0.0
H3529 H 0.47676 0.11871 0.93403 0.0
H3530 H 0.47243 0.13935 0.9194 0.0
H3531 H 0.45604 0.13665 0.83471 0.0
H3532 H 0.43035 0.1894 0.83608 0.0
H3533 H 0.43736 0.1698 0.84306 0.0
C3534 C 0.82559 0.25621 0.84153 0.0
C3535 C 0.81955 0.25571 0.81493 0.0
C3536 C 0.83844 0.26966 0.85153 0.0
C3537 C 0.85903 0.31189 0.83957 0.0
H3538 H 0.89133 0.31309 0.88418 0.0
C3539 C 0.91251 0.36994 0.86764 0.0
C3540 C 0.91979 0.37164 0.89334 0.0
C3541 C 0.90093 0.35559 0.85837 0.0
C3542 C 0.88235 0.31307 0.87204 0.0
H3543 H 0.82331 0.26894 0.77752 0.0
H3544 H 0.84523 0.29192 0.79464 0.0
H3545 H 0.87031 0.28864 0.86856 0.0
H3546 H 0.92063 0.35911 0.92899 0.0
H3547 H 0.90052 0.33432 0.9132 0.0
H3548 H 0.87068 0.33612 0.84334 0.0
C3549 C 0.83995 0.28216 0.80825 0.0
C3550 C 0.87022 0.29891 0.86298 0.0
C3551 C 0.82732 0.26882 0.79829 0.0
C3552 C 0.9154 0.35837 0.90903 0.0
C3553 C 0.90377 0.34402 0.89984 0.0
C3554 C 0.87103 0.32597 0.84876 0.0
C3555 C 0.84557 0.28305 0.8353 0.0
C3556 C 0.85839 0.29805 0.84627 0.0
C3557 C 0.89612 0.34231 0.87444 0.0
C3558 C 0.88308 0.32695 0.86497 0.0
H3559 H 0.81998 0.24647 0.85513 0.0
H3560 H 0.84237 0.26975 0.87244 0.0
H3561 H 0.85007 0.31186 0.82735 0.0
H3562 H 0.91564 0.37978 0.85472 0.0
H3563 H 0.89579 0.35497 0.8384 0.0
C3564 C 0.43932 0.26076 0.29595 0.0
C3565 C 0.44767 0.25327 0.30079 0.0
C3566 C 0.4434 0.27485 0.30828 0.0
C3567 C 0.46724 0.30251 0.36453 0.0
H3568 H 0.46106 0.33074 0.32008 0.0
C3569 C 0.48924 0.36558 0.4001 0.0
C3570 C 0.48055 0.3725 0.39348 0.0
C3571 C 0.48554 0.35118 0.3894 0.0
C3572 C 0.46272 0.32302 0.33311 0.0
H3573 H 0.46676 0.25498 0.32383 0.0
H3574 H 0.47392 0.27958 0.34547 0.0
H3575 H 0.45428 0.30592 0.30144 0.0
H3576 H 0.46089 0.3692 0.37013 0.0
H3577 H 0.45436 0.34424 0.35177 0.0
H3578 H 0.47579 0.31976 0.39618 0.0
C3579 C 0.46408 0.27445 0.33198 0.0
C3580 C 0.45878 0.3086 0.32231 0.0
C3581 C 0.45995 0.26022 0.31957 0.0
C3582 C 0.46796 0.36442 0.37575 0.0
C3583 C 0.46426 0.35002 0.365 0.0
C3584 C 0.47121 0.31699 0.37536 0.0
C3585 C 0.45606 0.28222 0.32611 0.0
C3586 C 0.46081 0.29794 0.33782 0.0
C3587 C 0.47296 0.34306 0.37159 0.0
C3588 C 0.46894 0.32754 0.35994 0.0
H3589 H 0.42959 0.25577 0.28218 0.0
H3590 H 0.43651 0.27998 0.30367 0.0
H3591 H 0.46892 0.29476 0.37746 0.0
H3592 H 0.49896 0.37125 0.41377 0.0
H3593 H 0.49273 0.34652 0.3949 0.0
C3594 C 0.67125 0.11369 0.41023 0.0
C3595 C 0.65776 0.10977 0.3955 0.0
C3596 C 0.68567 0.12476 0.40003 0.0
C3597 C 0.70558 0.14554 0.3343 0.0
H3598 H 0.73804 0.1723 0.38395 0.0
C3599 C 0.76688 0.1842 0.2925 0.0
C3600 C 0.77577 0.19924 0.3024 0.0
C3601 C 0.75309 0.17371 0.30519 0.0
C3602 C 0.72913 0.16502 0.36966 0.0
H3603 H 0.64937 0.11421 0.35754 0.0
H3604 H 0.67403 0.13363 0.34028 0.0
H3605 H 0.71322 0.15362 0.40282 0.0
H3606 H 0.77693 0.21444 0.33504 0.0
H3607 H 0.75294 0.19603 0.35755 0.0
H3608 H 0.72129 0.15695 0.30117 0.0
C3609 C 0.67365 0.12819 0.35979 0.0
C3610 C 0.71482 0.15409 0.38057 0.0
C3611 C 0.6593 0.11714 0.36998 0.0
C3612 C 0.77058 0.20305 0.32664 0.0
C3613 C 0.7567 0.19243 0.33955 0.0
C3614 C 0.71986 0.15635 0.32346 0.0
C3615 C 0.6872 0.1323 0.37455 0.0
C3616 C 0.7027 0.14409 0.36311 0.0
C3617 C 0.74748 0.17762 0.32865 0.0
C3618 C 0.732 0.1663 0.34083 0.0
H3619 H 0.67069 0.10827 0.42988 0.0
H3620 H 0.69566 0.12725 0.41204 0.0
H3621 H 0.69684 0.13812 0.31987 0.0
H3622 H 0.77048 0.1805 0.27442 0.0
H3623 H 0.74679 0.16241 0.2964 0.0
C3624 C 0.84759 0.59016 0.2956 0.0
C3625 C 0.83202 0.58336 0.30264 0.0
C3626 C 0.85734 0.58588 0.30841 0.0
C3627 C 0.86324 0.56721 0.3703 0.0
H3628 H 0.89107 0.56265 0.32152 0.0
C3629 C 0.91431 0.5603 0.4115 0.0
C3630 C 0.91785 0.55029 0.39729 0.0
C3631 C 0.90331 0.56373 0.40118 0.0
C3632 C 0.88337 0.56376 0.33559 0.0
H3633 H 0.81505 0.56703 0.33063 0.0
H3634 H 0.83225 0.55986 0.35365 0.0
H3635 H 0.87308 0.56952 0.30236 0.0
H3636 H 0.91248 0.53639 0.36044 0.0
H3637 H 0.89341 0.5422 0.34261 0.0
H3638 H 0.87374 0.56158 0.40361 0.0
C3639 C 0.83678 0.56844 0.3376 0.0
C3640 C 0.87305 0.56787 0.32455 0.0
C3641 C 0.82687 0.57263 0.32442 0.0
C3642 C 0.91001 0.54393 0.37231 0.0
C3643 C 0.89912 0.54744 0.36186 0.0
C3644 C 0.87377 0.56331 0.38146 0.0
C3645 C 0.85215 0.57475 0.32932 0.0
C3646 C 0.86279 0.56975 0.34162 0.0
C3647 C 0.89553 0.55744 0.37604 0.0
C3648 C 0.88407 0.56151 0.36431 0.0
H3649 H 0.85234 0.59882 0.27971 0.0
H3650 H 0.8691 0.59139 0.3018 0.0
H3651 H 0.85566 0.56857 0.3843 0.0
H3652 H 0.92004 0.56551 0.43076 0.0
H3653 H 0.90115 0.57161 0.4127 0.0
C3654 C 0.6987 0.12663 0.79299 0.0
C3655 C 0.71188 0.13786 0.80653 0.0
C3656 C 0.68406 0.12328 0.80145 0.0
C3657 C 0.6629 0.13939 0.83808 0.0
H3658 H 0.63049 0.09753 0.84177 0.0
C3659 C 0.60049 0.12336 0.87026 0.0
C3660 C 0.58836 0.11056 0.85741 0.0
C3661 C 0.61574 0.12668 0.86692 0.0
C3662 C 0.63923 0.10935 0.84046 0.0
H3663 H 0.71945 0.15361 0.8411 0.0
H3664 H 0.69405 0.14836 0.85485 0.0
H3665 H 0.65607 0.1033 0.82967 0.0
H3666 H 0.58311 0.09088 0.83213 0.0
H3667 H 0.60908 0.09674 0.82574 0.0
H3668 H 0.646 0.14551 0.84798 0.0
C3669 C 0.69511 0.14223 0.83741 0.0
C3670 C 0.65407 0.11265 0.83359 0.0
C3671 C 0.70977 0.14535 0.82932 0.0
C3672 C 0.59201 0.10096 0.84212 0.0
C3673 C 0.60711 0.10428 0.83871 0.0
C3674 C 0.64797 0.1361 0.84456 0.0
C3675 C 0.68197 0.13115 0.82358 0.0
C3676 C 0.66618 0.12772 0.83204 0.0
C3677 C 0.61939 0.11729 0.85072 0.0
C3678 C 0.63573 0.12098 0.84559 0.0
H3679 H 0.69967 0.12055 0.77537 0.0
H3680 H 0.67432 0.11471 0.79012 0.0
H3681 H 0.67184 0.15116 0.83698 0.0
H3682 H 0.59827 0.1311 0.88211 0.0
H3683 H 0.62466 0.13669 0.87701 0.0
C3684 C 0.88526 0.57061 0.83382 0.0
C3685 C 0.89189 0.57905 0.8095 0.0
C3686 C 0.88846 0.55927 0.84294 0.0
C3687 C 0.91623 0.5449 0.83422 0.0
H3688 H 0.8838 0.50782 0.86587 0.0
C3689 C 0.92208 0.49076 0.85026 0.0
C3690 C 0.91364 0.48012 0.87106 0.0
C3691 C 0.92058 0.50366 0.84547 0.0
C3692 C 0.89316 0.51815 0.85755 0.0
H3693 H 0.90759 0.58215 0.77634 0.0
H3694 H 0.91326 0.56272 0.79222 0.0
H3695 H 0.87897 0.52814 0.85242 0.0
H3696 H 0.89692 0.47501 0.90313 0.0
H3697 H 0.89471 0.4977 0.89579 0.0
H3698 H 0.93042 0.53494 0.83929 0.0
C3699 C 0.90553 0.5648 0.80442 0.0
C3700 C 0.89033 0.52993 0.84968 0.0
C3701 C 0.90224 0.57605 0.79522 0.0
C3702 C 0.90401 0.48315 0.88757 0.0
C3703 C 0.90248 0.49608 0.88281 0.0
C3704 C 0.91907 0.53315 0.84217 0.0
C3705 C 0.89859 0.55603 0.82833 0.0
C3706 C 0.90177 0.54353 0.83765 0.0
C3707 C 0.91041 0.50641 0.86111 0.0
C3708 C 0.90758 0.51944 0.85385 0.0
H3709 H 0.87753 0.57274 0.8459 0.0
H3710 H 0.88304 0.55311 0.86172 0.0
H3711 H 0.92551 0.55518 0.82558 0.0
H3712 H 0.92916 0.48856 0.83639 0.0
H3713 H 0.9268 0.51099 0.82831 0.0
C3714 C 0.54246 0.42197 0.90438 0.0
C3715 C 0.55133 0.43463 0.88726 0.0
C3716 C 0.52997 0.40862 0.89401 0.0
C3717 C 0.51185 0.38752 0.82712 0.0
H3718 H 0.47998 0.36059 0.87743 0.0
C3719 C 0.45757 0.33111 0.79029 0.0
C3720 C 0.45252 0.31806 0.80699 0.0
C3721 C 0.46918 0.34552 0.79929 0.0
C3722 C 0.48882 0.36785 0.86303 0.0
H3723 H 0.55319 0.44296 0.84536 0.0
H3724 H 0.53101 0.41988 0.8273 0.0
H3725 H 0.49984 0.38522 0.89371 0.0
H3726 H 0.45575 0.31034 0.84688 0.0
H3727 H 0.4757 0.33539 0.86282 0.0
H3728 H 0.50036 0.37009 0.79624 0.0
C3729 C 0.53402 0.42015 0.84891 0.0
C3730 C 0.50042 0.38214 0.87245 0.0
C3731 C 0.54669 0.4336 0.85938 0.0
C3732 C 0.4593 0.32003 0.83331 0.0
C3733 C 0.47075 0.33449 0.84252 0.0
C3734 C 0.50009 0.37327 0.81758 0.0
C3735 C 0.5255 0.40723 0.86594 0.0
C3736 C 0.51238 0.39226 0.8549 0.0
C3737 C 0.47601 0.34752 0.82562 0.0
C3738 C 0.48844 0.36305 0.83546 0.0
H3739 H 0.54547 0.42219 0.92599 0.0
H3740 H 0.52419 0.39917 0.90812 0.0
H3741 H 0.52075 0.39464 0.81272 0.0
H3742 H 0.45273 0.33016 0.76985 0.0
H3743 H 0.47268 0.35516 0.78565 0.0
C3744 C 0.59336 0.76866 0.70533 0.0
C3745 C 0.5873 0.76922 0.73135 0.0
C3746 C 0.58974 0.75458 0.6929 0.0
C3747 C 0.57414 0.71314 0.71161 0.0
H3748 H 0.57233 0.70682 0.6322 0.0
C3749 C 0.55333 0.6527 0.66522 0.0
C3750 C 0.55932 0.6511 0.63994 0.0
C3751 C 0.55671 0.66708 0.67538 0.0
C3752 C 0.57294 0.70834 0.65447 0.0
H3753 H 0.57191 0.75508 0.76358 0.0
H3754 H 0.56534 0.73094 0.74195 0.0
H3755 H 0.57787 0.73148 0.65069 0.0
H3756 H 0.57424 0.66394 0.60608 0.0
H3757 H 0.58047 0.68893 0.62396 0.0
H3758 H 0.56933 0.69014 0.71555 0.0
C3759 C 0.57333 0.74126 0.73135 0.0
C3760 C 0.57614 0.72263 0.66518 0.0
C3761 C 0.577 0.75523 0.74376 0.0
C3762 C 0.56922 0.66455 0.6255 0.0
C3763 C 0.5727 0.67899 0.63573 0.0
C3764 C 0.57096 0.69891 0.70096 0.0
C3765 C 0.57989 0.74056 0.70598 0.0
C3766 C 0.57671 0.72532 0.69403 0.0
C3767 C 0.56647 0.68059 0.66088 0.0
C3768 C 0.57018 0.69612 0.67215 0.0
H3769 H 0.60143 0.77911 0.69517 0.0
H3770 H 0.59516 0.75475 0.67347 0.0
H3771 H 0.57482 0.71461 0.7339 0.0
H3772 H 0.54612 0.6428 0.67747 0.0
H3773 H 0.55147 0.66752 0.69463 0.0
C3774 C 0.26958 0.83795 0.743 0.0
C3775 C 0.26053 0.82283 0.73365 0.0
C3776 C 0.28351 0.84808 0.73035 0.0
C3777 C 0.30766 0.85519 0.66656 0.0
H3778 H 0.3398 0.88318 0.71547 0.0
C3779 C 0.36513 0.90557 0.62379 0.0
C3780 C 0.37868 0.91042 0.63896 0.0
C3781 C 0.35086 0.8945 0.6344 0.0
C3782 C 0.33111 0.87542 0.7013 0.0
H3783 H 0.25925 0.80703 0.70215 0.0
H3784 H 0.28352 0.82477 0.67977 0.0
H3785 H 0.31527 0.86483 0.73459 0.0
H3786 H 0.38735 0.9075 0.678 0.0
H3787 H 0.36287 0.88799 0.69606 0.0
H3788 H 0.32367 0.86569 0.63328 0.0
C3789 C 0.27977 0.82875 0.69724 0.0
C3790 C 0.31679 0.8649 0.71237 0.0
C3791 C 0.26573 0.81851 0.71007 0.0
C3792 C 0.37736 0.90386 0.66527 0.0
C3793 C 0.36313 0.89276 0.67588 0.0
C3794 C 0.32202 0.86578 0.65544 0.0
C3795 C 0.28912 0.84367 0.70754 0.0
C3796 C 0.30468 0.85461 0.69528 0.0
C3797 C 0.34951 0.88784 0.66074 0.0
C3798 C 0.33407 0.87619 0.67257 0.0
H3799 H 0.26597 0.84201 0.76056 0.0
H3800 H 0.28991 0.85949 0.73863 0.0
H3801 H 0.29878 0.84762 0.65247 0.0
H3802 H 0.36551 0.91033 0.60354 0.0
H3803 H 0.34083 0.89138 0.62201 0.0
C3804 C 0.12596 0.47808 0.66462 0.0
C3805 C 0.11838 0.47232 0.63922 0.0
C3806 C 0.13703 0.47464 0.67431 0.0
C3807 C 0.16206 0.45892 0.65049 0.0
H3808 H 0.16852 0.45714 0.72925 0.0
C3809 C 0.21491 0.45695 0.69293 0.0
C3810 C 0.21412 0.44966 0.71821 0.0
C3811 C 0.20256 0.45824 0.68303 0.0
C3812 C 0.16683 0.45739 0.70714 0.0
H3813 H 0.11643 0.45784 0.60459 0.0
H3814 H 0.13517 0.45148 0.62161 0.0
H3815 H 0.14868 0.4622 0.71325 0.0
H3816 H 0.19938 0.43791 0.75281 0.0
H3817 H 0.17759 0.43973 0.73531 0.0
H3818 H 0.17994 0.45379 0.64433 0.0
C3819 C 0.13299 0.45911 0.63389 0.0
C3820 C 0.15549 0.46056 0.69785 0.0
C3821 C 0.12202 0.46265 0.62415 0.0
C3822 C 0.20031 0.44326 0.73293 0.0
C3823 C 0.18789 0.4446 0.72306 0.0
C3824 C 0.17335 0.45573 0.65976 0.0
C3825 C 0.14084 0.4651 0.65912 0.0
C3826 C 0.15289 0.46147 0.66929 0.0
C3827 C 0.18886 0.45239 0.69813 0.0
C3828 C 0.17608 0.45499 0.68829 0.0
H3829 H 0.12324 0.48516 0.67728 0.0
H3830 H 0.14273 0.47967 0.69367 0.0
H3831 H 0.16075 0.45965 0.62837 0.0
H3832 H 0.22546 0.46236 0.68135 0.0
H3833 H 0.2041 0.46454 0.66407 0.0
C3834 C 0.33781 0.89563 0.24099 0.0
C3835 C 0.32448 0.88587 0.22604 0.0
C3836 C 0.35225 0.8985 0.23204 0.0
C3837 C 0.37075 0.88239 0.18597 0.0
H3838 H 0.40726 0.92122 0.19782 0.0
C3839 C 0.42808 0.89398 0.13895 0.0
C3840 C 0.44156 0.90191 0.15462 0.0
C3841 C 0.4145 0.89335 0.14715 0.0
C3842 C 0.39724 0.91023 0.19453 0.0
H3843 H 0.31636 0.87225 0.18875 0.0
H3844 H 0.3413 0.87709 0.17327 0.0
H3845 H 0.38258 0.91757 0.21253 0.0
H3846 H 0.45115 0.91601 0.19099 0.0
H3847 H 0.42742 0.9151 0.20531 0.0
H3848 H 0.38529 0.87498 0.1682 0.0
C3849 C 0.34063 0.8823 0.19241 0.0
C3850 C 0.38297 0.90811 0.20303 0.0
C3851 C 0.32621 0.8795 0.2013 0.0
C3852 C 0.44112 0.90993 0.17816 0.0
C3853 C 0.42741 0.90931 0.18645 0.0
C3854 C 0.38496 0.88451 0.1775 0.0
C3855 C 0.35396 0.89171 0.20776 0.0
C3856 C 0.36939 0.89415 0.19877 0.0
C3857 C 0.4137 0.90061 0.1715 0.0
C3858 C 0.39852 0.89849 0.18137 0.0
H3859 H 0.33709 0.9008 0.26016 0.0
H3860 H 0.36204 0.90572 0.24473 0.0
H3861 H 0.36079 0.87134 0.18283 0.0
H3862 H 0.42791 0.88771 0.12062 0.0
H3863 H 0.40448 0.88689 0.13445 0.0
C3864 C 0.1256 0.54078 0.17775 0.0
C3865 C 0.12754 0.54431 0.14923 0.0
C3866 C 0.12641 0.52814 0.1883 0.0
C3867 C 0.12743 0.49259 0.16491 0.0
H3868 H 0.14408 0.4947 0.23811 0.0
C3869 C 0.1484 0.45087 0.2006 0.0
C3870 C 0.14481 0.44492 0.22768 0.0
C3871 C 0.1455 0.46246 0.19183 0.0
C3872 C 0.13931 0.49382 0.21764 0.0
H3873 H 0.13119 0.53661 0.1096 0.0
H3874 H 0.13287 0.51527 0.12749 0.0
H3875 H 0.14004 0.51525 0.22203 0.0
H3876 H 0.13538 0.44685 0.26675 0.0
H3877 H 0.13059 0.46713 0.25171 0.0
H3878 H 0.12713 0.47139 0.16031 0.0
C3879 C 0.13052 0.52192 0.14209 0.0
C3880 C 0.13689 0.50568 0.20836 0.0
C3881 C 0.12966 0.5344 0.13167 0.0
C3882 C 0.13823 0.451 0.24568 0.0
C3883 C 0.1356 0.46279 0.23709 0.0
C3884 C 0.13006 0.4809 0.17403 0.0
C3885 C 0.12914 0.51855 0.1707 0.0
C3886 C 0.13099 0.50541 0.18163 0.0
C3887 C 0.13913 0.46874 0.20995 0.0
C3888 C 0.13613 0.48129 0.20051 0.0
H3889 H 0.1241 0.54813 0.19209 0.0
H3890 H 0.12503 0.52601 0.21038 0.0
H3891 H 0.12246 0.49142 0.14458 0.0
H3892 H 0.15346 0.44653 0.1861 0.0
H3893 H 0.14851 0.46671 0.17086 0.0
C3894 C 0.57848 0.70272 0.20214 0.0
C3895 C 0.58481 0.7048 0.22889 0.0
C3896 C 0.56689 0.6883 0.19311 0.0
C3897 C 0.53627 0.65036 0.21841 0.0
H3898 H 0.53806 0.63672 0.14428 0.0
C3899 C 0.48971 0.58977 0.17814 0.0
C3900 C 0.48577 0.5883 0.14981 0.0
C3901 C 0.50232 0.60326 0.18859 0.0
C3902 C 0.53707 0.64029 0.16493 0.0
H3903 H 0.58359 0.69303 0.26708 0.0
H3904 H 0.56333 0.66811 0.25163 0.0
H3905 H 0.55799 0.66143 0.1602 0.0
H3906 H 0.49275 0.59992 0.11032 0.0
H3907 H 0.51401 0.62302 0.12809 0.0
H3908 H 0.51512 0.62944 0.22298 0.0
C3909 C 0.56735 0.67761 0.23748 0.0
C3910 C 0.54869 0.65461 0.17414 0.0
C3911 C 0.57912 0.69195 0.24629 0.0
C3912 C 0.49526 0.6005 0.13228 0.0
C3913 C 0.5077 0.61389 0.14261 0.0
C3914 C 0.52448 0.63609 0.20905 0.0
C3915 C 0.56102 0.67547 0.21067 0.0
C3916 C 0.54851 0.65998 0.20101 0.0
C3917 C 0.51147 0.61575 0.17106 0.0
C3918 C 0.52454 0.63075 0.18197 0.0
H3919 H 0.58252 0.71228 0.1881 0.0
H3920 H 0.56233 0.68726 0.17241 0.0
H3921 H 0.53557 0.65403 0.23919 0.0
H3922 H 0.48269 0.58076 0.19245 0.0
H3923 H 0.50478 0.60389 0.21054 0.0
C3924 C 0.13417 0.69235 0.74262 0.0
C3925 C 0.14405 0.70581 0.72818 0.0
C3926 C 0.13068 0.67789 0.73237 0.0
C3927 C 0.13286 0.65803 0.6671 0.0
H3928 H 0.12497 0.62516 0.71736 0.0
C3929 C 0.12739 0.60181 0.62479 0.0
C3930 C 0.11678 0.58776 0.63661 0.0
C3931 C 0.13088 0.61574 0.63724 0.0
C3932 C 0.12699 0.6341 0.70287 0.0
H3933 H 0.15716 0.71406 0.69057 0.0
H3934 H 0.15192 0.68939 0.67349 0.0
H3935 H 0.1304 0.64978 0.73585 0.0
H3936 H 0.10189 0.57771 0.67183 0.0
H3937 H 0.10788 0.60198 0.69364 0.0
H3938 H 0.12946 0.64246 0.63416 0.0
C3939 C 0.14665 0.6898 0.69273 0.0
C3940 C 0.13012 0.64838 0.71357 0.0
C3941 C 0.15 0.70418 0.70287 0.0
C3942 C 0.11022 0.5882 0.66213 0.0
C3943 C 0.11366 0.60223 0.67463 0.0
C3944 C 0.12978 0.64382 0.65646 0.0
C3945 C 0.1369 0.67627 0.7072 0.0
C3946 C 0.13322 0.66073 0.69591 0.0
C3947 C 0.12384 0.61633 0.66208 0.0
C3948 C 0.12688 0.63154 0.67403 0.0
H3949 H 0.12915 0.69295 0.76205 0.0
H3950 H 0.1229 0.66796 0.74415 0.0
H3951 H 0.13474 0.66686 0.65245 0.0
H3952 H 0.13287 0.60207 0.60536 0.0
H3953 H 0.13911 0.62611 0.62708 0.0
C3954 C 0.4384 0.51716 0.64033 0.0
C3955 C 0.44412 0.53297 0.6387 0.0
C3956 C 0.42441 0.50737 0.65322 0.0
C3957 C 0.38713 0.50382 0.67332 0.0
H3958 H 0.38231 0.46935 0.71578 0.0
C3959 C 0.32883 0.46151 0.72638 0.0
C3960 C 0.32493 0.44627 0.73085 0.0
C3961 C 0.34331 0.47239 0.71629 0.0
C3962 C 0.38319 0.47869 0.70361 0.0
H3963 H 0.43921 0.55069 0.64998 0.0
H3964 H 0.41469 0.53361 0.67245 0.0
H3965 H 0.40708 0.48746 0.69712 0.0
H3966 H 0.33368 0.43078 0.7278 0.0
H3967 H 0.35847 0.44931 0.7095 0.0
H3968 H 0.36318 0.4949 0.6791 0.0
C3969 C 0.42115 0.52878 0.66364 0.0
C3970 C 0.39761 0.48926 0.69293 0.0
C3971 C 0.43536 0.53866 0.65101 0.0
C3972 C 0.33613 0.44235 0.72483 0.0
C3973 C 0.35055 0.45316 0.71441 0.0
C3974 C 0.37262 0.49313 0.68373 0.0
C3975 C 0.41535 0.5129 0.66482 0.0
C3976 C 0.3999 0.50201 0.67743 0.0
C3977 C 0.35455 0.4685 0.70998 0.0
C3978 C 0.37026 0.48024 0.69903 0.0
H3979 H 0.4447 0.51225 0.63109 0.0
H3980 H 0.42046 0.49531 0.65327 0.0
H3981 H 0.38821 0.5133 0.66129 0.0
H3982 H 0.32084 0.46521 0.7314 0.0
H3983 H 0.3457 0.48397 0.71401 0.0
C3984 C 0.57679 0.8779 0.70396 0.0
C3985 C 0.58477 0.88414 0.7289 0.0
C3986 C 0.56566 0.88126 0.69419 0.0
C3987 C 0.55291 0.91013 0.70049 0.0
H3988 H 0.51646 0.87973 0.6633 0.0
C3989 C 0.51396 0.92644 0.63765 0.0
C3990 C 0.49805 0.9167 0.63717 0.0
C3991 C 0.52374 0.92219 0.65047 0.0
C3992 C 0.5265 0.88839 0.6738 0.0
H3993 H 0.58712 0.89919 0.76277 0.0
H3994 H 0.56807 0.90524 0.74571 0.0
H3995 H 0.53471 0.87288 0.68191 0.0
H3996 H 0.48015 0.89466 0.65067 0.0
H3997 H 0.49721 0.88718 0.67321 0.0
H3998 H 0.5448 0.92565 0.69241 0.0
C3999 C 0.57035 0.89763 0.73357 0.0
C4000 C 0.53713 0.88447 0.68429 0.0
C4001 C 0.58134 0.89411 0.74347 0.0
C4002 C 0.49227 0.90258 0.65071 0.0
C4003 C 0.50214 0.89821 0.66338 0.0
C4004 C 0.54239 0.91407 0.68979 0.0
C4005 C 0.56223 0.89125 0.70872 0.0
C4006 C 0.5506 0.89529 0.69779 0.0
C4007 C 0.51811 0.90792 0.66335 0.0
C4008 C 0.52898 0.90333 0.67607 0.0
H4009 H 0.57935 0.87061 0.69158 0.0
H4010 H 0.56 0.87626 0.67477 0.0
H4011 H 0.56309 0.91891 0.71043 0.0
H4012 H 0.51897 0.93742 0.6276 0.0
H4013 H 0.53586 0.93001 0.64952 0.0
C4014 C 0.26323 0.45201 0.18946 0.0
C4015 C 0.26187 0.4545 0.21782 0.0
C4016 C 0.2766 0.45266 0.17894 0.0
C4017 C 0.3132 0.45396 0.20229 0.0
H4018 H 0.32762 0.4704 0.129 0.0
C4019 C 0.37574 0.47485 0.1669 0.0
C4020 C 0.37814 0.47131 0.13981 0.0
C4021 C 0.36125 0.47196 0.17556 0.0
C4022 C 0.32375 0.46568 0.14948 0.0
H4023 H 0.27353 0.45895 0.2573 0.0
H4024 H 0.29645 0.46034 0.23941 0.0
H4025 H 0.30302 0.46636 0.14506 0.0
H4026 H 0.36693 0.46194 0.1006 0.0
H4027 H 0.34181 0.45711 0.11548 0.0
H4028 H 0.33411 0.45367 0.20692 0.0
C4029 C 0.28731 0.45769 0.22495 0.0
C4030 C 0.30948 0.46327 0.15874 0.0
C4031 C 0.27405 0.457 0.23534 0.0
C4032 C 0.36556 0.46477 0.12167 0.0
C4033 C 0.35113 0.46211 0.13016 0.0
C4034 C 0.32749 0.45655 0.19318 0.0
C4035 C 0.28906 0.45577 0.19646 0.0
C4036 C 0.30394 0.45749 0.18551 0.0
C4037 C 0.34867 0.4656 0.15732 0.0
C4038 C 0.33312 0.46256 0.16669 0.0
H4039 H 0.25423 0.45019 0.17519 0.0
H4040 H 0.27719 0.45087 0.15696 0.0
H4041 H 0.30942 0.44909 0.22267 0.0
H4042 H 0.38509 0.47984 0.18151 0.0
H4043 H 0.35996 0.47494 0.19655 0.0
C4044 C 0.57386 0.814 0.20448 0.0
C4045 C 0.58676 0.81444 0.19256 0.0
C4046 C 0.5706 0.82589 0.19992 0.0
C4047 C 0.58809 0.86626 0.1713 0.0
H4048 H 0.54622 0.85673 0.16587 0.0
C4049 C 0.57305 0.91386 0.14635 0.0
C4050 C 0.55911 0.90992 0.13337 0.0
C4051 C 0.57638 0.90259 0.15542 0.0
C4052 C 0.55803 0.85971 0.16687 0.0
H4053 H 0.60669 0.82845 0.16761 0.0
H4054 H 0.60098 0.84853 0.15924 0.0
H4055 H 0.55194 0.83694 0.17838 0.0
H4056 H 0.53872 0.89086 0.11686 0.0
H4057 H 0.54438 0.87143 0.132 0.0
H4058 H 0.59424 0.88878 0.15854 0.0
C4059 C 0.5933 0.83922 0.17238 0.0
C4060 C 0.56135 0.84825 0.17465 0.0
C4061 C 0.59654 0.82746 0.17698 0.0
C4062 C 0.54908 0.89437 0.12838 0.0
C4063 C 0.55246 0.88313 0.13702 0.0
C4064 C 0.58478 0.87765 0.16324 0.0
C4065 C 0.58016 0.83869 0.18338 0.0
C4066 C 0.57647 0.8512 0.17677 0.0
C4067 C 0.56611 0.88692 0.15112 0.0
C4068 C 0.56967 0.87466 0.16061 0.0
H4069 H 0.56597 0.80421 0.21649 0.0
H4070 H 0.56048 0.82495 0.20929 0.0
H4071 H 0.59992 0.86938 0.17317 0.0
H4072 H 0.58138 0.92564 0.14997 0.0
H4073 H 0.58701 0.9063 0.16617 0.0
C4074 C 0.20791 0.75573 0.23585 0.0
C4075 C 0.21707 0.76823 0.21862 0.0
C4076 C 0.19532 0.74247 0.22547 0.0
C4077 C 0.17746 0.72116 0.15874 0.0
H4078 H 0.14475 0.6952 0.20853 0.0
C4079 C 0.12292 0.66494 0.12188 0.0
C4080 C 0.11752 0.65208 0.13919 0.0
C4081 C 0.13458 0.67937 0.13068 0.0
C4082 C 0.15382 0.70219 0.19428 0.0
H4083 H 0.21938 0.77641 0.17651 0.0
H4084 H 0.19705 0.75349 0.15839 0.0
H4085 H 0.16488 0.71974 0.22465 0.0
H4086 H 0.12012 0.64473 0.1799 0.0
H4087 H 0.14014 0.66979 0.19543 0.0
H4088 H 0.16598 0.70354 0.12818 0.0
C4089 C 0.19988 0.7538 0.18011 0.0
C4090 C 0.16556 0.71642 0.20362 0.0
C4091 C 0.21264 0.76717 0.1906 0.0
C4092 C 0.12396 0.65426 0.16588 0.0
C4093 C 0.13545 0.66874 0.17484 0.0
C4094 C 0.16557 0.70697 0.14928 0.0
C4095 C 0.19106 0.74103 0.19728 0.0
C4096 C 0.17782 0.72617 0.18626 0.0
C4097 C 0.14109 0.68158 0.15736 0.0
C4098 C 0.15361 0.6971 0.167 0.0
H4099 H 0.21077 0.75599 0.25756 0.0
H4100 H 0.18928 0.73311 0.23968 0.0
H4101 H 0.18659 0.72801 0.14453 0.0
H4102 H 0.11835 0.66379 0.10115 0.0
H4103 H 0.13839 0.68887 0.11658 0.0
C4104 C 0.32168 0.19408 0.11767 0.0
C4105 C 0.30856 0.1918 0.13177 0.0
C4106 C 0.33203 0.19048 0.13004 0.0
C4107 C 0.34367 0.18237 0.19935 0.0
H4108 H 0.36685 0.16963 0.15398 0.0
C4109 C 0.38173 0.16004 0.24711 0.0
C4110 C 0.39589 0.16436 0.23472 0.0
C4111 C 0.3713 0.16352 0.2347 0.0
C4112 C 0.36062 0.17334 0.16701 0.0
H4113 H 0.29583 0.18331 0.16983 0.0
H4114 H 0.3136 0.1766 0.19127 0.0
H4115 H 0.34803 0.1746 0.13241 0.0
H4116 H 0.41008 0.17591 0.19934 0.0
H4117 H 0.39187 0.18196 0.17754 0.0
H4118 H 0.35614 0.18083 0.234 0.0
C4119 C 0.31617 0.18159 0.17077 0.0
C4120 C 0.34975 0.17623 0.15457 0.0
C4121 C 0.3058 0.18525 0.15833 0.0
C4122 C 0.39935 0.17244 0.20957 0.0
C4123 C 0.38881 0.17579 0.19694 0.0
C4124 C 0.35445 0.17935 0.2118 0.0
C4125 C 0.32959 0.18428 0.15696 0.0
C4126 C 0.34106 0.18085 0.17046 0.0
C4127 C 0.37458 0.17138 0.20931 0.0
C4128 C 0.36315 0.1748 0.19586 0.0
H4129 H 0.32415 0.19898 0.09708 0.0
H4130 H 0.34219 0.193 0.11861 0.0
H4131 H 0.33757 0.18618 0.21246 0.0
H4132 H 0.37862 0.15384 0.2665 0.0
H4133 H 0.36047 0.15974 0.24482 0.0
C4134 C 0.83419 0.13095 0.11888 0.0
C4135 C 0.83728 0.12052 0.1325 0.0
C4136 C 0.83781 0.14493 0.13113 0.0
C4137 C 0.84704 0.16523 0.19976 0.0
H4138 H 0.85962 0.20094 0.15415 0.0
C4139 C 0.86883 0.22526 0.24826 0.0
C4140 C 0.86532 0.23552 0.23513 0.0
C4141 C 0.86536 0.21139 0.23577 0.0
C4142 C 0.85594 0.19108 0.16728 0.0
H4143 H 0.84712 0.11704 0.1696 0.0
H4144 H 0.85368 0.14149 0.19089 0.0
H4145 H 0.85424 0.17702 0.13265 0.0
H4146 H 0.85509 0.2389 0.19845 0.0
H4147 H 0.84885 0.21462 0.17668 0.0
H4148 H 0.84877 0.1793 0.23438 0.0
C4149 C 0.84813 0.13874 0.17085 0.0
C4150 C 0.85284 0.17725 0.15487 0.0
C4151 C 0.84452 0.12473 0.1585 0.0
C4152 C 0.85795 0.23131 0.20924 0.0
C4153 C 0.85452 0.2174 0.19661 0.0
C4154 C 0.85016 0.17907 0.21216 0.0
C4155 C 0.84476 0.14909 0.15747 0.0
C4156 C 0.84831 0.16403 0.17085 0.0
C4157 C 0.8582 0.20718 0.20963 0.0
C4158 C 0.85467 0.19228 0.19618 0.0
H4159 H 0.82881 0.12823 0.09867 0.0
H4160 H 0.83482 0.15234 0.12008 0.0
H4161 H 0.84334 0.15538 0.21291 0.0
H4162 H 0.8744 0.22801 0.2683 0.0
H4163 H 0.86861 0.20408 0.24648 0.0
C4164 C 0.79846 0.63267 0.20829 0.0
C4165 C 0.79436 0.63567 0.23443 0.0
C4166 C 0.81243 0.64307 0.19584 0.0
C4167 C 0.85105 0.67678 0.21177 0.0
H4168 H 0.85303 0.6827 0.13223 0.0
C4169 C 0.90539 0.72511 0.15734 0.0
C4170 C 0.90954 0.72181 0.1315 0.0
C4171 C 0.89141 0.71483 0.16992 0.0
C4172 C 0.85282 0.68113 0.15446 0.0
H4173 H 0.80221 0.65182 0.26832 0.0
H4174 H 0.82621 0.66992 0.24672 0.0
H4175 H 0.82907 0.6644 0.15374 0.0
H4176 H 0.90177 0.70522 0.09832 0.0
H4177 H 0.87774 0.68739 0.1201 0.0
H4178 H 0.8748 0.69354 0.21246 0.0
C4179 C 0.81877 0.65954 0.23566 0.0
C4180 C 0.83896 0.67053 0.16689 0.0
C4181 C 0.80483 0.64917 0.24802 0.0
C4182 C 0.89912 0.70812 0.11836 0.0
C4183 C 0.88516 0.6979 0.13082 0.0
C4184 C 0.8649 0.6874 0.19933 0.0
C4185 C 0.82284 0.65677 0.20923 0.0
C4186 C 0.83778 0.66811 0.19581 0.0
C4187 C 0.88104 0.70099 0.15693 0.0
C4188 C 0.86608 0.68978 0.17041 0.0
H4189 H 0.79074 0.6224 0.19719 0.0
H4190 H 0.8151 0.64027 0.17573 0.0
H4191 H 0.85085 0.67519 0.23399 0.0
H4192 H 0.91309 0.73552 0.1681 0.0
H4193 H 0.8887 0.71783 0.1898 0.0
C4194 C 0.183 0.38761 0.29344 0.0
C4195 C 0.17175 0.39014 0.3052 0.0
C4196 C 0.18629 0.37683 0.30475 0.0
C4197 C 0.18186 0.35428 0.36886 0.0
H4198 H 0.19023 0.32936 0.31911 0.0
C4199 C 0.18746 0.30324 0.40888 0.0
C4200 C 0.19875 0.30083 0.397 0.0
C4201 C 0.18399 0.3139 0.39759 0.0
C4202 C 0.1881 0.33631 0.3334 0.0
H4203 H 0.15535 0.38333 0.3386 0.0
H4204 H 0.16103 0.36457 0.35823 0.0
H4205 H 0.18479 0.34839 0.30017 0.0
H4206 H 0.21504 0.30771 0.3634 0.0
H4207 H 0.20907 0.32627 0.34384 0.0
H4208 H 0.18517 0.34221 0.40208 0.0
C4209 C 0.16742 0.37099 0.34031 0.0
C4210 C 0.18497 0.34729 0.32248 0.0
C4211 C 0.16409 0.38175 0.32894 0.0
C4212 C 0.20628 0.30921 0.37317 0.0
C4213 C 0.20278 0.31985 0.36183 0.0
C4214 C 0.18498 0.3433 0.37978 0.0
C4215 C 0.17849 0.36826 0.32828 0.0
C4216 C 0.18182 0.35649 0.34002 0.0
C4217 C 0.19165 0.32246 0.37397 0.0
C4218 C 0.18817 0.33413 0.36224 0.0
H4219 H 0.18918 0.39382 0.27519 0.0
H4220 H 0.19506 0.37529 0.29508 0.0
H4221 H 0.17973 0.36124 0.38314 0.0
H4222 H 0.18138 0.29702 0.4272 0.0
H4223 H 0.17519 0.31536 0.40735 0.0
C4224 C 0.64993 0.7868 0.33073 0.0
C4225 C 0.64082 0.78582 0.30792 0.0
C4226 C 0.66056 0.80098 0.34196 0.0
C4227 C 0.67112 0.84204 0.3433 0.0
H4228 H 0.71 0.84828 0.36909 0.0
C4229 C 0.72049 0.90203 0.37339 0.0
C4230 C 0.72953 0.90322 0.39646 0.0
C4231 C 0.70984 0.88777 0.36256 0.0
C4232 C 0.69915 0.84674 0.36229 0.0
H4233 H 0.63585 0.79922 0.27925 0.0
H4234 H 0.65436 0.82373 0.29843 0.0
H4235 H 0.6911 0.82352 0.35109 0.0
H4236 H 0.73442 0.89011 0.42594 0.0
H4237 H 0.71588 0.86538 0.40728 0.0
H4238 H 0.67919 0.86527 0.35441 0.0
C4239 C 0.65318 0.81358 0.30806 0.0
C4240 C 0.68824 0.83246 0.35195 0.0
C4241 C 0.64254 0.79943 0.29692 0.0
C4242 C 0.72775 0.88972 0.40808 0.0
C4243 C 0.71711 0.87546 0.39726 0.0
C4244 C 0.68203 0.85633 0.3536 0.0
C4245 C 0.66243 0.81462 0.33071 0.0
C4246 C 0.67404 0.82986 0.34223 0.0
C4247 C 0.7079 0.87423 0.37442 0.0
C4248 C 0.69625 0.85894 0.36325 0.0
H4249 H 0.64892 0.77661 0.33988 0.0
H4250 H 0.66725 0.80121 0.35964 0.0
H4251 H 0.66028 0.84052 0.33653 0.0
H4252 H 0.72154 0.91214 0.36376 0.0
H4253 H 0.70319 0.88739 0.34469 0.0
C4254 C 0.24254 0.86554 0.33104 0.0
C4255 C 0.24327 0.85953 0.30515 0.0
C4256 C 0.2285 0.86229 0.34245 0.0
C4257 C 0.18829 0.84928 0.32284 0.0
H4258 H 0.18057 0.8415 0.40152 0.0
C4259 C 0.12823 0.82696 0.3709 0.0
C4260 C 0.12731 0.83299 0.39665 0.0
C4261 C 0.14236 0.8304 0.3597 0.0
C4262 C 0.18257 0.84382 0.37954 0.0
H4263 H 0.22963 0.84531 0.27105 0.0
H4264 H 0.20527 0.83965 0.29087 0.0
H4265 H 0.20508 0.84702 0.38243 0.0
H4266 H 0.14067 0.84737 0.43077 0.0
H4267 H 0.16525 0.85333 0.41133 0.0
H4268 H 0.16577 0.84604 0.31994 0.0
C4269 C 0.21554 0.84697 0.30236 0.0
C4270 C 0.19667 0.847 0.36856 0.0
C4271 C 0.22956 0.85012 0.29108 0.0
C4272 C 0.14092 0.84258 0.41083 0.0
C4273 C 0.15504 0.84589 0.39977 0.0
C4274 C 0.17419 0.84609 0.33381 0.0
C4275 C 0.21478 0.85303 0.32819 0.0
C4276 C 0.19975 0.84975 0.34003 0.0
C4277 C 0.15599 0.83984 0.37405 0.0
C4278 C 0.17109 0.8433 0.36233 0.0
H4279 H 0.25286 0.87284 0.34246 0.0
H4280 H 0.22842 0.86728 0.36225 0.0
H4281 H 0.19028 0.85159 0.30086 0.0
H4282 H 0.118 0.81951 0.3594 0.0
H4283 H 0.14258 0.82539 0.33999 0.0
C4284 C 0.73066 0.83766 0.87815 0.0
C4285 C 0.72684 0.82901 0.90268 0.0
C4286 C 0.72038 0.84143 0.86573 0.0
C4287 C 0.67898 0.82978 0.86362 0.0
H4288 H 0.69337 0.86932 0.83037 0.0
C4289 C 0.63686 0.84907 0.82223 0.0
C4290 C 0.64123 0.85873 0.79902 0.0
C4291 C 0.64714 0.8454 0.83502 0.0
C4292 C 0.68907 0.85811 0.83915 0.0
H4293 H 0.70939 0.81837 0.93405 0.0
H4294 H 0.69147 0.82457 0.91231 0.0
H4295 H 0.71146 0.8632 0.85155 0.0
H4296 H 0.65984 0.87163 0.77063 0.0
H4297 H 0.6775 0.86521 0.79237 0.0
H4298 H 0.65661 0.8246 0.85099 0.0
C4299 C 0.70228 0.82823 0.90222 0.0
C4300 C 0.69954 0.8546 0.85143 0.0
C4301 C 0.7126 0.82462 0.91473 0.0
C4302 C 0.65606 0.86434 0.7887 0.0
C4303 C 0.6663 0.86069 0.80138 0.0
C4304 C 0.6685 0.83326 0.85119 0.0
C4305 C 0.70592 0.83664 0.8774 0.0
C4306 C 0.6947 0.84038 0.86394 0.0
C4307 C 0.66212 0.85122 0.82493 0.0
C4308 C 0.67333 0.8475 0.83866 0.0
H4309 H 0.74152 0.84131 0.86826 0.0
H4310 H 0.72367 0.84785 0.8466 0.0
H4311 H 0.67473 0.81862 0.8726 0.0
H4312 H 0.62558 0.84455 0.83089 0.0
H4313 H 0.64339 0.83822 0.85321 0.0
C4314 C 0.17852 0.79208 0.82447 0.0
C4315 C 0.17063 0.7876 0.79907 0.0
C4316 C 0.1822 0.80612 0.83688 0.0
C4317 C 0.17167 0.83685 0.83559 0.0
H4318 H 0.20962 0.86041 0.8752 0.0
C4319 C 0.19126 0.89838 0.87649 0.0
C4320 C 0.19961 0.90313 0.90139 0.0
C4321 C 0.18773 0.88442 0.86395 0.0
C4322 C 0.19884 0.85396 0.86457 0.0
H4323 H 0.16116 0.79494 0.76632 0.0
H4324 H 0.16742 0.81911 0.78772 0.0
H4325 H 0.20366 0.8362 0.85427 0.0
H4326 H 0.21015 0.89633 0.93307 0.0
H4327 H 0.20406 0.87227 0.9116 0.0
H4328 H 0.16679 0.85454 0.84599 0.0
C4329 C 0.17052 0.81172 0.79856 0.0
C4330 C 0.19541 0.83996 0.85245 0.0
C4331 C 0.16693 0.79778 0.78617 0.0
C4332 C 0.20401 0.89331 0.9136 0.0
C4333 C 0.20051 0.87941 0.90114 0.0
C4334 C 0.17508 0.85083 0.84777 0.0
C4335 C 0.17814 0.81616 0.82428 0.0
C4336 C 0.18177 0.83112 0.83766 0.0
C4337 C 0.19236 0.87467 0.87596 0.0
C4338 C 0.18874 0.85969 0.86254 0.0
H4339 H 0.18157 0.78459 0.83509 0.0
H4340 H 0.18796 0.80894 0.85673 0.0
H4341 H 0.16092 0.83039 0.82488 0.0
H4342 H 0.18769 0.9056 0.86637 0.0
H4343 H 0.18159 0.88142 0.84449 0.0
C4344 C 0.13155 0.29674 0.87742 0.0
C4345 C 0.12701 0.30076 0.90209 0.0
C4346 C 0.14563 0.30674 0.86488 0.0
C4347 C 0.18358 0.34172 0.87932 0.0
H4348 H 0.18706 0.3438 0.79925 0.0
C4349 C 0.23745 0.38926 0.82321 0.0
C4350 C 0.24262 0.38528 0.79926 0.0
C4351 C 0.22351 0.3789 0.83568 0.0
C4352 C 0.1864 0.3433 0.82167 0.0
H4353 H 0.13422 0.31835 0.93336 0.0
H4354 H 0.15822 0.33583 0.91132 0.0
H4355 H 0.16288 0.32596 0.82075 0.0
H4356 H 0.23675 0.3672 0.76945 0.0
H4357 H 0.21271 0.34921 0.79117 0.0
H4358 H 0.20707 0.35916 0.88019 0.0
C4359 C 0.1511 0.32492 0.90156 0.0
C4360 C 0.17244 0.33297 0.8341 0.0
C4361 C 0.13711 0.31492 0.9141 0.0
C4362 C 0.23329 0.37069 0.788 0.0
C4363 C 0.21935 0.36036 0.80037 0.0
C4364 C 0.19751 0.35208 0.86688 0.0
C4365 C 0.15566 0.32108 0.87665 0.0
C4366 C 0.17073 0.33199 0.86319 0.0
C4367 C 0.21418 0.36424 0.82449 0.0
C4368 C 0.1992 0.3531 0.83782 0.0
H4369 H 0.12415 0.28591 0.86759 0.0
H4370 H 0.14868 0.30312 0.84602 0.0
H4371 H 0.183 0.34122 0.90173 0.0
H4372 H 0.24426 0.40036 0.83253 0.0
H4373 H 0.21995 0.38248 0.85398 0.0
C4374 C 0.83035 0.71454 0.66155 0.0
C4375 C 0.8379 0.72297 0.63779 0.0
C4376 C 0.83375 0.7038 0.67269 0.0
C4377 C 0.85098 0.67995 0.65428 0.0
H4378 H 0.85205 0.67535 0.73388 0.0
C4379 C 0.87152 0.64104 0.70439 0.0
C4380 C 0.8642 0.63301 0.72864 0.0
C4381 C 0.86826 0.65185 0.69306 0.0
C4382 C 0.85161 0.6763 0.71158 0.0
H4383 H 0.85513 0.72667 0.60733 0.0
H4384 H 0.86109 0.70807 0.62675 0.0
H4385 H 0.84672 0.69448 0.71509 0.0
H4386 H 0.8474 0.62998 0.75956 0.0
H4387 H 0.8416 0.64858 0.73972 0.0
H4388 H 0.85582 0.66173 0.65076 0.0
C4389 C 0.8524 0.70964 0.63669 0.0
C4390 C 0.84856 0.68734 0.70076 0.0
C4391 C 0.84906 0.72044 0.62565 0.0
C4392 C 0.85332 0.63592 0.74091 0.0
C4393 C 0.85008 0.64674 0.72963 0.0
C4394 C 0.85401 0.66889 0.66511 0.0
C4395 C 0.84477 0.70109 0.66034 0.0
C4396 C 0.84817 0.68935 0.67193 0.0
C4397 C 0.85758 0.65498 0.70562 0.0
C4398 C 0.85436 0.66685 0.69395 0.0
H4399 H 0.82167 0.71612 0.67149 0.0
H4400 H 0.82749 0.69738 0.6907 0.0
H4401 H 0.85057 0.68094 0.63199 0.0
H4402 H 0.87996 0.63914 0.69431 0.0
H4403 H 0.87441 0.65801 0.67475 0.0
C4404 C 0.30979 0.13413 0.62572 0.0
C4405 C 0.30728 0.12047 0.63784 0.0
C4406 C 0.32051 0.14826 0.63688 0.0
C4407 C 0.35466 0.16649 0.68294 0.0
H4408 H 0.34699 0.20024 0.68277 0.0
C4409 C 0.39453 0.22324 0.73981 0.0
C4410 C 0.39698 0.23696 0.72799 0.0
C4411 C 0.38373 0.20917 0.72864 0.0
C4412 C 0.34946 0.19103 0.68269 0.0
H4413 H 0.31401 0.11111 0.67178 0.0
H4414 H 0.33252 0.13566 0.69142 0.0
H4415 H 0.32788 0.17568 0.66438 0.0
H4416 H 0.39003 0.24644 0.6946 0.0
H4417 H 0.37142 0.22195 0.67485 0.0
H4418 H 0.37625 0.18182 0.70117 0.0
C4419 C 0.32638 0.13549 0.67293 0.0
C4420 C 0.33843 0.17686 0.67212 0.0
C4421 C 0.31565 0.12136 0.66176 0.0
C4422 C 0.38844 0.23615 0.70438 0.0
C4423 C 0.37765 0.22205 0.69315 0.0
C4424 C 0.3657 0.18065 0.69348 0.0
C4425 C 0.32907 0.14919 0.66057 0.0
C4426 C 0.34083 0.16434 0.67208 0.0
C4427 C 0.37505 0.20831 0.70518 0.0
C4428 C 0.36329 0.19318 0.69357 0.0
H4429 H 0.30366 0.13397 0.60721 0.0
H4430 H 0.32232 0.15847 0.62647 0.0
H4431 H 0.35712 0.15727 0.68287 0.0
H4432 H 0.40077 0.22334 0.7581 0.0
H4433 H 0.38198 0.19893 0.73885 0.0
C4434 C 0.909 0.19955 0.66095 0.0
C4435 C 0.91 0.1915 0.63804 0.0
C4436 C 0.89482 0.19608 0.67195 0.0
C4437 C 0.85379 0.1659 0.67327 0.0
H4438 H 0.84775 0.19885 0.6978 0.0
C4439 C 0.79414 0.15606 0.70479 0.0
C4440 C 0.79339 0.16412 0.72794 0.0
C4441 C 0.80822 0.15941 0.6934 0.0
C4442 C 0.84924 0.18947 0.69135 0.0
H4443 H 0.89665 0.17325 0.60909 0.0
H4444 H 0.87206 0.1673 0.62807 0.0
H4445 H 0.8724 0.20443 0.6796 0.0
H4446 H 0.80707 0.18225 0.75686 0.0
H4447 H 0.83144 0.18801 0.73718 0.0
H4448 H 0.83062 0.15094 0.68502 0.0
C4449 C 0.88223 0.17622 0.6378 0.0
C4450 C 0.86345 0.19268 0.6809 0.0
C4451 C 0.8964 0.1797 0.62679 0.0
C4452 C 0.80712 0.17581 0.739 0.0
C4453 C 0.82117 0.17917 0.72759 0.0
C4454 C 0.83958 0.16269 0.68371 0.0
C4455 C 0.88119 0.18443 0.66044 0.0
C4456 C 0.86598 0.18095 0.67173 0.0
C4457 C 0.82197 0.17098 0.70471 0.0
C4458 C 0.83708 0.17442 0.69299 0.0
H4459 H 0.91919 0.20866 0.67028 0.0
H4460 H 0.89456 0.20252 0.68965 0.0
H4461 H 0.85529 0.15652 0.66684 0.0
H4462 H 0.78384 0.14704 0.69559 0.0
H4463 H 0.80831 0.15297 0.67556 0.0
C4464 C 0.9742 0.51952 0.48773 0.0
C4465 C 0.97826 0.52892 0.46419 0.0
C4466 C 0.98458 0.51593 0.50016 0.0
C4467 C 0.02105 0.51571 0.48684 0.0
H4468 H 0.02128 0.51187 0.56672 0.0
C4469 C 0.06755 0.50803 0.54497 0.0
C4470 C 0.0628 0.49804 0.56772 0.0
C4471 C 0.05756 0.51206 0.53217 0.0
C4472 C 0.02132 0.51272 0.54434 0.0
H4473 H 0.99649 0.54153 0.43493 0.0
H4474 H 1.0146 0.53567 0.45678 0.0
H4475 H 1.00341 0.51812 0.54507 0.0
H4476 H 0.04375 0.48477 0.59509 0.0
H4477 H 0.02646 0.49153 0.57281 0.0
H4478 H 0.03902 0.51036 0.48621 0.0
C4479 C 1.00335 0.53089 0.46566 0.0
C4480 C 1.01098 0.51631 0.53183 0.0
C4481 C 0.99296 0.53444 0.45325 0.0
C4482 C 0.04786 0.49239 0.57751 0.0
C4483 C 0.03791 0.49642 0.56482 0.0
C4484 C 0.03143 0.51216 0.49938 0.0
C4485 C 0.99939 0.52159 0.4894 0.0
C4486 C 1.01059 0.51782 0.50282 0.0
C4487 C 0.04254 0.50631 0.54189 0.0
C4488 C 0.03171 0.51052 0.52837 0.0
H4489 H 0.963 0.515 0.49676 0.0
H4490 H 0.9809 0.50855 0.51808 0.0
H4491 H 0.02106 0.51652 0.46446 0.0
H4492 H 0.07895 0.51263 0.53683 0.0
H4493 H 0.06168 0.51984 0.51481 0.0
C4494 C 0.52498 0.56552 0.54227 0.0
C4495 C 0.53259 0.56956 0.56793 0.0
C4496 C 0.52089 0.55145 0.52967 0.0
C4497 C 0.51596 0.51275 0.54499 0.0
H4498 H 0.51689 0.50977 0.46497 0.0
C4499 C 0.51077 0.4593 0.48874 0.0
C4500 C 0.50142 0.45398 0.46505 0.0
C4501 C 0.51425 0.4732 0.50127 0.0
C4502 C 0.51643 0.51033 0.48736 0.0
H4503 H 0.54129 0.56154 0.60088 0.0
H4504 H 0.53467 0.53745 0.57889 0.0
H4505 H 0.52347 0.53406 0.48651 0.0
H4506 H 0.48857 0.45942 0.43592 0.0
H4507 H 0.49482 0.48368 0.4574 0.0
H4508 H 0.50922 0.48906 0.54574 0.0
C4509 C 0.53165 0.54497 0.56834 0.0
C4510 C 0.52017 0.52433 0.49981 0.0
C4511 C 0.53566 0.55897 0.58091 0.0
C4512 C 0.49578 0.46308 0.45414 0.0
C4513 C 0.49945 0.47708 0.46641 0.0
C4514 C 0.51238 0.4988 0.53254 0.0
C4515 C 0.52421 0.54091 0.54241 0.0
C4516 C 0.52002 0.52584 0.5289 0.0
C4517 C 0.50871 0.48238 0.49024 0.0
C4518 C 0.51255 0.49734 0.50352 0.0
H4519 H 0.52236 0.57334 0.53168 0.0
H4520 H 0.51498 0.54881 0.50998 0.0
H4521 H 0.51533 0.51315 0.56735 0.0
H4522 H 0.51529 0.45263 0.49783 0.0
H4523 H 0.52149 0.47688 0.51944 0.0
C4524 C 0.56556 0.04053 0.45317 0.0
C4525 C 0.57568 0.05451 0.46582 0.0
C4526 C 0.5516 0.03028 0.46554 0.0
C4527 C 0.52276 0.02731 0.51711 0.0
H4528 H 0.50963 0.98436 0.5157 0.0
C4529 C 0.46873 0.98337 0.5775 0.0
C4530 C 0.45983 0.96851 0.56706 0.0
C4531 C 0.48271 0.99375 0.56529 0.0
C4532 C 0.51289 0.99625 0.51601 0.0
H4533 H 0.57846 0.06883 0.50116 0.0
H4534 H 0.55396 0.05109 0.52257 0.0
H4535 H 0.53375 1.00253 0.49454 0.0
H4536 H 0.459 0.95303 0.53536 0.0
H4537 H 0.48317 0.97107 0.51374 0.0
H4538 H 0.50183 0.0211 0.53806 0.0
C4539 C 0.55695 0.04796 0.50308 0.0
C4540 C 0.52687 1.00677 0.50385 0.0
C4541 C 0.57105 0.05818 0.49079 0.0
C4542 C 0.4655 0.96432 0.54411 0.0
C4543 C 0.4795 0.97474 0.53175 0.0
C4544 C 0.5087 0.01679 0.52905 0.0
C4545 C 0.54705 0.03373 0.49084 0.0
C4546 C 0.53209 0.0225 0.50418 0.0
C4547 C 0.48839 0.98971 0.54205 0.0
C4548 C 0.50346 1.00102 0.52884 0.0
H4549 H 0.56846 0.03744 0.43354 0.0
H4550 H 0.54428 0.01966 0.45502 0.0
H4551 H 0.52616 0.03925 0.51752 0.0
H4552 H 0.46494 0.98703 0.5954 0.0
H4553 H 0.48914 1.00491 0.5745 0.0
C4554 C 0.53972 0.97488 0.03563 0.0
C4555 C 0.53274 0.96716 0.06031 0.0
C4556 C 0.53641 0.98568 0.02431 0.0
C4557 C 0.50762 0.9985 0.02635 0.0
H4558 H 0.54013 0.03577 0.99537 0.0
C4559 C 0.49808 0.04844 0.99446 0.0
C4560 C 0.50554 0.05682 0.9706 0.0
C4561 C 0.50152 0.03769 1.00553 0.0
C4562 C 0.53083 0.02536 1.0036 0.0
H4563 H 0.5165 0.96471 0.09202 0.0
H4564 H 0.51078 0.98334 0.07245 0.0
H4565 H 0.54563 0.01658 1.01328 0.0
H4566 H 0.52263 0.06039 0.9399 0.0
H4567 H 0.52843 0.04166 0.95881 0.0
H4568 H 0.49279 1.0072 1.01658 0.0
C4569 C 0.51876 0.98104 0.06162 0.0
C4570 C 0.53401 0.0143 1.01392 0.0
C4571 C 0.52211 0.97033 0.07295 0.0
C4572 C 0.51668 0.05426 0.95839 0.0
C4573 C 0.52007 0.0435 0.96937 0.0
C4574 C 0.50443 1.00953 1.01597 0.0
C4575 C 0.52591 0.98898 0.0372 0.0
C4576 C 0.52246 1.00069 0.02554 0.0
C4577 C 0.51251 0.03496 0.99307 0.0
C4578 C 0.51597 0.02318 1.00444 0.0
H4579 H 0.54783 0.97265 0.0251 0.0
H4580 H 0.542 0.99136 1.00528 0.0
H4581 H 0.49834 0.98811 0.03469 0.0
H4582 H 0.4895 0.05012 1.00455 0.0
H4583 H 0.49559 0.03159 0.02403 0.0
C4584 C 0.97659 0.46713 0.95965 0.0
C4585 C 0.97398 0.45348 0.97203 0.0
C4586 C 0.98728 0.48127 0.97078 0.0
C4587 C 0.02121 0.49957 0.0173 0.0
H4588 H 1.01345 0.53326 1.01665 0.0
C4589 C 0.0609 0.55652 0.07397 0.0
C4590 C 0.06319 0.57017 0.06212 0.0
C4591 C 0.05019 0.54239 0.06282 0.0
C4592 C 1.01595 0.52407 1.0167 0.0
H4593 H 0.98046 0.4442 1.00645 0.0
H4594 H 0.99894 0.46878 0.02599 0.0
H4595 H 0.99444 0.50869 0.99818 0.0
H4596 H 0.05609 0.57949 0.02868 0.0
H4597 H 0.03772 0.55495 1.00892 0.0
H4598 H 0.04273 0.51495 0.0357 0.0
C4599 C 0.99291 0.46857 1.00731 0.0
C4600 C 1.00498 0.5099 1.00609 0.0
C4601 C 0.9822 0.45442 0.99618 0.0
C4602 C 0.05463 0.56926 0.03848 0.0
C4603 C 0.04396 0.55512 0.02725 0.0
C4604 C 0.03219 0.51376 0.02786 0.0
C4605 C 0.9957 0.48224 0.9947 0.0
C4606 C 1.00741 0.4974 1.00622 0.0
C4607 C 0.04147 0.54143 0.03934 0.0
C4608 C 0.02976 0.52626 0.02777 0.0
H4609 H 0.97056 0.46692 0.94097 0.0
H4610 H 0.98918 0.49146 0.96019 0.0
H4611 H 0.02367 0.49036 0.01738 0.0
H4612 H 0.06717 0.55671 0.09229 0.0
H4613 H 0.04853 0.5322 0.07307 0.0
C4614 C 0.46024 0.48911 0.03988 0.0
C4615 C 0.45932 0.49697 0.06318 0.0
C4616 C 0.4744 0.49272 0.02846 0.0
C4617 C 0.51559 0.52299 0.02795 0.0
H4618 H 0.52158 0.49055 1.00016 0.0
C4619 C 0.57552 0.5333 0.99729 0.0
C4620 C 0.5766 0.52577 0.97362 0.0
C4621 C 0.56128 0.52973 1.00825 0.0
C4622 C 0.52011 0.49981 1.00754 0.0
H4623 H 0.47281 0.51496 0.0925 0.0
H4624 H 0.49729 0.52106 0.073 0.0
H4625 H 0.49683 0.48467 0.01829 0.0
H4626 H 0.5633 0.50836 0.94322 0.0
H4627 H 0.53866 0.50225 0.9621 0.0
H4628 H 0.53891 0.53811 0.01731 0.0
C4629 C 0.4871 0.51225 0.06313 0.0
C4630 C 0.50583 0.49642 0.01794 0.0
C4631 C 0.47297 0.50868 0.07446 0.0
C4632 C 0.56301 0.51439 0.96154 0.0
C4633 C 0.5488 0.51082 0.97248 0.0
C4634 C 0.52988 0.52637 0.0176 0.0
C4635 C 0.48809 0.50429 0.04002 0.0
C4636 C 0.50332 0.50795 0.02837 0.0
C4637 C 0.54767 0.51848 0.99593 0.0
C4638 C 0.5324 0.51484 1.00724 0.0
H4639 H 0.45001 0.48008 0.03051 0.0
H4640 H 0.47459 0.48647 1.01042 0.0
H4641 H 0.51414 0.53227 0.03527 0.0
H4642 H 0.58569 0.54205 1.00729 0.0
H4643 H 0.56096 0.53573 0.02656 0.0
C4644 C 0.31701 0.20727 1.01607 0.0
C4645 C 0.30725 0.21344 0.01837 0.0
C4646 C 0.3283 0.21206 0.9949 0.0
C4647 C 0.33895 0.23007 0.92384 0.0
H4648 H 0.38032 0.24053 0.94138 0.0
C4649 C 0.38429 0.24391 0.83571 0.0
C4650 C 0.3992 0.25636 0.83884 0.0
C4651 C 0.3737 0.23843 0.85784 0.0
C4652 C 0.36886 0.2377 0.9359 0.0
H4653 H 0.3021 0.22957 0.9991 0.0
H4654 H 0.32083 0.23707 0.96169 0.0
H4655 H 0.36082 0.23115 0.97798 0.0
H4656 H 0.41449 0.27217 0.86947 0.0
H4657 H 0.39623 0.26236 0.90833 0.0
H4658 H 0.34676 0.2362 0.88177 0.0
C4659 C 0.31998 0.22867 0.97648 0.0
C4660 C 0.35753 0.23215 0.95707 0.0
C4661 C 0.30907 0.22427 0.99808 0.0
C4662 C 0.40327 0.26256 0.86584 0.0
C4663 C 0.39264 0.25691 0.88827 0.0
C4664 C 0.35014 0.23521 0.9026 0.0
C4665 C 0.33008 0.2229 0.97454 0.0
C4666 C 0.34229 0.22831 0.95162 0.0
C4667 C 0.37745 0.2449 0.88465 0.0
C4668 C 0.36544 0.23929 0.90802 0.0
H4669 H 0.3164 0.19923 0.03147 0.0
H4670 H 0.33568 0.20721 0.99447 0.0
H4671 H 0.3275 0.22726 0.91831 0.0
H4672 H 0.38059 0.23854 0.81562 0.0
H4673 H 0.3624 0.22904 0.85375 0.0
C4674 C 0.82585 0.11256 1.01086 0.0
C4675 C 0.81654 0.09735 0.01953 0.0
C4676 C 0.82125 0.11901 0.9892 0.0
C4677 C 0.78592 0.11222 0.94798 0.0
H4678 H 0.81495 0.14412 0.90029 0.0
C4679 C 0.766 0.14183 0.86474 0.0
C4680 C 0.77379 0.14641 0.83919 0.0
C4681 C 0.77149 0.13666 0.88705 0.0
C4682 C 0.80653 0.13515 0.91317 0.0
H4683 H 0.79501 0.07712 1.01055 0.0
H4684 H 0.78732 0.08799 0.97344 0.0
H4685 H 0.82387 0.13367 0.93658 0.0
H4686 H 0.79386 0.14927 0.8181 0.0
H4687 H 0.80344 0.14072 0.85641 0.0
H4688 H 0.76858 0.1135 0.92434 0.0
C4689 C 0.79807 0.09525 0.98357 0.0
C4690 C 0.81175 0.12918 0.93452 0.0
C4691 C 0.80265 0.08886 1.00501 0.0
C4692 C 0.78751 0.14605 0.83734 0.0
C4693 C 0.79308 0.1411 0.85964 0.0
C4694 C 0.78072 0.11824 0.92676 0.0
C4695 C 0.80709 0.11056 0.97523 0.0
C4696 C 0.80159 0.11745 0.95244 0.0
C4697 C 0.78513 0.13602 0.88503 0.0
C4698 C 0.79085 0.12982 0.90863 0.0
H4699 H 0.83654 0.11968 0.02136 0.0
H4700 H 0.8287 0.13082 0.984 0.0
H4701 H 0.77748 0.10345 0.96114 0.0
H4702 H 0.75531 0.14165 0.86715 0.0
H4703 H 0.7649 0.13311 0.90598 0.0
C4704 C 0.88563 0.62839 0.86545 0.0
C4705 C 0.88336 0.63234 0.83846 0.0
C4706 C 0.89064 0.63908 0.88777 0.0
C4707 C 0.91095 0.68158 0.90196 0.0
H4708 H 0.89651 0.67073 0.97743 0.0
C4709 C 0.94055 0.72316 0.99687 0.0
C4710 C 0.93151 0.72437 0.0179 0.0
C4711 C 0.93419 0.71224 0.97526 0.0
C4712 C 0.90071 0.67408 0.95649 0.0
H4713 H 0.88394 0.6508 0.81512 0.0
H4714 H 0.89272 0.66914 0.85308 0.0
H4715 H 0.88661 0.65126 0.94078 0.0
H4716 H 0.90828 0.71419 0.03229 0.0
H4717 H 0.89721 0.69495 0.99517 0.0
H4718 H 0.92526 0.70427 0.91765 0.0
C4719 C 0.89091 0.65788 0.85723 0.0
C4720 C 0.89506 0.66276 0.9353 0.0
C4721 C 0.88577 0.64721 0.8352 0.0
C4722 C 0.9157 0.71403 1.01632 0.0
C4723 C 0.90935 0.70277 0.99506 0.0
C4724 C 0.91683 0.69277 0.92321 0.0
C4725 C 0.8937 0.65422 0.88405 0.0
C4726 C 0.89997 0.66624 0.9074 0.0
C4727 C 0.91845 0.70158 0.97399 0.0
C4728 C 0.91183 0.68937 0.95103 0.0
H4729 H 0.88405 0.61718 0.86916 0.0
H4730 H 0.89257 0.63558 0.90783 0.0
H4731 H 0.91526 0.68498 0.88112 0.0
H4732 H 0.95276 0.73061 0.99733 0.0
H4733 H 0.94177 0.71185 0.95993 0.0
C4734 C 0.21902 0.31401 0.50473 0.0
C4735 C 0.21725 0.29934 0.50739 0.0
C4736 C 0.22392 0.32454 0.52706 0.0
C4737 C 0.2291 0.32913 0.60551 0.0
H4738 H 0.25671 0.37137 0.58785 0.0
C4739 C 0.2485 0.37938 0.68898 0.0
C4740 C 0.26395 0.39101 0.68896 0.0
C4741 C 0.24234 0.3681 0.66764 0.0
C4742 C 0.24902 0.35967 0.59348 0.0
H4743 H 0.21894 0.28445 0.53743 0.0
H4744 H 0.2271 0.30257 0.57652 0.0
H4745 H 0.24709 0.35229 0.551 0.0
H4746 H 0.28471 0.39947 0.66529 0.0
H4747 H 0.27398 0.38063 0.628 0.0
H4748 H 0.23095 0.33666 0.64808 0.0
C4749 C 0.22478 0.30603 0.55674 0.0
C4750 C 0.24334 0.34856 0.572 0.0
C4751 C 0.21997 0.29547 0.53414 0.0
C4752 C 0.27275 0.391 0.66622 0.0
C4753 C 0.26653 0.38002 0.64462 0.0
C4754 C 0.23456 0.34033 0.62699 0.0
C4755 C 0.22719 0.32099 0.55364 0.0
C4756 C 0.23326 0.33294 0.57733 0.0
C4757 C 0.25121 0.36811 0.64484 0.0
C4758 C 0.24477 0.35592 0.6216 0.0
H4759 H 0.21692 0.31758 0.48486 0.0
H4760 H 0.22521 0.33562 0.52328 0.0
H4761 H 0.22137 0.31742 0.61105 0.0
H4762 H 0.24129 0.3786 0.70618 0.0
H4763 H 0.23052 0.35933 0.66904 0.0
C4764 C 0.64333 0.89386 0.66997 0.0
C4765 C 0.63913 0.88072 0.68616 0.0
C4766 C 0.65442 0.89863 0.64865 0.0
C4767 C 0.67705 0.88613 0.6027 0.0
H4768 H 0.70188 0.92928 0.58866 0.0
C4769 C 0.71815 0.90999 0.50518 0.0
C4770 C 0.73173 0.92421 0.50639 0.0
C4771 C 0.70756 0.90443 0.52741 0.0
C4772 C 0.69523 0.91716 0.59218 0.0
H4773 H 0.64362 0.86214 0.69078 0.0
H4774 H 0.66268 0.87021 0.65356 0.0
H4775 H 0.68273 0.92022 0.62521 0.0
H4776 H 0.74434 0.94365 0.5331 0.0
H4777 H 0.72605 0.93413 0.57168 0.0
H4778 H 0.68966 0.88311 0.56971 0.0
C4779 C 0.65736 0.87699 0.65746 0.0
C4780 C 0.6839 0.91185 0.61326 0.0
C4781 C 0.64626 0.87224 0.67905 0.0
C4782 C 0.73429 0.93255 0.53122 0.0
C4783 C 0.72354 0.92709 0.55339 0.0
C4784 C 0.6883 0.89144 0.58142 0.0
C4785 C 0.66195 0.89049 0.64192 0.0
C4786 C 0.67442 0.89617 0.61916 0.0
C4787 C 0.70978 0.91291 0.55204 0.0
C4788 C 0.69773 0.90713 0.57551 0.0
H4789 H 0.63819 0.90078 0.67417 0.0
H4790 H 0.65702 0.90882 0.6373 0.0
H4791 H 0.67019 0.874 0.60586 0.0
H4792 H 0.71547 0.90321 0.48648 0.0
H4793 H 0.69725 0.89363 0.52467 0.0
C4794 C 0.09849 0.80878 0.53098 0.0
C4795 C 0.10659 0.81411 0.50585 0.0
C4796 C 0.104 0.80351 0.55313 0.0
C4797 C 0.1395 0.80284 0.57974 0.0
H4798 H 0.1106 0.77017 0.62626 0.0
C4799 C 0.15906 0.77991 0.67687 0.0
C4800 C 0.14992 0.76459 0.68515 0.0
C4801 C 0.15439 0.78637 0.65531 0.0
C4802 C 0.11902 0.77922 0.61352 0.0
H4803 H 0.12722 0.81812 0.48536 0.0
H4804 H 0.13683 0.80941 0.52336 0.0
H4805 H 0.10157 0.78027 0.58977 0.0
H4806 H 0.12866 0.74422 0.67548 0.0
H4807 H 0.12086 0.75511 0.63856 0.0
H4808 H 0.15695 0.8016 0.60327 0.0
C4809 C 0.12621 0.80928 0.52643 0.0
C4810 C 0.11372 0.78526 0.59246 0.0
C4811 C 0.12063 0.81434 0.50429 0.0
C4812 C 0.13617 0.75603 0.67025 0.0
C4813 C 0.13152 0.76244 0.64892 0.0
C4814 C 0.14481 0.79684 0.60094 0.0
C4815 C 0.11798 0.80348 0.55139 0.0
C4816 C 0.12379 0.79721 0.57483 0.0
C4817 C 0.14034 0.77786 0.64101 0.0
C4818 C 0.13472 0.78476 0.61836 0.0
H4819 H 0.08755 0.80809 0.53316 0.0
H4820 H 0.09717 0.79939 0.57171 0.0
H4821 H 0.14789 0.81208 0.5673 0.0
H4822 H 0.16962 0.7871 0.68767 0.0
H4823 H 0.1617 0.79826 0.65046 0.0
C4824 C 0.63412 0.75999 0.16903 0.0
C4825 C 0.63802 0.76648 0.19586 0.0
C4826 C 0.6447 0.76572 0.14652 0.0
C4827 C 0.68722 0.78884 0.13186 0.0
H4828 H 0.67589 0.79085 0.05594 0.0
C4829 C 0.72901 0.80062 0.03706 0.0
C4830 C 0.73004 0.81065 1.01573 0.0
C4831 C 0.71802 0.79601 0.05859 0.0
C4832 C 0.67937 0.79044 0.077 0.0
H4833 H 0.65632 0.78487 0.21864 0.0
H4834 H 0.67442 0.79459 0.18036 0.0
H4835 H 0.65647 0.78128 0.09268 0.0
H4836 H 0.71938 0.82316 1.00078 0.0
H4837 H 0.69999 0.81481 0.03765 0.0
H4838 H 0.71001 0.7976 0.11621 0.0
C4839 C 0.66329 0.7849 0.17646 0.0
C4840 C 0.66809 0.78478 0.09827 0.0
C4841 C 0.65273 0.77929 0.19869 0.0
C4842 C 0.71938 0.81577 1.01693 0.0
C4843 C 0.70803 0.81076 0.03808 0.0
C4844 C 0.6984 0.79411 0.11055 0.0
C4845 C 0.65972 0.77814 0.14984 0.0
C4846 C 0.67172 0.78391 0.12637 0.0
C4847 C 0.70706 0.80074 0.05952 0.0
C4848 C 0.69483 0.79515 0.08253 0.0
H4849 H 0.62306 0.75008 0.16563 0.0
H4850 H 0.64124 0.76003 0.12666 0.0
H4851 H 0.6908 0.78843 0.15284 0.0
H4852 H 0.7367 0.79613 0.03698 0.0
H4853 H 0.71784 0.78827 0.0742 0.0
C4854 C 0.22823 0.93408 0.03594 0.0
C4855 C 0.21794 0.92495 1.015 0.0
C4856 C 0.23293 0.92784 0.05753 0.0
C4857 C 0.23728 0.89406 0.07713 0.0
H4858 H 0.24275 0.91033 0.15158 0.0
C4859 C 0.26843 0.87945 0.16816 0.0
C4860 C 0.26278 0.87804 0.19547 0.0
C4861 C 0.26262 0.88425 0.1457 0.0
C4862 C 0.24132 0.90552 0.13101 0.0
H4863 H 0.20495 0.90167 1.0009 0.0
H4864 H 0.21329 0.8908 0.03811 0.0
H4865 H 0.23322 0.92001 0.11495 0.0
H4866 H 0.24569 0.8799 0.2192 0.0
H4867 H 0.23599 0.88839 0.18107 0.0
H4868 H 0.24566 0.87974 0.09329 0.0
C4869 C 0.21758 0.90293 0.03807 0.0
C4870 C 0.23587 0.91123 0.10966 0.0
C4871 C 0.21256 0.90917 1.01675 0.0
C4872 C 0.25071 0.88109 0.19891 0.0
C4873 C 0.24509 0.88605 0.17674 0.0
C4874 C 0.24304 0.88856 0.09844 0.0
C4875 C 0.22793 0.91212 0.05904 0.0
C4876 C 0.23363 0.90563 0.08214 0.0
C4877 C 0.25099 0.88799 0.14957 0.0
C4878 C 0.24513 0.89408 0.12603 0.0
H4879 H 0.23293 0.94627 0.0354 0.0
H4880 H 0.24096 0.93552 0.07269 0.0
H4881 H 0.23594 0.88939 0.05646 0.0
H4882 H 0.2777 0.87731 0.16425 0.0
H4883 H 0.26762 0.88549 0.12537 0.0
C4884 C 0.15051 0.3759 0.19782 0.0
C4885 C 0.15277 0.39072 0.1945 0.0
C4886 C 0.14539 0.36517 0.17586 0.0
C4887 C 0.14123 0.35993 0.09787 0.0
H4888 H 0.11078 0.31856 0.1158 0.0
C4889 C 0.12057 0.30818 0.01764 0.0
C4890 C 0.10475 0.2979 1.01589 0.0
C4891 C 0.1269 0.31957 0.03873 0.0
C4892 C 0.11928 0.33002 0.11015 0.0
H4893 H 0.15189 0.40571 0.16366 0.0
H4894 H 0.14347 0.38724 0.1251 0.0
H4895 H 0.12081 0.33799 0.15212 0.0
H4896 H 0.08346 0.29188 0.03613 0.0
H4897 H 0.0944 0.31084 0.07322 0.0
H4898 H 0.13987 0.35177 0.05589 0.0
C4899 C 0.14546 0.38381 0.14519 0.0
C4900 C 0.12517 0.3413 0.13128 0.0
C4901 C 0.15041 0.39456 0.16746 0.0
C4902 C 0.09567 0.29928 0.03667 0.0
C4903 C 0.10201 0.31032 0.05811 0.0
C4904 C 0.13559 0.34853 0.0768 0.0
C4905 C 0.1425 0.36871 0.14901 0.0
C4906 C 0.13623 0.3566 0.12575 0.0
C4907 C 0.11776 0.32094 0.05952 0.0
C4908 C 0.12438 0.33327 0.08235 0.0
H4909 H 0.15239 0.37238 0.21792 0.0
H4910 H 0.14365 0.35395 0.18009 0.0
H4911 H 0.14974 0.3714 0.0923 0.0
H4912 H 0.12804 0.30789 1.00192 0.0
H4913 H 0.13905 0.32733 0.03872 0.0
C4914 C 0.82006 0.71199 0.52964 0.0
C4915 C 0.81943 0.72558 0.52826 0.0
C4916 C 0.81509 0.70136 0.50745 0.0
C4917 C 0.7904 0.68909 0.44219 0.0
H4918 H 0.80843 0.66381 0.42947 0.0
C4919 C 0.76228 0.6376 0.36357 0.0
C4920 C 0.77116 0.63289 0.34839 0.0
C4921 C 0.76848 0.64864 0.385 0.0
C4922 C 0.80318 0.67073 0.43233 0.0
H4923 H 0.81265 0.73815 0.50136 0.0
H4924 H 0.80402 0.71981 0.46281 0.0
H4925 H 0.81861 0.68329 0.4656 0.0
H4926 H 0.79405 0.63665 0.34531 0.0
H4927 H 0.80486 0.65575 0.38251 0.0
H4928 H 0.77511 0.67673 0.40879 0.0
C4929 C 0.80847 0.71731 0.4812 0.0
C4930 C 0.80901 0.68199 0.45362 0.0
C4931 C 0.81369 0.7281 0.50335 0.0
C4932 C 0.78661 0.63962 0.35635 0.0
C4933 C 0.79287 0.65075 0.37795 0.0
C4934 C 0.78452 0.67779 0.42104 0.0
C4935 C 0.80893 0.70356 0.4827 0.0
C4936 C 0.80279 0.69151 0.45921 0.0
C4937 C 0.78401 0.65575 0.39266 0.0
C4938 C 0.79068 0.66821 0.41548 0.0
H4939 H 0.82412 0.70934 0.54842 0.0
H4940 H 0.81558 0.69105 0.51031 0.0
H4941 H 0.78496 0.69581 0.44544 0.0
H4942 H 0.75036 0.63288 0.35857 0.0
H4943 H 0.76089 0.65154 0.39566 0.0
C4944 C 0.30342 0.09187 0.50204 0.0
C4945 C 0.30622 0.09997 0.52721 0.0
C4946 C 0.31418 0.09731 0.4799 0.0
C4947 C 0.34988 0.13268 0.45272 0.0
H4948 H 0.35458 0.10377 0.40764 0.0
C4949 C 0.39164 0.15167 0.35479 0.0
C4950 C 0.39855 0.14301 0.34755 0.0
C4951 C 0.38058 0.14702 0.37642 0.0
C4952 C 0.35364 0.11217 0.41996 0.0
H4953 H 0.32286 0.12056 0.54777 0.0
H4954 H 0.34114 0.1301 0.50965 0.0
H4955 H 0.33545 0.09478 0.44423 0.0
H4956 H 0.39918 0.12275 0.35926 0.0
H4957 H 0.38044 0.11489 0.39624 0.0
H4958 H 0.36819 0.15009 0.42858 0.0
C4959 C 0.33064 0.1195 0.50664 0.0
C4960 C 0.34234 0.10691 0.44106 0.0
C4961 C 0.32003 0.11395 0.52882 0.0
C4962 C 0.39422 0.12982 0.36362 0.0
C4963 C 0.38318 0.12515 0.38498 0.0
C4964 C 0.3611 0.13796 0.43142 0.0
C4965 C 0.32816 0.11125 0.48166 0.0
C4966 C 0.34017 0.11699 0.45818 0.0
C4967 C 0.37584 0.13346 0.39182 0.0
C4968 C 0.3634 0.12785 0.41454 0.0
H4969 H 0.29314 0.08098 0.49981 0.0
H4970 H 0.31147 0.09048 0.46129 0.0
H4971 H 0.34876 0.14105 0.46481 0.0
H4972 H 0.39438 0.16182 0.34311 0.0
H4973 H 0.37541 0.15392 0.38047 0.0
C4974 C 0.91632 0.2099 0.52939 0.0
C4975 C 0.93038 0.21021 0.52769 0.0
C4976 C 0.91063 0.21485 0.50727 0.0
C4977 C 0.92289 0.23894 0.44158 0.0
H4978 H 0.87959 0.22175 0.43003 0.0
C4979 C 0.8998 0.26772 0.36434 0.0
C4980 C 0.88629 0.25895 0.34895 0.0
C4981 C 0.90453 0.26139 0.38565 0.0
C4982 C 0.89175 0.22674 0.43259 0.0
H4983 H 0.94938 0.21624 0.50024 0.0
H4984 H 0.93959 0.22481 0.46175 0.0
H4985 H 0.88886 0.21141 0.46596 0.0
H4986 H 0.86708 0.23619 0.34543 0.0
H4987 H 0.87515 0.22514 0.3826 0.0
H4988 H 0.92584 0.25414 0.40809 0.0
C4989 C 0.93281 0.22069 0.48039 0.0
C4990 C 0.89716 0.22084 0.45374 0.0
C4991 C 0.93842 0.21551 0.5025 0.0
C4992 C 0.87744 0.24352 0.35668 0.0
C4993 C 0.88219 0.23713 0.3782 0.0
C4994 C 0.9175 0.2449 0.42059 0.0
C4995 C 0.9188 0.22062 0.48225 0.0
C4996 C 0.9129 0.22678 0.45888 0.0
C4997 C 0.89604 0.24586 0.39298 0.0
C4998 C 0.90177 0.23905 0.41552 0.0
H4999 H 0.90978 0.20613 0.54837 0.0
H5000 H 0.89997 0.21466 0.51036 0.0
H5001 H 0.93505 0.24415 0.44451 0.0
H5002 H 0.90706 0.27963 0.3595 0.0
H5003 H 0.91501 0.26885 0.39644 0.0
C5004 C 0.05144 0.57635 0.1724 0.0
C5005 C 0.06478 0.59077 0.1735 0.0
C5006 C 0.04087 0.5706 0.19468 0.0
C5007 C 0.02748 0.58281 0.25839 0.0
H5008 H 1.00525 0.53981 0.27542 0.0
C5009 C 0.97534 0.55763 0.33567 0.0
C5010 C 0.97256 0.54556 0.35385 0.0
C5011 C 0.98641 0.56257 0.31431 0.0
C5012 C 1.01131 0.55189 0.27126 0.0
H5013 H 0.07691 0.61043 0.19995 0.0
H5014 H 0.05857 0.60064 0.23848 0.0
H5015 H 0.02455 0.54937 0.2388 0.0
H5016 H 0.97958 0.52903 0.36201 0.0
H5017 H 0.99857 0.53732 0.32451 0.0
H5018 H 1.01425 0.58536 0.29068 0.0
C5019 C 0.0563 0.59356 0.22032 0.0
C5020 C 0.02245 0.55745 0.24978 0.0
C5021 C 0.06706 0.59918 0.19817 0.0
C5022 C 0.98108 0.53824 0.34868 0.0
C5023 C 0.99215 0.54313 0.32697 0.0
C5024 C 1.01621 0.57723 0.27958 0.0
C5025 C 0.04285 0.57911 0.21916 0.0
C5026 C 0.03089 0.57308 0.24274 0.0
C5027 C 0.99532 0.55564 0.30948 0.0
C5028 C 1.00775 0.5616 0.28666 0.0
H5029 H 0.04897 0.56951 0.15382 0.0
H5030 H 0.03078 0.55959 0.19216 0.0
H5031 H 0.03337 0.59486 0.25396 0.0
H5032 H 0.96914 0.56366 0.3384 0.0
H5033 H 0.98794 0.57195 0.30144 0.0
C5034 C 0.47462 0.42357 0.3346 0.0
C5035 C 0.48575 0.43264 0.35451 0.0
C5036 C 0.46972 0.4299 0.31357 0.0
C5037 C 0.47961 0.46562 0.27317 0.0
H5038 H 0.43657 0.4447 0.25583 0.0
C5039 C 0.45446 0.48016 0.17391 0.0
C5040 C 0.44028 0.47962 0.1756 0.0
C5041 C 0.46039 0.47558 0.19625 0.0
C5042 C 0.44864 0.45084 0.26029 0.0
H5043 H 0.5009 0.45607 0.36596 0.0
H5044 H 0.49283 0.46718 0.32867 0.0
H5045 H 0.44622 0.43495 0.29224 0.0
H5046 H 0.42129 0.47345 0.20314 0.0
H5047 H 0.43136 0.46521 0.24177 0.0
H5048 H 0.48203 0.48136 0.2408 0.0
C5049 C 0.48763 0.45495 0.32976 0.0
C5050 C 0.45427 0.4451 0.28127 0.0
C5051 C 0.49238 0.44854 0.35128 0.0
C5052 C 0.43234 0.47438 0.2009 0.0
C5053 C 0.43811 0.46943 0.2231 0.0
C5054 C 0.47401 0.4712 0.25178 0.0
C5055 C 0.4759 0.44574 0.31073 0.0
C5056 C 0.46991 0.45231 0.28831 0.0
C5057 C 0.45227 0.46983 0.2213 0.0
C5058 C 0.45835 0.46397 0.24479 0.0
H5059 H 0.46922 0.41131 0.33577 0.0
H5060 H 0.46097 0.42223 0.29939 0.0
H5061 H 0.4917 0.47163 0.27744 0.0
H5062 H 0.46093 0.48387 0.15483 0.0
H5063 H 0.47117 0.47601 0.19337 0.0
C5064 C 0.60736 0.05535 0.33268 0.0
C5065 C 0.59823 0.05742 0.35239 0.0
C5066 C 0.60099 0.04452 0.31096 0.0
C5067 C 0.56596 1.00798 0.28951 0.0
H5068 H 0.58413 0.0177 0.21639 0.0
C5069 C 0.5503 0.9618 0.19902 0.0
C5070 C 0.54965 0.96634 0.17157 0.0
C5071 C 0.55534 0.97237 0.22153 0.0
C5072 C 0.5788 0.01464 0.23659 0.0
H5073 H 0.5748 0.04894 0.36415 0.0
H5074 H 0.56367 0.02992 0.32669 0.0
H5075 H 0.59421 0.03685 0.25312 0.0
H5076 H 0.55327 0.98588 0.14752 0.0
H5077 H 0.5621 1.00393 0.1858 0.0
H5078 H 0.5507 0.98563 0.27291 0.0
C5079 C 0.57592 0.03694 0.32783 0.0
C5080 C 0.58471 0.02574 0.25798 0.0
C5081 C 0.58233 0.04808 0.34927 0.0
C5082 C 0.55374 0.98175 0.16799 0.0
C5083 C 0.55893 0.99227 0.19021 0.0
C5084 C 0.56023 0.99673 0.2682 0.0
C5085 C 0.58511 0.03486 0.30813 0.0
C5086 C 0.57843 0.02276 0.28499 0.0
C5087 C 0.56009 0.98797 0.21753 0.0
C5088 C 0.56644 0.99981 0.24111 0.0
H5089 H 0.61963 0.06202 0.3343 0.0
H5090 H 0.60865 0.04342 0.29677 0.0
H5091 H 0.56074 1.00495 0.3098 0.0
H5092 H 0.54741 0.95018 0.20301 0.0
H5093 H 0.55598 0.96839 0.24202 0.0
C5094 C 0.45343 0.97717 0.67982 0.0
C5095 C 0.43769 0.96646 0.67883 0.0
C5096 C 0.45984 0.98853 0.70096 0.0
C5097 C 0.45276 0.99842 0.77363 0.0
H5098 H 0.48338 0.0398 0.75626 0.0
C5099 C 0.48454 0.04363 0.86233 0.0
C5100 C 0.48746 0.05871 0.85934 0.0
C5101 C 0.47916 0.03302 0.84013 0.0
C5102 C 0.47482 0.02834 0.76173 0.0
H5103 H 0.41662 0.95975 0.70051 0.0
H5104 H 0.4277 0.97875 0.73756 0.0
H5105 H 0.47312 0.02043 0.71947 0.0
H5106 H 0.48738 0.07423 0.82875 0.0
H5107 H 0.47847 0.05595 0.78981 0.0
H5108 H 0.4546 1.00615 0.81586 0.0
C5109 C 0.43521 0.97856 0.72183 0.0
C5110 C 0.46895 0.01706 0.7404 0.0
C5111 C 0.42878 0.9675 0.70036 0.0
C5112 C 0.48544 0.06287 0.83233 0.0
C5113 C 0.48019 0.05223 0.80983 0.0
C5114 C 0.45886 1.00958 0.795 0.0
C5115 C 0.45089 0.98953 0.72262 0.0
C5116 C 0.45767 1.00178 0.74572 0.0
C5117 C 0.47659 0.03689 0.81329 0.0
C5118 C 0.47002 0.0249 0.78972 0.0
H5119 H 0.46079 0.97712 0.6636 0.0
H5120 H 0.47192 0.99654 0.70039 0.0
H5121 H 0.44424 0.98696 0.7792 0.0
H5122 H 0.48608 0.0398 0.88238 0.0
H5123 H 0.47695 0.02162 0.84419 0.0
C5124 C 0.05398 0.48222 0.68337 0.0
C5125 C 0.06419 0.47659 0.68113 0.0
C5126 C 0.04277 0.47725 0.70475 0.0
C5127 C 0.03265 0.45872 0.77608 0.0
H5128 H 0.99161 0.44994 0.76033 0.0
C5129 C 0.98803 0.4451 0.86585 0.0
C5130 C 0.97288 0.4331 0.86266 0.0
C5131 C 0.99857 0.45048 0.84359 0.0
C5132 C 1.00298 0.45227 0.76532 0.0
H5133 H 0.0702 0.46117 0.70082 0.0
H5134 H 0.05146 0.45318 0.73824 0.0
H5135 H 1.01085 0.45933 0.72332 0.0
H5136 H 0.95712 0.41809 0.83166 0.0
H5137 H 0.97527 0.42779 0.79261 0.0
H5138 H 0.02495 0.45196 0.81808 0.0
C5139 C 0.05193 0.46138 0.72336 0.0
C5140 C 1.01418 0.45784 0.74389 0.0
C5141 C 0.06284 0.46604 0.70168 0.0
C5142 C 0.96856 0.4273 0.83543 0.0
C5143 C 0.97911 0.43289 0.81286 0.0
C5144 C 0.02158 0.4535 0.79758 0.0
C5145 C 0.04144 0.46668 0.72537 0.0
C5146 C 0.02932 0.46112 0.74864 0.0
C5147 C 0.99452 0.44443 0.81651 0.0
C5148 C 1.0064 0.45004 0.79283 0.0
H5149 H 0.05428 0.49009 0.66792 0.0
H5150 H 0.03513 0.4818 0.70517 0.0
H5151 H 0.04401 0.46108 0.78119 0.0
H5152 H 0.99193 0.45027 0.88604 0.0
H5153 H 1.01005 0.45951 0.84777 0.0
C5154 C 0.54617 0.5756 0.68549 0.0
C5155 C 0.5525 0.59147 0.68229 0.0
C5156 C 0.55105 0.56936 0.70705 0.0
C5157 C 0.57069 0.57839 0.77727 0.0
H5158 H 0.57835 0.5453 0.76244 0.0
C5159 C 0.58472 0.54809 0.8675 0.0
C5160 C 0.59657 0.54473 0.8641 0.0
C5161 C 0.57917 0.55307 0.84524 0.0
C5162 C 0.57633 0.55457 0.76714 0.0
H5163 H 0.56904 0.61295 0.7004 0.0
H5164 H 0.57683 0.60226 0.73815 0.0
H5165 H 0.56871 0.5549 0.72536 0.0
H5166 H 0.61114 0.54338 0.83284 0.0
H5167 H 0.60112 0.55151 0.79378 0.0
H5168 H 0.57802 0.57794 0.81906 0.0
C5169 C 0.56817 0.5945 0.72391 0.0
C5170 C 0.57062 0.56005 0.74571 0.0
C5171 C 0.56362 0.60071 0.70204 0.0
C5172 C 0.60205 0.54579 0.83674 0.0
C5173 C 0.59628 0.55056 0.81418 0.0
C5174 C 0.57605 0.5727 0.79879 0.0
C5175 C 0.5622 0.57868 0.72683 0.0
C5176 C 0.56776 0.57219 0.75015 0.0
C5177 C 0.58489 0.55464 0.81801 0.0
C5178 C 0.57911 0.56069 0.79433 0.0
H5179 H 0.53787 0.56797 0.6706 0.0
H5180 H 0.546 0.55714 0.70823 0.0
H5181 H 0.56867 0.58764 0.78208 0.0
H5182 H 0.57978 0.54711 0.88781 0.0
H5183 H 0.57026 0.5557 0.84951 0.0
C5184 C 0.20998 0.23832 0.35501 0.0
C5185 C 0.21979 0.25306 0.36583 0.0
C5186 C 0.21404 0.23254 0.3312 0.0
C5187 C 0.24082 0.24553 0.26833 0.0
H5188 H 0.23224 0.20401 0.26246 0.0
C5189 C 0.26575 0.22815 0.17309 0.0
C5190 C 0.26162 0.21299 0.166 0.0
C5191 C 0.26002 0.23199 0.19671 0.0
C5192 C 0.23475 0.21567 0.26311 0.0
H5193 H 0.24162 0.27291 0.35829 0.0
H5194 H 0.24838 0.26338 0.31766 0.0
H5195 H 0.22344 0.21214 0.30289 0.0
H5196 H 0.24723 0.18995 0.18029 0.0
H5197 H 0.23673 0.19643 0.22069 0.0
H5198 H 0.25151 0.24927 0.22878 0.0
C5199 C 0.23752 0.25605 0.32737 0.0
C5200 C 0.22958 0.2204 0.28684 0.0
C5201 C 0.23362 0.26162 0.35123 0.0
C5202 C 0.25093 0.20177 0.1842 0.0
C5203 C 0.24491 0.20565 0.20799 0.0
C5204 C 0.24573 0.24079 0.24456 0.0
C5205 C 0.22795 0.2413 0.31657 0.0
C5206 C 0.23266 0.23557 0.29035 0.0
C5207 C 0.2493 0.22098 0.21515 0.0
C5208 C 0.24315 0.22574 0.24109 0.0
H5209 H 0.19932 0.23104 0.36532 0.0
H5210 H 0.20611 0.22116 0.3241 0.0
H5211 H 0.24334 0.2572 0.26916 0.0
H5212 H 0.27385 0.23747 0.1604 0.0
H5213 H 0.26446 0.24395 0.20036 0.0
C5214 C 0.8107 0.03907 0.16606 0.0
C5215 C 0.82061 0.05501 0.16732 0.0
C5216 C 0.80667 0.02953 0.18987 0.0
C5217 C 0.80505 0.02976 0.26948 0.0
H5218 H 0.79512 0.9878 0.26269 0.0
C5219 C 0.77582 0.98635 0.36272 0.0
C5220 C 0.77766 0.9735 0.36669 0.0
C5221 C 0.78162 0.99604 0.33917 0.0
C5222 C 0.79786 0.99947 0.26545 0.0
H5223 H 0.8336 0.07303 0.19664 0.0
H5224 H 0.8266 0.05661 0.23803 0.0
H5225 H 0.80417 1.00459 0.22235 0.0
H5226 H 0.78749 0.96131 0.34681 0.0
H5227 H 0.7977 0.97812 0.30615 0.0
H5228 H 0.79878 0.02471 0.3125 0.0
C5229 C 0.82201 0.05133 0.21817 0.0
C5230 C 0.80302 1.00927 0.24177 0.0
C5231 C 0.8263 0.06089 0.19407 0.0
C5232 C 0.78574 0.97096 0.34534 0.0
C5233 C 0.79156 0.98071 0.32152 0.0
C5234 C 0.79973 0.01993 0.29307 0.0
C5235 C 0.81197 0.03531 0.21685 0.0
C5236 C 0.80676 0.02475 0.24294 0.0
C5237 C 0.78971 0.99362 0.31769 0.0
C5238 C 0.79589 1.00441 0.2919 0.0
H5239 H 0.80571 0.03386 0.14633 0.0
H5240 H 0.79884 0.01752 0.18705 0.0
H5241 H 0.80755 0.04136 0.27209 0.0
H5242 H 0.76972 0.98905 0.37801 0.0
H5243 H 0.77941 1.00539 0.33774 0.0
C5244 C 0.98751 0.76581 0.17302 0.0
C5245 C 0.9761 0.76954 0.16633 0.0
C5246 C 0.99694 0.77147 0.19684 0.0
C5247 C 1.01228 0.80195 0.25366 0.0
H5248 H 0.02342 0.77463 0.28877 0.0
C5249 C 0.05881 0.82157 0.34628 0.0
C5250 C 0.05698 0.81078 0.36683 0.0
C5251 C 0.04908 0.81749 0.32234 0.0
C5252 C 0.02052 0.78259 0.27967 0.0
H5253 H 0.96678 0.78331 0.18127 0.0
H5254 H 0.9835 0.79355 0.22242 0.0
H5255 H 1.0066 0.7662 0.24875 0.0
H5256 H 0.04251 0.78697 0.37688 0.0
H5257 H 0.02633 0.78003 0.33629 0.0
H5258 H 0.02638 0.81838 0.28486 0.0
C5259 C 0.98491 0.78584 0.20889 0.0
C5260 C 1.01078 0.7777 0.25601 0.0
C5261 C 0.97516 0.77989 0.18494 0.0
C5262 C 0.04483 0.79581 0.36198 0.0
C5263 C 0.03534 0.79172 0.33812 0.0
C5264 C 0.02226 0.80695 0.27725 0.0
C5265 C 0.99596 0.78158 0.21578 0.0
C5266 C 1.0063 0.78717 0.24215 0.0
C5267 C 0.03711 0.80234 0.31737 0.0
C5268 C 0.02664 0.79737 0.29114 0.0
H5269 H 0.98921 0.75817 0.15978 0.0
H5270 H 1.00526 0.76794 0.20016 0.0
H5271 H 1.00946 0.80987 0.24411 0.0
H5272 H 0.06787 0.8332 0.34849 0.0
H5273 H 0.05119 0.82625 0.30736 0.0
C5274 C 0.82562 0.77628 0.69202 0.0
C5275 C 0.81675 0.7721 0.66744 0.0
C5276 C 0.82154 0.78175 0.7162 0.0
C5277 C 0.79672 0.79848 0.74131 0.0
H5278 H 0.80276 0.78704 0.81465 0.0
C5279 C 0.7815 0.82163 0.8452 0.0
C5280 C 0.77583 0.81184 0.86849 0.0
C5281 C 0.7872 0.81779 0.82097 0.0
C5282 C 0.80085 0.79044 0.79449 0.0
H5283 H 0.79646 0.77103 0.65041 0.0
H5284 H 0.78983 0.78075 0.69113 0.0
H5285 H 0.81104 0.77879 0.77381 0.0
H5286 H 0.77243 0.79016 0.8831 0.0
H5287 H 0.78223 0.78383 0.84245 0.0
H5288 H 0.78658 0.81019 0.76201 0.0
C5289 C 0.79996 0.77977 0.69214 0.0
C5290 C 0.80583 0.78572 0.77062 0.0
C5291 C 0.80383 0.77404 0.66837 0.0
C5292 C 0.77658 0.79827 0.86623 0.0
C5293 C 0.78239 0.79456 0.84245 0.0
C5294 C 0.79198 0.80343 0.76522 0.0
C5295 C 0.80856 0.78368 0.717 0.0
C5296 C 0.80379 0.78944 0.74319 0.0
C5297 C 0.7878 0.80407 0.81884 0.0
C5298 C 0.79371 0.79943 0.79264 0.0
H5299 H 0.83558 0.77499 0.69289 0.0
H5300 H 0.82873 0.78458 0.73435 0.0
H5301 H 0.79489 0.80193 0.72111 0.0
H5302 H 0.78121 0.83214 0.84531 0.0
H5303 H 0.79124 0.82572 0.80385 0.0
C5304 C 0.20605 0.96894 0.84773 0.0
C5305 C 0.21719 0.96924 0.86594 0.0
C5306 C 0.21006 0.97886 0.82396 0.0
C5307 C 0.24573 0.01243 0.78691 0.0
H5308 H 0.21675 1.00817 0.73054 0.0
C5309 C 0.26677 0.04583 0.68109 0.0
C5310 C 0.2586 0.05168 0.66684 0.0
C5311 C 0.261 0.03626 0.70472 0.0
C5312 C 0.22512 1.0097 0.74603 0.0
H5313 H 0.24173 0.98119 0.8715 0.0
H5314 H 0.24838 0.99704 0.83182 0.0
H5315 H 0.20836 0.99114 0.77074 0.0
H5316 H 0.23702 0.05115 0.66794 0.0
H5317 H 0.22679 0.03437 0.70894 0.0
H5318 H 0.26246 0.03078 0.7621 0.0
C5319 C 0.23638 0.98966 0.83526 0.0
C5320 C 0.22024 0.99971 0.76963 0.0
C5321 C 0.23242 0.98007 0.85881 0.0
C5322 C 0.24401 0.04727 0.67792 0.0
C5323 C 0.23802 0.03738 0.7016 0.0
C5324 C 0.25058 0.02215 0.7633 0.0
C5325 C 0.22547 0.98963 0.81682 0.0
C5326 C 0.23041 1.00062 0.79097 0.0
C5327 C 0.24642 0.03162 0.71582 0.0
C5328 C 0.24053 0.02112 0.74195 0.0
H5329 H 0.19417 0.96102 0.85168 0.0
H5330 H 0.20089 0.97799 0.81126 0.0
H5331 H 0.25439 0.01455 0.80204 0.0
H5332 H 0.27795 0.04875 0.67394 0.0
H5333 H 0.26807 0.03226 0.71403 0.0
C5334 C 0.99245 0.22715 0.67044 0.0
C5335 C 0.97972 0.21244 0.66628 0.0
C5336 C 1.0019 0.2312 0.69436 0.0
C5337 C 1.01335 0.21579 0.75745 0.0
H5338 H 0.03171 0.25748 0.78243 0.0
C5339 C 0.06043 0.24205 0.85003 0.0
C5340 C 0.06047 0.25339 0.86738 0.0
C5341 C 0.05068 0.23617 0.82605 0.0
C5342 C 0.02675 0.24571 0.7762 0.0
H5343 H 0.96776 0.19038 0.68589 0.0
H5344 H 0.98434 0.19723 0.7272 0.0
H5345 H 1.01492 0.24913 0.74238 0.0
H5346 H 0.04909 0.26664 0.87154 0.0
H5347 H 0.03308 0.25699 0.83109 0.0
H5348 H 0.02532 0.21252 0.79169 0.0
C5349 C 0.98696 0.20584 0.71161 0.0
C5350 C 1.01703 0.24085 0.75249 0.0
C5351 C 0.97727 0.20182 0.68757 0.0
C5352 C 0.05004 0.25821 0.85933 0.0
C5353 C 0.04062 0.2526 0.83545 0.0
C5354 C 0.0233 0.22074 0.78111 0.0
C5355 C 0.9995 0.22078 0.71592 0.0
C5356 C 1.00995 0.22573 0.74225 0.0
C5357 C 0.04061 0.24146 0.81781 0.0
C5358 C 0.03025 0.23587 0.79138 0.0
H5359 H 0.99529 0.23582 0.6549 0.0
H5360 H 1.01136 0.2427 0.69559 0.0
H5361 H 1.00846 0.20409 0.75086 0.0
H5362 H 0.06798 0.23773 0.85481 0.0
H5363 H 0.0513 0.22763 0.81358 0.0
C5364 C 0.8743 0.57461 0.68188 0.0
C5365 C 0.88516 0.58411 0.70188 0.0
C5366 C 0.87849 0.56906 0.65794 0.0
C5367 C 0.9136 0.57628 0.61472 0.0
H5368 H 0.88676 0.53766 0.57968 0.0
C5369 C 0.93151 0.56003 0.5095 0.0
C5370 C 0.92727 0.54485 0.50219 0.0
C5371 C 0.92568 0.56378 0.53308 0.0
C5372 C 0.89457 0.54847 0.58908 0.0
H5373 H 0.90931 0.5948 0.71078 0.0
H5374 H 0.91636 0.58559 0.67042 0.0
H5375 H 0.8781 0.54595 0.6203 0.0
H5376 H 0.91259 0.52172 0.51587 0.0
H5377 H 0.90229 0.52821 0.55686 0.0
H5378 H 0.9301 0.57887 0.58408 0.0
C5379 C 0.90452 0.58235 0.67263 0.0
C5380 C 0.88946 0.55339 0.61261 0.0
C5381 C 0.90034 0.58768 0.69644 0.0
C5382 C 0.9164 0.53354 0.52004 0.0
C5383 C 0.9104 0.53736 0.54389 0.0
C5384 C 0.91862 0.57145 0.59125 0.0
C5385 C 0.89381 0.5729 0.65245 0.0
C5386 C 0.89887 0.56744 0.62629 0.0
C5387 C 0.91505 0.55268 0.55132 0.0
C5388 C 0.90932 0.55742 0.57753 0.0
H5389 H 0.86251 0.57144 0.68462 0.0
H5390 H 0.86965 0.56195 0.64339 0.0
H5391 H 0.92143 0.58724 0.6236 0.0
H5392 H 0.93959 0.56939 0.49688 0.0
H5393 H 0.92953 0.57567 0.5367 0.0
C5394 C 0.47096 0.37882 0.51159 0.0
C5395 C 0.48617 0.38807 0.50233 0.0
C5396 C 0.46706 0.36926 0.53515 0.0
C5397 C 0.48094 0.34989 0.58634 0.0
H5398 H 0.44549 0.3433 0.62776 0.0
C5399 C 0.45307 0.3035 0.67832 0.0
C5400 C 0.44604 0.30665 0.70077 0.0
C5401 C 0.45879 0.31326 0.65455 0.0
C5402 C 0.4555 0.34491 0.61684 0.0
H5403 H 0.50917 0.39368 0.5125 0.0
H5404 H 0.50241 0.37696 0.55357 0.0
H5405 H 0.45402 0.36035 0.58825 0.0
H5406 H 0.44036 0.32351 0.71465 0.0
H5407 H 0.44963 0.33978 0.67428 0.0
H5408 H 0.48231 0.33434 0.6154 0.0
C5409 C 0.49336 0.37721 0.54214 0.0
C5410 C 0.46039 0.35477 0.59346 0.0
C5411 C 0.49733 0.38701 0.51835 0.0
C5412 C 0.44526 0.32015 0.69813 0.0
C5413 C 0.4507 0.32969 0.67445 0.0
C5414 C 0.4759 0.33983 0.60971 0.0
C5415 C 0.47805 0.36811 0.55135 0.0
C5416 C 0.47325 0.3576 0.57737 0.0
C5417 C 0.45756 0.32657 0.65176 0.0
C5418 C 0.46304 0.33709 0.62578 0.0
H5419 H 0.46171 0.37888 0.50053 0.0
H5420 H 0.45513 0.36249 0.54035 0.0
H5421 H 0.49079 0.3514 0.57499 0.0
H5422 H 0.45397 0.29333 0.67884 0.0
H5423 H 0.46386 0.31011 0.63796 0.0
C5424 C 0.64175 0.11255 0.51961 0.0
C5425 C 0.64275 0.1023 0.50083 0.0
C5426 C 0.65155 0.11852 0.54349 0.0
C5427 C 0.67788 0.1107 0.59005 0.0
H5428 H 0.69297 0.15121 0.6194 0.0
C5429 C 0.71193 0.12888 0.69597 0.0
C5430 C 0.72405 0.14386 0.70088 0.0
C5431 C 0.70243 0.12477 0.67214 0.0
C5432 C 0.689 0.13984 0.61164 0.0
H5433 H 0.65602 0.09114 0.49389 0.0
H5434 H 0.67218 0.10096 0.53416 0.0
H5435 H 0.67595 0.1426 0.57878 0.0
H5436 H 0.7348 0.16632 0.68274 0.0
H5437 H 0.71805 0.15934 0.64163 0.0
H5438 H 0.69075 0.10779 0.62257 0.0
C5439 C 0.66376 0.10439 0.53104 0.0
C5440 C 0.67896 0.13478 0.58812 0.0
C5441 C 0.65427 0.09869 0.50729 0.0
C5442 C 0.7258 0.15467 0.68045 0.0
C5443 C 0.71602 0.15057 0.65653 0.0
C5444 C 0.68767 0.11565 0.61364 0.0
C5445 C 0.66273 0.11441 0.55014 0.0
C5446 C 0.67316 0.12005 0.57644 0.0
C5447 C 0.70412 0.1354 0.65148 0.0
C5448 C 0.69361 0.13038 0.62528 0.0
H5449 H 0.63328 0.11587 0.51614 0.0
H5450 H 0.65009 0.12616 0.55715 0.0
H5451 H 0.67384 0.09926 0.58265 0.0
H5452 H 0.70963 0.12004 0.71083 0.0
H5453 H 0.69347 0.11305 0.67026 0.0
C5454 C 0.43971 0.13194 0.18921 0.0
C5455 C 0.44504 0.14713 0.19822 0.0
C5456 C 0.44541 0.1282 0.16549 0.0
C5457 C 0.47777 0.14232 0.11253 0.0
H5458 H 0.44885 0.10612 0.07299 0.0
C5459 C 0.49587 0.11399 0.0201 0.0
C5460 C 0.48532 0.10624 0.99845 0.0
C5461 C 0.492 0.11993 0.04388 0.0
C5462 C 0.45727 0.11634 0.08333 0.0
H5463 H 0.46154 0.17028 0.18724 0.0
H5464 H 0.47166 0.16376 0.14586 0.0
H5465 H 0.44064 0.11489 0.11263 0.0
H5466 H 0.46214 0.09923 0.9863 0.0
H5467 H 0.45562 0.10914 0.02642 0.0
H5468 H 0.49441 0.14366 0.08272 0.0
C5469 C 0.46275 0.15462 0.15772 0.0
C5470 C 0.45249 0.12139 0.10682 0.0
C5471 C 0.45686 0.15845 0.18176 0.0
C5472 C 0.47082 0.10491 1.00198 0.0
C5473 C 0.46694 0.11064 0.02561 0.0
C5474 C 0.48262 0.13714 0.08901 0.0
C5475 C 0.45701 0.13931 0.1487 0.0
C5476 C 0.46254 0.13451 0.12233 0.0
C5477 C 0.4773 0.11826 0.04751 0.0
C5478 C 0.47248 0.12398 0.07359 0.0
H5479 H 0.43082 0.12251 0.20058 0.0
H5480 H 0.44067 0.11628 0.1606 0.0
H5481 H 0.48613 0.15239 0.12337 0.0
H5482 H 0.50709 0.11531 0.01896 0.0
H5483 H 0.50053 0.12556 0.05981 0.0
C5484 C 0.87218 0.30031 0.18008 0.0
C5485 C 0.88304 0.30239 0.20073 0.0
C5486 C 0.87617 0.31006 0.15611 0.0
C5487 C 0.91137 0.33924 0.11455 0.0
H5488 H 0.88395 0.34926 0.0765 0.0
C5489 C 0.92953 0.37309 1.00856 0.0
C5490 C 0.92486 0.38365 1.001 0.0
C5491 C 0.92386 0.36358 0.03231 0.0
C5492 C 0.89192 0.34674 0.08676 0.0
H5493 H 0.90679 0.31757 0.21114 0.0
H5494 H 0.91336 0.3338 0.17111 0.0
H5495 H 0.8751 0.33228 0.11708 0.0
H5496 H 0.90967 0.3916 1.01433 0.0
H5497 H 0.89952 0.37487 0.05524 0.0
H5498 H 0.92818 0.35356 0.08464 0.0
C5499 C 0.90179 0.3245 0.17255 0.0
C5500 C 0.88671 0.33672 0.11026 0.0
C5501 C 0.89784 0.31498 0.19622 0.0
C5502 C 0.91383 0.38389 0.01878 0.0
C5503 C 0.90788 0.37408 0.04254 0.0
C5504 C 0.91649 0.34904 0.09103 0.0
C5505 C 0.89123 0.32232 0.1514 0.0
C5506 C 0.89633 0.33272 0.12507 0.0
C5507 C 0.91285 0.36369 0.05019 0.0
C5508 C 0.90699 0.35316 0.07629 0.0
H5509 H 0.86066 0.29095 0.18203 0.0
H5510 H 0.86744 0.30768 0.14085 0.0
H5511 H 0.9194 0.33664 0.12434 0.0
H5512 H 0.93777 0.37207 0.99593 0.0
H5513 H 0.92807 0.35585 0.03629 0.0
C5514 C 0.71302 0.58357 0.20059 0.0
C5515 C 0.72822 0.58642 0.20098 0.0
C5516 C 0.70339 0.57777 0.1769 0.0
C5517 C 0.70331 0.57286 0.09795 0.0
H5518 H 0.65974 0.54769 0.10712 0.0
C5519 C 0.66074 0.55983 1.00321 0.0
C5520 C 0.64672 0.54594 1.001 0.0
C5521 C 0.6704 0.56375 0.02686 0.0
C5522 C 0.67185 0.55465 0.10375 0.0
H5523 H 0.74474 0.5851 0.17458 0.0
H5524 H 0.72816 0.57517 0.13329 0.0
H5525 H 0.67649 0.5559 0.14771 0.0
H5526 H 0.63242 0.52544 0.02413 0.0
H5527 H 0.64906 0.53224 0.06531 0.0
H5528 H 0.69867 0.57175 0.05401 0.0
C5529 C 0.72357 0.57738 0.15184 0.0
C5530 C 0.68165 0.55957 0.1275 0.0
C5531 C 0.7332 0.58298 0.17594 0.0
C5532 C 0.64298 0.53617 0.02424 0.0
C5533 C 0.65264 0.54022 0.04829 0.0
C5534 C 0.69349 0.56814 0.07424 0.0
C5535 C 0.70833 0.57463 0.15155 0.0
C5536 C 0.69773 0.56887 0.12544 0.0
C5537 C 0.66672 0.55416 0.05032 0.0
C5538 C 0.67741 0.5589 0.0763 0.0
H5539 H 0.70846 0.58605 0.2189 0.0
H5540 H 0.69205 0.57618 0.17838 0.0
H5541 H 0.71541 0.58 0.09461 0.0
H5542 H 0.66437 0.56795 0.9864 0.0
H5543 H 0.68076 0.57466 0.02685 0.0
C5544 C 0.57832 0.86461 0.84889 0.0
C5545 C 0.59203 0.87544 0.83581 0.0
C5546 C 0.57216 0.86851 0.87248 0.0
C5547 C 0.57715 0.90395 0.91325 0.0
H5548 H 0.5509 0.87528 0.96852 0.0
C5549 C 0.56532 0.92561 0.01887 0.0
C5550 C 0.55102 0.91796 0.03241 0.0
C5551 C 0.56887 0.91959 0.99524 0.0
C5552 C 0.55815 0.88356 0.9533 0.0
H5553 H 0.60976 0.89912 0.83988 0.0
H5554 H 0.59975 0.90536 0.87932 0.0
H5555 H 0.55944 0.86641 0.92847 0.0
H5556 H 0.52931 0.89716 0.03021 0.0
H5557 H 0.53554 0.8865 0.98936 0.0
H5558 H 0.57609 0.92108 0.93792 0.0
C5559 C 0.59316 0.89393 0.87135 0.0
C5560 C 0.56313 0.87839 0.92991 0.0
C5561 C 0.59916 0.89013 0.84816 0.0
C5562 C 0.5404 0.9037 0.02077 0.0
C5563 C 0.5441 0.89746 0.99718 0.0
C5564 C 0.57235 0.90908 0.93659 0.0
C5565 C 0.57935 0.88344 0.88423 0.0
C5566 C 0.57301 0.88848 0.90925 0.0
C5567 C 0.55847 0.90531 0.98359 0.0
C5568 C 0.56284 0.89914 0.95758 0.0
H5569 H 0.57218 0.85317 0.84076 0.0
H5570 H 0.56154 0.85979 0.88116 0.0
H5571 H 0.58414 0.91239 0.89809 0.0
H5572 H 0.57403 0.93655 0.02657 0.0
H5573 H 0.58011 0.92619 0.98638 0.0
C5574 C 0.12404 0.64079 0.01793 0.0
C5575 C 0.11127 0.63908 0.03303 0.0
C5576 C 0.1299 0.65058 0.99409 0.0
C5577 C 0.11897 0.67202 0.94062 0.0
H5578 H 0.16155 0.69337 0.92046 0.0
C5579 C 0.1383 0.70718 0.83645 0.0
C5580 C 0.15271 0.72049 0.83306 0.0
C5581 C 0.13438 0.6976 0.86006 0.0
C5582 C 0.14958 0.68763 0.92557 0.0
H5583 H 0.09502 0.64699 0.03302 0.0
H5584 H 0.1047 0.6633 0.99284 0.0
H5585 H 0.15287 0.67647 0.96108 0.0
H5586 H 0.17444 0.73325 0.85376 0.0
H5587 H 0.16771 0.71653 0.89488 0.0
H5588 H 0.11552 0.68312 0.90574 0.0
C5589 C 0.11039 0.65713 0.9989 0.0
C5590 C 0.14449 0.67764 0.94914 0.0
C5591 C 0.10475 0.64762 0.02265 0.0
C5592 C 0.16323 0.7233 0.85481 0.0
C5593 C 0.15926 0.71354 0.87877 0.0
C5594 C 0.124 0.68184 0.91711 0.0
C5595 C 0.12316 0.65902 0.9837 0.0
C5596 C 0.12899 0.66956 0.95755 0.0
C5597 C 0.14455 0.70049 0.88235 0.0
C5598 C 0.13946 0.69 0.90864 0.0
H5599 H 0.12971 0.63474 0.02468 0.0
H5600 H 0.13967 0.65136 0.98357 0.0
H5601 H 0.10694 0.66617 0.94526 0.0
H5602 H 0.12966 0.70406 0.82063 0.0
H5603 H 0.12313 0.68771 0.86052 0.0
C5604 C 0.38723 0.48731 0.02369 0.0
C5605 C 0.39226 0.47751 0.03418 0.0
C5606 C 0.37744 0.48333 0.99988 0.0
C5607 C 0.36374 0.45676 0.93666 0.0
H5608 H 0.33071 0.46535 0.9316 0.0
C5609 C 0.3197 0.43032 0.84469 0.0
C5610 C 0.31012 0.43595 0.83566 0.0
C5611 C 0.32937 0.43611 0.86817 0.0
C5612 C 0.33992 0.46289 0.9321 0.0
H5613 H 0.39045 0.45571 0.02629 0.0
H5614 H 0.37427 0.44916 0.98548 0.0
H5615 H 0.34781 0.47413 0.9719 0.0
H5616 H 0.30397 0.45287 0.84648 0.0
H5617 H 0.32102 0.46327 0.88687 0.0
H5618 H 0.35653 0.44607 0.89695 0.0
C5619 C 0.37772 0.45996 0.99543 0.0
C5620 C 0.34989 0.46802 0.95569 0.0
C5621 C 0.38714 0.46376 0.01933 0.0
C5622 C 0.31094 0.44798 0.85197 0.0
C5623 C 0.32086 0.45396 0.87567 0.0
C5624 C 0.35399 0.45186 0.91305 0.0
C5625 C 0.37245 0.46953 0.98496 0.0
C5626 C 0.36198 0.4649 0.95886 0.0
C5627 C 0.33049 0.44824 0.88449 0.0
C5628 C 0.34153 0.45447 0.91003 0.0
H5629 H 0.39046 0.49786 0.03434 0.0
H5630 H 0.37388 0.49123 0.99303 0.0
H5631 H 0.37292 0.45425 0.93723 0.0
H5632 H 0.31975 0.42106 0.83361 0.0
H5633 H 0.33583 0.43066 0.87359 0.0
C5634 C 0.12285 0.49204 0.51563 0.0
C5635 C 0.11128 0.48072 0.53253 0.0
C5636 C 0.12878 0.48819 0.49163 0.0
C5637 C 0.11926 0.45423 0.44256 0.0
H5638 H 0.16029 0.47825 0.41479 0.0
C5639 C 0.13665 0.43677 0.33786 0.0
C5640 C 0.15155 0.43943 0.33265 0.0
C5641 C 0.13286 0.44256 0.3615 0.0
C5642 C 0.14877 0.47122 0.42213 0.0
H5643 H 0.09772 0.4561 0.53591 0.0
H5644 H 0.10772 0.44982 0.49627 0.0
H5645 H 0.15202 0.48697 0.45544 0.0
H5646 H 0.17421 0.45114 0.35014 0.0
H5647 H 0.16775 0.46146 0.39111 0.0
H5648 H 0.11589 0.4384 0.40997 0.0
C5649 C 0.11213 0.46176 0.50054 0.0
C5650 C 0.1439 0.47639 0.44568 0.0
C5651 C 0.10634 0.46552 0.52411 0.0
C5652 C 0.1626 0.44864 0.35267 0.0
C5653 C 0.1588 0.45465 0.3765 0.0
C5654 C 0.12405 0.44914 0.41914 0.0
C5655 C 0.1234 0.47284 0.48317 0.0
C5656 C 0.12897 0.46797 0.45681 0.0
C5657 C 0.14371 0.45162 0.38183 0.0
C5658 C 0.13895 0.45741 0.408 0.0
H5659 H 0.12726 0.50389 0.52068 0.0
H5660 H 0.13743 0.49735 0.4794 0.0
H5661 H 0.10761 0.44721 0.44928 0.0
H5662 H 0.12758 0.43003 0.32343 0.0
H5663 H 0.12119 0.43999 0.36346 0.0
C5664 C 0.59113 0.70198 0.33667 0.0
C5665 C 0.59208 0.7164 0.33514 0.0
C5666 C 0.5853 0.69234 0.36027 0.0
C5667 C 0.57625 0.69157 0.43772 0.0
H5668 H 0.55571 0.64787 0.42844 0.0
C5669 C 0.56348 0.65039 0.53405 0.0
C5670 C 0.55071 0.63548 0.53488 0.0
C5671 C 0.56735 0.65992 0.51032 0.0
C5672 C 0.56133 0.66002 0.43181 0.0
H5673 H 0.58737 0.7315 0.35937 0.0
H5674 H 0.57736 0.71491 0.40037 0.0
H5675 H 0.5643 0.66451 0.3878 0.0
H5676 H 0.53206 0.61941 0.50932 0.0
H5677 H 0.53875 0.63589 0.46795 0.0
H5678 H 0.57339 0.6871 0.48171 0.0
C5679 C 0.58114 0.71096 0.38289 0.0
C5680 C 0.56649 0.66976 0.40808 0.0
C5681 C 0.58683 0.72059 0.35894 0.0
C5682 C 0.54186 0.63072 0.51029 0.0
C5683 C 0.54589 0.64027 0.48615 0.0
C5684 C 0.5713 0.68184 0.46145 0.0
C5685 C 0.58017 0.69649 0.38428 0.0
C5686 C 0.57417 0.68588 0.41023 0.0
C5687 C 0.55883 0.6552 0.48542 0.0
C5688 C 0.5637 0.66573 0.45933 0.0
H5689 H 0.59503 0.69802 0.31936 0.0
H5690 H 0.58516 0.68162 0.35978 0.0
H5691 H 0.58208 0.70372 0.44113 0.0
H5692 H 0.57084 0.65479 0.552 0.0
H5693 H 0.57746 0.67101 0.51143 0.0
C5694 C 0.3789 0.91185 0.53319 0.0
C5695 C 0.39482 0.91764 0.53215 0.0
C5696 C 0.36934 0.90627 0.50937 0.0
C5697 C 0.36965 0.90716 0.42952 0.0
H5698 H 0.32712 0.87678 0.43704 0.0
C5699 C 0.32666 0.89324 0.33534 0.0
C5700 C 0.31307 0.87904 0.33237 0.0
C5701 C 0.33634 0.8971 0.35894 0.0
C5702 C 0.33894 0.88523 0.43405 0.0
H5703 H 0.41279 0.92212 0.50308 0.0
H5704 H 0.39634 0.9125 0.46166 0.0
H5705 H 0.34393 0.88442 0.47736 0.0
H5706 H 0.29968 0.85774 0.35389 0.0
H5707 H 0.31652 0.86421 0.3946 0.0
H5708 H 0.36474 0.90792 0.38624 0.0
C5709 C 0.39108 0.91209 0.48139 0.0
C5710 C 0.34878 0.88984 0.45774 0.0
C5711 C 0.40067 0.91747 0.50554 0.0
C5712 C 0.30987 0.86877 0.35464 0.0
C5713 C 0.31965 0.87265 0.37849 0.0
C5714 C 0.3598 0.90265 0.40588 0.0
C5715 C 0.37507 0.90639 0.48251 0.0
C5716 C 0.36447 0.90101 0.45635 0.0
C5717 C 0.33325 0.88699 0.38143 0.0
C5718 C 0.34406 0.89157 0.40729 0.0
H5719 H 0.37371 0.91192 0.55277 0.0
H5720 H 0.35736 0.90235 0.51208 0.0
H5721 H 0.38142 0.91581 0.42666 0.0
H5722 H 0.32997 0.90166 0.31915 0.0
H5723 H 0.34624 0.90834 0.35955 0.0
C5724 C 0.30686 0.30792 0.13449 0.0
C5725 C 0.30024 0.29649 0.11435 0.0
C5726 C 0.3025 0.31891 0.13646 0.0
C5727 C 0.29399 0.33627 0.07998 0.0
H5728 H 0.3125 0.36989 0.13167 0.0
C5729 C 0.3367 0.39533 0.04105 0.0
C5730 C 0.35072 0.40021 0.05444 0.0
C5731 C 0.32316 0.38398 0.05286 0.0
C5732 C 0.30705 0.36062 0.11698 0.0
H5733 H 0.2819 0.28551 0.08476 0.0
H5734 H 0.27385 0.30441 0.08882 0.0
H5735 H 0.2979 0.34399 0.14926 0.0
H5736 H 0.36127 0.39705 0.09118 0.0
H5737 H 0.33793 0.37774 0.11164 0.0
H5738 H 0.30418 0.35271 0.04781 0.0
C5739 C 0.28276 0.30531 0.10242 0.0
C5740 C 0.29867 0.34577 0.12704 0.0
C5741 C 0.28724 0.29437 0.10026 0.0
C5742 C 0.35074 0.39396 0.08046 0.0
C5743 C 0.33727 0.38284 0.09234 0.0
C5744 C 0.30227 0.35108 0.06995 0.0
C5745 C 0.29155 0.31861 0.11807 0.0
C5746 C 0.29328 0.33337 0.10869 0.0
C5747 C 0.32336 0.37742 0.07841 0.0
C5748 C 0.30994 0.36327 0.08841 0.0
H5749 H 0.31687 0.30967 0.14568 0.0
H5750 H 0.30941 0.32875 0.14926 0.0
H5751 H 0.28997 0.32713 0.06497 0.0
H5752 H 0.33622 0.40003 0.02118 0.0
H5753 H 0.3126 0.37999 0.0416 0.0
C5754 C 0.62616 0.95092 0.0957 0.0
C5755 C 0.62765 0.95161 0.06652 0.0
C5756 C 0.63617 0.94883 0.11243 0.0
C5757 C 0.67253 0.9472 0.10862 0.0
H5758 H 0.68405 0.9774 0.1666 0.0
C5759 C 0.73387 0.98873 0.11959 0.0
C5760 C 0.73575 1.00326 0.11538 0.0
C5761 C 0.72026 0.97705 0.13038 0.0
C5762 C 0.681 0.96883 0.15067 0.0
H5763 H 0.63981 0.94834 0.03256 0.0
H5764 H 0.65825 0.94672 0.06137 0.0
H5765 H 0.6584 0.96475 0.14937 0.0
H5766 H 0.72574 0.01747 0.12273 0.0
H5767 H 0.70223 0.99743 0.14081 0.0
H5768 H 0.69576 0.95301 0.10721 0.0
C5769 C 0.64907 0.9473 0.07159 0.0
C5770 C 0.66609 0.96132 0.14085 0.0
C5771 C 0.63861 0.94869 0.05479 0.0
C5772 C 0.72465 1.00639 0.12551 0.0
C5773 C 0.71107 0.99476 0.13614 0.0
C5774 C 0.68758 0.95511 0.11778 0.0
C5775 C 0.64848 0.94816 0.10072 0.0
C5776 C 0.66199 0.95137 0.11798 0.0
C5777 C 0.70826 0.97971 0.13679 0.0
C5778 C 0.69224 0.96702 0.13709 0.0
H5779 H 0.61804 0.95306 0.10627 0.0
H5780 H 0.63482 0.94886 0.13469 0.0
H5781 H 0.66962 0.93893 0.09221 0.0
H5782 H 0.7425 0.98613 0.11283 0.0
H5783 H 0.71869 0.96571 0.1315 0.0
C5784 C 0.02244 0.7205 0.12527 0.0
C5785 C 0.02622 0.73519 0.11691 0.0
C5786 C 0.03364 0.71761 0.13511 0.0
C5787 C 0.07303 0.73258 0.11663 0.0
H5788 H 0.06212 0.69289 0.14527 0.0
C5789 C 0.07839 0.69022 0.05046 0.0
C5790 C 0.07546 0.6762 0.0615 0.0
C5791 C 0.07979 0.70184 0.06789 0.0
C5792 C 0.06589 0.70421 0.13758 0.0
H5793 H 0.04408 0.75881 0.11692 0.0
H5794 H 0.06376 0.75375 0.13397 0.0
H5795 H 0.05014 0.70625 0.16406 0.0
H5796 H 0.07375 0.66459 0.10066 0.0
H5797 H 0.078 0.6852 0.13015 0.0
H5798 H 0.0888 0.7306 0.09017 0.0
C5799 C 0.05222 0.74437 0.13213 0.0
C5800 C 0.05878 0.71184 0.1483 0.0
C5801 C 0.04097 0.74727 0.12224 0.0
C5802 C 0.076 0.675 0.09063 0.0
C5803 C 0.07811 0.68687 0.10797 0.0
C5804 C 0.0805 0.72518 0.10649 0.0
C5805 C 0.0489 0.72936 0.13668 0.0
C5806 C 0.06111 0.72533 0.13589 0.0
C5807 C 0.07891 0.70003 0.09695 0.0
C5808 C 0.07593 0.71025 0.11488 0.0
H5809 H 1.01119 0.71091 0.12162 0.0
H5810 H 0.0305 0.70586 0.13838 0.0
H5811 H 0.07546 0.74315 0.10688 0.0
H5812 H 0.07877 0.69203 0.02831 0.0
H5813 H 0.08044 0.71176 0.05823 0.0
C5814 C 0.37891 0.33814 0.48706 0.0
C5815 C 0.39215 0.3436 0.47088 0.0
C5816 C 0.3673 0.32302 0.48475 0.0
C5817 C 0.35356 0.29681 0.4271 0.0
H5818 H 0.31798 0.27751 0.47413 0.0
C5819 C 0.29676 0.27628 0.37756 0.0
C5820 C 0.29034 0.28438 0.3897 0.0
C5821 C 0.30741 0.27406 0.39222 0.0
C5822 C 0.32787 0.28252 0.46076 0.0
H5823 H 0.40424 0.33641 0.44273 0.0
H5824 H 0.38472 0.31025 0.44072 0.0
H5825 H 0.34309 0.29246 0.49512 0.0
H5826 H 0.2896 0.2957 0.42759 0.0
H5827 H 0.30762 0.29173 0.45259 0.0
H5828 H 0.33844 0.28829 0.39274 0.0
C5829 C 0.38297 0.31782 0.45408 0.0
C5830 C 0.34224 0.29112 0.4728 0.0
C5831 C 0.39434 0.33299 0.45561 0.0
C5832 C 0.29392 0.2891 0.41749 0.0
C5833 C 0.30435 0.28676 0.43209 0.0
C5834 C 0.33925 0.28831 0.41513 0.0
C5835 C 0.36886 0.31297 0.46673 0.0
C5836 C 0.35508 0.29935 0.45594 0.0
C5837 C 0.31179 0.27986 0.41927 0.0
C5838 C 0.32617 0.28221 0.43174 0.0
H5839 H 0.37701 0.34571 0.5001 0.0
H5840 H 0.35663 0.3197 0.49511 0.0
H5841 H 0.36313 0.30289 0.41328 0.0
H5842 H 0.29406 0.27223 0.3564 0.0
H5843 H 0.31289 0.2686 0.38184 0.0
C5844 C 0.74315 1.00876 0.42348 0.0
C5845 C 0.7426 1.00986 0.39434 0.0
C5846 C 0.74532 0.02072 0.44066 0.0
C5847 C 0.74765 0.05904 0.43825 0.0
H5848 H 0.71774 0.04057 0.49664 0.0
C5849 C 0.70743 0.08039 0.45233 0.0
C5850 C 0.69266 0.06808 0.44836 0.0
C5851 C 0.71895 0.07795 0.46238 0.0
C5852 C 0.72621 0.04602 0.48056 0.0
H5853 H 0.74608 0.02562 0.36094 0.0
H5854 H 0.74785 0.04548 0.39048 0.0
H5855 H 0.72978 0.0272 0.47827 0.0
H5856 H 0.67791 0.04397 0.45557 0.0
H5857 H 0.69769 0.03964 0.47235 0.0
H5858 H 0.74235 0.07683 0.43789 0.0
C5859 C 0.74713 0.03559 0.40035 0.0
C5860 C 0.73338 0.03839 0.4701 0.0
C5861 C 0.74566 0.02387 0.38311 0.0
C5862 C 0.68918 0.0537 0.45815 0.0
C5863 C 0.70067 0.05125 0.46801 0.0
C5864 C 0.74007 0.06641 0.44806 0.0
C5865 C 0.7462 0.03388 0.42943 0.0
C5866 C 0.74325 0.04423 0.44713 0.0
C5867 C 0.71591 0.06313 0.46826 0.0
C5868 C 0.72827 0.05928 0.46758 0.0
H5869 H 0.74085 0.99835 0.43363 0.0
H5870 H 0.74521 0.01912 0.46286 0.0
H5871 H 0.75587 0.06439 0.42179 0.0
H5872 H 0.7103 0.09172 0.44583 0.0
H5873 H 0.73045 0.08746 0.46326 0.0
C5874 C 1.00718 0.73047 0.37908 0.0
C5875 C 0.02155 0.74045 0.39051 0.0
C5876 C 0.99594 0.71896 0.39531 0.0
C5877 C 0.98069 0.69962 0.45917 0.0
H5878 H 0.99052 0.66938 0.43324 0.0
C5879 C 0.94866 0.63403 0.46364 0.0
C5880 C 0.95854 0.62804 0.46168 0.0
C5881 C 0.95448 0.64945 0.4693 0.0
C5882 C 0.98779 0.67775 0.44102 0.0
H5883 H 0.0344 0.74695 0.42939 0.0
H5884 H 1.01467 0.7275 0.45711 0.0
H5885 H 1.00192 0.69395 0.4108 0.0
H5886 H 0.9815 0.63293 0.47253 0.0
H5887 H 0.99099 0.65905 0.48374 0.0
H5888 H 0.96609 0.68291 0.48906 0.0
C5889 C 1.0122 0.72861 0.43564 0.0
C5890 C 0.9941 0.69167 0.42783 0.0
C5891 C 0.02357 0.73983 0.4194 0.0
C5892 C 0.97338 0.63686 0.47246 0.0
C5893 C 0.97897 0.65205 0.47918 0.0
C5894 C 0.97402 0.68537 0.4722 0.0
C5895 C 0.99873 0.71757 0.42335 0.0
C5896 C 0.99058 0.70266 0.43668 0.0
C5897 C 0.97008 0.65879 0.4741 0.0
C5898 C 0.9777 0.67442 0.4633 0.0
H5899 H 1.00494 0.73081 0.35723 0.0
H5900 H 0.98561 0.71035 0.38543 0.0
H5901 H 0.9781 0.70817 0.46645 0.0
H5902 H 0.93681 0.62735 0.45785 0.0
H5903 H 0.94725 0.65435 0.46614 0.0
C5904 C 0.70018 0.62838 0.97128 0.0
C5905 C 0.68478 0.61895 0.96436 0.0
C5906 C 0.7102 0.63922 0.95241 0.0
C5907 C 0.70674 0.66256 0.90001 0.0
H5908 H 0.75067 0.68228 0.89916 0.0
C5909 C 0.73565 0.72408 0.89837 0.0
C5910 C 0.74578 0.72981 0.921 0.0
C5911 C 0.73298 0.71076 0.88504 0.0
C5912 C 0.73841 0.67697 0.89908 0.0
H5913 H 0.66831 0.61295 0.93077 0.0
H5914 H 0.68584 0.63098 0.89802 0.0
H5915 H 0.73577 0.65596 0.91449 0.0
H5916 H 0.76395 0.72824 0.94176 0.0
H5917 H 0.75785 0.70421 0.92165 0.0
H5918 H 0.70892 0.68345 0.88755 0.0
C5919 C 0.69011 0.63025 0.91822 0.0
C5920 C 0.72989 0.66183 0.90775 0.0
C5921 C 0.68006 0.6197 0.93715 0.0
C5922 C 0.75511 0.72348 0.92616 0.0
C5923 C 0.75185 0.70974 0.91388 0.0
C5924 C 0.71518 0.67765 0.89184 0.0
C5925 C 0.70505 0.64071 0.92614 0.0
C5926 C 0.714 0.65479 0.90978 0.0
C5927 C 0.73958 0.70241 0.89525 0.0
C5928 C 0.7312 0.68545 0.89314 0.0
H5929 H 0.70436 0.62795 0.99173 0.0
H5930 H 0.72165 0.64716 0.95923 0.0
H5931 H 0.69451 0.65756 0.90133 0.0
H5932 H 0.72855 0.72877 0.89255 0.0
H5933 H 0.72433 0.70614 0.86907 0.0
C5934 C 0.30266 0.03681 0.90659 0.0
C5935 C 0.29459 0.02087 0.9031 0.0
C5936 C 0.31777 0.0452 0.89794 0.0
C5937 C 0.34012 0.02938 0.91055 0.0
H5938 H 0.37414 0.07047 0.91366 0.0
C5939 C 0.39339 0.04225 0.9712 0.0
C5940 C 0.40212 0.05657 0.98361 0.0
C5941 C 0.38156 0.03948 0.95337 0.0
C5942 C 0.36467 0.05895 0.91316 0.0
H5943 H 0.29398 1.00315 0.87616 0.0
H5944 H 0.31984 0.01774 0.86146 0.0
H5945 H 0.35172 0.06491 0.88576 0.0
H5946 H 0.40452 0.07883 0.98894 0.0
H5947 H 0.38268 0.07348 0.95971 0.0
H5948 H 0.35178 0.02348 0.93997 0.0
C5949 C 0.31503 0.02343 0.8732 0.0
C5950 C 0.35202 0.05576 0.89673 0.0
C5951 C 0.30009 0.01488 0.88256 0.0
C5952 C 0.39792 0.06767 0.9797 0.0
C5953 C 0.38566 0.06471 0.9624 0.0
C5954 C 0.35243 0.03261 0.9274 0.0
C5955 C 0.32456 0.03772 0.88501 0.0
C5956 C 0.33954 0.04094 0.8956 0.0
C5957 C 0.37758 0.05069 0.94845 0.0
C5958 C 0.36482 0.04745 0.92929 0.0
H5959 H 0.29827 0.04262 0.91896 0.0
H5960 H 0.32465 0.05668 0.9057 0.0
H5961 H 0.3305 0.01793 0.91106 0.0
H5962 H 0.39626 0.0334 0.97412 0.0
H5963 H 0.37588 0.02863 0.94282 0.0
C5964 C 0.96625 0.35047 0.93682 0.0
C5965 C 0.96104 0.34607 0.96423 0.0
C5966 C 0.96648 0.34018 0.91806 0.0
C5967 C 0.95773 0.3002 0.90814 0.0
H5968 H 0.99995 0.32048 0.88584 0.0
C5969 C 0.99373 0.27422 0.92389 0.0
C5970 C 1.00934 0.2835 0.91837 0.0
C5971 C 0.98318 0.27755 0.91206 0.0
C5972 C 0.98796 0.31439 0.89072 0.0
H5973 H 0.95066 0.3268 0.9922 0.0
H5974 H 0.95213 0.30908 0.95996 0.0
H5975 H 0.98899 0.33527 0.90051 0.0
H5976 H 0.02529 0.30051 0.88952 0.0
H5977 H 1.00673 0.30481 0.86672 0.0
H5978 H 0.95694 0.27921 0.89919 0.0
C5979 C 0.95564 0.32047 0.95288 0.0
C5980 C 0.98163 0.32306 0.89941 0.0
C5981 C 0.95509 0.33074 0.97159 0.0
C5982 C 1.01355 0.2935 0.89565 0.0
C5983 C 1.00283 0.29622 0.88273 0.0
C5984 C 0.96402 0.29145 0.89893 0.0
C5985 C 0.96198 0.3253 0.92634 0.0
C5986 C 0.96676 0.31607 0.90987 0.0
C5987 C 0.988 0.2898 0.89351 0.0
C5988 C 0.9796 0.2984 0.89216 0.0
H5989 H 0.97123 0.36214 0.93008 0.0
H5990 H 0.97125 0.3442 0.89765 0.0
H5991 H 0.94609 0.29452 0.91543 0.0
H5992 H 0.98977 0.26544 0.93956 0.0
H5993 H 0.97174 0.27164 0.92019 0.0
C5994 C 0.73408 0.74021 0.65051 0.0
C5995 C 0.74494 0.73686 0.63975 0.0
C5996 C 0.72367 0.74125 0.63299 0.0
C5997 C 0.70646 0.72564 0.56443 0.0
H5998 H 0.67735 0.73561 0.59534 0.0
C5999 C 0.64716 0.68191 0.58 0.0
C6000 C 0.63615 0.68556 0.58847 0.0
C6001 C 0.66107 0.69312 0.56971 0.0
C6002 C 0.68539 0.73303 0.58552 0.0
H6003 H 0.75425 0.7339 0.60092 0.0
H6004 H 0.73762 0.73756 0.57097 0.0
H6005 H 0.70351 0.74957 0.61034 0.0
H6006 H 0.63008 0.70323 0.58864 0.0
H6007 H 0.6545 0.72293 0.57063 0.0
H6008 H 0.68833 0.70923 0.53938 0.0
C6009 C 0.73634 0.7383 0.5931 0.0
C6010 C 0.70044 0.74087 0.59469 0.0
C6011 C 0.74629 0.73657 0.61063 0.0
C6012 C 0.6386 0.70023 0.58316 0.0
C6013 C 0.65256 0.71149 0.57273 0.0
C6014 C 0.69155 0.71819 0.55456 0.0
C6015 C 0.72419 0.73955 0.60403 0.0
C6016 C 0.71074 0.73617 0.58641 0.0
C6017 C 0.66433 0.70829 0.56771 0.0
C6018 C 0.6805 0.72065 0.56722 0.0
H6019 H 0.73295 0.74118 0.67262 0.0
H6020 H 0.71459 0.74225 0.64262 0.0
H6021 H 0.71396 0.72179 0.55673 0.0
H6022 H 0.64567 0.67073 0.58371 0.0
H6023 H 0.66974 0.69007 0.56622 0.0
C6024 C 0.34702 0.98476 0.5643 0.0
C6025 C 0.35185 0.97587 0.57857 0.0
C6026 C 0.33159 0.98024 0.56304 0.0
C6027 C 0.30112 0.96238 0.61112 0.0
H6028 H 0.28314 0.97838 0.56015 0.0
C6029 C 0.27954 0.99785 0.65658 0.0
C6030 C 0.28812 0.01234 0.64465 0.0
C6031 C 0.27699 0.98488 0.64187 0.0
C6032 C 0.28776 0.97357 0.57458 0.0
H6033 H 0.34398 0.95452 0.60057 0.0
H6034 H 0.31725 0.94661 0.59762 0.0
H6035 H 0.30082 0.97065 0.54274 0.0
H6036 H 0.29965 0.02423 0.60684 0.0
H6037 H 0.29527 1.00222 0.58192 0.0
H6038 H 0.28988 0.96711 0.64342 0.0
C6039 C 0.32539 0.95712 0.58767 0.0
C6040 C 0.29788 0.96913 0.56455 0.0
C6041 C 0.34079 0.9617 0.58924 0.0
C6042 C 0.29277 0.01337 0.61687 0.0
C6043 C 0.29016 1.00053 0.60226 0.0
C6044 C 0.29127 0.96708 0.62117 0.0
C6045 C 0.32069 0.96672 0.57595 0.0
C6046 C 0.30566 0.9648 0.58318 0.0
C6047 C 0.28305 0.9862 0.61507 0.0
C6048 C 0.28581 0.97424 0.60338 0.0
H6049 H 0.3552 0.99554 0.55524 0.0
H6050 H 0.32837 0.98799 0.55399 0.0
H6051 H 0.30674 0.95889 0.62606 0.0
H6052 H 0.27546 0.99659 0.67769 0.0
H6053 H 0.27123 0.97398 0.6522 0.0
C6054 C 0.06735 0.38464 0.5937 0.0
C6055 C 0.05365 0.38154 0.58073 0.0
C6056 C 0.07201 0.37386 0.59382 0.0
C6057 C 0.06124 0.3346 0.5712 0.0
H6058 H 0.06133 0.32842 0.65046 0.0
C6059 C 1.01705 0.28399 0.62136 0.0
C6060 C 1.01791 0.2802 0.64913 0.0
C6061 C 0.0299 0.29479 0.60753 0.0
C6062 C 0.06191 0.32994 0.62818 0.0
H6063 H 0.03497 0.36526 0.55529 0.0
H6064 H 0.0426 0.34605 0.55695 0.0
H6065 H 0.06924 0.35341 0.633 0.0
H6066 H 0.03345 0.28367 0.68289 0.0
H6067 H 0.056 0.30312 0.65883 0.0
H6068 H 0.05276 0.31075 0.56678 0.0
C6069 C 0.04994 0.35697 0.5665 0.0
C6070 C 0.06643 0.34441 0.61807 0.0
C6071 C 0.04535 0.36786 0.56607 0.0
C6072 C 0.03229 0.28659 0.66179 0.0
C6073 C 0.04524 0.29761 0.6479 0.0
C6074 C 0.05694 0.32012 0.58133 0.0
C6075 C 0.06293 0.3596 0.58153 0.0
C6076 C 0.06476 0.34656 0.58977 0.0
C6077 C 0.04401 0.30241 0.62112 0.0
C6078 C 0.05568 0.31741 0.61012 0.0
H6079 H 0.07406 0.39498 0.6054 0.0
H6080 H 0.08213 0.37625 0.60536 0.0
H6081 H 0.0603 0.33606 0.54917 0.0
H6082 H 1.00628 0.27968 0.61075 0.0
H6083 H 0.0283 0.29824 0.58715 0.0
C6084 C 0.9717 0.61988 0.72605 0.0
C6085 C 0.96428 0.62831 0.7296 0.0
C6086 C 0.98358 0.62218 0.74388 0.0
C6087 C 1.01176 0.65196 0.78948 0.0
H6088 H 0.02211 0.6212 0.80892 0.0
C6089 C 0.06943 0.6749 0.81418 0.0
C6090 C 0.07492 0.66995 0.79191 0.0
C6091 C 0.05526 0.6651 0.82573 0.0
C6092 C 0.01924 0.62987 0.8041 0.0
H6093 H 0.96388 0.64608 0.75423 0.0
H6094 H 0.9835 0.6492 0.78593 0.0
H6095 H 0.99767 0.61371 0.78663 0.0
H6096 H 0.07248 0.6494 0.7728 0.0
H6097 H 0.04697 0.63317 0.78947 0.0
H6098 H 0.03324 0.66821 0.80522 0.0
C6099 C 0.98046 0.64101 0.7693 0.0
C6100 C 1.00533 0.62561 0.79105 0.0
C6101 C 0.96898 0.63902 0.75125 0.0
C6102 C 0.06784 0.65416 0.78727 0.0
C6103 C 0.05328 0.64459 0.79768 0.0
C6104 C 0.02546 0.65617 0.80259 0.0
C6105 C 0.98813 0.63285 0.76561 0.0
C6106 C 1.00172 0.6367 0.78275 0.0
C6107 C 0.04612 0.6507 0.81388 0.0
C6108 C 0.02974 0.6453 0.809 0.0
H6109 H 0.96834 0.61155 0.7096 0.0
H6110 H 0.98945 0.6159 0.74017 0.0
H6111 H 1.00959 0.6609 0.783 0.0
H6112 H 0.07477 0.68664 0.82051 0.0
H6113 H 0.05042 0.66976 0.84006 0.0
C6114 C 0.41821 0.34463 0.75305 0.0
C6115 C 0.41747 0.34563 0.72387 0.0
C6116 C 0.4195 0.35623 0.77019 0.0
C6117 C 0.40125 0.36923 0.79256 0.0
H6118 H 0.41539 0.41154 0.77647 0.0
C6119 C 0.37001 0.40055 0.76231 0.0
C6120 C 0.35712 0.39143 0.77828 0.0
C6121 C 0.38411 0.40264 0.77026 0.0
C6122 C 0.41142 0.39977 0.78155 0.0
H6123 H 0.42091 0.36153 0.69057 0.0
H6124 H 0.42149 0.38093 0.72056 0.0
H6125 H 0.42974 0.39974 0.75936 0.0
H6126 H 0.34893 0.37959 0.81722 0.0
H6127 H 0.37375 0.38362 0.83183 0.0
H6128 H 0.38216 0.36846 0.81187 0.0
C6129 C 0.42115 0.3711 0.73001 0.0
C6130 C 0.41967 0.39304 0.77175 0.0
C6131 C 0.42037 0.35966 0.7127 0.0
C6132 C 0.3588 0.3865 0.80446 0.0
C6133 C 0.37299 0.38875 0.81265 0.0
C6134 C 0.39294 0.37584 0.80193 0.0
C6135 C 0.41958 0.36894 0.75887 0.0
C6136 C 0.41415 0.37748 0.77583 0.0
C6137 C 0.38542 0.39544 0.79421 0.0
C6138 C 0.3973 0.3909 0.79482 0.0
H6139 H 0.41634 0.33446 0.76347 0.0
H6140 H 0.41875 0.35447 0.79243 0.0
H6141 H 0.39653 0.35717 0.79596 0.0
H6142 H 0.36888 0.40462 0.74218 0.0
H6143 H 0.39335 0.40811 0.75559 0.0
C6144 C 0.67021 0.06902 0.70601 0.0
C6145 C 0.68444 0.07514 0.71919 0.0
C6146 C 0.65702 0.05808 0.71944 0.0
C6147 C 0.64431 0.03534 0.78566 0.0
H6148 H 0.63284 1.00225 0.73388 0.0
C6149 C 0.65674 0.98835 0.80177 0.0
C6150 C 0.64879 0.97465 0.78704 0.0
C6151 C 0.65186 0.999 0.80104 0.0
C6152 C 0.6354 1.01118 0.74881 0.0
H6153 H 0.69554 0.0753 0.75802 0.0
H6154 H 0.67311 0.05692 0.78088 0.0
H6155 H 0.64077 0.02725 0.71646 0.0
H6156 H 0.62869 0.96094 0.7618 0.0
H6157 H 0.6201 0.97928 0.76126 0.0
H6158 H 0.64071 0.01936 0.81785 0.0
C6159 C 0.67182 0.06051 0.76041 0.0
C6160 C 0.63993 0.02566 0.73872 0.0
C6161 C 0.6849 0.0712 0.74701 0.0
C6162 C 0.63513 0.97131 0.77359 0.0
C6163 C 0.63017 0.98185 0.77314 0.0
C6164 C 0.63999 0.02086 0.79577 0.0
C6165 C 0.65786 0.05312 0.74631 0.0
C6166 C 0.64593 0.03814 0.7569 0.0
C6167 C 0.6389 0.99612 0.78561 0.0
C6168 C 0.63682 1.00899 0.7772 0.0
H6169 H 0.66933 0.07207 0.68486 0.0
H6170 H 0.64639 0.05274 0.70811 0.0
H6171 H 0.64829 0.04467 0.80025 0.0
H6172 H 0.66709 0.99114 0.81289 0.0
H6173 H 0.65894 1.00995 0.81072 0.0
C6174 C 0.39939 0.05113 0.25731 0.0
C6175 C 0.38529 0.0479 0.24597 0.0
C6176 C 0.40414 0.04043 0.25633 0.0
C6177 C 0.39321 1.00133 0.23265 0.0
H6178 H 0.3959 0.99518 0.31127 0.0
C6179 C 0.35122 0.95041 0.28505 0.0
C6180 C 0.35296 0.94669 0.31242 0.0
C6181 C 0.36357 0.9613 0.27025 0.0
C6182 C 0.39576 0.99671 0.28908 0.0
H6183 H 0.36581 0.03137 0.22242 0.0
H6184 H 0.37366 0.01228 0.22213 0.0
H6185 H 0.40279 0.02008 0.29458 0.0
H6186 H 0.36957 0.95037 0.34426 0.0
H6187 H 0.39124 0.97 0.31854 0.0
H6188 H 0.38508 0.97758 0.22765 0.0
C6189 C 0.38124 0.02328 0.23121 0.0
C6190 C 0.39968 1.01112 0.27943 0.0
C6191 C 0.37655 0.03409 0.23191 0.0
C6192 C 0.36772 0.95323 0.32355 0.0
C6193 C 0.38017 0.96436 0.30869 0.0
C6194 C 0.38953 0.98693 0.24228 0.0
C6195 C 0.39476 0.02611 0.24452 0.0
C6196 C 0.39707 0.01322 0.25157 0.0
C6197 C 0.37805 0.96911 0.28245 0.0
C6198 C 0.3892 0.9842 0.27098 0.0
H6199 H 0.40643 0.06157 0.26857 0.0
H6200 H 0.41464 0.04295 0.2666 0.0
H6201 H 0.39155 1.00277 0.21091 0.0
H6202 H 0.34014 0.94601 0.2756 0.0
H6203 H 0.36129 0.9647 0.25036 0.0
C6204 C 0.97711 0.34657 0.2287 0.0
C6205 C 0.96735 0.35172 0.23831 0.0
C6206 C 0.99216 0.35695 0.22223 0.0
C6207 C 0.02443 0.3949 0.22665 0.0
H6208 H 0.03102 0.38026 0.29679 0.0
C6209 C 0.07857 0.40235 0.28155 0.0
C6210 C 0.07944 0.40495 0.31049 0.0
C6211 C 0.0671 0.40236 0.26578 0.0
C6212 C 0.02928 0.38463 0.27746 0.0
H6213 H 0.96468 0.37165 0.24091 0.0
H6214 H 0.99141 0.38971 0.23253 0.0
H6215 H 1.00662 0.36622 0.27372 0.0
H6216 H 0.07004 0.41184 0.34429 0.0
H6217 H 0.04919 0.41052 0.31695 0.0
H6218 H 0.04764 0.41306 0.23033 0.0
C6219 C 0.98738 0.3777 0.22993 0.0
C6220 C 1.01545 0.37648 0.26403 0.0
C6221 C 0.97215 0.36729 0.23555 0.0
C6222 C 0.06949 0.40925 0.32241 0.0
C6223 C 0.05773 0.40884 0.30668 0.0
C6224 C 0.03858 0.40298 0.23998 0.0
C6225 C 0.99771 0.37251 0.22624 0.0
C6226 C 1.01293 0.38143 0.23847 0.0
C6227 C 0.05603 0.40458 0.27863 0.0
C6228 C 0.04097 0.39787 0.26557 0.0
H6229 H 0.97399 0.33474 0.22967 0.0
H6230 H 0.99997 0.35275 0.2189 0.0
H6231 H 0.02255 0.39896 0.20711 0.0
H6232 H 0.08571 0.39878 0.27116 0.0
H6233 H 0.06584 0.39883 0.24427 0.0
C6234 C 0.62283 0.66372 0.3151 0.0
C6235 C 0.62614 0.67782 0.30398 0.0
C6236 C 0.62153 0.65208 0.29787 0.0
C6237 C 0.63612 0.64952 0.22868 0.0
H6238 H 0.62724 0.6113 0.26169 0.0
C6239 C 0.68105 0.63544 0.2422 0.0
C6240 C 0.67787 0.62154 0.25386 0.0
C6241 C 0.66934 0.63733 0.23165 0.0
C6242 C 0.62954 0.62166 0.25127 0.0
H6243 H 0.62846 0.6896 0.26478 0.0
H6244 H 0.62445 0.66897 0.2354 0.0
H6245 H 0.61326 0.62344 0.2765 0.0
H6246 H 0.66056 0.59798 0.25923 0.0
H6247 H 0.64005 0.60108 0.23987 0.0
H6248 H 0.65205 0.64746 0.2028 0.0
C6249 C 0.62402 0.66723 0.25759 0.0
C6250 C 0.62169 0.62887 0.26038 0.0
C6251 C 0.62599 0.67911 0.27482 0.0
C6252 C 0.66319 0.60895 0.25108 0.0
C6253 C 0.65145 0.61077 0.24007 0.0
C6254 C 0.64351 0.642 0.21878 0.0
C6255 C 0.6229 0.65396 0.26882 0.0
C6256 C 0.62606 0.64366 0.25137 0.0
C6257 C 0.65416 0.62529 0.2324 0.0
C6258 C 0.64158 0.62888 0.2322 0.0
H6259 H 0.62209 0.66184 0.33726 0.0
H6260 H 0.62061 0.64211 0.30778 0.0
H6261 H 0.63966 0.66066 0.22029 0.0
H6262 H 0.69229 0.64534 0.24391 0.0
H6263 H 0.67213 0.64872 0.22594 0.0
loop_
_geom_bond_atom_site_label_1
_geom_bond_atom_site_label_2
_geom_bond_distance
_geom_bond_site_symmetry_2
_ccdc_geom_bond_type
Eu0 N29 2.600 . S
Eu0 N35 2.562 . S
Eu0 O44 2.462 . S
Eu0 O45 2.373 . S
Eu0 O47 2.432 . S
Eu0 O48 2.291 . S
Eu0 O52 2.335 . S
Eu0 O55 2.372 . S
Eu0 C64 2.787 . S
C1 N2 1.365 . S
C1 C4 1.405 . S
C1 C8 1.448 . S
N2 C1 1.365 . S
N2 C5 1.319 . S
N2 Eu11 2.600 . S
C3 C5 1.397 . S
C3 C6 1.367 . S
C3 H23 0.931 . S
C4 C1 1.405 . S
C4 C6 1.403 . S
C4 C10 1.439 . S
C5 N2 1.319 . S
C5 C3 1.397 . S
C5 H16 0.930 . S
C6 C3 1.367 . S
C6 C4 1.403 . S
C6 H27 0.929 . S
C7 C8 1.430 . S
C7 C9 1.387 . S
C7 C13 1.404 1_554 S
C8 C1 1.448 . S
C8 C7 1.430 . S
C8 N12 1.351 . S
C9 C7 1.387 . S
C9 C10 1.374 . S
C9 H24 0.931 . S
C10 C4 1.439 . S
C10 C9 1.374 . S
C10 H25 0.931 . S
Eu11 N2 2.600 . S
Eu11 N12 2.562 . S
Eu11 O46 2.335 . S
Eu11 O49 2.372 . S
Eu11 O50 2.462 . S
Eu11 O51 2.373 . S
Eu11 O53 2.432 . S
Eu11 O54 2.291 . S
Eu11 C75 2.787 . S
N12 C8 1.351 . S
N12 Eu11 2.562 . S
N12 C14 1.325 . S
C13 C7 1.404 1_556 S
C13 C15 1.366 . S
C13 H21 0.930 . S
C14 N12 1.325 . S
C14 C15 1.416 1_554 S
C14 H20 0.929 . S
C15 C13 1.366 . S
C15 C14 1.416 1_556 S
C15 H17 0.930 . S
H16 C5 0.930 . S
H17 C15 0.930 . S
H18 C33 0.930 . S
H19 C40 0.930 . S
H20 C14 0.929 . S
H21 C13 0.930 . S
H22 C36 0.929 . S
H23 C3 0.931 . S
H24 C9 0.931 . S
H25 C10 0.931 . S
H26 C31 0.931 . S
H27 C6 0.929 . S
H28 C39 0.930 . S
N29 Eu0 2.600 . S
N29 C30 1.365 . S
N29 C33 1.319 . S
C30 N29 1.365 . S
C30 C32 1.405 . S
C30 C38 1.448 . S
C31 H26 0.931 . S
C31 C33 1.397 . S
C31 C34 1.367 . S
C32 C30 1.405 . S
C32 C34 1.403 . S
C32 C65 1.439 . S
C33 H18 0.930 . S
C33 N29 1.319 . S
C33 C31 1.397 . S
C34 C31 1.367 . S
C34 C32 1.403 . S
C34 H41 0.929 . S
N35 Eu0 2.562 . S
N35 C36 1.325 . S
N35 C38 1.351 . S
C36 H22 0.929 . S
C36 N35 1.325 . S
C36 C40 1.416 . S
C37 C38 1.430 . S
C37 C39 1.404 . S
C37 C66 1.387 . S
C38 C30 1.448 . S
C38 N35 1.351 . S
C38 C37 1.430 . S
C39 H28 0.930 . S
C39 C37 1.404 . S
C39 C40 1.366 . S
C40 H19 0.930 . S
C40 C36 1.416 . S
C40 C39 1.366 . S
H41 C34 0.929 . S
H42 C65 0.931 . S
H43 C66 0.931 . S
O44 Eu0 2.462 . S
O44 C64 1.252 . S
O45 Eu0 2.373 . S
O45 C56 1.249 . S
O46 Eu11 2.335 . S
O46 C56 1.264 . S
O47 Eu0 2.432 . S
O47 C64 1.268 . S
O48 Eu0 2.291 . S
O48 C63 1.255 . S
O49 Eu11 2.372 . S
O49 C63 1.257 . S
O50 Eu11 2.462 . S
O50 C75 1.252 . S
O51 Eu11 2.373 . S
O51 C67 1.249 . S
O52 Eu0 2.335 . S
O52 C67 1.264 . S
O53 Eu11 2.432 . S
O53 C75 1.268 . S
O54 Eu11 2.291 . S
O54 C74 1.255 . S
O55 Eu0 2.372 . S
O55 C74 1.257 . S
C56 O45 1.249 . S
C56 O46 1.264 . S
C57 C60 1.382 . S
C57 C62 1.390 . S
C57 C64 1.506 . S
C58 C59 1.398 . S
C58 C62 1.392 . S
C59 C58 1.398 . S
C59 C61 1.372 . S
C59 H76 0.931 . S
C60 C57 1.382 . S
C60 C61 1.390 . S
C60 H77 0.931 . S
C61 C59 1.372 . S
C61 C60 1.390 . S
C61 H78 0.929 . S
C62 C57 1.390 . S
C62 C58 1.392 . S
C62 H79 0.930 . S
C63 O48 1.255 . S
C63 O49 1.257 . S
C64 Eu0 2.787 . S
C64 O44 1.252 . S
C64 O47 1.268 . S
C64 C57 1.506 . S
C65 C32 1.439 . S
C65 H42 0.931 . S
C65 C66 1.374 . S
C66 C37 1.387 . S
C66 H43 0.931 . S
C66 C65 1.374 . S
C67 O51 1.249 . S
C67 O52 1.264 . S
C68 C71 1.382 . S
C68 C72 1.390 . S
C68 C75 1.506 . S
C69 C70 1.398 . S
C69 C72 1.392 . S
C70 C69 1.398 . S
C70 C73 1.372 . S
C70 H80 0.931 . S
C71 C68 1.382 . S
C71 C73 1.390 . S
C71 H81 0.931 . S
C72 C68 1.390 . S
C72 C69 1.392 . S
C72 H82 0.930 . S
C73 C70 1.372 . S
C73 C71 1.390 . S
C73 H83 0.929 . S
C74 O54 1.255 . S
C74 O55 1.257 . S
C75 Eu11 2.787 . S
C75 O50 1.252 . S
C75 O53 1.268 . S
C75 C68 1.506 . S
H76 C59 0.931 . S
H77 C60 0.931 . S
H78 C61 0.929 . S
H79 C62 0.930 . S
H80 C70 0.931 . S
H81 C71 0.931 . S
H82 C72 0.930 . S
H83 C73 0.929 . S
Eu84 N113 2.600 . S
Eu84 N119 2.562 . S
Eu84 O128 2.462 . S
Eu84 O129 2.373 . S
Eu84 O131 2.432 . S
Eu84 O132 2.291 . S
Eu84 O136 2.335 . S
Eu84 O139 2.372 . S
Eu84 C148 2.787 . S
C85 N86 1.365 . S
C85 C88 1.405 . S
C85 C92 1.448 . S
N86 C85 1.365 . S
N86 C89 1.319 . S
N86 Eu95 2.600 . S
C87 C89 1.397 . S
C87 C90 1.367 . S
C87 H107 0.931 . S
C88 C85 1.405 . S
C88 C90 1.403 . S
C88 C94 1.439 . S
C89 N86 1.319 . S
C89 C87 1.397 . S
C89 H100 0.930 . S
C90 C87 1.367 . S
C90 C88 1.403 . S
C90 H111 0.929 . S
C91 C92 1.430 . S
C91 C93 1.387 . S
C91 C97 1.404 1_554 S
C92 C85 1.448 . S
C92 C91 1.430 . S
C92 N96 1.351 . S
C93 C91 1.387 . S
C93 C94 1.374 . S
C93 H108 0.931 . S
C94 C88 1.439 . S
C94 C93 1.374 . S
C94 H109 0.931 . S
Eu95 N86 2.600 . S
Eu95 N96 2.562 . S
Eu95 O130 2.335 . S
Eu95 O133 2.372 . S
Eu95 O134 2.462 . S
Eu95 O135 2.373 . S
Eu95 O137 2.432 . S
Eu95 O138 2.291 . S
Eu95 C159 2.787 . S
N96 C92 1.351 . S
N96 Eu95 2.562 . S
N96 C98 1.325 . S
C97 C91 1.404 1_556 S
C97 C99 1.366 . S
C97 H105 0.930 . S
C98 N96 1.325 . S
C98 C99 1.416 1_554 S
C98 H104 0.929 . S
C99 C97 1.366 . S
C99 C98 1.416 1_556 S
C99 H101 0.930 . S
H100 C89 0.930 . S
H101 C99 0.930 . S
H102 C117 0.930 . S
H103 C124 0.930 . S
H104 C98 0.929 . S
H105 C97 0.930 . S
H106 C120 0.929 . S
H107 C87 0.931 . S
H108 C93 0.931 . S
H109 C94 0.931 . S
H110 C115 0.931 . S
H111 C90 0.929 . S
H112 C123 0.930 . S
N113 Eu84 2.600 . S
N113 C114 1.365 . S
N113 C117 1.319 . S
C114 N113 1.365 . S
C114 C116 1.405 . S
C114 C122 1.448 . S
C115 H110 0.931 . S
C115 C117 1.397 . S
C115 C118 1.367 . S
C116 C114 1.405 . S
C116 C118 1.403 . S
C116 C149 1.439 . S
C117 H102 0.930 . S
C117 N113 1.319 . S
C117 C115 1.397 . S
C118 C115 1.367 . S
C118 C116 1.403 . S
C118 H125 0.929 . S
N119 Eu84 2.562 . S
N119 C120 1.325 . S
N119 C122 1.351 . S
C120 H106 0.929 . S
C120 N119 1.325 . S
C120 C124 1.416 . S
C121 C122 1.430 . S
C121 C123 1.404 . S
C121 C150 1.387 . S
C122 C114 1.448 . S
C122 N119 1.351 . S
C122 C121 1.430 . S
C123 H112 0.930 . S
C123 C121 1.404 . S
C123 C124 1.366 . S
C124 H103 0.930 . S
C124 C120 1.416 . S
C124 C123 1.366 . S
H125 C118 0.929 . S
H126 C149 0.931 . S
H127 C150 0.931 . S
O128 Eu84 2.462 . S
O128 C148 1.252 . S
O129 Eu84 2.373 . S
O129 C140 1.249 . S
O130 Eu95 2.335 . S
O130 C140 1.264 . S
O131 Eu84 2.432 . S
O131 C148 1.268 . S
O132 Eu84 2.291 . S
O132 C147 1.255 . S
O133 Eu95 2.372 . S
O133 C147 1.257 . S
O134 Eu95 2.462 . S
O134 C159 1.252 . S
O135 Eu95 2.373 . S
O135 C151 1.249 . S
O136 Eu84 2.335 . S
O136 C151 1.264 . S
O137 Eu95 2.432 . S
O137 C159 1.268 . S
O138 Eu95 2.291 . S
O138 C158 1.255 . S
O139 Eu84 2.372 . S
O139 C158 1.257 . S
C140 O129 1.249 . S
C140 O130 1.264 . S
C141 C144 1.382 . S
C141 C146 1.390 . S
C141 C148 1.506 . S
C142 C143 1.398 . S
C142 C146 1.392 . S
C143 C142 1.398 . S
C143 C145 1.372 . S
C143 H160 0.931 . S
C144 C141 1.382 . S
C144 C145 1.390 . S
C144 H161 0.931 . S
C145 C143 1.372 . S
C145 C144 1.390 . S
C145 H162 0.929 . S
C146 C141 1.390 . S
C146 C142 1.392 . S
C146 H163 0.930 . S
C147 O132 1.255 . S
C147 O133 1.257 . S
C148 Eu84 2.787 . S
C148 O128 1.252 . S
C148 O131 1.268 . S
C148 C141 1.506 . S
C149 C116 1.439 . S
C149 H126 0.931 . S
C149 C150 1.374 . S
C150 C121 1.387 . S
C150 H127 0.931 . S
C150 C149 1.374 . S
C151 O135 1.249 . S
C151 O136 1.264 . S
C152 C155 1.382 . S
C152 C156 1.390 . S
C152 C159 1.506 . S
C153 C154 1.398 . S
C153 C156 1.392 . S
C154 C153 1.398 . S
C154 C157 1.372 . S
C154 H164 0.931 . S
C155 C152 1.382 . S
C155 C157 1.390 . S
C155 H165 0.931 . S
C156 C152 1.390 . S
C156 C153 1.392 . S
C156 H166 0.930 . S
C157 C154 1.372 . S
C157 C155 1.390 . S
C157 H167 0.929 . S
C158 O138 1.255 . S
C158 O139 1.257 . S
C159 Eu95 2.787 . S
C159 O134 1.252 . S
C159 O137 1.268 . S
C159 C152 1.506 . S
H160 C143 0.931 . S
H161 C144 0.931 . S
H162 C145 0.929 . S
H163 C146 0.930 . S
H164 C154 0.931 . S
H165 C155 0.931 . S
H166 C156 0.930 . S
H167 C157 0.929 . S
Eu168 N197 2.600 . S
Eu168 N203 2.562 . S
Eu168 O212 2.462 . S
Eu168 O213 2.373 . S
Eu168 O215 2.432 . S
Eu168 O216 2.291 . S
Eu168 O220 2.335 . S
Eu168 O223 2.372 . S
Eu168 C232 2.787 . S
C169 N170 1.365 . S
C169 C172 1.405 . S
C169 C176 1.448 . S
N170 C169 1.365 . S
N170 C173 1.319 . S
N170 Eu179 2.600 . S
C171 C173 1.397 . S
C171 C174 1.367 . S
C171 H191 0.931 . S
C172 C169 1.405 . S
C172 C174 1.403 . S
C172 C178 1.439 . S
C173 N170 1.319 . S
C173 C171 1.397 . S
C173 H184 0.930 . S
C174 C171 1.367 . S
C174 C172 1.403 . S
C174 H195 0.929 . S
C175 C176 1.430 . S
C175 C177 1.387 . S
C175 C181 1.404 1_554 S
C176 C169 1.448 . S
C176 C175 1.430 . S
C176 N180 1.351 . S
C177 C175 1.387 . S
C177 C178 1.374 . S
C177 H192 0.931 . S
C178 C172 1.439 . S
C178 C177 1.374 . S
C178 H193 0.931 . S
Eu179 N170 2.600 . S
Eu179 N180 2.562 . S
Eu179 O214 2.335 . S
Eu179 O217 2.372 . S
Eu179 O218 2.462 . S
Eu179 O219 2.373 . S
Eu179 O221 2.432 . S
Eu179 O222 2.291 . S
Eu179 C243 2.787 . S
N180 C176 1.351 . S
N180 Eu179 2.562 . S
N180 C182 1.325 . S
C181 C175 1.404 1_556 S
C181 C183 1.366 . S
C181 H189 0.930 . S
C182 N180 1.325 . S
C182 C183 1.416 1_554 S
C182 H188 0.929 . S
C183 C181 1.366 . S
C183 C182 1.416 1_556 S
C183 H185 0.930 . S
H184 C173 0.930 . S
H185 C183 0.930 . S
H186 C201 0.930 . S
H187 C208 0.930 . S
H188 C182 0.929 . S
H189 C181 0.930 . S
H190 C204 0.929 . S
H191 C171 0.931 . S
H192 C177 0.931 . S
H193 C178 0.931 . S
H194 C199 0.931 . S
H195 C174 0.929 . S
H196 C207 0.930 . S
N197 Eu168 2.600 . S
N197 C198 1.365 . S
N197 C201 1.319 . S
C198 N197 1.365 . S
C198 C200 1.405 . S
C198 C206 1.448 . S
C199 H194 0.931 . S
C199 C201 1.397 . S
C199 C202 1.367 . S
C200 C198 1.405 . S
C200 C202 1.403 . S
C200 C233 1.439 . S
C201 H186 0.930 . S
C201 N197 1.319 . S
C201 C199 1.397 . S
C202 C199 1.367 . S
C202 C200 1.403 . S
C202 H209 0.929 . S
N203 Eu168 2.562 . S
N203 C204 1.325 . S
N203 C206 1.351 . S
C204 H190 0.929 . S
C204 N203 1.325 . S
C204 C208 1.416 . S
C205 C206 1.430 . S
C205 C207 1.404 . S
C205 C234 1.387 . S
C206 C198 1.448 . S
C206 N203 1.351 . S
C206 C205 1.430 . S
C207 H196 0.930 . S
C207 C205 1.404 . S
C207 C208 1.366 . S
C208 H187 0.930 . S
C208 C204 1.416 . S
C208 C207 1.366 . S
H209 C202 0.929 . S
H210 C233 0.931 . S
H211 C234 0.931 . S
O212 Eu168 2.462 . S
O212 C232 1.252 . S
O213 Eu168 2.373 . S
O213 C224 1.249 . S
O214 Eu179 2.335 . S
O214 C224 1.264 . S
O215 Eu168 2.432 . S
O215 C232 1.268 . S
O216 Eu168 2.291 . S
O216 C231 1.255 . S
O217 Eu179 2.372 . S
O217 C231 1.257 . S
O218 Eu179 2.462 . S
O218 C243 1.252 . S
O219 Eu179 2.373 . S
O219 C235 1.249 . S
O220 Eu168 2.335 . S
O220 C235 1.264 . S
O221 Eu179 2.432 . S
O221 C243 1.268 . S
O222 Eu179 2.291 . S
O222 C242 1.255 . S
O223 Eu168 2.372 . S
O223 C242 1.257 . S
C224 O213 1.249 . S
C224 O214 1.264 . S
C225 C228 1.382 . S
C225 C230 1.390 . S
C225 C232 1.506 . S
C226 C227 1.398 . S
C226 C230 1.392 . S
C227 C226 1.398 . S
C227 C229 1.372 . S
C227 H244 0.931 . S
C228 C225 1.382 . S
C228 C229 1.390 . S
C228 H245 0.931 . S
C229 C227 1.372 . S
C229 C228 1.390 . S
C229 H246 0.929 . S
C230 C225 1.390 . S
C230 C226 1.392 . S
C230 H247 0.930 . S
C231 O216 1.255 . S
C231 O217 1.257 . S
C232 Eu168 2.787 . S
C232 O212 1.252 . S
C232 O215 1.268 . S
C232 C225 1.506 . S
C233 C200 1.439 . S
C233 H210 0.931 . S
C233 C234 1.374 . S
C234 C205 1.387 . S
C234 H211 0.931 . S
C234 C233 1.374 . S
C235 O219 1.249 . S
C235 O220 1.264 . S
C236 C239 1.382 . S
C236 C240 1.390 . S
C236 C243 1.506 . S
C237 C238 1.398 . S
C237 C240 1.392 . S
C238 C237 1.398 . S
C238 C241 1.372 . S
C238 H248 0.931 . S
C239 C236 1.382 . S
C239 C241 1.390 . S
C239 H249 0.931 . S
C240 C236 1.390 . S
C240 C237 1.392 . S
C240 H250 0.930 . S
C241 C238 1.372 . S
C241 C239 1.390 . S
C241 H251 0.929 . S
C242 O222 1.255 . S
C242 O223 1.257 . S
C243 Eu179 2.787 . S
C243 O218 1.252 . S
C243 O221 1.268 . S
C243 C236 1.506 . S
H244 C227 0.931 . S
H245 C228 0.931 . S
H246 C229 0.929 . S
H247 C230 0.930 . S
H248 C238 0.931 . S
H249 C239 0.931 . S
H250 C240 0.930 . S
H251 C241 0.929 . S
Eu252 N281 2.600 . S
Eu252 N287 2.562 . S
Eu252 O296 2.462 . S
Eu252 O297 2.373 . S
Eu252 O299 2.432 . S
Eu252 O300 2.291 . S
Eu252 O304 2.335 . S
Eu252 O307 2.372 . S
Eu252 C316 2.787 . S
C253 N254 1.365 . S
C253 C256 1.405 . S
C253 C260 1.448 . S
N254 C253 1.365 . S
N254 C257 1.319 . S
N254 Eu263 2.600 . S
C255 C257 1.397 . S
C255 C258 1.367 . S
C255 H275 0.931 . S
C256 C253 1.405 . S
C256 C258 1.403 . S
C256 C262 1.439 . S
C257 N254 1.319 . S
C257 C255 1.397 . S
C257 H268 0.930 . S
C258 C255 1.367 . S
C258 C256 1.403 . S
C258 H279 0.929 . S
C259 C260 1.430 . S
C259 C261 1.387 . S
C259 C265 1.404 . S
C260 C253 1.448 . S
C260 C259 1.430 . S
C260 N264 1.351 . S
C261 C259 1.387 . S
C261 C262 1.374 . S
C261 H276 0.931 . S
C262 C256 1.439 . S
C262 C261 1.374 . S
C262 H277 0.931 . S
Eu263 N254 2.600 . S
Eu263 N264 2.562 . S
Eu263 O298 2.335 . S
Eu263 O301 2.372 . S
Eu263 O302 2.462 . S
Eu263 O303 2.373 . S
Eu263 O305 2.432 . S
Eu263 O306 2.291 . S
Eu263 C327 2.787 . S
N264 C260 1.351 . S
N264 Eu263 2.562 . S
N264 C266 1.325 . S
C265 C259 1.404 . S
C265 C267 1.366 . S
C265 H273 0.930 . S
C266 N264 1.325 . S
C266 C267 1.416 . S
C266 H272 0.929 . S
C267 C265 1.366 . S
C267 C266 1.416 . S
C267 H269 0.930 . S
H268 C257 0.930 . S
H269 C267 0.930 . S
H270 C285 0.930 . S
H271 C292 0.930 . S
H272 C266 0.929 . S
H273 C265 0.930 . S
H274 C288 0.929 . S
H275 C255 0.931 . S
H276 C261 0.931 . S
H277 C262 0.931 . S
H278 C283 0.931 . S
H279 C258 0.929 . S
H280 C291 0.930 . S
N281 Eu252 2.600 . S
N281 C282 1.365 . S
N281 C285 1.319 . S
C282 N281 1.365 . S
C282 C284 1.405 . S
C282 C290 1.448 . S
C283 H278 0.931 . S
C283 C285 1.397 . S
C283 C286 1.367 . S
C284 C282 1.405 . S
C284 C286 1.403 . S
C284 C317 1.439 . S
C285 H270 0.930 . S
C285 N281 1.319 . S
C285 C283 1.397 . S
C286 C283 1.367 . S
C286 C284 1.403 . S
C286 H293 0.929 . S
N287 Eu252 2.562 . S
N287 C288 1.325 . S
N287 C290 1.351 . S
C288 H274 0.929 . S
C288 N287 1.325 . S
C288 C292 1.416 . S
C289 C290 1.430 . S
C289 C291 1.404 . S
C289 C318 1.387 . S
C290 C282 1.448 . S
C290 N287 1.351 . S
C290 C289 1.430 . S
C291 H280 0.930 . S
C291 C289 1.404 . S
C291 C292 1.366 . S
C292 H271 0.930 . S
C292 C288 1.416 . S
C292 C291 1.366 . S
H293 C286 0.929 . S
H294 C317 0.931 . S
H295 C318 0.931 . S
O296 Eu252 2.462 . S
O296 C316 1.252 . S
O297 Eu252 2.373 . S
O297 C308 1.249 . S
O298 Eu263 2.335 . S
O298 C308 1.264 . S
O299 Eu252 2.432 . S
O299 C316 1.268 . S
O300 Eu252 2.291 . S
O300 C315 1.255 . S
O301 Eu263 2.372 . S
O301 C315 1.257 . S
O302 Eu263 2.462 . S
O302 C327 1.252 . S
O303 Eu263 2.373 . S
O303 C319 1.249 . S
O304 Eu252 2.335 . S
O304 C319 1.264 . S
O305 Eu263 2.432 . S
O305 C327 1.268 . S
O306 Eu263 2.291 . S
O306 C326 1.255 . S
O307 Eu252 2.372 . S
O307 C326 1.257 . S
C308 O297 1.249 . S
C308 O298 1.264 . S
C309 C312 1.382 . S
C309 C314 1.390 . S
C309 C316 1.506 . S
C310 C311 1.398 . S
C310 C314 1.392 . S
C311 C310 1.398 . S
C311 C313 1.372 . S
C311 H328 0.931 . S
C312 C309 1.382 . S
C312 C313 1.390 . S
C312 H329 0.931 . S
C313 C311 1.372 . S
C313 C312 1.390 . S
C313 H330 0.929 . S
C314 C309 1.390 . S
C314 C310 1.392 . S
C314 H331 0.930 . S
C315 O300 1.255 . S
C315 O301 1.257 . S
C316 Eu252 2.787 . S
C316 O296 1.252 . S
C316 O299 1.268 . S
C316 C309 1.506 . S
C317 C284 1.439 . S
C317 H294 0.931 . S
C317 C318 1.374 . S
C318 C289 1.387 . S
C318 H295 0.931 . S
C318 C317 1.374 . S
C319 O303 1.249 . S
C319 O304 1.264 . S
C320 C323 1.382 . S
C320 C324 1.390 . S
C320 C327 1.506 . S
C321 C322 1.398 . S
C321 C324 1.392 . S
C322 C321 1.398 . S
C322 C325 1.372 . S
C322 H332 0.931 . S
C323 C320 1.382 . S
C323 C325 1.390 . S
C323 H333 0.931 . S
C324 C320 1.390 . S
C324 C321 1.392 . S
C324 H334 0.930 . S
C325 C322 1.372 . S
C325 C323 1.390 . S
C325 H335 0.929 . S
C326 O306 1.255 . S
C326 O307 1.257 . S
C327 Eu263 2.787 . S
C327 O302 1.252 . S
C327 O305 1.268 . S
C327 C320 1.506 . S
H328 C311 0.931 . S
H329 C312 0.931 . S
H330 C313 0.929 . S
H331 C314 0.930 . S
H332 C322 0.931 . S
H333 C323 0.931 . S
H334 C324 0.930 . S
H335 C325 0.929 . S
Eu336 N365 2.600 . S
Eu336 N371 2.562 . S
Eu336 O380 2.462 . S
Eu336 O381 2.373 . S
Eu336 O383 2.432 . S
Eu336 O384 2.291 . S
Eu336 O388 2.335 . S
Eu336 O391 2.372 . S
Eu336 C400 2.787 . S
C337 N338 1.365 . S
C337 C340 1.405 . S
C337 C344 1.448 . S
N338 C337 1.365 . S
N338 C341 1.319 . S
N338 Eu347 2.600 . S
C339 C341 1.397 . S
C339 C342 1.367 . S
C339 H359 0.931 . S
C340 C337 1.405 . S
C340 C342 1.403 . S
C340 C346 1.439 . S
C341 N338 1.319 . S
C341 C339 1.397 . S
C341 H352 0.930 . S
C342 C339 1.367 . S
C342 C340 1.403 . S
C342 H363 0.929 . S
C343 C344 1.430 . S
C343 C345 1.387 . S
C343 C349 1.404 . S
C344 C337 1.448 . S
C344 C343 1.430 . S
C344 N348 1.351 . S
C345 C343 1.387 . S
C345 C346 1.374 . S
C345 H360 0.931 . S
C346 C340 1.439 . S
C346 C345 1.374 . S
C346 H361 0.931 . S
Eu347 N338 2.600 . S
Eu347 N348 2.562 . S
Eu347 O382 2.335 . S
Eu347 O385 2.372 . S
Eu347 O386 2.462 . S
Eu347 O387 2.373 . S
Eu347 O389 2.432 . S
Eu347 O390 2.291 . S
Eu347 C411 2.787 . S
N348 C344 1.351 . S
N348 Eu347 2.562 . S
N348 C350 1.325 . S
C349 C343 1.404 . S
C349 C351 1.366 . S
C349 H357 0.930 . S
C350 N348 1.325 . S
C350 C351 1.416 . S
C350 H356 0.929 . S
C351 C349 1.366 . S
C351 C350 1.416 . S
C351 H353 0.930 . S
H352 C341 0.930 . S
H353 C351 0.930 . S
H354 C369 0.930 . S
H355 C376 0.930 . S
H356 C350 0.929 . S
H357 C349 0.930 . S
H358 C372 0.929 . S
H359 C339 0.931 . S
H360 C345 0.931 . S
H361 C346 0.931 . S
H362 C367 0.931 . S
H363 C342 0.929 . S
H364 C375 0.930 . S
N365 Eu336 2.600 . S
N365 C366 1.365 . S
N365 C369 1.319 . S
C366 N365 1.365 . S
C366 C368 1.405 . S
C366 C374 1.448 . S
C367 H362 0.931 . S
C367 C369 1.397 . S
C367 C370 1.367 . S
C368 C366 1.405 . S
C368 C370 1.403 . S
C368 C401 1.439 . S
C369 H354 0.930 . S
C369 N365 1.319 . S
C369 C367 1.397 . S
C370 C367 1.367 . S
C370 C368 1.403 . S
C370 H377 0.929 . S
N371 Eu336 2.562 . S
N371 C372 1.325 . S
N371 C374 1.351 . S
C372 H358 0.929 . S
C372 N371 1.325 . S
C372 C376 1.416 . S
C373 C374 1.430 . S
C373 C375 1.404 . S
C373 C402 1.387 . S
C374 C366 1.448 . S
C374 N371 1.351 . S
C374 C373 1.430 . S
C375 H364 0.930 . S
C375 C373 1.404 . S
C375 C376 1.366 . S
C376 H355 0.930 . S
C376 C372 1.416 . S
C376 C375 1.366 . S
H377 C370 0.929 . S
H378 C401 0.931 . S
H379 C402 0.931 . S
O380 Eu336 2.462 . S
O380 C400 1.252 . S
O381 Eu336 2.373 . S
O381 C392 1.249 . S
O382 Eu347 2.335 . S
O382 C392 1.264 . S
O383 Eu336 2.432 . S
O383 C400 1.268 . S
O384 Eu336 2.291 . S
O384 C399 1.255 . S
O385 Eu347 2.372 . S
O385 C399 1.257 . S
O386 Eu347 2.462 . S
O386 C411 1.252 . S
O387 Eu347 2.373 . S
O387 C403 1.249 . S
O388 Eu336 2.335 . S
O388 C403 1.264 . S
O389 Eu347 2.432 . S
O389 C411 1.268 . S
O390 Eu347 2.291 . S
O390 C410 1.255 . S
O391 Eu336 2.372 . S
O391 C410 1.257 . S
C392 O381 1.249 . S
C392 O382 1.264 . S
C393 C396 1.382 . S
C393 C398 1.390 . S
C393 C400 1.506 . S
C394 C395 1.398 . S
C394 C398 1.392 . S
C395 C394 1.398 . S
C395 C397 1.372 . S
C395 H412 0.931 . S
C396 C393 1.382 . S
C396 C397 1.390 . S
C396 H413 0.931 . S
C397 C395 1.372 . S
C397 C396 1.390 . S
C397 H414 0.929 . S
C398 C393 1.390 . S
C398 C394 1.392 . S
C398 H415 0.930 . S
C399 O384 1.255 . S
C399 O385 1.257 . S
C400 Eu336 2.787 . S
C400 O380 1.252 . S
C400 O383 1.268 . S
C400 C393 1.506 . S
C401 C368 1.439 . S
C401 H378 0.931 . S
C401 C402 1.374 . S
C402 C373 1.387 . S
C402 H379 0.931 . S
C402 C401 1.374 . S
C403 O387 1.249 . S
C403 O388 1.264 . S
C404 C407 1.382 . S
C404 C408 1.390 . S
C404 C411 1.506 . S
C405 C406 1.398 . S
C405 C408 1.392 . S
C406 C405 1.398 . S
C406 C409 1.372 . S
C406 H416 0.931 . S
C407 C404 1.382 . S
C407 C409 1.390 . S
C407 H417 0.931 . S
C408 C404 1.390 . S
C408 C405 1.392 . S
C408 H418 0.930 . S
C409 C406 1.372 . S
C409 C407 1.390 . S
C409 H419 0.929 . S
C410 O390 1.255 . S
C410 O391 1.257 . S
C411 Eu347 2.787 . S
C411 O386 1.252 . S
C411 O389 1.268 . S
C411 C404 1.506 . S
H412 C395 0.931 . S
H413 C396 0.931 . S
H414 C397 0.929 . S
H415 C398 0.930 . S
H416 C406 0.931 . S
H417 C407 0.931 . S
H418 C408 0.930 . S
H419 C409 0.929 . S
Eu420 N449 2.600 . S
Eu420 N455 2.562 . S
Eu420 O464 2.462 . S
Eu420 O465 2.373 . S
Eu420 O467 2.432 . S
Eu420 O468 2.291 . S
Eu420 O472 2.335 . S
Eu420 O475 2.372 . S
Eu420 C484 2.787 . S
C421 N422 1.365 . S
C421 C424 1.405 . S
C421 C428 1.448 . S
N422 C421 1.365 . S
N422 C425 1.319 . S
N422 Eu431 2.600 . S
C423 C425 1.397 . S
C423 C426 1.367 . S
C423 H443 0.931 . S
C424 C421 1.405 . S
C424 C426 1.403 . S
C424 C430 1.439 . S
C425 N422 1.319 . S
C425 C423 1.397 . S
C425 H436 0.930 . S
C426 C423 1.367 . S
C426 C424 1.403 . S
C426 H447 0.929 . S
C427 C428 1.430 . S
C427 C429 1.387 . S
C427 C433 1.404 . S
C428 C421 1.448 . S
C428 C427 1.430 . S
C428 N432 1.351 . S
C429 C427 1.387 . S
C429 C430 1.374 . S
C429 H444 0.931 . S
C430 C424 1.439 . S
C430 C429 1.374 . S
C430 H445 0.931 . S
Eu431 N422 2.600 . S
Eu431 N432 2.562 . S
Eu431 O466 2.335 . S
Eu431 O469 2.372 . S
Eu431 O470 2.462 . S
Eu431 O471 2.373 . S
Eu431 O473 2.432 . S
Eu431 O474 2.291 . S
Eu431 C495 2.787 . S
N432 C428 1.351 . S
N432 Eu431 2.562 . S
N432 C434 1.325 . S
C433 C427 1.404 . S
C433 C435 1.366 . S
C433 H441 0.930 . S
C434 N432 1.325 . S
C434 C435 1.416 . S
C434 H440 0.929 . S
C435 C433 1.366 . S
C435 C434 1.416 . S
C435 H437 0.930 . S
H436 C425 0.930 . S
H437 C435 0.930 . S
H438 C453 0.930 . S
H439 C460 0.930 . S
H440 C434 0.929 . S
H441 C433 0.930 . S
H442 C456 0.929 . S
H443 C423 0.931 . S
H444 C429 0.931 . S
H445 C430 0.931 . S
H446 C451 0.931 . S
H447 C426 0.929 . S
H448 C459 0.930 . S
N449 Eu420 2.600 . S
N449 C450 1.365 . S
N449 C453 1.319 . S
C450 N449 1.365 . S
C450 C452 1.405 . S
C450 C458 1.448 . S
C451 H446 0.931 . S
C451 C453 1.397 . S
C451 C454 1.367 . S
C452 C450 1.405 . S
C452 C454 1.403 . S
C452 C485 1.439 . S
C453 H438 0.930 . S
C453 N449 1.319 . S
C453 C451 1.397 . S
C454 C451 1.367 . S
C454 C452 1.403 . S
C454 H461 0.929 . S
N455 Eu420 2.562 . S
N455 C456 1.325 . S
N455 C458 1.351 . S
C456 H442 0.929 . S
C456 N455 1.325 . S
C456 C460 1.416 . S
C457 C458 1.430 . S
C457 C459 1.404 . S
C457 C486 1.387 . S
C458 C450 1.448 . S
C458 N455 1.351 . S
C458 C457 1.430 . S
C459 H448 0.930 . S
C459 C457 1.404 . S
C459 C460 1.366 . S
C460 H439 0.930 . S
C460 C456 1.416 . S
C460 C459 1.366 . S
H461 C454 0.929 . S
H462 C485 0.931 . S
H463 C486 0.931 . S
O464 Eu420 2.462 . S
O464 C484 1.252 . S
O465 Eu420 2.373 . S
O465 C476 1.249 . S
O466 Eu431 2.335 . S
O466 C476 1.264 . S
O467 Eu420 2.432 . S
O467 C484 1.268 . S
O468 Eu420 2.291 . S
O468 C483 1.255 . S
O469 Eu431 2.372 . S
O469 C483 1.257 . S
O470 Eu431 2.462 . S
O470 C495 1.252 . S
O471 Eu431 2.373 . S
O471 C487 1.249 . S
O472 Eu420 2.335 . S
O472 C487 1.264 . S
O473 Eu431 2.432 . S
O473 C495 1.268 . S
O474 Eu431 2.291 . S
O474 C494 1.255 . S
O475 Eu420 2.372 . S
O475 C494 1.257 . S
C476 O465 1.249 . S
C476 O466 1.264 . S
C477 C480 1.382 . S
C477 C482 1.390 . S
C477 C484 1.506 . S
C478 C479 1.398 . S
C478 C482 1.392 . S
C479 C478 1.398 . S
C479 C481 1.372 . S
C479 H496 0.931 . S
C480 C477 1.382 . S
C480 C481 1.390 . S
C480 H497 0.931 . S
C481 C479 1.372 . S
C481 C480 1.390 . S
C481 H498 0.929 . S
C482 C477 1.390 . S
C482 C478 1.392 . S
C482 H499 0.930 . S
C483 O468 1.255 . S
C483 O469 1.257 . S
C484 Eu420 2.787 . S
C484 O464 1.252 . S
C484 O467 1.268 . S
C484 C477 1.506 . S
C485 C452 1.439 . S
C485 H462 0.931 . S
C485 C486 1.374 . S
C486 C457 1.387 . S
C486 H463 0.931 . S
C486 C485 1.374 . S
C487 O471 1.249 . S
C487 O472 1.264 . S
C488 C491 1.382 . S
C488 C492 1.390 . S
C488 C495 1.506 . S
C489 C490 1.398 . S
C489 C492 1.392 . S
C490 C489 1.398 . S
C490 C493 1.372 . S
C490 H500 0.931 . S
C491 C488 1.382 . S
C491 C493 1.390 . S
C491 H501 0.931 . S
C492 C488 1.390 . S
C492 C489 1.392 . S
C492 H502 0.930 . S
C493 C490 1.372 . S
C493 C491 1.390 . S
C493 H503 0.929 . S
C494 O474 1.255 . S
C494 O475 1.257 . S
C495 Eu431 2.787 . S
C495 O470 1.252 . S
C495 O473 1.268 . S
C495 C488 1.506 . S
H496 C479 0.931 . S
H497 C480 0.931 . S
H498 C481 0.929 . S
H499 C482 0.930 . S
H500 C490 0.931 . S
H501 C491 0.931 . S
H502 C492 0.930 . S
H503 C493 0.929 . S
Eu504 N533 2.600 . S
Eu504 N539 2.562 . S
Eu504 O548 2.462 . S
Eu504 O549 2.373 . S
Eu504 O551 2.432 . S
Eu504 O552 2.291 . S
Eu504 O556 2.335 . S
Eu504 O559 2.372 . S
Eu504 C568 2.787 . S
C505 N506 1.365 . S
C505 C508 1.405 . S
C505 C512 1.448 . S
N506 C505 1.365 . S
N506 C509 1.319 . S
N506 Eu515 2.600 . S
C507 C509 1.397 . S
C507 C510 1.367 . S
C507 H527 0.931 . S
C508 C505 1.405 . S
C508 C510 1.403 . S
C508 C514 1.439 . S
C509 N506 1.319 . S
C509 C507 1.397 . S
C509 H520 0.930 . S
C510 C507 1.367 . S
C510 C508 1.403 . S
C510 H531 0.929 . S
C511 C512 1.430 . S
C511 C513 1.387 . S
C511 C517 1.404 . S
C512 C505 1.448 . S
C512 C511 1.430 . S
C512 N516 1.351 . S
C513 C511 1.387 . S
C513 C514 1.374 . S
C513 H528 0.931 . S
C514 C508 1.439 . S
C514 C513 1.374 . S
C514 H529 0.931 . S
Eu515 N506 2.600 . S
Eu515 N516 2.562 . S
Eu515 O550 2.335 . S
Eu515 O553 2.372 . S
Eu515 O554 2.462 . S
Eu515 O555 2.373 . S
Eu515 O557 2.432 . S
Eu515 O558 2.291 . S
Eu515 C579 2.787 . S
N516 C512 1.351 . S
N516 Eu515 2.562 . S
N516 C518 1.325 . S
C517 C511 1.404 . S
C517 C519 1.366 . S
C517 H525 0.930 . S
C518 N516 1.325 . S
C518 C519 1.416 . S
C518 H524 0.929 . S
C519 C517 1.366 . S
C519 C518 1.416 . S
C519 H521 0.930 . S
H520 C509 0.930 . S
H521 C519 0.930 . S
H522 C537 0.930 . S
H523 C544 0.930 . S
H524 C518 0.929 . S
H525 C517 0.930 . S
H526 C540 0.929 . S
H527 C507 0.931 . S
H528 C513 0.931 . S
H529 C514 0.931 . S
H530 C535 0.931 . S
H531 C510 0.929 . S
H532 C543 0.930 . S
N533 Eu504 2.600 . S
N533 C534 1.365 . S
N533 C537 1.319 . S
C534 N533 1.365 . S
C534 C536 1.405 . S
C534 C542 1.448 . S
C535 H530 0.931 . S
C535 C537 1.397 . S
C535 C538 1.367 . S
C536 C534 1.405 . S
C536 C538 1.403 . S
C536 C569 1.439 . S
C537 H522 0.930 . S
C537 N533 1.319 . S
C537 C535 1.397 . S
C538 C535 1.367 . S
C538 C536 1.403 . S
C538 H545 0.929 . S
N539 Eu504 2.562 . S
N539 C540 1.325 . S
N539 C542 1.351 . S
C540 H526 0.929 . S
C540 N539 1.325 . S
C540 C544 1.416 1_556 S
C541 C542 1.430 . S
C541 C543 1.404 1_556 S
C541 C570 1.387 . S
C542 C534 1.448 . S
C542 N539 1.351 . S
C542 C541 1.430 . S
C543 H532 0.930 . S
C543 C541 1.404 1_554 S
C543 C544 1.366 . S
C544 H523 0.930 . S
C544 C540 1.416 1_554 S
C544 C543 1.366 . S
H545 C538 0.929 . S
H546 C569 0.931 . S
H547 C570 0.931 . S
O548 Eu504 2.462 . S
O548 C568 1.252 . S
O549 Eu504 2.373 . S
O549 C560 1.249 . S
O550 Eu515 2.335 . S
O550 C560 1.264 . S
O551 Eu504 2.432 . S
O551 C568 1.268 . S
O552 Eu504 2.291 . S
O552 C567 1.255 . S
O553 Eu515 2.372 . S
O553 C567 1.257 . S
O554 Eu515 2.462 . S
O554 C579 1.252 . S
O555 Eu515 2.373 . S
O555 C571 1.249 . S
O556 Eu504 2.335 . S
O556 C571 1.264 . S
O557 Eu515 2.432 . S
O557 C579 1.268 . S
O558 Eu515 2.291 . S
O558 C578 1.255 . S
O559 Eu504 2.372 . S
O559 C578 1.257 . S
C560 O549 1.249 . S
C560 O550 1.264 . S
C561 C564 1.382 . S
C561 C566 1.390 . S
C561 C568 1.506 . S
C562 C563 1.398 . S
C562 C566 1.392 . S
C563 C562 1.398 . S
C563 C565 1.372 . S
C563 H580 0.931 . S
C564 C561 1.382 . S
C564 C565 1.390 . S
C564 H581 0.931 . S
C565 C563 1.372 . S
C565 C564 1.390 . S
C565 H582 0.929 . S
C566 C561 1.390 . S
C566 C562 1.392 . S
C566 H583 0.930 . S
C567 O552 1.255 . S
C567 O553 1.257 . S
C568 Eu504 2.787 . S
C568 O548 1.252 . S
C568 O551 1.268 . S
C568 C561 1.506 . S
C569 C536 1.439 . S
C569 H546 0.931 . S
C569 C570 1.374 . S
C570 C541 1.387 . S
C570 H547 0.931 . S
C570 C569 1.374 . S
C571 O555 1.249 . S
C571 O556 1.264 . S
C572 C575 1.382 . S
C572 C576 1.390 . S
C572 C579 1.506 . S
C573 C574 1.398 . S
C573 C576 1.392 . S
C574 C573 1.398 . S
C574 C577 1.372 . S
C574 H584 0.931 . S
C575 C572 1.382 . S
C575 C577 1.390 . S
C575 H585 0.931 . S
C576 C572 1.390 . S
C576 C573 1.392 . S
C576 H586 0.930 . S
C577 C574 1.372 . S
C577 C575 1.390 . S
C577 H587 0.929 . S
C578 O558 1.255 . S
C578 O559 1.257 . S
C579 Eu515 2.787 . S
C579 O554 1.252 . S
C579 O557 1.268 . S
C579 C572 1.506 . S
H580 C563 0.931 . S
H581 C564 0.931 . S
H582 C565 0.929 . S
H583 C566 0.930 . S
H584 C574 0.931 . S
H585 C575 0.931 . S
H586 C576 0.930 . S
H587 C577 0.929 . S
Eu588 N617 2.600 . S
Eu588 N623 2.562 . S
Eu588 O632 2.462 . S
Eu588 O633 2.373 . S
Eu588 O635 2.432 . S
Eu588 O636 2.291 . S
Eu588 O640 2.335 . S
Eu588 O643 2.372 . S
Eu588 C652 2.787 . S
C589 N590 1.365 . S
C589 C592 1.405 . S
C589 C596 1.448 . S
N590 C589 1.365 . S
N590 C593 1.319 . S
N590 Eu599 2.600 . S
C591 C593 1.397 . S
C591 C594 1.367 . S
C591 H611 0.931 . S
C592 C589 1.405 . S
C592 C594 1.403 . S
C592 C598 1.439 . S
C593 N590 1.319 . S
C593 C591 1.397 . S
C593 H604 0.930 . S
C594 C591 1.367 . S
C594 C592 1.403 . S
C594 H615 0.929 . S
C595 C596 1.430 . S
C595 C597 1.387 . S
C595 C601 1.404 . S
C596 C589 1.448 . S
C596 C595 1.430 . S
C596 N600 1.351 . S
C597 C595 1.387 . S
C597 C598 1.374 . S
C597 H612 0.931 . S
C598 C592 1.439 . S
C598 C597 1.374 . S
C598 H613 0.931 . S
Eu599 N590 2.600 . S
Eu599 N600 2.562 . S
Eu599 O634 2.335 . S
Eu599 O637 2.372 . S
Eu599 O638 2.462 . S
Eu599 O639 2.373 . S
Eu599 O641 2.432 . S
Eu599 O642 2.291 . S
Eu599 C663 2.787 . S
N600 C596 1.351 . S
N600 Eu599 2.562 . S
N600 C602 1.325 . S
C601 C595 1.404 . S
C601 C603 1.366 . S
C601 H609 0.930 . S
C602 N600 1.325 . S
C602 C603 1.416 . S
C602 H608 0.929 . S
C603 C601 1.366 . S
C603 C602 1.416 . S
C603 H605 0.930 . S
H604 C593 0.930 . S
H605 C603 0.930 . S
H606 C621 0.930 . S
H607 C628 0.930 . S
H608 C602 0.929 . S
H609 C601 0.930 . S
H610 C624 0.929 . S
H611 C591 0.931 . S
H612 C597 0.931 . S
H613 C598 0.931 . S
H614 C619 0.931 . S
H615 C594 0.929 . S
H616 C627 0.930 . S
N617 Eu588 2.600 . S
N617 C618 1.365 . S
N617 C621 1.319 . S
C618 N617 1.365 . S
C618 C620 1.405 . S
C618 C626 1.448 . S
C619 H614 0.931 . S
C619 C621 1.397 . S
C619 C622 1.367 . S
C620 C618 1.405 . S
C620 C622 1.403 . S
C620 C653 1.439 . S
C621 H606 0.930 . S
C621 N617 1.319 . S
C621 C619 1.397 . S
C622 C619 1.367 . S
C622 C620 1.403 . S
C622 H629 0.929 . S
N623 Eu588 2.562 . S
N623 C624 1.325 . S
N623 C626 1.351 . S
C624 H610 0.929 . S
C624 N623 1.325 . S
C624 C628 1.416 1_556 S
C625 C626 1.430 . S
C625 C627 1.404 1_556 S
C625 C654 1.387 . S
C626 C618 1.448 . S
C626 N623 1.351 . S
C626 C625 1.430 . S
C627 H616 0.930 . S
C627 C625 1.404 1_554 S
C627 C628 1.366 . S
C628 H607 0.930 . S
C628 C624 1.416 1_554 S
C628 C627 1.366 . S
H629 C622 0.929 . S
H630 C653 0.931 . S
H631 C654 0.931 . S
O632 Eu588 2.462 . S
O632 C652 1.252 . S
O633 Eu588 2.373 . S
O633 C644 1.249 . S
O634 Eu599 2.335 . S
O634 C644 1.264 . S
O635 Eu588 2.432 . S
O635 C652 1.268 . S
O636 Eu588 2.291 . S
O636 C651 1.255 . S
O637 Eu599 2.372 . S
O637 C651 1.257 . S
O638 Eu599 2.462 . S
O638 C663 1.252 . S
O639 Eu599 2.373 . S
O639 C655 1.249 . S
O640 Eu588 2.335 . S
O640 C655 1.264 . S
O641 Eu599 2.432 . S
O641 C663 1.268 . S
O642 Eu599 2.291 . S
O642 C662 1.255 . S
O643 Eu588 2.372 . S
O643 C662 1.257 . S
C644 O633 1.249 . S
C644 O634 1.264 . S
C645 C648 1.382 . S
C645 C650 1.390 . S
C645 C652 1.506 . S
C646 C647 1.398 . S
C646 C650 1.392 . S
C647 C646 1.398 . S
C647 C649 1.372 . S
C647 H664 0.931 . S
C648 C645 1.382 . S
C648 C649 1.390 . S
C648 H665 0.931 . S
C649 C647 1.372 . S
C649 C648 1.390 . S
C649 H666 0.929 . S
C650 C645 1.390 . S
C650 C646 1.392 . S
C650 H667 0.930 . S
C651 O636 1.255 . S
C651 O637 1.257 . S
C652 Eu588 2.787 . S
C652 O632 1.252 . S
C652 O635 1.268 . S
C652 C645 1.506 . S
C653 C620 1.439 . S
C653 H630 0.931 . S
C653 C654 1.374 . S
C654 C625 1.387 . S
C654 H631 0.931 . S
C654 C653 1.374 . S
C655 O639 1.249 . S
C655 O640 1.264 . S
C656 C659 1.382 . S
C656 C660 1.390 . S
C656 C663 1.506 . S
C657 C658 1.398 . S
C657 C660 1.392 . S
C658 C657 1.398 . S
C658 C661 1.372 . S
C658 H668 0.931 . S
C659 C656 1.382 . S
C659 C661 1.390 . S
C659 H669 0.931 . S
C660 C656 1.390 . S
C660 C657 1.392 . S
C660 H670 0.930 . S
C661 C658 1.372 . S
C661 C659 1.390 . S
C661 H671 0.929 . S
C662 O642 1.255 . S
C662 O643 1.257 . S
C663 Eu599 2.787 . S
C663 O638 1.252 . S
C663 O641 1.268 . S
C663 C656 1.506 . S
H664 C647 0.931 . S
H665 C648 0.931 . S
H666 C649 0.929 . S
H667 C650 0.930 . S
H668 C658 0.931 . S
H669 C659 0.931 . S
H670 C660 0.930 . S
H671 C661 0.929 . S
Eu672 N701 2.600 . S
Eu672 N707 2.562 . S
Eu672 O716 2.462 . S
Eu672 O717 2.373 . S
Eu672 O719 2.432 . S
Eu672 O720 2.291 . S
Eu672 O724 2.335 . S
Eu672 O727 2.372 . S
Eu672 C736 2.787 . S
C673 N674 1.365 . S
C673 C676 1.405 . S
C673 C680 1.448 . S
N674 C673 1.365 . S
N674 C677 1.319 . S
N674 Eu683 2.600 . S
C675 C677 1.397 . S
C675 C678 1.367 . S
C675 H695 0.931 . S
C676 C673 1.405 . S
C676 C678 1.403 . S
C676 C682 1.439 . S
C677 N674 1.319 . S
C677 C675 1.397 . S
C677 H688 0.930 . S
C678 C675 1.367 . S
C678 C676 1.403 . S
C678 H699 0.929 . S
C679 C680 1.430 . S
C679 C681 1.387 . S
C679 C685 1.404 . S
C680 C673 1.448 . S
C680 C679 1.430 . S
C680 N684 1.351 . S
C681 C679 1.387 . S
C681 C682 1.374 . S
C681 H696 0.931 . S
C682 C676 1.439 . S
C682 C681 1.374 . S
C682 H697 0.931 . S
Eu683 N674 2.600 . S
Eu683 N684 2.562 . S
Eu683 O718 2.335 . S
Eu683 O721 2.372 . S
Eu683 O722 2.462 . S
Eu683 O723 2.373 . S
Eu683 O725 2.432 . S
Eu683 O726 2.291 . S
Eu683 C747 2.787 . S
N684 C680 1.351 . S
N684 Eu683 2.562 . S
N684 C686 1.325 . S
C685 C679 1.404 . S
C685 C687 1.366 . S
C685 H693 0.930 . S
C686 N684 1.325 . S
C686 C687 1.416 . S
C686 H692 0.929 . S
C687 C685 1.366 . S
C687 C686 1.416 . S
C687 H689 0.930 . S
H688 C677 0.930 . S
H689 C687 0.930 . S
H690 C705 0.930 . S
H691 C712 0.930 . S
H692 C686 0.929 . S
H693 C685 0.930 . S
H694 C708 0.929 . S
H695 C675 0.931 . S
H696 C681 0.931 . S
H697 C682 0.931 . S
H698 C703 0.931 . S
H699 C678 0.929 . S
H700 C711 0.930 . S
N701 Eu672 2.600 . S
N701 C702 1.365 . S
N701 C705 1.319 . S
C702 N701 1.365 . S
C702 C704 1.405 . S
C702 C710 1.448 . S
C703 H698 0.931 . S
C703 C705 1.397 . S
C703 C706 1.367 . S
C704 C702 1.405 . S
C704 C706 1.403 . S
C704 C737 1.439 . S
C705 H690 0.930 . S
C705 N701 1.319 . S
C705 C703 1.397 . S
C706 C703 1.367 . S
C706 C704 1.403 . S
C706 H713 0.929 . S
N707 Eu672 2.562 . S
N707 C708 1.325 . S
N707 C710 1.351 . S
C708 H694 0.929 . S
C708 N707 1.325 . S
C708 C712 1.416 1_556 S
C709 C710 1.430 . S
C709 C711 1.404 1_556 S
C709 C738 1.387 . S
C710 C702 1.448 . S
C710 N707 1.351 . S
C710 C709 1.430 . S
C711 H700 0.930 . S
C711 C709 1.404 1_554 S
C711 C712 1.366 . S
C712 H691 0.930 . S
C712 C708 1.416 1_554 S
C712 C711 1.366 . S
H713 C706 0.929 . S
H714 C737 0.931 . S
H715 C738 0.931 . S
O716 Eu672 2.462 . S
O716 C736 1.252 . S
O717 Eu672 2.373 . S
O717 C728 1.249 . S
O718 Eu683 2.335 . S
O718 C728 1.264 . S
O719 Eu672 2.432 . S
O719 C736 1.268 . S
O720 Eu672 2.291 . S
O720 C735 1.255 . S
O721 Eu683 2.372 . S
O721 C735 1.257 . S
O722 Eu683 2.462 . S
O722 C747 1.252 . S
O723 Eu683 2.373 . S
O723 C739 1.249 . S
O724 Eu672 2.335 . S
O724 C739 1.264 . S
O725 Eu683 2.432 . S
O725 C747 1.268 . S
O726 Eu683 2.291 . S
O726 C746 1.255 . S
O727 Eu672 2.372 . S
O727 C746 1.257 . S
C728 O717 1.249 . S
C728 O718 1.264 . S
C729 C732 1.382 . S
C729 C734 1.390 . S
C729 C736 1.506 . S
C730 C731 1.398 . S
C730 C734 1.392 . S
C731 C730 1.398 . S
C731 C733 1.372 . S
C731 H748 0.931 . S
C732 C729 1.382 . S
C732 C733 1.390 . S
C732 H749 0.931 . S
C733 C731 1.372 . S
C733 C732 1.390 . S
C733 H750 0.929 . S
C734 C729 1.390 . S
C734 C730 1.392 . S
C734 H751 0.930 . S
C735 O720 1.255 . S
C735 O721 1.257 . S
C736 Eu672 2.787 . S
C736 O716 1.252 . S
C736 O719 1.268 . S
C736 C729 1.506 . S
C737 C704 1.439 . S
C737 H714 0.931 . S
C737 C738 1.374 . S
C738 C709 1.387 . S
C738 H715 0.931 . S
C738 C737 1.374 . S
C739 O723 1.249 . S
C739 O724 1.264 . S
C740 C743 1.382 . S
C740 C744 1.390 . S
C740 C747 1.506 . S
C741 C742 1.398 . S
C741 C744 1.392 . S
C742 C741 1.398 . S
C742 C745 1.372 . S
C742 H752 0.931 . S
C743 C740 1.382 . S
C743 C745 1.390 . S
C743 H753 0.931 . S
C744 C740 1.390 . S
C744 C741 1.392 . S
C744 H754 0.930 . S
C745 C742 1.372 . S
C745 C743 1.390 . S
C745 H755 0.929 . S
C746 O726 1.255 . S
C746 O727 1.257 . S
C747 Eu683 2.787 . S
C747 O722 1.252 . S
C747 O725 1.268 . S
C747 C740 1.506 . S
H748 C731 0.931 . S
H749 C732 0.931 . S
H750 C733 0.929 . S
H751 C734 0.930 . S
H752 C742 0.931 . S
H753 C743 0.931 . S
H754 C744 0.930 . S
H755 C745 0.929 . S
Eu756 N785 2.600 . S
Eu756 N791 2.562 . S
Eu756 O800 2.462 . S
Eu756 O801 2.373 . S
Eu756 O803 2.432 . S
Eu756 O804 2.291 . S
Eu756 O808 2.335 . S
Eu756 O811 2.372 . S
Eu756 C820 2.787 . S
C757 N758 1.365 . S
C757 C760 1.405 . S
C757 C764 1.448 . S
N758 C757 1.365 . S
N758 C761 1.319 . S
N758 Eu767 2.600 . S
C759 C761 1.397 . S
C759 C762 1.367 . S
C759 H779 0.931 . S
C760 C757 1.405 . S
C760 C762 1.403 . S
C760 C766 1.439 . S
C761 N758 1.319 . S
C761 C759 1.397 . S
C761 H772 0.930 . S
C762 C759 1.367 . S
C762 C760 1.403 . S
C762 H783 0.929 . S
C763 C764 1.430 . S
C763 C765 1.387 . S
C763 C769 1.404 . S
C764 C757 1.448 . S
C764 C763 1.430 . S
C764 N768 1.351 . S
C765 C763 1.387 . S
C765 C766 1.374 . S
C765 H780 0.931 . S
C766 C760 1.439 . S
C766 C765 1.374 . S
C766 H781 0.931 . S
Eu767 N758 2.600 . S
Eu767 N768 2.562 . S
Eu767 O802 2.335 . S
Eu767 O805 2.372 . S
Eu767 O806 2.462 . S
Eu767 O807 2.373 . S
Eu767 O809 2.432 . S
Eu767 O810 2.291 . S
Eu767 C831 2.787 . S
N768 C764 1.351 . S
N768 Eu767 2.562 . S
N768 C770 1.325 . S
C769 C763 1.404 . S
C769 C771 1.366 . S
C769 H777 0.930 . S
C770 N768 1.325 . S
C770 C771 1.416 . S
C770 H776 0.929 . S
C771 C769 1.366 . S
C771 C770 1.416 . S
C771 H773 0.930 . S
H772 C761 0.930 . S
H773 C771 0.930 . S
H774 C789 0.930 . S
H775 C796 0.930 . S
H776 C770 0.929 . S
H777 C769 0.930 . S
H778 C792 0.929 . S
H779 C759 0.931 . S
H780 C765 0.931 . S
H781 C766 0.931 . S
H782 C787 0.931 . S
H783 C762 0.929 . S
H784 C795 0.930 . S
N785 Eu756 2.600 . S
N785 C786 1.365 . S
N785 C789 1.319 . S
C786 N785 1.365 . S
C786 C788 1.405 . S
C786 C794 1.448 . S
C787 H782 0.931 . S
C787 C789 1.397 . S
C787 C790 1.367 . S
C788 C786 1.405 . S
C788 C790 1.403 . S
C788 C821 1.439 . S
C789 H774 0.930 . S
C789 N785 1.319 . S
C789 C787 1.397 . S
C790 C787 1.367 . S
C790 C788 1.403 . S
C790 H797 0.929 . S
N791 Eu756 2.562 . S
N791 C792 1.325 . S
N791 C794 1.351 . S
C792 H778 0.929 . S
C792 N791 1.325 . S
C792 C796 1.416 . S
C793 C794 1.430 . S
C793 C795 1.404 . S
C793 C822 1.387 . S
C794 C786 1.448 . S
C794 N791 1.351 . S
C794 C793 1.430 . S
C795 H784 0.930 . S
C795 C793 1.404 . S
C795 C796 1.366 . S
C796 H775 0.930 . S
C796 C792 1.416 . S
C796 C795 1.366 . S
H797 C790 0.929 . S
H798 C821 0.931 . S
H799 C822 0.931 . S
O800 Eu756 2.462 . S
O800 C820 1.252 . S
O801 Eu756 2.373 . S
O801 C812 1.249 . S
O802 Eu767 2.335 . S
O802 C812 1.264 . S
O803 Eu756 2.432 . S
O803 C820 1.268 . S
O804 Eu756 2.291 . S
O804 C819 1.255 . S
O805 Eu767 2.372 . S
O805 C819 1.257 . S
O806 Eu767 2.462 . S
O806 C831 1.252 . S
O807 Eu767 2.373 . S
O807 C823 1.249 . S
O808 Eu756 2.335 . S
O808 C823 1.264 . S
O809 Eu767 2.432 . S
O809 C831 1.268 . S
O810 Eu767 2.291 . S
O810 C830 1.255 . S
O811 Eu756 2.372 . S
O811 C830 1.257 . S
C812 O801 1.249 . S
C812 O802 1.264 . S
C813 C816 1.382 . S
C813 C818 1.390 . S
C813 C820 1.506 . S
C814 C815 1.398 . S
C814 C818 1.392 . S
C815 C814 1.398 . S
C815 C817 1.372 . S
C815 H832 0.931 . S
C816 C813 1.382 . S
C816 C817 1.390 . S
C816 H833 0.931 . S
C817 C815 1.372 . S
C817 C816 1.390 . S
C817 H834 0.929 . S
C818 C813 1.390 . S
C818 C814 1.392 . S
C818 H835 0.930 . S
C819 O804 1.255 . S
C819 O805 1.257 . S
C820 Eu756 2.787 . S
C820 O800 1.252 . S
C820 O803 1.268 . S
C820 C813 1.506 . S
C821 C788 1.439 . S
C821 H798 0.931 . S
C821 C822 1.374 . S
C822 C793 1.387 . S
C822 H799 0.931 . S
C822 C821 1.374 . S
C823 O807 1.249 . S
C823 O808 1.264 . S
C824 C827 1.382 . S
C824 C828 1.390 . S
C824 C831 1.506 . S
C825 C826 1.398 . S
C825 C828 1.392 . S
C826 C825 1.398 . S
C826 C829 1.372 . S
C826 H836 0.931 . S
C827 C824 1.382 . S
C827 C829 1.390 . S
C827 H837 0.931 . S
C828 C824 1.390 . S
C828 C825 1.392 . S
C828 H838 0.930 . S
C829 C826 1.372 . S
C829 C827 1.390 . S
C829 H839 0.929 . S
C830 O810 1.255 . S
C830 O811 1.257 . S
C831 Eu767 2.787 . S
C831 O806 1.252 . S
C831 O809 1.268 . S
C831 C824 1.506 . S
H832 C815 0.931 . S
H833 C816 0.931 . S
H834 C817 0.929 . S
H835 C818 0.930 . S
H836 C826 0.931 . S
H837 C827 0.931 . S
H838 C828 0.930 . S
H839 C829 0.929 . S
Eu840 N869 2.600 . S
Eu840 N875 2.562 . S
Eu840 O884 2.462 . S
Eu840 O885 2.373 . S
Eu840 O887 2.432 . S
Eu840 O888 2.291 . S
Eu840 O892 2.335 . S
Eu840 O895 2.372 . S
Eu840 C904 2.787 . S
C841 N842 1.365 . S
C841 C844 1.405 . S
C841 C848 1.448 . S
N842 C841 1.365 . S
N842 C845 1.319 . S
N842 Eu851 2.600 . S
C843 C845 1.397 . S
C843 C846 1.367 . S
C843 H863 0.931 . S
C844 C841 1.405 . S
C844 C846 1.403 . S
C844 C850 1.439 . S
C845 N842 1.319 . S
C845 C843 1.397 . S
C845 H856 0.930 . S
C846 C843 1.367 . S
C846 C844 1.403 . S
C846 H867 0.929 . S
C847 C848 1.430 . S
C847 C849 1.387 . S
C847 C853 1.404 . S
C848 C841 1.448 . S
C848 C847 1.430 . S
C848 N852 1.351 . S
C849 C847 1.387 . S
C849 C850 1.374 . S
C849 H864 0.931 . S
C850 C844 1.439 . S
C850 C849 1.374 . S
C850 H865 0.931 . S
Eu851 N842 2.600 . S
Eu851 N852 2.562 . S
Eu851 O886 2.335 . S
Eu851 O889 2.372 . S
Eu851 O890 2.462 . S
Eu851 O891 2.373 . S
Eu851 O893 2.432 . S
Eu851 O894 2.291 . S
Eu851 C915 2.787 . S
N852 C848 1.351 . S
N852 Eu851 2.562 . S
N852 C854 1.325 . S
C853 C847 1.404 . S
C853 C855 1.366 . S
C853 H861 0.930 . S
C854 N852 1.325 . S
C854 C855 1.416 . S
C854 H860 0.929 . S
C855 C853 1.366 . S
C855 C854 1.416 . S
C855 H857 0.930 . S
H856 C845 0.930 . S
H857 C855 0.930 . S
H858 C873 0.930 . S
H859 C880 0.930 . S
H860 C854 0.929 . S
H861 C853 0.930 . S
H862 C876 0.929 . S
H863 C843 0.931 . S
H864 C849 0.931 . S
H865 C850 0.931 . S
H866 C871 0.931 . S
H867 C846 0.929 . S
H868 C879 0.930 . S
N869 Eu840 2.600 . S
N869 C870 1.365 . S
N869 C873 1.319 . S
C870 N869 1.365 . S
C870 C872 1.405 . S
C870 C878 1.448 . S
C871 H866 0.931 . S
C871 C873 1.397 . S
C871 C874 1.367 . S
C872 C870 1.405 . S
C872 C874 1.403 . S
C872 C905 1.439 . S
C873 H858 0.930 . S
C873 N869 1.319 . S
C873 C871 1.397 . S
C874 C871 1.367 . S
C874 C872 1.403 . S
C874 H881 0.929 . S
N875 Eu840 2.562 . S
N875 C876 1.325 . S
N875 C878 1.351 . S
C876 H862 0.929 . S
C876 N875 1.325 . S
C876 C880 1.416 . S
C877 C878 1.430 . S
C877 C879 1.404 . S
C877 C906 1.387 . S
C878 C870 1.448 . S
C878 N875 1.351 . S
C878 C877 1.430 . S
C879 H868 0.930 . S
C879 C877 1.404 . S
C879 C880 1.366 . S
C880 H859 0.930 . S
C880 C876 1.416 . S
C880 C879 1.366 . S
H881 C874 0.929 . S
H882 C905 0.931 . S
H883 C906 0.931 . S
O884 Eu840 2.462 . S
O884 C904 1.252 . S
O885 Eu840 2.373 . S
O885 C896 1.249 . S
O886 Eu851 2.335 . S
O886 C896 1.264 . S
O887 Eu840 2.432 . S
O887 C904 1.268 . S
O888 Eu840 2.291 . S
O888 C903 1.255 . S
O889 Eu851 2.372 . S
O889 C903 1.257 . S
O890 Eu851 2.462 . S
O890 C915 1.252 . S
O891 Eu851 2.373 . S
O891 C907 1.249 . S
O892 Eu840 2.335 . S
O892 C907 1.264 . S
O893 Eu851 2.432 . S
O893 C915 1.268 . S
O894 Eu851 2.291 . S
O894 C914 1.255 . S
O895 Eu840 2.372 . S
O895 C914 1.257 . S
C896 O885 1.249 . S
C896 O886 1.264 . S
C897 C900 1.382 . S
C897 C902 1.390 . S
C897 C904 1.506 . S
C898 C899 1.398 . S
C898 C902 1.392 . S
C899 C898 1.398 . S
C899 C901 1.372 . S
C899 H916 0.931 . S
C900 C897 1.382 . S
C900 C901 1.390 . S
C900 H917 0.931 . S
C901 C899 1.372 . S
C901 C900 1.390 . S
C901 H918 0.929 . S
C902 C897 1.390 . S
C902 C898 1.392 . S
C902 H919 0.930 . S
C903 O888 1.255 . S
C903 O889 1.257 . S
C904 Eu840 2.787 . S
C904 O884 1.252 . S
C904 O887 1.268 . S
C904 C897 1.506 . S
C905 C872 1.439 . S
C905 H882 0.931 . S
C905 C906 1.374 . S
C906 C877 1.387 . S
C906 H883 0.931 . S
C906 C905 1.374 . S
C907 O891 1.249 . S
C907 O892 1.264 . S
C908 C911 1.382 . S
C908 C912 1.390 . S
C908 C915 1.506 . S
C909 C910 1.398 . S
C909 C912 1.392 . S
C910 C909 1.398 . S
C910 C913 1.372 . S
C910 H920 0.931 . S
C911 C908 1.382 . S
C911 C913 1.390 . S
C911 H921 0.931 . S
C912 C908 1.390 . S
C912 C909 1.392 . S
C912 H922 0.930 . S
C913 C910 1.372 . S
C913 C911 1.390 . S
C913 H923 0.929 . S
C914 O894 1.255 . S
C914 O895 1.257 . S
C915 Eu851 2.787 . S
C915 O890 1.252 . S
C915 O893 1.268 . S
C915 C908 1.506 . S
H916 C899 0.931 . S
H917 C900 0.931 . S
H918 C901 0.929 . S
H919 C902 0.930 . S
H920 C910 0.931 . S
H921 C911 0.931 . S
H922 C912 0.930 . S
H923 C913 0.929 . S
Eu924 N953 2.600 . S
Eu924 N959 2.562 . S
Eu924 O968 2.462 . S
Eu924 O969 2.373 . S
Eu924 O971 2.432 . S
Eu924 O972 2.291 . S
Eu924 O976 2.335 . S
Eu924 O979 2.372 . S
Eu924 C988 2.787 . S
C925 N926 1.365 . S
C925 C928 1.405 . S
C925 C932 1.448 . S
N926 C925 1.365 . S
N926 C929 1.319 . S
N926 Eu935 2.600 . S
C927 C929 1.397 . S
C927 C930 1.367 . S
C927 H947 0.931 . S
C928 C925 1.405 . S
C928 C930 1.403 . S
C928 C934 1.439 . S
C929 N926 1.319 . S
C929 C927 1.397 . S
C929 H940 0.930 . S
C930 C927 1.367 . S
C930 C928 1.403 . S
C930 H951 0.929 . S
C931 C932 1.430 . S
C931 C933 1.387 . S
C931 C937 1.404 . S
C932 C925 1.448 . S
C932 C931 1.430 . S
C932 N936 1.351 . S
C933 C931 1.387 . S
C933 C934 1.374 . S
C933 H948 0.931 . S
C934 C928 1.439 . S
C934 C933 1.374 . S
C934 H949 0.931 . S
Eu935 N926 2.600 . S
Eu935 N936 2.562 . S
Eu935 O970 2.335 . S
Eu935 O973 2.372 . S
Eu935 O974 2.462 . S
Eu935 O975 2.373 . S
Eu935 O977 2.432 . S
Eu935 O978 2.291 . S
Eu935 C999 2.787 . S
N936 C932 1.351 . S
N936 Eu935 2.562 . S
N936 C938 1.325 . S
C937 C931 1.404 . S
C937 C939 1.366 . S
C937 H945 0.930 . S
C938 N936 1.325 . S
C938 C939 1.416 . S
C938 H944 0.929 . S
C939 C937 1.366 . S
C939 C938 1.416 . S
C939 H941 0.930 . S
H940 C929 0.930 . S
H941 C939 0.930 . S
H942 C957 0.930 . S
H943 C964 0.930 . S
H944 C938 0.929 . S
H945 C937 0.930 . S
H946 C960 0.929 . S
H947 C927 0.931 . S
H948 C933 0.931 . S
H949 C934 0.931 . S
H950 C955 0.931 . S
H951 C930 0.929 . S
H952 C963 0.930 . S
N953 Eu924 2.600 . S
N953 C954 1.365 . S
N953 C957 1.319 . S
C954 N953 1.365 . S
C954 C956 1.405 . S
C954 C962 1.448 . S
C955 H950 0.931 . S
C955 C957 1.397 . S
C955 C958 1.367 . S
C956 C954 1.405 . S
C956 C958 1.403 . S
C956 C989 1.439 . S
C957 H942 0.930 . S
C957 N953 1.319 . S
C957 C955 1.397 . S
C958 C955 1.367 . S
C958 C956 1.403 . S
C958 H965 0.929 . S
N959 Eu924 2.562 . S
N959 C960 1.325 . S
N959 C962 1.351 . S
C960 H946 0.929 . S
C960 N959 1.325 . S
C960 C964 1.416 . S
C961 C962 1.430 . S
C961 C963 1.404 . S
C961 C990 1.387 . S
C962 C954 1.448 . S
C962 N959 1.351 . S
C962 C961 1.430 . S
C963 H952 0.930 . S
C963 C961 1.404 . S
C963 C964 1.366 . S
C964 H943 0.930 . S
C964 C960 1.416 . S
C964 C963 1.366 . S
H965 C958 0.929 . S
H966 C989 0.931 . S
H967 C990 0.931 . S
O968 Eu924 2.462 . S
O968 C988 1.252 . S
O969 Eu924 2.373 . S
O969 C980 1.249 . S
O970 Eu935 2.335 . S
O970 C980 1.264 . S
O971 Eu924 2.432 . S
O971 C988 1.268 . S
O972 Eu924 2.291 . S
O972 C987 1.255 . S
O973 Eu935 2.372 . S
O973 C987 1.257 . S
O974 Eu935 2.462 . S
O974 C999 1.252 . S
O975 Eu935 2.373 . S
O975 C991 1.249 . S
O976 Eu924 2.335 . S
O976 C991 1.264 . S
O977 Eu935 2.432 . S
O977 C999 1.268 . S
O978 Eu935 2.291 . S
O978 C998 1.255 . S
O979 Eu924 2.372 . S
O979 C998 1.257 . S
C980 O969 1.249 . S
C980 O970 1.264 . S
C981 C984 1.382 . S
C981 C986 1.390 . S
C981 C988 1.506 . S
C982 C983 1.398 . S
C982 C986 1.392 . S
C983 C982 1.398 . S
C983 C985 1.372 . S
C983 H1000 0.931 . S
C984 C981 1.382 . S
C984 C985 1.390 . S
C984 H1001 0.931 . S
C985 C983 1.372 . S
C985 C984 1.390 . S
C985 H1002 0.929 . S
C986 C981 1.390 . S
C986 C982 1.392 . S
C986 H1003 0.930 . S
C987 O972 1.255 . S
C987 O973 1.257 . S
C988 Eu924 2.787 . S
C988 O968 1.252 . S
C988 O971 1.268 . S
C988 C981 1.506 . S
C989 C956 1.439 . S
C989 H966 0.931 . S
C989 C990 1.374 . S
C990 C961 1.387 . S
C990 H967 0.931 . S
C990 C989 1.374 . S
C991 O975 1.249 . S
C991 O976 1.264 . S
C992 C995 1.382 . S
C992 C996 1.390 . S
C992 C999 1.506 . S
C993 C994 1.398 . S
C993 C996 1.392 . S
C994 C993 1.398 . S
C994 C997 1.372 . S
C994 H1004 0.931 . S
C995 C992 1.382 . S
C995 C997 1.390 . S
C995 H1005 0.931 . S
C996 C992 1.390 . S
C996 C993 1.392 . S
C996 H1006 0.930 . S
C997 C994 1.372 . S
C997 C995 1.390 . S
C997 H1007 0.929 . S
C998 O978 1.255 . S
C998 O979 1.257 . S
C999 Eu935 2.787 . S
C999 O974 1.252 . S
C999 O977 1.268 . S
C999 C992 1.506 . S
H1000 C983 0.931 . S
H1001 C984 0.931 . S
H1002 C985 0.929 . S
H1003 C986 0.930 . S
H1004 C994 0.931 . S
H1005 C995 0.931 . S
H1006 C996 0.930 . S
H1007 C997 0.929 . S
Eu1008 N1037 2.600 . S
Eu1008 N1043 2.562 . S
Eu1008 O1052 2.462 . S
Eu1008 O1053 2.373 . S
Eu1008 O1055 2.432 . S
Eu1008 O1056 2.291 . S
Eu1008 O1060 2.335 . S
Eu1008 O1063 2.372 . S
Eu1008 C1072 2.787 . S
C1009 N1010 1.365 . S
C1009 C1012 1.405 . S
C1009 C1016 1.448 . S
N1010 C1009 1.365 . S
N1010 C1013 1.319 . S
N1010 Eu1019 2.600 . S
C1011 C1013 1.397 . S
C1011 C1014 1.367 . S
C1011 H1031 0.931 . S
C1012 C1009 1.405 . S
C1012 C1014 1.403 . S
C1012 C1018 1.439 . S
C1013 N1010 1.319 . S
C1013 C1011 1.397 . S
C1013 H1024 0.930 . S
C1014 C1011 1.367 . S
C1014 C1012 1.403 . S
C1014 H1035 0.929 . S
C1015 C1016 1.430 . S
C1015 C1017 1.387 . S
C1015 C1021 1.404 . S
C1016 C1009 1.448 . S
C1016 C1015 1.430 . S
C1016 N1020 1.351 . S
C1017 C1015 1.387 . S
C1017 C1018 1.374 . S
C1017 H1032 0.931 . S
C1018 C1012 1.439 . S
C1018 C1017 1.374 . S
C1018 H1033 0.931 . S
Eu1019 N1010 2.600 . S
Eu1019 N1020 2.562 . S
Eu1019 O1054 2.335 . S
Eu1019 O1057 2.372 . S
Eu1019 O1058 2.462 . S
Eu1019 O1059 2.373 . S
Eu1019 O1061 2.432 . S
Eu1019 O1062 2.291 . S
Eu1019 C1083 2.787 . S
N1020 C1016 1.351 . S
N1020 Eu1019 2.562 . S
N1020 C1022 1.325 . S
C1021 C1015 1.404 . S
C1021 C1023 1.366 . S
C1021 H1029 0.930 . S
C1022 N1020 1.325 . S
C1022 C1023 1.416 . S
C1022 H1028 0.929 . S
C1023 C1021 1.366 . S
C1023 C1022 1.416 . S
C1023 H1025 0.930 . S
H1024 C1013 0.930 . S
H1025 C1023 0.930 . S
H1026 C1041 0.930 . S
H1027 C1048 0.930 . S
H1028 C1022 0.929 . S
H1029 C1021 0.930 . S
H1030 C1044 0.929 . S
H1031 C1011 0.931 . S
H1032 C1017 0.931 . S
H1033 C1018 0.931 . S
H1034 C1039 0.931 . S
H1035 C1014 0.929 . S
H1036 C1047 0.930 . S
N1037 Eu1008 2.600 . S
N1037 C1038 1.365 . S
N1037 C1041 1.319 . S
C1038 N1037 1.365 . S
C1038 C1040 1.352 1_655 S
C1038 C1046 1.448 . S
C1039 H1034 0.931 . S
C1039 C1041 1.397 . S
C1039 C1042 1.367 1_655 S
C1040 C1038 1.352 1_455 S
C1040 C1042 1.422 . S
C1040 C1073 1.473 . S
C1041 H1026 0.930 . S
C1041 N1037 1.319 . S
C1041 C1039 1.397 . S
C1042 C1039 1.367 1_455 S
C1042 C1040 1.422 . S
C1042 H1049 0.929 . S
N1043 Eu1008 2.562 . S
N1043 C1044 1.325 . S
N1043 C1046 1.351 . S
C1044 H1030 0.929 . S
C1044 N1043 1.325 . S
C1044 C1048 1.416 . S
C1045 C1046 1.430 . S
C1045 C1047 1.404 . S
C1045 C1074 1.387 1_655 S
C1046 C1038 1.448 . S
C1046 N1043 1.351 . S
C1046 C1045 1.430 . S
C1047 H1036 0.930 . S
C1047 C1045 1.404 . S
C1047 C1048 1.366 . S
C1048 H1027 0.930 . S
C1048 C1044 1.416 . S
C1048 C1047 1.366 . S
H1049 C1042 0.929 . S
H1050 C1073 0.931 . S
H1051 C1074 0.931 . S
O1052 Eu1008 2.462 . S
O1052 C1072 1.252 . S
O1053 Eu1008 2.373 . S
O1053 C1064 1.249 . S
O1054 Eu1019 2.335 . S
O1054 C1064 1.264 . S
O1055 Eu1008 2.432 . S
O1055 C1072 1.268 . S
O1056 Eu1008 2.291 . S
O1056 C1071 1.255 . S
O1057 Eu1019 2.372 . S
O1057 C1071 1.257 . S
O1058 Eu1019 2.462 . S
O1058 C1083 1.252 . S
O1059 Eu1019 2.373 . S
O1059 C1075 1.249 . S
O1060 Eu1008 2.335 . S
O1060 C1075 1.264 . S
O1061 Eu1019 2.432 . S
O1061 C1083 1.268 . S
O1062 Eu1019 2.291 . S
O1062 C1082 1.255 . S
O1063 Eu1008 2.372 . S
O1063 C1082 1.257 . S
C1064 O1053 1.249 . S
C1064 O1054 1.264 . S
C1065 C1068 1.382 . S
C1065 C1070 1.390 . S
C1065 C1072 1.506 . S
C1066 C1067 1.398 . S
C1066 C1070 1.392 . S
C1067 C1066 1.398 . S
C1067 C1069 1.372 . S
C1067 H1084 0.931 . S
C1068 C1065 1.382 . S
C1068 C1069 1.390 . S
C1068 H1085 0.931 . S
C1069 C1067 1.372 . S
C1069 C1068 1.390 . S
C1069 H1086 0.929 . S
C1070 C1065 1.390 . S
C1070 C1066 1.392 . S
C1070 H1087 0.930 . S
C1071 O1056 1.255 . S
C1071 O1057 1.257 . S
C1072 Eu1008 2.787 . S
C1072 O1052 1.252 . S
C1072 O1055 1.268 . S
C1072 C1065 1.506 . S
C1073 C1040 1.473 . S
C1073 H1050 0.931 . S
C1073 C1074 1.374 . S
C1074 C1045 1.387 1_455 S
C1074 H1051 0.931 . S
C1074 C1073 1.374 . S
C1075 O1059 1.249 . S
C1075 O1060 1.264 . S
C1076 C1079 1.382 . S
C1076 C1080 1.390 . S
C1076 C1083 1.506 . S
C1077 C1078 1.398 . S
C1077 C1080 1.392 . S
C1078 C1077 1.398 . S
C1078 C1081 1.372 . S
C1078 H1088 0.931 . S
C1079 C1076 1.382 . S
C1079 C1081 1.390 . S
C1079 H1089 0.931 . S
C1080 C1076 1.390 . S
C1080 C1077 1.392 . S
C1080 H1090 0.930 . S
C1081 C1078 1.372 . S
C1081 C1079 1.390 . S
C1081 H1091 0.929 . S
C1082 O1062 1.255 . S
C1082 O1063 1.257 . S
C1083 Eu1019 2.787 . S
C1083 O1058 1.252 . S
C1083 O1061 1.268 . S
C1083 C1076 1.506 . S
H1084 C1067 0.931 . S
H1085 C1068 0.931 . S
H1086 C1069 0.929 . S
H1087 C1070 0.930 . S
H1088 C1078 0.931 . S
H1089 C1079 0.931 . S
H1090 C1080 0.930 . S
H1091 C1081 0.929 . S
Eu1092 N1121 2.600 . S
Eu1092 N1127 2.562 . S
Eu1092 O1136 2.462 . S
Eu1092 O1137 2.373 . S
Eu1092 O1139 2.432 . S
Eu1092 O1140 2.291 . S
Eu1092 O1144 2.335 . S
Eu1092 O1147 2.372 . S
Eu1092 C1156 2.787 . S
C1093 N1094 1.365 . S
C1093 C1096 1.405 . S
C1093 C1100 1.448 . S
N1094 C1093 1.365 . S
N1094 C1097 1.319 . S
N1094 Eu1103 2.600 . S
C1095 C1097 1.397 . S
C1095 C1098 1.367 . S
C1095 H1115 0.931 . S
C1096 C1093 1.405 . S
C1096 C1098 1.403 . S
C1096 C1102 1.439 . S
C1097 N1094 1.319 . S
C1097 C1095 1.397 . S
C1097 H1108 0.930 . S
C1098 C1095 1.367 . S
C1098 C1096 1.403 . S
C1098 H1119 0.929 . S
C1099 C1100 1.430 . S
C1099 C1101 1.387 . S
C1099 C1105 1.404 . S
C1100 C1093 1.448 . S
C1100 C1099 1.430 . S
C1100 N1104 1.351 . S
C1101 C1099 1.387 . S
C1101 C1102 1.374 . S
C1101 H1116 0.931 . S
C1102 C1096 1.439 . S
C1102 C1101 1.374 . S
C1102 H1117 0.931 . S
Eu1103 N1094 2.600 . S
Eu1103 N1104 2.562 . S
Eu1103 O1138 2.335 . S
Eu1103 O1141 2.372 . S
Eu1103 O1142 2.462 . S
Eu1103 O1143 2.373 . S
Eu1103 O1145 2.432 . S
Eu1103 O1146 2.291 . S
Eu1103 C1167 2.787 . S
N1104 C1100 1.351 . S
N1104 Eu1103 2.562 . S
N1104 C1106 1.325 . S
C1105 C1099 1.404 . S
C1105 C1107 1.366 . S
C1105 H1113 0.930 . S
C1106 N1104 1.325 . S
C1106 C1107 1.416 . S
C1106 H1112 0.929 . S
C1107 C1105 1.366 . S
C1107 C1106 1.416 . S
C1107 H1109 0.930 . S
H1108 C1097 0.930 . S
H1109 C1107 0.930 . S
H1110 C1125 0.930 . S
H1111 C1132 0.930 . S
H1112 C1106 0.929 . S
H1113 C1105 0.930 . S
H1114 C1128 0.929 . S
H1115 C1095 0.931 . S
H1116 C1101 0.931 . S
H1117 C1102 0.931 . S
H1118 C1123 0.931 . S
H1119 C1098 0.929 . S
H1120 C1131 0.930 . S
N1121 Eu1092 2.600 . S
N1121 C1122 1.365 . S
N1121 C1125 1.319 . S
C1122 N1121 1.365 . S
C1122 C1124 1.405 . S
C1122 C1130 1.448 . S
C1123 H1118 0.931 . S
C1123 C1125 1.397 . S
C1123 C1126 1.367 . S
C1124 C1122 1.405 . S
C1124 C1126 1.403 . S
C1124 C1157 1.439 . S
C1125 H1110 0.930 . S
C1125 N1121 1.319 . S
C1125 C1123 1.397 . S
C1126 C1123 1.367 . S
C1126 C1124 1.403 . S
C1126 H1133 0.929 . S
N1127 Eu1092 2.562 . S
N1127 C1128 1.325 . S
N1127 C1130 1.351 . S
C1128 H1114 0.929 . S
C1128 N1127 1.325 . S
C1128 C1132 1.416 . S
C1129 C1130 1.430 . S
C1129 C1131 1.404 . S
C1129 C1158 1.387 . S
C1130 C1122 1.448 . S
C1130 N1127 1.351 . S
C1130 C1129 1.430 . S
C1131 H1120 0.930 . S
C1131 C1129 1.404 . S
C1131 C1132 1.366 . S
C1132 H1111 0.930 . S
C1132 C1128 1.416 . S
C1132 C1131 1.366 . S
H1133 C1126 0.929 . S
H1134 C1157 0.931 . S
H1135 C1158 0.931 . S
O1136 Eu1092 2.462 . S
O1136 C1156 1.252 . S
O1137 Eu1092 2.373 . S
O1137 C1148 1.249 . S
O1138 Eu1103 2.335 . S
O1138 C1148 1.264 . S
O1139 Eu1092 2.432 . S
O1139 C1156 1.268 . S
O1140 Eu1092 2.291 . S
O1140 C1155 1.255 . S
O1141 Eu1103 2.372 . S
O1141 C1155 1.257 . S
O1142 Eu1103 2.462 . S
O1142 C1167 1.252 . S
O1143 Eu1103 2.373 . S
O1143 C1159 1.249 . S
O1144 Eu1092 2.335 . S
O1144 C1159 1.264 . S
O1145 Eu1103 2.432 . S
O1145 C1167 1.268 . S
O1146 Eu1103 2.291 . S
O1146 C1166 1.255 . S
O1147 Eu1092 2.372 . S
O1147 C1166 1.257 . S
C1148 O1137 1.249 . S
C1148 O1138 1.264 . S
C1149 C1152 1.382 . S
C1149 C1154 1.390 . S
C1149 C1156 1.506 . S
C1150 C1151 1.398 . S
C1150 C1154 1.392 . S
C1151 C1150 1.398 . S
C1151 C1153 1.372 . S
C1151 H1168 0.931 . S
C1152 C1149 1.382 . S
C1152 C1153 1.390 . S
C1152 H1169 0.931 . S
C1153 C1151 1.372 . S
C1153 C1152 1.390 . S
C1153 H1170 0.929 . S
C1154 C1149 1.390 . S
C1154 C1150 1.392 . S
C1154 H1171 0.930 . S
C1155 O1140 1.255 . S
C1155 O1141 1.257 . S
C1156 Eu1092 2.787 . S
C1156 O1136 1.252 . S
C1156 O1139 1.268 . S
C1156 C1149 1.506 . S
C1157 C1124 1.439 . S
C1157 H1134 0.931 . S
C1157 C1158 1.374 . S
C1158 C1129 1.387 . S
C1158 H1135 0.931 . S
C1158 C1157 1.374 . S
C1159 O1143 1.249 . S
C1159 O1144 1.264 . S
C1160 C1163 1.382 . S
C1160 C1164 1.390 . S
C1160 C1167 1.506 . S
C1161 C1162 1.398 . S
C1161 C1164 1.392 . S
C1162 C1161 1.398 . S
C1162 C1165 1.372 . S
C1162 H1172 0.931 . S
C1163 C1160 1.382 . S
C1163 C1165 1.390 . S
C1163 H1173 0.931 . S
C1164 C1160 1.390 . S
C1164 C1161 1.392 . S
C1164 H1174 0.930 . S
C1165 C1162 1.372 . S
C1165 C1163 1.390 . S
C1165 H1175 0.929 . S
C1166 O1146 1.255 . S
C1166 O1147 1.257 . S
C1167 Eu1103 2.787 . S
C1167 O1142 1.252 . S
C1167 O1145 1.268 . S
C1167 C1160 1.506 . S
H1168 C1151 0.931 . S
H1169 C1152 0.931 . S
H1170 C1153 0.929 . S
H1171 C1154 0.930 . S
H1172 C1162 0.931 . S
H1173 C1163 0.931 . S
H1174 C1164 0.930 . S
H1175 C1165 0.929 . S
Eu1176 N1205 2.600 . S
Eu1176 N1211 2.562 . S
Eu1176 O1220 2.462 . S
Eu1176 O1221 2.373 . S
Eu1176 O1223 2.432 . S
Eu1176 O1224 2.291 . S
Eu1176 O1228 2.335 . S
Eu1176 O1231 2.372 . S
Eu1176 C1240 2.787 . S
C1177 N1178 1.365 . S
C1177 C1180 1.405 . S
C1177 C1184 1.448 . S
N1178 C1177 1.365 . S
N1178 C1181 1.319 . S
N1178 Eu1187 2.600 . S
C1179 C1181 1.397 . S
C1179 C1182 1.367 . S
C1179 H1199 0.931 . S
C1180 C1177 1.405 . S
C1180 C1182 1.403 . S
C1180 C1186 1.439 . S
C1181 N1178 1.319 . S
C1181 C1179 1.397 . S
C1181 H1192 0.930 . S
C1182 C1179 1.367 . S
C1182 C1180 1.403 . S
C1182 H1203 0.929 . S
C1183 C1184 1.430 . S
C1183 C1185 1.387 . S
C1183 C1189 1.404 . S
C1184 C1177 1.448 . S
C1184 C1183 1.430 . S
C1184 N1188 1.351 . S
C1185 C1183 1.387 . S
C1185 C1186 1.374 . S
C1185 H1200 0.931 . S
C1186 C1180 1.439 . S
C1186 C1185 1.374 . S
C1186 H1201 0.931 . S
Eu1187 N1178 2.600 . S
Eu1187 N1188 2.562 . S
Eu1187 O1222 2.335 . S
Eu1187 O1225 2.372 . S
Eu1187 O1226 2.462 . S
Eu1187 O1227 2.373 . S
Eu1187 O1229 2.432 . S
Eu1187 O1230 2.291 . S
Eu1187 C1251 2.787 . S
N1188 C1184 1.351 . S
N1188 Eu1187 2.562 . S
N1188 C1190 1.325 . S
C1189 C1183 1.404 . S
C1189 C1191 1.366 . S
C1189 H1197 0.930 . S
C1190 N1188 1.325 . S
C1190 C1191 1.416 . S
C1190 H1196 0.929 . S
C1191 C1189 1.366 . S
C1191 C1190 1.416 . S
C1191 H1193 0.930 . S
H1192 C1181 0.930 . S
H1193 C1191 0.930 . S
H1194 C1209 0.930 . S
H1195 C1216 0.930 . S
H1196 C1190 0.929 . S
H1197 C1189 0.930 . S
H1198 C1212 0.929 . S
H1199 C1179 0.931 . S
H1200 C1185 0.931 . S
H1201 C1186 0.931 . S
H1202 C1207 0.931 . S
H1203 C1182 0.929 . S
H1204 C1215 0.930 . S
N1205 Eu1176 2.600 . S
N1205 C1206 1.365 . S
N1205 C1209 1.319 . S
C1206 N1205 1.365 . S
C1206 C1208 1.367 1_545 S
C1206 C1214 1.448 . S
C1207 H1202 0.931 . S
C1207 C1209 1.397 . S
C1207 C1210 1.367 1_545 S
C1208 C1206 1.367 1_565 S
C1208 C1210 1.416 . S
C1208 C1241 1.467 . S
C1209 H1194 0.930 . S
C1209 N1205 1.319 . S
C1209 C1207 1.397 . S
C1210 C1207 1.367 1_565 S
C1210 C1208 1.416 . S
C1210 H1217 0.929 . S
N1211 Eu1176 2.562 . S
N1211 C1212 1.325 . S
N1211 C1214 1.351 . S
C1212 H1198 0.929 . S
C1212 N1211 1.325 . S
C1212 C1216 1.416 . S
C1213 C1214 1.430 . S
C1213 C1215 1.404 . S
C1213 C1242 1.387 1_545 S
C1214 C1206 1.448 . S
C1214 N1211 1.351 . S
C1214 C1213 1.430 . S
C1215 H1204 0.930 . S
C1215 C1213 1.404 . S
C1215 C1216 1.366 . S
C1216 H1195 0.930 . S
C1216 C1212 1.416 . S
C1216 C1215 1.366 . S
H1217 C1210 0.929 . S
H1218 C1241 0.931 . S
H1219 C1242 0.931 . S
O1220 Eu1176 2.462 . S
O1220 C1240 1.252 . S
O1221 Eu1176 2.373 . S
O1221 C1232 1.249 . S
O1222 Eu1187 2.335 . S
O1222 C1232 1.264 . S
O1223 Eu1176 2.432 . S
O1223 C1240 1.268 . S
O1224 Eu1176 2.291 . S
O1224 C1239 1.255 . S
O1225 Eu1187 2.372 . S
O1225 C1239 1.257 . S
O1226 Eu1187 2.462 . S
O1226 C1251 1.252 . S
O1227 Eu1187 2.373 . S
O1227 C1243 1.249 . S
O1228 Eu1176 2.335 . S
O1228 C1243 1.264 . S
O1229 Eu1187 2.432 . S
O1229 C1251 1.268 . S
O1230 Eu1187 2.291 . S
O1230 C1250 1.255 . S
O1231 Eu1176 2.372 . S
O1231 C1250 1.257 . S
C1232 O1221 1.249 . S
C1232 O1222 1.264 . S
C1233 C1236 1.382 . S
C1233 C1238 1.390 . S
C1233 C1240 1.506 . S
C1234 C1235 1.398 . S
C1234 C1238 1.392 . S
C1235 C1234 1.398 . S
C1235 C1237 1.372 . S
C1235 H1252 0.931 . S
C1236 C1233 1.382 . S
C1236 C1237 1.390 . S
C1236 H1253 0.931 . S
C1237 C1235 1.372 . S
C1237 C1236 1.390 . S
C1237 H1254 0.929 . S
C1238 C1233 1.390 . S
C1238 C1234 1.392 . S
C1238 H1255 0.930 . S
C1239 O1224 1.255 . S
C1239 O1225 1.257 . S
C1240 Eu1176 2.787 . S
C1240 O1220 1.252 . S
C1240 O1223 1.268 . S
C1240 C1233 1.506 . S
C1241 C1208 1.467 . S
C1241 H1218 0.931 . S
C1241 C1242 1.374 . S
C1242 C1213 1.387 1_565 S
C1242 H1219 0.931 . S
C1242 C1241 1.374 . S
C1243 O1227 1.249 . S
C1243 O1228 1.264 . S
C1244 C1247 1.382 . S
C1244 C1248 1.390 . S
C1244 C1251 1.506 . S
C1245 C1246 1.398 . S
C1245 C1248 1.392 . S
C1246 C1245 1.398 . S
C1246 C1249 1.372 . S
C1246 H1256 0.931 . S
C1247 C1244 1.382 . S
C1247 C1249 1.390 . S
C1247 H1257 0.931 . S
C1248 C1244 1.390 . S
C1248 C1245 1.392 . S
C1248 H1258 0.930 . S
C1249 C1246 1.372 . S
C1249 C1247 1.390 . S
C1249 H1259 0.929 . S
C1250 O1230 1.255 . S
C1250 O1231 1.257 . S
C1251 Eu1187 2.787 . S
C1251 O1226 1.252 . S
C1251 O1229 1.268 . S
C1251 C1244 1.506 . S
H1252 C1235 0.931 . S
H1253 C1236 0.931 . S
H1254 C1237 0.929 . S
H1255 C1238 0.930 . S
H1256 C1246 0.931 . S
H1257 C1247 0.931 . S
H1258 C1248 0.930 . S
H1259 C1249 0.929 . S
Eu1260 N1289 2.600 . S
Eu1260 N1295 2.562 . S
Eu1260 O1304 2.462 . S
Eu1260 O1305 2.373 . S
Eu1260 O1307 2.432 . S
Eu1260 O1308 2.291 . S
Eu1260 O1312 2.335 . S
Eu1260 O1315 2.372 . S
Eu1260 C1324 2.787 . S
C1261 N1262 1.365 . S
C1261 C1264 1.405 . S
C1261 C1268 1.448 . S
N1262 C1261 1.365 . S
N1262 C1265 1.319 . S
N1262 Eu1271 2.600 . S
C1263 C1265 1.397 . S
C1263 C1266 1.367 . S
C1263 H1283 0.931 . S
C1264 C1261 1.405 . S
C1264 C1266 1.403 . S
C1264 C1270 1.439 . S
C1265 N1262 1.319 . S
C1265 C1263 1.397 . S
C1265 H1276 0.930 . S
C1266 C1263 1.367 . S
C1266 C1264 1.403 . S
C1266 H1287 0.929 . S
C1267 C1268 1.430 . S
C1267 C1269 1.387 . S
C1267 C1273 1.404 . S
C1268 C1261 1.448 . S
C1268 C1267 1.430 . S
C1268 N1272 1.351 . S
C1269 C1267 1.387 . S
C1269 C1270 1.374 . S
C1269 H1284 0.931 . S
C1270 C1264 1.439 . S
C1270 C1269 1.374 . S
C1270 H1285 0.931 . S
Eu1271 N1262 2.600 . S
Eu1271 N1272 2.562 . S
Eu1271 O1306 2.335 . S
Eu1271 O1309 2.372 . S
Eu1271 O1310 2.462 . S
Eu1271 O1311 2.373 . S
Eu1271 O1313 2.432 . S
Eu1271 O1314 2.291 . S
Eu1271 C1335 2.787 . S
N1272 C1268 1.351 . S
N1272 Eu1271 2.562 . S
N1272 C1274 1.325 . S
C1273 C1267 1.404 . S
C1273 C1275 1.366 . S
C1273 H1281 0.930 . S
C1274 N1272 1.325 . S
C1274 C1275 1.416 . S
C1274 H1280 0.929 . S
C1275 C1273 1.366 . S
C1275 C1274 1.416 . S
C1275 H1277 0.930 . S
H1276 C1265 0.930 . S
H1277 C1275 0.930 . S
H1278 C1293 0.930 . S
H1279 C1300 0.930 . S
H1280 C1274 0.929 . S
H1281 C1273 0.930 . S
H1282 C1296 0.929 . S
H1283 C1263 0.931 . S
H1284 C1269 0.931 . S
H1285 C1270 0.931 . S
H1286 C1291 0.931 . S
H1287 C1266 0.929 . S
H1288 C1299 0.930 . S
N1289 Eu1260 2.600 . S
N1289 C1290 1.365 . S
N1289 C1293 1.319 . S
C1290 N1289 1.365 . S
C1290 C1292 1.405 . S
C1290 C1298 1.448 . S
C1291 H1286 0.931 . S
C1291 C1293 1.397 . S
C1291 C1294 1.367 . S
C1292 C1290 1.405 . S
C1292 C1294 1.403 . S
C1292 C1325 1.439 . S
C1293 H1278 0.930 . S
C1293 N1289 1.319 . S
C1293 C1291 1.397 . S
C1294 C1291 1.367 . S
C1294 C1292 1.403 . S
C1294 H1301 0.929 . S
N1295 Eu1260 2.562 . S
N1295 C1296 1.325 . S
N1295 C1298 1.351 . S
C1296 H1282 0.929 . S
C1296 N1295 1.325 . S
C1296 C1300 1.416 . S
C1297 C1298 1.430 . S
C1297 C1299 1.404 . S
C1297 C1326 1.387 . S
C1298 C1290 1.448 . S
C1298 N1295 1.351 . S
C1298 C1297 1.430 . S
C1299 H1288 0.930 . S
C1299 C1297 1.404 . S
C1299 C1300 1.366 . S
C1300 H1279 0.930 . S
C1300 C1296 1.416 . S
C1300 C1299 1.366 . S
H1301 C1294 0.929 . S
H1302 C1325 0.931 . S
H1303 C1326 0.931 . S
O1304 Eu1260 2.462 . S
O1304 C1324 1.252 . S
O1305 Eu1260 2.373 . S
O1305 C1316 1.249 . S
O1306 Eu1271 2.335 . S
O1306 C1316 1.264 . S
O1307 Eu1260 2.432 . S
O1307 C1324 1.268 . S
O1308 Eu1260 2.291 . S
O1308 C1323 1.255 . S
O1309 Eu1271 2.372 . S
O1309 C1323 1.257 . S
O1310 Eu1271 2.462 . S
O1310 C1335 1.252 . S
O1311 Eu1271 2.373 . S
O1311 C1327 1.249 . S
O1312 Eu1260 2.335 . S
O1312 C1327 1.264 . S
O1313 Eu1271 2.432 . S
O1313 C1335 1.268 . S
O1314 Eu1271 2.291 . S
O1314 C1334 1.255 . S
O1315 Eu1260 2.372 . S
O1315 C1334 1.257 . S
C1316 O1305 1.249 . S
C1316 O1306 1.264 . S
C1317 C1320 1.382 . S
C1317 C1322 1.390 . S
C1317 C1324 1.506 . S
C1318 C1319 1.398 . S
C1318 C1322 1.392 . S
C1319 C1318 1.398 . S
C1319 C1321 1.372 . S
C1319 H1336 0.931 . S
C1320 C1317 1.382 . S
C1320 C1321 1.390 . S
C1320 H1337 0.931 . S
C1321 C1319 1.372 . S
C1321 C1320 1.390 . S
C1321 H1338 0.929 . S
C1322 C1317 1.390 . S
C1322 C1318 1.392 . S
C1322 H1339 0.930 . S
C1323 O1308 1.255 . S
C1323 O1309 1.257 . S
C1324 Eu1260 2.787 . S
C1324 O1304 1.252 . S
C1324 O1307 1.268 . S
C1324 C1317 1.506 . S
C1325 C1292 1.439 . S
C1325 H1302 0.931 . S
C1325 C1326 1.374 . S
C1326 C1297 1.387 . S
C1326 H1303 0.931 . S
C1326 C1325 1.374 . S
C1327 O1311 1.249 . S
C1327 O1312 1.264 . S
C1328 C1331 1.382 . S
C1328 C1332 1.390 . S
C1328 C1335 1.506 . S
C1329 C1330 1.398 . S
C1329 C1332 1.392 . S
C1330 C1329 1.398 . S
C1330 C1333 1.372 . S
C1330 H1340 0.931 . S
C1331 C1328 1.382 . S
C1331 C1333 1.390 . S
C1331 H1341 0.931 . S
C1332 C1328 1.390 . S
C1332 C1329 1.392 . S
C1332 H1342 0.930 . S
C1333 C1330 1.372 . S
C1333 C1331 1.390 . S
C1333 H1343 0.929 . S
C1334 O1314 1.255 . S
C1334 O1315 1.257 . S
C1335 Eu1271 2.787 . S
C1335 O1310 1.252 . S
C1335 O1313 1.268 . S
C1335 C1328 1.506 . S
H1336 C1319 0.931 . S
H1337 C1320 0.931 . S
H1338 C1321 0.929 . S
H1339 C1322 0.930 . S
H1340 C1330 0.931 . S
H1341 C1331 0.931 . S
H1342 C1332 0.930 . S
H1343 C1333 0.929 . S
Eu1344 N1373 2.600 . S
Eu1344 N1379 2.562 . S
Eu1344 O1388 2.462 . S
Eu1344 O1389 2.373 . S
Eu1344 O1391 2.432 . S
Eu1344 O1392 2.291 . S
Eu1344 O1396 2.335 . S
Eu1344 O1399 2.372 . S
Eu1344 C1408 2.787 . S
C1345 N1346 1.365 . S
C1345 C1348 1.405 . S
C1345 C1352 1.448 . S
N1346 C1345 1.365 . S
N1346 C1349 1.319 . S
N1346 Eu1355 2.600 . S
C1347 C1349 1.397 . S
C1347 C1350 1.367 . S
C1347 H1367 0.931 . S
C1348 C1345 1.405 . S
C1348 C1350 1.403 . S
C1348 C1354 1.439 . S
C1349 N1346 1.319 . S
C1349 C1347 1.397 . S
C1349 H1360 0.930 . S
C1350 C1347 1.367 . S
C1350 C1348 1.403 . S
C1350 H1371 0.929 . S
C1351 C1352 1.430 . S
C1351 C1353 1.387 . S
C1351 C1357 1.404 . S
C1352 C1345 1.448 . S
C1352 C1351 1.430 . S
C1352 N1356 1.351 . S
C1353 C1351 1.387 . S
C1353 C1354 1.374 . S
C1353 H1368 0.931 . S
C1354 C1348 1.439 . S
C1354 C1353 1.374 . S
C1354 H1369 0.931 . S
Eu1355 N1346 2.600 . S
Eu1355 N1356 2.562 . S
Eu1355 O1390 2.335 . S
Eu1355 O1393 2.372 . S
Eu1355 O1394 2.462 . S
Eu1355 O1395 2.373 . S
Eu1355 O1397 2.432 . S
Eu1355 O1398 2.291 . S
Eu1355 C1419 2.787 . S
N1356 C1352 1.351 . S
N1356 Eu1355 2.562 . S
N1356 C1358 1.325 . S
C1357 C1351 1.404 . S
C1357 C1359 1.366 . S
C1357 H1365 0.930 . S
C1358 N1356 1.325 . S
C1358 C1359 1.416 . S
C1358 H1364 0.929 . S
C1359 C1357 1.366 . S
C1359 C1358 1.416 . S
C1359 H1361 0.930 . S
H1360 C1349 0.930 . S
H1361 C1359 0.930 . S
H1362 C1377 0.930 . S
H1363 C1384 0.930 . S
H1364 C1358 0.929 . S
H1365 C1357 0.930 . S
H1366 C1380 0.929 . S
H1367 C1347 0.931 . S
H1368 C1353 0.931 . S
H1369 C1354 0.931 . S
H1370 C1375 0.931 . S
H1371 C1350 0.929 . S
H1372 C1383 0.930 . S
N1373 Eu1344 2.600 . S
N1373 C1374 1.365 . S
N1373 C1377 1.319 . S
C1374 N1373 1.365 . S
C1374 C1376 1.405 . S
C1374 C1382 1.448 . S
C1375 H1370 0.931 . S
C1375 C1377 1.397 . S
C1375 C1378 1.367 . S
C1376 C1374 1.405 . S
C1376 C1378 1.403 . S
C1376 C1409 1.439 . S
C1377 H1362 0.930 . S
C1377 N1373 1.319 . S
C1377 C1375 1.397 . S
C1378 C1375 1.367 . S
C1378 C1376 1.403 . S
C1378 H1385 0.929 . S
N1379 Eu1344 2.562 . S
N1379 C1380 1.325 . S
N1379 C1382 1.351 . S
C1380 H1366 0.929 . S
C1380 N1379 1.325 . S
C1380 C1384 1.416 . S
C1381 C1382 1.430 . S
C1381 C1383 1.404 . S
C1381 C1410 1.387 . S
C1382 C1374 1.448 . S
C1382 N1379 1.351 . S
C1382 C1381 1.430 . S
C1383 H1372 0.930 . S
C1383 C1381 1.404 . S
C1383 C1384 1.366 . S
C1384 H1363 0.930 . S
C1384 C1380 1.416 . S
C1384 C1383 1.366 . S
H1385 C1378 0.929 . S
H1386 C1409 0.931 . S
H1387 C1410 0.931 . S
O1388 Eu1344 2.462 . S
O1388 C1408 1.252 . S
O1389 Eu1344 2.373 . S
O1389 C1400 1.249 . S
O1390 Eu1355 2.335 . S
O1390 C1400 1.264 . S
O1391 Eu1344 2.432 . S
O1391 C1408 1.268 . S
O1392 Eu1344 2.291 . S
O1392 C1407 1.255 . S
O1393 Eu1355 2.372 . S
O1393 C1407 1.257 . S
O1394 Eu1355 2.462 . S
O1394 C1419 1.252 . S
O1395 Eu1355 2.373 . S
O1395 C1411 1.249 . S
O1396 Eu1344 2.335 . S
O1396 C1411 1.264 . S
O1397 Eu1355 2.432 . S
O1397 C1419 1.268 . S
O1398 Eu1355 2.291 . S
O1398 C1418 1.255 . S
O1399 Eu1344 2.372 . S
O1399 C1418 1.257 . S
C1400 O1389 1.249 . S
C1400 O1390 1.264 . S
C1401 C1404 1.382 . S
C1401 C1406 1.390 . S
C1401 C1408 1.506 . S
C1402 C1403 1.398 . S
C1402 C1406 1.392 . S
C1403 C1402 1.398 . S
C1403 C1405 1.372 . S
C1403 H1420 0.931 . S
C1404 C1401 1.382 . S
C1404 C1405 1.390 . S
C1404 H1421 0.931 . S
C1405 C1403 1.372 . S
C1405 C1404 1.390 . S
C1405 H1422 0.929 . S
C1406 C1401 1.390 . S
C1406 C1402 1.392 . S
C1406 H1423 0.930 . S
C1407 O1392 1.255 . S
C1407 O1393 1.257 . S
C1408 Eu1344 2.787 . S
C1408 O1388 1.252 . S
C1408 O1391 1.268 . S
C1408 C1401 1.506 . S
C1409 C1376 1.439 . S
C1409 H1386 0.931 . S
C1409 C1410 1.374 . S
C1410 C1381 1.387 . S
C1410 H1387 0.931 . S
C1410 C1409 1.374 . S
C1411 O1395 1.249 . S
C1411 O1396 1.264 . S
C1412 C1415 1.382 . S
C1412 C1416 1.390 . S
C1412 C1419 1.506 . S
C1413 C1414 1.398 . S
C1413 C1416 1.392 . S
C1414 C1413 1.398 . S
C1414 C1417 1.372 . S
C1414 H1424 0.931 . S
C1415 C1412 1.382 . S
C1415 C1417 1.390 . S
C1415 H1425 0.931 . S
C1416 C1412 1.390 . S
C1416 C1413 1.392 . S
C1416 H1426 0.930 . S
C1417 C1414 1.372 . S
C1417 C1415 1.390 . S
C1417 H1427 0.929 . S
C1418 O1398 1.255 . S
C1418 O1399 1.257 . S
C1419 Eu1355 2.787 . S
C1419 O1394 1.252 . S
C1419 O1397 1.268 . S
C1419 C1412 1.506 . S
H1420 C1403 0.931 . S
H1421 C1404 0.931 . S
H1422 C1405 0.929 . S
H1423 C1406 0.930 . S
H1424 C1414 0.931 . S
H1425 C1415 0.931 . S
H1426 C1416 0.930 . S
H1427 C1417 0.929 . S
Eu1428 N1457 2.600 . S
Eu1428 N1463 2.562 . S
Eu1428 O1472 2.462 . S
Eu1428 O1473 2.373 . S
Eu1428 O1475 2.432 . S
Eu1428 O1476 2.291 . S
Eu1428 O1480 2.335 . S
Eu1428 O1483 2.372 . S
Eu1428 C1492 2.787 . S
C1429 N1430 1.365 . S
C1429 C1432 1.405 . S
C1429 C1436 1.448 . S
N1430 C1429 1.365 . S
N1430 C1433 1.319 . S
N1430 Eu1439 2.600 . S
C1431 C1433 1.397 . S
C1431 C1434 1.367 . S
C1431 H1451 0.931 . S
C1432 C1429 1.405 . S
C1432 C1434 1.403 . S
C1432 C1438 1.439 . S
C1433 N1430 1.319 . S
C1433 C1431 1.397 . S
C1433 H1444 0.930 . S
C1434 C1431 1.367 . S
C1434 C1432 1.403 . S
C1434 H1455 0.929 . S
C1435 C1436 1.430 . S
C1435 C1437 1.387 . S
C1435 C1441 1.404 . S
C1436 C1429 1.448 . S
C1436 C1435 1.430 . S
C1436 N1440 1.351 . S
C1437 C1435 1.387 . S
C1437 C1438 1.374 . S
C1437 H1452 0.931 . S
C1438 C1432 1.439 . S
C1438 C1437 1.374 . S
C1438 H1453 0.931 . S
Eu1439 N1430 2.600 . S
Eu1439 N1440 2.562 . S
Eu1439 O1474 2.335 . S
Eu1439 O1477 2.372 . S
Eu1439 O1478 2.462 . S
Eu1439 O1479 2.373 . S
Eu1439 O1481 2.432 . S
Eu1439 O1482 2.291 . S
Eu1439 C1503 2.787 . S
N1440 C1436 1.351 . S
N1440 Eu1439 2.562 . S
N1440 C1442 1.325 . S
C1441 C1435 1.404 . S
C1441 C1443 1.366 . S
C1441 H1449 0.930 . S
C1442 N1440 1.325 . S
C1442 C1443 1.416 . S
C1442 H1448 0.929 . S
C1443 C1441 1.366 . S
C1443 C1442 1.416 . S
C1443 H1445 0.930 . S
H1444 C1433 0.930 . S
H1445 C1443 0.930 . S
H1446 C1461 0.930 . S
H1447 C1468 0.930 . S
H1448 C1442 0.929 . S
H1449 C1441 0.930 . S
H1450 C1464 0.929 . S
H1451 C1431 0.931 . S
H1452 C1437 0.931 . S
H1453 C1438 0.931 . S
H1454 C1459 0.931 . S
H1455 C1434 0.929 . S
H1456 C1467 0.930 . S
N1457 Eu1428 2.600 . S
N1457 C1458 1.365 . S
N1457 C1461 1.319 . S
C1458 N1457 1.365 . S
C1458 C1460 1.405 . S
C1458 C1466 1.448 . S
C1459 H1454 0.931 . S
C1459 C1461 1.397 . S
C1459 C1462 1.367 . S
C1460 C1458 1.405 . S
C1460 C1462 1.403 . S
C1460 C1493 1.439 . S
C1461 H1446 0.930 . S
C1461 N1457 1.319 . S
C1461 C1459 1.397 . S
C1462 C1459 1.367 . S
C1462 C1460 1.403 . S
C1462 H1469 0.929 . S
N1463 Eu1428 2.562 . S
N1463 C1464 1.325 . S
N1463 C1466 1.351 . S
C1464 H1450 0.929 . S
C1464 N1463 1.325 . S
C1464 C1468 1.416 . S
C1465 C1466 1.430 . S
C1465 C1467 1.404 . S
C1465 C1494 1.387 . S
C1466 C1458 1.448 . S
C1466 N1463 1.351 . S
C1466 C1465 1.430 . S
C1467 H1456 0.930 . S
C1467 C1465 1.404 . S
C1467 C1468 1.366 . S
C1468 H1447 0.930 . S
C1468 C1464 1.416 . S
C1468 C1467 1.366 . S
H1469 C1462 0.929 . S
H1470 C1493 0.931 . S
H1471 C1494 0.931 . S
O1472 Eu1428 2.462 . S
O1472 C1492 1.252 . S
O1473 Eu1428 2.373 . S
O1473 C1484 1.249 . S
O1474 Eu1439 2.335 . S
O1474 C1484 1.264 . S
O1475 Eu1428 2.432 . S
O1475 C1492 1.268 . S
O1476 Eu1428 2.291 . S
O1476 C1491 1.255 . S
O1477 Eu1439 2.372 . S
O1477 C1491 1.257 . S
O1478 Eu1439 2.462 . S
O1478 C1503 1.252 . S
O1479 Eu1439 2.373 . S
O1479 C1495 1.249 . S
O1480 Eu1428 2.335 . S
O1480 C1495 1.264 . S
O1481 Eu1439 2.432 . S
O1481 C1503 1.268 . S
O1482 Eu1439 2.291 . S
O1482 C1502 1.255 . S
O1483 Eu1428 2.372 . S
O1483 C1502 1.257 . S
C1484 O1473 1.249 . S
C1484 O1474 1.264 . S
C1485 C1488 1.382 . S
C1485 C1490 1.390 . S
C1485 C1492 1.506 . S
C1486 C1487 1.398 . S
C1486 C1490 1.392 . S
C1487 C1486 1.398 . S
C1487 C1489 1.372 . S
C1487 H1504 0.931 . S
C1488 C1485 1.382 . S
C1488 C1489 1.390 . S
C1488 H1505 0.931 . S
C1489 C1487 1.372 . S
C1489 C1488 1.390 . S
C1489 H1506 0.929 . S
C1490 C1485 1.390 . S
C1490 C1486 1.392 . S
C1490 H1507 0.930 . S
C1491 O1476 1.255 . S
C1491 O1477 1.257 . S
C1492 Eu1428 2.787 . S
C1492 O1472 1.252 . S
C1492 O1475 1.268 . S
C1492 C1485 1.506 . S
C1493 C1460 1.439 . S
C1493 H1470 0.931 . S
C1493 C1494 1.374 . S
C1494 C1465 1.387 . S
C1494 H1471 0.931 . S
C1494 C1493 1.374 . S
C1495 O1479 1.249 . S
C1495 O1480 1.264 . S
C1496 C1499 1.382 . S
C1496 C1500 1.390 . S
C1496 C1503 1.506 . S
C1497 C1498 1.398 . S
C1497 C1500 1.392 . S
C1498 C1497 1.398 . S
C1498 C1501 1.372 . S
C1498 H1508 0.931 . S
C1499 C1496 1.382 . S
C1499 C1501 1.390 . S
C1499 H1509 0.931 . S
C1500 C1496 1.390 . S
C1500 C1497 1.392 . S
C1500 H1510 0.930 . S
C1501 C1498 1.372 . S
C1501 C1499 1.390 . S
C1501 H1511 0.929 . S
C1502 O1482 1.255 . S
C1502 O1483 1.257 . S
C1503 Eu1439 2.787 . S
C1503 O1478 1.252 . S
C1503 O1481 1.268 . S
C1503 C1496 1.506 . S
H1504 C1487 0.931 . S
H1505 C1488 0.931 . S
H1506 C1489 0.929 . S
H1507 C1490 0.930 . S
H1508 C1498 0.931 . S
H1509 C1499 0.931 . S
H1510 C1500 0.930 . S
H1511 C1501 0.929 . S
Eu1512 N1541 2.600 . S
Eu1512 N1547 2.562 . S
Eu1512 O1556 2.462 . S
Eu1512 O1557 2.373 . S
Eu1512 O1559 2.432 . S
Eu1512 O1560 2.291 . S
Eu1512 O1564 2.335 . S
Eu1512 O1567 2.372 . S
Eu1512 C1576 2.787 . S
C1513 N1514 1.365 . S
C1513 C1516 1.405 . S
C1513 C1520 1.448 . S
N1514 C1513 1.365 . S
N1514 C1517 1.319 . S
N1514 Eu1523 2.600 . S
C1515 C1517 1.397 . S
C1515 C1518 1.367 . S
C1515 H1535 0.931 . S
C1516 C1513 1.405 . S
C1516 C1518 1.403 . S
C1516 C1522 1.439 . S
C1517 N1514 1.319 . S
C1517 C1515 1.397 . S
C1517 H1528 0.930 . S
C1518 C1515 1.367 . S
C1518 C1516 1.403 . S
C1518 H1539 0.929 . S
C1519 C1520 1.430 . S
C1519 C1521 1.387 . S
C1519 C1525 1.404 . S
C1520 C1513 1.448 . S
C1520 C1519 1.430 . S
C1520 N1524 1.351 . S
C1521 C1519 1.387 . S
C1521 C1522 1.374 . S
C1521 H1536 0.931 . S
C1522 C1516 1.439 . S
C1522 C1521 1.374 . S
C1522 H1537 0.931 . S
Eu1523 N1514 2.600 . S
Eu1523 N1524 2.562 . S
Eu1523 O1558 2.335 . S
Eu1523 O1561 2.372 . S
Eu1523 O1562 2.462 . S
Eu1523 O1563 2.373 . S
Eu1523 O1565 2.432 . S
Eu1523 O1566 2.291 . S
Eu1523 C1587 2.787 . S
N1524 C1520 1.351 . S
N1524 Eu1523 2.562 . S
N1524 C1526 1.325 . S
C1525 C1519 1.404 . S
C1525 C1527 1.366 . S
C1525 H1533 0.930 . S
C1526 N1524 1.325 . S
C1526 C1527 1.416 . S
C1526 H1532 0.929 . S
C1527 C1525 1.366 . S
C1527 C1526 1.416 . S
C1527 H1529 0.930 . S
H1528 C1517 0.930 . S
H1529 C1527 0.930 . S
H1530 C1545 0.930 . S
H1531 C1552 0.930 . S
H1532 C1526 0.929 . S
H1533 C1525 0.930 . S
H1534 C1548 0.929 . S
H1535 C1515 0.931 . S
H1536 C1521 0.931 . S
H1537 C1522 0.931 . S
H1538 C1543 0.931 . S
H1539 C1518 0.929 . S
H1540 C1551 0.930 . S
N1541 Eu1512 2.600 . S
N1541 C1542 1.365 . S
N1541 C1545 1.319 . S
C1542 N1541 1.365 . S
C1542 C1544 1.405 . S
C1542 C1550 1.448 . S
C1543 H1538 0.931 . S
C1543 C1545 1.397 . S
C1543 C1546 1.367 . S
C1544 C1542 1.405 . S
C1544 C1546 1.403 . S
C1544 C1577 1.439 . S
C1545 H1530 0.930 . S
C1545 N1541 1.319 . S
C1545 C1543 1.397 . S
C1546 C1543 1.367 . S
C1546 C1544 1.403 . S
C1546 H1553 0.929 . S
N1547 Eu1512 2.562 . S
N1547 C1548 1.325 . S
N1547 C1550 1.351 . S
C1548 H1534 0.929 . S
C1548 N1547 1.325 . S
C1548 C1552 1.416 . S
C1549 C1550 1.430 . S
C1549 C1551 1.404 . S
C1549 C1578 1.387 . S
C1550 C1542 1.448 . S
C1550 N1547 1.351 . S
C1550 C1549 1.430 . S
C1551 H1540 0.930 . S
C1551 C1549 1.404 . S
C1551 C1552 1.366 . S
C1552 H1531 0.930 . S
C1552 C1548 1.416 . S
C1552 C1551 1.366 . S
H1553 C1546 0.929 . S
H1554 C1577 0.931 . S
H1555 C1578 0.931 . S
O1556 Eu1512 2.462 . S
O1556 C1576 1.252 . S
O1557 Eu1512 2.373 . S
O1557 C1568 1.249 . S
O1558 Eu1523 2.335 . S
O1558 C1568 1.264 . S
O1559 Eu1512 2.432 . S
O1559 C1576 1.268 . S
O1560 Eu1512 2.291 . S
O1560 C1575 1.255 . S
O1561 Eu1523 2.372 . S
O1561 C1575 1.257 . S
O1562 Eu1523 2.462 . S
O1562 C1587 1.252 . S
O1563 Eu1523 2.373 . S
O1563 C1579 1.249 . S
O1564 Eu1512 2.335 . S
O1564 C1579 1.264 . S
O1565 Eu1523 2.432 . S
O1565 C1587 1.268 . S
O1566 Eu1523 2.291 . S
O1566 C1586 1.255 . S
O1567 Eu1512 2.372 . S
O1567 C1586 1.257 . S
C1568 O1557 1.249 . S
C1568 O1558 1.264 . S
C1569 C1572 1.382 . S
C1569 C1574 1.390 . S
C1569 C1576 1.506 . S
C1570 C1571 1.398 . S
C1570 C1574 1.392 . S
C1571 C1570 1.398 . S
C1571 C1573 1.372 . S
C1571 H1588 0.931 . S
C1572 C1569 1.382 . S
C1572 C1573 1.390 . S
C1572 H1589 0.931 . S
C1573 C1571 1.372 . S
C1573 C1572 1.390 . S
C1573 H1590 0.929 . S
C1574 C1569 1.390 . S
C1574 C1570 1.392 . S
C1574 H1591 0.930 . S
C1575 O1560 1.255 . S
C1575 O1561 1.257 . S
C1576 Eu1512 2.787 . S
C1576 O1556 1.252 . S
C1576 O1559 1.268 . S
C1576 C1569 1.506 . S
C1577 C1544 1.439 . S
C1577 H1554 0.931 . S
C1577 C1578 1.374 . S
C1578 C1549 1.387 . S
C1578 H1555 0.931 . S
C1578 C1577 1.374 . S
C1579 O1563 1.249 . S
C1579 O1564 1.264 . S
C1580 C1583 1.382 . S
C1580 C1584 1.390 . S
C1580 C1587 1.506 . S
C1581 C1582 1.398 . S
C1581 C1584 1.392 . S
C1582 C1581 1.398 . S
C1582 C1585 1.372 . S
C1582 H1592 0.931 . S
C1583 C1580 1.382 . S
C1583 C1585 1.390 . S
C1583 H1593 0.931 . S
C1584 C1580 1.390 . S
C1584 C1581 1.392 . S
C1584 H1594 0.930 . S
C1585 C1582 1.372 . S
C1585 C1583 1.390 . S
C1585 H1595 0.929 . S
C1586 O1566 1.255 . S
C1586 O1567 1.257 . S
C1587 Eu1523 2.787 . S
C1587 O1562 1.252 . S
C1587 O1565 1.268 . S
C1587 C1580 1.506 . S
H1588 C1571 0.931 . S
H1589 C1572 0.931 . S
H1590 C1573 0.929 . S
H1591 C1574 0.930 . S
H1592 C1582 0.931 . S
H1593 C1583 0.931 . S
H1594 C1584 0.930 . S
H1595 C1585 0.929 . S
Eu1596 N1625 2.600 . S
Eu1596 N1631 2.562 . S
Eu1596 O1640 2.462 . S
Eu1596 O1641 2.373 . S
Eu1596 O1643 2.432 . S
Eu1596 O1644 2.291 . S
Eu1596 O1648 2.335 . S
Eu1596 O1651 2.372 . S
Eu1596 C1660 2.787 . S
C1597 N1598 1.365 . S
C1597 C1600 1.405 . S
C1597 C1604 1.448 . S
N1598 C1597 1.365 . S
N1598 C1601 1.319 . S
N1598 Eu1607 2.600 . S
C1599 C1601 1.397 . S
C1599 C1602 1.367 . S
C1599 H1619 0.931 . S
C1600 C1597 1.405 . S
C1600 C1602 1.403 . S
C1600 C1606 1.439 . S
C1601 N1598 1.319 . S
C1601 C1599 1.397 . S
C1601 H1612 0.930 . S
C1602 C1599 1.367 . S
C1602 C1600 1.403 . S
C1602 H1623 0.929 . S
C1603 C1604 1.430 . S
C1603 C1605 1.387 . S
C1603 C1609 1.404 . S
C1604 C1597 1.448 . S
C1604 C1603 1.430 . S
C1604 N1608 1.351 . S
C1605 C1603 1.387 . S
C1605 C1606 1.374 . S
C1605 H1620 0.931 . S
C1606 C1600 1.439 . S
C1606 C1605 1.374 . S
C1606 H1621 0.931 . S
Eu1607 N1598 2.600 . S
Eu1607 N1608 2.562 . S
Eu1607 O1642 2.335 . S
Eu1607 O1645 2.372 . S
Eu1607 O1646 2.462 . S
Eu1607 O1647 2.373 . S
Eu1607 O1649 2.432 . S
Eu1607 O1650 2.291 . S
Eu1607 C1671 2.787 . S
N1608 C1604 1.351 . S
N1608 Eu1607 2.562 . S
N1608 C1610 1.325 . S
C1609 C1603 1.404 . S
C1609 C1611 1.366 . S
C1609 H1617 0.930 . S
C1610 N1608 1.325 . S
C1610 C1611 1.416 . S
C1610 H1616 0.929 . S
C1611 C1609 1.366 . S
C1611 C1610 1.416 . S
C1611 H1613 0.930 . S
H1612 C1601 0.930 . S
H1613 C1611 0.930 . S
H1614 C1629 0.930 . S
H1615 C1636 0.930 . S
H1616 C1610 0.929 . S
H1617 C1609 0.930 . S
H1618 C1632 0.929 . S
H1619 C1599 0.931 . S
H1620 C1605 0.931 . S
H1621 C1606 0.931 . S
H1622 C1627 0.931 . S
H1623 C1602 0.929 . S
H1624 C1635 0.930 . S
N1625 Eu1596 2.600 . S
N1625 C1626 1.365 . S
N1625 C1629 1.319 . S
C1626 N1625 1.365 . S
C1626 C1628 1.405 . S
C1626 C1634 1.448 . S
C1627 H1622 0.931 . S
C1627 C1629 1.397 . S
C1627 C1630 1.367 . S
C1628 C1626 1.405 . S
C1628 C1630 1.403 . S
C1628 C1661 1.439 . S
C1629 H1614 0.930 . S
C1629 N1625 1.319 . S
C1629 C1627 1.397 . S
C1630 C1627 1.367 . S
C1630 C1628 1.403 . S
C1630 H1637 0.929 . S
N1631 Eu1596 2.562 . S
N1631 C1632 1.325 . S
N1631 C1634 1.351 . S
C1632 H1618 0.929 . S
C1632 N1631 1.325 . S
C1632 C1636 1.416 . S
C1633 C1634 1.430 . S
C1633 C1635 1.404 . S
C1633 C1662 1.387 . S
C1634 C1626 1.448 . S
C1634 N1631 1.351 . S
C1634 C1633 1.430 . S
C1635 H1624 0.930 . S
C1635 C1633 1.404 . S
C1635 C1636 1.366 . S
C1636 H1615 0.930 . S
C1636 C1632 1.416 . S
C1636 C1635 1.366 . S
H1637 C1630 0.929 . S
H1638 C1661 0.931 . S
H1639 C1662 0.931 . S
O1640 Eu1596 2.462 . S
O1640 C1660 1.252 . S
O1641 Eu1596 2.373 . S
O1641 C1652 1.249 . S
O1642 Eu1607 2.335 . S
O1642 C1652 1.264 . S
O1643 Eu1596 2.432 . S
O1643 C1660 1.268 . S
O1644 Eu1596 2.291 . S
O1644 C1659 1.255 . S
O1645 Eu1607 2.372 . S
O1645 C1659 1.257 . S
O1646 Eu1607 2.462 . S
O1646 C1671 1.252 . S
O1647 Eu1607 2.373 . S
O1647 C1663 1.249 . S
O1648 Eu1596 2.335 . S
O1648 C1663 1.264 . S
O1649 Eu1607 2.432 . S
O1649 C1671 1.268 . S
O1650 Eu1607 2.291 . S
O1650 C1670 1.255 . S
O1651 Eu1596 2.372 . S
O1651 C1670 1.257 . S
C1652 O1641 1.249 . S
C1652 O1642 1.264 . S
C1653 C1656 1.382 . S
C1653 C1658 1.390 . S
C1653 C1660 1.506 . S
C1654 C1655 1.398 . S
C1654 C1658 1.392 . S
C1655 C1654 1.398 . S
C1655 C1657 1.372 . S
C1655 H1672 0.931 . S
C1656 C1653 1.382 . S
C1656 C1657 1.390 . S
C1656 H1673 0.931 . S
C1657 C1655 1.372 . S
C1657 C1656 1.390 . S
C1657 H1674 0.929 . S
C1658 C1653 1.390 . S
C1658 C1654 1.392 . S
C1658 H1675 0.930 . S
C1659 O1644 1.255 . S
C1659 O1645 1.257 . S
C1660 Eu1596 2.787 . S
C1660 O1640 1.252 . S
C1660 O1643 1.268 . S
C1660 C1653 1.506 . S
C1661 C1628 1.439 . S
C1661 H1638 0.931 . S
C1661 C1662 1.374 . S
C1662 C1633 1.387 . S
C1662 H1639 0.931 . S
C1662 C1661 1.374 . S
C1663 O1647 1.249 . S
C1663 O1648 1.264 . S
C1664 C1667 1.382 . S
C1664 C1668 1.390 . S
C1664 C1671 1.506 . S
C1665 C1666 1.398 . S
C1665 C1668 1.392 . S
C1666 C1665 1.398 . S
C1666 C1669 1.372 . S
C1666 H1676 0.931 . S
C1667 C1664 1.382 . S
C1667 C1669 1.390 . S
C1667 H1677 0.931 . S
C1668 C1664 1.390 . S
C1668 C1665 1.392 . S
C1668 H1678 0.930 . S
C1669 C1666 1.372 . S
C1669 C1667 1.390 . S
C1669 H1679 0.929 . S
C1670 O1650 1.255 . S
C1670 O1651 1.257 . S
C1671 Eu1607 2.787 . S
C1671 O1646 1.252 . S
C1671 O1649 1.268 . S
C1671 C1664 1.506 . S
H1672 C1655 0.931 . S
H1673 C1656 0.931 . S
H1674 C1657 0.929 . S
H1675 C1658 0.930 . S
H1676 C1666 0.931 . S
H1677 C1667 0.931 . S
H1678 C1668 0.930 . S
H1679 C1669 0.929 . S
Eu1680 N1709 2.600 . S
Eu1680 N1715 2.562 . S
Eu1680 O1724 2.462 . S
Eu1680 O1725 2.373 . S
Eu1680 O1727 2.432 . S
Eu1680 O1728 2.291 . S
Eu1680 O1732 2.335 . S
Eu1680 O1735 2.372 . S
Eu1680 C1744 2.787 . S
C1681 N1682 1.365 . S
C1681 C1684 1.405 . S
C1681 C1688 1.448 . S
N1682 C1681 1.365 . S
N1682 C1685 1.319 . S
N1682 Eu1691 2.600 . S
C1683 C1685 1.397 . S
C1683 C1686 1.367 . S
C1683 H1703 0.931 . S
C1684 C1681 1.405 . S
C1684 C1686 1.403 . S
C1684 C1690 1.439 . S
C1685 N1682 1.319 . S
C1685 C1683 1.397 . S
C1685 H1696 0.930 . S
C1686 C1683 1.367 . S
C1686 C1684 1.403 . S
C1686 H1707 0.929 . S
C1687 C1688 1.430 . S
C1687 C1689 1.387 . S
C1687 C1693 1.404 . S
C1688 C1681 1.448 . S
C1688 C1687 1.430 . S
C1688 N1692 1.351 . S
C1689 C1687 1.387 . S
C1689 C1690 1.374 . S
C1689 H1704 0.931 . S
C1690 C1684 1.439 . S
C1690 C1689 1.374 . S
C1690 H1705 0.931 . S
Eu1691 N1682 2.600 . S
Eu1691 N1692 2.562 . S
Eu1691 O1726 2.335 . S
Eu1691 O1729 2.372 . S
Eu1691 O1730 2.462 . S
Eu1691 O1731 2.373 . S
Eu1691 O1733 2.432 . S
Eu1691 O1734 2.291 . S
Eu1691 C1755 2.787 . S
N1692 C1688 1.351 . S
N1692 Eu1691 2.562 . S
N1692 C1694 1.325 . S
C1693 C1687 1.404 . S
C1693 C1695 1.366 . S
C1693 H1701 0.930 . S
C1694 N1692 1.325 . S
C1694 C1695 1.416 . S
C1694 H1700 0.929 . S
C1695 C1693 1.366 . S
C1695 C1694 1.416 . S
C1695 H1697 0.930 . S
H1696 C1685 0.930 . S
H1697 C1695 0.930 . S
H1698 C1713 0.930 . S
H1699 C1720 0.930 . S
H1700 C1694 0.929 . S
H1701 C1693 0.930 . S
H1702 C1716 0.929 . S
H1703 C1683 0.931 . S
H1704 C1689 0.931 . S
H1705 C1690 0.931 . S
H1706 C1711 0.931 . S
H1707 C1686 0.929 . S
H1708 C1719 0.930 . S
N1709 Eu1680 2.600 . S
N1709 C1710 1.365 . S
N1709 C1713 1.319 . S
C1710 N1709 1.365 . S
C1710 C1712 1.405 . S
C1710 C1718 1.448 . S
C1711 H1706 0.931 . S
C1711 C1713 1.397 . S
C1711 C1714 1.367 . S
C1712 C1710 1.405 . S
C1712 C1714 1.403 . S
C1712 C1745 1.439 . S
C1713 H1698 0.930 . S
C1713 N1709 1.319 . S
C1713 C1711 1.397 . S
C1714 C1711 1.367 . S
C1714 C1712 1.403 . S
C1714 H1721 0.929 . S
N1715 Eu1680 2.562 . S
N1715 C1716 1.325 . S
N1715 C1718 1.351 . S
C1716 H1702 0.929 . S
C1716 N1715 1.325 . S
C1716 C1720 1.416 . S
C1717 C1718 1.430 . S
C1717 C1719 1.404 . S
C1717 C1746 1.387 . S
C1718 C1710 1.448 . S
C1718 N1715 1.351 . S
C1718 C1717 1.430 . S
C1719 H1708 0.930 . S
C1719 C1717 1.404 . S
C1719 C1720 1.366 . S
C1720 H1699 0.930 . S
C1720 C1716 1.416 . S
C1720 C1719 1.366 . S
H1721 C1714 0.929 . S
H1722 C1745 0.931 . S
H1723 C1746 0.931 . S
O1724 Eu1680 2.462 . S
O1724 C1744 1.252 . S
O1725 Eu1680 2.373 . S
O1725 C1736 1.249 . S
O1726 Eu1691 2.335 . S
O1726 C1736 1.264 . S
O1727 Eu1680 2.432 . S
O1727 C1744 1.268 . S
O1728 Eu1680 2.291 . S
O1728 C1743 1.255 . S
O1729 Eu1691 2.372 . S
O1729 C1743 1.257 . S
O1730 Eu1691 2.462 . S
O1730 C1755 1.252 . S
O1731 Eu1691 2.373 . S
O1731 C1747 1.249 . S
O1732 Eu1680 2.335 . S
O1732 C1747 1.264 . S
O1733 Eu1691 2.432 . S
O1733 C1755 1.268 . S
O1734 Eu1691 2.291 . S
O1734 C1754 1.255 . S
O1735 Eu1680 2.372 . S
O1735 C1754 1.257 . S
C1736 O1725 1.249 . S
C1736 O1726 1.264 . S
C1737 C1740 1.382 . S
C1737 C1742 1.390 . S
C1737 C1744 1.506 . S
C1738 C1739 1.398 . S
C1738 C1742 1.392 . S
C1739 C1738 1.398 . S
C1739 C1741 1.372 . S
C1739 H1756 0.931 . S
C1740 C1737 1.382 . S
C1740 C1741 1.390 . S
C1740 H1757 0.931 . S
C1741 C1739 1.372 . S
C1741 C1740 1.390 . S
C1741 H1758 0.929 . S
C1742 C1737 1.390 . S
C1742 C1738 1.392 . S
C1742 H1759 0.930 . S
C1743 O1728 1.255 . S
C1743 O1729 1.257 . S
C1744 Eu1680 2.787 . S
C1744 O1724 1.252 . S
C1744 O1727 1.268 . S
C1744 C1737 1.506 . S
C1745 C1712 1.439 . S
C1745 H1722 0.931 . S
C1745 C1746 1.374 . S
C1746 C1717 1.387 . S
C1746 H1723 0.931 . S
C1746 C1745 1.374 . S
C1747 O1731 1.249 . S
C1747 O1732 1.264 . S
C1748 C1751 1.382 . S
C1748 C1752 1.390 . S
C1748 C1755 1.506 . S
C1749 C1750 1.398 . S
C1749 C1752 1.392 . S
C1750 C1749 1.398 . S
C1750 C1753 1.372 . S
C1750 H1760 0.931 . S
C1751 C1748 1.382 . S
C1751 C1753 1.390 . S
C1751 H1761 0.931 . S
C1752 C1748 1.390 . S
C1752 C1749 1.392 . S
C1752 H1762 0.930 . S
C1753 C1750 1.372 . S
C1753 C1751 1.390 . S
C1753 H1763 0.929 . S
C1754 O1734 1.255 . S
C1754 O1735 1.257 . S
C1755 Eu1691 2.787 . S
C1755 O1730 1.252 . S
C1755 O1733 1.268 . S
C1755 C1748 1.506 . S
H1756 C1739 0.931 . S
H1757 C1740 0.931 . S
H1758 C1741 0.929 . S
H1759 C1742 0.930 . S
H1760 C1750 0.931 . S
H1761 C1751 0.931 . S
H1762 C1752 0.930 . S
H1763 C1753 0.929 . S
Eu1764 N1793 2.600 . S
Eu1764 N1799 2.562 . S
Eu1764 O1808 2.462 . S
Eu1764 O1809 2.373 . S
Eu1764 O1811 2.432 . S
Eu1764 O1812 2.291 . S
Eu1764 O1816 2.335 . S
Eu1764 O1819 2.372 . S
Eu1764 C1828 2.787 . S
C1765 N1766 1.365 . S
C1765 C1768 1.405 . S
C1765 C1772 1.448 . S
N1766 C1765 1.365 . S
N1766 C1769 1.319 . S
N1766 Eu1775 2.600 . S
C1767 C1769 1.397 . S
C1767 C1770 1.367 . S
C1767 H1787 0.931 . S
C1768 C1765 1.405 . S
C1768 C1770 1.403 . S
C1768 C1774 1.439 . S
C1769 N1766 1.319 . S
C1769 C1767 1.397 . S
C1769 H1780 0.930 . S
C1770 C1767 1.367 . S
C1770 C1768 1.403 . S
C1770 H1791 0.929 . S
C1771 C1772 1.430 . S
C1771 C1773 1.387 . S
C1771 C1777 1.404 . S
C1772 C1765 1.448 . S
C1772 C1771 1.430 . S
C1772 N1776 1.351 . S
C1773 C1771 1.387 . S
C1773 C1774 1.374 . S
C1773 H1788 0.931 1_556 S
C1774 C1768 1.439 . S
C1774 C1773 1.374 . S
C1774 H1789 0.931 . S
Eu1775 N1766 2.600 . S
Eu1775 N1776 2.562 . S
Eu1775 O1810 2.335 . S
Eu1775 O1813 2.372 . S
Eu1775 O1814 2.462 . S
Eu1775 O1815 2.373 . S
Eu1775 O1817 2.432 . S
Eu1775 O1818 2.291 . S
Eu1775 C1839 2.787 . S
N1776 C1772 1.351 . S
N1776 Eu1775 2.562 . S
N1776 C1778 1.325 . S
C1777 C1771 1.404 . S
C1777 C1779 1.366 . S
C1777 H1785 0.930 1_556 S
C1778 N1776 1.325 . S
C1778 C1779 1.416 . S
C1778 H1784 0.929 . S
C1779 C1777 1.366 . S
C1779 C1778 1.416 . S
C1779 H1781 0.930 1_556 S
H1780 C1769 0.930 . S
H1781 C1779 0.930 1_554 S
H1782 C1797 0.930 . S
H1783 C1804 0.930 . S
H1784 C1778 0.929 . S
H1785 C1777 0.930 1_554 S
H1786 C1800 0.929 . S
H1787 C1767 0.931 . S
H1788 C1773 0.931 1_554 S
H1789 C1774 0.931 . S
H1790 C1795 0.931 1_565 S
H1791 C1770 0.929 . S
H1792 C1803 0.930 . S
N1793 Eu1764 2.600 . S
N1793 C1794 1.365 . S
N1793 C1797 1.319 . S
C1794 N1793 1.365 . S
C1794 C1796 1.405 . S
C1794 C1802 1.448 . S
C1795 H1790 0.931 1_545 S
C1795 C1797 1.397 . S
C1795 C1798 1.367 1_545 S
C1796 C1794 1.405 . S
C1796 C1798 1.403 1_545 S
C1796 C1829 1.439 1_545 S
C1797 H1782 0.930 . S
C1797 N1793 1.319 . S
C1797 C1795 1.397 . S
C1798 C1795 1.367 1_565 S
C1798 C1796 1.403 1_565 S
C1798 H1805 0.929 . S
N1799 Eu1764 2.562 . S
N1799 C1800 1.325 . S
N1799 C1802 1.351 . S
C1800 H1786 0.929 . S
C1800 N1799 1.325 . S
C1800 C1804 1.416 . S
C1801 C1802 1.430 . S
C1801 C1803 1.404 . S
C1801 C1830 1.387 . S
C1802 C1794 1.448 . S
C1802 N1799 1.351 . S
C1802 C1801 1.430 . S
C1803 H1792 0.930 . S
C1803 C1801 1.404 . S
C1803 C1804 1.366 . S
C1804 H1783 0.930 . S
C1804 C1800 1.416 . S
C1804 C1803 1.366 . S
H1805 C1798 0.929 . S
H1806 C1829 0.931 . S
H1807 C1830 0.931 . S
O1808 Eu1764 2.462 . S
O1808 C1828 1.252 . S
O1809 Eu1764 2.373 . S
O1809 C1820 1.249 . S
O1810 Eu1775 2.335 . S
O1810 C1820 1.264 . S
O1811 Eu1764 2.432 . S
O1811 C1828 1.268 . S
O1812 Eu1764 2.291 . S
O1812 C1827 1.255 . S
O1813 Eu1775 2.372 . S
O1813 C1827 1.257 . S
O1814 Eu1775 2.462 . S
O1814 C1839 1.252 . S
O1815 Eu1775 2.373 . S
O1815 C1831 1.249 . S
O1816 Eu1764 2.335 . S
O1816 C1831 1.264 . S
O1817 Eu1775 2.432 . S
O1817 C1839 1.268 . S
O1818 Eu1775 2.291 . S
O1818 C1838 1.255 . S
O1819 Eu1764 2.372 . S
O1819 C1838 1.257 . S
C1820 O1809 1.249 . S
C1820 O1810 1.264 . S
C1821 C1824 1.382 . S
C1821 C1826 1.390 . S
C1821 C1828 1.506 . S
C1822 C1823 1.398 . S
C1822 C1826 1.392 . S
C1823 C1822 1.398 . S
C1823 C1825 1.372 . S
C1823 H1840 0.931 . S
C1824 C1821 1.382 . S
C1824 C1825 1.390 . S
C1824 H1841 0.931 . S
C1825 C1823 1.372 . S
C1825 C1824 1.390 . S
C1825 H1842 0.929 . S
C1826 C1821 1.390 . S
C1826 C1822 1.392 . S
C1826 H1843 0.930 . S
C1827 O1812 1.255 . S
C1827 O1813 1.257 . S
C1828 Eu1764 2.787 . S
C1828 O1808 1.252 . S
C1828 O1811 1.268 . S
C1828 C1821 1.506 . S
C1829 C1796 1.439 1_565 S
C1829 H1806 0.931 . S
C1829 C1830 1.374 1_565 S
C1830 C1801 1.387 . S
C1830 H1807 0.931 . S
C1830 C1829 1.374 1_545 S
C1831 O1815 1.249 . S
C1831 O1816 1.264 . S
C1832 C1835 1.382 . S
C1832 C1836 1.390 . S
C1832 C1839 1.506 . S
C1833 C1834 1.398 . S
C1833 C1836 1.392 . S
C1834 C1833 1.398 . S
C1834 C1837 1.372 . S
C1834 H1844 0.931 . S
C1835 C1832 1.382 . S
C1835 C1837 1.390 . S
C1835 H1845 0.931 . S
C1836 C1832 1.390 . S
C1836 C1833 1.392 . S
C1836 H1846 0.930 . S
C1837 C1834 1.372 . S
C1837 C1835 1.390 . S
C1837 H1847 0.929 . S
C1838 O1818 1.255 . S
C1838 O1819 1.257 . S
C1839 Eu1775 2.787 . S
C1839 O1814 1.252 . S
C1839 O1817 1.268 . S
C1839 C1832 1.506 . S
H1840 C1823 0.931 . S
H1841 C1824 0.931 . S
H1842 C1825 0.929 . S
H1843 C1826 0.930 . S
H1844 C1834 0.931 . S
H1845 C1835 0.931 . S
H1846 C1836 0.930 . S
H1847 C1837 0.929 . S
Eu1848 N1877 2.600 . S
Eu1848 N1883 2.562 . S
Eu1848 O1892 2.462 . S
Eu1848 O1893 2.373 . S
Eu1848 O1895 2.432 . S
Eu1848 O1896 2.291 . S
Eu1848 O1900 2.335 . S
Eu1848 O1903 2.372 . S
Eu1848 C1912 2.787 . S
C1849 N1850 1.365 . S
C1849 C1852 1.405 . S
C1849 C1856 1.448 . S
N1850 C1849 1.365 . S
N1850 C1853 1.319 . S
N1850 Eu1859 2.600 . S
C1851 C1853 1.397 . S
C1851 C1854 1.367 . S
C1851 H1871 0.931 . S
C1852 C1849 1.405 . S
C1852 C1854 1.403 . S
C1852 C1858 1.439 . S
C1853 N1850 1.319 . S
C1853 C1851 1.397 . S
C1853 H1864 0.930 . S
C1854 C1851 1.367 . S
C1854 C1852 1.403 . S
C1854 H1875 0.929 . S
C1855 C1856 1.430 . S
C1855 C1857 1.387 . S
C1855 C1861 1.404 . S
C1856 C1849 1.448 . S
C1856 C1855 1.430 . S
C1856 N1860 1.351 . S
C1857 C1855 1.387 . S
C1857 C1858 1.374 . S
C1857 H1872 0.931 1_556 S
C1858 C1852 1.439 . S
C1858 C1857 1.374 . S
C1858 H1873 0.931 . S
Eu1859 N1850 2.600 . S
Eu1859 N1860 2.562 . S
Eu1859 O1894 2.335 . S
Eu1859 O1897 2.372 . S
Eu1859 O1898 2.462 . S
Eu1859 O1899 2.373 . S
Eu1859 O1901 2.432 . S
Eu1859 O1902 2.291 . S
Eu1859 C1923 2.787 . S
N1860 C1856 1.351 . S
N1860 Eu1859 2.562 . S
N1860 C1862 1.325 . S
C1861 C1855 1.404 . S
C1861 C1863 1.366 . S
C1861 H1869 0.930 1_556 S
C1862 N1860 1.325 . S
C1862 C1863 1.416 . S
C1862 H1868 0.929 . S
C1863 C1861 1.366 . S
C1863 C1862 1.416 . S
C1863 H1865 0.930 1_556 S
H1864 C1853 0.930 . S
H1865 C1863 0.930 1_554 S
H1866 C1881 0.930 . S
H1867 C1888 0.930 . S
H1868 C1862 0.929 . S
H1869 C1861 0.930 1_554 S
H1870 C1884 0.929 . S
H1871 C1851 0.931 . S
H1872 C1857 0.931 1_554 S
H1873 C1858 0.931 . S
H1874 C1879 0.931 1_455 S
H1875 C1854 0.929 . S
H1876 C1887 0.930 . S
N1877 Eu1848 2.600 . S
N1877 C1878 1.365 . S
N1877 C1881 1.319 . S
C1878 N1877 1.365 . S
C1878 C1880 1.405 . S
C1878 C1886 1.448 . S
C1879 H1874 0.931 1_655 S
C1879 C1881 1.397 . S
C1879 C1882 1.367 1_655 S
C1880 C1878 1.405 . S
C1880 C1882 1.403 1_655 S
C1880 C1913 1.439 1_655 S
C1881 H1866 0.930 . S
C1881 N1877 1.319 . S
C1881 C1879 1.397 . S
C1882 C1879 1.367 1_455 S
C1882 C1880 1.403 1_455 S
C1882 H1889 0.929 . S
N1883 Eu1848 2.562 . S
N1883 C1884 1.325 . S
N1883 C1886 1.351 . S
C1884 H1870 0.929 . S
C1884 N1883 1.325 . S
C1884 C1888 1.416 . S
C1885 C1886 1.430 . S
C1885 C1887 1.404 . S
C1885 C1914 1.387 . S
C1886 C1878 1.448 . S
C1886 N1883 1.351 . S
C1886 C1885 1.430 . S
C1887 H1876 0.930 . S
C1887 C1885 1.404 . S
C1887 C1888 1.366 . S
C1888 H1867 0.930 . S
C1888 C1884 1.416 . S
C1888 C1887 1.366 . S
H1889 C1882 0.929 . S
H1890 C1913 0.931 . S
H1891 C1914 0.931 . S
O1892 Eu1848 2.462 . S
O1892 C1912 1.252 . S
O1893 Eu1848 2.373 . S
O1893 C1904 1.249 . S
O1894 Eu1859 2.335 . S
O1894 C1904 1.264 . S
O1895 Eu1848 2.432 . S
O1895 C1912 1.268 . S
O1896 Eu1848 2.291 . S
O1896 C1911 1.255 . S
O1897 Eu1859 2.372 . S
O1897 C1911 1.257 . S
O1898 Eu1859 2.462 . S
O1898 C1923 1.252 . S
O1899 Eu1859 2.373 . S
O1899 C1915 1.249 . S
O1900 Eu1848 2.335 . S
O1900 C1915 1.264 . S
O1901 Eu1859 2.432 . S
O1901 C1923 1.268 . S
O1902 Eu1859 2.291 . S
O1902 C1922 1.255 . S
O1903 Eu1848 2.372 . S
O1903 C1922 1.257 . S
C1904 O1893 1.249 . S
C1904 O1894 1.264 . S
C1905 C1908 1.382 . S
C1905 C1910 1.390 . S
C1905 C1912 1.506 . S
C1906 C1907 1.398 . S
C1906 C1910 1.392 . S
C1907 C1906 1.398 . S
C1907 C1909 1.372 . S
C1907 H1924 0.931 . S
C1908 C1905 1.382 . S
C1908 C1909 1.390 . S
C1908 H1925 0.931 . S
C1909 C1907 1.372 . S
C1909 C1908 1.390 . S
C1909 H1926 0.929 . S
C1910 C1905 1.390 . S
C1910 C1906 1.392 . S
C1910 H1927 0.930 . S
C1911 O1896 1.255 . S
C1911 O1897 1.257 . S
C1912 Eu1848 2.787 . S
C1912 O1892 1.252 . S
C1912 O1895 1.268 . S
C1912 C1905 1.506 . S
C1913 C1880 1.439 1_455 S
C1913 H1890 0.931 . S
C1913 C1914 1.374 1_455 S
C1914 C1885 1.387 . S
C1914 H1891 0.931 . S
C1914 C1913 1.374 1_655 S
C1915 O1899 1.249 . S
C1915 O1900 1.264 . S
C1916 C1919 1.382 . S
C1916 C1920 1.390 . S
C1916 C1923 1.506 . S
C1917 C1918 1.398 . S
C1917 C1920 1.392 . S
C1918 C1917 1.398 . S
C1918 C1921 1.372 . S
C1918 H1928 0.931 . S
C1919 C1916 1.382 . S
C1919 C1921 1.390 . S
C1919 H1929 0.931 . S
C1920 C1916 1.390 . S
C1920 C1917 1.392 . S
C1920 H1930 0.930 . S
C1921 C1918 1.372 . S
C1921 C1919 1.390 . S
C1921 H1931 0.929 . S
C1922 O1902 1.255 . S
C1922 O1903 1.257 . S
C1923 Eu1859 2.787 . S
C1923 O1898 1.252 . S
C1923 O1901 1.268 . S
C1923 C1916 1.506 . S
H1924 C1907 0.931 . S
H1925 C1908 0.931 . S
H1926 C1909 0.929 . S
H1927 C1910 0.930 . S
H1928 C1918 0.931 . S
H1929 C1919 0.931 . S
H1930 C1920 0.930 . S
H1931 C1921 0.929 . S
Eu1932 N1961 2.600 . S
Eu1932 N1967 2.562 . S
Eu1932 O1976 2.462 . S
Eu1932 O1977 2.373 . S
Eu1932 O1979 2.432 . S
Eu1932 O1980 2.291 . S
Eu1932 O1984 2.335 . S
Eu1932 O1987 2.372 . S
Eu1932 C1996 2.787 . S
C1933 N1934 1.365 . S
C1933 C1936 1.405 . S
C1933 C1940 1.448 . S
N1934 C1933 1.365 . S
N1934 C1937 1.319 . S
N1934 Eu1943 2.600 . S
C1935 C1937 1.397 . S
C1935 C1938 1.367 . S
C1935 H1955 0.931 . S
C1936 C1933 1.405 . S
C1936 C1938 1.403 . S
C1936 C1942 1.439 . S
C1937 N1934 1.319 . S
C1937 C1935 1.397 . S
C1937 H1948 0.930 . S
C1938 C1935 1.367 . S
C1938 C1936 1.403 . S
C1938 H1959 0.929 . S
C1939 C1940 1.430 . S
C1939 C1941 1.387 . S
C1939 C1945 1.404 . S
C1940 C1933 1.448 . S
C1940 C1939 1.430 . S
C1940 N1944 1.351 . S
C1941 C1939 1.387 . S
C1941 C1942 1.374 . S
C1941 H1956 0.931 1_556 S
C1942 C1936 1.439 . S
C1942 C1941 1.374 . S
C1942 H1957 0.931 . S
Eu1943 N1934 2.600 . S
Eu1943 N1944 2.562 . S
Eu1943 O1978 2.335 . S
Eu1943 O1981 2.372 . S
Eu1943 O1982 2.462 . S
Eu1943 O1983 2.373 . S
Eu1943 O1985 2.432 . S
Eu1943 O1986 2.291 . S
Eu1943 C2007 2.787 . S
N1944 C1940 1.351 . S
N1944 Eu1943 2.562 . S
N1944 C1946 1.325 . S
C1945 C1939 1.404 . S
C1945 C1947 1.366 . S
C1945 H1953 0.930 1_556 S
C1946 N1944 1.325 . S
C1946 C1947 1.416 . S
C1946 H1952 0.929 . S
C1947 C1945 1.366 . S
C1947 C1946 1.416 . S
C1947 H1949 0.930 1_556 S
H1948 C1937 0.930 . S
H1949 C1947 0.930 1_554 S
H1950 C1965 0.930 . S
H1951 C1972 0.930 . S
H1952 C1946 0.929 . S
H1953 C1945 0.930 1_554 S
H1954 C1968 0.929 . S
H1955 C1935 0.931 . S
H1956 C1941 0.931 1_554 S
H1957 C1942 0.931 . S
H1958 C1963 0.931 . S
H1959 C1938 0.929 . S
H1960 C1971 0.930 . S
N1961 Eu1932 2.600 . S
N1961 C1962 1.365 . S
N1961 C1965 1.319 . S
C1962 N1961 1.365 . S
C1962 C1964 1.405 . S
C1962 C1970 1.448 . S
C1963 H1958 0.931 . S
C1963 C1965 1.397 . S
C1963 C1966 1.367 . S
C1964 C1962 1.405 . S
C1964 C1966 1.403 . S
C1964 C1997 1.439 . S
C1965 H1950 0.930 . S
C1965 N1961 1.319 . S
C1965 C1963 1.397 . S
C1966 C1963 1.367 . S
C1966 C1964 1.403 . S
C1966 H1973 0.929 . S
N1967 Eu1932 2.562 . S
N1967 C1968 1.325 . S
N1967 C1970 1.351 . S
C1968 H1954 0.929 . S
C1968 N1967 1.325 . S
C1968 C1972 1.416 . S
C1969 C1970 1.430 . S
C1969 C1971 1.404 . S
C1969 C1998 1.387 . S
C1970 C1962 1.448 . S
C1970 N1967 1.351 . S
C1970 C1969 1.430 . S
C1971 H1960 0.930 . S
C1971 C1969 1.404 . S
C1971 C1972 1.366 . S
C1972 H1951 0.930 . S
C1972 C1968 1.416 . S
C1972 C1971 1.366 . S
H1973 C1966 0.929 . S
H1974 C1997 0.931 . S
H1975 C1998 0.931 . S
O1976 Eu1932 2.462 . S
O1976 C1996 1.252 . S
O1977 Eu1932 2.373 . S
O1977 C1988 1.249 . S
O1978 Eu1943 2.335 . S
O1978 C1988 1.264 . S
O1979 Eu1932 2.432 . S
O1979 C1996 1.268 . S
O1980 Eu1932 2.291 . S
O1980 C1995 1.255 . S
O1981 Eu1943 2.372 . S
O1981 C1995 1.257 . S
O1982 Eu1943 2.462 . S
O1982 C2007 1.252 . S
O1983 Eu1943 2.373 . S
O1983 C1999 1.249 . S
O1984 Eu1932 2.335 . S
O1984 C1999 1.264 . S
O1985 Eu1943 2.432 . S
O1985 C2007 1.268 . S
O1986 Eu1943 2.291 . S
O1986 C2006 1.255 . S
O1987 Eu1932 2.372 . S
O1987 C2006 1.257 . S
C1988 O1977 1.249 . S
C1988 O1978 1.264 . S
C1989 C1992 1.382 . S
C1989 C1994 1.390 . S
C1989 C1996 1.506 . S
C1990 C1991 1.398 . S
C1990 C1994 1.392 . S
C1991 C1990 1.398 . S
C1991 C1993 1.372 . S
C1991 H2008 0.931 . S
C1992 C1989 1.382 . S
C1992 C1993 1.390 . S
C1992 H2009 0.931 . S
C1993 C1991 1.372 . S
C1993 C1992 1.390 . S
C1993 H2010 0.929 . S
C1994 C1989 1.390 . S
C1994 C1990 1.392 . S
C1994 H2011 0.930 . S
C1995 O1980 1.255 . S
C1995 O1981 1.257 . S
C1996 Eu1932 2.787 . S
C1996 O1976 1.252 . S
C1996 O1979 1.268 . S
C1996 C1989 1.506 . S
C1997 C1964 1.439 . S
C1997 H1974 0.931 . S
C1997 C1998 1.374 . S
C1998 C1969 1.387 . S
C1998 H1975 0.931 . S
C1998 C1997 1.374 . S
C1999 O1983 1.249 . S
C1999 O1984 1.264 . S
C2000 C2003 1.382 . S
C2000 C2004 1.390 . S
C2000 C2007 1.506 . S
C2001 C2002 1.398 . S
C2001 C2004 1.392 . S
C2002 C2001 1.398 . S
C2002 C2005 1.372 . S
C2002 H2012 0.931 . S
C2003 C2000 1.382 . S
C2003 C2005 1.390 . S
C2003 H2013 0.931 . S
C2004 C2000 1.390 . S
C2004 C2001 1.392 . S
C2004 H2014 0.930 . S
C2005 C2002 1.372 . S
C2005 C2003 1.390 . S
C2005 H2015 0.929 . S
C2006 O1986 1.255 . S
C2006 O1987 1.257 . S
C2007 Eu1943 2.787 . S
C2007 O1982 1.252 . S
C2007 O1985 1.268 . S
C2007 C2000 1.506 . S
H2008 C1991 0.931 . S
H2009 C1992 0.931 . S
H2010 C1993 0.929 . S
H2011 C1994 0.930 . S
H2012 C2002 0.931 . S
H2013 C2003 0.931 . S
H2014 C2004 0.930 . S
H2015 C2005 0.929 . S
Eu2016 N2045 2.600 . S
Eu2016 N2051 2.562 . S
Eu2016 O2060 2.462 . S
Eu2016 O2061 2.373 . S
Eu2016 O2063 2.432 . S
Eu2016 O2064 2.291 . S
Eu2016 O2068 2.335 . S
Eu2016 O2071 2.372 . S
Eu2016 C2080 2.787 . S
C2017 N2018 1.365 . S
C2017 C2020 1.405 . S
C2017 C2024 1.448 . S
N2018 C2017 1.365 . S
N2018 C2021 1.319 . S
N2018 Eu2027 2.600 . S
C2019 C2021 1.397 . S
C2019 C2022 1.367 . S
C2019 H2039 0.931 . S
C2020 C2017 1.405 . S
C2020 C2022 1.403 . S
C2020 C2026 1.439 . S
C2021 N2018 1.319 . S
C2021 C2019 1.397 . S
C2021 H2032 0.930 . S
C2022 C2019 1.367 . S
C2022 C2020 1.403 . S
C2022 H2043 0.929 . S
C2023 C2024 1.430 . S
C2023 C2025 1.387 . S
C2023 C2029 1.404 . S
C2024 C2017 1.448 . S
C2024 C2023 1.430 . S
C2024 N2028 1.351 . S
C2025 C2023 1.387 . S
C2025 C2026 1.374 . S
C2025 H2040 0.931 . S
C2026 C2020 1.439 . S
C2026 C2025 1.374 . S
C2026 H2041 0.931 . S
Eu2027 N2018 2.600 . S
Eu2027 N2028 2.562 . S
Eu2027 O2062 2.335 . S
Eu2027 O2065 2.372 . S
Eu2027 O2066 2.462 . S
Eu2027 O2067 2.373 . S
Eu2027 O2069 2.432 . S
Eu2027 O2070 2.291 . S
Eu2027 C2091 2.787 . S
N2028 C2024 1.351 . S
N2028 Eu2027 2.562 . S
N2028 C2030 1.325 . S
C2029 C2023 1.404 . S
C2029 C2031 1.366 . S
C2029 H2037 0.930 . S
C2030 N2028 1.325 . S
C2030 C2031 1.416 . S
C2030 H2036 0.929 . S
C2031 C2029 1.366 . S
C2031 C2030 1.416 . S
C2031 H2033 0.930 . S
H2032 C2021 0.930 . S
H2033 C2031 0.930 . S
H2034 C2049 0.930 . S
H2035 C2056 0.930 . S
H2036 C2030 0.929 . S
H2037 C2029 0.930 . S
H2038 C2052 0.929 . S
H2039 C2019 0.931 . S
H2040 C2025 0.931 . S
H2041 C2026 0.931 . S
H2042 C2047 0.931 . S
H2043 C2022 0.929 . S
H2044 C2055 0.930 . S
N2045 Eu2016 2.600 . S
N2045 C2046 1.365 . S
N2045 C2049 1.319 . S
C2046 N2045 1.365 . S
C2046 C2048 1.405 . S
C2046 C2054 1.448 . S
C2047 H2042 0.931 . S
C2047 C2049 1.397 . S
C2047 C2050 1.367 . S
C2048 C2046 1.405 . S
C2048 C2050 1.403 . S
C2048 C2081 1.439 . S
C2049 H2034 0.930 . S
C2049 N2045 1.319 . S
C2049 C2047 1.397 . S
C2050 C2047 1.367 . S
C2050 C2048 1.403 . S
C2050 H2057 0.929 . S
N2051 Eu2016 2.562 . S
N2051 C2052 1.325 . S
N2051 C2054 1.351 . S
C2052 H2038 0.929 . S
C2052 N2051 1.325 . S
C2052 C2056 1.416 . S
C2053 C2054 1.430 . S
C2053 C2055 1.404 . S
C2053 C2082 1.387 . S
C2054 C2046 1.448 . S
C2054 N2051 1.351 . S
C2054 C2053 1.430 . S
C2055 H2044 0.930 . S
C2055 C2053 1.404 . S
C2055 C2056 1.366 . S
C2056 H2035 0.930 . S
C2056 C2052 1.416 . S
C2056 C2055 1.366 . S
H2057 C2050 0.929 . S
H2058 C2081 0.931 . S
H2059 C2082 0.931 . S
O2060 Eu2016 2.462 . S
O2060 C2080 1.252 . S
O2061 Eu2016 2.373 . S
O2061 C2072 1.249 . S
O2062 Eu2027 2.335 . S
O2062 C2072 1.264 . S
O2063 Eu2016 2.432 . S
O2063 C2080 1.268 . S
O2064 Eu2016 2.291 . S
O2064 C2079 1.255 . S
O2065 Eu2027 2.372 . S
O2065 C2079 1.257 . S
O2066 Eu2027 2.462 . S
O2066 C2091 1.252 . S
O2067 Eu2027 2.373 . S
O2067 C2083 1.249 . S
O2068 Eu2016 2.335 . S
O2068 C2083 1.264 . S
O2069 Eu2027 2.432 . S
O2069 C2091 1.268 . S
O2070 Eu2027 2.291 . S
O2070 C2090 1.255 . S
O2071 Eu2016 2.372 . S
O2071 C2090 1.257 . S
C2072 O2061 1.249 . S
C2072 O2062 1.264 . S
C2073 C2076 1.382 . S
C2073 C2078 1.390 . S
C2073 C2080 1.506 . S
C2074 C2075 1.398 . S
C2074 C2078 1.392 . S
C2075 C2074 1.398 . S
C2075 C2077 1.372 . S
C2075 H2092 0.931 . S
C2076 C2073 1.382 . S
C2076 C2077 1.390 . S
C2076 H2093 0.931 . S
C2077 C2075 1.372 . S
C2077 C2076 1.390 . S
C2077 H2094 0.929 . S
C2078 C2073 1.390 . S
C2078 C2074 1.392 . S
C2078 H2095 0.930 . S
C2079 O2064 1.255 . S
C2079 O2065 1.257 . S
C2080 Eu2016 2.787 . S
C2080 O2060 1.252 . S
C2080 O2063 1.268 . S
C2080 C2073 1.506 . S
C2081 C2048 1.439 . S
C2081 H2058 0.931 . S
C2081 C2082 1.374 . S
C2082 C2053 1.387 . S
C2082 H2059 0.931 . S
C2082 C2081 1.374 . S
C2083 O2067 1.249 . S
C2083 O2068 1.264 . S
C2084 C2087 1.382 . S
C2084 C2088 1.390 . S
C2084 C2091 1.506 . S
C2085 C2086 1.398 . S
C2085 C2088 1.392 . S
C2086 C2085 1.398 . S
C2086 C2089 1.372 . S
C2086 H2096 0.931 . S
C2087 C2084 1.382 . S
C2087 C2089 1.390 . S
C2087 H2097 0.931 . S
C2088 C2084 1.390 . S
C2088 C2085 1.392 . S
C2088 H2098 0.930 . S
C2089 C2086 1.372 . S
C2089 C2087 1.390 . S
C2089 H2099 0.929 . S
C2090 O2070 1.255 . S
C2090 O2071 1.257 . S
C2091 Eu2027 2.787 . S
C2091 O2066 1.252 . S
C2091 O2069 1.268 . S
C2091 C2084 1.506 . S
H2092 C2075 0.931 . S
H2093 C2076 0.931 . S
H2094 C2077 0.929 . S
H2095 C2078 0.930 . S
H2096 C2086 0.931 . S
H2097 C2087 0.931 . S
H2098 C2088 0.930 . S
H2099 C2089 0.929 . S
Eu2100 N2129 2.600 . S
Eu2100 N2135 2.562 . S
Eu2100 O2144 2.462 . S
Eu2100 O2145 2.373 . S
Eu2100 O2147 2.432 . S
Eu2100 O2148 2.291 . S
Eu2100 O2152 2.335 . S
Eu2100 O2155 2.372 . S
Eu2100 C2164 2.787 . S
C2101 N2102 1.365 . S
C2101 C2104 1.405 . S
C2101 C2108 1.448 . S
N2102 C2101 1.365 . S
N2102 C2105 1.319 . S
N2102 Eu2111 2.600 . S
C2103 C2105 1.397 . S
C2103 C2106 1.367 . S
C2103 H2123 0.931 . S
C2104 C2101 1.405 . S
C2104 C2106 1.403 . S
C2104 C2110 1.439 . S
C2105 N2102 1.319 . S
C2105 C2103 1.397 . S
C2105 H2116 0.930 . S
C2106 C2103 1.367 . S
C2106 C2104 1.403 . S
C2106 H2127 0.929 . S
C2107 C2108 1.430 . S
C2107 C2109 1.387 . S
C2107 C2113 1.404 . S
C2108 C2101 1.448 . S
C2108 C2107 1.430 . S
C2108 N2112 1.351 . S
C2109 C2107 1.387 . S
C2109 C2110 1.374 . S
C2109 H2124 0.931 . S
C2110 C2104 1.439 . S
C2110 C2109 1.374 . S
C2110 H2125 0.931 . S
Eu2111 N2102 2.600 . S
Eu2111 N2112 2.562 . S
Eu2111 O2146 2.335 . S
Eu2111 O2149 2.372 . S
Eu2111 O2150 2.462 . S
Eu2111 O2151 2.373 . S
Eu2111 O2153 2.432 . S
Eu2111 O2154 2.291 . S
Eu2111 C2175 2.787 . S
N2112 C2108 1.351 . S
N2112 Eu2111 2.562 . S
N2112 C2114 1.325 . S
C2113 C2107 1.404 . S
C2113 C2115 1.366 . S
C2113 H2121 0.930 . S
C2114 N2112 1.325 . S
C2114 C2115 1.416 . S
C2114 H2120 0.929 . S
C2115 C2113 1.366 . S
C2115 C2114 1.416 . S
C2115 H2117 0.930 . S
H2116 C2105 0.930 . S
H2117 C2115 0.930 . S
H2118 C2133 0.930 . S
H2119 C2140 0.930 . S
H2120 C2114 0.929 . S
H2121 C2113 0.930 . S
H2122 C2136 0.929 . S
H2123 C2103 0.931 . S
H2124 C2109 0.931 . S
H2125 C2110 0.931 . S
H2126 C2131 0.931 . S
H2127 C2106 0.929 . S
H2128 C2139 0.930 . S
N2129 Eu2100 2.600 . S
N2129 C2130 1.365 . S
N2129 C2133 1.319 . S
C2130 N2129 1.365 . S
C2130 C2132 1.405 . S
C2130 C2138 1.448 . S
C2131 H2126 0.931 . S
C2131 C2133 1.397 . S
C2131 C2134 1.367 . S
C2132 C2130 1.405 . S
C2132 C2134 1.403 . S
C2132 C2165 1.439 . S
C2133 H2118 0.930 . S
C2133 N2129 1.319 . S
C2133 C2131 1.397 . S
C2134 C2131 1.367 . S
C2134 C2132 1.403 . S
C2134 H2141 0.929 . S
N2135 Eu2100 2.562 . S
N2135 C2136 1.325 . S
N2135 C2138 1.351 . S
C2136 H2122 0.929 . S
C2136 N2135 1.325 . S
C2136 C2140 1.416 . S
C2137 C2138 1.430 . S
C2137 C2139 1.404 . S
C2137 C2166 1.387 . S
C2138 C2130 1.448 . S
C2138 N2135 1.351 . S
C2138 C2137 1.430 . S
C2139 H2128 0.930 . S
C2139 C2137 1.404 . S
C2139 C2140 1.366 . S
C2140 H2119 0.930 . S
C2140 C2136 1.416 . S
C2140 C2139 1.366 . S
H2141 C2134 0.929 . S
H2142 C2165 0.931 . S
H2143 C2166 0.931 . S
O2144 Eu2100 2.462 . S
O2144 C2164 1.252 . S
O2145 Eu2100 2.373 . S
O2145 C2156 1.249 . S
O2146 Eu2111 2.335 . S
O2146 C2156 1.264 . S
O2147 Eu2100 2.432 . S
O2147 C2164 1.268 . S
O2148 Eu2100 2.291 . S
O2148 C2163 1.255 . S
O2149 Eu2111 2.372 . S
O2149 C2163 1.257 . S
O2150 Eu2111 2.462 . S
O2150 C2175 1.252 . S
O2151 Eu2111 2.373 . S
O2151 C2167 1.249 . S
O2152 Eu2100 2.335 . S
O2152 C2167 1.264 . S
O2153 Eu2111 2.432 . S
O2153 C2175 1.268 . S
O2154 Eu2111 2.291 . S
O2154 C2174 1.255 . S
O2155 Eu2100 2.372 . S
O2155 C2174 1.257 . S
C2156 O2145 1.249 . S
C2156 O2146 1.264 . S
C2157 C2160 1.382 . S
C2157 C2162 1.390 . S
C2157 C2164 1.506 . S
C2158 C2159 1.398 . S
C2158 C2162 1.392 . S
C2159 C2158 1.398 . S
C2159 C2161 1.372 . S
C2159 H2176 0.931 . S
C2160 C2157 1.382 . S
C2160 C2161 1.390 . S
C2160 H2177 0.931 . S
C2161 C2159 1.372 . S
C2161 C2160 1.390 . S
C2161 H2178 0.929 . S
C2162 C2157 1.390 . S
C2162 C2158 1.392 . S
C2162 H2179 0.930 . S
C2163 O2148 1.255 . S
C2163 O2149 1.257 . S
C2164 Eu2100 2.787 . S
C2164 O2144 1.252 . S
C2164 O2147 1.268 . S
C2164 C2157 1.506 . S
C2165 C2132 1.439 . S
C2165 H2142 0.931 . S
C2165 C2166 1.374 . S
C2166 C2137 1.387 . S
C2166 H2143 0.931 . S
C2166 C2165 1.374 . S
C2167 O2151 1.249 . S
C2167 O2152 1.264 . S
C2168 C2171 1.382 . S
C2168 C2172 1.390 . S
C2168 C2175 1.506 . S
C2169 C2170 1.398 . S
C2169 C2172 1.392 . S
C2170 C2169 1.398 . S
C2170 C2173 1.372 . S
C2170 H2180 0.931 . S
C2171 C2168 1.382 . S
C2171 C2173 1.390 . S
C2171 H2181 0.931 . S
C2172 C2168 1.390 . S
C2172 C2169 1.392 . S
C2172 H2182 0.930 . S
C2173 C2170 1.372 . S
C2173 C2171 1.390 . S
C2173 H2183 0.929 . S
C2174 O2154 1.255 . S
C2174 O2155 1.257 . S
C2175 Eu2111 2.787 . S
C2175 O2150 1.252 . S
C2175 O2153 1.268 . S
C2175 C2168 1.506 . S
H2176 C2159 0.931 . S
H2177 C2160 0.931 . S
H2178 C2161 0.929 . S
H2179 C2162 0.930 . S
H2180 C2170 0.931 . S
H2181 C2171 0.931 . S
H2182 C2172 0.930 . S
H2183 C2173 0.929 . S
Eu2184 N2213 2.600 . S
Eu2184 N2219 2.562 . S
Eu2184 O2228 2.462 . S
Eu2184 O2229 2.373 . S
Eu2184 O2231 2.432 . S
Eu2184 O2232 2.291 . S
Eu2184 O2236 2.335 . S
Eu2184 O2239 2.372 . S
Eu2184 C2248 2.787 . S
C2185 N2186 1.365 . S
C2185 C2188 1.405 . S
C2185 C2192 1.448 . S
N2186 C2185 1.365 . S
N2186 C2189 1.319 . S
N2186 Eu2195 2.600 . S
C2187 C2189 1.397 . S
C2187 C2190 1.367 . S
C2187 H2207 0.931 . S
C2188 C2185 1.405 . S
C2188 C2190 1.403 . S
C2188 C2194 1.439 . S
C2189 N2186 1.319 . S
C2189 C2187 1.397 . S
C2189 H2200 0.930 . S
C2190 C2187 1.367 . S
C2190 C2188 1.403 . S
C2190 H2211 0.929 . S
C2191 C2192 1.430 . S
C2191 C2193 1.387 . S
C2191 C2197 1.404 . S
C2192 C2185 1.448 . S
C2192 C2191 1.430 . S
C2192 N2196 1.351 . S
C2193 C2191 1.387 . S
C2193 C2194 1.374 . S
C2193 H2208 0.931 . S
C2194 C2188 1.439 . S
C2194 C2193 1.374 . S
C2194 H2209 0.931 . S
Eu2195 N2186 2.600 . S
Eu2195 N2196 2.562 . S
Eu2195 O2230 2.335 . S
Eu2195 O2233 2.372 . S
Eu2195 O2234 2.462 . S
Eu2195 O2235 2.373 . S
Eu2195 O2237 2.432 . S
Eu2195 O2238 2.291 . S
Eu2195 C2259 2.787 . S
N2196 C2192 1.351 . S
N2196 Eu2195 2.562 . S
N2196 C2198 1.325 . S
C2197 C2191 1.404 . S
C2197 C2199 1.366 . S
C2197 H2205 0.930 . S
C2198 N2196 1.325 . S
C2198 C2199 1.416 . S
C2198 H2204 0.929 . S
C2199 C2197 1.366 . S
C2199 C2198 1.416 . S
C2199 H2201 0.930 . S
H2200 C2189 0.930 . S
H2201 C2199 0.930 . S
H2202 C2217 0.930 . S
H2203 C2224 0.930 . S
H2204 C2198 0.929 . S
H2205 C2197 0.930 . S
H2206 C2220 0.929 . S
H2207 C2187 0.931 . S
H2208 C2193 0.931 . S
H2209 C2194 0.931 . S
H2210 C2215 0.931 . S
H2211 C2190 0.929 . S
H2212 C2223 0.930 . S
N2213 Eu2184 2.600 . S
N2213 C2214 1.365 . S
N2213 C2217 1.319 . S
C2214 N2213 1.365 . S
C2214 C2216 1.405 . S
C2214 C2222 1.448 . S
C2215 H2210 0.931 . S
C2215 C2217 1.397 . S
C2215 C2218 1.367 . S
C2216 C2214 1.405 . S
C2216 C2218 1.403 . S
C2216 C2249 1.439 . S
C2217 H2202 0.930 . S
C2217 N2213 1.319 . S
C2217 C2215 1.397 . S
C2218 C2215 1.367 . S
C2218 C2216 1.403 . S
C2218 H2225 0.929 . S
N2219 Eu2184 2.562 . S
N2219 C2220 1.325 . S
N2219 C2222 1.351 . S
C2220 H2206 0.929 . S
C2220 N2219 1.325 . S
C2220 C2224 1.416 . S
C2221 C2222 1.430 . S
C2221 C2223 1.404 . S
C2221 C2250 1.387 . S
C2222 C2214 1.448 . S
C2222 N2219 1.351 . S
C2222 C2221 1.430 . S
C2223 H2212 0.930 . S
C2223 C2221 1.404 . S
C2223 C2224 1.366 . S
C2224 H2203 0.930 . S
C2224 C2220 1.416 . S
C2224 C2223 1.366 . S
H2225 C2218 0.929 . S
H2226 C2249 0.931 . S
H2227 C2250 0.931 . S
O2228 Eu2184 2.462 . S
O2228 C2248 1.252 . S
O2229 Eu2184 2.373 . S
O2229 C2240 1.249 . S
O2230 Eu2195 2.335 . S
O2230 C2240 1.264 . S
O2231 Eu2184 2.432 . S
O2231 C2248 1.268 . S
O2232 Eu2184 2.291 . S
O2232 C2247 1.255 . S
O2233 Eu2195 2.372 . S
O2233 C2247 1.257 . S
O2234 Eu2195 2.462 . S
O2234 C2259 1.252 . S
O2235 Eu2195 2.373 . S
O2235 C2251 1.249 . S
O2236 Eu2184 2.335 . S
O2236 C2251 1.264 . S
O2237 Eu2195 2.432 . S
O2237 C2259 1.268 . S
O2238 Eu2195 2.291 . S
O2238 C2258 1.255 . S
O2239 Eu2184 2.372 . S
O2239 C2258 1.257 . S
C2240 O2229 1.249 . S
C2240 O2230 1.264 . S
C2241 C2244 1.382 . S
C2241 C2246 1.390 . S
C2241 C2248 1.506 . S
C2242 C2243 1.398 . S
C2242 C2246 1.392 . S
C2243 C2242 1.398 . S
C2243 C2245 1.372 . S
C2243 H2260 0.931 . S
C2244 C2241 1.382 . S
C2244 C2245 1.390 . S
C2244 H2261 0.931 . S
C2245 C2243 1.372 . S
C2245 C2244 1.390 . S
C2245 H2262 0.929 . S
C2246 C2241 1.390 . S
C2246 C2242 1.392 . S
C2246 H2263 0.930 . S
C2247 O2232 1.255 . S
C2247 O2233 1.257 . S
C2248 Eu2184 2.787 . S
C2248 O2228 1.252 . S
C2248 O2231 1.268 . S
C2248 C2241 1.506 . S
C2249 C2216 1.439 . S
C2249 H2226 0.931 . S
C2249 C2250 1.374 . S
C2250 C2221 1.387 . S
C2250 H2227 0.931 . S
C2250 C2249 1.374 . S
C2251 O2235 1.249 . S
C2251 O2236 1.264 . S
C2252 C2255 1.382 . S
C2252 C2256 1.390 . S
C2252 C2259 1.506 . S
C2253 C2254 1.398 . S
C2253 C2256 1.392 . S
C2254 C2253 1.398 . S
C2254 C2257 1.372 . S
C2254 H2264 0.931 . S
C2255 C2252 1.382 . S
C2255 C2257 1.390 . S
C2255 H2265 0.931 . S
C2256 C2252 1.390 . S
C2256 C2253 1.392 . S
C2256 H2266 0.930 . S
C2257 C2254 1.372 . S
C2257 C2255 1.390 . S
C2257 H2267 0.929 . S
C2258 O2238 1.255 . S
C2258 O2239 1.257 . S
C2259 Eu2195 2.787 . S
C2259 O2234 1.252 . S
C2259 O2237 1.268 . S
C2259 C2252 1.506 . S
H2260 C2243 0.931 . S
H2261 C2244 0.931 . S
H2262 C2245 0.929 . S
H2263 C2246 0.930 . S
H2264 C2254 0.931 . S
H2265 C2255 0.931 . S
H2266 C2256 0.930 . S
H2267 C2257 0.929 . S
Eu2268 N2297 2.600 . S
Eu2268 N2303 2.562 . S
Eu2268 O2312 2.462 . S
Eu2268 O2313 2.373 . S
Eu2268 O2315 2.432 . S
Eu2268 O2316 2.291 . S
Eu2268 O2320 2.335 . S
Eu2268 O2323 2.372 . S
Eu2268 C2332 2.787 . S
C2269 N2270 1.365 . S
C2269 C2272 1.405 . S
C2269 C2276 1.448 . S
N2270 C2269 1.365 . S
N2270 C2273 1.319 . S
N2270 Eu2279 2.600 . S
C2271 C2273 1.397 . S
C2271 C2274 1.367 1_565 S
C2271 H2291 0.931 1_565 S
C2272 C2269 1.405 . S
C2272 C2274 1.403 1_565 S
C2272 C2278 1.439 1_565 S
C2273 N2270 1.319 . S
C2273 C2271 1.397 . S
C2273 H2284 0.930 . S
C2274 C2271 1.367 1_545 S
C2274 C2272 1.403 1_545 S
C2274 H2295 0.929 . S
C2275 C2276 1.430 . S
C2275 C2277 1.387 . S
C2275 C2281 1.404 . S
C2276 C2269 1.448 . S
C2276 C2275 1.430 . S
C2276 N2280 1.351 . S
C2277 C2275 1.387 . S
C2277 C2278 1.374 1_565 S
C2277 H2292 0.931 . S
C2278 C2272 1.439 1_545 S
C2278 C2277 1.374 1_545 S
C2278 H2293 0.931 . S
Eu2279 N2270 2.600 . S
Eu2279 N2280 2.562 . S
Eu2279 O2314 2.335 . S
Eu2279 O2317 2.372 . S
Eu2279 O2318 2.462 . S
Eu2279 O2319 2.373 . S
Eu2279 O2321 2.432 . S
Eu2279 O2322 2.291 . S
Eu2279 C2343 2.787 . S
N2280 C2276 1.351 . S
N2280 Eu2279 2.562 . S
N2280 C2282 1.325 . S
C2281 C2275 1.404 . S
C2281 C2283 1.366 . S
C2281 H2289 0.930 . S
C2282 N2280 1.325 . S
C2282 C2283 1.416 . S
C2282 H2288 0.929 . S
C2283 C2281 1.366 . S
C2283 C2282 1.416 . S
C2283 H2285 0.930 . S
H2284 C2273 0.930 . S
H2285 C2283 0.930 . S
H2286 C2301 0.930 . S
H2287 C2308 0.930 1_556 S
H2288 C2282 0.929 . S
H2289 C2281 0.930 . S
H2290 C2304 0.929 . S
H2291 C2271 0.931 1_545 S
H2292 C2277 0.931 . S
H2293 C2278 0.931 . S
H2294 C2299 0.931 . S
H2295 C2274 0.929 . S
H2296 C2307 0.930 1_556 S
N2297 Eu2268 2.600 . S
N2297 C2298 1.365 . S
N2297 C2301 1.319 . S
C2298 N2297 1.365 . S
C2298 C2300 1.405 . S
C2298 C2306 1.448 . S
C2299 H2294 0.931 . S
C2299 C2301 1.397 . S
C2299 C2302 1.367 . S
C2300 C2298 1.405 . S
C2300 C2302 1.403 . S
C2300 C2333 1.439 . S
C2301 H2286 0.930 . S
C2301 N2297 1.319 . S
C2301 C2299 1.397 . S
C2302 C2299 1.367 . S
C2302 C2300 1.403 . S
C2302 H2309 0.929 . S
N2303 Eu2268 2.562 . S
N2303 C2304 1.325 . S
N2303 C2306 1.351 . S
C2304 H2290 0.929 . S
C2304 N2303 1.325 . S
C2304 C2308 1.416 . S
C2305 C2306 1.430 . S
C2305 C2307 1.404 . S
C2305 C2334 1.387 . S
C2306 C2298 1.448 . S
C2306 N2303 1.351 . S
C2306 C2305 1.430 . S
C2307 H2296 0.930 1_554 S
C2307 C2305 1.404 . S
C2307 C2308 1.366 . S
C2308 H2287 0.930 1_554 S
C2308 C2304 1.416 . S
C2308 C2307 1.366 . S
H2309 C2302 0.929 . S
H2310 C2333 0.931 . S
H2311 C2334 0.931 1_556 S
O2312 Eu2268 2.462 . S
O2312 C2332 1.252 . S
O2313 Eu2268 2.373 . S
O2313 C2324 1.249 . S
O2314 Eu2279 2.335 . S
O2314 C2324 1.264 . S
O2315 Eu2268 2.432 . S
O2315 C2332 1.268 . S
O2316 Eu2268 2.291 . S
O2316 C2331 1.255 . S
O2317 Eu2279 2.372 . S
O2317 C2331 1.257 . S
O2318 Eu2279 2.462 . S
O2318 C2343 1.252 . S
O2319 Eu2279 2.373 . S
O2319 C2335 1.249 . S
O2320 Eu2268 2.335 . S
O2320 C2335 1.264 . S
O2321 Eu2279 2.432 . S
O2321 C2343 1.268 . S
O2322 Eu2279 2.291 . S
O2322 C2342 1.255 . S
O2323 Eu2268 2.372 . S
O2323 C2342 1.257 . S
C2324 O2313 1.249 . S
C2324 O2314 1.264 . S
C2325 C2328 1.382 . S
C2325 C2330 1.390 . S
C2325 C2332 1.506 . S
C2326 C2327 1.398 . S
C2326 C2330 1.392 . S
C2327 C2326 1.398 . S
C2327 C2329 1.372 . S
C2327 H2344 0.931 . S
C2328 C2325 1.382 . S
C2328 C2329 1.390 . S
C2328 H2345 0.931 . S
C2329 C2327 1.372 . S
C2329 C2328 1.390 . S
C2329 H2346 0.929 . S
C2330 C2325 1.390 . S
C2330 C2326 1.392 . S
C2330 H2347 0.930 . S
C2331 O2316 1.255 . S
C2331 O2317 1.257 . S
C2332 Eu2268 2.787 . S
C2332 O2312 1.252 . S
C2332 O2315 1.268 . S
C2332 C2325 1.506 . S
C2333 C2300 1.439 . S
C2333 H2310 0.931 . S
C2333 C2334 1.374 . S
C2334 C2305 1.387 . S
C2334 H2311 0.931 1_554 S
C2334 C2333 1.374 . S
C2335 O2319 1.249 . S
C2335 O2320 1.264 . S
C2336 C2339 1.382 . S
C2336 C2340 1.390 . S
C2336 C2343 1.506 . S
C2337 C2338 1.398 . S
C2337 C2340 1.392 . S
C2338 C2337 1.398 . S
C2338 C2341 1.372 . S
C2338 H2348 0.931 . S
C2339 C2336 1.382 . S
C2339 C2341 1.390 . S
C2339 H2349 0.931 . S
C2340 C2336 1.390 . S
C2340 C2337 1.392 . S
C2340 H2350 0.930 . S
C2341 C2338 1.372 . S
C2341 C2339 1.390 . S
C2341 H2351 0.929 . S
C2342 O2322 1.255 . S
C2342 O2323 1.257 . S
C2343 Eu2279 2.787 . S
C2343 O2318 1.252 . S
C2343 O2321 1.268 . S
C2343 C2336 1.506 . S
H2344 C2327 0.931 . S
H2345 C2328 0.931 . S
H2346 C2329 0.929 . S
H2347 C2330 0.930 . S
H2348 C2338 0.931 . S
H2349 C2339 0.931 . S
H2350 C2340 0.930 . S
H2351 C2341 0.929 . S
Eu2352 N2381 2.600 . S
Eu2352 N2387 2.562 . S
Eu2352 O2396 2.462 . S
Eu2352 O2397 2.373 . S
Eu2352 O2399 2.432 . S
Eu2352 O2400 2.291 . S
Eu2352 O2404 2.335 . S
Eu2352 O2407 2.372 . S
Eu2352 C2416 2.787 . S
C2353 N2354 1.365 . S
C2353 C2356 1.405 . S
C2353 C2360 1.448 . S
N2354 C2353 1.365 . S
N2354 C2357 1.319 . S
N2354 Eu2363 2.600 . S
C2355 C2357 1.397 . S
C2355 C2358 1.367 1_455 S
C2355 H2375 0.931 1_455 S
C2356 C2353 1.405 . S
C2356 C2358 1.403 1_455 S
C2356 C2362 1.439 1_455 S
C2357 N2354 1.319 . S
C2357 C2355 1.397 . S
C2357 H2368 0.930 . S
C2358 C2355 1.367 1_655 S
C2358 C2356 1.403 1_655 S
C2358 H2379 0.929 . S
C2359 C2360 1.430 . S
C2359 C2361 1.387 . S
C2359 C2365 1.404 . S
C2360 C2353 1.448 . S
C2360 C2359 1.430 . S
C2360 N2364 1.351 . S
C2361 C2359 1.387 . S
C2361 C2362 1.374 1_455 S
C2361 H2376 0.931 . S
C2362 C2356 1.439 1_655 S
C2362 C2361 1.374 1_655 S
C2362 H2377 0.931 . S
Eu2363 N2354 2.600 . S
Eu2363 N2364 2.562 . S
Eu2363 O2398 2.335 . S
Eu2363 O2401 2.372 . S
Eu2363 O2402 2.462 . S
Eu2363 O2403 2.373 . S
Eu2363 O2405 2.432 . S
Eu2363 O2406 2.291 . S
Eu2363 C2427 2.787 . S
N2364 C2360 1.351 . S
N2364 Eu2363 2.562 . S
N2364 C2366 1.325 . S
C2365 C2359 1.404 . S
C2365 C2367 1.366 . S
C2365 H2373 0.930 . S
C2366 N2364 1.325 . S
C2366 C2367 1.416 . S
C2366 H2372 0.929 . S
C2367 C2365 1.366 . S
C2367 C2366 1.416 . S
C2367 H2369 0.930 . S
H2368 C2357 0.930 . S
H2369 C2367 0.930 . S
H2370 C2385 0.930 . S
H2371 C2392 0.930 1_556 S
H2372 C2366 0.929 . S
H2373 C2365 0.930 . S
H2374 C2388 0.929 . S
H2375 C2355 0.931 1_655 S
H2376 C2361 0.931 . S
H2377 C2362 0.931 . S
H2378 C2383 0.931 . S
H2379 C2358 0.929 . S
H2380 C2391 0.930 1_556 S
N2381 Eu2352 2.600 . S
N2381 C2382 1.365 . S
N2381 C2385 1.319 . S
C2382 N2381 1.365 . S
C2382 C2384 1.405 . S
C2382 C2390 1.448 . S
C2383 H2378 0.931 . S
C2383 C2385 1.397 . S
C2383 C2386 1.367 . S
C2384 C2382 1.405 . S
C2384 C2386 1.403 . S
C2384 C2417 1.439 . S
C2385 H2370 0.930 . S
C2385 N2381 1.319 . S
C2385 C2383 1.397 . S
C2386 C2383 1.367 . S
C2386 C2384 1.403 . S
C2386 H2393 0.929 . S
N2387 Eu2352 2.562 . S
N2387 C2388 1.325 . S
N2387 C2390 1.351 . S
C2388 H2374 0.929 . S
C2388 N2387 1.325 . S
C2388 C2392 1.416 . S
C2389 C2390 1.430 . S
C2389 C2391 1.404 . S
C2389 C2418 1.387 . S
C2390 C2382 1.448 . S
C2390 N2387 1.351 . S
C2390 C2389 1.430 . S
C2391 H2380 0.930 1_554 S
C2391 C2389 1.404 . S
C2391 C2392 1.366 . S
C2392 H2371 0.930 1_554 S
C2392 C2388 1.416 . S
C2392 C2391 1.366 . S
H2393 C2386 0.929 . S
H2394 C2417 0.931 . S
H2395 C2418 0.931 1_556 S
O2396 Eu2352 2.462 . S
O2396 C2416 1.252 . S
O2397 Eu2352 2.373 . S
O2397 C2408 1.249 . S
O2398 Eu2363 2.335 . S
O2398 C2408 1.264 . S
O2399 Eu2352 2.432 . S
O2399 C2416 1.268 . S
O2400 Eu2352 2.291 . S
O2400 C2415 1.255 . S
O2401 Eu2363 2.372 . S
O2401 C2415 1.257 . S
O2402 Eu2363 2.462 . S
O2402 C2427 1.252 . S
O2403 Eu2363 2.373 . S
O2403 C2419 1.249 . S
O2404 Eu2352 2.335 . S
O2404 C2419 1.264 . S
O2405 Eu2363 2.432 . S
O2405 C2427 1.268 . S
O2406 Eu2363 2.291 . S
O2406 C2426 1.255 . S
O2407 Eu2352 2.372 . S
O2407 C2426 1.257 . S
C2408 O2397 1.249 . S
C2408 O2398 1.264 . S
C2409 C2412 1.382 . S
C2409 C2414 1.390 . S
C2409 C2416 1.506 . S
C2410 C2411 1.398 . S
C2410 C2414 1.392 . S
C2411 C2410 1.398 . S
C2411 C2413 1.372 . S
C2411 H2428 0.931 . S
C2412 C2409 1.382 . S
C2412 C2413 1.390 . S
C2412 H2429 0.931 . S
C2413 C2411 1.372 . S
C2413 C2412 1.390 . S
C2413 H2430 0.929 . S
C2414 C2409 1.390 . S
C2414 C2410 1.392 . S
C2414 H2431 0.930 . S
C2415 O2400 1.255 . S
C2415 O2401 1.257 . S
C2416 Eu2352 2.787 . S
C2416 O2396 1.252 . S
C2416 O2399 1.268 . S
C2416 C2409 1.506 . S
C2417 C2384 1.439 . S
C2417 H2394 0.931 . S
C2417 C2418 1.374 . S
C2418 C2389 1.387 . S
C2418 H2395 0.931 1_554 S
C2418 C2417 1.374 . S
C2419 O2403 1.249 . S
C2419 O2404 1.264 . S
C2420 C2423 1.382 . S
C2420 C2424 1.390 . S
C2420 C2427 1.506 . S
C2421 C2422 1.398 . S
C2421 C2424 1.392 . S
C2422 C2421 1.398 . S
C2422 C2425 1.372 . S
C2422 H2432 0.931 . S
C2423 C2420 1.382 . S
C2423 C2425 1.390 . S
C2423 H2433 0.931 . S
C2424 C2420 1.390 . S
C2424 C2421 1.392 . S
C2424 H2434 0.930 . S
C2425 C2422 1.372 . S
C2425 C2423 1.390 . S
C2425 H2435 0.929 . S
C2426 O2406 1.255 . S
C2426 O2407 1.257 . S
C2427 Eu2363 2.787 . S
C2427 O2402 1.252 . S
C2427 O2405 1.268 . S
C2427 C2420 1.506 . S
H2428 C2411 0.931 . S
H2429 C2412 0.931 . S
H2430 C2413 0.929 . S
H2431 C2414 0.930 . S
H2432 C2422 0.931 . S
H2433 C2423 0.931 . S
H2434 C2424 0.930 . S
H2435 C2425 0.929 . S
Eu2436 N2465 2.600 . S
Eu2436 N2471 2.562 . S
Eu2436 O2480 2.462 . S
Eu2436 O2481 2.373 . S
Eu2436 O2483 2.432 . S
Eu2436 O2484 2.291 . S
Eu2436 O2488 2.335 . S
Eu2436 O2491 2.372 . S
Eu2436 C2500 2.787 . S
C2437 N2438 1.365 . S
C2437 C2440 1.405 . S
C2437 C2444 1.448 . S
N2438 C2437 1.365 . S
N2438 C2441 1.319 . S
N2438 Eu2447 2.600 . S
C2439 C2441 1.397 . S
C2439 C2442 1.367 . S
C2439 H2459 0.931 . S
C2440 C2437 1.405 . S
C2440 C2442 1.403 . S
C2440 C2446 1.439 . S
C2441 N2438 1.319 . S
C2441 C2439 1.397 . S
C2441 H2452 0.930 . S
C2442 C2439 1.367 . S
C2442 C2440 1.403 . S
C2442 H2463 0.929 . S
C2443 C2444 1.430 . S
C2443 C2445 1.387 . S
C2443 C2449 1.404 . S
C2444 C2437 1.448 . S
C2444 C2443 1.430 . S
C2444 N2448 1.351 . S
C2445 C2443 1.387 . S
C2445 C2446 1.374 . S
C2445 H2460 0.931 . S
C2446 C2440 1.439 . S
C2446 C2445 1.374 . S
C2446 H2461 0.931 . S
Eu2447 N2438 2.600 . S
Eu2447 N2448 2.562 . S
Eu2447 O2482 2.335 . S
Eu2447 O2485 2.372 . S
Eu2447 O2486 2.462 . S
Eu2447 O2487 2.373 . S
Eu2447 O2489 2.432 . S
Eu2447 O2490 2.291 . S
Eu2447 C2511 2.787 . S
N2448 C2444 1.351 . S
N2448 Eu2447 2.562 . S
N2448 C2450 1.325 . S
C2449 C2443 1.404 . S
C2449 C2451 1.366 . S
C2449 H2457 0.930 . S
C2450 N2448 1.325 . S
C2450 C2451 1.416 . S
C2450 H2456 0.929 . S
C2451 C2449 1.366 . S
C2451 C2450 1.416 . S
C2451 H2453 0.930 . S
H2452 C2441 0.930 . S
H2453 C2451 0.930 . S
H2454 C2469 0.930 . S
H2455 C2476 0.930 1_556 S
H2456 C2450 0.929 . S
H2457 C2449 0.930 . S
H2458 C2472 0.929 . S
H2459 C2439 0.931 . S
H2460 C2445 0.931 . S
H2461 C2446 0.931 . S
H2462 C2467 0.931 . S
H2463 C2442 0.929 . S
H2464 C2475 0.930 1_556 S
N2465 Eu2436 2.600 . S
N2465 C2466 1.365 . S
N2465 C2469 1.319 . S
C2466 N2465 1.365 . S
C2466 C2468 1.405 . S
C2466 C2474 1.448 . S
C2467 H2462 0.931 . S
C2467 C2469 1.397 . S
C2467 C2470 1.367 . S
C2468 C2466 1.405 . S
C2468 C2470 1.403 . S
C2468 C2501 1.439 . S
C2469 H2454 0.930 . S
C2469 N2465 1.319 . S
C2469 C2467 1.397 . S
C2470 C2467 1.367 . S
C2470 C2468 1.403 . S
C2470 H2477 0.929 . S
N2471 Eu2436 2.562 . S
N2471 C2472 1.325 . S
N2471 C2474 1.351 . S
C2472 H2458 0.929 . S
C2472 N2471 1.325 . S
C2472 C2476 1.416 . S
C2473 C2474 1.430 . S
C2473 C2475 1.404 . S
C2473 C2502 1.387 . S
C2474 C2466 1.448 . S
C2474 N2471 1.351 . S
C2474 C2473 1.430 . S
C2475 H2464 0.930 1_554 S
C2475 C2473 1.404 . S
C2475 C2476 1.366 . S
C2476 H2455 0.930 1_554 S
C2476 C2472 1.416 . S
C2476 C2475 1.366 . S
H2477 C2470 0.929 . S
H2478 C2501 0.931 . S
H2479 C2502 0.931 1_556 S
O2480 Eu2436 2.462 . S
O2480 C2500 1.252 . S
O2481 Eu2436 2.373 . S
O2481 C2492 1.249 . S
O2482 Eu2447 2.335 . S
O2482 C2492 1.264 . S
O2483 Eu2436 2.432 . S
O2483 C2500 1.268 . S
O2484 Eu2436 2.291 . S
O2484 C2499 1.255 . S
O2485 Eu2447 2.372 . S
O2485 C2499 1.257 . S
O2486 Eu2447 2.462 . S
O2486 C2511 1.252 . S
O2487 Eu2447 2.373 . S
O2487 C2503 1.249 . S
O2488 Eu2436 2.335 . S
O2488 C2503 1.264 . S
O2489 Eu2447 2.432 . S
O2489 C2511 1.268 . S
O2490 Eu2447 2.291 . S
O2490 C2510 1.255 . S
O2491 Eu2436 2.372 . S
O2491 C2510 1.257 . S
C2492 O2481 1.249 . S
C2492 O2482 1.264 . S
C2493 C2496 1.382 . S
C2493 C2498 1.390 . S
C2493 C2500 1.506 . S
C2494 C2495 1.398 . S
C2494 C2498 1.392 . S
C2495 C2494 1.398 . S
C2495 C2497 1.372 . S
C2495 H2512 0.931 . S
C2496 C2493 1.382 . S
C2496 C2497 1.390 . S
C2496 H2513 0.931 . S
C2497 C2495 1.372 . S
C2497 C2496 1.390 . S
C2497 H2514 0.929 . S
C2498 C2493 1.390 . S
C2498 C2494 1.392 . S
C2498 H2515 0.930 . S
C2499 O2484 1.255 . S
C2499 O2485 1.257 . S
C2500 Eu2436 2.787 . S
C2500 O2480 1.252 . S
C2500 O2483 1.268 . S
C2500 C2493 1.506 . S
C2501 C2468 1.439 . S
C2501 H2478 0.931 . S
C2501 C2502 1.374 . S
C2502 C2473 1.387 . S
C2502 H2479 0.931 1_554 S
C2502 C2501 1.374 . S
C2503 O2487 1.249 . S
C2503 O2488 1.264 . S
C2504 C2507 1.382 . S
C2504 C2508 1.390 . S
C2504 C2511 1.506 . S
C2505 C2506 1.398 . S
C2505 C2508 1.392 . S
C2506 C2505 1.398 . S
C2506 C2509 1.372 . S
C2506 H2516 0.931 . S
C2507 C2504 1.382 . S
C2507 C2509 1.390 . S
C2507 H2517 0.931 . S
C2508 C2504 1.390 . S
C2508 C2505 1.392 . S
C2508 H2518 0.930 . S
C2509 C2506 1.372 . S
C2509 C2507 1.390 . S
C2509 H2519 0.929 . S
C2510 O2490 1.255 . S
C2510 O2491 1.257 . S
C2511 Eu2447 2.787 . S
C2511 O2486 1.252 . S
C2511 O2489 1.268 . S
C2511 C2504 1.506 . S
H2512 C2495 0.931 . S
H2513 C2496 0.931 . S
H2514 C2497 0.929 . S
H2515 C2498 0.930 . S
H2516 C2506 0.931 . S
H2517 C2507 0.931 . S
H2518 C2508 0.930 . S
H2519 C2509 0.929 . S
Eu2520 N2549 2.600 . S
Eu2520 N2555 2.562 . S
Eu2520 O2564 2.462 . S
Eu2520 O2565 2.373 . S
Eu2520 O2567 2.432 . S
Eu2520 O2568 2.291 . S
Eu2520 O2572 2.335 . S
Eu2520 O2575 2.372 . S
Eu2520 C2584 2.787 . S
C2521 N2522 1.365 . S
C2521 C2524 1.352 1_455 S
C2521 C2528 1.448 . S
N2522 C2521 1.365 . S
N2522 C2525 1.319 . S
N2522 Eu2531 2.600 . S
C2523 C2525 1.397 . S
C2523 C2526 1.367 1_455 S
C2523 H2543 0.931 . S
C2524 C2521 1.352 1_655 S
C2524 C2526 1.422 . S
C2524 C2530 1.473 . S
C2525 N2522 1.319 . S
C2525 C2523 1.397 . S
C2525 H2536 0.930 . S
C2526 C2523 1.367 1_655 S
C2526 C2524 1.422 . S
C2526 H2547 0.929 . S
C2527 C2528 1.430 . S
C2527 C2529 1.387 1_455 S
C2527 C2533 1.404 . S
C2528 C2521 1.448 . S
C2528 C2527 1.430 . S
C2528 N2532 1.351 . S
C2529 C2527 1.387 1_655 S
C2529 C2530 1.374 . S
C2529 H2544 0.931 . S
C2530 C2524 1.473 . S
C2530 C2529 1.374 . S
C2530 H2545 0.931 . S
Eu2531 N2522 2.600 . S
Eu2531 N2532 2.562 . S
Eu2531 O2566 2.335 . S
Eu2531 O2569 2.372 . S
Eu2531 O2570 2.462 . S
Eu2531 O2571 2.373 . S
Eu2531 O2573 2.432 . S
Eu2531 O2574 2.291 . S
Eu2531 C2595 2.787 . S
N2532 C2528 1.351 . S
N2532 Eu2531 2.562 . S
N2532 C2534 1.325 . S
C2533 C2527 1.404 . S
C2533 C2535 1.366 . S
C2533 H2541 0.930 . S
C2534 N2532 1.325 . S
C2534 C2535 1.416 . S
C2534 H2540 0.929 . S
C2535 C2533 1.366 . S
C2535 C2534 1.416 . S
C2535 H2537 0.930 . S
H2536 C2525 0.930 . S
H2537 C2535 0.930 . S
H2538 C2553 0.930 . S
H2539 C2560 0.930 . S
H2540 C2534 0.929 . S
H2541 C2533 0.930 . S
H2542 C2556 0.929 . S
H2543 C2523 0.931 . S
H2544 C2529 0.931 . S
H2545 C2530 0.931 . S
H2546 C2551 0.931 . S
H2547 C2526 0.929 . S
H2548 C2559 0.930 . S
N2549 Eu2520 2.600 . S
N2549 C2550 1.365 . S
N2549 C2553 1.319 . S
C2550 N2549 1.365 . S
C2550 C2552 1.405 . S
C2550 C2558 1.448 . S
C2551 H2546 0.931 . S
C2551 C2553 1.397 . S
C2551 C2554 1.367 . S
C2552 C2550 1.405 . S
C2552 C2554 1.403 . S
C2552 C2585 1.439 . S
C2553 H2538 0.930 . S
C2553 N2549 1.319 . S
C2553 C2551 1.397 . S
C2554 C2551 1.367 . S
C2554 C2552 1.403 . S
C2554 H2561 0.929 . S
N2555 Eu2520 2.562 . S
N2555 C2556 1.325 . S
N2555 C2558 1.351 . S
C2556 H2542 0.929 . S
C2556 N2555 1.325 . S
C2556 C2560 1.416 . S
C2557 C2558 1.430 . S
C2557 C2559 1.404 . S
C2557 C2586 1.387 . S
C2558 C2550 1.448 . S
C2558 N2555 1.351 . S
C2558 C2557 1.430 . S
C2559 H2548 0.930 . S
C2559 C2557 1.404 . S
C2559 C2560 1.366 . S
C2560 H2539 0.930 . S
C2560 C2556 1.416 . S
C2560 C2559 1.366 . S
H2561 C2554 0.929 . S
H2562 C2585 0.931 . S
H2563 C2586 0.931 . S
O2564 Eu2520 2.462 . S
O2564 C2584 1.252 . S
O2565 Eu2520 2.373 . S
O2565 C2576 1.249 . S
O2566 Eu2531 2.335 . S
O2566 C2576 1.264 . S
O2567 Eu2520 2.432 . S
O2567 C2584 1.268 . S
O2568 Eu2520 2.291 . S
O2568 C2583 1.255 . S
O2569 Eu2531 2.372 . S
O2569 C2583 1.257 . S
O2570 Eu2531 2.462 . S
O2570 C2595 1.252 . S
O2571 Eu2531 2.373 . S
O2571 C2587 1.249 . S
O2572 Eu2520 2.335 . S
O2572 C2587 1.264 . S
O2573 Eu2531 2.432 . S
O2573 C2595 1.268 . S
O2574 Eu2531 2.291 . S
O2574 C2594 1.255 . S
O2575 Eu2520 2.372 . S
O2575 C2594 1.257 . S
C2576 O2565 1.249 . S
C2576 O2566 1.264 . S
C2577 C2580 1.382 . S
C2577 C2582 1.390 . S
C2577 C2584 1.506 . S
C2578 C2579 1.398 . S
C2578 C2582 1.392 . S
C2579 C2578 1.398 . S
C2579 C2581 1.372 . S
C2579 H2596 0.931 . S
C2580 C2577 1.382 . S
C2580 C2581 1.390 . S
C2580 H2597 0.931 . S
C2581 C2579 1.372 . S
C2581 C2580 1.390 . S
C2581 H2598 0.929 . S
C2582 C2577 1.390 . S
C2582 C2578 1.392 . S
C2582 H2599 0.930 . S
C2583 O2568 1.255 . S
C2583 O2569 1.257 . S
C2584 Eu2520 2.787 . S
C2584 O2564 1.252 . S
C2584 O2567 1.268 . S
C2584 C2577 1.506 . S
C2585 C2552 1.439 . S
C2585 H2562 0.931 . S
C2585 C2586 1.374 . S
C2586 C2557 1.387 . S
C2586 H2563 0.931 . S
C2586 C2585 1.374 . S
C2587 O2571 1.249 . S
C2587 O2572 1.264 . S
C2588 C2591 1.382 . S
C2588 C2592 1.390 . S
C2588 C2595 1.506 . S
C2589 C2590 1.398 . S
C2589 C2592 1.392 . S
C2590 C2589 1.398 . S
C2590 C2593 1.372 . S
C2590 H2600 0.931 . S
C2591 C2588 1.382 . S
C2591 C2593 1.390 . S
C2591 H2601 0.931 . S
C2592 C2588 1.390 . S
C2592 C2589 1.392 . S
C2592 H2602 0.930 . S
C2593 C2590 1.372 . S
C2593 C2591 1.390 . S
C2593 H2603 0.929 . S
C2594 O2574 1.255 . S
C2594 O2575 1.257 . S
C2595 Eu2531 2.787 . S
C2595 O2570 1.252 . S
C2595 O2573 1.268 . S
C2595 C2588 1.506 . S
H2596 C2579 0.931 . S
H2597 C2580 0.931 . S
H2598 C2581 0.929 . S
H2599 C2582 0.930 . S
H2600 C2590 0.931 . S
H2601 C2591 0.931 . S
H2602 C2592 0.930 . S
H2603 C2593 0.929 . S
Eu2604 N2633 2.600 . S
Eu2604 N2639 2.562 . S
Eu2604 O2648 2.462 . S
Eu2604 O2649 2.373 . S
Eu2604 O2651 2.432 . S
Eu2604 O2652 2.291 . S
Eu2604 O2656 2.335 . S
Eu2604 O2659 2.372 . S
Eu2604 C2668 2.787 . S
C2605 N2606 1.365 . S
C2605 C2608 1.405 . S
C2605 C2612 1.448 . S
N2606 C2605 1.365 . S
N2606 C2609 1.319 . S
N2606 Eu2615 2.600 . S
C2607 C2609 1.397 . S
C2607 C2610 1.367 . S
C2607 H2627 0.931 . S
C2608 C2605 1.405 . S
C2608 C2610 1.403 . S
C2608 C2614 1.439 . S
C2609 N2606 1.319 . S
C2609 C2607 1.397 . S
C2609 H2620 0.930 . S
C2610 C2607 1.367 . S
C2610 C2608 1.403 . S
C2610 H2631 0.929 . S
C2611 C2612 1.430 . S
C2611 C2613 1.387 . S
C2611 C2617 1.404 . S
C2612 C2605 1.448 . S
C2612 C2611 1.430 . S
C2612 N2616 1.351 . S
C2613 C2611 1.387 . S
C2613 C2614 1.374 . S
C2613 H2628 0.931 . S
C2614 C2608 1.439 . S
C2614 C2613 1.374 . S
C2614 H2629 0.931 . S
Eu2615 N2606 2.600 . S
Eu2615 N2616 2.562 . S
Eu2615 O2650 2.335 . S
Eu2615 O2653 2.372 . S
Eu2615 O2654 2.462 . S
Eu2615 O2655 2.373 . S
Eu2615 O2657 2.432 . S
Eu2615 O2658 2.291 . S
Eu2615 C2679 2.787 . S
N2616 C2612 1.351 . S
N2616 Eu2615 2.562 . S
N2616 C2618 1.325 . S
C2617 C2611 1.404 . S
C2617 C2619 1.366 . S
C2617 H2625 0.930 . S
C2618 N2616 1.325 . S
C2618 C2619 1.416 . S
C2618 H2624 0.929 . S
C2619 C2617 1.366 . S
C2619 C2618 1.416 . S
C2619 H2621 0.930 . S
H2620 C2609 0.930 . S
H2621 C2619 0.930 . S
H2622 C2637 0.930 . S
H2623 C2644 0.930 . S
H2624 C2618 0.929 . S
H2625 C2617 0.930 . S
H2626 C2640 0.929 . S
H2627 C2607 0.931 . S
H2628 C2613 0.931 . S
H2629 C2614 0.931 . S
H2630 C2635 0.931 . S
H2631 C2610 0.929 . S
H2632 C2643 0.930 . S
N2633 Eu2604 2.600 . S
N2633 C2634 1.365 . S
N2633 C2637 1.319 . S
C2634 N2633 1.365 . S
C2634 C2636 1.405 . S
C2634 C2642 1.448 . S
C2635 H2630 0.931 . S
C2635 C2637 1.397 . S
C2635 C2638 1.367 . S
C2636 C2634 1.405 . S
C2636 C2638 1.403 . S
C2636 C2669 1.439 . S
C2637 H2622 0.930 . S
C2637 N2633 1.319 . S
C2637 C2635 1.397 . S
C2638 C2635 1.367 . S
C2638 C2636 1.403 . S
C2638 H2645 0.929 . S
N2639 Eu2604 2.562 . S
N2639 C2640 1.325 . S
N2639 C2642 1.351 . S
C2640 H2626 0.929 . S
C2640 N2639 1.325 . S
C2640 C2644 1.416 . S
C2641 C2642 1.430 . S
C2641 C2643 1.404 . S
C2641 C2670 1.387 . S
C2642 C2634 1.448 . S
C2642 N2639 1.351 . S
C2642 C2641 1.430 . S
C2643 H2632 0.930 . S
C2643 C2641 1.404 . S
C2643 C2644 1.366 . S
C2644 H2623 0.930 . S
C2644 C2640 1.416 . S
C2644 C2643 1.366 . S
H2645 C2638 0.929 . S
H2646 C2669 0.931 . S
H2647 C2670 0.931 . S
O2648 Eu2604 2.462 . S
O2648 C2668 1.252 . S
O2649 Eu2604 2.373 . S
O2649 C2660 1.249 . S
O2650 Eu2615 2.335 . S
O2650 C2660 1.264 . S
O2651 Eu2604 2.432 . S
O2651 C2668 1.268 . S
O2652 Eu2604 2.291 . S
O2652 C2667 1.255 . S
O2653 Eu2615 2.372 . S
O2653 C2667 1.257 . S
O2654 Eu2615 2.462 . S
O2654 C2679 1.252 . S
O2655 Eu2615 2.373 . S
O2655 C2671 1.249 . S
O2656 Eu2604 2.335 . S
O2656 C2671 1.264 . S
O2657 Eu2615 2.432 . S
O2657 C2679 1.268 . S
O2658 Eu2615 2.291 . S
O2658 C2678 1.255 . S
O2659 Eu2604 2.372 . S
O2659 C2678 1.257 . S
C2660 O2649 1.249 . S
C2660 O2650 1.264 . S
C2661 C2664 1.382 . S
C2661 C2666 1.390 . S
C2661 C2668 1.506 . S
C2662 C2663 1.398 . S
C2662 C2666 1.392 . S
C2663 C2662 1.398 . S
C2663 C2665 1.372 . S
C2663 H2680 0.931 . S
C2664 C2661 1.382 . S
C2664 C2665 1.390 . S
C2664 H2681 0.931 . S
C2665 C2663 1.372 . S
C2665 C2664 1.390 . S
C2665 H2682 0.929 . S
C2666 C2661 1.390 . S
C2666 C2662 1.392 . S
C2666 H2683 0.930 . S
C2667 O2652 1.255 . S
C2667 O2653 1.257 . S
C2668 Eu2604 2.787 . S
C2668 O2648 1.252 . S
C2668 O2651 1.268 . S
C2668 C2661 1.506 . S
C2669 C2636 1.439 . S
C2669 H2646 0.931 . S
C2669 C2670 1.374 . S
C2670 C2641 1.387 . S
C2670 H2647 0.931 . S
C2670 C2669 1.374 . S
C2671 O2655 1.249 . S
C2671 O2656 1.264 . S
C2672 C2675 1.382 . S
C2672 C2676 1.390 . S
C2672 C2679 1.506 . S
C2673 C2674 1.398 . S
C2673 C2676 1.392 . S
C2674 C2673 1.398 . S
C2674 C2677 1.372 . S
C2674 H2684 0.931 . S
C2675 C2672 1.382 . S
C2675 C2677 1.390 . S
C2675 H2685 0.931 . S
C2676 C2672 1.390 . S
C2676 C2673 1.392 . S
C2676 H2686 0.930 . S
C2677 C2674 1.372 . S
C2677 C2675 1.390 . S
C2677 H2687 0.929 . S
C2678 O2658 1.255 . S
C2678 O2659 1.257 . S
C2679 Eu2615 2.787 . S
C2679 O2654 1.252 . S
C2679 O2657 1.268 . S
C2679 C2672 1.506 . S
H2680 C2663 0.931 . S
H2681 C2664 0.931 . S
H2682 C2665 0.929 . S
H2683 C2666 0.930 . S
H2684 C2674 0.931 . S
H2685 C2675 0.931 . S
H2686 C2676 0.930 . S
H2687 C2677 0.929 . S
Eu2688 N2717 2.600 . S
Eu2688 N2723 2.562 . S
Eu2688 O2732 2.462 . S
Eu2688 O2733 2.373 . S
Eu2688 O2735 2.432 . S
Eu2688 O2736 2.291 . S
Eu2688 O2740 2.335 . S
Eu2688 O2743 2.372 . S
Eu2688 C2752 2.787 . S
C2689 N2690 1.365 . S
C2689 C2692 1.367 1_565 S
C2689 C2696 1.448 . S
N2690 C2689 1.365 . S
N2690 C2693 1.319 . S
N2690 Eu2699 2.600 . S
C2691 C2693 1.397 . S
C2691 C2694 1.367 1_565 S
C2691 H2711 0.931 . S
C2692 C2689 1.367 1_545 S
C2692 C2694 1.416 . S
C2692 C2698 1.467 . S
C2693 N2690 1.319 . S
C2693 C2691 1.397 . S
C2693 H2704 0.930 . S
C2694 C2691 1.367 1_545 S
C2694 C2692 1.416 . S
C2694 H2715 0.929 . S
C2695 C2696 1.430 . S
C2695 C2697 1.387 1_565 S
C2695 C2701 1.404 . S
C2696 C2689 1.448 . S
C2696 C2695 1.430 . S
C2696 N2700 1.351 . S
C2697 C2695 1.387 1_545 S
C2697 C2698 1.374 . S
C2697 H2712 0.931 . S
C2698 C2692 1.467 . S
C2698 C2697 1.374 . S
C2698 H2713 0.931 . S
Eu2699 N2690 2.600 . S
Eu2699 N2700 2.562 . S
Eu2699 O2734 2.335 . S
Eu2699 O2737 2.372 . S
Eu2699 O2738 2.462 . S
Eu2699 O2739 2.373 . S
Eu2699 O2741 2.432 . S
Eu2699 O2742 2.291 . S
Eu2699 C2763 2.787 . S
N2700 C2696 1.351 . S
N2700 Eu2699 2.562 . S
N2700 C2702 1.325 . S
C2701 C2695 1.404 . S
C2701 C2703 1.366 . S
C2701 H2709 0.930 . S
C2702 N2700 1.325 . S
C2702 C2703 1.416 . S
C2702 H2708 0.929 . S
C2703 C2701 1.366 . S
C2703 C2702 1.416 . S
C2703 H2705 0.930 . S
H2704 C2693 0.930 . S
H2705 C2703 0.930 . S
H2706 C2721 0.930 . S
H2707 C2728 0.930 . S
H2708 C2702 0.929 . S
H2709 C2701 0.930 . S
H2710 C2724 0.929 . S
H2711 C2691 0.931 . S
H2712 C2697 0.931 . S
H2713 C2698 0.931 . S
H2714 C2719 0.931 . S
H2715 C2694 0.929 . S
H2716 C2727 0.930 . S
N2717 Eu2688 2.600 . S
N2717 C2718 1.365 . S
N2717 C2721 1.319 . S
C2718 N2717 1.365 . S
C2718 C2720 1.405 . S
C2718 C2726 1.448 . S
C2719 H2714 0.931 . S
C2719 C2721 1.397 . S
C2719 C2722 1.367 . S
C2720 C2718 1.405 . S
C2720 C2722 1.403 . S
C2720 C2753 1.439 . S
C2721 H2706 0.930 . S
C2721 N2717 1.319 . S
C2721 C2719 1.397 . S
C2722 C2719 1.367 . S
C2722 C2720 1.403 . S
C2722 H2729 0.929 . S
N2723 Eu2688 2.562 . S
N2723 C2724 1.325 . S
N2723 C2726 1.351 . S
C2724 H2710 0.929 . S
C2724 N2723 1.325 . S
C2724 C2728 1.416 . S
C2725 C2726 1.430 . S
C2725 C2727 1.404 . S
C2725 C2754 1.387 . S
C2726 C2718 1.448 . S
C2726 N2723 1.351 . S
C2726 C2725 1.430 . S
C2727 H2716 0.930 . S
C2727 C2725 1.404 . S
C2727 C2728 1.366 . S
C2728 H2707 0.930 . S
C2728 C2724 1.416 . S
C2728 C2727 1.366 . S
H2729 C2722 0.929 . S
H2730 C2753 0.931 . S
H2731 C2754 0.931 . S
O2732 Eu2688 2.462 . S
O2732 C2752 1.252 . S
O2733 Eu2688 2.373 . S
O2733 C2744 1.249 . S
O2734 Eu2699 2.335 . S
O2734 C2744 1.264 . S
O2735 Eu2688 2.432 . S
O2735 C2752 1.268 . S
O2736 Eu2688 2.291 . S
O2736 C2751 1.255 . S
O2737 Eu2699 2.372 . S
O2737 C2751 1.257 . S
O2738 Eu2699 2.462 . S
O2738 C2763 1.252 . S
O2739 Eu2699 2.373 . S
O2739 C2755 1.249 . S
O2740 Eu2688 2.335 . S
O2740 C2755 1.264 . S
O2741 Eu2699 2.432 . S
O2741 C2763 1.268 . S
O2742 Eu2699 2.291 . S
O2742 C2762 1.255 . S
O2743 Eu2688 2.372 . S
O2743 C2762 1.257 . S
C2744 O2733 1.249 . S
C2744 O2734 1.264 . S
C2745 C2748 1.382 . S
C2745 C2750 1.390 . S
C2745 C2752 1.506 . S
C2746 C2747 1.398 . S
C2746 C2750 1.392 . S
C2747 C2746 1.398 . S
C2747 C2749 1.372 . S
C2747 H2764 0.931 . S
C2748 C2745 1.382 . S
C2748 C2749 1.390 . S
C2748 H2765 0.931 . S
C2749 C2747 1.372 . S
C2749 C2748 1.390 . S
C2749 H2766 0.929 . S
C2750 C2745 1.390 . S
C2750 C2746 1.392 . S
C2750 H2767 0.930 . S
C2751 O2736 1.255 . S
C2751 O2737 1.257 . S
C2752 Eu2688 2.787 . S
C2752 O2732 1.252 . S
C2752 O2735 1.268 . S
C2752 C2745 1.506 . S
C2753 C2720 1.439 . S
C2753 H2730 0.931 . S
C2753 C2754 1.374 . S
C2754 C2725 1.387 . S
C2754 H2731 0.931 . S
C2754 C2753 1.374 . S
C2755 O2739 1.249 . S
C2755 O2740 1.264 . S
C2756 C2759 1.382 . S
C2756 C2760 1.390 . S
C2756 C2763 1.506 . S
C2757 C2758 1.398 . S
C2757 C2760 1.392 . S
C2758 C2757 1.398 . S
C2758 C2761 1.372 . S
C2758 H2768 0.931 . S
C2759 C2756 1.382 . S
C2759 C2761 1.390 . S
C2759 H2769 0.931 . S
C2760 C2756 1.390 . S
C2760 C2757 1.392 . S
C2760 H2770 0.930 . S
C2761 C2758 1.372 . S
C2761 C2759 1.390 . S
C2761 H2771 0.929 . S
C2762 O2742 1.255 . S
C2762 O2743 1.257 . S
C2763 Eu2699 2.787 . S
C2763 O2738 1.252 . S
C2763 O2741 1.268 . S
C2763 C2756 1.506 . S
H2764 C2747 0.931 . S
H2765 C2748 0.931 . S
H2766 C2749 0.929 . S
H2767 C2750 0.930 . S
H2768 C2758 0.931 . S
H2769 C2759 0.931 . S
H2770 C2760 0.930 . S
H2771 C2761 0.929 . S
Eu2772 N2801 2.600 . S
Eu2772 N2807 2.562 . S
Eu2772 O2816 2.462 . S
Eu2772 O2817 2.373 . S
Eu2772 O2819 2.432 . S
Eu2772 O2820 2.291 . S
Eu2772 O2824 2.335 . S
Eu2772 O2827 2.372 . S
Eu2772 C2836 2.787 . S
C2773 N2774 1.365 . S
C2773 C2776 1.405 . S
C2773 C2780 1.448 . S
N2774 C2773 1.365 . S
N2774 C2777 1.319 . S
N2774 Eu2783 2.600 . S
C2775 C2777 1.397 . S
C2775 C2778 1.367 . S
C2775 H2795 0.931 . S
C2776 C2773 1.405 . S
C2776 C2778 1.403 . S
C2776 C2782 1.439 . S
C2777 N2774 1.319 . S
C2777 C2775 1.397 . S
C2777 H2788 0.930 . S
C2778 C2775 1.367 . S
C2778 C2776 1.403 . S
C2778 H2799 0.929 . S
C2779 C2780 1.430 . S
C2779 C2781 1.387 . S
C2779 C2785 1.404 . S
C2780 C2773 1.448 . S
C2780 C2779 1.430 . S
C2780 N2784 1.351 . S
C2781 C2779 1.387 . S
C2781 C2782 1.374 . S
C2781 H2796 0.931 . S
C2782 C2776 1.439 . S
C2782 C2781 1.374 . S
C2782 H2797 0.931 . S
Eu2783 N2774 2.600 . S
Eu2783 N2784 2.562 . S
Eu2783 O2818 2.335 . S
Eu2783 O2821 2.372 . S
Eu2783 O2822 2.462 . S
Eu2783 O2823 2.373 . S
Eu2783 O2825 2.432 . S
Eu2783 O2826 2.291 . S
Eu2783 C2847 2.787 . S
N2784 C2780 1.351 . S
N2784 Eu2783 2.562 . S
N2784 C2786 1.325 . S
C2785 C2779 1.404 . S
C2785 C2787 1.366 . S
C2785 H2793 0.930 . S
C2786 N2784 1.325 . S
C2786 C2787 1.416 . S
C2786 H2792 0.929 . S
C2787 C2785 1.366 . S
C2787 C2786 1.416 . S
C2787 H2789 0.930 . S
H2788 C2777 0.930 . S
H2789 C2787 0.930 . S
H2790 C2805 0.930 . S
H2791 C2812 0.930 . S
H2792 C2786 0.929 . S
H2793 C2785 0.930 . S
H2794 C2808 0.929 . S
H2795 C2775 0.931 . S
H2796 C2781 0.931 . S
H2797 C2782 0.931 . S
H2798 C2803 0.931 . S
H2799 C2778 0.929 . S
H2800 C2811 0.930 . S
N2801 Eu2772 2.600 . S
N2801 C2802 1.365 . S
N2801 C2805 1.319 . S
C2802 N2801 1.365 . S
C2802 C2804 1.405 . S
C2802 C2810 1.448 . S
C2803 H2798 0.931 . S
C2803 C2805 1.397 . S
C2803 C2806 1.367 . S
C2804 C2802 1.405 . S
C2804 C2806 1.403 . S
C2804 C2837 1.439 . S
C2805 H2790 0.930 . S
C2805 N2801 1.319 . S
C2805 C2803 1.397 . S
C2806 C2803 1.367 . S
C2806 C2804 1.403 . S
C2806 H2813 0.929 . S
N2807 Eu2772 2.562 . S
N2807 C2808 1.325 . S
N2807 C2810 1.351 . S
C2808 H2794 0.929 . S
C2808 N2807 1.325 . S
C2808 C2812 1.416 . S
C2809 C2810 1.430 . S
C2809 C2811 1.404 . S
C2809 C2838 1.387 . S
C2810 C2802 1.448 . S
C2810 N2807 1.351 . S
C2810 C2809 1.430 . S
C2811 H2800 0.930 . S
C2811 C2809 1.404 . S
C2811 C2812 1.366 . S
C2812 H2791 0.930 . S
C2812 C2808 1.416 . S
C2812 C2811 1.366 . S
H2813 C2806 0.929 . S
H2814 C2837 0.931 . S
H2815 C2838 0.931 . S
O2816 Eu2772 2.462 . S
O2816 C2836 1.252 . S
O2817 Eu2772 2.373 . S
O2817 C2828 1.249 . S
O2818 Eu2783 2.335 . S
O2818 C2828 1.264 . S
O2819 Eu2772 2.432 . S
O2819 C2836 1.268 . S
O2820 Eu2772 2.291 . S
O2820 C2835 1.255 . S
O2821 Eu2783 2.372 . S
O2821 C2835 1.257 . S
O2822 Eu2783 2.462 . S
O2822 C2847 1.252 . S
O2823 Eu2783 2.373 . S
O2823 C2839 1.249 . S
O2824 Eu2772 2.335 . S
O2824 C2839 1.264 . S
O2825 Eu2783 2.432 . S
O2825 C2847 1.268 . S
O2826 Eu2783 2.291 . S
O2826 C2846 1.255 . S
O2827 Eu2772 2.372 . S
O2827 C2846 1.257 . S
C2828 O2817 1.249 . S
C2828 O2818 1.264 . S
C2829 C2832 1.382 . S
C2829 C2834 1.390 . S
C2829 C2836 1.506 . S
C2830 C2831 1.398 . S
C2830 C2834 1.392 . S
C2831 C2830 1.398 . S
C2831 C2833 1.372 . S
C2831 H2848 0.931 . S
C2832 C2829 1.382 . S
C2832 C2833 1.390 . S
C2832 H2849 0.931 . S
C2833 C2831 1.372 . S
C2833 C2832 1.390 . S
C2833 H2850 0.929 . S
C2834 C2829 1.390 . S
C2834 C2830 1.392 . S
C2834 H2851 0.930 . S
C2835 O2820 1.255 . S
C2835 O2821 1.257 . S
C2836 Eu2772 2.787 . S
C2836 O2816 1.252 . S
C2836 O2819 1.268 . S
C2836 C2829 1.506 . S
C2837 C2804 1.439 . S
C2837 H2814 0.931 . S
C2837 C2838 1.374 . S
C2838 C2809 1.387 . S
C2838 H2815 0.931 . S
C2838 C2837 1.374 . S
C2839 O2823 1.249 . S
C2839 O2824 1.264 . S
C2840 C2843 1.382 . S
C2840 C2844 1.390 . S
C2840 C2847 1.506 . S
C2841 C2842 1.398 . S
C2841 C2844 1.392 . S
C2842 C2841 1.398 . S
C2842 C2845 1.372 . S
C2842 H2852 0.931 . S
C2843 C2840 1.382 . S
C2843 C2845 1.390 . S
C2843 H2853 0.931 . S
C2844 C2840 1.390 . S
C2844 C2841 1.392 . S
C2844 H2854 0.930 . S
C2845 C2842 1.372 . S
C2845 C2843 1.390 . S
C2845 H2855 0.929 . S
C2846 O2826 1.255 . S
C2846 O2827 1.257 . S
C2847 Eu2783 2.787 . S
C2847 O2822 1.252 . S
C2847 O2825 1.268 . S
C2847 C2840 1.506 . S
H2848 C2831 0.931 . S
H2849 C2832 0.931 . S
H2850 C2833 0.929 . S
H2851 C2834 0.930 . S
H2852 C2842 0.931 . S
H2853 C2843 0.931 . S
H2854 C2844 0.930 . S
H2855 C2845 0.929 . S
Eu2856 N2885 2.600 . S
Eu2856 N2891 2.562 . S
Eu2856 O2900 2.462 . S
Eu2856 O2901 2.373 . S
Eu2856 O2903 2.432 . S
Eu2856 O2904 2.291 . S
Eu2856 O2908 2.335 . S
Eu2856 O2911 2.372 . S
Eu2856 C2920 2.787 . S
C2857 N2858 1.365 . S
C2857 C2860 1.405 . S
C2857 C2864 1.448 . S
N2858 C2857 1.365 . S
N2858 C2861 1.319 . S
N2858 Eu2867 2.600 . S
C2859 C2861 1.397 . S
C2859 C2862 1.367 . S
C2859 H2879 0.931 . S
C2860 C2857 1.405 . S
C2860 C2862 1.403 . S
C2860 C2866 1.439 . S
C2861 N2858 1.319 . S
C2861 C2859 1.397 . S
C2861 H2872 0.930 . S
C2862 C2859 1.367 . S
C2862 C2860 1.403 . S
C2862 H2883 0.929 . S
C2863 C2864 1.430 . S
C2863 C2865 1.387 . S
C2863 C2869 1.404 . S
C2864 C2857 1.448 . S
C2864 C2863 1.430 . S
C2864 N2868 1.351 . S
C2865 C2863 1.387 . S
C2865 C2866 1.374 . S
C2865 H2880 0.931 . S
C2866 C2860 1.439 . S
C2866 C2865 1.374 . S
C2866 H2881 0.931 . S
Eu2867 N2858 2.600 . S
Eu2867 N2868 2.562 . S
Eu2867 O2902 2.335 . S
Eu2867 O2905 2.372 . S
Eu2867 O2906 2.462 . S
Eu2867 O2907 2.373 . S
Eu2867 O2909 2.432 . S
Eu2867 O2910 2.291 . S
Eu2867 C2931 2.787 . S
N2868 C2864 1.351 . S
N2868 Eu2867 2.562 . S
N2868 C2870 1.325 . S
C2869 C2863 1.404 . S
C2869 C2871 1.366 . S
C2869 H2877 0.930 . S
C2870 N2868 1.325 . S
C2870 C2871 1.416 . S
C2870 H2876 0.929 . S
C2871 C2869 1.366 . S
C2871 C2870 1.416 . S
C2871 H2873 0.930 . S
H2872 C2861 0.930 . S
H2873 C2871 0.930 . S
H2874 C2889 0.930 . S
H2875 C2896 0.930 . S
H2876 C2870 0.929 . S
H2877 C2869 0.930 . S
H2878 C2892 0.929 . S
H2879 C2859 0.931 . S
H2880 C2865 0.931 . S
H2881 C2866 0.931 . S
H2882 C2887 0.931 . S
H2883 C2862 0.929 . S
H2884 C2895 0.930 . S
N2885 Eu2856 2.600 . S
N2885 C2886 1.365 . S
N2885 C2889 1.319 . S
C2886 N2885 1.365 . S
C2886 C2888 1.405 . S
C2886 C2894 1.448 . S
C2887 H2882 0.931 . S
C2887 C2889 1.397 . S
C2887 C2890 1.367 . S
C2888 C2886 1.405 . S
C2888 C2890 1.403 . S
C2888 C2921 1.439 . S
C2889 H2874 0.930 . S
C2889 N2885 1.319 . S
C2889 C2887 1.397 . S
C2890 C2887 1.367 . S
C2890 C2888 1.403 . S
C2890 H2897 0.929 . S
N2891 Eu2856 2.562 . S
N2891 C2892 1.325 . S
N2891 C2894 1.351 . S
C2892 H2878 0.929 . S
C2892 N2891 1.325 . S
C2892 C2896 1.416 . S
C2893 C2894 1.430 . S
C2893 C2895 1.404 . S
C2893 C2922 1.387 . S
C2894 C2886 1.448 . S
C2894 N2891 1.351 . S
C2894 C2893 1.430 . S
C2895 H2884 0.930 . S
C2895 C2893 1.404 . S
C2895 C2896 1.366 . S
C2896 H2875 0.930 . S
C2896 C2892 1.416 . S
C2896 C2895 1.366 . S
H2897 C2890 0.929 . S
H2898 C2921 0.931 . S
H2899 C2922 0.931 . S
O2900 Eu2856 2.462 . S
O2900 C2920 1.252 . S
O2901 Eu2856 2.373 . S
O2901 C2912 1.249 . S
O2902 Eu2867 2.335 . S
O2902 C2912 1.264 . S
O2903 Eu2856 2.432 . S
O2903 C2920 1.268 . S
O2904 Eu2856 2.291 . S
O2904 C2919 1.255 . S
O2905 Eu2867 2.372 . S
O2905 C2919 1.257 . S
O2906 Eu2867 2.462 . S
O2906 C2931 1.252 . S
O2907 Eu2867 2.373 . S
O2907 C2923 1.249 . S
O2908 Eu2856 2.335 . S
O2908 C2923 1.264 . S
O2909 Eu2867 2.432 . S
O2909 C2931 1.268 . S
O2910 Eu2867 2.291 . S
O2910 C2930 1.255 . S
O2911 Eu2856 2.372 . S
O2911 C2930 1.257 . S
C2912 O2901 1.249 . S
C2912 O2902 1.264 . S
C2913 C2916 1.382 . S
C2913 C2918 1.390 . S
C2913 C2920 1.506 . S
C2914 C2915 1.398 . S
C2914 C2918 1.392 . S
C2915 C2914 1.398 . S
C2915 C2917 1.372 . S
C2915 H2932 0.931 . S
C2916 C2913 1.382 . S
C2916 C2917 1.390 . S
C2916 H2933 0.931 . S
C2917 C2915 1.372 . S
C2917 C2916 1.390 . S
C2917 H2934 0.929 . S
C2918 C2913 1.390 . S
C2918 C2914 1.392 . S
C2918 H2935 0.930 . S
C2919 O2904 1.255 . S
C2919 O2905 1.257 . S
C2920 Eu2856 2.787 . S
C2920 O2900 1.252 . S
C2920 O2903 1.268 . S
C2920 C2913 1.506 . S
C2921 C2888 1.439 . S
C2921 H2898 0.931 . S
C2921 C2922 1.374 . S
C2922 C2893 1.387 . S
C2922 H2899 0.931 . S
C2922 C2921 1.374 . S
C2923 O2907 1.249 . S
C2923 O2908 1.264 . S
C2924 C2927 1.382 . S
C2924 C2928 1.390 . S
C2924 C2931 1.506 . S
C2925 C2926 1.398 . S
C2925 C2928 1.392 . S
C2926 C2925 1.398 . S
C2926 C2929 1.372 . S
C2926 H2936 0.931 . S
C2927 C2924 1.382 . S
C2927 C2929 1.390 . S
C2927 H2937 0.931 . S
C2928 C2924 1.390 . S
C2928 C2925 1.392 . S
C2928 H2938 0.930 . S
C2929 C2926 1.372 . S
C2929 C2927 1.390 . S
C2929 H2939 0.929 . S
C2930 O2910 1.255 . S
C2930 O2911 1.257 . S
C2931 Eu2867 2.787 . S
C2931 O2906 1.252 . S
C2931 O2909 1.268 . S
C2931 C2924 1.506 . S
H2932 C2915 0.931 . S
H2933 C2916 0.931 . S
H2934 C2917 0.929 . S
H2935 C2918 0.930 . S
H2936 C2926 0.931 . S
H2937 C2927 0.931 . S
H2938 C2928 0.930 . S
H2939 C2929 0.929 . S
Eu2940 N2969 2.600 . S
Eu2940 N2975 2.562 . S
Eu2940 O2984 2.462 . S
Eu2940 O2985 2.373 . S
Eu2940 O2987 2.432 . S
Eu2940 O2988 2.291 . S
Eu2940 O2992 2.335 . S
Eu2940 O2995 2.372 . S
Eu2940 C3004 2.787 . S
C2941 N2942 1.365 . S
C2941 C2944 1.405 . S
C2941 C2948 1.448 . S
N2942 C2941 1.365 . S
N2942 C2945 1.319 . S
N2942 Eu2951 2.600 . S
C2943 C2945 1.397 . S
C2943 C2946 1.367 . S
C2943 H2963 0.931 . S
C2944 C2941 1.405 . S
C2944 C2946 1.403 . S
C2944 C2950 1.439 . S
C2945 N2942 1.319 . S
C2945 C2943 1.397 . S
C2945 H2956 0.930 . S
C2946 C2943 1.367 . S
C2946 C2944 1.403 . S
C2946 H2967 0.929 . S
C2947 C2948 1.430 . S
C2947 C2949 1.387 . S
C2947 C2953 1.404 . S
C2948 C2941 1.448 . S
C2948 C2947 1.430 . S
C2948 N2952 1.351 . S
C2949 C2947 1.387 . S
C2949 C2950 1.374 . S
C2949 H2964 0.931 . S
C2950 C2944 1.439 . S
C2950 C2949 1.374 . S
C2950 H2965 0.931 . S
Eu2951 N2942 2.600 . S
Eu2951 N2952 2.562 . S
Eu2951 O2986 2.335 . S
Eu2951 O2989 2.372 . S
Eu2951 O2990 2.462 . S
Eu2951 O2991 2.373 . S
Eu2951 O2993 2.432 . S
Eu2951 O2994 2.291 . S
Eu2951 C3015 2.787 . S
N2952 C2948 1.351 . S
N2952 Eu2951 2.562 . S
N2952 C2954 1.325 . S
C2953 C2947 1.404 . S
C2953 C2955 1.366 . S
C2953 H2961 0.930 . S
C2954 N2952 1.325 . S
C2954 C2955 1.416 . S
C2954 H2960 0.929 . S
C2955 C2953 1.366 . S
C2955 C2954 1.416 . S
C2955 H2957 0.930 . S
H2956 C2945 0.930 . S
H2957 C2955 0.930 . S
H2958 C2973 0.930 . S
H2959 C2980 0.930 . S
H2960 C2954 0.929 . S
H2961 C2953 0.930 . S
H2962 C2976 0.929 . S
H2963 C2943 0.931 . S
H2964 C2949 0.931 . S
H2965 C2950 0.931 . S
H2966 C2971 0.931 . S
H2967 C2946 0.929 . S
H2968 C2979 0.930 . S
N2969 Eu2940 2.600 . S
N2969 C2970 1.365 . S
N2969 C2973 1.319 . S
C2970 N2969 1.365 . S
C2970 C2972 1.405 . S
C2970 C2978 1.448 . S
C2971 H2966 0.931 . S
C2971 C2973 1.397 . S
C2971 C2974 1.367 . S
C2972 C2970 1.405 . S
C2972 C2974 1.403 . S
C2972 C3005 1.439 . S
C2973 H2958 0.930 . S
C2973 N2969 1.319 . S
C2973 C2971 1.397 . S
C2974 C2971 1.367 . S
C2974 C2972 1.403 . S
C2974 H2981 0.929 . S
N2975 Eu2940 2.562 . S
N2975 C2976 1.325 . S
N2975 C2978 1.351 . S
C2976 H2962 0.929 . S
C2976 N2975 1.325 . S
C2976 C2980 1.416 . S
C2977 C2978 1.430 . S
C2977 C2979 1.404 . S
C2977 C3006 1.387 . S
C2978 C2970 1.448 . S
C2978 N2975 1.351 . S
C2978 C2977 1.430 . S
C2979 H2968 0.930 . S
C2979 C2977 1.404 . S
C2979 C2980 1.366 . S
C2980 H2959 0.930 . S
C2980 C2976 1.416 . S
C2980 C2979 1.366 . S
H2981 C2974 0.929 . S
H2982 C3005 0.931 . S
H2983 C3006 0.931 . S
O2984 Eu2940 2.462 . S
O2984 C3004 1.252 . S
O2985 Eu2940 2.373 . S
O2985 C2996 1.249 . S
O2986 Eu2951 2.335 . S
O2986 C2996 1.264 . S
O2987 Eu2940 2.432 . S
O2987 C3004 1.268 . S
O2988 Eu2940 2.291 . S
O2988 C3003 1.255 . S
O2989 Eu2951 2.372 . S
O2989 C3003 1.257 . S
O2990 Eu2951 2.462 . S
O2990 C3015 1.252 . S
O2991 Eu2951 2.373 . S
O2991 C3007 1.249 . S
O2992 Eu2940 2.335 . S
O2992 C3007 1.264 . S
O2993 Eu2951 2.432 . S
O2993 C3015 1.268 . S
O2994 Eu2951 2.291 . S
O2994 C3014 1.255 . S
O2995 Eu2940 2.372 . S
O2995 C3014 1.257 . S
C2996 O2985 1.249 . S
C2996 O2986 1.264 . S
C2997 C3000 1.382 . S
C2997 C3002 1.390 . S
C2997 C3004 1.506 . S
C2998 C2999 1.398 . S
C2998 C3002 1.392 . S
C2999 C2998 1.398 . S
C2999 C3001 1.372 . S
C2999 H3016 0.931 . S
C3000 C2997 1.382 . S
C3000 C3001 1.390 . S
C3000 H3017 0.931 . S
C3001 C2999 1.372 . S
C3001 C3000 1.390 . S
C3001 H3018 0.929 . S
C3002 C2997 1.390 . S
C3002 C2998 1.392 . S
C3002 H3019 0.930 . S
C3003 O2988 1.255 . S
C3003 O2989 1.257 . S
C3004 Eu2940 2.787 . S
C3004 O2984 1.252 . S
C3004 O2987 1.268 . S
C3004 C2997 1.506 . S
C3005 C2972 1.439 . S
C3005 H2982 0.931 . S
C3005 C3006 1.374 . S
C3006 C2977 1.387 . S
C3006 H2983 0.931 . S
C3006 C3005 1.374 . S
C3007 O2991 1.249 . S
C3007 O2992 1.264 . S
C3008 C3011 1.382 . S
C3008 C3012 1.390 . S
C3008 C3015 1.506 . S
C3009 C3010 1.398 . S
C3009 C3012 1.392 . S
C3010 C3009 1.398 . S
C3010 C3013 1.372 . S
C3010 H3020 0.931 . S
C3011 C3008 1.382 . S
C3011 C3013 1.390 . S
C3011 H3021 0.931 . S
C3012 C3008 1.390 . S
C3012 C3009 1.392 . S
C3012 H3022 0.930 . S
C3013 C3010 1.372 . S
C3013 C3011 1.390 . S
C3013 H3023 0.929 . S
C3014 O2994 1.255 . S
C3014 O2995 1.257 . S
C3015 Eu2951 2.787 . S
C3015 O2990 1.252 . S
C3015 O2993 1.268 . S
C3015 C3008 1.506 . S
H3016 C2999 0.931 . S
H3017 C3000 0.931 . S
H3018 C3001 0.929 . S
H3019 C3002 0.930 . S
H3020 C3010 0.931 . S
H3021 C3011 0.931 . S
H3022 C3012 0.930 . S
H3023 C3013 0.929 . S
C3024 C3025 1.349 . S
C3024 C3026 1.327 . S
C3024 H3049 0.950 . S
C3025 C3024 1.349 . S
C3025 C3041 1.349 . S
C3026 C3024 1.327 . S
C3026 C3045 1.429 . S
C3026 H3050 0.950 . S
C3027 C3044 1.574 . S
C3027 C3046 1.368 1_556 S
C3027 H3051 0.949 . S
H3028 C3032 0.949 . S
C3029 C3030 1.349 . S
C3029 C3031 1.327 . S
C3029 H3052 0.950 . S
C3030 C3029 1.349 . S
C3030 C3042 1.349 . S
C3031 C3029 1.327 . S
C3031 C3047 1.436 . S
C3031 H3053 0.950 1_565 S
C3032 H3028 0.949 . S
C3032 C3040 1.574 . S
C3032 C3048 1.368 1_554 S
H3033 C3041 0.948 1_556 S
H3034 C3039 0.935 1_556 S
H3035 C3040 0.949 . S
H3036 C3042 0.950 . S
H3037 C3043 0.950 1_554 S
H3038 C3044 0.949 . S
C3039 H3034 0.935 1_554 S
C3039 C3041 1.333 . S
C3039 C3045 1.437 . S
C3040 C3032 1.574 . S
C3040 H3035 0.949 . S
C3040 C3046 1.368 . S
C3041 C3025 1.349 . S
C3041 H3033 0.948 1_554 S
C3041 C3039 1.333 . S
C3042 C3030 1.349 . S
C3042 H3036 0.950 . S
C3042 C3043 1.327 . S
C3043 H3037 0.950 1_556 S
C3043 C3042 1.327 . S
C3043 C3047 1.437 . S
C3044 C3027 1.574 . S
C3044 H3038 0.949 . S
C3044 C3048 1.368 . S
C3045 C3026 1.429 . S
C3045 C3039 1.437 . S
C3045 C3046 1.523 . S
C3046 C3027 1.368 1_554 S
C3046 C3040 1.368 . S
C3046 C3045 1.523 . S
C3047 C3031 1.436 . S
C3047 C3043 1.437 . S
C3047 C3048 1.509 1_565 S
C3048 C3032 1.368 1_556 S
C3048 C3044 1.368 . S
C3048 C3047 1.509 1_545 S
H3049 C3024 0.950 . S
H3050 C3026 0.950 . S
H3051 C3027 0.949 . S
H3052 C3029 0.950 . S
H3053 C3031 0.950 1_545 S
C3054 C3055 1.349 . S
C3054 C3056 1.327 . S
C3054 H3079 0.950 . S
C3055 C3054 1.349 . S
C3055 C3071 1.349 . S
C3056 C3054 1.327 . S
C3056 C3075 1.439 . S
C3056 H3080 0.950 . S
C3057 C3074 1.574 . S
C3057 C3076 1.368 1_554 S
C3057 H3081 0.949 . S
H3058 C3062 0.949 . S
C3059 C3060 1.349 . S
C3059 C3061 1.327 . S
C3059 H3082 0.950 . S
C3060 C3059 1.349 . S
C3060 C3072 1.349 . S
C3061 C3059 1.327 . S
C3061 C3077 1.429 . S
C3061 H3083 0.950 . S
C3062 H3058 0.949 . S
C3062 C3070 1.574 . S
C3062 C3078 1.368 1_556 S
H3063 C3071 0.950 . S
H3064 C3069 0.950 1_554 S
H3065 C3070 0.949 . S
H3066 C3072 0.960 . S
H3067 C3073 0.919 1_556 S
H3068 C3074 0.949 . S
C3069 H3064 0.950 1_556 S
C3069 C3071 1.327 . S
C3069 C3075 1.430 . S
C3070 C3062 1.574 . S
C3070 H3065 0.949 . S
C3070 C3076 1.368 . S
C3071 C3055 1.349 . S
C3071 H3063 0.950 . S
C3071 C3069 1.327 . S
C3072 C3060 1.349 . S
C3072 H3066 0.960 . S
C3072 C3073 1.340 . S
C3073 H3067 0.919 1_554 S
C3073 C3072 1.340 . S
C3073 C3077 1.447 . S
C3074 C3057 1.574 . S
C3074 H3068 0.949 . S
C3074 C3078 1.368 . S
C3075 C3056 1.439 . S
C3075 C3069 1.430 . S
C3075 C3076 1.512 1_455 S
C3076 C3057 1.368 1_556 S
C3076 C3070 1.368 . S
C3076 C3075 1.512 1_655 S
C3077 C3061 1.429 . S
C3077 C3073 1.447 . S
C3077 C3078 1.523 . S
C3078 C3062 1.368 1_554 S
C3078 C3074 1.368 . S
C3078 C3077 1.523 . S
H3079 C3054 0.950 . S
H3080 C3056 0.950 . S
H3081 C3057 0.949 . S
H3082 C3059 0.950 . S
H3083 C3061 0.950 . S
C3084 C3085 1.349 . S
C3084 C3086 1.327 . S
C3084 H3109 0.950 . S
C3085 C3084 1.349 . S
C3085 C3101 1.349 . S
C3086 C3084 1.327 . S
C3086 C3105 1.429 . S
C3086 H3110 0.950 . S
C3087 C3104 1.574 . S
C3087 C3106 1.368 1_554 S
C3087 H3111 0.949 . S
H3088 C3092 0.949 . S
C3089 C3090 1.349 . S
C3089 C3091 1.327 . S
C3089 H3112 0.950 . S
C3090 C3089 1.349 . S
C3090 C3102 1.349 . S
C3091 C3089 1.327 . S
C3091 C3107 1.429 . S
C3091 H3113 0.950 . S
C3092 H3088 0.949 . S
C3092 C3100 1.574 . S
C3092 C3108 1.368 1_556 S
H3093 C3101 0.950 . S
H3094 C3099 0.950 1_554 S
H3095 C3100 0.949 . S
H3096 C3102 0.950 1_556 S
H3097 C3103 0.953 . S
H3098 C3104 0.949 . S
C3099 H3094 0.950 1_556 S
C3099 C3101 1.327 . S
C3099 C3105 1.429 . S
C3100 C3092 1.574 . S
C3100 H3095 0.949 . S
C3100 C3106 1.368 . S
C3101 C3085 1.349 . S
C3101 H3093 0.950 . S
C3101 C3099 1.327 . S
C3102 C3090 1.349 . S
C3102 H3096 0.950 1_554 S
C3102 C3103 1.326 1_554 S
C3103 H3097 0.953 . S
C3103 C3102 1.326 1_556 S
C3103 C3107 1.426 1_556 S
C3104 C3087 1.574 . S
C3104 H3098 0.949 . S
C3104 C3108 1.368 . S
C3105 C3086 1.429 . S
C3105 C3099 1.429 . S
C3105 C3106 1.523 . S
C3106 C3087 1.368 1_556 S
C3106 C3100 1.368 . S
C3106 C3105 1.523 . S
C3107 C3091 1.429 . S
C3107 C3103 1.426 1_554 S
C3107 C3108 1.523 . S
C3108 C3092 1.368 1_554 S
C3108 C3104 1.368 . S
C3108 C3107 1.523 . S
H3109 C3084 0.950 . S
H3110 C3086 0.950 . S
H3111 C3087 0.949 . S
H3112 C3089 0.950 . S
H3113 C3091 0.950 . S
C3114 C3115 1.349 . S
C3114 C3116 1.327 . S
C3114 H3139 0.950 . S
C3115 C3114 1.349 . S
C3115 C3131 1.349 . S
C3116 C3114 1.327 . S
C3116 C3135 1.429 . S
C3116 H3140 0.950 1_655 S
C3117 C3134 1.574 . S
C3117 C3136 1.368 . S
C3117 H3141 0.949 . S
H3118 C3122 0.949 . S
C3119 C3120 1.349 . S
C3119 C3121 1.327 . S
C3119 H3142 0.950 . S
C3120 C3119 1.349 . S
C3120 C3132 1.349 . S
C3121 C3119 1.327 . S
C3121 C3137 1.429 . S
C3121 H3143 0.950 . S
C3122 H3118 0.949 . S
C3122 C3130 1.574 . S
C3122 C3138 1.368 . S
H3123 C3131 0.950 . S
H3124 C3129 0.950 . S
H3125 C3130 0.949 . S
H3126 C3132 0.950 . S
H3127 C3133 0.950 . S
H3128 C3134 0.949 . S
C3129 H3124 0.950 . S
C3129 C3131 1.327 . S
C3129 C3135 1.429 . S
C3130 C3122 1.574 . S
C3130 H3125 0.949 . S
C3130 C3136 1.368 . S
C3131 C3115 1.349 . S
C3131 H3123 0.950 . S
C3131 C3129 1.327 . S
C3132 C3120 1.349 . S
C3132 H3126 0.950 . S
C3132 C3133 1.327 . S
C3133 H3127 0.950 . S
C3133 C3132 1.327 . S
C3133 C3137 1.429 . S
C3134 C3117 1.574 . S
C3134 H3128 0.949 . S
C3134 C3138 1.368 . S
C3135 C3116 1.429 . S
C3135 C3129 1.429 . S
C3135 C3136 1.523 1_655 S
C3136 C3117 1.368 . S
C3136 C3130 1.368 . S
C3136 C3135 1.523 1_455 S
C3137 C3121 1.429 . S
C3137 C3133 1.429 . S
C3137 C3138 1.523 . S
C3138 C3122 1.368 . S
C3138 C3134 1.368 . S
C3138 C3137 1.523 . S
H3139 C3114 0.950 . S
H3140 C3116 0.950 1_455 S
H3141 C3117 0.949 . S
H3142 C3119 0.950 . S
H3143 C3121 0.950 . S
C3144 C3145 1.349 . S
C3144 C3146 1.327 . S
C3144 H3169 0.950 . S
C3145 C3144 1.349 . S
C3145 C3161 1.349 . S
C3146 C3144 1.327 . S
C3146 C3165 1.429 . S
C3146 H3170 0.950 . S
C3147 C3164 1.574 . S
C3147 C3166 1.368 . S
C3147 H3171 0.949 . S
H3148 C3152 0.949 . S
C3149 C3150 1.349 . S
C3149 C3151 1.327 . S
C3149 H3172 0.950 . S
C3150 C3149 1.349 . S
C3150 C3162 1.349 . S
C3151 C3149 1.327 . S
C3151 C3167 1.429 . S
C3151 H3173 0.950 . S
C3152 H3148 0.949 . S
C3152 C3160 1.574 . S
C3152 C3168 1.368 . S
H3153 C3161 0.950 . S
H3154 C3159 0.950 . S
H3155 C3160 0.949 . S
H3156 C3162 0.950 . S
H3157 C3163 0.950 . S
H3158 C3164 0.949 . S
C3159 H3154 0.950 . S
C3159 C3161 1.327 . S
C3159 C3165 1.429 . S
C3160 C3152 1.574 . S
C3160 H3155 0.949 . S
C3160 C3166 1.368 . S
C3161 C3145 1.349 . S
C3161 H3153 0.950 . S
C3161 C3159 1.327 . S
C3162 C3150 1.349 . S
C3162 H3156 0.950 . S
C3162 C3163 1.327 . S
C3163 H3157 0.950 . S
C3163 C3162 1.327 . S
C3163 C3167 1.429 . S
C3164 C3147 1.574 . S
C3164 H3158 0.949 . S
C3164 C3168 1.368 . S
C3165 C3146 1.429 . S
C3165 C3159 1.429 . S
C3165 C3166 1.523 . S
C3166 C3147 1.368 . S
C3166 C3160 1.368 . S
C3166 C3165 1.523 . S
C3167 C3151 1.429 . S
C3167 C3163 1.429 . S
C3167 C3168 1.523 . S
C3168 C3152 1.368 . S
C3168 C3164 1.368 . S
C3168 C3167 1.523 . S
H3169 C3144 0.950 . S
H3170 C3146 0.950 . S
H3171 C3147 0.949 . S
H3172 C3149 0.950 . S
H3173 C3151 0.950 . S
C3174 C3175 1.349 . S
C3174 C3176 1.327 . S
C3174 H3199 0.950 . S
C3175 C3174 1.349 . S
C3175 C3191 1.349 . S
C3176 C3174 1.327 . S
C3176 C3195 1.429 . S
C3176 H3200 0.950 . S
C3177 C3194 1.574 . S
C3177 C3196 1.368 . S
C3177 H3201 0.949 . S
H3178 C3182 0.949 . S
C3179 C3180 1.349 . S
C3179 C3181 1.327 . S
C3179 H3202 0.950 . S
C3180 C3179 1.349 . S
C3180 C3192 1.349 . S
C3181 C3179 1.327 . S
C3181 C3197 1.429 . S
C3181 H3203 0.950 . S
C3182 H3178 0.949 . S
C3182 C3190 1.574 . S
C3182 C3198 1.368 . S
H3183 C3191 0.950 . S
H3184 C3189 0.950 . S
H3185 C3190 0.949 . S
H3186 C3192 0.950 . S
H3187 C3193 0.950 1_565 S
H3188 C3194 0.949 . S
C3189 H3184 0.950 . S
C3189 C3191 1.327 . S
C3189 C3195 1.429 . S
C3190 C3182 1.574 . S
C3190 H3185 0.949 . S
C3190 C3196 1.368 . S
C3191 C3175 1.349 . S
C3191 H3183 0.950 . S
C3191 C3189 1.327 . S
C3192 C3180 1.349 . S
C3192 H3186 0.950 . S
C3192 C3193 1.327 . S
C3193 H3187 0.950 1_545 S
C3193 C3192 1.327 . S
C3193 C3197 1.429 . S
C3194 C3177 1.574 . S
C3194 H3188 0.949 . S
C3194 C3198 1.368 . S
C3195 C3176 1.429 . S
C3195 C3189 1.429 . S
C3195 C3196 1.523 . S
C3196 C3177 1.368 . S
C3196 C3190 1.368 . S
C3196 C3195 1.523 . S
C3197 C3181 1.429 . S
C3197 C3193 1.429 . S
C3197 C3198 1.523 1_545 S
C3198 C3182 1.368 . S
C3198 C3194 1.368 . S
C3198 C3197 1.523 1_565 S
H3199 C3174 0.950 . S
H3200 C3176 0.950 . S
H3201 C3177 0.949 . S
H3202 C3179 0.950 . S
H3203 C3181 0.950 . S
C3204 C3205 1.349 . S
C3204 C3206 1.327 . S
C3204 H3229 0.950 . S
C3205 C3204 1.349 . S
C3205 C3221 1.349 . S
C3206 C3204 1.327 . S
C3206 C3225 1.434 . S
C3206 H3230 0.950 . S
C3207 C3224 1.574 . S
C3207 C3226 1.368 . S
C3207 H3231 0.949 . S
H3208 C3212 0.949 . S
C3209 C3210 1.349 . S
C3209 C3211 1.327 . S
C3209 H3232 0.950 . S
C3210 C3209 1.349 . S
C3210 C3222 1.349 . S
C3211 C3209 1.327 . S
C3211 C3227 1.429 . S
C3211 H3233 0.950 . S
C3212 H3208 0.949 . S
C3212 C3220 1.574 1_556 S
C3212 C3228 1.368 . S
H3213 C3221 0.950 . S
H3214 C3219 0.950 1_565 S
H3215 C3220 0.949 . S
H3216 C3222 0.950 . S
H3217 C3223 0.950 . S
H3218 C3224 0.949 . S
C3219 H3214 0.950 1_545 S
C3219 C3221 1.327 . S
C3219 C3225 1.439 . S
C3220 C3212 1.574 1_554 S
C3220 H3215 0.949 . S
C3220 C3226 1.368 . S
C3221 C3205 1.349 . S
C3221 H3213 0.950 . S
C3221 C3219 1.327 . S
C3222 C3210 1.349 . S
C3222 H3216 0.950 . S
C3222 C3223 1.327 . S
C3223 H3217 0.950 . S
C3223 C3222 1.327 . S
C3223 C3227 1.429 . S
C3224 C3207 1.574 . S
C3224 H3218 0.949 . S
C3224 C3228 1.368 1_554 S
C3225 C3206 1.434 . S
C3225 C3219 1.439 . S
C3225 C3226 1.509 1_545 S
C3226 C3207 1.368 . S
C3226 C3220 1.368 . S
C3226 C3225 1.509 1_565 S
C3227 C3211 1.429 . S
C3227 C3223 1.429 . S
C3227 C3228 1.523 . S
C3228 C3212 1.368 . S
C3228 C3224 1.368 1_556 S
C3228 C3227 1.523 . S
H3229 C3204 0.950 . S
H3230 C3206 0.950 . S
H3231 C3207 0.949 . S
H3232 C3209 0.950 . S
H3233 C3211 0.950 . S
C3234 C3235 1.349 . S
C3234 C3236 1.327 . S
C3234 H3259 0.950 . S
C3235 C3234 1.349 . S
C3235 C3251 1.349 . S
C3236 C3234 1.327 . S
C3236 C3255 1.429 . S
C3236 H3260 0.950 . S
C3237 C3254 1.574 . S
C3237 C3256 1.368 1_554 S
C3237 H3261 0.949 . S
H3238 C3242 0.949 . S
C3239 C3240 1.349 . S
C3239 C3241 1.327 . S
C3239 H3262 0.950 . S
C3240 C3239 1.349 . S
C3240 C3252 1.349 . S
C3241 C3239 1.327 . S
C3241 C3257 1.434 . S
C3241 H3263 0.950 1_655 S
C3242 H3238 0.949 . S
C3242 C3250 1.574 . S
C3242 C3258 1.368 1_556 S
H3243 C3251 0.950 1_554 S
H3244 C3249 0.950 . S
H3245 C3250 0.949 . S
H3246 C3252 0.950 1_556 S
H3247 C3253 0.950 1_556 S
H3248 C3254 0.949 . S
C3249 H3244 0.950 . S
C3249 C3251 1.327 1_554 S
C3249 C3255 1.429 1_554 S
C3250 C3242 1.574 . S
C3250 H3245 0.949 . S
C3250 C3256 1.368 . S
C3251 C3235 1.349 . S
C3251 H3243 0.950 1_556 S
C3251 C3249 1.327 1_556 S
C3252 C3240 1.349 . S
C3252 H3246 0.950 1_554 S
C3252 C3253 1.327 . S
C3253 H3247 0.950 1_554 S
C3253 C3252 1.327 . S
C3253 C3257 1.435 . S
C3254 C3237 1.574 . S
C3254 H3248 0.949 . S
C3254 C3258 1.368 . S
C3255 C3236 1.429 . S
C3255 C3249 1.429 1_556 S
C3255 C3256 1.523 . S
C3256 C3237 1.368 1_556 S
C3256 C3250 1.368 . S
C3256 C3255 1.523 . S
C3257 C3241 1.434 . S
C3257 C3253 1.435 . S
C3257 C3258 1.512 1_655 S
C3258 C3242 1.368 1_554 S
C3258 C3254 1.368 . S
C3258 C3257 1.512 1_455 S
H3259 C3234 0.950 . S
H3260 C3236 0.950 . S
H3261 C3237 0.949 . S
H3262 C3239 0.950 . S
H3263 C3241 0.950 1_455 S
C3264 C3265 1.349 . S
C3264 C3266 1.327 . S
C3264 H3289 0.950 . S
C3265 C3264 1.349 . S
C3265 C3281 1.349 . S
C3266 C3264 1.327 . S
C3266 C3285 1.429 . S
C3266 H3290 0.950 . S
C3267 C3284 1.574 . S
C3267 C3286 1.368 1_556 S
C3267 H3291 0.949 . S
H3268 C3272 0.949 . S
C3269 C3270 1.349 . S
C3269 C3271 1.327 . S
C3269 H3292 0.950 . S
C3270 C3269 1.349 . S
C3270 C3282 1.349 . S
C3271 C3269 1.327 . S
C3271 C3287 1.429 . S
C3271 H3293 0.950 . S
C3272 H3268 0.949 . S
C3272 C3280 1.574 . S
C3272 C3288 1.368 1_554 S
H3273 C3281 0.950 . S
H3274 C3279 0.950 1_556 S
H3275 C3280 0.949 . S
H3276 C3282 0.950 1_554 S
H3277 C3283 0.950 . S
H3278 C3284 0.949 . S
C3279 H3274 0.950 1_554 S
C3279 C3281 1.327 . S
C3279 C3285 1.429 . S
C3280 C3272 1.574 . S
C3280 H3275 0.949 . S
C3280 C3286 1.368 . S
C3281 C3265 1.349 . S
C3281 H3273 0.950 . S
C3281 C3279 1.327 . S
C3282 C3270 1.349 . S
C3282 H3276 0.950 1_556 S
C3282 C3283 1.327 1_556 S
C3283 H3277 0.950 . S
C3283 C3282 1.327 1_554 S
C3283 C3287 1.429 1_554 S
C3284 C3267 1.574 . S
C3284 H3278 0.949 . S
C3284 C3288 1.368 . S
C3285 C3266 1.429 . S
C3285 C3279 1.429 . S
C3285 C3286 1.523 . S
C3286 C3267 1.368 1_554 S
C3286 C3280 1.368 . S
C3286 C3285 1.523 . S
C3287 C3271 1.429 . S
C3287 C3283 1.429 1_556 S
C3287 C3288 1.523 . S
C3288 C3272 1.368 1_556 S
C3288 C3284 1.368 . S
C3288 C3287 1.523 . S
H3289 C3264 0.950 . S
H3290 C3266 0.950 . S
H3291 C3267 0.949 . S
H3292 C3269 0.950 . S
H3293 C3271 0.950 . S
C3294 C3295 1.349 . S
C3294 C3296 1.327 . S
C3294 H3319 0.950 . S
C3295 C3294 1.349 . S
C3295 C3311 1.349 . S
C3296 C3294 1.327 . S
C3296 C3315 1.429 . S
C3296 H3320 0.950 1_455 S
C3297 C3314 1.574 . S
C3297 C3316 1.368 . S
C3297 H3321 0.949 . S
H3298 C3302 0.949 . S
C3299 C3300 1.349 . S
C3299 C3301 1.327 . S
C3299 H3322 0.950 . S
C3300 C3299 1.349 . S
C3300 C3312 1.349 . S
C3301 C3299 1.327 . S
C3301 C3317 1.429 . S
C3301 H3323 0.950 . S
C3302 H3298 0.949 . S
C3302 C3310 1.574 . S
C3302 C3318 1.368 . S
H3303 C3311 0.950 . S
H3304 C3309 0.950 . S
H3305 C3310 0.949 . S
H3306 C3312 0.950 . S
H3307 C3313 0.950 . S
H3308 C3314 0.949 . S
C3309 H3304 0.950 . S
C3309 C3311 1.327 . S
C3309 C3315 1.429 . S
C3310 C3302 1.574 . S
C3310 H3305 0.949 . S
C3310 C3316 1.368 . S
C3311 C3295 1.349 . S
C3311 H3303 0.950 . S
C3311 C3309 1.327 . S
C3312 C3300 1.349 . S
C3312 H3306 0.950 . S
C3312 C3313 1.327 . S
C3313 H3307 0.950 . S
C3313 C3312 1.327 . S
C3313 C3317 1.429 . S
C3314 C3297 1.574 . S
C3314 H3308 0.949 . S
C3314 C3318 1.368 . S
C3315 C3296 1.429 . S
C3315 C3309 1.429 . S
C3315 C3316 1.523 1_455 S
C3316 C3297 1.368 . S
C3316 C3310 1.368 . S
C3316 C3315 1.523 1_655 S
C3317 C3301 1.429 . S
C3317 C3313 1.429 . S
C3317 C3318 1.523 . S
C3318 C3302 1.368 . S
C3318 C3314 1.368 . S
C3318 C3317 1.523 . S
H3319 C3294 0.950 . S
H3320 C3296 0.950 1_655 S
H3321 C3297 0.949 . S
H3322 C3299 0.950 . S
H3323 C3301 0.950 . S
C3324 C3325 1.349 . S
C3324 C3326 1.327 . S
C3324 H3349 0.950 . S
C3325 C3324 1.349 . S
C3325 C3341 1.349 . S
C3326 C3324 1.327 . S
C3326 C3345 1.429 . S
C3326 H3350 0.950 . S
C3327 C3344 1.574 . S
C3327 C3346 1.368 . S
C3327 H3351 0.949 . S
H3328 C3332 0.949 . S
C3329 C3330 1.349 . S
C3329 C3331 1.327 . S
C3329 H3352 0.950 . S
C3330 C3329 1.349 . S
C3330 C3342 1.349 . S
C3331 C3329 1.327 . S
C3331 C3347 1.429 . S
C3331 H3353 0.950 . S
C3332 H3328 0.949 . S
C3332 C3340 1.574 . S
C3332 C3348 1.368 . S
H3333 C3341 0.950 . S
H3334 C3339 0.950 . S
H3335 C3340 0.949 . S
H3336 C3342 0.950 . S
H3337 C3343 0.950 . S
H3338 C3344 0.949 . S
C3339 H3334 0.950 . S
C3339 C3341 1.327 . S
C3339 C3345 1.429 . S
C3340 C3332 1.574 . S
C3340 H3335 0.949 . S
C3340 C3346 1.368 . S
C3341 C3325 1.349 . S
C3341 H3333 0.950 . S
C3341 C3339 1.327 . S
C3342 C3330 1.349 . S
C3342 H3336 0.950 . S
C3342 C3343 1.327 . S
C3343 H3337 0.950 . S
C3343 C3342 1.327 . S
C3343 C3347 1.429 . S
C3344 C3327 1.574 . S
C3344 H3338 0.949 . S
C3344 C3348 1.368 . S
C3345 C3326 1.429 . S
C3345 C3339 1.429 . S
C3345 C3346 1.523 . S
C3346 C3327 1.368 . S
C3346 C3340 1.368 . S
C3346 C3345 1.523 . S
C3347 C3331 1.429 . S
C3347 C3343 1.429 . S
C3347 C3348 1.523 . S
C3348 C3332 1.368 . S
C3348 C3344 1.368 . S
C3348 C3347 1.523 . S
H3349 C3324 0.950 . S
H3350 C3326 0.950 . S
H3351 C3327 0.949 . S
H3352 C3329 0.950 . S
H3353 C3331 0.950 . S
C3354 C3355 1.349 . S
C3354 C3356 1.327 . S
C3354 H3379 0.950 . S
C3355 C3354 1.349 . S
C3355 C3371 1.349 . S
C3356 C3354 1.327 . S
C3356 C3375 1.429 . S
C3356 H3380 0.950 . S
C3357 C3374 1.574 . S
C3357 C3376 1.368 . S
C3357 H3381 0.949 . S
H3358 C3362 0.949 . S
C3359 C3360 1.349 . S
C3359 C3361 1.327 . S
C3359 H3382 0.950 . S
C3360 C3359 1.349 . S
C3360 C3372 1.349 . S
C3361 C3359 1.327 . S
C3361 C3377 1.429 . S
C3361 H3383 0.950 . S
C3362 H3358 0.949 . S
C3362 C3370 1.574 . S
C3362 C3378 1.368 . S
H3363 C3371 0.950 . S
H3364 C3369 0.950 . S
H3365 C3370 0.949 . S
H3366 C3372 0.950 . S
H3367 C3373 0.950 . S
H3368 C3374 0.949 . S
C3369 H3364 0.950 . S
C3369 C3371 1.327 . S
C3369 C3375 1.429 . S
C3370 C3362 1.574 . S
C3370 H3365 0.949 . S
C3370 C3376 1.368 . S
C3371 C3355 1.349 . S
C3371 H3363 0.950 . S
C3371 C3369 1.327 . S
C3372 C3360 1.349 . S
C3372 H3366 0.950 . S
C3372 C3373 1.327 . S
C3373 H3367 0.950 . S
C3373 C3372 1.327 . S
C3373 C3377 1.429 . S
C3374 C3357 1.574 . S
C3374 H3368 0.949 . S
C3374 C3378 1.368 . S
C3375 C3356 1.429 . S
C3375 C3369 1.429 . S
C3375 C3376 1.523 . S
C3376 C3357 1.368 . S
C3376 C3370 1.368 . S
C3376 C3375 1.523 . S
C3377 C3361 1.429 . S
C3377 C3373 1.429 . S
C3377 C3378 1.523 1_565 S
C3378 C3362 1.368 . S
C3378 C3374 1.368 . S
C3378 C3377 1.523 1_545 S
H3379 C3354 0.950 . S
H3380 C3356 0.950 . S
H3381 C3357 0.949 . S
H3382 C3359 0.950 . S
H3383 C3361 0.950 . S
C3384 C3385 1.349 . S
C3384 C3386 1.327 . S
C3384 H3409 0.950 . S
C3385 C3384 1.349 . S
C3385 C3401 1.349 . S
C3386 C3384 1.327 . S
C3386 C3405 1.429 . S
C3386 H3410 0.950 . S
C3387 C3404 1.574 . S
C3387 C3406 1.368 . S
C3387 H3411 0.949 . S
H3388 C3392 0.949 . S
C3389 C3390 1.349 . S
C3389 C3391 1.327 . S
C3389 H3412 0.950 . S
C3390 C3389 1.349 . S
C3390 C3402 1.349 . S
C3391 C3389 1.327 . S
C3391 C3407 1.429 . S
C3391 H3413 0.950 . S
C3392 H3388 0.949 . S
C3392 C3400 1.574 . S
C3392 C3408 1.368 . S
H3393 C3401 0.950 . S
H3394 C3399 0.950 . S
H3395 C3400 0.949 . S
H3396 C3402 0.950 . S
H3397 C3403 0.950 . S
H3398 C3404 0.949 . S
C3399 H3394 0.950 . S
C3399 C3401 1.327 . S
C3399 C3405 1.429 . S
C3400 C3392 1.574 . S
C3400 H3395 0.949 . S
C3400 C3406 1.368 . S
C3401 C3385 1.349 . S
C3401 H3393 0.950 . S
C3401 C3399 1.327 . S
C3402 C3390 1.349 . S
C3402 H3396 0.950 . S
C3402 C3403 1.327 . S
C3403 H3397 0.950 . S
C3403 C3402 1.327 . S
C3403 C3407 1.429 . S
C3404 C3387 1.574 . S
C3404 H3398 0.949 . S
C3404 C3408 1.368 . S
C3405 C3386 1.429 . S
C3405 C3399 1.429 . S
C3405 C3406 1.523 . S
C3406 C3387 1.368 . S
C3406 C3400 1.368 . S
C3406 C3405 1.523 . S
C3407 C3391 1.429 . S
C3407 C3403 1.429 . S
C3407 C3408 1.523 . S
C3408 C3392 1.368 . S
C3408 C3404 1.368 . S
C3408 C3407 1.523 . S
H3409 C3384 0.950 . S
H3410 C3386 0.950 . S
H3411 C3387 0.949 . S
H3412 C3389 0.950 . S
H3413 C3391 0.950 . S
C3414 C3415 1.349 . S
C3414 C3416 1.327 . S
C3414 H3439 0.950 . S
C3415 C3414 1.349 . S
C3415 C3431 1.349 . S
C3416 C3414 1.327 . S
C3416 C3435 1.429 . S
C3416 H3440 0.950 . S
C3417 C3434 1.574 . S
C3417 C3436 1.368 . S
C3417 H3441 0.949 . S
H3418 C3422 0.949 . S
C3419 C3420 1.349 . S
C3419 C3421 1.327 . S
C3419 H3442 0.950 . S
C3420 C3419 1.349 . S
C3420 C3432 1.349 . S
C3421 C3419 1.327 . S
C3421 C3437 1.429 . S
C3421 H3443 0.950 . S
C3422 H3418 0.949 . S
C3422 C3430 1.574 . S
C3422 C3438 1.368 . S
H3423 C3431 0.950 . S
H3424 C3429 0.950 . S
H3425 C3430 0.949 . S
H3426 C3432 0.950 . S
H3427 C3433 0.950 . S
H3428 C3434 0.949 . S
C3429 H3424 0.950 . S
C3429 C3431 1.327 . S
C3429 C3435 1.429 . S
C3430 C3422 1.574 . S
C3430 H3425 0.949 . S
C3430 C3436 1.368 . S
C3431 C3415 1.349 . S
C3431 H3423 0.950 . S
C3431 C3429 1.327 . S
C3432 C3420 1.349 . S
C3432 H3426 0.950 . S
C3432 C3433 1.327 . S
C3433 H3427 0.950 . S
C3433 C3432 1.327 . S
C3433 C3437 1.429 . S
C3434 C3417 1.574 . S
C3434 H3428 0.949 . S
C3434 C3438 1.368 . S
C3435 C3416 1.429 . S
C3435 C3429 1.429 . S
C3435 C3436 1.523 . S
C3436 C3417 1.368 . S
C3436 C3430 1.368 . S
C3436 C3435 1.523 . S
C3437 C3421 1.429 . S
C3437 C3433 1.429 . S
C3437 C3438 1.523 . S
C3438 C3422 1.368 . S
C3438 C3434 1.368 . S
C3438 C3437 1.523 . S
H3439 C3414 0.950 . S
H3440 C3416 0.950 . S
H3441 C3417 0.949 . S
H3442 C3419 0.950 . S
H3443 C3421 0.950 . S
C3444 C3445 1.349 . S
C3444 C3446 1.327 . S
C3444 H3469 0.950 . S
C3445 C3444 1.349 . S
C3445 C3461 1.349 . S
C3446 C3444 1.327 . S
C3446 C3465 1.429 . S
C3446 H3470 0.950 . S
C3447 C3464 1.574 . S
C3447 C3466 1.368 . S
C3447 H3471 0.949 . S
H3448 C3452 0.949 . S
C3449 C3450 1.349 . S
C3449 C3451 1.327 . S
C3449 H3472 0.950 . S
C3450 C3449 1.349 . S
C3450 C3462 1.349 . S
C3451 C3449 1.327 . S
C3451 C3467 1.429 . S
C3451 H3473 0.950 . S
C3452 H3448 0.949 . S
C3452 C3460 1.574 . S
C3452 C3468 1.368 . S
H3453 C3461 0.950 . S
H3454 C3459 0.950 . S
H3455 C3460 0.949 . S
H3456 C3462 0.950 . S
H3457 C3463 0.950 . S
H3458 C3464 0.949 . S
C3459 H3454 0.950 . S
C3459 C3461 1.327 . S
C3459 C3465 1.429 . S
C3460 C3452 1.574 . S
C3460 H3455 0.949 . S
C3460 C3466 1.368 . S
C3461 C3445 1.349 . S
C3461 H3453 0.950 . S
C3461 C3459 1.327 . S
C3462 C3450 1.349 . S
C3462 H3456 0.950 . S
C3462 C3463 1.327 . S
C3463 H3457 0.950 . S
C3463 C3462 1.327 . S
C3463 C3467 1.429 . S
C3464 C3447 1.574 . S
C3464 H3458 0.949 . S
C3464 C3468 1.368 . S
C3465 C3446 1.429 . S
C3465 C3459 1.429 . S
C3465 C3466 1.523 . S
C3466 C3447 1.368 . S
C3466 C3460 1.368 . S
C3466 C3465 1.523 . S
C3467 C3451 1.429 . S
C3467 C3463 1.429 . S
C3467 C3468 1.523 . S
C3468 C3452 1.368 . S
C3468 C3464 1.368 . S
C3468 C3467 1.523 . S
H3469 C3444 0.950 . S
H3470 C3446 0.950 . S
H3471 C3447 0.949 . S
H3472 C3449 0.950 . S
H3473 C3451 0.950 . S
C3474 C3475 1.349 . S
C3474 C3476 1.327 . S
C3474 H3499 0.950 . S
C3475 C3474 1.349 . S
C3475 C3491 1.349 . S
C3476 C3474 1.327 . S
C3476 C3495 1.429 . S
C3476 H3500 0.950 . S
C3477 C3494 1.574 . S
C3477 C3496 1.368 . S
C3477 H3501 0.949 . S
H3478 C3482 0.949 . S
C3479 C3480 1.349 . S
C3479 C3481 1.327 . S
C3479 H3502 0.950 . S
C3480 C3479 1.349 . S
C3480 C3492 1.349 . S
C3481 C3479 1.327 . S
C3481 C3497 1.429 . S
C3481 H3503 0.950 . S
C3482 H3478 0.949 . S
C3482 C3490 1.574 . S
C3482 C3498 1.368 . S
H3483 C3491 0.950 . S
H3484 C3489 0.950 . S
H3485 C3490 0.949 . S
H3486 C3492 0.950 . S
H3487 C3493 0.950 . S
H3488 C3494 0.949 . S
C3489 H3484 0.950 . S
C3489 C3491 1.327 . S
C3489 C3495 1.429 . S
C3490 C3482 1.574 . S
C3490 H3485 0.949 . S
C3490 C3496 1.368 . S
C3491 C3475 1.349 . S
C3491 H3483 0.950 . S
C3491 C3489 1.327 . S
C3492 C3480 1.349 . S
C3492 H3486 0.950 . S
C3492 C3493 1.327 . S
C3493 H3487 0.950 . S
C3493 C3492 1.327 . S
C3493 C3497 1.429 . S
C3494 C3477 1.574 . S
C3494 H3488 0.949 . S
C3494 C3498 1.368 . S
C3495 C3476 1.429 . S
C3495 C3489 1.429 . S
C3495 C3496 1.523 . S
C3496 C3477 1.368 . S
C3496 C3490 1.368 . S
C3496 C3495 1.523 . S
C3497 C3481 1.429 . S
C3497 C3493 1.429 . S
C3497 C3498 1.523 . S
C3498 C3482 1.368 . S
C3498 C3494 1.368 . S
C3498 C3497 1.523 . S
H3499 C3474 0.950 . S
H3500 C3476 0.950 . S
H3501 C3477 0.949 . S
H3502 C3479 0.950 . S
H3503 C3481 0.950 . S
C3504 C3505 1.349 . S
C3504 C3506 1.327 . S
C3504 H3529 0.950 . S
C3505 C3504 1.349 . S
C3505 C3521 1.349 . S
C3506 C3504 1.327 . S
C3506 C3525 1.429 . S
C3506 H3530 0.950 . S
C3507 C3524 1.574 . S
C3507 C3526 1.368 . S
C3507 H3531 0.949 . S
H3508 C3512 0.949 . S
C3509 C3510 1.349 . S
C3509 C3511 1.327 . S
C3509 H3532 0.950 . S
C3510 C3509 1.349 . S
C3510 C3522 1.349 . S
C3511 C3509 1.327 . S
C3511 C3527 1.429 . S
C3511 H3533 0.950 . S
C3512 H3508 0.949 . S
C3512 C3520 1.574 . S
C3512 C3528 1.368 . S
H3513 C3521 0.950 . S
H3514 C3519 0.950 . S
H3515 C3520 0.949 . S
H3516 C3522 0.950 . S
H3517 C3523 0.950 . S
H3518 C3524 0.949 . S
C3519 H3514 0.950 . S
C3519 C3521 1.327 . S
C3519 C3525 1.429 . S
C3520 C3512 1.574 . S
C3520 H3515 0.949 . S
C3520 C3526 1.368 . S
C3521 C3505 1.349 . S
C3521 H3513 0.950 . S
C3521 C3519 1.327 . S
C3522 C3510 1.349 . S
C3522 H3516 0.950 . S
C3522 C3523 1.327 . S
C3523 H3517 0.950 . S
C3523 C3522 1.327 . S
C3523 C3527 1.429 . S
C3524 C3507 1.574 . S
C3524 H3518 0.949 . S
C3524 C3528 1.368 . S
C3525 C3506 1.429 . S
C3525 C3519 1.429 . S
C3525 C3526 1.523 . S
C3526 C3507 1.368 . S
C3526 C3520 1.368 . S
C3526 C3525 1.523 . S
C3527 C3511 1.429 . S
C3527 C3523 1.429 . S
C3527 C3528 1.523 . S
C3528 C3512 1.368 . S
C3528 C3524 1.368 . S
C3528 C3527 1.523 . S
H3529 C3504 0.950 . S
H3530 C3506 0.950 . S
H3531 C3507 0.949 . S
H3532 C3509 0.950 . S
H3533 C3511 0.950 . S
C3534 C3535 1.349 . S
C3534 C3536 1.327 . S
C3534 H3559 0.950 . S
C3535 C3534 1.349 . S
C3535 C3551 1.349 . S
C3536 C3534 1.327 . S
C3536 C3555 1.429 . S
C3536 H3560 0.950 . S
C3537 C3554 1.574 . S
C3537 C3556 1.368 . S
C3537 H3561 0.949 . S
H3538 C3542 0.949 . S
C3539 C3540 1.349 . S
C3539 C3541 1.327 . S
C3539 H3562 0.950 . S
C3540 C3539 1.349 . S
C3540 C3552 1.349 . S
C3541 C3539 1.327 . S
C3541 C3557 1.429 . S
C3541 H3563 0.950 . S
C3542 H3538 0.949 . S
C3542 C3550 1.574 . S
C3542 C3558 1.368 . S
H3543 C3551 0.950 . S
H3544 C3549 0.950 . S
H3545 C3550 0.949 . S
H3546 C3552 0.950 . S
H3547 C3553 0.950 . S
H3548 C3554 0.949 . S
C3549 H3544 0.950 . S
C3549 C3551 1.327 . S
C3549 C3555 1.429 . S
C3550 C3542 1.574 . S
C3550 H3545 0.949 . S
C3550 C3556 1.368 . S
C3551 C3535 1.349 . S
C3551 H3543 0.950 . S
C3551 C3549 1.327 . S
C3552 C3540 1.349 . S
C3552 H3546 0.950 . S
C3552 C3553 1.327 . S
C3553 H3547 0.950 . S
C3553 C3552 1.327 . S
C3553 C3557 1.429 . S
C3554 C3537 1.574 . S
C3554 H3548 0.949 . S
C3554 C3558 1.368 . S
C3555 C3536 1.429 . S
C3555 C3549 1.429 . S
C3555 C3556 1.523 . S
C3556 C3537 1.368 . S
C3556 C3550 1.368 . S
C3556 C3555 1.523 . S
C3557 C3541 1.429 . S
C3557 C3553 1.429 . S
C3557 C3558 1.523 . S
C3558 C3542 1.368 . S
C3558 C3554 1.368 . S
C3558 C3557 1.523 . S
H3559 C3534 0.950 . S
H3560 C3536 0.950 . S
H3561 C3537 0.949 . S
H3562 C3539 0.950 . S
H3563 C3541 0.950 . S
C3564 C3565 1.349 . S
C3564 C3566 1.327 . S
C3564 H3589 0.950 . S
C3565 C3564 1.349 . S
C3565 C3581 1.349 . S
C3566 C3564 1.327 . S
C3566 C3585 1.429 . S
C3566 H3590 0.950 . S
C3567 C3584 1.574 . S
C3567 C3586 1.368 . S
C3567 H3591 0.949 . S
H3568 C3572 0.949 . S
C3569 C3570 1.349 . S
C3569 C3571 1.327 . S
C3569 H3592 0.950 . S
C3570 C3569 1.349 . S
C3570 C3582 1.349 . S
C3571 C3569 1.327 . S
C3571 C3587 1.429 . S
C3571 H3593 0.950 . S
C3572 H3568 0.949 . S
C3572 C3580 1.574 . S
C3572 C3588 1.368 . S
H3573 C3581 0.950 . S
H3574 C3579 0.950 . S
H3575 C3580 0.949 . S
H3576 C3582 0.950 . S
H3577 C3583 0.950 . S
H3578 C3584 0.949 . S
C3579 H3574 0.950 . S
C3579 C3581 1.327 . S
C3579 C3585 1.429 . S
C3580 C3572 1.574 . S
C3580 H3575 0.949 . S
C3580 C3586 1.368 . S
C3581 C3565 1.349 . S
C3581 H3573 0.950 . S
C3581 C3579 1.327 . S
C3582 C3570 1.349 . S
C3582 H3576 0.950 . S
C3582 C3583 1.327 . S
C3583 H3577 0.950 . S
C3583 C3582 1.327 . S
C3583 C3587 1.429 . S
C3584 C3567 1.574 . S
C3584 H3578 0.949 . S
C3584 C3588 1.368 . S
C3585 C3566 1.429 . S
C3585 C3579 1.429 . S
C3585 C3586 1.523 . S
C3586 C3567 1.368 . S
C3586 C3580 1.368 . S
C3586 C3585 1.523 . S
C3587 C3571 1.429 . S
C3587 C3583 1.429 . S
C3587 C3588 1.523 . S
C3588 C3572 1.368 . S
C3588 C3584 1.368 . S
C3588 C3587 1.523 . S
H3589 C3564 0.950 . S
H3590 C3566 0.950 . S
H3591 C3567 0.949 . S
H3592 C3569 0.950 . S
H3593 C3571 0.950 . S
C3594 C3595 1.349 . S
C3594 C3596 1.327 . S
C3594 H3619 0.950 . S
C3595 C3594 1.349 . S
C3595 C3611 1.349 . S
C3596 C3594 1.327 . S
C3596 C3615 1.429 . S
C3596 H3620 0.950 . S
C3597 C3614 1.574 . S
C3597 C3616 1.368 . S
C3597 H3621 0.949 . S
H3598 C3602 0.949 . S
C3599 C3600 1.349 . S
C3599 C3601 1.327 . S
C3599 H3622 0.950 . S
C3600 C3599 1.349 . S
C3600 C3612 1.349 . S
C3601 C3599 1.327 . S
C3601 C3617 1.429 . S
C3601 H3623 0.950 . S
C3602 H3598 0.949 . S
C3602 C3610 1.574 . S
C3602 C3618 1.368 . S
H3603 C3611 0.950 . S
H3604 C3609 0.950 . S
H3605 C3610 0.949 . S
H3606 C3612 0.950 . S
H3607 C3613 0.950 . S
H3608 C3614 0.949 . S
C3609 H3604 0.950 . S
C3609 C3611 1.327 . S
C3609 C3615 1.429 . S
C3610 C3602 1.574 . S
C3610 H3605 0.949 . S
C3610 C3616 1.368 . S
C3611 C3595 1.349 . S
C3611 H3603 0.950 . S
C3611 C3609 1.327 . S
C3612 C3600 1.349 . S
C3612 H3606 0.950 . S
C3612 C3613 1.327 . S
C3613 H3607 0.950 . S
C3613 C3612 1.327 . S
C3613 C3617 1.429 . S
C3614 C3597 1.574 . S
C3614 H3608 0.949 . S
C3614 C3618 1.368 . S
C3615 C3596 1.429 . S
C3615 C3609 1.429 . S
C3615 C3616 1.523 . S
C3616 C3597 1.368 . S
C3616 C3610 1.368 . S
C3616 C3615 1.523 . S
C3617 C3601 1.429 . S
C3617 C3613 1.429 . S
C3617 C3618 1.523 . S
C3618 C3602 1.368 . S
C3618 C3614 1.368 . S
C3618 C3617 1.523 . S
H3619 C3594 0.950 . S
H3620 C3596 0.950 . S
H3621 C3597 0.949 . S
H3622 C3599 0.950 . S
H3623 C3601 0.950 . S
C3624 C3625 1.349 . S
C3624 C3626 1.327 . S
C3624 H3649 0.950 . S
C3625 C3624 1.349 . S
C3625 C3641 1.349 . S
C3626 C3624 1.327 . S
C3626 C3645 1.429 . S
C3626 H3650 0.950 . S
C3627 C3644 1.574 . S
C3627 C3646 1.368 . S
C3627 H3651 0.949 . S
H3628 C3632 0.949 . S
C3629 C3630 1.349 . S
C3629 C3631 1.327 . S
C3629 H3652 0.950 . S
C3630 C3629 1.349 . S
C3630 C3642 1.349 . S
C3631 C3629 1.327 . S
C3631 C3647 1.429 . S
C3631 H3653 0.950 . S
C3632 H3628 0.949 . S
C3632 C3640 1.574 . S
C3632 C3648 1.368 . S
H3633 C3641 0.950 . S
H3634 C3639 0.950 . S
H3635 C3640 0.949 . S
H3636 C3642 0.950 . S
H3637 C3643 0.950 . S
H3638 C3644 0.949 . S
C3639 H3634 0.950 . S
C3639 C3641 1.327 . S
C3639 C3645 1.429 . S
C3640 C3632 1.574 . S
C3640 H3635 0.949 . S
C3640 C3646 1.368 . S
C3641 C3625 1.349 . S
C3641 H3633 0.950 . S
C3641 C3639 1.327 . S
C3642 C3630 1.349 . S
C3642 H3636 0.950 . S
C3642 C3643 1.327 . S
C3643 H3637 0.950 . S
C3643 C3642 1.327 . S
C3643 C3647 1.429 . S
C3644 C3627 1.574 . S
C3644 H3638 0.949 . S
C3644 C3648 1.368 . S
C3645 C3626 1.429 . S
C3645 C3639 1.429 . S
C3645 C3646 1.523 . S
C3646 C3627 1.368 . S
C3646 C3640 1.368 . S
C3646 C3645 1.523 . S
C3647 C3631 1.429 . S
C3647 C3643 1.429 . S
C3647 C3648 1.523 . S
C3648 C3632 1.368 . S
C3648 C3644 1.368 . S
C3648 C3647 1.523 . S
H3649 C3624 0.950 . S
H3650 C3626 0.950 . S
H3651 C3627 0.949 . S
H3652 C3629 0.950 . S
H3653 C3631 0.950 . S
C3654 C3655 1.349 . S
C3654 C3656 1.327 . S
C3654 H3679 0.950 . S
C3655 C3654 1.349 . S
C3655 C3671 1.349 . S
C3656 C3654 1.327 . S
C3656 C3675 1.429 . S
C3656 H3680 0.950 . S
C3657 C3674 1.574 . S
C3657 C3676 1.368 . S
C3657 H3681 0.949 . S
H3658 C3662 0.949 . S
C3659 C3660 1.349 . S
C3659 C3661 1.327 . S
C3659 H3682 0.950 . S
C3660 C3659 1.349 . S
C3660 C3672 1.349 . S
C3661 C3659 1.327 . S
C3661 C3677 1.429 . S
C3661 H3683 0.950 . S
C3662 H3658 0.949 . S
C3662 C3670 1.574 . S
C3662 C3678 1.368 . S
H3663 C3671 0.950 . S
H3664 C3669 0.950 . S
H3665 C3670 0.949 . S
H3666 C3672 0.950 . S
H3667 C3673 0.950 . S
H3668 C3674 0.949 . S
C3669 H3664 0.950 . S
C3669 C3671 1.327 . S
C3669 C3675 1.429 . S
C3670 C3662 1.574 . S
C3670 H3665 0.949 . S
C3670 C3676 1.368 . S
C3671 C3655 1.349 . S
C3671 H3663 0.950 . S
C3671 C3669 1.327 . S
C3672 C3660 1.349 . S
C3672 H3666 0.950 . S
C3672 C3673 1.327 . S
C3673 H3667 0.950 . S
C3673 C3672 1.327 . S
C3673 C3677 1.429 . S
C3674 C3657 1.574 . S
C3674 H3668 0.949 . S
C3674 C3678 1.368 . S
C3675 C3656 1.429 . S
C3675 C3669 1.429 . S
C3675 C3676 1.523 . S
C3676 C3657 1.368 . S
C3676 C3670 1.368 . S
C3676 C3675 1.523 . S
C3677 C3661 1.429 . S
C3677 C3673 1.429 . S
C3677 C3678 1.523 . S
C3678 C3662 1.368 . S
C3678 C3674 1.368 . S
C3678 C3677 1.523 . S
H3679 C3654 0.950 . S
H3680 C3656 0.950 . S
H3681 C3657 0.949 . S
H3682 C3659 0.950 . S
H3683 C3661 0.950 . S
C3684 C3685 1.349 . S
C3684 C3686 1.327 . S
C3684 H3709 0.950 . S
C3685 C3684 1.349 . S
C3685 C3701 1.349 . S
C3686 C3684 1.327 . S
C3686 C3705 1.429 . S
C3686 H3710 0.950 . S
C3687 C3704 1.574 . S
C3687 C3706 1.368 . S
C3687 H3711 0.949 . S
H3688 C3692 0.949 . S
C3689 C3690 1.349 . S
C3689 C3691 1.327 . S
C3689 H3712 0.950 . S
C3690 C3689 1.349 . S
C3690 C3702 1.349 . S
C3691 C3689 1.327 . S
C3691 C3707 1.429 . S
C3691 H3713 0.950 . S
C3692 H3688 0.949 . S
C3692 C3700 1.574 . S
C3692 C3708 1.368 . S
H3693 C3701 0.950 . S
H3694 C3699 0.950 . S
H3695 C3700 0.949 . S
H3696 C3702 0.950 . S
H3697 C3703 0.950 . S
H3698 C3704 0.949 . S
C3699 H3694 0.950 . S
C3699 C3701 1.327 . S
C3699 C3705 1.429 . S
C3700 C3692 1.574 . S
C3700 H3695 0.949 . S
C3700 C3706 1.368 . S
C3701 C3685 1.349 . S
C3701 H3693 0.950 . S
C3701 C3699 1.327 . S
C3702 C3690 1.349 . S
C3702 H3696 0.950 . S
C3702 C3703 1.327 . S
C3703 H3697 0.950 . S
C3703 C3702 1.327 . S
C3703 C3707 1.429 . S
C3704 C3687 1.574 . S
C3704 H3698 0.949 . S
C3704 C3708 1.368 . S
C3705 C3686 1.429 . S
C3705 C3699 1.429 . S
C3705 C3706 1.523 . S
C3706 C3687 1.368 . S
C3706 C3700 1.368 . S
C3706 C3705 1.523 . S
C3707 C3691 1.429 . S
C3707 C3703 1.429 . S
C3707 C3708 1.523 . S
C3708 C3692 1.368 . S
C3708 C3704 1.368 . S
C3708 C3707 1.523 . S
H3709 C3684 0.950 . S
H3710 C3686 0.950 . S
H3711 C3687 0.949 . S
H3712 C3689 0.950 . S
H3713 C3691 0.950 . S
C3714 C3715 1.349 . S
C3714 C3716 1.327 . S
C3714 H3739 0.950 . S
C3715 C3714 1.349 . S
C3715 C3731 1.349 . S
C3716 C3714 1.327 . S
C3716 C3735 1.429 . S
C3716 H3740 0.950 . S
C3717 C3734 1.574 . S
C3717 C3736 1.368 . S
C3717 H3741 0.949 . S
H3718 C3722 0.949 . S
C3719 C3720 1.349 . S
C3719 C3721 1.327 . S
C3719 H3742 0.950 . S
C3720 C3719 1.349 . S
C3720 C3732 1.349 . S
C3721 C3719 1.327 . S
C3721 C3737 1.429 . S
C3721 H3743 0.950 . S
C3722 H3718 0.949 . S
C3722 C3730 1.574 . S
C3722 C3738 1.368 . S
H3723 C3731 0.950 . S
H3724 C3729 0.950 . S
H3725 C3730 0.949 . S
H3726 C3732 0.950 . S
H3727 C3733 0.950 . S
H3728 C3734 0.949 . S
C3729 H3724 0.950 . S
C3729 C3731 1.327 . S
C3729 C3735 1.429 . S
C3730 C3722 1.574 . S
C3730 H3725 0.949 . S
C3730 C3736 1.368 . S
C3731 C3715 1.349 . S
C3731 H3723 0.950 . S
C3731 C3729 1.327 . S
C3732 C3720 1.349 . S
C3732 H3726 0.950 . S
C3732 C3733 1.327 . S
C3733 H3727 0.950 . S
C3733 C3732 1.327 . S
C3733 C3737 1.429 . S
C3734 C3717 1.574 . S
C3734 H3728 0.949 . S
C3734 C3738 1.368 . S
C3735 C3716 1.429 . S
C3735 C3729 1.429 . S
C3735 C3736 1.523 . S
C3736 C3717 1.368 . S
C3736 C3730 1.368 . S
C3736 C3735 1.523 . S
C3737 C3721 1.429 . S
C3737 C3733 1.429 . S
C3737 C3738 1.523 . S
C3738 C3722 1.368 . S
C3738 C3734 1.368 . S
C3738 C3737 1.523 . S
H3739 C3714 0.950 . S
H3740 C3716 0.950 . S
H3741 C3717 0.949 . S
H3742 C3719 0.950 . S
H3743 C3721 0.950 . S
C3744 C3745 1.349 . S
C3744 C3746 1.327 . S
C3744 H3769 0.950 . S
C3745 C3744 1.349 . S
C3745 C3761 1.349 . S
C3746 C3744 1.327 . S
C3746 C3765 1.429 . S
C3746 H3770 0.950 . S
C3747 C3764 1.574 . S
C3747 C3766 1.368 . S
C3747 H3771 0.949 . S
H3748 C3752 0.949 . S
C3749 C3750 1.349 . S
C3749 C3751 1.327 . S
C3749 H3772 0.950 . S
C3750 C3749 1.349 . S
C3750 C3762 1.349 . S
C3751 C3749 1.327 . S
C3751 C3767 1.429 . S
C3751 H3773 0.950 . S
C3752 H3748 0.949 . S
C3752 C3760 1.574 . S
C3752 C3768 1.368 . S
H3753 C3761 0.950 . S
H3754 C3759 0.950 . S
H3755 C3760 0.949 . S
H3756 C3762 0.950 . S
H3757 C3763 0.950 . S
H3758 C3764 0.949 . S
C3759 H3754 0.950 . S
C3759 C3761 1.327 . S
C3759 C3765 1.429 . S
C3760 C3752 1.574 . S
C3760 H3755 0.949 . S
C3760 C3766 1.368 . S
C3761 C3745 1.349 . S
C3761 H3753 0.950 . S
C3761 C3759 1.327 . S
C3762 C3750 1.349 . S
C3762 H3756 0.950 . S
C3762 C3763 1.327 . S
C3763 H3757 0.950 . S
C3763 C3762 1.327 . S
C3763 C3767 1.429 . S
C3764 C3747 1.574 . S
C3764 H3758 0.949 . S
C3764 C3768 1.368 . S
C3765 C3746 1.429 . S
C3765 C3759 1.429 . S
C3765 C3766 1.523 . S
C3766 C3747 1.368 . S
C3766 C3760 1.368 . S
C3766 C3765 1.523 . S
C3767 C3751 1.429 . S
C3767 C3763 1.429 . S
C3767 C3768 1.523 . S
C3768 C3752 1.368 . S
C3768 C3764 1.368 . S
C3768 C3767 1.523 . S
H3769 C3744 0.950 . S
H3770 C3746 0.950 . S
H3771 C3747 0.949 . S
H3772 C3749 0.950 . S
H3773 C3751 0.950 . S
C3774 C3775 1.349 . S
C3774 C3776 1.327 . S
C3774 H3799 0.950 . S
C3775 C3774 1.349 . S
C3775 C3791 1.349 . S
C3776 C3774 1.327 . S
C3776 C3795 1.429 . S
C3776 H3800 0.950 . S
C3777 C3794 1.574 . S
C3777 C3796 1.368 . S
C3777 H3801 0.949 . S
H3778 C3782 0.949 . S
C3779 C3780 1.349 . S
C3779 C3781 1.327 . S
C3779 H3802 0.950 . S
C3780 C3779 1.349 . S
C3780 C3792 1.349 . S
C3781 C3779 1.327 . S
C3781 C3797 1.429 . S
C3781 H3803 0.950 . S
C3782 H3778 0.949 . S
C3782 C3790 1.574 . S
C3782 C3798 1.368 . S
H3783 C3791 0.950 . S
H3784 C3789 0.950 . S
H3785 C3790 0.949 . S
H3786 C3792 0.950 . S
H3787 C3793 0.950 . S
H3788 C3794 0.949 . S
C3789 H3784 0.950 . S
C3789 C3791 1.327 . S
C3789 C3795 1.429 . S
C3790 C3782 1.574 . S
C3790 H3785 0.949 . S
C3790 C3796 1.368 . S
C3791 C3775 1.349 . S
C3791 H3783 0.950 . S
C3791 C3789 1.327 . S
C3792 C3780 1.349 . S
C3792 H3786 0.950 . S
C3792 C3793 1.327 . S
C3793 H3787 0.950 . S
C3793 C3792 1.327 . S
C3793 C3797 1.429 . S
C3794 C3777 1.574 . S
C3794 H3788 0.949 . S
C3794 C3798 1.368 . S
C3795 C3776 1.429 . S
C3795 C3789 1.429 . S
C3795 C3796 1.523 . S
C3796 C3777 1.368 . S
C3796 C3790 1.368 . S
C3796 C3795 1.523 . S
C3797 C3781 1.429 . S
C3797 C3793 1.429 . S
C3797 C3798 1.523 . S
C3798 C3782 1.368 . S
C3798 C3794 1.368 . S
C3798 C3797 1.523 . S
H3799 C3774 0.950 . S
H3800 C3776 0.950 . S
H3801 C3777 0.949 . S
H3802 C3779 0.950 . S
H3803 C3781 0.950 . S
C3804 C3805 1.349 . S
C3804 C3806 1.327 . S
C3804 H3829 0.950 . S
C3805 C3804 1.349 . S
C3805 C3821 1.349 . S
C3806 C3804 1.327 . S
C3806 C3825 1.429 . S
C3806 H3830 0.950 . S
C3807 C3824 1.574 . S
C3807 C3826 1.368 . S
C3807 H3831 0.949 . S
H3808 C3812 0.949 . S
C3809 C3810 1.349 . S
C3809 C3811 1.327 . S
C3809 H3832 0.950 . S
C3810 C3809 1.349 . S
C3810 C3822 1.349 . S
C3811 C3809 1.327 . S
C3811 C3827 1.429 . S
C3811 H3833 0.950 . S
C3812 H3808 0.949 . S
C3812 C3820 1.574 . S
C3812 C3828 1.368 . S
H3813 C3821 0.950 . S
H3814 C3819 0.950 . S
H3815 C3820 0.949 . S
H3816 C3822 0.950 . S
H3817 C3823 0.950 . S
H3818 C3824 0.949 . S
C3819 H3814 0.950 . S
C3819 C3821 1.327 . S
C3819 C3825 1.429 . S
C3820 C3812 1.574 . S
C3820 H3815 0.949 . S
C3820 C3826 1.368 . S
C3821 C3805 1.349 . S
C3821 H3813 0.950 . S
C3821 C3819 1.327 . S
C3822 C3810 1.349 . S
C3822 H3816 0.950 . S
C3822 C3823 1.327 . S
C3823 H3817 0.950 . S
C3823 C3822 1.327 . S
C3823 C3827 1.429 . S
C3824 C3807 1.574 . S
C3824 H3818 0.949 . S
C3824 C3828 1.368 . S
C3825 C3806 1.429 . S
C3825 C3819 1.429 . S
C3825 C3826 1.523 . S
C3826 C3807 1.368 . S
C3826 C3820 1.368 . S
C3826 C3825 1.523 . S
C3827 C3811 1.429 . S
C3827 C3823 1.429 . S
C3827 C3828 1.523 . S
C3828 C3812 1.368 . S
C3828 C3824 1.368 . S
C3828 C3827 1.523 . S
H3829 C3804 0.950 . S
H3830 C3806 0.950 . S
H3831 C3807 0.949 . S
H3832 C3809 0.950 . S
H3833 C3811 0.950 . S
C3834 C3835 1.349 . S
C3834 C3836 1.327 . S
C3834 H3859 0.950 . S
C3835 C3834 1.349 . S
C3835 C3851 1.349 . S
C3836 C3834 1.327 . S
C3836 C3855 1.429 . S
C3836 H3860 0.950 . S
C3837 C3854 1.574 . S
C3837 C3856 1.368 . S
C3837 H3861 0.949 . S
H3838 C3842 0.949 . S
C3839 C3840 1.349 . S
C3839 C3841 1.327 . S
C3839 H3862 0.950 . S
C3840 C3839 1.349 . S
C3840 C3852 1.349 . S
C3841 C3839 1.327 . S
C3841 C3857 1.429 . S
C3841 H3863 0.950 . S
C3842 H3838 0.949 . S
C3842 C3850 1.574 . S
C3842 C3858 1.368 . S
H3843 C3851 0.950 . S
H3844 C3849 0.950 . S
H3845 C3850 0.949 . S
H3846 C3852 0.950 . S
H3847 C3853 0.950 . S
H3848 C3854 0.949 . S
C3849 H3844 0.950 . S
C3849 C3851 1.327 . S
C3849 C3855 1.429 . S
C3850 C3842 1.574 . S
C3850 H3845 0.949 . S
C3850 C3856 1.368 . S
C3851 C3835 1.349 . S
C3851 H3843 0.950 . S
C3851 C3849 1.327 . S
C3852 C3840 1.349 . S
C3852 H3846 0.950 . S
C3852 C3853 1.327 . S
C3853 H3847 0.950 . S
C3853 C3852 1.327 . S
C3853 C3857 1.429 . S
C3854 C3837 1.574 . S
C3854 H3848 0.949 . S
C3854 C3858 1.368 . S
C3855 C3836 1.429 . S
C3855 C3849 1.429 . S
C3855 C3856 1.523 . S
C3856 C3837 1.368 . S
C3856 C3850 1.368 . S
C3856 C3855 1.523 . S
C3857 C3841 1.429 . S
C3857 C3853 1.429 . S
C3857 C3858 1.523 . S
C3858 C3842 1.368 . S
C3858 C3854 1.368 . S
C3858 C3857 1.523 . S
H3859 C3834 0.950 . S
H3860 C3836 0.950 . S
H3861 C3837 0.949 . S
H3862 C3839 0.950 . S
H3863 C3841 0.950 . S
C3864 C3865 1.349 . S
C3864 C3866 1.327 . S
C3864 H3889 0.950 . S
C3865 C3864 1.349 . S
C3865 C3881 1.349 . S
C3866 C3864 1.327 . S
C3866 C3885 1.429 . S
C3866 H3890 0.950 . S
C3867 C3884 1.574 . S
C3867 C3886 1.368 . S
C3867 H3891 0.949 . S
H3868 C3872 0.949 . S
C3869 C3870 1.349 . S
C3869 C3871 1.327 . S
C3869 H3892 0.950 . S
C3870 C3869 1.349 . S
C3870 C3882 1.349 . S
C3871 C3869 1.327 . S
C3871 C3887 1.429 . S
C3871 H3893 0.950 . S
C3872 H3868 0.949 . S
C3872 C3880 1.574 . S
C3872 C3888 1.368 . S
H3873 C3881 0.950 . S
H3874 C3879 0.950 . S
H3875 C3880 0.949 . S
H3876 C3882 0.950 . S
H3877 C3883 0.950 . S
H3878 C3884 0.949 . S
C3879 H3874 0.950 . S
C3879 C3881 1.327 . S
C3879 C3885 1.429 . S
C3880 C3872 1.574 . S
C3880 H3875 0.949 . S
C3880 C3886 1.368 . S
C3881 C3865 1.349 . S
C3881 H3873 0.950 . S
C3881 C3879 1.327 . S
C3882 C3870 1.349 . S
C3882 H3876 0.950 . S
C3882 C3883 1.327 . S
C3883 H3877 0.950 . S
C3883 C3882 1.327 . S
C3883 C3887 1.429 . S
C3884 C3867 1.574 . S
C3884 H3878 0.949 . S
C3884 C3888 1.368 . S
C3885 C3866 1.429 . S
C3885 C3879 1.429 . S
C3885 C3886 1.523 . S
C3886 C3867 1.368 . S
C3886 C3880 1.368 . S
C3886 C3885 1.523 . S
C3887 C3871 1.429 . S
C3887 C3883 1.429 . S
C3887 C3888 1.523 . S
C3888 C3872 1.368 . S
C3888 C3884 1.368 . S
C3888 C3887 1.523 . S
H3889 C3864 0.950 . S
H3890 C3866 0.950 . S
H3891 C3867 0.949 . S
H3892 C3869 0.950 . S
H3893 C3871 0.950 . S
C3894 C3895 1.349 . S
C3894 C3896 1.327 . S
C3894 H3919 0.950 . S
C3895 C3894 1.349 . S
C3895 C3911 1.349 . S
C3896 C3894 1.327 . S
C3896 C3915 1.429 . S
C3896 H3920 0.950 . S
C3897 C3914 1.574 . S
C3897 C3916 1.368 . S
C3897 H3921 0.949 . S
H3898 C3902 0.949 . S
C3899 C3900 1.349 . S
C3899 C3901 1.327 . S
C3899 H3922 0.950 . S
C3900 C3899 1.349 . S
C3900 C3912 1.349 . S
C3901 C3899 1.327 . S
C3901 C3917 1.429 . S
C3901 H3923 0.950 . S
C3902 H3898 0.949 . S
C3902 C3910 1.574 . S
C3902 C3918 1.368 . S
H3903 C3911 0.950 . S
H3904 C3909 0.950 . S
H3905 C3910 0.949 . S
H3906 C3912 0.950 . S
H3907 C3913 0.950 . S
H3908 C3914 0.949 . S
C3909 H3904 0.950 . S
C3909 C3911 1.327 . S
C3909 C3915 1.429 . S
C3910 C3902 1.574 . S
C3910 H3905 0.949 . S
C3910 C3916 1.368 . S
C3911 C3895 1.349 . S
C3911 H3903 0.950 . S
C3911 C3909 1.327 . S
C3912 C3900 1.349 . S
C3912 H3906 0.950 . S
C3912 C3913 1.327 . S
C3913 H3907 0.950 . S
C3913 C3912 1.327 . S
C3913 C3917 1.429 . S
C3914 C3897 1.574 . S
C3914 H3908 0.949 . S
C3914 C3918 1.368 . S
C3915 C3896 1.429 . S
C3915 C3909 1.429 . S
C3915 C3916 1.523 . S
C3916 C3897 1.368 . S
C3916 C3910 1.368 . S
C3916 C3915 1.523 . S
C3917 C3901 1.429 . S
C3917 C3913 1.429 . S
C3917 C3918 1.523 . S
C3918 C3902 1.368 . S
C3918 C3914 1.368 . S
C3918 C3917 1.523 . S
H3919 C3894 0.950 . S
H3920 C3896 0.950 . S
H3921 C3897 0.949 . S
H3922 C3899 0.950 . S
H3923 C3901 0.950 . S
C3924 C3925 1.349 . S
C3924 C3926 1.327 . S
C3924 H3949 0.950 . S
C3925 C3924 1.349 . S
C3925 C3941 1.349 . S
C3926 C3924 1.327 . S
C3926 C3945 1.429 . S
C3926 H3950 0.950 . S
C3927 C3944 1.574 . S
C3927 C3946 1.368 . S
C3927 H3951 0.949 . S
H3928 C3932 0.949 . S
C3929 C3930 1.349 . S
C3929 C3931 1.327 . S
C3929 H3952 0.950 . S
C3930 C3929 1.349 . S
C3930 C3942 1.349 . S
C3931 C3929 1.327 . S
C3931 C3947 1.429 . S
C3931 H3953 0.950 . S
C3932 H3928 0.949 . S
C3932 C3940 1.574 . S
C3932 C3948 1.368 . S
H3933 C3941 0.950 . S
H3934 C3939 0.950 . S
H3935 C3940 0.949 . S
H3936 C3942 0.950 . S
H3937 C3943 0.950 . S
H3938 C3944 0.949 . S
C3939 H3934 0.950 . S
C3939 C3941 1.327 . S
C3939 C3945 1.429 . S
C3940 C3932 1.574 . S
C3940 H3935 0.949 . S
C3940 C3946 1.368 . S
C3941 C3925 1.349 . S
C3941 H3933 0.950 . S
C3941 C3939 1.327 . S
C3942 C3930 1.349 . S
C3942 H3936 0.950 . S
C3942 C3943 1.327 . S
C3943 H3937 0.950 . S
C3943 C3942 1.327 . S
C3943 C3947 1.429 . S
C3944 C3927 1.574 . S
C3944 H3938 0.949 . S
C3944 C3948 1.368 . S
C3945 C3926 1.429 . S
C3945 C3939 1.429 . S
C3945 C3946 1.523 . S
C3946 C3927 1.368 . S
C3946 C3940 1.368 . S
C3946 C3945 1.523 . S
C3947 C3931 1.429 . S
C3947 C3943 1.429 . S
C3947 C3948 1.523 . S
C3948 C3932 1.368 . S
C3948 C3944 1.368 . S
C3948 C3947 1.523 . S
H3949 C3924 0.950 . S
H3950 C3926 0.950 . S
H3951 C3927 0.949 . S
H3952 C3929 0.950 . S
H3953 C3931 0.950 . S
C3954 C3955 1.349 . S
C3954 C3956 1.327 . S
C3954 H3979 0.950 . S
C3955 C3954 1.349 . S
C3955 C3971 1.349 . S
C3956 C3954 1.327 . S
C3956 C3975 1.429 . S
C3956 H3980 0.950 . S
C3957 C3974 1.574 . S
C3957 C3976 1.368 . S
C3957 H3981 0.949 . S
H3958 C3962 0.949 . S
C3959 C3960 1.349 . S
C3959 C3961 1.327 . S
C3959 H3982 0.950 . S
C3960 C3959 1.349 . S
C3960 C3972 1.349 . S
C3961 C3959 1.327 . S
C3961 C3977 1.429 . S
C3961 H3983 0.950 . S
C3962 H3958 0.949 . S
C3962 C3970 1.574 . S
C3962 C3978 1.368 . S
H3963 C3971 0.950 . S
H3964 C3969 0.950 . S
H3965 C3970 0.949 . S
H3966 C3972 0.950 . S
H3967 C3973 0.950 . S
H3968 C3974 0.949 . S
C3969 H3964 0.950 . S
C3969 C3971 1.327 . S
C3969 C3975 1.429 . S
C3970 C3962 1.574 . S
C3970 H3965 0.949 . S
C3970 C3976 1.368 . S
C3971 C3955 1.349 . S
C3971 H3963 0.950 . S
C3971 C3969 1.327 . S
C3972 C3960 1.349 . S
C3972 H3966 0.950 . S
C3972 C3973 1.327 . S
C3973 H3967 0.950 . S
C3973 C3972 1.327 . S
C3973 C3977 1.429 . S
C3974 C3957 1.574 . S
C3974 H3968 0.949 . S
C3974 C3978 1.368 . S
C3975 C3956 1.429 . S
C3975 C3969 1.429 . S
C3975 C3976 1.523 . S
C3976 C3957 1.368 . S
C3976 C3970 1.368 . S
C3976 C3975 1.523 . S
C3977 C3961 1.429 . S
C3977 C3973 1.429 . S
C3977 C3978 1.523 . S
C3978 C3962 1.368 . S
C3978 C3974 1.368 . S
C3978 C3977 1.523 . S
H3979 C3954 0.950 . S
H3980 C3956 0.950 . S
H3981 C3957 0.949 . S
H3982 C3959 0.950 . S
H3983 C3961 0.950 . S
C3984 C3985 1.349 . S
C3984 C3986 1.327 . S
C3984 H4009 0.950 . S
C3985 C3984 1.349 . S
C3985 C4001 1.349 . S
C3986 C3984 1.327 . S
C3986 C4005 1.429 . S
C3986 H4010 0.950 . S
C3987 C4004 1.574 . S
C3987 C4006 1.368 . S
C3987 H4011 0.949 . S
H3988 C3992 0.949 . S
C3989 C3990 1.349 . S
C3989 C3991 1.327 . S
C3989 H4012 0.950 . S
C3990 C3989 1.349 . S
C3990 C4002 1.349 . S
C3991 C3989 1.327 . S
C3991 C4007 1.429 . S
C3991 H4013 0.950 . S
C3992 H3988 0.949 . S
C3992 C4000 1.574 . S
C3992 C4008 1.368 . S
H3993 C4001 0.950 . S
H3994 C3999 0.950 . S
H3995 C4000 0.949 . S
H3996 C4002 0.950 . S
H3997 C4003 0.950 . S
H3998 C4004 0.949 . S
C3999 H3994 0.950 . S
C3999 C4001 1.327 . S
C3999 C4005 1.429 . S
C4000 C3992 1.574 . S
C4000 H3995 0.949 . S
C4000 C4006 1.368 . S
C4001 C3985 1.349 . S
C4001 H3993 0.950 . S
C4001 C3999 1.327 . S
C4002 C3990 1.349 . S
C4002 H3996 0.950 . S
C4002 C4003 1.327 . S
C4003 H3997 0.950 . S
C4003 C4002 1.327 . S
C4003 C4007 1.429 . S
C4004 C3987 1.574 . S
C4004 H3998 0.949 . S
C4004 C4008 1.368 . S
C4005 C3986 1.429 . S
C4005 C3999 1.429 . S
C4005 C4006 1.523 . S
C4006 C3987 1.368 . S
C4006 C4000 1.368 . S
C4006 C4005 1.523 . S
C4007 C3991 1.429 . S
C4007 C4003 1.429 . S
C4007 C4008 1.523 . S
C4008 C3992 1.368 . S
C4008 C4004 1.368 . S
C4008 C4007 1.523 . S
H4009 C3984 0.950 . S
H4010 C3986 0.950 . S
H4011 C3987 0.949 . S
H4012 C3989 0.950 . S
H4013 C3991 0.950 . S
C4014 C4015 1.349 . S
C4014 C4016 1.327 . S
C4014 H4039 0.950 . S
C4015 C4014 1.349 . S
C4015 C4031 1.349 . S
C4016 C4014 1.327 . S
C4016 C4035 1.429 . S
C4016 H4040 0.950 . S
C4017 C4034 1.574 . S
C4017 C4036 1.368 . S
C4017 H4041 0.949 . S
H4018 C4022 0.949 . S
C4019 C4020 1.349 . S
C4019 C4021 1.327 . S
C4019 H4042 0.950 . S
C4020 C4019 1.349 . S
C4020 C4032 1.349 . S
C4021 C4019 1.327 . S
C4021 C4037 1.429 . S
C4021 H4043 0.950 . S
C4022 H4018 0.949 . S
C4022 C4030 1.574 . S
C4022 C4038 1.368 . S
H4023 C4031 0.950 . S
H4024 C4029 0.950 . S
H4025 C4030 0.949 . S
H4026 C4032 0.950 . S
H4027 C4033 0.950 . S
H4028 C4034 0.949 . S
C4029 H4024 0.950 . S
C4029 C4031 1.327 . S
C4029 C4035 1.429 . S
C4030 C4022 1.574 . S
C4030 H4025 0.949 . S
C4030 C4036 1.368 . S
C4031 C4015 1.349 . S
C4031 H4023 0.950 . S
C4031 C4029 1.327 . S
C4032 C4020 1.349 . S
C4032 H4026 0.950 . S
C4032 C4033 1.327 . S
C4033 H4027 0.950 . S
C4033 C4032 1.327 . S
C4033 C4037 1.429 . S
C4034 C4017 1.574 . S
C4034 H4028 0.949 . S
C4034 C4038 1.368 . S
C4035 C4016 1.429 . S
C4035 C4029 1.429 . S
C4035 C4036 1.523 . S
C4036 C4017 1.368 . S
C4036 C4030 1.368 . S
C4036 C4035 1.523 . S
C4037 C4021 1.429 . S
C4037 C4033 1.429 . S
C4037 C4038 1.523 . S
C4038 C4022 1.368 . S
C4038 C4034 1.368 . S
C4038 C4037 1.523 . S
H4039 C4014 0.950 . S
H4040 C4016 0.950 . S
H4041 C4017 0.949 . S
H4042 C4019 0.950 . S
H4043 C4021 0.950 . S
C4044 C4045 1.349 . S
C4044 C4046 1.327 . S
C4044 H4069 0.950 . S
C4045 C4044 1.349 . S
C4045 C4061 1.349 . S
C4046 C4044 1.327 . S
C4046 C4065 1.429 . S
C4046 H4070 0.950 . S
C4047 C4064 1.574 . S
C4047 C4066 1.368 . S
C4047 H4071 0.949 . S
H4048 C4052 0.949 . S
C4049 C4050 1.349 . S
C4049 C4051 1.327 . S
C4049 H4072 0.950 . S
C4050 C4049 1.349 . S
C4050 C4062 1.349 . S
C4051 C4049 1.327 . S
C4051 C4067 1.429 . S
C4051 H4073 0.950 . S
C4052 H4048 0.949 . S
C4052 C4060 1.574 . S
C4052 C4068 1.368 . S
H4053 C4061 0.950 . S
H4054 C4059 0.950 . S
H4055 C4060 0.949 . S
H4056 C4062 0.950 . S
H4057 C4063 0.950 . S
H4058 C4064 0.949 . S
C4059 H4054 0.950 . S
C4059 C4061 1.327 . S
C4059 C4065 1.429 . S
C4060 C4052 1.574 . S
C4060 H4055 0.949 . S
C4060 C4066 1.368 . S
C4061 C4045 1.349 . S
C4061 H4053 0.950 . S
C4061 C4059 1.327 . S
C4062 C4050 1.349 . S
C4062 H4056 0.950 . S
C4062 C4063 1.327 . S
C4063 H4057 0.950 . S
C4063 C4062 1.327 . S
C4063 C4067 1.429 . S
C4064 C4047 1.574 . S
C4064 H4058 0.949 . S
C4064 C4068 1.368 . S
C4065 C4046 1.429 . S
C4065 C4059 1.429 . S
C4065 C4066 1.523 . S
C4066 C4047 1.368 . S
C4066 C4060 1.368 . S
C4066 C4065 1.523 . S
C4067 C4051 1.429 . S
C4067 C4063 1.429 . S
C4067 C4068 1.523 . S
C4068 C4052 1.368 . S
C4068 C4064 1.368 . S
C4068 C4067 1.523 . S
H4069 C4044 0.950 . S
H4070 C4046 0.950 . S
H4071 C4047 0.949 . S
H4072 C4049 0.950 . S
H4073 C4051 0.950 . S
C4074 C4075 1.349 . S
C4074 C4076 1.327 . S
C4074 H4099 0.950 . S
C4075 C4074 1.349 . S
C4075 C4091 1.349 . S
C4076 C4074 1.327 . S
C4076 C4095 1.429 . S
C4076 H4100 0.950 . S
C4077 C4094 1.574 . S
C4077 C4096 1.368 . S
C4077 H4101 0.949 . S
H4078 C4082 0.949 . S
C4079 C4080 1.349 . S
C4079 C4081 1.327 . S
C4079 H4102 0.950 . S
C4080 C4079 1.349 . S
C4080 C4092 1.349 . S
C4081 C4079 1.327 . S
C4081 C4097 1.429 . S
C4081 H4103 0.950 . S
C4082 H4078 0.949 . S
C4082 C4090 1.574 . S
C4082 C4098 1.368 . S
H4083 C4091 0.950 . S
H4084 C4089 0.950 . S
H4085 C4090 0.949 . S
H4086 C4092 0.950 . S
H4087 C4093 0.950 . S
H4088 C4094 0.949 . S
C4089 H4084 0.950 . S
C4089 C4091 1.327 . S
C4089 C4095 1.429 . S
C4090 C4082 1.574 . S
C4090 H4085 0.949 . S
C4090 C4096 1.368 . S
C4091 C4075 1.349 . S
C4091 H4083 0.950 . S
C4091 C4089 1.327 . S
C4092 C4080 1.349 . S
C4092 H4086 0.950 . S
C4092 C4093 1.327 . S
C4093 H4087 0.950 . S
C4093 C4092 1.327 . S
C4093 C4097 1.429 . S
C4094 C4077 1.574 . S
C4094 H4088 0.949 . S
C4094 C4098 1.368 . S
C4095 C4076 1.429 . S
C4095 C4089 1.429 . S
C4095 C4096 1.523 . S
C4096 C4077 1.368 . S
C4096 C4090 1.368 . S
C4096 C4095 1.523 . S
C4097 C4081 1.429 . S
C4097 C4093 1.429 . S
C4097 C4098 1.523 . S
C4098 C4082 1.368 . S
C4098 C4094 1.368 . S
C4098 C4097 1.523 . S
H4099 C4074 0.950 . S
H4100 C4076 0.950 . S
H4101 C4077 0.949 . S
H4102 C4079 0.950 . S
H4103 C4081 0.950 . S
C4104 C4105 1.349 . S
C4104 C4106 1.327 . S
C4104 H4129 0.950 . S
C4105 C4104 1.349 . S
C4105 C4121 1.349 . S
C4106 C4104 1.327 . S
C4106 C4125 1.429 . S
C4106 H4130 0.950 . S
C4107 C4124 1.574 . S
C4107 C4126 1.368 . S
C4107 H4131 0.949 . S
H4108 C4112 0.949 . S
C4109 C4110 1.349 . S
C4109 C4111 1.327 . S
C4109 H4132 0.950 . S
C4110 C4109 1.349 . S
C4110 C4122 1.349 . S
C4111 C4109 1.327 . S
C4111 C4127 1.429 . S
C4111 H4133 0.950 . S
C4112 H4108 0.949 . S
C4112 C4120 1.574 . S
C4112 C4128 1.368 . S
H4113 C4121 0.950 . S
H4114 C4119 0.950 . S
H4115 C4120 0.949 . S
H4116 C4122 0.950 . S
H4117 C4123 0.950 . S
H4118 C4124 0.949 . S
C4119 H4114 0.950 . S
C4119 C4121 1.327 . S
C4119 C4125 1.429 . S
C4120 C4112 1.574 . S
C4120 H4115 0.949 . S
C4120 C4126 1.368 . S
C4121 C4105 1.349 . S
C4121 H4113 0.950 . S
C4121 C4119 1.327 . S
C4122 C4110 1.349 . S
C4122 H4116 0.950 . S
C4122 C4123 1.327 . S
C4123 H4117 0.950 . S
C4123 C4122 1.327 . S
C4123 C4127 1.429 . S
C4124 C4107 1.574 . S
C4124 H4118 0.949 . S
C4124 C4128 1.368 . S
C4125 C4106 1.429 . S
C4125 C4119 1.429 . S
C4125 C4126 1.523 . S
C4126 C4107 1.368 . S
C4126 C4120 1.368 . S
C4126 C4125 1.523 . S
C4127 C4111 1.429 . S
C4127 C4123 1.429 . S
C4127 C4128 1.523 . S
C4128 C4112 1.368 . S
C4128 C4124 1.368 . S
C4128 C4127 1.523 . S
H4129 C4104 0.950 . S
H4130 C4106 0.950 . S
H4131 C4107 0.949 . S
H4132 C4109 0.950 . S
H4133 C4111 0.950 . S
C4134 C4135 1.349 . S
C4134 C4136 1.327 . S
C4134 H4159 0.950 . S
C4135 C4134 1.349 . S
C4135 C4151 1.349 . S
C4136 C4134 1.327 . S
C4136 C4155 1.429 . S
C4136 H4160 0.950 . S
C4137 C4154 1.574 . S
C4137 C4156 1.368 . S
C4137 H4161 0.949 . S
H4138 C4142 0.949 . S
C4139 C4140 1.349 . S
C4139 C4141 1.327 . S
C4139 H4162 0.950 . S
C4140 C4139 1.349 . S
C4140 C4152 1.349 . S
C4141 C4139 1.327 . S
C4141 C4157 1.429 . S
C4141 H4163 0.950 . S
C4142 H4138 0.949 . S
C4142 C4150 1.574 . S
C4142 C4158 1.368 . S
H4143 C4151 0.950 . S
H4144 C4149 0.950 . S
H4145 C4150 0.949 . S
H4146 C4152 0.950 . S
H4147 C4153 0.950 . S
H4148 C4154 0.949 . S
C4149 H4144 0.950 . S
C4149 C4151 1.327 . S
C4149 C4155 1.429 . S
C4150 C4142 1.574 . S
C4150 H4145 0.949 . S
C4150 C4156 1.368 . S
C4151 C4135 1.349 . S
C4151 H4143 0.950 . S
C4151 C4149 1.327 . S
C4152 C4140 1.349 . S
C4152 H4146 0.950 . S
C4152 C4153 1.327 . S
C4153 H4147 0.950 . S
C4153 C4152 1.327 . S
C4153 C4157 1.429 . S
C4154 C4137 1.574 . S
C4154 H4148 0.949 . S
C4154 C4158 1.368 . S
C4155 C4136 1.429 . S
C4155 C4149 1.429 . S
C4155 C4156 1.523 . S
C4156 C4137 1.368 . S
C4156 C4150 1.368 . S
C4156 C4155 1.523 . S
C4157 C4141 1.429 . S
C4157 C4153 1.429 . S
C4157 C4158 1.523 . S
C4158 C4142 1.368 . S
C4158 C4154 1.368 . S
C4158 C4157 1.523 . S
H4159 C4134 0.950 . S
H4160 C4136 0.950 . S
H4161 C4137 0.949 . S
H4162 C4139 0.950 . S
H4163 C4141 0.950 . S
C4164 C4165 1.349 . S
C4164 C4166 1.327 . S
C4164 H4189 0.950 . S
C4165 C4164 1.349 . S
C4165 C4181 1.349 . S
C4166 C4164 1.327 . S
C4166 C4185 1.429 . S
C4166 H4190 0.950 . S
C4167 C4184 1.574 . S
C4167 C4186 1.368 . S
C4167 H4191 0.949 . S
H4168 C4172 0.949 . S
C4169 C4170 1.349 . S
C4169 C4171 1.327 . S
C4169 H4192 0.950 . S
C4170 C4169 1.349 . S
C4170 C4182 1.349 . S
C4171 C4169 1.327 . S
C4171 C4187 1.429 . S
C4171 H4193 0.950 . S
C4172 H4168 0.949 . S
C4172 C4180 1.574 . S
C4172 C4188 1.368 . S
H4173 C4181 0.950 . S
H4174 C4179 0.950 . S
H4175 C4180 0.949 . S
H4176 C4182 0.950 . S
H4177 C4183 0.950 . S
H4178 C4184 0.949 . S
C4179 H4174 0.950 . S
C4179 C4181 1.327 . S
C4179 C4185 1.429 . S
C4180 C4172 1.574 . S
C4180 H4175 0.949 . S
C4180 C4186 1.368 . S
C4181 C4165 1.349 . S
C4181 H4173 0.950 . S
C4181 C4179 1.327 . S
C4182 C4170 1.349 . S
C4182 H4176 0.950 . S
C4182 C4183 1.327 . S
C4183 H4177 0.950 . S
C4183 C4182 1.327 . S
C4183 C4187 1.429 . S
C4184 C4167 1.574 . S
C4184 H4178 0.949 . S
C4184 C4188 1.368 . S
C4185 C4166 1.429 . S
C4185 C4179 1.429 . S
C4185 C4186 1.523 . S
C4186 C4167 1.368 . S
C4186 C4180 1.368 . S
C4186 C4185 1.523 . S
C4187 C4171 1.429 . S
C4187 C4183 1.429 . S
C4187 C4188 1.523 . S
C4188 C4172 1.368 . S
C4188 C4184 1.368 . S
C4188 C4187 1.523 . S
H4189 C4164 0.950 . S
H4190 C4166 0.950 . S
H4191 C4167 0.949 . S
H4192 C4169 0.950 . S
H4193 C4171 0.950 . S
C4194 C4195 1.349 . S
C4194 C4196 1.327 . S
C4194 H4219 0.950 . S
C4195 C4194 1.349 . S
C4195 C4211 1.349 . S
C4196 C4194 1.327 . S
C4196 C4215 1.429 . S
C4196 H4220 0.950 . S
C4197 C4214 1.574 . S
C4197 C4216 1.368 . S
C4197 H4221 0.949 . S
H4198 C4202 0.949 . S
C4199 C4200 1.349 . S
C4199 C4201 1.327 . S
C4199 H4222 0.950 . S
C4200 C4199 1.349 . S
C4200 C4212 1.349 . S
C4201 C4199 1.327 . S
C4201 C4217 1.429 . S
C4201 H4223 0.950 . S
C4202 H4198 0.949 . S
C4202 C4210 1.574 . S
C4202 C4218 1.368 . S
H4203 C4211 0.950 . S
H4204 C4209 0.950 . S
H4205 C4210 0.949 . S
H4206 C4212 0.950 . S
H4207 C4213 0.950 . S
H4208 C4214 0.949 . S
C4209 H4204 0.950 . S
C4209 C4211 1.327 . S
C4209 C4215 1.429 . S
C4210 C4202 1.574 . S
C4210 H4205 0.949 . S
C4210 C4216 1.368 . S
C4211 C4195 1.349 . S
C4211 H4203 0.950 . S
C4211 C4209 1.327 . S
C4212 C4200 1.349 . S
C4212 H4206 0.950 . S
C4212 C4213 1.327 . S
C4213 H4207 0.950 . S
C4213 C4212 1.327 . S
C4213 C4217 1.429 . S
C4214 C4197 1.574 . S
C4214 H4208 0.949 . S
C4214 C4218 1.368 . S
C4215 C4196 1.429 . S
C4215 C4209 1.429 . S
C4215 C4216 1.523 . S
C4216 C4197 1.368 . S
C4216 C4210 1.368 . S
C4216 C4215 1.523 . S
C4217 C4201 1.429 . S
C4217 C4213 1.429 . S
C4217 C4218 1.523 . S
C4218 C4202 1.368 . S
C4218 C4214 1.368 . S
C4218 C4217 1.523 . S
H4219 C4194 0.950 . S
H4220 C4196 0.950 . S
H4221 C4197 0.949 . S
H4222 C4199 0.950 . S
H4223 C4201 0.950 . S
C4224 C4225 1.349 . S
C4224 C4226 1.327 . S
C4224 H4249 0.950 . S
C4225 C4224 1.349 . S
C4225 C4241 1.349 . S
C4226 C4224 1.327 . S
C4226 C4245 1.429 . S
C4226 H4250 0.950 . S
C4227 C4244 1.574 . S
C4227 C4246 1.368 . S
C4227 H4251 0.949 . S
H4228 C4232 0.949 . S
C4229 C4230 1.349 . S
C4229 C4231 1.327 . S
C4229 H4252 0.950 . S
C4230 C4229 1.349 . S
C4230 C4242 1.349 . S
C4231 C4229 1.327 . S
C4231 C4247 1.429 . S
C4231 H4253 0.950 . S
C4232 H4228 0.949 . S
C4232 C4240 1.574 . S
C4232 C4248 1.368 . S
H4233 C4241 0.950 . S
H4234 C4239 0.950 . S
H4235 C4240 0.949 . S
H4236 C4242 0.950 . S
H4237 C4243 0.950 . S
H4238 C4244 0.949 . S
C4239 H4234 0.950 . S
C4239 C4241 1.327 . S
C4239 C4245 1.429 . S
C4240 C4232 1.574 . S
C4240 H4235 0.949 . S
C4240 C4246 1.368 . S
C4241 C4225 1.349 . S
C4241 H4233 0.950 . S
C4241 C4239 1.327 . S
C4242 C4230 1.349 . S
C4242 H4236 0.950 . S
C4242 C4243 1.327 . S
C4243 H4237 0.950 . S
C4243 C4242 1.327 . S
C4243 C4247 1.429 . S
C4244 C4227 1.574 . S
C4244 H4238 0.949 . S
C4244 C4248 1.368 . S
C4245 C4226 1.429 . S
C4245 C4239 1.429 . S
C4245 C4246 1.523 . S
C4246 C4227 1.368 . S
C4246 C4240 1.368 . S
C4246 C4245 1.523 . S
C4247 C4231 1.429 . S
C4247 C4243 1.429 . S
C4247 C4248 1.523 . S
C4248 C4232 1.368 . S
C4248 C4244 1.368 . S
C4248 C4247 1.523 . S
H4249 C4224 0.950 . S
H4250 C4226 0.950 . S
H4251 C4227 0.949 . S
H4252 C4229 0.950 . S
H4253 C4231 0.950 . S
C4254 C4255 1.349 . S
C4254 C4256 1.327 . S
C4254 H4279 0.950 . S
C4255 C4254 1.349 . S
C4255 C4271 1.349 . S
C4256 C4254 1.327 . S
C4256 C4275 1.429 . S
C4256 H4280 0.950 . S
C4257 C4274 1.574 . S
C4257 C4276 1.368 . S
C4257 H4281 0.949 . S
H4258 C4262 0.949 . S
C4259 C4260 1.349 . S
C4259 C4261 1.327 . S
C4259 H4282 0.950 . S
C4260 C4259 1.349 . S
C4260 C4272 1.349 . S
C4261 C4259 1.327 . S
C4261 C4277 1.429 . S
C4261 H4283 0.950 . S
C4262 H4258 0.949 . S
C4262 C4270 1.574 . S
C4262 C4278 1.368 . S
H4263 C4271 0.950 . S
H4264 C4269 0.950 . S
H4265 C4270 0.949 . S
H4266 C4272 0.950 . S
H4267 C4273 0.950 . S
H4268 C4274 0.949 . S
C4269 H4264 0.950 . S
C4269 C4271 1.327 . S
C4269 C4275 1.429 . S
C4270 C4262 1.574 . S
C4270 H4265 0.949 . S
C4270 C4276 1.368 . S
C4271 C4255 1.349 . S
C4271 H4263 0.950 . S
C4271 C4269 1.327 . S
C4272 C4260 1.349 . S
C4272 H4266 0.950 . S
C4272 C4273 1.327 . S
C4273 H4267 0.950 . S
C4273 C4272 1.327 . S
C4273 C4277 1.429 . S
C4274 C4257 1.574 . S
C4274 H4268 0.949 . S
C4274 C4278 1.368 . S
C4275 C4256 1.429 . S
C4275 C4269 1.429 . S
C4275 C4276 1.523 . S
C4276 C4257 1.368 . S
C4276 C4270 1.368 . S
C4276 C4275 1.523 . S
C4277 C4261 1.429 . S
C4277 C4273 1.429 . S
C4277 C4278 1.523 . S
C4278 C4262 1.368 . S
C4278 C4274 1.368 . S
C4278 C4277 1.523 . S
H4279 C4254 0.950 . S
H4280 C4256 0.950 . S
H4281 C4257 0.949 . S
H4282 C4259 0.950 . S
H4283 C4261 0.950 . S
C4284 C4285 1.349 . S
C4284 C4286 1.327 . S
C4284 H4309 0.950 . S
C4285 C4284 1.349 . S
C4285 C4301 1.349 . S
C4286 C4284 1.327 . S
C4286 C4305 1.429 . S
C4286 H4310 0.950 . S
C4287 C4304 1.574 . S
C4287 C4306 1.368 . S
C4287 H4311 0.949 . S
H4288 C4292 0.949 . S
C4289 C4290 1.349 . S
C4289 C4291 1.327 . S
C4289 H4312 0.950 . S
C4290 C4289 1.349 . S
C4290 C4302 1.349 . S
C4291 C4289 1.327 . S
C4291 C4307 1.429 . S
C4291 H4313 0.950 . S
C4292 H4288 0.949 . S
C4292 C4300 1.574 . S
C4292 C4308 1.368 . S
H4293 C4301 0.950 . S
H4294 C4299 0.950 . S
H4295 C4300 0.949 . S
H4296 C4302 0.950 . S
H4297 C4303 0.950 . S
H4298 C4304 0.949 . S
C4299 H4294 0.950 . S
C4299 C4301 1.327 . S
C4299 C4305 1.429 . S
C4300 C4292 1.574 . S
C4300 H4295 0.949 . S
C4300 C4306 1.368 . S
C4301 C4285 1.349 . S
C4301 H4293 0.950 . S
C4301 C4299 1.327 . S
C4302 C4290 1.349 . S
C4302 H4296 0.950 . S
C4302 C4303 1.327 . S
C4303 H4297 0.950 . S
C4303 C4302 1.327 . S
C4303 C4307 1.429 . S
C4304 C4287 1.574 . S
C4304 H4298 0.949 . S
C4304 C4308 1.368 . S
C4305 C4286 1.429 . S
C4305 C4299 1.429 . S
C4305 C4306 1.523 . S
C4306 C4287 1.368 . S
C4306 C4300 1.368 . S
C4306 C4305 1.523 . S
C4307 C4291 1.429 . S
C4307 C4303 1.429 . S
C4307 C4308 1.523 . S
C4308 C4292 1.368 . S
C4308 C4304 1.368 . S
C4308 C4307 1.523 . S
H4309 C4284 0.950 . S
H4310 C4286 0.950 . S
H4311 C4287 0.949 . S
H4312 C4289 0.950 . S
H4313 C4291 0.950 . S
C4314 C4315 1.349 . S
C4314 C4316 1.327 . S
C4314 H4339 0.950 . S
C4315 C4314 1.349 . S
C4315 C4331 1.349 . S
C4316 C4314 1.327 . S
C4316 C4335 1.429 . S
C4316 H4340 0.950 . S
C4317 C4334 1.574 . S
C4317 C4336 1.368 . S
C4317 H4341 0.949 . S
H4318 C4322 0.949 . S
C4319 C4320 1.349 . S
C4319 C4321 1.327 . S
C4319 H4342 0.950 . S
C4320 C4319 1.349 . S
C4320 C4332 1.349 . S
C4321 C4319 1.327 . S
C4321 C4337 1.429 . S
C4321 H4343 0.950 . S
C4322 H4318 0.949 . S
C4322 C4330 1.574 . S
C4322 C4338 1.368 . S
H4323 C4331 0.950 . S
H4324 C4329 0.950 . S
H4325 C4330 0.949 . S
H4326 C4332 0.950 . S
H4327 C4333 0.950 . S
H4328 C4334 0.949 . S
C4329 H4324 0.950 . S
C4329 C4331 1.327 . S
C4329 C4335 1.429 . S
C4330 C4322 1.574 . S
C4330 H4325 0.949 . S
C4330 C4336 1.368 . S
C4331 C4315 1.349 . S
C4331 H4323 0.950 . S
C4331 C4329 1.327 . S
C4332 C4320 1.349 . S
C4332 H4326 0.950 . S
C4332 C4333 1.327 . S
C4333 H4327 0.950 . S
C4333 C4332 1.327 . S
C4333 C4337 1.429 . S
C4334 C4317 1.574 . S
C4334 H4328 0.949 . S
C4334 C4338 1.368 . S
C4335 C4316 1.429 . S
C4335 C4329 1.429 . S
C4335 C4336 1.523 . S
C4336 C4317 1.368 . S
C4336 C4330 1.368 . S
C4336 C4335 1.523 . S
C4337 C4321 1.429 . S
C4337 C4333 1.429 . S
C4337 C4338 1.523 . S
C4338 C4322 1.368 . S
C4338 C4334 1.368 . S
C4338 C4337 1.523 . S
H4339 C4314 0.950 . S
H4340 C4316 0.950 . S
H4341 C4317 0.949 . S
H4342 C4319 0.950 . S
H4343 C4321 0.950 . S
C4344 C4345 1.349 . S
C4344 C4346 1.327 . S
C4344 H4369 0.950 . S
C4345 C4344 1.349 . S
C4345 C4361 1.349 . S
C4346 C4344 1.327 . S
C4346 C4365 1.429 . S
C4346 H4370 0.950 . S
C4347 C4364 1.574 . S
C4347 C4366 1.368 . S
C4347 H4371 0.949 . S
H4348 C4352 0.949 . S
C4349 C4350 1.349 . S
C4349 C4351 1.327 . S
C4349 H4372 0.950 . S
C4350 C4349 1.349 . S
C4350 C4362 1.349 . S
C4351 C4349 1.327 . S
C4351 C4367 1.429 . S
C4351 H4373 0.950 . S
C4352 H4348 0.949 . S
C4352 C4360 1.574 . S
C4352 C4368 1.368 . S
H4353 C4361 0.950 . S
H4354 C4359 0.950 . S
H4355 C4360 0.949 . S
H4356 C4362 0.950 . S
H4357 C4363 0.950 . S
H4358 C4364 0.949 . S
C4359 H4354 0.950 . S
C4359 C4361 1.327 . S
C4359 C4365 1.429 . S
C4360 C4352 1.574 . S
C4360 H4355 0.949 . S
C4360 C4366 1.368 . S
C4361 C4345 1.349 . S
C4361 H4353 0.950 . S
C4361 C4359 1.327 . S
C4362 C4350 1.349 . S
C4362 H4356 0.950 . S
C4362 C4363 1.327 . S
C4363 H4357 0.950 . S
C4363 C4362 1.327 . S
C4363 C4367 1.429 . S
C4364 C4347 1.574 . S
C4364 H4358 0.949 . S
C4364 C4368 1.368 . S
C4365 C4346 1.429 . S
C4365 C4359 1.429 . S
C4365 C4366 1.523 . S
C4366 C4347 1.368 . S
C4366 C4360 1.368 . S
C4366 C4365 1.523 . S
C4367 C4351 1.429 . S
C4367 C4363 1.429 . S
C4367 C4368 1.523 . S
C4368 C4352 1.368 . S
C4368 C4364 1.368 . S
C4368 C4367 1.523 . S
H4369 C4344 0.950 . S
H4370 C4346 0.950 . S
H4371 C4347 0.949 . S
H4372 C4349 0.950 . S
H4373 C4351 0.950 . S
C4374 C4375 1.349 . S
C4374 C4376 1.327 . S
C4374 H4399 0.950 . S
C4375 C4374 1.349 . S
C4375 C4391 1.349 . S
C4376 C4374 1.327 . S
C4376 C4395 1.429 . S
C4376 H4400 0.950 . S
C4377 C4394 1.574 . S
C4377 C4396 1.368 . S
C4377 H4401 0.949 . S
H4378 C4382 0.949 . S
C4379 C4380 1.349 . S
C4379 C4381 1.327 . S
C4379 H4402 0.950 . S
C4380 C4379 1.349 . S
C4380 C4392 1.349 . S
C4381 C4379 1.327 . S
C4381 C4397 1.429 . S
C4381 H4403 0.950 . S
C4382 H4378 0.949 . S
C4382 C4390 1.574 . S
C4382 C4398 1.368 . S
H4383 C4391 0.950 . S
H4384 C4389 0.950 . S
H4385 C4390 0.949 . S
H4386 C4392 0.950 . S
H4387 C4393 0.950 . S
H4388 C4394 0.949 . S
C4389 H4384 0.950 . S
C4389 C4391 1.327 . S
C4389 C4395 1.429 . S
C4390 C4382 1.574 . S
C4390 H4385 0.949 . S
C4390 C4396 1.368 . S
C4391 C4375 1.349 . S
C4391 H4383 0.950 . S
C4391 C4389 1.327 . S
C4392 C4380 1.349 . S
C4392 H4386 0.950 . S
C4392 C4393 1.327 . S
C4393 H4387 0.950 . S
C4393 C4392 1.327 . S
C4393 C4397 1.429 . S
C4394 C4377 1.574 . S
C4394 H4388 0.949 . S
C4394 C4398 1.368 . S
C4395 C4376 1.429 . S
C4395 C4389 1.429 . S
C4395 C4396 1.523 . S
C4396 C4377 1.368 . S
C4396 C4390 1.368 . S
C4396 C4395 1.523 . S
C4397 C4381 1.429 . S
C4397 C4393 1.429 . S
C4397 C4398 1.523 . S
C4398 C4382 1.368 . S
C4398 C4394 1.368 . S
C4398 C4397 1.523 . S
H4399 C4374 0.950 . S
H4400 C4376 0.950 . S
H4401 C4377 0.949 . S
H4402 C4379 0.950 . S
H4403 C4381 0.950 . S
C4404 C4405 1.349 . S
C4404 C4406 1.327 . S
C4404 H4429 0.950 . S
C4405 C4404 1.349 . S
C4405 C4421 1.349 . S
C4406 C4404 1.327 . S
C4406 C4425 1.429 . S
C4406 H4430 0.950 . S
C4407 C4424 1.574 . S
C4407 C4426 1.368 . S
C4407 H4431 0.949 . S
H4408 C4412 0.949 . S
C4409 C4410 1.349 . S
C4409 C4411 1.327 . S
C4409 H4432 0.950 . S
C4410 C4409 1.349 . S
C4410 C4422 1.349 . S
C4411 C4409 1.327 . S
C4411 C4427 1.429 . S
C4411 H4433 0.950 . S
C4412 H4408 0.949 . S
C4412 C4420 1.574 . S
C4412 C4428 1.368 . S
H4413 C4421 0.950 . S
H4414 C4419 0.950 . S
H4415 C4420 0.949 . S
H4416 C4422 0.950 . S
H4417 C4423 0.950 . S
H4418 C4424 0.949 . S
C4419 H4414 0.950 . S
C4419 C4421 1.327 . S
C4419 C4425 1.429 . S
C4420 C4412 1.574 . S
C4420 H4415 0.949 . S
C4420 C4426 1.368 . S
C4421 C4405 1.349 . S
C4421 H4413 0.950 . S
C4421 C4419 1.327 . S
C4422 C4410 1.349 . S
C4422 H4416 0.950 . S
C4422 C4423 1.327 . S
C4423 H4417 0.950 . S
C4423 C4422 1.327 . S
C4423 C4427 1.429 . S
C4424 C4407 1.574 . S
C4424 H4418 0.949 . S
C4424 C4428 1.368 . S
C4425 C4406 1.429 . S
C4425 C4419 1.429 . S
C4425 C4426 1.523 . S
C4426 C4407 1.368 . S
C4426 C4420 1.368 . S
C4426 C4425 1.523 . S
C4427 C4411 1.429 . S
C4427 C4423 1.429 . S
C4427 C4428 1.523 . S
C4428 C4412 1.368 . S
C4428 C4424 1.368 . S
C4428 C4427 1.523 . S
H4429 C4404 0.950 . S
H4430 C4406 0.950 . S
H4431 C4407 0.949 . S
H4432 C4409 0.950 . S
H4433 C4411 0.950 . S
C4434 C4435 1.349 . S
C4434 C4436 1.327 . S
C4434 H4459 0.950 . S
C4435 C4434 1.349 . S
C4435 C4451 1.349 . S
C4436 C4434 1.327 . S
C4436 C4455 1.429 . S
C4436 H4460 0.950 . S
C4437 C4454 1.574 . S
C4437 C4456 1.368 . S
C4437 H4461 0.949 . S
H4438 C4442 0.949 . S
C4439 C4440 1.349 . S
C4439 C4441 1.327 . S
C4439 H4462 0.950 . S
C4440 C4439 1.349 . S
C4440 C4452 1.349 . S
C4441 C4439 1.327 . S
C4441 C4457 1.429 . S
C4441 H4463 0.950 . S
C4442 H4438 0.949 . S
C4442 C4450 1.574 . S
C4442 C4458 1.368 . S
H4443 C4451 0.950 . S
H4444 C4449 0.950 . S
H4445 C4450 0.949 . S
H4446 C4452 0.950 . S
H4447 C4453 0.950 . S
H4448 C4454 0.949 . S
C4449 H4444 0.950 . S
C4449 C4451 1.327 . S
C4449 C4455 1.429 . S
C4450 C4442 1.574 . S
C4450 H4445 0.949 . S
C4450 C4456 1.368 . S
C4451 C4435 1.349 . S
C4451 H4443 0.950 . S
C4451 C4449 1.327 . S
C4452 C4440 1.349 . S
C4452 H4446 0.950 . S
C4452 C4453 1.327 . S
C4453 H4447 0.950 . S
C4453 C4452 1.327 . S
C4453 C4457 1.429 . S
C4454 C4437 1.574 . S
C4454 H4448 0.949 . S
C4454 C4458 1.368 . S
C4455 C4436 1.429 . S
C4455 C4449 1.429 . S
C4455 C4456 1.523 . S
C4456 C4437 1.368 . S
C4456 C4450 1.368 . S
C4456 C4455 1.523 . S
C4457 C4441 1.429 . S
C4457 C4453 1.429 . S
C4457 C4458 1.523 . S
C4458 C4442 1.368 . S
C4458 C4454 1.368 . S
C4458 C4457 1.523 . S
H4459 C4434 0.950 . S
H4460 C4436 0.950 . S
H4461 C4437 0.949 . S
H4462 C4439 0.950 . S
H4463 C4441 0.950 . S
C4464 C4465 1.349 . S
C4464 C4466 1.327 . S
C4464 H4489 0.950 . S
C4465 C4464 1.349 . S
C4465 C4481 1.349 . S
C4466 C4464 1.327 . S
C4466 C4485 1.429 . S
C4466 H4490 0.950 . S
C4467 C4484 1.574 . S
C4467 C4486 1.368 1_455 S
C4467 H4491 0.949 . S
H4468 C4472 0.949 . S
C4469 C4470 1.349 . S
C4469 C4471 1.327 . S
C4469 H4492 0.950 . S
C4470 C4469 1.349 . S
C4470 C4482 1.349 . S
C4471 C4469 1.327 . S
C4471 C4487 1.429 . S
C4471 H4493 0.950 . S
C4472 H4468 0.949 . S
C4472 C4480 1.574 . S
C4472 C4488 1.368 1_655 S
H4473 C4481 0.950 . S
H4474 C4479 0.950 . S
H4475 C4480 0.949 . S
H4476 C4482 0.950 . S
H4477 C4483 0.950 . S
H4478 C4484 0.949 . S
C4479 H4474 0.950 . S
C4479 C4481 1.327 . S
C4479 C4485 1.429 . S
C4480 C4472 1.574 . S
C4480 H4475 0.949 . S
C4480 C4486 1.368 . S
C4481 C4465 1.349 . S
C4481 H4473 0.950 . S
C4481 C4479 1.327 . S
C4482 C4470 1.349 . S
C4482 H4476 0.950 . S
C4482 C4483 1.327 . S
C4483 H4477 0.950 . S
C4483 C4482 1.327 . S
C4483 C4487 1.429 . S
C4484 C4467 1.574 . S
C4484 H4478 0.949 . S
C4484 C4488 1.368 . S
C4485 C4466 1.429 . S
C4485 C4479 1.429 . S
C4485 C4486 1.523 . S
C4486 C4467 1.368 1_655 S
C4486 C4480 1.368 . S
C4486 C4485 1.523 . S
C4487 C4471 1.429 . S
C4487 C4483 1.429 . S
C4487 C4488 1.523 . S
C4488 C4472 1.368 1_455 S
C4488 C4484 1.368 . S
C4488 C4487 1.523 . S
H4489 C4464 0.950 . S
H4490 C4466 0.950 . S
H4491 C4467 0.949 . S
H4492 C4469 0.950 . S
H4493 C4471 0.950 . S
C4494 C4495 1.349 . S
C4494 C4496 1.327 . S
C4494 H4519 0.950 . S
C4495 C4494 1.349 . S
C4495 C4511 1.349 . S
C4496 C4494 1.327 . S
C4496 C4515 1.429 . S
C4496 H4520 0.950 . S
C4497 C4514 1.574 . S
C4497 C4516 1.368 . S
C4497 H4521 0.949 . S
H4498 C4502 0.949 . S
C4499 C4500 1.349 . S
C4499 C4501 1.327 . S
C4499 H4522 0.950 . S
C4500 C4499 1.349 . S
C4500 C4512 1.349 . S
C4501 C4499 1.327 . S
C4501 C4517 1.429 . S
C4501 H4523 0.950 . S
C4502 H4498 0.949 . S
C4502 C4510 1.574 . S
C4502 C4518 1.368 . S
H4503 C4511 0.950 . S
H4504 C4509 0.950 . S
H4505 C4510 0.949 . S
H4506 C4512 0.950 . S
H4507 C4513 0.950 . S
H4508 C4514 0.949 . S
C4509 H4504 0.950 . S
C4509 C4511 1.327 . S
C4509 C4515 1.429 . S
C4510 C4502 1.574 . S
C4510 H4505 0.949 . S
C4510 C4516 1.368 . S
C4511 C4495 1.349 . S
C4511 H4503 0.950 . S
C4511 C4509 1.327 . S
C4512 C4500 1.349 . S
C4512 H4506 0.950 . S
C4512 C4513 1.327 . S
C4513 H4507 0.950 . S
C4513 C4512 1.327 . S
C4513 C4517 1.429 . S
C4514 C4497 1.574 . S
C4514 H4508 0.949 . S
C4514 C4518 1.368 . S
C4515 C4496 1.429 . S
C4515 C4509 1.429 . S
C4515 C4516 1.523 . S
C4516 C4497 1.368 . S
C4516 C4510 1.368 . S
C4516 C4515 1.523 . S
C4517 C4501 1.429 . S
C4517 C4513 1.429 . S
C4517 C4518 1.523 . S
C4518 C4502 1.368 . S
C4518 C4514 1.368 . S
C4518 C4517 1.523 . S
H4519 C4494 0.950 . S
H4520 C4496 0.950 . S
H4521 C4497 0.949 . S
H4522 C4499 0.950 . S
H4523 C4501 0.950 . S
C4524 C4525 1.349 . S
C4524 C4526 1.327 . S
C4524 H4549 0.950 . S
C4525 C4524 1.349 . S
C4525 C4541 1.349 . S
C4526 C4524 1.327 . S
C4526 C4545 1.429 . S
C4526 H4550 0.950 . S
C4527 C4544 1.574 . S
C4527 C4546 1.368 . S
C4527 H4551 0.949 . S
H4528 C4532 0.949 . S
C4529 C4530 1.349 . S
C4529 C4531 1.327 . S
C4529 H4552 0.950 . S
C4530 C4529 1.349 . S
C4530 C4542 1.349 . S
C4531 C4529 1.327 . S
C4531 C4547 1.429 . S
C4531 H4553 0.950 . S
C4532 H4528 0.949 . S
C4532 C4540 1.574 . S
C4532 C4548 1.368 . S
H4533 C4541 0.950 . S
H4534 C4539 0.950 . S
H4535 C4540 0.949 . S
H4536 C4542 0.950 . S
H4537 C4543 0.950 . S
H4538 C4544 0.949 . S
C4539 H4534 0.950 . S
C4539 C4541 1.327 . S
C4539 C4545 1.429 . S
C4540 C4532 1.574 . S
C4540 H4535 0.949 . S
C4540 C4546 1.368 1_565 S
C4541 C4525 1.349 . S
C4541 H4533 0.950 . S
C4541 C4539 1.327 . S
C4542 C4530 1.349 . S
C4542 H4536 0.950 . S
C4542 C4543 1.327 . S
C4543 H4537 0.950 . S
C4543 C4542 1.327 . S
C4543 C4547 1.429 . S
C4544 C4527 1.574 . S
C4544 H4538 0.949 . S
C4544 C4548 1.368 1_545 S
C4545 C4526 1.429 . S
C4545 C4539 1.429 . S
C4545 C4546 1.523 . S
C4546 C4527 1.368 . S
C4546 C4540 1.368 1_545 S
C4546 C4545 1.523 . S
C4547 C4531 1.429 . S
C4547 C4543 1.429 . S
C4547 C4548 1.523 . S
C4548 C4532 1.368 . S
C4548 C4544 1.368 1_565 S
C4548 C4547 1.523 . S
H4549 C4524 0.950 . S
H4550 C4526 0.950 . S
H4551 C4527 0.949 . S
H4552 C4529 0.950 . S
H4553 C4531 0.950 . S
C4554 C4555 1.349 . S
C4554 C4556 1.327 . S
C4554 H4579 0.950 . S
C4555 C4554 1.349 . S
C4555 C4571 1.349 . S
C4556 C4554 1.327 . S
C4556 C4575 1.429 . S
C4556 H4580 0.950 . S
C4557 C4574 1.574 1_565 S
C4557 C4576 1.368 . S
C4557 H4581 0.949 . S
H4558 C4562 0.949 . S
C4559 C4560 1.349 . S
C4559 C4561 1.327 . S
C4559 H4582 0.950 . S
C4560 C4559 1.349 . S
C4560 C4572 1.349 . S
C4561 C4559 1.327 . S
C4561 C4577 1.429 . S
C4561 H4583 0.950 . S
C4562 H4558 0.949 . S
C4562 C4570 1.574 1_545 S
C4562 C4578 1.368 . S
H4563 C4571 0.950 . S
H4564 C4569 0.950 . S
H4565 C4570 0.949 . S
H4566 C4572 0.950 . S
H4567 C4573 0.950 . S
H4568 C4574 0.949 . S
C4569 H4564 0.950 . S
C4569 C4571 1.327 . S
C4569 C4575 1.429 . S
C4570 C4562 1.574 1_565 S
C4570 H4565 0.949 . S
C4570 C4576 1.368 1_556 S
C4571 C4555 1.349 . S
C4571 H4563 0.950 . S
C4571 C4569 1.327 . S
C4572 C4560 1.349 . S
C4572 H4566 0.950 . S
C4572 C4573 1.327 . S
C4573 H4567 0.950 . S
C4573 C4572 1.327 . S
C4573 C4577 1.429 . S
C4574 C4557 1.574 1_545 S
C4574 H4568 0.949 . S
C4574 C4578 1.368 1_554 S
C4575 C4556 1.429 . S
C4575 C4569 1.429 . S
C4575 C4576 1.523 . S
C4576 C4557 1.368 . S
C4576 C4570 1.368 1_554 S
C4576 C4575 1.523 . S
C4577 C4561 1.429 . S
C4577 C4573 1.429 . S
C4577 C4578 1.523 . S
C4578 C4562 1.368 . S
C4578 C4574 1.368 1_556 S
C4578 C4577 1.523 . S
H4579 C4554 0.950 . S
H4580 C4556 0.950 . S
H4581 C4557 0.949 . S
H4582 C4559 0.950 . S
H4583 C4561 0.950 . S
C4584 C4585 1.349 . S
C4584 C4586 1.327 . S
C4584 H4609 0.950 . S
C4585 C4584 1.349 . S
C4585 C4601 1.349 . S
C4586 C4584 1.327 . S
C4586 C4605 1.429 . S
C4586 H4610 0.950 . S
C4587 C4604 1.574 1_655 S
C4587 C4606 1.368 1_554 S
C4587 H4611 0.949 . S
H4588 C4592 0.949 . S
C4589 C4590 1.349 . S
C4589 C4591 1.327 . S
C4589 H4612 0.950 . S
C4590 C4589 1.349 . S
C4590 C4602 1.349 . S
C4591 C4589 1.327 . S
C4591 C4607 1.429 . S
C4591 H4613 0.950 . S
C4592 H4588 0.949 . S
C4592 C4600 1.574 1_455 S
C4592 C4608 1.368 1_556 S
H4593 C4601 0.950 . S
H4594 C4599 0.950 . S
H4595 C4600 0.949 . S
H4596 C4602 0.950 . S
H4597 C4603 0.950 . S
H4598 C4604 0.949 . S
C4599 H4594 0.950 . S
C4599 C4601 1.327 . S
C4599 C4605 1.429 . S
C4600 C4592 1.574 1_655 S
C4600 H4595 0.949 . S
C4600 C4606 1.368 . S
C4601 C4585 1.349 . S
C4601 H4593 0.950 . S
C4601 C4599 1.327 . S
C4602 C4590 1.349 . S
C4602 H4596 0.950 . S
C4602 C4603 1.327 . S
C4603 H4597 0.950 . S
C4603 C4602 1.327 . S
C4603 C4607 1.429 . S
C4604 C4587 1.574 1_455 S
C4604 H4598 0.949 . S
C4604 C4608 1.368 . S
C4605 C4586 1.429 . S
C4605 C4599 1.429 . S
C4605 C4606 1.523 . S
C4606 C4587 1.368 1_556 S
C4606 C4600 1.368 . S
C4606 C4605 1.523 . S
C4607 C4591 1.429 . S
C4607 C4603 1.429 . S
C4607 C4608 1.523 . S
C4608 C4592 1.368 1_554 S
C4608 C4604 1.368 . S
C4608 C4607 1.523 . S
H4609 C4584 0.950 . S
H4610 C4586 0.950 . S
H4611 C4587 0.949 . S
H4612 C4589 0.950 . S
H4613 C4591 0.950 . S
C4614 C4615 1.349 . S
C4614 C4616 1.327 . S
C4614 H4639 0.950 . S
C4615 C4614 1.349 . S
C4615 C4631 1.349 . S
C4616 C4614 1.327 . S
C4616 C4635 1.429 . S
C4616 H4640 0.950 . S
C4617 C4634 1.574 . S
C4617 C4636 1.368 . S
C4617 H4641 0.949 . S
H4618 C4622 0.949 . S
C4619 C4620 1.349 . S
C4619 C4621 1.327 . S
C4619 H4642 0.950 . S
C4620 C4619 1.349 . S
C4620 C4632 1.349 . S
C4621 C4619 1.327 . S
C4621 C4637 1.429 . S
C4621 H4643 0.950 . S
C4622 H4618 0.949 . S
C4622 C4630 1.574 . S
C4622 C4638 1.368 . S
H4623 C4631 0.950 . S
H4624 C4629 0.950 . S
H4625 C4630 0.949 . S
H4626 C4632 0.950 . S
H4627 C4633 0.950 . S
H4628 C4634 0.949 . S
C4629 H4624 0.950 . S
C4629 C4631 1.327 . S
C4629 C4635 1.429 . S
C4630 C4622 1.574 . S
C4630 H4625 0.949 . S
C4630 C4636 1.368 1_556 S
C4631 C4615 1.349 . S
C4631 H4623 0.950 . S
C4631 C4629 1.327 . S
C4632 C4620 1.349 . S
C4632 H4626 0.950 . S
C4632 C4633 1.327 . S
C4633 H4627 0.950 . S
C4633 C4632 1.327 . S
C4633 C4637 1.429 . S
C4634 C4617 1.574 . S
C4634 H4628 0.949 . S
C4634 C4638 1.368 1_554 S
C4635 C4616 1.429 . S
C4635 C4629 1.429 . S
C4635 C4636 1.523 . S
C4636 C4617 1.368 . S
C4636 C4630 1.368 1_554 S
C4636 C4635 1.523 . S
C4637 C4621 1.429 . S
C4637 C4633 1.429 . S
C4637 C4638 1.523 . S
C4638 C4622 1.368 . S
C4638 C4634 1.368 1_556 S
C4638 C4637 1.523 . S
H4639 C4614 0.950 . S
H4640 C4616 0.950 . S
H4641 C4617 0.949 . S
H4642 C4619 0.950 . S
H4643 C4621 0.950 . S
C4644 C4645 1.349 1_554 S
C4644 C4646 1.327 1_554 S
C4644 H4669 0.950 . S
C4645 C4644 1.349 1_556 S
C4645 C4661 1.349 . S
C4646 C4644 1.327 1_556 S
C4646 C4665 1.429 . S
C4646 H4670 0.950 . S
C4647 C4664 1.574 . S
C4647 C4666 1.368 . S
C4647 H4671 0.949 . S
H4648 C4652 0.949 . S
C4649 C4650 1.349 . S
C4649 C4651 1.327 . S
C4649 H4672 0.950 . S
C4650 C4649 1.349 . S
C4650 C4662 1.349 . S
C4651 C4649 1.327 . S
C4651 C4667 1.429 . S
C4651 H4673 0.950 . S
C4652 H4648 0.949 . S
C4652 C4660 1.574 . S
C4652 C4668 1.368 . S
H4653 C4661 0.950 . S
H4654 C4659 0.950 . S
H4655 C4660 0.949 . S
H4656 C4662 0.950 . S
H4657 C4663 0.950 . S
H4658 C4664 0.949 . S
C4659 H4654 0.950 . S
C4659 C4661 1.327 . S
C4659 C4665 1.429 . S
C4660 C4652 1.574 . S
C4660 H4655 0.949 . S
C4660 C4666 1.368 . S
C4661 C4645 1.349 . S
C4661 H4653 0.950 . S
C4661 C4659 1.327 . S
C4662 C4650 1.349 . S
C4662 H4656 0.950 . S
C4662 C4663 1.327 . S
C4663 H4657 0.950 . S
C4663 C4662 1.327 . S
C4663 C4667 1.429 . S
C4664 C4647 1.574 . S
C4664 H4658 0.949 . S
C4664 C4668 1.368 . S
C4665 C4646 1.429 . S
C4665 C4659 1.429 . S
C4665 C4666 1.523 . S
C4666 C4647 1.368 . S
C4666 C4660 1.368 . S
C4666 C4665 1.523 . S
C4667 C4651 1.429 . S
C4667 C4663 1.429 . S
C4667 C4668 1.523 . S
C4668 C4652 1.368 . S
C4668 C4664 1.368 . S
C4668 C4667 1.523 . S
H4669 C4644 0.950 . S
H4670 C4646 0.950 . S
H4671 C4647 0.949 . S
H4672 C4649 0.950 . S
H4673 C4651 0.950 . S
C4674 C4675 1.349 . S
C4674 C4676 1.327 . S
C4674 H4699 0.950 . S
C4675 C4674 1.349 . S
C4675 C4691 1.349 . S
C4676 C4674 1.327 . S
C4676 C4695 1.429 . S
C4676 H4700 0.950 . S
C4677 C4694 1.574 . S
C4677 C4696 1.368 . S
C4677 H4701 0.949 . S
H4678 C4682 0.949 . S
C4679 C4680 1.349 . S
C4679 C4681 1.327 . S
C4679 H4702 0.950 . S
C4680 C4679 1.349 . S
C4680 C4692 1.349 . S
C4681 C4679 1.327 . S
C4681 C4697 1.429 . S
C4681 H4703 0.950 . S
C4682 H4678 0.949 . S
C4682 C4690 1.574 . S
C4682 C4698 1.368 . S
H4683 C4691 0.950 1_554 S
H4684 C4689 0.950 . S
H4685 C4690 0.949 . S
H4686 C4692 0.950 . S
H4687 C4693 0.950 . S
H4688 C4694 0.949 . S
C4689 H4684 0.950 . S
C4689 C4691 1.327 . S
C4689 C4695 1.429 . S
C4690 C4682 1.574 . S
C4690 H4685 0.949 . S
C4690 C4696 1.368 . S
C4691 C4675 1.349 . S
C4691 H4683 0.950 1_556 S
C4691 C4689 1.327 . S
C4692 C4680 1.349 . S
C4692 H4686 0.950 . S
C4692 C4693 1.327 . S
C4693 H4687 0.950 . S
C4693 C4692 1.327 . S
C4693 C4697 1.429 . S
C4694 C4677 1.574 . S
C4694 H4688 0.949 . S
C4694 C4698 1.368 . S
C4695 C4676 1.429 . S
C4695 C4689 1.429 . S
C4695 C4696 1.523 . S
C4696 C4677 1.368 . S
C4696 C4690 1.368 . S
C4696 C4695 1.523 . S
C4697 C4681 1.429 . S
C4697 C4693 1.429 . S
C4697 C4698 1.523 . S
C4698 C4682 1.368 . S
C4698 C4694 1.368 . S
C4698 C4697 1.523 . S
H4699 C4674 0.950 . S
H4700 C4676 0.950 . S
H4701 C4677 0.949 . S
H4702 C4679 0.950 . S
H4703 C4681 0.950 . S
C4704 C4705 1.349 . S
C4704 C4706 1.327 . S
C4704 H4729 0.950 . S
C4705 C4704 1.349 . S
C4705 C4721 1.349 . S
C4706 C4704 1.327 . S
C4706 C4725 1.429 . S
C4706 H4730 0.950 . S
C4707 C4724 1.574 . S
C4707 C4726 1.368 . S
C4707 H4731 0.949 . S
H4708 C4712 0.949 . S
C4709 C4710 1.349 . S
C4709 C4711 1.327 . S
C4709 H4732 0.950 . S
C4710 C4709 1.349 . S
C4710 C4722 1.349 . S
C4711 C4709 1.327 . S
C4711 C4727 1.429 . S
C4711 H4733 0.950 . S
C4712 H4708 0.949 . S
C4712 C4720 1.574 . S
C4712 C4728 1.368 . S
H4713 C4721 0.950 . S
H4714 C4719 0.950 . S
H4715 C4720 0.949 . S
H4716 C4722 0.950 1_554 S
H4717 C4723 0.950 . S
H4718 C4724 0.949 . S
C4719 H4714 0.950 . S
C4719 C4721 1.327 . S
C4719 C4725 1.429 . S
C4720 C4712 1.574 . S
C4720 H4715 0.949 . S
C4720 C4726 1.368 . S
C4721 C4705 1.349 . S
C4721 H4713 0.950 . S
C4721 C4719 1.327 . S
C4722 C4710 1.349 . S
C4722 H4716 0.950 1_556 S
C4722 C4723 1.327 . S
C4723 H4717 0.950 . S
C4723 C4722 1.327 . S
C4723 C4727 1.429 . S
C4724 C4707 1.574 . S
C4724 H4718 0.949 . S
C4724 C4728 1.368 . S
C4725 C4706 1.429 . S
C4725 C4719 1.429 . S
C4725 C4726 1.523 . S
C4726 C4707 1.368 . S
C4726 C4720 1.368 . S
C4726 C4725 1.523 . S
C4727 C4711 1.429 . S
C4727 C4723 1.429 . S
C4727 C4728 1.523 . S
C4728 C4712 1.368 . S
C4728 C4724 1.368 . S
C4728 C4727 1.523 . S
H4729 C4704 0.950 . S
H4730 C4706 0.950 . S
H4731 C4707 0.949 . S
H4732 C4709 0.950 . S
H4733 C4711 0.950 . S
C4734 C4735 1.349 . S
C4734 C4736 1.327 . S
C4734 H4759 0.950 . S
C4735 C4734 1.349 . S
C4735 C4751 1.349 . S
C4736 C4734 1.327 . S
C4736 C4755 1.429 . S
C4736 H4760 0.950 . S
C4737 C4754 1.574 . S
C4737 C4756 1.368 . S
C4737 H4761 0.949 . S
H4738 C4742 0.949 . S
C4739 C4740 1.349 . S
C4739 C4741 1.327 . S
C4739 H4762 0.950 . S
C4740 C4739 1.349 . S
C4740 C4752 1.349 . S
C4741 C4739 1.327 . S
C4741 C4757 1.429 . S
C4741 H4763 0.950 . S
C4742 H4738 0.949 . S
C4742 C4750 1.574 . S
C4742 C4758 1.368 . S
H4743 C4751 0.950 . S
H4744 C4749 0.950 . S
H4745 C4750 0.949 . S
H4746 C4752 0.950 . S
H4747 C4753 0.950 . S
H4748 C4754 0.949 . S
C4749 H4744 0.950 . S
C4749 C4751 1.327 . S
C4749 C4755 1.429 . S
C4750 C4742 1.574 . S
C4750 H4745 0.949 . S
C4750 C4756 1.368 . S
C4751 C4735 1.349 . S
C4751 H4743 0.950 . S
C4751 C4749 1.327 . S
C4752 C4740 1.349 . S
C4752 H4746 0.950 . S
C4752 C4753 1.327 . S
C4753 H4747 0.950 . S
C4753 C4752 1.327 . S
C4753 C4757 1.429 . S
C4754 C4737 1.574 . S
C4754 H4748 0.949 . S
C4754 C4758 1.368 . S
C4755 C4736 1.429 . S
C4755 C4749 1.429 . S
C4755 C4756 1.523 . S
C4756 C4737 1.368 . S
C4756 C4750 1.368 . S
C4756 C4755 1.523 . S
C4757 C4741 1.429 . S
C4757 C4753 1.429 . S
C4757 C4758 1.523 . S
C4758 C4742 1.368 . S
C4758 C4754 1.368 . S
C4758 C4757 1.523 . S
H4759 C4734 0.950 . S
H4760 C4736 0.950 . S
H4761 C4737 0.949 . S
H4762 C4739 0.950 . S
H4763 C4741 0.950 . S
C4764 C4765 1.349 . S
C4764 C4766 1.327 . S
C4764 H4789 0.950 . S
C4765 C4764 1.349 . S
C4765 C4781 1.349 . S
C4766 C4764 1.327 . S
C4766 C4785 1.429 . S
C4766 H4790 0.950 . S
C4767 C4784 1.574 . S
C4767 C4786 1.368 . S
C4767 H4791 0.949 . S
H4768 C4772 0.949 . S
C4769 C4770 1.349 . S
C4769 C4771 1.327 . S
C4769 H4792 0.950 . S
C4770 C4769 1.349 . S
C4770 C4782 1.349 . S
C4771 C4769 1.327 . S
C4771 C4787 1.429 . S
C4771 H4793 0.950 . S
C4772 H4768 0.949 . S
C4772 C4780 1.574 . S
C4772 C4788 1.368 . S
H4773 C4781 0.950 . S
H4774 C4779 0.950 . S
H4775 C4780 0.949 . S
H4776 C4782 0.950 . S
H4777 C4783 0.950 . S
H4778 C4784 0.949 . S
C4779 H4774 0.950 . S
C4779 C4781 1.327 . S
C4779 C4785 1.429 . S
C4780 C4772 1.574 . S
C4780 H4775 0.949 . S
C4780 C4786 1.368 . S
C4781 C4765 1.349 . S
C4781 H4773 0.950 . S
C4781 C4779 1.327 . S
C4782 C4770 1.349 . S
C4782 H4776 0.950 . S
C4782 C4783 1.327 . S
C4783 H4777 0.950 . S
C4783 C4782 1.327 . S
C4783 C4787 1.429 . S
C4784 C4767 1.574 . S
C4784 H4778 0.949 . S
C4784 C4788 1.368 . S
C4785 C4766 1.429 . S
C4785 C4779 1.429 . S
C4785 C4786 1.523 . S
C4786 C4767 1.368 . S
C4786 C4780 1.368 . S
C4786 C4785 1.523 . S
C4787 C4771 1.429 . S
C4787 C4783 1.429 . S
C4787 C4788 1.523 . S
C4788 C4772 1.368 . S
C4788 C4784 1.368 . S
C4788 C4787 1.523 . S
H4789 C4764 0.950 . S
H4790 C4766 0.950 . S
H4791 C4767 0.949 . S
H4792 C4769 0.950 . S
H4793 C4771 0.950 . S
C4794 C4795 1.349 . S
C4794 C4796 1.327 . S
C4794 H4819 0.950 . S
C4795 C4794 1.349 . S
C4795 C4811 1.349 . S
C4796 C4794 1.327 . S
C4796 C4815 1.429 . S
C4796 H4820 0.950 . S
C4797 C4814 1.574 . S
C4797 C4816 1.368 . S
C4797 H4821 0.949 . S
H4798 C4802 0.949 . S
C4799 C4800 1.349 . S
C4799 C4801 1.327 . S
C4799 H4822 0.950 . S
C4800 C4799 1.349 . S
C4800 C4812 1.349 . S
C4801 C4799 1.327 . S
C4801 C4817 1.429 . S
C4801 H4823 0.950 . S
C4802 H4798 0.949 . S
C4802 C4810 1.574 . S
C4802 C4818 1.368 . S
H4803 C4811 0.950 . S
H4804 C4809 0.950 . S
H4805 C4810 0.949 . S
H4806 C4812 0.950 . S
H4807 C4813 0.950 . S
H4808 C4814 0.949 . S
C4809 H4804 0.950 . S
C4809 C4811 1.327 . S
C4809 C4815 1.429 . S
C4810 C4802 1.574 . S
C4810 H4805 0.949 . S
C4810 C4816 1.368 . S
C4811 C4795 1.349 . S
C4811 H4803 0.950 . S
C4811 C4809 1.327 . S
C4812 C4800 1.349 . S
C4812 H4806 0.950 . S
C4812 C4813 1.327 . S
C4813 H4807 0.950 . S
C4813 C4812 1.327 . S
C4813 C4817 1.429 . S
C4814 C4797 1.574 . S
C4814 H4808 0.949 . S
C4814 C4818 1.368 . S
C4815 C4796 1.429 . S
C4815 C4809 1.429 . S
C4815 C4816 1.523 . S
C4816 C4797 1.368 . S
C4816 C4810 1.368 . S
C4816 C4815 1.523 . S
C4817 C4801 1.429 . S
C4817 C4813 1.429 . S
C4817 C4818 1.523 . S
C4818 C4802 1.368 . S
C4818 C4814 1.368 . S
C4818 C4817 1.523 . S
H4819 C4794 0.950 . S
H4820 C4796 0.950 . S
H4821 C4797 0.949 . S
H4822 C4799 0.950 . S
H4823 C4801 0.950 . S
C4824 C4825 1.349 . S
C4824 C4826 1.327 . S
C4824 H4849 0.950 . S
C4825 C4824 1.349 . S
C4825 C4841 1.349 . S
C4826 C4824 1.327 . S
C4826 C4845 1.429 . S
C4826 H4850 0.950 . S
C4827 C4844 1.574 . S
C4827 C4846 1.368 . S
C4827 H4851 0.949 . S
H4828 C4832 0.949 . S
C4829 C4830 1.349 . S
C4829 C4831 1.327 . S
C4829 H4852 0.950 . S
C4830 C4829 1.349 . S
C4830 C4842 1.349 . S
C4831 C4829 1.327 . S
C4831 C4847 1.429 . S
C4831 H4853 0.950 . S
C4832 H4828 0.949 . S
C4832 C4840 1.574 . S
C4832 C4848 1.368 . S
H4833 C4841 0.950 . S
H4834 C4839 0.950 . S
H4835 C4840 0.949 . S
H4836 C4842 0.950 1_556 S
H4837 C4843 0.950 . S
H4838 C4844 0.949 . S
C4839 H4834 0.950 . S
C4839 C4841 1.327 . S
C4839 C4845 1.429 . S
C4840 C4832 1.574 . S
C4840 H4835 0.949 . S
C4840 C4846 1.368 . S
C4841 C4825 1.349 . S
C4841 H4833 0.950 . S
C4841 C4839 1.327 . S
C4842 C4830 1.349 . S
C4842 H4836 0.950 1_554 S
C4842 C4843 1.327 . S
C4843 H4837 0.950 . S
C4843 C4842 1.327 . S
C4843 C4847 1.429 . S
C4844 C4827 1.574 . S
C4844 H4838 0.949 . S
C4844 C4848 1.368 . S
C4845 C4826 1.429 . S
C4845 C4839 1.429 . S
C4845 C4846 1.523 . S
C4846 C4827 1.368 . S
C4846 C4840 1.368 . S
C4846 C4845 1.523 . S
C4847 C4831 1.429 . S
C4847 C4843 1.429 . S
C4847 C4848 1.523 . S
C4848 C4832 1.368 . S
C4848 C4844 1.368 . S
C4848 C4847 1.523 . S
H4849 C4824 0.950 . S
H4850 C4826 0.950 . S
H4851 C4827 0.949 . S
H4852 C4829 0.950 . S
H4853 C4831 0.950 . S
C4854 C4855 1.349 . S
C4854 C4856 1.327 . S
C4854 H4879 0.950 . S
C4855 C4854 1.349 . S
C4855 C4871 1.341 1_554 S
C4856 C4854 1.327 . S
C4856 C4875 1.429 . S
C4856 H4880 0.950 . S
C4857 C4874 1.574 . S
C4857 C4876 1.368 . S
C4857 H4881 0.949 . S
H4858 C4862 0.949 . S
C4859 C4860 1.349 . S
C4859 C4861 1.327 . S
C4859 H4882 0.950 . S
C4860 C4859 1.349 . S
C4860 C4872 1.349 . S
C4861 C4859 1.327 . S
C4861 C4877 1.429 . S
C4861 H4883 0.950 . S
C4862 H4858 0.949 . S
C4862 C4870 1.574 . S
C4862 C4878 1.368 . S
H4863 C4871 0.980 . S
H4864 C4869 0.950 . S
H4865 C4870 0.949 . S
H4866 C4872 0.950 . S
H4867 C4873 0.950 . S
H4868 C4874 0.949 . S
C4869 H4864 0.950 . S
C4869 C4871 1.306 1_554 S
C4869 C4875 1.429 . S
C4870 C4862 1.574 . S
C4870 H4865 0.949 . S
C4870 C4876 1.368 . S
C4871 C4855 1.341 1_556 S
C4871 H4863 0.980 . S
C4871 C4869 1.306 1_556 S
C4872 C4860 1.349 . S
C4872 H4866 0.950 . S
C4872 C4873 1.327 . S
C4873 H4867 0.950 . S
C4873 C4872 1.327 . S
C4873 C4877 1.429 . S
C4874 C4857 1.574 . S
C4874 H4868 0.949 . S
C4874 C4878 1.368 . S
C4875 C4856 1.429 . S
C4875 C4869 1.429 . S
C4875 C4876 1.523 . S
C4876 C4857 1.368 . S
C4876 C4870 1.368 . S
C4876 C4875 1.523 . S
C4877 C4861 1.429 . S
C4877 C4873 1.429 . S
C4877 C4878 1.523 . S
C4878 C4862 1.368 . S
C4878 C4874 1.368 . S
C4878 C4877 1.523 . S
H4879 C4854 0.950 . S
H4880 C4856 0.950 . S
H4881 C4857 0.949 . S
H4882 C4859 0.950 . S
H4883 C4861 0.950 . S
C4884 C4885 1.349 . S
C4884 C4886 1.327 . S
C4884 H4909 0.950 . S
C4885 C4884 1.349 . S
C4885 C4901 1.349 . S
C4886 C4884 1.327 . S
C4886 C4905 1.429 . S
C4886 H4910 0.950 . S
C4887 C4904 1.574 . S
C4887 C4906 1.368 . S
C4887 H4911 0.949 . S
H4888 C4892 0.949 . S
C4889 C4890 1.349 1_556 S
C4889 C4891 1.327 1_556 S
C4889 H4912 0.950 . S
C4890 C4889 1.349 1_554 S
C4890 C4902 1.349 . S
C4891 C4889 1.327 1_554 S
C4891 C4907 1.429 . S
C4891 H4913 0.950 . S
C4892 H4888 0.949 . S
C4892 C4900 1.574 . S
C4892 C4908 1.368 . S
H4893 C4901 0.950 . S
H4894 C4899 0.950 . S
H4895 C4900 0.949 . S
H4896 C4902 0.950 . S
H4897 C4903 0.950 . S
H4898 C4904 0.949 . S
C4899 H4894 0.950 . S
C4899 C4901 1.327 . S
C4899 C4905 1.429 . S
C4900 C4892 1.574 . S
C4900 H4895 0.949 . S
C4900 C4906 1.368 . S
C4901 C4885 1.349 . S
C4901 H4893 0.950 . S
C4901 C4899 1.327 . S
C4902 C4890 1.349 . S
C4902 H4896 0.950 . S
C4902 C4903 1.327 . S
C4903 H4897 0.950 . S
C4903 C4902 1.327 . S
C4903 C4907 1.429 . S
C4904 C4887 1.574 . S
C4904 H4898 0.949 . S
C4904 C4908 1.368 . S
C4905 C4886 1.429 . S
C4905 C4899 1.429 . S
C4905 C4906 1.523 . S
C4906 C4887 1.368 . S
C4906 C4900 1.368 . S
C4906 C4905 1.523 . S
C4907 C4891 1.429 . S
C4907 C4903 1.429 . S
C4907 C4908 1.523 . S
C4908 C4892 1.368 . S
C4908 C4904 1.368 . S
C4908 C4907 1.523 . S
H4909 C4884 0.950 . S
H4910 C4886 0.950 . S
H4911 C4887 0.949 . S
H4912 C4889 0.950 . S
H4913 C4891 0.950 . S
C4914 C4915 1.349 . S
C4914 C4916 1.327 . S
C4914 H4939 0.950 . S
C4915 C4914 1.349 . S
C4915 C4931 1.349 . S
C4916 C4914 1.327 . S
C4916 C4935 1.429 . S
C4916 H4940 0.950 . S
C4917 C4934 1.574 . S
C4917 C4936 1.368 . S
C4917 H4941 0.949 . S
H4918 C4922 0.949 . S
C4919 C4920 1.349 . S
C4919 C4921 1.327 . S
C4919 H4942 0.950 . S
C4920 C4919 1.349 . S
C4920 C4932 1.349 . S
C4921 C4919 1.327 . S
C4921 C4937 1.429 . S
C4921 H4943 0.950 . S
C4922 H4918 0.949 . S
C4922 C4930 1.574 . S
C4922 C4938 1.368 . S
H4923 C4931 0.950 . S
H4924 C4929 0.950 . S
H4925 C4930 0.949 . S
H4926 C4932 0.950 . S
H4927 C4933 0.950 . S
H4928 C4934 0.949 . S
C4929 H4924 0.950 . S
C4929 C4931 1.327 . S
C4929 C4935 1.429 . S
C4930 C4922 1.574 . S
C4930 H4925 0.949 . S
C4930 C4936 1.368 . S
C4931 C4915 1.349 . S
C4931 H4923 0.950 . S
C4931 C4929 1.327 . S
C4932 C4920 1.349 . S
C4932 H4926 0.950 . S
C4932 C4933 1.327 . S
C4933 H4927 0.950 . S
C4933 C4932 1.327 . S
C4933 C4937 1.429 . S
C4934 C4917 1.574 . S
C4934 H4928 0.949 . S
C4934 C4938 1.368 . S
C4935 C4916 1.429 . S
C4935 C4929 1.429 . S
C4935 C4936 1.523 . S
C4936 C4917 1.368 . S
C4936 C4930 1.368 . S
C4936 C4935 1.523 . S
C4937 C4921 1.429 . S
C4937 C4933 1.429 . S
C4937 C4938 1.523 . S
C4938 C4922 1.368 . S
C4938 C4934 1.368 . S
C4938 C4937 1.523 . S
H4939 C4914 0.950 . S
H4940 C4916 0.950 . S
H4941 C4917 0.949 . S
H4942 C4919 0.950 . S
H4943 C4921 0.950 . S
C4944 C4945 1.349 . S
C4944 C4946 1.327 . S
C4944 H4969 0.950 . S
C4945 C4944 1.349 . S
C4945 C4961 1.349 . S
C4946 C4944 1.327 . S
C4946 C4965 1.429 . S
C4946 H4970 0.950 . S
C4947 C4964 1.574 . S
C4947 C4966 1.368 . S
C4947 H4971 0.949 . S
H4948 C4952 0.949 . S
C4949 C4950 1.349 . S
C4949 C4951 1.327 . S
C4949 H4972 0.950 . S
C4950 C4949 1.349 . S
C4950 C4962 1.349 . S
C4951 C4949 1.327 . S
C4951 C4967 1.429 . S
C4951 H4973 0.950 . S
C4952 H4948 0.949 . S
C4952 C4960 1.574 . S
C4952 C4968 1.368 . S
H4953 C4961 0.950 . S
H4954 C4959 0.950 . S
H4955 C4960 0.949 . S
H4956 C4962 0.950 . S
H4957 C4963 0.950 . S
H4958 C4964 0.949 . S
C4959 H4954 0.950 . S
C4959 C4961 1.327 . S
C4959 C4965 1.429 . S
C4960 C4952 1.574 . S
C4960 H4955 0.949 . S
C4960 C4966 1.368 . S
C4961 C4945 1.349 . S
C4961 H4953 0.950 . S
C4961 C4959 1.327 . S
C4962 C4950 1.349 . S
C4962 H4956 0.950 . S
C4962 C4963 1.327 . S
C4963 H4957 0.950 . S
C4963 C4962 1.327 . S
C4963 C4967 1.429 . S
C4964 C4947 1.574 . S
C4964 H4958 0.949 . S
C4964 C4968 1.368 . S
C4965 C4946 1.429 . S
C4965 C4959 1.429 . S
C4965 C4966 1.523 . S
C4966 C4947 1.368 . S
C4966 C4960 1.368 . S
C4966 C4965 1.523 . S
C4967 C4951 1.429 . S
C4967 C4963 1.429 . S
C4967 C4968 1.523 . S
C4968 C4952 1.368 . S
C4968 C4964 1.368 . S
C4968 C4967 1.523 . S
H4969 C4944 0.950 . S
H4970 C4946 0.950 . S
H4971 C4947 0.949 . S
H4972 C4949 0.950 . S
H4973 C4951 0.950 . S
C4974 C4975 1.349 . S
C4974 C4976 1.327 . S
C4974 H4999 0.950 . S
C4975 C4974 1.349 . S
C4975 C4991 1.349 . S
C4976 C4974 1.327 . S
C4976 C4995 1.429 . S
C4976 H5000 0.950 . S
C4977 C4994 1.574 . S
C4977 C4996 1.368 . S
C4977 H5001 0.949 . S
H4978 C4982 0.949 . S
C4979 C4980 1.349 . S
C4979 C4981 1.327 . S
C4979 H5002 0.950 . S
C4980 C4979 1.349 . S
C4980 C4992 1.349 . S
C4981 C4979 1.327 . S
C4981 C4997 1.429 . S
C4981 H5003 0.950 . S
C4982 H4978 0.949 . S
C4982 C4990 1.574 . S
C4982 C4998 1.368 . S
H4983 C4991 0.950 . S
H4984 C4989 0.950 . S
H4985 C4990 0.949 . S
H4986 C4992 0.950 . S
H4987 C4993 0.950 . S
H4988 C4994 0.949 . S
C4989 H4984 0.950 . S
C4989 C4991 1.327 . S
C4989 C4995 1.429 . S
C4990 C4982 1.574 . S
C4990 H4985 0.949 . S
C4990 C4996 1.368 . S
C4991 C4975 1.349 . S
C4991 H4983 0.950 . S
C4991 C4989 1.327 . S
C4992 C4980 1.349 . S
C4992 H4986 0.950 . S
C4992 C4993 1.327 . S
C4993 H4987 0.950 . S
C4993 C4992 1.327 . S
C4993 C4997 1.429 . S
C4994 C4977 1.574 . S
C4994 H4988 0.949 . S
C4994 C4998 1.368 . S
C4995 C4976 1.429 . S
C4995 C4989 1.429 . S
C4995 C4996 1.523 . S
C4996 C4977 1.368 . S
C4996 C4990 1.368 . S
C4996 C4995 1.523 . S
C4997 C4981 1.429 . S
C4997 C4993 1.429 . S
C4997 C4998 1.523 . S
C4998 C4982 1.368 . S
C4998 C4994 1.368 . S
C4998 C4997 1.523 . S
H4999 C4974 0.950 . S
H5000 C4976 0.950 . S
H5001 C4977 0.949 . S
H5002 C4979 0.950 . S
H5003 C4981 0.950 . S
C5004 C5005 1.349 . S
C5004 C5006 1.327 . S
C5004 H5029 0.950 . S
C5005 C5004 1.349 . S
C5005 C5021 1.349 . S
C5006 C5004 1.327 . S
C5006 C5025 1.429 . S
C5006 H5030 0.950 . S
C5007 C5024 1.574 1_455 S
C5007 C5026 1.368 . S
C5007 H5031 0.949 . S
H5008 C5012 0.963 1_655 S
C5009 C5010 1.349 . S
C5009 C5011 1.327 . S
C5009 H5032 0.950 . S
C5010 C5009 1.349 . S
C5010 C5022 1.349 . S
C5011 C5009 1.327 . S
C5011 C5027 1.429 . S
C5011 H5033 0.950 . S
C5012 H5008 0.963 1_455 S
C5012 C5020 1.585 . S
C5012 C5028 1.351 1_455 S
H5013 C5021 0.950 . S
H5014 C5019 0.950 . S
H5015 C5020 0.949 . S
H5016 C5022 0.950 . S
H5017 C5023 0.950 . S
H5018 C5024 0.949 . S
C5019 H5014 0.950 . S
C5019 C5021 1.327 . S
C5019 C5025 1.429 . S
C5020 C5012 1.585 . S
C5020 H5015 0.949 . S
C5020 C5026 1.368 . S
C5021 C5005 1.349 . S
C5021 H5013 0.950 . S
C5021 C5019 1.327 . S
C5022 C5010 1.349 . S
C5022 H5016 0.950 . S
C5022 C5023 1.327 . S
C5023 H5017 0.950 . S
C5023 C5022 1.327 . S
C5023 C5027 1.429 . S
C5024 C5007 1.574 1_655 S
C5024 H5018 0.949 . S
C5024 C5028 1.368 . S
C5025 C5006 1.429 . S
C5025 C5019 1.429 . S
C5025 C5026 1.523 . S
C5026 C5007 1.368 . S
C5026 C5020 1.368 . S
C5026 C5025 1.523 . S
C5027 C5011 1.429 . S
C5027 C5023 1.429 . S
C5027 C5028 1.523 . S
C5028 C5012 1.351 1_655 S
C5028 C5024 1.368 . S
C5028 C5027 1.523 . S
H5029 C5004 0.950 . S
H5030 C5006 0.950 . S
H5031 C5007 0.949 . S
H5032 C5009 0.950 . S
H5033 C5011 0.950 . S
C5034 C5035 1.349 . S
C5034 C5036 1.327 . S
C5034 H5059 0.950 . S
C5035 C5034 1.349 . S
C5035 C5051 1.349 . S
C5036 C5034 1.327 . S
C5036 C5055 1.429 . S
C5036 H5060 0.950 . S
C5037 C5054 1.574 . S
C5037 C5056 1.368 . S
C5037 H5061 0.949 . S
H5038 C5042 0.949 . S
C5039 C5040 1.349 . S
C5039 C5041 1.327 . S
C5039 H5062 0.950 . S
C5040 C5039 1.349 . S
C5040 C5052 1.349 . S
C5041 C5039 1.327 . S
C5041 C5057 1.429 . S
C5041 H5063 0.950 . S
C5042 H5038 0.949 . S
C5042 C5050 1.574 . S
C5042 C5058 1.368 . S
H5043 C5051 0.950 . S
H5044 C5049 0.950 . S
H5045 C5050 0.949 . S
H5046 C5052 0.950 . S
H5047 C5053 0.950 . S
H5048 C5054 0.949 . S
C5049 H5044 0.950 . S
C5049 C5051 1.327 . S
C5049 C5055 1.429 . S
C5050 C5042 1.574 . S
C5050 H5045 0.949 . S
C5050 C5056 1.368 . S
C5051 C5035 1.349 . S
C5051 H5043 0.950 . S
C5051 C5049 1.327 . S
C5052 C5040 1.349 . S
C5052 H5046 0.950 . S
C5052 C5053 1.327 . S
C5053 H5047 0.950 . S
C5053 C5052 1.327 . S
C5053 C5057 1.429 . S
C5054 C5037 1.574 . S
C5054 H5048 0.949 . S
C5054 C5058 1.368 . S
C5055 C5036 1.429 . S
C5055 C5049 1.429 . S
C5055 C5056 1.523 . S
C5056 C5037 1.368 . S
C5056 C5050 1.368 . S
C5056 C5055 1.523 . S
C5057 C5041 1.429 . S
C5057 C5053 1.429 . S
C5057 C5058 1.523 . S
C5058 C5042 1.368 . S
C5058 C5054 1.368 . S
C5058 C5057 1.523 . S
H5059 C5034 0.950 . S
H5060 C5036 0.950 . S
H5061 C5037 0.949 . S
H5062 C5039 0.950 . S
H5063 C5041 0.950 . S
C5064 C5065 1.349 . S
C5064 C5066 1.327 . S
C5064 H5089 0.950 . S
C5065 C5064 1.349 . S
C5065 C5081 1.349 . S
C5066 C5064 1.327 . S
C5066 C5085 1.429 . S
C5066 H5090 0.950 . S
C5067 C5084 1.574 . S
C5067 C5086 1.368 1_565 S
C5067 H5091 0.949 . S
H5068 C5072 0.942 . S
C5069 C5070 1.349 . S
C5069 C5071 1.327 . S
C5069 H5092 0.950 . S
C5070 C5069 1.349 . S
C5070 C5082 1.349 . S
C5071 C5069 1.327 . S
C5071 C5087 1.429 . S
C5071 H5093 0.950 . S
C5072 H5068 0.942 . S
C5072 C5080 1.603 . S
C5072 C5088 1.349 1_545 S
H5073 C5081 0.950 . S
H5074 C5079 0.950 . S
H5075 C5080 0.949 . S
H5076 C5082 0.950 . S
H5077 C5083 0.950 . S
H5078 C5084 0.949 . S
C5079 H5074 0.950 . S
C5079 C5081 1.327 . S
C5079 C5085 1.429 . S
C5080 C5072 1.603 . S
C5080 H5075 0.949 . S
C5080 C5086 1.368 . S
C5081 C5065 1.349 . S
C5081 H5073 0.950 . S
C5081 C5079 1.327 . S
C5082 C5070 1.349 . S
C5082 H5076 0.950 . S
C5082 C5083 1.327 . S
C5083 H5077 0.950 . S
C5083 C5082 1.327 . S
C5083 C5087 1.429 . S
C5084 C5067 1.574 . S
C5084 H5078 0.949 . S
C5084 C5088 1.368 . S
C5085 C5066 1.429 . S
C5085 C5079 1.429 . S
C5085 C5086 1.523 . S
C5086 C5067 1.368 1_545 S
C5086 C5080 1.368 . S
C5086 C5085 1.523 . S
C5087 C5071 1.429 . S
C5087 C5083 1.429 . S
C5087 C5088 1.523 . S
C5088 C5072 1.349 1_565 S
C5088 C5084 1.368 . S
C5088 C5087 1.523 . S
H5089 C5064 0.950 . S
H5090 C5066 0.950 . S
H5091 C5067 0.949 . S
H5092 C5069 0.950 . S
H5093 C5071 0.950 . S
C5094 C5095 1.349 . S
C5094 C5096 1.327 . S
C5094 H5119 0.950 . S
C5095 C5094 1.349 . S
C5095 C5111 1.349 . S
C5096 C5094 1.327 . S
C5096 C5115 1.429 . S
C5096 H5120 0.950 . S
C5097 C5114 1.574 . S
C5097 C5116 1.368 . S
C5097 H5121 0.949 . S
H5098 C5102 0.949 . S
C5099 C5100 1.349 . S
C5099 C5101 1.327 . S
C5099 H5122 0.950 . S
C5100 C5099 1.349 . S
C5100 C5112 1.349 . S
C5101 C5099 1.327 . S
C5101 C5117 1.429 . S
C5101 H5123 0.950 . S
C5102 H5098 0.949 . S
C5102 C5110 1.574 . S
C5102 C5118 1.368 . S
H5103 C5111 0.950 . S
H5104 C5109 0.950 . S
H5105 C5110 0.949 . S
H5106 C5112 0.950 . S
H5107 C5113 0.950 . S
H5108 C5114 0.949 . S
C5109 H5104 0.950 . S
C5109 C5111 1.327 . S
C5109 C5115 1.429 . S
C5110 C5102 1.574 . S
C5110 H5105 0.949 . S
C5110 C5116 1.368 1_545 S
C5111 C5095 1.349 . S
C5111 H5103 0.950 . S
C5111 C5109 1.327 . S
C5112 C5100 1.349 . S
C5112 H5106 0.950 . S
C5112 C5113 1.327 . S
C5113 H5107 0.950 . S
C5113 C5112 1.327 . S
C5113 C5117 1.429 . S
C5114 C5097 1.574 . S
C5114 H5108 0.949 . S
C5114 C5118 1.368 1_565 S
C5115 C5096 1.429 . S
C5115 C5109 1.429 . S
C5115 C5116 1.523 . S
C5116 C5097 1.368 . S
C5116 C5110 1.368 1_565 S
C5116 C5115 1.523 . S
C5117 C5101 1.429 . S
C5117 C5113 1.429 . S
C5117 C5118 1.523 . S
C5118 C5102 1.368 . S
C5118 C5114 1.368 1_545 S
C5118 C5117 1.523 . S
H5119 C5094 0.950 . S
H5120 C5096 0.950 . S
H5121 C5097 0.949 . S
H5122 C5099 0.950 . S
H5123 C5101 0.950 . S
C5124 C5125 1.349 . S
C5124 C5126 1.327 . S
C5124 H5149 0.950 . S
C5125 C5124 1.349 . S
C5125 C5141 1.349 . S
C5126 C5124 1.327 . S
C5126 C5145 1.429 . S
C5126 H5150 0.950 . S
C5127 C5144 1.528 1_455 S
C5127 C5146 1.368 . S
C5127 H5151 0.949 . S
H5128 C5132 0.949 . S
C5129 C5130 1.349 . S
C5129 C5131 1.327 . S
C5129 H5152 0.950 . S
C5130 C5129 1.349 . S
C5130 C5142 1.349 . S
C5131 C5129 1.327 . S
C5131 C5147 1.429 . S
C5131 H5153 0.950 . S
C5132 H5128 0.949 . S
C5132 C5140 1.574 . S
C5132 C5148 1.368 . S
H5133 C5141 0.950 . S
H5134 C5139 0.950 . S
H5135 C5140 0.930 . S
H5136 C5142 0.950 . S
H5137 C5143 0.950 . S
H5138 C5144 0.955 . S
C5139 H5134 0.950 . S
C5139 C5141 1.327 . S
C5139 C5145 1.429 . S
C5140 C5132 1.574 . S
C5140 H5135 0.930 . S
C5140 C5146 1.368 1_655 S
C5141 C5125 1.349 . S
C5141 H5133 0.950 . S
C5141 C5139 1.327 . S
C5142 C5130 1.349 . S
C5142 H5136 0.950 . S
C5142 C5143 1.327 . S
C5143 H5137 0.950 . S
C5143 C5142 1.327 . S
C5143 C5147 1.429 . S
C5144 C5127 1.528 1_655 S
C5144 H5138 0.955 . S
C5144 C5148 1.438 . S
C5145 C5126 1.429 . S
C5145 C5139 1.429 . S
C5145 C5146 1.523 . S
C5146 C5127 1.368 . S
C5146 C5140 1.368 1_455 S
C5146 C5145 1.523 . S
C5147 C5131 1.429 . S
C5147 C5143 1.429 . S
C5147 C5148 1.523 . S
C5148 C5132 1.368 . S
C5148 C5144 1.438 . S
C5148 C5147 1.523 . S
H5149 C5124 0.950 . S
H5150 C5126 0.950 . S
H5151 C5127 0.949 . S
H5152 C5129 0.950 . S
H5153 C5131 0.950 . S
C5154 C5155 1.349 . S
C5154 C5156 1.327 . S
C5154 H5179 0.950 . S
C5155 C5154 1.349 . S
C5155 C5171 1.349 . S
C5156 C5154 1.327 . S
C5156 C5175 1.429 . S
C5156 H5180 0.950 . S
C5157 C5174 1.574 . S
C5157 C5176 1.368 . S
C5157 H5181 0.949 . S
H5158 C5162 0.949 . S
C5159 C5160 1.349 . S
C5159 C5161 1.327 . S
C5159 H5182 0.950 . S
C5160 C5159 1.349 . S
C5160 C5172 1.349 . S
C5161 C5159 1.327 . S
C5161 C5177 1.429 . S
C5161 H5183 0.950 . S
C5162 H5158 0.949 . S
C5162 C5170 1.574 . S
C5162 C5178 1.368 . S
H5163 C5171 0.950 . S
H5164 C5169 0.950 . S
H5165 C5170 0.949 . S
H5166 C5172 0.950 . S
H5167 C5173 0.950 . S
H5168 C5174 0.949 . S
C5169 H5164 0.950 . S
C5169 C5171 1.327 . S
C5169 C5175 1.429 . S
C5170 C5162 1.574 . S
C5170 H5165 0.949 . S
C5170 C5176 1.368 . S
C5171 C5155 1.349 . S
C5171 H5163 0.950 . S
C5171 C5169 1.327 . S
C5172 C5160 1.349 . S
C5172 H5166 0.950 . S
C5172 C5173 1.327 . S
C5173 H5167 0.950 . S
C5173 C5172 1.327 . S
C5173 C5177 1.429 . S
C5174 C5157 1.574 . S
C5174 H5168 0.949 . S
C5174 C5178 1.368 . S
C5175 C5156 1.429 . S
C5175 C5169 1.429 . S
C5175 C5176 1.523 . S
C5176 C5157 1.368 . S
C5176 C5170 1.368 . S
C5176 C5175 1.523 . S
C5177 C5161 1.429 . S
C5177 C5173 1.429 . S
C5177 C5178 1.523 . S
C5178 C5162 1.368 . S
C5178 C5174 1.368 . S
C5178 C5177 1.523 . S
H5179 C5154 0.950 . S
H5180 C5156 0.950 . S
H5181 C5157 0.949 . S
H5182 C5159 0.950 . S
H5183 C5161 0.950 . S
C5184 C5185 1.349 . S
C5184 C5186 1.327 . S
C5184 H5209 0.950 . S
C5185 C5184 1.349 . S
C5185 C5201 1.349 . S
C5186 C5184 1.327 . S
C5186 C5205 1.429 . S
C5186 H5210 0.950 . S
C5187 C5204 1.574 . S
C5187 C5206 1.368 . S
C5187 H5211 0.949 . S
H5188 C5192 0.949 . S
C5189 C5190 1.349 . S
C5189 C5191 1.327 . S
C5189 H5212 0.950 . S
C5190 C5189 1.349 . S
C5190 C5202 1.349 . S
C5191 C5189 1.327 . S
C5191 C5207 1.429 . S
C5191 H5213 0.950 . S
C5192 H5188 0.949 . S
C5192 C5200 1.574 . S
C5192 C5208 1.368 . S
H5193 C5201 0.950 . S
H5194 C5199 0.950 . S
H5195 C5200 0.949 . S
H5196 C5202 0.950 . S
H5197 C5203 0.950 . S
H5198 C5204 0.949 . S
C5199 H5194 0.950 . S
C5199 C5201 1.327 . S
C5199 C5205 1.429 . S
C5200 C5192 1.574 . S
C5200 H5195 0.949 . S
C5200 C5206 1.368 . S
C5201 C5185 1.349 . S
C5201 H5193 0.950 . S
C5201 C5199 1.327 . S
C5202 C5190 1.349 . S
C5202 H5196 0.950 . S
C5202 C5203 1.327 . S
C5203 H5197 0.950 . S
C5203 C5202 1.327 . S
C5203 C5207 1.429 . S
C5204 C5187 1.574 . S
C5204 H5198 0.949 . S
C5204 C5208 1.368 . S
C5205 C5186 1.429 . S
C5205 C5199 1.429 . S
C5205 C5206 1.523 . S
C5206 C5187 1.368 . S
C5206 C5200 1.368 . S
C5206 C5205 1.523 . S
C5207 C5191 1.429 . S
C5207 C5203 1.429 . S
C5207 C5208 1.523 . S
C5208 C5192 1.368 . S
C5208 C5204 1.368 . S
C5208 C5207 1.523 . S
H5209 C5184 0.950 . S
H5210 C5186 0.950 . S
H5211 C5187 0.949 . S
H5212 C5189 0.950 . S
H5213 C5191 0.950 . S
C5214 C5215 1.349 . S
C5214 C5216 1.327 . S
C5214 H5239 0.950 . S
C5215 C5214 1.349 . S
C5215 C5231 1.349 . S
C5216 C5214 1.327 . S
C5216 C5235 1.429 . S
C5216 H5240 0.950 . S
C5217 C5234 1.574 . S
C5217 C5236 1.368 . S
C5217 H5241 0.949 . S
H5218 C5222 0.949 . S
C5219 C5220 1.349 . S
C5219 C5221 1.327 . S
C5219 H5242 0.950 . S
C5220 C5219 1.349 . S
C5220 C5232 1.349 . S
C5221 C5219 1.327 . S
C5221 C5237 1.429 . S
C5221 H5243 0.950 . S
C5222 H5218 0.949 . S
C5222 C5230 1.574 . S
C5222 C5238 1.368 . S
H5223 C5231 0.950 . S
H5224 C5229 0.950 . S
H5225 C5230 0.949 . S
H5226 C5232 0.950 . S
H5227 C5233 0.950 . S
H5228 C5234 0.949 . S
C5229 H5224 0.950 . S
C5229 C5231 1.327 . S
C5229 C5235 1.429 . S
C5230 C5222 1.574 . S
C5230 H5225 0.949 . S
C5230 C5236 1.368 1_565 S
C5231 C5215 1.349 . S
C5231 H5223 0.950 . S
C5231 C5229 1.327 . S
C5232 C5220 1.349 . S
C5232 H5226 0.950 . S
C5232 C5233 1.327 . S
C5233 H5227 0.950 . S
C5233 C5232 1.327 . S
C5233 C5237 1.429 . S
C5234 C5217 1.574 . S
C5234 H5228 0.949 . S
C5234 C5238 1.368 1_545 S
C5235 C5216 1.429 . S
C5235 C5229 1.429 . S
C5235 C5236 1.523 . S
C5236 C5217 1.368 . S
C5236 C5230 1.368 1_545 S
C5236 C5235 1.523 . S
C5237 C5221 1.429 . S
C5237 C5233 1.429 . S
C5237 C5238 1.523 . S
C5238 C5222 1.368 . S
C5238 C5234 1.368 1_565 S
C5238 C5237 1.523 . S
H5239 C5214 0.950 . S
H5240 C5216 0.950 . S
H5241 C5217 0.949 . S
H5242 C5219 0.950 . S
H5243 C5221 0.950 . S
C5244 C5245 1.349 . S
C5244 C5246 1.327 . S
C5244 H5269 0.950 . S
C5245 C5244 1.349 . S
C5245 C5261 1.349 . S
C5246 C5244 1.327 . S
C5246 C5265 1.429 . S
C5246 H5270 0.950 . S
C5247 C5264 1.574 1_655 S
C5247 C5266 1.368 . S
C5247 H5271 0.949 . S
H5248 C5252 0.949 . S
C5249 C5250 1.349 . S
C5249 C5251 1.327 . S
C5249 H5272 0.950 . S
C5250 C5249 1.349 . S
C5250 C5262 1.349 . S
C5251 C5249 1.327 . S
C5251 C5267 1.429 . S
C5251 H5273 0.950 . S
C5252 H5248 0.949 . S
C5252 C5260 1.574 1_455 S
C5252 C5268 1.368 . S
H5253 C5261 0.950 . S
H5254 C5259 0.950 . S
H5255 C5260 0.949 . S
H5256 C5262 0.950 . S
H5257 C5263 0.950 . S
H5258 C5264 0.949 . S
C5259 H5254 0.950 . S
C5259 C5261 1.327 . S
C5259 C5265 1.429 . S
C5260 C5252 1.574 1_655 S
C5260 H5255 0.949 . S
C5260 C5266 1.368 . S
C5261 C5245 1.349 . S
C5261 H5253 0.950 . S
C5261 C5259 1.327 . S
C5262 C5250 1.349 . S
C5262 H5256 0.950 . S
C5262 C5263 1.327 . S
C5263 H5257 0.950 . S
C5263 C5262 1.327 . S
C5263 C5267 1.429 . S
C5264 C5247 1.574 1_455 S
C5264 H5258 0.949 . S
C5264 C5268 1.368 . S
C5265 C5246 1.429 . S
C5265 C5259 1.429 . S
C5265 C5266 1.523 . S
C5266 C5247 1.368 . S
C5266 C5260 1.368 . S
C5266 C5265 1.523 . S
C5267 C5251 1.429 . S
C5267 C5263 1.429 . S
C5267 C5268 1.523 . S
C5268 C5252 1.368 . S
C5268 C5264 1.368 . S
C5268 C5267 1.523 . S
H5269 C5244 0.950 . S
H5270 C5246 0.950 . S
H5271 C5247 0.949 . S
H5272 C5249 0.950 . S
H5273 C5251 0.950 . S
C5274 C5275 1.349 . S
C5274 C5276 1.327 . S
C5274 H5299 0.950 . S
C5275 C5274 1.349 . S
C5275 C5291 1.349 . S
C5276 C5274 1.327 . S
C5276 C5295 1.429 . S
C5276 H5300 0.950 . S
C5277 C5294 1.574 . S
C5277 C5296 1.368 . S
C5277 H5301 0.949 . S
H5278 C5282 0.949 . S
C5279 C5280 1.349 . S
C5279 C5281 1.327 . S
C5279 H5302 0.950 . S
C5280 C5279 1.349 . S
C5280 C5292 1.349 . S
C5281 C5279 1.327 . S
C5281 C5297 1.429 . S
C5281 H5303 0.950 . S
C5282 H5278 0.949 . S
C5282 C5290 1.574 . S
C5282 C5298 1.368 . S
H5283 C5291 0.950 . S
H5284 C5289 0.950 . S
H5285 C5290 0.949 . S
H5286 C5292 0.950 . S
H5287 C5293 0.950 . S
H5288 C5294 0.949 . S
C5289 H5284 0.950 . S
C5289 C5291 1.327 . S
C5289 C5295 1.429 . S
C5290 C5282 1.574 . S
C5290 H5285 0.949 . S
C5290 C5296 1.368 . S
C5291 C5275 1.349 . S
C5291 H5283 0.950 . S
C5291 C5289 1.327 . S
C5292 C5280 1.349 . S
C5292 H5286 0.950 . S
C5292 C5293 1.327 . S
C5293 H5287 0.950 . S
C5293 C5292 1.327 . S
C5293 C5297 1.429 . S
C5294 C5277 1.574 . S
C5294 H5288 0.949 . S
C5294 C5298 1.368 . S
C5295 C5276 1.429 . S
C5295 C5289 1.429 . S
C5295 C5296 1.523 . S
C5296 C5277 1.368 . S
C5296 C5290 1.368 . S
C5296 C5295 1.523 . S
C5297 C5281 1.429 . S
C5297 C5293 1.429 . S
C5297 C5298 1.523 . S
C5298 C5282 1.368 . S
C5298 C5294 1.368 . S
C5298 C5297 1.523 . S
H5299 C5274 0.950 . S
H5300 C5276 0.950 . S
H5301 C5277 0.949 . S
H5302 C5279 0.950 . S
H5303 C5281 0.950 . S
C5304 C5305 1.349 . S
C5304 C5306 1.327 . S
C5304 H5329 0.950 . S
C5305 C5304 1.349 . S
C5305 C5321 1.349 . S
C5306 C5304 1.327 . S
C5306 C5325 1.429 . S
C5306 H5330 0.950 . S
C5307 C5324 1.574 . S
C5307 C5326 1.368 1_545 S
C5307 H5331 0.949 . S
H5308 C5312 0.949 . S
C5309 C5310 1.349 . S
C5309 C5311 1.327 . S
C5309 H5332 0.950 . S
C5310 C5309 1.349 . S
C5310 C5322 1.349 . S
C5311 C5309 1.327 . S
C5311 C5327 1.429 . S
C5311 H5333 0.950 . S
C5312 H5308 0.949 . S
C5312 C5320 1.574 . S
C5312 C5328 1.368 1_565 S
H5313 C5321 0.950 . S
H5314 C5319 0.950 . S
H5315 C5320 0.949 . S
H5316 C5322 0.950 . S
H5317 C5323 0.950 . S
H5318 C5324 0.949 . S
C5319 H5314 0.950 . S
C5319 C5321 1.327 . S
C5319 C5325 1.429 . S
C5320 C5312 1.574 . S
C5320 H5315 0.949 . S
C5320 C5326 1.368 . S
C5321 C5305 1.349 . S
C5321 H5313 0.950 . S
C5321 C5319 1.327 . S
C5322 C5310 1.349 . S
C5322 H5316 0.950 . S
C5322 C5323 1.327 . S
C5323 H5317 0.950 . S
C5323 C5322 1.327 . S
C5323 C5327 1.429 . S
C5324 C5307 1.574 . S
C5324 H5318 0.949 . S
C5324 C5328 1.368 . S
C5325 C5306 1.429 . S
C5325 C5319 1.429 . S
C5325 C5326 1.523 . S
C5326 C5307 1.368 1_565 S
C5326 C5320 1.368 . S
C5326 C5325 1.523 . S
C5327 C5311 1.429 . S
C5327 C5323 1.429 . S
C5327 C5328 1.523 . S
C5328 C5312 1.368 1_545 S
C5328 C5324 1.368 . S
C5328 C5327 1.523 . S
H5329 C5304 0.950 . S
H5330 C5306 0.950 . S
H5331 C5307 0.949 . S
H5332 C5309 0.950 . S
H5333 C5311 0.950 . S
C5334 C5335 1.349 . S
C5334 C5336 1.327 . S
C5334 H5359 0.950 . S
C5335 C5334 1.349 . S
C5335 C5351 1.349 . S
C5336 C5334 1.327 . S
C5336 C5355 1.429 . S
C5336 H5360 0.950 . S
C5337 C5354 1.608 . S
C5337 C5356 1.368 . S
C5337 H5361 0.949 . S
H5338 C5342 0.949 . S
C5339 C5340 1.349 . S
C5339 C5341 1.327 . S
C5339 H5362 0.950 . S
C5340 C5339 1.349 . S
C5340 C5352 1.349 . S
C5341 C5339 1.327 . S
C5341 C5357 1.429 . S
C5341 H5363 0.950 . S
C5342 H5338 0.949 . S
C5342 C5350 1.574 . S
C5342 C5358 1.368 . S
H5343 C5351 0.950 . S
H5344 C5349 0.950 . S
H5345 C5350 0.949 . S
H5346 C5352 0.950 . S
H5347 C5353 0.950 . S
H5348 C5354 0.936 . S
C5349 H5344 0.950 . S
C5349 C5351 1.327 . S
C5349 C5355 1.429 . S
C5350 C5342 1.574 . S
C5350 H5345 0.949 . S
C5350 C5356 1.368 1_455 S
C5351 C5335 1.349 . S
C5351 H5343 0.950 . S
C5351 C5349 1.327 . S
C5352 C5340 1.349 . S
C5352 H5346 0.950 . S
C5352 C5353 1.327 . S
C5353 H5347 0.950 . S
C5353 C5352 1.327 . S
C5353 C5357 1.429 . S
C5354 C5337 1.608 . S
C5354 H5348 0.936 . S
C5354 C5358 1.353 1_655 S
C5355 C5336 1.429 . S
C5355 C5349 1.429 . S
C5355 C5356 1.523 . S
C5356 C5337 1.368 . S
C5356 C5350 1.368 1_655 S
C5356 C5355 1.523 . S
C5357 C5341 1.429 . S
C5357 C5353 1.429 . S
C5357 C5358 1.523 . S
C5358 C5342 1.368 . S
C5358 C5354 1.353 1_455 S
C5358 C5357 1.523 . S
H5359 C5334 0.950 . S
H5360 C5336 0.950 . S
H5361 C5337 0.949 . S
H5362 C5339 0.950 . S
H5363 C5341 0.950 . S
C5364 C5365 1.349 . S
C5364 C5366 1.327 . S
C5364 H5389 0.950 . S
C5365 C5364 1.349 . S
C5365 C5381 1.349 . S
C5366 C5364 1.327 . S
C5366 C5385 1.429 . S
C5366 H5390 0.950 . S
C5367 C5384 1.574 . S
C5367 C5386 1.368 . S
C5367 H5391 0.949 . S
H5368 C5372 0.949 . S
C5369 C5370 1.349 . S
C5369 C5371 1.327 . S
C5369 H5392 0.950 . S
C5370 C5369 1.349 . S
C5370 C5382 1.349 . S
C5371 C5369 1.327 . S
C5371 C5387 1.429 . S
C5371 H5393 0.950 . S
C5372 H5368 0.949 . S
C5372 C5380 1.574 . S
C5372 C5388 1.368 . S
H5373 C5381 0.950 . S
H5374 C5379 0.950 . S
H5375 C5380 0.949 . S
H5376 C5382 0.950 . S
H5377 C5383 0.950 . S
H5378 C5384 0.949 . S
C5379 H5374 0.950 . S
C5379 C5381 1.327 . S
C5379 C5385 1.429 . S
C5380 C5372 1.574 . S
C5380 H5375 0.949 . S
C5380 C5386 1.368 . S
C5381 C5365 1.349 . S
C5381 H5373 0.950 . S
C5381 C5379 1.327 . S
C5382 C5370 1.349 . S
C5382 H5376 0.950 . S
C5382 C5383 1.327 . S
C5383 H5377 0.950 . S
C5383 C5382 1.327 . S
C5383 C5387 1.429 . S
C5384 C5367 1.574 . S
C5384 H5378 0.949 . S
C5384 C5388 1.368 . S
C5385 C5366 1.429 . S
C5385 C5379 1.429 . S
C5385 C5386 1.523 . S
C5386 C5367 1.368 . S
C5386 C5380 1.368 . S
C5386 C5385 1.523 . S
C5387 C5371 1.429 . S
C5387 C5383 1.429 . S
C5387 C5388 1.523 . S
C5388 C5372 1.368 . S
C5388 C5384 1.368 . S
C5388 C5387 1.523 . S
H5389 C5364 0.950 . S
H5390 C5366 0.950 . S
H5391 C5367 0.949 . S
H5392 C5369 0.950 . S
H5393 C5371 0.950 . S
C5394 C5395 1.349 . S
C5394 C5396 1.327 . S
C5394 H5419 0.950 . S
C5395 C5394 1.349 . S
C5395 C5411 1.349 . S
C5396 C5394 1.327 . S
C5396 C5415 1.429 . S
C5396 H5420 0.950 . S
C5397 C5414 1.574 . S
C5397 C5416 1.368 . S
C5397 H5421 0.949 . S
H5398 C5402 0.949 . S
C5399 C5400 1.349 . S
C5399 C5401 1.327 . S
C5399 H5422 0.950 . S
C5400 C5399 1.349 . S
C5400 C5412 1.349 . S
C5401 C5399 1.327 . S
C5401 C5417 1.429 . S
C5401 H5423 0.950 . S
C5402 H5398 0.949 . S
C5402 C5410 1.574 . S
C5402 C5418 1.368 . S
H5403 C5411 0.950 . S
H5404 C5409 0.950 . S
H5405 C5410 0.949 . S
H5406 C5412 0.950 . S
H5407 C5413 0.950 . S
H5408 C5414 0.949 . S
C5409 H5404 0.950 . S
C5409 C5411 1.327 . S
C5409 C5415 1.429 . S
C5410 C5402 1.574 . S
C5410 H5405 0.949 . S
C5410 C5416 1.368 . S
C5411 C5395 1.349 . S
C5411 H5403 0.950 . S
C5411 C5409 1.327 . S
C5412 C5400 1.349 . S
C5412 H5406 0.950 . S
C5412 C5413 1.327 . S
C5413 H5407 0.950 . S
C5413 C5412 1.327 . S
C5413 C5417 1.429 . S
C5414 C5397 1.574 . S
C5414 H5408 0.949 . S
C5414 C5418 1.368 . S
C5415 C5396 1.429 . S
C5415 C5409 1.429 . S
C5415 C5416 1.523 . S
C5416 C5397 1.368 . S
C5416 C5410 1.368 . S
C5416 C5415 1.523 . S
C5417 C5401 1.429 . S
C5417 C5413 1.429 . S
C5417 C5418 1.523 . S
C5418 C5402 1.368 . S
C5418 C5414 1.368 . S
C5418 C5417 1.523 . S
H5419 C5394 0.950 . S
H5420 C5396 0.950 . S
H5421 C5397 0.949 . S
H5422 C5399 0.950 . S
H5423 C5401 0.950 . S
C5424 C5425 1.349 . S
C5424 C5426 1.327 . S
C5424 H5449 0.950 . S
C5425 C5424 1.349 . S
C5425 C5441 1.349 . S
C5426 C5424 1.327 . S
C5426 C5445 1.429 . S
C5426 H5450 0.950 . S
C5427 C5444 1.574 . S
C5427 C5446 1.368 . S
C5427 H5451 0.949 . S
H5428 C5432 0.949 . S
C5429 C5430 1.349 . S
C5429 C5431 1.327 . S
C5429 H5452 0.950 . S
C5430 C5429 1.349 . S
C5430 C5442 1.349 . S
C5431 C5429 1.327 . S
C5431 C5447 1.429 . S
C5431 H5453 0.950 . S
C5432 H5428 0.949 . S
C5432 C5440 1.574 . S
C5432 C5448 1.368 . S
H5433 C5441 0.950 . S
H5434 C5439 0.950 . S
H5435 C5440 0.949 . S
H5436 C5442 0.950 . S
H5437 C5443 0.950 . S
H5438 C5444 0.949 . S
C5439 H5434 0.950 . S
C5439 C5441 1.327 . S
C5439 C5445 1.429 . S
C5440 C5432 1.574 . S
C5440 H5435 0.949 . S
C5440 C5446 1.368 . S
C5441 C5425 1.349 . S
C5441 H5433 0.950 . S
C5441 C5439 1.327 . S
C5442 C5430 1.349 . S
C5442 H5436 0.950 . S
C5442 C5443 1.327 . S
C5443 H5437 0.950 . S
C5443 C5442 1.327 . S
C5443 C5447 1.429 . S
C5444 C5427 1.574 . S
C5444 H5438 0.949 . S
C5444 C5448 1.368 . S
C5445 C5426 1.429 . S
C5445 C5439 1.429 . S
C5445 C5446 1.523 . S
C5446 C5427 1.368 . S
C5446 C5440 1.368 . S
C5446 C5445 1.523 . S
C5447 C5431 1.429 . S
C5447 C5443 1.429 . S
C5447 C5448 1.523 . S
C5448 C5432 1.368 . S
C5448 C5444 1.368 . S
C5448 C5447 1.523 . S
H5449 C5424 0.950 . S
H5450 C5426 0.950 . S
H5451 C5427 0.949 . S
H5452 C5429 0.950 . S
H5453 C5431 0.950 . S
C5454 C5455 1.349 . S
C5454 C5456 1.327 . S
C5454 H5479 0.950 . S
C5455 C5454 1.349 . S
C5455 C5471 1.349 . S
C5456 C5454 1.327 . S
C5456 C5475 1.429 . S
C5456 H5480 0.950 . S
C5457 C5474 1.574 . S
C5457 C5476 1.368 . S
C5457 H5481 0.949 . S
H5458 C5462 0.949 . S
C5459 C5460 1.349 . S
C5459 C5461 1.327 . S
C5459 H5482 0.950 . S
C5460 C5459 1.349 . S
C5460 C5472 1.349 . S
C5461 C5459 1.327 . S
C5461 C5477 1.429 . S
C5461 H5483 0.950 . S
C5462 H5458 0.949 . S
C5462 C5470 1.574 . S
C5462 C5478 1.368 . S
H5463 C5471 0.950 . S
H5464 C5469 0.950 . S
H5465 C5470 0.949 . S
H5466 C5472 0.950 . S
H5467 C5473 0.950 . S
H5468 C5474 0.949 . S
C5469 H5464 0.950 . S
C5469 C5471 1.327 . S
C5469 C5475 1.429 . S
C5470 C5462 1.574 . S
C5470 H5465 0.949 . S
C5470 C5476 1.368 . S
C5471 C5455 1.349 . S
C5471 H5463 0.950 . S
C5471 C5469 1.327 . S
C5472 C5460 1.349 . S
C5472 H5466 0.950 . S
C5472 C5473 1.327 . S
C5473 H5467 0.950 . S
C5473 C5472 1.327 . S
C5473 C5477 1.429 . S
C5474 C5457 1.574 . S
C5474 H5468 0.949 . S
C5474 C5478 1.368 . S
C5475 C5456 1.429 . S
C5475 C5469 1.429 . S
C5475 C5476 1.523 . S
C5476 C5457 1.368 . S
C5476 C5470 1.368 . S
C5476 C5475 1.523 . S
C5477 C5461 1.429 . S
C5477 C5473 1.429 . S
C5477 C5478 1.523 . S
C5478 C5462 1.368 . S
C5478 C5474 1.368 . S
C5478 C5477 1.523 . S
H5479 C5454 0.950 . S
H5480 C5456 0.950 . S
H5481 C5457 0.949 . S
H5482 C5459 0.950 . S
H5483 C5461 0.950 . S
C5484 C5485 1.349 . S
C5484 C5486 1.327 . S
C5484 H5509 0.950 . S
C5485 C5484 1.349 . S
C5485 C5501 1.349 . S
C5486 C5484 1.327 . S
C5486 C5505 1.429 . S
C5486 H5510 0.950 . S
C5487 C5504 1.574 . S
C5487 C5506 1.368 . S
C5487 H5511 0.949 . S
H5488 C5492 0.949 . S
C5489 C5490 1.349 . S
C5489 C5491 1.327 . S
C5489 H5512 0.950 . S
C5490 C5489 1.349 . S
C5490 C5502 1.349 . S
C5491 C5489 1.327 . S
C5491 C5507 1.429 . S
C5491 H5513 0.950 . S
C5492 H5488 0.949 . S
C5492 C5500 1.574 . S
C5492 C5508 1.368 . S
H5493 C5501 0.950 . S
H5494 C5499 0.950 . S
H5495 C5500 0.949 . S
H5496 C5502 0.950 1_556 S
H5497 C5503 0.950 . S
H5498 C5504 0.949 . S
C5499 H5494 0.950 . S
C5499 C5501 1.327 . S
C5499 C5505 1.429 . S
C5500 C5492 1.574 . S
C5500 H5495 0.949 . S
C5500 C5506 1.368 . S
C5501 C5485 1.349 . S
C5501 H5493 0.950 . S
C5501 C5499 1.327 . S
C5502 C5490 1.349 . S
C5502 H5496 0.950 1_554 S
C5502 C5503 1.327 . S
C5503 H5497 0.950 . S
C5503 C5502 1.327 . S
C5503 C5507 1.429 . S
C5504 C5487 1.574 . S
C5504 H5498 0.949 . S
C5504 C5508 1.368 . S
C5505 C5486 1.429 . S
C5505 C5499 1.429 . S
C5505 C5506 1.523 . S
C5506 C5487 1.368 . S
C5506 C5500 1.368 . S
C5506 C5505 1.523 . S
C5507 C5491 1.429 . S
C5507 C5503 1.429 . S
C5507 C5508 1.523 . S
C5508 C5492 1.368 . S
C5508 C5504 1.368 . S
C5508 C5507 1.523 . S
H5509 C5484 0.950 . S
H5510 C5486 0.950 . S
H5511 C5487 0.949 . S
H5512 C5489 0.950 . S
H5513 C5491 0.950 . S
C5514 C5515 1.349 . S
C5514 C5516 1.327 . S
C5514 H5539 0.950 . S
C5515 C5514 1.349 . S
C5515 C5531 1.349 . S
C5516 C5514 1.327 . S
C5516 C5535 1.429 . S
C5516 H5540 0.950 . S
C5517 C5534 1.574 . S
C5517 C5536 1.368 . S
C5517 H5541 0.949 . S
H5518 C5522 0.949 . S
C5519 C5520 1.349 1_556 S
C5519 C5521 1.327 1_556 S
C5519 H5542 0.950 . S
C5520 C5519 1.349 1_554 S
C5520 C5532 1.349 . S
C5521 C5519 1.327 1_554 S
C5521 C5537 1.429 . S
C5521 H5543 0.950 . S
C5522 H5518 0.949 . S
C5522 C5530 1.574 . S
C5522 C5538 1.368 . S
H5523 C5531 0.950 . S
H5524 C5529 0.950 . S
H5525 C5530 0.949 . S
H5526 C5532 0.950 . S
H5527 C5533 0.950 . S
H5528 C5534 0.949 . S
C5529 H5524 0.950 . S
C5529 C5531 1.327 . S
C5529 C5535 1.429 . S
C5530 C5522 1.574 . S
C5530 H5525 0.949 . S
C5530 C5536 1.368 . S
C5531 C5515 1.349 . S
C5531 H5523 0.950 . S
C5531 C5529 1.327 . S
C5532 C5520 1.349 . S
C5532 H5526 0.950 . S
C5532 C5533 1.327 . S
C5533 H5527 0.950 . S
C5533 C5532 1.327 . S
C5533 C5537 1.429 . S
C5534 C5517 1.574 . S
C5534 H5528 0.949 . S
C5534 C5538 1.368 . S
C5535 C5516 1.429 . S
C5535 C5529 1.429 . S
C5535 C5536 1.523 . S
C5536 C5517 1.368 . S
C5536 C5530 1.368 . S
C5536 C5535 1.523 . S
C5537 C5521 1.429 . S
C5537 C5533 1.429 . S
C5537 C5538 1.523 . S
C5538 C5522 1.368 . S
C5538 C5534 1.368 . S
C5538 C5537 1.523 . S
H5539 C5514 0.950 . S
H5540 C5516 0.950 . S
H5541 C5517 0.949 . S
H5542 C5519 0.950 . S
H5543 C5521 0.950 . S
C5544 C5545 1.349 . S
C5544 C5546 1.327 . S
C5544 H5569 0.950 . S
C5545 C5544 1.349 . S
C5545 C5561 1.349 . S
C5546 C5544 1.327 . S
C5546 C5565 1.429 . S
C5546 H5570 0.950 . S
C5547 C5564 1.574 . S
C5547 C5566 1.368 . S
C5547 H5571 0.949 . S
H5548 C5552 0.949 . S
C5549 C5550 1.349 . S
C5549 C5551 1.327 . S
C5549 H5572 0.950 . S
C5550 C5549 1.349 . S
C5550 C5562 1.346 1_556 S
C5551 C5549 1.327 . S
C5551 C5567 1.429 . S
C5551 H5573 0.950 . S
C5552 H5548 0.949 . S
C5552 C5560 1.574 . S
C5552 C5568 1.368 . S
H5553 C5561 0.950 . S
H5554 C5559 0.950 . S
H5555 C5560 0.949 . S
H5556 C5562 0.977 . S
H5557 C5563 0.950 . S
H5558 C5564 0.949 . S
C5559 H5554 0.950 . S
C5559 C5561 1.327 . S
C5559 C5565 1.429 . S
C5560 C5552 1.574 . S
C5560 H5555 0.949 . S
C5560 C5566 1.368 . S
C5561 C5545 1.349 . S
C5561 H5553 0.950 . S
C5561 C5559 1.327 . S
C5562 C5550 1.346 1_554 S
C5562 H5556 0.977 . S
C5562 C5563 1.303 1_554 S
C5563 H5557 0.950 . S
C5563 C5562 1.303 1_556 S
C5563 C5567 1.429 . S
C5564 C5547 1.574 . S
C5564 H5558 0.949 . S
C5564 C5568 1.368 . S
C5565 C5546 1.429 . S
C5565 C5559 1.429 . S
C5565 C5566 1.523 . S
C5566 C5547 1.368 . S
C5566 C5560 1.368 . S
C5566 C5565 1.523 . S
C5567 C5551 1.429 . S
C5567 C5563 1.429 . S
C5567 C5568 1.523 . S
C5568 C5552 1.368 . S
C5568 C5564 1.368 . S
C5568 C5567 1.523 . S
H5569 C5544 0.950 . S
H5570 C5546 0.950 . S
H5571 C5547 0.949 . S
H5572 C5549 0.950 . S
H5573 C5551 0.950 . S
C5574 C5575 1.349 . S
C5574 C5576 1.327 . S
C5574 H5599 0.950 1_556 S
C5575 C5574 1.349 . S
C5575 C5591 1.349 . S
C5576 C5574 1.327 . S
C5576 C5595 1.429 . S
C5576 H5600 0.950 . S
C5577 C5594 1.574 . S
C5577 C5596 1.368 . S
C5577 H5601 0.949 . S
H5578 C5582 0.949 . S
C5579 C5580 1.349 . S
C5579 C5581 1.327 . S
C5579 H5602 0.950 . S
C5580 C5579 1.349 . S
C5580 C5592 1.349 . S
C5581 C5579 1.327 . S
C5581 C5597 1.429 . S
C5581 H5603 0.950 . S
C5582 H5578 0.949 . S
C5582 C5590 1.574 . S
C5582 C5598 1.368 . S
H5583 C5591 0.950 . S
H5584 C5589 0.950 . S
H5585 C5590 0.949 . S
H5586 C5592 0.950 . S
H5587 C5593 0.950 . S
H5588 C5594 0.949 . S
C5589 H5584 0.950 . S
C5589 C5591 1.327 . S
C5589 C5595 1.429 . S
C5590 C5582 1.574 . S
C5590 H5585 0.949 . S
C5590 C5596 1.368 . S
C5591 C5575 1.349 . S
C5591 H5583 0.950 . S
C5591 C5589 1.327 . S
C5592 C5580 1.349 . S
C5592 H5586 0.950 . S
C5592 C5593 1.327 . S
C5593 H5587 0.950 . S
C5593 C5592 1.327 . S
C5593 C5597 1.429 . S
C5594 C5577 1.574 . S
C5594 H5588 0.949 . S
C5594 C5598 1.368 . S
C5595 C5576 1.429 . S
C5595 C5589 1.429 . S
C5595 C5596 1.523 . S
C5596 C5577 1.368 . S
C5596 C5590 1.368 . S
C5596 C5595 1.523 . S
C5597 C5581 1.429 . S
C5597 C5593 1.429 . S
C5597 C5598 1.523 . S
C5598 C5582 1.368 . S
C5598 C5594 1.368 . S
C5598 C5597 1.523 . S
H5599 C5574 0.950 1_554 S
H5600 C5576 0.950 . S
H5601 C5577 0.949 . S
H5602 C5579 0.950 . S
H5603 C5581 0.950 . S
C5604 C5605 1.349 1_554 S
C5604 C5606 1.327 1_554 S
C5604 H5629 0.950 . S
C5605 C5604 1.349 1_556 S
C5605 C5621 1.349 . S
C5606 C5604 1.327 1_556 S
C5606 C5625 1.429 . S
C5606 H5630 0.950 . S
C5607 C5624 1.574 . S
C5607 C5626 1.368 . S
C5607 H5631 0.949 . S
H5608 C5612 0.949 . S
C5609 C5610 1.349 . S
C5609 C5611 1.327 . S
C5609 H5632 0.950 . S
C5610 C5609 1.349 . S
C5610 C5622 1.349 . S
C5611 C5609 1.327 . S
C5611 C5627 1.429 . S
C5611 H5633 0.950 . S
C5612 H5608 0.949 . S
C5612 C5620 1.574 . S
C5612 C5628 1.368 . S
H5613 C5621 0.950 . S
H5614 C5619 0.950 . S
H5615 C5620 0.949 . S
H5616 C5622 0.950 . S
H5617 C5623 0.950 . S
H5618 C5624 0.949 . S
C5619 H5614 0.950 . S
C5619 C5621 1.327 . S
C5619 C5625 1.429 . S
C5620 C5612 1.574 . S
C5620 H5615 0.949 . S
C5620 C5626 1.368 . S
C5621 C5605 1.349 . S
C5621 H5613 0.950 . S
C5621 C5619 1.327 . S
C5622 C5610 1.349 . S
C5622 H5616 0.950 . S
C5622 C5623 1.327 . S
C5623 H5617 0.950 . S
C5623 C5622 1.327 . S
C5623 C5627 1.429 . S
C5624 C5607 1.574 . S
C5624 H5618 0.949 . S
C5624 C5628 1.368 . S
C5625 C5606 1.429 . S
C5625 C5619 1.429 . S
C5625 C5626 1.523 . S
C5626 C5607 1.368 . S
C5626 C5620 1.368 . S
C5626 C5625 1.523 . S
C5627 C5611 1.429 . S
C5627 C5623 1.429 . S
C5627 C5628 1.523 . S
C5628 C5612 1.368 . S
C5628 C5624 1.368 . S
C5628 C5627 1.523 . S
H5629 C5604 0.950 . S
H5630 C5606 0.950 . S
H5631 C5607 0.949 . S
H5632 C5609 0.950 . S
H5633 C5611 0.950 . S
C5634 C5635 1.349 . S
C5634 C5636 1.327 . S
C5634 H5659 0.950 . S
C5635 C5634 1.349 . S
C5635 C5651 1.349 . S
C5636 C5634 1.327 . S
C5636 C5655 1.429 . S
C5636 H5660 0.950 . S
C5637 C5654 1.574 . S
C5637 C5656 1.368 . S
C5637 H5661 0.949 . S
H5638 C5642 0.949 . S
C5639 C5640 1.349 . S
C5639 C5641 1.327 . S
C5639 H5662 0.950 . S
C5640 C5639 1.349 . S
C5640 C5652 1.349 . S
C5641 C5639 1.327 . S
C5641 C5657 1.429 . S
C5641 H5663 0.950 . S
C5642 H5638 0.949 . S
C5642 C5650 1.574 . S
C5642 C5658 1.368 . S
H5643 C5651 0.950 . S
H5644 C5649 0.950 . S
H5645 C5650 0.949 . S
H5646 C5652 0.950 . S
H5647 C5653 0.950 . S
H5648 C5654 0.949 . S
C5649 H5644 0.950 . S
C5649 C5651 1.327 . S
C5649 C5655 1.429 . S
C5650 C5642 1.574 . S
C5650 H5645 0.949 . S
C5650 C5656 1.368 . S
C5651 C5635 1.349 . S
C5651 H5643 0.950 . S
C5651 C5649 1.327 . S
C5652 C5640 1.349 . S
C5652 H5646 0.950 . S
C5652 C5653 1.327 . S
C5653 H5647 0.950 . S
C5653 C5652 1.327 . S
C5653 C5657 1.429 . S
C5654 C5637 1.574 . S
C5654 H5648 0.949 . S
C5654 C5658 1.368 . S
C5655 C5636 1.429 . S
C5655 C5649 1.429 . S
C5655 C5656 1.523 . S
C5656 C5637 1.368 . S
C5656 C5650 1.368 . S
C5656 C5655 1.523 . S
C5657 C5641 1.429 . S
C5657 C5653 1.429 . S
C5657 C5658 1.523 . S
C5658 C5642 1.368 . S
C5658 C5654 1.368 . S
C5658 C5657 1.523 . S
H5659 C5634 0.950 . S
H5660 C5636 0.950 . S
H5661 C5637 0.949 . S
H5662 C5639 0.950 . S
H5663 C5641 0.950 . S
C5664 C5665 1.349 . S
C5664 C5666 1.327 . S
C5664 H5689 0.950 . S
C5665 C5664 1.349 . S
C5665 C5681 1.349 . S
C5666 C5664 1.327 . S
C5666 C5685 1.429 . S
C5666 H5690 0.950 . S
C5667 C5684 1.574 . S
C5667 C5686 1.368 . S
C5667 H5691 0.949 . S
H5668 C5672 0.949 . S
C5669 C5670 1.349 . S
C5669 C5671 1.327 . S
C5669 H5692 0.950 . S
C5670 C5669 1.349 . S
C5670 C5682 1.349 . S
C5671 C5669 1.327 . S
C5671 C5687 1.429 . S
C5671 H5693 0.950 . S
C5672 H5668 0.949 . S
C5672 C5680 1.574 . S
C5672 C5688 1.368 . S
H5673 C5681 0.950 . S
H5674 C5679 0.950 . S
H5675 C5680 0.949 . S
H5676 C5682 0.950 . S
H5677 C5683 0.950 . S
H5678 C5684 0.949 . S
C5679 H5674 0.950 . S
C5679 C5681 1.327 . S
C5679 C5685 1.429 . S
C5680 C5672 1.574 . S
C5680 H5675 0.949 . S
C5680 C5686 1.368 . S
C5681 C5665 1.349 . S
C5681 H5673 0.950 . S
C5681 C5679 1.327 . S
C5682 C5670 1.349 . S
C5682 H5676 0.950 . S
C5682 C5683 1.327 . S
C5683 H5677 0.950 . S
C5683 C5682 1.327 . S
C5683 C5687 1.429 . S
C5684 C5667 1.574 . S
C5684 H5678 0.949 . S
C5684 C5688 1.368 . S
C5685 C5666 1.429 . S
C5685 C5679 1.429 . S
C5685 C5686 1.523 . S
C5686 C5667 1.368 . S
C5686 C5680 1.368 . S
C5686 C5685 1.523 . S
C5687 C5671 1.429 . S
C5687 C5683 1.429 . S
C5687 C5688 1.523 . S
C5688 C5672 1.368 . S
C5688 C5684 1.368 . S
C5688 C5687 1.523 . S
H5689 C5664 0.950 . S
H5690 C5666 0.950 . S
H5691 C5667 0.949 . S
H5692 C5669 0.950 . S
H5693 C5671 0.950 . S
C5694 C5695 1.349 . S
C5694 C5696 1.327 . S
C5694 H5719 0.950 . S
C5695 C5694 1.349 . S
C5695 C5711 1.349 . S
C5696 C5694 1.327 . S
C5696 C5715 1.429 . S
C5696 H5720 0.950 . S
C5697 C5714 1.574 . S
C5697 C5716 1.368 . S
C5697 H5721 0.949 . S
H5698 C5702 0.949 . S
C5699 C5700 1.349 . S
C5699 C5701 1.327 . S
C5699 H5722 0.950 . S
C5700 C5699 1.349 . S
C5700 C5712 1.349 . S
C5701 C5699 1.327 . S
C5701 C5717 1.429 . S
C5701 H5723 0.950 . S
C5702 H5698 0.949 . S
C5702 C5710 1.574 . S
C5702 C5718 1.368 . S
H5703 C5711 0.950 . S
H5704 C5709 0.950 . S
H5705 C5710 0.949 . S
H5706 C5712 0.950 . S
H5707 C5713 0.950 . S
H5708 C5714 0.949 . S
C5709 H5704 0.950 . S
C5709 C5711 1.327 . S
C5709 C5715 1.429 . S
C5710 C5702 1.574 . S
C5710 H5705 0.949 . S
C5710 C5716 1.368 . S
C5711 C5695 1.349 . S
C5711 H5703 0.950 . S
C5711 C5709 1.327 . S
C5712 C5700 1.349 . S
C5712 H5706 0.950 . S
C5712 C5713 1.327 . S
C5713 H5707 0.950 . S
C5713 C5712 1.327 . S
C5713 C5717 1.429 . S
C5714 C5697 1.574 . S
C5714 H5708 0.949 . S
C5714 C5718 1.368 . S
C5715 C5696 1.429 . S
C5715 C5709 1.429 . S
C5715 C5716 1.523 . S
C5716 C5697 1.368 . S
C5716 C5710 1.368 . S
C5716 C5715 1.523 . S
C5717 C5701 1.429 . S
C5717 C5713 1.429 . S
C5717 C5718 1.523 . S
C5718 C5702 1.368 . S
C5718 C5714 1.368 . S
C5718 C5717 1.523 . S
H5719 C5694 0.950 . S
H5720 C5696 0.950 . S
H5721 C5697 0.949 . S
H5722 C5699 0.950 . S
H5723 C5701 0.950 . S
C5724 C5725 1.349 . S
C5724 C5726 1.327 . S
C5724 H5749 0.950 . S
C5725 C5724 1.349 . S
C5725 C5741 1.349 . S
C5726 C5724 1.327 . S
C5726 C5745 1.429 . S
C5726 H5750 0.950 . S
C5727 C5744 1.574 . S
C5727 C5746 1.368 . S
C5727 H5751 0.949 . S
H5728 C5732 0.949 . S
C5729 C5730 1.349 . S
C5729 C5731 1.327 . S
C5729 H5752 0.950 . S
C5730 C5729 1.349 . S
C5730 C5742 1.349 . S
C5731 C5729 1.327 . S
C5731 C5747 1.429 . S
C5731 H5753 0.950 . S
C5732 H5728 0.949 . S
C5732 C5740 1.574 . S
C5732 C5748 1.368 . S
H5733 C5741 0.950 . S
H5734 C5739 0.950 . S
H5735 C5740 0.949 . S
H5736 C5742 0.950 . S
H5737 C5743 0.950 . S
H5738 C5744 0.949 . S
C5739 H5734 0.950 . S
C5739 C5741 1.327 . S
C5739 C5745 1.429 . S
C5740 C5732 1.574 . S
C5740 H5735 0.949 . S
C5740 C5746 1.368 . S
C5741 C5725 1.349 . S
C5741 H5733 0.950 . S
C5741 C5739 1.327 . S
C5742 C5730 1.349 . S
C5742 H5736 0.950 . S
C5742 C5743 1.327 . S
C5743 H5737 0.950 . S
C5743 C5742 1.327 . S
C5743 C5747 1.429 . S
C5744 C5727 1.574 . S
C5744 H5738 0.949 . S
C5744 C5748 1.368 . S
C5745 C5726 1.429 . S
C5745 C5739 1.429 . S
C5745 C5746 1.523 . S
C5746 C5727 1.368 . S
C5746 C5740 1.368 . S
C5746 C5745 1.523 . S
C5747 C5731 1.429 . S
C5747 C5743 1.429 . S
C5747 C5748 1.523 . S
C5748 C5732 1.368 . S
C5748 C5744 1.368 . S
C5748 C5747 1.523 . S
H5749 C5724 0.950 . S
H5750 C5726 0.950 . S
H5751 C5727 0.949 . S
H5752 C5729 0.950 . S
H5753 C5731 0.950 . S
C5754 C5755 1.349 . S
C5754 C5756 1.327 . S
C5754 H5779 0.950 . S
C5755 C5754 1.349 . S
C5755 C5771 1.349 . S
C5756 C5754 1.327 . S
C5756 C5775 1.429 . S
C5756 H5780 0.950 . S
C5757 C5774 1.574 . S
C5757 C5776 1.368 . S
C5757 H5781 0.949 . S
H5758 C5762 0.949 . S
C5759 C5760 1.349 1_565 S
C5759 C5761 1.327 . S
C5759 H5782 0.950 . S
C5760 C5759 1.349 1_545 S
C5760 C5772 1.349 . S
C5761 C5759 1.327 . S
C5761 C5777 1.429 . S
C5761 H5783 0.950 . S
C5762 H5758 0.949 . S
C5762 C5770 1.574 . S
C5762 C5778 1.368 . S
H5763 C5771 0.950 . S
H5764 C5769 0.950 . S
H5765 C5770 0.949 . S
H5766 C5772 0.950 . S
H5767 C5773 0.950 . S
H5768 C5774 0.949 . S
C5769 H5764 0.950 . S
C5769 C5771 1.327 . S
C5769 C5775 1.429 . S
C5770 C5762 1.574 . S
C5770 H5765 0.949 . S
C5770 C5776 1.368 . S
C5771 C5755 1.349 . S
C5771 H5763 0.950 . S
C5771 C5769 1.327 . S
C5772 C5760 1.349 . S
C5772 H5766 0.950 . S
C5772 C5773 1.327 . S
C5773 H5767 0.950 . S
C5773 C5772 1.327 . S
C5773 C5777 1.429 1_545 S
C5774 C5757 1.574 . S
C5774 H5768 0.949 . S
C5774 C5778 1.368 . S
C5775 C5756 1.429 . S
C5775 C5769 1.429 . S
C5775 C5776 1.523 . S
C5776 C5757 1.368 . S
C5776 C5770 1.368 . S
C5776 C5775 1.523 . S
C5777 C5761 1.429 . S
C5777 C5773 1.429 1_565 S
C5777 C5778 1.523 . S
C5778 C5762 1.368 . S
C5778 C5774 1.368 . S
C5778 C5777 1.523 . S
H5779 C5754 0.950 . S
H5780 C5756 0.950 . S
H5781 C5757 0.949 . S
H5782 C5759 0.950 . S
H5783 C5761 0.950 . S
C5784 C5785 1.349 . S
C5784 C5786 1.327 . S
C5784 H5809 0.950 . S
C5785 C5784 1.349 . S
C5785 C5801 1.354 1_655 S
C5786 C5784 1.327 . S
C5786 C5805 1.429 1_655 S
C5786 H5810 0.950 . S
C5787 C5804 1.574 . S
C5787 C5806 1.368 . S
C5787 H5811 0.949 . S
H5788 C5792 0.949 . S
C5789 C5790 1.349 . S
C5789 C5791 1.327 . S
C5789 H5812 0.950 . S
C5790 C5789 1.349 . S
C5790 C5802 1.349 . S
C5791 C5789 1.327 . S
C5791 C5807 1.429 . S
C5791 H5813 0.950 . S
C5792 H5788 0.949 . S
C5792 C5800 1.574 . S
C5792 C5808 1.368 . S
H5793 C5801 0.953 . S
H5794 C5799 0.950 . S
H5795 C5800 0.949 . S
H5796 C5802 0.950 . S
H5797 C5803 0.950 . S
H5798 C5804 0.949 . S
C5799 H5794 0.950 . S
C5799 C5801 1.319 . S
C5799 C5805 1.429 . S
C5800 C5792 1.574 . S
C5800 H5795 0.949 . S
C5800 C5806 1.368 . S
C5801 C5785 1.354 1_455 S
C5801 H5793 0.953 . S
C5801 C5799 1.319 . S
C5802 C5790 1.349 . S
C5802 H5796 0.950 . S
C5802 C5803 1.327 . S
C5803 H5797 0.950 . S
C5803 C5802 1.327 . S
C5803 C5807 1.429 . S
C5804 C5787 1.574 . S
C5804 H5798 0.949 . S
C5804 C5808 1.368 . S
C5805 C5786 1.429 1_455 S
C5805 C5799 1.429 . S
C5805 C5806 1.523 . S
C5806 C5787 1.368 . S
C5806 C5800 1.368 . S
C5806 C5805 1.523 . S
C5807 C5791 1.429 . S
C5807 C5803 1.429 . S
C5807 C5808 1.523 . S
C5808 C5792 1.368 . S
C5808 C5804 1.368 . S
C5808 C5807 1.523 . S
H5809 C5784 0.950 . S
H5810 C5786 0.950 . S
H5811 C5787 0.949 . S
H5812 C5789 0.950 . S
H5813 C5791 0.950 . S
C5814 C5815 1.349 . S
C5814 C5816 1.327 . S
C5814 H5839 0.950 . S
C5815 C5814 1.349 . S
C5815 C5831 1.349 . S
C5816 C5814 1.327 . S
C5816 C5835 1.429 . S
C5816 H5840 0.950 . S
C5817 C5834 1.574 . S
C5817 C5836 1.368 . S
C5817 H5841 0.949 . S
H5818 C5822 0.949 . S
C5819 C5820 1.349 . S
C5819 C5821 1.327 . S
C5819 H5842 0.950 . S
C5820 C5819 1.349 . S
C5820 C5832 1.349 . S
C5821 C5819 1.327 . S
C5821 C5837 1.429 . S
C5821 H5843 0.950 . S
C5822 H5818 0.949 . S
C5822 C5830 1.574 . S
C5822 C5838 1.368 . S
H5823 C5831 0.950 . S
H5824 C5829 0.950 . S
H5825 C5830 0.949 . S
H5826 C5832 0.950 . S
H5827 C5833 0.950 . S
H5828 C5834 0.949 . S
C5829 H5824 0.950 . S
C5829 C5831 1.327 . S
C5829 C5835 1.429 . S
C5830 C5822 1.574 . S
C5830 H5825 0.949 . S
C5830 C5836 1.368 . S
C5831 C5815 1.349 . S
C5831 H5823 0.950 . S
C5831 C5829 1.327 . S
C5832 C5820 1.349 . S
C5832 H5826 0.950 . S
C5832 C5833 1.327 . S
C5833 H5827 0.950 . S
C5833 C5832 1.327 . S
C5833 C5837 1.429 . S
C5834 C5817 1.574 . S
C5834 H5828 0.949 . S
C5834 C5838 1.368 . S
C5835 C5816 1.429 . S
C5835 C5829 1.429 . S
C5835 C5836 1.523 . S
C5836 C5817 1.368 . S
C5836 C5830 1.368 . S
C5836 C5835 1.523 . S
C5837 C5821 1.429 . S
C5837 C5833 1.429 . S
C5837 C5838 1.523 . S
C5838 C5822 1.368 . S
C5838 C5834 1.368 . S
C5838 C5837 1.523 . S
H5839 C5814 0.950 . S
H5840 C5816 0.950 . S
H5841 C5817 0.949 . S
H5842 C5819 0.950 . S
H5843 C5821 0.950 . S
C5844 C5845 1.349 . S
C5844 C5846 1.327 . S
C5844 H5869 0.950 . S
C5845 C5844 1.349 . S
C5845 C5861 1.349 1_565 S
C5846 C5844 1.327 . S
C5846 C5865 1.429 1_565 S
C5846 H5870 0.950 . S
C5847 C5864 1.574 . S
C5847 C5866 1.368 . S
C5847 H5871 0.949 . S
H5848 C5852 0.949 . S
C5849 C5850 1.349 . S
C5849 C5851 1.327 . S
C5849 H5872 0.950 . S
C5850 C5849 1.349 . S
C5850 C5862 1.349 . S
C5851 C5849 1.327 . S
C5851 C5867 1.429 . S
C5851 H5873 0.950 . S
C5852 H5848 0.949 . S
C5852 C5860 1.574 . S
C5852 C5868 1.368 . S
H5853 C5861 0.950 . S
H5854 C5859 0.950 . S
H5855 C5860 0.982 . S
H5856 C5862 0.950 . S
H5857 C5863 0.950 . S
H5858 C5864 0.949 . S
C5859 H5854 0.950 . S
C5859 C5861 1.327 . S
C5859 C5865 1.429 . S
C5860 C5852 1.574 . S
C5860 H5855 0.982 . S
C5860 C5866 1.368 . S
C5861 C5845 1.349 1_545 S
C5861 H5853 0.950 . S
C5861 C5859 1.327 . S
C5862 C5850 1.349 . S
C5862 H5856 0.950 . S
C5862 C5863 1.327 . S
C5863 H5857 0.950 . S
C5863 C5862 1.327 . S
C5863 C5867 1.429 . S
C5864 C5847 1.574 . S
C5864 H5858 0.949 . S
C5864 C5868 1.368 . S
C5865 C5846 1.429 1_545 S
C5865 C5859 1.429 . S
C5865 C5866 1.523 . S
C5866 C5847 1.368 . S
C5866 C5860 1.368 . S
C5866 C5865 1.523 . S
C5867 C5851 1.429 . S
C5867 C5863 1.429 . S
C5867 C5868 1.523 . S
C5868 C5852 1.368 . S
C5868 C5864 1.368 . S
C5868 C5867 1.523 . S
H5869 C5844 0.950 . S
H5870 C5846 0.950 . S
H5871 C5847 0.949 . S
H5872 C5849 0.950 . S
H5873 C5851 0.950 . S
C5874 C5875 1.349 . S
C5874 C5876 1.327 . S
C5874 H5899 0.950 . S
C5875 C5874 1.349 . S
C5875 C5891 1.349 1_455 S
C5876 C5874 1.327 . S
C5876 C5895 1.429 1_455 S
C5876 H5900 0.950 . S
C5877 C5894 1.574 . S
C5877 C5896 1.368 . S
C5877 H5901 0.949 . S
H5878 C5882 0.949 . S
C5879 C5880 1.349 . S
C5879 C5881 1.327 . S
C5879 H5902 0.950 . S
C5880 C5879 1.349 . S
C5880 C5892 1.349 . S
C5881 C5879 1.327 . S
C5881 C5897 1.429 . S
C5881 H5903 0.950 . S
C5882 H5878 0.949 . S
C5882 C5890 1.574 . S
C5882 C5898 1.368 . S
H5883 C5891 0.950 . S
H5884 C5889 0.950 . S
H5885 C5890 0.949 . S
H5886 C5892 0.950 . S
H5887 C5893 0.950 . S
H5888 C5894 0.949 . S
C5889 H5884 0.950 . S
C5889 C5891 1.327 . S
C5889 C5895 1.429 . S
C5890 C5882 1.574 . S
C5890 H5885 0.949 . S
C5890 C5896 1.368 . S
C5891 C5875 1.349 1_655 S
C5891 H5883 0.950 . S
C5891 C5889 1.327 . S
C5892 C5880 1.349 . S
C5892 H5886 0.950 . S
C5892 C5893 1.327 . S
C5893 H5887 0.950 . S
C5893 C5892 1.327 . S
C5893 C5897 1.429 . S
C5894 C5877 1.574 . S
C5894 H5888 0.949 . S
C5894 C5898 1.368 . S
C5895 C5876 1.429 1_655 S
C5895 C5889 1.429 . S
C5895 C5896 1.523 . S
C5896 C5877 1.368 . S
C5896 C5890 1.368 . S
C5896 C5895 1.523 . S
C5897 C5881 1.429 . S
C5897 C5893 1.429 . S
C5897 C5898 1.523 . S
C5898 C5882 1.368 . S
C5898 C5894 1.368 . S
C5898 C5897 1.523 . S
H5899 C5874 0.950 . S
H5900 C5876 0.950 . S
H5901 C5877 0.949 . S
H5902 C5879 0.950 . S
H5903 C5881 0.950 . S
C5904 C5905 1.349 . S
C5904 C5906 1.327 . S
C5904 H5929 0.950 . S
C5905 C5904 1.349 . S
C5905 C5921 1.349 . S
C5906 C5904 1.327 . S
C5906 C5925 1.429 . S
C5906 H5930 0.950 . S
C5907 C5924 1.574 . S
C5907 C5926 1.368 . S
C5907 H5931 0.949 . S
H5908 C5912 0.949 . S
C5909 C5910 1.349 . S
C5909 C5911 1.327 . S
C5909 H5932 0.950 . S
C5910 C5909 1.349 . S
C5910 C5922 1.349 . S
C5911 C5909 1.327 . S
C5911 C5927 1.429 . S
C5911 H5933 0.950 . S
C5912 H5908 0.949 . S
C5912 C5920 1.574 . S
C5912 C5928 1.368 . S
H5913 C5921 0.950 . S
H5914 C5919 0.950 . S
H5915 C5920 0.949 . S
H5916 C5922 0.950 . S
H5917 C5923 0.950 . S
H5918 C5924 0.949 . S
C5919 H5914 0.950 . S
C5919 C5921 1.327 . S
C5919 C5925 1.429 . S
C5920 C5912 1.574 . S
C5920 H5915 0.949 . S
C5920 C5926 1.368 . S
C5921 C5905 1.349 . S
C5921 H5913 0.950 . S
C5921 C5919 1.327 . S
C5922 C5910 1.349 . S
C5922 H5916 0.950 . S
C5922 C5923 1.327 . S
C5923 H5917 0.950 . S
C5923 C5922 1.327 . S
C5923 C5927 1.429 . S
C5924 C5907 1.574 . S
C5924 H5918 0.949 . S
C5924 C5928 1.368 . S
C5925 C5906 1.429 . S
C5925 C5919 1.429 . S
C5925 C5926 1.523 . S
C5926 C5907 1.368 . S
C5926 C5920 1.368 . S
C5926 C5925 1.523 . S
C5927 C5911 1.429 . S
C5927 C5923 1.429 . S
C5927 C5928 1.523 . S
C5928 C5912 1.368 . S
C5928 C5924 1.368 . S
C5928 C5927 1.523 . S
H5929 C5904 0.950 . S
H5930 C5906 0.950 . S
H5931 C5907 0.949 . S
H5932 C5909 0.950 . S
H5933 C5911 0.950 . S
C5934 C5935 1.349 1_545 S
C5934 C5936 1.327 . S
C5934 H5959 0.950 . S
C5935 C5934 1.349 1_565 S
C5935 C5951 1.349 . S
C5936 C5934 1.327 . S
C5936 C5955 1.429 . S
C5936 H5960 0.950 . S
C5937 C5954 1.574 . S
C5937 C5956 1.368 . S
C5937 H5961 0.949 1_545 S
H5938 C5942 0.949 . S
C5939 C5940 1.349 . S
C5939 C5941 1.327 . S
C5939 H5962 0.950 . S
C5940 C5939 1.349 . S
C5940 C5952 1.349 . S
C5941 C5939 1.327 . S
C5941 C5957 1.429 . S
C5941 H5963 0.950 . S
C5942 H5938 0.949 . S
C5942 C5950 1.574 . S
C5942 C5958 1.368 . S
H5943 C5951 0.950 . S
H5944 C5949 0.950 . S
H5945 C5950 0.949 . S
H5946 C5952 0.950 . S
H5947 C5953 0.950 . S
H5948 C5954 0.949 . S
C5949 H5944 0.950 . S
C5949 C5951 1.327 . S
C5949 C5955 1.429 1_565 S
C5950 C5942 1.574 . S
C5950 H5945 0.949 . S
C5950 C5956 1.368 . S
C5951 C5935 1.349 . S
C5951 H5943 0.950 . S
C5951 C5949 1.327 . S
C5952 C5940 1.349 . S
C5952 H5946 0.950 . S
C5952 C5953 1.327 . S
C5953 H5947 0.950 . S
C5953 C5952 1.327 . S
C5953 C5957 1.429 . S
C5954 C5937 1.574 . S
C5954 H5948 0.949 . S
C5954 C5958 1.368 . S
C5955 C5936 1.429 . S
C5955 C5949 1.429 1_545 S
C5955 C5956 1.523 . S
C5956 C5937 1.368 . S
C5956 C5950 1.368 . S
C5956 C5955 1.523 . S
C5957 C5941 1.429 . S
C5957 C5953 1.429 . S
C5957 C5958 1.523 . S
C5958 C5942 1.368 . S
C5958 C5954 1.368 . S
C5958 C5957 1.523 . S
H5959 C5934 0.950 . S
H5960 C5936 0.950 . S
H5961 C5937 0.949 1_565 S
H5962 C5939 0.950 . S
H5963 C5941 0.950 . S
C5964 C5965 1.349 . S
C5964 C5966 1.327 . S
C5964 H5989 0.950 . S
C5965 C5964 1.349 . S
C5965 C5981 1.349 . S
C5966 C5964 1.327 . S
C5966 C5985 1.429 . S
C5966 H5990 0.950 . S
C5967 C5984 1.574 . S
C5967 C5986 1.368 . S
C5967 H5991 0.949 . S
H5968 C5972 0.949 1_455 S
C5969 C5970 1.349 1_655 S
C5969 C5971 1.327 . S
C5969 H5992 0.950 . S
C5970 C5969 1.349 1_455 S
C5970 C5982 1.349 . S
C5971 C5969 1.327 . S
C5971 C5987 1.429 . S
C5971 H5993 0.950 . S
C5972 H5968 0.949 1_655 S
C5972 C5980 1.574 . S
C5972 C5988 1.368 . S
H5973 C5981 0.950 . S
H5974 C5979 0.950 . S
H5975 C5980 0.949 . S
H5976 C5982 0.950 . S
H5977 C5983 0.950 . S
H5978 C5984 0.949 . S
C5979 H5974 0.950 . S
C5979 C5981 1.327 . S
C5979 C5985 1.429 . S
C5980 C5972 1.574 . S
C5980 H5975 0.949 . S
C5980 C5986 1.368 . S
C5981 C5965 1.349 . S
C5981 H5973 0.950 . S
C5981 C5979 1.327 . S
C5982 C5970 1.349 . S
C5982 H5976 0.950 . S
C5982 C5983 1.327 . S
C5983 H5977 0.950 . S
C5983 C5982 1.327 . S
C5983 C5987 1.429 1_455 S
C5984 C5967 1.574 . S
C5984 H5978 0.949 . S
C5984 C5988 1.368 . S
C5985 C5966 1.429 . S
C5985 C5979 1.429 . S
C5985 C5986 1.523 . S
C5986 C5967 1.368 . S
C5986 C5980 1.368 . S
C5986 C5985 1.523 . S
C5987 C5971 1.429 . S
C5987 C5983 1.429 1_655 S
C5987 C5988 1.523 . S
C5988 C5972 1.368 . S
C5988 C5984 1.368 . S
C5988 C5987 1.523 . S
H5989 C5964 0.950 . S
H5990 C5966 0.950 . S
H5991 C5967 0.949 . S
H5992 C5969 0.950 . S
H5993 C5971 0.950 . S
C5994 C5995 1.349 . S
C5994 C5996 1.327 . S
C5994 H6019 0.950 . S
C5995 C5994 1.349 . S
C5995 C6011 1.349 . S
C5996 C5994 1.327 . S
C5996 C6015 1.429 . S
C5996 H6020 0.950 . S
C5997 C6014 1.574 . S
C5997 C6016 1.368 . S
C5997 H6021 0.949 . S
H5998 C6002 0.949 . S
C5999 C6000 1.349 . S
C5999 C6001 1.327 . S
C5999 H6022 0.950 . S
C6000 C5999 1.349 . S
C6000 C6012 1.349 . S
C6001 C5999 1.327 . S
C6001 C6017 1.429 . S
C6001 H6023 0.950 . S
C6002 H5998 0.949 . S
C6002 C6010 1.574 . S
C6002 C6018 1.368 . S
H6003 C6011 0.950 . S
H6004 C6009 0.950 . S
H6005 C6010 0.949 . S
H6006 C6012 0.950 . S
H6007 C6013 0.950 . S
H6008 C6014 0.949 . S
C6009 H6004 0.950 . S
C6009 C6011 1.327 . S
C6009 C6015 1.429 . S
C6010 C6002 1.574 . S
C6010 H6005 0.949 . S
C6010 C6016 1.368 . S
C6011 C5995 1.349 . S
C6011 H6003 0.950 . S
C6011 C6009 1.327 . S
C6012 C6000 1.349 . S
C6012 H6006 0.950 . S
C6012 C6013 1.327 . S
C6013 H6007 0.950 . S
C6013 C6012 1.327 . S
C6013 C6017 1.429 . S
C6014 C5997 1.574 . S
C6014 H6008 0.949 . S
C6014 C6018 1.368 . S
C6015 C5996 1.429 . S
C6015 C6009 1.429 . S
C6015 C6016 1.523 . S
C6016 C5997 1.368 . S
C6016 C6010 1.368 . S
C6016 C6015 1.523 . S
C6017 C6001 1.429 . S
C6017 C6013 1.429 . S
C6017 C6018 1.523 . S
C6018 C6002 1.368 . S
C6018 C6014 1.368 . S
C6018 C6017 1.523 . S
H6019 C5994 0.950 . S
H6020 C5996 0.950 . S
H6021 C5997 0.949 . S
H6022 C5999 0.950 . S
H6023 C6001 0.950 . S
C6024 C6025 1.349 . S
C6024 C6026 1.327 . S
C6024 H6049 0.950 . S
C6025 C6024 1.349 . S
C6025 C6041 1.349 . S
C6026 C6024 1.327 . S
C6026 C6045 1.429 . S
C6026 H6050 0.950 . S
C6027 C6044 1.574 . S
C6027 C6046 1.368 . S
C6027 H6051 0.949 . S
H6028 C6032 0.949 . S
C6029 C6030 1.348 . S
C6029 C6031 1.328 1_545 S
C6029 H6052 0.950 1_545 S
C6030 C6029 1.348 . S
C6030 C6042 1.349 . S
C6031 C6029 1.328 1_565 S
C6031 C6047 1.429 . S
C6031 H6053 0.950 . S
C6032 H6028 0.949 . S
C6032 C6040 1.574 . S
C6032 C6048 1.368 . S
H6033 C6041 0.950 . S
H6034 C6039 0.950 . S
H6035 C6040 0.949 . S
H6036 C6042 0.950 . S
H6037 C6043 0.950 . S
H6038 C6044 0.949 . S
C6039 H6034 0.950 . S
C6039 C6041 1.327 . S
C6039 C6045 1.429 . S
C6040 C6032 1.574 . S
C6040 H6035 0.949 . S
C6040 C6046 1.368 . S
C6041 C6025 1.349 . S
C6041 H6033 0.950 . S
C6041 C6039 1.327 . S
C6042 C6030 1.349 . S
C6042 H6036 0.950 . S
C6042 C6043 1.327 . S
C6043 H6037 0.950 . S
C6043 C6042 1.327 . S
C6043 C6047 1.429 1_545 S
C6044 C6027 1.574 . S
C6044 H6038 0.949 . S
C6044 C6048 1.368 . S
C6045 C6026 1.429 . S
C6045 C6039 1.429 . S
C6045 C6046 1.523 . S
C6046 C6027 1.368 . S
C6046 C6040 1.368 . S
C6046 C6045 1.523 . S
C6047 C6031 1.429 . S
C6047 C6043 1.429 1_565 S
C6047 C6048 1.523 . S
C6048 C6032 1.368 . S
C6048 C6044 1.368 . S
C6048 C6047 1.523 . S
H6049 C6024 0.950 . S
H6050 C6026 0.950 . S
H6051 C6027 0.949 . S
H6052 C6029 0.950 1_565 S
H6053 C6031 0.950 . S
C6054 C6055 1.349 . S
C6054 C6056 1.327 . S
C6054 H6079 0.950 . S
C6055 C6054 1.349 . S
C6055 C6071 1.349 . S
C6056 C6054 1.327 . S
C6056 C6075 1.429 . S
C6056 H6080 0.950 . S
C6057 C6074 1.574 . S
C6057 C6076 1.368 . S
C6057 H6081 0.949 . S
H6058 C6062 0.949 . S
C6059 C6060 1.349 . S
C6059 C6061 1.327 1_655 S
C6059 H6082 0.950 . S
C6060 C6059 1.349 . S
C6060 C6072 1.349 . S
C6061 C6059 1.327 1_455 S
C6061 C6077 1.429 . S
C6061 H6083 0.950 . S
C6062 H6058 0.949 . S
C6062 C6070 1.574 . S
C6062 C6078 1.368 . S
H6063 C6071 0.950 . S
H6064 C6069 0.950 . S
H6065 C6070 0.949 . S
H6066 C6072 0.950 . S
H6067 C6073 0.949 1_455 S
H6068 C6074 0.949 . S
C6069 H6064 0.950 . S
C6069 C6071 1.327 . S
C6069 C6075 1.429 . S
C6070 C6062 1.574 . S
C6070 H6065 0.949 . S
C6070 C6076 1.368 . S
C6071 C6055 1.349 . S
C6071 H6063 0.950 . S
C6071 C6069 1.327 . S
C6072 C6060 1.349 . S
C6072 H6066 0.950 . S
C6072 C6073 1.327 . S
C6073 H6067 0.949 1_655 S
C6073 C6072 1.327 . S
C6073 C6077 1.430 1_655 S
C6074 C6057 1.574 . S
C6074 H6068 0.949 . S
C6074 C6078 1.368 . S
C6075 C6056 1.429 . S
C6075 C6069 1.429 . S
C6075 C6076 1.523 . S
C6076 C6057 1.368 . S
C6076 C6070 1.368 . S
C6076 C6075 1.523 . S
C6077 C6061 1.429 . S
C6077 C6073 1.430 1_455 S
C6077 C6078 1.523 . S
C6078 C6062 1.368 . S
C6078 C6074 1.368 . S
C6078 C6077 1.523 . S
H6079 C6054 0.950 . S
H6080 C6056 0.950 . S
H6081 C6057 0.949 . S
H6082 C6059 0.950 . S
H6083 C6061 0.950 . S
C6084 C6085 1.349 . S
C6084 C6086 1.327 . S
C6084 H6109 0.950 . S
C6085 C6084 1.349 . S
C6085 C6101 1.349 . S
C6086 C6084 1.327 . S
C6086 C6105 1.429 . S
C6086 H6110 0.950 . S
C6087 C6104 1.574 1_655 S
C6087 C6106 1.368 . S
C6087 H6111 0.949 . S
H6088 C6092 0.949 . S
C6089 C6090 1.349 . S
C6089 C6091 1.327 . S
C6089 H6112 0.950 . S
C6090 C6089 1.349 . S
C6090 C6102 1.349 . S
C6091 C6089 1.327 . S
C6091 C6107 1.429 . S
C6091 H6113 0.950 . S
C6092 H6088 0.949 . S
C6092 C6100 1.574 1_455 S
C6092 C6108 1.368 . S
H6093 C6101 0.950 . S
H6094 C6099 0.950 . S
H6095 C6100 0.949 . S
H6096 C6102 0.950 . S
H6097 C6103 0.950 . S
H6098 C6104 0.949 . S
C6099 H6094 0.950 . S
C6099 C6101 1.327 . S
C6099 C6105 1.429 . S
C6100 C6092 1.574 1_655 S
C6100 H6095 0.949 . S
C6100 C6106 1.368 . S
C6101 C6085 1.349 . S
C6101 H6093 0.950 . S
C6101 C6099 1.327 . S
C6102 C6090 1.349 . S
C6102 H6096 0.950 . S
C6102 C6103 1.327 . S
C6103 H6097 0.950 . S
C6103 C6102 1.327 . S
C6103 C6107 1.429 . S
C6104 C6087 1.574 1_455 S
C6104 H6098 0.949 . S
C6104 C6108 1.368 . S
C6105 C6086 1.429 . S
C6105 C6099 1.429 . S
C6105 C6106 1.523 . S
C6106 C6087 1.368 . S
C6106 C6100 1.368 . S
C6106 C6105 1.523 . S
C6107 C6091 1.429 . S
C6107 C6103 1.429 . S
C6107 C6108 1.523 . S
C6108 C6092 1.368 . S
C6108 C6104 1.368 . S
C6108 C6107 1.523 . S
H6109 C6084 0.950 . S
H6110 C6086 0.950 . S
H6111 C6087 0.949 . S
H6112 C6089 0.950 . S
H6113 C6091 0.950 . S
C6114 C6115 1.349 . S
C6114 C6116 1.327 . S
C6114 H6139 0.950 . S
C6115 C6114 1.349 . S
C6115 C6131 1.349 . S
C6116 C6114 1.327 . S
C6116 C6135 1.429 . S
C6116 H6140 0.950 . S
C6117 C6134 1.574 . S
C6117 C6136 1.368 . S
C6117 H6141 0.949 . S
H6118 C6122 0.949 . S
C6119 C6120 1.349 . S
C6119 C6121 1.327 . S
C6119 H6142 0.950 . S
C6120 C6119 1.349 . S
C6120 C6132 1.349 . S
C6121 C6119 1.327 . S
C6121 C6137 1.429 . S
C6121 H6143 0.950 . S
C6122 H6118 0.949 . S
C6122 C6130 1.574 . S
C6122 C6138 1.368 . S
H6123 C6131 0.950 . S
H6124 C6129 0.950 . S
H6125 C6130 0.949 . S
H6126 C6132 0.950 . S
H6127 C6133 0.950 . S
H6128 C6134 0.949 . S
C6129 H6124 0.950 . S
C6129 C6131 1.327 . S
C6129 C6135 1.429 . S
C6130 C6122 1.574 . S
C6130 H6125 0.949 . S
C6130 C6136 1.368 . S
C6131 C6115 1.349 . S
C6131 H6123 0.950 . S
C6131 C6129 1.327 . S
C6132 C6120 1.349 . S
C6132 H6126 0.950 . S
C6132 C6133 1.327 . S
C6133 H6127 0.950 . S
C6133 C6132 1.327 . S
C6133 C6137 1.429 . S
C6134 C6117 1.574 . S
C6134 H6128 0.949 . S
C6134 C6138 1.368 . S
C6135 C6116 1.429 . S
C6135 C6129 1.429 . S
C6135 C6136 1.523 . S
C6136 C6117 1.368 . S
C6136 C6130 1.368 . S
C6136 C6135 1.523 . S
C6137 C6121 1.429 . S
C6137 C6133 1.429 . S
C6137 C6138 1.523 . S
C6138 C6122 1.368 . S
C6138 C6134 1.368 . S
C6138 C6137 1.523 . S
H6139 C6114 0.950 . S
H6140 C6116 0.950 . S
H6141 C6117 0.949 . S
H6142 C6119 0.950 . S
H6143 C6121 0.950 . S
C6144 C6145 1.349 . S
C6144 C6146 1.327 . S
C6144 H6169 0.950 . S
C6145 C6144 1.349 . S
C6145 C6161 1.349 . S
C6146 C6144 1.327 . S
C6146 C6165 1.429 . S
C6146 H6170 0.950 . S
C6147 C6164 1.574 1_545 S
C6147 C6166 1.368 . S
C6147 H6171 0.949 . S
H6148 C6152 0.949 . S
C6149 C6150 1.349 . S
C6149 C6151 1.327 . S
C6149 H6172 0.950 . S
C6150 C6149 1.349 . S
C6150 C6162 1.349 . S
C6151 C6149 1.327 . S
C6151 C6167 1.429 . S
C6151 H6173 0.950 . S
C6152 H6148 0.949 . S
C6152 C6160 1.574 1_565 S
C6152 C6168 1.368 . S
H6153 C6161 0.950 . S
H6154 C6159 0.950 . S
H6155 C6160 0.949 . S
H6156 C6162 0.950 . S
H6157 C6163 0.950 . S
H6158 C6164 0.949 . S
C6159 H6154 0.950 . S
C6159 C6161 1.327 . S
C6159 C6165 1.429 . S
C6160 C6152 1.574 1_545 S
C6160 H6155 0.949 . S
C6160 C6166 1.368 . S
C6161 C6145 1.349 . S
C6161 H6153 0.950 . S
C6161 C6159 1.327 . S
C6162 C6150 1.349 . S
C6162 H6156 0.950 . S
C6162 C6163 1.327 . S
C6163 H6157 0.950 . S
C6163 C6162 1.327 . S
C6163 C6167 1.429 . S
C6164 C6147 1.574 1_565 S
C6164 H6158 0.949 . S
C6164 C6168 1.368 . S
C6165 C6146 1.429 . S
C6165 C6159 1.429 . S
C6165 C6166 1.523 . S
C6166 C6147 1.368 . S
C6166 C6160 1.368 . S
C6166 C6165 1.523 . S
C6167 C6151 1.429 . S
C6167 C6163 1.429 . S
C6167 C6168 1.523 . S
C6168 C6152 1.368 . S
C6168 C6164 1.368 . S
C6168 C6167 1.523 . S
H6169 C6144 0.950 . S
H6170 C6146 0.950 . S
H6171 C6147 0.949 . S
H6172 C6149 0.950 . S
H6173 C6151 0.950 . S
C6174 C6175 1.349 . S
C6174 C6176 1.327 . S
C6174 H6199 0.950 . S
C6175 C6174 1.349 . S
C6175 C6191 1.349 . S
C6176 C6174 1.327 . S
C6176 C6195 1.429 . S
C6176 H6200 0.950 . S
C6177 C6194 1.574 1_545 S
C6177 C6196 1.368 . S
C6177 H6201 0.949 . S
H6178 C6182 0.949 . S
C6179 C6180 1.349 . S
C6179 C6181 1.327 . S
C6179 H6202 0.950 . S
C6180 C6179 1.349 . S
C6180 C6192 1.349 . S
C6181 C6179 1.327 . S
C6181 C6197 1.429 . S
C6181 H6203 0.950 . S
C6182 H6178 0.949 . S
C6182 C6190 1.574 1_565 S
C6182 C6198 1.368 . S
H6183 C6191 0.950 . S
H6184 C6189 0.950 . S
H6185 C6190 0.949 . S
H6186 C6192 0.950 . S
H6187 C6193 0.950 . S
H6188 C6194 0.949 . S
C6189 H6184 0.950 . S
C6189 C6191 1.327 . S
C6189 C6195 1.429 . S
C6190 C6182 1.574 1_545 S
C6190 H6185 0.949 . S
C6190 C6196 1.368 . S
C6191 C6175 1.349 . S
C6191 H6183 0.950 . S
C6191 C6189 1.327 . S
C6192 C6180 1.349 . S
C6192 H6186 0.950 . S
C6192 C6193 1.327 . S
C6193 H6187 0.950 . S
C6193 C6192 1.327 . S
C6193 C6197 1.429 . S
C6194 C6177 1.574 1_565 S
C6194 H6188 0.949 . S
C6194 C6198 1.368 . S
C6195 C6176 1.429 . S
C6195 C6189 1.429 . S
C6195 C6196 1.523 . S
C6196 C6177 1.368 . S
C6196 C6190 1.368 . S
C6196 C6195 1.523 . S
C6197 C6181 1.429 . S
C6197 C6193 1.429 . S
C6197 C6198 1.523 . S
C6198 C6182 1.368 . S
C6198 C6194 1.368 . S
C6198 C6197 1.523 . S
H6199 C6174 0.950 . S
H6200 C6176 0.950 . S
H6201 C6177 0.949 . S
H6202 C6179 0.950 . S
H6203 C6181 0.950 . S
C6204 C6205 1.349 . S
C6204 C6206 1.327 . S
C6204 H6229 0.950 . S
C6205 C6204 1.349 . S
C6205 C6221 1.349 . S
C6206 C6204 1.327 . S
C6206 C6225 1.429 . S
C6206 H6230 0.950 . S
C6207 C6224 1.574 1_655 S
C6207 C6226 1.368 . S
C6207 H6231 0.949 . S
H6208 C6212 0.949 . S
C6209 C6210 1.349 . S
C6209 C6211 1.327 . S
C6209 H6232 0.950 . S
C6210 C6209 1.349 . S
C6210 C6222 1.349 . S
C6211 C6209 1.327 . S
C6211 C6227 1.429 . S
C6211 H6233 0.950 . S
C6212 H6208 0.949 . S
C6212 C6220 1.574 1_455 S
C6212 C6228 1.368 . S
H6213 C6221 0.950 . S
H6214 C6219 0.950 . S
H6215 C6220 0.949 . S
H6216 C6222 0.950 . S
H6217 C6223 0.950 . S
H6218 C6224 0.949 . S
C6219 H6214 0.950 . S
C6219 C6221 1.327 . S
C6219 C6225 1.429 . S
C6220 C6212 1.574 1_655 S
C6220 H6215 0.949 . S
C6220 C6226 1.368 . S
C6221 C6205 1.349 . S
C6221 H6213 0.950 . S
C6221 C6219 1.327 . S
C6222 C6210 1.349 . S
C6222 H6216 0.950 . S
C6222 C6223 1.327 . S
C6223 H6217 0.950 . S
C6223 C6222 1.327 . S
C6223 C6227 1.429 . S
C6224 C6207 1.574 1_455 S
C6224 H6218 0.949 . S
C6224 C6228 1.368 . S
C6225 C6206 1.429 . S
C6225 C6219 1.429 . S
C6225 C6226 1.523 . S
C6226 C6207 1.368 . S
C6226 C6220 1.368 . S
C6226 C6225 1.523 . S
C6227 C6211 1.429 . S
C6227 C6223 1.429 . S
C6227 C6228 1.523 . S
C6228 C6212 1.368 . S
C6228 C6224 1.368 . S
C6228 C6227 1.523 . S
H6229 C6204 0.950 . S
H6230 C6206 0.950 . S
H6231 C6207 0.949 . S
H6232 C6209 0.950 . S
H6233 C6211 0.950 . S
C6234 C6235 1.349 . S
C6234 C6236 1.327 . S
C6234 H6259 0.950 . S
C6235 C6234 1.349 . S
C6235 C6251 1.349 . S
C6236 C6234 1.327 . S
C6236 C6255 1.429 . S
C6236 H6260 0.950 . S
C6237 C6254 1.574 . S
C6237 C6256 1.368 . S
C6237 H6261 0.949 . S
H6238 C6242 0.949 . S
C6239 C6240 1.349 . S
C6239 C6241 1.327 . S
C6239 H6262 0.950 . S
C6240 C6239 1.349 . S
C6240 C6252 1.349 . S
C6241 C6239 1.327 . S
C6241 C6257 1.429 . S
C6241 H6263 0.950 . S
C6242 H6238 0.949 . S
C6242 C6250 1.574 . S
C6242 C6258 1.368 . S
H6243 C6251 0.950 . S
H6244 C6249 0.950 . S
H6245 C6250 0.949 . S
H6246 C6252 0.950 . S
H6247 C6253 0.950 . S
H6248 C6254 0.949 . S
C6249 H6244 0.950 . S
C6249 C6251 1.327 . S
C6249 C6255 1.429 . S
C6250 C6242 1.574 . S
C6250 H6245 0.949 . S
C6250 C6256 1.368 . S
C6251 C6235 1.349 . S
C6251 H6243 0.950 . S
C6251 C6249 1.327 . S
C6252 C6240 1.349 . S
C6252 H6246 0.950 . S
C6252 C6253 1.327 . S
C6253 H6247 0.950 . S
C6253 C6252 1.327 . S
C6253 C6257 1.429 . S
C6254 C6237 1.574 . S
C6254 H6248 0.949 . S
C6254 C6258 1.368 . S
C6255 C6236 1.429 . S
C6255 C6249 1.429 . S
C6255 C6256 1.523 . S
C6256 C6237 1.368 . S
C6256 C6250 1.368 . S
C6256 C6255 1.523 . S
C6257 C6241 1.429 . S
C6257 C6253 1.429 . S
C6257 C6258 1.523 . S
C6258 C6242 1.368 . S
C6258 C6254 1.368 . S
C6258 C6257 1.523 . S
H6259 C6234 0.950 . S
H6260 C6236 0.950 . S
H6261 C6237 0.949 . S
H6262 C6239 0.950 . S
H6263 C6241 0.950 . S
C3025 C69 1.787 . S
C3030 C644 1.916 . S
C3055 C728 1.916 . S
C3060 C153 1.786 . S
C3085 C560 1.916 . S
C3090 C237 1.787 . S
C3115 C987 1.924 . S
C3120 C310 1.747 . S
C3145 C394 1.747 . S
C3150 C819 1.924 . S
C3175 C478 1.747 . S
C3180 C903 1.923 . S
C3205 C151 1.916 . S
C3210 C562 1.787 . S
C3235 C646 1.786 . S
C3240 C235 1.916 . S
C3265 C67 1.916 . S
C3270 C730 1.787 . S
C3295 C494 1.924 . S
C3300 C825 1.747 . S
C3325 C909 1.747 . S
C3330 C326 1.924 . S
C3355 C993 1.747 . S
C3360 C410 1.923 . S
C3385 C1077 1.787 . S
C3390 C1652 1.916 . S
C3415 C1736 1.916 . S
C3420 C1161 1.786 . S
C3445 C1568 1.916 . S
C3450 C1245 1.787 . S
C3475 C1318 1.747 . S
C3480 C1995 1.924 . S
C3505 C1827 1.924 . S
C3510 C1402 1.747 . S
C3535 C1486 1.747 . S
C3540 C1911 1.923 . S
C3565 C1570 1.787 . S
C3570 C1159 1.916 . S
C3595 C1243 1.916 . S
C3600 C1654 1.786 . S
C3625 C1738 1.787 . S
C3630 C1075 1.916 . S
C3655 C1502 1.924 . S
C3660 C1833 1.747 . S
C3685 C1334 1.924 . S
C3690 C1917 1.747 . S
C3715 C2001 1.747 . S
C3720 C1418 1.923 . S
C3745 C2085 1.787 . S
C3750 C2660 1.916 . S
C3775 C2169 1.786 . S
C3780 C2744 1.916 . S
C3805 C2576 1.916 . S
C3810 C2253 1.787 . S
C3835 C3003 1.924 . S
C3840 C2326 1.747 . S
C3865 C2410 1.747 . S
C3870 C2835 1.924 . S
C3895 C2919 1.923 . S
C3900 C2494 1.747 . S
C3925 C2167 1.916 . S
C3930 C2578 1.787 . S
C3955 C2662 1.786 . S
C3960 C2251 1.916 . S
C3985 C2083 1.916 . S
C3990 C2746 1.787 . S
C4015 C2841 1.747 . S
C4020 C2510 1.924 . S
C4045 C2925 1.747 . S
C4050 C2342 1.924 . S
C4075 C3009 1.747 . S
C4080 C2426 1.923 . S
C4105 C56 1.595 . S
C4110 C1579 1.595 . S
C4135 C140 1.595 . S
C4140 C1663 1.595 . S
C4165 C1747 1.595 . S
C4170 C224 1.595 . S
C4195 C2846 1.686 . S
C4200 C315 1.686 . S
C4225 C2930 1.686 . S
C4230 C399 1.686 . S
C4255 C3014 1.685 . S
C4260 C483 1.685 . S
C4285 C571 1.595 . S
C4290 C2072 1.595 . S
C4315 C2156 1.595 . S
C4320 C655 1.595 . S
C4345 C739 1.595 . S
C4350 C2240 1.595 . S
C4375 C830 1.686 . S
C4380 C1323 1.686 . S
C4405 C914 1.686 . S
C4410 C1407 1.686 . S
C4435 C998 1.685 . S
C4440 C1491 1.685 . S
C4465 C1064 1.595 . S
C4470 C2587 1.595 . S
C4495 C2671 1.595 . S
C4500 C1148 1.595 . S
C4525 C1232 1.595 . S
C4530 C2755 1.595 . S
C4555 C2331 1.686 . S
C4560 C1838 1.686 . S
C4585 C1922 1.686 . S
C4590 C2415 1.686 . S
C4615 C2499 1.685 . S
C4620 C2006 1.685 . S
C4645 C74 2.231 1_556 S
C4650 C1411 2.284 . S
C4675 C158 2.231 1_556 S
C4680 C1495 2.284 . S
C4705 C1327 2.284 . S
C4710 C242 2.231 1_556 S
C4735 C319 2.284 . S
C4740 C2258 2.231 . S
C4765 C2090 2.231 . S
C4770 C403 2.284 . S
C4795 C487 2.284 . S
C4800 C2174 2.231 . S
C4825 C2912 2.284 . S
C4830 C567 2.231 1_554 S
C4855 C651 2.231 1_554 S
C4860 C2996 2.284 . S
C4885 C2828 2.284 . S
C4890 C735 2.231 1_554 S
C4915 C812 2.284 . S
C4920 C1743 2.231 . S
C4945 C896 2.284 . S
C4950 C1575 2.231 . S
C4975 C980 2.284 . S
C4980 C1659 2.231 . S
C5005 C2419 2.284 . S
C5010 C1082 2.231 . S
C5035 C1166 2.231 . S
C5040 C2503 2.284 . S
C5065 C1250 2.231 . S
C5070 C2335 2.284 . S
C5095 C2751 2.231 . S
C5100 C1820 2.284 . S
C5125 C2583 2.231 . S
C5130 C1904 2.284 . S
C5155 C2667 2.231 . S
C5160 C1988 2.284 . S
C5185 C308 2.818 . S
C5190 C63 2.867 . S
C5215 C147 2.867 . S
C5220 C392 2.818 . S
C5245 C231 2.867 . S
C5250 C476 2.818 . S
C5275 C823 2.818 . S
C5280 C578 2.867 . S
C5305 C662 2.867 . S
C5310 C907 2.818 . S
C5335 C991 2.818 . S
C5340 C746 2.867 . S
C5365 C1316 2.818 . S
C5370 C1071 2.867 . S
C5395 C1155 2.867 . S
C5400 C1400 2.818 . S
C5425 C1239 2.867 . S
C5430 C1484 2.818 . S
C5455 C1586 2.867 . S
C5460 C1831 2.818 1_554 S
C5485 C1670 2.867 . S
C5490 C1915 2.818 1_554 S
C5515 C1754 2.867 . S
C5520 C1999 2.818 1_554 S
C5545 C2079 2.867 . S
C5550 C2324 2.818 1_556 S
C5575 C2408 2.818 1_556 S
C5580 C2163 2.867 . S
C5605 C2492 2.818 1_556 S
C5610 C2247 2.867 . S
C5635 C2594 2.867 . S
C5640 C2839 2.818 . S
C5665 C2923 2.818 . S
C5670 C2678 2.867 . S
C5695 C2762 2.867 . S
C5700 C3007 2.818 . S
C5725 C58 0.770 . S
C5730 C2505 0.645 . S
C5755 C2337 0.645 . S
C5760 C142 0.770 . S
C5785 C226 0.770 . S
C5790 C2421 0.645 . S
C5815 C1150 0.770 . S
C5820 C321 0.645 . S
C5845 C405 0.645 . S
C5850 C1234 0.770 . S
C5875 C489 0.645 . S
C5880 C1066 0.770 . S
C5905 C1990 0.645 . S
C5910 C573 0.770 . S
C5935 C657 0.770 . S
C5940 C1822 0.645 . S
C5965 C1906 0.645 . S
C5970 C741 0.770 . S
C5995 C814 0.645 . S
C6000 C2673 0.770 . S
C6025 C2757 0.770 . S
C6030 C898 0.645 . S
C6055 C2589 0.770 . S
C6060 C982 0.645 . S
C6085 C1329 0.645 . S
C6090 C2158 0.770 . S
C6115 C1413 0.645 . S
C6120 C2242 0.770 . S
C6145 C1497 0.645 . S
C6150 C2074 0.770 . S
C6175 C1581 0.770 . S
C6180 C2998 0.645 . S
C6205 C1665 0.770 . S
C6210 C2830 0.645 . S
C6235 C2914 0.645 . S
C6240 C1749 0.770 . S
