# Generated by pormake.
# Topology ukp, (4)-cn, num edge types: 1
# Building blocks:
#     Node 0, Type 0, BuildingBlock: NAWXER_clean_sbu_0, # of connection points: 4
#     Node 1, Type 0, BuildingBlock: NAWXER_clean_sbu_0, # of connection points: 4
#     Node 2, Type 0, BuildingBlock: NAWXER_clean_sbu_0, # of connection points: 4
#     Node 3, Type 0, BuildingBlock: NAWXER_clean_sbu_0, # of connection points: 4
#     Node 4, Type 0, BuildingBlock: NAWXER_clean_sbu_0, # of connection points: 4
#     Node 5, Type 0, BuildingBlock: NAWXER_clean_sbu_0, # of connection points: 4
#     Node 6, Type 0, BuildingBlock: NAWXER_clean_sbu_0, # of connection points: 4
#     Node 7, Type 0, BuildingBlock: NAWXER_clean_sbu_0, # of connection points: 4
#     Node 8, Type 0, BuildingBlock: NAWXER_clean_sbu_0, # of connection points: 4
#     Node 9, Type 0, BuildingBlock: NAWXER_clean_sbu_0, # of connection points: 4
#     Node 10, Type 0, BuildingBlock: NAWXER_clean_sbu_0, # of connection points: 4
#     Node 11, Type 0, BuildingBlock: NAWXER_clean_sbu_0, # of connection points: 4
#     Node 12, Type 0, BuildingBlock: NAWXER_clean_sbu_0, # of connection points: 4
#     Node 13, Type 0, BuildingBlock: NAWXER_clean_sbu_0, # of connection points: 4
#     Node 14, Type 0, BuildingBlock: NAWXER_clean_sbu_0, # of connection points: 4
#     Node 15, Type 0, BuildingBlock: NAWXER_clean_sbu_0, # of connection points: 4
#     Node 16, Type 0, BuildingBlock: NAWXER_clean_sbu_0, # of connection points: 4
#     Node 17, Type 0, BuildingBlock: NAWXER_clean_sbu_0, # of connection points: 4
#     Node 18, Type 0, BuildingBlock: NAWXER_clean_sbu_0, # of connection points: 4
#     Node 19, Type 0, BuildingBlock: NAWXER_clean_sbu_0, # of connection points: 4
#     Node 20, Type 0, BuildingBlock: NAWXER_clean_sbu_0, # of connection points: 4
#     Node 21, Type 0, BuildingBlock: NAWXER_clean_sbu_0, # of connection points: 4
#     Node 22, Type 0, BuildingBlock: NAWXER_clean_sbu_0, # of connection points: 4
#     Node 23, Type 0, BuildingBlock: NAWXER_clean_sbu_0, # of connection points: 4
#     Node 24, Type 0, BuildingBlock: NAWXER_clean_sbu_0, # of connection points: 4
#     Node 25, Type 0, BuildingBlock: NAWXER_clean_sbu_0, # of connection points: 4
#     Node 26, Type 0, BuildingBlock: NAWXER_clean_sbu_0, # of connection points: 4
#     Node 27, Type 0, BuildingBlock: NAWXER_clean_sbu_0, # of connection points: 4
#     Node 28, Type 0, BuildingBlock: NAWXER_clean_sbu_0, # of connection points: 4
#     Node 29, Type 0, BuildingBlock: NAWXER_clean_sbu_0, # of connection points: 4
#     Node 30, Type 0, BuildingBlock: NAWXER_clean_sbu_0, # of connection points: 4
#     Node 31, Type 0, BuildingBlock: NAWXER_clean_sbu_0, # of connection points: 4
#     Node 32, Type 0, BuildingBlock: NAWXER_clean_sbu_0, # of connection points: 4
#     Node 33, Type 0, BuildingBlock: NAWXER_clean_sbu_0, # of connection points: 4
#     Node 34, Type 0, BuildingBlock: NAWXER_clean_sbu_0, # of connection points: 4
#     Node 35, Type 0, BuildingBlock: NAWXER_clean_sbu_0, # of connection points: 4
#     Node 36, Type 0, BuildingBlock: NAWXER_clean_sbu_0, # of connection points: 4
#     Node 37, Type 0, BuildingBlock: NAWXER_clean_sbu_0, # of connection points: 4
#     Node 38, Type 0, BuildingBlock: NAWXER_clean_sbu_0, # of connection points: 4
#     Node 39, Type 0, BuildingBlock: NAWXER_clean_sbu_0, # of connection points: 4
#     Node 40, Type 0, BuildingBlock: NAWXER_clean_sbu_0, # of connection points: 4
#     Node 41, Type 0, BuildingBlock: NAWXER_clean_sbu_0, # of connection points: 4
#     Node 42, Type 0, BuildingBlock: NAWXER_clean_sbu_0, # of connection points: 4
#     Node 43, Type 0, BuildingBlock: NAWXER_clean_sbu_0, # of connection points: 4
#     Node 44, Type 0, BuildingBlock: NAWXER_clean_sbu_0, # of connection points: 4
#     Node 45, Type 0, BuildingBlock: NAWXER_clean_sbu_0, # of connection points: 4
#     Node 46, Type 0, BuildingBlock: NAWXER_clean_sbu_0, # of connection points: 4
#     Node 47, Type 0, BuildingBlock: NAWXER_clean_sbu_0, # of connection points: 4
#     Edge 48, Type (0, 0), None
#     Edge 49, Type (0, 0), None
#     Edge 50, Type (0, 0), None
#     Edge 51, Type (0, 0), None
#     Edge 52, Type (0, 0), None
#     Edge 53, Type (0, 0), None
#     Edge 54, Type (0, 0), None
#     Edge 55, Type (0, 0), None
#     Edge 56, Type (0, 0), None
#     Edge 57, Type (0, 0), None
#     Edge 58, Type (0, 0), None
#     Edge 59, Type (0, 0), None
#     Edge 60, Type (0, 0), None
#     Edge 61, Type (0, 0), None
#     Edge 62, Type (0, 0), None
#     Edge 63, Type (0, 0), None
#     Edge 64, Type (0, 0), None
#     Edge 65, Type (0, 0), None
#     Edge 66, Type (0, 0), None
#     Edge 67, Type (0, 0), None
#     Edge 68, Type (0, 0), None
#     Edge 69, Type (0, 0), None
#     Edge 70, Type (0, 0), None
#     Edge 71, Type (0, 0), None
#     Edge 72, Type (0, 0), None
#     Edge 73, Type (0, 0), None
#     Edge 74, Type (0, 0), None
#     Edge 75, Type (0, 0), None
#     Edge 76, Type (0, 0), None
#     Edge 77, Type (0, 0), None
#     Edge 78, Type (0, 0), None
#     Edge 79, Type (0, 0), None
#     Edge 80, Type (0, 0), None
#     Edge 81, Type (0, 0), None
#     Edge 82, Type (0, 0), None
#     Edge 83, Type (0, 0), None
#     Edge 84, Type (0, 0), None
#     Edge 85, Type (0, 0), None
#     Edge 86, Type (0, 0), None
#     Edge 87, Type (0, 0), None
#     Edge 88, Type (0, 0), None
#     Edge 89, Type (0, 0), None
#     Edge 90, Type (0, 0), None
#     Edge 91, Type (0, 0), None
#     Edge 92, Type (0, 0), None
#     Edge 93, Type (0, 0), None
#     Edge 94, Type (0, 0), None
#     Edge 95, Type (0, 0), None
#     Edge 96, Type (0, 0), None
#     Edge 97, Type (0, 0), None
#     Edge 98, Type (0, 0), None
#     Edge 99, Type (0, 0), None
#     Edge 100, Type (0, 0), None
#     Edge 101, Type (0, 0), None
#     Edge 102, Type (0, 0), None
#     Edge 103, Type (0, 0), None
#     Edge 104, Type (0, 0), None
#     Edge 105, Type (0, 0), None
#     Edge 106, Type (0, 0), None
#     Edge 107, Type (0, 0), None
#     Edge 108, Type (0, 0), None
#     Edge 109, Type (0, 0), None
#     Edge 110, Type (0, 0), None
#     Edge 111, Type (0, 0), None
#     Edge 112, Type (0, 0), None
#     Edge 113, Type (0, 0), None
#     Edge 114, Type (0, 0), None
#     Edge 115, Type (0, 0), None
#     Edge 116, Type (0, 0), None
#     Edge 117, Type (0, 0), None
#     Edge 118, Type (0, 0), None
#     Edge 119, Type (0, 0), None
#     Edge 120, Type (0, 0), None
#     Edge 121, Type (0, 0), None
#     Edge 122, Type (0, 0), None
#     Edge 123, Type (0, 0), None
#     Edge 124, Type (0, 0), None
#     Edge 125, Type (0, 0), None
#     Edge 126, Type (0, 0), None
#     Edge 127, Type (0, 0), None
#     Edge 128, Type (0, 0), None
#     Edge 129, Type (0, 0), None
#     Edge 130, Type (0, 0), None
#     Edge 131, Type (0, 0), None
#     Edge 132, Type (0, 0), None
#     Edge 133, Type (0, 0), None
#     Edge 134, Type (0, 0), None
#     Edge 135, Type (0, 0), None
#     Edge 136, Type (0, 0), None
#     Edge 137, Type (0, 0), None
#     Edge 138, Type (0, 0), None
#     Edge 139, Type (0, 0), None
#     Edge 140, Type (0, 0), None
#     Edge 141, Type (0, 0), None
#     Edge 142, Type (0, 0), None
#     Edge 143, Type (0, 0), None
# Relax obj value: 0.179
# Max RMSD: 0.216
# Mean RMSD: 0.216
data_MOF--net-ukp--node1-NAWXER_clean_sbu_0--edge1-none
_symmetry_space_group_name_H-M    P1
_symmetry_Int_Tables_number       1
_symmetry_cell_setting            triclinic
loop_
_symmetry_equiv_pos_as_xyz
'x, y, z'
_cell_length_a     27.952274
_cell_length_b     27.952425
_cell_length_c     27.952308
_cell_angle_alpha  89.999839
_cell_angle_beta   89.999806
_cell_angle_gamma 90.000792
loop_
_atom_site_label
_atom_site_type_symbol
_atom_site_fract_x
_atom_site_fract_y
_atom_site_fract_z
_atom_type_partial_charge
C0 C 0.20104 0.32583 0.30848 0.0
C1 C 0.14035 0.21374 0.43076 0.0
O2 O 0.22911 0.31834 0.34381 0.0
Zn3 Zn 0.23191 0.27804 0.40952 0.0
O4 O 0.16179 0.30272 0.30483 0.0
Zn5 Zn 0.1702 0.26876 0.36595 0.0
O6 O 0.17158 0.33157 0.41014 0.0
O7 O 0.23818 0.33257 0.45299 0.0
O8 O 0.12005 0.22788 0.39269 0.0
O9 O 0.18216 0.22933 0.44108 0.0
O10 O 0.28683 0.24031 0.39636 0.0
O11 O 0.22929 0.2239 0.34487 0.0
C12 C 0.20001 0.35299 0.43904 0.0
C13 C 0.27233 0.2181 0.35944 0.0
C14 C 0.04228 0.89035 0.68077 0.0
C15 C 0.93021 0.95105 0.55848 0.0
O16 O 0.02669 0.93215 0.69109 0.0
Zn17 Zn 0.97799 0.98191 0.65954 0.0
O18 O 0.02813 0.87005 0.64269 0.0
Zn19 Zn 0.98726 0.9202 0.61596 0.0
O20 O 0.03212 0.9793 0.59489 0.0
O21 O 0.01572 0.03683 0.64638 0.0
O22 O 0.95331 0.9118 0.55483 0.0
O23 O 0.93769 0.97912 0.59382 0.0
O24 O 0.92345 0.98818 0.703 0.0
O25 O 0.92444 0.92158 0.66015 0.0
C26 C 0.03792 0.02234 0.60946 0.0
C27 C 0.90302 0.95002 0.68904 0.0
C28 C 0.23369 0.78792 0.85945 0.0
C29 C 0.30602 0.65304 0.93904 0.0
O30 O 0.27673 0.78213 0.84488 0.0
Zn31 Zn 0.33583 0.73727 0.86595 0.0
O32 O 0.21921 0.76572 0.89638 0.0
Zn33 Zn 0.27412 0.72799 0.90953 0.0
O34 O 0.32388 0.7767 0.94109 0.0
O35 O 0.38598 0.77815 0.89269 0.0
O36 O 0.26786 0.67346 0.95299 0.0
O37 O 0.33445 0.67445 0.91014 0.0
O38 O 0.34423 0.70332 0.80483 0.0
O39 O 0.27692 0.68769 0.84382 0.0
C40 C 0.36568 0.79229 0.93076 0.0
C41 C 0.30499 0.68022 0.80847 0.0
C42 C 0.46812 0.98369 0.10946 0.0
C43 C 0.60301 0.05602 0.18904 0.0
O44 O 0.47391 0.02673 0.09488 0.0
Zn45 Zn 0.51877 0.08583 0.11596 0.0
O46 O 0.49032 0.96921 0.14638 0.0
Zn47 Zn 0.52805 0.02412 0.15954 0.0
O48 O 0.47935 0.07388 0.19109 0.0
O49 O 0.4779 0.13598 0.14269 0.0
O50 O 0.58259 0.01785 0.203 0.0
O51 O 0.5816 0.08445 0.16014 0.0
O52 O 0.55273 0.09423 0.05483 0.0
O53 O 0.56835 0.02692 0.09382 0.0
C54 C 0.46376 0.11568 0.18076 0.0
C55 C 0.57583 0.05499 0.05848 0.0
C56 C 0.20104 0.6802 0.19756 0.0
C57 C 0.14035 0.79228 0.07528 0.0
O58 O 0.22911 0.68768 0.16222 0.0
Zn59 Zn 0.23191 0.72799 0.09651 0.0
O60 O 0.16179 0.7033 0.20121 0.0
Zn61 Zn 0.1702 0.73726 0.14008 0.0
O62 O 0.17158 0.67445 0.09589 0.0
O63 O 0.23818 0.67345 0.05304 0.0
O64 O 0.12005 0.77814 0.11335 0.0
O65 O 0.18216 0.77669 0.06496 0.0
O66 O 0.28683 0.76572 0.10968 0.0
O67 O 0.22929 0.78212 0.16116 0.0
C68 C 0.20001 0.65303 0.06699 0.0
C69 C 0.27233 0.78792 0.1466 0.0
C70 C 0.46811 0.02234 0.39659 0.0
C71 C 0.603 0.95001 0.317 0.0
O72 O 0.47391 0.9793 0.41116 0.0
Zn73 Zn 0.51876 0.9202 0.39008 0.0
O74 O 0.49031 0.03682 0.35966 0.0
Zn75 Zn 0.52804 0.98191 0.34651 0.0
O76 O 0.47934 0.93215 0.31495 0.0
O77 O 0.47789 0.87005 0.36335 0.0
O78 O 0.58258 0.98818 0.30304 0.0
O79 O 0.58159 0.92158 0.3459 0.0
O80 O 0.55272 0.9118 0.45121 0.0
O81 O 0.56834 0.97911 0.41222 0.0
C82 C 0.46375 0.89035 0.32527 0.0
C83 C 0.57582 0.95104 0.44756 0.0
C84 C 0.30603 0.353 0.56699 0.0
C85 C 0.2337 0.21811 0.6466 0.0
O86 O 0.33446 0.33159 0.59589 0.0
Zn87 Zn 0.33584 0.26877 0.64008 0.0
O88 O 0.26786 0.33258 0.55304 0.0
Zn89 Zn 0.27413 0.27805 0.59651 0.0
O90 O 0.27693 0.31835 0.66222 0.0
O91 O 0.34425 0.30273 0.7012 0.0
O92 O 0.21921 0.24032 0.60968 0.0
O93 O 0.27675 0.22391 0.66116 0.0
O94 O 0.38599 0.2279 0.61334 0.0
O95 O 0.32388 0.22934 0.56495 0.0
C96 C 0.30501 0.32583 0.69756 0.0
C97 C 0.36568 0.21375 0.57527 0.0
C98 C 0.04229 0.11568 0.82527 0.0
C99 C 0.93021 0.05498 0.94756 0.0
O100 O 0.0267 0.07388 0.81495 0.0
Zn101 Zn 0.97799 0.02412 0.8465 0.0
O102 O 0.02815 0.13598 0.86335 0.0
Zn103 Zn 0.98727 0.08583 0.89008 0.0
O104 O 0.03213 0.02673 0.91115 0.0
O105 O 0.01573 0.9692 0.85966 0.0
O106 O 0.95332 0.09423 0.95121 0.0
O107 O 0.93769 0.02691 0.91222 0.0
O108 O 0.92345 0.01785 0.80304 0.0
O109 O 0.92445 0.08445 0.8459 0.0
C110 C 0.03793 0.98369 0.89658 0.0
C111 C 0.90303 0.05602 0.817 0.0
C112 C 0.35945 0.27234 0.21811 0.0
C113 C 0.43904 0.20001 0.353 0.0
O114 O 0.34488 0.2293 0.22391 0.0
Zn115 Zn 0.36596 0.1702 0.26876 0.0
O116 O 0.39638 0.28682 0.24031 0.0
Zn117 Zn 0.40954 0.23191 0.27804 0.0
O118 O 0.4411 0.18215 0.22933 0.0
O119 O 0.3927 0.12005 0.22789 0.0
O120 O 0.453 0.23818 0.33258 0.0
O121 O 0.41015 0.17158 0.33158 0.0
O122 O 0.30484 0.16179 0.30271 0.0
O123 O 0.34382 0.22911 0.31834 0.0
C124 C 0.43078 0.14035 0.21374 0.0
C125 C 0.30848 0.20104 0.32582 0.0
C126 C 0.055 0.05848 0.57583 0.0
C127 C 0.11568 0.18076 0.46374 0.0
O128 O 0.02693 0.09382 0.56834 0.0
Zn129 Zn 0.02412 0.15953 0.52804 0.0
O130 O 0.09424 0.05483 0.55272 0.0
Zn131 Zn 0.08584 0.11595 0.51877 0.0
O132 O 0.08446 0.16015 0.58158 0.0
O133 O 0.01786 0.20299 0.58258 0.0
O134 O 0.13599 0.14269 0.47789 0.0
O135 O 0.07388 0.19108 0.47933 0.0
O136 O 0.96921 0.14636 0.49031 0.0
O137 O 0.02675 0.09487 0.47391 0.0
C138 C 0.05603 0.18905 0.603 0.0
C139 C 0.9837 0.10944 0.46811 0.0
C140 C 0.14658 0.73369 0.71811 0.0
C141 C 0.06699 0.80601 0.853 0.0
O142 O 0.16115 0.77674 0.72391 0.0
Zn143 Zn 0.14007 0.83583 0.76877 0.0
O144 O 0.10965 0.71921 0.74031 0.0
Zn145 Zn 0.09649 0.77412 0.77804 0.0
O146 O 0.06494 0.82388 0.72934 0.0
O147 O 0.11333 0.88598 0.72789 0.0
O148 O 0.05303 0.76785 0.83258 0.0
O149 O 0.09588 0.83445 0.83159 0.0
O150 O 0.20119 0.84424 0.80272 0.0
O151 O 0.16221 0.77692 0.81834 0.0
C152 C 0.07526 0.86568 0.71375 0.0
C153 C 0.19755 0.80499 0.82582 0.0
C154 C 0.45104 0.94755 0.07583 0.0
C155 C 0.39035 0.82527 0.96374 0.0
O156 O 0.47911 0.91221 0.06834 0.0
Zn157 Zn 0.48191 0.8465 0.02804 0.0
O158 O 0.4118 0.9512 0.05272 0.0
Zn159 Zn 0.4202 0.89008 0.01877 0.0
O160 O 0.42158 0.84589 0.08158 0.0
O161 O 0.48818 0.80304 0.08258 0.0
O162 O 0.37005 0.86334 0.97789 0.0
O163 O 0.43215 0.81495 0.97933 0.0
O164 O 0.53683 0.85967 0.99031 0.0
O165 O 0.47929 0.91116 0.97391 0.0
C166 C 0.45001 0.81698 0.10299 0.0
C167 C 0.52233 0.8966 0.96811 0.0
C168 C 0.43077 0.86568 0.29229 0.0
C169 C 0.30848 0.80499 0.18022 0.0
O170 O 0.44109 0.82388 0.2767 0.0
Zn171 Zn 0.40954 0.77412 0.22799 0.0
O172 O 0.3927 0.88598 0.27815 0.0
Zn173 Zn 0.36596 0.83583 0.23727 0.0
O174 O 0.34488 0.77673 0.28213 0.0
O175 O 0.39638 0.7192 0.26572 0.0
O176 O 0.30484 0.84424 0.20332 0.0
O177 O 0.34382 0.77692 0.1877 0.0
O178 O 0.453 0.76785 0.17345 0.0
O179 O 0.41015 0.83445 0.17445 0.0
C180 C 0.35945 0.73369 0.28792 0.0
C181 C 0.43904 0.80602 0.15303 0.0
C182 C 0.52234 0.10945 0.53792 0.0
C183 C 0.45001 0.18904 0.40304 0.0
O184 O 0.4793 0.09488 0.53213 0.0
Zn185 Zn 0.4202 0.11596 0.48727 0.0
O186 O 0.53683 0.14638 0.51572 0.0
Zn187 Zn 0.48191 0.15954 0.478 0.0
O188 O 0.43216 0.19109 0.5267 0.0
O189 O 0.37005 0.1427 0.52815 0.0
O190 O 0.48818 0.203 0.42346 0.0
O191 O 0.42158 0.16014 0.42445 0.0
O192 O 0.4118 0.05483 0.45332 0.0
O193 O 0.47911 0.09382 0.4377 0.0
C194 C 0.39035 0.18077 0.54229 0.0
C195 C 0.45104 0.05848 0.43022 0.0
C196 C 0.07527 0.14035 0.79229 0.0
C197 C 0.19755 0.20104 0.68022 0.0
O198 O 0.06494 0.18215 0.7767 0.0
Zn199 Zn 0.0965 0.23191 0.72799 0.0
O200 O 0.11334 0.12005 0.77815 0.0
Zn201 Zn 0.14008 0.1702 0.73727 0.0
O202 O 0.16115 0.2293 0.78213 0.0
O203 O 0.10966 0.28683 0.76572 0.0
O204 O 0.2012 0.1618 0.70332 0.0
O205 O 0.16221 0.22911 0.6877 0.0
O206 O 0.05304 0.23818 0.67345 0.0
O207 O 0.09589 0.17158 0.67445 0.0
C208 C 0.14658 0.27234 0.78792 0.0
C209 C 0.06699 0.20001 0.65303 0.0
C210 C 0.05602 0.81698 0.90304 0.0
C211 C 0.9837 0.89659 0.03793 0.0
O212 O 0.08446 0.84588 0.92446 0.0
Zn213 Zn 0.08584 0.89007 0.98727 0.0
O214 O 0.01785 0.80303 0.92346 0.0
Zn215 Zn 0.02412 0.8465 0.978 0.0
O216 O 0.02693 0.91221 0.93769 0.0
O217 O 0.09424 0.9512 0.95331 0.0
O218 O 0.96921 0.85967 0.01573 0.0
O219 O 0.02675 0.91115 0.03213 0.0
O220 O 0.13599 0.86333 0.02815 0.0
O221 O 0.07388 0.81494 0.0267 0.0
C222 C 0.055 0.94754 0.93021 0.0
C223 C 0.11568 0.82526 0.04229 0.0
C224 C 0.2181 0.35946 0.27234 0.0
C225 C 0.353 0.43904 0.20002 0.0
O226 O 0.22389 0.34488 0.2293 0.0
Zn227 Zn 0.26876 0.36595 0.17021 0.0
O228 O 0.2403 0.39638 0.28683 0.0
Zn229 Zn 0.27803 0.40953 0.23192 0.0
O230 O 0.22933 0.44108 0.18215 0.0
O231 O 0.22789 0.39269 0.12005 0.0
O232 O 0.33257 0.45299 0.23818 0.0
O233 O 0.33158 0.41014 0.17159 0.0
O234 O 0.30271 0.30483 0.1618 0.0
O235 O 0.31833 0.34382 0.22912 0.0
C236 C 0.21374 0.43076 0.14035 0.0
C237 C 0.32581 0.30848 0.20105 0.0
C238 C 0.82584 0.19755 0.80499 0.0
C239 C 0.71375 0.07527 0.86569 0.0
O240 O 0.81835 0.16221 0.77692 0.0
Zn241 Zn 0.77805 0.09651 0.77412 0.0
O242 O 0.80273 0.2012 0.84423 0.0
Zn243 Zn 0.76877 0.14008 0.83583 0.0
O244 O 0.83158 0.09589 0.83446 0.0
O245 O 0.83258 0.05304 0.76785 0.0
O246 O 0.7279 0.11335 0.88599 0.0
O247 O 0.72934 0.06495 0.82389 0.0
O248 O 0.74031 0.10966 0.71921 0.0
O249 O 0.72391 0.16115 0.77674 0.0
C250 C 0.853 0.06699 0.80603 0.0
C251 C 0.71811 0.14659 0.7337 0.0
C252 C 0.10945 0.46811 0.98369 0.0
C253 C 0.18904 0.603 0.05602 0.0
O254 O 0.09488 0.4739 0.02673 0.0
Zn255 Zn 0.11596 0.51876 0.08583 0.0
O256 O 0.14638 0.49031 0.96921 0.0
Zn257 Zn 0.15953 0.52804 0.02412 0.0
O258 O 0.19109 0.47933 0.07388 0.0
O259 O 0.14269 0.47788 0.13598 0.0
O260 O 0.203 0.58258 0.01786 0.0
O261 O 0.16014 0.58158 0.08445 0.0
O262 O 0.05483 0.55271 0.09424 0.0
O263 O 0.09382 0.56834 0.02692 0.0
C264 C 0.18076 0.46374 0.11568 0.0
C265 C 0.05848 0.57582 0.05499 0.0
C266 C 0.78793 0.85945 0.23369 0.0
C267 C 0.65304 0.93904 0.30603 0.0
O268 O 0.78213 0.84488 0.27673 0.0
Zn269 Zn 0.73727 0.86595 0.33583 0.0
O270 O 0.76573 0.89638 0.21921 0.0
Zn271 Zn 0.72799 0.90953 0.27412 0.0
O272 O 0.7767 0.94108 0.32388 0.0
O273 O 0.77815 0.89268 0.38598 0.0
O274 O 0.67346 0.95299 0.26786 0.0
O275 O 0.67445 0.91014 0.33446 0.0
O276 O 0.70332 0.80482 0.34423 0.0
O277 O 0.68769 0.84382 0.27692 0.0
C278 C 0.79229 0.93075 0.36568 0.0
C279 C 0.68021 0.80847 0.30499 0.0
C280 C 0.89657 0.03792 0.9837 0.0
C281 C 0.817 0.90303 0.05601 0.0
O282 O 0.91116 0.03213 0.02674 0.0
Zn283 Zn 0.89008 0.98727 0.08583 0.0
O284 O 0.85965 0.01572 0.9692 0.0
Zn285 Zn 0.8465 0.97799 0.02412 0.0
O286 O 0.81495 0.0267 0.07388 0.0
O287 O 0.86334 0.02814 0.13598 0.0
O288 O 0.80304 0.92345 0.01785 0.0
O289 O 0.84589 0.92445 0.08445 0.0
O290 O 0.9512 0.95332 0.09424 0.0
O291 O 0.91222 0.9377 0.02692 0.0
C292 C 0.82527 0.04229 0.11568 0.0
C293 C 0.94756 0.93022 0.05499 0.0
C294 C 0.28793 0.64658 0.77233 0.0
C295 C 0.15304 0.567 0.70002 0.0
O296 O 0.28214 0.66116 0.7293 0.0
Zn297 Zn 0.23727 0.64008 0.6702 0.0
O298 O 0.26573 0.60966 0.78683 0.0
Zn299 Zn 0.228 0.5965 0.73192 0.0
O300 O 0.2767 0.56495 0.68216 0.0
O301 O 0.27815 0.61335 0.62005 0.0
O302 O 0.17346 0.55304 0.73818 0.0
O303 O 0.17446 0.59589 0.67159 0.0
O304 O 0.20332 0.70121 0.6618 0.0
O305 O 0.1877 0.66222 0.72912 0.0
C306 C 0.29229 0.57527 0.64035 0.0
C307 C 0.18022 0.69756 0.70105 0.0
C308 C 0.18076 0.54228 0.39035 0.0
C309 C 0.05848 0.4302 0.45104 0.0
O310 O 0.19109 0.52669 0.43215 0.0
Zn311 Zn 0.15953 0.47798 0.48191 0.0
O312 O 0.14269 0.52814 0.37005 0.0
Zn313 Zn 0.11596 0.48726 0.4202 0.0
O314 O 0.09488 0.53212 0.4793 0.0
O315 O 0.14638 0.51571 0.53683 0.0
O316 O 0.05483 0.45331 0.4118 0.0
O317 O 0.09382 0.43768 0.47911 0.0
O318 O 0.203 0.42344 0.48818 0.0
O319 O 0.16014 0.42444 0.42158 0.0
C320 C 0.10945 0.53791 0.52234 0.0
C321 C 0.18904 0.40303 0.45001 0.0
C322 C 0.39658 0.46812 0.02234 0.0
C323 C 0.31699 0.603 0.95001 0.0
O324 O 0.41115 0.47391 0.9793 0.0
Zn325 Zn 0.39008 0.51877 0.9202 0.0
O326 O 0.35966 0.49032 0.03683 0.0
Zn327 Zn 0.3465 0.52805 0.98191 0.0
O328 O 0.31495 0.47934 0.93215 0.0
O329 O 0.36335 0.47789 0.87005 0.0
O330 O 0.30304 0.58258 0.98818 0.0
O331 O 0.34589 0.58159 0.92158 0.0
O332 O 0.45121 0.55272 0.9118 0.0
O333 O 0.41222 0.56835 0.97911 0.0
C334 C 0.32527 0.46375 0.89035 0.0
C335 C 0.44756 0.57583 0.95105 0.0
C336 C 0.70001 0.853 0.93905 0.0
C337 C 0.77233 0.71811 0.85944 0.0
O338 O 0.67158 0.83159 0.91015 0.0
Zn339 Zn 0.6702 0.76877 0.86596 0.0
O340 O 0.73818 0.83258 0.95299 0.0
Zn341 Zn 0.73191 0.77805 0.90953 0.0
O342 O 0.72911 0.81835 0.84382 0.0
O343 O 0.66179 0.80272 0.80483 0.0
O344 O 0.78682 0.74032 0.89636 0.0
O345 O 0.72929 0.72391 0.84488 0.0
O346 O 0.62005 0.7279 0.8927 0.0
O347 O 0.68215 0.72934 0.94109 0.0
C348 C 0.70103 0.82583 0.80848 0.0
C349 C 0.64035 0.71375 0.93077 0.0
C350 C 0.54229 0.39035 0.18076 0.0
C351 C 0.43021 0.45105 0.05849 0.0
O352 O 0.5267 0.43215 0.19109 0.0
Zn353 Zn 0.47799 0.48191 0.15954 0.0
O354 O 0.52814 0.37006 0.14269 0.0
Zn355 Zn 0.48727 0.4202 0.11596 0.0
O356 O 0.53212 0.4793 0.09488 0.0
O357 O 0.51572 0.53683 0.14638 0.0
O358 O 0.45332 0.4118 0.05483 0.0
O359 O 0.43769 0.47911 0.09383 0.0
O360 O 0.42345 0.48817 0.203 0.0
O361 O 0.42445 0.42158 0.16015 0.0
C362 C 0.53792 0.52235 0.10945 0.0
C363 C 0.40303 0.45001 0.18905 0.0
C364 C 0.73369 0.28791 0.35945 0.0
C365 C 0.80602 0.15303 0.43903 0.0
O366 O 0.77674 0.28212 0.34488 0.0
Zn367 Zn 0.83583 0.23727 0.36595 0.0
O368 O 0.71921 0.26571 0.39637 0.0
Zn369 Zn 0.77412 0.22798 0.40953 0.0
O370 O 0.82388 0.27669 0.44109 0.0
O371 O 0.88598 0.27814 0.39269 0.0
O372 O 0.76786 0.17344 0.45299 0.0
O373 O 0.83446 0.17444 0.41014 0.0
O374 O 0.84424 0.20332 0.30483 0.0
O375 O 0.77693 0.18769 0.34381 0.0
C376 C 0.86568 0.29229 0.43076 0.0
C377 C 0.805 0.18021 0.30847 0.0
C378 C 0.96375 0.61568 0.68077 0.0
C379 C 0.07582 0.55498 0.55849 0.0
O380 O 0.97934 0.57388 0.69109 0.0
Zn381 Zn 0.02804 0.52412 0.65954 0.0
O382 O 0.97789 0.63598 0.64269 0.0
Zn383 Zn 0.01877 0.58583 0.61596 0.0
O384 O 0.97391 0.52673 0.59489 0.0
O385 O 0.99031 0.4692 0.64639 0.0
O386 O 0.05272 0.59423 0.55483 0.0
O387 O 0.06834 0.52692 0.59383 0.0
O388 O 0.08259 0.51786 0.703 0.0
O389 O 0.08159 0.58445 0.66015 0.0
C390 C 0.96811 0.48369 0.60946 0.0
C391 C 0.103 0.55602 0.68905 0.0
C392 C 0.70001 0.15303 0.56698 0.0
C393 C 0.77234 0.28792 0.64659 0.0
O394 O 0.67158 0.17444 0.59588 0.0
Zn395 Zn 0.6702 0.23726 0.64007 0.0
O396 O 0.73818 0.17345 0.55303 0.0
Zn397 Zn 0.73191 0.22799 0.5965 0.0
O398 O 0.72911 0.18768 0.66221 0.0
O399 O 0.66179 0.20331 0.7012 0.0
O400 O 0.78683 0.26571 0.60967 0.0
O401 O 0.72929 0.28212 0.66115 0.0
O402 O 0.62005 0.27814 0.61333 0.0
O403 O 0.68216 0.27669 0.56494 0.0
C404 C 0.70103 0.1802 0.69755 0.0
C405 C 0.64035 0.29228 0.57526 0.0
C406 C 0.96812 0.52234 0.89658 0.0
C407 C 0.10301 0.45001 0.81699 0.0
O408 O 0.97391 0.47929 0.91114 0.0
Zn409 Zn 0.01877 0.4202 0.89007 0.0
O410 O 0.99031 0.53682 0.85965 0.0
Zn411 Zn 0.02805 0.48191 0.84649 0.0
O412 O 0.97934 0.43215 0.81494 0.0
O413 O 0.9779 0.37005 0.86333 0.0
O414 O 0.08259 0.48818 0.80303 0.0
O415 O 0.08159 0.42158 0.84588 0.0
O416 O 0.05272 0.4118 0.9512 0.0
O417 O 0.06834 0.47911 0.91221 0.0
C418 C 0.96375 0.39035 0.82526 0.0
C419 C 0.07582 0.45104 0.94755 0.0
C420 C 0.805 0.82583 0.19755 0.0
C421 C 0.86569 0.71374 0.07527 0.0
O422 O 0.77693 0.81834 0.16221 0.0
Zn423 Zn 0.77413 0.77804 0.0965 0.0
O424 O 0.84424 0.80272 0.2012 0.0
Zn425 Zn 0.83584 0.76876 0.14007 0.0
O426 O 0.83446 0.83158 0.09588 0.0
O427 O 0.76786 0.83257 0.05303 0.0
O428 O 0.88599 0.72789 0.11334 0.0
O429 O 0.82388 0.72933 0.06495 0.0
O430 O 0.71921 0.74031 0.10967 0.0
O431 O 0.77675 0.7239 0.16115 0.0
C432 C 0.80603 0.85299 0.06698 0.0
C433 C 0.7337 0.71811 0.14659 0.0
C434 C 0.4302 0.555 0.44755 0.0
C435 C 0.54228 0.61569 0.32527 0.0
O436 O 0.43769 0.52692 0.41222 0.0
Zn437 Zn 0.47799 0.52412 0.34651 0.0
O438 O 0.45331 0.59424 0.4512 0.0
Zn439 Zn 0.48726 0.58584 0.39008 0.0
O440 O 0.42445 0.58445 0.34589 0.0
O441 O 0.42345 0.51785 0.30304 0.0
O442 O 0.52814 0.63599 0.36334 0.0
O443 O 0.52669 0.57388 0.31495 0.0
O444 O 0.51572 0.46921 0.35967 0.0
O445 O 0.53213 0.52674 0.41115 0.0
C446 C 0.40303 0.55602 0.31699 0.0
C447 C 0.53793 0.4837 0.39659 0.0
C448 C 0.93077 0.64035 0.71375 0.0
C449 C 0.80848 0.70104 0.82582 0.0
O450 O 0.94109 0.68215 0.72934 0.0
Zn451 Zn 0.90954 0.73191 0.77805 0.0
O452 O 0.8927 0.62005 0.72789 0.0
Zn453 Zn 0.86596 0.6702 0.76877 0.0
O454 O 0.84489 0.7293 0.72391 0.0
O455 O 0.89638 0.78683 0.74032 0.0
O456 O 0.80484 0.6618 0.80272 0.0
O457 O 0.84382 0.72911 0.81834 0.0
O458 O 0.953 0.73818 0.83259 0.0
O459 O 0.91015 0.67158 0.83159 0.0
C460 C 0.85946 0.77234 0.71812 0.0
C461 C 0.93905 0.70001 0.85301 0.0
C462 C 0.4837 0.60947 0.96811 0.0
C463 C 0.55602 0.68904 0.103 0.0
O464 O 0.52673 0.59488 0.9739 0.0
Zn465 Zn 0.58583 0.61596 0.01876 0.0
O466 O 0.4692 0.64639 0.99031 0.0
Zn467 Zn 0.52412 0.65954 0.02804 0.0
O468 O 0.57388 0.69109 0.97934 0.0
O469 O 0.63598 0.6427 0.97789 0.0
O470 O 0.51785 0.703 0.08258 0.0
O471 O 0.58445 0.66015 0.08158 0.0
O472 O 0.59423 0.55484 0.05272 0.0
O473 O 0.52691 0.59383 0.06834 0.0
C474 C 0.61568 0.68077 0.96375 0.0
C475 C 0.55498 0.55849 0.07582 0.0
C476 C 0.57527 0.36568 0.21374 0.0
C477 C 0.69755 0.30498 0.32582 0.0
O478 O 0.56494 0.32388 0.22933 0.0
Zn479 Zn 0.5965 0.27412 0.27804 0.0
O480 O 0.61334 0.38598 0.22789 0.0
Zn481 Zn 0.64008 0.33583 0.26876 0.0
O482 O 0.66115 0.27673 0.2239 0.0
O483 O 0.60965 0.21921 0.24031 0.0
O484 O 0.7012 0.34423 0.30271 0.0
O485 O 0.66221 0.27692 0.31834 0.0
O486 O 0.55303 0.26785 0.33258 0.0
O487 O 0.59589 0.33445 0.33158 0.0
C488 C 0.64658 0.23369 0.21811 0.0
C489 C 0.56699 0.30602 0.353 0.0
C490 C 0.95104 0.44754 0.57583 0.0
C491 C 0.89035 0.32527 0.46375 0.0
O492 O 0.97912 0.41221 0.56834 0.0
Zn493 Zn 0.98192 0.3465 0.52804 0.0
O494 O 0.9118 0.4512 0.55272 0.0
Zn495 Zn 0.9202 0.39007 0.51876 0.0
O496 O 0.92158 0.34588 0.58158 0.0
O497 O 0.98819 0.30303 0.58257 0.0
O498 O 0.87005 0.36334 0.47789 0.0
O499 O 0.93216 0.31495 0.47933 0.0
O500 O 0.03683 0.35966 0.4903 0.0
O501 O 0.97929 0.41115 0.4739 0.0
C502 C 0.95001 0.31698 0.60299 0.0
C503 C 0.02233 0.39657 0.4681 0.0
C504 C 0.93077 0.36567 0.79228 0.0
C505 C 0.80848 0.30498 0.68021 0.0
O506 O 0.9411 0.32387 0.77669 0.0
Zn507 Zn 0.90954 0.27411 0.72799 0.0
O508 O 0.8927 0.38597 0.77814 0.0
Zn509 Zn 0.86596 0.33582 0.73727 0.0
O510 O 0.84489 0.27673 0.78213 0.0
O511 O 0.89639 0.21919 0.76572 0.0
O512 O 0.80484 0.34423 0.70332 0.0
O513 O 0.84382 0.27691 0.68769 0.0
O514 O 0.953 0.26784 0.67345 0.0
O515 O 0.91015 0.33444 0.67445 0.0
C516 C 0.85947 0.23369 0.78793 0.0
C517 C 0.93904 0.30601 0.65303 0.0
C518 C 0.95002 0.68904 0.90305 0.0
C519 C 0.02233 0.60945 0.03794 0.0
O520 O 0.92159 0.66014 0.92446 0.0
Zn521 Zn 0.9202 0.61595 0.98727 0.0
O522 O 0.98819 0.70299 0.92346 0.0
Zn523 Zn 0.98192 0.65952 0.978 0.0
O524 O 0.97912 0.59381 0.93769 0.0
O525 O 0.9118 0.55482 0.95331 0.0
O526 O 0.03684 0.64636 0.01573 0.0
O527 O 0.97929 0.59487 0.03214 0.0
O528 O 0.87005 0.64268 0.02814 0.0
O529 O 0.93216 0.69108 0.0267 0.0
C530 C 0.95105 0.55848 0.93021 0.0
C531 C 0.89036 0.68076 0.04229 0.0
C532 C 0.57526 0.64036 0.29229 0.0
C533 C 0.69755 0.70104 0.18022 0.0
O534 O 0.56494 0.68216 0.2767 0.0
Zn535 Zn 0.5965 0.73192 0.22799 0.0
O536 O 0.61333 0.62006 0.27815 0.0
Zn537 Zn 0.64007 0.6702 0.23727 0.0
O538 O 0.66115 0.7293 0.28213 0.0
O539 O 0.60965 0.78684 0.26572 0.0
O540 O 0.7012 0.6618 0.20332 0.0
O541 O 0.66221 0.72912 0.1877 0.0
O542 O 0.55304 0.73818 0.17345 0.0
O543 O 0.59589 0.67159 0.17445 0.0
C544 C 0.64657 0.77234 0.28793 0.0
C545 C 0.56699 0.70002 0.15304 0.0
C546 C 0.55602 0.31699 0.40304 0.0
C547 C 0.4837 0.3966 0.53792 0.0
O548 O 0.58446 0.34589 0.42445 0.0
Zn549 Zn 0.58584 0.39008 0.48727 0.0
O550 O 0.51785 0.30304 0.42345 0.0
Zn551 Zn 0.52412 0.34651 0.47799 0.0
O552 O 0.52693 0.41222 0.43769 0.0
O553 O 0.59425 0.4512 0.45331 0.0
O554 O 0.46921 0.35968 0.51572 0.0
O555 O 0.52675 0.41116 0.53213 0.0
O556 O 0.63599 0.36334 0.52814 0.0
O557 O 0.57388 0.31495 0.52669 0.0
C558 C 0.555 0.44755 0.43021 0.0
C559 C 0.61568 0.32527 0.54228 0.0
C560 C 0.82582 0.80848 0.70105 0.0
C561 C 0.71374 0.93076 0.64035 0.0
O562 O 0.81834 0.84382 0.72912 0.0
Zn563 Zn 0.77803 0.90953 0.73192 0.0
O564 O 0.80272 0.80483 0.6618 0.0
Zn565 Zn 0.76876 0.86595 0.6702 0.0
O566 O 0.83157 0.91014 0.67158 0.0
O567 O 0.83257 0.95299 0.73819 0.0
O568 O 0.72789 0.89269 0.62005 0.0
O569 O 0.72933 0.94108 0.68216 0.0
O570 O 0.7403 0.89637 0.78684 0.0
O571 O 0.72389 0.84488 0.72929 0.0
C572 C 0.85299 0.93905 0.70001 0.0
C573 C 0.71809 0.85946 0.77233 0.0
C574 C 0.2181 0.64656 0.2337 0.0
C575 C 0.35299 0.56699 0.30602 0.0
O576 O 0.2239 0.66115 0.27673 0.0
Zn577 Zn 0.26876 0.64007 0.33583 0.0
O578 O 0.2403 0.60964 0.2192 0.0
Zn579 Zn 0.27803 0.59649 0.27412 0.0
O580 O 0.22933 0.56494 0.32388 0.0
O581 O 0.22789 0.61334 0.38598 0.0
O582 O 0.33258 0.55303 0.26785 0.0
O583 O 0.33158 0.59589 0.33445 0.0
O584 O 0.30271 0.7012 0.34423 0.0
O585 O 0.31833 0.66221 0.27692 0.0
C586 C 0.21374 0.57526 0.36568 0.0
C587 C 0.32582 0.69755 0.30498 0.0
C588 C 0.60946 0.9681 0.4837 0.0
C589 C 0.68904 0.10299 0.55602 0.0
O590 O 0.59488 0.97389 0.52674 0.0
Zn591 Zn 0.61596 0.01876 0.58583 0.0
O592 O 0.64638 0.9903 0.4692 0.0
Zn593 Zn 0.65953 0.02803 0.52412 0.0
O594 O 0.69109 0.97933 0.57388 0.0
O595 O 0.64269 0.97788 0.63598 0.0
O596 O 0.703 0.08257 0.51785 0.0
O597 O 0.66014 0.08158 0.58445 0.0
O598 O 0.55483 0.05271 0.59423 0.0
O599 O 0.59382 0.06833 0.52692 0.0
C600 C 0.68076 0.96374 0.61568 0.0
C601 C 0.55848 0.07581 0.55499 0.0
C602 C 0.18022 0.30848 0.80499 0.0
C603 C 0.2923 0.43077 0.86568 0.0
O604 O 0.1877 0.34382 0.77692 0.0
Zn605 Zn 0.228 0.40953 0.77412 0.0
O606 O 0.20332 0.30483 0.84423 0.0
Zn607 Zn 0.23728 0.36596 0.83583 0.0
O608 O 0.17446 0.41015 0.83445 0.0
O609 O 0.17346 0.453 0.76785 0.0
O610 O 0.27815 0.39269 0.88598 0.0
O611 O 0.27671 0.44109 0.82388 0.0
O612 O 0.26574 0.39638 0.7192 0.0
O613 O 0.28215 0.34488 0.77674 0.0
C614 C 0.15305 0.43905 0.80602 0.0
C615 C 0.28795 0.35946 0.73371 0.0
C616 C 0.32527 0.5423 0.61568 0.0
C617 C 0.44756 0.43022 0.55499 0.0
O618 O 0.31495 0.5267 0.57388 0.0
Zn619 Zn 0.3465 0.478 0.52412 0.0
O620 O 0.36334 0.52815 0.63598 0.0
Zn621 Zn 0.39008 0.48728 0.58583 0.0
O622 O 0.41115 0.53214 0.52673 0.0
O623 O 0.35965 0.51573 0.4692 0.0
O624 O 0.4512 0.45333 0.59423 0.0
O625 O 0.41222 0.4377 0.52692 0.0
O626 O 0.30304 0.42346 0.51785 0.0
O627 O 0.34589 0.42446 0.58445 0.0
C628 C 0.39657 0.53793 0.4837 0.0
C629 C 0.317 0.40304 0.55602 0.0
C630 C 0.68021 0.19755 0.20104 0.0
C631 C 0.79229 0.07527 0.14035 0.0
O632 O 0.6877 0.16221 0.22911 0.0
Zn633 Zn 0.728 0.0965 0.23192 0.0
O634 O 0.70332 0.2012 0.16179 0.0
Zn635 Zn 0.73728 0.14008 0.1702 0.0
O636 O 0.67446 0.09589 0.17158 0.0
O637 O 0.67346 0.05304 0.23819 0.0
O638 O 0.77815 0.11334 0.12005 0.0
O639 O 0.7767 0.06495 0.18215 0.0
O640 O 0.76574 0.10966 0.28683 0.0
O641 O 0.78214 0.16116 0.22929 0.0
C642 C 0.65305 0.06698 0.20001 0.0
C643 C 0.78794 0.14658 0.27232 0.0
C644 C 0.60947 0.03793 0.02234 0.0
C645 C 0.68904 0.90304 0.95002 0.0
O646 O 0.59489 0.03214 0.9793 0.0
Zn647 Zn 0.61596 0.98728 0.92021 0.0
O648 O 0.64639 0.01573 0.03684 0.0
Zn649 Zn 0.65954 0.978 0.98192 0.0
O650 O 0.69109 0.0267 0.93216 0.0
O651 O 0.6427 0.02815 0.87006 0.0
O652 O 0.703 0.92346 0.98818 0.0
O653 O 0.66015 0.92446 0.92158 0.0
O654 O 0.55484 0.95333 0.9118 0.0
O655 O 0.59382 0.9377 0.97912 0.0
C656 C 0.68077 0.04229 0.89036 0.0
C657 C 0.55848 0.93022 0.95104 0.0
C658 C 0.82527 0.96373 0.39036 0.0
C659 C 0.94756 0.07581 0.45104 0.0
O660 O 0.81495 0.97933 0.43216 0.0
Zn661 Zn 0.8465 0.02803 0.48192 0.0
O662 O 0.86335 0.97788 0.37006 0.0
Zn663 Zn 0.89008 0.01875 0.4202 0.0
O664 O 0.91115 0.9739 0.4793 0.0
O665 O 0.85965 0.99031 0.53684 0.0
O666 O 0.9512 0.0527 0.4118 0.0
O667 O 0.91222 0.06833 0.47912 0.0
O668 O 0.80304 0.08257 0.48818 0.0
O669 O 0.84589 0.08157 0.42158 0.0
C670 C 0.89657 0.9681 0.52234 0.0
C671 C 0.817 0.10299 0.45001 0.0
loop_
_geom_bond_atom_site_label_1
_geom_bond_atom_site_label_2
_geom_bond_distance
_geom_bond_site_symmetry_2
_ccdc_geom_bond_type
C0 O2 1.247 . S
C0 O4 1.258 . S
C1 O8 1.247 . S
C1 O9 1.258 . S
O2 C0 1.247 . S
O2 Zn3 2.028 . S
Zn3 O2 2.028 . S
Zn3 O7 2.035 . S
Zn3 O9 2.035 . S
Zn3 O10 2.028 . S
O4 C0 1.258 . S
O4 Zn5 2.035 . S
Zn5 O4 2.035 . S
Zn5 O6 2.028 . S
Zn5 O8 2.028 . S
Zn5 O11 2.035 . S
O6 Zn5 2.028 . S
O6 C12 1.247 . S
O7 Zn3 2.035 . S
O7 C12 1.258 . S
O8 C1 1.247 . S
O8 Zn5 2.028 . S
O9 C1 1.258 . S
O9 Zn3 2.035 . S
O10 Zn3 2.028 . S
O10 C13 1.247 . S
O11 Zn5 2.035 . S
O11 C13 1.258 . S
C12 O6 1.247 . S
C12 O7 1.258 . S
C13 O10 1.247 . S
C13 O11 1.258 . S
C14 O16 1.247 . S
C14 O18 1.258 . S
C15 O22 1.247 . S
C15 O23 1.258 . S
O16 C14 1.247 . S
O16 Zn17 2.028 1_455 S
Zn17 O16 2.028 1_655 S
Zn17 O21 2.035 1_655 S
Zn17 O23 2.035 . S
Zn17 O24 2.028 . S
O18 C14 1.258 . S
O18 Zn19 2.035 1_455 S
Zn19 O18 2.035 1_655 S
Zn19 O20 2.028 1_655 S
Zn19 O22 2.028 . S
Zn19 O25 2.035 . S
O20 Zn19 2.028 1_455 S
O20 C26 1.247 . S
O21 Zn17 2.035 1_455 S
O21 C26 1.258 . S
O22 C15 1.247 . S
O22 Zn19 2.028 . S
O23 C15 1.258 . S
O23 Zn17 2.035 . S
O24 Zn17 2.028 . S
O24 C27 1.247 . S
O25 Zn19 2.035 . S
O25 C27 1.258 . S
C26 O20 1.247 . S
C26 O21 1.258 . S
C27 O24 1.247 . S
C27 O25 1.258 . S
C28 O30 1.247 . S
C28 O32 1.258 . S
C29 O36 1.247 . S
C29 O37 1.258 . S
O30 C28 1.247 . S
O30 Zn31 2.028 . S
Zn31 O30 2.028 . S
Zn31 O35 2.035 . S
Zn31 O37 2.035 . S
Zn31 O38 2.028 . S
O32 C28 1.258 . S
O32 Zn33 2.035 . S
Zn33 O32 2.035 . S
Zn33 O34 2.028 . S
Zn33 O36 2.028 . S
Zn33 O39 2.035 . S
O34 Zn33 2.028 . S
O34 C40 1.247 . S
O35 Zn31 2.035 . S
O35 C40 1.258 . S
O36 C29 1.247 . S
O36 Zn33 2.028 . S
O37 C29 1.258 . S
O37 Zn31 2.035 . S
O38 Zn31 2.028 . S
O38 C41 1.247 . S
O39 Zn33 2.035 . S
O39 C41 1.258 . S
C40 O34 1.247 . S
C40 O35 1.258 . S
C41 O38 1.247 . S
C41 O39 1.258 . S
C42 O44 1.247 . S
C42 O46 1.258 . S
C43 O50 1.247 . S
C43 O51 1.258 . S
O44 C42 1.247 . S
O44 Zn45 2.028 . S
Zn45 O44 2.028 . S
Zn45 O49 2.035 . S
Zn45 O51 2.035 . S
Zn45 O52 2.028 . S
O46 C42 1.258 . S
O46 Zn47 2.035 . S
Zn47 O46 2.035 . S
Zn47 O48 2.028 . S
Zn47 O50 2.028 . S
Zn47 O53 2.035 . S
O48 Zn47 2.028 . S
O48 C54 1.247 . S
O49 Zn45 2.035 . S
O49 C54 1.258 . S
O50 C43 1.247 . S
O50 Zn47 2.028 . S
O51 C43 1.258 . S
O51 Zn45 2.035 . S
O52 Zn45 2.028 . S
O52 C55 1.247 . S
O53 Zn47 2.035 . S
O53 C55 1.258 . S
C54 O48 1.247 . S
C54 O49 1.258 . S
C55 O52 1.247 . S
C55 O53 1.258 . S
C56 O58 1.247 . S
C56 O60 1.258 . S
C57 O64 1.247 . S
C57 O65 1.258 . S
O58 C56 1.247 . S
O58 Zn59 2.028 . S
Zn59 O58 2.028 . S
Zn59 O63 2.035 . S
Zn59 O65 2.035 . S
Zn59 O66 2.028 . S
O60 C56 1.258 . S
O60 Zn61 2.035 . S
Zn61 O60 2.035 . S
Zn61 O62 2.028 . S
Zn61 O64 2.028 . S
Zn61 O67 2.035 . S
O62 Zn61 2.028 . S
O62 C68 1.247 . S
O63 Zn59 2.035 . S
O63 C68 1.258 . S
O64 C57 1.247 . S
O64 Zn61 2.028 . S
O65 C57 1.258 . S
O65 Zn59 2.035 . S
O66 Zn59 2.028 . S
O66 C69 1.247 . S
O67 Zn61 2.035 . S
O67 C69 1.258 . S
C68 O62 1.247 . S
C68 O63 1.258 . S
C69 O66 1.247 . S
C69 O67 1.258 . S
C70 O72 1.247 . S
C70 O74 1.258 . S
C71 O78 1.247 . S
C71 O79 1.258 . S
O72 C70 1.247 . S
O72 Zn73 2.028 . S
Zn73 O72 2.028 . S
Zn73 O77 2.035 . S
Zn73 O79 2.035 . S
Zn73 O80 2.028 . S
O74 C70 1.258 . S
O74 Zn75 2.035 . S
Zn75 O74 2.035 . S
Zn75 O76 2.028 . S
Zn75 O78 2.028 . S
Zn75 O81 2.035 . S
O76 Zn75 2.028 . S
O76 C82 1.247 . S
O77 Zn73 2.035 . S
O77 C82 1.258 . S
O78 C71 1.247 . S
O78 Zn75 2.028 . S
O79 C71 1.258 . S
O79 Zn73 2.035 . S
O80 Zn73 2.028 . S
O80 C83 1.247 . S
O81 Zn75 2.035 . S
O81 C83 1.258 . S
C82 O76 1.247 . S
C82 O77 1.258 . S
C83 O80 1.247 . S
C83 O81 1.258 . S
C84 O86 1.247 . S
C84 O88 1.258 . S
C85 O92 1.247 . S
C85 O93 1.258 . S
O86 C84 1.247 . S
O86 Zn87 2.028 . S
Zn87 O86 2.028 . S
Zn87 O91 2.035 . S
Zn87 O93 2.035 . S
Zn87 O94 2.028 . S
O88 C84 1.258 . S
O88 Zn89 2.035 . S
Zn89 O88 2.035 . S
Zn89 O90 2.028 . S
Zn89 O92 2.028 . S
Zn89 O95 2.035 . S
O90 Zn89 2.028 . S
O90 C96 1.247 . S
O91 Zn87 2.035 . S
O91 C96 1.258 . S
O92 C85 1.247 . S
O92 Zn89 2.028 . S
O93 C85 1.258 . S
O93 Zn87 2.035 . S
O94 Zn87 2.028 . S
O94 C97 1.247 . S
O95 Zn89 2.035 . S
O95 C97 1.258 . S
C96 O90 1.247 . S
C96 O91 1.258 . S
C97 O94 1.247 . S
C97 O95 1.258 . S
C98 O100 1.247 . S
C98 O102 1.258 . S
C99 O106 1.247 . S
C99 O107 1.258 . S
O100 C98 1.247 . S
O100 Zn101 2.028 1_455 S
Zn101 O100 2.028 1_655 S
Zn101 O105 2.035 1_655 S
Zn101 O107 2.035 . S
Zn101 O108 2.028 . S
O102 C98 1.258 . S
O102 Zn103 2.035 1_455 S
Zn103 O102 2.035 1_655 S
Zn103 O104 2.028 1_655 S
Zn103 O106 2.028 . S
Zn103 O109 2.035 . S
O104 Zn103 2.028 1_455 S
O104 C110 1.247 . S
O105 Zn101 2.035 1_455 S
O105 C110 1.258 . S
O106 C99 1.247 . S
O106 Zn103 2.028 . S
O107 C99 1.258 . S
O107 Zn101 2.035 . S
O108 Zn101 2.028 . S
O108 C111 1.247 . S
O109 Zn103 2.035 . S
O109 C111 1.258 . S
C110 O104 1.247 . S
C110 O105 1.258 . S
C111 O108 1.247 . S
C111 O109 1.258 . S
C112 O114 1.247 . S
C112 O116 1.258 . S
C113 O120 1.247 . S
C113 O121 1.258 . S
O114 C112 1.247 . S
O114 Zn115 2.028 . S
Zn115 O114 2.028 . S
Zn115 O119 2.035 . S
Zn115 O121 2.035 . S
Zn115 O122 2.028 . S
O116 C112 1.258 . S
O116 Zn117 2.035 . S
Zn117 O116 2.035 . S
Zn117 O118 2.028 . S
Zn117 O120 2.028 . S
Zn117 O123 2.035 . S
O118 Zn117 2.028 . S
O118 C124 1.247 . S
O119 Zn115 2.035 . S
O119 C124 1.258 . S
O120 C113 1.247 . S
O120 Zn117 2.028 . S
O121 C113 1.258 . S
O121 Zn115 2.035 . S
O122 Zn115 2.028 . S
O122 C125 1.247 . S
O123 Zn117 2.035 . S
O123 C125 1.258 . S
C124 O118 1.247 . S
C124 O119 1.258 . S
C125 O122 1.247 . S
C125 O123 1.258 . S
C126 O128 1.247 . S
C126 O130 1.258 . S
C127 O134 1.247 . S
C127 O135 1.258 . S
O128 C126 1.247 . S
O128 Zn129 2.028 . S
Zn129 O128 2.028 . S
Zn129 O133 2.035 . S
Zn129 O135 2.035 . S
Zn129 O136 2.028 . S
O130 C126 1.258 . S
O130 Zn131 2.035 . S
Zn131 O130 2.035 . S
Zn131 O132 2.028 . S
Zn131 O134 2.028 . S
Zn131 O137 2.035 . S
O132 Zn131 2.028 . S
O132 C138 1.247 . S
O133 Zn129 2.035 . S
O133 C138 1.258 . S
O134 C127 1.247 . S
O134 Zn131 2.028 . S
O135 C127 1.258 . S
O135 Zn129 2.035 . S
O136 Zn129 2.028 . S
O136 C139 1.247 . S
O137 Zn131 2.035 . S
O137 C139 1.258 . S
C138 O132 1.247 . S
C138 O133 1.258 . S
C139 O136 1.247 . S
C139 O137 1.258 . S
C140 O142 1.247 . S
C140 O144 1.258 . S
C141 O148 1.247 . S
C141 O149 1.258 . S
O142 C140 1.247 . S
O142 Zn143 2.028 . S
Zn143 O142 2.028 . S
Zn143 O147 2.035 . S
Zn143 O149 2.035 . S
Zn143 O150 2.028 . S
O144 C140 1.258 . S
O144 Zn145 2.035 . S
Zn145 O144 2.035 . S
Zn145 O146 2.028 . S
Zn145 O148 2.028 . S
Zn145 O151 2.035 . S
O146 Zn145 2.028 . S
O146 C152 1.247 . S
O147 Zn143 2.035 . S
O147 C152 1.258 . S
O148 C141 1.247 . S
O148 Zn145 2.028 . S
O149 C141 1.258 . S
O149 Zn143 2.035 . S
O150 Zn143 2.028 . S
O150 C153 1.247 . S
O151 Zn145 2.035 . S
O151 C153 1.258 . S
C152 O146 1.247 . S
C152 O147 1.258 . S
C153 O150 1.247 . S
C153 O151 1.258 . S
C154 O156 1.247 . S
C154 O158 1.258 . S
C155 O162 1.247 . S
C155 O163 1.258 . S
O156 C154 1.247 . S
O156 Zn157 2.028 . S
Zn157 O156 2.028 . S
Zn157 O161 2.035 . S
Zn157 O163 2.035 1_554 S
Zn157 O164 2.028 1_554 S
O158 C154 1.258 . S
O158 Zn159 2.035 . S
Zn159 O158 2.035 . S
Zn159 O160 2.028 . S
Zn159 O162 2.028 1_554 S
Zn159 O165 2.035 1_554 S
O160 Zn159 2.028 . S
O160 C166 1.247 . S
O161 Zn157 2.035 . S
O161 C166 1.258 . S
O162 C155 1.247 . S
O162 Zn159 2.028 1_556 S
O163 C155 1.258 . S
O163 Zn157 2.035 1_556 S
O164 Zn157 2.028 1_556 S
O164 C167 1.247 . S
O165 Zn159 2.035 1_556 S
O165 C167 1.258 . S
C166 O160 1.247 . S
C166 O161 1.258 . S
C167 O164 1.247 . S
C167 O165 1.258 . S
C168 O170 1.247 . S
C168 O172 1.258 . S
C169 O176 1.247 . S
C169 O177 1.258 . S
O170 C168 1.247 . S
O170 Zn171 2.028 . S
Zn171 O170 2.028 . S
Zn171 O175 2.035 . S
Zn171 O177 2.035 . S
Zn171 O178 2.028 . S
O172 C168 1.258 . S
O172 Zn173 2.035 . S
Zn173 O172 2.035 . S
Zn173 O174 2.028 . S
Zn173 O176 2.028 . S
Zn173 O179 2.035 . S
O174 Zn173 2.028 . S
O174 C180 1.247 . S
O175 Zn171 2.035 . S
O175 C180 1.258 . S
O176 C169 1.247 . S
O176 Zn173 2.028 . S
O177 C169 1.258 . S
O177 Zn171 2.035 . S
O178 Zn171 2.028 . S
O178 C181 1.247 . S
O179 Zn173 2.035 . S
O179 C181 1.258 . S
C180 O174 1.247 . S
C180 O175 1.258 . S
C181 O178 1.247 . S
C181 O179 1.258 . S
C182 O184 1.247 . S
C182 O186 1.258 . S
C183 O190 1.247 . S
C183 O191 1.258 . S
O184 C182 1.247 . S
O184 Zn185 2.028 . S
Zn185 O184 2.028 . S
Zn185 O189 2.035 . S
Zn185 O191 2.035 . S
Zn185 O192 2.028 . S
O186 C182 1.258 . S
O186 Zn187 2.035 . S
Zn187 O186 2.035 . S
Zn187 O188 2.028 . S
Zn187 O190 2.028 . S
Zn187 O193 2.035 . S
O188 Zn187 2.028 . S
O188 C194 1.247 . S
O189 Zn185 2.035 . S
O189 C194 1.258 . S
O190 C183 1.247 . S
O190 Zn187 2.028 . S
O191 C183 1.258 . S
O191 Zn185 2.035 . S
O192 Zn185 2.028 . S
O192 C195 1.247 . S
O193 Zn187 2.035 . S
O193 C195 1.258 . S
C194 O188 1.247 . S
C194 O189 1.258 . S
C195 O192 1.247 . S
C195 O193 1.258 . S
C196 O198 1.247 . S
C196 O200 1.258 . S
C197 O204 1.247 . S
C197 O205 1.258 . S
O198 C196 1.247 . S
O198 Zn199 2.028 . S
Zn199 O198 2.028 . S
Zn199 O203 2.035 . S
Zn199 O205 2.035 . S
Zn199 O206 2.028 . S
O200 C196 1.258 . S
O200 Zn201 2.035 . S
Zn201 O200 2.035 . S
Zn201 O202 2.028 . S
Zn201 O204 2.028 . S
Zn201 O207 2.035 . S
O202 Zn201 2.028 . S
O202 C208 1.247 . S
O203 Zn199 2.035 . S
O203 C208 1.258 . S
O204 C197 1.247 . S
O204 Zn201 2.028 . S
O205 C197 1.258 . S
O205 Zn199 2.035 . S
O206 Zn199 2.028 . S
O206 C209 1.247 . S
O207 Zn201 2.035 . S
O207 C209 1.258 . S
C208 O202 1.247 . S
C208 O203 1.258 . S
C209 O206 1.247 . S
C209 O207 1.258 . S
C210 O212 1.247 . S
C210 O214 1.258 . S
C211 O218 1.247 . S
C211 O219 1.258 . S
O212 C210 1.247 . S
O212 Zn213 2.028 . S
Zn213 O212 2.028 . S
Zn213 O217 2.035 . S
Zn213 O219 2.035 1_556 S
Zn213 O220 2.028 1_556 S
O214 C210 1.258 . S
O214 Zn215 2.035 . S
Zn215 O214 2.035 . S
Zn215 O216 2.028 . S
Zn215 O218 2.028 1_556 S
Zn215 O221 2.035 1_556 S
O216 Zn215 2.028 . S
O216 C222 1.247 . S
O217 Zn213 2.035 . S
O217 C222 1.258 . S
O218 C211 1.247 . S
O218 Zn215 2.028 1_554 S
O219 C211 1.258 . S
O219 Zn213 2.035 1_554 S
O220 Zn213 2.028 1_554 S
O220 C223 1.247 . S
O221 Zn215 2.035 1_554 S
O221 C223 1.258 . S
C222 O216 1.247 . S
C222 O217 1.258 . S
C223 O220 1.247 . S
C223 O221 1.258 . S
C224 O226 1.247 . S
C224 O228 1.258 . S
C225 O232 1.247 . S
C225 O233 1.258 . S
O226 C224 1.247 . S
O226 Zn227 2.028 . S
Zn227 O226 2.028 . S
Zn227 O231 2.035 . S
Zn227 O233 2.035 . S
Zn227 O234 2.028 . S
O228 C224 1.258 . S
O228 Zn229 2.035 . S
Zn229 O228 2.035 . S
Zn229 O230 2.028 . S
Zn229 O232 2.028 . S
Zn229 O235 2.035 . S
O230 Zn229 2.028 . S
O230 C236 1.247 . S
O231 Zn227 2.035 . S
O231 C236 1.258 . S
O232 C225 1.247 . S
O232 Zn229 2.028 . S
O233 C225 1.258 . S
O233 Zn227 2.035 . S
O234 Zn227 2.028 . S
O234 C237 1.247 . S
O235 Zn229 2.035 . S
O235 C237 1.258 . S
C236 O230 1.247 . S
C236 O231 1.258 . S
C237 O234 1.247 . S
C237 O235 1.258 . S
C238 O240 1.247 . S
C238 O242 1.258 . S
C239 O246 1.247 . S
C239 O247 1.258 . S
O240 C238 1.247 . S
O240 Zn241 2.028 . S
Zn241 O240 2.028 . S
Zn241 O245 2.035 . S
Zn241 O247 2.035 . S
Zn241 O248 2.028 . S
O242 C238 1.258 . S
O242 Zn243 2.035 . S
Zn243 O242 2.035 . S
Zn243 O244 2.028 . S
Zn243 O246 2.028 . S
Zn243 O249 2.035 . S
O244 Zn243 2.028 . S
O244 C250 1.247 . S
O245 Zn241 2.035 . S
O245 C250 1.258 . S
O246 C239 1.247 . S
O246 Zn243 2.028 . S
O247 C239 1.258 . S
O247 Zn241 2.035 . S
O248 Zn241 2.028 . S
O248 C251 1.247 . S
O249 Zn243 2.035 . S
O249 C251 1.258 . S
C250 O244 1.247 . S
C250 O245 1.258 . S
C251 O248 1.247 . S
C251 O249 1.258 . S
C252 O254 1.247 . S
C252 O256 1.258 . S
C253 O260 1.247 . S
C253 O261 1.258 . S
O254 C252 1.247 . S
O254 Zn255 2.028 . S
Zn255 O254 2.028 . S
Zn255 O259 2.035 . S
Zn255 O261 2.035 . S
Zn255 O262 2.028 . S
O256 C252 1.258 . S
O256 Zn257 2.035 . S
Zn257 O256 2.035 . S
Zn257 O258 2.028 . S
Zn257 O260 2.028 . S
Zn257 O263 2.035 . S
O258 Zn257 2.028 . S
O258 C264 1.247 . S
O259 Zn255 2.035 . S
O259 C264 1.258 . S
O260 C253 1.247 . S
O260 Zn257 2.028 . S
O261 C253 1.258 . S
O261 Zn255 2.035 . S
O262 Zn255 2.028 . S
O262 C265 1.247 . S
O263 Zn257 2.035 . S
O263 C265 1.258 . S
C264 O258 1.247 . S
C264 O259 1.258 . S
C265 O262 1.247 . S
C265 O263 1.258 . S
C266 O268 1.247 . S
C266 O270 1.258 . S
C267 O274 1.247 . S
C267 O275 1.258 . S
O268 C266 1.247 . S
O268 Zn269 2.028 . S
Zn269 O268 2.028 . S
Zn269 O273 2.035 . S
Zn269 O275 2.035 . S
Zn269 O276 2.028 . S
O270 C266 1.258 . S
O270 Zn271 2.035 . S
Zn271 O270 2.035 . S
Zn271 O272 2.028 . S
Zn271 O274 2.028 . S
Zn271 O277 2.035 . S
O272 Zn271 2.028 . S
O272 C278 1.247 . S
O273 Zn269 2.035 . S
O273 C278 1.258 . S
O274 C267 1.247 . S
O274 Zn271 2.028 . S
O275 C267 1.258 . S
O275 Zn269 2.035 . S
O276 Zn269 2.028 . S
O276 C279 1.247 . S
O277 Zn271 2.035 . S
O277 C279 1.258 . S
C278 O272 1.247 . S
C278 O273 1.258 . S
C279 O276 1.247 . S
C279 O277 1.258 . S
C280 O282 1.247 . S
C280 O284 1.258 . S
C281 O288 1.247 . S
C281 O289 1.258 . S
O282 C280 1.247 . S
O282 Zn283 2.028 1_545 S
Zn283 O282 2.028 1_565 S
Zn283 O287 2.035 1_565 S
Zn283 O289 2.035 . S
Zn283 O290 2.028 . S
O284 C280 1.258 . S
O284 Zn285 2.035 1_545 S
Zn285 O284 2.035 1_565 S
Zn285 O286 2.028 1_565 S
Zn285 O288 2.028 . S
Zn285 O291 2.035 . S
O286 Zn285 2.028 1_545 S
O286 C292 1.247 . S
O287 Zn283 2.035 1_545 S
O287 C292 1.258 . S
O288 C281 1.247 . S
O288 Zn285 2.028 . S
O289 C281 1.258 . S
O289 Zn283 2.035 . S
O290 Zn283 2.028 . S
O290 C293 1.247 . S
O291 Zn285 2.035 . S
O291 C293 1.258 . S
C292 O286 1.247 . S
C292 O287 1.258 . S
C293 O290 1.247 . S
C293 O291 1.258 . S
C294 O296 1.247 . S
C294 O298 1.258 . S
C295 O302 1.247 . S
C295 O303 1.258 . S
O296 C294 1.247 . S
O296 Zn297 2.028 . S
Zn297 O296 2.028 . S
Zn297 O301 2.035 . S
Zn297 O303 2.035 . S
Zn297 O304 2.028 . S
O298 C294 1.258 . S
O298 Zn299 2.035 . S
Zn299 O298 2.035 . S
Zn299 O300 2.028 . S
Zn299 O302 2.028 . S
Zn299 O305 2.035 . S
O300 Zn299 2.028 . S
O300 C306 1.247 . S
O301 Zn297 2.035 . S
O301 C306 1.258 . S
O302 C295 1.247 . S
O302 Zn299 2.028 . S
O303 C295 1.258 . S
O303 Zn297 2.035 . S
O304 Zn297 2.028 . S
O304 C307 1.247 . S
O305 Zn299 2.035 . S
O305 C307 1.258 . S
C306 O300 1.247 . S
C306 O301 1.258 . S
C307 O304 1.247 . S
C307 O305 1.258 . S
C308 O310 1.247 . S
C308 O312 1.258 . S
C309 O316 1.247 . S
C309 O317 1.258 . S
O310 C308 1.247 . S
O310 Zn311 2.028 . S
Zn311 O310 2.028 . S
Zn311 O315 2.035 . S
Zn311 O317 2.035 . S
Zn311 O318 2.028 . S
O312 C308 1.258 . S
O312 Zn313 2.035 . S
Zn313 O312 2.035 . S
Zn313 O314 2.028 . S
Zn313 O316 2.028 . S
Zn313 O319 2.035 . S
O314 Zn313 2.028 . S
O314 C320 1.247 . S
O315 Zn311 2.035 . S
O315 C320 1.258 . S
O316 C309 1.247 . S
O316 Zn313 2.028 . S
O317 C309 1.258 . S
O317 Zn311 2.035 . S
O318 Zn311 2.028 . S
O318 C321 1.247 . S
O319 Zn313 2.035 . S
O319 C321 1.258 . S
C320 O314 1.247 . S
C320 O315 1.258 . S
C321 O318 1.247 . S
C321 O319 1.258 . S
C322 O324 1.247 . S
C322 O326 1.258 . S
C323 O330 1.247 . S
C323 O331 1.258 . S
O324 C322 1.247 . S
O324 Zn325 2.028 . S
Zn325 O324 2.028 . S
Zn325 O329 2.035 . S
Zn325 O331 2.035 . S
Zn325 O332 2.028 . S
O326 C322 1.258 . S
O326 Zn327 2.035 . S
Zn327 O326 2.035 . S
Zn327 O328 2.028 . S
Zn327 O330 2.028 . S
Zn327 O333 2.035 . S
O328 Zn327 2.028 . S
O328 C334 1.247 . S
O329 Zn325 2.035 . S
O329 C334 1.258 . S
O330 C323 1.247 . S
O330 Zn327 2.028 . S
O331 C323 1.258 . S
O331 Zn325 2.035 . S
O332 Zn325 2.028 . S
O332 C335 1.247 . S
O333 Zn327 2.035 . S
O333 C335 1.258 . S
C334 O328 1.247 . S
C334 O329 1.258 . S
C335 O332 1.247 . S
C335 O333 1.258 . S
C336 O338 1.247 . S
C336 O340 1.258 . S
C337 O344 1.247 . S
C337 O345 1.258 . S
O338 C336 1.247 . S
O338 Zn339 2.028 . S
Zn339 O338 2.028 . S
Zn339 O343 2.035 . S
Zn339 O345 2.035 . S
Zn339 O346 2.028 . S
O340 C336 1.258 . S
O340 Zn341 2.035 . S
Zn341 O340 2.035 . S
Zn341 O342 2.028 . S
Zn341 O344 2.028 . S
Zn341 O347 2.035 . S
O342 Zn341 2.028 . S
O342 C348 1.247 . S
O343 Zn339 2.035 . S
O343 C348 1.258 . S
O344 C337 1.247 . S
O344 Zn341 2.028 . S
O345 C337 1.258 . S
O345 Zn339 2.035 . S
O346 Zn339 2.028 . S
O346 C349 1.247 . S
O347 Zn341 2.035 . S
O347 C349 1.258 . S
C348 O342 1.247 . S
C348 O343 1.258 . S
C349 O346 1.247 . S
C349 O347 1.258 . S
C350 O352 1.247 . S
C350 O354 1.258 . S
C351 O358 1.247 . S
C351 O359 1.258 . S
O352 C350 1.247 . S
O352 Zn353 2.028 . S
Zn353 O352 2.028 . S
Zn353 O357 2.035 . S
Zn353 O359 2.035 . S
Zn353 O360 2.028 . S
O354 C350 1.258 . S
O354 Zn355 2.035 . S
Zn355 O354 2.035 . S
Zn355 O356 2.028 . S
Zn355 O358 2.028 . S
Zn355 O361 2.035 . S
O356 Zn355 2.028 . S
O356 C362 1.247 . S
O357 Zn353 2.035 . S
O357 C362 1.258 . S
O358 C351 1.247 . S
O358 Zn355 2.028 . S
O359 C351 1.258 . S
O359 Zn353 2.035 . S
O360 Zn353 2.028 . S
O360 C363 1.247 . S
O361 Zn355 2.035 . S
O361 C363 1.258 . S
C362 O356 1.247 . S
C362 O357 1.258 . S
C363 O360 1.247 . S
C363 O361 1.258 . S
C364 O366 1.247 . S
C364 O368 1.258 . S
C365 O372 1.247 . S
C365 O373 1.258 . S
O366 C364 1.247 . S
O366 Zn367 2.028 . S
Zn367 O366 2.028 . S
Zn367 O371 2.035 . S
Zn367 O373 2.035 . S
Zn367 O374 2.028 . S
O368 C364 1.258 . S
O368 Zn369 2.035 . S
Zn369 O368 2.035 . S
Zn369 O370 2.028 . S
Zn369 O372 2.028 . S
Zn369 O375 2.035 . S
O370 Zn369 2.028 . S
O370 C376 1.247 . S
O371 Zn367 2.035 . S
O371 C376 1.258 . S
O372 C365 1.247 . S
O372 Zn369 2.028 . S
O373 C365 1.258 . S
O373 Zn367 2.035 . S
O374 Zn367 2.028 . S
O374 C377 1.247 . S
O375 Zn369 2.035 . S
O375 C377 1.258 . S
C376 O370 1.247 . S
C376 O371 1.258 . S
C377 O374 1.247 . S
C377 O375 1.258 . S
C378 O380 1.247 . S
C378 O382 1.258 . S
C379 O386 1.247 . S
C379 O387 1.258 . S
O380 C378 1.247 . S
O380 Zn381 2.028 1_655 S
Zn381 O380 2.028 1_455 S
Zn381 O385 2.035 1_455 S
Zn381 O387 2.035 . S
Zn381 O388 2.028 . S
O382 C378 1.258 . S
O382 Zn383 2.035 1_655 S
Zn383 O382 2.035 1_455 S
Zn383 O384 2.028 1_455 S
Zn383 O386 2.028 . S
Zn383 O389 2.035 . S
O384 Zn383 2.028 1_655 S
O384 C390 1.247 . S
O385 Zn381 2.035 1_655 S
O385 C390 1.258 . S
O386 C379 1.247 . S
O386 Zn383 2.028 . S
O387 C379 1.258 . S
O387 Zn381 2.035 . S
O388 Zn381 2.028 . S
O388 C391 1.247 . S
O389 Zn383 2.035 . S
O389 C391 1.258 . S
C390 O384 1.247 . S
C390 O385 1.258 . S
C391 O388 1.247 . S
C391 O389 1.258 . S
C392 O394 1.247 . S
C392 O396 1.258 . S
C393 O400 1.247 . S
C393 O401 1.258 . S
O394 C392 1.247 . S
O394 Zn395 2.028 . S
Zn395 O394 2.028 . S
Zn395 O399 2.035 . S
Zn395 O401 2.035 . S
Zn395 O402 2.028 . S
O396 C392 1.258 . S
O396 Zn397 2.035 . S
Zn397 O396 2.035 . S
Zn397 O398 2.028 . S
Zn397 O400 2.028 . S
Zn397 O403 2.035 . S
O398 Zn397 2.028 . S
O398 C404 1.247 . S
O399 Zn395 2.035 . S
O399 C404 1.258 . S
O400 C393 1.247 . S
O400 Zn397 2.028 . S
O401 C393 1.258 . S
O401 Zn395 2.035 . S
O402 Zn395 2.028 . S
O402 C405 1.247 . S
O403 Zn397 2.035 . S
O403 C405 1.258 . S
C404 O398 1.247 . S
C404 O399 1.258 . S
C405 O402 1.247 . S
C405 O403 1.258 . S
C406 O408 1.247 . S
C406 O410 1.258 . S
C407 O414 1.247 . S
C407 O415 1.258 . S
O408 C406 1.247 . S
O408 Zn409 2.028 1_655 S
Zn409 O408 2.028 1_455 S
Zn409 O413 2.035 1_455 S
Zn409 O415 2.035 . S
Zn409 O416 2.028 . S
O410 C406 1.258 . S
O410 Zn411 2.035 1_655 S
Zn411 O410 2.035 1_455 S
Zn411 O412 2.028 1_455 S
Zn411 O414 2.028 . S
Zn411 O417 2.035 . S
O412 Zn411 2.028 1_655 S
O412 C418 1.247 . S
O413 Zn409 2.035 1_655 S
O413 C418 1.258 . S
O414 C407 1.247 . S
O414 Zn411 2.028 . S
O415 C407 1.258 . S
O415 Zn409 2.035 . S
O416 Zn409 2.028 . S
O416 C419 1.247 . S
O417 Zn411 2.035 . S
O417 C419 1.258 . S
C418 O412 1.247 . S
C418 O413 1.258 . S
C419 O416 1.247 . S
C419 O417 1.258 . S
C420 O422 1.247 . S
C420 O424 1.258 . S
C421 O428 1.247 . S
C421 O429 1.258 . S
O422 C420 1.247 . S
O422 Zn423 2.028 . S
Zn423 O422 2.028 . S
Zn423 O427 2.035 . S
Zn423 O429 2.035 . S
Zn423 O430 2.028 . S
O424 C420 1.258 . S
O424 Zn425 2.035 . S
Zn425 O424 2.035 . S
Zn425 O426 2.028 . S
Zn425 O428 2.028 . S
Zn425 O431 2.035 . S
O426 Zn425 2.028 . S
O426 C432 1.247 . S
O427 Zn423 2.035 . S
O427 C432 1.258 . S
O428 C421 1.247 . S
O428 Zn425 2.028 . S
O429 C421 1.258 . S
O429 Zn423 2.035 . S
O430 Zn423 2.028 . S
O430 C433 1.247 . S
O431 Zn425 2.035 . S
O431 C433 1.258 . S
C432 O426 1.247 . S
C432 O427 1.258 . S
C433 O430 1.247 . S
C433 O431 1.258 . S
C434 O436 1.247 . S
C434 O438 1.258 . S
C435 O442 1.247 . S
C435 O443 1.258 . S
O436 C434 1.247 . S
O436 Zn437 2.028 . S
Zn437 O436 2.028 . S
Zn437 O441 2.035 . S
Zn437 O443 2.035 . S
Zn437 O444 2.028 . S
O438 C434 1.258 . S
O438 Zn439 2.035 . S
Zn439 O438 2.035 . S
Zn439 O440 2.028 . S
Zn439 O442 2.028 . S
Zn439 O445 2.035 . S
O440 Zn439 2.028 . S
O440 C446 1.247 . S
O441 Zn437 2.035 . S
O441 C446 1.258 . S
O442 C435 1.247 . S
O442 Zn439 2.028 . S
O443 C435 1.258 . S
O443 Zn437 2.035 . S
O444 Zn437 2.028 . S
O444 C447 1.247 . S
O445 Zn439 2.035 . S
O445 C447 1.258 . S
C446 O440 1.247 . S
C446 O441 1.258 . S
C447 O444 1.247 . S
C447 O445 1.258 . S
C448 O450 1.247 . S
C448 O452 1.258 . S
C449 O456 1.247 . S
C449 O457 1.258 . S
O450 C448 1.247 . S
O450 Zn451 2.028 . S
Zn451 O450 2.028 . S
Zn451 O455 2.035 . S
Zn451 O457 2.035 . S
Zn451 O458 2.028 . S
O452 C448 1.258 . S
O452 Zn453 2.035 . S
Zn453 O452 2.035 . S
Zn453 O454 2.028 . S
Zn453 O456 2.028 . S
Zn453 O459 2.035 . S
O454 Zn453 2.028 . S
O454 C460 1.247 . S
O455 Zn451 2.035 . S
O455 C460 1.258 . S
O456 C449 1.247 . S
O456 Zn453 2.028 . S
O457 C449 1.258 . S
O457 Zn451 2.035 . S
O458 Zn451 2.028 . S
O458 C461 1.247 . S
O459 Zn453 2.035 . S
O459 C461 1.258 . S
C460 O454 1.247 . S
C460 O455 1.258 . S
C461 O458 1.247 . S
C461 O459 1.258 . S
C462 O464 1.247 . S
C462 O466 1.258 . S
C463 O470 1.247 . S
C463 O471 1.258 . S
O464 C462 1.247 . S
O464 Zn465 2.028 1_556 S
Zn465 O464 2.028 1_554 S
Zn465 O469 2.035 1_554 S
Zn465 O471 2.035 . S
Zn465 O472 2.028 . S
O466 C462 1.258 . S
O466 Zn467 2.035 1_556 S
Zn467 O466 2.035 1_554 S
Zn467 O468 2.028 1_554 S
Zn467 O470 2.028 . S
Zn467 O473 2.035 . S
O468 Zn467 2.028 1_556 S
O468 C474 1.247 . S
O469 Zn465 2.035 1_556 S
O469 C474 1.258 . S
O470 C463 1.247 . S
O470 Zn467 2.028 . S
O471 C463 1.258 . S
O471 Zn465 2.035 . S
O472 Zn465 2.028 . S
O472 C475 1.247 . S
O473 Zn467 2.035 . S
O473 C475 1.258 . S
C474 O468 1.247 . S
C474 O469 1.258 . S
C475 O472 1.247 . S
C475 O473 1.258 . S
C476 O478 1.247 . S
C476 O480 1.258 . S
C477 O484 1.247 . S
C477 O485 1.258 . S
O478 C476 1.247 . S
O478 Zn479 2.028 . S
Zn479 O478 2.028 . S
Zn479 O483 2.035 . S
Zn479 O485 2.035 . S
Zn479 O486 2.028 . S
O480 C476 1.258 . S
O480 Zn481 2.035 . S
Zn481 O480 2.035 . S
Zn481 O482 2.028 . S
Zn481 O484 2.028 . S
Zn481 O487 2.035 . S
O482 Zn481 2.028 . S
O482 C488 1.247 . S
O483 Zn479 2.035 . S
O483 C488 1.258 . S
O484 C477 1.247 . S
O484 Zn481 2.028 . S
O485 C477 1.258 . S
O485 Zn479 2.035 . S
O486 Zn479 2.028 . S
O486 C489 1.247 . S
O487 Zn481 2.035 . S
O487 C489 1.258 . S
C488 O482 1.247 . S
C488 O483 1.258 . S
C489 O486 1.247 . S
C489 O487 1.258 . S
C490 O492 1.247 . S
C490 O494 1.258 . S
C491 O498 1.247 . S
C491 O499 1.258 . S
O492 C490 1.247 . S
O492 Zn493 2.028 . S
Zn493 O492 2.028 . S
Zn493 O497 2.035 . S
Zn493 O499 2.035 . S
Zn493 O500 2.028 . S
O494 C490 1.258 . S
O494 Zn495 2.035 . S
Zn495 O494 2.035 . S
Zn495 O496 2.028 . S
Zn495 O498 2.028 . S
Zn495 O501 2.035 . S
O496 Zn495 2.028 . S
O496 C502 1.247 . S
O497 Zn493 2.035 . S
O497 C502 1.258 . S
O498 C491 1.247 . S
O498 Zn495 2.028 . S
O499 C491 1.258 . S
O499 Zn493 2.035 . S
O500 Zn493 2.028 . S
O500 C503 1.247 . S
O501 Zn495 2.035 . S
O501 C503 1.258 . S
C502 O496 1.247 . S
C502 O497 1.258 . S
C503 O500 1.247 . S
C503 O501 1.258 . S
C504 O506 1.247 . S
C504 O508 1.258 . S
C505 O512 1.247 . S
C505 O513 1.258 . S
O506 C504 1.247 . S
O506 Zn507 2.028 . S
Zn507 O506 2.028 . S
Zn507 O511 2.035 . S
Zn507 O513 2.035 . S
Zn507 O514 2.028 . S
O508 C504 1.258 . S
O508 Zn509 2.035 . S
Zn509 O508 2.035 . S
Zn509 O510 2.028 . S
Zn509 O512 2.028 . S
Zn509 O515 2.035 . S
O510 Zn509 2.028 . S
O510 C516 1.247 . S
O511 Zn507 2.035 . S
O511 C516 1.258 . S
O512 C505 1.247 . S
O512 Zn509 2.028 . S
O513 C505 1.258 . S
O513 Zn507 2.035 . S
O514 Zn507 2.028 . S
O514 C517 1.247 . S
O515 Zn509 2.035 . S
O515 C517 1.258 . S
C516 O510 1.247 . S
C516 O511 1.258 . S
C517 O514 1.247 . S
C517 O515 1.258 . S
C518 O520 1.247 . S
C518 O522 1.258 . S
C519 O526 1.247 . S
C519 O527 1.258 . S
O520 C518 1.247 . S
O520 Zn521 2.028 . S
Zn521 O520 2.028 . S
Zn521 O525 2.035 . S
Zn521 O527 2.035 1_556 S
Zn521 O528 2.028 1_556 S
O522 C518 1.258 . S
O522 Zn523 2.035 . S
Zn523 O522 2.035 . S
Zn523 O524 2.028 . S
Zn523 O526 2.028 1_556 S
Zn523 O529 2.035 1_556 S
O524 Zn523 2.028 . S
O524 C530 1.247 . S
O525 Zn521 2.035 . S
O525 C530 1.258 . S
O526 C519 1.247 . S
O526 Zn523 2.028 1_554 S
O527 C519 1.258 . S
O527 Zn521 2.035 1_554 S
O528 Zn521 2.028 1_554 S
O528 C531 1.247 . S
O529 Zn523 2.035 1_554 S
O529 C531 1.258 . S
C530 O524 1.247 . S
C530 O525 1.258 . S
C531 O528 1.247 . S
C531 O529 1.258 . S
C532 O534 1.247 . S
C532 O536 1.258 . S
C533 O540 1.247 . S
C533 O541 1.258 . S
O534 C532 1.247 . S
O534 Zn535 2.028 . S
Zn535 O534 2.028 . S
Zn535 O539 2.035 . S
Zn535 O541 2.035 . S
Zn535 O542 2.028 . S
O536 C532 1.258 . S
O536 Zn537 2.035 . S
Zn537 O536 2.035 . S
Zn537 O538 2.028 . S
Zn537 O540 2.028 . S
Zn537 O543 2.035 . S
O538 Zn537 2.028 . S
O538 C544 1.247 . S
O539 Zn535 2.035 . S
O539 C544 1.258 . S
O540 C533 1.247 . S
O540 Zn537 2.028 . S
O541 C533 1.258 . S
O541 Zn535 2.035 . S
O542 Zn535 2.028 . S
O542 C545 1.247 . S
O543 Zn537 2.035 . S
O543 C545 1.258 . S
C544 O538 1.247 . S
C544 O539 1.258 . S
C545 O542 1.247 . S
C545 O543 1.258 . S
C546 O548 1.247 . S
C546 O550 1.258 . S
C547 O554 1.247 . S
C547 O555 1.258 . S
O548 C546 1.247 . S
O548 Zn549 2.028 . S
Zn549 O548 2.028 . S
Zn549 O553 2.035 . S
Zn549 O555 2.035 . S
Zn549 O556 2.028 . S
O550 C546 1.258 . S
O550 Zn551 2.035 . S
Zn551 O550 2.035 . S
Zn551 O552 2.028 . S
Zn551 O554 2.028 . S
Zn551 O557 2.035 . S
O552 Zn551 2.028 . S
O552 C558 1.247 . S
O553 Zn549 2.035 . S
O553 C558 1.258 . S
O554 C547 1.247 . S
O554 Zn551 2.028 . S
O555 C547 1.258 . S
O555 Zn549 2.035 . S
O556 Zn549 2.028 . S
O556 C559 1.247 . S
O557 Zn551 2.035 . S
O557 C559 1.258 . S
C558 O552 1.247 . S
C558 O553 1.258 . S
C559 O556 1.247 . S
C559 O557 1.258 . S
C560 O562 1.247 . S
C560 O564 1.258 . S
C561 O568 1.247 . S
C561 O569 1.258 . S
O562 C560 1.247 . S
O562 Zn563 2.028 . S
Zn563 O562 2.028 . S
Zn563 O567 2.035 . S
Zn563 O569 2.035 . S
Zn563 O570 2.028 . S
O564 C560 1.258 . S
O564 Zn565 2.035 . S
Zn565 O564 2.035 . S
Zn565 O566 2.028 . S
Zn565 O568 2.028 . S
Zn565 O571 2.035 . S
O566 Zn565 2.028 . S
O566 C572 1.247 . S
O567 Zn563 2.035 . S
O567 C572 1.258 . S
O568 C561 1.247 . S
O568 Zn565 2.028 . S
O569 C561 1.258 . S
O569 Zn563 2.035 . S
O570 Zn563 2.028 . S
O570 C573 1.247 . S
O571 Zn565 2.035 . S
O571 C573 1.258 . S
C572 O566 1.247 . S
C572 O567 1.258 . S
C573 O570 1.247 . S
C573 O571 1.258 . S
C574 O576 1.247 . S
C574 O578 1.258 . S
C575 O582 1.247 . S
C575 O583 1.258 . S
O576 C574 1.247 . S
O576 Zn577 2.028 . S
Zn577 O576 2.028 . S
Zn577 O581 2.035 . S
Zn577 O583 2.035 . S
Zn577 O584 2.028 . S
O578 C574 1.258 . S
O578 Zn579 2.035 . S
Zn579 O578 2.035 . S
Zn579 O580 2.028 . S
Zn579 O582 2.028 . S
Zn579 O585 2.035 . S
O580 Zn579 2.028 . S
O580 C586 1.247 . S
O581 Zn577 2.035 . S
O581 C586 1.258 . S
O582 C575 1.247 . S
O582 Zn579 2.028 . S
O583 C575 1.258 . S
O583 Zn577 2.035 . S
O584 Zn577 2.028 . S
O584 C587 1.247 . S
O585 Zn579 2.035 . S
O585 C587 1.258 . S
C586 O580 1.247 . S
C586 O581 1.258 . S
C587 O584 1.247 . S
C587 O585 1.258 . S
C588 O590 1.247 . S
C588 O592 1.258 . S
C589 O596 1.247 . S
C589 O597 1.258 . S
O590 C588 1.247 . S
O590 Zn591 2.028 1_565 S
Zn591 O590 2.028 1_545 S
Zn591 O595 2.035 1_545 S
Zn591 O597 2.035 . S
Zn591 O598 2.028 . S
O592 C588 1.258 . S
O592 Zn593 2.035 1_565 S
Zn593 O592 2.035 1_545 S
Zn593 O594 2.028 1_545 S
Zn593 O596 2.028 . S
Zn593 O599 2.035 . S
O594 Zn593 2.028 1_565 S
O594 C600 1.247 . S
O595 Zn591 2.035 1_565 S
O595 C600 1.258 . S
O596 C589 1.247 . S
O596 Zn593 2.028 . S
O597 C589 1.258 . S
O597 Zn591 2.035 . S
O598 Zn591 2.028 . S
O598 C601 1.247 . S
O599 Zn593 2.035 . S
O599 C601 1.258 . S
C600 O594 1.247 . S
C600 O595 1.258 . S
C601 O598 1.247 . S
C601 O599 1.258 . S
C602 O604 1.247 . S
C602 O606 1.258 . S
C603 O610 1.247 . S
C603 O611 1.258 . S
O604 C602 1.247 . S
O604 Zn605 2.028 . S
Zn605 O604 2.028 . S
Zn605 O609 2.035 . S
Zn605 O611 2.035 . S
Zn605 O612 2.028 . S
O606 C602 1.258 . S
O606 Zn607 2.035 . S
Zn607 O606 2.035 . S
Zn607 O608 2.028 . S
Zn607 O610 2.028 . S
Zn607 O613 2.035 . S
O608 Zn607 2.028 . S
O608 C614 1.247 . S
O609 Zn605 2.035 . S
O609 C614 1.258 . S
O610 C603 1.247 . S
O610 Zn607 2.028 . S
O611 C603 1.258 . S
O611 Zn605 2.035 . S
O612 Zn605 2.028 . S
O612 C615 1.247 . S
O613 Zn607 2.035 . S
O613 C615 1.258 . S
C614 O608 1.247 . S
C614 O609 1.258 . S
C615 O612 1.247 . S
C615 O613 1.258 . S
C616 O618 1.247 . S
C616 O620 1.258 . S
C617 O624 1.247 . S
C617 O625 1.258 . S
O618 C616 1.247 . S
O618 Zn619 2.028 . S
Zn619 O618 2.028 . S
Zn619 O623 2.035 . S
Zn619 O625 2.035 . S
Zn619 O626 2.028 . S
O620 C616 1.258 . S
O620 Zn621 2.035 . S
Zn621 O620 2.035 . S
Zn621 O622 2.028 . S
Zn621 O624 2.028 . S
Zn621 O627 2.035 . S
O622 Zn621 2.028 . S
O622 C628 1.247 . S
O623 Zn619 2.035 . S
O623 C628 1.258 . S
O624 C617 1.247 . S
O624 Zn621 2.028 . S
O625 C617 1.258 . S
O625 Zn619 2.035 . S
O626 Zn619 2.028 . S
O626 C629 1.247 . S
O627 Zn621 2.035 . S
O627 C629 1.258 . S
C628 O622 1.247 . S
C628 O623 1.258 . S
C629 O626 1.247 . S
C629 O627 1.258 . S
C630 O632 1.247 . S
C630 O634 1.258 . S
C631 O638 1.247 . S
C631 O639 1.258 . S
O632 C630 1.247 . S
O632 Zn633 2.028 . S
Zn633 O632 2.028 . S
Zn633 O637 2.035 . S
Zn633 O639 2.035 . S
Zn633 O640 2.028 . S
O634 C630 1.258 . S
O634 Zn635 2.035 . S
Zn635 O634 2.035 . S
Zn635 O636 2.028 . S
Zn635 O638 2.028 . S
Zn635 O641 2.035 . S
O636 Zn635 2.028 . S
O636 C642 1.247 . S
O637 Zn633 2.035 . S
O637 C642 1.258 . S
O638 C631 1.247 . S
O638 Zn635 2.028 . S
O639 C631 1.258 . S
O639 Zn633 2.035 . S
O640 Zn633 2.028 . S
O640 C643 1.247 . S
O641 Zn635 2.035 . S
O641 C643 1.258 . S
C642 O636 1.247 . S
C642 O637 1.258 . S
C643 O640 1.247 . S
C643 O641 1.258 . S
C644 O646 1.247 . S
C644 O648 1.258 . S
C645 O652 1.247 . S
C645 O653 1.258 . S
O646 C644 1.247 . S
O646 Zn647 2.028 1_545 S
Zn647 O646 2.028 1_565 S
Zn647 O651 2.035 1_565 S
Zn647 O653 2.035 . S
Zn647 O654 2.028 . S
O648 C644 1.258 . S
O648 Zn649 2.035 1_545 S
Zn649 O648 2.035 1_565 S
Zn649 O650 2.028 1_565 S
Zn649 O652 2.028 . S
Zn649 O655 2.035 . S
O650 Zn649 2.028 1_545 S
O650 C656 1.247 . S
O651 Zn647 2.035 1_545 S
O651 C656 1.258 . S
O652 C645 1.247 . S
O652 Zn649 2.028 . S
O653 C645 1.258 . S
O653 Zn647 2.035 . S
O654 Zn647 2.028 . S
O654 C657 1.247 . S
O655 Zn649 2.035 . S
O655 C657 1.258 . S
C656 O650 1.247 . S
C656 O651 1.258 . S
C657 O654 1.247 . S
C657 O655 1.258 . S
C658 O660 1.247 . S
C658 O662 1.258 . S
C659 O666 1.247 . S
C659 O667 1.258 . S
O660 C658 1.247 . S
O660 Zn661 2.028 1_565 S
Zn661 O660 2.028 1_545 S
Zn661 O665 2.035 1_545 S
Zn661 O667 2.035 . S
Zn661 O668 2.028 . S
O662 C658 1.258 . S
O662 Zn663 2.035 1_565 S
Zn663 O662 2.035 1_545 S
Zn663 O664 2.028 1_545 S
Zn663 O666 2.028 . S
Zn663 O669 2.035 . S
O664 Zn663 2.028 1_565 S
O664 C670 1.247 . S
O665 Zn661 2.035 1_565 S
O665 C670 1.258 . S
O666 C659 1.247 . S
O666 Zn663 2.028 . S
O667 C659 1.258 . S
O667 Zn661 2.035 . S
O668 Zn661 2.028 . S
O668 C671 1.247 . S
O669 Zn663 2.035 . S
O669 C671 1.258 . S
C670 O664 1.247 . S
C670 O665 1.258 . S
C671 O668 1.247 . S
C671 O669 1.258 . S
C127 C1 2.139 . S
C152 C14 2.140 . S
C155 C40 2.140 . S
C124 C54 2.140 . S
C57 C223 2.139 . S
C82 C168 2.140 . S
C97 C194 2.140 . S
C196 C98 2.140 . S
C236 C264 2.140 . S
C239 C656 2.140 . S
C278 C658 2.140 . S
C292 C631 2.140 . S
C306 C616 2.140 . S
C586 C308 2.140 . S
C334 C603 2.140 . S
C474 C349 2.140 . S
C476 C350 2.140 . S
C491 C376 2.140 . S
C448 C378 2.140 . S
C559 C405 2.139 . S
C504 C418 2.140 . S
C421 C531 2.139 . S
C435 C532 2.140 . S
C561 C600 2.140 . S
C224 C0 1.626 . S
C670 C15 1.620 . S
C41 C294 1.620 . S
C644 C55 1.620 1_556 S
C56 C574 1.626 . S
C588 C83 1.620 . S
C96 C615 1.619 . S
C280 C99 1.620 1_554 S
C125 C13 1.613 . S
C26 C126 1.626 1_565 S
C153 C28 1.620 . S
C42 C154 1.627 1_545 S
C169 C69 1.613 . S
C70 C195 1.620 1_565 S
C197 C85 1.613 . S
C222 C110 1.626 1_565 S
C237 C112 1.620 . S
C238 C516 1.626 . S
C519 C265 1.613 1_655 S
C544 C279 1.620 . S
C211 C293 1.613 1_455 S
C307 C140 1.620 . S
C503 C309 1.613 1_655 S
C335 C462 1.620 . S
C348 C573 1.619 . S
C351 C322 1.620 1_554 S
C377 C643 1.613 . S
C379 C320 1.620 . S
C404 C251 1.619 . S
C419 C252 1.620 1_556 S
C266 C420 1.626 . S
C628 C434 1.626 . S
C337 C449 1.613 . S
C362 C475 1.620 . S
C477 C364 1.620 . S
C390 C490 1.626 . S
C505 C393 1.613 . S
C530 C406 1.626 . S
C533 C433 1.613 . S
C447 C558 1.619 . S
C560 C460 1.626 . S
C587 C180 1.620 . S
C182 C601 1.620 . S
C602 C208 1.627 . S
C617 C547 1.613 . S
C488 C630 1.626 . S
C167 C657 1.612 . S
C139 C659 1.613 1_455 S
C321 C12 2.150 . S
C27 C572 2.150 . S
C29 C323 2.147 . S
C642 C43 2.150 . S
C68 C253 2.150 . S
C267 C71 2.147 . S
C629 C84 2.150 . S
C111 C250 2.150 . S
C183 C113 2.147 . S
C138 C209 2.150 . S
C210 C141 2.150 . S
C166 C181 2.150 . S
C363 C225 2.147 . S
C281 C432 2.150 . S
C295 C391 2.147 . S
C645 C336 2.150 . S
C365 C671 2.147 . S
C392 C589 2.150 . S
C407 C614 2.150 . S
C575 C446 2.150 . S
C518 C461 2.150 . S
C463 C545 2.147 . S
C489 C546 2.150 . S
C517 C502 2.150 . S
