# Generated by pormake.
# Topology unr, (4)-cn, num edge types: 1
# Building blocks:
#     Node 0, Type 0, BuildingBlock: TATPOV_clean_sbu_0, # of connection points: 4
#     Node 1, Type 0, BuildingBlock: TATPOV_clean_sbu_0, # of connection points: 4
#     Node 2, Type 0, BuildingBlock: TATPOV_clean_sbu_0, # of connection points: 4
#     Node 3, Type 0, BuildingBlock: TATPOV_clean_sbu_0, # of connection points: 4
#     Node 4, Type 0, BuildingBlock: TATPOV_clean_sbu_0, # of connection points: 4
#     Node 5, Type 0, BuildingBlock: TATPOV_clean_sbu_0, # of connection points: 4
#     Node 6, Type 0, BuildingBlock: TATPOV_clean_sbu_0, # of connection points: 4
#     Node 7, Type 0, BuildingBlock: TATPOV_clean_sbu_0, # of connection points: 4
#     Node 8, Type 0, BuildingBlock: TATPOV_clean_sbu_0, # of connection points: 4
#     Node 9, Type 0, BuildingBlock: TATPOV_clean_sbu_0, # of connection points: 4
#     Node 10, Type 0, BuildingBlock: TATPOV_clean_sbu_0, # of connection points: 4
#     Node 11, Type 0, BuildingBlock: TATPOV_clean_sbu_0, # of connection points: 4
#     Node 12, Type 0, BuildingBlock: TATPOV_clean_sbu_0, # of connection points: 4
#     Node 13, Type 0, BuildingBlock: TATPOV_clean_sbu_0, # of connection points: 4
#     Node 14, Type 0, BuildingBlock: TATPOV_clean_sbu_0, # of connection points: 4
#     Node 15, Type 0, BuildingBlock: TATPOV_clean_sbu_0, # of connection points: 4
#     Node 16, Type 0, BuildingBlock: TATPOV_clean_sbu_0, # of connection points: 4
#     Node 17, Type 0, BuildingBlock: TATPOV_clean_sbu_0, # of connection points: 4
#     Node 18, Type 0, BuildingBlock: TATPOV_clean_sbu_0, # of connection points: 4
#     Node 19, Type 0, BuildingBlock: TATPOV_clean_sbu_0, # of connection points: 4
#     Node 20, Type 0, BuildingBlock: TATPOV_clean_sbu_0, # of connection points: 4
#     Node 21, Type 0, BuildingBlock: TATPOV_clean_sbu_0, # of connection points: 4
#     Node 22, Type 0, BuildingBlock: TATPOV_clean_sbu_0, # of connection points: 4
#     Node 23, Type 0, BuildingBlock: TATPOV_clean_sbu_0, # of connection points: 4
#     Node 24, Type 0, BuildingBlock: TATPOV_clean_sbu_0, # of connection points: 4
#     Node 25, Type 0, BuildingBlock: TATPOV_clean_sbu_0, # of connection points: 4
#     Node 26, Type 0, BuildingBlock: TATPOV_clean_sbu_0, # of connection points: 4
#     Node 27, Type 0, BuildingBlock: TATPOV_clean_sbu_0, # of connection points: 4
#     Node 28, Type 0, BuildingBlock: TATPOV_clean_sbu_0, # of connection points: 4
#     Node 29, Type 0, BuildingBlock: TATPOV_clean_sbu_0, # of connection points: 4
#     Node 30, Type 0, BuildingBlock: TATPOV_clean_sbu_0, # of connection points: 4
#     Node 31, Type 0, BuildingBlock: TATPOV_clean_sbu_0, # of connection points: 4
#     Node 32, Type 0, BuildingBlock: TATPOV_clean_sbu_0, # of connection points: 4
#     Node 33, Type 0, BuildingBlock: TATPOV_clean_sbu_0, # of connection points: 4
#     Node 34, Type 0, BuildingBlock: TATPOV_clean_sbu_0, # of connection points: 4
#     Node 35, Type 0, BuildingBlock: TATPOV_clean_sbu_0, # of connection points: 4
#     Edge 36, Type (0, 0), None
#     Edge 37, Type (0, 0), None
#     Edge 38, Type (0, 0), None
#     Edge 39, Type (0, 0), None
#     Edge 40, Type (0, 0), None
#     Edge 41, Type (0, 0), None
#     Edge 42, Type (0, 0), None
#     Edge 43, Type (0, 0), None
#     Edge 44, Type (0, 0), None
#     Edge 45, Type (0, 0), None
#     Edge 46, Type (0, 0), None
#     Edge 47, Type (0, 0), None
#     Edge 48, Type (0, 0), None
#     Edge 49, Type (0, 0), None
#     Edge 50, Type (0, 0), None
#     Edge 51, Type (0, 0), None
#     Edge 52, Type (0, 0), None
#     Edge 53, Type (0, 0), None
#     Edge 54, Type (0, 0), None
#     Edge 55, Type (0, 0), None
#     Edge 56, Type (0, 0), None
#     Edge 57, Type (0, 0), None
#     Edge 58, Type (0, 0), None
#     Edge 59, Type (0, 0), None
#     Edge 60, Type (0, 0), None
#     Edge 61, Type (0, 0), None
#     Edge 62, Type (0, 0), None
#     Edge 63, Type (0, 0), None
#     Edge 64, Type (0, 0), None
#     Edge 65, Type (0, 0), None
#     Edge 66, Type (0, 0), None
#     Edge 67, Type (0, 0), None
#     Edge 68, Type (0, 0), None
#     Edge 69, Type (0, 0), None
#     Edge 70, Type (0, 0), None
#     Edge 71, Type (0, 0), None
#     Edge 72, Type (0, 0), None
#     Edge 73, Type (0, 0), None
#     Edge 74, Type (0, 0), None
#     Edge 75, Type (0, 0), None
#     Edge 76, Type (0, 0), None
#     Edge 77, Type (0, 0), None
#     Edge 78, Type (0, 0), None
#     Edge 79, Type (0, 0), None
#     Edge 80, Type (0, 0), None
#     Edge 81, Type (0, 0), None
#     Edge 82, Type (0, 0), None
#     Edge 83, Type (0, 0), None
#     Edge 84, Type (0, 0), None
#     Edge 85, Type (0, 0), None
#     Edge 86, Type (0, 0), None
#     Edge 87, Type (0, 0), None
#     Edge 88, Type (0, 0), None
#     Edge 89, Type (0, 0), None
#     Edge 90, Type (0, 0), None
#     Edge 91, Type (0, 0), None
#     Edge 92, Type (0, 0), None
#     Edge 93, Type (0, 0), None
#     Edge 94, Type (0, 0), None
#     Edge 95, Type (0, 0), None
#     Edge 96, Type (0, 0), None
#     Edge 97, Type (0, 0), None
#     Edge 98, Type (0, 0), None
#     Edge 99, Type (0, 0), None
#     Edge 100, Type (0, 0), None
#     Edge 101, Type (0, 0), None
#     Edge 102, Type (0, 0), None
#     Edge 103, Type (0, 0), None
#     Edge 104, Type (0, 0), None
#     Edge 105, Type (0, 0), None
#     Edge 106, Type (0, 0), None
#     Edge 107, Type (0, 0), None
# Relax obj value: 0.361
# Max RMSD: 0.227
# Mean RMSD: 0.226
data_MOF--net-unr--node1-TATPOV_clean_sbu_0--edge1-none
_symmetry_space_group_name_H-M    P1
_symmetry_Int_Tables_number       1
_symmetry_cell_setting            triclinic
loop_
_symmetry_equiv_pos_as_xyz
'x, y, z'
_cell_length_a     21.429007
_cell_length_b     21.430274
_cell_length_c     54.948807
_cell_angle_alpha  90.022559
_cell_angle_beta   89.972396
_cell_angle_gamma 120.01574
loop_
_atom_site_label
_atom_site_type_symbol
_atom_site_fract_x
_atom_site_fract_y
_atom_site_fract_z
_atom_type_partial_charge
Zn0 Zn 0.07888 0.10455 0.22711 0.0
Zn1 Zn 0.19023 0.15627 0.18126 0.0
O2 O 0.15767 0.05187 0.17683 0.0
O3 O 0.08677 0.02142 0.20896 0.0
O4 O 0.26944 0.20008 0.15601 0.0
O5 O 0.15038 0.21612 0.2257 0.0
O6 O 0.23321 0.19163 0.21659 0.0
C7 C 0.11332 0.00424 0.19111 0.0
C8 C 0.05844 0.16444 0.18822 0.0
O9 O 0.09501 0.15537 0.17181 0.0
O10 O 0.0912 0.19149 0.20788 0.0
C11 C 0.31968 0.18506 0.15285 0.0
O12 O 0.35858 0.20843 0.13301 0.0
C13 C 0.20909 0.21994 0.23163 0.0
Zn14 Zn 0.88243 0.97232 0.2271 0.0
Zn15 Zn 0.8307 0.03186 0.18131 0.0
O16 O 0.93509 0.10376 0.17686 0.0
O17 O 0.96562 0.06329 0.20894 0.0
O18 O 0.78684 0.06719 0.15608 0.0
O19 O 0.77083 0.93211 0.22571 0.0
O20 O 0.79538 0.03947 0.21665 0.0
C21 C 0.98277 0.10702 0.1911 0.0
C22 C 0.82255 0.8919 0.18822 0.0
O23 O 0.83167 0.93757 0.17183 0.0
O24 O 0.79546 0.89758 0.20788 0.0
C25 C 0.80184 0.13244 0.15293 0.0
O26 O 0.77845 0.14793 0.13309 0.0
C27 C 0.76708 0.98701 0.23168 0.0
Zn28 Zn 0.01462 0.90821 0.22712 0.0
Zn29 Zn 0.95512 0.79675 0.18136 0.0
O30 O 0.88319 0.82916 0.17689 0.0
O31 O 0.92372 0.90036 0.20894 0.0
O32 O 0.91987 0.71752 0.15613 0.0
O33 O 0.05486 0.83685 0.22578 0.0
O34 O 0.94753 0.75389 0.21671 0.0
C35 C 0.87997 0.87368 0.1911 0.0
C36 C 0.09511 0.92859 0.18826 0.0
O37 O 0.04942 0.892 0.17188 0.0
O38 O 0.08946 0.896 0.20796 0.0
C39 C 0.85462 0.66726 0.15297 0.0
O40 O 0.83914 0.62838 0.13313 0.0
C41 C 1e-05 0.77811 0.23173 0.0
Zn42 Zn 0.10171 0.08166 0.26251 0.0
Zn43 Zn 0.15377 0.19327 0.30829 0.0
O44 O 0.04943 0.16093 0.31274 0.0
O45 O 0.01874 0.08978 0.28068 0.0
O46 O 0.19772 0.27263 0.33348 0.0
O47 O 0.21335 0.15295 0.26384 0.0
O48 O 0.18914 0.23604 0.27294 0.0
C49 C 0.00169 0.1165 0.29852 0.0
C50 C 0.16156 0.06125 0.3014 0.0
O51 O 0.15265 0.09798 0.3178 0.0
O52 O 0.18863 0.09389 0.28172 0.0
C53 C 0.18275 0.32292 0.33657 0.0
O54 O 0.20617 0.36197 0.35638 0.0
C55 C 0.21732 0.21173 0.25792 0.0
Zn56 Zn 0.90548 0.01782 0.26254 0.0
Zn57 Zn 0.79411 0.95858 0.30834 0.0
O58 O 0.8264 0.88658 0.31284 0.0
O59 O 0.8974 0.92682 0.28074 0.0
O60 O 0.71487 0.92333 0.33357 0.0
O61 O 0.83431 0.0583 0.26387 0.0
O62 O 0.75122 0.95099 0.273 0.0
C63 C 0.87074 0.88316 0.2986 0.0
C64 C 0.92608 0.09843 0.30138 0.0
O65 O 0.88946 0.05281 0.31779 0.0
O66 O 0.89347 0.09281 0.2817 0.0
C67 C 0.66462 0.85807 0.33671 0.0
O68 O 0.62573 0.84253 0.35656 0.0
C69 C 0.77548 0.00347 0.25798 0.0
Zn70 Zn 0.9692 0.88536 0.26258 0.0
Zn71 Zn 0.02863 0.83361 0.30837 0.0
O72 O 0.10063 0.93796 0.31283 0.0
O73 O 0.06027 0.96848 0.28072 0.0
O74 O 0.06396 0.78971 0.33358 0.0
O75 O 0.92872 0.77371 0.26397 0.0
O76 O 0.03613 0.79821 0.27303 0.0
C77 C 0.10399 0.98562 0.29857 0.0
C78 C 0.88876 0.8256 0.30148 0.0
O79 O 0.93442 0.8347 0.31787 0.0
O80 O 0.89428 0.79848 0.2818 0.0
C81 C 0.12923 0.80473 0.33668 0.0
O82 O 0.14484 0.78142 0.3565 0.0
C83 C 0.9836 0.76987 0.25803 0.0
Zn84 Zn 0.90566 0.88532 0.76245 0.0
Zn85 Zn 0.79431 0.8336 0.8083 0.0
O86 O 0.82688 0.938 0.81272 0.0
O87 O 0.89777 0.96845 0.78059 0.0
O88 O 0.7151 0.7898 0.83355 0.0
O89 O 0.83416 0.77375 0.76385 0.0
O90 O 0.75132 0.79824 0.77297 0.0
C91 C 0.87122 0.98562 0.79845 0.0
C92 C 0.92609 0.82542 0.80134 0.0
O93 O 0.88953 0.83449 0.81775 0.0
O94 O 0.89333 0.79837 0.78167 0.0
C95 C 0.66486 0.80481 0.8367 0.0
O96 O 0.62596 0.78145 0.85655 0.0
C97 C 0.77545 0.76993 0.75793 0.0
Zn98 Zn 0.10212 0.01754 0.76246 0.0
Zn99 Zn 0.15383 0.958 0.80825 0.0
O100 O 0.04944 0.8861 0.8127 0.0
O101 O 0.01892 0.92657 0.78062 0.0
O102 O 0.19769 0.92267 0.83349 0.0
O103 O 0.21372 0.05775 0.76386 0.0
O104 O 0.18915 0.95038 0.77291 0.0
C105 C 0.00177 0.88284 0.79846 0.0
C106 C 0.16198 0.09796 0.80135 0.0
O107 O 0.15286 0.05229 0.81774 0.0
O108 O 0.18908 0.09229 0.78168 0.0
C109 C 0.18269 0.85742 0.83663 0.0
O110 O 0.20608 0.84193 0.85647 0.0
C111 C 0.21746 0.00285 0.75788 0.0
Zn112 Zn 0.96993 0.08165 0.76243 0.0
Zn113 Zn 0.02942 0.19312 0.80819 0.0
O114 O 0.10135 0.16071 0.81267 0.0
O115 O 0.06082 0.0895 0.78062 0.0
O116 O 0.06467 0.27235 0.83342 0.0
O117 O 0.92968 0.15301 0.76377 0.0
O118 O 0.037 0.23597 0.77285 0.0
C119 C 0.10456 0.11618 0.79846 0.0
C120 C 0.88943 0.06128 0.80129 0.0
O121 O 0.93512 0.09787 0.81768 0.0
O122 O 0.89508 0.09387 0.78159 0.0
C123 C 0.12992 0.32261 0.83658 0.0
O124 O 0.14539 0.36149 0.85643 0.0
C125 C 0.98453 0.21175 0.75782 0.0
Zn126 Zn 0.88282 0.90822 0.72705 0.0
Zn127 Zn 0.83077 0.79662 0.68127 0.0
O128 O 0.93511 0.82896 0.67682 0.0
O129 O 0.96579 0.9001 0.70888 0.0
O130 O 0.78682 0.71726 0.65608 0.0
O131 O 0.77118 0.83693 0.72572 0.0
O132 O 0.7954 0.75383 0.71662 0.0
C133 C 0.98284 0.87338 0.69104 0.0
C134 C 0.82298 0.92863 0.68815 0.0
O135 O 0.83187 0.8919 0.67176 0.0
O136 O 0.7959 0.89599 0.70784 0.0
C137 C 0.80179 0.66697 0.65298 0.0
O138 O 0.77838 0.62792 0.63317 0.0
C139 C 0.76722 0.77815 0.73164 0.0
Zn140 Zn 0.07905 0.97206 0.72702 0.0
Zn141 Zn 0.19043 0.0313 0.68123 0.0
O142 O 0.15815 0.1033 0.67672 0.0
O143 O 0.08713 0.06305 0.70882 0.0
O144 O 0.26967 0.06653 0.656 0.0
O145 O 0.15022 0.93158 0.7257 0.0
O146 O 0.23331 0.03888 0.71657 0.0
C147 C 0.1138 0.10672 0.69096 0.0
C148 C 0.05845 0.89145 0.68818 0.0
O149 O 0.09507 0.93706 0.67177 0.0
O150 O 0.09105 0.89707 0.70787 0.0
C151 C 0.31993 0.1318 0.65285 0.0
O152 O 0.35882 0.14733 0.633 0.0
C153 C 0.20905 0.98639 0.73159 0.0
Zn154 Zn 0.01534 0.10453 0.72697 0.0
Zn155 Zn 0.9559 0.15627 0.68118 0.0
O156 O 0.88391 0.05192 0.67673 0.0
O157 O 0.92426 0.02141 0.70884 0.0
O158 O 0.92058 0.20017 0.65598 0.0
O159 O 0.05582 0.21617 0.72558 0.0
O160 O 0.94841 0.19167 0.71653 0.0
C161 C 0.88054 0.00426 0.69099 0.0
C162 C 0.09578 0.16428 0.68808 0.0
O163 O 0.05011 0.15517 0.67169 0.0
O164 O 0.09026 0.1914 0.70775 0.0
C165 C 0.85531 0.18515 0.65288 0.0
O166 O 0.8397 0.20846 0.63305 0.0
C167 C 0.00094 0.22001 0.73153 0.0
Zn168 Zn 0.74542 0.43759 0.56053 0.0
Zn169 Zn 0.85706 0.4897 0.51468 0.0
O170 O 0.82457 0.38533 0.51023 0.0
O171 O 0.7535 0.35467 0.54233 0.0
O172 O 0.93632 0.5336 0.48944 0.0
O173 O 0.81693 0.54918 0.55919 0.0
O174 O 0.89997 0.52502 0.55002 0.0
C175 C 0.78016 0.33761 0.52447 0.0
C176 C 0.72516 0.49766 0.52165 0.0
O177 O 0.76182 0.48877 0.50523 0.0
O178 O 0.75783 0.5246 0.54134 0.0
C179 C 0.98658 0.51862 0.48627 0.0
O180 O 0.0255 0.54208 0.46643 0.0
C181 C 0.87573 0.55316 0.56508 0.0
Zn182 Zn 0.5489 0.30527 0.56037 0.0
Zn183 Zn 0.49752 0.36497 0.51458 0.0
O184 O 0.60189 0.43693 0.51019 0.0
O185 O 0.63223 0.3964 0.5423 0.0
O186 O 0.45367 0.40033 0.48936 0.0
O187 O 0.43731 0.26494 0.55887 0.0
O188 O 0.46211 0.37243 0.54993 0.0
C189 C 0.64948 0.44019 0.52447 0.0
C190 C 0.48943 0.22501 0.52144 0.0
O191 O 0.49867 0.27079 0.50507 0.0
O192 O 0.46214 0.23051 0.54108 0.0
C193 C 0.46864 0.46558 0.48624 0.0
O194 O 0.44528 0.48113 0.46641 0.0
C195 C 0.43371 0.31987 0.56492 0.0
Zn196 Zn 0.68141 0.24142 0.56044 0.0
Zn197 Zn 0.62217 0.13003 0.51469 0.0
O198 O 0.55017 0.16233 0.51019 0.0
O199 O 0.59057 0.23361 0.54222 0.0
O200 O 0.58694 0.05083 0.48944 0.0
O201 O 0.72193 0.17027 0.5591 0.0
O202 O 0.61468 0.08713 0.55004 0.0
C203 C 0.5469 0.20687 0.52436 0.0
C204 C 0.76206 0.26199 0.52161 0.0
O205 O 0.7164 0.22538 0.50522 0.0
O206 O 0.75643 0.22941 0.5413 0.0
C207 C 0.52167 0.00064 0.48625 0.0
O208 O 0.5062 0.96186 0.46638 0.0
C209 C 0.66721 0.11141 0.56504 0.0
Zn210 Zn 0.7688 0.41472 0.59587 0.0
Zn211 Zn 0.82046 0.52617 0.64173 0.0
O212 O 0.71604 0.49353 0.64614 0.0
O213 O 0.68568 0.42265 0.61401 0.0
O214 O 0.86414 0.60545 0.66696 0.0
O215 O 0.88036 0.48628 0.59727 0.0
O216 O 0.85581 0.56912 0.60641 0.0
C217 C 0.66845 0.44918 0.63186 0.0
C218 C 0.82865 0.3944 0.63479 0.0
O219 O 0.81962 0.43099 0.6512 0.0
O220 O 0.85571 0.42713 0.61512 0.0
C221 C 0.84907 0.65566 0.67008 0.0
O222 O 0.87238 0.69463 0.68991 0.0
C223 C 0.8841 0.54497 0.59136 0.0
Zn224 Zn 0.5725 0.35048 0.59586 0.0
Zn225 Zn 0.46083 0.29103 0.64156 0.0
O226 O 0.4931 0.21902 0.64607 0.0
O227 O 0.56461 0.25968 0.61411 0.0
O228 O 0.38155 0.25578 0.66677 0.0
O229 O 0.50124 0.39089 0.59711 0.0
O230 O 0.41801 0.28361 0.60621 0.0
C231 C 0.53781 0.2159 0.63193 0.0
C232 C 0.59279 0.43098 0.63468 0.0
O233 O 0.55612 0.38527 0.65105 0.0
O234 O 0.56029 0.4254 0.61497 0.0
C235 C 0.3313 0.19051 0.66992 0.0
O236 O 0.29241 0.17498 0.68977 0.0
C237 C 0.44232 0.33617 0.59122 0.0
Zn238 Zn 0.63643 0.21823 0.59596 0.0
Zn239 Zn 0.69606 0.16673 0.64168 0.0
O240 O 0.76803 0.27106 0.64615 0.0
O241 O 0.72743 0.30153 0.6141 0.0
O242 O 0.73139 0.12281 0.66687 0.0
O243 O 0.59599 0.1066 0.59736 0.0
O244 O 0.70354 0.13141 0.60631 0.0
C245 C 0.77121 0.31872 0.63193 0.0
C246 C 0.556 0.15847 0.63484 0.0
O247 O 0.60186 0.16783 0.65119 0.0
O248 O 0.56148 0.13129 0.61517 0.0
C249 C 0.79667 0.13786 0.66998 0.0
O250 O 0.81229 0.11455 0.68981 0.0
C251 C 0.65093 0.10297 0.59135 0.0
Zn252 Zn 0.57212 0.21889 0.09575 0.0
Zn253 Zn 0.46062 0.16681 0.14154 0.0
O254 O 0.49297 0.27115 0.14601 0.0
O255 O 0.56408 0.30187 0.11393 0.0
O256 O 0.38134 0.1228 0.16676 0.0
O257 O 0.5008 0.10726 0.09709 0.0
O258 O 0.41775 0.13147 0.1062 0.0
C259 C 0.53738 0.3189 0.13179 0.0
C260 C 0.59257 0.15893 0.13461 0.0
O261 O 0.55591 0.16788 0.15102 0.0
O262 O 0.55989 0.13191 0.11494 0.0
C263 C 0.33106 0.13776 0.16991 0.0
O264 O 0.2921 0.11431 0.18974 0.0
C265 C 0.44201 0.10327 0.09116 0.0
Zn266 Zn 0.76846 0.35123 0.09578 0.0
Zn267 Zn 0.82027 0.29174 0.1416 0.0
O268 O 0.71588 0.21979 0.14602 0.0
O269 O 0.68535 0.26017 0.11392 0.0
O270 O 0.86414 0.25642 0.16684 0.0
O271 O 0.88006 0.39149 0.09719 0.0
O272 O 0.85566 0.28418 0.10627 0.0
C273 C 0.66822 0.21644 0.13177 0.0
C274 C 0.82825 0.4316 0.13469 0.0
O275 O 0.81926 0.386 0.15109 0.0
O276 O 0.85535 0.42595 0.11502 0.0
C277 C 0.84916 0.19118 0.16998 0.0
O278 O 0.87259 0.17569 0.18981 0.0
C279 C 0.88392 0.33663 0.09123 0.0
Zn280 Zn 0.63607 0.41516 0.0958 0.0
Zn281 Zn 0.69539 0.52638 0.14162 0.0
O282 O 0.76734 0.49401 0.14609 0.0
O283 O 0.72707 0.42311 0.11396 0.0
O284 O 0.73061 0.60559 0.16686 0.0
O285 O 0.59571 0.4864 0.0972 0.0
O286 O 0.70304 0.56931 0.10628 0.0
C287 C 0.77074 0.4497 0.13182 0.0
C288 C 0.55549 0.39451 0.13467 0.0
O289 O 0.60112 0.43107 0.15108 0.0
O290 O 0.56113 0.42717 0.11499 0.0
C291 C 0.79586 0.65585 0.17002 0.0
O292 O 0.81133 0.69476 0.18986 0.0
C293 C 0.65059 0.54512 0.09125 0.0
Zn294 Zn 0.54917 0.24147 0.06033 0.0
Zn295 Zn 0.49745 0.13013 0.01452 0.0
O296 O 0.60182 0.1626 0.01008 0.0
O297 O 0.63231 0.23354 0.04219 0.0
O298 O 0.45362 0.05084 0.98931 0.0
O299 O 0.43755 0.17012 0.05894 0.0
O300 O 0.46206 0.08723 0.04986 0.0
C301 C 0.64947 0.20695 0.02434 0.0
C302 C 0.4894 0.26198 0.02143 0.0
O303 O 0.49845 0.22537 0.00503 0.0
O304 O 0.46227 0.22925 0.04109 0.0
C305 C 0.46864 0.00058 0.98622 0.0
O306 O 0.44533 0.96158 0.9664 0.0
C307 C 0.43374 0.11142 0.06487 0.0
Zn308 Zn 0.74553 0.30555 0.06036 0.0
Zn309 Zn 0.85701 0.36506 0.01458 0.0
O310 O 0.82465 0.43702 0.01011 0.0
O311 O 0.75356 0.39655 0.04219 0.0
O312 O 0.93629 0.40034 0.98937 0.0
O313 O 0.81685 0.26527 0.05904 0.0
O314 O 0.89985 0.37263 0.04992 0.0
C315 C 0.78022 0.4403 0.02435 0.0
C316 C 0.72512 0.22512 0.0215 0.0
O317 O 0.76173 0.2708 0.00511 0.0
O318 O 0.7577 0.23071 0.04119 0.0
C319 C 0.98659 0.46559 0.98624 0.0
O320 O 0.02555 0.48114 0.96641 0.0
C321 C 0.87562 0.32015 0.06494 0.0
Zn322 Zn 0.68156 0.43776 0.06035 0.0
Zn323 Zn 0.62216 0.48969 0.01459 0.0
O324 O 0.5502 0.38535 0.0101 0.0
O325 O 0.5906 0.3547 0.04216 0.0
O326 O 0.58689 0.53364 0.98938 0.0
O327 O 0.72193 0.5494 0.05904 0.0
O328 O 0.61458 0.52501 0.04994 0.0
C329 C 0.54689 0.33762 0.02431 0.0
C330 C 0.76209 0.49779 0.0215 0.0
O331 O 0.71643 0.48869 0.00511 0.0
O332 O 0.75648 0.52479 0.04119 0.0
C333 C 0.52162 0.51861 0.98625 0.0
O334 O 0.5061 0.54198 0.96641 0.0
C335 C 0.66707 0.55329 0.06496 0.0
Zn336 Zn 0.41242 0.77097 0.8938 0.0
Zn337 Zn 0.52392 0.82306 0.84802 0.0
O338 O 0.49157 0.71872 0.84354 0.0
O339 O 0.42046 0.68799 0.87562 0.0
O340 O 0.6032 0.86707 0.82279 0.0
O341 O 0.48374 0.88261 0.89246 0.0
O342 O 0.56678 0.8584 0.88336 0.0
C343 C 0.44716 0.67097 0.85777 0.0
C344 C 0.39196 0.83093 0.85494 0.0
O345 O 0.42863 0.82199 0.83854 0.0
O346 O 0.42464 0.85795 0.87462 0.0
C347 C 0.65348 0.85212 0.81965 0.0
O348 O 0.69244 0.87557 0.79982 0.0
C349 C 0.54252 0.8866 0.89839 0.0
Zn350 Zn 0.21609 0.63863 0.89378 0.0
Zn351 Zn 0.16426 0.69812 0.84795 0.0
O352 O 0.26865 0.77007 0.84353 0.0
O353 O 0.29919 0.7297 0.87564 0.0
O354 O 0.12039 0.73344 0.82272 0.0
O355 O 0.10449 0.59838 0.89237 0.0
O356 O 0.12887 0.70568 0.88329 0.0
C357 C 0.31632 0.77342 0.85779 0.0
C358 C 0.15629 0.55827 0.85487 0.0
O359 O 0.16527 0.60386 0.83847 0.0
O360 O 0.1292 0.56392 0.87454 0.0
C361 C 0.13538 0.79868 0.81958 0.0
O362 O 0.11194 0.81417 0.79975 0.0
C363 C 0.10062 0.65323 0.89833 0.0
Zn364 Zn 0.34847 0.57471 0.89375 0.0
Zn365 Zn 0.28915 0.46349 0.84793 0.0
O366 O 0.2172 0.49586 0.84347 0.0
O367 O 0.25746 0.56675 0.8756 0.0
O368 O 0.25393 0.38428 0.82269 0.0
O369 O 0.38883 0.50346 0.89236 0.0
O370 O 0.2815 0.42056 0.88327 0.0
C371 C 0.2138 0.54016 0.85773 0.0
C372 C 0.42905 0.59536 0.85488 0.0
O373 O 0.38342 0.5588 0.83848 0.0
O374 O 0.42341 0.56269 0.87456 0.0
C375 C 0.18868 0.33402 0.81953 0.0
O376 O 0.17321 0.29511 0.79969 0.0
C377 C 0.33395 0.44475 0.8983 0.0
Zn378 Zn 0.43536 0.74841 0.92923 0.0
Zn379 Zn 0.48708 0.85975 0.97503 0.0
O380 O 0.38271 0.82728 0.97948 0.0
O381 O 0.35222 0.75633 0.94737 0.0
O382 O 0.53092 0.93904 0.00024 0.0
O383 O 0.54698 0.81976 0.93062 0.0
O384 O 0.52247 0.90264 0.9397 0.0
C385 C 0.33506 0.78293 0.96521 0.0
C386 C 0.49513 0.72789 0.96813 0.0
O387 O 0.48608 0.7645 0.98452 0.0
O388 O 0.52226 0.76062 0.94846 0.0
C389 C 0.51589 0.98929 0.00333 0.0
O390 O 0.53922 0.0283 0.02316 0.0
C391 C 0.5508 0.87846 0.92469 0.0
Zn392 Zn 0.239 0.68432 0.92919 0.0
Zn393 Zn 0.12753 0.62481 0.97498 0.0
O394 O 0.15989 0.55285 0.97945 0.0
O395 O 0.23098 0.59332 0.94737 0.0
O396 O 0.04825 0.58953 0.00019 0.0
O397 O 0.16767 0.7246 0.93052 0.0
O398 O 0.08468 0.61723 0.93964 0.0
C399 C 0.20431 0.54957 0.96521 0.0
C400 C 0.25941 0.76476 0.96806 0.0
O401 O 0.2228 0.71908 0.98445 0.0
O402 O 0.22683 0.75916 0.94837 0.0
C403 C -0.00204 0.52428 0.00332 0.0
O404 O 0.95898 0.50873 0.02315 0.0
C405 C 0.10891 0.66971 0.92462 0.0
Zn406 Zn 0.30298 0.55212 0.9292 0.0
Zn407 Zn 0.36238 0.50018 0.97497 0.0
O408 O 0.43434 0.60452 0.97946 0.0
O409 O 0.39393 0.63517 0.9474 0.0
O410 O 0.39765 0.45623 0.00018 0.0
O411 O 0.26261 0.44048 0.93051 0.0
O412 O 0.36996 0.46486 0.93961 0.0
C413 C 0.43764 0.65225 0.96525 0.0
C414 C 0.22244 0.49208 0.96806 0.0
O415 O 0.26811 0.50118 0.98445 0.0
O416 O 0.22806 0.46509 0.94836 0.0
C417 C 0.46291 0.47127 0.00331 0.0
O418 O 0.47844 0.44789 0.02314 0.0
C419 C 0.31747 0.43658 0.9246 0.0
Zn420 Zn 0.23912 0.55226 0.42903 0.0
Zn421 Zn 0.12748 0.50016 0.47488 0.0
O422 O 0.15999 0.60454 0.47932 0.0
O423 O 0.23105 0.63518 0.44723 0.0
O424 O 0.04822 0.45627 0.50012 0.0
O425 O 0.16761 0.44068 0.43037 0.0
O426 O 0.08457 0.46485 0.43954 0.0
C427 C 0.20439 0.65225 0.46508 0.0
C428 C 0.25937 0.49218 0.46791 0.0
O429 O 0.22271 0.50107 0.48433 0.0
O430 O 0.22671 0.46525 0.44822 0.0
C431 C -0.00203 0.47127 0.5033 0.0
O432 O 0.95905 0.4478 0.52313 0.0
C433 C 0.10881 0.43671 0.42447 0.0
Zn434 Zn 0.43565 0.68457 0.42919 0.0
Zn435 Zn 0.48701 0.62487 0.47498 0.0
O436 O 0.38264 0.5529 0.47937 0.0
O437 O 0.35231 0.59345 0.44726 0.0
O438 O 0.53086 0.5895 0.5002 0.0
O439 O 0.54725 0.72491 0.4307 0.0
O440 O 0.52242 0.6174 0.43963 0.0
C441 C 0.33506 0.54965 0.46509 0.0
C442 C 0.49511 0.76483 0.46813 0.0
O443 O 0.48585 0.71904 0.48449 0.0
O444 O 0.52242 0.75934 0.44848 0.0
C445 C 0.51588 0.52425 0.50333 0.0
O446 O 0.53925 0.50871 0.52316 0.0
C447 C 0.55083 0.66998 0.42465 0.0
Zn448 Zn 0.30315 0.74843 0.42911 0.0
Zn449 Zn 0.36238 0.85984 0.47486 0.0
O450 O 0.43438 0.82754 0.47936 0.0
O451 O 0.39397 0.75623 0.44734 0.0
O452 O 0.39761 0.93903 0.50011 0.0
O453 O 0.26263 0.81958 0.43045 0.0
O454 O 0.36987 0.90274 0.43951 0.0
C455 C 0.43765 0.78298 0.46519 0.0
C456 C 0.22249 0.72787 0.46794 0.0
O457 O 0.26815 0.76448 0.48433 0.0
O458 O 0.22812 0.76045 0.44825 0.0
C459 C 0.46288 0.98922 0.5033 0.0
O460 O 0.47834 0.02801 0.52317 0.0
C461 C 0.31733 0.87845 0.42451 0.0
Zn462 Zn 0.21574 0.57517 0.39369 0.0
Zn463 Zn 0.16407 0.46371 0.34783 0.0
O464 O 0.26849 0.49636 0.34342 0.0
O465 O 0.29885 0.56723 0.37555 0.0
O466 O 0.1204 0.38444 0.32259 0.0
O467 O 0.10418 0.5036 0.39229 0.0
O468 O 0.12872 0.42076 0.38315 0.0
C469 C 0.31608 0.5407 0.3577 0.0
C470 C 0.15588 0.59548 0.35477 0.0
O471 O 0.16491 0.55888 0.33836 0.0
O472 O 0.12882 0.56275 0.37444 0.0
C473 C 0.13547 0.33422 0.31948 0.0
O474 O 0.11216 0.29525 0.29965 0.0
C475 C 0.10043 0.44491 0.39819 0.0
Zn476 Zn 0.41203 0.6394 0.3937 0.0
Zn477 Zn 0.52372 0.69884 0.34801 0.0
O478 O 0.49145 0.77086 0.34349 0.0
O479 O 0.41991 0.7302 0.37545 0.0
O480 O 0.603 0.73409 0.32279 0.0
O481 O 0.48328 0.59897 0.39245 0.0
O482 O 0.56653 0.70625 0.38335 0.0
C483 C 0.44673 0.77398 0.35762 0.0
C484 C 0.39174 0.5589 0.35488 0.0
O485 O 0.42841 0.60461 0.33851 0.0
O486 O 0.42424 0.56447 0.37459 0.0
C487 C 0.65324 0.79936 0.31965 0.0
O488 O 0.69214 0.81489 0.2998 0.0
C489 C 0.5422 0.65369 0.39834 0.0
Zn490 Zn 0.34811 0.77167 0.39359 0.0
Zn491 Zn 0.28848 0.82315 0.34788 0.0
O492 O 0.21651 0.71882 0.3434 0.0
O493 O 0.25711 0.68836 0.37546 0.0
O494 O 0.25314 0.86706 0.32268 0.0
O495 O 0.38855 0.8833 0.39219 0.0
O496 O 0.28099 0.85846 0.38324 0.0
C497 C 0.21332 0.67116 0.35763 0.0
C498 C 0.42855 0.8314 0.35471 0.0
O499 O 0.38268 0.82203 0.33836 0.0
O500 O 0.42307 0.85859 0.37438 0.0
C501 C 0.18786 0.85202 0.31957 0.0
O502 O 0.17225 0.87532 0.29974 0.0
C503 C 0.33361 0.88691 0.3982 0.0
loop_
_geom_bond_atom_site_label_1
_geom_bond_atom_site_label_2
_geom_bond_distance
_geom_bond_site_symmetry_2
_ccdc_geom_bond_type
Zn0 O3 2.031 . S
Zn0 O5 2.049 . S
Zn0 O10 2.067 . S
Zn1 O2 1.962 . S
Zn1 O4 1.986 . S
Zn1 O6 1.996 . S
Zn1 O9 1.943 . S
O2 Zn1 1.962 . S
O2 C7 1.254 1_545 S
O3 Zn0 2.031 . S
O3 C7 1.269 1_545 S
O4 Zn1 1.986 . S
O4 C11 1.262 . S
O5 Zn0 2.049 . S
O5 C13 1.260 . S
O6 Zn1 1.996 . S
O6 C13 1.257 . S
C7 O2 1.254 1_565 S
C7 O3 1.269 1_565 S
C8 O9 1.249 . S
C8 O10 1.270 . S
O9 Zn1 1.943 . S
O9 C8 1.249 . S
O10 Zn0 2.067 . S
O10 C8 1.270 . S
C11 O4 1.262 . S
C11 O12 1.232 . S
O12 C11 1.232 . S
C13 O5 1.260 . S
C13 O6 1.257 . S
Zn14 O17 2.031 1_565 S
Zn14 O19 2.049 . S
Zn14 O24 2.067 . S
Zn15 O16 1.962 . S
Zn15 O18 1.986 . S
Zn15 O20 1.996 . S
Zn15 O23 1.943 1_545 S
O16 Zn15 1.962 . S
O16 C21 1.254 1_655 S
O17 Zn14 2.031 1_545 S
O17 C21 1.269 1_655 S
O18 Zn15 1.986 . S
O18 C25 1.262 . S
O19 Zn14 2.049 . S
O19 C27 1.260 . S
O20 Zn15 1.996 . S
O20 C27 1.257 1_545 S
C21 O16 1.254 1_455 S
C21 O17 1.269 1_455 S
C22 O23 1.249 . S
C22 O24 1.270 . S
O23 Zn15 1.943 1_565 S
O23 C22 1.249 . S
O24 Zn14 2.067 . S
O24 C22 1.270 . S
C25 O18 1.262 . S
C25 O26 1.232 . S
O26 C25 1.232 . S
C27 O19 1.260 . S
C27 O20 1.257 1_565 S
Zn28 O31 2.031 1_455 S
Zn28 O33 2.049 . S
Zn28 O38 2.067 . S
Zn29 O30 1.962 . S
Zn29 O32 1.986 . S
Zn29 O34 1.996 . S
Zn29 O37 1.943 1_655 S
O30 Zn29 1.962 . S
O30 C35 1.254 . S
O31 Zn28 2.031 1_655 S
O31 C35 1.269 . S
O32 Zn29 1.986 . S
O32 C39 1.262 . S
O33 Zn28 2.049 . S
O33 C41 1.260 . S
O34 Zn29 1.996 . S
O34 C41 1.257 1_655 S
C35 O30 1.254 . S
C35 O31 1.269 . S
C36 O37 1.249 . S
C36 O38 1.270 . S
O37 Zn29 1.943 1_455 S
O37 C36 1.249 . S
O38 Zn28 2.067 . S
O38 C36 1.270 . S
C39 O32 1.262 . S
C39 O40 1.232 . S
O40 C39 1.232 . S
C41 O33 1.260 . S
C41 O34 1.257 1_455 S
Zn42 O45 2.031 . S
Zn42 O47 2.049 . S
Zn42 O52 2.067 . S
Zn43 O44 1.962 . S
Zn43 O46 1.986 . S
Zn43 O48 1.996 . S
Zn43 O51 1.943 . S
O44 Zn43 1.962 . S
O44 C49 1.254 1_455 S
O45 Zn42 2.031 . S
O45 C49 1.269 1_455 S
O46 Zn43 1.986 . S
O46 C53 1.262 . S
O47 Zn42 2.049 . S
O47 C55 1.260 . S
O48 Zn43 1.996 . S
O48 C55 1.257 . S
C49 O44 1.254 1_655 S
C49 O45 1.269 1_655 S
C50 O51 1.249 . S
C50 O52 1.270 . S
O51 Zn43 1.943 . S
O51 C50 1.249 . S
O52 Zn42 2.067 . S
O52 C50 1.270 . S
C53 O46 1.262 . S
C53 O54 1.232 . S
O54 C53 1.232 . S
C55 O47 1.260 . S
C55 O48 1.257 . S
Zn56 O59 2.031 1_545 S
Zn56 O61 2.049 . S
Zn56 O66 2.067 . S
Zn57 O58 1.962 . S
Zn57 O60 1.986 . S
Zn57 O62 1.996 . S
Zn57 O65 1.943 1_565 S
O58 Zn57 1.962 . S
O58 C63 1.254 . S
O59 Zn56 2.031 1_565 S
O59 C63 1.269 . S
O60 Zn57 1.986 . S
O60 C67 1.262 . S
O61 Zn56 2.049 . S
O61 C69 1.260 . S
O62 Zn57 1.996 . S
O62 C69 1.257 1_565 S
C63 O58 1.254 . S
C63 O59 1.269 . S
C64 O65 1.249 . S
C64 O66 1.270 . S
O65 Zn57 1.943 1_545 S
O65 C64 1.249 . S
O66 Zn56 2.067 . S
O66 C64 1.270 . S
C67 O60 1.262 . S
C67 O68 1.232 . S
O68 C67 1.232 . S
C69 O61 1.260 . S
C69 O62 1.257 1_545 S
Zn70 O73 2.031 1_655 S
Zn70 O75 2.049 . S
Zn70 O80 2.067 . S
Zn71 O72 1.962 . S
Zn71 O74 1.986 . S
Zn71 O76 1.996 . S
Zn71 O79 1.943 1_455 S
O72 Zn71 1.962 . S
O72 C77 1.254 1_565 S
O73 Zn70 2.031 1_455 S
O73 C77 1.269 1_565 S
O74 Zn71 1.986 . S
O74 C81 1.262 . S
O75 Zn70 2.049 . S
O75 C83 1.260 . S
O76 Zn71 1.996 . S
O76 C83 1.257 1_455 S
C77 O72 1.254 1_545 S
C77 O73 1.269 1_545 S
C78 O79 1.249 . S
C78 O80 1.270 . S
O79 Zn71 1.943 1_655 S
O79 C78 1.249 . S
O80 Zn70 2.067 . S
O80 C78 1.270 . S
C81 O74 1.262 . S
C81 O82 1.232 . S
O82 C81 1.232 . S
C83 O75 1.260 . S
C83 O76 1.257 1_655 S
Zn84 O87 2.031 . S
Zn84 O89 2.049 . S
Zn84 O94 2.067 . S
Zn85 O86 1.962 . S
Zn85 O88 1.986 . S
Zn85 O90 1.996 . S
Zn85 O93 1.943 . S
O86 Zn85 1.962 . S
O86 C91 1.254 1_565 S
O87 Zn84 2.031 . S
O87 C91 1.269 1_565 S
O88 Zn85 1.986 . S
O88 C95 1.262 . S
O89 Zn84 2.049 . S
O89 C97 1.260 . S
O90 Zn85 1.996 . S
O90 C97 1.257 . S
C91 O86 1.254 1_545 S
C91 O87 1.269 1_545 S
C92 O93 1.249 . S
C92 O94 1.270 . S
O93 Zn85 1.943 . S
O93 C92 1.249 . S
O94 Zn84 2.067 . S
O94 C92 1.270 . S
C95 O88 1.262 . S
C95 O96 1.232 . S
O96 C95 1.232 . S
C97 O89 1.260 . S
C97 O90 1.257 . S
Zn98 O101 2.031 1_545 S
Zn98 O103 2.049 . S
Zn98 O108 2.067 . S
Zn99 O100 1.962 . S
Zn99 O102 1.986 . S
Zn99 O104 1.996 . S
Zn99 O107 1.943 1_565 S
O100 Zn99 1.962 . S
O100 C105 1.254 1_455 S
O101 Zn98 2.031 1_565 S
O101 C105 1.269 1_455 S
O102 Zn99 1.986 . S
O102 C109 1.262 . S
O103 Zn98 2.049 . S
O103 C111 1.260 . S
O104 Zn99 1.996 . S
O104 C111 1.257 1_565 S
C105 O100 1.254 1_655 S
C105 O101 1.269 1_655 S
C106 O107 1.249 . S
C106 O108 1.270 . S
O107 Zn99 1.943 1_545 S
O107 C106 1.249 . S
O108 Zn98 2.067 . S
O108 C106 1.270 . S
C109 O102 1.262 . S
C109 O110 1.232 . S
O110 C109 1.232 . S
C111 O103 1.260 . S
C111 O104 1.257 1_545 S
Zn112 O115 2.031 1_655 S
Zn112 O117 2.049 . S
Zn112 O122 2.067 . S
Zn113 O114 1.962 . S
Zn113 O116 1.986 . S
Zn113 O118 1.996 . S
Zn113 O121 1.943 1_455 S
O114 Zn113 1.962 . S
O114 C119 1.254 . S
O115 Zn112 2.031 1_455 S
O115 C119 1.269 . S
O116 Zn113 1.986 . S
O116 C123 1.262 . S
O117 Zn112 2.049 . S
O117 C125 1.260 . S
O118 Zn113 1.996 . S
O118 C125 1.257 1_455 S
C119 O114 1.254 . S
C119 O115 1.269 . S
C120 O121 1.249 . S
C120 O122 1.270 . S
O121 Zn113 1.943 1_655 S
O121 C120 1.249 . S
O122 Zn112 2.067 . S
O122 C120 1.270 . S
C123 O116 1.262 . S
C123 O124 1.232 . S
O124 C123 1.232 . S
C125 O117 1.260 . S
C125 O118 1.257 1_655 S
Zn126 O129 2.031 . S
Zn126 O131 2.049 . S
Zn126 O136 2.067 . S
Zn127 O128 1.962 . S
Zn127 O130 1.986 . S
Zn127 O132 1.996 . S
Zn127 O135 1.943 . S
O128 Zn127 1.962 . S
O128 C133 1.254 1_655 S
O129 Zn126 2.031 . S
O129 C133 1.269 1_655 S
O130 Zn127 1.986 . S
O130 C137 1.262 . S
O131 Zn126 2.049 . S
O131 C139 1.260 . S
O132 Zn127 1.996 . S
O132 C139 1.257 . S
C133 O128 1.254 1_455 S
C133 O129 1.269 1_455 S
C134 O135 1.249 . S
C134 O136 1.270 . S
O135 Zn127 1.943 . S
O135 C134 1.249 . S
O136 Zn126 2.067 . S
O136 C134 1.270 . S
C137 O130 1.262 . S
C137 O138 1.232 . S
O138 C137 1.232 . S
C139 O131 1.260 . S
C139 O132 1.257 . S
Zn140 O143 2.031 1_565 S
Zn140 O145 2.049 . S
Zn140 O150 2.067 . S
Zn141 O142 1.962 . S
Zn141 O144 1.986 . S
Zn141 O146 1.996 . S
Zn141 O149 1.943 1_545 S
O142 Zn141 1.962 . S
O142 C147 1.254 . S
O143 Zn140 2.031 1_545 S
O143 C147 1.269 . S
O144 Zn141 1.986 . S
O144 C151 1.262 . S
O145 Zn140 2.049 . S
O145 C153 1.260 . S
O146 Zn141 1.996 . S
O146 C153 1.257 1_545 S
C147 O142 1.254 . S
C147 O143 1.269 . S
C148 O149 1.249 . S
C148 O150 1.270 . S
O149 Zn141 1.943 1_565 S
O149 C148 1.249 . S
O150 Zn140 2.067 . S
O150 C148 1.270 . S
C151 O144 1.262 . S
C151 O152 1.232 . S
O152 C151 1.232 . S
C153 O145 1.260 . S
C153 O146 1.257 1_565 S
Zn154 O157 2.031 1_455 S
Zn154 O159 2.049 . S
Zn154 O164 2.067 . S
Zn155 O156 1.962 . S
Zn155 O158 1.986 . S
Zn155 O160 1.996 . S
Zn155 O163 1.943 1_655 S
O156 Zn155 1.962 . S
O156 C161 1.254 1_545 S
O157 Zn154 2.031 1_655 S
O157 C161 1.269 1_545 S
O158 Zn155 1.986 . S
O158 C165 1.262 . S
O159 Zn154 2.049 . S
O159 C167 1.260 . S
O160 Zn155 1.996 . S
O160 C167 1.257 1_655 S
C161 O156 1.254 1_565 S
C161 O157 1.269 1_565 S
C162 O163 1.249 . S
C162 O164 1.270 . S
O163 Zn155 1.943 1_455 S
O163 C162 1.249 . S
O164 Zn154 2.067 . S
O164 C162 1.270 . S
C165 O158 1.262 . S
C165 O166 1.232 . S
O166 C165 1.232 . S
C167 O159 1.260 . S
C167 O160 1.257 1_455 S
Zn168 O171 2.031 . S
Zn168 O173 2.049 . S
Zn168 O178 2.067 . S
Zn169 O170 1.962 . S
Zn169 O172 1.986 . S
Zn169 O174 1.996 . S
Zn169 O177 1.943 . S
O170 Zn169 1.962 . S
O170 C175 1.254 . S
O171 Zn168 2.031 . S
O171 C175 1.269 . S
O172 Zn169 1.986 . S
O172 C179 1.262 . S
O173 Zn168 2.049 . S
O173 C181 1.260 . S
O174 Zn169 1.996 . S
O174 C181 1.257 . S
C175 O170 1.254 . S
C175 O171 1.269 . S
C176 O177 1.249 . S
C176 O178 1.270 . S
O177 Zn169 1.943 . S
O177 C176 1.249 . S
O178 Zn168 2.067 . S
O178 C176 1.270 . S
C179 O172 1.262 . S
C179 O180 1.232 . S
O180 C179 1.232 . S
C181 O173 1.260 . S
C181 O174 1.257 . S
Zn182 O185 2.031 . S
Zn182 O187 2.049 . S
Zn182 O192 2.067 . S
Zn183 O184 1.962 . S
Zn183 O186 1.986 . S
Zn183 O188 1.996 . S
Zn183 O191 1.943 . S
O184 Zn183 1.962 . S
O184 C189 1.254 . S
O185 Zn182 2.031 . S
O185 C189 1.269 . S
O186 Zn183 1.986 . S
O186 C193 1.262 . S
O187 Zn182 2.049 . S
O187 C195 1.260 . S
O188 Zn183 1.996 . S
O188 C195 1.257 . S
C189 O184 1.254 . S
C189 O185 1.269 . S
C190 O191 1.249 . S
C190 O192 1.270 . S
O191 Zn183 1.943 . S
O191 C190 1.249 . S
O192 Zn182 2.067 . S
O192 C190 1.270 . S
C193 O186 1.262 . S
C193 O194 1.232 . S
O194 C193 1.232 . S
C195 O187 1.260 . S
C195 O188 1.257 . S
Zn196 O199 2.031 . S
Zn196 O201 2.049 . S
Zn196 O206 2.067 . S
Zn197 O198 1.962 . S
Zn197 O200 1.986 . S
Zn197 O202 1.996 . S
Zn197 O205 1.943 . S
O198 Zn197 1.962 . S
O198 C203 1.254 . S
O199 Zn196 2.031 . S
O199 C203 1.269 . S
O200 Zn197 1.986 . S
O200 C207 1.262 . S
O201 Zn196 2.049 . S
O201 C209 1.260 . S
O202 Zn197 1.996 . S
O202 C209 1.257 . S
C203 O198 1.254 . S
C203 O199 1.269 . S
C204 O205 1.249 . S
C204 O206 1.270 . S
O205 Zn197 1.943 . S
O205 C204 1.249 . S
O206 Zn196 2.067 . S
O206 C204 1.270 . S
C207 O200 1.262 . S
C207 O208 1.232 . S
O208 C207 1.232 . S
C209 O201 1.260 . S
C209 O202 1.257 . S
Zn210 O213 2.031 . S
Zn210 O215 2.049 . S
Zn210 O220 2.067 . S
Zn211 O212 1.962 . S
Zn211 O214 1.986 . S
Zn211 O216 1.996 . S
Zn211 O219 1.943 . S
O212 Zn211 1.962 . S
O212 C217 1.254 . S
O213 Zn210 2.031 . S
O213 C217 1.269 . S
O214 Zn211 1.986 . S
O214 C221 1.262 . S
O215 Zn210 2.049 . S
O215 C223 1.260 . S
O216 Zn211 1.996 . S
O216 C223 1.257 . S
C217 O212 1.254 . S
C217 O213 1.269 . S
C218 O219 1.249 . S
C218 O220 1.270 . S
O219 Zn211 1.943 . S
O219 C218 1.249 . S
O220 Zn210 2.067 . S
O220 C218 1.270 . S
C221 O214 1.262 . S
C221 O222 1.232 . S
O222 C221 1.232 . S
C223 O215 1.260 . S
C223 O216 1.257 . S
Zn224 O227 2.031 . S
Zn224 O229 2.049 . S
Zn224 O234 2.067 . S
Zn225 O226 1.962 . S
Zn225 O228 1.986 . S
Zn225 O230 1.996 . S
Zn225 O233 1.943 . S
O226 Zn225 1.962 . S
O226 C231 1.254 . S
O227 Zn224 2.031 . S
O227 C231 1.269 . S
O228 Zn225 1.986 . S
O228 C235 1.262 . S
O229 Zn224 2.049 . S
O229 C237 1.260 . S
O230 Zn225 1.996 . S
O230 C237 1.257 . S
C231 O226 1.254 . S
C231 O227 1.269 . S
C232 O233 1.249 . S
C232 O234 1.270 . S
O233 Zn225 1.943 . S
O233 C232 1.249 . S
O234 Zn224 2.067 . S
O234 C232 1.270 . S
C235 O228 1.262 . S
C235 O236 1.232 . S
O236 C235 1.232 . S
C237 O229 1.260 . S
C237 O230 1.257 . S
Zn238 O241 2.031 . S
Zn238 O243 2.049 . S
Zn238 O248 2.067 . S
Zn239 O240 1.962 . S
Zn239 O242 1.986 . S
Zn239 O244 1.996 . S
Zn239 O247 1.943 . S
O240 Zn239 1.962 . S
O240 C245 1.254 . S
O241 Zn238 2.031 . S
O241 C245 1.269 . S
O242 Zn239 1.986 . S
O242 C249 1.262 . S
O243 Zn238 2.049 . S
O243 C251 1.260 . S
O244 Zn239 1.996 . S
O244 C251 1.257 . S
C245 O240 1.254 . S
C245 O241 1.269 . S
C246 O247 1.249 . S
C246 O248 1.270 . S
O247 Zn239 1.943 . S
O247 C246 1.249 . S
O248 Zn238 2.067 . S
O248 C246 1.270 . S
C249 O242 1.262 . S
C249 O250 1.232 . S
O250 C249 1.232 . S
C251 O243 1.260 . S
C251 O244 1.257 . S
Zn252 O255 2.031 . S
Zn252 O257 2.049 . S
Zn252 O262 2.067 . S
Zn253 O254 1.962 . S
Zn253 O256 1.986 . S
Zn253 O258 1.996 . S
Zn253 O261 1.943 . S
O254 Zn253 1.962 . S
O254 C259 1.254 . S
O255 Zn252 2.031 . S
O255 C259 1.269 . S
O256 Zn253 1.986 . S
O256 C263 1.262 . S
O257 Zn252 2.049 . S
O257 C265 1.260 . S
O258 Zn253 1.996 . S
O258 C265 1.257 . S
C259 O254 1.254 . S
C259 O255 1.269 . S
C260 O261 1.249 . S
C260 O262 1.270 . S
O261 Zn253 1.943 . S
O261 C260 1.249 . S
O262 Zn252 2.067 . S
O262 C260 1.270 . S
C263 O256 1.262 . S
C263 O264 1.232 . S
O264 C263 1.232 . S
C265 O257 1.260 . S
C265 O258 1.257 . S
Zn266 O269 2.031 . S
Zn266 O271 2.049 . S
Zn266 O276 2.067 . S
Zn267 O268 1.962 . S
Zn267 O270 1.986 . S
Zn267 O272 1.996 . S
Zn267 O275 1.943 . S
O268 Zn267 1.962 . S
O268 C273 1.254 . S
O269 Zn266 2.031 . S
O269 C273 1.269 . S
O270 Zn267 1.986 . S
O270 C277 1.262 . S
O271 Zn266 2.049 . S
O271 C279 1.260 . S
O272 Zn267 1.996 . S
O272 C279 1.257 . S
C273 O268 1.254 . S
C273 O269 1.269 . S
C274 O275 1.249 . S
C274 O276 1.270 . S
O275 Zn267 1.943 . S
O275 C274 1.249 . S
O276 Zn266 2.067 . S
O276 C274 1.270 . S
C277 O270 1.262 . S
C277 O278 1.232 . S
O278 C277 1.232 . S
C279 O271 1.260 . S
C279 O272 1.257 . S
Zn280 O283 2.031 . S
Zn280 O285 2.049 . S
Zn280 O290 2.067 . S
Zn281 O282 1.962 . S
Zn281 O284 1.986 . S
Zn281 O286 1.996 . S
Zn281 O289 1.943 . S
O282 Zn281 1.962 . S
O282 C287 1.254 . S
O283 Zn280 2.031 . S
O283 C287 1.269 . S
O284 Zn281 1.986 . S
O284 C291 1.262 . S
O285 Zn280 2.049 . S
O285 C293 1.260 . S
O286 Zn281 1.996 . S
O286 C293 1.257 . S
C287 O282 1.254 . S
C287 O283 1.269 . S
C288 O289 1.249 . S
C288 O290 1.270 . S
O289 Zn281 1.943 . S
O289 C288 1.249 . S
O290 Zn280 2.067 . S
O290 C288 1.270 . S
C291 O284 1.262 . S
C291 O292 1.232 . S
O292 C291 1.232 . S
C293 O285 1.260 . S
C293 O286 1.257 . S
Zn294 O297 2.031 . S
Zn294 O299 2.049 . S
Zn294 O304 2.067 . S
Zn295 O296 1.962 . S
Zn295 O298 1.986 . S
Zn295 O300 1.996 . S
Zn295 O303 1.943 . S
O296 Zn295 1.962 . S
O296 C301 1.254 . S
O297 Zn294 2.031 . S
O297 C301 1.269 . S
O298 Zn295 1.986 . S
O298 C305 1.262 1_554 S
O299 Zn294 2.049 . S
O299 C307 1.260 . S
O300 Zn295 1.996 . S
O300 C307 1.257 . S
C301 O296 1.254 . S
C301 O297 1.269 . S
C302 O303 1.249 . S
C302 O304 1.270 . S
O303 Zn295 1.943 . S
O303 C302 1.249 . S
O304 Zn294 2.067 . S
O304 C302 1.270 . S
C305 O298 1.262 1_556 S
C305 O306 1.232 . S
O306 C305 1.232 . S
C307 O299 1.260 . S
C307 O300 1.257 . S
Zn308 O311 2.031 . S
Zn308 O313 2.049 . S
Zn308 O318 2.067 . S
Zn309 O310 1.962 . S
Zn309 O312 1.986 . S
Zn309 O314 1.996 . S
Zn309 O317 1.943 . S
O310 Zn309 1.962 . S
O310 C315 1.254 . S
O311 Zn308 2.031 . S
O311 C315 1.269 . S
O312 Zn309 1.986 . S
O312 C319 1.262 1_554 S
O313 Zn308 2.049 . S
O313 C321 1.260 . S
O314 Zn309 1.996 . S
O314 C321 1.257 . S
C315 O310 1.254 . S
C315 O311 1.269 . S
C316 O317 1.249 . S
C316 O318 1.270 . S
O317 Zn309 1.943 . S
O317 C316 1.249 . S
O318 Zn308 2.067 . S
O318 C316 1.270 . S
C319 O312 1.262 1_556 S
C319 O320 1.232 . S
O320 C319 1.232 . S
C321 O313 1.260 . S
C321 O314 1.257 . S
Zn322 O325 2.031 . S
Zn322 O327 2.049 . S
Zn322 O332 2.067 . S
Zn323 O324 1.962 . S
Zn323 O326 1.986 . S
Zn323 O328 1.996 . S
Zn323 O331 1.943 . S
O324 Zn323 1.962 . S
O324 C329 1.254 . S
O325 Zn322 2.031 . S
O325 C329 1.269 . S
O326 Zn323 1.986 . S
O326 C333 1.262 1_554 S
O327 Zn322 2.049 . S
O327 C335 1.260 . S
O328 Zn323 1.996 . S
O328 C335 1.257 . S
C329 O324 1.254 . S
C329 O325 1.269 . S
C330 O331 1.249 . S
C330 O332 1.270 . S
O331 Zn323 1.943 . S
O331 C330 1.249 . S
O332 Zn322 2.067 . S
O332 C330 1.270 . S
C333 O326 1.262 1_556 S
C333 O334 1.232 . S
O334 C333 1.232 . S
C335 O327 1.260 . S
C335 O328 1.257 . S
Zn336 O339 2.031 . S
Zn336 O341 2.049 . S
Zn336 O346 2.067 . S
Zn337 O338 1.962 . S
Zn337 O340 1.986 . S
Zn337 O342 1.996 . S
Zn337 O345 1.943 . S
O338 Zn337 1.962 . S
O338 C343 1.254 . S
O339 Zn336 2.031 . S
O339 C343 1.269 . S
O340 Zn337 1.986 . S
O340 C347 1.262 . S
O341 Zn336 2.049 . S
O341 C349 1.260 . S
O342 Zn337 1.996 . S
O342 C349 1.257 . S
C343 O338 1.254 . S
C343 O339 1.269 . S
C344 O345 1.249 . S
C344 O346 1.270 . S
O345 Zn337 1.943 . S
O345 C344 1.249 . S
O346 Zn336 2.067 . S
O346 C344 1.270 . S
C347 O340 1.262 . S
C347 O348 1.232 . S
O348 C347 1.232 . S
C349 O341 1.260 . S
C349 O342 1.257 . S
Zn350 O353 2.031 . S
Zn350 O355 2.049 . S
Zn350 O360 2.067 . S
Zn351 O352 1.962 . S
Zn351 O354 1.986 . S
Zn351 O356 1.996 . S
Zn351 O359 1.943 . S
O352 Zn351 1.962 . S
O352 C357 1.254 . S
O353 Zn350 2.031 . S
O353 C357 1.269 . S
O354 Zn351 1.986 . S
O354 C361 1.262 . S
O355 Zn350 2.049 . S
O355 C363 1.260 . S
O356 Zn351 1.996 . S
O356 C363 1.257 . S
C357 O352 1.254 . S
C357 O353 1.269 . S
C358 O359 1.249 . S
C358 O360 1.270 . S
O359 Zn351 1.943 . S
O359 C358 1.249 . S
O360 Zn350 2.067 . S
O360 C358 1.270 . S
C361 O354 1.262 . S
C361 O362 1.232 . S
O362 C361 1.232 . S
C363 O355 1.260 . S
C363 O356 1.257 . S
Zn364 O367 2.031 . S
Zn364 O369 2.049 . S
Zn364 O374 2.067 . S
Zn365 O366 1.962 . S
Zn365 O368 1.986 . S
Zn365 O370 1.996 . S
Zn365 O373 1.943 . S
O366 Zn365 1.962 . S
O366 C371 1.254 . S
O367 Zn364 2.031 . S
O367 C371 1.269 . S
O368 Zn365 1.986 . S
O368 C375 1.262 . S
O369 Zn364 2.049 . S
O369 C377 1.260 . S
O370 Zn365 1.996 . S
O370 C377 1.257 . S
C371 O366 1.254 . S
C371 O367 1.269 . S
C372 O373 1.249 . S
C372 O374 1.270 . S
O373 Zn365 1.943 . S
O373 C372 1.249 . S
O374 Zn364 2.067 . S
O374 C372 1.270 . S
C375 O368 1.262 . S
C375 O376 1.232 . S
O376 C375 1.232 . S
C377 O369 1.260 . S
C377 O370 1.257 . S
Zn378 O381 2.031 . S
Zn378 O383 2.049 . S
Zn378 O388 2.067 . S
Zn379 O380 1.962 . S
Zn379 O382 1.986 . S
Zn379 O384 1.996 . S
Zn379 O387 1.943 . S
O380 Zn379 1.962 . S
O380 C385 1.254 . S
O381 Zn378 2.031 . S
O381 C385 1.269 . S
O382 Zn379 1.986 . S
O382 C389 1.262 1_556 S
O383 Zn378 2.049 . S
O383 C391 1.260 . S
O384 Zn379 1.996 . S
O384 C391 1.257 . S
C385 O380 1.254 . S
C385 O381 1.269 . S
C386 O387 1.249 . S
C386 O388 1.270 . S
O387 Zn379 1.943 . S
O387 C386 1.249 . S
O388 Zn378 2.067 . S
O388 C386 1.270 . S
C389 O382 1.262 1_554 S
C389 O390 1.232 . S
O390 C389 1.232 . S
C391 O383 1.260 . S
C391 O384 1.257 . S
Zn392 O395 2.031 . S
Zn392 O397 2.049 . S
Zn392 O402 2.067 . S
Zn393 O394 1.962 . S
Zn393 O396 1.986 . S
Zn393 O398 1.996 . S
Zn393 O401 1.943 . S
O394 Zn393 1.962 . S
O394 C399 1.254 . S
O395 Zn392 2.031 . S
O395 C399 1.269 . S
O396 Zn393 1.986 . S
O396 C403 1.262 1_556 S
O397 Zn392 2.049 . S
O397 C405 1.260 . S
O398 Zn393 1.996 . S
O398 C405 1.257 . S
C399 O394 1.254 . S
C399 O395 1.269 . S
C400 O401 1.249 . S
C400 O402 1.270 . S
O401 Zn393 1.943 . S
O401 C400 1.249 . S
O402 Zn392 2.067 . S
O402 C400 1.270 . S
C403 O396 1.262 1_554 S
C403 O404 1.232 . S
O404 C403 1.232 . S
C405 O397 1.260 . S
C405 O398 1.257 . S
Zn406 O409 2.031 . S
Zn406 O411 2.049 . S
Zn406 O416 2.067 . S
Zn407 O408 1.962 . S
Zn407 O410 1.986 . S
Zn407 O412 1.996 . S
Zn407 O415 1.943 . S
O408 Zn407 1.962 . S
O408 C413 1.254 . S
O409 Zn406 2.031 . S
O409 C413 1.269 . S
O410 Zn407 1.986 . S
O410 C417 1.262 1_556 S
O411 Zn406 2.049 . S
O411 C419 1.260 . S
O412 Zn407 1.996 . S
O412 C419 1.257 . S
C413 O408 1.254 . S
C413 O409 1.269 . S
C414 O415 1.249 . S
C414 O416 1.270 . S
O415 Zn407 1.943 . S
O415 C414 1.249 . S
O416 Zn406 2.067 . S
O416 C414 1.270 . S
C417 O410 1.262 1_554 S
C417 O418 1.232 . S
O418 C417 1.232 . S
C419 O411 1.260 . S
C419 O412 1.257 . S
Zn420 O423 2.031 . S
Zn420 O425 2.049 . S
Zn420 O430 2.067 . S
Zn421 O422 1.962 . S
Zn421 O424 1.986 . S
Zn421 O426 1.996 . S
Zn421 O429 1.943 . S
O422 Zn421 1.962 . S
O422 C427 1.254 . S
O423 Zn420 2.031 . S
O423 C427 1.269 . S
O424 Zn421 1.986 . S
O424 C431 1.262 . S
O425 Zn420 2.049 . S
O425 C433 1.260 . S
O426 Zn421 1.996 . S
O426 C433 1.257 . S
C427 O422 1.254 . S
C427 O423 1.269 . S
C428 O429 1.249 . S
C428 O430 1.270 . S
O429 Zn421 1.943 . S
O429 C428 1.249 . S
O430 Zn420 2.067 . S
O430 C428 1.270 . S
C431 O424 1.262 . S
C431 O432 1.232 . S
O432 C431 1.232 . S
C433 O425 1.260 . S
C433 O426 1.257 . S
Zn434 O437 2.031 . S
Zn434 O439 2.049 . S
Zn434 O444 2.067 . S
Zn435 O436 1.962 . S
Zn435 O438 1.986 . S
Zn435 O440 1.996 . S
Zn435 O443 1.943 . S
O436 Zn435 1.962 . S
O436 C441 1.254 . S
O437 Zn434 2.031 . S
O437 C441 1.269 . S
O438 Zn435 1.986 . S
O438 C445 1.262 . S
O439 Zn434 2.049 . S
O439 C447 1.260 . S
O440 Zn435 1.996 . S
O440 C447 1.257 . S
C441 O436 1.254 . S
C441 O437 1.269 . S
C442 O443 1.249 . S
C442 O444 1.270 . S
O443 Zn435 1.943 . S
O443 C442 1.249 . S
O444 Zn434 2.067 . S
O444 C442 1.270 . S
C445 O438 1.262 . S
C445 O446 1.232 . S
O446 C445 1.232 . S
C447 O439 1.260 . S
C447 O440 1.257 . S
Zn448 O451 2.031 . S
Zn448 O453 2.049 . S
Zn448 O458 2.067 . S
Zn449 O450 1.962 . S
Zn449 O452 1.986 . S
Zn449 O454 1.996 . S
Zn449 O457 1.943 . S
O450 Zn449 1.962 . S
O450 C455 1.254 . S
O451 Zn448 2.031 . S
O451 C455 1.269 . S
O452 Zn449 1.986 . S
O452 C459 1.262 . S
O453 Zn448 2.049 . S
O453 C461 1.260 . S
O454 Zn449 1.996 . S
O454 C461 1.257 . S
C455 O450 1.254 . S
C455 O451 1.269 . S
C456 O457 1.249 . S
C456 O458 1.270 . S
O457 Zn449 1.943 . S
O457 C456 1.249 . S
O458 Zn448 2.067 . S
O458 C456 1.270 . S
C459 O452 1.262 . S
C459 O460 1.232 . S
O460 C459 1.232 . S
C461 O453 1.260 . S
C461 O454 1.257 . S
Zn462 O465 2.031 . S
Zn462 O467 2.049 . S
Zn462 O472 2.067 . S
Zn463 O464 1.962 . S
Zn463 O466 1.986 . S
Zn463 O468 1.996 . S
Zn463 O471 1.943 . S
O464 Zn463 1.962 . S
O464 C469 1.254 . S
O465 Zn462 2.031 . S
O465 C469 1.269 . S
O466 Zn463 1.986 . S
O466 C473 1.262 . S
O467 Zn462 2.049 . S
O467 C475 1.260 . S
O468 Zn463 1.996 . S
O468 C475 1.257 . S
C469 O464 1.254 . S
C469 O465 1.269 . S
C470 O471 1.249 . S
C470 O472 1.270 . S
O471 Zn463 1.943 . S
O471 C470 1.249 . S
O472 Zn462 2.067 . S
O472 C470 1.270 . S
C473 O466 1.262 . S
C473 O474 1.232 . S
O474 C473 1.232 . S
C475 O467 1.260 . S
C475 O468 1.257 . S
Zn476 O479 2.031 . S
Zn476 O481 2.049 . S
Zn476 O486 2.067 . S
Zn477 O478 1.962 . S
Zn477 O480 1.986 . S
Zn477 O482 1.996 . S
Zn477 O485 1.943 . S
O478 Zn477 1.962 . S
O478 C483 1.254 . S
O479 Zn476 2.031 . S
O479 C483 1.269 . S
O480 Zn477 1.986 . S
O480 C487 1.262 . S
O481 Zn476 2.049 . S
O481 C489 1.260 . S
O482 Zn477 1.996 . S
O482 C489 1.257 . S
C483 O478 1.254 . S
C483 O479 1.269 . S
C484 O485 1.249 . S
C484 O486 1.270 . S
O485 Zn477 1.943 . S
O485 C484 1.249 . S
O486 Zn476 2.067 . S
O486 C484 1.270 . S
C487 O480 1.262 . S
C487 O488 1.232 . S
O488 C487 1.232 . S
C489 O481 1.260 . S
C489 O482 1.257 . S
Zn490 O493 2.031 . S
Zn490 O495 2.049 . S
Zn490 O500 2.067 . S
Zn491 O492 1.962 . S
Zn491 O494 1.986 . S
Zn491 O496 1.996 . S
Zn491 O499 1.943 . S
O492 Zn491 1.962 . S
O492 C497 1.254 . S
O493 Zn490 2.031 . S
O493 C497 1.269 . S
O494 Zn491 1.986 . S
O494 C501 1.262 . S
O495 Zn490 2.049 . S
O495 C503 1.260 . S
O496 Zn491 1.996 . S
O496 C503 1.257 . S
C497 O492 1.254 . S
C497 O493 1.269 . S
C498 O499 1.249 . S
C498 O500 1.270 . S
O499 Zn491 1.943 . S
O499 C498 1.249 . S
O500 Zn490 2.067 . S
O500 C498 1.270 . S
C501 O494 1.262 . S
C501 O502 1.232 . S
O502 C501 1.232 . S
C503 O495 1.260 . S
C503 O496 1.257 . S
C8 C21 1.521 . S
C22 C35 1.522 . S
C7 C36 1.522 . S
C50 C77 1.520 . S
C64 C49 1.522 . S
C63 C78 1.523 . S
C92 C105 1.521 . S
C119 C106 1.522 . S
C91 C120 1.522 . S
C161 C134 1.520 . S
C148 C133 1.522 . S
C162 C147 1.523 . S
C189 C176 1.521 . S
C190 C203 1.522 . S
C204 C175 1.523 . S
C218 C245 1.520 . S
C232 C217 1.522 . S
C246 C231 1.522 . S
C273 C260 1.520 . S
C274 C287 1.522 . S
C259 C288 1.522 . S
C329 C302 1.521 . S
C316 C301 1.523 . S
C315 C330 1.522 . S
C357 C344 1.520 . S
C358 C371 1.522 . S
C372 C343 1.522 . S
C413 C386 1.521 . S
C400 C385 1.523 . S
C399 C414 1.522 . S
C428 C441 1.521 . S
C442 C455 1.522 . S
C456 C427 1.523 . S
C497 C470 1.520 . S
C469 C484 1.522 . S
C498 C483 1.522 . S
C55 C13 1.159 . S
C27 C69 1.160 1_565 S
C83 C41 1.160 1_655 S
C139 C97 1.159 . S
C111 C153 1.160 1_545 S
C167 C125 1.160 1_455 S
C181 C223 1.159 . S
C195 C237 1.160 . S
C209 C251 1.160 . S
C307 C265 1.159 . S
C321 C279 1.160 . S
C293 C335 1.160 . S
C391 C349 1.159 . S
C405 C363 1.160 . S
C377 C419 1.160 . S
C433 C475 1.159 . S
C489 C447 1.160 . S
C461 C503 1.160 . S
C11 C263 2.705 . S
C25 C277 2.706 . S
C39 C291 2.709 . S
C473 C53 2.705 . S
C487 C67 2.710 . S
C81 C501 2.707 . S
C95 C347 2.705 . S
C361 C109 2.706 . S
C375 C123 2.709 . S
C221 C137 2.705 . S
C235 C151 2.710 . S
C249 C165 2.707 . S
C431 C179 2.705 1_455 S
C193 C445 2.706 . S
C207 C459 2.710 1_545 S
C305 C389 2.706 1_546 S
C319 C403 2.709 1_656 S
C417 C333 2.707 1_554 S
