# Generated by pormake.
# Topology kfi, (4)-cn, num edge types: 1
# Building blocks:
#     Node 0, Type 0, BuildingBlock: QUQFOY_clean_sbu_3, # of connection points: 4
#     Node 1, Type 0, BuildingBlock: QUQFOY_clean_sbu_3, # of connection points: 4
#     Node 2, Type 0, BuildingBlock: QUQFOY_clean_sbu_3, # of connection points: 4
#     Node 3, Type 0, BuildingBlock: QUQFOY_clean_sbu_3, # of connection points: 4
#     Node 4, Type 0, BuildingBlock: QUQFOY_clean_sbu_3, # of connection points: 4
#     Node 5, Type 0, BuildingBlock: QUQFOY_clean_sbu_3, # of connection points: 4
#     Node 6, Type 0, BuildingBlock: QUQFOY_clean_sbu_3, # of connection points: 4
#     Node 7, Type 0, BuildingBlock: QUQFOY_clean_sbu_3, # of connection points: 4
#     Node 8, Type 0, BuildingBlock: QUQFOY_clean_sbu_3, # of connection points: 4
#     Node 9, Type 0, BuildingBlock: QUQFOY_clean_sbu_3, # of connection points: 4
#     Node 10, Type 0, BuildingBlock: QUQFOY_clean_sbu_3, # of connection points: 4
#     Node 11, Type 0, BuildingBlock: QUQFOY_clean_sbu_3, # of connection points: 4
#     Node 12, Type 0, BuildingBlock: QUQFOY_clean_sbu_3, # of connection points: 4
#     Node 13, Type 0, BuildingBlock: QUQFOY_clean_sbu_3, # of connection points: 4
#     Node 14, Type 0, BuildingBlock: QUQFOY_clean_sbu_3, # of connection points: 4
#     Node 15, Type 0, BuildingBlock: QUQFOY_clean_sbu_3, # of connection points: 4
#     Node 16, Type 0, BuildingBlock: QUQFOY_clean_sbu_3, # of connection points: 4
#     Node 17, Type 0, BuildingBlock: QUQFOY_clean_sbu_3, # of connection points: 4
#     Node 18, Type 0, BuildingBlock: QUQFOY_clean_sbu_3, # of connection points: 4
#     Node 19, Type 0, BuildingBlock: QUQFOY_clean_sbu_3, # of connection points: 4
#     Node 20, Type 0, BuildingBlock: QUQFOY_clean_sbu_3, # of connection points: 4
#     Node 21, Type 0, BuildingBlock: QUQFOY_clean_sbu_3, # of connection points: 4
#     Node 22, Type 0, BuildingBlock: QUQFOY_clean_sbu_3, # of connection points: 4
#     Node 23, Type 0, BuildingBlock: QUQFOY_clean_sbu_3, # of connection points: 4
#     Node 24, Type 0, BuildingBlock: QUQFOY_clean_sbu_3, # of connection points: 4
#     Node 25, Type 0, BuildingBlock: QUQFOY_clean_sbu_3, # of connection points: 4
#     Node 26, Type 0, BuildingBlock: QUQFOY_clean_sbu_3, # of connection points: 4
#     Node 27, Type 0, BuildingBlock: QUQFOY_clean_sbu_3, # of connection points: 4
#     Node 28, Type 0, BuildingBlock: QUQFOY_clean_sbu_3, # of connection points: 4
#     Node 29, Type 0, BuildingBlock: QUQFOY_clean_sbu_3, # of connection points: 4
#     Node 30, Type 0, BuildingBlock: QUQFOY_clean_sbu_3, # of connection points: 4
#     Node 31, Type 0, BuildingBlock: QUQFOY_clean_sbu_3, # of connection points: 4
#     Node 32, Type 0, BuildingBlock: QUQFOY_clean_sbu_3, # of connection points: 4
#     Node 33, Type 0, BuildingBlock: QUQFOY_clean_sbu_3, # of connection points: 4
#     Node 34, Type 0, BuildingBlock: QUQFOY_clean_sbu_3, # of connection points: 4
#     Node 35, Type 0, BuildingBlock: QUQFOY_clean_sbu_3, # of connection points: 4
#     Node 36, Type 0, BuildingBlock: QUQFOY_clean_sbu_3, # of connection points: 4
#     Node 37, Type 0, BuildingBlock: QUQFOY_clean_sbu_3, # of connection points: 4
#     Node 38, Type 0, BuildingBlock: QUQFOY_clean_sbu_3, # of connection points: 4
#     Node 39, Type 0, BuildingBlock: QUQFOY_clean_sbu_3, # of connection points: 4
#     Node 40, Type 0, BuildingBlock: QUQFOY_clean_sbu_3, # of connection points: 4
#     Node 41, Type 0, BuildingBlock: QUQFOY_clean_sbu_3, # of connection points: 4
#     Node 42, Type 0, BuildingBlock: QUQFOY_clean_sbu_3, # of connection points: 4
#     Node 43, Type 0, BuildingBlock: QUQFOY_clean_sbu_3, # of connection points: 4
#     Node 44, Type 0, BuildingBlock: QUQFOY_clean_sbu_3, # of connection points: 4
#     Node 45, Type 0, BuildingBlock: QUQFOY_clean_sbu_3, # of connection points: 4
#     Node 46, Type 0, BuildingBlock: QUQFOY_clean_sbu_3, # of connection points: 4
#     Node 47, Type 0, BuildingBlock: QUQFOY_clean_sbu_3, # of connection points: 4
#     Node 48, Type 0, BuildingBlock: QUQFOY_clean_sbu_3, # of connection points: 4
#     Node 49, Type 0, BuildingBlock: QUQFOY_clean_sbu_3, # of connection points: 4
#     Node 50, Type 0, BuildingBlock: QUQFOY_clean_sbu_3, # of connection points: 4
#     Node 51, Type 0, BuildingBlock: QUQFOY_clean_sbu_3, # of connection points: 4
#     Node 52, Type 0, BuildingBlock: QUQFOY_clean_sbu_3, # of connection points: 4
#     Node 53, Type 0, BuildingBlock: QUQFOY_clean_sbu_3, # of connection points: 4
#     Node 54, Type 0, BuildingBlock: QUQFOY_clean_sbu_3, # of connection points: 4
#     Node 55, Type 0, BuildingBlock: QUQFOY_clean_sbu_3, # of connection points: 4
#     Node 56, Type 0, BuildingBlock: QUQFOY_clean_sbu_3, # of connection points: 4
#     Node 57, Type 0, BuildingBlock: QUQFOY_clean_sbu_3, # of connection points: 4
#     Node 58, Type 0, BuildingBlock: QUQFOY_clean_sbu_3, # of connection points: 4
#     Node 59, Type 0, BuildingBlock: QUQFOY_clean_sbu_3, # of connection points: 4
#     Node 60, Type 0, BuildingBlock: QUQFOY_clean_sbu_3, # of connection points: 4
#     Node 61, Type 0, BuildingBlock: QUQFOY_clean_sbu_3, # of connection points: 4
#     Node 62, Type 0, BuildingBlock: QUQFOY_clean_sbu_3, # of connection points: 4
#     Node 63, Type 0, BuildingBlock: QUQFOY_clean_sbu_3, # of connection points: 4
#     Node 64, Type 0, BuildingBlock: QUQFOY_clean_sbu_3, # of connection points: 4
#     Node 65, Type 0, BuildingBlock: QUQFOY_clean_sbu_3, # of connection points: 4
#     Node 66, Type 0, BuildingBlock: QUQFOY_clean_sbu_3, # of connection points: 4
#     Node 67, Type 0, BuildingBlock: QUQFOY_clean_sbu_3, # of connection points: 4
#     Node 68, Type 0, BuildingBlock: QUQFOY_clean_sbu_3, # of connection points: 4
#     Node 69, Type 0, BuildingBlock: QUQFOY_clean_sbu_3, # of connection points: 4
#     Node 70, Type 0, BuildingBlock: QUQFOY_clean_sbu_3, # of connection points: 4
#     Node 71, Type 0, BuildingBlock: QUQFOY_clean_sbu_3, # of connection points: 4
#     Node 72, Type 0, BuildingBlock: QUQFOY_clean_sbu_3, # of connection points: 4
#     Node 73, Type 0, BuildingBlock: QUQFOY_clean_sbu_3, # of connection points: 4
#     Node 74, Type 0, BuildingBlock: QUQFOY_clean_sbu_3, # of connection points: 4
#     Node 75, Type 0, BuildingBlock: QUQFOY_clean_sbu_3, # of connection points: 4
#     Node 76, Type 0, BuildingBlock: QUQFOY_clean_sbu_3, # of connection points: 4
#     Node 77, Type 0, BuildingBlock: QUQFOY_clean_sbu_3, # of connection points: 4
#     Node 78, Type 0, BuildingBlock: QUQFOY_clean_sbu_3, # of connection points: 4
#     Node 79, Type 0, BuildingBlock: QUQFOY_clean_sbu_3, # of connection points: 4
#     Node 80, Type 0, BuildingBlock: QUQFOY_clean_sbu_3, # of connection points: 4
#     Node 81, Type 0, BuildingBlock: QUQFOY_clean_sbu_3, # of connection points: 4
#     Node 82, Type 0, BuildingBlock: QUQFOY_clean_sbu_3, # of connection points: 4
#     Node 83, Type 0, BuildingBlock: QUQFOY_clean_sbu_3, # of connection points: 4
#     Node 84, Type 0, BuildingBlock: QUQFOY_clean_sbu_3, # of connection points: 4
#     Node 85, Type 0, BuildingBlock: QUQFOY_clean_sbu_3, # of connection points: 4
#     Node 86, Type 0, BuildingBlock: QUQFOY_clean_sbu_3, # of connection points: 4
#     Node 87, Type 0, BuildingBlock: QUQFOY_clean_sbu_3, # of connection points: 4
#     Node 88, Type 0, BuildingBlock: QUQFOY_clean_sbu_3, # of connection points: 4
#     Node 89, Type 0, BuildingBlock: QUQFOY_clean_sbu_3, # of connection points: 4
#     Node 90, Type 0, BuildingBlock: QUQFOY_clean_sbu_3, # of connection points: 4
#     Node 91, Type 0, BuildingBlock: QUQFOY_clean_sbu_3, # of connection points: 4
#     Node 92, Type 0, BuildingBlock: QUQFOY_clean_sbu_3, # of connection points: 4
#     Node 93, Type 0, BuildingBlock: QUQFOY_clean_sbu_3, # of connection points: 4
#     Node 94, Type 0, BuildingBlock: QUQFOY_clean_sbu_3, # of connection points: 4
#     Node 95, Type 0, BuildingBlock: QUQFOY_clean_sbu_3, # of connection points: 4
#     Edge 96, Type (0, 0), BuildingBlock: TEMPAE_clean_linker_10, # of connection points: 2
#     Edge 97, Type (0, 0), BuildingBlock: TEMPAE_clean_linker_10, # of connection points: 2
#     Edge 98, Type (0, 0), BuildingBlock: TEMPAE_clean_linker_10, # of connection points: 2
#     Edge 99, Type (0, 0), BuildingBlock: TEMPAE_clean_linker_10, # of connection points: 2
#     Edge 100, Type (0, 0), BuildingBlock: TEMPAE_clean_linker_10, # of connection points: 2
#     Edge 101, Type (0, 0), BuildingBlock: TEMPAE_clean_linker_10, # of connection points: 2
#     Edge 102, Type (0, 0), BuildingBlock: TEMPAE_clean_linker_10, # of connection points: 2
#     Edge 103, Type (0, 0), BuildingBlock: TEMPAE_clean_linker_10, # of connection points: 2
#     Edge 104, Type (0, 0), BuildingBlock: TEMPAE_clean_linker_10, # of connection points: 2
#     Edge 105, Type (0, 0), BuildingBlock: TEMPAE_clean_linker_10, # of connection points: 2
#     Edge 106, Type (0, 0), BuildingBlock: TEMPAE_clean_linker_10, # of connection points: 2
#     Edge 107, Type (0, 0), BuildingBlock: TEMPAE_clean_linker_10, # of connection points: 2
#     Edge 108, Type (0, 0), BuildingBlock: TEMPAE_clean_linker_10, # of connection points: 2
#     Edge 109, Type (0, 0), BuildingBlock: TEMPAE_clean_linker_10, # of connection points: 2
#     Edge 110, Type (0, 0), BuildingBlock: TEMPAE_clean_linker_10, # of connection points: 2
#     Edge 111, Type (0, 0), BuildingBlock: TEMPAE_clean_linker_10, # of connection points: 2
#     Edge 112, Type (0, 0), BuildingBlock: TEMPAE_clean_linker_10, # of connection points: 2
#     Edge 113, Type (0, 0), BuildingBlock: TEMPAE_clean_linker_10, # of connection points: 2
#     Edge 114, Type (0, 0), BuildingBlock: TEMPAE_clean_linker_10, # of connection points: 2
#     Edge 115, Type (0, 0), BuildingBlock: TEMPAE_clean_linker_10, # of connection points: 2
#     Edge 116, Type (0, 0), BuildingBlock: TEMPAE_clean_linker_10, # of connection points: 2
#     Edge 117, Type (0, 0), BuildingBlock: TEMPAE_clean_linker_10, # of connection points: 2
#     Edge 118, Type (0, 0), BuildingBlock: TEMPAE_clean_linker_10, # of connection points: 2
#     Edge 119, Type (0, 0), BuildingBlock: TEMPAE_clean_linker_10, # of connection points: 2
#     Edge 120, Type (0, 0), BuildingBlock: TEMPAE_clean_linker_10, # of connection points: 2
#     Edge 121, Type (0, 0), BuildingBlock: TEMPAE_clean_linker_10, # of connection points: 2
#     Edge 122, Type (0, 0), BuildingBlock: TEMPAE_clean_linker_10, # of connection points: 2
#     Edge 123, Type (0, 0), BuildingBlock: TEMPAE_clean_linker_10, # of connection points: 2
#     Edge 124, Type (0, 0), BuildingBlock: TEMPAE_clean_linker_10, # of connection points: 2
#     Edge 125, Type (0, 0), BuildingBlock: TEMPAE_clean_linker_10, # of connection points: 2
#     Edge 126, Type (0, 0), BuildingBlock: TEMPAE_clean_linker_10, # of connection points: 2
#     Edge 127, Type (0, 0), BuildingBlock: TEMPAE_clean_linker_10, # of connection points: 2
#     Edge 128, Type (0, 0), BuildingBlock: TEMPAE_clean_linker_10, # of connection points: 2
#     Edge 129, Type (0, 0), BuildingBlock: TEMPAE_clean_linker_10, # of connection points: 2
#     Edge 130, Type (0, 0), BuildingBlock: TEMPAE_clean_linker_10, # of connection points: 2
#     Edge 131, Type (0, 0), BuildingBlock: TEMPAE_clean_linker_10, # of connection points: 2
#     Edge 132, Type (0, 0), BuildingBlock: TEMPAE_clean_linker_10, # of connection points: 2
#     Edge 133, Type (0, 0), BuildingBlock: TEMPAE_clean_linker_10, # of connection points: 2
#     Edge 134, Type (0, 0), BuildingBlock: TEMPAE_clean_linker_10, # of connection points: 2
#     Edge 135, Type (0, 0), BuildingBlock: TEMPAE_clean_linker_10, # of connection points: 2
#     Edge 136, Type (0, 0), BuildingBlock: TEMPAE_clean_linker_10, # of connection points: 2
#     Edge 137, Type (0, 0), BuildingBlock: TEMPAE_clean_linker_10, # of connection points: 2
#     Edge 138, Type (0, 0), BuildingBlock: TEMPAE_clean_linker_10, # of connection points: 2
#     Edge 139, Type (0, 0), BuildingBlock: TEMPAE_clean_linker_10, # of connection points: 2
#     Edge 140, Type (0, 0), BuildingBlock: TEMPAE_clean_linker_10, # of connection points: 2
#     Edge 141, Type (0, 0), BuildingBlock: TEMPAE_clean_linker_10, # of connection points: 2
#     Edge 142, Type (0, 0), BuildingBlock: TEMPAE_clean_linker_10, # of connection points: 2
#     Edge 143, Type (0, 0), BuildingBlock: TEMPAE_clean_linker_10, # of connection points: 2
#     Edge 144, Type (0, 0), BuildingBlock: TEMPAE_clean_linker_10, # of connection points: 2
#     Edge 145, Type (0, 0), BuildingBlock: TEMPAE_clean_linker_10, # of connection points: 2
#     Edge 146, Type (0, 0), BuildingBlock: TEMPAE_clean_linker_10, # of connection points: 2
#     Edge 147, Type (0, 0), BuildingBlock: TEMPAE_clean_linker_10, # of connection points: 2
#     Edge 148, Type (0, 0), BuildingBlock: TEMPAE_clean_linker_10, # of connection points: 2
#     Edge 149, Type (0, 0), BuildingBlock: TEMPAE_clean_linker_10, # of connection points: 2
#     Edge 150, Type (0, 0), BuildingBlock: TEMPAE_clean_linker_10, # of connection points: 2
#     Edge 151, Type (0, 0), BuildingBlock: TEMPAE_clean_linker_10, # of connection points: 2
#     Edge 152, Type (0, 0), BuildingBlock: TEMPAE_clean_linker_10, # of connection points: 2
#     Edge 153, Type (0, 0), BuildingBlock: TEMPAE_clean_linker_10, # of connection points: 2
#     Edge 154, Type (0, 0), BuildingBlock: TEMPAE_clean_linker_10, # of connection points: 2
#     Edge 155, Type (0, 0), BuildingBlock: TEMPAE_clean_linker_10, # of connection points: 2
#     Edge 156, Type (0, 0), BuildingBlock: TEMPAE_clean_linker_10, # of connection points: 2
#     Edge 157, Type (0, 0), BuildingBlock: TEMPAE_clean_linker_10, # of connection points: 2
#     Edge 158, Type (0, 0), BuildingBlock: TEMPAE_clean_linker_10, # of connection points: 2
#     Edge 159, Type (0, 0), BuildingBlock: TEMPAE_clean_linker_10, # of connection points: 2
#     Edge 160, Type (0, 0), BuildingBlock: TEMPAE_clean_linker_10, # of connection points: 2
#     Edge 161, Type (0, 0), BuildingBlock: TEMPAE_clean_linker_10, # of connection points: 2
#     Edge 162, Type (0, 0), BuildingBlock: TEMPAE_clean_linker_10, # of connection points: 2
#     Edge 163, Type (0, 0), BuildingBlock: TEMPAE_clean_linker_10, # of connection points: 2
#     Edge 164, Type (0, 0), BuildingBlock: TEMPAE_clean_linker_10, # of connection points: 2
#     Edge 165, Type (0, 0), BuildingBlock: TEMPAE_clean_linker_10, # of connection points: 2
#     Edge 166, Type (0, 0), BuildingBlock: TEMPAE_clean_linker_10, # of connection points: 2
#     Edge 167, Type (0, 0), BuildingBlock: TEMPAE_clean_linker_10, # of connection points: 2
#     Edge 168, Type (0, 0), BuildingBlock: TEMPAE_clean_linker_10, # of connection points: 2
#     Edge 169, Type (0, 0), BuildingBlock: TEMPAE_clean_linker_10, # of connection points: 2
#     Edge 170, Type (0, 0), BuildingBlock: TEMPAE_clean_linker_10, # of connection points: 2
#     Edge 171, Type (0, 0), BuildingBlock: TEMPAE_clean_linker_10, # of connection points: 2
#     Edge 172, Type (0, 0), BuildingBlock: TEMPAE_clean_linker_10, # of connection points: 2
#     Edge 173, Type (0, 0), BuildingBlock: TEMPAE_clean_linker_10, # of connection points: 2
#     Edge 174, Type (0, 0), BuildingBlock: TEMPAE_clean_linker_10, # of connection points: 2
#     Edge 175, Type (0, 0), BuildingBlock: TEMPAE_clean_linker_10, # of connection points: 2
#     Edge 176, Type (0, 0), BuildingBlock: TEMPAE_clean_linker_10, # of connection points: 2
#     Edge 177, Type (0, 0), BuildingBlock: TEMPAE_clean_linker_10, # of connection points: 2
#     Edge 178, Type (0, 0), BuildingBlock: TEMPAE_clean_linker_10, # of connection points: 2
#     Edge 179, Type (0, 0), BuildingBlock: TEMPAE_clean_linker_10, # of connection points: 2
#     Edge 180, Type (0, 0), BuildingBlock: TEMPAE_clean_linker_10, # of connection points: 2
#     Edge 181, Type (0, 0), BuildingBlock: TEMPAE_clean_linker_10, # of connection points: 2
#     Edge 182, Type (0, 0), BuildingBlock: TEMPAE_clean_linker_10, # of connection points: 2
#     Edge 183, Type (0, 0), BuildingBlock: TEMPAE_clean_linker_10, # of connection points: 2
#     Edge 184, Type (0, 0), BuildingBlock: TEMPAE_clean_linker_10, # of connection points: 2
#     Edge 185, Type (0, 0), BuildingBlock: TEMPAE_clean_linker_10, # of connection points: 2
#     Edge 186, Type (0, 0), BuildingBlock: TEMPAE_clean_linker_10, # of connection points: 2
#     Edge 187, Type (0, 0), BuildingBlock: TEMPAE_clean_linker_10, # of connection points: 2
#     Edge 188, Type (0, 0), BuildingBlock: TEMPAE_clean_linker_10, # of connection points: 2
#     Edge 189, Type (0, 0), BuildingBlock: TEMPAE_clean_linker_10, # of connection points: 2
#     Edge 190, Type (0, 0), BuildingBlock: TEMPAE_clean_linker_10, # of connection points: 2
#     Edge 191, Type (0, 0), BuildingBlock: TEMPAE_clean_linker_10, # of connection points: 2
#     Edge 192, Type (0, 0), BuildingBlock: TEMPAE_clean_linker_10, # of connection points: 2
#     Edge 193, Type (0, 0), BuildingBlock: TEMPAE_clean_linker_10, # of connection points: 2
#     Edge 194, Type (0, 0), BuildingBlock: TEMPAE_clean_linker_10, # of connection points: 2
#     Edge 195, Type (0, 0), BuildingBlock: TEMPAE_clean_linker_10, # of connection points: 2
#     Edge 196, Type (0, 0), BuildingBlock: TEMPAE_clean_linker_10, # of connection points: 2
#     Edge 197, Type (0, 0), BuildingBlock: TEMPAE_clean_linker_10, # of connection points: 2
#     Edge 198, Type (0, 0), BuildingBlock: TEMPAE_clean_linker_10, # of connection points: 2
#     Edge 199, Type (0, 0), BuildingBlock: TEMPAE_clean_linker_10, # of connection points: 2
#     Edge 200, Type (0, 0), BuildingBlock: TEMPAE_clean_linker_10, # of connection points: 2
#     Edge 201, Type (0, 0), BuildingBlock: TEMPAE_clean_linker_10, # of connection points: 2
#     Edge 202, Type (0, 0), BuildingBlock: TEMPAE_clean_linker_10, # of connection points: 2
#     Edge 203, Type (0, 0), BuildingBlock: TEMPAE_clean_linker_10, # of connection points: 2
#     Edge 204, Type (0, 0), BuildingBlock: TEMPAE_clean_linker_10, # of connection points: 2
#     Edge 205, Type (0, 0), BuildingBlock: TEMPAE_clean_linker_10, # of connection points: 2
#     Edge 206, Type (0, 0), BuildingBlock: TEMPAE_clean_linker_10, # of connection points: 2
#     Edge 207, Type (0, 0), BuildingBlock: TEMPAE_clean_linker_10, # of connection points: 2
#     Edge 208, Type (0, 0), BuildingBlock: TEMPAE_clean_linker_10, # of connection points: 2
#     Edge 209, Type (0, 0), BuildingBlock: TEMPAE_clean_linker_10, # of connection points: 2
#     Edge 210, Type (0, 0), BuildingBlock: TEMPAE_clean_linker_10, # of connection points: 2
#     Edge 211, Type (0, 0), BuildingBlock: TEMPAE_clean_linker_10, # of connection points: 2
#     Edge 212, Type (0, 0), BuildingBlock: TEMPAE_clean_linker_10, # of connection points: 2
#     Edge 213, Type (0, 0), BuildingBlock: TEMPAE_clean_linker_10, # of connection points: 2
#     Edge 214, Type (0, 0), BuildingBlock: TEMPAE_clean_linker_10, # of connection points: 2
#     Edge 215, Type (0, 0), BuildingBlock: TEMPAE_clean_linker_10, # of connection points: 2
#     Edge 216, Type (0, 0), BuildingBlock: TEMPAE_clean_linker_10, # of connection points: 2
#     Edge 217, Type (0, 0), BuildingBlock: TEMPAE_clean_linker_10, # of connection points: 2
#     Edge 218, Type (0, 0), BuildingBlock: TEMPAE_clean_linker_10, # of connection points: 2
#     Edge 219, Type (0, 0), BuildingBlock: TEMPAE_clean_linker_10, # of connection points: 2
#     Edge 220, Type (0, 0), BuildingBlock: TEMPAE_clean_linker_10, # of connection points: 2
#     Edge 221, Type (0, 0), BuildingBlock: TEMPAE_clean_linker_10, # of connection points: 2
#     Edge 222, Type (0, 0), BuildingBlock: TEMPAE_clean_linker_10, # of connection points: 2
#     Edge 223, Type (0, 0), BuildingBlock: TEMPAE_clean_linker_10, # of connection points: 2
#     Edge 224, Type (0, 0), BuildingBlock: TEMPAE_clean_linker_10, # of connection points: 2
#     Edge 225, Type (0, 0), BuildingBlock: TEMPAE_clean_linker_10, # of connection points: 2
#     Edge 226, Type (0, 0), BuildingBlock: TEMPAE_clean_linker_10, # of connection points: 2
#     Edge 227, Type (0, 0), BuildingBlock: TEMPAE_clean_linker_10, # of connection points: 2
#     Edge 228, Type (0, 0), BuildingBlock: TEMPAE_clean_linker_10, # of connection points: 2
#     Edge 229, Type (0, 0), BuildingBlock: TEMPAE_clean_linker_10, # of connection points: 2
#     Edge 230, Type (0, 0), BuildingBlock: TEMPAE_clean_linker_10, # of connection points: 2
#     Edge 231, Type (0, 0), BuildingBlock: TEMPAE_clean_linker_10, # of connection points: 2
#     Edge 232, Type (0, 0), BuildingBlock: TEMPAE_clean_linker_10, # of connection points: 2
#     Edge 233, Type (0, 0), BuildingBlock: TEMPAE_clean_linker_10, # of connection points: 2
#     Edge 234, Type (0, 0), BuildingBlock: TEMPAE_clean_linker_10, # of connection points: 2
#     Edge 235, Type (0, 0), BuildingBlock: TEMPAE_clean_linker_10, # of connection points: 2
#     Edge 236, Type (0, 0), BuildingBlock: TEMPAE_clean_linker_10, # of connection points: 2
#     Edge 237, Type (0, 0), BuildingBlock: TEMPAE_clean_linker_10, # of connection points: 2
#     Edge 238, Type (0, 0), BuildingBlock: TEMPAE_clean_linker_10, # of connection points: 2
#     Edge 239, Type (0, 0), BuildingBlock: TEMPAE_clean_linker_10, # of connection points: 2
#     Edge 240, Type (0, 0), BuildingBlock: TEMPAE_clean_linker_10, # of connection points: 2
#     Edge 241, Type (0, 0), BuildingBlock: TEMPAE_clean_linker_10, # of connection points: 2
#     Edge 242, Type (0, 0), BuildingBlock: TEMPAE_clean_linker_10, # of connection points: 2
#     Edge 243, Type (0, 0), BuildingBlock: TEMPAE_clean_linker_10, # of connection points: 2
#     Edge 244, Type (0, 0), BuildingBlock: TEMPAE_clean_linker_10, # of connection points: 2
#     Edge 245, Type (0, 0), BuildingBlock: TEMPAE_clean_linker_10, # of connection points: 2
#     Edge 246, Type (0, 0), BuildingBlock: TEMPAE_clean_linker_10, # of connection points: 2
#     Edge 247, Type (0, 0), BuildingBlock: TEMPAE_clean_linker_10, # of connection points: 2
#     Edge 248, Type (0, 0), BuildingBlock: TEMPAE_clean_linker_10, # of connection points: 2
#     Edge 249, Type (0, 0), BuildingBlock: TEMPAE_clean_linker_10, # of connection points: 2
#     Edge 250, Type (0, 0), BuildingBlock: TEMPAE_clean_linker_10, # of connection points: 2
#     Edge 251, Type (0, 0), BuildingBlock: TEMPAE_clean_linker_10, # of connection points: 2
#     Edge 252, Type (0, 0), BuildingBlock: TEMPAE_clean_linker_10, # of connection points: 2
#     Edge 253, Type (0, 0), BuildingBlock: TEMPAE_clean_linker_10, # of connection points: 2
#     Edge 254, Type (0, 0), BuildingBlock: TEMPAE_clean_linker_10, # of connection points: 2
#     Edge 255, Type (0, 0), BuildingBlock: TEMPAE_clean_linker_10, # of connection points: 2
#     Edge 256, Type (0, 0), BuildingBlock: TEMPAE_clean_linker_10, # of connection points: 2
#     Edge 257, Type (0, 0), BuildingBlock: TEMPAE_clean_linker_10, # of connection points: 2
#     Edge 258, Type (0, 0), BuildingBlock: TEMPAE_clean_linker_10, # of connection points: 2
#     Edge 259, Type (0, 0), BuildingBlock: TEMPAE_clean_linker_10, # of connection points: 2
#     Edge 260, Type (0, 0), BuildingBlock: TEMPAE_clean_linker_10, # of connection points: 2
#     Edge 261, Type (0, 0), BuildingBlock: TEMPAE_clean_linker_10, # of connection points: 2
#     Edge 262, Type (0, 0), BuildingBlock: TEMPAE_clean_linker_10, # of connection points: 2
#     Edge 263, Type (0, 0), BuildingBlock: TEMPAE_clean_linker_10, # of connection points: 2
#     Edge 264, Type (0, 0), BuildingBlock: TEMPAE_clean_linker_10, # of connection points: 2
#     Edge 265, Type (0, 0), BuildingBlock: TEMPAE_clean_linker_10, # of connection points: 2
#     Edge 266, Type (0, 0), BuildingBlock: TEMPAE_clean_linker_10, # of connection points: 2
#     Edge 267, Type (0, 0), BuildingBlock: TEMPAE_clean_linker_10, # of connection points: 2
#     Edge 268, Type (0, 0), BuildingBlock: TEMPAE_clean_linker_10, # of connection points: 2
#     Edge 269, Type (0, 0), BuildingBlock: TEMPAE_clean_linker_10, # of connection points: 2
#     Edge 270, Type (0, 0), BuildingBlock: TEMPAE_clean_linker_10, # of connection points: 2
#     Edge 271, Type (0, 0), BuildingBlock: TEMPAE_clean_linker_10, # of connection points: 2
#     Edge 272, Type (0, 0), BuildingBlock: TEMPAE_clean_linker_10, # of connection points: 2
#     Edge 273, Type (0, 0), BuildingBlock: TEMPAE_clean_linker_10, # of connection points: 2
#     Edge 274, Type (0, 0), BuildingBlock: TEMPAE_clean_linker_10, # of connection points: 2
#     Edge 275, Type (0, 0), BuildingBlock: TEMPAE_clean_linker_10, # of connection points: 2
#     Edge 276, Type (0, 0), BuildingBlock: TEMPAE_clean_linker_10, # of connection points: 2
#     Edge 277, Type (0, 0), BuildingBlock: TEMPAE_clean_linker_10, # of connection points: 2
#     Edge 278, Type (0, 0), BuildingBlock: TEMPAE_clean_linker_10, # of connection points: 2
#     Edge 279, Type (0, 0), BuildingBlock: TEMPAE_clean_linker_10, # of connection points: 2
#     Edge 280, Type (0, 0), BuildingBlock: TEMPAE_clean_linker_10, # of connection points: 2
#     Edge 281, Type (0, 0), BuildingBlock: TEMPAE_clean_linker_10, # of connection points: 2
#     Edge 282, Type (0, 0), BuildingBlock: TEMPAE_clean_linker_10, # of connection points: 2
#     Edge 283, Type (0, 0), BuildingBlock: TEMPAE_clean_linker_10, # of connection points: 2
#     Edge 284, Type (0, 0), BuildingBlock: TEMPAE_clean_linker_10, # of connection points: 2
#     Edge 285, Type (0, 0), BuildingBlock: TEMPAE_clean_linker_10, # of connection points: 2
#     Edge 286, Type (0, 0), BuildingBlock: TEMPAE_clean_linker_10, # of connection points: 2
#     Edge 287, Type (0, 0), BuildingBlock: TEMPAE_clean_linker_10, # of connection points: 2
# Relax obj value: 0.152
# Max RMSD: 0.095
# Mean RMSD: 0.095
data_MOF--net-kfi--node1-QUQFOY_clean_sbu_3--edge1-TEMPAE_clean_linker_10
_symmetry_space_group_name_H-M    P1
_symmetry_Int_Tables_number       1
_symmetry_cell_setting            triclinic
loop_
_symmetry_equiv_pos_as_xyz
'x, y, z'
_cell_length_a     91.616664
_cell_length_b     91.611478
_cell_length_c     91.613485
_cell_angle_alpha  89.991729
_cell_angle_beta   90.002925
_cell_angle_gamma 89.997611
loop_
_atom_site_label
_atom_site_type_symbol
_atom_site_fract_x
_atom_site_fract_y
_atom_site_fract_z
_atom_type_partial_charge
C0 C 0.10832 0.17869 0.29781 0.0
O1 O 0.11348 0.19 0.29165 0.0
Cd2 Cd 0.10174 0.21319 0.28864 0.0
O3 O 0.09575 0.17883 0.30375 0.0
Cd4 Cd 0.07637 0.19709 0.30825 0.0
C5 C 0.09867 0.22165 0.32497 0.0
O6 O 0.07689 0.20783 0.28422 0.0
O7 O 0.06286 0.21873 0.29958 0.0
O8 O 0.05688 0.17957 0.30494 0.0
C9 C 0.06795 0.21805 0.28673 0.0
O10 O 0.10375 0.22463 0.31238 0.0
C11 C 0.05158 0.18104 0.31765 0.0
O12 O 0.08942 0.21141 0.32673 0.0
O13 O 0.05829 0.18951 0.32634 0.0
C14 C 0.82124 0.08866 0.32677 0.0
O15 O 0.82128 0.07511 0.32428 0.0
Cd16 Cd 0.79422 0.07383 0.32696 0.0
O17 O 0.80905 0.09425 0.32983 0.0
Cd18 Cd 0.79078 0.0725 0.32927 0.0
C19 C 0.77313 0.09348 0.34482 0.0
O20 O 0.78547 0.0701 0.30286 0.0
O21 O 0.7666 0.07154 0.31672 0.0
O22 O 0.80277 0.04858 0.32521 0.0
C23 C 0.77171 0.07008 0.30392 0.0
O24 O 0.7822 0.09746 0.33523 0.0
C25 C 0.80232 0.0445 0.33841 0.0
O26 O 0.77249 0.07998 0.34756 0.0
O27 O 0.79688 0.05338 0.34753 0.0
C28 C 0.88726 0.81423 0.29706 0.0
O29 O 0.88261 0.80354 0.28952 0.0
Cd30 Cd 0.89436 0.78046 0.2856 0.0
O31 O 0.89926 0.81346 0.30405 0.0
Cd32 Cd 0.91818 0.79483 0.30871 0.0
C33 C 0.89343 0.76993 0.32139 0.0
O34 O 0.91938 0.78678 0.28367 0.0
O35 O 0.93372 0.77534 0.29821 0.0
O36 O 0.93528 0.81497 0.31235 0.0
C37 C 0.92884 0.77689 0.28538 0.0
O38 O 0.88961 0.76747 0.30826 0.0
C39 C 0.94126 0.80919 0.32346 0.0
O40 O 0.90272 0.77982 0.32442 0.0
O41 O 0.93598 0.7972 0.32796 0.0
C42 C 0.17074 0.89516 0.31897 0.0
O43 O 0.17112 0.90745 0.31281 0.0
Cd44 Cd 0.19561 0.91271 0.32249 0.0
O45 O 0.18134 0.89211 0.32725 0.0
Cd46 Cd 0.19844 0.91493 0.32682 0.0
C47 C 0.21534 0.89365 0.34283 0.0
O48 O 0.20725 0.91904 0.30103 0.0
O49 O 0.2241 0.91786 0.31723 0.0
O50 O 0.18152 0.93543 0.32214 0.0
C51 C 0.22067 0.91989 0.30397 0.0
O52 O 0.20911 0.89012 0.33102 0.0
C53 C 0.184 0.94197 0.33405 0.0
O54 O 0.21351 0.90658 0.34732 0.0
O55 O 0.19274 0.93584 0.34289 0.0
C56 C 0.10068 0.81473 0.67667 0.0
O57 O 0.10551 0.8044 0.68459 0.0
Cd58 Cd 0.09424 0.78165 0.69051 0.0
O59 O 0.08859 0.8136 0.66985 0.0
Cd60 Cd 0.07036 0.7937 0.66638 0.0
C61 C 0.09521 0.76787 0.6559 0.0
O62 O 0.06927 0.78782 0.69204 0.0
O63 O 0.05587 0.77424 0.67851 0.0
O64 O 0.05172 0.81232 0.662 0.0
C65 C 0.06033 0.77736 0.6912 0.0
O66 O 0.09879 0.76661 0.66927 0.0
C67 C 0.04584 0.8055 0.65144 0.0
O68 O 0.08615 0.7776 0.65179 0.0
O69 O 0.05206 0.79384 0.64728 0.0
C70 C 0.18211 0.1052 0.69389 0.0
O71 O 0.19361 0.10987 0.70008 0.0
Cd72 Cd 0.21703 0.09829 0.70037 0.0
O73 O 0.18219 0.09347 0.68642 0.0
Cd74 Cd 0.20036 0.07506 0.67871 0.0
C75 C 0.22339 0.10006 0.66351 0.0
O76 O 0.21156 0.07313 0.70233 0.0
O77 O 0.22206 0.0604 0.68561 0.0
O78 O 0.18216 0.05616 0.68092 0.0
C79 C 0.22151 0.06422 0.6989 0.0
O80 O 0.22703 0.10358 0.67645 0.0
C81 C 0.18355 0.05131 0.66802 0.0
O82 O 0.21331 0.09075 0.66118 0.0
O83 O 0.19228 0.05809 0.65964 0.0
C84 C 0.89198 0.18018 0.6796 0.0
O85 O 0.88709 0.19025 0.68779 0.0
Cd86 Cd 0.89807 0.21309 0.69389 0.0
O87 O 0.90403 0.18159 0.67276 0.0
Cd88 Cd 0.92226 0.20151 0.66968 0.0
C89 C 0.89674 0.22661 0.6591 0.0
O90 O 0.92312 0.20728 0.69534 0.0
O91 O 0.93639 0.22112 0.68194 0.0
O92 O 0.94058 0.18259 0.66551 0.0
C93 C 0.9319 0.21788 0.6946 0.0
O94 O 0.89314 0.22778 0.67247 0.0
C95 C 0.94695 0.18945 0.65527 0.0
O96 O 0.90614 0.21719 0.65499 0.0
O97 O 0.94118 0.20136 0.65114 0.0
C98 C 0.81772 0.88998 0.69686 0.0
O99 O 0.8073 0.88619 0.7052 0.0
Cd100 Cd 0.78326 0.8964 0.70543 0.0
O101 O 0.81642 0.90067 0.68805 0.0
Cd102 Cd 0.79808 0.91972 0.68216 0.0
C103 C 0.77489 0.89426 0.66857 0.0
O104 O 0.7878 0.9217 0.7062 0.0
O105 O 0.77605 0.93359 0.68975 0.0
O106 O 0.81569 0.93933 0.68322 0.0
C107 C 0.77718 0.92993 0.70305 0.0
O108 O 0.77249 0.89033 0.68171 0.0
C109 C 0.81379 0.94357 0.67016 0.0
O110 O 0.7842 0.90416 0.66563 0.0
O111 O 0.80504 0.9362 0.66232 0.0
C112 C 0.29744 0.08377 0.16436 0.0
O113 O 0.28629 0.08554 0.1724 0.0
Cd114 Cd 0.28565 0.07847 0.19752 0.0
O115 O 0.30841 0.07654 0.16891 0.0
Cd116 Cd 0.31531 0.06163 0.19032 0.0
C117 C 0.31888 0.09314 0.20839 0.0
O118 O 0.29142 0.05324 0.19858 0.0
O119 O 0.30869 0.05259 0.2145 0.0
O120 O 0.32219 0.04251 0.17339 0.0
C121 C 0.29554 0.04973 0.21132 0.0
O122 O 0.30498 0.09303 0.20924 0.0
C123 C 0.3339 0.03909 0.17997 0.0
O124 O 0.3257 0.08337 0.20121 0.0
O125 O 0.33739 0.04673 0.191 0.0
C126 C 0.88316 0.29655 0.16895 0.0
O127 O 0.87862 0.28818 0.17906 0.0
Cd128 Cd 0.89025 0.28113 0.20145 0.0
O129 O 0.89524 0.30337 0.17002 0.0
Cd130 Cd 0.91354 0.3063 0.18959 0.0
C131 C 0.88819 0.315 0.21601 0.0
O132 O 0.91524 0.28055 0.19474 0.0
O133 O 0.92967 0.29387 0.20743 0.0
O134 O 0.93183 0.31409 0.17169 0.0
C135 C 0.92486 0.28124 0.20459 0.0
O136 O 0.88483 0.3016 0.21744 0.0
C137 C 0.93597 0.32494 0.17933 0.0
O138 O 0.89724 0.31913 0.20631 0.0
O139 O 0.92914 0.32731 0.19115 0.0
C140 C 0.70231 0.8921 0.17536 0.0
O141 O 0.71156 0.88859 0.18508 0.0
Cd142 Cd 0.71156 0.89789 0.20956 0.0
O143 O 0.69294 0.90211 0.17767 0.0
Cd144 Cd 0.6868 0.92026 0.19668 0.0
C145 C 0.67503 0.89244 0.21795 0.0
O146 O 0.71068 0.92356 0.20738 0.0
O147 O 0.69285 0.93281 0.21963 0.0
O148 O 0.68818 0.94004 0.17941 0.0
C149 C 0.70647 0.93072 0.21844 0.0
O150 O 0.68848 0.88947 0.21997 0.0
C151 C 0.67538 0.94483 0.18163 0.0
O152 O 0.67115 0.9027 0.20937 0.0
O153 O 0.66732 0.93754 0.19027 0.0
C154 C 0.0927 0.69003 0.16596 0.0
O155 O 0.0957 0.70043 0.17461 0.0
Cd156 Cd 0.08751 0.70131 0.19935 0.0
O157 O 0.08374 0.68005 0.16965 0.0
Cd158 Cd 0.06714 0.67506 0.19039 0.0
C159 C 0.09621 0.66626 0.21064 0.0
O160 O 0.06167 0.69953 0.19904 0.0
O161 O 0.0585 0.68224 0.21468 0.0
O162 O 0.04576 0.6738 0.17522 0.0
C163 C 0.05702 0.69562 0.21146 0.0
O164 O 0.09822 0.68 0.2117 0.0
C165 C 0.04198 0.66102 0.17898 0.0
O166 O 0.08606 0.66113 0.20265 0.0
O167 O 0.0505 0.65417 0.18753 0.0
C168 C 0.30197 0.89061 0.81563 0.0
O169 O 0.29119 0.88817 0.80729 0.0
Cd170 Cd 0.29021 0.8965 0.78265 0.0
O171 O 0.31239 0.89889 0.81158 0.0
Cd172 Cd 0.31805 0.91486 0.79044 0.0
C173 C 0.32402 0.88465 0.77091 0.0
O174 O 0.29333 0.92232 0.78392 0.0
O175 O 0.30939 0.92477 0.76701 0.0
O176 O 0.32587 0.93312 0.80809 0.0
C177 C 0.29645 0.92704 0.77133 0.0
O178 O 0.31017 0.88372 0.76978 0.0
C179 C 0.33686 0.9373 0.80076 0.0
O180 O 0.32987 0.89455 0.77869 0.0
O181 O 0.33936 0.93073 0.78882 0.0
C182 C 0.08549 0.32285 0.82958 0.0
O183 O 0.07383 0.31556 0.82884 0.0
Cd184 Cd 0.06895 0.32428 0.80384 0.0
O185 O 0.08822 0.33116 0.81892 0.0
Cd186 Cd 0.06668 0.32875 0.80046 0.0
C187 C 0.08818 0.34496 0.7843 0.0
O188 O 0.06388 0.30258 0.79199 0.0
O189 O 0.06661 0.31847 0.775 0.0
O190 O 0.04478 0.32401 0.8155 0.0
C191 C 0.06443 0.30525 0.77848 0.0
O192 O 0.09179 0.33353 0.79118 0.0
C193 C 0.03841 0.33583 0.8122 0.0
O194 O 0.07502 0.349 0.78517 0.0
O195 O 0.04524 0.34459 0.80392 0.0
C196 C 0.68974 0.09365 0.81833 0.0
O197 O 0.6999 0.09806 0.81002 0.0
Cd198 Cd 0.7018 0.09087 0.78512 0.0
O199 O 0.68092 0.08375 0.81415 0.0
Cd200 Cd 0.67864 0.06721 0.79273 0.0
C201 C 0.66653 0.09513 0.77258 0.0
O202 O 0.7039 0.06486 0.78471 0.0
O203 O 0.68749 0.05977 0.7686 0.0
O204 O 0.67855 0.04445 0.80609 0.0
C205 C 0.70086 0.05981 0.77219 0.0
O206 O 0.6796 0.09988 0.77285 0.0
C207 C 0.66552 0.041 0.80288 0.0
O208 O 0.66299 0.08351 0.77928 0.0
O209 O 0.65828 0.05003 0.79526 0.0
C210 C 0.89273 0.67486 0.81274 0.0
O211 O 0.88812 0.68258 0.80217 0.0
Cd212 Cd 0.89994 0.68812 0.77961 0.0
O213 O 0.90499 0.66828 0.81209 0.0
Cd214 Cd 0.92424 0.66509 0.79314 0.0
C215 C 0.90058 0.65291 0.76708 0.0
O216 O 0.92464 0.69054 0.78645 0.0
O217 O 0.93883 0.67708 0.77363 0.0
O218 O 0.94208 0.66205 0.81275 0.0
C219 C 0.93382 0.6897 0.7762 0.0
O220 O 0.89656 0.66611 0.76537 0.0
C221 C 0.94866 0.65151 0.8066 0.0
O222 O 0.90956 0.64939 0.77712 0.0
O223 O 0.94323 0.64676 0.79476 0.0
C224 C 0.17403 0.29955 0.10321 0.0
O225 O 0.18355 0.29089 0.10839 0.0
Cd226 Cd 0.20767 0.28727 0.09864 0.0
O227 O 0.17672 0.3071 0.09186 0.0
Cd228 Cd 0.19632 0.31121 0.07409 0.0
C229 C 0.21977 0.32287 0.10037 0.0
O230 O 0.20436 0.28626 0.07303 0.0
O231 O 0.21754 0.30144 0.06079 0.0
O232 O 0.17899 0.31115 0.05435 0.0
C233 C 0.21526 0.2884 0.06481 0.0
O234 O 0.22083 0.30962 0.10447 0.0
C235 C 0.18213 0.32382 0.04968 0.0
O236 O 0.21102 0.32659 0.09021 0.0
O237 O 0.19152 0.33107 0.05687 0.0
C238 C 0.17461 0.69726 0.8941 0.0
O239 O 0.18482 0.70639 0.89203 0.0
Cd240 Cd 0.20861 0.70381 0.90236 0.0
O241 O 0.17614 0.68673 0.90306 0.0
Cd242 Cd 0.1945 0.67846 0.92111 0.0
C243 C 0.21619 0.66769 0.8938 0.0
O244 O 0.20519 0.70164 0.92796 0.0
O245 O 0.21852 0.6828 0.93234 0.0
O246 O 0.17744 0.67803 0.94107 0.0
C247 C 0.21662 0.69644 0.93371 0.0
O248 O 0.21902 0.68122 0.89214 0.0
C249 C 0.17919 0.66466 0.94422 0.0
O250 O 0.2068 0.66349 0.90315 0.0
O251 O 0.18762 0.65729 0.93604 0.0
C252 C 0.30007 0.1746 0.88585 0.0
O253 O 0.29249 0.18498 0.88059 0.0
Cd254 Cd 0.2888 0.20874 0.89093 0.0
O255 O 0.30746 0.17624 0.89752 0.0
Cd256 Cd 0.31288 0.19643 0.91463 0.0
C257 C 0.32417 0.22014 0.88806 0.0
O258 O 0.28759 0.20374 0.9163 0.0
O259 O 0.30224 0.2164 0.92948 0.0
O260 O 0.31767 0.17722 0.9325 0.0
C261 C 0.2893 0.2141 0.92524 0.0
O262 O 0.31084 0.22212 0.88467 0.0
C263 C 0.32858 0.18367 0.93813 0.0
O264 O 0.3278 0.21076 0.89767 0.0
O265 O 0.33251 0.19563 0.93234 0.0
C266 C 0.81114 0.29441 0.89069 0.0
O267 O 0.80245 0.28393 0.88813 0.0
Cd268 Cd 0.77757 0.2841 0.89585 0.0
O269 O 0.80726 0.30511 0.89867 0.0
Cd270 Cd 0.78601 0.31196 0.91386 0.0
C271 C 0.76714 0.31799 0.88314 0.0
O272 O 0.77841 0.28768 0.92168 0.0
O273 O 0.76221 0.30452 0.92374 0.0
O274 O 0.80348 0.31942 0.93244 0.0
C275 C 0.76595 0.29145 0.92628 0.0
O276 O 0.76553 0.30418 0.88238 0.0
C277 C 0.79653 0.33083 0.93611 0.0
O278 O 0.77495 0.32368 0.8931 0.0
O279 O 0.78496 0.33373 0.92906 0.0
C280 C 0.68497 0.80949 0.88676 0.0
O281 O 0.69238 0.79886 0.88178 0.0
Cd282 Cd 0.69726 0.77593 0.89328 0.0
O283 O 0.67854 0.80867 0.89908 0.0
Cd284 Cd 0.67506 0.78963 0.91806 0.0
C285 C 0.66168 0.7646 0.89383 0.0
O286 O 0.70047 0.78267 0.91802 0.0
O287 O 0.68717 0.77027 0.93273 0.0
O288 O 0.67167 0.80983 0.93523 0.0
C289 C 0.69971 0.77263 0.92743 0.0
O290 O 0.67474 0.76244 0.88958 0.0
C291 C 0.66142 0.80356 0.94217 0.0
O292 O 0.65876 0.77445 0.9032 0.0
O293 O 0.65718 0.79125 0.93741 0.0
C294 C 0.81581 0.68782 0.09744 0.0
O295 O 0.80651 0.69725 0.10155 0.0
Cd296 Cd 0.78182 0.69908 0.09318 0.0
O297 O 0.8129 0.67875 0.0873 0.0
Cd298 Cd 0.79277 0.67394 0.06986 0.0
C299 C 0.77115 0.66307 0.09782 0.0
O300 O 0.78411 0.69865 0.06758 0.0
O301 O 0.77027 0.68253 0.05756 0.0
O302 O 0.80936 0.67372 0.04946 0.0
C303 C 0.7727 0.69586 0.06034 0.0
O304 O 0.76996 0.67653 0.10116 0.0
C305 C 0.80594 0.66107 0.04497 0.0
O306 O 0.77938 0.65894 0.08739 0.0
O307 O 0.79689 0.65386 0.05264 0.0
C308 C 0.29122 0.81327 0.09529 0.0
O309 O 0.28229 0.80337 0.09913 0.0
Cd310 Cd 0.2818 0.7789 0.08992 0.0
O311 O 0.30033 0.81116 0.08499 0.0
Cd312 Cd 0.30631 0.79193 0.06692 0.0
C313 C 0.31834 0.7703 0.09452 0.0
O314 O 0.28219 0.78182 0.06434 0.0
O315 O 0.29915 0.76929 0.05399 0.0
O316 O 0.30597 0.8087 0.04658 0.0
C317 C 0.28568 0.77078 0.05683 0.0
O318 O 0.30498 0.76826 0.09786 0.0
C319 C 0.31909 0.80645 0.04271 0.0
O320 O 0.32192 0.77889 0.08417 0.0
O321 O 0.32665 0.79792 0.05061 0.0
C322 C 0.69437 0.16809 0.09049 0.0
O323 O 0.70482 0.17702 0.09219 0.0
Cd324 Cd 0.70364 0.2017 0.0835 0.0
O325 O 0.6836 0.17131 0.08233 0.0
Cd326 Cd 0.67608 0.191 0.06557 0.0
C327 C 0.66879 0.2102 0.09565 0.0
O328 O 0.69899 0.20212 0.058 0.0
O329 O 0.67981 0.21575 0.0566 0.0
O330 O 0.67476 0.17507 0.04487 0.0
C331 C 0.69332 0.21413 0.05405 0.0
O332 O 0.68256 0.21214 0.09631 0.0
C333 C 0.6615 0.17764 0.0418 0.0
O334 O 0.66315 0.20207 0.08587 0.0
O335 O 0.65448 0.18592 0.05045 0.0
C336 C 0.88933 0.80842 0.69543 0.0
O337 O 0.88512 0.79742 0.70273 0.0
Cd338 Cd 0.89688 0.77418 0.70325 0.0
O339 O 0.90055 0.80771 0.68725 0.0
Cd340 Cd 0.91801 0.78832 0.68011 0.0
C341 C 0.8916 0.76601 0.66722 0.0
O342 O 0.92263 0.77804 0.70406 0.0
O343 O 0.92892 0.76447 0.68591 0.0
O344 O 0.93894 0.80433 0.6808 0.0
C345 C 0.92918 0.76674 0.69956 0.0
O346 O 0.88925 0.76271 0.68052 0.0
C347 C 0.9425 0.80272 0.66752 0.0
O348 O 0.90076 0.77593 0.66387 0.0
O349 O 0.93421 0.79483 0.65968 0.0
C350 C 0.1716 0.89521 0.68872 0.0
O351 O 0.18032 0.89093 0.69863 0.0
Cd352 Cd 0.20471 0.89963 0.70246 0.0
O353 O 0.17497 0.90569 0.68021 0.0
Cd354 Cd 0.1953 0.9233 0.67713 0.0
C355 C 0.21729 0.89523 0.66719 0.0
O356 O 0.20214 0.92532 0.70265 0.0
O357 O 0.21656 0.93613 0.68767 0.0
O358 O 0.17706 0.94214 0.67238 0.0
C359 C 0.21355 0.93286 0.70076 0.0
O360 O 0.21798 0.8917 0.68064 0.0
C361 C 0.18385 0.94747 0.66152 0.0
O362 O 0.20925 0.90575 0.66295 0.0
O363 O 0.19552 0.9411 0.6576 0.0
C364 C 0.10138 0.17628 0.70284 0.0
O365 O 0.10576 0.18577 0.71195 0.0
Cd366 Cd 0.09854 0.21088 0.7124 0.0
O367 O 0.0915 0.17927 0.69351 0.0
Cd368 Cd 0.07503 0.19973 0.68723 0.0
C369 C 0.10456 0.2191 0.67595 0.0
O370 O 0.07285 0.21004 0.71124 0.0
O371 O 0.06407 0.22344 0.69406 0.0
O372 O 0.0534 0.18466 0.68719 0.0
C373 C 0.06651 0.22175 0.70758 0.0
O374 O 0.10778 0.22087 0.68938 0.0
C375 C 0.0501 0.18698 0.67393 0.0
O376 O 0.09363 0.21136 0.67214 0.0
O377 O 0.05881 0.19482 0.6665 0.0
C378 C 0.82115 0.09898 0.68633 0.0
O379 O 0.81217 0.1029 0.69615 0.0
Cd380 Cd 0.78812 0.09343 0.69996 0.0
O381 O 0.81824 0.08851 0.67764 0.0
Cd382 Cd 0.79843 0.07034 0.67423 0.0
C383 C 0.77503 0.09746 0.6648 0.0
O384 O 0.79211 0.06798 0.69977 0.0
O385 O 0.77796 0.05641 0.68513 0.0
O386 O 0.81738 0.05232 0.66928 0.0
C387 C 0.78106 0.05987 0.69814 0.0
O388 O 0.77429 0.10082 0.67829 0.0
C389 C 0.81069 0.04662 0.65854 0.0
O390 O 0.78356 0.08742 0.66035 0.0
O391 O 0.79874 0.05251 0.6547 0.0
C392 C 0.89339 0.16502 0.30129 0.0
O393 O 0.88838 0.17297 0.29112 0.0
Cd394 Cd 0.89615 0.19739 0.28684 0.0
O395 O 0.90391 0.1695 0.30922 0.0
Cd396 Cd 0.92043 0.19095 0.31022 0.0
C397 C 0.89247 0.21176 0.32145 0.0
O398 O 0.92217 0.19663 0.2842 0.0
O399 O 0.92882 0.21361 0.29902 0.0
O400 O 0.94062 0.17395 0.31375 0.0
C401 C 0.92788 0.20908 0.286 0.0
O402 O 0.88782 0.21113 0.30835 0.0
C403 C 0.94654 0.18128 0.32391 0.0
O404 O 0.90389 0.20489 0.32535 0.0
O405 O 0.94 0.19278 0.32803 0.0
C406 C 0.81515 0.89503 0.30454 0.0
O407 O 0.80585 0.8936 0.29437 0.0
Cd408 Cd 0.78184 0.9035 0.29502 0.0
O409 O 0.81248 0.903 0.31563 0.0
Cd410 Cd 0.79275 0.91985 0.32353 0.0
C411 C 0.77079 0.89119 0.329 0.0
O412 O 0.78535 0.92877 0.29972 0.0
O413 O 0.76954 0.93167 0.31675 0.0
O414 O 0.81109 0.93775 0.33044 0.0
C415 C 0.77325 0.9341 0.30365 0.0
O416 O 0.76908 0.891 0.31518 0.0
C417 C 0.80504 0.94113 0.34244 0.0
O418 O 0.77968 0.90005 0.33493 0.0
O419 O 0.7937 0.93399 0.34599 0.0
C420 C 0.09982 0.8151 0.29565 0.0
O421 O 0.1045 0.80472 0.28772 0.0
Cd422 Cd 0.0927 0.78143 0.2851 0.0
O423 O 0.0878 0.81393 0.30253 0.0
Cd424 Cd 0.06773 0.79656 0.30627 0.0
C425 C 0.09112 0.77238 0.32171 0.0
O426 O 0.0676 0.78674 0.28197 0.0
O427 O 0.05371 0.77541 0.29718 0.0
O428 O 0.04936 0.81529 0.30354 0.0
C429 C 0.05861 0.77651 0.28428 0.0
O430 O 0.09602 0.76998 0.3089 0.0
C431 C 0.04399 0.81373 0.31622 0.0
O432 O 0.08137 0.78204 0.32397 0.0
O433 O 0.05007 0.80449 0.32459 0.0
C434 C 0.17968 0.09684 0.29559 0.0
O435 O 0.18962 0.10026 0.28653 0.0
Cd436 Cd 0.21347 0.08982 0.2847 0.0
O437 O 0.18144 0.08646 0.30471 0.0
Cd438 Cd 0.20047 0.06794 0.31023 0.0
C439 C 0.22415 0.09476 0.32038 0.0
O440 O 0.20767 0.06461 0.28516 0.0
O441 O 0.22039 0.05226 0.30042 0.0
O442 O 0.18124 0.05045 0.31645 0.0
C443 C 0.21797 0.05571 0.28726 0.0
O444 O 0.22603 0.09796 0.30696 0.0
C445 C 0.18774 0.04595 0.32786 0.0
O446 O 0.21516 0.08489 0.32414 0.0
O447 O 0.19964 0.05218 0.33123 0.0
C448 C 0.68712 0.89061 0.81513 0.0
O449 O 0.698 0.88844 0.80683 0.0
Cd450 Cd 0.69944 0.89728 0.78237 0.0
O451 O 0.67668 0.89888 0.81116 0.0
Cd452 Cd 0.67119 0.91511 0.7902 0.0
C453 C 0.66598 0.88545 0.76965 0.0
O454 O 0.69574 0.92299 0.78353 0.0
O455 O 0.67941 0.92519 0.76681 0.0
O456 O 0.66418 0.9338 0.80763 0.0
C457 C 0.69236 0.92768 0.77098 0.0
O458 O 0.67986 0.88481 0.76878 0.0
C459 C 0.65298 0.93794 0.80061 0.0
O460 O 0.65978 0.89492 0.7777 0.0
O461 O 0.64978 0.93089 0.78911 0.0
C462 C 0.10346 0.70066 0.81208 0.0
O463 O 0.10757 0.70779 0.80093 0.0
Cd464 Cd 0.09556 0.70776 0.77775 0.0
O465 O 0.09232 0.69237 0.81155 0.0
Cd466 Cd 0.07475 0.68464 0.7926 0.0
C467 C 0.1006 0.67166 0.76965 0.0
O468 O 0.06982 0.70832 0.78184 0.0
O469 O 0.06332 0.68976 0.76891 0.0
O470 O 0.05379 0.68517 0.8086 0.0
C471 C 0.06313 0.70348 0.77076 0.0
O472 O 0.10298 0.68493 0.76626 0.0
C473 C 0.05077 0.6717 0.8075 0.0
O474 O 0.09167 0.66841 0.7798 0.0
O475 O 0.05936 0.66391 0.79991 0.0
C476 C 0.2986 0.08862 0.82034 0.0
O477 O 0.28815 0.0905 0.81144 0.0
Cd478 Cd 0.28882 0.0822 0.78671 0.0
O479 O 0.30939 0.08049 0.81704 0.0
Cd480 Cd 0.31655 0.06374 0.7971 0.0
C481 C 0.3239 0.09354 0.77747 0.0
O482 O 0.29314 0.05674 0.7869 0.0
O483 O 0.31164 0.05449 0.77255 0.0
O484 O 0.31801 0.04324 0.81325 0.0
C485 C 0.2981 0.05255 0.77468 0.0
O486 O 0.31008 0.09446 0.77593 0.0
C487 C 0.33098 0.03963 0.81001 0.0
O488 O 0.32956 0.08371 0.78552 0.0
O489 O 0.33787 0.04798 0.80131 0.0
C490 C 0.88479 0.29652 0.81182 0.0
O491 O 0.88132 0.28861 0.80098 0.0
Cd492 Cd 0.89306 0.2889 0.77778 0.0
O493 O 0.89511 0.30579 0.8109 0.0
Cd494 Cd 0.91172 0.31416 0.79129 0.0
C495 C 0.88388 0.32396 0.76935 0.0
O496 O 0.91875 0.29013 0.78245 0.0
O497 O 0.92389 0.308 0.76817 0.0
O498 O 0.9297 0.31951 0.8102 0.0
C499 C 0.92518 0.29455 0.77107 0.0
O500 O 0.88299 0.31055 0.76578 0.0
C501 C 0.93386 0.33141 0.80444 0.0
O502 O 0.89262 0.32807 0.77932 0.0
O503 O 0.92726 0.33552 0.79298 0.0
C504 C 0.68847 0.10513 0.17829 0.0
O505 O 0.6947 0.11144 0.18897 0.0
Cd506 Cd 0.69891 0.10171 0.2129 0.0
O507 O 0.68264 0.09258 0.17975 0.0
Cd508 Cd 0.67855 0.07543 0.20029 0.0
C509 C 0.6635 0.09996 0.22396 0.0
O510 O 0.70379 0.07669 0.20832 0.0
O511 O 0.69008 0.06271 0.22113 0.0
O512 O 0.67628 0.05645 0.18153 0.0
C513 C 0.70264 0.06803 0.21899 0.0
O514 O 0.67631 0.10473 0.22644 0.0
C515 C 0.66614 0.04967 0.18813 0.0
O516 O 0.66115 0.09048 0.21407 0.0
O517 O 0.66142 0.05529 0.19988 0.0
C518 C 0.88793 0.68352 0.17772 0.0
O519 O 0.88419 0.69248 0.1876 0.0
Cd520 Cd 0.89609 0.69592 0.21044 0.0
O521 O 0.89868 0.67488 0.17952 0.0
Cd522 Cd 0.91564 0.66951 0.2 0.0
C523 C 0.88823 0.66194 0.22343 0.0
O524 O 0.92168 0.69476 0.20568 0.0
O525 O 0.92766 0.67908 0.22204 0.0
O526 O 0.9336 0.66268 0.18153 0.0
C527 C 0.92825 0.69213 0.21754 0.0
O528 O 0.88706 0.67568 0.22521 0.0
C529 C 0.9387 0.65199 0.18872 0.0
O530 O 0.89692 0.65671 0.21393 0.0
O531 O 0.93258 0.64903 0.20079 0.0
C532 C 0.29811 0.882 0.17864 0.0
O533 O 0.29169 0.87673 0.18976 0.0
Cd534 Cd 0.28951 0.88727 0.21357 0.0
O535 O 0.30505 0.89404 0.17933 0.0
Cd536 Cd 0.31143 0.91195 0.1986 0.0
C537 C 0.32595 0.887 0.22219 0.0
O538 O 0.28746 0.91258 0.20916 0.0
O539 O 0.30342 0.92528 0.22074 0.0
O540 O 0.31025 0.93268 0.18231 0.0
C541 C 0.29035 0.92086 0.21981 0.0
O542 O 0.31299 0.88275 0.2249 0.0
C543 C 0.32349 0.93645 0.18393 0.0
O544 O 0.32847 0.89662 0.21246 0.0
O545 O 0.33143 0.92839 0.19194 0.0
C546 C 0.08795 0.32002 0.16713 0.0
O547 O 0.0765 0.31241 0.16768 0.0
Cd548 Cd 0.07065 0.32153 0.19225 0.0
O549 O 0.09007 0.32873 0.17761 0.0
Cd550 Cd 0.06807 0.32629 0.19553 0.0
C551 C 0.09011 0.34192 0.21182 0.0
O552 O 0.06534 0.2999 0.20369 0.0
O553 O 0.06609 0.31579 0.22088 0.0
O554 O 0.04745 0.32176 0.17881 0.0
C555 C 0.06465 0.30251 0.21719 0.0
O556 O 0.09332 0.33015 0.20536 0.0
C557 C 0.04048 0.33322 0.18217 0.0
O558 O 0.07712 0.34648 0.21062 0.0
O559 O 0.04639 0.34175 0.19137 0.0
C560 C 0.81902 0.68307 0.89124 0.0
O561 O 0.8112 0.69404 0.88801 0.0
Cd562 Cd 0.78646 0.69683 0.89576 0.0
O563 O 0.81439 0.67343 0.90013 0.0
Cd564 Cd 0.7928 0.66995 0.9161 0.0
C565 C 0.77309 0.66285 0.88622 0.0
O566 O 0.78633 0.69529 0.92171 0.0
O567 O 0.76939 0.67932 0.9248 0.0
O568 O 0.80966 0.66395 0.93574 0.0
C569 C 0.77358 0.69241 0.92624 0.0
O570 O 0.77286 0.67664 0.88436 0.0
C571 C 0.80221 0.6533 0.94055 0.0
O572 O 0.78048 0.65718 0.89653 0.0
O573 O 0.79071 0.64998 0.93357 0.0
C574 C 0.80773 0.30231 0.09186 0.0
O575 O 0.7978 0.29362 0.09611 0.0
Cd576 Cd 0.77321 0.29299 0.08763 0.0
O577 O 0.80552 0.31139 0.08155 0.0
Cd578 Cd 0.78584 0.31718 0.06379 0.0
C579 C 0.76444 0.32974 0.0912 0.0
O580 O 0.77689 0.29273 0.06224 0.0
O581 O 0.7636 0.30826 0.05076 0.0
O582 O 0.80338 0.31665 0.04425 0.0
C583 C 0.76582 0.29509 0.0544 0.0
O584 O 0.76272 0.31644 0.09494 0.0
C585 C 0.80036 0.32922 0.03926 0.0
O586 O 0.77279 0.33318 0.08062 0.0
O587 O 0.79099 0.33671 0.04623 0.0
C588 C 0.69401 0.81329 0.10076 0.0
O589 O 0.70026 0.80152 0.10455 0.0
Cd590 Cd 0.69966 0.77914 0.09127 0.0
O591 O 0.68637 0.81392 0.08916 0.0
Cd592 Cd 0.67883 0.79631 0.06999 0.0
C593 C 0.66277 0.77296 0.09337 0.0
O594 O 0.70224 0.78463 0.06598 0.0
O595 O 0.6836 0.77271 0.05805 0.0
O596 O 0.68191 0.81373 0.05042 0.0
C597 C 0.69736 0.77401 0.05862 0.0
O598 O 0.67571 0.76883 0.09634 0.0
C599 C 0.66895 0.81286 0.04564 0.0
O600 O 0.66054 0.78379 0.08492 0.0
O601 O 0.66015 0.80485 0.05276 0.0
C602 C 0.17454 0.68362 0.09553 0.0
O603 O 0.18503 0.69191 0.09916 0.0
Cd604 Cd 0.20821 0.69286 0.08742 0.0
O605 O 0.17584 0.67457 0.08505 0.0
Cd606 Cd 0.19571 0.66719 0.06817 0.0
C607 C 0.21831 0.65781 0.09549 0.0
O608 O 0.20368 0.69171 0.06177 0.0
O609 O 0.21866 0.67457 0.05623 0.0
O610 O 0.17668 0.66194 0.05032 0.0
C611 C 0.21533 0.68796 0.05541 0.0
O612 O 0.22103 0.67139 0.09668 0.0
C613 C 0.18268 0.65041 0.04552 0.0
O614 O 0.20849 0.65327 0.08677 0.0
O615 O 0.19439 0.64637 0.05172 0.0
C616 C 0.30096 0.16814 0.0977 0.0
O617 O 0.29383 0.17867 0.1032 0.0
Cd618 Cd 0.29256 0.20268 0.09351 0.0
O619 O 0.30828 0.16982 0.086 0.0
Cd620 Cd 0.31333 0.19018 0.06881 0.0
C621 C 0.32887 0.21188 0.09422 0.0
O622 O 0.28896 0.2004 0.06773 0.0
O623 O 0.30616 0.21416 0.0594 0.0
O624 O 0.31012 0.17563 0.0471 0.0
C625 C 0.2926 0.21191 0.06101 0.0
O626 O 0.31609 0.21359 0.0994 0.0
C627 C 0.32306 0.17706 0.04241 0.0
O628 O 0.33122 0.20349 0.08339 0.0
O629 O 0.33192 0.18411 0.05041 0.0
C630 C 0.16977 0.3026 0.89542 0.0
O631 O 0.17874 0.29319 0.89063 0.0
Cd632 Cd 0.20332 0.29092 0.89912 0.0
O633 O 0.17343 0.31124 0.90567 0.0
Cd634 Cd 0.19493 0.31581 0.92126 0.0
C635 C 0.21448 0.32604 0.89213 0.0
O636 O 0.20247 0.29055 0.92521 0.0
O637 O 0.21857 0.30694 0.93006 0.0
O638 O 0.17784 0.32075 0.94102 0.0
C639 C 0.21492 0.29361 0.93039 0.0
O640 O 0.21607 0.31247 0.88954 0.0
C641 C 0.18487 0.33162 0.94594 0.0
O642 O 0.20626 0.33039 0.90243 0.0
O643 O 0.1963 0.33539 0.93909 0.0
C644 C 0.68072 0.17445 0.88878 0.0
O645 O 0.68956 0.18431 0.88463 0.0
Cd646 Cd 0.69518 0.2071 0.89612 0.0
O647 O 0.67276 0.17612 0.90008 0.0
Cd648 Cd 0.66812 0.19605 0.91788 0.0
C649 C 0.66118 0.22187 0.89172 0.0
O650 O 0.69368 0.20127 0.92119 0.0
O651 O 0.67949 0.21474 0.93397 0.0
O652 O 0.66067 0.17696 0.93492 0.0
C653 C 0.69241 0.21168 0.93015 0.0
O654 O 0.67484 0.22261 0.88928 0.0
C655 C 0.64991 0.18411 0.93996 0.0
O656 O 0.65596 0.21251 0.90061 0.0
O657 O 0.64726 0.19643 0.93418 0.0
C658 C 0.3038 0.80988 0.88755 0.0
O659 O 0.2954 0.79962 0.88345 0.0
Cd660 Cd 0.29152 0.77651 0.89495 0.0
O661 O 0.31187 0.80855 0.89881 0.0
Cd662 Cd 0.31733 0.78907 0.91683 0.0
C663 C 0.32659 0.76432 0.8905 0.0
O664 O 0.29212 0.78218 0.92015 0.0
O665 O 0.3074 0.76916 0.93221 0.0
O666 O 0.32226 0.80865 0.93421 0.0
C667 C 0.29423 0.77176 0.92893 0.0
O668 O 0.31302 0.76269 0.88795 0.0
C669 C 0.33326 0.80238 0.93987 0.0
O670 O 0.33108 0.7738 0.89964 0.0
O671 O 0.33736 0.79045 0.93413 0.0
C672 C 0.60218 0.67625 0.79336 0.0
O673 O 0.60737 0.68753 0.78717 0.0
Cd674 Cd 0.59598 0.711 0.78505 0.0
O675 O 0.58988 0.67662 0.79986 0.0
Cd676 Cd 0.57115 0.69523 0.80558 0.0
C677 C 0.59507 0.71905 0.82154 0.0
O678 O 0.57094 0.70557 0.78145 0.0
O679 O 0.55704 0.71664 0.79679 0.0
O680 O 0.55109 0.6781 0.80381 0.0
C681 C 0.56186 0.71567 0.78385 0.0
O682 O 0.59971 0.72215 0.8088 0.0
C683 C 0.54712 0.67931 0.81703 0.0
O684 O 0.58549 0.70915 0.82344 0.0
O685 O 0.55467 0.68761 0.82517 0.0
C686 C 0.30772 0.60164 0.79426 0.0
O687 O 0.29704 0.60683 0.78709 0.0
Cd688 Cd 0.27293 0.59658 0.78592 0.0
O689 O 0.30625 0.59023 0.80205 0.0
Cd690 Cd 0.2866 0.57319 0.80899 0.0
C691 C 0.26438 0.6 0.82217 0.0
O692 O 0.27606 0.57086 0.7849 0.0
O693 O 0.26432 0.55984 0.80207 0.0
O694 O 0.3034 0.55297 0.80792 0.0
C695 C 0.26544 0.56283 0.7886 0.0
O696 O 0.26179 0.60337 0.80893 0.0
C697 C 0.30162 0.54889 0.82104 0.0
O698 O 0.27366 0.59012 0.82536 0.0
O699 O 0.29327 0.5566 0.82898 0.0
C700 C 0.39571 0.32126 0.80341 0.0
O701 O 0.39179 0.31252 0.79337 0.0
Cd702 Cd 0.40032 0.28821 0.78954 0.0
O703 O 0.40571 0.31788 0.81249 0.0
Cd704 Cd 0.4231 0.29746 0.81641 0.0
C705 C 0.39486 0.27484 0.82451 0.0
O706 O 0.42573 0.29174 0.79093 0.0
O707 O 0.43694 0.27695 0.80513 0.0
O708 O 0.44118 0.31604 0.8221 0.0
C709 C 0.43352 0.28044 0.7922 0.0
O710 O 0.39186 0.27453 0.81092 0.0
C711 C 0.44656 0.30916 0.83288 0.0
O712 O 0.40512 0.28284 0.82942 0.0
O713 O 0.44049 0.2972 0.8364 0.0
C714 C 0.6705 0.40149 0.79758 0.0
O715 O 0.67934 0.40059 0.78695 0.0
Cd716 Cd 0.70418 0.40803 0.78848 0.0
O717 O 0.67416 0.40786 0.8094 0.0
Cd718 Cd 0.69512 0.42238 0.8187 0.0
C719 C 0.71365 0.39098 0.82096 0.0
O720 O 0.70331 0.43292 0.79577 0.0
O721 O 0.71927 0.43263 0.81294 0.0
O722 O 0.67746 0.44024 0.82725 0.0
C723 C 0.71584 0.4367 0.80017 0.0
O724 O 0.71527 0.39207 0.80717 0.0
C725 C 0.68414 0.44315 0.83903 0.0
O726 O 0.70597 0.4002 0.82796 0.0
O727 O 0.69555 0.43577 0.84178 0.0
C728 C 0.60393 0.30558 0.19531 0.0
O729 O 0.60762 0.29596 0.2046 0.0
Cd730 Cd 0.59862 0.27139 0.20549 0.0
O731 O 0.59419 0.30295 0.18573 0.0
Cd732 Cd 0.5773 0.28287 0.17927 0.0
C733 C 0.60582 0.26116 0.17004 0.0
O734 O 0.57295 0.27451 0.20399 0.0
O735 O 0.56332 0.26122 0.18726 0.0
O736 O 0.55944 0.30182 0.17373 0.0
C737 C 0.56541 0.26342 0.20074 0.0
O738 O 0.60829 0.25932 0.18361 0.0
C739 C 0.55495 0.2957 0.16213 0.0
O740 O 0.59581 0.26976 0.1657 0.0
O741 O 0.56124 0.28397 0.1583 0.0
C742 C 0.67207 0.59859 0.18927 0.0
O743 O 0.68151 0.60217 0.19878 0.0
Cd744 Cd 0.7054 0.59215 0.20161 0.0
O745 O 0.67439 0.58813 0.18036 0.0
Cd746 Cd 0.69374 0.56944 0.17632 0.0
C747 C 0.71741 0.59599 0.166 0.0
O748 O 0.70067 0.56685 0.20165 0.0
O749 O 0.71455 0.55549 0.18661 0.0
O750 O 0.6745 0.55139 0.17243 0.0
C751 C 0.7116 0.55867 0.19972 0.0
O752 O 0.7186 0.59927 0.17948 0.0
C753 C 0.68084 0.54533 0.16169 0.0
O754 O 0.70853 0.58615 0.16179 0.0
O755 O 0.69259 0.55115 0.15721 0.0
C756 C 0.39043 0.67864 0.18912 0.0
O757 O 0.38715 0.68872 0.19806 0.0
Cd758 Cd 0.39666 0.71294 0.1985 0.0
O759 O 0.40017 0.68048 0.17932 0.0
Cd760 Cd 0.4179 0.69991 0.17228 0.0
C761 C 0.39005 0.72243 0.16254 0.0
O762 O 0.42184 0.7079 0.19697 0.0
O763 O 0.43287 0.72094 0.18098 0.0
O764 O 0.43551 0.68043 0.16761 0.0
C765 C 0.43014 0.71856 0.19431 0.0
O766 O 0.38761 0.72443 0.17609 0.0
C767 C 0.44078 0.68642 0.15626 0.0
O768 O 0.39988 0.71357 0.15826 0.0
O769 O 0.43473 0.69812 0.15193 0.0
C770 C 0.32206 0.39399 0.18452 0.0
O771 O 0.31339 0.38988 0.19452 0.0
Cd772 Cd 0.28924 0.39933 0.1977 0.0
O773 O 0.31845 0.40422 0.17583 0.0
Cd774 Cd 0.29769 0.42101 0.17211 0.0
C775 C 0.27648 0.3928 0.16286 0.0
O776 O 0.29053 0.4253 0.19746 0.0
O777 O 0.27442 0.43034 0.18111 0.0
O778 O 0.31546 0.4403 0.16796 0.0
C779 C 0.27812 0.4306 0.19443 0.0
O780 O 0.27551 0.39042 0.17654 0.0
C781 C 0.30879 0.4458 0.15713 0.0
O782 O 0.28492 0.40267 0.1579 0.0
O783 O 0.29729 0.43934 0.15286 0.0
C784 C 0.7973 0.60301 0.67619 0.0
O785 O 0.79168 0.60736 0.6881 0.0
Cd786 Cd 0.79029 0.59416 0.71061 0.0
O787 O 0.80364 0.59066 0.67527 0.0
Cd788 Cd 0.80981 0.57037 0.69203 0.0
C789 C 0.8271 0.59175 0.71709 0.0
O790 O 0.78619 0.56971 0.7034 0.0
O791 O 0.80182 0.555 0.71289 0.0
O792 O 0.80664 0.55206 0.67325 0.0
C793 C 0.78892 0.56001 0.71282 0.0
O794 O 0.81455 0.5963 0.72097 0.0
C795 C 0.81948 0.54695 0.6742 0.0
O796 O 0.82856 0.58311 0.70629 0.0
O797 O 0.82817 0.55333 0.68291 0.0
C798 C 0.3929 0.7895 0.67476 0.0
O799 O 0.38916 0.77964 0.68377 0.0
Cd800 Cd 0.39744 0.77787 0.70855 0.0
O801 O 0.40255 0.79895 0.67806 0.0
Cd802 Cd 0.41933 0.8046 0.69841 0.0
C803 C 0.38991 0.81325 0.71927 0.0
O804 O 0.4231 0.78001 0.70686 0.0
O805 O 0.43198 0.79666 0.72088 0.0
O806 O 0.43989 0.80682 0.68219 0.0
C807 C 0.43006 0.78319 0.71836 0.0
O808 O 0.38735 0.79961 0.72038 0.0
C809 C 0.44299 0.8199 0.6856 0.0
O810 O 0.40042 0.81798 0.71149 0.0
O811 O 0.43457 0.82628 0.6946 0.0
C812 C 0.18966 0.38621 0.67526 0.0
O813 O 0.19735 0.38176 0.68589 0.0
Cd814 Cd 0.19935 0.39327 0.70904 0.0
O815 O 0.18202 0.39778 0.67631 0.0
Cd816 Cd 0.17694 0.41599 0.69581 0.0
C817 C 0.16367 0.39123 0.71979 0.0
O818 O 0.20167 0.41902 0.70482 0.0
O819 O 0.18463 0.42723 0.71884 0.0
O820 O 0.17731 0.43759 0.68057 0.0
C821 C 0.19815 0.42627 0.71605 0.0
O822 O 0.17671 0.38675 0.72145 0.0
C823 C 0.16393 0.44072 0.68223 0.0
O824 O 0.16059 0.40135 0.71079 0.0
O825 O 0.15629 0.43194 0.68975 0.0
C826 C 0.58784 0.16839 0.66667 0.0
O827 O 0.5774 0.17727 0.66794 0.0
Cd828 Cd 0.57312 0.16941 0.69334 0.0
O829 O 0.58984 0.15971 0.6772 0.0
Cd830 Cd 0.56932 0.165 0.69655 0.0
C831 C 0.59163 0.14834 0.71258 0.0
O832 O 0.57322 0.19137 0.70502 0.0
O833 O 0.56169 0.1772 0.71977 0.0
O834 O 0.54846 0.17065 0.68062 0.0
C835 C 0.56672 0.18982 0.71709 0.0
O836 O 0.59575 0.15862 0.70435 0.0
C837 C 0.54151 0.15905 0.68358 0.0
O838 O 0.57807 0.14585 0.71323 0.0
O839 O 0.54765 0.15 0.69209 0.0
C840 C 0.80853 0.39212 0.31793 0.0
O841 O 0.79792 0.38854 0.30977 0.0
Cd842 Cd 0.79462 0.39757 0.28551 0.0
O843 O 0.81776 0.40163 0.31372 0.0
Cd844 Cd 0.822 0.41764 0.29249 0.0
C845 C 0.82852 0.38783 0.27242 0.0
O846 O 0.79675 0.42352 0.28641 0.0
O847 O 0.81259 0.42754 0.26954 0.0
O848 O 0.82854 0.43632 0.31009 0.0
C849 C 0.7995 0.42864 0.27386 0.0
O850 O 0.8147 0.38635 0.27182 0.0
C851 C 0.8393 0.44118 0.30285 0.0
O852 O 0.83432 0.39783 0.28012 0.0
O853 O 0.84239 0.43468 0.291 0.0
C854 C 0.59729 0.80107 0.31247 0.0
O855 O 0.59942 0.7912 0.303 0.0
Cd856 Cd 0.59066 0.79276 0.27857 0.0
O857 O 0.58926 0.81208 0.30969 0.0
Cd858 Cd 0.57304 0.82029 0.28952 0.0
C859 C 0.60235 0.82749 0.26907 0.0
O860 O 0.56507 0.79634 0.28125 0.0
O861 O 0.56185 0.81375 0.26591 0.0
O862 O 0.55541 0.8262 0.30847 0.0
C863 C 0.5598 0.80048 0.26919 0.0
O864 O 0.60304 0.81374 0.26702 0.0
C865 C 0.55089 0.83781 0.30242 0.0
O866 O 0.59293 0.83291 0.27772 0.0
O867 O 0.55715 0.84163 0.29066 0.0
C868 C 0.18088 0.59554 0.31518 0.0
O869 O 0.19171 0.59795 0.30688 0.0
Cd870 Cd 0.19386 0.58861 0.28272 0.0
O871 O 0.17082 0.58671 0.3114 0.0
Cd872 Cd 0.16627 0.56952 0.29095 0.0
C873 C 0.15978 0.59822 0.26938 0.0
O874 O 0.19132 0.56292 0.28498 0.0
O875 O 0.17554 0.55909 0.26805 0.0
O876 O 0.16044 0.55112 0.30913 0.0
C877 C 0.18854 0.55763 0.27253 0.0
O878 O 0.17363 0.59954 0.26879 0.0
C879 C 0.1497 0.54582 0.30218 0.0
O880 O 0.15387 0.58867 0.27757 0.0
O881 O 0.14609 0.55215 0.29038 0.0
C882 C 0.37964 0.19591 0.30564 0.0
O883 O 0.37576 0.20496 0.29586 0.0
Cd884 Cd 0.38415 0.20571 0.27116 0.0
O885 O 0.3893 0.1862 0.30314 0.0
Cd886 Cd 0.40597 0.17914 0.28301 0.0
C887 C 0.37717 0.16994 0.26142 0.0
O888 O 0.40959 0.20387 0.27499 0.0
O889 O 0.42048 0.18792 0.26181 0.0
O890 O 0.42341 0.1732 0.30229 0.0
C891 C 0.41751 0.20122 0.26403 0.0
O892 O 0.37458 0.18349 0.25957 0.0
C893 C 0.42836 0.16198 0.29581 0.0
O894 O 0.38733 0.16567 0.26989 0.0
O895 O 0.42251 0.15853 0.28373 0.0
C896 C 0.67621 0.80964 0.59734 0.0
O897 O 0.68633 0.80143 0.60213 0.0
Cd898 Cd 0.70985 0.7972 0.59166 0.0
O899 O 0.67801 0.81743 0.58594 0.0
Cd900 Cd 0.69822 0.82261 0.56858 0.0
C901 C 0.7223 0.83234 0.59535 0.0
O902 O 0.70477 0.79723 0.56639 0.0
O903 O 0.71821 0.81169 0.55384 0.0
O904 O 0.67884 0.82761 0.55099 0.0
C905 C 0.7154 0.79874 0.55775 0.0
O906 O 0.72363 0.81882 0.5983 0.0
C907 C 0.6855 0.83814 0.54491 0.0
O908 O 0.71311 0.83675 0.58587 0.0
O909 O 0.69763 0.84194 0.55042 0.0
C910 C 0.66417 0.19743 0.38776 0.0
O911 O 0.67354 0.20536 0.38134 0.0
Cd912 Cd 0.69859 0.20687 0.38846 0.0
O913 O 0.66765 0.19025 0.39914 0.0
Cd914 Cd 0.68939 0.1869 0.41478 0.0
C915 C 0.70856 0.17073 0.38796 0.0
O916 O 0.70009 0.21131 0.41424 0.0
O917 O 0.71429 0.19373 0.42097 0.0
O918 O 0.67783 0.18965 0.43845 0.0
C919 C 0.7123 0.20733 0.4194 0.0
O920 O 0.70951 0.18328 0.38205 0.0
C921 C 0.6792 0.17637 0.44216 0.0
O922 O 0.70133 0.16883 0.39966 0.0
O923 O 0.685 0.16781 0.43294 0.0
C924 C 0.80194 0.67628 0.3902 0.0
O925 O 0.7945 0.68693 0.38531 0.0
Cd926 Cd 0.79117 0.71052 0.39594 0.0
O927 O 0.80956 0.67744 0.4018 0.0
Cd928 Cd 0.81571 0.69728 0.41919 0.0
C929 C 0.82678 0.7211 0.3926 0.0
O930 O 0.79068 0.70478 0.42111 0.0
O931 O 0.80526 0.71727 0.43447 0.0
O932 O 0.82078 0.67811 0.43703 0.0
C933 C 0.79233 0.71507 0.43011 0.0
O934 O 0.81343 0.72334 0.38944 0.0
C935 C 0.83194 0.68448 0.44227 0.0
O936 O 0.8304 0.71162 0.40212 0.0
O937 O 0.83585 0.69632 0.43623 0.0
C938 C 0.32244 0.79194 0.39323 0.0
O939 O 0.31307 0.78264 0.38908 0.0
Cd940 Cd 0.28824 0.78331 0.39672 0.0
O941 O 0.31939 0.80124 0.40311 0.0
Cd942 Cd 0.29881 0.80569 0.42029 0.0
C943 C 0.27885 0.81973 0.39311 0.0
O944 O 0.28811 0.78145 0.42268 0.0
O945 O 0.27417 0.79952 0.42848 0.0
O946 O 0.31282 0.80327 0.44246 0.0
C947 C 0.27616 0.78583 0.42811 0.0
O948 O 0.27792 0.80668 0.38837 0.0
C949 C 0.31116 0.81635 0.44669 0.0
O950 O 0.28616 0.82274 0.40453 0.0
O951 O 0.30422 0.82489 0.43825 0.0
C952 C 0.18582 0.31507 0.39477 0.0
O953 O 0.1935 0.30395 0.39169 0.0
Cd954 Cd 0.19433 0.28155 0.40497 0.0
O955 O 0.1773 0.31508 0.40576 0.0
Cd956 Cd 0.17011 0.29701 0.42461 0.0
C957 C 0.1583 0.27245 0.4 0.0
O958 O 0.19399 0.28711 0.43029 0.0
O959 O 0.17578 0.27399 0.43719 0.0
O960 O 0.17002 0.31489 0.44388 0.0
C961 C 0.18947 0.27605 0.43722 0.0
O962 O 0.17174 0.26938 0.39816 0.0
C963 C 0.15698 0.31258 0.44795 0.0
O964 O 0.15446 0.28304 0.40816 0.0
O965 O 0.14956 0.30358 0.44045 0.0
C966 C 0.31482 0.19193 0.5939 0.0
O967 O 0.30512 0.20128 0.5972 0.0
Cd968 Cd 0.28119 0.20315 0.58699 0.0
O969 O 0.31284 0.18274 0.58362 0.0
Cd970 Cd 0.29392 0.17776 0.56472 0.0
C971 C 0.27038 0.16719 0.5913 0.0
O972 O 0.28611 0.20276 0.56171 0.0
O973 O 0.27307 0.18718 0.55012 0.0
O974 O 0.31337 0.17368 0.54692 0.0
C975 C 0.27535 0.2004 0.55341 0.0
O976 O 0.2688 0.18065 0.5945 0.0
C977 C 0.3075 0.16233 0.54152 0.0
O978 O 0.27934 0.1632 0.58146 0.0
O979 O 0.29586 0.15779 0.54753 0.0
C980 C 0.79208 0.31744 0.6033 0.0
O981 O 0.78571 0.30583 0.60737 0.0
Cd982 Cd 0.78578 0.2832 0.59452 0.0
O983 O 0.79962 0.31775 0.59162 0.0
Cd984 Cd 0.80674 0.29955 0.57299 0.0
C985 C 0.82239 0.27647 0.59698 0.0
O986 O 0.78302 0.28853 0.56916 0.0
O987 O 0.80126 0.27598 0.56131 0.0
O988 O 0.80519 0.31653 0.55275 0.0
C989 C 0.78754 0.27772 0.56187 0.0
O990 O 0.80947 0.27233 0.6 0.0
C991 C 0.81833 0.31493 0.54867 0.0
O992 O 0.82457 0.28713 0.58834 0.0
O993 O 0.82636 0.30673 0.55644 0.0
C994 C 0.19143 0.66854 0.59868 0.0
O995 O 0.19895 0.67939 0.60291 0.0
Cd996 Cd 0.20061 0.70244 0.59078 0.0
O997 O 0.1838 0.66925 0.58709 0.0
Cd998 Cd 0.1783 0.6881 0.56858 0.0
C999 C 0.16438 0.71172 0.59306 0.0
O1000 O 0.20254 0.69832 0.56519 0.0
O1001 O 0.18471 0.71162 0.55756 0.0
O1002 O 0.17992 0.67163 0.54805 0.0
C1003 C 0.19838 0.7096 0.55836 0.0
O1004 O 0.1776 0.71458 0.5963 0.0
C1005 C 0.16686 0.67341 0.54379 0.0
O1006 O 0.16128 0.70157 0.58408 0.0
O1007 O 0.15874 0.68154 0.55155 0.0
C1008 C 0.40342 0.32454 0.16313 0.0
O1009 O 0.41547 0.32408 0.16975 0.0
Cd1010 Cd 0.41982 0.29857 0.16213 0.0
O1011 O 0.40015 0.31345 0.15563 0.0
Cd1012 Cd 0.42196 0.29534 0.15838 0.0
C1013 C 0.40189 0.27869 0.14086 0.0
O1014 O 0.4236 0.2872 0.18459 0.0
O1015 O 0.42157 0.26997 0.16887 0.0
O1016 O 0.44375 0.31024 0.16436 0.0
C1017 C 0.42315 0.27366 0.18211 0.0
O1018 O 0.39743 0.28579 0.15184 0.0
C1019 C 0.45063 0.30713 0.15278 0.0
O1020 O 0.4153 0.27967 0.13776 0.0
O1021 O 0.4441 0.29913 0.14354 0.0
C1022 C 0.6788 0.38432 0.19359 0.0
O1023 O 0.69055 0.37998 0.19956 0.0
Cd1024 Cd 0.71306 0.39285 0.20245 0.0
O1025 O 0.67794 0.39688 0.18761 0.0
Cd1026 Cd 0.69526 0.41718 0.1827 0.0
C1027 C 0.72051 0.39526 0.16595 0.0
O1028 O 0.7058 0.41721 0.20673 0.0
O1029 O 0.71615 0.43195 0.19173 0.0
O1030 O 0.67704 0.43627 0.1852 0.0
C1031 C 0.71549 0.42678 0.20454 0.0
O1032 O 0.72424 0.39072 0.17855 0.0
C1033 C 0.67859 0.44124 0.17235 0.0
O1034 O 0.70982 0.40403 0.16436 0.0
O1035 O 0.68734 0.43449 0.16399 0.0
C1036 C 0.6006 0.68022 0.18581 0.0
O1037 O 0.60544 0.69117 0.19282 0.0
Cd1038 Cd 0.59372 0.71429 0.19639 0.0
O1039 O 0.58833 0.68073 0.17926 0.0
Cd1040 Cd 0.56918 0.69935 0.17478 0.0
C1041 C 0.59269 0.72437 0.1603 0.0
O1042 O 0.56866 0.70895 0.19929 0.0
O1043 O 0.55534 0.72067 0.1839 0.0
O1044 O 0.54956 0.68183 0.17689 0.0
C1045 C 0.55984 0.71931 0.19692 0.0
O1046 O 0.59707 0.72668 0.17329 0.0
C1047 C 0.54461 0.68371 0.16409 0.0
O1048 O 0.5834 0.71436 0.15754 0.0
O1049 O 0.55159 0.69239 0.15583 0.0
C1050 C 0.31225 0.6036 0.19618 0.0
O1051 O 0.30115 0.60802 0.20323 0.0
Cd1052 Cd 0.27823 0.5957 0.20629 0.0
O1053 O 0.31208 0.5915 0.18933 0.0
Cd1054 Cd 0.29402 0.57217 0.18416 0.0
C1055 C 0.26885 0.5959 0.17016 0.0
O1056 O 0.2841 0.5706 0.20849 0.0
O1057 O 0.27314 0.55733 0.1925 0.0
O1058 O 0.3119 0.55273 0.18475 0.0
C1059 C 0.27409 0.56151 0.20566 0.0
O1060 O 0.26602 0.59988 0.18317 0.0
C1061 C 0.30988 0.54872 0.17163 0.0
O1062 O 0.27903 0.5868 0.1675 0.0
O1063 O 0.30094 0.55612 0.16405 0.0
C1064 C 0.39507 0.66591 0.79727 0.0
O1065 O 0.39355 0.67559 0.78748 0.0
Cd1066 Cd 0.40399 0.69935 0.78886 0.0
O1067 O 0.40371 0.66788 0.808 0.0
Cd1068 Cd 0.42193 0.68661 0.81541 0.0
C1069 C 0.39423 0.70847 0.8243 0.0
O1070 O 0.4295 0.69593 0.7917 0.0
O1071 O 0.43284 0.71044 0.80981 0.0
O1072 O 0.44042 0.66793 0.81938 0.0
C1073 C 0.43476 0.70782 0.79637 0.0
O1074 O 0.39319 0.71091 0.81063 0.0
C1075 C 0.4449 0.67322 0.83139 0.0
O1076 O 0.40327 0.69912 0.82919 0.0
O1077 O 0.43798 0.68413 0.83641 0.0
C1078 C 0.31468 0.39189 0.80599 0.0
O1079 O 0.30492 0.38701 0.79742 0.0
Cd1080 Cd 0.2819 0.39749 0.79101 0.0
O1081 O 0.31285 0.40371 0.81311 0.0
Cd1082 Cd 0.29256 0.42134 0.81627 0.0
C1083 C 0.2679 0.39472 0.82541 0.0
O1084 O 0.28705 0.42275 0.7906 0.0
O1085 O 0.27308 0.43573 0.80413 0.0
O1086 O 0.31082 0.43993 0.82188 0.0
C1087 C 0.27636 0.4314 0.79143 0.0
O1088 O 0.26688 0.39144 0.81194 0.0
C1089 C 0.30362 0.44535 0.83243 0.0
O1090 O 0.27702 0.40426 0.82984 0.0
O1091 O 0.29181 0.43898 0.83592 0.0
C1092 C 0.60127 0.31927 0.78956 0.0
O1093 O 0.60623 0.30857 0.78227 0.0
Cd1094 Cd 0.59646 0.28434 0.7823 0.0
O1095 O 0.59022 0.31773 0.79783 0.0
Cd1096 Cd 0.57396 0.29754 0.80512 0.0
C1097 C 0.60117 0.27698 0.81873 0.0
O1098 O 0.57049 0.28569 0.78162 0.0
O1099 O 0.56489 0.27285 0.80054 0.0
O1100 O 0.55185 0.31184 0.8042 0.0
C1101 C 0.56502 0.27407 0.78676 0.0
O1102 O 0.60415 0.27381 0.80552 0.0
C1103 C 0.54885 0.31068 0.81767 0.0
O1104 O 0.59141 0.28639 0.82178 0.0
O1105 O 0.55788 0.30376 0.82559 0.0
C1106 C 0.6723 0.59338 0.7937 0.0
O1107 O 0.68168 0.59541 0.7837 0.0
Cd1108 Cd 0.706 0.586 0.78438 0.0
O1109 O 0.67499 0.58487 0.80438 0.0
Cd1110 Cd 0.69477 0.56796 0.81182 0.0
C1111 C 0.71593 0.59684 0.81921 0.0
O1112 O 0.7041 0.56048 0.78822 0.0
O1113 O 0.71887 0.55757 0.80628 0.0
O1114 O 0.67859 0.54745 0.81424 0.0
C1115 C 0.71614 0.55552 0.79286 0.0
O1116 O 0.71785 0.59767 0.80544 0.0
C1117 C 0.68176 0.54453 0.8274 0.0
O1118 O 0.70717 0.58752 0.82467 0.0
O1119 O 0.69047 0.55318 0.83387 0.0
C1120 C 0.19282 0.39028 0.31705 0.0
O1121 O 0.20171 0.38522 0.30769 0.0
Cd1122 Cd 0.20362 0.39288 0.28284 0.0
O1123 O 0.18448 0.40101 0.31405 0.0
Cd1124 Cd 0.18061 0.41834 0.29351 0.0
C1125 C 0.16775 0.39128 0.27153 0.0
O1126 O 0.20556 0.41864 0.28506 0.0
O1127 O 0.19052 0.43094 0.27183 0.0
O1128 O 0.18014 0.43995 0.30875 0.0
C1129 C 0.20349 0.42667 0.27402 0.0
O1130 O 0.18051 0.38575 0.27137 0.0
C1131 C 0.16698 0.44326 0.30592 0.0
O1132 O 0.16497 0.40286 0.27867 0.0
O1133 O 0.15989 0.43461 0.29773 0.0
C1134 C 0.57908 0.17098 0.32526 0.0
O1135 O 0.56719 0.17781 0.32415 0.0
Cd1136 Cd 0.56164 0.16642 0.30043 0.0
O1137 O 0.58175 0.16166 0.31546 0.0
Cd1138 Cd 0.55975 0.16096 0.29767 0.0
C1139 C 0.58311 0.14598 0.28297 0.0
O1140 O 0.55459 0.18639 0.28731 0.0
O1141 O 0.55905 0.16971 0.2715 0.0
O1142 O 0.53908 0.16389 0.31477 0.0
C1143 C 0.55571 0.18291 0.27403 0.0
O1144 O 0.58441 0.15926 0.28661 0.0
C1145 C 0.53211 0.15288 0.31012 0.0
O1146 O 0.57147 0.13954 0.28669 0.0
O1147 O 0.53822 0.1452 0.30032 0.0
C1148 C 0.79358 0.5931 0.32196 0.0
O1149 O 0.78351 0.59635 0.31302 0.0
Cd1150 Cd 0.78324 0.58805 0.28825 0.0
O1151 O 0.80345 0.58394 0.31852 0.0
Cd1152 Cd 0.80901 0.56758 0.29785 0.0
C1153 C 0.81852 0.5968 0.27814 0.0
O1154 O 0.7848 0.56211 0.28847 0.0
O1155 O 0.80257 0.55899 0.27336 0.0
O1156 O 0.81079 0.54595 0.31269 0.0
C1157 C 0.7891 0.55749 0.27616 0.0
O1158 O 0.80486 0.59894 0.27655 0.0
C1159 C 0.82394 0.54306 0.30942 0.0
O1160 O 0.82322 0.58652 0.28622 0.0
O1161 O 0.83053 0.55203 0.30116 0.0
C1162 C 0.39685 0.79543 0.31466 0.0
O1163 O 0.3932 0.78781 0.30368 0.0
Cd1164 Cd 0.40515 0.78744 0.28049 0.0
O1165 O 0.40772 0.80407 0.31408 0.0
Cd1166 Cd 0.42533 0.81164 0.29498 0.0
C1167 C 0.39923 0.82342 0.27196 0.0
O1168 O 0.43083 0.78804 0.28422 0.0
O1169 O 0.43641 0.80674 0.27112 0.0
O1170 O 0.4461 0.81178 0.31112 0.0
C1171 C 0.43695 0.79302 0.27286 0.0
O1172 O 0.39731 0.81 0.26885 0.0
C1173 C 0.44928 0.82513 0.30928 0.0
O1174 O 0.40795 0.82722 0.2821 0.0
O1175 O 0.44074 0.83261 0.30132 0.0
C1176 C 0.18441 0.58961 0.67276 0.0
O1177 O 0.19469 0.59125 0.6819 0.0
Cd1178 Cd 0.19366 0.58267 0.70639 0.0
O1179 O 0.17323 0.58192 0.67585 0.0
Cd1180 Cd 0.16521 0.56559 0.69605 0.0
C1181 C 0.15926 0.59524 0.71641 0.0
O1182 O 0.18895 0.55734 0.70455 0.0
O1183 O 0.17142 0.55504 0.71994 0.0
O1184 O 0.15978 0.54741 0.67756 0.0
C1185 C 0.18471 0.55274 0.71686 0.0
O1186 O 0.1731 0.59554 0.71795 0.0
C1187 C 0.14809 0.54295 0.68351 0.0
O1188 O 0.15322 0.58591 0.70806 0.0
O1189 O 0.14385 0.54968 0.69486 0.0
C1190 C 0.38313 0.19101 0.67809 0.0
O1191 O 0.37857 0.19915 0.68833 0.0
Cd1192 Cd 0.39029 0.20192 0.71148 0.0
O1193 O 0.39449 0.18318 0.67975 0.0
Cd1194 Cd 0.41133 0.17838 0.70037 0.0
C1195 C 0.38491 0.16721 0.72321 0.0
O1196 O 0.41618 0.20359 0.70776 0.0
O1197 O 0.42181 0.18702 0.72342 0.0
O1198 O 0.43048 0.17403 0.68232 0.0
C1199 C 0.42255 0.20026 0.71956 0.0
O1200 O 0.38276 0.1807 0.72575 0.0
C1201 C 0.43572 0.16301 0.68889 0.0
O1202 O 0.39376 0.16321 0.71328 0.0
O1203 O 0.42919 0.15881 0.70036 0.0
C1204 C 0.78949 0.39659 0.67763 0.0
O1205 O 0.77989 0.39381 0.68725 0.0
Cd1206 Cd 0.7797 0.40354 0.71148 0.0
O1207 O 0.79956 0.40591 0.67996 0.0
Cd1208 Cd 0.80715 0.42372 0.69881 0.0
C1209 C 0.81543 0.39519 0.72092 0.0
O1210 O 0.7828 0.42878 0.70711 0.0
O1211 O 0.79954 0.43908 0.71982 0.0
O1212 O 0.81216 0.43991 0.67835 0.0
C1213 C 0.78606 0.43678 0.71787 0.0
O1214 O 0.80175 0.39325 0.72271 0.0
C1215 C 0.8238 0.44509 0.68381 0.0
O1216 O 0.82022 0.40507 0.71239 0.0
O1217 O 0.828 0.43981 0.69594 0.0
C1218 C 0.59195 0.80255 0.66423 0.0
O1219 O 0.5942 0.79119 0.67184 0.0
Cd1220 Cd 0.58675 0.78882 0.69674 0.0
O1221 O 0.584 0.81288 0.66906 0.0
Cd1222 Cd 0.56843 0.81763 0.69064 0.0
C1223 C 0.59932 0.82208 0.70958 0.0
O1224 O 0.56117 0.79296 0.69783 0.0
O1225 O 0.55973 0.8095 0.71445 0.0
O1226 O 0.54869 0.82461 0.67438 0.0
C1227 C 0.5574 0.79639 0.7107 0.0
O1228 O 0.59998 0.80817 0.70989 0.0
C1229 C 0.54497 0.83582 0.68164 0.0
O1230 O 0.58936 0.82861 0.7024 0.0
O1231 O 0.55273 0.83904 0.69267 0.0
C1232 C 0.30509 0.19753 0.38428 0.0
O1233 O 0.29337 0.20389 0.38047 0.0
Cd1234 Cd 0.27056 0.20406 0.39314 0.0
O1235 O 0.30577 0.19002 0.39597 0.0
Cd1236 Cd 0.2889 0.18247 0.41566 0.0
C1237 C 0.26563 0.16697 0.39101 0.0
O1238 O 0.27718 0.20572 0.41799 0.0
O1239 O 0.26748 0.1888 0.43108 0.0
O1240 O 0.30775 0.18491 0.43394 0.0
C1241 C 0.26757 0.20208 0.42719 0.0
O1242 O 0.26136 0.17981 0.3878 0.0
C1243 C 0.30684 0.17189 0.4386 0.0
O1244 O 0.27597 0.1649 0.40011 0.0
O1245 O 0.29806 0.1634 0.43201 0.0
C1246 C 0.3114 0.79889 0.6045 0.0
O1247 O 0.30052 0.7918 0.60939 0.0
Cd1248 Cd 0.27715 0.78844 0.59828 0.0
O1249 O 0.31062 0.80608 0.59259 0.0
Cd1250 Cd 0.2911 0.81176 0.57466 0.0
C1251 C 0.26709 0.82423 0.60042 0.0
O1252 O 0.28326 0.78669 0.57324 0.0
O1253 O 0.27105 0.8013 0.55962 0.0
O1254 O 0.31067 0.81556 0.55691 0.0
C1255 C 0.27314 0.78839 0.56405 0.0
O1256 O 0.26444 0.81101 0.60381 0.0
C1257 C 0.30457 0.82648 0.55091 0.0
O1258 O 0.27689 0.8274 0.59108 0.0
O1259 O 0.29272 0.83094 0.55652 0.0
C1260 C 0.18966 0.3137 0.59481 0.0
O1261 O 0.20034 0.30508 0.59664 0.0
Cd1262 Cd 0.20045 0.28067 0.58751 0.0
O1263 O 0.17886 0.31008 0.58683 0.0
Cd1264 Cd 0.17187 0.28966 0.57053 0.0
C1265 C 0.16683 0.26914 0.60028 0.0
O1266 O 0.19609 0.28282 0.56194 0.0
O1267 O 0.17944 0.26653 0.55919 0.0
O1268 O 0.16413 0.30848 0.55349 0.0
C1269 C 0.19246 0.27053 0.55679 0.0
O1270 O 0.18068 0.26784 0.60061 0.0
C1271 C 0.15277 0.30175 0.54929 0.0
O1272 O 0.16067 0.27731 0.59089 0.0
O1273 O 0.15004 0.28957 0.55531 0.0
C1274 C 0.67235 0.18531 0.60011 0.0
O1275 O 0.68158 0.19437 0.60513 0.0
Cd1276 Cd 0.70549 0.1991 0.59562 0.0
O1277 O 0.67526 0.1777 0.58883 0.0
Cd1278 Cd 0.69559 0.17458 0.57136 0.0
C1279 C 0.71869 0.16404 0.59839 0.0
O1280 O 0.70186 0.2002 0.57006 0.0
O1281 O 0.71619 0.18589 0.55821 0.0
O1282 O 0.67689 0.17103 0.55285 0.0
C1283 C 0.71294 0.19879 0.56194 0.0
O1284 O 0.71949 0.17743 0.60207 0.0
C1285 C 0.68348 0.16061 0.54651 0.0
O1286 O 0.71012 0.15987 0.58826 0.0
O1287 O 0.69523 0.15611 0.55234 0.0
C1288 C 0.79307 0.67762 0.59696 0.0
O1289 O 0.78378 0.6875 0.5998 0.0
Cd1290 Cd 0.78532 0.7115 0.58968 0.0
O1291 O 0.80291 0.67966 0.58736 0.0
Cd1292 Cd 0.80965 0.69847 0.56923 0.0
C1293 C 0.82169 0.71944 0.59656 0.0
O1294 O 0.78596 0.70899 0.56383 0.0
O1295 O 0.80447 0.72262 0.55877 0.0
O1296 O 0.80868 0.6816 0.54915 0.0
C1297 C 0.7908 0.72053 0.55797 0.0
O1298 O 0.80822 0.72198 0.59901 0.0
C1299 C 0.82179 0.68336 0.54508 0.0
O1300 O 0.82555 0.71046 0.58668 0.0
O1301 O 0.82972 0.69177 0.55274 0.0
C1302 C 0.67262 0.7928 0.39006 0.0
O1303 O 0.6833 0.78458 0.38683 0.0
Cd1304 Cd 0.70642 0.78402 0.39882 0.0
O1305 O 0.67346 0.80177 0.40065 0.0
Cd1306 Cd 0.69242 0.809 0.41851 0.0
C1307 C 0.71531 0.81971 0.39168 0.0
O1308 O 0.70264 0.7853 0.4245 0.0
O1309 O 0.71612 0.80385 0.42975 0.0
O1310 O 0.67593 0.80953 0.43903 0.0
C1311 C 0.71403 0.79019 0.43062 0.0
O1312 O 0.71822 0.80621 0.39006 0.0
C1313 C 0.67815 0.82279 0.44236 0.0
O1314 O 0.70547 0.82388 0.4006 0.0
O1315 O 0.68645 0.83009 0.43398 0.0
C1316 C 0.17829 0.67764 0.3855 0.0
O1317 O 0.186 0.68803 0.38047 0.0
Cd1318 Cd 0.19163 0.71076 0.39202 0.0
O1319 O 0.17193 0.67867 0.39784 0.0
Cd1320 Cd 0.16902 0.69772 0.41683 0.0
C1321 C 0.15647 0.72328 0.3928 0.0
O1322 O 0.19461 0.7038 0.41671 0.0
O1323 O 0.18184 0.71655 0.43161 0.0
O1324 O 0.16513 0.67752 0.43381 0.0
C1325 C 0.19424 0.71378 0.4262 0.0
O1326 O 0.16957 0.72502 0.38849 0.0
C1327 C 0.1551 0.684 0.44086 0.0
O1328 O 0.15323 0.71347 0.40212 0.0
O1329 O 0.15117 0.69645 0.43623 0.0
C1330 C 0.82541 0.32231 0.39944 0.0
O1331 O 0.81702 0.32187 0.41032 0.0
Cd1332 Cd 0.82177 0.2957 0.4139 0.0
O1333 O 0.83263 0.31085 0.39678 0.0
Cd1334 Cd 0.82577 0.29213 0.41752 0.0
C1335 C 0.84066 0.27497 0.39473 0.0
O1336 O 0.79826 0.28765 0.41391 0.0
O1337 O 0.81029 0.27081 0.42488 0.0
O1338 O 0.82641 0.31123 0.43668 0.0
C1339 C 0.79812 0.27535 0.42011 0.0
O1340 O 0.8307 0.2837 0.39085 0.0
C1341 C 0.83438 0.30385 0.44525 0.0
O1342 O 0.8436 0.27441 0.40819 0.0
O1343 O 0.83853 0.2914 0.44084 0.0
C1344 C 0.10204 0.22479 0.35198 0.0
C1345 C 0.10428 0.22986 0.3377 0.0
C1346 C 0.10882 0.23167 0.36389 0.0
C1347 C 0.11798 0.24385 0.3614 0.0
C1348 C 0.11955 0.24951 0.34711 0.0
C1349 C 0.1127 0.24244 0.33545 0.0
C1350 C 0.10681 0.22542 0.379 0.0
C1351 C 0.12916 0.26256 0.344 0.0
C1352 C 0.13277 0.26899 0.39073 0.0
C1353 C 0.14722 0.26403 0.39182 0.0
C1354 C 0.12274 0.26198 0.38151 0.0
C1355 C 0.12731 0.24975 0.37324 0.0
C1356 C 0.1416 0.24417 0.37501 0.0
C1357 C 0.15137 0.25138 0.38426 0.0
C1358 C 0.10754 0.26815 0.37997 0.0
C1359 C 0.14688 0.2311 0.36645 0.0
H1360 H 0.09547 0.21512 0.35381 0.0
H1361 H 0.1143 0.24657 0.32448 0.0
H1362 H 0.117 0.21983 0.38243 0.0
H1363 H 0.10465 0.23423 0.38702 0.0
H1364 H 0.09772 0.2174 0.37944 0.0
H1365 H 0.12819 0.26635 0.33252 0.0
H1366 H 0.12631 0.27175 0.35135 0.0
H1367 H 0.14073 0.25967 0.34612 0.0
H1368 H 0.12944 0.27871 0.39661 0.0
H1369 H 0.16245 0.24733 0.38521 0.0
H1370 H 0.09928 0.2593 0.38024 0.0
H1371 H 0.10652 0.27372 0.36927 0.0
H1372 H 0.10499 0.27616 0.38871 0.0
H1373 H 0.13905 0.22192 0.36749 0.0
H1374 H 0.1578 0.2273 0.37012 0.0
H1375 H 0.14757 0.23396 0.3547 0.0
C1376 C 0.72353 0.14832 0.39104 0.0
C1377 C 0.7168 0.15843 0.38174 0.0
C1378 C 0.73249 0.13726 0.38542 0.0
C1379 C 0.73433 0.13603 0.37014 0.0
C1380 C 0.72706 0.14587 0.36067 0.0
C1381 C 0.71859 0.15715 0.36662 0.0
C1382 C 0.74043 0.12728 0.39587 0.0
C1383 C 0.7284 0.1446 0.3443 0.0
C1384 C 0.76836 0.11824 0.35476 0.0
C1385 C 0.76343 0.10406 0.35196 0.0
C1386 C 0.75908 0.12865 0.36106 0.0
C1387 C 0.7444 0.12489 0.36407 0.0
C1388 C 0.73934 0.11058 0.36115 0.0
C1389 C 0.74903 0.10023 0.35536 0.0
C1390 C 0.765 0.14366 0.36445 0.0
C1391 C 0.72364 0.10633 0.36379 0.0
H1392 H 0.72226 0.14943 0.40275 0.0
H1393 H 0.71329 0.16494 0.35945 0.0
H1394 H 0.7378 0.11572 0.39345 0.0
H1395 H 0.75239 0.1286 0.39446 0.0
H1396 H 0.73762 0.12954 0.40745 0.0
H1397 H 0.72103 0.15228 0.33848 0.0
H1398 H 0.73979 0.14691 0.34092 0.0
H1399 H 0.72581 0.1333 0.34077 0.0
H1400 H 0.77954 0.12114 0.35216 0.0
H1401 H 0.74521 0.08928 0.353 0.0
H1402 H 0.76298 0.14637 0.37609 0.0
H1403 H 0.75926 0.15196 0.35777 0.0
H1404 H 0.7769 0.14452 0.36227 0.0
H1405 H 0.72078 0.10791 0.37544 0.0
H1406 H 0.72143 0.09479 0.36079 0.0
H1407 H 0.71632 0.11349 0.35731 0.0
C1408 C 0.83443 0.74114 0.37584 0.0
C1409 C 0.8382 0.72903 0.3844 0.0
C1410 C 0.84474 0.74792 0.36683 0.0
C1411 C 0.85915 0.74238 0.36628 0.0
C1412 C 0.86321 0.73055 0.37534 0.0
C1413 C 0.85268 0.72403 0.38436 0.0
C1414 C 0.84005 0.76065 0.35745 0.0
C1415 C 0.87847 0.72434 0.37499 0.0
C1416 C 0.87775 0.74946 0.33013 0.0
C1417 C 0.88616 0.76183 0.33331 0.0
C1418 C 0.86947 0.74257 0.34098 0.0
C1419 C 0.86952 0.74829 0.35533 0.0
C1420 C 0.8785 0.76036 0.35879 0.0
C1421 C 0.88678 0.76697 0.34773 0.0
C1422 C 0.86015 0.72959 0.33692 0.0
C1423 C 0.87878 0.76676 0.37397 0.0
H1424 H 0.8233 0.74517 0.37593 0.0
H1425 H 0.85567 0.71468 0.39096 0.0
H1426 H 0.84763 0.76998 0.35892 0.0
H1427 H 0.84046 0.75747 0.34577 0.0
H1428 H 0.82879 0.76436 0.36002 0.0
H1429 H 0.88027 0.71611 0.38373 0.0
H1430 H 0.88044 0.71905 0.36428 0.0
H1431 H 0.88666 0.73316 0.37621 0.0
H1432 H 0.87734 0.74532 0.31906 0.0
H1433 H 0.89327 0.77653 0.35028 0.0
H1434 H 0.84844 0.73257 0.33775 0.0
H1435 H 0.86211 0.72043 0.3446 0.0
H1436 H 0.86233 0.72572 0.32564 0.0
H1437 H 0.8681 0.77195 0.37636 0.0
H1438 H 0.88748 0.77511 0.37526 0.0
H1439 H 0.88048 0.75806 0.38222 0.0
C1440 C 0.23819 0.88781 0.35623 0.0
C1441 C 0.22471 0.88327 0.35068 0.0
C1442 C 0.24764 0.87781 0.36297 0.0
C1443 C 0.24316 0.86311 0.36471 0.0
C1444 C 0.22933 0.85861 0.35945 0.0
C1445 C 0.2204 0.8687 0.35219 0.0
C1446 C 0.26252 0.88288 0.36793 0.0
C1447 C 0.22394 0.84318 0.36159 0.0
C1448 C 0.27058 0.8326 0.37064 0.0
C1449 C 0.27046 0.83132 0.38585 0.0
C1450 C 0.26215 0.8433 0.36363 0.0
C1451 C 0.25291 0.85242 0.37204 0.0
C1452 C 0.25271 0.85106 0.38743 0.0
C1453 C 0.26173 0.8407 0.39418 0.0
C1454 C 0.26307 0.8448 0.34724 0.0
C1455 C 0.24262 0.86019 0.39673 0.0
H1456 H 0.24155 0.89907 0.35486 0.0
H1457 H 0.2099 0.86527 0.34791 0.0
H1458 H 0.26366 0.88137 0.37988 0.0
H1459 H 0.27112 0.87618 0.36263 0.0
H1460 H 0.26452 0.89455 0.3653 0.0
H1461 H 0.21258 0.84169 0.3576 0.0
H1462 H 0.23112 0.83543 0.35569 0.0
H1463 H 0.22435 0.84024 0.37333 0.0
H1464 H 0.27741 0.82534 0.36426 0.0
H1465 H 0.26155 0.83952 0.40596 0.0
H1466 H 0.26542 0.8563 0.34424 0.0
H1467 H 0.25245 0.84188 0.34223 0.0
H1468 H 0.27166 0.8377 0.34246 0.0
H1469 H 0.24493 0.87196 0.3951 0.0
H1470 H 0.24367 0.85765 0.40854 0.0
H1471 H 0.23113 0.8583 0.39337 0.0
C1472 C 0.15598 0.73281 0.60809 0.0
C1473 C 0.15258 0.72014 0.6002 0.0
C1474 C 0.14521 0.74046 0.61576 0.0
C1475 C 0.13066 0.73527 0.61563 0.0
C1476 C 0.12702 0.72279 0.60729 0.0
C1477 C 0.13803 0.71538 0.59961 0.0
C1478 C 0.14952 0.7538 0.62444 0.0
C1479 C 0.11162 0.71694 0.60694 0.0
C1480 C 0.11008 0.74595 0.64971 0.0
C1481 C 0.10251 0.75841 0.64504 0.0
C1482 C 0.11861 0.73781 0.64 0.0
C1483 C 0.11968 0.74229 0.62526 0.0
C1484 C 0.11144 0.75437 0.62027 0.0
C1485 C 0.10288 0.76229 0.63023 0.0
C1486 C 0.1271 0.72488 0.64572 0.0
C1487 C 0.11233 0.75946 0.60462 0.0
H1488 H 0.16716 0.73668 0.60846 0.0
H1489 H 0.13531 0.70561 0.59351 0.0
H1490 H 0.14239 0.76316 0.62157 0.0
H1491 H 0.14805 0.75162 0.63626 0.0
H1492 H 0.16106 0.75701 0.62254 0.0
H1493 H 0.11028 0.70805 0.5988 0.0
H1494 H 0.10868 0.71262 0.61787 0.0
H1495 H 0.10379 0.7258 0.60435 0.0
H1496 H 0.10968 0.74277 0.6611 0.0
H1497 H 0.09703 0.77189 0.62654 0.0
H1498 H 0.13894 0.72744 0.6456 0.0
H1499 H 0.12541 0.71523 0.63861 0.0
H1500 H 0.12393 0.72195 0.65705 0.0
H1501 H 0.12323 0.7643 0.60257 0.0
H1502 H 0.10389 0.76778 0.60204 0.0
H1503 H 0.11104 0.75011 0.59703 0.0
C1504 C 0.26602 0.14123 0.5987 0.0
C1505 C 0.26222 0.15604 0.59969 0.0
C1506 C 0.25932 0.13076 0.60766 0.0
C1507 C 0.24851 0.13522 0.61775 0.0
C1508 C 0.24412 0.15002 0.61827 0.0
C1509 C 0.25106 0.16026 0.60928 0.0
C1510 C 0.26431 0.11507 0.60683 0.0
C1511 C 0.23253 0.15517 0.62881 0.0
C1512 C 0.22398 0.10811 0.63735 0.0
C1513 C 0.23054 0.10763 0.65117 0.0
C1514 C 0.22996 0.11669 0.62612 0.0
C1515 C 0.24283 0.1248 0.6288 0.0
C1516 C 0.24986 0.12377 0.64251 0.0
C1517 C 0.2436 0.11525 0.65353 0.0
C1518 C 0.22216 0.11756 0.61163 0.0
C1519 C 0.26372 0.13212 0.64574 0.0
H1520 H 0.2746 0.13785 0.59129 0.0
H1521 H 0.24793 0.17165 0.61 0.0
H1522 H 0.2703 0.1122 0.61696 0.0
H1523 H 0.2548 0.10763 0.60603 0.0
H1524 H 0.27162 0.1131 0.59736 0.0
H1525 H 0.22941 0.16674 0.62692 0.0
H1526 H 0.22261 0.14828 0.62786 0.0
H1527 H 0.2366 0.1541 0.64017 0.0
H1528 H 0.21387 0.10226 0.63546 0.0
H1529 H 0.24884 0.11479 0.66414 0.0
H1530 H 0.22991 0.11563 0.60253 0.0
H1531 H 0.21759 0.12868 0.61016 0.0
H1532 H 0.21311 0.10954 0.61081 0.0
H1533 H 0.27206 0.12986 0.63726 0.0
H1534 H 0.26837 0.12931 0.65658 0.0
H1535 H 0.26145 0.14402 0.64551 0.0
C1536 C 0.84906 0.2749 0.60298 0.0
C1537 C 0.83492 0.26907 0.60401 0.0
C1538 C 0.86079 0.26849 0.61049 0.0
C1539 C 0.85829 0.25595 0.61916 0.0
C1540 C 0.84418 0.2497 0.61977 0.0
C1541 C 0.83267 0.25635 0.61222 0.0
C1542 C 0.8757 0.27545 0.60961 0.0
C1543 C 0.8411 0.23627 0.62883 0.0
C1544 C 0.88835 0.23134 0.63349 0.0
C1545 C 0.88881 0.23552 0.64821 0.0
C1546 C 0.879 0.23842 0.62361 0.0
C1547 C 0.87003 0.24997 0.6286 0.0
C1548 C 0.8712 0.25485 0.64321 0.0
C1549 C 0.88054 0.24754 0.65283 0.0
C1550 C 0.87807 0.23296 0.60809 0.0
C1551 C 0.86193 0.26724 0.64892 0.0
H1552 H 0.85091 0.2847 0.59662 0.0
H1553 H 0.82183 0.25168 0.61297 0.0
H1554 H 0.8786 0.28018 0.62037 0.0
H1555 H 0.88409 0.26713 0.60696 0.0
H1556 H 0.87615 0.28425 0.60128 0.0
H1557 H 0.82978 0.23219 0.62734 0.0
H1558 H 0.84881 0.22739 0.62593 0.0
H1559 H 0.84275 0.2388 0.64056 0.0
H1560 H 0.89474 0.22207 0.62983 0.0
H1561 H 0.88099 0.25097 0.66415 0.0
H1562 H 0.87838 0.24221 0.60029 0.0
H1563 H 0.86753 0.22722 0.60647 0.0
H1564 H 0.88707 0.22528 0.60542 0.0
H1565 H 0.86269 0.27683 0.64156 0.0
H1566 H 0.8652 0.27064 0.66009 0.0
H1567 H 0.85032 0.2638 0.64921 0.0
C1568 C 0.77173 0.88814 0.64209 0.0
C1569 C 0.76692 0.88692 0.65658 0.0
C1570 C 0.76474 0.88047 0.6308 0.0
C1571 C 0.75259 0.87153 0.6341 0.0
C1572 C 0.74736 0.87069 0.64862 0.0
C1573 C 0.75464 0.87833 0.65968 0.0
C1574 C 0.77067 0.88153 0.61546 0.0
C1575 C 0.73433 0.86138 0.65254 0.0
C1576 C 0.72661 0.85758 0.60497 0.0
C1577 C 0.73103 0.84297 0.60379 0.0
C1578 C 0.73388 0.86724 0.61441 0.0
C1579 C 0.74591 0.86217 0.62268 0.0
C1580 C 0.75088 0.84765 0.62091 0.0
C1581 C 0.74334 0.83822 0.61156 0.0
C1582 C 0.72824 0.88263 0.61606 0.0
C1583 C 0.7638 0.84188 0.6294 0.0
H1584 H 0.78122 0.89476 0.6396 0.0
H1585 H 0.75075 0.87746 0.67083 0.0
H1586 H 0.77512 0.87077 0.61209 0.0
H1587 H 0.76182 0.88435 0.6077 0.0
H1588 H 0.77948 0.88981 0.61451 0.0
H1589 H 0.73103 0.86273 0.66413 0.0
H1590 H 0.7249 0.86418 0.64548 0.0
H1591 H 0.73694 0.8497 0.65063 0.0
H1592 H 0.7171 0.86131 0.59901 0.0
H1593 H 0.74692 0.82698 0.61056 0.0
H1594 H 0.7373 0.8906 0.61504 0.0
H1595 H 0.72347 0.88401 0.62711 0.0
H1596 H 0.71974 0.88531 0.60784 0.0
H1597 H 0.7733 0.84929 0.62816 0.0
H1598 H 0.76706 0.83076 0.62581 0.0
H1599 H 0.76106 0.84145 0.64119 0.0
C1600 C 0.34178 0.10751 0.21213 0.0
C1601 C 0.3272 0.10475 0.21591 0.0
C1602 C 0.34982 0.11843 0.21924 0.0
C1603 C 0.34318 0.12662 0.23054 0.0
C1604 C 0.32848 0.1239 0.2344 0.0
C1605 C 0.32063 0.11306 0.22696 0.0
C1606 C 0.36543 0.12118 0.2147 0.0
C1607 C 0.32111 0.13227 0.24654 0.0
C1608 C 0.36832 0.14435 0.25823 0.0
C1609 C 0.3683 0.15895 0.2536 0.0
C1610 C 0.36005 0.13375 0.25091 0.0
C1611 C 0.35175 0.13781 0.23854 0.0
C1612 C 0.3517 0.15251 0.23378 0.0
C1613 C 0.35989 0.16294 0.24144 0.0
C1614 C 0.3602 0.11821 0.25643 0.0
C1615 C 0.34311 0.15719 0.22051 0.0
H1616 H 0.3469 0.1012 0.20353 0.0
H1617 H 0.30939 0.11094 0.22998 0.0
H1618 H 0.36686 0.1328 0.21159 0.0
H1619 H 0.37287 0.119 0.224 0.0
H1620 H 0.3688 0.11422 0.20535 0.0
H1621 H 0.30958 0.12889 0.24813 0.0
H1622 H 0.32711 0.13057 0.25692 0.0
H1623 H 0.32137 0.14414 0.24414 0.0
H1624 H 0.37471 0.1412 0.26768 0.0
H1625 H 0.35989 0.17419 0.23776 0.0
H1626 H 0.36454 0.11084 0.24786 0.0
H1627 H 0.34891 0.1146 0.25891 0.0
H1628 H 0.36696 0.11693 0.26641 0.0
H1629 H 0.34682 0.15096 0.21081 0.0
H1630 H 0.34429 0.16904 0.21819 0.0
H1631 H 0.33136 0.15471 0.22209 0.0
C1632 C 0.8734 0.32186 0.23788 0.0
C1633 C 0.88085 0.32605 0.22519 0.0
C1634 C 0.86556 0.3321 0.24612 0.0
C1635 C 0.86499 0.3468 0.2414 0.0
C1636 C 0.87274 0.35116 0.22878 0.0
C1637 C 0.88068 0.34074 0.22088 0.0
C1638 C 0.85761 0.32713 0.25969 0.0
C1639 C 0.87224 0.36671 0.22333 0.0
C1640 C 0.8321 0.36897 0.25308 0.0
C1641 C 0.83795 0.37756 0.26431 0.0
C1642 C 0.84084 0.35902 0.24544 0.0
C1643 C 0.85573 0.35748 0.24928 0.0
C1644 C 0.8617 0.36609 0.26062 0.0
C1645 C 0.85276 0.37613 0.26793 0.0
C1646 C 0.83415 0.35015 0.23326 0.0
C1647 C 0.87749 0.36459 0.26511 0.0
H1648 H 0.87358 0.31054 0.24133 0.0
H1649 H 0.88637 0.34404 0.21105 0.0
H1650 H 0.86072 0.33406 0.26912 0.0
H1651 H 0.84567 0.32835 0.25811 0.0
H1652 H 0.85998 0.31555 0.26242 0.0
H1653 H 0.87935 0.36844 0.21366 0.0
H1654 H 0.86087 0.36961 0.22033 0.0
H1655 H 0.8757 0.37433 0.23208 0.0
H1656 H 0.82069 0.37009 0.25018 0.0
H1657 H 0.85732 0.38267 0.27667 0.0
H1658 H 0.83496 0.33834 0.23582 0.0
H1659 H 0.84024 0.35202 0.22296 0.0
H1660 H 0.82249 0.3529 0.23141 0.0
H1661 H 0.87971 0.3532 0.2686 0.0
H1662 H 0.88043 0.37206 0.2742 0.0
H1663 H 0.88473 0.36692 0.25569 0.0
C1664 C 0.66789 0.87477 0.23743 0.0
C1665 C 0.66388 0.88356 0.22554 0.0
C1666 C 0.65763 0.86593 0.24453 0.0
C1667 C 0.64303 0.86571 0.23952 0.0
C1668 C 0.63886 0.8746 0.22758 0.0
C1669 C 0.64932 0.88351 0.22079 0.0
C1670 C 0.66245 0.85675 0.25737 0.0
C1671 C 0.6234 0.87453 0.22186 0.0
C1672 C 0.62083 0.83219 0.2495 0.0
C1673 C 0.61257 0.83732 0.26133 0.0
C1674 C 0.63056 0.84141 0.24209 0.0
C1675 C 0.63219 0.85606 0.24675 0.0
C1676 C 0.62386 0.86132 0.25864 0.0
C1677 C 0.61409 0.85191 0.26573 0.0
C1678 C 0.63916 0.83546 0.22935 0.0
C1679 C 0.62546 0.87682 0.26403 0.0
H1680 H 0.67909 0.87482 0.24124 0.0
H1681 H 0.64616 0.89022 0.21157 0.0
H1682 H 0.65572 0.85937 0.26709 0.0
H1683 H 0.66078 0.84502 0.2549 0.0
H1684 H 0.67412 0.85848 0.26015 0.0
H1685 H 0.6219 0.88214 0.21254 0.0
H1686 H 0.62041 0.86336 0.21826 0.0
H1687 H 0.6157 0.87763 0.23067 0.0
H1688 H 0.61964 0.82096 0.24597 0.0
H1689 H 0.60778 0.85596 0.27489 0.0
H1690 H 0.651 0.83586 0.23185 0.0
H1691 H 0.63732 0.84232 0.21954 0.0
H1692 H 0.63615 0.82402 0.22671 0.0
H1693 H 0.63684 0.87873 0.26769 0.0
H1694 H 0.61797 0.87929 0.27324 0.0
H1695 H 0.62323 0.88461 0.25503 0.0
C1696 C 0.1065 0.64137 0.21521 0.0
C1697 C 0.1057 0.65619 0.21896 0.0
C1698 C 0.11542 0.63171 0.22308 0.0
C1699 C 0.12353 0.63697 0.23513 0.0
C1700 C 0.12273 0.6519 0.23901 0.0
C1701 C 0.11392 0.66136 0.23081 0.0
C1702 C 0.11618 0.6159 0.21849 0.0
C1703 C 0.13106 0.65786 0.25193 0.0
C1704 C 0.13564 0.60973 0.2639 0.0
C1705 C 0.15047 0.60799 0.26051 0.0
C1706 C 0.12675 0.61916 0.25574 0.0
C1707 C 0.13278 0.62684 0.24377 0.0
C1708 C 0.14769 0.62499 0.24017 0.0
C1709 C 0.15639 0.61568 0.24866 0.0
C1710 C 0.11094 0.62102 0.26003 0.0
C1711 C 0.15445 0.63285 0.22735 0.0
H1712 H 0.10025 0.63732 0.20601 0.0
H1713 H 0.11328 0.67278 0.23383 0.0
H1714 H 0.12766 0.61283 0.21615 0.0
H1715 H 0.11233 0.60879 0.22751 0.0
H1716 H 0.10947 0.61363 0.20864 0.0
H1717 H 0.12915 0.66972 0.25358 0.0
H1718 H 0.1278 0.65198 0.26201 0.0
H1719 H 0.14293 0.65604 0.2504 0.0
H1720 H 0.13101 0.60388 0.27309 0.0
H1721 H 0.16782 0.61431 0.24592 0.0
H1722 H 0.10375 0.61794 0.2508 0.0
H1723 H 0.10872 0.63265 0.26259 0.0
H1724 H 0.10796 0.6143 0.26968 0.0
H1725 H 0.14836 0.63022 0.21721 0.0
H1726 H 0.1661 0.62989 0.22576 0.0
H1727 H 0.15369 0.64482 0.22898 0.0
C1728 C 0.34802 0.87217 0.76772 0.0
C1729 C 0.33349 0.87406 0.76327 0.0
C1730 C 0.3572 0.86218 0.76067 0.0
C1731 C 0.35179 0.85405 0.74871 0.0
C1732 C 0.33717 0.85595 0.74408 0.0
C1733 C 0.32814 0.86585 0.75151 0.0
C1734 C 0.37267 0.86028 0.76606 0.0
C1735 C 0.3311 0.8476 0.73123 0.0
C1736 C 0.37982 0.8384 0.72255 0.0
C1737 C 0.38027 0.82372 0.72689 0.0
C1738 C 0.37043 0.84835 0.72942 0.0
C1739 C 0.36148 0.84355 0.74106 0.0
C1740 C 0.36198 0.82879 0.74558 0.0
C1741 C 0.37129 0.81902 0.73836 0.0
C1742 C 0.37004 0.86398 0.72418 0.0
C1743 C 0.35277 0.82334 0.75812 0.0
H1744 H 0.3522 0.8784 0.77688 0.0
H1745 H 0.31694 0.86732 0.74797 0.0
H1746 H 0.37459 0.84871 0.76908 0.0
H1747 H 0.38049 0.86304 0.75724 0.0
H1748 H 0.37509 0.86724 0.77569 0.0
H1749 H 0.31956 0.85049 0.72889 0.0
H1750 H 0.33774 0.84986 0.72135 0.0
H1751 H 0.33175 0.8357 0.73335 0.0
H1752 H 0.38665 0.84208 0.71361 0.0
H1753 H 0.37164 0.80771 0.74181 0.0
H1754 H 0.37332 0.87142 0.73316 0.0
H1755 H 0.35876 0.86698 0.72097 0.0
H1756 H 0.3774 0.86586 0.71473 0.0
H1757 H 0.35538 0.82959 0.76817 0.0
H1758 H 0.3545 0.81155 0.76034 0.0
H1759 H 0.34104 0.82514 0.75573 0.0
C1760 C 0.15062 0.36968 0.72979 0.0
C1761 C 0.15203 0.38485 0.72876 0.0
C1762 C 0.13972 0.36344 0.73853 0.0
C1763 C 0.1305 0.37262 0.74689 0.0
C1764 C 0.13204 0.38798 0.74597 0.0
C1765 C 0.14263 0.39392 0.73665 0.0
C1766 C 0.13805 0.34704 0.73881 0.0
C1767 C 0.12278 0.39809 0.75512 0.0
C1768 C 0.09465 0.35764 0.76123 0.0
C1769 C 0.09875 0.35275 0.7751 0.0
C1770 C 0.10491 0.36406 0.75185 0.0
C1771 C 0.11942 0.36612 0.75676 0.0
C1772 C 0.12345 0.36165 0.77101 0.0
C1773 C 0.11311 0.3547 0.77991 0.0
C1774 C 0.10035 0.36817 0.73655 0.0
C1775 C 0.13867 0.36415 0.77682 0.0
H1776 H 0.15791 0.36273 0.72358 0.0
H1777 H 0.1439 0.40567 0.7359 0.0
H1778 H 0.14052 0.34283 0.74989 0.0
H1779 H 0.12661 0.34399 0.73626 0.0
H1780 H 0.1454 0.34154 0.73088 0.0
H1781 H 0.12555 0.40976 0.75332 0.0
H1782 H 0.11106 0.39647 0.75257 0.0
H1783 H 0.12429 0.39552 0.76686 0.0
H1784 H 0.08354 0.35593 0.75751 0.0
H1785 H 0.1162 0.35093 0.7907 0.0
H1786 H 0.10713 0.36216 0.72852 0.0
H1787 H 0.10221 0.37998 0.73467 0.0
H1788 H 0.08868 0.3657 0.7344 0.0
H1789 H 0.14663 0.35765 0.77044 0.0
H1790 H 0.13968 0.36108 0.78851 0.0
H1791 H 0.14172 0.37581 0.77559 0.0
C1792 C 0.61619 0.13725 0.71567 0.0
C1793 C 0.60223 0.13996 0.72125 0.0
C1794 C 0.62659 0.12965 0.72394 0.0
C1795 C 0.62306 0.12517 0.7383 0.0
C1796 C 0.60898 0.12803 0.74403 0.0
C1797 C 0.59862 0.13517 0.7353 0.0
C1798 C 0.6413 0.12636 0.71728 0.0
C1799 C 0.60499 0.12382 0.75946 0.0
C1800 C 0.64499 0.09492 0.75611 0.0
C1801 C 0.65539 0.10288 0.764 0.0
C1802 C 0.6345 0.10205 0.74754 0.0
C1803 C 0.63412 0.11749 0.74732 0.0
C1804 C 0.64442 0.12558 0.75554 0.0
C1805 C 0.65514 0.11815 0.76358 0.0
C1806 C 0.62402 0.09306 0.73853 0.0
C1807 C 0.64404 0.14205 0.75593 0.0
H1808 H 0.61891 0.14092 0.70475 0.0
H1809 H 0.58784 0.13744 0.73964 0.0
H1810 H 0.65002 0.1319 0.72357 0.0
H1811 H 0.64351 0.11445 0.71779 0.0
H1812 H 0.64203 0.12994 0.70571 0.0
H1813 H 0.59372 0.1272 0.76238 0.0
H1814 H 0.60591 0.11184 0.76087 0.0
H1815 H 0.61272 0.12896 0.76724 0.0
H1816 H 0.6453 0.08309 0.75635 0.0
H1817 H 0.66314 0.12427 0.7698 0.0
H1818 H 0.62501 0.09609 0.72684 0.0
H1819 H 0.61263 0.09535 0.74188 0.0
H1820 H 0.62604 0.08115 0.73963 0.0
H1821 H 0.64604 0.14649 0.74485 0.0
H1822 H 0.65233 0.14666 0.76348 0.0
H1823 H 0.63308 0.14585 0.75941 0.0
C1824 C 0.88557 0.64559 0.74565 0.0
C1825 C 0.8936 0.64152 0.75803 0.0
C1826 C 0.87678 0.6355 0.7383 0.0
C1827 C 0.87597 0.62097 0.74348 0.0
C1828 C 0.88494 0.61648 0.75523 0.0
C1829 C 0.89369 0.62684 0.76239 0.0
C1830 C 0.86749 0.64071 0.7257 0.0
C1831 C 0.8845 0.60103 0.76093 0.0
C1832 C 0.83834 0.60527 0.73783 0.0
C1833 C 0.84011 0.59737 0.72484 0.0
C1834 C 0.85017 0.61226 0.74447 0.0
C1835 C 0.86415 0.61135 0.73798 0.0
C1836 C 0.86624 0.60264 0.72539 0.0
C1837 C 0.85416 0.59573 0.71894 0.0
C1838 C 0.84749 0.62135 0.75798 0.0
C1839 C 0.88103 0.6013 0.71826 0.0
H1840 H 0.88565 0.65686 0.74204 0.0
H1841 H 0.89995 0.62358 0.77189 0.0
H1842 H 0.86839 0.63309 0.71633 0.0
H1843 H 0.85587 0.64095 0.72909 0.0
H1844 H 0.87063 0.65182 0.72198 0.0
H1845 H 0.89393 0.59861 0.76815 0.0
H1846 H 0.87432 0.59939 0.76728 0.0
H1847 H 0.88441 0.59307 0.7518 0.0
H1848 H 0.82757 0.6064 0.7426 0.0
H1849 H 0.85564 0.58956 0.70896 0.0
H1850 H 0.8491 0.63307 0.75536 0.0
H1851 H 0.85542 0.61844 0.76666 0.0
H1852 H 0.83628 0.61991 0.76235 0.0
H1853 H 0.88368 0.61164 0.71254 0.0
H1854 H 0.88135 0.59227 0.71017 0.0
H1855 H 0.88964 0.59943 0.72657 0.0
C1856 C 0.24099 0.32991 0.11586 0.0
C1857 C 0.2286 0.33407 0.1079 0.0
C1858 C 0.24903 0.34017 0.12384 0.0
C1859 C 0.24442 0.35491 0.12405 0.0
C1860 C 0.23212 0.35927 0.11576 0.0
C1861 C 0.2244 0.34879 0.10768 0.0
C1862 C 0.26223 0.33516 0.13236 0.0
C1863 C 0.22681 0.37487 0.11588 0.0
C1864 C 0.25579 0.37585 0.1578 0.0
C1865 C 0.26781 0.38379 0.15267 0.0
C1866 C 0.24776 0.36681 0.14844 0.0
C1867 C 0.25201 0.36551 0.13365 0.0
C1868 C 0.26398 0.3737 0.12832 0.0
C1869 C 0.27169 0.38284 0.13789 0.0
C1870 C 0.23492 0.3584 0.15447 0.0
C1871 C 0.26893 0.37243 0.11265 0.0
H1872 H 0.24438 0.31857 0.11594 0.0
H1873 H 0.21481 0.35204 0.10157 0.0
H1874 H 0.27184 0.34199 0.12958 0.0
H1875 H 0.26018 0.33647 0.14422 0.0
H1876 H 0.26497 0.32355 0.13019 0.0
H1877 H 0.21761 0.37665 0.10818 0.0
H1878 H 0.22314 0.37782 0.12703 0.0
H1879 H 0.23583 0.3824 0.11296 0.0
H1880 H 0.25264 0.37666 0.16918 0.0
H1881 H 0.281 0.38894 0.13387 0.0
H1882 H 0.23723 0.34652 0.154 0.0
H1883 H 0.22507 0.36042 0.14773 0.0
H1884 H 0.23245 0.36138 0.16596 0.0
H1885 H 0.27273 0.36113 0.11049 0.0
H1886 H 0.27794 0.38011 0.11004 0.0
H1887 H 0.25968 0.3746 0.10514 0.0
C1888 C 0.21903 0.64218 0.88437 0.0
C1889 C 0.22374 0.65676 0.88459 0.0
C1890 C 0.22568 0.63188 0.87518 0.0
C1891 C 0.23738 0.63625 0.8661 0.0
C1892 C 0.24248 0.65083 0.86661 0.0
C1893 C 0.23556 0.66092 0.8758 0.0
C1894 C 0.21989 0.61645 0.87485 0.0
C1895 C 0.25501 0.65587 0.85715 0.0
C1896 C 0.26222 0.60826 0.84818 0.0
C1897 C 0.25683 0.60821 0.83385 0.0
C1898 C 0.25579 0.6171 0.85895 0.0
C1899 C 0.24364 0.62593 0.85529 0.0
C1900 C 0.23783 0.62547 0.84099 0.0
C1901 C 0.24453 0.61667 0.83044 0.0
C1902 C 0.26231 0.61738 0.87408 0.0
C1903 C 0.22477 0.63458 0.83671 0.0
H1904 H 0.20991 0.63885 0.89114 0.0
H1905 H 0.23937 0.67212 0.87599 0.0
H1906 H 0.21511 0.61414 0.86397 0.0
H1907 H 0.2289 0.60854 0.87657 0.0
H1908 H 0.21138 0.61455 0.88328 0.0
H1909 H 0.2583 0.66729 0.85957 0.0
H1910 H 0.26461 0.64865 0.85873 0.0
H1911 H 0.25186 0.65517 0.84548 0.0
H1912 H 0.27173 0.60177 0.85088 0.0
H1913 H 0.24021 0.61657 0.81943 0.0
H1914 H 0.25375 0.61526 0.88238 0.0
H1915 H 0.26686 0.62837 0.87634 0.0
H1916 H 0.27115 0.60919 0.87543 0.0
H1917 H 0.21556 0.63251 0.84428 0.0
H1918 H 0.22107 0.6323 0.82539 0.0
H1919 H 0.22755 0.64634 0.83754 0.0
C1920 C 0.38562 0.26959 0.84967 0.0
C1921 C 0.38592 0.26614 0.83475 0.0
C1922 C 0.37637 0.26208 0.85929 0.0
C1923 C 0.3674 0.25073 0.85389 0.0
C1924 C 0.36805 0.24685 0.83895 0.0
C1925 C 0.37722 0.25468 0.82954 0.0
C1926 C 0.37582 0.26663 0.87513 0.0
C1927 C 0.3588 0.23465 0.83283 0.0
C1928 C 0.35 0.22347 0.87982 0.0
C1929 C 0.33555 0.2285 0.88025 0.0
C1930 C 0.36061 0.23075 0.87148 0.0
C1931 C 0.35667 0.24345 0.86361 0.0
C1932 C 0.34223 0.24886 0.86444 0.0
C1933 C 0.33182 0.24126 0.87267 0.0
C1934 C 0.37587 0.22458 0.8707 0.0
C1935 C 0.33768 0.26251 0.85638 0.0
H1936 H 0.39228 0.27847 0.85376 0.0
H1937 H 0.37751 0.25187 0.81805 0.0
H1938 H 0.36483 0.271 0.87772 0.0
H1939 H 0.37766 0.25706 0.88231 0.0
H1940 H 0.38407 0.27511 0.87776 0.0
H1941 H 0.36135 0.23233 0.8212 0.0
H1942 H 0.36044 0.22452 0.83926 0.0
H1943 H 0.34708 0.2376 0.83367 0.0
H1944 H 0.35294 0.21358 0.88562 0.0
H1945 H 0.32069 0.24528 0.87307 0.0
H1946 H 0.38398 0.23306 0.87365 0.0
H1947 H 0.37827 0.2211 0.85935 0.0
H1948 H 0.37736 0.21505 0.87806 0.0
H1949 H 0.34507 0.27168 0.85919 0.0
H1950 H 0.32629 0.26579 0.85893 0.0
H1951 H 0.33857 0.26069 0.84444 0.0
C1952 C 0.71709 0.37605 0.84352 0.0
C1953 C 0.72095 0.37902 0.82901 0.0
C1954 C 0.72431 0.36521 0.85155 0.0
C1955 C 0.73578 0.35724 0.84496 0.0
C1956 C 0.73954 0.35994 0.83022 0.0
C1957 C 0.73202 0.37076 0.82239 0.0
C1958 C 0.71989 0.36255 0.86722 0.0
C1959 C 0.7518 0.35173 0.82288 0.0
C1960 C 0.76389 0.34233 0.87135 0.0
C1961 C 0.75965 0.32766 0.87259 0.0
C1962 C 0.75648 0.35193 0.86203 0.0
C1963 C 0.74443 0.3468 0.85386 0.0
C1964 C 0.74027 0.33194 0.85478 0.0
C1965 C 0.748 0.32251 0.86409 0.0
C1966 C 0.76136 0.36766 0.86121 0.0
C1967 C 0.7274 0.32613 0.8463 0.0
H1968 H 0.70845 0.38228 0.84869 0.0
H1969 H 0.73508 0.37299 0.81118 0.0
H1970 H 0.71754 0.35079 0.86896 0.0
H1971 H 0.72902 0.36553 0.8746 0.0
H1972 H 0.71011 0.36897 0.8704 0.0
H1973 H 0.75277 0.35448 0.81111 0.0
H1974 H 0.76229 0.35437 0.82834 0.0
H1975 H 0.7501 0.33979 0.82396 0.0
H1976 H 0.77297 0.34637 0.87777 0.0
H1977 H 0.74465 0.3112 0.86501 0.0
H1978 H 0.75261 0.37488 0.86546 0.0
H1979 H 0.76337 0.37082 0.84969 0.0
H1980 H 0.77146 0.3697 0.8676 0.0
H1981 H 0.71725 0.33157 0.85006 0.0
H1982 H 0.72607 0.31414 0.8476 0.0
H1983 H 0.72866 0.32864 0.83452 0.0
C1984 C 0.61043 0.73887 0.8321 0.0
C1985 C 0.60176 0.72644 0.83425 0.0
C1986 C 0.61839 0.74501 0.8436 0.0
C1987 C 0.61774 0.73852 0.85761 0.0
C1988 C 0.60838 0.72649 0.86008 0.0
C1989 C 0.60045 0.72059 0.84835 0.0
C1990 C 0.62813 0.75797 0.84054 0.0
C1991 C 0.60735 0.71934 0.87489 0.0
C1992 C 0.65301 0.74412 0.87816 0.0
C1993 C 0.64974 0.75641 0.88667 0.0
C1994 C 0.64235 0.73756 0.86939 0.0
C1995 C 0.62808 0.74348 0.86907 0.0
C1996 C 0.62444 0.75525 0.87839 0.0
C1997 C 0.63533 0.76157 0.88713 0.0
C1998 C 0.64664 0.72489 0.85974 0.0
C1999 C 0.60932 0.76179 0.8784 0.0
H2000 H 0.61135 0.74358 0.82128 0.0
H2001 H 0.59373 0.71101 0.85011 0.0
H2002 H 0.62612 0.76675 0.84863 0.0
H2003 H 0.63974 0.75465 0.84158 0.0
H2004 H 0.62642 0.76248 0.82942 0.0
H2005 H 0.59808 0.71156 0.87555 0.0
H2006 H 0.6176 0.71329 0.87715 0.0
H2007 H 0.60609 0.72768 0.88358 0.0
H2008 H 0.66407 0.73993 0.8779 0.0
H2009 H 0.6327 0.77103 0.89373 0.0
H2010 H 0.64666 0.72846 0.84817 0.0
H2011 H 0.63861 0.71588 0.86076 0.0
H2012 H 0.65765 0.72059 0.86245 0.0
H2013 H 0.60769 0.76814 0.86821 0.0
H2014 H 0.6076 0.76921 0.88784 0.0
H2015 H 0.60088 0.75311 0.87865 0.0
C2016 C 0.76778 0.63758 0.10712 0.0
C2017 C 0.76307 0.65214 0.10652 0.0
C2018 C 0.7607 0.6274 0.11614 0.0
C2019 C 0.7485 0.63186 0.12451 0.0
C2020 C 0.74343 0.64642 0.12357 0.0
C2021 C 0.75085 0.65641 0.11468 0.0
C2022 C 0.76653 0.61201 0.11704 0.0
C2023 C 0.73031 0.65153 0.13216 0.0
C2024 C 0.72204 0.60417 0.14034 0.0
C2025 C 0.72607 0.6042 0.15511 0.0
C2026 C 0.7295 0.61284 0.13013 0.0
C2027 C 0.74137 0.62156 0.1348 0.0
C2028 C 0.74585 0.62117 0.14958 0.0
C2029 C 0.73808 0.61257 0.15958 0.0
C2030 C 0.72432 0.61311 0.11449 0.0
C2031 C 0.75859 0.63016 0.15493 0.0
H2032 H 0.77726 0.63425 0.10088 0.0
H2033 H 0.74708 0.66762 0.11415 0.0
H2034 H 0.7704 0.60978 0.1283 0.0
H2035 H 0.75773 0.60405 0.11463 0.0
H2036 H 0.7757 0.61011 0.10934 0.0
H2037 H 0.72726 0.66297 0.12953 0.0
H2038 H 0.72081 0.64437 0.12991 0.0
H2039 H 0.73265 0.65081 0.14402 0.0
H2040 H 0.71275 0.59775 0.13681 0.0
H2041 H 0.74135 0.61253 0.17095 0.0
H2042 H 0.73353 0.61086 0.10697 0.0
H2043 H 0.7201 0.62414 0.1118 0.0
H2044 H 0.71553 0.60501 0.11242 0.0
H2045 H 0.76835 0.6281 0.14806 0.0
H2046 H 0.7614 0.62774 0.16648 0.0
H2047 H 0.75595 0.64194 0.15401 0.0
C2048 C 0.34424 0.76805 0.10302 0.0
C2049 C 0.3298 0.76293 0.1032 0.0
C2050 C 0.35494 0.76172 0.11199 0.0
C2051 C 0.35113 0.74989 0.12117 0.0
C2052 C 0.3367 0.74439 0.12105 0.0
C2053 C 0.32619 0.75104 0.11214 0.0
C2054 C 0.37019 0.76796 0.11196 0.0
C2055 C 0.33227 0.73165 0.13054 0.0
C2056 C 0.38033 0.72519 0.13714 0.0
C2057 C 0.38092 0.7301 0.15164 0.0
C2058 C 0.3709 0.73173 0.12699 0.0
C2059 C 0.36203 0.74358 0.13139 0.0
C2060 C 0.36296 0.74892 0.14586 0.0
C2061 C 0.37232 0.74206 0.15584 0.0
C2062 C 0.37008 0.72565 0.11169 0.0
C2063 C 0.35381 0.76167 0.15091 0.0
H2064 H 0.34709 0.77727 0.09618 0.0
H2065 H 0.31509 0.74694 0.11224 0.0
H2066 H 0.37277 0.77246 0.1229 0.0
H2067 H 0.37828 0.75924 0.10968 0.0
H2068 H 0.37154 0.77677 0.10374 0.0
H2069 H 0.32082 0.72819 0.12856 0.0
H2070 H 0.33958 0.72221 0.12852 0.0
H2071 H 0.33341 0.73466 0.14222 0.0
H2072 H 0.38691 0.71593 0.13383 0.0
H2073 H 0.37282 0.746 0.16698 0.0
H2074 H 0.37182 0.73446 0.10357 0.0
H2075 H 0.35904 0.72108 0.10972 0.0
H2076 H 0.37827 0.71692 0.10977 0.0
H2077 H 0.35534 0.77112 0.14349 0.0
H2078 H 0.35655 0.76512 0.16221 0.0
H2079 H 0.34208 0.75867 0.15055 0.0
C2080 C 0.64486 0.21282 0.10856 0.0
C2081 C 0.6593 0.21747 0.1065 0.0
C2082 C 0.63586 0.21952 0.11899 0.0
C2083 C 0.6414 0.23126 0.12737 0.0
C2084 C 0.65592 0.23607 0.12526 0.0
C2085 C 0.66473 0.22905 0.11491 0.0
C2086 C 0.62047 0.21402 0.12108 0.0
C2087 C 0.66213 0.24869 0.13386 0.0
C2088 C 0.61464 0.25777 0.14446 0.0
C2089 C 0.61475 0.25332 0.15912 0.0
C2090 C 0.62322 0.25064 0.134 0.0
C2091 C 0.63197 0.23866 0.13827 0.0
C2092 C 0.63199 0.23396 0.15299 0.0
C2093 C 0.62344 0.24142 0.16327 0.0
C2094 C 0.62308 0.25607 0.11843 0.0
C2095 C 0.64107 0.2211 0.15788 0.0
H2096 H 0.64062 0.20382 0.10215 0.0
H2097 H 0.67585 0.23275 0.11331 0.0
H2098 H 0.61882 0.21064 0.1326 0.0
H2099 H 0.61256 0.22289 0.11878 0.0
H2100 H 0.61792 0.2046 0.11388 0.0
H2101 H 0.67361 0.25115 0.13081 0.0
H2102 H 0.65543 0.25861 0.13204 0.0
H2103 H 0.66174 0.24621 0.14571 0.0
H2104 H 0.608 0.267 0.14118 0.0
H2105 H 0.6235 0.23787 0.17455 0.0
H2106 H 0.61971 0.24716 0.11096 0.0
H2107 H 0.63424 0.25946 0.11516 0.0
H2108 H 0.61558 0.26547 0.11688 0.0
H2109 H 0.63825 0.21131 0.15133 0.0
H2110 H 0.63947 0.21852 0.16962 0.0
H2111 H 0.65281 0.22341 0.156 0.0
C2112 C 0.87482 0.74615 0.65906 0.0
C2113 C 0.883 0.75865 0.65568 0.0
C2114 C 0.86571 0.73962 0.64865 0.0
C2115 C 0.86465 0.74581 0.63454 0.0
C2116 C 0.87318 0.75817 0.6309 0.0
C2117 C 0.88232 0.76442 0.64151 0.0
C2118 C 0.8569 0.72635 0.6529 0.0
C2119 C 0.87227 0.7651 0.61598 0.0
C2120 C 0.84752 0.72211 0.60518 0.0
C2121 C 0.83293 0.72675 0.6056 0.0
C2122 C 0.85808 0.72845 0.61429 0.0
C2123 C 0.85396 0.73978 0.62394 0.0
C2124 C 0.83936 0.74482 0.62409 0.0
C2125 C 0.82901 0.73821 0.61497 0.0
C2126 C 0.87354 0.72274 0.6139 0.0
C2127 C 0.83458 0.75697 0.63416 0.0
H2128 H 0.87537 0.74153 0.66994 0.0
H2129 H 0.88859 0.77408 0.63882 0.0
H2130 H 0.84509 0.72902 0.65262 0.0
H2131 H 0.85875 0.71738 0.64497 0.0
H2132 H 0.85967 0.72233 0.664 0.0
H2133 H 0.8803 0.77407 0.61457 0.0
H2134 H 0.87417 0.7568 0.60737 0.0
H2135 H 0.86115 0.76958 0.61425 0.0
H2136 H 0.85065 0.71326 0.59797 0.0
H2137 H 0.81779 0.74196 0.61528 0.0
H2138 H 0.87627 0.71766 0.62455 0.0
H2139 H 0.88133 0.73184 0.61216 0.0
H2140 H 0.87517 0.71449 0.60516 0.0
H2141 H 0.83577 0.75344 0.64568 0.0
H2142 H 0.82304 0.76022 0.63231 0.0
H2143 H 0.84163 0.7667 0.63262 0.0
C2144 C 0.22162 0.88714 0.64147 0.0
C2145 C 0.2254 0.8865 0.6563 0.0
C2146 C 0.22842 0.87801 0.63122 0.0
C2147 C 0.23938 0.86819 0.63591 0.0
C2148 C 0.24365 0.86792 0.65076 0.0
C2149 C 0.23654 0.87702 0.6608 0.0
C2150 C 0.2235 0.87848 0.6155 0.0
C2151 C 0.25543 0.85772 0.65613 0.0
C2152 C 0.2463 0.83282 0.61574 0.0
C2153 C 0.25924 0.83598 0.60819 0.0
C2154 C 0.23942 0.84342 0.62433 0.0
C2155 C 0.24573 0.85747 0.62556 0.0
C2156 C 0.25852 0.86089 0.6176 0.0
C2157 C 0.26508 0.85011 0.60891 0.0
C2158 C 0.22565 0.83943 0.63248 0.0
C2159 C 0.2656 0.87572 0.61876 0.0
H2160 H 0.213 0.89442 0.63792 0.0
H2161 H 0.23961 0.87657 0.67221 0.0
H2162 H 0.233 0.87992 0.60815 0.0
H2163 H 0.21826 0.86796 0.61258 0.0
H2164 H 0.21558 0.88744 0.61343 0.0
H2165 H 0.25822 0.85963 0.66778 0.0
H2166 H 0.25177 0.84624 0.6549 0.0
H2167 H 0.26547 0.85904 0.64948 0.0
H2168 H 0.24166 0.82196 0.61511 0.0
H2169 H 0.27511 0.8526 0.60314 0.0
H2170 H 0.21694 0.84754 0.63023 0.0
H2171 H 0.22777 0.83962 0.64441 0.0
H2172 H 0.22156 0.82841 0.62948 0.0
H2173 H 0.25751 0.88445 0.61656 0.0
H2174 H 0.27488 0.87699 0.61106 0.0
H2175 H 0.2697 0.87739 0.63004 0.0
C2176 C 0.11322 0.22128 0.65013 0.0
C2177 C 0.11375 0.22608 0.66466 0.0
C2178 C 0.12202 0.22774 0.63938 0.0
C2179 C 0.13137 0.23941 0.64323 0.0
C2180 C 0.13191 0.24434 0.65786 0.0
C2181 C 0.12318 0.23754 0.66842 0.0
C2182 C 0.12132 0.22207 0.62392 0.0
C2183 C 0.14159 0.25692 0.66232 0.0
C2184 C 0.16343 0.24946 0.61895 0.0
C2185 C 0.15773 0.26128 0.61106 0.0
C2186 C 0.15487 0.24204 0.62927 0.0
C2187 C 0.14038 0.24673 0.63191 0.0
C2188 C 0.13458 0.25864 0.62398 0.0
C2189 C 0.14329 0.2657 0.61357 0.0
C2190 C 0.16134 0.22923 0.63737 0.0
C2191 C 0.11925 0.26409 0.62666 0.0
H2192 H 0.10604 0.21235 0.64717 0.0
H2193 H 0.12359 0.24136 0.67961 0.0
H2194 H 0.11757 0.23085 0.61647 0.0
H2195 H 0.13236 0.21872 0.62024 0.0
H2196 H 0.11382 0.21261 0.62282 0.0
H2197 H 0.14073 0.25944 0.67415 0.0
H2198 H 0.15315 0.25438 0.65976 0.0
H2199 H 0.13862 0.26684 0.65603 0.0
H2200 H 0.17455 0.24593 0.61698 0.0
H2201 H 0.13884 0.27488 0.60758 0.0
H2202 H 0.15437 0.21943 0.63587 0.0
H2203 H 0.16167 0.23161 0.64924 0.0
H2204 H 0.17258 0.22662 0.63364 0.0
H2205 H 0.11128 0.25517 0.62474 0.0
H2206 H 0.11636 0.27345 0.61952 0.0
H2207 H 0.11807 0.26753 0.63821 0.0
C2208 C 0.75416 0.11392 0.6588 0.0
C2209 C 0.76622 0.10575 0.65412 0.0
C2210 C 0.74615 0.12247 0.64895 0.0
C2211 C 0.75047 0.12304 0.63412 0.0
C2212 C 0.76245 0.11458 0.62926 0.0
C2213 C 0.77012 0.10593 0.63931 0.0
C2214 C 0.73329 0.13117 0.65449 0.0
C2215 C 0.76748 0.11508 0.61358 0.0
C2216 C 0.72321 0.13852 0.60701 0.0
C2217 C 0.72746 0.15321 0.60651 0.0
C2218 C 0.73076 0.12845 0.61575 0.0
C2219 C 0.74297 0.13319 0.62396 0.0
C2220 C 0.74764 0.14788 0.62304 0.0
C2221 C 0.73975 0.15774 0.61442 0.0
C2222 C 0.72538 0.1129 0.61663 0.0
C2223 C 0.76076 0.15328 0.63145 0.0
H2224 H 0.75101 0.11371 0.6702 0.0
H2225 H 0.77946 0.09967 0.63564 0.0
H2226 H 0.73565 0.14301 0.65353 0.0
H2227 H 0.72349 0.12889 0.64776 0.0
H2228 H 0.73071 0.12869 0.66608 0.0
H2229 H 0.77646 0.10723 0.61138 0.0
H2230 H 0.75826 0.11261 0.60613 0.0
H2231 H 0.77136 0.12624 0.61091 0.0
H2232 H 0.71367 0.13498 0.60096 0.0
H2233 H 0.74317 0.16906 0.61397 0.0
H2234 H 0.72162 0.11053 0.62789 0.0
H2235 H 0.73438 0.10519 0.61415 0.0
H2236 H 0.71622 0.11077 0.60897 0.0
H2237 H 0.75858 0.15255 0.64334 0.0
H2238 H 0.76354 0.16477 0.62875 0.0
H2239 H 0.77038 0.14631 0.6291 0.0
C2240 C 0.8695 0.22155 0.33225 0.0
C2241 C 0.88477 0.22089 0.33218 0.0
C2242 C 0.86209 0.2301 0.34257 0.0
C2243 C 0.87019 0.23859 0.35264 0.0
C2244 C 0.88564 0.23815 0.3524 0.0
C2245 C 0.89274 0.22908 0.34233 0.0
C2246 C 0.84561 0.22992 0.34283 0.0
C2247 C 0.89466 0.24741 0.36263 0.0
C2248 C 0.85091 0.27093 0.36991 0.0
C2249 C 0.84831 0.26575 0.38405 0.0
C2250 C 0.85824 0.26228 0.35962 0.0
C2251 C 0.86254 0.24793 0.36345 0.0
C2252 C 0.85967 0.24257 0.37766 0.0
C2253 C 0.85282 0.25166 0.38789 0.0
C2254 C 0.86155 0.26855 0.34474 0.0
C2255 C 0.86367 0.22717 0.382 0.0
H2256 H 0.86336 0.21512 0.32444 0.0
H2257 H 0.90457 0.22865 0.34214 0.0
H2258 H 0.84169 0.22668 0.35383 0.0
H2259 H 0.84131 0.24102 0.34061 0.0
H2260 H 0.84096 0.22228 0.33464 0.0
H2261 H 0.90656 0.24625 0.36061 0.0
H2262 H 0.89164 0.25908 0.36137 0.0
H2263 H 0.89238 0.24433 0.37411 0.0
H2264 H 0.84747 0.28188 0.36699 0.0
H2265 H 0.85065 0.24763 0.39881 0.0
H2266 H 0.85609 0.26199 0.33616 0.0
H2267 H 0.87347 0.26804 0.34261 0.0
H2268 H 0.85791 0.28007 0.34368 0.0
H2269 H 0.85863 0.21928 0.37431 0.0
H2270 H 0.86007 0.22447 0.39326 0.0
H2271 H 0.87566 0.22567 0.38133 0.0
C2272 C 0.75083 0.87283 0.33244 0.0
C2273 C 0.76234 0.88104 0.33831 0.0
C2274 C 0.74277 0.86319 0.3412 0.0
C2275 C 0.74641 0.86163 0.35614 0.0
C2276 C 0.75797 0.86992 0.36214 0.0
C2277 C 0.76576 0.87957 0.35318 0.0
C2278 C 0.73043 0.85458 0.33445 0.0
C2279 C 0.76225 0.86845 0.378 0.0
C2280 C 0.71861 0.84512 0.38208 0.0
C2281 C 0.72336 0.83059 0.38285 0.0
C2282 C 0.72597 0.85536 0.37337 0.0
C2283 C 0.73844 0.85097 0.36538 0.0
C2284 C 0.74339 0.83637 0.36624 0.0
C2285 C 0.73576 0.82635 0.37491 0.0
C2286 C 0.72034 0.87084 0.37263 0.0
C2287 C 0.75675 0.83132 0.35799 0.0
H2288 H 0.74806 0.87396 0.321 0.0
H2289 H 0.77465 0.88585 0.35781 0.0
H2290 H 0.7328 0.84273 0.3352 0.0
H2291 H 0.72016 0.85659 0.34054 0.0
H2292 H 0.72866 0.85744 0.3228 0.0
H2293 H 0.77133 0.87588 0.38104 0.0
H2294 H 0.75274 0.87084 0.38511 0.0
H2295 H 0.76566 0.85705 0.38029 0.0
H2296 H 0.70901 0.84847 0.38813 0.0
H2297 H 0.73956 0.81516 0.37549 0.0
H2298 H 0.71765 0.87369 0.36117 0.0
H2299 H 0.72893 0.87854 0.37632 0.0
H2300 H 0.71046 0.87248 0.37946 0.0
H2301 H 0.75512 0.83296 0.3461 0.0
H2302 H 0.75926 0.81963 0.35998 0.0
H2303 H 0.76636 0.83794 0.36124 0.0
C2304 C 0.14841 0.74434 0.3776 0.0
C2305 C 0.14479 0.73191 0.38577 0.0
C2306 C 0.13795 0.75139 0.36897 0.0
C2307 C 0.12356 0.7458 0.36841 0.0
C2308 C 0.11959 0.73386 0.37737 0.0
C2309 C 0.13027 0.72707 0.38601 0.0
C2310 C 0.14258 0.76424 0.35972 0.0
C2311 C 0.10433 0.72764 0.37708 0.0
C2312 C 0.09643 0.76987 0.34842 0.0
C2313 C 0.09769 0.76447 0.33414 0.0
C2314 C 0.10424 0.76346 0.35995 0.0
C2315 C 0.11339 0.75134 0.35709 0.0
C2316 C 0.11397 0.74532 0.34287 0.0
C2317 C 0.10616 0.75199 0.33157 0.0
C2318 C 0.10335 0.77015 0.37498 0.0
C2319 C 0.12346 0.73228 0.33941 0.0
H2320 H 0.15957 0.74828 0.37753 0.0
H2321 H 0.12739 0.71749 0.39234 0.0
H2322 H 0.14261 0.76101 0.34805 0.0
H2323 H 0.13474 0.77338 0.36095 0.0
H2324 H 0.15366 0.76821 0.36262 0.0
H2325 H 0.1024 0.71993 0.38624 0.0
H2326 H 0.09608 0.73649 0.3776 0.0
H2327 H 0.10262 0.7217 0.36667 0.0
H2328 H 0.08987 0.7795 0.35049 0.0
H2329 H 0.10701 0.74763 0.3206 0.0
H2330 H 0.11373 0.77586 0.37746 0.0
H2331 H 0.10185 0.76157 0.38339 0.0
H2332 H 0.09427 0.77813 0.37587 0.0
H2333 H 0.13513 0.73533 0.34056 0.0
H2334 H 0.12167 0.72815 0.32815 0.0
H2335 H 0.12128 0.72329 0.34722 0.0
C2336 C 0.22805 0.10137 0.34658 0.0
C2337 C 0.23178 0.10324 0.33183 0.0
C2338 C 0.23402 0.11035 0.35744 0.0
C2339 C 0.24403 0.1214 0.35345 0.0
C2340 C 0.24841 0.12287 0.3387 0.0
C2341 C 0.2422 0.1138 0.32805 0.0
C2342 C 0.22907 0.10848 0.37305 0.0
C2343 C 0.25919 0.13446 0.33407 0.0
C2344 C 0.24614 0.15634 0.37533 0.0
C2345 C 0.25927 0.15451 0.38298 0.0
C2346 C 0.24081 0.14539 0.36611 0.0
C2347 C 0.24886 0.13232 0.3644 0.0
C2348 C 0.26181 0.13013 0.37254 0.0
C2349 C 0.26684 0.14125 0.38182 0.0
C2350 C 0.22683 0.14805 0.35777 0.0
C2351 C 0.27067 0.11633 0.37096 0.0
H2352 H 0.22005 0.0932 0.34964 0.0
H2353 H 0.24525 0.11524 0.31671 0.0
H2354 H 0.2386 0.108 0.3805 0.0
H2355 H 0.2224 0.11804 0.37634 0.0
H2356 H 0.22242 0.09845 0.37458 0.0
H2357 H 0.26246 0.1333 0.32245 0.0
H2358 H 0.25427 0.14542 0.3356 0.0
H2359 H 0.26913 0.13396 0.34097 0.0
H2360 H 0.24016 0.16651 0.37629 0.0
H2361 H 0.27702 0.13979 0.38766 0.0
H2362 H 0.2191 0.13889 0.35952 0.0
H2363 H 0.22919 0.14856 0.3459 0.0
H2364 H 0.2214 0.15838 0.36105 0.0
H2365 H 0.26362 0.10659 0.37236 0.0
H2366 H 0.27974 0.11577 0.379 0.0
H2367 H 0.27537 0.1158 0.35981 0.0
C2368 C 0.66284 0.86776 0.74907 0.0
C2369 C 0.65691 0.87527 0.76103 0.0
C2370 C 0.65411 0.85862 0.74042 0.0
C2371 C 0.63919 0.8568 0.74396 0.0
C2372 C 0.63323 0.86406 0.75622 0.0
C2373 C 0.64214 0.87329 0.76455 0.0
C2374 C 0.66077 0.85118 0.72731 0.0
C2375 C 0.6174 0.86221 0.76045 0.0
C2376 C 0.6119 0.84567 0.71493 0.0
C2377 C 0.61006 0.83076 0.71791 0.0
C2378 C 0.62167 0.85417 0.72307 0.0
C2379 C 0.62962 0.84766 0.73461 0.0
C2380 C 0.62796 0.83259 0.73756 0.0
C2381 C 0.61827 0.82429 0.7291 0.0
C2382 C 0.62331 0.87018 0.71948 0.0
C2383 C 0.63614 0.82532 0.7499 0.0
H2384 H 0.67423 0.8693 0.74626 0.0
H2385 H 0.63752 0.87897 0.77384 0.0
H2386 H 0.65917 0.8392 0.72805 0.0
H2387 H 0.65521 0.85492 0.71722 0.0
H2388 H 0.67264 0.85345 0.72626 0.0
H2389 H 0.61465 0.86809 0.77069 0.0
H2390 H 0.61027 0.86637 0.75159 0.0
H2391 H 0.61484 0.85046 0.76193 0.0
H2392 H 0.60568 0.85071 0.70622 0.0
H2393 H 0.61686 0.81278 0.73149 0.0
H2394 H 0.63497 0.87285 0.71758 0.0
H2395 H 0.61955 0.87689 0.72883 0.0
H2396 H 0.61695 0.87337 0.70966 0.0
H2397 H 0.64805 0.82706 0.74862 0.0
H2398 H 0.63399 0.8134 0.75046 0.0
H2399 H 0.6329 0.83032 0.76044 0.0
C2400 C 0.1563 0.61447 0.73556 0.0
C2401 C 0.15015 0.60591 0.72444 0.0
C2402 C 0.14789 0.62474 0.74317 0.0
C2403 C 0.13301 0.62661 0.73949 0.0
C2404 C 0.12669 0.61795 0.72835 0.0
C2405 C 0.13533 0.60765 0.72101 0.0
C2406 C 0.15497 0.63369 0.75507 0.0
C2407 C 0.11088 0.61974 0.72405 0.0
C2408 C 0.10846 0.64558 0.767 0.0
C2409 C 0.10847 0.65996 0.76174 0.0
C2410 C 0.11631 0.63455 0.7598 0.0
C2411 C 0.1242 0.63798 0.74697 0.0
C2412 C 0.12403 0.6524 0.74146 0.0
C2413 C 0.11623 0.66323 0.74894 0.0
C2414 C 0.11635 0.6193 0.76606 0.0
C2415 C 0.13221 0.65644 0.72772 0.0
H2416 H 0.16772 0.61313 0.73836 0.0
H2417 H 0.1305 0.60111 0.71241 0.0
H2418 H 0.15466 0.64543 0.75212 0.0
H2419 H 0.14883 0.63242 0.76543 0.0
H2420 H 0.16651 0.6305 0.75699 0.0
H2421 H 0.10755 0.61193 0.7154 0.0
H2422 H 0.10374 0.61813 0.73369 0.0
H2423 H 0.10899 0.63101 0.72002 0.0
H2424 H 0.10253 0.64297 0.7769 0.0
H2425 H 0.11621 0.67429 0.74473 0.0
H2426 H 0.12766 0.6161 0.76897 0.0
H2427 H 0.11241 0.6114 0.75777 0.0
H2428 H 0.10939 0.61836 0.77594 0.0
H2429 H 0.14407 0.65457 0.7293 0.0
H2430 H 0.13052 0.66804 0.72458 0.0
H2431 H 0.12864 0.6494 0.71854 0.0
C2432 C 0.32764 0.11283 0.75858 0.0
C2433 C 0.33339 0.10408 0.76976 0.0
C2434 C 0.33643 0.12289 0.75113 0.0
C2435 C 0.35129 0.12435 0.75505 0.0
C2436 C 0.35718 0.11559 0.76633 0.0
C2437 C 0.34818 0.10549 0.7735 0.0
C2438 C 0.32979 0.13194 0.73904 0.0
C2439 C 0.37296 0.11699 0.77089 0.0
C2440 C 0.37647 0.14152 0.72702 0.0
C2441 C 0.37684 0.1561 0.73171 0.0
C2442 C 0.36836 0.13101 0.73465 0.0
C2443 C 0.3606 0.13515 0.74735 0.0
C2444 C 0.36122 0.14975 0.75234 0.0
C2445 C 0.36927 0.16007 0.74441 0.0
C2446 C 0.36782 0.11556 0.72893 0.0
C2447 C 0.35321 0.15452 0.76593 0.0
H2448 H 0.31626 0.11175 0.75555 0.0
H2449 H 0.35268 0.09881 0.78217 0.0
H2450 H 0.33067 0.14371 0.74174 0.0
H2451 H 0.33588 0.13015 0.72872 0.0
H2452 H 0.31812 0.12927 0.73715 0.0
H2453 H 0.37584 0.10939 0.7799 0.0
H2454 H 0.38021 0.11474 0.76146 0.0
H2455 H 0.37521 0.12832 0.77451 0.0
H2456 H 0.38227 0.13837 0.7172 0.0
H2457 H 0.3696 0.17129 0.74816 0.0
H2458 H 0.35643 0.11269 0.72597 0.0
H2459 H 0.37136 0.1078 0.73752 0.0
H2460 H 0.37486 0.11401 0.71917 0.0
H2461 H 0.34128 0.15319 0.76433 0.0
H2462 H 0.35545 0.16609 0.76878 0.0
H2463 H 0.35638 0.14753 0.7753 0.0
C2464 C 0.87316 0.34902 0.76773 0.0
C2465 C 0.8744 0.33484 0.76207 0.0
C2466 C 0.86384 0.3593 0.76126 0.0
C2467 C 0.85569 0.35533 0.74876 0.0
C2468 C 0.85707 0.34113 0.74285 0.0
C2469 C 0.86636 0.33102 0.74962 0.0
C2470 C 0.86256 0.37432 0.76792 0.0
C2471 C 0.84864 0.33657 0.72943 0.0
C2472 C 0.82106 0.37606 0.73958 0.0
C2473 C 0.82587 0.38545 0.72848 0.0
C2474 C 0.83072 0.36637 0.74644 0.0
C2475 C 0.8455 0.36596 0.74199 0.0
C2476 C 0.85048 0.37549 0.73091 0.0
C2477 C 0.84061 0.38518 0.72433 0.0
C2478 C 0.82507 0.35646 0.75835 0.0
C2479 C 0.86616 0.37528 0.72582 0.0
H2480 H 0.8793 0.35205 0.77738 0.0
H2481 H 0.86731 0.32011 0.74514 0.0
H2482 H 0.86535 0.38277 0.7597 0.0
H2483 H 0.85112 0.37632 0.77137 0.0
H2484 H 0.8698 0.37574 0.77754 0.0
H2485 H 0.85128 0.32525 0.72595 0.0
H2486 H 0.83675 0.33726 0.73161 0.0
H2487 H 0.85106 0.3441 0.72026 0.0
H2488 H 0.80971 0.37625 0.74291 0.0
H2489 H 0.84442 0.39236 0.71572 0.0
H2490 H 0.83154 0.35802 0.76846 0.0
H2491 H 0.82634 0.34489 0.75502 0.0
H2492 H 0.81338 0.35849 0.76087 0.0
H2493 H 0.87359 0.37731 0.73515 0.0
H2494 H 0.86834 0.38358 0.71725 0.0
H2495 H 0.86887 0.36434 0.72138 0.0
C2496 C 0.65375 0.11063 0.24699 0.0
C2497 C 0.65124 0.10561 0.23276 0.0
C2498 C 0.64236 0.1164 0.25542 0.0
C2499 C 0.62821 0.11751 0.24932 0.0
C2500 C 0.62558 0.11236 0.23498 0.0
C2501 C 0.63712 0.10627 0.22693 0.0
C2502 C 0.64551 0.12146 0.27079 0.0
C2503 C 0.61071 0.11369 0.228 0.0
C2504 C 0.59591 0.12336 0.27467 0.0
C2505 C 0.59453 0.13859 0.27436 0.0
C2506 C 0.60687 0.11631 0.2666 0.0
C2507 C 0.61636 0.12469 0.25773 0.0
C2508 C 0.61479 0.14006 0.25717 0.0
C2509 C 0.60401 0.14683 0.26564 0.0
C2510 C 0.60845 0.09995 0.26774 0.0
C2511 C 0.62449 0.14934 0.2476 0.0
H2512 H 0.66463 0.10998 0.25158 0.0
H2513 H 0.63518 0.10246 0.21589 0.0
H2514 H 0.6439 0.13343 0.27158 0.0
H2515 H 0.63779 0.11627 0.27855 0.0
H2516 H 0.65684 0.11886 0.27426 0.0
H2517 H 0.6104 0.10885 0.21688 0.0
H2518 H 0.60237 0.10821 0.23485 0.0
H2519 H 0.6076 0.12537 0.22722 0.0
H2520 H 0.5886 0.11698 0.28146 0.0
H2521 H 0.60285 0.1586 0.26526 0.0
H2522 H 0.6195 0.09718 0.27187 0.0
H2523 H 0.60735 0.09489 0.2568 0.0
H2524 H 0.6002 0.09502 0.27514 0.0
H2525 H 0.636 0.14838 0.25123 0.0
H2526 H 0.62135 0.16105 0.24783 0.0
H2527 H 0.62399 0.14543 0.23614 0.0
C2528 C 0.87149 0.65726 0.24446 0.0
C2529 C 0.87891 0.65203 0.23213 0.0
C2530 C 0.86205 0.6482 0.2524 0.0
C2531 C 0.85984 0.63363 0.24778 0.0
C2532 C 0.86744 0.62822 0.23547 0.0
C2533 C 0.87697 0.63746 0.22784 0.0
C2534 C 0.85428 0.65429 0.26561 0.0
C2535 C 0.86524 0.61276 0.23016 0.0
C2536 C 0.84385 0.60629 0.27447 0.0
C2537 C 0.82907 0.6063 0.27045 0.0
C2538 C 0.85399 0.6152 0.26724 0.0
C2539 C 0.84925 0.62418 0.2556 0.0
C2540 C 0.83437 0.62419 0.25144 0.0
C2541 C 0.82444 0.61531 0.25898 0.0
C2542 C 0.86974 0.61506 0.2721 0.0
C2543 C 0.82896 0.63352 0.23896 0.0
H2544 H 0.87302 0.66847 0.2479 0.0
H2545 H 0.88262 0.63336 0.21829 0.0
H2546 H 0.84232 0.65422 0.26373 0.0
H2547 H 0.85644 0.64732 0.27528 0.0
H2548 H 0.85772 0.66563 0.26815 0.0
H2549 H 0.87223 0.61014 0.2206 0.0
H2550 H 0.86772 0.60491 0.23904 0.0
H2551 H 0.85366 0.61112 0.22705 0.0
H2552 H 0.8475 0.59941 0.28338 0.0
H2553 H 0.81305 0.61531 0.25575 0.0
H2554 H 0.87316 0.62622 0.27534 0.0
H2555 H 0.87687 0.61165 0.26292 0.0
H2556 H 0.87162 0.60757 0.28145 0.0
H2557 H 0.83111 0.6452 0.24131 0.0
H2558 H 0.81709 0.6321 0.23695 0.0
H2559 H 0.83496 0.63072 0.22882 0.0
C2560 C 0.3353 0.87149 0.24249 0.0
C2561 C 0.33818 0.88015 0.23019 0.0
C2562 C 0.34647 0.8638 0.24951 0.0
C2563 C 0.36089 0.86472 0.24406 0.0
C2564 C 0.36403 0.87395 0.23207 0.0
C2565 C 0.35261 0.88161 0.22528 0.0
C2566 C 0.3427 0.85416 0.26235 0.0
C2567 C 0.37929 0.8752 0.226 0.0
C2568 C 0.38986 0.84898 0.26911 0.0
C2569 C 0.3907 0.83457 0.26399 0.0
C2570 C 0.38068 0.85921 0.26231 0.0
C2571 C 0.37225 0.8549 0.25011 0.0
C2572 C 0.37362 0.84059 0.24446 0.0
C2573 C 0.3828 0.8306 0.25149 0.0
C2574 C 0.37949 0.87439 0.2686 0.0
C2575 C 0.36489 0.83561 0.23139 0.0
H2576 H 0.32421 0.87046 0.24649 0.0
H2577 H 0.35493 0.88832 0.21582 0.0
H2578 H 0.34433 0.84255 0.25933 0.0
H2579 H 0.35003 0.85654 0.27169 0.0
H2580 H 0.33122 0.8556 0.26598 0.0
H2581 H 0.38023 0.88408 0.2178 0.0
H2582 H 0.38724 0.87724 0.2349 0.0
H2583 H 0.38239 0.86475 0.22072 0.0
H2584 H 0.39598 0.85215 0.27873 0.0
H2585 H 0.38353 0.81955 0.24733 0.0
H2586 H 0.3686 0.87579 0.27373 0.0
H2587 H 0.38044 0.8827 0.25985 0.0
H2588 H 0.38799 0.87654 0.27698 0.0
H2589 H 0.35311 0.83538 0.23423 0.0
H2590 H 0.36814 0.82455 0.22763 0.0
H2591 H 0.36625 0.84338 0.2222 0.0
C2592 C 0.14668 0.39281 0.25452 0.0
C2593 C 0.15604 0.38429 0.26308 0.0
C2594 C 0.13578 0.38628 0.24597 0.0
C2595 C 0.13388 0.37095 0.24652 0.0
C2596 C 0.14308 0.36236 0.2555 0.0
C2597 C 0.15427 0.36913 0.26346 0.0
C2598 C 0.12655 0.39573 0.23611 0.0
C2599 C 0.14105 0.34605 0.25677 0.0
C2600 C 0.09735 0.35586 0.23398 0.0
C2601 C 0.10107 0.34982 0.22046 0.0
C2602 C 0.10798 0.36262 0.24271 0.0
C2603 C 0.12247 0.36384 0.23745 0.0
C2604 C 0.12613 0.35813 0.22356 0.0
C2605 C 0.11543 0.35089 0.21536 0.0
C2606 C 0.1038 0.36811 0.25768 0.0
C2607 C 0.14132 0.35968 0.21735 0.0
H2608 H 0.14817 0.40454 0.25418 0.0
H2609 H 0.16148 0.3626 0.27021 0.0
H2610 H 0.12769 0.39202 0.22464 0.0
H2611 H 0.11486 0.39467 0.23907 0.0
H2612 H 0.12965 0.40744 0.23673 0.0
H2613 H 0.14849 0.34111 0.26498 0.0
H2614 H 0.12962 0.34352 0.25986 0.0
H2615 H 0.14312 0.34079 0.24606 0.0
H2616 H 0.08624 0.35485 0.23794 0.0
H2617 H 0.11822 0.34626 0.20483 0.0
H2618 H 0.10584 0.38001 0.25847 0.0
H2619 H 0.11067 0.36273 0.26608 0.0
H2620 H 0.09214 0.366 0.26026 0.0
H2621 H 0.14464 0.37134 0.2174 0.0
H2622 H 0.1421 0.35547 0.206 0.0
H2623 H 0.14923 0.35366 0.22424 0.0
C2624 C 0.75421 0.65926 0.86679 0.0
C2625 C 0.76463 0.65329 0.8763 0.0
C2626 C 0.74601 0.6503 0.85746 0.0
C2627 C 0.74842 0.63504 0.85753 0.0
C2628 C 0.75898 0.62896 0.86703 0.0
C2629 C 0.7669 0.63815 0.87636 0.0
C2630 C 0.73473 0.65714 0.84759 0.0
C2631 C 0.76196 0.61274 0.86727 0.0
C2632 C 0.71908 0.60959 0.84313 0.0
C2633 C 0.72411 0.60676 0.82895 0.0
C2634 C 0.72677 0.61896 0.85248 0.0
C2635 C 0.73994 0.62542 0.84762 0.0
C2636 C 0.74511 0.62254 0.83335 0.0
C2637 C 0.73706 0.61335 0.82413 0.0
C2638 C 0.7208 0.62198 0.86755 0.0
C2639 C 0.75924 0.62904 0.82787 0.0
H2640 H 0.75234 0.67094 0.86673 0.0
H2641 H 0.77497 0.63345 0.88362 0.0
H2642 H 0.73739 0.65479 0.83601 0.0
H2643 H 0.72384 0.65233 0.84981 0.0
H2644 H 0.73402 0.66917 0.84902 0.0
H2645 H 0.77067 0.60977 0.87517 0.0
H2646 H 0.75188 0.60673 0.87021 0.0
H2647 H 0.76529 0.60899 0.85625 0.0
H2648 H 0.70902 0.6046 0.84687 0.0
H2649 H 0.74105 0.61112 0.81322 0.0
H2650 H 0.71927 0.63389 0.86908 0.0
H2651 H 0.72871 0.61826 0.87593 0.0
H2652 H 0.7102 0.61642 0.8695 0.0
H2653 H 0.75867 0.64113 0.82827 0.0
H2654 H 0.76178 0.62566 0.81651 0.0
H2655 H 0.76839 0.62564 0.83506 0.0
C2656 C 0.76153 0.35593 0.09865 0.0
C2657 C 0.75714 0.34129 0.09982 0.0
C2658 C 0.75564 0.36667 0.10788 0.0
C2659 C 0.74508 0.36265 0.11842 0.0
C2660 C 0.7401 0.34804 0.11913 0.0
C2661 C 0.74622 0.33755 0.10986 0.0
C2662 C 0.7612 0.38214 0.10681 0.0
C2663 C 0.72875 0.34334 0.13013 0.0
C2664 C 0.74128 0.38172 0.15475 0.0
C2665 C 0.72798 0.38911 0.15302 0.0
C2666 C 0.74746 0.37384 0.14321 0.0
C2667 C 0.74012 0.37325 0.12963 0.0
C2668 C 0.7272 0.38145 0.12751 0.0
C2669 C 0.72129 0.38935 0.13925 0.0
C2670 C 0.76137 0.36539 0.14586 0.0
C2671 C 0.7191 0.38112 0.11317 0.0
H2672 H 0.76995 0.35892 0.0909 0.0
H2673 H 0.74264 0.3263 0.11072 0.0
H2674 H 0.75196 0.38997 0.10654 0.0
H2675 H 0.76782 0.38473 0.11662 0.0
H2676 H 0.76807 0.38386 0.09697 0.0
H2677 H 0.72525 0.33184 0.12851 0.0
H2678 H 0.73324 0.34443 0.14133 0.0
H2679 H 0.719 0.35048 0.12942 0.0
H2680 H 0.74662 0.38166 0.16531 0.0
H2681 H 0.71103 0.39507 0.13783 0.0
H2682 H 0.76934 0.36745 0.13698 0.0
H2683 H 0.75895 0.35352 0.14589 0.0
H2684 H 0.76653 0.36826 0.15645 0.0
H2685 H 0.72675 0.38261 0.1039 0.0
H2686 H 0.71052 0.38967 0.11259 0.0
H2687 H 0.71382 0.3703 0.1118 0.0
C2688 C 0.65288 0.75276 0.1087 0.0
C2689 C 0.65034 0.76537 0.1004 0.0
C2690 C 0.64164 0.74614 0.11664 0.0
C2691 C 0.62746 0.75226 0.11629 0.0
C2692 C 0.6246 0.76451 0.10732 0.0
C2693 C 0.6361 0.77095 0.09947 0.0
C2694 C 0.64515 0.73303 0.12603 0.0
C2695 C 0.60958 0.77124 0.10658 0.0
C2696 C 0.59895 0.7279 0.13385 0.0
C2697 C 0.59945 0.73285 0.14833 0.0
C2698 C 0.6073 0.73473 0.12294 0.0
C2699 C 0.61627 0.74676 0.12665 0.0
C2700 C 0.61596 0.75242 0.14101 0.0
C2701 C 0.60756 0.7454 0.15166 0.0
C2702 C 0.60725 0.72849 0.1077 0.0
C2703 C 0.62528 0.7653 0.14542 0.0
H2704 H 0.6638 0.74823 0.10935 0.0
H2705 H 0.63401 0.78063 0.09299 0.0
H2706 H 0.64406 0.73601 0.13773 0.0
H2707 H 0.63733 0.72406 0.12383 0.0
H2708 H 0.65639 0.7289 0.12416 0.0
H2709 H 0.60863 0.77926 0.09753 0.0
H2710 H 0.60114 0.76268 0.10513 0.0
H2711 H 0.6072 0.77693 0.117 0.0
H2712 H 0.59264 0.71825 0.13118 0.0
H2713 H 0.60781 0.74946 0.16277 0.0
H2714 H 0.61757 0.72245 0.1058 0.0
H2715 H 0.60664 0.73733 0.09944 0.0
H2716 H 0.59798 0.72086 0.10596 0.0
H2717 H 0.63696 0.7621 0.14516 0.0
H2718 H 0.62264 0.76927 0.15657 0.0
H2719 H 0.62384 0.77444 0.13762 0.0
C2720 C 0.26589 0.60177 0.14361 0.0
C2721 C 0.2607 0.6027 0.15799 0.0
C2722 C 0.25904 0.60951 0.13229 0.0
C2723 C 0.2467 0.61824 0.13544 0.0
C2724 C 0.24102 0.61865 0.1498 0.0
C2725 C 0.24811 0.61091 0.1609 0.0
C2726 C 0.2654 0.60884 0.1171 0.0
C2727 C 0.22777 0.62773 0.15356 0.0
C2728 C 0.23824 0.65196 0.11314 0.0
C2729 C 0.22631 0.64728 0.10477 0.0
C2730 C 0.24533 0.64241 0.12275 0.0
C2731 C 0.24032 0.62786 0.12409 0.0
C2732 C 0.2286 0.62292 0.11534 0.0
C2733 C 0.22174 0.63269 0.10574 0.0
C2734 C 0.25789 0.64805 0.13184 0.0
C2735 C 0.22295 0.60748 0.11652 0.0
H2736 H 0.2756 0.59544 0.14128 0.0
H2737 H 0.24394 0.61155 0.17195 0.0
H2738 H 0.25675 0.60633 0.109 0.0
H2739 H 0.27003 0.61965 0.11417 0.0
H2740 H 0.27416 0.60051 0.11616 0.0
H2741 H 0.22409 0.62599 0.16498 0.0
H2742 H 0.23035 0.63948 0.15211 0.0
H2743 H 0.21861 0.62509 0.1461 0.0
H2744 H 0.24193 0.66317 0.11237 0.0
H2745 H 0.21255 0.62898 0.09928 0.0
H2746 H 0.26752 0.64082 0.13062 0.0
H2747 H 0.25479 0.648 0.14355 0.0
H2748 H 0.26109 0.65933 0.12876 0.0
H2749 H 0.23204 0.59956 0.11541 0.0
H2750 H 0.21458 0.605 0.1081 0.0
H2751 H 0.21803 0.60578 0.12746 0.0
C2752 C 0.34237 0.22158 0.11563 0.0
C2753 C 0.34091 0.22041 0.10048 0.0
C2754 C 0.35313 0.23055 0.12179 0.0
C2755 C 0.36218 0.239 0.11252 0.0
C2756 C 0.36078 0.23777 0.09718 0.0
C2757 C 0.35031 0.22825 0.09132 0.0
C2758 C 0.35464 0.23117 0.13819 0.0
C2759 C 0.36988 0.24697 0.08697 0.0
C2760 C 0.37757 0.27312 0.13019 0.0
C2761 C 0.39206 0.26901 0.13268 0.0
C2762 C 0.36787 0.26365 0.12307 0.0
C2763 C 0.37268 0.24954 0.11895 0.0
C2764 C 0.38734 0.24536 0.12148 0.0
C2765 C 0.39695 0.25529 0.12808 0.0
C2766 C 0.35246 0.26869 0.12011 0.0
C2767 C 0.39271 0.23023 0.11775 0.0
H2768 H 0.33508 0.21545 0.12266 0.0
H2769 H 0.34899 0.22743 0.07959 0.0
H2770 H 0.36619 0.22937 0.14139 0.0
H2771 H 0.35145 0.24213 0.1422 0.0
H2772 H 0.34773 0.22289 0.14375 0.0
H2773 H 0.36764 0.2445 0.07531 0.0
H2774 H 0.36758 0.25871 0.08895 0.0
H2775 H 0.38166 0.24522 0.08911 0.0
H2776 H 0.37385 0.28379 0.13373 0.0
H2777 H 0.40815 0.25209 0.13021 0.0
H2778 H 0.34467 0.26215 0.12668 0.0
H2779 H 0.34968 0.26698 0.10845 0.0
H2780 H 0.35086 0.2804 0.12282 0.0
H2781 H 0.38637 0.22201 0.124 0.0
H2782 H 0.40448 0.22877 0.12026 0.0
H2783 H 0.39095 0.22793 0.106 0.0
C2784 C 0.24666 0.37879 0.83137 0.0
C2785 C 0.25903 0.38649 0.83606 0.0
C2786 C 0.23892 0.36975 0.84097 0.0
C2787 C 0.2438 0.36822 0.85554 0.0
C2788 C 0.256 0.37631 0.86048 0.0
C2789 C 0.26342 0.38546 0.85069 0.0
C2790 C 0.22579 0.36148 0.83538 0.0
C2791 C 0.26158 0.37484 0.87592 0.0
C2792 C 0.2178 0.35158 0.88312 0.0
C2793 C 0.22217 0.3369 0.88302 0.0
C2794 C 0.2248 0.36195 0.8743 0.0
C2795 C 0.23658 0.35755 0.86534 0.0
C2796 C 0.24121 0.34281 0.86538 0.0
C2797 C 0.23388 0.33263 0.87414 0.0
C2798 C 0.21944 0.37754 0.87437 0.0
C2799 C 0.25386 0.33776 0.85608 0.0
H2800 H 0.24314 0.37965 0.82011 0.0
H2801 H 0.27301 0.39135 0.85435 0.0
H2802 H 0.22812 0.34959 0.83547 0.0
H2803 H 0.21627 0.36334 0.84263 0.0
H2804 H 0.22278 0.36472 0.82409 0.0
H2805 H 0.27067 0.38251 0.87827 0.0
H2806 H 0.25264 0.37687 0.88383 0.0
H2807 H 0.2655 0.36353 0.87775 0.0
H2808 H 0.20871 0.35495 0.88991 0.0
H2809 H 0.23739 0.32133 0.8741 0.0
H2810 H 0.21564 0.38062 0.86329 0.0
H2811 H 0.22849 0.38504 0.87726 0.0
H2812 H 0.21034 0.37925 0.8822 0.0
H2813 H 0.25126 0.33941 0.84437 0.0
H2814 H 0.25649 0.32605 0.85783 0.0
H2815 H 0.26371 0.34435 0.85854 0.0
C2816 C 0.65688 0.24362 0.87592 0.0
C2817 C 0.65127 0.23146 0.88335 0.0
C2818 C 0.64804 0.25192 0.86662 0.0
C2819 C 0.63328 0.24787 0.86457 0.0
C2820 C 0.62736 0.23603 0.87255 0.0
C2821 C 0.63643 0.228 0.88193 0.0
C2822 C 0.65469 0.2646 0.85844 0.0
C2823 C 0.61168 0.23136 0.87058 0.0
C2824 C 0.60829 0.27457 0.84504 0.0
C2825 C 0.6091 0.26947 0.83062 0.0
C2826 C 0.61599 0.26757 0.8563 0.0
C2827 C 0.62453 0.25512 0.85304 0.0
C2828 C 0.62517 0.24978 0.83856 0.0
C2829 C 0.61751 0.25706 0.82752 0.0
C2830 C 0.61518 0.27362 0.8716 0.0
C2831 C 0.63407 0.23645 0.83468 0.0
H2832 H 0.6683 0.24647 0.87711 0.0
H2833 H 0.63202 0.21862 0.88765 0.0
H2834 H 0.65533 0.26193 0.84664 0.0
H2835 H 0.64774 0.27445 0.85955 0.0
H2836 H 0.66585 0.26725 0.86238 0.0
H2837 H 0.60837 0.22291 0.87863 0.0
H2838 H 0.60426 0.24087 0.87165 0.0
H2839 H 0.61018 0.22686 0.85944 0.0
H2840 H 0.60182 0.28416 0.84751 0.0
H2841 H 0.61809 0.25297 0.81644 0.0
H2842 H 0.62621 0.2771 0.87521 0.0
H2843 H 0.61144 0.26504 0.87929 0.0
H2844 H 0.60767 0.2831 0.87241 0.0
H2845 H 0.64578 0.23851 0.83701 0.0
H2846 H 0.63295 0.23338 0.82301 0.0
H2847 H 0.63064 0.22704 0.84149 0.0
C2848 C 0.33239 0.7433 0.87416 0.0
C2849 C 0.33719 0.75547 0.88213 0.0
C2850 C 0.34202 0.73535 0.86535 0.0
C2851 C 0.35679 0.73975 0.86436 0.0
C2852 C 0.36181 0.75181 0.87262 0.0
C2853 C 0.35195 0.75949 0.88148 0.0
C2854 C 0.33631 0.72243 0.85683 0.0
C2855 C 0.37748 0.75684 0.87176 0.0
C2856 C 0.38398 0.71237 0.84932 0.0
C2857 C 0.38485 0.71662 0.83462 0.0
C2858 C 0.375 0.71989 0.85918 0.0
C2859 C 0.36681 0.73202 0.85425 0.0
C2860 C 0.36779 0.73649 0.83949 0.0
C2861 C 0.37675 0.72869 0.82984 0.0
C2862 C 0.37411 0.71473 0.87481 0.0
C2863 C 0.35928 0.74944 0.83386 0.0
H2864 H 0.32103 0.74005 0.8747 0.0
H2865 H 0.35573 0.7689 0.88758 0.0
H2866 H 0.33724 0.72462 0.84496 0.0
H2867 H 0.34297 0.7126 0.85921 0.0
H2868 H 0.32472 0.71998 0.8594 0.0
H2869 H 0.37978 0.76603 0.87932 0.0
H2870 H 0.38496 0.74769 0.87437 0.0
H2871 H 0.37999 0.76042 0.86046 0.0
H2872 H 0.39019 0.70304 0.85311 0.0
H2873 H 0.37743 0.73211 0.81853 0.0
H2874 H 0.36274 0.71144 0.8774 0.0
H2875 H 0.37703 0.72375 0.88234 0.0
H2876 H 0.38145 0.70533 0.87699 0.0
H2877 H 0.3474 0.74736 0.835 0.0
H2878 H 0.36168 0.75184 0.82222 0.0
H2879 H 0.36185 0.75928 0.84045 0.0
C2880 C 0.07643 0.23267 0.26549 0.0
C2881 C 0.06591 0.23012 0.27629 0.0
C2882 C 0.07532 0.24472 0.25614 0.0
C2883 C 0.06319 0.2542 0.25738 0.0
C2884 C 0.05229 0.25143 0.26797 0.0
C2885 C 0.05388 0.23949 0.27746 0.0
C2886 C 0.08731 0.24747 0.24515 0.0
C2887 C 0.03901 0.26109 0.26933 0.0
C2888 C 0.06844 0.29234 0.24215 0.0
C2889 C 0.06303 0.29068 0.22795 0.0
C2890 C 0.06823 0.28062 0.25202 0.0
C2891 C 0.06212 0.26711 0.24765 0.0
C2892 C 0.05597 0.26564 0.23355 0.0
C2893 C 0.05669 0.2774 0.22379 0.0
C2894 C 0.07516 0.2825 0.26685 0.0
C2895 C 0.04902 0.25152 0.22864 0.0
H2896 H 0.08581 0.22551 0.26463 0.0
H2897 H 0.04571 0.23747 0.28577 0.0
H2898 H 0.08276 0.24743 0.23394 0.0
H2899 H 0.09217 0.25841 0.24703 0.0
H2900 H 0.09613 0.23917 0.24577 0.0
H2901 H 0.03118 0.257 0.27764 0.0
H2902 H 0.04237 0.27231 0.27239 0.0
H2903 H 0.03332 0.26184 0.25866 0.0
H2904 H 0.07339 0.3026 0.24534 0.0
H2905 H 0.05237 0.27617 0.21284 0.0
H2906 H 0.08475 0.27516 0.26781 0.0
H2907 H 0.06736 0.27938 0.27557 0.0
H2908 H 0.07882 0.2939 0.26881 0.0
H2909 H 0.0575 0.24294 0.2276 0.0
H2910 H 0.04339 0.25266 0.21796 0.0
H2911 H 0.04101 0.24769 0.23688 0.0
C2912 C 0.76733 0.06238 0.27815 0.0
C2913 C 0.76215 0.06876 0.29105 0.0
C2914 C 0.7583 0.0611 0.26584 0.0
C2915 C 0.74391 0.0667 0.26638 0.0
C2916 C 0.73866 0.07322 0.27938 0.0
C2917 C 0.74779 0.07399 0.29163 0.0
C2918 C 0.76412 0.05376 0.25229 0.0
C2919 C 0.72349 0.07961 0.28028 0.0
C2920 C 0.72472 0.0778 0.23147 0.0
C2921 C 0.71421 0.06677 0.23009 0.0
C2922 C 0.7347 0.07774 0.24306 0.0
C2923 C 0.73439 0.06615 0.25328 0.0
C2924 C 0.72431 0.05457 0.25149 0.0
C2925 C 0.71419 0.05512 0.24 0.0
C2926 C 0.74509 0.09043 0.24477 0.0
C2927 C 0.72392 0.04184 0.26195 0.0
H2928 H 0.77841 0.05823 0.27774 0.0
H2929 H 0.7438 0.079 0.30159 0.0
H2930 H 0.7568 0.04468 0.24903 0.0
H2931 H 0.76436 0.06165 0.2431 0.0
H2932 H 0.77531 0.04936 0.25389 0.0
H2933 H 0.72116 0.08447 0.29114 0.0
H2934 H 0.72213 0.08819 0.27184 0.0
H2935 H 0.71524 0.07103 0.27805 0.0
H2936 H 0.72471 0.08687 0.22386 0.0
H2937 H 0.70613 0.04653 0.23888 0.0
H2938 H 0.75649 0.08645 0.24561 0.0
H2939 H 0.74258 0.09636 0.25503 0.0
H2940 H 0.74437 0.09824 0.23552 0.0
H2941 H 0.73504 0.03724 0.26338 0.0
H2942 H 0.71652 0.03302 0.25815 0.0
H2943 H 0.72015 0.04561 0.27282 0.0
C2944 C 0.92941 0.70298 0.24237 0.0
C2945 C 0.93225 0.70417 0.2274 0.0
C2946 C 0.93071 0.71515 0.25156 0.0
C2947 C 0.93545 0.72864 0.24568 0.0
C2948 C 0.93941 0.72957 0.23077 0.0
C2949 C 0.93747 0.71736 0.22172 0.0
C2950 C 0.92601 0.71379 0.26731 0.0
C2951 C 0.94504 0.74361 0.22424 0.0
C2952 C 0.92032 0.76237 0.26412 0.0
C2953 C 0.93137 0.76567 0.27415 0.0
C2954 C 0.92166 0.7505 0.2546 0.0
C2955 C 0.93461 0.74205 0.25475 0.0
C2956 C 0.94618 0.74587 0.26426 0.0
C2957 C 0.9443 0.7575 0.27408 0.0
C2958 C 0.90891 0.74656 0.24489 0.0
C2959 C 0.96035 0.73747 0.26432 0.0
H2960 H 0.92526 0.6928 0.24674 0.0
H2961 H 0.93975 0.71821 0.21014 0.0
H2962 H 0.9347 0.71785 0.27468 0.0
H2963 H 0.91619 0.72064 0.26919 0.0
H2964 H 0.92337 0.70235 0.27036 0.0
H2965 H 0.94987 0.74188 0.21326 0.0
H2966 H 0.93595 0.75153 0.2232 0.0
H2967 H 0.9534 0.74859 0.23146 0.0
H2968 H 0.91028 0.76864 0.26422 0.0
H2969 H 0.9529 0.76013 0.28177 0.0
H2970 H 0.90496 0.73545 0.24765 0.0
H2971 H 0.91237 0.74639 0.2333 0.0
H2972 H 0.89967 0.75434 0.24603 0.0
H2973 H 0.95853 0.72643 0.26895 0.0
H2974 H 0.9689 0.74301 0.27089 0.0
H2975 H 0.96443 0.73602 0.25301 0.0
C2976 C 0.2277 0.92983 0.27972 0.0
C2977 C 0.23162 0.9224 0.29249 0.0
C2978 C 0.23762 0.93137 0.26817 0.0
C2979 C 0.2516 0.9249 0.2693 0.0
C2980 C 0.25576 0.91775 0.28237 0.0
C2981 C 0.24575 0.91677 0.29392 0.0
C2982 C 0.23294 0.93943 0.25458 0.0
C2983 C 0.27046 0.91044 0.28385 0.0
C2984 C 0.26891 0.91223 0.234 0.0
C2985 C 0.28003 0.92253 0.23204 0.0
C2986 C 0.25965 0.91287 0.24614 0.0
C2987 C 0.26129 0.92436 0.25634 0.0
C2988 C 0.27221 0.93508 0.25418 0.0
C2989 C 0.28162 0.93392 0.24213 0.0
C2990 C 0.24832 0.90106 0.2482 0.0
C2991 C 0.27398 0.94771 0.26461 0.0
H2992 H 0.2168 0.93434 0.27869 0.0
H2993 H 0.24875 0.91098 0.30381 0.0
H2994 H 0.24146 0.94737 0.25124 0.0
H2995 H 0.23155 0.93158 0.24547 0.0
H2996 H 0.22248 0.94536 0.25615 0.0
H2997 H 0.27234 0.90613 0.29503 0.0
H2998 H 0.2712 0.90124 0.276 0.0
H2999 H 0.27933 0.91821 0.28114 0.0
H3000 H 0.26771 0.90335 0.22627 0.0
H3001 H 0.29019 0.94193 0.24057 0.0
H3002 H 0.23724 0.90593 0.24837 0.0
H3003 H 0.25 0.89555 0.25886 0.0
H3004 H 0.24871 0.8927 0.23943 0.0
H3005 H 0.26348 0.95365 0.26574 0.0
H3006 H 0.2825 0.95553 0.26097 0.0
H3007 H 0.27696 0.94359 0.2756 0.0
C3008 C 0.06215 0.70992 0.74444 0.0
C3009 C 0.05887 0.71345 0.75894 0.0
C3010 C 0.06051 0.7203 0.73332 0.0
C3011 C 0.05499 0.73432 0.73677 0.0
C3012 C 0.05058 0.73751 0.75123 0.0
C3013 C 0.05288 0.72711 0.76223 0.0
C3014 C 0.06574 0.71661 0.71812 0.0
C3015 C 0.04413 0.75213 0.75523 0.0
C3016 C 0.06914 0.76578 0.71406 0.0
C3017 C 0.05818 0.76724 0.70351 0.0
C3018 C 0.06814 0.75516 0.72499 0.0
C3019 C 0.05561 0.74614 0.7257 0.0
C3020 C 0.04416 0.74806 0.7155 0.0
C3021 C 0.04571 0.75843 0.70431 0.0
C3022 C 0.08077 0.75322 0.73543 0.0
C3023 C 0.03041 0.73902 0.71629 0.0
H3024 H 0.06691 0.69937 0.74195 0.0
H3025 H 0.05026 0.72975 0.77347 0.0
H3026 H 0.05721 0.71921 0.70994 0.0
H3027 H 0.07545 0.72335 0.71546 0.0
H3028 H 0.06875 0.70492 0.71701 0.0
H3029 H 0.03903 0.75198 0.76623 0.0
H3030 H 0.05283 0.76055 0.75518 0.0
H3031 H 0.03579 0.75547 0.7471 0.0
H3032 H 0.07884 0.77253 0.71341 0.0
H3033 H 0.03719 0.75965 0.69619 0.0
H3034 H 0.08511 0.74194 0.73459 0.0
H3035 H 0.07704 0.75482 0.74683 0.0
H3036 H 0.08982 0.761 0.73323 0.0
H3037 H 0.03294 0.72746 0.71374 0.0
H3038 H 0.02194 0.7429 0.70852 0.0
H3039 H 0.02584 0.73931 0.7275 0.0
C3040 C 0.29189 0.05445 0.74831 0.0
C3041 C 0.28809 0.04987 0.76239 0.0
C3042 C 0.28147 0.05478 0.73711 0.0
C3043 C 0.26706 0.05002 0.74003 0.0
C3044 C 0.26356 0.04413 0.75388 0.0
C3045 C 0.27408 0.04436 0.765 0.0
C3046 C 0.28556 0.06143 0.72259 0.0
C3047 C 0.24844 0.03854 0.75727 0.0
C3048 C 0.23634 0.06983 0.72084 0.0
C3049 C 0.23304 0.06027 0.70938 0.0
C3050 C 0.24748 0.06662 0.73077 0.0
C3051 C 0.25523 0.05331 0.72946 0.0
C3052 C 0.25175 0.04345 0.71808 0.0
C3053 C 0.24081 0.04717 0.70799 0.0
C3054 C 0.25108 0.0776 0.74255 0.0
C3055 C 0.2595 0.02898 0.71664 0.0
H3056 H 0.30272 0.05879 0.74629 0.0
H3057 H 0.27119 0.04068 0.77588 0.0
H3058 H 0.28164 0.05454 0.71345 0.0
H3059 H 0.28023 0.07225 0.7215 0.0
H3060 H 0.29754 0.06293 0.72147 0.0
H3061 H 0.24821 0.03202 0.7675 0.0
H3062 H 0.24086 0.04789 0.75854 0.0
H3063 H 0.24429 0.03169 0.74818 0.0
H3064 H 0.23041 0.08002 0.72185 0.0
H3065 H 0.23816 0.03975 0.69916 0.0
H3066 H 0.26277 0.0807 0.74188 0.0
H3067 H 0.24926 0.07269 0.75347 0.0
H3068 H 0.24437 0.08766 0.74169 0.0
H3069 H 0.27135 0.03078 0.7149 0.0
H3070 H 0.25519 0.02236 0.70745 0.0
H3071 H 0.25832 0.02265 0.7269 0.0
C3072 C 0.93643 0.2708 0.76415 0.0
C3073 C 0.93007 0.28405 0.75995 0.0
C3074 C 0.93934 0.25989 0.75381 0.0
C3075 C 0.9352 0.26212 0.73909 0.0
C3076 C 0.9293 0.27573 0.73473 0.0
C3077 C 0.92705 0.28665 0.7452 0.0
C3078 C 0.94618 0.24574 0.75875 0.0
C3079 C 0.92435 0.27841 0.71923 0.0
C3080 C 0.94592 0.23724 0.70773 0.0
C3081 C 0.93369 0.2281 0.70688 0.0
C3082 C 0.947 0.24788 0.71871 0.0
C3083 C 0.9353 0.24974 0.72863 0.0
C3084 C 0.92307 0.24031 0.72797 0.0
C3085 C 0.92256 0.22942 0.71727 0.0
C3086 C 0.96046 0.25735 0.71947 0.0
C3087 C 0.91018 0.24217 0.7381 0.0
H3088 H 0.93886 0.26887 0.77558 0.0
H3089 H 0.92202 0.29687 0.74199 0.0
H3090 H 0.93778 0.23704 0.75901 0.0
H3091 H 0.9548 0.24225 0.75099 0.0
H3092 H 0.95103 0.24669 0.76983 0.0
H3093 H 0.9208 0.28987 0.71744 0.0
H3094 H 0.93325 0.27587 0.71144 0.0
H3095 H 0.91507 0.27106 0.71663 0.0
H3096 H 0.95459 0.23611 0.69975 0.0
H3097 H 0.91306 0.2224 0.71661 0.0
H3098 H 0.96458 0.2579 0.73086 0.0
H3099 H 0.95771 0.26864 0.71607 0.0
H3100 H 0.96933 0.25324 0.7123 0.0
H3101 H 0.91376 0.24132 0.74963 0.0
H3102 H 0.90153 0.2339 0.73614 0.0
H3103 H 0.90537 0.25319 0.73662 0.0
C3104 C 0.71646 0.93892 0.76524 0.0
C3105 C 0.7038 0.9318 0.76047 0.0
C3106 C 0.72825 0.94115 0.75572 0.0
C3107 C 0.72751 0.9356 0.74131 0.0
C3108 C 0.71449 0.92896 0.73629 0.0
C3109 C 0.70269 0.92736 0.74589 0.0
C3110 C 0.74174 0.94878 0.7613 0.0
C3111 C 0.7134 0.92252 0.72115 0.0
C3112 C 0.75565 0.94413 0.71202 0.0
C3113 C 0.76511 0.9322 0.71344 0.0
C3114 C 0.74367 0.9458 0.72146 0.0
C3115 C 0.74087 0.93498 0.73215 0.0
C3116 C 0.75051 0.92299 0.73367 0.0
C3117 C 0.76265 0.9219 0.72447 0.0
C3118 C 0.73393 0.95899 0.71989 0.0
C3119 C 0.74771 0.91101 0.74466 0.0
H3120 H 0.71725 0.94246 0.77651 0.0
H3121 H 0.69292 0.92176 0.74222 0.0
H3122 H 0.75053 0.94065 0.76313 0.0
H3123 H 0.7458 0.95676 0.75313 0.0
H3124 H 0.73968 0.95457 0.77175 0.0
H3125 H 0.70218 0.91871 0.71858 0.0
H3126 H 0.71673 0.93064 0.71282 0.0
H3127 H 0.72097 0.9131 0.72023 0.0
H3128 H 0.75763 0.95215 0.70355 0.0
H3129 H 0.76991 0.91262 0.72555 0.0
H3130 H 0.73235 0.96432 0.73066 0.0
H3131 H 0.72302 0.95558 0.71593 0.0
H3132 H 0.73847 0.96713 0.71213 0.0
H3133 H 0.7474 0.91561 0.75585 0.0
H3134 H 0.75618 0.90234 0.74431 0.0
H3135 H 0.73692 0.90593 0.74254 0.0
C3136 C 0.23719 0.03964 0.2764 0.0
C3137 C 0.22845 0.05217 0.27557 0.0
C3138 C 0.24786 0.03681 0.26575 0.0
C3139 C 0.25013 0.04704 0.25438 0.0
C3140 C 0.24114 0.05957 0.2534 0.0
C3141 C 0.23024 0.06185 0.26387 0.0
C3142 C 0.25689 0.02308 0.26684 0.0
C3143 C 0.24344 0.07094 0.24167 0.0
C3144 C 0.28733 0.05178 0.23711 0.0
C3145 C 0.28474 0.04679 0.22288 0.0
C3146 C 0.2763 0.05134 0.2477 0.0
C3147 C 0.26253 0.04534 0.24407 0.0
C3148 C 0.26023 0.03928 0.23004 0.0
C3149 C 0.27131 0.04032 0.2195 0.0
C3150 C 0.27908 0.05827 0.2624 0.0
C3151 C 0.24587 0.03232 0.22596 0.0
H3152 H 0.2357 0.03209 0.2854 0.0
H3153 H 0.22354 0.07158 0.26324 0.0
H3154 H 0.2572 0.0174 0.25614 0.0
H3155 H 0.26829 0.0259 0.26975 0.0
H3156 H 0.25258 0.01543 0.27521 0.0
H3157 H 0.23542 0.08001 0.24239 0.0
H3158 H 0.25459 0.07558 0.24261 0.0
H3159 H 0.24255 0.06589 0.23071 0.0
H3160 H 0.29768 0.05687 0.23973 0.0
H3161 H 0.26936 0.03635 0.20852 0.0
H3162 H 0.2762 0.05061 0.27131 0.0
H3163 H 0.27205 0.06806 0.26364 0.0
H3164 H 0.29064 0.06164 0.26379 0.0
H3165 H 0.24209 0.0249 0.23475 0.0
H3166 H 0.24666 0.02605 0.21561 0.0
H3167 H 0.23745 0.04091 0.22458 0.0
C3168 C 0.91651 0.25865 0.21708 0.0
C3169 C 0.92755 0.26894 0.21458 0.0
C3170 C 0.91793 0.24818 0.22813 0.0
C3171 C 0.93092 0.24765 0.23649 0.0
C3172 C 0.94252 0.25736 0.23329 0.0
C3173 C 0.94058 0.26811 0.22254 0.0
C3174 C 0.90514 0.23831 0.23147 0.0
C3175 C 0.95673 0.25675 0.24159 0.0
C3176 C 0.92679 0.23391 0.27523 0.0
C3177 C 0.93006 0.21907 0.27362 0.0
C3178 C 0.92728 0.24338 0.26324 0.0
C3179 C 0.93168 0.23796 0.24945 0.0
C3180 C 0.93576 0.22313 0.24795 0.0
C3181 C 0.9346 0.21376 0.26003 0.0
C3182 C 0.92242 0.25903 0.26521 0.0
C3183 C 0.94104 0.21711 0.23355 0.0
H3184 H 0.90641 0.25931 0.21097 0.0
H3185 H 0.94916 0.27599 0.2205 0.0
H3186 H 0.9086 0.22672 0.23134 0.0
H3187 H 0.90097 0.24071 0.24259 0.0
H3188 H 0.89605 0.23972 0.22356 0.0
H3189 H 0.96536 0.26345 0.23632 0.0
H3190 H 0.95505 0.26088 0.25285 0.0
H3191 H 0.96064 0.24532 0.24247 0.0
H3192 H 0.92316 0.23798 0.28573 0.0
H3193 H 0.93723 0.20227 0.25886 0.0
H3194 H 0.91283 0.26124 0.25814 0.0
H3195 H 0.93122 0.2666 0.26181 0.0
H3196 H 0.91941 0.26151 0.27669 0.0
H3197 H 0.93189 0.21684 0.22563 0.0
H3198 H 0.94549 0.20589 0.23466 0.0
H3199 H 0.94963 0.22428 0.22891 0.0
C3200 C 0.76669 0.94534 0.27984 0.0
C3201 C 0.76235 0.93801 0.29253 0.0
C3202 C 0.75713 0.94674 0.26797 0.0
C3203 C 0.74318 0.94013 0.26865 0.0
C3204 C 0.7385 0.93339 0.28176 0.0
C3205 C 0.7481 0.93262 0.29365 0.0
C3206 C 0.7623 0.95452 0.25439 0.0
C3207 C 0.72387 0.92586 0.28281 0.0
C3208 C 0.7139 0.94584 0.23984 0.0
C3209 C 0.71644 0.9339 0.23063 0.0
C3210 C 0.72292 0.94843 0.25197 0.0
C3211 C 0.73432 0.9385 0.25518 0.0
C3212 C 0.73694 0.92649 0.24581 0.0
C3213 C 0.72812 0.92449 0.23349 0.0
C3214 C 0.72017 0.96165 0.2614 0.0
C3215 C 0.74874 0.91542 0.24906 0.0
H3216 H 0.77773 0.94955 0.27904 0.0
H3217 H 0.74481 0.92682 0.30343 0.0
H3218 H 0.765 0.94637 0.24584 0.0
H3219 H 0.75357 0.96167 0.24998 0.0
H3220 H 0.77217 0.96123 0.2565 0.0
H3221 H 0.72137 0.92227 0.29412 0.0
H3222 H 0.71502 0.93319 0.27903 0.0
H3223 H 0.72384 0.91613 0.2756 0.0
H3224 H 0.7049 0.95316 0.23753 0.0
H3225 H 0.73 0.91519 0.22642 0.0
H3226 H 0.73045 0.96787 0.26297 0.0
H3227 H 0.71638 0.95816 0.27236 0.0
H3228 H 0.71182 0.96903 0.25662 0.0
H3229 H 0.75955 0.92086 0.24941 0.0
H3230 H 0.74916 0.90656 0.2408 0.0
H3231 H 0.74684 0.91046 0.25995 0.0
C3232 C 0.0576 0.70412 0.23726 0.0
C3233 C 0.05366 0.70661 0.22269 0.0
C3234 C 0.0567 0.71535 0.24762 0.0
C3235 C 0.05134 0.72921 0.24335 0.0
C3236 C 0.04633 0.73141 0.2289 0.0
C3237 C 0.04779 0.72013 0.21866 0.0
C3238 C 0.06249 0.71267 0.26282 0.0
C3239 C 0.04011 0.74589 0.22408 0.0
C3240 C 0.04358 0.7563 0.2738 0.0
C3241 C 0.05619 0.76494 0.27338 0.0
C3242 C 0.04156 0.74488 0.26376 0.0
C3243 C 0.05266 0.7418 0.25346 0.0
C3244 C 0.0654 0.75055 0.25301 0.0
C3245 C 0.06689 0.76216 0.26283 0.0
C3246 C 0.02765 0.73607 0.26423 0.0
C3247 C 0.07764 0.74742 0.24241 0.0
H3248 H 0.06222 0.69368 0.24036 0.0
H3249 H 0.04463 0.72199 0.2074 0.0
H3250 H 0.07252 0.71925 0.26453 0.0
H3251 H 0.05442 0.7162 0.27112 0.0
H3252 H 0.06516 0.701 0.26473 0.0
H3253 H 0.03467 0.74512 0.21326 0.0
H3254 H 0.03211 0.74999 0.23219 0.0
H3255 H 0.04901 0.75406 0.22329 0.0
H3256 H 0.03526 0.75853 0.28191 0.0
H3257 H 0.07671 0.76876 0.26256 0.0
H3258 H 0.03013 0.72461 0.26726 0.0
H3259 H 0.0225 0.73585 0.25327 0.0
H3260 H 0.01967 0.74052 0.2722 0.0
H3261 H 0.08173 0.73613 0.24405 0.0
H3262 H 0.08694 0.75511 0.24368 0.0
H3263 H 0.07358 0.74817 0.23103 0.0
C3264 C 0.22582 0.92393 0.72329 0.0
C3265 C 0.22455 0.93457 0.71239 0.0
C3266 C 0.23746 0.92421 0.73322 0.0
C3267 C 0.24777 0.93572 0.73254 0.0
C3268 C 0.24601 0.94699 0.72211 0.0
C3269 C 0.23455 0.94613 0.71195 0.0
C3270 C 0.23916 0.91176 0.7439 0.0
C3271 C 0.25645 0.95972 0.72142 0.0
C3272 C 0.27219 0.93816 0.76593 0.0
C3273 C 0.28478 0.93103 0.76099 0.0
C3274 C 0.26034 0.9406 0.75651 0.0
C3275 C 0.26093 0.93525 0.74202 0.0
C3276 C 0.2738 0.92835 0.73691 0.0
C3277 C 0.28567 0.92656 0.7464 0.0
C3278 C 0.24704 0.94849 0.76219 0.0
C3279 C 0.27474 0.92213 0.72167 0.0
H3280 H 0.21814 0.91493 0.72358 0.0
H3281 H 0.2335 0.95442 0.70357 0.0
H3282 H 0.24954 0.90591 0.74172 0.0
H3283 H 0.23972 0.916 0.75522 0.0
H3284 H 0.23003 0.90381 0.74321 0.0
H3285 H 0.25246 0.96848 0.71404 0.0
H3286 H 0.25814 0.96439 0.73247 0.0
H3287 H 0.26722 0.95594 0.7174 0.0
H3288 H 0.27155 0.94168 0.77721 0.0
H3289 H 0.29536 0.92091 0.74262 0.0
H3290 H 0.23787 0.94068 0.76338 0.0
H3291 H 0.24353 0.95702 0.75433 0.0
H3292 H 0.24907 0.95368 0.77295 0.0
H3293 H 0.26643 0.91342 0.72032 0.0
H3294 H 0.28566 0.91744 0.71927 0.0
H3295 H 0.27233 0.9307 0.71347 0.0
C3296 C 0.07422 0.2349 0.73002 0.0
C3297 C 0.06484 0.2339 0.71798 0.0
C3298 C 0.07352 0.24683 0.73954 0.0
C3299 C 0.06286 0.25778 0.73723 0.0
C3300 C 0.05306 0.2566 0.72533 0.0
C3301 C 0.05434 0.24476 0.71568 0.0
C3302 C 0.0844 0.24788 0.75189 0.0
C3303 C 0.04127 0.26783 0.72281 0.0
C3304 C 0.05514 0.28096 0.77061 0.0
C3305 C 0.06318 0.29358 0.7675 0.0
C3306 C 0.05433 0.26949 0.7605 0.0
C3307 C 0.06218 0.27051 0.74724 0.0
C3308 C 0.07019 0.28333 0.74399 0.0
C3309 C 0.0704 0.29484 0.75409 0.0
C3310 C 0.04532 0.25618 0.76416 0.0
C3311 C 0.07903 0.28465 0.73014 0.0
H3312 H 0.08244 0.22657 0.73175 0.0
H3313 H 0.04704 0.24392 0.7064 0.0
H3314 H 0.09064 0.25823 0.75101 0.0
H3315 H 0.07862 0.24807 0.76252 0.0
H3316 H 0.09224 0.23863 0.75193 0.0
H3317 H 0.03406 0.26491 0.71351 0.0
H3318 H 0.03449 0.26901 0.73278 0.0
H3319 H 0.04626 0.27863 0.72057 0.0
H3320 H 0.04943 0.28008 0.78094 0.0
H3321 H 0.07668 0.30459 0.75174 0.0
H3322 H 0.05259 0.24664 0.76578 0.0
H3323 H 0.03787 0.25352 0.75498 0.0
H3324 H 0.03872 0.25773 0.77421 0.0
H3325 H 0.08765 0.27613 0.72999 0.0
H3326 H 0.08431 0.29551 0.72906 0.0
H3327 H 0.07199 0.28279 0.72047 0.0
C3328 C 0.71045 0.06165 0.74688 0.0
C3329 C 0.71243 0.05719 0.76137 0.0
C3330 C 0.72193 0.0608 0.7368 0.0
C3331 C 0.73551 0.05485 0.74122 0.0
C3332 C 0.73727 0.04958 0.75564 0.0
C3333 C 0.72577 0.05111 0.76566 0.0
C3334 C 0.71976 0.06697 0.72166 0.0
C3335 C 0.75138 0.04267 0.76058 0.0
C3336 C 0.76112 0.04555 0.70998 0.0
C3337 C 0.77045 0.05767 0.71003 0.0
C3338 C 0.75014 0.04406 0.72058 0.0
C3339 C 0.74814 0.05526 0.73105 0.0
C3340 C 0.75772 0.06738 0.73127 0.0
C3341 C 0.76894 0.06829 0.72091 0.0
C3342 C 0.7405 0.03071 0.72036 0.0
C3343 C 0.7557 0.07976 0.74198 0.0
H3344 H 0.70015 0.06648 0.74363 0.0
H3345 H 0.72722 0.04758 0.77686 0.0
H3346 H 0.72741 0.0762 0.71989 0.0
H3347 H 0.72226 0.05858 0.71331 0.0
H3348 H 0.70844 0.07094 0.71988 0.0
H3349 H 0.75035 0.03749 0.7715 0.0
H3350 H 0.75498 0.03429 0.75261 0.0
H3351 H 0.76008 0.05107 0.76115 0.0
H3352 H 0.76237 0.03729 0.7016 0.0
H3353 H 0.7761 0.07772 0.72092 0.0
H3354 H 0.72928 0.03381 0.71703 0.0
H3355 H 0.73976 0.02589 0.73145 0.0
H3356 H 0.74458 0.02225 0.71269 0.0
H3357 H 0.74481 0.08482 0.74035 0.0
H3358 H 0.76417 0.08835 0.74076 0.0
H3359 H 0.75607 0.07558 0.75333 0.0
C3360 C 0.948 0.70251 0.75671 0.0
C3361 C 0.93559 0.70168 0.7656 0.0
C3362 C 0.9492 0.71333 0.7459 0.0
C3363 C 0.93746 0.72312 0.74365 0.0
C3364 C 0.92497 0.72239 0.75273 0.0
C3365 C 0.92432 0.71184 0.76377 0.0
C3366 C 0.9629 0.71416 0.73679 0.0
C3367 C 0.91205 0.73239 0.75046 0.0
C3368 C 0.93941 0.75911 0.7235 0.0
C3369 C 0.93353 0.75528 0.70992 0.0
C3370 C 0.94189 0.74849 0.73424 0.0
C3371 C 0.93779 0.73385 0.7315 0.0
C3372 C 0.93236 0.72986 0.71758 0.0
C3373 C 0.93053 0.74062 0.70685 0.0
C3374 C 0.9482 0.75307 0.74876 0.0
C3375 C 0.92748 0.71444 0.71435 0.0
H3376 H 0.95676 0.69469 0.75821 0.0
H3377 H 0.91467 0.71119 0.77058 0.0
H3378 H 0.96037 0.71126 0.72531 0.0
H3379 H 0.96721 0.72548 0.73677 0.0
H3380 H 0.97154 0.70668 0.74084 0.0
H3381 H 0.90307 0.7302 0.75831 0.0
H3382 H 0.91546 0.74394 0.75167 0.0
H3383 H 0.90774 0.73106 0.73921 0.0
H3384 H 0.94183 0.77047 0.72579 0.0
H3385 H 0.92586 0.73771 0.69637 0.0
H3386 H 0.95677 0.74528 0.75231 0.0
H3387 H 0.9395 0.753 0.75718 0.0
H3388 H 0.95298 0.76421 0.74831 0.0
H3389 H 0.93619 0.70654 0.7172 0.0
H3390 H 0.92451 0.71291 0.7027 0.0
H3391 H 0.91782 0.71177 0.72117 0.0
C3392 C 0.22875 0.26646 0.07313 0.0
C3393 C 0.22615 0.27689 0.06228 0.0
C3394 C 0.23982 0.25606 0.07149 0.0
C3395 C 0.24807 0.25577 0.05842 0.0
C3396 C 0.24511 0.26595 0.04718 0.0
C3397 C 0.23433 0.27662 0.04938 0.0
C3398 C 0.24293 0.24566 0.08391 0.0
C3399 C 0.25333 0.26559 0.03291 0.0
C3400 C 0.2852 0.23796 0.06176 0.0
C3401 C 0.28184 0.22347 0.05832 0.0
C3402 C 0.27438 0.24878 0.06134 0.0
C3403 C 0.26007 0.24502 0.05687 0.0
C3404 C 0.25694 0.23056 0.05239 0.0
C3405 C 0.26782 0.21986 0.05348 0.0
C3406 C 0.27804 0.26396 0.06664 0.0
C3407 C 0.24195 0.22627 0.04704 0.0
H3408 H 0.22249 0.26677 0.08317 0.0
H3409 H 0.23221 0.28468 0.04097 0.0
H3410 H 0.24137 0.23423 0.08025 0.0
H3411 H 0.25448 0.24678 0.08742 0.0
H3412 H 0.23577 0.24763 0.09349 0.0
H3413 H 0.24895 0.27357 0.02489 0.0
H3414 H 0.26502 0.26808 0.03481 0.0
H3415 H 0.25276 0.2545 0.02807 0.0
H3416 H 0.29605 0.24067 0.06562 0.0
H3417 H 0.26532 0.20862 0.05073 0.0
H3418 H 0.2719 0.26626 0.07683 0.0
H3419 H 0.27467 0.27223 0.05847 0.0
H3420 H 0.28988 0.26532 0.06888 0.0
H3421 H 0.23419 0.22617 0.05633 0.0
H3422 H 0.24193 0.21528 0.04192 0.0
H3423 H 0.23787 0.23434 0.03898 0.0
C3424 C 0.22586 0.71974 0.94404 0.0
C3425 C 0.22875 0.70623 0.93752 0.0
C3426 C 0.23687 0.7303 0.94537 0.0
C3427 C 0.25086 0.72743 0.93948 0.0
C3428 C 0.25401 0.71348 0.93359 0.0
C3429 C 0.24293 0.70294 0.93289 0.0
C3430 C 0.23325 0.74483 0.95223 0.0
C3431 C 0.26867 0.7101 0.92685 0.0
C3432 C 0.27096 0.75936 0.92267 0.0
C3433 C 0.28257 0.76127 0.93243 0.0
C3434 C 0.26053 0.74843 0.92494 0.0
C3435 C 0.26145 0.73953 0.93755 0.0
C3436 C 0.27277 0.74187 0.94781 0.0
C3437 C 0.28339 0.75256 0.94498 0.0
C3438 C 0.24882 0.74608 0.91355 0.0
C3439 C 0.27377 0.73295 0.96163 0.0
H3440 H 0.21488 0.72221 0.94769 0.0
H3441 H 0.24511 0.69252 0.92772 0.0
H3442 H 0.2422 0.74845 0.95955 0.0
H3443 H 0.23201 0.75321 0.94357 0.0
H3444 H 0.22293 0.74438 0.95859 0.0
H3445 H 0.2698 0.69837 0.92399 0.0
H3446 H 0.27006 0.71667 0.91677 0.0
H3447 H 0.27763 0.71312 0.9344 0.0
H3448 H 0.27036 0.76602 0.91291 0.0
H3449 H 0.29233 0.75412 0.95257 0.0
H3450 H 0.23787 0.74742 0.91851 0.0
H3451 H 0.24949 0.73477 0.90925 0.0
H3452 H 0.2498 0.7538 0.90426 0.0
H3453 H 0.26312 0.73298 0.96741 0.0
H3454 H 0.2823 0.73713 0.96916 0.0
H3455 H 0.27635 0.72144 0.95891 0.0
C3456 C 0.2216 0.26829 0.93784 0.0
C3457 C 0.22585 0.28208 0.9328 0.0
C3458 C 0.2317 0.25681 0.93873 0.0
C3459 C 0.24621 0.25908 0.9339 0.0
C3460 C 0.25063 0.27312 0.92917 0.0
C3461 C 0.24044 0.28452 0.92892 0.0
C3462 C 0.22674 0.24214 0.94435 0.0
C3463 C 0.26587 0.2759 0.92353 0.0
C3464 C 0.27742 0.23278 0.94113 0.0
C3465 C 0.27753 0.22464 0.92818 0.0
C3466 C 0.26677 0.24355 0.94352 0.0
C3467 C 0.25642 0.24657 0.93245 0.0
C3468 C 0.25639 0.23821 0.91945 0.0
C3469 C 0.2668 0.22716 0.9176 0.0
C3470 C 0.26679 0.25188 0.95774 0.0
C3471 C 0.2458 0.24135 0.90721 0.0
H3472 H 0.21032 0.26646 0.94094 0.0
H3473 H 0.24371 0.29516 0.9249 0.0
H3474 H 0.22617 0.23425 0.93519 0.0
H3475 H 0.2347 0.23778 0.95239 0.0
H3476 H 0.21582 0.24272 0.94959 0.0
H3477 H 0.26771 0.28756 0.92077 0.0
H3478 H 0.27409 0.27254 0.93176 0.0
H3479 H 0.2678 0.26924 0.91359 0.0
H3480 H 0.28567 0.23073 0.94936 0.0
H3481 H 0.26694 0.22093 0.90754 0.0
H3482 H 0.25565 0.25209 0.96249 0.0
H3483 H 0.27007 0.26336 0.95574 0.0
H3484 H 0.27441 0.24706 0.96585 0.0
H3485 H 0.23441 0.24051 0.9112 0.0
H3486 H 0.24717 0.23376 0.89785 0.0
H3487 H 0.24739 0.25269 0.90323 0.0
C3488 C 0.71576 0.22315 0.92242 0.0
C3489 C 0.70447 0.22205 0.93266 0.0
C3490 C 0.72609 0.23439 0.92328 0.0
C3491 C 0.72542 0.24445 0.935 0.0
C3492 C 0.71466 0.24276 0.94597 0.0
C3493 C 0.7041 0.23172 0.94452 0.0
C3494 C 0.73717 0.236 0.91117 0.0
C3495 C 0.71397 0.2529 0.95893 0.0
C3496 C 0.75954 0.26767 0.93785 0.0
C3497 C 0.75513 0.28036 0.93055 0.0
C3498 C 0.74964 0.25625 0.9404 0.0
C3499 C 0.73522 0.25736 0.93496 0.0
C3500 C 0.73061 0.27039 0.92802 0.0
C3501 C 0.74058 0.28184 0.92612 0.0
C3502 C 0.75479 0.24277 0.94835 0.0
C3503 C 0.71545 0.27188 0.92171 0.0
H3504 H 0.71609 0.2157 0.91324 0.0
H3505 H 0.69545 0.23079 0.95253 0.0
H3506 H 0.73549 0.24658 0.90549 0.0
H3507 H 0.74838 0.23608 0.91572 0.0
H3508 H 0.7364 0.22708 0.90299 0.0
H3509 H 0.70646 0.24879 0.96752 0.0
H3510 H 0.72499 0.25436 0.96375 0.0
H3511 H 0.7101 0.2638 0.95537 0.0
H3512 H 0.77079 0.26659 0.94137 0.0
H3513 H 0.73719 0.29162 0.92038 0.0
H3514 H 0.75613 0.23366 0.94049 0.0
H3515 H 0.74659 0.2393 0.95657 0.0
H3516 H 0.7654 0.24457 0.95394 0.0
H3517 H 0.71395 0.26379 0.91281 0.0
H3518 H 0.71339 0.28296 0.91721 0.0
H3519 H 0.70711 0.26954 0.93016 0.0
C3520 C 0.71264 0.75367 0.94219 0.0
C3521 C 0.71179 0.76219 0.92952 0.0
C3522 C 0.72343 0.74286 0.94366 0.0
C3523 C 0.73318 0.74023 0.93196 0.0
C3524 C 0.73254 0.74906 0.91929 0.0
C3525 C 0.722 0.7601 0.91834 0.0
C3526 C 0.72411 0.734 0.95754 0.0
C3527 C 0.74248 0.74637 0.90641 0.0
C3528 C 0.76783 0.71768 0.93475 0.0
C3529 C 0.76305 0.70417 0.9294 0.0
C3530 C 0.75801 0.72933 0.93652 0.0
C3531 C 0.74325 0.72752 0.93232 0.0
C3532 C 0.73833 0.71377 0.92725 0.0
C3533 C 0.74826 0.7022 0.92608 0.0
C3534 C 0.76353 0.74368 0.94243 0.0
C3535 C 0.72276 0.71149 0.92231 0.0
H3536 H 0.70482 0.75538 0.9509 0.0
H3537 H 0.72132 0.76663 0.90849 0.0
H3538 H 0.72047 0.72267 0.95533 0.0
H3539 H 0.73551 0.7334 0.96159 0.0
H3540 H 0.7171 0.73865 0.96626 0.0
H3541 H 0.74082 0.75446 0.89753 0.0
H3542 H 0.75406 0.74679 0.90988 0.0
H3543 H 0.74045 0.73529 0.90195 0.0
H3544 H 0.77926 0.71916 0.93742 0.0
H3545 H 0.74455 0.69179 0.92184 0.0
H3546 H 0.75613 0.7478 0.95109 0.0
H3547 H 0.7637 0.75194 0.93359 0.0
H3548 H 0.77473 0.74272 0.947 0.0
H3549 H 0.71506 0.71453 0.93113 0.0
H3550 H 0.72059 0.70001 0.91907 0.0
H3551 H 0.72041 0.71867 0.91283 0.0
C3552 C 0.75957 0.71815 0.06828 0.0
C3553 C 0.76149 0.70711 0.05791 0.0
C3554 C 0.74849 0.72854 0.0667 0.0
C3555 C 0.73948 0.72821 0.05414 0.0
C3556 C 0.74166 0.71731 0.04339 0.0
C3557 C 0.75249 0.70667 0.04556 0.0
C3558 C 0.74625 0.73971 0.07864 0.0
C3559 C 0.73262 0.71697 0.02962 0.0
C3560 C 0.70333 0.74758 0.05905 0.0
C3561 C 0.70705 0.7618 0.05489 0.0
C3562 C 0.7136 0.73626 0.0582 0.0
C3563 C 0.7277 0.73922 0.05257 0.0
C3564 C 0.73104 0.75334 0.04723 0.0
C3565 C 0.72076 0.76457 0.04877 0.0
C3566 C 0.70975 0.7215 0.06444 0.0
C3567 C 0.74576 0.75678 0.04066 0.0
H3568 H 0.76647 0.71841 0.07789 0.0
H3569 H 0.75408 0.69814 0.03751 0.0
H3570 H 0.74804 0.75086 0.07427 0.0
H3571 H 0.73485 0.7392 0.0827 0.0
H3572 H 0.75377 0.73802 0.08801 0.0
H3573 H 0.73618 0.70823 0.02201 0.0
H3574 H 0.72097 0.71521 0.03235 0.0
H3575 H 0.73339 0.72764 0.02393 0.0
H3576 H 0.69275 0.74554 0.06395 0.0
H3577 H 0.72356 0.7756 0.04551 0.0
H3578 H 0.71613 0.71965 0.07458 0.0
H3579 H 0.71268 0.71268 0.05669 0.0
H3580 H 0.69796 0.72059 0.0671 0.0
H3581 H 0.75409 0.75732 0.04944 0.0
H3582 H 0.74572 0.76739 0.03479 0.0
H3583 H 0.74913 0.74806 0.03297 0.0
C3584 C 0.24086 0.6971 0.05599 0.0
C3585 C 0.22633 0.69904 0.05164 0.0
C3586 C 0.2509 0.7086 0.05504 0.0
C3587 C 0.24639 0.72216 0.04912 0.0
C3588 C 0.23203 0.72374 0.04362 0.0
C3589 C 0.22206 0.71224 0.04525 0.0
C3590 C 0.26596 0.7066 0.06144 0.0
C3591 C 0.22698 0.73783 0.03673 0.0
C3592 C 0.26418 0.75617 0.06445 0.0
C3593 C 0.27522 0.75886 0.05423 0.0
C3594 C 0.25476 0.74425 0.06287 0.0
C3595 C 0.25604 0.73512 0.05046 0.0
C3596 C 0.26681 0.73814 0.03978 0.0
C3597 C 0.2765 0.74983 0.04195 0.0
C3598 C 0.24371 0.74117 0.07474 0.0
C3599 C 0.26812 0.72899 0.02614 0.0
H3600 H 0.2441 0.68692 0.06109 0.0
H3601 H 0.21081 0.71366 0.04183 0.0
H3602 H 0.27445 0.71014 0.05358 0.0
H3603 H 0.26708 0.71353 0.07132 0.0
H3604 H 0.26813 0.69508 0.06456 0.0
H3605 H 0.21649 0.73646 0.0308 0.0
H3606 H 0.22544 0.74622 0.04531 0.0
H3607 H 0.23532 0.74202 0.029 0.0
H3608 H 0.26326 0.76309 0.074 0.0
H3609 H 0.28499 0.75201 0.03401 0.0
H3610 H 0.24541 0.73002 0.07916 0.0
H3611 H 0.23251 0.74158 0.07019 0.0
H3612 H 0.24443 0.7491 0.08388 0.0
H3613 H 0.27147 0.71773 0.02904 0.0
H3614 H 0.27621 0.73354 0.01834 0.0
H3615 H 0.25737 0.72823 0.0206 0.0
C3616 C 0.69854 0.24077 0.05489 0.0
C3617 C 0.70259 0.22674 0.05034 0.0
C3618 C 0.70826 0.25251 0.05365 0.0
C3619 C 0.72216 0.25022 0.04729 0.0
C3620 C 0.7258 0.23631 0.04159 0.0
C3621 C 0.71606 0.22464 0.04344 0.0
C3622 C 0.70411 0.26705 0.06023 0.0
C3623 C 0.74033 0.23356 0.03432 0.0
C3624 C 0.74542 0.28387 0.04006 0.0
C3625 C 0.75479 0.28361 0.05214 0.0
C3626 C 0.73495 0.27283 0.03803 0.0
C3627 C 0.73357 0.26164 0.04863 0.0
C3628 C 0.74295 0.26146 0.0609 0.0
C3629 C 0.7536 0.2723 0.06236 0.0
C3630 C 0.72544 0.27306 0.02458 0.0
C3631 C 0.7416 0.24996 0.07266 0.0
H3632 H 0.68814 0.24238 0.0603 0.0
H3633 H 0.71911 0.21381 0.03978 0.0
H3634 H 0.71081 0.26903 0.07012 0.0
H3635 H 0.70636 0.27606 0.05248 0.0
H3636 H 0.6924 0.26747 0.06338 0.0
H3637 H 0.74044 0.22304 0.02828 0.0
H3638 H 0.743 0.24252 0.02662 0.0
H3639 H 0.74906 0.23323 0.0427 0.0
H3640 H 0.74644 0.29257 0.0321 0.0
H3641 H 0.76078 0.27212 0.07177 0.0
H3642 H 0.71383 0.27427 0.02775 0.0
H3643 H 0.72645 0.26256 0.01864 0.0
H3644 H 0.72837 0.28211 0.01705 0.0
H3645 H 0.73036 0.24998 0.07719 0.0
H3646 H 0.74942 0.25172 0.08176 0.0
H3647 H 0.7436 0.23899 0.06797 0.0
C3648 C 0.54904 0.77139 0.71768 0.0
C3649 C 0.55452 0.78506 0.72178 0.0
C3650 C 0.54797 0.75999 0.72787 0.0
C3651 C 0.55296 0.76223 0.74233 0.0
C3652 C 0.55796 0.7762 0.74664 0.0
C3653 C 0.55847 0.78751 0.73636 0.0
C3654 C 0.54214 0.74537 0.72299 0.0
C3655 C 0.56372 0.77896 0.76185 0.0
C3656 C 0.54614 0.73529 0.77317 0.0
C3657 C 0.55903 0.72707 0.77284 0.0
C3658 C 0.54368 0.74643 0.7629 0.0
C3659 C 0.55461 0.74966 0.75245 0.0
C3660 C 0.56761 0.74132 0.75208 0.0
C3661 C 0.56955 0.72997 0.76214 0.0
C3662 C 0.5295 0.7548 0.7633 0.0
C3663 C 0.5797 0.74465 0.74137 0.0
H3664 H 0.54587 0.76953 0.70643 0.0
H3665 H 0.56278 0.79806 0.73956 0.0
H3666 H 0.55124 0.73744 0.72217 0.0
H3667 H 0.53426 0.74103 0.73111 0.0
H3668 H 0.53666 0.74604 0.71219 0.0
H3669 H 0.56626 0.79066 0.76375 0.0
H3670 H 0.55569 0.77534 0.77015 0.0
H3671 H 0.57383 0.77251 0.76356 0.0
H3672 H 0.53795 0.73295 0.78138 0.0
H3673 H 0.57957 0.72368 0.76193 0.0
H3674 H 0.52439 0.75488 0.75232 0.0
H3675 H 0.53162 0.76632 0.76635 0.0
H3676 H 0.52163 0.7501 0.77124 0.0
H3677 H 0.57557 0.74379 0.73002 0.0
H3678 H 0.58916 0.73716 0.74259 0.0
H3679 H 0.58356 0.75603 0.74295 0.0
C3680 C 0.19299 0.55505 0.74261 0.0
C3681 C 0.19549 0.54987 0.72843 0.0
C3682 C 0.20426 0.55526 0.75296 0.0
C3683 C 0.21819 0.54977 0.74913 0.0
C3684 C 0.22037 0.54337 0.73523 0.0
C3685 C 0.20905 0.54375 0.72494 0.0
C3686 C 0.20157 0.56251 0.76752 0.0
C3687 C 0.23492 0.53692 0.73094 0.0
C3688 C 0.2508 0.56829 0.76647 0.0
C3689 C 0.25387 0.55895 0.77816 0.0
C3690 C 0.23922 0.56536 0.75693 0.0
C3691 C 0.23084 0.55251 0.75887 0.0
C3692 C 0.23424 0.54275 0.77035 0.0
C3693 C 0.24559 0.54623 0.78006 0.0
C3694 C 0.23572 0.57624 0.74504 0.0
C3695 C 0.22586 0.52871 0.77242 0.0
H3696 H 0.18256 0.55989 0.74529 0.0
H3697 H 0.21094 0.53967 0.71397 0.0
H3698 H 0.20546 0.55548 0.77657 0.0
H3699 H 0.2078 0.57288 0.76806 0.0
H3700 H 0.18983 0.56499 0.76931 0.0
H3701 H 0.23408 0.53018 0.72089 0.0
H3702 H 0.24285 0.54584 0.72888 0.0
H3703 H 0.23936 0.53008 0.73989 0.0
H3704 H 0.25715 0.57818 0.76507 0.0
H3705 H 0.24807 0.53896 0.78906 0.0
H3706 H 0.22432 0.58017 0.74628 0.0
H3707 H 0.23655 0.57095 0.73419 0.0
H3708 H 0.24314 0.58583 0.74522 0.0
H3709 H 0.21436 0.53117 0.77529 0.0
H3710 H 0.23062 0.52177 0.78115 0.0
H3711 H 0.2257 0.52241 0.76208 0.0
C3712 C 0.42297 0.21061 0.74456 0.0
C3713 C 0.42713 0.21163 0.72991 0.0
C3714 C 0.42573 0.22207 0.7543 0.0
C3715 C 0.43337 0.23458 0.74934 0.0
C3716 C 0.43838 0.23524 0.73473 0.0
C3717 C 0.43488 0.22387 0.72506 0.0
C3718 C 0.41975 0.22115 0.76964 0.0
C3719 C 0.44709 0.2481 0.72923 0.0
C3720 C 0.42425 0.26966 0.76909 0.0
C3721 C 0.43484 0.26987 0.78013 0.0
C3722 C 0.42388 0.25841 0.75877 0.0
C3723 C 0.43476 0.24745 0.7591 0.0
C3724 C 0.44613 0.24821 0.76955 0.0
C3725 C 0.44585 0.25926 0.78018 0.0
C3726 C 0.41132 0.25778 0.74809 0.0
C3727 C 0.45827 0.23708 0.76982 0.0
H3728 H 0.41686 0.20116 0.74824 0.0
H3729 H 0.43818 0.22455 0.71371 0.0
H3730 H 0.42864 0.22262 0.77771 0.0
H3731 H 0.41174 0.23006 0.77142 0.0
H3732 H 0.41428 0.21054 0.77182 0.0
H3733 H 0.45204 0.24592 0.71837 0.0
H3734 H 0.4399 0.25779 0.72826 0.0
H3735 H 0.4559 0.25089 0.73706 0.0
H3736 H 0.41573 0.27786 0.76899 0.0
H3737 H 0.45414 0.25951 0.78862 0.0
H3738 H 0.40489 0.24767 0.74997 0.0
H3739 H 0.41546 0.25735 0.73674 0.0
H3740 H 0.40389 0.26731 0.74913 0.0
H3741 H 0.45401 0.22649 0.77385 0.0
H3742 H 0.46741 0.24051 0.77703 0.0
H3743 H 0.46258 0.23524 0.75865 0.0
C3744 C 0.72328 0.44954 0.7774 0.0
C3745 C 0.72708 0.4411 0.78957 0.0
C3746 C 0.73323 0.45173 0.76596 0.0
C3747 C 0.74703 0.44481 0.76651 0.0
C3748 C 0.75118 0.43693 0.77916 0.0
C3749 C 0.74121 0.43537 0.79065 0.0
C3750 C 0.72863 0.4607 0.75293 0.0
C3751 C 0.76566 0.42908 0.78004 0.0
C3752 C 0.76309 0.43099 0.73107 0.0
C3753 C 0.7753 0.44003 0.72939 0.0
C3754 C 0.75368 0.43264 0.74299 0.0
C3755 C 0.75624 0.44396 0.75319 0.0
C3756 C 0.76805 0.4537 0.75108 0.0
C3757 C 0.77764 0.45144 0.73932 0.0
C3758 C 0.74139 0.42181 0.74501 0.0
C3759 C 0.77077 0.46624 0.76141 0.0
H3760 H 0.71237 0.45406 0.77664 0.0
H3761 H 0.74413 0.42876 0.80003 0.0
H3762 H 0.73766 0.46793 0.74932 0.0
H3763 H 0.72593 0.45335 0.7437 0.0
H3764 H 0.71889 0.46751 0.75535 0.0
H3765 H 0.7677 0.42445 0.79106 0.0
H3766 H 0.76582 0.42003 0.77198 0.0
H3767 H 0.77474 0.43657 0.77725 0.0
H3768 H 0.76126 0.42215 0.72343 0.0
H3769 H 0.78703 0.45852 0.73794 0.0
H3770 H 0.73077 0.42758 0.74547 0.0
H3771 H 0.74279 0.41594 0.75552 0.0
H3772 H 0.74093 0.41363 0.73607 0.0
H3773 H 0.76049 0.47229 0.7635 0.0
H3774 H 0.77906 0.47397 0.75709 0.0
H3775 H 0.77468 0.46198 0.77204 0.0
C3776 C 0.56244 0.19217 0.24937 0.0
C3777 C 0.55458 0.19392 0.26236 0.0
C3778 C 0.56301 0.20341 0.23898 0.0
C3779 C 0.55518 0.2165 0.24151 0.0
C3780 C 0.54652 0.21795 0.25422 0.0
C3781 C 0.54652 0.20671 0.26462 0.0
C3782 C 0.57261 0.20157 0.22571 0.0
C3783 C 0.53769 0.23157 0.25708 0.0
C3784 C 0.57021 0.25106 0.22445 0.0
C3785 C 0.56191 0.25212 0.21166 0.0
C3786 C 0.56805 0.23955 0.23429 0.0
C3787 C 0.55703 0.22909 0.23146 0.0
C3788 C 0.5482 0.23045 0.21885 0.0
C3789 C 0.55089 0.24185 0.20896 0.0
C3790 C 0.57789 0.23832 0.24747 0.0
C3791 C 0.53607 0.21975 0.2157 0.0
H3792 H 0.56876 0.1823 0.24766 0.0
H3793 H 0.54033 0.20801 0.27463 0.0
H3794 H 0.56628 0.20368 0.21561 0.0
H3795 H 0.58161 0.20967 0.22607 0.0
H3796 H 0.57743 0.19047 0.22502 0.0
H3797 H 0.53022 0.23026 0.26655 0.0
H3798 H 0.54512 0.24085 0.25933 0.0
H3799 H 0.53114 0.23446 0.24732 0.0
H3800 H 0.57882 0.25893 0.2265 0.0
H3801 H 0.54441 0.24272 0.1991 0.0
H3802 H 0.5839 0.22781 0.24713 0.0
H3803 H 0.57129 0.23838 0.25762 0.0
H3804 H 0.58596 0.24736 0.24806 0.0
H3805 H 0.54072 0.20876 0.21366 0.0
H3806 H 0.52947 0.223 0.20606 0.0
H3807 H 0.52874 0.21882 0.2253 0.0
C3808 C 0.78108 0.55901 0.25028 0.0
C3809 C 0.77848 0.55423 0.26456 0.0
C3810 C 0.77016 0.55806 0.2396 0.0
C3811 C 0.75653 0.55173 0.24322 0.0
C3812 C 0.75425 0.54595 0.25737 0.0
C3813 C 0.76517 0.54754 0.26798 0.0
C3814 C 0.77289 0.56474 0.22477 0.0
C3815 C 0.74006 0.53864 0.26147 0.0
C3816 C 0.72361 0.56618 0.22284 0.0
C3817 C 0.72223 0.55603 0.2115 0.0
C3818 C 0.73466 0.5648 0.23331 0.0
C3819 C 0.74421 0.55267 0.23272 0.0
C3820 C 0.7424 0.54197 0.22171 0.0
C3821 C 0.73158 0.54394 0.21102 0.0
C3822 C 0.73646 0.57665 0.24464 0.0
C3823 C 0.75204 0.52863 0.22107 0.0
H3824 H 0.79135 0.5643 0.24768 0.0
H3825 H 0.76323 0.54376 0.27903 0.0
H3826 H 0.7704 0.55677 0.21602 0.0
H3827 H 0.76552 0.57423 0.2232 0.0
H3828 H 0.78434 0.56849 0.22345 0.0
H3829 H 0.74086 0.53278 0.27205 0.0
H3830 H 0.73131 0.54697 0.26237 0.0
H3831 H 0.73671 0.53078 0.25288 0.0
H3832 H 0.71644 0.57559 0.22317 0.0
H3833 H 0.73042 0.53604 0.20229 0.0
H3834 H 0.74746 0.58163 0.24365 0.0
H3835 H 0.73561 0.57195 0.25577 0.0
H3836 H 0.72815 0.58541 0.24353 0.0
H3837 H 0.76337 0.53188 0.21829 0.0
H3838 H 0.74821 0.52061 0.21282 0.0
H3839 H 0.75241 0.52321 0.2319 0.0
C3840 C 0.42392 0.7314 0.21731 0.0
C3841 C 0.43364 0.72935 0.2057 0.0
C3842 C 0.42638 0.74223 0.2278 0.0
C3843 C 0.43918 0.75084 0.22696 0.0
C3844 C 0.44934 0.74846 0.21555 0.0
C3845 C 0.44629 0.7379 0.20484 0.0
C3846 C 0.41505 0.74468 0.23954 0.0
C3847 C 0.46336 0.75706 0.21466 0.0
C3848 C 0.43563 0.78704 0.24646 0.0
C3849 C 0.44017 0.78325 0.26055 0.0
C3850 C 0.43598 0.77679 0.23511 0.0
C3851 C 0.44149 0.7626 0.23787 0.0
C3852 C 0.44726 0.75917 0.2518 0.0
C3853 C 0.44624 0.76946 0.26309 0.0
C3854 C 0.42931 0.78075 0.22057 0.0
C3855 C 0.45372 0.74436 0.25501 0.0
H3856 H 0.41408 0.72486 0.21794 0.0
H3857 H 0.45385 0.73621 0.1959 0.0
H3858 H 0.41993 0.7428 0.25046 0.0
H3859 H 0.4112 0.75616 0.23923 0.0
H3860 H 0.40546 0.73736 0.23832 0.0
H3861 H 0.4706 0.75311 0.20578 0.0
H3862 H 0.4609 0.76876 0.21272 0.0
H3863 H 0.46934 0.75635 0.22518 0.0
H3864 H 0.4308 0.79768 0.24455 0.0
H3865 H 0.44983 0.7666 0.274 0.0
H3866 H 0.419 0.77455 0.21907 0.0
H3867 H 0.4367 0.7777 0.21149 0.0
H3868 H 0.42682 0.79259 0.21974 0.0
H3869 H 0.44483 0.73619 0.256 0.0
H3870 H 0.46006 0.74434 0.26534 0.0
H3871 H 0.46095 0.7408 0.24596 0.0
C3872 C 0.2713 0.438 0.21974 0.0
C3873 C 0.26714 0.4329 0.20595 0.0
C3874 C 0.26111 0.4389 0.23115 0.0
C3875 C 0.24663 0.43401 0.2288 0.0
C3876 C 0.24234 0.42914 0.21478 0.0
C3877 C 0.2526 0.42889 0.20345 0.0
C3878 C 0.26593 0.44466 0.24582 0.0
C3879 C 0.22713 0.42342 0.21193 0.0
C3880 C 0.22572 0.4184 0.26088 0.0
C3881 C 0.21508 0.42913 0.26317 0.0
C3882 C 0.23616 0.41995 0.24982 0.0
C3883 C 0.23627 0.4328 0.24121 0.0
C3884 C 0.22594 0.44397 0.24393 0.0
C3885 C 0.21526 0.44187 0.25472 0.0
C3886 C 0.2467 0.40759 0.24698 0.0
C3887 C 0.22605 0.45802 0.23532 0.0
H3888 H 0.28255 0.44117 0.22162 0.0
H3889 H 0.24941 0.4248 0.19281 0.0
H3890 H 0.258 0.45283 0.24994 0.0
H3891 H 0.2663 0.4356 0.25384 0.0
H3892 H 0.27691 0.44978 0.24531 0.0
H3893 H 0.22543 0.42045 0.2003 0.0
H3894 H 0.22515 0.4136 0.21875 0.0
H3895 H 0.21887 0.43169 0.21504 0.0
H3896 H 0.2255 0.4085 0.26736 0.0
H3897 H 0.20708 0.45022 0.2566 0.0
H3898 H 0.25811 0.41153 0.2479 0.0
H3899 H 0.24521 0.40347 0.23568 0.0
H3900 H 0.24517 0.39836 0.25469 0.0
H3901 H 0.23718 0.46281 0.23528 0.0
H3902 H 0.2183 0.4662 0.2398 0.0
H3903 H 0.22305 0.4558 0.2238 0.0
C3904 C 0.72411 0.54578 0.76881 0.0
C3905 C 0.72775 0.5516 0.78247 0.0
C3906 C 0.73465 0.54442 0.75781 0.0
C3907 C 0.74902 0.54945 0.76043 0.0
C3908 C 0.75296 0.55446 0.77451 0.0
C3909 C 0.74229 0.55529 0.78545 0.0
C3910 C 0.73013 0.53859 0.74307 0.0
C3911 C 0.76809 0.56019 0.77767 0.0
C3912 C 0.7794 0.54383 0.73268 0.0
C3913 C 0.77852 0.55684 0.72468 0.0
C3914 C 0.76964 0.54103 0.74419 0.0
C3915 C 0.75913 0.55171 0.74797 0.0
C3916 C 0.75828 0.56488 0.73992 0.0
C3917 C 0.76785 0.56718 0.72825 0.0
C3918 C 0.77055 0.5267 0.75227 0.0
C3919 C 0.74742 0.57669 0.74378 0.0
H3920 H 0.71288 0.54278 0.76657 0.0
H3921 H 0.74511 0.55985 0.796 0.0
H3922 H 0.72904 0.54778 0.73526 0.0
H3923 H 0.73854 0.53105 0.73869 0.0
H3924 H 0.71952 0.53275 0.74358 0.0
H3925 H 0.76992 0.56193 0.78953 0.0
H3926 H 0.77652 0.55258 0.77351 0.0
H3927 H 0.76963 0.57077 0.77197 0.0
H3928 H 0.78761 0.53579 0.72985 0.0
H3929 H 0.76722 0.57731 0.72215 0.0
H3930 H 0.7598 0.52112 0.752 0.0
H3931 H 0.77326 0.52868 0.7639 0.0
H3932 H 0.7789 0.51929 0.74755 0.0
H3933 H 0.73613 0.57244 0.74271 0.0
H3934 H 0.74852 0.58648 0.7367 0.0
H3935 H 0.74893 0.58009 0.75531 0.0
C3936 C 0.42379 0.76017 0.73116 0.0
C3937 C 0.43323 0.77206 0.7295 0.0
C3938 C 0.42586 0.75003 0.74241 0.0
C3939 C 0.438 0.75153 0.75187 0.0
C3940 C 0.44794 0.7632 0.74984 0.0
C3941 C 0.44526 0.77353 0.73883 0.0
C3942 C 0.41476 0.738 0.74446 0.0
C3943 C 0.46129 0.76481 0.75935 0.0
C3944 C 0.43271 0.73374 0.78875 0.0
C3945 C 0.43809 0.71969 0.78608 0.0
C3946 C 0.43322 0.7445 0.77789 0.0
C3947 C 0.43973 0.74122 0.76425 0.0
C3948 C 0.44625 0.72739 0.76198 0.0
C3949 C 0.44507 0.71665 0.77284 0.0
C3950 C 0.42575 0.75895 0.7806 0.0
C3951 C 0.45377 0.72368 0.7478 0.0
H3952 H 0.41443 0.7591 0.72401 0.0
H3953 H 0.45261 0.7827 0.73743 0.0
H3954 H 0.42012 0.72719 0.74352 0.0
H3955 H 0.40995 0.73869 0.75556 0.0
H3956 H 0.40579 0.73856 0.73633 0.0
H3957 H 0.46864 0.77364 0.75547 0.0
H3958 H 0.45796 0.7673 0.77072 0.0
H3959 H 0.4675 0.75441 0.75963 0.0
H3960 H 0.42717 0.73603 0.79895 0.0
H3961 H 0.44928 0.70577 0.77084 0.0
H3962 H 0.416 0.75984 0.77347 0.0
H3963 H 0.43311 0.76814 0.77782 0.0
H3964 H 0.4222 0.76019 0.79213 0.0
H3965 H 0.44549 0.72204 0.73912 0.0
H3966 H 0.4604 0.71356 0.74871 0.0
H3967 H 0.46097 0.73277 0.74429 0.0
C3968 C 0.25698 0.44542 0.77835 0.0
C3969 C 0.26607 0.43315 0.77921 0.0
C3970 C 0.24622 0.44646 0.76748 0.0
C3971 C 0.24416 0.43466 0.75771 0.0
C3972 C 0.25353 0.42238 0.75838 0.0
C3973 C 0.26456 0.42193 0.76894 0.0
C3974 C 0.23684 0.45998 0.76668 0.0
C3975 C 0.25144 0.40939 0.74844 0.0
C3976 C 0.20682 0.42719 0.74169 0.0
C3977 C 0.20922 0.43026 0.72693 0.0
C3978 C 0.21801 0.42901 0.75196 0.0
C3979 C 0.23169 0.43458 0.74738 0.0
C3980 C 0.2338 0.43863 0.73261 0.0
C3981 C 0.22261 0.4361 0.72247 0.0
C3982 C 0.21548 0.4241 0.7675 0.0
C3983 C 0.24802 0.44515 0.72744 0.0
H3984 H 0.25824 0.45415 0.78624 0.0
H3985 H 0.27155 0.4124 0.76961 0.0
H3986 H 0.23623 0.464 0.75527 0.0
H3987 H 0.22556 0.45735 0.77019 0.0
H3988 H 0.24107 0.46888 0.77375 0.0
H3989 H 0.25966 0.40069 0.75041 0.0
H3990 H 0.2404 0.40469 0.75012 0.0
H3991 H 0.25217 0.41281 0.73686 0.0
H3992 H 0.19646 0.42254 0.74506 0.0
H3993 H 0.22436 0.43855 0.71102 0.0
H3994 H 0.21807 0.43304 0.77522 0.0
H3995 H 0.22287 0.41485 0.77008 0.0
H3996 H 0.20404 0.42054 0.7694 0.0
H3997 H 0.25166 0.45389 0.735 0.0
H3998 H 0.2471 0.44978 0.71627 0.0
H3999 H 0.25661 0.43663 0.72735 0.0
C4000 C 0.56696 0.24742 0.78206 0.0
C4001 C 0.56271 0.26131 0.77729 0.0
C4002 C 0.56672 0.23545 0.77252 0.0
C4003 C 0.56164 0.23739 0.75805 0.0
C4004 C 0.55654 0.25125 0.75347 0.0
C4005 C 0.55742 0.26314 0.76308 0.0
C4006 C 0.57267 0.22097 0.77768 0.0
C4007 C 0.55058 0.25362 0.73829 0.0
C4008 C 0.57629 0.21252 0.72842 0.0
C4009 C 0.56529 0.20196 0.7275 0.0
C4010 C 0.5753 0.224 0.73847 0.0
C4011 C 0.56274 0.22522 0.74741 0.0
C4012 C 0.55144 0.21474 0.74627 0.0
C4013 C 0.55298 0.20304 0.7365 0.0
C4014 C 0.58779 0.2347 0.73968 0.0
C4015 C 0.53768 0.21598 0.75526 0.0
H4016 H 0.57122 0.24606 0.79302 0.0
H4017 H 0.55408 0.2739 0.75946 0.0
H4018 H 0.56456 0.21217 0.77584 0.0
H4019 H 0.58255 0.21814 0.77126 0.0
H4020 H 0.57562 0.22112 0.78944 0.0
H4021 H 0.54543 0.26453 0.73705 0.0
H4022 H 0.55954 0.25268 0.7302 0.0
H4023 H 0.54238 0.24511 0.73561 0.0
H4024 H 0.58585 0.21158 0.72151 0.0
H4025 H 0.54442 0.19492 0.73566 0.0
H4026 H 0.59187 0.23501 0.75108 0.0
H4027 H 0.58398 0.24585 0.73691 0.0
H4028 H 0.59702 0.23185 0.73234 0.0
H4029 H 0.54036 0.21533 0.76705 0.0
H4030 H 0.52967 0.20727 0.75263 0.0
H4031 H 0.53248 0.22676 0.75336 0.0
C4032 C 0.78936 0.42884 0.24866 0.0
C4033 C 0.7876 0.43193 0.26354 0.0
C4034 C 0.77753 0.42975 0.23901 0.0
C4035 C 0.76374 0.4343 0.24431 0.0
C4036 C 0.76218 0.43845 0.25911 0.0
C4037 C 0.7741 0.43696 0.26864 0.0
C4038 C 0.77956 0.42485 0.2234 0.0
C4039 C 0.74778 0.44382 0.26504 0.0
C4040 C 0.73522 0.44233 0.21524 0.0
C4041 C 0.72719 0.42931 0.21529 0.0
C4042 C 0.7468 0.44443 0.22509 0.0
C4043 C 0.75068 0.43302 0.23478 0.0
C4044 C 0.7425 0.41991 0.2349 0.0
C4045 C 0.73071 0.41833 0.22532 0.0
C4046 C 0.75496 0.45873 0.22502 0.0
C4047 C 0.74651 0.40733 0.24479 0.0
H4048 H 0.79979 0.42487 0.24471 0.0
H4049 H 0.77278 0.43947 0.28013 0.0
H4050 H 0.77311 0.41477 0.22146 0.0
H4051 H 0.77546 0.43327 0.21574 0.0
H4052 H 0.79117 0.42255 0.22077 0.0
H4053 H 0.74896 0.44874 0.27607 0.0
H4054 H 0.74293 0.45205 0.25759 0.0
H4055 H 0.74 0.43458 0.2658 0.0
H4056 H 0.73241 0.45087 0.20755 0.0
H4057 H 0.72456 0.40821 0.22532 0.0
H4058 H 0.7663 0.45697 0.22115 0.0
H4059 H 0.75565 0.4632 0.23625 0.0
H4060 H 0.7497 0.46697 0.21784 0.0
H4061 H 0.75783 0.40371 0.24244 0.0
H4062 H 0.73908 0.39784 0.24344 0.0
H4063 H 0.74618 0.41085 0.25636 0.0
C4064 C 0.55955 0.79188 0.24341 0.0
C4065 C 0.55572 0.78963 0.25804 0.0
C4066 C 0.55835 0.78056 0.23318 0.0
C4067 C 0.55276 0.76685 0.23763 0.0
C4068 C 0.54776 0.76494 0.25213 0.0
C4069 C 0.54955 0.77629 0.26225 0.0
C4070 C 0.56413 0.78294 0.21792 0.0
C4071 C 0.54128 0.75065 0.25716 0.0
C4072 C 0.54485 0.73958 0.20736 0.0
C4073 C 0.55739 0.73084 0.20787 0.0
C4074 C 0.54286 0.75104 0.21736 0.0
C4075 C 0.55394 0.75408 0.22771 0.0
C4076 C 0.56657 0.74519 0.22829 0.0
C4077 C 0.56802 0.73353 0.21851 0.0
C4078 C 0.52903 0.75998 0.21677 0.0
C4079 C 0.57879 0.74825 0.23893 0.0
H4080 H 0.56443 0.80217 0.24017 0.0
H4081 H 0.54649 0.7746 0.27356 0.0
H4082 H 0.57408 0.77622 0.21631 0.0
H4083 H 0.556 0.7794 0.20969 0.0
H4084 H 0.56695 0.79455 0.21585 0.0
H4085 H 0.53574 0.75171 0.2679 0.0
H4086 H 0.53331 0.74649 0.24904 0.0
H4087 H 0.55005 0.74237 0.25822 0.0
H4088 H 0.53658 0.73742 0.19917 0.0
H4089 H 0.57778 0.72684 0.21886 0.0
H4090 H 0.53161 0.77133 0.21346 0.0
H4091 H 0.52395 0.76051 0.22775 0.0
H4092 H 0.52097 0.75542 0.20894 0.0
H4093 H 0.58305 0.75946 0.23719 0.0
H4094 H 0.58799 0.74042 0.2378 0.0
H4095 H 0.57466 0.74769 0.25029 0.0
C4096 C 0.25887 0.5688 0.22688 0.0
C4097 C 0.26237 0.55842 0.21622 0.0
C4098 C 0.24681 0.56684 0.23606 0.0
C4099 C 0.23836 0.55395 0.23487 0.0
C4100 C 0.24229 0.54309 0.22461 0.0
C4101 C 0.25413 0.54558 0.21519 0.0
C4102 C 0.24277 0.57886 0.24661 0.0
C4103 C 0.23385 0.52899 0.22341 0.0
C4104 C 0.21369 0.54857 0.26758 0.0
C4105 C 0.20051 0.55426 0.26235 0.0
C4106 C 0.22588 0.54731 0.25839 0.0
C4107 C 0.22494 0.5524 0.24383 0.0
C4108 C 0.21145 0.55759 0.23834 0.0
C4109 C 0.19931 0.55823 0.24763 0.0
C4110 C 0.23993 0.54122 0.26447 0.0
C4111 C 0.21009 0.56347 0.223 0.0
H4112 H 0.26518 0.57878 0.22762 0.0
H4113 H 0.25692 0.53751 0.207 0.0
H4114 H 0.23164 0.58294 0.2441 0.0
H4115 H 0.24258 0.57459 0.25793 0.0
H4116 H 0.25049 0.5882 0.24615 0.0
H4117 H 0.23928 0.52103 0.21605 0.0
H4118 H 0.23254 0.52394 0.23434 0.0
H4119 H 0.22275 0.53122 0.21913 0.0
H4120 H 0.21455 0.5454 0.27896 0.0
H4121 H 0.18914 0.56275 0.2436 0.0
H4122 H 0.24785 0.55021 0.26618 0.0
H4123 H 0.24491 0.53341 0.25666 0.0
H4124 H 0.23821 0.53558 0.27508 0.0
H4125 H 0.21681 0.57349 0.22191 0.0
H4126 H 0.19863 0.56619 0.22012 0.0
H4127 H 0.21429 0.55543 0.21499 0.0
C4128 C 0.43137 0.21064 0.24251 0.0
C4129 C 0.42016 0.21241 0.25277 0.0
C4130 C 0.43325 0.22075 0.23115 0.0
C4131 C 0.4234 0.23259 0.22981 0.0
C4132 C 0.4122 0.2345 0.24027 0.0
C4133 C 0.41087 0.22451 0.25176 0.0
C4134 C 0.44561 0.21864 0.22045 0.0
C4135 C 0.40127 0.24679 0.23903 0.0
C4136 C 0.43142 0.26612 0.2069 0.0
C4137 C 0.42395 0.26283 0.19397 0.0
C4138 C 0.43192 0.25607 0.21844 0.0
C4139 C 0.42433 0.24267 0.21715 0.0
C4140 C 0.41686 0.23927 0.20404 0.0
C4141 C 0.41697 0.24932 0.1925 0.0
C4142 C 0.44036 0.25987 0.23207 0.0
C4143 C 0.40832 0.22527 0.20241 0.0
H4144 H 0.43862 0.20132 0.24336 0.0
H4145 H 0.40214 0.22587 0.25963 0.0
H4146 H 0.44115 0.21608 0.20949 0.0
H4147 H 0.45203 0.22886 0.21943 0.0
H4148 H 0.45306 0.20967 0.22377 0.0
H4149 H 0.39324 0.24677 0.24812 0.0
H4150 H 0.40697 0.25747 0.23895 0.0
H4151 H 0.39524 0.24586 0.22856 0.0
H4152 H 0.43695 0.27653 0.20795 0.0
H4153 H 0.41114 0.24683 0.1825 0.0
H4154 H 0.44793 0.25086 0.23494 0.0
H4155 H 0.43273 0.26126 0.24137 0.0
H4156 H 0.44677 0.27008 0.23079 0.0
H4157 H 0.41552 0.21573 0.20431 0.0
H4158 H 0.40329 0.22419 0.19143 0.0
H4159 H 0.39953 0.22486 0.21074 0.0
C4160 C 0.78396 0.74679 0.55802 0.0
C4161 C 0.78072 0.7324 0.55405 0.0
C4162 C 0.7734 0.7578 0.55676 0.0
C4163 C 0.7595 0.75436 0.55092 0.0
C4164 C 0.75663 0.74007 0.54581 0.0
C4165 C 0.7672 0.72915 0.54772 0.0
C4166 C 0.77676 0.7728 0.56271 0.0
C4167 C 0.74215 0.73611 0.53902 0.0
C4168 C 0.72744 0.7758 0.56572 0.0
C4169 C 0.72586 0.78679 0.55522 0.0
C4170 C 0.73831 0.76515 0.56437 0.0
C4171 C 0.74747 0.76518 0.55192 0.0
C4172 C 0.74547 0.77585 0.54091 0.0
C4173 C 0.73484 0.78674 0.54284 0.0
C4174 C 0.74031 0.75418 0.57653 0.0
C4175 C 0.75467 0.77587 0.52725 0.0
H4176 H 0.7944 0.74924 0.56303 0.0
H4177 H 0.76478 0.71801 0.54456 0.0
H4178 H 0.77407 0.78132 0.55455 0.0
H4179 H 0.7699 0.77488 0.57248 0.0
H4180 H 0.78841 0.77399 0.56587 0.0
H4181 H 0.74256 0.72537 0.53341 0.0
H4182 H 0.73364 0.73559 0.54762 0.0
H4183 H 0.73874 0.74457 0.53104 0.0
H4184 H 0.72055 0.77586 0.57534 0.0
H4185 H 0.73354 0.7952 0.53467 0.0
H4186 H 0.75154 0.75503 0.58101 0.0
H4187 H 0.73896 0.74294 0.57227 0.0
H4188 H 0.73241 0.75583 0.58559 0.0
H4189 H 0.76616 0.77844 0.53004 0.0
H4190 H 0.75077 0.78398 0.51912 0.0
H4191 H 0.75458 0.76488 0.52214 0.0
C4192 C 0.78255 0.25726 0.43311 0.0
C4193 C 0.78479 0.26647 0.42112 0.0
C4194 C 0.77016 0.24829 0.43389 0.0
C4195 C 0.76015 0.24814 0.42212 0.0
C4196 C 0.76235 0.25752 0.41002 0.0
C4197 C 0.77453 0.26679 0.40981 0.0
C4198 C 0.76791 0.23883 0.4472 0.0
C4199 C 0.75219 0.25731 0.39703 0.0
C4200 C 0.73853 0.21336 0.41633 0.0
C4201 C 0.72453 0.21764 0.42069 0.0
C4202 C 0.7502 0.22323 0.41666 0.0
C4203 C 0.74789 0.23755 0.422 0.0
C4204 C 0.73383 0.24178 0.42686 0.0
C4205 C 0.72221 0.23183 0.42585 0.0
C4206 C 0.76491 0.21845 0.41093 0.0
C4207 C 0.73108 0.25677 0.43312 0.0
H4208 H 0.79047 0.25714 0.44191 0.0
H4209 H 0.77635 0.27386 0.40049 0.0
H4210 H 0.75669 0.2403 0.45152 0.0
H4211 H 0.76911 0.22717 0.44419 0.0
H4212 H 0.77584 0.24136 0.45601 0.0
H4213 H 0.75535 0.26543 0.38859 0.0
H4214 H 0.75224 0.24629 0.39201 0.0
H4215 H 0.74085 0.25961 0.40055 0.0
H4216 H 0.74026 0.2024 0.4122 0.0
H4217 H 0.71136 0.23506 0.42929 0.0
H4218 H 0.77324 0.21926 0.41967 0.0
H4219 H 0.7684 0.22579 0.40194 0.0
H4220 H 0.76476 0.20706 0.40679 0.0
H4221 H 0.73884 0.25897 0.44216 0.0
H4222 H 0.71977 0.258 0.43731 0.0
H4223 H 0.73298 0.2652 0.42463 0.0
C4224 C 0.78045 0.73431 0.44542 0.0
C4225 C 0.78061 0.72576 0.43275 0.0
C4226 C 0.76959 0.74494 0.44756 0.0
C4227 C 0.75907 0.74736 0.4365 0.0
C4228 C 0.7592 0.73868 0.42371 0.0
C4229 C 0.76981 0.72782 0.42213 0.0
C4230 C 0.76943 0.75363 0.46156 0.0
C4231 C 0.74841 0.74116 0.41148 0.0
C4232 C 0.72276 0.7665 0.44061 0.0
C4233 C 0.72594 0.78021 0.43467 0.0
C4234 C 0.73379 0.75606 0.44254 0.0
C4235 C 0.74816 0.75926 0.43783 0.0
C4236 C 0.75153 0.77337 0.43247 0.0
C4237 C 0.74038 0.78377 0.43117 0.0
C4238 C 0.72989 0.74133 0.44881 0.0
C4239 C 0.7666 0.7771 0.42694 0.0
H4240 H 0.78876 0.73263 0.45368 0.0
H4241 H 0.76995 0.72126 0.41228 0.0
H4242 H 0.77183 0.76525 0.45921 0.0
H4243 H 0.75842 0.75318 0.4666 0.0
H4244 H 0.77757 0.74955 0.46957 0.0
H4245 H 0.75027 0.7337 0.4021 0.0
H4246 H 0.73712 0.7395 0.4155 0.0
H4247 H 0.74921 0.75258 0.40752 0.0
H4248 H 0.71157 0.76382 0.44342 0.0
H4249 H 0.74281 0.79436 0.42648 0.0
H4250 H 0.73827 0.73773 0.45678 0.0
H4251 H 0.72954 0.73311 0.43993 0.0
H4252 H 0.71907 0.74147 0.45429 0.0
H4253 H 0.77501 0.77405 0.43509 0.0
H4254 H 0.76776 0.7889 0.42439 0.0
H4255 H 0.76887 0.77076 0.41687 0.0
C4256 C 0.21698 0.72551 0.41723 0.0
C4257 C 0.20679 0.72358 0.42846 0.0
C4258 C 0.22832 0.73566 0.41856 0.0
C4259 C 0.22979 0.74372 0.43167 0.0
C4260 C 0.21988 0.74138 0.4433 0.0
C4261 C 0.20831 0.7315 0.44146 0.0
C4262 C 0.23841 0.73812 0.40575 0.0
C4263 C 0.22143 0.74942 0.4576 0.0
C4264 C 0.26703 0.76129 0.43542 0.0
C4265 C 0.26411 0.77556 0.43081 0.0
C4266 C 0.25575 0.75101 0.43673 0.0
C4267 C 0.24135 0.75502 0.43279 0.0
C4268 C 0.23831 0.76956 0.42852 0.0
C4269 C 0.24971 0.77974 0.42782 0.0
C4270 C 0.25933 0.73575 0.44181 0.0
C4271 C 0.22318 0.77416 0.42383 0.0
H4272 H 0.21577 0.71946 0.40713 0.0
H4273 H 0.20047 0.72991 0.45018 0.0
H4274 H 0.23782 0.74969 0.40222 0.0
H4275 H 0.24986 0.73592 0.40899 0.0
H4276 H 0.23567 0.73105 0.39629 0.0
H4277 H 0.21363 0.74541 0.46597 0.0
H4278 H 0.2327 0.7482 0.46187 0.0
H4279 H 0.2195 0.76125 0.45589 0.0
H4280 H 0.27818 0.75813 0.43786 0.0
H4281 H 0.24747 0.79077 0.42415 0.0
H4282 H 0.25847 0.72806 0.4325 0.0
H4283 H 0.25141 0.73214 0.45024 0.0
H4284 H 0.27053 0.73498 0.44639 0.0
H4285 H 0.22005 0.76813 0.4138 0.0
H4286 H 0.22248 0.78605 0.42155 0.0
H4287 H 0.21508 0.77138 0.43237 0.0
C4288 C 0.25134 0.22282 0.42102 0.0
C4289 C 0.25567 0.21216 0.43107 0.0
C4290 C 0.2399 0.23241 0.42419 0.0
C4291 C 0.23293 0.23165 0.43797 0.0
C4292 C 0.2374 0.22103 0.44829 0.0
C4293 C 0.2486 0.2112 0.4446 0.0
C4294 C 0.23522 0.24332 0.41272 0.0
C4295 C 0.23053 0.22023 0.46324 0.0
C4296 C 0.21385 0.26736 0.44532 0.0
C4297 C 0.19965 0.26413 0.44071 0.0
C4298 C 0.22454 0.25643 0.44596 0.0
C4299 C 0.22102 0.24211 0.44133 0.0
C4300 C 0.20644 0.23862 0.43758 0.0
C4301 C 0.19585 0.24967 0.43752 0.0
C4302 C 0.23985 0.26048 0.4505 0.0
C4303 C 0.2023 0.22358 0.43224 0.0
H4304 H 0.25673 0.22349 0.41051 0.0
H4305 H 0.25205 0.20299 0.45239 0.0
H4306 H 0.22336 0.24219 0.4105 0.0
H4307 H 0.2371 0.25459 0.41673 0.0
H4308 H 0.24124 0.24192 0.40229 0.0
H4309 H 0.23531 0.21139 0.47002 0.0
H4310 H 0.23202 0.23079 0.46899 0.0
H4311 H 0.21861 0.21836 0.46225 0.0
H4312 H 0.21672 0.27855 0.44789 0.0
H4313 H 0.18487 0.24719 0.43385 0.0
H4314 H 0.24688 0.26135 0.44068 0.0
H4315 H 0.24459 0.25194 0.45766 0.0
H4316 H 0.24016 0.2711 0.45635 0.0
H4317 H 0.20682 0.22193 0.42111 0.0
H4318 H 0.19028 0.22208 0.43174 0.0
H4319 H 0.20701 0.21502 0.43937 0.0
C4320 C 0.21635 0.26468 0.54517 0.0
C4321 C 0.20374 0.25995 0.55239 0.0
C4322 C 0.22805 0.25508 0.54272 0.0
C4323 C 0.22729 0.24064 0.54819 0.0
C4324 C 0.21431 0.23568 0.55498 0.0
C4325 C 0.20259 0.24535 0.55677 0.0
C4326 C 0.24147 0.2606 0.53491 0.0
C4327 C 0.21319 0.2205 0.56133 0.0
C4328 C 0.25447 0.21064 0.53912 0.0
C4329 C 0.26406 0.21162 0.55099 0.0
C4330 C 0.24287 0.22057 0.53755 0.0
C4331 C 0.24054 0.23129 0.54845 0.0
C4332 C 0.25041 0.23248 0.56028 0.0
C4333 C 0.26221 0.2228 0.56125 0.0
C4334 C 0.23293 0.21936 0.52447 0.0
C4335 C 0.24812 0.2435 0.57234 0.0
H4336 H 0.21718 0.27596 0.5417 0.0
H4337 H 0.19287 0.24172 0.56247 0.0
H4338 H 0.2504 0.26231 0.54289 0.0
H4339 H 0.24532 0.25244 0.52682 0.0
H4340 H 0.23939 0.27109 0.5292 0.0
H4341 H 0.20207 0.21808 0.56551 0.0
H4342 H 0.21609 0.21221 0.55301 0.0
H4343 H 0.22107 0.21936 0.57047 0.0
H4344 H 0.25598 0.20206 0.53111 0.0
H4345 H 0.26958 0.22356 0.57047 0.0
H4346 H 0.2312 0.23026 0.51947 0.0
H4347 H 0.2221 0.21521 0.52795 0.0
H4348 H 0.23738 0.21185 0.51605 0.0
H4349 H 0.24782 0.2547 0.56777 0.0
H4350 H 0.25684 0.24302 0.58076 0.0
H4351 H 0.23746 0.24151 0.57773 0.0
C4352 C 0.78095 0.25145 0.5616 0.0
C4353 C 0.77744 0.26588 0.55805 0.0
C4354 C 0.77043 0.24039 0.56054 0.0
C4355 C 0.75629 0.24384 0.55531 0.0
C4356 C 0.7531 0.25822 0.55064 0.0
C4357 C 0.76365 0.26917 0.55238 0.0
C4358 C 0.77413 0.22529 0.56604 0.0
C4359 C 0.73834 0.26219 0.54449 0.0
C4360 C 0.73184 0.21143 0.54697 0.0
C4361 C 0.72318 0.21092 0.55956 0.0
C4362 C 0.74228 0.22249 0.54509 0.0
C4363 C 0.74444 0.23285 0.55636 0.0
C4364 C 0.73561 0.2324 0.56904 0.0
C4365 C 0.72489 0.22159 0.57036 0.0
C4366 C 0.7511 0.22299 0.53119 0.0
C4367 C 0.73784 0.243 0.58148 0.0
H4368 H 0.7916 0.24899 0.56614 0.0
H4369 H 0.76102 0.28037 0.54959 0.0
H4370 H 0.76757 0.22289 0.57594 0.0
H4371 H 0.77131 0.21694 0.55775 0.0
H4372 H 0.78587 0.22417 0.56884 0.0
H4373 H 0.73841 0.2731 0.53921 0.0
H4374 H 0.73477 0.25394 0.53637 0.0
H4375 H 0.73013 0.26232 0.55339 0.0
H4376 H 0.73041 0.20319 0.53859 0.0
H4377 H 0.71826 0.22111 0.58015 0.0
H4378 H 0.7627 0.22054 0.53359 0.0
H4379 H 0.75069 0.23411 0.52639 0.0
H4380 H 0.74711 0.21504 0.52295 0.0
H4381 H 0.7492 0.24215 0.58562 0.0
H4382 H 0.73022 0.24097 0.5907 0.0
H4383 H 0.73625 0.25435 0.57761 0.0
C4384 C 0.25983 0.76608 0.57172 0.0
C4385 C 0.26261 0.77663 0.56102 0.0
C4386 C 0.24915 0.75537 0.56959 0.0
C4387 C 0.24145 0.75487 0.55619 0.0
C4388 C 0.2446 0.76519 0.54511 0.0
C4389 C 0.25498 0.77616 0.54778 0.0
C4390 C 0.24584 0.74483 0.58184 0.0
C4391 C 0.23698 0.76465 0.53052 0.0
C4392 C 0.22296 0.71834 0.55085 0.0
C4393 C 0.20872 0.72151 0.55539 0.0
C4394 C 0.2335 0.7294 0.54988 0.0
C4395 C 0.22981 0.74379 0.55416 0.0
C4396 C 0.21527 0.74712 0.55821 0.0
C4397 C 0.20481 0.73594 0.55854 0.0
C4398 C 0.24876 0.72554 0.545 0.0
C4399 C 0.21099 0.76221 0.56328 0.0
H4400 H 0.26565 0.76651 0.58202 0.0
H4401 H 0.25723 0.78429 0.53948 0.0
H4402 H 0.23414 0.7456 0.58489 0.0
H4403 H 0.24789 0.73346 0.57822 0.0
H4404 H 0.25255 0.74697 0.59172 0.0
H4405 H 0.24146 0.77277 0.5227 0.0
H4406 H 0.23804 0.75359 0.52569 0.0
H4407 H 0.22515 0.76681 0.53196 0.0
H4408 H 0.22591 0.70716 0.54833 0.0
H4409 H 0.19381 0.73835 0.56218 0.0
H4410 H 0.2562 0.72554 0.55455 0.0
H4411 H 0.25291 0.73378 0.53715 0.0
H4412 H 0.24922 0.7146 0.5398 0.0
H4413 H 0.21657 0.76467 0.57374 0.0
H4414 H 0.19902 0.76327 0.56496 0.0
H4415 H 0.21452 0.77056 0.55526 0.0
C4416 C 0.02681 0.17355 0.31001 0.0
C4417 C 0.03701 0.17529 0.32125 0.0
C4418 C 0.01198 0.17178 0.31313 0.0
C4419 C 0.00735 0.17109 0.32787 0.0
C4420 C 0.01784 0.17108 0.33922 0.0
C4421 C 0.03258 0.17357 0.33579 0.0
C4422 C 0.00118 0.17212 0.30065 0.0
C4423 C 0.01348 0.16942 0.35501 0.0
C4424 C 0.97091 0.18952 0.332 0.0
C4425 C 0.96145 0.17796 0.32884 0.0
C4426 C 0.98599 0.18724 0.33288 0.0
C4427 C 0.9916 0.17293 0.33115 0.0
C4428 C 0.9819 0.16098 0.32984 0.0
C4429 C 0.96689 0.16368 0.32829 0.0
C4430 C -0.00408 0.20035 0.33408 0.0
C4431 C 0.9874 0.14549 0.32902 0.0
H4432 H 0.03023 0.17486 0.29875 0.0
H4433 H 0.04052 0.1747 0.3445 0.0
H4434 H 0.99393 0.16245 0.30109 0.0
H4435 H 0.99418 0.18197 0.30159 0.0
H4436 H 0.00663 0.17232 0.28982 0.0
H4437 H 0.02255 0.16474 0.36156 0.0
H4438 H 0.01083 0.18029 0.35963 0.0
H4439 H 0.00372 0.16234 0.35619 0.0
H4440 H 0.96669 0.20057 0.33245 0.0
H4441 H 0.95951 0.15469 0.32608 0.0
H4442 H 0.00234 0.20154 0.32387 0.0
H4443 H 0.00377 0.19888 0.34316 0.0
H4444 H 0.98978 0.21064 0.33596 0.0
H4445 H 0.99061 0.14293 0.31764 0.0
H4446 H 0.97881 0.13759 0.33234 0.0
H4447 H -0.00288 0.14393 0.33609 0.0
C4448 C 0.79817 0.96261 0.35733 0.0
C4449 C 0.80905 0.95472 0.35004 0.0
C4450 C 0.79966 0.97766 0.35951 0.0
C4451 C 0.81251 0.98473 0.35466 0.0
C4452 C 0.82454 0.97629 0.34993 0.0
C4453 C 0.82257 0.96134 0.34733 0.0
C4454 C 0.7867 0.98622 0.365 0.0
C4455 C 0.83885 0.98335 0.34588 0.0
C4456 C 0.8051 0.01844 0.33221 0.0
C4457 C 0.80652 0.02957 0.34254 0.0
C4458 C 0.80732 0.00386 0.33605 0.0
C4459 C 0.8117 0.00036 0.35048 0.0
C4460 C 0.81405 0.01167 0.36076 0.0
C4461 C 0.81108 0.02618 0.35674 0.0
C4462 C 0.80433 0.99219 0.32474 0.0
C4463 C 0.81929 0.0086 0.37607 0.0
H4464 H 0.78779 0.95745 0.35972 0.0
H4465 H 0.83119 0.95514 0.34209 0.0
H4466 H 0.79018 -0.0057 0.3733 0.0
H4467 H 0.78172 0.99232 0.35578 0.0
H4468 H 0.77823 0.97904 0.36987 0.0
H4469 H 0.84795 0.97535 0.3462 0.0
H4470 H 0.83812 0.98778 0.33463 0.0
H4471 H 0.84137 0.99255 0.35336 0.0
H4472 H 0.80151 0.02106 0.32123 0.0
H4473 H 0.8123 0.03484 0.36472 0.0
H4474 H 0.79607 0.98436 0.32892 0.0
H4475 H 0.81444 0.98596 0.32243 0.0
H4476 H 0.80025 -0.0032 0.31429 0.0
H4477 H 0.80977 0.00833 0.38355 0.0
H4478 H 0.82663 0.01747 0.37989 0.0
H4479 H 0.82517 -0.00195 0.37691 0.0
C4480 C 0.95961 0.82908 0.32713 0.0
C4481 C 0.9554 0.81448 0.32892 0.0
C4482 C 0.97427 0.8332 0.32881 0.0
C4483 C 0.98492 0.8223 0.33136 0.0
C4484 C 0.98045 0.80784 0.3346 0.0
C4485 C 0.96566 0.80422 0.3337 0.0
C4486 C 0.9784 0.849 0.32673 0.0
C4487 C 0.99136 0.79578 0.33738 0.0
C4488 C 0.0192 0.82124 0.30898 0.0
C4489 C 0.02976 0.82012 0.31994 0.0
C4490 C 0.00449 0.82319 0.3125 0.0
C4491 C 0.0004 0.82483 0.32734 0.0
C4492 C 0.01132 0.82579 0.33824 0.0
C4493 C 0.02591 0.82294 0.33447 0.0
C4494 C 0.99327 0.82187 0.30046 0.0
C4495 C 0.00765 0.82883 0.35399 0.0
H4496 H 0.95159 0.83712 0.32379 0.0
H4497 H 0.96238 0.79295 0.33524 0.0
H4498 H 0.98893 0.85164 0.33211 0.0
H4499 H 0.97937 0.85143 0.31491 0.0
H4500 H 0.96977 0.85625 0.33121 0.0
H4501 H 0.98602 0.7851 0.3395 0.0
H4502 H -0.0013 0.79455 0.32781 0.0
H4503 H -0.00177 0.79852 0.34694 0.0
H4504 H 0.02223 0.81913 0.29773 0.0
H4505 H 0.03416 0.82237 0.34293 0.0
H4506 H 0.98647 0.83185 0.3 0.0
H4507 H 0.98591 0.8125 0.30267 0.0
H4508 H -0.00166 0.82024 0.28956 0.0
H4509 H -0.00316 0.83415 0.35522 0.0
H4510 H 0.01611 0.83596 0.35895 0.0
H4511 H 0.00764 0.81845 0.36022 0.0
C4512 C 0.16886 0.02735 0.33445 0.0
C4513 C 0.18329 0.03237 0.33518 0.0
C4514 C 0.16547 0.01288 0.33824 0.0
C4515 C 0.17692 0.00317 0.3419 0.0
C4516 C 0.19121 0.00864 0.34406 0.0
C4517 C 0.19413 0.0233 0.34098 0.0
C4518 C 0.14986 0.00776 0.33722 0.0
C4519 C 0.2038 -0.00128 0.34797 0.0
C4520 C 0.17674 0.96275 0.35026 0.0
C4521 C 0.17897 0.95704 0.33626 0.0
C4522 C 0.17427 0.97776 0.35224 0.0
C4523 C 0.17497 0.98721 0.34002 0.0
C4524 C 0.17641 0.98129 0.3258 0.0
C4525 C 0.178 0.96622 0.3241 0.0
C4526 C 0.17173 0.98341 0.36749 0.0
C4527 C 0.17766 0.99089 0.31242 0.0
H4528 H 0.16037 0.03448 0.33031 0.0
H4529 H 0.20527 0.02723 0.34173 0.0
H4530 H 0.14771 0.00346 0.32611 0.0
H4531 H 0.14765 -0.0011 0.34519 0.0
H4532 H 0.14215 0.0169 0.33921 0.0
H4533 H 0.2142 0.00478 0.34938 0.0
H4534 H 0.20141 0.99282 0.35824 0.0
H4535 H 0.20536 0.99044 0.33925 0.0
H4536 H 0.17724 0.95557 0.35966 0.0
H4537 H 0.17972 0.96177 0.31327 0.0
H4538 H 0.1665 -0.00566 0.36753 0.0
H4539 H 0.1823 0.98412 0.37335 0.0
H4540 H 0.16472 0.97571 0.37371 0.0
H4541 H 0.16773 -0.00233 0.31119 0.0
H4542 H 0.17914 0.98448 0.30223 0.0
H4543 H 0.1871 -0.0016 0.31359 0.0
C4544 C 0.02183 0.79777 0.64175 0.0
C4545 C 0.03092 0.80909 0.64656 0.0
C4546 C 0.00664 0.79938 0.64188 0.0
C4547 C 0.0005 0.81284 0.64637 0.0
C4548 C 0.00972 0.82498 0.64885 0.0
C4549 C 0.0249 0.82288 0.64932 0.0
C4550 C -0.00277 0.78616 0.63899 0.0
C4551 C 0.00353 0.83982 0.65236 0.0
C4552 C 0.95908 0.81117 0.64744 0.0
C4553 C 0.95676 0.80784 0.66219 0.0
C4554 C 0.9732 0.8142 0.64222 0.0
C4555 C 0.98524 0.81302 0.65186 0.0
C4556 C 0.9828 0.81014 0.66687 0.0
C4557 C 0.96856 0.80795 0.67188 0.0
C4558 C 0.9751 0.81802 0.62632 0.0
C4559 C -0.00472 0.80828 0.67753 0.0
H4560 H 0.02646 0.78713 0.63942 0.0
H4561 H 0.03194 0.83178 0.65269 0.0
H4562 H 0.99168 0.7828 0.64923 0.0
H4563 H 0.98866 0.78881 0.63088 0.0
H4564 H 0.00366 0.77675 0.63485 0.0
H4565 H 0.01158 0.84861 0.65014 0.0
H4566 H 0.99349 0.84192 0.6459 0.0
H4567 H 0.00057 0.84032 0.66409 0.0
H4568 H 0.94991 0.81124 0.63996 0.0
H4569 H 0.96677 0.80529 0.68328 0.0
H4570 H 0.97495 0.80787 0.61972 0.0
H4571 H 0.98548 0.82388 0.62421 0.0
H4572 H 0.96588 0.82492 0.62251 0.0
H4573 H 0.00266 0.79944 0.67377 0.0
H4574 H 0.99146 0.80555 0.68871 0.0
H4575 H 0.00179 0.81846 0.67815 0.0
C4576 C 0.1754 0.03307 0.64935 0.0
C4577 C 0.17754 0.03697 0.66398 0.0
C4578 C 0.1726 0.01849 0.64548 0.0
C4579 C 0.17283 0.00759 0.65644 0.0
C4580 C 0.17403 0.01169 0.67132 0.0
C4581 C 0.17598 0.02639 0.67489 0.0
C4582 C 0.17033 0.01481 0.6296 0.0
C4583 C 0.17472 0.00048 0.68342 0.0
C4584 C 0.16566 0.96723 0.65663 0.0
C4585 C 0.17999 0.96194 0.65569 0.0
C4586 C 0.16273 0.98214 0.65466 0.0
C4587 C 0.17451 0.99193 0.65263 0.0
C4588 C 0.18874 0.98639 0.65021 0.0
C4589 C 0.19123 0.97137 0.65146 0.0
C4590 C 0.14723 0.98752 0.65592 0.0
C4591 C 0.20167 -0.00361 0.648 0.0
H4592 H 0.17637 0.0413 0.6409 0.0
H4593 H 0.17763 0.02939 0.68622 0.0
H4594 H 0.18106 0.01417 0.62403 0.0
H4595 H 0.16456 0.00425 0.62814 0.0
H4596 H 0.16394 0.02354 0.62411 0.0
H4597 H 0.17586 0.00555 0.69438 0.0
H4598 H 0.16471 0.9937 0.68343 0.0
H4599 H 0.18415 0.99308 0.68165 0.0
H4600 H 0.15689 0.95986 0.65958 0.0
H4601 H 0.2023 0.96726 0.65059 0.0
H4602 H 0.14542 -0.00273 0.64895 0.0
H4603 H 0.14492 0.99062 0.66739 0.0
H4604 H 0.13934 0.97887 0.65275 0.0
H4605 H 0.19969 0.00377 0.63863 0.0
H4606 H 0.21194 0.99028 0.64595 0.0
H4607 H 0.20322 0.0033 0.65784 0.0
C4608 C 0.97161 0.19667 0.64694 0.0
C4609 C 0.96189 0.18551 0.65079 0.0
C4610 C 0.98671 0.1944 0.64749 0.0
C4611 C 0.99213 0.18046 0.65139 0.0
C4612 C 0.98233 0.16862 0.65295 0.0
C4613 C 0.96725 0.17135 0.65303 0.0
C4614 C -0.00325 0.20735 0.64564 0.0
C4615 C 0.98777 0.15336 0.65585 0.0
C4616 C 0.03353 0.18015 0.65325 0.0
C4617 C 0.03572 0.18266 0.66818 0.0
C4618 C 0.0194 0.17802 0.64766 0.0
C4619 C 0.00724 0.17927 0.65714 0.0
C4620 C 0.00953 0.18127 0.67232 0.0
C4621 C 0.02376 0.18259 0.67767 0.0
C4622 C 0.01761 0.17509 0.63156 0.0
C4623 C -0.00306 0.18313 0.68285 0.0
H4624 H 0.9675 0.20761 0.64505 0.0
H4625 H 0.95973 0.1626 0.65568 0.0
H4626 H 0.00208 0.20989 0.65623 0.0
H4627 H 0.00548 0.20478 0.63768 0.0
H4628 H 0.99086 0.21724 0.64184 0.0
H4629 H 0.9794 0.14506 0.65297 0.0
H4630 H -0.00212 0.15113 0.64955 0.0
H4631 H 0.99038 0.15214 0.66761 0.0
H4632 H 0.04282 0.18006 0.64592 0.0
H4633 H 0.02545 0.18461 0.68921 0.0
H4634 H 0.01797 0.18557 0.62551 0.0
H4635 H 0.00714 0.16954 0.62905 0.0
H4636 H 0.02674 0.16824 0.62745 0.0
H4637 H 0.99011 0.19255 0.67948 0.0
H4638 H 0.00066 0.18499 0.69424 0.0
H4639 H 0.98991 0.17329 0.68273 0.0
C4640 C 0.82939 0.02726 0.65413 0.0
C4641 C 0.81495 0.03217 0.65297 0.0
C4642 C 0.83267 0.01235 0.65281 0.0
C4643 C 0.82112 0.00222 0.65122 0.0
C4644 C 0.80679 0.00732 0.64843 0.0
C4645 C 0.80395 0.02232 0.64902 0.0
C4646 C 0.84827 0.00737 0.65438 0.0
C4647 C 0.79411 -0.00306 0.64659 0.0
C4648 C 0.82133 0.96092 0.65044 0.0
C4649 C 0.81928 0.95785 0.66528 0.0
C4650 C 0.82368 0.97532 0.64568 0.0
C4651 C 0.82309 0.98685 0.65597 0.0
C4652 C 0.82193 0.98362 0.67106 0.0
C4653 C 0.82042 0.96911 0.67553 0.0
C4654 C 0.8259 0.97808 0.62961 0.0
C4655 C 0.82085 -0.00449 0.68247 0.0
H4656 H 0.83798 0.03494 0.65683 0.0
H4657 H 0.7928 0.02613 0.64796 0.0
H4658 H 0.85054 0.00467 0.66596 0.0
H4659 H 0.85035 -0.00256 0.64774 0.0
H4660 H 0.856 0.01608 0.651 0.0
H4661 H 0.78374 0.00271 0.6441 0.0
H4662 H 0.79638 0.98914 0.63763 0.0
H4663 H 0.79258 0.99051 0.65675 0.0
H4664 H 0.82065 0.95216 0.6425 0.0
H4665 H 0.81883 0.96673 0.68702 0.0
H4666 H 0.83114 0.9888 0.62747 0.0
H4667 H 0.8152 0.97778 0.62395 0.0
H4668 H 0.83277 0.96935 0.62476 0.0
H4669 H 0.8307 0.00251 0.68217 0.0
H4670 H 0.81969 0.99108 0.69369 0.0
H4671 H 0.81127 0.00257 0.68015 0.0
C4672 C 0.34359 0.95332 0.1762 0.0
C4673 C 0.32871 0.9507 0.17863 0.0
C4674 C 0.34867 0.96751 0.17329 0.0
C4675 C 0.3387 0.97932 0.17362 0.0
C4676 C 0.32357 0.97655 0.17551 0.0
C4677 C 0.31877 0.96223 0.17764 0.0
C4678 C 0.36474 0.96973 0.17052 0.0
C4679 C 0.3125 0.98878 0.17632 0.0
C4680 C 0.34577 0.01653 0.18873 0.0
C4681 C 0.34097 0.025 0.17695 0.0
C4682 C 0.34695 0.00134 0.18738 0.0
C4683 C 0.34377 -0.00529 0.17378 0.0
C4684 C 0.34163 0.00354 0.1613 0.0
C4685 C 0.33982 0.01864 0.16309 0.0
C4686 C 0.34958 0.99235 0.20093 0.0
C4687 C 0.33958 -0.00311 0.14638 0.0
H4688 H 0.35128 0.94435 0.17682 0.0
H4689 H 0.30727 0.96022 0.17958 0.0
H4690 H 0.36705 0.98016 0.16481 0.0
H4691 H 0.37067 0.96968 0.18108 0.0
H4692 H 0.36917 0.96059 0.16389 0.0
H4693 H 0.30128 0.98473 0.1785 0.0
H4694 H 0.31552 -0.00346 0.18513 0.0
H4695 H 0.31232 -0.00506 0.16591 0.0
H4696 H 0.34684 0.02148 0.19943 0.0
H4697 H 0.33646 0.02526 0.15387 0.0
H4698 H 0.35813 0.98404 0.19887 0.0
H4699 H 0.3394 0.98649 0.20394 0.0
H4700 H 0.35301 -0.00084 0.21036 0.0
H4701 H 0.34667 0.98716 0.14501 0.0
H4702 H 0.34209 0.0049 0.13762 0.0
H4703 H 0.32808 0.99335 0.14506 0.0
C4704 C 0.95607 0.3321 0.16227 0.0
C4705 C 0.9497 0.3327 0.17616 0.0
C4706 C 0.97071 0.33621 0.16026 0.0
C4707 C 0.97919 0.34015 0.17256 0.0
C4708 C 0.97233 0.34227 0.18623 0.0
C4709 C 0.95755 0.33879 0.18778 0.0
C4710 C 0.97739 0.33516 0.14526 0.0
C4711 C 0.98092 0.34656 0.19964 0.0
C4712 C 0.01634 0.32297 0.17634 0.0
C4713 C 0.02535 0.33524 0.17731 0.0
C4714 C 0.00133 0.32445 0.17415 0.0
C4715 C -0.00471 0.33856 0.17212 0.0
C4716 C 0.00459 0.35092 0.17179 0.0
C4717 C 0.01952 0.34915 0.17483 0.0
C4718 C 0.99185 0.31096 0.17516 0.0
C4719 C -0.00113 0.36608 0.16884 0.0
H4720 H 0.94989 0.32776 0.15316 0.0
H4721 H 0.95258 0.33948 0.1985 0.0
H4722 H 0.98563 0.34389 0.1436 0.0
H4723 H 0.98298 0.32449 0.14403 0.0
H4724 H 0.96894 0.33599 0.1366 0.0
H4725 H 0.97382 0.34821 0.20934 0.0
H4726 H 0.98901 0.33792 0.20225 0.0
H4727 H 0.98702 0.35679 0.19759 0.0
H4728 H 0.02089 0.31222 0.17833 0.0
H4729 H 0.02658 0.35864 0.1754 0.0
H4730 H 0.9857 0.3094 0.16486 0.0
H4731 H 0.98376 0.31225 0.18408 0.0
H4732 H -0.0017 0.30091 0.17728 0.0
H4733 H 0.98821 0.36595 0.1631 0.0
H4734 H 0.00681 0.37235 0.16217 0.0
H4735 H -0.00243 0.37198 0.17933 0.0
C4736 C 0.68218 0.9701 0.17514 0.0
C4737 C 0.67122 0.95957 0.17672 0.0
C4738 C 0.67873 0.98494 0.17424 0.0
C4739 C 0.66389 0.9893 0.17419 0.0
C4740 C 0.65276 0.97857 0.17398 0.0
C4741 C 0.65655 0.96379 0.17568 0.0
C4742 C 0.69101 -0.00404 0.17483 0.0
C4743 C 0.63686 0.98266 0.1729 0.0
C4744 C 0.6592 0.0245 0.19485 0.0
C4745 C 0.66193 0.03476 0.18387 0.0
C4746 C 0.65875 0.00957 0.19167 0.0
C4747 C 0.66038 0.00488 0.17702 0.0
C4748 C 0.66133 0.01535 0.16569 0.0
C4749 C 0.66256 0.03021 0.16928 0.0
C4750 C 0.658 -0.00117 0.20418 0.0
C4751 C 0.66198 0.01086 0.14986 0.0
H4752 H 0.69354 0.96688 0.17593 0.0
H4753 H 0.64804 0.95562 0.17668 0.0
H4754 H 0.6903 0.00356 0.16545 0.0
H4755 H 0.69008 0.00257 0.18495 0.0
H4756 H 0.70194 0.99072 0.17467 0.0
H4757 H 0.63046 0.9738 0.16763 0.0
H4758 H 0.63235 0.98433 0.184 0.0
H4759 H 0.63532 0.99289 0.16659 0.0
H4760 H 0.65871 0.02803 0.20614 0.0
H4761 H 0.66444 0.03819 0.16075 0.0
H4762 H 0.66822 0.99233 0.20459 0.0
H4763 H 0.64885 0.99111 0.20254 0.0
H4764 H 0.65651 0.00431 0.21489 0.0
H4765 H 0.67346 0.00859 0.14676 0.0
H4766 H 0.65788 0.0197 0.14264 0.0
H4767 H 0.65548 0.00082 0.14787 0.0
C4768 C 0.02388 0.64071 0.17576 0.0
C4769 C 0.02718 0.65564 0.17574 0.0
C4770 C 0.00931 0.63591 0.17506 0.0
C4771 C -0.0021 0.64635 0.17519 0.0
C4772 C 0.0013 0.66144 0.17452 0.0
C4773 C 0.01589 0.66584 0.17441 0.0
C4774 C 0.00633 0.61973 0.17488 0.0
C4775 C 0.98958 0.67307 0.17511 0.0
C4776 C 0.95736 0.64497 0.17014 0.0
C4777 C 0.95283 0.64547 0.18474 0.0
C4778 C 0.97212 0.6428 0.16665 0.0
C4779 C 0.98252 0.64207 0.17805 0.0
C4780 C 0.97774 0.6409 0.1927 0.0
C4781 C 0.96285 0.64231 0.19584 0.0
C4782 C 0.97673 0.64264 0.15085 0.0
C4783 C 0.98843 0.64 0.20522 0.0
H4784 H 0.03264 0.63279 0.17663 0.0
H4785 H 0.01842 0.67741 0.17444 0.0
H4786 H 0.00755 0.61529 0.18608 0.0
H4787 H -0.00479 0.61712 0.17084 0.0
H4788 H 0.01445 0.61405 0.16789 0.0
H4789 H 0.99417 0.68429 0.17516 0.0
H4790 H 0.98221 0.67207 0.16558 0.0
H4791 H 0.98286 0.67168 0.1851 0.0
H4792 H 0.94953 0.64707 0.16151 0.0
H4793 H 0.95931 0.64255 0.20713 0.0
H4794 H 0.9862 0.63525 0.14921 0.0
H4795 H 0.98004 0.65377 0.14746 0.0
H4796 H 0.96763 0.63909 0.14366 0.0
H4797 H -0.00397 0.63074 0.20356 0.0
H4798 H 0.98289 0.63855 0.21591 0.0
H4799 H -0.00496 0.65015 0.20567 0.0
C4800 C 0.34601 0.95523 0.81908 0.0
C4801 C 0.34441 0.95095 0.80449 0.0
C4802 C 0.34914 0.9698 0.8226 0.0
C4803 C 0.34961 0.98032 0.8113 0.0
C4804 C 0.3498 0.97568 0.79655 0.0
C4805 C 0.34749 0.96092 0.79334 0.0
C4806 C 0.35049 0.97417 0.83841 0.0
C4807 C 0.35052 0.98648 0.78411 0.0
C4808 C 0.32636 0.01383 0.81611 0.0
C4809 C 0.33651 0.02502 0.81383 0.0
C4810 C 0.33067 -0.00078 0.81607 0.0
C4811 C 0.34566 -0.00429 0.81453 0.0
C4812 C 0.35616 0.00705 0.81391 0.0
C4813 C 0.35141 0.02163 0.81315 0.0
C4814 C 0.31893 0.98759 0.81633 0.0
C4815 C 0.37232 0.00398 0.81328 0.0
H4816 H 0.34401 0.94739 0.82773 0.0
H4817 H 0.34643 0.95754 0.78204 0.0
H4818 H 0.35802 0.98359 0.83967 0.0
H4819 H 0.33965 0.97742 0.84269 0.0
H4820 H 0.35453 0.96493 0.84515 0.0
H4821 H 0.35107 0.98102 0.7733 0.0
H4822 H 0.34072 0.99361 0.78431 0.0
H4823 H 0.36025 0.99356 0.78532 0.0
H4824 H 0.31482 0.01641 0.81667 0.0
H4825 H 0.35932 0.0303 0.8116 0.0
H4826 H 0.32034 0.98045 0.82599 0.0
H4827 H 0.31974 0.98062 0.80646 0.0
H4828 H 0.30775 0.99228 0.81675 0.0
H4829 H 0.37505 0.99272 0.81682 0.0
H4830 H 0.37831 0.01183 0.82031 0.0
H4831 H 0.37628 0.00562 0.80195 0.0
C4832 C 0.01357 0.3261 0.81545 0.0
C4833 C 0.02298 0.3381 0.81585 0.0
C4834 C -0.00155 0.32801 0.81608 0.0
C4835 C 0.99266 0.34225 0.81791 0.0
C4836 C 0.00222 0.35427 0.8197 0.0
C4837 C 0.01733 0.35211 0.81821 0.0
C4838 C 0.98873 0.31489 0.81361 0.0
C4839 C -0.00336 0.3695 0.82253 0.0
C4840 C 0.95669 0.34447 0.79852 0.0
C4841 C 0.94747 0.3385 0.80914 0.0
C4842 C 0.9714 0.34717 0.80162 0.0
C4843 C 0.97675 0.34441 0.81585 0.0
C4844 C 0.96693 0.34052 0.82712 0.0
C4845 C 0.95242 0.33716 0.82355 0.0
C4846 C 0.98148 0.35132 0.78925 0.0
C4847 C 0.97203 0.33871 0.84267 0.0
H4848 H 0.01798 0.31528 0.81355 0.0
H4849 H 0.02468 0.36137 0.81867 0.0
H4850 H 0.98139 0.31329 0.82308 0.0
H4851 H 0.98177 0.31669 0.80386 0.0
H4852 H -0.00494 0.30468 0.81195 0.0
H4853 H 0.00425 0.37552 0.8298 0.0
H4854 H -0.00391 0.37558 0.81207 0.0
H4855 H 0.98563 0.36947 0.82757 0.0
H4856 H 0.95282 0.34561 0.78739 0.0
H4857 H 0.94517 0.33284 0.83185 0.0
H4858 H 0.98928 0.34228 0.78716 0.0
H4859 H 0.98793 0.36111 0.7922 0.0
H4860 H 0.97546 0.35364 0.77898 0.0
H4861 H 0.97709 0.32781 0.84406 0.0
H4862 H 0.96279 0.33958 0.85048 0.0
H4863 H 0.98036 0.34706 0.84546 0.0
C4864 C 0.64481 0.02387 0.80787 0.0
C4865 C 0.65981 0.02638 0.80625 0.0
C4866 C 0.6394 0.0096 0.80955 0.0
C4867 C 0.6492 -0.00233 0.80879 0.0
C4868 C 0.66441 0.00028 0.80749 0.0
C4869 C 0.66952 0.01462 0.80658 0.0
C4870 C 0.6232 0.00748 0.81161 0.0
C4871 C 0.6753 0.98793 0.80622 0.0
C4872 C 0.6471 0.95804 0.81793 0.0
C4873 C 0.64624 0.95216 0.80385 0.0
C4874 C 0.64555 0.97311 0.82016 0.0
C4875 C 0.64392 0.98238 0.80792 0.0
C4876 C 0.64104 0.97626 0.79403 0.0
C4877 C 0.64198 0.96111 0.79221 0.0
C4878 C 0.64734 0.97923 0.83533 0.0
C4879 C 0.63899 0.98575 0.78071 0.0
H4880 H 0.6373 0.03301 0.80773 0.0
H4881 H 0.68111 0.01657 0.80523 0.0
H4882 H 0.6177 0.00804 0.80083 0.0
H4883 H 0.62056 -0.00315 0.81676 0.0
H4884 H 0.6186 0.01638 0.81845 0.0
H4885 H 0.68663 0.9919 0.80451 0.0
H4886 H 0.67515 0.9812 0.81628 0.0
H4887 H 0.67236 0.98072 0.79694 0.0
H4888 H 0.65004 0.95105 0.82703 0.0
H4889 H 0.64112 0.95653 0.78132 0.0
H4890 H 0.64027 0.98895 0.83689 0.0
H4891 H 0.65883 0.98267 0.83698 0.0
H4892 H 0.64463 0.97095 0.84378 0.0
H4893 H 0.63067 0.99426 0.78285 0.0
H4894 H 0.63556 0.97933 0.77101 0.0
H4895 H 0.64941 0.99137 0.77812 0.0
C4896 C 0.9734 0.64259 0.80047 0.0
C4897 C 0.9635 0.64726 0.81115 0.0
C4898 C 0.98845 0.64338 0.80292 0.0
C4899 C 0.99363 0.64838 0.8166 0.0
C4900 C 0.98365 0.65068 0.82816 0.0
C4901 C 0.96861 0.65051 0.8252 0.0
C4902 C -0.0013 0.64063 0.7903 0.0
C4903 C 0.98884 0.65466 0.84326 0.0
C4904 C 0.03493 0.65126 0.81644 0.0
C4905 C 0.0367 0.666 0.81275 0.0
C4906 C 0.02098 0.64552 0.81924 0.0
C4907 C 0.00858 0.65459 0.81746 0.0
C4908 C 0.01046 0.66964 0.81436 0.0
C4909 C 0.02453 0.6752 0.81242 0.0
C4910 C 0.01965 0.62965 0.8234 0.0
C4911 C -0.0024 0.67972 0.81189 0.0
H4912 H 0.96947 0.63986 0.78964 0.0
H4913 H 0.96095 0.65376 0.83361 0.0
H4914 H 0.00413 0.65099 0.78713 0.0
H4915 H 0.00733 0.63281 0.79355 0.0
H4916 H 0.99295 0.63618 0.78059 0.0
H4917 H 0.98047 0.65201 0.85163 0.0
H4918 H -0.00088 0.64883 0.84596 0.0
H4919 H 0.99105 0.66655 0.8438 0.0
H4920 H 0.0444 0.64417 0.81687 0.0
H4921 H 0.0259 0.68659 0.80951 0.0
H4922 H 0.02067 0.6228 0.81347 0.0
H4923 H 0.00909 0.62716 0.82879 0.0
H4924 H 0.02868 0.62649 0.83087 0.0
H4925 H 0.99072 0.67549 0.80286 0.0
H4926 H 0.00103 0.69101 0.80911 0.0
H4927 H 0.99071 0.6802 0.82182 0.0
C4928 C 0.17656 0.34349 0.03155 0.0
C4929 C 0.17715 0.32866 0.03521 0.0
C4930 C 0.17454 0.34786 0.01699 0.0
C4931 C 0.17396 0.33711 0.0059 0.0
C4932 C 0.17367 0.32211 0.00974 0.0
C4933 C 0.17489 0.31812 0.0244 0.0
C4934 C 0.17387 0.36395 0.01356 0.0
C4935 C 0.17348 0.31018 -0.00168 0.0
C4936 C 0.16711 0.338 0.96556 0.0
C4937 C 0.18149 0.33768 0.96039 0.0
C4938 C 0.16426 0.34015 0.98046 0.0
C4939 C 0.1761 0.341 0.99033 0.0
C4940 C 0.19054 0.34216 0.98491 0.0
C4941 C 0.19302 0.3408 0.9699 0.0
C4942 C 0.14867 0.34028 0.98573 0.0
C4943 C 0.20354 0.34308 -0.00497 0.0
H4944 H 0.1781 0.35167 0.03997 0.0
H4945 H 0.17535 0.30664 0.02724 0.0
H4946 H 0.18509 0.36848 0.01333 0.0
H4947 H 0.16858 0.36614 0.00288 0.0
H4948 H 0.16779 0.36986 0.02222 0.0
H4949 H 0.17363 0.29909 0.00321 0.0
H4950 H 0.16358 0.31114 0.99143 0.0
H4951 H 0.18311 0.31128 0.99105 0.0
H4952 H 0.15816 0.33591 0.95811 0.0
H4953 H 0.20414 0.34065 0.96584 0.0
H4954 H 0.14742 0.34748 -0.00459 0.0
H4955 H 0.14537 0.32909 0.98895 0.0
H4956 H 0.14113 0.34403 0.97701 0.0
H4957 H 0.20232 0.35247 0.00254 0.0
H4958 H 0.21399 0.34431 0.98901 0.0
H4959 H 0.20417 0.33303 0.00178 0.0
C4960 C 0.17319 0.66833 0.97016 0.0
C4961 C 0.17396 0.65884 0.95824 0.0
C4962 C 0.17171 0.66297 0.98435 0.0
C4963 C 0.17012 0.64772 0.9866 0.0
C4964 C 0.16928 0.63823 0.97441 0.0
C4965 C 0.17165 0.64387 0.96034 0.0
C4966 C 0.17315 0.67358 -0.00307 0.0
C4967 C 0.16661 0.62207 0.97607 0.0
C4968 C 0.18884 0.63935 0.02175 0.0
C4969 C 0.17808 0.64407 0.03151 0.0
C4970 C 0.18591 0.63857 0.00677 0.0
C4971 C 0.17172 0.64202 0.00168 0.0
C4972 C 0.16025 0.644 0.01182 0.0
C4973 C 0.16364 0.64551 0.02668 0.0
C4974 C 0.19844 0.63603 -0.00363 0.0
C4975 C 0.14471 0.64607 0.00684 0.0
H4976 H 0.17499 0.67992 0.96854 0.0
H4977 H 0.17204 0.63653 0.95106 0.0
H4978 H 0.16303 0.67361 0.00354 0.0
H4979 H 0.18227 0.67025 0.00418 0.0
H4980 H 0.17523 0.68494 0.99321 0.0
H4981 H 0.15874 0.6183 0.96766 0.0
H4982 H 0.17696 0.61607 0.97417 0.0
H4983 H 0.1623 0.61914 0.98701 0.0
H4984 H 0.19998 0.63798 0.02553 0.0
H4985 H 0.1552 0.64874 0.03432 0.0
H4986 H 0.20054 0.6461 0.98996 0.0
H4987 H 0.19565 0.62722 0.98858 0.0
H4988 H 0.20866 0.63295 0.00213 0.0
H4989 H 0.14276 0.65774 0.00428 0.0
H4990 H 0.13689 0.64281 0.01552 0.0
H4991 H 0.14247 0.6396 -0.00317 0.0
C4992 C 0.31586 0.173 0.01677 0.0
C4993 C 0.32684 0.1728 0.02738 0.0
C4994 C 0.3193 0.17208 0.00194 0.0
C4995 C 0.33405 0.17022 -0.00235 0.0
C4996 C 0.34502 0.16854 0.00842 0.0
C4997 C 0.34133 0.17025 0.02321 0.0
C4998 C 0.30723 0.17435 0.99089 0.0
C4999 C 0.36074 0.16567 0.00446 0.0
C5000 C 0.33295 0.16456 0.95711 0.0
C5001 C 0.33453 0.179 0.95232 0.0
C5002 C 0.33499 0.16098 0.97187 0.0
C5003 C 0.33783 0.17227 0.98203 0.0
C5004 C 0.34098 0.18652 0.97695 0.0
C5005 C 0.33956 0.18964 0.96206 0.0
C5006 C 0.33286 0.14541 0.97676 0.0
C5007 C 0.34412 0.1989 0.98738 0.0
H5008 H 0.30465 0.175 0.01998 0.0
H5009 H 0.34982 0.16991 0.03146 0.0
H5010 H 0.30964 0.1841 0.9841 0.0
H5011 H 0.3065 0.16483 0.98348 0.0
H5012 H 0.2964 0.17593 -0.00388 0.0
H5013 H 0.36593 0.15844 0.01269 0.0
H5014 H 0.36185 0.16057 0.99353 0.0
H5015 H 0.36685 0.17612 0.00449 0.0
H5016 H 0.3294 0.15622 0.94949 0.0
H5017 H 0.34095 0.2008 0.95835 0.0
H5018 H 0.3215 0.1439 0.98067 0.0
H5019 H 0.34033 0.14271 0.98591 0.0
H5020 H 0.33477 0.13763 0.96766 0.0
H5021 H 0.33436 0.201 -0.00574 0.0
H5022 H 0.34703 0.20916 0.98161 0.0
H5023 H 0.35323 0.19595 -0.00523 0.0
C5024 C 0.81454 0.33936 0.95466 0.0
C5025 C 0.80008 0.33847 0.94975 0.0
C5026 C 0.81757 0.34271 0.9693 0.0
C5027 C 0.80586 0.34415 0.97926 0.0
C5028 C 0.79135 0.34492 0.97395 0.0
C5029 C 0.78868 0.34238 0.95912 0.0
C5030 C 0.83323 0.34336 0.97433 0.0
C5031 C 0.7785 0.34659 0.98414 0.0
C5032 C 0.80766 0.32267 0.0142 0.0
C5033 C 0.80532 0.33359 0.02462 0.0
C5034 C 0.80871 0.3261 -0.00061 0.0
C5035 C 0.8082 0.34093 -0.00504 0.0
C5036 C 0.80758 0.3521 0.00563 0.0
C5037 C 0.8057 0.34828 0.02037 0.0
C5038 C 0.80895 0.31372 0.98846 0.0
C5039 C 0.80805 0.36806 0.00161 0.0
H5040 H 0.8234 0.33668 0.94729 0.0
H5041 H 0.77751 0.34183 0.95526 0.0
H5042 H 0.8345 0.35107 0.9836 0.0
H5043 H 0.83678 0.3324 0.97803 0.0
H5044 H 0.84056 0.34679 0.9653 0.0
H5045 H 0.76796 0.34736 0.97818 0.0
H5046 H 0.77797 0.33709 0.99164 0.0
H5047 H 0.7798 0.35653 0.99089 0.0
H5048 H 0.80737 0.3113 0.01748 0.0
H5049 H 0.80411 0.35675 0.02848 0.0
H5050 H 0.81892 0.31434 0.98166 0.0
H5051 H 0.79939 0.31454 0.98105 0.0
H5052 H 0.8087 0.30282 0.99378 0.0
H5053 H 0.81266 0.36991 0.99056 0.0
H5054 H 0.81471 0.37419 0.00968 0.0
H5055 H 0.79685 0.37265 0.00201 0.0
C5056 C 0.65064 0.82032 0.02674 0.0
C5057 C 0.66521 0.81842 0.03102 0.0
C5058 C 0.64702 0.82213 0.01195 0.0
C5059 C 0.65816 0.82115 0.00128 0.0
C5060 C 0.67297 0.82055 0.00571 0.0
C5061 C 0.6763 0.81955 0.02057 0.0
C5062 C 0.63121 0.824 0.00776 0.0
C5063 C 0.68526 0.81933 -0.00523 0.0
C5064 C 0.65306 0.79872 0.96733 0.0
C5065 C 0.65662 0.80892 0.95654 0.0
C5066 C 0.65235 0.80282 0.98202 0.0
C5067 C 0.65456 0.81764 0.98587 0.0
C5068 C 0.65619 0.82828 0.97478 0.0
C5069 C 0.65765 0.82374 0.9602 0.0
C5070 C 0.65079 0.79101 0.99344 0.0
C5071 C 0.65741 0.84432 0.97829 0.0
H5072 H 0.64204 0.81975 0.03486 0.0
H5073 H 0.68759 0.8182 0.02385 0.0
H5074 H 0.63006 0.82996 -0.00273 0.0
H5075 H 0.62602 0.81313 0.00657 0.0
H5076 H 0.62517 0.83001 0.01639 0.0
H5077 H 0.69617 0.81909 6e-05 0.0
H5078 H 0.68396 0.80919 0.98826 0.0
H5079 H 0.68498 0.82867 0.98709 0.0
H5080 H 0.6522 0.78726 0.96449 0.0
H5081 H 0.66013 0.83169 0.9518 0.0
H5082 H 0.64147 0.79345 0.00075 0.0
H5083 H 0.66079 0.79058 0.00028 0.0
H5084 H 0.64903 0.78005 0.98856 0.0
H5085 H 0.65172 0.84709 0.98862 0.0
H5086 H 0.65275 0.85103 0.96932 0.0
H5087 H 0.66908 0.84734 0.9794 0.0
C5088 C 0.81228 0.66674 0.01941 0.0
C5089 C 0.81018 0.6562 0.03025 0.0
C5090 C 0.81301 0.66281 0.00469 0.0
C5091 C 0.81233 0.64786 0.00077 0.0
C5092 C 0.81172 0.63705 0.01181 0.0
C5093 C 0.81024 0.64138 0.02647 0.0
C5094 C 0.81323 0.67479 0.99332 0.0
C5095 C 0.81187 0.62098 0.00826 0.0
C5096 C 0.79351 0.64453 0.96452 0.0
C5097 C 0.80522 0.64717 0.95508 0.0
C5098 C 0.79578 0.64328 0.97958 0.0
C5099 C 0.81019 0.64407 0.98516 0.0
C5100 C 0.82215 0.64451 0.9754 0.0
C5101 C 0.81953 0.64652 0.96044 0.0
C5102 C 0.78267 0.64288 0.98957 0.0
C5103 C 0.83768 0.64413 0.98087 0.0
H5104 H 0.81219 0.67822 0.02231 0.0
H5105 H 0.80877 0.63318 0.03488 0.0
H5106 H 0.82293 0.67362 0.98619 0.0
H5107 H 0.8034 0.67397 0.98628 0.0
H5108 H 0.81348 0.68587 -0.00174 0.0
H5109 H 0.81746 0.61472 0.01702 0.0
H5110 H 0.80049 0.61691 0.00761 0.0
H5111 H 0.81738 0.61871 -0.00229 0.0
H5112 H 0.78244 0.64499 0.96034 0.0
H5113 H 0.82862 0.6483 0.95307 0.0
H5114 H 0.78211 0.65316 -0.00405 0.0
H5115 H 0.78367 0.63375 -0.00257 0.0
H5116 H 0.77227 0.64158 0.98346 0.0
H5117 H 0.84099 0.6552 0.98448 0.0
H5118 H 0.84533 0.64057 0.97217 0.0
H5119 H 0.83872 0.63665 0.99036 0.0
C5120 C 0.31445 0.81165 0.01671 0.0
C5121 C 0.32433 0.81133 0.02833 0.0
C5122 C 0.31933 0.81295 0.00231 0.0
C5123 C 0.33446 0.81477 -0.00047 0.0
C5124 C 0.34433 0.81598 0.01138 0.0
C5125 C 0.33919 0.81381 0.02568 0.0
C5126 C 0.30838 0.81109 0.99009 0.0
C5127 C 0.36038 0.81885 0.0091 0.0
C5128 C 0.34315 0.79614 0.96419 0.0
C5129 C 0.33874 0.80693 0.9543 0.0
C5130 C 0.34338 0.79897 0.9792 0.0
C5131 C 0.33973 0.81311 0.98429 0.0
C5132 C 0.33774 0.82459 0.97415 0.0
C5133 C 0.33682 0.82129 0.95921 0.0
C5134 C 0.34573 0.78639 0.9896 0.0
C5135 C 0.33526 0.84007 0.97915 0.0
H5136 H 0.30296 0.80966 0.01877 0.0
H5137 H 0.34683 0.81373 0.03472 0.0
H5138 H 0.30825 0.82093 0.98306 0.0
H5139 H 0.31149 0.80167 0.98314 0.0
H5140 H 0.29712 0.80924 0.9942 0.0
H5141 H 0.36457 0.82628 0.01772 0.0
H5142 H 0.36649 0.80844 0.01008 0.0
H5143 H 0.3627 0.82375 -0.00173 0.0
H5144 H 0.34481 0.78505 0.96039 0.0
H5145 H 0.33375 0.82975 0.95152 0.0
H5146 H 0.33552 0.78423 -0.00423 0.0
H5147 H 0.35434 0.78916 -0.00238 0.0
H5148 H 0.34897 0.77621 0.98386 0.0
H5149 H 0.32358 0.84165 0.98188 0.0
H5150 H 0.33818 0.84801 0.97046 0.0
H5151 H 0.34178 0.84249 0.98908 0.0
C5152 C 0.63877 0.1908 0.96361 0.0
C5153 C 0.64299 0.17983 0.95383 0.0
C5154 C 0.63736 0.18777 0.97852 0.0
C5155 C 0.63967 0.17334 0.98354 0.0
C5156 C 0.64111 0.16186 0.97332 0.0
C5157 C 0.64326 0.16528 0.95853 0.0
C5158 C 0.63539 0.20034 0.989 0.0
C5159 C 0.64197 0.14616 0.97817 0.0
C5160 C 0.66524 0.17234 0.0157 0.0
C5161 C 0.65557 0.17344 0.02746 0.0
C5162 C 0.66012 0.17163 0.00137 0.0
C5163 C 0.64486 0.17118 -0.00125 0.0
C5164 C 0.63505 0.17077 0.01071 0.0
C5165 C 0.64052 0.17233 0.02497 0.0
C5166 C 0.6711 0.1726 0.98906 0.0
C5167 C 0.61878 0.16937 0.00864 0.0
H5168 H 0.63827 0.20204 0.95993 0.0
H5169 H 0.64607 0.1567 0.95088 0.0
H5170 H 0.62624 0.19805 -0.00343 0.0
H5171 H 0.64543 0.20172 -0.00434 0.0
H5172 H 0.63312 0.21079 0.98329 0.0
H5173 H 0.63853 0.13866 0.96929 0.0
H5174 H 0.65338 0.14343 0.98115 0.0
H5175 H 0.63499 0.14427 0.9879 0.0
H5176 H 0.67689 0.17323 0.01759 0.0
H5177 H 0.63302 0.173 0.0341 0.0
H5178 H 0.66855 0.18205 0.98191 0.0
H5179 H 0.67062 0.16262 0.98225 0.0
H5180 H 0.68248 0.17385 0.99307 0.0
H5181 H 0.61352 0.18008 0.0107 0.0
H5182 H 0.61424 0.16158 0.01675 0.0
H5183 H 0.61579 0.16558 -0.00247 0.0
C5184 C 0.46812 0.68023 0.84317 0.0
C5185 C 0.45939 0.66925 0.83711 0.0
C5186 C 0.48334 0.67883 0.84336 0.0
C5187 C 0.48979 0.66589 0.83789 0.0
C5188 C 0.48085 0.65381 0.83437 0.0
C5189 C 0.46567 0.65575 0.83359 0.0
C5190 C 0.49246 0.69191 0.84752 0.0
C5191 C 0.48737 0.63937 0.82993 0.0
C5192 C 0.52127 0.67344 0.81246 0.0
C5193 C 0.53313 0.67326 0.82203 0.0
C5194 C 0.50715 0.67051 0.81745 0.0
C5195 C 0.50497 0.66654 0.83226 0.0
C5196 C 0.51715 0.66506 0.84168 0.0
C5197 C 0.5311 0.66887 0.83654 0.0
C5198 C 0.49451 0.67273 0.80705 0.0
C5199 C 0.5156 0.66008 0.85729 0.0
H5200 H 0.46325 0.69061 0.84612 0.0
H5201 H 0.45888 0.64708 0.82925 0.0
H5202 H 0.50089 0.68873 0.85558 0.0
H5203 H 0.49816 0.69619 0.83772 0.0
H5204 H 0.48577 0.70085 0.85228 0.0
H5205 H 0.47948 0.6303 0.83157 0.0
H5206 H 0.49033 0.63969 0.81819 0.0
H5207 H 0.49744 0.63707 0.83627 0.0
H5208 H 0.52287 0.67693 0.80126 0.0
H5209 H 0.54035 0.66861 0.84392 0.0
H5210 H 0.48678 0.68089 0.81159 0.0
H5211 H 0.48845 0.66237 0.80559 0.0
H5212 H 0.49811 0.67657 0.79612 0.0
H5213 H 0.51624 0.66968 0.86464 0.0
H5214 H 0.52476 0.65271 0.86026 0.0
H5215 H 0.50515 0.6543 0.85931 0.0
C5216 C 0.3096 0.53163 0.84073 0.0
C5217 C 0.30702 0.53457 0.82594 0.0
C5218 C 0.31253 0.51733 0.84547 0.0
C5219 C 0.31202 0.50573 0.83525 0.0
C5220 C 0.31007 0.50883 0.82021 0.0
C5221 C 0.30797 0.52326 0.81574 0.0
C5222 C 0.31544 0.51474 0.86146 0.0
C5223 C 0.30899 0.49684 0.8089 0.0
C5224 C 0.32114 0.46587 0.83655 0.0
C5225 C 0.30712 0.45997 0.83815 0.0
C5226 C 0.32344 0.48096 0.8379 0.0
C5227 C 0.31131 0.49026 0.84006 0.0
C5228 C 0.2975 0.48417 0.8434 0.0
C5229 C 0.29566 0.46902 0.84269 0.0
C5230 C 0.33858 0.48703 0.83568 0.0
C5231 C 0.28426 0.49366 0.84592 0.0
H5232 H 0.30904 0.54043 0.84862 0.0
H5233 H 0.30593 0.52553 0.8043 0.0
H5234 H 0.30495 0.51471 0.8675 0.0
H5235 H 0.32112 0.50423 0.86347 0.0
H5236 H 0.32217 0.52373 0.86602 0.0
H5237 H 0.307 0.50116 0.79774 0.0
H5238 H 0.31921 0.49037 0.80867 0.0
H5239 H 0.29994 0.48929 0.81173 0.0
H5240 H 0.33012 0.45883 0.8334 0.0
H5241 H 0.28483 0.46447 0.84415 0.0
H5242 H 0.34034 0.49684 0.84258 0.0
H5243 H 0.33998 0.49032 0.82411 0.0
H5244 H 0.34706 0.47877 0.83829 0.0
H5245 H 0.28648 0.5017 0.85467 0.0
H5246 H 0.27448 0.48719 0.84903 0.0
H5247 H 0.28171 0.49985 0.83581 0.0
C5248 C 0.52258 0.31532 0.81387 0.0
C5249 C 0.53455 0.31531 0.82333 0.0
C5250 C 0.50839 0.31693 0.8192 0.0
C5251 C 0.50616 0.31927 0.83435 0.0
C5252 C 0.51834 0.32062 0.84378 0.0
C5253 C 0.53243 0.31824 0.8382 0.0
C5254 C 0.49577 0.31505 0.80871 0.0
C5255 C 0.51664 0.32391 0.85982 0.0
C5256 C 0.46635 0.32743 0.83692 0.0
C5257 C 0.46093 0.31324 0.83881 0.0
C5258 C 0.48137 0.3302 0.83794 0.0
C5259 C 0.49105 0.31837 0.8401 0.0
C5260 C 0.48544 0.30451 0.84402 0.0
C5261 C 0.47035 0.30218 0.84358 0.0
C5262 C 0.48697 0.34541 0.83512 0.0
C5263 C 0.49538 0.29164 0.84672 0.0
H5264 H 0.52421 0.31303 0.80237 0.0
H5265 H 0.54174 0.31841 0.84551 0.0
H5266 H 0.48868 0.30592 0.81234 0.0
H5267 H 0.48901 0.32508 0.80849 0.0
H5268 H 0.49946 0.31274 0.79739 0.0
H5269 H 0.52555 0.33123 0.86358 0.0
H5270 H 0.506 0.3291 0.86237 0.0
H5271 H 0.51757 0.31362 0.86614 0.0
H5272 H 0.45901 0.33611 0.83365 0.0
H5273 H 0.46615 0.29125 0.8453 0.0
H5274 H 0.48992 0.34655 0.82343 0.0
H5275 H 0.4969 0.34763 0.8417 0.0
H5276 H 0.47855 0.35375 0.8377 0.0
H5277 H 0.50104 0.28867 0.83642 0.0
H5278 H 0.48933 0.28193 0.85072 0.0
H5279 H 0.50385 0.29451 0.85486 0.0
C5280 C 0.6666 0.4623 0.84708 0.0
C5281 C 0.68084 0.45671 0.84696 0.0
C5282 C 0.66415 0.47723 0.84945 0.0
C5283 C 0.67627 0.48671 0.85068 0.0
C5284 C 0.69039 0.48077 0.85279 0.0
C5285 C 0.69246 0.4657 0.85117 0.0
C5286 C 0.64879 0.48308 0.8488 0.0
C5287 C 0.7036 0.49044 0.85459 0.0
C5288 C 0.67617 0.5184 0.82441 0.0
C5289 C 0.67767 0.53035 0.83377 0.0
C5290 C 0.67525 0.5042 0.82987 0.0
C5291 C 0.67499 0.50193 0.84519 0.0
C5292 C 0.6752 0.5141 0.85474 0.0
C5293 C 0.67695 0.5282 0.8489 0.0
C5294 C 0.67558 0.49164 0.81914 0.0
C5295 C 0.67413 0.51244 0.87108 0.0
H5296 H 0.65753 0.45525 0.84422 0.0
H5297 H 0.70346 0.46133 0.85132 0.0
H5298 H 0.6476 0.49285 0.85588 0.0
H5299 H 0.64614 0.48633 0.83745 0.0
H5300 H 0.64077 0.47466 0.85225 0.0
H5301 H 0.71364 0.48409 0.85704 0.0
H5302 H 0.70544 0.49675 0.84441 0.0
H5303 H 0.70178 0.49836 0.86355 0.0
H5304 H 0.6768 0.52003 0.8127 0.0
H5305 H 0.67799 0.53748 0.85618 0.0
H5306 H 0.66526 0.48536 0.81978 0.0
H5307 H 0.68467 0.48408 0.8218 0.0
H5308 H 0.67699 0.49536 0.80768 0.0
H5309 H 0.67011 0.50152 0.87443 0.0
H5310 H 0.6667 0.52088 0.87562 0.0
H5311 H 0.68503 0.5143 0.87602 0.0
C5312 C 0.47488 0.3106 0.16392 0.0
C5313 C 0.46623 0.31055 0.15134 0.0
C5314 C 0.4901 0.31064 0.16293 0.0
C5315 C 0.4968 0.31138 0.14901 0.0
C5316 C 0.48807 0.31287 0.13634 0.0
C5317 C 0.47281 0.31201 0.13762 0.0
C5318 C 0.49892 0.30859 0.17674 0.0
C5319 C 0.49471 0.31458 0.12137 0.0
C5320 C 0.53718 0.31524 0.15538 0.0
C5321 C 0.54145 0.30057 0.15493 0.0
C5322 C 0.52293 0.31932 0.15147 0.0
C5323 C 0.51266 0.30834 0.14791 0.0
C5324 C 0.51734 0.29369 0.14625 0.0
C5325 C 0.53181 0.29005 0.14949 0.0
C5326 C 0.5186 0.33518 0.1522 0.0
C5327 C 0.50674 0.28159 0.14262 0.0
H5328 H 0.46977 0.30941 0.17453 0.0
H5329 H 0.46608 0.31215 0.12788 0.0
H5330 H 0.50526 0.29829 0.17606 0.0
H5331 H 0.50682 0.31765 0.17806 0.0
H5332 H 0.49196 0.30815 0.18666 0.0
H5333 H 0.48751 0.32123 0.11422 0.0
H5334 H 0.50564 0.31979 0.12185 0.0
H5335 H 0.49588 0.30369 0.11622 0.0
H5336 H 0.54476 0.32343 0.15932 0.0
H5337 H 0.53516 0.2787 0.14909 0.0
H5338 H 0.51328 0.33746 0.16283 0.0
H5339 H 0.5107 0.3379 0.14343 0.0
H5340 H 0.52826 0.34245 0.1512 0.0
H5341 H 0.49856 0.28054 0.1515 0.0
H5342 H 0.51226 0.27089 0.14121 0.0
H5343 H 0.50075 0.28417 0.13244 0.0
C5344 C 0.67021 0.4593 0.15365 0.0
C5345 C 0.67276 0.45566 0.16828 0.0
C5346 C 0.66769 0.47387 0.14953 0.0
C5347 C 0.66863 0.485 0.16022 0.0
C5348 C 0.67024 0.48119 0.17513 0.0
C5349 C 0.67193 0.46651 0.17899 0.0
C5350 C 0.66499 0.4773 0.13366 0.0
C5351 C 0.67168 0.49266 0.18691 0.0
C5352 C 0.68752 0.5207 0.15297 0.0
C5353 C 0.67655 0.5306 0.15686 0.0
C5354 C 0.68478 0.50567 0.15279 0.0
C5355 C 0.67053 0.50053 0.15593 0.0
C5356 C 0.65899 0.51063 0.15776 0.0
C5357 C 0.6622 0.5256 0.15865 0.0
C5358 C 0.69749 0.49533 0.15088 0.0
C5359 C 0.64346 0.50561 0.1599 0.0
H5360 H 0.67066 0.45086 0.14536 0.0
H5361 H 0.67393 0.46369 0.19031 0.0
H5362 H 0.65879 0.48762 0.13227 0.0
H5363 H 0.67558 0.47839 0.12791 0.0
H5364 H 0.65886 0.4683 0.12832 0.0
H5365 H 0.67279 0.48782 0.19798 0.0
H5366 H 0.68142 0.49954 0.18476 0.0
H5367 H 0.66201 0.49993 0.1869 0.0
H5368 H 0.69862 0.52455 0.15152 0.0
H5369 H 0.65364 0.53329 0.16141 0.0
H5370 H 0.69514 0.48738 0.14209 0.0
H5371 H 0.69922 0.48906 0.16111 0.0
H5372 H 0.70779 0.50113 0.14815 0.0
H5373 H 0.64118 0.49562 0.15343 0.0
H5374 H 0.63558 0.51426 0.15669 0.0
H5375 H 0.64159 0.50302 0.17157 0.0
C5376 C 0.5263 0.67554 0.1455 0.0
C5377 C 0.53003 0.6783 0.16007 0.0
C5378 C 0.51169 0.67302 0.14151 0.0
C5379 C 0.50062 0.6742 0.15224 0.0
C5380 C 0.50452 0.6762 0.16709 0.0
C5381 C 0.51922 0.67784 0.17083 0.0
C5382 C 0.50823 0.66991 0.12572 0.0
C5383 C 0.49314 0.678 0.17892 0.0
C5384 C 0.46471 0.69268 0.14553 0.0
C5385 C 0.45508 0.68189 0.15047 0.0
C5386 C 0.4797 0.68992 0.14461 0.0
C5387 C 0.48503 0.67582 0.14808 0.0
C5388 C 0.47505 0.66433 0.15076 0.0
C5389 C 0.46016 0.66759 0.15239 0.0
C5390 C 0.48991 0.70252 0.14164 0.0
C5391 C 0.48021 0.64888 0.15312 0.0
H5392 H 0.53471 0.67572 0.13717 0.0
H5393 H 0.52211 0.68002 0.1821 0.0
H5394 H 0.49743 0.66459 0.12435 0.0
H5395 H 0.50828 0.68028 0.11947 0.0
H5396 H 0.51674 0.66277 0.12088 0.0
H5397 H 0.49806 0.67986 0.18985 0.0
H5398 H 0.48594 0.6874 0.17633 0.0
H5399 H 0.48617 0.66814 0.17956 0.0
H5400 H 0.46078 0.70373 0.14391 0.0
H5401 H 0.45265 0.65914 0.1559 0.0
H5402 H 0.49736 0.6998 0.13252 0.0
H5403 H 0.49674 0.70466 0.15143 0.0
H5404 H 0.48397 0.71271 0.13881 0.0
H5405 H 0.48989 0.64645 0.14624 0.0
H5406 H 0.47144 0.6409 0.15058 0.0
H5407 H 0.48338 0.64736 0.1647 0.0
C5408 C 0.30119 0.47017 0.1485 0.0
C5409 C 0.31251 0.46052 0.15192 0.0
C5410 C 0.30361 0.48526 0.14837 0.0
C5411 C 0.31784 0.49066 0.15111 0.0
C5412 C 0.32968 0.48081 0.15221 0.0
C5413 C 0.32683 0.46578 0.15305 0.0
C5414 C 0.29064 0.49536 0.14708 0.0
C5415 C 0.34517 0.48616 0.1538 0.0
C5416 C 0.31741 0.53197 0.15142 0.0
C5417 C 0.31549 0.53462 0.16636 0.0
C5418 C 0.31986 0.51773 0.14627 0.0
C5419 C 0.31951 0.50593 0.15625 0.0
C5420 C 0.31846 0.50875 0.17144 0.0
C5421 C 0.31683 0.52312 0.1763 0.0
C5422 C 0.32193 0.5154 0.13011 0.0
C5423 C 0.31766 0.49653 0.18253 0.0
H5424 H 0.29012 0.46608 0.14751 0.0
H5425 H 0.33566 0.45825 0.15538 0.0
H5426 H 0.28899 0.50122 0.15756 0.0
H5427 H 0.29262 0.50366 0.13852 0.0
H5428 H 0.28042 0.48941 0.14437 0.0
H5429 H 0.35312 0.47771 0.15027 0.0
H5430 H 0.34694 0.49624 0.1473 0.0
H5431 H 0.34739 0.48877 0.16541 0.0
H5432 H 0.31656 0.54092 0.14373 0.0
H5433 H 0.3153 0.52517 0.18786 0.0
H5434 H 0.31113 0.51528 0.12464 0.0
H5435 H 0.32761 0.50497 0.12769 0.0
H5436 H 0.3283 0.52453 0.12529 0.0
H5437 H 0.30811 0.48946 0.18017 0.0
H5438 H 0.31664 0.50065 0.19389 0.0
H5439 H 0.32756 0.48963 0.18188 0.0
C5440 C 0.812 0.52212 0.66699 0.0
C5441 C 0.8231 0.53256 0.66805 0.0
C5442 C 0.81535 0.50728 0.66587 0.0
C5443 C 0.83018 0.50288 0.66501 0.0
C5444 C 0.84126 0.51359 0.66384 0.0
C5445 C 0.83764 0.52835 0.66583 0.0
C5446 C 0.80309 0.49632 0.6673 0.0
C5447 C 0.85705 0.50953 0.66157 0.0
C5448 C 0.8349 0.46927 0.68783 0.0
C5449 C 0.83023 0.45858 0.67798 0.0
C5450 C 0.83639 0.4838 0.68339 0.0
C5451 C 0.83384 0.48751 0.66858 0.0
C5452 C 0.83149 0.47631 0.6582 0.0
C5453 C 0.82921 0.46197 0.6631 0.0
C5454 C 0.83896 0.49533 0.69492 0.0
C5455 C 0.83018 0.47956 0.64212 0.0
H5456 H 0.80074 0.52539 0.66859 0.0
H5457 H 0.84623 0.53648 0.66634 0.0
H5458 H 0.80293 0.48897 0.65771 0.0
H5459 H 0.80479 0.48947 0.67716 0.0
H5460 H 0.79222 0.50162 0.66818 0.0
H5461 H 0.86242 0.51756 0.65424 0.0
H5462 H 0.86289 0.50989 0.67216 0.0
H5463 H 0.85827 0.49845 0.6568 0.0
H5464 H 0.83582 0.4666 0.69933 0.0
H5465 H 0.82592 0.4536 0.6554 0.0
H5466 H 0.82945 0.50283 0.69544 0.0
H5467 H 0.84869 0.50193 0.69209 0.0
H5468 H 0.84068 0.49056 0.70593 0.0
H5469 H 0.8185 0.48068 0.63914 0.0
H5470 H 0.83472 0.47042 0.63558 0.0
H5471 H 0.83594 0.48979 0.63912 0.0
C5472 C 0.52214 0.84615 0.6916 0.0
C5473 C 0.53052 0.84245 0.67936 0.0
C5474 C 0.50689 0.84678 0.69064 0.0
C5475 C 0.50007 0.8442 0.67701 0.0
C5476 C 0.50869 0.84326 0.66424 0.0
C5477 C 0.52389 0.84194 0.66559 0.0
C5478 C 0.49812 0.84817 0.70452 0.0
C5479 C 0.50178 0.84195 0.64936 0.0
C5480 C 0.46903 0.81725 0.67932 0.0
C5481 C 0.45696 0.82642 0.68108 0.0
C5482 C 0.48304 0.82299 0.67759 0.0
C5483 C 0.48496 0.83835 0.67684 0.0
C5484 C 0.47261 0.84765 0.67744 0.0
C5485 C 0.45874 0.84157 0.67997 0.0
C5486 C 0.49585 0.81256 0.67748 0.0
C5487 C 0.4739 0.864 0.67596 0.0
H5488 H 0.52729 0.84674 0.70224 0.0
H5489 H 0.53042 0.83945 0.65604 0.0
H5490 H 0.48948 0.85652 0.70319 0.0
H5491 H 0.49269 0.8376 0.70694 0.0
H5492 H 0.50502 0.85121 0.71402 0.0
H5493 H 0.50947 0.84539 0.64063 0.0
H5494 H 0.49869 0.83042 0.64732 0.0
H5495 H 0.49173 0.84869 0.64869 0.0
H5496 H 0.46765 0.80553 0.68028 0.0
H5497 H 0.44936 0.84867 0.68122 0.0
H5498 H 0.50369 0.81549 0.68625 0.0
H5499 H 0.50172 0.8133 0.66693 0.0
H5500 H 0.49246 0.80103 0.67911 0.0
H5501 H 0.47325 0.86907 0.68694 0.0
H5502 H 0.46464 0.86836 0.66946 0.0
H5503 H 0.48427 0.86739 0.6707 0.0
C5504 C 0.13726 0.51928 0.6906 0.0
C5505 C 0.14198 0.52865 0.67947 0.0
C5506 C 0.13704 0.50415 0.68841 0.0
C5507 C 0.14108 0.49844 0.67463 0.0
C5508 C 0.14318 0.50804 0.66272 0.0
C5509 C 0.14403 0.52311 0.66536 0.0
C5510 C 0.13445 0.4943 0.70137 0.0
C5511 C 0.14614 0.50234 0.64757 0.0
C5512 C 0.16753 0.46702 0.67763 0.0
C5513 C 0.15816 0.45499 0.67761 0.0
C5514 C 0.16209 0.48119 0.67614 0.0
C5515 C 0.14692 0.48334 0.67384 0.0
C5516 C 0.13757 0.4711 0.6725 0.0
C5517 C 0.14325 0.45703 0.67481 0.0
C5518 C 0.1725 0.49387 0.67805 0.0
C5519 C 0.12151 0.4727 0.66927 0.0
H5520 H 0.1355 0.52357 0.70148 0.0
H5521 H 0.14734 0.5304 0.65664 0.0
H5522 H 0.12642 0.4857 0.69858 0.0
H5523 H 0.14481 0.4888 0.70441 0.0
H5524 H 0.13037 0.5004 0.71102 0.0
H5525 H 0.14355 0.51068 0.63915 0.0
H5526 H 0.15786 0.49948 0.64653 0.0
H5527 H 0.13965 0.49234 0.6454 0.0
H5528 H 0.17905 0.46545 0.67987 0.0
H5529 H 0.136 0.44767 0.67465 0.0
H5530 H 0.16878 0.50096 0.68714 0.0
H5531 H 0.17274 0.50062 0.66801 0.0
H5532 H 0.18383 0.49025 0.68043 0.0
H5533 H 0.11524 0.47177 0.67958 0.0
H5534 H 0.11777 0.46375 0.66199 0.0
H5535 H 0.11888 0.48331 0.66405 0.0
C5536 C 0.45953 0.15252 0.69602 0.0
C5537 C 0.4501 0.15709 0.6849 0.0
C5538 C 0.47441 0.15045 0.69328 0.0
C5539 C 0.47981 0.1524 0.67892 0.0
C5540 C 0.46998 0.15526 0.66734 0.0
C5541 C 0.45524 0.15798 0.67053 0.0
C5542 C 0.48451 0.14767 0.70602 0.0
C5543 C 0.47519 0.15645 0.65176 0.0
C5544 C 0.51717 0.1696 0.67879 0.0
C5545 C 0.52616 0.15727 0.67925 0.0
C5546 C 0.502 0.16816 0.67788 0.0
C5547 C 0.49576 0.15406 0.67673 0.0
C5548 C 0.50493 0.14166 0.67566 0.0
C5549 C 0.52007 0.14337 0.67735 0.0
C5550 C 0.49266 0.18168 0.67947 0.0
C5551 C 0.49878 0.12653 0.67355 0.0
H5552 H 0.45554 0.15184 0.70715 0.0
H5553 H 0.44788 0.16132 0.66189 0.0
H5554 H 0.49146 0.13802 0.70387 0.0
H5555 H 0.49186 0.15719 0.70751 0.0
H5556 H 0.47847 0.14582 0.71637 0.0
H5557 H 0.46608 0.15485 0.64391 0.0
H5558 H 0.47988 0.16745 0.64987 0.0
H5559 H 0.48384 0.14828 0.64947 0.0
H5560 H 0.52191 0.18034 0.68033 0.0
H5561 H 0.52709 0.13384 0.67754 0.0
H5562 H 0.48604 0.18089 0.68958 0.0
H5563 H 0.48498 0.18261 0.67017 0.0
H5564 H 0.49927 0.19183 0.68 0.0
H5565 H 0.49584 0.12183 0.68431 0.0
H5566 H 0.50692 0.11917 0.6684 0.0
H5567 H 0.48879 0.12675 0.6667 0.0
C5568 C 0.84865 0.46524 0.29514 0.0
C5569 C 0.84568 0.45544 0.30648 0.0
C5570 C 0.84933 0.48026 0.29788 0.0
C5571 C 0.84754 0.48539 0.31236 0.0
C5572 C 0.84723 0.4753 0.32404 0.0
C5573 C 0.84584 0.46037 0.32095 0.0
C5574 C 0.84994 0.49064 0.28508 0.0
C5575 C 0.84677 0.48037 0.33969 0.0
C5576 C 0.84549 0.52673 0.3136 0.0
C5577 C 0.83034 0.52879 0.31308 0.0
C5578 C 0.85143 0.51263 0.31478 0.0
C5579 C 0.84195 0.50041 0.31463 0.0
C5580 C 0.82662 0.50257 0.31479 0.0
C5581 C 0.82104 0.51675 0.31438 0.0
C5582 C 0.86779 0.51099 0.3155 0.0
C5583 C 0.816 0.48993 0.31424 0.0
H5584 H 0.84871 0.46139 0.28395 0.0
H5585 H 0.8439 0.45272 0.32977 0.0
H5586 H 0.83932 0.49638 0.284 0.0
H5587 H 0.85848 0.49901 0.28688 0.0
H5588 H 0.85228 0.48492 0.27465 0.0
H5589 H 0.85072 0.47172 0.34722 0.0
H5590 H 0.85352 0.49033 0.34119 0.0
H5591 H 0.83538 0.48308 0.34275 0.0
H5592 H 0.85269 0.53608 0.31278 0.0
H5593 H 0.80932 0.51834 0.31395 0.0
H5594 H 0.87244 0.51231 0.3044 0.0
H5595 H 0.87117 0.50021 0.31988 0.0
H5596 H 0.87258 0.51969 0.32244 0.0
H5597 H 0.81822 0.48306 0.30451 0.0
H5598 H 0.80445 0.49359 0.31375 0.0
H5599 H 0.81732 0.48295 0.32403 0.0
C5600 C 0.53254 0.8436 0.32165 0.0
C5601 C 0.53705 0.84447 0.30706 0.0
C5602 C 0.51777 0.84531 0.32532 0.0
C5603 C 0.50737 0.84693 0.31402 0.0
C5604 C 0.51216 0.84977 0.29959 0.0
C5605 C 0.52706 0.8488 0.29634 0.0
C5606 C 0.51315 0.84382 0.34104 0.0
C5607 C 0.50147 0.85186 0.28722 0.0
C5608 C 0.47538 0.82115 0.31448 0.0
C5609 C 0.46358 0.83082 0.31386 0.0
C5610 C 0.4897 0.82631 0.31527 0.0
C5611 C 0.49225 0.84156 0.31626 0.0
C5612 C 0.48028 0.85129 0.31723 0.0
C5613 C 0.46603 0.84583 0.3156 0.0
C5614 C 0.50205 0.81544 0.31376 0.0
C5615 C 0.48232 0.8675 0.31925 0.0
H5616 H 0.54036 0.84064 0.33003 0.0
H5617 H 0.53059 0.84967 0.28508 0.0
H5618 H 0.50336 0.85059 0.34332 0.0
H5619 H 0.51035 0.83228 0.34339 0.0
H5620 H 0.52209 0.84709 0.34855 0.0
H5621 H 0.50699 0.85463 0.27679 0.0
H5622 H 0.49508 0.84168 0.28559 0.0
H5623 H 0.49367 0.8607 0.28989 0.0
H5624 H 0.4735 0.80955 0.31312 0.0
H5625 H 0.45687 0.85332 0.31531 0.0
H5626 H 0.50909 0.81574 0.32358 0.0
H5627 H 0.50894 0.81828 0.30421 0.0
H5628 H 0.49808 0.80407 0.31234 0.0
H5629 H 0.49335 0.87031 0.32339 0.0
H5630 H 0.47404 0.8718 0.327 0.0
H5631 H 0.48054 0.87312 0.30868 0.0
C5632 C 0.17037 0.46959 0.31063 0.0
C5633 C 0.16098 0.45758 0.31005 0.0
C5634 C 0.16486 0.48379 0.31156 0.0
C5635 C 0.14957 0.48598 0.31264 0.0
C5636 C 0.14011 0.47377 0.31342 0.0
C5637 C 0.14592 0.45968 0.31171 0.0
C5638 C 0.1754 0.49644 0.31028 0.0
C5639 C 0.12385 0.47546 0.31539 0.0
C5640 C 0.14526 0.52591 0.32018 0.0
C5641 C 0.14411 0.53122 0.30588 0.0
C5642 C 0.14471 0.51085 0.32296 0.0
C5643 C 0.1438 0.50105 0.31108 0.0
C5644 C 0.1408 0.50646 0.29691 0.0
C5645 C 0.14071 0.52156 0.29453 0.0
C5646 C 0.1466 0.50544 0.33839 0.0
C5647 C 0.13961 0.49638 0.28392 0.0
H5648 H 0.18202 0.46796 0.30927 0.0
H5649 H 0.13865 0.45034 0.31141 0.0
H5650 H 0.17253 0.50326 0.30068 0.0
H5651 H 0.17469 0.50347 0.32009 0.0
H5652 H 0.1869 0.49279 0.30907 0.0
H5653 H 0.11943 0.46638 0.32211 0.0
H5654 H 0.12094 0.48598 0.32064 0.0
H5655 H 0.11843 0.4749 0.30458 0.0
H5656 H 0.14757 0.53341 0.32904 0.0
H5657 H 0.13967 0.52567 0.28348 0.0
H5658 H 0.15824 0.50277 0.34036 0.0
H5659 H 0.14011 0.49537 0.34023 0.0
H5660 H 0.14325 0.51385 0.34646 0.0
H5661 H 0.15032 0.49108 0.2819 0.0
H5662 H 0.13628 0.50226 0.27384 0.0
H5663 H 0.13155 0.48764 0.28611 0.0
C5664 C 0.50792 0.1633 0.31557 0.0
C5665 C 0.5166 0.15088 0.31373 0.0
C5666 C 0.4927 0.16232 0.31518 0.0
C5667 C 0.48603 0.14844 0.31366 0.0
C5668 C 0.49478 0.13569 0.31362 0.0
C5669 C 0.51005 0.13708 0.31319 0.0
C5670 C 0.48388 0.17627 0.31487 0.0
C5671 C 0.48813 0.12064 0.31309 0.0
C5672 C 0.44526 0.15376 0.31559 0.0
C5673 C 0.4419 0.15493 0.30072 0.0
C5674 C 0.45935 0.14972 0.3201 0.0
C5675 C 0.4704 0.14778 0.30947 0.0
C5676 C 0.46672 0.14796 0.29444 0.0
C5677 C 0.4524 0.15119 0.29028 0.0
C5678 C 0.46256 0.14847 0.33619 0.0
C5679 C 0.47818 0.14623 0.28269 0.0
H5680 H 0.51301 0.17399 0.31596 0.0
H5681 H 0.5168 0.12744 0.31196 0.0
H5682 H 0.47797 0.17715 0.30432 0.0
H5683 H 0.47561 0.17621 0.32368 0.0
H5684 H 0.49079 0.18614 0.31621 0.0
H5685 H 0.49528 0.11258 0.31867 0.0
H5686 H 0.47718 0.1204 0.31827 0.0
H5687 H 0.48699 0.11713 0.30157 0.0
H5688 H 0.43703 0.15643 0.32366 0.0
H5689 H 0.44975 0.1521 0.27878 0.0
H5690 H 0.4664 0.15914 0.34041 0.0
H5691 H 0.4712 0.14024 0.33832 0.0
H5692 H 0.4526 0.14541 0.3424 0.0
H5693 H 0.48638 0.1551 0.28363 0.0
H5694 H 0.47344 0.14656 0.27154 0.0
H5695 H 0.484 0.13572 0.28404 0.0
C5696 C 0.67221 0.84349 0.45926 0.0
C5697 C 0.67364 0.82848 0.45671 0.0
C5698 C 0.67067 0.84889 0.47355 0.0
C5699 C 0.67143 0.83906 0.48547 0.0
C5700 C 0.67204 0.82382 0.48281 0.0
C5701 C 0.67275 0.81874 0.46844 0.0
C5702 C 0.66903 0.86512 0.47573 0.0
C5703 C 0.67331 0.81287 0.49511 0.0
C5704 C 0.69176 0.84675 0.52013 0.0
C5705 C 0.68096 0.84341 0.53042 0.0
C5706 C 0.6885 0.84693 0.5052 0.0
C5707 C 0.67397 0.84433 0.50059 0.0
C5708 C 0.66268 0.84338 0.5111 0.0
C5709 C 0.66636 0.84247 0.52595 0.0
C5710 C 0.7009 0.84809 0.4944 0.0
C5711 C 0.64691 0.84203 0.50661 0.0
H5712 H 0.6727 0.85104 0.45016 0.0
H5713 H 0.67387 0.80712 0.46649 0.0
H5714 H 0.66438 0.86786 0.48658 0.0
H5715 H 0.67986 0.87043 0.47469 0.0
H5716 H 0.66189 0.86982 0.46713 0.0
H5717 H 0.67412 0.80145 0.49108 0.0
H5718 H 0.68315 0.81526 0.50177 0.0
H5719 H 0.6637 0.81362 0.50239 0.0
H5720 H 0.70304 0.84763 0.52358 0.0
H5721 H 0.65793 0.84022 0.53396 0.0
H5722 H 0.6986 0.85679 0.48632 0.0
H5723 H 0.70204 0.83766 0.48834 0.0
H5724 H 0.71148 0.85057 0.49978 0.0
H5725 H 0.6447 0.84846 0.49658 0.0
H5726 H 0.6395 0.8458 0.51545 0.0
H5727 H 0.64431 0.83044 0.50427 0.0
C5728 C 0.67709 0.18139 0.46861 0.0
C5729 C 0.67573 0.1715 0.45707 0.0
C5730 C 0.67612 0.17669 0.4831 0.0
C5731 C 0.67313 0.1618 0.4861 0.0
C5732 C 0.67062 0.15197 0.47444 0.0
C5733 C 0.67231 0.15688 0.46001 0.0
C5734 C 0.67919 0.18752 0.49517 0.0
C5735 C 0.66675 0.13619 0.4771 0.0
C5736 C 0.69027 0.15166 0.52193 0.0
C5737 C 0.67934 0.15618 0.53161 0.0
C5738 C 0.68795 0.15206 0.50682 0.0
C5739 C 0.67421 0.15659 0.5014 0.0
C5740 C 0.66253 0.15904 0.51121 0.0
C5741 C 0.66531 0.15912 0.52627 0.0
C5742 C 0.70072 0.14937 0.49676 0.0
C5743 C 0.64747 0.1629 0.50579 0.0
H5744 H 0.6798 0.19269 0.46634 0.0
H5745 H 0.67112 0.14924 0.45104 0.0
H5746 H 0.66975 0.18818 0.5027 0.0
H5747 H 0.68876 0.18385 0.50164 0.0
H5748 H 0.68147 0.19865 0.49093 0.0
H5749 H 0.66039 0.13164 0.46783 0.0
H5750 H 0.6769 0.12968 0.47814 0.0
H5751 H 0.66033 0.13482 0.48729 0.0
H5752 H 0.70112 0.14928 0.52603 0.0
H5753 H 0.65675 0.16234 0.53378 0.0
H5754 H 0.70414 0.15984 0.4917 0.0
H5755 H 0.69757 0.14186 0.48782 0.0
H5756 H 0.71025 0.14464 0.5026 0.0
H5757 H 0.64717 0.17461 0.50269 0.0
H5758 H 0.63906 0.16103 0.51432 0.0
H5759 H 0.64464 0.1564 0.49596 0.0
C5760 C 0.81643 0.67744 0.51941 0.0
C5761 C 0.82663 0.678 0.53074 0.0
C5762 C 0.82088 0.67553 0.50495 0.0
C5763 C 0.83589 0.67331 0.50184 0.0
C5764 C 0.84606 0.67234 0.51346 0.0
C5765 C 0.84136 0.67514 0.5278 0.0
C5766 C 0.80961 0.67717 0.49298 0.0
C5767 C 0.86198 0.66905 0.51089 0.0
C5768 C 0.83618 0.66584 0.46175 0.0
C5769 C 0.83806 0.68007 0.45647 0.0
C5770 C 0.83796 0.66279 0.47666 0.0
C5771 C 0.84074 0.67442 0.48643 0.0
C5772 C 0.84447 0.68836 0.48086 0.0
C5773 C 0.84337 0.69092 0.46584 0.0
C5774 C 0.83548 0.64746 0.48211 0.0
C5775 C 0.84777 0.70105 0.49084 0.0
H5776 H 0.80503 0.67969 0.52169 0.0
H5777 H 0.84924 0.67537 0.53663 0.0
H5778 H 0.81279 0.68612 0.48547 0.0
H5779 H 0.80892 0.66699 0.48649 0.0
H5780 H 0.79855 0.67961 0.49733 0.0
H5781 H 0.86605 0.66138 0.51935 0.0
H5782 H 0.86404 0.66424 0.49997 0.0
H5783 H 0.86842 0.67925 0.51196 0.0
H5784 H 0.83249 0.65731 0.45442 0.0
H5785 H 0.84509 0.70188 0.46173 0.0
H5786 H 0.82387 0.64607 0.48524 0.0
H5787 H 0.8423 0.64518 0.49187 0.0
H5788 H 0.83802 0.63931 0.4735 0.0
H5789 H 0.83804 0.70358 0.49761 0.0
H5790 H 0.85088 0.71105 0.48472 0.0
H5791 H 0.85682 0.6982 0.49833 0.0
C5792 C 0.31811 0.83522 0.46525 0.0
C5793 C 0.31509 0.82066 0.46166 0.0
C5794 C 0.31981 0.83947 0.4799 0.0
C5795 C 0.31763 0.82904 0.49111 0.0
C5796 C 0.31515 0.81421 0.48742 0.0
C5797 C 0.31427 0.81018 0.47274 0.0
C5798 C 0.32328 0.85522 0.48322 0.0
C5799 C 0.31229 0.80273 0.49894 0.0
C5800 C 0.32367 0.82932 0.53163 0.0
C5801 C 0.30937 0.83173 0.53648 0.0
C5802 C 0.32716 0.83058 0.51675 0.0
C5803 C 0.31591 0.83351 0.50659 0.0
C5804 C 0.30187 0.83751 0.51166 0.0
C5805 C 0.29886 0.83685 0.52663 0.0
C5806 C 0.34256 0.82753 0.51181 0.0
C5807 C 0.28953 0.84078 0.50122 0.0
H5808 H 0.3189 0.84332 0.45665 0.0
H5809 H 0.31187 0.79893 0.46996 0.0
H5810 H 0.31308 0.86173 0.48288 0.0
H5811 H 0.32838 0.85658 0.49412 0.0
H5812 H 0.33075 0.85978 0.47482 0.0
H5813 H 0.31017 0.79179 0.49416 0.0
H5814 H 0.32178 0.80182 0.50639 0.0
H5815 H 0.30269 0.80589 0.50563 0.0
H5816 H 0.33193 0.82569 0.5393 0.0
H5817 H 0.28782 0.83888 0.53038 0.0
H5818 H 0.34553 0.8346 0.50241 0.0
H5819 H 0.34347 0.81601 0.50821 0.0
H5820 H 0.35052 0.82931 0.52078 0.0
H5821 H 0.29282 0.8494 0.49341 0.0
H5822 H 0.27949 0.84442 0.50696 0.0
H5823 H 0.28689 0.83084 0.49482 0.0
C5824 C 0.16235 0.32 0.47326 0.0
C5825 C 0.15193 0.31758 0.46237 0.0
C5826 C 0.15836 0.32024 0.48797 0.0
C5827 C 0.14343 0.31887 0.49181 0.0
C5828 C 0.13267 0.31854 0.48071 0.0
C5829 C 0.13708 0.31746 0.46606 0.0
C5830 C 0.17035 0.32037 0.49934 0.0
C5831 C 0.11658 0.31833 0.48416 0.0
C5832 C 0.14176 0.29586 0.52547 0.0
C5833 C 0.1451 0.30639 0.536 0.0
C5834 C 0.13943 0.29991 0.51093 0.0
C5835 C 0.1398 0.31491 0.5071 0.0
C5836 C 0.14057 0.3256 0.51821 0.0
C5837 C 0.14376 0.32122 0.53254 0.0
C5838 C 0.13847 0.28807 0.49949 0.0
C5839 C 0.1394 0.34166 0.5148 0.0
H5840 H 0.17384 0.32021 0.47042 0.0
H5841 H 0.12895 0.3159 0.4576 0.0
H5842 H 0.16906 0.32991 0.50665 0.0
H5843 H 0.1697 0.31038 0.50618 0.0
H5844 H 0.18141 0.32088 0.49442 0.0
H5845 H 0.11058 0.32541 0.47636 0.0
H5846 H 0.1123 0.30709 0.48278 0.0
H5847 H 0.11423 0.32208 0.49544 0.0
H5848 H 0.14265 0.28438 0.52823 0.0
H5849 H 0.14598 0.32939 0.54082 0.0
H5850 H 0.14804 0.28872 0.49208 0.0
H5851 H 0.12852 0.28958 0.49279 0.0
H5852 H 0.13814 0.27697 0.50436 0.0
H5853 H 0.15044 0.34624 0.5129 0.0
H5854 H 0.13452 0.34766 0.52414 0.0
H5855 H 0.13268 0.3436 0.5049 0.0
C5856 C 0.32626 0.15913 0.52195 0.0
C5857 C 0.31209 0.15671 0.52718 0.0
C5858 C 0.32939 0.15769 0.50701 0.0
C5859 C 0.31788 0.15471 0.49716 0.0
C5860 C 0.304 0.15062 0.50263 0.0
C5861 C 0.30139 0.15136 0.51766 0.0
C5862 C 0.34469 0.1606 0.50169 0.0
C5863 C 0.29139 0.14719 0.49257 0.0
C5864 C 0.314 0.17827 0.46373 0.0
C5865 C 0.31335 0.16775 0.45269 0.0
C5866 C 0.3164 0.17422 0.47825 0.0
C5867 C 0.31903 0.15935 0.48167 0.0
C5868 C 0.32014 0.14895 0.47027 0.0
C5869 C 0.31683 0.15321 0.4559 0.0
C5870 C 0.31465 0.1857 0.48999 0.0
C5871 C 0.32396 0.13321 0.47316 0.0
H5872 H 0.33467 0.1629 0.52937 0.0
H5873 H 0.29047 0.14927 0.52172 0.0
H5874 H 0.3471 0.15422 0.49166 0.0
H5875 H 0.34594 0.17235 0.49908 0.0
H5876 H 0.35285 0.15781 0.51021 0.0
H5877 H 0.28137 0.14406 0.49863 0.0
H5878 H 0.28886 0.15686 0.48572 0.0
H5879 H 0.29435 0.13811 0.48516 0.0
H5880 H 0.31129 0.18952 0.46124 0.0
H5881 H 0.31654 0.14509 0.44729 0.0
H5882 H 0.32479 0.18657 0.49652 0.0
H5883 H 0.30569 0.18257 0.49753 0.0
H5884 H 0.31214 0.19665 0.48544 0.0
H5885 H 0.32931 0.13165 0.48391 0.0
H5886 H 0.33136 0.12906 0.46449 0.0
H5887 H 0.31391 0.12648 0.47276 0.0
C5888 C 0.83699 0.32348 0.46397 0.0
C5889 C 0.83694 0.30862 0.46035 0.0
C5890 C 0.83694 0.32795 0.47863 0.0
C5891 C 0.83605 0.31727 0.48976 0.0
C5892 C 0.83687 0.30225 0.48611 0.0
C5893 C 0.83762 0.29814 0.47143 0.0
C5894 C 0.83695 0.34405 0.48207 0.0
C5895 C 0.83566 0.29045 0.49758 0.0
C5896 C 0.83808 0.32041 0.53067 0.0
C5897 C 0.82319 0.31998 0.5342 0.0
C5898 C 0.8426 0.32145 0.51607 0.0
C5899 C 0.83196 0.32136 0.50487 0.0
C5900 C 0.81697 0.32236 0.50851 0.0
C5901 C 0.81279 0.32194 0.52318 0.0
C5902 C 0.85869 0.32142 0.51262 0.0
C5903 C 0.80523 0.32219 0.49692 0.0
H5904 H 0.83667 0.3316 0.45537 0.0
H5905 H 0.83756 0.28665 0.4686 0.0
H5906 H 0.82554 0.34806 0.48264 0.0
H5907 H 0.84229 0.34632 0.49271 0.0
H5908 H 0.84264 0.35035 0.4734 0.0
H5909 H 0.83683 0.27932 0.49291 0.0
H5910 H 0.84416 0.29194 0.50606 0.0
H5911 H 0.82488 0.29119 0.50307 0.0
H5912 H 0.84616 0.31918 0.53923 0.0
H5913 H 0.80127 0.32172 0.52589 0.0
H5914 H 0.86106 0.32837 0.50297 0.0
H5915 H 0.86226 0.31015 0.51003 0.0
H5916 H 0.86524 0.32537 0.52203 0.0
H5917 H 0.8073 0.3308 0.48868 0.0
H5918 H 0.79416 0.3239 0.50155 0.0
H5919 H 0.80537 0.31153 0.49117 0.0
C5920 C 0.14749 0.66681 0.52568 0.0
C5921 C 0.16227 0.6686 0.52916 0.0
C5922 C 0.14302 0.66538 0.51108 0.0
C5923 C 0.15354 0.66663 0.49982 0.0
C5924 C 0.16858 0.66734 0.50341 0.0
C5925 C 0.17275 0.66795 0.51807 0.0
C5926 C 0.127 0.66351 0.50781 0.0
C5927 C 0.18022 0.66902 0.49183 0.0
C5928 C 0.15142 0.66385 0.45892 0.0
C5929 C 0.15032 0.67866 0.45524 0.0
C5930 C 0.15037 0.65935 0.47354 0.0
C5931 C 0.14909 0.67003 0.48462 0.0
C5932 C 0.14658 0.6848 0.48079 0.0
C5933 C 0.1469 0.68887 0.46608 0.0
C5934 C 0.15178 0.64335 0.47713 0.0
C5935 C 0.14522 0.69662 0.49223 0.0
H5936 H 0.13937 0.66706 0.5343 0.0
H5937 H 0.1842 0.6693 0.52076 0.0
H5938 H 0.12158 0.67434 0.50786 0.0
H5939 H 0.12516 0.65834 0.49701 0.0
H5940 H 0.12167 0.65675 0.51635 0.0
H5941 H 0.1914 0.66937 0.49651 0.0
H5942 H 0.17969 0.65983 0.48398 0.0
H5943 H 0.17837 0.67925 0.4856 0.0
H5944 H 0.15374 0.65588 0.45048 0.0
H5945 H 0.14593 0.70032 0.46324 0.0
H5946 H 0.14558 0.64055 0.48716 0.0
H5947 H 0.16342 0.64062 0.47901 0.0
H5948 H 0.1478 0.63647 0.46797 0.0
H5949 H 0.13629 0.69398 0.49993 0.0
H5950 H 0.143 0.70751 0.48738 0.0
H5951 H 0.15549 0.69731 0.49863 0.0
C5952 C 0.16101 0.11223 0.28333 0.0
C5953 C 0.16639 0.10584 0.29613 0.0
C5954 C 0.14976 0.12256 0.28385 0.0
C5955 C 0.14412 0.12691 0.29756 0.0
C5956 C 0.14897 0.11992 0.31047 0.0
C5957 C 0.15996 0.10929 0.30957 0.0
C5958 C 0.14458 0.12947 0.26981 0.0
C5959 C 0.14341 0.12445 0.3253 0.0
C5960 C 0.1325 0.16649 0.2987 0.0
C5961 C 0.11727 0.16534 0.29833 0.0
C5962 C 0.1413 0.15401 0.29898 0.0
C5963 C 0.1347 0.14005 0.29846 0.0
C5964 C 0.1193 0.1388 0.29817 0.0
C5965 C 0.11073 0.15151 0.29831 0.0
C5966 C 0.15769 0.1558 0.29965 0.0
C5967 C 0.11193 0.12409 0.29725 0.0
H5968 H 0.16589 0.10942 0.27292 0.0
H5969 H 0.16418 0.10438 0.31948 0.0
H5970 H 0.13248 0.13 0.26955 0.0
H5971 H 0.14874 0.14083 0.26912 0.0
H5972 H 0.14844 0.12339 0.26006 0.0
H5973 H 0.14685 0.11675 0.33401 0.0
H5974 H 0.14773 0.13545 0.32799 0.0
H5975 H 0.13133 0.12522 0.32531 0.0
H5976 H 0.13755 0.17719 0.2989 0.0
H5977 H 0.09893 0.15064 0.29796 0.0
H5978 H 0.16269 0.15162 0.28945 0.0
H5979 H 0.16222 0.14933 0.30883 0.0
H5980 H 0.161 0.16738 0.30107 0.0
H5981 H 0.11494 0.11869 0.28683 0.0
H5982 H 0.09985 0.12497 0.2978 0.0
H5983 H 0.11573 0.11691 0.30623 0.0
C5984 C 0.88901 0.14363 0.31776 0.0
C5985 C 0.8861 0.15102 0.30465 0.0
C5986 C 0.88051 0.13163 0.32206 0.0
C5987 C 0.8689 0.12696 0.31301 0.0
C5988 C 0.86664 0.13369 0.29929 0.0
C5989 C 0.87526 0.14564 0.29528 0.0
C5990 C 0.88332 0.12462 0.3367 0.0
C5991 C 0.85443 0.12894 0.28926 0.0
C5992 C 0.84714 0.09221 0.31877 0.0
C5993 C 0.8344 0.0978 0.32516 0.0
C5994 C 0.85892 0.10144 0.31543 0.0
C5995 C 0.85785 0.11653 0.31858 0.0
C5996 C 0.84536 0.12202 0.32582 0.0
C5997 C 0.83379 0.11259 0.32902 0.0
C5998 C 0.87213 0.0952 0.30782 0.0
C5999 C 0.84382 0.13804 0.32946 0.0
H6000 H 0.89744 0.14765 0.32502 0.0
H6001 H 0.87309 0.15114 0.28503 0.0
H6002 H 0.87472 0.12804 0.34451 0.0
H6003 H 0.88285 0.11255 0.33584 0.0
H6004 H 0.8941 0.1278 0.34125 0.0
H6005 H 0.85514 0.1342 0.27836 0.0
H6006 H 0.8546 0.11692 0.28778 0.0
H6007 H 0.84377 0.13184 0.29422 0.0
H6008 H 0.84768 0.08076 0.31583 0.0
H6009 H 0.82403 0.11693 0.3341 0.0
H6010 H 0.88233 0.09937 0.31285 0.0
H6011 H 0.87212 0.09869 0.29623 0.0
H6012 H 0.87226 0.08307 0.30817 0.0
H6013 H 0.85356 0.14194 0.3355 0.0
H6014 H 0.83396 0.14032 0.33614 0.0
H6015 H 0.84308 0.14447 0.31922 0.0
C6016 C 0.86303 0.82637 0.29699 0.0
C6017 C 0.87822 0.82747 0.29824 0.0
C6018 C 0.85412 0.83868 0.29853 0.0
C6019 C 0.86061 0.85249 0.30099 0.0
C6020 C 0.87597 0.85372 0.30207 0.0
C6021 C 0.88461 0.84112 0.30089 0.0
C6022 C 0.83775 0.83686 0.2976 0.0
C6023 C 0.88323 0.86834 0.3043 0.0
C6024 C 0.83476 0.88273 0.2904 0.0
C6025 C 0.82861 0.8863 0.30393 0.0
C6026 C 0.84614 0.87258 0.28941 0.0
C6027 C 0.85113 0.86554 0.30223 0.0
C6028 C 0.84551 0.86972 0.31601 0.0
C6029 C 0.83441 0.88024 0.31671 0.0
C6030 C 0.85216 0.86871 0.27456 0.0
C6031 C 0.85035 0.86226 0.32989 0.0
H6032 H 0.85806 0.81579 0.2951 0.0
H6033 H 0.89638 0.84198 0.30179 0.0
H6034 H 0.83252 0.84127 0.3076 0.0
H6035 H 0.83343 0.84314 0.28819 0.0
H6036 H 0.83445 0.82526 0.29632 0.0
H6037 H 0.89532 0.86744 0.30482 0.0
H6038 H 0.88029 0.87581 0.29522 0.0
H6039 H 0.87928 0.87344 0.31454 0.0
H6040 H 0.83037 0.88757 0.28053 0.0
H6041 H 0.8296 0.88297 0.32717 0.0
H6042 H 0.84808 0.8578 0.27127 0.0
H6043 H 0.86425 0.86813 0.27488 0.0
H6044 H 0.84886 0.87674 0.26609 0.0
H6045 H 0.84617 0.85089 0.32998 0.0
H6046 H 0.84626 0.86794 0.33979 0.0
H6047 H 0.86243 0.86167 0.33045 0.0
C6048 C 0.10477 0.83886 0.30809 0.0
C6049 C 0.1089 0.82827 0.29782 0.0
C6050 C 0.11397 0.85062 0.31141 0.0
C6051 C 0.12757 0.85183 0.30422 0.0
C6052 C 0.13155 0.84155 0.2934 0.0
C6053 C 0.12217 0.82986 0.29035 0.0
C6054 C 0.10939 0.8614 0.32301 0.0
C6055 C 0.14594 0.8426 0.28543 0.0
C6056 C 0.14845 0.88753 0.30529 0.0
C6057 C 0.15901 0.88455 0.31597 0.0
C6058 C 0.13796 0.87706 0.30149 0.0
C6059 C 0.13804 0.86335 0.30861 0.0
C6060 C 0.14841 0.86045 0.31968 0.0
C6061 C 0.1588 0.87108 0.32322 0.0
C6062 C 0.12706 0.8805 0.28962 0.0
C6063 C 0.14873 0.84597 0.32758 0.0
H6064 H 0.09452 0.83775 0.3139 0.0
H6065 H 0.12541 0.82178 0.28234 0.0
H6066 H 0.11684 0.86055 0.33252 0.0
H6067 H 0.11021 0.87272 0.31879 0.0
H6068 H 0.09804 0.85949 0.32683 0.0
H6069 H 0.14694 0.83431 0.27664 0.0
H6070 H 0.14722 0.85361 0.28054 0.0
H6071 H 0.15505 0.84104 0.29325 0.0
H6072 H 0.14858 0.89793 0.29965 0.0
H6073 H 0.16692 0.86875 0.3315 0.0
H6074 H 0.11578 0.87879 0.29367 0.0
H6075 H 0.12869 0.87297 0.28027 0.0
H6076 H 0.12806 0.8919 0.28561 0.0
H6077 H 0.13792 0.8437 0.33254 0.0
H6078 H 0.15714 0.84567 0.33632 0.0
H6079 H 0.15103 0.83706 0.31971 0.0
C6080 C 0.15144 0.87942 0.6978 0.0
C6081 C 0.15805 0.88689 0.68622 0.0
C6082 C 0.14009 0.86949 0.69526 0.0
C6083 C 0.13556 0.86669 0.68075 0.0
C6084 C 0.14155 0.8749 0.66911 0.0
C6085 C 0.15265 0.88506 0.67201 0.0
C6086 C 0.13371 0.86124 0.70802 0.0
C6087 C 0.13715 0.8721 0.65348 0.0
C6088 C 0.12458 0.8273 0.67571 0.0
C6089 C 0.10934 0.82822 0.67572 0.0
C6090 C 0.1332 0.83987 0.67649 0.0
C6091 C 0.12639 0.85369 0.67771 0.0
C6092 C 0.11097 0.85474 0.67719 0.0
C6093 C 0.10259 0.84194 0.67602 0.0
C6094 C 0.14962 0.83827 0.67662 0.0
C6095 C 0.10334 0.86926 0.67872 0.0
H6096 H 0.15549 0.88098 0.70881 0.0
H6097 H 0.15778 0.8908 0.66303 0.0
H6098 H 0.12163 0.86084 0.70721 0.0
H6099 H 0.13776 0.84982 0.70788 0.0
H6100 H 0.13674 0.86623 0.71864 0.0
H6101 H 0.141 0.88087 0.64604 0.0
H6102 H 0.14196 0.8616 0.64981 0.0
H6103 H 0.12513 0.87113 0.65248 0.0
H6104 H 0.12978 0.81667 0.67533 0.0
H6105 H 0.09077 0.84261 0.67611 0.0
H6106 H 0.15392 0.84128 0.68753 0.0
H6107 H 0.15464 0.84577 0.66854 0.0
H6108 H 0.15316 0.82695 0.67411 0.0
H6109 H 0.10464 0.87329 0.69007 0.0
H6110 H 0.09149 0.86845 0.67626 0.0
H6111 H 0.10831 0.87751 0.67138 0.0
C6112 C 0.16942 0.12901 0.69599 0.0
C6113 C 0.16859 0.11379 0.69507 0.0
C6114 C 0.15678 0.13749 0.69703 0.0
C6115 C 0.14299 0.13052 0.69763 0.0
C6116 C 0.14207 0.11512 0.69684 0.0
C6117 C 0.15493 0.10691 0.69533 0.0
C6118 C 0.1582 0.15392 0.69747 0.0
C6119 C 0.12758 0.10735 0.69786 0.0
C6120 C 0.11561 0.15623 0.71437 0.0
C6121 C 0.10929 0.16234 0.70187 0.0
C6122 C 0.1256 0.1447 0.71323 0.0
C6123 C 0.12968 0.13959 0.69923 0.0
C6124 C 0.12254 0.14503 0.68665 0.0
C6125 C 0.11224 0.15625 0.68816 0.0
C6126 C 0.13262 0.13881 0.72692 0.0
C6127 C 0.12678 0.14009 0.67152 0.0
H6128 H 0.18 0.13432 0.69563 0.0
H6129 H 0.15433 0.09511 0.69472 0.0
H6130 H 0.15146 0.15891 0.68872 0.0
H6131 H 0.15409 0.15813 0.70805 0.0
H6132 H 0.16967 0.1576 0.69607 0.0
H6133 H 0.12873 0.09532 0.69687 0.0
H6134 H 0.12234 0.10988 0.70849 0.0
H6135 H 0.1201 0.11127 0.68919 0.0
H6136 H 0.11319 0.16085 0.72499 0.0
H6137 H 0.10739 0.16103 0.67847 0.0
H6138 H 0.14385 0.14323 0.72792 0.0
H6139 H 0.13347 0.12674 0.72645 0.0
H6140 H 0.12641 0.14191 0.73687 0.0
H6141 H 0.13763 0.14471 0.66871 0.0
H6142 H 0.1188 0.14372 0.66314 0.0
H6143 H 0.12774 0.12804 0.67101 0.0
C6144 C 0.86808 0.16766 0.67821 0.0
C6145 C 0.88332 0.16674 0.67807 0.0
C6146 C 0.85946 0.15507 0.67811 0.0
C6147 C 0.86628 0.14121 0.67829 0.0
C6148 C 0.88169 0.14019 0.67767 0.0
C6149 C 0.89008 0.15304 0.67739 0.0
C6150 C 0.84304 0.15665 0.67839 0.0
C6151 C 0.88933 0.1256 0.67811 0.0
C6152 C 0.84123 0.11413 0.69646 0.0
C6153 C 0.83462 0.10753 0.68437 0.0
C6154 C 0.85259 0.12418 0.69464 0.0
C6155 C 0.85711 0.12802 0.68037 0.0
C6156 C 0.8511 0.12069 0.66816 0.0
C6157 C 0.83999 0.11036 0.67033 0.0
C6158 C 0.85901 0.13147 0.70796 0.0
C6159 C 0.85547 0.12463 0.65278 0.0
H6160 H 0.86288 0.17829 0.67856 0.0
H6161 H 0.90189 0.15237 0.67734 0.0
H6162 H 0.83801 0.14978 0.66978 0.0
H6163 H 0.83876 0.15283 0.68905 0.0
H6164 H 0.8395 0.16813 0.67674 0.0
H6165 H 0.90119 0.12659 0.67579 0.0
H6166 H 0.88797 0.12069 0.68911 0.0
H6167 H 0.8844 0.11795 0.67013 0.0
H6168 H 0.83719 0.11178 0.70733 0.0
H6169 H 0.83484 0.10527 0.66098 0.0
H6170 H 0.85496 0.14286 0.70868 0.0
H6171 H 0.87109 0.13192 0.70716 0.0
H6172 H 0.856 0.1257 0.7182 0.0
H6173 H 0.85067 0.13537 0.64989 0.0
H6174 H 0.85161 0.11643 0.64472 0.0
H6175 H 0.86749 0.12567 0.65183 0.0
C6176 C 0.88693 0.8356 0.69494 0.0
C6177 C 0.88043 0.82178 0.69567 0.0
C6178 C 0.87834 0.8483 0.69527 0.0
C6179 C 0.86294 0.84703 0.6958 0.0
C6180 C 0.85637 0.83304 0.69621 0.0
C6181 C 0.86522 0.8206 0.6964 0.0
C6182 C 0.8857 0.86304 0.6953 0.0
C6183 C 0.83998 0.83119 0.69637 0.0
C6184 C 0.83663 0.87547 0.70977 0.0
C6185 C 0.83105 0.88107 0.69671 0.0
C6186 C 0.84803 0.86527 0.70967 0.0
C6187 C 0.8535 0.86017 0.69615 0.0
C6188 C 0.84835 0.86634 0.68293 0.0
C6189 C 0.83731 0.87694 0.6834 0.0
C6190 C 0.85359 0.85932 0.724 0.0
C6191 C 0.8536 0.86091 0.66829 0.0
H6192 H 0.89872 0.83646 0.69443 0.0
H6193 H 0.8602 0.80988 0.69678 0.0
H6194 H 0.88198 0.86959 0.68582 0.0
H6195 H 0.88257 0.86914 0.7053 0.0
H6196 H 0.89778 0.86215 0.69491 0.0
H6197 H 0.83665 0.81955 0.69578 0.0
H6198 H 0.83539 0.83597 0.7065 0.0
H6199 H 0.83504 0.8371 0.68702 0.0
H6200 H 0.83184 0.87881 0.72007 0.0
H6201 H 0.83288 0.88124 0.6733 0.0
H6202 H 0.86569 0.85873 0.72396 0.0
H6203 H 0.8494 0.84807 0.72561 0.0
H6204 H 0.85003 0.86609 0.73341 0.0
H6205 H 0.86569 0.86034 0.668 0.0
H6206 H 0.84981 0.86796 0.65918 0.0
H6207 H 0.84942 0.84969 0.66645 0.0
C6208 C 0.29891 0.15364 0.12045 0.0
C6209 C 0.30101 0.15398 0.10533 0.0
C6210 C 0.29883 0.14042 0.12807 0.0
C6211 C 0.30055 0.12717 0.1203 0.0
C6212 C 0.3026 0.1274 0.10499 0.0
C6213 C 0.303 0.14088 0.09767 0.0
C6214 C 0.29691 0.14068 0.14446 0.0
C6215 C 0.30412 0.11345 0.09637 0.0
C6216 C 0.31208 0.09691 0.14565 0.0
C6217 C 0.29845 0.09197 0.15056 0.0
C6218 C 0.31305 0.10763 0.13478 0.0
C6219 C 0.30009 0.11322 0.12849 0.0
C6220 C 0.28643 0.10706 0.13226 0.0
C6221 C 0.28575 0.09663 0.14343 0.0
C6222 C 0.32781 0.11403 0.13121 0.0
C6223 C 0.27241 0.11243 0.12547 0.0
H6224 H 0.29751 0.16377 0.12641 0.0
H6225 H 0.30453 0.14115 0.08594 0.0
H6226 H 0.28672 0.1349 0.14751 0.0
H6227 H 0.30611 0.13489 0.14981 0.0
H6228 H 0.29638 0.15196 0.14888 0.0
H6229 H 0.30591 0.11553 0.08455 0.0
H6230 H 0.31336 0.10689 0.10061 0.0
H6231 H 0.29411 0.10676 0.09765 0.0
H6232 H 0.32193 0.09332 0.15113 0.0
H6233 H 0.27521 0.09265 0.14706 0.0
H6234 H 0.32886 0.12484 0.13657 0.0
H6235 H 0.32903 0.11575 0.11929 0.0
H6236 H 0.33687 0.10695 0.13508 0.0
H6237 H 0.26943 0.12312 0.13032 0.0
H6238 H 0.26325 0.10471 0.12737 0.0
H6239 H 0.27375 0.11406 0.11355 0.0
C6240 C 0.85866 0.29906 0.15786 0.0
C6241 C 0.87383 0.29882 0.1561 0.0
C6242 C 0.84941 0.30081 0.14586 0.0
C6243 C 0.85549 0.30188 0.13169 0.0
C6244 C 0.87083 0.30183 0.12984 0.0
C6245 C 0.87988 0.30051 0.14216 0.0
C6246 C 0.83311 0.30119 0.14834 0.0
C6247 C 0.87765 0.30259 0.11486 0.0
C6248 C 0.82773 0.28901 0.10431 0.0
C6249 C 0.82174 0.30226 0.09964 0.0
C6250 C 0.83976 0.28875 0.1137 0.0
C6251 C 0.84555 0.30209 0.11893 0.0
C6252 C 0.8401 0.31551 0.11354 0.0
C6253 C 0.82832 0.31543 0.10374 0.0
C6254 C 0.84556 0.27421 0.11886 0.0
C6255 C 0.84579 0.32995 0.11907 0.0
H6256 H 0.85402 0.29796 0.1687 0.0
H6257 H 0.89163 0.30028 0.14084 0.0
H6258 H 0.82826 0.31087 0.14291 0.0
H6259 H 0.828 0.29135 0.14347 0.0
H6260 H 0.83025 0.30153 0.16012 0.0
H6261 H 0.88972 0.30365 0.11537 0.0
H6262 H 0.87492 0.29253 0.10869 0.0
H6263 H 0.87317 0.31195 0.10862 0.0
H6264 H 0.82269 0.27883 0.10095 0.0
H6265 H 0.82361 0.32567 0.10013 0.0
H6266 H 0.84198 0.27225 0.13027 0.0
H6267 H 0.85767 0.27417 0.11878 0.0
H6268 H 0.84158 0.26504 0.11199 0.0
H6269 H 0.84183 0.33171 0.13038 0.0
H6270 H 0.84206 0.33923 0.11221 0.0
H6271 H 0.85789 0.32997 0.11942 0.0
C6272 C 0.71405 0.87694 0.15606 0.0
C6273 C 0.70147 0.88339 0.16187 0.0
C6274 C 0.7131 0.86702 0.14444 0.0
C6275 C 0.6992 0.86312 0.13892 0.0
C6276 C 0.68653 0.87011 0.14433 0.0
C6277 C 0.68785 0.88035 0.15562 0.0
C6278 C 0.72689 0.86014 0.13862 0.0
C6279 C 0.67148 0.86598 0.13901 0.0
C6280 C 0.6957 0.84028 0.10445 0.0
C6281 C 0.69523 0.82616 0.1103 0.0
C6282 C 0.69723 0.85249 0.1136 0.0
C6283 C 0.69778 0.85047 0.12891 0.0
C6284 C 0.69699 0.83622 0.13484 0.0
C6285 C 0.69596 0.82423 0.12544 0.0
C6286 C 0.69849 0.8675 0.10691 0.0
C6287 C 0.69712 0.83362 0.15113 0.0
H6288 H 0.7246 0.87941 0.16081 0.0
H6289 H 0.6781 0.88527 0.16019 0.0
H6290 H 0.72756 0.84863 0.14233 0.0
H6291 H 0.72682 0.86006 0.12651 0.0
H6292 H 0.73683 0.86596 0.14244 0.0
H6293 H 0.66291 0.87344 0.14324 0.0
H6294 H 0.67105 0.86604 0.12691 0.0
H6295 H 0.6689 0.85471 0.14264 0.0
H6296 H 0.69524 0.84174 0.09271 0.0
H6297 H 0.69544 0.8133 0.12997 0.0
H6298 H 0.70894 0.87261 0.11027 0.0
H6299 H 0.68957 0.87462 0.11094 0.0
H6300 H 0.69804 0.86719 0.09479 0.0
H6301 H 0.70761 0.83742 0.15583 0.0
H6302 H 0.69568 0.82191 0.15395 0.0
H6303 H 0.68827 0.83998 0.15642 0.0
C6304 C 0.14736 0.68198 0.09742 0.0
C6305 C 0.16096 0.6841 0.10409 0.0
C6306 C 0.13442 0.68283 0.10562 0.0
C6307 C 0.13526 0.68535 0.12085 0.0
C6308 C 0.14903 0.68716 0.12762 0.0
C6309 C 0.16169 0.68675 0.11911 0.0
C6310 C 0.1199 0.6813 0.098 0.0
C6311 C 0.15043 0.68949 0.1439 0.0
C6312 C 0.10593 0.70115 0.145 0.0
C6313 C 0.10107 0.68864 0.15232 0.0
C6314 C 0.11609 0.70009 0.13362 0.0
C6315 C 0.12187 0.68624 0.12991 0.0
C6316 C 0.1163 0.67351 0.13666 0.0
C6317 C 0.10576 0.67486 0.14767 0.0
C6318 C 0.12142 0.71387 0.12633 0.0
C6319 C 0.12241 0.65858 0.13326 0.0
H6320 H 0.14683 0.68002 0.08576 0.0
H6321 H 0.17224 0.68824 0.12427 0.0
H6322 H 0.11358 0.67217 0.10283 0.0
H6323 H 0.11338 0.69139 0.09959 0.0
H6324 H 0.12114 0.67931 0.0861 0.0
H6325 H 0.162 0.68987 0.14753 0.0
H6326 H 0.1451 0.69989 0.14705 0.0
H6327 H 0.14481 0.68057 0.14987 0.0
H6328 H 0.10216 0.7118 0.14852 0.0
H6329 H 0.10205 0.66519 0.1534 0.0
H6330 H 0.12232 0.7123 0.11436 0.0
H6331 H 0.13244 0.71664 0.1305 0.0
H6332 H 0.11406 0.72326 0.1285 0.0
H6333 H 0.12333 0.65691 0.12131 0.0
H6334 H 0.1156 0.6497 0.13793 0.0
H6335 H 0.13357 0.65769 0.13791 0.0
C6336 C 0.31667 0.87734 0.83421 0.0
C6337 C 0.30307 0.88246 0.82943 0.0
C6338 C 0.31761 0.867 0.84546 0.0
C6339 C 0.30466 0.86203 0.85228 0.0
C6340 C 0.29105 0.86827 0.84843 0.0
C6341 C 0.2904 0.87825 0.83686 0.0
C6342 C 0.33229 0.86043 0.84906 0.0
C6343 C 0.27706 0.86358 0.85575 0.0
C6344 C 0.30222 0.82245 0.86364 0.0
C6345 C 0.30447 0.8233 0.87872 0.0
C6346 C 0.30266 0.83497 0.85492 0.0
C6347 C 0.30499 0.84875 0.86153 0.0
C6348 C 0.30725 0.8497 0.87678 0.0
C6349 C 0.30718 0.83689 0.88521 0.0
C6350 C 0.30054 0.83343 0.83863 0.0
C6351 C 0.30938 0.86425 0.88421 0.0
H6352 H 0.32648 0.88056 0.82842 0.0
H6353 H 0.27989 0.88236 0.83327 0.0
H6354 H 0.3338 0.85954 0.86103 0.0
H6355 H 0.33286 0.84922 0.84449 0.0
H6356 H 0.34143 0.86692 0.84443 0.0
H6357 H 0.26794 0.87121 0.85338 0.0
H6358 H 0.27393 0.85257 0.85179 0.0
H6359 H 0.27854 0.86286 0.86775 0.0
H6360 H 0.30029 0.81191 0.8586 0.0
H6361 H 0.30884 0.83753 0.89691 0.0
H6362 H 0.30976 0.83861 0.83272 0.0
H6363 H 0.29041 0.83913 0.83524 0.0
H6364 H 0.29975 0.82184 0.83515 0.0
H6365 H 0.31864 0.87022 0.87918 0.0
H6366 H 0.31149 0.86308 0.89609 0.0
H6367 H 0.29949 0.87108 0.88268 0.0
C6368 C 0.15203 0.29608 0.87578 0.0
C6369 C 0.15542 0.30433 0.88822 0.0
C6370 C 0.13937 0.2989 0.86769 0.0
C6371 C 0.12982 0.31017 0.87221 0.0
C6372 C 0.13271 0.31796 0.88522 0.0
C6373 C 0.14551 0.31497 0.89307 0.0
C6374 C 0.13664 0.29034 0.85386 0.0
C6375 C 0.12267 0.32993 0.89046 0.0
C6376 C 0.10946 0.32821 0.84119 0.0
C6377 C 0.09602 0.32092 0.84162 0.0
C6378 C 0.12035 0.3252 0.85147 0.0
C6379 C 0.1177 0.31471 0.86249 0.0
C6380 C 0.10389 0.30784 0.86345 0.0
C6381 C 0.0932 0.311 0.85294 0.0
C6382 C 0.13495 0.33275 0.85009 0.0
C6383 C 0.10065 0.29672 0.87516 0.0
H6384 H 0.15955 0.28778 0.872 0.0
H6385 H 0.14798 0.32132 0.90275 0.0
H6386 H 0.12539 0.28587 0.85382 0.0
H6387 H 0.13764 0.29769 0.84428 0.0
H6388 H 0.14446 0.28118 0.85251 0.0
H6389 H 0.12544 0.33364 0.90167 0.0
H6390 H 0.12346 0.33943 0.88298 0.0
H6391 H 0.11116 0.32618 0.89032 0.0
H6392 H 0.11168 0.33592 0.8325 0.0
H6393 H 0.0828 0.30538 0.85336 0.0
H6394 H 0.14351 0.3246 0.84745 0.0
H6395 H 0.13801 0.33792 0.8606 0.0
H6396 H 0.13494 0.34126 0.84145 0.0
H6397 H 0.1072 0.28672 0.87319 0.0
H6398 H 0.08892 0.29364 0.87542 0.0
H6399 H 0.1038 0.30099 0.88605 0.0
C6400 C 0.67793 0.14735 0.88701 0.0
C6401 C 0.67975 0.16091 0.88018 0.0
C6402 C 0.6785 0.13436 0.87886 0.0
C6403 C 0.68054 0.1351 0.86355 0.0
C6404 C 0.6816 0.14886 0.85658 0.0
C6405 C 0.68141 0.16158 0.86501 0.0
C6406 C 0.67764 0.11988 0.88668 0.0
C6407 C 0.6834 0.15017 0.84023 0.0
C6408 C 0.69914 0.10717 0.83987 0.0
C6409 C 0.68727 0.10139 0.83219 0.0
C6410 C 0.69698 0.11711 0.85128 0.0
C6411 C 0.68263 0.12169 0.85472 0.0
C6412 C 0.67055 0.11502 0.84774 0.0
C6413 C 0.67303 0.10477 0.83663 0.0
C6414 C 0.71013 0.12363 0.85878 0.0
C6415 C 0.6551 0.11974 0.85096 0.0
H6416 H 0.67673 0.14686 0.89877 0.0
H6417 H 0.68264 0.17211 0.85973 0.0
H6418 H 0.66977 0.11251 0.88118 0.0
H6419 H 0.68847 0.11449 0.88632 0.0
H6420 H 0.67435 0.12116 0.89828 0.0
H6421 H 0.68271 0.16166 0.83643 0.0
H6422 H 0.69417 0.1457 0.83695 0.0
H6423 H 0.67488 0.1437 0.83454 0.0
H6424 H 0.71015 0.10441 0.83652 0.0
H6425 H 0.66384 0.10032 0.83064 0.0
H6426 H 0.70833 0.12431 0.87073 0.0
H6427 H 0.71193 0.13489 0.85469 0.0
H6428 H 0.72018 0.11717 0.8567 0.0
H6429 H 0.65333 0.121 0.86286 0.0
H6430 H 0.64697 0.11186 0.8466 0.0
H6431 H 0.65308 0.13052 0.84582 0.0
C6432 C 0.86837 0.67457 0.8245 0.0
C6433 C 0.88356 0.67369 0.8259 0.0
C6434 C 0.85934 0.67476 0.83681 0.0
C6435 C 0.86569 0.67439 0.85089 0.0
C6436 C 0.88102 0.67305 0.8524 0.0
C6437 C 0.8898 0.67256 0.83982 0.0
C6438 C 0.84301 0.67585 0.8347 0.0
C6439 C 0.88816 0.67285 0.86724 0.0
C6440 C 0.84038 0.69282 0.87756 0.0
C6441 C 0.83291 0.68084 0.88342 0.0
C6442 C 0.85209 0.69082 0.86794 0.0
C6443 C 0.85616 0.67649 0.86382 0.0
C6444 C 0.84934 0.66434 0.8705 0.0
C6445 C 0.83785 0.66667 0.88037 0.0
C6446 C 0.85934 0.70407 0.86133 0.0
C6447 C 0.85326 0.64891 0.86629 0.0
H6448 H 0.86352 0.67526 0.81372 0.0
H6449 H 0.90157 0.67194 0.8409 0.0
H6450 H 0.83737 0.66724 0.84109 0.0
H6451 H 0.83909 0.68656 0.83876 0.0
H6452 H 0.83979 0.67476 0.82306 0.0
H6453 H 0.89995 0.67009 0.86659 0.0
H6454 H 0.88704 0.68376 0.87238 0.0
H6455 H 0.88268 0.66487 0.87451 0.0
H6456 H 0.83671 0.70379 0.88008 0.0
H6457 H 0.83208 0.65737 0.88488 0.0
H6458 H 0.85575 0.70531 0.84983 0.0
H6459 H 0.87138 0.70275 0.86127 0.0
H6460 H 0.85656 0.71424 0.86732 0.0
H6461 H 0.84875 0.64651 0.8553 0.0
H6462 H 0.84877 0.6408 0.87411 0.0
H6463 H 0.86526 0.64751 0.86567 0.0
C6464 C 0.1572 0.29425 0.12402 0.0
C6465 C 0.15995 0.30154 0.11085 0.0
C6466 C 0.14449 0.29706 0.13204 0.0
C6467 C 0.13429 0.30738 0.12672 0.0
C6468 C 0.13668 0.31432 0.11315 0.0
C6469 C 0.1495 0.31133 0.10537 0.0
C6470 C 0.14225 0.28942 0.14648 0.0
C6471 C 0.12598 0.32533 0.10713 0.0
C6472 C 0.09716 0.30713 0.14494 0.0
C6473 C 0.09898 0.31797 0.15559 0.0
C6474 C 0.10839 0.30388 0.13507 0.0
C6475 C 0.1217 0.31166 0.13593 0.0
C6476 C 0.12335 0.32304 0.14623 0.0
C6477 C 0.11195 0.32607 0.15594 0.0
C6478 C 0.10625 0.29173 0.12413 0.0
C6479 C 0.13739 0.33162 0.14742 0.0
H6480 H 0.16517 0.28663 0.1283 0.0
H6481 H 0.15148 0.31694 0.09514 0.0
H6482 H 0.14256 0.29753 0.15546 0.0
H6483 H 0.13137 0.28411 0.14677 0.0
H6484 H 0.15072 0.281 0.14859 0.0
H6485 H 0.12879 0.32875 0.09584 0.0
H6486 H 0.11477 0.32075 0.10713 0.0
H6487 H 0.12586 0.33515 0.1142 0.0
H6488 H 0.08713 0.30085 0.14462 0.0
H6489 H 0.1134 0.3345 0.16412 0.0
H6490 H 0.11359 0.28249 0.12685 0.0
H6491 H 0.10918 0.29551 0.11301 0.0
H6492 H 0.09483 0.28766 0.12399 0.0
H6493 H 0.14638 0.32426 0.15083 0.0
H6494 H 0.13658 0.34068 0.15544 0.0
H6495 H 0.1404 0.33625 0.13665 0.0
C6496 C 0.15603 0.71172 0.88054 0.0
C6497 C 0.16145 0.69813 0.88496 0.0
C6498 C 0.1448 0.71268 0.87019 0.0
C6499 C 0.13933 0.69974 0.86376 0.0
C6500 C 0.14432 0.68596 0.86869 0.0
C6501 C 0.15519 0.68533 0.87944 0.0
C6502 C 0.13938 0.72754 0.86558 0.0
C6503 C 0.13904 0.67194 0.86182 0.0
C6504 C 0.10591 0.69973 0.83923 0.0
C6505 C 0.11236 0.70118 0.82544 0.0
C6506 C 0.1145 0.69973 0.85192 0.0
C6507 C 0.12987 0.70064 0.85066 0.0
C6508 C 0.1364 0.70206 0.83672 0.0
C6509 C 0.12753 0.70256 0.8243 0.0
C6510 C 0.10717 0.69871 0.86664 0.0
C6511 C 0.15278 0.70268 0.83488 0.0
H6512 H 0.16081 0.72161 0.88494 0.0
H6513 H 0.15947 0.67482 0.88281 0.0
H6514 H 0.14365 0.73018 0.85457 0.0
H6515 H 0.12728 0.72763 0.86491 0.0
H6516 H 0.14294 0.73624 0.87324 0.0
H6517 H 0.14303 0.66214 0.86776 0.0
H6518 H 0.12695 0.67162 0.8615 0.0
H6519 H 0.14297 0.67135 0.85037 0.0
H6520 H 0.09414 0.69875 0.84008 0.0
H6521 H 0.13252 0.70352 0.81361 0.0
H6522 H 0.11082 0.70783 0.87373 0.0
H6523 H 0.11035 0.68841 0.87214 0.0
H6524 H 0.09507 0.69905 0.86578 0.0
H6525 H 0.15725 0.7123 0.84071 0.0
H6526 H 0.1561 0.70336 0.82324 0.0
H6527 H 0.15785 0.69281 0.83976 0.0
C6528 C 0.30212 0.14739 0.88576 0.0
C6529 C 0.30042 0.16052 0.87809 0.0
C6530 C 0.30193 0.13394 0.87839 0.0
C6531 C 0.30044 0.13376 0.86302 0.0
C6532 C 0.29907 0.14705 0.85524 0.0
C6533 C 0.29887 0.16026 0.8629 0.0
C6534 C 0.30303 0.11996 0.88704 0.0
C6535 C 0.2978 0.14735 0.83879 0.0
C6536 C 0.31262 0.1027 0.83883 0.0
C6537 C 0.29915 0.09762 0.83366 0.0
C6538 C 0.31327 0.11389 0.84925 0.0
C6539 C 0.30014 0.1198 0.85484 0.0
C6540 C 0.28657 0.11366 0.85072 0.0
C6541 C 0.28622 0.10277 0.83998 0.0
C6542 C 0.32795 0.12029 0.85316 0.0
C6543 C 0.27235 0.11936 0.8568 0.0
H6544 H 0.30321 0.14761 0.89754 0.0
H6545 H 0.29769 0.17043 0.85696 0.0
H6546 H 0.29303 0.11334 0.88537 0.0
H6547 H 0.31238 0.11334 0.88314 0.0
H6548 H 0.3044 0.122 0.89892 0.0
H6549 H 0.29759 0.15865 0.83438 0.0
H6550 H 0.30713 0.14145 0.8338 0.0
H6551 H 0.28767 0.1417 0.83534 0.0
H6552 H 0.32264 0.09876 0.83391 0.0
H6553 H 0.2758 0.09872 0.83611 0.0
H6554 H 0.32884 0.12208 0.86509 0.0
H6555 H 0.32915 0.13108 0.84778 0.0
H6556 H 0.33711 0.11319 0.84959 0.0
H6557 H 0.27319 0.12105 0.86876 0.0
H6558 H 0.26313 0.11182 0.85455 0.0
H6559 H 0.26982 0.13008 0.85176 0.0
C6560 C 0.88217 0.29823 0.83894 0.0
C6561 C 0.87595 0.29569 0.82519 0.0
C6562 C 0.87355 0.29774 0.85161 0.0
C6563 C 0.85836 0.29519 0.85034 0.0
C6564 C 0.85208 0.29272 0.83644 0.0
C6565 C 0.86101 0.29276 0.82407 0.0
C6566 C 0.88065 0.29992 0.86632 0.0
C6567 C 0.83586 0.29032 0.83456 0.0
C6568 C 0.83248 0.28194 0.87941 0.0
C6569 C 0.8252 0.2949 0.88296 0.0
C6570 C 0.84442 0.28207 0.86986 0.0
C6571 C 0.84875 0.29539 0.86335 0.0
C6572 C 0.84203 0.30863 0.86767 0.0
C6573 C 0.83044 0.30823 0.87763 0.0
C6574 C 0.85168 0.26781 0.86592 0.0
C6575 C 0.84608 0.32302 0.86072 0.0
H6576 H 0.89377 0.30041 0.83977 0.0
H6577 H 0.85619 0.29095 0.81341 0.0
H6578 H 0.87626 0.30989 0.87159 0.0
H6579 H 0.87805 0.29059 0.87359 0.0
H6580 H 0.8927 0.30098 0.86548 0.0
H6581 H 0.83269 0.2891 0.82292 0.0
H6582 H 0.83243 0.28036 0.84052 0.0
H6583 H 0.82973 0.29966 0.83925 0.0
H6584 H 0.82851 0.27165 0.8837 0.0
H6585 H 0.82476 0.31825 0.88036 0.0
H6586 H 0.86371 0.26913 0.86537 0.0
H6587 H 0.84789 0.26424 0.85499 0.0
H6588 H 0.84906 0.25906 0.8739 0.0
H6589 H 0.85809 0.32442 0.8604 0.0
H6590 H 0.84121 0.33244 0.8666 0.0
H6591 H 0.8421 0.32319 0.84928 0.0
C6592 C 0.67228 0.87789 0.83406 0.0
C6593 C 0.68598 0.8822 0.82881 0.0
C6594 C 0.6711 0.86752 0.84527 0.0
C6595 C 0.68396 0.86162 0.8515 0.0
C6596 C 0.69778 0.86697 0.84714 0.0
C6597 C 0.69863 0.87708 0.8357 0.0
C6598 C 0.65618 0.86196 0.84949 0.0
C6599 C 0.71172 0.86122 0.85379 0.0
C6600 C 0.6821 0.83657 0.88454 0.0
C6601 C 0.68378 0.82288 0.87792 0.0
C6602 C 0.68194 0.84938 0.8761 0.0
C6603 C 0.68314 0.84834 0.86073 0.0
C6604 C 0.68427 0.83447 0.85401 0.0
C6605 C 0.68475 0.82193 0.8627 0.0
C6606 C 0.68099 0.86401 0.88363 0.0
C6607 C 0.68526 0.83286 0.83761 0.0
H6608 H 0.66247 0.88183 0.82873 0.0
H6609 H 0.70924 0.88057 0.83178 0.0
H6610 H 0.65458 0.85089 0.84483 0.0
H6611 H 0.65517 0.86102 0.86151 0.0
H6612 H 0.64733 0.86916 0.84537 0.0
H6613 H 0.72129 0.86811 0.85093 0.0
H6614 H 0.71078 0.86066 0.86585 0.0
H6615 H 0.71378 0.84999 0.84976 0.0
H6616 H 0.68141 0.8373 0.89633 0.0
H6617 H 0.68587 0.81133 0.85756 0.0
H6618 H 0.67211 0.87068 0.87881 0.0
H6619 H 0.69133 0.87008 0.88196 0.0
H6620 H 0.67903 0.86291 0.89554 0.0
H6621 H 0.67607 0.83867 0.83228 0.0
H6622 H 0.68506 0.82126 0.8341 0.0
H6623 H 0.69553 0.83789 0.83362 0.0
C6624 C 0.83632 0.69913 0.11111 0.0
C6625 C 0.82959 0.68659 0.10558 0.0
C6626 C 0.84796 0.69805 0.12097 0.0
C6627 C 0.85256 0.6841 0.12576 0.0
C6628 C 0.8464 0.67139 0.11948 0.0
C6629 C 0.83509 0.6728 0.10926 0.0
C6630 C 0.85458 0.71186 0.12706 0.0
C6631 C 0.85078 0.65632 0.12452 0.0
C6632 C 0.88571 0.68136 0.15061 0.0
C6633 C 0.87913 0.68277 0.16433 0.0
C6634 C 0.87723 0.68167 0.13782 0.0
C6635 C 0.86186 0.68293 0.13896 0.0
C6636 C 0.8552 0.68372 0.15288 0.0
C6637 C 0.86394 0.68389 0.16538 0.0
C6638 C 0.88471 0.68122 0.12316 0.0
C6639 C 0.83881 0.68465 0.1546 0.0
H6640 H 0.83215 0.7098 0.10811 0.0
H6641 H 0.82981 0.6631 0.105 0.0
H6642 H 0.85056 0.71363 0.13835 0.0
H6643 H 0.86664 0.71095 0.12757 0.0
H6644 H 0.85167 0.72159 0.12042 0.0
H6645 H 0.84666 0.64767 0.11708 0.0
H6646 H 0.86281 0.65536 0.12535 0.0
H6647 H 0.84621 0.65434 0.13557 0.0
H6648 H 0.8975 0.68058 0.14987 0.0
H6649 H 0.85889 0.6848 0.17605 0.0
H6650 H 0.88305 0.69179 0.11746 0.0
H6651 H 0.87985 0.67261 0.11618 0.0
H6652 H 0.89662 0.67919 0.12415 0.0
H6653 H 0.8348 0.69513 0.15004 0.0
H6654 H 0.83535 0.68396 0.1662 0.0
H6655 H 0.83344 0.67571 0.14844 0.0
C6656 C 0.27953 0.83218 0.11092 0.0
C6657 C 0.29205 0.82671 0.10407 0.0
C6658 C 0.28056 0.84331 0.12136 0.0
C6659 C 0.29448 0.84869 0.12535 0.0
C6660 C 0.30706 0.84386 0.11778 0.0
C6661 C 0.30566 0.83303 0.10705 0.0
C6662 C 0.26684 0.84852 0.12885 0.0
C6663 C 0.32212 0.84911 0.12191 0.0
C6664 C 0.29724 0.88091 0.15137 0.0
C6665 C 0.29774 0.87373 0.16487 0.0
C6666 C 0.29617 0.87295 0.13831 0.0
C6667 C 0.29604 0.8575 0.13885 0.0
C6668 C 0.29702 0.85025 0.15246 0.0
C6669 C 0.29763 0.85846 0.16531 0.0
C6670 C 0.29475 0.88102 0.12402 0.0
C6671 C 0.2973 0.83378 0.15349 0.0
H6672 H 0.26899 0.82739 0.10848 0.0
H6673 H 0.31536 0.82875 0.1018 0.0
H6674 H 0.26631 0.84385 0.14002 0.0
H6675 H 0.26689 0.86059 0.12994 0.0
H6676 H 0.25685 0.84518 0.12285 0.0
H6677 H 0.33046 0.84593 0.1137 0.0
H6678 H 0.3223 0.86114 0.12319 0.0
H6679 H 0.32524 0.84429 0.13258 0.0
H6680 H 0.29724 0.89274 0.15107 0.0
H6681 H 0.29818 0.85291 0.17576 0.0
H6682 H 0.28403 0.87848 0.11898 0.0
H6683 H 0.30329 0.87737 0.11626 0.0
H6684 H 0.29562 0.89303 0.12542 0.0
H6685 H 0.28682 0.82924 0.1495 0.0
H6686 H 0.29909 0.8299 0.16484 0.0
H6687 H 0.3061 0.82932 0.14646 0.0
C6688 C 0.67998 0.14916 0.10366 0.0
C6689 C 0.69361 0.155 0.09987 0.0
C6690 C 0.67867 0.13906 0.11508 0.0
C6691 C 0.69134 0.13449 0.12263 0.0
C6692 C 0.70526 0.13924 0.11787 0.0
C6693 C 0.70622 0.1496 0.10664 0.0
C6694 C 0.66362 0.1344 0.11993 0.0
C6695 C 0.71906 0.13428 0.12538 0.0
C6696 C 0.68868 0.12771 0.16327 0.0
C6697 C 0.68834 0.11245 0.16396 0.0
C6698 C 0.68928 0.13496 0.14984 0.0
C6699 C 0.68993 0.12672 0.13678 0.0
C6700 C 0.68949 0.11129 0.13737 0.0
C6701 C 0.68851 0.10431 0.15099 0.0
C6702 C 0.68938 0.15145 0.14967 0.0
C6703 C 0.69047 0.10218 0.12368 0.0
H6704 H 0.67018 0.15329 0.09847 0.0
H6705 H 0.7168 0.15395 0.10361 0.0
H6706 H 0.66327 0.1225 0.1221 0.0
H6707 H 0.66083 0.14006 0.13027 0.0
H6708 H 0.65514 0.13711 0.11168 0.0
H6709 H 0.72895 0.13694 0.11889 0.0
H6710 H 0.71998 0.13975 0.13615 0.0
H6711 H 0.71878 0.12233 0.12737 0.0
H6712 H 0.68843 0.13401 0.17329 0.0
H6713 H 0.68837 0.09249 0.15153 0.0
H6714 H 0.68048 0.15559 0.14257 0.0
H6715 H 0.69984 0.15545 0.14506 0.0
H6716 H 0.68801 0.15619 0.16074 0.0
H6717 H 0.6819 0.10549 0.11579 0.0
H6718 H 0.6893 0.09032 0.12595 0.0
H6719 H 0.70117 0.10405 0.11832 0.0
C6720 C 0.62609 0.66348 0.79274 0.0
C6721 C 0.61085 0.66269 0.79346 0.0
C6722 C 0.63463 0.65082 0.79308 0.0
C6723 C 0.62772 0.63701 0.79377 0.0
C6724 C 0.61231 0.63611 0.79434 0.0
C6725 C 0.60403 0.64902 0.79438 0.0
C6726 C 0.65106 0.65225 0.79278 0.0
C6727 C 0.6046 0.62155 0.79471 0.0
C6728 C 0.65317 0.60745 0.78048 0.0
C6729 C 0.6589 0.60227 0.79367 0.0
C6730 C 0.64202 0.61793 0.78036 0.0
C6731 C 0.63684 0.62362 0.79375 0.0
C6732 C 0.64197 0.61777 0.80711 0.0
C6733 C 0.65285 0.607 0.8069 0.0
C6734 C 0.6365 0.62359 0.7659 0.0
C6735 C 0.63691 0.62373 0.82161 0.0
H6736 H 0.63139 0.67405 0.79218 0.0
H6737 H 0.59222 0.64841 0.79486 0.0
H6738 H 0.65589 0.64658 0.80234 0.0
H6739 H 0.65548 0.64696 0.78283 0.0
H6740 H 0.65469 0.66382 0.79291 0.0
H6741 H 0.59254 0.62275 0.79511 0.0
H6742 H 0.60754 0.61512 0.78488 0.0
H6743 H 0.60819 0.61518 0.80435 0.0
H6744 H 0.65774 0.60367 0.77024 0.0
H6745 H 0.65732 0.60304 0.81712 0.0
H6746 H 0.64095 0.63468 0.76394 0.0
H6747 H 0.62442 0.62447 0.76599 0.0
H6748 H 0.63983 0.61646 0.75667 0.0
H6749 H 0.64142 0.63488 0.82314 0.0
H6750 H 0.64054 0.61683 0.8309 0.0
H6751 H 0.62485 0.62464 0.82192 0.0
C6752 C 0.33492 0.60174 0.79624 0.0
C6753 C 0.32182 0.60937 0.79416 0.0
C6754 C 0.34835 0.60913 0.79652 0.0
C6755 C 0.34854 0.62451 0.79514 0.0
C6756 C 0.33531 0.63225 0.79312 0.0
C6757 C 0.32213 0.62455 0.79243 0.0
C6758 C 0.36228 0.60051 0.79823 0.0
C6759 C 0.33503 0.6487 0.79193 0.0
C6760 C 0.37919 0.6479 0.8099 0.0
C6761 C 0.38539 0.6531 0.79693 0.0
C6762 C 0.36761 0.6379 0.80955 0.0
C6763 C 0.36248 0.63272 0.79592 0.0
C6764 C 0.3696 0.63697 0.78289 0.0
C6765 C 0.38083 0.64732 0.78353 0.0
C6766 C 0.3601 0.63388 0.82366 0.0
C6767 C 0.36475 0.63131 0.76819 0.0
H6768 H 0.33468 0.58997 0.79749 0.0
H6769 H 0.31199 0.63047 0.79096 0.0
H6770 H 0.36979 0.60294 0.78905 0.0
H6771 H 0.36794 0.60377 0.80843 0.0
H6772 H 0.36028 0.58855 0.79858 0.0
H6773 H 0.32376 0.65307 0.79089 0.0
H6774 H 0.34019 0.65364 0.80171 0.0
H6775 H 0.34142 0.65226 0.78228 0.0
H6776 H 0.38266 0.65247 0.82026 0.0
H6777 H 0.38574 0.65128 0.77351 0.0
H6778 H 0.35845 0.62191 0.82437 0.0
H6779 H 0.34916 0.63907 0.82399 0.0
H6780 H 0.36638 0.63752 0.83338 0.0
H6781 H 0.36293 0.61934 0.76862 0.0
H6782 H 0.37286 0.63372 0.7595 0.0
H6783 H 0.35424 0.63648 0.76513 0.0
C6784 C 0.38375 0.34004 0.81897 0.0
C6785 C 0.38766 0.33504 0.80507 0.0
C6786 C 0.37348 0.3513 0.82058 0.0
C6787 C 0.36735 0.3578 0.80797 0.0
C6788 C 0.37244 0.35375 0.79396 0.0
C6789 C 0.38239 0.34223 0.79267 0.0
C6790 C 0.3682 0.3552 0.83569 0.0
C6791 C 0.36648 0.3607 0.78026 0.0
C6792 C 0.32752 0.36815 0.80699 0.0
C6793 C 0.32817 0.38339 0.80785 0.0
C6794 C 0.3402 0.35972 0.80781 0.0
C6795 C 0.35391 0.36673 0.80913 0.0
C6796 C 0.35462 0.38212 0.8104 0.0
C6797 C 0.34165 0.3903 0.80992 0.0
C6798 C 0.33893 0.3433 0.80677 0.0
C6799 C 0.36906 0.38995 0.81154 0.0
H6800 H 0.38784 0.33444 0.82856 0.0
H6801 H 0.38561 0.33846 0.78192 0.0
H6802 H 0.36692 0.36718 0.83688 0.0
H6803 H 0.35733 0.35018 0.83752 0.0
H6804 H 0.37575 0.35119 0.84429 0.0
H6805 H 0.37328 0.35815 0.77055 0.0
H6806 H 0.35526 0.35661 0.77822 0.0
H6807 H 0.36582 0.37273 0.7815 0.0
H6808 H 0.31705 0.36281 0.80561 0.0
H6809 H 0.34211 0.40211 0.81055 0.0
H6810 H 0.345 0.33803 0.81582 0.0
H6811 H 0.34383 0.33948 0.79638 0.0
H6812 H 0.3274 0.33954 0.80715 0.0
H6813 H 0.37606 0.38481 0.81998 0.0
H6814 H 0.36768 0.4017 0.81423 0.0
H6815 H 0.37494 0.38909 0.80098 0.0
C6816 C 0.62426 0.33331 0.78662 0.0
C6817 C 0.60924 0.33325 0.78947 0.0
C6818 C 0.63243 0.34614 0.78793 0.0
C6819 C 0.62533 0.35932 0.79178 0.0
C6820 C 0.61005 0.35948 0.79405 0.0
C6821 C 0.6022 0.34635 0.7931 0.0
C6822 C 0.64876 0.34546 0.78567 0.0
C6823 C 0.60208 0.37342 0.7977 0.0
C6824 C 0.65139 0.3861 0.8091 0.0
C6825 C 0.65666 0.39338 0.79674 0.0
C6826 C 0.64034 0.37559 0.80784 0.0
C6827 C 0.63421 0.37268 0.79395 0.0
C6828 C 0.63846 0.38112 0.78173 0.0
C6829 C 0.64985 0.39122 0.78322 0.0
C6830 C 0.6363 0.36665 0.82108 0.0
C6831 C 0.6318 0.37869 0.76686 0.0
H6832 H 0.62976 0.32318 0.78393 0.0
H6833 H 0.59055 0.34632 0.79522 0.0
H6834 H 0.65204 0.35294 0.77674 0.0
H6835 H 0.65446 0.3491 0.79573 0.0
H6836 H 0.65259 0.33428 0.78292 0.0
H6837 H 0.59004 0.37196 0.79763 0.0
H6838 H 0.60542 0.37729 0.80867 0.0
H6839 H 0.60501 0.38212 0.78979 0.0
H6840 H 0.6567 0.38773 0.81955 0.0
H6841 H 0.65382 0.39701 0.77369 0.0
H6842 H 0.64079 0.35546 0.81987 0.0
H6843 H 0.62429 0.36564 0.82208 0.0
H6844 H 0.64067 0.37144 0.83133 0.0
H6845 H 0.63634 0.36857 0.76201 0.0
H6846 H 0.63415 0.3879 0.75932 0.0
H6847 H 0.6198 0.37729 0.7677 0.0
C6848 C 0.65189 0.37953 0.19352 0.0
C6849 C 0.66625 0.37428 0.19312 0.0
C6850 C 0.64001 0.36982 0.19374 0.0
C6851 C 0.64266 0.3546 0.19313 0.0
C6852 C 0.65715 0.34932 0.19223 0.0
C6853 C 0.66876 0.35922 0.19244 0.0
C6854 C 0.62472 0.37578 0.19504 0.0
C6855 C 0.66043 0.33318 0.1912 0.0
C6856 C 0.61778 0.32528 0.2079 0.0
C6857 C 0.61182 0.31959 0.19503 0.0
C6858 C 0.6269 0.33755 0.20756 0.0
C6859 C 0.63047 0.34396 0.19396 0.0
C6860 C 0.62386 0.33873 0.18101 0.0
C6861 C 0.61444 0.32668 0.18173 0.0
C6862 C 0.63342 0.34307 0.22166 0.0
C6863 C 0.62762 0.34509 0.16628 0.0
H6864 H 0.64997 0.3912 0.1941 0.0
H6865 H 0.67987 0.35516 0.19193 0.0
H6866 H 0.61776 0.37152 0.1861 0.0
H6867 H 0.6198 0.37207 0.20547 0.0
H6868 H 0.62447 0.3879 0.19474 0.0
H6869 H 0.67225 0.33097 0.18959 0.0
H6870 H 0.65686 0.32761 0.20134 0.0
H6871 H 0.65429 0.32826 0.182 0.0
H6872 H 0.61558 0.31991 0.21822 0.0
H6873 H 0.60985 0.32226 0.17175 0.0
H6874 H 0.63277 0.35515 0.22219 0.0
H6875 H 0.64513 0.34003 0.22217 0.0
H6876 H 0.62784 0.33843 0.23137 0.0
H6877 H 0.62718 0.35718 0.16657 0.0
H6878 H 0.62017 0.34112 0.15757 0.0
H6879 H 0.63895 0.34196 0.16334 0.0
C6880 C 0.60309 0.65308 0.18395 0.0
C6881 C 0.60958 0.66689 0.18503 0.0
C6882 C 0.61167 0.64036 0.18398 0.0
C6883 C 0.62706 0.6416 0.18471 0.0
C6884 C 0.63364 0.65558 0.18524 0.0
C6885 C 0.62481 0.66803 0.1856 0.0
C6886 C 0.60429 0.62563 0.18374 0.0
C6887 C 0.65003 0.65739 0.1857 0.0
C6888 C 0.6524 0.61333 0.20066 0.0
C6889 C 0.65872 0.60744 0.18806 0.0
C6890 C 0.64113 0.62361 0.1997 0.0
C6891 C 0.63643 0.62843 0.18579 0.0
C6892 C 0.64224 0.62192 0.17303 0.0
C6893 C 0.65323 0.61131 0.17433 0.0
C6894 C 0.63492 0.62998 0.21358 0.0
C6895 C 0.63773 0.62697 0.15801 0.0
H6896 H 0.59129 0.6522 0.18356 0.0
H6897 H 0.62985 0.67872 0.18624 0.0
H6898 H 0.60882 0.61878 0.17485 0.0
H6899 H 0.60645 0.61986 0.19417 0.0
H6900 H 0.59229 0.62654 0.18224 0.0
H6901 H 0.6534 0.66901 0.18491 0.0
H6902 H 0.65436 0.65285 0.19605 0.0
H6903 H 0.65517 0.65125 0.17661 0.0
H6904 H 0.65657 0.61019 0.21129 0.0
H6905 H 0.65821 0.60679 0.16458 0.0
H6906 H 0.62283 0.63047 0.213 0.0
H6907 H 0.63896 0.64131 0.21498 0.0
H6908 H 0.6381 0.62355 0.22336 0.0
H6909 H 0.62568 0.62779 0.15719 0.0
H6910 H 0.64173 0.61952 0.14931 0.0
H6911 H 0.64225 0.63802 0.15598 0.0
C6912 C 0.37809 0.65921 0.20336 0.0
C6913 C 0.38215 0.66492 0.18978 0.0
C6914 C 0.36836 0.64746 0.20432 0.0
C6915 C 0.3622 0.64168 0.19139 0.0
C6916 C 0.36686 0.64693 0.17761 0.0
C6917 C 0.37699 0.6584 0.17697 0.0
C6918 C 0.36401 0.64186 0.2192 0.0
C6919 C 0.36029 0.64127 0.16359 0.0
C6920 C 0.33915 0.60723 0.19324 0.0
C6921 C 0.32516 0.61313 0.19514 0.0
C6922 C 0.35142 0.61636 0.19209 0.0
C6923 C 0.3495 0.63169 0.19241 0.0
C6924 C 0.33534 0.63766 0.19407 0.0
C6925 C 0.32338 0.6283 0.19563 0.0
C6926 C 0.3664 0.60965 0.19075 0.0
C6927 C 0.33279 0.65397 0.19414 0.0
H6928 H 0.38223 0.6642 0.21326 0.0
H6929 H 0.38011 0.66292 0.16648 0.0
H6930 H 0.35277 0.64557 0.22178 0.0
H6931 H 0.36397 0.62975 0.21935 0.0
H6932 H 0.37144 0.64585 0.22791 0.0
H6933 H 0.36631 0.6452 0.15382 0.0
H6934 H 0.36018 0.62917 0.16349 0.0
H6935 H 0.34879 0.645 0.16277 0.0
H6936 H 0.34053 0.59548 0.1929 0.0
H6937 H 0.31254 0.63288 0.19691 0.0
H6938 H 0.37332 0.61322 0.20003 0.0
H6939 H 0.37179 0.61346 0.18061 0.0
H6940 H 0.36602 0.59753 0.19063 0.0
H6941 H 0.33838 0.65896 0.20365 0.0
H6942 H 0.32102 0.6568 0.1947 0.0
H6943 H 0.33749 0.65895 0.18415 0.0
C6944 C 0.37928 0.33618 0.15853 0.0
C6945 C 0.39313 0.33681 0.16498 0.0
C6946 C 0.36873 0.34683 0.16153 0.0
C6947 C 0.37215 0.35841 0.17116 0.0
C6948 C 0.38633 0.3595 0.17718 0.0
C6949 C 0.39667 0.34864 0.17404 0.0
C6950 C 0.35371 0.34531 0.15489 0.0
C6951 C 0.39039 0.37178 0.18739 0.0
C6952 C 0.34528 0.38986 0.1707 0.0
C6953 C 0.33593 0.38603 0.18222 0.0
C6954 C 0.35756 0.38134 0.16736 0.0
C6955 C 0.3605 0.36869 0.17571 0.0
C6956 C 0.35152 0.36516 0.18777 0.0
C6957 C 0.33936 0.3739 0.1909 0.0
C6958 C 0.36699 0.38551 0.1545 0.0
C6959 C 0.35433 0.35176 0.19696 0.0
H6960 H 0.37649 0.32709 0.15148 0.0
H6961 H 0.40739 0.3492 0.17902 0.0
H6962 H 0.34557 0.34333 0.16364 0.0
H6963 H 0.35055 0.35555 0.14926 0.0
H6964 H 0.35309 0.33617 0.14694 0.0
H6965 H 0.40225 0.37189 0.18993 0.0
H6966 H 0.38733 0.38246 0.18257 0.0
H6967 H 0.38425 0.37062 0.19776 0.0
H6968 H 0.34278 0.39928 0.16398 0.0
H6969 H 0.33227 0.37089 0.19988 0.0
H6970 H 0.36555 0.37739 0.14563 0.0
H6971 H 0.37869 0.38539 0.15762 0.0
H6972 H 0.36422 0.39648 0.15015 0.0
H6973 H 0.35271 0.34182 0.19023 0.0
H6974 H 0.34697 0.35114 0.20657 0.0
H6975 H 0.36579 0.35165 0.20085 0.0
C6976 C 0.80659 0.6574 0.60904 0.0
C6977 C 0.79328 0.66424 0.60588 0.0
C6978 C 0.80734 0.64614 0.61937 0.0
C6979 C 0.7944 0.64141 0.62637 0.0
C6980 C 0.7808 0.64755 0.62239 0.0
C6981 C 0.78042 0.65908 0.61234 0.0
C6982 C 0.82209 0.64009 0.62356 0.0
C6983 C 0.76672 0.64249 0.62931 0.0
C6984 C 0.79593 0.60684 0.64922 0.0
C6985 C 0.79673 0.61266 0.66334 0.0
C6986 C 0.79498 0.61605 0.637 0.0
C6987 C 0.79529 0.63136 0.63903 0.0
C6988 C 0.79641 0.63725 0.65327 0.0
C6989 C 0.7969 0.62781 0.66527 0.0
C6990 C 0.7934 0.60944 0.622 0.0
C6991 C 0.79715 0.65353 0.65586 0.0
H6992 H 0.81656 0.66144 0.6041 0.0
H6993 H 0.7701 0.66428 0.60977 0.0
H6994 H 0.82482 0.64361 0.63482 0.0
H6995 H 0.82191 0.62799 0.62351 0.0
H6996 H 0.83088 0.64388 0.61611 0.0
H6997 H 0.75699 0.64683 0.62353 0.0
H6998 H 0.76615 0.63039 0.62939 0.0
H6999 H 0.7663 0.64621 0.64083 0.0
H7000 H 0.7957 0.5951 0.64775 0.0
H7001 H 0.79766 0.63231 0.6762 0.0
H7002 H 0.80251 0.61302 0.61488 0.0
H7003 H 0.78312 0.61332 0.61688 0.0
H7004 H 0.79325 0.59731 0.62231 0.0
H7005 H 0.8063 0.65832 0.64953 0.0
H7006 H 0.7987 0.65627 0.66757 0.0
H7007 H 0.78695 0.65878 0.652 0.0
C7008 C 0.33865 0.79875 0.606 0.0
C7009 C 0.32504 0.79882 0.61298 0.0
C7010 C 0.35159 0.79752 0.61415 0.0
C7011 C 0.35079 0.79675 0.62956 0.0
C7012 C 0.33706 0.79741 0.63662 0.0
C7013 C 0.32434 0.79823 0.62822 0.0
C7014 C 0.36602 0.79649 0.60627 0.0
C7015 C 0.33575 0.79701 0.65306 0.0
C7016 C 0.37796 0.77883 0.65471 0.0
C7017 C 0.38463 0.79103 0.66105 0.0
C7018 C 0.36788 0.78047 0.64332 0.0
C7019 C 0.36411 0.79467 0.63853 0.0
C7020 C 0.37158 0.80694 0.6442 0.0
C7021 C 0.38192 0.80495 0.6553 0.0
C7022 C 0.36047 0.76707 0.63723 0.0
C7023 C 0.3677 0.82227 0.63955 0.0
H7024 H 0.33914 0.79912 0.59418 0.0
H7025 H 0.3138 0.79844 0.6336 0.0
H7026 H 0.37386 0.80458 0.61071 0.0
H7027 H 0.37082 0.78551 0.60805 0.0
H7028 H 0.36487 0.79832 0.59434 0.0
H7029 H 0.32434 0.79871 0.65682 0.0
H7030 H 0.33958 0.7863 0.65722 0.0
H7031 H 0.34275 0.80556 0.65802 0.0
H7032 H 0.3802 0.76804 0.65903 0.0
H7033 H 0.38705 0.81441 0.66022 0.0
H7034 H 0.35969 0.76774 0.62516 0.0
H7035 H 0.34919 0.76638 0.64158 0.0
H7036 H 0.36634 0.75689 0.64022 0.0
H7037 H 0.3666 0.82301 0.62752 0.0
H7038 H 0.37597 0.83035 0.64322 0.0
H7039 H 0.357 0.82531 0.64437 0.0
C7040 C 0.17579 0.33283 0.60821 0.0
C7041 C 0.18918 0.32742 0.60318 0.0
C7042 C 0.1753 0.34419 0.61846 0.0
C7043 C 0.18851 0.35046 0.62344 0.0
C7044 C 0.20197 0.34592 0.61735 0.0
C7045 C 0.20216 0.33428 0.60744 0.0
C7046 C 0.16076 0.34852 0.62489 0.0
C7047 C 0.21625 0.35264 0.62208 0.0
C7048 C 0.18696 0.38378 0.64817 0.0
C7049 C 0.18912 0.37733 0.66187 0.0
C7050 C 0.18684 0.37522 0.63544 0.0
C7051 C 0.18849 0.35989 0.6366 0.0
C7052 C 0.19033 0.35335 0.65048 0.0
C7053 C 0.19083 0.36218 0.66291 0.0
C7054 C 0.18524 0.38255 0.62077 0.0
C7055 C 0.19179 0.33701 0.65223 0.0
H7056 H 0.16573 0.32751 0.60494 0.0
H7057 H 0.21251 0.33021 0.60339 0.0
H7058 H 0.15995 0.34421 0.63618 0.0
H7059 H 0.15974 0.36056 0.62552 0.0
H7060 H 0.15145 0.34415 0.61845 0.0
H7061 H 0.22532 0.34976 0.61456 0.0
H7062 H 0.21532 0.36471 0.62263 0.0
H7063 H 0.2191 0.34868 0.63316 0.0
H7064 H 0.18571 0.39552 0.64738 0.0
H7065 H 0.19233 0.35717 0.67353 0.0
H7066 H 0.17571 0.37801 0.61484 0.0
H7067 H 0.19504 0.38033 0.61401 0.0
H7068 H 0.18384 0.39455 0.62176 0.0
H7069 H 0.18236 0.33142 0.64707 0.0
H7070 H 0.19237 0.33364 0.66386 0.0
H7071 H 0.2018 0.33314 0.64663 0.0
C7072 C 0.64794 0.17318 0.6026 0.0
C7073 C 0.65837 0.18309 0.60789 0.0
C7074 C 0.63514 0.17026 0.61049 0.0
C7075 C 0.63279 0.17735 0.624 0.0
C7076 C 0.64303 0.18769 0.62917 0.0
C7077 C 0.65567 0.19047 0.62103 0.0
C7078 C 0.62436 0.15927 0.60461 0.0
C7079 C 0.64091 0.19548 0.64355 0.0
C7080 C 0.59625 0.17944 0.64318 0.0
C7081 C 0.59813 0.16907 0.65429 0.0
C7082 C 0.60711 0.18167 0.63262 0.0
C7083 C 0.62014 0.1734 0.6333 0.0
C7084 C 0.6217 0.16233 0.64395 0.0
C7085 C 0.61064 0.16026 0.6543 0.0
C7086 C 0.605 0.19346 0.6213 0.0
C7087 C 0.63544 0.15327 0.64501 0.0
H7088 H 0.64989 0.16749 0.59241 0.0
H7089 H 0.66361 0.19818 0.62519 0.0
H7090 H 0.62416 0.14952 0.61179 0.0
H7091 H 0.61319 0.16394 0.60457 0.0
H7092 H 0.62713 0.15571 0.59335 0.0
H7093 H 0.64959 0.20367 0.6457 0.0
H7094 H 0.63018 0.2011 0.64371 0.0
H7095 H 0.6409 0.18743 0.6526 0.0
H7096 H 0.58655 0.18621 0.64307 0.0
H7097 H 0.61212 0.15217 0.66281 0.0
H7098 H 0.60801 0.18938 0.6103 0.0
H7099 H 0.61228 0.20281 0.6238 0.0
H7100 H 0.59357 0.19749 0.62098 0.0
H7101 H 0.63826 0.14858 0.63422 0.0
H7102 H 0.63437 0.14423 0.65302 0.0
H7103 H 0.64467 0.16033 0.64842 0.0
C7104 C 0.81737 0.34747 0.39281 0.0
C7105 C 0.82551 0.33494 0.38945 0.0
C7106 C 0.81538 0.35855 0.38245 0.0
C7107 C 0.82159 0.35696 0.36841 0.0
C7108 C 0.83058 0.34478 0.36528 0.0
C7109 C 0.83249 0.33393 0.37588 0.0
C7110 C 0.8059 0.37149 0.38624 0.0
C7111 C 0.8374 0.34272 0.35041 0.0
C7112 C 0.80193 0.37247 0.3356 0.0
C7113 C 0.81091 0.38428 0.33184 0.0
C7114 C 0.80505 0.36378 0.34778 0.0
C7115 C 0.81739 0.36706 0.35648 0.0
C7116 C 0.82609 0.37938 0.3532 0.0
C7117 C 0.82277 0.38784 0.34087 0.0
C7118 C 0.79549 0.35073 0.35096 0.0
C7119 C 0.83921 0.38329 0.36237 0.0
H7120 H 0.81206 0.34837 0.40335 0.0
H7121 H 0.83884 0.3243 0.37326 0.0
H7122 H 0.81114 0.38181 0.38267 0.0
H7123 H 0.79533 0.37059 0.3804 0.0
H7124 H 0.80366 0.37215 0.39814 0.0
H7125 H 0.84517 0.33342 0.35018 0.0
H7126 H 0.8287 0.34066 0.34223 0.0
H7127 H 0.84326 0.35276 0.34701 0.0
H7128 H 0.79271 0.36966 0.32873 0.0
H7129 H 0.82972 0.39701 0.3381 0.0
H7130 H 0.7915 0.35114 0.36238 0.0
H7131 H 0.80195 0.34055 0.34975 0.0
H7132 H 0.78592 0.3501 0.34354 0.0
H7133 H 0.83624 0.38354 0.37411 0.0
H7134 H 0.8439 0.39405 0.3593 0.0
H7135 H 0.84778 0.37484 0.36101 0.0
C7136 C 0.66167 0.79046 0.36544 0.0
C7137 C 0.65979 0.79307 0.38038 0.0
C7138 C 0.65003 0.79194 0.35569 0.0
C7139 C 0.63603 0.79565 0.36108 0.0
C7140 C 0.63392 0.79778 0.37624 0.0
C7141 C 0.64593 0.79674 0.38572 0.0
C7142 C 0.65283 0.78992 0.33955 0.0
C7143 C 0.61903 0.80124 0.38239 0.0
C7144 C 0.61164 0.81258 0.33241 0.0
C7145 C 0.60507 0.80013 0.32647 0.0
C7146 C 0.62121 0.81142 0.3443 0.0
C7147 C 0.62382 0.79755 0.35061 0.0
C7148 C 0.6162 0.78516 0.34541 0.0
C7149 C 0.60712 0.78655 0.33318 0.0
C7150 C 0.62942 0.82482 0.34926 0.0
C7151 C 0.61831 0.77029 0.35219 0.0
H7152 H 0.67243 0.7878 0.36128 0.0
H7153 H 0.64448 0.79871 0.3973 0.0
H7154 H 0.64608 0.78083 0.33527 0.0
H7155 H 0.64964 0.79994 0.33352 0.0
H7156 H 0.66447 0.78752 0.33714 0.0
H7157 H 0.61904 0.80154 0.39452 0.0
H7158 H 0.61526 0.81198 0.37827 0.0
H7159 H 0.611 0.79296 0.3787 0.0
H7160 H 0.61007 0.82306 0.32713 0.0
H7161 H 0.60188 0.77696 0.32865 0.0
H7162 H 0.64109 0.82374 0.34619 0.0
H7163 H 0.62895 0.82591 0.3613 0.0
H7164 H 0.62506 0.83498 0.34427 0.0
H7165 H 0.62912 0.76587 0.34898 0.0
H7166 H 0.60978 0.76244 0.34863 0.0
H7167 H 0.61812 0.77105 0.36428 0.0
C7168 C 0.17481 0.65063 0.38356 0.0
C7169 C 0.1768 0.66421 0.37679 0.0
C7170 C 0.17453 0.63772 0.37528 0.0
C7171 C 0.17595 0.63856 0.35992 0.0
C7172 C 0.17733 0.65232 0.35303 0.0
C7173 C 0.17791 0.66496 0.36157 0.0
C7174 C 0.17331 0.62321 0.38299 0.0
C7175 C 0.17857 0.65371 0.33663 0.0
C7176 C 0.19192 0.60941 0.33572 0.0
C7177 C 0.17942 0.60417 0.32866 0.0
C7178 C 0.19083 0.61971 0.34695 0.0
C7179 C 0.17692 0.62515 0.3509 0.0
C7180 C 0.1642 0.61916 0.3445 0.0
C7181 C 0.1656 0.60859 0.33351 0.0
C7182 C 0.20464 0.62555 0.3538 0.0
C7183 C 0.1492 0.62481 0.3483 0.0
H7184 H 0.17401 0.65005 0.39535 0.0
H7185 H 0.17927 0.67548 0.35631 0.0
H7186 H 0.16456 0.61649 0.37801 0.0
H7187 H 0.18369 0.61709 0.38173 0.0
H7188 H 0.171 0.62449 0.39482 0.0
H7189 H 0.17843 0.66526 0.33296 0.0
H7190 H 0.1889 0.64862 0.33287 0.0
H7191 H 0.16946 0.64783 0.33124 0.0
H7192 H 0.20261 0.60584 0.33209 0.0
H7193 H 0.15592 0.60456 0.32803 0.0
H7194 H 0.20346 0.62627 0.36583 0.0
H7195 H 0.20677 0.63673 0.34966 0.0
H7196 H 0.21426 0.61863 0.35123 0.0
H7197 H 0.14793 0.62597 0.36028 0.0
H7198 H 0.14042 0.61756 0.34412 0.0
H7199 H 0.14772 0.6358 0.34342 0.0
C7200 C 0.33199 0.1967 0.37963 0.0
C7201 C 0.31769 0.19785 0.37431 0.0
C7202 C 0.34393 0.19661 0.37001 0.0
C7203 C 0.34137 0.1972 0.35478 0.0
C7204 C 0.32692 0.19821 0.3494 0.0
C7205 C 0.31528 0.19875 0.35925 0.0
C7206 C 0.35922 0.19598 0.37609 0.0
C7207 C 0.32371 0.19853 0.33322 0.0
C7208 C 0.3679 0.20958 0.32589 0.0
C7209 C 0.37211 0.19621 0.3198 0.0
C7210 C 0.35892 0.21004 0.33825 0.0
C7211 C 0.35364 0.19682 0.34425 0.0
C7212 C 0.35854 0.18328 0.33861 0.0
C7213 C 0.36793 0.18315 0.32653 0.0
C7214 C 0.35433 0.22468 0.34427 0.0
C7215 C 0.35288 0.16896 0.34449 0.0
H7216 H 0.33384 0.19606 0.3913 0.0
H7217 H 0.30421 0.19944 0.35512 0.0
H7218 H 0.36485 0.18601 0.37216 0.0
H7219 H 0.36561 0.20548 0.37214 0.0
H7220 H 0.35935 0.19597 0.38822 0.0
H7221 H 0.31181 0.19866 0.33087 0.0
H7222 H 0.3287 0.20835 0.32821 0.0
H7223 H 0.32859 0.18884 0.32784 0.0
H7224 H 0.37132 0.21968 0.32075 0.0
H7225 H 0.37119 0.17283 0.32175 0.0
H7226 H 0.35482 0.22466 0.35637 0.0
H7227 H 0.34287 0.22695 0.34108 0.0
H7228 H 0.3613 0.23368 0.34009 0.0
H7229 H 0.35342 0.16877 0.35658 0.0
H7230 H 0.35908 0.15949 0.34016 0.0
H7231 H 0.34124 0.16768 0.34137 0.0
C7232 C 0.66214 0.80768 0.62038 0.0
C7233 C 0.66225 0.8101 0.6053 0.0
C7234 C 0.64903 0.80744 0.6282 0.0
C7235 C 0.63566 0.80931 0.62068 0.0
C7236 C 0.63567 0.81191 0.60545 0.0
C7237 C 0.64904 0.81246 0.59793 0.0
C7238 C 0.64952 0.80497 0.64451 0.0
C7239 C 0.6216 0.81363 0.59706 0.0
C7240 C 0.60551 0.79241 0.64295 0.0
C7241 C 0.60035 0.80457 0.65065 0.0
C7242 C 0.61603 0.79399 0.63196 0.0
C7243 C 0.62179 0.80801 0.62894 0.0
C7244 C 0.61576 0.82045 0.63586 0.0
C7245 C 0.60496 0.81858 0.64655 0.0
C7246 C 0.62187 0.78051 0.6245 0.0
C7247 C 0.62171 0.83556 0.63309 0.0
H7248 H 0.67236 0.80601 0.62611 0.0
H7249 H 0.64913 0.81425 0.58624 0.0
H7250 H 0.64348 0.81377 0.65024 0.0
H7251 H 0.64412 0.79448 0.64724 0.0
H7252 H 0.66086 0.80465 0.64879 0.0
H7253 H 0.62352 0.81656 0.58545 0.0
H7254 H 0.61538 0.80324 0.59744 0.0
H7255 H 0.61466 0.82214 0.60214 0.0
H7256 H 0.6018 0.78159 0.64597 0.0
H7257 H 0.601 0.82802 0.6525 0.0
H7258 H 0.63275 0.77777 0.62908 0.0
H7259 H 0.62328 0.78246 0.61263 0.0
H7260 H 0.61457 0.77096 0.62606 0.0
H7261 H 0.63247 0.83666 0.63854 0.0
H7262 H 0.61435 0.84419 0.6374 0.0
H7263 H 0.62342 0.83744 0.62126 0.0
C7264 C 0.58702 0.18531 0.34713 0.0
C7265 C 0.58983 0.17436 0.33679 0.0
C7266 C 0.59778 0.18958 0.35716 0.0
C7267 C 0.61164 0.18279 0.35675 0.0
C7268 C 0.61432 0.17133 0.34673 0.0
C7269 C 0.60336 0.16724 0.3369 0.0
C7270 C 0.59451 0.20174 0.36779 0.0
C7271 C 0.62897 0.1638 0.34597 0.0
C7272 C 0.64607 0.20252 0.36802 0.0
C7273 C 0.64959 0.19538 0.3811 0.0
C7274 C 0.63329 0.19906 0.36037 0.0
C7275 C 0.62378 0.18826 0.36597 0.0
C7276 C 0.62676 0.18169 0.37963 0.0
C7277 C 0.63967 0.18532 0.38704 0.0
C7278 C 0.63043 0.20636 0.34586 0.0
C7279 C 0.61678 0.17024 0.386 0.0
H7280 H 0.57654 0.19081 0.34713 0.0
H7281 H 0.60558 0.15873 0.32898 0.0
H7282 H 0.59767 0.1985 0.37902 0.0
H7283 H 0.60105 0.21152 0.3649 0.0
H7284 H 0.58278 0.20481 0.36777 0.0
H7285 H 0.62901 0.15456 0.33812 0.0
H7286 H 0.63746 0.17175 0.34259 0.0
H7287 H 0.6321 0.15961 0.35689 0.0
H7288 H 0.65359 0.21039 0.36341 0.0
H7289 H 0.64224 0.17983 0.3972 0.0
H7290 H 0.61913 0.21068 0.34545 0.0
H7291 H 0.63152 0.19821 0.33696 0.0
H7292 H 0.63815 0.21546 0.34369 0.0
H7293 H 0.60525 0.17389 0.3855 0.0
H7294 H 0.61957 0.16766 0.39752 0.0
H7295 H 0.61764 0.16006 0.37949 0.0
C7296 C 0.78256 0.60788 0.34194 0.0
C7297 C 0.79492 0.60152 0.33559 0.0
C7298 C 0.78396 0.61824 0.3531 0.0
C7299 C 0.79807 0.62263 0.35763 0.0
C7300 C 0.81054 0.61546 0.35199 0.0
C7301 C 0.80879 0.60483 0.34113 0.0
C7302 C 0.77039 0.62532 0.3592 0.0
C7303 C 0.82578 0.62 0.35633 0.0
C7304 C 0.80072 0.66273 0.36684 0.0
C7305 C 0.80177 0.66244 0.38207 0.0
C7306 C 0.79996 0.64979 0.35879 0.0
C7307 C 0.79981 0.63623 0.36621 0.0
C7308 C 0.80094 0.63584 0.38162 0.0
C7309 C 0.80213 0.64901 0.38939 0.0
C7310 C 0.79916 0.65067 0.34234 0.0
C7311 C 0.80043 0.6216 0.38988 0.0
H7312 H 0.77181 0.60519 0.33778 0.0
H7313 H 0.81838 0.59995 0.3362 0.0
H7314 H 0.77121 0.62649 0.37122 0.0
H7315 H 0.76918 0.63642 0.35451 0.0
H7316 H 0.7604 0.61896 0.35656 0.0
H7317 H 0.83411 0.61196 0.35273 0.0
H7318 H 0.82835 0.63069 0.35124 0.0
H7319 H 0.82663 0.62139 0.36832 0.0
H7320 H 0.80059 0.67314 0.3612 0.0
H7321 H 0.80283 0.64883 0.40121 0.0
H7322 H 0.78851 0.64636 0.33851 0.0
H7323 H 0.80784 0.64384 0.33737 0.0
H7324 H 0.80038 0.66203 0.33826 0.0
H7325 H 0.78964 0.61635 0.38823 0.0
H7326 H 0.80221 0.62312 0.40178 0.0
H7327 H 0.8088 0.61395 0.38564 0.0
C7328 C 0.39374 0.79674 0.34178 0.0
C7329 C 0.38767 0.79499 0.32785 0.0
C7330 C 0.38486 0.79629 0.35429 0.0
C7331 C 0.36959 0.79458 0.35269 0.0
C7332 C 0.36343 0.79311 0.33859 0.0
C7333 C 0.37258 0.79309 0.32637 0.0
C7334 C 0.39182 0.79742 0.36918 0.0
C7335 C 0.34715 0.79165 0.33637 0.0
C7336 C 0.3433 0.77992 0.38075 0.0
C7337 C 0.33643 0.79275 0.38541 0.0
C7338 C 0.35516 0.78045 0.37112 0.0
C7339 C 0.35983 0.79411 0.36561 0.0
C7340 C 0.35347 0.80715 0.37097 0.0
C7341 C 0.34195 0.8063 0.38102 0.0
C7342 C 0.36199 0.76633 0.36605 0.0
C7343 C 0.35788 0.8219 0.3651 0.0
H7344 H 0.40543 0.79815 0.34289 0.0
H7345 H 0.36787 0.79193 0.31557 0.0
H7346 H 0.38725 0.80687 0.37521 0.0
H7347 H 0.38927 0.78749 0.37564 0.0
H7348 H 0.40386 0.79867 0.36854 0.0
H7349 H 0.34408 0.79148 0.32463 0.0
H7350 H 0.34319 0.78143 0.3415 0.0
H7351 H 0.34138 0.80086 0.34172 0.0
H7352 H 0.33908 0.76943 0.38429 0.0
H7353 H 0.33654 0.81621 0.38457 0.0
H7354 H 0.37406 0.76729 0.36576 0.0
H7355 H 0.35825 0.76384 0.35481 0.0
H7356 H 0.35898 0.75702 0.37322 0.0
H7357 H 0.36992 0.82299 0.36476 0.0
H7358 H 0.35333 0.83098 0.37173 0.0
H7359 H 0.35381 0.82306 0.35374 0.0
C7360 C 0.20399 0.37739 0.33812 0.0
C7361 C 0.19149 0.38278 0.33118 0.0
C7362 C 0.20282 0.36825 0.35032 0.0
C7363 C 0.18882 0.364 0.35528 0.0
C7364 C 0.17617 0.37007 0.34878 0.0
C7365 C 0.17768 0.37962 0.33689 0.0
C7366 C 0.21657 0.36239 0.35727 0.0
C7367 C 0.16105 0.36553 0.3535 0.0
C7368 C 0.18755 0.32542 0.36987 0.0
C7369 C 0.18622 0.32773 0.38491 0.0
C7370 C 0.18793 0.33717 0.36013 0.0
C7371 C 0.18747 0.35161 0.36563 0.0
C7372 C 0.18618 0.35403 0.38084 0.0
C7373 C 0.18531 0.342 0.39033 0.0
C7374 C 0.1889 0.3341 0.34395 0.0
C7375 C 0.18611 0.36927 0.38709 0.0
H7376 H 0.21467 0.37999 0.33373 0.0
H7377 H 0.16803 0.38375 0.33142 0.0
H7378 H 0.21573 0.36277 0.36935 0.0
H7379 H 0.21809 0.35081 0.35408 0.0
H7380 H 0.22639 0.36861 0.35383 0.0
H7381 H 0.15246 0.37264 0.34873 0.0
H7382 H 0.15901 0.35414 0.34992 0.0
H7383 H 0.16005 0.36576 0.36556 0.0
H7384 H 0.18807 0.31436 0.36569 0.0
H7385 H 0.18435 0.34374 0.40199 0.0
H7386 H 0.19943 0.3382 0.33961 0.0
H7387 H 0.18005 0.33992 0.33806 0.0
H7388 H 0.18808 0.32227 0.34144 0.0
H7389 H 0.19659 0.37477 0.38448 0.0
H7390 H 0.18461 0.3693 0.39912 0.0
H7391 H 0.17728 0.37584 0.38205 0.0
C7392 C 0.38177 0.18816 0.65097 0.0
C7393 C 0.37475 0.19025 0.6644 0.0
C7394 C 0.37375 0.18796 0.63789 0.0
C7395 C 0.35838 0.1894 0.63841 0.0
C7396 C 0.35124 0.19104 0.65202 0.0
C7397 C 0.35954 0.19168 0.66482 0.0
C7398 C 0.38174 0.18662 0.62354 0.0
C7399 C 0.33482 0.19224 0.65308 0.0
C7400 C 0.33443 0.20394 0.60823 0.0
C7401 C 0.328 0.19109 0.60303 0.0
C7402 C 0.34539 0.20344 0.61888 0.0
C7403 C 0.34958 0.1898 0.62481 0.0
C7404 C 0.34368 0.17674 0.61899 0.0
C7405 C 0.33306 0.17755 0.60797 0.0
C7406 C 0.35176 0.21758 0.62446 0.0
C7407 C 0.3476 0.16201 0.62525 0.0
H7408 H 0.39356 0.18712 0.65067 0.0
H7409 H 0.3541 0.19311 0.67524 0.0
H7410 H 0.37736 0.17732 0.61715 0.0
H7411 H 0.37996 0.19663 0.61696 0.0
H7412 H 0.39366 0.18504 0.62505 0.0
H7413 H 0.33094 0.19238 0.66457 0.0
H7414 H 0.33109 0.20241 0.64766 0.0
H7415 H 0.32958 0.18295 0.64735 0.0
H7416 H 0.33056 0.2144 0.60428 0.0
H7417 H 0.32798 0.16763 0.60398 0.0
H7418 H 0.36379 0.21669 0.62557 0.0
H7419 H 0.34725 0.21999 0.63544 0.0
H7420 H 0.34919 0.22691 0.61715 0.0
H7421 H 0.35958 0.16095 0.62657 0.0
H7422 H 0.34362 0.15291 0.6183 0.0
H7423 H 0.34263 0.16089 0.63624 0.0
C7424 C 0.80297 0.38379 0.65788 0.0
C7425 C 0.78964 0.38796 0.6641 0.0
C7426 C 0.80342 0.37357 0.64651 0.0
C7427 C 0.79019 0.36777 0.64102 0.0
C7428 C 0.77667 0.37287 0.64648 0.0
C7429 C 0.77656 0.38274 0.65816 0.0
C7430 C 0.81805 0.36814 0.64121 0.0
C7431 C 0.76234 0.36727 0.64058 0.0
C7432 C 0.79197 0.34452 0.60674 0.0
C7433 C 0.79136 0.33044 0.6127 0.0
C7434 C 0.79132 0.35687 0.61578 0.0
C7435 C 0.79051 0.355 0.6311 0.0
C7436 C 0.79008 0.34078 0.63714 0.0
C7437 C 0.79028 0.32868 0.62784 0.0
C7438 C 0.79136 0.37188 0.60899 0.0
C7439 C 0.78959 0.33832 0.65345 0.0
H7440 H 0.81309 0.38779 0.66253 0.0
H7441 H 0.76625 0.38612 0.66289 0.0
H7442 H 0.81965 0.3567 0.64488 0.0
H7443 H 0.8185 0.36814 0.62912 0.0
H7444 H 0.82722 0.37484 0.64545 0.0
H7445 H 0.75296 0.37401 0.6443 0.0
H7446 H 0.76248 0.36713 0.62847 0.0
H7447 H 0.76058 0.3559 0.64434 0.0
H7448 H 0.79272 0.34585 0.595 0.0
H7449 H 0.78997 0.31779 0.63246 0.0
H7450 H 0.80096 0.37816 0.61286 0.0
H7451 H 0.78148 0.37798 0.61244 0.0
H7452 H 0.79164 0.37145 0.59688 0.0
H7453 H 0.79896 0.34386 0.65876 0.0
H7454 H 0.78991 0.32655 0.65636 0.0
H7455 H 0.77947 0.34313 0.65805 0.0
C7456 C 0.19848 0.60073 0.65239 0.0
C7457 C 0.185 0.59784 0.65898 0.0
C7458 C 0.19953 0.6105 0.64068 0.0
C7459 C 0.18685 0.61788 0.63583 0.0
C7460 C 0.17308 0.61434 0.6419 0.0
C7461 C 0.17229 0.60417 0.65331 0.0
C7462 C 0.21434 0.61364 0.63417 0.0
C7463 C 0.15935 0.62219 0.63724 0.0
C7464 C 0.19276 0.65666 0.623 0.0
C7465 C 0.19077 0.65537 0.60791 0.0
C7466 C 0.19136 0.64453 0.63217 0.0
C7467 C 0.1883 0.63069 0.62603 0.0
C7468 C 0.18661 0.62922 0.61075 0.0
C7469 C 0.18765 0.64167 0.60185 0.0
C7470 C 0.19294 0.64661 0.64846 0.0
C7471 C 0.18376 0.61455 0.60383 0.0
H7472 H 0.20828 0.59568 0.6567 0.0
H7473 H 0.16187 0.60196 0.65848 0.0
H7474 H 0.21369 0.61404 0.62208 0.0
H7475 H 0.21821 0.62447 0.63797 0.0
H7476 H 0.22255 0.60532 0.63738 0.0
H7477 H 0.14937 0.617 0.64175 0.0
H7478 H 0.1598 0.63366 0.6411 0.0
H7479 H 0.15847 0.62248 0.62517 0.0
H7480 H 0.19501 0.66728 0.62773 0.0
H7481 H 0.18617 0.64067 0.59015 0.0
H7482 H 0.20224 0.64005 0.65259 0.0
H7483 H 0.18297 0.64269 0.65412 0.0
H7484 H 0.19479 0.6582 0.65149 0.0
H7485 H 0.19252 0.60676 0.60692 0.0
H7486 H 0.18323 0.6152 0.59173 0.0
H7487 H 0.17332 0.60999 0.60792 0.0
loop_
_geom_bond_atom_site_label_1
_geom_bond_atom_site_label_2
_geom_bond_distance
_geom_bond_site_symmetry_2
_ccdc_geom_bond_type
C0 O1 1.306 . S
C0 O3 1.160 . S
O1 C0 1.306 . S
O1 Cd2 2.228 . S
Cd2 O1 2.228 . S
Cd2 O6 2.273 . S
Cd2 O10 2.277 . S
O3 C0 1.160 . S
O3 Cd4 2.203 . S
Cd4 O3 2.203 . S
Cd4 O6 2.411 . S
Cd4 O7 2.333 . S
Cd4 O8 2.352 . S
Cd4 O12 2.277 . S
Cd4 O13 2.356 . S
C5 O10 1.209 . S
C5 O12 1.226 . S
O6 Cd2 2.273 . S
O6 Cd4 2.411 . S
O6 C9 1.320 . S
O7 Cd4 2.333 . S
O7 C9 1.214 . S
O8 Cd4 2.352 . S
O8 C11 1.258 . S
C9 O6 1.320 . S
C9 O7 1.214 . S
O10 Cd2 2.277 . S
O10 C5 1.209 . S
C11 O8 1.258 . S
C11 O13 1.282 . S
O12 Cd4 2.277 . S
O12 C5 1.226 . S
O13 Cd4 2.356 . S
O13 C11 1.282 . S
C14 O15 1.306 . S
C14 O17 1.160 . S
O15 C14 1.306 . S
O15 Cd16 2.228 . S
Cd16 O15 2.228 . S
Cd16 O20 2.273 . S
Cd16 O24 2.277 . S
O17 C14 1.160 . S
O17 Cd18 2.203 . S
Cd18 O17 2.203 . S
Cd18 O20 2.411 . S
Cd18 O21 2.333 . S
Cd18 O22 2.352 . S
Cd18 O26 2.277 . S
Cd18 O27 2.356 . S
C19 O24 1.209 . S
C19 O26 1.226 . S
O20 Cd16 2.273 . S
O20 Cd18 2.411 . S
O20 C23 1.320 . S
O21 Cd18 2.333 . S
O21 C23 1.214 . S
O22 Cd18 2.352 . S
O22 C25 1.258 . S
C23 O20 1.320 . S
C23 O21 1.214 . S
O24 Cd16 2.277 . S
O24 C19 1.209 . S
C25 O22 1.258 . S
C25 O27 1.282 . S
O26 Cd18 2.277 . S
O26 C19 1.226 . S
O27 Cd18 2.356 . S
O27 C25 1.282 . S
C28 O29 1.306 . S
C28 O31 1.160 . S
O29 C28 1.306 . S
O29 Cd30 2.228 . S
Cd30 O29 2.228 . S
Cd30 O34 2.273 . S
Cd30 O38 2.277 . S
O31 C28 1.160 . S
O31 Cd32 2.203 . S
Cd32 O31 2.203 . S
Cd32 O34 2.411 . S
Cd32 O35 2.333 . S
Cd32 O36 2.352 . S
Cd32 O40 2.277 . S
Cd32 O41 2.356 . S
C33 O38 1.209 . S
C33 O40 1.226 . S
O34 Cd30 2.273 . S
O34 Cd32 2.411 . S
O34 C37 1.320 . S
O35 Cd32 2.333 . S
O35 C37 1.214 . S
O36 Cd32 2.352 . S
O36 C39 1.258 . S
C37 O34 1.320 . S
C37 O35 1.214 . S
O38 Cd30 2.277 . S
O38 C33 1.209 . S
C39 O36 1.258 . S
C39 O41 1.282 . S
O40 Cd32 2.277 . S
O40 C33 1.226 . S
O41 Cd32 2.356 . S
O41 C39 1.282 . S
C42 O43 1.306 . S
C42 O45 1.160 . S
O43 C42 1.306 . S
O43 Cd44 2.228 . S
Cd44 O43 2.228 . S
Cd44 O48 2.273 . S
Cd44 O52 2.277 . S
O45 C42 1.160 . S
O45 Cd46 2.203 . S
Cd46 O45 2.203 . S
Cd46 O48 2.411 . S
Cd46 O49 2.333 . S
Cd46 O50 2.352 . S
Cd46 O54 2.277 . S
Cd46 O55 2.356 . S
C47 O52 1.209 . S
C47 O54 1.226 . S
O48 Cd44 2.273 . S
O48 Cd46 2.411 . S
O48 C51 1.320 . S
O49 Cd46 2.333 . S
O49 C51 1.214 . S
O50 Cd46 2.352 . S
O50 C53 1.258 . S
C51 O48 1.320 . S
C51 O49 1.214 . S
O52 Cd44 2.277 . S
O52 C47 1.209 . S
C53 O50 1.258 . S
C53 O55 1.282 . S
O54 Cd46 2.277 . S
O54 C47 1.226 . S
O55 Cd46 2.356 . S
O55 C53 1.282 . S
C56 O57 1.306 . S
C56 O59 1.160 . S
O57 C56 1.306 . S
O57 Cd58 2.228 . S
Cd58 O57 2.228 . S
Cd58 O62 2.273 . S
Cd58 O66 2.277 . S
O59 C56 1.160 . S
O59 Cd60 2.203 . S
Cd60 O59 2.203 . S
Cd60 O62 2.411 . S
Cd60 O63 2.333 . S
Cd60 O64 2.352 . S
Cd60 O68 2.277 . S
Cd60 O69 2.356 . S
C61 O66 1.209 . S
C61 O68 1.226 . S
O62 Cd58 2.273 . S
O62 Cd60 2.411 . S
O62 C65 1.320 . S
O63 Cd60 2.333 . S
O63 C65 1.214 . S
O64 Cd60 2.352 . S
O64 C67 1.258 . S
C65 O62 1.320 . S
C65 O63 1.214 . S
O66 Cd58 2.277 . S
O66 C61 1.209 . S
C67 O64 1.258 . S
C67 O69 1.282 . S
O68 Cd60 2.277 . S
O68 C61 1.226 . S
O69 Cd60 2.356 . S
O69 C67 1.282 . S
C70 O71 1.306 . S
C70 O73 1.160 . S
O71 C70 1.306 . S
O71 Cd72 2.228 . S
Cd72 O71 2.228 . S
Cd72 O76 2.273 . S
Cd72 O80 2.277 . S
O73 C70 1.160 . S
O73 Cd74 2.203 . S
Cd74 O73 2.203 . S
Cd74 O76 2.411 . S
Cd74 O77 2.333 . S
Cd74 O78 2.352 . S
Cd74 O82 2.277 . S
Cd74 O83 2.356 . S
C75 O80 1.209 . S
C75 O82 1.226 . S
O76 Cd72 2.273 . S
O76 Cd74 2.411 . S
O76 C79 1.320 . S
O77 Cd74 2.333 . S
O77 C79 1.214 . S
O78 Cd74 2.352 . S
O78 C81 1.258 . S
C79 O76 1.320 . S
C79 O77 1.214 . S
O80 Cd72 2.277 . S
O80 C75 1.209 . S
C81 O78 1.258 . S
C81 O83 1.282 . S
O82 Cd74 2.277 . S
O82 C75 1.226 . S
O83 Cd74 2.356 . S
O83 C81 1.282 . S
C84 O85 1.306 . S
C84 O87 1.160 . S
O85 C84 1.306 . S
O85 Cd86 2.228 . S
Cd86 O85 2.228 . S
Cd86 O90 2.273 . S
Cd86 O94 2.277 . S
O87 C84 1.160 . S
O87 Cd88 2.203 . S
Cd88 O87 2.203 . S
Cd88 O90 2.411 . S
Cd88 O91 2.333 . S
Cd88 O92 2.352 . S
Cd88 O96 2.277 . S
Cd88 O97 2.356 . S
C89 O94 1.209 . S
C89 O96 1.226 . S
O90 Cd86 2.273 . S
O90 Cd88 2.411 . S
O90 C93 1.320 . S
O91 Cd88 2.333 . S
O91 C93 1.214 . S
O92 Cd88 2.352 . S
O92 C95 1.258 . S
C93 O90 1.320 . S
C93 O91 1.214 . S
O94 Cd86 2.277 . S
O94 C89 1.209 . S
C95 O92 1.258 . S
C95 O97 1.282 . S
O96 Cd88 2.277 . S
O96 C89 1.226 . S
O97 Cd88 2.356 . S
O97 C95 1.282 . S
C98 O99 1.306 . S
C98 O101 1.160 . S
O99 C98 1.306 . S
O99 Cd100 2.228 . S
Cd100 O99 2.228 . S
Cd100 O104 2.273 . S
Cd100 O108 2.277 . S
O101 C98 1.160 . S
O101 Cd102 2.203 . S
Cd102 O101 2.203 . S
Cd102 O104 2.411 . S
Cd102 O105 2.333 . S
Cd102 O106 2.352 . S
Cd102 O110 2.277 . S
Cd102 O111 2.356 . S
C103 O108 1.209 . S
C103 O110 1.226 . S
O104 Cd100 2.273 . S
O104 Cd102 2.411 . S
O104 C107 1.320 . S
O105 Cd102 2.333 . S
O105 C107 1.214 . S
O106 Cd102 2.352 . S
O106 C109 1.258 . S
C107 O104 1.320 . S
C107 O105 1.214 . S
O108 Cd100 2.277 . S
O108 C103 1.209 . S
C109 O106 1.258 . S
C109 O111 1.282 . S
O110 Cd102 2.277 . S
O110 C103 1.226 . S
O111 Cd102 2.356 . S
O111 C109 1.282 . S
C112 O113 1.306 . S
C112 O115 1.160 . S
O113 C112 1.306 . S
O113 Cd114 2.228 . S
Cd114 O113 2.228 . S
Cd114 O118 2.273 . S
Cd114 O122 2.277 . S
O115 C112 1.160 . S
O115 Cd116 2.203 . S
Cd116 O115 2.203 . S
Cd116 O118 2.411 . S
Cd116 O119 2.333 . S
Cd116 O120 2.352 . S
Cd116 O124 2.277 . S
Cd116 O125 2.356 . S
C117 O122 1.209 . S
C117 O124 1.226 . S
O118 Cd114 2.273 . S
O118 Cd116 2.411 . S
O118 C121 1.320 . S
O119 Cd116 2.333 . S
O119 C121 1.214 . S
O120 Cd116 2.352 . S
O120 C123 1.258 . S
C121 O118 1.320 . S
C121 O119 1.214 . S
O122 Cd114 2.277 . S
O122 C117 1.209 . S
C123 O120 1.258 . S
C123 O125 1.282 . S
O124 Cd116 2.277 . S
O124 C117 1.226 . S
O125 Cd116 2.356 . S
O125 C123 1.282 . S
C126 O127 1.306 . S
C126 O129 1.160 . S
O127 C126 1.306 . S
O127 Cd128 2.228 . S
Cd128 O127 2.228 . S
Cd128 O132 2.273 . S
Cd128 O136 2.277 . S
O129 C126 1.160 . S
O129 Cd130 2.203 . S
Cd130 O129 2.203 . S
Cd130 O132 2.411 . S
Cd130 O133 2.333 . S
Cd130 O134 2.352 . S
Cd130 O138 2.277 . S
Cd130 O139 2.356 . S
C131 O136 1.209 . S
C131 O138 1.226 . S
O132 Cd128 2.273 . S
O132 Cd130 2.411 . S
O132 C135 1.320 . S
O133 Cd130 2.333 . S
O133 C135 1.214 . S
O134 Cd130 2.352 . S
O134 C137 1.258 . S
C135 O132 1.320 . S
C135 O133 1.214 . S
O136 Cd128 2.277 . S
O136 C131 1.209 . S
C137 O134 1.258 . S
C137 O139 1.282 . S
O138 Cd130 2.277 . S
O138 C131 1.226 . S
O139 Cd130 2.356 . S
O139 C137 1.282 . S
C140 O141 1.306 . S
C140 O143 1.160 . S
O141 C140 1.306 . S
O141 Cd142 2.228 . S
Cd142 O141 2.228 . S
Cd142 O146 2.273 . S
Cd142 O150 2.277 . S
O143 C140 1.160 . S
O143 Cd144 2.203 . S
Cd144 O143 2.203 . S
Cd144 O146 2.411 . S
Cd144 O147 2.333 . S
Cd144 O148 2.352 . S
Cd144 O152 2.277 . S
Cd144 O153 2.356 . S
C145 O150 1.209 . S
C145 O152 1.226 . S
O146 Cd142 2.273 . S
O146 Cd144 2.411 . S
O146 C149 1.320 . S
O147 Cd144 2.333 . S
O147 C149 1.214 . S
O148 Cd144 2.352 . S
O148 C151 1.258 . S
C149 O146 1.320 . S
C149 O147 1.214 . S
O150 Cd142 2.277 . S
O150 C145 1.209 . S
C151 O148 1.258 . S
C151 O153 1.282 . S
O152 Cd144 2.277 . S
O152 C145 1.226 . S
O153 Cd144 2.356 . S
O153 C151 1.282 . S
C154 O155 1.306 . S
C154 O157 1.160 . S
O155 C154 1.306 . S
O155 Cd156 2.228 . S
Cd156 O155 2.228 . S
Cd156 O160 2.273 . S
Cd156 O164 2.277 . S
O157 C154 1.160 . S
O157 Cd158 2.203 . S
Cd158 O157 2.203 . S
Cd158 O160 2.411 . S
Cd158 O161 2.333 . S
Cd158 O162 2.352 . S
Cd158 O166 2.277 . S
Cd158 O167 2.356 . S
C159 O164 1.209 . S
C159 O166 1.226 . S
O160 Cd156 2.273 . S
O160 Cd158 2.411 . S
O160 C163 1.320 . S
O161 Cd158 2.333 . S
O161 C163 1.214 . S
O162 Cd158 2.352 . S
O162 C165 1.258 . S
C163 O160 1.320 . S
C163 O161 1.214 . S
O164 Cd156 2.277 . S
O164 C159 1.209 . S
C165 O162 1.258 . S
C165 O167 1.282 . S
O166 Cd158 2.277 . S
O166 C159 1.226 . S
O167 Cd158 2.356 . S
O167 C165 1.282 . S
C168 O169 1.306 . S
C168 O171 1.160 . S
O169 C168 1.306 . S
O169 Cd170 2.228 . S
Cd170 O169 2.228 . S
Cd170 O174 2.273 . S
Cd170 O178 2.277 . S
O171 C168 1.160 . S
O171 Cd172 2.203 . S
Cd172 O171 2.203 . S
Cd172 O174 2.411 . S
Cd172 O175 2.333 . S
Cd172 O176 2.352 . S
Cd172 O180 2.277 . S
Cd172 O181 2.356 . S
C173 O178 1.209 . S
C173 O180 1.226 . S
O174 Cd170 2.273 . S
O174 Cd172 2.411 . S
O174 C177 1.320 . S
O175 Cd172 2.333 . S
O175 C177 1.214 . S
O176 Cd172 2.352 . S
O176 C179 1.258 . S
C177 O174 1.320 . S
C177 O175 1.214 . S
O178 Cd170 2.277 . S
O178 C173 1.209 . S
C179 O176 1.258 . S
C179 O181 1.282 . S
O180 Cd172 2.277 . S
O180 C173 1.226 . S
O181 Cd172 2.356 . S
O181 C179 1.282 . S
C182 O183 1.306 . S
C182 O185 1.160 . S
O183 C182 1.306 . S
O183 Cd184 2.228 . S
Cd184 O183 2.228 . S
Cd184 O188 2.273 . S
Cd184 O192 2.277 . S
O185 C182 1.160 . S
O185 Cd186 2.203 . S
Cd186 O185 2.203 . S
Cd186 O188 2.411 . S
Cd186 O189 2.333 . S
Cd186 O190 2.352 . S
Cd186 O194 2.277 . S
Cd186 O195 2.356 . S
C187 O192 1.209 . S
C187 O194 1.226 . S
O188 Cd184 2.273 . S
O188 Cd186 2.411 . S
O188 C191 1.320 . S
O189 Cd186 2.333 . S
O189 C191 1.214 . S
O190 Cd186 2.352 . S
O190 C193 1.258 . S
C191 O188 1.320 . S
C191 O189 1.214 . S
O192 Cd184 2.277 . S
O192 C187 1.209 . S
C193 O190 1.258 . S
C193 O195 1.282 . S
O194 Cd186 2.277 . S
O194 C187 1.226 . S
O195 Cd186 2.356 . S
O195 C193 1.282 . S
C196 O197 1.306 . S
C196 O199 1.160 . S
O197 C196 1.306 . S
O197 Cd198 2.228 . S
Cd198 O197 2.228 . S
Cd198 O202 2.273 . S
Cd198 O206 2.277 . S
O199 C196 1.160 . S
O199 Cd200 2.203 . S
Cd200 O199 2.203 . S
Cd200 O202 2.411 . S
Cd200 O203 2.333 . S
Cd200 O204 2.352 . S
Cd200 O208 2.277 . S
Cd200 O209 2.356 . S
C201 O206 1.209 . S
C201 O208 1.226 . S
O202 Cd198 2.273 . S
O202 Cd200 2.411 . S
O202 C205 1.320 . S
O203 Cd200 2.333 . S
O203 C205 1.214 . S
O204 Cd200 2.352 . S
O204 C207 1.258 . S
C205 O202 1.320 . S
C205 O203 1.214 . S
O206 Cd198 2.277 . S
O206 C201 1.209 . S
C207 O204 1.258 . S
C207 O209 1.282 . S
O208 Cd200 2.277 . S
O208 C201 1.226 . S
O209 Cd200 2.356 . S
O209 C207 1.282 . S
C210 O211 1.306 . S
C210 O213 1.160 . S
O211 C210 1.306 . S
O211 Cd212 2.228 . S
Cd212 O211 2.228 . S
Cd212 O216 2.273 . S
Cd212 O220 2.277 . S
O213 C210 1.160 . S
O213 Cd214 2.203 . S
Cd214 O213 2.203 . S
Cd214 O216 2.411 . S
Cd214 O217 2.333 . S
Cd214 O218 2.352 . S
Cd214 O222 2.277 . S
Cd214 O223 2.356 . S
C215 O220 1.209 . S
C215 O222 1.226 . S
O216 Cd212 2.273 . S
O216 Cd214 2.411 . S
O216 C219 1.320 . S
O217 Cd214 2.333 . S
O217 C219 1.214 . S
O218 Cd214 2.352 . S
O218 C221 1.258 . S
C219 O216 1.320 . S
C219 O217 1.214 . S
O220 Cd212 2.277 . S
O220 C215 1.209 . S
C221 O218 1.258 . S
C221 O223 1.282 . S
O222 Cd214 2.277 . S
O222 C215 1.226 . S
O223 Cd214 2.356 . S
O223 C221 1.282 . S
C224 O225 1.306 . S
C224 O227 1.160 . S
O225 C224 1.306 . S
O225 Cd226 2.228 . S
Cd226 O225 2.228 . S
Cd226 O230 2.273 . S
Cd226 O234 2.277 . S
O227 C224 1.160 . S
O227 Cd228 2.203 . S
Cd228 O227 2.203 . S
Cd228 O230 2.411 . S
Cd228 O231 2.333 . S
Cd228 O232 2.352 . S
Cd228 O236 2.277 . S
Cd228 O237 2.356 . S
C229 O234 1.209 . S
C229 O236 1.226 . S
O230 Cd226 2.273 . S
O230 Cd228 2.411 . S
O230 C233 1.320 . S
O231 Cd228 2.333 . S
O231 C233 1.214 . S
O232 Cd228 2.352 . S
O232 C235 1.258 . S
C233 O230 1.320 . S
C233 O231 1.214 . S
O234 Cd226 2.277 . S
O234 C229 1.209 . S
C235 O232 1.258 . S
C235 O237 1.282 . S
O236 Cd228 2.277 . S
O236 C229 1.226 . S
O237 Cd228 2.356 . S
O237 C235 1.282 . S
C238 O239 1.306 . S
C238 O241 1.160 . S
O239 C238 1.306 . S
O239 Cd240 2.228 . S
Cd240 O239 2.228 . S
Cd240 O244 2.273 . S
Cd240 O248 2.277 . S
O241 C238 1.160 . S
O241 Cd242 2.203 . S
Cd242 O241 2.203 . S
Cd242 O244 2.411 . S
Cd242 O245 2.333 . S
Cd242 O246 2.352 . S
Cd242 O250 2.277 . S
Cd242 O251 2.356 . S
C243 O248 1.209 . S
C243 O250 1.226 . S
O244 Cd240 2.273 . S
O244 Cd242 2.411 . S
O244 C247 1.320 . S
O245 Cd242 2.333 . S
O245 C247 1.214 . S
O246 Cd242 2.352 . S
O246 C249 1.258 . S
C247 O244 1.320 . S
C247 O245 1.214 . S
O248 Cd240 2.277 . S
O248 C243 1.209 . S
C249 O246 1.258 . S
C249 O251 1.282 . S
O250 Cd242 2.277 . S
O250 C243 1.226 . S
O251 Cd242 2.356 . S
O251 C249 1.282 . S
C252 O253 1.306 . S
C252 O255 1.160 . S
O253 C252 1.306 . S
O253 Cd254 2.228 . S
Cd254 O253 2.228 . S
Cd254 O258 2.273 . S
Cd254 O262 2.277 . S
O255 C252 1.160 . S
O255 Cd256 2.203 . S
Cd256 O255 2.203 . S
Cd256 O258 2.411 . S
Cd256 O259 2.333 . S
Cd256 O260 2.352 . S
Cd256 O264 2.277 . S
Cd256 O265 2.356 . S
C257 O262 1.209 . S
C257 O264 1.226 . S
O258 Cd254 2.273 . S
O258 Cd256 2.411 . S
O258 C261 1.320 . S
O259 Cd256 2.333 . S
O259 C261 1.214 . S
O260 Cd256 2.352 . S
O260 C263 1.258 . S
C261 O258 1.320 . S
C261 O259 1.214 . S
O262 Cd254 2.277 . S
O262 C257 1.209 . S
C263 O260 1.258 . S
C263 O265 1.282 . S
O264 Cd256 2.277 . S
O264 C257 1.226 . S
O265 Cd256 2.356 . S
O265 C263 1.282 . S
C266 O267 1.306 . S
C266 O269 1.160 . S
O267 C266 1.306 . S
O267 Cd268 2.228 . S
Cd268 O267 2.228 . S
Cd268 O272 2.273 . S
Cd268 O276 2.277 . S
O269 C266 1.160 . S
O269 Cd270 2.203 . S
Cd270 O269 2.203 . S
Cd270 O272 2.411 . S
Cd270 O273 2.333 . S
Cd270 O274 2.352 . S
Cd270 O278 2.277 . S
Cd270 O279 2.356 . S
C271 O276 1.209 . S
C271 O278 1.226 . S
O272 Cd268 2.273 . S
O272 Cd270 2.411 . S
O272 C275 1.320 . S
O273 Cd270 2.333 . S
O273 C275 1.214 . S
O274 Cd270 2.352 . S
O274 C277 1.258 . S
C275 O272 1.320 . S
C275 O273 1.214 . S
O276 Cd268 2.277 . S
O276 C271 1.209 . S
C277 O274 1.258 . S
C277 O279 1.282 . S
O278 Cd270 2.277 . S
O278 C271 1.226 . S
O279 Cd270 2.356 . S
O279 C277 1.282 . S
C280 O281 1.306 . S
C280 O283 1.160 . S
O281 C280 1.306 . S
O281 Cd282 2.228 . S
Cd282 O281 2.228 . S
Cd282 O286 2.273 . S
Cd282 O290 2.277 . S
O283 C280 1.160 . S
O283 Cd284 2.203 . S
Cd284 O283 2.203 . S
Cd284 O286 2.411 . S
Cd284 O287 2.333 . S
Cd284 O288 2.352 . S
Cd284 O292 2.277 . S
Cd284 O293 2.356 . S
C285 O290 1.209 . S
C285 O292 1.226 . S
O286 Cd282 2.273 . S
O286 Cd284 2.411 . S
O286 C289 1.320 . S
O287 Cd284 2.333 . S
O287 C289 1.214 . S
O288 Cd284 2.352 . S
O288 C291 1.258 . S
C289 O286 1.320 . S
C289 O287 1.214 . S
O290 Cd282 2.277 . S
O290 C285 1.209 . S
C291 O288 1.258 . S
C291 O293 1.282 . S
O292 Cd284 2.277 . S
O292 C285 1.226 . S
O293 Cd284 2.356 . S
O293 C291 1.282 . S
C294 O295 1.306 . S
C294 O297 1.160 . S
O295 C294 1.306 . S
O295 Cd296 2.228 . S
Cd296 O295 2.228 . S
Cd296 O300 2.273 . S
Cd296 O304 2.277 . S
O297 C294 1.160 . S
O297 Cd298 2.203 . S
Cd298 O297 2.203 . S
Cd298 O300 2.411 . S
Cd298 O301 2.333 . S
Cd298 O302 2.352 . S
Cd298 O306 2.277 . S
Cd298 O307 2.356 . S
C299 O304 1.209 . S
C299 O306 1.226 . S
O300 Cd296 2.273 . S
O300 Cd298 2.411 . S
O300 C303 1.320 . S
O301 Cd298 2.333 . S
O301 C303 1.214 . S
O302 Cd298 2.352 . S
O302 C305 1.258 . S
C303 O300 1.320 . S
C303 O301 1.214 . S
O304 Cd296 2.277 . S
O304 C299 1.209 . S
C305 O302 1.258 . S
C305 O307 1.282 . S
O306 Cd298 2.277 . S
O306 C299 1.226 . S
O307 Cd298 2.356 . S
O307 C305 1.282 . S
C308 O309 1.306 . S
C308 O311 1.160 . S
O309 C308 1.306 . S
O309 Cd310 2.228 . S
Cd310 O309 2.228 . S
Cd310 O314 2.273 . S
Cd310 O318 2.277 . S
O311 C308 1.160 . S
O311 Cd312 2.203 . S
Cd312 O311 2.203 . S
Cd312 O314 2.411 . S
Cd312 O315 2.333 . S
Cd312 O316 2.352 . S
Cd312 O320 2.277 . S
Cd312 O321 2.356 . S
C313 O318 1.209 . S
C313 O320 1.226 . S
O314 Cd310 2.273 . S
O314 Cd312 2.411 . S
O314 C317 1.320 . S
O315 Cd312 2.333 . S
O315 C317 1.214 . S
O316 Cd312 2.352 . S
O316 C319 1.258 . S
C317 O314 1.320 . S
C317 O315 1.214 . S
O318 Cd310 2.277 . S
O318 C313 1.209 . S
C319 O316 1.258 . S
C319 O321 1.282 . S
O320 Cd312 2.277 . S
O320 C313 1.226 . S
O321 Cd312 2.356 . S
O321 C319 1.282 . S
C322 O323 1.306 . S
C322 O325 1.160 . S
O323 C322 1.306 . S
O323 Cd324 2.228 . S
Cd324 O323 2.228 . S
Cd324 O328 2.273 . S
Cd324 O332 2.277 . S
O325 C322 1.160 . S
O325 Cd326 2.203 . S
Cd326 O325 2.203 . S
Cd326 O328 2.411 . S
Cd326 O329 2.333 . S
Cd326 O330 2.352 . S
Cd326 O334 2.277 . S
Cd326 O335 2.356 . S
C327 O332 1.209 . S
C327 O334 1.226 . S
O328 Cd324 2.273 . S
O328 Cd326 2.411 . S
O328 C331 1.320 . S
O329 Cd326 2.333 . S
O329 C331 1.214 . S
O330 Cd326 2.352 . S
O330 C333 1.258 . S
C331 O328 1.320 . S
C331 O329 1.214 . S
O332 Cd324 2.277 . S
O332 C327 1.209 . S
C333 O330 1.258 . S
C333 O335 1.282 . S
O334 Cd326 2.277 . S
O334 C327 1.226 . S
O335 Cd326 2.356 . S
O335 C333 1.282 . S
C336 O337 1.306 . S
C336 O339 1.160 . S
O337 C336 1.306 . S
O337 Cd338 2.228 . S
Cd338 O337 2.228 . S
Cd338 O342 2.273 . S
Cd338 O346 2.277 . S
O339 C336 1.160 . S
O339 Cd340 2.203 . S
Cd340 O339 2.203 . S
Cd340 O342 2.411 . S
Cd340 O343 2.333 . S
Cd340 O344 2.352 . S
Cd340 O348 2.277 . S
Cd340 O349 2.356 . S
C341 O346 1.209 . S
C341 O348 1.226 . S
O342 Cd338 2.273 . S
O342 Cd340 2.411 . S
O342 C345 1.320 . S
O343 Cd340 2.333 . S
O343 C345 1.214 . S
O344 Cd340 2.352 . S
O344 C347 1.258 . S
C345 O342 1.320 . S
C345 O343 1.214 . S
O346 Cd338 2.277 . S
O346 C341 1.209 . S
C347 O344 1.258 . S
C347 O349 1.282 . S
O348 Cd340 2.277 . S
O348 C341 1.226 . S
O349 Cd340 2.356 . S
O349 C347 1.282 . S
C350 O351 1.306 . S
C350 O353 1.160 . S
O351 C350 1.306 . S
O351 Cd352 2.228 . S
Cd352 O351 2.228 . S
Cd352 O356 2.273 . S
Cd352 O360 2.277 . S
O353 C350 1.160 . S
O353 Cd354 2.203 . S
Cd354 O353 2.203 . S
Cd354 O356 2.411 . S
Cd354 O357 2.333 . S
Cd354 O358 2.352 . S
Cd354 O362 2.277 . S
Cd354 O363 2.356 . S
C355 O360 1.209 . S
C355 O362 1.226 . S
O356 Cd352 2.273 . S
O356 Cd354 2.411 . S
O356 C359 1.320 . S
O357 Cd354 2.333 . S
O357 C359 1.214 . S
O358 Cd354 2.352 . S
O358 C361 1.258 . S
C359 O356 1.320 . S
C359 O357 1.214 . S
O360 Cd352 2.277 . S
O360 C355 1.209 . S
C361 O358 1.258 . S
C361 O363 1.282 . S
O362 Cd354 2.277 . S
O362 C355 1.226 . S
O363 Cd354 2.356 . S
O363 C361 1.282 . S
C364 O365 1.306 . S
C364 O367 1.160 . S
O365 C364 1.306 . S
O365 Cd366 2.228 . S
Cd366 O365 2.228 . S
Cd366 O370 2.273 . S
Cd366 O374 2.277 . S
O367 C364 1.160 . S
O367 Cd368 2.203 . S
Cd368 O367 2.203 . S
Cd368 O370 2.411 . S
Cd368 O371 2.333 . S
Cd368 O372 2.352 . S
Cd368 O376 2.277 . S
Cd368 O377 2.356 . S
C369 O374 1.209 . S
C369 O376 1.226 . S
O370 Cd366 2.273 . S
O370 Cd368 2.411 . S
O370 C373 1.320 . S
O371 Cd368 2.333 . S
O371 C373 1.214 . S
O372 Cd368 2.352 . S
O372 C375 1.258 . S
C373 O370 1.320 . S
C373 O371 1.214 . S
O374 Cd366 2.277 . S
O374 C369 1.209 . S
C375 O372 1.258 . S
C375 O377 1.282 . S
O376 Cd368 2.277 . S
O376 C369 1.226 . S
O377 Cd368 2.356 . S
O377 C375 1.282 . S
C378 O379 1.306 . S
C378 O381 1.160 . S
O379 C378 1.306 . S
O379 Cd380 2.228 . S
Cd380 O379 2.228 . S
Cd380 O384 2.273 . S
Cd380 O388 2.277 . S
O381 C378 1.160 . S
O381 Cd382 2.203 . S
Cd382 O381 2.203 . S
Cd382 O384 2.411 . S
Cd382 O385 2.333 . S
Cd382 O386 2.352 . S
Cd382 O390 2.277 . S
Cd382 O391 2.356 . S
C383 O388 1.209 . S
C383 O390 1.226 . S
O384 Cd380 2.273 . S
O384 Cd382 2.411 . S
O384 C387 1.320 . S
O385 Cd382 2.333 . S
O385 C387 1.214 . S
O386 Cd382 2.352 . S
O386 C389 1.258 . S
C387 O384 1.320 . S
C387 O385 1.214 . S
O388 Cd380 2.277 . S
O388 C383 1.209 . S
C389 O386 1.258 . S
C389 O391 1.282 . S
O390 Cd382 2.277 . S
O390 C383 1.226 . S
O391 Cd382 2.356 . S
O391 C389 1.282 . S
C392 O393 1.306 . S
C392 O395 1.160 . S
O393 C392 1.306 . S
O393 Cd394 2.228 . S
Cd394 O393 2.228 . S
Cd394 O398 2.273 . S
Cd394 O402 2.277 . S
O395 C392 1.160 . S
O395 Cd396 2.203 . S
Cd396 O395 2.203 . S
Cd396 O398 2.411 . S
Cd396 O399 2.333 . S
Cd396 O400 2.352 . S
Cd396 O404 2.277 . S
Cd396 O405 2.356 . S
C397 O402 1.209 . S
C397 O404 1.226 . S
O398 Cd394 2.273 . S
O398 Cd396 2.411 . S
O398 C401 1.320 . S
O399 Cd396 2.333 . S
O399 C401 1.214 . S
O400 Cd396 2.352 . S
O400 C403 1.258 . S
C401 O398 1.320 . S
C401 O399 1.214 . S
O402 Cd394 2.277 . S
O402 C397 1.209 . S
C403 O400 1.258 . S
C403 O405 1.282 . S
O404 Cd396 2.277 . S
O404 C397 1.226 . S
O405 Cd396 2.356 . S
O405 C403 1.282 . S
C406 O407 1.306 . S
C406 O409 1.160 . S
O407 C406 1.306 . S
O407 Cd408 2.228 . S
Cd408 O407 2.228 . S
Cd408 O412 2.273 . S
Cd408 O416 2.277 . S
O409 C406 1.160 . S
O409 Cd410 2.203 . S
Cd410 O409 2.203 . S
Cd410 O412 2.411 . S
Cd410 O413 2.333 . S
Cd410 O414 2.352 . S
Cd410 O418 2.277 . S
Cd410 O419 2.356 . S
C411 O416 1.209 . S
C411 O418 1.226 . S
O412 Cd408 2.273 . S
O412 Cd410 2.411 . S
O412 C415 1.320 . S
O413 Cd410 2.333 . S
O413 C415 1.214 . S
O414 Cd410 2.352 . S
O414 C417 1.258 . S
C415 O412 1.320 . S
C415 O413 1.214 . S
O416 Cd408 2.277 . S
O416 C411 1.209 . S
C417 O414 1.258 . S
C417 O419 1.282 . S
O418 Cd410 2.277 . S
O418 C411 1.226 . S
O419 Cd410 2.356 . S
O419 C417 1.282 . S
C420 O421 1.306 . S
C420 O423 1.160 . S
O421 C420 1.306 . S
O421 Cd422 2.228 . S
Cd422 O421 2.228 . S
Cd422 O426 2.273 . S
Cd422 O430 2.277 . S
O423 C420 1.160 . S
O423 Cd424 2.203 . S
Cd424 O423 2.203 . S
Cd424 O426 2.411 . S
Cd424 O427 2.333 . S
Cd424 O428 2.352 . S
Cd424 O432 2.277 . S
Cd424 O433 2.356 . S
C425 O430 1.209 . S
C425 O432 1.226 . S
O426 Cd422 2.273 . S
O426 Cd424 2.411 . S
O426 C429 1.320 . S
O427 Cd424 2.333 . S
O427 C429 1.214 . S
O428 Cd424 2.352 . S
O428 C431 1.258 . S
C429 O426 1.320 . S
C429 O427 1.214 . S
O430 Cd422 2.277 . S
O430 C425 1.209 . S
C431 O428 1.258 . S
C431 O433 1.282 . S
O432 Cd424 2.277 . S
O432 C425 1.226 . S
O433 Cd424 2.356 . S
O433 C431 1.282 . S
C434 O435 1.306 . S
C434 O437 1.160 . S
O435 C434 1.306 . S
O435 Cd436 2.228 . S
Cd436 O435 2.228 . S
Cd436 O440 2.273 . S
Cd436 O444 2.277 . S
O437 C434 1.160 . S
O437 Cd438 2.203 . S
Cd438 O437 2.203 . S
Cd438 O440 2.411 . S
Cd438 O441 2.333 . S
Cd438 O442 2.352 . S
Cd438 O446 2.277 . S
Cd438 O447 2.356 . S
C439 O444 1.209 . S
C439 O446 1.226 . S
O440 Cd436 2.273 . S
O440 Cd438 2.411 . S
O440 C443 1.320 . S
O441 Cd438 2.333 . S
O441 C443 1.214 . S
O442 Cd438 2.352 . S
O442 C445 1.258 . S
C443 O440 1.320 . S
C443 O441 1.214 . S
O444 Cd436 2.277 . S
O444 C439 1.209 . S
C445 O442 1.258 . S
C445 O447 1.282 . S
O446 Cd438 2.277 . S
O446 C439 1.226 . S
O447 Cd438 2.356 . S
O447 C445 1.282 . S
C448 O449 1.306 . S
C448 O451 1.160 . S
O449 C448 1.306 . S
O449 Cd450 2.228 . S
Cd450 O449 2.228 . S
Cd450 O454 2.273 . S
Cd450 O458 2.277 . S
O451 C448 1.160 . S
O451 Cd452 2.203 . S
Cd452 O451 2.203 . S
Cd452 O454 2.411 . S
Cd452 O455 2.333 . S
Cd452 O456 2.352 . S
Cd452 O460 2.277 . S
Cd452 O461 2.356 . S
C453 O458 1.209 . S
C453 O460 1.226 . S
O454 Cd450 2.273 . S
O454 Cd452 2.411 . S
O454 C457 1.320 . S
O455 Cd452 2.333 . S
O455 C457 1.214 . S
O456 Cd452 2.352 . S
O456 C459 1.258 . S
C457 O454 1.320 . S
C457 O455 1.214 . S
O458 Cd450 2.277 . S
O458 C453 1.209 . S
C459 O456 1.258 . S
C459 O461 1.282 . S
O460 Cd452 2.277 . S
O460 C453 1.226 . S
O461 Cd452 2.356 . S
O461 C459 1.282 . S
C462 O463 1.306 . S
C462 O465 1.160 . S
O463 C462 1.306 . S
O463 Cd464 2.228 . S
Cd464 O463 2.228 . S
Cd464 O468 2.273 . S
Cd464 O472 2.277 . S
O465 C462 1.160 . S
O465 Cd466 2.203 . S
Cd466 O465 2.203 . S
Cd466 O468 2.411 . S
Cd466 O469 2.333 . S
Cd466 O470 2.352 . S
Cd466 O474 2.277 . S
Cd466 O475 2.356 . S
C467 O472 1.209 . S
C467 O474 1.226 . S
O468 Cd464 2.273 . S
O468 Cd466 2.411 . S
O468 C471 1.320 . S
O469 Cd466 2.333 . S
O469 C471 1.214 . S
O470 Cd466 2.352 . S
O470 C473 1.258 . S
C471 O468 1.320 . S
C471 O469 1.214 . S
O472 Cd464 2.277 . S
O472 C467 1.209 . S
C473 O470 1.258 . S
C473 O475 1.282 . S
O474 Cd466 2.277 . S
O474 C467 1.226 . S
O475 Cd466 2.356 . S
O475 C473 1.282 . S
C476 O477 1.306 . S
C476 O479 1.160 . S
O477 C476 1.306 . S
O477 Cd478 2.228 . S
Cd478 O477 2.228 . S
Cd478 O482 2.273 . S
Cd478 O486 2.277 . S
O479 C476 1.160 . S
O479 Cd480 2.203 . S
Cd480 O479 2.203 . S
Cd480 O482 2.411 . S
Cd480 O483 2.333 . S
Cd480 O484 2.352 . S
Cd480 O488 2.277 . S
Cd480 O489 2.356 . S
C481 O486 1.209 . S
C481 O488 1.226 . S
O482 Cd478 2.273 . S
O482 Cd480 2.411 . S
O482 C485 1.320 . S
O483 Cd480 2.333 . S
O483 C485 1.214 . S
O484 Cd480 2.352 . S
O484 C487 1.258 . S
C485 O482 1.320 . S
C485 O483 1.214 . S
O486 Cd478 2.277 . S
O486 C481 1.209 . S
C487 O484 1.258 . S
C487 O489 1.282 . S
O488 Cd480 2.277 . S
O488 C481 1.226 . S
O489 Cd480 2.356 . S
O489 C487 1.282 . S
C490 O491 1.306 . S
C490 O493 1.160 . S
O491 C490 1.306 . S
O491 Cd492 2.228 . S
Cd492 O491 2.228 . S
Cd492 O496 2.273 . S
Cd492 O500 2.277 . S
O493 C490 1.160 . S
O493 Cd494 2.203 . S
Cd494 O493 2.203 . S
Cd494 O496 2.411 . S
Cd494 O497 2.333 . S
Cd494 O498 2.352 . S
Cd494 O502 2.277 . S
Cd494 O503 2.356 . S
C495 O500 1.209 . S
C495 O502 1.226 . S
O496 Cd492 2.273 . S
O496 Cd494 2.411 . S
O496 C499 1.320 . S
O497 Cd494 2.333 . S
O497 C499 1.214 . S
O498 Cd494 2.352 . S
O498 C501 1.258 . S
C499 O496 1.320 . S
C499 O497 1.214 . S
O500 Cd492 2.277 . S
O500 C495 1.209 . S
C501 O498 1.258 . S
C501 O503 1.282 . S
O502 Cd494 2.277 . S
O502 C495 1.226 . S
O503 Cd494 2.356 . S
O503 C501 1.282 . S
C504 O505 1.306 . S
C504 O507 1.160 . S
O505 C504 1.306 . S
O505 Cd506 2.228 . S
Cd506 O505 2.228 . S
Cd506 O510 2.273 . S
Cd506 O514 2.277 . S
O507 C504 1.160 . S
O507 Cd508 2.203 . S
Cd508 O507 2.203 . S
Cd508 O510 2.411 . S
Cd508 O511 2.333 . S
Cd508 O512 2.352 . S
Cd508 O516 2.277 . S
Cd508 O517 2.356 . S
C509 O514 1.209 . S
C509 O516 1.226 . S
O510 Cd506 2.273 . S
O510 Cd508 2.411 . S
O510 C513 1.320 . S
O511 Cd508 2.333 . S
O511 C513 1.214 . S
O512 Cd508 2.352 . S
O512 C515 1.258 . S
C513 O510 1.320 . S
C513 O511 1.214 . S
O514 Cd506 2.277 . S
O514 C509 1.209 . S
C515 O512 1.258 . S
C515 O517 1.282 . S
O516 Cd508 2.277 . S
O516 C509 1.226 . S
O517 Cd508 2.356 . S
O517 C515 1.282 . S
C518 O519 1.306 . S
C518 O521 1.160 . S
O519 C518 1.306 . S
O519 Cd520 2.228 . S
Cd520 O519 2.228 . S
Cd520 O524 2.273 . S
Cd520 O528 2.277 . S
O521 C518 1.160 . S
O521 Cd522 2.203 . S
Cd522 O521 2.203 . S
Cd522 O524 2.411 . S
Cd522 O525 2.333 . S
Cd522 O526 2.352 . S
Cd522 O530 2.277 . S
Cd522 O531 2.356 . S
C523 O528 1.209 . S
C523 O530 1.226 . S
O524 Cd520 2.273 . S
O524 Cd522 2.411 . S
O524 C527 1.320 . S
O525 Cd522 2.333 . S
O525 C527 1.214 . S
O526 Cd522 2.352 . S
O526 C529 1.258 . S
C527 O524 1.320 . S
C527 O525 1.214 . S
O528 Cd520 2.277 . S
O528 C523 1.209 . S
C529 O526 1.258 . S
C529 O531 1.282 . S
O530 Cd522 2.277 . S
O530 C523 1.226 . S
O531 Cd522 2.356 . S
O531 C529 1.282 . S
C532 O533 1.306 . S
C532 O535 1.160 . S
O533 C532 1.306 . S
O533 Cd534 2.228 . S
Cd534 O533 2.228 . S
Cd534 O538 2.273 . S
Cd534 O542 2.277 . S
O535 C532 1.160 . S
O535 Cd536 2.203 . S
Cd536 O535 2.203 . S
Cd536 O538 2.411 . S
Cd536 O539 2.333 . S
Cd536 O540 2.352 . S
Cd536 O544 2.277 . S
Cd536 O545 2.356 . S
C537 O542 1.209 . S
C537 O544 1.226 . S
O538 Cd534 2.273 . S
O538 Cd536 2.411 . S
O538 C541 1.320 . S
O539 Cd536 2.333 . S
O539 C541 1.214 . S
O540 Cd536 2.352 . S
O540 C543 1.258 . S
C541 O538 1.320 . S
C541 O539 1.214 . S
O542 Cd534 2.277 . S
O542 C537 1.209 . S
C543 O540 1.258 . S
C543 O545 1.282 . S
O544 Cd536 2.277 . S
O544 C537 1.226 . S
O545 Cd536 2.356 . S
O545 C543 1.282 . S
C546 O547 1.306 . S
C546 O549 1.160 . S
O547 C546 1.306 . S
O547 Cd548 2.228 . S
Cd548 O547 2.228 . S
Cd548 O552 2.273 . S
Cd548 O556 2.277 . S
O549 C546 1.160 . S
O549 Cd550 2.203 . S
Cd550 O549 2.203 . S
Cd550 O552 2.411 . S
Cd550 O553 2.333 . S
Cd550 O554 2.352 . S
Cd550 O558 2.277 . S
Cd550 O559 2.356 . S
C551 O556 1.209 . S
C551 O558 1.226 . S
O552 Cd548 2.273 . S
O552 Cd550 2.411 . S
O552 C555 1.320 . S
O553 Cd550 2.333 . S
O553 C555 1.214 . S
O554 Cd550 2.352 . S
O554 C557 1.258 . S
C555 O552 1.320 . S
C555 O553 1.214 . S
O556 Cd548 2.277 . S
O556 C551 1.209 . S
C557 O554 1.258 . S
C557 O559 1.282 . S
O558 Cd550 2.277 . S
O558 C551 1.226 . S
O559 Cd550 2.356 . S
O559 C557 1.282 . S
C560 O561 1.306 . S
C560 O563 1.160 . S
O561 C560 1.306 . S
O561 Cd562 2.228 . S
Cd562 O561 2.228 . S
Cd562 O566 2.273 . S
Cd562 O570 2.277 . S
O563 C560 1.160 . S
O563 Cd564 2.203 . S
Cd564 O563 2.203 . S
Cd564 O566 2.411 . S
Cd564 O567 2.333 . S
Cd564 O568 2.352 . S
Cd564 O572 2.277 . S
Cd564 O573 2.356 . S
C565 O570 1.209 . S
C565 O572 1.226 . S
O566 Cd562 2.273 . S
O566 Cd564 2.411 . S
O566 C569 1.320 . S
O567 Cd564 2.333 . S
O567 C569 1.214 . S
O568 Cd564 2.352 . S
O568 C571 1.258 . S
C569 O566 1.320 . S
C569 O567 1.214 . S
O570 Cd562 2.277 . S
O570 C565 1.209 . S
C571 O568 1.258 . S
C571 O573 1.282 . S
O572 Cd564 2.277 . S
O572 C565 1.226 . S
O573 Cd564 2.356 . S
O573 C571 1.282 . S
C574 O575 1.306 . S
C574 O577 1.160 . S
O575 C574 1.306 . S
O575 Cd576 2.228 . S
Cd576 O575 2.228 . S
Cd576 O580 2.273 . S
Cd576 O584 2.277 . S
O577 C574 1.160 . S
O577 Cd578 2.203 . S
Cd578 O577 2.203 . S
Cd578 O580 2.411 . S
Cd578 O581 2.333 . S
Cd578 O582 2.352 . S
Cd578 O586 2.277 . S
Cd578 O587 2.356 . S
C579 O584 1.209 . S
C579 O586 1.226 . S
O580 Cd576 2.273 . S
O580 Cd578 2.411 . S
O580 C583 1.320 . S
O581 Cd578 2.333 . S
O581 C583 1.214 . S
O582 Cd578 2.352 . S
O582 C585 1.258 . S
C583 O580 1.320 . S
C583 O581 1.214 . S
O584 Cd576 2.277 . S
O584 C579 1.209 . S
C585 O582 1.258 . S
C585 O587 1.282 . S
O586 Cd578 2.277 . S
O586 C579 1.226 . S
O587 Cd578 2.356 . S
O587 C585 1.282 . S
C588 O589 1.306 . S
C588 O591 1.160 . S
O589 C588 1.306 . S
O589 Cd590 2.228 . S
Cd590 O589 2.228 . S
Cd590 O594 2.273 . S
Cd590 O598 2.277 . S
O591 C588 1.160 . S
O591 Cd592 2.203 . S
Cd592 O591 2.203 . S
Cd592 O594 2.411 . S
Cd592 O595 2.333 . S
Cd592 O596 2.352 . S
Cd592 O600 2.277 . S
Cd592 O601 2.356 . S
C593 O598 1.209 . S
C593 O600 1.226 . S
O594 Cd590 2.273 . S
O594 Cd592 2.411 . S
O594 C597 1.320 . S
O595 Cd592 2.333 . S
O595 C597 1.214 . S
O596 Cd592 2.352 . S
O596 C599 1.258 . S
C597 O594 1.320 . S
C597 O595 1.214 . S
O598 Cd590 2.277 . S
O598 C593 1.209 . S
C599 O596 1.258 . S
C599 O601 1.282 . S
O600 Cd592 2.277 . S
O600 C593 1.226 . S
O601 Cd592 2.356 . S
O601 C599 1.282 . S
C602 O603 1.306 . S
C602 O605 1.160 . S
O603 C602 1.306 . S
O603 Cd604 2.228 . S
Cd604 O603 2.228 . S
Cd604 O608 2.273 . S
Cd604 O612 2.277 . S
O605 C602 1.160 . S
O605 Cd606 2.203 . S
Cd606 O605 2.203 . S
Cd606 O608 2.411 . S
Cd606 O609 2.333 . S
Cd606 O610 2.352 . S
Cd606 O614 2.277 . S
Cd606 O615 2.356 . S
C607 O612 1.209 . S
C607 O614 1.226 . S
O608 Cd604 2.273 . S
O608 Cd606 2.411 . S
O608 C611 1.320 . S
O609 Cd606 2.333 . S
O609 C611 1.214 . S
O610 Cd606 2.352 . S
O610 C613 1.258 . S
C611 O608 1.320 . S
C611 O609 1.214 . S
O612 Cd604 2.277 . S
O612 C607 1.209 . S
C613 O610 1.258 . S
C613 O615 1.282 . S
O614 Cd606 2.277 . S
O614 C607 1.226 . S
O615 Cd606 2.356 . S
O615 C613 1.282 . S
C616 O617 1.306 . S
C616 O619 1.160 . S
O617 C616 1.306 . S
O617 Cd618 2.228 . S
Cd618 O617 2.228 . S
Cd618 O622 2.273 . S
Cd618 O626 2.277 . S
O619 C616 1.160 . S
O619 Cd620 2.203 . S
Cd620 O619 2.203 . S
Cd620 O622 2.411 . S
Cd620 O623 2.333 . S
Cd620 O624 2.352 . S
Cd620 O628 2.277 . S
Cd620 O629 2.356 . S
C621 O626 1.209 . S
C621 O628 1.226 . S
O622 Cd618 2.273 . S
O622 Cd620 2.411 . S
O622 C625 1.320 . S
O623 Cd620 2.333 . S
O623 C625 1.214 . S
O624 Cd620 2.352 . S
O624 C627 1.258 . S
C625 O622 1.320 . S
C625 O623 1.214 . S
O626 Cd618 2.277 . S
O626 C621 1.209 . S
C627 O624 1.258 . S
C627 O629 1.282 . S
O628 Cd620 2.277 . S
O628 C621 1.226 . S
O629 Cd620 2.356 . S
O629 C627 1.282 . S
C630 O631 1.306 . S
C630 O633 1.160 . S
O631 C630 1.306 . S
O631 Cd632 2.228 . S
Cd632 O631 2.228 . S
Cd632 O636 2.273 . S
Cd632 O640 2.277 . S
O633 C630 1.160 . S
O633 Cd634 2.203 . S
Cd634 O633 2.203 . S
Cd634 O636 2.411 . S
Cd634 O637 2.333 . S
Cd634 O638 2.352 . S
Cd634 O642 2.277 . S
Cd634 O643 2.356 . S
C635 O640 1.209 . S
C635 O642 1.226 . S
O636 Cd632 2.273 . S
O636 Cd634 2.411 . S
O636 C639 1.320 . S
O637 Cd634 2.333 . S
O637 C639 1.214 . S
O638 Cd634 2.352 . S
O638 C641 1.258 . S
C639 O636 1.320 . S
C639 O637 1.214 . S
O640 Cd632 2.277 . S
O640 C635 1.209 . S
C641 O638 1.258 . S
C641 O643 1.282 . S
O642 Cd634 2.277 . S
O642 C635 1.226 . S
O643 Cd634 2.356 . S
O643 C641 1.282 . S
C644 O645 1.306 . S
C644 O647 1.160 . S
O645 C644 1.306 . S
O645 Cd646 2.228 . S
Cd646 O645 2.228 . S
Cd646 O650 2.273 . S
Cd646 O654 2.277 . S
O647 C644 1.160 . S
O647 Cd648 2.203 . S
Cd648 O647 2.203 . S
Cd648 O650 2.411 . S
Cd648 O651 2.333 . S
Cd648 O652 2.352 . S
Cd648 O656 2.277 . S
Cd648 O657 2.356 . S
C649 O654 1.209 . S
C649 O656 1.226 . S
O650 Cd646 2.273 . S
O650 Cd648 2.411 . S
O650 C653 1.320 . S
O651 Cd648 2.333 . S
O651 C653 1.214 . S
O652 Cd648 2.352 . S
O652 C655 1.258 . S
C653 O650 1.320 . S
C653 O651 1.214 . S
O654 Cd646 2.277 . S
O654 C649 1.209 . S
C655 O652 1.258 . S
C655 O657 1.282 . S
O656 Cd648 2.277 . S
O656 C649 1.226 . S
O657 Cd648 2.356 . S
O657 C655 1.282 . S
C658 O659 1.306 . S
C658 O661 1.160 . S
O659 C658 1.306 . S
O659 Cd660 2.228 . S
Cd660 O659 2.228 . S
Cd660 O664 2.273 . S
Cd660 O668 2.277 . S
O661 C658 1.160 . S
O661 Cd662 2.203 . S
Cd662 O661 2.203 . S
Cd662 O664 2.411 . S
Cd662 O665 2.333 . S
Cd662 O666 2.352 . S
Cd662 O670 2.277 . S
Cd662 O671 2.356 . S
C663 O668 1.209 . S
C663 O670 1.226 . S
O664 Cd660 2.273 . S
O664 Cd662 2.411 . S
O664 C667 1.320 . S
O665 Cd662 2.333 . S
O665 C667 1.214 . S
O666 Cd662 2.352 . S
O666 C669 1.258 . S
C667 O664 1.320 . S
C667 O665 1.214 . S
O668 Cd660 2.277 . S
O668 C663 1.209 . S
C669 O666 1.258 . S
C669 O671 1.282 . S
O670 Cd662 2.277 . S
O670 C663 1.226 . S
O671 Cd662 2.356 . S
O671 C669 1.282 . S
C672 O673 1.306 . S
C672 O675 1.160 . S
O673 C672 1.306 . S
O673 Cd674 2.228 . S
Cd674 O673 2.228 . S
Cd674 O678 2.273 . S
Cd674 O682 2.277 . S
O675 C672 1.160 . S
O675 Cd676 2.203 . S
Cd676 O675 2.203 . S
Cd676 O678 2.411 . S
Cd676 O679 2.333 . S
Cd676 O680 2.352 . S
Cd676 O684 2.277 . S
Cd676 O685 2.356 . S
C677 O682 1.209 . S
C677 O684 1.226 . S
O678 Cd674 2.273 . S
O678 Cd676 2.411 . S
O678 C681 1.320 . S
O679 Cd676 2.333 . S
O679 C681 1.214 . S
O680 Cd676 2.352 . S
O680 C683 1.258 . S
C681 O678 1.320 . S
C681 O679 1.214 . S
O682 Cd674 2.277 . S
O682 C677 1.209 . S
C683 O680 1.258 . S
C683 O685 1.282 . S
O684 Cd676 2.277 . S
O684 C677 1.226 . S
O685 Cd676 2.356 . S
O685 C683 1.282 . S
C686 O687 1.306 . S
C686 O689 1.160 . S
O687 C686 1.306 . S
O687 Cd688 2.228 . S
Cd688 O687 2.228 . S
Cd688 O692 2.273 . S
Cd688 O696 2.277 . S
O689 C686 1.160 . S
O689 Cd690 2.203 . S
Cd690 O689 2.203 . S
Cd690 O692 2.411 . S
Cd690 O693 2.333 . S
Cd690 O694 2.352 . S
Cd690 O698 2.277 . S
Cd690 O699 2.356 . S
C691 O696 1.209 . S
C691 O698 1.226 . S
O692 Cd688 2.273 . S
O692 Cd690 2.411 . S
O692 C695 1.320 . S
O693 Cd690 2.333 . S
O693 C695 1.214 . S
O694 Cd690 2.352 . S
O694 C697 1.258 . S
C695 O692 1.320 . S
C695 O693 1.214 . S
O696 Cd688 2.277 . S
O696 C691 1.209 . S
C697 O694 1.258 . S
C697 O699 1.282 . S
O698 Cd690 2.277 . S
O698 C691 1.226 . S
O699 Cd690 2.356 . S
O699 C697 1.282 . S
C700 O701 1.306 . S
C700 O703 1.160 . S
O701 C700 1.306 . S
O701 Cd702 2.228 . S
Cd702 O701 2.228 . S
Cd702 O706 2.273 . S
Cd702 O710 2.277 . S
O703 C700 1.160 . S
O703 Cd704 2.203 . S
Cd704 O703 2.203 . S
Cd704 O706 2.411 . S
Cd704 O707 2.333 . S
Cd704 O708 2.352 . S
Cd704 O712 2.277 . S
Cd704 O713 2.356 . S
C705 O710 1.209 . S
C705 O712 1.226 . S
O706 Cd702 2.273 . S
O706 Cd704 2.411 . S
O706 C709 1.320 . S
O707 Cd704 2.333 . S
O707 C709 1.214 . S
O708 Cd704 2.352 . S
O708 C711 1.258 . S
C709 O706 1.320 . S
C709 O707 1.214 . S
O710 Cd702 2.277 . S
O710 C705 1.209 . S
C711 O708 1.258 . S
C711 O713 1.282 . S
O712 Cd704 2.277 . S
O712 C705 1.226 . S
O713 Cd704 2.356 . S
O713 C711 1.282 . S
C714 O715 1.306 . S
C714 O717 1.160 . S
O715 C714 1.306 . S
O715 Cd716 2.228 . S
Cd716 O715 2.228 . S
Cd716 O720 2.273 . S
Cd716 O724 2.277 . S
O717 C714 1.160 . S
O717 Cd718 2.203 . S
Cd718 O717 2.203 . S
Cd718 O720 2.411 . S
Cd718 O721 2.333 . S
Cd718 O722 2.352 . S
Cd718 O726 2.277 . S
Cd718 O727 2.356 . S
C719 O724 1.209 . S
C719 O726 1.226 . S
O720 Cd716 2.273 . S
O720 Cd718 2.411 . S
O720 C723 1.320 . S
O721 Cd718 2.333 . S
O721 C723 1.214 . S
O722 Cd718 2.352 . S
O722 C725 1.258 . S
C723 O720 1.320 . S
C723 O721 1.214 . S
O724 Cd716 2.277 . S
O724 C719 1.209 . S
C725 O722 1.258 . S
C725 O727 1.282 . S
O726 Cd718 2.277 . S
O726 C719 1.226 . S
O727 Cd718 2.356 . S
O727 C725 1.282 . S
C728 O729 1.306 . S
C728 O731 1.160 . S
O729 C728 1.306 . S
O729 Cd730 2.228 . S
Cd730 O729 2.228 . S
Cd730 O734 2.273 . S
Cd730 O738 2.277 . S
O731 C728 1.160 . S
O731 Cd732 2.203 . S
Cd732 O731 2.203 . S
Cd732 O734 2.411 . S
Cd732 O735 2.333 . S
Cd732 O736 2.352 . S
Cd732 O740 2.277 . S
Cd732 O741 2.356 . S
C733 O738 1.209 . S
C733 O740 1.226 . S
O734 Cd730 2.273 . S
O734 Cd732 2.411 . S
O734 C737 1.320 . S
O735 Cd732 2.333 . S
O735 C737 1.214 . S
O736 Cd732 2.352 . S
O736 C739 1.258 . S
C737 O734 1.320 . S
C737 O735 1.214 . S
O738 Cd730 2.277 . S
O738 C733 1.209 . S
C739 O736 1.258 . S
C739 O741 1.282 . S
O740 Cd732 2.277 . S
O740 C733 1.226 . S
O741 Cd732 2.356 . S
O741 C739 1.282 . S
C742 O743 1.306 . S
C742 O745 1.160 . S
O743 C742 1.306 . S
O743 Cd744 2.228 . S
Cd744 O743 2.228 . S
Cd744 O748 2.273 . S
Cd744 O752 2.277 . S
O745 C742 1.160 . S
O745 Cd746 2.203 . S
Cd746 O745 2.203 . S
Cd746 O748 2.411 . S
Cd746 O749 2.333 . S
Cd746 O750 2.352 . S
Cd746 O754 2.277 . S
Cd746 O755 2.356 . S
C747 O752 1.209 . S
C747 O754 1.226 . S
O748 Cd744 2.273 . S
O748 Cd746 2.411 . S
O748 C751 1.320 . S
O749 Cd746 2.333 . S
O749 C751 1.214 . S
O750 Cd746 2.352 . S
O750 C753 1.258 . S
C751 O748 1.320 . S
C751 O749 1.214 . S
O752 Cd744 2.277 . S
O752 C747 1.209 . S
C753 O750 1.258 . S
C753 O755 1.282 . S
O754 Cd746 2.277 . S
O754 C747 1.226 . S
O755 Cd746 2.356 . S
O755 C753 1.282 . S
C756 O757 1.306 . S
C756 O759 1.160 . S
O757 C756 1.306 . S
O757 Cd758 2.228 . S
Cd758 O757 2.228 . S
Cd758 O762 2.273 . S
Cd758 O766 2.277 . S
O759 C756 1.160 . S
O759 Cd760 2.203 . S
Cd760 O759 2.203 . S
Cd760 O762 2.411 . S
Cd760 O763 2.333 . S
Cd760 O764 2.352 . S
Cd760 O768 2.277 . S
Cd760 O769 2.356 . S
C761 O766 1.209 . S
C761 O768 1.226 . S
O762 Cd758 2.273 . S
O762 Cd760 2.411 . S
O762 C765 1.320 . S
O763 Cd760 2.333 . S
O763 C765 1.214 . S
O764 Cd760 2.352 . S
O764 C767 1.258 . S
C765 O762 1.320 . S
C765 O763 1.214 . S
O766 Cd758 2.277 . S
O766 C761 1.209 . S
C767 O764 1.258 . S
C767 O769 1.282 . S
O768 Cd760 2.277 . S
O768 C761 1.226 . S
O769 Cd760 2.356 . S
O769 C767 1.282 . S
C770 O771 1.306 . S
C770 O773 1.160 . S
O771 C770 1.306 . S
O771 Cd772 2.228 . S
Cd772 O771 2.228 . S
Cd772 O776 2.273 . S
Cd772 O780 2.277 . S
O773 C770 1.160 . S
O773 Cd774 2.203 . S
Cd774 O773 2.203 . S
Cd774 O776 2.411 . S
Cd774 O777 2.333 . S
Cd774 O778 2.352 . S
Cd774 O782 2.277 . S
Cd774 O783 2.356 . S
C775 O780 1.209 . S
C775 O782 1.226 . S
O776 Cd772 2.273 . S
O776 Cd774 2.411 . S
O776 C779 1.320 . S
O777 Cd774 2.333 . S
O777 C779 1.214 . S
O778 Cd774 2.352 . S
O778 C781 1.258 . S
C779 O776 1.320 . S
C779 O777 1.214 . S
O780 Cd772 2.277 . S
O780 C775 1.209 . S
C781 O778 1.258 . S
C781 O783 1.282 . S
O782 Cd774 2.277 . S
O782 C775 1.226 . S
O783 Cd774 2.356 . S
O783 C781 1.282 . S
C784 O785 1.306 . S
C784 O787 1.160 . S
O785 C784 1.306 . S
O785 Cd786 2.228 . S
Cd786 O785 2.228 . S
Cd786 O790 2.273 . S
Cd786 O794 2.277 . S
O787 C784 1.160 . S
O787 Cd788 2.203 . S
Cd788 O787 2.203 . S
Cd788 O790 2.411 . S
Cd788 O791 2.333 . S
Cd788 O792 2.352 . S
Cd788 O796 2.277 . S
Cd788 O797 2.356 . S
C789 O794 1.209 . S
C789 O796 1.226 . S
O790 Cd786 2.273 . S
O790 Cd788 2.411 . S
O790 C793 1.320 . S
O791 Cd788 2.333 . S
O791 C793 1.214 . S
O792 Cd788 2.352 . S
O792 C795 1.258 . S
C793 O790 1.320 . S
C793 O791 1.214 . S
O794 Cd786 2.277 . S
O794 C789 1.209 . S
C795 O792 1.258 . S
C795 O797 1.282 . S
O796 Cd788 2.277 . S
O796 C789 1.226 . S
O797 Cd788 2.356 . S
O797 C795 1.282 . S
C798 O799 1.306 . S
C798 O801 1.160 . S
O799 C798 1.306 . S
O799 Cd800 2.228 . S
Cd800 O799 2.228 . S
Cd800 O804 2.273 . S
Cd800 O808 2.277 . S
O801 C798 1.160 . S
O801 Cd802 2.203 . S
Cd802 O801 2.203 . S
Cd802 O804 2.411 . S
Cd802 O805 2.333 . S
Cd802 O806 2.352 . S
Cd802 O810 2.277 . S
Cd802 O811 2.356 . S
C803 O808 1.209 . S
C803 O810 1.226 . S
O804 Cd800 2.273 . S
O804 Cd802 2.411 . S
O804 C807 1.320 . S
O805 Cd802 2.333 . S
O805 C807 1.214 . S
O806 Cd802 2.352 . S
O806 C809 1.258 . S
C807 O804 1.320 . S
C807 O805 1.214 . S
O808 Cd800 2.277 . S
O808 C803 1.209 . S
C809 O806 1.258 . S
C809 O811 1.282 . S
O810 Cd802 2.277 . S
O810 C803 1.226 . S
O811 Cd802 2.356 . S
O811 C809 1.282 . S
C812 O813 1.306 . S
C812 O815 1.160 . S
O813 C812 1.306 . S
O813 Cd814 2.228 . S
Cd814 O813 2.228 . S
Cd814 O818 2.273 . S
Cd814 O822 2.277 . S
O815 C812 1.160 . S
O815 Cd816 2.203 . S
Cd816 O815 2.203 . S
Cd816 O818 2.411 . S
Cd816 O819 2.333 . S
Cd816 O820 2.352 . S
Cd816 O824 2.277 . S
Cd816 O825 2.356 . S
C817 O822 1.209 . S
C817 O824 1.226 . S
O818 Cd814 2.273 . S
O818 Cd816 2.411 . S
O818 C821 1.320 . S
O819 Cd816 2.333 . S
O819 C821 1.214 . S
O820 Cd816 2.352 . S
O820 C823 1.258 . S
C821 O818 1.320 . S
C821 O819 1.214 . S
O822 Cd814 2.277 . S
O822 C817 1.209 . S
C823 O820 1.258 . S
C823 O825 1.282 . S
O824 Cd816 2.277 . S
O824 C817 1.226 . S
O825 Cd816 2.356 . S
O825 C823 1.282 . S
C826 O827 1.306 . S
C826 O829 1.160 . S
O827 C826 1.306 . S
O827 Cd828 2.228 . S
Cd828 O827 2.228 . S
Cd828 O832 2.273 . S
Cd828 O836 2.277 . S
O829 C826 1.160 . S
O829 Cd830 2.203 . S
Cd830 O829 2.203 . S
Cd830 O832 2.411 . S
Cd830 O833 2.333 . S
Cd830 O834 2.352 . S
Cd830 O838 2.277 . S
Cd830 O839 2.356 . S
C831 O836 1.209 . S
C831 O838 1.226 . S
O832 Cd828 2.273 . S
O832 Cd830 2.411 . S
O832 C835 1.320 . S
O833 Cd830 2.333 . S
O833 C835 1.214 . S
O834 Cd830 2.352 . S
O834 C837 1.258 . S
C835 O832 1.320 . S
C835 O833 1.214 . S
O836 Cd828 2.277 . S
O836 C831 1.209 . S
C837 O834 1.258 . S
C837 O839 1.282 . S
O838 Cd830 2.277 . S
O838 C831 1.226 . S
O839 Cd830 2.356 . S
O839 C837 1.282 . S
C840 O841 1.306 . S
C840 O843 1.160 . S
O841 C840 1.306 . S
O841 Cd842 2.228 . S
Cd842 O841 2.228 . S
Cd842 O846 2.273 . S
Cd842 O850 2.277 . S
O843 C840 1.160 . S
O843 Cd844 2.203 . S
Cd844 O843 2.203 . S
Cd844 O846 2.411 . S
Cd844 O847 2.333 . S
Cd844 O848 2.352 . S
Cd844 O852 2.277 . S
Cd844 O853 2.356 . S
C845 O850 1.209 . S
C845 O852 1.226 . S
O846 Cd842 2.273 . S
O846 Cd844 2.411 . S
O846 C849 1.320 . S
O847 Cd844 2.333 . S
O847 C849 1.214 . S
O848 Cd844 2.352 . S
O848 C851 1.258 . S
C849 O846 1.320 . S
C849 O847 1.214 . S
O850 Cd842 2.277 . S
O850 C845 1.209 . S
C851 O848 1.258 . S
C851 O853 1.282 . S
O852 Cd844 2.277 . S
O852 C845 1.226 . S
O853 Cd844 2.356 . S
O853 C851 1.282 . S
C854 O855 1.306 . S
C854 O857 1.160 . S
O855 C854 1.306 . S
O855 Cd856 2.228 . S
Cd856 O855 2.228 . S
Cd856 O860 2.273 . S
Cd856 O864 2.277 . S
O857 C854 1.160 . S
O857 Cd858 2.203 . S
Cd858 O857 2.203 . S
Cd858 O860 2.411 . S
Cd858 O861 2.333 . S
Cd858 O862 2.352 . S
Cd858 O866 2.277 . S
Cd858 O867 2.356 . S
C859 O864 1.209 . S
C859 O866 1.226 . S
O860 Cd856 2.273 . S
O860 Cd858 2.411 . S
O860 C863 1.320 . S
O861 Cd858 2.333 . S
O861 C863 1.214 . S
O862 Cd858 2.352 . S
O862 C865 1.258 . S
C863 O860 1.320 . S
C863 O861 1.214 . S
O864 Cd856 2.277 . S
O864 C859 1.209 . S
C865 O862 1.258 . S
C865 O867 1.282 . S
O866 Cd858 2.277 . S
O866 C859 1.226 . S
O867 Cd858 2.356 . S
O867 C865 1.282 . S
C868 O869 1.306 . S
C868 O871 1.160 . S
O869 C868 1.306 . S
O869 Cd870 2.228 . S
Cd870 O869 2.228 . S
Cd870 O874 2.273 . S
Cd870 O878 2.277 . S
O871 C868 1.160 . S
O871 Cd872 2.203 . S
Cd872 O871 2.203 . S
Cd872 O874 2.411 . S
Cd872 O875 2.333 . S
Cd872 O876 2.352 . S
Cd872 O880 2.277 . S
Cd872 O881 2.356 . S
C873 O878 1.209 . S
C873 O880 1.226 . S
O874 Cd870 2.273 . S
O874 Cd872 2.411 . S
O874 C877 1.320 . S
O875 Cd872 2.333 . S
O875 C877 1.214 . S
O876 Cd872 2.352 . S
O876 C879 1.258 . S
C877 O874 1.320 . S
C877 O875 1.214 . S
O878 Cd870 2.277 . S
O878 C873 1.209 . S
C879 O876 1.258 . S
C879 O881 1.282 . S
O880 Cd872 2.277 . S
O880 C873 1.226 . S
O881 Cd872 2.356 . S
O881 C879 1.282 . S
C882 O883 1.306 . S
C882 O885 1.160 . S
O883 C882 1.306 . S
O883 Cd884 2.228 . S
Cd884 O883 2.228 . S
Cd884 O888 2.273 . S
Cd884 O892 2.277 . S
O885 C882 1.160 . S
O885 Cd886 2.203 . S
Cd886 O885 2.203 . S
Cd886 O888 2.411 . S
Cd886 O889 2.333 . S
Cd886 O890 2.352 . S
Cd886 O894 2.277 . S
Cd886 O895 2.356 . S
C887 O892 1.209 . S
C887 O894 1.226 . S
O888 Cd884 2.273 . S
O888 Cd886 2.411 . S
O888 C891 1.320 . S
O889 Cd886 2.333 . S
O889 C891 1.214 . S
O890 Cd886 2.352 . S
O890 C893 1.258 . S
C891 O888 1.320 . S
C891 O889 1.214 . S
O892 Cd884 2.277 . S
O892 C887 1.209 . S
C893 O890 1.258 . S
C893 O895 1.282 . S
O894 Cd886 2.277 . S
O894 C887 1.226 . S
O895 Cd886 2.356 . S
O895 C893 1.282 . S
C896 O897 1.306 . S
C896 O899 1.160 . S
O897 C896 1.306 . S
O897 Cd898 2.228 . S
Cd898 O897 2.228 . S
Cd898 O902 2.273 . S
Cd898 O906 2.277 . S
O899 C896 1.160 . S
O899 Cd900 2.203 . S
Cd900 O899 2.203 . S
Cd900 O902 2.411 . S
Cd900 O903 2.333 . S
Cd900 O904 2.352 . S
Cd900 O908 2.277 . S
Cd900 O909 2.356 . S
C901 O906 1.209 . S
C901 O908 1.226 . S
O902 Cd898 2.273 . S
O902 Cd900 2.411 . S
O902 C905 1.320 . S
O903 Cd900 2.333 . S
O903 C905 1.214 . S
O904 Cd900 2.352 . S
O904 C907 1.258 . S
C905 O902 1.320 . S
C905 O903 1.214 . S
O906 Cd898 2.277 . S
O906 C901 1.209 . S
C907 O904 1.258 . S
C907 O909 1.282 . S
O908 Cd900 2.277 . S
O908 C901 1.226 . S
O909 Cd900 2.356 . S
O909 C907 1.282 . S
C910 O911 1.306 . S
C910 O913 1.160 . S
O911 C910 1.306 . S
O911 Cd912 2.228 . S
Cd912 O911 2.228 . S
Cd912 O916 2.273 . S
Cd912 O920 2.277 . S
O913 C910 1.160 . S
O913 Cd914 2.203 . S
Cd914 O913 2.203 . S
Cd914 O916 2.411 . S
Cd914 O917 2.333 . S
Cd914 O918 2.352 . S
Cd914 O922 2.277 . S
Cd914 O923 2.356 . S
C915 O920 1.209 . S
C915 O922 1.226 . S
O916 Cd912 2.273 . S
O916 Cd914 2.411 . S
O916 C919 1.320 . S
O917 Cd914 2.333 . S
O917 C919 1.214 . S
O918 Cd914 2.352 . S
O918 C921 1.258 . S
C919 O916 1.320 . S
C919 O917 1.214 . S
O920 Cd912 2.277 . S
O920 C915 1.209 . S
C921 O918 1.258 . S
C921 O923 1.282 . S
O922 Cd914 2.277 . S
O922 C915 1.226 . S
O923 Cd914 2.356 . S
O923 C921 1.282 . S
C924 O925 1.306 . S
C924 O927 1.160 . S
O925 C924 1.306 . S
O925 Cd926 2.228 . S
Cd926 O925 2.228 . S
Cd926 O930 2.273 . S
Cd926 O934 2.277 . S
O927 C924 1.160 . S
O927 Cd928 2.203 . S
Cd928 O927 2.203 . S
Cd928 O930 2.411 . S
Cd928 O931 2.333 . S
Cd928 O932 2.352 . S
Cd928 O936 2.277 . S
Cd928 O937 2.356 . S
C929 O934 1.209 . S
C929 O936 1.226 . S
O930 Cd926 2.273 . S
O930 Cd928 2.411 . S
O930 C933 1.320 . S
O931 Cd928 2.333 . S
O931 C933 1.214 . S
O932 Cd928 2.352 . S
O932 C935 1.258 . S
C933 O930 1.320 . S
C933 O931 1.214 . S
O934 Cd926 2.277 . S
O934 C929 1.209 . S
C935 O932 1.258 . S
C935 O937 1.282 . S
O936 Cd928 2.277 . S
O936 C929 1.226 . S
O937 Cd928 2.356 . S
O937 C935 1.282 . S
C938 O939 1.306 . S
C938 O941 1.160 . S
O939 C938 1.306 . S
O939 Cd940 2.228 . S
Cd940 O939 2.228 . S
Cd940 O944 2.273 . S
Cd940 O948 2.277 . S
O941 C938 1.160 . S
O941 Cd942 2.203 . S
Cd942 O941 2.203 . S
Cd942 O944 2.411 . S
Cd942 O945 2.333 . S
Cd942 O946 2.352 . S
Cd942 O950 2.277 . S
Cd942 O951 2.356 . S
C943 O948 1.209 . S
C943 O950 1.226 . S
O944 Cd940 2.273 . S
O944 Cd942 2.411 . S
O944 C947 1.320 . S
O945 Cd942 2.333 . S
O945 C947 1.214 . S
O946 Cd942 2.352 . S
O946 C949 1.258 . S
C947 O944 1.320 . S
C947 O945 1.214 . S
O948 Cd940 2.277 . S
O948 C943 1.209 . S
C949 O946 1.258 . S
C949 O951 1.282 . S
O950 Cd942 2.277 . S
O950 C943 1.226 . S
O951 Cd942 2.356 . S
O951 C949 1.282 . S
C952 O953 1.306 . S
C952 O955 1.160 . S
O953 C952 1.306 . S
O953 Cd954 2.228 . S
Cd954 O953 2.228 . S
Cd954 O958 2.273 . S
Cd954 O962 2.277 . S
O955 C952 1.160 . S
O955 Cd956 2.203 . S
Cd956 O955 2.203 . S
Cd956 O958 2.411 . S
Cd956 O959 2.333 . S
Cd956 O960 2.352 . S
Cd956 O964 2.277 . S
Cd956 O965 2.356 . S
C957 O962 1.209 . S
C957 O964 1.226 . S
O958 Cd954 2.273 . S
O958 Cd956 2.411 . S
O958 C961 1.320 . S
O959 Cd956 2.333 . S
O959 C961 1.214 . S
O960 Cd956 2.352 . S
O960 C963 1.258 . S
C961 O958 1.320 . S
C961 O959 1.214 . S
O962 Cd954 2.277 . S
O962 C957 1.209 . S
C963 O960 1.258 . S
C963 O965 1.282 . S
O964 Cd956 2.277 . S
O964 C957 1.226 . S
O965 Cd956 2.356 . S
O965 C963 1.282 . S
C966 O967 1.306 . S
C966 O969 1.160 . S
O967 C966 1.306 . S
O967 Cd968 2.228 . S
Cd968 O967 2.228 . S
Cd968 O972 2.273 . S
Cd968 O976 2.277 . S
O969 C966 1.160 . S
O969 Cd970 2.203 . S
Cd970 O969 2.203 . S
Cd970 O972 2.411 . S
Cd970 O973 2.333 . S
Cd970 O974 2.352 . S
Cd970 O978 2.277 . S
Cd970 O979 2.356 . S
C971 O976 1.209 . S
C971 O978 1.226 . S
O972 Cd968 2.273 . S
O972 Cd970 2.411 . S
O972 C975 1.320 . S
O973 Cd970 2.333 . S
O973 C975 1.214 . S
O974 Cd970 2.352 . S
O974 C977 1.258 . S
C975 O972 1.320 . S
C975 O973 1.214 . S
O976 Cd968 2.277 . S
O976 C971 1.209 . S
C977 O974 1.258 . S
C977 O979 1.282 . S
O978 Cd970 2.277 . S
O978 C971 1.226 . S
O979 Cd970 2.356 . S
O979 C977 1.282 . S
C980 O981 1.306 . S
C980 O983 1.160 . S
O981 C980 1.306 . S
O981 Cd982 2.228 . S
Cd982 O981 2.228 . S
Cd982 O986 2.273 . S
Cd982 O990 2.277 . S
O983 C980 1.160 . S
O983 Cd984 2.203 . S
Cd984 O983 2.203 . S
Cd984 O986 2.411 . S
Cd984 O987 2.333 . S
Cd984 O988 2.352 . S
Cd984 O992 2.277 . S
Cd984 O993 2.356 . S
C985 O990 1.209 . S
C985 O992 1.226 . S
O986 Cd982 2.273 . S
O986 Cd984 2.411 . S
O986 C989 1.320 . S
O987 Cd984 2.333 . S
O987 C989 1.214 . S
O988 Cd984 2.352 . S
O988 C991 1.258 . S
C989 O986 1.320 . S
C989 O987 1.214 . S
O990 Cd982 2.277 . S
O990 C985 1.209 . S
C991 O988 1.258 . S
C991 O993 1.282 . S
O992 Cd984 2.277 . S
O992 C985 1.226 . S
O993 Cd984 2.356 . S
O993 C991 1.282 . S
C994 O995 1.306 . S
C994 O997 1.160 . S
O995 C994 1.306 . S
O995 Cd996 2.228 . S
Cd996 O995 2.228 . S
Cd996 O1000 2.273 . S
Cd996 O1004 2.277 . S
O997 C994 1.160 . S
O997 Cd998 2.203 . S
Cd998 O997 2.203 . S
Cd998 O1000 2.411 . S
Cd998 O1001 2.333 . S
Cd998 O1002 2.352 . S
Cd998 O1006 2.277 . S
Cd998 O1007 2.356 . S
C999 O1004 1.209 . S
C999 O1006 1.226 . S
O1000 Cd996 2.273 . S
O1000 Cd998 2.411 . S
O1000 C1003 1.320 . S
O1001 Cd998 2.333 . S
O1001 C1003 1.214 . S
O1002 Cd998 2.352 . S
O1002 C1005 1.258 . S
C1003 O1000 1.320 . S
C1003 O1001 1.214 . S
O1004 Cd996 2.277 . S
O1004 C999 1.209 . S
C1005 O1002 1.258 . S
C1005 O1007 1.282 . S
O1006 Cd998 2.277 . S
O1006 C999 1.226 . S
O1007 Cd998 2.356 . S
O1007 C1005 1.282 . S
C1008 O1009 1.306 . S
C1008 O1011 1.160 . S
O1009 C1008 1.306 . S
O1009 Cd1010 2.228 . S
Cd1010 O1009 2.228 . S
Cd1010 O1014 2.273 . S
Cd1010 O1018 2.277 . S
O1011 C1008 1.160 . S
O1011 Cd1012 2.203 . S
Cd1012 O1011 2.203 . S
Cd1012 O1014 2.411 . S
Cd1012 O1015 2.333 . S
Cd1012 O1016 2.352 . S
Cd1012 O1020 2.277 . S
Cd1012 O1021 2.356 . S
C1013 O1018 1.209 . S
C1013 O1020 1.226 . S
O1014 Cd1010 2.273 . S
O1014 Cd1012 2.411 . S
O1014 C1017 1.320 . S
O1015 Cd1012 2.333 . S
O1015 C1017 1.214 . S
O1016 Cd1012 2.352 . S
O1016 C1019 1.258 . S
C1017 O1014 1.320 . S
C1017 O1015 1.214 . S
O1018 Cd1010 2.277 . S
O1018 C1013 1.209 . S
C1019 O1016 1.258 . S
C1019 O1021 1.282 . S
O1020 Cd1012 2.277 . S
O1020 C1013 1.226 . S
O1021 Cd1012 2.356 . S
O1021 C1019 1.282 . S
C1022 O1023 1.306 . S
C1022 O1025 1.160 . S
O1023 C1022 1.306 . S
O1023 Cd1024 2.228 . S
Cd1024 O1023 2.228 . S
Cd1024 O1028 2.273 . S
Cd1024 O1032 2.277 . S
O1025 C1022 1.160 . S
O1025 Cd1026 2.203 . S
Cd1026 O1025 2.203 . S
Cd1026 O1028 2.411 . S
Cd1026 O1029 2.333 . S
Cd1026 O1030 2.352 . S
Cd1026 O1034 2.277 . S
Cd1026 O1035 2.356 . S
C1027 O1032 1.209 . S
C1027 O1034 1.226 . S
O1028 Cd1024 2.273 . S
O1028 Cd1026 2.411 . S
O1028 C1031 1.320 . S
O1029 Cd1026 2.333 . S
O1029 C1031 1.214 . S
O1030 Cd1026 2.352 . S
O1030 C1033 1.258 . S
C1031 O1028 1.320 . S
C1031 O1029 1.214 . S
O1032 Cd1024 2.277 . S
O1032 C1027 1.209 . S
C1033 O1030 1.258 . S
C1033 O1035 1.282 . S
O1034 Cd1026 2.277 . S
O1034 C1027 1.226 . S
O1035 Cd1026 2.356 . S
O1035 C1033 1.282 . S
C1036 O1037 1.306 . S
C1036 O1039 1.160 . S
O1037 C1036 1.306 . S
O1037 Cd1038 2.228 . S
Cd1038 O1037 2.228 . S
Cd1038 O1042 2.273 . S
Cd1038 O1046 2.277 . S
O1039 C1036 1.160 . S
O1039 Cd1040 2.203 . S
Cd1040 O1039 2.203 . S
Cd1040 O1042 2.411 . S
Cd1040 O1043 2.333 . S
Cd1040 O1044 2.352 . S
Cd1040 O1048 2.277 . S
Cd1040 O1049 2.356 . S
C1041 O1046 1.209 . S
C1041 O1048 1.226 . S
O1042 Cd1038 2.273 . S
O1042 Cd1040 2.411 . S
O1042 C1045 1.320 . S
O1043 Cd1040 2.333 . S
O1043 C1045 1.214 . S
O1044 Cd1040 2.352 . S
O1044 C1047 1.258 . S
C1045 O1042 1.320 . S
C1045 O1043 1.214 . S
O1046 Cd1038 2.277 . S
O1046 C1041 1.209 . S
C1047 O1044 1.258 . S
C1047 O1049 1.282 . S
O1048 Cd1040 2.277 . S
O1048 C1041 1.226 . S
O1049 Cd1040 2.356 . S
O1049 C1047 1.282 . S
C1050 O1051 1.306 . S
C1050 O1053 1.160 . S
O1051 C1050 1.306 . S
O1051 Cd1052 2.228 . S
Cd1052 O1051 2.228 . S
Cd1052 O1056 2.273 . S
Cd1052 O1060 2.277 . S
O1053 C1050 1.160 . S
O1053 Cd1054 2.203 . S
Cd1054 O1053 2.203 . S
Cd1054 O1056 2.411 . S
Cd1054 O1057 2.333 . S
Cd1054 O1058 2.352 . S
Cd1054 O1062 2.277 . S
Cd1054 O1063 2.356 . S
C1055 O1060 1.209 . S
C1055 O1062 1.226 . S
O1056 Cd1052 2.273 . S
O1056 Cd1054 2.411 . S
O1056 C1059 1.320 . S
O1057 Cd1054 2.333 . S
O1057 C1059 1.214 . S
O1058 Cd1054 2.352 . S
O1058 C1061 1.258 . S
C1059 O1056 1.320 . S
C1059 O1057 1.214 . S
O1060 Cd1052 2.277 . S
O1060 C1055 1.209 . S
C1061 O1058 1.258 . S
C1061 O1063 1.282 . S
O1062 Cd1054 2.277 . S
O1062 C1055 1.226 . S
O1063 Cd1054 2.356 . S
O1063 C1061 1.282 . S
C1064 O1065 1.306 . S
C1064 O1067 1.160 . S
O1065 C1064 1.306 . S
O1065 Cd1066 2.228 . S
Cd1066 O1065 2.228 . S
Cd1066 O1070 2.273 . S
Cd1066 O1074 2.277 . S
O1067 C1064 1.160 . S
O1067 Cd1068 2.203 . S
Cd1068 O1067 2.203 . S
Cd1068 O1070 2.411 . S
Cd1068 O1071 2.333 . S
Cd1068 O1072 2.352 . S
Cd1068 O1076 2.277 . S
Cd1068 O1077 2.356 . S
C1069 O1074 1.209 . S
C1069 O1076 1.226 . S
O1070 Cd1066 2.273 . S
O1070 Cd1068 2.411 . S
O1070 C1073 1.320 . S
O1071 Cd1068 2.333 . S
O1071 C1073 1.214 . S
O1072 Cd1068 2.352 . S
O1072 C1075 1.258 . S
C1073 O1070 1.320 . S
C1073 O1071 1.214 . S
O1074 Cd1066 2.277 . S
O1074 C1069 1.209 . S
C1075 O1072 1.258 . S
C1075 O1077 1.282 . S
O1076 Cd1068 2.277 . S
O1076 C1069 1.226 . S
O1077 Cd1068 2.356 . S
O1077 C1075 1.282 . S
C1078 O1079 1.306 . S
C1078 O1081 1.160 . S
O1079 C1078 1.306 . S
O1079 Cd1080 2.228 . S
Cd1080 O1079 2.228 . S
Cd1080 O1084 2.273 . S
Cd1080 O1088 2.277 . S
O1081 C1078 1.160 . S
O1081 Cd1082 2.203 . S
Cd1082 O1081 2.203 . S
Cd1082 O1084 2.411 . S
Cd1082 O1085 2.333 . S
Cd1082 O1086 2.352 . S
Cd1082 O1090 2.277 . S
Cd1082 O1091 2.356 . S
C1083 O1088 1.209 . S
C1083 O1090 1.226 . S
O1084 Cd1080 2.273 . S
O1084 Cd1082 2.411 . S
O1084 C1087 1.320 . S
O1085 Cd1082 2.333 . S
O1085 C1087 1.214 . S
O1086 Cd1082 2.352 . S
O1086 C1089 1.258 . S
C1087 O1084 1.320 . S
C1087 O1085 1.214 . S
O1088 Cd1080 2.277 . S
O1088 C1083 1.209 . S
C1089 O1086 1.258 . S
C1089 O1091 1.282 . S
O1090 Cd1082 2.277 . S
O1090 C1083 1.226 . S
O1091 Cd1082 2.356 . S
O1091 C1089 1.282 . S
C1092 O1093 1.306 . S
C1092 O1095 1.160 . S
O1093 C1092 1.306 . S
O1093 Cd1094 2.228 . S
Cd1094 O1093 2.228 . S
Cd1094 O1098 2.273 . S
Cd1094 O1102 2.277 . S
O1095 C1092 1.160 . S
O1095 Cd1096 2.203 . S
Cd1096 O1095 2.203 . S
Cd1096 O1098 2.411 . S
Cd1096 O1099 2.333 . S
Cd1096 O1100 2.352 . S
Cd1096 O1104 2.277 . S
Cd1096 O1105 2.356 . S
C1097 O1102 1.209 . S
C1097 O1104 1.226 . S
O1098 Cd1094 2.273 . S
O1098 Cd1096 2.411 . S
O1098 C1101 1.320 . S
O1099 Cd1096 2.333 . S
O1099 C1101 1.214 . S
O1100 Cd1096 2.352 . S
O1100 C1103 1.258 . S
C1101 O1098 1.320 . S
C1101 O1099 1.214 . S
O1102 Cd1094 2.277 . S
O1102 C1097 1.209 . S
C1103 O1100 1.258 . S
C1103 O1105 1.282 . S
O1104 Cd1096 2.277 . S
O1104 C1097 1.226 . S
O1105 Cd1096 2.356 . S
O1105 C1103 1.282 . S
C1106 O1107 1.306 . S
C1106 O1109 1.160 . S
O1107 C1106 1.306 . S
O1107 Cd1108 2.228 . S
Cd1108 O1107 2.228 . S
Cd1108 O1112 2.273 . S
Cd1108 O1116 2.277 . S
O1109 C1106 1.160 . S
O1109 Cd1110 2.203 . S
Cd1110 O1109 2.203 . S
Cd1110 O1112 2.411 . S
Cd1110 O1113 2.333 . S
Cd1110 O1114 2.352 . S
Cd1110 O1118 2.277 . S
Cd1110 O1119 2.356 . S
C1111 O1116 1.209 . S
C1111 O1118 1.226 . S
O1112 Cd1108 2.273 . S
O1112 Cd1110 2.411 . S
O1112 C1115 1.320 . S
O1113 Cd1110 2.333 . S
O1113 C1115 1.214 . S
O1114 Cd1110 2.352 . S
O1114 C1117 1.258 . S
C1115 O1112 1.320 . S
C1115 O1113 1.214 . S
O1116 Cd1108 2.277 . S
O1116 C1111 1.209 . S
C1117 O1114 1.258 . S
C1117 O1119 1.282 . S
O1118 Cd1110 2.277 . S
O1118 C1111 1.226 . S
O1119 Cd1110 2.356 . S
O1119 C1117 1.282 . S
C1120 O1121 1.306 . S
C1120 O1123 1.160 . S
O1121 C1120 1.306 . S
O1121 Cd1122 2.228 . S
Cd1122 O1121 2.228 . S
Cd1122 O1126 2.273 . S
Cd1122 O1130 2.277 . S
O1123 C1120 1.160 . S
O1123 Cd1124 2.203 . S
Cd1124 O1123 2.203 . S
Cd1124 O1126 2.411 . S
Cd1124 O1127 2.333 . S
Cd1124 O1128 2.352 . S
Cd1124 O1132 2.277 . S
Cd1124 O1133 2.356 . S
C1125 O1130 1.209 . S
C1125 O1132 1.226 . S
O1126 Cd1122 2.273 . S
O1126 Cd1124 2.411 . S
O1126 C1129 1.320 . S
O1127 Cd1124 2.333 . S
O1127 C1129 1.214 . S
O1128 Cd1124 2.352 . S
O1128 C1131 1.258 . S
C1129 O1126 1.320 . S
C1129 O1127 1.214 . S
O1130 Cd1122 2.277 . S
O1130 C1125 1.209 . S
C1131 O1128 1.258 . S
C1131 O1133 1.282 . S
O1132 Cd1124 2.277 . S
O1132 C1125 1.226 . S
O1133 Cd1124 2.356 . S
O1133 C1131 1.282 . S
C1134 O1135 1.306 . S
C1134 O1137 1.160 . S
O1135 C1134 1.306 . S
O1135 Cd1136 2.228 . S
Cd1136 O1135 2.228 . S
Cd1136 O1140 2.273 . S
Cd1136 O1144 2.277 . S
O1137 C1134 1.160 . S
O1137 Cd1138 2.203 . S
Cd1138 O1137 2.203 . S
Cd1138 O1140 2.411 . S
Cd1138 O1141 2.333 . S
Cd1138 O1142 2.352 . S
Cd1138 O1146 2.277 . S
Cd1138 O1147 2.356 . S
C1139 O1144 1.209 . S
C1139 O1146 1.226 . S
O1140 Cd1136 2.273 . S
O1140 Cd1138 2.411 . S
O1140 C1143 1.320 . S
O1141 Cd1138 2.333 . S
O1141 C1143 1.214 . S
O1142 Cd1138 2.352 . S
O1142 C1145 1.258 . S
C1143 O1140 1.320 . S
C1143 O1141 1.214 . S
O1144 Cd1136 2.277 . S
O1144 C1139 1.209 . S
C1145 O1142 1.258 . S
C1145 O1147 1.282 . S
O1146 Cd1138 2.277 . S
O1146 C1139 1.226 . S
O1147 Cd1138 2.356 . S
O1147 C1145 1.282 . S
C1148 O1149 1.306 . S
C1148 O1151 1.160 . S
O1149 C1148 1.306 . S
O1149 Cd1150 2.228 . S
Cd1150 O1149 2.228 . S
Cd1150 O1154 2.273 . S
Cd1150 O1158 2.277 . S
O1151 C1148 1.160 . S
O1151 Cd1152 2.203 . S
Cd1152 O1151 2.203 . S
Cd1152 O1154 2.411 . S
Cd1152 O1155 2.333 . S
Cd1152 O1156 2.352 . S
Cd1152 O1160 2.277 . S
Cd1152 O1161 2.356 . S
C1153 O1158 1.209 . S
C1153 O1160 1.226 . S
O1154 Cd1150 2.273 . S
O1154 Cd1152 2.411 . S
O1154 C1157 1.320 . S
O1155 Cd1152 2.333 . S
O1155 C1157 1.214 . S
O1156 Cd1152 2.352 . S
O1156 C1159 1.258 . S
C1157 O1154 1.320 . S
C1157 O1155 1.214 . S
O1158 Cd1150 2.277 . S
O1158 C1153 1.209 . S
C1159 O1156 1.258 . S
C1159 O1161 1.282 . S
O1160 Cd1152 2.277 . S
O1160 C1153 1.226 . S
O1161 Cd1152 2.356 . S
O1161 C1159 1.282 . S
C1162 O1163 1.306 . S
C1162 O1165 1.160 . S
O1163 C1162 1.306 . S
O1163 Cd1164 2.228 . S
Cd1164 O1163 2.228 . S
Cd1164 O1168 2.273 . S
Cd1164 O1172 2.277 . S
O1165 C1162 1.160 . S
O1165 Cd1166 2.203 . S
Cd1166 O1165 2.203 . S
Cd1166 O1168 2.411 . S
Cd1166 O1169 2.333 . S
Cd1166 O1170 2.352 . S
Cd1166 O1174 2.277 . S
Cd1166 O1175 2.356 . S
C1167 O1172 1.209 . S
C1167 O1174 1.226 . S
O1168 Cd1164 2.273 . S
O1168 Cd1166 2.411 . S
O1168 C1171 1.320 . S
O1169 Cd1166 2.333 . S
O1169 C1171 1.214 . S
O1170 Cd1166 2.352 . S
O1170 C1173 1.258 . S
C1171 O1168 1.320 . S
C1171 O1169 1.214 . S
O1172 Cd1164 2.277 . S
O1172 C1167 1.209 . S
C1173 O1170 1.258 . S
C1173 O1175 1.282 . S
O1174 Cd1166 2.277 . S
O1174 C1167 1.226 . S
O1175 Cd1166 2.356 . S
O1175 C1173 1.282 . S
C1176 O1177 1.306 . S
C1176 O1179 1.160 . S
O1177 C1176 1.306 . S
O1177 Cd1178 2.228 . S
Cd1178 O1177 2.228 . S
Cd1178 O1182 2.273 . S
Cd1178 O1186 2.277 . S
O1179 C1176 1.160 . S
O1179 Cd1180 2.203 . S
Cd1180 O1179 2.203 . S
Cd1180 O1182 2.411 . S
Cd1180 O1183 2.333 . S
Cd1180 O1184 2.352 . S
Cd1180 O1188 2.277 . S
Cd1180 O1189 2.356 . S
C1181 O1186 1.209 . S
C1181 O1188 1.226 . S
O1182 Cd1178 2.273 . S
O1182 Cd1180 2.411 . S
O1182 C1185 1.320 . S
O1183 Cd1180 2.333 . S
O1183 C1185 1.214 . S
O1184 Cd1180 2.352 . S
O1184 C1187 1.258 . S
C1185 O1182 1.320 . S
C1185 O1183 1.214 . S
O1186 Cd1178 2.277 . S
O1186 C1181 1.209 . S
C1187 O1184 1.258 . S
C1187 O1189 1.282 . S
O1188 Cd1180 2.277 . S
O1188 C1181 1.226 . S
O1189 Cd1180 2.356 . S
O1189 C1187 1.282 . S
C1190 O1191 1.306 . S
C1190 O1193 1.160 . S
O1191 C1190 1.306 . S
O1191 Cd1192 2.228 . S
Cd1192 O1191 2.228 . S
Cd1192 O1196 2.273 . S
Cd1192 O1200 2.277 . S
O1193 C1190 1.160 . S
O1193 Cd1194 2.203 . S
Cd1194 O1193 2.203 . S
Cd1194 O1196 2.411 . S
Cd1194 O1197 2.333 . S
Cd1194 O1198 2.352 . S
Cd1194 O1202 2.277 . S
Cd1194 O1203 2.356 . S
C1195 O1200 1.209 . S
C1195 O1202 1.226 . S
O1196 Cd1192 2.273 . S
O1196 Cd1194 2.411 . S
O1196 C1199 1.320 . S
O1197 Cd1194 2.333 . S
O1197 C1199 1.214 . S
O1198 Cd1194 2.352 . S
O1198 C1201 1.258 . S
C1199 O1196 1.320 . S
C1199 O1197 1.214 . S
O1200 Cd1192 2.277 . S
O1200 C1195 1.209 . S
C1201 O1198 1.258 . S
C1201 O1203 1.282 . S
O1202 Cd1194 2.277 . S
O1202 C1195 1.226 . S
O1203 Cd1194 2.356 . S
O1203 C1201 1.282 . S
C1204 O1205 1.306 . S
C1204 O1207 1.160 . S
O1205 C1204 1.306 . S
O1205 Cd1206 2.228 . S
Cd1206 O1205 2.228 . S
Cd1206 O1210 2.273 . S
Cd1206 O1214 2.277 . S
O1207 C1204 1.160 . S
O1207 Cd1208 2.203 . S
Cd1208 O1207 2.203 . S
Cd1208 O1210 2.411 . S
Cd1208 O1211 2.333 . S
Cd1208 O1212 2.352 . S
Cd1208 O1216 2.277 . S
Cd1208 O1217 2.356 . S
C1209 O1214 1.209 . S
C1209 O1216 1.226 . S
O1210 Cd1206 2.273 . S
O1210 Cd1208 2.411 . S
O1210 C1213 1.320 . S
O1211 Cd1208 2.333 . S
O1211 C1213 1.214 . S
O1212 Cd1208 2.352 . S
O1212 C1215 1.258 . S
C1213 O1210 1.320 . S
C1213 O1211 1.214 . S
O1214 Cd1206 2.277 . S
O1214 C1209 1.209 . S
C1215 O1212 1.258 . S
C1215 O1217 1.282 . S
O1216 Cd1208 2.277 . S
O1216 C1209 1.226 . S
O1217 Cd1208 2.356 . S
O1217 C1215 1.282 . S
C1218 O1219 1.306 . S
C1218 O1221 1.160 . S
O1219 C1218 1.306 . S
O1219 Cd1220 2.228 . S
Cd1220 O1219 2.228 . S
Cd1220 O1224 2.273 . S
Cd1220 O1228 2.277 . S
O1221 C1218 1.160 . S
O1221 Cd1222 2.203 . S
Cd1222 O1221 2.203 . S
Cd1222 O1224 2.411 . S
Cd1222 O1225 2.333 . S
Cd1222 O1226 2.352 . S
Cd1222 O1230 2.277 . S
Cd1222 O1231 2.356 . S
C1223 O1228 1.209 . S
C1223 O1230 1.226 . S
O1224 Cd1220 2.273 . S
O1224 Cd1222 2.411 . S
O1224 C1227 1.320 . S
O1225 Cd1222 2.333 . S
O1225 C1227 1.214 . S
O1226 Cd1222 2.352 . S
O1226 C1229 1.258 . S
C1227 O1224 1.320 . S
C1227 O1225 1.214 . S
O1228 Cd1220 2.277 . S
O1228 C1223 1.209 . S
C1229 O1226 1.258 . S
C1229 O1231 1.282 . S
O1230 Cd1222 2.277 . S
O1230 C1223 1.226 . S
O1231 Cd1222 2.356 . S
O1231 C1229 1.282 . S
C1232 O1233 1.306 . S
C1232 O1235 1.160 . S
O1233 C1232 1.306 . S
O1233 Cd1234 2.228 . S
Cd1234 O1233 2.228 . S
Cd1234 O1238 2.273 . S
Cd1234 O1242 2.277 . S
O1235 C1232 1.160 . S
O1235 Cd1236 2.203 . S
Cd1236 O1235 2.203 . S
Cd1236 O1238 2.411 . S
Cd1236 O1239 2.333 . S
Cd1236 O1240 2.352 . S
Cd1236 O1244 2.277 . S
Cd1236 O1245 2.356 . S
C1237 O1242 1.209 . S
C1237 O1244 1.226 . S
O1238 Cd1234 2.273 . S
O1238 Cd1236 2.411 . S
O1238 C1241 1.320 . S
O1239 Cd1236 2.333 . S
O1239 C1241 1.214 . S
O1240 Cd1236 2.352 . S
O1240 C1243 1.258 . S
C1241 O1238 1.320 . S
C1241 O1239 1.214 . S
O1242 Cd1234 2.277 . S
O1242 C1237 1.209 . S
C1243 O1240 1.258 . S
C1243 O1245 1.282 . S
O1244 Cd1236 2.277 . S
O1244 C1237 1.226 . S
O1245 Cd1236 2.356 . S
O1245 C1243 1.282 . S
C1246 O1247 1.306 . S
C1246 O1249 1.160 . S
O1247 C1246 1.306 . S
O1247 Cd1248 2.228 . S
Cd1248 O1247 2.228 . S
Cd1248 O1252 2.273 . S
Cd1248 O1256 2.277 . S
O1249 C1246 1.160 . S
O1249 Cd1250 2.203 . S
Cd1250 O1249 2.203 . S
Cd1250 O1252 2.411 . S
Cd1250 O1253 2.333 . S
Cd1250 O1254 2.352 . S
Cd1250 O1258 2.277 . S
Cd1250 O1259 2.356 . S
C1251 O1256 1.209 . S
C1251 O1258 1.226 . S
O1252 Cd1248 2.273 . S
O1252 Cd1250 2.411 . S
O1252 C1255 1.320 . S
O1253 Cd1250 2.333 . S
O1253 C1255 1.214 . S
O1254 Cd1250 2.352 . S
O1254 C1257 1.258 . S
C1255 O1252 1.320 . S
C1255 O1253 1.214 . S
O1256 Cd1248 2.277 . S
O1256 C1251 1.209 . S
C1257 O1254 1.258 . S
C1257 O1259 1.282 . S
O1258 Cd1250 2.277 . S
O1258 C1251 1.226 . S
O1259 Cd1250 2.356 . S
O1259 C1257 1.282 . S
C1260 O1261 1.306 . S
C1260 O1263 1.160 . S
O1261 C1260 1.306 . S
O1261 Cd1262 2.228 . S
Cd1262 O1261 2.228 . S
Cd1262 O1266 2.273 . S
Cd1262 O1270 2.277 . S
O1263 C1260 1.160 . S
O1263 Cd1264 2.203 . S
Cd1264 O1263 2.203 . S
Cd1264 O1266 2.411 . S
Cd1264 O1267 2.333 . S
Cd1264 O1268 2.352 . S
Cd1264 O1272 2.277 . S
Cd1264 O1273 2.356 . S
C1265 O1270 1.209 . S
C1265 O1272 1.226 . S
O1266 Cd1262 2.273 . S
O1266 Cd1264 2.411 . S
O1266 C1269 1.320 . S
O1267 Cd1264 2.333 . S
O1267 C1269 1.214 . S
O1268 Cd1264 2.352 . S
O1268 C1271 1.258 . S
C1269 O1266 1.320 . S
C1269 O1267 1.214 . S
O1270 Cd1262 2.277 . S
O1270 C1265 1.209 . S
C1271 O1268 1.258 . S
C1271 O1273 1.282 . S
O1272 Cd1264 2.277 . S
O1272 C1265 1.226 . S
O1273 Cd1264 2.356 . S
O1273 C1271 1.282 . S
C1274 O1275 1.306 . S
C1274 O1277 1.160 . S
O1275 C1274 1.306 . S
O1275 Cd1276 2.228 . S
Cd1276 O1275 2.228 . S
Cd1276 O1280 2.273 . S
Cd1276 O1284 2.277 . S
O1277 C1274 1.160 . S
O1277 Cd1278 2.203 . S
Cd1278 O1277 2.203 . S
Cd1278 O1280 2.411 . S
Cd1278 O1281 2.333 . S
Cd1278 O1282 2.352 . S
Cd1278 O1286 2.277 . S
Cd1278 O1287 2.356 . S
C1279 O1284 1.209 . S
C1279 O1286 1.226 . S
O1280 Cd1276 2.273 . S
O1280 Cd1278 2.411 . S
O1280 C1283 1.320 . S
O1281 Cd1278 2.333 . S
O1281 C1283 1.214 . S
O1282 Cd1278 2.352 . S
O1282 C1285 1.258 . S
C1283 O1280 1.320 . S
C1283 O1281 1.214 . S
O1284 Cd1276 2.277 . S
O1284 C1279 1.209 . S
C1285 O1282 1.258 . S
C1285 O1287 1.282 . S
O1286 Cd1278 2.277 . S
O1286 C1279 1.226 . S
O1287 Cd1278 2.356 . S
O1287 C1285 1.282 . S
C1288 O1289 1.306 . S
C1288 O1291 1.160 . S
O1289 C1288 1.306 . S
O1289 Cd1290 2.228 . S
Cd1290 O1289 2.228 . S
Cd1290 O1294 2.273 . S
Cd1290 O1298 2.277 . S
O1291 C1288 1.160 . S
O1291 Cd1292 2.203 . S
Cd1292 O1291 2.203 . S
Cd1292 O1294 2.411 . S
Cd1292 O1295 2.333 . S
Cd1292 O1296 2.352 . S
Cd1292 O1300 2.277 . S
Cd1292 O1301 2.356 . S
C1293 O1298 1.209 . S
C1293 O1300 1.226 . S
O1294 Cd1290 2.273 . S
O1294 Cd1292 2.411 . S
O1294 C1297 1.320 . S
O1295 Cd1292 2.333 . S
O1295 C1297 1.214 . S
O1296 Cd1292 2.352 . S
O1296 C1299 1.258 . S
C1297 O1294 1.320 . S
C1297 O1295 1.214 . S
O1298 Cd1290 2.277 . S
O1298 C1293 1.209 . S
C1299 O1296 1.258 . S
C1299 O1301 1.282 . S
O1300 Cd1292 2.277 . S
O1300 C1293 1.226 . S
O1301 Cd1292 2.356 . S
O1301 C1299 1.282 . S
C1302 O1303 1.306 . S
C1302 O1305 1.160 . S
O1303 C1302 1.306 . S
O1303 Cd1304 2.228 . S
Cd1304 O1303 2.228 . S
Cd1304 O1308 2.273 . S
Cd1304 O1312 2.277 . S
O1305 C1302 1.160 . S
O1305 Cd1306 2.203 . S
Cd1306 O1305 2.203 . S
Cd1306 O1308 2.411 . S
Cd1306 O1309 2.333 . S
Cd1306 O1310 2.352 . S
Cd1306 O1314 2.277 . S
Cd1306 O1315 2.356 . S
C1307 O1312 1.209 . S
C1307 O1314 1.226 . S
O1308 Cd1304 2.273 . S
O1308 Cd1306 2.411 . S
O1308 C1311 1.320 . S
O1309 Cd1306 2.333 . S
O1309 C1311 1.214 . S
O1310 Cd1306 2.352 . S
O1310 C1313 1.258 . S
C1311 O1308 1.320 . S
C1311 O1309 1.214 . S
O1312 Cd1304 2.277 . S
O1312 C1307 1.209 . S
C1313 O1310 1.258 . S
C1313 O1315 1.282 . S
O1314 Cd1306 2.277 . S
O1314 C1307 1.226 . S
O1315 Cd1306 2.356 . S
O1315 C1313 1.282 . S
C1316 O1317 1.306 . S
C1316 O1319 1.160 . S
O1317 C1316 1.306 . S
O1317 Cd1318 2.228 . S
Cd1318 O1317 2.228 . S
Cd1318 O1322 2.273 . S
Cd1318 O1326 2.277 . S
O1319 C1316 1.160 . S
O1319 Cd1320 2.203 . S
Cd1320 O1319 2.203 . S
Cd1320 O1322 2.411 . S
Cd1320 O1323 2.333 . S
Cd1320 O1324 2.352 . S
Cd1320 O1328 2.277 . S
Cd1320 O1329 2.356 . S
C1321 O1326 1.209 . S
C1321 O1328 1.226 . S
O1322 Cd1318 2.273 . S
O1322 Cd1320 2.411 . S
O1322 C1325 1.320 . S
O1323 Cd1320 2.333 . S
O1323 C1325 1.214 . S
O1324 Cd1320 2.352 . S
O1324 C1327 1.258 . S
C1325 O1322 1.320 . S
C1325 O1323 1.214 . S
O1326 Cd1318 2.277 . S
O1326 C1321 1.209 . S
C1327 O1324 1.258 . S
C1327 O1329 1.282 . S
O1328 Cd1320 2.277 . S
O1328 C1321 1.226 . S
O1329 Cd1320 2.356 . S
O1329 C1327 1.282 . S
C1330 O1331 1.306 . S
C1330 O1333 1.160 . S
O1331 C1330 1.306 . S
O1331 Cd1332 2.228 . S
Cd1332 O1331 2.228 . S
Cd1332 O1336 2.273 . S
Cd1332 O1340 2.277 . S
O1333 C1330 1.160 . S
O1333 Cd1334 2.203 . S
Cd1334 O1333 2.203 . S
Cd1334 O1336 2.411 . S
Cd1334 O1337 2.333 . S
Cd1334 O1338 2.352 . S
Cd1334 O1342 2.277 . S
Cd1334 O1343 2.356 . S
C1335 O1340 1.209 . S
C1335 O1342 1.226 . S
O1336 Cd1332 2.273 . S
O1336 Cd1334 2.411 . S
O1336 C1339 1.320 . S
O1337 Cd1334 2.333 . S
O1337 C1339 1.214 . S
O1338 Cd1334 2.352 . S
O1338 C1341 1.258 . S
C1339 O1336 1.320 . S
C1339 O1337 1.214 . S
O1340 Cd1332 2.277 . S
O1340 C1335 1.209 . S
C1341 O1338 1.258 . S
C1341 O1343 1.282 . S
O1342 Cd1334 2.277 . S
O1342 C1335 1.226 . S
O1343 Cd1334 2.356 . S
O1343 C1341 1.282 . S
C1344 C1345 1.391 . S
C1344 C1346 1.394 . S
C1344 H1360 0.931 . S
C1345 C1344 1.391 . S
C1345 C1349 1.376 . S
C1346 C1344 1.394 . S
C1346 C1347 1.369 . S
C1346 C1350 1.531 . S
C1347 C1346 1.369 . S
C1347 C1348 1.410 . S
C1347 C1355 1.503 . S
C1348 C1347 1.410 . S
C1348 C1349 1.392 . S
C1348 C1351 1.511 . S
C1349 C1345 1.376 . S
C1349 C1348 1.392 . S
C1349 H1361 0.929 . S
C1350 C1346 1.531 . S
C1350 H1362 0.960 . S
C1350 H1363 0.962 . S
C1350 H1364 0.960 . S
C1351 C1348 1.511 . S
C1351 H1365 0.961 . S
C1351 H1366 0.961 . S
C1351 H1367 0.961 . S
C1352 C1353 1.370 . S
C1352 C1354 1.363 . S
C1352 H1368 0.931 . S
C1353 C1352 1.370 . S
C1353 C1357 1.408 . S
C1354 C1352 1.363 . S
C1354 C1355 1.370 . S
C1354 C1358 1.524 . S
C1355 C1347 1.503 . S
C1355 C1354 1.370 . S
C1355 C1356 1.403 . S
C1356 C1355 1.403 . S
C1356 C1357 1.404 . S
C1356 C1359 1.539 . S
C1357 C1353 1.408 . S
C1357 C1356 1.404 . S
C1357 H1369 0.930 . S
C1358 C1354 1.524 . S
C1358 H1370 0.956 . S
C1358 H1371 0.961 . S
C1358 H1372 0.961 . S
C1359 C1356 1.539 . S
C1359 H1373 0.958 . S
C1359 H1374 0.961 . S
C1359 H1375 0.960 . S
H1360 C1344 0.931 . S
H1361 C1349 0.929 . S
H1362 C1350 0.960 . S
H1363 C1350 0.962 . S
H1364 C1350 0.960 . S
H1365 C1351 0.961 . S
H1366 C1351 0.961 . S
H1367 C1351 0.961 . S
H1368 C1352 0.931 . S
H1369 C1357 0.930 . S
H1370 C1358 0.956 . S
H1371 C1358 0.961 . S
H1372 C1358 0.961 . S
H1373 C1359 0.958 . S
H1374 C1359 0.961 . S
H1375 C1359 0.960 . S
C1376 C1377 1.391 . S
C1376 C1378 1.394 . S
C1376 H1392 0.931 . S
C1377 C1376 1.391 . S
C1377 C1381 1.376 . S
C1378 C1376 1.394 . S
C1378 C1379 1.369 . S
C1378 C1382 1.531 . S
C1379 C1378 1.369 . S
C1379 C1380 1.410 . S
C1379 C1387 1.503 . S
C1380 C1379 1.410 . S
C1380 C1381 1.392 . S
C1380 C1383 1.511 . S
C1381 C1377 1.376 . S
C1381 C1380 1.392 . S
C1381 H1393 0.929 . S
C1382 C1378 1.531 . S
C1382 H1394 0.960 . S
C1382 H1395 0.962 . S
C1382 H1396 0.960 . S
C1383 C1380 1.511 . S
C1383 H1397 0.961 . S
C1383 H1398 0.961 . S
C1383 H1399 0.961 . S
C1384 C1385 1.370 . S
C1384 C1386 1.363 . S
C1384 H1400 0.931 . S
C1385 C1384 1.370 . S
C1385 C1389 1.408 . S
C1386 C1384 1.363 . S
C1386 C1387 1.370 . S
C1386 C1390 1.524 . S
C1387 C1379 1.503 . S
C1387 C1386 1.370 . S
C1387 C1388 1.403 . S
C1388 C1387 1.403 . S
C1388 C1389 1.404 . S
C1388 C1391 1.539 . S
C1389 C1385 1.408 . S
C1389 C1388 1.404 . S
C1389 H1401 0.930 . S
C1390 C1386 1.524 . S
C1390 H1402 0.956 . S
C1390 H1403 0.961 . S
C1390 H1404 0.961 . S
C1391 C1388 1.539 . S
C1391 H1405 0.958 . S
C1391 H1406 0.961 . S
C1391 H1407 0.960 . S
H1392 C1376 0.931 . S
H1393 C1381 0.929 . S
H1394 C1382 0.960 . S
H1395 C1382 0.962 . S
H1396 C1382 0.960 . S
H1397 C1383 0.961 . S
H1398 C1383 0.961 . S
H1399 C1383 0.961 . S
H1400 C1384 0.931 . S
H1401 C1389 0.930 . S
H1402 C1390 0.956 . S
H1403 C1390 0.961 . S
H1404 C1390 0.961 . S
H1405 C1391 0.958 . S
H1406 C1391 0.961 . S
H1407 C1391 0.960 . S
C1408 C1409 1.391 . S
C1408 C1410 1.394 . S
C1408 H1424 0.931 . S
C1409 C1408 1.391 . S
C1409 C1413 1.376 . S
C1410 C1408 1.394 . S
C1410 C1411 1.369 . S
C1410 C1414 1.531 . S
C1411 C1410 1.369 . S
C1411 C1412 1.410 . S
C1411 C1419 1.503 . S
C1412 C1411 1.410 . S
C1412 C1413 1.392 . S
C1412 C1415 1.511 . S
C1413 C1409 1.376 . S
C1413 C1412 1.392 . S
C1413 H1425 0.929 . S
C1414 C1410 1.531 . S
C1414 H1426 0.960 . S
C1414 H1427 0.962 . S
C1414 H1428 0.960 . S
C1415 C1412 1.511 . S
C1415 H1429 0.961 . S
C1415 H1430 0.961 . S
C1415 H1431 0.961 . S
C1416 C1417 1.370 . S
C1416 C1418 1.363 . S
C1416 H1432 0.931 . S
C1417 C1416 1.370 . S
C1417 C1421 1.408 . S
C1418 C1416 1.363 . S
C1418 C1419 1.370 . S
C1418 C1422 1.524 . S
C1419 C1411 1.503 . S
C1419 C1418 1.370 . S
C1419 C1420 1.403 . S
C1420 C1419 1.403 . S
C1420 C1421 1.404 . S
C1420 C1423 1.539 . S
C1421 C1417 1.408 . S
C1421 C1420 1.404 . S
C1421 H1433 0.930 . S
C1422 C1418 1.524 . S
C1422 H1434 0.956 . S
C1422 H1435 0.961 . S
C1422 H1436 0.961 . S
C1423 C1420 1.539 . S
C1423 H1437 0.958 . S
C1423 H1438 0.961 . S
C1423 H1439 0.960 . S
H1424 C1408 0.931 . S
H1425 C1413 0.929 . S
H1426 C1414 0.960 . S
H1427 C1414 0.962 . S
H1428 C1414 0.960 . S
H1429 C1415 0.961 . S
H1430 C1415 0.961 . S
H1431 C1415 0.961 . S
H1432 C1416 0.931 . S
H1433 C1421 0.930 . S
H1434 C1422 0.956 . S
H1435 C1422 0.961 . S
H1436 C1422 0.961 . S
H1437 C1423 0.958 . S
H1438 C1423 0.961 . S
H1439 C1423 0.960 . S
C1440 C1441 1.391 . S
C1440 C1442 1.394 . S
C1440 H1456 0.931 . S
C1441 C1440 1.391 . S
C1441 C1445 1.376 . S
C1442 C1440 1.394 . S
C1442 C1443 1.369 . S
C1442 C1446 1.531 . S
C1443 C1442 1.369 . S
C1443 C1444 1.410 . S
C1443 C1451 1.503 . S
C1444 C1443 1.410 . S
C1444 C1445 1.392 . S
C1444 C1447 1.511 . S
C1445 C1441 1.376 . S
C1445 C1444 1.392 . S
C1445 H1457 0.929 . S
C1446 C1442 1.531 . S
C1446 H1458 0.960 . S
C1446 H1459 0.962 . S
C1446 H1460 0.960 . S
C1447 C1444 1.511 . S
C1447 H1461 0.961 . S
C1447 H1462 0.961 . S
C1447 H1463 0.961 . S
C1448 C1449 1.370 . S
C1448 C1450 1.363 . S
C1448 H1464 0.931 . S
C1449 C1448 1.370 . S
C1449 C1453 1.408 . S
C1450 C1448 1.363 . S
C1450 C1451 1.370 . S
C1450 C1454 1.524 . S
C1451 C1443 1.503 . S
C1451 C1450 1.370 . S
C1451 C1452 1.403 . S
C1452 C1451 1.403 . S
C1452 C1453 1.404 . S
C1452 C1455 1.539 . S
C1453 C1449 1.408 . S
C1453 C1452 1.404 . S
C1453 H1465 0.930 . S
C1454 C1450 1.524 . S
C1454 H1466 0.956 . S
C1454 H1467 0.961 . S
C1454 H1468 0.961 . S
C1455 C1452 1.539 . S
C1455 H1469 0.958 . S
C1455 H1470 0.961 . S
C1455 H1471 0.960 . S
H1456 C1440 0.931 . S
H1457 C1445 0.929 . S
H1458 C1446 0.960 . S
H1459 C1446 0.962 . S
H1460 C1446 0.960 . S
H1461 C1447 0.961 . S
H1462 C1447 0.961 . S
H1463 C1447 0.961 . S
H1464 C1448 0.931 . S
H1465 C1453 0.930 . S
H1466 C1454 0.956 . S
H1467 C1454 0.961 . S
H1468 C1454 0.961 . S
H1469 C1455 0.958 . S
H1470 C1455 0.961 . S
H1471 C1455 0.960 . S
C1472 C1473 1.391 . S
C1472 C1474 1.394 . S
C1472 H1488 0.931 . S
C1473 C1472 1.391 . S
C1473 C1477 1.376 . S
C1474 C1472 1.394 . S
C1474 C1475 1.369 . S
C1474 C1478 1.531 . S
C1475 C1474 1.369 . S
C1475 C1476 1.410 . S
C1475 C1483 1.503 . S
C1476 C1475 1.410 . S
C1476 C1477 1.392 . S
C1476 C1479 1.511 . S
C1477 C1473 1.376 . S
C1477 C1476 1.392 . S
C1477 H1489 0.929 . S
C1478 C1474 1.531 . S
C1478 H1490 0.960 . S
C1478 H1491 0.962 . S
C1478 H1492 0.960 . S
C1479 C1476 1.511 . S
C1479 H1493 0.961 . S
C1479 H1494 0.961 . S
C1479 H1495 0.961 . S
C1480 C1481 1.370 . S
C1480 C1482 1.363 . S
C1480 H1496 0.931 . S
C1481 C1480 1.370 . S
C1481 C1485 1.408 . S
C1482 C1480 1.363 . S
C1482 C1483 1.370 . S
C1482 C1486 1.524 . S
C1483 C1475 1.503 . S
C1483 C1482 1.370 . S
C1483 C1484 1.403 . S
C1484 C1483 1.403 . S
C1484 C1485 1.404 . S
C1484 C1487 1.539 . S
C1485 C1481 1.408 . S
C1485 C1484 1.404 . S
C1485 H1497 0.930 . S
C1486 C1482 1.524 . S
C1486 H1498 0.956 . S
C1486 H1499 0.961 . S
C1486 H1500 0.961 . S
C1487 C1484 1.539 . S
C1487 H1501 0.958 . S
C1487 H1502 0.961 . S
C1487 H1503 0.960 . S
H1488 C1472 0.931 . S
H1489 C1477 0.929 . S
H1490 C1478 0.960 . S
H1491 C1478 0.962 . S
H1492 C1478 0.960 . S
H1493 C1479 0.961 . S
H1494 C1479 0.961 . S
H1495 C1479 0.961 . S
H1496 C1480 0.931 . S
H1497 C1485 0.930 . S
H1498 C1486 0.956 . S
H1499 C1486 0.961 . S
H1500 C1486 0.961 . S
H1501 C1487 0.958 . S
H1502 C1487 0.961 . S
H1503 C1487 0.960 . S
C1504 C1505 1.391 . S
C1504 C1506 1.394 . S
C1504 H1520 0.931 . S
C1505 C1504 1.391 . S
C1505 C1509 1.376 . S
C1506 C1504 1.394 . S
C1506 C1507 1.369 . S
C1506 C1510 1.531 . S
C1507 C1506 1.369 . S
C1507 C1508 1.410 . S
C1507 C1515 1.503 . S
C1508 C1507 1.410 . S
C1508 C1509 1.392 . S
C1508 C1511 1.511 . S
C1509 C1505 1.376 . S
C1509 C1508 1.392 . S
C1509 H1521 0.929 . S
C1510 C1506 1.531 . S
C1510 H1522 0.960 . S
C1510 H1523 0.962 . S
C1510 H1524 0.960 . S
C1511 C1508 1.511 . S
C1511 H1525 0.961 . S
C1511 H1526 0.961 . S
C1511 H1527 0.961 . S
C1512 C1513 1.370 . S
C1512 C1514 1.363 . S
C1512 H1528 0.931 . S
C1513 C1512 1.370 . S
C1513 C1517 1.408 . S
C1514 C1512 1.363 . S
C1514 C1515 1.370 . S
C1514 C1518 1.524 . S
C1515 C1507 1.503 . S
C1515 C1514 1.370 . S
C1515 C1516 1.403 . S
C1516 C1515 1.403 . S
C1516 C1517 1.404 . S
C1516 C1519 1.539 . S
C1517 C1513 1.408 . S
C1517 C1516 1.404 . S
C1517 H1529 0.930 . S
C1518 C1514 1.524 . S
C1518 H1530 0.956 . S
C1518 H1531 0.961 . S
C1518 H1532 0.961 . S
C1519 C1516 1.539 . S
C1519 H1533 0.958 . S
C1519 H1534 0.961 . S
C1519 H1535 0.960 . S
H1520 C1504 0.931 . S
H1521 C1509 0.929 . S
H1522 C1510 0.960 . S
H1523 C1510 0.962 . S
H1524 C1510 0.960 . S
H1525 C1511 0.961 . S
H1526 C1511 0.961 . S
H1527 C1511 0.961 . S
H1528 C1512 0.931 . S
H1529 C1517 0.930 . S
H1530 C1518 0.956 . S
H1531 C1518 0.961 . S
H1532 C1518 0.961 . S
H1533 C1519 0.958 . S
H1534 C1519 0.961 . S
H1535 C1519 0.960 . S
C1536 C1537 1.391 . S
C1536 C1538 1.394 . S
C1536 H1552 0.931 . S
C1537 C1536 1.391 . S
C1537 C1541 1.376 . S
C1538 C1536 1.394 . S
C1538 C1539 1.369 . S
C1538 C1542 1.531 . S
C1539 C1538 1.369 . S
C1539 C1540 1.410 . S
C1539 C1547 1.503 . S
C1540 C1539 1.410 . S
C1540 C1541 1.392 . S
C1540 C1543 1.511 . S
C1541 C1537 1.376 . S
C1541 C1540 1.392 . S
C1541 H1553 0.929 . S
C1542 C1538 1.531 . S
C1542 H1554 0.960 . S
C1542 H1555 0.962 . S
C1542 H1556 0.960 . S
C1543 C1540 1.511 . S
C1543 H1557 0.961 . S
C1543 H1558 0.961 . S
C1543 H1559 0.961 . S
C1544 C1545 1.370 . S
C1544 C1546 1.363 . S
C1544 H1560 0.931 . S
C1545 C1544 1.370 . S
C1545 C1549 1.408 . S
C1546 C1544 1.363 . S
C1546 C1547 1.370 . S
C1546 C1550 1.524 . S
C1547 C1539 1.503 . S
C1547 C1546 1.370 . S
C1547 C1548 1.403 . S
C1548 C1547 1.403 . S
C1548 C1549 1.404 . S
C1548 C1551 1.539 . S
C1549 C1545 1.408 . S
C1549 C1548 1.404 . S
C1549 H1561 0.930 . S
C1550 C1546 1.524 . S
C1550 H1562 0.956 . S
C1550 H1563 0.961 . S
C1550 H1564 0.961 . S
C1551 C1548 1.539 . S
C1551 H1565 0.958 . S
C1551 H1566 0.961 . S
C1551 H1567 0.960 . S
H1552 C1536 0.931 . S
H1553 C1541 0.929 . S
H1554 C1542 0.960 . S
H1555 C1542 0.962 . S
H1556 C1542 0.960 . S
H1557 C1543 0.961 . S
H1558 C1543 0.961 . S
H1559 C1543 0.961 . S
H1560 C1544 0.931 . S
H1561 C1549 0.930 . S
H1562 C1550 0.956 . S
H1563 C1550 0.961 . S
H1564 C1550 0.961 . S
H1565 C1551 0.958 . S
H1566 C1551 0.961 . S
H1567 C1551 0.960 . S
C1568 C1569 1.391 . S
C1568 C1570 1.394 . S
C1568 H1584 0.931 . S
C1569 C1568 1.391 . S
C1569 C1573 1.376 . S
C1570 C1568 1.394 . S
C1570 C1571 1.369 . S
C1570 C1574 1.531 . S
C1571 C1570 1.369 . S
C1571 C1572 1.410 . S
C1571 C1579 1.503 . S
C1572 C1571 1.410 . S
C1572 C1573 1.392 . S
C1572 C1575 1.511 . S
C1573 C1569 1.376 . S
C1573 C1572 1.392 . S
C1573 H1585 0.929 . S
C1574 C1570 1.531 . S
C1574 H1586 0.960 . S
C1574 H1587 0.962 . S
C1574 H1588 0.960 . S
C1575 C1572 1.511 . S
C1575 H1589 0.961 . S
C1575 H1590 0.961 . S
C1575 H1591 0.961 . S
C1576 C1577 1.370 . S
C1576 C1578 1.363 . S
C1576 H1592 0.931 . S
C1577 C1576 1.370 . S
C1577 C1581 1.408 . S
C1578 C1576 1.363 . S
C1578 C1579 1.370 . S
C1578 C1582 1.524 . S
C1579 C1571 1.503 . S
C1579 C1578 1.370 . S
C1579 C1580 1.403 . S
C1580 C1579 1.403 . S
C1580 C1581 1.404 . S
C1580 C1583 1.539 . S
C1581 C1577 1.408 . S
C1581 C1580 1.404 . S
C1581 H1593 0.930 . S
C1582 C1578 1.524 . S
C1582 H1594 0.956 . S
C1582 H1595 0.961 . S
C1582 H1596 0.961 . S
C1583 C1580 1.539 . S
C1583 H1597 0.958 . S
C1583 H1598 0.961 . S
C1583 H1599 0.960 . S
H1584 C1568 0.931 . S
H1585 C1573 0.929 . S
H1586 C1574 0.960 . S
H1587 C1574 0.962 . S
H1588 C1574 0.960 . S
H1589 C1575 0.961 . S
H1590 C1575 0.961 . S
H1591 C1575 0.961 . S
H1592 C1576 0.931 . S
H1593 C1581 0.930 . S
H1594 C1582 0.956 . S
H1595 C1582 0.961 . S
H1596 C1582 0.961 . S
H1597 C1583 0.958 . S
H1598 C1583 0.961 . S
H1599 C1583 0.960 . S
C1600 C1601 1.391 . S
C1600 C1602 1.394 . S
C1600 H1616 0.931 . S
C1601 C1600 1.391 . S
C1601 C1605 1.376 . S
C1602 C1600 1.394 . S
C1602 C1603 1.369 . S
C1602 C1606 1.531 . S
C1603 C1602 1.369 . S
C1603 C1604 1.410 . S
C1603 C1611 1.503 . S
C1604 C1603 1.410 . S
C1604 C1605 1.392 . S
C1604 C1607 1.511 . S
C1605 C1601 1.376 . S
C1605 C1604 1.392 . S
C1605 H1617 0.929 . S
C1606 C1602 1.531 . S
C1606 H1618 0.960 . S
C1606 H1619 0.962 . S
C1606 H1620 0.960 . S
C1607 C1604 1.511 . S
C1607 H1621 0.961 . S
C1607 H1622 0.961 . S
C1607 H1623 0.961 . S
C1608 C1609 1.370 . S
C1608 C1610 1.363 . S
C1608 H1624 0.931 . S
C1609 C1608 1.370 . S
C1609 C1613 1.408 . S
C1610 C1608 1.363 . S
C1610 C1611 1.370 . S
C1610 C1614 1.524 . S
C1611 C1603 1.503 . S
C1611 C1610 1.370 . S
C1611 C1612 1.403 . S
C1612 C1611 1.403 . S
C1612 C1613 1.404 . S
C1612 C1615 1.539 . S
C1613 C1609 1.408 . S
C1613 C1612 1.404 . S
C1613 H1625 0.930 . S
C1614 C1610 1.524 . S
C1614 H1626 0.956 . S
C1614 H1627 0.961 . S
C1614 H1628 0.961 . S
C1615 C1612 1.539 . S
C1615 H1629 0.958 . S
C1615 H1630 0.961 . S
C1615 H1631 0.960 . S
H1616 C1600 0.931 . S
H1617 C1605 0.929 . S
H1618 C1606 0.960 . S
H1619 C1606 0.962 . S
H1620 C1606 0.960 . S
H1621 C1607 0.961 . S
H1622 C1607 0.961 . S
H1623 C1607 0.961 . S
H1624 C1608 0.931 . S
H1625 C1613 0.930 . S
H1626 C1614 0.956 . S
H1627 C1614 0.961 . S
H1628 C1614 0.961 . S
H1629 C1615 0.958 . S
H1630 C1615 0.961 . S
H1631 C1615 0.960 . S
C1632 C1633 1.391 . S
C1632 C1634 1.394 . S
C1632 H1648 0.931 . S
C1633 C1632 1.391 . S
C1633 C1637 1.376 . S
C1634 C1632 1.394 . S
C1634 C1635 1.369 . S
C1634 C1638 1.531 . S
C1635 C1634 1.369 . S
C1635 C1636 1.410 . S
C1635 C1643 1.503 . S
C1636 C1635 1.410 . S
C1636 C1637 1.392 . S
C1636 C1639 1.511 . S
C1637 C1633 1.376 . S
C1637 C1636 1.392 . S
C1637 H1649 0.929 . S
C1638 C1634 1.531 . S
C1638 H1650 0.960 . S
C1638 H1651 0.962 . S
C1638 H1652 0.960 . S
C1639 C1636 1.511 . S
C1639 H1653 0.961 . S
C1639 H1654 0.961 . S
C1639 H1655 0.961 . S
C1640 C1641 1.370 . S
C1640 C1642 1.363 . S
C1640 H1656 0.931 . S
C1641 C1640 1.370 . S
C1641 C1645 1.408 . S
C1642 C1640 1.363 . S
C1642 C1643 1.370 . S
C1642 C1646 1.524 . S
C1643 C1635 1.503 . S
C1643 C1642 1.370 . S
C1643 C1644 1.403 . S
C1644 C1643 1.403 . S
C1644 C1645 1.404 . S
C1644 C1647 1.539 . S
C1645 C1641 1.408 . S
C1645 C1644 1.404 . S
C1645 H1657 0.930 . S
C1646 C1642 1.524 . S
C1646 H1658 0.956 . S
C1646 H1659 0.961 . S
C1646 H1660 0.961 . S
C1647 C1644 1.539 . S
C1647 H1661 0.958 . S
C1647 H1662 0.961 . S
C1647 H1663 0.960 . S
H1648 C1632 0.931 . S
H1649 C1637 0.929 . S
H1650 C1638 0.960 . S
H1651 C1638 0.962 . S
H1652 C1638 0.960 . S
H1653 C1639 0.961 . S
H1654 C1639 0.961 . S
H1655 C1639 0.961 . S
H1656 C1640 0.931 . S
H1657 C1645 0.930 . S
H1658 C1646 0.956 . S
H1659 C1646 0.961 . S
H1660 C1646 0.961 . S
H1661 C1647 0.958 . S
H1662 C1647 0.961 . S
H1663 C1647 0.960 . S
C1664 C1665 1.391 . S
C1664 C1666 1.394 . S
C1664 H1680 0.931 . S
C1665 C1664 1.391 . S
C1665 C1669 1.376 . S
C1666 C1664 1.394 . S
C1666 C1667 1.369 . S
C1666 C1670 1.531 . S
C1667 C1666 1.369 . S
C1667 C1668 1.410 . S
C1667 C1675 1.503 . S
C1668 C1667 1.410 . S
C1668 C1669 1.392 . S
C1668 C1671 1.511 . S
C1669 C1665 1.376 . S
C1669 C1668 1.392 . S
C1669 H1681 0.929 . S
C1670 C1666 1.531 . S
C1670 H1682 0.960 . S
C1670 H1683 0.962 . S
C1670 H1684 0.960 . S
C1671 C1668 1.511 . S
C1671 H1685 0.961 . S
C1671 H1686 0.961 . S
C1671 H1687 0.961 . S
C1672 C1673 1.370 . S
C1672 C1674 1.363 . S
C1672 H1688 0.931 . S
C1673 C1672 1.370 . S
C1673 C1677 1.408 . S
C1674 C1672 1.363 . S
C1674 C1675 1.370 . S
C1674 C1678 1.524 . S
C1675 C1667 1.503 . S
C1675 C1674 1.370 . S
C1675 C1676 1.403 . S
C1676 C1675 1.403 . S
C1676 C1677 1.404 . S
C1676 C1679 1.539 . S
C1677 C1673 1.408 . S
C1677 C1676 1.404 . S
C1677 H1689 0.930 . S
C1678 C1674 1.524 . S
C1678 H1690 0.956 . S
C1678 H1691 0.961 . S
C1678 H1692 0.961 . S
C1679 C1676 1.539 . S
C1679 H1693 0.958 . S
C1679 H1694 0.961 . S
C1679 H1695 0.960 . S
H1680 C1664 0.931 . S
H1681 C1669 0.929 . S
H1682 C1670 0.960 . S
H1683 C1670 0.962 . S
H1684 C1670 0.960 . S
H1685 C1671 0.961 . S
H1686 C1671 0.961 . S
H1687 C1671 0.961 . S
H1688 C1672 0.931 . S
H1689 C1677 0.930 . S
H1690 C1678 0.956 . S
H1691 C1678 0.961 . S
H1692 C1678 0.961 . S
H1693 C1679 0.958 . S
H1694 C1679 0.961 . S
H1695 C1679 0.960 . S
C1696 C1697 1.391 . S
C1696 C1698 1.394 . S
C1696 H1712 0.931 . S
C1697 C1696 1.391 . S
C1697 C1701 1.376 . S
C1698 C1696 1.394 . S
C1698 C1699 1.369 . S
C1698 C1702 1.531 . S
C1699 C1698 1.369 . S
C1699 C1700 1.410 . S
C1699 C1707 1.503 . S
C1700 C1699 1.410 . S
C1700 C1701 1.392 . S
C1700 C1703 1.511 . S
C1701 C1697 1.376 . S
C1701 C1700 1.392 . S
C1701 H1713 0.929 . S
C1702 C1698 1.531 . S
C1702 H1714 0.960 . S
C1702 H1715 0.962 . S
C1702 H1716 0.960 . S
C1703 C1700 1.511 . S
C1703 H1717 0.961 . S
C1703 H1718 0.961 . S
C1703 H1719 0.961 . S
C1704 C1705 1.370 . S
C1704 C1706 1.363 . S
C1704 H1720 0.931 . S
C1705 C1704 1.370 . S
C1705 C1709 1.408 . S
C1706 C1704 1.363 . S
C1706 C1707 1.370 . S
C1706 C1710 1.524 . S
C1707 C1699 1.503 . S
C1707 C1706 1.370 . S
C1707 C1708 1.403 . S
C1708 C1707 1.403 . S
C1708 C1709 1.404 . S
C1708 C1711 1.539 . S
C1709 C1705 1.408 . S
C1709 C1708 1.404 . S
C1709 H1721 0.930 . S
C1710 C1706 1.524 . S
C1710 H1722 0.956 . S
C1710 H1723 0.961 . S
C1710 H1724 0.961 . S
C1711 C1708 1.539 . S
C1711 H1725 0.958 . S
C1711 H1726 0.961 . S
C1711 H1727 0.960 . S
H1712 C1696 0.931 . S
H1713 C1701 0.929 . S
H1714 C1702 0.960 . S
H1715 C1702 0.962 . S
H1716 C1702 0.960 . S
H1717 C1703 0.961 . S
H1718 C1703 0.961 . S
H1719 C1703 0.961 . S
H1720 C1704 0.931 . S
H1721 C1709 0.930 . S
H1722 C1710 0.956 . S
H1723 C1710 0.961 . S
H1724 C1710 0.961 . S
H1725 C1711 0.958 . S
H1726 C1711 0.961 . S
H1727 C1711 0.960 . S
C1728 C1729 1.391 . S
C1728 C1730 1.394 . S
C1728 H1744 0.931 . S
C1729 C1728 1.391 . S
C1729 C1733 1.376 . S
C1730 C1728 1.394 . S
C1730 C1731 1.369 . S
C1730 C1734 1.531 . S
C1731 C1730 1.369 . S
C1731 C1732 1.410 . S
C1731 C1739 1.503 . S
C1732 C1731 1.410 . S
C1732 C1733 1.392 . S
C1732 C1735 1.511 . S
C1733 C1729 1.376 . S
C1733 C1732 1.392 . S
C1733 H1745 0.929 . S
C1734 C1730 1.531 . S
C1734 H1746 0.960 . S
C1734 H1747 0.962 . S
C1734 H1748 0.960 . S
C1735 C1732 1.511 . S
C1735 H1749 0.961 . S
C1735 H1750 0.961 . S
C1735 H1751 0.961 . S
C1736 C1737 1.370 . S
C1736 C1738 1.363 . S
C1736 H1752 0.931 . S
C1737 C1736 1.370 . S
C1737 C1741 1.408 . S
C1738 C1736 1.363 . S
C1738 C1739 1.370 . S
C1738 C1742 1.524 . S
C1739 C1731 1.503 . S
C1739 C1738 1.370 . S
C1739 C1740 1.403 . S
C1740 C1739 1.403 . S
C1740 C1741 1.404 . S
C1740 C1743 1.539 . S
C1741 C1737 1.408 . S
C1741 C1740 1.404 . S
C1741 H1753 0.930 . S
C1742 C1738 1.524 . S
C1742 H1754 0.956 . S
C1742 H1755 0.961 . S
C1742 H1756 0.961 . S
C1743 C1740 1.539 . S
C1743 H1757 0.958 . S
C1743 H1758 0.961 . S
C1743 H1759 0.960 . S
H1744 C1728 0.931 . S
H1745 C1733 0.929 . S
H1746 C1734 0.960 . S
H1747 C1734 0.962 . S
H1748 C1734 0.960 . S
H1749 C1735 0.961 . S
H1750 C1735 0.961 . S
H1751 C1735 0.961 . S
H1752 C1736 0.931 . S
H1753 C1741 0.930 . S
H1754 C1742 0.956 . S
H1755 C1742 0.961 . S
H1756 C1742 0.961 . S
H1757 C1743 0.958 . S
H1758 C1743 0.961 . S
H1759 C1743 0.960 . S
C1760 C1761 1.391 . S
C1760 C1762 1.394 . S
C1760 H1776 0.931 . S
C1761 C1760 1.391 . S
C1761 C1765 1.376 . S
C1762 C1760 1.394 . S
C1762 C1763 1.369 . S
C1762 C1766 1.531 . S
C1763 C1762 1.369 . S
C1763 C1764 1.410 . S
C1763 C1771 1.503 . S
C1764 C1763 1.410 . S
C1764 C1765 1.392 . S
C1764 C1767 1.511 . S
C1765 C1761 1.376 . S
C1765 C1764 1.392 . S
C1765 H1777 0.929 . S
C1766 C1762 1.531 . S
C1766 H1778 0.960 . S
C1766 H1779 0.962 . S
C1766 H1780 0.960 . S
C1767 C1764 1.511 . S
C1767 H1781 0.961 . S
C1767 H1782 0.961 . S
C1767 H1783 0.961 . S
C1768 C1769 1.370 . S
C1768 C1770 1.363 . S
C1768 H1784 0.931 . S
C1769 C1768 1.370 . S
C1769 C1773 1.408 . S
C1770 C1768 1.363 . S
C1770 C1771 1.370 . S
C1770 C1774 1.524 . S
C1771 C1763 1.503 . S
C1771 C1770 1.370 . S
C1771 C1772 1.403 . S
C1772 C1771 1.403 . S
C1772 C1773 1.404 . S
C1772 C1775 1.539 . S
C1773 C1769 1.408 . S
C1773 C1772 1.404 . S
C1773 H1785 0.930 . S
C1774 C1770 1.524 . S
C1774 H1786 0.956 . S
C1774 H1787 0.961 . S
C1774 H1788 0.961 . S
C1775 C1772 1.539 . S
C1775 H1789 0.958 . S
C1775 H1790 0.961 . S
C1775 H1791 0.960 . S
H1776 C1760 0.931 . S
H1777 C1765 0.929 . S
H1778 C1766 0.960 . S
H1779 C1766 0.962 . S
H1780 C1766 0.960 . S
H1781 C1767 0.961 . S
H1782 C1767 0.961 . S
H1783 C1767 0.961 . S
H1784 C1768 0.931 . S
H1785 C1773 0.930 . S
H1786 C1774 0.956 . S
H1787 C1774 0.961 . S
H1788 C1774 0.961 . S
H1789 C1775 0.958 . S
H1790 C1775 0.961 . S
H1791 C1775 0.960 . S
C1792 C1793 1.391 . S
C1792 C1794 1.394 . S
C1792 H1808 0.931 . S
C1793 C1792 1.391 . S
C1793 C1797 1.376 . S
C1794 C1792 1.394 . S
C1794 C1795 1.369 . S
C1794 C1798 1.531 . S
C1795 C1794 1.369 . S
C1795 C1796 1.410 . S
C1795 C1803 1.503 . S
C1796 C1795 1.410 . S
C1796 C1797 1.392 . S
C1796 C1799 1.511 . S
C1797 C1793 1.376 . S
C1797 C1796 1.392 . S
C1797 H1809 0.929 . S
C1798 C1794 1.531 . S
C1798 H1810 0.960 . S
C1798 H1811 0.962 . S
C1798 H1812 0.960 . S
C1799 C1796 1.511 . S
C1799 H1813 0.961 . S
C1799 H1814 0.961 . S
C1799 H1815 0.961 . S
C1800 C1801 1.370 . S
C1800 C1802 1.363 . S
C1800 H1816 0.931 . S
C1801 C1800 1.370 . S
C1801 C1805 1.408 . S
C1802 C1800 1.363 . S
C1802 C1803 1.370 . S
C1802 C1806 1.524 . S
C1803 C1795 1.503 . S
C1803 C1802 1.370 . S
C1803 C1804 1.403 . S
C1804 C1803 1.403 . S
C1804 C1805 1.404 . S
C1804 C1807 1.539 . S
C1805 C1801 1.408 . S
C1805 C1804 1.404 . S
C1805 H1817 0.930 . S
C1806 C1802 1.524 . S
C1806 H1818 0.956 . S
C1806 H1819 0.961 . S
C1806 H1820 0.961 . S
C1807 C1804 1.539 . S
C1807 H1821 0.958 . S
C1807 H1822 0.961 . S
C1807 H1823 0.960 . S
H1808 C1792 0.931 . S
H1809 C1797 0.929 . S
H1810 C1798 0.960 . S
H1811 C1798 0.962 . S
H1812 C1798 0.960 . S
H1813 C1799 0.961 . S
H1814 C1799 0.961 . S
H1815 C1799 0.961 . S
H1816 C1800 0.931 . S
H1817 C1805 0.930 . S
H1818 C1806 0.956 . S
H1819 C1806 0.961 . S
H1820 C1806 0.961 . S
H1821 C1807 0.958 . S
H1822 C1807 0.961 . S
H1823 C1807 0.960 . S
C1824 C1825 1.391 . S
C1824 C1826 1.394 . S
C1824 H1840 0.931 . S
C1825 C1824 1.391 . S
C1825 C1829 1.376 . S
C1826 C1824 1.394 . S
C1826 C1827 1.369 . S
C1826 C1830 1.531 . S
C1827 C1826 1.369 . S
C1827 C1828 1.410 . S
C1827 C1835 1.503 . S
C1828 C1827 1.410 . S
C1828 C1829 1.392 . S
C1828 C1831 1.511 . S
C1829 C1825 1.376 . S
C1829 C1828 1.392 . S
C1829 H1841 0.929 . S
C1830 C1826 1.531 . S
C1830 H1842 0.960 . S
C1830 H1843 0.962 . S
C1830 H1844 0.960 . S
C1831 C1828 1.511 . S
C1831 H1845 0.961 . S
C1831 H1846 0.961 . S
C1831 H1847 0.961 . S
C1832 C1833 1.370 . S
C1832 C1834 1.363 . S
C1832 H1848 0.931 . S
C1833 C1832 1.370 . S
C1833 C1837 1.408 . S
C1834 C1832 1.363 . S
C1834 C1835 1.370 . S
C1834 C1838 1.524 . S
C1835 C1827 1.503 . S
C1835 C1834 1.370 . S
C1835 C1836 1.403 . S
C1836 C1835 1.403 . S
C1836 C1837 1.404 . S
C1836 C1839 1.539 . S
C1837 C1833 1.408 . S
C1837 C1836 1.404 . S
C1837 H1849 0.930 . S
C1838 C1834 1.524 . S
C1838 H1850 0.956 . S
C1838 H1851 0.961 . S
C1838 H1852 0.961 . S
C1839 C1836 1.539 . S
C1839 H1853 0.958 . S
C1839 H1854 0.961 . S
C1839 H1855 0.960 . S
H1840 C1824 0.931 . S
H1841 C1829 0.929 . S
H1842 C1830 0.960 . S
H1843 C1830 0.962 . S
H1844 C1830 0.960 . S
H1845 C1831 0.961 . S
H1846 C1831 0.961 . S
H1847 C1831 0.961 . S
H1848 C1832 0.931 . S
H1849 C1837 0.930 . S
H1850 C1838 0.956 . S
H1851 C1838 0.961 . S
H1852 C1838 0.961 . S
H1853 C1839 0.958 . S
H1854 C1839 0.961 . S
H1855 C1839 0.960 . S
C1856 C1857 1.391 . S
C1856 C1858 1.394 . S
C1856 H1872 0.931 . S
C1857 C1856 1.391 . S
C1857 C1861 1.376 . S
C1858 C1856 1.394 . S
C1858 C1859 1.369 . S
C1858 C1862 1.531 . S
C1859 C1858 1.369 . S
C1859 C1860 1.410 . S
C1859 C1867 1.503 . S
C1860 C1859 1.410 . S
C1860 C1861 1.392 . S
C1860 C1863 1.511 . S
C1861 C1857 1.376 . S
C1861 C1860 1.392 . S
C1861 H1873 0.929 . S
C1862 C1858 1.531 . S
C1862 H1874 0.960 . S
C1862 H1875 0.962 . S
C1862 H1876 0.960 . S
C1863 C1860 1.511 . S
C1863 H1877 0.961 . S
C1863 H1878 0.961 . S
C1863 H1879 0.961 . S
C1864 C1865 1.370 . S
C1864 C1866 1.363 . S
C1864 H1880 0.931 . S
C1865 C1864 1.370 . S
C1865 C1869 1.408 . S
C1866 C1864 1.363 . S
C1866 C1867 1.370 . S
C1866 C1870 1.524 . S
C1867 C1859 1.503 . S
C1867 C1866 1.370 . S
C1867 C1868 1.403 . S
C1868 C1867 1.403 . S
C1868 C1869 1.404 . S
C1868 C1871 1.539 . S
C1869 C1865 1.408 . S
C1869 C1868 1.404 . S
C1869 H1881 0.930 . S
C1870 C1866 1.524 . S
C1870 H1882 0.956 . S
C1870 H1883 0.961 . S
C1870 H1884 0.961 . S
C1871 C1868 1.539 . S
C1871 H1885 0.958 . S
C1871 H1886 0.961 . S
C1871 H1887 0.960 . S
H1872 C1856 0.931 . S
H1873 C1861 0.929 . S
H1874 C1862 0.960 . S
H1875 C1862 0.962 . S
H1876 C1862 0.960 . S
H1877 C1863 0.961 . S
H1878 C1863 0.961 . S
H1879 C1863 0.961 . S
H1880 C1864 0.931 . S
H1881 C1869 0.930 . S
H1882 C1870 0.956 . S
H1883 C1870 0.961 . S
H1884 C1870 0.961 . S
H1885 C1871 0.958 . S
H1886 C1871 0.961 . S
H1887 C1871 0.960 . S
C1888 C1889 1.391 . S
C1888 C1890 1.394 . S
C1888 H1904 0.931 . S
C1889 C1888 1.391 . S
C1889 C1893 1.376 . S
C1890 C1888 1.394 . S
C1890 C1891 1.369 . S
C1890 C1894 1.531 . S
C1891 C1890 1.369 . S
C1891 C1892 1.410 . S
C1891 C1899 1.503 . S
C1892 C1891 1.410 . S
C1892 C1893 1.392 . S
C1892 C1895 1.511 . S
C1893 C1889 1.376 . S
C1893 C1892 1.392 . S
C1893 H1905 0.929 . S
C1894 C1890 1.531 . S
C1894 H1906 0.960 . S
C1894 H1907 0.962 . S
C1894 H1908 0.960 . S
C1895 C1892 1.511 . S
C1895 H1909 0.961 . S
C1895 H1910 0.961 . S
C1895 H1911 0.961 . S
C1896 C1897 1.370 . S
C1896 C1898 1.363 . S
C1896 H1912 0.931 . S
C1897 C1896 1.370 . S
C1897 C1901 1.408 . S
C1898 C1896 1.363 . S
C1898 C1899 1.370 . S
C1898 C1902 1.524 . S
C1899 C1891 1.503 . S
C1899 C1898 1.370 . S
C1899 C1900 1.403 . S
C1900 C1899 1.403 . S
C1900 C1901 1.404 . S
C1900 C1903 1.539 . S
C1901 C1897 1.408 . S
C1901 C1900 1.404 . S
C1901 H1913 0.930 . S
C1902 C1898 1.524 . S
C1902 H1914 0.956 . S
C1902 H1915 0.961 . S
C1902 H1916 0.961 . S
C1903 C1900 1.539 . S
C1903 H1917 0.958 . S
C1903 H1918 0.961 . S
C1903 H1919 0.960 . S
H1904 C1888 0.931 . S
H1905 C1893 0.929 . S
H1906 C1894 0.960 . S
H1907 C1894 0.962 . S
H1908 C1894 0.960 . S
H1909 C1895 0.961 . S
H1910 C1895 0.961 . S
H1911 C1895 0.961 . S
H1912 C1896 0.931 . S
H1913 C1901 0.930 . S
H1914 C1902 0.956 . S
H1915 C1902 0.961 . S
H1916 C1902 0.961 . S
H1917 C1903 0.958 . S
H1918 C1903 0.961 . S
H1919 C1903 0.960 . S
C1920 C1921 1.391 . S
C1920 C1922 1.394 . S
C1920 H1936 0.931 . S
C1921 C1920 1.391 . S
C1921 C1925 1.376 . S
C1922 C1920 1.394 . S
C1922 C1923 1.369 . S
C1922 C1926 1.531 . S
C1923 C1922 1.369 . S
C1923 C1924 1.410 . S
C1923 C1931 1.503 . S
C1924 C1923 1.410 . S
C1924 C1925 1.392 . S
C1924 C1927 1.511 . S
C1925 C1921 1.376 . S
C1925 C1924 1.392 . S
C1925 H1937 0.929 . S
C1926 C1922 1.531 . S
C1926 H1938 0.960 . S
C1926 H1939 0.962 . S
C1926 H1940 0.960 . S
C1927 C1924 1.511 . S
C1927 H1941 0.961 . S
C1927 H1942 0.961 . S
C1927 H1943 0.961 . S
C1928 C1929 1.370 . S
C1928 C1930 1.363 . S
C1928 H1944 0.931 . S
C1929 C1928 1.370 . S
C1929 C1933 1.408 . S
C1930 C1928 1.363 . S
C1930 C1931 1.370 . S
C1930 C1934 1.524 . S
C1931 C1923 1.503 . S
C1931 C1930 1.370 . S
C1931 C1932 1.403 . S
C1932 C1931 1.403 . S
C1932 C1933 1.404 . S
C1932 C1935 1.539 . S
C1933 C1929 1.408 . S
C1933 C1932 1.404 . S
C1933 H1945 0.930 . S
C1934 C1930 1.524 . S
C1934 H1946 0.956 . S
C1934 H1947 0.961 . S
C1934 H1948 0.961 . S
C1935 C1932 1.539 . S
C1935 H1949 0.958 . S
C1935 H1950 0.961 . S
C1935 H1951 0.960 . S
H1936 C1920 0.931 . S
H1937 C1925 0.929 . S
H1938 C1926 0.960 . S
H1939 C1926 0.962 . S
H1940 C1926 0.960 . S
H1941 C1927 0.961 . S
H1942 C1927 0.961 . S
H1943 C1927 0.961 . S
H1944 C1928 0.931 . S
H1945 C1933 0.930 . S
H1946 C1934 0.956 . S
H1947 C1934 0.961 . S
H1948 C1934 0.961 . S
H1949 C1935 0.958 . S
H1950 C1935 0.961 . S
H1951 C1935 0.960 . S
C1952 C1953 1.391 . S
C1952 C1954 1.394 . S
C1952 H1968 0.931 . S
C1953 C1952 1.391 . S
C1953 C1957 1.376 . S
C1954 C1952 1.394 . S
C1954 C1955 1.369 . S
C1954 C1958 1.531 . S
C1955 C1954 1.369 . S
C1955 C1956 1.410 . S
C1955 C1963 1.503 . S
C1956 C1955 1.410 . S
C1956 C1957 1.392 . S
C1956 C1959 1.511 . S
C1957 C1953 1.376 . S
C1957 C1956 1.392 . S
C1957 H1969 0.929 . S
C1958 C1954 1.531 . S
C1958 H1970 0.960 . S
C1958 H1971 0.962 . S
C1958 H1972 0.960 . S
C1959 C1956 1.511 . S
C1959 H1973 0.961 . S
C1959 H1974 0.961 . S
C1959 H1975 0.961 . S
C1960 C1961 1.370 . S
C1960 C1962 1.363 . S
C1960 H1976 0.931 . S
C1961 C1960 1.370 . S
C1961 C1965 1.408 . S
C1962 C1960 1.363 . S
C1962 C1963 1.370 . S
C1962 C1966 1.524 . S
C1963 C1955 1.503 . S
C1963 C1962 1.370 . S
C1963 C1964 1.403 . S
C1964 C1963 1.403 . S
C1964 C1965 1.404 . S
C1964 C1967 1.539 . S
C1965 C1961 1.408 . S
C1965 C1964 1.404 . S
C1965 H1977 0.930 . S
C1966 C1962 1.524 . S
C1966 H1978 0.956 . S
C1966 H1979 0.961 . S
C1966 H1980 0.961 . S
C1967 C1964 1.539 . S
C1967 H1981 0.958 . S
C1967 H1982 0.961 . S
C1967 H1983 0.960 . S
H1968 C1952 0.931 . S
H1969 C1957 0.929 . S
H1970 C1958 0.960 . S
H1971 C1958 0.962 . S
H1972 C1958 0.960 . S
H1973 C1959 0.961 . S
H1974 C1959 0.961 . S
H1975 C1959 0.961 . S
H1976 C1960 0.931 . S
H1977 C1965 0.930 . S
H1978 C1966 0.956 . S
H1979 C1966 0.961 . S
H1980 C1966 0.961 . S
H1981 C1967 0.958 . S
H1982 C1967 0.961 . S
H1983 C1967 0.960 . S
C1984 C1985 1.391 . S
C1984 C1986 1.394 . S
C1984 H2000 0.931 . S
C1985 C1984 1.391 . S
C1985 C1989 1.376 . S
C1986 C1984 1.394 . S
C1986 C1987 1.369 . S
C1986 C1990 1.531 . S
C1987 C1986 1.369 . S
C1987 C1988 1.410 . S
C1987 C1995 1.503 . S
C1988 C1987 1.410 . S
C1988 C1989 1.392 . S
C1988 C1991 1.511 . S
C1989 C1985 1.376 . S
C1989 C1988 1.392 . S
C1989 H2001 0.929 . S
C1990 C1986 1.531 . S
C1990 H2002 0.960 . S
C1990 H2003 0.962 . S
C1990 H2004 0.960 . S
C1991 C1988 1.511 . S
C1991 H2005 0.961 . S
C1991 H2006 0.961 . S
C1991 H2007 0.961 . S
C1992 C1993 1.370 . S
C1992 C1994 1.363 . S
C1992 H2008 0.931 . S
C1993 C1992 1.370 . S
C1993 C1997 1.408 . S
C1994 C1992 1.363 . S
C1994 C1995 1.370 . S
C1994 C1998 1.524 . S
C1995 C1987 1.503 . S
C1995 C1994 1.370 . S
C1995 C1996 1.403 . S
C1996 C1995 1.403 . S
C1996 C1997 1.404 . S
C1996 C1999 1.539 . S
C1997 C1993 1.408 . S
C1997 C1996 1.404 . S
C1997 H2009 0.930 . S
C1998 C1994 1.524 . S
C1998 H2010 0.956 . S
C1998 H2011 0.961 . S
C1998 H2012 0.961 . S
C1999 C1996 1.539 . S
C1999 H2013 0.958 . S
C1999 H2014 0.961 . S
C1999 H2015 0.960 . S
H2000 C1984 0.931 . S
H2001 C1989 0.929 . S
H2002 C1990 0.960 . S
H2003 C1990 0.962 . S
H2004 C1990 0.960 . S
H2005 C1991 0.961 . S
H2006 C1991 0.961 . S
H2007 C1991 0.961 . S
H2008 C1992 0.931 . S
H2009 C1997 0.930 . S
H2010 C1998 0.956 . S
H2011 C1998 0.961 . S
H2012 C1998 0.961 . S
H2013 C1999 0.958 . S
H2014 C1999 0.961 . S
H2015 C1999 0.960 . S
C2016 C2017 1.391 . S
C2016 C2018 1.394 . S
C2016 H2032 0.931 . S
C2017 C2016 1.391 . S
C2017 C2021 1.376 . S
C2018 C2016 1.394 . S
C2018 C2019 1.369 . S
C2018 C2022 1.531 . S
C2019 C2018 1.369 . S
C2019 C2020 1.410 . S
C2019 C2027 1.503 . S
C2020 C2019 1.410 . S
C2020 C2021 1.392 . S
C2020 C2023 1.511 . S
C2021 C2017 1.376 . S
C2021 C2020 1.392 . S
C2021 H2033 0.929 . S
C2022 C2018 1.531 . S
C2022 H2034 0.960 . S
C2022 H2035 0.962 . S
C2022 H2036 0.960 . S
C2023 C2020 1.511 . S
C2023 H2037 0.961 . S
C2023 H2038 0.961 . S
C2023 H2039 0.961 . S
C2024 C2025 1.370 . S
C2024 C2026 1.363 . S
C2024 H2040 0.931 . S
C2025 C2024 1.370 . S
C2025 C2029 1.408 . S
C2026 C2024 1.363 . S
C2026 C2027 1.370 . S
C2026 C2030 1.524 . S
C2027 C2019 1.503 . S
C2027 C2026 1.370 . S
C2027 C2028 1.403 . S
C2028 C2027 1.403 . S
C2028 C2029 1.404 . S
C2028 C2031 1.539 . S
C2029 C2025 1.408 . S
C2029 C2028 1.404 . S
C2029 H2041 0.930 . S
C2030 C2026 1.524 . S
C2030 H2042 0.956 . S
C2030 H2043 0.961 . S
C2030 H2044 0.961 . S
C2031 C2028 1.539 . S
C2031 H2045 0.958 . S
C2031 H2046 0.961 . S
C2031 H2047 0.960 . S
H2032 C2016 0.931 . S
H2033 C2021 0.929 . S
H2034 C2022 0.960 . S
H2035 C2022 0.962 . S
H2036 C2022 0.960 . S
H2037 C2023 0.961 . S
H2038 C2023 0.961 . S
H2039 C2023 0.961 . S
H2040 C2024 0.931 . S
H2041 C2029 0.930 . S
H2042 C2030 0.956 . S
H2043 C2030 0.961 . S
H2044 C2030 0.961 . S
H2045 C2031 0.958 . S
H2046 C2031 0.961 . S
H2047 C2031 0.960 . S
C2048 C2049 1.391 . S
C2048 C2050 1.394 . S
C2048 H2064 0.931 . S
C2049 C2048 1.391 . S
C2049 C2053 1.376 . S
C2050 C2048 1.394 . S
C2050 C2051 1.369 . S
C2050 C2054 1.531 . S
C2051 C2050 1.369 . S
C2051 C2052 1.410 . S
C2051 C2059 1.503 . S
C2052 C2051 1.410 . S
C2052 C2053 1.392 . S
C2052 C2055 1.511 . S
C2053 C2049 1.376 . S
C2053 C2052 1.392 . S
C2053 H2065 0.929 . S
C2054 C2050 1.531 . S
C2054 H2066 0.960 . S
C2054 H2067 0.962 . S
C2054 H2068 0.960 . S
C2055 C2052 1.511 . S
C2055 H2069 0.961 . S
C2055 H2070 0.961 . S
C2055 H2071 0.961 . S
C2056 C2057 1.370 . S
C2056 C2058 1.363 . S
C2056 H2072 0.931 . S
C2057 C2056 1.370 . S
C2057 C2061 1.408 . S
C2058 C2056 1.363 . S
C2058 C2059 1.370 . S
C2058 C2062 1.524 . S
C2059 C2051 1.503 . S
C2059 C2058 1.370 . S
C2059 C2060 1.403 . S
C2060 C2059 1.403 . S
C2060 C2061 1.404 . S
C2060 C2063 1.539 . S
C2061 C2057 1.408 . S
C2061 C2060 1.404 . S
C2061 H2073 0.930 . S
C2062 C2058 1.524 . S
C2062 H2074 0.956 . S
C2062 H2075 0.961 . S
C2062 H2076 0.961 . S
C2063 C2060 1.539 . S
C2063 H2077 0.958 . S
C2063 H2078 0.961 . S
C2063 H2079 0.960 . S
H2064 C2048 0.931 . S
H2065 C2053 0.929 . S
H2066 C2054 0.960 . S
H2067 C2054 0.962 . S
H2068 C2054 0.960 . S
H2069 C2055 0.961 . S
H2070 C2055 0.961 . S
H2071 C2055 0.961 . S
H2072 C2056 0.931 . S
H2073 C2061 0.930 . S
H2074 C2062 0.956 . S
H2075 C2062 0.961 . S
H2076 C2062 0.961 . S
H2077 C2063 0.958 . S
H2078 C2063 0.961 . S
H2079 C2063 0.960 . S
C2080 C2081 1.391 . S
C2080 C2082 1.394 . S
C2080 H2096 0.931 . S
C2081 C2080 1.391 . S
C2081 C2085 1.376 . S
C2082 C2080 1.394 . S
C2082 C2083 1.369 . S
C2082 C2086 1.531 . S
C2083 C2082 1.369 . S
C2083 C2084 1.410 . S
C2083 C2091 1.503 . S
C2084 C2083 1.410 . S
C2084 C2085 1.392 . S
C2084 C2087 1.511 . S
C2085 C2081 1.376 . S
C2085 C2084 1.392 . S
C2085 H2097 0.929 . S
C2086 C2082 1.531 . S
C2086 H2098 0.960 . S
C2086 H2099 0.962 . S
C2086 H2100 0.960 . S
C2087 C2084 1.511 . S
C2087 H2101 0.961 . S
C2087 H2102 0.961 . S
C2087 H2103 0.961 . S
C2088 C2089 1.370 . S
C2088 C2090 1.363 . S
C2088 H2104 0.931 . S
C2089 C2088 1.370 . S
C2089 C2093 1.408 . S
C2090 C2088 1.363 . S
C2090 C2091 1.370 . S
C2090 C2094 1.524 . S
C2091 C2083 1.503 . S
C2091 C2090 1.370 . S
C2091 C2092 1.403 . S
C2092 C2091 1.403 . S
C2092 C2093 1.404 . S
C2092 C2095 1.539 . S
C2093 C2089 1.408 . S
C2093 C2092 1.404 . S
C2093 H2105 0.930 . S
C2094 C2090 1.524 . S
C2094 H2106 0.956 . S
C2094 H2107 0.961 . S
C2094 H2108 0.961 . S
C2095 C2092 1.539 . S
C2095 H2109 0.958 . S
C2095 H2110 0.961 . S
C2095 H2111 0.960 . S
H2096 C2080 0.931 . S
H2097 C2085 0.929 . S
H2098 C2086 0.960 . S
H2099 C2086 0.962 . S
H2100 C2086 0.960 . S
H2101 C2087 0.961 . S
H2102 C2087 0.961 . S
H2103 C2087 0.961 . S
H2104 C2088 0.931 . S
H2105 C2093 0.930 . S
H2106 C2094 0.956 . S
H2107 C2094 0.961 . S
H2108 C2094 0.961 . S
H2109 C2095 0.958 . S
H2110 C2095 0.961 . S
H2111 C2095 0.960 . S
C2112 C2113 1.391 . S
C2112 C2114 1.394 . S
C2112 H2128 0.931 . S
C2113 C2112 1.391 . S
C2113 C2117 1.376 . S
C2114 C2112 1.394 . S
C2114 C2115 1.369 . S
C2114 C2118 1.531 . S
C2115 C2114 1.369 . S
C2115 C2116 1.410 . S
C2115 C2123 1.503 . S
C2116 C2115 1.410 . S
C2116 C2117 1.392 . S
C2116 C2119 1.511 . S
C2117 C2113 1.376 . S
C2117 C2116 1.392 . S
C2117 H2129 0.929 . S
C2118 C2114 1.531 . S
C2118 H2130 0.960 . S
C2118 H2131 0.962 . S
C2118 H2132 0.960 . S
C2119 C2116 1.511 . S
C2119 H2133 0.961 . S
C2119 H2134 0.961 . S
C2119 H2135 0.961 . S
C2120 C2121 1.370 . S
C2120 C2122 1.363 . S
C2120 H2136 0.931 . S
C2121 C2120 1.370 . S
C2121 C2125 1.408 . S
C2122 C2120 1.363 . S
C2122 C2123 1.370 . S
C2122 C2126 1.524 . S
C2123 C2115 1.503 . S
C2123 C2122 1.370 . S
C2123 C2124 1.403 . S
C2124 C2123 1.403 . S
C2124 C2125 1.404 . S
C2124 C2127 1.539 . S
C2125 C2121 1.408 . S
C2125 C2124 1.404 . S
C2125 H2137 0.930 . S
C2126 C2122 1.524 . S
C2126 H2138 0.956 . S
C2126 H2139 0.961 . S
C2126 H2140 0.961 . S
C2127 C2124 1.539 . S
C2127 H2141 0.958 . S
C2127 H2142 0.961 . S
C2127 H2143 0.960 . S
H2128 C2112 0.931 . S
H2129 C2117 0.929 . S
H2130 C2118 0.960 . S
H2131 C2118 0.962 . S
H2132 C2118 0.960 . S
H2133 C2119 0.961 . S
H2134 C2119 0.961 . S
H2135 C2119 0.961 . S
H2136 C2120 0.931 . S
H2137 C2125 0.930 . S
H2138 C2126 0.956 . S
H2139 C2126 0.961 . S
H2140 C2126 0.961 . S
H2141 C2127 0.958 . S
H2142 C2127 0.961 . S
H2143 C2127 0.960 . S
C2144 C2145 1.391 . S
C2144 C2146 1.394 . S
C2144 H2160 0.931 . S
C2145 C2144 1.391 . S
C2145 C2149 1.376 . S
C2146 C2144 1.394 . S
C2146 C2147 1.369 . S
C2146 C2150 1.531 . S
C2147 C2146 1.369 . S
C2147 C2148 1.410 . S
C2147 C2155 1.503 . S
C2148 C2147 1.410 . S
C2148 C2149 1.392 . S
C2148 C2151 1.511 . S
C2149 C2145 1.376 . S
C2149 C2148 1.392 . S
C2149 H2161 0.929 . S
C2150 C2146 1.531 . S
C2150 H2162 0.960 . S
C2150 H2163 0.962 . S
C2150 H2164 0.960 . S
C2151 C2148 1.511 . S
C2151 H2165 0.961 . S
C2151 H2166 0.961 . S
C2151 H2167 0.961 . S
C2152 C2153 1.370 . S
C2152 C2154 1.363 . S
C2152 H2168 0.931 . S
C2153 C2152 1.370 . S
C2153 C2157 1.408 . S
C2154 C2152 1.363 . S
C2154 C2155 1.370 . S
C2154 C2158 1.524 . S
C2155 C2147 1.503 . S
C2155 C2154 1.370 . S
C2155 C2156 1.403 . S
C2156 C2155 1.403 . S
C2156 C2157 1.404 . S
C2156 C2159 1.539 . S
C2157 C2153 1.408 . S
C2157 C2156 1.404 . S
C2157 H2169 0.930 . S
C2158 C2154 1.524 . S
C2158 H2170 0.956 . S
C2158 H2171 0.961 . S
C2158 H2172 0.961 . S
C2159 C2156 1.539 . S
C2159 H2173 0.958 . S
C2159 H2174 0.961 . S
C2159 H2175 0.960 . S
H2160 C2144 0.931 . S
H2161 C2149 0.929 . S
H2162 C2150 0.960 . S
H2163 C2150 0.962 . S
H2164 C2150 0.960 . S
H2165 C2151 0.961 . S
H2166 C2151 0.961 . S
H2167 C2151 0.961 . S
H2168 C2152 0.931 . S
H2169 C2157 0.930 . S
H2170 C2158 0.956 . S
H2171 C2158 0.961 . S
H2172 C2158 0.961 . S
H2173 C2159 0.958 . S
H2174 C2159 0.961 . S
H2175 C2159 0.960 . S
C2176 C2177 1.391 . S
C2176 C2178 1.394 . S
C2176 H2192 0.931 . S
C2177 C2176 1.391 . S
C2177 C2181 1.376 . S
C2178 C2176 1.394 . S
C2178 C2179 1.369 . S
C2178 C2182 1.531 . S
C2179 C2178 1.369 . S
C2179 C2180 1.410 . S
C2179 C2187 1.503 . S
C2180 C2179 1.410 . S
C2180 C2181 1.392 . S
C2180 C2183 1.511 . S
C2181 C2177 1.376 . S
C2181 C2180 1.392 . S
C2181 H2193 0.929 . S
C2182 C2178 1.531 . S
C2182 H2194 0.960 . S
C2182 H2195 0.962 . S
C2182 H2196 0.960 . S
C2183 C2180 1.511 . S
C2183 H2197 0.961 . S
C2183 H2198 0.961 . S
C2183 H2199 0.961 . S
C2184 C2185 1.370 . S
C2184 C2186 1.363 . S
C2184 H2200 0.931 . S
C2185 C2184 1.370 . S
C2185 C2189 1.408 . S
C2186 C2184 1.363 . S
C2186 C2187 1.370 . S
C2186 C2190 1.524 . S
C2187 C2179 1.503 . S
C2187 C2186 1.370 . S
C2187 C2188 1.403 . S
C2188 C2187 1.403 . S
C2188 C2189 1.404 . S
C2188 C2191 1.539 . S
C2189 C2185 1.408 . S
C2189 C2188 1.404 . S
C2189 H2201 0.930 . S
C2190 C2186 1.524 . S
C2190 H2202 0.956 . S
C2190 H2203 0.961 . S
C2190 H2204 0.961 . S
C2191 C2188 1.539 . S
C2191 H2205 0.958 . S
C2191 H2206 0.961 . S
C2191 H2207 0.960 . S
H2192 C2176 0.931 . S
H2193 C2181 0.929 . S
H2194 C2182 0.960 . S
H2195 C2182 0.962 . S
H2196 C2182 0.960 . S
H2197 C2183 0.961 . S
H2198 C2183 0.961 . S
H2199 C2183 0.961 . S
H2200 C2184 0.931 . S
H2201 C2189 0.930 . S
H2202 C2190 0.956 . S
H2203 C2190 0.961 . S
H2204 C2190 0.961 . S
H2205 C2191 0.958 . S
H2206 C2191 0.961 . S
H2207 C2191 0.960 . S
C2208 C2209 1.391 . S
C2208 C2210 1.394 . S
C2208 H2224 0.931 . S
C2209 C2208 1.391 . S
C2209 C2213 1.376 . S
C2210 C2208 1.394 . S
C2210 C2211 1.369 . S
C2210 C2214 1.531 . S
C2211 C2210 1.369 . S
C2211 C2212 1.410 . S
C2211 C2219 1.503 . S
C2212 C2211 1.410 . S
C2212 C2213 1.392 . S
C2212 C2215 1.511 . S
C2213 C2209 1.376 . S
C2213 C2212 1.392 . S
C2213 H2225 0.929 . S
C2214 C2210 1.531 . S
C2214 H2226 0.960 . S
C2214 H2227 0.962 . S
C2214 H2228 0.960 . S
C2215 C2212 1.511 . S
C2215 H2229 0.961 . S
C2215 H2230 0.961 . S
C2215 H2231 0.961 . S
C2216 C2217 1.370 . S
C2216 C2218 1.363 . S
C2216 H2232 0.931 . S
C2217 C2216 1.370 . S
C2217 C2221 1.408 . S
C2218 C2216 1.363 . S
C2218 C2219 1.370 . S
C2218 C2222 1.524 . S
C2219 C2211 1.503 . S
C2219 C2218 1.370 . S
C2219 C2220 1.403 . S
C2220 C2219 1.403 . S
C2220 C2221 1.404 . S
C2220 C2223 1.539 . S
C2221 C2217 1.408 . S
C2221 C2220 1.404 . S
C2221 H2233 0.930 . S
C2222 C2218 1.524 . S
C2222 H2234 0.956 . S
C2222 H2235 0.961 . S
C2222 H2236 0.961 . S
C2223 C2220 1.539 . S
C2223 H2237 0.958 . S
C2223 H2238 0.961 . S
C2223 H2239 0.960 . S
H2224 C2208 0.931 . S
H2225 C2213 0.929 . S
H2226 C2214 0.960 . S
H2227 C2214 0.962 . S
H2228 C2214 0.960 . S
H2229 C2215 0.961 . S
H2230 C2215 0.961 . S
H2231 C2215 0.961 . S
H2232 C2216 0.931 . S
H2233 C2221 0.930 . S
H2234 C2222 0.956 . S
H2235 C2222 0.961 . S
H2236 C2222 0.961 . S
H2237 C2223 0.958 . S
H2238 C2223 0.961 . S
H2239 C2223 0.960 . S
C2240 C2241 1.391 . S
C2240 C2242 1.394 . S
C2240 H2256 0.931 . S
C2241 C2240 1.391 . S
C2241 C2245 1.376 . S
C2242 C2240 1.394 . S
C2242 C2243 1.369 . S
C2242 C2246 1.531 . S
C2243 C2242 1.369 . S
C2243 C2244 1.410 . S
C2243 C2251 1.503 . S
C2244 C2243 1.410 . S
C2244 C2245 1.392 . S
C2244 C2247 1.511 . S
C2245 C2241 1.376 . S
C2245 C2244 1.392 . S
C2245 H2257 0.929 . S
C2246 C2242 1.531 . S
C2246 H2258 0.960 . S
C2246 H2259 0.962 . S
C2246 H2260 0.960 . S
C2247 C2244 1.511 . S
C2247 H2261 0.961 . S
C2247 H2262 0.961 . S
C2247 H2263 0.961 . S
C2248 C2249 1.370 . S
C2248 C2250 1.363 . S
C2248 H2264 0.931 . S
C2249 C2248 1.370 . S
C2249 C2253 1.408 . S
C2250 C2248 1.363 . S
C2250 C2251 1.370 . S
C2250 C2254 1.524 . S
C2251 C2243 1.503 . S
C2251 C2250 1.370 . S
C2251 C2252 1.403 . S
C2252 C2251 1.403 . S
C2252 C2253 1.404 . S
C2252 C2255 1.539 . S
C2253 C2249 1.408 . S
C2253 C2252 1.404 . S
C2253 H2265 0.930 . S
C2254 C2250 1.524 . S
C2254 H2266 0.956 . S
C2254 H2267 0.961 . S
C2254 H2268 0.961 . S
C2255 C2252 1.539 . S
C2255 H2269 0.958 . S
C2255 H2270 0.961 . S
C2255 H2271 0.960 . S
H2256 C2240 0.931 . S
H2257 C2245 0.929 . S
H2258 C2246 0.960 . S
H2259 C2246 0.962 . S
H2260 C2246 0.960 . S
H2261 C2247 0.961 . S
H2262 C2247 0.961 . S
H2263 C2247 0.961 . S
H2264 C2248 0.931 . S
H2265 C2253 0.930 . S
H2266 C2254 0.956 . S
H2267 C2254 0.961 . S
H2268 C2254 0.961 . S
H2269 C2255 0.958 . S
H2270 C2255 0.961 . S
H2271 C2255 0.960 . S
C2272 C2273 1.391 . S
C2272 C2274 1.394 . S
C2272 H2288 0.931 . S
C2273 C2272 1.391 . S
C2273 C2277 1.376 . S
C2274 C2272 1.394 . S
C2274 C2275 1.369 . S
C2274 C2278 1.531 . S
C2275 C2274 1.369 . S
C2275 C2276 1.410 . S
C2275 C2283 1.503 . S
C2276 C2275 1.410 . S
C2276 C2277 1.392 . S
C2276 C2279 1.511 . S
C2277 C2273 1.376 . S
C2277 C2276 1.392 . S
C2277 H2289 0.929 . S
C2278 C2274 1.531 . S
C2278 H2290 0.960 . S
C2278 H2291 0.962 . S
C2278 H2292 0.960 . S
C2279 C2276 1.511 . S
C2279 H2293 0.961 . S
C2279 H2294 0.961 . S
C2279 H2295 0.961 . S
C2280 C2281 1.370 . S
C2280 C2282 1.363 . S
C2280 H2296 0.931 . S
C2281 C2280 1.370 . S
C2281 C2285 1.408 . S
C2282 C2280 1.363 . S
C2282 C2283 1.370 . S
C2282 C2286 1.524 . S
C2283 C2275 1.503 . S
C2283 C2282 1.370 . S
C2283 C2284 1.403 . S
C2284 C2283 1.403 . S
C2284 C2285 1.404 . S
C2284 C2287 1.539 . S
C2285 C2281 1.408 . S
C2285 C2284 1.404 . S
C2285 H2297 0.930 . S
C2286 C2282 1.524 . S
C2286 H2298 0.956 . S
C2286 H2299 0.961 . S
C2286 H2300 0.961 . S
C2287 C2284 1.539 . S
C2287 H2301 0.958 . S
C2287 H2302 0.961 . S
C2287 H2303 0.960 . S
H2288 C2272 0.931 . S
H2289 C2277 0.929 . S
H2290 C2278 0.960 . S
H2291 C2278 0.962 . S
H2292 C2278 0.960 . S
H2293 C2279 0.961 . S
H2294 C2279 0.961 . S
H2295 C2279 0.961 . S
H2296 C2280 0.931 . S
H2297 C2285 0.930 . S
H2298 C2286 0.956 . S
H2299 C2286 0.961 . S
H2300 C2286 0.961 . S
H2301 C2287 0.958 . S
H2302 C2287 0.961 . S
H2303 C2287 0.960 . S
C2304 C2305 1.391 . S
C2304 C2306 1.394 . S
C2304 H2320 0.931 . S
C2305 C2304 1.391 . S
C2305 C2309 1.376 . S
C2306 C2304 1.394 . S
C2306 C2307 1.369 . S
C2306 C2310 1.531 . S
C2307 C2306 1.369 . S
C2307 C2308 1.410 . S
C2307 C2315 1.503 . S
C2308 C2307 1.410 . S
C2308 C2309 1.392 . S
C2308 C2311 1.511 . S
C2309 C2305 1.376 . S
C2309 C2308 1.392 . S
C2309 H2321 0.929 . S
C2310 C2306 1.531 . S
C2310 H2322 0.960 . S
C2310 H2323 0.962 . S
C2310 H2324 0.960 . S
C2311 C2308 1.511 . S
C2311 H2325 0.961 . S
C2311 H2326 0.961 . S
C2311 H2327 0.961 . S
C2312 C2313 1.370 . S
C2312 C2314 1.363 . S
C2312 H2328 0.931 . S
C2313 C2312 1.370 . S
C2313 C2317 1.408 . S
C2314 C2312 1.363 . S
C2314 C2315 1.370 . S
C2314 C2318 1.524 . S
C2315 C2307 1.503 . S
C2315 C2314 1.370 . S
C2315 C2316 1.403 . S
C2316 C2315 1.403 . S
C2316 C2317 1.404 . S
C2316 C2319 1.539 . S
C2317 C2313 1.408 . S
C2317 C2316 1.404 . S
C2317 H2329 0.930 . S
C2318 C2314 1.524 . S
C2318 H2330 0.956 . S
C2318 H2331 0.961 . S
C2318 H2332 0.961 . S
C2319 C2316 1.539 . S
C2319 H2333 0.958 . S
C2319 H2334 0.961 . S
C2319 H2335 0.960 . S
H2320 C2304 0.931 . S
H2321 C2309 0.929 . S
H2322 C2310 0.960 . S
H2323 C2310 0.962 . S
H2324 C2310 0.960 . S
H2325 C2311 0.961 . S
H2326 C2311 0.961 . S
H2327 C2311 0.961 . S
H2328 C2312 0.931 . S
H2329 C2317 0.930 . S
H2330 C2318 0.956 . S
H2331 C2318 0.961 . S
H2332 C2318 0.961 . S
H2333 C2319 0.958 . S
H2334 C2319 0.961 . S
H2335 C2319 0.960 . S
C2336 C2337 1.391 . S
C2336 C2338 1.394 . S
C2336 H2352 0.931 . S
C2337 C2336 1.391 . S
C2337 C2341 1.376 . S
C2338 C2336 1.394 . S
C2338 C2339 1.369 . S
C2338 C2342 1.531 . S
C2339 C2338 1.369 . S
C2339 C2340 1.410 . S
C2339 C2347 1.503 . S
C2340 C2339 1.410 . S
C2340 C2341 1.392 . S
C2340 C2343 1.511 . S
C2341 C2337 1.376 . S
C2341 C2340 1.392 . S
C2341 H2353 0.929 . S
C2342 C2338 1.531 . S
C2342 H2354 0.960 . S
C2342 H2355 0.962 . S
C2342 H2356 0.960 . S
C2343 C2340 1.511 . S
C2343 H2357 0.961 . S
C2343 H2358 0.961 . S
C2343 H2359 0.961 . S
C2344 C2345 1.370 . S
C2344 C2346 1.363 . S
C2344 H2360 0.931 . S
C2345 C2344 1.370 . S
C2345 C2349 1.408 . S
C2346 C2344 1.363 . S
C2346 C2347 1.370 . S
C2346 C2350 1.524 . S
C2347 C2339 1.503 . S
C2347 C2346 1.370 . S
C2347 C2348 1.403 . S
C2348 C2347 1.403 . S
C2348 C2349 1.404 . S
C2348 C2351 1.539 . S
C2349 C2345 1.408 . S
C2349 C2348 1.404 . S
C2349 H2361 0.930 . S
C2350 C2346 1.524 . S
C2350 H2362 0.956 . S
C2350 H2363 0.961 . S
C2350 H2364 0.961 . S
C2351 C2348 1.539 . S
C2351 H2365 0.958 . S
C2351 H2366 0.961 . S
C2351 H2367 0.960 . S
H2352 C2336 0.931 . S
H2353 C2341 0.929 . S
H2354 C2342 0.960 . S
H2355 C2342 0.962 . S
H2356 C2342 0.960 . S
H2357 C2343 0.961 . S
H2358 C2343 0.961 . S
H2359 C2343 0.961 . S
H2360 C2344 0.931 . S
H2361 C2349 0.930 . S
H2362 C2350 0.956 . S
H2363 C2350 0.961 . S
H2364 C2350 0.961 . S
H2365 C2351 0.958 . S
H2366 C2351 0.961 . S
H2367 C2351 0.960 . S
C2368 C2369 1.391 . S
C2368 C2370 1.394 . S
C2368 H2384 0.931 . S
C2369 C2368 1.391 . S
C2369 C2373 1.376 . S
C2370 C2368 1.394 . S
C2370 C2371 1.369 . S
C2370 C2374 1.531 . S
C2371 C2370 1.369 . S
C2371 C2372 1.410 . S
C2371 C2379 1.503 . S
C2372 C2371 1.410 . S
C2372 C2373 1.392 . S
C2372 C2375 1.511 . S
C2373 C2369 1.376 . S
C2373 C2372 1.392 . S
C2373 H2385 0.929 . S
C2374 C2370 1.531 . S
C2374 H2386 0.960 . S
C2374 H2387 0.962 . S
C2374 H2388 0.960 . S
C2375 C2372 1.511 . S
C2375 H2389 0.961 . S
C2375 H2390 0.961 . S
C2375 H2391 0.961 . S
C2376 C2377 1.370 . S
C2376 C2378 1.363 . S
C2376 H2392 0.931 . S
C2377 C2376 1.370 . S
C2377 C2381 1.408 . S
C2378 C2376 1.363 . S
C2378 C2379 1.370 . S
C2378 C2382 1.524 . S
C2379 C2371 1.503 . S
C2379 C2378 1.370 . S
C2379 C2380 1.403 . S
C2380 C2379 1.403 . S
C2380 C2381 1.404 . S
C2380 C2383 1.539 . S
C2381 C2377 1.408 . S
C2381 C2380 1.404 . S
C2381 H2393 0.930 . S
C2382 C2378 1.524 . S
C2382 H2394 0.956 . S
C2382 H2395 0.961 . S
C2382 H2396 0.961 . S
C2383 C2380 1.539 . S
C2383 H2397 0.958 . S
C2383 H2398 0.961 . S
C2383 H2399 0.960 . S
H2384 C2368 0.931 . S
H2385 C2373 0.929 . S
H2386 C2374 0.960 . S
H2387 C2374 0.962 . S
H2388 C2374 0.960 . S
H2389 C2375 0.961 . S
H2390 C2375 0.961 . S
H2391 C2375 0.961 . S
H2392 C2376 0.931 . S
H2393 C2381 0.930 . S
H2394 C2382 0.956 . S
H2395 C2382 0.961 . S
H2396 C2382 0.961 . S
H2397 C2383 0.958 . S
H2398 C2383 0.961 . S
H2399 C2383 0.960 . S
C2400 C2401 1.391 . S
C2400 C2402 1.394 . S
C2400 H2416 0.931 . S
C2401 C2400 1.391 . S
C2401 C2405 1.376 . S
C2402 C2400 1.394 . S
C2402 C2403 1.369 . S
C2402 C2406 1.531 . S
C2403 C2402 1.369 . S
C2403 C2404 1.410 . S
C2403 C2411 1.503 . S
C2404 C2403 1.410 . S
C2404 C2405 1.392 . S
C2404 C2407 1.511 . S
C2405 C2401 1.376 . S
C2405 C2404 1.392 . S
C2405 H2417 0.929 . S
C2406 C2402 1.531 . S
C2406 H2418 0.960 . S
C2406 H2419 0.962 . S
C2406 H2420 0.960 . S
C2407 C2404 1.511 . S
C2407 H2421 0.961 . S
C2407 H2422 0.961 . S
C2407 H2423 0.961 . S
C2408 C2409 1.370 . S
C2408 C2410 1.363 . S
C2408 H2424 0.931 . S
C2409 C2408 1.370 . S
C2409 C2413 1.408 . S
C2410 C2408 1.363 . S
C2410 C2411 1.370 . S
C2410 C2414 1.524 . S
C2411 C2403 1.503 . S
C2411 C2410 1.370 . S
C2411 C2412 1.403 . S
C2412 C2411 1.403 . S
C2412 C2413 1.404 . S
C2412 C2415 1.539 . S
C2413 C2409 1.408 . S
C2413 C2412 1.404 . S
C2413 H2425 0.930 . S
C2414 C2410 1.524 . S
C2414 H2426 0.956 . S
C2414 H2427 0.961 . S
C2414 H2428 0.961 . S
C2415 C2412 1.539 . S
C2415 H2429 0.958 . S
C2415 H2430 0.961 . S
C2415 H2431 0.960 . S
H2416 C2400 0.931 . S
H2417 C2405 0.929 . S
H2418 C2406 0.960 . S
H2419 C2406 0.962 . S
H2420 C2406 0.960 . S
H2421 C2407 0.961 . S
H2422 C2407 0.961 . S
H2423 C2407 0.961 . S
H2424 C2408 0.931 . S
H2425 C2413 0.930 . S
H2426 C2414 0.956 . S
H2427 C2414 0.961 . S
H2428 C2414 0.961 . S
H2429 C2415 0.958 . S
H2430 C2415 0.961 . S
H2431 C2415 0.960 . S
C2432 C2433 1.391 . S
C2432 C2434 1.394 . S
C2432 H2448 0.931 . S
C2433 C2432 1.391 . S
C2433 C2437 1.376 . S
C2434 C2432 1.394 . S
C2434 C2435 1.369 . S
C2434 C2438 1.531 . S
C2435 C2434 1.369 . S
C2435 C2436 1.410 . S
C2435 C2443 1.503 . S
C2436 C2435 1.410 . S
C2436 C2437 1.392 . S
C2436 C2439 1.511 . S
C2437 C2433 1.376 . S
C2437 C2436 1.392 . S
C2437 H2449 0.929 . S
C2438 C2434 1.531 . S
C2438 H2450 0.960 . S
C2438 H2451 0.962 . S
C2438 H2452 0.960 . S
C2439 C2436 1.511 . S
C2439 H2453 0.961 . S
C2439 H2454 0.961 . S
C2439 H2455 0.961 . S
C2440 C2441 1.370 . S
C2440 C2442 1.363 . S
C2440 H2456 0.931 . S
C2441 C2440 1.370 . S
C2441 C2445 1.408 . S
C2442 C2440 1.363 . S
C2442 C2443 1.370 . S
C2442 C2446 1.524 . S
C2443 C2435 1.503 . S
C2443 C2442 1.370 . S
C2443 C2444 1.403 . S
C2444 C2443 1.403 . S
C2444 C2445 1.404 . S
C2444 C2447 1.539 . S
C2445 C2441 1.408 . S
C2445 C2444 1.404 . S
C2445 H2457 0.930 . S
C2446 C2442 1.524 . S
C2446 H2458 0.956 . S
C2446 H2459 0.961 . S
C2446 H2460 0.961 . S
C2447 C2444 1.539 . S
C2447 H2461 0.958 . S
C2447 H2462 0.961 . S
C2447 H2463 0.960 . S
H2448 C2432 0.931 . S
H2449 C2437 0.929 . S
H2450 C2438 0.960 . S
H2451 C2438 0.962 . S
H2452 C2438 0.960 . S
H2453 C2439 0.961 . S
H2454 C2439 0.961 . S
H2455 C2439 0.961 . S
H2456 C2440 0.931 . S
H2457 C2445 0.930 . S
H2458 C2446 0.956 . S
H2459 C2446 0.961 . S
H2460 C2446 0.961 . S
H2461 C2447 0.958 . S
H2462 C2447 0.961 . S
H2463 C2447 0.960 . S
C2464 C2465 1.391 . S
C2464 C2466 1.394 . S
C2464 H2480 0.931 . S
C2465 C2464 1.391 . S
C2465 C2469 1.376 . S
C2466 C2464 1.394 . S
C2466 C2467 1.369 . S
C2466 C2470 1.531 . S
C2467 C2466 1.369 . S
C2467 C2468 1.410 . S
C2467 C2475 1.503 . S
C2468 C2467 1.410 . S
C2468 C2469 1.392 . S
C2468 C2471 1.511 . S
C2469 C2465 1.376 . S
C2469 C2468 1.392 . S
C2469 H2481 0.929 . S
C2470 C2466 1.531 . S
C2470 H2482 0.960 . S
C2470 H2483 0.962 . S
C2470 H2484 0.960 . S
C2471 C2468 1.511 . S
C2471 H2485 0.961 . S
C2471 H2486 0.961 . S
C2471 H2487 0.961 . S
C2472 C2473 1.370 . S
C2472 C2474 1.363 . S
C2472 H2488 0.931 . S
C2473 C2472 1.370 . S
C2473 C2477 1.408 . S
C2474 C2472 1.363 . S
C2474 C2475 1.370 . S
C2474 C2478 1.524 . S
C2475 C2467 1.503 . S
C2475 C2474 1.370 . S
C2475 C2476 1.403 . S
C2476 C2475 1.403 . S
C2476 C2477 1.404 . S
C2476 C2479 1.539 . S
C2477 C2473 1.408 . S
C2477 C2476 1.404 . S
C2477 H2489 0.930 . S
C2478 C2474 1.524 . S
C2478 H2490 0.956 . S
C2478 H2491 0.961 . S
C2478 H2492 0.961 . S
C2479 C2476 1.539 . S
C2479 H2493 0.958 . S
C2479 H2494 0.961 . S
C2479 H2495 0.960 . S
H2480 C2464 0.931 . S
H2481 C2469 0.929 . S
H2482 C2470 0.960 . S
H2483 C2470 0.962 . S
H2484 C2470 0.960 . S
H2485 C2471 0.961 . S
H2486 C2471 0.961 . S
H2487 C2471 0.961 . S
H2488 C2472 0.931 . S
H2489 C2477 0.930 . S
H2490 C2478 0.956 . S
H2491 C2478 0.961 . S
H2492 C2478 0.961 . S
H2493 C2479 0.958 . S
H2494 C2479 0.961 . S
H2495 C2479 0.960 . S
C2496 C2497 1.391 . S
C2496 C2498 1.394 . S
C2496 H2512 0.931 . S
C2497 C2496 1.391 . S
C2497 C2501 1.376 . S
C2498 C2496 1.394 . S
C2498 C2499 1.369 . S
C2498 C2502 1.531 . S
C2499 C2498 1.369 . S
C2499 C2500 1.410 . S
C2499 C2507 1.503 . S
C2500 C2499 1.410 . S
C2500 C2501 1.392 . S
C2500 C2503 1.511 . S
C2501 C2497 1.376 . S
C2501 C2500 1.392 . S
C2501 H2513 0.929 . S
C2502 C2498 1.531 . S
C2502 H2514 0.960 . S
C2502 H2515 0.962 . S
C2502 H2516 0.960 . S
C2503 C2500 1.511 . S
C2503 H2517 0.961 . S
C2503 H2518 0.961 . S
C2503 H2519 0.961 . S
C2504 C2505 1.370 . S
C2504 C2506 1.363 . S
C2504 H2520 0.931 . S
C2505 C2504 1.370 . S
C2505 C2509 1.408 . S
C2506 C2504 1.363 . S
C2506 C2507 1.370 . S
C2506 C2510 1.524 . S
C2507 C2499 1.503 . S
C2507 C2506 1.370 . S
C2507 C2508 1.403 . S
C2508 C2507 1.403 . S
C2508 C2509 1.404 . S
C2508 C2511 1.539 . S
C2509 C2505 1.408 . S
C2509 C2508 1.404 . S
C2509 H2521 0.930 . S
C2510 C2506 1.524 . S
C2510 H2522 0.956 . S
C2510 H2523 0.961 . S
C2510 H2524 0.961 . S
C2511 C2508 1.539 . S
C2511 H2525 0.958 . S
C2511 H2526 0.961 . S
C2511 H2527 0.960 . S
H2512 C2496 0.931 . S
H2513 C2501 0.929 . S
H2514 C2502 0.960 . S
H2515 C2502 0.962 . S
H2516 C2502 0.960 . S
H2517 C2503 0.961 . S
H2518 C2503 0.961 . S
H2519 C2503 0.961 . S
H2520 C2504 0.931 . S
H2521 C2509 0.930 . S
H2522 C2510 0.956 . S
H2523 C2510 0.961 . S
H2524 C2510 0.961 . S
H2525 C2511 0.958 . S
H2526 C2511 0.961 . S
H2527 C2511 0.960 . S
C2528 C2529 1.391 . S
C2528 C2530 1.394 . S
C2528 H2544 0.931 . S
C2529 C2528 1.391 . S
C2529 C2533 1.376 . S
C2530 C2528 1.394 . S
C2530 C2531 1.369 . S
C2530 C2534 1.531 . S
C2531 C2530 1.369 . S
C2531 C2532 1.410 . S
C2531 C2539 1.503 . S
C2532 C2531 1.410 . S
C2532 C2533 1.392 . S
C2532 C2535 1.511 . S
C2533 C2529 1.376 . S
C2533 C2532 1.392 . S
C2533 H2545 0.929 . S
C2534 C2530 1.531 . S
C2534 H2546 0.960 . S
C2534 H2547 0.962 . S
C2534 H2548 0.960 . S
C2535 C2532 1.511 . S
C2535 H2549 0.961 . S
C2535 H2550 0.961 . S
C2535 H2551 0.961 . S
C2536 C2537 1.370 . S
C2536 C2538 1.363 . S
C2536 H2552 0.931 . S
C2537 C2536 1.370 . S
C2537 C2541 1.408 . S
C2538 C2536 1.363 . S
C2538 C2539 1.370 . S
C2538 C2542 1.524 . S
C2539 C2531 1.503 . S
C2539 C2538 1.370 . S
C2539 C2540 1.403 . S
C2540 C2539 1.403 . S
C2540 C2541 1.404 . S
C2540 C2543 1.539 . S
C2541 C2537 1.408 . S
C2541 C2540 1.404 . S
C2541 H2553 0.930 . S
C2542 C2538 1.524 . S
C2542 H2554 0.956 . S
C2542 H2555 0.961 . S
C2542 H2556 0.961 . S
C2543 C2540 1.539 . S
C2543 H2557 0.958 . S
C2543 H2558 0.961 . S
C2543 H2559 0.960 . S
H2544 C2528 0.931 . S
H2545 C2533 0.929 . S
H2546 C2534 0.960 . S
H2547 C2534 0.962 . S
H2548 C2534 0.960 . S
H2549 C2535 0.961 . S
H2550 C2535 0.961 . S
H2551 C2535 0.961 . S
H2552 C2536 0.931 . S
H2553 C2541 0.930 . S
H2554 C2542 0.956 . S
H2555 C2542 0.961 . S
H2556 C2542 0.961 . S
H2557 C2543 0.958 . S
H2558 C2543 0.961 . S
H2559 C2543 0.960 . S
C2560 C2561 1.391 . S
C2560 C2562 1.394 . S
C2560 H2576 0.931 . S
C2561 C2560 1.391 . S
C2561 C2565 1.376 . S
C2562 C2560 1.394 . S
C2562 C2563 1.369 . S
C2562 C2566 1.531 . S
C2563 C2562 1.369 . S
C2563 C2564 1.410 . S
C2563 C2571 1.503 . S
C2564 C2563 1.410 . S
C2564 C2565 1.392 . S
C2564 C2567 1.511 . S
C2565 C2561 1.376 . S
C2565 C2564 1.392 . S
C2565 H2577 0.929 . S
C2566 C2562 1.531 . S
C2566 H2578 0.960 . S
C2566 H2579 0.962 . S
C2566 H2580 0.960 . S
C2567 C2564 1.511 . S
C2567 H2581 0.961 . S
C2567 H2582 0.961 . S
C2567 H2583 0.961 . S
C2568 C2569 1.370 . S
C2568 C2570 1.363 . S
C2568 H2584 0.931 . S
C2569 C2568 1.370 . S
C2569 C2573 1.408 . S
C2570 C2568 1.363 . S
C2570 C2571 1.370 . S
C2570 C2574 1.524 . S
C2571 C2563 1.503 . S
C2571 C2570 1.370 . S
C2571 C2572 1.403 . S
C2572 C2571 1.403 . S
C2572 C2573 1.404 . S
C2572 C2575 1.539 . S
C2573 C2569 1.408 . S
C2573 C2572 1.404 . S
C2573 H2585 0.930 . S
C2574 C2570 1.524 . S
C2574 H2586 0.956 . S
C2574 H2587 0.961 . S
C2574 H2588 0.961 . S
C2575 C2572 1.539 . S
C2575 H2589 0.958 . S
C2575 H2590 0.961 . S
C2575 H2591 0.960 . S
H2576 C2560 0.931 . S
H2577 C2565 0.929 . S
H2578 C2566 0.960 . S
H2579 C2566 0.962 . S
H2580 C2566 0.960 . S
H2581 C2567 0.961 . S
H2582 C2567 0.961 . S
H2583 C2567 0.961 . S
H2584 C2568 0.931 . S
H2585 C2573 0.930 . S
H2586 C2574 0.956 . S
H2587 C2574 0.961 . S
H2588 C2574 0.961 . S
H2589 C2575 0.958 . S
H2590 C2575 0.961 . S
H2591 C2575 0.960 . S
C2592 C2593 1.391 . S
C2592 C2594 1.394 . S
C2592 H2608 0.931 . S
C2593 C2592 1.391 . S
C2593 C2597 1.376 . S
C2594 C2592 1.394 . S
C2594 C2595 1.369 . S
C2594 C2598 1.531 . S
C2595 C2594 1.369 . S
C2595 C2596 1.410 . S
C2595 C2603 1.503 . S
C2596 C2595 1.410 . S
C2596 C2597 1.392 . S
C2596 C2599 1.511 . S
C2597 C2593 1.376 . S
C2597 C2596 1.392 . S
C2597 H2609 0.929 . S
C2598 C2594 1.531 . S
C2598 H2610 0.960 . S
C2598 H2611 0.962 . S
C2598 H2612 0.960 . S
C2599 C2596 1.511 . S
C2599 H2613 0.961 . S
C2599 H2614 0.961 . S
C2599 H2615 0.961 . S
C2600 C2601 1.370 . S
C2600 C2602 1.363 . S
C2600 H2616 0.931 . S
C2601 C2600 1.370 . S
C2601 C2605 1.408 . S
C2602 C2600 1.363 . S
C2602 C2603 1.370 . S
C2602 C2606 1.524 . S
C2603 C2595 1.503 . S
C2603 C2602 1.370 . S
C2603 C2604 1.403 . S
C2604 C2603 1.403 . S
C2604 C2605 1.404 . S
C2604 C2607 1.539 . S
C2605 C2601 1.408 . S
C2605 C2604 1.404 . S
C2605 H2617 0.930 . S
C2606 C2602 1.524 . S
C2606 H2618 0.956 . S
C2606 H2619 0.961 . S
C2606 H2620 0.961 . S
C2607 C2604 1.539 . S
C2607 H2621 0.958 . S
C2607 H2622 0.961 . S
C2607 H2623 0.960 . S
H2608 C2592 0.931 . S
H2609 C2597 0.929 . S
H2610 C2598 0.960 . S
H2611 C2598 0.962 . S
H2612 C2598 0.960 . S
H2613 C2599 0.961 . S
H2614 C2599 0.961 . S
H2615 C2599 0.961 . S
H2616 C2600 0.931 . S
H2617 C2605 0.930 . S
H2618 C2606 0.956 . S
H2619 C2606 0.961 . S
H2620 C2606 0.961 . S
H2621 C2607 0.958 . S
H2622 C2607 0.961 . S
H2623 C2607 0.960 . S
C2624 C2625 1.391 . S
C2624 C2626 1.394 . S
C2624 H2640 0.931 . S
C2625 C2624 1.391 . S
C2625 C2629 1.376 . S
C2626 C2624 1.394 . S
C2626 C2627 1.369 . S
C2626 C2630 1.531 . S
C2627 C2626 1.369 . S
C2627 C2628 1.410 . S
C2627 C2635 1.503 . S
C2628 C2627 1.410 . S
C2628 C2629 1.392 . S
C2628 C2631 1.511 . S
C2629 C2625 1.376 . S
C2629 C2628 1.392 . S
C2629 H2641 0.929 . S
C2630 C2626 1.531 . S
C2630 H2642 0.960 . S
C2630 H2643 0.962 . S
C2630 H2644 0.960 . S
C2631 C2628 1.511 . S
C2631 H2645 0.961 . S
C2631 H2646 0.961 . S
C2631 H2647 0.961 . S
C2632 C2633 1.370 . S
C2632 C2634 1.363 . S
C2632 H2648 0.931 . S
C2633 C2632 1.370 . S
C2633 C2637 1.408 . S
C2634 C2632 1.363 . S
C2634 C2635 1.370 . S
C2634 C2638 1.524 . S
C2635 C2627 1.503 . S
C2635 C2634 1.370 . S
C2635 C2636 1.403 . S
C2636 C2635 1.403 . S
C2636 C2637 1.404 . S
C2636 C2639 1.539 . S
C2637 C2633 1.408 . S
C2637 C2636 1.404 . S
C2637 H2649 0.930 . S
C2638 C2634 1.524 . S
C2638 H2650 0.956 . S
C2638 H2651 0.961 . S
C2638 H2652 0.961 . S
C2639 C2636 1.539 . S
C2639 H2653 0.958 . S
C2639 H2654 0.961 . S
C2639 H2655 0.960 . S
H2640 C2624 0.931 . S
H2641 C2629 0.929 . S
H2642 C2630 0.960 . S
H2643 C2630 0.962 . S
H2644 C2630 0.960 . S
H2645 C2631 0.961 . S
H2646 C2631 0.961 . S
H2647 C2631 0.961 . S
H2648 C2632 0.931 . S
H2649 C2637 0.930 . S
H2650 C2638 0.956 . S
H2651 C2638 0.961 . S
H2652 C2638 0.961 . S
H2653 C2639 0.958 . S
H2654 C2639 0.961 . S
H2655 C2639 0.960 . S
C2656 C2657 1.391 . S
C2656 C2658 1.394 . S
C2656 H2672 0.931 . S
C2657 C2656 1.391 . S
C2657 C2661 1.376 . S
C2658 C2656 1.394 . S
C2658 C2659 1.369 . S
C2658 C2662 1.531 . S
C2659 C2658 1.369 . S
C2659 C2660 1.410 . S
C2659 C2667 1.503 . S
C2660 C2659 1.410 . S
C2660 C2661 1.392 . S
C2660 C2663 1.511 . S
C2661 C2657 1.376 . S
C2661 C2660 1.392 . S
C2661 H2673 0.929 . S
C2662 C2658 1.531 . S
C2662 H2674 0.960 . S
C2662 H2675 0.962 . S
C2662 H2676 0.960 . S
C2663 C2660 1.511 . S
C2663 H2677 0.961 . S
C2663 H2678 0.961 . S
C2663 H2679 0.961 . S
C2664 C2665 1.370 . S
C2664 C2666 1.363 . S
C2664 H2680 0.931 . S
C2665 C2664 1.370 . S
C2665 C2669 1.408 . S
C2666 C2664 1.363 . S
C2666 C2667 1.370 . S
C2666 C2670 1.524 . S
C2667 C2659 1.503 . S
C2667 C2666 1.370 . S
C2667 C2668 1.403 . S
C2668 C2667 1.403 . S
C2668 C2669 1.404 . S
C2668 C2671 1.539 . S
C2669 C2665 1.408 . S
C2669 C2668 1.404 . S
C2669 H2681 0.930 . S
C2670 C2666 1.524 . S
C2670 H2682 0.956 . S
C2670 H2683 0.961 . S
C2670 H2684 0.961 . S
C2671 C2668 1.539 . S
C2671 H2685 0.958 . S
C2671 H2686 0.961 . S
C2671 H2687 0.960 . S
H2672 C2656 0.931 . S
H2673 C2661 0.929 . S
H2674 C2662 0.960 . S
H2675 C2662 0.962 . S
H2676 C2662 0.960 . S
H2677 C2663 0.961 . S
H2678 C2663 0.961 . S
H2679 C2663 0.961 . S
H2680 C2664 0.931 . S
H2681 C2669 0.930 . S
H2682 C2670 0.956 . S
H2683 C2670 0.961 . S
H2684 C2670 0.961 . S
H2685 C2671 0.958 . S
H2686 C2671 0.961 . S
H2687 C2671 0.960 . S
C2688 C2689 1.391 . S
C2688 C2690 1.394 . S
C2688 H2704 0.931 . S
C2689 C2688 1.391 . S
C2689 C2693 1.376 . S
C2690 C2688 1.394 . S
C2690 C2691 1.369 . S
C2690 C2694 1.531 . S
C2691 C2690 1.369 . S
C2691 C2692 1.410 . S
C2691 C2699 1.503 . S
C2692 C2691 1.410 . S
C2692 C2693 1.392 . S
C2692 C2695 1.511 . S
C2693 C2689 1.376 . S
C2693 C2692 1.392 . S
C2693 H2705 0.929 . S
C2694 C2690 1.531 . S
C2694 H2706 0.960 . S
C2694 H2707 0.962 . S
C2694 H2708 0.960 . S
C2695 C2692 1.511 . S
C2695 H2709 0.961 . S
C2695 H2710 0.961 . S
C2695 H2711 0.961 . S
C2696 C2697 1.370 . S
C2696 C2698 1.363 . S
C2696 H2712 0.931 . S
C2697 C2696 1.370 . S
C2697 C2701 1.408 . S
C2698 C2696 1.363 . S
C2698 C2699 1.370 . S
C2698 C2702 1.524 . S
C2699 C2691 1.503 . S
C2699 C2698 1.370 . S
C2699 C2700 1.403 . S
C2700 C2699 1.403 . S
C2700 C2701 1.404 . S
C2700 C2703 1.539 . S
C2701 C2697 1.408 . S
C2701 C2700 1.404 . S
C2701 H2713 0.930 . S
C2702 C2698 1.524 . S
C2702 H2714 0.956 . S
C2702 H2715 0.961 . S
C2702 H2716 0.961 . S
C2703 C2700 1.539 . S
C2703 H2717 0.958 . S
C2703 H2718 0.961 . S
C2703 H2719 0.960 . S
H2704 C2688 0.931 . S
H2705 C2693 0.929 . S
H2706 C2694 0.960 . S
H2707 C2694 0.962 . S
H2708 C2694 0.960 . S
H2709 C2695 0.961 . S
H2710 C2695 0.961 . S
H2711 C2695 0.961 . S
H2712 C2696 0.931 . S
H2713 C2701 0.930 . S
H2714 C2702 0.956 . S
H2715 C2702 0.961 . S
H2716 C2702 0.961 . S
H2717 C2703 0.958 . S
H2718 C2703 0.961 . S
H2719 C2703 0.960 . S
C2720 C2721 1.391 . S
C2720 C2722 1.394 . S
C2720 H2736 0.931 . S
C2721 C2720 1.391 . S
C2721 C2725 1.376 . S
C2722 C2720 1.394 . S
C2722 C2723 1.369 . S
C2722 C2726 1.531 . S
C2723 C2722 1.369 . S
C2723 C2724 1.410 . S
C2723 C2731 1.503 . S
C2724 C2723 1.410 . S
C2724 C2725 1.392 . S
C2724 C2727 1.511 . S
C2725 C2721 1.376 . S
C2725 C2724 1.392 . S
C2725 H2737 0.929 . S
C2726 C2722 1.531 . S
C2726 H2738 0.960 . S
C2726 H2739 0.962 . S
C2726 H2740 0.960 . S
C2727 C2724 1.511 . S
C2727 H2741 0.961 . S
C2727 H2742 0.961 . S
C2727 H2743 0.961 . S
C2728 C2729 1.370 . S
C2728 C2730 1.363 . S
C2728 H2744 0.931 . S
C2729 C2728 1.370 . S
C2729 C2733 1.408 . S
C2730 C2728 1.363 . S
C2730 C2731 1.370 . S
C2730 C2734 1.524 . S
C2731 C2723 1.503 . S
C2731 C2730 1.370 . S
C2731 C2732 1.403 . S
C2732 C2731 1.403 . S
C2732 C2733 1.404 . S
C2732 C2735 1.539 . S
C2733 C2729 1.408 . S
C2733 C2732 1.404 . S
C2733 H2745 0.930 . S
C2734 C2730 1.524 . S
C2734 H2746 0.956 . S
C2734 H2747 0.961 . S
C2734 H2748 0.961 . S
C2735 C2732 1.539 . S
C2735 H2749 0.958 . S
C2735 H2750 0.961 . S
C2735 H2751 0.960 . S
H2736 C2720 0.931 . S
H2737 C2725 0.929 . S
H2738 C2726 0.960 . S
H2739 C2726 0.962 . S
H2740 C2726 0.960 . S
H2741 C2727 0.961 . S
H2742 C2727 0.961 . S
H2743 C2727 0.961 . S
H2744 C2728 0.931 . S
H2745 C2733 0.930 . S
H2746 C2734 0.956 . S
H2747 C2734 0.961 . S
H2748 C2734 0.961 . S
H2749 C2735 0.958 . S
H2750 C2735 0.961 . S
H2751 C2735 0.960 . S
C2752 C2753 1.391 . S
C2752 C2754 1.394 . S
C2752 H2768 0.931 . S
C2753 C2752 1.391 . S
C2753 C2757 1.376 . S
C2754 C2752 1.394 . S
C2754 C2755 1.369 . S
C2754 C2758 1.531 . S
C2755 C2754 1.369 . S
C2755 C2756 1.410 . S
C2755 C2763 1.503 . S
C2756 C2755 1.410 . S
C2756 C2757 1.392 . S
C2756 C2759 1.511 . S
C2757 C2753 1.376 . S
C2757 C2756 1.392 . S
C2757 H2769 0.929 . S
C2758 C2754 1.531 . S
C2758 H2770 0.960 . S
C2758 H2771 0.962 . S
C2758 H2772 0.960 . S
C2759 C2756 1.511 . S
C2759 H2773 0.961 . S
C2759 H2774 0.961 . S
C2759 H2775 0.961 . S
C2760 C2761 1.370 . S
C2760 C2762 1.363 . S
C2760 H2776 0.931 . S
C2761 C2760 1.370 . S
C2761 C2765 1.408 . S
C2762 C2760 1.363 . S
C2762 C2763 1.370 . S
C2762 C2766 1.524 . S
C2763 C2755 1.503 . S
C2763 C2762 1.370 . S
C2763 C2764 1.403 . S
C2764 C2763 1.403 . S
C2764 C2765 1.404 . S
C2764 C2767 1.539 . S
C2765 C2761 1.408 . S
C2765 C2764 1.404 . S
C2765 H2777 0.930 . S
C2766 C2762 1.524 . S
C2766 H2778 0.956 . S
C2766 H2779 0.961 . S
C2766 H2780 0.961 . S
C2767 C2764 1.539 . S
C2767 H2781 0.958 . S
C2767 H2782 0.961 . S
C2767 H2783 0.960 . S
H2768 C2752 0.931 . S
H2769 C2757 0.929 . S
H2770 C2758 0.960 . S
H2771 C2758 0.962 . S
H2772 C2758 0.960 . S
H2773 C2759 0.961 . S
H2774 C2759 0.961 . S
H2775 C2759 0.961 . S
H2776 C2760 0.931 . S
H2777 C2765 0.930 . S
H2778 C2766 0.956 . S
H2779 C2766 0.961 . S
H2780 C2766 0.961 . S
H2781 C2767 0.958 . S
H2782 C2767 0.961 . S
H2783 C2767 0.960 . S
C2784 C2785 1.391 . S
C2784 C2786 1.394 . S
C2784 H2800 0.931 . S
C2785 C2784 1.391 . S
C2785 C2789 1.376 . S
C2786 C2784 1.394 . S
C2786 C2787 1.369 . S
C2786 C2790 1.531 . S
C2787 C2786 1.369 . S
C2787 C2788 1.410 . S
C2787 C2795 1.503 . S
C2788 C2787 1.410 . S
C2788 C2789 1.392 . S
C2788 C2791 1.511 . S
C2789 C2785 1.376 . S
C2789 C2788 1.392 . S
C2789 H2801 0.929 . S
C2790 C2786 1.531 . S
C2790 H2802 0.960 . S
C2790 H2803 0.962 . S
C2790 H2804 0.960 . S
C2791 C2788 1.511 . S
C2791 H2805 0.961 . S
C2791 H2806 0.961 . S
C2791 H2807 0.961 . S
C2792 C2793 1.370 . S
C2792 C2794 1.363 . S
C2792 H2808 0.931 . S
C2793 C2792 1.370 . S
C2793 C2797 1.408 . S
C2794 C2792 1.363 . S
C2794 C2795 1.370 . S
C2794 C2798 1.524 . S
C2795 C2787 1.503 . S
C2795 C2794 1.370 . S
C2795 C2796 1.403 . S
C2796 C2795 1.403 . S
C2796 C2797 1.404 . S
C2796 C2799 1.539 . S
C2797 C2793 1.408 . S
C2797 C2796 1.404 . S
C2797 H2809 0.930 . S
C2798 C2794 1.524 . S
C2798 H2810 0.956 . S
C2798 H2811 0.961 . S
C2798 H2812 0.961 . S
C2799 C2796 1.539 . S
C2799 H2813 0.958 . S
C2799 H2814 0.961 . S
C2799 H2815 0.960 . S
H2800 C2784 0.931 . S
H2801 C2789 0.929 . S
H2802 C2790 0.960 . S
H2803 C2790 0.962 . S
H2804 C2790 0.960 . S
H2805 C2791 0.961 . S
H2806 C2791 0.961 . S
H2807 C2791 0.961 . S
H2808 C2792 0.931 . S
H2809 C2797 0.930 . S
H2810 C2798 0.956 . S
H2811 C2798 0.961 . S
H2812 C2798 0.961 . S
H2813 C2799 0.958 . S
H2814 C2799 0.961 . S
H2815 C2799 0.960 . S
C2816 C2817 1.391 . S
C2816 C2818 1.394 . S
C2816 H2832 0.931 . S
C2817 C2816 1.391 . S
C2817 C2821 1.376 . S
C2818 C2816 1.394 . S
C2818 C2819 1.369 . S
C2818 C2822 1.531 . S
C2819 C2818 1.369 . S
C2819 C2820 1.410 . S
C2819 C2827 1.503 . S
C2820 C2819 1.410 . S
C2820 C2821 1.392 . S
C2820 C2823 1.511 . S
C2821 C2817 1.376 . S
C2821 C2820 1.392 . S
C2821 H2833 0.929 . S
C2822 C2818 1.531 . S
C2822 H2834 0.960 . S
C2822 H2835 0.962 . S
C2822 H2836 0.960 . S
C2823 C2820 1.511 . S
C2823 H2837 0.961 . S
C2823 H2838 0.961 . S
C2823 H2839 0.961 . S
C2824 C2825 1.370 . S
C2824 C2826 1.363 . S
C2824 H2840 0.931 . S
C2825 C2824 1.370 . S
C2825 C2829 1.408 . S
C2826 C2824 1.363 . S
C2826 C2827 1.370 . S
C2826 C2830 1.524 . S
C2827 C2819 1.503 . S
C2827 C2826 1.370 . S
C2827 C2828 1.403 . S
C2828 C2827 1.403 . S
C2828 C2829 1.404 . S
C2828 C2831 1.539 . S
C2829 C2825 1.408 . S
C2829 C2828 1.404 . S
C2829 H2841 0.930 . S
C2830 C2826 1.524 . S
C2830 H2842 0.956 . S
C2830 H2843 0.961 . S
C2830 H2844 0.961 . S
C2831 C2828 1.539 . S
C2831 H2845 0.958 . S
C2831 H2846 0.961 . S
C2831 H2847 0.960 . S
H2832 C2816 0.931 . S
H2833 C2821 0.929 . S
H2834 C2822 0.960 . S
H2835 C2822 0.962 . S
H2836 C2822 0.960 . S
H2837 C2823 0.961 . S
H2838 C2823 0.961 . S
H2839 C2823 0.961 . S
H2840 C2824 0.931 . S
H2841 C2829 0.930 . S
H2842 C2830 0.956 . S
H2843 C2830 0.961 . S
H2844 C2830 0.961 . S
H2845 C2831 0.958 . S
H2846 C2831 0.961 . S
H2847 C2831 0.960 . S
C2848 C2849 1.391 . S
C2848 C2850 1.394 . S
C2848 H2864 0.931 . S
C2849 C2848 1.391 . S
C2849 C2853 1.376 . S
C2850 C2848 1.394 . S
C2850 C2851 1.369 . S
C2850 C2854 1.531 . S
C2851 C2850 1.369 . S
C2851 C2852 1.410 . S
C2851 C2859 1.503 . S
C2852 C2851 1.410 . S
C2852 C2853 1.392 . S
C2852 C2855 1.511 . S
C2853 C2849 1.376 . S
C2853 C2852 1.392 . S
C2853 H2865 0.929 . S
C2854 C2850 1.531 . S
C2854 H2866 0.960 . S
C2854 H2867 0.962 . S
C2854 H2868 0.960 . S
C2855 C2852 1.511 . S
C2855 H2869 0.961 . S
C2855 H2870 0.961 . S
C2855 H2871 0.961 . S
C2856 C2857 1.370 . S
C2856 C2858 1.363 . S
C2856 H2872 0.931 . S
C2857 C2856 1.370 . S
C2857 C2861 1.408 . S
C2858 C2856 1.363 . S
C2858 C2859 1.370 . S
C2858 C2862 1.524 . S
C2859 C2851 1.503 . S
C2859 C2858 1.370 . S
C2859 C2860 1.403 . S
C2860 C2859 1.403 . S
C2860 C2861 1.404 . S
C2860 C2863 1.539 . S
C2861 C2857 1.408 . S
C2861 C2860 1.404 . S
C2861 H2873 0.930 . S
C2862 C2858 1.524 . S
C2862 H2874 0.956 . S
C2862 H2875 0.961 . S
C2862 H2876 0.961 . S
C2863 C2860 1.539 . S
C2863 H2877 0.958 . S
C2863 H2878 0.961 . S
C2863 H2879 0.960 . S
H2864 C2848 0.931 . S
H2865 C2853 0.929 . S
H2866 C2854 0.960 . S
H2867 C2854 0.962 . S
H2868 C2854 0.960 . S
H2869 C2855 0.961 . S
H2870 C2855 0.961 . S
H2871 C2855 0.961 . S
H2872 C2856 0.931 . S
H2873 C2861 0.930 . S
H2874 C2862 0.956 . S
H2875 C2862 0.961 . S
H2876 C2862 0.961 . S
H2877 C2863 0.958 . S
H2878 C2863 0.961 . S
H2879 C2863 0.960 . S
C2880 C2881 1.391 . S
C2880 C2882 1.394 . S
C2880 H2896 0.931 . S
C2881 C2880 1.391 . S
C2881 C2885 1.376 . S
C2882 C2880 1.394 . S
C2882 C2883 1.369 . S
C2882 C2886 1.531 . S
C2883 C2882 1.369 . S
C2883 C2884 1.410 . S
C2883 C2891 1.503 . S
C2884 C2883 1.410 . S
C2884 C2885 1.392 . S
C2884 C2887 1.511 . S
C2885 C2881 1.376 . S
C2885 C2884 1.392 . S
C2885 H2897 0.929 . S
C2886 C2882 1.531 . S
C2886 H2898 0.960 . S
C2886 H2899 0.962 . S
C2886 H2900 0.960 . S
C2887 C2884 1.511 . S
C2887 H2901 0.961 . S
C2887 H2902 0.961 . S
C2887 H2903 0.961 . S
C2888 C2889 1.370 . S
C2888 C2890 1.363 . S
C2888 H2904 0.931 . S
C2889 C2888 1.370 . S
C2889 C2893 1.408 . S
C2890 C2888 1.363 . S
C2890 C2891 1.370 . S
C2890 C2894 1.524 . S
C2891 C2883 1.503 . S
C2891 C2890 1.370 . S
C2891 C2892 1.403 . S
C2892 C2891 1.403 . S
C2892 C2893 1.404 . S
C2892 C2895 1.539 . S
C2893 C2889 1.408 . S
C2893 C2892 1.404 . S
C2893 H2905 0.930 . S
C2894 C2890 1.524 . S
C2894 H2906 0.956 . S
C2894 H2907 0.961 . S
C2894 H2908 0.961 . S
C2895 C2892 1.539 . S
C2895 H2909 0.958 . S
C2895 H2910 0.961 . S
C2895 H2911 0.960 . S
H2896 C2880 0.931 . S
H2897 C2885 0.929 . S
H2898 C2886 0.960 . S
H2899 C2886 0.962 . S
H2900 C2886 0.960 . S
H2901 C2887 0.961 . S
H2902 C2887 0.961 . S
H2903 C2887 0.961 . S
H2904 C2888 0.931 . S
H2905 C2893 0.930 . S
H2906 C2894 0.956 . S
H2907 C2894 0.961 . S
H2908 C2894 0.961 . S
H2909 C2895 0.958 . S
H2910 C2895 0.961 . S
H2911 C2895 0.960 . S
C2912 C2913 1.391 . S
C2912 C2914 1.394 . S
C2912 H2928 0.931 . S
C2913 C2912 1.391 . S
C2913 C2917 1.376 . S
C2914 C2912 1.394 . S
C2914 C2915 1.369 . S
C2914 C2918 1.531 . S
C2915 C2914 1.369 . S
C2915 C2916 1.410 . S
C2915 C2923 1.503 . S
C2916 C2915 1.410 . S
C2916 C2917 1.392 . S
C2916 C2919 1.511 . S
C2917 C2913 1.376 . S
C2917 C2916 1.392 . S
C2917 H2929 0.929 . S
C2918 C2914 1.531 . S
C2918 H2930 0.960 . S
C2918 H2931 0.962 . S
C2918 H2932 0.960 . S
C2919 C2916 1.511 . S
C2919 H2933 0.961 . S
C2919 H2934 0.961 . S
C2919 H2935 0.961 . S
C2920 C2921 1.370 . S
C2920 C2922 1.363 . S
C2920 H2936 0.931 . S
C2921 C2920 1.370 . S
C2921 C2925 1.408 . S
C2922 C2920 1.363 . S
C2922 C2923 1.370 . S
C2922 C2926 1.524 . S
C2923 C2915 1.503 . S
C2923 C2922 1.370 . S
C2923 C2924 1.403 . S
C2924 C2923 1.403 . S
C2924 C2925 1.404 . S
C2924 C2927 1.539 . S
C2925 C2921 1.408 . S
C2925 C2924 1.404 . S
C2925 H2937 0.930 . S
C2926 C2922 1.524 . S
C2926 H2938 0.956 . S
C2926 H2939 0.961 . S
C2926 H2940 0.961 . S
C2927 C2924 1.539 . S
C2927 H2941 0.958 . S
C2927 H2942 0.961 . S
C2927 H2943 0.960 . S
H2928 C2912 0.931 . S
H2929 C2917 0.929 . S
H2930 C2918 0.960 . S
H2931 C2918 0.962 . S
H2932 C2918 0.960 . S
H2933 C2919 0.961 . S
H2934 C2919 0.961 . S
H2935 C2919 0.961 . S
H2936 C2920 0.931 . S
H2937 C2925 0.930 . S
H2938 C2926 0.956 . S
H2939 C2926 0.961 . S
H2940 C2926 0.961 . S
H2941 C2927 0.958 . S
H2942 C2927 0.961 . S
H2943 C2927 0.960 . S
C2944 C2945 1.391 . S
C2944 C2946 1.394 . S
C2944 H2960 0.931 . S
C2945 C2944 1.391 . S
C2945 C2949 1.376 . S
C2946 C2944 1.394 . S
C2946 C2947 1.369 . S
C2946 C2950 1.531 . S
C2947 C2946 1.369 . S
C2947 C2948 1.410 . S
C2947 C2955 1.503 . S
C2948 C2947 1.410 . S
C2948 C2949 1.392 . S
C2948 C2951 1.511 . S
C2949 C2945 1.376 . S
C2949 C2948 1.392 . S
C2949 H2961 0.929 . S
C2950 C2946 1.531 . S
C2950 H2962 0.960 . S
C2950 H2963 0.962 . S
C2950 H2964 0.960 . S
C2951 C2948 1.511 . S
C2951 H2965 0.961 . S
C2951 H2966 0.961 . S
C2951 H2967 0.961 . S
C2952 C2953 1.370 . S
C2952 C2954 1.363 . S
C2952 H2968 0.931 . S
C2953 C2952 1.370 . S
C2953 C2957 1.408 . S
C2954 C2952 1.363 . S
C2954 C2955 1.370 . S
C2954 C2958 1.524 . S
C2955 C2947 1.503 . S
C2955 C2954 1.370 . S
C2955 C2956 1.403 . S
C2956 C2955 1.403 . S
C2956 C2957 1.404 . S
C2956 C2959 1.539 . S
C2957 C2953 1.408 . S
C2957 C2956 1.404 . S
C2957 H2969 0.930 . S
C2958 C2954 1.524 . S
C2958 H2970 0.956 . S
C2958 H2971 0.961 . S
C2958 H2972 0.961 . S
C2959 C2956 1.539 . S
C2959 H2973 0.958 . S
C2959 H2974 0.961 . S
C2959 H2975 0.960 . S
H2960 C2944 0.931 . S
H2961 C2949 0.929 . S
H2962 C2950 0.960 . S
H2963 C2950 0.962 . S
H2964 C2950 0.960 . S
H2965 C2951 0.961 . S
H2966 C2951 0.961 . S
H2967 C2951 0.961 . S
H2968 C2952 0.931 . S
H2969 C2957 0.930 . S
H2970 C2958 0.956 . S
H2971 C2958 0.961 . S
H2972 C2958 0.961 . S
H2973 C2959 0.958 . S
H2974 C2959 0.961 . S
H2975 C2959 0.960 . S
C2976 C2977 1.391 . S
C2976 C2978 1.394 . S
C2976 H2992 0.931 . S
C2977 C2976 1.391 . S
C2977 C2981 1.376 . S
C2978 C2976 1.394 . S
C2978 C2979 1.369 . S
C2978 C2982 1.531 . S
C2979 C2978 1.369 . S
C2979 C2980 1.410 . S
C2979 C2987 1.503 . S
C2980 C2979 1.410 . S
C2980 C2981 1.392 . S
C2980 C2983 1.511 . S
C2981 C2977 1.376 . S
C2981 C2980 1.392 . S
C2981 H2993 0.929 . S
C2982 C2978 1.531 . S
C2982 H2994 0.960 . S
C2982 H2995 0.962 . S
C2982 H2996 0.960 . S
C2983 C2980 1.511 . S
C2983 H2997 0.961 . S
C2983 H2998 0.961 . S
C2983 H2999 0.961 . S
C2984 C2985 1.370 . S
C2984 C2986 1.363 . S
C2984 H3000 0.931 . S
C2985 C2984 1.370 . S
C2985 C2989 1.408 . S
C2986 C2984 1.363 . S
C2986 C2987 1.370 . S
C2986 C2990 1.524 . S
C2987 C2979 1.503 . S
C2987 C2986 1.370 . S
C2987 C2988 1.403 . S
C2988 C2987 1.403 . S
C2988 C2989 1.404 . S
C2988 C2991 1.539 . S
C2989 C2985 1.408 . S
C2989 C2988 1.404 . S
C2989 H3001 0.930 . S
C2990 C2986 1.524 . S
C2990 H3002 0.956 . S
C2990 H3003 0.961 . S
C2990 H3004 0.961 . S
C2991 C2988 1.539 . S
C2991 H3005 0.958 . S
C2991 H3006 0.961 . S
C2991 H3007 0.960 . S
H2992 C2976 0.931 . S
H2993 C2981 0.929 . S
H2994 C2982 0.960 . S
H2995 C2982 0.962 . S
H2996 C2982 0.960 . S
H2997 C2983 0.961 . S
H2998 C2983 0.961 . S
H2999 C2983 0.961 . S
H3000 C2984 0.931 . S
H3001 C2989 0.930 . S
H3002 C2990 0.956 . S
H3003 C2990 0.961 . S
H3004 C2990 0.961 . S
H3005 C2991 0.958 . S
H3006 C2991 0.961 . S
H3007 C2991 0.960 . S
C3008 C3009 1.391 . S
C3008 C3010 1.394 . S
C3008 H3024 0.931 . S
C3009 C3008 1.391 . S
C3009 C3013 1.376 . S
C3010 C3008 1.394 . S
C3010 C3011 1.369 . S
C3010 C3014 1.531 . S
C3011 C3010 1.369 . S
C3011 C3012 1.410 . S
C3011 C3019 1.503 . S
C3012 C3011 1.410 . S
C3012 C3013 1.392 . S
C3012 C3015 1.511 . S
C3013 C3009 1.376 . S
C3013 C3012 1.392 . S
C3013 H3025 0.929 . S
C3014 C3010 1.531 . S
C3014 H3026 0.960 . S
C3014 H3027 0.962 . S
C3014 H3028 0.960 . S
C3015 C3012 1.511 . S
C3015 H3029 0.961 . S
C3015 H3030 0.961 . S
C3015 H3031 0.961 . S
C3016 C3017 1.370 . S
C3016 C3018 1.363 . S
C3016 H3032 0.931 . S
C3017 C3016 1.370 . S
C3017 C3021 1.408 . S
C3018 C3016 1.363 . S
C3018 C3019 1.370 . S
C3018 C3022 1.524 . S
C3019 C3011 1.503 . S
C3019 C3018 1.370 . S
C3019 C3020 1.403 . S
C3020 C3019 1.403 . S
C3020 C3021 1.404 . S
C3020 C3023 1.539 . S
C3021 C3017 1.408 . S
C3021 C3020 1.404 . S
C3021 H3033 0.930 . S
C3022 C3018 1.524 . S
C3022 H3034 0.956 . S
C3022 H3035 0.961 . S
C3022 H3036 0.961 . S
C3023 C3020 1.539 . S
C3023 H3037 0.958 . S
C3023 H3038 0.961 . S
C3023 H3039 0.960 . S
H3024 C3008 0.931 . S
H3025 C3013 0.929 . S
H3026 C3014 0.960 . S
H3027 C3014 0.962 . S
H3028 C3014 0.960 . S
H3029 C3015 0.961 . S
H3030 C3015 0.961 . S
H3031 C3015 0.961 . S
H3032 C3016 0.931 . S
H3033 C3021 0.930 . S
H3034 C3022 0.956 . S
H3035 C3022 0.961 . S
H3036 C3022 0.961 . S
H3037 C3023 0.958 . S
H3038 C3023 0.961 . S
H3039 C3023 0.960 . S
C3040 C3041 1.391 . S
C3040 C3042 1.394 . S
C3040 H3056 0.931 . S
C3041 C3040 1.391 . S
C3041 C3045 1.376 . S
C3042 C3040 1.394 . S
C3042 C3043 1.369 . S
C3042 C3046 1.531 . S
C3043 C3042 1.369 . S
C3043 C3044 1.410 . S
C3043 C3051 1.503 . S
C3044 C3043 1.410 . S
C3044 C3045 1.392 . S
C3044 C3047 1.511 . S
C3045 C3041 1.376 . S
C3045 C3044 1.392 . S
C3045 H3057 0.929 . S
C3046 C3042 1.531 . S
C3046 H3058 0.960 . S
C3046 H3059 0.962 . S
C3046 H3060 0.960 . S
C3047 C3044 1.511 . S
C3047 H3061 0.961 . S
C3047 H3062 0.961 . S
C3047 H3063 0.961 . S
C3048 C3049 1.370 . S
C3048 C3050 1.363 . S
C3048 H3064 0.931 . S
C3049 C3048 1.370 . S
C3049 C3053 1.408 . S
C3050 C3048 1.363 . S
C3050 C3051 1.370 . S
C3050 C3054 1.524 . S
C3051 C3043 1.503 . S
C3051 C3050 1.370 . S
C3051 C3052 1.403 . S
C3052 C3051 1.403 . S
C3052 C3053 1.404 . S
C3052 C3055 1.539 . S
C3053 C3049 1.408 . S
C3053 C3052 1.404 . S
C3053 H3065 0.930 . S
C3054 C3050 1.524 . S
C3054 H3066 0.956 . S
C3054 H3067 0.961 . S
C3054 H3068 0.961 . S
C3055 C3052 1.539 . S
C3055 H3069 0.958 . S
C3055 H3070 0.961 . S
C3055 H3071 0.960 . S
H3056 C3040 0.931 . S
H3057 C3045 0.929 . S
H3058 C3046 0.960 . S
H3059 C3046 0.962 . S
H3060 C3046 0.960 . S
H3061 C3047 0.961 . S
H3062 C3047 0.961 . S
H3063 C3047 0.961 . S
H3064 C3048 0.931 . S
H3065 C3053 0.930 . S
H3066 C3054 0.956 . S
H3067 C3054 0.961 . S
H3068 C3054 0.961 . S
H3069 C3055 0.958 . S
H3070 C3055 0.961 . S
H3071 C3055 0.960 . S
C3072 C3073 1.391 . S
C3072 C3074 1.394 . S
C3072 H3088 0.931 . S
C3073 C3072 1.391 . S
C3073 C3077 1.376 . S
C3074 C3072 1.394 . S
C3074 C3075 1.369 . S
C3074 C3078 1.531 . S
C3075 C3074 1.369 . S
C3075 C3076 1.410 . S
C3075 C3083 1.503 . S
C3076 C3075 1.410 . S
C3076 C3077 1.392 . S
C3076 C3079 1.511 . S
C3077 C3073 1.376 . S
C3077 C3076 1.392 . S
C3077 H3089 0.929 . S
C3078 C3074 1.531 . S
C3078 H3090 0.960 . S
C3078 H3091 0.962 . S
C3078 H3092 0.960 . S
C3079 C3076 1.511 . S
C3079 H3093 0.961 . S
C3079 H3094 0.961 . S
C3079 H3095 0.961 . S
C3080 C3081 1.370 . S
C3080 C3082 1.363 . S
C3080 H3096 0.931 . S
C3081 C3080 1.370 . S
C3081 C3085 1.408 . S
C3082 C3080 1.363 . S
C3082 C3083 1.370 . S
C3082 C3086 1.524 . S
C3083 C3075 1.503 . S
C3083 C3082 1.370 . S
C3083 C3084 1.403 . S
C3084 C3083 1.403 . S
C3084 C3085 1.404 . S
C3084 C3087 1.539 . S
C3085 C3081 1.408 . S
C3085 C3084 1.404 . S
C3085 H3097 0.930 . S
C3086 C3082 1.524 . S
C3086 H3098 0.956 . S
C3086 H3099 0.961 . S
C3086 H3100 0.961 . S
C3087 C3084 1.539 . S
C3087 H3101 0.958 . S
C3087 H3102 0.961 . S
C3087 H3103 0.960 . S
H3088 C3072 0.931 . S
H3089 C3077 0.929 . S
H3090 C3078 0.960 . S
H3091 C3078 0.962 . S
H3092 C3078 0.960 . S
H3093 C3079 0.961 . S
H3094 C3079 0.961 . S
H3095 C3079 0.961 . S
H3096 C3080 0.931 . S
H3097 C3085 0.930 . S
H3098 C3086 0.956 . S
H3099 C3086 0.961 . S
H3100 C3086 0.961 . S
H3101 C3087 0.958 . S
H3102 C3087 0.961 . S
H3103 C3087 0.960 . S
C3104 C3105 1.391 . S
C3104 C3106 1.394 . S
C3104 H3120 0.931 . S
C3105 C3104 1.391 . S
C3105 C3109 1.376 . S
C3106 C3104 1.394 . S
C3106 C3107 1.369 . S
C3106 C3110 1.531 . S
C3107 C3106 1.369 . S
C3107 C3108 1.410 . S
C3107 C3115 1.503 . S
C3108 C3107 1.410 . S
C3108 C3109 1.392 . S
C3108 C3111 1.511 . S
C3109 C3105 1.376 . S
C3109 C3108 1.392 . S
C3109 H3121 0.929 . S
C3110 C3106 1.531 . S
C3110 H3122 0.960 . S
C3110 H3123 0.962 . S
C3110 H3124 0.960 . S
C3111 C3108 1.511 . S
C3111 H3125 0.961 . S
C3111 H3126 0.961 . S
C3111 H3127 0.961 . S
C3112 C3113 1.370 . S
C3112 C3114 1.363 . S
C3112 H3128 0.931 . S
C3113 C3112 1.370 . S
C3113 C3117 1.408 . S
C3114 C3112 1.363 . S
C3114 C3115 1.370 . S
C3114 C3118 1.524 . S
C3115 C3107 1.503 . S
C3115 C3114 1.370 . S
C3115 C3116 1.403 . S
C3116 C3115 1.403 . S
C3116 C3117 1.404 . S
C3116 C3119 1.539 . S
C3117 C3113 1.408 . S
C3117 C3116 1.404 . S
C3117 H3129 0.930 . S
C3118 C3114 1.524 . S
C3118 H3130 0.956 . S
C3118 H3131 0.961 . S
C3118 H3132 0.961 . S
C3119 C3116 1.539 . S
C3119 H3133 0.958 . S
C3119 H3134 0.961 . S
C3119 H3135 0.960 . S
H3120 C3104 0.931 . S
H3121 C3109 0.929 . S
H3122 C3110 0.960 . S
H3123 C3110 0.962 . S
H3124 C3110 0.960 . S
H3125 C3111 0.961 . S
H3126 C3111 0.961 . S
H3127 C3111 0.961 . S
H3128 C3112 0.931 . S
H3129 C3117 0.930 . S
H3130 C3118 0.956 . S
H3131 C3118 0.961 . S
H3132 C3118 0.961 . S
H3133 C3119 0.958 . S
H3134 C3119 0.961 . S
H3135 C3119 0.960 . S
C3136 C3137 1.391 . S
C3136 C3138 1.394 . S
C3136 H3152 0.931 . S
C3137 C3136 1.391 . S
C3137 C3141 1.376 . S
C3138 C3136 1.394 . S
C3138 C3139 1.369 . S
C3138 C3142 1.531 . S
C3139 C3138 1.369 . S
C3139 C3140 1.410 . S
C3139 C3147 1.503 . S
C3140 C3139 1.410 . S
C3140 C3141 1.392 . S
C3140 C3143 1.511 . S
C3141 C3137 1.376 . S
C3141 C3140 1.392 . S
C3141 H3153 0.929 . S
C3142 C3138 1.531 . S
C3142 H3154 0.960 . S
C3142 H3155 0.962 . S
C3142 H3156 0.960 . S
C3143 C3140 1.511 . S
C3143 H3157 0.961 . S
C3143 H3158 0.961 . S
C3143 H3159 0.961 . S
C3144 C3145 1.370 . S
C3144 C3146 1.363 . S
C3144 H3160 0.931 . S
C3145 C3144 1.370 . S
C3145 C3149 1.408 . S
C3146 C3144 1.363 . S
C3146 C3147 1.370 . S
C3146 C3150 1.524 . S
C3147 C3139 1.503 . S
C3147 C3146 1.370 . S
C3147 C3148 1.403 . S
C3148 C3147 1.403 . S
C3148 C3149 1.404 . S
C3148 C3151 1.539 . S
C3149 C3145 1.408 . S
C3149 C3148 1.404 . S
C3149 H3161 0.930 . S
C3150 C3146 1.524 . S
C3150 H3162 0.956 . S
C3150 H3163 0.961 . S
C3150 H3164 0.961 . S
C3151 C3148 1.539 . S
C3151 H3165 0.958 . S
C3151 H3166 0.961 . S
C3151 H3167 0.960 . S
H3152 C3136 0.931 . S
H3153 C3141 0.929 . S
H3154 C3142 0.960 . S
H3155 C3142 0.962 . S
H3156 C3142 0.960 . S
H3157 C3143 0.961 . S
H3158 C3143 0.961 . S
H3159 C3143 0.961 . S
H3160 C3144 0.931 . S
H3161 C3149 0.930 . S
H3162 C3150 0.956 . S
H3163 C3150 0.961 . S
H3164 C3150 0.961 . S
H3165 C3151 0.958 . S
H3166 C3151 0.961 . S
H3167 C3151 0.960 . S
C3168 C3169 1.391 . S
C3168 C3170 1.394 . S
C3168 H3184 0.931 . S
C3169 C3168 1.391 . S
C3169 C3173 1.376 . S
C3170 C3168 1.394 . S
C3170 C3171 1.369 . S
C3170 C3174 1.531 . S
C3171 C3170 1.369 . S
C3171 C3172 1.410 . S
C3171 C3179 1.503 . S
C3172 C3171 1.410 . S
C3172 C3173 1.392 . S
C3172 C3175 1.511 . S
C3173 C3169 1.376 . S
C3173 C3172 1.392 . S
C3173 H3185 0.929 . S
C3174 C3170 1.531 . S
C3174 H3186 0.960 . S
C3174 H3187 0.962 . S
C3174 H3188 0.960 . S
C3175 C3172 1.511 . S
C3175 H3189 0.961 . S
C3175 H3190 0.961 . S
C3175 H3191 0.961 . S
C3176 C3177 1.370 . S
C3176 C3178 1.363 . S
C3176 H3192 0.931 . S
C3177 C3176 1.370 . S
C3177 C3181 1.408 . S
C3178 C3176 1.363 . S
C3178 C3179 1.370 . S
C3178 C3182 1.524 . S
C3179 C3171 1.503 . S
C3179 C3178 1.370 . S
C3179 C3180 1.403 . S
C3180 C3179 1.403 . S
C3180 C3181 1.404 . S
C3180 C3183 1.539 . S
C3181 C3177 1.408 . S
C3181 C3180 1.404 . S
C3181 H3193 0.930 . S
C3182 C3178 1.524 . S
C3182 H3194 0.956 . S
C3182 H3195 0.961 . S
C3182 H3196 0.961 . S
C3183 C3180 1.539 . S
C3183 H3197 0.958 . S
C3183 H3198 0.961 . S
C3183 H3199 0.960 . S
H3184 C3168 0.931 . S
H3185 C3173 0.929 . S
H3186 C3174 0.960 . S
H3187 C3174 0.962 . S
H3188 C3174 0.960 . S
H3189 C3175 0.961 . S
H3190 C3175 0.961 . S
H3191 C3175 0.961 . S
H3192 C3176 0.931 . S
H3193 C3181 0.930 . S
H3194 C3182 0.956 . S
H3195 C3182 0.961 . S
H3196 C3182 0.961 . S
H3197 C3183 0.958 . S
H3198 C3183 0.961 . S
H3199 C3183 0.960 . S
C3200 C3201 1.391 . S
C3200 C3202 1.394 . S
C3200 H3216 0.931 . S
C3201 C3200 1.391 . S
C3201 C3205 1.376 . S
C3202 C3200 1.394 . S
C3202 C3203 1.369 . S
C3202 C3206 1.531 . S
C3203 C3202 1.369 . S
C3203 C3204 1.410 . S
C3203 C3211 1.503 . S
C3204 C3203 1.410 . S
C3204 C3205 1.392 . S
C3204 C3207 1.511 . S
C3205 C3201 1.376 . S
C3205 C3204 1.392 . S
C3205 H3217 0.929 . S
C3206 C3202 1.531 . S
C3206 H3218 0.960 . S
C3206 H3219 0.962 . S
C3206 H3220 0.960 . S
C3207 C3204 1.511 . S
C3207 H3221 0.961 . S
C3207 H3222 0.961 . S
C3207 H3223 0.961 . S
C3208 C3209 1.370 . S
C3208 C3210 1.363 . S
C3208 H3224 0.931 . S
C3209 C3208 1.370 . S
C3209 C3213 1.408 . S
C3210 C3208 1.363 . S
C3210 C3211 1.370 . S
C3210 C3214 1.524 . S
C3211 C3203 1.503 . S
C3211 C3210 1.370 . S
C3211 C3212 1.403 . S
C3212 C3211 1.403 . S
C3212 C3213 1.404 . S
C3212 C3215 1.539 . S
C3213 C3209 1.408 . S
C3213 C3212 1.404 . S
C3213 H3225 0.930 . S
C3214 C3210 1.524 . S
C3214 H3226 0.956 . S
C3214 H3227 0.961 . S
C3214 H3228 0.961 . S
C3215 C3212 1.539 . S
C3215 H3229 0.958 . S
C3215 H3230 0.961 . S
C3215 H3231 0.960 . S
H3216 C3200 0.931 . S
H3217 C3205 0.929 . S
H3218 C3206 0.960 . S
H3219 C3206 0.962 . S
H3220 C3206 0.960 . S
H3221 C3207 0.961 . S
H3222 C3207 0.961 . S
H3223 C3207 0.961 . S
H3224 C3208 0.931 . S
H3225 C3213 0.930 . S
H3226 C3214 0.956 . S
H3227 C3214 0.961 . S
H3228 C3214 0.961 . S
H3229 C3215 0.958 . S
H3230 C3215 0.961 . S
H3231 C3215 0.960 . S
C3232 C3233 1.391 . S
C3232 C3234 1.394 . S
C3232 H3248 0.931 . S
C3233 C3232 1.391 . S
C3233 C3237 1.376 . S
C3234 C3232 1.394 . S
C3234 C3235 1.369 . S
C3234 C3238 1.531 . S
C3235 C3234 1.369 . S
C3235 C3236 1.410 . S
C3235 C3243 1.503 . S
C3236 C3235 1.410 . S
C3236 C3237 1.392 . S
C3236 C3239 1.511 . S
C3237 C3233 1.376 . S
C3237 C3236 1.392 . S
C3237 H3249 0.929 . S
C3238 C3234 1.531 . S
C3238 H3250 0.960 . S
C3238 H3251 0.962 . S
C3238 H3252 0.960 . S
C3239 C3236 1.511 . S
C3239 H3253 0.961 . S
C3239 H3254 0.961 . S
C3239 H3255 0.961 . S
C3240 C3241 1.370 . S
C3240 C3242 1.363 . S
C3240 H3256 0.931 . S
C3241 C3240 1.370 . S
C3241 C3245 1.408 . S
C3242 C3240 1.363 . S
C3242 C3243 1.370 . S
C3242 C3246 1.524 . S
C3243 C3235 1.503 . S
C3243 C3242 1.370 . S
C3243 C3244 1.403 . S
C3244 C3243 1.403 . S
C3244 C3245 1.404 . S
C3244 C3247 1.539 . S
C3245 C3241 1.408 . S
C3245 C3244 1.404 . S
C3245 H3257 0.930 . S
C3246 C3242 1.524 . S
C3246 H3258 0.956 . S
C3246 H3259 0.961 . S
C3246 H3260 0.961 . S
C3247 C3244 1.539 . S
C3247 H3261 0.958 . S
C3247 H3262 0.961 . S
C3247 H3263 0.960 . S
H3248 C3232 0.931 . S
H3249 C3237 0.929 . S
H3250 C3238 0.960 . S
H3251 C3238 0.962 . S
H3252 C3238 0.960 . S
H3253 C3239 0.961 . S
H3254 C3239 0.961 . S
H3255 C3239 0.961 . S
H3256 C3240 0.931 . S
H3257 C3245 0.930 . S
H3258 C3246 0.956 . S
H3259 C3246 0.961 . S
H3260 C3246 0.961 . S
H3261 C3247 0.958 . S
H3262 C3247 0.961 . S
H3263 C3247 0.960 . S
C3264 C3265 1.391 . S
C3264 C3266 1.394 . S
C3264 H3280 0.931 . S
C3265 C3264 1.391 . S
C3265 C3269 1.376 . S
C3266 C3264 1.394 . S
C3266 C3267 1.369 . S
C3266 C3270 1.531 . S
C3267 C3266 1.369 . S
C3267 C3268 1.410 . S
C3267 C3275 1.503 . S
C3268 C3267 1.410 . S
C3268 C3269 1.392 . S
C3268 C3271 1.511 . S
C3269 C3265 1.376 . S
C3269 C3268 1.392 . S
C3269 H3281 0.929 . S
C3270 C3266 1.531 . S
C3270 H3282 0.960 . S
C3270 H3283 0.962 . S
C3270 H3284 0.960 . S
C3271 C3268 1.511 . S
C3271 H3285 0.961 . S
C3271 H3286 0.961 . S
C3271 H3287 0.961 . S
C3272 C3273 1.370 . S
C3272 C3274 1.363 . S
C3272 H3288 0.931 . S
C3273 C3272 1.370 . S
C3273 C3277 1.408 . S
C3274 C3272 1.363 . S
C3274 C3275 1.370 . S
C3274 C3278 1.524 . S
C3275 C3267 1.503 . S
C3275 C3274 1.370 . S
C3275 C3276 1.403 . S
C3276 C3275 1.403 . S
C3276 C3277 1.404 . S
C3276 C3279 1.539 . S
C3277 C3273 1.408 . S
C3277 C3276 1.404 . S
C3277 H3289 0.930 . S
C3278 C3274 1.524 . S
C3278 H3290 0.956 . S
C3278 H3291 0.961 . S
C3278 H3292 0.961 . S
C3279 C3276 1.539 . S
C3279 H3293 0.958 . S
C3279 H3294 0.961 . S
C3279 H3295 0.960 . S
H3280 C3264 0.931 . S
H3281 C3269 0.929 . S
H3282 C3270 0.960 . S
H3283 C3270 0.962 . S
H3284 C3270 0.960 . S
H3285 C3271 0.961 . S
H3286 C3271 0.961 . S
H3287 C3271 0.961 . S
H3288 C3272 0.931 . S
H3289 C3277 0.930 . S
H3290 C3278 0.956 . S
H3291 C3278 0.961 . S
H3292 C3278 0.961 . S
H3293 C3279 0.958 . S
H3294 C3279 0.961 . S
H3295 C3279 0.960 . S
C3296 C3297 1.391 . S
C3296 C3298 1.394 . S
C3296 H3312 0.931 . S
C3297 C3296 1.391 . S
C3297 C3301 1.376 . S
C3298 C3296 1.394 . S
C3298 C3299 1.369 . S
C3298 C3302 1.531 . S
C3299 C3298 1.369 . S
C3299 C3300 1.410 . S
C3299 C3307 1.503 . S
C3300 C3299 1.410 . S
C3300 C3301 1.392 . S
C3300 C3303 1.511 . S
C3301 C3297 1.376 . S
C3301 C3300 1.392 . S
C3301 H3313 0.929 . S
C3302 C3298 1.531 . S
C3302 H3314 0.960 . S
C3302 H3315 0.962 . S
C3302 H3316 0.960 . S
C3303 C3300 1.511 . S
C3303 H3317 0.961 . S
C3303 H3318 0.961 . S
C3303 H3319 0.961 . S
C3304 C3305 1.370 . S
C3304 C3306 1.363 . S
C3304 H3320 0.931 . S
C3305 C3304 1.370 . S
C3305 C3309 1.408 . S
C3306 C3304 1.363 . S
C3306 C3307 1.370 . S
C3306 C3310 1.524 . S
C3307 C3299 1.503 . S
C3307 C3306 1.370 . S
C3307 C3308 1.403 . S
C3308 C3307 1.403 . S
C3308 C3309 1.404 . S
C3308 C3311 1.539 . S
C3309 C3305 1.408 . S
C3309 C3308 1.404 . S
C3309 H3321 0.930 . S
C3310 C3306 1.524 . S
C3310 H3322 0.956 . S
C3310 H3323 0.961 . S
C3310 H3324 0.961 . S
C3311 C3308 1.539 . S
C3311 H3325 0.958 . S
C3311 H3326 0.961 . S
C3311 H3327 0.960 . S
H3312 C3296 0.931 . S
H3313 C3301 0.929 . S
H3314 C3302 0.960 . S
H3315 C3302 0.962 . S
H3316 C3302 0.960 . S
H3317 C3303 0.961 . S
H3318 C3303 0.961 . S
H3319 C3303 0.961 . S
H3320 C3304 0.931 . S
H3321 C3309 0.930 . S
H3322 C3310 0.956 . S
H3323 C3310 0.961 . S
H3324 C3310 0.961 . S
H3325 C3311 0.958 . S
H3326 C3311 0.961 . S
H3327 C3311 0.960 . S
C3328 C3329 1.391 . S
C3328 C3330 1.394 . S
C3328 H3344 0.931 . S
C3329 C3328 1.391 . S
C3329 C3333 1.376 . S
C3330 C3328 1.394 . S
C3330 C3331 1.369 . S
C3330 C3334 1.531 . S
C3331 C3330 1.369 . S
C3331 C3332 1.410 . S
C3331 C3339 1.503 . S
C3332 C3331 1.410 . S
C3332 C3333 1.392 . S
C3332 C3335 1.511 . S
C3333 C3329 1.376 . S
C3333 C3332 1.392 . S
C3333 H3345 0.929 . S
C3334 C3330 1.531 . S
C3334 H3346 0.960 . S
C3334 H3347 0.962 . S
C3334 H3348 0.960 . S
C3335 C3332 1.511 . S
C3335 H3349 0.961 . S
C3335 H3350 0.961 . S
C3335 H3351 0.961 . S
C3336 C3337 1.370 . S
C3336 C3338 1.363 . S
C3336 H3352 0.931 . S
C3337 C3336 1.370 . S
C3337 C3341 1.408 . S
C3338 C3336 1.363 . S
C3338 C3339 1.370 . S
C3338 C3342 1.524 . S
C3339 C3331 1.503 . S
C3339 C3338 1.370 . S
C3339 C3340 1.403 . S
C3340 C3339 1.403 . S
C3340 C3341 1.404 . S
C3340 C3343 1.539 . S
C3341 C3337 1.408 . S
C3341 C3340 1.404 . S
C3341 H3353 0.930 . S
C3342 C3338 1.524 . S
C3342 H3354 0.956 . S
C3342 H3355 0.961 . S
C3342 H3356 0.961 . S
C3343 C3340 1.539 . S
C3343 H3357 0.958 . S
C3343 H3358 0.961 . S
C3343 H3359 0.960 . S
H3344 C3328 0.931 . S
H3345 C3333 0.929 . S
H3346 C3334 0.960 . S
H3347 C3334 0.962 . S
H3348 C3334 0.960 . S
H3349 C3335 0.961 . S
H3350 C3335 0.961 . S
H3351 C3335 0.961 . S
H3352 C3336 0.931 . S
H3353 C3341 0.930 . S
H3354 C3342 0.956 . S
H3355 C3342 0.961 . S
H3356 C3342 0.961 . S
H3357 C3343 0.958 . S
H3358 C3343 0.961 . S
H3359 C3343 0.960 . S
C3360 C3361 1.391 . S
C3360 C3362 1.394 . S
C3360 H3376 0.931 . S
C3361 C3360 1.391 . S
C3361 C3365 1.376 . S
C3362 C3360 1.394 . S
C3362 C3363 1.369 . S
C3362 C3366 1.531 . S
C3363 C3362 1.369 . S
C3363 C3364 1.410 . S
C3363 C3371 1.503 . S
C3364 C3363 1.410 . S
C3364 C3365 1.392 . S
C3364 C3367 1.511 . S
C3365 C3361 1.376 . S
C3365 C3364 1.392 . S
C3365 H3377 0.929 . S
C3366 C3362 1.531 . S
C3366 H3378 0.960 . S
C3366 H3379 0.962 . S
C3366 H3380 0.960 . S
C3367 C3364 1.511 . S
C3367 H3381 0.961 . S
C3367 H3382 0.961 . S
C3367 H3383 0.961 . S
C3368 C3369 1.370 . S
C3368 C3370 1.363 . S
C3368 H3384 0.931 . S
C3369 C3368 1.370 . S
C3369 C3373 1.408 . S
C3370 C3368 1.363 . S
C3370 C3371 1.370 . S
C3370 C3374 1.524 . S
C3371 C3363 1.503 . S
C3371 C3370 1.370 . S
C3371 C3372 1.403 . S
C3372 C3371 1.403 . S
C3372 C3373 1.404 . S
C3372 C3375 1.539 . S
C3373 C3369 1.408 . S
C3373 C3372 1.404 . S
C3373 H3385 0.930 . S
C3374 C3370 1.524 . S
C3374 H3386 0.956 . S
C3374 H3387 0.961 . S
C3374 H3388 0.961 . S
C3375 C3372 1.539 . S
C3375 H3389 0.958 . S
C3375 H3390 0.961 . S
C3375 H3391 0.960 . S
H3376 C3360 0.931 . S
H3377 C3365 0.929 . S
H3378 C3366 0.960 . S
H3379 C3366 0.962 . S
H3380 C3366 0.960 . S
H3381 C3367 0.961 . S
H3382 C3367 0.961 . S
H3383 C3367 0.961 . S
H3384 C3368 0.931 . S
H3385 C3373 0.930 . S
H3386 C3374 0.956 . S
H3387 C3374 0.961 . S
H3388 C3374 0.961 . S
H3389 C3375 0.958 . S
H3390 C3375 0.961 . S
H3391 C3375 0.960 . S
C3392 C3393 1.391 . S
C3392 C3394 1.394 . S
C3392 H3408 0.931 . S
C3393 C3392 1.391 . S
C3393 C3397 1.376 . S
C3394 C3392 1.394 . S
C3394 C3395 1.369 . S
C3394 C3398 1.531 . S
C3395 C3394 1.369 . S
C3395 C3396 1.410 . S
C3395 C3403 1.503 . S
C3396 C3395 1.410 . S
C3396 C3397 1.392 . S
C3396 C3399 1.511 . S
C3397 C3393 1.376 . S
C3397 C3396 1.392 . S
C3397 H3409 0.929 . S
C3398 C3394 1.531 . S
C3398 H3410 0.960 . S
C3398 H3411 0.962 . S
C3398 H3412 0.960 . S
C3399 C3396 1.511 . S
C3399 H3413 0.961 . S
C3399 H3414 0.961 . S
C3399 H3415 0.961 . S
C3400 C3401 1.370 . S
C3400 C3402 1.363 . S
C3400 H3416 0.931 . S
C3401 C3400 1.370 . S
C3401 C3405 1.408 . S
C3402 C3400 1.363 . S
C3402 C3403 1.370 . S
C3402 C3406 1.524 . S
C3403 C3395 1.503 . S
C3403 C3402 1.370 . S
C3403 C3404 1.403 . S
C3404 C3403 1.403 . S
C3404 C3405 1.404 . S
C3404 C3407 1.539 . S
C3405 C3401 1.408 . S
C3405 C3404 1.404 . S
C3405 H3417 0.930 . S
C3406 C3402 1.524 . S
C3406 H3418 0.956 . S
C3406 H3419 0.961 . S
C3406 H3420 0.961 . S
C3407 C3404 1.539 . S
C3407 H3421 0.958 . S
C3407 H3422 0.961 . S
C3407 H3423 0.960 . S
H3408 C3392 0.931 . S
H3409 C3397 0.929 . S
H3410 C3398 0.960 . S
H3411 C3398 0.962 . S
H3412 C3398 0.960 . S
H3413 C3399 0.961 . S
H3414 C3399 0.961 . S
H3415 C3399 0.961 . S
H3416 C3400 0.931 . S
H3417 C3405 0.930 . S
H3418 C3406 0.956 . S
H3419 C3406 0.961 . S
H3420 C3406 0.961 . S
H3421 C3407 0.958 . S
H3422 C3407 0.961 . S
H3423 C3407 0.960 . S
C3424 C3425 1.391 . S
C3424 C3426 1.394 . S
C3424 H3440 0.931 . S
C3425 C3424 1.391 . S
C3425 C3429 1.376 . S
C3426 C3424 1.394 . S
C3426 C3427 1.369 . S
C3426 C3430 1.531 . S
C3427 C3426 1.369 . S
C3427 C3428 1.410 . S
C3427 C3435 1.503 . S
C3428 C3427 1.410 . S
C3428 C3429 1.392 . S
C3428 C3431 1.511 . S
C3429 C3425 1.376 . S
C3429 C3428 1.392 . S
C3429 H3441 0.929 . S
C3430 C3426 1.531 . S
C3430 H3442 0.960 . S
C3430 H3443 0.962 . S
C3430 H3444 0.960 . S
C3431 C3428 1.511 . S
C3431 H3445 0.961 . S
C3431 H3446 0.961 . S
C3431 H3447 0.961 . S
C3432 C3433 1.370 . S
C3432 C3434 1.363 . S
C3432 H3448 0.931 . S
C3433 C3432 1.370 . S
C3433 C3437 1.408 . S
C3434 C3432 1.363 . S
C3434 C3435 1.370 . S
C3434 C3438 1.524 . S
C3435 C3427 1.503 . S
C3435 C3434 1.370 . S
C3435 C3436 1.403 . S
C3436 C3435 1.403 . S
C3436 C3437 1.404 . S
C3436 C3439 1.539 . S
C3437 C3433 1.408 . S
C3437 C3436 1.404 . S
C3437 H3449 0.930 . S
C3438 C3434 1.524 . S
C3438 H3450 0.956 . S
C3438 H3451 0.961 . S
C3438 H3452 0.961 . S
C3439 C3436 1.539 . S
C3439 H3453 0.958 . S
C3439 H3454 0.961 . S
C3439 H3455 0.960 . S
H3440 C3424 0.931 . S
H3441 C3429 0.929 . S
H3442 C3430 0.960 . S
H3443 C3430 0.962 . S
H3444 C3430 0.960 . S
H3445 C3431 0.961 . S
H3446 C3431 0.961 . S
H3447 C3431 0.961 . S
H3448 C3432 0.931 . S
H3449 C3437 0.930 . S
H3450 C3438 0.956 . S
H3451 C3438 0.961 . S
H3452 C3438 0.961 . S
H3453 C3439 0.958 . S
H3454 C3439 0.961 . S
H3455 C3439 0.960 . S
C3456 C3457 1.391 . S
C3456 C3458 1.394 . S
C3456 H3472 0.931 . S
C3457 C3456 1.391 . S
C3457 C3461 1.376 . S
C3458 C3456 1.394 . S
C3458 C3459 1.369 . S
C3458 C3462 1.531 . S
C3459 C3458 1.369 . S
C3459 C3460 1.410 . S
C3459 C3467 1.503 . S
C3460 C3459 1.410 . S
C3460 C3461 1.392 . S
C3460 C3463 1.511 . S
C3461 C3457 1.376 . S
C3461 C3460 1.392 . S
C3461 H3473 0.929 . S
C3462 C3458 1.531 . S
C3462 H3474 0.960 . S
C3462 H3475 0.962 . S
C3462 H3476 0.960 . S
C3463 C3460 1.511 . S
C3463 H3477 0.961 . S
C3463 H3478 0.961 . S
C3463 H3479 0.961 . S
C3464 C3465 1.370 . S
C3464 C3466 1.363 . S
C3464 H3480 0.931 . S
C3465 C3464 1.370 . S
C3465 C3469 1.408 . S
C3466 C3464 1.363 . S
C3466 C3467 1.370 . S
C3466 C3470 1.524 . S
C3467 C3459 1.503 . S
C3467 C3466 1.370 . S
C3467 C3468 1.403 . S
C3468 C3467 1.403 . S
C3468 C3469 1.404 . S
C3468 C3471 1.539 . S
C3469 C3465 1.408 . S
C3469 C3468 1.404 . S
C3469 H3481 0.930 . S
C3470 C3466 1.524 . S
C3470 H3482 0.956 . S
C3470 H3483 0.961 . S
C3470 H3484 0.961 . S
C3471 C3468 1.539 . S
C3471 H3485 0.958 . S
C3471 H3486 0.961 . S
C3471 H3487 0.960 . S
H3472 C3456 0.931 . S
H3473 C3461 0.929 . S
H3474 C3462 0.960 . S
H3475 C3462 0.962 . S
H3476 C3462 0.960 . S
H3477 C3463 0.961 . S
H3478 C3463 0.961 . S
H3479 C3463 0.961 . S
H3480 C3464 0.931 . S
H3481 C3469 0.930 . S
H3482 C3470 0.956 . S
H3483 C3470 0.961 . S
H3484 C3470 0.961 . S
H3485 C3471 0.958 . S
H3486 C3471 0.961 . S
H3487 C3471 0.960 . S
C3488 C3489 1.391 . S
C3488 C3490 1.394 . S
C3488 H3504 0.931 . S
C3489 C3488 1.391 . S
C3489 C3493 1.376 . S
C3490 C3488 1.394 . S
C3490 C3491 1.369 . S
C3490 C3494 1.531 . S
C3491 C3490 1.369 . S
C3491 C3492 1.410 . S
C3491 C3499 1.503 . S
C3492 C3491 1.410 . S
C3492 C3493 1.392 . S
C3492 C3495 1.511 . S
C3493 C3489 1.376 . S
C3493 C3492 1.392 . S
C3493 H3505 0.929 . S
C3494 C3490 1.531 . S
C3494 H3506 0.960 . S
C3494 H3507 0.962 . S
C3494 H3508 0.960 . S
C3495 C3492 1.511 . S
C3495 H3509 0.961 . S
C3495 H3510 0.961 . S
C3495 H3511 0.961 . S
C3496 C3497 1.370 . S
C3496 C3498 1.363 . S
C3496 H3512 0.931 . S
C3497 C3496 1.370 . S
C3497 C3501 1.408 . S
C3498 C3496 1.363 . S
C3498 C3499 1.370 . S
C3498 C3502 1.524 . S
C3499 C3491 1.503 . S
C3499 C3498 1.370 . S
C3499 C3500 1.403 . S
C3500 C3499 1.403 . S
C3500 C3501 1.404 . S
C3500 C3503 1.539 . S
C3501 C3497 1.408 . S
C3501 C3500 1.404 . S
C3501 H3513 0.930 . S
C3502 C3498 1.524 . S
C3502 H3514 0.956 . S
C3502 H3515 0.961 . S
C3502 H3516 0.961 . S
C3503 C3500 1.539 . S
C3503 H3517 0.958 . S
C3503 H3518 0.961 . S
C3503 H3519 0.960 . S
H3504 C3488 0.931 . S
H3505 C3493 0.929 . S
H3506 C3494 0.960 . S
H3507 C3494 0.962 . S
H3508 C3494 0.960 . S
H3509 C3495 0.961 . S
H3510 C3495 0.961 . S
H3511 C3495 0.961 . S
H3512 C3496 0.931 . S
H3513 C3501 0.930 . S
H3514 C3502 0.956 . S
H3515 C3502 0.961 . S
H3516 C3502 0.961 . S
H3517 C3503 0.958 . S
H3518 C3503 0.961 . S
H3519 C3503 0.960 . S
C3520 C3521 1.391 . S
C3520 C3522 1.394 . S
C3520 H3536 0.931 . S
C3521 C3520 1.391 . S
C3521 C3525 1.376 . S
C3522 C3520 1.394 . S
C3522 C3523 1.369 . S
C3522 C3526 1.531 . S
C3523 C3522 1.369 . S
C3523 C3524 1.410 . S
C3523 C3531 1.503 . S
C3524 C3523 1.410 . S
C3524 C3525 1.392 . S
C3524 C3527 1.511 . S
C3525 C3521 1.376 . S
C3525 C3524 1.392 . S
C3525 H3537 0.929 . S
C3526 C3522 1.531 . S
C3526 H3538 0.960 . S
C3526 H3539 0.962 . S
C3526 H3540 0.960 . S
C3527 C3524 1.511 . S
C3527 H3541 0.961 . S
C3527 H3542 0.961 . S
C3527 H3543 0.961 . S
C3528 C3529 1.370 . S
C3528 C3530 1.363 . S
C3528 H3544 0.931 . S
C3529 C3528 1.370 . S
C3529 C3533 1.408 . S
C3530 C3528 1.363 . S
C3530 C3531 1.370 . S
C3530 C3534 1.524 . S
C3531 C3523 1.503 . S
C3531 C3530 1.370 . S
C3531 C3532 1.403 . S
C3532 C3531 1.403 . S
C3532 C3533 1.404 . S
C3532 C3535 1.539 . S
C3533 C3529 1.408 . S
C3533 C3532 1.404 . S
C3533 H3545 0.930 . S
C3534 C3530 1.524 . S
C3534 H3546 0.956 . S
C3534 H3547 0.961 . S
C3534 H3548 0.961 . S
C3535 C3532 1.539 . S
C3535 H3549 0.958 . S
C3535 H3550 0.961 . S
C3535 H3551 0.960 . S
H3536 C3520 0.931 . S
H3537 C3525 0.929 . S
H3538 C3526 0.960 . S
H3539 C3526 0.962 . S
H3540 C3526 0.960 . S
H3541 C3527 0.961 . S
H3542 C3527 0.961 . S
H3543 C3527 0.961 . S
H3544 C3528 0.931 . S
H3545 C3533 0.930 . S
H3546 C3534 0.956 . S
H3547 C3534 0.961 . S
H3548 C3534 0.961 . S
H3549 C3535 0.958 . S
H3550 C3535 0.961 . S
H3551 C3535 0.960 . S
C3552 C3553 1.391 . S
C3552 C3554 1.394 . S
C3552 H3568 0.931 . S
C3553 C3552 1.391 . S
C3553 C3557 1.376 . S
C3554 C3552 1.394 . S
C3554 C3555 1.369 . S
C3554 C3558 1.531 . S
C3555 C3554 1.369 . S
C3555 C3556 1.410 . S
C3555 C3563 1.503 . S
C3556 C3555 1.410 . S
C3556 C3557 1.392 . S
C3556 C3559 1.511 . S
C3557 C3553 1.376 . S
C3557 C3556 1.392 . S
C3557 H3569 0.929 . S
C3558 C3554 1.531 . S
C3558 H3570 0.960 . S
C3558 H3571 0.962 . S
C3558 H3572 0.960 . S
C3559 C3556 1.511 . S
C3559 H3573 0.961 . S
C3559 H3574 0.961 . S
C3559 H3575 0.961 . S
C3560 C3561 1.370 . S
C3560 C3562 1.363 . S
C3560 H3576 0.931 . S
C3561 C3560 1.370 . S
C3561 C3565 1.408 . S
C3562 C3560 1.363 . S
C3562 C3563 1.370 . S
C3562 C3566 1.524 . S
C3563 C3555 1.503 . S
C3563 C3562 1.370 . S
C3563 C3564 1.403 . S
C3564 C3563 1.403 . S
C3564 C3565 1.404 . S
C3564 C3567 1.539 . S
C3565 C3561 1.408 . S
C3565 C3564 1.404 . S
C3565 H3577 0.930 . S
C3566 C3562 1.524 . S
C3566 H3578 0.956 . S
C3566 H3579 0.961 . S
C3566 H3580 0.961 . S
C3567 C3564 1.539 . S
C3567 H3581 0.958 . S
C3567 H3582 0.961 . S
C3567 H3583 0.960 . S
H3568 C3552 0.931 . S
H3569 C3557 0.929 . S
H3570 C3558 0.960 . S
H3571 C3558 0.962 . S
H3572 C3558 0.960 . S
H3573 C3559 0.961 . S
H3574 C3559 0.961 . S
H3575 C3559 0.961 . S
H3576 C3560 0.931 . S
H3577 C3565 0.930 . S
H3578 C3566 0.956 . S
H3579 C3566 0.961 . S
H3580 C3566 0.961 . S
H3581 C3567 0.958 . S
H3582 C3567 0.961 . S
H3583 C3567 0.960 . S
C3584 C3585 1.391 . S
C3584 C3586 1.394 . S
C3584 H3600 0.931 . S
C3585 C3584 1.391 . S
C3585 C3589 1.376 . S
C3586 C3584 1.394 . S
C3586 C3587 1.369 . S
C3586 C3590 1.531 . S
C3587 C3586 1.369 . S
C3587 C3588 1.410 . S
C3587 C3595 1.503 . S
C3588 C3587 1.410 . S
C3588 C3589 1.392 . S
C3588 C3591 1.511 . S
C3589 C3585 1.376 . S
C3589 C3588 1.392 . S
C3589 H3601 0.929 . S
C3590 C3586 1.531 . S
C3590 H3602 0.960 . S
C3590 H3603 0.962 . S
C3590 H3604 0.960 . S
C3591 C3588 1.511 . S
C3591 H3605 0.961 . S
C3591 H3606 0.961 . S
C3591 H3607 0.961 . S
C3592 C3593 1.370 . S
C3592 C3594 1.363 . S
C3592 H3608 0.931 . S
C3593 C3592 1.370 . S
C3593 C3597 1.408 . S
C3594 C3592 1.363 . S
C3594 C3595 1.370 . S
C3594 C3598 1.524 . S
C3595 C3587 1.503 . S
C3595 C3594 1.370 . S
C3595 C3596 1.403 . S
C3596 C3595 1.403 . S
C3596 C3597 1.404 . S
C3596 C3599 1.539 . S
C3597 C3593 1.408 . S
C3597 C3596 1.404 . S
C3597 H3609 0.930 . S
C3598 C3594 1.524 . S
C3598 H3610 0.956 . S
C3598 H3611 0.961 . S
C3598 H3612 0.961 . S
C3599 C3596 1.539 . S
C3599 H3613 0.958 . S
C3599 H3614 0.961 . S
C3599 H3615 0.960 . S
H3600 C3584 0.931 . S
H3601 C3589 0.929 . S
H3602 C3590 0.960 . S
H3603 C3590 0.962 . S
H3604 C3590 0.960 . S
H3605 C3591 0.961 . S
H3606 C3591 0.961 . S
H3607 C3591 0.961 . S
H3608 C3592 0.931 . S
H3609 C3597 0.930 . S
H3610 C3598 0.956 . S
H3611 C3598 0.961 . S
H3612 C3598 0.961 . S
H3613 C3599 0.958 . S
H3614 C3599 0.961 . S
H3615 C3599 0.960 . S
C3616 C3617 1.391 . S
C3616 C3618 1.394 . S
C3616 H3632 0.931 . S
C3617 C3616 1.391 . S
C3617 C3621 1.376 . S
C3618 C3616 1.394 . S
C3618 C3619 1.369 . S
C3618 C3622 1.531 . S
C3619 C3618 1.369 . S
C3619 C3620 1.410 . S
C3619 C3627 1.503 . S
C3620 C3619 1.410 . S
C3620 C3621 1.392 . S
C3620 C3623 1.511 . S
C3621 C3617 1.376 . S
C3621 C3620 1.392 . S
C3621 H3633 0.929 . S
C3622 C3618 1.531 . S
C3622 H3634 0.960 . S
C3622 H3635 0.962 . S
C3622 H3636 0.960 . S
C3623 C3620 1.511 . S
C3623 H3637 0.961 . S
C3623 H3638 0.961 . S
C3623 H3639 0.961 . S
C3624 C3625 1.370 . S
C3624 C3626 1.363 . S
C3624 H3640 0.931 . S
C3625 C3624 1.370 . S
C3625 C3629 1.408 . S
C3626 C3624 1.363 . S
C3626 C3627 1.370 . S
C3626 C3630 1.524 . S
C3627 C3619 1.503 . S
C3627 C3626 1.370 . S
C3627 C3628 1.403 . S
C3628 C3627 1.403 . S
C3628 C3629 1.404 . S
C3628 C3631 1.539 . S
C3629 C3625 1.408 . S
C3629 C3628 1.404 . S
C3629 H3641 0.930 . S
C3630 C3626 1.524 . S
C3630 H3642 0.956 . S
C3630 H3643 0.961 . S
C3630 H3644 0.961 . S
C3631 C3628 1.539 . S
C3631 H3645 0.958 . S
C3631 H3646 0.961 . S
C3631 H3647 0.960 . S
H3632 C3616 0.931 . S
H3633 C3621 0.929 . S
H3634 C3622 0.960 . S
H3635 C3622 0.962 . S
H3636 C3622 0.960 . S
H3637 C3623 0.961 . S
H3638 C3623 0.961 . S
H3639 C3623 0.961 . S
H3640 C3624 0.931 . S
H3641 C3629 0.930 . S
H3642 C3630 0.956 . S
H3643 C3630 0.961 . S
H3644 C3630 0.961 . S
H3645 C3631 0.958 . S
H3646 C3631 0.961 . S
H3647 C3631 0.960 . S
C3648 C3649 1.391 . S
C3648 C3650 1.394 . S
C3648 H3664 0.931 . S
C3649 C3648 1.391 . S
C3649 C3653 1.376 . S
C3650 C3648 1.394 . S
C3650 C3651 1.369 . S
C3650 C3654 1.531 . S
C3651 C3650 1.369 . S
C3651 C3652 1.410 . S
C3651 C3659 1.503 . S
C3652 C3651 1.410 . S
C3652 C3653 1.392 . S
C3652 C3655 1.511 . S
C3653 C3649 1.376 . S
C3653 C3652 1.392 . S
C3653 H3665 0.929 . S
C3654 C3650 1.531 . S
C3654 H3666 0.960 . S
C3654 H3667 0.962 . S
C3654 H3668 0.960 . S
C3655 C3652 1.511 . S
C3655 H3669 0.961 . S
C3655 H3670 0.961 . S
C3655 H3671 0.961 . S
C3656 C3657 1.370 . S
C3656 C3658 1.363 . S
C3656 H3672 0.931 . S
C3657 C3656 1.370 . S
C3657 C3661 1.408 . S
C3658 C3656 1.363 . S
C3658 C3659 1.370 . S
C3658 C3662 1.524 . S
C3659 C3651 1.503 . S
C3659 C3658 1.370 . S
C3659 C3660 1.403 . S
C3660 C3659 1.403 . S
C3660 C3661 1.404 . S
C3660 C3663 1.539 . S
C3661 C3657 1.408 . S
C3661 C3660 1.404 . S
C3661 H3673 0.930 . S
C3662 C3658 1.524 . S
C3662 H3674 0.956 . S
C3662 H3675 0.961 . S
C3662 H3676 0.961 . S
C3663 C3660 1.539 . S
C3663 H3677 0.958 . S
C3663 H3678 0.961 . S
C3663 H3679 0.960 . S
H3664 C3648 0.931 . S
H3665 C3653 0.929 . S
H3666 C3654 0.960 . S
H3667 C3654 0.962 . S
H3668 C3654 0.960 . S
H3669 C3655 0.961 . S
H3670 C3655 0.961 . S
H3671 C3655 0.961 . S
H3672 C3656 0.931 . S
H3673 C3661 0.930 . S
H3674 C3662 0.956 . S
H3675 C3662 0.961 . S
H3676 C3662 0.961 . S
H3677 C3663 0.958 . S
H3678 C3663 0.961 . S
H3679 C3663 0.960 . S
C3680 C3681 1.391 . S
C3680 C3682 1.394 . S
C3680 H3696 0.931 . S
C3681 C3680 1.391 . S
C3681 C3685 1.376 . S
C3682 C3680 1.394 . S
C3682 C3683 1.369 . S
C3682 C3686 1.531 . S
C3683 C3682 1.369 . S
C3683 C3684 1.410 . S
C3683 C3691 1.503 . S
C3684 C3683 1.410 . S
C3684 C3685 1.392 . S
C3684 C3687 1.511 . S
C3685 C3681 1.376 . S
C3685 C3684 1.392 . S
C3685 H3697 0.929 . S
C3686 C3682 1.531 . S
C3686 H3698 0.960 . S
C3686 H3699 0.962 . S
C3686 H3700 0.960 . S
C3687 C3684 1.511 . S
C3687 H3701 0.961 . S
C3687 H3702 0.961 . S
C3687 H3703 0.961 . S
C3688 C3689 1.370 . S
C3688 C3690 1.363 . S
C3688 H3704 0.931 . S
C3689 C3688 1.370 . S
C3689 C3693 1.408 . S
C3690 C3688 1.363 . S
C3690 C3691 1.370 . S
C3690 C3694 1.524 . S
C3691 C3683 1.503 . S
C3691 C3690 1.370 . S
C3691 C3692 1.403 . S
C3692 C3691 1.403 . S
C3692 C3693 1.404 . S
C3692 C3695 1.539 . S
C3693 C3689 1.408 . S
C3693 C3692 1.404 . S
C3693 H3705 0.930 . S
C3694 C3690 1.524 . S
C3694 H3706 0.956 . S
C3694 H3707 0.961 . S
C3694 H3708 0.961 . S
C3695 C3692 1.539 . S
C3695 H3709 0.958 . S
C3695 H3710 0.961 . S
C3695 H3711 0.960 . S
H3696 C3680 0.931 . S
H3697 C3685 0.929 . S
H3698 C3686 0.960 . S
H3699 C3686 0.962 . S
H3700 C3686 0.960 . S
H3701 C3687 0.961 . S
H3702 C3687 0.961 . S
H3703 C3687 0.961 . S
H3704 C3688 0.931 . S
H3705 C3693 0.930 . S
H3706 C3694 0.956 . S
H3707 C3694 0.961 . S
H3708 C3694 0.961 . S
H3709 C3695 0.958 . S
H3710 C3695 0.961 . S
H3711 C3695 0.960 . S
C3712 C3713 1.391 . S
C3712 C3714 1.394 . S
C3712 H3728 0.931 . S
C3713 C3712 1.391 . S
C3713 C3717 1.376 . S
C3714 C3712 1.394 . S
C3714 C3715 1.369 . S
C3714 C3718 1.531 . S
C3715 C3714 1.369 . S
C3715 C3716 1.410 . S
C3715 C3723 1.503 . S
C3716 C3715 1.410 . S
C3716 C3717 1.392 . S
C3716 C3719 1.511 . S
C3717 C3713 1.376 . S
C3717 C3716 1.392 . S
C3717 H3729 0.929 . S
C3718 C3714 1.531 . S
C3718 H3730 0.960 . S
C3718 H3731 0.962 . S
C3718 H3732 0.960 . S
C3719 C3716 1.511 . S
C3719 H3733 0.961 . S
C3719 H3734 0.961 . S
C3719 H3735 0.961 . S
C3720 C3721 1.370 . S
C3720 C3722 1.363 . S
C3720 H3736 0.931 . S
C3721 C3720 1.370 . S
C3721 C3725 1.408 . S
C3722 C3720 1.363 . S
C3722 C3723 1.370 . S
C3722 C3726 1.524 . S
C3723 C3715 1.503 . S
C3723 C3722 1.370 . S
C3723 C3724 1.403 . S
C3724 C3723 1.403 . S
C3724 C3725 1.404 . S
C3724 C3727 1.539 . S
C3725 C3721 1.408 . S
C3725 C3724 1.404 . S
C3725 H3737 0.930 . S
C3726 C3722 1.524 . S
C3726 H3738 0.956 . S
C3726 H3739 0.961 . S
C3726 H3740 0.961 . S
C3727 C3724 1.539 . S
C3727 H3741 0.958 . S
C3727 H3742 0.961 . S
C3727 H3743 0.960 . S
H3728 C3712 0.931 . S
H3729 C3717 0.929 . S
H3730 C3718 0.960 . S
H3731 C3718 0.962 . S
H3732 C3718 0.960 . S
H3733 C3719 0.961 . S
H3734 C3719 0.961 . S
H3735 C3719 0.961 . S
H3736 C3720 0.931 . S
H3737 C3725 0.930 . S
H3738 C3726 0.956 . S
H3739 C3726 0.961 . S
H3740 C3726 0.961 . S
H3741 C3727 0.958 . S
H3742 C3727 0.961 . S
H3743 C3727 0.960 . S
C3744 C3745 1.391 . S
C3744 C3746 1.394 . S
C3744 H3760 0.931 . S
C3745 C3744 1.391 . S
C3745 C3749 1.376 . S
C3746 C3744 1.394 . S
C3746 C3747 1.369 . S
C3746 C3750 1.531 . S
C3747 C3746 1.369 . S
C3747 C3748 1.410 . S
C3747 C3755 1.503 . S
C3748 C3747 1.410 . S
C3748 C3749 1.392 . S
C3748 C3751 1.511 . S
C3749 C3745 1.376 . S
C3749 C3748 1.392 . S
C3749 H3761 0.929 . S
C3750 C3746 1.531 . S
C3750 H3762 0.960 . S
C3750 H3763 0.962 . S
C3750 H3764 0.960 . S
C3751 C3748 1.511 . S
C3751 H3765 0.961 . S
C3751 H3766 0.961 . S
C3751 H3767 0.961 . S
C3752 C3753 1.370 . S
C3752 C3754 1.363 . S
C3752 H3768 0.931 . S
C3753 C3752 1.370 . S
C3753 C3757 1.408 . S
C3754 C3752 1.363 . S
C3754 C3755 1.370 . S
C3754 C3758 1.524 . S
C3755 C3747 1.503 . S
C3755 C3754 1.370 . S
C3755 C3756 1.403 . S
C3756 C3755 1.403 . S
C3756 C3757 1.404 . S
C3756 C3759 1.539 . S
C3757 C3753 1.408 . S
C3757 C3756 1.404 . S
C3757 H3769 0.930 . S
C3758 C3754 1.524 . S
C3758 H3770 0.956 . S
C3758 H3771 0.961 . S
C3758 H3772 0.961 . S
C3759 C3756 1.539 . S
C3759 H3773 0.958 . S
C3759 H3774 0.961 . S
C3759 H3775 0.960 . S
H3760 C3744 0.931 . S
H3761 C3749 0.929 . S
H3762 C3750 0.960 . S
H3763 C3750 0.962 . S
H3764 C3750 0.960 . S
H3765 C3751 0.961 . S
H3766 C3751 0.961 . S
H3767 C3751 0.961 . S
H3768 C3752 0.931 . S
H3769 C3757 0.930 . S
H3770 C3758 0.956 . S
H3771 C3758 0.961 . S
H3772 C3758 0.961 . S
H3773 C3759 0.958 . S
H3774 C3759 0.961 . S
H3775 C3759 0.960 . S
C3776 C3777 1.391 . S
C3776 C3778 1.394 . S
C3776 H3792 0.931 . S
C3777 C3776 1.391 . S
C3777 C3781 1.376 . S
C3778 C3776 1.394 . S
C3778 C3779 1.369 . S
C3778 C3782 1.531 . S
C3779 C3778 1.369 . S
C3779 C3780 1.410 . S
C3779 C3787 1.503 . S
C3780 C3779 1.410 . S
C3780 C3781 1.392 . S
C3780 C3783 1.511 . S
C3781 C3777 1.376 . S
C3781 C3780 1.392 . S
C3781 H3793 0.929 . S
C3782 C3778 1.531 . S
C3782 H3794 0.960 . S
C3782 H3795 0.962 . S
C3782 H3796 0.960 . S
C3783 C3780 1.511 . S
C3783 H3797 0.961 . S
C3783 H3798 0.961 . S
C3783 H3799 0.961 . S
C3784 C3785 1.370 . S
C3784 C3786 1.363 . S
C3784 H3800 0.931 . S
C3785 C3784 1.370 . S
C3785 C3789 1.408 . S
C3786 C3784 1.363 . S
C3786 C3787 1.370 . S
C3786 C3790 1.524 . S
C3787 C3779 1.503 . S
C3787 C3786 1.370 . S
C3787 C3788 1.403 . S
C3788 C3787 1.403 . S
C3788 C3789 1.404 . S
C3788 C3791 1.539 . S
C3789 C3785 1.408 . S
C3789 C3788 1.404 . S
C3789 H3801 0.930 . S
C3790 C3786 1.524 . S
C3790 H3802 0.956 . S
C3790 H3803 0.961 . S
C3790 H3804 0.961 . S
C3791 C3788 1.539 . S
C3791 H3805 0.958 . S
C3791 H3806 0.961 . S
C3791 H3807 0.960 . S
H3792 C3776 0.931 . S
H3793 C3781 0.929 . S
H3794 C3782 0.960 . S
H3795 C3782 0.962 . S
H3796 C3782 0.960 . S
H3797 C3783 0.961 . S
H3798 C3783 0.961 . S
H3799 C3783 0.961 . S
H3800 C3784 0.931 . S
H3801 C3789 0.930 . S
H3802 C3790 0.956 . S
H3803 C3790 0.961 . S
H3804 C3790 0.961 . S
H3805 C3791 0.958 . S
H3806 C3791 0.961 . S
H3807 C3791 0.960 . S
C3808 C3809 1.391 . S
C3808 C3810 1.394 . S
C3808 H3824 0.931 . S
C3809 C3808 1.391 . S
C3809 C3813 1.376 . S
C3810 C3808 1.394 . S
C3810 C3811 1.369 . S
C3810 C3814 1.531 . S
C3811 C3810 1.369 . S
C3811 C3812 1.410 . S
C3811 C3819 1.503 . S
C3812 C3811 1.410 . S
C3812 C3813 1.392 . S
C3812 C3815 1.511 . S
C3813 C3809 1.376 . S
C3813 C3812 1.392 . S
C3813 H3825 0.929 . S
C3814 C3810 1.531 . S
C3814 H3826 0.960 . S
C3814 H3827 0.962 . S
C3814 H3828 0.960 . S
C3815 C3812 1.511 . S
C3815 H3829 0.961 . S
C3815 H3830 0.961 . S
C3815 H3831 0.961 . S
C3816 C3817 1.370 . S
C3816 C3818 1.363 . S
C3816 H3832 0.931 . S
C3817 C3816 1.370 . S
C3817 C3821 1.408 . S
C3818 C3816 1.363 . S
C3818 C3819 1.370 . S
C3818 C3822 1.524 . S
C3819 C3811 1.503 . S
C3819 C3818 1.370 . S
C3819 C3820 1.403 . S
C3820 C3819 1.403 . S
C3820 C3821 1.404 . S
C3820 C3823 1.539 . S
C3821 C3817 1.408 . S
C3821 C3820 1.404 . S
C3821 H3833 0.930 . S
C3822 C3818 1.524 . S
C3822 H3834 0.956 . S
C3822 H3835 0.961 . S
C3822 H3836 0.961 . S
C3823 C3820 1.539 . S
C3823 H3837 0.958 . S
C3823 H3838 0.961 . S
C3823 H3839 0.960 . S
H3824 C3808 0.931 . S
H3825 C3813 0.929 . S
H3826 C3814 0.960 . S
H3827 C3814 0.962 . S
H3828 C3814 0.960 . S
H3829 C3815 0.961 . S
H3830 C3815 0.961 . S
H3831 C3815 0.961 . S
H3832 C3816 0.931 . S
H3833 C3821 0.930 . S
H3834 C3822 0.956 . S
H3835 C3822 0.961 . S
H3836 C3822 0.961 . S
H3837 C3823 0.958 . S
H3838 C3823 0.961 . S
H3839 C3823 0.960 . S
C3840 C3841 1.391 . S
C3840 C3842 1.394 . S
C3840 H3856 0.931 . S
C3841 C3840 1.391 . S
C3841 C3845 1.376 . S
C3842 C3840 1.394 . S
C3842 C3843 1.369 . S
C3842 C3846 1.531 . S
C3843 C3842 1.369 . S
C3843 C3844 1.410 . S
C3843 C3851 1.503 . S
C3844 C3843 1.410 . S
C3844 C3845 1.392 . S
C3844 C3847 1.511 . S
C3845 C3841 1.376 . S
C3845 C3844 1.392 . S
C3845 H3857 0.929 . S
C3846 C3842 1.531 . S
C3846 H3858 0.960 . S
C3846 H3859 0.962 . S
C3846 H3860 0.960 . S
C3847 C3844 1.511 . S
C3847 H3861 0.961 . S
C3847 H3862 0.961 . S
C3847 H3863 0.961 . S
C3848 C3849 1.370 . S
C3848 C3850 1.363 . S
C3848 H3864 0.931 . S
C3849 C3848 1.370 . S
C3849 C3853 1.408 . S
C3850 C3848 1.363 . S
C3850 C3851 1.370 . S
C3850 C3854 1.524 . S
C3851 C3843 1.503 . S
C3851 C3850 1.370 . S
C3851 C3852 1.403 . S
C3852 C3851 1.403 . S
C3852 C3853 1.404 . S
C3852 C3855 1.539 . S
C3853 C3849 1.408 . S
C3853 C3852 1.404 . S
C3853 H3865 0.930 . S
C3854 C3850 1.524 . S
C3854 H3866 0.956 . S
C3854 H3867 0.961 . S
C3854 H3868 0.961 . S
C3855 C3852 1.539 . S
C3855 H3869 0.958 . S
C3855 H3870 0.961 . S
C3855 H3871 0.960 . S
H3856 C3840 0.931 . S
H3857 C3845 0.929 . S
H3858 C3846 0.960 . S
H3859 C3846 0.962 . S
H3860 C3846 0.960 . S
H3861 C3847 0.961 . S
H3862 C3847 0.961 . S
H3863 C3847 0.961 . S
H3864 C3848 0.931 . S
H3865 C3853 0.930 . S
H3866 C3854 0.956 . S
H3867 C3854 0.961 . S
H3868 C3854 0.961 . S
H3869 C3855 0.958 . S
H3870 C3855 0.961 . S
H3871 C3855 0.960 . S
C3872 C3873 1.391 . S
C3872 C3874 1.394 . S
C3872 H3888 0.931 . S
C3873 C3872 1.391 . S
C3873 C3877 1.376 . S
C3874 C3872 1.394 . S
C3874 C3875 1.369 . S
C3874 C3878 1.531 . S
C3875 C3874 1.369 . S
C3875 C3876 1.410 . S
C3875 C3883 1.503 . S
C3876 C3875 1.410 . S
C3876 C3877 1.392 . S
C3876 C3879 1.511 . S
C3877 C3873 1.376 . S
C3877 C3876 1.392 . S
C3877 H3889 0.929 . S
C3878 C3874 1.531 . S
C3878 H3890 0.960 . S
C3878 H3891 0.962 . S
C3878 H3892 0.960 . S
C3879 C3876 1.511 . S
C3879 H3893 0.961 . S
C3879 H3894 0.961 . S
C3879 H3895 0.961 . S
C3880 C3881 1.370 . S
C3880 C3882 1.363 . S
C3880 H3896 0.931 . S
C3881 C3880 1.370 . S
C3881 C3885 1.408 . S
C3882 C3880 1.363 . S
C3882 C3883 1.370 . S
C3882 C3886 1.524 . S
C3883 C3875 1.503 . S
C3883 C3882 1.370 . S
C3883 C3884 1.403 . S
C3884 C3883 1.403 . S
C3884 C3885 1.404 . S
C3884 C3887 1.539 . S
C3885 C3881 1.408 . S
C3885 C3884 1.404 . S
C3885 H3897 0.930 . S
C3886 C3882 1.524 . S
C3886 H3898 0.956 . S
C3886 H3899 0.961 . S
C3886 H3900 0.961 . S
C3887 C3884 1.539 . S
C3887 H3901 0.958 . S
C3887 H3902 0.961 . S
C3887 H3903 0.960 . S
H3888 C3872 0.931 . S
H3889 C3877 0.929 . S
H3890 C3878 0.960 . S
H3891 C3878 0.962 . S
H3892 C3878 0.960 . S
H3893 C3879 0.961 . S
H3894 C3879 0.961 . S
H3895 C3879 0.961 . S
H3896 C3880 0.931 . S
H3897 C3885 0.930 . S
H3898 C3886 0.956 . S
H3899 C3886 0.961 . S
H3900 C3886 0.961 . S
H3901 C3887 0.958 . S
H3902 C3887 0.961 . S
H3903 C3887 0.960 . S
C3904 C3905 1.391 . S
C3904 C3906 1.394 . S
C3904 H3920 0.931 . S
C3905 C3904 1.391 . S
C3905 C3909 1.376 . S
C3906 C3904 1.394 . S
C3906 C3907 1.369 . S
C3906 C3910 1.531 . S
C3907 C3906 1.369 . S
C3907 C3908 1.410 . S
C3907 C3915 1.503 . S
C3908 C3907 1.410 . S
C3908 C3909 1.392 . S
C3908 C3911 1.511 . S
C3909 C3905 1.376 . S
C3909 C3908 1.392 . S
C3909 H3921 0.929 . S
C3910 C3906 1.531 . S
C3910 H3922 0.960 . S
C3910 H3923 0.962 . S
C3910 H3924 0.960 . S
C3911 C3908 1.511 . S
C3911 H3925 0.961 . S
C3911 H3926 0.961 . S
C3911 H3927 0.961 . S
C3912 C3913 1.370 . S
C3912 C3914 1.363 . S
C3912 H3928 0.931 . S
C3913 C3912 1.370 . S
C3913 C3917 1.408 . S
C3914 C3912 1.363 . S
C3914 C3915 1.370 . S
C3914 C3918 1.524 . S
C3915 C3907 1.503 . S
C3915 C3914 1.370 . S
C3915 C3916 1.403 . S
C3916 C3915 1.403 . S
C3916 C3917 1.404 . S
C3916 C3919 1.539 . S
C3917 C3913 1.408 . S
C3917 C3916 1.404 . S
C3917 H3929 0.930 . S
C3918 C3914 1.524 . S
C3918 H3930 0.956 . S
C3918 H3931 0.961 . S
C3918 H3932 0.961 . S
C3919 C3916 1.539 . S
C3919 H3933 0.958 . S
C3919 H3934 0.961 . S
C3919 H3935 0.960 . S
H3920 C3904 0.931 . S
H3921 C3909 0.929 . S
H3922 C3910 0.960 . S
H3923 C3910 0.962 . S
H3924 C3910 0.960 . S
H3925 C3911 0.961 . S
H3926 C3911 0.961 . S
H3927 C3911 0.961 . S
H3928 C3912 0.931 . S
H3929 C3917 0.930 . S
H3930 C3918 0.956 . S
H3931 C3918 0.961 . S
H3932 C3918 0.961 . S
H3933 C3919 0.958 . S
H3934 C3919 0.961 . S
H3935 C3919 0.960 . S
C3936 C3937 1.391 . S
C3936 C3938 1.394 . S
C3936 H3952 0.931 . S
C3937 C3936 1.391 . S
C3937 C3941 1.376 . S
C3938 C3936 1.394 . S
C3938 C3939 1.369 . S
C3938 C3942 1.531 . S
C3939 C3938 1.369 . S
C3939 C3940 1.410 . S
C3939 C3947 1.503 . S
C3940 C3939 1.410 . S
C3940 C3941 1.392 . S
C3940 C3943 1.511 . S
C3941 C3937 1.376 . S
C3941 C3940 1.392 . S
C3941 H3953 0.929 . S
C3942 C3938 1.531 . S
C3942 H3954 0.960 . S
C3942 H3955 0.962 . S
C3942 H3956 0.960 . S
C3943 C3940 1.511 . S
C3943 H3957 0.961 . S
C3943 H3958 0.961 . S
C3943 H3959 0.961 . S
C3944 C3945 1.370 . S
C3944 C3946 1.363 . S
C3944 H3960 0.931 . S
C3945 C3944 1.370 . S
C3945 C3949 1.408 . S
C3946 C3944 1.363 . S
C3946 C3947 1.370 . S
C3946 C3950 1.524 . S
C3947 C3939 1.503 . S
C3947 C3946 1.370 . S
C3947 C3948 1.403 . S
C3948 C3947 1.403 . S
C3948 C3949 1.404 . S
C3948 C3951 1.539 . S
C3949 C3945 1.408 . S
C3949 C3948 1.404 . S
C3949 H3961 0.930 . S
C3950 C3946 1.524 . S
C3950 H3962 0.956 . S
C3950 H3963 0.961 . S
C3950 H3964 0.961 . S
C3951 C3948 1.539 . S
C3951 H3965 0.958 . S
C3951 H3966 0.961 . S
C3951 H3967 0.960 . S
H3952 C3936 0.931 . S
H3953 C3941 0.929 . S
H3954 C3942 0.960 . S
H3955 C3942 0.962 . S
H3956 C3942 0.960 . S
H3957 C3943 0.961 . S
H3958 C3943 0.961 . S
H3959 C3943 0.961 . S
H3960 C3944 0.931 . S
H3961 C3949 0.930 . S
H3962 C3950 0.956 . S
H3963 C3950 0.961 . S
H3964 C3950 0.961 . S
H3965 C3951 0.958 . S
H3966 C3951 0.961 . S
H3967 C3951 0.960 . S
C3968 C3969 1.391 . S
C3968 C3970 1.394 . S
C3968 H3984 0.931 . S
C3969 C3968 1.391 . S
C3969 C3973 1.376 . S
C3970 C3968 1.394 . S
C3970 C3971 1.369 . S
C3970 C3974 1.531 . S
C3971 C3970 1.369 . S
C3971 C3972 1.410 . S
C3971 C3979 1.503 . S
C3972 C3971 1.410 . S
C3972 C3973 1.392 . S
C3972 C3975 1.511 . S
C3973 C3969 1.376 . S
C3973 C3972 1.392 . S
C3973 H3985 0.929 . S
C3974 C3970 1.531 . S
C3974 H3986 0.960 . S
C3974 H3987 0.962 . S
C3974 H3988 0.960 . S
C3975 C3972 1.511 . S
C3975 H3989 0.961 . S
C3975 H3990 0.961 . S
C3975 H3991 0.961 . S
C3976 C3977 1.370 . S
C3976 C3978 1.363 . S
C3976 H3992 0.931 . S
C3977 C3976 1.370 . S
C3977 C3981 1.408 . S
C3978 C3976 1.363 . S
C3978 C3979 1.370 . S
C3978 C3982 1.524 . S
C3979 C3971 1.503 . S
C3979 C3978 1.370 . S
C3979 C3980 1.403 . S
C3980 C3979 1.403 . S
C3980 C3981 1.404 . S
C3980 C3983 1.539 . S
C3981 C3977 1.408 . S
C3981 C3980 1.404 . S
C3981 H3993 0.930 . S
C3982 C3978 1.524 . S
C3982 H3994 0.956 . S
C3982 H3995 0.961 . S
C3982 H3996 0.961 . S
C3983 C3980 1.539 . S
C3983 H3997 0.958 . S
C3983 H3998 0.961 . S
C3983 H3999 0.960 . S
H3984 C3968 0.931 . S
H3985 C3973 0.929 . S
H3986 C3974 0.960 . S
H3987 C3974 0.962 . S
H3988 C3974 0.960 . S
H3989 C3975 0.961 . S
H3990 C3975 0.961 . S
H3991 C3975 0.961 . S
H3992 C3976 0.931 . S
H3993 C3981 0.930 . S
H3994 C3982 0.956 . S
H3995 C3982 0.961 . S
H3996 C3982 0.961 . S
H3997 C3983 0.958 . S
H3998 C3983 0.961 . S
H3999 C3983 0.960 . S
C4000 C4001 1.391 . S
C4000 C4002 1.394 . S
C4000 H4016 0.931 . S
C4001 C4000 1.391 . S
C4001 C4005 1.376 . S
C4002 C4000 1.394 . S
C4002 C4003 1.369 . S
C4002 C4006 1.531 . S
C4003 C4002 1.369 . S
C4003 C4004 1.410 . S
C4003 C4011 1.503 . S
C4004 C4003 1.410 . S
C4004 C4005 1.392 . S
C4004 C4007 1.511 . S
C4005 C4001 1.376 . S
C4005 C4004 1.392 . S
C4005 H4017 0.929 . S
C4006 C4002 1.531 . S
C4006 H4018 0.960 . S
C4006 H4019 0.962 . S
C4006 H4020 0.960 . S
C4007 C4004 1.511 . S
C4007 H4021 0.961 . S
C4007 H4022 0.961 . S
C4007 H4023 0.961 . S
C4008 C4009 1.370 . S
C4008 C4010 1.363 . S
C4008 H4024 0.931 . S
C4009 C4008 1.370 . S
C4009 C4013 1.408 . S
C4010 C4008 1.363 . S
C4010 C4011 1.370 . S
C4010 C4014 1.524 . S
C4011 C4003 1.503 . S
C4011 C4010 1.370 . S
C4011 C4012 1.403 . S
C4012 C4011 1.403 . S
C4012 C4013 1.404 . S
C4012 C4015 1.539 . S
C4013 C4009 1.408 . S
C4013 C4012 1.404 . S
C4013 H4025 0.930 . S
C4014 C4010 1.524 . S
C4014 H4026 0.956 . S
C4014 H4027 0.961 . S
C4014 H4028 0.961 . S
C4015 C4012 1.539 . S
C4015 H4029 0.958 . S
C4015 H4030 0.961 . S
C4015 H4031 0.960 . S
H4016 C4000 0.931 . S
H4017 C4005 0.929 . S
H4018 C4006 0.960 . S
H4019 C4006 0.962 . S
H4020 C4006 0.960 . S
H4021 C4007 0.961 . S
H4022 C4007 0.961 . S
H4023 C4007 0.961 . S
H4024 C4008 0.931 . S
H4025 C4013 0.930 . S
H4026 C4014 0.956 . S
H4027 C4014 0.961 . S
H4028 C4014 0.961 . S
H4029 C4015 0.958 . S
H4030 C4015 0.961 . S
H4031 C4015 0.960 . S
C4032 C4033 1.391 . S
C4032 C4034 1.394 . S
C4032 H4048 0.931 . S
C4033 C4032 1.391 . S
C4033 C4037 1.376 . S
C4034 C4032 1.394 . S
C4034 C4035 1.369 . S
C4034 C4038 1.531 . S
C4035 C4034 1.369 . S
C4035 C4036 1.410 . S
C4035 C4043 1.503 . S
C4036 C4035 1.410 . S
C4036 C4037 1.392 . S
C4036 C4039 1.511 . S
C4037 C4033 1.376 . S
C4037 C4036 1.392 . S
C4037 H4049 0.929 . S
C4038 C4034 1.531 . S
C4038 H4050 0.960 . S
C4038 H4051 0.962 . S
C4038 H4052 0.960 . S
C4039 C4036 1.511 . S
C4039 H4053 0.961 . S
C4039 H4054 0.961 . S
C4039 H4055 0.961 . S
C4040 C4041 1.370 . S
C4040 C4042 1.363 . S
C4040 H4056 0.931 . S
C4041 C4040 1.370 . S
C4041 C4045 1.408 . S
C4042 C4040 1.363 . S
C4042 C4043 1.370 . S
C4042 C4046 1.524 . S
C4043 C4035 1.503 . S
C4043 C4042 1.370 . S
C4043 C4044 1.403 . S
C4044 C4043 1.403 . S
C4044 C4045 1.404 . S
C4044 C4047 1.539 . S
C4045 C4041 1.408 . S
C4045 C4044 1.404 . S
C4045 H4057 0.930 . S
C4046 C4042 1.524 . S
C4046 H4058 0.956 . S
C4046 H4059 0.961 . S
C4046 H4060 0.961 . S
C4047 C4044 1.539 . S
C4047 H4061 0.958 . S
C4047 H4062 0.961 . S
C4047 H4063 0.960 . S
H4048 C4032 0.931 . S
H4049 C4037 0.929 . S
H4050 C4038 0.960 . S
H4051 C4038 0.962 . S
H4052 C4038 0.960 . S
H4053 C4039 0.961 . S
H4054 C4039 0.961 . S
H4055 C4039 0.961 . S
H4056 C4040 0.931 . S
H4057 C4045 0.930 . S
H4058 C4046 0.956 . S
H4059 C4046 0.961 . S
H4060 C4046 0.961 . S
H4061 C4047 0.958 . S
H4062 C4047 0.961 . S
H4063 C4047 0.960 . S
C4064 C4065 1.391 . S
C4064 C4066 1.394 . S
C4064 H4080 0.931 . S
C4065 C4064 1.391 . S
C4065 C4069 1.376 . S
C4066 C4064 1.394 . S
C4066 C4067 1.369 . S
C4066 C4070 1.531 . S
C4067 C4066 1.369 . S
C4067 C4068 1.410 . S
C4067 C4075 1.503 . S
C4068 C4067 1.410 . S
C4068 C4069 1.392 . S
C4068 C4071 1.511 . S
C4069 C4065 1.376 . S
C4069 C4068 1.392 . S
C4069 H4081 0.929 . S
C4070 C4066 1.531 . S
C4070 H4082 0.960 . S
C4070 H4083 0.962 . S
C4070 H4084 0.960 . S
C4071 C4068 1.511 . S
C4071 H4085 0.961 . S
C4071 H4086 0.961 . S
C4071 H4087 0.961 . S
C4072 C4073 1.370 . S
C4072 C4074 1.363 . S
C4072 H4088 0.931 . S
C4073 C4072 1.370 . S
C4073 C4077 1.408 . S
C4074 C4072 1.363 . S
C4074 C4075 1.370 . S
C4074 C4078 1.524 . S
C4075 C4067 1.503 . S
C4075 C4074 1.370 . S
C4075 C4076 1.403 . S
C4076 C4075 1.403 . S
C4076 C4077 1.404 . S
C4076 C4079 1.539 . S
C4077 C4073 1.408 . S
C4077 C4076 1.404 . S
C4077 H4089 0.930 . S
C4078 C4074 1.524 . S
C4078 H4090 0.956 . S
C4078 H4091 0.961 . S
C4078 H4092 0.961 . S
C4079 C4076 1.539 . S
C4079 H4093 0.958 . S
C4079 H4094 0.961 . S
C4079 H4095 0.960 . S
H4080 C4064 0.931 . S
H4081 C4069 0.929 . S
H4082 C4070 0.960 . S
H4083 C4070 0.962 . S
H4084 C4070 0.960 . S
H4085 C4071 0.961 . S
H4086 C4071 0.961 . S
H4087 C4071 0.961 . S
H4088 C4072 0.931 . S
H4089 C4077 0.930 . S
H4090 C4078 0.956 . S
H4091 C4078 0.961 . S
H4092 C4078 0.961 . S
H4093 C4079 0.958 . S
H4094 C4079 0.961 . S
H4095 C4079 0.960 . S
C4096 C4097 1.391 . S
C4096 C4098 1.394 . S
C4096 H4112 0.931 . S
C4097 C4096 1.391 . S
C4097 C4101 1.376 . S
C4098 C4096 1.394 . S
C4098 C4099 1.369 . S
C4098 C4102 1.531 . S
C4099 C4098 1.369 . S
C4099 C4100 1.410 . S
C4099 C4107 1.503 . S
C4100 C4099 1.410 . S
C4100 C4101 1.392 . S
C4100 C4103 1.511 . S
C4101 C4097 1.376 . S
C4101 C4100 1.392 . S
C4101 H4113 0.929 . S
C4102 C4098 1.531 . S
C4102 H4114 0.960 . S
C4102 H4115 0.962 . S
C4102 H4116 0.960 . S
C4103 C4100 1.511 . S
C4103 H4117 0.961 . S
C4103 H4118 0.961 . S
C4103 H4119 0.961 . S
C4104 C4105 1.370 . S
C4104 C4106 1.363 . S
C4104 H4120 0.931 . S
C4105 C4104 1.370 . S
C4105 C4109 1.408 . S
C4106 C4104 1.363 . S
C4106 C4107 1.370 . S
C4106 C4110 1.524 . S
C4107 C4099 1.503 . S
C4107 C4106 1.370 . S
C4107 C4108 1.403 . S
C4108 C4107 1.403 . S
C4108 C4109 1.404 . S
C4108 C4111 1.539 . S
C4109 C4105 1.408 . S
C4109 C4108 1.404 . S
C4109 H4121 0.930 . S
C4110 C4106 1.524 . S
C4110 H4122 0.956 . S
C4110 H4123 0.961 . S
C4110 H4124 0.961 . S
C4111 C4108 1.539 . S
C4111 H4125 0.958 . S
C4111 H4126 0.961 . S
C4111 H4127 0.960 . S
H4112 C4096 0.931 . S
H4113 C4101 0.929 . S
H4114 C4102 0.960 . S
H4115 C4102 0.962 . S
H4116 C4102 0.960 . S
H4117 C4103 0.961 . S
H4118 C4103 0.961 . S
H4119 C4103 0.961 . S
H4120 C4104 0.931 . S
H4121 C4109 0.930 . S
H4122 C4110 0.956 . S
H4123 C4110 0.961 . S
H4124 C4110 0.961 . S
H4125 C4111 0.958 . S
H4126 C4111 0.961 . S
H4127 C4111 0.960 . S
C4128 C4129 1.391 . S
C4128 C4130 1.394 . S
C4128 H4144 0.931 . S
C4129 C4128 1.391 . S
C4129 C4133 1.376 . S
C4130 C4128 1.394 . S
C4130 C4131 1.369 . S
C4130 C4134 1.531 . S
C4131 C4130 1.369 . S
C4131 C4132 1.410 . S
C4131 C4139 1.503 . S
C4132 C4131 1.410 . S
C4132 C4133 1.392 . S
C4132 C4135 1.511 . S
C4133 C4129 1.376 . S
C4133 C4132 1.392 . S
C4133 H4145 0.929 . S
C4134 C4130 1.531 . S
C4134 H4146 0.960 . S
C4134 H4147 0.962 . S
C4134 H4148 0.960 . S
C4135 C4132 1.511 . S
C4135 H4149 0.961 . S
C4135 H4150 0.961 . S
C4135 H4151 0.961 . S
C4136 C4137 1.370 . S
C4136 C4138 1.363 . S
C4136 H4152 0.931 . S
C4137 C4136 1.370 . S
C4137 C4141 1.408 . S
C4138 C4136 1.363 . S
C4138 C4139 1.370 . S
C4138 C4142 1.524 . S
C4139 C4131 1.503 . S
C4139 C4138 1.370 . S
C4139 C4140 1.403 . S
C4140 C4139 1.403 . S
C4140 C4141 1.404 . S
C4140 C4143 1.539 . S
C4141 C4137 1.408 . S
C4141 C4140 1.404 . S
C4141 H4153 0.930 . S
C4142 C4138 1.524 . S
C4142 H4154 0.956 . S
C4142 H4155 0.961 . S
C4142 H4156 0.961 . S
C4143 C4140 1.539 . S
C4143 H4157 0.958 . S
C4143 H4158 0.961 . S
C4143 H4159 0.960 . S
H4144 C4128 0.931 . S
H4145 C4133 0.929 . S
H4146 C4134 0.960 . S
H4147 C4134 0.962 . S
H4148 C4134 0.960 . S
H4149 C4135 0.961 . S
H4150 C4135 0.961 . S
H4151 C4135 0.961 . S
H4152 C4136 0.931 . S
H4153 C4141 0.930 . S
H4154 C4142 0.956 . S
H4155 C4142 0.961 . S
H4156 C4142 0.961 . S
H4157 C4143 0.958 . S
H4158 C4143 0.961 . S
H4159 C4143 0.960 . S
C4160 C4161 1.391 . S
C4160 C4162 1.394 . S
C4160 H4176 0.931 . S
C4161 C4160 1.391 . S
C4161 C4165 1.376 . S
C4162 C4160 1.394 . S
C4162 C4163 1.369 . S
C4162 C4166 1.531 . S
C4163 C4162 1.369 . S
C4163 C4164 1.410 . S
C4163 C4171 1.503 . S
C4164 C4163 1.410 . S
C4164 C4165 1.392 . S
C4164 C4167 1.511 . S
C4165 C4161 1.376 . S
C4165 C4164 1.392 . S
C4165 H4177 0.929 . S
C4166 C4162 1.531 . S
C4166 H4178 0.960 . S
C4166 H4179 0.962 . S
C4166 H4180 0.960 . S
C4167 C4164 1.511 . S
C4167 H4181 0.961 . S
C4167 H4182 0.961 . S
C4167 H4183 0.961 . S
C4168 C4169 1.370 . S
C4168 C4170 1.363 . S
C4168 H4184 0.931 . S
C4169 C4168 1.370 . S
C4169 C4173 1.408 . S
C4170 C4168 1.363 . S
C4170 C4171 1.370 . S
C4170 C4174 1.524 . S
C4171 C4163 1.503 . S
C4171 C4170 1.370 . S
C4171 C4172 1.403 . S
C4172 C4171 1.403 . S
C4172 C4173 1.404 . S
C4172 C4175 1.539 . S
C4173 C4169 1.408 . S
C4173 C4172 1.404 . S
C4173 H4185 0.930 . S
C4174 C4170 1.524 . S
C4174 H4186 0.956 . S
C4174 H4187 0.961 . S
C4174 H4188 0.961 . S
C4175 C4172 1.539 . S
C4175 H4189 0.958 . S
C4175 H4190 0.961 . S
C4175 H4191 0.960 . S
H4176 C4160 0.931 . S
H4177 C4165 0.929 . S
H4178 C4166 0.960 . S
H4179 C4166 0.962 . S
H4180 C4166 0.960 . S
H4181 C4167 0.961 . S
H4182 C4167 0.961 . S
H4183 C4167 0.961 . S
H4184 C4168 0.931 . S
H4185 C4173 0.930 . S
H4186 C4174 0.956 . S
H4187 C4174 0.961 . S
H4188 C4174 0.961 . S
H4189 C4175 0.958 . S
H4190 C4175 0.961 . S
H4191 C4175 0.960 . S
C4192 C4193 1.391 . S
C4192 C4194 1.394 . S
C4192 H4208 0.931 . S
C4193 C4192 1.391 . S
C4193 C4197 1.376 . S
C4194 C4192 1.394 . S
C4194 C4195 1.369 . S
C4194 C4198 1.531 . S
C4195 C4194 1.369 . S
C4195 C4196 1.410 . S
C4195 C4203 1.503 . S
C4196 C4195 1.410 . S
C4196 C4197 1.392 . S
C4196 C4199 1.511 . S
C4197 C4193 1.376 . S
C4197 C4196 1.392 . S
C4197 H4209 0.929 . S
C4198 C4194 1.531 . S
C4198 H4210 0.960 . S
C4198 H4211 0.962 . S
C4198 H4212 0.960 . S
C4199 C4196 1.511 . S
C4199 H4213 0.961 . S
C4199 H4214 0.961 . S
C4199 H4215 0.961 . S
C4200 C4201 1.370 . S
C4200 C4202 1.363 . S
C4200 H4216 0.931 . S
C4201 C4200 1.370 . S
C4201 C4205 1.408 . S
C4202 C4200 1.363 . S
C4202 C4203 1.370 . S
C4202 C4206 1.524 . S
C4203 C4195 1.503 . S
C4203 C4202 1.370 . S
C4203 C4204 1.403 . S
C4204 C4203 1.403 . S
C4204 C4205 1.404 . S
C4204 C4207 1.539 . S
C4205 C4201 1.408 . S
C4205 C4204 1.404 . S
C4205 H4217 0.930 . S
C4206 C4202 1.524 . S
C4206 H4218 0.956 . S
C4206 H4219 0.961 . S
C4206 H4220 0.961 . S
C4207 C4204 1.539 . S
C4207 H4221 0.958 . S
C4207 H4222 0.961 . S
C4207 H4223 0.960 . S
H4208 C4192 0.931 . S
H4209 C4197 0.929 . S
H4210 C4198 0.960 . S
H4211 C4198 0.962 . S
H4212 C4198 0.960 . S
H4213 C4199 0.961 . S
H4214 C4199 0.961 . S
H4215 C4199 0.961 . S
H4216 C4200 0.931 . S
H4217 C4205 0.930 . S
H4218 C4206 0.956 . S
H4219 C4206 0.961 . S
H4220 C4206 0.961 . S
H4221 C4207 0.958 . S
H4222 C4207 0.961 . S
H4223 C4207 0.960 . S
C4224 C4225 1.391 . S
C4224 C4226 1.394 . S
C4224 H4240 0.931 . S
C4225 C4224 1.391 . S
C4225 C4229 1.376 . S
C4226 C4224 1.394 . S
C4226 C4227 1.369 . S
C4226 C4230 1.531 . S
C4227 C4226 1.369 . S
C4227 C4228 1.410 . S
C4227 C4235 1.503 . S
C4228 C4227 1.410 . S
C4228 C4229 1.392 . S
C4228 C4231 1.511 . S
C4229 C4225 1.376 . S
C4229 C4228 1.392 . S
C4229 H4241 0.929 . S
C4230 C4226 1.531 . S
C4230 H4242 0.960 . S
C4230 H4243 0.962 . S
C4230 H4244 0.960 . S
C4231 C4228 1.511 . S
C4231 H4245 0.961 . S
C4231 H4246 0.961 . S
C4231 H4247 0.961 . S
C4232 C4233 1.370 . S
C4232 C4234 1.363 . S
C4232 H4248 0.931 . S
C4233 C4232 1.370 . S
C4233 C4237 1.408 . S
C4234 C4232 1.363 . S
C4234 C4235 1.370 . S
C4234 C4238 1.524 . S
C4235 C4227 1.503 . S
C4235 C4234 1.370 . S
C4235 C4236 1.403 . S
C4236 C4235 1.403 . S
C4236 C4237 1.404 . S
C4236 C4239 1.539 . S
C4237 C4233 1.408 . S
C4237 C4236 1.404 . S
C4237 H4249 0.930 . S
C4238 C4234 1.524 . S
C4238 H4250 0.956 . S
C4238 H4251 0.961 . S
C4238 H4252 0.961 . S
C4239 C4236 1.539 . S
C4239 H4253 0.958 . S
C4239 H4254 0.961 . S
C4239 H4255 0.960 . S
H4240 C4224 0.931 . S
H4241 C4229 0.929 . S
H4242 C4230 0.960 . S
H4243 C4230 0.962 . S
H4244 C4230 0.960 . S
H4245 C4231 0.961 . S
H4246 C4231 0.961 . S
H4247 C4231 0.961 . S
H4248 C4232 0.931 . S
H4249 C4237 0.930 . S
H4250 C4238 0.956 . S
H4251 C4238 0.961 . S
H4252 C4238 0.961 . S
H4253 C4239 0.958 . S
H4254 C4239 0.961 . S
H4255 C4239 0.960 . S
C4256 C4257 1.391 . S
C4256 C4258 1.394 . S
C4256 H4272 0.931 . S
C4257 C4256 1.391 . S
C4257 C4261 1.376 . S
C4258 C4256 1.394 . S
C4258 C4259 1.369 . S
C4258 C4262 1.531 . S
C4259 C4258 1.369 . S
C4259 C4260 1.410 . S
C4259 C4267 1.503 . S
C4260 C4259 1.410 . S
C4260 C4261 1.392 . S
C4260 C4263 1.511 . S
C4261 C4257 1.376 . S
C4261 C4260 1.392 . S
C4261 H4273 0.929 . S
C4262 C4258 1.531 . S
C4262 H4274 0.960 . S
C4262 H4275 0.962 . S
C4262 H4276 0.960 . S
C4263 C4260 1.511 . S
C4263 H4277 0.961 . S
C4263 H4278 0.961 . S
C4263 H4279 0.961 . S
C4264 C4265 1.370 . S
C4264 C4266 1.363 . S
C4264 H4280 0.931 . S
C4265 C4264 1.370 . S
C4265 C4269 1.408 . S
C4266 C4264 1.363 . S
C4266 C4267 1.370 . S
C4266 C4270 1.524 . S
C4267 C4259 1.503 . S
C4267 C4266 1.370 . S
C4267 C4268 1.403 . S
C4268 C4267 1.403 . S
C4268 C4269 1.404 . S
C4268 C4271 1.539 . S
C4269 C4265 1.408 . S
C4269 C4268 1.404 . S
C4269 H4281 0.930 . S
C4270 C4266 1.524 . S
C4270 H4282 0.956 . S
C4270 H4283 0.961 . S
C4270 H4284 0.961 . S
C4271 C4268 1.539 . S
C4271 H4285 0.958 . S
C4271 H4286 0.961 . S
C4271 H4287 0.960 . S
H4272 C4256 0.931 . S
H4273 C4261 0.929 . S
H4274 C4262 0.960 . S
H4275 C4262 0.962 . S
H4276 C4262 0.960 . S
H4277 C4263 0.961 . S
H4278 C4263 0.961 . S
H4279 C4263 0.961 . S
H4280 C4264 0.931 . S
H4281 C4269 0.930 . S
H4282 C4270 0.956 . S
H4283 C4270 0.961 . S
H4284 C4270 0.961 . S
H4285 C4271 0.958 . S
H4286 C4271 0.961 . S
H4287 C4271 0.960 . S
C4288 C4289 1.391 . S
C4288 C4290 1.394 . S
C4288 H4304 0.931 . S
C4289 C4288 1.391 . S
C4289 C4293 1.376 . S
C4290 C4288 1.394 . S
C4290 C4291 1.369 . S
C4290 C4294 1.531 . S
C4291 C4290 1.369 . S
C4291 C4292 1.410 . S
C4291 C4299 1.503 . S
C4292 C4291 1.410 . S
C4292 C4293 1.392 . S
C4292 C4295 1.511 . S
C4293 C4289 1.376 . S
C4293 C4292 1.392 . S
C4293 H4305 0.929 . S
C4294 C4290 1.531 . S
C4294 H4306 0.960 . S
C4294 H4307 0.962 . S
C4294 H4308 0.960 . S
C4295 C4292 1.511 . S
C4295 H4309 0.961 . S
C4295 H4310 0.961 . S
C4295 H4311 0.961 . S
C4296 C4297 1.370 . S
C4296 C4298 1.363 . S
C4296 H4312 0.931 . S
C4297 C4296 1.370 . S
C4297 C4301 1.408 . S
C4298 C4296 1.363 . S
C4298 C4299 1.370 . S
C4298 C4302 1.524 . S
C4299 C4291 1.503 . S
C4299 C4298 1.370 . S
C4299 C4300 1.403 . S
C4300 C4299 1.403 . S
C4300 C4301 1.404 . S
C4300 C4303 1.539 . S
C4301 C4297 1.408 . S
C4301 C4300 1.404 . S
C4301 H4313 0.930 . S
C4302 C4298 1.524 . S
C4302 H4314 0.956 . S
C4302 H4315 0.961 . S
C4302 H4316 0.961 . S
C4303 C4300 1.539 . S
C4303 H4317 0.958 . S
C4303 H4318 0.961 . S
C4303 H4319 0.960 . S
H4304 C4288 0.931 . S
H4305 C4293 0.929 . S
H4306 C4294 0.960 . S
H4307 C4294 0.962 . S
H4308 C4294 0.960 . S
H4309 C4295 0.961 . S
H4310 C4295 0.961 . S
H4311 C4295 0.961 . S
H4312 C4296 0.931 . S
H4313 C4301 0.930 . S
H4314 C4302 0.956 . S
H4315 C4302 0.961 . S
H4316 C4302 0.961 . S
H4317 C4303 0.958 . S
H4318 C4303 0.961 . S
H4319 C4303 0.960 . S
C4320 C4321 1.391 . S
C4320 C4322 1.394 . S
C4320 H4336 0.931 . S
C4321 C4320 1.391 . S
C4321 C4325 1.376 . S
C4322 C4320 1.394 . S
C4322 C4323 1.369 . S
C4322 C4326 1.531 . S
C4323 C4322 1.369 . S
C4323 C4324 1.410 . S
C4323 C4331 1.503 . S
C4324 C4323 1.410 . S
C4324 C4325 1.392 . S
C4324 C4327 1.511 . S
C4325 C4321 1.376 . S
C4325 C4324 1.392 . S
C4325 H4337 0.929 . S
C4326 C4322 1.531 . S
C4326 H4338 0.960 . S
C4326 H4339 0.962 . S
C4326 H4340 0.960 . S
C4327 C4324 1.511 . S
C4327 H4341 0.961 . S
C4327 H4342 0.961 . S
C4327 H4343 0.961 . S
C4328 C4329 1.370 . S
C4328 C4330 1.363 . S
C4328 H4344 0.931 . S
C4329 C4328 1.370 . S
C4329 C4333 1.408 . S
C4330 C4328 1.363 . S
C4330 C4331 1.370 . S
C4330 C4334 1.524 . S
C4331 C4323 1.503 . S
C4331 C4330 1.370 . S
C4331 C4332 1.403 . S
C4332 C4331 1.403 . S
C4332 C4333 1.404 . S
C4332 C4335 1.539 . S
C4333 C4329 1.408 . S
C4333 C4332 1.404 . S
C4333 H4345 0.930 . S
C4334 C4330 1.524 . S
C4334 H4346 0.956 . S
C4334 H4347 0.961 . S
C4334 H4348 0.961 . S
C4335 C4332 1.539 . S
C4335 H4349 0.958 . S
C4335 H4350 0.961 . S
C4335 H4351 0.960 . S
H4336 C4320 0.931 . S
H4337 C4325 0.929 . S
H4338 C4326 0.960 . S
H4339 C4326 0.962 . S
H4340 C4326 0.960 . S
H4341 C4327 0.961 . S
H4342 C4327 0.961 . S
H4343 C4327 0.961 . S
H4344 C4328 0.931 . S
H4345 C4333 0.930 . S
H4346 C4334 0.956 . S
H4347 C4334 0.961 . S
H4348 C4334 0.961 . S
H4349 C4335 0.958 . S
H4350 C4335 0.961 . S
H4351 C4335 0.960 . S
C4352 C4353 1.391 . S
C4352 C4354 1.394 . S
C4352 H4368 0.931 . S
C4353 C4352 1.391 . S
C4353 C4357 1.376 . S
C4354 C4352 1.394 . S
C4354 C4355 1.369 . S
C4354 C4358 1.531 . S
C4355 C4354 1.369 . S
C4355 C4356 1.410 . S
C4355 C4363 1.503 . S
C4356 C4355 1.410 . S
C4356 C4357 1.392 . S
C4356 C4359 1.511 . S
C4357 C4353 1.376 . S
C4357 C4356 1.392 . S
C4357 H4369 0.929 . S
C4358 C4354 1.531 . S
C4358 H4370 0.960 . S
C4358 H4371 0.962 . S
C4358 H4372 0.960 . S
C4359 C4356 1.511 . S
C4359 H4373 0.961 . S
C4359 H4374 0.961 . S
C4359 H4375 0.961 . S
C4360 C4361 1.370 . S
C4360 C4362 1.363 . S
C4360 H4376 0.931 . S
C4361 C4360 1.370 . S
C4361 C4365 1.408 . S
C4362 C4360 1.363 . S
C4362 C4363 1.370 . S
C4362 C4366 1.524 . S
C4363 C4355 1.503 . S
C4363 C4362 1.370 . S
C4363 C4364 1.403 . S
C4364 C4363 1.403 . S
C4364 C4365 1.404 . S
C4364 C4367 1.539 . S
C4365 C4361 1.408 . S
C4365 C4364 1.404 . S
C4365 H4377 0.930 . S
C4366 C4362 1.524 . S
C4366 H4378 0.956 . S
C4366 H4379 0.961 . S
C4366 H4380 0.961 . S
C4367 C4364 1.539 . S
C4367 H4381 0.958 . S
C4367 H4382 0.961 . S
C4367 H4383 0.960 . S
H4368 C4352 0.931 . S
H4369 C4357 0.929 . S
H4370 C4358 0.960 . S
H4371 C4358 0.962 . S
H4372 C4358 0.960 . S
H4373 C4359 0.961 . S
H4374 C4359 0.961 . S
H4375 C4359 0.961 . S
H4376 C4360 0.931 . S
H4377 C4365 0.930 . S
H4378 C4366 0.956 . S
H4379 C4366 0.961 . S
H4380 C4366 0.961 . S
H4381 C4367 0.958 . S
H4382 C4367 0.961 . S
H4383 C4367 0.960 . S
C4384 C4385 1.391 . S
C4384 C4386 1.394 . S
C4384 H4400 0.931 . S
C4385 C4384 1.391 . S
C4385 C4389 1.376 . S
C4386 C4384 1.394 . S
C4386 C4387 1.369 . S
C4386 C4390 1.531 . S
C4387 C4386 1.369 . S
C4387 C4388 1.410 . S
C4387 C4395 1.503 . S
C4388 C4387 1.410 . S
C4388 C4389 1.392 . S
C4388 C4391 1.511 . S
C4389 C4385 1.376 . S
C4389 C4388 1.392 . S
C4389 H4401 0.929 . S
C4390 C4386 1.531 . S
C4390 H4402 0.960 . S
C4390 H4403 0.962 . S
C4390 H4404 0.960 . S
C4391 C4388 1.511 . S
C4391 H4405 0.961 . S
C4391 H4406 0.961 . S
C4391 H4407 0.961 . S
C4392 C4393 1.370 . S
C4392 C4394 1.363 . S
C4392 H4408 0.931 . S
C4393 C4392 1.370 . S
C4393 C4397 1.408 . S
C4394 C4392 1.363 . S
C4394 C4395 1.370 . S
C4394 C4398 1.524 . S
C4395 C4387 1.503 . S
C4395 C4394 1.370 . S
C4395 C4396 1.403 . S
C4396 C4395 1.403 . S
C4396 C4397 1.404 . S
C4396 C4399 1.539 . S
C4397 C4393 1.408 . S
C4397 C4396 1.404 . S
C4397 H4409 0.930 . S
C4398 C4394 1.524 . S
C4398 H4410 0.956 . S
C4398 H4411 0.961 . S
C4398 H4412 0.961 . S
C4399 C4396 1.539 . S
C4399 H4413 0.958 . S
C4399 H4414 0.961 . S
C4399 H4415 0.960 . S
H4400 C4384 0.931 . S
H4401 C4389 0.929 . S
H4402 C4390 0.960 . S
H4403 C4390 0.962 . S
H4404 C4390 0.960 . S
H4405 C4391 0.961 . S
H4406 C4391 0.961 . S
H4407 C4391 0.961 . S
H4408 C4392 0.931 . S
H4409 C4397 0.930 . S
H4410 C4398 0.956 . S
H4411 C4398 0.961 . S
H4412 C4398 0.961 . S
H4413 C4399 0.958 . S
H4414 C4399 0.961 . S
H4415 C4399 0.960 . S
C4416 C4417 1.391 . S
C4416 C4418 1.394 . S
C4416 H4432 0.931 . S
C4417 C4416 1.391 . S
C4417 C4421 1.376 . S
C4418 C4416 1.394 . S
C4418 C4419 1.369 . S
C4418 C4422 1.531 . S
C4419 C4418 1.369 . S
C4419 C4420 1.410 . S
C4419 C4427 1.503 1_455 S
C4420 C4419 1.410 . S
C4420 C4421 1.392 . S
C4420 C4423 1.511 . S
C4421 C4417 1.376 . S
C4421 C4420 1.392 . S
C4421 H4433 0.929 . S
C4422 C4418 1.531 . S
C4422 H4434 0.960 1_455 S
C4422 H4435 0.962 . S
C4422 H4436 0.960 . S
C4423 C4420 1.511 . S
C4423 H4437 0.961 . S
C4423 H4438 0.961 1_455 S
C4423 H4439 0.961 . S
C4424 C4425 1.370 . S
C4424 C4426 1.363 . S
C4424 H4440 0.931 . S
C4425 C4424 1.370 . S
C4425 C4429 1.408 . S
C4426 C4424 1.363 . S
C4426 C4427 1.370 . S
C4426 C4430 1.524 . S
C4427 C4419 1.503 1_655 S
C4427 C4426 1.370 . S
C4427 C4428 1.403 . S
C4428 C4427 1.403 . S
C4428 C4429 1.404 . S
C4428 C4431 1.539 . S
C4429 C4425 1.408 . S
C4429 C4428 1.404 . S
C4429 H4441 0.930 . S
C4430 C4426 1.524 . S
C4430 H4442 0.982 . S
C4430 H4443 0.919 1_655 S
C4430 H4444 0.961 . S
C4431 C4428 1.539 . S
C4431 H4445 0.958 . S
C4431 H4446 0.961 . S
C4431 H4447 0.967 . S
H4432 C4416 0.931 . S
H4433 C4421 0.929 . S
H4434 C4422 0.960 1_655 S
H4435 C4422 0.962 . S
H4436 C4422 0.960 . S
H4437 C4423 0.961 . S
H4438 C4423 0.961 1_655 S
H4439 C4423 0.961 . S
H4440 C4424 0.931 . S
H4441 C4429 0.930 . S
H4442 C4430 0.982 . S
H4443 C4430 0.919 1_455 S
H4444 C4430 0.961 . S
H4445 C4431 0.958 . S
H4446 C4431 0.961 . S
H4447 C4431 0.967 . S
C4448 C4449 1.391 . S
C4448 C4450 1.394 . S
C4448 H4464 0.931 . S
C4449 C4448 1.391 . S
C4449 C4453 1.376 . S
C4450 C4448 1.394 . S
C4450 C4451 1.369 . S
C4450 C4454 1.531 . S
C4451 C4450 1.369 . S
C4451 C4452 1.410 . S
C4451 C4459 1.503 1_565 S
C4452 C4451 1.410 . S
C4452 C4453 1.392 . S
C4452 C4455 1.511 . S
C4453 C4449 1.376 . S
C4453 C4452 1.392 . S
C4453 H4465 0.929 . S
C4454 C4450 1.531 . S
C4454 H4466 0.960 1_565 S
C4454 H4467 0.962 . S
C4454 H4468 0.960 . S
C4455 C4452 1.511 . S
C4455 H4469 0.961 . S
C4455 H4470 0.961 1_565 S
C4455 H4471 0.961 . S
C4456 C4457 1.370 . S
C4456 C4458 1.363 . S
C4456 H4472 0.931 . S
C4457 C4456 1.370 . S
C4457 C4461 1.408 . S
C4458 C4456 1.363 . S
C4458 C4459 1.370 . S
C4458 C4462 1.524 . S
C4459 C4451 1.503 1_545 S
C4459 C4458 1.370 . S
C4459 C4460 1.403 . S
C4460 C4459 1.403 . S
C4460 C4461 1.404 . S
C4460 C4463 1.539 . S
C4461 C4457 1.408 . S
C4461 C4460 1.404 . S
C4461 H4473 0.930 . S
C4462 C4458 1.524 . S
C4462 H4474 0.982 . S
C4462 H4475 0.919 1_545 S
C4462 H4476 0.961 . S
C4463 C4460 1.539 . S
C4463 H4477 0.958 . S
C4463 H4478 0.961 . S
C4463 H4479 0.967 . S
H4464 C4448 0.931 . S
H4465 C4453 0.929 . S
H4466 C4454 0.960 1_545 S
H4467 C4454 0.962 . S
H4468 C4454 0.960 . S
H4469 C4455 0.961 . S
H4470 C4455 0.961 1_545 S
H4471 C4455 0.961 . S
H4472 C4456 0.931 . S
H4473 C4461 0.930 . S
H4474 C4462 0.982 . S
H4475 C4462 0.919 1_565 S
H4476 C4462 0.961 . S
H4477 C4463 0.958 . S
H4478 C4463 0.961 . S
H4479 C4463 0.967 . S
C4480 C4481 1.391 . S
C4480 C4482 1.394 . S
C4480 H4496 0.931 . S
C4481 C4480 1.391 . S
C4481 C4485 1.376 . S
C4482 C4480 1.394 . S
C4482 C4483 1.369 . S
C4482 C4486 1.531 . S
C4483 C4482 1.369 . S
C4483 C4484 1.410 . S
C4483 C4491 1.503 1_655 S
C4484 C4483 1.410 . S
C4484 C4485 1.392 . S
C4484 C4487 1.511 . S
C4485 C4481 1.376 . S
C4485 C4484 1.392 . S
C4485 H4497 0.929 . S
C4486 C4482 1.531 . S
C4486 H4498 0.960 1_655 S
C4486 H4499 0.962 . S
C4486 H4500 0.960 . S
C4487 C4484 1.511 . S
C4487 H4501 0.961 . S
C4487 H4502 0.961 1_655 S
C4487 H4503 0.961 . S
C4488 C4489 1.370 . S
C4488 C4490 1.363 . S
C4488 H4504 0.931 . S
C4489 C4488 1.370 . S
C4489 C4493 1.408 . S
C4490 C4488 1.363 . S
C4490 C4491 1.370 . S
C4490 C4494 1.524 . S
C4491 C4483 1.503 1_455 S
C4491 C4490 1.370 . S
C4491 C4492 1.403 . S
C4492 C4491 1.403 . S
C4492 C4493 1.404 . S
C4492 C4495 1.539 . S
C4493 C4489 1.408 . S
C4493 C4492 1.404 . S
C4493 H4505 0.930 . S
C4494 C4490 1.524 . S
C4494 H4506 0.982 . S
C4494 H4507 0.919 1_455 S
C4494 H4508 0.961 . S
C4495 C4492 1.539 . S
C4495 H4509 0.958 . S
C4495 H4510 0.961 . S
C4495 H4511 0.967 . S
H4496 C4480 0.931 . S
H4497 C4485 0.929 . S
H4498 C4486 0.960 1_455 S
H4499 C4486 0.962 . S
H4500 C4486 0.960 . S
H4501 C4487 0.961 . S
H4502 C4487 0.961 1_455 S
H4503 C4487 0.961 . S
H4504 C4488 0.931 . S
H4505 C4493 0.930 . S
H4506 C4494 0.982 . S
H4507 C4494 0.919 1_655 S
H4508 C4494 0.961 . S
H4509 C4495 0.958 . S
H4510 C4495 0.961 . S
H4511 C4495 0.967 . S
C4512 C4513 1.391 . S
C4512 C4514 1.394 . S
C4512 H4528 0.931 . S
C4513 C4512 1.391 . S
C4513 C4517 1.376 . S
C4514 C4512 1.394 . S
C4514 C4515 1.369 . S
C4514 C4518 1.531 . S
C4515 C4514 1.369 . S
C4515 C4516 1.410 . S
C4515 C4523 1.503 1_545 S
C4516 C4515 1.410 . S
C4516 C4517 1.392 . S
C4516 C4519 1.511 . S
C4517 C4513 1.376 . S
C4517 C4516 1.392 . S
C4517 H4529 0.929 . S
C4518 C4514 1.531 . S
C4518 H4530 0.960 1_545 S
C4518 H4531 0.962 . S
C4518 H4532 0.960 . S
C4519 C4516 1.511 . S
C4519 H4533 0.961 . S
C4519 H4534 0.961 1_545 S
C4519 H4535 0.961 . S
C4520 C4521 1.370 . S
C4520 C4522 1.363 . S
C4520 H4536 0.931 . S
C4521 C4520 1.370 . S
C4521 C4525 1.408 . S
C4522 C4520 1.363 . S
C4522 C4523 1.370 . S
C4522 C4526 1.524 . S
C4523 C4515 1.503 1_565 S
C4523 C4522 1.370 . S
C4523 C4524 1.403 . S
C4524 C4523 1.403 . S
C4524 C4525 1.404 . S
C4524 C4527 1.539 . S
C4525 C4521 1.408 . S
C4525 C4524 1.404 . S
C4525 H4537 0.930 . S
C4526 C4522 1.524 . S
C4526 H4538 0.982 . S
C4526 H4539 0.919 1_565 S
C4526 H4540 0.961 . S
C4527 C4524 1.539 . S
C4527 H4541 0.958 . S
C4527 H4542 0.961 . S
C4527 H4543 0.967 . S
H4528 C4512 0.931 . S
H4529 C4517 0.929 . S
H4530 C4518 0.960 1_565 S
H4531 C4518 0.962 . S
H4532 C4518 0.960 . S
H4533 C4519 0.961 . S
H4534 C4519 0.961 1_565 S
H4535 C4519 0.961 . S
H4536 C4520 0.931 . S
H4537 C4525 0.930 . S
H4538 C4526 0.982 . S
H4539 C4526 0.919 1_545 S
H4540 C4526 0.961 . S
H4541 C4527 0.958 . S
H4542 C4527 0.961 . S
H4543 C4527 0.967 . S
C4544 C4545 1.391 . S
C4544 C4546 1.394 . S
C4544 H4560 0.931 . S
C4545 C4544 1.391 . S
C4545 C4549 1.376 . S
C4546 C4544 1.394 . S
C4546 C4547 1.369 . S
C4546 C4550 1.531 . S
C4547 C4546 1.369 . S
C4547 C4548 1.410 . S
C4547 C4555 1.503 1_455 S
C4548 C4547 1.410 . S
C4548 C4549 1.392 . S
C4548 C4551 1.511 . S
C4549 C4545 1.376 . S
C4549 C4548 1.392 . S
C4549 H4561 0.929 . S
C4550 C4546 1.531 . S
C4550 H4562 0.960 1_455 S
C4550 H4563 0.962 . S
C4550 H4564 0.960 . S
C4551 C4548 1.511 . S
C4551 H4565 0.961 . S
C4551 H4566 0.961 1_455 S
C4551 H4567 0.961 . S
C4552 C4553 1.370 . S
C4552 C4554 1.363 . S
C4552 H4568 0.931 . S
C4553 C4552 1.370 . S
C4553 C4557 1.408 . S
C4554 C4552 1.363 . S
C4554 C4555 1.370 . S
C4554 C4558 1.524 . S
C4555 C4547 1.503 1_655 S
C4555 C4554 1.370 . S
C4555 C4556 1.403 . S
C4556 C4555 1.403 . S
C4556 C4557 1.404 . S
C4556 C4559 1.539 . S
C4557 C4553 1.408 . S
C4557 C4556 1.404 . S
C4557 H4569 0.930 . S
C4558 C4554 1.524 . S
C4558 H4570 0.982 . S
C4558 H4571 0.919 1_655 S
C4558 H4572 0.961 . S
C4559 C4556 1.539 . S
C4559 H4573 0.958 . S
C4559 H4574 0.961 . S
C4559 H4575 0.967 . S
H4560 C4544 0.931 . S
H4561 C4549 0.929 . S
H4562 C4550 0.960 1_655 S
H4563 C4550 0.962 . S
H4564 C4550 0.960 . S
H4565 C4551 0.961 . S
H4566 C4551 0.961 1_655 S
H4567 C4551 0.961 . S
H4568 C4552 0.931 . S
H4569 C4557 0.930 . S
H4570 C4558 0.982 . S
H4571 C4558 0.919 1_455 S
H4572 C4558 0.961 . S
H4573 C4559 0.958 . S
H4574 C4559 0.961 . S
H4575 C4559 0.967 . S
C4576 C4577 1.391 . S
C4576 C4578 1.394 . S
C4576 H4592 0.931 . S
C4577 C4576 1.391 . S
C4577 C4581 1.376 . S
C4578 C4576 1.394 . S
C4578 C4579 1.369 . S
C4578 C4582 1.531 . S
C4579 C4578 1.369 . S
C4579 C4580 1.410 . S
C4579 C4587 1.503 1_545 S
C4580 C4579 1.410 . S
C4580 C4581 1.392 . S
C4580 C4583 1.511 . S
C4581 C4577 1.376 . S
C4581 C4580 1.392 . S
C4581 H4593 0.929 . S
C4582 C4578 1.531 . S
C4582 H4594 0.960 1_545 S
C4582 H4595 0.962 . S
C4582 H4596 0.960 . S
C4583 C4580 1.511 . S
C4583 H4597 0.961 . S
C4583 H4598 0.961 1_545 S
C4583 H4599 0.961 . S
C4584 C4585 1.370 . S
C4584 C4586 1.363 . S
C4584 H4600 0.931 . S
C4585 C4584 1.370 . S
C4585 C4589 1.408 . S
C4586 C4584 1.363 . S
C4586 C4587 1.370 . S
C4586 C4590 1.524 . S
C4587 C4579 1.503 1_565 S
C4587 C4586 1.370 . S
C4587 C4588 1.403 . S
C4588 C4587 1.403 . S
C4588 C4589 1.404 . S
C4588 C4591 1.539 . S
C4589 C4585 1.408 . S
C4589 C4588 1.404 . S
C4589 H4601 0.930 . S
C4590 C4586 1.524 . S
C4590 H4602 0.982 . S
C4590 H4603 0.919 1_565 S
C4590 H4604 0.961 . S
C4591 C4588 1.539 . S
C4591 H4605 0.958 . S
C4591 H4606 0.961 . S
C4591 H4607 0.967 . S
H4592 C4576 0.931 . S
H4593 C4581 0.929 . S
H4594 C4582 0.960 1_565 S
H4595 C4582 0.962 . S
H4596 C4582 0.960 . S
H4597 C4583 0.961 . S
H4598 C4583 0.961 1_565 S
H4599 C4583 0.961 . S
H4600 C4584 0.931 . S
H4601 C4589 0.930 . S
H4602 C4590 0.982 . S
H4603 C4590 0.919 1_545 S
H4604 C4590 0.961 . S
H4605 C4591 0.958 . S
H4606 C4591 0.961 . S
H4607 C4591 0.967 . S
C4608 C4609 1.391 . S
C4608 C4610 1.394 . S
C4608 H4624 0.931 . S
C4609 C4608 1.391 . S
C4609 C4613 1.376 . S
C4610 C4608 1.394 . S
C4610 C4611 1.369 . S
C4610 C4614 1.531 . S
C4611 C4610 1.369 . S
C4611 C4612 1.410 . S
C4611 C4619 1.503 1_655 S
C4612 C4611 1.410 . S
C4612 C4613 1.392 . S
C4612 C4615 1.511 . S
C4613 C4609 1.376 . S
C4613 C4612 1.392 . S
C4613 H4625 0.929 . S
C4614 C4610 1.531 . S
C4614 H4626 0.960 1_655 S
C4614 H4627 0.962 . S
C4614 H4628 0.960 . S
C4615 C4612 1.511 . S
C4615 H4629 0.961 . S
C4615 H4630 0.961 1_655 S
C4615 H4631 0.961 . S
C4616 C4617 1.370 . S
C4616 C4618 1.363 . S
C4616 H4632 0.931 . S
C4617 C4616 1.370 . S
C4617 C4621 1.408 . S
C4618 C4616 1.363 . S
C4618 C4619 1.370 . S
C4618 C4622 1.524 . S
C4619 C4611 1.503 1_455 S
C4619 C4618 1.370 . S
C4619 C4620 1.403 . S
C4620 C4619 1.403 . S
C4620 C4621 1.404 . S
C4620 C4623 1.539 . S
C4621 C4617 1.408 . S
C4621 C4620 1.404 . S
C4621 H4633 0.930 . S
C4622 C4618 1.524 . S
C4622 H4634 0.982 . S
C4622 H4635 0.919 1_455 S
C4622 H4636 0.961 . S
C4623 C4620 1.539 . S
C4623 H4637 0.958 . S
C4623 H4638 0.961 . S
C4623 H4639 0.967 . S
H4624 C4608 0.931 . S
H4625 C4613 0.929 . S
H4626 C4614 0.960 1_455 S
H4627 C4614 0.962 . S
H4628 C4614 0.960 . S
H4629 C4615 0.961 . S
H4630 C4615 0.961 1_455 S
H4631 C4615 0.961 . S
H4632 C4616 0.931 . S
H4633 C4621 0.930 . S
H4634 C4622 0.982 . S
H4635 C4622 0.919 1_655 S
H4636 C4622 0.961 . S
H4637 C4623 0.958 . S
H4638 C4623 0.961 . S
H4639 C4623 0.967 . S
C4640 C4641 1.391 . S
C4640 C4642 1.394 . S
C4640 H4656 0.931 . S
C4641 C4640 1.391 . S
C4641 C4645 1.376 . S
C4642 C4640 1.394 . S
C4642 C4643 1.369 . S
C4642 C4646 1.531 . S
C4643 C4642 1.369 . S
C4643 C4644 1.410 . S
C4643 C4651 1.503 1_545 S
C4644 C4643 1.410 . S
C4644 C4645 1.392 . S
C4644 C4647 1.511 . S
C4645 C4641 1.376 . S
C4645 C4644 1.392 . S
C4645 H4657 0.929 . S
C4646 C4642 1.531 . S
C4646 H4658 0.960 1_545 S
C4646 H4659 0.962 . S
C4646 H4660 0.960 . S
C4647 C4644 1.511 . S
C4647 H4661 0.961 . S
C4647 H4662 0.961 1_545 S
C4647 H4663 0.961 . S
C4648 C4649 1.370 . S
C4648 C4650 1.363 . S
C4648 H4664 0.931 . S
C4649 C4648 1.370 . S
C4649 C4653 1.408 . S
C4650 C4648 1.363 . S
C4650 C4651 1.370 . S
C4650 C4654 1.524 . S
C4651 C4643 1.503 1_565 S
C4651 C4650 1.370 . S
C4651 C4652 1.403 . S
C4652 C4651 1.403 . S
C4652 C4653 1.404 . S
C4652 C4655 1.539 . S
C4653 C4649 1.408 . S
C4653 C4652 1.404 . S
C4653 H4665 0.930 . S
C4654 C4650 1.524 . S
C4654 H4666 0.982 . S
C4654 H4667 0.919 1_565 S
C4654 H4668 0.961 . S
C4655 C4652 1.539 . S
C4655 H4669 0.958 . S
C4655 H4670 0.961 . S
C4655 H4671 0.967 . S
H4656 C4640 0.931 . S
H4657 C4645 0.929 . S
H4658 C4646 0.960 1_565 S
H4659 C4646 0.962 . S
H4660 C4646 0.960 . S
H4661 C4647 0.961 . S
H4662 C4647 0.961 1_565 S
H4663 C4647 0.961 . S
H4664 C4648 0.931 . S
H4665 C4653 0.930 . S
H4666 C4654 0.982 . S
H4667 C4654 0.919 1_545 S
H4668 C4654 0.961 . S
H4669 C4655 0.958 . S
H4670 C4655 0.961 . S
H4671 C4655 0.967 . S
C4672 C4673 1.391 . S
C4672 C4674 1.394 . S
C4672 H4688 0.931 . S
C4673 C4672 1.391 . S
C4673 C4677 1.376 . S
C4674 C4672 1.394 . S
C4674 C4675 1.369 . S
C4674 C4678 1.531 . S
C4675 C4674 1.369 . S
C4675 C4676 1.410 . S
C4675 C4683 1.503 1_565 S
C4676 C4675 1.410 . S
C4676 C4677 1.392 . S
C4676 C4679 1.511 . S
C4677 C4673 1.376 . S
C4677 C4676 1.392 . S
C4677 H4689 0.929 . S
C4678 C4674 1.531 . S
C4678 H4690 0.960 1_565 S
C4678 H4691 0.962 . S
C4678 H4692 0.960 . S
C4679 C4676 1.511 . S
C4679 H4693 0.961 . S
C4679 H4694 0.961 1_565 S
C4679 H4695 0.961 . S
C4680 C4681 1.370 . S
C4680 C4682 1.363 . S
C4680 H4696 0.931 . S
C4681 C4680 1.370 . S
C4681 C4685 1.408 . S
C4682 C4680 1.363 . S
C4682 C4683 1.370 . S
C4682 C4686 1.524 . S
C4683 C4675 1.503 1_545 S
C4683 C4682 1.370 . S
C4683 C4684 1.403 . S
C4684 C4683 1.403 . S
C4684 C4685 1.404 . S
C4684 C4687 1.539 . S
C4685 C4681 1.408 . S
C4685 C4684 1.404 . S
C4685 H4697 0.930 . S
C4686 C4682 1.524 . S
C4686 H4698 0.982 . S
C4686 H4699 0.919 1_545 S
C4686 H4700 0.961 . S
C4687 C4684 1.539 . S
C4687 H4701 0.958 . S
C4687 H4702 0.961 . S
C4687 H4703 0.967 . S
H4688 C4672 0.931 . S
H4689 C4677 0.929 . S
H4690 C4678 0.960 1_545 S
H4691 C4678 0.962 . S
H4692 C4678 0.960 . S
H4693 C4679 0.961 . S
H4694 C4679 0.961 1_545 S
H4695 C4679 0.961 . S
H4696 C4680 0.931 . S
H4697 C4685 0.930 . S
H4698 C4686 0.982 . S
H4699 C4686 0.919 1_565 S
H4700 C4686 0.961 . S
H4701 C4687 0.958 . S
H4702 C4687 0.961 . S
H4703 C4687 0.967 . S
C4704 C4705 1.391 . S
C4704 C4706 1.394 . S
C4704 H4720 0.931 . S
C4705 C4704 1.391 . S
C4705 C4709 1.376 . S
C4706 C4704 1.394 . S
C4706 C4707 1.369 . S
C4706 C4710 1.531 . S
C4707 C4706 1.369 . S
C4707 C4708 1.410 . S
C4707 C4715 1.503 1_655 S
C4708 C4707 1.410 . S
C4708 C4709 1.392 . S
C4708 C4711 1.511 . S
C4709 C4705 1.376 . S
C4709 C4708 1.392 . S
C4709 H4721 0.929 . S
C4710 C4706 1.531 . S
C4710 H4722 0.960 1_655 S
C4710 H4723 0.962 . S
C4710 H4724 0.960 . S
C4711 C4708 1.511 . S
C4711 H4725 0.961 . S
C4711 H4726 0.961 1_655 S
C4711 H4727 0.961 . S
C4712 C4713 1.370 . S
C4712 C4714 1.363 . S
C4712 H4728 0.931 . S
C4713 C4712 1.370 . S
C4713 C4717 1.408 . S
C4714 C4712 1.363 . S
C4714 C4715 1.370 . S
C4714 C4718 1.524 . S
C4715 C4707 1.503 1_455 S
C4715 C4714 1.370 . S
C4715 C4716 1.403 . S
C4716 C4715 1.403 . S
C4716 C4717 1.404 . S
C4716 C4719 1.539 . S
C4717 C4713 1.408 . S
C4717 C4716 1.404 . S
C4717 H4729 0.930 . S
C4718 C4714 1.524 . S
C4718 H4730 0.982 . S
C4718 H4731 0.919 1_455 S
C4718 H4732 0.961 . S
C4719 C4716 1.539 . S
C4719 H4733 0.958 . S
C4719 H4734 0.961 . S
C4719 H4735 0.967 . S
H4720 C4704 0.931 . S
H4721 C4709 0.929 . S
H4722 C4710 0.960 1_455 S
H4723 C4710 0.962 . S
H4724 C4710 0.960 . S
H4725 C4711 0.961 . S
H4726 C4711 0.961 1_455 S
H4727 C4711 0.961 . S
H4728 C4712 0.931 . S
H4729 C4717 0.930 . S
H4730 C4718 0.982 . S
H4731 C4718 0.919 1_655 S
H4732 C4718 0.961 . S
H4733 C4719 0.958 . S
H4734 C4719 0.961 . S
H4735 C4719 0.967 . S
C4736 C4737 1.391 . S
C4736 C4738 1.394 . S
C4736 H4752 0.931 . S
C4737 C4736 1.391 . S
C4737 C4741 1.376 . S
C4738 C4736 1.394 . S
C4738 C4739 1.369 . S
C4738 C4742 1.531 . S
C4739 C4738 1.369 . S
C4739 C4740 1.410 . S
C4739 C4747 1.503 1_565 S
C4740 C4739 1.410 . S
C4740 C4741 1.392 . S
C4740 C4743 1.511 . S
C4741 C4737 1.376 . S
C4741 C4740 1.392 . S
C4741 H4753 0.929 . S
C4742 C4738 1.531 . S
C4742 H4754 0.960 1_565 S
C4742 H4755 0.962 . S
C4742 H4756 0.960 . S
C4743 C4740 1.511 . S
C4743 H4757 0.961 . S
C4743 H4758 0.961 1_565 S
C4743 H4759 0.961 . S
C4744 C4745 1.370 . S
C4744 C4746 1.363 . S
C4744 H4760 0.931 . S
C4745 C4744 1.370 . S
C4745 C4749 1.408 . S
C4746 C4744 1.363 . S
C4746 C4747 1.370 . S
C4746 C4750 1.524 . S
C4747 C4739 1.503 1_545 S
C4747 C4746 1.370 . S
C4747 C4748 1.403 . S
C4748 C4747 1.403 . S
C4748 C4749 1.404 . S
C4748 C4751 1.539 . S
C4749 C4745 1.408 . S
C4749 C4748 1.404 . S
C4749 H4761 0.930 . S
C4750 C4746 1.524 . S
C4750 H4762 0.982 . S
C4750 H4763 0.919 1_545 S
C4750 H4764 0.961 . S
C4751 C4748 1.539 . S
C4751 H4765 0.958 . S
C4751 H4766 0.961 . S
C4751 H4767 0.967 . S
H4752 C4736 0.931 . S
H4753 C4741 0.929 . S
H4754 C4742 0.960 1_545 S
H4755 C4742 0.962 . S
H4756 C4742 0.960 . S
H4757 C4743 0.961 . S
H4758 C4743 0.961 1_545 S
H4759 C4743 0.961 . S
H4760 C4744 0.931 . S
H4761 C4749 0.930 . S
H4762 C4750 0.982 . S
H4763 C4750 0.919 1_565 S
H4764 C4750 0.961 . S
H4765 C4751 0.958 . S
H4766 C4751 0.961 . S
H4767 C4751 0.967 . S
C4768 C4769 1.391 . S
C4768 C4770 1.394 . S
C4768 H4784 0.931 . S
C4769 C4768 1.391 . S
C4769 C4773 1.376 . S
C4770 C4768 1.394 . S
C4770 C4771 1.369 . S
C4770 C4774 1.531 . S
C4771 C4770 1.369 . S
C4771 C4772 1.410 . S
C4771 C4779 1.503 1_455 S
C4772 C4771 1.410 . S
C4772 C4773 1.392 . S
C4772 C4775 1.511 . S
C4773 C4769 1.376 . S
C4773 C4772 1.392 . S
C4773 H4785 0.929 . S
C4774 C4770 1.531 . S
C4774 H4786 0.960 1_455 S
C4774 H4787 0.962 . S
C4774 H4788 0.960 . S
C4775 C4772 1.511 . S
C4775 H4789 0.961 . S
C4775 H4790 0.961 1_455 S
C4775 H4791 0.961 . S
C4776 C4777 1.370 . S
C4776 C4778 1.363 . S
C4776 H4792 0.931 . S
C4777 C4776 1.370 . S
C4777 C4781 1.408 . S
C4778 C4776 1.363 . S
C4778 C4779 1.370 . S
C4778 C4782 1.524 . S
C4779 C4771 1.503 1_655 S
C4779 C4778 1.370 . S
C4779 C4780 1.403 . S
C4780 C4779 1.403 . S
C4780 C4781 1.404 . S
C4780 C4783 1.539 . S
C4781 C4777 1.408 . S
C4781 C4780 1.404 . S
C4781 H4793 0.930 . S
C4782 C4778 1.524 . S
C4782 H4794 0.982 . S
C4782 H4795 0.919 1_655 S
C4782 H4796 0.961 . S
C4783 C4780 1.539 . S
C4783 H4797 0.958 . S
C4783 H4798 0.961 . S
C4783 H4799 0.967 . S
H4784 C4768 0.931 . S
H4785 C4773 0.929 . S
H4786 C4774 0.960 1_655 S
H4787 C4774 0.962 . S
H4788 C4774 0.960 . S
H4789 C4775 0.961 . S
H4790 C4775 0.961 1_655 S
H4791 C4775 0.961 . S
H4792 C4776 0.931 . S
H4793 C4781 0.930 . S
H4794 C4782 0.982 . S
H4795 C4782 0.919 1_455 S
H4796 C4782 0.961 . S
H4797 C4783 0.958 . S
H4798 C4783 0.961 . S
H4799 C4783 0.967 . S
C4800 C4801 1.391 . S
C4800 C4802 1.394 . S
C4800 H4816 0.931 . S
C4801 C4800 1.391 . S
C4801 C4805 1.376 . S
C4802 C4800 1.394 . S
C4802 C4803 1.369 . S
C4802 C4806 1.531 . S
C4803 C4802 1.369 . S
C4803 C4804 1.410 . S
C4803 C4811 1.503 1_565 S
C4804 C4803 1.410 . S
C4804 C4805 1.392 . S
C4804 C4807 1.511 . S
C4805 C4801 1.376 . S
C4805 C4804 1.392 . S
C4805 H4817 0.929 . S
C4806 C4802 1.531 . S
C4806 H4818 0.960 1_565 S
C4806 H4819 0.962 . S
C4806 H4820 0.960 . S
C4807 C4804 1.511 . S
C4807 H4821 0.961 . S
C4807 H4822 0.961 1_565 S
C4807 H4823 0.961 . S
C4808 C4809 1.370 . S
C4808 C4810 1.363 . S
C4808 H4824 0.931 . S
C4809 C4808 1.370 . S
C4809 C4813 1.408 . S
C4810 C4808 1.363 . S
C4810 C4811 1.370 . S
C4810 C4814 1.524 . S
C4811 C4803 1.503 1_545 S
C4811 C4810 1.370 . S
C4811 C4812 1.403 . S
C4812 C4811 1.403 . S
C4812 C4813 1.404 . S
C4812 C4815 1.539 . S
C4813 C4809 1.408 . S
C4813 C4812 1.404 . S
C4813 H4825 0.930 . S
C4814 C4810 1.524 . S
C4814 H4826 0.982 . S
C4814 H4827 0.919 1_545 S
C4814 H4828 0.961 . S
C4815 C4812 1.539 . S
C4815 H4829 0.958 . S
C4815 H4830 0.961 . S
C4815 H4831 0.967 . S
H4816 C4800 0.931 . S
H4817 C4805 0.929 . S
H4818 C4806 0.960 1_545 S
H4819 C4806 0.962 . S
H4820 C4806 0.960 . S
H4821 C4807 0.961 . S
H4822 C4807 0.961 1_545 S
H4823 C4807 0.961 . S
H4824 C4808 0.931 . S
H4825 C4813 0.930 . S
H4826 C4814 0.982 . S
H4827 C4814 0.919 1_565 S
H4828 C4814 0.961 . S
H4829 C4815 0.958 . S
H4830 C4815 0.961 . S
H4831 C4815 0.967 . S
C4832 C4833 1.391 . S
C4832 C4834 1.394 . S
C4832 H4848 0.931 . S
C4833 C4832 1.391 . S
C4833 C4837 1.376 . S
C4834 C4832 1.394 . S
C4834 C4835 1.369 . S
C4834 C4838 1.531 . S
C4835 C4834 1.369 . S
C4835 C4836 1.410 . S
C4835 C4843 1.503 1_455 S
C4836 C4835 1.410 . S
C4836 C4837 1.392 . S
C4836 C4839 1.511 . S
C4837 C4833 1.376 . S
C4837 C4836 1.392 . S
C4837 H4849 0.929 . S
C4838 C4834 1.531 . S
C4838 H4850 0.960 1_455 S
C4838 H4851 0.962 . S
C4838 H4852 0.960 . S
C4839 C4836 1.511 . S
C4839 H4853 0.961 . S
C4839 H4854 0.961 1_455 S
C4839 H4855 0.961 . S
C4840 C4841 1.370 . S
C4840 C4842 1.363 . S
C4840 H4856 0.931 . S
C4841 C4840 1.370 . S
C4841 C4845 1.408 . S
C4842 C4840 1.363 . S
C4842 C4843 1.370 . S
C4842 C4846 1.524 . S
C4843 C4835 1.503 1_655 S
C4843 C4842 1.370 . S
C4843 C4844 1.403 . S
C4844 C4843 1.403 . S
C4844 C4845 1.404 . S
C4844 C4847 1.539 . S
C4845 C4841 1.408 . S
C4845 C4844 1.404 . S
C4845 H4857 0.930 . S
C4846 C4842 1.524 . S
C4846 H4858 0.982 . S
C4846 H4859 0.919 1_655 S
C4846 H4860 0.961 . S
C4847 C4844 1.539 . S
C4847 H4861 0.958 . S
C4847 H4862 0.961 . S
C4847 H4863 0.967 . S
H4848 C4832 0.931 . S
H4849 C4837 0.929 . S
H4850 C4838 0.960 1_655 S
H4851 C4838 0.962 . S
H4852 C4838 0.960 . S
H4853 C4839 0.961 . S
H4854 C4839 0.961 1_655 S
H4855 C4839 0.961 . S
H4856 C4840 0.931 . S
H4857 C4845 0.930 . S
H4858 C4846 0.982 . S
H4859 C4846 0.919 1_455 S
H4860 C4846 0.961 . S
H4861 C4847 0.958 . S
H4862 C4847 0.961 . S
H4863 C4847 0.967 . S
C4864 C4865 1.391 . S
C4864 C4866 1.394 . S
C4864 H4880 0.931 . S
C4865 C4864 1.391 . S
C4865 C4869 1.376 . S
C4866 C4864 1.394 . S
C4866 C4867 1.369 . S
C4866 C4870 1.531 . S
C4867 C4866 1.369 . S
C4867 C4868 1.410 . S
C4867 C4875 1.503 1_545 S
C4868 C4867 1.410 . S
C4868 C4869 1.392 . S
C4868 C4871 1.511 . S
C4869 C4865 1.376 . S
C4869 C4868 1.392 . S
C4869 H4881 0.929 . S
C4870 C4866 1.531 . S
C4870 H4882 0.960 1_545 S
C4870 H4883 0.962 . S
C4870 H4884 0.960 . S
C4871 C4868 1.511 . S
C4871 H4885 0.961 . S
C4871 H4886 0.961 1_545 S
C4871 H4887 0.961 . S
C4872 C4873 1.370 . S
C4872 C4874 1.363 . S
C4872 H4888 0.931 . S
C4873 C4872 1.370 . S
C4873 C4877 1.408 . S
C4874 C4872 1.363 . S
C4874 C4875 1.370 . S
C4874 C4878 1.524 . S
C4875 C4867 1.503 1_565 S
C4875 C4874 1.370 . S
C4875 C4876 1.403 . S
C4876 C4875 1.403 . S
C4876 C4877 1.404 . S
C4876 C4879 1.539 . S
C4877 C4873 1.408 . S
C4877 C4876 1.404 . S
C4877 H4889 0.930 . S
C4878 C4874 1.524 . S
C4878 H4890 0.982 . S
C4878 H4891 0.919 1_565 S
C4878 H4892 0.961 . S
C4879 C4876 1.539 . S
C4879 H4893 0.958 . S
C4879 H4894 0.961 . S
C4879 H4895 0.967 . S
H4880 C4864 0.931 . S
H4881 C4869 0.929 . S
H4882 C4870 0.960 1_565 S
H4883 C4870 0.962 . S
H4884 C4870 0.960 . S
H4885 C4871 0.961 . S
H4886 C4871 0.961 1_565 S
H4887 C4871 0.961 . S
H4888 C4872 0.931 . S
H4889 C4877 0.930 . S
H4890 C4878 0.982 . S
H4891 C4878 0.919 1_545 S
H4892 C4878 0.961 . S
H4893 C4879 0.958 . S
H4894 C4879 0.961 . S
H4895 C4879 0.967 . S
C4896 C4897 1.391 . S
C4896 C4898 1.394 . S
C4896 H4912 0.931 . S
C4897 C4896 1.391 . S
C4897 C4901 1.376 . S
C4898 C4896 1.394 . S
C4898 C4899 1.369 . S
C4898 C4902 1.531 . S
C4899 C4898 1.369 . S
C4899 C4900 1.410 . S
C4899 C4907 1.503 1_655 S
C4900 C4899 1.410 . S
C4900 C4901 1.392 . S
C4900 C4903 1.511 . S
C4901 C4897 1.376 . S
C4901 C4900 1.392 . S
C4901 H4913 0.929 . S
C4902 C4898 1.531 . S
C4902 H4914 0.960 1_655 S
C4902 H4915 0.962 . S
C4902 H4916 0.960 . S
C4903 C4900 1.511 . S
C4903 H4917 0.961 . S
C4903 H4918 0.961 1_655 S
C4903 H4919 0.961 . S
C4904 C4905 1.370 . S
C4904 C4906 1.363 . S
C4904 H4920 0.931 . S
C4905 C4904 1.370 . S
C4905 C4909 1.408 . S
C4906 C4904 1.363 . S
C4906 C4907 1.370 . S
C4906 C4910 1.524 . S
C4907 C4899 1.503 1_455 S
C4907 C4906 1.370 . S
C4907 C4908 1.403 . S
C4908 C4907 1.403 . S
C4908 C4909 1.404 . S
C4908 C4911 1.539 . S
C4909 C4905 1.408 . S
C4909 C4908 1.404 . S
C4909 H4921 0.930 . S
C4910 C4906 1.524 . S
C4910 H4922 0.982 . S
C4910 H4923 0.919 1_455 S
C4910 H4924 0.961 . S
C4911 C4908 1.539 . S
C4911 H4925 0.958 . S
C4911 H4926 0.961 . S
C4911 H4927 0.967 . S
H4912 C4896 0.931 . S
H4913 C4901 0.929 . S
H4914 C4902 0.960 1_455 S
H4915 C4902 0.962 . S
H4916 C4902 0.960 . S
H4917 C4903 0.961 . S
H4918 C4903 0.961 1_455 S
H4919 C4903 0.961 . S
H4920 C4904 0.931 . S
H4921 C4909 0.930 . S
H4922 C4910 0.982 . S
H4923 C4910 0.919 1_655 S
H4924 C4910 0.961 . S
H4925 C4911 0.958 . S
H4926 C4911 0.961 . S
H4927 C4911 0.967 . S
C4928 C4929 1.391 . S
C4928 C4930 1.394 . S
C4928 H4944 0.931 . S
C4929 C4928 1.391 . S
C4929 C4933 1.376 . S
C4930 C4928 1.394 . S
C4930 C4931 1.369 . S
C4930 C4934 1.531 . S
C4931 C4930 1.369 . S
C4931 C4932 1.410 . S
C4931 C4939 1.503 1_554 S
C4932 C4931 1.410 . S
C4932 C4933 1.392 . S
C4932 C4935 1.511 . S
C4933 C4929 1.376 . S
C4933 C4932 1.392 . S
C4933 H4945 0.929 . S
C4934 C4930 1.531 . S
C4934 H4946 0.960 1_554 S
C4934 H4947 0.962 . S
C4934 H4948 0.960 . S
C4935 C4932 1.511 . S
C4935 H4949 0.961 . S
C4935 H4950 0.961 1_554 S
C4935 H4951 0.961 . S
C4936 C4937 1.370 . S
C4936 C4938 1.363 . S
C4936 H4952 0.931 . S
C4937 C4936 1.370 . S
C4937 C4941 1.408 . S
C4938 C4936 1.363 . S
C4938 C4939 1.370 . S
C4938 C4942 1.524 . S
C4939 C4931 1.503 1_556 S
C4939 C4938 1.370 . S
C4939 C4940 1.403 . S
C4940 C4939 1.403 . S
C4940 C4941 1.404 . S
C4940 C4943 1.539 . S
C4941 C4937 1.408 . S
C4941 C4940 1.404 . S
C4941 H4953 0.930 . S
C4942 C4938 1.524 . S
C4942 H4954 0.982 . S
C4942 H4955 0.919 1_556 S
C4942 H4956 0.961 . S
C4943 C4940 1.539 . S
C4943 H4957 0.958 . S
C4943 H4958 0.961 . S
C4943 H4959 0.967 . S
H4944 C4928 0.931 . S
H4945 C4933 0.929 . S
H4946 C4934 0.960 1_556 S
H4947 C4934 0.962 . S
H4948 C4934 0.960 . S
H4949 C4935 0.961 . S
H4950 C4935 0.961 1_556 S
H4951 C4935 0.961 . S
H4952 C4936 0.931 . S
H4953 C4941 0.930 . S
H4954 C4942 0.982 . S
H4955 C4942 0.919 1_554 S
H4956 C4942 0.961 . S
H4957 C4943 0.958 . S
H4958 C4943 0.961 . S
H4959 C4943 0.967 . S
C4960 C4961 1.391 . S
C4960 C4962 1.394 . S
C4960 H4976 0.931 . S
C4961 C4960 1.391 . S
C4961 C4965 1.376 . S
C4962 C4960 1.394 . S
C4962 C4963 1.369 . S
C4962 C4966 1.531 . S
C4963 C4962 1.369 . S
C4963 C4964 1.410 . S
C4963 C4971 1.503 1_556 S
C4964 C4963 1.410 . S
C4964 C4965 1.392 . S
C4964 C4967 1.511 . S
C4965 C4961 1.376 . S
C4965 C4964 1.392 . S
C4965 H4977 0.929 . S
C4966 C4962 1.531 . S
C4966 H4978 0.960 1_556 S
C4966 H4979 0.962 . S
C4966 H4980 0.960 . S
C4967 C4964 1.511 . S
C4967 H4981 0.961 . S
C4967 H4982 0.961 1_556 S
C4967 H4983 0.961 . S
C4968 C4969 1.370 . S
C4968 C4970 1.363 . S
C4968 H4984 0.931 . S
C4969 C4968 1.370 . S
C4969 C4973 1.408 . S
C4970 C4968 1.363 . S
C4970 C4971 1.370 . S
C4970 C4974 1.524 . S
C4971 C4963 1.503 1_554 S
C4971 C4970 1.370 . S
C4971 C4972 1.403 . S
C4972 C4971 1.403 . S
C4972 C4973 1.404 . S
C4972 C4975 1.539 . S
C4973 C4969 1.408 . S
C4973 C4972 1.404 . S
C4973 H4985 0.930 . S
C4974 C4970 1.524 . S
C4974 H4986 0.982 . S
C4974 H4987 0.919 1_554 S
C4974 H4988 0.961 . S
C4975 C4972 1.539 . S
C4975 H4989 0.958 . S
C4975 H4990 0.961 . S
C4975 H4991 0.967 . S
H4976 C4960 0.931 . S
H4977 C4965 0.929 . S
H4978 C4966 0.960 1_554 S
H4979 C4966 0.962 . S
H4980 C4966 0.960 . S
H4981 C4967 0.961 . S
H4982 C4967 0.961 1_554 S
H4983 C4967 0.961 . S
H4984 C4968 0.931 . S
H4985 C4973 0.930 . S
H4986 C4974 0.982 . S
H4987 C4974 0.919 1_556 S
H4988 C4974 0.961 . S
H4989 C4975 0.958 . S
H4990 C4975 0.961 . S
H4991 C4975 0.967 . S
C4992 C4993 1.391 . S
C4992 C4994 1.394 . S
C4992 H5008 0.931 . S
C4993 C4992 1.391 . S
C4993 C4997 1.376 . S
C4994 C4992 1.394 . S
C4994 C4995 1.369 . S
C4994 C4998 1.531 . S
C4995 C4994 1.369 . S
C4995 C4996 1.410 . S
C4995 C5003 1.503 1_554 S
C4996 C4995 1.410 . S
C4996 C4997 1.392 . S
C4996 C4999 1.511 . S
C4997 C4993 1.376 . S
C4997 C4996 1.392 . S
C4997 H5009 0.929 . S
C4998 C4994 1.531 . S
C4998 H5010 0.960 1_554 S
C4998 H5011 0.962 . S
C4998 H5012 0.960 . S
C4999 C4996 1.511 . S
C4999 H5013 0.961 . S
C4999 H5014 0.961 1_554 S
C4999 H5015 0.961 . S
C5000 C5001 1.370 . S
C5000 C5002 1.363 . S
C5000 H5016 0.931 . S
C5001 C5000 1.370 . S
C5001 C5005 1.408 . S
C5002 C5000 1.363 . S
C5002 C5003 1.370 . S
C5002 C5006 1.524 . S
C5003 C4995 1.503 1_556 S
C5003 C5002 1.370 . S
C5003 C5004 1.403 . S
C5004 C5003 1.403 . S
C5004 C5005 1.404 . S
C5004 C5007 1.539 . S
C5005 C5001 1.408 . S
C5005 C5004 1.404 . S
C5005 H5017 0.930 . S
C5006 C5002 1.524 . S
C5006 H5018 0.982 . S
C5006 H5019 0.919 1_556 S
C5006 H5020 0.961 . S
C5007 C5004 1.539 . S
C5007 H5021 0.958 . S
C5007 H5022 0.961 . S
C5007 H5023 0.967 . S
H5008 C4992 0.931 . S
H5009 C4997 0.929 . S
H5010 C4998 0.960 1_556 S
H5011 C4998 0.962 . S
H5012 C4998 0.960 . S
H5013 C4999 0.961 . S
H5014 C4999 0.961 1_556 S
H5015 C4999 0.961 . S
H5016 C5000 0.931 . S
H5017 C5005 0.930 . S
H5018 C5006 0.982 . S
H5019 C5006 0.919 1_554 S
H5020 C5006 0.961 . S
H5021 C5007 0.958 . S
H5022 C5007 0.961 . S
H5023 C5007 0.967 . S
C5024 C5025 1.391 . S
C5024 C5026 1.394 . S
C5024 H5040 0.931 . S
C5025 C5024 1.391 . S
C5025 C5029 1.376 . S
C5026 C5024 1.394 . S
C5026 C5027 1.369 . S
C5026 C5030 1.531 . S
C5027 C5026 1.369 . S
C5027 C5028 1.410 . S
C5027 C5035 1.503 1_556 S
C5028 C5027 1.410 . S
C5028 C5029 1.392 . S
C5028 C5031 1.511 . S
C5029 C5025 1.376 . S
C5029 C5028 1.392 . S
C5029 H5041 0.929 . S
C5030 C5026 1.531 . S
C5030 H5042 0.960 1_556 S
C5030 H5043 0.962 . S
C5030 H5044 0.960 . S
C5031 C5028 1.511 . S
C5031 H5045 0.961 . S
C5031 H5046 0.961 1_556 S
C5031 H5047 0.961 . S
C5032 C5033 1.370 . S
C5032 C5034 1.363 . S
C5032 H5048 0.931 . S
C5033 C5032 1.370 . S
C5033 C5037 1.408 . S
C5034 C5032 1.363 . S
C5034 C5035 1.370 . S
C5034 C5038 1.524 . S
C5035 C5027 1.503 1_554 S
C5035 C5034 1.370 . S
C5035 C5036 1.403 . S
C5036 C5035 1.403 . S
C5036 C5037 1.404 . S
C5036 C5039 1.539 . S
C5037 C5033 1.408 . S
C5037 C5036 1.404 . S
C5037 H5049 0.930 . S
C5038 C5034 1.524 . S
C5038 H5050 0.982 . S
C5038 H5051 0.919 1_554 S
C5038 H5052 0.961 . S
C5039 C5036 1.539 . S
C5039 H5053 0.958 . S
C5039 H5054 0.961 . S
C5039 H5055 0.967 . S
H5040 C5024 0.931 . S
H5041 C5029 0.929 . S
H5042 C5030 0.960 1_554 S
H5043 C5030 0.962 . S
H5044 C5030 0.960 . S
H5045 C5031 0.961 . S
H5046 C5031 0.961 1_554 S
H5047 C5031 0.961 . S
H5048 C5032 0.931 . S
H5049 C5037 0.930 . S
H5050 C5038 0.982 . S
H5051 C5038 0.919 1_556 S
H5052 C5038 0.961 . S
H5053 C5039 0.958 . S
H5054 C5039 0.961 . S
H5055 C5039 0.967 . S
C5056 C5057 1.391 . S
C5056 C5058 1.394 . S
C5056 H5072 0.931 . S
C5057 C5056 1.391 . S
C5057 C5061 1.376 . S
C5058 C5056 1.394 . S
C5058 C5059 1.369 . S
C5058 C5062 1.531 . S
C5059 C5058 1.369 . S
C5059 C5060 1.410 . S
C5059 C5067 1.503 1_554 S
C5060 C5059 1.410 . S
C5060 C5061 1.392 . S
C5060 C5063 1.511 . S
C5061 C5057 1.376 . S
C5061 C5060 1.392 . S
C5061 H5073 0.929 . S
C5062 C5058 1.531 . S
C5062 H5074 0.960 1_554 S
C5062 H5075 0.962 . S
C5062 H5076 0.960 . S
C5063 C5060 1.511 . S
C5063 H5077 0.961 . S
C5063 H5078 0.961 1_554 S
C5063 H5079 0.961 . S
C5064 C5065 1.370 . S
C5064 C5066 1.363 . S
C5064 H5080 0.931 . S
C5065 C5064 1.370 . S
C5065 C5069 1.408 . S
C5066 C5064 1.363 . S
C5066 C5067 1.370 . S
C5066 C5070 1.524 . S
C5067 C5059 1.503 1_556 S
C5067 C5066 1.370 . S
C5067 C5068 1.403 . S
C5068 C5067 1.403 . S
C5068 C5069 1.404 . S
C5068 C5071 1.539 . S
C5069 C5065 1.408 . S
C5069 C5068 1.404 . S
C5069 H5081 0.930 . S
C5070 C5066 1.524 . S
C5070 H5082 0.982 . S
C5070 H5083 0.919 1_556 S
C5070 H5084 0.961 . S
C5071 C5068 1.539 . S
C5071 H5085 0.958 . S
C5071 H5086 0.961 . S
C5071 H5087 0.967 . S
H5072 C5056 0.931 . S
H5073 C5061 0.929 . S
H5074 C5062 0.960 1_556 S
H5075 C5062 0.962 . S
H5076 C5062 0.960 . S
H5077 C5063 0.961 . S
H5078 C5063 0.961 1_556 S
H5079 C5063 0.961 . S
H5080 C5064 0.931 . S
H5081 C5069 0.930 . S
H5082 C5070 0.982 . S
H5083 C5070 0.919 1_554 S
H5084 C5070 0.961 . S
H5085 C5071 0.958 . S
H5086 C5071 0.961 . S
H5087 C5071 0.967 . S
C5088 C5089 1.391 . S
C5088 C5090 1.394 . S
C5088 H5104 0.931 . S
C5089 C5088 1.391 . S
C5089 C5093 1.376 . S
C5090 C5088 1.394 . S
C5090 C5091 1.369 . S
C5090 C5094 1.531 . S
C5091 C5090 1.369 . S
C5091 C5092 1.410 . S
C5091 C5099 1.503 1_554 S
C5092 C5091 1.410 . S
C5092 C5093 1.392 . S
C5092 C5095 1.511 . S
C5093 C5089 1.376 . S
C5093 C5092 1.392 . S
C5093 H5105 0.929 . S
C5094 C5090 1.531 . S
C5094 H5106 0.960 1_554 S
C5094 H5107 0.962 . S
C5094 H5108 0.960 . S
C5095 C5092 1.511 . S
C5095 H5109 0.961 . S
C5095 H5110 0.961 1_554 S
C5095 H5111 0.961 . S
C5096 C5097 1.370 . S
C5096 C5098 1.363 . S
C5096 H5112 0.931 . S
C5097 C5096 1.370 . S
C5097 C5101 1.408 . S
C5098 C5096 1.363 . S
C5098 C5099 1.370 . S
C5098 C5102 1.524 . S
C5099 C5091 1.503 1_556 S
C5099 C5098 1.370 . S
C5099 C5100 1.403 . S
C5100 C5099 1.403 . S
C5100 C5101 1.404 . S
C5100 C5103 1.539 . S
C5101 C5097 1.408 . S
C5101 C5100 1.404 . S
C5101 H5113 0.930 . S
C5102 C5098 1.524 . S
C5102 H5114 0.982 . S
C5102 H5115 0.919 1_556 S
C5102 H5116 0.961 . S
C5103 C5100 1.539 . S
C5103 H5117 0.958 . S
C5103 H5118 0.961 . S
C5103 H5119 0.967 . S
H5104 C5088 0.931 . S
H5105 C5093 0.929 . S
H5106 C5094 0.960 1_556 S
H5107 C5094 0.962 . S
H5108 C5094 0.960 . S
H5109 C5095 0.961 . S
H5110 C5095 0.961 1_556 S
H5111 C5095 0.961 . S
H5112 C5096 0.931 . S
H5113 C5101 0.930 . S
H5114 C5102 0.982 . S
H5115 C5102 0.919 1_554 S
H5116 C5102 0.961 . S
H5117 C5103 0.958 . S
H5118 C5103 0.961 . S
H5119 C5103 0.967 . S
C5120 C5121 1.391 . S
C5120 C5122 1.394 . S
C5120 H5136 0.931 . S
C5121 C5120 1.391 . S
C5121 C5125 1.376 . S
C5122 C5120 1.394 . S
C5122 C5123 1.369 . S
C5122 C5126 1.531 . S
C5123 C5122 1.369 . S
C5123 C5124 1.410 . S
C5123 C5131 1.503 1_554 S
C5124 C5123 1.410 . S
C5124 C5125 1.392 . S
C5124 C5127 1.511 . S
C5125 C5121 1.376 . S
C5125 C5124 1.392 . S
C5125 H5137 0.929 . S
C5126 C5122 1.531 . S
C5126 H5138 0.960 1_554 S
C5126 H5139 0.962 . S
C5126 H5140 0.960 . S
C5127 C5124 1.511 . S
C5127 H5141 0.961 . S
C5127 H5142 0.961 1_554 S
C5127 H5143 0.961 . S
C5128 C5129 1.370 . S
C5128 C5130 1.363 . S
C5128 H5144 0.931 . S
C5129 C5128 1.370 . S
C5129 C5133 1.408 . S
C5130 C5128 1.363 . S
C5130 C5131 1.370 . S
C5130 C5134 1.524 . S
C5131 C5123 1.503 1_556 S
C5131 C5130 1.370 . S
C5131 C5132 1.403 . S
C5132 C5131 1.403 . S
C5132 C5133 1.404 . S
C5132 C5135 1.539 . S
C5133 C5129 1.408 . S
C5133 C5132 1.404 . S
C5133 H5145 0.930 . S
C5134 C5130 1.524 . S
C5134 H5146 0.982 . S
C5134 H5147 0.919 1_556 S
C5134 H5148 0.961 . S
C5135 C5132 1.539 . S
C5135 H5149 0.958 . S
C5135 H5150 0.961 . S
C5135 H5151 0.967 . S
H5136 C5120 0.931 . S
H5137 C5125 0.929 . S
H5138 C5126 0.960 1_556 S
H5139 C5126 0.962 . S
H5140 C5126 0.960 . S
H5141 C5127 0.961 . S
H5142 C5127 0.961 1_556 S
H5143 C5127 0.961 . S
H5144 C5128 0.931 . S
H5145 C5133 0.930 . S
H5146 C5134 0.982 . S
H5147 C5134 0.919 1_554 S
H5148 C5134 0.961 . S
H5149 C5135 0.958 . S
H5150 C5135 0.961 . S
H5151 C5135 0.967 . S
C5152 C5153 1.391 . S
C5152 C5154 1.394 . S
C5152 H5168 0.931 . S
C5153 C5152 1.391 . S
C5153 C5157 1.376 . S
C5154 C5152 1.394 . S
C5154 C5155 1.369 . S
C5154 C5158 1.531 . S
C5155 C5154 1.369 . S
C5155 C5156 1.410 . S
C5155 C5163 1.503 1_556 S
C5156 C5155 1.410 . S
C5156 C5157 1.392 . S
C5156 C5159 1.511 . S
C5157 C5153 1.376 . S
C5157 C5156 1.392 . S
C5157 H5169 0.929 . S
C5158 C5154 1.531 . S
C5158 H5170 0.960 1_556 S
C5158 H5171 0.962 . S
C5158 H5172 0.960 . S
C5159 C5156 1.511 . S
C5159 H5173 0.961 . S
C5159 H5174 0.961 1_556 S
C5159 H5175 0.961 . S
C5160 C5161 1.370 . S
C5160 C5162 1.363 . S
C5160 H5176 0.931 . S
C5161 C5160 1.370 . S
C5161 C5165 1.408 . S
C5162 C5160 1.363 . S
C5162 C5163 1.370 . S
C5162 C5166 1.524 . S
C5163 C5155 1.503 1_554 S
C5163 C5162 1.370 . S
C5163 C5164 1.403 . S
C5164 C5163 1.403 . S
C5164 C5165 1.404 . S
C5164 C5167 1.539 . S
C5165 C5161 1.408 . S
C5165 C5164 1.404 . S
C5165 H5177 0.930 . S
C5166 C5162 1.524 . S
C5166 H5178 0.982 . S
C5166 H5179 0.919 1_554 S
C5166 H5180 0.961 . S
C5167 C5164 1.539 . S
C5167 H5181 0.958 . S
C5167 H5182 0.961 . S
C5167 H5183 0.967 . S
H5168 C5152 0.931 . S
H5169 C5157 0.929 . S
H5170 C5158 0.960 1_554 S
H5171 C5158 0.962 . S
H5172 C5158 0.960 . S
H5173 C5159 0.961 . S
H5174 C5159 0.961 1_554 S
H5175 C5159 0.961 . S
H5176 C5160 0.931 . S
H5177 C5165 0.930 . S
H5178 C5166 0.982 . S
H5179 C5166 0.919 1_556 S
H5180 C5166 0.961 . S
H5181 C5167 0.958 . S
H5182 C5167 0.961 . S
H5183 C5167 0.967 . S
C5184 C5185 1.391 . S
C5184 C5186 1.394 . S
C5184 H5200 0.931 . S
C5185 C5184 1.391 . S
C5185 C5189 1.376 . S
C5186 C5184 1.394 . S
C5186 C5187 1.369 . S
C5186 C5190 1.531 . S
C5187 C5186 1.369 . S
C5187 C5188 1.410 . S
C5187 C5195 1.503 . S
C5188 C5187 1.410 . S
C5188 C5189 1.392 . S
C5188 C5191 1.511 . S
C5189 C5185 1.376 . S
C5189 C5188 1.392 . S
C5189 H5201 0.929 . S
C5190 C5186 1.531 . S
C5190 H5202 0.960 . S
C5190 H5203 0.962 . S
C5190 H5204 0.960 . S
C5191 C5188 1.511 . S
C5191 H5205 0.961 . S
C5191 H5206 0.961 . S
C5191 H5207 0.961 . S
C5192 C5193 1.370 . S
C5192 C5194 1.363 . S
C5192 H5208 0.931 . S
C5193 C5192 1.370 . S
C5193 C5197 1.408 . S
C5194 C5192 1.363 . S
C5194 C5195 1.370 . S
C5194 C5198 1.524 . S
C5195 C5187 1.503 . S
C5195 C5194 1.370 . S
C5195 C5196 1.403 . S
C5196 C5195 1.403 . S
C5196 C5197 1.404 . S
C5196 C5199 1.539 . S
C5197 C5193 1.408 . S
C5197 C5196 1.404 . S
C5197 H5209 0.930 . S
C5198 C5194 1.524 . S
C5198 H5210 0.956 . S
C5198 H5211 0.961 . S
C5198 H5212 0.961 . S
C5199 C5196 1.539 . S
C5199 H5213 0.958 . S
C5199 H5214 0.961 . S
C5199 H5215 0.960 . S
H5200 C5184 0.931 . S
H5201 C5189 0.929 . S
H5202 C5190 0.960 . S
H5203 C5190 0.962 . S
H5204 C5190 0.960 . S
H5205 C5191 0.961 . S
H5206 C5191 0.961 . S
H5207 C5191 0.961 . S
H5208 C5192 0.931 . S
H5209 C5197 0.930 . S
H5210 C5198 0.956 . S
H5211 C5198 0.961 . S
H5212 C5198 0.961 . S
H5213 C5199 0.958 . S
H5214 C5199 0.961 . S
H5215 C5199 0.960 . S
C5216 C5217 1.391 . S
C5216 C5218 1.394 . S
C5216 H5232 0.931 . S
C5217 C5216 1.391 . S
C5217 C5221 1.376 . S
C5218 C5216 1.394 . S
C5218 C5219 1.369 . S
C5218 C5222 1.531 . S
C5219 C5218 1.369 . S
C5219 C5220 1.410 . S
C5219 C5227 1.503 . S
C5220 C5219 1.410 . S
C5220 C5221 1.392 . S
C5220 C5223 1.511 . S
C5221 C5217 1.376 . S
C5221 C5220 1.392 . S
C5221 H5233 0.929 . S
C5222 C5218 1.531 . S
C5222 H5234 0.960 . S
C5222 H5235 0.962 . S
C5222 H5236 0.960 . S
C5223 C5220 1.511 . S
C5223 H5237 0.961 . S
C5223 H5238 0.961 . S
C5223 H5239 0.961 . S
C5224 C5225 1.370 . S
C5224 C5226 1.363 . S
C5224 H5240 0.931 . S
C5225 C5224 1.370 . S
C5225 C5229 1.408 . S
C5226 C5224 1.363 . S
C5226 C5227 1.370 . S
C5226 C5230 1.524 . S
C5227 C5219 1.503 . S
C5227 C5226 1.370 . S
C5227 C5228 1.403 . S
C5228 C5227 1.403 . S
C5228 C5229 1.404 . S
C5228 C5231 1.539 . S
C5229 C5225 1.408 . S
C5229 C5228 1.404 . S
C5229 H5241 0.930 . S
C5230 C5226 1.524 . S
C5230 H5242 0.956 . S
C5230 H5243 0.961 . S
C5230 H5244 0.961 . S
C5231 C5228 1.539 . S
C5231 H5245 0.958 . S
C5231 H5246 0.961 . S
C5231 H5247 0.960 . S
H5232 C5216 0.931 . S
H5233 C5221 0.929 . S
H5234 C5222 0.960 . S
H5235 C5222 0.962 . S
H5236 C5222 0.960 . S
H5237 C5223 0.961 . S
H5238 C5223 0.961 . S
H5239 C5223 0.961 . S
H5240 C5224 0.931 . S
H5241 C5229 0.930 . S
H5242 C5230 0.956 . S
H5243 C5230 0.961 . S
H5244 C5230 0.961 . S
H5245 C5231 0.958 . S
H5246 C5231 0.961 . S
H5247 C5231 0.960 . S
C5248 C5249 1.391 . S
C5248 C5250 1.394 . S
C5248 H5264 0.931 . S
C5249 C5248 1.391 . S
C5249 C5253 1.376 . S
C5250 C5248 1.394 . S
C5250 C5251 1.369 . S
C5250 C5254 1.531 . S
C5251 C5250 1.369 . S
C5251 C5252 1.410 . S
C5251 C5259 1.503 . S
C5252 C5251 1.410 . S
C5252 C5253 1.392 . S
C5252 C5255 1.511 . S
C5253 C5249 1.376 . S
C5253 C5252 1.392 . S
C5253 H5265 0.929 . S
C5254 C5250 1.531 . S
C5254 H5266 0.960 . S
C5254 H5267 0.962 . S
C5254 H5268 0.960 . S
C5255 C5252 1.511 . S
C5255 H5269 0.961 . S
C5255 H5270 0.961 . S
C5255 H5271 0.961 . S
C5256 C5257 1.370 . S
C5256 C5258 1.363 . S
C5256 H5272 0.931 . S
C5257 C5256 1.370 . S
C5257 C5261 1.408 . S
C5258 C5256 1.363 . S
C5258 C5259 1.370 . S
C5258 C5262 1.524 . S
C5259 C5251 1.503 . S
C5259 C5258 1.370 . S
C5259 C5260 1.403 . S
C5260 C5259 1.403 . S
C5260 C5261 1.404 . S
C5260 C5263 1.539 . S
C5261 C5257 1.408 . S
C5261 C5260 1.404 . S
C5261 H5273 0.930 . S
C5262 C5258 1.524 . S
C5262 H5274 0.956 . S
C5262 H5275 0.961 . S
C5262 H5276 0.961 . S
C5263 C5260 1.539 . S
C5263 H5277 0.958 . S
C5263 H5278 0.961 . S
C5263 H5279 0.960 . S
H5264 C5248 0.931 . S
H5265 C5253 0.929 . S
H5266 C5254 0.960 . S
H5267 C5254 0.962 . S
H5268 C5254 0.960 . S
H5269 C5255 0.961 . S
H5270 C5255 0.961 . S
H5271 C5255 0.961 . S
H5272 C5256 0.931 . S
H5273 C5261 0.930 . S
H5274 C5262 0.956 . S
H5275 C5262 0.961 . S
H5276 C5262 0.961 . S
H5277 C5263 0.958 . S
H5278 C5263 0.961 . S
H5279 C5263 0.960 . S
C5280 C5281 1.391 . S
C5280 C5282 1.394 . S
C5280 H5296 0.931 . S
C5281 C5280 1.391 . S
C5281 C5285 1.376 . S
C5282 C5280 1.394 . S
C5282 C5283 1.369 . S
C5282 C5286 1.531 . S
C5283 C5282 1.369 . S
C5283 C5284 1.410 . S
C5283 C5291 1.503 . S
C5284 C5283 1.410 . S
C5284 C5285 1.392 . S
C5284 C5287 1.511 . S
C5285 C5281 1.376 . S
C5285 C5284 1.392 . S
C5285 H5297 0.929 . S
C5286 C5282 1.531 . S
C5286 H5298 0.960 . S
C5286 H5299 0.962 . S
C5286 H5300 0.960 . S
C5287 C5284 1.511 . S
C5287 H5301 0.961 . S
C5287 H5302 0.961 . S
C5287 H5303 0.961 . S
C5288 C5289 1.370 . S
C5288 C5290 1.363 . S
C5288 H5304 0.931 . S
C5289 C5288 1.370 . S
C5289 C5293 1.408 . S
C5290 C5288 1.363 . S
C5290 C5291 1.370 . S
C5290 C5294 1.524 . S
C5291 C5283 1.503 . S
C5291 C5290 1.370 . S
C5291 C5292 1.403 . S
C5292 C5291 1.403 . S
C5292 C5293 1.404 . S
C5292 C5295 1.539 . S
C5293 C5289 1.408 . S
C5293 C5292 1.404 . S
C5293 H5305 0.930 . S
C5294 C5290 1.524 . S
C5294 H5306 0.956 . S
C5294 H5307 0.961 . S
C5294 H5308 0.961 . S
C5295 C5292 1.539 . S
C5295 H5309 0.958 . S
C5295 H5310 0.961 . S
C5295 H5311 0.960 . S
H5296 C5280 0.931 . S
H5297 C5285 0.929 . S
H5298 C5286 0.960 . S
H5299 C5286 0.962 . S
H5300 C5286 0.960 . S
H5301 C5287 0.961 . S
H5302 C5287 0.961 . S
H5303 C5287 0.961 . S
H5304 C5288 0.931 . S
H5305 C5293 0.930 . S
H5306 C5294 0.956 . S
H5307 C5294 0.961 . S
H5308 C5294 0.961 . S
H5309 C5295 0.958 . S
H5310 C5295 0.961 . S
H5311 C5295 0.960 . S
C5312 C5313 1.391 . S
C5312 C5314 1.394 . S
C5312 H5328 0.931 . S
C5313 C5312 1.391 . S
C5313 C5317 1.376 . S
C5314 C5312 1.394 . S
C5314 C5315 1.369 . S
C5314 C5318 1.531 . S
C5315 C5314 1.369 . S
C5315 C5316 1.410 . S
C5315 C5323 1.503 . S
C5316 C5315 1.410 . S
C5316 C5317 1.392 . S
C5316 C5319 1.511 . S
C5317 C5313 1.376 . S
C5317 C5316 1.392 . S
C5317 H5329 0.929 . S
C5318 C5314 1.531 . S
C5318 H5330 0.960 . S
C5318 H5331 0.962 . S
C5318 H5332 0.960 . S
C5319 C5316 1.511 . S
C5319 H5333 0.961 . S
C5319 H5334 0.961 . S
C5319 H5335 0.961 . S
C5320 C5321 1.370 . S
C5320 C5322 1.363 . S
C5320 H5336 0.931 . S
C5321 C5320 1.370 . S
C5321 C5325 1.408 . S
C5322 C5320 1.363 . S
C5322 C5323 1.370 . S
C5322 C5326 1.524 . S
C5323 C5315 1.503 . S
C5323 C5322 1.370 . S
C5323 C5324 1.403 . S
C5324 C5323 1.403 . S
C5324 C5325 1.404 . S
C5324 C5327 1.539 . S
C5325 C5321 1.408 . S
C5325 C5324 1.404 . S
C5325 H5337 0.930 . S
C5326 C5322 1.524 . S
C5326 H5338 0.956 . S
C5326 H5339 0.961 . S
C5326 H5340 0.961 . S
C5327 C5324 1.539 . S
C5327 H5341 0.958 . S
C5327 H5342 0.961 . S
C5327 H5343 0.960 . S
H5328 C5312 0.931 . S
H5329 C5317 0.929 . S
H5330 C5318 0.960 . S
H5331 C5318 0.962 . S
H5332 C5318 0.960 . S
H5333 C5319 0.961 . S
H5334 C5319 0.961 . S
H5335 C5319 0.961 . S
H5336 C5320 0.931 . S
H5337 C5325 0.930 . S
H5338 C5326 0.956 . S
H5339 C5326 0.961 . S
H5340 C5326 0.961 . S
H5341 C5327 0.958 . S
H5342 C5327 0.961 . S
H5343 C5327 0.960 . S
C5344 C5345 1.391 . S
C5344 C5346 1.394 . S
C5344 H5360 0.931 . S
C5345 C5344 1.391 . S
C5345 C5349 1.376 . S
C5346 C5344 1.394 . S
C5346 C5347 1.369 . S
C5346 C5350 1.531 . S
C5347 C5346 1.369 . S
C5347 C5348 1.410 . S
C5347 C5355 1.503 . S
C5348 C5347 1.410 . S
C5348 C5349 1.392 . S
C5348 C5351 1.511 . S
C5349 C5345 1.376 . S
C5349 C5348 1.392 . S
C5349 H5361 0.929 . S
C5350 C5346 1.531 . S
C5350 H5362 0.960 . S
C5350 H5363 0.962 . S
C5350 H5364 0.960 . S
C5351 C5348 1.511 . S
C5351 H5365 0.961 . S
C5351 H5366 0.961 . S
C5351 H5367 0.961 . S
C5352 C5353 1.370 . S
C5352 C5354 1.363 . S
C5352 H5368 0.931 . S
C5353 C5352 1.370 . S
C5353 C5357 1.408 . S
C5354 C5352 1.363 . S
C5354 C5355 1.370 . S
C5354 C5358 1.524 . S
C5355 C5347 1.503 . S
C5355 C5354 1.370 . S
C5355 C5356 1.403 . S
C5356 C5355 1.403 . S
C5356 C5357 1.404 . S
C5356 C5359 1.539 . S
C5357 C5353 1.408 . S
C5357 C5356 1.404 . S
C5357 H5369 0.930 . S
C5358 C5354 1.524 . S
C5358 H5370 0.956 . S
C5358 H5371 0.961 . S
C5358 H5372 0.961 . S
C5359 C5356 1.539 . S
C5359 H5373 0.958 . S
C5359 H5374 0.961 . S
C5359 H5375 0.960 . S
H5360 C5344 0.931 . S
H5361 C5349 0.929 . S
H5362 C5350 0.960 . S
H5363 C5350 0.962 . S
H5364 C5350 0.960 . S
H5365 C5351 0.961 . S
H5366 C5351 0.961 . S
H5367 C5351 0.961 . S
H5368 C5352 0.931 . S
H5369 C5357 0.930 . S
H5370 C5358 0.956 . S
H5371 C5358 0.961 . S
H5372 C5358 0.961 . S
H5373 C5359 0.958 . S
H5374 C5359 0.961 . S
H5375 C5359 0.960 . S
C5376 C5377 1.391 . S
C5376 C5378 1.394 . S
C5376 H5392 0.931 . S
C5377 C5376 1.391 . S
C5377 C5381 1.376 . S
C5378 C5376 1.394 . S
C5378 C5379 1.369 . S
C5378 C5382 1.531 . S
C5379 C5378 1.369 . S
C5379 C5380 1.410 . S
C5379 C5387 1.503 . S
C5380 C5379 1.410 . S
C5380 C5381 1.392 . S
C5380 C5383 1.511 . S
C5381 C5377 1.376 . S
C5381 C5380 1.392 . S
C5381 H5393 0.929 . S
C5382 C5378 1.531 . S
C5382 H5394 0.960 . S
C5382 H5395 0.962 . S
C5382 H5396 0.960 . S
C5383 C5380 1.511 . S
C5383 H5397 0.961 . S
C5383 H5398 0.961 . S
C5383 H5399 0.961 . S
C5384 C5385 1.370 . S
C5384 C5386 1.363 . S
C5384 H5400 0.931 . S
C5385 C5384 1.370 . S
C5385 C5389 1.408 . S
C5386 C5384 1.363 . S
C5386 C5387 1.370 . S
C5386 C5390 1.524 . S
C5387 C5379 1.503 . S
C5387 C5386 1.370 . S
C5387 C5388 1.403 . S
C5388 C5387 1.403 . S
C5388 C5389 1.404 . S
C5388 C5391 1.539 . S
C5389 C5385 1.408 . S
C5389 C5388 1.404 . S
C5389 H5401 0.930 . S
C5390 C5386 1.524 . S
C5390 H5402 0.956 . S
C5390 H5403 0.961 . S
C5390 H5404 0.961 . S
C5391 C5388 1.539 . S
C5391 H5405 0.958 . S
C5391 H5406 0.961 . S
C5391 H5407 0.960 . S
H5392 C5376 0.931 . S
H5393 C5381 0.929 . S
H5394 C5382 0.960 . S
H5395 C5382 0.962 . S
H5396 C5382 0.960 . S
H5397 C5383 0.961 . S
H5398 C5383 0.961 . S
H5399 C5383 0.961 . S
H5400 C5384 0.931 . S
H5401 C5389 0.930 . S
H5402 C5390 0.956 . S
H5403 C5390 0.961 . S
H5404 C5390 0.961 . S
H5405 C5391 0.958 . S
H5406 C5391 0.961 . S
H5407 C5391 0.960 . S
C5408 C5409 1.391 . S
C5408 C5410 1.394 . S
C5408 H5424 0.931 . S
C5409 C5408 1.391 . S
C5409 C5413 1.376 . S
C5410 C5408 1.394 . S
C5410 C5411 1.369 . S
C5410 C5414 1.531 . S
C5411 C5410 1.369 . S
C5411 C5412 1.410 . S
C5411 C5419 1.503 . S
C5412 C5411 1.410 . S
C5412 C5413 1.392 . S
C5412 C5415 1.511 . S
C5413 C5409 1.376 . S
C5413 C5412 1.392 . S
C5413 H5425 0.929 . S
C5414 C5410 1.531 . S
C5414 H5426 0.960 . S
C5414 H5427 0.962 . S
C5414 H5428 0.960 . S
C5415 C5412 1.511 . S
C5415 H5429 0.961 . S
C5415 H5430 0.961 . S
C5415 H5431 0.961 . S
C5416 C5417 1.370 . S
C5416 C5418 1.363 . S
C5416 H5432 0.931 . S
C5417 C5416 1.370 . S
C5417 C5421 1.408 . S
C5418 C5416 1.363 . S
C5418 C5419 1.370 . S
C5418 C5422 1.524 . S
C5419 C5411 1.503 . S
C5419 C5418 1.370 . S
C5419 C5420 1.403 . S
C5420 C5419 1.403 . S
C5420 C5421 1.404 . S
C5420 C5423 1.539 . S
C5421 C5417 1.408 . S
C5421 C5420 1.404 . S
C5421 H5433 0.930 . S
C5422 C5418 1.524 . S
C5422 H5434 0.956 . S
C5422 H5435 0.961 . S
C5422 H5436 0.961 . S
C5423 C5420 1.539 . S
C5423 H5437 0.958 . S
C5423 H5438 0.961 . S
C5423 H5439 0.960 . S
H5424 C5408 0.931 . S
H5425 C5413 0.929 . S
H5426 C5414 0.960 . S
H5427 C5414 0.962 . S
H5428 C5414 0.960 . S
H5429 C5415 0.961 . S
H5430 C5415 0.961 . S
H5431 C5415 0.961 . S
H5432 C5416 0.931 . S
H5433 C5421 0.930 . S
H5434 C5422 0.956 . S
H5435 C5422 0.961 . S
H5436 C5422 0.961 . S
H5437 C5423 0.958 . S
H5438 C5423 0.961 . S
H5439 C5423 0.960 . S
C5440 C5441 1.391 . S
C5440 C5442 1.394 . S
C5440 H5456 0.931 . S
C5441 C5440 1.391 . S
C5441 C5445 1.376 . S
C5442 C5440 1.394 . S
C5442 C5443 1.369 . S
C5442 C5446 1.531 . S
C5443 C5442 1.369 . S
C5443 C5444 1.410 . S
C5443 C5451 1.503 . S
C5444 C5443 1.410 . S
C5444 C5445 1.392 . S
C5444 C5447 1.511 . S
C5445 C5441 1.376 . S
C5445 C5444 1.392 . S
C5445 H5457 0.929 . S
C5446 C5442 1.531 . S
C5446 H5458 0.960 . S
C5446 H5459 0.962 . S
C5446 H5460 0.960 . S
C5447 C5444 1.511 . S
C5447 H5461 0.961 . S
C5447 H5462 0.961 . S
C5447 H5463 0.961 . S
C5448 C5449 1.370 . S
C5448 C5450 1.363 . S
C5448 H5464 0.931 . S
C5449 C5448 1.370 . S
C5449 C5453 1.408 . S
C5450 C5448 1.363 . S
C5450 C5451 1.370 . S
C5450 C5454 1.524 . S
C5451 C5443 1.503 . S
C5451 C5450 1.370 . S
C5451 C5452 1.403 . S
C5452 C5451 1.403 . S
C5452 C5453 1.404 . S
C5452 C5455 1.539 . S
C5453 C5449 1.408 . S
C5453 C5452 1.404 . S
C5453 H5465 0.930 . S
C5454 C5450 1.524 . S
C5454 H5466 0.956 . S
C5454 H5467 0.961 . S
C5454 H5468 0.961 . S
C5455 C5452 1.539 . S
C5455 H5469 0.958 . S
C5455 H5470 0.961 . S
C5455 H5471 0.960 . S
H5456 C5440 0.931 . S
H5457 C5445 0.929 . S
H5458 C5446 0.960 . S
H5459 C5446 0.962 . S
H5460 C5446 0.960 . S
H5461 C5447 0.961 . S
H5462 C5447 0.961 . S
H5463 C5447 0.961 . S
H5464 C5448 0.931 . S
H5465 C5453 0.930 . S
H5466 C5454 0.956 . S
H5467 C5454 0.961 . S
H5468 C5454 0.961 . S
H5469 C5455 0.958 . S
H5470 C5455 0.961 . S
H5471 C5455 0.960 . S
C5472 C5473 1.391 . S
C5472 C5474 1.394 . S
C5472 H5488 0.931 . S
C5473 C5472 1.391 . S
C5473 C5477 1.376 . S
C5474 C5472 1.394 . S
C5474 C5475 1.369 . S
C5474 C5478 1.531 . S
C5475 C5474 1.369 . S
C5475 C5476 1.410 . S
C5475 C5483 1.503 . S
C5476 C5475 1.410 . S
C5476 C5477 1.392 . S
C5476 C5479 1.511 . S
C5477 C5473 1.376 . S
C5477 C5476 1.392 . S
C5477 H5489 0.929 . S
C5478 C5474 1.531 . S
C5478 H5490 0.960 . S
C5478 H5491 0.962 . S
C5478 H5492 0.960 . S
C5479 C5476 1.511 . S
C5479 H5493 0.961 . S
C5479 H5494 0.961 . S
C5479 H5495 0.961 . S
C5480 C5481 1.370 . S
C5480 C5482 1.363 . S
C5480 H5496 0.931 . S
C5481 C5480 1.370 . S
C5481 C5485 1.408 . S
C5482 C5480 1.363 . S
C5482 C5483 1.370 . S
C5482 C5486 1.524 . S
C5483 C5475 1.503 . S
C5483 C5482 1.370 . S
C5483 C5484 1.403 . S
C5484 C5483 1.403 . S
C5484 C5485 1.404 . S
C5484 C5487 1.539 . S
C5485 C5481 1.408 . S
C5485 C5484 1.404 . S
C5485 H5497 0.930 . S
C5486 C5482 1.524 . S
C5486 H5498 0.956 . S
C5486 H5499 0.961 . S
C5486 H5500 0.961 . S
C5487 C5484 1.539 . S
C5487 H5501 0.958 . S
C5487 H5502 0.961 . S
C5487 H5503 0.960 . S
H5488 C5472 0.931 . S
H5489 C5477 0.929 . S
H5490 C5478 0.960 . S
H5491 C5478 0.962 . S
H5492 C5478 0.960 . S
H5493 C5479 0.961 . S
H5494 C5479 0.961 . S
H5495 C5479 0.961 . S
H5496 C5480 0.931 . S
H5497 C5485 0.930 . S
H5498 C5486 0.956 . S
H5499 C5486 0.961 . S
H5500 C5486 0.961 . S
H5501 C5487 0.958 . S
H5502 C5487 0.961 . S
H5503 C5487 0.960 . S
C5504 C5505 1.391 . S
C5504 C5506 1.394 . S
C5504 H5520 0.931 . S
C5505 C5504 1.391 . S
C5505 C5509 1.376 . S
C5506 C5504 1.394 . S
C5506 C5507 1.369 . S
C5506 C5510 1.531 . S
C5507 C5506 1.369 . S
C5507 C5508 1.410 . S
C5507 C5515 1.503 . S
C5508 C5507 1.410 . S
C5508 C5509 1.392 . S
C5508 C5511 1.511 . S
C5509 C5505 1.376 . S
C5509 C5508 1.392 . S
C5509 H5521 0.929 . S
C5510 C5506 1.531 . S
C5510 H5522 0.960 . S
C5510 H5523 0.962 . S
C5510 H5524 0.960 . S
C5511 C5508 1.511 . S
C5511 H5525 0.961 . S
C5511 H5526 0.961 . S
C5511 H5527 0.961 . S
C5512 C5513 1.370 . S
C5512 C5514 1.363 . S
C5512 H5528 0.931 . S
C5513 C5512 1.370 . S
C5513 C5517 1.408 . S
C5514 C5512 1.363 . S
C5514 C5515 1.370 . S
C5514 C5518 1.524 . S
C5515 C5507 1.503 . S
C5515 C5514 1.370 . S
C5515 C5516 1.403 . S
C5516 C5515 1.403 . S
C5516 C5517 1.404 . S
C5516 C5519 1.539 . S
C5517 C5513 1.408 . S
C5517 C5516 1.404 . S
C5517 H5529 0.930 . S
C5518 C5514 1.524 . S
C5518 H5530 0.956 . S
C5518 H5531 0.961 . S
C5518 H5532 0.961 . S
C5519 C5516 1.539 . S
C5519 H5533 0.958 . S
C5519 H5534 0.961 . S
C5519 H5535 0.960 . S
H5520 C5504 0.931 . S
H5521 C5509 0.929 . S
H5522 C5510 0.960 . S
H5523 C5510 0.962 . S
H5524 C5510 0.960 . S
H5525 C5511 0.961 . S
H5526 C5511 0.961 . S
H5527 C5511 0.961 . S
H5528 C5512 0.931 . S
H5529 C5517 0.930 . S
H5530 C5518 0.956 . S
H5531 C5518 0.961 . S
H5532 C5518 0.961 . S
H5533 C5519 0.958 . S
H5534 C5519 0.961 . S
H5535 C5519 0.960 . S
C5536 C5537 1.391 . S
C5536 C5538 1.394 . S
C5536 H5552 0.931 . S
C5537 C5536 1.391 . S
C5537 C5541 1.376 . S
C5538 C5536 1.394 . S
C5538 C5539 1.369 . S
C5538 C5542 1.531 . S
C5539 C5538 1.369 . S
C5539 C5540 1.410 . S
C5539 C5547 1.503 . S
C5540 C5539 1.410 . S
C5540 C5541 1.392 . S
C5540 C5543 1.511 . S
C5541 C5537 1.376 . S
C5541 C5540 1.392 . S
C5541 H5553 0.929 . S
C5542 C5538 1.531 . S
C5542 H5554 0.960 . S
C5542 H5555 0.962 . S
C5542 H5556 0.960 . S
C5543 C5540 1.511 . S
C5543 H5557 0.961 . S
C5543 H5558 0.961 . S
C5543 H5559 0.961 . S
C5544 C5545 1.370 . S
C5544 C5546 1.363 . S
C5544 H5560 0.931 . S
C5545 C5544 1.370 . S
C5545 C5549 1.408 . S
C5546 C5544 1.363 . S
C5546 C5547 1.370 . S
C5546 C5550 1.524 . S
C5547 C5539 1.503 . S
C5547 C5546 1.370 . S
C5547 C5548 1.403 . S
C5548 C5547 1.403 . S
C5548 C5549 1.404 . S
C5548 C5551 1.539 . S
C5549 C5545 1.408 . S
C5549 C5548 1.404 . S
C5549 H5561 0.930 . S
C5550 C5546 1.524 . S
C5550 H5562 0.956 . S
C5550 H5563 0.961 . S
C5550 H5564 0.961 . S
C5551 C5548 1.539 . S
C5551 H5565 0.958 . S
C5551 H5566 0.961 . S
C5551 H5567 0.960 . S
H5552 C5536 0.931 . S
H5553 C5541 0.929 . S
H5554 C5542 0.960 . S
H5555 C5542 0.962 . S
H5556 C5542 0.960 . S
H5557 C5543 0.961 . S
H5558 C5543 0.961 . S
H5559 C5543 0.961 . S
H5560 C5544 0.931 . S
H5561 C5549 0.930 . S
H5562 C5550 0.956 . S
H5563 C5550 0.961 . S
H5564 C5550 0.961 . S
H5565 C5551 0.958 . S
H5566 C5551 0.961 . S
H5567 C5551 0.960 . S
C5568 C5569 1.391 . S
C5568 C5570 1.394 . S
C5568 H5584 0.931 . S
C5569 C5568 1.391 . S
C5569 C5573 1.376 . S
C5570 C5568 1.394 . S
C5570 C5571 1.369 . S
C5570 C5574 1.531 . S
C5571 C5570 1.369 . S
C5571 C5572 1.410 . S
C5571 C5579 1.503 . S
C5572 C5571 1.410 . S
C5572 C5573 1.392 . S
C5572 C5575 1.511 . S
C5573 C5569 1.376 . S
C5573 C5572 1.392 . S
C5573 H5585 0.929 . S
C5574 C5570 1.531 . S
C5574 H5586 0.960 . S
C5574 H5587 0.962 . S
C5574 H5588 0.960 . S
C5575 C5572 1.511 . S
C5575 H5589 0.961 . S
C5575 H5590 0.961 . S
C5575 H5591 0.961 . S
C5576 C5577 1.370 . S
C5576 C5578 1.363 . S
C5576 H5592 0.931 . S
C5577 C5576 1.370 . S
C5577 C5581 1.408 . S
C5578 C5576 1.363 . S
C5578 C5579 1.370 . S
C5578 C5582 1.524 . S
C5579 C5571 1.503 . S
C5579 C5578 1.370 . S
C5579 C5580 1.403 . S
C5580 C5579 1.403 . S
C5580 C5581 1.404 . S
C5580 C5583 1.539 . S
C5581 C5577 1.408 . S
C5581 C5580 1.404 . S
C5581 H5593 0.930 . S
C5582 C5578 1.524 . S
C5582 H5594 0.956 . S
C5582 H5595 0.961 . S
C5582 H5596 0.961 . S
C5583 C5580 1.539 . S
C5583 H5597 0.958 . S
C5583 H5598 0.961 . S
C5583 H5599 0.960 . S
H5584 C5568 0.931 . S
H5585 C5573 0.929 . S
H5586 C5574 0.960 . S
H5587 C5574 0.962 . S
H5588 C5574 0.960 . S
H5589 C5575 0.961 . S
H5590 C5575 0.961 . S
H5591 C5575 0.961 . S
H5592 C5576 0.931 . S
H5593 C5581 0.930 . S
H5594 C5582 0.956 . S
H5595 C5582 0.961 . S
H5596 C5582 0.961 . S
H5597 C5583 0.958 . S
H5598 C5583 0.961 . S
H5599 C5583 0.960 . S
C5600 C5601 1.391 . S
C5600 C5602 1.394 . S
C5600 H5616 0.931 . S
C5601 C5600 1.391 . S
C5601 C5605 1.376 . S
C5602 C5600 1.394 . S
C5602 C5603 1.369 . S
C5602 C5606 1.531 . S
C5603 C5602 1.369 . S
C5603 C5604 1.410 . S
C5603 C5611 1.503 . S
C5604 C5603 1.410 . S
C5604 C5605 1.392 . S
C5604 C5607 1.511 . S
C5605 C5601 1.376 . S
C5605 C5604 1.392 . S
C5605 H5617 0.929 . S
C5606 C5602 1.531 . S
C5606 H5618 0.960 . S
C5606 H5619 0.962 . S
C5606 H5620 0.960 . S
C5607 C5604 1.511 . S
C5607 H5621 0.961 . S
C5607 H5622 0.961 . S
C5607 H5623 0.961 . S
C5608 C5609 1.370 . S
C5608 C5610 1.363 . S
C5608 H5624 0.931 . S
C5609 C5608 1.370 . S
C5609 C5613 1.408 . S
C5610 C5608 1.363 . S
C5610 C5611 1.370 . S
C5610 C5614 1.524 . S
C5611 C5603 1.503 . S
C5611 C5610 1.370 . S
C5611 C5612 1.403 . S
C5612 C5611 1.403 . S
C5612 C5613 1.404 . S
C5612 C5615 1.539 . S
C5613 C5609 1.408 . S
C5613 C5612 1.404 . S
C5613 H5625 0.930 . S
C5614 C5610 1.524 . S
C5614 H5626 0.956 . S
C5614 H5627 0.961 . S
C5614 H5628 0.961 . S
C5615 C5612 1.539 . S
C5615 H5629 0.958 . S
C5615 H5630 0.961 . S
C5615 H5631 0.960 . S
H5616 C5600 0.931 . S
H5617 C5605 0.929 . S
H5618 C5606 0.960 . S
H5619 C5606 0.962 . S
H5620 C5606 0.960 . S
H5621 C5607 0.961 . S
H5622 C5607 0.961 . S
H5623 C5607 0.961 . S
H5624 C5608 0.931 . S
H5625 C5613 0.930 . S
H5626 C5614 0.956 . S
H5627 C5614 0.961 . S
H5628 C5614 0.961 . S
H5629 C5615 0.958 . S
H5630 C5615 0.961 . S
H5631 C5615 0.960 . S
C5632 C5633 1.391 . S
C5632 C5634 1.394 . S
C5632 H5648 0.931 . S
C5633 C5632 1.391 . S
C5633 C5637 1.376 . S
C5634 C5632 1.394 . S
C5634 C5635 1.369 . S
C5634 C5638 1.531 . S
C5635 C5634 1.369 . S
C5635 C5636 1.410 . S
C5635 C5643 1.503 . S
C5636 C5635 1.410 . S
C5636 C5637 1.392 . S
C5636 C5639 1.511 . S
C5637 C5633 1.376 . S
C5637 C5636 1.392 . S
C5637 H5649 0.929 . S
C5638 C5634 1.531 . S
C5638 H5650 0.960 . S
C5638 H5651 0.962 . S
C5638 H5652 0.960 . S
C5639 C5636 1.511 . S
C5639 H5653 0.961 . S
C5639 H5654 0.961 . S
C5639 H5655 0.961 . S
C5640 C5641 1.370 . S
C5640 C5642 1.363 . S
C5640 H5656 0.931 . S
C5641 C5640 1.370 . S
C5641 C5645 1.408 . S
C5642 C5640 1.363 . S
C5642 C5643 1.370 . S
C5642 C5646 1.524 . S
C5643 C5635 1.503 . S
C5643 C5642 1.370 . S
C5643 C5644 1.403 . S
C5644 C5643 1.403 . S
C5644 C5645 1.404 . S
C5644 C5647 1.539 . S
C5645 C5641 1.408 . S
C5645 C5644 1.404 . S
C5645 H5657 0.930 . S
C5646 C5642 1.524 . S
C5646 H5658 0.956 . S
C5646 H5659 0.961 . S
C5646 H5660 0.961 . S
C5647 C5644 1.539 . S
C5647 H5661 0.958 . S
C5647 H5662 0.961 . S
C5647 H5663 0.960 . S
H5648 C5632 0.931 . S
H5649 C5637 0.929 . S
H5650 C5638 0.960 . S
H5651 C5638 0.962 . S
H5652 C5638 0.960 . S
H5653 C5639 0.961 . S
H5654 C5639 0.961 . S
H5655 C5639 0.961 . S
H5656 C5640 0.931 . S
H5657 C5645 0.930 . S
H5658 C5646 0.956 . S
H5659 C5646 0.961 . S
H5660 C5646 0.961 . S
H5661 C5647 0.958 . S
H5662 C5647 0.961 . S
H5663 C5647 0.960 . S
C5664 C5665 1.391 . S
C5664 C5666 1.394 . S
C5664 H5680 0.931 . S
C5665 C5664 1.391 . S
C5665 C5669 1.376 . S
C5666 C5664 1.394 . S
C5666 C5667 1.369 . S
C5666 C5670 1.531 . S
C5667 C5666 1.369 . S
C5667 C5668 1.410 . S
C5667 C5675 1.503 . S
C5668 C5667 1.410 . S
C5668 C5669 1.392 . S
C5668 C5671 1.511 . S
C5669 C5665 1.376 . S
C5669 C5668 1.392 . S
C5669 H5681 0.929 . S
C5670 C5666 1.531 . S
C5670 H5682 0.960 . S
C5670 H5683 0.962 . S
C5670 H5684 0.960 . S
C5671 C5668 1.511 . S
C5671 H5685 0.961 . S
C5671 H5686 0.961 . S
C5671 H5687 0.961 . S
C5672 C5673 1.370 . S
C5672 C5674 1.363 . S
C5672 H5688 0.931 . S
C5673 C5672 1.370 . S
C5673 C5677 1.408 . S
C5674 C5672 1.363 . S
C5674 C5675 1.370 . S
C5674 C5678 1.524 . S
C5675 C5667 1.503 . S
C5675 C5674 1.370 . S
C5675 C5676 1.403 . S
C5676 C5675 1.403 . S
C5676 C5677 1.404 . S
C5676 C5679 1.539 . S
C5677 C5673 1.408 . S
C5677 C5676 1.404 . S
C5677 H5689 0.930 . S
C5678 C5674 1.524 . S
C5678 H5690 0.956 . S
C5678 H5691 0.961 . S
C5678 H5692 0.961 . S
C5679 C5676 1.539 . S
C5679 H5693 0.958 . S
C5679 H5694 0.961 . S
C5679 H5695 0.960 . S
H5680 C5664 0.931 . S
H5681 C5669 0.929 . S
H5682 C5670 0.960 . S
H5683 C5670 0.962 . S
H5684 C5670 0.960 . S
H5685 C5671 0.961 . S
H5686 C5671 0.961 . S
H5687 C5671 0.961 . S
H5688 C5672 0.931 . S
H5689 C5677 0.930 . S
H5690 C5678 0.956 . S
H5691 C5678 0.961 . S
H5692 C5678 0.961 . S
H5693 C5679 0.958 . S
H5694 C5679 0.961 . S
H5695 C5679 0.960 . S
C5696 C5697 1.391 . S
C5696 C5698 1.394 . S
C5696 H5712 0.931 . S
C5697 C5696 1.391 . S
C5697 C5701 1.376 . S
C5698 C5696 1.394 . S
C5698 C5699 1.369 . S
C5698 C5702 1.531 . S
C5699 C5698 1.369 . S
C5699 C5700 1.410 . S
C5699 C5707 1.503 . S
C5700 C5699 1.410 . S
C5700 C5701 1.392 . S
C5700 C5703 1.511 . S
C5701 C5697 1.376 . S
C5701 C5700 1.392 . S
C5701 H5713 0.929 . S
C5702 C5698 1.531 . S
C5702 H5714 0.960 . S
C5702 H5715 0.962 . S
C5702 H5716 0.960 . S
C5703 C5700 1.511 . S
C5703 H5717 0.961 . S
C5703 H5718 0.961 . S
C5703 H5719 0.961 . S
C5704 C5705 1.370 . S
C5704 C5706 1.363 . S
C5704 H5720 0.931 . S
C5705 C5704 1.370 . S
C5705 C5709 1.408 . S
C5706 C5704 1.363 . S
C5706 C5707 1.370 . S
C5706 C5710 1.524 . S
C5707 C5699 1.503 . S
C5707 C5706 1.370 . S
C5707 C5708 1.403 . S
C5708 C5707 1.403 . S
C5708 C5709 1.404 . S
C5708 C5711 1.539 . S
C5709 C5705 1.408 . S
C5709 C5708 1.404 . S
C5709 H5721 0.930 . S
C5710 C5706 1.524 . S
C5710 H5722 0.956 . S
C5710 H5723 0.961 . S
C5710 H5724 0.961 . S
C5711 C5708 1.539 . S
C5711 H5725 0.958 . S
C5711 H5726 0.961 . S
C5711 H5727 0.960 . S
H5712 C5696 0.931 . S
H5713 C5701 0.929 . S
H5714 C5702 0.960 . S
H5715 C5702 0.962 . S
H5716 C5702 0.960 . S
H5717 C5703 0.961 . S
H5718 C5703 0.961 . S
H5719 C5703 0.961 . S
H5720 C5704 0.931 . S
H5721 C5709 0.930 . S
H5722 C5710 0.956 . S
H5723 C5710 0.961 . S
H5724 C5710 0.961 . S
H5725 C5711 0.958 . S
H5726 C5711 0.961 . S
H5727 C5711 0.960 . S
C5728 C5729 1.391 . S
C5728 C5730 1.394 . S
C5728 H5744 0.931 . S
C5729 C5728 1.391 . S
C5729 C5733 1.376 . S
C5730 C5728 1.394 . S
C5730 C5731 1.369 . S
C5730 C5734 1.531 . S
C5731 C5730 1.369 . S
C5731 C5732 1.410 . S
C5731 C5739 1.503 . S
C5732 C5731 1.410 . S
C5732 C5733 1.392 . S
C5732 C5735 1.511 . S
C5733 C5729 1.376 . S
C5733 C5732 1.392 . S
C5733 H5745 0.929 . S
C5734 C5730 1.531 . S
C5734 H5746 0.960 . S
C5734 H5747 0.962 . S
C5734 H5748 0.960 . S
C5735 C5732 1.511 . S
C5735 H5749 0.961 . S
C5735 H5750 0.961 . S
C5735 H5751 0.961 . S
C5736 C5737 1.370 . S
C5736 C5738 1.363 . S
C5736 H5752 0.931 . S
C5737 C5736 1.370 . S
C5737 C5741 1.408 . S
C5738 C5736 1.363 . S
C5738 C5739 1.370 . S
C5738 C5742 1.524 . S
C5739 C5731 1.503 . S
C5739 C5738 1.370 . S
C5739 C5740 1.403 . S
C5740 C5739 1.403 . S
C5740 C5741 1.404 . S
C5740 C5743 1.539 . S
C5741 C5737 1.408 . S
C5741 C5740 1.404 . S
C5741 H5753 0.930 . S
C5742 C5738 1.524 . S
C5742 H5754 0.956 . S
C5742 H5755 0.961 . S
C5742 H5756 0.961 . S
C5743 C5740 1.539 . S
C5743 H5757 0.958 . S
C5743 H5758 0.961 . S
C5743 H5759 0.960 . S
H5744 C5728 0.931 . S
H5745 C5733 0.929 . S
H5746 C5734 0.960 . S
H5747 C5734 0.962 . S
H5748 C5734 0.960 . S
H5749 C5735 0.961 . S
H5750 C5735 0.961 . S
H5751 C5735 0.961 . S
H5752 C5736 0.931 . S
H5753 C5741 0.930 . S
H5754 C5742 0.956 . S
H5755 C5742 0.961 . S
H5756 C5742 0.961 . S
H5757 C5743 0.958 . S
H5758 C5743 0.961 . S
H5759 C5743 0.960 . S
C5760 C5761 1.391 . S
C5760 C5762 1.394 . S
C5760 H5776 0.931 . S
C5761 C5760 1.391 . S
C5761 C5765 1.376 . S
C5762 C5760 1.394 . S
C5762 C5763 1.369 . S
C5762 C5766 1.531 . S
C5763 C5762 1.369 . S
C5763 C5764 1.410 . S
C5763 C5771 1.503 . S
C5764 C5763 1.410 . S
C5764 C5765 1.392 . S
C5764 C5767 1.511 . S
C5765 C5761 1.376 . S
C5765 C5764 1.392 . S
C5765 H5777 0.929 . S
C5766 C5762 1.531 . S
C5766 H5778 0.960 . S
C5766 H5779 0.962 . S
C5766 H5780 0.960 . S
C5767 C5764 1.511 . S
C5767 H5781 0.961 . S
C5767 H5782 0.961 . S
C5767 H5783 0.961 . S
C5768 C5769 1.370 . S
C5768 C5770 1.363 . S
C5768 H5784 0.931 . S
C5769 C5768 1.370 . S
C5769 C5773 1.408 . S
C5770 C5768 1.363 . S
C5770 C5771 1.370 . S
C5770 C5774 1.524 . S
C5771 C5763 1.503 . S
C5771 C5770 1.370 . S
C5771 C5772 1.403 . S
C5772 C5771 1.403 . S
C5772 C5773 1.404 . S
C5772 C5775 1.539 . S
C5773 C5769 1.408 . S
C5773 C5772 1.404 . S
C5773 H5785 0.930 . S
C5774 C5770 1.524 . S
C5774 H5786 0.956 . S
C5774 H5787 0.961 . S
C5774 H5788 0.961 . S
C5775 C5772 1.539 . S
C5775 H5789 0.958 . S
C5775 H5790 0.961 . S
C5775 H5791 0.960 . S
H5776 C5760 0.931 . S
H5777 C5765 0.929 . S
H5778 C5766 0.960 . S
H5779 C5766 0.962 . S
H5780 C5766 0.960 . S
H5781 C5767 0.961 . S
H5782 C5767 0.961 . S
H5783 C5767 0.961 . S
H5784 C5768 0.931 . S
H5785 C5773 0.930 . S
H5786 C5774 0.956 . S
H5787 C5774 0.961 . S
H5788 C5774 0.961 . S
H5789 C5775 0.958 . S
H5790 C5775 0.961 . S
H5791 C5775 0.960 . S
C5792 C5793 1.391 . S
C5792 C5794 1.394 . S
C5792 H5808 0.931 . S
C5793 C5792 1.391 . S
C5793 C5797 1.376 . S
C5794 C5792 1.394 . S
C5794 C5795 1.369 . S
C5794 C5798 1.531 . S
C5795 C5794 1.369 . S
C5795 C5796 1.410 . S
C5795 C5803 1.503 . S
C5796 C5795 1.410 . S
C5796 C5797 1.392 . S
C5796 C5799 1.511 . S
C5797 C5793 1.376 . S
C5797 C5796 1.392 . S
C5797 H5809 0.929 . S
C5798 C5794 1.531 . S
C5798 H5810 0.960 . S
C5798 H5811 0.962 . S
C5798 H5812 0.960 . S
C5799 C5796 1.511 . S
C5799 H5813 0.961 . S
C5799 H5814 0.961 . S
C5799 H5815 0.961 . S
C5800 C5801 1.370 . S
C5800 C5802 1.363 . S
C5800 H5816 0.931 . S
C5801 C5800 1.370 . S
C5801 C5805 1.408 . S
C5802 C5800 1.363 . S
C5802 C5803 1.370 . S
C5802 C5806 1.524 . S
C5803 C5795 1.503 . S
C5803 C5802 1.370 . S
C5803 C5804 1.403 . S
C5804 C5803 1.403 . S
C5804 C5805 1.404 . S
C5804 C5807 1.539 . S
C5805 C5801 1.408 . S
C5805 C5804 1.404 . S
C5805 H5817 0.930 . S
C5806 C5802 1.524 . S
C5806 H5818 0.956 . S
C5806 H5819 0.961 . S
C5806 H5820 0.961 . S
C5807 C5804 1.539 . S
C5807 H5821 0.958 . S
C5807 H5822 0.961 . S
C5807 H5823 0.960 . S
H5808 C5792 0.931 . S
H5809 C5797 0.929 . S
H5810 C5798 0.960 . S
H5811 C5798 0.962 . S
H5812 C5798 0.960 . S
H5813 C5799 0.961 . S
H5814 C5799 0.961 . S
H5815 C5799 0.961 . S
H5816 C5800 0.931 . S
H5817 C5805 0.930 . S
H5818 C5806 0.956 . S
H5819 C5806 0.961 . S
H5820 C5806 0.961 . S
H5821 C5807 0.958 . S
H5822 C5807 0.961 . S
H5823 C5807 0.960 . S
C5824 C5825 1.391 . S
C5824 C5826 1.394 . S
C5824 H5840 0.931 . S
C5825 C5824 1.391 . S
C5825 C5829 1.376 . S
C5826 C5824 1.394 . S
C5826 C5827 1.369 . S
C5826 C5830 1.531 . S
C5827 C5826 1.369 . S
C5827 C5828 1.410 . S
C5827 C5835 1.503 . S
C5828 C5827 1.410 . S
C5828 C5829 1.392 . S
C5828 C5831 1.511 . S
C5829 C5825 1.376 . S
C5829 C5828 1.392 . S
C5829 H5841 0.929 . S
C5830 C5826 1.531 . S
C5830 H5842 0.960 . S
C5830 H5843 0.962 . S
C5830 H5844 0.960 . S
C5831 C5828 1.511 . S
C5831 H5845 0.961 . S
C5831 H5846 0.961 . S
C5831 H5847 0.961 . S
C5832 C5833 1.370 . S
C5832 C5834 1.363 . S
C5832 H5848 0.931 . S
C5833 C5832 1.370 . S
C5833 C5837 1.408 . S
C5834 C5832 1.363 . S
C5834 C5835 1.370 . S
C5834 C5838 1.524 . S
C5835 C5827 1.503 . S
C5835 C5834 1.370 . S
C5835 C5836 1.403 . S
C5836 C5835 1.403 . S
C5836 C5837 1.404 . S
C5836 C5839 1.539 . S
C5837 C5833 1.408 . S
C5837 C5836 1.404 . S
C5837 H5849 0.930 . S
C5838 C5834 1.524 . S
C5838 H5850 0.956 . S
C5838 H5851 0.961 . S
C5838 H5852 0.961 . S
C5839 C5836 1.539 . S
C5839 H5853 0.958 . S
C5839 H5854 0.961 . S
C5839 H5855 0.960 . S
H5840 C5824 0.931 . S
H5841 C5829 0.929 . S
H5842 C5830 0.960 . S
H5843 C5830 0.962 . S
H5844 C5830 0.960 . S
H5845 C5831 0.961 . S
H5846 C5831 0.961 . S
H5847 C5831 0.961 . S
H5848 C5832 0.931 . S
H5849 C5837 0.930 . S
H5850 C5838 0.956 . S
H5851 C5838 0.961 . S
H5852 C5838 0.961 . S
H5853 C5839 0.958 . S
H5854 C5839 0.961 . S
H5855 C5839 0.960 . S
C5856 C5857 1.391 . S
C5856 C5858 1.394 . S
C5856 H5872 0.931 . S
C5857 C5856 1.391 . S
C5857 C5861 1.376 . S
C5858 C5856 1.394 . S
C5858 C5859 1.369 . S
C5858 C5862 1.531 . S
C5859 C5858 1.369 . S
C5859 C5860 1.410 . S
C5859 C5867 1.503 . S
C5860 C5859 1.410 . S
C5860 C5861 1.392 . S
C5860 C5863 1.511 . S
C5861 C5857 1.376 . S
C5861 C5860 1.392 . S
C5861 H5873 0.929 . S
C5862 C5858 1.531 . S
C5862 H5874 0.960 . S
C5862 H5875 0.962 . S
C5862 H5876 0.960 . S
C5863 C5860 1.511 . S
C5863 H5877 0.961 . S
C5863 H5878 0.961 . S
C5863 H5879 0.961 . S
C5864 C5865 1.370 . S
C5864 C5866 1.363 . S
C5864 H5880 0.931 . S
C5865 C5864 1.370 . S
C5865 C5869 1.408 . S
C5866 C5864 1.363 . S
C5866 C5867 1.370 . S
C5866 C5870 1.524 . S
C5867 C5859 1.503 . S
C5867 C5866 1.370 . S
C5867 C5868 1.403 . S
C5868 C5867 1.403 . S
C5868 C5869 1.404 . S
C5868 C5871 1.539 . S
C5869 C5865 1.408 . S
C5869 C5868 1.404 . S
C5869 H5881 0.930 . S
C5870 C5866 1.524 . S
C5870 H5882 0.956 . S
C5870 H5883 0.961 . S
C5870 H5884 0.961 . S
C5871 C5868 1.539 . S
C5871 H5885 0.958 . S
C5871 H5886 0.961 . S
C5871 H5887 0.960 . S
H5872 C5856 0.931 . S
H5873 C5861 0.929 . S
H5874 C5862 0.960 . S
H5875 C5862 0.962 . S
H5876 C5862 0.960 . S
H5877 C5863 0.961 . S
H5878 C5863 0.961 . S
H5879 C5863 0.961 . S
H5880 C5864 0.931 . S
H5881 C5869 0.930 . S
H5882 C5870 0.956 . S
H5883 C5870 0.961 . S
H5884 C5870 0.961 . S
H5885 C5871 0.958 . S
H5886 C5871 0.961 . S
H5887 C5871 0.960 . S
C5888 C5889 1.391 . S
C5888 C5890 1.394 . S
C5888 H5904 0.931 . S
C5889 C5888 1.391 . S
C5889 C5893 1.376 . S
C5890 C5888 1.394 . S
C5890 C5891 1.369 . S
C5890 C5894 1.531 . S
C5891 C5890 1.369 . S
C5891 C5892 1.410 . S
C5891 C5899 1.503 . S
C5892 C5891 1.410 . S
C5892 C5893 1.392 . S
C5892 C5895 1.511 . S
C5893 C5889 1.376 . S
C5893 C5892 1.392 . S
C5893 H5905 0.929 . S
C5894 C5890 1.531 . S
C5894 H5906 0.960 . S
C5894 H5907 0.962 . S
C5894 H5908 0.960 . S
C5895 C5892 1.511 . S
C5895 H5909 0.961 . S
C5895 H5910 0.961 . S
C5895 H5911 0.961 . S
C5896 C5897 1.370 . S
C5896 C5898 1.363 . S
C5896 H5912 0.931 . S
C5897 C5896 1.370 . S
C5897 C5901 1.408 . S
C5898 C5896 1.363 . S
C5898 C5899 1.370 . S
C5898 C5902 1.524 . S
C5899 C5891 1.503 . S
C5899 C5898 1.370 . S
C5899 C5900 1.403 . S
C5900 C5899 1.403 . S
C5900 C5901 1.404 . S
C5900 C5903 1.539 . S
C5901 C5897 1.408 . S
C5901 C5900 1.404 . S
C5901 H5913 0.930 . S
C5902 C5898 1.524 . S
C5902 H5914 0.956 . S
C5902 H5915 0.961 . S
C5902 H5916 0.961 . S
C5903 C5900 1.539 . S
C5903 H5917 0.958 . S
C5903 H5918 0.961 . S
C5903 H5919 0.960 . S
H5904 C5888 0.931 . S
H5905 C5893 0.929 . S
H5906 C5894 0.960 . S
H5907 C5894 0.962 . S
H5908 C5894 0.960 . S
H5909 C5895 0.961 . S
H5910 C5895 0.961 . S
H5911 C5895 0.961 . S
H5912 C5896 0.931 . S
H5913 C5901 0.930 . S
H5914 C5902 0.956 . S
H5915 C5902 0.961 . S
H5916 C5902 0.961 . S
H5917 C5903 0.958 . S
H5918 C5903 0.961 . S
H5919 C5903 0.960 . S
C5920 C5921 1.391 . S
C5920 C5922 1.394 . S
C5920 H5936 0.931 . S
C5921 C5920 1.391 . S
C5921 C5925 1.376 . S
C5922 C5920 1.394 . S
C5922 C5923 1.369 . S
C5922 C5926 1.531 . S
C5923 C5922 1.369 . S
C5923 C5924 1.410 . S
C5923 C5931 1.503 . S
C5924 C5923 1.410 . S
C5924 C5925 1.392 . S
C5924 C5927 1.511 . S
C5925 C5921 1.376 . S
C5925 C5924 1.392 . S
C5925 H5937 0.929 . S
C5926 C5922 1.531 . S
C5926 H5938 0.960 . S
C5926 H5939 0.962 . S
C5926 H5940 0.960 . S
C5927 C5924 1.511 . S
C5927 H5941 0.961 . S
C5927 H5942 0.961 . S
C5927 H5943 0.961 . S
C5928 C5929 1.370 . S
C5928 C5930 1.363 . S
C5928 H5944 0.931 . S
C5929 C5928 1.370 . S
C5929 C5933 1.408 . S
C5930 C5928 1.363 . S
C5930 C5931 1.370 . S
C5930 C5934 1.524 . S
C5931 C5923 1.503 . S
C5931 C5930 1.370 . S
C5931 C5932 1.403 . S
C5932 C5931 1.403 . S
C5932 C5933 1.404 . S
C5932 C5935 1.539 . S
C5933 C5929 1.408 . S
C5933 C5932 1.404 . S
C5933 H5945 0.930 . S
C5934 C5930 1.524 . S
C5934 H5946 0.956 . S
C5934 H5947 0.961 . S
C5934 H5948 0.961 . S
C5935 C5932 1.539 . S
C5935 H5949 0.958 . S
C5935 H5950 0.961 . S
C5935 H5951 0.960 . S
H5936 C5920 0.931 . S
H5937 C5925 0.929 . S
H5938 C5926 0.960 . S
H5939 C5926 0.962 . S
H5940 C5926 0.960 . S
H5941 C5927 0.961 . S
H5942 C5927 0.961 . S
H5943 C5927 0.961 . S
H5944 C5928 0.931 . S
H5945 C5933 0.930 . S
H5946 C5934 0.956 . S
H5947 C5934 0.961 . S
H5948 C5934 0.961 . S
H5949 C5935 0.958 . S
H5950 C5935 0.961 . S
H5951 C5935 0.960 . S
C5952 C5953 1.391 . S
C5952 C5954 1.394 . S
C5952 H5968 0.931 . S
C5953 C5952 1.391 . S
C5953 C5957 1.376 . S
C5954 C5952 1.394 . S
C5954 C5955 1.369 . S
C5954 C5958 1.531 . S
C5955 C5954 1.369 . S
C5955 C5956 1.410 . S
C5955 C5963 1.503 . S
C5956 C5955 1.410 . S
C5956 C5957 1.392 . S
C5956 C5959 1.511 . S
C5957 C5953 1.376 . S
C5957 C5956 1.392 . S
C5957 H5969 0.929 . S
C5958 C5954 1.531 . S
C5958 H5970 0.960 . S
C5958 H5971 0.962 . S
C5958 H5972 0.960 . S
C5959 C5956 1.511 . S
C5959 H5973 0.961 . S
C5959 H5974 0.961 . S
C5959 H5975 0.961 . S
C5960 C5961 1.370 . S
C5960 C5962 1.363 . S
C5960 H5976 0.931 . S
C5961 C5960 1.370 . S
C5961 C5965 1.408 . S
C5962 C5960 1.363 . S
C5962 C5963 1.370 . S
C5962 C5966 1.524 . S
C5963 C5955 1.503 . S
C5963 C5962 1.370 . S
C5963 C5964 1.403 . S
C5964 C5963 1.403 . S
C5964 C5965 1.404 . S
C5964 C5967 1.539 . S
C5965 C5961 1.408 . S
C5965 C5964 1.404 . S
C5965 H5977 0.930 . S
C5966 C5962 1.524 . S
C5966 H5978 0.956 . S
C5966 H5979 0.961 . S
C5966 H5980 0.961 . S
C5967 C5964 1.539 . S
C5967 H5981 0.958 . S
C5967 H5982 0.961 . S
C5967 H5983 0.960 . S
H5968 C5952 0.931 . S
H5969 C5957 0.929 . S
H5970 C5958 0.960 . S
H5971 C5958 0.962 . S
H5972 C5958 0.960 . S
H5973 C5959 0.961 . S
H5974 C5959 0.961 . S
H5975 C5959 0.961 . S
H5976 C5960 0.931 . S
H5977 C5965 0.930 . S
H5978 C5966 0.956 . S
H5979 C5966 0.961 . S
H5980 C5966 0.961 . S
H5981 C5967 0.958 . S
H5982 C5967 0.961 . S
H5983 C5967 0.960 . S
C5984 C5985 1.391 . S
C5984 C5986 1.394 . S
C5984 H6000 0.931 . S
C5985 C5984 1.391 . S
C5985 C5989 1.376 . S
C5986 C5984 1.394 . S
C5986 C5987 1.369 . S
C5986 C5990 1.531 . S
C5987 C5986 1.369 . S
C5987 C5988 1.410 . S
C5987 C5995 1.503 . S
C5988 C5987 1.410 . S
C5988 C5989 1.392 . S
C5988 C5991 1.511 . S
C5989 C5985 1.376 . S
C5989 C5988 1.392 . S
C5989 H6001 0.929 . S
C5990 C5986 1.531 . S
C5990 H6002 0.960 . S
C5990 H6003 0.962 . S
C5990 H6004 0.960 . S
C5991 C5988 1.511 . S
C5991 H6005 0.961 . S
C5991 H6006 0.961 . S
C5991 H6007 0.961 . S
C5992 C5993 1.370 . S
C5992 C5994 1.363 . S
C5992 H6008 0.931 . S
C5993 C5992 1.370 . S
C5993 C5997 1.408 . S
C5994 C5992 1.363 . S
C5994 C5995 1.370 . S
C5994 C5998 1.524 . S
C5995 C5987 1.503 . S
C5995 C5994 1.370 . S
C5995 C5996 1.403 . S
C5996 C5995 1.403 . S
C5996 C5997 1.404 . S
C5996 C5999 1.539 . S
C5997 C5993 1.408 . S
C5997 C5996 1.404 . S
C5997 H6009 0.930 . S
C5998 C5994 1.524 . S
C5998 H6010 0.956 . S
C5998 H6011 0.961 . S
C5998 H6012 0.961 . S
C5999 C5996 1.539 . S
C5999 H6013 0.958 . S
C5999 H6014 0.961 . S
C5999 H6015 0.960 . S
H6000 C5984 0.931 . S
H6001 C5989 0.929 . S
H6002 C5990 0.960 . S
H6003 C5990 0.962 . S
H6004 C5990 0.960 . S
H6005 C5991 0.961 . S
H6006 C5991 0.961 . S
H6007 C5991 0.961 . S
H6008 C5992 0.931 . S
H6009 C5997 0.930 . S
H6010 C5998 0.956 . S
H6011 C5998 0.961 . S
H6012 C5998 0.961 . S
H6013 C5999 0.958 . S
H6014 C5999 0.961 . S
H6015 C5999 0.960 . S
C6016 C6017 1.391 . S
C6016 C6018 1.394 . S
C6016 H6032 0.931 . S
C6017 C6016 1.391 . S
C6017 C6021 1.376 . S
C6018 C6016 1.394 . S
C6018 C6019 1.369 . S
C6018 C6022 1.531 . S
C6019 C6018 1.369 . S
C6019 C6020 1.410 . S
C6019 C6027 1.503 . S
C6020 C6019 1.410 . S
C6020 C6021 1.392 . S
C6020 C6023 1.511 . S
C6021 C6017 1.376 . S
C6021 C6020 1.392 . S
C6021 H6033 0.929 . S
C6022 C6018 1.531 . S
C6022 H6034 0.960 . S
C6022 H6035 0.962 . S
C6022 H6036 0.960 . S
C6023 C6020 1.511 . S
C6023 H6037 0.961 . S
C6023 H6038 0.961 . S
C6023 H6039 0.961 . S
C6024 C6025 1.370 . S
C6024 C6026 1.363 . S
C6024 H6040 0.931 . S
C6025 C6024 1.370 . S
C6025 C6029 1.408 . S
C6026 C6024 1.363 . S
C6026 C6027 1.370 . S
C6026 C6030 1.524 . S
C6027 C6019 1.503 . S
C6027 C6026 1.370 . S
C6027 C6028 1.403 . S
C6028 C6027 1.403 . S
C6028 C6029 1.404 . S
C6028 C6031 1.539 . S
C6029 C6025 1.408 . S
C6029 C6028 1.404 . S
C6029 H6041 0.930 . S
C6030 C6026 1.524 . S
C6030 H6042 0.956 . S
C6030 H6043 0.961 . S
C6030 H6044 0.961 . S
C6031 C6028 1.539 . S
C6031 H6045 0.958 . S
C6031 H6046 0.961 . S
C6031 H6047 0.960 . S
H6032 C6016 0.931 . S
H6033 C6021 0.929 . S
H6034 C6022 0.960 . S
H6035 C6022 0.962 . S
H6036 C6022 0.960 . S
H6037 C6023 0.961 . S
H6038 C6023 0.961 . S
H6039 C6023 0.961 . S
H6040 C6024 0.931 . S
H6041 C6029 0.930 . S
H6042 C6030 0.956 . S
H6043 C6030 0.961 . S
H6044 C6030 0.961 . S
H6045 C6031 0.958 . S
H6046 C6031 0.961 . S
H6047 C6031 0.960 . S
C6048 C6049 1.391 . S
C6048 C6050 1.394 . S
C6048 H6064 0.931 . S
C6049 C6048 1.391 . S
C6049 C6053 1.376 . S
C6050 C6048 1.394 . S
C6050 C6051 1.369 . S
C6050 C6054 1.531 . S
C6051 C6050 1.369 . S
C6051 C6052 1.410 . S
C6051 C6059 1.503 . S
C6052 C6051 1.410 . S
C6052 C6053 1.392 . S
C6052 C6055 1.511 . S
C6053 C6049 1.376 . S
C6053 C6052 1.392 . S
C6053 H6065 0.929 . S
C6054 C6050 1.531 . S
C6054 H6066 0.960 . S
C6054 H6067 0.962 . S
C6054 H6068 0.960 . S
C6055 C6052 1.511 . S
C6055 H6069 0.961 . S
C6055 H6070 0.961 . S
C6055 H6071 0.961 . S
C6056 C6057 1.370 . S
C6056 C6058 1.363 . S
C6056 H6072 0.931 . S
C6057 C6056 1.370 . S
C6057 C6061 1.408 . S
C6058 C6056 1.363 . S
C6058 C6059 1.370 . S
C6058 C6062 1.524 . S
C6059 C6051 1.503 . S
C6059 C6058 1.370 . S
C6059 C6060 1.403 . S
C6060 C6059 1.403 . S
C6060 C6061 1.404 . S
C6060 C6063 1.539 . S
C6061 C6057 1.408 . S
C6061 C6060 1.404 . S
C6061 H6073 0.930 . S
C6062 C6058 1.524 . S
C6062 H6074 0.956 . S
C6062 H6075 0.961 . S
C6062 H6076 0.961 . S
C6063 C6060 1.539 . S
C6063 H6077 0.958 . S
C6063 H6078 0.961 . S
C6063 H6079 0.960 . S
H6064 C6048 0.931 . S
H6065 C6053 0.929 . S
H6066 C6054 0.960 . S
H6067 C6054 0.962 . S
H6068 C6054 0.960 . S
H6069 C6055 0.961 . S
H6070 C6055 0.961 . S
H6071 C6055 0.961 . S
H6072 C6056 0.931 . S
H6073 C6061 0.930 . S
H6074 C6062 0.956 . S
H6075 C6062 0.961 . S
H6076 C6062 0.961 . S
H6077 C6063 0.958 . S
H6078 C6063 0.961 . S
H6079 C6063 0.960 . S
C6080 C6081 1.391 . S
C6080 C6082 1.394 . S
C6080 H6096 0.931 . S
C6081 C6080 1.391 . S
C6081 C6085 1.376 . S
C6082 C6080 1.394 . S
C6082 C6083 1.369 . S
C6082 C6086 1.531 . S
C6083 C6082 1.369 . S
C6083 C6084 1.410 . S
C6083 C6091 1.503 . S
C6084 C6083 1.410 . S
C6084 C6085 1.392 . S
C6084 C6087 1.511 . S
C6085 C6081 1.376 . S
C6085 C6084 1.392 . S
C6085 H6097 0.929 . S
C6086 C6082 1.531 . S
C6086 H6098 0.960 . S
C6086 H6099 0.962 . S
C6086 H6100 0.960 . S
C6087 C6084 1.511 . S
C6087 H6101 0.961 . S
C6087 H6102 0.961 . S
C6087 H6103 0.961 . S
C6088 C6089 1.370 . S
C6088 C6090 1.363 . S
C6088 H6104 0.931 . S
C6089 C6088 1.370 . S
C6089 C6093 1.408 . S
C6090 C6088 1.363 . S
C6090 C6091 1.370 . S
C6090 C6094 1.524 . S
C6091 C6083 1.503 . S
C6091 C6090 1.370 . S
C6091 C6092 1.403 . S
C6092 C6091 1.403 . S
C6092 C6093 1.404 . S
C6092 C6095 1.539 . S
C6093 C6089 1.408 . S
C6093 C6092 1.404 . S
C6093 H6105 0.930 . S
C6094 C6090 1.524 . S
C6094 H6106 0.956 . S
C6094 H6107 0.961 . S
C6094 H6108 0.961 . S
C6095 C6092 1.539 . S
C6095 H6109 0.958 . S
C6095 H6110 0.961 . S
C6095 H6111 0.960 . S
H6096 C6080 0.931 . S
H6097 C6085 0.929 . S
H6098 C6086 0.960 . S
H6099 C6086 0.962 . S
H6100 C6086 0.960 . S
H6101 C6087 0.961 . S
H6102 C6087 0.961 . S
H6103 C6087 0.961 . S
H6104 C6088 0.931 . S
H6105 C6093 0.930 . S
H6106 C6094 0.956 . S
H6107 C6094 0.961 . S
H6108 C6094 0.961 . S
H6109 C6095 0.958 . S
H6110 C6095 0.961 . S
H6111 C6095 0.960 . S
C6112 C6113 1.391 . S
C6112 C6114 1.394 . S
C6112 H6128 0.931 . S
C6113 C6112 1.391 . S
C6113 C6117 1.376 . S
C6114 C6112 1.394 . S
C6114 C6115 1.369 . S
C6114 C6118 1.531 . S
C6115 C6114 1.369 . S
C6115 C6116 1.410 . S
C6115 C6123 1.503 . S
C6116 C6115 1.410 . S
C6116 C6117 1.392 . S
C6116 C6119 1.511 . S
C6117 C6113 1.376 . S
C6117 C6116 1.392 . S
C6117 H6129 0.929 . S
C6118 C6114 1.531 . S
C6118 H6130 0.960 . S
C6118 H6131 0.962 . S
C6118 H6132 0.960 . S
C6119 C6116 1.511 . S
C6119 H6133 0.961 . S
C6119 H6134 0.961 . S
C6119 H6135 0.961 . S
C6120 C6121 1.370 . S
C6120 C6122 1.363 . S
C6120 H6136 0.931 . S
C6121 C6120 1.370 . S
C6121 C6125 1.408 . S
C6122 C6120 1.363 . S
C6122 C6123 1.370 . S
C6122 C6126 1.524 . S
C6123 C6115 1.503 . S
C6123 C6122 1.370 . S
C6123 C6124 1.403 . S
C6124 C6123 1.403 . S
C6124 C6125 1.404 . S
C6124 C6127 1.539 . S
C6125 C6121 1.408 . S
C6125 C6124 1.404 . S
C6125 H6137 0.930 . S
C6126 C6122 1.524 . S
C6126 H6138 0.956 . S
C6126 H6139 0.961 . S
C6126 H6140 0.961 . S
C6127 C6124 1.539 . S
C6127 H6141 0.958 . S
C6127 H6142 0.961 . S
C6127 H6143 0.960 . S
H6128 C6112 0.931 . S
H6129 C6117 0.929 . S
H6130 C6118 0.960 . S
H6131 C6118 0.962 . S
H6132 C6118 0.960 . S
H6133 C6119 0.961 . S
H6134 C6119 0.961 . S
H6135 C6119 0.961 . S
H6136 C6120 0.931 . S
H6137 C6125 0.930 . S
H6138 C6126 0.956 . S
H6139 C6126 0.961 . S
H6140 C6126 0.961 . S
H6141 C6127 0.958 . S
H6142 C6127 0.961 . S
H6143 C6127 0.960 . S
C6144 C6145 1.391 . S
C6144 C6146 1.394 . S
C6144 H6160 0.931 . S
C6145 C6144 1.391 . S
C6145 C6149 1.376 . S
C6146 C6144 1.394 . S
C6146 C6147 1.369 . S
C6146 C6150 1.531 . S
C6147 C6146 1.369 . S
C6147 C6148 1.410 . S
C6147 C6155 1.503 . S
C6148 C6147 1.410 . S
C6148 C6149 1.392 . S
C6148 C6151 1.511 . S
C6149 C6145 1.376 . S
C6149 C6148 1.392 . S
C6149 H6161 0.929 . S
C6150 C6146 1.531 . S
C6150 H6162 0.960 . S
C6150 H6163 0.962 . S
C6150 H6164 0.960 . S
C6151 C6148 1.511 . S
C6151 H6165 0.961 . S
C6151 H6166 0.961 . S
C6151 H6167 0.961 . S
C6152 C6153 1.370 . S
C6152 C6154 1.363 . S
C6152 H6168 0.931 . S
C6153 C6152 1.370 . S
C6153 C6157 1.408 . S
C6154 C6152 1.363 . S
C6154 C6155 1.370 . S
C6154 C6158 1.524 . S
C6155 C6147 1.503 . S
C6155 C6154 1.370 . S
C6155 C6156 1.403 . S
C6156 C6155 1.403 . S
C6156 C6157 1.404 . S
C6156 C6159 1.539 . S
C6157 C6153 1.408 . S
C6157 C6156 1.404 . S
C6157 H6169 0.930 . S
C6158 C6154 1.524 . S
C6158 H6170 0.956 . S
C6158 H6171 0.961 . S
C6158 H6172 0.961 . S
C6159 C6156 1.539 . S
C6159 H6173 0.958 . S
C6159 H6174 0.961 . S
C6159 H6175 0.960 . S
H6160 C6144 0.931 . S
H6161 C6149 0.929 . S
H6162 C6150 0.960 . S
H6163 C6150 0.962 . S
H6164 C6150 0.960 . S
H6165 C6151 0.961 . S
H6166 C6151 0.961 . S
H6167 C6151 0.961 . S
H6168 C6152 0.931 . S
H6169 C6157 0.930 . S
H6170 C6158 0.956 . S
H6171 C6158 0.961 . S
H6172 C6158 0.961 . S
H6173 C6159 0.958 . S
H6174 C6159 0.961 . S
H6175 C6159 0.960 . S
C6176 C6177 1.391 . S
C6176 C6178 1.394 . S
C6176 H6192 0.931 . S
C6177 C6176 1.391 . S
C6177 C6181 1.376 . S
C6178 C6176 1.394 . S
C6178 C6179 1.369 . S
C6178 C6182 1.531 . S
C6179 C6178 1.369 . S
C6179 C6180 1.410 . S
C6179 C6187 1.503 . S
C6180 C6179 1.410 . S
C6180 C6181 1.392 . S
C6180 C6183 1.511 . S
C6181 C6177 1.376 . S
C6181 C6180 1.392 . S
C6181 H6193 0.929 . S
C6182 C6178 1.531 . S
C6182 H6194 0.960 . S
C6182 H6195 0.962 . S
C6182 H6196 0.960 . S
C6183 C6180 1.511 . S
C6183 H6197 0.961 . S
C6183 H6198 0.961 . S
C6183 H6199 0.961 . S
C6184 C6185 1.370 . S
C6184 C6186 1.363 . S
C6184 H6200 0.931 . S
C6185 C6184 1.370 . S
C6185 C6189 1.408 . S
C6186 C6184 1.363 . S
C6186 C6187 1.370 . S
C6186 C6190 1.524 . S
C6187 C6179 1.503 . S
C6187 C6186 1.370 . S
C6187 C6188 1.403 . S
C6188 C6187 1.403 . S
C6188 C6189 1.404 . S
C6188 C6191 1.539 . S
C6189 C6185 1.408 . S
C6189 C6188 1.404 . S
C6189 H6201 0.930 . S
C6190 C6186 1.524 . S
C6190 H6202 0.956 . S
C6190 H6203 0.961 . S
C6190 H6204 0.961 . S
C6191 C6188 1.539 . S
C6191 H6205 0.958 . S
C6191 H6206 0.961 . S
C6191 H6207 0.960 . S
H6192 C6176 0.931 . S
H6193 C6181 0.929 . S
H6194 C6182 0.960 . S
H6195 C6182 0.962 . S
H6196 C6182 0.960 . S
H6197 C6183 0.961 . S
H6198 C6183 0.961 . S
H6199 C6183 0.961 . S
H6200 C6184 0.931 . S
H6201 C6189 0.930 . S
H6202 C6190 0.956 . S
H6203 C6190 0.961 . S
H6204 C6190 0.961 . S
H6205 C6191 0.958 . S
H6206 C6191 0.961 . S
H6207 C6191 0.960 . S
C6208 C6209 1.391 . S
C6208 C6210 1.394 . S
C6208 H6224 0.931 . S
C6209 C6208 1.391 . S
C6209 C6213 1.376 . S
C6210 C6208 1.394 . S
C6210 C6211 1.369 . S
C6210 C6214 1.531 . S
C6211 C6210 1.369 . S
C6211 C6212 1.410 . S
C6211 C6219 1.503 . S
C6212 C6211 1.410 . S
C6212 C6213 1.392 . S
C6212 C6215 1.511 . S
C6213 C6209 1.376 . S
C6213 C6212 1.392 . S
C6213 H6225 0.929 . S
C6214 C6210 1.531 . S
C6214 H6226 0.960 . S
C6214 H6227 0.962 . S
C6214 H6228 0.960 . S
C6215 C6212 1.511 . S
C6215 H6229 0.961 . S
C6215 H6230 0.961 . S
C6215 H6231 0.961 . S
C6216 C6217 1.370 . S
C6216 C6218 1.363 . S
C6216 H6232 0.931 . S
C6217 C6216 1.370 . S
C6217 C6221 1.408 . S
C6218 C6216 1.363 . S
C6218 C6219 1.370 . S
C6218 C6222 1.524 . S
C6219 C6211 1.503 . S
C6219 C6218 1.370 . S
C6219 C6220 1.403 . S
C6220 C6219 1.403 . S
C6220 C6221 1.404 . S
C6220 C6223 1.539 . S
C6221 C6217 1.408 . S
C6221 C6220 1.404 . S
C6221 H6233 0.930 . S
C6222 C6218 1.524 . S
C6222 H6234 0.956 . S
C6222 H6235 0.961 . S
C6222 H6236 0.961 . S
C6223 C6220 1.539 . S
C6223 H6237 0.958 . S
C6223 H6238 0.961 . S
C6223 H6239 0.960 . S
H6224 C6208 0.931 . S
H6225 C6213 0.929 . S
H6226 C6214 0.960 . S
H6227 C6214 0.962 . S
H6228 C6214 0.960 . S
H6229 C6215 0.961 . S
H6230 C6215 0.961 . S
H6231 C6215 0.961 . S
H6232 C6216 0.931 . S
H6233 C6221 0.930 . S
H6234 C6222 0.956 . S
H6235 C6222 0.961 . S
H6236 C6222 0.961 . S
H6237 C6223 0.958 . S
H6238 C6223 0.961 . S
H6239 C6223 0.960 . S
C6240 C6241 1.391 . S
C6240 C6242 1.394 . S
C6240 H6256 0.931 . S
C6241 C6240 1.391 . S
C6241 C6245 1.376 . S
C6242 C6240 1.394 . S
C6242 C6243 1.369 . S
C6242 C6246 1.531 . S
C6243 C6242 1.369 . S
C6243 C6244 1.410 . S
C6243 C6251 1.503 . S
C6244 C6243 1.410 . S
C6244 C6245 1.392 . S
C6244 C6247 1.511 . S
C6245 C6241 1.376 . S
C6245 C6244 1.392 . S
C6245 H6257 0.929 . S
C6246 C6242 1.531 . S
C6246 H6258 0.960 . S
C6246 H6259 0.962 . S
C6246 H6260 0.960 . S
C6247 C6244 1.511 . S
C6247 H6261 0.961 . S
C6247 H6262 0.961 . S
C6247 H6263 0.961 . S
C6248 C6249 1.370 . S
C6248 C6250 1.363 . S
C6248 H6264 0.931 . S
C6249 C6248 1.370 . S
C6249 C6253 1.408 . S
C6250 C6248 1.363 . S
C6250 C6251 1.370 . S
C6250 C6254 1.524 . S
C6251 C6243 1.503 . S
C6251 C6250 1.370 . S
C6251 C6252 1.403 . S
C6252 C6251 1.403 . S
C6252 C6253 1.404 . S
C6252 C6255 1.539 . S
C6253 C6249 1.408 . S
C6253 C6252 1.404 . S
C6253 H6265 0.930 . S
C6254 C6250 1.524 . S
C6254 H6266 0.956 . S
C6254 H6267 0.961 . S
C6254 H6268 0.961 . S
C6255 C6252 1.539 . S
C6255 H6269 0.958 . S
C6255 H6270 0.961 . S
C6255 H6271 0.960 . S
H6256 C6240 0.931 . S
H6257 C6245 0.929 . S
H6258 C6246 0.960 . S
H6259 C6246 0.962 . S
H6260 C6246 0.960 . S
H6261 C6247 0.961 . S
H6262 C6247 0.961 . S
H6263 C6247 0.961 . S
H6264 C6248 0.931 . S
H6265 C6253 0.930 . S
H6266 C6254 0.956 . S
H6267 C6254 0.961 . S
H6268 C6254 0.961 . S
H6269 C6255 0.958 . S
H6270 C6255 0.961 . S
H6271 C6255 0.960 . S
C6272 C6273 1.391 . S
C6272 C6274 1.394 . S
C6272 H6288 0.931 . S
C6273 C6272 1.391 . S
C6273 C6277 1.376 . S
C6274 C6272 1.394 . S
C6274 C6275 1.369 . S
C6274 C6278 1.531 . S
C6275 C6274 1.369 . S
C6275 C6276 1.410 . S
C6275 C6283 1.503 . S
C6276 C6275 1.410 . S
C6276 C6277 1.392 . S
C6276 C6279 1.511 . S
C6277 C6273 1.376 . S
C6277 C6276 1.392 . S
C6277 H6289 0.929 . S
C6278 C6274 1.531 . S
C6278 H6290 0.960 . S
C6278 H6291 0.962 . S
C6278 H6292 0.960 . S
C6279 C6276 1.511 . S
C6279 H6293 0.961 . S
C6279 H6294 0.961 . S
C6279 H6295 0.961 . S
C6280 C6281 1.370 . S
C6280 C6282 1.363 . S
C6280 H6296 0.931 . S
C6281 C6280 1.370 . S
C6281 C6285 1.408 . S
C6282 C6280 1.363 . S
C6282 C6283 1.370 . S
C6282 C6286 1.524 . S
C6283 C6275 1.503 . S
C6283 C6282 1.370 . S
C6283 C6284 1.403 . S
C6284 C6283 1.403 . S
C6284 C6285 1.404 . S
C6284 C6287 1.539 . S
C6285 C6281 1.408 . S
C6285 C6284 1.404 . S
C6285 H6297 0.930 . S
C6286 C6282 1.524 . S
C6286 H6298 0.956 . S
C6286 H6299 0.961 . S
C6286 H6300 0.961 . S
C6287 C6284 1.539 . S
C6287 H6301 0.958 . S
C6287 H6302 0.961 . S
C6287 H6303 0.960 . S
H6288 C6272 0.931 . S
H6289 C6277 0.929 . S
H6290 C6278 0.960 . S
H6291 C6278 0.962 . S
H6292 C6278 0.960 . S
H6293 C6279 0.961 . S
H6294 C6279 0.961 . S
H6295 C6279 0.961 . S
H6296 C6280 0.931 . S
H6297 C6285 0.930 . S
H6298 C6286 0.956 . S
H6299 C6286 0.961 . S
H6300 C6286 0.961 . S
H6301 C6287 0.958 . S
H6302 C6287 0.961 . S
H6303 C6287 0.960 . S
C6304 C6305 1.391 . S
C6304 C6306 1.394 . S
C6304 H6320 0.931 . S
C6305 C6304 1.391 . S
C6305 C6309 1.376 . S
C6306 C6304 1.394 . S
C6306 C6307 1.369 . S
C6306 C6310 1.531 . S
C6307 C6306 1.369 . S
C6307 C6308 1.410 . S
C6307 C6315 1.503 . S
C6308 C6307 1.410 . S
C6308 C6309 1.392 . S
C6308 C6311 1.511 . S
C6309 C6305 1.376 . S
C6309 C6308 1.392 . S
C6309 H6321 0.929 . S
C6310 C6306 1.531 . S
C6310 H6322 0.960 . S
C6310 H6323 0.962 . S
C6310 H6324 0.960 . S
C6311 C6308 1.511 . S
C6311 H6325 0.961 . S
C6311 H6326 0.961 . S
C6311 H6327 0.961 . S
C6312 C6313 1.370 . S
C6312 C6314 1.363 . S
C6312 H6328 0.931 . S
C6313 C6312 1.370 . S
C6313 C6317 1.408 . S
C6314 C6312 1.363 . S
C6314 C6315 1.370 . S
C6314 C6318 1.524 . S
C6315 C6307 1.503 . S
C6315 C6314 1.370 . S
C6315 C6316 1.403 . S
C6316 C6315 1.403 . S
C6316 C6317 1.404 . S
C6316 C6319 1.539 . S
C6317 C6313 1.408 . S
C6317 C6316 1.404 . S
C6317 H6329 0.930 . S
C6318 C6314 1.524 . S
C6318 H6330 0.956 . S
C6318 H6331 0.961 . S
C6318 H6332 0.961 . S
C6319 C6316 1.539 . S
C6319 H6333 0.958 . S
C6319 H6334 0.961 . S
C6319 H6335 0.960 . S
H6320 C6304 0.931 . S
H6321 C6309 0.929 . S
H6322 C6310 0.960 . S
H6323 C6310 0.962 . S
H6324 C6310 0.960 . S
H6325 C6311 0.961 . S
H6326 C6311 0.961 . S
H6327 C6311 0.961 . S
H6328 C6312 0.931 . S
H6329 C6317 0.930 . S
H6330 C6318 0.956 . S
H6331 C6318 0.961 . S
H6332 C6318 0.961 . S
H6333 C6319 0.958 . S
H6334 C6319 0.961 . S
H6335 C6319 0.960 . S
C6336 C6337 1.391 . S
C6336 C6338 1.394 . S
C6336 H6352 0.931 . S
C6337 C6336 1.391 . S
C6337 C6341 1.376 . S
C6338 C6336 1.394 . S
C6338 C6339 1.369 . S
C6338 C6342 1.531 . S
C6339 C6338 1.369 . S
C6339 C6340 1.410 . S
C6339 C6347 1.503 . S
C6340 C6339 1.410 . S
C6340 C6341 1.392 . S
C6340 C6343 1.511 . S
C6341 C6337 1.376 . S
C6341 C6340 1.392 . S
C6341 H6353 0.929 . S
C6342 C6338 1.531 . S
C6342 H6354 0.960 . S
C6342 H6355 0.962 . S
C6342 H6356 0.960 . S
C6343 C6340 1.511 . S
C6343 H6357 0.961 . S
C6343 H6358 0.961 . S
C6343 H6359 0.961 . S
C6344 C6345 1.370 . S
C6344 C6346 1.363 . S
C6344 H6360 0.931 . S
C6345 C6344 1.370 . S
C6345 C6349 1.408 . S
C6346 C6344 1.363 . S
C6346 C6347 1.370 . S
C6346 C6350 1.524 . S
C6347 C6339 1.503 . S
C6347 C6346 1.370 . S
C6347 C6348 1.403 . S
C6348 C6347 1.403 . S
C6348 C6349 1.404 . S
C6348 C6351 1.539 . S
C6349 C6345 1.408 . S
C6349 C6348 1.404 . S
C6349 H6361 0.930 . S
C6350 C6346 1.524 . S
C6350 H6362 0.956 . S
C6350 H6363 0.961 . S
C6350 H6364 0.961 . S
C6351 C6348 1.539 . S
C6351 H6365 0.958 . S
C6351 H6366 0.961 . S
C6351 H6367 0.960 . S
H6352 C6336 0.931 . S
H6353 C6341 0.929 . S
H6354 C6342 0.960 . S
H6355 C6342 0.962 . S
H6356 C6342 0.960 . S
H6357 C6343 0.961 . S
H6358 C6343 0.961 . S
H6359 C6343 0.961 . S
H6360 C6344 0.931 . S
H6361 C6349 0.930 . S
H6362 C6350 0.956 . S
H6363 C6350 0.961 . S
H6364 C6350 0.961 . S
H6365 C6351 0.958 . S
H6366 C6351 0.961 . S
H6367 C6351 0.960 . S
C6368 C6369 1.391 . S
C6368 C6370 1.394 . S
C6368 H6384 0.931 . S
C6369 C6368 1.391 . S
C6369 C6373 1.376 . S
C6370 C6368 1.394 . S
C6370 C6371 1.369 . S
C6370 C6374 1.531 . S
C6371 C6370 1.369 . S
C6371 C6372 1.410 . S
C6371 C6379 1.503 . S
C6372 C6371 1.410 . S
C6372 C6373 1.392 . S
C6372 C6375 1.511 . S
C6373 C6369 1.376 . S
C6373 C6372 1.392 . S
C6373 H6385 0.929 . S
C6374 C6370 1.531 . S
C6374 H6386 0.960 . S
C6374 H6387 0.962 . S
C6374 H6388 0.960 . S
C6375 C6372 1.511 . S
C6375 H6389 0.961 . S
C6375 H6390 0.961 . S
C6375 H6391 0.961 . S
C6376 C6377 1.370 . S
C6376 C6378 1.363 . S
C6376 H6392 0.931 . S
C6377 C6376 1.370 . S
C6377 C6381 1.408 . S
C6378 C6376 1.363 . S
C6378 C6379 1.370 . S
C6378 C6382 1.524 . S
C6379 C6371 1.503 . S
C6379 C6378 1.370 . S
C6379 C6380 1.403 . S
C6380 C6379 1.403 . S
C6380 C6381 1.404 . S
C6380 C6383 1.539 . S
C6381 C6377 1.408 . S
C6381 C6380 1.404 . S
C6381 H6393 0.930 . S
C6382 C6378 1.524 . S
C6382 H6394 0.956 . S
C6382 H6395 0.961 . S
C6382 H6396 0.961 . S
C6383 C6380 1.539 . S
C6383 H6397 0.958 . S
C6383 H6398 0.961 . S
C6383 H6399 0.960 . S
H6384 C6368 0.931 . S
H6385 C6373 0.929 . S
H6386 C6374 0.960 . S
H6387 C6374 0.962 . S
H6388 C6374 0.960 . S
H6389 C6375 0.961 . S
H6390 C6375 0.961 . S
H6391 C6375 0.961 . S
H6392 C6376 0.931 . S
H6393 C6381 0.930 . S
H6394 C6382 0.956 . S
H6395 C6382 0.961 . S
H6396 C6382 0.961 . S
H6397 C6383 0.958 . S
H6398 C6383 0.961 . S
H6399 C6383 0.960 . S
C6400 C6401 1.391 . S
C6400 C6402 1.394 . S
C6400 H6416 0.931 . S
C6401 C6400 1.391 . S
C6401 C6405 1.376 . S
C6402 C6400 1.394 . S
C6402 C6403 1.369 . S
C6402 C6406 1.531 . S
C6403 C6402 1.369 . S
C6403 C6404 1.410 . S
C6403 C6411 1.503 . S
C6404 C6403 1.410 . S
C6404 C6405 1.392 . S
C6404 C6407 1.511 . S
C6405 C6401 1.376 . S
C6405 C6404 1.392 . S
C6405 H6417 0.929 . S
C6406 C6402 1.531 . S
C6406 H6418 0.960 . S
C6406 H6419 0.962 . S
C6406 H6420 0.960 . S
C6407 C6404 1.511 . S
C6407 H6421 0.961 . S
C6407 H6422 0.961 . S
C6407 H6423 0.961 . S
C6408 C6409 1.370 . S
C6408 C6410 1.363 . S
C6408 H6424 0.931 . S
C6409 C6408 1.370 . S
C6409 C6413 1.408 . S
C6410 C6408 1.363 . S
C6410 C6411 1.370 . S
C6410 C6414 1.524 . S
C6411 C6403 1.503 . S
C6411 C6410 1.370 . S
C6411 C6412 1.403 . S
C6412 C6411 1.403 . S
C6412 C6413 1.404 . S
C6412 C6415 1.539 . S
C6413 C6409 1.408 . S
C6413 C6412 1.404 . S
C6413 H6425 0.930 . S
C6414 C6410 1.524 . S
C6414 H6426 0.956 . S
C6414 H6427 0.961 . S
C6414 H6428 0.961 . S
C6415 C6412 1.539 . S
C6415 H6429 0.958 . S
C6415 H6430 0.961 . S
C6415 H6431 0.960 . S
H6416 C6400 0.931 . S
H6417 C6405 0.929 . S
H6418 C6406 0.960 . S
H6419 C6406 0.962 . S
H6420 C6406 0.960 . S
H6421 C6407 0.961 . S
H6422 C6407 0.961 . S
H6423 C6407 0.961 . S
H6424 C6408 0.931 . S
H6425 C6413 0.930 . S
H6426 C6414 0.956 . S
H6427 C6414 0.961 . S
H6428 C6414 0.961 . S
H6429 C6415 0.958 . S
H6430 C6415 0.961 . S
H6431 C6415 0.960 . S
C6432 C6433 1.391 . S
C6432 C6434 1.394 . S
C6432 H6448 0.931 . S
C6433 C6432 1.391 . S
C6433 C6437 1.376 . S
C6434 C6432 1.394 . S
C6434 C6435 1.369 . S
C6434 C6438 1.531 . S
C6435 C6434 1.369 . S
C6435 C6436 1.410 . S
C6435 C6443 1.503 . S
C6436 C6435 1.410 . S
C6436 C6437 1.392 . S
C6436 C6439 1.511 . S
C6437 C6433 1.376 . S
C6437 C6436 1.392 . S
C6437 H6449 0.929 . S
C6438 C6434 1.531 . S
C6438 H6450 0.960 . S
C6438 H6451 0.962 . S
C6438 H6452 0.960 . S
C6439 C6436 1.511 . S
C6439 H6453 0.961 . S
C6439 H6454 0.961 . S
C6439 H6455 0.961 . S
C6440 C6441 1.370 . S
C6440 C6442 1.363 . S
C6440 H6456 0.931 . S
C6441 C6440 1.370 . S
C6441 C6445 1.408 . S
C6442 C6440 1.363 . S
C6442 C6443 1.370 . S
C6442 C6446 1.524 . S
C6443 C6435 1.503 . S
C6443 C6442 1.370 . S
C6443 C6444 1.403 . S
C6444 C6443 1.403 . S
C6444 C6445 1.404 . S
C6444 C6447 1.539 . S
C6445 C6441 1.408 . S
C6445 C6444 1.404 . S
C6445 H6457 0.930 . S
C6446 C6442 1.524 . S
C6446 H6458 0.956 . S
C6446 H6459 0.961 . S
C6446 H6460 0.961 . S
C6447 C6444 1.539 . S
C6447 H6461 0.958 . S
C6447 H6462 0.961 . S
C6447 H6463 0.960 . S
H6448 C6432 0.931 . S
H6449 C6437 0.929 . S
H6450 C6438 0.960 . S
H6451 C6438 0.962 . S
H6452 C6438 0.960 . S
H6453 C6439 0.961 . S
H6454 C6439 0.961 . S
H6455 C6439 0.961 . S
H6456 C6440 0.931 . S
H6457 C6445 0.930 . S
H6458 C6446 0.956 . S
H6459 C6446 0.961 . S
H6460 C6446 0.961 . S
H6461 C6447 0.958 . S
H6462 C6447 0.961 . S
H6463 C6447 0.960 . S
C6464 C6465 1.391 . S
C6464 C6466 1.394 . S
C6464 H6480 0.931 . S
C6465 C6464 1.391 . S
C6465 C6469 1.376 . S
C6466 C6464 1.394 . S
C6466 C6467 1.369 . S
C6466 C6470 1.531 . S
C6467 C6466 1.369 . S
C6467 C6468 1.410 . S
C6467 C6475 1.503 . S
C6468 C6467 1.410 . S
C6468 C6469 1.392 . S
C6468 C6471 1.511 . S
C6469 C6465 1.376 . S
C6469 C6468 1.392 . S
C6469 H6481 0.929 . S
C6470 C6466 1.531 . S
C6470 H6482 0.960 . S
C6470 H6483 0.962 . S
C6470 H6484 0.960 . S
C6471 C6468 1.511 . S
C6471 H6485 0.961 . S
C6471 H6486 0.961 . S
C6471 H6487 0.961 . S
C6472 C6473 1.370 . S
C6472 C6474 1.363 . S
C6472 H6488 0.931 . S
C6473 C6472 1.370 . S
C6473 C6477 1.408 . S
C6474 C6472 1.363 . S
C6474 C6475 1.370 . S
C6474 C6478 1.524 . S
C6475 C6467 1.503 . S
C6475 C6474 1.370 . S
C6475 C6476 1.403 . S
C6476 C6475 1.403 . S
C6476 C6477 1.404 . S
C6476 C6479 1.539 . S
C6477 C6473 1.408 . S
C6477 C6476 1.404 . S
C6477 H6489 0.930 . S
C6478 C6474 1.524 . S
C6478 H6490 0.956 . S
C6478 H6491 0.961 . S
C6478 H6492 0.961 . S
C6479 C6476 1.539 . S
C6479 H6493 0.958 . S
C6479 H6494 0.961 . S
C6479 H6495 0.960 . S
H6480 C6464 0.931 . S
H6481 C6469 0.929 . S
H6482 C6470 0.960 . S
H6483 C6470 0.962 . S
H6484 C6470 0.960 . S
H6485 C6471 0.961 . S
H6486 C6471 0.961 . S
H6487 C6471 0.961 . S
H6488 C6472 0.931 . S
H6489 C6477 0.930 . S
H6490 C6478 0.956 . S
H6491 C6478 0.961 . S
H6492 C6478 0.961 . S
H6493 C6479 0.958 . S
H6494 C6479 0.961 . S
H6495 C6479 0.960 . S
C6496 C6497 1.391 . S
C6496 C6498 1.394 . S
C6496 H6512 0.931 . S
C6497 C6496 1.391 . S
C6497 C6501 1.376 . S
C6498 C6496 1.394 . S
C6498 C6499 1.369 . S
C6498 C6502 1.531 . S
C6499 C6498 1.369 . S
C6499 C6500 1.410 . S
C6499 C6507 1.503 . S
C6500 C6499 1.410 . S
C6500 C6501 1.392 . S
C6500 C6503 1.511 . S
C6501 C6497 1.376 . S
C6501 C6500 1.392 . S
C6501 H6513 0.929 . S
C6502 C6498 1.531 . S
C6502 H6514 0.960 . S
C6502 H6515 0.962 . S
C6502 H6516 0.960 . S
C6503 C6500 1.511 . S
C6503 H6517 0.961 . S
C6503 H6518 0.961 . S
C6503 H6519 0.961 . S
C6504 C6505 1.370 . S
C6504 C6506 1.363 . S
C6504 H6520 0.931 . S
C6505 C6504 1.370 . S
C6505 C6509 1.408 . S
C6506 C6504 1.363 . S
C6506 C6507 1.370 . S
C6506 C6510 1.524 . S
C6507 C6499 1.503 . S
C6507 C6506 1.370 . S
C6507 C6508 1.403 . S
C6508 C6507 1.403 . S
C6508 C6509 1.404 . S
C6508 C6511 1.539 . S
C6509 C6505 1.408 . S
C6509 C6508 1.404 . S
C6509 H6521 0.930 . S
C6510 C6506 1.524 . S
C6510 H6522 0.956 . S
C6510 H6523 0.961 . S
C6510 H6524 0.961 . S
C6511 C6508 1.539 . S
C6511 H6525 0.958 . S
C6511 H6526 0.961 . S
C6511 H6527 0.960 . S
H6512 C6496 0.931 . S
H6513 C6501 0.929 . S
H6514 C6502 0.960 . S
H6515 C6502 0.962 . S
H6516 C6502 0.960 . S
H6517 C6503 0.961 . S
H6518 C6503 0.961 . S
H6519 C6503 0.961 . S
H6520 C6504 0.931 . S
H6521 C6509 0.930 . S
H6522 C6510 0.956 . S
H6523 C6510 0.961 . S
H6524 C6510 0.961 . S
H6525 C6511 0.958 . S
H6526 C6511 0.961 . S
H6527 C6511 0.960 . S
C6528 C6529 1.391 . S
C6528 C6530 1.394 . S
C6528 H6544 0.931 . S
C6529 C6528 1.391 . S
C6529 C6533 1.376 . S
C6530 C6528 1.394 . S
C6530 C6531 1.369 . S
C6530 C6534 1.531 . S
C6531 C6530 1.369 . S
C6531 C6532 1.410 . S
C6531 C6539 1.503 . S
C6532 C6531 1.410 . S
C6532 C6533 1.392 . S
C6532 C6535 1.511 . S
C6533 C6529 1.376 . S
C6533 C6532 1.392 . S
C6533 H6545 0.929 . S
C6534 C6530 1.531 . S
C6534 H6546 0.960 . S
C6534 H6547 0.962 . S
C6534 H6548 0.960 . S
C6535 C6532 1.511 . S
C6535 H6549 0.961 . S
C6535 H6550 0.961 . S
C6535 H6551 0.961 . S
C6536 C6537 1.370 . S
C6536 C6538 1.363 . S
C6536 H6552 0.931 . S
C6537 C6536 1.370 . S
C6537 C6541 1.408 . S
C6538 C6536 1.363 . S
C6538 C6539 1.370 . S
C6538 C6542 1.524 . S
C6539 C6531 1.503 . S
C6539 C6538 1.370 . S
C6539 C6540 1.403 . S
C6540 C6539 1.403 . S
C6540 C6541 1.404 . S
C6540 C6543 1.539 . S
C6541 C6537 1.408 . S
C6541 C6540 1.404 . S
C6541 H6553 0.930 . S
C6542 C6538 1.524 . S
C6542 H6554 0.956 . S
C6542 H6555 0.961 . S
C6542 H6556 0.961 . S
C6543 C6540 1.539 . S
C6543 H6557 0.958 . S
C6543 H6558 0.961 . S
C6543 H6559 0.960 . S
H6544 C6528 0.931 . S
H6545 C6533 0.929 . S
H6546 C6534 0.960 . S
H6547 C6534 0.962 . S
H6548 C6534 0.960 . S
H6549 C6535 0.961 . S
H6550 C6535 0.961 . S
H6551 C6535 0.961 . S
H6552 C6536 0.931 . S
H6553 C6541 0.930 . S
H6554 C6542 0.956 . S
H6555 C6542 0.961 . S
H6556 C6542 0.961 . S
H6557 C6543 0.958 . S
H6558 C6543 0.961 . S
H6559 C6543 0.960 . S
C6560 C6561 1.391 . S
C6560 C6562 1.394 . S
C6560 H6576 0.931 . S
C6561 C6560 1.391 . S
C6561 C6565 1.376 . S
C6562 C6560 1.394 . S
C6562 C6563 1.369 . S
C6562 C6566 1.531 . S
C6563 C6562 1.369 . S
C6563 C6564 1.410 . S
C6563 C6571 1.503 . S
C6564 C6563 1.410 . S
C6564 C6565 1.392 . S
C6564 C6567 1.511 . S
C6565 C6561 1.376 . S
C6565 C6564 1.392 . S
C6565 H6577 0.929 . S
C6566 C6562 1.531 . S
C6566 H6578 0.960 . S
C6566 H6579 0.962 . S
C6566 H6580 0.960 . S
C6567 C6564 1.511 . S
C6567 H6581 0.961 . S
C6567 H6582 0.961 . S
C6567 H6583 0.961 . S
C6568 C6569 1.370 . S
C6568 C6570 1.363 . S
C6568 H6584 0.931 . S
C6569 C6568 1.370 . S
C6569 C6573 1.408 . S
C6570 C6568 1.363 . S
C6570 C6571 1.370 . S
C6570 C6574 1.524 . S
C6571 C6563 1.503 . S
C6571 C6570 1.370 . S
C6571 C6572 1.403 . S
C6572 C6571 1.403 . S
C6572 C6573 1.404 . S
C6572 C6575 1.539 . S
C6573 C6569 1.408 . S
C6573 C6572 1.404 . S
C6573 H6585 0.930 . S
C6574 C6570 1.524 . S
C6574 H6586 0.956 . S
C6574 H6587 0.961 . S
C6574 H6588 0.961 . S
C6575 C6572 1.539 . S
C6575 H6589 0.958 . S
C6575 H6590 0.961 . S
C6575 H6591 0.960 . S
H6576 C6560 0.931 . S
H6577 C6565 0.929 . S
H6578 C6566 0.960 . S
H6579 C6566 0.962 . S
H6580 C6566 0.960 . S
H6581 C6567 0.961 . S
H6582 C6567 0.961 . S
H6583 C6567 0.961 . S
H6584 C6568 0.931 . S
H6585 C6573 0.930 . S
H6586 C6574 0.956 . S
H6587 C6574 0.961 . S
H6588 C6574 0.961 . S
H6589 C6575 0.958 . S
H6590 C6575 0.961 . S
H6591 C6575 0.960 . S
C6592 C6593 1.391 . S
C6592 C6594 1.394 . S
C6592 H6608 0.931 . S
C6593 C6592 1.391 . S
C6593 C6597 1.376 . S
C6594 C6592 1.394 . S
C6594 C6595 1.369 . S
C6594 C6598 1.531 . S
C6595 C6594 1.369 . S
C6595 C6596 1.410 . S
C6595 C6603 1.503 . S
C6596 C6595 1.410 . S
C6596 C6597 1.392 . S
C6596 C6599 1.511 . S
C6597 C6593 1.376 . S
C6597 C6596 1.392 . S
C6597 H6609 0.929 . S
C6598 C6594 1.531 . S
C6598 H6610 0.960 . S
C6598 H6611 0.962 . S
C6598 H6612 0.960 . S
C6599 C6596 1.511 . S
C6599 H6613 0.961 . S
C6599 H6614 0.961 . S
C6599 H6615 0.961 . S
C6600 C6601 1.370 . S
C6600 C6602 1.363 . S
C6600 H6616 0.931 . S
C6601 C6600 1.370 . S
C6601 C6605 1.408 . S
C6602 C6600 1.363 . S
C6602 C6603 1.370 . S
C6602 C6606 1.524 . S
C6603 C6595 1.503 . S
C6603 C6602 1.370 . S
C6603 C6604 1.403 . S
C6604 C6603 1.403 . S
C6604 C6605 1.404 . S
C6604 C6607 1.539 . S
C6605 C6601 1.408 . S
C6605 C6604 1.404 . S
C6605 H6617 0.930 . S
C6606 C6602 1.524 . S
C6606 H6618 0.956 . S
C6606 H6619 0.961 . S
C6606 H6620 0.961 . S
C6607 C6604 1.539 . S
C6607 H6621 0.958 . S
C6607 H6622 0.961 . S
C6607 H6623 0.960 . S
H6608 C6592 0.931 . S
H6609 C6597 0.929 . S
H6610 C6598 0.960 . S
H6611 C6598 0.962 . S
H6612 C6598 0.960 . S
H6613 C6599 0.961 . S
H6614 C6599 0.961 . S
H6615 C6599 0.961 . S
H6616 C6600 0.931 . S
H6617 C6605 0.930 . S
H6618 C6606 0.956 . S
H6619 C6606 0.961 . S
H6620 C6606 0.961 . S
H6621 C6607 0.958 . S
H6622 C6607 0.961 . S
H6623 C6607 0.960 . S
C6624 C6625 1.391 . S
C6624 C6626 1.394 . S
C6624 H6640 0.931 . S
C6625 C6624 1.391 . S
C6625 C6629 1.376 . S
C6626 C6624 1.394 . S
C6626 C6627 1.369 . S
C6626 C6630 1.531 . S
C6627 C6626 1.369 . S
C6627 C6628 1.410 . S
C6627 C6635 1.503 . S
C6628 C6627 1.410 . S
C6628 C6629 1.392 . S
C6628 C6631 1.511 . S
C6629 C6625 1.376 . S
C6629 C6628 1.392 . S
C6629 H6641 0.929 . S
C6630 C6626 1.531 . S
C6630 H6642 0.960 . S
C6630 H6643 0.962 . S
C6630 H6644 0.960 . S
C6631 C6628 1.511 . S
C6631 H6645 0.961 . S
C6631 H6646 0.961 . S
C6631 H6647 0.961 . S
C6632 C6633 1.370 . S
C6632 C6634 1.363 . S
C6632 H6648 0.931 . S
C6633 C6632 1.370 . S
C6633 C6637 1.408 . S
C6634 C6632 1.363 . S
C6634 C6635 1.370 . S
C6634 C6638 1.524 . S
C6635 C6627 1.503 . S
C6635 C6634 1.370 . S
C6635 C6636 1.403 . S
C6636 C6635 1.403 . S
C6636 C6637 1.404 . S
C6636 C6639 1.539 . S
C6637 C6633 1.408 . S
C6637 C6636 1.404 . S
C6637 H6649 0.930 . S
C6638 C6634 1.524 . S
C6638 H6650 0.956 . S
C6638 H6651 0.961 . S
C6638 H6652 0.961 . S
C6639 C6636 1.539 . S
C6639 H6653 0.958 . S
C6639 H6654 0.961 . S
C6639 H6655 0.960 . S
H6640 C6624 0.931 . S
H6641 C6629 0.929 . S
H6642 C6630 0.960 . S
H6643 C6630 0.962 . S
H6644 C6630 0.960 . S
H6645 C6631 0.961 . S
H6646 C6631 0.961 . S
H6647 C6631 0.961 . S
H6648 C6632 0.931 . S
H6649 C6637 0.930 . S
H6650 C6638 0.956 . S
H6651 C6638 0.961 . S
H6652 C6638 0.961 . S
H6653 C6639 0.958 . S
H6654 C6639 0.961 . S
H6655 C6639 0.960 . S
C6656 C6657 1.391 . S
C6656 C6658 1.394 . S
C6656 H6672 0.931 . S
C6657 C6656 1.391 . S
C6657 C6661 1.376 . S
C6658 C6656 1.394 . S
C6658 C6659 1.369 . S
C6658 C6662 1.531 . S
C6659 C6658 1.369 . S
C6659 C6660 1.410 . S
C6659 C6667 1.503 . S
C6660 C6659 1.410 . S
C6660 C6661 1.392 . S
C6660 C6663 1.511 . S
C6661 C6657 1.376 . S
C6661 C6660 1.392 . S
C6661 H6673 0.929 . S
C6662 C6658 1.531 . S
C6662 H6674 0.960 . S
C6662 H6675 0.962 . S
C6662 H6676 0.960 . S
C6663 C6660 1.511 . S
C6663 H6677 0.961 . S
C6663 H6678 0.961 . S
C6663 H6679 0.961 . S
C6664 C6665 1.370 . S
C6664 C6666 1.363 . S
C6664 H6680 0.931 . S
C6665 C6664 1.370 . S
C6665 C6669 1.408 . S
C6666 C6664 1.363 . S
C6666 C6667 1.370 . S
C6666 C6670 1.524 . S
C6667 C6659 1.503 . S
C6667 C6666 1.370 . S
C6667 C6668 1.403 . S
C6668 C6667 1.403 . S
C6668 C6669 1.404 . S
C6668 C6671 1.539 . S
C6669 C6665 1.408 . S
C6669 C6668 1.404 . S
C6669 H6681 0.930 . S
C6670 C6666 1.524 . S
C6670 H6682 0.956 . S
C6670 H6683 0.961 . S
C6670 H6684 0.961 . S
C6671 C6668 1.539 . S
C6671 H6685 0.958 . S
C6671 H6686 0.961 . S
C6671 H6687 0.960 . S
H6672 C6656 0.931 . S
H6673 C6661 0.929 . S
H6674 C6662 0.960 . S
H6675 C6662 0.962 . S
H6676 C6662 0.960 . S
H6677 C6663 0.961 . S
H6678 C6663 0.961 . S
H6679 C6663 0.961 . S
H6680 C6664 0.931 . S
H6681 C6669 0.930 . S
H6682 C6670 0.956 . S
H6683 C6670 0.961 . S
H6684 C6670 0.961 . S
H6685 C6671 0.958 . S
H6686 C6671 0.961 . S
H6687 C6671 0.960 . S
C6688 C6689 1.391 . S
C6688 C6690 1.394 . S
C6688 H6704 0.931 . S
C6689 C6688 1.391 . S
C6689 C6693 1.376 . S
C6690 C6688 1.394 . S
C6690 C6691 1.369 . S
C6690 C6694 1.531 . S
C6691 C6690 1.369 . S
C6691 C6692 1.410 . S
C6691 C6699 1.503 . S
C6692 C6691 1.410 . S
C6692 C6693 1.392 . S
C6692 C6695 1.511 . S
C6693 C6689 1.376 . S
C6693 C6692 1.392 . S
C6693 H6705 0.929 . S
C6694 C6690 1.531 . S
C6694 H6706 0.960 . S
C6694 H6707 0.962 . S
C6694 H6708 0.960 . S
C6695 C6692 1.511 . S
C6695 H6709 0.961 . S
C6695 H6710 0.961 . S
C6695 H6711 0.961 . S
C6696 C6697 1.370 . S
C6696 C6698 1.363 . S
C6696 H6712 0.931 . S
C6697 C6696 1.370 . S
C6697 C6701 1.408 . S
C6698 C6696 1.363 . S
C6698 C6699 1.370 . S
C6698 C6702 1.524 . S
C6699 C6691 1.503 . S
C6699 C6698 1.370 . S
C6699 C6700 1.403 . S
C6700 C6699 1.403 . S
C6700 C6701 1.404 . S
C6700 C6703 1.539 . S
C6701 C6697 1.408 . S
C6701 C6700 1.404 . S
C6701 H6713 0.930 . S
C6702 C6698 1.524 . S
C6702 H6714 0.956 . S
C6702 H6715 0.961 . S
C6702 H6716 0.961 . S
C6703 C6700 1.539 . S
C6703 H6717 0.958 . S
C6703 H6718 0.961 . S
C6703 H6719 0.960 . S
H6704 C6688 0.931 . S
H6705 C6693 0.929 . S
H6706 C6694 0.960 . S
H6707 C6694 0.962 . S
H6708 C6694 0.960 . S
H6709 C6695 0.961 . S
H6710 C6695 0.961 . S
H6711 C6695 0.961 . S
H6712 C6696 0.931 . S
H6713 C6701 0.930 . S
H6714 C6702 0.956 . S
H6715 C6702 0.961 . S
H6716 C6702 0.961 . S
H6717 C6703 0.958 . S
H6718 C6703 0.961 . S
H6719 C6703 0.960 . S
C6720 C6721 1.391 . S
C6720 C6722 1.394 . S
C6720 H6736 0.931 . S
C6721 C6720 1.391 . S
C6721 C6725 1.376 . S
C6722 C6720 1.394 . S
C6722 C6723 1.369 . S
C6722 C6726 1.531 . S
C6723 C6722 1.369 . S
C6723 C6724 1.410 . S
C6723 C6731 1.503 . S
C6724 C6723 1.410 . S
C6724 C6725 1.392 . S
C6724 C6727 1.511 . S
C6725 C6721 1.376 . S
C6725 C6724 1.392 . S
C6725 H6737 0.929 . S
C6726 C6722 1.531 . S
C6726 H6738 0.960 . S
C6726 H6739 0.962 . S
C6726 H6740 0.960 . S
C6727 C6724 1.511 . S
C6727 H6741 0.961 . S
C6727 H6742 0.961 . S
C6727 H6743 0.961 . S
C6728 C6729 1.370 . S
C6728 C6730 1.363 . S
C6728 H6744 0.931 . S
C6729 C6728 1.370 . S
C6729 C6733 1.408 . S
C6730 C6728 1.363 . S
C6730 C6731 1.370 . S
C6730 C6734 1.524 . S
C6731 C6723 1.503 . S
C6731 C6730 1.370 . S
C6731 C6732 1.403 . S
C6732 C6731 1.403 . S
C6732 C6733 1.404 . S
C6732 C6735 1.539 . S
C6733 C6729 1.408 . S
C6733 C6732 1.404 . S
C6733 H6745 0.930 . S
C6734 C6730 1.524 . S
C6734 H6746 0.956 . S
C6734 H6747 0.961 . S
C6734 H6748 0.961 . S
C6735 C6732 1.539 . S
C6735 H6749 0.958 . S
C6735 H6750 0.961 . S
C6735 H6751 0.960 . S
H6736 C6720 0.931 . S
H6737 C6725 0.929 . S
H6738 C6726 0.960 . S
H6739 C6726 0.962 . S
H6740 C6726 0.960 . S
H6741 C6727 0.961 . S
H6742 C6727 0.961 . S
H6743 C6727 0.961 . S
H6744 C6728 0.931 . S
H6745 C6733 0.930 . S
H6746 C6734 0.956 . S
H6747 C6734 0.961 . S
H6748 C6734 0.961 . S
H6749 C6735 0.958 . S
H6750 C6735 0.961 . S
H6751 C6735 0.960 . S
C6752 C6753 1.391 . S
C6752 C6754 1.394 . S
C6752 H6768 0.931 . S
C6753 C6752 1.391 . S
C6753 C6757 1.376 . S
C6754 C6752 1.394 . S
C6754 C6755 1.369 . S
C6754 C6758 1.531 . S
C6755 C6754 1.369 . S
C6755 C6756 1.410 . S
C6755 C6763 1.503 . S
C6756 C6755 1.410 . S
C6756 C6757 1.392 . S
C6756 C6759 1.511 . S
C6757 C6753 1.376 . S
C6757 C6756 1.392 . S
C6757 H6769 0.929 . S
C6758 C6754 1.531 . S
C6758 H6770 0.960 . S
C6758 H6771 0.962 . S
C6758 H6772 0.960 . S
C6759 C6756 1.511 . S
C6759 H6773 0.961 . S
C6759 H6774 0.961 . S
C6759 H6775 0.961 . S
C6760 C6761 1.370 . S
C6760 C6762 1.363 . S
C6760 H6776 0.931 . S
C6761 C6760 1.370 . S
C6761 C6765 1.408 . S
C6762 C6760 1.363 . S
C6762 C6763 1.370 . S
C6762 C6766 1.524 . S
C6763 C6755 1.503 . S
C6763 C6762 1.370 . S
C6763 C6764 1.403 . S
C6764 C6763 1.403 . S
C6764 C6765 1.404 . S
C6764 C6767 1.539 . S
C6765 C6761 1.408 . S
C6765 C6764 1.404 . S
C6765 H6777 0.930 . S
C6766 C6762 1.524 . S
C6766 H6778 0.956 . S
C6766 H6779 0.961 . S
C6766 H6780 0.961 . S
C6767 C6764 1.539 . S
C6767 H6781 0.958 . S
C6767 H6782 0.961 . S
C6767 H6783 0.960 . S
H6768 C6752 0.931 . S
H6769 C6757 0.929 . S
H6770 C6758 0.960 . S
H6771 C6758 0.962 . S
H6772 C6758 0.960 . S
H6773 C6759 0.961 . S
H6774 C6759 0.961 . S
H6775 C6759 0.961 . S
H6776 C6760 0.931 . S
H6777 C6765 0.930 . S
H6778 C6766 0.956 . S
H6779 C6766 0.961 . S
H6780 C6766 0.961 . S
H6781 C6767 0.958 . S
H6782 C6767 0.961 . S
H6783 C6767 0.960 . S
C6784 C6785 1.391 . S
C6784 C6786 1.394 . S
C6784 H6800 0.931 . S
C6785 C6784 1.391 . S
C6785 C6789 1.376 . S
C6786 C6784 1.394 . S
C6786 C6787 1.369 . S
C6786 C6790 1.531 . S
C6787 C6786 1.369 . S
C6787 C6788 1.410 . S
C6787 C6795 1.503 . S
C6788 C6787 1.410 . S
C6788 C6789 1.392 . S
C6788 C6791 1.511 . S
C6789 C6785 1.376 . S
C6789 C6788 1.392 . S
C6789 H6801 0.929 . S
C6790 C6786 1.531 . S
C6790 H6802 0.960 . S
C6790 H6803 0.962 . S
C6790 H6804 0.960 . S
C6791 C6788 1.511 . S
C6791 H6805 0.961 . S
C6791 H6806 0.961 . S
C6791 H6807 0.961 . S
C6792 C6793 1.370 . S
C6792 C6794 1.363 . S
C6792 H6808 0.931 . S
C6793 C6792 1.370 . S
C6793 C6797 1.408 . S
C6794 C6792 1.363 . S
C6794 C6795 1.370 . S
C6794 C6798 1.524 . S
C6795 C6787 1.503 . S
C6795 C6794 1.370 . S
C6795 C6796 1.403 . S
C6796 C6795 1.403 . S
C6796 C6797 1.404 . S
C6796 C6799 1.539 . S
C6797 C6793 1.408 . S
C6797 C6796 1.404 . S
C6797 H6809 0.930 . S
C6798 C6794 1.524 . S
C6798 H6810 0.956 . S
C6798 H6811 0.961 . S
C6798 H6812 0.961 . S
C6799 C6796 1.539 . S
C6799 H6813 0.958 . S
C6799 H6814 0.961 . S
C6799 H6815 0.960 . S
H6800 C6784 0.931 . S
H6801 C6789 0.929 . S
H6802 C6790 0.960 . S
H6803 C6790 0.962 . S
H6804 C6790 0.960 . S
H6805 C6791 0.961 . S
H6806 C6791 0.961 . S
H6807 C6791 0.961 . S
H6808 C6792 0.931 . S
H6809 C6797 0.930 . S
H6810 C6798 0.956 . S
H6811 C6798 0.961 . S
H6812 C6798 0.961 . S
H6813 C6799 0.958 . S
H6814 C6799 0.961 . S
H6815 C6799 0.960 . S
C6816 C6817 1.391 . S
C6816 C6818 1.394 . S
C6816 H6832 0.931 . S
C6817 C6816 1.391 . S
C6817 C6821 1.376 . S
C6818 C6816 1.394 . S
C6818 C6819 1.369 . S
C6818 C6822 1.531 . S
C6819 C6818 1.369 . S
C6819 C6820 1.410 . S
C6819 C6827 1.503 . S
C6820 C6819 1.410 . S
C6820 C6821 1.392 . S
C6820 C6823 1.511 . S
C6821 C6817 1.376 . S
C6821 C6820 1.392 . S
C6821 H6833 0.929 . S
C6822 C6818 1.531 . S
C6822 H6834 0.960 . S
C6822 H6835 0.962 . S
C6822 H6836 0.960 . S
C6823 C6820 1.511 . S
C6823 H6837 0.961 . S
C6823 H6838 0.961 . S
C6823 H6839 0.961 . S
C6824 C6825 1.370 . S
C6824 C6826 1.363 . S
C6824 H6840 0.931 . S
C6825 C6824 1.370 . S
C6825 C6829 1.408 . S
C6826 C6824 1.363 . S
C6826 C6827 1.370 . S
C6826 C6830 1.524 . S
C6827 C6819 1.503 . S
C6827 C6826 1.370 . S
C6827 C6828 1.403 . S
C6828 C6827 1.403 . S
C6828 C6829 1.404 . S
C6828 C6831 1.539 . S
C6829 C6825 1.408 . S
C6829 C6828 1.404 . S
C6829 H6841 0.930 . S
C6830 C6826 1.524 . S
C6830 H6842 0.956 . S
C6830 H6843 0.961 . S
C6830 H6844 0.961 . S
C6831 C6828 1.539 . S
C6831 H6845 0.958 . S
C6831 H6846 0.961 . S
C6831 H6847 0.960 . S
H6832 C6816 0.931 . S
H6833 C6821 0.929 . S
H6834 C6822 0.960 . S
H6835 C6822 0.962 . S
H6836 C6822 0.960 . S
H6837 C6823 0.961 . S
H6838 C6823 0.961 . S
H6839 C6823 0.961 . S
H6840 C6824 0.931 . S
H6841 C6829 0.930 . S
H6842 C6830 0.956 . S
H6843 C6830 0.961 . S
H6844 C6830 0.961 . S
H6845 C6831 0.958 . S
H6846 C6831 0.961 . S
H6847 C6831 0.960 . S
C6848 C6849 1.391 . S
C6848 C6850 1.394 . S
C6848 H6864 0.931 . S
C6849 C6848 1.391 . S
C6849 C6853 1.376 . S
C6850 C6848 1.394 . S
C6850 C6851 1.369 . S
C6850 C6854 1.531 . S
C6851 C6850 1.369 . S
C6851 C6852 1.410 . S
C6851 C6859 1.503 . S
C6852 C6851 1.410 . S
C6852 C6853 1.392 . S
C6852 C6855 1.511 . S
C6853 C6849 1.376 . S
C6853 C6852 1.392 . S
C6853 H6865 0.929 . S
C6854 C6850 1.531 . S
C6854 H6866 0.960 . S
C6854 H6867 0.962 . S
C6854 H6868 0.960 . S
C6855 C6852 1.511 . S
C6855 H6869 0.961 . S
C6855 H6870 0.961 . S
C6855 H6871 0.961 . S
C6856 C6857 1.370 . S
C6856 C6858 1.363 . S
C6856 H6872 0.931 . S
C6857 C6856 1.370 . S
C6857 C6861 1.408 . S
C6858 C6856 1.363 . S
C6858 C6859 1.370 . S
C6858 C6862 1.524 . S
C6859 C6851 1.503 . S
C6859 C6858 1.370 . S
C6859 C6860 1.403 . S
C6860 C6859 1.403 . S
C6860 C6861 1.404 . S
C6860 C6863 1.539 . S
C6861 C6857 1.408 . S
C6861 C6860 1.404 . S
C6861 H6873 0.930 . S
C6862 C6858 1.524 . S
C6862 H6874 0.956 . S
C6862 H6875 0.961 . S
C6862 H6876 0.961 . S
C6863 C6860 1.539 . S
C6863 H6877 0.958 . S
C6863 H6878 0.961 . S
C6863 H6879 0.960 . S
H6864 C6848 0.931 . S
H6865 C6853 0.929 . S
H6866 C6854 0.960 . S
H6867 C6854 0.962 . S
H6868 C6854 0.960 . S
H6869 C6855 0.961 . S
H6870 C6855 0.961 . S
H6871 C6855 0.961 . S
H6872 C6856 0.931 . S
H6873 C6861 0.930 . S
H6874 C6862 0.956 . S
H6875 C6862 0.961 . S
H6876 C6862 0.961 . S
H6877 C6863 0.958 . S
H6878 C6863 0.961 . S
H6879 C6863 0.960 . S
C6880 C6881 1.391 . S
C6880 C6882 1.394 . S
C6880 H6896 0.931 . S
C6881 C6880 1.391 . S
C6881 C6885 1.376 . S
C6882 C6880 1.394 . S
C6882 C6883 1.369 . S
C6882 C6886 1.531 . S
C6883 C6882 1.369 . S
C6883 C6884 1.410 . S
C6883 C6891 1.503 . S
C6884 C6883 1.410 . S
C6884 C6885 1.392 . S
C6884 C6887 1.511 . S
C6885 C6881 1.376 . S
C6885 C6884 1.392 . S
C6885 H6897 0.929 . S
C6886 C6882 1.531 . S
C6886 H6898 0.960 . S
C6886 H6899 0.962 . S
C6886 H6900 0.960 . S
C6887 C6884 1.511 . S
C6887 H6901 0.961 . S
C6887 H6902 0.961 . S
C6887 H6903 0.961 . S
C6888 C6889 1.370 . S
C6888 C6890 1.363 . S
C6888 H6904 0.931 . S
C6889 C6888 1.370 . S
C6889 C6893 1.408 . S
C6890 C6888 1.363 . S
C6890 C6891 1.370 . S
C6890 C6894 1.524 . S
C6891 C6883 1.503 . S
C6891 C6890 1.370 . S
C6891 C6892 1.403 . S
C6892 C6891 1.403 . S
C6892 C6893 1.404 . S
C6892 C6895 1.539 . S
C6893 C6889 1.408 . S
C6893 C6892 1.404 . S
C6893 H6905 0.930 . S
C6894 C6890 1.524 . S
C6894 H6906 0.956 . S
C6894 H6907 0.961 . S
C6894 H6908 0.961 . S
C6895 C6892 1.539 . S
C6895 H6909 0.958 . S
C6895 H6910 0.961 . S
C6895 H6911 0.960 . S
H6896 C6880 0.931 . S
H6897 C6885 0.929 . S
H6898 C6886 0.960 . S
H6899 C6886 0.962 . S
H6900 C6886 0.960 . S
H6901 C6887 0.961 . S
H6902 C6887 0.961 . S
H6903 C6887 0.961 . S
H6904 C6888 0.931 . S
H6905 C6893 0.930 . S
H6906 C6894 0.956 . S
H6907 C6894 0.961 . S
H6908 C6894 0.961 . S
H6909 C6895 0.958 . S
H6910 C6895 0.961 . S
H6911 C6895 0.960 . S
C6912 C6913 1.391 . S
C6912 C6914 1.394 . S
C6912 H6928 0.931 . S
C6913 C6912 1.391 . S
C6913 C6917 1.376 . S
C6914 C6912 1.394 . S
C6914 C6915 1.369 . S
C6914 C6918 1.531 . S
C6915 C6914 1.369 . S
C6915 C6916 1.410 . S
C6915 C6923 1.503 . S
C6916 C6915 1.410 . S
C6916 C6917 1.392 . S
C6916 C6919 1.511 . S
C6917 C6913 1.376 . S
C6917 C6916 1.392 . S
C6917 H6929 0.929 . S
C6918 C6914 1.531 . S
C6918 H6930 0.960 . S
C6918 H6931 0.962 . S
C6918 H6932 0.960 . S
C6919 C6916 1.511 . S
C6919 H6933 0.961 . S
C6919 H6934 0.961 . S
C6919 H6935 0.961 . S
C6920 C6921 1.370 . S
C6920 C6922 1.363 . S
C6920 H6936 0.931 . S
C6921 C6920 1.370 . S
C6921 C6925 1.408 . S
C6922 C6920 1.363 . S
C6922 C6923 1.370 . S
C6922 C6926 1.524 . S
C6923 C6915 1.503 . S
C6923 C6922 1.370 . S
C6923 C6924 1.403 . S
C6924 C6923 1.403 . S
C6924 C6925 1.404 . S
C6924 C6927 1.539 . S
C6925 C6921 1.408 . S
C6925 C6924 1.404 . S
C6925 H6937 0.930 . S
C6926 C6922 1.524 . S
C6926 H6938 0.956 . S
C6926 H6939 0.961 . S
C6926 H6940 0.961 . S
C6927 C6924 1.539 . S
C6927 H6941 0.958 . S
C6927 H6942 0.961 . S
C6927 H6943 0.960 . S
H6928 C6912 0.931 . S
H6929 C6917 0.929 . S
H6930 C6918 0.960 . S
H6931 C6918 0.962 . S
H6932 C6918 0.960 . S
H6933 C6919 0.961 . S
H6934 C6919 0.961 . S
H6935 C6919 0.961 . S
H6936 C6920 0.931 . S
H6937 C6925 0.930 . S
H6938 C6926 0.956 . S
H6939 C6926 0.961 . S
H6940 C6926 0.961 . S
H6941 C6927 0.958 . S
H6942 C6927 0.961 . S
H6943 C6927 0.960 . S
C6944 C6945 1.391 . S
C6944 C6946 1.394 . S
C6944 H6960 0.931 . S
C6945 C6944 1.391 . S
C6945 C6949 1.376 . S
C6946 C6944 1.394 . S
C6946 C6947 1.369 . S
C6946 C6950 1.531 . S
C6947 C6946 1.369 . S
C6947 C6948 1.410 . S
C6947 C6955 1.503 . S
C6948 C6947 1.410 . S
C6948 C6949 1.392 . S
C6948 C6951 1.511 . S
C6949 C6945 1.376 . S
C6949 C6948 1.392 . S
C6949 H6961 0.929 . S
C6950 C6946 1.531 . S
C6950 H6962 0.960 . S
C6950 H6963 0.962 . S
C6950 H6964 0.960 . S
C6951 C6948 1.511 . S
C6951 H6965 0.961 . S
C6951 H6966 0.961 . S
C6951 H6967 0.961 . S
C6952 C6953 1.370 . S
C6952 C6954 1.363 . S
C6952 H6968 0.931 . S
C6953 C6952 1.370 . S
C6953 C6957 1.408 . S
C6954 C6952 1.363 . S
C6954 C6955 1.370 . S
C6954 C6958 1.524 . S
C6955 C6947 1.503 . S
C6955 C6954 1.370 . S
C6955 C6956 1.403 . S
C6956 C6955 1.403 . S
C6956 C6957 1.404 . S
C6956 C6959 1.539 . S
C6957 C6953 1.408 . S
C6957 C6956 1.404 . S
C6957 H6969 0.930 . S
C6958 C6954 1.524 . S
C6958 H6970 0.956 . S
C6958 H6971 0.961 . S
C6958 H6972 0.961 . S
C6959 C6956 1.539 . S
C6959 H6973 0.958 . S
C6959 H6974 0.961 . S
C6959 H6975 0.960 . S
H6960 C6944 0.931 . S
H6961 C6949 0.929 . S
H6962 C6950 0.960 . S
H6963 C6950 0.962 . S
H6964 C6950 0.960 . S
H6965 C6951 0.961 . S
H6966 C6951 0.961 . S
H6967 C6951 0.961 . S
H6968 C6952 0.931 . S
H6969 C6957 0.930 . S
H6970 C6958 0.956 . S
H6971 C6958 0.961 . S
H6972 C6958 0.961 . S
H6973 C6959 0.958 . S
H6974 C6959 0.961 . S
H6975 C6959 0.960 . S
C6976 C6977 1.391 . S
C6976 C6978 1.394 . S
C6976 H6992 0.931 . S
C6977 C6976 1.391 . S
C6977 C6981 1.376 . S
C6978 C6976 1.394 . S
C6978 C6979 1.369 . S
C6978 C6982 1.531 . S
C6979 C6978 1.369 . S
C6979 C6980 1.410 . S
C6979 C6987 1.503 . S
C6980 C6979 1.410 . S
C6980 C6981 1.392 . S
C6980 C6983 1.511 . S
C6981 C6977 1.376 . S
C6981 C6980 1.392 . S
C6981 H6993 0.929 . S
C6982 C6978 1.531 . S
C6982 H6994 0.960 . S
C6982 H6995 0.962 . S
C6982 H6996 0.960 . S
C6983 C6980 1.511 . S
C6983 H6997 0.961 . S
C6983 H6998 0.961 . S
C6983 H6999 0.961 . S
C6984 C6985 1.370 . S
C6984 C6986 1.363 . S
C6984 H7000 0.931 . S
C6985 C6984 1.370 . S
C6985 C6989 1.408 . S
C6986 C6984 1.363 . S
C6986 C6987 1.370 . S
C6986 C6990 1.524 . S
C6987 C6979 1.503 . S
C6987 C6986 1.370 . S
C6987 C6988 1.403 . S
C6988 C6987 1.403 . S
C6988 C6989 1.404 . S
C6988 C6991 1.539 . S
C6989 C6985 1.408 . S
C6989 C6988 1.404 . S
C6989 H7001 0.930 . S
C6990 C6986 1.524 . S
C6990 H7002 0.956 . S
C6990 H7003 0.961 . S
C6990 H7004 0.961 . S
C6991 C6988 1.539 . S
C6991 H7005 0.958 . S
C6991 H7006 0.961 . S
C6991 H7007 0.960 . S
H6992 C6976 0.931 . S
H6993 C6981 0.929 . S
H6994 C6982 0.960 . S
H6995 C6982 0.962 . S
H6996 C6982 0.960 . S
H6997 C6983 0.961 . S
H6998 C6983 0.961 . S
H6999 C6983 0.961 . S
H7000 C6984 0.931 . S
H7001 C6989 0.930 . S
H7002 C6990 0.956 . S
H7003 C6990 0.961 . S
H7004 C6990 0.961 . S
H7005 C6991 0.958 . S
H7006 C6991 0.961 . S
H7007 C6991 0.960 . S
C7008 C7009 1.391 . S
C7008 C7010 1.394 . S
C7008 H7024 0.931 . S
C7009 C7008 1.391 . S
C7009 C7013 1.376 . S
C7010 C7008 1.394 . S
C7010 C7011 1.369 . S
C7010 C7014 1.531 . S
C7011 C7010 1.369 . S
C7011 C7012 1.410 . S
C7011 C7019 1.503 . S
C7012 C7011 1.410 . S
C7012 C7013 1.392 . S
C7012 C7015 1.511 . S
C7013 C7009 1.376 . S
C7013 C7012 1.392 . S
C7013 H7025 0.929 . S
C7014 C7010 1.531 . S
C7014 H7026 0.960 . S
C7014 H7027 0.962 . S
C7014 H7028 0.960 . S
C7015 C7012 1.511 . S
C7015 H7029 0.961 . S
C7015 H7030 0.961 . S
C7015 H7031 0.961 . S
C7016 C7017 1.370 . S
C7016 C7018 1.363 . S
C7016 H7032 0.931 . S
C7017 C7016 1.370 . S
C7017 C7021 1.408 . S
C7018 C7016 1.363 . S
C7018 C7019 1.370 . S
C7018 C7022 1.524 . S
C7019 C7011 1.503 . S
C7019 C7018 1.370 . S
C7019 C7020 1.403 . S
C7020 C7019 1.403 . S
C7020 C7021 1.404 . S
C7020 C7023 1.539 . S
C7021 C7017 1.408 . S
C7021 C7020 1.404 . S
C7021 H7033 0.930 . S
C7022 C7018 1.524 . S
C7022 H7034 0.956 . S
C7022 H7035 0.961 . S
C7022 H7036 0.961 . S
C7023 C7020 1.539 . S
C7023 H7037 0.958 . S
C7023 H7038 0.961 . S
C7023 H7039 0.960 . S
H7024 C7008 0.931 . S
H7025 C7013 0.929 . S
H7026 C7014 0.960 . S
H7027 C7014 0.962 . S
H7028 C7014 0.960 . S
H7029 C7015 0.961 . S
H7030 C7015 0.961 . S
H7031 C7015 0.961 . S
H7032 C7016 0.931 . S
H7033 C7021 0.930 . S
H7034 C7022 0.956 . S
H7035 C7022 0.961 . S
H7036 C7022 0.961 . S
H7037 C7023 0.958 . S
H7038 C7023 0.961 . S
H7039 C7023 0.960 . S
C7040 C7041 1.391 . S
C7040 C7042 1.394 . S
C7040 H7056 0.931 . S
C7041 C7040 1.391 . S
C7041 C7045 1.376 . S
C7042 C7040 1.394 . S
C7042 C7043 1.369 . S
C7042 C7046 1.531 . S
C7043 C7042 1.369 . S
C7043 C7044 1.410 . S
C7043 C7051 1.503 . S
C7044 C7043 1.410 . S
C7044 C7045 1.392 . S
C7044 C7047 1.511 . S
C7045 C7041 1.376 . S
C7045 C7044 1.392 . S
C7045 H7057 0.929 . S
C7046 C7042 1.531 . S
C7046 H7058 0.960 . S
C7046 H7059 0.962 . S
C7046 H7060 0.960 . S
C7047 C7044 1.511 . S
C7047 H7061 0.961 . S
C7047 H7062 0.961 . S
C7047 H7063 0.961 . S
C7048 C7049 1.370 . S
C7048 C7050 1.363 . S
C7048 H7064 0.931 . S
C7049 C7048 1.370 . S
C7049 C7053 1.408 . S
C7050 C7048 1.363 . S
C7050 C7051 1.370 . S
C7050 C7054 1.524 . S
C7051 C7043 1.503 . S
C7051 C7050 1.370 . S
C7051 C7052 1.403 . S
C7052 C7051 1.403 . S
C7052 C7053 1.404 . S
C7052 C7055 1.539 . S
C7053 C7049 1.408 . S
C7053 C7052 1.404 . S
C7053 H7065 0.930 . S
C7054 C7050 1.524 . S
C7054 H7066 0.956 . S
C7054 H7067 0.961 . S
C7054 H7068 0.961 . S
C7055 C7052 1.539 . S
C7055 H7069 0.958 . S
C7055 H7070 0.961 . S
C7055 H7071 0.960 . S
H7056 C7040 0.931 . S
H7057 C7045 0.929 . S
H7058 C7046 0.960 . S
H7059 C7046 0.962 . S
H7060 C7046 0.960 . S
H7061 C7047 0.961 . S
H7062 C7047 0.961 . S
H7063 C7047 0.961 . S
H7064 C7048 0.931 . S
H7065 C7053 0.930 . S
H7066 C7054 0.956 . S
H7067 C7054 0.961 . S
H7068 C7054 0.961 . S
H7069 C7055 0.958 . S
H7070 C7055 0.961 . S
H7071 C7055 0.960 . S
C7072 C7073 1.391 . S
C7072 C7074 1.394 . S
C7072 H7088 0.931 . S
C7073 C7072 1.391 . S
C7073 C7077 1.376 . S
C7074 C7072 1.394 . S
C7074 C7075 1.369 . S
C7074 C7078 1.531 . S
C7075 C7074 1.369 . S
C7075 C7076 1.410 . S
C7075 C7083 1.503 . S
C7076 C7075 1.410 . S
C7076 C7077 1.392 . S
C7076 C7079 1.511 . S
C7077 C7073 1.376 . S
C7077 C7076 1.392 . S
C7077 H7089 0.929 . S
C7078 C7074 1.531 . S
C7078 H7090 0.960 . S
C7078 H7091 0.962 . S
C7078 H7092 0.960 . S
C7079 C7076 1.511 . S
C7079 H7093 0.961 . S
C7079 H7094 0.961 . S
C7079 H7095 0.961 . S
C7080 C7081 1.370 . S
C7080 C7082 1.363 . S
C7080 H7096 0.931 . S
C7081 C7080 1.370 . S
C7081 C7085 1.408 . S
C7082 C7080 1.363 . S
C7082 C7083 1.370 . S
C7082 C7086 1.524 . S
C7083 C7075 1.503 . S
C7083 C7082 1.370 . S
C7083 C7084 1.403 . S
C7084 C7083 1.403 . S
C7084 C7085 1.404 . S
C7084 C7087 1.539 . S
C7085 C7081 1.408 . S
C7085 C7084 1.404 . S
C7085 H7097 0.930 . S
C7086 C7082 1.524 . S
C7086 H7098 0.956 . S
C7086 H7099 0.961 . S
C7086 H7100 0.961 . S
C7087 C7084 1.539 . S
C7087 H7101 0.958 . S
C7087 H7102 0.961 . S
C7087 H7103 0.960 . S
H7088 C7072 0.931 . S
H7089 C7077 0.929 . S
H7090 C7078 0.960 . S
H7091 C7078 0.962 . S
H7092 C7078 0.960 . S
H7093 C7079 0.961 . S
H7094 C7079 0.961 . S
H7095 C7079 0.961 . S
H7096 C7080 0.931 . S
H7097 C7085 0.930 . S
H7098 C7086 0.956 . S
H7099 C7086 0.961 . S
H7100 C7086 0.961 . S
H7101 C7087 0.958 . S
H7102 C7087 0.961 . S
H7103 C7087 0.960 . S
C7104 C7105 1.391 . S
C7104 C7106 1.394 . S
C7104 H7120 0.931 . S
C7105 C7104 1.391 . S
C7105 C7109 1.376 . S
C7106 C7104 1.394 . S
C7106 C7107 1.369 . S
C7106 C7110 1.531 . S
C7107 C7106 1.369 . S
C7107 C7108 1.410 . S
C7107 C7115 1.503 . S
C7108 C7107 1.410 . S
C7108 C7109 1.392 . S
C7108 C7111 1.511 . S
C7109 C7105 1.376 . S
C7109 C7108 1.392 . S
C7109 H7121 0.929 . S
C7110 C7106 1.531 . S
C7110 H7122 0.960 . S
C7110 H7123 0.962 . S
C7110 H7124 0.960 . S
C7111 C7108 1.511 . S
C7111 H7125 0.961 . S
C7111 H7126 0.961 . S
C7111 H7127 0.961 . S
C7112 C7113 1.370 . S
C7112 C7114 1.363 . S
C7112 H7128 0.931 . S
C7113 C7112 1.370 . S
C7113 C7117 1.408 . S
C7114 C7112 1.363 . S
C7114 C7115 1.370 . S
C7114 C7118 1.524 . S
C7115 C7107 1.503 . S
C7115 C7114 1.370 . S
C7115 C7116 1.403 . S
C7116 C7115 1.403 . S
C7116 C7117 1.404 . S
C7116 C7119 1.539 . S
C7117 C7113 1.408 . S
C7117 C7116 1.404 . S
C7117 H7129 0.930 . S
C7118 C7114 1.524 . S
C7118 H7130 0.956 . S
C7118 H7131 0.961 . S
C7118 H7132 0.961 . S
C7119 C7116 1.539 . S
C7119 H7133 0.958 . S
C7119 H7134 0.961 . S
C7119 H7135 0.960 . S
H7120 C7104 0.931 . S
H7121 C7109 0.929 . S
H7122 C7110 0.960 . S
H7123 C7110 0.962 . S
H7124 C7110 0.960 . S
H7125 C7111 0.961 . S
H7126 C7111 0.961 . S
H7127 C7111 0.961 . S
H7128 C7112 0.931 . S
H7129 C7117 0.930 . S
H7130 C7118 0.956 . S
H7131 C7118 0.961 . S
H7132 C7118 0.961 . S
H7133 C7119 0.958 . S
H7134 C7119 0.961 . S
H7135 C7119 0.960 . S
C7136 C7137 1.391 . S
C7136 C7138 1.394 . S
C7136 H7152 0.931 . S
C7137 C7136 1.391 . S
C7137 C7141 1.376 . S
C7138 C7136 1.394 . S
C7138 C7139 1.369 . S
C7138 C7142 1.531 . S
C7139 C7138 1.369 . S
C7139 C7140 1.410 . S
C7139 C7147 1.503 . S
C7140 C7139 1.410 . S
C7140 C7141 1.392 . S
C7140 C7143 1.511 . S
C7141 C7137 1.376 . S
C7141 C7140 1.392 . S
C7141 H7153 0.929 . S
C7142 C7138 1.531 . S
C7142 H7154 0.960 . S
C7142 H7155 0.962 . S
C7142 H7156 0.960 . S
C7143 C7140 1.511 . S
C7143 H7157 0.961 . S
C7143 H7158 0.961 . S
C7143 H7159 0.961 . S
C7144 C7145 1.370 . S
C7144 C7146 1.363 . S
C7144 H7160 0.931 . S
C7145 C7144 1.370 . S
C7145 C7149 1.408 . S
C7146 C7144 1.363 . S
C7146 C7147 1.370 . S
C7146 C7150 1.524 . S
C7147 C7139 1.503 . S
C7147 C7146 1.370 . S
C7147 C7148 1.403 . S
C7148 C7147 1.403 . S
C7148 C7149 1.404 . S
C7148 C7151 1.539 . S
C7149 C7145 1.408 . S
C7149 C7148 1.404 . S
C7149 H7161 0.930 . S
C7150 C7146 1.524 . S
C7150 H7162 0.956 . S
C7150 H7163 0.961 . S
C7150 H7164 0.961 . S
C7151 C7148 1.539 . S
C7151 H7165 0.958 . S
C7151 H7166 0.961 . S
C7151 H7167 0.960 . S
H7152 C7136 0.931 . S
H7153 C7141 0.929 . S
H7154 C7142 0.960 . S
H7155 C7142 0.962 . S
H7156 C7142 0.960 . S
H7157 C7143 0.961 . S
H7158 C7143 0.961 . S
H7159 C7143 0.961 . S
H7160 C7144 0.931 . S
H7161 C7149 0.930 . S
H7162 C7150 0.956 . S
H7163 C7150 0.961 . S
H7164 C7150 0.961 . S
H7165 C7151 0.958 . S
H7166 C7151 0.961 . S
H7167 C7151 0.960 . S
C7168 C7169 1.391 . S
C7168 C7170 1.394 . S
C7168 H7184 0.931 . S
C7169 C7168 1.391 . S
C7169 C7173 1.376 . S
C7170 C7168 1.394 . S
C7170 C7171 1.369 . S
C7170 C7174 1.531 . S
C7171 C7170 1.369 . S
C7171 C7172 1.410 . S
C7171 C7179 1.503 . S
C7172 C7171 1.410 . S
C7172 C7173 1.392 . S
C7172 C7175 1.511 . S
C7173 C7169 1.376 . S
C7173 C7172 1.392 . S
C7173 H7185 0.929 . S
C7174 C7170 1.531 . S
C7174 H7186 0.960 . S
C7174 H7187 0.962 . S
C7174 H7188 0.960 . S
C7175 C7172 1.511 . S
C7175 H7189 0.961 . S
C7175 H7190 0.961 . S
C7175 H7191 0.961 . S
C7176 C7177 1.370 . S
C7176 C7178 1.363 . S
C7176 H7192 0.931 . S
C7177 C7176 1.370 . S
C7177 C7181 1.408 . S
C7178 C7176 1.363 . S
C7178 C7179 1.370 . S
C7178 C7182 1.524 . S
C7179 C7171 1.503 . S
C7179 C7178 1.370 . S
C7179 C7180 1.403 . S
C7180 C7179 1.403 . S
C7180 C7181 1.404 . S
C7180 C7183 1.539 . S
C7181 C7177 1.408 . S
C7181 C7180 1.404 . S
C7181 H7193 0.930 . S
C7182 C7178 1.524 . S
C7182 H7194 0.956 . S
C7182 H7195 0.961 . S
C7182 H7196 0.961 . S
C7183 C7180 1.539 . S
C7183 H7197 0.958 . S
C7183 H7198 0.961 . S
C7183 H7199 0.960 . S
H7184 C7168 0.931 . S
H7185 C7173 0.929 . S
H7186 C7174 0.960 . S
H7187 C7174 0.962 . S
H7188 C7174 0.960 . S
H7189 C7175 0.961 . S
H7190 C7175 0.961 . S
H7191 C7175 0.961 . S
H7192 C7176 0.931 . S
H7193 C7181 0.930 . S
H7194 C7182 0.956 . S
H7195 C7182 0.961 . S
H7196 C7182 0.961 . S
H7197 C7183 0.958 . S
H7198 C7183 0.961 . S
H7199 C7183 0.960 . S
C7200 C7201 1.391 . S
C7200 C7202 1.394 . S
C7200 H7216 0.931 . S
C7201 C7200 1.391 . S
C7201 C7205 1.376 . S
C7202 C7200 1.394 . S
C7202 C7203 1.369 . S
C7202 C7206 1.531 . S
C7203 C7202 1.369 . S
C7203 C7204 1.410 . S
C7203 C7211 1.503 . S
C7204 C7203 1.410 . S
C7204 C7205 1.392 . S
C7204 C7207 1.511 . S
C7205 C7201 1.376 . S
C7205 C7204 1.392 . S
C7205 H7217 0.929 . S
C7206 C7202 1.531 . S
C7206 H7218 0.960 . S
C7206 H7219 0.962 . S
C7206 H7220 0.960 . S
C7207 C7204 1.511 . S
C7207 H7221 0.961 . S
C7207 H7222 0.961 . S
C7207 H7223 0.961 . S
C7208 C7209 1.370 . S
C7208 C7210 1.363 . S
C7208 H7224 0.931 . S
C7209 C7208 1.370 . S
C7209 C7213 1.408 . S
C7210 C7208 1.363 . S
C7210 C7211 1.370 . S
C7210 C7214 1.524 . S
C7211 C7203 1.503 . S
C7211 C7210 1.370 . S
C7211 C7212 1.403 . S
C7212 C7211 1.403 . S
C7212 C7213 1.404 . S
C7212 C7215 1.539 . S
C7213 C7209 1.408 . S
C7213 C7212 1.404 . S
C7213 H7225 0.930 . S
C7214 C7210 1.524 . S
C7214 H7226 0.956 . S
C7214 H7227 0.961 . S
C7214 H7228 0.961 . S
C7215 C7212 1.539 . S
C7215 H7229 0.958 . S
C7215 H7230 0.961 . S
C7215 H7231 0.960 . S
H7216 C7200 0.931 . S
H7217 C7205 0.929 . S
H7218 C7206 0.960 . S
H7219 C7206 0.962 . S
H7220 C7206 0.960 . S
H7221 C7207 0.961 . S
H7222 C7207 0.961 . S
H7223 C7207 0.961 . S
H7224 C7208 0.931 . S
H7225 C7213 0.930 . S
H7226 C7214 0.956 . S
H7227 C7214 0.961 . S
H7228 C7214 0.961 . S
H7229 C7215 0.958 . S
H7230 C7215 0.961 . S
H7231 C7215 0.960 . S
C7232 C7233 1.391 . S
C7232 C7234 1.394 . S
C7232 H7248 0.931 . S
C7233 C7232 1.391 . S
C7233 C7237 1.376 . S
C7234 C7232 1.394 . S
C7234 C7235 1.369 . S
C7234 C7238 1.531 . S
C7235 C7234 1.369 . S
C7235 C7236 1.410 . S
C7235 C7243 1.503 . S
C7236 C7235 1.410 . S
C7236 C7237 1.392 . S
C7236 C7239 1.511 . S
C7237 C7233 1.376 . S
C7237 C7236 1.392 . S
C7237 H7249 0.929 . S
C7238 C7234 1.531 . S
C7238 H7250 0.960 . S
C7238 H7251 0.962 . S
C7238 H7252 0.960 . S
C7239 C7236 1.511 . S
C7239 H7253 0.961 . S
C7239 H7254 0.961 . S
C7239 H7255 0.961 . S
C7240 C7241 1.370 . S
C7240 C7242 1.363 . S
C7240 H7256 0.931 . S
C7241 C7240 1.370 . S
C7241 C7245 1.408 . S
C7242 C7240 1.363 . S
C7242 C7243 1.370 . S
C7242 C7246 1.524 . S
C7243 C7235 1.503 . S
C7243 C7242 1.370 . S
C7243 C7244 1.403 . S
C7244 C7243 1.403 . S
C7244 C7245 1.404 . S
C7244 C7247 1.539 . S
C7245 C7241 1.408 . S
C7245 C7244 1.404 . S
C7245 H7257 0.930 . S
C7246 C7242 1.524 . S
C7246 H7258 0.956 . S
C7246 H7259 0.961 . S
C7246 H7260 0.961 . S
C7247 C7244 1.539 . S
C7247 H7261 0.958 . S
C7247 H7262 0.961 . S
C7247 H7263 0.960 . S
H7248 C7232 0.931 . S
H7249 C7237 0.929 . S
H7250 C7238 0.960 . S
H7251 C7238 0.962 . S
H7252 C7238 0.960 . S
H7253 C7239 0.961 . S
H7254 C7239 0.961 . S
H7255 C7239 0.961 . S
H7256 C7240 0.931 . S
H7257 C7245 0.930 . S
H7258 C7246 0.956 . S
H7259 C7246 0.961 . S
H7260 C7246 0.961 . S
H7261 C7247 0.958 . S
H7262 C7247 0.961 . S
H7263 C7247 0.960 . S
C7264 C7265 1.391 . S
C7264 C7266 1.394 . S
C7264 H7280 0.931 . S
C7265 C7264 1.391 . S
C7265 C7269 1.376 . S
C7266 C7264 1.394 . S
C7266 C7267 1.369 . S
C7266 C7270 1.531 . S
C7267 C7266 1.369 . S
C7267 C7268 1.410 . S
C7267 C7275 1.503 . S
C7268 C7267 1.410 . S
C7268 C7269 1.392 . S
C7268 C7271 1.511 . S
C7269 C7265 1.376 . S
C7269 C7268 1.392 . S
C7269 H7281 0.929 . S
C7270 C7266 1.531 . S
C7270 H7282 0.960 . S
C7270 H7283 0.962 . S
C7270 H7284 0.960 . S
C7271 C7268 1.511 . S
C7271 H7285 0.961 . S
C7271 H7286 0.961 . S
C7271 H7287 0.961 . S
C7272 C7273 1.370 . S
C7272 C7274 1.363 . S
C7272 H7288 0.931 . S
C7273 C7272 1.370 . S
C7273 C7277 1.408 . S
C7274 C7272 1.363 . S
C7274 C7275 1.370 . S
C7274 C7278 1.524 . S
C7275 C7267 1.503 . S
C7275 C7274 1.370 . S
C7275 C7276 1.403 . S
C7276 C7275 1.403 . S
C7276 C7277 1.404 . S
C7276 C7279 1.539 . S
C7277 C7273 1.408 . S
C7277 C7276 1.404 . S
C7277 H7289 0.930 . S
C7278 C7274 1.524 . S
C7278 H7290 0.956 . S
C7278 H7291 0.961 . S
C7278 H7292 0.961 . S
C7279 C7276 1.539 . S
C7279 H7293 0.958 . S
C7279 H7294 0.961 . S
C7279 H7295 0.960 . S
H7280 C7264 0.931 . S
H7281 C7269 0.929 . S
H7282 C7270 0.960 . S
H7283 C7270 0.962 . S
H7284 C7270 0.960 . S
H7285 C7271 0.961 . S
H7286 C7271 0.961 . S
H7287 C7271 0.961 . S
H7288 C7272 0.931 . S
H7289 C7277 0.930 . S
H7290 C7278 0.956 . S
H7291 C7278 0.961 . S
H7292 C7278 0.961 . S
H7293 C7279 0.958 . S
H7294 C7279 0.961 . S
H7295 C7279 0.960 . S
C7296 C7297 1.391 . S
C7296 C7298 1.394 . S
C7296 H7312 0.931 . S
C7297 C7296 1.391 . S
C7297 C7301 1.376 . S
C7298 C7296 1.394 . S
C7298 C7299 1.369 . S
C7298 C7302 1.531 . S
C7299 C7298 1.369 . S
C7299 C7300 1.410 . S
C7299 C7307 1.503 . S
C7300 C7299 1.410 . S
C7300 C7301 1.392 . S
C7300 C7303 1.511 . S
C7301 C7297 1.376 . S
C7301 C7300 1.392 . S
C7301 H7313 0.929 . S
C7302 C7298 1.531 . S
C7302 H7314 0.960 . S
C7302 H7315 0.962 . S
C7302 H7316 0.960 . S
C7303 C7300 1.511 . S
C7303 H7317 0.961 . S
C7303 H7318 0.961 . S
C7303 H7319 0.961 . S
C7304 C7305 1.370 . S
C7304 C7306 1.363 . S
C7304 H7320 0.931 . S
C7305 C7304 1.370 . S
C7305 C7309 1.408 . S
C7306 C7304 1.363 . S
C7306 C7307 1.370 . S
C7306 C7310 1.524 . S
C7307 C7299 1.503 . S
C7307 C7306 1.370 . S
C7307 C7308 1.403 . S
C7308 C7307 1.403 . S
C7308 C7309 1.404 . S
C7308 C7311 1.539 . S
C7309 C7305 1.408 . S
C7309 C7308 1.404 . S
C7309 H7321 0.930 . S
C7310 C7306 1.524 . S
C7310 H7322 0.956 . S
C7310 H7323 0.961 . S
C7310 H7324 0.961 . S
C7311 C7308 1.539 . S
C7311 H7325 0.958 . S
C7311 H7326 0.961 . S
C7311 H7327 0.960 . S
H7312 C7296 0.931 . S
H7313 C7301 0.929 . S
H7314 C7302 0.960 . S
H7315 C7302 0.962 . S
H7316 C7302 0.960 . S
H7317 C7303 0.961 . S
H7318 C7303 0.961 . S
H7319 C7303 0.961 . S
H7320 C7304 0.931 . S
H7321 C7309 0.930 . S
H7322 C7310 0.956 . S
H7323 C7310 0.961 . S
H7324 C7310 0.961 . S
H7325 C7311 0.958 . S
H7326 C7311 0.961 . S
H7327 C7311 0.960 . S
C7328 C7329 1.391 . S
C7328 C7330 1.394 . S
C7328 H7344 0.931 . S
C7329 C7328 1.391 . S
C7329 C7333 1.376 . S
C7330 C7328 1.394 . S
C7330 C7331 1.369 . S
C7330 C7334 1.531 . S
C7331 C7330 1.369 . S
C7331 C7332 1.410 . S
C7331 C7339 1.503 . S
C7332 C7331 1.410 . S
C7332 C7333 1.392 . S
C7332 C7335 1.511 . S
C7333 C7329 1.376 . S
C7333 C7332 1.392 . S
C7333 H7345 0.929 . S
C7334 C7330 1.531 . S
C7334 H7346 0.960 . S
C7334 H7347 0.962 . S
C7334 H7348 0.960 . S
C7335 C7332 1.511 . S
C7335 H7349 0.961 . S
C7335 H7350 0.961 . S
C7335 H7351 0.961 . S
C7336 C7337 1.370 . S
C7336 C7338 1.363 . S
C7336 H7352 0.931 . S
C7337 C7336 1.370 . S
C7337 C7341 1.408 . S
C7338 C7336 1.363 . S
C7338 C7339 1.370 . S
C7338 C7342 1.524 . S
C7339 C7331 1.503 . S
C7339 C7338 1.370 . S
C7339 C7340 1.403 . S
C7340 C7339 1.403 . S
C7340 C7341 1.404 . S
C7340 C7343 1.539 . S
C7341 C7337 1.408 . S
C7341 C7340 1.404 . S
C7341 H7353 0.930 . S
C7342 C7338 1.524 . S
C7342 H7354 0.956 . S
C7342 H7355 0.961 . S
C7342 H7356 0.961 . S
C7343 C7340 1.539 . S
C7343 H7357 0.958 . S
C7343 H7358 0.961 . S
C7343 H7359 0.960 . S
H7344 C7328 0.931 . S
H7345 C7333 0.929 . S
H7346 C7334 0.960 . S
H7347 C7334 0.962 . S
H7348 C7334 0.960 . S
H7349 C7335 0.961 . S
H7350 C7335 0.961 . S
H7351 C7335 0.961 . S
H7352 C7336 0.931 . S
H7353 C7341 0.930 . S
H7354 C7342 0.956 . S
H7355 C7342 0.961 . S
H7356 C7342 0.961 . S
H7357 C7343 0.958 . S
H7358 C7343 0.961 . S
H7359 C7343 0.960 . S
C7360 C7361 1.391 . S
C7360 C7362 1.394 . S
C7360 H7376 0.931 . S
C7361 C7360 1.391 . S
C7361 C7365 1.376 . S
C7362 C7360 1.394 . S
C7362 C7363 1.369 . S
C7362 C7366 1.531 . S
C7363 C7362 1.369 . S
C7363 C7364 1.410 . S
C7363 C7371 1.503 . S
C7364 C7363 1.410 . S
C7364 C7365 1.392 . S
C7364 C7367 1.511 . S
C7365 C7361 1.376 . S
C7365 C7364 1.392 . S
C7365 H7377 0.929 . S
C7366 C7362 1.531 . S
C7366 H7378 0.960 . S
C7366 H7379 0.962 . S
C7366 H7380 0.960 . S
C7367 C7364 1.511 . S
C7367 H7381 0.961 . S
C7367 H7382 0.961 . S
C7367 H7383 0.961 . S
C7368 C7369 1.370 . S
C7368 C7370 1.363 . S
C7368 H7384 0.931 . S
C7369 C7368 1.370 . S
C7369 C7373 1.408 . S
C7370 C7368 1.363 . S
C7370 C7371 1.370 . S
C7370 C7374 1.524 . S
C7371 C7363 1.503 . S
C7371 C7370 1.370 . S
C7371 C7372 1.403 . S
C7372 C7371 1.403 . S
C7372 C7373 1.404 . S
C7372 C7375 1.539 . S
C7373 C7369 1.408 . S
C7373 C7372 1.404 . S
C7373 H7385 0.930 . S
C7374 C7370 1.524 . S
C7374 H7386 0.956 . S
C7374 H7387 0.961 . S
C7374 H7388 0.961 . S
C7375 C7372 1.539 . S
C7375 H7389 0.958 . S
C7375 H7390 0.961 . S
C7375 H7391 0.960 . S
H7376 C7360 0.931 . S
H7377 C7365 0.929 . S
H7378 C7366 0.960 . S
H7379 C7366 0.962 . S
H7380 C7366 0.960 . S
H7381 C7367 0.961 . S
H7382 C7367 0.961 . S
H7383 C7367 0.961 . S
H7384 C7368 0.931 . S
H7385 C7373 0.930 . S
H7386 C7374 0.956 . S
H7387 C7374 0.961 . S
H7388 C7374 0.961 . S
H7389 C7375 0.958 . S
H7390 C7375 0.961 . S
H7391 C7375 0.960 . S
C7392 C7393 1.391 . S
C7392 C7394 1.394 . S
C7392 H7408 0.931 . S
C7393 C7392 1.391 . S
C7393 C7397 1.376 . S
C7394 C7392 1.394 . S
C7394 C7395 1.369 . S
C7394 C7398 1.531 . S
C7395 C7394 1.369 . S
C7395 C7396 1.410 . S
C7395 C7403 1.503 . S
C7396 C7395 1.410 . S
C7396 C7397 1.392 . S
C7396 C7399 1.511 . S
C7397 C7393 1.376 . S
C7397 C7396 1.392 . S
C7397 H7409 0.929 . S
C7398 C7394 1.531 . S
C7398 H7410 0.960 . S
C7398 H7411 0.962 . S
C7398 H7412 0.960 . S
C7399 C7396 1.511 . S
C7399 H7413 0.961 . S
C7399 H7414 0.961 . S
C7399 H7415 0.961 . S
C7400 C7401 1.370 . S
C7400 C7402 1.363 . S
C7400 H7416 0.931 . S
C7401 C7400 1.370 . S
C7401 C7405 1.408 . S
C7402 C7400 1.363 . S
C7402 C7403 1.370 . S
C7402 C7406 1.524 . S
C7403 C7395 1.503 . S
C7403 C7402 1.370 . S
C7403 C7404 1.403 . S
C7404 C7403 1.403 . S
C7404 C7405 1.404 . S
C7404 C7407 1.539 . S
C7405 C7401 1.408 . S
C7405 C7404 1.404 . S
C7405 H7417 0.930 . S
C7406 C7402 1.524 . S
C7406 H7418 0.956 . S
C7406 H7419 0.961 . S
C7406 H7420 0.961 . S
C7407 C7404 1.539 . S
C7407 H7421 0.958 . S
C7407 H7422 0.961 . S
C7407 H7423 0.960 . S
H7408 C7392 0.931 . S
H7409 C7397 0.929 . S
H7410 C7398 0.960 . S
H7411 C7398 0.962 . S
H7412 C7398 0.960 . S
H7413 C7399 0.961 . S
H7414 C7399 0.961 . S
H7415 C7399 0.961 . S
H7416 C7400 0.931 . S
H7417 C7405 0.930 . S
H7418 C7406 0.956 . S
H7419 C7406 0.961 . S
H7420 C7406 0.961 . S
H7421 C7407 0.958 . S
H7422 C7407 0.961 . S
H7423 C7407 0.960 . S
C7424 C7425 1.391 . S
C7424 C7426 1.394 . S
C7424 H7440 0.931 . S
C7425 C7424 1.391 . S
C7425 C7429 1.376 . S
C7426 C7424 1.394 . S
C7426 C7427 1.369 . S
C7426 C7430 1.531 . S
C7427 C7426 1.369 . S
C7427 C7428 1.410 . S
C7427 C7435 1.503 . S
C7428 C7427 1.410 . S
C7428 C7429 1.392 . S
C7428 C7431 1.511 . S
C7429 C7425 1.376 . S
C7429 C7428 1.392 . S
C7429 H7441 0.929 . S
C7430 C7426 1.531 . S
C7430 H7442 0.960 . S
C7430 H7443 0.962 . S
C7430 H7444 0.960 . S
C7431 C7428 1.511 . S
C7431 H7445 0.961 . S
C7431 H7446 0.961 . S
C7431 H7447 0.961 . S
C7432 C7433 1.370 . S
C7432 C7434 1.363 . S
C7432 H7448 0.931 . S
C7433 C7432 1.370 . S
C7433 C7437 1.408 . S
C7434 C7432 1.363 . S
C7434 C7435 1.370 . S
C7434 C7438 1.524 . S
C7435 C7427 1.503 . S
C7435 C7434 1.370 . S
C7435 C7436 1.403 . S
C7436 C7435 1.403 . S
C7436 C7437 1.404 . S
C7436 C7439 1.539 . S
C7437 C7433 1.408 . S
C7437 C7436 1.404 . S
C7437 H7449 0.930 . S
C7438 C7434 1.524 . S
C7438 H7450 0.956 . S
C7438 H7451 0.961 . S
C7438 H7452 0.961 . S
C7439 C7436 1.539 . S
C7439 H7453 0.958 . S
C7439 H7454 0.961 . S
C7439 H7455 0.960 . S
H7440 C7424 0.931 . S
H7441 C7429 0.929 . S
H7442 C7430 0.960 . S
H7443 C7430 0.962 . S
H7444 C7430 0.960 . S
H7445 C7431 0.961 . S
H7446 C7431 0.961 . S
H7447 C7431 0.961 . S
H7448 C7432 0.931 . S
H7449 C7437 0.930 . S
H7450 C7438 0.956 . S
H7451 C7438 0.961 . S
H7452 C7438 0.961 . S
H7453 C7439 0.958 . S
H7454 C7439 0.961 . S
H7455 C7439 0.960 . S
C7456 C7457 1.391 . S
C7456 C7458 1.394 . S
C7456 H7472 0.931 . S
C7457 C7456 1.391 . S
C7457 C7461 1.376 . S
C7458 C7456 1.394 . S
C7458 C7459 1.369 . S
C7458 C7462 1.531 . S
C7459 C7458 1.369 . S
C7459 C7460 1.410 . S
C7459 C7467 1.503 . S
C7460 C7459 1.410 . S
C7460 C7461 1.392 . S
C7460 C7463 1.511 . S
C7461 C7457 1.376 . S
C7461 C7460 1.392 . S
C7461 H7473 0.929 . S
C7462 C7458 1.531 . S
C7462 H7474 0.960 . S
C7462 H7475 0.962 . S
C7462 H7476 0.960 . S
C7463 C7460 1.511 . S
C7463 H7477 0.961 . S
C7463 H7478 0.961 . S
C7463 H7479 0.961 . S
C7464 C7465 1.370 . S
C7464 C7466 1.363 . S
C7464 H7480 0.931 . S
C7465 C7464 1.370 . S
C7465 C7469 1.408 . S
C7466 C7464 1.363 . S
C7466 C7467 1.370 . S
C7466 C7470 1.524 . S
C7467 C7459 1.503 . S
C7467 C7466 1.370 . S
C7467 C7468 1.403 . S
C7468 C7467 1.403 . S
C7468 C7469 1.404 . S
C7468 C7471 1.539 . S
C7469 C7465 1.408 . S
C7469 C7468 1.404 . S
C7469 H7481 0.930 . S
C7470 C7466 1.524 . S
C7470 H7482 0.956 . S
C7470 H7483 0.961 . S
C7470 H7484 0.961 . S
C7471 C7468 1.539 . S
C7471 H7485 0.958 . S
C7471 H7486 0.961 . S
C7471 H7487 0.960 . S
H7472 C7456 0.931 . S
H7473 C7461 0.929 . S
H7474 C7462 0.960 . S
H7475 C7462 0.962 . S
H7476 C7462 0.960 . S
H7477 C7463 0.961 . S
H7478 C7463 0.961 . S
H7479 C7463 0.961 . S
H7480 C7464 0.931 . S
H7481 C7469 0.930 . S
H7482 C7470 0.956 . S
H7483 C7470 0.961 . S
H7484 C7470 0.961 . S
H7485 C7471 0.958 . S
H7486 C7471 0.961 . S
H7487 C7471 0.960 . S
C1345 C5 1.658 . S
C1353 C957 1.650 . S
C1377 C915 1.660 . S
C1385 C19 1.651 . S
C1409 C929 1.640 . S
C1417 C33 1.658 . S
C1441 C47 1.654 . S
C1449 C943 1.656 . S
C1473 C999 1.654 . S
C1481 C61 1.656 . S
C1505 C971 1.645 . S
C1513 C75 1.653 . S
C1537 C985 1.644 . S
C1545 C89 1.653 . S
C1569 C103 1.643 . S
C1577 C901 1.654 . S
C1601 C117 1.653 . S
C1609 C887 1.650 . S
C1633 C131 1.660 . S
C1641 C845 1.652 . S
C1665 C145 1.647 . S
C1673 C859 1.658 . S
C1697 C159 1.659 . S
C1705 C873 1.650 . S
C1729 C173 1.652 . S
C1737 C803 1.651 . S
C1761 C817 1.641 . S
C1769 C187 1.656 . S
C1793 C831 1.640 . S
C1801 C201 1.657 . S
C1825 C215 1.651 . S
C1833 C789 1.657 . S
C1857 C229 1.648 . S
C1865 C775 1.658 . S
C1889 C243 1.659 . S
C1897 C691 1.650 . S
C1921 C705 1.657 . S
C1929 C257 1.650 . S
C1953 C719 1.660 . S
C1961 C271 1.651 . S
C1985 C677 1.640 . S
C1993 C285 1.658 . S
C2017 C299 1.640 . S
C2025 C747 1.656 . S
C2049 C313 1.660 . S
C2057 C761 1.651 . S
C2081 C327 1.650 . S
C2089 C733 1.651 . S
C2113 C341 1.659 . S
C2121 C1293 1.651 . S
C2145 C355 1.651 . S
C2153 C1251 1.658 . S
C2177 C369 1.640 . S
C2185 C1265 1.656 . S
C2209 C383 1.650 . S
C2217 C1279 1.650 . S
C2241 C397 1.659 . S
C2249 C1335 1.654 . S
C2273 C411 1.648 . S
C2281 C1307 1.651 . S
C2305 C1321 1.659 . S
C2313 C425 1.651 . S
C2337 C439 1.652 . S
C2345 C1237 1.657 . S
C2369 C453 1.656 . S
C2377 C1223 1.650 . S
C2401 C1181 1.654 . S
C2409 C467 1.650 . S
C2433 C481 1.660 . S
C2441 C1195 1.652 . S
C2465 C495 1.654 . S
C2473 C1209 1.657 . S
C2497 C509 1.654 . S
C2505 C1139 1.650 . S
C2529 C523 1.652 . S
C2537 C1153 1.650 . S
C2561 C537 1.653 . S
C2569 C1167 1.650 . S
C2593 C1125 1.640 . S
C2601 C551 1.657 . S
C2625 C565 1.659 . S
C2633 C1111 1.654 . S
C2657 C579 1.655 . S
C2665 C1027 1.657 . S
C2689 C593 1.659 . S
C2697 C1041 1.651 . S
C2721 C1055 1.652 . S
C2729 C607 1.658 . S
C2753 C621 1.660 . S
C2761 C1013 1.652 . S
C2785 C1083 1.643 . S
C2793 C635 1.652 . S
C2817 C649 1.653 . S
C2825 C1097 1.650 . S
C2849 C663 1.650 . S
C2857 C1069 1.650 . S
C2881 C9 1.512 . S
C2889 C555 1.515 . S
C2913 C23 1.506 . S
C2921 C513 1.512 . S
C2945 C527 1.504 . S
C2953 C37 1.512 . S
C2977 C51 1.502 . S
C2985 C541 1.511 . S
C3009 C471 1.502 . S
C3017 C65 1.511 . S
C3041 C485 1.502 . S
C3049 C79 1.511 . S
C3073 C499 1.520 . S
C3081 C93 1.519 . S
C3105 C457 1.518 . S
C3113 C107 1.517 . S
C3137 C443 1.513 . S
C3145 C121 1.516 . S
C3169 C135 1.512 . S
C3177 C401 1.515 . S
C3201 C415 1.520 . S
C3209 C149 1.518 . S
C3233 C163 1.519 . S
C3241 C429 1.518 . S
C3265 C359 1.513 . S
C3273 C177 1.515 . S
C3297 C373 1.508 . S
C3305 C191 1.513 . S
C3329 C205 1.517 . S
C3337 C387 1.518 . S
C3361 C219 1.508 . S
C3369 C345 1.514 . S
C3393 C233 1.510 . S
C3401 C625 1.514 . S
C3425 C247 1.501 . S
C3433 C667 1.511 . S
C3457 C639 1.517 . S
C3465 C261 1.517 . S
C3489 C653 1.502 . S
C3497 C275 1.511 . S
C3521 C289 1.506 . S
C3529 C569 1.513 . S
C3553 C303 1.517 . S
C3561 C597 1.516 . S
C3585 C611 1.501 . S
C3593 C317 1.511 . S
C3617 C331 1.520 . S
C3625 C583 1.518 . S
C3649 C1227 1.520 . S
C3657 C681 1.518 . S
C3681 C1185 1.501 . S
C3689 C695 1.511 . S
C3713 C1199 1.501 . S
C3721 C709 1.511 . S
C3745 C723 1.501 . S
C3753 C1213 1.511 . S
C3777 C1143 1.501 . S
C3785 C737 1.511 . S
C3809 C1157 1.505 . S
C3817 C751 1.513 . S
C3841 C765 1.510 . S
C3849 C1171 1.514 . S
C3873 C779 1.501 . S
C3881 C1129 1.511 . S
C3905 C1115 1.517 . S
C3913 C793 1.517 . S
C3937 C807 1.519 . S
C3945 C1073 1.518 . S
C3969 C1087 1.511 . S
C3977 C821 1.516 . S
C4001 C1101 1.502 . S
C4009 C835 1.511 . S
C4033 C849 1.519 . S
C4041 C1031 1.518 . S
C4065 C863 1.520 . S
C4073 C1045 1.518 . S
C4097 C1059 1.514 . S
C4105 C877 1.515 . S
C4129 C891 1.513 . S
C4137 C1017 1.516 . S
C4161 C1297 1.504 . S
C4169 C905 1.512 . S
C4193 C1339 1.510 . S
C4201 C919 1.515 . S
C4225 C933 1.511 . S
C4233 C1311 1.515 . S
C4257 C1325 1.503 . S
C4265 C947 1.511 . S
C4289 C1241 1.510 . S
C4297 C961 1.514 . S
C4321 C1269 1.516 . S
C4329 C975 1.516 . S
C4353 C989 1.520 . S
C4361 C1283 1.519 . S
C4385 C1255 1.511 . S
C4393 C1003 1.514 . S
C4417 C11 1.241 . S
C4425 C403 1.230 . S
C4449 C417 1.237 . S
C4457 C25 1.231 . S
C4481 C39 1.211 . S
C4489 C431 1.217 . S
C4513 C445 1.236 . S
C4521 C53 1.227 . S
C4545 C67 1.203 . S
C4553 C347 1.217 . S
C4577 C81 1.195 . S
C4585 C361 1.211 . S
C4609 C95 1.230 . S
C4617 C375 1.228 . S
C4641 C389 1.212 . S
C4649 C109 1.217 . S
C4673 C543 1.243 . S
C4681 C123 1.231 . S
C4705 C137 1.225 . S
C4713 C557 1.222 . S
C4737 C151 1.245 . S
C4745 C515 1.232 . S
C4769 C165 1.195 . S
C4777 C529 1.213 . S
C4801 C179 1.238 . S
C4809 C487 1.228 . S
C4833 C193 1.244 . S
C4841 C501 1.233 . S
C4865 C207 1.194 . S
C4873 C459 1.212 . S
C4897 C221 1.206 . S
C4905 C473 1.218 . S
C4929 C235 1.198 . S
C4937 C641 1.214 . S
C4961 C249 1.238 . S
C4969 C613 1.231 . S
C4993 C627 1.195 . S
C5001 C263 1.213 . S
C5025 C277 1.202 . S
C5033 C585 1.214 . S
C5057 C599 1.244 . S
C5065 C291 1.231 . S
C5089 C305 1.242 . S
C5097 C571 1.232 . S
C5121 C319 1.246 . S
C5129 C669 1.233 . S
C5153 C655 1.205 . S
C5161 C333 1.217 . S
C5185 C1075 1.236 . S
C5193 C683 1.230 . S
C5217 C697 1.199 . S
C5225 C1089 1.212 . S
C5249 C1103 1.192 . S
C5257 C711 1.211 . S
C5281 C725 1.210 . S
C5289 C1117 1.216 . S
C5313 C1019 1.193 . S
C5321 C739 1.212 . S
C5345 C1033 1.239 . S
C5353 C753 1.231 . S
C5377 C1047 1.246 . S
C5385 C767 1.233 . S
C5409 C781 1.219 . S
C5417 C1061 1.223 . S
C5441 C795 1.244 . S
C5449 C1215 1.231 . S
C5473 C1229 1.230 . S
C5481 C809 1.228 . S
C5505 C1187 1.232 . S
C5513 C823 1.229 . S
C5537 C1201 1.205 . S
C5545 C837 1.217 . S
C5569 C851 1.231 . S
C5577 C1159 1.228 . S
C5601 C865 1.219 . S
C5609 C1173 1.220 . S
C5633 C1131 1.194 . S
C5641 C879 1.213 . S
C5665 C1145 1.193 . S
C5673 C893 1.211 . S
C5697 C1313 1.240 . S
C5705 C907 1.231 . S
C5729 C921 1.243 . S
C5737 C1285 1.232 . S
C5761 C1299 1.195 . S
C5769 C935 1.213 . S
C5793 C949 1.200 . S
C5801 C1257 1.213 . S
C5825 C963 1.243 . S
C5833 C1271 1.231 . S
C5857 C977 1.240 . S
C5865 C1243 1.229 . S
C5889 C1341 1.233 . S
C5897 C991 1.226 . S
C5921 C1005 1.195 . S
C5929 C1327 1.213 . S
C5953 C434 1.268 . S
C5961 C0 1.258 . S
C5985 C392 1.212 . S
C5993 C14 1.234 . S
C6017 C28 1.262 . S
C6025 C406 1.256 . S
C6049 C420 1.213 . S
C6057 C42 1.234 . S
C6081 C350 1.267 . S
C6089 C56 1.258 . S
C6113 C70 1.249 . S
C6121 C364 1.251 . S
C6145 C84 1.253 . S
C6153 C378 1.253 . S
C6177 C336 1.230 . S
C6185 C98 1.239 . S
C6209 C616 1.264 . S
C6217 C112 1.257 . S
C6241 C126 1.247 . S
C6249 C574 1.250 . S
C6273 C140 1.215 . S
C6281 C588 1.234 . S
C6305 C602 1.236 . S
C6313 C154 1.241 . S
C6337 C168 1.274 . S
C6345 C658 1.259 . S
C6369 C630 1.261 . S
C6377 C182 1.256 . S
C6401 C644 1.263 . S
C6409 C196 1.253 . S
C6433 C210 1.269 . S
C6441 C560 1.258 . S
C6465 C224 1.215 . S
C6473 C546 1.236 . S
C6497 C238 1.223 . S
C6505 C462 1.237 . S
C6529 C252 1.264 . S
C6537 C476 1.254 . S
C6561 C490 1.252 . S
C6569 C266 1.248 . S
C6593 C448 1.221 . S
C6601 C280 1.236 . S
C6625 C294 1.214 . S
C6633 C518 1.235 . S
C6657 C308 1.215 . S
C6665 C532 1.236 . S
C6689 C322 1.270 . S
C6697 C504 1.259 . S
C6721 C672 1.251 . S
C6729 C1106 1.252 . S
C6753 C686 1.263 . S
C6761 C1064 1.253 . S
C6785 C700 1.265 . S
C6793 C1078 1.257 . S
C6817 C1092 1.240 . S
C6825 C714 1.247 . S
C6849 C1022 1.242 . S
C6857 C728 1.244 . S
C6881 C1036 1.247 . S
C6889 C742 1.246 . S
C6913 C756 1.216 . S
C6921 C1050 1.234 . S
C6945 C1008 1.246 . S
C6953 C770 1.250 . S
C6977 C1288 1.220 . S
C6985 C784 1.235 . S
C7009 C1246 1.247 . S
C7017 C798 1.246 . S
C7041 C1260 1.218 . S
C7049 C812 1.237 . S
C7073 C1274 1.217 . S
C7081 C826 1.235 . S
C7105 C1330 1.273 . S
C7113 C840 1.258 . S
C7137 C1302 1.234 . S
C7145 C854 1.245 . S
C7169 C1316 1.246 . S
C7177 C868 1.246 . S
C7201 C1232 1.225 . S
C7209 C882 1.237 . S
C7233 C896 1.248 . S
C7241 C1218 1.250 . S
C7265 C1134 1.247 . S
C7273 C910 1.246 . S
C7297 C1148 1.273 . S
C7305 C924 1.258 . S
C7329 C1162 1.233 . S
C7337 C938 1.240 . S
C7361 C1120 1.274 . S
C7369 C952 1.259 . S
C7393 C1190 1.235 . S
C7401 C966 1.241 . S
C7425 C1204 1.217 . S
C7433 C980 1.237 . S
C7457 C1176 1.267 . S
C7465 C994 1.255 . S
