# Generated by pormake.
# Topology qtz-x, (6)-cn, num edge types: 1
# Building blocks:
#     Node 0, Type 0, BuildingBlock: BETGAK_clean_sbu_0, # of connection points: 6
#     Node 1, Type 0, BuildingBlock: BETGAK_clean_sbu_0, # of connection points: 6
#     Node 2, Type 0, BuildingBlock: BETGAK_clean_sbu_0, # of connection points: 6
#     Edge 3, Type (0, 0), BuildingBlock: FUNLAD_clean_linker_1, # of connection points: 2
#     Edge 4, Type (0, 0), BuildingBlock: FUNLAD_clean_linker_1, # of connection points: 2
#     Edge 5, Type (0, 0), BuildingBlock: FUNLAD_clean_linker_1, # of connection points: 2
#     Edge 6, Type (0, 0), BuildingBlock: FUNLAD_clean_linker_1, # of connection points: 2
#     Edge 7, Type (0, 0), BuildingBlock: FUNLAD_clean_linker_1, # of connection points: 2
#     Edge 8, Type (0, 0), BuildingBlock: FUNLAD_clean_linker_1, # of connection points: 2
#     Edge 9, Type (0, 0), BuildingBlock: FUNLAD_clean_linker_1, # of connection points: 2
#     Edge 10, Type (0, 0), BuildingBlock: FUNLAD_clean_linker_1, # of connection points: 2
#     Edge 11, Type (0, 0), BuildingBlock: FUNLAD_clean_linker_1, # of connection points: 2
# Relax obj value: 0.230
# Max RMSD: 0.261
# Mean RMSD: 0.238
data_MOF--net-qtz-x--node1-BETGAK_clean_sbu_0--edge1-FUNLAD_clean_linker_1
_symmetry_space_group_name_H-M    P1
_symmetry_Int_Tables_number       1
_symmetry_cell_setting            triclinic
loop_
_symmetry_equiv_pos_as_xyz
'x, y, z'
_cell_length_a     15.355739
_cell_length_b     15.49967
_cell_length_c     54.778801
_cell_angle_alpha  68.758719
_cell_angle_beta   113.44839
_cell_angle_gamma 122.93597
loop_
_atom_site_label
_atom_site_type_symbol
_atom_site_fract_x
_atom_site_fract_y
_atom_site_fract_z
_atom_type_partial_charge
La0 La 1.0192 0.62138 0.20001 0.0
La1 La 0.22978 0.74212 0.18756 0.0
C2 C 0.87237 0.48334 0.22335 0.0
C3 C 0.87272 0.44264 0.2525 0.0
C4 C 0.81245 0.4564 0.26313 0.0
C5 C 0.81641 0.42346 0.29085 0.0
C6 C 0.88034 0.37486 0.30865 0.0
C7 C 0.93939 0.36014 0.29784 0.0
C8 C 0.93613 0.39381 0.27022 0.0
C9 C 0.09183 0.82641 0.18989 0.0
C10 C 0.23597 0.68792 0.24792 0.0
C11 C 0.38612 0.87591 0.16728 0.0
C12 C 0.41123 0.8917 0.14216 0.0
C13 C 0.5032 0.88877 0.14391 0.0
C14 C 0.52312 0.89306 0.12065 0.0
C15 C 0.45183 0.90079 0.0951 0.0
C16 C 0.36079 0.90638 0.09325 0.0
C17 C 0.3412 0.90252 0.11656 0.0
C18 C 0.15406 0.53564 0.19733 0.0
C19 C 1.01436 0.68219 0.13867 0.0
O20 O 0.88948 0.5803 0.21399 0.0
O21 O 0.92492 0.46229 0.2144 0.0
O22 O 0.99149 0.75821 0.18327 0.0
O23 O 0.14703 0.77832 0.20282 0.0
O24 O 0.13301 0.62117 0.24045 0.0
O25 O 0.28997 0.75596 0.22978 0.0
O26 O 0.3837 0.79159 0.18505 0.0
O27 O 0.30653 0.89102 0.16469 0.0
O28 O 0.25467 0.60278 0.20343 0.0
O29 O 0.10144 0.58594 0.18456 0.0
O30 O 0.11995 0.73851 0.1467 0.0
O31 O 0.95523 0.62154 0.15637 0.0
H32 H 0.76329 0.4942 0.25 0.0
H33 H 0.77029 0.43799 0.29803 0.0
H34 H 0.98885 0.32258 0.31086 0.0
H35 H 0.9843 0.38231 0.26288 0.0
H36 H 0.55847 0.88062 0.16341 0.0
H37 H 0.59392 0.88877 0.12272 0.0
H38 H 0.30265 0.9108 0.07415 0.0
H39 H 0.26988 0.90564 0.11455 0.0
La40 La 0.86125 0.17621 0.56772 0.0
La41 La 0.73537 0.96632 0.55398 0.0
C42 C 0.93101 0.33545 0.58643 0.0
C43 C 0.97892 0.36539 0.61336 0.0
C44 C 0.08794 0.43824 0.62044 0.0
C45 C 0.1341 0.47049 0.64536 0.0
C46 C 0.07198 0.43213 0.66356 0.0
C47 C 0.9631 0.35771 0.65672 0.0
C48 C 0.91702 0.32489 0.63185 0.0
C49 C 0.97888 0.10384 0.56557 0.0
C50 C 0.79876 0.97145 0.61468 0.0
C51 C 0.65871 0.81204 0.5324 0.0
C52 C 0.60373 0.79697 0.5041 0.0
C53 C 0.55579 0.85965 0.48587 0.0
C54 C 0.50131 0.84393 0.45922 0.0
C55 C 0.49503 0.7665 0.45009 0.0
C56 C 0.54427 0.70446 0.46833 0.0
C57 C 0.59814 0.71971 0.49512 0.0
C58 C 0.61832 0.04087 0.5556 0.0
C59 C 0.80401 0.17067 0.50764 0.0
O60 O 0.98911 0.32018 0.57793 0.0
O61 O 0.82968 0.26572 0.58086 0.0
O62 O 0.99974 0.20107 0.55827 0.0
O63 O 0.89817 0.05112 0.57534 0.0
O64 O 0.82854 0.07303 0.60661 0.0
O65 O 0.77179 0.91303 0.59773 0.0
O66 O 0.60708 0.8217 0.54447 0.0
O67 O 0.76007 0.8816 0.53698 0.0
O68 O 0.59617 0.94347 0.56278 0.0
O69 O 0.69922 0.09187 0.54603 0.0
O70 O 0.77823 0.07032 0.5161 0.0
O71 O 0.82254 0.22722 0.52392 0.0
H72 H 0.1375 0.47107 0.60658 0.0
H73 H 0.21824 0.52731 0.65017 0.0
H74 H 0.91336 0.32408 0.67054 0.0
H75 H 0.83283 0.2683 0.62711 0.0
H76 H 0.5597 0.92028 0.49233 0.0
H77 H 0.46429 0.89283 0.44565 0.0
H78 H 0.53924 0.64252 0.46223 0.0
H79 H 0.63454 0.67052 0.50889 0.0
La80 La 0.84036 0.85543 0.86988 0.0
La81 La 1.00924 0.79674 0.88628 0.0
C82 C 0.67846 0.86959 0.86549 0.0
C83 C 0.63124 0.86851 0.88434 0.0
C84 C 0.59761 0.94371 0.87794 0.0
C85 C 0.56 0.94973 0.89633 0.0
C86 C 0.55474 0.88057 0.92135 0.0
C87 C 0.58612 0.80334 0.92752 0.0
C88 C 0.62465 0.79777 0.9092 0.0
C89 C 1.02938 0.01606 0.86496 0.0
C90 C 0.96587 0.82342 0.93229 0.0
C91 C 0.1654 0.77611 0.88931 0.0
C92 C 0.17379 0.72347 0.87332 0.0
C93 C 0.08338 0.63517 0.86336 0.0
C94 C 0.08727 0.59177 0.84577 0.0
C95 C 0.18078 0.63658 0.83731 0.0
C96 C 0.2729 0.7228 0.84813 0.0
C97 C 0.26898 0.76601 0.86592 0.0
C98 C 0.81675 0.63546 0.88904 0.0
C99 C 0.88939 0.83486 0.82326 0.0
O100 O 0.77175 0.95018 0.86351 0.0
O101 O 0.67525 0.78212 0.86667 0.0
O102 O 0.93839 0.00655 0.84822 0.0
O103 O 1.01361 0.93892 0.88457 0.0
O104 O 0.87379 0.81562 0.9147 0.0
O105 O 1.04355 0.83766 0.92413 0.0
O106 O 0.09961 0.71525 0.90491 0.0
O107 O 0.15326 0.85939 0.8758 0.0
O108 O 0.90617 0.64069 0.90575 0.0
O109 O 0.83705 0.71557 0.87054 0.0
O110 O 0.97357 0.82765 0.84183 0.0
O111 O 0.81524 0.8342 0.82993 0.0
H112 H 0.60237 -0.00082 0.85891 0.0
H113 H 0.53652 0.00969 0.89125 0.0
H114 H 0.58078 0.74701 0.94637 0.0
H115 H 0.65023 0.73897 0.91462 0.0
H116 H 1.00844 0.60145 0.86851 0.0
H117 H 1.01526 0.52531 0.83787 0.0
H118 H 0.34746 0.75799 0.84273 0.0
H119 H 0.33915 0.83444 0.87328 0.0
H120 H 0.21355 -0.01533 0.19928 0.0
C121 C 0.12806 0.93469 0.19224 0.0
H122 H 0.97259 0.91944 0.1804 0.0
H123 H 0.24203 0.30602 0.24971 0.0
H124 H 0.279 0.18075 0.28863 0.0
H125 H 0.22619 0.00552 0.28365 0.0
H126 H 0.14066 0.95576 0.23971 0.0
C127 C 1.05794 0.96956 0.18764 0.0
C128 C 0.09091 0.07654 0.1911 0.0
C129 C 0.14185 0.10531 0.21702 0.0
C130 C 0.1692 0.20585 0.22002 0.0
C131 C 0.21987 0.23144 0.24619 0.0
C132 C 0.24108 0.16004 0.26876 0.0
C133 C 0.21188 0.06155 0.26595 0.0
C134 C 0.16306 0.03414 0.24049 0.0
H135 H 1.02757 0.37722 0.18899 0.0
C136 C 0.11368 0.42533 0.19575 0.0
H137 H 0.2664 0.43423 0.20772 0.0
H138 H 0.98699 0.04557 0.13897 0.0
H139 H 0.93806 0.16554 0.10065 0.0
H140 H 0.98548 0.33854 0.10592 0.0
H141 H 0.08393 0.3942 0.14889 0.0
C142 C 0.18045 0.38618 0.20056 0.0
C143 C 0.1432 0.27746 0.19733 0.0
C144 C 0.08928 0.2473 0.17155 0.0
C145 C 1.06249 0.14698 0.16854 0.0
C146 C 1.00839 0.11977 0.14255 0.0
C147 C 0.98034 0.18814 0.1203 0.0
C148 C 1.00734 0.28571 0.1232 0.0
C149 C 1.0627 0.31608 0.14827 0.0
H150 H 0.56901 0.16311 0.54587 0.0
C151 C 0.54678 0.08073 0.55395 0.0
H152 H 0.43503 0.93459 0.57075 0.0
H153 H 0.21536 0.07999 0.61127 0.0
H154 H 0.32278 0.02627 0.65374 0.0
H155 H 0.45736 -0.01578 0.65442 0.0
H156 H 0.48522 -0.0045 0.61258 0.0
C157 C 0.45466 0.01617 0.56194 0.0
C158 C 0.37902 0.05105 0.56107 0.0
C159 C 0.36195 0.04291 0.58567 0.0
C160 C 0.28345 0.06662 0.58527 0.0
C161 C 0.27162 0.06078 0.61026 0.0
C162 C 0.33335 0.03062 0.63485 0.0
C163 C 0.40908 0.00687 0.63524 0.0
C164 C 0.42384 0.01318 0.61104 0.0
H165 H 1.0303 -0.01663 0.57513 0.0
C166 C 1.05172 0.06565 0.56717 0.0
H167 H 0.16312 0.21295 0.55069 0.0
H168 H 0.38367 0.06813 0.50999 0.0
H169 H 0.27695 0.12282 0.46754 0.0
H170 H 0.14378 0.1667 0.46688 0.0
H171 H 0.11579 0.15523 0.5087 0.0
C172 C 0.14406 0.13143 0.55934 0.0
C173 C 0.22065 0.09776 0.56021 0.0
C174 C 0.23806 0.1064 0.53562 0.0
C175 C 0.31629 0.08231 0.53601 0.0
C176 C 0.32788 0.08789 0.51101 0.0
C177 C 0.26655 0.11864 0.48643 0.0
C178 C 0.19153 0.14332 0.48605 0.0
C179 C 0.17672 0.13692 0.51025 0.0
H180 H 0.12649 0.17645 0.84586 0.0
C181 C 0.13074 0.11492 0.86324 0.0
H182 H 0.2325 0.07181 0.89878 0.0
H183 H 0.64927 0.41007 0.85504 0.0
H184 H 0.61706 0.25373 0.84487 0.0
H185 H 0.45082 0.08831 0.84949 0.0
H186 H 0.31811 0.07651 0.86561 0.0
C187 C 0.22545 0.13331 0.88171 0.0
C188 C 0.32466 0.23555 0.87811 0.0
C189 C 0.40459 0.24035 0.87007 0.0
C190 C 0.50018 0.33654 0.86708 0.0
C191 C 0.5763 0.33905 0.85809 0.0
C192 C 0.5585 0.25001 0.85201 0.0
C193 C 0.46511 0.15672 0.85472 0.0
C194 C 0.38941 0.15111 0.86394 0.0
H195 H 0.71184 0.47328 0.90565 0.0
C196 C 0.71217 0.53914 0.88928 0.0
H197 H 0.61724 0.59431 0.85443 0.0
H198 H 0.18597 0.25725 0.89207 0.0
H199 H 0.20921 0.41809 0.89725 0.0
H200 H 0.37337 0.58459 0.89147 0.0
H201 H 0.51506 0.59142 0.88032 0.0
C202 C 0.61941 0.52862 0.87055 0.0
C203 C 0.51648 0.42847 0.87222 0.0
C204 C 0.43381 0.42511 0.87871 0.0
C205 C 0.33848 0.32874 0.88189 0.0
C206 C 0.25887 0.32817 0.88893 0.0
C207 C 0.27142 0.4199 0.89211 0.0
C208 C 0.36382 0.51369 0.88884 0.0
C209 C 0.44457 0.51656 0.88242 0.0
H210 H 0.46491 0.92944 0.9319 0.0
C211 C 0.51562 0.89134 0.94029 0.0
H212 H 0.60335 0.83288 0.97655 0.0
H213 H 0.61548 0.08261 0.0476 0.0
H214 H 0.79597 0.18976 1.0415 0.0
H215 H 0.84827 0.15891 1.00956 0.0
H216 H 0.72031 0.02021 0.98358 0.0
C217 C 0.54559 0.86284 0.9673 0.0
C218 C 0.51174 0.88389 0.98553 0.0
C219 C 0.58794 0.96395 1.00085 0.0
C220 C 0.55817 0.981 1.01948 0.0
C221 C 0.63483 0.06396 1.03384 0.0
C222 C 0.73845 0.12673 1.03034 0.0
C223 C 0.76788 0.10934 1.01235 0.0
C224 C 0.69381 0.02923 0.99766 0.0
H225 H 0.53527 0.87612 0.07548 0.0
C226 C 0.47402 0.89851 0.07134 0.0
H227 H 0.36379 0.94655 1.03974 0.0
H228 H 0.3445 0.72707 0.95824 0.0
H229 H 0.1619 0.62617 0.96272 0.0
H230 H 0.1101 0.65668 0.99475 0.0
H231 H 0.2403 0.78818 1.0227 0.0
C232 C 0.42547 0.92367 0.04528 0.0
C233 C 0.45276 0.91636 1.02314 0.0
C234 C 0.37476 0.84058 1.00662 0.0
C235 C 0.40449 0.82372 0.98791 0.0
C236 C 0.32606 0.74477 0.97238 0.0
C237 C 0.22095 0.68583 0.97484 0.0
C238 C 0.19176 0.7029 0.99294 0.0
C239 C 0.26741 0.77876 1.00882 0.0
H240 H 0.78244 0.27724 0.46845 0.0
C241 C 0.81022 0.21894 0.47925 0.0
H242 H 0.88092 0.13605 0.47867 0.0
H243 H 0.75661 0.13754 0.35551 0.0
H244 H 0.69558 0.95406 0.37612 0.0
H245 H 0.69602 0.89356 0.42443 0.0
H246 H 0.76107 0.01617 0.45262 0.0
C247 C 0.85102 0.19248 0.46703 0.0
C248 C 0.85079 0.23091 0.43761 0.0
C249 C 0.80716 0.15703 0.42097 0.0
C250 C 0.80407 0.19151 0.39284 0.0
C251 C 0.76192 0.11614 0.37696 0.0
C252 C 0.72605 0.01032 0.38851 0.0
C253 C 0.72642 0.97626 0.41571 0.0
C254 C 0.7649 0.04803 0.43174 0.0
H255 H 0.95007 0.31387 0.35085 0.0
C256 C 0.88976 0.3397 0.33851 0.0
H257 H 0.7663 0.3604 0.34003 0.0
H258 H 0.96947 0.39607 0.46443 0.0
H259 H 1.04124 0.58033 0.44419 0.0
H260 H 1.02021 0.63836 0.39484 0.0
H261 H 0.92918 0.51202 0.36551 0.0
C262 C 0.82739 0.33531 0.35111 0.0
C263 C 0.84162 0.29944 0.38109 0.0
C264 C 0.88956 0.37352 0.39785 0.0
C265 C 0.89725 0.33968 0.42622 0.0
C266 C 0.95477 0.4165 0.44263 0.0
C267 C 0.99794 0.52289 0.4313 0.0
C268 C 0.98639 0.55558 0.40352 0.0
C269 C 0.93346 0.48219 0.38691 0.0
H270 H 0.95619 0.86702 0.79023 0.0
C271 C 0.88422 0.84925 0.79453 0.0
H272 H 0.7261 0.82843 0.77785 0.0
H273 H 0.76366 0.08972 0.66081 0.0
H274 H 0.71328 0.17808 0.67703 0.0
H275 H 0.70633 0.13066 0.72456 0.0
H276 H 0.74705 -0.00722 0.75594 0.0
C277 C 0.79779 0.84453 0.77378 0.0
C278 C 0.80156 0.8719 0.74479 0.0
C279 C 0.78042 0.955 0.72678 0.0
C280 C 0.78899 -0.01448 0.69961 0.0
C281 C 0.76262 0.06575 0.68189 0.0
C282 C 0.73279 0.11687 0.69088 0.0
C283 C 0.72854 0.08993 0.7176 0.0
C284 C 0.75191 0.01015 0.73541 0.0
H285 H 0.7399 0.83804 0.64763 0.0
C286 C 0.79157 0.92181 0.6431 0.0
H287 H 0.89361 0.06255 0.65782 0.0
H288 H 0.82309 0.69437 0.77134 0.0
H289 H 0.88029 0.60979 0.7558 0.0
H290 H 0.91788 0.67668 0.711 0.0
H291 H 0.89925 0.82883 0.68146 0.0
C292 C 0.84289 0.97867 0.66282 0.0
C293 C 0.82318 0.93623 0.69055 0.0
C294 C 0.84329 0.85224 0.70848 0.0
C295 C 0.82814 0.81748 0.73516 0.0
C296 C 0.83965 0.72789 0.75163 0.0
C297 C 0.87141 0.67787 0.74285 0.0
C298 C 0.89243 0.71551 0.71759 0.0
C299 C 0.8798 0.80219 0.70065 0.0
H300 H 1.05973 0.81785 0.97501 0.0
C301 C 0.98252 0.81129 0.96173 0.0
H302 H 0.8287 0.78157 0.96008 0.0
H303 H 1.00695 0.56035 0.08591 0.0
H304 H 0.98705 0.43779 0.06365 0.0
H305 H 0.92909 0.45828 1.01408 0.0
H306 H 0.89637 0.60467 0.98588 0.0
C307 C 0.90582 0.78649 0.9729 0.0
C308 C 0.92441 0.76512 1.00311 0.0
C309 C 0.93729 0.67586 1.01948 0.0
C310 C 0.96572 0.66124 0.04832 0.0
C311 C 0.98396 0.57451 0.06398 0.0
C312 C 0.97204 0.50317 0.05156 0.0
C313 C 0.9398 0.51495 1.02354 0.0
C314 C 0.92207 0.59982 1.0076 0.0
H315 H 0.87607 0.65044 0.10198 0.0
C316 C 0.96295 0.68445 0.10904 0.0
H317 H 0.1083 0.75614 0.09811 0.0
H318 H 0.89767 0.9397 0.97802 0.0
H319 H 0.916 0.06172 0.99982 0.0
H320 H 0.95692 0.03256 0.04961 0.0
H321 H 0.98389 0.88274 0.07803 0.0
C322 C 1.02202 0.72667 0.09096 0.0
C323 C 0.97577 0.7328 0.06093 0.0
C324 C 0.95645 0.81863 0.0445 0.0
C325 C 0.93114 0.83488 1.01565 0.0
C326 C 0.9163 0.92333 0.99993 0.0
C327 C 0.92617 -0.0062 1.01219 0.0
C328 C 0.94976 0.97758 1.04024 0.0
C329 C 0.96504 0.89131 0.05631 0.0
H330 H 0.37599 0.74172 0.28256 0.0
C331 C 0.28916 0.69532 0.27678 0.0
H332 H 0.14654 0.60903 0.28981 0.0
H333 H 0.3553 0.51506 0.41478 0.0
H334 H 0.24916 0.34106 0.40402 0.0
H335 H 0.16162 0.31647 0.35658 0.0
H336 H 0.17958 0.46568 0.31964 0.0
C337 C 0.23341 0.65549 0.29534 0.0
C338 C 0.28754 0.67168 0.32398 0.0
C339 C 0.27846 0.58392 0.34536 0.0
C340 C 0.33086 0.59829 0.3727 0.0
C341 C 0.31876 0.50887 0.39363 0.0
C342 C 0.25777 0.40847 0.38776 0.0
C343 C 0.20834 0.39461 0.36105 0.0
C344 C 0.21877 0.48097 0.34004 0.0
H345 H 0.37139 0.77513 0.4119 0.0
C346 C 0.43374 0.75084 0.42174 0.0
H347 H 0.51848 0.69085 0.41631 0.0
H348 H 0.30752 0.85631 0.28847 0.0
H349 H 0.41552 0.03008 0.29914 0.0
H350 H 0.51281 0.05551 0.34623 0.0
H351 H 0.50322 0.90758 0.38282 0.0
C352 C 0.45578 0.71444 0.40723 0.0
C353 C 0.39316 0.70047 0.37872 0.0
C354 C 0.3996 0.78827 0.35739 0.0
C355 C 0.34566 0.77376 0.33007 0.0
C356 C 0.35059 0.86263 0.30939 0.0
C357 C 0.41122 0.963 0.31526 0.0
C358 C 0.4659 0.97734 0.34177 0.0
C359 C 0.45983 0.89137 0.36264 0.0
H360 H 0.1068 0.51877 0.812 0.0
C361 C 0.17535 0.59399 0.8161 0.0
H362 H 0.30591 0.72628 0.80151 0.0
H363 H 0.11505 0.33206 0.73838 0.0
H364 H 0.18366 0.24422 0.78214 0.0
H365 H 0.27051 0.32533 0.82239 0.0
H366 H 0.28535 0.49266 0.81961 0.0
C367 C 0.24059 0.64815 0.79933 0.0
C368 C 0.21161 0.61024 0.77438 0.0
C369 C 0.20651 0.51393 0.77627 0.0
C370 C 0.16095 0.46959 0.75273 0.0
C371 C 0.1516 0.37069 0.75545 0.0
C372 C 0.19041 0.31931 0.78045 0.0
C373 C 0.23881 0.36469 0.80319 0.0
C374 C 0.24647 0.46052 0.80131 0.0
H375 H 0.21033 0.50469 0.69693 0.0
C376 C 0.12347 0.47144 0.68941 0.0
H377 H 0.98351 0.45037 0.69474 0.0
H378 H 0.2201 0.80205 0.76302 0.0
H379 H 0.16932 0.89805 0.71863 0.0
H380 H 0.09911 0.82507 0.67759 0.0
H381 H 0.07738 0.65434 0.68081 0.0
C382 C 1.06887 0.47472 0.70281 0.0
C383 C 0.1248 0.52387 0.72719 0.0
C384 C 0.13816 0.62415 0.72497 0.0
C385 C 0.18098 0.6672 0.74859 0.0
C386 C 0.19008 0.76616 0.74579 0.0
C387 C 0.16122 0.8223 0.72038 0.0
C388 C 0.12151 0.78114 0.69728 0.0
C389 C 0.10916 0.68294 0.69943 0.0
loop_
_geom_bond_atom_site_label_1
_geom_bond_atom_site_label_2
_geom_bond_distance
_geom_bond_site_symmetry_2
_ccdc_geom_bond_type
La0 C2 2.928 . S
La0 O20 2.521 . S
La0 O21 2.628 . S
La0 O22 2.554 . S
La0 O23 2.757 1_655 S
La0 O24 2.470 1_655 S
La0 O29 2.482 . S
La0 O31 2.503 . S
La1 C11 2.928 . S
La1 O23 2.482 . S
La1 O25 2.503 . S
La1 O26 2.521 . S
La1 O27 2.628 . S
La1 O28 2.554 . S
La1 O29 2.757 1_455 S
La1 O30 2.470 1_455 S
C2 La0 2.928 . S
C2 C3 1.503 . S
C2 O20 1.261 . S
C2 O21 1.243 . S
C3 C2 1.503 . S
C3 C4 1.394 . S
C3 C8 1.373 . S
C4 C3 1.394 . S
C4 C5 1.380 . S
C4 H32 0.930 . S
C5 C4 1.380 . S
C5 C6 1.376 . S
C5 H33 0.930 . S
C6 C5 1.376 . S
C6 C7 1.370 . S
C7 C6 1.370 . S
C7 C8 1.396 . S
C7 H34 0.929 . S
C8 C3 1.373 . S
C8 C7 1.396 . S
C8 H35 0.929 . S
C9 O22 1.240 . S
C9 O23 1.289 1_655 S
C10 O24 1.258 . S
C10 O25 1.256 . S
C11 La1 2.928 . S
C11 C12 1.503 . S
C11 O26 1.261 . S
C11 O27 1.243 . S
C12 C11 1.503 . S
C12 C13 1.394 . S
C12 C17 1.373 . S
C13 C12 1.394 . S
C13 C14 1.380 . S
C13 H36 0.930 . S
C14 C13 1.380 . S
C14 C15 1.376 . S
C14 H37 0.930 . S
C15 C14 1.376 . S
C15 C16 1.370 1_565 S
C16 C15 1.370 1_545 S
C16 C17 1.396 1_545 S
C16 H38 0.929 . S
C17 C12 1.373 . S
C17 C16 1.396 1_565 S
C17 H39 0.929 . S
C18 O28 1.240 . S
C18 O29 1.289 1_455 S
C19 O30 1.258 . S
C19 O31 1.256 . S
O20 La0 2.521 . S
O20 C2 1.261 . S
O21 La0 2.628 . S
O21 C2 1.243 . S
O22 La0 2.554 . S
O22 C9 1.240 . S
O23 La0 2.757 1_455 S
O23 La1 2.482 . S
O23 C9 1.289 1_455 S
O24 La0 2.470 1_455 S
O24 C10 1.258 . S
O25 La1 2.503 . S
O25 C10 1.256 . S
O26 La1 2.521 . S
O26 C11 1.261 . S
O27 La1 2.628 . S
O27 C11 1.243 . S
O28 La1 2.554 . S
O28 C18 1.240 . S
O29 La0 2.482 . S
O29 La1 2.757 1_655 S
O29 C18 1.289 1_655 S
O30 La1 2.470 1_655 S
O30 C19 1.258 . S
O31 La0 2.503 . S
O31 C19 1.256 . S
H32 C4 0.930 . S
H33 C5 0.930 . S
H34 C7 0.929 . S
H35 C8 0.929 . S
H36 C13 0.930 . S
H37 C14 0.930 . S
H38 C16 0.929 . S
H39 C17 0.929 . S
La40 C42 2.928 . S
La40 O60 2.521 . S
La40 O61 2.628 . S
La40 O62 2.554 . S
La40 O63 2.757 1_545 S
La40 O64 2.470 1_545 S
La40 O69 2.482 . S
La40 O71 2.503 . S
La41 C51 2.928 . S
La41 O63 2.482 . S
La41 O65 2.503 . S
La41 O66 2.521 . S
La41 O67 2.628 . S
La41 O68 2.554 . S
La41 O69 2.757 1_565 S
La41 O70 2.470 1_565 S
C42 La40 2.928 . S
C42 C43 1.503 . S
C42 O60 1.261 . S
C42 O61 1.243 . S
C43 C42 1.503 . S
C43 C44 1.394 1_655 S
C43 C48 1.373 . S
C44 C43 1.394 1_455 S
C44 C45 1.380 . S
C44 H72 0.930 . S
C45 C44 1.380 . S
C45 C46 1.376 1_455 S
C45 H73 0.930 . S
C46 C45 1.376 1_655 S
C46 C47 1.370 . S
C47 C46 1.370 . S
C47 C48 1.396 . S
C47 H74 0.929 . S
C48 C43 1.373 . S
C48 C47 1.396 . S
C48 H75 0.929 . S
C49 O62 1.240 . S
C49 O63 1.289 1_545 S
C50 O64 1.258 . S
C50 O65 1.256 . S
C51 La41 2.928 . S
C51 C52 1.503 . S
C51 O66 1.261 . S
C51 O67 1.243 . S
C52 C51 1.503 . S
C52 C53 1.394 . S
C52 C57 1.373 . S
C53 C52 1.394 . S
C53 C54 1.380 . S
C53 H76 0.930 . S
C54 C53 1.380 . S
C54 C55 1.376 . S
C54 H77 0.930 . S
C55 C54 1.376 . S
C55 C56 1.370 . S
C56 C55 1.370 . S
C56 C57 1.396 . S
C56 H78 0.929 . S
C57 C52 1.373 . S
C57 C56 1.396 . S
C57 H79 0.929 . S
C58 O68 1.240 . S
C58 O69 1.289 1_565 S
C59 O70 1.258 . S
C59 O71 1.256 . S
O60 La40 2.521 . S
O60 C42 1.261 . S
O61 La40 2.628 . S
O61 C42 1.243 . S
O62 La40 2.554 . S
O62 C49 1.240 . S
O63 La40 2.757 1_565 S
O63 La41 2.482 . S
O63 C49 1.289 1_565 S
O64 La40 2.470 1_565 S
O64 C50 1.258 . S
O65 La41 2.503 . S
O65 C50 1.256 . S
O66 La41 2.521 . S
O66 C51 1.261 . S
O67 La41 2.628 . S
O67 C51 1.243 . S
O68 La41 2.554 . S
O68 C58 1.240 . S
O69 La40 2.482 . S
O69 La41 2.757 1_545 S
O69 C58 1.289 1_545 S
O70 La41 2.470 1_545 S
O70 C59 1.258 . S
O71 La40 2.503 . S
O71 C59 1.256 . S
H72 C44 0.930 . S
H73 C45 0.930 . S
H74 C47 0.929 . S
H75 C48 0.929 . S
H76 C53 0.930 . S
H77 C54 0.930 . S
H78 C56 0.929 . S
H79 C57 0.929 . S
La80 C82 2.922 1_565 S
La80 O100 2.511 1_565 S
La80 O101 2.626 . S
La80 O102 2.556 1_565 S
La80 O103 2.762 1_565 S
La80 O104 2.474 . S
La80 O109 2.493 . S
La80 O111 2.507 . S
La81 C91 2.928 1_655 S
La81 O103 2.482 1_565 S
La81 O105 2.503 . S
La81 O106 2.521 . S
La81 O107 2.628 1_655 S
La81 O108 2.554 . S
La81 O109 2.757 . S
La81 O110 2.470 . S
C82 La80 2.922 1_545 S
C82 C83 1.503 . S
C82 O100 1.261 . S
C82 O101 1.243 1_545 S
C83 C82 1.503 . S
C83 C84 1.394 . S
C83 C88 1.373 1_545 S
C84 C83 1.394 . S
C84 C85 1.380 . S
C84 H112 0.930 . S
C85 C84 1.380 . S
C85 C86 1.376 . S
C85 H113 0.930 . S
C86 C85 1.376 . S
C86 C87 1.370 1_545 S
C87 C86 1.370 1_565 S
C87 C88 1.396 . S
C87 H114 0.929 . S
C88 C83 1.373 1_565 S
C88 C87 1.396 . S
C88 H115 0.929 . S
C89 O102 1.232 1_455 S
C89 O103 1.289 1_455 S
C90 O104 1.258 . S
C90 O105 1.256 . S
C91 La81 2.928 1_455 S
C91 C92 1.503 . S
C91 O106 1.261 1_455 S
C91 O107 1.243 . S
C92 C91 1.503 . S
C92 C93 1.394 1_455 S
C92 C97 1.373 . S
C93 C92 1.394 1_655 S
C93 C94 1.380 1_655 S
C93 H116 0.930 . S
C94 C93 1.380 1_455 S
C94 C95 1.376 . S
C94 H117 0.930 1_455 S
C95 C94 1.376 . S
C95 C96 1.370 . S
C96 C95 1.370 . S
C96 C97 1.396 . S
C96 H118 0.929 . S
C97 C92 1.373 . S
C97 C96 1.396 . S
C97 H119 0.929 . S
C98 O108 1.240 . S
C98 O109 1.289 . S
C99 O110 1.258 . S
C99 O111 1.256 . S
O100 La80 2.511 1_545 S
O100 C82 1.261 . S
O101 La80 2.626 . S
O101 C82 1.243 1_565 S
O102 La80 2.556 1_545 S
O102 C89 1.232 1_655 S
O103 La80 2.762 1_545 S
O103 La81 2.482 1_545 S
O103 C89 1.289 1_655 S
O104 La80 2.474 . S
O104 C90 1.258 . S
O105 La81 2.503 . S
O105 C90 1.256 . S
O106 La81 2.521 . S
O106 C91 1.261 1_655 S
O107 La81 2.628 1_455 S
O107 C91 1.243 . S
O108 La81 2.554 . S
O108 C98 1.240 . S
O109 La80 2.493 . S
O109 La81 2.757 . S
O109 C98 1.289 . S
O110 La81 2.470 . S
O110 C99 1.258 . S
O111 La80 2.507 . S
O111 C99 1.256 . S
H112 C84 0.930 . S
H113 C85 0.930 . S
H114 C87 0.929 . S
H115 C88 0.929 . S
H116 C93 0.930 . S
H117 C94 0.930 1_655 S
H118 C96 0.929 . S
H119 C97 0.929 . S
H120 C121 0.951 1_545 S
C121 H120 0.951 1_565 S
C121 C127 1.265 1_455 S
H122 C127 0.950 . S
H123 C131 0.949 . S
H124 C132 0.950 . S
H125 C133 0.951 . S
H126 C134 0.951 1_565 S
C127 C121 1.265 1_655 S
C127 H122 0.950 . S
C127 C128 1.478 1_565 S
C128 C127 1.478 1_545 S
C128 C129 1.397 1_655 S
C128 C145 1.394 . S
C129 C128 1.397 1_455 S
C129 C130 1.438 . S
C129 C134 1.429 . S
C130 C129 1.438 . S
C130 C131 1.428 . S
C130 C143 1.394 . S
C131 H123 0.949 . S
C131 C130 1.428 . S
C131 C132 1.345 . S
C132 H124 0.950 . S
C132 C131 1.345 . S
C132 C133 1.424 . S
C133 H125 0.951 . S
C133 C132 1.424 . S
C133 C134 1.347 . S
C134 H126 0.951 1_545 S
C134 C129 1.429 . S
C134 C133 1.347 . S
H135 C136 0.951 . S
C136 H135 0.951 . S
C136 C142 1.265 1_655 S
H137 C142 0.950 . S
H138 C146 0.949 . S
H139 C147 0.950 . S
H140 C148 0.951 . S
H141 C149 0.951 . S
C142 C136 1.265 1_455 S
C142 H137 0.950 . S
C142 C143 1.478 . S
C143 C130 1.394 . S
C143 C142 1.478 . S
C143 C144 1.397 1_455 S
C144 C143 1.397 1_655 S
C144 C145 1.438 . S
C144 C149 1.429 . S
C145 C128 1.394 . S
C145 C144 1.438 . S
C145 C146 1.428 . S
C146 H138 0.949 . S
C146 C145 1.428 . S
C146 C147 1.345 . S
C147 H139 0.950 . S
C147 C146 1.345 . S
C147 C148 1.424 . S
C148 H140 0.951 . S
C148 C147 1.424 . S
C148 C149 1.347 . S
C149 H141 0.951 . S
C149 C144 1.429 . S
C149 C148 1.347 . S
H150 C151 0.950 . S
C151 H150 0.950 . S
C151 C157 1.265 . S
H152 C157 0.950 . S
H153 C161 0.949 1_655 S
H154 C162 0.950 1_655 S
H155 C163 0.951 . S
H156 C164 0.951 . S
C157 C151 1.265 . S
C157 H152 0.950 . S
C157 C158 1.478 . S
C158 C157 1.478 . S
C158 C159 1.397 1_545 S
C158 C175 1.394 . S
C159 C158 1.397 1_565 S
C159 C160 1.438 . S
C159 C164 1.429 . S
C160 C159 1.438 . S
C160 C161 1.428 . S
C160 C173 1.394 1_565 S
C161 H153 0.949 1_455 S
C161 C160 1.428 . S
C161 C162 1.345 . S
C162 H154 0.950 1_455 S
C162 C161 1.345 . S
C162 C163 1.424 . S
C163 H155 0.951 . S
C163 C162 1.424 . S
C163 C164 1.347 . S
C164 H156 0.951 . S
C164 C159 1.429 . S
C164 C163 1.347 . S
H165 C166 0.951 1_655 S
C166 H165 0.951 1_455 S
C166 C172 1.265 . S
H167 C172 0.950 . S
H168 C176 0.949 . S
H169 C177 0.950 . S
H170 C178 0.951 . S
H171 C179 0.951 . S
C172 C166 1.265 . S
C172 H167 0.950 . S
C172 C173 1.478 . S
C173 C160 1.394 1_545 S
C173 C172 1.478 . S
C173 C174 1.397 . S
C174 C173 1.397 . S
C174 C175 1.438 . S
C174 C179 1.429 . S
C175 C158 1.394 . S
C175 C174 1.438 . S
C175 C176 1.428 . S
C176 H168 0.949 . S
C176 C175 1.428 . S
C176 C177 1.345 . S
C177 H169 0.950 . S
C177 C176 1.345 . S
C177 C178 1.424 . S
C178 H170 0.951 . S
C178 C177 1.424 . S
C178 C179 1.347 . S
C179 H171 0.951 . S
C179 C174 1.429 . S
C179 C178 1.347 . S
H180 C181 0.951 . S
C181 H180 0.951 . S
C181 C187 1.265 . S
H182 C187 0.950 . S
H183 C191 0.949 . S
H184 C192 0.950 . S
H185 C193 0.951 . S
H186 C194 0.951 . S
C187 C181 1.265 . S
C187 H182 0.950 . S
C187 C188 1.478 . S
C188 C187 1.478 . S
C188 C189 1.397 . S
C188 C205 1.394 . S
C189 C188 1.397 . S
C189 C190 1.438 . S
C189 C194 1.429 . S
C190 C189 1.438 . S
C190 C191 1.428 . S
C190 C203 1.394 . S
C191 H183 0.949 . S
C191 C190 1.428 . S
C191 C192 1.345 . S
C192 H184 0.950 . S
C192 C191 1.345 . S
C192 C193 1.424 . S
C193 H185 0.951 . S
C193 C192 1.424 . S
C193 C194 1.347 . S
C194 H186 0.951 . S
C194 C189 1.429 . S
C194 C193 1.347 . S
H195 C196 0.951 . S
C196 H195 0.951 . S
C196 C202 1.265 . S
H197 C202 0.950 . S
H198 C206 0.949 . S
H199 C207 0.950 . S
H200 C208 0.951 . S
H201 C209 0.951 . S
C202 C196 1.265 . S
C202 H197 0.950 . S
C202 C203 1.478 . S
C203 C190 1.394 . S
C203 C202 1.478 . S
C203 C204 1.397 . S
C204 C203 1.397 . S
C204 C205 1.438 . S
C204 C209 1.429 . S
C205 C188 1.394 . S
C205 C204 1.438 . S
C205 C206 1.428 . S
C206 H198 0.949 . S
C206 C205 1.428 . S
C206 C207 1.345 . S
C207 H199 0.950 . S
C207 C206 1.345 . S
C207 C208 1.424 . S
C208 H200 0.951 . S
C208 C207 1.424 . S
C208 C209 1.347 . S
C209 H201 0.951 . S
C209 C204 1.429 . S
C209 C208 1.347 . S
H210 C211 0.951 . S
C211 H210 0.951 . S
C211 C217 1.265 . S
H212 C217 0.950 . S
H213 C221 0.949 . S
H214 C222 0.950 . S
H215 C223 0.950 1_554 S
H216 C224 0.951 . S
C217 C211 1.265 . S
C217 H212 0.950 . S
C217 C218 1.478 . S
C218 C217 1.478 . S
C218 C219 1.397 . S
C218 C235 1.394 1_545 S
C219 C218 1.397 . S
C219 C220 1.438 . S
C219 C224 1.429 . S
C220 C219 1.438 . S
C220 C221 1.428 1_556 S
C220 C233 1.394 . S
C221 H213 0.949 . S
C221 C220 1.428 1_554 S
C221 C222 1.345 . S
C222 H214 0.950 . S
C222 C221 1.345 . S
C222 C223 1.395 1_554 S
C223 H215 0.950 1_556 S
C223 C222 1.395 1_556 S
C223 C224 1.378 . S
C224 H216 0.951 . S
C224 C219 1.429 . S
C224 C223 1.378 . S
H225 C226 0.951 . S
C226 H225 0.951 . S
C226 C232 1.223 1_564 S
H227 C232 0.962 . S
H228 C236 0.949 . S
H229 C237 0.950 . S
H230 C238 0.951 . S
H231 C239 0.951 . S
C232 C226 1.223 1_546 S
C232 H227 0.962 . S
C232 C233 1.510 . S
C233 C220 1.394 . S
C233 C232 1.510 . S
C233 C234 1.397 1_545 S
C234 C233 1.397 1_565 S
C234 C235 1.438 . S
C234 C239 1.429 . S
C235 C218 1.394 1_565 S
C235 C234 1.438 . S
C235 C236 1.428 . S
C236 H228 0.949 . S
C236 C235 1.428 . S
C236 C237 1.345 . S
C237 H229 0.950 . S
C237 C236 1.345 . S
C237 C238 1.424 . S
C238 H230 0.951 . S
C238 C237 1.424 . S
C238 C239 1.347 . S
C239 H231 0.951 . S
C239 C234 1.429 . S
C239 C238 1.347 . S
H240 C241 0.951 . S
C241 H240 0.951 . S
C241 C247 1.265 . S
H242 C247 0.950 . S
H243 C251 0.949 . S
H244 C252 0.950 . S
H245 C253 0.951 1_565 S
H246 C254 0.951 . S
C247 C241 1.265 . S
C247 H242 0.950 . S
C247 C248 1.478 . S
C248 C247 1.478 . S
C248 C249 1.397 . S
C248 C265 1.394 . S
C249 C248 1.397 . S
C249 C250 1.438 . S
C249 C254 1.429 . S
C250 C249 1.438 . S
C250 C251 1.428 . S
C250 C263 1.394 . S
C251 H243 0.949 . S
C251 C250 1.428 . S
C251 C252 1.345 . S
C252 H244 0.950 . S
C252 C251 1.345 . S
C252 C253 1.424 . S
C253 H245 0.951 1_545 S
C253 C252 1.424 . S
C253 C254 1.347 . S
C254 H246 0.951 . S
C254 C249 1.429 . S
C254 C253 1.347 . S
H255 C256 0.951 . S
C256 H255 0.951 . S
C256 C262 1.265 . S
H257 C262 0.950 . S
H258 C266 0.949 . S
H259 C267 0.950 . S
H260 C268 0.951 . S
H261 C269 0.951 . S
C262 C256 1.265 . S
C262 H257 0.950 . S
C262 C263 1.478 . S
C263 C250 1.394 . S
C263 C262 1.478 . S
C263 C264 1.397 . S
C264 C263 1.397 . S
C264 C265 1.438 . S
C264 C269 1.429 . S
C265 C248 1.394 . S
C265 C264 1.438 . S
C265 C266 1.428 . S
C266 H258 0.949 . S
C266 C265 1.428 . S
C266 C267 1.345 . S
C267 H259 0.950 . S
C267 C266 1.345 . S
C267 C268 1.424 . S
C268 H260 0.951 . S
C268 C267 1.424 . S
C268 C269 1.347 . S
C269 H261 0.951 . S
C269 C264 1.429 . S
C269 C268 1.347 . S
H270 C271 0.951 . S
C271 H270 0.951 . S
C271 C277 1.265 . S
H272 C277 0.950 . S
H273 C281 0.949 . S
H274 C282 0.950 . S
H275 C283 0.951 . S
H276 C284 0.951 . S
C277 C271 1.265 . S
C277 H272 0.950 . S
C277 C278 1.478 . S
C278 C277 1.478 . S
C278 C279 1.397 1_565 S
C278 C295 1.394 . S
C279 C278 1.397 1_545 S
C279 C280 1.438 . S
C279 C284 1.429 . S
C280 C279 1.438 . S
C280 C281 1.428 . S
C280 C293 1.394 1_545 S
C281 H273 0.949 . S
C281 C280 1.428 . S
C281 C282 1.345 . S
C282 H274 0.950 . S
C282 C281 1.345 . S
C282 C283 1.424 . S
C283 H275 0.951 . S
C283 C282 1.424 . S
C283 C284 1.347 . S
C284 H276 0.951 . S
C284 C279 1.429 . S
C284 C283 1.347 . S
H285 C286 0.951 . S
C286 H285 0.951 . S
C286 C292 1.265 . S
H287 C292 0.950 . S
H288 C296 0.949 . S
H289 C297 0.950 . S
H290 C298 0.951 . S
H291 C299 0.951 . S
C292 C286 1.265 . S
C292 H287 0.950 . S
C292 C293 1.478 . S
C293 C280 1.394 1_565 S
C293 C292 1.478 . S
C293 C294 1.397 . S
C294 C293 1.397 . S
C294 C295 1.438 . S
C294 C299 1.429 . S
C295 C278 1.394 . S
C295 C294 1.438 . S
C295 C296 1.428 . S
C296 H288 0.949 . S
C296 C295 1.428 . S
C296 C297 1.345 . S
C297 H289 0.950 . S
C297 C296 1.345 . S
C297 C298 1.424 . S
C298 H290 0.951 . S
C298 C297 1.424 . S
C298 C299 1.347 . S
C299 H291 0.951 . S
C299 C294 1.429 . S
C299 C298 1.347 . S
H300 C301 0.951 1_455 S
C301 H300 0.951 1_655 S
C301 C307 1.265 . S
H302 C307 0.950 . S
H303 C311 0.949 . S
H304 C312 0.950 . S
H305 C313 0.951 . S
H306 C314 0.951 . S
C307 C301 1.265 . S
C307 H302 0.950 . S
C307 C308 1.478 . S
C308 C307 1.478 . S
C308 C309 1.397 . S
C308 C325 1.394 . S
C309 C308 1.397 . S
C309 C310 1.438 1_556 S
C309 C314 1.429 . S
C310 C309 1.438 1_554 S
C310 C311 1.428 . S
C310 C323 1.394 . S
C311 H303 0.949 . S
C311 C310 1.428 . S
C311 C312 1.345 . S
C312 H304 0.950 . S
C312 C311 1.345 . S
C312 C313 1.424 1_554 S
C313 H305 0.951 . S
C313 C312 1.424 1_556 S
C313 C314 1.347 . S
C314 H306 0.951 . S
C314 C309 1.429 . S
C314 C313 1.347 . S
H315 C316 0.951 . S
C316 H315 0.951 . S
C316 C322 1.265 . S
H317 C322 0.950 1_455 S
H318 C326 0.949 . S
H319 C327 0.950 . S
H320 C328 0.951 1_454 S
H321 C329 0.951 . S
C322 C316 1.265 . S
C322 H317 0.950 1_655 S
C322 C323 1.478 . S
C323 C310 1.394 . S
C323 C322 1.478 . S
C323 C324 1.397 . S
C324 C323 1.397 . S
C324 C325 1.438 1_554 S
C324 C329 1.429 . S
C325 C308 1.394 . S
C325 C324 1.438 1_556 S
C325 C326 1.428 . S
C326 H318 0.949 . S
C326 C325 1.428 . S
C326 C327 1.345 1_565 S
C327 H319 0.950 . S
C327 C326 1.345 1_545 S
C327 C328 1.424 . S
C328 H320 0.951 1_656 S
C328 C327 1.424 . S
C328 C329 1.347 1_546 S
C329 H321 0.951 . S
C329 C324 1.429 . S
C329 C328 1.347 1_564 S
H330 C331 0.951 . S
C331 H330 0.951 . S
C331 C337 1.265 . S
H332 C337 0.950 . S
H333 C341 0.949 . S
H334 C342 0.950 . S
H335 C343 0.951 . S
H336 C344 0.951 . S
C337 C331 1.265 . S
C337 H332 0.950 . S
C337 C338 1.478 . S
C338 C337 1.478 . S
C338 C339 1.397 . S
C338 C355 1.394 . S
C339 C338 1.397 . S
C339 C340 1.438 . S
C339 C344 1.429 . S
C340 C339 1.438 . S
C340 C341 1.428 . S
C340 C353 1.394 . S
C341 H333 0.949 . S
C341 C340 1.428 . S
C341 C342 1.345 . S
C342 H334 0.950 . S
C342 C341 1.345 . S
C342 C343 1.424 . S
C343 H335 0.951 . S
C343 C342 1.424 . S
C343 C344 1.347 . S
C344 H336 0.951 . S
C344 C339 1.429 . S
C344 C343 1.347 . S
H345 C346 0.951 . S
C346 H345 0.951 . S
C346 C352 1.265 . S
H347 C352 0.950 . S
H348 C356 0.949 . S
H349 C357 0.950 . S
H350 C358 0.951 . S
H351 C359 0.951 . S
C352 C346 1.265 . S
C352 H347 0.950 . S
C352 C353 1.478 . S
C353 C340 1.394 . S
C353 C352 1.478 . S
C353 C354 1.397 . S
C354 C353 1.397 . S
C354 C355 1.438 . S
C354 C359 1.429 . S
C355 C338 1.394 . S
C355 C354 1.438 . S
C355 C356 1.428 . S
C356 H348 0.949 . S
C356 C355 1.428 . S
C356 C357 1.345 . S
C357 H349 0.950 . S
C357 C356 1.345 . S
C357 C358 1.424 . S
C358 H350 0.951 . S
C358 C357 1.424 . S
C358 C359 1.347 . S
C359 H351 0.951 . S
C359 C354 1.429 . S
C359 C358 1.347 . S
H360 C361 0.951 . S
C361 H360 0.951 . S
C361 C367 1.265 . S
H362 C367 0.950 . S
H363 C371 0.949 . S
H364 C372 0.950 . S
H365 C373 0.951 . S
H366 C374 0.951 . S
C367 C361 1.265 . S
C367 H362 0.950 . S
C367 C368 1.478 . S
C368 C367 1.478 . S
C368 C369 1.397 . S
C368 C385 1.394 . S
C369 C368 1.397 . S
C369 C370 1.438 . S
C369 C374 1.429 . S
C370 C369 1.438 . S
C370 C371 1.428 . S
C370 C383 1.394 . S
C371 H363 0.949 . S
C371 C370 1.428 . S
C371 C372 1.345 . S
C372 H364 0.950 . S
C372 C371 1.345 . S
C372 C373 1.424 . S
C373 H365 0.951 . S
C373 C372 1.424 . S
C373 C374 1.347 . S
C374 H366 0.951 . S
C374 C369 1.429 . S
C374 C373 1.347 . S
H375 C376 0.951 . S
C376 H375 0.951 . S
C376 C382 1.265 1_455 S
H377 C382 0.950 . S
H378 C386 0.949 1_455 S
H379 C387 0.950 . S
H380 C388 0.951 . S
H381 C389 0.951 . S
C382 C376 1.265 1_655 S
C382 H377 0.950 . S
C382 C383 1.478 1_655 S
C383 C370 1.394 . S
C383 C382 1.478 1_455 S
C383 C384 1.397 1_455 S
C384 C383 1.397 1_655 S
C384 C385 1.438 1_655 S
C384 C389 1.429 . S
C385 C368 1.394 . S
C385 C384 1.438 1_455 S
C385 C386 1.428 1_455 S
C386 H378 0.949 1_655 S
C386 C385 1.428 1_655 S
C386 C387 1.345 . S
C387 H379 0.950 . S
C387 C386 1.345 . S
C387 C388 1.424 . S
C388 H380 0.951 . S
C388 C387 1.424 . S
C388 C389 1.347 . S
C389 H381 0.951 . S
C389 C384 1.429 . S
C389 C388 1.347 . S
C121 C9 1.584 1_455 S
C136 C18 1.584 1_655 S
C151 C58 1.608 1_545 S
C166 C49 1.608 1_455 S
C181 C89 1.273 . S
C196 C98 1.273 . S
C211 C86 0.955 . S
C226 C15 0.926 . S
C241 C59 1.884 . S
C256 C6 1.827 . S
C271 C99 2.390 . S
C286 C50 2.409 . S
C301 C90 2.326 . S
C316 C19 2.293 . S
C331 C10 1.702 . S
C346 C55 1.586 . S
C361 C95 0.873 . S
C376 C46 0.972 1_455 S
