# Generated by pormake.
# Topology dft, (4)-cn, num edge types: 1
# Building blocks:
#     Node 0, Type 0, BuildingBlock: NAHDIM_clean_sbu_0, # of connection points: 4
#     Node 1, Type 0, BuildingBlock: NAHDIM_clean_sbu_0, # of connection points: 4
#     Node 2, Type 0, BuildingBlock: NAHDIM_clean_sbu_0, # of connection points: 4
#     Node 3, Type 0, BuildingBlock: NAHDIM_clean_sbu_0, # of connection points: 4
#     Node 4, Type 0, BuildingBlock: NAHDIM_clean_sbu_0, # of connection points: 4
#     Node 5, Type 0, BuildingBlock: NAHDIM_clean_sbu_0, # of connection points: 4
#     Node 6, Type 0, BuildingBlock: NAHDIM_clean_sbu_0, # of connection points: 4
#     Node 7, Type 0, BuildingBlock: NAHDIM_clean_sbu_0, # of connection points: 4
#     Edge 8, Type (0, 0), BuildingBlock: XUDNAN_clean_linker_2, # of connection points: 2
#     Edge 9, Type (0, 0), BuildingBlock: XUDNAN_clean_linker_2, # of connection points: 2
#     Edge 10, Type (0, 0), BuildingBlock: XUDNAN_clean_linker_2, # of connection points: 2
#     Edge 11, Type (0, 0), BuildingBlock: XUDNAN_clean_linker_2, # of connection points: 2
#     Edge 12, Type (0, 0), BuildingBlock: XUDNAN_clean_linker_2, # of connection points: 2
#     Edge 13, Type (0, 0), BuildingBlock: XUDNAN_clean_linker_2, # of connection points: 2
#     Edge 14, Type (0, 0), BuildingBlock: XUDNAN_clean_linker_2, # of connection points: 2
#     Edge 15, Type (0, 0), BuildingBlock: XUDNAN_clean_linker_2, # of connection points: 2
#     Edge 16, Type (0, 0), BuildingBlock: XUDNAN_clean_linker_2, # of connection points: 2
#     Edge 17, Type (0, 0), BuildingBlock: XUDNAN_clean_linker_2, # of connection points: 2
#     Edge 18, Type (0, 0), BuildingBlock: XUDNAN_clean_linker_2, # of connection points: 2
#     Edge 19, Type (0, 0), BuildingBlock: XUDNAN_clean_linker_2, # of connection points: 2
#     Edge 20, Type (0, 0), BuildingBlock: XUDNAN_clean_linker_2, # of connection points: 2
#     Edge 21, Type (0, 0), BuildingBlock: XUDNAN_clean_linker_2, # of connection points: 2
#     Edge 22, Type (0, 0), BuildingBlock: XUDNAN_clean_linker_2, # of connection points: 2
#     Edge 23, Type (0, 0), BuildingBlock: XUDNAN_clean_linker_2, # of connection points: 2
# Relax obj value: 0.139
# Max RMSD: 0.138
# Mean RMSD: 0.138
data_MOF--net-dft--node1-NAHDIM_clean_sbu_0--edge1-XUDNAN_clean_linker_2
_symmetry_space_group_name_H-M    P1
_symmetry_Int_Tables_number       1
_symmetry_cell_setting            triclinic
loop_
_symmetry_equiv_pos_as_xyz
'x, y, z'
_cell_length_a     35.171335
_cell_length_b     35.039771
_cell_length_c     38.786598
_cell_angle_alpha  90.005261
_cell_angle_beta   90.108261
_cell_angle_gamma 89.966746
loop_
_atom_site_label
_atom_site_type_symbol
_atom_site_fract_x
_atom_site_fract_y
_atom_site_fract_z
_atom_type_partial_charge
C0 C 0.37922 0.03113 0.21057 0.0
O1 O 0.37217 0.06178 0.1921 0.0
O2 O 0.28033 0.06216 0.2067 0.0
Zn3 Zn 0.30396 0.0139 0.18948 0.0
O4 O 0.31221 0.01848 0.1385 0.0
C5 C 0.2476 0.9678 0.22372 0.0
O6 O 0.24624 -0.00316 0.24511 0.0
O7 O 0.35355 0.00594 0.21365 0.0
C8 C 0.33976 0.00203 0.12344 0.0
O9 O 0.36383 0.98162 0.14168 0.0
C10 C 0.24779 0.07268 0.19615 0.0
O11 O 0.22939 0.05127 0.17387 0.0
O12 O 0.27015 0.96895 0.19823 0.0
C13 C 0.99164 0.37708 0.6786 0.0
O14 O 0.97598 0.36006 0.65199 0.0
O15 O 0.95079 0.27821 0.71477 0.0
Zn16 Zn 0.00023 0.30009 0.69834 0.0
O17 O 0.00611 0.28893 0.64779 0.0
C18 C 0.04918 0.23958 0.71458 0.0
O19 O 0.02579 0.22313 0.6927 0.0
O20 O 0.00297 0.3572 0.70403 0.0
C21 C 0.03718 0.29699 0.63282 0.0
O22 O 0.06559 0.31051 0.65116 0.0
C23 C 0.92257 0.2757 0.69439 0.0
O24 O 0.92541 0.28977 0.66311 0.0
O25 O 0.04361 0.27427 0.72265 0.0
C26 C 0.65031 0.98632 0.22925 0.0
O27 O 0.67045 0.96022 0.24535 0.0
O28 O 0.7369 0.94488 0.20364 0.0
Zn29 Zn 0.71798 -0.00428 0.18744 0.0
O30 O 0.71727 -0.00233 0.13577 0.0
C31 C 0.75344 0.04477 0.23715 0.0
O32 O 0.73161 0.02569 0.25852 0.0
O33 O 0.66507 0.00473 0.20445 0.0
C34 C 0.70713 0.0288 0.1217 0.0
O35 O 0.69806 0.05789 0.14143 0.0
C36 C 0.77168 0.93668 0.19921 0.0
O37 O 0.79375 0.96135 0.18343 0.0
O38 O 0.75238 0.03685 0.20522 0.0
C39 C 0.04214 0.65153 0.68848 0.0
O40 O 0.06719 0.67225 0.67177 0.0
O41 O 0.06251 0.74649 0.72662 0.0
Zn42 Zn 0.01747 0.72525 0.70077 0.0
O43 O 0.02363 0.73514 0.64993 0.0
C44 C 0.96958 0.78555 0.72226 0.0
O45 O 0.00088 0.80456 0.7156 0.0
O46 O 0.01647 0.66829 0.70584 0.0
C47 C -0.00256 0.74437 0.62895 0.0
O48 O 0.96279 0.75007 0.64045 0.0
C49 C 0.08399 0.77096 0.71234 0.0
O50 O 0.07667 0.78179 0.6806 0.0
O51 O 0.96926 0.7496 0.71795 0.0
C52 C 0.36942 0.98832 0.74972 0.0
O53 O 0.3453 0.96056 0.74346 0.0
O54 O 0.28141 0.96807 0.78915 0.0
Zn55 Zn 0.313 0.01449 0.79938 0.0
O56 O 0.32955 0.01331 0.8488 0.0
C57 C 0.25579 0.06074 0.76786 0.0
O58 O 0.2512 0.02967 0.74937 0.0
O59 O 0.36043 0.01445 0.77093 0.0
C60 C 0.30874 0.02525 0.87323 0.0
O61 O 0.27504 0.03946 0.86614 0.0
C62 C 0.27821 0.93971 0.80934 0.0
O63 O 0.29676 0.93959 0.83876 0.0
O64 O 0.28174 0.06155 0.79067 0.0
C65 C 0.01558 0.36827 0.29688 0.0
O66 O 0.04322 0.362 0.31899 0.0
O67 O 0.04817 0.26326 0.28293 0.0
Zn68 Zn 0.00539 0.28895 0.30814 0.0
O69 O 0.02102 0.29448 0.35778 0.0
C70 C 0.94828 0.23988 0.27823 0.0
O71 O 0.9672 0.24635 0.24964 0.0
O72 O -0.00541 0.34059 0.2877 0.0
C73 C -0.00229 0.29096 0.38252 0.0
O74 O 0.96171 0.28428 0.37576 0.0
C75 C 0.08235 0.26994 0.2917 0.0
O76 O 0.08915 0.29468 0.31639 0.0
O77 O 0.95916 0.25565 0.30601 0.0
C78 C 0.64411 0.98435 0.75323 0.0
O79 O 0.67008 0.96124 0.74072 0.0
O80 O 0.72924 0.06046 0.77156 0.0
Zn81 Zn 0.70569 0.01527 0.7953 0.0
O82 O 0.70177 0.02633 0.84606 0.0
C83 C 0.77319 0.97007 0.78822 0.0
O84 O 0.78935 0.0028 0.79575 0.0
O85 O 0.65323 0.00846 0.77627 0.0
C86 C 0.70785 0.00179 0.86955 0.0
O87 O 0.71687 0.96669 0.8609 0.0
C88 C 0.75046 0.08367 0.78781 0.0
O89 O 0.75747 0.0778 0.82067 0.0
O90 O 0.73716 0.96818 0.78679 0.0
C91 C 0.991 0.64396 0.26765 0.0
O92 O 0.96905 0.66574 0.24853 0.0
O93 O 0.96401 0.74101 0.28786 0.0
Zn94 Zn 0.01084 0.71419 0.30459 0.0
O95 O 0.0168 0.71842 0.35613 0.0
C96 C 0.05983 0.77529 0.29168 0.0
O97 O 0.03601 0.7907 0.31373 0.0
O98 O 0.01062 0.65879 0.29171 0.0
C99 C -0.00493 0.73697 0.37622 0.0
O100 O 0.96544 0.75501 0.36358 0.0
C101 C 0.9297 0.73156 0.29336 0.0
O102 O 0.92224 0.7011 0.3119 0.0
O103 O 0.05523 0.74063 0.28301 0.0
H104 H 0.28974 0.03405 0.07763 0.0
H105 H 0.39861 0.97587 0.08376 0.0
H106 H 0.404 0.97843 0.02031 0.0
H107 H 0.25631 0.98611 0.00346 0.0
H108 H 0.23262 0.0272 0.9855 0.0
H109 H 0.23856 0.02311 0.03145 0.0
H110 H 0.27253 0.08873 0.03289 0.0
H111 H 0.26664 0.09306 0.9869 0.0
H112 H 0.31336 0.09665 0.00579 0.0
H113 H 0.39625 0.98499 0.95628 0.0
H114 H 0.37556 0.99409 0.89606 0.0
H115 H 0.27134 0.04734 0.93197 0.0
C116 C 0.31494 0.02219 0.06571 0.0
C117 C 0.34382 0.00483 0.08564 0.0
C118 C 0.37613 0.98931 0.06899 0.0
C119 C 0.3795 0.99072 0.033 0.0
C120 C 0.35032 0.00772 0.01412 0.0
C121 C 0.31867 0.0232 0.02988 0.0
C122 C 0.29059 0.03841 0.00364 0.0
C123 C 0.25227 0.01744 0.00617 0.0
C124 C 0.2855 0.08179 0.00754 0.0
C125 C 0.31115 0.02859 0.97059 0.0
C126 C 0.34568 0.01119 0.97721 0.0
C127 C 0.36937 -0.00124 0.95077 0.0
C128 C 0.35733 0.00405 0.91665 0.0
C129 C 0.32182 0.02144 0.90929 0.0
C130 C 0.29867 0.03406 0.93672 0.0
H131 H 0.98001 0.28109 0.58707 0.0
H132 H 0.10011 0.30913 0.5928 0.0
H133 H 0.10335 0.3098 0.52918 0.0
H134 H 0.98547 0.21949 0.51206 0.0
H135 H 0.94081 0.23599 0.49471 0.0
H136 H 0.94858 0.23601 0.54063 0.0
H137 H 0.93231 0.30813 0.54283 0.0
H138 H 0.92474 0.30842 0.49691 0.0
H139 H 0.95838 0.34097 0.51603 0.0
H140 H 0.09293 0.30929 0.46502 0.0
H141 H 0.06991 0.30677 0.40491 0.0
H142 H 0.95641 0.27994 0.44157 0.0
C143 C 0.00713 0.28692 0.575 0.0
C144 C 0.03987 0.2949 0.59489 0.0
C145 C 0.07469 0.30284 0.57807 0.0
C146 C 0.07681 0.3033 0.54197 0.0
C147 C 0.04386 0.29582 0.52316 0.0
C148 C 0.00971 0.28768 0.53909 0.0
C149 C 0.97822 0.28168 0.51302 0.0
C150 C 0.96235 0.24087 0.51524 0.0
C151 C 0.94656 0.31159 0.51747 0.0
C152 C -5e-05 0.28786 0.47988 0.0
C153 C 0.03778 0.2959 0.48627 0.0
C154 C 0.0634 0.30291 0.45969 0.0
C155 C 0.05002 0.30145 0.42564 0.0
C156 C 0.01135 0.29315 0.41853 0.0
C157 C 0.9861 0.28639 0.44612 0.0
H158 H 0.72099 0.95723 0.92665 0.0
H159 H 0.68892 0.07189 0.89545 0.0
H160 H 0.6851 0.09108 0.95651 0.0
H161 H 0.66008 0.95204 0.00115 0.0
H162 H 0.69404 0.92585 0.02674 0.0
H163 H 0.69398 0.92096 0.98052 0.0
H164 H 0.76505 0.94039 0.97877 0.0
H165 H 0.76531 0.94539 0.02499 0.0
H166 H 0.7797 0.9848 -0.00185 0.0
H167 H 0.68495 0.09801 0.02076 0.0
H168 H 0.68859 0.09217 0.08407 0.0
H169 H 0.72112 0.97315 0.07346 0.0
C170 C 0.71309 0.98635 0.93262 0.0
C171 C 0.70522 0.01303 0.90623 0.0
C172 C 0.69505 0.05091 0.91519 0.0
C173 C 0.6928 0.06212 0.94981 0.0
C174 C 0.70082 0.03515 0.97515 0.0
C175 C 0.71075 -0.00194 0.96704 0.0
C176 C 0.71815 0.97475 -0.00075 0.0
C177 C 0.68987 0.94144 0.00207 0.0
C178 C 0.75951 0.96051 0.00034 0.0
C179 C 0.71091 0.00458 0.02671 0.0
C180 C 0.70089 0.03919 0.01225 0.0
C181 C 0.69277 0.07106 0.03241 0.0
C182 C 0.69492 0.06744 0.06835 0.0
C183 C 0.70517 0.03223 0.08374 0.0
C184 C 0.71327 0.00047 0.06251 0.0
H185 H 0.94828 0.76123 0.42844 0.0
H186 H 0.06077 0.71524 0.40836 0.0
H187 H 0.07474 0.71611 0.47067 0.0
H188 H 0.97526 0.82313 0.50022 0.0
H189 H 0.93232 0.81365 0.52402 0.0
H190 H 0.93188 0.81186 0.47759 0.0
H191 H 0.90547 0.74286 0.47976 0.0
H192 H 0.90577 0.74447 0.52614 0.0
H193 H 0.93083 0.70696 0.5039 0.0
H194 H 0.07608 0.72019 0.53478 0.0
H195 H 0.06362 0.72397 0.59713 0.0
H196 H 0.94955 0.76569 0.57613 0.0
C197 C 0.97598 0.75171 0.43713 0.0
C198 C 0.00349 0.7383 0.41354 0.0
C199 C 0.03924 0.72561 0.42596 0.0
C200 C 0.04752 0.72615 0.46129 0.0
C201 C 0.01973 0.73935 0.48386 0.0
C202 C 0.98463 0.75175 0.47237 0.0
C203 C 0.95917 0.76269 0.50226 0.0
C204 C 0.94907 0.80537 0.50093 0.0
C205 C 0.92319 0.73775 0.50305 0.0
C206 C 0.98526 0.75391 0.53234 0.0
C207 C 0.02022 0.74096 0.52108 0.0
C208 C 0.04889 0.73043 0.54395 0.0
C209 C 0.0415 0.73273 0.57934 0.0
C210 C 0.00558 0.74511 0.59156 0.0
C211 C 0.97729 0.75618 0.56763 0.0
H212 H 0.44468 0.06857 0.19394 0.0
H213 H 0.4007 0.97655 0.25721 0.0
H214 H 0.46611 0.96016 0.27515 0.0
H215 H 0.52043 0.01865 0.16136 0.0
H216 H 0.55322 0.05816 0.16066 0.0
H217 H 0.50297 0.06687 0.15757 0.0
H218 H 0.50645 0.11187 0.21055 0.0
H219 H 0.5569 0.10343 0.21372 0.0
H220 H 0.52668 0.09466 0.25036 0.0
H221 H 0.53636 0.9493 0.28092 0.0
H222 H 0.60575 0.94354 0.27247 0.0
H223 H 0.6032 0.04179 0.20432 0.0
C224 C 0.4487 0.04566 0.21232 0.0
C225 C 0.41766 0.024 0.22438 0.0
C226 C 0.42414 0.99361 0.24775 0.0
C227 C 0.46115 0.9842 0.25822 0.0
C228 C 0.49126 0.00553 0.24513 0.0
C229 C 0.4854 0.03571 0.22276 0.0
C230 C 0.5226 0.05152 0.20951 0.0
C231 C 0.52492 0.04859 0.16995 0.0
C232 C 0.5285 0.09282 0.22178 0.0
C233 C 0.55024 0.02463 0.22689 0.0
C234 C 0.53173 -0.00122 0.24788 0.0
C235 C 0.55124 0.96972 0.26495 0.0
C236 C 0.59062 0.96665 0.25996 0.0
C237 C 0.60983 0.99218 0.23771 0.0
C238 C 0.58935 0.02192 0.2216 0.0
H239 H 0.98192 0.43504 0.72543 0.0
H240 H 0.02731 0.40862 0.62433 0.0
H241 H 0.04874 0.47533 0.61785 0.0
H242 H 0.94468 0.52669 0.70082 0.0
H243 H 0.95475 0.5491 0.74167 0.0
H244 H 0.94563 0.49858 0.73974 0.0
H245 H 0.01008 0.4854 0.76997 0.0
H246 H 0.01947 0.53591 0.77184 0.0
H247 H 0.0532 0.50432 0.75164 0.0
H248 H 0.06614 0.54352 0.62249 0.0
H249 H 0.07165 0.61231 0.63447 0.0
H250 H 0.0099 0.59703 0.73032 0.0
C251 C -0.00339 0.44348 0.70213 0.0
C252 C 0.00333 0.41704 0.67542 0.0
C253 C 0.02195 0.42879 0.64495 0.0
C254 C 0.0344 0.46642 0.64115 0.0
C255 C 0.02733 0.49199 0.66784 0.0
C256 C 0.00832 0.48134 0.69749 0.0
C257 C 0.00192 0.51536 0.72095 0.0
C258 C 0.95921 0.52287 0.72608 0.0
C259 C 0.0224 0.50991 0.75565 0.0
C260 C 0.02035 0.54664 0.69979 0.0
C261 C 0.03542 0.53226 0.66959 0.0
C262 C 0.05434 0.55525 0.64596 0.0
C263 C 0.05745 0.59423 0.65308 0.0
C264 C 0.04109 0.60991 0.68325 0.0
C265 C 0.02249 0.58574 0.70699 0.0
H266 H 0.58713 0.0347 0.76689 0.0
H267 H 0.61066 0.928 0.71427 0.0
H268 H 0.54234 0.9217 0.69995 0.0
H269 H 0.50484 0.00648 0.80643 0.0
H270 H 0.48066 0.05162 0.80225 0.0
H271 H 0.53168 0.0502 0.80365 0.0
H272 H 0.53468 0.08634 0.74536 0.0
H273 H 0.48347 0.08781 0.74375 0.0
H274 H 0.50982 0.06749 0.70841 0.0
H275 H 0.47042 0.92322 0.69833 0.0
H276 H 0.4019 0.93201 0.71009 0.0
H277 H 0.42689 0.0385 0.7626 0.0
C278 C 0.57811 0.01032 0.75179 0.0
C279 C 0.60415 0.98181 0.74172 0.0
C280 C 0.59117 0.95028 0.72213 0.0
C281 C 0.55246 0.94653 0.71379 0.0
C282 C 0.52738 0.97487 0.72479 0.0
C283 C 0.53984 0.00632 0.74311 0.0
C284 C 0.50712 0.03124 0.75446 0.0
C285 C 0.50602 0.03507 0.79403 0.0
C286 C 0.50888 0.07054 0.73694 0.0
C287 C 0.47408 0.00805 0.74106 0.0
C288 C 0.4862 0.97593 0.72352 0.0
C289 C 0.4606 0.94863 0.71144 0.0
C290 C 0.42173 0.95387 0.71825 0.0
C291 C 0.40903 0.98598 0.73721 0.0
C292 C 0.43558 0.01385 0.74774 0.0
H293 H 0.05419 0.43306 0.31397 0.0
H294 H 0.96012 0.39196 0.25161 0.0
H295 H 0.94634 0.45819 0.23331 0.0
H296 H 0.00912 0.51475 0.34508 0.0
H297 H 0.05107 0.54426 0.3442 0.0
H298 H 0.05557 0.49348 0.34952 0.0
H299 H 0.10014 0.49035 0.29641 0.0
H300 H 0.09582 0.54123 0.29094 0.0
H301 H 0.08429 0.50966 0.25577 0.0
H302 H 0.94066 0.52979 0.22488 0.0
H303 H 0.9426 0.6003 0.22834 0.0
H304 H 0.04003 0.59304 0.2969 0.0
C305 C 0.03097 0.43781 0.29611 0.0
C306 C 0.00827 0.40735 0.28417 0.0
C307 C 0.97796 0.4149 0.26103 0.0
C308 C 0.96998 0.45238 0.25042 0.0
C309 C 0.9927 0.48183 0.26308 0.0
C310 C 0.02263 0.47487 0.28535 0.0
C311 C 0.0415 0.51146 0.29684 0.0
C312 C 0.03914 0.51625 0.33624 0.0
C313 C 0.08289 0.51327 0.28423 0.0
C314 C 0.01688 0.54026 0.27832 0.0
C315 C 0.9892 0.52274 0.25857 0.0
C316 C 0.96242 0.5438 0.24004 0.0
C317 C 0.96375 0.5838 0.24214 0.0
C318 C 0.99141 0.60213 0.26293 0.0
C319 C 0.01852 0.57991 0.28079 0.0
H320 H 0.07756 0.21233 0.24404 0.0
H321 H 0.15828 0.27678 0.30572 0.0
H322 H 0.21031 0.23593 0.28446 0.0
H323 H 0.11689 0.12252 0.25934 0.0
H324 H 0.10851 0.10414 0.21659 0.0
H325 H 0.07813 0.14082 0.23372 0.0
H326 H 0.09274 0.18382 0.18101 0.0
H327 H 0.12306 0.14713 0.16358 0.0
H328 H 0.14145 0.19455 0.17035 0.0
H329 H 0.25238 0.18478 0.26093 0.0
H330 H 0.28207 0.12761 0.2354 0.0
H331 H 0.17411 0.09683 0.18857 0.0
C332 C 0.10627 0.21831 0.25261 0.0
C333 C 0.11387 0.24778 0.27651 0.0
C334 C 0.15177 0.25441 0.28737 0.0
C335 C 0.18154 0.23141 0.2754 0.0
C336 C 0.17295 0.20212 0.25242 0.0
C337 C 0.13631 0.19567 0.24091 0.0
C338 C 0.1344 0.16101 0.21766 0.0
C339 C 0.10793 0.13032 0.23275 0.0
C340 C 0.1222 0.17232 0.18097 0.0
C341 C 0.17554 0.14841 0.21863 0.0
C342 C 0.19734 0.17267 0.23862 0.0
C343 C 0.23574 0.16583 0.24484 0.0
C344 C 0.25229 0.13322 0.23034 0.0
C345 C 0.23042 0.10786 0.2099 0.0
C346 C 0.19165 0.11589 0.20375 0.0
H347 H 0.90873 0.24135 0.75654 0.0
H348 H 0.86075 0.25804 0.6544 0.0
H349 H 0.80831 0.21412 0.66885 0.0
H350 H 0.89152 0.14411 0.76194 0.0
H351 H 0.87969 0.14382 0.80714 0.0
H352 H 0.91094 0.1799 0.79034 0.0
H353 H 0.86678 0.23284 0.81432 0.0
H354 H 0.83548 0.19686 0.83146 0.0
H355 H 0.8171 0.23292 0.80277 0.0
H356 H 0.76539 0.16306 0.69206 0.0
H357 H 0.73328 0.11093 0.72347 0.0
H358 H 0.80874 0.12873 0.8107 0.0
C359 C 0.8868 0.23642 0.73742 0.0
C360 C 0.88883 0.25316 0.70435 0.0
C361 C 0.85973 0.24565 0.67996 0.0
C362 C 0.82981 0.22075 0.68792 0.0
C363 C 0.82924 0.20395 0.72047 0.0
C364 C 0.85672 0.21179 0.74497 0.0
C365 C 0.8508 0.18841 0.77732 0.0
C366 C 0.88528 0.16253 0.78458 0.0
C367 C 0.842 0.21431 0.8083 0.0
C368 C 0.81632 0.16538 0.76681 0.0
C369 C 0.80417 0.17489 0.73401 0.0
C370 C 0.77425 0.15578 0.71798 0.0
C371 C 0.75632 0.12612 0.73595 0.0
C372 C 0.76838 0.11595 0.76959 0.0
C373 C 0.79853 0.13618 0.78521 0.0
H374 H 0.93703 0.79389 0.25185 0.0
H375 H 0.85276 0.72484 0.30457 0.0
H376 H 0.80209 0.76823 0.28375 0.0
H377 H 0.89674 0.88323 0.27087 0.0
H378 H 0.90853 0.90422 0.22983 0.0
H379 H 0.93744 0.86638 0.24711 0.0
H380 H 0.92711 0.82693 0.19132 0.0
H381 H 0.89818 0.86471 0.1738 0.0
H382 H 0.87939 0.81699 0.17684 0.0
H383 H 0.7613 0.82155 0.25944 0.0
H384 H 0.73376 0.87984 0.23359 0.0
H385 H 0.84562 0.9128 0.19699 0.0
C386 C 0.90791 0.78757 0.25885 0.0
C387 C 0.89882 0.75596 0.27985 0.0
C388 C 0.86035 0.74886 0.28843 0.0
C389 C 0.83141 0.77331 0.27671 0.0
C390 C 0.84152 0.80448 0.25633 0.0
C391 C 0.87886 0.8115 0.24738 0.0
C392 C 0.88262 0.84748 0.22617 0.0
C393 C 0.90781 0.87706 0.24461 0.0
C394 C 0.89771 0.83847 0.18988 0.0
C395 C 0.84157 0.86009 0.225 0.0
C396 C 0.81821 0.83488 0.24235 0.0
C397 C 0.77929 0.84131 0.24557 0.0
C398 C 0.76394 0.87451 0.23083 0.0
C399 C 0.78754 0.90082 0.21319 0.0
C400 C 0.82677 0.89318 0.21011 0.0
H401 H 0.1283 0.83074 0.69191 0.0
H402 H 0.1101 0.75231 0.77694 0.0
H403 H 0.16066 0.7848 0.81018 0.0
H404 H 0.231 0.83944 0.70134 0.0
H405 H 0.23084 0.88947 0.69052 0.0
H406 H 0.19516 0.85826 0.67271 0.0
H407 H 0.14221 0.90201 0.6972 0.0
H408 H 0.17767 0.93328 0.71513 0.0
H409 H 0.14176 0.91291 0.74263 0.0
H410 H 0.21148 0.82789 0.83495 0.0
H411 H 0.25729 0.8789 0.84967 0.0
H412 H 0.24066 0.92906 0.74838 0.0
C413 C 0.1352 0.82002 0.71735 0.0
C414 C 0.11538 0.7889 0.73179 0.0
C415 C 0.125 0.77609 0.76534 0.0
C416 C 0.15371 0.79429 0.78438 0.0
C417 C 0.17243 0.82518 0.76946 0.0
C418 C 0.16353 0.83791 0.73669 0.0
C419 C 0.18649 0.87277 0.72708 0.0
C420 C 0.21241 0.86447 0.69608 0.0
C421 C 0.16048 0.90727 0.72012 0.0
C422 C 0.20935 0.87804 0.75976 0.0
C423 C 0.20115 0.85016 0.78381 0.0
C424 C 0.21827 0.84975 0.81624 0.0
C425 C 0.24424 0.87882 0.82436 0.0
C426 C 0.25252 0.90795 0.80019 0.0
C427 C 0.23498 0.9072 0.76743 0.0
H428 H 0.85019 0.96764 0.77924 0.0
H429 H 0.74937 0.89622 0.77887 0.0
H430 H 0.78894 0.84027 0.76394 0.0
H431 H 0.89441 0.92457 0.70697 0.0
H432 H 0.9419 0.9288 0.72408 0.0
H433 H 0.90588 0.96256 0.73656 0.0
H434 H 0.91804 0.94666 0.80093 0.0
H435 H 0.95417 0.91288 0.78864 0.0
H436 H 0.91502 0.89783 0.8153 0.0
H437 H 0.83977 0.79239 0.74776 0.0
H438 H 0.89743 0.75693 0.73021 0.0
H439 H 0.96398 0.86068 0.74024 0.0
C440 C 0.8364 0.9402 0.77635 0.0
C441 C 0.79672 0.93624 0.78035 0.0
C442 C 0.77976 0.89988 0.77595 0.0
C443 C 0.802 0.86795 0.76754 0.0
C444 C 0.84105 0.87293 0.76356 0.0
C445 C 0.85806 0.90818 0.76777 0.0
C446 C 0.90031 0.90633 0.76084 0.0
C447 C 0.91125 0.93208 0.73029 0.0
C448 C 0.92323 0.91652 0.79337 0.0
C449 C 0.90443 0.86457 0.75182 0.0
C450 C 0.87004 0.84566 0.75375 0.0
C451 C 0.86688 0.80688 0.74624 0.0
C452 C 0.89976 0.787 0.73633 0.0
C453 C 0.93517 0.80605 0.73382 0.0
C454 C 0.93735 0.84528 0.74185 0.0
H455 H 0.18937 0.95999 0.26996 0.0
H456 H 0.25032 0.89956 0.18941 0.0
H457 H 0.20931 0.84328 0.19835 0.0
H458 H 0.17555 0.87982 0.32623 0.0
H459 H 0.12851 0.89436 0.3391 0.0
H460 H 0.16298 0.9297 0.32658 0.0
H461 H 0.11627 0.95579 0.28046 0.0
H462 H 0.08165 0.92055 0.29284 0.0
H463 H 0.09691 0.92372 0.2486 0.0
H464 H 0.16186 0.79343 0.21638 0.0
H465 H 0.11025 0.75434 0.24121 0.0
H466 H 0.08 0.84813 0.30906 0.0
C467 C 0.19422 0.9349 0.25427 0.0
C468 C 0.22311 0.93411 0.22908 0.0
C469 C 0.22832 0.90081 0.20888 0.0
C470 C 0.20523 0.86868 0.21378 0.0
C471 C 0.17699 0.87042 0.23884 0.0
C472 C 0.17131 0.90271 0.25865 0.0
C473 C 0.1386 0.89747 0.28346 0.0
C474 C 0.15224 0.90051 0.32107 0.0
C475 C 0.10646 0.92608 0.27587 0.0
C476 C 0.12686 0.85713 0.27459 0.0
C477 C 0.14939 0.84196 0.24887 0.0
C478 C 0.14398 0.80501 0.23651 0.0
C479 C 0.11465 0.78303 0.25079 0.0
C480 C 0.09108 0.7982 0.27702 0.0
C481 C 0.09744 0.83572 0.28899 0.0
H482 H 0.07206 0.16771 0.69683 0.0
H483 H 0.10209 0.26402 0.76184 0.0
H484 H 0.15899 0.22911 0.7822 0.0
H485 H 0.10141 0.09394 0.75541 0.0
H486 H 0.11933 0.06344 0.72172 0.0
H487 H 0.08093 0.09599 0.71281 0.0
H488 H 0.11984 0.12556 0.66279 0.0
H489 H 0.15845 0.09323 0.67167 0.0
H490 H 0.16678 0.14398 0.67126 0.0
H491 H 0.2127 0.18332 0.79532 0.0
H492 H 0.25853 0.13012 0.80062 0.0
H493 H 0.19316 0.06481 0.72609 0.0
C494 C 0.09045 0.18148 0.71548 0.0
C495 C 0.08259 0.21856 0.72782 0.0
C496 C 0.10753 0.23558 0.75207 0.0
C497 C 0.13993 0.21601 0.76375 0.0
C498 C 0.14695 0.17957 0.75083 0.0
C499 C 0.12287 0.16249 0.72725 0.0
C500 C 0.13683 0.12322 0.71715 0.0
C501 C 0.1079 0.09233 0.7274 0.0
C502 C 0.14602 0.12142 0.67842 0.0
C503 C 0.17252 0.12077 0.7388 0.0
C504 C 0.17791 0.15351 0.75806 0.0
C505 C 0.2088 0.15758 0.78031 0.0
C506 C 0.23468 0.12723 0.78311 0.0
C507 C 0.22949 0.09335 0.7637 0.0
C508 C 0.19808 0.09037 0.74115 0.0
H509 H 0.91772 0.20062 0.22361 0.0
H510 H 0.90581 0.21812 0.33393 0.0
H511 H 0.8536 0.17118 0.33523 0.0
H512 H 0.81699 0.18927 0.20519 0.0
H513 H 0.82484 0.15306 0.17296 0.0
H514 H 0.8604 0.18909 0.18055 0.0
H515 H 0.91067 0.13635 0.19169 0.0
H516 H 0.87526 0.10018 0.18426 0.0
H517 H 0.9017 0.10062 0.22411 0.0
H518 H 0.80437 0.12054 0.32496 0.0
H519 H 0.7607 0.0707 0.30349 0.0
H520 H 0.80464 0.08679 0.19993 0.0
C521 C 0.90398 0.19482 0.24801 0.0
C522 C 0.91586 0.21307 0.27865 0.0
C523 C 0.89717 0.20456 0.31008 0.0
C524 C 0.86748 0.17792 0.31111 0.0
C525 C 0.85672 0.16019 0.28049 0.0
C526 C 0.87426 0.16839 0.24951 0.0
C527 C 0.85771 0.14487 0.2204 0.0
C528 C 0.83886 0.17061 0.19317 0.0
C529 C 0.88815 0.11897 0.20417 0.0
C530 C 0.82844 0.12186 0.23995 0.0
C531 C 0.82824 0.13116 0.27456 0.0
C532 C 0.80409 0.11314 0.29787 0.0
C533 C 0.77944 0.08484 0.28544 0.0
C534 C 0.77919 0.07489 0.25004 0.0
C535 C 0.80401 0.09382 0.22711 0.0
loop_
_geom_bond_atom_site_label_1
_geom_bond_atom_site_label_2
_geom_bond_distance
_geom_bond_site_symmetry_2
_ccdc_geom_bond_type
C0 O1 1.160 . S
C0 O7 1.185 . S
O1 C0 1.160 . S
O2 Zn3 1.899 . S
O2 C10 1.284 . S
Zn3 O2 1.899 . S
Zn3 O4 2.032 . S
Zn3 O7 2.086 . S
Zn3 O12 1.977 1_545 S
O4 Zn3 2.032 . S
O4 C8 1.278 . S
C5 O6 1.203 . S
C5 O12 1.267 . S
O6 C5 1.203 . S
O7 C0 1.185 . S
O7 Zn3 2.086 . S
C8 O4 1.278 . S
C8 O9 1.211 1_545 S
O9 C8 1.211 1_565 S
C10 O2 1.284 . S
C10 O11 1.273 . S
O11 C10 1.273 . S
O12 Zn3 1.977 1_565 S
O12 C5 1.267 . S
C13 O14 1.160 1_455 S
C13 O20 1.185 . S
O14 C13 1.160 1_655 S
O15 Zn16 1.899 1_655 S
O15 C23 1.284 . S
Zn16 O15 1.899 1_455 S
Zn16 O17 2.032 . S
Zn16 O20 2.086 . S
Zn16 O25 1.977 . S
O17 Zn16 2.032 . S
O17 C21 1.278 . S
C18 O19 1.203 . S
C18 O25 1.267 . S
O19 C18 1.203 . S
O20 C13 1.185 . S
O20 Zn16 2.086 . S
C21 O17 1.278 . S
C21 O22 1.211 . S
O22 C21 1.211 . S
C23 O15 1.284 . S
C23 O24 1.273 . S
O24 C23 1.273 . S
O25 Zn16 1.977 . S
O25 C18 1.267 . S
C26 O27 1.160 1_545 S
C26 O33 1.185 . S
O27 C26 1.160 1_565 S
O28 Zn29 1.899 1_565 S
O28 C36 1.284 . S
Zn29 O28 1.899 1_545 S
Zn29 O30 2.032 . S
Zn29 O33 2.086 . S
Zn29 O38 1.977 . S
O30 Zn29 2.032 . S
O30 C34 1.278 . S
C31 O32 1.203 . S
C31 O38 1.267 . S
O32 C31 1.203 . S
O33 C26 1.185 . S
O33 Zn29 2.086 . S
C34 O30 1.278 . S
C34 O35 1.211 . S
O35 C34 1.211 . S
C36 O28 1.284 . S
C36 O37 1.273 . S
O37 C36 1.273 . S
O38 Zn29 1.977 . S
O38 C31 1.267 . S
C39 O40 1.160 . S
C39 O46 1.185 . S
O40 C39 1.160 . S
O41 Zn42 1.899 . S
O41 C49 1.284 . S
Zn42 O41 1.899 . S
Zn42 O43 2.032 . S
Zn42 O46 2.086 . S
Zn42 O51 1.977 1_455 S
O43 Zn42 2.032 . S
O43 C47 1.278 . S
C44 O45 1.203 . S
C44 O51 1.267 . S
O45 C44 1.203 . S
O46 C39 1.185 . S
O46 Zn42 2.086 . S
C47 O43 1.278 . S
C47 O48 1.211 1_455 S
O48 C47 1.211 1_655 S
C49 O41 1.284 . S
C49 O50 1.273 . S
O50 C49 1.273 . S
O51 Zn42 1.977 1_655 S
O51 C44 1.267 . S
C52 O53 1.160 1_545 S
C52 O59 1.185 . S
O53 C52 1.160 1_565 S
O54 Zn55 1.899 1_565 S
O54 C62 1.284 . S
Zn55 O54 1.899 1_545 S
Zn55 O56 2.032 . S
Zn55 O59 2.086 . S
Zn55 O64 1.977 . S
O56 Zn55 2.032 . S
O56 C60 1.278 . S
C57 O58 1.203 . S
C57 O64 1.267 . S
O58 C57 1.203 . S
O59 C52 1.185 . S
O59 Zn55 2.086 . S
C60 O56 1.278 . S
C60 O61 1.211 . S
O61 C60 1.211 . S
C62 O54 1.284 . S
C62 O63 1.273 . S
O63 C62 1.273 . S
O64 Zn55 1.977 . S
O64 C57 1.267 . S
C65 O66 1.160 . S
C65 O72 1.185 . S
O66 C65 1.160 . S
O67 Zn68 1.899 . S
O67 C75 1.284 . S
Zn68 O67 1.899 . S
Zn68 O69 2.032 . S
Zn68 O72 2.086 . S
Zn68 O77 1.977 1_455 S
O69 Zn68 2.032 . S
O69 C73 1.278 . S
C70 O71 1.203 . S
C70 O77 1.267 . S
O71 C70 1.203 . S
O72 C65 1.185 . S
O72 Zn68 2.086 . S
C73 O69 1.278 . S
C73 O74 1.211 1_455 S
O74 C73 1.211 1_655 S
C75 O67 1.284 . S
C75 O76 1.273 . S
O76 C75 1.273 . S
O77 Zn68 1.977 1_655 S
O77 C70 1.267 . S
C78 O79 1.160 . S
C78 O85 1.185 . S
O79 C78 1.160 . S
O80 Zn81 1.899 . S
O80 C88 1.284 . S
Zn81 O80 1.899 . S
Zn81 O82 2.032 . S
Zn81 O85 2.086 . S
Zn81 O90 1.977 1_545 S
O82 Zn81 2.032 . S
O82 C86 1.278 . S
C83 O84 1.203 . S
C83 O90 1.267 . S
O84 C83 1.203 . S
O85 C78 1.185 . S
O85 Zn81 2.086 . S
C86 O82 1.278 . S
C86 O87 1.211 1_545 S
O87 C86 1.211 1_565 S
C88 O80 1.284 . S
C88 O89 1.273 . S
O89 C88 1.273 . S
O90 Zn81 1.977 1_565 S
O90 C83 1.267 . S
C91 O92 1.160 1_455 S
C91 O98 1.185 . S
O92 C91 1.160 1_655 S
O93 Zn94 1.899 1_655 S
O93 C101 1.284 . S
Zn94 O93 1.899 1_455 S
Zn94 O95 2.032 . S
Zn94 O98 2.086 . S
Zn94 O103 1.977 . S
O95 Zn94 2.032 . S
O95 C99 1.278 . S
C96 O97 1.203 . S
C96 O103 1.267 . S
O97 C96 1.203 . S
O98 C91 1.185 . S
O98 Zn94 2.086 . S
C99 O95 1.278 . S
C99 O100 1.211 . S
O100 C99 1.211 . S
C101 O93 1.284 . S
C101 O102 1.273 . S
O102 C101 1.273 . S
O103 Zn94 1.977 . S
O103 C96 1.267 . S
H104 C116 0.930 . S
H105 C118 0.930 . S
H106 C119 0.930 . S
H107 C123 0.959 . S
H108 C123 0.959 . S
H109 C123 0.961 1_554 S
H110 C124 0.960 1_554 S
H111 C124 0.961 . S
H112 C124 0.959 . S
H113 C127 0.929 . S
H114 C128 0.931 . S
H115 C130 0.930 . S
C116 H104 0.930 . S
C116 C117 1.399 . S
C116 C121 1.399 . S
C117 C116 1.399 . S
C117 C118 1.376 1_545 S
C118 H105 0.930 . S
C118 C117 1.376 1_565 S
C118 C119 1.388 . S
C119 H106 0.930 . S
C119 C118 1.388 . S
C119 C120 1.390 . S
C120 C119 1.390 . S
C120 C121 1.394 1_565 S
C120 C126 1.465 1_554 S
C121 C116 1.399 . S
C121 C120 1.394 1_545 S
C121 C122 1.516 1_554 S
C122 C121 1.516 1_556 S
C122 C123 1.502 . S
C122 C124 1.561 . S
C122 C125 1.526 . S
C123 H107 0.959 . S
C123 H108 0.959 . S
C123 H109 0.961 1_556 S
C123 C122 1.502 . S
C124 H110 0.960 1_556 S
C124 H111 0.961 . S
C124 H112 0.959 . S
C124 C122 1.561 . S
C125 C122 1.526 . S
C125 C126 1.396 1_545 S
C125 C130 1.390 . S
C126 C120 1.465 1_556 S
C126 C125 1.396 1_565 S
C126 C127 1.399 . S
C127 H113 0.929 . S
C127 C126 1.399 . S
C127 C128 1.385 . S
C128 H114 0.931 . S
C128 C127 1.385 . S
C128 C129 1.389 1_565 S
C129 C128 1.389 1_545 S
C129 C130 1.387 . S
C130 H115 0.930 . S
C130 C125 1.390 . S
C130 C129 1.387 . S
H131 C143 0.930 1_655 S
H132 C145 0.930 . S
H133 C146 0.930 . S
H134 C150 0.959 . S
H135 C150 0.959 . S
H136 C150 0.961 . S
H137 C151 0.960 . S
H138 C151 0.961 . S
H139 C151 0.959 . S
H140 C154 0.929 . S
H141 C155 0.931 . S
H142 C157 0.930 . S
C143 H131 0.930 1_455 S
C143 C144 1.399 . S
C143 C148 1.399 . S
C144 C143 1.399 . S
C144 C145 1.376 . S
C145 H132 0.930 . S
C145 C144 1.376 . S
C145 C146 1.388 . S
C146 H133 0.930 . S
C146 C145 1.388 . S
C146 C147 1.390 . S
C147 C146 1.390 . S
C147 C148 1.394 . S
C147 C153 1.465 . S
C148 C143 1.399 . S
C148 C147 1.394 . S
C148 C149 1.516 . S
C149 C148 1.516 . S
C149 C150 1.502 1_455 S
C149 C151 1.561 . S
C149 C152 1.526 . S
C150 H134 0.959 . S
C150 H135 0.959 . S
C150 H136 0.961 . S
C150 C149 1.502 1_655 S
C151 H137 0.960 . S
C151 H138 0.961 . S
C151 H139 0.959 . S
C151 C149 1.561 . S
C152 C149 1.526 . S
C152 C153 1.396 . S
C152 C157 1.390 . S
C153 C147 1.465 . S
C153 C152 1.396 . S
C153 C154 1.399 . S
C154 H140 0.929 . S
C154 C153 1.399 . S
C154 C155 1.385 . S
C155 H141 0.931 . S
C155 C154 1.385 . S
C155 C156 1.389 . S
C156 C155 1.389 . S
C156 C157 1.387 . S
C157 H142 0.930 . S
C157 C152 1.390 . S
C157 C156 1.387 . S
H158 C170 0.930 . S
H159 C172 0.930 . S
H160 C173 0.930 . S
H161 C177 0.957 1_554 S
H162 C177 0.942 1_554 S
H163 C177 0.980 . S
H164 C178 0.960 . S
H165 C178 0.961 1_554 S
H166 C178 0.957 1_554 S
H167 C181 0.929 . S
H168 C182 0.931 . S
H169 C184 0.930 . S
C170 H158 0.930 . S
C170 C171 1.399 1_565 S
C170 C175 1.399 . S
C171 C170 1.399 1_545 S
C171 C172 1.376 . S
C172 H159 0.930 . S
C172 C171 1.376 . S
C172 C173 1.388 . S
C173 H160 0.930 . S
C173 C172 1.388 . S
C173 C174 1.390 . S
C174 C173 1.390 . S
C174 C175 1.394 1_545 S
C174 C180 1.465 1_556 S
C175 C170 1.399 . S
C175 C174 1.394 1_565 S
C175 C176 1.541 . S
C176 C175 1.541 . S
C176 C177 1.502 . S
C176 C178 1.562 . S
C176 C179 1.500 1_556 S
C177 H161 0.957 1_556 S
C177 H162 0.942 1_556 S
C177 H163 0.980 . S
C177 C176 1.502 . S
C178 H164 0.960 . S
C178 H165 0.961 1_556 S
C178 H166 0.957 1_556 S
C178 C176 1.562 . S
C179 C176 1.500 1_554 S
C179 C180 1.396 1_565 S
C179 C184 1.390 . S
C180 C174 1.465 1_554 S
C180 C179 1.396 1_545 S
C180 C181 1.399 . S
C181 H167 0.929 . S
C181 C180 1.399 . S
C181 C182 1.385 . S
C182 H168 0.931 . S
C182 C181 1.385 . S
C182 C183 1.389 . S
C183 C182 1.389 . S
C183 C184 1.387 1_545 S
C184 H169 0.930 . S
C184 C179 1.390 . S
C184 C183 1.387 1_565 S
H185 C197 0.930 . S
H186 C199 0.930 . S
H187 C200 0.930 . S
H188 C204 0.959 . S
H189 C204 0.959 . S
H190 C204 0.961 . S
H191 C205 0.962 . S
H192 C205 0.961 1_455 S
H193 C205 0.959 . S
H194 C208 0.929 . S
H195 C209 0.931 1_655 S
H196 C211 0.930 . S
C197 H185 0.930 . S
C197 C198 1.399 . S
C197 C202 1.399 . S
C198 C197 1.399 . S
C198 C199 1.376 1_455 S
C199 H186 0.930 . S
C199 C198 1.376 1_655 S
C199 C200 1.388 . S
C200 H187 0.930 . S
C200 C199 1.388 . S
C200 C201 1.390 1_655 S
C201 C200 1.390 1_455 S
C201 C202 1.394 . S
C201 C207 1.465 . S
C202 C197 1.399 . S
C202 C201 1.394 . S
C202 C203 1.516 . S
C203 C202 1.516 . S
C203 C204 1.502 . S
C203 C205 1.561 1_455 S
C203 C206 1.526 . S
C204 H188 0.959 . S
C204 H189 0.959 . S
C204 H190 0.961 . S
C204 C203 1.502 . S
C205 H191 0.962 . S
C205 H192 0.961 1_655 S
C205 H193 0.959 . S
C205 C203 1.561 1_655 S
C206 C203 1.526 . S
C206 C207 1.396 . S
C206 C211 1.390 . S
C207 C201 1.465 . S
C207 C206 1.396 . S
C207 C208 1.399 1_455 S
C208 H194 0.929 . S
C208 C207 1.399 1_655 S
C208 C209 1.385 1_655 S
C209 H195 0.931 1_455 S
C209 C208 1.385 1_455 S
C209 C210 1.389 . S
C210 C209 1.389 . S
C210 C211 1.387 . S
C211 H196 0.930 . S
C211 C206 1.390 . S
C211 C210 1.387 . S
H212 C224 0.930 . S
H213 C226 0.930 . S
H214 C227 0.930 . S
H215 C231 0.959 . S
H216 C231 0.959 . S
H217 C231 0.961 . S
H218 C232 0.960 . S
H219 C232 0.961 . S
H220 C232 0.959 1_565 S
H221 C235 0.929 . S
H222 C236 0.931 . S
H223 C238 0.930 . S
C224 H212 0.930 . S
C224 C225 1.399 . S
C224 C229 1.399 . S
C225 C224 1.399 . S
C225 C226 1.376 1_545 S
C226 H213 0.930 . S
C226 C225 1.376 1_565 S
C226 C227 1.388 . S
C227 H214 0.930 . S
C227 C226 1.388 . S
C227 C228 1.390 1_565 S
C228 C227 1.390 1_545 S
C228 C229 1.394 . S
C228 C234 1.465 1_545 S
C229 C224 1.399 . S
C229 C228 1.394 . S
C229 C230 1.516 . S
C230 C229 1.516 . S
C230 C231 1.502 . S
C230 C232 1.561 . S
C230 C233 1.526 . S
C231 H215 0.959 . S
C231 H216 0.959 . S
C231 H217 0.961 . S
C231 C230 1.502 . S
C232 H218 0.960 . S
C232 H219 0.961 . S
C232 H220 0.959 1_545 S
C232 C230 1.561 . S
C233 C230 1.526 . S
C233 C234 1.396 1_545 S
C233 C238 1.390 . S
C234 C228 1.465 1_565 S
C234 C233 1.396 1_565 S
C234 C235 1.399 . S
C235 H221 0.929 . S
C235 C234 1.399 . S
C235 C236 1.385 . S
C236 H222 0.931 . S
C236 C235 1.385 . S
C236 C237 1.389 1_565 S
C237 C236 1.389 1_545 S
C237 C238 1.387 . S
C238 H223 0.930 . S
C238 C233 1.390 . S
C238 C237 1.387 . S
H239 C251 0.930 1_655 S
H240 C253 0.930 . S
H241 C254 0.930 . S
H242 C258 0.959 . S
H243 C258 0.959 . S
H244 C258 0.961 . S
H245 C259 0.960 . S
H246 C259 0.961 . S
H247 C259 0.959 . S
H248 C262 0.929 . S
H249 C263 0.931 . S
H250 C265 0.930 . S
C251 H239 0.930 1_455 S
C251 C252 1.399 . S
C251 C256 1.399 . S
C252 C251 1.399 . S
C252 C253 1.376 . S
C253 H240 0.930 . S
C253 C252 1.376 . S
C253 C254 1.388 . S
C254 H241 0.930 . S
C254 C253 1.388 . S
C254 C255 1.390 . S
C255 C254 1.390 . S
C255 C256 1.394 . S
C255 C261 1.465 . S
C256 C251 1.399 . S
C256 C255 1.394 . S
C256 C257 1.516 . S
C257 C256 1.516 . S
C257 C258 1.502 1_455 S
C257 C259 1.561 . S
C257 C260 1.526 . S
C258 H242 0.959 . S
C258 H243 0.959 . S
C258 H244 0.961 . S
C258 C257 1.502 1_655 S
C259 H245 0.960 . S
C259 H246 0.961 . S
C259 H247 0.959 . S
C259 C257 1.561 . S
C260 C257 1.526 . S
C260 C261 1.396 . S
C260 C265 1.390 . S
C261 C255 1.465 . S
C261 C260 1.396 . S
C261 C262 1.399 . S
C262 H248 0.929 . S
C262 C261 1.399 . S
C262 C263 1.385 . S
C263 H249 0.931 . S
C263 C262 1.385 . S
C263 C264 1.389 . S
C264 C263 1.389 . S
C264 C265 1.387 . S
C265 H250 0.930 . S
C265 C260 1.390 . S
C265 C264 1.387 . S
H266 C278 0.930 . S
H267 C280 0.930 . S
H268 C281 0.930 1_565 S
H269 C285 0.959 . S
H270 C285 0.959 . S
H271 C285 0.961 . S
H272 C286 0.960 . S
H273 C286 0.961 . S
H274 C286 0.959 . S
H275 C289 0.934 . S
H276 C290 0.931 . S
H277 C292 0.930 . S
C278 H266 0.930 . S
C278 C279 1.399 . S
C278 C283 1.399 . S
C279 C278 1.399 . S
C279 C280 1.376 . S
C280 H267 0.930 . S
C280 C279 1.376 . S
C280 C281 1.388 . S
C281 H268 0.930 1_545 S
C281 C280 1.388 . S
C281 C282 1.390 . S
C282 C281 1.390 . S
C282 C283 1.394 . S
C282 C288 1.465 . S
C283 C278 1.399 . S
C283 C282 1.394 . S
C283 C284 1.516 . S
C284 C283 1.516 . S
C284 C285 1.502 . S
C284 C286 1.561 1_545 S
C284 C287 1.526 . S
C285 H269 0.959 . S
C285 H270 0.959 . S
C285 H271 0.961 . S
C285 C284 1.502 . S
C286 H272 0.960 . S
C286 H273 0.961 . S
C286 H274 0.959 . S
C286 C284 1.561 1_565 S
C287 C284 1.526 . S
C287 C288 1.396 . S
C287 C292 1.390 . S
C288 C282 1.465 . S
C288 C287 1.396 . S
C288 C289 1.395 1_545 S
C289 H275 0.934 . S
C289 C288 1.395 1_565 S
C289 C290 1.385 . S
C290 H276 0.931 . S
C290 C289 1.385 . S
C290 C291 1.389 1_565 S
C291 C290 1.389 1_545 S
C291 C292 1.387 . S
C292 H277 0.930 . S
C292 C287 1.390 . S
C292 C291 1.387 . S
H293 C305 0.930 . S
H294 C307 0.930 1_655 S
H295 C308 0.930 . S
H296 C312 0.959 . S
H297 C312 0.959 . S
H298 C312 0.961 . S
H299 C313 0.960 . S
H300 C313 0.961 . S
H301 C313 0.959 1_655 S
H302 C316 0.929 . S
H303 C317 0.931 . S
H304 C319 0.930 . S
C305 H293 0.930 . S
C305 C306 1.399 . S
C305 C310 1.399 . S
C306 C305 1.399 . S
C306 C307 1.376 . S
C307 H294 0.930 1_455 S
C307 C306 1.376 . S
C307 C308 1.388 1_455 S
C308 H295 0.930 . S
C308 C307 1.388 1_655 S
C308 C309 1.390 1_655 S
C309 C308 1.390 1_455 S
C309 C310 1.394 . S
C309 C315 1.465 . S
C310 C305 1.399 . S
C310 C309 1.394 . S
C310 C311 1.516 . S
C311 C310 1.516 . S
C311 C312 1.502 . S
C311 C313 1.561 . S
C311 C314 1.526 . S
C312 H296 0.959 . S
C312 H297 0.959 . S
C312 H298 0.961 . S
C312 C311 1.502 . S
C313 H299 0.960 . S
C313 H300 0.961 . S
C313 H301 0.959 1_455 S
C313 C311 1.561 . S
C314 C311 1.526 . S
C314 C315 1.396 . S
C314 C319 1.390 . S
C315 C309 1.465 . S
C315 C314 1.396 . S
C315 C316 1.399 1_455 S
C316 H302 0.929 . S
C316 C315 1.399 1_655 S
C316 C317 1.385 . S
C317 H303 0.931 . S
C317 C316 1.385 . S
C317 C318 1.389 1_655 S
C318 C317 1.389 1_455 S
C318 C319 1.387 . S
C319 H304 0.930 . S
C319 C314 1.390 . S
C319 C318 1.387 . S
H320 C332 0.930 . S
H321 C334 0.930 . S
H322 C335 0.930 . S
H323 C339 0.959 . S
H324 C339 0.959 . S
H325 C339 0.961 . S
H326 C340 0.960 . S
H327 C340 0.961 . S
H328 C340 0.959 . S
H329 C343 0.929 . S
H330 C344 0.931 . S
H331 C346 0.930 . S
C332 H320 0.930 . S
C332 C333 1.399 . S
C332 C337 1.399 . S
C333 C332 1.399 . S
C333 C334 1.376 . S
C334 H321 0.930 . S
C334 C333 1.376 . S
C334 C335 1.388 . S
C335 H322 0.930 . S
C335 C334 1.388 . S
C335 C336 1.390 . S
C336 C335 1.390 . S
C336 C337 1.394 . S
C336 C342 1.465 . S
C337 C332 1.399 . S
C337 C336 1.394 . S
C337 C338 1.516 . S
C338 C337 1.516 . S
C338 C339 1.502 . S
C338 C340 1.561 . S
C338 C341 1.526 . S
C339 H323 0.959 . S
C339 H324 0.959 . S
C339 H325 0.961 . S
C339 C338 1.502 . S
C340 H326 0.960 . S
C340 H327 0.961 . S
C340 H328 0.959 . S
C340 C338 1.561 . S
C341 C338 1.526 . S
C341 C342 1.396 . S
C341 C346 1.390 . S
C342 C336 1.465 . S
C342 C341 1.396 . S
C342 C343 1.399 . S
C343 H329 0.929 . S
C343 C342 1.399 . S
C343 C344 1.385 . S
C344 H330 0.931 . S
C344 C343 1.385 . S
C344 C345 1.389 . S
C345 C344 1.389 . S
C345 C346 1.387 . S
C346 H331 0.930 . S
C346 C341 1.390 . S
C346 C345 1.387 . S
H347 C359 0.930 . S
H348 C361 0.930 . S
H349 C362 0.930 . S
H350 C366 0.959 . S
H351 C366 0.959 . S
H352 C366 0.961 . S
H353 C367 0.960 . S
H354 C367 0.961 . S
H355 C367 0.959 . S
H356 C370 0.929 . S
H357 C371 0.931 . S
H358 C373 0.930 . S
C359 H347 0.930 . S
C359 C360 1.399 . S
C359 C364 1.399 . S
C360 C359 1.399 . S
C360 C361 1.376 . S
C361 H348 0.930 . S
C361 C360 1.376 . S
C361 C362 1.388 . S
C362 H349 0.930 . S
C362 C361 1.388 . S
C362 C363 1.390 . S
C363 C362 1.390 . S
C363 C364 1.394 . S
C363 C369 1.465 . S
C364 C359 1.399 . S
C364 C363 1.394 . S
C364 C365 1.516 . S
C365 C364 1.516 . S
C365 C366 1.502 . S
C365 C367 1.561 . S
C365 C368 1.526 . S
C366 H350 0.959 . S
C366 H351 0.959 . S
C366 H352 0.961 . S
C366 C365 1.502 . S
C367 H353 0.960 . S
C367 H354 0.961 . S
C367 H355 0.959 . S
C367 C365 1.561 . S
C368 C365 1.526 . S
C368 C369 1.396 . S
C368 C373 1.390 . S
C369 C363 1.465 . S
C369 C368 1.396 . S
C369 C370 1.399 . S
C370 H356 0.929 . S
C370 C369 1.399 . S
C370 C371 1.385 . S
C371 H357 0.931 . S
C371 C370 1.385 . S
C371 C372 1.389 . S
C372 C371 1.389 . S
C372 C373 1.387 . S
C373 H358 0.930 . S
C373 C368 1.390 . S
C373 C372 1.387 . S
H374 C386 0.930 . S
H375 C388 0.930 . S
H376 C389 0.930 . S
H377 C393 0.959 . S
H378 C393 0.959 . S
H379 C393 0.961 . S
H380 C394 0.960 . S
H381 C394 0.961 . S
H382 C394 0.959 . S
H383 C397 0.929 . S
H384 C398 0.931 . S
H385 C400 0.930 . S
C386 H374 0.930 . S
C386 C387 1.399 . S
C386 C391 1.399 . S
C387 C386 1.399 . S
C387 C388 1.376 . S
C388 H375 0.930 . S
C388 C387 1.376 . S
C388 C389 1.388 . S
C389 H376 0.930 . S
C389 C388 1.388 . S
C389 C390 1.390 . S
C390 C389 1.390 . S
C390 C391 1.394 . S
C390 C396 1.465 . S
C391 C386 1.399 . S
C391 C390 1.394 . S
C391 C392 1.516 . S
C392 C391 1.516 . S
C392 C393 1.502 . S
C392 C394 1.561 . S
C392 C395 1.526 . S
C393 H377 0.959 . S
C393 H378 0.959 . S
C393 H379 0.961 . S
C393 C392 1.502 . S
C394 H380 0.960 . S
C394 H381 0.961 . S
C394 H382 0.959 . S
C394 C392 1.561 . S
C395 C392 1.526 . S
C395 C396 1.396 . S
C395 C400 1.390 . S
C396 C390 1.465 . S
C396 C395 1.396 . S
C396 C397 1.399 . S
C397 H383 0.929 . S
C397 C396 1.399 . S
C397 C398 1.385 . S
C398 H384 0.931 . S
C398 C397 1.385 . S
C398 C399 1.389 . S
C399 C398 1.389 . S
C399 C400 1.387 . S
C400 H385 0.930 . S
C400 C395 1.390 . S
C400 C399 1.387 . S
H401 C413 0.930 . S
H402 C415 0.930 . S
H403 C416 0.930 . S
H404 C420 0.959 . S
H405 C420 0.959 . S
H406 C420 0.961 . S
H407 C421 0.960 . S
H408 C421 0.961 . S
H409 C421 0.959 . S
H410 C424 0.929 . S
H411 C425 0.931 . S
H412 C427 0.930 . S
C413 H401 0.930 . S
C413 C414 1.399 . S
C413 C418 1.399 . S
C414 C413 1.399 . S
C414 C415 1.376 . S
C415 H402 0.930 . S
C415 C414 1.376 . S
C415 C416 1.388 . S
C416 H403 0.930 . S
C416 C415 1.388 . S
C416 C417 1.390 . S
C417 C416 1.390 . S
C417 C418 1.394 . S
C417 C423 1.465 . S
C418 C413 1.399 . S
C418 C417 1.394 . S
C418 C419 1.516 . S
C419 C418 1.516 . S
C419 C420 1.502 . S
C419 C421 1.561 . S
C419 C422 1.526 . S
C420 H404 0.959 . S
C420 H405 0.959 . S
C420 H406 0.961 . S
C420 C419 1.502 . S
C421 H407 0.960 . S
C421 H408 0.961 . S
C421 H409 0.959 . S
C421 C419 1.561 . S
C422 C419 1.526 . S
C422 C423 1.396 . S
C422 C427 1.390 . S
C423 C417 1.465 . S
C423 C422 1.396 . S
C423 C424 1.399 . S
C424 H410 0.929 . S
C424 C423 1.399 . S
C424 C425 1.385 . S
C425 H411 0.931 . S
C425 C424 1.385 . S
C425 C426 1.389 . S
C426 C425 1.389 . S
C426 C427 1.387 . S
C427 H412 0.930 . S
C427 C422 1.390 . S
C427 C426 1.387 . S
H428 C440 0.930 . S
H429 C442 0.930 . S
H430 C443 0.930 . S
H431 C447 0.959 . S
H432 C447 0.959 . S
H433 C447 0.961 . S
H434 C448 0.960 . S
H435 C448 0.961 . S
H436 C448 0.959 . S
H437 C451 0.929 . S
H438 C452 0.931 . S
H439 C454 0.930 . S
C440 H428 0.930 . S
C440 C441 1.399 . S
C440 C445 1.399 . S
C441 C440 1.399 . S
C441 C442 1.376 . S
C442 H429 0.930 . S
C442 C441 1.376 . S
C442 C443 1.388 . S
C443 H430 0.930 . S
C443 C442 1.388 . S
C443 C444 1.390 . S
C444 C443 1.390 . S
C444 C445 1.394 . S
C444 C450 1.465 . S
C445 C440 1.399 . S
C445 C444 1.394 . S
C445 C446 1.516 . S
C446 C445 1.516 . S
C446 C447 1.502 . S
C446 C448 1.561 . S
C446 C449 1.526 . S
C447 H431 0.959 . S
C447 H432 0.959 . S
C447 H433 0.961 . S
C447 C446 1.502 . S
C448 H434 0.960 . S
C448 H435 0.961 . S
C448 H436 0.959 . S
C448 C446 1.561 . S
C449 C446 1.526 . S
C449 C450 1.396 . S
C449 C454 1.390 . S
C450 C444 1.465 . S
C450 C449 1.396 . S
C450 C451 1.399 . S
C451 H437 0.929 . S
C451 C450 1.399 . S
C451 C452 1.385 . S
C452 H438 0.931 . S
C452 C451 1.385 . S
C452 C453 1.389 . S
C453 C452 1.389 . S
C453 C454 1.387 . S
C454 H439 0.930 . S
C454 C449 1.390 . S
C454 C453 1.387 . S
H455 C467 0.930 . S
H456 C469 0.930 . S
H457 C470 0.930 . S
H458 C474 0.959 . S
H459 C474 0.959 . S
H460 C474 0.961 . S
H461 C475 0.960 . S
H462 C475 0.961 . S
H463 C475 0.959 . S
H464 C478 0.929 . S
H465 C479 0.931 . S
H466 C481 0.930 . S
C467 H455 0.930 . S
C467 C468 1.399 . S
C467 C472 1.399 . S
C468 C467 1.399 . S
C468 C469 1.376 . S
C469 H456 0.930 . S
C469 C468 1.376 . S
C469 C470 1.388 . S
C470 H457 0.930 . S
C470 C469 1.388 . S
C470 C471 1.390 . S
C471 C470 1.390 . S
C471 C472 1.394 . S
C471 C477 1.465 . S
C472 C467 1.399 . S
C472 C471 1.394 . S
C472 C473 1.516 . S
C473 C472 1.516 . S
C473 C474 1.502 . S
C473 C475 1.561 . S
C473 C476 1.526 . S
C474 H458 0.959 . S
C474 H459 0.959 . S
C474 H460 0.961 . S
C474 C473 1.502 . S
C475 H461 0.960 . S
C475 H462 0.961 . S
C475 H463 0.959 . S
C475 C473 1.561 . S
C476 C473 1.526 . S
C476 C477 1.396 . S
C476 C481 1.390 . S
C477 C471 1.465 . S
C477 C476 1.396 . S
C477 C478 1.399 . S
C478 H464 0.929 . S
C478 C477 1.399 . S
C478 C479 1.385 . S
C479 H465 0.931 . S
C479 C478 1.385 . S
C479 C480 1.389 . S
C480 C479 1.389 . S
C480 C481 1.387 . S
C481 H466 0.930 . S
C481 C476 1.390 . S
C481 C480 1.387 . S
H482 C494 0.930 . S
H483 C496 0.930 . S
H484 C497 0.930 . S
H485 C501 0.959 . S
H486 C501 0.959 . S
H487 C501 0.961 . S
H488 C502 0.960 . S
H489 C502 0.961 . S
H490 C502 0.959 . S
H491 C505 0.929 . S
H492 C506 0.931 . S
H493 C508 0.930 . S
C494 H482 0.930 . S
C494 C495 1.399 . S
C494 C499 1.399 . S
C495 C494 1.399 . S
C495 C496 1.376 . S
C496 H483 0.930 . S
C496 C495 1.376 . S
C496 C497 1.388 . S
C497 H484 0.930 . S
C497 C496 1.388 . S
C497 C498 1.390 . S
C498 C497 1.390 . S
C498 C499 1.394 . S
C498 C504 1.465 . S
C499 C494 1.399 . S
C499 C498 1.394 . S
C499 C500 1.516 . S
C500 C499 1.516 . S
C500 C501 1.502 . S
C500 C502 1.561 . S
C500 C503 1.526 . S
C501 H485 0.959 . S
C501 H486 0.959 . S
C501 H487 0.961 . S
C501 C500 1.502 . S
C502 H488 0.960 . S
C502 H489 0.961 . S
C502 H490 0.959 . S
C502 C500 1.561 . S
C503 C500 1.526 . S
C503 C504 1.396 . S
C503 C508 1.390 . S
C504 C498 1.465 . S
C504 C503 1.396 . S
C504 C505 1.399 . S
C505 H491 0.929 . S
C505 C504 1.399 . S
C505 C506 1.385 . S
C506 H492 0.931 . S
C506 C505 1.385 . S
C506 C507 1.389 . S
C507 C506 1.389 . S
C507 C508 1.387 . S
C508 H493 0.930 . S
C508 C503 1.390 . S
C508 C507 1.387 . S
H509 C521 0.930 . S
H510 C523 0.930 . S
H511 C524 0.930 . S
H512 C528 0.959 . S
H513 C528 0.959 . S
H514 C528 0.961 . S
H515 C529 0.960 . S
H516 C529 0.961 . S
H517 C529 0.959 . S
H518 C532 0.929 . S
H519 C533 0.931 . S
H520 C535 0.930 . S
C521 H509 0.930 . S
C521 C522 1.399 . S
C521 C526 1.399 . S
C522 C521 1.399 . S
C522 C523 1.376 . S
C523 H510 0.930 . S
C523 C522 1.376 . S
C523 C524 1.388 . S
C524 H511 0.930 . S
C524 C523 1.388 . S
C524 C525 1.390 . S
C525 C524 1.390 . S
C525 C526 1.394 . S
C525 C531 1.465 . S
C526 C521 1.399 . S
C526 C525 1.394 . S
C526 C527 1.516 . S
C527 C526 1.516 . S
C527 C528 1.502 . S
C527 C529 1.561 . S
C527 C530 1.526 . S
C528 H512 0.959 . S
C528 H513 0.959 . S
C528 H514 0.961 . S
C528 C527 1.502 . S
C529 H515 0.960 . S
C529 H516 0.961 . S
C529 H517 0.959 . S
C529 C527 1.561 . S
C530 C527 1.526 . S
C530 C531 1.396 . S
C530 C535 1.390 . S
C531 C525 1.465 . S
C531 C530 1.396 . S
C531 C532 1.399 . S
C532 H518 0.929 . S
C532 C531 1.399 . S
C532 C533 1.385 . S
C533 H519 0.931 . S
C533 C532 1.385 . S
C533 C534 1.389 . S
C534 C533 1.389 . S
C534 C535 1.387 . S
C535 H520 0.930 . S
C535 C530 1.390 . S
C535 C534 1.387 . S
C117 C8 1.517 . S
C129 C60 1.545 . S
C144 C21 1.494 . S
C156 C73 1.514 . S
C171 C86 1.522 . S
C183 C34 1.495 . S
C198 C99 1.546 . S
C210 C47 1.525 . S
C225 C0 1.126 . S
C237 C26 1.091 . S
C252 C13 1.121 . S
C264 C39 1.097 . S
C279 C78 1.119 . S
C291 C52 1.100 . S
C306 C65 1.123 . S
C318 C91 1.095 . S
C333 C75 1.259 . S
C345 C10 1.318 . S
C360 C23 1.272 . S
C372 C88 1.322 . S
C387 C101 1.278 . S
C399 C36 1.323 . S
C414 C49 1.309 . S
C426 C62 1.251 . S
C441 C83 1.252 . S
C453 C44 1.244 . S
C468 C5 1.179 . S
C480 C96 1.213 . S
C495 C18 1.244 . S
C507 C57 1.217 . S
C522 C70 1.163 . S
C534 C31 1.189 . S
