# Generated by pormake.
# Topology qtz-x, (6)-cn, num edge types: 1
# Building blocks:
#     Node 0, Type 0, BuildingBlock: KUMJIN_clean_sbu_0, # of connection points: 6
#     Node 1, Type 0, BuildingBlock: KUMJIN_clean_sbu_0, # of connection points: 6
#     Node 2, Type 0, BuildingBlock: KUMJIN_clean_sbu_0, # of connection points: 6
#     Edge 3, Type (0, 0), BuildingBlock: XUDNAN_clean_linker_2, # of connection points: 2
#     Edge 4, Type (0, 0), BuildingBlock: XUDNAN_clean_linker_2, # of connection points: 2
#     Edge 5, Type (0, 0), BuildingBlock: XUDNAN_clean_linker_2, # of connection points: 2
#     Edge 6, Type (0, 0), BuildingBlock: XUDNAN_clean_linker_2, # of connection points: 2
#     Edge 7, Type (0, 0), BuildingBlock: XUDNAN_clean_linker_2, # of connection points: 2
#     Edge 8, Type (0, 0), BuildingBlock: XUDNAN_clean_linker_2, # of connection points: 2
#     Edge 9, Type (0, 0), BuildingBlock: XUDNAN_clean_linker_2, # of connection points: 2
#     Edge 10, Type (0, 0), BuildingBlock: XUDNAN_clean_linker_2, # of connection points: 2
#     Edge 11, Type (0, 0), BuildingBlock: XUDNAN_clean_linker_2, # of connection points: 2
# Relax obj value: 0.164
# Max RMSD: 0.280
# Mean RMSD: 0.280
data_MOF--net-qtz-x--node1-KUMJIN_clean_sbu_0--edge1-XUDNAN_clean_linker_2
_symmetry_space_group_name_H-M    P1
_symmetry_Int_Tables_number       1
_symmetry_cell_setting            triclinic
loop_
_symmetry_equiv_pos_as_xyz
'x, y, z'
_cell_length_a     15.149604
_cell_length_b     15.13848
_cell_length_c     51.072657
_cell_angle_alpha  90.028469
_cell_angle_beta   89.898194
_cell_angle_gamma 120.01154
loop_
_atom_site_label
_atom_site_type_symbol
_atom_site_fract_x
_atom_site_fract_y
_atom_site_fract_z
_atom_type_partial_charge
Eu0 Eu 0.27436 0.50257 0.20122 0.0
C1 C 0.82453 0.3567 0.16683 0.0
C2 C 0.71591 0.22026 0.19678 0.0
C3 C 0.64712 0.31095 0.17309 0.0
C4 C 0.81092 0.27935 0.18407 0.0
C5 C 0.74149 0.37091 0.16071 0.0
C6 C 0.63536 0.2381 0.19162 0.0
C7 C 0.84861 0.49987 0.12938 0.0
N8 N 0.91629 0.41377 0.15485 0.0
C9 C 0.9285 0.48314 0.13587 0.0
C10 C 0.75462 0.44328 0.14177 0.0
Eu11 Eu 0.03878 0.36342 0.16309 0.0
N12 N 0.88816 0.259 0.18771 0.0
C13 C 0.87324 0.17914 0.20329 0.0
C14 C 0.70302 0.14233 0.21374 0.0
C15 C 0.7819 0.12145 0.2169 0.0
H16 H 0.00065 0.52589 0.12576 0.0
H17 H 0.77206 0.05995 0.22961 0.0
H18 H 0.56265 0.19397 0.20142 0.0
H19 H 0.85914 0.55531 0.11453 0.0
H20 H 0.93108 0.15932 0.20595 0.0
H21 H 0.54848 0.78428 0.13344 0.0
H22 H 0.63157 0.09615 0.22397 0.0
H23 H 0.30415 0.34765 0.24257 0.0
H24 H 0.38906 0.69483 0.15881 0.0
H25 H 0.43429 0.30198 0.25415 0.0
H26 H 0.58254 0.32041 0.16849 0.0
H27 H 0.68074 0.73545 0.1386 0.0
H28 H 0.7431 0.63407 0.16313 0.0
H29 H 0.69216 0.45501 0.13631 0.0
H30 H 0.71418 0.50762 0.19712 0.0
N31 N 0.42339 0.58649 0.17514 0.0
C32 C 0.44324 0.66861 0.15997 0.0
C33 C 0.60871 0.69279 0.14883 0.0
C34 C 0.59141 0.61399 0.16609 0.0
C35 C 0.53444 0.72075 0.14592 0.0
C36 C 0.49587 0.5601 0.17876 0.0
H37 H 0.598 0.37976 0.23015 0.0
N38 N 0.38857 0.44203 0.21047 0.0
C39 C 0.44749 0.35347 0.23801 0.0
C40 C 0.47849 0.4864 0.19726 0.0
C41 C 0.37362 0.37895 0.23126 0.0
C42 C 0.53965 0.39729 0.22437 0.0
C43 C 0.55703 0.46637 0.20412 0.0
O44 O 0.27971 0.54101 0.24286 0.0
O45 O 0.10436 0.42557 0.20202 0.0
O46 O 0.05894 0.51785 0.17416 0.0
O47 O 0.23153 0.61579 0.18471 0.0
O48 O 0.17131 0.39387 0.23275 0.0
O49 O 0.37716 0.65715 0.21574 0.0
O50 O 0.02729 0.37406 0.12058 0.0
O51 O 0.20605 0.48277 0.16121 0.0
O52 O 0.25378 0.34823 0.18917 0.0
O53 O 0.07742 0.2531 0.18239 0.0
O54 O 0.15893 0.356 0.13844 0.0
O55 O 0.94852 0.22592 0.14024 0.0
C56 C 0.0857 0.37784 0.22336 0.0
C57 C 0.44458 0.6568 0.25766 0.0
C58 C 0.51657 0.67951 0.30187 0.0
C59 C 0.43761 0.66793 0.28489 0.0
C60 C 0.60032 0.67591 0.29089 0.0
C61 C 0.53264 0.66121 0.2474 0.0
C62 C 0.60891 0.66881 0.26393 0.0
C63 C 0.14149 0.60594 0.17952 0.0
C64 C 0.35712 0.63228 0.2403 0.0
C65 C 0.65215 0.51995 0.19161 0.0
C66 C 0.66879 0.59238 0.17234 0.0
C67 C 0.23361 0.44561 0.14302 0.0
C68 C 0.87306 0.24594 0.10145 0.0
C69 C 0.88586 0.26402 0.07428 0.0
C70 C 0.80049 0.22992 0.05778 0.0
C71 C 0.70236 0.17972 0.06889 0.0
C72 C 0.77417 0.1956 0.11207 0.0
C73 C 0.68955 0.16339 0.09586 0.0
C74 C 0.16653 0.26078 0.18763 0.0
C75 C 0.96311 0.27621 0.11821 0.0
H76 H 0.37113 0.66825 0.29257 0.0
H77 H 0.66014 0.67881 0.30303 0.0
H78 H 0.54208 0.65713 0.22659 0.0
H79 H 0.67486 0.66861 0.2558 0.0
H80 H 0.96191 0.30225 0.06592 0.0
H81 H 0.63545 0.15391 0.05669 0.0
H82 H 0.76199 0.18007 0.13284 0.0
H83 H 0.61365 0.12485 0.10421 0.0
Eu84 Eu 0.60146 0.93664 0.53493 0.0
C85 C 0.93605 0.38582 0.49853 0.0
C86 C 0.89597 0.49973 0.52231 0.0
C87 C 0.06464 0.56483 0.50352 0.0
C88 C 0.86727 0.40163 0.51258 0.0
C89 C 0.0352 0.46756 0.49351 0.0
C90 C -0.00448 0.58064 0.51814 0.0
C91 C 0.066 0.35335 0.46709 0.0
N92 N 0.90391 0.29211 0.48824 0.0
C93 C 0.96636 0.27547 0.47214 0.0
C94 C 0.10062 0.44994 0.4778 0.0
Eu95 Eu 0.73014 0.16727 0.49416 0.0
N96 N 0.77026 0.32309 0.51508 0.0
C97 C 0.69686 0.33958 0.52565 0.0
C98 C 0.82234 0.51487 0.53477 0.0
C99 C 0.72201 0.43467 0.53615 0.0
H100 H 0.93927 0.20164 0.46321 0.0
H101 H 0.66361 0.44628 0.545 0.0
H102 H 0.01883 0.65638 0.52546 0.0
H103 H 0.11539 0.33929 0.45457 0.0
H104 H 0.61839 0.27949 0.52626 0.0
H105 H 0.64083 0.64677 0.48051 0.0
H106 H 0.84131 0.58895 0.54252 0.0
H107 H 0.39594 0.91932 0.56474 0.0
H108 H 0.69602 0.81752 0.49804 0.0
H109 H 0.21986 0.78764 0.57558 0.0
H110 H 0.14009 0.62873 0.49967 0.0
H111 H 0.46462 0.50642 0.48818 0.0
H112 H 0.29437 0.44608 0.50923 0.0
H113 H 0.17715 0.51081 0.47341 0.0
H114 H 0.18183 0.48298 0.53607 0.0
N115 N 0.55158 0.77774 0.51439 0.0
C116 C 0.6186 0.75818 0.50127 0.0
C117 C 0.48807 0.58212 0.49557 0.0
C118 C 0.42071 0.60137 0.50987 0.0
C119 C 0.58755 0.66099 0.49126 0.0
C120 C 0.45484 0.70143 0.51896 0.0
H121 H 0.15269 0.6102 0.56045 0.0
N122 N 0.42684 0.81903 0.54243 0.0
C123 C 0.26713 0.76823 0.56378 0.0
C124 C 0.39088 0.72251 0.53364 0.0
C125 C 0.36694 0.84278 0.55749 0.0
C126 C 0.22945 0.66825 0.55517 0.0
C127 C 0.29142 0.6442 0.53994 0.0
O128 O 0.58606 0.91354 0.57743 0.0
O129 O 0.69901 0.10681 0.53498 0.0
O130 O 0.85617 0.14663 0.51249 0.0
O131 O 0.75977 0.974 0.52321 0.0
O132 O 0.57748 0.04541 0.56037 0.0
O133 O 0.68847 0.87974 0.5556 0.0
O134 O 0.74205 0.17865 0.45143 0.0
O135 O 0.63369 -0.00276 0.49405 0.0
O136 O 0.4815 0.94575 0.51173 0.0
O137 O 0.56399 0.12092 0.5042 0.0
O138 O 0.7551 0.06107 0.46836 0.0
O139 O 0.65132 0.2304 0.47198 0.0
C140 C 0.65549 0.12899 0.55276 0.0
C141 C 0.60862 0.7789 0.5931 0.0
C142 C 0.57846 0.69194 0.63541 0.0
C143 C 0.60716 0.78114 0.62063 0.0
C144 C 0.54981 0.60023 0.62187 0.0
C145 C 0.57833 0.68619 0.5802 0.0
C146 C 0.54881 0.59749 0.59456 0.0
C147 C 0.848 0.05771 0.51876 0.0
C148 C 0.64561 0.87445 0.57819 0.0
C149 C 0.25754 0.54438 0.53119 0.0
C150 C 0.32168 0.52325 0.51596 0.0
C151 C 0.67693 0.97677 0.47575 0.0
C152 C 0.72993 0.31356 0.43197 0.0
C153 C 0.73944 0.30025 0.40504 0.0
C154 C 0.77622 0.3834 0.38763 0.0
C155 C 0.80329 0.48035 0.39761 0.0
C156 C 0.75866 0.41127 0.44154 0.0
C157 C 0.79481 0.49399 0.42438 0.0
C158 C 0.48007 0.0301 0.50601 0.0
C159 C 0.68886 0.22421 0.44949 0.0
H160 H 0.62911 0.85275 0.63039 0.0
H161 H 0.53049 0.53054 0.63225 0.0
H162 H 0.57913 0.68241 0.55907 0.0
H163 H 0.52692 0.52656 0.58447 0.0
H164 H 0.71722 0.22482 0.39763 0.0
H165 H 0.83308 0.54613 0.38481 0.0
H166 H 0.75299 0.42375 0.46222 0.0
H167 H 0.81675 0.56912 0.43186 0.0
Eu168 Eu 0.65926 0.55626 0.86804 0.0
C169 C 0.80498 0.24609 0.83249 0.0
C170 C 0.93399 0.27519 0.86464 0.0
C171 C 0.84758 0.11394 0.8413 0.0
C172 C 0.87564 0.30877 0.85078 0.0
C173 C 0.79194 0.14889 0.82704 0.0
C174 C 0.91752 0.17649 0.8603 0.0
C175 C 0.6804 0.13379 0.79147 0.0
N176 N 0.75525 0.28353 0.81844 0.0
C177 C 0.69772 0.23146 0.7973 0.0
C178 C 0.72682 0.09172 0.80661 0.0
Eu179 Eu 0.78949 0.45017 0.8282 0.0
N180 N 0.89284 0.40527 0.85355 0.0
C181 C 0.97276 0.4743 0.86841 0.0
C182 C 0.01054 0.34347 0.88147 0.0
C183 C 0.03094 0.44394 0.88307 0.0
H184 H 0.6648 0.26541 0.78499 0.0
H185 H 0.09198 0.4983 0.89544 0.0
H186 H 0.9609 0.14912 0.87091 0.0
H187 H 0.63263 0.09177 0.77506 0.0
H188 H 0.99063 0.55258 0.8697 0.0
H189 H 0.3442 0.49961 0.80466 0.0
H190 H 0.05673 0.32051 0.89253 0.0
H191 H 0.81338 0.75745 0.90456 0.0
H192 H 0.4515 0.44887 0.82904 0.0
H193 H 0.84716 0.93244 0.91325 0.0
H194 H 0.83893 0.0397 0.83732 0.0
H195 H 0.38043 0.67786 0.80653 0.0
H196 H 0.48214 0.85291 0.82596 0.0
H197 H 0.71471 0.01671 0.80181 0.0
H198 H 0.61553 0.96899 0.85641 0.0
N199 N 0.55305 0.59847 0.84327 0.0
C200 C 0.4698 0.52739 0.82977 0.0
C201 C 0.42914 0.65646 0.81697 0.0
C202 C 0.51007 0.72736 0.83233 0.0
C203 C 0.40823 0.55573 0.81594 0.0
C204 C 0.57162 0.69571 0.8454 0.0
H205 H 0.74994 -0.00166 0.88952 0.0
N206 N 0.70293 0.72764 0.87512 0.0
C207 C 0.79135 0.88551 0.89872 0.0
C208 C 0.64804 0.7619 0.86209 0.0
C209 C 0.77233 0.78674 0.8937 0.0
C210 C 0.73666 0.92259 0.88518 0.0
C211 C 0.66386 0.86072 0.86663 0.0
O212 O 0.63532 0.56552 0.91007 0.0
O213 O 0.73711 0.46419 0.8682 0.0
O214 O 0.63876 0.31389 0.83925 0.0
O215 O 0.54862 0.39326 0.85448 0.0
O216 O 0.77712 0.57109 0.89755 0.0
O217 O 0.50837 0.46518 0.88528 0.0
O218 O 0.81153 0.47536 0.78603 0.0
O219 O 0.70898 0.53962 0.82831 0.0
O220 O 0.8031 0.69052 0.85185 0.0
O221 O 0.89716 0.6094 0.84364 0.0
O222 O 0.66731 0.43037 0.79945 0.0
O223 O 0.9428 0.52498 0.81092 0.0
C224 C 0.78976 0.49842 0.88872 0.0
C225 C 0.4738 0.54475 0.92073 0.0
C226 C 0.41394 0.59083 0.96023 0.0
C227 C 0.47461 0.55585 0.94811 0.0
C228 C 0.3521 0.61391 0.94438 0.0
C229 C 0.41228 0.5696 0.90542 0.0
C230 C 0.35182 0.60375 0.91723 0.0
C231 C 0.55385 0.31241 0.8465 0.0
C232 C 0.53676 0.50675 0.9084 0.0
C233 C 0.6045 0.89337 0.85319 0.0
C234 C 0.52844 0.82719 0.83588 0.0
C235 C 0.65339 0.50234 0.80837 0.0
C236 C 0.95776 0.48391 0.76619 0.0
C237 C 0.91293 0.45648 0.74114 0.0
C238 C 0.96385 0.4412 0.71987 0.0
C239 C 0.06004 0.45103 0.72462 0.0
C240 C 0.05319 0.49218 0.77022 0.0
C241 C 0.10328 0.47491 0.74961 0.0
C242 C 0.88912 0.69206 0.84623 0.0
C243 C 0.90976 0.51477 0.78693 0.0
H244 H 0.52305 0.53792 0.95989 0.0
H245 H 0.3024 0.63832 0.95297 0.0
H246 H 0.41009 0.56194 0.88433 0.0
H247 H 0.30386 0.62169 0.9053 0.0
H248 H 0.83845 0.44828 0.73831 0.0
H249 H 0.10366 0.44267 0.70902 0.0
H250 H 0.09024 0.51408 0.78913 0.0
H251 H 0.17731 0.48247 0.75288 0.0
H252 H 0.2678 0.79916 0.16091 0.0
H253 H 0.99017 0.61441 0.20514 0.0
H254 H 0.97982 0.76792 0.21561 0.0
H255 H 0.37599 0.02851 0.19943 0.0
H256 H 0.41677 0.11325 0.17158 0.0
H257 H 0.40755 0.99022 0.169 0.0
H258 H 0.28712 0.94791 0.1291 0.0
H259 H 0.29762 0.07143 0.13182 0.0
H260 H 0.17383 0.9578 0.13231 0.0
H261 H 0.00612 0.93926 0.22418 0.0
H262 H 0.04116 0.11606 0.22153 0.0
H263 H 0.28802 0.19054 0.16688 0.0
C264 C 0.20499 0.79171 0.17273 0.0
C265 C 0.1305 0.696 0.18264 0.0
C266 C 0.04799 0.68751 0.19755 0.0
C267 C 0.04205 0.77421 0.20378 0.0
C268 C 0.11788 0.86802 0.19431 0.0
C269 C 0.19581 0.87726 0.17836 0.0
C270 C 0.26089 0.98604 0.16868 0.0
C271 C 0.3719 0.03212 0.17774 0.0
C272 C 0.25442 0.99106 0.1387 0.0
C273 C 0.20851 0.03662 0.18222 0.0
C274 C 0.12753 0.9669 0.19728 0.0
C275 C 0.06767 0.99414 0.21198 0.0
C276 C 0.08751 0.0943 0.21017 0.0
C277 C 0.16448 0.16496 0.19329 0.0
C278 C 0.22848 0.1373 0.17985 0.0
H279 H 0.4307 0.18399 0.50508 0.0
H280 H 0.29954 0.8544 0.50147 0.0
H281 H 0.12878 0.83189 0.50418 0.0
H282 H 0.25837 0.1883 0.54989 0.0
H283 H 0.24257 0.28691 0.53477 0.0
H284 H 0.35971 0.28517 0.5303 0.0
H285 H 0.34137 0.28234 0.48026 0.0
H286 H 0.22504 0.28649 0.48367 0.0
H287 H 0.22569 0.18583 0.46503 0.0
H288 H 0.97908 0.83993 0.5143 0.0
H289 H 0.84299 0.87636 0.52173 0.0
H290 H 0.05624 0.20202 0.51347 0.0
C291 C 0.36583 0.10738 0.50435 0.0
C292 C 0.37885 0.02093 0.50361 0.0
C293 C 0.29214 0.92187 0.50259 0.0
C294 C 0.19441 0.908 0.50407 0.0
C295 C 0.18416 0.9939 0.50593 0.0
C296 C 0.26637 0.09182 0.50532 0.0
C297 C 0.23088 0.16964 0.50757 0.0
C298 C 0.27561 0.23647 0.53208 0.0
C299 C 0.25736 0.23495 0.48265 0.0
C300 C 0.11634 0.09915 0.51023 0.0
C301 C 0.09284 -0.00152 0.50955 0.0
C302 C -0.00463 0.91817 0.51388 0.0
C303 C 0.91814 0.94043 0.51808 0.0
C304 C 0.93713 0.04232 0.51714 0.0
C305 C 0.03846 0.1233 0.51357 0.0
H306 H 0.98457 0.86551 0.87662 0.0
H307 H 0.00219 0.73315 0.80286 0.0
H308 H 0.17113 0.88233 0.79431 0.0
H309 H 0.12264 0.13671 0.85443 0.0
H310 H 0.18874 0.18266 0.88511 0.0
H311 H 0.06368 0.07079 0.88449 0.0
H312 H 0.1328 0.96747 0.90819 0.0
H313 H 0.2585 0.07808 0.90889 0.0
H314 H 0.23907 0.96118 0.89433 0.0
H315 H 0.34131 0.03233 0.79548 0.0
H316 H 0.5041 0.18705 0.80469 0.0
H317 H 0.38285 0.22794 0.87773 0.0
C318 C 0.023 0.87007 0.85836 0.0
C319 C 0.98106 0.78889 0.84025 0.0
C320 C 0.03396 0.79507 0.81689 0.0
C321 C 0.12957 0.87938 0.81185 0.0
C322 C 0.17096 0.9568 0.83041 0.0
C323 C 0.11952 0.95409 0.85307 0.0
C324 C 0.18542 0.04518 0.87038 0.0
C325 C 0.13727 0.11291 0.87379 0.0
C326 C 0.20509 0.01087 0.89702 0.0
C327 C 0.28204 0.09784 0.85405 0.0
C328 C 0.27138 0.04502 0.83112 0.0
C329 C 0.35074 0.07482 0.8133 0.0
C330 C 0.44369 0.16179 0.81892 0.0
C331 C 0.45681 0.21774 0.84214 0.0
C332 C 0.37463 0.18597 0.85986 0.0
H333 H 0.41839 0.46355 0.99822 0.0
H334 H 0.40416 0.74088 0.98808 0.0
H335 H 0.38039 0.74732 0.03562 0.0
H336 H 0.23027 0.3516 0.04455 0.0
H337 H 0.29052 0.29703 0.06389 0.0
H338 H 0.31995 0.32139 0.02963 0.0
H339 H 0.51215 0.43194 0.04068 0.0
H340 H 0.483 0.40777 0.07508 0.0
H341 H 0.55365 0.53707 0.0632 0.0
H342 H 0.32816 0.70731 0.08242 0.0
H343 H 0.26028 0.62797 0.12541 0.0
H344 H 0.32545 0.38714 0.10696 0.0
C345 C 0.41363 0.52751 1.00605 0.0
C346 C 0.41251 0.6013 0.98926 0.0
C347 C 0.4035 0.68232 1.00038 0.0
C348 C 0.39104 0.68733 0.02745 0.0
C349 C 0.38974 0.61194 0.04333 0.0
C350 C 0.40228 0.53432 0.03312 0.0
C351 C 0.39025 0.45864 0.05423 0.0
C352 C 0.30253 0.35085 0.04767 0.0
C353 C 0.49077 0.45891 0.05855 0.0
C354 C 0.36453 0.50338 0.07761 0.0
C355 C 0.36548 0.59235 0.07095 0.0
C356 C 0.33133 0.64023 0.08823 0.0
C357 C 0.2938 0.59519 0.11275 0.0
C358 C 0.29328 0.50474 0.12008 0.0
C359 C 0.33016 0.45921 0.10232 0.0
H360 H 0.86052 0.27746 0.36563 0.0
H361 H 0.72587 0.46273 0.34568 0.0
H362 H 0.76449 0.45524 0.29895 0.0
H363 H 0.06553 0.39566 0.32476 0.0
H364 H 0.07016 0.283 0.31564 0.0
H365 H 0.01529 0.28724 0.34648 0.0
H366 H 0.84741 0.12285 0.33422 0.0
H367 H 0.90213 0.11828 0.30322 0.0
H368 H 0.78333 0.11853 0.30414 0.0
H369 H 0.83823 0.44692 0.25536 0.0
H370 H 0.95047 0.44826 0.21998 0.0
H371 H 0.03583 0.26782 0.26815 0.0
C372 C 0.83617 0.31364 0.35133 0.0
C373 C 0.7896 0.37014 0.35928 0.0
C374 C 0.7619 0.41925 0.34004 0.0
C375 C 0.78266 0.41458 0.31342 0.0
C376 C 0.83066 0.35998 0.30627 0.0
C377 C 0.85683 0.31013 0.32471 0.0
C378 C 0.91831 0.26686 0.31249 0.0
C379 C 0.02352 0.31089 0.32561 0.0
C380 C 0.85924 0.14966 0.31358 0.0
C381 C 0.92726 0.30467 0.28462 0.0
C382 C 0.87397 0.35593 0.2812 0.0
C383 C 0.8786 0.4053 0.25771 0.0
C384 C 0.94234 0.40557 0.23765 0.0
C385 C 0.00078 0.35728 0.24128 0.0
C386 C 0.99039 0.30369 0.26474 0.0
H387 H 0.50438 0.42553 0.77213 0.0
H388 H 0.75351 0.70973 0.80124 0.0
H389 H 0.74199 0.79921 0.76205 0.0
H390 H 0.57393 0.44863 0.71034 0.0
H391 H 0.45044 0.3966 0.69519 0.0
H392 H 0.46047 0.36011 0.72798 0.0
H393 H 0.33756 0.42012 0.7449 0.0
H394 H 0.32478 0.45477 0.71192 0.0
H395 H 0.36433 0.54779 0.73782 0.0
H396 H 0.73268 0.84512 0.71517 0.0
H397 H 0.71319 0.8491 0.66746 0.0
H398 H 0.4569 0.53919 0.67019 0.0
C399 C 0.55319 0.50749 0.77071 0.0
C400 C 0.62906 0.5611 0.78965 0.0
C401 C 0.69361 0.66776 0.78713 0.0
C402 C 0.68772 0.71905 0.76487 0.0
C403 C 0.61523 0.66283 0.74577 0.0
C404 C 0.54675 0.55986 0.74893 0.0
C405 C 0.48257 0.51462 0.72463 0.0
C406 C 0.49258 0.42478 0.71392 0.0
C407 C 0.37066 0.48242 0.73014 0.0
C408 C 0.53154 0.60578 0.70648 0.0
C409 C 0.60684 0.69102 0.71907 0.0
C410 C 0.6713 0.78006 0.70535 0.0
C411 C 0.6593 0.78159 0.6781 0.0
C412 C 0.58305 0.6946 0.66471 0.0
C413 C 0.51663 0.60701 0.67949 0.0
H414 H 0.9137 0.56707 0.93098 0.0
H415 H 0.70497 0.29002 0.8898 0.0
H416 H 0.70926 0.18751 0.92692 0.0
H417 H 0.05937 0.45637 0.96668 0.0
H418 H 0.07172 0.53083 0.99542 0.0
H419 H 0.07116 0.5803 0.96334 0.0
H420 H 0.92164 0.60659 0.97754 0.0
H421 H 0.92044 0.55616 1.00943 0.0
H422 H 0.80601 0.49953 0.98993 0.0
H423 H 0.70572 0.11888 0.97175 0.0
H424 H 0.70459 0.08839 0.01931 0.0
H425 H 0.91869 0.40947 0.03156 0.0
C426 C 0.87217 0.48467 0.92943 0.0
C427 C 0.80984 0.43627 0.9075 0.0
C428 C 0.75449 0.32849 0.90625 0.0
C429 C 0.75646 0.26975 0.92729 0.0
C430 C 0.81505 0.32004 0.94924 0.0
C431 C 0.8738 0.42521 0.9502 0.0
C432 C 0.9212 0.4613 0.97703 0.0
C433 C 0.03777 0.51006 0.97553 0.0
C434 C 0.89039 0.53517 0.98918 0.0
C435 C 0.87375 0.36074 0.99164 0.0
C436 C 0.81441 0.27996 0.97512 0.0
C437 C 0.75411 0.1811 0.98468 0.0
C438 C 0.75334 0.1646 1.01173 0.0
C439 C 0.81228 0.24646 0.02901 0.0
C440 C 0.87498 0.34523 0.01869 0.0
H441 H 0.68035 0.78862 0.33451 0.0
H442 H 0.34914 0.61566 0.33525 0.0
H443 H 0.35094 0.65567 0.38223 0.0
H444 H 0.71172 0.70222 0.39956 0.0
H445 H 0.82311 0.82385 0.40625 0.0
H446 H 0.79394 0.77736 0.3731 0.0
H447 H 0.79725 0.94364 0.3589 0.0
H448 H 0.82664 0.99065 0.39186 0.0
H449 H 0.71691 0.98183 0.37568 0.0
H450 H 0.39266 0.73365 0.42896 0.0
H451 H 0.47015 0.83894 0.46867 0.0
H452 H 0.77084 0.93517 0.43738 0.0
C453 C 0.60752 0.75543 0.34441 0.0
C454 C 0.51464 0.6981 0.33071 0.0
C455 C 0.42182 0.66108 0.34485 0.0
C456 C 0.42197 0.68231 0.37175 0.0
C457 C 0.51542 0.73852 0.38449 0.0
C458 C 0.60631 0.77307 0.37118 0.0
C459 C 0.6971 0.83458 0.38866 0.0
C460 C 0.76015 0.78129 0.39209 0.0
C461 C 0.76324 0.94409 0.37815 0.0
C462 C 0.64359 0.8328 0.41378 0.0
C463 C 0.53874 0.77711 0.41126 0.0
C464 C 0.47464 0.77529 0.43128 0.0
C465 C 0.51916 0.83479 0.45388 0.0
C466 C 0.62654 0.89408 0.45622 0.0
C467 C 0.68852 0.88915 0.43633 0.0
H468 H 0.99264 0.33366 0.67955 0.0
H469 H 0.83103 0.49635 0.69787 0.0
H470 H 0.74656 0.44743 0.65519 0.0
H471 H 0.03574 0.4141 0.60956 0.0
H472 H 0.02253 0.29444 0.59901 0.0
H473 H 0.07316 0.34407 0.63102 0.0
H474 H 0.93427 0.17564 0.65222 0.0
H475 H 0.88365 0.12575 0.62033 0.0
H476 H 0.80189 0.13083 0.64523 0.0
H477 H 0.65857 0.35684 0.61398 0.0
H478 H 0.5893 0.24807 0.57477 0.0
H479 H 0.83106 0.1751 0.57826 0.0
C480 C 0.94178 0.3618 0.67458 0.0
C481 C 0.91787 0.41753 0.69289 0.0
C482 C 0.84872 0.45028 0.68511 0.0
C483 C 0.80115 0.42431 0.66055 0.0
C484 C 0.82573 0.36855 0.64333 0.0
C485 C 0.89616 0.33968 0.64974 0.0
C486 C 0.90803 0.27916 0.62765 0.0
C487 C 0.01632 0.33639 0.61613 0.0
C488 C 0.88028 0.1715 0.63692 0.0
C489 C 0.83047 0.27543 0.60826 0.0
C490 C 0.78322 0.32682 0.61785 0.0
C491 C 0.69815 0.32061 0.6056 0.0
C492 C 0.65976 0.25941 0.58322 0.0
C493 C 0.7093 0.20958 0.57246 0.0
C494 C 0.79637 0.21856 0.58504 0.0
loop_
_geom_bond_atom_site_label_1
_geom_bond_atom_site_label_2
_geom_bond_distance
_geom_bond_site_symmetry_2
_ccdc_geom_bond_type
Eu0 N31 2.657 . S
Eu0 N38 2.609 . S
Eu0 O44 2.558 . S
Eu0 O45 2.612 1_455 S
Eu0 O47 2.339 . S
Eu0 O48 2.565 . S
Eu0 O49 2.419 . S
Eu0 O51 2.380 . S
Eu0 O52 2.432 . S
Eu0 C64 2.848 . S
C1 C4 1.429 . S
C1 C5 1.411 . S
C1 N8 1.377 . S
C2 C4 1.420 . S
C2 C6 1.423 . S
C2 C14 1.392 . S
C3 C5 1.420 . S
C3 C6 1.351 . S
C3 H26 0.931 . S
C4 C1 1.429 . S
C4 C2 1.420 . S
C4 N12 1.362 . S
C5 C1 1.411 . S
C5 C3 1.420 . S
C5 C10 1.395 . S
C6 C2 1.423 . S
C6 C3 1.351 . S
C6 H18 0.930 . S
C7 C9 1.400 . S
C7 C10 1.386 . S
C7 H19 0.930 . S
N8 C1 1.377 . S
N8 C9 1.321 . S
N8 Eu11 2.609 . S
C9 C7 1.400 . S
C9 N8 1.321 . S
C9 H16 0.930 . S
C10 C5 1.395 . S
C10 C7 1.386 . S
C10 H29 0.930 . S
Eu11 N8 2.609 . S
Eu11 N12 2.657 . S
Eu11 O45 2.380 . S
Eu11 O46 2.432 . S
Eu11 O50 2.558 . S
Eu11 O51 2.612 1_655 S
Eu11 O53 2.339 . S
Eu11 O54 2.564 1_655 S
Eu11 O55 2.419 . S
Eu11 C75 2.848 . S
N12 C4 1.362 . S
N12 Eu11 2.657 . S
N12 C13 1.334 . S
C13 N12 1.334 . S
C13 C15 1.413 . S
C13 H20 0.929 . S
C14 C2 1.392 . S
C14 C15 1.367 . S
C14 H22 0.930 . S
C15 C13 1.413 . S
C15 C14 1.367 . S
C15 H17 0.930 . S
H16 C9 0.930 . S
H17 C15 0.930 . S
H18 C6 0.930 . S
H19 C7 0.930 . S
H20 C13 0.929 . S
H21 C35 0.930 . S
H22 C14 0.930 . S
H23 C41 0.930 . S
H24 C32 0.929 . S
H25 C39 0.930 . S
H26 C3 0.931 . S
H27 C33 0.930 . S
H28 C66 0.930 . S
H29 C10 0.930 . S
H30 C65 0.931 . S
N31 Eu0 2.657 . S
N31 C32 1.334 . S
N31 C36 1.362 . S
C32 H24 0.929 . S
C32 N31 1.334 . S
C32 C35 1.413 . S
C33 H27 0.930 . S
C33 C34 1.392 . S
C33 C35 1.367 . S
C34 C33 1.392 . S
C34 C36 1.420 . S
C34 C66 1.423 . S
C35 H21 0.930 . S
C35 C32 1.413 . S
C35 C33 1.367 . S
C36 N31 1.362 . S
C36 C34 1.420 . S
C36 C40 1.429 . S
H37 C42 0.930 . S
N38 Eu0 2.609 . S
N38 C40 1.377 . S
N38 C41 1.321 . S
C39 H25 0.930 . S
C39 C41 1.400 . S
C39 C42 1.386 . S
C40 C36 1.429 . S
C40 N38 1.377 . S
C40 C43 1.411 . S
C41 H23 0.930 . S
C41 N38 1.321 . S
C41 C39 1.400 . S
C42 H37 0.930 . S
C42 C39 1.386 . S
C42 C43 1.395 . S
C43 C40 1.411 . S
C43 C42 1.395 . S
C43 C65 1.420 . S
O44 Eu0 2.558 . S
O44 C64 1.257 . S
O45 Eu0 2.612 1_655 S
O45 Eu11 2.380 . S
O45 C56 1.276 . S
O46 Eu11 2.432 . S
O46 C63 1.264 1_655 S
O47 Eu0 2.339 . S
O47 C63 1.254 . S
O48 Eu0 2.565 . S
O48 C56 1.233 1_455 S
O49 Eu0 2.419 . S
O49 C64 1.249 . S
O50 Eu11 2.558 . S
O50 C75 1.257 . S
O51 Eu0 2.380 . S
O51 Eu11 2.612 1_455 S
O51 C67 1.276 . S
O52 Eu0 2.432 . S
O52 C74 1.264 1_455 S
O53 Eu11 2.339 . S
O53 C74 1.254 . S
O54 Eu11 2.564 1_455 S
O54 C67 1.234 . S
O55 Eu11 2.419 . S
O55 C75 1.249 . S
C56 O45 1.276 . S
C56 O48 1.233 1_655 S
C57 C59 1.393 . S
C57 C61 1.395 . S
C57 C64 1.492 . S
C58 C59 1.392 . S
C58 C60 1.386 . S
C59 C57 1.393 . S
C59 C58 1.392 . S
C59 H76 0.930 . S
C60 C58 1.386 . S
C60 C62 1.395 . S
C60 H77 0.930 . S
C61 C57 1.395 . S
C61 C62 1.379 . S
C61 H78 0.930 . S
C62 C60 1.395 . S
C62 C61 1.379 . S
C62 H79 0.930 . S
C63 O46 1.264 1_455 S
C63 O47 1.254 . S
C64 Eu0 2.848 . S
C64 O44 1.257 . S
C64 O49 1.249 . S
C64 C57 1.492 . S
C65 H30 0.931 . S
C65 C43 1.420 . S
C65 C66 1.351 . S
C66 H28 0.930 . S
C66 C34 1.423 . S
C66 C65 1.351 . S
C67 O51 1.276 . S
C67 O54 1.234 . S
C68 C69 1.393 . S
C68 C72 1.395 . S
C68 C75 1.492 . S
C69 C68 1.393 . S
C69 C70 1.392 . S
C69 H80 0.930 . S
C70 C69 1.392 . S
C70 C71 1.386 . S
C71 C70 1.386 . S
C71 C73 1.395 . S
C71 H81 0.930 . S
C72 C68 1.395 . S
C72 C73 1.379 . S
C72 H82 0.930 . S
C73 C71 1.395 . S
C73 C72 1.379 . S
C73 H83 0.930 . S
C74 O52 1.264 1_655 S
C74 O53 1.254 . S
C75 Eu11 2.848 . S
C75 O50 1.257 . S
C75 O55 1.249 . S
C75 C68 1.492 . S
H76 C59 0.930 . S
H77 C60 0.930 . S
H78 C61 0.930 . S
H79 C62 0.930 . S
H80 C69 0.930 . S
H81 C71 0.930 . S
H82 C72 0.930 . S
H83 C73 0.930 . S
Eu84 N115 2.657 1_545 S
Eu84 N122 2.609 1_545 S
Eu84 O128 2.558 1_545 S
Eu84 O129 2.612 . S
Eu84 O131 2.339 . S
Eu84 O132 2.563 . S
Eu84 O133 2.419 1_545 S
Eu84 O135 2.380 . S
Eu84 O136 2.432 . S
Eu84 C148 2.848 1_545 S
C85 C88 1.429 1_455 S
C85 C89 1.411 . S
C85 N92 1.377 . S
C86 C88 1.420 . S
C86 C90 1.423 1_655 S
C86 C98 1.392 . S
C87 C89 1.420 . S
C87 C90 1.351 . S
C87 H110 0.931 . S
C88 C85 1.429 1_655 S
C88 C86 1.420 . S
C88 N96 1.362 . S
C89 C85 1.411 . S
C89 C87 1.420 . S
C89 C94 1.395 . S
C90 C86 1.423 1_455 S
C90 C87 1.351 . S
C90 H102 0.930 . S
C91 C93 1.400 . S
C91 C94 1.386 . S
C91 H103 0.930 . S
N92 C85 1.377 . S
N92 C93 1.321 . S
N92 Eu95 2.609 1_455 S
C93 C91 1.400 . S
C93 N92 1.321 . S
C93 H100 0.930 . S
C94 C89 1.395 . S
C94 C91 1.386 . S
C94 H113 0.930 . S
Eu95 N92 2.609 1_655 S
Eu95 N96 2.657 . S
Eu95 O129 2.380 . S
Eu95 O130 2.432 . S
Eu95 O134 2.558 . S
Eu95 O135 2.612 . S
Eu95 O137 2.339 . S
Eu95 O138 2.563 . S
Eu95 O139 2.419 . S
Eu95 C159 2.848 . S
N96 C88 1.362 . S
N96 Eu95 2.657 . S
N96 C97 1.334 . S
C97 N96 1.334 . S
C97 C99 1.413 . S
C97 H104 0.929 . S
C98 C86 1.392 . S
C98 C99 1.367 . S
C98 H106 0.930 . S
C99 C97 1.413 . S
C99 C98 1.367 . S
C99 H101 0.930 . S
H100 C93 0.930 . S
H101 C99 0.930 . S
H102 C90 0.930 . S
H103 C91 0.930 . S
H104 C97 0.929 . S
H105 C119 0.930 . S
H106 C98 0.930 . S
H107 C125 0.930 . S
H108 C116 0.929 . S
H109 C123 0.930 . S
H110 C87 0.931 . S
H111 C117 0.930 . S
H112 C150 0.930 . S
H113 C94 0.930 . S
H114 C149 0.931 . S
N115 Eu84 2.657 1_565 S
N115 C116 1.334 . S
N115 C120 1.362 . S
C116 H108 0.929 . S
C116 N115 1.334 . S
C116 C119 1.413 . S
C117 H111 0.930 . S
C117 C118 1.392 . S
C117 C119 1.367 . S
C118 C117 1.392 . S
C118 C120 1.420 . S
C118 C150 1.423 . S
C119 H105 0.930 . S
C119 C116 1.413 . S
C119 C117 1.367 . S
C120 N115 1.362 . S
C120 C118 1.420 . S
C120 C124 1.429 . S
H121 C126 0.930 . S
N122 Eu84 2.609 1_565 S
N122 C124 1.377 . S
N122 C125 1.321 . S
C123 H109 0.930 . S
C123 C125 1.400 . S
C123 C126 1.386 . S
C124 C120 1.429 . S
C124 N122 1.377 . S
C124 C127 1.411 . S
C125 H107 0.930 . S
C125 N122 1.321 . S
C125 C123 1.400 . S
C126 H121 0.930 . S
C126 C123 1.386 . S
C126 C127 1.395 . S
C127 C124 1.411 . S
C127 C126 1.395 . S
C127 C149 1.420 . S
O128 Eu84 2.558 1_565 S
O128 C148 1.257 . S
O129 Eu84 2.612 . S
O129 Eu95 2.380 . S
O129 C140 1.276 . S
O130 Eu95 2.432 . S
O130 C147 1.264 . S
O131 Eu84 2.339 . S
O131 C147 1.254 . S
O132 Eu84 2.563 . S
O132 C140 1.235 . S
O133 Eu84 2.419 1_565 S
O133 C148 1.249 . S
O134 Eu95 2.558 . S
O134 C159 1.257 . S
O135 Eu84 2.380 . S
O135 Eu95 2.612 . S
O135 C151 1.276 . S
O136 Eu84 2.432 . S
O136 C158 1.264 . S
O137 Eu95 2.339 . S
O137 C158 1.254 . S
O138 Eu95 2.563 . S
O138 C151 1.235 . S
O139 Eu95 2.419 . S
O139 C159 1.249 . S
C140 O129 1.276 . S
C140 O132 1.235 . S
C141 C143 1.393 . S
C141 C145 1.395 . S
C141 C148 1.492 . S
C142 C143 1.392 . S
C142 C144 1.386 . S
C143 C141 1.393 . S
C143 C142 1.392 . S
C143 H160 0.930 . S
C144 C142 1.386 . S
C144 C146 1.395 . S
C144 H161 0.930 . S
C145 C141 1.395 . S
C145 C146 1.379 . S
C145 H162 0.930 . S
C146 C144 1.395 . S
C146 C145 1.379 . S
C146 H163 0.930 . S
C147 O130 1.264 . S
C147 O131 1.254 . S
C148 Eu84 2.848 1_565 S
C148 O128 1.257 . S
C148 O133 1.249 . S
C148 C141 1.492 . S
C149 H114 0.931 . S
C149 C127 1.420 . S
C149 C150 1.351 . S
C150 H112 0.930 . S
C150 C118 1.423 . S
C150 C149 1.351 . S
C151 O135 1.276 . S
C151 O138 1.235 . S
C152 C153 1.393 . S
C152 C156 1.395 1_655 S
C152 C159 1.492 . S
C153 C152 1.393 . S
C153 C154 1.392 . S
C153 H164 0.930 . S
C154 C153 1.392 . S
C154 C155 1.386 . S
C155 C154 1.386 . S
C155 C157 1.395 1_655 S
C155 H165 0.930 . S
C156 C152 1.395 1_455 S
C156 C157 1.379 . S
C156 H166 0.930 . S
C157 C155 1.395 1_455 S
C157 C156 1.379 . S
C157 H167 0.930 . S
C158 O136 1.264 . S
C158 O137 1.254 . S
C159 Eu95 2.848 . S
C159 O134 1.257 . S
C159 O139 1.249 . S
C159 C152 1.492 . S
H160 C143 0.930 . S
H161 C144 0.930 . S
H162 C145 0.930 . S
H163 C146 0.930 . S
H164 C153 0.930 . S
H165 C155 0.930 . S
H166 C156 0.930 . S
H167 C157 0.930 . S
Eu168 N199 2.657 . S
Eu168 N206 2.609 . S
Eu168 O212 2.558 . S
Eu168 O213 2.612 . S
Eu168 O215 2.339 . S
Eu168 O216 2.563 . S
Eu168 O217 2.419 . S
Eu168 O219 2.380 . S
Eu168 O220 2.432 . S
Eu168 C232 2.848 . S
C169 C172 1.429 . S
C169 C173 1.411 . S
C169 N176 1.377 . S
C170 C172 1.420 1_455 S
C170 C174 1.423 . S
C170 C182 1.392 . S
C171 C173 1.420 . S
C171 C174 1.351 1_655 S
C171 H194 0.931 1_545 S
C172 C169 1.429 . S
C172 C170 1.420 1_655 S
C172 N180 1.362 . S
C173 C169 1.411 . S
C173 C171 1.420 . S
C173 C178 1.395 1_545 S
C174 C170 1.423 . S
C174 C171 1.351 1_455 S
C174 H186 0.930 . S
C175 C177 1.400 1_565 S
C175 C178 1.386 . S
C175 H187 0.930 . S
N176 C169 1.377 . S
N176 C177 1.321 . S
N176 Eu179 2.609 . S
C177 C175 1.400 1_545 S
C177 N176 1.321 . S
C177 H184 0.930 . S
C178 C173 1.395 1_565 S
C178 C175 1.386 . S
C178 H197 0.930 . S
Eu179 N176 2.609 . S
Eu179 N180 2.657 . S
Eu179 O213 2.380 . S
Eu179 O214 2.432 . S
Eu179 O218 2.558 . S
Eu179 O219 2.612 . S
Eu179 O221 2.339 . S
Eu179 O222 2.563 . S
Eu179 O223 2.419 . S
Eu179 C243 2.848 . S
N180 C172 1.362 . S
N180 Eu179 2.657 . S
N180 C181 1.334 1_655 S
C181 N180 1.334 1_455 S
C181 C183 1.413 . S
C181 H188 0.929 . S
C182 C170 1.392 . S
C182 C183 1.367 . S
C182 H190 0.930 . S
C183 C181 1.413 . S
C183 C182 1.367 . S
C183 H185 0.930 . S
H184 C177 0.930 . S
H185 C183 0.930 . S
H186 C174 0.930 . S
H187 C175 0.930 . S
H188 C181 0.929 . S
H189 C203 0.930 . S
H190 C182 0.930 . S
H191 C209 0.930 . S
H192 C200 0.929 . S
H193 C207 0.930 . S
H194 C171 0.931 1_565 S
H195 C201 0.930 . S
H196 C234 0.930 . S
H197 C178 0.930 . S
H198 C233 0.931 . S
N199 Eu168 2.657 . S
N199 C200 1.334 . S
N199 C204 1.362 . S
C200 H192 0.929 . S
C200 N199 1.334 . S
C200 C203 1.413 . S
C201 H195 0.930 . S
C201 C202 1.392 . S
C201 C203 1.367 . S
C202 C201 1.392 . S
C202 C204 1.420 . S
C202 C234 1.423 . S
C203 H189 0.930 . S
C203 C200 1.413 . S
C203 C201 1.367 . S
C204 N199 1.362 . S
C204 C202 1.420 . S
C204 C208 1.429 . S
H205 C210 0.930 . S
N206 Eu168 2.609 . S
N206 C208 1.377 . S
N206 C209 1.321 . S
C207 H193 0.930 . S
C207 C209 1.400 . S
C207 C210 1.386 . S
C208 C204 1.429 . S
C208 N206 1.377 . S
C208 C211 1.411 . S
C209 H191 0.930 . S
C209 N206 1.321 . S
C209 C207 1.400 . S
C210 H205 0.930 . S
C210 C207 1.386 . S
C210 C211 1.395 . S
C211 C208 1.411 . S
C211 C210 1.395 . S
C211 C233 1.420 . S
O212 Eu168 2.558 . S
O212 C232 1.257 . S
O213 Eu168 2.612 . S
O213 Eu179 2.380 . S
O213 C224 1.276 . S
O214 Eu179 2.432 . S
O214 C231 1.264 . S
O215 Eu168 2.339 . S
O215 C231 1.254 . S
O216 Eu168 2.563 . S
O216 C224 1.235 . S
O217 Eu168 2.419 . S
O217 C232 1.249 . S
O218 Eu179 2.558 . S
O218 C243 1.257 . S
O219 Eu168 2.380 . S
O219 Eu179 2.612 . S
O219 C235 1.276 . S
O220 Eu168 2.432 . S
O220 C242 1.264 . S
O221 Eu179 2.339 . S
O221 C242 1.254 . S
O222 Eu179 2.563 . S
O222 C235 1.235 . S
O223 Eu179 2.419 . S
O223 C243 1.249 . S
C224 O213 1.276 . S
C224 O216 1.235 . S
C225 C227 1.393 . S
C225 C229 1.395 . S
C225 C232 1.492 . S
C226 C227 1.392 . S
C226 C228 1.386 . S
C227 C225 1.393 . S
C227 C226 1.392 . S
C227 H244 0.930 . S
C228 C226 1.386 . S
C228 C230 1.395 . S
C228 H245 0.930 . S
C229 C225 1.395 . S
C229 C230 1.379 . S
C229 H246 0.930 . S
C230 C228 1.395 . S
C230 C229 1.379 . S
C230 H247 0.930 . S
C231 O214 1.264 . S
C231 O215 1.254 . S
C232 Eu168 2.848 . S
C232 O212 1.257 . S
C232 O217 1.249 . S
C232 C225 1.492 . S
C233 H198 0.931 . S
C233 C211 1.420 . S
C233 C234 1.351 . S
C234 H196 0.930 . S
C234 C202 1.423 . S
C234 C233 1.351 . S
C235 O219 1.276 . S
C235 O222 1.235 . S
C236 C237 1.393 1_655 S
C236 C240 1.395 . S
C236 C243 1.492 . S
C237 C236 1.393 1_455 S
C237 C238 1.392 . S
C237 H248 0.930 . S
C238 C237 1.392 . S
C238 C239 1.386 . S
C239 C238 1.386 . S
C239 C241 1.395 1_455 S
C239 H249 0.930 . S
C240 C236 1.395 . S
C240 C241 1.379 . S
C240 H250 0.930 . S
C241 C239 1.395 1_655 S
C241 C240 1.379 . S
C241 H251 0.930 . S
C242 O220 1.264 . S
C242 O221 1.254 . S
C243 Eu179 2.848 . S
C243 O218 1.257 . S
C243 O223 1.249 . S
C243 C236 1.492 . S
H244 C227 0.930 . S
H245 C228 0.930 . S
H246 C229 0.930 . S
H247 C230 0.930 . S
H248 C237 0.930 . S
H249 C239 0.930 . S
H250 C240 0.930 . S
H251 C241 0.930 . S
H252 C264 0.930 . S
H253 C266 0.930 . S
H254 C267 0.930 . S
H255 C271 0.959 . S
H256 C271 0.959 . S
H257 C271 0.961 1_565 S
H258 C272 0.960 . S
H259 C272 0.961 . S
H260 C272 0.959 . S
H261 C275 0.929 . S
H262 C276 0.931 . S
H263 C278 0.930 . S
C264 H252 0.930 . S
C264 C265 1.399 1_455 S
C264 C269 1.399 . S
C265 C264 1.399 1_655 S
C265 C266 1.376 . S
C266 H253 0.930 . S
C266 C265 1.376 . S
C266 C267 1.388 . S
C267 H254 0.930 . S
C267 C266 1.388 . S
C267 C268 1.390 . S
C268 C267 1.390 . S
C268 C269 1.394 1_655 S
C268 C274 1.465 . S
C269 C264 1.399 . S
C269 C268 1.394 1_455 S
C269 C270 1.516 . S
C270 C269 1.516 . S
C270 C271 1.502 1_565 S
C270 C272 1.561 . S
C270 C273 1.526 . S
C271 H255 0.959 . S
C271 H256 0.959 . S
C271 H257 0.961 1_545 S
C271 C270 1.502 1_545 S
C272 H258 0.960 . S
C272 H259 0.961 . S
C272 H260 0.959 . S
C272 C270 1.561 . S
C273 C270 1.526 . S
C273 C274 1.396 1_455 S
C273 C278 1.390 1_565 S
C274 C268 1.465 . S
C274 C273 1.396 1_655 S
C274 C275 1.399 . S
C275 H261 0.929 . S
C275 C274 1.399 . S
C275 C276 1.385 1_565 S
C276 H262 0.931 . S
C276 C275 1.385 1_545 S
C276 C277 1.389 . S
C277 C276 1.389 . S
C277 C278 1.387 1_655 S
C278 H263 0.930 . S
C278 C273 1.390 1_545 S
C278 C277 1.387 1_455 S
H279 C291 0.930 . S
H280 C293 0.930 . S
H281 C294 0.930 1_565 S
H282 C298 0.959 . S
H283 C298 0.959 . S
H284 C298 0.961 . S
H285 C299 0.960 . S
H286 C299 0.961 . S
H287 C299 0.959 . S
H288 C302 0.929 1_565 S
H289 C303 0.931 1_655 S
H290 C305 0.930 . S
C291 H279 0.930 . S
C291 C292 1.399 . S
C291 C296 1.399 . S
C292 C291 1.399 . S
C292 C293 1.376 . S
C293 H280 0.930 . S
C293 C292 1.376 . S
C293 C294 1.388 . S
C294 H281 0.930 1_545 S
C294 C293 1.388 . S
C294 C295 1.390 . S
C295 C294 1.390 . S
C295 C296 1.394 . S
C295 C301 1.465 . S
C296 C291 1.399 . S
C296 C295 1.394 . S
C296 C297 1.516 . S
C297 C296 1.516 . S
C297 C298 1.502 . S
C297 C299 1.561 . S
C297 C300 1.526 . S
C298 H282 0.959 . S
C298 H283 0.959 . S
C298 H284 0.961 . S
C298 C297 1.502 . S
C299 H285 0.960 . S
C299 H286 0.961 . S
C299 H287 0.959 . S
C299 C297 1.561 . S
C300 C297 1.526 . S
C300 C301 1.396 . S
C300 C305 1.390 . S
C301 C295 1.465 . S
C301 C300 1.396 . S
C301 C302 1.399 . S
C302 H288 0.929 1_545 S
C302 C301 1.399 . S
C302 C303 1.385 . S
C303 H289 0.931 1_455 S
C303 C302 1.385 . S
C303 C304 1.389 . S
C304 C303 1.389 . S
C304 C305 1.387 . S
C305 H290 0.930 . S
C305 C300 1.390 . S
C305 C304 1.387 . S
H306 C318 0.930 . S
H307 C320 0.930 . S
H308 C321 0.930 . S
H309 C325 0.959 . S
H310 C325 0.959 . S
H311 C325 0.961 . S
H312 C326 0.960 . S
H313 C326 0.961 . S
H314 C326 0.959 . S
H315 C329 0.929 1_565 S
H316 C330 0.931 . S
H317 C332 0.930 . S
C318 H306 0.930 . S
C318 C319 1.399 . S
C318 C323 1.399 . S
C319 C318 1.399 . S
C319 C320 1.376 . S
C320 H307 0.930 . S
C320 C319 1.376 . S
C320 C321 1.388 . S
C321 H308 0.930 . S
C321 C320 1.388 . S
C321 C322 1.390 . S
C322 C321 1.390 . S
C322 C323 1.394 . S
C322 C328 1.465 . S
C323 C318 1.399 . S
C323 C322 1.394 . S
C323 C324 1.516 . S
C324 C323 1.516 . S
C324 C325 1.502 . S
C324 C326 1.561 . S
C324 C327 1.526 . S
C325 H309 0.959 . S
C325 H310 0.959 . S
C325 H311 0.961 . S
C325 C324 1.502 . S
C326 H312 0.960 . S
C326 H313 0.961 . S
C326 H314 0.959 . S
C326 C324 1.561 . S
C327 C324 1.526 . S
C327 C328 1.396 . S
C327 C332 1.390 1_565 S
C328 C322 1.465 . S
C328 C327 1.396 . S
C328 C329 1.399 1_565 S
C329 H315 0.929 1_545 S
C329 C328 1.399 1_545 S
C329 C330 1.385 . S
C330 H316 0.931 . S
C330 C329 1.385 . S
C330 C331 1.389 . S
C331 C330 1.389 . S
C331 C332 1.387 . S
C332 H317 0.930 . S
C332 C327 1.390 1_545 S
C332 C331 1.387 . S
H333 C345 0.930 . S
H334 C347 0.930 1_556 S
H335 C348 0.930 . S
H336 C352 0.959 . S
H337 C352 0.959 . S
H338 C352 0.961 . S
H339 C353 0.960 . S
H340 C353 0.961 . S
H341 C353 0.959 . S
H342 C356 0.929 . S
H343 C357 0.931 . S
H344 C359 0.930 . S
C345 H333 0.930 . S
C345 C346 1.399 . S
C345 C350 1.399 1_556 S
C346 C345 1.399 . S
C346 C347 1.376 1_556 S
C347 H334 0.930 1_554 S
C347 C346 1.376 1_554 S
C347 C348 1.388 . S
C348 H335 0.930 . S
C348 C347 1.388 . S
C348 C349 1.390 . S
C349 C348 1.390 . S
C349 C350 1.394 . S
C349 C355 1.465 . S
C350 C345 1.399 1_554 S
C350 C349 1.394 . S
C350 C351 1.516 . S
C351 C350 1.516 . S
C351 C352 1.502 . S
C351 C353 1.561 . S
C351 C354 1.526 . S
C352 H336 0.959 . S
C352 H337 0.959 . S
C352 H338 0.961 . S
C352 C351 1.502 . S
C353 H339 0.960 . S
C353 H340 0.961 . S
C353 H341 0.959 . S
C353 C351 1.561 . S
C354 C351 1.526 . S
C354 C355 1.396 . S
C354 C359 1.390 . S
C355 C349 1.465 . S
C355 C354 1.396 . S
C355 C356 1.399 . S
C356 H342 0.929 . S
C356 C355 1.399 . S
C356 C357 1.385 . S
C357 H343 0.931 . S
C357 C356 1.385 . S
C357 C358 1.389 . S
C358 C357 1.389 . S
C358 C359 1.387 . S
C359 H344 0.930 . S
C359 C354 1.390 . S
C359 C358 1.387 . S
H360 C372 0.930 . S
H361 C374 0.930 . S
H362 C375 0.930 . S
H363 C379 0.959 . S
H364 C379 0.959 . S
H365 C379 0.961 . S
H366 C380 0.960 . S
H367 C380 0.961 . S
H368 C380 0.959 . S
H369 C383 0.929 . S
H370 C384 0.931 . S
H371 C386 0.930 . S
C372 H360 0.930 . S
C372 C373 1.399 . S
C372 C377 1.399 . S
C373 C372 1.399 . S
C373 C374 1.376 . S
C374 H361 0.930 . S
C374 C373 1.376 . S
C374 C375 1.388 . S
C375 H362 0.930 . S
C375 C374 1.388 . S
C375 C376 1.390 . S
C376 C375 1.390 . S
C376 C377 1.394 . S
C376 C382 1.465 . S
C377 C372 1.399 . S
C377 C376 1.394 . S
C377 C378 1.516 . S
C378 C377 1.516 . S
C378 C379 1.502 1_655 S
C378 C380 1.561 . S
C378 C381 1.526 . S
C379 H363 0.959 . S
C379 H364 0.959 . S
C379 H365 0.961 . S
C379 C378 1.502 1_455 S
C380 H366 0.960 . S
C380 H367 0.961 . S
C380 H368 0.959 . S
C380 C378 1.561 . S
C381 C378 1.526 . S
C381 C382 1.396 . S
C381 C386 1.390 . S
C382 C376 1.465 . S
C382 C381 1.396 . S
C382 C383 1.399 . S
C383 H369 0.929 . S
C383 C382 1.399 . S
C383 C384 1.385 . S
C384 H370 0.931 . S
C384 C383 1.385 . S
C384 C385 1.389 . S
C385 C384 1.389 . S
C385 C386 1.387 . S
C386 H371 0.930 . S
C386 C381 1.390 . S
C386 C385 1.387 . S
H387 C399 0.930 . S
H388 C401 0.930 . S
H389 C402 0.930 . S
H390 C406 0.959 . S
H391 C406 0.959 . S
H392 C406 0.961 . S
H393 C407 0.960 . S
H394 C407 0.961 . S
H395 C407 0.959 . S
H396 C410 0.929 . S
H397 C411 0.931 . S
H398 C413 0.930 . S
C399 H387 0.930 . S
C399 C400 1.399 . S
C399 C404 1.399 . S
C400 C399 1.399 . S
C400 C401 1.376 . S
C401 H388 0.930 . S
C401 C400 1.376 . S
C401 C402 1.388 . S
C402 H389 0.930 . S
C402 C401 1.388 . S
C402 C403 1.390 . S
C403 C402 1.390 . S
C403 C404 1.394 . S
C403 C409 1.465 . S
C404 C399 1.399 . S
C404 C403 1.394 . S
C404 C405 1.516 . S
C405 C404 1.516 . S
C405 C406 1.502 . S
C405 C407 1.561 . S
C405 C408 1.526 . S
C406 H390 0.959 . S
C406 H391 0.959 . S
C406 H392 0.961 . S
C406 C405 1.502 . S
C407 H393 0.960 . S
C407 H394 0.961 . S
C407 H395 0.959 . S
C407 C405 1.561 . S
C408 C405 1.526 . S
C408 C409 1.396 . S
C408 C413 1.390 . S
C409 C403 1.465 . S
C409 C408 1.396 . S
C409 C410 1.399 . S
C410 H396 0.929 . S
C410 C409 1.399 . S
C410 C411 1.385 . S
C411 H397 0.931 . S
C411 C410 1.385 . S
C411 C412 1.389 . S
C412 C411 1.389 . S
C412 C413 1.387 . S
C413 H398 0.930 . S
C413 C408 1.390 . S
C413 C412 1.387 . S
H414 C426 0.930 . S
H415 C428 0.930 . S
H416 C429 0.930 . S
H417 C433 0.959 . S
H418 C433 0.959 . S
H419 C433 0.961 . S
H420 C434 0.954 1_455 S
H421 C434 0.961 . S
H422 C434 0.959 . S
H423 C437 0.929 . S
H424 C438 0.931 . S
H425 C440 0.930 . S
C426 H414 0.930 . S
C426 C427 1.399 . S
C426 C431 1.399 . S
C427 C426 1.399 . S
C427 C428 1.376 . S
C428 H415 0.930 . S
C428 C427 1.376 . S
C428 C429 1.388 . S
C429 H416 0.930 . S
C429 C428 1.388 . S
C429 C430 1.390 . S
C430 C429 1.390 . S
C430 C431 1.394 . S
C430 C436 1.465 . S
C431 C426 1.399 . S
C431 C430 1.394 . S
C431 C432 1.516 . S
C432 C431 1.516 . S
C432 C433 1.502 . S
C432 C434 1.561 . S
C432 C435 1.526 . S
C433 H417 0.959 . S
C433 H418 0.959 . S
C433 H419 0.961 . S
C433 C432 1.502 . S
C434 H420 0.954 1_655 S
C434 H421 0.961 . S
C434 H422 0.959 . S
C434 C432 1.561 . S
C435 C432 1.526 . S
C435 C436 1.396 . S
C435 C440 1.390 1_556 S
C436 C430 1.465 . S
C436 C435 1.396 . S
C436 C437 1.399 . S
C437 H423 0.929 . S
C437 C436 1.399 . S
C437 C438 1.385 1_556 S
C438 H424 0.931 . S
C438 C437 1.385 1_554 S
C438 C439 1.389 . S
C439 C438 1.389 . S
C439 C440 1.387 . S
C440 H425 0.930 . S
C440 C435 1.390 1_554 S
C440 C439 1.387 . S
H441 C453 0.930 . S
H442 C455 0.930 . S
H443 C456 0.930 . S
H444 C460 0.959 1_565 S
H445 C460 0.959 . S
H446 C460 0.961 . S
H447 C461 0.960 . S
H448 C461 0.961 . S
H449 C461 0.959 . S
H450 C464 0.929 . S
H451 C465 0.931 . S
H452 C467 0.930 . S
C453 H441 0.930 . S
C453 C454 1.399 . S
C453 C458 1.399 . S
C454 C453 1.399 . S
C454 C455 1.376 . S
C455 H442 0.930 . S
C455 C454 1.376 . S
C455 C456 1.388 . S
C456 H443 0.930 . S
C456 C455 1.388 . S
C456 C457 1.390 . S
C457 C456 1.390 . S
C457 C458 1.394 . S
C457 C463 1.465 . S
C458 C453 1.399 . S
C458 C457 1.394 . S
C458 C459 1.516 . S
C459 C458 1.516 . S
C459 C460 1.502 1_565 S
C459 C461 1.561 1_565 S
C459 C462 1.526 . S
C460 H444 0.959 1_545 S
C460 H445 0.959 . S
C460 H446 0.961 . S
C460 C459 1.502 1_545 S
C461 H447 0.960 . S
C461 H448 0.961 . S
C461 H449 0.959 . S
C461 C459 1.561 1_545 S
C462 C459 1.526 . S
C462 C463 1.396 . S
C462 C467 1.390 1_565 S
C463 C457 1.465 . S
C463 C462 1.396 . S
C463 C464 1.399 . S
C464 H450 0.929 . S
C464 C463 1.399 . S
C464 C465 1.385 . S
C465 H451 0.931 . S
C465 C464 1.385 . S
C465 C466 1.389 1_565 S
C466 C465 1.389 1_545 S
C466 C467 1.387 . S
C467 H452 0.930 . S
C467 C462 1.390 1_545 S
C467 C466 1.387 . S
H468 C480 0.930 . S
H469 C482 0.930 . S
H470 C483 0.930 . S
H471 C487 0.959 . S
H472 C487 0.959 1_655 S
H473 C487 0.961 . S
H474 C488 0.960 . S
H475 C488 0.961 . S
H476 C488 0.959 . S
H477 C491 0.929 . S
H478 C492 0.931 . S
H479 C494 0.930 . S
C480 H468 0.930 . S
C480 C481 1.399 . S
C480 C485 1.399 1_455 S
C481 C480 1.399 . S
C481 C482 1.376 . S
C482 H469 0.930 . S
C482 C481 1.376 . S
C482 C483 1.388 . S
C483 H470 0.930 . S
C483 C482 1.388 . S
C483 C484 1.390 . S
C484 C483 1.390 . S
C484 C485 1.394 1_455 S
C484 C490 1.465 1_455 S
C485 C480 1.399 1_655 S
C485 C484 1.394 1_655 S
C485 C486 1.516 . S
C486 C485 1.516 . S
C486 C487 1.502 1_655 S
C486 C488 1.561 . S
C486 C489 1.526 . S
C487 H471 0.959 . S
C487 H472 0.959 1_455 S
C487 H473 0.961 . S
C487 C486 1.502 1_455 S
C488 H474 0.960 . S
C488 H475 0.961 . S
C488 H476 0.959 . S
C488 C486 1.561 . S
C489 C486 1.526 . S
C489 C490 1.396 . S
C489 C494 1.390 . S
C490 C484 1.465 1_655 S
C490 C489 1.396 . S
C490 C491 1.399 . S
C491 H477 0.929 . S
C491 C490 1.399 . S
C491 C492 1.385 . S
C492 H478 0.931 . S
C492 C491 1.385 . S
C492 C493 1.389 . S
C493 C492 1.389 . S
C493 C494 1.387 . S
C494 H479 0.930 . S
C494 C489 1.390 . S
C494 C493 1.387 . S
C265 C63 1.451 1_655 S
C277 C74 1.417 . S
C292 C158 1.465 . S
C304 C147 1.432 1_455 S
C319 C242 1.470 1_455 S
C331 C231 1.401 . S
C346 C226 1.734 . S
C358 C67 1.934 . S
C373 C154 1.197 . S
C385 C56 1.298 . S
C400 C235 1.888 . S
C412 C142 1.795 . S
C427 C224 1.170 . S
C439 C70 1.051 . S
C454 C58 1.777 . S
C466 C151 1.938 . S
C481 C238 1.136 . S
C493 C140 1.292 . S
