# Generated by pormake.
# Topology hjm, (4)-cn, num edge types: 1
# Building blocks:
#     Node 0, Type 0, BuildingBlock: GALJAG_clean_sbu_0, # of connection points: 4
#     Node 1, Type 0, BuildingBlock: GALJAG_clean_sbu_0, # of connection points: 4
#     Node 2, Type 0, BuildingBlock: GALJAG_clean_sbu_0, # of connection points: 4
#     Node 3, Type 0, BuildingBlock: GALJAG_clean_sbu_0, # of connection points: 4
#     Node 4, Type 0, BuildingBlock: GALJAG_clean_sbu_0, # of connection points: 4
#     Node 5, Type 0, BuildingBlock: GALJAG_clean_sbu_0, # of connection points: 4
#     Node 6, Type 0, BuildingBlock: GALJAG_clean_sbu_0, # of connection points: 4
#     Node 7, Type 0, BuildingBlock: GALJAG_clean_sbu_0, # of connection points: 4
#     Edge 8, Type (0, 0), BuildingBlock: EZIPEK_clean_linker_0, # of connection points: 2
#     Edge 9, Type (0, 0), BuildingBlock: EZIPEK_clean_linker_0, # of connection points: 2
#     Edge 10, Type (0, 0), BuildingBlock: EZIPEK_clean_linker_0, # of connection points: 2
#     Edge 11, Type (0, 0), BuildingBlock: EZIPEK_clean_linker_0, # of connection points: 2
#     Edge 12, Type (0, 0), BuildingBlock: EZIPEK_clean_linker_0, # of connection points: 2
#     Edge 13, Type (0, 0), BuildingBlock: EZIPEK_clean_linker_0, # of connection points: 2
#     Edge 14, Type (0, 0), BuildingBlock: EZIPEK_clean_linker_0, # of connection points: 2
#     Edge 15, Type (0, 0), BuildingBlock: EZIPEK_clean_linker_0, # of connection points: 2
#     Edge 16, Type (0, 0), BuildingBlock: EZIPEK_clean_linker_0, # of connection points: 2
#     Edge 17, Type (0, 0), BuildingBlock: EZIPEK_clean_linker_0, # of connection points: 2
#     Edge 18, Type (0, 0), BuildingBlock: EZIPEK_clean_linker_0, # of connection points: 2
#     Edge 19, Type (0, 0), BuildingBlock: EZIPEK_clean_linker_0, # of connection points: 2
#     Edge 20, Type (0, 0), BuildingBlock: EZIPEK_clean_linker_0, # of connection points: 2
#     Edge 21, Type (0, 0), BuildingBlock: EZIPEK_clean_linker_0, # of connection points: 2
#     Edge 22, Type (0, 0), BuildingBlock: EZIPEK_clean_linker_0, # of connection points: 2
#     Edge 23, Type (0, 0), BuildingBlock: EZIPEK_clean_linker_0, # of connection points: 2
# Relax obj value: 0.069
# Max RMSD: 0.136
# Mean RMSD: 0.136
data_MOF--net-hjm--node1-GALJAG_clean_sbu_0--edge1-EZIPEK_clean_linker_0
_symmetry_space_group_name_H-M    P1
_symmetry_Int_Tables_number       1
_symmetry_cell_setting            triclinic
loop_
_symmetry_equiv_pos_as_xyz
'x, y, z'
_cell_length_a     18.710579
_cell_length_b     15.563887
_cell_length_c     18.69991
_cell_angle_alpha  89.981252
_cell_angle_beta   69.073633
_cell_angle_gamma 90.078026
loop_
_atom_site_label
_atom_site_type_symbol
_atom_site_fract_x
_atom_site_fract_y
_atom_site_fract_z
_atom_type_partial_charge
In0 In 0.18248 0.24882 0.3101 0.0
O1 O 0.07718 0.33537 0.34175 0.0
O2 O 0.15755 0.35734 0.39662 0.0
C3 C 0.21267 0.22318 0.15994 0.0
C4 C 0.10074 0.12289 0.40047 0.0
C5 C 0.32705 0.27058 0.30458 0.0
O6 O 0.19115 0.29498 0.1916 0.0
O7 O 0.21546 0.16346 0.20431 0.0
O8 O 0.29235 0.19935 0.31875 0.0
O9 O 0.28898 0.33007 0.28937 0.0
C10 C 0.0945 0.37712 0.39111 0.0
O11 O 0.1597 0.15396 0.40841 0.0
O12 O 0.08406 0.15348 0.34599 0.0
In13 In 0.80411 0.25878 0.19442 0.0
O14 O 0.87407 0.38273 0.1752 0.0
O15 O 0.84705 0.33365 0.08211 0.0
C16 C 0.79793 0.23195 0.34035 0.0
C17 C 0.89501 0.1332 0.11338 0.0
C18 C 0.65437 0.27133 0.21472 0.0
O19 O 0.80414 0.3051 0.30968 0.0
O20 O 0.79354 0.17171 0.29697 0.0
O21 O 0.698 0.21793 0.16941 0.0
O22 O 0.6869 0.32131 0.24638 0.0
C23 C 0.88226 0.38932 0.10558 0.0
O24 O 0.82467 0.13615 0.12329 0.0
O25 O 0.91807 0.19028 0.14794 0.0
In26 In 0.80815 0.74891 0.68211 0.0
O27 O 0.90585 0.65262 0.64989 0.0
O28 O 0.82658 0.64337 0.59232 0.0
C29 C 0.78499 0.75663 0.83241 0.0
C30 C 0.89938 0.87553 0.60236 0.0
C31 C 0.65874 0.75224 0.69871 0.0
O32 O 0.8164 0.69294 0.79136 0.0
O33 O 0.7683 0.81791 0.7969 0.0
O34 O 0.70691 0.80493 0.65685 0.0
O35 O 0.68677 0.69522 0.72894 0.0
C36 C 0.88761 0.61672 0.59861 0.0
O37 O 0.84957 0.84055 0.58128 0.0
O38 O 0.90079 0.85056 0.66592 0.0
In39 In 0.17696 0.75969 0.81686 0.0
O40 O 0.16171 0.868 0.90351 0.0
O41 O 0.07517 0.85128 0.85568 0.0
C42 C 0.3283 0.76015 0.79034 0.0
C43 C 0.0902 0.6312 0.89944 0.0
C44 C 0.19505 0.75335 0.66812 0.0
O45 O 0.29405 0.82254 0.77391 0.0
O46 O 0.28545 0.69869 0.82435 0.0
O47 O 0.16888 0.81907 0.70864 0.0
O48 O 0.2081 0.68977 0.70347 0.0
C49 C 0.09758 0.89139 0.90239 0.0
O50 O 0.08948 0.65225 0.83459 0.0
O51 O 0.13704 0.67217 0.9211 0.0
In52 In 0.68727 0.75719 0.31139 0.0
O53 O 0.59449 0.85943 0.34726 0.0
O54 O 0.66895 0.84955 0.4107 0.0
C55 C 0.70639 0.75826 0.16174 0.0
C56 C 0.59871 0.62916 0.39388 0.0
C57 C 0.83754 0.75775 0.28578 0.0
O58 O 0.68536 0.82409 0.2034 0.0
O59 O 0.71412 0.69121 0.19623 0.0
O60 O 0.79749 0.69037 0.30389 0.0
O61 O 0.80145 0.82543 0.28341 0.0
C62 C 0.61222 0.8859 0.40248 0.0
O63 O 0.655 0.65896 0.40786 0.0
O64 O 0.58857 0.66133 0.33628 0.0
In65 In 0.31207 0.73307 0.18738 0.0
O66 O 0.41774 0.81689 0.16371 0.0
O67 O 0.33969 0.85065 0.10898 0.0
C68 C 0.28397 0.73887 0.33956 0.0
C69 C 0.38286 0.59735 0.10168 0.0
C70 C 0.16608 0.74515 0.19834 0.0
O71 O 0.35072 0.74679 0.29094 0.0
O72 O 0.23278 0.72874 0.31176 0.0
O73 O 0.1948 0.67598 0.21138 0.0
O74 O 0.2124 0.80729 0.17542 0.0
C75 C 0.40282 0.86504 0.11675 0.0
O76 O 0.35156 0.65577 0.07697 0.0
O77 O 0.37476 0.60403 0.17119 0.0
In78 In 0.31605 0.25338 0.6859 0.0
O79 O 0.42737 0.17945 0.65053 0.0
O80 O 0.34698 0.14596 0.59761 0.0
C81 C 0.29698 0.23283 0.83385 0.0
C82 C 0.39758 0.3828 0.60077 0.0
C83 C 0.16568 0.25791 0.70597 0.0
O84 O 0.30928 0.17065 0.78799 0.0
O85 O 0.29656 0.30618 0.80503 0.0
O86 O 0.20706 0.32438 0.6912 0.0
O87 O 0.20107 0.18901 0.706 0.0
C88 C 0.41192 0.13377 0.60234 0.0
O89 O 0.35679 0.33354 0.57763 0.0
O90 O 0.39419 0.37022 0.66871 0.0
In91 In 0.68436 0.23063 0.81944 0.0
O92 O 0.60841 0.11176 0.85566 0.0
O93 O 0.66659 0.15373 0.92821 0.0
C94 C 0.69858 0.22177 0.67054 0.0
C95 C 0.58882 0.35408 0.89861 0.0
C96 C 0.83514 0.24727 0.7939 0.0
O97 O 0.71893 0.16163 0.70436 0.0
O98 O 0.66477 0.2828 0.71345 0.0
O99 O 0.79683 0.30579 0.77758 0.0
O100 O 0.79668 0.18254 0.82658 0.0
C101 C 0.61912 0.10206 0.91829 0.0
O102 O 0.659 0.35448 0.88962 0.0
O103 O 0.56768 0.29364 0.86607 0.0
C104 C 0.07853 0.97682 0.46046 0.0
C105 C 0.05096 0.06046 0.45498 0.0
C106 C 0.92518 0.02328 0.54864 0.0
C107 C 0.95277 0.94022 0.55482 0.0
N108 N 0.05605 0.83837 0.52479 0.0
N109 N 0.95435 0.16979 0.50289 0.0
C110 C 0.0298 0.91725 0.51345 0.0
C111 C 0.97586 0.08556 0.50149 0.0
N112 N 0.14981 0.95322 0.41211 0.0
N113 N 0.85026 0.04247 0.58824 0.0
H114 H 0.98901 0.21687 0.46763 0.0
H115 H 0.90498 0.19533 0.54303 0.0
H116 H 0.81179 0.0002 0.62619 0.0
H117 H 0.82559 0.10001 0.58236 0.0
H118 H 0.16973 0.89038 0.40561 0.0
H119 H 0.18738 0.99527 0.37306 0.0
H120 H 0.11316 0.82052 0.50219 0.0
H121 H 0.02128 0.7916 0.56052 0.0
C122 C 0.01973 0.02668 0.92754 0.0
C123 C 0.04906 0.95603 0.95617 0.0
C124 C 0.98455 0.00796 0.08755 0.0
C125 C 0.94821 0.0725 0.05946 0.0
N126 N 0.92593 0.14068 0.95317 0.0
N127 N 0.0481 0.87032 0.06412 0.0
C128 C 0.96401 0.08089 0.97956 0.0
C129 C 0.02919 0.9446 0.03631 0.0
N130 N 0.04801 0.04457 0.85089 0.0
N131 N 0.97606 0.00659 0.16328 0.0
H132 H 0.07788 0.81997 0.02961 0.0
H133 H 0.02716 0.85508 0.12196 0.0
H134 H 0.93978 0.04813 0.20382 0.0
H135 H 0.00939 0.96845 0.18486 0.0
H136 H 0.03534 0.10061 0.82757 0.0
H137 H 0.09019 0.00758 0.81121 0.0
H138 H 0.9273 0.14182 0.89705 0.0
H139 H 0.88892 0.18605 0.98827 0.0
C140 C 0.52912 0.43259 0.52023 0.0
C141 C 0.44894 0.44714 0.54964 0.0
C142 C 0.46699 0.58295 0.47911 0.0
C143 C 0.54637 0.56466 0.44434 0.0
N144 N 0.6505 0.46424 0.4199 0.0
N145 N 0.33972 0.5296 0.55067 0.0
C146 C 0.57689 0.4874 0.46182 0.0
C147 C 0.41733 0.52006 0.52668 0.0
N148 N 0.5598 0.36661 0.54809 0.0
N149 N 0.43949 0.66217 0.47063 0.0
H150 H 0.30123 0.48849 0.58994 0.0
H151 H 0.31349 0.57516 0.52769 0.0
H152 H 0.47324 0.71078 0.43677 0.0
H153 H 0.38446 0.68266 0.50282 0.0
H154 H 0.61837 0.35881 0.53502 0.0
H155 H 0.5268 0.3229 0.58879 0.0
H156 H 0.6735 0.40443 0.4243 0.0
H157 H 0.68651 0.5014 0.37498 0.0
C158 C 0.49466 0.56332 0.98358 0.0
C159 C 0.43464 0.53396 0.05006 0.0
C160 C 0.47925 0.38667 0.01948 0.0
C161 C 0.5338 0.41543 0.94904 0.0
N162 N 0.58203 0.52855 0.85623 0.0
N163 N 0.36107 0.41616 0.12434 0.0
C164 C 0.53774 0.50303 0.92841 0.0
C165 C 0.42447 0.44516 0.06634 0.0
N166 N 0.51441 0.64816 0.97612 0.0
N167 N 0.48146 0.30425 0.04313 0.0
H168 H 0.31908 0.45708 0.15951 0.0
H169 H 0.34693 0.35126 0.13297 0.0
H170 H 0.51804 0.25824 0.00869 0.0
H171 H 0.45103 0.28395 0.09886 0.0
H172 H 0.55968 0.67306 0.93022 0.0
H173 H 0.4919 0.69142 0.02107 0.0
H174 H 0.58052 0.59066 0.83604 0.0
H175 H 0.61501 0.48579 0.81453 0.0
C176 C 0.90654 0.51227 0.01313 0.0
C177 C 0.93493 0.45203 0.05327 0.0
C178 C 0.06608 0.50033 0.98222 0.0
C179 C 0.03698 0.56692 0.94887 0.0
N180 N 0.9281 0.6471 0.94453 0.0
N181 N 0.04125 0.39744 0.08478 0.0
C182 C 0.95689 0.57538 0.96665 0.0
C183 C 0.01449 0.44876 0.04063 0.0
N184 N 0.83124 0.51053 0.02031 0.0
N185 N 0.14289 0.48357 0.95558 0.0
H186 H 0.00705 0.35483 0.12561 0.0
H187 H 0.09682 0.40184 0.08478 0.0
H188 H 0.18229 0.518 0.91086 0.0
H189 H 0.1666 0.43004 0.97212 0.0
H190 H 0.81022 0.54468 0.98416 0.0
H191 H 0.79059 0.47091 0.05898 0.0
H192 H 0.87 0.66104 0.96413 0.0
H193 H 0.96195 0.69735 0.91348 0.0
C194 C 0.02303 0.51653 0.41499 0.0
C195 C 0.04164 0.43884 0.44384 0.0
C196 C 0.95317 0.47452 0.57285 0.0
C197 C 0.93853 0.55449 0.54496 0.0
N198 N 0.97054 0.65993 0.44365 0.0
N199 N 0.03328 0.34842 0.55183 0.0
C200 C 0.97606 0.57773 0.46703 0.0
C201 C 0.00957 0.41931 0.52329 0.0
N202 N 0.05043 0.53211 0.33794 0.0
N203 N 0.91069 0.44969 0.64589 0.0
H204 H 0.07048 0.30249 0.51784 0.0
H205 H 0.01995 0.3381 0.61009 0.0
H206 H 0.86871 0.48838 0.68396 0.0
H207 H 0.91179 0.3878 0.66639 0.0
H208 H 0.03097 0.58225 0.3129 0.0
H209 H 0.08925 0.49184 0.29825 0.0
H210 H 0.00463 0.68368 0.39033 0.0
H211 H 0.93706 0.70709 0.4798 0.0
C212 C 0.56521 0.95497 0.94781 0.0
C213 C 0.57645 0.03622 0.97565 0.0
C214 C 0.47872 0.00094 0.10105 0.0
C215 C 0.45968 0.92656 0.06809 0.0
N216 N 0.47811 0.83739 0.95747 0.0
N217 N 0.55136 0.13333 0.08298 0.0
C218 C 0.50114 0.90474 0.99077 0.0
C219 C 0.53639 0.05781 0.05399 0.0
N220 N 0.61798 0.92457 0.88146 0.0
N221 N 0.4408 0.01731 0.17714 0.0
H222 H 0.59867 0.17172 0.05551 0.0
H223 H 0.51539 0.1601 0.13392 0.0
H224 H 0.39563 0.9795 0.21186 0.0
H225 H 0.45441 0.0668 0.20714 0.0
H226 H 0.61805 0.86159 0.86266 0.0
H227 H 0.66698 0.95935 0.85023 0.0
H228 H 0.50506 0.82003 0.90053 0.0
H229 H 0.42861 0.802 0.98504 0.0
C230 C 0.51032 0.92259 0.52713 0.0
C231 C 0.56603 0.95036 0.45706 0.0
C232 C 0.52371 0.09952 0.48459 0.0
C233 C 0.46701 0.07146 0.55381 0.0
N234 N 0.41261 0.96228 0.64843 0.0
N235 N 0.63626 0.06366 0.37434 0.0
C236 C 0.46249 0.98468 0.57748 0.0
C237 C 0.57591 0.03856 0.43739 0.0
N238 N 0.50241 0.83676 0.54432 0.0
N239 N 0.5259 0.18398 0.46341 0.0
H240 H 0.67474 0.02032 0.33788 0.0
H241 H 0.65145 0.12737 0.36034 0.0
H242 H 0.48777 0.22979 0.49647 0.0
H243 H 0.56256 0.20891 0.41176 0.0
H244 H 0.45799 0.81019 0.58987 0.0
H245 H 0.53928 0.79024 0.51069 0.0
H246 H 0.40758 0.90074 0.6706 0.0
H247 H 0.37705 0.00622 0.68696 0.0
C248 C 0.21971 0.67469 0.46907 0.0
C249 C 0.26521 0.74148 0.42315 0.0
C250 C 0.26694 0.8151 0.53803 0.0
C251 C 0.21557 0.75246 0.5841 0.0
N252 N 0.13011 0.63322 0.59365 0.0
N253 N 0.31929 0.88396 0.41401 0.0
C254 C 0.1882 0.68516 0.54968 0.0
C255 C 0.28551 0.81414 0.45752 0.0
N256 N 0.2091 0.59972 0.43596 0.0
N257 N 0.30099 0.87321 0.57043 0.0
H258 H 0.33308 0.88672 0.35491 0.0
H259 H 0.32672 0.94262 0.43728 0.0
H260 H 0.29123 0.87528 0.62879 0.0
H261 H 0.3443 0.91455 0.53837 0.0
H262 H 0.18272 0.54576 0.46736 0.0
H263 H 0.23367 0.58809 0.37728 0.0
H264 H 0.10241 0.58897 0.57068 0.0
H265 H 0.1042 0.64044 0.65281 0.0
C266 C 0.79318 0.82416 0.9516 0.0
C267 C 0.76504 0.75754 0.91674 0.0
C268 C 0.69179 0.69783 0.04358 0.0
C269 C 0.72473 0.76005 0.07778 0.0
N270 N 0.82012 0.87015 0.06311 0.0
N271 N 0.69738 0.62236 0.92896 0.0
C272 C 0.77856 0.82054 0.03165 0.0
C273 C 0.7176 0.69162 0.9625 0.0
N274 N 0.83564 0.88982 0.9082 0.0
N275 N 0.63299 0.64726 0.08855 0.0
H276 H 0.70721 0.61819 0.87068 0.0
H277 H 0.67417 0.56641 0.95888 0.0
H278 H 0.61006 0.65225 0.14806 0.0
H279 H 0.60196 0.60583 0.06692 0.0
H280 H 0.84883 0.94566 0.93165 0.0
H281 H 0.85461 0.89095 0.8486 0.0
H282 H 0.86621 0.9081 0.03085 0.0
H283 H 0.81409 0.86715 0.12066 0.0
C284 C 0.80442 0.29082 0.46343 0.0
C285 C 0.78699 0.22123 0.42345 0.0
C286 C 0.71143 0.15311 0.5452 0.0
C287 C 0.72353 0.22552 0.58556 0.0
N288 N 0.78139 0.36564 0.58291 0.0
N289 N 0.76344 0.06846 0.43014 0.0
C290 C 0.76975 0.29526 0.54465 0.0
C291 C 0.75158 0.14688 0.46503 0.0
N292 N 0.86122 0.34703 0.42429 0.0
N293 N 0.66123 0.09025 0.58341 0.0
H294 H 0.80189 0.05921 0.37456 0.0
H295 H 0.7443 0.01114 0.45964 0.0
H296 H 0.62932 0.0936 0.64189 0.0
H297 H 0.64607 0.03911 0.5558 0.0
H298 H 0.88177 0.39568 0.44987 0.0
H299 H 0.89538 0.33781 0.36699 0.0
H300 H 0.80266 0.42374 0.55611 0.0
H301 H 0.7668 0.36851 0.64196 0.0
C302 C 0.1755 0.21985 0.04468 0.0
C303 C 0.23298 0.21077 0.0767 0.0
C304 C 0.33112 0.19837 0.94845 0.0
C305 C 0.27477 0.21931 0.91693 0.0
N306 N 0.14305 0.24485 0.93193 0.0
N307 N 0.36053 0.16552 0.06192 0.0
C308 C 0.19667 0.22779 0.96417 0.0
C309 C 0.30943 0.19173 0.02943 0.0
N310 N 0.10045 0.21444 0.09117 0.0
N311 N 0.40576 0.18927 0.90104 0.0
H312 H 0.34818 0.16388 0.12081 0.0
H313 H 0.4139 0.1401 0.03093 0.0
H314 H 0.4232 0.1929 0.84153 0.0
H315 H 0.45129 0.18154 0.91992 0.0
H316 H 0.05608 0.20976 0.07036 0.0
H317 H 0.08295 0.20666 0.15041 0.0
H318 H 0.08707 0.26336 0.96293 0.0
H319 H 0.15536 0.24369 0.873 0.0
C320 C 0.45196 0.35454 0.26472 0.0
C321 C 0.40914 0.27941 0.29665 0.0
C322 C 0.52721 0.19866 0.27293 0.0
C323 C 0.57033 0.27142 0.23565 0.0
N324 N 0.57443 0.41467 0.1855 0.0
N325 N 0.40835 0.14934 0.36683 0.0
C326 C 0.53289 0.34864 0.22914 0.0
C327 C 0.44737 0.20691 0.31135 0.0
N328 N 0.4165 0.43267 0.2749 0.0
N329 N 0.56146 0.12057 0.2697 0.0
H330 H 0.35261 0.16068 0.40428 0.0
H331 H 0.43419 0.09767 0.38341 0.0
H332 H 0.61957 0.1098 0.24141 0.0
H333 H 0.53086 0.06402 0.28934 0.0
H334 H 0.44544 0.49058 0.25762 0.0
H335 H 0.35992 0.44138 0.31102 0.0
H336 H 0.54977 0.46863 0.17087 0.0
H337 H 0.63361 0.41159 0.1573 0.0
C338 C 0.53389 0.83389 0.74386 0.0
C339 C 0.57518 0.75729 0.71374 0.0
C340 C 0.45447 0.68578 0.72464 0.0
C341 C 0.41307 0.75752 0.76605 0.0
N342 N 0.4136 0.89453 0.8262 0.0
N343 N 0.57484 0.60911 0.6753 0.0
C344 C 0.45286 0.83028 0.77836 0.0
C345 C 0.53532 0.68264 0.70472 0.0
N346 N 0.57113 0.91025 0.74059 0.0
N347 N 0.41753 0.62336 0.69958 0.0
H348 H 0.63436 0.60675 0.65076 0.0
H349 H 0.54866 0.5495 0.67781 0.0
H350 H 0.35938 0.62534 0.70827 0.0
H351 H 0.44575 0.5737 0.66337 0.0
H352 H 0.54278 0.96905 0.75277 0.0
H353 H 0.63027 0.91697 0.72056 0.0
H354 H 0.44026 0.94521 0.84326 0.0
H355 H 0.35467 0.89259 0.85582 0.0
C356 C 0.04514 0.69455 0.18384 0.0
C357 C 0.08273 0.7536 0.21626 0.0
C358 C 0.95856 0.81178 0.29841 0.0
C359 C 0.92166 0.75632 0.26246 0.0
N360 N 0.93047 0.66007 0.15855 0.0
N361 N 0.07586 0.87855 0.29582 0.0
C362 C 0.96493 0.70124 0.20222 0.0
C363 C 0.03977 0.81576 0.27042 0.0
N364 N 0.08604 0.6325 0.13456 0.0
N365 N 0.91623 0.85667 0.36242 0.0
H366 H 0.13456 0.8804 0.28364 0.0
H367 H 0.04755 0.93284 0.32481 0.0
H368 H 0.85666 0.85382 0.38602 0.0
H369 H 0.94019 0.89034 0.39649 0.0
H370 H 0.06031 0.57933 0.12016 0.0
H371 H 0.14566 0.63128 0.11142 0.0
H372 H 0.961 0.62743 0.10854 0.0
H373 H 0.87249 0.66587 0.16722 0.0
C374 C 0.04688 0.19759 0.69263 0.0
C375 C 0.08135 0.25989 0.72526 0.0
C376 C 0.95425 0.31959 0.79765 0.0
C377 C 0.9197 0.25142 0.77123 0.0
N378 N 0.93359 0.11719 0.70222 0.0
N379 N 0.06618 0.37018 0.82083 0.0
C380 C 0.9661 0.18766 0.72179 0.0
C381 C 0.03479 0.31889 0.78045 0.0
N382 N 0.09093 0.15118 0.63042 0.0
N383 N 0.91025 0.38452 0.84036 0.0
H384 H 0.12417 0.37108 0.81272 0.0
H385 H 0.03337 0.40584 0.86815 0.0
H386 H 0.85063 0.38386 0.86079 0.0
H387 H 0.93321 0.44176 0.85156 0.0
H388 H 0.0682 0.1103 0.59994 0.0
H389 H 0.14975 0.16042 0.60388 0.0
H390 H 0.96506 0.06258 0.67797 0.0
H391 H 0.87505 0.11023 0.7147 0.0
loop_
_geom_bond_atom_site_label_1
_geom_bond_atom_site_label_2
_geom_bond_distance
_geom_bond_site_symmetry_2
_ccdc_geom_bond_type
In0 O1 2.294 . S
In0 O2 2.326 . S
In0 O6 2.266 . S
In0 O7 2.326 . S
In0 O8 2.266 . S
In0 O9 2.326 . S
In0 O11 2.294 . S
In0 O12 2.326 . S
O1 In0 2.294 . S
O1 C10 1.240 . S
O2 In0 2.326 . S
O2 C10 1.252 . S
C3 O6 1.252 . S
C3 O7 1.260 . S
C4 O11 1.240 . S
C4 O12 1.252 . S
C5 O8 1.252 . S
C5 O9 1.260 . S
O6 In0 2.266 . S
O6 C3 1.252 . S
O7 In0 2.326 . S
O7 C3 1.260 . S
O8 In0 2.266 . S
O8 C5 1.252 . S
O9 In0 2.326 . S
O9 C5 1.260 . S
C10 O1 1.240 . S
C10 O2 1.252 . S
O11 In0 2.294 . S
O11 C4 1.240 . S
O12 In0 2.326 . S
O12 C4 1.252 . S
In13 O14 2.294 . S
In13 O15 2.326 . S
In13 O19 2.266 . S
In13 O20 2.326 . S
In13 O21 2.266 . S
In13 O22 2.326 . S
In13 O24 2.294 . S
In13 O25 2.326 . S
O14 In13 2.294 . S
O14 C23 1.240 . S
O15 In13 2.326 . S
O15 C23 1.252 . S
C16 O19 1.252 . S
C16 O20 1.260 . S
C17 O24 1.240 . S
C17 O25 1.252 . S
C18 O21 1.252 . S
C18 O22 1.260 . S
O19 In13 2.266 . S
O19 C16 1.252 . S
O20 In13 2.326 . S
O20 C16 1.260 . S
O21 In13 2.266 . S
O21 C18 1.252 . S
O22 In13 2.326 . S
O22 C18 1.260 . S
C23 O14 1.240 . S
C23 O15 1.252 . S
O24 In13 2.294 . S
O24 C17 1.240 . S
O25 In13 2.326 . S
O25 C17 1.252 . S
In26 O27 2.294 . S
In26 O28 2.326 . S
In26 O32 2.266 . S
In26 O33 2.326 . S
In26 O34 2.266 . S
In26 O35 2.326 . S
In26 O37 2.294 . S
In26 O38 2.326 . S
O27 In26 2.294 . S
O27 C36 1.240 . S
O28 In26 2.326 . S
O28 C36 1.252 . S
C29 O32 1.252 . S
C29 O33 1.260 . S
C30 O37 1.240 . S
C30 O38 1.252 . S
C31 O34 1.252 . S
C31 O35 1.260 . S
O32 In26 2.266 . S
O32 C29 1.252 . S
O33 In26 2.326 . S
O33 C29 1.260 . S
O34 In26 2.266 . S
O34 C31 1.252 . S
O35 In26 2.326 . S
O35 C31 1.260 . S
C36 O27 1.240 . S
C36 O28 1.252 . S
O37 In26 2.294 . S
O37 C30 1.240 . S
O38 In26 2.326 . S
O38 C30 1.252 . S
In39 O40 2.294 . S
In39 O41 2.326 . S
In39 O45 2.266 . S
In39 O46 2.326 . S
In39 O47 2.266 . S
In39 O48 2.326 . S
In39 O50 2.294 . S
In39 O51 2.326 . S
O40 In39 2.294 . S
O40 C49 1.240 . S
O41 In39 2.326 . S
O41 C49 1.252 . S
C42 O45 1.252 . S
C42 O46 1.260 . S
C43 O50 1.240 . S
C43 O51 1.252 . S
C44 O47 1.252 . S
C44 O48 1.260 . S
O45 In39 2.266 . S
O45 C42 1.252 . S
O46 In39 2.326 . S
O46 C42 1.260 . S
O47 In39 2.266 . S
O47 C44 1.252 . S
O48 In39 2.326 . S
O48 C44 1.260 . S
C49 O40 1.240 . S
C49 O41 1.252 . S
O50 In39 2.294 . S
O50 C43 1.240 . S
O51 In39 2.326 . S
O51 C43 1.252 . S
In52 O53 2.294 . S
In52 O54 2.326 . S
In52 O58 2.266 . S
In52 O59 2.326 . S
In52 O60 2.266 . S
In52 O61 2.326 . S
In52 O63 2.294 . S
In52 O64 2.326 . S
O53 In52 2.294 . S
O53 C62 1.240 . S
O54 In52 2.326 . S
O54 C62 1.252 . S
C55 O58 1.252 . S
C55 O59 1.260 . S
C56 O63 1.240 . S
C56 O64 1.252 . S
C57 O60 1.252 . S
C57 O61 1.260 . S
O58 In52 2.266 . S
O58 C55 1.252 . S
O59 In52 2.326 . S
O59 C55 1.260 . S
O60 In52 2.266 . S
O60 C57 1.252 . S
O61 In52 2.326 . S
O61 C57 1.260 . S
C62 O53 1.240 . S
C62 O54 1.252 . S
O63 In52 2.294 . S
O63 C56 1.240 . S
O64 In52 2.326 . S
O64 C56 1.252 . S
In65 O66 2.294 . S
In65 O67 2.326 . S
In65 O71 2.266 . S
In65 O72 2.326 . S
In65 O73 2.266 . S
In65 O74 2.326 . S
In65 O76 2.294 . S
In65 O77 2.326 . S
O66 In65 2.294 . S
O66 C75 1.240 . S
O67 In65 2.326 . S
O67 C75 1.252 . S
C68 O71 1.252 . S
C68 O72 1.260 . S
C69 O76 1.240 . S
C69 O77 1.252 . S
C70 O73 1.252 . S
C70 O74 1.260 . S
O71 In65 2.266 . S
O71 C68 1.252 . S
O72 In65 2.326 . S
O72 C68 1.260 . S
O73 In65 2.266 . S
O73 C70 1.252 . S
O74 In65 2.326 . S
O74 C70 1.260 . S
C75 O66 1.240 . S
C75 O67 1.252 . S
O76 In65 2.294 . S
O76 C69 1.240 . S
O77 In65 2.326 . S
O77 C69 1.252 . S
In78 O79 2.294 . S
In78 O80 2.326 . S
In78 O84 2.266 . S
In78 O85 2.326 . S
In78 O86 2.266 . S
In78 O87 2.326 . S
In78 O89 2.294 . S
In78 O90 2.326 . S
O79 In78 2.294 . S
O79 C88 1.240 . S
O80 In78 2.326 . S
O80 C88 1.252 . S
C81 O84 1.252 . S
C81 O85 1.260 . S
C82 O89 1.240 . S
C82 O90 1.252 . S
C83 O86 1.252 . S
C83 O87 1.260 . S
O84 In78 2.266 . S
O84 C81 1.252 . S
O85 In78 2.326 . S
O85 C81 1.260 . S
O86 In78 2.266 . S
O86 C83 1.252 . S
O87 In78 2.326 . S
O87 C83 1.260 . S
C88 O79 1.240 . S
C88 O80 1.252 . S
O89 In78 2.294 . S
O89 C82 1.240 . S
O90 In78 2.326 . S
O90 C82 1.252 . S
In91 O92 2.294 . S
In91 O93 2.326 . S
In91 O97 2.266 . S
In91 O98 2.326 . S
In91 O99 2.266 . S
In91 O100 2.326 . S
In91 O102 2.294 . S
In91 O103 2.326 . S
O92 In91 2.294 . S
O92 C101 1.240 . S
O93 In91 2.326 . S
O93 C101 1.252 . S
C94 O97 1.252 . S
C94 O98 1.260 . S
C95 O102 1.240 . S
C95 O103 1.252 . S
C96 O99 1.252 . S
C96 O100 1.260 . S
O97 In91 2.266 . S
O97 C94 1.252 . S
O98 In91 2.326 . S
O98 C94 1.260 . S
O99 In91 2.266 . S
O99 C96 1.252 . S
O100 In91 2.326 . S
O100 C96 1.260 . S
C101 O92 1.240 . S
C101 O93 1.252 . S
O102 In91 2.294 . S
O102 C95 1.240 . S
O103 In91 2.326 . S
O103 C95 1.252 . S
C104 C105 1.363 1_565 S
C104 C110 1.379 . S
C104 N112 1.356 1_565 S
C105 C104 1.363 1_545 S
C105 C111 1.363 1_455 S
C106 C107 1.363 1_545 S
C106 C111 1.379 . S
C106 N113 1.356 1_545 S
C107 C106 1.363 1_565 S
C107 C110 1.363 1_655 S
N108 C110 1.356 . S
N108 H120 0.984 . S
N108 H121 0.985 . S
N109 C111 1.356 . S
N109 H114 0.984 . S
N109 H115 0.985 . S
C110 C104 1.379 . S
C110 C107 1.363 1_455 S
C110 N108 1.356 . S
C111 C105 1.363 1_655 S
C111 C106 1.379 . S
C111 N109 1.356 . S
N112 C104 1.356 1_545 S
N112 H118 0.984 1_545 S
N112 H119 0.984 . S
N113 C106 1.356 1_565 S
N113 H116 0.984 . S
N113 H117 0.985 1_565 S
H114 N109 0.984 . S
H115 N109 0.985 . S
H116 N113 0.984 . S
H117 N113 0.985 1_545 S
H118 N112 0.984 1_565 S
H119 N112 0.984 . S
H120 N108 0.984 . S
H121 N108 0.985 . S
C122 C123 1.362 1_645 S
C122 C128 1.380 . S
C122 N130 1.356 1_645 S
C123 C122 1.362 1_465 S
C123 C129 1.363 1_556 S
C124 C125 1.362 1_465 S
C124 C129 1.380 . S
C124 N131 1.356 1_465 S
C125 C124 1.362 1_645 S
C125 C128 1.363 1_554 S
N126 C128 1.356 . S
N126 H138 0.984 . S
N126 H139 0.985 1_556 S
N127 C129 1.356 . S
N127 H132 0.984 1_554 S
N127 H133 0.985 . S
C128 C122 1.380 . S
C128 C125 1.363 1_556 S
C128 N126 1.356 . S
C129 C123 1.363 1_554 S
C129 C124 1.380 . S
C129 N127 1.356 . S
N130 C122 1.356 1_465 S
N130 H136 0.984 1_465 S
N130 H137 0.984 . S
N131 C124 1.356 1_645 S
N131 H134 0.984 . S
N131 H135 0.985 1_645 S
H132 N127 0.984 1_556 S
H133 N127 0.985 . S
H134 N131 0.984 . S
H135 N131 0.985 1_465 S
H136 N130 0.984 1_645 S
H137 N130 0.984 . S
H138 N126 0.984 . S
H139 N126 0.985 1_554 S
C140 C141 1.363 . S
C140 C146 1.379 . S
C140 N148 1.356 . S
C141 C140 1.363 . S
C141 C147 1.363 . S
C142 C143 1.363 . S
C142 C147 1.379 . S
C142 N149 1.356 . S
C143 C142 1.363 . S
C143 C146 1.363 . S
N144 C146 1.356 . S
N144 H156 0.984 . S
N144 H157 0.985 . S
N145 C147 1.356 . S
N145 H150 0.984 . S
N145 H151 0.985 . S
C146 C140 1.379 . S
C146 C143 1.363 . S
C146 N144 1.356 . S
C147 C141 1.363 . S
C147 C142 1.379 . S
C147 N145 1.356 . S
N148 C140 1.356 . S
N148 H154 0.984 . S
N148 H155 0.984 . S
N149 C142 1.356 . S
N149 H152 0.984 . S
N149 H153 0.985 . S
H150 N145 0.984 . S
H151 N145 0.985 . S
H152 N149 0.984 . S
H153 N149 0.985 . S
H154 N148 0.984 . S
H155 N148 0.984 . S
H156 N144 0.984 . S
H157 N144 0.985 . S
C158 C159 1.363 1_556 S
C158 C164 1.379 . S
C158 N166 1.356 . S
C159 C158 1.363 1_554 S
C159 C165 1.363 . S
C160 C161 1.363 1_554 S
C160 C165 1.379 . S
C160 N167 1.356 . S
C161 C160 1.363 1_556 S
C161 C164 1.363 . S
N162 C164 1.356 . S
N162 H174 0.984 . S
N162 H175 0.985 . S
N163 C165 1.356 . S
N163 H168 0.984 . S
N163 H169 0.985 . S
C164 C158 1.379 . S
C164 C161 1.363 . S
C164 N162 1.356 . S
C165 C159 1.363 . S
C165 C160 1.379 . S
C165 N163 1.356 . S
N166 C158 1.356 . S
N166 H172 0.984 . S
N166 H173 0.984 1_556 S
N167 C160 1.356 . S
N167 H170 0.984 1_554 S
N167 H171 0.985 . S
H168 N163 0.984 . S
H169 N163 0.985 . S
H170 N167 0.984 1_556 S
H171 N167 0.985 . S
H172 N166 0.984 . S
H173 N166 0.984 1_554 S
H174 N162 0.984 . S
H175 N162 0.985 . S
C176 C177 1.363 1_556 S
C176 C182 1.379 1_655 S
C176 N184 1.356 . S
C177 C176 1.363 1_554 S
C177 C183 1.363 . S
C178 C179 1.363 1_554 S
C178 C183 1.379 1_455 S
C178 N185 1.356 . S
C179 C178 1.363 1_556 S
C179 C182 1.363 . S
N180 C182 1.356 . S
N180 H192 0.984 . S
N180 H193 0.985 . S
N181 C183 1.356 . S
N181 H186 0.984 . S
N181 H187 0.985 . S
C182 C176 1.379 1_455 S
C182 C179 1.363 . S
C182 N180 1.356 . S
C183 C177 1.363 . S
C183 C178 1.379 1_655 S
C183 N181 1.356 . S
N184 C176 1.356 . S
N184 H190 0.984 . S
N184 H191 0.984 . S
N185 C178 1.356 . S
N185 H188 0.984 . S
N185 H189 0.985 . S
H186 N181 0.984 . S
H187 N181 0.985 . S
H188 N185 0.984 . S
H189 N185 0.985 . S
H190 N184 0.984 . S
H191 N184 0.984 . S
H192 N180 0.984 . S
H193 N180 0.985 . S
C194 C195 1.363 . S
C194 C200 1.379 . S
C194 N202 1.356 . S
C195 C194 1.363 . S
C195 C201 1.363 1_455 S
C196 C197 1.363 . S
C196 C201 1.379 . S
C196 N203 1.356 . S
C197 C196 1.363 . S
C197 C200 1.363 1_655 S
N198 C200 1.356 . S
N198 H210 0.984 . S
N198 H211 0.985 1_455 S
N199 C201 1.356 . S
N199 H204 0.984 1_655 S
N199 H205 0.985 . S
C200 C194 1.379 . S
C200 C197 1.363 1_455 S
C200 N198 1.356 . S
C201 C195 1.363 1_655 S
C201 C196 1.379 . S
C201 N199 1.356 . S
N202 C194 1.356 . S
N202 H208 0.984 . S
N202 H209 0.984 . S
N203 C196 1.356 . S
N203 H206 0.984 . S
N203 H207 0.985 . S
H204 N199 0.984 1_455 S
H205 N199 0.985 . S
H206 N203 0.984 . S
H207 N203 0.985 . S
H208 N202 0.984 . S
H209 N202 0.984 . S
H210 N198 0.984 . S
H211 N198 0.985 1_655 S
C212 C213 1.363 1_565 S
C212 C218 1.379 . S
C212 N220 1.356 . S
C213 C212 1.363 1_545 S
C213 C219 1.363 1_556 S
C214 C215 1.363 1_545 S
C214 C219 1.379 . S
C214 N221 1.356 . S
C215 C214 1.363 1_565 S
C215 C218 1.363 1_554 S
N216 C218 1.356 . S
N216 H228 0.984 . S
N216 H229 0.985 1_556 S
N217 C219 1.356 . S
N217 H222 0.984 1_554 S
N217 H223 0.985 . S
C218 C212 1.379 . S
C218 C215 1.363 1_556 S
C218 N216 1.356 . S
C219 C213 1.363 1_554 S
C219 C214 1.379 . S
C219 N217 1.356 . S
N220 C212 1.356 . S
N220 H226 0.984 . S
N220 H227 0.984 1_565 S
N221 C214 1.356 . S
N221 H224 0.984 1_545 S
N221 H225 0.985 . S
H222 N217 0.984 1_556 S
H223 N217 0.985 . S
H224 N221 0.984 1_565 S
H225 N221 0.985 . S
H226 N220 0.984 . S
H227 N220 0.984 1_545 S
H228 N216 0.984 . S
H229 N216 0.985 1_554 S
C230 C231 1.363 . S
C230 C236 1.379 . S
C230 N238 1.356 . S
C231 C230 1.363 . S
C231 C237 1.363 1_565 S
C232 C233 1.363 . S
C232 C237 1.379 . S
C232 N239 1.356 . S
C233 C232 1.363 . S
C233 C236 1.363 1_545 S
N234 C236 1.356 . S
N234 H246 0.984 . S
N234 H247 0.985 1_565 S
N235 C237 1.356 . S
N235 H240 0.984 1_545 S
N235 H241 0.985 . S
C236 C230 1.379 . S
C236 C233 1.363 1_565 S
C236 N234 1.356 . S
C237 C231 1.363 1_545 S
C237 C232 1.379 . S
C237 N235 1.356 . S
N238 C230 1.356 . S
N238 H244 0.984 . S
N238 H245 0.984 . S
N239 C232 1.356 . S
N239 H242 0.984 . S
N239 H243 0.985 . S
H240 N235 0.984 1_565 S
H241 N235 0.985 . S
H242 N239 0.984 . S
H243 N239 0.985 . S
H244 N238 0.984 . S
H245 N238 0.984 . S
H246 N234 0.984 . S
H247 N234 0.985 1_545 S
C248 C249 1.363 . S
C248 C254 1.379 . S
C248 N256 1.356 . S
C249 C248 1.363 . S
C249 C255 1.363 . S
C250 C251 1.363 . S
C250 C255 1.379 . S
C250 N257 1.356 . S
C251 C250 1.363 . S
C251 C254 1.363 . S
N252 C254 1.356 . S
N252 H264 0.984 . S
N252 H265 0.985 . S
N253 C255 1.356 . S
N253 H258 0.984 . S
N253 H259 0.985 . S
C254 C248 1.379 . S
C254 C251 1.363 . S
C254 N252 1.356 . S
C255 C249 1.363 . S
C255 C250 1.379 . S
C255 N253 1.356 . S
N256 C248 1.356 . S
N256 H262 0.984 . S
N256 H263 0.984 . S
N257 C250 1.356 . S
N257 H260 0.984 . S
N257 H261 0.985 . S
H258 N253 0.984 . S
H259 N253 0.985 . S
H260 N257 0.984 . S
H261 N257 0.985 . S
H262 N256 0.984 . S
H263 N256 0.984 . S
H264 N252 0.984 . S
H265 N252 0.985 . S
C266 C267 1.363 . S
C266 C272 1.379 1_556 S
C266 N274 1.356 . S
C267 C266 1.363 . S
C267 C273 1.363 . S
C268 C269 1.363 . S
C268 C273 1.379 1_554 S
C268 N275 1.356 . S
C269 C268 1.363 . S
C269 C272 1.363 . S
N270 C272 1.356 . S
N270 H282 0.984 . S
N270 H283 0.985 . S
N271 C273 1.356 . S
N271 H276 0.984 . S
N271 H277 0.985 . S
C272 C266 1.379 1_554 S
C272 C269 1.363 . S
C272 N270 1.356 . S
C273 C267 1.363 . S
C273 C268 1.379 1_556 S
C273 N271 1.356 . S
N274 C266 1.356 . S
N274 H280 0.984 . S
N274 H281 0.984 . S
N275 C268 1.356 . S
N275 H278 0.984 . S
N275 H279 0.985 . S
H276 N271 0.984 . S
H277 N271 0.985 . S
H278 N275 0.984 . S
H279 N275 0.985 . S
H280 N274 0.984 . S
H281 N274 0.984 . S
H282 N270 0.984 . S
H283 N270 0.985 . S
C284 C285 1.363 . S
C284 C290 1.379 . S
C284 N292 1.356 . S
C285 C284 1.363 . S
C285 C291 1.363 . S
C286 C287 1.363 . S
C286 C291 1.379 . S
C286 N293 1.356 . S
C287 C286 1.363 . S
C287 C290 1.363 . S
N288 C290 1.356 . S
N288 H300 0.984 . S
N288 H301 0.985 . S
N289 C291 1.356 . S
N289 H294 0.984 . S
N289 H295 0.985 . S
C290 C284 1.379 . S
C290 C287 1.363 . S
C290 N288 1.356 . S
C291 C285 1.363 . S
C291 C286 1.379 . S
C291 N289 1.356 . S
N292 C284 1.356 . S
N292 H298 0.984 . S
N292 H299 0.984 . S
N293 C286 1.356 . S
N293 H296 0.984 . S
N293 H297 0.985 . S
H294 N289 0.984 . S
H295 N289 0.985 . S
H296 N293 0.984 . S
H297 N293 0.985 . S
H298 N292 0.984 . S
H299 N292 0.984 . S
H300 N288 0.984 . S
H301 N288 0.985 . S
C302 C303 1.363 . S
C302 C308 1.379 1_554 S
C302 N310 1.356 . S
C303 C302 1.363 . S
C303 C309 1.363 . S
C304 C305 1.363 . S
C304 C309 1.379 1_556 S
C304 N311 1.356 . S
C305 C304 1.363 . S
C305 C308 1.363 . S
N306 C308 1.356 . S
N306 H318 0.984 . S
N306 H319 0.985 . S
N307 C309 1.356 . S
N307 H312 0.984 . S
N307 H313 0.985 . S
C308 C302 1.379 1_556 S
C308 C305 1.363 . S
C308 N306 1.356 . S
C309 C303 1.363 . S
C309 C304 1.379 1_554 S
C309 N307 1.356 . S
N310 C302 1.356 . S
N310 H316 0.984 . S
N310 H317 0.984 . S
N311 C304 1.356 . S
N311 H314 0.984 . S
N311 H315 0.985 . S
H312 N307 0.984 . S
H313 N307 0.985 . S
H314 N311 0.984 . S
H315 N311 0.985 . S
H316 N310 0.984 . S
H317 N310 0.984 . S
H318 N306 0.984 . S
H319 N306 0.985 . S
C320 C321 1.363 . S
C320 C326 1.379 . S
C320 N328 1.356 . S
C321 C320 1.363 . S
C321 C327 1.363 . S
C322 C323 1.363 . S
C322 C327 1.379 . S
C322 N329 1.356 . S
C323 C322 1.363 . S
C323 C326 1.363 . S
N324 C326 1.356 . S
N324 H336 0.984 . S
N324 H337 0.985 . S
N325 C327 1.356 . S
N325 H330 0.984 . S
N325 H331 0.985 . S
C326 C320 1.379 . S
C326 C323 1.363 . S
C326 N324 1.356 . S
C327 C321 1.363 . S
C327 C322 1.379 . S
C327 N325 1.356 . S
N328 C320 1.356 . S
N328 H334 0.984 . S
N328 H335 0.984 . S
N329 C322 1.356 . S
N329 H332 0.984 . S
N329 H333 0.985 . S
H330 N325 0.984 . S
H331 N325 0.985 . S
H332 N329 0.984 . S
H333 N329 0.985 . S
H334 N328 0.984 . S
H335 N328 0.984 . S
H336 N324 0.984 . S
H337 N324 0.985 . S
C338 C339 1.363 . S
C338 C344 1.379 . S
C338 N346 1.356 . S
C339 C338 1.363 . S
C339 C345 1.363 . S
C340 C341 1.363 . S
C340 C345 1.379 . S
C340 N347 1.356 . S
C341 C340 1.363 . S
C341 C344 1.363 . S
N342 C344 1.356 . S
N342 H354 0.984 . S
N342 H355 0.985 . S
N343 C345 1.356 . S
N343 H348 0.984 . S
N343 H349 0.985 . S
C344 C338 1.379 . S
C344 C341 1.363 . S
C344 N342 1.356 . S
C345 C339 1.363 . S
C345 C340 1.379 . S
C345 N343 1.356 . S
N346 C338 1.356 . S
N346 H352 0.984 . S
N346 H353 0.984 . S
N347 C340 1.356 . S
N347 H350 0.984 . S
N347 H351 0.985 . S
H348 N343 0.984 . S
H349 N343 0.985 . S
H350 N347 0.984 . S
H351 N347 0.985 . S
H352 N346 0.984 . S
H353 N346 0.984 . S
H354 N342 0.984 . S
H355 N342 0.985 . S
C356 C357 1.363 . S
C356 C362 1.379 1_455 S
C356 N364 1.356 . S
C357 C356 1.363 . S
C357 C363 1.363 . S
C358 C359 1.363 . S
C358 C363 1.379 1_655 S
C358 N365 1.356 . S
C359 C358 1.363 . S
C359 C362 1.363 . S
N360 C362 1.356 . S
N360 H372 0.984 . S
N360 H373 0.985 . S
N361 C363 1.356 . S
N361 H366 0.984 . S
N361 H367 0.985 . S
C362 C356 1.379 1_655 S
C362 C359 1.363 . S
C362 N360 1.356 . S
C363 C357 1.363 . S
C363 C358 1.379 1_455 S
C363 N361 1.356 . S
N364 C356 1.356 . S
N364 H370 0.984 . S
N364 H371 0.984 . S
N365 C358 1.356 . S
N365 H368 0.984 . S
N365 H369 0.985 . S
H366 N361 0.984 . S
H367 N361 0.985 . S
H368 N365 0.984 . S
H369 N365 0.985 . S
H370 N364 0.984 . S
H371 N364 0.984 . S
H372 N360 0.984 . S
H373 N360 0.985 . S
C374 C375 1.363 . S
C374 C380 1.379 1_455 S
C374 N382 1.356 . S
C375 C374 1.363 . S
C375 C381 1.363 . S
C376 C377 1.363 . S
C376 C381 1.379 1_655 S
C376 N383 1.356 . S
C377 C376 1.363 . S
C377 C380 1.363 . S
N378 C380 1.356 . S
N378 H390 0.984 . S
N378 H391 0.985 . S
N379 C381 1.356 . S
N379 H384 0.984 . S
N379 H385 0.985 . S
C380 C374 1.379 1_655 S
C380 C377 1.363 . S
C380 N378 1.356 . S
C381 C375 1.363 . S
C381 C376 1.379 1_455 S
C381 N379 1.356 . S
N382 C374 1.356 . S
N382 H388 0.984 . S
N382 H389 0.984 . S
N383 C376 1.356 . S
N383 H386 0.984 . S
N383 H387 0.985 . S
H384 N379 0.984 . S
H385 N379 0.985 . S
H386 N383 0.984 . S
H387 N383 0.985 . S
H388 N382 0.984 . S
H389 N382 0.984 . S
H390 N378 0.984 . S
H391 N378 0.985 . S
C105 C4 1.779 . S
C107 C30 1.779 . S
C123 C49 1.779 . S
C125 C17 1.779 . S
C141 C82 1.779 . S
C143 C56 1.779 . S
C159 C69 1.779 . S
C161 C95 1.779 . S
C177 C23 1.333 . S
C179 C43 1.333 . S
C195 C10 1.333 . S
C197 C36 1.333 . S
C213 C101 1.333 . S
C215 C75 1.333 . S
C231 C62 1.333 . S
C233 C88 1.333 . S
C249 C68 1.535 . S
C251 C44 1.535 . S
C267 C29 1.535 . S
C269 C55 1.535 . S
C285 C16 1.535 . S
C287 C94 1.535 . S
C303 C3 1.535 . S
C305 C81 1.535 . S
C321 C5 1.551 . S
C323 C18 1.551 . S
C339 C31 1.551 . S
C341 C42 1.551 . S
C357 C70 1.551 . S
C359 C57 1.551 . S
C375 C83 1.551 . S
C377 C96 1.551 . S
