# Generated by pormake.
# Topology yfk, (5)-cn, num edge types: 1
# Building blocks:
#     Node 0, Type 0, BuildingBlock: XOMCOT_clean_sbu_1, # of connection points: 5
#     Node 1, Type 0, BuildingBlock: XOMCOT_clean_sbu_1, # of connection points: 5
#     Node 2, Type 0, BuildingBlock: XOMCOT_clean_sbu_1, # of connection points: 5
#     Node 3, Type 0, BuildingBlock: XOMCOT_clean_sbu_1, # of connection points: 5
#     Node 4, Type 0, BuildingBlock: XOMCOT_clean_sbu_1, # of connection points: 5
#     Node 5, Type 0, BuildingBlock: XOMCOT_clean_sbu_1, # of connection points: 5
#     Node 6, Type 0, BuildingBlock: XOMCOT_clean_sbu_1, # of connection points: 5
#     Node 7, Type 0, BuildingBlock: XOMCOT_clean_sbu_1, # of connection points: 5
#     Node 8, Type 0, BuildingBlock: XOMCOT_clean_sbu_1, # of connection points: 5
#     Node 9, Type 0, BuildingBlock: XOMCOT_clean_sbu_1, # of connection points: 5
#     Node 10, Type 0, BuildingBlock: XOMCOT_clean_sbu_1, # of connection points: 5
#     Node 11, Type 0, BuildingBlock: XOMCOT_clean_sbu_1, # of connection points: 5
#     Node 12, Type 0, BuildingBlock: XOMCOT_clean_sbu_1, # of connection points: 5
#     Node 13, Type 0, BuildingBlock: XOMCOT_clean_sbu_1, # of connection points: 5
#     Node 14, Type 0, BuildingBlock: XOMCOT_clean_sbu_1, # of connection points: 5
#     Node 15, Type 0, BuildingBlock: XOMCOT_clean_sbu_1, # of connection points: 5
#     Edge 16, Type (0, 0), BuildingBlock: ZUJKAS_clean_linker_0, # of connection points: 2
#     Edge 17, Type (0, 0), BuildingBlock: ZUJKAS_clean_linker_0, # of connection points: 2
#     Edge 18, Type (0, 0), BuildingBlock: ZUJKAS_clean_linker_0, # of connection points: 2
#     Edge 19, Type (0, 0), BuildingBlock: ZUJKAS_clean_linker_0, # of connection points: 2
#     Edge 20, Type (0, 0), BuildingBlock: ZUJKAS_clean_linker_0, # of connection points: 2
#     Edge 21, Type (0, 0), BuildingBlock: ZUJKAS_clean_linker_0, # of connection points: 2
#     Edge 22, Type (0, 0), BuildingBlock: ZUJKAS_clean_linker_0, # of connection points: 2
#     Edge 23, Type (0, 0), BuildingBlock: ZUJKAS_clean_linker_0, # of connection points: 2
#     Edge 24, Type (0, 0), BuildingBlock: ZUJKAS_clean_linker_0, # of connection points: 2
#     Edge 25, Type (0, 0), BuildingBlock: ZUJKAS_clean_linker_0, # of connection points: 2
#     Edge 26, Type (0, 0), BuildingBlock: ZUJKAS_clean_linker_0, # of connection points: 2
#     Edge 27, Type (0, 0), BuildingBlock: ZUJKAS_clean_linker_0, # of connection points: 2
#     Edge 28, Type (0, 0), BuildingBlock: ZUJKAS_clean_linker_0, # of connection points: 2
#     Edge 29, Type (0, 0), BuildingBlock: ZUJKAS_clean_linker_0, # of connection points: 2
#     Edge 30, Type (0, 0), BuildingBlock: ZUJKAS_clean_linker_0, # of connection points: 2
#     Edge 31, Type (0, 0), BuildingBlock: ZUJKAS_clean_linker_0, # of connection points: 2
#     Edge 32, Type (0, 0), BuildingBlock: ZUJKAS_clean_linker_0, # of connection points: 2
#     Edge 33, Type (0, 0), BuildingBlock: ZUJKAS_clean_linker_0, # of connection points: 2
#     Edge 34, Type (0, 0), BuildingBlock: ZUJKAS_clean_linker_0, # of connection points: 2
#     Edge 35, Type (0, 0), BuildingBlock: ZUJKAS_clean_linker_0, # of connection points: 2
#     Edge 36, Type (0, 0), BuildingBlock: ZUJKAS_clean_linker_0, # of connection points: 2
#     Edge 37, Type (0, 0), BuildingBlock: ZUJKAS_clean_linker_0, # of connection points: 2
#     Edge 38, Type (0, 0), BuildingBlock: ZUJKAS_clean_linker_0, # of connection points: 2
#     Edge 39, Type (0, 0), BuildingBlock: ZUJKAS_clean_linker_0, # of connection points: 2
#     Edge 40, Type (0, 0), BuildingBlock: ZUJKAS_clean_linker_0, # of connection points: 2
#     Edge 41, Type (0, 0), BuildingBlock: ZUJKAS_clean_linker_0, # of connection points: 2
#     Edge 42, Type (0, 0), BuildingBlock: ZUJKAS_clean_linker_0, # of connection points: 2
#     Edge 43, Type (0, 0), BuildingBlock: ZUJKAS_clean_linker_0, # of connection points: 2
#     Edge 44, Type (0, 0), BuildingBlock: ZUJKAS_clean_linker_0, # of connection points: 2
#     Edge 45, Type (0, 0), BuildingBlock: ZUJKAS_clean_linker_0, # of connection points: 2
#     Edge 46, Type (0, 0), BuildingBlock: ZUJKAS_clean_linker_0, # of connection points: 2
#     Edge 47, Type (0, 0), BuildingBlock: ZUJKAS_clean_linker_0, # of connection points: 2
#     Edge 48, Type (0, 0), BuildingBlock: ZUJKAS_clean_linker_0, # of connection points: 2
#     Edge 49, Type (0, 0), BuildingBlock: ZUJKAS_clean_linker_0, # of connection points: 2
#     Edge 50, Type (0, 0), BuildingBlock: ZUJKAS_clean_linker_0, # of connection points: 2
#     Edge 51, Type (0, 0), BuildingBlock: ZUJKAS_clean_linker_0, # of connection points: 2
#     Edge 52, Type (0, 0), BuildingBlock: ZUJKAS_clean_linker_0, # of connection points: 2
#     Edge 53, Type (0, 0), BuildingBlock: ZUJKAS_clean_linker_0, # of connection points: 2
#     Edge 54, Type (0, 0), BuildingBlock: ZUJKAS_clean_linker_0, # of connection points: 2
#     Edge 55, Type (0, 0), BuildingBlock: ZUJKAS_clean_linker_0, # of connection points: 2
# Relax obj value: 0.578
# Max RMSD: 0.282
# Mean RMSD: 0.282
data_MOF--net-yfk--node1-XOMCOT_clean_sbu_1--edge1-ZUJKAS_clean_linker_0
_symmetry_space_group_name_H-M    P1
_symmetry_Int_Tables_number       1
_symmetry_cell_setting            triclinic
loop_
_symmetry_equiv_pos_as_xyz
'x, y, z'
_cell_length_a     63.493415
_cell_length_b     63.478354
_cell_length_c     33.425392
_cell_angle_alpha  89.989187
_cell_angle_beta   89.943618
_cell_angle_gamma 90.004093
loop_
_atom_site_label
_atom_site_type_symbol
_atom_site_fract_x
_atom_site_fract_y
_atom_site_fract_z
_atom_type_partial_charge
C0 C 0.12034 0.13119 0.35947 0.0
C1 C 0.12581 0.12058 0.39359 0.0
N2 N 0.13178 0.10093 0.38337 0.0
N3 N 0.12247 0.11826 0.32776 0.0
C4 C 0.12942 0.09989 0.3432 0.0
H5 H 0.11663 0.14779 0.35761 0.0
Co6 Co 0.12305 0.12771 0.2754 0.0
C7 C 0.09078 0.10159 0.2341 0.0
O8 O 0.08418 0.11918 0.21754 0.0
N9 N 0.12536 0.13844 0.22299 0.0
C10 C 0.12745 0.14555 0.15767 0.0
C11 C 0.12344 0.13014 0.18586 0.0
C12 C 0.13242 0.15818 0.21626 0.0
N13 N 0.1332 0.16313 0.1772 0.0
O14 O 0.1496 0.11355 0.2686 0.0
H15 H 0.11957 0.11392 0.17935 0.0
H16 H 0.13724 0.16886 0.23965 0.0
O17 O 0.10706 0.10212 0.25699 0.0
C18 C 0.16533 0.12501 0.27804 0.0
O19 O 0.16199 0.14499 0.28608 0.0
N20 N 0.09729 0.14254 0.28506 0.0
C21 C 0.06172 0.16414 0.31237 0.0
C22 C 0.06231 0.14215 0.31264 0.0
C23 C 0.08041 0.13175 0.30029 0.0
C24 C 0.097 0.1641 0.28534 0.0
C25 C 0.07933 0.17523 0.29876 0.0
H26 H 0.0812 0.11498 0.30544 0.0
H27 H 0.11092 0.17297 0.27851 0.0
H28 H 0.13402 0.08658 0.32496 0.0
H29 H 0.12696 0.12743 0.42315 0.0
H30 H 0.12649 0.14393 0.12548 0.0
H31 H 0.04946 0.13307 0.32527 0.0
H32 H 0.07978 0.19227 0.30023 0.0
C33 C 0.12456 0.90077 0.62221 0.0
C34 C 0.11482 0.89553 0.58705 0.0
N35 N 0.09536 0.88846 0.59568 0.0
N36 N 0.11116 0.89751 0.65295 0.0
C37 C 0.09346 0.88996 0.63584 0.0
H38 H 0.14092 0.90519 0.62533 0.0
Co39 Co 0.11936 0.89662 0.70618 0.0
C40 C 0.09277 0.92914 0.74552 0.0
O41 O 0.11012 0.93555 0.76319 0.0
N42 N 0.1288 0.89394 0.75934 0.0
C43 C 0.13464 0.89149 0.82502 0.0
C44 C 0.11989 0.89607 0.79592 0.0
C45 C 0.14814 0.8862 0.76723 0.0
N46 N 0.1524 0.88523 0.80658 0.0
O47 O 0.10485 0.87007 0.71144 0.0
H48 H 0.10371 0.90047 0.80146 0.0
H49 H 0.15905 0.88117 0.74437 0.0
O50 O 0.09352 0.91281 0.72272 0.0
C51 C 0.1164 0.85441 0.70186 0.0
O52 O 0.1364 0.85787 0.69416 0.0
N53 N 0.13466 0.92235 0.69825 0.0
C54 C 0.1576 0.95704 0.67022 0.0
C55 C 0.13559 0.95678 0.66819 0.0
C56 C 0.12454 0.9392 0.68135 0.0
C57 C 0.15617 0.9225 0.70063 0.0
C58 C 0.16791 0.93975 0.6872 0.0
H59 H 0.10789 0.93859 0.67492 0.0
H60 H 0.16469 0.90873 0.70955 0.0
H61 H 0.08004 0.8843 0.65271 0.0
H62 H 0.12214 0.89523 0.55779 0.0
H63 H 0.13245 0.8925 0.85708 0.0
H64 H 0.127 0.9693 0.65342 0.0
H65 H 0.18495 0.93905 0.68806 0.0
C66 C 0.90887 0.90051 0.35362 0.0
C67 C 0.90366 0.91043 0.38869 0.0
N68 N 0.89778 0.93034 0.38013 0.0
N69 N 0.90666 0.91416 0.32303 0.0
C70 C 0.9001 0.93226 0.34009 0.0
H71 H 0.91217 0.88389 0.35028 0.0
Co72 Co 0.90438 0.90623 0.26986 0.0
C73 C 0.9374 0.93228 0.23032 0.0
O74 O 0.94363 0.91497 0.21223 0.0
N75 N 0.90033 0.89723 0.21672 0.0
C76 C 0.89817 0.89058 0.15132 0.0
C77 C 0.90364 0.90537 0.17983 0.0
C78 C 0.89097 0.87854 0.20947 0.0
N79 N 0.8902 0.87369 0.17035 0.0
O80 O 0.8782 0.92154 0.26705 0.0
H81 H 0.9097 0.92092 0.17359 0.0
H82 H 0.88528 0.86821 0.23279 0.0
O83 O 0.92105 0.9316 0.25306 0.0
C84 C 0.86316 0.91025 0.28057 0.0
O85 O 0.86719 0.89051 0.28958 0.0
N86 N 0.92956 0.88991 0.2755 0.0
C87 C 0.9635 0.86478 0.29958 0.0
C88 C 0.96425 0.88672 0.30372 0.0
C89 C 0.94705 0.89888 0.29235 0.0
C90 C 0.92876 0.86851 0.27104 0.0
C91 C 0.94562 0.85571 0.28231 0.0
H92 H 0.94728 0.91542 0.29987 0.0
H93 H 0.91456 0.86078 0.26194 0.0
H94 H 0.89535 0.94591 0.32297 0.0
H95 H 0.90229 0.90288 0.4176 0.0
H96 H 0.90014 0.89202 0.11926 0.0
H97 H 0.97731 0.89436 0.31868 0.0
H98 H 0.94416 0.83876 0.27966 0.0
C99 C 0.88895 0.11409 0.63244 0.0
C100 C 0.898 0.12048 0.59726 0.0
N101 N 0.91809 0.12594 0.60482 0.0
N102 N 0.90335 0.11515 0.66201 0.0
C103 C 0.92107 0.12223 0.64418 0.0
H104 H 0.87245 0.11055 0.63674 0.0
Co105 Co 0.89611 0.11552 0.71566 0.0
C106 C 0.9226 0.08167 0.75129 0.0
O107 O 0.90537 0.07502 0.76916 0.0
N108 N 0.88757 0.11775 0.76945 0.0
C109 C 0.88183 0.11866 0.83535 0.0
C110 C 0.89628 0.11394 0.80569 0.0
C111 C 0.86879 0.12653 0.77829 0.0
N112 N 0.8646 0.12668 0.81769 0.0
O113 O 0.91147 0.14155 0.72096 0.0
H114 H 0.91208 0.10823 0.8107 0.0
H115 H 0.85807 0.13262 0.75602 0.0
O116 O 0.92177 0.09847 0.72978 0.0
C117 C 0.90033 0.15756 0.71175 0.0
O118 O 0.88014 0.15478 0.70498 0.0
N119 N 0.87993 0.09043 0.70755 0.0
C120 C 0.85543 0.05695 0.67931 0.0
C121 C 0.87738 0.05655 0.67577 0.0
C122 C 0.8892 0.07359 0.68895 0.0
C123 C 0.85848 0.09088 0.71159 0.0
C124 C 0.84596 0.07426 0.69789 0.0
H125 H 0.90573 0.07383 0.68137 0.0
H126 H 0.85058 0.10473 0.7221 0.0
H127 H 0.93513 0.12662 0.66045 0.0
H128 H 0.89005 0.12214 0.5688 0.0
H129 H 0.88384 0.11646 0.86723 0.0
H130 H 0.88527 0.044 0.65971 0.0
H131 H 0.82896 0.07549 0.69972 0.0
C132 C 0.11695 0.40021 0.88271 0.0
C133 C 0.12254 0.40853 0.84642 0.0
N134 N 0.12856 0.42866 0.85209 0.0
N135 N 0.11901 0.41509 0.91122 0.0
C136 C 0.12603 0.43231 0.89166 0.0
H137 H 0.11333 0.38384 0.88837 0.0
Co138 Co 0.12003 0.40909 0.96545 0.0
C139 C 0.08688 0.43686 0.00044 0.0
O140 O 0.08018 0.42027 0.02026 0.0
N141 N 0.12287 0.40179 0.01983 0.0
C142 C 0.12405 0.39729 0.08605 0.0
C143 C 0.1193 0.41121 0.05555 0.0
C144 C 0.13166 0.38317 0.02978 0.0
N145 N 0.13192 0.3797 0.06941 0.0
O146 O 0.14625 0.42436 0.9684 0.0
H147 H 0.11365 0.42711 0.05963 0.0
H148 H 0.13756 0.37198 0.00815 0.0
O149 O 0.10329 0.43515 0.97802 0.0
C150 C 0.16187 0.41277 0.95872 0.0
O151 O 0.15847 0.3926 0.95279 0.0
N152 N 0.09479 0.39287 0.95983 0.0
C153 C 0.06157 0.3675 0.93331 0.0
C154 C 0.06077 0.3894 0.92893 0.0
C155 C 0.07767 0.40168 0.9414 0.0
C156 C 0.09552 0.3715 0.96502 0.0
C157 C 0.07903 0.35856 0.9523 0.0
H158 H 0.07763 0.41809 0.93298 0.0
H159 H 0.10955 0.36392 0.97548 0.0
H160 H 0.13074 0.44665 0.90669 0.0
H161 H 0.12389 0.39982 0.81871 0.0
H162 H 0.12185 0.39984 0.1178 0.0
H163 H 0.04805 0.39689 0.91269 0.0
H164 H 0.08052 0.34163 0.95508 0.0
C165 C 0.39385 0.88118 0.11185 0.0
C166 C 0.40467 0.87381 0.14437 0.0
N167 N 0.42528 0.87388 0.13523 0.0
N168 N 0.4076 0.886 0.08244 0.0
C169 C 0.42676 0.8815 0.09768 0.0
H170 H 0.37693 0.88099 0.1086 0.0
Co171 Co 0.39925 0.88817 0.02997 0.0
C172 C 0.42778 0.9188 0.98898 0.0
O173 O 0.41214 0.9235 0.96488 0.0
N174 N 0.38965 0.88883 0.97648 0.0
C175 C 0.38522 0.88033 0.91218 0.0
C176 C 0.39921 0.88062 0.94382 0.0
C177 C 0.37 0.89341 0.96369 0.0
N178 N 0.36686 0.8885 0.92499 0.0
O179 O 0.41382 0.86222 0.02003 0.0
H180 H 0.41501 0.87426 0.94353 0.0
H181 H 0.35743 0.89868 0.98268 0.0
O182 O 0.42506 0.90468 0.01608 0.0
C183 C 0.40249 0.84576 0.02361 0.0
O184 O 0.38193 0.84801 0.0251 0.0
N185 N 0.38411 0.9129 0.0436 0.0
C186 C 0.3608 0.94469 0.08111 0.0
C187 C 0.382 0.9478 0.07096 0.0
C188 C 0.39346 0.93163 0.05322 0.0
C189 C 0.36351 0.90957 0.05363 0.0
C190 C 0.35146 0.92534 0.0717 0.0
H191 H 0.41018 0.93388 0.05091 0.0
H192 H 0.35667 0.89411 0.04958 0.0
H193 H 0.44115 0.8816 0.08029 0.0
H194 H 0.3979 0.86762 0.17169 0.0
H195 H 0.38805 0.87387 0.8827 0.0
H196 H 0.39025 0.962 0.07973 0.0
H197 H 0.33529 0.92202 0.07994 0.0
C198 C 0.89446 0.63162 0.87652 0.0
C199 C 0.88865 0.62067 0.84298 0.0
N200 N 0.88545 0.6004 0.8533 0.0
N201 N 0.89528 0.61831 0.90791 0.0
C202 C 0.88979 0.59938 0.89284 0.0
H203 H 0.8961 0.64851 0.87827 0.0
Co204 Co 0.89593 0.62638 0.96105 0.0
C205 C 0.92542 0.59687 0.00306 0.0
O206 O 0.92909 0.61156 0.02981 0.0
N207 N 0.8953 0.6354 0.01509 0.0
C208 C 0.88466 0.63942 0.07839 0.0
C209 C 0.88559 0.62579 0.0462 0.0
C210 C 0.90027 0.65466 0.02953 0.0
N211 N 0.89402 0.65756 0.0676 0.0
O212 O 0.86962 0.61187 0.96821 0.0
H213 H 0.87861 0.61026 0.04494 0.0
H214 H 0.90686 0.66722 0.01209 0.0
O215 O 0.91212 0.60046 0.97493 0.0
C216 C 0.85361 0.62377 0.96387 0.0
O217 O 0.85662 0.64424 0.96243 0.0
N218 N 0.92086 0.64173 0.95042 0.0
C219 C 0.95287 0.66591 0.91576 0.0
C220 C 0.9562 0.64468 0.92557 0.0
C221 C 0.93995 0.6328 0.94209 0.0
C222 C 0.91743 0.66241 0.94128 0.0
C223 C 0.9333 0.67491 0.92483 0.0
H224 H 0.94246 0.61611 0.94432 0.0
H225 H 0.90179 0.66895 0.94464 0.0
H226 H 0.8876 0.58552 0.9112 0.0
H227 H 0.88531 0.62755 0.81405 0.0
H228 H 0.87696 0.63654 0.10677 0.0
H229 H 0.97062 0.63668 0.91725 0.0
H230 H 0.92984 0.69112 0.91716 0.0
C231 C 0.62484 0.10349 0.10123 0.0
C232 C 0.61615 0.10862 0.13757 0.0
N233 N 0.59674 0.11645 0.13109 0.0
N234 N 0.61082 0.10766 0.072 0.0
C235 C 0.5938 0.11544 0.09113 0.0
H236 H 0.64096 0.09866 0.0962 0.0
Co237 Co 0.61747 0.10996 0.01811 0.0
C238 C 0.58799 0.07966 0.97973 0.0
O239 O 0.6041 0.07272 0.95879 0.0
N240 N 0.6254 0.11413 0.96452 0.0
C241 C 0.6309 0.11819 0.89899 0.0
C242 C 0.61649 0.11223 0.92791 0.0
C243 C 0.64428 0.12301 0.95698 0.0
N244 N 0.64833 0.12505 0.91773 0.0
O245 O 0.60397 0.13721 0.01753 0.0
H246 H 0.60054 0.10714 0.92218 0.0
H247 H 0.6553 0.12744 0.98015 0.0
O248 O 0.59059 0.0954 0.00345 0.0
C249 C 0.616 0.15207 0.02927 0.0
O250 O 0.63577 0.14761 0.03714 0.0
N251 N 0.63176 0.08337 0.02075 0.0
C252 C 0.65335 0.04557 0.03493 0.0
C253 C 0.63206 0.04773 0.04521 0.0
C254 C 0.62172 0.0667 0.03843 0.0
C255 C 0.6526 0.08155 0.01091 0.0
C256 C 0.66357 0.06273 0.01715 0.0
H257 H 0.60577 0.06825 0.04932 0.0
H258 H 0.66141 0.09481 0.00022 0.0
H259 H 0.58021 0.12177 0.07574 0.0
H260 H 0.62421 0.10841 0.16608 0.0
H261 H 0.62874 0.11766 0.86689 0.0
H262 H 0.62367 0.03534 0.06078 0.0
H263 H 0.68014 0.06196 0.00954 0.0
C264 C 0.6188 0.62921 0.85792 0.0
C265 C 0.62431 0.61755 0.89074 0.0
N266 N 0.62858 0.59776 0.87868 0.0
N267 N 0.61922 0.61683 0.82517 0.0
C268 C 0.62522 0.59771 0.83873 0.0
H269 H 0.61637 0.64603 0.85781 0.0
Co270 Co 0.61871 0.6266 0.77299 0.0
C271 C 0.58813 0.59981 0.72874 0.0
O272 O 0.5834 0.61656 0.7075 0.0
N273 N 0.61947 0.63725 0.72006 0.0
C274 C 0.62832 0.64175 0.65588 0.0
C275 C 0.62727 0.62755 0.68718 0.0
C276 C 0.61602 0.65724 0.70777 0.0
N277 N 0.62106 0.6604 0.66913 0.0
O278 O 0.64508 0.61245 0.76428 0.0
H279 H 0.63266 0.61139 0.68643 0.0
H280 H 0.61134 0.66994 0.72696 0.0
O281 O 0.60257 0.60117 0.75556 0.0
C282 C 0.66105 0.62437 0.76905 0.0
O283 O 0.65791 0.64478 0.77203 0.0
N284 N 0.59363 0.64152 0.78519 0.0
C285 C 0.56113 0.66459 0.82103 0.0
C286 C 0.55843 0.64327 0.81134 0.0
C287 C 0.57497 0.63193 0.79452 0.0
C288 C 0.59657 0.6622 0.795 0.0
C289 C 0.58043 0.67416 0.81201 0.0
H290 H 0.57314 0.61512 0.7929 0.0
H291 H 0.6121 0.66908 0.79251 0.0
H292 H 0.62835 0.58447 0.81926 0.0
H293 H 0.62667 0.62369 0.9206 0.0
H294 H 0.63448 0.63877 0.62621 0.0
H295 H 0.54432 0.63484 0.82002 0.0
H296 H 0.58349 0.69037 0.82024 0.0
C297 C 0.62013 0.39328 0.12318 0.0
C298 C 0.60911 0.38722 0.08992 0.0
N299 N 0.59009 0.38003 0.10165 0.0
N300 N 0.60801 0.39048 0.15587 0.0
C301 C 0.58975 0.38254 0.14182 0.0
H302 H 0.63643 0.39819 0.12362 0.0
Co303 Co 0.61785 0.39065 0.20803 0.0
C304 C 0.59124 0.42314 0.24833 0.0
O305 O 0.60856 0.43049 0.26473 0.0
N306 N 0.62889 0.38917 0.26037 0.0
C307 C 0.63639 0.38833 0.32561 0.0
C308 C 0.62078 0.3917 0.29754 0.0
C309 C 0.64871 0.38237 0.26713 0.0
N310 N 0.65394 0.38241 0.30611 0.0
O311 O 0.60389 0.36407 0.21645 0.0
H312 H 0.60458 0.39555 0.30419 0.0
H313 H 0.65926 0.37717 0.24383 0.0
O314 O 0.59228 0.40669 0.22591 0.0
C315 C 0.61538 0.34824 0.2077 0.0
O316 O 0.63535 0.35149 0.1995 0.0
N317 N 0.63252 0.41631 0.19677 0.0
C318 C 0.65445 0.45011 0.16264 0.0
C319 C 0.63244 0.45026 0.16478 0.0
C320 C 0.62182 0.43309 0.18094 0.0
C321 C 0.65403 0.41608 0.19507 0.0
C322 C 0.6653 0.4329 0.17864 0.0
H323 H 0.60495 0.43262 0.17727 0.0
H324 H 0.66272 0.40218 0.20259 0.0
H325 H 0.57719 0.37716 0.16114 0.0
H326 H 0.61516 0.38733 0.05968 0.0
H327 H 0.63491 0.38992 0.35774 0.0
H328 H 0.62335 0.46271 0.15089 0.0
H329 H 0.68229 0.43186 0.17631 0.0
C330 C 0.39854 0.40135 0.84747 0.0
C331 C 0.39335 0.41069 0.88304 0.0
N332 N 0.38768 0.43074 0.8756 0.0
N333 N 0.39664 0.41553 0.81762 0.0
C334 C 0.38995 0.43334 0.83569 0.0
H335 H 0.40191 0.3848 0.84337 0.0
Co336 Co 0.39609 0.40841 0.76376 0.0
C337 C 0.43082 0.43391 0.72853 0.0
O338 O 0.4369 0.41649 0.71065 0.0
N339 N 0.39379 0.40016 0.70968 0.0
C340 C 0.39366 0.39511 0.64357 0.0
C341 C 0.3979 0.40928 0.67388 0.0
C342 C 0.38513 0.38147 0.69981 0.0
N343 N 0.38552 0.37766 0.66029 0.0
O344 O 0.37043 0.4244 0.75838 0.0
H345 H 0.4037 0.42512 0.66966 0.0
H346 H 0.37873 0.37051 0.72133 0.0
O347 O 0.41396 0.43362 0.74997 0.0
C348 C 0.35453 0.41303 0.76738 0.0
O349 O 0.35766 0.39287 0.77404 0.0
N350 N 0.42061 0.39136 0.772 0.0
C351 C 0.45185 0.36515 0.80369 0.0
C352 C 0.45393 0.38707 0.80524 0.0
C353 C 0.43795 0.39982 0.79033 0.0
C354 C 0.41872 0.36994 0.76944 0.0
C355 C 0.43421 0.35657 0.78478 0.0
H356 H 0.43875 0.41642 0.79705 0.0
H357 H 0.40435 0.36281 0.75955 0.0
H358 H 0.38542 0.4474 0.81955 0.0
H359 H 0.39207 0.40278 0.91163 0.0
H360 H 0.39642 0.39737 0.61189 0.0
H361 H 0.4668 0.39434 0.82141 0.0
H362 H 0.43169 0.33969 0.78436 0.0
C363 C 0.39294 0.60973 0.1396 0.0
C364 C 0.40296 0.61542 0.10485 0.0
N365 N 0.42279 0.62128 0.11394 0.0
N366 N 0.40647 0.61161 0.17044 0.0
C367 C 0.42457 0.61854 0.15389 0.0
H368 H 0.37637 0.6061 0.14258 0.0
Co369 Co 0.3986 0.61238 0.2238 0.0
C370 C 0.42606 0.57943 0.26054 0.0
O371 O 0.40927 0.57212 0.27894 0.0
N372 N 0.38957 0.61488 0.27727 0.0
C373 C 0.38287 0.61619 0.34282 0.0
C374 C 0.39765 0.61103 0.31402 0.0
C375 C 0.37085 0.62408 0.28498 0.0
N376 N 0.36608 0.62449 0.32412 0.0
O377 O 0.41324 0.63885 0.22888 0.0
H378 H 0.41327 0.6051 0.32001 0.0
H379 H 0.36054 0.63015 0.26203 0.0
O380 O 0.42444 0.59604 0.2387 0.0
C381 C 0.4016 0.65416 0.21777 0.0
O382 O 0.38189 0.65016 0.20859 0.0
N383 N 0.38298 0.58698 0.2161 0.0
C384 C 0.35853 0.55369 0.18694 0.0
C385 C 0.38054 0.55313 0.18419 0.0
C386 C 0.39238 0.57004 0.1981 0.0
C387 C 0.36154 0.58744 0.21981 0.0
C388 C 0.34906 0.57089 0.20589 0.0
H389 H 0.40898 0.5702 0.19114 0.0
H390 H 0.35359 0.6013 0.23016 0.0
H391 H 0.43821 0.62301 0.1713 0.0
H392 H 0.39561 0.61693 0.07579 0.0
H393 H 0.38436 0.61413 0.37484 0.0
H394 H 0.3885 0.54062 0.16813 0.0
H395 H 0.33207 0.57218 0.20762 0.0
C396 C 0.60848 0.93292 0.39182 0.0
C397 C 0.61331 0.93782 0.35286 0.0
N398 N 0.63382 0.93341 0.34665 0.0
N399 N 0.62593 0.92562 0.41018 0.0
C400 C 0.64107 0.926 0.38187 0.0
H401 H 0.59313 0.93423 0.40567 0.0
Co402 Co 0.62824 0.91467 0.46142 0.0
C403 C 0.60917 0.95658 0.47739 0.0
O404 O 0.6256 0.96569 0.46087 0.0
N405 N 0.63058 0.90299 0.51198 0.0
C406 C 0.62777 0.89361 0.57576 0.0
C407 C 0.62621 0.91018 0.54903 0.0
C408 C 0.63496 0.8824 0.51685 0.0
N409 N 0.63332 0.87618 0.55521 0.0
O410 O 0.65288 0.93189 0.47008 0.0
H411 H 0.62132 0.92609 0.55592 0.0
H412 H 0.63803 0.87186 0.49205 0.0
O413 O 0.60891 0.93654 0.48114 0.0
C414 C 0.66999 0.92136 0.46811 0.0
O415 O 0.66879 0.90074 0.4659 0.0
N416 N 0.6057 0.89679 0.4512 0.0
C417 C 0.57335 0.87087 0.42498 0.0
C418 C 0.57027 0.88444 0.45765 0.0
C419 C 0.58681 0.8972 0.47063 0.0
C420 C 0.60952 0.88243 0.42185 0.0
C421 C 0.5935 0.86938 0.40804 0.0
H422 H 0.58431 0.90766 0.49564 0.0
H423 H 0.62487 0.88184 0.40784 0.0
H424 H 0.65695 0.92039 0.3867 0.0
H425 H 0.60258 0.94431 0.33095 0.0
H426 H 0.62453 0.89421 0.60754 0.0
H427 H 0.55504 0.88568 0.4721 0.0
H428 H 0.59659 0.85922 0.38268 0.0
C429 C 0.89601 0.39699 0.61228 0.0
C430 C 0.90695 0.39234 0.64643 0.0
N431 N 0.92646 0.38618 0.63596 0.0
N432 N 0.90863 0.3942 0.58018 0.0
C433 C 0.92713 0.38756 0.59565 0.0
H434 H 0.87946 0.4007 0.61129 0.0
Co435 Co 0.90018 0.39386 0.52686 0.0
C436 C 0.92896 0.42326 0.48301 0.0
O437 O 0.91382 0.42675 0.45711 0.0
N438 N 0.89093 0.39233 0.47292 0.0
C439 C 0.88732 0.38137 0.40972 0.0
C440 C 0.90085 0.38276 0.44199 0.0
C441 C 0.87156 0.39668 0.4583 0.0
N442 N 0.86892 0.39028 0.42027 0.0
O443 O 0.91478 0.36749 0.52072 0.0
H444 H 0.91659 0.37629 0.44338 0.0
H445 H 0.8588 0.40305 0.47549 0.0
O446 O 0.92589 0.41004 0.51154 0.0
C447 C 0.90281 0.35152 0.525 0.0
O448 O 0.88236 0.35464 0.5268 0.0
N449 N 0.88466 0.41886 0.53616 0.0
C450 C 0.86022 0.45091 0.5699 0.0
C451 C 0.88146 0.45433 0.56023 0.0
C452 C 0.89348 0.43804 0.54415 0.0
C453 C 0.86395 0.41539 0.54503 0.0
C454 C 0.85133 0.43129 0.56101 0.0
H455 H 0.91018 0.44057 0.54215 0.0
H456 H 0.85754 0.39966 0.54239 0.0
H457 H 0.94044 0.38275 0.57755 0.0
H458 H 0.90051 0.39195 0.67642 0.0
H459 H 0.89051 0.37378 0.38136 0.0
H460 H 0.88933 0.46884 0.56838 0.0
H461 H 0.83513 0.42778 0.56866 0.0
C462 C 0.40239 0.12619 0.38316 0.0
C463 C 0.39655 0.11497 0.34993 0.0
N464 N 0.3913 0.09528 0.36145 0.0
N465 N 0.40113 0.11363 0.41552 0.0
C466 C 0.39447 0.09487 0.40146 0.0
H467 H 0.40575 0.14289 0.38414 0.0
Co468 Co 0.40083 0.1235 0.46743 0.0
C469 C 0.43226 0.09643 0.50897 0.0
O470 O 0.43971 0.11369 0.52546 0.0
N471 N 0.39876 0.13466 0.51946 0.0
C472 C 0.39657 0.14274 0.58436 0.0
C473 C 0.4009 0.12698 0.55703 0.0
C474 C 0.39134 0.15435 0.52508 0.0
N475 N 0.39045 0.15988 0.56384 0.0
O476 O 0.37381 0.11024 0.47438 0.0
H477 H 0.40496 0.11093 0.5645 0.0
H478 H 0.3865 0.16462 0.50101 0.0
O479 O 0.41596 0.09763 0.48625 0.0
C480 C 0.35851 0.12197 0.46366 0.0
O481 O 0.3625 0.14166 0.4542 0.0
N482 N 0.42709 0.13737 0.4576 0.0
C483 C 0.46335 0.15771 0.42957 0.0
C484 C 0.46163 0.13575 0.42819 0.0
C485 C 0.4433 0.126 0.44132 0.0
C486 C 0.42853 0.15886 0.45889 0.0
C487 C 0.44658 0.16933 0.44541 0.0
H488 H 0.44172 0.10931 0.43595 0.0
H489 H 0.4153 0.16832 0.4675 0.0
H490 H 0.39063 0.08174 0.42073 0.0
H491 H 0.39472 0.12141 0.32017 0.0
H492 H 0.39749 0.14162 0.61662 0.0
H493 H 0.47372 0.12619 0.41424 0.0
H494 H 0.447 0.18639 0.44563 0.0
C495 C 0.12238 0.61726 0.59547 0.0
C496 C 0.11274 0.62347 0.63024 0.0
N497 N 0.0926 0.6286 0.6219 0.0
N498 N 0.10835 0.61814 0.56532 0.0
C499 C 0.09032 0.62491 0.58229 0.0
H500 H 0.139 0.61406 0.59177 0.0
Co501 Co 0.11587 0.61847 0.51192 0.0
C502 C 0.0883 0.5855 0.47593 0.0
O503 O 0.10516 0.5783 0.45761 0.0
N504 N 0.12468 0.62062 0.45829 0.0
C505 C 0.13114 0.62148 0.39263 0.0
C506 C 0.11632 0.61689 0.42171 0.0
C507 C 0.14361 0.62925 0.45017 0.0
N508 N 0.14825 0.62935 0.41097 0.0
O509 O 0.10137 0.64504 0.50668 0.0
H510 H 0.10053 0.61132 0.41608 0.0
H511 H 0.1542 0.63508 0.47292 0.0
O512 O 0.08981 0.60219 0.4976 0.0
C513 C 0.11302 0.66057 0.51659 0.0
O514 O 0.13296 0.65694 0.52435 0.0
N515 N 0.13121 0.59288 0.51992 0.0
C516 C 0.15466 0.55839 0.5471 0.0
C517 C 0.13276 0.55893 0.55171 0.0
C518 C 0.12146 0.5764 0.53879 0.0
C519 C 0.1526 0.59244 0.51495 0.0
C520 C 0.16457 0.57527 0.52787 0.0
H521 H 0.10498 0.57722 0.54665 0.0
H522 H 0.16095 0.60591 0.50393 0.0
H523 H 0.07637 0.62863 0.56514 0.0
H524 H 0.12059 0.6258 0.65861 0.0
H525 H 0.12948 0.61927 0.36068 0.0
H526 H 0.12451 0.54674 0.56813 0.0
H527 H 0.18155 0.57574 0.52479 0.0
H528 H 0.16476 0.35412 0.05445 0.0
H529 H 0.16813 0.31719 0.07489 0.0
H530 H 0.11073 0.32256 0.1434 0.0
H531 H 0.10794 0.35978 0.12424 0.0
H532 H 0.13774 0.29792 0.18092 0.0
H533 H 0.13329 0.27256 0.02266 0.0
H534 H 0.15541 0.28942 0.03188 0.0
H535 H 0.12906 0.29949 0.03775 0.0
C536 C 0.15318 0.34745 0.07462 0.0
C537 C 0.13609 0.35967 0.08778 0.0
C538 C 0.15493 0.32633 0.08586 0.0
C539 C 0.13928 0.31687 0.10953 0.0
C540 C 0.1229 0.32944 0.12478 0.0
H541 H 0.11091 0.18301 0.11984 0.0
H542 H 0.11314 0.22052 0.1025 0.0
C543 C 0.12137 0.35071 0.11412 0.0
C544 C 0.13952 0.29378 0.1171 0.0
H545 H 0.14114 0.24593 0.07029 0.0
C546 C 0.13846 0.28656 0.15673 0.0
C547 C 0.13994 0.2789 0.08547 0.0
C548 C 0.13925 0.28546 0.04207 0.0
C549 C 0.13806 0.26493 0.16566 0.0
C550 C 0.13956 0.25007 0.13413 0.0
C551 C 0.14036 0.25729 0.09448 0.0
C552 C 0.13956 0.22696 0.14162 0.0
C553 C 0.13533 0.25833 0.20876 0.0
C554 C 0.15422 0.21789 0.16791 0.0
C555 C 0.15275 0.1966 0.17811 0.0
C556 C 0.13699 0.18384 0.16137 0.0
C557 C 0.1233 0.19251 0.13284 0.0
C558 C 0.12451 0.21394 0.12317 0.0
H559 H 0.12804 0.27104 0.22694 0.0
H560 H 0.12537 0.24401 0.21126 0.0
H561 H 0.151 0.25483 0.22184 0.0
H562 H 0.16646 0.2274 0.1814 0.0
H563 H 0.16361 0.19016 0.19987 0.0
H564 H 0.18091 0.8567 0.78109 0.0
H565 H 0.21782 0.85428 0.80159 0.0
H566 H 0.20737 0.90301 0.88937 0.0
H567 H 0.17034 0.90517 0.86929 0.0
H568 H 0.24606 0.88547 0.79419 0.0
H569 H 0.24149 0.86154 0.95325 0.0
H570 H 0.21925 0.85961 0.91986 0.0
H571 H 0.22585 0.88441 0.9428 0.0
C572 C 0.18643 0.86657 0.80532 0.0
C573 C 0.1728 0.88113 0.82362 0.0
C574 C 0.2075 0.8652 0.81697 0.0
C575 C 0.21538 0.87837 0.84716 0.0
C576 C 0.20158 0.89235 0.86662 0.0
H577 H 0.33593 0.91704 0.93512 0.0
H578 H 0.29946 0.91396 0.91254 0.0
C579 C 0.18041 0.89357 0.85519 0.0
C580 C 0.23833 0.87879 0.85572 0.0
H581 H 0.27446 0.87575 0.93109 0.0
C582 C 0.25229 0.88307 0.82405 0.0
C583 C 0.24646 0.87566 0.89466 0.0
C584 C 0.2325 0.86983 0.92949 0.0
C585 C 0.27407 0.88496 0.83052 0.0
C586 C 0.28206 0.88244 0.8696 0.0
C587 C 0.2682 0.87778 0.90114 0.0
C588 C 0.30465 0.88533 0.87893 0.0
C589 C 0.28835 0.8903 0.79588 0.0
C590 C 0.31976 0.87053 0.86657 0.0
C591 C 0.34067 0.87222 0.87959 0.0
C592 C 0.34667 0.88868 0.90533 0.0
C593 C 0.33169 0.90405 0.91576 0.0
C594 C 0.31087 0.90233 0.90288 0.0
H595 H 0.27936 0.89466 0.7686 0.0
H596 H 0.29895 0.90354 0.80398 0.0
H597 H 0.29836 0.87647 0.78877 0.0
H598 H 0.31518 0.85721 0.84829 0.0
H599 H 0.3518 0.86005 0.87142 0.0
H600 H 0.9117 0.85362 0.11188 0.0
H601 H 0.90974 0.8159 0.09621 0.0
H602 H 0.85826 0.80889 0.17932 0.0
H603 H 0.86017 0.84657 0.19504 0.0
H604 H 0.91383 0.78461 0.16521 0.0
H605 H 0.84128 0.77536 0.07329 0.0
H606 H 0.856 0.79973 0.07464 0.0
H607 H 0.84012 0.7922 0.11663 0.0
C608 C 0.89952 0.84416 0.12575 0.0
C609 C 0.88608 0.85298 0.15467 0.0
C610 C 0.89854 0.82262 0.11707 0.0
C611 C 0.88387 0.80967 0.13666 0.0
C612 C 0.86959 0.81866 0.16372 0.0
H613 H 0.86358 0.67353 0.11602 0.0
H614 H 0.8611 0.7101 0.13962 0.0
C615 C 0.87071 0.84014 0.17269 0.0
C616 C 0.8849 0.78652 0.13193 0.0
H617 H 0.85948 0.74438 0.09097 0.0
C618 C 0.90197 0.77577 0.14899 0.0
C619 C 0.86917 0.77509 0.11149 0.0
C620 C 0.85059 0.78607 0.09271 0.0
C621 C 0.90387 0.75381 0.14577 0.0
C622 C 0.88856 0.74237 0.12397 0.0
C623 C 0.8712 0.75313 0.10774 0.0
C624 C 0.89113 0.71962 0.11481 0.0
C625 C 0.92218 0.74308 0.16608 0.0
C626 C 0.909 0.71273 0.09386 0.0
C627 C 0.91052 0.69191 0.08087 0.0
C628 C 0.89408 0.67755 0.08799 0.0
C629 C 0.87659 0.68416 0.11054 0.0
C630 C 0.87508 0.70509 0.12365 0.0
H631 H 0.92778 0.75233 0.19221 0.0
H632 H 0.91793 0.727 0.17636 0.0
H633 H 0.93548 0.74181 0.14464 0.0
H634 H 0.9214 0.72368 0.08593 0.0
H635 H 0.92422 0.68722 0.06372 0.0
H636 H 0.83968 0.15959 0.79972 0.0
H637 H 0.80274 0.16412 0.8191 0.0
H638 H 0.80645 0.10777 0.89103 0.0
H639 H 0.84362 0.10379 0.87277 0.0
H640 H 0.77201 0.13888 0.80051 0.0
H641 H 0.77436 0.14471 0.96543 0.0
H642 H 0.79776 0.14694 0.9351 0.0
H643 H 0.78742 0.1214 0.94812 0.0
C644 C 0.83269 0.14857 0.82059 0.0
C645 C 0.84444 0.13145 0.83505 0.0
C646 C 0.81159 0.15108 0.8315 0.0
C647 C 0.80176 0.13638 0.85678 0.0
C648 C 0.81374 0.11964 0.87236 0.0
H649 H 0.66909 0.10456 0.8591 0.0
H650 H 0.70629 0.10911 0.84139 0.0
C651 C 0.83498 0.11735 0.86195 0.0
C652 C 0.77863 0.13752 0.86373 0.0
H653 H 0.74092 0.136 0.93645 0.0
C654 C 0.76523 0.13852 0.8303 0.0
C655 C 0.76971 0.1373 0.90252 0.0
C656 C 0.78309 0.13776 0.9398 0.0
C657 C 0.74322 0.13883 0.83454 0.0
C658 C 0.73429 0.13741 0.87324 0.0
C659 C 0.7477 0.1369 0.9067 0.0
C660 C 0.71116 0.1361 0.88002 0.0
C661 C 0.72985 0.14096 0.79746 0.0
C662 C 0.70143 0.14969 0.90755 0.0
C663 C 0.68033 0.14683 0.9181 0.0
C664 C 0.66847 0.13047 0.90103 0.0
C665 C 0.67782 0.11755 0.87196 0.0
C666 C 0.69907 0.12018 0.86188 0.0
H667 H 0.73862 0.14895 0.773 0.0
H668 H 0.72544 0.12504 0.78664 0.0
H669 H 0.71522 0.14998 0.80358 0.0
H670 H 0.71036 0.1621 0.92193 0.0
H671 H 0.67342 0.15692 0.9407 0.0
H672 H 0.59333 0.69197 0.68001 0.0
H673 H 0.59689 0.7283 0.65685 0.0
H674 H 0.65278 0.71135 0.59098 0.0
H675 H 0.64945 0.67483 0.61467 0.0
H676 H 0.63555 0.75253 0.67409 0.0
H677 H 0.61557 0.74795 0.51211 0.0
H678 H 0.60656 0.72853 0.54776 0.0
H679 H 0.63354 0.72863 0.53187 0.0
C680 C 0.60625 0.69592 0.66021 0.0
C681 C 0.62124 0.68061 0.64948 0.0
C682 C 0.60823 0.71665 0.64697 0.0
C683 C 0.62511 0.72249 0.62235 0.0
C684 C 0.63953 0.70708 0.60974 0.0
H685 H 0.65876 0.84559 0.52673 0.0
H686 H 0.65826 0.80825 0.54476 0.0
C687 C 0.63757 0.68623 0.62312 0.0
C688 C 0.62836 0.74504 0.6128 0.0
H689 H 0.62569 0.7811 0.5373 0.0
C690 C 0.63346 0.75882 0.64417 0.0
C691 C 0.62575 0.75308 0.57375 0.0
C692 C 0.61994 0.73889 0.5393 0.0
C693 C 0.636 0.7805 0.63756 0.0
C694 C 0.63283 0.7887 0.59866 0.0
C695 C 0.62806 0.77482 0.56714 0.0
C696 C 0.6341 0.81162 0.59 0.0
C697 C 0.64237 0.79435 0.67219 0.0
C698 C 0.62084 0.82601 0.60972 0.0
C699 C 0.62122 0.84741 0.59963 0.0
C700 C 0.63462 0.85474 0.56918 0.0
C701 C 0.64814 0.84036 0.55007 0.0
C702 C 0.64788 0.81903 0.56034 0.0
H703 H 0.65029 0.78513 0.6961 0.0
H704 H 0.65312 0.80713 0.66232 0.0
H705 H 0.62808 0.80165 0.68537 0.0
H706 H 0.60973 0.8206 0.63206 0.0
H707 H 0.61038 0.85804 0.61438 0.0
H708 H 0.85387 0.36 0.37045 0.0
H709 H 0.81766 0.35731 0.34502 0.0
H710 H 0.80259 0.41688 0.40014 0.0
H711 H 0.83869 0.41994 0.42412 0.0
H712 H 0.78261 0.3548 0.39146 0.0
H713 H 0.77564 0.42424 0.29256 0.0
H714 H 0.80078 0.41447 0.30958 0.0
H715 H 0.7852 0.43144 0.3411 0.0
C716 C 0.84298 0.37281 0.37594 0.0
C717 C 0.84908 0.39016 0.39936 0.0
C718 C 0.82227 0.37118 0.36176 0.0
C719 C 0.80742 0.38698 0.3704 0.0
C720 C 0.81379 0.40469 0.39235 0.0
H721 H 0.6726 0.40446 0.36547 0.0
H722 H 0.71017 0.40379 0.38296 0.0
C723 C 0.8344 0.40633 0.40639 0.0
C724 C 0.78486 0.38429 0.35977 0.0
H725 H 0.74309 0.40946 0.3166 0.0
C726 C 0.77404 0.3666 0.37458 0.0
C727 C 0.77363 0.39971 0.33784 0.0
C728 C 0.78448 0.41841 0.31902 0.0
C729 C 0.75221 0.36431 0.3692 0.0
C730 C 0.74096 0.3801 0.34853 0.0
C731 C 0.75178 0.39754 0.33299 0.0
C732 C 0.71796 0.37866 0.34183 0.0
C733 C 0.74115 0.34534 0.38645 0.0
C734 C 0.70993 0.36446 0.3136 0.0
C735 C 0.68858 0.36487 0.30356 0.0
C736 C 0.67487 0.37944 0.32168 0.0
C737 C 0.68275 0.39291 0.35146 0.0
C738 C 0.70419 0.39265 0.3612 0.0
H739 H 0.75156 0.33604 0.40646 0.0
H740 H 0.72698 0.35032 0.40352 0.0
H741 H 0.7358 0.33499 0.36171 0.0
H742 H 0.72034 0.35364 0.29818 0.0
H743 H 0.68287 0.35426 0.28065 0.0
H744 H 0.35939 0.18567 0.53933 0.0
H745 H 0.35546 0.22308 0.55559 0.0
H746 H 0.40863 0.21894 0.63553 0.0
H747 H 0.41197 0.18124 0.62034 0.0
H748 H 0.37952 0.24404 0.66585 0.0
H749 H 0.39311 0.26698 0.50809 0.0
H750 H 0.37061 0.25017 0.51366 0.0
H751 H 0.39646 0.24031 0.52549 0.0
C752 C 0.36998 0.19275 0.56084 0.0
C753 C 0.38604 0.18071 0.57847 0.0
C754 C 0.36789 0.21413 0.56979 0.0
C755 C 0.38219 0.22401 0.59573 0.0
C756 C 0.39753 0.21172 0.6151 0.0
H757 H 0.41051 0.35762 0.60729 0.0
H758 H 0.40868 0.32014 0.58972 0.0
C759 C 0.39938 0.19019 0.60667 0.0
C760 C 0.38152 0.2472 0.60185 0.0
H761 H 0.38242 0.29431 0.55229 0.0
C762 C 0.38018 0.25503 0.64102 0.0
C763 C 0.38285 0.26159 0.56949 0.0
C764 C 0.38607 0.25436 0.52688 0.0
C765 C 0.37992 0.27677 0.64875 0.0
C766 C 0.38021 0.29113 0.61626 0.0
C767 C 0.3818 0.28332 0.57711 0.0
C768 C 0.3798 0.31432 0.62249 0.0
C769 C 0.38002 0.28406 0.69175 0.0
C770 C 0.36364 0.32375 0.64491 0.0
C771 C 0.36483 0.34504 0.65522 0.0
C772 C 0.38188 0.35741 0.64239 0.0
C773 C 0.39711 0.34843 0.61714 0.0
C774 C 0.39612 0.32701 0.60739 0.0
H775 H 0.38604 0.27163 0.71216 0.0
H776 H 0.38987 0.29837 0.69556 0.0
H777 H 0.36368 0.28785 0.7011 0.0
H778 H 0.35051 0.31447 0.65573 0.0
H779 H 0.35286 0.35171 0.67453 0.0
H780 H 0.34205 0.65763 0.30349 0.0
H781 H 0.30485 0.66286 0.32014 0.0
H782 H 0.30645 0.60741 0.39482 0.0
H783 H 0.34386 0.60265 0.37907 0.0
H784 H 0.27423 0.63698 0.30041 0.0
H785 H 0.2735 0.6464 0.46495 0.0
H786 H 0.29743 0.64802 0.43598 0.0
H787 H 0.28675 0.62276 0.44983 0.0
C788 C 0.33453 0.64695 0.32436 0.0
C789 C 0.34577 0.62982 0.34023 0.0
C790 C 0.3133 0.64986 0.3337 0.0
C791 C 0.3028 0.6356 0.3589 0.0
C792 C 0.31425 0.61893 0.37608 0.0
H793 H 0.16946 0.60628 0.35643 0.0
H794 H 0.20702 0.60937 0.34048 0.0
C795 C 0.33563 0.6162 0.36714 0.0
C796 C 0.27959 0.63712 0.3641 0.0
H797 H 0.24048 0.63818 0.43415 0.0
C798 C 0.26687 0.63748 0.32969 0.0
C799 C 0.26993 0.63797 0.40222 0.0
C800 C 0.28263 0.63899 0.44031 0.0
C801 C 0.24481 0.63828 0.33233 0.0
C802 C 0.23513 0.63811 0.37046 0.0
C803 C 0.24786 0.63816 0.40486 0.0
C804 C 0.21187 0.63763 0.37568 0.0
C805 C 0.23216 0.63959 0.29421 0.0
C806 C 0.202 0.65248 0.40053 0.0
C807 C 0.18066 0.65053 0.40998 0.0
C808 C 0.16872 0.63377 0.39458 0.0
C809 C 0.17825 0.61956 0.36798 0.0
C810 C 0.19972 0.62134 0.35893 0.0
H811 H 0.2416 0.64643 0.26939 0.0
H812 H 0.22735 0.62349 0.28508 0.0
H813 H 0.21776 0.64927 0.2983 0.0
H814 H 0.21099 0.6652 0.41376 0.0
H815 H 0.17362 0.66164 0.43061 0.0
H816 H 0.20302 0.14501 0.27686 0.0
H817 H 0.23602 0.13308 0.30661 0.0
H818 H 0.20767 0.0731 0.33436 0.0
H819 H 0.17456 0.08484 0.30317 0.0
H820 H 0.226 0.09657 0.40176 0.0
H821 H 0.2818 0.0886 0.27523 0.0
H822 H 0.26616 0.11217 0.27298 0.0
H823 H 0.25355 0.08689 0.26903 0.0
C824 C 0.20397 0.12904 0.28818 0.0
C825 C 0.18617 0.11588 0.28785 0.0
C826 C 0.22287 0.12222 0.30514 0.0
C827 C 0.22436 0.10218 0.32257 0.0
C828 C 0.2069 0.08859 0.32082 0.0
H829 H 0.3485 0.08238 0.43663 0.0
H830 H 0.31502 0.07165 0.40562 0.0
C831 C 0.18803 0.09528 0.30297 0.0
C832 C 0.24338 0.09681 0.34639 0.0
H833 H 0.29706 0.09573 0.33991 0.0
C834 C 0.24152 0.09583 0.38822 0.0
C835 C 0.26361 0.09565 0.32877 0.0
C836 C 0.26646 0.09567 0.28399 0.0
C837 C 0.25944 0.09547 0.41291 0.0
C838 C 0.2797 0.09615 0.39531 0.0
C839 C 0.28153 0.09535 0.35346 0.0
C840 C 0.29888 0.10082 0.41922 0.0
C841 C 0.25657 0.09529 0.45769 0.0
C842 C 0.30083 0.12059 0.43761 0.0
C843 C 0.31993 0.12681 0.4546 0.0
C844 C 0.33746 0.11332 0.45401 0.0
C845 C 0.33519 0.093 0.43781 0.0
C846 C 0.31611 0.0869 0.41999 0.0
H847 H 0.2411 0.08843 0.46626 0.0
H848 H 0.2693 0.0862 0.47252 0.0
H849 H 0.25712 0.11171 0.46902 0.0
H850 H 0.2879 0.13171 0.43685 0.0
H851 H 0.32125 0.1426 0.46664 0.0
H852 H 0.07587 0.84433 0.67963 0.0
H853 H 0.06419 0.81097 0.64922 0.0
H854 H 0.12528 0.7839 0.67198 0.0
H855 H 0.13714 0.81711 0.70089 0.0
H856 H 0.0868 0.79283 0.57978 0.0
H857 H 0.08228 0.7374 0.70747 0.0
H858 H 0.08009 0.76563 0.71344 0.0
H859 H 0.10553 0.75353 0.70777 0.0
C860 C 0.08662 0.8311 0.67884 0.0
C861 C 0.10749 0.83341 0.69225 0.0
C862 C 0.07995 0.81208 0.66145 0.0
C863 C 0.09384 0.79489 0.65852 0.0
C864 C 0.11421 0.79682 0.67431 0.0
H865 H 0.13334 0.698 0.5135 0.0
H866 H 0.12256 0.73117 0.54417 0.0
C867 C 0.12098 0.81587 0.69078 0.0
C868 C 0.08833 0.77568 0.63531 0.0
H869 H 0.08827 0.72198 0.64248 0.0
C870 C 0.08655 0.77735 0.59355 0.0
C871 C 0.08786 0.7555 0.65322 0.0
C872 C 0.08884 0.75284 0.698 0.0
C873 C 0.08604 0.75931 0.56912 0.0
C874 C 0.08735 0.73912 0.58688 0.0
C875 C 0.08738 0.73745 0.62879 0.0
C876 C 0.09192 0.71994 0.56284 0.0
C877 C 0.08507 0.76198 0.52434 0.0
C878 C 0.07809 0.70263 0.56229 0.0
C879 C 0.08411 0.68365 0.54386 0.0
C880 C 0.10429 0.68153 0.52696 0.0
C881 C 0.11767 0.69916 0.52617 0.0
C882 C 0.11151 0.71816 0.54368 0.0
H883 H 0.07804 0.7774 0.51598 0.0
H884 H 0.10128 0.76139 0.51195 0.0
H885 H 0.07575 0.74915 0.51033 0.0
H886 H 0.06296 0.70361 0.57715 0.0
H887 H 0.07353 0.67031 0.54498 0.0
H888 H 0.85268 0.95178 0.29556 0.0
H889 H 0.82003 0.96462 0.32728 0.0
H890 H 0.79486 0.90153 0.32528 0.0
H891 H 0.82708 0.88876 0.29423 0.0
H892 H 0.76575 0.93234 0.30197 0.0
H893 H 0.80498 0.95222 0.44609 0.0
H894 H 0.81417 0.96533 0.4017 0.0
H895 H 0.81824 0.93751 0.40729 0.0
C896 C 0.84001 0.94078 0.30139 0.0
C897 C 0.84254 0.91923 0.29273 0.0
C898 C 0.82146 0.94808 0.31979 0.0
C899 C 0.8051 0.93396 0.32924 0.0
C900 C 0.80725 0.91271 0.31852 0.0
H901 H 0.70867 0.90647 0.48643 0.0
H902 H 0.74189 0.91614 0.4546 0.0
C903 C 0.82573 0.90543 0.30067 0.0
C904 C 0.78582 0.94059 0.3513 0.0
H905 H 0.76797 0.95285 0.44508 0.0
C906 C 0.76621 0.93732 0.333 0.0
C907 C 0.78645 0.9469 0.39193 0.0
C908 C 0.80705 0.95058 0.41323 0.0
C909 C 0.74731 0.93906 0.35465 0.0
C910 C 0.74794 0.94452 0.3957 0.0
C911 C 0.76749 0.94884 0.41356 0.0
C912 C 0.72892 0.94236 0.42148 0.0
C913 C 0.72688 0.93367 0.33412 0.0
C914 C 0.71075 0.95464 0.41525 0.0
C915 C 0.69163 0.94917 0.43372 0.0
C916 C 0.69047 0.93132 0.45854 0.0
C917 C 0.70909 0.92028 0.4674 0.0
C918 C 0.72811 0.9258 0.4492 0.0
H919 H 0.72928 0.92783 0.30312 0.0
H920 H 0.71818 0.92152 0.35142 0.0
H921 H 0.71693 0.94798 0.33285 0.0
H922 H 0.71107 0.96767 0.39434 0.0
H923 H 0.67751 0.95783 0.42601 0.0
H924 H 0.94189 0.3415 0.55488 0.0
H925 H 0.9524 0.30784 0.58538 0.0
H926 H 0.89305 0.28055 0.55019 0.0
H927 H 0.88241 0.31399 0.52057 0.0
H928 H 0.92966 0.28909 0.64882 0.0
H929 H 0.93548 0.23408 0.52119 0.0
H930 H 0.9368 0.26236 0.51514 0.0
H931 H 0.91171 0.24937 0.51959 0.0
C932 C 0.93133 0.32816 0.55288 0.0
C933 C 0.91127 0.33045 0.53557 0.0
C934 C 0.93733 0.30895 0.57036 0.0
C935 C 0.92359 0.29158 0.56979 0.0
C936 C 0.90408 0.29357 0.55045 0.0
H937 H 0.88223 0.19593 0.71862 0.0
H938 H 0.89371 0.22881 0.68776 0.0
C939 C 0.89797 0.31276 0.53363 0.0
C940 C 0.92819 0.27213 0.59308 0.0
H941 H 0.92724 0.21846 0.58552 0.0
C942 C 0.92965 0.27366 0.63491 0.0
C943 C 0.92849 0.25196 0.57505 0.0
C944 C 0.92826 0.24931 0.53022 0.0
C945 C 0.92967 0.25557 0.65923 0.0
C946 C 0.928 0.23544 0.6413 0.0
C947 C 0.9283 0.23387 0.59938 0.0
C948 C 0.92308 0.21624 0.66512 0.0
C949 C 0.9307 0.25821 0.70402 0.0
C950 C 0.93587 0.19817 0.66319 0.0
C951 C 0.9294 0.17929 0.6814 0.0
C952 C 0.90981 0.17811 0.70097 0.0
C953 C 0.89748 0.19642 0.70407 0.0
C954 C 0.90407 0.21526 0.6865 0.0
H955 H 0.93888 0.27306 0.71228 0.0
H956 H 0.91445 0.25899 0.7162 0.0
H957 H 0.93895 0.24476 0.71833 0.0
H958 H 0.95049 0.1985 0.64648 0.0
H959 H 0.93907 0.16536 0.67795 0.0
H960 H 0.34504 0.45339 0.79217 0.0
H961 H 0.31204 0.46478 0.82455 0.0
H962 H 0.28434 0.40425 0.79907 0.0
H963 H 0.31704 0.39279 0.76769 0.0
H964 H 0.25646 0.44047 0.78794 0.0
H965 H 0.29655 0.43841 0.9363 0.0
H966 H 0.30761 0.4543 0.89695 0.0
H967 H 0.30807 0.42616 0.89271 0.0
C968 C 0.33173 0.44273 0.79281 0.0
C969 C 0.33373 0.4221 0.77794 0.0
C970 C 0.31294 0.44921 0.81146 0.0
C971 C 0.29582 0.43524 0.81473 0.0
C972 C 0.29734 0.41527 0.79706 0.0
H973 H 0.19915 0.39215 0.956 0.0
H974 H 0.23168 0.40361 0.92391 0.0
C975 C 0.31608 0.40874 0.77909 0.0
C976 C 0.27687 0.44019 0.83924 0.0
H977 H 0.25965 0.43963 0.93619 0.0
C978 C 0.25713 0.4409 0.82035 0.0
C979 C 0.2778 0.44058 0.88155 0.0
C980 C 0.29858 0.43974 0.90338 0.0
C981 C 0.2383 0.44079 0.84261 0.0
C982 C 0.23923 0.43991 0.88489 0.0
C983 C 0.25897 0.44042 0.9038 0.0
C984 C 0.22028 0.43477 0.90926 0.0
C985 C 0.21753 0.44021 0.82074 0.0
C986 C 0.20325 0.44879 0.91318 0.0
C987 C 0.18457 0.44232 0.93223 0.0
C988 C 0.18259 0.42163 0.9469 0.0
C989 C 0.20011 0.40815 0.94482 0.0
C990 C 0.21875 0.41467 0.92644 0.0
H991 H 0.21959 0.43904 0.78782 0.0
H992 H 0.20791 0.42665 0.83112 0.0
H993 H 0.2086 0.45481 0.82741 0.0
H994 H 0.20415 0.46445 0.90044 0.0
H995 H 0.17135 0.45307 0.9335 0.0
H996 H 0.43971 0.83894 0.06326 0.0
H997 H 0.45055 0.80635 0.09696 0.0
H998 H 0.39649 0.77433 0.04808 0.0
H999 H 0.3855 0.80678 0.01485 0.0
H1000 H 0.42544 0.78667 0.15462 0.0
H1001 H 0.44349 0.73076 0.03254 0.0
H1002 H 0.44313 0.75897 0.02516 0.0
H1003 H 0.41896 0.74416 0.02466 0.0
C1004 C 0.43053 0.82477 0.05862 0.0
C1005 C 0.41179 0.82539 0.03619 0.0
C1006 C 0.43669 0.80618 0.0781 0.0
C1007 C 0.42449 0.78779 0.07469 0.0
C1008 C 0.40642 0.78815 0.05053 0.0
H1009 H 0.38 0.69085 0.21514 0.0
H1010 H 0.39125 0.72405 0.18548 0.0
C1011 C 0.4001 0.80675 0.03162 0.0
C1012 C 0.42886 0.76898 0.09998 0.0
H1013 H 0.4325 0.71532 0.09554 0.0
C1014 C 0.4275 0.77112 0.14173 0.0
C1015 C 0.43184 0.74869 0.08335 0.0
C1016 C 0.43467 0.7455 0.03897 0.0
C1017 C 0.4273 0.75339 0.16695 0.0
C1018 C 0.42838 0.733 0.15 0.0
C1019 C 0.43149 0.73094 0.10857 0.0
C1020 C 0.42315 0.71382 0.17358 0.0
C1021 C 0.42505 0.75658 0.21144 0.0
C1022 C 0.43746 0.69704 0.17757 0.0
C1023 C 0.4311 0.678 0.19535 0.0
C1024 C 0.41016 0.67528 0.20808 0.0
C1025 C 0.39624 0.69243 0.20559 0.0
C1026 C 0.40267 0.71148 0.18869 0.0
H1027 H 0.43106 0.77228 0.22071 0.0
H1028 H 0.40813 0.75574 0.21964 0.0
H1029 H 0.43359 0.74419 0.22836 0.0
H1030 H 0.45332 0.69847 0.16589 0.0
H1031 H 0.44216 0.66506 0.19699 0.0
H1032 H 0.81567 0.64337 0.96861 0.0
H1033 H 0.78284 0.63294 0.93637 0.0
H1034 H 0.81172 0.57508 0.89686 0.0
H1035 H 0.84474 0.5854 0.9298 0.0
H1036 H 0.79324 0.59885 0.83483 0.0
H1037 H 0.73696 0.58902 0.9597 0.0
H1038 H 0.75168 0.61306 0.96374 0.0
H1039 H 0.76517 0.58817 0.96677 0.0
C1040 C 0.8149 0.62815 0.95405 0.0
C1041 C 0.83282 0.61521 0.95176 0.0
C1042 C 0.79606 0.62216 0.9357 0.0
C1043 C 0.7947 0.60314 0.91444 0.0
C1044 C 0.81233 0.58975 0.91337 0.0
H1045 H 0.6704 0.58549 0.80046 0.0
H1046 H 0.70365 0.57494 0.83232 0.0
C1047 C 0.83117 0.59562 0.93233 0.0
C1048 C 0.77562 0.59872 0.88996 0.0
H1049 H 0.72189 0.598 0.89543 0.0
C1050 C 0.77766 0.59818 0.84811 0.0
C1051 C 0.75527 0.59753 0.90714 0.0
C1052 C 0.75211 0.59675 0.95184 0.0
C1053 C 0.75986 0.59815 0.82308 0.0
C1054 C 0.7395 0.59885 0.84032 0.0
C1055 C 0.73748 0.5977 0.88212 0.0
C1056 C 0.72036 0.60341 0.8161 0.0
C1057 C 0.76302 0.59803 0.77836 0.0
C1058 C 0.71876 0.62273 0.7959 0.0
C1059 C 0.69979 0.62885 0.7782 0.0
C1060 C 0.68197 0.61575 0.78009 0.0
C1061 C 0.68388 0.59585 0.7983 0.0
C1062 C 0.70285 0.58985 0.81663 0.0
H1063 H 0.77826 0.59058 0.77012 0.0
H1064 H 0.75005 0.58953 0.76301 0.0
H1065 H 0.76328 0.61451 0.76729 0.0
H1066 H 0.73188 0.63364 0.79566 0.0
H1067 H 0.69882 0.6443 0.76455 0.0
H1068 H 0.57554 0.16366 0.04954 0.0
H1069 H 0.56461 0.19736 0.07974 0.0
H1070 H 0.62731 0.22184 0.06271 0.0
H1071 H 0.63841 0.18828 0.03407 0.0
H1072 H 0.58782 0.21522 0.15187 0.0
H1073 H 0.5852 0.26922 0.02157 0.0
H1074 H 0.58167 0.24105 0.01703 0.0
H1075 H 0.60764 0.25193 0.02234 0.0
C1076 C 0.58684 0.17638 0.05166 0.0
C1077 C 0.60788 0.17326 0.03982 0.0
C1078 C 0.58059 0.19559 0.06893 0.0
C1079 C 0.59514 0.21213 0.07329 0.0
C1080 C 0.61578 0.20937 0.05933 0.0
H1081 H 0.63451 0.31042 0.21615 0.0
H1082 H 0.62352 0.27678 0.1876 0.0
C1083 C 0.62211 0.19015 0.043 0.0
C1084 C 0.58981 0.23165 0.09563 0.0
H1085 H 0.59055 0.2852 0.08593 0.0
C1086 C 0.58787 0.23053 0.13742 0.0
C1087 C 0.58972 0.25159 0.07677 0.0
C1088 C 0.59098 0.25362 0.03189 0.0
C1089 C 0.58748 0.24888 0.16101 0.0
C1090 C 0.58915 0.26881 0.14231 0.0
C1091 C 0.58939 0.26993 0.10034 0.0
C1092 C 0.59367 0.28832 0.16544 0.0
C1093 C 0.58614 0.24677 0.20586 0.0
C1094 C 0.58037 0.306 0.16319 0.0
C1095 C 0.58652 0.32528 0.18018 0.0
C1096 C 0.60631 0.32727 0.19873 0.0
C1097 C 0.61912 0.30932 0.20232 0.0
C1098 C 0.61283 0.29006 0.18606 0.0
H1099 H 0.57852 0.23171 0.21469 0.0
H1100 H 0.60229 0.2469 0.21854 0.0
H1101 H 0.5772 0.26007 0.21921 0.0
H1102 H 0.56561 0.30508 0.14705 0.0
H1103 H 0.57644 0.33888 0.17645 0.0
H1104 H 0.0539 0.09826 0.19331 0.0
H1105 H 0.02824 0.07004 0.19492 0.0
H1106 H 0.06925 0.03355 0.27089 0.0
H1107 H 0.09495 0.06257 0.27097 0.0
H1108 H 0.02824 0.03207 0.16972 0.0
H1109 H 0.01593 0.02894 0.33376 0.0
H1110 H 0.03103 0.04953 0.31007 0.0
H1111 H 0.04273 0.02416 0.31935 0.0
C1112 C 0.05764 0.08428 0.21046 0.0
C1113 C 0.07659 0.08284 0.2322 0.0
C1114 C 0.04281 0.06804 0.21132 0.0
C1115 C 0.04643 0.04967 0.23364 0.0
C1116 C 0.06569 0.04776 0.25434 0.0
H1117 H 0.97472 0.93567 0.19082 0.0
H1118 H 1.00017 0.9641 0.19281 0.0
C1119 C 0.08055 0.06426 0.25391 0.0
C1120 C 0.03 0.03269 0.23408 0.0
H1121 H 0.99902 1.00238 0.29524 0.0
C1122 C 0.02187 0.02567 0.19729 0.0
C1123 C 0.0212 0.02451 0.26989 0.0
C1124 C 0.02799 0.03231 0.31051 0.0
C1125 C 1.0055 0.01078 0.19522 0.0
C1126 C 0.99738 1.00186 0.23093 0.0
C1127 C 1.00527 1.00902 0.2678 0.0
C1128 C 0.98138 0.98453 0.23036 0.0
C1129 C 0.99676 1.00521 0.15458 0.0
C1130 C 0.96234 0.98601 0.25189 0.0
C1131 C 0.94763 0.96939 0.25136 0.0
C1132 C 0.9517 0.95095 0.22926 0.0
C1133 C 0.97077 0.94964 0.20781 0.0
C1134 C 0.98543 0.96604 0.20871 0.0
H1135 H 0.99912 0.01824 0.13285 0.0
H1136 H 1.00517 0.99119 0.14283 0.0
H1137 H 0.97967 1.00156 0.15612 0.0
H1138 H 0.95885 1.00004 0.26912 0.0
H1139 H 0.93325 0.97087 0.26859 0.0
H1140 H 0.05399 0.92503 0.70772 0.0
H1141 H 0.02493 0.9507 0.70746 0.0
H1142 H 0.06105 0.99179 0.78389 0.0
H1143 H 0.0893 0.96618 0.78579 0.0
H1144 H 0.02306 0.99139 0.80908 0.0
H1145 H 0.01999 1.00424 0.64521 0.0
H1146 H 0.0154 0.97736 0.65931 0.0
H1147 H 0.04067 0.98922 0.66873 0.0
C1148 C 0.05559 0.93945 0.72475 0.0
C1149 C 0.07407 0.94342 0.74675 0.0
C1150 C 0.03907 0.95429 0.72415 0.0
C1151 C 0.04085 0.97355 0.74497 0.0
C1152 C 0.05915 0.97721 0.76742 0.0
H1153 H 0.96114 0.08652 0.71288 0.0
H1154 H 0.99054 0.06115 0.71133 0.0
C1155 C 0.07541 0.96241 0.76845 0.0
C1156 C 0.02377 0.98988 0.74471 0.0
H1157 H 0.9933 0.02089 0.68396 0.0
C1158 C 0.01665 0.99782 0.7816 0.0
C1159 C 0.01556 0.99876 0.70901 0.0
C1160 C 0.02343 0.99214 0.66832 0.0
C1161 C 1.00164 0.01407 0.78389 0.0
C1162 C 0.9927 0.02227 0.74829 0.0
C1163 C 0.99996 0.01458 0.71131 0.0
C1164 C 0.97519 0.03807 0.74916 0.0
C1165 C 0.99592 0.02259 0.82465 0.0
C1166 C 0.9567 0.03361 0.77055 0.0
C1167 C 0.94019 0.04811 0.772 0.0
C1168 C 0.94135 0.06746 0.75141 0.0
C1169 C 0.95977 0.07192 0.72947 0.0
C1170 C 0.97652 0.05735 0.72836 0.0
H1171 H 1.00893 0.02022 0.84642 0.0
H1172 H 0.99217 0.03966 0.8234 0.0
H1173 H 0.98194 0.01403 0.83618 0.0
H1174 H 0.95489 0.01869 0.78589 0.0
H1175 H 0.92625 0.04385 0.78885 0.0
H1176 H 0.0557 0.44672 0.05285 0.0
H1177 H 0.02904 0.47411 0.04712 0.0
H1178 H 0.0588 0.49721 0.93982 0.0
H1179 H 0.08587 0.46952 0.94535 0.0
H1180 H 0.04475 0.52965 -0.00583 0.0
H1181 H 0.98139 0.47195 0.96335 0.0
H1182 H 0.99624 0.46596 0.0076 0.0
H1183 H 1.009 0.46536 0.95955 0.0
C1184 C 0.05679 0.45769 0.02811 0.0
C1185 C 0.07292 0.45576 -0.00062 0.0
C1186 C 0.04138 0.47331 0.02476 0.0
C1187 C 0.04153 0.48744 -0.00749 0.0
C1188 C 0.05821 0.48634 0.96477 0.0
H1189 H 0.93119 0.56838 0.94138 0.0
H1190 H 0.95933 0.54195 0.93517 0.0
C1191 C 0.07375 0.47059 0.96809 0.0
C1192 C 0.02404 0.50303 0.98811 0.0
H1193 H 0.97032 0.50666 0.98172 0.0
C1194 C 0.02851 0.52464 0.99099 0.0
C1195 C 1.00281 0.49658 0.98336 0.0
C1196 C 0.99703 0.47371 0.97788 0.0
C1197 C 0.0123 0.53982 0.99113 0.0
C1198 C 0.99098 0.53326 0.98883 0.0
C1199 C 0.98659 0.51173 0.98401 0.0
C1200 C 0.97309 0.54843 -0.00691 0.0
C1201 C 0.01818 0.5628 -0.00609 0.0
C1202 C 0.97087 0.5603 0.02826 0.0
C1203 C 0.95479 0.57525 0.03199 0.0
C1204 C 0.94034 0.57872 0.00071 0.0
C1205 C 0.94195 0.56613 0.96613 0.0
C1206 C 0.95813 0.55109 0.96244 0.0
H1207 H 0.0346 0.56558 0.98364 0.0
H1208 H 1.00738 0.5727 0.97581 0.0
H1209 H 0.01707 0.56795 0.02556 0.0
H1210 H 0.9818 0.55819 0.0528 0.0
H1211 H 0.95401 0.58447 0.05921 0.0
H1212 H 0.43897 0.94751 0.93235 0.0
H1213 H 0.46586 0.97481 0.93642 0.0
H1214 H 0.48507 0.95135 0.05176 0.0
H1215 H 0.458 0.9237 0.04789 0.0
H1216 H 0.46862 1.00645 -0.005 0.0
H1217 H 0.54119 0.95743 0.99031 0.0
H1218 H 0.51575 0.94734 0.97564 0.0
H1219 H 0.52202 0.95044 0.02766 0.0
C1220 C 0.44905 0.94789 0.95846 0.0
C1221 C 0.44627 0.9333 0.98978 0.0
C1222 C 0.4644 0.96364 0.96078 0.0
C1223 C 0.47754 0.96523 -0.00565 0.0
C1224 C 0.47529 0.95034 0.02531 0.0
H1225 H 0.55705 0.07805 0.03802 0.0
H1226 H 0.52932 0.0512 0.04495 0.0
C1227 C 0.45984 0.93449 0.02302 0.0
C1228 C 0.49302 0.98292 -0.00314 0.0
H1229 H 0.54571 0.99412 -0.00363 0.0
C1230 C 0.48549 1.00376 -0.00434 0.0
C1231 C 0.51503 0.97945 -0.00255 0.0
C1232 C 0.5241 0.95749 -0.00246 0.0
C1233 C 0.4993 0.02113 -0.00566 0.0
C1234 C 0.52131 0.01765 -0.0055 0.0
C1235 C 0.52884 0.99682 -0.00356 0.0
C1236 C 0.53684 0.03515 0.98959 0.0
C1237 C 0.49027 0.04304 0.99119 0.0
C1238 C 0.55011 0.03533 0.95602 0.0
C1239 C 0.56581 0.05062 0.95195 0.0
C1240 C 0.56881 0.06616 0.98146 0.0
C1241 C 0.55501 0.06651 0.01447 0.0
C1242 C 0.5392 0.0511 0.01853 0.0
H1243 H 0.47318 0.04284 0.98406 0.0
H1244 H 0.4924 0.05132 0.02014 0.0
H1245 H 0.49864 0.05223 0.96779 0.0
H1246 H 0.54857 0.02332 0.93317 0.0
H1247 H 0.57608 0.04982 0.9261 0.0
H1248 H 0.47001 0.4352 0.69589 0.0
H1249 H 0.49593 0.4631 0.69863 0.0
H1250 H 0.452 0.50252 0.76261 0.0
H1251 H 0.42588 0.47384 0.76156 0.0
H1252 H 0.49715 0.49995 0.66796 0.0
H1253 H 0.50254 0.50966 0.83242 0.0
H1254 H 0.48832 0.48821 0.80963 0.0
H1255 H 0.47652 0.51392 0.81319 0.0
C1256 C 0.46567 0.44974 0.71069 0.0
C1257 C 0.4457 0.45214 0.72858 0.0
C1258 C 0.48066 0.4658 0.7122 0.0
C1259 C 0.47624 0.48497 0.73132 0.0
C1260 C 0.45613 0.48773 0.74855 0.0
H1261 H 0.55281 0.59577 0.68314 0.0
H1262 H 0.52633 0.56824 0.68498 0.0
C1263 C 0.44107 0.4714 0.74753 0.0
C1264 C 0.49275 0.50189 0.73177 0.0
H1265 H 0.52164 0.5342 0.7928 0.0
C1266 C 0.50247 0.50737 0.69539 0.0
C1267 C 0.50015 0.51142 0.76748 0.0
C1268 C 0.49151 0.50538 0.80795 0.0
C1269 C 0.51916 0.52191 0.69361 0.0
C1270 C 0.52599 0.5321 0.72904 0.0
C1271 C 0.5164 0.52657 0.76554 0.0
C1272 C 0.54254 0.54892 0.72849 0.0
C1273 C 0.52968 0.52569 0.65371 0.0
C1274 C 0.56045 0.5478 0.75329 0.0
C1275 C 0.5757 0.56392 0.75283 0.0
C1276 C 0.57335 0.5815 0.72751 0.0
C1277 C 0.55544 0.58243 0.7027 0.0
C1278 C 0.5402 0.56655 0.70353 0.0
H1279 H 0.52786 0.51189 0.63355 0.0
H1280 H 0.52214 0.53937 0.63884 0.0
H1281 H 0.54674 0.52902 0.65722 0.0
H1282 H 0.56263 0.53446 0.77306 0.0
H1283 H 0.58912 0.56276 0.77266 0.0
H1284 H 0.45801 0.57836 0.2043 0.0
H1285 H 0.4858 0.55152 0.19805 0.0
H1286 H 0.46475 0.52267 0.30778 0.0
H1287 H 0.43699 0.54901 0.31384 0.0
H1288 H 0.51899 0.53884 0.24514 0.0
H1289 H 0.46211 0.47329 0.2312 0.0
H1290 H 0.45429 0.50057 0.22772 0.0
H1291 H 0.45795 0.48839 0.27587 0.0
C1292 C 0.45954 0.56649 0.22739 0.0
C1293 C 0.44516 0.56579 0.25944 0.0
C1294 C 0.47534 0.55105 0.22366 0.0
C1295 C 0.47703 0.53462 0.25182 0.0
C1296 C 0.46342 0.53469 0.28494 0.0
H1297 H 0.58183 0.45291 0.30391 0.0
H1298 H 0.55387 0.47921 0.30195 0.0
C1299 C 0.44764 0.54996 0.28857 0.0
C1300 C 0.49284 0.51731 0.24692 0.0
H1301 H 0.49783 0.46357 0.24521 0.0
C1302 C 0.51433 0.52241 0.2448 0.0
C1303 C 0.48686 0.49578 0.24559 0.0
C1304 C 0.46404 0.48916 0.24478 0.0
C1305 C 0.52994 0.50664 0.24321 0.0
C1306 C 0.524 0.4851 0.24457 0.0
C1307 C 0.50248 0.48001 0.24484 0.0
C1308 C 0.53994 0.46777 0.24707 0.0
C1309 C 0.5527 0.51328 0.23991 0.0
C1310 C 0.54079 0.45162 0.2182 0.0
C1311 C 0.55672 0.4362 0.21958 0.0
C1312 C 0.57207 0.43665 0.24994 0.0
C1313 C 0.57043 0.45217 0.27986 0.0
C1314 C 0.55452 0.46741 0.27858 0.0
H1315 H 0.55419 0.52927 0.22666 0.0
H1316 H 0.55976 0.51376 0.27025 0.0
H1317 H 0.56188 0.50204 0.22136 0.0
H1318 H 0.52957 0.45137 0.19381 0.0
H1319 H 0.55759 0.42457 0.19593 0.0
H1320 H 0.5699 0.94233 0.49976 0.0
H1321 H 0.53733 0.96265 0.50565 0.0
H1322 H 0.57153 0.01967 0.47935 0.0
H1323 H 0.60407 0.99941 0.47251 0.0
H1324 H 0.52471 0.9944 0.55377 0.0
H1325 H 0.52508 0.02259 0.39716 0.0
H1326 H 0.54252 1.00211 0.41454 0.0
H1327 H 0.54881 0.02939 0.4232 0.0
C1328 C 0.57058 0.95919 0.49539 0.0
C1329 C 0.58971 0.96913 0.48531 0.0
C1330 C 0.55186 0.97083 0.49872 0.0
C1331 C 0.55177 0.99268 0.49199 0.0
C1332 C 0.57098 1.00276 0.48354 0.0
H1333 H 0.46315 0.08755 0.56254 0.0
H1334 H 0.48984 0.06014 0.55856 0.0
C1335 C 0.58968 0.99114 0.48001 0.0
C1336 C 0.53166 1.00496 0.49397 0.0
H1337 H 0.50122 0.03991 0.44173 0.0
C1338 C 0.51951 1.00421 0.52911 0.0
C1339 C 0.52445 0.01742 0.46154 0.0
C1340 C 0.53577 0.01778 0.42183 0.0
C1341 C 0.50096 0.01621 0.53332 0.0
C1342 C 0.49451 0.02971 0.50184 0.0
C1343 C 0.50616 0.02976 0.46608 0.0
C1344 C 0.47668 0.04496 0.5063 0.0
C1345 C 0.48845 0.01422 0.57153 0.0
C1346 C 0.46018 0.04581 0.47818 0.0
C1347 C 0.44476 0.0617 0.48029 0.0
C1348 C 0.44571 0.07721 0.51032 0.0
C1349 C 0.46182 0.07583 0.53911 0.0
C1350 C 0.47711 0.06002 0.53703 0.0
H1351 H 0.49089 0.99858 0.58571 0.0
H1352 H 0.49383 0.0264 0.59304 0.0
H1353 H 0.47135 0.01646 0.56613 0.0
H1354 H 0.45953 0.03448 0.45399 0.0
H1355 H 0.43275 0.06244 0.45733 0.0
H1356 H 0.95813 0.42982 0.54318 0.0
H1357 H 0.98446 0.45817 0.54709 0.0
H1358 H 0.96676 0.47927 0.42927 0.0
H1359 H 0.94056 0.45128 0.42517 0.0
H1360 H 0.01913 0.46891 0.49904 0.0
H1361 H 0.95981 0.53279 0.49617 0.0
H1362 H 0.95291 0.50562 0.50531 0.0
H1363 H 0.9572 0.51481 0.45504 0.0
C1364 C 0.96004 0.44033 0.51789 0.0
C1365 C 0.94707 0.43828 0.48395 0.0
C1366 C 0.97503 0.45663 0.52027 0.0
C1367 C 0.97725 0.47127 0.4889 0.0
C1368 C 0.96499 0.4686 0.45435 0.0
H1369 H 0.07858 0.55392 0.42435 0.0
H1370 H 0.05126 0.52718 0.43095 0.0
C1371 C 0.95009 0.4524 0.45194 0.0
C1372 C 0.99234 0.48931 0.4918 0.0
H1373 H 0.99556 0.54305 0.48409 0.0
C1374 C 0.01393 0.48511 0.49617 0.0
C1375 C 0.98564 0.51057 0.48876 0.0
C1376 C 0.96261 0.51629 0.48647 0.0
C1377 C 0.02898 0.50143 0.49572 0.0
C1378 C 0.02236 0.52258 0.49026 0.0
C1379 C 1.00071 0.52687 0.48777 0.0
C1380 C 0.03781 0.54016 0.48503 0.0
C1381 C 0.05191 0.49585 0.50094 0.0
C1382 C 0.03876 0.55714 0.51207 0.0
C1383 C 0.05443 0.57274 0.50819 0.0
C1384 C 0.06934 0.57164 0.47704 0.0
C1385 C 0.06753 0.55521 0.44893 0.0
C1386 C 0.05197 0.53976 0.45281 0.0
H1387 H 0.05385 0.4804 0.51612 0.0
H1388 H 0.05948 0.49475 0.47108 0.0
H1389 H 0.0603 0.50808 0.51854 0.0
H1390 H 0.02786 0.55793 0.53698 0.0
H1391 H 0.05542 0.58507 0.5305 0.0
H1392 H 0.15067 0.99941 0.67155 0.0
H1393 H 0.16108 0.02423 0.61941 0.0
H1394 H 0.20118 0.97698 0.56652 0.0
H1395 H 0.19026 0.95179 0.6179 0.0
H1396 H 0.19752 0.04099 0.58028 0.0
H1397 H 0.15273 0.98383 0.48604 0.0
H1398 H 0.15302 0.98191 0.53982 0.0
H1399 H 0.17582 0.97437 0.51136 0.0
C1400 C 0.16221 0.99452 0.64954 0.0
C1401 C 0.16926 0.97356 0.64818 0.0
C1402 C 0.16825 1.00873 0.61989 0.0
C1403 C 0.18145 1.0022 0.5886 0.0
C1404 C 0.19068 0.98215 0.5901 0.0
H1405 H 0.15943 0.06985 0.36269 0.0
H1406 H 0.17782 0.04593 0.40811 0.0
C1407 C 0.18455 0.96784 0.61969 0.0
C1408 C 0.18197 0.01491 0.55158 0.0
H1409 H 0.15831 0.01732 0.46005 0.0
C1410 C 0.18947 0.03567 0.55351 0.0
C1411 C 0.17147 1.00788 0.51662 0.0
C1412 C 0.16267 0.98584 0.51311 0.0
C1413 C 0.18544 0.05002 0.52253 0.0
C1414 C 0.17333 0.04344 0.48934 0.0
C1415 C 0.1675 0.02225 0.48574 0.0
C1416 C 0.16361 0.05872 0.46167 0.0
C1417 C 0.1933 0.07234 0.52636 0.0
C1418 C 0.14909 0.07335 0.47671 0.0
C1419 C 0.13836 0.0868 0.45091 0.0
C1420 C 0.1419 0.08594 0.40942 0.0
C1421 C 0.15623 0.07097 0.39434 0.0
C1422 C 0.16695 0.05742 0.42028 0.0
H1423 H 0.20769 0.0731 0.5452 0.0
H1424 H 0.19684 0.07926 0.49658 0.0
H1425 H 0.18099 0.08209 0.54096 0.0
H1426 H 0.14572 0.07407 0.50847 0.0
H1427 H 0.12712 0.09775 0.46352 0.0
H1428 H 0.09039 0.89722 0.51752 0.0
H1429 H 0.06903 0.8778 0.46929 0.0
H1430 H 0.04832 0.83575 0.56279 0.0
H1431 H 0.0696 0.85531 0.6113 0.0
H1432 H 0.07021 0.83314 0.44925 0.0
H1433 H 0.99345 0.85958 0.51359 0.0
H1434 H 0.01782 0.87257 0.52627 0.0
H1435 H 0.01218 0.84688 0.54592 0.0
C1436 C 0.08129 0.88385 0.52778 0.0
C1437 C 0.08158 0.87785 0.56819 0.0
C1438 C 0.06921 0.87271 0.50024 0.0
C1439 C 0.05719 0.85534 0.51254 0.0
C1440 C 0.0574 0.84922 0.55283 0.0
H1441 H 0.95691 0.83055 0.34743 0.0
H1442 H 0.98141 0.81683 0.39717 0.0
C1443 C 0.06943 0.86049 0.58053 0.0
C1444 C 0.04366 0.84471 0.48294 0.0
H1445 H 0.99305 0.84496 0.44983 0.0
C1446 C 0.05324 0.83518 0.44968 0.0
C1447 C 0.02156 0.84703 0.48405 0.0
C1448 C 0.01051 0.85711 0.5192 0.0
C1449 C 0.04143 0.82965 0.41586 0.0
C1450 C 0.01964 0.83416 0.41525 0.0
C1451 C 0.00979 0.84157 0.4502 0.0
C1452 C 1.00767 0.83591 0.37742 0.0
C1453 C 0.05257 0.82008 0.38042 0.0
C1454 C 0.01469 0.85018 0.34817 0.0
C1455 C 1.00078 0.85791 0.31948 0.0
C1456 C 0.97956 0.8517 0.31992 0.0
C1457 C 0.97319 0.8356 0.34621 0.0
C1458 C 0.98717 0.82777 0.3748 0.0
H1459 H 0.06546 0.80949 0.39047 0.0
H1460 H 0.04159 0.811 0.36116 0.0
H1461 H 0.05983 0.83281 0.36231 0.0
H1462 H 0.03028 0.85703 0.34989 0.0
H1463 H 1.00615 0.87011 0.29923 0.0
H1464 H 0.8244 0.06489 0.62535 0.0
H1465 H 0.81464 0.04159 0.57025 0.0
H1466 H 0.85018 0.99123 0.62459 0.0
H1467 H 0.85952 0.01428 0.67993 0.0
H1468 H 0.84821 0.03117 0.52724 0.0
H1469 H 0.80665 0.95781 0.56476 0.0
H1470 H 0.80521 0.98094 0.59623 0.0
H1471 H 0.82674 0.96258 0.60125 0.0
C1472 C 0.82905 0.04848 0.62672 0.0
C1473 C 0.84299 0.0414 0.65646 0.0
C1474 C 0.82352 0.0352 0.59511 0.0
C1475 C 0.83177 0.01471 0.5931 0.0
C1476 C 0.84333 1.00684 0.62565 0.0
H1477 H 0.90089 0.93178 0.46076 0.0
H1478 H 0.87969 0.95293 0.50645 0.0
C1479 C 0.84885 0.02009 0.65719 0.0
C1480 C 0.83366 1.0039 0.55403 0.0
H1481 H 0.83483 0.95458 0.51385 0.0
C1482 C 0.84462 0.01457 0.52361 0.0
C1483 C 0.82897 0.9823 0.54929 0.0
C1484 C 0.81603 0.97036 0.57956 0.0
C1485 C 0.85307 1.00374 0.49083 0.0
C1486 C 0.85009 0.98174 0.48814 0.0
C1487 C 0.83736 0.97142 0.51642 0.0
C1488 C 0.86233 0.96884 0.45967 0.0
C1489 C 0.86665 0.0156 0.46132 0.0
C1490 C 0.85982 0.97105 0.41825 0.0
C1491 C 0.8719 0.95892 0.39201 0.0
C1492 C 0.88672 0.94435 0.40677 0.0
C1493 C 0.88943 0.94257 0.44836 0.0
C1494 C 0.87729 0.95461 0.47451 0.0
H1495 H 0.86992 0.03199 0.47119 0.0
H1496 H 0.8819 1.00736 0.45684 0.0
H1497 H 0.85851 0.01634 0.43201 0.0
H1498 H 0.8484 0.98201 0.40623 0.0
H1499 H 0.86919 0.96064 0.3603 0.0
H1500 H 0.90722 0.15287 0.54561 0.0
H1501 H 0.93066 0.16862 0.49596 0.0
H1502 H 0.98413 0.1402 0.55428 0.0
H1503 H 0.96062 0.12403 0.60392 0.0
H1504 H 0.96996 0.19493 0.50153 0.0
H1505 H 0.97967 0.11441 0.438 0.0
H1506 H 0.95882 0.12094 0.47257 0.0
H1507 H 0.9852 0.11712 0.49051 0.0
C1508 C 0.92396 0.14995 0.54789 0.0
C1509 C 0.93209 0.13675 0.57797 0.0
C1510 C 0.93733 0.15923 0.51988 0.0
C1511 C 0.95901 0.1554 0.52143 0.0
C1512 C 0.96736 0.14323 0.55269 0.0
H1513 H 0.06422 0.18837 0.37882 0.0
H1514 H 0.03587 0.19268 0.42761 0.0
C1515 C 0.95397 0.134 0.58089 0.0
C1516 C 0.97241 0.16188 0.48759 0.0
H1517 H 0.99933 0.14162 0.4084 0.0
C1518 C 0.97642 0.18336 0.48102 0.0
C1519 C 0.98034 0.14671 0.46064 0.0
C1520 C 0.97571 0.1235 0.4654 0.0
C1521 C 0.98875 0.19002 0.44839 0.0
C1522 C 0.9971 0.17474 0.42205 0.0
C1523 C 0.99272 0.15333 0.42846 0.0
C1524 C 0.01168 0.17992 0.389 0.0
C1525 C 0.99267 0.2132 0.44221 0.0
C1526 C 1.00721 0.17247 0.35037 0.0
C1527 C 0.02344 0.16976 0.32272 0.0
C1528 C 0.04424 0.17466 0.3333 0.0
C1529 C 0.04822 0.18473 0.36992 0.0
C1530 C 0.03201 0.18722 0.39781 0.0
H1531 H 0.98077 0.22298 0.45802 0.0
H1532 H 1.00843 0.21729 0.45424 0.0
H1533 H 0.99247 0.21725 0.40988 0.0
H1534 H 0.99162 0.16671 0.3431 0.0
H1535 H 0.02009 0.16189 0.29467 0.0
H1536 H 0.14696 0.51615 0.55056 0.0
H1537 H 0.15836 0.49273 0.60413 0.0
H1538 H 0.20155 0.54021 0.64631 0.0
H1539 H 0.18954 0.56411 0.59376 0.0
H1540 H 0.19446 0.47583 0.64261 0.0
H1541 H 0.15531 0.53918 0.73172 0.0
H1542 H 0.15442 0.539 0.67787 0.0
H1543 H 0.17828 0.5462 0.7033 0.0
C1544 C 0.15936 0.52136 0.57048 0.0
C1545 C 0.16688 0.54214 0.56877 0.0
C1546 C 0.16598 0.50791 0.60092 0.0
C1547 C 0.18031 0.51504 0.62983 0.0
C1548 C 0.19014 0.53464 0.6247 0.0
H1549 H 0.15734 0.45961 0.86637 0.0
H1550 H 0.1765 0.4802 0.81645 0.0
C1551 C 0.18337 0.54821 0.59441 0.0
C1552 C 0.18114 0.50388 0.66859 0.0
H1553 H 0.15934 0.50653 0.76178 0.0
C1554 C 0.18733 0.48267 0.6691 0.0
C1555 C 0.17188 0.5129 0.70319 0.0
C1556 C 0.16446 0.53551 0.70424 0.0
C1557 C 0.18305 0.46983 0.70227 0.0
C1558 C 0.17203 0.47841 0.73524 0.0
C1559 C 0.16767 0.50002 0.73626 0.0
C1560 C 0.1619 0.46493 0.76571 0.0
C1561 C 0.18946 0.44696 0.7009 0.0
C1562 C 0.14688 0.45004 0.7537 0.0
C1563 C 0.13569 0.43851 0.78207 0.0
C1564 C 0.13922 0.44165 0.82313 0.0
C1565 C 0.15409 0.45684 0.83511 0.0
C1566 C 0.16526 0.46845 0.80661 0.0
H1567 H 0.20406 0.44486 0.68299 0.0
H1568 H 0.19207 0.4405 0.73136 0.0
H1569 H 0.1768 0.4377 0.68626 0.0
H1570 H 0.14343 0.44767 0.72228 0.0
H1571 H 0.12408 0.42726 0.77182 0.0
H1572 H 0.42455 0.83568 0.17001 0.0
H1573 H 0.45017 0.82198 0.21838 0.0
H1574 H 0.48793 0.87794 0.2025 0.0
H1575 H 0.46267 0.89115 0.15296 0.0
H1576 H 0.51199 0.84275 0.21304 0.0
H1577 H 0.44918 0.84708 0.32935 0.0
H1578 H 0.44434 0.82967 0.28804 0.0
H1579 H 0.44556 0.85763 0.27979 0.0
C1580 C 0.43853 0.84482 0.17663 0.0
C1581 C 0.44164 0.8646 0.15874 0.0
C1582 C 0.45306 0.83704 0.2042 0.0
C1583 C 0.4706 0.84923 0.21485 0.0
C1584 C 0.47441 0.86835 0.19484 0.0
H1585 H 0.53534 0.88845 0.40896 0.0
H1586 H 0.50921 0.87579 0.3617 0.0
C1587 C 0.46006 0.87592 0.1667 0.0
C1588 C 0.484 0.84338 0.24926 0.0
H1589 H 0.48353 0.84125 0.35128 0.0
C1590 C 0.50581 0.84197 0.24327 0.0
C1591 C 0.47574 0.84235 0.2886 0.0
C1592 C 0.45246 0.84439 0.29709 0.0
C1593 C 0.51976 0.84124 0.27572 0.0
C1594 C 0.51154 0.84138 0.31512 0.0
C1595 C 0.48968 0.84104 0.32099 0.0
C1596 C 0.52509 0.84626 0.34982 0.0
C1597 C 0.54314 0.84214 0.26753 0.0
C1598 C 0.54209 0.83332 0.36048 0.0
C1599 C 0.55718 0.84058 0.38761 0.0
C1600 C 0.55529 0.86078 0.40464 0.0
C1601 C 0.53719 0.87277 0.39668 0.0
C1602 C 0.52225 0.86557 0.36947 0.0
H1603 H 0.54669 0.8448 0.23537 0.0
H1604 H 0.55057 0.85497 0.28515 0.0
H1605 H 0.55051 0.82704 0.2766 0.0
H1606 H 0.54426 0.81814 0.34629 0.0
H1607 H 0.57083 0.83088 0.39374 0.0
H1608 H 0.88605 0.59852 0.77246 0.0
H1609 H 0.86878 0.57259 0.73011 0.0
H1610 H 0.84631 0.53972 0.83463 0.0
H1611 H 0.86325 0.56584 0.8775 0.0
H1612 H 0.86795 0.51477 0.77856 0.0
H1613 H 0.80595 0.56186 0.70458 0.0
H1614 H 0.8311 0.57479 0.70433 0.0
H1615 H 0.8181 0.56964 0.75119 0.0
C1616 C 0.87715 0.58604 0.78659 0.0
C1617 C 0.87595 0.58445 0.82849 0.0
C1618 C 0.86717 0.57129 0.76229 0.0
C1619 C 0.8558 0.55462 0.7793 0.0
C1620 C 0.85473 0.55273 0.82102 0.0
H1621 H 0.83455 0.44271 0.63395 0.0
H1622 H 0.8249 0.4674 0.68669 0.0
C1623 C 0.86465 0.56757 0.84546 0.0
C1624 C 0.8473 0.53799 0.75308 0.0
H1625 H 0.81822 0.53107 0.66835 0.0
C1626 C 0.85661 0.51803 0.75511 0.0
C1627 C 0.83247 0.54244 0.72274 0.0
C1628 C 0.82116 0.5633 0.72076 0.0
C1629 C 0.853 0.50296 0.72533 0.0
C1630 C 0.83926 0.50791 0.69327 0.0
C1631 C 0.82872 0.52734 0.69293 0.0
C1632 C 0.83849 0.4945 0.6572 0.0
C1633 C 0.86532 0.4826 0.72674 0.0
C1634 C 0.84755 0.502 0.62166 0.0
C1635 C 0.85268 0.48803 0.59097 0.0
C1636 C 0.84902 0.46633 0.59562 0.0
C1637 C 0.83765 0.4593 0.62929 0.0
C1638 C 0.83228 0.47336 0.65975 0.0
H1639 H 0.87771 0.48279 0.75019 0.0
H1640 H 0.85445 0.46936 0.73338 0.0
H1641 H 0.87296 0.47945 0.69745 0.0
H1642 H 0.85226 0.51835 0.61897 0.0
H1643 H 0.86094 0.49399 0.56496 0.0
H1644 H 0.59358 0.10821 0.21004 0.0
H1645 H 0.57337 0.12808 0.25968 0.0
H1646 H 0.55175 0.17031 0.16732 0.0
H1647 H 0.57173 0.15037 0.1176 0.0
H1648 H 0.57495 0.17226 0.28038 0.0
H1649 H 0.49731 0.14744 0.21825 0.0
H1650 H 0.52151 0.13444 0.20449 0.0
H1651 H 0.51547 0.16 0.18458 0.0
C1652 C 0.58452 0.12172 0.20036 0.0
C1653 C 0.58407 0.12758 0.15986 0.0
C1654 C 0.57309 0.13311 0.2287 0.0
C1655 C 0.56104 0.15059 0.21706 0.0
C1656 C 0.56076 0.1567 0.17678 0.0
H1657 H 0.46114 0.18975 0.37536 0.0
H1658 H 0.48768 0.19791 0.32472 0.0
C1659 C 0.57207 0.1452 0.14837 0.0
C1660 C 0.54796 0.16151 0.24711 0.0
H1661 H 0.49717 0.16557 0.27875 0.0
C1662 C 0.5579 0.17118 0.2798 0.0
C1663 C 0.52575 0.16036 0.24585 0.0
C1664 C 0.51427 0.14992 0.21161 0.0
C1665 C 0.54621 0.17859 0.31255 0.0
C1666 C 0.52412 0.17586 0.31273 0.0
C1667 C 0.51412 0.16772 0.2786 0.0
C1668 C 0.51143 0.17735 0.34981 0.0
C1669 C 0.55769 0.18856 0.34716 0.0
C1670 C 0.51645 0.16414 0.38213 0.0
C1671 C 0.50139 0.15961 0.41124 0.0
C1672 C 0.48099 0.16799 0.40821 0.0
C1673 C 0.47676 0.18311 0.37855 0.0
C1674 C 0.4919 0.18773 0.34947 0.0
H1675 H 0.57175 0.19735 0.33652 0.0
H1676 H 0.54736 0.19949 0.36415 0.0
H1677 H 0.56328 0.17602 0.3677 0.0
H1678 H 0.53123 0.15563 0.38278 0.0
H1679 H 0.50508 0.14805 0.43404 0.0
H1680 H 0.62508 0.59319 0.95871 0.0
H1681 H 0.64301 0.56757 0.00071 0.0
H1682 H 0.67124 0.53935 0.89632 0.0
H1683 H 0.65359 0.56531 0.85379 0.0
H1684 H 0.65098 0.511 0.94962 0.0
H1685 H 0.70609 0.56296 0.03078 0.0
H1686 H 0.67995 0.57371 0.02899 0.0
H1687 H 0.6945 0.57005 0.98324 0.0
C1688 C 0.63533 0.58178 0.94458 0.0
C1689 C 0.63807 0.58154 0.90286 0.0
C1690 C 0.64566 0.56721 0.96868 0.0
C1691 C 0.65893 0.55202 0.95166 0.0
C1692 C 0.66134 0.55125 0.90999 0.0
H1693 H 0.6843 0.44327 0.10518 0.0
H1694 H 0.69423 0.46769 0.05176 0.0
C1695 C 0.65106 0.56597 0.88573 0.0
C1696 C 0.66846 0.53591 0.97779 0.0
H1697 H 0.69472 0.53142 0.06632 0.0
C1698 C 0.66114 0.51518 0.97446 0.0
C1699 C 0.68183 0.54149 0.00986 0.0
C1700 C 0.69123 0.56324 0.01323 0.0
C1701 C 0.66494 0.50042 0.00478 0.0
C1702 C 0.67671 0.50659 0.03882 0.0
C1703 C 0.68565 0.52678 0.04028 0.0
C1704 C 0.67633 0.49379 0.0757 0.0
C1705 C 0.6547 0.47899 0.00186 0.0
C1706 C 0.66434 0.50095 0.10825 0.0
C1707 C 0.65885 0.48716 0.13899 0.0
C1708 C 0.66525 0.466 0.13755 0.0
C1709 C 0.67916 0.4595 0.10716 0.0
C1710 C 0.68471 0.47337 0.07642 0.0
H1711 H 0.6441 0.47767 0.97555 0.0
H1712 H 0.66706 0.46672 -0.00089 0.0
H1713 H 0.64541 0.47562 0.02928 0.0
H1714 H 0.65782 0.51672 0.1083 0.0
H1715 H 0.64835 0.49263 0.16235 0.0
H1716 H 0.43994 0.33645 0.85965 0.0
H1717 H 0.46136 0.32468 0.91617 0.0
H1718 H 0.51608 0.35361 0.86313 0.0
H1719 H 0.49476 0.36548 0.80652 0.0
H1720 H 0.51953 0.31089 0.91888 0.0
H1721 H 0.47995 0.38321 0.97734 0.0
H1722 H 0.46472 0.36305 0.95285 0.0
H1723 H 0.48257 0.37892 0.92422 0.0
C1724 C 0.45675 0.33935 0.859 0.0
C1725 C 0.46572 0.35207 0.82901 0.0
C1726 C 0.46893 0.33263 0.89134 0.0
C1727 C 0.49018 0.33844 0.89375 0.0
C1728 C 0.49969 0.34892 0.86154 0.0
H1729 H 0.59585 0.36395 0.02689 0.0
H1730 H 0.56953 0.34858 0.98383 0.0
C1731 C 0.48751 0.35577 0.82936 0.0
C1732 C 0.50106 0.33838 0.93261 0.0
H1733 H 0.50903 0.37068 0.01244 0.0
C1734 C 0.517 0.32363 0.93995 0.0
C1735 C 0.49743 0.35487 0.96016 0.0
C1736 C 0.48028 0.371 0.95354 0.0
C1737 C 0.53027 0.3257 0.97332 0.0
C1738 C 0.52791 0.3434 -0.00121 0.0
C1739 C 0.51092 0.35718 -0.0071 0.0
C1740 C 0.5444 0.34989 0.0276 0.0
C1741 C 0.54696 0.30921 0.98032 0.0
C1742 C 0.53904 0.35634 0.06649 0.0
C1743 C 0.55402 0.36602 0.091 0.0
C1744 C 0.57469 0.36938 0.07712 0.0
C1745 C 0.58011 0.36214 0.03864 0.0
C1746 C 0.5651 0.35276 0.01409 0.0
H1747 H 0.5413 0.29343 0.97078 0.0
H1748 H 0.56105 0.313 0.96201 0.0
H1749 H 0.55168 0.30839 0.01227 0.0
H1750 H 0.52306 0.35453 0.07738 0.0
H1751 H 0.54914 0.37139 0.12026 0.0
H1752 H 0.3572 0.45968 0.86002 0.0
H1753 H 0.33769 0.48057 0.90924 0.0
H1754 H 0.37509 0.45353 0.00387 0.0
H1755 H 0.39462 0.43275 0.95494 0.0
H1756 H 0.33026 0.45369 0.01859 0.0
H1757 H 0.36152 0.5318 0.96988 0.0
H1758 H 0.34902 0.51527 0.93322 0.0
H1759 H 0.37379 0.5075 0.95439 0.0
C1760 C 0.36143 0.4584 0.8912 0.0
C1761 C 0.37744 0.44455 0.90363 0.0
C1762 C 0.35017 0.47022 0.91929 0.0
C1763 C 0.35488 0.46843 0.96012 0.0
C1764 C 0.37104 0.45488 0.97248 0.0
H1765 H 0.36356 0.51108 0.18197 0.0
H1766 H 0.35204 0.48913 0.12646 0.0
C1767 C 0.38224 0.4431 0.94453 0.0
C1768 C 0.3438 0.48111 0.99054 0.0
H1769 H 0.34432 0.53019 0.03129 0.0
C1770 C 0.33284 0.47053 0.02103 0.0
C1771 C 0.34684 0.5031 -0.00686 0.0
C1772 C 0.35848 0.5152 0.96111 0.0
C1773 C 0.32649 0.4811 0.05583 0.0
C1774 C 0.33155 0.50264 0.06027 0.0
C1775 C 0.34051 0.51363 0.02794 0.0
C1776 C 0.33208 0.51303 0.09987 0.0
C1777 C 0.31545 0.46888 0.08832 0.0
C1778 C 0.32397 0.53345 0.10451 0.0
C1779 C 0.33084 0.54614 0.13603 0.0
C1780 C 0.34597 0.53857 0.16317 0.0
C1781 C 0.35206 0.51734 0.16121 0.0
C1782 C 0.34525 0.50469 0.12968 0.0
H1783 H 0.30515 0.45652 0.07523 0.0
H1784 H 0.32737 0.46082 0.10716 0.0
H1785 H 0.30578 0.47931 0.10768 0.0
H1786 H 0.31389 0.54021 0.08175 0.0
H1787 H 0.32594 0.56248 0.1366 0.0
H1788 H 0.42557 0.61728 0.0336 0.0
H1789 H 0.44855 0.63706 0.98854 0.0
H1790 H 0.47535 0.66992 0.08923 0.0
H1791 H 0.45247 0.65023 0.13448 0.0
H1792 H 0.45341 0.6835 0.98011 0.0
H1793 H 0.52575 0.64118 0.03028 0.0
H1794 H 0.49972 0.63103 0.04019 0.0
H1795 H 0.50938 0.65325 0.06779 0.0
C1796 C 0.43626 0.62878 0.04618 0.0
C1797 C 0.43717 0.63211 0.0877 0.0
C1798 C 0.44931 0.64011 0.02041 0.0
C1799 C 0.46355 0.65493 0.03568 0.0
C1800 C 0.4645 0.65844 0.077 0.0
H1801 H 0.56861 0.68933 0.88645 0.0
H1802 H 0.54376 0.69682 0.94011 0.0
C1803 C 0.4515 0.64705 0.10283 0.0
C1804 C 0.47819 0.66564 0.00814 0.0
H1805 H 0.52876 0.66321 0.97488 0.0
C1806 C 0.47 0.67943 0.97925 0.0
C1807 C 0.49981 0.6605 0.00764 0.0
C1808 C 0.50931 0.64562 0.03793 0.0
C1809 C 0.48274 0.6873 0.94834 0.0
C1810 C 0.504 0.68081 0.94601 0.0
C1811 C 0.51247 0.66825 0.97666 0.0
C1812 C 0.51687 0.68356 0.90942 0.0
C1813 C 0.47314 0.70198 0.91794 0.0
C1814 C 0.50972 0.67489 0.87324 0.0
C1815 C 0.52384 0.67089 0.84218 0.0
C1816 C 0.54541 0.6751 0.8471 0.0
C1817 C 0.5521 0.68593 0.88154 0.0
C1818 C 0.5379 0.69015 0.91244 0.0
H1819 H 0.46086 0.71204 0.93198 0.0
H1820 H 0.48519 0.71227 0.90387 0.0
H1821 H 0.46537 0.69254 0.89421 0.0
H1822 H 0.49367 0.66933 0.87031 0.0
H1823 H 0.51819 0.66283 0.81571 0.0
H1824 H 0.69293 0.04395 0.06754 0.0
H1825 H 0.70685 0.01563 0.10888 0.0
H1826 H 0.65336 0.97695 0.078 0.0
H1827 H 0.6403 1.0045 0.03438 0.0
H1828 H 0.6852 1.009 0.1709 0.0
H1829 H 0.69351 0.93144 0.10121 0.0
H1830 H 0.69336 0.95528 0.07165 0.0
H1831 H 0.66901 0.94214 0.08442 0.0
C1832 C 0.68475 0.02899 0.06766 0.0
C1833 C 0.66514 0.02669 0.0486 0.0
C1834 C 0.69273 0.01277 0.09153 0.0
C1835 C 0.68109 0.99417 0.0971 0.0
C1836 C 0.6629 0.99093 0.07402 0.0
H1837 H 0.61866 0.93273 0.27109 0.0
H1838 H 0.63726 0.9436 0.21058 0.0
C1839 C 0.65516 1.00694 0.04957 0.0
C1840 C 0.68424 0.98126 0.13365 0.0
H1841 H 0.67624 0.93144 0.16893 0.0
C1842 C 0.68413 0.99195 0.17046 0.0
C1843 C 0.6829 0.95901 0.13339 0.0
C1844 C 0.68494 0.94639 0.09539 0.0
C1845 C 0.6802 0.98135 0.20638 0.0
C1846 C 0.67655 0.95938 0.20549 0.0
C1847 C 0.67876 0.94834 0.16936 0.0
C1848 C 0.66709 0.94862 0.2403 0.0
C1849 C 0.67798 0.99405 0.2444 0.0
C1850 C 0.67791 0.9472 0.27669 0.0
C1851 C 0.66723 0.9413 0.31155 0.0
C1852 C 0.64556 0.9367 0.31031 0.0
C1853 C 0.6352 0.93668 0.27317 0.0
C1854 C 0.64588 0.94259 0.23848 0.0
H1855 H 0.67886 0.01128 0.23889 0.0
H1856 H 0.66273 0.99052 0.25925 0.0
H1857 H 0.6908 0.98976 0.2654 0.0
H1858 H 0.69428 0.95178 0.27832 0.0
H1859 H 0.67566 0.94147 0.33967 0.0
H1860 H 0.93278 0.3961 0.71324 0.0
H1861 H 0.95621 0.3784 0.76031 0.0
H1862 H 0.97787 0.33719 0.66632 0.0
H1863 H 0.9543 0.3549 0.61888 0.0
H1864 H 0.95708 0.33292 0.77926 0.0
H1865 H 0.03206 0.36437 0.71548 0.0
H1866 H 1.00707 0.37657 0.70435 0.0
H1867 H 0.01349 0.35148 0.68297 0.0
C1868 C 0.94252 0.38327 0.70258 0.0
C1869 C 0.9417 0.37689 0.6624 0.0
C1870 C 0.95582 0.37314 0.72947 0.0
C1871 C 0.96862 0.35645 0.71675 0.0
C1872 C 0.96813 0.35011 0.67658 0.0
H1873 H 0.06987 0.33462 0.88332 0.0
H1874 H 0.04638 0.32118 0.83139 0.0
C1875 C 0.95479 0.36034 0.6495 0.0
C1876 C 0.98283 0.34648 0.74604 0.0
H1877 H 0.03329 0.34983 0.77951 0.0
C1878 C 0.97387 0.33607 0.77897 0.0
C1879 C 1.00473 0.35028 0.74513 0.0
C1880 C 0.01505 0.36132 0.71024 0.0
C1881 C 0.986 0.33104 0.81268 0.0
C1882 C 1.00744 0.33696 0.81355 0.0
C1883 C 0.0168 0.34536 0.77892 0.0
C1884 C 0.01927 0.33889 0.85151 0.0
C1885 C 0.97548 0.32046 0.84778 0.0
C1886 C 0.01148 0.35239 0.88137 0.0
C1887 C 0.02482 0.36 0.91115 0.0
C1888 C 0.0462 0.35437 0.91134 0.0
C1889 C 0.05341 0.33911 0.88409 0.0
C1890 C 0.04004 0.33147 0.85426 0.0
H1891 H 0.96307 0.30939 0.83743 0.0
H1892 H 0.98698 0.31169 0.86644 0.0
H1893 H 0.9677 0.33258 0.86662 0.0
H1894 H 0.99567 0.3587 0.87952 0.0
H1895 H 0.01887 0.37167 0.93194 0.0
H1896 H 0.39238 0.0923 0.28053 0.0
H1897 H 0.37439 0.06656 0.23893 0.0
H1898 H 0.34979 0.03601 0.34421 0.0
H1899 H 0.36734 0.06197 0.38636 0.0
H1900 H 0.37151 0.00963 0.28886 0.0
H1901 H 0.31078 0.05786 0.21335 0.0
H1902 H 0.33635 0.06998 0.2137 0.0
H1903 H 0.32282 0.06543 0.2602 0.0
C1904 C 0.38285 0.08043 0.29504 0.0
C1905 C 0.38125 0.07948 0.33699 0.0
C1906 C 0.37248 0.06576 0.27112 0.0
C1907 C 0.36034 0.04977 0.28854 0.0
C1908 C 0.35882 0.0485 0.33028 0.0
H1909 H 0.33594 0.93699 0.14656 0.0
H1910 H 0.32732 0.96209 0.19944 0.0
C1911 C 0.3691 0.06328 0.35432 0.0
C1912 C 0.35138 0.03314 0.26287 0.0
H1913 H 0.32162 0.02611 0.17904 0.0
C1914 C 0.36015 0.01296 0.26548 0.0
C1915 C 0.33654 0.03768 0.23262 0.0
C1916 C 0.3259 0.05887 0.22995 0.0
C1917 C 0.35596 0.99767 0.23635 0.0
C1918 C 0.34213 1.00262 0.20442 0.0
C1919 C 0.33215 0.02235 0.20355 0.0
C1920 C 0.34081 0.9889 0.16877 0.0
C1921 C 0.36779 0.97704 0.23827 0.0
C1922 C 0.3494 0.9961 0.13259 0.0
C1923 C 0.35391 0.98191 0.10193 0.0
C1924 C 0.35009 0.96027 0.10719 0.0
C1925 C 0.33917 0.95353 0.14155 0.0
C1926 C 0.33442 0.96782 0.17204 0.0
H1927 H 0.3804 0.9772 0.26131 0.0
H1928 H 0.35668 0.96415 0.24584 0.0
H1929 H 0.3751 0.97335 0.20889 0.0
H1930 H 0.35424 0.01238 0.12928 0.0
H1931 H 0.36186 0.98763 0.07538 0.0
H1932 H 0.05861 0.65264 0.60114 0.0
H1933 H 0.0354 0.67194 0.6461 0.0
H1934 H 0.07033 0.64881 0.74749 0.0
H1935 H 0.09351 0.62924 0.70303 0.0
H1936 H 0.01119 0.65269 0.70555 0.0
H1937 H 0.06416 0.71254 0.77099 0.0
H1938 H 0.07005 0.69887 0.72486 0.0
H1939 H 0.07527 0.68654 0.7723 0.0
C1940 C 0.06152 0.65162 0.63288 0.0
C1941 C 0.07822 0.63945 0.64824 0.0
C1942 C 0.04829 0.66288 0.65853 0.0
C1943 C 0.05156 0.66227 0.69994 0.0
C1944 C 0.06802 0.65006 0.71547 0.0
H1945 H 0.99597 0.66457 0.91944 0.0
H1946 H 0.01977 0.67169 0.86375 0.0
C1947 C 0.08119 0.63876 0.68993 0.0
C1948 C 0.03635 0.67213 0.72754 0.0
H1949 H 0.03348 0.70317 0.81066 0.0
C1950 C 0.01579 0.66418 0.72792 0.0
C1951 C 0.04255 0.68712 0.75647 0.0
C1952 C 0.06417 0.69693 0.75595 0.0
C1953 C 1.00175 0.66935 0.75866 0.0
C1954 C 1.00835 0.68338 0.78919 0.0
C1955 C 0.02846 0.6925 0.78719 0.0
C1956 C 0.99585 0.68578 0.82622 0.0
C1957 C 0.98065 0.65832 0.75989 0.0
C1958 C 0.97497 0.6929 0.82472 0.0
C1959 C 0.96117 0.68831 0.85609 0.0
C1960 C 0.96826 0.67693 0.88965 0.0
C1961 C 0.98992 0.67277 0.89345 0.0
C1962 C 1.00359 0.67703 0.8618 0.0
H1963 H 0.97957 0.64539 0.7376 0.0
H1964 H 0.97767 0.65159 0.79004 0.0
H1965 H 0.96798 0.66983 0.75323 0.0
H1966 H 0.96886 0.70015 0.7978 0.0
H1967 H 0.94464 0.69189 0.8521 0.0
loop_
_geom_bond_atom_site_label_1
_geom_bond_atom_site_label_2
_geom_bond_distance
_geom_bond_site_symmetry_2
_ccdc_geom_bond_type
C0 C1 1.351 . S
C0 N3 1.368 . S
C0 H5 0.931 . S
C1 C0 1.351 . S
C1 N2 1.373 . S
C1 H29 0.930 . S
N2 C1 1.373 . S
N2 C4 1.340 . S
N3 C0 1.368 . S
N3 C4 1.321 . S
N3 Co6 2.135 . S
C4 N2 1.340 . S
C4 N3 1.321 . S
C4 H28 0.930 . S
H5 C0 0.931 . S
Co6 N3 2.135 . S
Co6 N9 2.121 . S
Co6 O14 2.055 . S
Co6 O17 2.039 . S
Co6 N20 2.140 . S
C7 O8 1.227 . S
C7 O17 1.265 . S
O8 C7 1.227 . S
N9 Co6 2.121 . S
N9 C11 1.375 . S
N9 C12 1.313 . S
C10 C11 1.338 . S
C10 N13 1.377 . S
C10 H30 0.930 . S
C11 N9 1.375 . S
C11 C10 1.338 . S
C11 H15 0.931 . S
C12 N9 1.313 . S
C12 N13 1.344 . S
C12 H16 0.930 . S
N13 C10 1.377 . S
N13 C12 1.344 . S
O14 Co6 2.055 . S
O14 C18 1.253 . S
H15 C11 0.931 . S
H16 C12 0.930 . S
O17 Co6 2.039 . S
O17 C7 1.265 . S
C18 O14 1.253 . S
C18 O19 1.227 . S
O19 C18 1.227 . S
N20 Co6 2.140 . S
N20 C23 1.346 . S
N20 C24 1.345 . S
C21 C22 1.387 . S
C21 C25 1.391 . S
C22 C21 1.387 . S
C22 C23 1.369 . S
C22 H31 0.929 . S
C23 N20 1.346 . S
C23 C22 1.369 . S
C23 H26 0.928 . S
C24 N20 1.345 . S
C24 C25 1.371 . S
C24 H27 0.931 . S
C25 C21 1.391 . S
C25 C24 1.371 . S
C25 H32 0.930 . S
H26 C23 0.928 . S
H27 C24 0.931 . S
H28 C4 0.930 . S
H29 C1 0.930 . S
H30 C10 0.930 . S
H31 C22 0.929 . S
H32 C25 0.930 . S
C33 C34 1.351 . S
C33 N36 1.368 . S
C33 H38 0.931 . S
C34 C33 1.351 . S
C34 N35 1.373 . S
C34 H62 0.930 . S
N35 C34 1.373 . S
N35 C37 1.340 . S
N36 C33 1.368 . S
N36 C37 1.321 . S
N36 Co39 2.135 . S
C37 N35 1.340 . S
C37 N36 1.321 . S
C37 H61 0.930 . S
H38 C33 0.931 . S
Co39 N36 2.135 . S
Co39 N42 2.121 . S
Co39 O47 2.055 . S
Co39 O50 2.039 . S
Co39 N53 2.140 . S
C40 O41 1.227 . S
C40 O50 1.265 . S
O41 C40 1.227 . S
N42 Co39 2.121 . S
N42 C44 1.375 . S
N42 C45 1.313 . S
C43 C44 1.338 . S
C43 N46 1.377 . S
C43 H63 0.930 . S
C44 N42 1.375 . S
C44 C43 1.338 . S
C44 H48 0.931 . S
C45 N42 1.313 . S
C45 N46 1.344 . S
C45 H49 0.930 . S
N46 C43 1.377 . S
N46 C45 1.344 . S
O47 Co39 2.055 . S
O47 C51 1.253 . S
H48 C44 0.931 . S
H49 C45 0.930 . S
O50 Co39 2.039 . S
O50 C40 1.265 . S
C51 O47 1.253 . S
C51 O52 1.227 . S
O52 C51 1.227 . S
N53 Co39 2.140 . S
N53 C56 1.346 . S
N53 C57 1.345 . S
C54 C55 1.387 . S
C54 C58 1.391 . S
C55 C54 1.387 . S
C55 C56 1.369 . S
C55 H64 0.929 . S
C56 N53 1.346 . S
C56 C55 1.369 . S
C56 H59 0.928 . S
C57 N53 1.345 . S
C57 C58 1.371 . S
C57 H60 0.931 . S
C58 C54 1.391 . S
C58 C57 1.371 . S
C58 H65 0.930 . S
H59 C56 0.928 . S
H60 C57 0.931 . S
H61 C37 0.930 . S
H62 C34 0.930 . S
H63 C43 0.930 . S
H64 C55 0.929 . S
H65 C58 0.930 . S
C66 C67 1.351 . S
C66 N69 1.368 . S
C66 H71 0.931 . S
C67 C66 1.351 . S
C67 N68 1.373 . S
C67 H95 0.930 . S
N68 C67 1.373 . S
N68 C70 1.340 . S
N69 C66 1.368 . S
N69 C70 1.321 . S
N69 Co72 2.135 . S
C70 N68 1.340 . S
C70 N69 1.321 . S
C70 H94 0.930 . S
H71 C66 0.931 . S
Co72 N69 2.135 . S
Co72 N75 2.121 . S
Co72 O80 2.055 . S
Co72 O83 2.039 . S
Co72 N86 2.140 . S
C73 O74 1.227 . S
C73 O83 1.265 . S
O74 C73 1.227 . S
N75 Co72 2.121 . S
N75 C77 1.375 . S
N75 C78 1.313 . S
C76 C77 1.338 . S
C76 N79 1.377 . S
C76 H96 0.930 . S
C77 N75 1.375 . S
C77 C76 1.338 . S
C77 H81 0.931 . S
C78 N75 1.313 . S
C78 N79 1.344 . S
C78 H82 0.930 . S
N79 C76 1.377 . S
N79 C78 1.344 . S
O80 Co72 2.055 . S
O80 C84 1.253 . S
H81 C77 0.931 . S
H82 C78 0.930 . S
O83 Co72 2.039 . S
O83 C73 1.265 . S
C84 O80 1.253 . S
C84 O85 1.227 . S
O85 C84 1.227 . S
N86 Co72 2.140 . S
N86 C89 1.346 . S
N86 C90 1.345 . S
C87 C88 1.387 . S
C87 C91 1.391 . S
C88 C87 1.387 . S
C88 C89 1.369 . S
C88 H97 0.929 . S
C89 N86 1.346 . S
C89 C88 1.369 . S
C89 H92 0.928 . S
C90 N86 1.345 . S
C90 C91 1.371 . S
C90 H93 0.931 . S
C91 C87 1.391 . S
C91 C90 1.371 . S
C91 H98 0.930 . S
H92 C89 0.928 . S
H93 C90 0.931 . S
H94 C70 0.930 . S
H95 C67 0.930 . S
H96 C76 0.930 . S
H97 C88 0.929 . S
H98 C91 0.930 . S
C99 C100 1.351 . S
C99 N102 1.368 . S
C99 H104 0.931 . S
C100 C99 1.351 . S
C100 N101 1.373 . S
C100 H128 0.930 . S
N101 C100 1.373 . S
N101 C103 1.340 . S
N102 C99 1.368 . S
N102 C103 1.321 . S
N102 Co105 2.135 . S
C103 N101 1.340 . S
C103 N102 1.321 . S
C103 H127 0.930 . S
H104 C99 0.931 . S
Co105 N102 2.135 . S
Co105 N108 2.121 . S
Co105 O113 2.055 . S
Co105 O116 2.039 . S
Co105 N119 2.140 . S
C106 O107 1.227 . S
C106 O116 1.265 . S
O107 C106 1.227 . S
N108 Co105 2.121 . S
N108 C110 1.375 . S
N108 C111 1.313 . S
C109 C110 1.338 . S
C109 N112 1.377 . S
C109 H129 0.930 . S
C110 N108 1.375 . S
C110 C109 1.338 . S
C110 H114 0.931 . S
C111 N108 1.313 . S
C111 N112 1.344 . S
C111 H115 0.930 . S
N112 C109 1.377 . S
N112 C111 1.344 . S
O113 Co105 2.055 . S
O113 C117 1.253 . S
H114 C110 0.931 . S
H115 C111 0.930 . S
O116 Co105 2.039 . S
O116 C106 1.265 . S
C117 O113 1.253 . S
C117 O118 1.227 . S
O118 C117 1.227 . S
N119 Co105 2.140 . S
N119 C122 1.346 . S
N119 C123 1.345 . S
C120 C121 1.387 . S
C120 C124 1.391 . S
C121 C120 1.387 . S
C121 C122 1.369 . S
C121 H130 0.929 . S
C122 N119 1.346 . S
C122 C121 1.369 . S
C122 H125 0.928 . S
C123 N119 1.345 . S
C123 C124 1.371 . S
C123 H126 0.931 . S
C124 C120 1.391 . S
C124 C123 1.371 . S
C124 H131 0.930 . S
H125 C122 0.928 . S
H126 C123 0.931 . S
H127 C103 0.930 . S
H128 C100 0.930 . S
H129 C109 0.930 . S
H130 C121 0.929 . S
H131 C124 0.930 . S
C132 C133 1.351 . S
C132 N135 1.368 . S
C132 H137 0.931 . S
C133 C132 1.351 . S
C133 N134 1.373 . S
C133 H161 0.930 . S
N134 C133 1.373 . S
N134 C136 1.340 . S
N135 C132 1.368 . S
N135 C136 1.321 . S
N135 Co138 2.135 . S
C136 N134 1.340 . S
C136 N135 1.321 . S
C136 H160 0.930 . S
H137 C132 0.931 . S
Co138 N135 2.135 . S
Co138 N141 2.121 1_556 S
Co138 O146 2.055 . S
Co138 O149 2.039 1_556 S
Co138 N152 2.140 . S
C139 O140 1.227 1_554 S
C139 O149 1.265 . S
O140 C139 1.227 1_556 S
N141 Co138 2.121 1_554 S
N141 C143 1.375 . S
N141 C144 1.313 . S
C142 C143 1.338 . S
C142 N145 1.377 . S
C142 H162 0.930 . S
C143 N141 1.375 . S
C143 C142 1.338 . S
C143 H147 0.931 . S
C144 N141 1.313 . S
C144 N145 1.344 . S
C144 H148 0.930 . S
N145 C142 1.377 . S
N145 C144 1.344 . S
O146 Co138 2.055 . S
O146 C150 1.253 . S
H147 C143 0.931 . S
H148 C144 0.930 . S
O149 Co138 2.039 1_554 S
O149 C139 1.265 . S
C150 O146 1.253 . S
C150 O151 1.227 . S
O151 C150 1.227 . S
N152 Co138 2.140 . S
N152 C155 1.346 . S
N152 C156 1.345 . S
C153 C154 1.387 . S
C153 C157 1.391 . S
C154 C153 1.387 . S
C154 C155 1.369 . S
C154 H163 0.929 . S
C155 N152 1.346 . S
C155 C154 1.369 . S
C155 H158 0.928 . S
C156 N152 1.345 . S
C156 C157 1.371 . S
C156 H159 0.931 . S
C157 C153 1.391 . S
C157 C156 1.371 . S
C157 H164 0.930 . S
H158 C155 0.928 . S
H159 C156 0.931 . S
H160 C136 0.930 . S
H161 C133 0.930 . S
H162 C142 0.930 . S
H163 C154 0.929 . S
H164 C157 0.930 . S
C165 C166 1.351 . S
C165 N168 1.368 . S
C165 H170 0.931 . S
C166 C165 1.351 . S
C166 N167 1.373 . S
C166 H194 0.930 . S
N167 C166 1.373 . S
N167 C169 1.340 . S
N168 C165 1.368 . S
N168 C169 1.321 . S
N168 Co171 2.135 . S
C169 N167 1.340 . S
C169 N168 1.321 . S
C169 H193 0.930 . S
H170 C165 0.931 . S
Co171 N168 2.135 . S
Co171 N174 2.121 1_554 S
Co171 O179 2.055 . S
Co171 O182 2.039 1_554 S
Co171 N185 2.140 . S
C172 O173 1.227 1_556 S
C172 O182 1.265 . S
O173 C172 1.227 1_554 S
N174 Co171 2.121 1_556 S
N174 C176 1.375 . S
N174 C177 1.313 . S
C175 C176 1.338 . S
C175 N178 1.377 . S
C175 H195 0.930 . S
C176 N174 1.375 . S
C176 C175 1.338 . S
C176 H180 0.931 . S
C177 N174 1.313 . S
C177 N178 1.344 . S
C177 H181 0.930 . S
N178 C175 1.377 . S
N178 C177 1.344 . S
O179 Co171 2.055 . S
O179 C183 1.253 . S
H180 C176 0.931 . S
H181 C177 0.930 . S
O182 Co171 2.039 1_556 S
O182 C172 1.265 . S
C183 O179 1.253 . S
C183 O184 1.227 . S
O184 C183 1.227 . S
N185 Co171 2.140 . S
N185 C188 1.346 . S
N185 C189 1.345 . S
C186 C187 1.387 . S
C186 C190 1.391 . S
C187 C186 1.387 . S
C187 C188 1.369 . S
C187 H196 0.929 . S
C188 N185 1.346 . S
C188 C187 1.369 . S
C188 H191 0.928 . S
C189 N185 1.345 . S
C189 C190 1.371 . S
C189 H192 0.931 . S
C190 C186 1.391 . S
C190 C189 1.371 . S
C190 H197 0.930 . S
H191 C188 0.928 . S
H192 C189 0.931 . S
H193 C169 0.930 . S
H194 C166 0.930 . S
H195 C175 0.930 . S
H196 C187 0.929 . S
H197 C190 0.930 . S
C198 C199 1.351 . S
C198 N201 1.368 . S
C198 H203 0.931 . S
C199 C198 1.351 . S
C199 N200 1.373 . S
C199 H227 0.930 . S
N200 C199 1.373 . S
N200 C202 1.340 . S
N201 C198 1.368 . S
N201 C202 1.321 . S
N201 Co204 2.135 . S
C202 N200 1.340 . S
C202 N201 1.321 . S
C202 H226 0.930 . S
H203 C198 0.931 . S
Co204 N201 2.135 . S
Co204 N207 2.121 1_556 S
Co204 O212 2.055 . S
Co204 O215 2.039 1_556 S
Co204 N218 2.140 . S
C205 O206 1.227 1_554 S
C205 O215 1.265 . S
O206 C205 1.227 1_556 S
N207 Co204 2.121 1_554 S
N207 C209 1.375 . S
N207 C210 1.313 . S
C208 C209 1.338 . S
C208 N211 1.377 . S
C208 H228 0.930 . S
C209 N207 1.375 . S
C209 C208 1.338 . S
C209 H213 0.931 . S
C210 N207 1.313 . S
C210 N211 1.344 . S
C210 H214 0.930 . S
N211 C208 1.377 . S
N211 C210 1.344 . S
O212 Co204 2.055 . S
O212 C216 1.253 . S
H213 C209 0.931 . S
H214 C210 0.930 . S
O215 Co204 2.039 1_554 S
O215 C205 1.265 . S
C216 O212 1.253 . S
C216 O217 1.227 . S
O217 C216 1.227 . S
N218 Co204 2.140 . S
N218 C221 1.346 . S
N218 C222 1.345 . S
C219 C220 1.387 . S
C219 C223 1.391 . S
C220 C219 1.387 . S
C220 C221 1.369 . S
C220 H229 0.929 . S
C221 N218 1.346 . S
C221 C220 1.369 . S
C221 H224 0.928 . S
C222 N218 1.345 . S
C222 C223 1.371 . S
C222 H225 0.931 . S
C223 C219 1.391 . S
C223 C222 1.371 . S
C223 H230 0.930 . S
H224 C221 0.928 . S
H225 C222 0.931 . S
H226 C202 0.930 . S
H227 C199 0.930 . S
H228 C208 0.930 . S
H229 C220 0.929 . S
H230 C223 0.930 . S
C231 C232 1.351 . S
C231 N234 1.368 . S
C231 H236 0.931 . S
C232 C231 1.351 . S
C232 N233 1.373 . S
C232 H260 0.930 . S
N233 C232 1.373 . S
N233 C235 1.340 . S
N234 C231 1.368 . S
N234 C235 1.321 . S
N234 Co237 2.135 . S
C235 N233 1.340 . S
C235 N234 1.321 . S
C235 H259 0.930 . S
H236 C231 0.931 . S
Co237 N234 2.135 . S
Co237 N240 2.121 1_554 S
Co237 O245 2.055 . S
Co237 O248 2.039 1_554 S
Co237 N251 2.140 . S
C238 O239 1.227 1_556 S
C238 O248 1.265 . S
O239 C238 1.227 1_554 S
N240 Co237 2.121 1_556 S
N240 C242 1.375 . S
N240 C243 1.313 . S
C241 C242 1.338 . S
C241 N244 1.377 . S
C241 H261 0.930 . S
C242 N240 1.375 . S
C242 C241 1.338 . S
C242 H246 0.931 . S
C243 N240 1.313 . S
C243 N244 1.344 . S
C243 H247 0.930 . S
N244 C241 1.377 . S
N244 C243 1.344 . S
O245 Co237 2.055 . S
O245 C249 1.253 . S
H246 C242 0.931 . S
H247 C243 0.930 . S
O248 Co237 2.039 1_556 S
O248 C238 1.265 . S
C249 O245 1.253 . S
C249 O250 1.227 . S
O250 C249 1.227 . S
N251 Co237 2.140 . S
N251 C254 1.346 . S
N251 C255 1.345 . S
C252 C253 1.387 . S
C252 C256 1.391 . S
C253 C252 1.387 . S
C253 C254 1.369 . S
C253 H262 0.929 . S
C254 N251 1.346 . S
C254 C253 1.369 . S
C254 H257 0.928 . S
C255 N251 1.345 . S
C255 C256 1.371 . S
C255 H258 0.931 . S
C256 C252 1.391 . S
C256 C255 1.371 . S
C256 H263 0.930 . S
H257 C254 0.928 . S
H258 C255 0.931 . S
H259 C235 0.930 . S
H260 C232 0.930 . S
H261 C241 0.930 . S
H262 C253 0.929 . S
H263 C256 0.930 . S
C264 C265 1.351 . S
C264 N267 1.368 . S
C264 H269 0.931 . S
C265 C264 1.351 . S
C265 N266 1.373 . S
C265 H293 0.930 . S
N266 C265 1.373 . S
N266 C268 1.340 . S
N267 C264 1.368 . S
N267 C268 1.321 . S
N267 Co270 2.135 . S
C268 N266 1.340 . S
C268 N267 1.321 . S
C268 H292 0.930 . S
H269 C264 0.931 . S
Co270 N267 2.135 . S
Co270 N273 2.121 . S
Co270 O278 2.055 . S
Co270 O281 2.039 . S
Co270 N284 2.140 . S
C271 O272 1.227 . S
C271 O281 1.265 . S
O272 C271 1.227 . S
N273 Co270 2.121 . S
N273 C275 1.375 . S
N273 C276 1.313 . S
C274 C275 1.338 . S
C274 N277 1.377 . S
C274 H294 0.930 . S
C275 N273 1.375 . S
C275 C274 1.338 . S
C275 H279 0.931 . S
C276 N273 1.313 . S
C276 N277 1.344 . S
C276 H280 0.930 . S
N277 C274 1.377 . S
N277 C276 1.344 . S
O278 Co270 2.055 . S
O278 C282 1.253 . S
H279 C275 0.931 . S
H280 C276 0.930 . S
O281 Co270 2.039 . S
O281 C271 1.265 . S
C282 O278 1.253 . S
C282 O283 1.227 . S
O283 C282 1.227 . S
N284 Co270 2.140 . S
N284 C287 1.346 . S
N284 C288 1.345 . S
C285 C286 1.387 . S
C285 C289 1.391 . S
C286 C285 1.387 . S
C286 C287 1.369 . S
C286 H295 0.929 . S
C287 N284 1.346 . S
C287 C286 1.369 . S
C287 H290 0.928 . S
C288 N284 1.345 . S
C288 C289 1.371 . S
C288 H291 0.931 . S
C289 C285 1.391 . S
C289 C288 1.371 . S
C289 H296 0.930 . S
H290 C287 0.928 . S
H291 C288 0.931 . S
H292 C268 0.930 . S
H293 C265 0.930 . S
H294 C274 0.930 . S
H295 C286 0.929 . S
H296 C289 0.930 . S
C297 C298 1.351 . S
C297 N300 1.368 . S
C297 H302 0.931 . S
C298 C297 1.351 . S
C298 N299 1.373 . S
C298 H326 0.930 . S
N299 C298 1.373 . S
N299 C301 1.340 . S
N300 C297 1.368 . S
N300 C301 1.321 . S
N300 Co303 2.135 . S
C301 N299 1.340 . S
C301 N300 1.321 . S
C301 H325 0.930 . S
H302 C297 0.931 . S
Co303 N300 2.135 . S
Co303 N306 2.121 . S
Co303 O311 2.055 . S
Co303 O314 2.039 . S
Co303 N317 2.140 . S
C304 O305 1.227 . S
C304 O314 1.265 . S
O305 C304 1.227 . S
N306 Co303 2.121 . S
N306 C308 1.375 . S
N306 C309 1.313 . S
C307 C308 1.338 . S
C307 N310 1.377 . S
C307 H327 0.930 . S
C308 N306 1.375 . S
C308 C307 1.338 . S
C308 H312 0.931 . S
C309 N306 1.313 . S
C309 N310 1.344 . S
C309 H313 0.930 . S
N310 C307 1.377 . S
N310 C309 1.344 . S
O311 Co303 2.055 . S
O311 C315 1.253 . S
H312 C308 0.931 . S
H313 C309 0.930 . S
O314 Co303 2.039 . S
O314 C304 1.265 . S
C315 O311 1.253 . S
C315 O316 1.227 . S
O316 C315 1.227 . S
N317 Co303 2.140 . S
N317 C320 1.346 . S
N317 C321 1.345 . S
C318 C319 1.387 . S
C318 C322 1.391 . S
C319 C318 1.387 . S
C319 C320 1.369 . S
C319 H328 0.929 . S
C320 N317 1.346 . S
C320 C319 1.369 . S
C320 H323 0.928 . S
C321 N317 1.345 . S
C321 C322 1.371 . S
C321 H324 0.931 . S
C322 C318 1.391 . S
C322 C321 1.371 . S
C322 H329 0.930 . S
H323 C320 0.928 . S
H324 C321 0.931 . S
H325 C301 0.930 . S
H326 C298 0.930 . S
H327 C307 0.930 . S
H328 C319 0.929 . S
H329 C322 0.930 . S
C330 C331 1.351 . S
C330 N333 1.368 . S
C330 H335 0.931 . S
C331 C330 1.351 . S
C331 N332 1.373 . S
C331 H359 0.930 . S
N332 C331 1.373 . S
N332 C334 1.340 . S
N333 C330 1.368 . S
N333 C334 1.321 . S
N333 Co336 2.135 . S
C334 N332 1.340 . S
C334 N333 1.321 . S
C334 H358 0.930 . S
H335 C330 0.931 . S
Co336 N333 2.135 . S
Co336 N339 2.121 . S
Co336 O344 2.055 . S
Co336 O347 2.039 . S
Co336 N350 2.140 . S
C337 O338 1.227 . S
C337 O347 1.265 . S
O338 C337 1.227 . S
N339 Co336 2.121 . S
N339 C341 1.375 . S
N339 C342 1.313 . S
C340 C341 1.338 . S
C340 N343 1.377 . S
C340 H360 0.930 . S
C341 N339 1.375 . S
C341 C340 1.338 . S
C341 H345 0.931 . S
C342 N339 1.313 . S
C342 N343 1.344 . S
C342 H346 0.930 . S
N343 C340 1.377 . S
N343 C342 1.344 . S
O344 Co336 2.055 . S
O344 C348 1.253 . S
H345 C341 0.931 . S
H346 C342 0.930 . S
O347 Co336 2.039 . S
O347 C337 1.265 . S
C348 O344 1.253 . S
C348 O349 1.227 . S
O349 C348 1.227 . S
N350 Co336 2.140 . S
N350 C353 1.346 . S
N350 C354 1.345 . S
C351 C352 1.387 . S
C351 C355 1.391 . S
C352 C351 1.387 . S
C352 C353 1.369 . S
C352 H361 0.929 . S
C353 N350 1.346 . S
C353 C352 1.369 . S
C353 H356 0.928 . S
C354 N350 1.345 . S
C354 C355 1.371 . S
C354 H357 0.931 . S
C355 C351 1.391 . S
C355 C354 1.371 . S
C355 H362 0.930 . S
H356 C353 0.928 . S
H357 C354 0.931 . S
H358 C334 0.930 . S
H359 C331 0.930 . S
H360 C340 0.930 . S
H361 C352 0.929 . S
H362 C355 0.930 . S
C363 C364 1.351 . S
C363 N366 1.368 . S
C363 H368 0.931 . S
C364 C363 1.351 . S
C364 N365 1.373 . S
C364 H392 0.930 . S
N365 C364 1.373 . S
N365 C367 1.340 . S
N366 C363 1.368 . S
N366 C367 1.321 . S
N366 Co369 2.135 . S
C367 N365 1.340 . S
C367 N366 1.321 . S
C367 H391 0.930 . S
H368 C363 0.931 . S
Co369 N366 2.135 . S
Co369 N372 2.121 . S
Co369 O377 2.055 . S
Co369 O380 2.039 . S
Co369 N383 2.140 . S
C370 O371 1.227 . S
C370 O380 1.265 . S
O371 C370 1.227 . S
N372 Co369 2.121 . S
N372 C374 1.375 . S
N372 C375 1.313 . S
C373 C374 1.338 . S
C373 N376 1.377 . S
C373 H393 0.930 . S
C374 N372 1.375 . S
C374 C373 1.338 . S
C374 H378 0.931 . S
C375 N372 1.313 . S
C375 N376 1.344 . S
C375 H379 0.930 . S
N376 C373 1.377 . S
N376 C375 1.344 . S
O377 Co369 2.055 . S
O377 C381 1.253 . S
H378 C374 0.931 . S
H379 C375 0.930 . S
O380 Co369 2.039 . S
O380 C370 1.265 . S
C381 O377 1.253 . S
C381 O382 1.227 . S
O382 C381 1.227 . S
N383 Co369 2.140 . S
N383 C386 1.346 . S
N383 C387 1.345 . S
C384 C385 1.387 . S
C384 C388 1.391 . S
C385 C384 1.387 . S
C385 C386 1.369 . S
C385 H394 0.929 . S
C386 N383 1.346 . S
C386 C385 1.369 . S
C386 H389 0.928 . S
C387 N383 1.345 . S
C387 C388 1.371 . S
C387 H390 0.931 . S
C388 C384 1.391 . S
C388 C387 1.371 . S
C388 H395 0.930 . S
H389 C386 0.928 . S
H390 C387 0.931 . S
H391 C367 0.930 . S
H392 C364 0.930 . S
H393 C373 0.930 . S
H394 C385 0.929 . S
H395 C388 0.930 . S
C396 C397 1.351 . S
C396 N399 1.368 . S
C396 H401 0.931 . S
C397 C396 1.351 . S
C397 N398 1.373 . S
C397 H425 0.930 . S
N398 C397 1.373 . S
N398 C400 1.340 . S
N399 C396 1.368 . S
N399 C400 1.321 . S
N399 Co402 2.135 . S
C400 N398 1.340 . S
C400 N399 1.321 . S
C400 H424 0.930 . S
H401 C396 0.931 . S
Co402 N399 2.135 . S
Co402 N405 2.121 . S
Co402 O410 2.055 . S
Co402 O413 2.039 . S
Co402 N416 2.140 . S
C403 O404 1.227 . S
C403 O413 1.265 . S
O404 C403 1.227 . S
N405 Co402 2.121 . S
N405 C407 1.375 . S
N405 C408 1.313 . S
C406 C407 1.338 . S
C406 N409 1.377 . S
C406 H426 0.930 . S
C407 N405 1.375 . S
C407 C406 1.338 . S
C407 H411 0.931 . S
C408 N405 1.313 . S
C408 N409 1.344 . S
C408 H412 0.930 . S
N409 C406 1.377 . S
N409 C408 1.344 . S
O410 Co402 2.055 . S
O410 C414 1.253 . S
H411 C407 0.931 . S
H412 C408 0.930 . S
O413 Co402 2.039 . S
O413 C403 1.265 . S
C414 O410 1.253 . S
C414 O415 1.227 . S
O415 C414 1.227 . S
N416 Co402 2.140 . S
N416 C419 1.346 . S
N416 C420 1.345 . S
C417 C418 1.387 . S
C417 C421 1.391 . S
C418 C417 1.387 . S
C418 C419 1.369 . S
C418 H427 0.929 . S
C419 N416 1.346 . S
C419 C418 1.369 . S
C419 H422 0.928 . S
C420 N416 1.345 . S
C420 C421 1.371 . S
C420 H423 0.931 . S
C421 C417 1.391 . S
C421 C420 1.371 . S
C421 H428 0.930 . S
H422 C419 0.928 . S
H423 C420 0.931 . S
H424 C400 0.930 . S
H425 C397 0.930 . S
H426 C406 0.930 . S
H427 C418 0.929 . S
H428 C421 0.930 . S
C429 C430 1.351 . S
C429 N432 1.368 . S
C429 H434 0.931 . S
C430 C429 1.351 . S
C430 N431 1.373 . S
C430 H458 0.930 . S
N431 C430 1.373 . S
N431 C433 1.340 . S
N432 C429 1.368 . S
N432 C433 1.321 . S
N432 Co435 2.135 . S
C433 N431 1.340 . S
C433 N432 1.321 . S
C433 H457 0.930 . S
H434 C429 0.931 . S
Co435 N432 2.135 . S
Co435 N438 2.121 . S
Co435 O443 2.055 . S
Co435 O446 2.039 . S
Co435 N449 2.140 . S
C436 O437 1.227 . S
C436 O446 1.265 . S
O437 C436 1.227 . S
N438 Co435 2.121 . S
N438 C440 1.375 . S
N438 C441 1.313 . S
C439 C440 1.338 . S
C439 N442 1.377 . S
C439 H459 0.930 . S
C440 N438 1.375 . S
C440 C439 1.338 . S
C440 H444 0.931 . S
C441 N438 1.313 . S
C441 N442 1.344 . S
C441 H445 0.930 . S
N442 C439 1.377 . S
N442 C441 1.344 . S
O443 Co435 2.055 . S
O443 C447 1.253 . S
H444 C440 0.931 . S
H445 C441 0.930 . S
O446 Co435 2.039 . S
O446 C436 1.265 . S
C447 O443 1.253 . S
C447 O448 1.227 . S
O448 C447 1.227 . S
N449 Co435 2.140 . S
N449 C452 1.346 . S
N449 C453 1.345 . S
C450 C451 1.387 . S
C450 C454 1.391 . S
C451 C450 1.387 . S
C451 C452 1.369 . S
C451 H460 0.929 . S
C452 N449 1.346 . S
C452 C451 1.369 . S
C452 H455 0.928 . S
C453 N449 1.345 . S
C453 C454 1.371 . S
C453 H456 0.931 . S
C454 C450 1.391 . S
C454 C453 1.371 . S
C454 H461 0.930 . S
H455 C452 0.928 . S
H456 C453 0.931 . S
H457 C433 0.930 . S
H458 C430 0.930 . S
H459 C439 0.930 . S
H460 C451 0.929 . S
H461 C454 0.930 . S
C462 C463 1.351 . S
C462 N465 1.368 . S
C462 H467 0.931 . S
C463 C462 1.351 . S
C463 N464 1.373 . S
C463 H491 0.930 . S
N464 C463 1.373 . S
N464 C466 1.340 . S
N465 C462 1.368 . S
N465 C466 1.321 . S
N465 Co468 2.135 . S
C466 N464 1.340 . S
C466 N465 1.321 . S
C466 H490 0.930 . S
H467 C462 0.931 . S
Co468 N465 2.135 . S
Co468 N471 2.121 . S
Co468 O476 2.055 . S
Co468 O479 2.039 . S
Co468 N482 2.140 . S
C469 O470 1.227 . S
C469 O479 1.265 . S
O470 C469 1.227 . S
N471 Co468 2.121 . S
N471 C473 1.375 . S
N471 C474 1.313 . S
C472 C473 1.338 . S
C472 N475 1.377 . S
C472 H492 0.930 . S
C473 N471 1.375 . S
C473 C472 1.338 . S
C473 H477 0.931 . S
C474 N471 1.313 . S
C474 N475 1.344 . S
C474 H478 0.930 . S
N475 C472 1.377 . S
N475 C474 1.344 . S
O476 Co468 2.055 . S
O476 C480 1.253 . S
H477 C473 0.931 . S
H478 C474 0.930 . S
O479 Co468 2.039 . S
O479 C469 1.265 . S
C480 O476 1.253 . S
C480 O481 1.227 . S
O481 C480 1.227 . S
N482 Co468 2.140 . S
N482 C485 1.346 . S
N482 C486 1.345 . S
C483 C484 1.387 . S
C483 C487 1.391 . S
C484 C483 1.387 . S
C484 C485 1.369 . S
C484 H493 0.929 . S
C485 N482 1.346 . S
C485 C484 1.369 . S
C485 H488 0.928 . S
C486 N482 1.345 . S
C486 C487 1.371 . S
C486 H489 0.931 . S
C487 C483 1.391 . S
C487 C486 1.371 . S
C487 H494 0.930 . S
H488 C485 0.928 . S
H489 C486 0.931 . S
H490 C466 0.930 . S
H491 C463 0.930 . S
H492 C472 0.930 . S
H493 C484 0.929 . S
H494 C487 0.930 . S
C495 C496 1.351 . S
C495 N498 1.368 . S
C495 H500 0.931 . S
C496 C495 1.351 . S
C496 N497 1.373 . S
C496 H524 0.930 . S
N497 C496 1.373 . S
N497 C499 1.340 . S
N498 C495 1.368 . S
N498 C499 1.321 . S
N498 Co501 2.135 . S
C499 N497 1.340 . S
C499 N498 1.321 . S
C499 H523 0.930 . S
H500 C495 0.931 . S
Co501 N498 2.135 . S
Co501 N504 2.121 . S
Co501 O509 2.055 . S
Co501 O512 2.039 . S
Co501 N515 2.140 . S
C502 O503 1.227 . S
C502 O512 1.265 . S
O503 C502 1.227 . S
N504 Co501 2.121 . S
N504 C506 1.375 . S
N504 C507 1.313 . S
C505 C506 1.338 . S
C505 N508 1.377 . S
C505 H525 0.930 . S
C506 N504 1.375 . S
C506 C505 1.338 . S
C506 H510 0.931 . S
C507 N504 1.313 . S
C507 N508 1.344 . S
C507 H511 0.930 . S
N508 C505 1.377 . S
N508 C507 1.344 . S
O509 Co501 2.055 . S
O509 C513 1.253 . S
H510 C506 0.931 . S
H511 C507 0.930 . S
O512 Co501 2.039 . S
O512 C502 1.265 . S
C513 O509 1.253 . S
C513 O514 1.227 . S
O514 C513 1.227 . S
N515 Co501 2.140 . S
N515 C518 1.346 . S
N515 C519 1.345 . S
C516 C517 1.387 . S
C516 C520 1.391 . S
C517 C516 1.387 . S
C517 C518 1.369 . S
C517 H526 0.929 . S
C518 N515 1.346 . S
C518 C517 1.369 . S
C518 H521 0.928 . S
C519 N515 1.345 . S
C519 C520 1.371 . S
C519 H522 0.931 . S
C520 C516 1.391 . S
C520 C519 1.371 . S
C520 H527 0.930 . S
H521 C518 0.928 . S
H522 C519 0.931 . S
H523 C499 0.930 . S
H524 C496 0.930 . S
H525 C505 0.930 . S
H526 C517 0.929 . S
H527 C520 0.930 . S
H528 C536 0.929 . S
H529 C538 0.930 . S
H530 C540 0.930 . S
H531 C543 0.929 . S
H532 C546 0.930 . S
H533 C548 0.960 . S
H534 C548 0.960 . S
H535 C548 0.960 . S
C536 H528 0.929 . S
C536 C537 1.377 . S
C536 C538 1.384 . S
C537 C536 1.377 . S
C537 C543 1.390 . S
C538 H529 0.930 . S
C538 C536 1.384 . S
C538 C539 1.372 . S
C539 C538 1.372 . S
C539 C540 1.400 . S
C539 C544 1.490 . S
C540 H530 0.930 . S
C540 C539 1.400 . S
C540 C543 1.386 . S
H541 C557 0.930 . S
H542 C558 0.931 . S
C543 H531 0.929 . S
C543 C537 1.390 . S
C543 C540 1.386 . S
C544 C539 1.490 . S
C544 C546 1.395 . S
C544 C547 1.403 . S
H545 C551 0.930 . S
C546 H532 0.930 . S
C546 C544 1.395 . S
C546 C549 1.403 . S
C547 C544 1.403 . S
C547 C548 1.524 . S
C547 C551 1.400 . S
C548 H533 0.960 . S
C548 H534 0.960 . S
C548 H535 0.960 . S
C548 C547 1.524 . S
C549 C546 1.403 . S
C549 C550 1.392 . S
C549 C553 1.495 . S
C550 C549 1.392 . S
C550 C551 1.385 . S
C550 C552 1.478 . S
C551 H545 0.930 . S
C551 C547 1.400 . S
C551 C550 1.385 . S
C552 C550 1.478 . S
C552 C554 1.381 . S
C552 C558 1.383 . S
C553 C549 1.495 . S
C553 H559 0.959 . S
C553 H560 0.961 . S
C553 H561 0.960 . S
C554 C552 1.381 . S
C554 C555 1.394 . S
C554 H562 0.930 . S
C555 C554 1.394 . S
C555 C556 1.383 . S
C555 H563 0.929 . S
C556 C555 1.383 . S
C556 C557 1.377 . S
C557 H541 0.930 . S
C557 C556 1.377 . S
C557 C558 1.379 . S
C558 H542 0.931 . S
C558 C552 1.383 . S
C558 C557 1.379 . S
H559 C553 0.959 . S
H560 C553 0.961 . S
H561 C553 0.960 . S
H562 C554 0.930 . S
H563 C555 0.929 . S
H564 C572 0.929 . S
H565 C574 0.930 . S
H566 C576 0.930 . S
H567 C579 0.929 . S
H568 C582 0.930 . S
H569 C584 0.960 . S
H570 C584 0.960 . S
H571 C584 0.960 . S
C572 H564 0.929 . S
C572 C573 1.377 . S
C572 C574 1.384 . S
C573 C572 1.377 . S
C573 C579 1.390 . S
C574 H565 0.930 . S
C574 C572 1.384 . S
C574 C575 1.372 . S
C575 C574 1.372 . S
C575 C576 1.400 . S
C575 C580 1.490 . S
C576 H566 0.930 . S
C576 C575 1.400 . S
C576 C579 1.386 . S
H577 C593 0.930 . S
H578 C594 0.931 . S
C579 H567 0.929 . S
C579 C573 1.390 . S
C579 C576 1.386 . S
C580 C575 1.490 . S
C580 C582 1.395 . S
C580 C583 1.403 . S
H581 C587 0.930 . S
C582 H568 0.930 . S
C582 C580 1.395 . S
C582 C585 1.403 . S
C583 C580 1.403 . S
C583 C584 1.524 . S
C583 C587 1.400 . S
C584 H569 0.960 . S
C584 H570 0.960 . S
C584 H571 0.960 . S
C584 C583 1.524 . S
C585 C582 1.403 . S
C585 C586 1.392 . S
C585 C589 1.495 . S
C586 C585 1.392 . S
C586 C587 1.385 . S
C586 C588 1.478 . S
C587 H581 0.930 . S
C587 C583 1.400 . S
C587 C586 1.385 . S
C588 C586 1.478 . S
C588 C590 1.381 . S
C588 C594 1.383 . S
C589 C585 1.495 . S
C589 H595 0.959 . S
C589 H596 0.961 . S
C589 H597 0.960 . S
C590 C588 1.381 . S
C590 C591 1.394 . S
C590 H598 0.930 . S
C591 C590 1.394 . S
C591 C592 1.383 . S
C591 H599 0.929 . S
C592 C591 1.383 . S
C592 C593 1.377 . S
C593 H577 0.930 . S
C593 C592 1.377 . S
C593 C594 1.379 . S
C594 H578 0.931 . S
C594 C588 1.383 . S
C594 C593 1.379 . S
H595 C589 0.959 . S
H596 C589 0.961 . S
H597 C589 0.960 . S
H598 C590 0.930 . S
H599 C591 0.929 . S
H600 C608 0.929 . S
H601 C610 0.930 . S
H602 C612 0.930 . S
H603 C615 0.929 . S
H604 C618 0.930 . S
H605 C620 0.960 . S
H606 C620 0.960 . S
H607 C620 0.960 . S
C608 H600 0.929 . S
C608 C609 1.377 . S
C608 C610 1.384 . S
C609 C608 1.377 . S
C609 C615 1.390 . S
C610 H601 0.930 . S
C610 C608 1.384 . S
C610 C611 1.372 . S
C611 C610 1.372 . S
C611 C612 1.400 . S
C611 C616 1.490 . S
C612 H602 0.930 . S
C612 C611 1.400 . S
C612 C615 1.386 . S
H613 C629 0.930 . S
H614 C630 0.931 . S
C615 H603 0.929 . S
C615 C609 1.390 . S
C615 C612 1.386 . S
C616 C611 1.490 . S
C616 C618 1.395 . S
C616 C619 1.403 . S
H617 C623 0.930 . S
C618 H604 0.930 . S
C618 C616 1.395 . S
C618 C621 1.403 . S
C619 C616 1.403 . S
C619 C620 1.524 . S
C619 C623 1.400 . S
C620 H605 0.960 . S
C620 H606 0.960 . S
C620 H607 0.960 . S
C620 C619 1.524 . S
C621 C618 1.403 . S
C621 C622 1.392 . S
C621 C625 1.495 . S
C622 C621 1.392 . S
C622 C623 1.385 . S
C622 C624 1.478 . S
C623 H617 0.930 . S
C623 C619 1.400 . S
C623 C622 1.385 . S
C624 C622 1.478 . S
C624 C626 1.381 . S
C624 C630 1.383 . S
C625 C621 1.495 . S
C625 H631 0.959 . S
C625 H632 0.961 . S
C625 H633 0.960 . S
C626 C624 1.381 . S
C626 C627 1.394 . S
C626 H634 0.930 . S
C627 C626 1.394 . S
C627 C628 1.383 . S
C627 H635 0.929 . S
C628 C627 1.383 . S
C628 C629 1.377 . S
C629 H613 0.930 . S
C629 C628 1.377 . S
C629 C630 1.379 . S
C630 H614 0.931 . S
C630 C624 1.383 . S
C630 C629 1.379 . S
H631 C625 0.959 . S
H632 C625 0.961 . S
H633 C625 0.960 . S
H634 C626 0.930 . S
H635 C627 0.929 . S
H636 C644 0.929 . S
H637 C646 0.930 . S
H638 C648 0.930 . S
H639 C651 0.929 . S
H640 C654 0.930 . S
H641 C656 0.960 . S
H642 C656 0.960 . S
H643 C656 0.960 . S
C644 H636 0.929 . S
C644 C645 1.377 . S
C644 C646 1.384 . S
C645 C644 1.377 . S
C645 C651 1.390 . S
C646 H637 0.930 . S
C646 C644 1.384 . S
C646 C647 1.372 . S
C647 C646 1.372 . S
C647 C648 1.400 . S
C647 C652 1.490 . S
C648 H638 0.930 . S
C648 C647 1.400 . S
C648 C651 1.386 . S
H649 C665 0.930 . S
H650 C666 0.931 . S
C651 H639 0.929 . S
C651 C645 1.390 . S
C651 C648 1.386 . S
C652 C647 1.490 . S
C652 C654 1.395 . S
C652 C655 1.403 . S
H653 C659 0.930 . S
C654 H640 0.930 . S
C654 C652 1.395 . S
C654 C657 1.403 . S
C655 C652 1.403 . S
C655 C656 1.524 . S
C655 C659 1.400 . S
C656 H641 0.960 . S
C656 H642 0.960 . S
C656 H643 0.960 . S
C656 C655 1.524 . S
C657 C654 1.403 . S
C657 C658 1.392 . S
C657 C661 1.495 . S
C658 C657 1.392 . S
C658 C659 1.385 . S
C658 C660 1.478 . S
C659 H653 0.930 . S
C659 C655 1.400 . S
C659 C658 1.385 . S
C660 C658 1.478 . S
C660 C662 1.381 . S
C660 C666 1.383 . S
C661 C657 1.495 . S
C661 H667 0.959 . S
C661 H668 0.961 . S
C661 H669 0.960 . S
C662 C660 1.381 . S
C662 C663 1.394 . S
C662 H670 0.930 . S
C663 C662 1.394 . S
C663 C664 1.383 . S
C663 H671 0.929 . S
C664 C663 1.383 . S
C664 C665 1.377 . S
C665 H649 0.930 . S
C665 C664 1.377 . S
C665 C666 1.379 . S
C666 H650 0.931 . S
C666 C660 1.383 . S
C666 C665 1.379 . S
H667 C661 0.959 . S
H668 C661 0.961 . S
H669 C661 0.960 . S
H670 C662 0.930 . S
H671 C663 0.929 . S
H672 C680 0.929 . S
H673 C682 0.930 . S
H674 C684 0.930 . S
H675 C687 0.929 . S
H676 C690 0.930 . S
H677 C692 0.960 . S
H678 C692 0.960 . S
H679 C692 0.960 . S
C680 H672 0.929 . S
C680 C681 1.377 . S
C680 C682 1.384 . S
C681 C680 1.377 . S
C681 C687 1.390 . S
C682 H673 0.930 . S
C682 C680 1.384 . S
C682 C683 1.372 . S
C683 C682 1.372 . S
C683 C684 1.400 . S
C683 C688 1.490 . S
C684 H674 0.930 . S
C684 C683 1.400 . S
C684 C687 1.386 . S
H685 C701 0.930 . S
H686 C702 0.931 . S
C687 H675 0.929 . S
C687 C681 1.390 . S
C687 C684 1.386 . S
C688 C683 1.490 . S
C688 C690 1.395 . S
C688 C691 1.403 . S
H689 C695 0.930 . S
C690 H676 0.930 . S
C690 C688 1.395 . S
C690 C693 1.403 . S
C691 C688 1.403 . S
C691 C692 1.524 . S
C691 C695 1.400 . S
C692 H677 0.960 . S
C692 H678 0.960 . S
C692 H679 0.960 . S
C692 C691 1.524 . S
C693 C690 1.403 . S
C693 C694 1.392 . S
C693 C697 1.495 . S
C694 C693 1.392 . S
C694 C695 1.385 . S
C694 C696 1.478 . S
C695 H689 0.930 . S
C695 C691 1.400 . S
C695 C694 1.385 . S
C696 C694 1.478 . S
C696 C698 1.381 . S
C696 C702 1.383 . S
C697 C693 1.495 . S
C697 H703 0.959 . S
C697 H704 0.961 . S
C697 H705 0.960 . S
C698 C696 1.381 . S
C698 C699 1.394 . S
C698 H706 0.930 . S
C699 C698 1.394 . S
C699 C700 1.383 . S
C699 H707 0.929 . S
C700 C699 1.383 . S
C700 C701 1.377 . S
C701 H685 0.930 . S
C701 C700 1.377 . S
C701 C702 1.379 . S
C702 H686 0.931 . S
C702 C696 1.383 . S
C702 C701 1.379 . S
H703 C697 0.959 . S
H704 C697 0.961 . S
H705 C697 0.960 . S
H706 C698 0.930 . S
H707 C699 0.929 . S
H708 C716 0.929 . S
H709 C718 0.930 . S
H710 C720 0.930 . S
H711 C723 0.929 . S
H712 C726 0.930 . S
H713 C728 0.960 . S
H714 C728 0.960 . S
H715 C728 0.960 . S
C716 H708 0.929 . S
C716 C717 1.377 . S
C716 C718 1.384 . S
C717 C716 1.377 . S
C717 C723 1.390 . S
C718 H709 0.930 . S
C718 C716 1.384 . S
C718 C719 1.372 . S
C719 C718 1.372 . S
C719 C720 1.400 . S
C719 C724 1.490 . S
C720 H710 0.930 . S
C720 C719 1.400 . S
C720 C723 1.386 . S
H721 C737 0.930 . S
H722 C738 0.931 . S
C723 H711 0.929 . S
C723 C717 1.390 . S
C723 C720 1.386 . S
C724 C719 1.490 . S
C724 C726 1.395 . S
C724 C727 1.403 . S
H725 C731 0.930 . S
C726 H712 0.930 . S
C726 C724 1.395 . S
C726 C729 1.403 . S
C727 C724 1.403 . S
C727 C728 1.524 . S
C727 C731 1.400 . S
C728 H713 0.960 . S
C728 H714 0.960 . S
C728 H715 0.960 . S
C728 C727 1.524 . S
C729 C726 1.403 . S
C729 C730 1.392 . S
C729 C733 1.495 . S
C730 C729 1.392 . S
C730 C731 1.385 . S
C730 C732 1.478 . S
C731 H725 0.930 . S
C731 C727 1.400 . S
C731 C730 1.385 . S
C732 C730 1.478 . S
C732 C734 1.381 . S
C732 C738 1.383 . S
C733 C729 1.495 . S
C733 H739 0.959 . S
C733 H740 0.961 . S
C733 H741 0.960 . S
C734 C732 1.381 . S
C734 C735 1.394 . S
C734 H742 0.930 . S
C735 C734 1.394 . S
C735 C736 1.383 . S
C735 H743 0.929 . S
C736 C735 1.383 . S
C736 C737 1.377 . S
C737 H721 0.930 . S
C737 C736 1.377 . S
C737 C738 1.379 . S
C738 H722 0.931 . S
C738 C732 1.383 . S
C738 C737 1.379 . S
H739 C733 0.959 . S
H740 C733 0.961 . S
H741 C733 0.960 . S
H742 C734 0.930 . S
H743 C735 0.929 . S
H744 C752 0.929 . S
H745 C754 0.930 . S
H746 C756 0.930 . S
H747 C759 0.929 . S
H748 C762 0.930 . S
H749 C764 0.960 . S
H750 C764 0.960 . S
H751 C764 0.960 . S
C752 H744 0.929 . S
C752 C753 1.377 . S
C752 C754 1.384 . S
C753 C752 1.377 . S
C753 C759 1.390 . S
C754 H745 0.930 . S
C754 C752 1.384 . S
C754 C755 1.372 . S
C755 C754 1.372 . S
C755 C756 1.400 . S
C755 C760 1.490 . S
C756 H746 0.930 . S
C756 C755 1.400 . S
C756 C759 1.386 . S
H757 C773 0.930 . S
H758 C774 0.931 . S
C759 H747 0.929 . S
C759 C753 1.390 . S
C759 C756 1.386 . S
C760 C755 1.490 . S
C760 C762 1.395 . S
C760 C763 1.403 . S
H761 C767 0.930 . S
C762 H748 0.930 . S
C762 C760 1.395 . S
C762 C765 1.403 . S
C763 C760 1.403 . S
C763 C764 1.524 . S
C763 C767 1.400 . S
C764 H749 0.960 . S
C764 H750 0.960 . S
C764 H751 0.960 . S
C764 C763 1.524 . S
C765 C762 1.403 . S
C765 C766 1.392 . S
C765 C769 1.495 . S
C766 C765 1.392 . S
C766 C767 1.385 . S
C766 C768 1.478 . S
C767 H761 0.930 . S
C767 C763 1.400 . S
C767 C766 1.385 . S
C768 C766 1.478 . S
C768 C770 1.381 . S
C768 C774 1.383 . S
C769 C765 1.495 . S
C769 H775 0.959 . S
C769 H776 0.961 . S
C769 H777 0.960 . S
C770 C768 1.381 . S
C770 C771 1.394 . S
C770 H778 0.930 . S
C771 C770 1.394 . S
C771 C772 1.383 . S
C771 H779 0.929 . S
C772 C771 1.383 . S
C772 C773 1.377 . S
C773 H757 0.930 . S
C773 C772 1.377 . S
C773 C774 1.379 . S
C774 H758 0.931 . S
C774 C768 1.383 . S
C774 C773 1.379 . S
H775 C769 0.959 . S
H776 C769 0.961 . S
H777 C769 0.960 . S
H778 C770 0.930 . S
H779 C771 0.929 . S
H780 C788 0.929 . S
H781 C790 0.930 . S
H782 C792 0.930 . S
H783 C795 0.929 . S
H784 C798 0.930 . S
H785 C800 0.960 . S
H786 C800 0.960 . S
H787 C800 0.960 . S
C788 H780 0.929 . S
C788 C789 1.377 . S
C788 C790 1.384 . S
C789 C788 1.377 . S
C789 C795 1.390 . S
C790 H781 0.930 . S
C790 C788 1.384 . S
C790 C791 1.372 . S
C791 C790 1.372 . S
C791 C792 1.400 . S
C791 C796 1.490 . S
C792 H782 0.930 . S
C792 C791 1.400 . S
C792 C795 1.386 . S
H793 C809 0.930 . S
H794 C810 0.931 . S
C795 H783 0.929 . S
C795 C789 1.390 . S
C795 C792 1.386 . S
C796 C791 1.490 . S
C796 C798 1.395 . S
C796 C799 1.403 . S
H797 C803 0.930 . S
C798 H784 0.930 . S
C798 C796 1.395 . S
C798 C801 1.403 . S
C799 C796 1.403 . S
C799 C800 1.524 . S
C799 C803 1.400 . S
C800 H785 0.960 . S
C800 H786 0.960 . S
C800 H787 0.960 . S
C800 C799 1.524 . S
C801 C798 1.403 . S
C801 C802 1.392 . S
C801 C805 1.495 . S
C802 C801 1.392 . S
C802 C803 1.385 . S
C802 C804 1.478 . S
C803 H797 0.930 . S
C803 C799 1.400 . S
C803 C802 1.385 . S
C804 C802 1.478 . S
C804 C806 1.381 . S
C804 C810 1.383 . S
C805 C801 1.495 . S
C805 H811 0.959 . S
C805 H812 0.961 . S
C805 H813 0.960 . S
C806 C804 1.381 . S
C806 C807 1.394 . S
C806 H814 0.930 . S
C807 C806 1.394 . S
C807 C808 1.383 . S
C807 H815 0.929 . S
C808 C807 1.383 . S
C808 C809 1.377 . S
C809 H793 0.930 . S
C809 C808 1.377 . S
C809 C810 1.379 . S
C810 H794 0.931 . S
C810 C804 1.383 . S
C810 C809 1.379 . S
H811 C805 0.959 . S
H812 C805 0.961 . S
H813 C805 0.960 . S
H814 C806 0.930 . S
H815 C807 0.929 . S
H816 C824 0.929 . S
H817 C826 0.930 . S
H818 C828 0.930 . S
H819 C831 0.929 . S
H820 C834 0.930 . S
H821 C836 0.960 . S
H822 C836 0.960 . S
H823 C836 0.960 . S
C824 H816 0.929 . S
C824 C825 1.377 . S
C824 C826 1.384 . S
C825 C824 1.377 . S
C825 C831 1.390 . S
C826 H817 0.930 . S
C826 C824 1.384 . S
C826 C827 1.372 . S
C827 C826 1.372 . S
C827 C828 1.400 . S
C827 C832 1.490 . S
C828 H818 0.930 . S
C828 C827 1.400 . S
C828 C831 1.386 . S
H829 C845 0.930 . S
H830 C846 0.931 . S
C831 H819 0.929 . S
C831 C825 1.390 . S
C831 C828 1.386 . S
C832 C827 1.490 . S
C832 C834 1.395 . S
C832 C835 1.403 . S
H833 C839 0.930 . S
C834 H820 0.930 . S
C834 C832 1.395 . S
C834 C837 1.403 . S
C835 C832 1.403 . S
C835 C836 1.524 . S
C835 C839 1.400 . S
C836 H821 0.960 . S
C836 H822 0.960 . S
C836 H823 0.960 . S
C836 C835 1.524 . S
C837 C834 1.403 . S
C837 C838 1.392 . S
C837 C841 1.495 . S
C838 C837 1.392 . S
C838 C839 1.385 . S
C838 C840 1.478 . S
C839 H833 0.930 . S
C839 C835 1.400 . S
C839 C838 1.385 . S
C840 C838 1.478 . S
C840 C842 1.381 . S
C840 C846 1.383 . S
C841 C837 1.495 . S
C841 H847 0.959 . S
C841 H848 0.961 . S
C841 H849 0.960 . S
C842 C840 1.381 . S
C842 C843 1.394 . S
C842 H850 0.930 . S
C843 C842 1.394 . S
C843 C844 1.383 . S
C843 H851 0.929 . S
C844 C843 1.383 . S
C844 C845 1.377 . S
C845 H829 0.930 . S
C845 C844 1.377 . S
C845 C846 1.379 . S
C846 H830 0.931 . S
C846 C840 1.383 . S
C846 C845 1.379 . S
H847 C841 0.959 . S
H848 C841 0.961 . S
H849 C841 0.960 . S
H850 C842 0.930 . S
H851 C843 0.929 . S
H852 C860 0.929 . S
H853 C862 0.930 . S
H854 C864 0.930 . S
H855 C867 0.929 . S
H856 C870 0.930 . S
H857 C872 0.960 . S
H858 C872 0.960 . S
H859 C872 0.960 . S
C860 H852 0.929 . S
C860 C861 1.377 . S
C860 C862 1.384 . S
C861 C860 1.377 . S
C861 C867 1.390 . S
C862 H853 0.930 . S
C862 C860 1.384 . S
C862 C863 1.372 . S
C863 C862 1.372 . S
C863 C864 1.400 . S
C863 C868 1.490 . S
C864 H854 0.930 . S
C864 C863 1.400 . S
C864 C867 1.386 . S
H865 C881 0.930 . S
H866 C882 0.931 . S
C867 H855 0.929 . S
C867 C861 1.390 . S
C867 C864 1.386 . S
C868 C863 1.490 . S
C868 C870 1.395 . S
C868 C871 1.403 . S
H869 C875 0.930 . S
C870 H856 0.930 . S
C870 C868 1.395 . S
C870 C873 1.403 . S
C871 C868 1.403 . S
C871 C872 1.524 . S
C871 C875 1.400 . S
C872 H857 0.960 . S
C872 H858 0.960 . S
C872 H859 0.960 . S
C872 C871 1.524 . S
C873 C870 1.403 . S
C873 C874 1.392 . S
C873 C877 1.495 . S
C874 C873 1.392 . S
C874 C875 1.385 . S
C874 C876 1.478 . S
C875 H869 0.930 . S
C875 C871 1.400 . S
C875 C874 1.385 . S
C876 C874 1.478 . S
C876 C878 1.381 . S
C876 C882 1.383 . S
C877 C873 1.495 . S
C877 H883 0.959 . S
C877 H884 0.961 . S
C877 H885 0.960 . S
C878 C876 1.381 . S
C878 C879 1.394 . S
C878 H886 0.930 . S
C879 C878 1.394 . S
C879 C880 1.383 . S
C879 H887 0.929 . S
C880 C879 1.383 . S
C880 C881 1.377 . S
C881 H865 0.930 . S
C881 C880 1.377 . S
C881 C882 1.379 . S
C882 H866 0.931 . S
C882 C876 1.383 . S
C882 C881 1.379 . S
H883 C877 0.959 . S
H884 C877 0.961 . S
H885 C877 0.960 . S
H886 C878 0.930 . S
H887 C879 0.929 . S
H888 C896 0.929 . S
H889 C898 0.930 . S
H890 C900 0.930 . S
H891 C903 0.929 . S
H892 C906 0.930 . S
H893 C908 0.960 . S
H894 C908 0.960 . S
H895 C908 0.960 . S
C896 H888 0.929 . S
C896 C897 1.377 . S
C896 C898 1.384 . S
C897 C896 1.377 . S
C897 C903 1.390 . S
C898 H889 0.930 . S
C898 C896 1.384 . S
C898 C899 1.372 . S
C899 C898 1.372 . S
C899 C900 1.400 . S
C899 C904 1.490 . S
C900 H890 0.930 . S
C900 C899 1.400 . S
C900 C903 1.386 . S
H901 C917 0.930 . S
H902 C918 0.931 . S
C903 H891 0.929 . S
C903 C897 1.390 . S
C903 C900 1.386 . S
C904 C899 1.490 . S
C904 C906 1.395 . S
C904 C907 1.403 . S
H905 C911 0.930 . S
C906 H892 0.930 . S
C906 C904 1.395 . S
C906 C909 1.403 . S
C907 C904 1.403 . S
C907 C908 1.524 . S
C907 C911 1.400 . S
C908 H893 0.960 . S
C908 H894 0.960 . S
C908 H895 0.960 . S
C908 C907 1.524 . S
C909 C906 1.403 . S
C909 C910 1.392 . S
C909 C913 1.495 . S
C910 C909 1.392 . S
C910 C911 1.385 . S
C910 C912 1.478 . S
C911 H905 0.930 . S
C911 C907 1.400 . S
C911 C910 1.385 . S
C912 C910 1.478 . S
C912 C914 1.381 . S
C912 C918 1.383 . S
C913 C909 1.495 . S
C913 H919 0.959 . S
C913 H920 0.961 . S
C913 H921 0.960 . S
C914 C912 1.381 . S
C914 C915 1.394 . S
C914 H922 0.930 . S
C915 C914 1.394 . S
C915 C916 1.383 . S
C915 H923 0.929 . S
C916 C915 1.383 . S
C916 C917 1.377 . S
C917 H901 0.930 . S
C917 C916 1.377 . S
C917 C918 1.379 . S
C918 H902 0.931 . S
C918 C912 1.383 . S
C918 C917 1.379 . S
H919 C913 0.959 . S
H920 C913 0.961 . S
H921 C913 0.960 . S
H922 C914 0.930 . S
H923 C915 0.929 . S
H924 C932 0.929 . S
H925 C934 0.930 . S
H926 C936 0.930 . S
H927 C939 0.929 . S
H928 C942 0.930 . S
H929 C944 0.960 . S
H930 C944 0.960 . S
H931 C944 0.960 . S
C932 H924 0.929 . S
C932 C933 1.377 . S
C932 C934 1.384 . S
C933 C932 1.377 . S
C933 C939 1.390 . S
C934 H925 0.930 . S
C934 C932 1.384 . S
C934 C935 1.372 . S
C935 C934 1.372 . S
C935 C936 1.400 . S
C935 C940 1.490 . S
C936 H926 0.930 . S
C936 C935 1.400 . S
C936 C939 1.386 . S
H937 C953 0.930 . S
H938 C954 0.931 . S
C939 H927 0.929 . S
C939 C933 1.390 . S
C939 C936 1.386 . S
C940 C935 1.490 . S
C940 C942 1.395 . S
C940 C943 1.403 . S
H941 C947 0.930 . S
C942 H928 0.930 . S
C942 C940 1.395 . S
C942 C945 1.403 . S
C943 C940 1.403 . S
C943 C944 1.524 . S
C943 C947 1.400 . S
C944 H929 0.960 . S
C944 H930 0.960 . S
C944 H931 0.960 . S
C944 C943 1.524 . S
C945 C942 1.403 . S
C945 C946 1.392 . S
C945 C949 1.495 . S
C946 C945 1.392 . S
C946 C947 1.385 . S
C946 C948 1.478 . S
C947 H941 0.930 . S
C947 C943 1.400 . S
C947 C946 1.385 . S
C948 C946 1.478 . S
C948 C950 1.381 . S
C948 C954 1.383 . S
C949 C945 1.495 . S
C949 H955 0.959 . S
C949 H956 0.961 . S
C949 H957 0.960 . S
C950 C948 1.381 . S
C950 C951 1.394 . S
C950 H958 0.930 . S
C951 C950 1.394 . S
C951 C952 1.383 . S
C951 H959 0.929 . S
C952 C951 1.383 . S
C952 C953 1.377 . S
C953 H937 0.930 . S
C953 C952 1.377 . S
C953 C954 1.379 . S
C954 H938 0.931 . S
C954 C948 1.383 . S
C954 C953 1.379 . S
H955 C949 0.959 . S
H956 C949 0.961 . S
H957 C949 0.960 . S
H958 C950 0.930 . S
H959 C951 0.929 . S
H960 C968 0.929 . S
H961 C970 0.930 . S
H962 C972 0.930 . S
H963 C975 0.929 . S
H964 C978 0.930 . S
H965 C980 0.960 . S
H966 C980 0.960 . S
H967 C980 0.960 . S
C968 H960 0.929 . S
C968 C969 1.377 . S
C968 C970 1.384 . S
C969 C968 1.377 . S
C969 C975 1.390 . S
C970 H961 0.930 . S
C970 C968 1.384 . S
C970 C971 1.372 . S
C971 C970 1.372 . S
C971 C972 1.400 . S
C971 C976 1.490 . S
C972 H962 0.930 . S
C972 C971 1.400 . S
C972 C975 1.386 . S
H973 C989 0.930 . S
H974 C990 0.931 . S
C975 H963 0.929 . S
C975 C969 1.390 . S
C975 C972 1.386 . S
C976 C971 1.490 . S
C976 C978 1.395 . S
C976 C979 1.403 . S
H977 C983 0.930 . S
C978 H964 0.930 . S
C978 C976 1.395 . S
C978 C981 1.403 . S
C979 C976 1.403 . S
C979 C980 1.524 . S
C979 C983 1.400 . S
C980 H965 0.960 . S
C980 H966 0.960 . S
C980 H967 0.960 . S
C980 C979 1.524 . S
C981 C978 1.403 . S
C981 C982 1.392 . S
C981 C985 1.495 . S
C982 C981 1.392 . S
C982 C983 1.385 . S
C982 C984 1.478 . S
C983 H977 0.930 . S
C983 C979 1.400 . S
C983 C982 1.385 . S
C984 C982 1.478 . S
C984 C986 1.381 . S
C984 C990 1.383 . S
C985 C981 1.495 . S
C985 H991 0.959 . S
C985 H992 0.961 . S
C985 H993 0.960 . S
C986 C984 1.381 . S
C986 C987 1.394 . S
C986 H994 0.930 . S
C987 C986 1.394 . S
C987 C988 1.383 . S
C987 H995 0.929 . S
C988 C987 1.383 . S
C988 C989 1.377 . S
C989 H973 0.930 . S
C989 C988 1.377 . S
C989 C990 1.379 . S
C990 H974 0.931 . S
C990 C984 1.383 . S
C990 C989 1.379 . S
H991 C985 0.959 . S
H992 C985 0.961 . S
H993 C985 0.960 . S
H994 C986 0.930 . S
H995 C987 0.929 . S
H996 C1004 0.929 . S
H997 C1006 0.930 . S
H998 C1008 0.930 . S
H999 C1011 0.929 . S
H1000 C1014 0.930 . S
H1001 C1016 0.960 . S
H1002 C1016 0.960 . S
H1003 C1016 0.960 . S
C1004 H996 0.929 . S
C1004 C1005 1.377 . S
C1004 C1006 1.384 . S
C1005 C1004 1.377 . S
C1005 C1011 1.390 . S
C1006 H997 0.930 . S
C1006 C1004 1.384 . S
C1006 C1007 1.372 . S
C1007 C1006 1.372 . S
C1007 C1008 1.400 . S
C1007 C1012 1.490 . S
C1008 H998 0.930 . S
C1008 C1007 1.400 . S
C1008 C1011 1.386 . S
H1009 C1025 0.930 . S
H1010 C1026 0.931 . S
C1011 H999 0.929 . S
C1011 C1005 1.390 . S
C1011 C1008 1.386 . S
C1012 C1007 1.490 . S
C1012 C1014 1.395 . S
C1012 C1015 1.403 . S
H1013 C1019 0.930 . S
C1014 H1000 0.930 . S
C1014 C1012 1.395 . S
C1014 C1017 1.403 . S
C1015 C1012 1.403 . S
C1015 C1016 1.524 . S
C1015 C1019 1.400 . S
C1016 H1001 0.960 . S
C1016 H1002 0.960 . S
C1016 H1003 0.960 . S
C1016 C1015 1.524 . S
C1017 C1014 1.403 . S
C1017 C1018 1.392 . S
C1017 C1021 1.495 . S
C1018 C1017 1.392 . S
C1018 C1019 1.385 . S
C1018 C1020 1.478 . S
C1019 H1013 0.930 . S
C1019 C1015 1.400 . S
C1019 C1018 1.385 . S
C1020 C1018 1.478 . S
C1020 C1022 1.381 . S
C1020 C1026 1.383 . S
C1021 C1017 1.495 . S
C1021 H1027 0.959 . S
C1021 H1028 0.961 . S
C1021 H1029 0.960 . S
C1022 C1020 1.381 . S
C1022 C1023 1.394 . S
C1022 H1030 0.930 . S
C1023 C1022 1.394 . S
C1023 C1024 1.383 . S
C1023 H1031 0.929 . S
C1024 C1023 1.383 . S
C1024 C1025 1.377 . S
C1025 H1009 0.930 . S
C1025 C1024 1.377 . S
C1025 C1026 1.379 . S
C1026 H1010 0.931 . S
C1026 C1020 1.383 . S
C1026 C1025 1.379 . S
H1027 C1021 0.959 . S
H1028 C1021 0.961 . S
H1029 C1021 0.960 . S
H1030 C1022 0.930 . S
H1031 C1023 0.929 . S
H1032 C1040 0.929 . S
H1033 C1042 0.930 . S
H1034 C1044 0.930 . S
H1035 C1047 0.929 . S
H1036 C1050 0.930 . S
H1037 C1052 0.960 . S
H1038 C1052 0.960 . S
H1039 C1052 0.960 . S
C1040 H1032 0.929 . S
C1040 C1041 1.377 . S
C1040 C1042 1.384 . S
C1041 C1040 1.377 . S
C1041 C1047 1.390 . S
C1042 H1033 0.930 . S
C1042 C1040 1.384 . S
C1042 C1043 1.372 . S
C1043 C1042 1.372 . S
C1043 C1044 1.400 . S
C1043 C1048 1.490 . S
C1044 H1034 0.930 . S
C1044 C1043 1.400 . S
C1044 C1047 1.386 . S
H1045 C1061 0.930 . S
H1046 C1062 0.931 . S
C1047 H1035 0.929 . S
C1047 C1041 1.390 . S
C1047 C1044 1.386 . S
C1048 C1043 1.490 . S
C1048 C1050 1.395 . S
C1048 C1051 1.403 . S
H1049 C1055 0.930 . S
C1050 H1036 0.930 . S
C1050 C1048 1.395 . S
C1050 C1053 1.403 . S
C1051 C1048 1.403 . S
C1051 C1052 1.524 . S
C1051 C1055 1.400 . S
C1052 H1037 0.960 . S
C1052 H1038 0.960 . S
C1052 H1039 0.960 . S
C1052 C1051 1.524 . S
C1053 C1050 1.403 . S
C1053 C1054 1.392 . S
C1053 C1057 1.495 . S
C1054 C1053 1.392 . S
C1054 C1055 1.385 . S
C1054 C1056 1.478 . S
C1055 H1049 0.930 . S
C1055 C1051 1.400 . S
C1055 C1054 1.385 . S
C1056 C1054 1.478 . S
C1056 C1058 1.381 . S
C1056 C1062 1.383 . S
C1057 C1053 1.495 . S
C1057 H1063 0.959 . S
C1057 H1064 0.961 . S
C1057 H1065 0.960 . S
C1058 C1056 1.381 . S
C1058 C1059 1.394 . S
C1058 H1066 0.930 . S
C1059 C1058 1.394 . S
C1059 C1060 1.383 . S
C1059 H1067 0.929 . S
C1060 C1059 1.383 . S
C1060 C1061 1.377 . S
C1061 H1045 0.930 . S
C1061 C1060 1.377 . S
C1061 C1062 1.379 . S
C1062 H1046 0.931 . S
C1062 C1056 1.383 . S
C1062 C1061 1.379 . S
H1063 C1057 0.959 . S
H1064 C1057 0.961 . S
H1065 C1057 0.960 . S
H1066 C1058 0.930 . S
H1067 C1059 0.929 . S
H1068 C1076 0.912 1_556 S
H1069 C1078 0.930 . S
H1070 C1080 0.930 . S
H1071 C1083 0.929 . S
H1072 C1086 0.930 . S
H1073 C1088 0.960 . S
H1074 C1088 0.960 . S
H1075 C1088 0.960 . S
C1076 H1068 0.912 1_554 S
C1076 C1077 1.377 . S
C1076 C1078 1.384 . S
C1077 C1076 1.377 . S
C1077 C1083 1.390 . S
C1078 H1069 0.930 . S
C1078 C1076 1.384 . S
C1078 C1079 1.372 . S
C1079 C1078 1.372 . S
C1079 C1080 1.400 . S
C1079 C1084 1.490 . S
C1080 H1070 0.930 . S
C1080 C1079 1.400 . S
C1080 C1083 1.386 . S
H1081 C1097 0.930 . S
H1082 C1098 0.931 . S
C1083 H1071 0.929 . S
C1083 C1077 1.390 . S
C1083 C1080 1.386 . S
C1084 C1079 1.490 . S
C1084 C1086 1.395 . S
C1084 C1087 1.403 . S
H1085 C1091 0.930 . S
C1086 H1072 0.930 . S
C1086 C1084 1.395 . S
C1086 C1089 1.403 . S
C1087 C1084 1.403 . S
C1087 C1088 1.524 . S
C1087 C1091 1.400 . S
C1088 H1073 0.960 . S
C1088 H1074 0.960 . S
C1088 H1075 0.960 . S
C1088 C1087 1.524 . S
C1089 C1086 1.403 . S
C1089 C1090 1.392 . S
C1089 C1093 1.495 . S
C1090 C1089 1.392 . S
C1090 C1091 1.385 . S
C1090 C1092 1.478 . S
C1091 H1085 0.930 . S
C1091 C1087 1.400 . S
C1091 C1090 1.385 . S
C1092 C1090 1.478 . S
C1092 C1094 1.381 . S
C1092 C1098 1.383 . S
C1093 C1089 1.495 . S
C1093 H1099 0.959 . S
C1093 H1100 0.961 . S
C1093 H1101 0.960 . S
C1094 C1092 1.381 . S
C1094 C1095 1.394 . S
C1094 H1102 0.930 . S
C1095 C1094 1.394 . S
C1095 C1096 1.383 . S
C1095 H1103 0.929 . S
C1096 C1095 1.383 . S
C1096 C1097 1.377 . S
C1097 H1081 0.930 . S
C1097 C1096 1.377 . S
C1097 C1098 1.379 . S
C1098 H1082 0.931 . S
C1098 C1092 1.383 . S
C1098 C1097 1.379 . S
H1099 C1093 0.959 . S
H1100 C1093 0.961 . S
H1101 C1093 0.960 . S
H1102 C1094 0.930 . S
H1103 C1095 0.929 . S
H1104 C1112 0.929 . S
H1105 C1114 0.930 . S
H1106 C1116 0.930 . S
H1107 C1119 0.929 . S
H1108 C1122 0.932 . S
H1109 C1124 0.960 . S
H1110 C1124 0.960 . S
H1111 C1124 0.960 . S
C1112 H1104 0.929 . S
C1112 C1113 1.377 . S
C1112 C1114 1.384 . S
C1113 C1112 1.377 . S
C1113 C1119 1.390 . S
C1114 H1105 0.930 . S
C1114 C1112 1.384 . S
C1114 C1115 1.372 . S
C1115 C1114 1.372 . S
C1115 C1116 1.400 . S
C1115 C1120 1.490 . S
C1116 H1106 0.930 . S
C1116 C1115 1.400 . S
C1116 C1119 1.386 . S
H1117 C1133 0.930 . S
H1118 C1134 0.931 . S
C1119 H1107 0.929 . S
C1119 C1113 1.390 . S
C1119 C1116 1.386 . S
C1120 C1115 1.490 . S
C1120 C1122 1.395 1_455 S
C1120 C1123 1.403 1_545 S
H1121 C1127 0.930 . S
C1122 H1108 0.932 . S
C1122 C1120 1.395 1_655 S
C1122 C1125 1.403 . S
C1123 C1120 1.403 1_565 S
C1123 C1124 1.524 . S
C1123 C1127 1.400 1_455 S
C1124 H1109 0.960 . S
C1124 H1110 0.960 . S
C1124 H1111 0.960 . S
C1124 C1123 1.524 . S
C1125 C1122 1.403 . S
C1125 C1126 1.392 1_545 S
C1125 C1129 1.495 . S
C1126 C1125 1.392 1_565 S
C1126 C1127 1.385 . S
C1126 C1128 1.478 . S
C1127 H1121 0.930 . S
C1127 C1123 1.400 1_655 S
C1127 C1126 1.385 . S
C1128 C1126 1.478 . S
C1128 C1130 1.381 . S
C1128 C1134 1.383 . S
C1129 C1125 1.495 . S
C1129 H1135 0.959 . S
C1129 H1136 0.961 . S
C1129 H1137 0.960 . S
C1130 C1128 1.381 . S
C1130 C1131 1.394 . S
C1130 H1138 0.930 . S
C1131 C1130 1.394 . S
C1131 C1132 1.383 . S
C1131 H1139 0.929 . S
C1132 C1131 1.383 . S
C1132 C1133 1.377 . S
C1133 H1117 0.930 . S
C1133 C1132 1.377 . S
C1133 C1134 1.379 . S
C1134 H1118 0.931 . S
C1134 C1128 1.383 . S
C1134 C1133 1.379 . S
H1135 C1129 0.959 . S
H1136 C1129 0.961 . S
H1137 C1129 0.960 . S
H1138 C1130 0.930 . S
H1139 C1131 0.929 . S
H1140 C1148 0.929 . S
H1141 C1150 0.930 . S
H1142 C1152 0.930 . S
H1143 C1155 0.929 . S
H1144 C1158 0.930 . S
H1145 C1160 0.960 . S
H1146 C1160 0.960 1_565 S
H1147 C1160 0.960 1_565 S
C1148 H1140 0.929 . S
C1148 C1149 1.377 . S
C1148 C1150 1.384 . S
C1149 C1148 1.377 . S
C1149 C1155 1.390 . S
C1150 H1141 0.930 . S
C1150 C1148 1.384 . S
C1150 C1151 1.372 . S
C1151 C1150 1.372 . S
C1151 C1152 1.400 . S
C1151 C1156 1.490 . S
C1152 H1142 0.930 . S
C1152 C1151 1.400 . S
C1152 C1155 1.386 . S
H1153 C1169 0.930 . S
H1154 C1170 0.931 . S
C1155 H1143 0.929 . S
C1155 C1149 1.390 . S
C1155 C1152 1.386 . S
C1156 C1151 1.490 . S
C1156 C1158 1.395 1_455 S
C1156 C1159 1.354 1_565 S
H1157 C1163 0.930 . S
C1158 H1144 0.930 . S
C1158 C1156 1.395 1_655 S
C1158 C1161 1.403 . S
C1159 C1156 1.354 1_545 S
C1159 C1160 1.532 . S
C1159 C1163 1.443 . S
C1160 H1145 0.960 . S
C1160 H1146 0.960 1_545 S
C1160 H1147 0.960 1_545 S
C1160 C1159 1.532 . S
C1161 C1158 1.403 . S
C1161 C1162 1.392 1_565 S
C1161 C1165 1.495 . S
C1162 C1161 1.392 1_545 S
C1162 C1163 1.385 1_655 S
C1162 C1164 1.478 . S
C1163 H1157 0.930 . S
C1163 C1159 1.443 . S
C1163 C1162 1.385 1_455 S
C1164 C1162 1.478 . S
C1164 C1166 1.381 . S
C1164 C1170 1.383 . S
C1165 C1161 1.495 . S
C1165 H1171 0.959 . S
C1165 H1172 0.954 1_565 S
C1165 H1173 0.969 . S
C1166 C1164 1.381 . S
C1166 C1167 1.394 . S
C1166 H1174 0.930 . S
C1167 C1166 1.394 . S
C1167 C1168 1.383 . S
C1167 H1175 0.929 . S
C1168 C1167 1.383 . S
C1168 C1169 1.377 . S
C1169 H1153 0.930 . S
C1169 C1168 1.377 . S
C1169 C1170 1.379 . S
C1170 H1154 0.931 . S
C1170 C1164 1.383 . S
C1170 C1169 1.379 . S
H1171 C1165 0.959 . S
H1172 C1165 0.954 1_545 S
H1173 C1165 0.969 . S
H1174 C1166 0.930 . S
H1175 C1167 0.929 . S
H1176 C1184 0.929 . S
H1177 C1186 0.930 . S
H1178 C1188 0.930 . S
H1179 C1191 0.929 . S
H1180 C1194 0.930 . S
H1181 C1196 0.952 1_556 S
H1182 C1196 0.983 . S
H1183 C1196 0.938 1_456 S
C1184 H1176 0.929 . S
C1184 C1185 1.377 . S
C1184 C1186 1.384 . S
C1185 C1184 1.377 . S
C1185 C1191 1.390 1_554 S
C1186 H1177 0.930 . S
C1186 C1184 1.384 . S
C1186 C1187 1.372 . S
C1187 C1186 1.372 . S
C1187 C1188 1.400 1_554 S
C1187 C1192 1.490 . S
C1188 H1178 0.930 . S
C1188 C1187 1.400 1_556 S
C1188 C1191 1.386 . S
H1189 C1205 0.930 . S
H1190 C1206 0.931 . S
C1191 H1179 0.929 . S
C1191 C1185 1.390 1_556 S
C1191 C1188 1.386 . S
C1192 C1187 1.490 . S
C1192 C1194 1.395 . S
C1192 C1195 1.373 1_455 S
H1193 C1199 0.930 . S
C1194 H1180 0.930 . S
C1194 C1192 1.395 . S
C1194 C1197 1.403 . S
C1195 C1192 1.373 1_655 S
C1195 C1196 1.537 . S
C1195 C1199 1.427 . S
C1196 H1181 0.952 1_554 S
C1196 H1182 0.983 . S
C1196 H1183 0.938 1_654 S
C1196 C1195 1.537 . S
C1197 C1194 1.403 . S
C1197 C1198 1.392 1_455 S
C1197 C1201 1.495 . S
C1198 C1197 1.392 1_655 S
C1198 C1199 1.385 . S
C1198 C1200 1.478 . S
C1199 H1193 0.930 . S
C1199 C1195 1.427 . S
C1199 C1198 1.385 . S
C1200 C1198 1.478 . S
C1200 C1202 1.381 . S
C1200 C1206 1.383 1_554 S
C1201 C1197 1.495 . S
C1201 H1207 0.959 . S
C1201 H1208 0.961 . S
C1201 H1209 0.960 1_455 S
C1202 C1200 1.381 . S
C1202 C1203 1.394 . S
C1202 H1210 0.930 . S
C1203 C1202 1.394 . S
C1203 C1204 1.383 . S
C1203 H1211 0.929 . S
C1204 C1203 1.383 . S
C1204 C1205 1.377 1_554 S
C1205 H1189 0.930 . S
C1205 C1204 1.377 1_556 S
C1205 C1206 1.379 . S
C1206 H1190 0.931 . S
C1206 C1200 1.383 1_556 S
C1206 C1205 1.379 . S
H1207 C1201 0.959 . S
H1208 C1201 0.961 . S
H1209 C1201 0.960 1_655 S
H1210 C1202 0.930 . S
H1211 C1203 0.929 . S
H1212 C1220 0.929 . S
H1213 C1222 0.930 . S
H1214 C1224 0.930 . S
H1215 C1227 0.929 . S
H1216 C1230 0.932 . S
H1217 C1232 0.960 . S
H1218 C1232 0.960 1_556 S
H1219 C1232 0.960 . S
C1220 H1212 0.929 . S
C1220 C1221 1.377 . S
C1220 C1222 1.384 . S
C1221 C1220 1.377 . S
C1221 C1227 1.390 1_556 S
C1222 H1213 0.930 . S
C1222 C1220 1.384 . S
C1222 C1223 1.372 . S
C1223 C1222 1.372 . S
C1223 C1224 1.400 1_556 S
C1223 C1228 1.490 . S
C1224 H1214 0.930 . S
C1224 C1223 1.400 1_554 S
C1224 C1227 1.386 . S
H1225 C1241 0.930 . S
H1226 C1242 0.931 . S
C1227 H1215 0.929 . S
C1227 C1221 1.390 1_554 S
C1227 C1224 1.386 . S
C1228 C1223 1.490 . S
C1228 C1230 1.409 . S
C1228 C1231 1.403 . S
H1229 C1235 0.930 . S
C1230 H1216 0.932 . S
C1230 C1228 1.409 . S
C1230 C1233 1.388 1_565 S
C1231 C1228 1.403 . S
C1231 C1232 1.524 1_556 S
C1231 C1235 1.400 1_565 S
C1232 H1217 0.960 . S
C1232 H1218 0.960 1_554 S
C1232 H1219 0.960 . S
C1232 C1231 1.524 1_554 S
C1233 C1230 1.388 1_545 S
C1233 C1234 1.392 . S
C1233 C1237 1.495 . S
C1234 C1233 1.392 . S
C1234 C1235 1.385 . S
C1234 C1236 1.478 . S
C1235 H1229 0.930 . S
C1235 C1231 1.400 1_545 S
C1235 C1234 1.385 . S
C1236 C1234 1.478 . S
C1236 C1238 1.381 . S
C1236 C1242 1.383 1_556 S
C1237 C1233 1.495 . S
C1237 H1243 0.959 . S
C1237 H1244 0.961 . S
C1237 H1245 0.960 . S
C1238 C1236 1.381 . S
C1238 C1239 1.394 . S
C1238 H1246 0.930 . S
C1239 C1238 1.394 . S
C1239 C1240 1.383 . S
C1239 H1247 0.929 . S
C1240 C1239 1.383 . S
C1240 C1241 1.377 1_556 S
C1241 H1225 0.930 . S
C1241 C1240 1.377 1_554 S
C1241 C1242 1.379 . S
C1242 H1226 0.931 . S
C1242 C1236 1.383 1_554 S
C1242 C1241 1.379 . S
H1243 C1237 0.959 . S
H1244 C1237 0.961 . S
H1245 C1237 0.960 . S
H1246 C1238 0.930 . S
H1247 C1239 0.929 . S
H1248 C1256 0.929 . S
H1249 C1258 0.930 . S
H1250 C1260 0.930 . S
H1251 C1263 0.929 . S
H1252 C1266 0.930 . S
H1253 C1268 0.960 . S
H1254 C1268 0.960 . S
H1255 C1268 0.960 . S
C1256 H1248 0.929 . S
C1256 C1257 1.377 . S
C1256 C1258 1.384 . S
C1257 C1256 1.377 . S
C1257 C1263 1.390 . S
C1258 H1249 0.930 . S
C1258 C1256 1.384 . S
C1258 C1259 1.372 . S
C1259 C1258 1.372 . S
C1259 C1260 1.400 . S
C1259 C1264 1.490 . S
C1260 H1250 0.930 . S
C1260 C1259 1.400 . S
C1260 C1263 1.386 . S
H1261 C1277 0.930 . S
H1262 C1278 0.931 . S
C1263 H1251 0.929 . S
C1263 C1257 1.390 . S
C1263 C1260 1.386 . S
C1264 C1259 1.490 . S
C1264 C1266 1.395 . S
C1264 C1267 1.403 . S
H1265 C1271 0.930 . S
C1266 H1252 0.930 . S
C1266 C1264 1.395 . S
C1266 C1269 1.403 . S
C1267 C1264 1.403 . S
C1267 C1268 1.524 . S
C1267 C1271 1.400 . S
C1268 H1253 0.960 . S
C1268 H1254 0.960 . S
C1268 H1255 0.960 . S
C1268 C1267 1.524 . S
C1269 C1266 1.403 . S
C1269 C1270 1.392 . S
C1269 C1273 1.495 . S
C1270 C1269 1.392 . S
C1270 C1271 1.385 . S
C1270 C1272 1.478 . S
C1271 H1265 0.930 . S
C1271 C1267 1.400 . S
C1271 C1270 1.385 . S
C1272 C1270 1.478 . S
C1272 C1274 1.381 . S
C1272 C1278 1.383 . S
C1273 C1269 1.495 . S
C1273 H1279 0.959 . S
C1273 H1280 0.961 . S
C1273 H1281 0.960 . S
C1274 C1272 1.381 . S
C1274 C1275 1.394 . S
C1274 H1282 0.930 . S
C1275 C1274 1.394 . S
C1275 C1276 1.383 . S
C1275 H1283 0.929 . S
C1276 C1275 1.383 . S
C1276 C1277 1.377 . S
C1277 H1261 0.930 . S
C1277 C1276 1.377 . S
C1277 C1278 1.379 . S
C1278 H1262 0.931 . S
C1278 C1272 1.383 . S
C1278 C1277 1.379 . S
H1279 C1273 0.959 . S
H1280 C1273 0.961 . S
H1281 C1273 0.960 . S
H1282 C1274 0.930 . S
H1283 C1275 0.929 . S
H1284 C1292 0.929 . S
H1285 C1294 0.930 . S
H1286 C1296 0.930 . S
H1287 C1299 0.929 . S
H1288 C1302 0.930 . S
H1289 C1304 0.960 . S
H1290 C1304 0.960 . S
H1291 C1304 0.960 . S
C1292 H1284 0.929 . S
C1292 C1293 1.377 . S
C1292 C1294 1.384 . S
C1293 C1292 1.377 . S
C1293 C1299 1.390 . S
C1294 H1285 0.930 . S
C1294 C1292 1.384 . S
C1294 C1295 1.372 . S
C1295 C1294 1.372 . S
C1295 C1296 1.400 . S
C1295 C1300 1.490 . S
C1296 H1286 0.930 . S
C1296 C1295 1.400 . S
C1296 C1299 1.386 . S
H1297 C1313 0.930 . S
H1298 C1314 0.931 . S
C1299 H1287 0.929 . S
C1299 C1293 1.390 . S
C1299 C1296 1.386 . S
C1300 C1295 1.490 . S
C1300 C1302 1.395 . S
C1300 C1303 1.403 . S
H1301 C1307 0.930 . S
C1302 H1288 0.930 . S
C1302 C1300 1.395 . S
C1302 C1305 1.403 . S
C1303 C1300 1.403 . S
C1303 C1304 1.524 . S
C1303 C1307 1.400 . S
C1304 H1289 0.960 . S
C1304 H1290 0.960 . S
C1304 H1291 0.960 . S
C1304 C1303 1.524 . S
C1305 C1302 1.403 . S
C1305 C1306 1.392 . S
C1305 C1309 1.495 . S
C1306 C1305 1.392 . S
C1306 C1307 1.385 . S
C1306 C1308 1.478 . S
C1307 H1301 0.930 . S
C1307 C1303 1.400 . S
C1307 C1306 1.385 . S
C1308 C1306 1.478 . S
C1308 C1310 1.381 . S
C1308 C1314 1.383 . S
C1309 C1305 1.495 . S
C1309 H1315 0.959 . S
C1309 H1316 0.961 . S
C1309 H1317 0.960 . S
C1310 C1308 1.381 . S
C1310 C1311 1.394 . S
C1310 H1318 0.930 . S
C1311 C1310 1.394 . S
C1311 C1312 1.383 . S
C1311 H1319 0.929 . S
C1312 C1311 1.383 . S
C1312 C1313 1.377 . S
C1313 H1297 0.930 . S
C1313 C1312 1.377 . S
C1313 C1314 1.379 . S
C1314 H1298 0.931 . S
C1314 C1308 1.383 . S
C1314 C1313 1.379 . S
H1315 C1309 0.959 . S
H1316 C1309 0.961 . S
H1317 C1309 0.960 . S
H1318 C1310 0.930 . S
H1319 C1311 0.929 . S
H1320 C1328 0.929 . S
H1321 C1330 0.930 . S
H1322 C1332 0.949 . S
H1323 C1335 0.929 . S
H1324 C1338 0.930 . S
H1325 C1340 0.972 . S
H1326 C1340 0.942 1_565 S
H1327 C1340 0.967 . S
C1328 H1320 0.929 . S
C1328 C1329 1.377 . S
C1328 C1330 1.384 . S
C1329 C1328 1.377 . S
C1329 C1335 1.390 . S
C1330 H1321 0.930 . S
C1330 C1328 1.384 . S
C1330 C1331 1.372 . S
C1331 C1330 1.372 . S
C1331 C1332 1.400 . S
C1331 C1336 1.490 . S
C1332 H1322 0.949 . S
C1332 C1331 1.400 . S
C1332 C1335 1.386 . S
H1333 C1349 0.930 . S
H1334 C1350 0.931 . S
C1335 H1323 0.929 . S
C1335 C1329 1.390 . S
C1335 C1332 1.386 . S
C1336 C1331 1.490 . S
C1336 C1338 1.395 . S
C1336 C1339 1.420 . S
H1337 C1343 0.930 . S
C1338 H1324 0.930 . S
C1338 C1336 1.395 . S
C1338 C1341 1.403 . S
C1339 C1336 1.420 . S
C1339 C1340 1.522 1_565 S
C1339 C1343 1.384 1_565 S
C1340 H1325 0.972 . S
C1340 H1326 0.942 1_545 S
C1340 H1327 0.967 . S
C1340 C1339 1.522 1_545 S
C1341 C1338 1.403 . S
C1341 C1342 1.392 1_565 S
C1341 C1345 1.495 . S
C1342 C1341 1.392 1_545 S
C1342 C1343 1.385 . S
C1342 C1344 1.478 . S
C1343 H1337 0.930 . S
C1343 C1339 1.384 1_545 S
C1343 C1342 1.385 . S
C1344 C1342 1.478 . S
C1344 C1346 1.381 . S
C1344 C1350 1.383 . S
C1345 C1341 1.495 . S
C1345 H1351 0.959 . S
C1345 H1352 0.961 1_565 S
C1345 H1353 0.960 . S
C1346 C1344 1.381 . S
C1346 C1347 1.394 . S
C1346 H1354 0.930 1_545 S
C1347 C1346 1.394 . S
C1347 C1348 1.383 . S
C1347 H1355 0.929 . S
C1348 C1347 1.383 . S
C1348 C1349 1.377 . S
C1349 H1333 0.930 . S
C1349 C1348 1.377 . S
C1349 C1350 1.379 . S
C1350 H1334 0.931 . S
C1350 C1344 1.383 . S
C1350 C1349 1.379 . S
H1351 C1345 0.959 . S
H1352 C1345 0.961 1_545 S
H1353 C1345 0.960 . S
H1354 C1346 0.930 1_565 S
H1355 C1347 0.929 . S
H1356 C1364 0.929 . S
H1357 C1366 0.930 . S
H1358 C1368 0.930 . S
H1359 C1371 0.929 . S
H1360 C1374 0.930 . S
H1361 C1376 0.960 . S
H1362 C1376 0.960 . S
H1363 C1376 0.960 . S
C1364 H1356 0.929 . S
C1364 C1365 1.377 . S
C1364 C1366 1.384 . S
C1365 C1364 1.377 . S
C1365 C1371 1.390 . S
C1366 H1357 0.930 . S
C1366 C1364 1.384 . S
C1366 C1367 1.372 . S
C1367 C1366 1.372 . S
C1367 C1368 1.400 . S
C1367 C1372 1.490 . S
C1368 H1358 0.930 . S
C1368 C1367 1.400 . S
C1368 C1371 1.386 . S
H1369 C1385 0.930 . S
H1370 C1386 0.931 . S
C1371 H1359 0.929 . S
C1371 C1365 1.390 . S
C1371 C1368 1.386 . S
C1372 C1367 1.490 . S
C1372 C1374 1.395 1_655 S
C1372 C1375 1.403 . S
H1373 C1379 0.930 . S
C1374 H1360 0.930 . S
C1374 C1372 1.395 1_455 S
C1374 C1377 1.403 . S
C1375 C1372 1.403 . S
C1375 C1376 1.524 . S
C1375 C1379 1.400 . S
C1376 H1361 0.960 . S
C1376 H1362 0.960 . S
C1376 H1363 0.960 . S
C1376 C1375 1.524 . S
C1377 C1374 1.403 . S
C1377 C1378 1.392 . S
C1377 C1381 1.495 . S
C1378 C1377 1.392 . S
C1378 C1379 1.385 1_455 S
C1378 C1380 1.478 . S
C1379 H1373 0.930 . S
C1379 C1375 1.400 . S
C1379 C1378 1.385 1_655 S
C1380 C1378 1.478 . S
C1380 C1382 1.381 . S
C1380 C1386 1.383 . S
C1381 C1377 1.495 . S
C1381 H1387 0.959 . S
C1381 H1388 0.961 . S
C1381 H1389 0.960 . S
C1382 C1380 1.381 . S
C1382 C1383 1.394 . S
C1382 H1390 0.930 . S
C1383 C1382 1.394 . S
C1383 C1384 1.383 . S
C1383 H1391 0.929 . S
C1384 C1383 1.383 . S
C1384 C1385 1.377 . S
C1385 H1369 0.930 . S
C1385 C1384 1.377 . S
C1385 C1386 1.379 . S
C1386 H1370 0.931 . S
C1386 C1380 1.383 . S
C1386 C1385 1.379 . S
H1387 C1381 0.959 . S
H1388 C1381 0.961 . S
H1389 C1381 0.960 . S
H1390 C1382 0.930 . S
H1391 C1383 0.929 . S
H1392 C1400 0.929 . S
H1393 C1402 0.930 . S
H1394 C1404 0.930 . S
H1395 C1407 0.929 . S
H1396 C1410 0.930 . S
H1397 C1412 0.960 . S
H1398 C1412 0.960 . S
H1399 C1412 0.960 . S
C1400 H1392 0.929 . S
C1400 C1401 1.377 . S
C1400 C1402 1.384 . S
C1401 C1400 1.377 . S
C1401 C1407 1.390 . S
C1402 H1393 0.930 . S
C1402 C1400 1.384 . S
C1402 C1403 1.372 . S
C1403 C1402 1.372 . S
C1403 C1404 1.400 . S
C1403 C1408 1.490 . S
C1404 H1394 0.930 . S
C1404 C1403 1.400 . S
C1404 C1407 1.386 . S
H1405 C1421 0.930 . S
H1406 C1422 0.931 1_565 S
C1407 H1395 0.929 . S
C1407 C1401 1.390 . S
C1407 C1404 1.386 . S
C1408 C1403 1.490 . S
C1408 C1410 1.395 . S
C1408 C1411 1.403 . S
H1409 C1415 0.930 . S
C1410 H1396 0.930 . S
C1410 C1408 1.395 . S
C1410 C1413 1.396 1_565 S
C1411 C1408 1.403 . S
C1411 C1412 1.524 . S
C1411 C1415 1.400 . S
C1412 H1397 0.960 . S
C1412 H1398 0.960 . S
C1412 H1399 0.960 . S
C1412 C1411 1.524 . S
C1413 C1410 1.396 1_545 S
C1413 C1414 1.388 1_545 S
C1413 C1417 1.506 . S
C1414 C1413 1.388 1_565 S
C1414 C1415 1.385 . S
C1414 C1416 1.478 1_565 S
C1415 H1409 0.930 . S
C1415 C1411 1.400 . S
C1415 C1414 1.385 . S
C1416 C1414 1.478 1_545 S
C1416 C1418 1.381 . S
C1416 C1422 1.383 . S
C1417 C1413 1.506 . S
C1417 H1423 0.959 . S
C1417 H1424 0.961 . S
C1417 H1425 0.960 . S
C1418 C1416 1.381 . S
C1418 C1419 1.394 . S
C1418 H1426 0.930 . S
C1419 C1418 1.394 . S
C1419 C1420 1.383 . S
C1419 H1427 0.929 . S
C1420 C1419 1.383 . S
C1420 C1421 1.377 . S
C1421 H1405 0.930 . S
C1421 C1420 1.377 . S
C1421 C1422 1.379 . S
C1422 H1406 0.931 1_545 S
C1422 C1416 1.383 . S
C1422 C1421 1.379 . S
H1423 C1417 0.959 . S
H1424 C1417 0.961 . S
H1425 C1417 0.960 . S
H1426 C1418 0.930 . S
H1427 C1419 0.929 . S
H1428 C1436 0.929 . S
H1429 C1438 0.930 . S
H1430 C1440 0.930 1_655 S
H1431 C1443 0.929 . S
H1432 C1446 0.904 1_455 S
H1433 C1448 0.960 . S
H1434 C1448 0.960 . S
H1435 C1448 0.960 . S
C1436 H1428 0.929 . S
C1436 C1437 1.377 . S
C1436 C1438 1.384 . S
C1437 C1436 1.377 . S
C1437 C1443 1.390 . S
C1438 H1429 0.930 . S
C1438 C1436 1.384 . S
C1438 C1439 1.372 . S
C1439 C1438 1.372 . S
C1439 C1440 1.400 . S
C1439 C1444 1.490 1_455 S
C1440 H1430 0.930 1_455 S
C1440 C1439 1.400 . S
C1440 C1443 1.386 . S
H1441 C1457 0.930 . S
H1442 C1458 0.931 . S
C1443 H1431 0.929 . S
C1443 C1437 1.390 . S
C1443 C1440 1.386 . S
C1444 C1439 1.490 1_655 S
C1444 C1446 1.406 . S
C1444 C1447 1.403 . S
H1445 C1451 0.930 . S
C1446 H1432 0.904 1_655 S
C1446 C1444 1.406 . S
C1446 C1449 1.417 . S
C1447 C1444 1.403 . S
C1447 C1448 1.524 . S
C1447 C1451 1.400 . S
C1448 H1433 0.960 . S
C1448 H1434 0.960 . S
C1448 H1435 0.960 . S
C1448 C1447 1.524 . S
C1449 C1446 1.417 . S
C1449 C1450 1.392 . S
C1449 C1453 1.519 . S
C1450 C1449 1.392 . S
C1450 C1451 1.385 . S
C1450 C1452 1.478 . S
C1451 H1445 0.930 . S
C1451 C1447 1.400 . S
C1451 C1450 1.385 . S
C1452 C1450 1.478 . S
C1452 C1454 1.381 . S
C1452 C1458 1.383 . S
C1453 C1449 1.519 . S
C1453 H1459 0.911 1_655 S
C1453 H1460 0.971 . S
C1453 H1461 0.976 . S
C1454 C1452 1.381 . S
C1454 C1455 1.394 . S
C1454 H1462 0.930 . S
C1455 C1454 1.394 . S
C1455 C1456 1.383 . S
C1455 H1463 0.929 . S
C1456 C1455 1.383 . S
C1456 C1457 1.377 . S
C1457 H1441 0.930 . S
C1457 C1456 1.377 . S
C1457 C1458 1.379 . S
C1458 H1442 0.931 . S
C1458 C1452 1.383 . S
C1458 C1457 1.379 . S
H1459 C1453 0.911 1_455 S
H1460 C1453 0.971 . S
H1461 C1453 0.976 . S
H1462 C1454 0.930 . S
H1463 C1455 0.929 . S
H1464 C1472 0.929 . S
H1465 C1474 0.930 . S
H1466 C1476 0.930 . S
H1467 C1479 0.929 . S
H1468 C1482 0.930 . S
H1469 C1484 0.960 1_565 S
H1470 C1484 0.960 . S
H1471 C1484 0.960 . S
C1472 H1464 0.929 . S
C1472 C1473 1.377 . S
C1472 C1474 1.384 . S
C1473 C1472 1.377 . S
C1473 C1479 1.390 . S
C1474 H1465 0.930 . S
C1474 C1472 1.384 . S
C1474 C1475 1.372 . S
C1475 C1474 1.372 . S
C1475 C1476 1.400 . S
C1475 C1480 1.490 . S
C1476 H1466 0.930 . S
C1476 C1475 1.400 . S
C1476 C1479 1.386 . S
H1477 C1493 0.930 . S
H1478 C1494 0.931 . S
C1479 H1467 0.929 . S
C1479 C1473 1.390 . S
C1479 C1476 1.386 . S
C1480 C1475 1.490 . S
C1480 C1482 1.395 . S
C1480 C1483 1.403 . S
H1481 C1487 0.930 1_565 S
C1482 H1468 0.930 . S
C1482 C1480 1.395 . S
C1482 C1485 1.403 . S
C1483 C1480 1.403 . S
C1483 C1484 1.524 . S
C1483 C1487 1.400 . S
C1484 H1469 0.960 1_545 S
C1484 H1470 0.960 . S
C1484 H1471 0.960 . S
C1484 C1483 1.524 . S
C1485 C1482 1.403 . S
C1485 C1486 1.392 . S
C1485 C1489 1.495 . S
C1486 C1485 1.392 . S
C1486 C1487 1.385 . S
C1486 C1488 1.483 . S
C1487 H1481 0.930 1_545 S
C1487 C1483 1.400 . S
C1487 C1486 1.385 . S
C1488 C1486 1.483 . S
C1488 C1490 1.381 . S
C1488 C1494 1.376 1_545 S
C1489 C1485 1.495 . S
C1489 H1495 0.959 . S
C1489 H1496 0.961 . S
C1489 H1497 0.960 . S
C1490 C1488 1.381 . S
C1490 C1491 1.388 1_545 S
C1490 H1498 0.937 . S
C1491 C1490 1.388 1_565 S
C1491 C1492 1.383 . S
C1491 H1499 0.929 . S
C1492 C1491 1.383 . S
C1492 C1493 1.377 . S
C1493 H1477 0.930 . S
C1493 C1492 1.377 . S
C1493 C1494 1.379 . S
C1494 H1478 0.931 . S
C1494 C1488 1.376 1_565 S
C1494 C1493 1.379 . S
H1495 C1489 0.959 . S
H1496 C1489 0.961 . S
H1497 C1489 0.960 . S
H1498 C1490 0.937 . S
H1499 C1491 0.929 . S
H1500 C1508 0.929 . S
H1501 C1510 0.930 . S
H1502 C1512 0.930 1_455 S
H1503 C1515 0.929 . S
H1504 C1518 0.930 . S
H1505 C1520 0.960 . S
H1506 C1520 0.960 . S
H1507 C1520 0.960 . S
C1508 H1500 0.929 . S
C1508 C1509 1.377 . S
C1508 C1510 1.384 . S
C1509 C1508 1.377 . S
C1509 C1515 1.390 . S
C1510 H1501 0.930 . S
C1510 C1508 1.384 . S
C1510 C1511 1.372 . S
C1511 C1510 1.372 . S
C1511 C1512 1.400 . S
C1511 C1516 1.490 1_655 S
C1512 H1502 0.930 1_655 S
C1512 C1511 1.400 . S
C1512 C1515 1.386 . S
H1513 C1529 0.930 . S
H1514 C1530 0.931 . S
C1515 H1503 0.929 . S
C1515 C1509 1.390 . S
C1515 C1512 1.386 . S
C1516 C1511 1.490 1_455 S
C1516 C1518 1.395 . S
C1516 C1519 1.403 . S
H1517 C1523 0.930 . S
C1518 H1504 0.930 . S
C1518 C1516 1.395 . S
C1518 C1521 1.403 . S
C1519 C1516 1.403 . S
C1519 C1520 1.524 1_455 S
C1519 C1523 1.400 . S
C1520 H1505 0.960 . S
C1520 H1506 0.960 . S
C1520 H1507 0.960 . S
C1520 C1519 1.524 1_655 S
C1521 C1518 1.403 . S
C1521 C1522 1.392 . S
C1521 C1525 1.495 . S
C1522 C1521 1.392 . S
C1522 C1523 1.385 . S
C1522 C1524 1.478 . S
C1523 H1517 0.930 . S
C1523 C1519 1.400 . S
C1523 C1522 1.385 . S
C1524 C1522 1.478 . S
C1524 C1526 1.381 . S
C1524 C1530 1.383 . S
C1525 C1521 1.495 . S
C1525 H1531 0.959 . S
C1525 H1532 0.961 . S
C1525 H1533 0.960 . S
C1526 C1524 1.381 . S
C1526 C1527 1.394 . S
C1526 H1534 0.930 . S
C1527 C1526 1.394 . S
C1527 C1528 1.383 . S
C1527 H1535 0.929 . S
C1528 C1527 1.383 . S
C1528 C1529 1.377 . S
C1529 H1513 0.930 . S
C1529 C1528 1.377 . S
C1529 C1530 1.379 . S
C1530 H1514 0.931 . S
C1530 C1524 1.383 . S
C1530 C1529 1.379 . S
H1531 C1525 0.959 . S
H1532 C1525 0.961 . S
H1533 C1525 0.960 . S
H1534 C1526 0.930 . S
H1535 C1527 0.929 . S
H1536 C1544 0.929 . S
H1537 C1546 0.930 . S
H1538 C1548 0.930 . S
H1539 C1551 0.929 . S
H1540 C1554 0.930 . S
H1541 C1556 0.960 . S
H1542 C1556 0.960 . S
H1543 C1556 0.960 . S
C1544 H1536 0.929 . S
C1544 C1545 1.377 . S
C1544 C1546 1.384 . S
C1545 C1544 1.377 . S
C1545 C1551 1.390 . S
C1546 H1537 0.930 . S
C1546 C1544 1.384 . S
C1546 C1547 1.372 . S
C1547 C1546 1.372 . S
C1547 C1548 1.400 . S
C1547 C1552 1.490 . S
C1548 H1538 0.930 . S
C1548 C1547 1.400 . S
C1548 C1551 1.386 . S
H1549 C1565 0.930 . S
H1550 C1566 0.931 . S
C1551 H1539 0.929 . S
C1551 C1545 1.390 . S
C1551 C1548 1.386 . S
C1552 C1547 1.490 . S
C1552 C1554 1.395 . S
C1552 C1555 1.403 . S
H1553 C1559 0.930 . S
C1554 H1540 0.930 . S
C1554 C1552 1.395 . S
C1554 C1557 1.403 . S
C1555 C1552 1.403 . S
C1555 C1556 1.524 . S
C1555 C1559 1.400 . S
C1556 H1541 0.960 . S
C1556 H1542 0.960 . S
C1556 H1543 0.960 . S
C1556 C1555 1.524 . S
C1557 C1554 1.403 . S
C1557 C1558 1.392 . S
C1557 C1561 1.495 . S
C1558 C1557 1.392 . S
C1558 C1559 1.385 . S
C1558 C1560 1.478 . S
C1559 H1553 0.930 . S
C1559 C1555 1.400 . S
C1559 C1558 1.385 . S
C1560 C1558 1.478 . S
C1560 C1562 1.381 . S
C1560 C1566 1.383 . S
C1561 C1557 1.495 . S
C1561 H1567 0.959 . S
C1561 H1568 0.961 . S
C1561 H1569 0.960 . S
C1562 C1560 1.381 . S
C1562 C1563 1.394 . S
C1562 H1570 0.930 . S
C1563 C1562 1.394 . S
C1563 C1564 1.383 . S
C1563 H1571 0.929 . S
C1564 C1563 1.383 . S
C1564 C1565 1.377 . S
C1565 H1549 0.930 . S
C1565 C1564 1.377 . S
C1565 C1566 1.379 . S
C1566 H1550 0.931 . S
C1566 C1560 1.383 . S
C1566 C1565 1.379 . S
H1567 C1561 0.959 . S
H1568 C1561 0.961 . S
H1569 C1561 0.960 . S
H1570 C1562 0.930 . S
H1571 C1563 0.929 . S
H1572 C1580 0.929 . S
H1573 C1582 0.930 . S
H1574 C1584 0.930 . S
H1575 C1587 0.929 . S
H1576 C1590 0.930 . S
H1577 C1592 0.960 . S
H1578 C1592 0.960 . S
H1579 C1592 0.960 . S
C1580 H1572 0.929 . S
C1580 C1581 1.377 . S
C1580 C1582 1.384 . S
C1581 C1580 1.377 . S
C1581 C1587 1.390 . S
C1582 H1573 0.930 . S
C1582 C1580 1.384 . S
C1582 C1583 1.372 . S
C1583 C1582 1.372 . S
C1583 C1584 1.400 . S
C1583 C1588 1.490 . S
C1584 H1574 0.930 . S
C1584 C1583 1.400 . S
C1584 C1587 1.386 . S
H1585 C1601 0.930 . S
H1586 C1602 0.931 . S
C1587 H1575 0.929 . S
C1587 C1581 1.390 . S
C1587 C1584 1.386 . S
C1588 C1583 1.490 . S
C1588 C1590 1.395 . S
C1588 C1591 1.403 . S
H1589 C1595 0.930 . S
C1590 H1576 0.930 . S
C1590 C1588 1.395 . S
C1590 C1593 1.403 . S
C1591 C1588 1.403 . S
C1591 C1592 1.524 . S
C1591 C1595 1.400 . S
C1592 H1577 0.960 . S
C1592 H1578 0.960 . S
C1592 H1579 0.960 . S
C1592 C1591 1.524 . S
C1593 C1590 1.403 . S
C1593 C1594 1.392 . S
C1593 C1597 1.495 . S
C1594 C1593 1.392 . S
C1594 C1595 1.385 . S
C1594 C1596 1.478 . S
C1595 H1589 0.930 . S
C1595 C1591 1.400 . S
C1595 C1594 1.385 . S
C1596 C1594 1.478 . S
C1596 C1598 1.381 . S
C1596 C1602 1.383 . S
C1597 C1593 1.495 . S
C1597 H1603 0.959 . S
C1597 H1604 0.961 . S
C1597 H1605 0.960 . S
C1598 C1596 1.381 . S
C1598 C1599 1.394 . S
C1598 H1606 0.930 . S
C1599 C1598 1.394 . S
C1599 C1600 1.383 . S
C1599 H1607 0.929 . S
C1600 C1599 1.383 . S
C1600 C1601 1.377 . S
C1601 H1585 0.930 . S
C1601 C1600 1.377 . S
C1601 C1602 1.379 . S
C1602 H1586 0.931 . S
C1602 C1596 1.383 . S
C1602 C1601 1.379 . S
H1603 C1597 0.959 . S
H1604 C1597 0.961 . S
H1605 C1597 0.960 . S
H1606 C1598 0.930 . S
H1607 C1599 0.929 . S
H1608 C1616 0.929 . S
H1609 C1618 0.930 . S
H1610 C1620 0.930 . S
H1611 C1623 0.929 . S
H1612 C1626 0.930 . S
H1613 C1628 0.960 . S
H1614 C1628 0.960 . S
H1615 C1628 0.960 . S
C1616 H1608 0.929 . S
C1616 C1617 1.377 . S
C1616 C1618 1.384 . S
C1617 C1616 1.377 . S
C1617 C1623 1.390 . S
C1618 H1609 0.930 . S
C1618 C1616 1.384 . S
C1618 C1619 1.372 . S
C1619 C1618 1.372 . S
C1619 C1620 1.400 . S
C1619 C1624 1.490 . S
C1620 H1610 0.930 . S
C1620 C1619 1.400 . S
C1620 C1623 1.386 . S
H1621 C1637 0.930 . S
H1622 C1638 0.931 . S
C1623 H1611 0.929 . S
C1623 C1617 1.390 . S
C1623 C1620 1.386 . S
C1624 C1619 1.490 . S
C1624 C1626 1.395 . S
C1624 C1627 1.403 . S
H1625 C1631 0.930 . S
C1626 H1612 0.930 . S
C1626 C1624 1.395 . S
C1626 C1629 1.403 . S
C1627 C1624 1.403 . S
C1627 C1628 1.524 . S
C1627 C1631 1.400 . S
C1628 H1613 0.960 . S
C1628 H1614 0.960 . S
C1628 H1615 0.960 . S
C1628 C1627 1.524 . S
C1629 C1626 1.403 . S
C1629 C1630 1.392 . S
C1629 C1633 1.495 . S
C1630 C1629 1.392 . S
C1630 C1631 1.385 . S
C1630 C1632 1.478 . S
C1631 H1625 0.930 . S
C1631 C1627 1.400 . S
C1631 C1630 1.385 . S
C1632 C1630 1.478 . S
C1632 C1634 1.381 . S
C1632 C1638 1.383 . S
C1633 C1629 1.495 . S
C1633 H1639 0.959 . S
C1633 H1640 0.961 . S
C1633 H1641 0.960 . S
C1634 C1632 1.381 . S
C1634 C1635 1.394 . S
C1634 H1642 0.930 . S
C1635 C1634 1.394 . S
C1635 C1636 1.383 . S
C1635 H1643 0.929 . S
C1636 C1635 1.383 . S
C1636 C1637 1.377 . S
C1637 H1621 0.930 . S
C1637 C1636 1.377 . S
C1637 C1638 1.379 . S
C1638 H1622 0.931 . S
C1638 C1632 1.383 . S
C1638 C1637 1.379 . S
H1639 C1633 0.959 . S
H1640 C1633 0.961 . S
H1641 C1633 0.960 . S
H1642 C1634 0.930 . S
H1643 C1635 0.929 . S
H1644 C1652 0.929 . S
H1645 C1654 0.930 . S
H1646 C1656 0.930 . S
H1647 C1659 0.929 . S
H1648 C1662 0.930 . S
H1649 C1664 0.960 . S
H1650 C1664 0.960 . S
H1651 C1664 0.960 . S
C1652 H1644 0.929 . S
C1652 C1653 1.377 . S
C1652 C1654 1.384 . S
C1653 C1652 1.377 . S
C1653 C1659 1.390 . S
C1654 H1645 0.930 . S
C1654 C1652 1.384 . S
C1654 C1655 1.372 . S
C1655 C1654 1.372 . S
C1655 C1656 1.400 . S
C1655 C1660 1.490 . S
C1656 H1646 0.930 . S
C1656 C1655 1.400 . S
C1656 C1659 1.386 . S
H1657 C1673 0.930 . S
H1658 C1674 0.931 . S
C1659 H1647 0.929 . S
C1659 C1653 1.390 . S
C1659 C1656 1.386 . S
C1660 C1655 1.490 . S
C1660 C1662 1.395 . S
C1660 C1663 1.403 . S
H1661 C1667 0.930 . S
C1662 H1648 0.930 . S
C1662 C1660 1.395 . S
C1662 C1665 1.403 . S
C1663 C1660 1.403 . S
C1663 C1664 1.524 . S
C1663 C1667 1.400 . S
C1664 H1649 0.960 . S
C1664 H1650 0.960 . S
C1664 H1651 0.960 . S
C1664 C1663 1.524 . S
C1665 C1662 1.403 . S
C1665 C1666 1.392 . S
C1665 C1669 1.495 . S
C1666 C1665 1.392 . S
C1666 C1667 1.385 . S
C1666 C1668 1.478 . S
C1667 H1661 0.930 . S
C1667 C1663 1.400 . S
C1667 C1666 1.385 . S
C1668 C1666 1.478 . S
C1668 C1670 1.381 . S
C1668 C1674 1.383 . S
C1669 C1665 1.495 . S
C1669 H1675 0.959 . S
C1669 H1676 0.961 . S
C1669 H1677 0.960 . S
C1670 C1668 1.381 . S
C1670 C1671 1.394 . S
C1670 H1678 0.930 . S
C1671 C1670 1.394 . S
C1671 C1672 1.383 . S
C1671 H1679 0.929 . S
C1672 C1671 1.383 . S
C1672 C1673 1.377 . S
C1673 H1657 0.930 . S
C1673 C1672 1.377 . S
C1673 C1674 1.379 . S
C1674 H1658 0.931 . S
C1674 C1668 1.383 . S
C1674 C1673 1.379 . S
H1675 C1669 0.959 . S
H1676 C1669 0.961 . S
H1677 C1669 0.960 . S
H1678 C1670 0.930 . S
H1679 C1671 0.929 . S
H1680 C1688 0.929 . S
H1681 C1690 0.930 . S
H1682 C1692 0.930 . S
H1683 C1695 0.929 . S
H1684 C1698 0.930 . S
H1685 C1700 0.960 . S
H1686 C1700 0.960 . S
H1687 C1700 0.960 . S
C1688 H1680 0.929 . S
C1688 C1689 1.377 . S
C1688 C1690 1.384 . S
C1689 C1688 1.377 . S
C1689 C1695 1.390 . S
C1690 H1681 0.930 . S
C1690 C1688 1.384 . S
C1690 C1691 1.372 . S
C1691 C1690 1.372 . S
C1691 C1692 1.400 . S
C1691 C1696 1.490 . S
C1692 H1682 0.930 . S
C1692 C1691 1.400 . S
C1692 C1695 1.386 . S
H1693 C1709 0.930 . S
H1694 C1710 0.931 . S
C1695 H1683 0.929 . S
C1695 C1689 1.390 . S
C1695 C1692 1.386 . S
C1696 C1691 1.490 . S
C1696 C1698 1.395 . S
C1696 C1699 1.403 . S
H1697 C1703 0.930 . S
C1698 H1684 0.930 . S
C1698 C1696 1.395 . S
C1698 C1701 1.403 1_556 S
C1699 C1696 1.403 . S
C1699 C1700 1.524 . S
C1699 C1703 1.400 . S
C1700 H1685 0.960 . S
C1700 H1686 0.960 . S
C1700 H1687 0.960 . S
C1700 C1699 1.524 . S
C1701 C1698 1.403 1_554 S
C1701 C1702 1.392 . S
C1701 C1705 1.495 . S
C1702 C1701 1.392 . S
C1702 C1703 1.385 1_554 S
C1702 C1704 1.478 . S
C1703 H1697 0.930 . S
C1703 C1699 1.400 . S
C1703 C1702 1.385 1_556 S
C1704 C1702 1.478 . S
C1704 C1706 1.381 . S
C1704 C1710 1.383 . S
C1705 C1701 1.495 . S
C1705 H1711 0.959 . S
C1705 H1712 0.961 . S
C1705 H1713 0.960 . S
C1706 C1704 1.381 . S
C1706 C1707 1.394 . S
C1706 H1714 0.930 . S
C1707 C1706 1.394 . S
C1707 C1708 1.383 . S
C1707 H1715 0.929 . S
C1708 C1707 1.383 . S
C1708 C1709 1.377 . S
C1709 H1693 0.930 . S
C1709 C1708 1.377 . S
C1709 C1710 1.379 . S
C1710 H1694 0.931 . S
C1710 C1704 1.383 . S
C1710 C1709 1.379 . S
H1711 C1705 0.959 . S
H1712 C1705 0.961 . S
H1713 C1705 0.960 . S
H1714 C1706 0.930 . S
H1715 C1707 0.929 . S
H1716 C1724 0.929 . S
H1717 C1726 0.930 . S
H1718 C1728 0.930 . S
H1719 C1731 0.929 . S
H1720 C1734 0.930 . S
H1721 C1736 0.960 . S
H1722 C1736 0.960 . S
H1723 C1736 0.960 . S
C1724 H1716 0.929 . S
C1724 C1725 1.377 . S
C1724 C1726 1.384 . S
C1725 C1724 1.377 . S
C1725 C1731 1.390 . S
C1726 H1717 0.930 . S
C1726 C1724 1.384 . S
C1726 C1727 1.372 . S
C1727 C1726 1.372 . S
C1727 C1728 1.400 . S
C1727 C1732 1.490 . S
C1728 H1718 0.930 . S
C1728 C1727 1.400 . S
C1728 C1731 1.386 . S
H1729 C1745 0.930 . S
H1730 C1746 0.931 . S
C1731 H1719 0.929 . S
C1731 C1725 1.390 . S
C1731 C1728 1.386 . S
C1732 C1727 1.490 . S
C1732 C1734 1.395 1_556 S
C1732 C1735 1.403 . S
H1733 C1739 0.930 . S
C1734 H1720 0.930 . S
C1734 C1732 1.395 1_554 S
C1734 C1737 1.403 . S
C1735 C1732 1.403 . S
C1735 C1736 1.524 . S
C1735 C1739 1.400 1_556 S
C1736 H1721 0.960 . S
C1736 H1722 0.960 . S
C1736 H1723 0.960 . S
C1736 C1735 1.524 . S
C1737 C1734 1.403 . S
C1737 C1738 1.392 . S
C1737 C1741 1.495 . S
C1738 C1737 1.392 . S
C1738 C1739 1.385 . S
C1738 C1740 1.478 . S
C1739 H1733 0.930 . S
C1739 C1735 1.400 1_554 S
C1739 C1738 1.385 . S
C1740 C1738 1.478 . S
C1740 C1742 1.381 . S
C1740 C1746 1.383 . S
C1741 C1737 1.495 . S
C1741 H1747 0.959 . S
C1741 H1748 0.961 . S
C1741 H1749 0.960 . S
C1742 C1740 1.381 . S
C1742 C1743 1.394 . S
C1742 H1750 0.930 . S
C1743 C1742 1.394 . S
C1743 C1744 1.383 . S
C1743 H1751 0.929 . S
C1744 C1743 1.383 . S
C1744 C1745 1.377 . S
C1745 H1729 0.930 . S
C1745 C1744 1.377 . S
C1745 C1746 1.379 . S
C1746 H1730 0.931 . S
C1746 C1740 1.383 . S
C1746 C1745 1.379 . S
H1747 C1741 0.959 . S
H1748 C1741 0.961 . S
H1749 C1741 0.960 . S
H1750 C1742 0.930 . S
H1751 C1743 0.929 . S
H1752 C1760 0.929 . S
H1753 C1762 0.930 . S
H1754 C1764 0.930 . S
H1755 C1767 0.929 . S
H1756 C1770 0.930 . S
H1757 C1772 0.960 . S
H1758 C1772 0.960 . S
H1759 C1772 0.960 . S
C1760 H1752 0.929 . S
C1760 C1761 1.377 . S
C1760 C1762 1.384 . S
C1761 C1760 1.377 . S
C1761 C1767 1.390 . S
C1762 H1753 0.930 . S
C1762 C1760 1.384 . S
C1762 C1763 1.372 . S
C1763 C1762 1.372 . S
C1763 C1764 1.400 . S
C1763 C1768 1.490 . S
C1764 H1754 0.930 . S
C1764 C1763 1.400 . S
C1764 C1767 1.386 . S
H1765 C1781 0.930 . S
H1766 C1782 0.931 . S
C1767 H1755 0.929 . S
C1767 C1761 1.390 . S
C1767 C1764 1.386 . S
C1768 C1763 1.490 . S
C1768 C1770 1.395 . S
C1768 C1771 1.403 . S
H1769 C1775 0.930 . S
C1770 H1756 0.930 . S
C1770 C1768 1.395 . S
C1770 C1773 1.403 1_556 S
C1771 C1768 1.403 . S
C1771 C1772 1.524 . S
C1771 C1775 1.400 . S
C1772 H1757 0.960 . S
C1772 H1758 0.960 . S
C1772 H1759 0.960 . S
C1772 C1771 1.524 . S
C1773 C1770 1.403 1_554 S
C1773 C1774 1.392 . S
C1773 C1777 1.495 . S
C1774 C1773 1.392 . S
C1774 C1775 1.385 1_554 S
C1774 C1776 1.478 . S
C1775 H1769 0.930 . S
C1775 C1771 1.400 . S
C1775 C1774 1.385 1_556 S
C1776 C1774 1.478 . S
C1776 C1778 1.381 . S
C1776 C1782 1.383 . S
C1777 C1773 1.495 . S
C1777 H1783 0.959 . S
C1777 H1784 0.961 . S
C1777 H1785 0.960 . S
C1778 C1776 1.381 . S
C1778 C1779 1.394 . S
C1778 H1786 0.930 . S
C1779 C1778 1.394 . S
C1779 C1780 1.383 . S
C1779 H1787 0.929 . S
C1780 C1779 1.383 . S
C1780 C1781 1.377 . S
C1781 H1765 0.930 . S
C1781 C1780 1.377 . S
C1781 C1782 1.379 . S
C1782 H1766 0.931 . S
C1782 C1776 1.383 . S
C1782 C1781 1.379 . S
H1783 C1777 0.959 . S
H1784 C1777 0.961 . S
H1785 C1777 0.960 . S
H1786 C1778 0.930 . S
H1787 C1779 0.929 . S
H1788 C1796 0.929 . S
H1789 C1798 0.930 . S
H1790 C1800 0.930 . S
H1791 C1803 0.929 . S
H1792 C1806 0.930 . S
H1793 C1808 0.960 . S
H1794 C1808 0.960 . S
H1795 C1808 0.960 . S
C1796 H1788 0.929 . S
C1796 C1797 1.377 . S
C1796 C1798 1.384 . S
C1797 C1796 1.377 . S
C1797 C1803 1.390 . S
C1798 H1789 0.930 . S
C1798 C1796 1.384 . S
C1798 C1799 1.372 . S
C1799 C1798 1.372 . S
C1799 C1800 1.400 . S
C1799 C1804 1.490 . S
C1800 H1790 0.930 . S
C1800 C1799 1.400 . S
C1800 C1803 1.386 . S
H1801 C1817 0.930 . S
H1802 C1818 0.931 . S
C1803 H1791 0.929 . S
C1803 C1797 1.390 . S
C1803 C1800 1.386 . S
C1804 C1799 1.490 . S
C1804 C1806 1.395 . S
C1804 C1807 1.403 . S
H1805 C1811 0.930 . S
C1806 H1792 0.930 . S
C1806 C1804 1.395 . S
C1806 C1809 1.403 1_554 S
C1807 C1804 1.403 . S
C1807 C1808 1.524 . S
C1807 C1811 1.400 . S
C1808 H1793 0.960 . S
C1808 H1794 0.960 . S
C1808 H1795 0.960 . S
C1808 C1807 1.524 . S
C1809 C1806 1.403 1_556 S
C1809 C1810 1.392 . S
C1809 C1813 1.495 . S
C1810 C1809 1.392 . S
C1810 C1811 1.385 1_556 S
C1810 C1812 1.478 . S
C1811 H1805 0.930 . S
C1811 C1807 1.400 . S
C1811 C1810 1.385 1_554 S
C1812 C1810 1.478 . S
C1812 C1814 1.381 . S
C1812 C1818 1.383 . S
C1813 C1809 1.495 . S
C1813 H1819 0.959 . S
C1813 H1820 0.961 . S
C1813 H1821 0.960 . S
C1814 C1812 1.381 . S
C1814 C1815 1.394 . S
C1814 H1822 0.930 . S
C1815 C1814 1.394 . S
C1815 C1816 1.383 . S
C1815 H1823 0.929 . S
C1816 C1815 1.383 . S
C1816 C1817 1.377 . S
C1817 H1801 0.930 . S
C1817 C1816 1.377 . S
C1817 C1818 1.379 . S
C1818 H1802 0.931 . S
C1818 C1812 1.383 . S
C1818 C1817 1.379 . S
H1819 C1813 0.959 . S
H1820 C1813 0.961 . S
H1821 C1813 0.960 . S
H1822 C1814 0.930 . S
H1823 C1815 0.929 . S
H1824 C1832 0.929 . S
H1825 C1834 0.930 . S
H1826 C1836 0.930 . S
H1827 C1839 0.929 . S
H1828 C1842 0.930 . S
H1829 C1844 0.960 . S
H1830 C1844 0.960 . S
H1831 C1844 0.960 . S
C1832 H1824 0.929 . S
C1832 C1833 1.377 . S
C1832 C1834 1.384 . S
C1833 C1832 1.377 . S
C1833 C1839 1.390 . S
C1834 H1825 0.930 . S
C1834 C1832 1.384 . S
C1834 C1835 1.372 . S
C1835 C1834 1.372 . S
C1835 C1836 1.400 . S
C1835 C1840 1.490 . S
C1836 H1826 0.930 . S
C1836 C1835 1.400 . S
C1836 C1839 1.386 . S
H1837 C1853 0.930 . S
H1838 C1854 0.931 . S
C1839 H1827 0.929 . S
C1839 C1833 1.390 . S
C1839 C1836 1.386 . S
C1840 C1835 1.490 . S
C1840 C1842 1.395 . S
C1840 C1843 1.403 . S
H1841 C1847 0.930 . S
C1842 H1828 0.930 . S
C1842 C1840 1.395 . S
C1842 C1845 1.403 . S
C1843 C1840 1.403 . S
C1843 C1844 1.524 . S
C1843 C1847 1.400 . S
C1844 H1829 0.960 . S
C1844 H1830 0.960 . S
C1844 H1831 0.960 . S
C1844 C1843 1.524 . S
C1845 C1842 1.403 . S
C1845 C1846 1.392 . S
C1845 C1849 1.495 1_545 S
C1846 C1845 1.392 . S
C1846 C1847 1.385 . S
C1846 C1848 1.478 1_545 S
C1847 H1841 0.930 . S
C1847 C1843 1.400 . S
C1847 C1846 1.385 . S
C1848 C1846 1.478 1_565 S
C1848 C1850 1.391 . S
C1848 C1854 1.383 . S
C1849 C1845 1.495 1_565 S
C1849 H1855 0.959 1_565 S
C1849 H1856 0.961 . S
C1849 H1857 0.960 1_565 S
C1850 C1848 1.391 . S
C1850 C1851 1.425 . S
C1850 H1858 0.891 1_565 S
C1851 C1850 1.425 . S
C1851 C1852 1.383 . S
C1851 H1859 0.929 . S
C1852 C1851 1.383 . S
C1852 C1853 1.377 . S
C1853 H1837 0.930 . S
C1853 C1852 1.377 . S
C1853 C1854 1.379 . S
C1854 H1838 0.931 . S
C1854 C1848 1.383 . S
C1854 C1853 1.379 . S
H1855 C1849 0.959 1_545 S
H1856 C1849 0.961 . S
H1857 C1849 0.960 1_545 S
H1858 C1850 0.891 1_545 S
H1859 C1851 0.929 . S
H1860 C1868 0.929 . S
H1861 C1870 0.930 . S
H1862 C1872 0.930 . S
H1863 C1875 0.929 . S
H1864 C1878 0.930 1_655 S
H1865 C1880 0.960 . S
H1866 C1880 0.960 . S
H1867 C1880 0.960 . S
C1868 H1860 0.929 . S
C1868 C1869 1.377 . S
C1868 C1870 1.384 . S
C1869 C1868 1.377 . S
C1869 C1875 1.390 . S
C1870 H1861 0.930 . S
C1870 C1868 1.384 . S
C1870 C1871 1.372 . S
C1871 C1870 1.372 . S
C1871 C1872 1.400 1_655 S
C1871 C1876 1.490 1_655 S
C1872 H1862 0.930 . S
C1872 C1871 1.400 1_455 S
C1872 C1875 1.386 1_455 S
H1873 C1889 0.930 . S
H1874 C1890 0.931 . S
C1875 H1863 0.929 . S
C1875 C1869 1.390 . S
C1875 C1872 1.386 1_655 S
C1876 C1871 1.490 1_455 S
C1876 C1878 1.395 . S
C1876 C1879 1.403 . S
H1877 C1883 0.930 . S
C1878 H1864 0.930 1_455 S
C1878 C1876 1.395 . S
C1878 C1881 1.403 . S
C1879 C1876 1.403 . S
C1879 C1880 1.524 . S
C1879 C1883 1.400 . S
C1880 H1865 0.960 . S
C1880 H1866 0.960 . S
C1880 H1867 0.960 . S
C1880 C1879 1.524 . S
C1881 C1878 1.403 . S
C1881 C1882 1.392 . S
C1881 C1885 1.495 . S
C1882 C1881 1.392 . S
C1882 C1883 1.385 . S
C1882 C1884 1.478 . S
C1883 H1877 0.930 . S
C1883 C1879 1.400 . S
C1883 C1882 1.385 . S
C1884 C1882 1.478 . S
C1884 C1886 1.381 . S
C1884 C1890 1.383 . S
C1885 C1881 1.495 . S
C1885 H1891 0.959 1_455 S
C1885 H1892 0.961 . S
C1885 H1893 0.960 . S
C1886 C1884 1.381 . S
C1886 C1887 1.394 . S
C1886 H1894 0.930 . S
C1887 C1886 1.394 . S
C1887 C1888 1.383 . S
C1887 H1895 0.929 . S
C1888 C1887 1.383 . S
C1888 C1889 1.377 . S
C1889 H1873 0.930 . S
C1889 C1888 1.377 . S
C1889 C1890 1.379 . S
C1890 H1874 0.931 . S
C1890 C1884 1.383 . S
C1890 C1889 1.379 . S
H1891 C1885 0.959 1_655 S
H1892 C1885 0.961 . S
H1893 C1885 0.960 . S
H1894 C1886 0.930 . S
H1895 C1887 0.929 . S
H1896 C1904 0.929 . S
H1897 C1906 0.930 . S
H1898 C1908 0.930 . S
H1899 C1911 0.929 . S
H1900 C1914 0.930 . S
H1901 C1916 0.960 . S
H1902 C1916 0.960 . S
H1903 C1916 0.960 . S
C1904 H1896 0.929 . S
C1904 C1905 1.377 . S
C1904 C1906 1.384 . S
C1905 C1904 1.377 . S
C1905 C1911 1.390 . S
C1906 H1897 0.930 . S
C1906 C1904 1.384 . S
C1906 C1907 1.372 . S
C1907 C1906 1.372 . S
C1907 C1908 1.400 . S
C1907 C1912 1.490 1_545 S
C1908 H1898 0.930 . S
C1908 C1907 1.400 . S
C1908 C1911 1.386 . S
H1909 C1925 0.930 . S
H1910 C1926 0.931 . S
C1911 H1899 0.929 . S
C1911 C1905 1.390 . S
C1911 C1908 1.386 . S
C1912 C1907 1.490 1_565 S
C1912 C1914 1.395 . S
C1912 C1915 1.403 . S
H1913 C1919 0.930 . S
C1914 H1900 0.930 . S
C1914 C1912 1.395 . S
C1914 C1917 1.403 . S
C1915 C1912 1.403 . S
C1915 C1916 1.524 1_565 S
C1915 C1919 1.400 . S
C1916 H1901 0.960 . S
C1916 H1902 0.960 . S
C1916 H1903 0.960 . S
C1916 C1915 1.524 1_545 S
C1917 C1914 1.403 . S
C1917 C1918 1.392 . S
C1917 C1921 1.495 . S
C1918 C1917 1.392 . S
C1918 C1919 1.385 . S
C1918 C1920 1.478 . S
C1919 H1913 0.930 . S
C1919 C1915 1.400 . S
C1919 C1918 1.385 . S
C1920 C1918 1.478 . S
C1920 C1922 1.381 . S
C1920 C1926 1.383 . S
C1921 C1917 1.495 . S
C1921 H1927 0.959 . S
C1921 H1928 0.961 . S
C1921 H1929 0.960 . S
C1922 C1920 1.381 . S
C1922 C1923 1.394 . S
C1922 H1930 0.930 . S
C1923 C1922 1.394 . S
C1923 C1924 1.383 . S
C1923 H1931 0.929 . S
C1924 C1923 1.383 . S
C1924 C1925 1.377 . S
C1925 H1909 0.930 . S
C1925 C1924 1.377 . S
C1925 C1926 1.379 . S
C1926 H1910 0.931 . S
C1926 C1920 1.383 . S
C1926 C1925 1.379 . S
H1927 C1921 0.959 . S
H1928 C1921 0.961 . S
H1929 C1921 0.960 . S
H1930 C1922 0.930 . S
H1931 C1923 0.929 . S
H1932 C1940 0.929 . S
H1933 C1942 0.930 . S
H1934 C1944 0.930 . S
H1935 C1947 0.929 . S
H1936 C1950 0.930 . S
H1937 C1952 0.960 . S
H1938 C1952 0.960 . S
H1939 C1952 0.960 . S
C1940 H1932 0.929 . S
C1940 C1941 1.377 . S
C1940 C1942 1.384 1_455 S
C1941 C1940 1.377 . S
C1941 C1947 1.390 . S
C1942 H1933 0.930 . S
C1942 C1940 1.384 1_655 S
C1942 C1943 1.372 1_655 S
C1943 C1942 1.372 1_455 S
C1943 C1944 1.400 . S
C1943 C1948 1.490 1_455 S
C1944 H1934 0.930 . S
C1944 C1943 1.400 . S
C1944 C1947 1.386 . S
H1945 C1961 0.930 . S
H1946 C1962 0.931 . S
C1947 H1935 0.929 . S
C1947 C1941 1.390 . S
C1947 C1944 1.386 . S
C1948 C1943 1.490 1_655 S
C1948 C1950 1.395 . S
C1948 C1951 1.403 . S
H1949 C1955 0.930 . S
C1950 H1936 0.930 . S
C1950 C1948 1.395 . S
C1950 C1953 1.403 . S
C1951 C1948 1.403 . S
C1951 C1952 1.524 1_655 S
C1951 C1955 1.400 . S
C1952 H1937 0.960 . S
C1952 H1938 0.960 . S
C1952 H1939 0.960 . S
C1952 C1951 1.524 1_455 S
C1953 C1950 1.403 . S
C1953 C1954 1.392 . S
C1953 C1957 1.495 . S
C1954 C1953 1.392 . S
C1954 C1955 1.385 . S
C1954 C1956 1.478 . S
C1955 H1949 0.930 . S
C1955 C1951 1.400 . S
C1955 C1954 1.385 . S
C1956 C1954 1.478 . S
C1956 C1958 1.381 . S
C1956 C1962 1.383 . S
C1957 C1953 1.495 . S
C1957 H1963 0.959 . S
C1957 H1964 0.961 . S
C1957 H1965 0.960 . S
C1958 C1956 1.381 . S
C1958 C1959 1.394 . S
C1958 H1966 0.930 . S
C1959 C1958 1.394 . S
C1959 C1960 1.383 . S
C1959 H1967 0.929 . S
C1960 C1959 1.383 . S
C1960 C1961 1.377 . S
C1961 H1945 0.930 . S
C1961 C1960 1.377 . S
C1961 C1962 1.379 . S
C1962 H1946 0.931 . S
C1962 C1956 1.383 . S
C1962 C1961 1.379 . S
H1963 C1957 0.959 . S
H1964 C1957 0.961 . S
H1965 C1957 0.960 . S
H1966 C1958 0.930 . S
H1967 C1959 0.929 . S
C537 N145 2.230 . S
C556 N13 2.231 . S
C573 N46 2.233 . S
C592 N178 2.227 . S
C609 N79 2.232 . S
C628 N211 2.216 . S
C645 N112 2.233 . S
C664 N244 2.233 . S
C681 N277 2.228 . S
C700 N409 2.234 . S
C717 N442 2.231 . S
C736 N310 2.240 . S
C753 N475 2.232 . S
C772 N343 2.224 . S
C789 N376 2.233 . S
C808 N508 2.234 . S
C825 C18 1.123 . S
C844 C480 1.128 . S
C861 C51 1.124 . S
C880 C513 1.134 . S
C897 C84 1.111 . S
C916 C414 1.101 . S
C933 C447 1.120 . S
C952 C117 1.150 . S
C969 C348 1.112 . S
C988 C150 1.079 . S
C1005 C183 1.124 . S
C1024 C381 1.135 . S
C1041 C216 1.124 . S
C1060 C282 1.150 . S
C1077 C249 1.124 . S
C1096 C315 1.114 . S
C1113 C7 1.191 . S
C1132 C73 1.219 . S
C1149 C40 1.190 . S
C1168 C106 1.195 . S
C1185 C139 1.205 . S
C1204 C205 1.200 . S
C1221 C172 1.208 . S
C1240 C238 1.227 . S
C1257 C337 1.192 . S
C1276 C271 1.216 . S
C1293 C370 1.191 . S
C1312 C304 1.170 . S
C1329 C403 1.191 . S
C1348 C469 1.246 . S
C1365 C436 1.190 . S
C1384 C502 1.188 . S
C1401 C54 0.439 . S
C1420 N2 0.475 . S
C1437 N35 0.548 . S
C1456 C87 0.477 . S
C1473 C120 0.473 . S
C1492 N68 0.611 . S
C1509 N101 0.516 . S
C1528 C21 0.516 . S
C1545 C516 0.440 . S
C1564 N134 0.484 . S
C1581 N167 0.514 . S
C1600 C417 0.484 . S
C1617 N200 0.516 . S
C1636 C450 0.380 . S
C1653 N233 0.540 . S
C1672 C483 0.530 . S
C1689 N266 0.518 . S
C1708 C318 0.427 . S
C1725 C351 0.440 . S
C1744 N299 0.598 . S
C1761 N332 0.535 . S
C1780 C384 0.509 . S
C1797 N365 0.549 . S
C1816 C285 0.470 . S
C1833 C252 0.454 . S
C1852 N398 0.566 . S
C1869 N431 0.544 . S
C1888 C153 0.514 . S
C1905 N464 0.528 . S
C1924 C186 0.423 . S
C1941 N497 0.524 . S
C1960 C219 0.399 . S
