# Generated by pormake.
# Topology ume, (4)-cn, num edge types: 1
# Building blocks:
#     Node 0, Type 0, BuildingBlock: QUQFOY_clean_sbu_1, # of connection points: 4
#     Node 1, Type 0, BuildingBlock: QUQFOY_clean_sbu_1, # of connection points: 4
#     Node 2, Type 0, BuildingBlock: QUQFOY_clean_sbu_1, # of connection points: 4
#     Node 3, Type 0, BuildingBlock: QUQFOY_clean_sbu_1, # of connection points: 4
#     Node 4, Type 0, BuildingBlock: QUQFOY_clean_sbu_1, # of connection points: 4
#     Node 5, Type 0, BuildingBlock: QUQFOY_clean_sbu_1, # of connection points: 4
#     Node 6, Type 0, BuildingBlock: QUQFOY_clean_sbu_1, # of connection points: 4
#     Node 7, Type 0, BuildingBlock: QUQFOY_clean_sbu_1, # of connection points: 4
#     Node 8, Type 0, BuildingBlock: QUQFOY_clean_sbu_1, # of connection points: 4
#     Node 9, Type 0, BuildingBlock: QUQFOY_clean_sbu_1, # of connection points: 4
#     Node 10, Type 0, BuildingBlock: QUQFOY_clean_sbu_1, # of connection points: 4
#     Node 11, Type 0, BuildingBlock: QUQFOY_clean_sbu_1, # of connection points: 4
#     Node 12, Type 0, BuildingBlock: QUQFOY_clean_sbu_1, # of connection points: 4
#     Node 13, Type 0, BuildingBlock: QUQFOY_clean_sbu_1, # of connection points: 4
#     Node 14, Type 0, BuildingBlock: QUQFOY_clean_sbu_1, # of connection points: 4
#     Node 15, Type 0, BuildingBlock: QUQFOY_clean_sbu_1, # of connection points: 4
#     Edge 16, Type (0, 0), BuildingBlock: ZUJKAS_clean_linker_0, # of connection points: 2
#     Edge 17, Type (0, 0), BuildingBlock: ZUJKAS_clean_linker_0, # of connection points: 2
#     Edge 18, Type (0, 0), BuildingBlock: ZUJKAS_clean_linker_0, # of connection points: 2
#     Edge 19, Type (0, 0), BuildingBlock: ZUJKAS_clean_linker_0, # of connection points: 2
#     Edge 20, Type (0, 0), BuildingBlock: ZUJKAS_clean_linker_0, # of connection points: 2
#     Edge 21, Type (0, 0), BuildingBlock: ZUJKAS_clean_linker_0, # of connection points: 2
#     Edge 22, Type (0, 0), BuildingBlock: ZUJKAS_clean_linker_0, # of connection points: 2
#     Edge 23, Type (0, 0), BuildingBlock: ZUJKAS_clean_linker_0, # of connection points: 2
#     Edge 24, Type (0, 0), BuildingBlock: ZUJKAS_clean_linker_0, # of connection points: 2
#     Edge 25, Type (0, 0), BuildingBlock: ZUJKAS_clean_linker_0, # of connection points: 2
#     Edge 26, Type (0, 0), BuildingBlock: ZUJKAS_clean_linker_0, # of connection points: 2
#     Edge 27, Type (0, 0), BuildingBlock: ZUJKAS_clean_linker_0, # of connection points: 2
#     Edge 28, Type (0, 0), BuildingBlock: ZUJKAS_clean_linker_0, # of connection points: 2
#     Edge 29, Type (0, 0), BuildingBlock: ZUJKAS_clean_linker_0, # of connection points: 2
#     Edge 30, Type (0, 0), BuildingBlock: ZUJKAS_clean_linker_0, # of connection points: 2
#     Edge 31, Type (0, 0), BuildingBlock: ZUJKAS_clean_linker_0, # of connection points: 2
#     Edge 32, Type (0, 0), BuildingBlock: ZUJKAS_clean_linker_0, # of connection points: 2
#     Edge 33, Type (0, 0), BuildingBlock: ZUJKAS_clean_linker_0, # of connection points: 2
#     Edge 34, Type (0, 0), BuildingBlock: ZUJKAS_clean_linker_0, # of connection points: 2
#     Edge 35, Type (0, 0), BuildingBlock: ZUJKAS_clean_linker_0, # of connection points: 2
#     Edge 36, Type (0, 0), BuildingBlock: ZUJKAS_clean_linker_0, # of connection points: 2
#     Edge 37, Type (0, 0), BuildingBlock: ZUJKAS_clean_linker_0, # of connection points: 2
#     Edge 38, Type (0, 0), BuildingBlock: ZUJKAS_clean_linker_0, # of connection points: 2
#     Edge 39, Type (0, 0), BuildingBlock: ZUJKAS_clean_linker_0, # of connection points: 2
#     Edge 40, Type (0, 0), BuildingBlock: ZUJKAS_clean_linker_0, # of connection points: 2
#     Edge 41, Type (0, 0), BuildingBlock: ZUJKAS_clean_linker_0, # of connection points: 2
#     Edge 42, Type (0, 0), BuildingBlock: ZUJKAS_clean_linker_0, # of connection points: 2
#     Edge 43, Type (0, 0), BuildingBlock: ZUJKAS_clean_linker_0, # of connection points: 2
#     Edge 44, Type (0, 0), BuildingBlock: ZUJKAS_clean_linker_0, # of connection points: 2
#     Edge 45, Type (0, 0), BuildingBlock: ZUJKAS_clean_linker_0, # of connection points: 2
#     Edge 46, Type (0, 0), BuildingBlock: ZUJKAS_clean_linker_0, # of connection points: 2
#     Edge 47, Type (0, 0), BuildingBlock: ZUJKAS_clean_linker_0, # of connection points: 2
# Relax obj value: 0.049
# Max RMSD: 0.120
# Mean RMSD: 0.120
data_MOF--net-ume--node1-QUQFOY_clean_sbu_1--edge1-ZUJKAS_clean_linker_0
_symmetry_space_group_name_H-M    P1
_symmetry_Int_Tables_number       1
_symmetry_cell_setting            triclinic
loop_
_symmetry_equiv_pos_as_xyz
'x, y, z'
_cell_length_a     37.026822
_cell_length_b     37.042335
_cell_length_c     148.67451
_cell_angle_alpha  90.001705
_cell_angle_beta   90.036583
_cell_angle_gamma 89.985504
loop_
_atom_site_label
_atom_site_type_symbol
_atom_site_fract_x
_atom_site_fract_y
_atom_site_fract_z
_atom_type_partial_charge
O0 O 0.24721 0.10197 0.33189 0.0
Cd1 Cd 0.249 0.07907 0.31921 0.0
Cd2 Cd 0.27703 0.14372 0.31533 0.0
O3 O 0.26102 0.15795 0.32818 0.0
O4 O 0.21355 0.03829 0.31954 0.0
O5 O 0.20588 0.08693 0.31115 0.0
C6 C 0.19347 0.05655 0.3141 0.0
C7 C 0.26383 0.1767 0.30237 0.0
C8 C 0.25164 0.13488 0.33408 0.0
C9 C 0.32666 0.07968 0.31391 0.0
O10 O 0.32367 0.1138 0.31439 0.0
O11 O 0.29894 0.05972 0.31491 0.0
O12 O 0.28684 0.1883 0.30822 0.0
O13 O 0.24644 0.14735 0.3042 0.0
O14 O 0.91045 0.74794 0.58162 0.0
Cd15 Cd 0.93406 0.75107 0.56904 0.0
Cd16 Cd 0.86923 0.77915 0.56529 0.0
O17 O 0.85443 0.76198 0.57799 0.0
O18 O 0.97494 0.71573 0.56961 0.0
O19 O 0.92799 0.70881 0.56059 0.0
C20 C 0.95781 0.69616 0.56384 0.0
C21 C 0.83712 0.76687 0.55213 0.0
C22 C 0.87753 0.7521 0.58383 0.0
C23 C 0.93313 0.82934 0.56438 0.0
O24 O 0.899 0.82597 0.56475 0.0
O25 O 0.95335 0.80168 0.56519 0.0
O26 O 0.82499 0.78929 0.55805 0.0
O27 O 0.86652 0.74956 0.55398 0.0
O28 O 0.27423 0.4051 0.83178 0.0
Cd29 Cd 0.27026 0.43086 0.81947 0.0
Cd30 Cd 0.23963 0.36689 0.81528 0.0
O31 O 0.25453 0.35086 0.82807 0.0
O32 O 0.30581 0.47134 0.82048 0.0
O33 O 0.31227 0.42634 0.81086 0.0
C34 C 0.32517 0.45534 0.81447 0.0
C35 C 0.25189 0.33439 0.8022 0.0
C36 C 0.26725 0.37257 0.83388 0.0
C37 C 0.19166 0.43259 0.81466 0.0
O38 O 0.19414 0.39839 0.81452 0.0
O39 O 0.21972 0.45184 0.81598 0.0
O40 O 0.2283 0.32328 0.80795 0.0
O41 O 0.27029 0.36298 0.80417 0.0
O42 O 0.60317 0.76305 0.08188 0.0
Cd43 Cd 0.58015 0.76043 0.06921 0.0
Cd44 Cd 0.64505 0.73221 0.06553 0.0
O45 O 0.65923 0.74874 0.07834 0.0
O46 O 0.53875 0.79528 0.06952 0.0
O47 O 0.58709 0.8034 0.06106 0.0
C48 C 0.55655 0.81542 0.064 0.0
C49 C 0.67609 0.7467 0.05238 0.0
C50 C 0.63602 0.75861 0.08415 0.0
C51 C 0.58129 0.68235 0.0642 0.0
O52 O 0.6154 0.68544 0.06471 0.0
O53 O 0.56122 0.71009 0.06506 0.0
O54 O 0.68894 0.72356 0.05804 0.0
O55 O 0.64668 0.76342 0.05452 0.0
O56 O 0.24332 0.40501 0.93152 0.0
Cd57 Cd 0.24624 0.43055 0.94388 0.0
Cd58 Cd 0.27705 0.36675 0.94808 0.0
O59 O 0.26334 0.35085 0.93521 0.0
O60 O 0.21044 0.47082 0.9428 0.0
O61 O 0.20391 0.42566 0.95237 0.0
C62 C 0.19099 0.45467 0.94876 0.0
C63 C 0.26285 0.33507 0.96116 0.0
C64 C 0.25082 0.37263 0.92937 0.0
C65 C 0.32448 0.43275 0.949 0.0
O66 O 0.32225 0.39853 0.94912 0.0
O67 O 0.2964 0.45182 0.94756 0.0
O68 O 0.28729 0.32355 0.95567 0.0
O69 O 0.24476 0.36352 0.95889 0.0
O70 O 0.60199 0.74764 0.18137 0.0
Cd71 Cd 0.57952 0.75022 0.19408 0.0
Cd72 Cd 0.64482 0.77704 0.19778 0.0
O73 O 0.65842 0.76021 0.18496 0.0
O74 O 0.53829 0.71523 0.19392 0.0
O75 O 0.58726 0.7073 0.2022 0.0
C76 C 0.55662 0.69511 0.19935 0.0
C77 C 0.67771 0.76382 0.21076 0.0
C78 C 0.63495 0.75121 0.17912 0.0
C79 C 0.5818 0.82802 0.19917 0.0
O80 O 0.61584 0.82427 0.19862 0.0
O81 O 0.56121 0.80067 0.19832 0.0
O82 O 0.6897 0.78632 0.20485 0.0
O83 O 0.64802 0.7469 0.20899 0.0
O84 O 0.26898 0.10348 0.43101 0.0
Cd85 Cd 0.26637 0.07944 0.44354 0.0
Cd86 Cd 0.23763 0.14389 0.44753 0.0
O87 O 0.25374 0.15902 0.43476 0.0
O88 O 0.30217 0.03904 0.44288 0.0
O89 O 0.30866 0.08579 0.45197 0.0
C90 C 0.32158 0.0562 0.44868 0.0
C91 C 0.24993 0.17656 0.4606 0.0
C92 C 0.26401 0.13635 0.42886 0.0
C93 C 0.18838 0.07925 0.44854 0.0
O94 O 0.19131 0.11342 0.4483 0.0
O95 O 0.21618 0.05942 0.44747 0.0
O96 O 0.22701 0.18809 0.45472 0.0
O97 O 0.26773 0.14746 0.45875 0.0
O98 O 0.91228 0.76347 0.68116 0.0
Cd99 Cd 0.93489 0.76103 0.69388 0.0
Cd100 Cd 0.86998 0.73353 0.69751 0.0
O101 O 0.85591 0.75081 0.68475 0.0
O102 O 0.97633 0.79577 0.69362 0.0
O103 O 0.92769 0.80417 0.70197 0.0
C104 C 0.95834 0.81608 0.69906 0.0
C105 C 0.83803 0.74655 0.71062 0.0
C106 C 0.87932 0.75987 0.67891 0.0
C107 C 0.93325 0.68301 0.69878 0.0
O108 O 0.89919 0.68637 0.69816 0.0
O109 O 0.95352 0.71066 0.69808 0.0
O110 O 0.82553 0.72425 0.70472 0.0
O111 O 0.86769 0.76338 0.70877 0.0
O112 O 0.75135 0.60533 0.83196 0.0
Cd113 Cd 0.75406 0.58077 0.81949 0.0
Cd114 Cd 0.78233 0.64542 0.81546 0.0
O115 O 0.76612 0.66097 0.82819 0.0
O116 O 0.71877 0.53993 0.82036 0.0
O117 O 0.71142 0.58603 0.81111 0.0
C118 C 0.69894 0.55652 0.81454 0.0
C119 C 0.76799 0.67583 0.8022 0.0
C120 C 0.756 0.63826 0.83409 0.0
C121 C 0.83218 0.58119 0.81456 0.0
O122 O 0.82895 0.61534 0.81477 0.0
O123 O 0.80451 0.56114 0.8156 0.0
O124 O 0.79138 0.6887 0.80779 0.0
O125 O 0.751 0.64672 0.80445 0.0
O126 O 0.41159 0.24178 0.08143 0.0
Cd127 Cd 0.43452 0.24447 0.06876 0.0
Cd128 Cd 0.36995 0.27406 0.0651 0.0
O129 O 0.35622 0.25934 0.07806 0.0
O130 O 0.47532 0.20902 0.06907 0.0
O131 O 0.42689 0.20171 0.06057 0.0
C132 C 0.45718 0.18915 0.06355 0.0
C133 C 0.33631 0.26091 0.05224 0.0
C134 C 0.37915 0.24805 0.08377 0.0
C135 C 0.43475 0.32257 0.06359 0.0
O136 O 0.40058 0.31997 0.06395 0.0
O137 O 0.45439 0.29464 0.06469 0.0
O138 O 0.32522 0.28426 0.05806 0.0
O139 O 0.36546 0.24311 0.05406 0.0
O140 O 0.76608 0.91079 0.33165 0.0
Cd141 Cd 0.76415 0.93403 0.31901 0.0
Cd142 Cd 0.73635 0.8692 0.31514 0.0
O143 O 0.75225 0.85476 0.32799 0.0
O144 O 0.79923 0.97516 0.31945 0.0
O145 O 0.80734 0.92691 0.31094 0.0
C146 C 0.81945 0.95732 0.31395 0.0
C147 C 0.75051 0.83767 0.30204 0.0
C148 C 0.76165 0.87791 0.33387 0.0
C149 C 0.68642 0.93314 0.31379 0.0
O150 O 0.68967 0.89903 0.31421 0.0
O151 O 0.71403 0.95327 0.31479 0.0
O152 O 0.72713 0.82532 0.30769 0.0
O153 O 0.76772 0.8668 0.30416 0.0
O154 O 0.10669 0.27255 0.5814 0.0
Cd155 Cd 0.08083 0.2685 0.56909 0.0
Cd156 Cd 0.14486 0.23766 0.56495 0.0
O157 O 0.16084 0.25225 0.57776 0.0
O158 O 0.04035 0.30418 0.57001 0.0
O159 O 0.08547 0.31025 0.56042 0.0
C160 C 0.0564 0.32328 0.56396 0.0
C161 C 0.17624 0.25125 0.55179 0.0
C162 C 0.13915 0.26526 0.58354 0.0
C163 C 0.07909 0.18989 0.56425 0.0
O164 O 0.11331 0.1923 0.5641 0.0
O165 O 0.05987 0.21793 0.56561 0.0
O166 O 0.18801 0.22722 0.55736 0.0
O167 O 0.14773 0.26931 0.55402 0.0
O168 O 0.74691 0.91113 0.43106 0.0
Cd169 Cd 0.74978 0.93533 0.44358 0.0
Cd170 Cd 0.77747 0.8704 0.44756 0.0
O171 O 0.76116 0.85529 0.43479 0.0
O172 O 0.71442 0.97618 0.44289 0.0
O173 O 0.70749 0.92961 0.45202 0.0
C174 C 0.69487 0.95931 0.44871 0.0
C175 C 0.76346 0.83945 0.46076 0.0
C176 C 0.75132 0.8782 0.4289 0.0
C177 C 0.82778 0.93431 0.44853 0.0
O178 O 0.82423 0.9002 0.4483 0.0
O179 O 0.80031 0.95463 0.44748 0.0
O180 O 0.78666 0.82677 0.45511 0.0
O181 O 0.74641 0.86865 0.4586 0.0
O182 O 0.1057 0.24271 0.68137 0.0
Cd183 Cd 0.08163 0.24516 0.69392 0.0
Cd184 Cd 0.1458 0.27549 0.69784 0.0
O185 O 0.16057 0.26135 0.68491 0.0
O186 O 0.04102 0.20951 0.69335 0.0
O187 O 0.08861 0.20236 0.70214 0.0
C188 C 0.05866 0.18971 0.69898 0.0
C189 C 0.17797 0.26159 0.71087 0.0
C190 C 0.13814 0.24958 0.67912 0.0
C191 C 0.08025 0.32323 0.69914 0.0
O192 O 0.11447 0.32094 0.69896 0.0
O193 O 0.06097 0.29517 0.6979 0.0
O194 O 0.18945 0.2857 0.70529 0.0
O195 O 0.14941 0.2435 0.7087 0.0
O196 O 0.76532 0.60413 0.93117 0.0
Cd197 Cd 0.76236 0.58009 0.9437 0.0
Cd198 Cd 0.73428 0.6447 0.94758 0.0
O199 O 0.75153 0.66003 0.93492 0.0
O200 O 0.79753 0.53916 0.94296 0.0
O201 O 0.80488 0.58559 0.95211 0.0
C202 C 0.81733 0.55592 0.94875 0.0
C203 C 0.74691 0.67609 0.96081 0.0
C204 C 0.7613 0.63713 0.92903 0.0
C205 C 0.68414 0.5808 0.94842 0.0
O206 O 0.68742 0.61492 0.94806 0.0
O207 O 0.71187 0.56067 0.94759 0.0
O208 O 0.7244 0.68858 0.95496 0.0
O209 O 0.76408 0.64672 0.95887 0.0
O210 O 0.40943 0.2697 0.18185 0.0
Cd211 Cd 0.43352 0.26635 0.19439 0.0
Cd212 Cd 0.36948 0.23515 0.1981 0.0
O213 O 0.35481 0.24985 0.1852 0.0
O214 O 0.47443 0.30165 0.19389 0.0
O215 O 0.42705 0.30892 0.20273 0.0
C216 C 0.45708 0.3214 0.19958 0.0
C217 C 0.33756 0.24905 0.21115 0.0
C218 C 0.37714 0.26251 0.17953 0.0
C219 C 0.43518 0.18781 0.19934 0.0
O220 O 0.40095 0.18979 0.19911 0.0
O221 O 0.45423 0.21612 0.19822 0.0
O222 O 0.32594 0.22498 0.20557 0.0
O223 O 0.36617 0.26704 0.20897 0.0
H224 H 0.85089 0.02116 0.3188 0.0
H225 H 0.91391 0.0391 0.31689 0.0
H226 H 0.93555 0.93983 0.30273 0.0
H227 H 0.87229 0.92192 0.30448 0.0
H228 H 0.97117 1.00319 0.32389 0.0
H229 H 0.98661 0.01341 0.28688 0.0
H230 H 0.94301 0.01201 0.29231 0.0
H231 H 0.96823 0.9711 0.29059 0.0
C232 C 0.86885 1.00339 0.31513 0.0
C233 C 0.85648 0.97007 0.31179 0.0
C234 C 0.90493 0.01369 0.31406 0.0
C235 C 0.92951 0.99099 0.30961 0.0
C236 C 0.91702 0.95816 0.30603 0.0
H237 H 0.16107 0.99321 0.31898 0.0
H238 H 0.0976 0.97653 0.31722 0.0
C239 C 0.88083 0.94787 0.30708 0.0
C240 C 0.96862 1.00036 0.30943 0.0
H241 H 0.04087 0.01458 0.29554 0.0
C242 C 0.98633 1.00581 0.31768 0.0
C243 C 0.98841 1.00408 0.30134 0.0
C244 C 0.97057 1.00019 0.29227 0.0
C245 C 0.02322 0.01441 0.31807 0.0
C246 C 0.0433 0.01699 0.31 0.0
C247 C 0.02556 0.01216 0.30173 0.0
C248 C 0.08263 0.0252 0.31009 0.0
C249 C 0.04026 0.02121 0.32714 0.0
C250 C 0.09573 0.05734 0.30629 0.0
C251 C 0.13218 0.06689 0.30723 0.0
C252 C 0.1562 0.04438 0.31197 0.0
C253 C 0.14331 0.01133 0.31535 0.0
C254 C 0.10696 1.0018 0.31439 0.0
H255 H 0.01966 0.02719 0.33237 0.0
H256 H 0.05533 0.99678 0.32928 0.0
H257 H 0.05956 0.04412 0.32683 0.0
H258 H 0.07747 0.07572 0.3029 0.0
H259 H 0.1412 0.0925 0.30453 0.0
H260 H 0.00978 0.65706 0.57244 0.0
H261 H 0.02631 0.5942 0.56999 0.0
H262 H 0.95176 0.58825 0.54772 0.0
H263 H 0.93383 0.65106 0.55043 0.0
H264 H 0.94353 0.53184 0.55769 0.0
H265 H 0.08997 0.54638 0.55229 0.0
H266 H 0.07763 0.56644 0.5628 0.0
H267 H 0.06005 0.5848 0.55244 0.0
C268 C 0.99727 0.64263 0.56692 0.0
C269 C 0.97059 0.65921 0.5616 0.0
C270 C 0.00699 0.6066 0.56548 0.0
C271 C 0.99095 0.58643 0.55854 0.0
C272 C 0.96475 0.60318 0.55309 0.0
H273 H 0.07804 0.36758 0.55015 0.0
H274 H 0.05975 0.43027 0.54742 0.0
C275 C 0.95459 0.63915 0.55462 0.0
C276 C 0.99964 0.54728 0.55745 0.0
H277 H 0.06979 0.48732 0.55709 0.0
C278 C 0.97117 0.52219 0.55741 0.0
C279 C 0.0356 0.53436 0.55687 0.0
C280 C 0.06747 0.5595 0.556 0.0
C281 C 0.97766 0.48478 0.55727 0.0
C282 C 0.0137 0.47188 0.55751 0.0
C283 C 0.04213 0.49696 0.55707 0.0
C284 C 0.02257 0.4328 0.55864 0.0
C285 C 0.94568 0.45961 0.55683 0.0
C286 C 0.0078 0.41307 0.56583 0.0
C287 C 0.01771 0.37712 0.56729 0.0
C288 C 0.04335 0.36016 0.56174 0.0
C289 C 0.0581 0.37978 0.55452 0.0
C290 C 0.04773 0.41568 0.55298 0.0
H291 H 0.92253 0.47251 0.55332 0.0
H292 H 0.95245 0.43409 0.5533 0.0
H293 H 0.93674 0.45306 0.56376 0.0
H294 H 0.98933 0.42578 0.5705 0.0
H295 H 1.00619 0.36304 0.57299 0.0
H296 H 0.65378 0.57813 0.80088 0.0
H297 H 0.59073 0.56035 0.79849 0.0
H298 H 0.59667 0.48976 0.82152 0.0
H299 H 0.65988 0.50605 0.82367 0.0
H300 H 0.55923 0.45849 0.80893 0.0
H301 H 0.50783 0.59836 0.81261 0.0
H302 H 0.53863 0.59306 0.8034 0.0
H303 H 0.55427 0.5867 0.81476 0.0
C304 C 0.64171 0.55853 0.80537 0.0
C305 C 0.66184 0.54366 0.81249 0.0
C306 C 0.60551 0.54865 0.80405 0.0
C307 C 0.58845 0.5244 0.80997 0.0
C308 C 0.60899 0.50864 0.81688 0.0
H309 H 0.36461 0.50493 0.82379 0.0
H310 H 0.42778 0.52121 0.82166 0.0
C311 C 0.64524 0.51801 0.8181 0.0
C312 C 0.54918 0.51572 0.80916 0.0
H313 H 0.46487 0.55343 0.80919 0.0
C314 C 0.5386 0.47928 0.80896 0.0
C315 C 0.5221 0.54278 0.8093 0.0
C316 C 0.53117 0.58238 0.81012 0.0
C317 C 0.50199 0.46912 0.80911 0.0
C318 C 0.47491 0.49619 0.80912 0.0
C319 C 0.48549 0.53264 0.8091 0.0
C320 C 0.43565 0.48748 0.80992 0.0
C321 C 0.49291 0.42947 0.80973 0.0
C322 C 0.4184 0.46373 0.80391 0.0
C323 C 0.38219 0.45384 0.80522 0.0
C324 C 0.36226 0.46822 0.81243 0.0
C325 C 0.37907 0.49336 0.81815 0.0
C326 C 0.41532 0.50272 0.81694 0.0
H327 H 0.5163 0.41326 0.8121 0.0
H328 H 0.46992 0.42476 0.81437 0.0
H329 H 0.4853 0.41938 0.80296 0.0
H330 H 0.43303 0.45243 0.79828 0.0
H331 H 0.36996 0.43463 0.80065 0.0
H332 H 0.42112 0.13697 0.05399 0.0
H333 H 0.43774 0.07318 0.05242 0.0
H334 H 0.53704 0.09317 0.06672 0.0
H335 H 0.52054 0.15668 0.06842 0.0
H336 H 0.49884 0.03612 0.04513 0.0
H337 H 0.48593 0.01587 0.08198 0.0
H338 H 0.46916 0.05568 0.07636 0.0
H339 H 0.51648 0.05135 0.07886 0.0
C340 C 0.44674 0.12791 0.05669 0.0
C341 C 0.46932 0.1519 0.06141 0.0
C342 C 0.45618 0.09142 0.05579 0.0
C343 C 0.4883 0.07827 0.0596 0.0
C344 C 0.51179 0.10257 0.06387 0.0
H345 H 0.59175 0.86803 0.05442 0.0
H346 H 0.5736 0.93115 0.05253 0.0
C347 C 0.50237 0.13895 0.0648 0.0
C348 C 0.49636 0.03892 0.05958 0.0
H349 H 0.51002 0.96716 0.0736 0.0
C350 C 0.50121 0.02096 0.05135 0.0
C351 C 0.49886 0.01905 0.06769 0.0
C352 C 0.49201 0.03631 0.07673 0.0
C353 C 0.50926 0.98381 0.05102 0.0
C354 C 0.51295 0.96424 0.05916 0.0
C355 C 0.50743 0.98215 0.06737 0.0
C356 C 0.52242 0.92516 0.0594 0.0
C357 C 0.51319 0.96575 0.04199 0.0
C358 C 0.4998 0.90067 0.0639 0.0
C359 C 0.51023 0.86466 0.06505 0.0
C360 C 0.54363 0.85231 0.06176 0.0
C361 C 0.56575 0.87657 0.05699 0.0
C362 C 0.55532 0.91268 0.05587 0.0
H363 H 0.49992 0.98161 0.03657 0.0
H364 H 0.5423 0.96342 0.04032 0.0
H365 H 0.50144 0.93817 0.04207 0.0
H366 H 0.47434 0.90965 0.06671 0.0
H367 H 0.49253 0.84678 0.06876 0.0
H368 H 0.14639 0.43411 0.96263 0.0
H369 H 0.08334 0.45193 0.96504 0.0
H370 H 0.08814 0.5202 0.94156 0.0
H371 H 0.15131 0.50391 0.93939 0.0
H372 H 0.05133 0.55271 0.95403 0.0
H373 H 0.99979 0.41252 0.95138 0.0
H374 H 0.03097 0.41883 0.96048 0.0
H375 H 0.04614 0.42392 0.94905 0.0
C376 C 0.13405 0.4532 0.95804 0.0
C377 C 0.15386 0.46745 0.95079 0.0
C378 C 0.09786 0.4631 0.95937 0.0
C379 C 0.0805 0.48672 0.95335 0.0
C380 C 0.1007 0.50182 0.94629 0.0
H381 H 0.85631 0.50509 0.93973 0.0
H382 H 0.91949 0.48878 0.94191 0.0
C383 C 0.13694 0.49245 0.94505 0.0
C384 C 0.04126 0.49549 0.95419 0.0
H385 H 0.95695 0.45786 0.95453 0.0
C386 C 0.0307 0.53194 0.95417 0.0
C387 C 0.01418 0.46844 0.95427 0.0
C388 C 0.02323 0.42876 0.95371 0.0
C389 C 0.9941 0.54211 0.95399 0.0
C390 C 0.96702 0.51508 0.9542 0.0
C391 C 0.97758 0.47863 0.95445 0.0
C392 C 0.92775 0.52376 0.9534 0.0
C393 C 0.98503 0.5817 0.95313 0.0
C394 C 0.91072 0.54821 0.95927 0.0
C395 C 0.87453 0.55811 0.95793 0.0
C396 C 0.85439 0.54305 0.95084 0.0
C397 C 0.87096 0.5172 0.94527 0.0
C398 C 0.9072 0.50782 0.94651 0.0
H399 H 0.00836 0.59761 0.95061 0.0
H400 H 0.9619 0.58593 0.94849 0.0
H401 H 0.97762 0.59254 0.95983 0.0
H402 H 0.92551 0.56006 0.96481 0.0
H403 H 0.86247 0.57787 0.96238 0.0
H404 H 0.52063 0.35309 0.19463 0.0
H405 H 0.53845 0.41609 0.19655 0.0
H406 H 0.43979 0.43717 0.21103 0.0
H407 H 0.42201 0.37388 0.20927 0.0
H408 H 0.50199 0.47318 0.1897 0.0
H409 H 0.51395 0.4885 0.22668 0.0
H410 H 0.51243 0.44494 0.22124 0.0
H411 H 0.47151 0.47002 0.22308 0.0
C412 C 0.50298 0.37091 0.19838 0.0
C413 C 0.46985 0.35838 0.20179 0.0
C414 C 0.51321 0.407 0.19946 0.0
C415 C 0.49064 0.43142 0.20399 0.0
C416 C 0.45804 0.41876 0.20766 0.0
H417 H 0.49283 0.66305 0.19465 0.0
H418 H 0.4759 0.5997 0.19646 0.0
C419 C 0.44782 0.38255 0.20661 0.0
C420 C 0.49987 0.47056 0.20416 0.0
H421 H 0.51475 0.54274 0.21804 0.0
C422 C 0.5049 0.48831 0.19591 0.0
C423 C 0.50396 0.49032 0.21225 0.0
C424 C 0.50053 0.47246 0.22132 0.0
C425 C 0.51348 0.52519 0.1955 0.0
C426 C 0.51647 0.54523 0.20358 0.0
C427 C 0.51202 0.52746 0.21185 0.0
C428 C 0.52481 0.58452 0.20348 0.0
C429 C 0.51988 0.54223 0.18642 0.0
C430 C 0.55717 0.59749 0.2072 0.0
C431 C 0.56686 0.63387 0.20623 0.0
C432 C 0.54428 0.65797 0.20154 0.0
C433 C 0.51101 0.64523 0.19824 0.0
C434 C 0.50134 0.60894 0.19923 0.0
H435 H 0.52557 0.52165 0.18117 0.0
H436 H 0.49536 0.55735 0.18436 0.0
H437 H 0.54284 0.56149 0.18668 0.0
H438 H 0.57561 0.57917 0.21055 0.0
H439 H 0.59264 0.64277 0.20887 0.0
H440 H 0.36132 1.00522 0.43993 0.0
H441 H 0.42425 0.98899 0.44242 0.0
H442 H 0.42911 0.06207 0.46499 0.0
H443 H 0.36623 0.07973 0.46224 0.0
H444 H 0.48583 0.07122 0.45519 0.0
H445 H 0.4718 0.92443 0.45996 0.0
H446 H 0.45199 0.93733 0.44945 0.0
H447 H 0.43322 0.95415 0.45984 0.0
C448 C 0.37553 0.01747 0.44552 0.0
C449 C 0.35862 0.04366 0.45092 0.0
C450 C 0.4116 0.00793 0.44698 0.0
C451 C 0.43147 0.02361 0.45403 0.0
C452 C 0.41441 0.04935 0.45954 0.0
H453 H 0.65032 0.93649 0.46233 0.0
H454 H 0.58757 0.95454 0.46507 0.0
C455 C 0.3784 0.05936 0.45798 0.0
C456 C 0.47063 0.01505 0.45516 0.0
H457 H 0.5309 0.94517 0.45531 0.0
C458 C 0.4956 0.04362 0.45537 0.0
C459 C 0.4837 0.97912 0.45561 0.0
C460 C 0.45868 0.9471 0.45631 0.0
C461 C 0.53304 0.03728 0.45554 0.0
C462 C 0.54611 1.00134 0.45517 0.0
C463 C 0.52114 0.97278 0.45543 0.0
C464 C 0.58526 0.9927 0.45405 0.0
C465 C 0.55807 0.06932 0.45618 0.0
C466 C 0.60515 0.00814 0.44698 0.0
C467 C 0.64115 0.99838 0.44552 0.0
C468 C 0.65798 0.97222 0.45095 0.0
C469 C 0.63821 0.95683 0.45805 0.0
C470 C 0.60227 0.96706 0.4596 0.0
H471 H 0.54498 0.09211 0.45978 0.0
H472 H 0.58356 0.06237 0.45972 0.0
H473 H 0.56471 0.07886 0.4493 0.0
H474 H 0.59253 0.027 0.44239 0.0
H475 H 0.65537 0.01039 0.4399 0.0
H476 H 0.09375 0.13778 0.70886 0.0
H477 H 0.07692 0.07408 0.71048 0.0
H478 H 0.97914 0.09363 0.6955 0.0
H479 H 0.99589 0.15705 0.69375 0.0
H480 H 0.01526 0.03757 0.7175 0.0
H481 H 0.03117 0.01532 0.6808 0.0
H482 H 0.04751 0.05541 0.68637 0.0
H483 H 1.0004 0.05102 0.68364 0.0
C484 C 0.06843 0.12864 0.70601 0.0
C485 C 0.04636 0.15248 0.70109 0.0
C486 C 0.05886 0.0922 0.70694 0.0
C487 C 0.02712 0.07894 0.70296 0.0
C488 C 1.00411 0.1031 0.69847 0.0
H489 H 0.92265 0.86926 0.70835 0.0
H490 H 0.94082 0.93242 0.71011 0.0
C491 C 0.01367 0.13943 0.69752 0.0
C492 C 0.01892 0.03961 0.70306 0.0
H493 H 1.00612 0.96717 0.68921 0.0
C494 C 0.01334 0.0221 0.71133 0.0
C495 C 0.017 0.01932 0.69501 0.0
C496 C 0.02466 0.03607 0.68595 0.0
C497 C 1.00514 0.98499 0.71173 0.0
C498 C 1.00202 0.96501 0.70365 0.0
C499 C 0.00826 0.98247 0.69541 0.0
C500 C 0.99245 0.92595 0.70348 0.0
C501 C 1.00045 0.96743 0.72081 0.0
C502 C 0.01531 0.90116 0.69916 0.0
C503 C 1.00486 0.86513 0.69807 0.0
C504 C 0.97122 0.85303 0.70127 0.0
C505 C 0.94884 0.87759 0.70586 0.0
C506 C 0.95929 0.91373 0.70692 0.0
H507 H 0.01338 0.9835 0.72623 0.0
H508 H 0.97121 0.96535 0.72235 0.0
H509 H 0.01207 0.93979 0.72086 0.0
H510 H 0.04098 0.90992 0.69643 0.0
H511 H 0.02277 0.84701 0.6945 0.0
H512 H 0.66668 1.00487 0.31352 0.0
H513 H 0.60522 0.02958 0.3126 0.0
H514 H 0.56219 0.92185 0.31039 0.0
H515 H 0.623 0.89695 0.31131 0.0
H516 H 0.54921 0.01869 0.29882 0.0
H517 H 0.5096 0.96666 0.33245 0.0
H518 H 0.55616 0.97064 0.32898 0.0
H519 H 0.52899 0.9338 0.32499 0.0
C520 C 0.64416 0.98646 0.31278 0.0
C521 C 0.64984 0.9489 0.31256 0.0
C522 C 0.60909 1.00062 0.31226 0.0
C523 C 0.57917 0.97747 0.31157 0.0
C524 C 0.58486 0.94014 0.31107 0.0
H525 H 0.34554 0.00782 0.31324 0.0
H526 H 0.4065 0.98242 0.31192 0.0
C527 C 0.61975 0.92599 0.31156 0.0
C528 C 0.54186 0.99206 0.31154 0.0
H529 H 0.46329 0.9924 0.32357 0.0
C530 C 0.53042 0.01311 0.30424 0.0
C531 C 0.51738 0.98448 0.3186 0.0
C532 C 0.5286 0.96291 0.32675 0.0
C533 C 0.49489 0.02639 0.30373 0.0
C534 C 0.47044 0.01902 0.31082 0.0
C535 C 0.48195 0.99787 0.31812 0.0
C536 C 0.4333 0.03422 0.31102 0.0
C537 C 0.4837 0.04757 0.29552 0.0
C538 C 0.42811 0.07171 0.31098 0.0
C539 C 0.39343 0.08626 0.3117 0.0
C540 C 0.36306 0.06364 0.31258 0.0
C541 C 0.36826 0.02602 0.31255 0.0
C542 C 0.40308 0.01146 0.31181 0.0
H543 H 0.50127 0.04143 0.28966 0.0
H544 H 0.45524 0.04181 0.29365 0.0
H545 H 0.48614 0.07685 0.29698 0.0
H546 H 0.451 0.08984 0.31061 0.0
H547 H 0.39058 0.11536 0.31175 0.0
H548 H 1.00477 0.84888 0.56316 0.0
H549 H 0.02956 0.91017 0.56232 0.0
H550 H 0.92174 0.95414 0.56282 0.0
H551 H 0.89679 0.89336 0.56343 0.0
H552 H 0.96376 0.98815 0.55048 0.0
H553 H 0.03538 0.98018 0.58323 0.0
H554 H 0.04824 0.9456 0.5754 0.0
H555 H 1.00287 0.94676 0.57971 0.0
C556 C 0.98635 0.87158 0.56305 0.0
C557 C 0.94879 0.86609 0.56342 0.0
C558 C 1.00056 0.90663 0.56264 0.0
C559 C 0.97752 0.93683 0.56268 0.0
C560 C 0.94007 0.93133 0.56282 0.0
H561 H 0.00694 0.17141 0.56495 0.0
H562 H 0.98098 0.11046 0.56419 0.0
C563 C 0.92586 0.89644 0.56318 0.0
C564 C 0.99213 0.97424 0.56265 0.0
H565 H 0.0457 0.03256 0.57445 0.0
C566 C 0.9816 0.99789 0.55574 0.0
C567 C 0.01517 0.98706 0.56955 0.0
C568 C 0.02585 0.96373 0.57744 0.0
C569 C 0.99405 0.03374 0.55544 0.0
C570 C 0.01737 0.04635 0.56228 0.0
C571 C 0.02783 0.02278 0.56921 0.0
C572 C 0.03229 0.08355 0.56227 0.0
C573 C 0.98281 0.05766 0.54772 0.0
C574 C 0.06964 0.08859 0.56147 0.0
C575 C 0.08448 0.12317 0.5619 0.0
C576 C 0.06233 0.15365 0.56321 0.0
C577 C 0.02475 0.14861 0.5639 0.0
C578 C 0.00987 0.11382 0.56344 0.0
H579 H 0.97067 0.04195 0.54212 0.0
H580 H 0.96244 0.0774 0.55012 0.0
H581 H 1.00629 0.07305 0.5451 0.0
H582 H 0.08742 0.06562 0.56057 0.0
H583 H 0.11351 0.12587 0.56133 0.0
H584 H 0.17321 0.50476 0.81516 0.0
H585 H 0.11214 0.5307 0.81446 0.0
H586 H 0.0672 0.42415 0.81129 0.0
H587 H 0.12752 0.39807 0.81196 0.0
H588 H 0.05587 0.52145 0.80031 0.0
H589 H 0.01507 0.468 0.83372 0.0
H590 H 0.06175 0.47217 0.83036 0.0
H591 H 0.03474 0.43556 0.82618 0.0
C592 C 0.15034 0.4869 0.81426 0.0
C593 C 0.15536 0.4493 0.81368 0.0
C594 C 0.1155 0.50175 0.81386 0.0
C595 C 0.08517 0.47925 0.81296 0.0
C596 C 0.09019 0.44193 0.81213 0.0
H597 H 0.85161 0.50939 0.81411 0.0
H598 H 0.91284 0.48437 0.81308 0.0
C599 C 0.12482 0.42711 0.81249 0.0
C600 C 0.04808 0.4944 0.81296 0.0
H601 H 0.96908 0.49432 0.82482 0.0
C602 C 0.03691 0.51575 0.80568 0.0
C603 C 0.02335 0.48659 0.81994 0.0
C604 C 0.03427 0.46457 0.82804 0.0
C605 C 1.00138 0.52902 0.80512 0.0
C606 C 0.97665 0.52137 0.81214 0.0
C607 C 0.98793 0.50002 0.81942 0.0
C608 C 0.93937 0.53633 0.81225 0.0
C609 C 0.99047 0.55037 0.79691 0.0
C610 C 0.93392 0.57379 0.81217 0.0
C611 C 0.89909 0.5881 0.81271 0.0
C612 C 0.86879 0.56531 0.81346 0.0
C613 C 0.87426 0.52772 0.81351 0.0
C614 C 0.90925 0.51339 0.81294 0.0
H615 H 0.00828 0.54439 0.79109 0.0
H616 H 0.9621 0.5446 0.79497 0.0
H617 H 0.99281 0.57962 0.79842 0.0
H618 H 0.9567 0.59208 0.81187 0.0
H619 H 0.89606 0.61718 0.81271 0.0
H620 H 0.50954 0.6636 0.06274 0.0
H621 H 0.48421 0.60262 0.0616 0.0
H622 H 0.59161 0.55761 0.06203 0.0
H623 H 0.61712 0.61811 0.06297 0.0
H624 H 0.54891 0.52483 0.04948 0.0
H625 H 0.47812 0.5316 0.08235 0.0
H626 H 0.46565 0.56679 0.07465 0.0
H627 H 0.51104 0.56477 0.07894 0.0
C628 C 0.52776 0.64073 0.06255 0.0
C629 C 0.56537 0.64584 0.06301 0.0
C630 C 0.51323 0.60587 0.06196 0.0
C631 C 0.536 0.57548 0.06191 0.0
C632 C 0.5735 0.5806 0.06211 0.0
H633 H 0.50679 0.34138 0.06367 0.0
H634 H 0.5323 0.40244 0.06275 0.0
C635 C 0.58803 0.61532 0.06266 0.0
C636 C 0.52103 0.53825 0.06175 0.0
H637 H 0.46756 0.47965 0.07346 0.0
C638 C 0.53116 0.51492 0.05473 0.0
C639 C 0.4981 0.52524 0.06864 0.0
C640 C 0.48782 0.54824 0.07662 0.0
C641 C 0.51849 0.47917 0.05434 0.0
C642 C 0.49538 0.46633 0.0612 0.0
C643 C 0.48526 0.48961 0.06821 0.0
C644 C 0.48065 0.42907 0.06117 0.0
C645 C 0.52933 0.45561 0.04652 0.0
C646 C 0.44324 0.42383 0.06061 0.0
C647 C 0.42865 0.38916 0.06115 0.0
C648 C 0.45112 0.35884 0.06233 0.0
C649 C 0.48873 0.36407 0.06273 0.0
C650 C 0.50336 0.39893 0.06217 0.0
H651 H 0.54079 0.47164 0.04089 0.0
H652 H 0.55016 0.43607 0.04879 0.0
H653 H 0.50583 0.44 0.04399 0.0
H654 H 0.42524 0.4467 0.05985 0.0
H655 H 0.39957 0.38629 0.0608 0.0
H656 H 0.38855 0.39881 0.95224 0.0
H657 H 0.44869 0.42522 0.95299 0.0
H658 H 0.40344 0.53117 0.94889 0.0
H659 H 0.34261 0.50491 0.94814 0.0
H660 H 0.48157 0.46604 0.93894 0.0
H661 H 0.47194 0.54341 0.97091 0.0
H662 H 0.44095 0.50748 0.96809 0.0
H663 H 0.43641 0.55093 0.96287 0.0
C664 C 0.39113 0.42781 0.95158 0.0
C665 C 0.36059 0.44973 0.95012 0.0
C666 C 0.42566 0.44283 0.952 0.0
C667 C 0.43055 0.48013 0.95106 0.0
C668 C 0.40019 0.50233 0.94976 0.0
H669 H 0.61986 0.61677 0.94918 0.0
H670 H 0.55922 0.59146 0.94993 0.0
C671 C 0.36547 0.48727 0.94931 0.0
C672 C 0.46769 0.4952 0.95097 0.0
H673 H 0.52561 0.55017 0.96247 0.0
C674 C 0.49127 0.48438 0.94409 0.0
C675 C 0.48019 0.51915 0.95769 0.0
C676 C 0.45625 0.53082 0.96536 0.0
C677 C 0.5269 0.49728 0.94366 0.0
C678 C 0.53961 0.52097 0.95043 0.0
C679 C 0.51594 0.53185 0.95731 0.0
C680 C 0.57692 0.53584 0.95031 0.0
C681 C 0.55022 0.48618 0.93581 0.0
C682 C 0.60728 0.51302 0.95045 0.0
C683 C 0.64224 0.52744 0.94996 0.0
C684 C 0.64747 0.56499 0.94942 0.0
C685 C 0.61697 0.58771 0.94956 0.0
C686 C 0.58216 0.5733 0.95 0.0
H687 H 0.53377 0.47611 0.93008 0.0
H688 H 0.56703 0.50908 0.93342 0.0
H689 H 0.56853 0.46407 0.93795 0.0
H690 H 0.60395 0.48404 0.9509 0.0
H691 H 0.66508 0.50917 0.94993 0.0
H692 H 0.61903 0.89126 0.20081 0.0
H693 H 0.59489 0.95232 0.20192 0.0
H694 H 0.48643 0.91012 0.20129 0.0
H695 H 0.51037 0.8485 0.2002 0.0
H696 H 0.5489 0.98578 0.18913 0.0
H697 H 0.48637 0.98014 0.22307 0.0
H698 H 0.51963 0.94775 0.21934 0.0
H699 H 0.47373 0.94437 0.21552 0.0
C700 C 0.58999 0.89476 0.20099 0.0
C701 C 0.56663 0.86483 0.20042 0.0
C702 C 0.57628 0.92978 0.20161 0.0
C703 C 0.53892 0.93577 0.20176 0.0
C704 C 0.5154 0.90605 0.20132 0.0
H705 H 0.40133 0.12304 0.20159 0.0
H706 H 0.42834 0.06323 0.20242 0.0
C707 C 0.52912 0.87086 0.20067 0.0
C708 C 0.52483 0.97329 0.20193 0.0
H709 H 0.47512 0.03264 0.2144 0.0
C710 C 0.53292 0.99614 0.19467 0.0
C711 C 0.50402 0.98666 0.20917 0.0
C712 C 0.49558 0.96364 0.21727 0.0
C713 C 0.51999 0.03178 0.19435 0.0
C714 C 0.49911 0.04522 0.20158 0.0
C715 C 0.49127 0.02239 0.20888 0.0
C716 C 0.48345 0.08218 0.20148 0.0
C717 C 0.5278 0.05428 0.18611 0.0
C718 C 0.50549 0.113 0.20087 0.0
C719 C 0.49006 0.14752 0.20034 0.0
C720 C 0.45231 0.15182 0.20049 0.0
C721 C 0.43049 0.12089 0.20141 0.0
C722 C 0.44589 0.08655 0.2019 0.0
H723 H 0.53629 0.03735 0.18031 0.0
H724 H 0.50373 0.07024 0.1841 0.0
H725 H 0.55007 0.07337 0.18763 0.0
H726 H 0.5346 0.11035 0.20073 0.0
H727 H 0.50765 0.17073 0.19969 0.0
H728 H 0.84807 1.00592 0.44878 0.0
H729 H 0.90974 0.03015 0.44961 0.0
H730 H 0.9521 0.92205 0.45156 0.0
H731 H 0.89109 0.89763 0.45073 0.0
H732 H 0.9659 0.01791 0.46341 0.0
H733 H 1.00476 0.96766 0.42954 0.0
H734 H 0.95827 0.97202 0.43304 0.0
H735 H 0.985 0.93464 0.4369 0.0
C736 C 0.87049 0.98733 0.44944 0.0
C737 C 0.86455 0.94981 0.44962 0.0
C738 C 0.90568 1.00121 0.44991 0.0
C739 C 0.93546 0.97783 0.45051 0.0
C740 C 0.92954 0.94052 0.45095 0.0
H741 H 0.16942 0.00733 0.44878 0.0
H742 H 0.10842 0.9819 0.44997 0.0
C743 C 0.89453 0.92665 0.45051 0.0
C744 C 0.97288 0.99214 0.45056 0.0
H745 H 0.05129 0.99273 0.43847 0.0
C746 C 0.98457 0.01258 0.45795 0.0
C747 C 0.99722 0.98483 0.44346 0.0
C748 C 0.98574 0.96383 0.43524 0.0
C749 C 0.0202 0.02555 0.45848 0.0
C750 C 0.04449 0.01854 0.45133 0.0
C751 C 0.03275 0.99795 0.44396 0.0
C752 C 0.08168 0.03365 0.45115 0.0
C753 C 0.03165 0.04603 0.46678 0.0
C754 C 0.08691 0.07113 0.45137 0.0
C755 C 0.1216 0.08567 0.45073 0.0
C756 C 0.15196 0.0631 0.44974 0.0
C757 C 0.14672 0.02549 0.44956 0.0
C758 C 0.11186 0.01092 0.45023 0.0
H759 H 0.0142 0.03945 0.47263 0.0
H760 H 0.06014 0.04004 0.46858 0.0
H761 H 0.02923 0.07543 0.46548 0.0
H762 H 0.06405 0.08926 0.45185 0.0
H763 H 0.12446 0.11476 0.45084 0.0
H764 H 0.11465 0.38709 0.70227 0.0
H765 H 0.08846 0.44729 0.70318 0.0
H766 H 0.98203 0.40242 0.69956 0.0
H767 H 0.00808 0.34155 0.69867 0.0
H768 H 0.04711 0.48037 0.68937 0.0
H769 H 0.9711 0.47089 0.72153 0.0
H770 H 1.00661 0.43961 0.71857 0.0
H771 H 0.96279 0.43553 0.7135 0.0
C772 C 0.0856 0.38978 0.70175 0.0
C773 C 0.06347 0.35934 0.70038 0.0
C774 C 0.0707 0.42433 0.70227 0.0
C775 C 0.03333 0.42934 0.7015 0.0
C776 C 0.01094 0.39908 0.70031 0.0
H777 H 0.89703 0.61891 0.69963 0.0
H778 H 0.92219 0.55821 0.70046 0.0
C779 C 0.02587 0.36433 0.69977 0.0
C780 C 0.01835 0.46652 0.70146 0.0
H781 H 0.96384 0.52449 0.71307 0.0
C782 C 0.02897 0.49009 0.69456 0.0
C783 C 0.99466 0.47904 0.70823 0.0
C784 C 0.98323 0.45513 0.71593 0.0
C785 C 0.01612 0.52573 0.69416 0.0
C786 C 0.99267 0.53845 0.70098 0.0
C787 C 0.98198 0.5148 0.70787 0.0
C788 C 0.97786 0.57577 0.70088 0.0
C789 C 0.02701 0.54907 0.68629 0.0
C790 C 1.00077 0.60603 0.70103 0.0
C791 C 0.98645 0.641 0.7005 0.0
C792 C 0.9489 0.64634 0.6999 0.0
C793 C 0.92608 0.61593 0.70005 0.0
C794 C 0.9404 0.5811 0.70054 0.0
H795 H 0.03701 0.53266 0.68056 0.0
H796 H 1.00401 0.56582 0.68393 0.0
H797 H 0.04912 0.56742 0.68841 0.0
H798 H 0.02975 0.60261 0.70149 0.0
H799 H 1.00479 0.66377 0.70046 0.0
H800 H 0.22322 0.09518 0.34782 0.0
H801 H 0.22419 0.1091 0.36384 0.0
H802 H 0.27435 0.2117 0.35826 0.0
H803 H 0.2736 0.19794 0.34212 0.0
H804 H 0.31072 0.16989 0.3713 0.0
H805 H 0.16496 0.18002 0.37915 0.0
H806 H 0.17601 0.14006 0.3729 0.0
H807 H 0.18232 0.18372 0.36783 0.0
C808 C 0.23396 0.12099 0.34996 0.0
C809 C 0.24838 0.14543 0.34367 0.0
C810 C 0.23429 0.12899 0.35913 0.0
C811 C 0.24897 0.1616 0.36224 0.0
C812 C 0.26265 0.18649 0.35599 0.0
H813 H 0.23956 0.19833 0.42074 0.0
H814 H 0.23863 0.21176 0.40458 0.0
C815 C 0.26211 0.17861 0.34677 0.0
C816 C 0.25265 0.16793 0.37205 0.0
H817 H 0.20457 0.16765 0.39163 0.0
C818 C 0.2875 0.1701 0.37574 0.0
C819 C 0.22236 0.16865 0.37783 0.0
C820 C 0.18428 0.16836 0.37423 0.0
C821 C 0.29288 0.17067 0.38509 0.0
C822 C 0.26266 0.16868 0.39088 0.0
C823 C 0.22776 0.16885 0.38719 0.0
C824 C 0.26664 0.16292 0.40071 0.0
C825 C 0.33092 0.17252 0.3887 0.0
C826 C 0.28293 0.13119 0.40388 0.0
C827 C 0.28336 0.12337 0.41307 0.0
C828 C 0.26746 0.14713 0.41929 0.0
C829 C 0.25223 0.17956 0.41613 0.0
C830 C 0.25157 0.18723 0.4069 0.0
H831 H 0.3496 0.18498 0.38374 0.0
H832 H 0.33206 0.18822 0.39506 0.0
H833 H 0.34068 0.14475 0.3901 0.0
H834 H 0.29413 0.11172 0.39921 0.0
H835 H 0.29529 0.09815 0.41526 0.0
H836 H 0.81441 0.77319 0.59204 0.0
H837 H 0.80163 0.77406 0.60824 0.0
H838 H 0.90479 0.72434 0.61349 0.0
H839 H 0.9177 0.72313 0.59741 0.0
H840 H 0.84582 0.69622 0.62395 0.0
H841 H 0.85574 0.84625 0.62501 0.0
H842 H 0.82431 0.82689 0.61714 0.0
H843 H 0.87189 0.82023 0.61557 0.0
C844 C 0.83412 0.76192 0.59664 0.0
C845 C 0.86723 0.74839 0.59343 0.0
C846 C 0.82685 0.76265 0.60589 0.0
C847 C 0.85251 0.74974 0.61206 0.0
C848 C 0.88469 0.73456 0.60884 0.0
H849 H 0.92073 0.78594 0.6652 0.0
H850 H 0.90731 0.78493 0.64914 0.0
C851 C 0.89204 0.73397 0.59964 0.0
C852 C 0.84727 0.75367 0.6219 0.0
H853 H 0.8495 0.81611 0.6388 0.0
C854 C 0.84596 0.72241 0.62722 0.0
C855 C 0.84784 0.78793 0.62611 0.0
C856 C 0.85024 0.82235 0.62071 0.0
C857 C 0.84643 0.72443 0.63665 0.0
C858 C 0.84797 0.75866 0.64086 0.0
C859 C 0.84803 0.78995 0.63554 0.0
C860 C 0.85384 0.7623 0.65069 0.0
C861 C 0.84727 0.68992 0.64205 0.0
C862 C 0.82777 0.75085 0.65692 0.0
C863 C 0.83533 0.75145 0.66615 0.0
C864 C 0.86915 0.76343 0.6693 0.0
C865 C 0.89451 0.77632 0.66303 0.0
C866 C 0.88687 0.77585 0.65383 0.0
H867 H 0.8513 0.66577 0.63773 0.0
H868 H 0.86923 0.69087 0.64713 0.0
H869 H 0.8213 0.68675 0.64568 0.0
H870 H 0.80191 0.74074 0.65462 0.0
H871 H 0.81517 0.7414 0.6708 0.0
H872 H 0.31731 0.39548 0.84599 0.0
H873 H 0.3177 0.38492 0.86221 0.0
H874 H 0.22336 0.31726 0.85958 0.0
H875 H 0.22438 0.32602 0.84328 0.0
H876 H 0.27011 0.40727 0.87301 0.0
H877 H 0.27612 0.25944 0.87763 0.0
H878 H 0.28496 0.28052 0.86692 0.0
H879 H 0.23922 0.27186 0.87047 0.0
C880 C 0.29732 0.3775 0.84886 0.0
C881 C 0.2709 0.36147 0.84339 0.0
C882 C 0.29745 0.37154 0.85814 0.0
C883 C 0.27068 0.35008 0.86218 0.0
C884 C 0.24494 0.33307 0.85666 0.0
H885 H 0.20375 0.39782 0.91678 0.0
H886 H 0.20631 0.38831 0.90052 0.0
C887 C 0.2454 0.33827 0.84733 0.0
C888 C 0.26736 0.34923 0.87217 0.0
H889 H 0.25533 0.2939 0.89034 0.0
C890 C 0.2673 0.38235 0.87678 0.0
C891 C 0.26396 0.31683 0.87717 0.0
C892 C 0.26646 0.28018 0.87279 0.0
C893 C 0.26366 0.38411 0.88615 0.0
C894 C 0.25811 0.3519 0.89109 0.0
C895 C 0.2588 0.31864 0.88654 0.0
C896 C 0.25251 0.3525 0.901 0.0
C897 C 0.26674 0.42056 0.89064 0.0
C898 C 0.2757 0.33322 0.90674 0.0
C899 C 0.27352 0.33775 0.91608 0.0
C900 C 0.2484 0.36198 0.91981 0.0
C901 C 0.2237 0.37935 0.91408 0.0
C902 C 0.22535 0.37418 0.90479 0.0
H903 H 0.28205 0.43998 0.88641 0.0
H904 H 0.23931 0.43188 0.89168 0.0
H905 H 0.28041 0.41849 0.89727 0.0
H906 H 0.29665 0.31606 0.90399 0.0
H907 H 0.29294 0.32405 0.92034 0.0
H908 H 0.59655 0.78928 0.09762 0.0
H909 H 0.60962 0.78896 0.1137 0.0
H910 H 0.71095 0.73531 0.10867 0.0
H911 H 0.69808 0.73545 0.09248 0.0
H912 H 0.6665 0.70099 0.12167 0.0
H913 H 0.68214 0.84669 0.12906 0.0
H914 H 0.64231 0.83669 0.12263 0.0
H915 H 0.68612 0.82843 0.11783 0.0
C916 C 0.62192 0.77791 0.0999 0.0
C917 C 0.64625 0.76234 0.09375 0.0
C918 C 0.62944 0.77795 0.1091 0.0
C919 C 0.66141 0.76245 0.11237 0.0
C920 C 0.68623 0.74763 0.10627 0.0
H921 H 0.69785 0.77242 0.17089 0.0
H922 H 0.711 0.77236 0.15471 0.0
C923 C 0.67887 0.74784 0.09702 0.0
C924 C 0.66705 0.7591 0.12222 0.0
H925 H 0.66803 0.80833 0.14163 0.0
C926 C 0.66752 0.72444 0.12604 0.0
C927 C 0.66877 0.78968 0.1279 0.0
C928 C 0.67017 0.82748 0.12415 0.0
C929 C 0.66745 0.71961 0.13541 0.0
C930 C 0.6666 0.75023 0.14108 0.0
C931 C 0.66838 0.78485 0.13727 0.0
C932 C 0.6606 0.74707 0.15091 0.0
C933 C 0.66745 0.68178 0.13916 0.0
C934 C 0.62803 0.7327 0.15413 0.0
C935 C 0.62036 0.73286 0.16332 0.0
C936 C 0.64513 0.74743 0.16951 0.0
C937 C 0.67828 0.76082 0.16631 0.0
C938 C 0.68581 0.76091 0.15707 0.0
H939 H 0.67884 0.66216 0.13427 0.0
H940 H 0.68321 0.68028 0.1455 0.0
H941 H 0.63925 0.67357 0.14063 0.0
H942 H 0.60793 0.72246 0.14949 0.0
H943 H 0.59457 0.72236 0.16555 0.0
H944 H 0.77748 0.70159 0.84216 0.0
H945 H 0.77804 0.71518 0.85832 0.0
H946 H 0.72767 0.6126 0.8638 0.0
H947 H 0.72671 0.59892 0.84776 0.0
H948 H 0.69947 0.67168 0.87403 0.0
H949 H 0.84956 0.66223 0.87541 0.0
H950 H 0.83036 0.69341 0.86746 0.0
H951 H 0.82389 0.6458 0.86593 0.0
C952 C 0.76603 0.68217 0.84679 0.0
C953 C 0.75236 0.64901 0.84366 0.0
C954 C 0.76658 0.6899 0.85603 0.0
C955 C 0.75338 0.66465 0.86225 0.0
C956 C 0.73811 0.6324 0.85911 0.0
H957 H 0.78883 0.59683 0.9153 0.0
H958 H 0.78835 0.61085 0.89928 0.0
C959 C 0.73768 0.6246 0.84992 0.0
C960 C 0.75701 0.67035 0.87209 0.0
H961 H 0.81895 0.66865 0.88912 0.0
C962 C 0.72557 0.67171 0.87734 0.0
C963 C 0.79115 0.67001 0.87637 0.0
C964 C 0.82577 0.66757 0.87105 0.0
C965 C 0.72729 0.67136 0.88678 0.0
C966 C 0.76141 0.66997 0.89107 0.0
C967 C 0.79288 0.67 0.88581 0.0
C968 C 0.76478 0.66388 0.90089 0.0
C969 C 0.69259 0.67039 0.8921 0.0
C970 C 0.75263 0.68953 0.90715 0.0
C971 C 0.75289 0.6816 0.91637 0.0
C972 C 0.76525 0.64785 0.91946 0.0
C973 C 0.77889 0.62298 0.91317 0.0
C974 C 0.77873 0.63097 0.904 0.0
H975 H 0.6686 0.66617 0.88773 0.0
H976 H 0.69349 0.6485 0.8972 0.0
H977 H 0.68913 0.69638 0.89571 0.0
H978 H 0.74222 0.71531 0.9049 0.0
H979 H 0.74227 0.70139 0.92104 0.0
H980 H 0.40078 0.31268 0.16755 0.0
H981 H 0.39135 0.31318 0.15128 0.0
H982 H 0.32453 0.21809 0.15352 0.0
H983 H 0.33207 0.21906 0.16986 0.0
H984 H 0.41454 0.2667 0.14038 0.0
H985 H 0.26675 0.27046 0.13547 0.0
H986 H 0.28732 0.2791 0.14626 0.0
H987 H 0.27941 0.23342 0.14255 0.0
C988 C 0.38324 0.29253 0.16458 0.0
C989 C 0.36702 0.26593 0.16995 0.0
C990 C 0.37794 0.29271 0.15527 0.0
C991 C 0.35698 0.26582 0.15111 0.0
C992 C 0.33992 0.2398 0.15653 0.0
H993 H 0.40723 0.20232 0.0963 0.0
H994 H 0.39829 0.20433 0.11258 0.0
C995 C 0.34443 0.24021 0.16588 0.0
C996 C 0.35651 0.26284 0.1411 0.0
H997 H 0.30189 0.25039 0.12281 0.0
C998 C 0.38977 0.26356 0.13656 0.0
C999 C 0.3243 0.25905 0.13603 0.0
C1000 C 0.28745 0.26086 0.14033 0.0
C1001 C 0.39185 0.26034 0.12718 0.0
C1002 C 0.35987 0.25434 0.12217 0.0
C1003 C 0.32648 0.25421 0.12666 0.0
C1004 C 0.36074 0.24917 0.11224 0.0
C1005 C 0.42836 0.26443 0.12277 0.0
C1006 C 0.34041 0.27169 0.10656 0.0
C1007 C 0.34458 0.26972 0.09721 0.0
C1008 C 0.36952 0.24553 0.0934 0.0
C1009 C 0.38819 0.22157 0.09906 0.0
C1010 C 0.38334 0.22294 0.10837 0.0
H1011 H 0.44725 0.28016 0.12706 0.0
H1012 H 0.44043 0.23733 0.12173 0.0
H1013 H 0.42616 0.27815 0.11616 0.0
H1014 H 0.32252 0.29191 0.10936 0.0
H1015 H 0.32988 0.28857 0.093 0.0
H1016 H 0.74084 0.81445 0.34196 0.0
H1017 H 0.73947 0.80128 0.35813 0.0
H1018 H 0.78725 0.90505 0.36367 0.0
H1019 H 0.78898 0.91836 0.34761 0.0
H1020 H 0.81621 0.84644 0.37405 0.0
H1021 H 0.66594 0.85322 0.37492 0.0
H1022 H 0.68607 0.82243 0.36702 0.0
H1023 H 0.69181 0.87016 0.36554 0.0
C1024 C 0.75154 0.83424 0.34661 0.0
C1025 C 0.76473 0.86761 0.34348 0.0
C1026 C 0.75052 0.82674 0.35585 0.0
C1027 C 0.76279 0.85241 0.36209 0.0
C1028 C 0.77754 0.88492 0.35896 0.0
H1029 H 0.72345 0.91835 0.41518 0.0
H1030 H 0.72489 0.9049 0.39913 0.0
C1031 C 0.77842 0.8925 0.34977 0.0
C1032 C 0.75876 0.84675 0.37192 0.0
H1033 H 0.69593 0.84697 0.38874 0.0
C1034 C 0.78995 0.84589 0.37728 0.0
C1035 C 0.72441 0.84641 0.37608 0.0
C1036 C 0.69003 0.84832 0.37064 0.0
C1037 C 0.78774 0.84598 0.38671 0.0
C1038 C 0.75339 0.84662 0.39088 0.0
C1039 C 0.72219 0.84618 0.38551 0.0
C1040 C 0.74941 0.85228 0.40071 0.0
C1041 C 0.82215 0.84744 0.39215 0.0
C1042 C 0.76176 0.82664 0.40695 0.0
C1043 C 0.76094 0.83424 0.41619 0.0
C1044 C 0.74783 0.86765 0.41931 0.0
C1045 C 0.73396 0.89246 0.41303 0.0
C1046 C 0.73468 0.8848 0.40384 0.0
H1047 H 0.84626 0.8523 0.38787 0.0
H1048 H 0.82056 0.86911 0.3973 0.0
H1049 H 0.82595 0.82139 0.39571 0.0
H1050 H 0.77277 0.80115 0.40467 0.0
H1051 H 0.77175 0.81451 0.42084 0.0
H1052 H 0.18745 0.29059 0.67003 0.0
H1053 H 0.19528 0.29418 0.65368 0.0
H1054 H 0.12044 0.20599 0.65025 0.0
H1055 H 0.11109 0.20363 0.66652 0.0
H1056 H 0.2164 0.25249 0.64012 0.0
H1057 H 0.07099 0.28252 0.63598 0.0
H1058 H 0.09221 0.2804 0.64687 0.0
H1059 H 0.07795 0.23964 0.64127 0.0
C1060 C 0.17309 0.27164 0.66578 0.0
C1061 C 0.14825 0.24718 0.66952 0.0
C1062 C 0.17754 0.27375 0.65644 0.0
C1063 C 0.15756 0.25113 0.65071 0.0
C1064 C 0.13513 0.22463 0.65451 0.0
H1065 H 0.18471 0.22169 0.59305 0.0
H1066 H 0.19306 0.22071 0.60937 0.0
C1067 C 0.13004 0.22308 0.66381 0.0
C1068 C 0.15843 0.25659 0.64079 0.0
H1069 H 0.10363 0.26952 0.62263 0.0
C1070 C 0.19178 0.25647 0.63628 0.0
C1071 C 0.12643 0.26278 0.6358 0.0
C1072 C 0.08995 0.26676 0.64024 0.0
C1073 C 0.19389 0.26146 0.62691 0.0
C1074 C 0.16164 0.26549 0.62187 0.0
C1075 C 0.12843 0.26622 0.62643 0.0
C1076 C 0.16105 0.26867 0.61187 0.0
C1077 C 0.23068 0.26314 0.62258 0.0
C1078 C 0.14018 0.29578 0.60776 0.0
C1079 C 0.13444 0.29563 0.59847 0.0
C1080 C 0.15012 0.26885 0.59306 0.0
C1081 C 0.17276 0.24298 0.59706 0.0
C1082 C 0.17772 0.24255 0.6064 0.0
H1083 H 0.25151 0.27247 0.62744 0.0
H1084 H 0.23852 0.23571 0.62031 0.0
H1085 H 0.23083 0.28152 0.61668 0.0
H1086 H 0.12708 0.31633 0.61179 0.0
H1087 H 0.11689 0.3159 0.59555 0.0
H1088 H 0.29678 0.23861 0.29672 0.0
H1089 H 0.30081 0.2614 0.28134 0.0
H1090 H 0.22969 0.17665 0.27231 0.0
H1091 H 0.22517 0.15386 0.28771 0.0
H1092 H 0.32968 0.2194 0.26781 0.0
H1093 H 0.19188 0.26438 0.25843 0.0
H1094 H 0.20575 0.25812 0.26998 0.0
H1095 H 0.19364 0.21984 0.26318 0.0
C1096 C 0.28123 0.22532 0.29151 0.0
C1097 C 0.26077 0.19429 0.29345 0.0
C1098 C 0.28361 0.2384 0.28272 0.0
C1099 C 0.2654 0.2209 0.27568 0.0
C1100 C 0.24344 0.19103 0.27765 0.0
H1101 H 0.28198 0.20977 0.21823 0.0
H1102 H 0.26262 0.20786 0.23392 0.0
C1103 C 0.24101 0.17792 0.28647 0.0
C1104 C 0.27309 0.231 0.2662 0.0
H1105 H 0.23392 0.2565 0.24637 0.0
C1106 C 0.30883 0.22802 0.26315 0.0
C1107 C 0.24578 0.24186 0.26012 0.0
C1108 C 0.20714 0.24658 0.26309 0.0
C1109 C 0.3179 0.23448 0.25414 0.0
C1110 C 0.29059 0.24513 0.24802 0.0
C1111 C 0.25486 0.24859 0.25108 0.0
C1112 C 0.29849 0.25045 0.23831 0.0
C1113 C 0.35642 0.22829 0.25118 0.0
C1114 C 0.32396 0.27614 0.23548 0.0
C1115 C 0.33531 0.27715 0.2265 0.0
C1116 C 0.32108 0.25273 0.22019 0.0
C1117 C 0.29363 0.22886 0.22292 0.0
C1118 C 0.28248 0.22774 0.2319 0.0
H1119 H 0.37187 0.21207 0.25615 0.0
H1120 H 0.35734 0.21421 0.24459 0.0
H1121 H 0.3702 0.25472 0.25043 0.0
H1122 H 0.33608 0.29448 0.24028 0.0
H1123 H 0.35629 0.29605 0.22461 0.0
H1124 H 0.79945 0.78117 0.4676 0.0
H1125 H 0.8016 0.76152 0.48325 0.0
H1126 H 0.72184 0.8416 0.49023 0.0
H1127 H 0.72002 0.86196 0.47458 0.0
H1128 H 0.78221 0.84668 0.50043 0.0
H1129 H 0.73713 0.70421 0.49992 0.0
H1130 H 0.77228 0.71322 0.49193 0.0
H1131 H 0.72901 0.73476 0.49067 0.0
C1132 C 0.78169 0.79407 0.47241 0.0
C1133 C 0.75967 0.82327 0.46983 0.0
C1134 C 0.78279 0.7826 0.48137 0.0
C1135 C 0.76162 0.7998 0.48792 0.0
C1136 C 0.73829 0.8278 0.48528 0.0
H1137 H 0.7744 0.7986 0.54654 0.0
H1138 H 0.75201 0.80354 0.53112 0.0
C1139 C 0.73724 0.83937 0.47632 0.0
C1140 C 0.76719 0.79168 0.49761 0.0
H1141 H 0.76955 0.72341 0.51309 0.0
C1142 C 0.77888 0.81983 0.50322 0.0
C1143 C 0.76324 0.75656 0.50124 0.0
C1144 C 0.74939 0.72553 0.49565 0.0
C1145 C 0.78774 0.81369 0.51227 0.0
C1146 C 0.78424 0.77851 0.51587 0.0
C1147 C 0.77214 0.75036 0.51031 0.0
C1148 C 0.79426 0.77061 0.52533 0.0
C1149 C 0.80203 0.84471 0.51782 0.0
C1150 C 0.82437 0.74889 0.52724 0.0
C1151 C 0.83716 0.7458 0.53608 0.0
C1152 C 0.82 0.76439 0.54314 0.0
C1153 C 0.78843 0.78415 0.54125 0.0
C1154 C 0.77564 0.78714 0.53244 0.0
H1155 H 0.81053 0.86784 0.51356 0.0
H1156 H 0.78052 0.8543 0.52243 0.0
H1157 H 0.82542 0.83601 0.52196 0.0
H1158 H 0.83903 0.73579 0.52185 0.0
H1159 H 0.8615 0.73031 0.5373 0.0
H1160 H 0.15896 0.21514 0.72442 0.0
H1161 H 0.1791 0.21718 0.7401 0.0
H1162 H 0.25324 0.303 0.73358 0.0
H1163 H 0.23391 0.30065 0.71788 0.0
H1164 H 0.28143 0.25432 0.7462 0.0
H1165 H 0.14391 0.3009 0.75569 0.0
H1166 H 0.14513 0.25805 0.75006 0.0
H1167 H 0.15863 0.2982 0.74415 0.0
C1168 C 0.18008 0.23394 0.72628 0.0
C1169 C 0.1945 0.25804 0.71991 0.0
C1170 C 0.1914 0.23523 0.73526 0.0
C1171 C 0.21705 0.26084 0.73805 0.0
C1172 C 0.23325 0.28319 0.73159 0.0
H1173 H 0.29103 0.35698 0.78759 0.0
H1174 H 0.28636 0.33454 0.77215 0.0
C1175 C 0.22211 0.28181 0.72261 0.0
C1176 C 0.22489 0.2665 0.74774 0.0
H1177 H 0.18578 0.29334 0.76743 0.0
C1178 C 0.26052 0.26267 0.75087 0.0
C1179 C 0.19762 0.27773 0.7538 0.0
C1180 C 0.15924 0.28432 0.75077 0.0
C1181 C 0.26951 0.26952 0.75991 0.0
C1182 C 0.24223 0.2809 0.76593 0.0
C1183 C 0.20661 0.28434 0.76282 0.0
C1184 C 0.24983 0.29086 0.77542 0.0
C1185 C 0.30802 0.2643 0.76295 0.0
C1186 C 0.23118 0.27358 0.78242 0.0
C1187 C 0.23363 0.28646 0.79123 0.0
C1188 C 0.25464 0.31707 0.79323 0.0
C1189 C 0.27478 0.33324 0.78629 0.0
C1190 C 0.27226 0.32033 0.77746 0.0
H1191 H 0.32316 0.24629 0.75831 0.0
H1192 H 0.32186 0.29086 0.76306 0.0
H1193 H 0.30909 0.25276 0.76984 0.0
H1194 H 0.21362 0.25089 0.78099 0.0
H1195 H 0.21779 0.27332 0.7964 0.0
H1196 H 0.78371 0.6509 0.97554 0.0
H1197 H 0.77871 0.67272 0.99105 0.0
H1198 H 0.71111 0.76041 0.98209 0.0
H1199 H 0.71558 0.73867 0.96661 0.0
H1200 H 0.79156 0.74188 0.99997 0.0
H1201 H 0.64698 0.70122 0.99958 0.0
H1202 H 0.67862 0.68659 0.9911 0.0
H1203 H 0.6604 0.73152 0.99075 0.0
C1204 C 0.76836 0.67524 0.97684 0.0
C1205 C 0.74967 0.69279 0.96985 0.0
C1206 C 0.76554 0.68767 0.98571 0.0
C1207 C 0.74401 0.71778 0.98773 0.0
C1208 C 0.72738 0.73677 0.98069 0.0
H1209 H 0.65366 0.79061 0.03865 0.0
H1210 H 0.6739 0.78917 0.02299 0.0
C1211 C 0.73009 0.72435 0.97184 0.0
C1212 C 0.73635 0.72742 0.99722 0.0
H1213 H 0.66846 0.72905 0.01274 0.0
C1214 C 0.76466 0.73924 1.00277 0.0
C1215 C 0.70122 0.72385 1.00085 0.0
C1216 C 0.67005 0.70983 0.99531 0.0
C1217 C 0.75866 0.74785 0.01187 0.0
C1218 C 0.72357 0.74386 0.01552 0.0
C1219 C 0.69528 0.73241 0.00992 0.0
C1220 C 0.71562 0.74923 0.02523 0.0
C1221 C 0.78984 0.76143 0.01745 0.0
C1222 C 0.73285 0.72786 0.03174 0.0
C1223 C 0.72145 0.72875 0.04071 0.0
C1224 C 0.6923 0.75075 0.04332 0.0
C1225 C 0.6762 0.77339 0.03687 0.0
C1226 C 0.6877 0.77256 0.02791 0.0
H1227 H 0.81114 0.77372 0.01318 0.0
H1228 H 0.78075 0.78171 0.02247 0.0
H1229 H 0.80212 0.73841 0.02112 0.0
H1230 H 0.75387 0.70906 0.02982 0.0
H1231 H 0.73434 0.71083 0.04549 0.0
H1232 H 0.35967 0.22387 0.03739 0.0
H1233 H 0.33659 0.22941 0.02201 0.0
H1234 H 0.25007 0.29731 0.0315 0.0
H1235 H 0.27316 0.29238 0.04686 0.0
H1236 H 0.26782 0.21735 0.01325 0.0
H1237 H 0.30754 0.3621 0.01402 0.0
H1238 H 0.32241 0.33021 0.02241 0.0
H1239 H 0.27739 0.34824 0.02282 0.0
C1240 C 0.33529 0.23937 0.03624 0.0
C1241 C 0.31853 0.25808 0.04333 0.0
C1242 C 0.32215 0.24251 0.02744 0.0
C1243 C 0.29206 0.26436 0.0256 0.0
C1244 C 0.27373 0.28085 0.03276 0.0
H1245 H 0.2181 0.35634 0.97484 0.0
H1246 H 0.21928 0.33547 0.99046 0.0
C1247 C 0.2869 0.27787 0.04154 0.0
C1248 C 0.28188 0.27251 0.01616 0.0
H1249 H 0.27942 0.34115 1.00085 0.0
C1250 C 0.27016 0.24442 0.01053 0.0
C1251 C 0.28508 0.30785 0.01263 0.0
C1252 C 0.29907 0.33884 0.01824 0.0
C1253 C 0.26139 0.25082 1.00145 0.0
C1254 C 0.26507 0.28609 0.99791 0.0
C1255 C 0.2763 0.31419 1.00359 0.0
C1256 C 0.25986 0.29441 0.98821 0.0
C1257 C 0.24809 0.21982 0.99578 0.0
C1258 C 0.28172 0.27778 0.98171 0.0
C1259 C 0.28102 0.28957 0.97278 0.0
C1260 C 0.25869 0.31849 0.97018 0.0
C1261 C 0.23556 0.33397 0.97661 0.0
C1262 C 0.23624 0.32211 0.98555 0.0
H1263 H 0.23597 0.19821 0.99999 0.0
H1264 H 0.22773 0.22898 0.99079 0.0
H1265 H 0.27123 0.20792 0.99208 0.0
H1266 H 0.30075 0.25693 0.98362 0.0
H1267 H 0.29931 0.27713 0.96801 0.0
H1268 H 0.79679 0.85727 0.28851 0.0
H1269 H 0.79508 0.83719 0.27282 0.0
H1270 H 0.70977 0.76236 0.27927 0.0
H1271 H 0.71187 0.78156 0.29497 0.0
H1272 H 0.75813 0.73446 0.26674 0.0
H1273 H 0.71206 0.87189 0.25706 0.0
H1274 H 0.75493 0.87075 0.26269 0.0
H1275 H 0.71475 0.85742 0.26862 0.0
C1276 C 0.77816 0.83603 0.28663 0.0
C1277 C 0.75416 0.82134 0.29298 0.0
C1278 C 0.77705 0.82476 0.27764 0.0
C1279 C 0.75167 0.79892 0.27483 0.0
C1280 C 0.7294 0.7825 0.28127 0.0
H1281 H 0.65483 0.72535 0.22544 0.0
H1282 H 0.67763 0.73002 0.24085 0.0
C1283 C 0.73064 0.79356 0.29026 0.0
C1284 C 0.74621 0.791 0.26513 0.0
H1285 H 0.71985 0.8299 0.24536 0.0
C1286 C 0.74995 0.75533 0.26205 0.0
C1287 C 0.7352 0.81822 0.25902 0.0
C1288 C 0.72864 0.85665 0.262 0.0
C1289 C 0.74316 0.74623 0.25301 0.0
C1290 C 0.73199 0.77344 0.24695 0.0
C1291 C 0.72871 0.80913 0.25001 0.0
C1292 C 0.72188 0.76569 0.23747 0.0
C1293 C 0.74814 0.70765 0.25002 0.0
C1294 C 0.7394 0.78382 0.23043 0.0
C1295 C 0.72634 0.78134 0.22163 0.0
C1296 C 0.69529 0.76087 0.2197 0.0
C1297 C 0.67889 0.74121 0.22669 0.0
C1298 C 0.692 0.74372 0.2355 0.0
H1299 H 0.76593 0.69243 0.2547 0.0
H1300 H 0.72146 0.69403 0.24988 0.0
H1301 H 0.75982 0.7064 0.24315 0.0
H1302 H 0.76241 0.80103 0.23181 0.0
H1303 H 0.73965 0.79682 0.21642 0.0
H1304 H 0.28654 0.15264 0.47548 0.0
H1305 H 0.28091 0.17541 0.49089 0.0
H1306 H 0.21311 0.26212 0.48145 0.0
H1307 H 0.21816 0.23939 0.46607 0.0
H1308 H 0.2932 0.24438 0.49962 0.0
H1309 H 0.14842 0.20453 0.49899 0.0
H1310 H 0.18025 0.18957 0.49059 0.0
H1311 H 0.16217 0.23455 0.49014 0.0
C1312 C 0.27102 0.17697 0.47665 0.0
C1313 C 0.25242 0.19393 0.46956 0.0
C1314 C 0.26783 0.18994 0.48546 0.0
C1315 C 0.24602 0.22002 0.48732 0.0
C1316 C 0.22954 0.23848 0.48018 0.0
H1317 H 0.15463 0.29527 0.53799 0.0
H1318 H 0.17523 0.29339 0.52235 0.0
C1319 C 0.2326 0.2255 0.47138 0.0
C1320 C 0.238 0.2302 0.49677 0.0
H1321 H 0.16951 0.23292 0.51211 0.0
C1322 C 0.26616 0.24205 0.50236 0.0
C1323 C 0.2027 0.22704 0.50032 0.0
C1324 C 0.17164 0.21296 0.49475 0.0
C1325 C 0.25987 0.25101 0.51143 0.0
C1326 C 0.22462 0.2474 0.515 0.0
C1327 C 0.19645 0.23599 0.50935 0.0
C1328 C 0.21639 0.25296 0.52469 0.0
C1329 C 0.29093 0.26451 0.51706 0.0
C1330 C 0.23315 0.23142 0.53124 0.0
C1331 C 0.22152 0.23253 0.54018 0.0
C1332 C 0.19262 0.25495 0.54274 0.0
C1333 C 0.17699 0.27775 0.53625 0.0
C1334 C 0.18869 0.27666 0.52731 0.0
H1335 H 0.3125 0.27651 0.51282 0.0
H1336 H 0.2818 0.28501 0.52201 0.0
H1337 H 0.30289 0.2415 0.5208 0.0
H1338 H 0.254 0.21234 0.52937 0.0
H1339 H 0.23407 0.21449 0.54499 0.0
H1340 H 0.86289 0.7833 0.72538 0.0
H1341 H 0.84086 0.77814 0.74086 0.0
H1342 H 0.75331 0.71063 0.73179 0.0
H1343 H 0.77526 0.71528 0.71633 0.0
H1344 H 0.77163 0.79084 0.74973 0.0
H1345 H 0.81241 0.64631 0.74927 0.0
H1346 H 0.8271 0.67804 0.74083 0.0
H1347 H 0.78214 0.65989 0.74045 0.0
C1348 C 0.83853 0.76796 0.72664 0.0
C1349 C 0.82109 0.74933 0.71963 0.0
C1350 C 0.82598 0.76504 0.7355 0.0
C1351 C 0.79586 0.74347 0.73748 0.0
C1352 C 0.77696 0.72694 0.73041 0.0
H1353 H 0.72399 0.65296 0.78852 0.0
H1354 H 0.72506 0.67298 0.77284 0.0
C1355 C 0.78949 0.72975 0.72157 0.0
C1356 C 0.78616 0.73569 0.74696 0.0
H1357 H 0.78485 0.66772 0.76246 0.0
C1358 C 0.77433 0.76392 0.75253 0.0
C1359 C 0.78981 0.70054 0.75058 0.0
C1360 C 0.80383 0.66944 0.74502 0.0
C1361 C 0.76585 0.75785 0.76163 0.0
C1362 C 0.76999 0.72278 0.76527 0.0
C1363 C 0.78139 0.69453 0.75965 0.0
C1364 C 0.76493 0.71481 0.77499 0.0
C1365 C 0.75228 0.78897 0.76723 0.0
C1366 C 0.78642 0.73214 0.78146 0.0
C1367 C 0.78575 0.72086 0.79044 0.0
C1368 C 0.76385 0.69174 0.79311 0.0
C1369 C 0.74113 0.67549 0.7867 0.0
C1370 C 0.74175 0.68687 0.77772 0.0
H1371 H 0.73977 0.81021 0.76296 0.0
H1372 H 0.73217 0.77981 0.77227 0.0
H1373 H 0.77535 0.80136 0.77086 0.0
H1374 H 0.80513 0.75318 0.7795 0.0
H1375 H 0.80374 0.73387 0.79518 0.0
loop_
_geom_bond_atom_site_label_1
_geom_bond_atom_site_label_2
_geom_bond_distance
_geom_bond_site_symmetry_2
_ccdc_geom_bond_type
O0 Cd1 2.223 . S
O0 C8 1.315 . S
Cd1 O0 2.223 . S
Cd1 O4 2.297 . S
Cd1 O5 2.439 . S
Cd1 O11 2.240 . S
Cd2 O3 2.240 . S
Cd2 O10 2.223 . S
Cd2 O12 2.297 . S
Cd2 O13 2.439 . S
O3 Cd2 2.240 . S
O3 C8 1.279 . S
O4 Cd1 2.297 . S
O4 C6 1.247 . S
O5 Cd1 2.439 . S
O5 C6 1.208 . S
C6 O4 1.247 . S
C6 O5 1.208 . S
C7 O12 1.247 . S
C7 O13 1.208 . S
C8 O0 1.315 . S
C8 O3 1.279 . S
C9 O10 1.315 . S
C9 O11 1.279 . S
O10 Cd2 2.223 . S
O10 C9 1.315 . S
O11 Cd1 2.240 . S
O11 C9 1.279 . S
O12 Cd2 2.297 . S
O12 C7 1.247 . S
O13 Cd2 2.439 . S
O13 C7 1.208 . S
O14 Cd15 2.223 . S
O14 C22 1.315 . S
Cd15 O14 2.223 . S
Cd15 O18 2.297 . S
Cd15 O19 2.439 . S
Cd15 O25 2.240 . S
Cd16 O17 2.240 . S
Cd16 O24 2.223 . S
Cd16 O26 2.297 . S
Cd16 O27 2.439 . S
O17 Cd16 2.240 . S
O17 C22 1.279 . S
O18 Cd15 2.297 . S
O18 C20 1.247 . S
O19 Cd15 2.439 . S
O19 C20 1.208 . S
C20 O18 1.247 . S
C20 O19 1.208 . S
C21 O26 1.247 . S
C21 O27 1.208 . S
C22 O14 1.315 . S
C22 O17 1.279 . S
C23 O24 1.315 . S
C23 O25 1.279 . S
O24 Cd16 2.223 . S
O24 C23 1.315 . S
O25 Cd15 2.240 . S
O25 C23 1.279 . S
O26 Cd16 2.297 . S
O26 C21 1.247 . S
O27 Cd16 2.439 . S
O27 C21 1.208 . S
O28 Cd29 2.223 . S
O28 C36 1.315 . S
Cd29 O28 2.223 . S
Cd29 O32 2.297 . S
Cd29 O33 2.439 . S
Cd29 O39 2.240 . S
Cd30 O31 2.240 . S
Cd30 O38 2.223 . S
Cd30 O40 2.297 . S
Cd30 O41 2.439 . S
O31 Cd30 2.240 . S
O31 C36 1.279 . S
O32 Cd29 2.297 . S
O32 C34 1.247 . S
O33 Cd29 2.439 . S
O33 C34 1.208 . S
C34 O32 1.247 . S
C34 O33 1.208 . S
C35 O40 1.247 . S
C35 O41 1.208 . S
C36 O28 1.315 . S
C36 O31 1.279 . S
C37 O38 1.315 . S
C37 O39 1.279 . S
O38 Cd30 2.223 . S
O38 C37 1.315 . S
O39 Cd29 2.240 . S
O39 C37 1.279 . S
O40 Cd30 2.297 . S
O40 C35 1.247 . S
O41 Cd30 2.439 . S
O41 C35 1.208 . S
O42 Cd43 2.223 . S
O42 C50 1.315 . S
Cd43 O42 2.223 . S
Cd43 O46 2.297 . S
Cd43 O47 2.439 . S
Cd43 O53 2.240 . S
Cd44 O45 2.240 . S
Cd44 O52 2.223 . S
Cd44 O54 2.297 . S
Cd44 O55 2.439 . S
O45 Cd44 2.240 . S
O45 C50 1.279 . S
O46 Cd43 2.297 . S
O46 C48 1.247 . S
O47 Cd43 2.439 . S
O47 C48 1.208 . S
C48 O46 1.247 . S
C48 O47 1.208 . S
C49 O54 1.247 . S
C49 O55 1.208 . S
C50 O42 1.315 . S
C50 O45 1.279 . S
C51 O52 1.315 . S
C51 O53 1.279 . S
O52 Cd44 2.223 . S
O52 C51 1.315 . S
O53 Cd43 2.240 . S
O53 C51 1.279 . S
O54 Cd44 2.297 . S
O54 C49 1.247 . S
O55 Cd44 2.439 . S
O55 C49 1.208 . S
O56 Cd57 2.223 . S
O56 C64 1.315 . S
Cd57 O56 2.223 . S
Cd57 O60 2.297 . S
Cd57 O61 2.439 . S
Cd57 O67 2.240 . S
Cd58 O59 2.240 . S
Cd58 O66 2.223 . S
Cd58 O68 2.297 . S
Cd58 O69 2.439 . S
O59 Cd58 2.240 . S
O59 C64 1.279 . S
O60 Cd57 2.297 . S
O60 C62 1.247 . S
O61 Cd57 2.439 . S
O61 C62 1.208 . S
C62 O60 1.247 . S
C62 O61 1.208 . S
C63 O68 1.247 . S
C63 O69 1.208 . S
C64 O56 1.315 . S
C64 O59 1.279 . S
C65 O66 1.315 . S
C65 O67 1.279 . S
O66 Cd58 2.223 . S
O66 C65 1.315 . S
O67 Cd57 2.240 . S
O67 C65 1.279 . S
O68 Cd58 2.297 . S
O68 C63 1.247 . S
O69 Cd58 2.439 . S
O69 C63 1.208 . S
O70 Cd71 2.223 . S
O70 C78 1.315 . S
Cd71 O70 2.223 . S
Cd71 O74 2.297 . S
Cd71 O75 2.439 . S
Cd71 O81 2.240 . S
Cd72 O73 2.240 . S
Cd72 O80 2.223 . S
Cd72 O82 2.297 . S
Cd72 O83 2.439 . S
O73 Cd72 2.240 . S
O73 C78 1.279 . S
O74 Cd71 2.297 . S
O74 C76 1.247 . S
O75 Cd71 2.439 . S
O75 C76 1.208 . S
C76 O74 1.247 . S
C76 O75 1.208 . S
C77 O82 1.247 . S
C77 O83 1.208 . S
C78 O70 1.315 . S
C78 O73 1.279 . S
C79 O80 1.315 . S
C79 O81 1.279 . S
O80 Cd72 2.223 . S
O80 C79 1.315 . S
O81 Cd71 2.240 . S
O81 C79 1.279 . S
O82 Cd72 2.297 . S
O82 C77 1.247 . S
O83 Cd72 2.439 . S
O83 C77 1.208 . S
O84 Cd85 2.223 . S
O84 C92 1.315 . S
Cd85 O84 2.223 . S
Cd85 O88 2.297 . S
Cd85 O89 2.439 . S
Cd85 O95 2.240 . S
Cd86 O87 2.240 . S
Cd86 O94 2.223 . S
Cd86 O96 2.297 . S
Cd86 O97 2.439 . S
O87 Cd86 2.240 . S
O87 C92 1.279 . S
O88 Cd85 2.297 . S
O88 C90 1.247 . S
O89 Cd85 2.439 . S
O89 C90 1.208 . S
C90 O88 1.247 . S
C90 O89 1.208 . S
C91 O96 1.247 . S
C91 O97 1.208 . S
C92 O84 1.315 . S
C92 O87 1.279 . S
C93 O94 1.315 . S
C93 O95 1.279 . S
O94 Cd86 2.223 . S
O94 C93 1.315 . S
O95 Cd85 2.240 . S
O95 C93 1.279 . S
O96 Cd86 2.297 . S
O96 C91 1.247 . S
O97 Cd86 2.439 . S
O97 C91 1.208 . S
O98 Cd99 2.223 . S
O98 C106 1.315 . S
Cd99 O98 2.223 . S
Cd99 O102 2.297 . S
Cd99 O103 2.439 . S
Cd99 O109 2.240 . S
Cd100 O101 2.240 . S
Cd100 O108 2.223 . S
Cd100 O110 2.297 . S
Cd100 O111 2.439 . S
O101 Cd100 2.240 . S
O101 C106 1.279 . S
O102 Cd99 2.297 . S
O102 C104 1.247 . S
O103 Cd99 2.439 . S
O103 C104 1.208 . S
C104 O102 1.247 . S
C104 O103 1.208 . S
C105 O110 1.247 . S
C105 O111 1.208 . S
C106 O98 1.315 . S
C106 O101 1.279 . S
C107 O108 1.315 . S
C107 O109 1.279 . S
O108 Cd100 2.223 . S
O108 C107 1.315 . S
O109 Cd99 2.240 . S
O109 C107 1.279 . S
O110 Cd100 2.297 . S
O110 C105 1.247 . S
O111 Cd100 2.439 . S
O111 C105 1.208 . S
O112 Cd113 2.223 . S
O112 C120 1.315 . S
Cd113 O112 2.223 . S
Cd113 O116 2.297 . S
Cd113 O117 2.439 . S
Cd113 O123 2.240 . S
Cd114 O115 2.240 . S
Cd114 O122 2.223 . S
Cd114 O124 2.297 . S
Cd114 O125 2.439 . S
O115 Cd114 2.240 . S
O115 C120 1.279 . S
O116 Cd113 2.297 . S
O116 C118 1.247 . S
O117 Cd113 2.439 . S
O117 C118 1.208 . S
C118 O116 1.247 . S
C118 O117 1.208 . S
C119 O124 1.247 . S
C119 O125 1.208 . S
C120 O112 1.315 . S
C120 O115 1.279 . S
C121 O122 1.315 . S
C121 O123 1.279 . S
O122 Cd114 2.223 . S
O122 C121 1.315 . S
O123 Cd113 2.240 . S
O123 C121 1.279 . S
O124 Cd114 2.297 . S
O124 C119 1.247 . S
O125 Cd114 2.439 . S
O125 C119 1.208 . S
O126 Cd127 2.223 . S
O126 C134 1.315 . S
Cd127 O126 2.223 . S
Cd127 O130 2.297 . S
Cd127 O131 2.439 . S
Cd127 O137 2.240 . S
Cd128 O129 2.240 . S
Cd128 O136 2.223 . S
Cd128 O138 2.297 . S
Cd128 O139 2.439 . S
O129 Cd128 2.240 . S
O129 C134 1.279 . S
O130 Cd127 2.297 . S
O130 C132 1.247 . S
O131 Cd127 2.439 . S
O131 C132 1.208 . S
C132 O130 1.247 . S
C132 O131 1.208 . S
C133 O138 1.247 . S
C133 O139 1.208 . S
C134 O126 1.315 . S
C134 O129 1.279 . S
C135 O136 1.315 . S
C135 O137 1.279 . S
O136 Cd128 2.223 . S
O136 C135 1.315 . S
O137 Cd127 2.240 . S
O137 C135 1.279 . S
O138 Cd128 2.297 . S
O138 C133 1.247 . S
O139 Cd128 2.439 . S
O139 C133 1.208 . S
O140 Cd141 2.223 . S
O140 C148 1.315 . S
Cd141 O140 2.223 . S
Cd141 O144 2.297 . S
Cd141 O145 2.439 . S
Cd141 O151 2.240 . S
Cd142 O143 2.240 . S
Cd142 O150 2.223 . S
Cd142 O152 2.297 . S
Cd142 O153 2.439 . S
O143 Cd142 2.240 . S
O143 C148 1.279 . S
O144 Cd141 2.297 . S
O144 C146 1.247 . S
O145 Cd141 2.439 . S
O145 C146 1.208 . S
C146 O144 1.247 . S
C146 O145 1.208 . S
C147 O152 1.247 . S
C147 O153 1.208 . S
C148 O140 1.315 . S
C148 O143 1.279 . S
C149 O150 1.315 . S
C149 O151 1.279 . S
O150 Cd142 2.223 . S
O150 C149 1.315 . S
O151 Cd141 2.240 . S
O151 C149 1.279 . S
O152 Cd142 2.297 . S
O152 C147 1.247 . S
O153 Cd142 2.439 . S
O153 C147 1.208 . S
O154 Cd155 2.223 . S
O154 C162 1.315 . S
Cd155 O154 2.223 . S
Cd155 O158 2.297 . S
Cd155 O159 2.439 . S
Cd155 O165 2.240 . S
Cd156 O157 2.240 . S
Cd156 O164 2.223 . S
Cd156 O166 2.297 . S
Cd156 O167 2.439 . S
O157 Cd156 2.240 . S
O157 C162 1.279 . S
O158 Cd155 2.297 . S
O158 C160 1.247 . S
O159 Cd155 2.439 . S
O159 C160 1.208 . S
C160 O158 1.247 . S
C160 O159 1.208 . S
C161 O166 1.247 . S
C161 O167 1.208 . S
C162 O154 1.315 . S
C162 O157 1.279 . S
C163 O164 1.315 . S
C163 O165 1.279 . S
O164 Cd156 2.223 . S
O164 C163 1.315 . S
O165 Cd155 2.240 . S
O165 C163 1.279 . S
O166 Cd156 2.297 . S
O166 C161 1.247 . S
O167 Cd156 2.439 . S
O167 C161 1.208 . S
O168 Cd169 2.223 . S
O168 C176 1.315 . S
Cd169 O168 2.223 . S
Cd169 O172 2.297 . S
Cd169 O173 2.439 . S
Cd169 O179 2.240 . S
Cd170 O171 2.240 . S
Cd170 O178 2.223 . S
Cd170 O180 2.297 . S
Cd170 O181 2.439 . S
O171 Cd170 2.240 . S
O171 C176 1.279 . S
O172 Cd169 2.297 . S
O172 C174 1.247 . S
O173 Cd169 2.439 . S
O173 C174 1.208 . S
C174 O172 1.247 . S
C174 O173 1.208 . S
C175 O180 1.247 . S
C175 O181 1.208 . S
C176 O168 1.315 . S
C176 O171 1.279 . S
C177 O178 1.315 . S
C177 O179 1.279 . S
O178 Cd170 2.223 . S
O178 C177 1.315 . S
O179 Cd169 2.240 . S
O179 C177 1.279 . S
O180 Cd170 2.297 . S
O180 C175 1.247 . S
O181 Cd170 2.439 . S
O181 C175 1.208 . S
O182 Cd183 2.223 . S
O182 C190 1.315 . S
Cd183 O182 2.223 . S
Cd183 O186 2.297 . S
Cd183 O187 2.439 . S
Cd183 O193 2.240 . S
Cd184 O185 2.240 . S
Cd184 O192 2.223 . S
Cd184 O194 2.297 . S
Cd184 O195 2.439 . S
O185 Cd184 2.240 . S
O185 C190 1.279 . S
O186 Cd183 2.297 . S
O186 C188 1.247 . S
O187 Cd183 2.439 . S
O187 C188 1.208 . S
C188 O186 1.247 . S
C188 O187 1.208 . S
C189 O194 1.247 . S
C189 O195 1.208 . S
C190 O182 1.315 . S
C190 O185 1.279 . S
C191 O192 1.315 . S
C191 O193 1.279 . S
O192 Cd184 2.223 . S
O192 C191 1.315 . S
O193 Cd183 2.240 . S
O193 C191 1.279 . S
O194 Cd184 2.297 . S
O194 C189 1.247 . S
O195 Cd184 2.439 . S
O195 C189 1.208 . S
O196 Cd197 2.223 . S
O196 C204 1.315 . S
Cd197 O196 2.223 . S
Cd197 O200 2.297 . S
Cd197 O201 2.439 . S
Cd197 O207 2.240 . S
Cd198 O199 2.240 . S
Cd198 O206 2.223 . S
Cd198 O208 2.297 . S
Cd198 O209 2.439 . S
O199 Cd198 2.240 . S
O199 C204 1.279 . S
O200 Cd197 2.297 . S
O200 C202 1.247 . S
O201 Cd197 2.439 . S
O201 C202 1.208 . S
C202 O200 1.247 . S
C202 O201 1.208 . S
C203 O208 1.247 . S
C203 O209 1.208 . S
C204 O196 1.315 . S
C204 O199 1.279 . S
C205 O206 1.315 . S
C205 O207 1.279 . S
O206 Cd198 2.223 . S
O206 C205 1.315 . S
O207 Cd197 2.240 . S
O207 C205 1.279 . S
O208 Cd198 2.297 . S
O208 C203 1.247 . S
O209 Cd198 2.439 . S
O209 C203 1.208 . S
O210 Cd211 2.223 . S
O210 C218 1.315 . S
Cd211 O210 2.223 . S
Cd211 O214 2.297 . S
Cd211 O215 2.439 . S
Cd211 O221 2.240 . S
Cd212 O213 2.240 . S
Cd212 O220 2.223 . S
Cd212 O222 2.297 . S
Cd212 O223 2.439 . S
O213 Cd212 2.240 . S
O213 C218 1.279 . S
O214 Cd211 2.297 . S
O214 C216 1.247 . S
O215 Cd211 2.439 . S
O215 C216 1.208 . S
C216 O214 1.247 . S
C216 O215 1.208 . S
C217 O222 1.247 . S
C217 O223 1.208 . S
C218 O210 1.315 . S
C218 O213 1.279 . S
C219 O220 1.315 . S
C219 O221 1.279 . S
O220 Cd212 2.223 . S
O220 C219 1.315 . S
O221 Cd211 2.240 . S
O221 C219 1.279 . S
O222 Cd212 2.297 . S
O222 C217 1.247 . S
O223 Cd212 2.439 . S
O223 C217 1.208 . S
H224 C232 0.929 . S
H225 C234 0.930 1_545 S
H226 C236 0.930 . S
H227 C239 0.929 . S
H228 C242 0.930 . S
H229 C244 0.960 1_455 S
H230 C244 0.960 . S
H231 C244 0.960 . S
C232 H224 0.929 . S
C232 C233 1.377 . S
C232 C234 1.384 . S
C233 C232 1.377 . S
C233 C239 1.390 . S
C234 H225 0.930 1_565 S
C234 C232 1.384 . S
C234 C235 1.372 . S
C235 C234 1.372 . S
C235 C236 1.400 . S
C235 C240 1.490 . S
C236 H226 0.930 . S
C236 C235 1.400 . S
C236 C239 1.386 . S
H237 C253 0.930 . S
H238 C254 0.931 1_565 S
C239 H227 0.929 . S
C239 C233 1.390 . S
C239 C236 1.386 . S
C240 C235 1.490 . S
C240 C242 1.395 1_565 S
C240 C243 1.403 . S
H241 C247 0.930 . S
C242 H228 0.930 . S
C242 C240 1.395 1_545 S
C242 C245 1.403 1_655 S
C243 C240 1.403 . S
C243 C244 1.524 . S
C243 C247 1.400 1_655 S
C244 H229 0.960 1_655 S
C244 H230 0.960 . S
C244 H231 0.960 . S
C244 C243 1.524 . S
C245 C242 1.403 1_455 S
C245 C246 1.392 . S
C245 C249 1.495 . S
C246 C245 1.392 . S
C246 C247 1.385 1_545 S
C246 C248 1.478 . S
C247 H241 0.930 . S
C247 C243 1.400 1_455 S
C247 C246 1.385 1_565 S
C248 C246 1.478 . S
C248 C250 1.381 . S
C248 C254 1.383 . S
C249 C245 1.495 . S
C249 H255 0.959 1_455 S
C249 H256 0.961 . S
C249 H257 0.960 . S
C250 C248 1.381 . S
C250 C251 1.394 . S
C250 H258 0.930 . S
C251 C250 1.394 . S
C251 C252 1.383 . S
C251 H259 0.929 . S
C252 C251 1.383 . S
C252 C253 1.377 . S
C253 H237 0.930 . S
C253 C252 1.377 . S
C253 C254 1.379 . S
C254 H238 0.931 1_545 S
C254 C248 1.383 . S
C254 C253 1.379 . S
H255 C249 0.959 1_655 S
H256 C249 0.961 . S
H257 C249 0.960 . S
H258 C250 0.930 . S
H259 C251 0.929 . S
H260 C268 0.929 . S
H261 C270 0.930 . S
H262 C272 0.930 . S
H263 C275 0.929 . S
H264 C278 0.930 . S
H265 C280 0.960 . S
H266 C280 0.960 . S
H267 C280 0.960 . S
C268 H260 0.929 . S
C268 C269 1.377 . S
C268 C270 1.384 . S
C269 C268 1.377 . S
C269 C275 1.390 . S
C270 H261 0.930 . S
C270 C268 1.384 . S
C270 C271 1.372 . S
C271 C270 1.372 . S
C271 C272 1.400 . S
C271 C276 1.490 . S
C272 H262 0.930 . S
C272 C271 1.400 . S
C272 C275 1.386 . S
H273 C289 0.930 . S
H274 C290 0.931 . S
C275 H263 0.929 . S
C275 C269 1.390 . S
C275 C272 1.386 . S
C276 C271 1.490 . S
C276 C278 1.395 . S
C276 C279 1.403 1_655 S
H277 C283 0.930 . S
C278 H264 0.930 . S
C278 C276 1.395 . S
C278 C281 1.403 . S
C279 C276 1.403 1_455 S
C279 C280 1.524 . S
C279 C283 1.400 . S
C280 H265 0.960 . S
C280 H266 0.960 . S
C280 H267 0.960 . S
C280 C279 1.524 . S
C281 C278 1.403 . S
C281 C282 1.392 1_655 S
C281 C285 1.495 . S
C282 C281 1.392 1_455 S
C282 C283 1.385 . S
C282 C284 1.478 . S
C283 H277 0.930 . S
C283 C279 1.400 . S
C283 C282 1.385 . S
C284 C282 1.478 . S
C284 C286 1.381 . S
C284 C290 1.383 . S
C285 C281 1.495 . S
C285 H291 0.959 . S
C285 H292 0.961 . S
C285 H293 0.960 . S
C286 C284 1.381 . S
C286 C287 1.394 . S
C286 H294 0.930 . S
C287 C286 1.394 . S
C287 C288 1.383 . S
C287 H295 0.929 . S
C288 C287 1.383 . S
C288 C289 1.377 . S
C289 H273 0.930 . S
C289 C288 1.377 . S
C289 C290 1.379 . S
C290 H274 0.931 . S
C290 C284 1.383 . S
C290 C289 1.379 . S
H291 C285 0.959 . S
H292 C285 0.961 . S
H293 C285 0.960 . S
H294 C286 0.930 . S
H295 C287 0.929 . S
H296 C304 0.929 . S
H297 C306 0.930 . S
H298 C308 0.930 . S
H299 C311 0.929 . S
H300 C314 0.930 . S
H301 C316 0.960 . S
H302 C316 0.960 . S
H303 C316 0.960 . S
C304 H296 0.929 . S
C304 C305 1.377 . S
C304 C306 1.384 . S
C305 C304 1.377 . S
C305 C311 1.390 . S
C306 H297 0.930 . S
C306 C304 1.384 . S
C306 C307 1.372 . S
C307 C306 1.372 . S
C307 C308 1.400 . S
C307 C312 1.490 . S
C308 H298 0.930 . S
C308 C307 1.400 . S
C308 C311 1.386 . S
H309 C325 0.930 . S
H310 C326 0.931 . S
C311 H299 0.929 . S
C311 C305 1.390 . S
C311 C308 1.386 . S
C312 C307 1.490 . S
C312 C314 1.395 . S
C312 C315 1.403 . S
H313 C319 0.930 . S
C314 H300 0.930 . S
C314 C312 1.395 . S
C314 C317 1.403 . S
C315 C312 1.403 . S
C315 C316 1.524 . S
C315 C319 1.400 . S
C316 H301 0.960 . S
C316 H302 0.960 . S
C316 H303 0.960 . S
C316 C315 1.524 . S
C317 C314 1.403 . S
C317 C318 1.392 . S
C317 C321 1.495 . S
C318 C317 1.392 . S
C318 C319 1.385 . S
C318 C320 1.478 . S
C319 H313 0.930 . S
C319 C315 1.400 . S
C319 C318 1.385 . S
C320 C318 1.478 . S
C320 C322 1.381 . S
C320 C326 1.383 . S
C321 C317 1.495 . S
C321 H327 0.959 . S
C321 H328 0.961 . S
C321 H329 0.960 . S
C322 C320 1.381 . S
C322 C323 1.394 . S
C322 H330 0.930 . S
C323 C322 1.394 . S
C323 C324 1.383 . S
C323 H331 0.929 . S
C324 C323 1.383 . S
C324 C325 1.377 . S
C325 H309 0.930 . S
C325 C324 1.377 . S
C325 C326 1.379 . S
C326 H310 0.931 . S
C326 C320 1.383 . S
C326 C325 1.379 . S
H327 C321 0.959 . S
H328 C321 0.961 . S
H329 C321 0.960 . S
H330 C322 0.930 . S
H331 C323 0.929 . S
H332 C340 0.929 . S
H333 C342 0.930 . S
H334 C344 0.930 . S
H335 C347 0.929 . S
H336 C350 0.930 . S
H337 C352 0.960 . S
H338 C352 0.960 . S
H339 C352 0.960 . S
C340 H332 0.929 . S
C340 C341 1.377 . S
C340 C342 1.384 . S
C341 C340 1.377 . S
C341 C347 1.390 . S
C342 H333 0.930 . S
C342 C340 1.384 . S
C342 C343 1.372 . S
C343 C342 1.372 . S
C343 C344 1.400 . S
C343 C348 1.490 . S
C344 H334 0.930 . S
C344 C343 1.400 . S
C344 C347 1.386 . S
H345 C361 0.930 . S
H346 C362 0.931 . S
C347 H335 0.929 . S
C347 C341 1.390 . S
C347 C344 1.386 . S
C348 C343 1.490 . S
C348 C350 1.395 . S
C348 C351 1.403 . S
H349 C355 0.930 . S
C350 H336 0.930 . S
C350 C348 1.395 . S
C350 C353 1.403 1_545 S
C351 C348 1.403 . S
C351 C352 1.524 . S
C351 C355 1.400 1_545 S
C352 H337 0.960 . S
C352 H338 0.960 . S
C352 H339 0.960 . S
C352 C351 1.524 . S
C353 C350 1.403 1_565 S
C353 C354 1.392 . S
C353 C357 1.495 . S
C354 C353 1.392 . S
C354 C355 1.385 . S
C354 C356 1.478 . S
C355 H349 0.930 . S
C355 C351 1.400 1_565 S
C355 C354 1.385 . S
C356 C354 1.478 . S
C356 C358 1.381 . S
C356 C362 1.383 . S
C357 C353 1.495 . S
C357 H363 0.959 . S
C357 H364 0.961 . S
C357 H365 0.960 . S
C358 C356 1.381 . S
C358 C359 1.394 . S
C358 H366 0.930 . S
C359 C358 1.394 . S
C359 C360 1.383 . S
C359 H367 0.929 . S
C360 C359 1.383 . S
C360 C361 1.377 . S
C361 H345 0.930 . S
C361 C360 1.377 . S
C361 C362 1.379 . S
C362 H346 0.931 . S
C362 C356 1.383 . S
C362 C361 1.379 . S
H363 C357 0.959 . S
H364 C357 0.961 . S
H365 C357 0.960 . S
H366 C358 0.930 . S
H367 C359 0.929 . S
H368 C376 0.929 . S
H369 C378 0.930 . S
H370 C380 0.930 . S
H371 C383 0.929 . S
H372 C386 0.930 . S
H373 C388 0.960 1_655 S
H374 C388 0.960 . S
H375 C388 0.960 . S
C376 H368 0.929 . S
C376 C377 1.377 . S
C376 C378 1.384 . S
C377 C376 1.377 . S
C377 C383 1.390 . S
C378 H369 0.930 . S
C378 C376 1.384 . S
C378 C379 1.372 . S
C379 C378 1.372 . S
C379 C380 1.400 . S
C379 C384 1.490 . S
C380 H370 0.930 . S
C380 C379 1.400 . S
C380 C383 1.386 . S
H381 C397 0.930 . S
H382 C398 0.931 . S
C383 H371 0.929 . S
C383 C377 1.390 . S
C383 C380 1.386 . S
C384 C379 1.490 . S
C384 C386 1.395 . S
C384 C387 1.403 . S
H385 C391 0.930 . S
C386 H372 0.930 . S
C386 C384 1.395 . S
C386 C389 1.403 1_455 S
C387 C384 1.403 . S
C387 C388 1.524 . S
C387 C391 1.400 1_455 S
C388 H373 0.960 1_455 S
C388 H374 0.960 . S
C388 H375 0.960 . S
C388 C387 1.524 . S
C389 C386 1.403 1_655 S
C389 C390 1.392 . S
C389 C393 1.495 . S
C390 C389 1.392 . S
C390 C391 1.385 . S
C390 C392 1.478 . S
C391 H385 0.930 . S
C391 C387 1.400 1_655 S
C391 C390 1.385 . S
C392 C390 1.478 . S
C392 C394 1.381 . S
C392 C398 1.383 . S
C393 C389 1.495 . S
C393 H399 0.959 1_655 S
C393 H400 0.961 . S
C393 H401 0.960 . S
C394 C392 1.381 . S
C394 C395 1.394 . S
C394 H402 0.930 . S
C395 C394 1.394 . S
C395 C396 1.383 . S
C395 H403 0.929 . S
C396 C395 1.383 . S
C396 C397 1.377 . S
C397 H381 0.930 . S
C397 C396 1.377 . S
C397 C398 1.379 . S
C398 H382 0.931 . S
C398 C392 1.383 . S
C398 C397 1.379 . S
H399 C393 0.959 1_455 S
H400 C393 0.961 . S
H401 C393 0.960 . S
H402 C394 0.930 . S
H403 C395 0.929 . S
H404 C412 0.929 . S
H405 C414 0.930 . S
H406 C416 0.930 . S
H407 C419 0.929 . S
H408 C422 0.930 . S
H409 C424 0.960 . S
H410 C424 0.960 . S
H411 C424 0.960 . S
C412 H404 0.929 . S
C412 C413 1.377 . S
C412 C414 1.384 . S
C413 C412 1.377 . S
C413 C419 1.390 . S
C414 H405 0.930 . S
C414 C412 1.384 . S
C414 C415 1.372 . S
C415 C414 1.372 . S
C415 C416 1.400 . S
C415 C420 1.490 . S
C416 H406 0.930 . S
C416 C415 1.400 . S
C416 C419 1.386 . S
H417 C433 0.930 . S
H418 C434 0.931 . S
C419 H407 0.929 . S
C419 C413 1.390 . S
C419 C416 1.386 . S
C420 C415 1.490 . S
C420 C422 1.395 . S
C420 C423 1.403 . S
H421 C427 0.930 . S
C422 H408 0.930 . S
C422 C420 1.395 . S
C422 C425 1.403 . S
C423 C420 1.403 . S
C423 C424 1.524 . S
C423 C427 1.400 . S
C424 H409 0.960 . S
C424 H410 0.960 . S
C424 H411 0.960 . S
C424 C423 1.524 . S
C425 C422 1.403 . S
C425 C426 1.392 . S
C425 C429 1.495 . S
C426 C425 1.392 . S
C426 C427 1.385 . S
C426 C428 1.478 . S
C427 H421 0.930 . S
C427 C423 1.400 . S
C427 C426 1.385 . S
C428 C426 1.478 . S
C428 C430 1.381 . S
C428 C434 1.383 . S
C429 C425 1.495 . S
C429 H435 0.959 . S
C429 H436 0.961 . S
C429 H437 0.960 . S
C430 C428 1.381 . S
C430 C431 1.394 . S
C430 H438 0.930 . S
C431 C430 1.394 . S
C431 C432 1.383 . S
C431 H439 0.929 . S
C432 C431 1.383 . S
C432 C433 1.377 . S
C433 H417 0.930 . S
C433 C432 1.377 . S
C433 C434 1.379 . S
C434 H418 0.931 . S
C434 C428 1.383 . S
C434 C433 1.379 . S
H435 C429 0.959 . S
H436 C429 0.961 . S
H437 C429 0.960 . S
H438 C430 0.930 . S
H439 C431 0.929 . S
H440 C448 0.929 . S
H441 C450 0.930 . S
H442 C452 0.930 . S
H443 C455 0.929 . S
H444 C458 0.930 . S
H445 C460 0.960 . S
H446 C460 0.960 . S
H447 C460 0.960 . S
C448 H440 0.929 . S
C448 C449 1.377 . S
C448 C450 1.384 . S
C449 C448 1.377 . S
C449 C455 1.390 . S
C450 H441 0.930 . S
C450 C448 1.384 . S
C450 C451 1.372 . S
C451 C450 1.372 . S
C451 C452 1.400 . S
C451 C456 1.490 . S
C452 H442 0.930 . S
C452 C451 1.400 . S
C452 C455 1.386 . S
H453 C469 0.930 . S
H454 C470 0.931 . S
C455 H443 0.929 . S
C455 C449 1.390 . S
C455 C452 1.386 . S
C456 C451 1.490 . S
C456 C458 1.395 . S
C456 C459 1.403 1_545 S
H457 C463 0.930 . S
C458 H444 0.930 . S
C458 C456 1.395 . S
C458 C461 1.403 . S
C459 C456 1.403 1_565 S
C459 C460 1.524 . S
C459 C463 1.400 . S
C460 H445 0.960 . S
C460 H446 0.960 . S
C460 H447 0.960 . S
C460 C459 1.524 . S
C461 C458 1.403 . S
C461 C462 1.392 1_545 S
C461 C465 1.495 . S
C462 C461 1.392 1_565 S
C462 C463 1.385 . S
C462 C464 1.478 . S
C463 H457 0.930 . S
C463 C459 1.400 . S
C463 C462 1.385 . S
C464 C462 1.478 . S
C464 C466 1.381 . S
C464 C470 1.383 . S
C465 C461 1.495 . S
C465 H471 0.959 . S
C465 H472 0.961 . S
C465 H473 0.960 . S
C466 C464 1.381 . S
C466 C467 1.394 . S
C466 H474 0.930 . S
C467 C466 1.394 . S
C467 C468 1.383 . S
C467 H475 0.929 . S
C468 C467 1.383 . S
C468 C469 1.377 . S
C469 H453 0.930 . S
C469 C468 1.377 . S
C469 C470 1.379 . S
C470 H454 0.931 . S
C470 C464 1.383 . S
C470 C469 1.379 . S
H471 C465 0.959 . S
H472 C465 0.961 . S
H473 C465 0.960 . S
H474 C466 0.930 . S
H475 C467 0.929 . S
H476 C484 0.929 . S
H477 C486 0.930 . S
H478 C488 0.930 1_655 S
H479 C491 0.929 . S
H480 C494 0.930 . S
H481 C496 0.960 . S
H482 C496 0.960 1_455 S
H483 C496 0.960 . S
C484 H476 0.929 . S
C484 C485 1.377 . S
C484 C486 1.384 . S
C485 C484 1.377 . S
C485 C491 1.390 . S
C486 H477 0.930 . S
C486 C484 1.384 . S
C486 C487 1.372 . S
C487 C486 1.372 . S
C487 C488 1.400 . S
C487 C492 1.490 . S
C488 H478 0.930 1_455 S
C488 C487 1.400 . S
C488 C491 1.386 . S
H489 C505 0.930 . S
H490 C506 0.931 . S
C491 H479 0.929 . S
C491 C485 1.390 . S
C491 C488 1.386 . S
C492 C487 1.490 . S
C492 C494 1.395 . S
C492 C495 1.403 1_455 S
H493 C499 0.930 . S
C494 H480 0.930 . S
C494 C492 1.395 . S
C494 C497 1.403 1_545 S
C495 C492 1.403 1_655 S
C495 C496 1.524 . S
C495 C499 1.400 1_545 S
C496 H481 0.960 . S
C496 H482 0.960 1_655 S
C496 H483 0.960 . S
C496 C495 1.524 . S
C497 C494 1.403 1_565 S
C497 C498 1.392 1_455 S
C497 C501 1.495 . S
C498 C497 1.392 1_655 S
C498 C499 1.385 . S
C498 C500 1.478 . S
C499 H493 0.930 . S
C499 C495 1.400 1_565 S
C499 C498 1.385 . S
C500 C498 1.478 . S
C500 C502 1.381 . S
C500 C506 1.383 . S
C501 C497 1.495 . S
C501 H507 0.959 . S
C501 H508 0.961 1_455 S
C501 H509 0.960 . S
C502 C500 1.381 . S
C502 C503 1.394 . S
C502 H510 0.930 1_655 S
C503 C502 1.394 . S
C503 C504 1.383 . S
C503 H511 0.929 . S
C504 C503 1.383 . S
C504 C505 1.377 . S
C505 H489 0.930 . S
C505 C504 1.377 . S
C505 C506 1.379 . S
C506 H490 0.931 . S
C506 C500 1.383 . S
C506 C505 1.379 . S
H507 C501 0.959 . S
H508 C501 0.961 1_655 S
H509 C501 0.960 . S
H510 C502 0.930 1_455 S
H511 C503 0.929 . S
H512 C520 0.929 . S
H513 C522 0.930 1_545 S
H514 C524 0.930 . S
H515 C527 0.929 . S
H516 C530 0.930 . S
H517 C532 0.960 . S
H518 C532 0.960 . S
H519 C532 0.960 . S
C520 H512 0.929 . S
C520 C521 1.377 . S
C520 C522 1.384 . S
C521 C520 1.377 . S
C521 C527 1.390 . S
C522 H513 0.930 1_565 S
C522 C520 1.384 . S
C522 C523 1.372 . S
C523 C522 1.372 . S
C523 C524 1.400 . S
C523 C528 1.490 . S
C524 H514 0.930 . S
C524 C523 1.400 . S
C524 C527 1.386 . S
H525 C541 0.930 . S
H526 C542 0.931 . S
C527 H515 0.929 . S
C527 C521 1.390 . S
C527 C524 1.386 . S
C528 C523 1.490 . S
C528 C530 1.395 1_565 S
C528 C531 1.403 . S
H529 C535 0.930 . S
C530 H516 0.930 . S
C530 C528 1.395 1_545 S
C530 C533 1.403 . S
C531 C528 1.403 . S
C531 C532 1.524 . S
C531 C535 1.400 . S
C532 H517 0.960 . S
C532 H518 0.960 . S
C532 H519 0.960 . S
C532 C531 1.524 . S
C533 C530 1.403 . S
C533 C534 1.392 . S
C533 C537 1.495 . S
C534 C533 1.392 . S
C534 C535 1.385 1_545 S
C534 C536 1.478 . S
C535 H529 0.930 . S
C535 C531 1.400 . S
C535 C534 1.385 1_565 S
C536 C534 1.478 . S
C536 C538 1.381 . S
C536 C542 1.383 . S
C537 C533 1.495 . S
C537 H543 0.959 . S
C537 H544 0.961 . S
C537 H545 0.960 . S
C538 C536 1.381 . S
C538 C539 1.394 . S
C538 H546 0.930 . S
C539 C538 1.394 . S
C539 C540 1.383 . S
C539 H547 0.929 . S
C540 C539 1.383 . S
C540 C541 1.377 . S
C541 H525 0.930 . S
C541 C540 1.377 . S
C541 C542 1.379 . S
C542 H526 0.931 . S
C542 C536 1.383 . S
C542 C541 1.379 . S
H543 C537 0.959 . S
H544 C537 0.961 . S
H545 C537 0.960 . S
H546 C538 0.930 . S
H547 C539 0.929 . S
H548 C556 0.929 . S
H549 C558 0.930 . S
H550 C560 0.930 . S
H551 C563 0.929 . S
H552 C566 0.930 . S
H553 C568 0.960 . S
H554 C568 0.960 . S
H555 C568 0.960 . S
C556 H548 0.929 . S
C556 C557 1.377 . S
C556 C558 1.384 . S
C557 C556 1.377 . S
C557 C563 1.390 . S
C558 H549 0.930 . S
C558 C556 1.384 . S
C558 C559 1.372 . S
C559 C558 1.372 . S
C559 C560 1.400 . S
C559 C564 1.490 . S
C560 H550 0.930 . S
C560 C559 1.400 . S
C560 C563 1.386 . S
H561 C577 0.930 . S
H562 C578 0.931 . S
C563 H551 0.929 . S
C563 C557 1.390 . S
C563 C560 1.386 . S
C564 C559 1.490 . S
C564 C566 1.395 . S
C564 C567 1.403 1_655 S
H565 C571 0.930 . S
C566 H552 0.930 . S
C566 C564 1.395 . S
C566 C569 1.403 1_565 S
C567 C564 1.403 1_455 S
C567 C568 1.524 . S
C567 C571 1.400 1_565 S
C568 H553 0.960 . S
C568 H554 0.960 . S
C568 H555 0.960 . S
C568 C567 1.524 . S
C569 C566 1.403 1_545 S
C569 C570 1.392 1_655 S
C569 C573 1.495 . S
C570 C569 1.392 1_455 S
C570 C571 1.385 . S
C570 C572 1.478 . S
C571 H565 0.930 . S
C571 C567 1.400 1_545 S
C571 C570 1.385 . S
C572 C570 1.478 . S
C572 C574 1.381 . S
C572 C578 1.383 . S
C573 C569 1.495 . S
C573 H579 0.959 . S
C573 H580 0.961 . S
C573 H581 0.960 . S
C574 C572 1.381 . S
C574 C575 1.394 . S
C574 H582 0.930 . S
C575 C574 1.394 . S
C575 C576 1.383 . S
C575 H583 0.929 . S
C576 C575 1.383 . S
C576 C577 1.377 . S
C577 H561 0.930 . S
C577 C576 1.377 . S
C577 C578 1.379 . S
C578 H562 0.931 . S
C578 C572 1.383 . S
C578 C577 1.379 . S
H579 C573 0.959 . S
H580 C573 0.961 . S
H581 C573 0.960 . S
H582 C574 0.930 . S
H583 C575 0.929 . S
H584 C592 0.929 . S
H585 C594 0.930 . S
H586 C596 0.930 . S
H587 C599 0.929 . S
H588 C602 0.930 . S
H589 C604 0.960 1_655 S
H590 C604 0.960 . S
H591 C604 0.960 . S
C592 H584 0.929 . S
C592 C593 1.377 . S
C592 C594 1.384 . S
C593 C592 1.377 . S
C593 C599 1.390 . S
C594 H585 0.930 . S
C594 C592 1.384 . S
C594 C595 1.372 . S
C595 C594 1.372 . S
C595 C596 1.400 . S
C595 C600 1.490 . S
C596 H586 0.930 . S
C596 C595 1.400 . S
C596 C599 1.386 . S
H597 C613 0.930 . S
H598 C614 0.931 . S
C599 H587 0.929 . S
C599 C593 1.390 . S
C599 C596 1.386 . S
C600 C595 1.490 . S
C600 C602 1.395 . S
C600 C603 1.403 . S
H601 C607 0.930 . S
C602 H588 0.930 . S
C602 C600 1.395 . S
C602 C605 1.376 1_455 S
C603 C600 1.403 . S
C603 C604 1.524 . S
C603 C607 1.400 1_455 S
C604 H589 0.960 1_455 S
C604 H590 0.960 . S
C604 H591 0.960 . S
C604 C603 1.524 . S
C605 C602 1.376 1_655 S
C605 C606 1.418 . S
C605 C609 1.497 . S
C606 C605 1.418 . S
C606 C607 1.385 . S
C606 C608 1.478 . S
C607 H601 0.930 . S
C607 C603 1.400 1_655 S
C607 C606 1.385 . S
C608 C606 1.478 . S
C608 C610 1.381 . S
C608 C614 1.383 . S
C609 C605 1.497 . S
C609 H615 0.959 1_655 S
C609 H616 0.961 . S
C609 H617 0.960 . S
C610 C608 1.381 . S
C610 C611 1.394 . S
C610 H618 0.930 . S
C611 C610 1.394 . S
C611 C612 1.383 . S
C611 H619 0.929 . S
C612 C611 1.383 . S
C612 C613 1.377 . S
C613 H597 0.930 . S
C613 C612 1.377 . S
C613 C614 1.379 . S
C614 H598 0.931 . S
C614 C608 1.383 . S
C614 C613 1.379 . S
H615 C609 0.959 1_455 S
H616 C609 0.961 . S
H617 C609 0.960 . S
H618 C610 0.930 . S
H619 C611 0.929 . S
H620 C628 0.929 . S
H621 C630 0.930 . S
H622 C632 0.930 . S
H623 C635 0.929 . S
H624 C638 0.930 . S
H625 C640 0.960 . S
H626 C640 0.960 . S
H627 C640 0.960 . S
C628 H620 0.929 . S
C628 C629 1.377 . S
C628 C630 1.384 . S
C629 C628 1.377 . S
C629 C635 1.390 . S
C630 H621 0.930 . S
C630 C628 1.384 . S
C630 C631 1.372 . S
C631 C630 1.372 . S
C631 C632 1.400 . S
C631 C636 1.490 . S
C632 H622 0.930 . S
C632 C631 1.400 . S
C632 C635 1.386 . S
H633 C649 0.930 . S
H634 C650 0.931 . S
C635 H623 0.929 . S
C635 C629 1.390 . S
C635 C632 1.386 . S
C636 C631 1.490 . S
C636 C638 1.395 . S
C636 C639 1.403 . S
H637 C643 0.930 . S
C638 H624 0.930 . S
C638 C636 1.395 . S
C638 C641 1.403 . S
C639 C636 1.403 . S
C639 C640 1.524 . S
C639 C643 1.400 . S
C640 H625 0.960 . S
C640 H626 0.960 . S
C640 H627 0.960 . S
C640 C639 1.524 . S
C641 C638 1.403 . S
C641 C642 1.392 . S
C641 C645 1.495 . S
C642 C641 1.392 . S
C642 C643 1.385 . S
C642 C644 1.478 . S
C643 H637 0.930 . S
C643 C639 1.400 . S
C643 C642 1.385 . S
C644 C642 1.478 . S
C644 C646 1.381 . S
C644 C650 1.383 . S
C645 C641 1.495 . S
C645 H651 0.959 . S
C645 H652 0.961 . S
C645 H653 0.960 . S
C646 C644 1.381 . S
C646 C647 1.394 . S
C646 H654 0.930 . S
C647 C646 1.394 . S
C647 C648 1.383 . S
C647 H655 0.929 . S
C648 C647 1.383 . S
C648 C649 1.377 . S
C649 H633 0.930 . S
C649 C648 1.377 . S
C649 C650 1.379 . S
C650 H634 0.931 . S
C650 C644 1.383 . S
C650 C649 1.379 . S
H651 C645 0.959 . S
H652 C645 0.961 . S
H653 C645 0.960 . S
H654 C646 0.930 . S
H655 C647 0.929 . S
H656 C664 0.929 . S
H657 C666 0.930 . S
H658 C668 0.930 . S
H659 C671 0.929 . S
H660 C674 0.930 . S
H661 C676 0.960 . S
H662 C676 0.960 . S
H663 C676 0.960 . S
C664 H656 0.929 . S
C664 C665 1.377 . S
C664 C666 1.384 . S
C665 C664 1.377 . S
C665 C671 1.390 . S
C666 H657 0.930 . S
C666 C664 1.384 . S
C666 C667 1.372 . S
C667 C666 1.372 . S
C667 C668 1.400 . S
C667 C672 1.490 . S
C668 H658 0.930 . S
C668 C667 1.400 . S
C668 C671 1.386 . S
H669 C685 0.930 . S
H670 C686 0.931 . S
C671 H659 0.929 . S
C671 C665 1.390 . S
C671 C668 1.386 . S
C672 C667 1.490 . S
C672 C674 1.395 . S
C672 C675 1.403 . S
H673 C679 0.930 . S
C674 H660 0.930 . S
C674 C672 1.395 . S
C674 C677 1.403 . S
C675 C672 1.403 . S
C675 C676 1.524 . S
C675 C679 1.400 . S
C676 H661 0.960 . S
C676 H662 0.960 . S
C676 H663 0.960 . S
C676 C675 1.524 . S
C677 C674 1.403 . S
C677 C678 1.392 . S
C677 C681 1.495 . S
C678 C677 1.392 . S
C678 C679 1.385 . S
C678 C680 1.478 . S
C679 H673 0.930 . S
C679 C675 1.400 . S
C679 C678 1.385 . S
C680 C678 1.478 . S
C680 C682 1.381 . S
C680 C686 1.383 . S
C681 C677 1.495 . S
C681 H687 0.959 . S
C681 H688 0.961 . S
C681 H689 0.960 . S
C682 C680 1.381 . S
C682 C683 1.394 . S
C682 H690 0.930 . S
C683 C682 1.394 . S
C683 C684 1.383 . S
C683 H691 0.929 . S
C684 C683 1.383 . S
C684 C685 1.377 . S
C685 H669 0.930 . S
C685 C684 1.377 . S
C685 C686 1.379 . S
C686 H670 0.931 . S
C686 C680 1.383 . S
C686 C685 1.379 . S
H687 C681 0.959 . S
H688 C681 0.961 . S
H689 C681 0.960 . S
H690 C682 0.930 . S
H691 C683 0.929 . S
H692 C700 0.929 . S
H693 C702 0.930 . S
H694 C704 0.930 . S
H695 C707 0.929 . S
H696 C710 0.930 . S
H697 C712 0.960 . S
H698 C712 0.960 . S
H699 C712 0.960 . S
C700 H692 0.929 . S
C700 C701 1.377 . S
C700 C702 1.384 . S
C701 C700 1.377 . S
C701 C707 1.390 . S
C702 H693 0.930 . S
C702 C700 1.384 . S
C702 C703 1.372 . S
C703 C702 1.372 . S
C703 C704 1.400 . S
C703 C708 1.490 . S
C704 H694 0.930 . S
C704 C703 1.400 . S
C704 C707 1.386 . S
H705 C721 0.930 . S
H706 C722 0.931 . S
C707 H695 0.929 . S
C707 C701 1.390 . S
C707 C704 1.386 . S
C708 C703 1.490 . S
C708 C710 1.395 . S
C708 C711 1.403 . S
H709 C715 0.930 . S
C710 H696 0.930 . S
C710 C708 1.395 . S
C710 C713 1.403 1_565 S
C711 C708 1.403 . S
C711 C712 1.524 . S
C711 C715 1.400 1_565 S
C712 H697 0.960 . S
C712 H698 0.960 . S
C712 H699 0.960 . S
C712 C711 1.524 . S
C713 C710 1.403 1_545 S
C713 C714 1.392 . S
C713 C717 1.495 . S
C714 C713 1.392 . S
C714 C715 1.385 . S
C714 C716 1.478 . S
C715 H709 0.930 . S
C715 C711 1.400 1_545 S
C715 C714 1.385 . S
C716 C714 1.478 . S
C716 C718 1.381 . S
C716 C722 1.383 . S
C717 C713 1.495 . S
C717 H723 0.959 . S
C717 H724 0.961 . S
C717 H725 0.960 . S
C718 C716 1.381 . S
C718 C719 1.394 . S
C718 H726 0.930 . S
C719 C718 1.394 . S
C719 C720 1.383 . S
C719 H727 0.929 . S
C720 C719 1.383 . S
C720 C721 1.377 . S
C721 H705 0.930 . S
C721 C720 1.377 . S
C721 C722 1.379 . S
C722 H706 0.931 . S
C722 C716 1.383 . S
C722 C721 1.379 . S
H723 C717 0.959 . S
H724 C717 0.961 . S
H725 C717 0.960 . S
H726 C718 0.930 . S
H727 C719 0.929 . S
H728 C736 0.929 . S
H729 C738 0.930 1_545 S
H730 C740 0.930 . S
H731 C743 0.929 . S
H732 C746 0.930 . S
H733 C748 0.960 1_455 S
H734 C748 0.960 . S
H735 C748 0.960 . S
C736 H728 0.929 . S
C736 C737 1.377 . S
C736 C738 1.384 . S
C737 C736 1.377 . S
C737 C743 1.390 . S
C738 H729 0.930 1_565 S
C738 C736 1.384 . S
C738 C739 1.372 . S
C739 C738 1.372 . S
C739 C740 1.400 . S
C739 C744 1.490 . S
C740 H730 0.930 . S
C740 C739 1.400 . S
C740 C743 1.386 . S
H741 C757 0.930 . S
H742 C758 0.931 . S
C743 H731 0.929 . S
C743 C737 1.390 . S
C743 C740 1.386 . S
C744 C739 1.490 . S
C744 C746 1.395 1_565 S
C744 C747 1.403 . S
H745 C751 0.930 . S
C746 H732 0.930 . S
C746 C744 1.395 1_545 S
C746 C749 1.403 1_655 S
C747 C744 1.403 . S
C747 C748 1.524 . S
C747 C751 1.400 1_655 S
C748 H733 0.960 1_655 S
C748 H734 0.960 . S
C748 H735 0.960 . S
C748 C747 1.524 . S
C749 C746 1.403 1_455 S
C749 C750 1.392 . S
C749 C753 1.495 . S
C750 C749 1.392 . S
C750 C751 1.385 1_545 S
C750 C752 1.478 . S
C751 H745 0.930 . S
C751 C747 1.400 1_455 S
C751 C750 1.385 1_565 S
C752 C750 1.478 . S
C752 C754 1.381 . S
C752 C758 1.383 . S
C753 C749 1.495 . S
C753 H759 0.959 1_455 S
C753 H760 0.961 . S
C753 H761 0.960 . S
C754 C752 1.381 . S
C754 C755 1.394 . S
C754 H762 0.930 . S
C755 C754 1.394 . S
C755 C756 1.383 . S
C755 H763 0.929 . S
C756 C755 1.383 . S
C756 C757 1.377 . S
C757 H741 0.930 . S
C757 C756 1.377 . S
C757 C758 1.379 . S
C758 H742 0.931 . S
C758 C752 1.383 . S
C758 C757 1.379 . S
H759 C753 0.959 1_655 S
H760 C753 0.961 . S
H761 C753 0.960 . S
H762 C754 0.930 . S
H763 C755 0.929 . S
H764 C772 0.929 . S
H765 C774 0.930 . S
H766 C776 0.930 1_655 S
H767 C779 0.929 . S
H768 C782 0.930 . S
H769 C784 0.960 . S
H770 C784 0.960 . S
H771 C784 0.960 . S
C772 H764 0.929 . S
C772 C773 1.377 . S
C772 C774 1.384 . S
C773 C772 1.377 . S
C773 C779 1.390 . S
C774 H765 0.930 . S
C774 C772 1.384 . S
C774 C775 1.372 . S
C775 C774 1.372 . S
C775 C776 1.400 . S
C775 C780 1.490 . S
C776 H766 0.930 1_455 S
C776 C775 1.400 . S
C776 C779 1.386 . S
H777 C793 0.930 . S
H778 C794 0.931 . S
C779 H767 0.929 . S
C779 C773 1.390 . S
C779 C776 1.386 . S
C780 C775 1.490 . S
C780 C782 1.395 . S
C780 C783 1.403 1_455 S
H781 C787 0.930 . S
C782 H768 0.930 . S
C782 C780 1.395 . S
C782 C785 1.403 . S
C783 C780 1.403 1_655 S
C783 C784 1.524 . S
C783 C787 1.400 . S
C784 H769 0.960 . S
C784 H770 0.960 . S
C784 H771 0.960 . S
C784 C783 1.524 . S
C785 C782 1.403 . S
C785 C786 1.392 1_455 S
C785 C789 1.495 . S
C786 C785 1.392 1_655 S
C786 C787 1.385 . S
C786 C788 1.478 . S
C787 H781 0.930 . S
C787 C783 1.400 . S
C787 C786 1.385 . S
C788 C786 1.478 . S
C788 C790 1.381 . S
C788 C794 1.383 . S
C789 C785 1.495 . S
C789 H795 0.959 . S
C789 H796 0.961 . S
C789 H797 0.960 . S
C790 C788 1.381 . S
C790 C791 1.394 . S
C790 H798 0.930 1_655 S
C791 C790 1.394 . S
C791 C792 1.383 . S
C791 H799 0.929 . S
C792 C791 1.383 . S
C792 C793 1.377 . S
C793 H777 0.930 . S
C793 C792 1.377 . S
C793 C794 1.379 . S
C794 H778 0.931 . S
C794 C788 1.383 . S
C794 C793 1.379 . S
H795 C789 0.959 . S
H796 C789 0.961 . S
H797 C789 0.960 . S
H798 C790 0.930 1_455 S
H799 C791 0.929 . S
H800 C808 0.929 . S
H801 C810 0.930 . S
H802 C812 0.930 . S
H803 C815 0.929 . S
H804 C818 0.930 . S
H805 C820 0.960 . S
H806 C820 0.960 . S
H807 C820 0.960 . S
C808 H800 0.929 . S
C808 C809 1.377 . S
C808 C810 1.384 . S
C809 C808 1.377 . S
C809 C815 1.390 . S
C810 H801 0.930 . S
C810 C808 1.384 . S
C810 C811 1.372 . S
C811 C810 1.372 . S
C811 C812 1.400 . S
C811 C816 1.490 . S
C812 H802 0.930 . S
C812 C811 1.400 . S
C812 C815 1.386 . S
H813 C829 0.930 . S
H814 C830 0.931 . S
C815 H803 0.929 . S
C815 C809 1.390 . S
C815 C812 1.386 . S
C816 C811 1.490 . S
C816 C818 1.395 . S
C816 C819 1.403 . S
H817 C823 0.930 . S
C818 H804 0.930 . S
C818 C816 1.395 . S
C818 C821 1.403 . S
C819 C816 1.403 . S
C819 C820 1.524 . S
C819 C823 1.400 . S
C820 H805 0.960 . S
C820 H806 0.960 . S
C820 H807 0.960 . S
C820 C819 1.524 . S
C821 C818 1.403 . S
C821 C822 1.392 . S
C821 C825 1.495 . S
C822 C821 1.392 . S
C822 C823 1.385 . S
C822 C824 1.478 . S
C823 H817 0.930 . S
C823 C819 1.400 . S
C823 C822 1.385 . S
C824 C822 1.478 . S
C824 C826 1.381 . S
C824 C830 1.383 . S
C825 C821 1.495 . S
C825 H831 0.959 . S
C825 H832 0.961 . S
C825 H833 0.960 . S
C826 C824 1.381 . S
C826 C827 1.394 . S
C826 H834 0.930 . S
C827 C826 1.394 . S
C827 C828 1.383 . S
C827 H835 0.929 . S
C828 C827 1.383 . S
C828 C829 1.377 . S
C829 H813 0.930 . S
C829 C828 1.377 . S
C829 C830 1.379 . S
C830 H814 0.931 . S
C830 C824 1.383 . S
C830 C829 1.379 . S
H831 C825 0.959 . S
H832 C825 0.961 . S
H833 C825 0.960 . S
H834 C826 0.930 . S
H835 C827 0.929 . S
H836 C844 0.929 . S
H837 C846 0.930 . S
H838 C848 0.930 . S
H839 C851 0.929 . S
H840 C854 0.930 . S
H841 C856 0.960 . S
H842 C856 0.960 . S
H843 C856 0.960 . S
C844 H836 0.929 . S
C844 C845 1.377 . S
C844 C846 1.384 . S
C845 C844 1.377 . S
C845 C851 1.390 . S
C846 H837 0.930 . S
C846 C844 1.384 . S
C846 C847 1.372 . S
C847 C846 1.372 . S
C847 C848 1.400 . S
C847 C852 1.490 . S
C848 H838 0.930 . S
C848 C847 1.400 . S
C848 C851 1.386 . S
H849 C865 0.930 . S
H850 C866 0.931 . S
C851 H839 0.929 . S
C851 C845 1.390 . S
C851 C848 1.386 . S
C852 C847 1.490 . S
C852 C854 1.395 . S
C852 C855 1.403 . S
H853 C859 0.930 . S
C854 H840 0.930 . S
C854 C852 1.395 . S
C854 C857 1.403 . S
C855 C852 1.403 . S
C855 C856 1.524 . S
C855 C859 1.400 . S
C856 H841 0.960 . S
C856 H842 0.960 . S
C856 H843 0.960 . S
C856 C855 1.524 . S
C857 C854 1.403 . S
C857 C858 1.392 . S
C857 C861 1.495 . S
C858 C857 1.392 . S
C858 C859 1.385 . S
C858 C860 1.478 . S
C859 H853 0.930 . S
C859 C855 1.400 . S
C859 C858 1.385 . S
C860 C858 1.478 . S
C860 C862 1.381 . S
C860 C866 1.383 . S
C861 C857 1.495 . S
C861 H867 0.959 . S
C861 H868 0.961 . S
C861 H869 0.960 . S
C862 C860 1.381 . S
C862 C863 1.394 . S
C862 H870 0.930 . S
C863 C862 1.394 . S
C863 C864 1.383 . S
C863 H871 0.929 . S
C864 C863 1.383 . S
C864 C865 1.377 . S
C865 H849 0.930 . S
C865 C864 1.377 . S
C865 C866 1.379 . S
C866 H850 0.931 . S
C866 C860 1.383 . S
C866 C865 1.379 . S
H867 C861 0.959 . S
H868 C861 0.961 . S
H869 C861 0.960 . S
H870 C862 0.930 . S
H871 C863 0.929 . S
H872 C880 0.929 . S
H873 C882 0.930 . S
H874 C884 0.930 . S
H875 C887 0.929 . S
H876 C890 0.930 . S
H877 C892 0.960 . S
H878 C892 0.960 . S
H879 C892 0.960 . S
C880 H872 0.929 . S
C880 C881 1.377 . S
C880 C882 1.384 . S
C881 C880 1.377 . S
C881 C887 1.390 . S
C882 H873 0.930 . S
C882 C880 1.384 . S
C882 C883 1.372 . S
C883 C882 1.372 . S
C883 C884 1.400 . S
C883 C888 1.490 . S
C884 H874 0.930 . S
C884 C883 1.400 . S
C884 C887 1.386 . S
H885 C901 0.930 . S
H886 C902 0.931 . S
C887 H875 0.929 . S
C887 C881 1.390 . S
C887 C884 1.386 . S
C888 C883 1.490 . S
C888 C890 1.395 . S
C888 C891 1.403 . S
H889 C895 0.930 . S
C890 H876 0.930 . S
C890 C888 1.395 . S
C890 C893 1.403 . S
C891 C888 1.403 . S
C891 C892 1.524 . S
C891 C895 1.400 . S
C892 H877 0.960 . S
C892 H878 0.960 . S
C892 H879 0.960 . S
C892 C891 1.524 . S
C893 C890 1.403 . S
C893 C894 1.392 . S
C893 C897 1.495 . S
C894 C893 1.392 . S
C894 C895 1.385 . S
C894 C896 1.478 . S
C895 H889 0.930 . S
C895 C891 1.400 . S
C895 C894 1.385 . S
C896 C894 1.478 . S
C896 C898 1.381 . S
C896 C902 1.383 . S
C897 C893 1.495 . S
C897 H903 0.959 . S
C897 H904 0.961 . S
C897 H905 0.960 . S
C898 C896 1.381 . S
C898 C899 1.394 . S
C898 H906 0.930 . S
C899 C898 1.394 . S
C899 C900 1.383 . S
C899 H907 0.929 . S
C900 C899 1.383 . S
C900 C901 1.377 . S
C901 H885 0.930 . S
C901 C900 1.377 . S
C901 C902 1.379 . S
C902 H886 0.931 . S
C902 C896 1.383 . S
C902 C901 1.379 . S
H903 C897 0.959 . S
H904 C897 0.961 . S
H905 C897 0.960 . S
H906 C898 0.930 . S
H907 C899 0.929 . S
H908 C916 0.929 . S
H909 C918 0.930 . S
H910 C920 0.930 . S
H911 C923 0.929 . S
H912 C926 0.930 . S
H913 C928 0.960 . S
H914 C928 0.960 . S
H915 C928 0.960 . S
C916 H908 0.929 . S
C916 C917 1.377 . S
C916 C918 1.384 . S
C917 C916 1.377 . S
C917 C923 1.390 . S
C918 H909 0.930 . S
C918 C916 1.384 . S
C918 C919 1.372 . S
C919 C918 1.372 . S
C919 C920 1.400 . S
C919 C924 1.490 . S
C920 H910 0.930 . S
C920 C919 1.400 . S
C920 C923 1.386 . S
H921 C937 0.930 . S
H922 C938 0.931 . S
C923 H911 0.929 . S
C923 C917 1.390 . S
C923 C920 1.386 . S
C924 C919 1.490 . S
C924 C926 1.395 . S
C924 C927 1.403 . S
H925 C931 0.930 . S
C926 H912 0.930 . S
C926 C924 1.395 . S
C926 C929 1.403 . S
C927 C924 1.403 . S
C927 C928 1.524 . S
C927 C931 1.400 . S
C928 H913 0.960 . S
C928 H914 0.960 . S
C928 H915 0.960 . S
C928 C927 1.524 . S
C929 C926 1.403 . S
C929 C930 1.392 . S
C929 C933 1.495 . S
C930 C929 1.392 . S
C930 C931 1.385 . S
C930 C932 1.478 . S
C931 H925 0.930 . S
C931 C927 1.400 . S
C931 C930 1.385 . S
C932 C930 1.478 . S
C932 C934 1.381 . S
C932 C938 1.383 . S
C933 C929 1.495 . S
C933 H939 0.959 . S
C933 H940 0.961 . S
C933 H941 0.960 . S
C934 C932 1.381 . S
C934 C935 1.394 . S
C934 H942 0.930 . S
C935 C934 1.394 . S
C935 C936 1.383 . S
C935 H943 0.929 . S
C936 C935 1.383 . S
C936 C937 1.377 . S
C937 H921 0.930 . S
C937 C936 1.377 . S
C937 C938 1.379 . S
C938 H922 0.931 . S
C938 C932 1.383 . S
C938 C937 1.379 . S
H939 C933 0.959 . S
H940 C933 0.961 . S
H941 C933 0.960 . S
H942 C934 0.930 . S
H943 C935 0.929 . S
H944 C952 0.929 . S
H945 C954 0.930 . S
H946 C956 0.930 . S
H947 C959 0.929 . S
H948 C962 0.930 . S
H949 C964 0.960 . S
H950 C964 0.960 . S
H951 C964 0.960 . S
C952 H944 0.929 . S
C952 C953 1.377 . S
C952 C954 1.384 . S
C953 C952 1.377 . S
C953 C959 1.390 . S
C954 H945 0.930 . S
C954 C952 1.384 . S
C954 C955 1.372 . S
C955 C954 1.372 . S
C955 C956 1.400 . S
C955 C960 1.490 . S
C956 H946 0.930 . S
C956 C955 1.400 . S
C956 C959 1.386 . S
H957 C973 0.930 . S
H958 C974 0.931 . S
C959 H947 0.929 . S
C959 C953 1.390 . S
C959 C956 1.386 . S
C960 C955 1.490 . S
C960 C962 1.395 . S
C960 C963 1.403 . S
H961 C967 0.930 . S
C962 H948 0.930 . S
C962 C960 1.395 . S
C962 C965 1.403 . S
C963 C960 1.403 . S
C963 C964 1.524 . S
C963 C967 1.400 . S
C964 H949 0.960 . S
C964 H950 0.960 . S
C964 H951 0.960 . S
C964 C963 1.524 . S
C965 C962 1.403 . S
C965 C966 1.392 . S
C965 C969 1.495 . S
C966 C965 1.392 . S
C966 C967 1.385 . S
C966 C968 1.478 . S
C967 H961 0.930 . S
C967 C963 1.400 . S
C967 C966 1.385 . S
C968 C966 1.478 . S
C968 C970 1.381 . S
C968 C974 1.383 . S
C969 C965 1.495 . S
C969 H975 0.959 . S
C969 H976 0.961 . S
C969 H977 0.960 . S
C970 C968 1.381 . S
C970 C971 1.394 . S
C970 H978 0.930 . S
C971 C970 1.394 . S
C971 C972 1.383 . S
C971 H979 0.929 . S
C972 C971 1.383 . S
C972 C973 1.377 . S
C973 H957 0.930 . S
C973 C972 1.377 . S
C973 C974 1.379 . S
C974 H958 0.931 . S
C974 C968 1.383 . S
C974 C973 1.379 . S
H975 C969 0.959 . S
H976 C969 0.961 . S
H977 C969 0.960 . S
H978 C970 0.930 . S
H979 C971 0.929 . S
H980 C988 0.929 . S
H981 C990 0.930 . S
H982 C992 0.930 . S
H983 C995 0.929 . S
H984 C998 0.930 . S
H985 C1000 0.960 . S
H986 C1000 0.960 . S
H987 C1000 0.960 . S
C988 H980 0.929 . S
C988 C989 1.377 . S
C988 C990 1.384 . S
C989 C988 1.377 . S
C989 C995 1.390 . S
C990 H981 0.930 . S
C990 C988 1.384 . S
C990 C991 1.372 . S
C991 C990 1.372 . S
C991 C992 1.400 . S
C991 C996 1.490 . S
C992 H982 0.930 . S
C992 C991 1.400 . S
C992 C995 1.386 . S
H993 C1009 0.930 . S
H994 C1010 0.931 . S
C995 H983 0.929 . S
C995 C989 1.390 . S
C995 C992 1.386 . S
C996 C991 1.490 . S
C996 C998 1.395 . S
C996 C999 1.403 . S
H997 C1003 0.930 . S
C998 H984 0.930 . S
C998 C996 1.395 . S
C998 C1001 1.403 . S
C999 C996 1.403 . S
C999 C1000 1.524 . S
C999 C1003 1.400 . S
C1000 H985 0.960 . S
C1000 H986 0.960 . S
C1000 H987 0.960 . S
C1000 C999 1.524 . S
C1001 C998 1.403 . S
C1001 C1002 1.392 . S
C1001 C1005 1.495 . S
C1002 C1001 1.392 . S
C1002 C1003 1.385 . S
C1002 C1004 1.478 . S
C1003 H997 0.930 . S
C1003 C999 1.400 . S
C1003 C1002 1.385 . S
C1004 C1002 1.478 . S
C1004 C1006 1.381 . S
C1004 C1010 1.383 . S
C1005 C1001 1.495 . S
C1005 H1011 0.959 . S
C1005 H1012 0.961 . S
C1005 H1013 0.960 . S
C1006 C1004 1.381 . S
C1006 C1007 1.394 . S
C1006 H1014 0.930 . S
C1007 C1006 1.394 . S
C1007 C1008 1.383 . S
C1007 H1015 0.929 . S
C1008 C1007 1.383 . S
C1008 C1009 1.377 . S
C1009 H993 0.930 . S
C1009 C1008 1.377 . S
C1009 C1010 1.379 . S
C1010 H994 0.931 . S
C1010 C1004 1.383 . S
C1010 C1009 1.379 . S
H1011 C1005 0.959 . S
H1012 C1005 0.961 . S
H1013 C1005 0.960 . S
H1014 C1006 0.930 . S
H1015 C1007 0.929 . S
H1016 C1024 0.929 . S
H1017 C1026 0.930 . S
H1018 C1028 0.930 . S
H1019 C1031 0.929 . S
H1020 C1034 0.930 . S
H1021 C1036 0.960 . S
H1022 C1036 0.960 . S
H1023 C1036 0.960 . S
C1024 H1016 0.929 . S
C1024 C1025 1.377 . S
C1024 C1026 1.384 . S
C1025 C1024 1.377 . S
C1025 C1031 1.390 . S
C1026 H1017 0.930 . S
C1026 C1024 1.384 . S
C1026 C1027 1.372 . S
C1027 C1026 1.372 . S
C1027 C1028 1.400 . S
C1027 C1032 1.490 . S
C1028 H1018 0.930 . S
C1028 C1027 1.400 . S
C1028 C1031 1.386 . S
H1029 C1045 0.930 . S
H1030 C1046 0.931 . S
C1031 H1019 0.929 . S
C1031 C1025 1.390 . S
C1031 C1028 1.386 . S
C1032 C1027 1.490 . S
C1032 C1034 1.395 . S
C1032 C1035 1.403 . S
H1033 C1039 0.930 . S
C1034 H1020 0.930 . S
C1034 C1032 1.395 . S
C1034 C1037 1.403 . S
C1035 C1032 1.403 . S
C1035 C1036 1.524 . S
C1035 C1039 1.400 . S
C1036 H1021 0.960 . S
C1036 H1022 0.960 . S
C1036 H1023 0.960 . S
C1036 C1035 1.524 . S
C1037 C1034 1.403 . S
C1037 C1038 1.392 . S
C1037 C1041 1.495 . S
C1038 C1037 1.392 . S
C1038 C1039 1.385 . S
C1038 C1040 1.478 . S
C1039 H1033 0.930 . S
C1039 C1035 1.400 . S
C1039 C1038 1.385 . S
C1040 C1038 1.478 . S
C1040 C1042 1.381 . S
C1040 C1046 1.383 . S
C1041 C1037 1.495 . S
C1041 H1047 0.959 . S
C1041 H1048 0.961 . S
C1041 H1049 0.960 . S
C1042 C1040 1.381 . S
C1042 C1043 1.394 . S
C1042 H1050 0.930 . S
C1043 C1042 1.394 . S
C1043 C1044 1.383 . S
C1043 H1051 0.929 . S
C1044 C1043 1.383 . S
C1044 C1045 1.377 . S
C1045 H1029 0.930 . S
C1045 C1044 1.377 . S
C1045 C1046 1.379 . S
C1046 H1030 0.931 . S
C1046 C1040 1.383 . S
C1046 C1045 1.379 . S
H1047 C1041 0.959 . S
H1048 C1041 0.961 . S
H1049 C1041 0.960 . S
H1050 C1042 0.930 . S
H1051 C1043 0.929 . S
H1052 C1060 0.929 . S
H1053 C1062 0.930 . S
H1054 C1064 0.930 . S
H1055 C1067 0.929 . S
H1056 C1070 0.930 . S
H1057 C1072 0.960 . S
H1058 C1072 0.960 . S
H1059 C1072 0.960 . S
C1060 H1052 0.929 . S
C1060 C1061 1.377 . S
C1060 C1062 1.384 . S
C1061 C1060 1.377 . S
C1061 C1067 1.390 . S
C1062 H1053 0.930 . S
C1062 C1060 1.384 . S
C1062 C1063 1.372 . S
C1063 C1062 1.372 . S
C1063 C1064 1.400 . S
C1063 C1068 1.490 . S
C1064 H1054 0.930 . S
C1064 C1063 1.400 . S
C1064 C1067 1.386 . S
H1065 C1081 0.930 . S
H1066 C1082 0.931 . S
C1067 H1055 0.929 . S
C1067 C1061 1.390 . S
C1067 C1064 1.386 . S
C1068 C1063 1.490 . S
C1068 C1070 1.395 . S
C1068 C1071 1.403 . S
H1069 C1075 0.930 . S
C1070 H1056 0.930 . S
C1070 C1068 1.395 . S
C1070 C1073 1.403 . S
C1071 C1068 1.403 . S
C1071 C1072 1.524 . S
C1071 C1075 1.400 . S
C1072 H1057 0.960 . S
C1072 H1058 0.960 . S
C1072 H1059 0.960 . S
C1072 C1071 1.524 . S
C1073 C1070 1.403 . S
C1073 C1074 1.392 . S
C1073 C1077 1.495 . S
C1074 C1073 1.392 . S
C1074 C1075 1.385 . S
C1074 C1076 1.478 . S
C1075 H1069 0.930 . S
C1075 C1071 1.400 . S
C1075 C1074 1.385 . S
C1076 C1074 1.478 . S
C1076 C1078 1.381 . S
C1076 C1082 1.383 . S
C1077 C1073 1.495 . S
C1077 H1083 0.959 . S
C1077 H1084 0.961 . S
C1077 H1085 0.960 . S
C1078 C1076 1.381 . S
C1078 C1079 1.394 . S
C1078 H1086 0.930 . S
C1079 C1078 1.394 . S
C1079 C1080 1.383 . S
C1079 H1087 0.929 . S
C1080 C1079 1.383 . S
C1080 C1081 1.377 . S
C1081 H1065 0.930 . S
C1081 C1080 1.377 . S
C1081 C1082 1.379 . S
C1082 H1066 0.931 . S
C1082 C1076 1.383 . S
C1082 C1081 1.379 . S
H1083 C1077 0.959 . S
H1084 C1077 0.961 . S
H1085 C1077 0.960 . S
H1086 C1078 0.930 . S
H1087 C1079 0.929 . S
H1088 C1096 0.929 . S
H1089 C1098 0.930 . S
H1090 C1100 0.930 . S
H1091 C1103 0.929 . S
H1092 C1106 0.930 . S
H1093 C1108 0.960 . S
H1094 C1108 0.960 . S
H1095 C1108 0.960 . S
C1096 H1088 0.929 . S
C1096 C1097 1.377 . S
C1096 C1098 1.384 . S
C1097 C1096 1.377 . S
C1097 C1103 1.390 . S
C1098 H1089 0.930 . S
C1098 C1096 1.384 . S
C1098 C1099 1.372 . S
C1099 C1098 1.372 . S
C1099 C1100 1.400 . S
C1099 C1104 1.490 . S
C1100 H1090 0.930 . S
C1100 C1099 1.400 . S
C1100 C1103 1.386 . S
H1101 C1117 0.930 . S
H1102 C1118 0.931 . S
C1103 H1091 0.929 . S
C1103 C1097 1.390 . S
C1103 C1100 1.386 . S
C1104 C1099 1.490 . S
C1104 C1106 1.395 . S
C1104 C1107 1.403 . S
H1105 C1111 0.930 . S
C1106 H1092 0.930 . S
C1106 C1104 1.395 . S
C1106 C1109 1.403 . S
C1107 C1104 1.403 . S
C1107 C1108 1.524 . S
C1107 C1111 1.400 . S
C1108 H1093 0.960 . S
C1108 H1094 0.960 . S
C1108 H1095 0.960 . S
C1108 C1107 1.524 . S
C1109 C1106 1.403 . S
C1109 C1110 1.392 . S
C1109 C1113 1.495 . S
C1110 C1109 1.392 . S
C1110 C1111 1.385 . S
C1110 C1112 1.478 . S
C1111 H1105 0.930 . S
C1111 C1107 1.400 . S
C1111 C1110 1.385 . S
C1112 C1110 1.478 . S
C1112 C1114 1.381 . S
C1112 C1118 1.383 . S
C1113 C1109 1.495 . S
C1113 H1119 0.959 . S
C1113 H1120 0.961 . S
C1113 H1121 0.960 . S
C1114 C1112 1.381 . S
C1114 C1115 1.394 . S
C1114 H1122 0.930 . S
C1115 C1114 1.394 . S
C1115 C1116 1.383 . S
C1115 H1123 0.929 . S
C1116 C1115 1.383 . S
C1116 C1117 1.377 . S
C1117 H1101 0.930 . S
C1117 C1116 1.377 . S
C1117 C1118 1.379 . S
C1118 H1102 0.931 . S
C1118 C1112 1.383 . S
C1118 C1117 1.379 . S
H1119 C1113 0.959 . S
H1120 C1113 0.961 . S
H1121 C1113 0.960 . S
H1122 C1114 0.930 . S
H1123 C1115 0.929 . S
H1124 C1132 0.929 . S
H1125 C1134 0.930 . S
H1126 C1136 0.930 . S
H1127 C1139 0.929 . S
H1128 C1142 0.930 . S
H1129 C1144 0.960 . S
H1130 C1144 0.960 . S
H1131 C1144 0.960 . S
C1132 H1124 0.929 . S
C1132 C1133 1.377 . S
C1132 C1134 1.384 . S
C1133 C1132 1.377 . S
C1133 C1139 1.390 . S
C1134 H1125 0.930 . S
C1134 C1132 1.384 . S
C1134 C1135 1.372 . S
C1135 C1134 1.372 . S
C1135 C1136 1.400 . S
C1135 C1140 1.490 . S
C1136 H1126 0.930 . S
C1136 C1135 1.400 . S
C1136 C1139 1.386 . S
H1137 C1153 0.930 . S
H1138 C1154 0.931 . S
C1139 H1127 0.929 . S
C1139 C1133 1.390 . S
C1139 C1136 1.386 . S
C1140 C1135 1.490 . S
C1140 C1142 1.395 . S
C1140 C1143 1.403 . S
H1141 C1147 0.930 . S
C1142 H1128 0.930 . S
C1142 C1140 1.395 . S
C1142 C1145 1.403 . S
C1143 C1140 1.403 . S
C1143 C1144 1.524 . S
C1143 C1147 1.400 . S
C1144 H1129 0.960 . S
C1144 H1130 0.960 . S
C1144 H1131 0.960 . S
C1144 C1143 1.524 . S
C1145 C1142 1.403 . S
C1145 C1146 1.392 . S
C1145 C1149 1.495 . S
C1146 C1145 1.392 . S
C1146 C1147 1.385 . S
C1146 C1148 1.478 . S
C1147 H1141 0.930 . S
C1147 C1143 1.400 . S
C1147 C1146 1.385 . S
C1148 C1146 1.478 . S
C1148 C1150 1.381 . S
C1148 C1154 1.383 . S
C1149 C1145 1.495 . S
C1149 H1155 0.959 . S
C1149 H1156 0.961 . S
C1149 H1157 0.960 . S
C1150 C1148 1.381 . S
C1150 C1151 1.394 . S
C1150 H1158 0.930 . S
C1151 C1150 1.394 . S
C1151 C1152 1.383 . S
C1151 H1159 0.929 . S
C1152 C1151 1.383 . S
C1152 C1153 1.377 . S
C1153 H1137 0.930 . S
C1153 C1152 1.377 . S
C1153 C1154 1.379 . S
C1154 H1138 0.931 . S
C1154 C1148 1.383 . S
C1154 C1153 1.379 . S
H1155 C1149 0.959 . S
H1156 C1149 0.961 . S
H1157 C1149 0.960 . S
H1158 C1150 0.930 . S
H1159 C1151 0.929 . S
H1160 C1168 0.929 . S
H1161 C1170 0.930 . S
H1162 C1172 0.930 . S
H1163 C1175 0.929 . S
H1164 C1178 0.930 . S
H1165 C1180 0.960 . S
H1166 C1180 0.960 . S
H1167 C1180 0.960 . S
C1168 H1160 0.929 . S
C1168 C1169 1.377 . S
C1168 C1170 1.384 . S
C1169 C1168 1.377 . S
C1169 C1175 1.390 . S
C1170 H1161 0.930 . S
C1170 C1168 1.384 . S
C1170 C1171 1.372 . S
C1171 C1170 1.372 . S
C1171 C1172 1.400 . S
C1171 C1176 1.490 . S
C1172 H1162 0.930 . S
C1172 C1171 1.400 . S
C1172 C1175 1.386 . S
H1173 C1189 0.930 . S
H1174 C1190 0.931 . S
C1175 H1163 0.929 . S
C1175 C1169 1.390 . S
C1175 C1172 1.386 . S
C1176 C1171 1.490 . S
C1176 C1178 1.395 . S
C1176 C1179 1.403 . S
H1177 C1183 0.930 . S
C1178 H1164 0.930 . S
C1178 C1176 1.395 . S
C1178 C1181 1.403 . S
C1179 C1176 1.403 . S
C1179 C1180 1.524 . S
C1179 C1183 1.400 . S
C1180 H1165 0.960 . S
C1180 H1166 0.960 . S
C1180 H1167 0.960 . S
C1180 C1179 1.524 . S
C1181 C1178 1.403 . S
C1181 C1182 1.392 . S
C1181 C1185 1.495 . S
C1182 C1181 1.392 . S
C1182 C1183 1.385 . S
C1182 C1184 1.478 . S
C1183 H1177 0.930 . S
C1183 C1179 1.400 . S
C1183 C1182 1.385 . S
C1184 C1182 1.478 . S
C1184 C1186 1.381 . S
C1184 C1190 1.383 . S
C1185 C1181 1.495 . S
C1185 H1191 0.959 . S
C1185 H1192 0.961 . S
C1185 H1193 0.960 . S
C1186 C1184 1.381 . S
C1186 C1187 1.394 . S
C1186 H1194 0.930 . S
C1187 C1186 1.394 . S
C1187 C1188 1.383 . S
C1187 H1195 0.929 . S
C1188 C1187 1.383 . S
C1188 C1189 1.377 . S
C1189 H1173 0.930 . S
C1189 C1188 1.377 . S
C1189 C1190 1.379 . S
C1190 H1174 0.931 . S
C1190 C1184 1.383 . S
C1190 C1189 1.379 . S
H1191 C1185 0.959 . S
H1192 C1185 0.961 . S
H1193 C1185 0.960 . S
H1194 C1186 0.930 . S
H1195 C1187 0.929 . S
H1196 C1204 0.929 . S
H1197 C1206 0.930 . S
H1198 C1208 0.930 . S
H1199 C1211 0.929 . S
H1200 C1214 0.930 . S
H1201 C1216 0.960 . S
H1202 C1216 0.960 . S
H1203 C1216 0.960 . S
C1204 H1196 0.929 . S
C1204 C1205 1.377 . S
C1204 C1206 1.384 . S
C1205 C1204 1.377 . S
C1205 C1211 1.390 . S
C1206 H1197 0.930 . S
C1206 C1204 1.384 . S
C1206 C1207 1.372 . S
C1207 C1206 1.372 . S
C1207 C1208 1.400 . S
C1207 C1212 1.490 . S
C1208 H1198 0.930 . S
C1208 C1207 1.400 . S
C1208 C1211 1.386 . S
H1209 C1225 0.930 . S
H1210 C1226 0.931 . S
C1211 H1199 0.929 . S
C1211 C1205 1.390 . S
C1211 C1208 1.386 . S
C1212 C1207 1.490 . S
C1212 C1214 1.395 . S
C1212 C1215 1.403 . S
H1213 C1219 0.930 . S
C1214 H1200 0.930 . S
C1214 C1212 1.395 . S
C1214 C1217 1.403 1_556 S
C1215 C1212 1.403 . S
C1215 C1216 1.524 . S
C1215 C1219 1.400 1_556 S
C1216 H1201 0.960 . S
C1216 H1202 0.960 . S
C1216 H1203 0.960 . S
C1216 C1215 1.524 . S
C1217 C1214 1.403 1_554 S
C1217 C1218 1.392 . S
C1217 C1221 1.495 . S
C1218 C1217 1.392 . S
C1218 C1219 1.385 . S
C1218 C1220 1.478 . S
C1219 H1213 0.930 . S
C1219 C1215 1.400 1_554 S
C1219 C1218 1.385 . S
C1220 C1218 1.478 . S
C1220 C1222 1.381 . S
C1220 C1226 1.383 . S
C1221 C1217 1.495 . S
C1221 H1227 0.959 . S
C1221 H1228 0.961 . S
C1221 H1229 0.960 . S
C1222 C1220 1.381 . S
C1222 C1223 1.394 . S
C1222 H1230 0.930 . S
C1223 C1222 1.394 . S
C1223 C1224 1.383 . S
C1223 H1231 0.929 . S
C1224 C1223 1.383 . S
C1224 C1225 1.377 . S
C1225 H1209 0.930 . S
C1225 C1224 1.377 . S
C1225 C1226 1.379 . S
C1226 H1210 0.931 . S
C1226 C1220 1.383 . S
C1226 C1225 1.379 . S
H1227 C1221 0.959 . S
H1228 C1221 0.961 . S
H1229 C1221 0.960 . S
H1230 C1222 0.930 . S
H1231 C1223 0.929 . S
H1232 C1240 0.929 . S
H1233 C1242 0.930 . S
H1234 C1244 0.930 . S
H1235 C1247 0.929 . S
H1236 C1250 0.930 . S
H1237 C1252 0.960 . S
H1238 C1252 0.960 . S
H1239 C1252 0.960 . S
C1240 H1232 0.929 . S
C1240 C1241 1.377 . S
C1240 C1242 1.384 . S
C1241 C1240 1.377 . S
C1241 C1247 1.390 . S
C1242 H1233 0.930 . S
C1242 C1240 1.384 . S
C1242 C1243 1.372 . S
C1243 C1242 1.372 . S
C1243 C1244 1.400 . S
C1243 C1248 1.490 . S
C1244 H1234 0.930 . S
C1244 C1243 1.400 . S
C1244 C1247 1.386 . S
H1245 C1261 0.930 . S
H1246 C1262 0.931 . S
C1247 H1235 0.929 . S
C1247 C1241 1.390 . S
C1247 C1244 1.386 . S
C1248 C1243 1.490 . S
C1248 C1250 1.395 . S
C1248 C1251 1.403 . S
H1249 C1255 0.930 . S
C1250 H1236 0.930 . S
C1250 C1248 1.395 . S
C1250 C1253 1.403 1_554 S
C1251 C1248 1.403 . S
C1251 C1252 1.524 . S
C1251 C1255 1.400 1_554 S
C1252 H1237 0.960 . S
C1252 H1238 0.960 . S
C1252 H1239 0.960 . S
C1252 C1251 1.524 . S
C1253 C1250 1.403 1_556 S
C1253 C1254 1.392 . S
C1253 C1257 1.495 . S
C1254 C1253 1.392 . S
C1254 C1255 1.385 . S
C1254 C1256 1.478 . S
C1255 H1249 0.930 . S
C1255 C1251 1.400 1_556 S
C1255 C1254 1.385 . S
C1256 C1254 1.478 . S
C1256 C1258 1.381 . S
C1256 C1262 1.383 . S
C1257 C1253 1.495 . S
C1257 H1263 0.959 . S
C1257 H1264 0.961 . S
C1257 H1265 0.960 . S
C1258 C1256 1.381 . S
C1258 C1259 1.394 . S
C1258 H1266 0.930 . S
C1259 C1258 1.394 . S
C1259 C1260 1.383 . S
C1259 H1267 0.929 . S
C1260 C1259 1.383 . S
C1260 C1261 1.377 . S
C1261 H1245 0.930 . S
C1261 C1260 1.377 . S
C1261 C1262 1.379 . S
C1262 H1246 0.931 . S
C1262 C1256 1.383 . S
C1262 C1261 1.379 . S
H1263 C1257 0.959 . S
H1264 C1257 0.961 . S
H1265 C1257 0.960 . S
H1266 C1258 0.930 . S
H1267 C1259 0.929 . S
H1268 C1276 0.929 . S
H1269 C1278 0.930 . S
H1270 C1280 0.930 . S
H1271 C1283 0.929 . S
H1272 C1286 0.930 . S
H1273 C1288 0.960 . S
H1274 C1288 0.960 . S
H1275 C1288 0.960 . S
C1276 H1268 0.929 . S
C1276 C1277 1.377 . S
C1276 C1278 1.384 . S
C1277 C1276 1.377 . S
C1277 C1283 1.390 . S
C1278 H1269 0.930 . S
C1278 C1276 1.384 . S
C1278 C1279 1.372 . S
C1279 C1278 1.372 . S
C1279 C1280 1.400 . S
C1279 C1284 1.490 . S
C1280 H1270 0.930 . S
C1280 C1279 1.400 . S
C1280 C1283 1.386 . S
H1281 C1297 0.930 . S
H1282 C1298 0.931 . S
C1283 H1271 0.929 . S
C1283 C1277 1.390 . S
C1283 C1280 1.386 . S
C1284 C1279 1.490 . S
C1284 C1286 1.395 . S
C1284 C1287 1.403 . S
H1285 C1291 0.930 . S
C1286 H1272 0.930 . S
C1286 C1284 1.395 . S
C1286 C1289 1.403 . S
C1287 C1284 1.403 . S
C1287 C1288 1.524 . S
C1287 C1291 1.400 . S
C1288 H1273 0.960 . S
C1288 H1274 0.960 . S
C1288 H1275 0.960 . S
C1288 C1287 1.524 . S
C1289 C1286 1.403 . S
C1289 C1290 1.392 . S
C1289 C1293 1.495 . S
C1290 C1289 1.392 . S
C1290 C1291 1.385 . S
C1290 C1292 1.478 . S
C1291 H1285 0.930 . S
C1291 C1287 1.400 . S
C1291 C1290 1.385 . S
C1292 C1290 1.478 . S
C1292 C1294 1.381 . S
C1292 C1298 1.383 . S
C1293 C1289 1.495 . S
C1293 H1299 0.959 . S
C1293 H1300 0.961 . S
C1293 H1301 0.960 . S
C1294 C1292 1.381 . S
C1294 C1295 1.394 . S
C1294 H1302 0.930 . S
C1295 C1294 1.394 . S
C1295 C1296 1.383 . S
C1295 H1303 0.929 . S
C1296 C1295 1.383 . S
C1296 C1297 1.377 . S
C1297 H1281 0.930 . S
C1297 C1296 1.377 . S
C1297 C1298 1.379 . S
C1298 H1282 0.931 . S
C1298 C1292 1.383 . S
C1298 C1297 1.379 . S
H1299 C1293 0.959 . S
H1300 C1293 0.961 . S
H1301 C1293 0.960 . S
H1302 C1294 0.930 . S
H1303 C1295 0.929 . S
H1304 C1312 0.929 . S
H1305 C1314 0.930 . S
H1306 C1316 0.930 . S
H1307 C1319 0.929 . S
H1308 C1322 0.930 . S
H1309 C1324 0.960 . S
H1310 C1324 0.960 . S
H1311 C1324 0.960 . S
C1312 H1304 0.929 . S
C1312 C1313 1.377 . S
C1312 C1314 1.384 . S
C1313 C1312 1.377 . S
C1313 C1319 1.390 . S
C1314 H1305 0.930 . S
C1314 C1312 1.384 . S
C1314 C1315 1.372 . S
C1315 C1314 1.372 . S
C1315 C1316 1.400 . S
C1315 C1320 1.490 . S
C1316 H1306 0.930 . S
C1316 C1315 1.400 . S
C1316 C1319 1.386 . S
H1317 C1333 0.930 . S
H1318 C1334 0.931 . S
C1319 H1307 0.929 . S
C1319 C1313 1.390 . S
C1319 C1316 1.386 . S
C1320 C1315 1.490 . S
C1320 C1322 1.395 . S
C1320 C1323 1.403 . S
H1321 C1327 0.930 . S
C1322 H1308 0.930 . S
C1322 C1320 1.395 . S
C1322 C1325 1.403 . S
C1323 C1320 1.403 . S
C1323 C1324 1.524 . S
C1323 C1327 1.400 . S
C1324 H1309 0.960 . S
C1324 H1310 0.960 . S
C1324 H1311 0.960 . S
C1324 C1323 1.524 . S
C1325 C1322 1.403 . S
C1325 C1326 1.392 . S
C1325 C1329 1.495 . S
C1326 C1325 1.392 . S
C1326 C1327 1.385 . S
C1326 C1328 1.478 . S
C1327 H1321 0.930 . S
C1327 C1323 1.400 . S
C1327 C1326 1.385 . S
C1328 C1326 1.478 . S
C1328 C1330 1.381 . S
C1328 C1334 1.383 . S
C1329 C1325 1.495 . S
C1329 H1335 0.959 . S
C1329 H1336 0.961 . S
C1329 H1337 0.960 . S
C1330 C1328 1.381 . S
C1330 C1331 1.394 . S
C1330 H1338 0.930 . S
C1331 C1330 1.394 . S
C1331 C1332 1.383 . S
C1331 H1339 0.929 . S
C1332 C1331 1.383 . S
C1332 C1333 1.377 . S
C1333 H1317 0.930 . S
C1333 C1332 1.377 . S
C1333 C1334 1.379 . S
C1334 H1318 0.931 . S
C1334 C1328 1.383 . S
C1334 C1333 1.379 . S
H1335 C1329 0.959 . S
H1336 C1329 0.961 . S
H1337 C1329 0.960 . S
H1338 C1330 0.930 . S
H1339 C1331 0.929 . S
H1340 C1348 0.929 . S
H1341 C1350 0.930 . S
H1342 C1352 0.930 . S
H1343 C1355 0.929 . S
H1344 C1358 0.930 . S
H1345 C1360 0.960 . S
H1346 C1360 0.960 . S
H1347 C1360 0.960 . S
C1348 H1340 0.929 . S
C1348 C1349 1.377 . S
C1348 C1350 1.384 . S
C1349 C1348 1.377 . S
C1349 C1355 1.390 . S
C1350 H1341 0.930 . S
C1350 C1348 1.384 . S
C1350 C1351 1.372 . S
C1351 C1350 1.372 . S
C1351 C1352 1.400 . S
C1351 C1356 1.490 . S
C1352 H1342 0.930 . S
C1352 C1351 1.400 . S
C1352 C1355 1.386 . S
H1353 C1369 0.930 . S
H1354 C1370 0.931 . S
C1355 H1343 0.929 . S
C1355 C1349 1.390 . S
C1355 C1352 1.386 . S
C1356 C1351 1.490 . S
C1356 C1358 1.395 . S
C1356 C1359 1.403 . S
H1357 C1363 0.930 . S
C1358 H1344 0.930 . S
C1358 C1356 1.395 . S
C1358 C1361 1.403 . S
C1359 C1356 1.403 . S
C1359 C1360 1.524 . S
C1359 C1363 1.400 . S
C1360 H1345 0.960 . S
C1360 H1346 0.960 . S
C1360 H1347 0.960 . S
C1360 C1359 1.524 . S
C1361 C1358 1.403 . S
C1361 C1362 1.392 . S
C1361 C1365 1.495 . S
C1362 C1361 1.392 . S
C1362 C1363 1.385 . S
C1362 C1364 1.478 . S
C1363 H1357 0.930 . S
C1363 C1359 1.400 . S
C1363 C1362 1.385 . S
C1364 C1362 1.478 . S
C1364 C1366 1.381 . S
C1364 C1370 1.383 . S
C1365 C1361 1.495 . S
C1365 H1371 0.959 . S
C1365 H1372 0.961 . S
C1365 H1373 0.960 . S
C1366 C1364 1.381 . S
C1366 C1367 1.394 . S
C1366 H1374 0.930 . S
C1367 C1366 1.394 . S
C1367 C1368 1.383 . S
C1367 H1375 0.929 . S
C1368 C1367 1.383 . S
C1368 C1369 1.377 . S
C1369 H1353 0.930 . S
C1369 C1368 1.377 . S
C1369 C1370 1.379 . S
C1370 H1354 0.931 . S
C1370 C1364 1.383 . S
C1370 C1369 1.379 . S
H1371 C1365 0.959 . S
H1372 C1365 0.961 . S
H1373 C1365 0.960 . S
H1374 C1366 0.930 . S
H1375 C1367 0.929 . S
C233 C146 1.313 . S
C252 C6 1.313 . S
C269 C20 1.309 . S
C288 C160 1.287 . S
C305 C118 1.318 . S
C324 C34 1.334 . S
C341 C132 1.312 . S
C360 C48 1.294 . S
C377 C62 1.319 . S
C396 C202 1.332 . S
C413 C216 1.315 . S
C432 C76 1.322 . S
C449 C90 1.309 . S
C468 C174 1.287 . S
C485 C188 1.316 . S
C504 C104 1.313 . S
C521 C149 1.798 . S
C540 C9 1.777 . S
C557 C23 1.798 . S
C576 C163 1.799 . S
C593 C37 1.798 . S
C612 C121 1.777 . S
C629 C51 1.798 . S
C648 C135 1.801 . S
C665 C65 1.796 . S
C684 C205 1.807 . S
C701 C79 1.793 . S
C720 C219 1.799 . S
C737 C177 1.799 . S
C756 C93 1.777 . S
C773 C191 1.795 . S
C792 C107 1.808 . S
C809 C8 1.120 . S
C828 C92 1.107 . S
C845 C22 1.135 . S
C864 C106 1.156 . S
C881 C36 1.133 . S
C900 C64 1.106 . S
C917 C50 1.121 . S
C936 C78 1.099 . S
C953 C120 1.129 . S
C972 C204 1.163 . S
C989 C218 1.129 . S
C1008 C134 1.091 . S
C1025 C148 1.129 . S
C1044 C176 1.163 . S
C1061 C190 1.124 . S
C1080 C162 1.151 . S
C1097 C7 1.307 . S
C1116 C217 1.311 . S
C1133 C175 1.302 . S
C1152 C21 1.290 . S
C1169 C189 1.306 . S
C1188 C35 1.312 . S
C1205 C203 1.304 . S
C1224 C49 1.306 . S
C1241 C133 1.302 . S
C1260 C63 1.300 . S
C1277 C147 1.305 . S
C1296 C77 1.312 . S
C1313 C91 1.304 . S
C1332 C161 1.306 . S
C1349 C105 1.305 . S
C1368 C119 1.311 . S
