# Generated by pormake.
# Topology sod, (4)-cn, num edge types: 1
# Building blocks:
#     Node 0, Type 0, BuildingBlock: GALJAG_clean_sbu_0, # of connection points: 4
#     Node 1, Type 0, BuildingBlock: GALJAG_clean_sbu_0, # of connection points: 4
#     Node 2, Type 0, BuildingBlock: GALJAG_clean_sbu_0, # of connection points: 4
#     Node 3, Type 0, BuildingBlock: GALJAG_clean_sbu_0, # of connection points: 4
#     Node 4, Type 0, BuildingBlock: GALJAG_clean_sbu_0, # of connection points: 4
#     Node 5, Type 0, BuildingBlock: GALJAG_clean_sbu_0, # of connection points: 4
#     Node 6, Type 0, BuildingBlock: GALJAG_clean_sbu_0, # of connection points: 4
#     Node 7, Type 0, BuildingBlock: GALJAG_clean_sbu_0, # of connection points: 4
#     Node 8, Type 0, BuildingBlock: GALJAG_clean_sbu_0, # of connection points: 4
#     Node 9, Type 0, BuildingBlock: GALJAG_clean_sbu_0, # of connection points: 4
#     Node 10, Type 0, BuildingBlock: GALJAG_clean_sbu_0, # of connection points: 4
#     Node 11, Type 0, BuildingBlock: GALJAG_clean_sbu_0, # of connection points: 4
#     Edge 12, Type (0, 0), BuildingBlock: XUDNAN_clean_linker_2, # of connection points: 2
#     Edge 13, Type (0, 0), BuildingBlock: XUDNAN_clean_linker_2, # of connection points: 2
#     Edge 14, Type (0, 0), BuildingBlock: XUDNAN_clean_linker_2, # of connection points: 2
#     Edge 15, Type (0, 0), BuildingBlock: XUDNAN_clean_linker_2, # of connection points: 2
#     Edge 16, Type (0, 0), BuildingBlock: XUDNAN_clean_linker_2, # of connection points: 2
#     Edge 17, Type (0, 0), BuildingBlock: XUDNAN_clean_linker_2, # of connection points: 2
#     Edge 18, Type (0, 0), BuildingBlock: XUDNAN_clean_linker_2, # of connection points: 2
#     Edge 19, Type (0, 0), BuildingBlock: XUDNAN_clean_linker_2, # of connection points: 2
#     Edge 20, Type (0, 0), BuildingBlock: XUDNAN_clean_linker_2, # of connection points: 2
#     Edge 21, Type (0, 0), BuildingBlock: XUDNAN_clean_linker_2, # of connection points: 2
#     Edge 22, Type (0, 0), BuildingBlock: XUDNAN_clean_linker_2, # of connection points: 2
#     Edge 23, Type (0, 0), BuildingBlock: XUDNAN_clean_linker_2, # of connection points: 2
#     Edge 24, Type (0, 0), BuildingBlock: XUDNAN_clean_linker_2, # of connection points: 2
#     Edge 25, Type (0, 0), BuildingBlock: XUDNAN_clean_linker_2, # of connection points: 2
#     Edge 26, Type (0, 0), BuildingBlock: XUDNAN_clean_linker_2, # of connection points: 2
#     Edge 27, Type (0, 0), BuildingBlock: XUDNAN_clean_linker_2, # of connection points: 2
#     Edge 28, Type (0, 0), BuildingBlock: XUDNAN_clean_linker_2, # of connection points: 2
#     Edge 29, Type (0, 0), BuildingBlock: XUDNAN_clean_linker_2, # of connection points: 2
#     Edge 30, Type (0, 0), BuildingBlock: XUDNAN_clean_linker_2, # of connection points: 2
#     Edge 31, Type (0, 0), BuildingBlock: XUDNAN_clean_linker_2, # of connection points: 2
#     Edge 32, Type (0, 0), BuildingBlock: XUDNAN_clean_linker_2, # of connection points: 2
#     Edge 33, Type (0, 0), BuildingBlock: XUDNAN_clean_linker_2, # of connection points: 2
#     Edge 34, Type (0, 0), BuildingBlock: XUDNAN_clean_linker_2, # of connection points: 2
#     Edge 35, Type (0, 0), BuildingBlock: XUDNAN_clean_linker_2, # of connection points: 2
# Relax obj value: 0.078
# Max RMSD: 0.153
# Mean RMSD: 0.153
data_MOF--net-sod--node1-GALJAG_clean_sbu_0--edge1-XUDNAN_clean_linker_2
_symmetry_space_group_name_H-M    P1
_symmetry_Int_Tables_number       1
_symmetry_cell_setting            triclinic
loop_
_symmetry_equiv_pos_as_xyz
'x, y, z'
_cell_length_a     42.80604
_cell_length_b     42.755029
_cell_length_c     42.797178
_cell_angle_alpha  89.997652
_cell_angle_beta   89.936952
_cell_angle_gamma 89.937562
loop_
_atom_site_label
_atom_site_type_symbol
_atom_site_fract_x
_atom_site_fract_y
_atom_site_fract_z
_atom_type_partial_charge
In0 In 0.00673 0.25498 0.49689 0.0
O1 O 0.9729 0.21719 0.51319 0.0
O2 O 0.96375 0.23914 0.46953 0.0
C3 C 1.00312 0.28731 0.55142 0.0
C4 C 0.05133 0.21068 0.48797 0.0
C5 C 0.01471 0.30215 0.45543 0.0
O6 O 0.98049 0.27238 0.54008 0.0
O7 O 0.02782 0.28594 0.53544 0.0
O8 O 0.03701 0.28862 0.4691 0.0
O9 O 0.98796 0.29211 0.46279 0.0
C10 C 0.9554 0.21907 0.48953 0.0
O11 O 0.03563 0.22257 0.46612 0.0
O12 O 0.04464 0.22107 0.51476 0.0
In13 In 0.75956 0.00576 0.50755 0.0
O14 O 0.7318 0.97452 0.54033 0.0
O15 O 0.72632 0.02347 0.54614 0.0
C16 C 0.80911 0.96733 0.51594 0.0
C17 C 0.71997 0.99608 0.45952 0.0
C18 C 0.79133 0.05957 0.49733 0.0
O19 O 0.79871 0.98513 0.537 0.0
O20 O 0.7945 0.96878 0.49038 0.0
O21 O 0.78075 0.04285 0.47556 0.0
O22 O 0.78528 0.04966 0.52442 0.0
C23 C 0.71877 0.99638 0.55516 0.0
O24 O 0.71985 0.02104 0.47533 0.0
O25 O 0.7401 0.97616 0.46789 0.0
In26 In 0.01067 0.75586 0.51272 0.0
O27 O 0.02798 0.71752 0.54642 0.0
O28 O 0.98022 0.73036 0.54802 0.0
C29 C 0.06591 0.78647 0.50955 0.0
C30 C 0.99904 0.71943 0.46253 0.0
C31 C 0.97303 0.80637 0.51837 0.0
O32 O 0.05057 0.78397 0.53455 0.0
O33 O 0.05373 0.77323 0.48626 0.0
O34 O 0.97736 0.79289 0.49245 0.0
O35 O 0.98774 0.79449 0.54094 0.0
C36 C 1.00159 0.71329 0.55882 0.0
O37 O 0.97834 0.73629 0.47518 0.0
O38 O 0.02567 0.72113 0.47504 0.0
In39 In 0.25769 1.0027 0.49772 0.0
O40 O 0.2527 0.95035 0.48947 0.0
O41 O 0.21823 0.97216 0.51765 0.0
C42 C 0.29482 1.00056 0.44655 0.0
C43 C 0.21399 0.0478 0.4881 0.0
C44 C 0.29724 0.01367 0.5458 0.0
O45 O 0.26757 0.98939 0.44704 0.0
O46 O 0.30329 0.01327 0.47176 0.0
O47 O 0.2866 0.03503 0.52848 0.0
O48 O 0.28748 0.9866 0.53932 0.0
C49 C 0.22777 0.94735 0.50481 0.0
O50 O 0.22041 0.03755 0.51495 0.0
O51 O 0.22954 0.03541 0.46638 0.0
In52 In 0.51346 0.00652 0.25331 0.0
O53 O 0.54695 0.97496 0.28012 0.0
O54 O 0.54993 0.02376 0.28858 0.0
C55 C 0.52183 0.96501 0.20641 0.0
C56 C 0.46222 0.99965 0.28937 0.0
C57 C 0.50598 0.0608 0.22127 0.0
O58 O 0.54011 0.98758 0.21127 0.0
O59 O 0.49929 0.96317 0.22535 0.0
O60 O 0.48379 0.0468 0.23452 0.0
O61 O 0.53224 0.04798 0.22479 0.0
C62 C 0.5602 0.99679 0.29477 0.0
O63 O 0.4851 0.01645 0.29742 0.0
O64 O 0.4653 0.98624 0.26325 0.0
In65 In 1.00228 0.51492 0.2546 0.0
O66 O 0.95773 0.49993 0.22907 0.0
O67 O 0.97621 0.5453 0.21995 0.0
C68 C 0.01191 0.46815 0.29606 0.0
C69 C 0.04561 0.50435 0.20996 0.0
C70 C 0.99455 0.56276 0.29498 0.0
O71 O 0.98567 0.47243 0.28321 0.0
O72 O 0.03284 0.48714 0.28776 0.0
O73 O 0.02034 0.55783 0.28137 0.0
O74 O 0.97312 0.54377 0.2881 0.0
C75 C 0.95534 0.52532 0.21403 0.0
O76 O 0.0466 0.5284 0.22718 0.0
O77 O 0.02342 0.48588 0.21585 0.0
In78 In 0.50374 0.00456 0.75228 0.0
O79 O 0.54861 0.02078 0.72753 0.0
O80 O 0.53565 0.97315 0.72327 0.0
C81 C 0.50063 0.05458 0.79113 0.0
C82 C 0.46157 0.01322 0.70608 0.0
C83 C 0.49244 0.95734 0.793 0.0
O84 O 0.52454 0.03732 0.78981 0.0
O85 O 0.4787 0.04634 0.7734 0.0
O86 O 0.47115 0.97068 0.77757 0.0
O87 O 0.51951 0.96794 0.7881 0.0
C88 C 0.55477 0.99433 0.71601 0.0
O89 O 0.46389 0.98762 0.72064 0.0
O90 O 0.4807 0.03396 0.71455 0.0
In91 In 1.00247 0.49576 0.75455 0.0
O92 O 0.04467 0.48022 0.78413 0.0
O93 O 0.03479 0.52868 0.78103 0.0
C94 C 1.0035 0.44201 0.72053 0.0
C95 C 0.95067 0.49412 0.79072 0.0
C96 C 0.99576 0.54455 0.71474 0.0
O97 O 0.02092 0.46493 0.71442 0.0
O98 O 0.98633 0.44588 0.74409 0.0
O99 O 0.97672 0.53859 0.73638 0.0
O100 O 0.0185 0.52584 0.71295 0.0
C101 C 0.05224 0.50764 0.79195 0.0
O102 O 0.94988 0.49814 0.76151 0.0
O103 O 0.97776 0.49052 0.80191 0.0
In104 In 0.25192 0.50551 1.00221 0.0
O105 O 0.22696 0.51891 0.04788 0.0
O106 O 0.20701 0.4833 0.01957 0.0
C107 C 0.2902 0.45483 0.00635 0.0
C108 C 0.21766 0.51565 0.94991 0.0
C109 C 0.2909 0.55419 0.01212 0.0
O110 O 0.2946 0.47644 0.98688 0.0
O111 O 0.26678 0.45876 0.02367 0.0
O112 O 0.28876 0.54054 0.98607 0.0
O113 O 0.27338 0.54329 0.03323 0.0
C114 C 0.20508 0.49943 0.04419 0.0
O115 O 0.22354 0.53679 0.96955 0.0
O116 O 0.22969 0.48947 0.95615 0.0
In117 In 0.50391 0.25519 0.00382 0.0
O118 O 0.52014 0.21456 0.03495 0.0
O119 O 0.47988 0.24004 0.04882 0.0
C120 C 0.55531 0.29162 0.01042 0.0
C121 C 0.50246 0.21937 0.95122 0.0
C122 C 0.45287 0.29241 0.00505 0.0
O123 O 0.54212 0.27805 0.03294 0.0
O124 O 0.54259 0.28701 0.98426 0.0
O125 O 0.45161 0.26311 0.00849 0.0
O126 O 0.48002 0.30316 1.00069 0.0
C127 C 0.49856 0.21805 0.05478 0.0
O128 O 0.48576 0.24329 0.95503 0.0
O129 O 0.52042 0.21354 0.97375 0.0
In130 In 0.75296 0.5052 0.00541 0.0
O131 O 0.71882 0.46851 0.98595 0.0
O132 O 0.73699 0.46144 0.03135 0.0
C133 C 0.7877 0.50076 0.95251 0.0
C134 C 0.70972 0.55063 0.01498 0.0
C135 C 0.79674 0.51932 0.0485 0.0
O136 O 0.79689 0.49045 0.9785 0.0
O137 O 0.76089 0.51296 0.95305 0.0
O138 O 0.78535 0.53964 0.03031 0.0
O139 O 0.78627 0.49201 0.04466 0.0
C140 C 0.71925 0.45164 0.01008 0.0
O141 O 0.71596 0.52982 0.03486 0.0
O142 O 0.72543 0.54882 0.99011 0.0
In143 In 0.50134 0.75626 1.00333 0.0
O144 O 0.45877 0.73937 0.03029 0.0
O145 O 0.46925 0.71655 0.98736 0.0
C146 C 0.51367 0.80326 0.04371 0.0
C147 C 0.54702 0.71334 0.01257 0.0
C148 C 0.49085 0.79104 0.95138 0.0
O149 O 0.48852 0.78792 0.04448 0.0
O150 O 0.53253 0.79487 0.02266 0.0
O151 O 0.51761 0.78082 0.95839 0.0
O152 O 0.46947 0.78291 0.96992 0.0
C153 C 0.45154 0.71829 0.01095 0.0
O154 O 0.53958 0.7226 0.98554 0.0
O155 O 0.53169 0.72584 0.03438 0.0
H156 H 0.97106 0.3325 0.41896 0.0
H157 H 0.07028 0.32863 0.43958 0.0
H158 H 0.07999 0.37003 0.40072 0.0
H159 H 0.97926 0.34498 0.33591 0.0
H160 H 0.94661 0.37149 0.33324 0.0
H161 H 0.9471 0.34162 0.36293 0.0
H162 H 0.93959 0.38383 0.40571 0.0
H163 H 0.93898 0.41382 0.37615 0.0
H164 H 0.96655 0.41613 0.40787 0.0
H165 H 0.07928 0.41178 0.36036 0.0
H166 H 0.06821 0.45179 0.32044 0.0
H167 H 0.96953 0.42875 0.32463 0.0
C168 C 0.99479 0.34045 0.41531 0.0
C169 C 0.01993 0.32737 0.43233 0.0
C170 C 0.05067 0.33829 0.42683 0.0
C171 C 0.05644 0.3618 0.40479 0.0
C172 C 0.03124 0.37412 0.38834 0.0
C173 C 1.00102 0.3639 0.39323 0.0
C174 C 0.97825 0.38117 0.37221 0.0
C175 C 0.96184 0.35845 0.34974 0.0
C176 C 0.95444 0.39985 0.39165 0.0
C177 C 1.00043 0.4027 0.35484 0.0
C178 C 0.03087 0.39819 0.36461 0.0
C179 C 0.05556 0.41551 0.35245 0.0
C180 C 0.04902 0.43819 0.32978 0.0
C181 C 0.01803 0.44334 0.31937 0.0
C182 C 0.99346 0.42521 0.33201 0.0
H183 H 0.67868 0.03755 0.43317 0.0
H184 H 0.7119 0.9418 0.42698 0.0
H185 H 0.6749 0.93178 0.38389 0.0
H186 H 0.59793 0.02141 0.41792 0.0
H187 H 0.59182 0.05617 0.39488 0.0
H188 H 0.62101 0.05591 0.42514 0.0
H189 H 0.6631 0.07248 0.38487 0.0
H190 H 0.63402 0.07282 0.35447 0.0
H191 H 0.66877 0.04936 0.35009 0.0
H192 H 0.63345 0.9317 0.34261 0.0
H193 H 0.59139 0.94203 0.30453 0.0
H194 H 0.58604 0.03828 0.33635 0.0
C195 C 0.67817 0.01449 0.42271 0.0
C196 C 0.6981 0.99041 0.43343 0.0
C197 C 0.69685 0.96058 0.4191 0.0
C198 C 0.67591 0.95466 0.39465 0.0
C199 C 0.65653 0.97888 0.38467 0.0
C200 C 0.65756 0.00824 0.39811 0.0
C201 C 0.6343 0.0302 0.38286 0.0
C202 C 0.60981 0.04158 0.40662 0.0
C203 C 0.65106 0.05784 0.36713 0.0
C204 C 0.61991 0.00852 0.35886 0.0
C205 C 0.63301 0.979 0.3604 0.0
C206 C 0.62312 0.95476 0.34106 0.0
C207 C 0.5992 0.96085 0.31956 0.0
C208 C 0.58557 0.99097 0.31743 0.0
C209 C 0.59619 0.01509 0.33731 0.0
H210 H 0.03871 0.59598 0.32773 0.0
H211 H 0.93877 0.58674 0.3137 0.0
H212 H 0.92928 0.6278 0.35312 0.0
H213 H 0.03467 0.60515 0.41018 0.0
H214 H 0.06617 0.63301 0.41248 0.0
H215 H 0.06538 0.60473 0.38132 0.0
H216 H 0.06841 0.64941 0.34051 0.0
H217 H 0.06926 0.67784 0.37158 0.0
H218 H 0.03988 0.68044 0.34155 0.0
H219 H 0.93038 0.66874 0.39479 0.0
H220 H 0.94198 0.70525 0.43796 0.0
H221 H 0.04105 0.6865 0.42686 0.0
C222 C 0.01489 0.60297 0.33268 0.0
C223 C 0.98946 0.58841 0.31754 0.0
C224 C 0.95857 0.59768 0.32502 0.0
C225 C 0.95295 0.62103 0.34729 0.0
C226 C 0.97846 0.63472 0.36207 0.0
C227 C 0.00882 0.62598 0.35523 0.0
C228 C 0.0319 0.64317 0.37586 0.0
C229 C 0.05062 0.62014 0.39616 0.0
C230 C 0.05364 0.66395 0.35619 0.0
C231 C 0.00973 0.66269 0.39548 0.0
C232 C 0.97904 0.65771 0.38688 0.0
C233 C 0.95433 0.6729 0.40172 0.0
C234 C 0.96114 0.6936 0.42618 0.0
C235 C 0.99237 0.69865 0.43576 0.0
C236 C 0.01693 0.68306 0.42005 0.0
H237 H 0.35394 0.02423 0.43951 0.0
H238 H 0.28236 0.97095 0.39143 0.0
H239 H 0.31738 0.96503 0.34589 0.0
H240 H 0.3825 0.06557 0.37141 0.0
H241 H 0.4227 0.06428 0.38385 0.0
H242 H 0.39182 0.06462 0.41247 0.0
H243 H 0.4138 0.01365 0.43682 0.0
H244 H 0.44468 0.01309 0.40821 0.0
H245 H 0.41934 0.97971 0.41243 0.0
H246 H 0.36061 0.96375 0.30619 0.0
H247 H 0.40853 0.96864 0.27434 0.0
H248 H 0.45168 0.02335 0.34799 0.0
C249 C 0.34559 0.01144 0.41934 0.0
C250 C 0.31544 0.99804 0.41896 0.0
C251 C 0.30536 0.98145 0.39217 0.0
C252 C 0.32509 0.97793 0.36622 0.0
C253 C 0.35475 0.99124 0.36741 0.0
C254 C 0.36494 0.00779 0.3932 0.0
C255 C 0.39792 0.01972 0.38852 0.0
C256 C 0.39877 0.05568 0.38909 0.0
C257 C 0.42025 0.0057 0.41295 0.0
C258 C 0.40475 0.00716 0.35614 0.0
C259 C 0.37957 0.99075 0.34441 0.0
C260 C 0.38045 0.97664 0.31508 0.0
C261 C 0.40777 0.9795 0.29719 0.0
C262 C 0.43377 0.9964 0.30868 0.0
C263 C 0.43214 0.01035 0.33856 0.0
H264 H 0.03618 0.56628 0.66958 0.0
H265 H 0.94555 0.58351 0.71191 0.0
H266 H 0.93761 0.62849 0.67677 0.0
H267 H 0.05739 0.6474 0.65994 0.0
H268 H 0.07658 0.64142 0.6229 0.0
H269 H 0.0752 0.61019 0.65113 0.0
H270 H 0.04959 0.57389 0.61003 0.0
H271 H 0.05092 0.60499 0.58167 0.0
H272 H 0.01429 0.58629 0.5907 0.0
H273 H 0.93879 0.6707 0.63686 0.0
H274 H 0.94963 0.70891 0.5951 0.0
H275 H 0.04016 0.66588 0.57915 0.0
C276 C 0.01467 0.57952 0.67139 0.0
C277 C 0.99143 0.57138 0.69342 0.0
C278 C 0.96366 0.58932 0.6952 0.0
C279 C 0.95891 0.6149 0.67534 0.0
C280 C 0.98223 0.62235 0.65391 0.0
C281 C 0.00962 0.60533 0.65182 0.0
C282 C 0.03097 0.6186 0.62681 0.0
C283 C 0.06186 0.63009 0.64106 0.0
C284 C 0.03677 0.59451 0.60076 0.0
C285 C 0.01125 0.6457 0.61523 0.0
C286 C 0.98318 0.64727 0.63113 0.0
C287 C 0.96073 0.66982 0.6243 0.0
C288 C 0.96709 0.69138 0.60052 0.0
C289 C 0.99576 0.69041 0.58399 0.0
C290 C 0.01815 0.6673 0.59156 0.0
H291 H 0.42098 0.97108 0.67938 0.0
H292 H 0.44837 0.06881 0.67799 0.0
H293 H 0.40811 0.07964 0.63825 0.0
H294 H 0.40692 0.96457 0.5967 0.0
H295 H 0.37386 0.93886 0.60101 0.0
H296 H 0.40435 0.93883 0.62997 0.0
H297 H 0.36338 0.9501 0.67316 0.0
H298 H 0.33277 0.9503 0.64429 0.0
H299 H 0.33808 0.98364 0.66951 0.0
H300 H 0.36511 0.08015 0.59898 0.0
H301 H 0.32358 0.06977 0.56047 0.0
H302 H 0.32436 0.97153 0.58614 0.0
C303 C 0.41845 0.99475 0.67071 0.0
C304 C 0.43775 0.01914 0.6818 0.0
C305 C 0.43386 0.04977 0.6698 0.0
C306 C 0.411 0.05618 0.64729 0.0
C307 C 0.39229 0.03169 0.63691 0.0
C308 C 0.39583 1.00155 0.64803 0.0
C309 C 0.3731 0.9794 0.63229 0.0
C310 C 0.39061 0.95391 0.6139 0.0
C311 C 0.35049 0.96502 0.65625 0.0
C312 C 0.35631 1.00183 0.61058 0.0
C313 C 0.36765 0.0319 0.61381 0.0
C314 C 0.35602 0.0567 0.59622 0.0
C315 C 0.3324 0.05058 0.57444 0.0
C316 C 0.32073 0.01987 0.57033 0.0
C317 C 0.33276 0.99526 0.58884 0.0
H318 H 0.04026 0.33566 0.57128 0.0
H319 H 0.95955 0.28011 0.59724 0.0
H320 H 0.9535 0.31133 0.64544 0.0
H321 H 0.07081 0.34855 0.65023 0.0
H322 H 0.08206 0.38837 0.64223 0.0
H323 H 0.08187 0.35989 0.61118 0.0
H324 H 0.0449 0.39534 0.57886 0.0
H325 H 0.04499 0.4239 0.60976 0.0
H326 H 0.00851 0.4082 0.59582 0.0
H327 H 0.95507 0.3494 0.68976 0.0
H328 H 0.96187 0.39408 0.72558 0.0
H329 H 0.04005 0.4268 0.66983 0.0
C330 C 0.02163 0.32981 0.58739 0.0
C331 C 1.00052 0.30531 0.58077 0.0
C332 C 0.97601 0.29874 0.60198 0.0
C333 C 0.97247 0.31625 0.62945 0.0
C334 C 0.99348 0.34043 0.63522 0.0
C335 C 0.01745 0.34741 0.61471 0.0
C336 C 0.0354 0.37605 0.62538 0.0
C337 C 0.06956 0.36771 0.63269 0.0
C338 C 0.03331 0.40243 0.60101 0.0
C339 C 0.01754 0.38426 0.65487 0.0
C340 C 0.99374 0.36312 0.66032 0.0
C341 C 0.97369 0.36604 0.68581 0.0
C342 C 0.97777 0.39148 0.70605 0.0
C343 C 1.00149 0.41389 0.70051 0.0
C344 C 0.02179 0.40997 0.67472 0.0
H345 H 0.59157 0.03789 0.68631 0.0
H346 H 0.57719 0.93795 0.6966 0.0
H347 H 0.61917 0.9279 0.65833 0.0
H348 H 0.60415 0.03663 0.60432 0.0
H349 H 0.63365 0.06668 0.60435 0.0
H350 H 0.60411 0.06623 0.63433 0.0
H351 H 0.64702 0.06527 0.67696 0.0
H352 H 0.67672 0.06585 0.64709 0.0
H353 H 0.67654 0.03517 0.67599 0.0
H354 H 0.66086 0.9285 0.61767 0.0
H355 H 0.69953 0.9396 0.57646 0.0
H356 H 0.68667 0.03927 0.59118 0.0
C357 C 0.59761 0.01391 0.68082 0.0
C358 C 0.58128 0.98866 0.69456 0.0
C359 C 0.58946 0.95761 0.68642 0.0
C360 C 0.61329 0.95168 0.66474 0.0
C361 C 0.62867 0.97704 0.65131 0.0
C362 C 0.62122 0.00755 0.65898 0.0
C363 C 0.64045 0.03051 0.63996 0.0
C364 C 0.61932 0.05123 0.61953 0.0
C365 C 0.66143 0.05037 0.66128 0.0
C366 C 0.65962 0.00811 0.62022 0.0
C367 C 0.65255 0.9774 0.62736 0.0
C368 C 0.66671 0.95245 0.61196 0.0
C369 C 0.68864 0.95901 0.58856 0.0
C370 C 0.69615 0.99029 0.58062 0.0
C371 C 0.68148 0.01513 0.5968 0.0
H372 H 0.44701 0.35433 0.98857 0.0
H373 H 0.39519 0.2755 0.02588 0.0
H374 H 0.34816 0.30862 0.03045 0.0
H375 H 0.41132 0.41378 0.03632 0.0
H376 H 0.41035 0.44267 0.00566 0.0
H377 H 0.44019 0.41294 0.00563 0.0
H378 H 0.42383 0.39623 0.94981 0.0
H379 H 0.39397 0.42594 0.94965 0.0
H380 H 0.38376 0.38572 0.9423 0.0
H381 H 0.30748 0.35059 0.03311 0.0
H382 H 0.27444 0.39791 0.0299 0.0
H383 H 0.35133 0.44886 0.98784 0.0
C384 C 0.42574 0.34409 0.99768 0.0
C385 C 0.42473 0.31239 0.00698 0.0
C386 C 0.39646 0.29973 0.0186 0.0
C387 C 0.36965 0.31837 0.02136 0.0
C388 C 0.3714 0.34954 0.0121 0.0
C389 C 0.3986 0.36229 1.00021 0.0
C390 C 0.39393 0.39632 0.99139 0.0
C391 C 0.41521 0.41768 0.01092 0.0
C392 C 0.39918 0.40133 0.95619 0.0
C393 C 0.35988 0.40067 1.00016 0.0
C394 C 0.34748 0.37347 0.01243 0.0
C395 C 0.31683 0.37195 0.02331 0.0
C396 C 0.29829 0.39893 0.02148 0.0
C397 C 0.3103 0.42686 0.00842 0.0
C398 C 0.34147 0.42766 0.99757 0.0
H399 H 0.33606 0.57665 0.97262 0.0
H400 H 0.29401 0.59177 0.0637 0.0
H401 H 0.32967 0.6363 0.07269 0.0
H402 H 0.41472 0.59335 0.99588 0.0
H403 H 0.42491 0.61242 0.95973 0.0
H404 H 0.39544 0.5824 0.96009 0.0
H405 H 0.35603 0.62076 0.93467 0.0
H406 H 0.38538 0.65092 0.93427 0.0
H407 H 0.34834 0.6579 0.9531 0.0
H408 H 0.36996 0.67901 0.0718 0.0
H409 H 0.41327 0.71581 0.06195 0.0
H410 H 0.42988 0.67219 0.97186 0.0
C411 C 0.33427 0.58942 0.9944 0.0
C412 C 0.31221 0.58085 0.01745 0.0
C413 C 0.31075 0.59796 0.04574 0.0
C414 C 0.33085 0.6233 0.05102 0.0
C415 C 0.35236 0.63113 0.02784 0.0
C416 C 0.3543 0.61463 1.00014 0.0
C417 C 0.38003 0.62734 0.97938 0.0
C418 C 0.40527 0.60239 0.97343 0.0
C419 C 0.36663 0.63998 0.94853 0.0
C420 C 0.39229 0.65356 0.99974 0.0
C421 C 0.37589 0.65544 0.02752 0.0
C422 C 0.38297 0.67776 0.05014 0.0
C423 C 0.40759 0.69858 0.04431 0.0
C424 C 0.42494 0.69686 0.01616 0.0
C425 C 0.41703 0.67409 0.99359 0.0
H426 H 0.58077 0.33342 0.96878 0.0
H427 H 0.59218 0.29527 0.06205 0.0
H428 H 0.63758 0.32972 0.07057 0.0
H429 H 0.66388 0.34388 0.95124 0.0
H430 H 0.65779 0.38033 0.93096 0.0
H431 H 0.62755 0.35103 0.93118 0.0
H432 H 0.58843 0.39146 0.95374 0.0
H433 H 0.61851 0.42085 0.95357 0.0
H434 H 0.59802 0.41193 0.98929 0.0
H435 H 0.68017 0.36942 0.06994 0.0
H436 H 0.71615 0.41356 0.06104 0.0
H437 H 0.67671 0.42722 0.96862 0.0
C438 C 0.59311 0.33208 0.99082 0.0
C439 C 0.58312 0.31157 0.01472 0.0
C440 C 0.59949 0.31079 0.04343 0.0
C441 C 0.62536 0.33018 0.04845 0.0
C442 C 0.63449 0.35031 0.02456 0.0
C443 C 0.61885 0.35153 0.99635 0.0
C444 C 0.63246 0.37657 0.97526 0.0
C445 C 0.64624 0.36207 0.94539 0.0
C446 C 0.60789 0.40169 0.96753 0.0
C447 C 0.65792 0.38945 0.99621 0.0
C448 C 0.65885 0.37372 0.0244 0.0
C449 C 0.67981 0.38182 0.0479 0.0
C450 C 0.70014 0.40693 0.04261 0.0
C451 C 0.69926 0.42376 0.01413 0.0
C452 C 0.67805 0.41465 0.99054 0.0
H453 H 0.68348 0.59106 0.97233 0.0
H454 H 0.68153 0.56468 0.07025 0.0
H455 H 0.64073 0.60427 0.08013 0.0
H456 H 0.67073 0.67428 0.98357 0.0
H457 H 0.64581 0.67823 0.94987 0.0
H458 H 0.67577 0.64861 0.95052 0.0
H459 H 0.63422 0.60606 0.93931 0.0
H460 H 0.60413 0.63554 0.93866 0.0
H461 H 0.60079 0.6026 0.96474 0.0
H462 H 0.6003 0.6461 0.07962 0.0
H463 H 0.56108 0.68679 0.06853 0.0
H464 H 0.58743 0.68555 0.97053 0.0
C465 C 0.6746 0.59382 0.99587 0.0
C466 C 0.68575 0.57492 0.02059 0.0
C467 C 0.67333 0.57893 0.051 0.0
C468 C 0.6502 0.60138 0.05685 0.0
C469 C 0.63957 0.61952 0.03201 0.0
C470 C 0.65121 0.61597 1.00209 0.0
C471 C 0.6349 0.63789 0.97944 0.0
C472 C 0.6582 0.66113 0.96501 0.0
C473 C 0.61748 0.61941 0.95404 0.0
C474 C 0.61229 0.65425 1.00135 0.0
C475 C 0.6156 0.64337 0.03158 0.0
C476 C 0.59747 0.65481 0.05605 0.0
C477 C 0.57526 0.67795 0.0495 0.0
C478 C 0.57116 0.68932 0.01867 0.0
C479 C 0.59 0.67728 0.99431 0.0
H480 H 0.53417 0.82377 0.91713 0.0
H481 H 0.43453 0.80799 0.92694 0.0
H482 H 0.42427 0.84741 0.88602 0.0
H483 H 0.52922 0.90586 0.90807 0.0
H484 H 0.56044 0.90865 0.87992 0.0
H485 H 0.56026 0.87733 0.90803 0.0
H486 H 0.5633 0.83662 0.86328 0.0
H487 H 0.5637 0.86784 0.835 0.0
H488 H 0.53456 0.83754 0.83253 0.0
H489 H 0.42463 0.89011 0.84586 0.0
H490 H 0.43559 0.93331 0.80915 0.0
H491 H 0.53495 0.9225 0.82626 0.0
C492 C 0.51024 0.82823 0.91025 0.0
C493 C 0.48513 0.81265 0.92501 0.0
C494 C 0.4541 0.81955 0.91582 0.0
C495 C 0.44805 0.84189 0.8926 0.0
C496 C 0.47327 0.85723 0.87888 0.0
C497 C 0.50376 0.8507 0.88728 0.0
C498 C 0.52651 0.87165 0.86997 0.0
C499 C 0.5452 0.89208 0.89287 0.0
C500 C 0.5483 0.85225 0.84894 0.0
C501 C 0.50403 0.89116 0.85075 0.0
C502 C 0.47345 0.8823 0.8561 0.0
C503 C 0.44849 0.89716 0.84138 0.0
C504 C 0.45495 0.9217 0.82061 0.0
C505 C 0.48609 0.93128 0.81487 0.0
C506 C 0.51089 0.91571 0.83017 0.0
H507 H 0.18921 0.47122 0.91352 0.0
H508 H 0.1974 0.5715 0.92674 0.0
H509 H 0.15836 0.58022 0.88518 0.0
H510 H 0.17669 0.47257 0.82829 0.0
H511 H 0.14857 0.44124 0.8296 0.0
H512 H 0.17945 0.44295 0.85814 0.0
H513 H 0.13839 0.44156 0.90264 0.0
H514 H 0.10741 0.44004 0.87428 0.0
H515 H 0.10772 0.4705 0.90341 0.0
H516 H 0.11609 0.57808 0.84508 0.0
H517 H 0.07311 0.56534 0.80894 0.0
H518 H 0.09132 0.46632 0.82211 0.0
C519 C 0.18323 0.49502 0.90719 0.0
C520 C 0.19648 0.52073 0.92314 0.0
C521 C 0.18761 0.5515 0.91471 0.0
C522 C 0.1655 0.55667 0.89112 0.0
C523 C 0.15243 0.53082 0.87625 0.0
C524 C 0.16096 0.50059 0.88387 0.0
C525 C 0.14187 0.47692 0.86568 0.0
C526 C 0.16291 0.45726 0.84415 0.0
C527 C 0.12271 0.45604 0.88783 0.0
C528 C 0.12095 0.49858 0.84701 0.0
C529 C 0.12764 0.52957 0.85331 0.0
C530 C 0.1108 0.55392 0.83976 0.0
C531 C 0.08638 0.54643 0.81932 0.0
C532 C 0.07891 0.51485 0.81268 0.0
C533 C 0.09662 0.49067 0.82659 0.0
H534 H 0.53566 0.06984 0.84304 0.0
H535 H 0.45976 0.10259 0.78433 0.0
H536 H 0.45411 0.14944 0.81741 0.0
H537 H 0.50096 0.09387 0.91527 0.0
H538 H 0.53727 0.10528 0.93324 0.0
H539 H 0.53697 0.07519 0.90381 0.0
H540 H 0.57754 0.1063 0.87138 0.0
H541 H 0.57793 0.13653 0.90071 0.0
H542 H 0.56929 0.14624 0.86066 0.0
H543 H 0.4557 0.19201 0.85684 0.0
H544 H 0.4626 0.22678 0.90225 0.0
H545 H 0.53618 0.16622 0.93721 0.0
C546 C 0.5181 0.08707 0.83705 0.0
C547 C 0.49824 0.08271 0.81105 0.0
C548 C 0.47519 0.10547 0.80416 0.0
C549 C 0.47188 0.13222 0.82273 0.0
C550 C 0.49162 0.13579 0.84829 0.0
C551 C 0.51415 0.11382 0.85567 0.0
C552 C 0.53113 0.12271 0.88549 0.0
C553 C 0.52628 0.09778 0.91096 0.0
C554 C 0.56605 0.12828 0.87917 0.0
C555 C 0.5145 0.15299 0.89368 0.0
C556 C 0.492 0.16017 0.8717 0.0
C557 C 0.47327 0.1867 0.87422 0.0
C558 C 0.47739 0.20631 0.90009 0.0
C559 C 0.49991 0.19922 0.92325 0.0
C560 C 0.51884 0.17229 0.91982 0.0
H561 H 0.94537 0.4828 0.8538 0.0
H562 H 0.89134 0.5069 0.77147 0.0
H563 H 0.84357 0.50981 0.80366 0.0
H564 H 0.8857 0.43439 0.89041 0.0
H565 H 0.89507 0.44726 0.9294 0.0
H566 H 0.92498 0.44632 0.89976 0.0
H567 H 0.9367 0.50493 0.90966 0.0
H568 H 0.90681 0.50606 0.93928 0.0
H569 H 0.90543 0.5331 0.90699 0.0
H570 H 0.80213 0.51256 0.845 0.0
H571 H 0.76947 0.51322 0.89265 0.0
H572 H 0.84988 0.48587 0.94799 0.0
C573 C 0.92345 0.4885 0.84255 0.0
C574 C 0.92206 0.49463 0.81013 0.0
C575 C 0.89294 0.50205 0.79625 0.0
C576 C 0.86568 0.50378 0.81434 0.0
C577 C 0.86785 0.49781 0.84625 0.0
C578 C 0.89592 0.49013 0.86024 0.0
C579 C 0.89182 0.48511 0.89507 0.0
C580 C 0.89986 0.45125 0.90419 0.0
C581 C 0.91135 0.50871 0.91385 0.0
C582 C 0.85714 0.49149 0.89848 0.0
C583 C 0.84378 0.49882 0.87003 0.0
C584 C 0.81227 0.50661 0.86738 0.0
C585 C 0.79392 0.50697 0.89456 0.0
C586 C 0.80709 0.49942 0.92393 0.0
C587 C 0.83909 0.49143 0.92579 0.0
H588 H 0.54531 0.08433 0.17657 0.0
H589 H 0.45492 0.09892 0.22019 0.0
H590 H 0.44441 0.14257 0.18384 0.0
H591 H 0.56253 0.16677 0.15944 0.0
H592 H 0.58027 0.15783 0.12228 0.0
H593 H 0.58193 0.12976 0.15365 0.0
H594 H 0.55661 0.08811 0.11774 0.0
H595 H 0.55468 0.11607 0.08636 0.0
H596 H 0.5197 0.09651 0.09928 0.0
H597 H 0.44271 0.18289 0.14152 0.0
H598 H 0.44935 0.21662 0.09519 0.0
H599 H 0.53994 0.17444 0.07746 0.0
C600 C 0.52359 0.09714 0.17884 0.0
C601 C 0.50103 0.08853 0.20136 0.0
C602 C 0.47257 0.10531 0.20319 0.0
C603 C 0.46641 0.13013 0.18269 0.0
C604 C 0.4889 0.1377 0.16038 0.0
C605 C 0.51691 0.12172 0.15828 0.0
C606 C 0.53623 0.1333 0.13093 0.0
C607 C 0.56707 0.14778 0.14226 0.0
C608 C 0.54214 0.10692 0.10718 0.0
C609 C 0.51453 0.15799 0.11775 0.0
C610 C 0.48752 0.16038 0.13532 0.0
C611 C 0.46381 0.18133 0.12764 0.0
C612 C 0.46779 0.20035 0.10128 0.0
C613 C 0.49512 0.19808 0.08273 0.0
C614 C 0.51877 0.17663 0.09117 0.0
H615 H 0.91416 0.48299 0.1889 0.0
H616 H 0.942 0.58049 0.18502 0.0
H617 H 0.90353 0.58992 0.14313 0.0
H618 H 0.90487 0.47303 0.10692 0.0
H619 H 0.87147 0.44758 0.11006 0.0
H620 H 0.89988 0.44879 0.14103 0.0
H621 H 0.85626 0.4622 0.18089 0.0
H622 H 0.82768 0.46088 0.15006 0.0
H623 H 0.83126 0.49543 0.17391 0.0
H624 H 0.86325 0.58847 0.10053 0.0
H625 H 0.82382 0.57607 0.06022 0.0
H626 H 0.82283 0.47941 0.09121 0.0
C627 C 0.91187 0.50639 0.17949 0.0
C628 C 0.93094 0.53105 0.19029 0.0
C629 C 0.92757 0.56127 0.17712 0.0
C630 C 0.90578 0.56687 0.15333 0.0
C631 C 0.88759 0.54199 0.14291 0.0
C632 C 0.89035 0.51236 0.15556 0.0
C633 C 0.86873 0.48949 0.1394 0.0
C634 C 0.88736 0.46318 0.1234 0.0
C635 C 0.84454 0.47623 0.16244 0.0
C636 C 0.85352 0.51086 0.11561 0.0
C637 C 0.86464 0.54108 0.1181 0.0
C638 C 0.85429 0.5649 0.09841 0.0
C639 C 0.83194 0.55765 0.07557 0.0
C640 C 0.8203 0.52681 0.07258 0.0
C641 C 0.83129 0.50321 0.09293 0.0
H642 H 0.47816 0.82314 0.09325 0.0
H643 H 0.56479 0.84139 0.04374 0.0
H644 H 0.57644 0.88458 0.08023 0.0
H645 H 0.45867 0.90325 0.10935 0.0
H646 H 0.44306 0.89518 0.14765 0.0
H647 H 0.44159 0.86563 0.1177 0.0
H648 H 0.47084 0.827 0.15407 0.0
H649 H 0.4724 0.85644 0.18413 0.0
H650 H 0.5079 0.83821 0.17058 0.0
H651 H 0.57835 0.92611 0.12157 0.0
H652 H 0.57071 0.96283 0.16547 0.0
H653 H 0.48319 0.91709 0.18855 0.0
C654 C 0.49958 0.83623 0.0901 0.0
C655 C 0.52058 0.82898 0.06567 0.0
C656 C 0.54839 0.84657 0.06232 0.0
C657 C 0.55521 0.87113 0.08291 0.0
C658 C 0.53401 0.8777 0.10675 0.0
C659 C 0.5068 0.86074 0.11051 0.0
C660 C 0.488 0.87256 0.13812 0.0
C661 C 0.45594 0.88489 0.12756 0.0
C662 C 0.4846 0.84703 0.16321 0.0
C663 C 0.50886 0.89888 0.14923 0.0
C664 C 0.53526 0.90147 0.13079 0.0
C665 C 0.55782 0.92427 0.13624 0.0
C666 C 0.55327 0.94501 0.1612 0.0
C667 C 0.52642 0.94274 0.18043 0.0
C668 C 0.50401 0.9193 0.17432 0.0
H669 H 0.19326 0.53321 0.09788 0.0
H670 H 0.15832 0.45653 0.04135 0.0
H671 H 0.11482 0.44911 0.07832 0.0
H672 H 0.1736 0.49934 0.17321 0.0
H673 H 0.16217 0.53612 0.19036 0.0
H674 H 0.19122 0.53522 0.15987 0.0
H675 H 0.15837 0.57425 0.12725 0.0
H676 H 0.12925 0.57529 0.15764 0.0
H677 H 0.11826 0.56506 0.11829 0.0
H678 H 0.07542 0.44958 0.12078 0.0
H679 H 0.04078 0.45914 0.16571 0.0
H680 H 0.09968 0.53639 0.19497 0.0
C681 C 0.17648 0.51482 0.09338 0.0
C682 C 0.17921 0.49538 0.06676 0.0
C683 C 0.15673 0.47166 0.06158 0.0
C684 C 0.13195 0.46722 0.08247 0.0
C685 C 0.12989 0.48672 0.10844 0.0
C686 C 0.15142 0.51012 0.11401 0.0
C687 C 0.14327 0.52808 0.14352 0.0
C688 C 0.16911 0.52446 0.1682 0.0
C689 C 0.1369 0.56272 0.13622 0.0
C690 C 0.11365 0.51128 0.15342 0.0
C691 C 0.10663 0.48733 0.13292 0.0
C692 C 0.08064 0.46826 0.13702 0.0
C693 C 0.06113 0.47386 0.16267 0.0
C694 C 0.06751 0.49851 0.18384 0.0
C695 C 0.0942 0.51742 0.17914 0.0
H696 H 0.83472 0.92472 0.47504 0.0
H697 H 0.84418 0.96235 0.56877 0.0
H698 H 0.8884 0.92667 0.57855 0.0
H699 H 0.85105 0.84532 0.49494 0.0
H700 H 0.87268 0.83702 0.45974 0.0
H701 H 0.84253 0.86642 0.45948 0.0
H702 H 0.88221 0.90722 0.43884 0.0
H703 H 0.91252 0.87793 0.43904 0.0
H704 H 0.91788 0.91401 0.46015 0.0
H705 H 0.92998 0.88594 0.5791 0.0
H706 H 0.96674 0.84237 0.5704 0.0
H707 H 0.93116 0.83096 0.47614 0.0
C708 C 0.84625 0.92556 0.49753 0.0
C709 C 0.83605 0.94633 0.52116 0.0
C710 C 0.85161 0.94665 0.55034 0.0
C711 C 0.87678 0.92651 0.55611 0.0
C712 C 0.88617 0.90623 0.53243 0.0
C713 C 0.87148 0.90558 0.5037 0.0
C714 C 0.88582 0.88091 0.48261 0.0
C715 C 0.86157 0.85594 0.47368 0.0
C716 C 0.90048 0.89592 0.45343 0.0
C717 C 0.91064 0.86763 0.50411 0.0
C718 C 0.91043 0.88268 0.53269 0.0
C719 C 0.93052 0.87408 0.55676 0.0
C720 C 0.95128 0.84928 0.5516 0.0
C721 C 0.95187 0.83337 0.52258 0.0
C722 C 0.93141 0.84288 0.49847 0.0
H723 H 0.92913 0.17953 0.53247 0.0
H724 H 0.91907 0.21312 0.43733 0.0
H725 H 0.87386 0.17797 0.42984 0.0
H726 H 0.91109 0.10024 0.51744 0.0
H727 H 0.88975 0.09439 0.55329 0.0
H728 H 0.92032 0.1232 0.55152 0.0
H729 H 0.88145 0.16584 0.57015 0.0
H730 H 0.85072 0.13712 0.57195 0.0
H731 H 0.84567 0.17201 0.54884 0.0
H732 H 0.83227 0.13641 0.43161 0.0
H733 H 0.7962 0.09273 0.44305 0.0
H734 H 0.83188 0.08797 0.53776 0.0
C735 C 0.91726 0.17966 0.51013 0.0
C736 C 0.9276 0.199 0.48544 0.0
C737 C 0.91149 0.19852 0.45657 0.0
C738 C 0.88579 0.17866 0.45211 0.0
C739 C 0.87632 0.1597 0.47688 0.0
C740 C 0.89142 0.16022 0.5054 0.0
C741 C 0.87698 0.1371 0.52802 0.0
C742 C 0.90097 0.11226 0.53815 0.0
C743 C 0.86286 0.15404 0.55642 0.0
C744 C 0.85176 0.12308 0.5076 0.0
C745 C 0.85177 0.13643 0.47817 0.0
C746 C 0.83176 0.12608 0.45469 0.0
C747 C 0.8114 0.10126 0.46138 0.0
C748 C 0.81105 0.08727 0.49136 0.0
C749 C 0.83125 0.09864 0.51481 0.0
H750 H 0.0829 0.837 0.54461 0.0
H751 H 0.11384 0.77748 0.4686 0.0
H752 H 0.16157 0.80958 0.46286 0.0
H753 H 0.10572 0.90752 0.50887 0.0
H754 H 0.11738 0.92659 0.54456 0.0
H755 H 0.08786 0.89668 0.54547 0.0
H756 H 0.12018 0.86569 0.58625 0.0
H757 H 0.14986 0.89555 0.58545 0.0
H758 H 0.16012 0.85542 0.57759 0.0
H759 H 0.20461 0.84909 0.46405 0.0
H760 H 0.23767 0.89611 0.46834 0.0
H761 H 0.17688 0.93236 0.54108 0.0
C762 C 0.1001 0.83041 0.52722 0.0
C763 C 0.09509 0.80457 0.50732 0.0
C764 C 0.11749 0.79711 0.48417 0.0
C765 C 0.14466 0.8151 0.48086 0.0
C766 C 0.1488 0.84068 0.50063 0.0
C767 C 0.127 0.84856 0.52315 0.0
C768 C 0.13555 0.87894 0.53925 0.0
C769 C 0.11012 0.9039 0.53422 0.0
C770 C 0.1418 0.87357 0.57421 0.0
C771 C 0.16534 0.88714 0.52197 0.0
C772 C 0.17287 0.86442 0.50024 0.0
C773 C 0.19903 0.86699 0.48105 0.0
C774 C 0.21768 0.89376 0.48371 0.0
C775 C 0.20981 0.91786 0.50504 0.0
C776 C 0.1835 0.91426 0.52465 0.0
H777 H 0.08509 0.17697 0.5313 0.0
H778 H 0.07231 0.19015 0.43154 0.0
H779 H 0.1126 0.15027 0.42104 0.0
H780 H 0.16862 0.16519 0.52918 0.0
H781 H 0.16856 0.13551 0.55909 0.0
H782 H 0.13883 0.16537 0.559 0.0
H783 H 0.0959 0.1227 0.55838 0.0
H784 H 0.1255 0.09272 0.55847 0.0
H785 H 0.09632 0.09335 0.52813 0.0
H786 H 0.15424 0.10952 0.42104 0.0
H787 H 0.19419 0.06928 0.43157 0.0
H788 H 0.17983 0.08125 0.5313 0.0
C789 C 0.09085 0.17147 0.50727 0.0
C790 C 0.07561 0.18671 0.48222 0.0
C791 C 0.08367 0.17878 0.4511 0.0
C792 C 0.10655 0.15618 0.44488 0.0
C793 C 0.12111 0.14157 0.47003 0.0
C794 C 0.11359 0.14876 0.50061 0.0
C795 C 0.13262 0.12921 0.52327 0.0
C796 C 0.15339 0.15007 0.54384 0.0
C797 C 0.11131 0.10825 0.54323 0.0
C798 C 0.15201 0.11 0.5006 0.0
C799 C 0.14501 0.11763 0.47002 0.0
C800 C 0.15992 0.10329 0.44488 0.0
C801 C 0.18259 0.08048 0.4511 0.0
C802 C 0.19008 0.07211 0.48223 0.0
C803 C 0.17453 0.08712 0.50726 0.0
loop_
_geom_bond_atom_site_label_1
_geom_bond_atom_site_label_2
_geom_bond_distance
_geom_bond_site_symmetry_2
_ccdc_geom_bond_type
In0 O1 2.294 1_455 S
In0 O2 2.326 1_455 S
In0 O6 2.266 1_455 S
In0 O7 2.326 . S
In0 O8 2.266 . S
In0 O9 2.326 1_455 S
In0 O11 2.294 . S
In0 O12 2.326 . S
O1 In0 2.294 1_655 S
O1 C10 1.240 . S
O2 In0 2.326 1_655 S
O2 C10 1.252 . S
C3 O6 1.252 1_455 S
C3 O7 1.260 . S
C4 O11 1.240 . S
C4 O12 1.252 . S
C5 O8 1.252 1_655 S
C5 O9 1.260 . S
O6 In0 2.266 1_655 S
O6 C3 1.252 1_655 S
O7 In0 2.326 . S
O7 C3 1.260 . S
O8 In0 2.266 . S
O8 C5 1.252 1_455 S
O9 In0 2.326 1_655 S
O9 C5 1.260 . S
C10 O1 1.240 . S
C10 O2 1.252 . S
O11 In0 2.294 . S
O11 C4 1.240 . S
O12 In0 2.326 . S
O12 C4 1.252 . S
In13 O14 2.294 1_545 S
In13 O15 2.326 . S
In13 O19 2.266 1_545 S
In13 O20 2.326 1_545 S
In13 O21 2.266 . S
In13 O22 2.326 . S
In13 O24 2.294 . S
In13 O25 2.326 1_545 S
O14 In13 2.294 1_565 S
O14 C23 1.240 1_565 S
O15 In13 2.326 . S
O15 C23 1.252 . S
C16 O19 1.252 . S
C16 O20 1.260 . S
C17 O24 1.240 1_565 S
C17 O25 1.252 . S
C18 O21 1.252 . S
C18 O22 1.260 . S
O19 In13 2.266 1_565 S
O19 C16 1.252 . S
O20 In13 2.326 1_565 S
O20 C16 1.260 . S
O21 In13 2.266 . S
O21 C18 1.252 . S
O22 In13 2.326 . S
O22 C18 1.260 . S
C23 O14 1.240 1_545 S
C23 O15 1.252 . S
O24 In13 2.294 . S
O24 C17 1.240 1_545 S
O25 In13 2.326 1_565 S
O25 C17 1.252 . S
In26 O27 2.294 . S
In26 O28 2.326 1_455 S
In26 O32 2.266 . S
In26 O33 2.326 . S
In26 O34 2.266 1_455 S
In26 O35 2.326 1_455 S
In26 O37 2.294 1_455 S
In26 O38 2.326 . S
O27 In26 2.294 . S
O27 C36 1.240 1_455 S
O28 In26 2.326 1_655 S
O28 C36 1.252 . S
C29 O32 1.252 . S
C29 O33 1.260 . S
C30 O37 1.240 1_455 S
C30 O38 1.252 . S
C31 O34 1.252 . S
C31 O35 1.260 . S
O32 In26 2.266 . S
O32 C29 1.252 . S
O33 In26 2.326 . S
O33 C29 1.260 . S
O34 In26 2.266 1_655 S
O34 C31 1.252 . S
O35 In26 2.326 1_655 S
O35 C31 1.260 . S
C36 O27 1.240 1_655 S
C36 O28 1.252 . S
O37 In26 2.294 1_655 S
O37 C30 1.240 1_655 S
O38 In26 2.326 . S
O38 C30 1.252 . S
In39 O40 2.294 1_545 S
In39 O41 2.326 1_545 S
In39 O45 2.266 1_545 S
In39 O46 2.326 . S
In39 O47 2.266 . S
In39 O48 2.326 1_545 S
In39 O50 2.294 . S
In39 O51 2.326 . S
O40 In39 2.294 1_565 S
O40 C49 1.240 . S
O41 In39 2.326 1_565 S
O41 C49 1.252 . S
C42 O45 1.252 1_545 S
C42 O46 1.260 . S
C43 O50 1.240 . S
C43 O51 1.252 . S
C44 O47 1.252 1_565 S
C44 O48 1.260 . S
O45 In39 2.266 1_565 S
O45 C42 1.252 1_565 S
O46 In39 2.326 . S
O46 C42 1.260 . S
O47 In39 2.266 . S
O47 C44 1.252 1_545 S
O48 In39 2.326 1_565 S
O48 C44 1.260 . S
C49 O40 1.240 . S
C49 O41 1.252 . S
O50 In39 2.294 . S
O50 C43 1.240 . S
O51 In39 2.326 . S
O51 C43 1.252 . S
In52 O53 2.294 1_545 S
In52 O54 2.326 . S
In52 O58 2.266 1_545 S
In52 O59 2.326 1_545 S
In52 O60 2.266 . S
In52 O61 2.326 . S
In52 O63 2.294 . S
In52 O64 2.326 1_545 S
O53 In52 2.294 1_565 S
O53 C62 1.240 1_565 S
O54 In52 2.326 . S
O54 C62 1.252 . S
C55 O58 1.252 . S
C55 O59 1.260 . S
C56 O63 1.240 1_565 S
C56 O64 1.252 . S
C57 O60 1.252 . S
C57 O61 1.260 . S
O58 In52 2.266 1_565 S
O58 C55 1.252 . S
O59 In52 2.326 1_565 S
O59 C55 1.260 . S
O60 In52 2.266 . S
O60 C57 1.252 . S
O61 In52 2.326 . S
O61 C57 1.260 . S
C62 O53 1.240 1_545 S
C62 O54 1.252 . S
O63 In52 2.294 . S
O63 C56 1.240 1_545 S
O64 In52 2.326 1_565 S
O64 C56 1.252 . S
In65 O66 2.294 1_455 S
In65 O67 2.326 1_455 S
In65 O71 2.266 1_455 S
In65 O72 2.326 . S
In65 O73 2.266 . S
In65 O74 2.326 1_455 S
In65 O76 2.294 . S
In65 O77 2.326 . S
O66 In65 2.294 1_655 S
O66 C75 1.240 . S
O67 In65 2.326 1_655 S
O67 C75 1.252 . S
C68 O71 1.252 1_455 S
C68 O72 1.260 . S
C69 O76 1.240 . S
C69 O77 1.252 . S
C70 O73 1.252 1_655 S
C70 O74 1.260 . S
O71 In65 2.266 1_655 S
O71 C68 1.252 1_655 S
O72 In65 2.326 . S
O72 C68 1.260 . S
O73 In65 2.266 . S
O73 C70 1.252 1_455 S
O74 In65 2.326 1_655 S
O74 C70 1.260 . S
C75 O66 1.240 . S
C75 O67 1.252 . S
O76 In65 2.294 . S
O76 C69 1.240 . S
O77 In65 2.326 . S
O77 C69 1.252 . S
In78 O79 2.294 . S
In78 O80 2.326 1_545 S
In78 O84 2.266 . S
In78 O85 2.326 . S
In78 O86 2.266 1_545 S
In78 O87 2.326 1_545 S
In78 O89 2.294 1_545 S
In78 O90 2.326 . S
O79 In78 2.294 . S
O79 C88 1.240 1_545 S
O80 In78 2.326 1_565 S
O80 C88 1.252 . S
C81 O84 1.252 . S
C81 O85 1.260 . S
C82 O89 1.240 1_545 S
C82 O90 1.252 . S
C83 O86 1.252 . S
C83 O87 1.260 . S
O84 In78 2.266 . S
O84 C81 1.252 . S
O85 In78 2.326 . S
O85 C81 1.260 . S
O86 In78 2.266 1_565 S
O86 C83 1.252 . S
O87 In78 2.326 1_565 S
O87 C83 1.260 . S
C88 O79 1.240 1_565 S
C88 O80 1.252 . S
O89 In78 2.294 1_565 S
O89 C82 1.240 1_565 S
O90 In78 2.326 . S
O90 C82 1.252 . S
In91 O92 2.294 . S
In91 O93 2.326 . S
In91 O97 2.266 . S
In91 O98 2.326 1_455 S
In91 O99 2.266 1_455 S
In91 O100 2.326 . S
In91 O102 2.294 1_455 S
In91 O103 2.326 1_455 S
O92 In91 2.294 . S
O92 C101 1.240 . S
O93 In91 2.326 . S
O93 C101 1.252 . S
C94 O97 1.252 1_655 S
C94 O98 1.260 . S
C95 O102 1.240 . S
C95 O103 1.252 . S
C96 O99 1.252 1_455 S
C96 O100 1.260 . S
O97 In91 2.266 . S
O97 C94 1.252 1_455 S
O98 In91 2.326 1_655 S
O98 C94 1.260 . S
O99 In91 2.266 1_655 S
O99 C96 1.252 1_655 S
O100 In91 2.326 . S
O100 C96 1.260 . S
C101 O92 1.240 . S
C101 O93 1.252 . S
O102 In91 2.294 1_655 S
O102 C95 1.240 . S
O103 In91 2.326 1_655 S
O103 C95 1.252 . S
In104 O105 2.299 . S
In104 O106 2.329 . S
In104 O110 2.268 . S
In104 O111 2.322 1_554 S
In104 O112 2.264 1_554 S
In104 O113 2.329 . S
In104 O115 2.289 1_554 S
In104 O116 2.324 1_554 S
O105 In104 2.299 . S
O105 C114 1.240 . S
O106 In104 2.329 . S
O106 C114 1.252 . S
C107 O110 1.252 1_556 S
C107 O111 1.260 . S
C108 O115 1.240 . S
C108 O116 1.252 . S
C109 O112 1.252 1_554 S
C109 O113 1.260 . S
O110 In104 2.268 . S
O110 C107 1.252 1_554 S
O111 In104 2.322 1_556 S
O111 C107 1.260 . S
O112 In104 2.264 1_556 S
O112 C109 1.252 1_556 S
O113 In104 2.329 . S
O113 C109 1.260 . S
C114 O105 1.240 . S
C114 O106 1.252 . S
O115 In104 2.289 1_556 S
O115 C108 1.240 . S
O116 In104 2.324 1_556 S
O116 C108 1.252 . S
In117 O118 2.301 . S
In117 O119 2.330 . S
In117 O123 2.269 . S
In117 O124 2.321 1_554 S
In117 O125 2.264 1_554 S
In117 O126 2.330 . S
In117 O128 2.287 1_554 S
In117 O129 2.323 1_554 S
O118 In117 2.301 . S
O118 C127 1.240 . S
O119 In117 2.330 . S
O119 C127 1.252 . S
C120 O123 1.252 1_556 S
C120 O124 1.260 . S
C121 O128 1.240 . S
C121 O129 1.252 . S
C122 O125 1.252 1_554 S
C122 O126 1.260 . S
O123 In117 2.269 . S
O123 C120 1.252 1_554 S
O124 In117 2.321 1_556 S
O124 C120 1.260 . S
O125 In117 2.264 1_556 S
O125 C122 1.252 1_556 S
O126 In117 2.330 . S
O126 C122 1.260 . S
C127 O118 1.240 . S
C127 O119 1.252 . S
O128 In117 2.287 1_556 S
O128 C121 1.240 . S
O129 In117 2.323 1_556 S
O129 C121 1.252 . S
In130 O131 2.291 1_554 S
In130 O132 2.331 . S
In130 O136 2.259 1_554 S
In130 O137 2.322 1_554 S
In130 O138 2.273 . S
In130 O139 2.329 . S
In130 O141 2.296 . S
In130 O142 2.322 1_554 S
O131 In130 2.291 1_556 S
O131 C140 1.240 1_556 S
O132 In130 2.331 . S
O132 C140 1.252 . S
C133 O136 1.252 . S
C133 O137 1.260 . S
C134 O141 1.240 1_556 S
C134 O142 1.252 . S
C135 O138 1.252 . S
C135 O139 1.260 . S
O136 In130 2.259 1_556 S
O136 C133 1.252 . S
O137 In130 2.322 1_556 S
O137 C133 1.260 . S
O138 In130 2.273 . S
O138 C135 1.252 . S
O139 In130 2.329 . S
O139 C135 1.260 . S
C140 O131 1.240 1_554 S
C140 O132 1.252 . S
O141 In130 2.296 . S
O141 C134 1.240 1_554 S
O142 In130 2.322 1_556 S
O142 C134 1.252 . S
In143 O144 2.296 . S
In143 O145 2.323 1_554 S
In143 O149 2.271 . S
In143 O150 2.328 . S
In143 O151 2.261 1_554 S
In143 O152 2.323 1_554 S
In143 O154 2.292 1_554 S
In143 O155 2.330 . S
O144 In143 2.296 . S
O144 C153 1.240 1_554 S
O145 In143 2.323 1_556 S
O145 C153 1.252 . S
C146 O149 1.252 . S
C146 O150 1.260 . S
C147 O154 1.240 1_554 S
C147 O155 1.252 . S
C148 O151 1.252 . S
C148 O152 1.260 . S
O149 In143 2.271 . S
O149 C146 1.252 . S
O150 In143 2.328 . S
O150 C146 1.260 . S
O151 In143 2.261 1_556 S
O151 C148 1.252 . S
O152 In143 2.323 1_556 S
O152 C148 1.260 . S
C153 O144 1.240 1_556 S
C153 O145 1.252 . S
O154 In143 2.292 1_556 S
O154 C147 1.240 1_556 S
O155 In143 2.330 . S
O155 C147 1.252 . S
H156 C168 0.930 . S
H157 C170 0.930 . S
H158 C171 0.930 . S
H159 C175 0.959 . S
H160 C175 0.959 . S
H161 C175 0.961 . S
H162 C176 0.960 . S
H163 C176 0.961 . S
H164 C176 0.959 . S
H165 C179 0.929 . S
H166 C180 0.931 . S
H167 C182 0.941 . S
C168 H156 0.930 . S
C168 C169 1.399 . S
C168 C173 1.399 . S
C169 C168 1.399 . S
C169 C170 1.376 1_655 S
C170 H157 0.930 . S
C170 C169 1.376 1_455 S
C170 C171 1.388 . S
C171 H158 0.930 . S
C171 C170 1.388 . S
C171 C172 1.390 . S
C172 C171 1.390 . S
C172 C173 1.394 1_455 S
C172 C178 1.465 . S
C173 C168 1.399 . S
C173 C172 1.394 1_655 S
C173 C174 1.516 . S
C174 C173 1.516 . S
C174 C175 1.502 . S
C174 C176 1.561 1_655 S
C174 C177 1.530 . S
C175 H159 0.959 . S
C175 H160 0.959 . S
C175 H161 0.961 . S
C175 C174 1.502 . S
C176 H162 0.960 . S
C176 H163 0.961 . S
C176 H164 0.959 . S
C176 C174 1.561 1_455 S
C177 C174 1.530 . S
C177 C178 1.391 1_655 S
C177 C182 1.389 . S
C178 C172 1.465 . S
C178 C177 1.391 1_455 S
C178 C179 1.399 . S
C179 H165 0.929 . S
C179 C178 1.399 . S
C179 C180 1.385 . S
C180 H166 0.931 . S
C180 C179 1.385 . S
C180 C181 1.389 . S
C181 C180 1.389 . S
C181 C182 1.376 1_455 S
C182 H167 0.941 . S
C182 C177 1.389 . S
C182 C181 1.376 1_655 S
H183 C195 0.930 . S
H184 C197 0.930 . S
H185 C198 0.930 . S
H186 C202 0.959 . S
H187 C202 0.959 . S
H188 C202 0.961 . S
H189 C203 0.960 . S
H190 C203 0.961 . S
H191 C203 0.959 . S
H192 C206 0.929 . S
H193 C207 0.931 . S
H194 C209 0.930 . S
C195 H183 0.930 . S
C195 C196 1.399 1_545 S
C195 C200 1.399 . S
C196 C195 1.399 1_565 S
C196 C197 1.376 . S
C197 H184 0.930 . S
C197 C196 1.376 . S
C197 C198 1.388 . S
C198 H185 0.930 . S
C198 C197 1.388 . S
C198 C199 1.390 . S
C199 C198 1.390 . S
C199 C200 1.394 1_565 S
C199 C205 1.465 . S
C200 C195 1.399 . S
C200 C199 1.394 1_545 S
C200 C201 1.516 . S
C201 C200 1.516 . S
C201 C202 1.502 . S
C201 C203 1.561 . S
C201 C204 1.526 . S
C202 H186 0.959 . S
C202 H187 0.959 . S
C202 H188 0.961 . S
C202 C201 1.502 . S
C203 H189 0.960 . S
C203 H190 0.961 . S
C203 H191 0.959 . S
C203 C201 1.561 . S
C204 C201 1.526 . S
C204 C205 1.396 1_545 S
C204 C209 1.390 . S
C205 C199 1.465 . S
C205 C204 1.396 1_565 S
C205 C206 1.399 . S
C206 H192 0.929 . S
C206 C205 1.399 . S
C206 C207 1.385 . S
C207 H193 0.931 . S
C207 C206 1.385 . S
C207 C208 1.389 1_565 S
C208 C207 1.389 1_545 S
C208 C209 1.387 . S
C209 H194 0.930 . S
C209 C204 1.390 . S
C209 C208 1.387 . S
H210 C222 0.941 . S
H211 C224 0.930 . S
H212 C225 0.930 . S
H213 C229 0.959 . S
H214 C229 0.959 . S
H215 C229 0.961 . S
H216 C230 0.960 . S
H217 C230 0.961 . S
H218 C230 0.959 . S
H219 C233 0.929 . S
H220 C234 0.931 . S
H221 C236 0.930 . S
C222 H210 0.941 . S
C222 C223 1.388 1_455 S
C222 C227 1.399 . S
C223 C222 1.388 1_655 S
C223 C224 1.376 . S
C224 H211 0.930 . S
C224 C223 1.376 . S
C224 C225 1.388 . S
C225 H212 0.930 . S
C225 C224 1.388 . S
C225 C226 1.390 . S
C226 C225 1.390 . S
C226 C227 1.383 1_655 S
C226 C232 1.465 . S
C227 C222 1.399 . S
C227 C226 1.383 1_455 S
C227 C228 1.526 . S
C228 C227 1.526 . S
C228 C229 1.502 . S
C228 C230 1.561 1_455 S
C228 C231 1.526 . S
C229 H213 0.959 . S
C229 H214 0.959 . S
C229 H215 0.961 . S
C229 C228 1.502 . S
C230 H216 0.960 . S
C230 H217 0.961 . S
C230 H218 0.959 . S
C230 C228 1.561 1_655 S
C231 C228 1.526 . S
C231 C232 1.396 1_455 S
C231 C236 1.390 . S
C232 C226 1.465 . S
C232 C231 1.396 1_655 S
C232 C233 1.399 . S
C233 H219 0.929 . S
C233 C232 1.399 . S
C233 C234 1.385 . S
C234 H220 0.931 . S
C234 C233 1.385 . S
C234 C235 1.389 1_655 S
C235 C234 1.389 1_455 S
C235 C236 1.387 . S
C236 H221 0.930 . S
C236 C231 1.390 . S
C236 C235 1.387 . S
H237 C249 0.930 . S
H238 C251 0.930 . S
H239 C252 0.930 . S
H240 C256 0.959 . S
H241 C256 0.959 . S
H242 C256 0.961 . S
H243 C257 0.960 . S
H244 C257 0.961 . S
H245 C257 0.959 . S
H246 C260 0.929 . S
H247 C261 0.931 . S
H248 C263 0.930 1_545 S
C249 H237 0.930 . S
C249 C250 1.399 . S
C249 C254 1.399 . S
C250 C249 1.399 . S
C250 C251 1.376 1_545 S
C251 H238 0.930 . S
C251 C250 1.376 1_565 S
C251 C252 1.388 . S
C252 H239 0.930 . S
C252 C251 1.388 . S
C252 C253 1.390 . S
C253 C252 1.390 . S
C253 C254 1.394 1_565 S
C253 C259 1.465 . S
C254 C249 1.399 . S
C254 C253 1.394 1_545 S
C254 C255 1.516 . S
C255 C254 1.516 . S
C255 C256 1.502 . S
C255 C257 1.561 1_545 S
C255 C258 1.521 1_545 S
C256 H240 0.959 . S
C256 H241 0.959 . S
C256 H242 0.961 . S
C256 C255 1.502 . S
C257 H243 0.960 . S
C257 H244 0.961 . S
C257 H245 0.959 . S
C257 C255 1.561 1_565 S
C258 C255 1.521 1_565 S
C258 C259 1.401 . S
C258 C263 1.390 . S
C259 C253 1.465 . S
C259 C258 1.401 . S
C259 C260 1.399 . S
C260 H246 0.929 . S
C260 C259 1.399 . S
C260 C261 1.385 . S
C261 H247 0.931 . S
C261 C260 1.385 . S
C261 C262 1.389 . S
C262 C261 1.389 . S
C262 C263 1.387 . S
C263 H248 0.930 1_565 S
C263 C258 1.390 . S
C263 C262 1.387 . S
H264 C276 0.930 . S
H265 C278 0.930 . S
H266 C279 0.930 . S
H267 C283 0.959 . S
H268 C283 0.959 . S
H269 C283 0.961 . S
H270 C284 0.956 1_455 S
H271 C284 0.958 1_455 S
H272 C284 0.973 . S
H273 C287 0.929 . S
H274 C288 0.931 . S
H275 C290 0.930 . S
C276 H264 0.930 . S
C276 C277 1.399 . S
C276 C281 1.399 . S
C277 C276 1.399 . S
C277 C278 1.376 1_455 S
C278 H265 0.930 . S
C278 C277 1.376 1_655 S
C278 C279 1.388 . S
C279 H266 0.930 . S
C279 C278 1.388 . S
C279 C280 1.390 . S
C280 C279 1.390 . S
C280 C281 1.394 1_655 S
C280 C286 1.465 . S
C281 C276 1.399 . S
C281 C280 1.394 1_455 S
C281 C282 1.516 . S
C282 C281 1.516 . S
C282 C283 1.502 . S
C282 C284 1.554 1_455 S
C282 C285 1.526 . S
C283 H267 0.959 . S
C283 H268 0.959 . S
C283 H269 0.961 . S
C283 C282 1.502 . S
C284 H270 0.956 1_655 S
C284 H271 0.958 1_655 S
C284 H272 0.973 . S
C284 C282 1.554 1_655 S
C285 C282 1.526 . S
C285 C286 1.396 1_455 S
C285 C290 1.390 . S
C286 C280 1.465 . S
C286 C285 1.396 1_655 S
C286 C287 1.399 . S
C287 H273 0.929 . S
C287 C286 1.399 . S
C287 C288 1.385 . S
C288 H274 0.931 . S
C288 C287 1.385 . S
C288 C289 1.389 . S
C289 C288 1.389 . S
C289 C290 1.387 1_655 S
C290 H275 0.930 . S
C290 C285 1.390 . S
C290 C289 1.387 1_455 S
H291 C303 0.930 . S
H292 C305 0.930 . S
H293 C306 0.930 . S
H294 C310 0.959 . S
H295 C310 0.959 . S
H296 C310 0.961 . S
H297 C311 0.960 . S
H298 C311 0.961 . S
H299 C311 0.959 . S
H300 C314 0.929 . S
H301 C315 0.931 . S
H302 C317 0.930 . S
C303 H291 0.930 . S
C303 C304 1.399 1_565 S
C303 C308 1.399 . S
C304 C303 1.399 1_545 S
C304 C305 1.376 . S
C305 H292 0.930 . S
C305 C304 1.376 . S
C305 C306 1.388 . S
C306 H293 0.930 . S
C306 C305 1.388 . S
C306 C307 1.390 . S
C307 C306 1.390 . S
C307 C308 1.394 1_545 S
C307 C313 1.465 . S
C308 C303 1.399 . S
C308 C307 1.394 1_565 S
C308 C309 1.516 . S
C309 C308 1.516 . S
C309 C310 1.502 . S
C309 C311 1.561 . S
C309 C312 1.526 . S
C310 H294 0.959 . S
C310 H295 0.959 . S
C310 H296 0.961 . S
C310 C309 1.502 . S
C311 H297 0.960 . S
C311 H298 0.961 . S
C311 H299 0.959 . S
C311 C309 1.561 . S
C312 C309 1.526 . S
C312 C313 1.396 1_565 S
C312 C317 1.390 . S
C313 C307 1.465 . S
C313 C312 1.396 1_545 S
C313 C314 1.399 . S
C314 H300 0.929 . S
C314 C313 1.399 . S
C314 C315 1.385 . S
C315 H301 0.931 . S
C315 C314 1.385 . S
C315 C316 1.389 1_545 S
C316 C315 1.389 1_565 S
C316 C317 1.387 . S
C317 H302 0.930 . S
C317 C312 1.390 . S
C317 C316 1.387 . S
H318 C330 0.930 . S
H319 C332 0.930 . S
H320 C333 0.930 . S
H321 C337 0.959 . S
H322 C337 0.959 . S
H323 C337 0.961 . S
H324 C338 0.960 . S
H325 C338 0.961 . S
H326 C338 0.959 . S
H327 C341 0.929 . S
H328 C342 0.931 . S
H329 C344 0.930 . S
C330 H318 0.930 . S
C330 C331 1.399 . S
C330 C335 1.399 . S
C331 C330 1.399 . S
C331 C332 1.376 1_455 S
C332 H319 0.930 . S
C332 C331 1.376 1_655 S
C332 C333 1.388 . S
C333 H320 0.930 . S
C333 C332 1.388 . S
C333 C334 1.390 . S
C334 C333 1.390 . S
C334 C335 1.394 1_655 S
C334 C340 1.465 . S
C335 C330 1.399 . S
C335 C334 1.394 1_455 S
C335 C336 1.516 . S
C336 C335 1.516 . S
C336 C337 1.502 . S
C336 C338 1.561 1_455 S
C336 C339 1.526 . S
C337 H321 0.959 . S
C337 H322 0.959 . S
C337 H323 0.961 . S
C337 C336 1.502 . S
C338 H324 0.960 . S
C338 H325 0.961 . S
C338 H326 0.959 . S
C338 C336 1.561 1_655 S
C339 C336 1.526 . S
C339 C340 1.396 1_455 S
C339 C344 1.390 . S
C340 C334 1.465 . S
C340 C339 1.396 1_655 S
C340 C341 1.399 . S
C341 H327 0.929 . S
C341 C340 1.399 . S
C341 C342 1.385 . S
C342 H328 0.931 . S
C342 C341 1.385 . S
C342 C343 1.389 . S
C343 C342 1.389 . S
C343 C344 1.387 1_655 S
C344 H329 0.930 . S
C344 C339 1.390 . S
C344 C343 1.387 1_455 S
H345 C357 0.930 . S
H346 C359 0.930 . S
H347 C360 0.930 . S
H348 C364 0.959 . S
H349 C364 0.959 . S
H350 C364 0.961 . S
H351 C365 0.960 . S
H352 C365 0.961 . S
H353 C365 0.959 . S
H354 C368 0.929 . S
H355 C369 0.931 . S
H356 C371 0.930 . S
C357 H345 0.930 . S
C357 C358 1.399 1_545 S
C357 C362 1.399 . S
C358 C357 1.399 1_565 S
C358 C359 1.376 . S
C359 H346 0.930 . S
C359 C358 1.376 . S
C359 C360 1.388 . S
C360 H347 0.930 . S
C360 C359 1.388 . S
C360 C361 1.390 . S
C361 C360 1.390 . S
C361 C362 1.394 1_565 S
C361 C367 1.465 . S
C362 C357 1.399 . S
C362 C361 1.394 1_545 S
C362 C363 1.516 . S
C363 C362 1.516 . S
C363 C364 1.502 . S
C363 C365 1.561 . S
C363 C366 1.526 . S
C364 H348 0.959 . S
C364 H349 0.959 . S
C364 H350 0.961 . S
C364 C363 1.502 . S
C365 H351 0.960 . S
C365 H352 0.961 . S
C365 H353 0.959 . S
C365 C363 1.561 . S
C366 C363 1.526 . S
C366 C367 1.396 1_545 S
C366 C371 1.390 . S
C367 C361 1.465 . S
C367 C366 1.396 1_565 S
C367 C368 1.399 . S
C368 H354 0.929 . S
C368 C367 1.399 . S
C368 C369 1.385 . S
C369 H355 0.931 . S
C369 C368 1.385 . S
C369 C370 1.389 1_565 S
C370 C369 1.389 1_545 S
C370 C371 1.387 . S
C371 H356 0.930 . S
C371 C366 1.390 . S
C371 C370 1.387 . S
H372 C384 0.930 . S
H373 C386 0.930 . S
H374 C387 0.930 . S
H375 C391 0.959 . S
H376 C391 0.959 . S
H377 C391 0.961 . S
H378 C392 0.960 . S
H379 C392 0.961 . S
H380 C392 0.959 . S
H381 C395 0.929 . S
H382 C396 0.931 . S
H383 C398 0.930 . S
C384 H372 0.930 . S
C384 C385 1.399 . S
C384 C389 1.399 . S
C385 C384 1.399 . S
C385 C386 1.376 1_554 S
C386 H373 0.930 . S
C386 C385 1.376 1_556 S
C386 C387 1.388 . S
C387 H374 0.930 . S
C387 C386 1.388 . S
C387 C388 1.390 . S
C388 C387 1.390 . S
C388 C389 1.394 1_556 S
C388 C394 1.465 . S
C389 C384 1.399 . S
C389 C388 1.394 1_554 S
C389 C390 1.516 . S
C390 C389 1.516 . S
C390 C391 1.502 . S
C390 C392 1.561 1_554 S
C390 C393 1.526 . S
C391 H375 0.959 . S
C391 H376 0.959 . S
C391 H377 0.961 . S
C391 C390 1.502 . S
C392 H378 0.960 . S
C392 H379 0.961 . S
C392 H380 0.959 . S
C392 C390 1.561 1_556 S
C393 C390 1.526 . S
C393 C394 1.396 1_554 S
C393 C398 1.390 . S
C394 C388 1.465 . S
C394 C393 1.396 1_556 S
C394 C395 1.399 . S
C395 H381 0.929 . S
C395 C394 1.399 . S
C395 C396 1.385 . S
C396 H382 0.931 . S
C396 C395 1.385 . S
C396 C397 1.389 . S
C397 C396 1.389 . S
C397 C398 1.387 1_556 S
C398 H383 0.930 . S
C398 C393 1.390 . S
C398 C397 1.387 1_554 S
H399 C411 0.930 . S
H400 C413 0.930 . S
H401 C414 0.930 . S
H402 C418 0.959 . S
H403 C418 0.959 . S
H404 C418 0.961 . S
H405 C419 0.960 . S
H406 C419 0.961 . S
H407 C419 0.959 . S
H408 C422 0.929 . S
H409 C423 0.931 . S
H410 C425 0.930 . S
C411 H399 0.930 . S
C411 C412 1.399 1_556 S
C411 C416 1.399 . S
C412 C411 1.399 1_554 S
C412 C413 1.376 . S
C413 H400 0.930 . S
C413 C412 1.376 . S
C413 C414 1.388 . S
C414 H401 0.930 . S
C414 C413 1.388 . S
C414 C415 1.390 . S
C415 C414 1.390 . S
C415 C416 1.394 1_554 S
C415 C421 1.465 . S
C416 C411 1.399 . S
C416 C415 1.394 1_556 S
C416 C417 1.516 . S
C417 C416 1.516 . S
C417 C418 1.502 . S
C417 C419 1.561 . S
C417 C420 1.526 . S
C418 H402 0.959 . S
C418 H403 0.959 . S
C418 H404 0.961 . S
C418 C417 1.502 . S
C419 H405 0.960 . S
C419 H406 0.961 . S
C419 H407 0.959 . S
C419 C417 1.561 . S
C420 C417 1.526 . S
C420 C421 1.396 1_556 S
C420 C425 1.390 . S
C421 C415 1.465 . S
C421 C420 1.396 1_554 S
C421 C422 1.399 . S
C422 H408 0.929 . S
C422 C421 1.399 . S
C422 C423 1.385 . S
C423 H409 0.931 . S
C423 C422 1.385 . S
C423 C424 1.389 1_554 S
C424 C423 1.389 1_556 S
C424 C425 1.387 . S
C425 H410 0.930 . S
C425 C420 1.390 . S
C425 C424 1.387 . S
H426 C438 0.930 . S
H427 C440 0.930 . S
H428 C441 0.930 . S
H429 C445 0.959 . S
H430 C445 0.959 . S
H431 C445 0.961 . S
H432 C446 0.960 . S
H433 C446 0.961 . S
H434 C446 0.959 . S
H435 C449 0.929 . S
H436 C450 0.931 . S
H437 C452 0.930 . S
C438 H426 0.930 . S
C438 C439 1.399 . S
C438 C443 1.399 . S
C439 C438 1.399 . S
C439 C440 1.376 1_556 S
C440 H427 0.930 . S
C440 C439 1.376 1_554 S
C440 C441 1.388 . S
C441 H428 0.930 . S
C441 C440 1.388 . S
C441 C442 1.390 . S
C442 C441 1.390 . S
C442 C443 1.394 1_554 S
C442 C448 1.465 . S
C443 C438 1.399 . S
C443 C442 1.394 1_556 S
C443 C444 1.516 . S
C444 C443 1.516 . S
C444 C445 1.502 . S
C444 C446 1.561 . S
C444 C447 1.526 . S
C445 H429 0.959 . S
C445 H430 0.959 . S
C445 H431 0.961 . S
C445 C444 1.502 . S
C446 H432 0.960 . S
C446 H433 0.961 . S
C446 H434 0.959 . S
C446 C444 1.561 . S
C447 C444 1.526 . S
C447 C448 1.396 1_556 S
C447 C452 1.390 . S
C448 C442 1.465 . S
C448 C447 1.396 1_554 S
C448 C449 1.399 . S
C449 H435 0.929 . S
C449 C448 1.399 . S
C449 C450 1.385 . S
C450 H436 0.931 . S
C450 C449 1.385 . S
C450 C451 1.389 . S
C451 C450 1.389 . S
C451 C452 1.387 1_554 S
C452 H437 0.930 . S
C452 C447 1.390 . S
C452 C451 1.387 1_556 S
H453 C465 0.930 . S
H454 C467 0.930 . S
H455 C468 0.930 . S
H456 C472 0.959 . S
H457 C472 0.959 . S
H458 C472 0.961 . S
H459 C473 0.960 . S
H460 C473 0.961 . S
H461 C473 0.959 . S
H462 C476 0.929 . S
H463 C477 0.931 . S
H464 C479 0.930 . S
C465 H453 0.930 . S
C465 C466 1.399 . S
C465 C470 1.399 . S
C466 C465 1.399 . S
C466 C467 1.376 1_556 S
C467 H454 0.930 . S
C467 C466 1.376 1_554 S
C467 C468 1.388 . S
C468 H455 0.930 . S
C468 C467 1.388 . S
C468 C469 1.390 . S
C469 C468 1.390 . S
C469 C470 1.394 1_554 S
C469 C475 1.465 . S
C470 C465 1.399 . S
C470 C469 1.394 1_556 S
C470 C471 1.516 . S
C471 C470 1.516 . S
C471 C472 1.502 . S
C471 C473 1.561 . S
C471 C474 1.526 . S
C472 H456 0.959 . S
C472 H457 0.959 . S
C472 H458 0.961 . S
C472 C471 1.502 . S
C473 H459 0.960 . S
C473 H460 0.961 . S
C473 H461 0.959 . S
C473 C471 1.561 . S
C474 C471 1.526 . S
C474 C475 1.396 1_556 S
C474 C479 1.390 . S
C475 C469 1.465 . S
C475 C474 1.396 1_554 S
C475 C476 1.399 . S
C476 H462 0.929 . S
C476 C475 1.399 . S
C476 C477 1.385 . S
C477 H463 0.931 . S
C477 C476 1.385 . S
C477 C478 1.389 . S
C478 C477 1.389 . S
C478 C479 1.387 1_554 S
C479 H464 0.930 . S
C479 C474 1.390 . S
C479 C478 1.387 1_556 S
H480 C492 0.930 . S
H481 C494 0.930 . S
H482 C495 0.930 . S
H483 C499 0.959 . S
H484 C499 0.959 . S
H485 C499 0.961 . S
H486 C500 0.960 . S
H487 C500 0.961 . S
H488 C500 0.959 . S
H489 C503 0.929 . S
H490 C504 0.931 . S
H491 C506 0.930 . S
C492 H480 0.930 . S
C492 C493 1.399 . S
C492 C497 1.399 . S
C493 C492 1.399 . S
C493 C494 1.376 . S
C494 H481 0.930 . S
C494 C493 1.376 . S
C494 C495 1.388 . S
C495 H482 0.930 . S
C495 C494 1.388 . S
C495 C496 1.390 . S
C496 C495 1.390 . S
C496 C497 1.394 . S
C496 C502 1.465 . S
C497 C492 1.399 . S
C497 C496 1.394 . S
C497 C498 1.516 . S
C498 C497 1.516 . S
C498 C499 1.502 . S
C498 C500 1.561 . S
C498 C501 1.526 . S
C499 H483 0.959 . S
C499 H484 0.959 . S
C499 H485 0.961 . S
C499 C498 1.502 . S
C500 H486 0.960 . S
C500 H487 0.961 . S
C500 H488 0.959 . S
C500 C498 1.561 . S
C501 C498 1.526 . S
C501 C502 1.396 . S
C501 C506 1.390 . S
C502 C496 1.465 . S
C502 C501 1.396 . S
C502 C503 1.399 . S
C503 H489 0.929 . S
C503 C502 1.399 . S
C503 C504 1.385 . S
C504 H490 0.931 . S
C504 C503 1.385 . S
C504 C505 1.389 . S
C505 C504 1.389 . S
C505 C506 1.387 . S
C506 H491 0.930 . S
C506 C501 1.390 . S
C506 C505 1.387 . S
H507 C519 0.930 . S
H508 C521 0.930 . S
H509 C522 0.930 . S
H510 C526 0.959 . S
H511 C526 0.959 . S
H512 C526 0.961 . S
H513 C527 0.960 . S
H514 C527 0.961 . S
H515 C527 0.959 . S
H516 C530 0.929 . S
H517 C531 0.931 . S
H518 C533 0.930 . S
C519 H507 0.930 . S
C519 C520 1.399 . S
C519 C524 1.399 . S
C520 C519 1.399 . S
C520 C521 1.376 . S
C521 H508 0.930 . S
C521 C520 1.376 . S
C521 C522 1.388 . S
C522 H509 0.930 . S
C522 C521 1.388 . S
C522 C523 1.390 . S
C523 C522 1.390 . S
C523 C524 1.394 . S
C523 C529 1.465 . S
C524 C519 1.399 . S
C524 C523 1.394 . S
C524 C525 1.516 . S
C525 C524 1.516 . S
C525 C526 1.502 . S
C525 C527 1.561 . S
C525 C528 1.526 . S
C526 H510 0.959 . S
C526 H511 0.959 . S
C526 H512 0.961 . S
C526 C525 1.502 . S
C527 H513 0.960 . S
C527 H514 0.961 . S
C527 H515 0.959 . S
C527 C525 1.561 . S
C528 C525 1.526 . S
C528 C529 1.396 . S
C528 C533 1.390 . S
C529 C523 1.465 . S
C529 C528 1.396 . S
C529 C530 1.399 . S
C530 H516 0.929 . S
C530 C529 1.399 . S
C530 C531 1.385 . S
C531 H517 0.931 . S
C531 C530 1.385 . S
C531 C532 1.389 . S
C532 C531 1.389 . S
C532 C533 1.387 . S
C533 H518 0.930 . S
C533 C528 1.390 . S
C533 C532 1.387 . S
H534 C546 0.930 . S
H535 C548 0.930 . S
H536 C549 0.930 . S
H537 C553 0.959 . S
H538 C553 0.959 . S
H539 C553 0.961 . S
H540 C554 0.960 . S
H541 C554 0.961 . S
H542 C554 0.959 . S
H543 C557 0.929 . S
H544 C558 0.931 . S
H545 C560 0.930 . S
C546 H534 0.930 . S
C546 C547 1.399 . S
C546 C551 1.399 . S
C547 C546 1.399 . S
C547 C548 1.376 . S
C548 H535 0.930 . S
C548 C547 1.376 . S
C548 C549 1.388 . S
C549 H536 0.930 . S
C549 C548 1.388 . S
C549 C550 1.390 . S
C550 C549 1.390 . S
C550 C551 1.394 . S
C550 C556 1.465 . S
C551 C546 1.399 . S
C551 C550 1.394 . S
C551 C552 1.516 . S
C552 C551 1.516 . S
C552 C553 1.502 . S
C552 C554 1.561 . S
C552 C555 1.526 . S
C553 H537 0.959 . S
C553 H538 0.959 . S
C553 H539 0.961 . S
C553 C552 1.502 . S
C554 H540 0.960 . S
C554 H541 0.961 . S
C554 H542 0.959 . S
C554 C552 1.561 . S
C555 C552 1.526 . S
C555 C556 1.396 . S
C555 C560 1.390 . S
C556 C550 1.465 . S
C556 C555 1.396 . S
C556 C557 1.399 . S
C557 H543 0.929 . S
C557 C556 1.399 . S
C557 C558 1.385 . S
C558 H544 0.931 . S
C558 C557 1.385 . S
C558 C559 1.389 . S
C559 C558 1.389 . S
C559 C560 1.387 . S
C560 H545 0.930 . S
C560 C555 1.390 . S
C560 C559 1.387 . S
H561 C573 0.930 . S
H562 C575 0.930 . S
H563 C576 0.930 . S
H564 C580 0.959 . S
H565 C580 0.959 . S
H566 C580 0.961 . S
H567 C581 0.960 . S
H568 C581 0.961 . S
H569 C581 0.959 . S
H570 C584 0.929 . S
H571 C585 0.931 . S
H572 C587 0.930 . S
C573 H561 0.930 . S
C573 C574 1.399 . S
C573 C578 1.399 . S
C574 C573 1.399 . S
C574 C575 1.376 . S
C575 H562 0.930 . S
C575 C574 1.376 . S
C575 C576 1.388 . S
C576 H563 0.930 . S
C576 C575 1.388 . S
C576 C577 1.390 . S
C577 C576 1.390 . S
C577 C578 1.394 . S
C577 C583 1.465 . S
C578 C573 1.399 . S
C578 C577 1.394 . S
C578 C579 1.516 . S
C579 C578 1.516 . S
C579 C580 1.502 . S
C579 C581 1.561 . S
C579 C582 1.526 . S
C580 H564 0.959 . S
C580 H565 0.959 . S
C580 H566 0.961 . S
C580 C579 1.502 . S
C581 H567 0.960 . S
C581 H568 0.961 . S
C581 H569 0.959 . S
C581 C579 1.561 . S
C582 C579 1.526 . S
C582 C583 1.396 . S
C582 C587 1.390 . S
C583 C577 1.465 . S
C583 C582 1.396 . S
C583 C584 1.399 . S
C584 H570 0.929 . S
C584 C583 1.399 . S
C584 C585 1.385 . S
C585 H571 0.931 . S
C585 C584 1.385 . S
C585 C586 1.389 . S
C586 C585 1.389 . S
C586 C587 1.387 . S
C587 H572 0.930 . S
C587 C582 1.390 . S
C587 C586 1.387 . S
H588 C600 0.930 . S
H589 C602 0.930 . S
H590 C603 0.930 . S
H591 C607 0.959 . S
H592 C607 0.959 . S
H593 C607 0.961 . S
H594 C608 0.960 . S
H595 C608 0.961 . S
H596 C608 0.959 . S
H597 C611 0.929 . S
H598 C612 0.931 . S
H599 C614 0.930 . S
C600 H588 0.930 . S
C600 C601 1.399 . S
C600 C605 1.399 . S
C601 C600 1.399 . S
C601 C602 1.376 . S
C602 H589 0.930 . S
C602 C601 1.376 . S
C602 C603 1.388 . S
C603 H590 0.930 . S
C603 C602 1.388 . S
C603 C604 1.390 . S
C604 C603 1.390 . S
C604 C605 1.394 . S
C604 C610 1.465 . S
C605 C600 1.399 . S
C605 C604 1.394 . S
C605 C606 1.516 . S
C606 C605 1.516 . S
C606 C607 1.502 . S
C606 C608 1.561 . S
C606 C609 1.526 . S
C607 H591 0.959 . S
C607 H592 0.959 . S
C607 H593 0.961 . S
C607 C606 1.502 . S
C608 H594 0.960 . S
C608 H595 0.961 . S
C608 H596 0.959 . S
C608 C606 1.561 . S
C609 C606 1.526 . S
C609 C610 1.396 . S
C609 C614 1.390 . S
C610 C604 1.465 . S
C610 C609 1.396 . S
C610 C611 1.399 . S
C611 H597 0.929 . S
C611 C610 1.399 . S
C611 C612 1.385 . S
C612 H598 0.931 . S
C612 C611 1.385 . S
C612 C613 1.389 . S
C613 C612 1.389 . S
C613 C614 1.387 . S
C614 H599 0.930 . S
C614 C609 1.390 . S
C614 C613 1.387 . S
H615 C627 0.930 . S
H616 C629 0.930 . S
H617 C630 0.930 . S
H618 C634 0.959 . S
H619 C634 0.959 . S
H620 C634 0.961 . S
H621 C635 0.960 . S
H622 C635 0.961 . S
H623 C635 0.959 . S
H624 C638 0.929 . S
H625 C639 0.931 . S
H626 C641 0.930 . S
C627 H615 0.930 . S
C627 C628 1.399 . S
C627 C632 1.399 . S
C628 C627 1.399 . S
C628 C629 1.376 . S
C629 H616 0.930 . S
C629 C628 1.376 . S
C629 C630 1.388 . S
C630 H617 0.930 . S
C630 C629 1.388 . S
C630 C631 1.390 . S
C631 C630 1.390 . S
C631 C632 1.394 . S
C631 C637 1.465 . S
C632 C627 1.399 . S
C632 C631 1.394 . S
C632 C633 1.516 . S
C633 C632 1.516 . S
C633 C634 1.502 . S
C633 C635 1.561 . S
C633 C636 1.526 . S
C634 H618 0.959 . S
C634 H619 0.959 . S
C634 H620 0.961 . S
C634 C633 1.502 . S
C635 H621 0.960 . S
C635 H622 0.961 . S
C635 H623 0.959 . S
C635 C633 1.561 . S
C636 C633 1.526 . S
C636 C637 1.396 . S
C636 C641 1.390 . S
C637 C631 1.465 . S
C637 C636 1.396 . S
C637 C638 1.399 . S
C638 H624 0.929 . S
C638 C637 1.399 . S
C638 C639 1.385 . S
C639 H625 0.931 . S
C639 C638 1.385 . S
C639 C640 1.389 . S
C640 C639 1.389 . S
C640 C641 1.387 . S
C641 H626 0.930 . S
C641 C636 1.390 . S
C641 C640 1.387 . S
H642 C654 0.930 . S
H643 C656 0.930 . S
H644 C657 0.930 . S
H645 C661 0.959 . S
H646 C661 0.959 . S
H647 C661 0.961 . S
H648 C662 0.960 . S
H649 C662 0.961 . S
H650 C662 0.959 . S
H651 C665 0.929 . S
H652 C666 0.931 . S
H653 C668 0.930 . S
C654 H642 0.930 . S
C654 C655 1.399 . S
C654 C659 1.399 . S
C655 C654 1.399 . S
C655 C656 1.376 . S
C656 H643 0.930 . S
C656 C655 1.376 . S
C656 C657 1.388 . S
C657 H644 0.930 . S
C657 C656 1.388 . S
C657 C658 1.390 . S
C658 C657 1.390 . S
C658 C659 1.394 . S
C658 C664 1.465 . S
C659 C654 1.399 . S
C659 C658 1.394 . S
C659 C660 1.516 . S
C660 C659 1.516 . S
C660 C661 1.502 . S
C660 C662 1.561 . S
C660 C663 1.526 . S
C661 H645 0.959 . S
C661 H646 0.959 . S
C661 H647 0.961 . S
C661 C660 1.502 . S
C662 H648 0.960 . S
C662 H649 0.961 . S
C662 H650 0.959 . S
C662 C660 1.561 . S
C663 C660 1.526 . S
C663 C664 1.396 . S
C663 C668 1.390 . S
C664 C658 1.465 . S
C664 C663 1.396 . S
C664 C665 1.399 . S
C665 H651 0.929 . S
C665 C664 1.399 . S
C665 C666 1.385 . S
C666 H652 0.931 . S
C666 C665 1.385 . S
C666 C667 1.389 . S
C667 C666 1.389 . S
C667 C668 1.387 . S
C668 H653 0.930 . S
C668 C663 1.390 . S
C668 C667 1.387 . S
H669 C681 0.930 . S
H670 C683 0.930 . S
H671 C684 0.930 . S
H672 C688 0.959 . S
H673 C688 0.959 . S
H674 C688 0.961 . S
H675 C689 0.960 . S
H676 C689 0.961 . S
H677 C689 0.959 . S
H678 C692 0.929 . S
H679 C693 0.931 . S
H680 C695 0.930 . S
C681 H669 0.930 . S
C681 C682 1.399 . S
C681 C686 1.399 . S
C682 C681 1.399 . S
C682 C683 1.376 . S
C683 H670 0.930 . S
C683 C682 1.376 . S
C683 C684 1.388 . S
C684 H671 0.930 . S
C684 C683 1.388 . S
C684 C685 1.390 . S
C685 C684 1.390 . S
C685 C686 1.394 . S
C685 C691 1.465 . S
C686 C681 1.399 . S
C686 C685 1.394 . S
C686 C687 1.516 . S
C687 C686 1.516 . S
C687 C688 1.502 . S
C687 C689 1.561 . S
C687 C690 1.526 . S
C688 H672 0.959 . S
C688 H673 0.959 . S
C688 H674 0.961 . S
C688 C687 1.502 . S
C689 H675 0.960 . S
C689 H676 0.961 . S
C689 H677 0.959 . S
C689 C687 1.561 . S
C690 C687 1.526 . S
C690 C691 1.396 . S
C690 C695 1.390 . S
C691 C685 1.465 . S
C691 C690 1.396 . S
C691 C692 1.399 . S
C692 H678 0.929 . S
C692 C691 1.399 . S
C692 C693 1.385 . S
C693 H679 0.931 . S
C693 C692 1.385 . S
C693 C694 1.389 . S
C694 C693 1.389 . S
C694 C695 1.387 . S
C695 H680 0.930 . S
C695 C690 1.390 . S
C695 C694 1.387 . S
H696 C708 0.930 . S
H697 C710 0.930 . S
H698 C711 0.930 . S
H699 C715 0.959 . S
H700 C715 0.959 . S
H701 C715 0.961 . S
H702 C716 0.960 . S
H703 C716 0.961 . S
H704 C716 0.959 . S
H705 C719 0.929 . S
H706 C720 0.931 . S
H707 C722 0.930 . S
C708 H696 0.930 . S
C708 C709 1.399 . S
C708 C713 1.399 . S
C709 C708 1.399 . S
C709 C710 1.376 . S
C710 H697 0.930 . S
C710 C709 1.376 . S
C710 C711 1.388 . S
C711 H698 0.930 . S
C711 C710 1.388 . S
C711 C712 1.390 . S
C712 C711 1.390 . S
C712 C713 1.394 . S
C712 C718 1.465 . S
C713 C708 1.399 . S
C713 C712 1.394 . S
C713 C714 1.516 . S
C714 C713 1.516 . S
C714 C715 1.502 . S
C714 C716 1.561 . S
C714 C717 1.526 . S
C715 H699 0.959 . S
C715 H700 0.959 . S
C715 H701 0.961 . S
C715 C714 1.502 . S
C716 H702 0.960 . S
C716 H703 0.961 . S
C716 H704 0.959 . S
C716 C714 1.561 . S
C717 C714 1.526 . S
C717 C718 1.396 . S
C717 C722 1.390 . S
C718 C712 1.465 . S
C718 C717 1.396 . S
C718 C719 1.399 . S
C719 H705 0.929 . S
C719 C718 1.399 . S
C719 C720 1.385 . S
C720 H706 0.931 . S
C720 C719 1.385 . S
C720 C721 1.389 . S
C721 C720 1.389 . S
C721 C722 1.387 . S
C722 H707 0.930 . S
C722 C717 1.390 . S
C722 C721 1.387 . S
H723 C735 0.930 . S
H724 C737 0.930 . S
H725 C738 0.930 . S
H726 C742 0.959 . S
H727 C742 0.959 . S
H728 C742 0.961 . S
H729 C743 0.960 . S
H730 C743 0.961 . S
H731 C743 0.959 . S
H732 C746 0.929 . S
H733 C747 0.931 . S
H734 C749 0.930 . S
C735 H723 0.930 . S
C735 C736 1.399 . S
C735 C740 1.399 . S
C736 C735 1.399 . S
C736 C737 1.376 . S
C737 H724 0.930 . S
C737 C736 1.376 . S
C737 C738 1.388 . S
C738 H725 0.930 . S
C738 C737 1.388 . S
C738 C739 1.390 . S
C739 C738 1.390 . S
C739 C740 1.394 . S
C739 C745 1.465 . S
C740 C735 1.399 . S
C740 C739 1.394 . S
C740 C741 1.516 . S
C741 C740 1.516 . S
C741 C742 1.502 . S
C741 C743 1.561 . S
C741 C744 1.526 . S
C742 H726 0.959 . S
C742 H727 0.959 . S
C742 H728 0.961 . S
C742 C741 1.502 . S
C743 H729 0.960 . S
C743 H730 0.961 . S
C743 H731 0.959 . S
C743 C741 1.561 . S
C744 C741 1.526 . S
C744 C745 1.396 . S
C744 C749 1.390 . S
C745 C739 1.465 . S
C745 C744 1.396 . S
C745 C746 1.399 . S
C746 H732 0.929 . S
C746 C745 1.399 . S
C746 C747 1.385 . S
C747 H733 0.931 . S
C747 C746 1.385 . S
C747 C748 1.389 . S
C748 C747 1.389 . S
C748 C749 1.387 . S
C749 H734 0.930 . S
C749 C744 1.390 . S
C749 C748 1.387 . S
H750 C762 0.930 . S
H751 C764 0.930 . S
H752 C765 0.930 . S
H753 C769 0.959 . S
H754 C769 0.959 . S
H755 C769 0.961 . S
H756 C770 0.960 . S
H757 C770 0.961 . S
H758 C770 0.959 . S
H759 C773 0.929 . S
H760 C774 0.931 . S
H761 C776 0.930 . S
C762 H750 0.930 . S
C762 C763 1.399 . S
C762 C767 1.399 . S
C763 C762 1.399 . S
C763 C764 1.376 . S
C764 H751 0.930 . S
C764 C763 1.376 . S
C764 C765 1.388 . S
C765 H752 0.930 . S
C765 C764 1.388 . S
C765 C766 1.390 . S
C766 C765 1.390 . S
C766 C767 1.394 . S
C766 C772 1.465 . S
C767 C762 1.399 . S
C767 C766 1.394 . S
C767 C768 1.516 . S
C768 C767 1.516 . S
C768 C769 1.502 . S
C768 C770 1.561 . S
C768 C771 1.526 . S
C769 H753 0.959 . S
C769 H754 0.959 . S
C769 H755 0.961 . S
C769 C768 1.502 . S
C770 H756 0.960 . S
C770 H757 0.961 . S
C770 H758 0.959 . S
C770 C768 1.561 . S
C771 C768 1.526 . S
C771 C772 1.396 . S
C771 C776 1.390 . S
C772 C766 1.465 . S
C772 C771 1.396 . S
C772 C773 1.399 . S
C773 H759 0.929 . S
C773 C772 1.399 . S
C773 C774 1.385 . S
C774 H760 0.931 . S
C774 C773 1.385 . S
C774 C775 1.389 . S
C775 C774 1.389 . S
C775 C776 1.387 . S
C776 H761 0.930 . S
C776 C771 1.390 . S
C776 C775 1.387 . S
H777 C789 0.930 . S
H778 C791 0.930 . S
H779 C792 0.930 . S
H780 C796 0.959 . S
H781 C796 0.959 . S
H782 C796 0.961 . S
H783 C797 0.960 . S
H784 C797 0.961 . S
H785 C797 0.959 . S
H786 C800 0.929 . S
H787 C801 0.931 . S
H788 C803 0.930 . S
C789 H777 0.930 . S
C789 C790 1.399 . S
C789 C794 1.399 . S
C790 C789 1.399 . S
C790 C791 1.376 . S
C791 H778 0.930 . S
C791 C790 1.376 . S
C791 C792 1.388 . S
C792 H779 0.930 . S
C792 C791 1.388 . S
C792 C793 1.390 . S
C793 C792 1.390 . S
C793 C794 1.394 . S
C793 C799 1.465 . S
C794 C789 1.399 . S
C794 C793 1.394 . S
C794 C795 1.516 . S
C795 C794 1.516 . S
C795 C796 1.502 . S
C795 C797 1.561 . S
C795 C798 1.526 . S
C796 H780 0.959 . S
C796 H781 0.959 . S
C796 H782 0.961 . S
C796 C795 1.502 . S
C797 H783 0.960 . S
C797 H784 0.961 . S
C797 H785 0.959 . S
C797 C795 1.561 . S
C798 C795 1.526 . S
C798 C799 1.396 . S
C798 C803 1.390 . S
C799 C793 1.465 . S
C799 C798 1.396 . S
C799 C800 1.399 . S
C800 H786 0.929 . S
C800 C799 1.399 . S
C800 C801 1.385 . S
C801 H787 0.931 . S
C801 C800 1.385 . S
C801 C802 1.389 . S
C802 C801 1.389 . S
C802 C803 1.387 . S
C803 H788 0.930 . S
C803 C798 1.390 . S
C803 C802 1.387 . S
C169 C5 1.571 . S
C181 C68 1.595 . S
C196 C17 1.583 . S
C208 C62 1.552 . S
C223 C70 1.585 . S
C235 C30 1.559 . S
C250 C42 1.573 . S
C262 C56 1.589 . S
C277 C96 1.559 . S
C289 C36 1.583 . S
C304 C82 1.597 . S
C316 C44 1.567 . S
C331 C3 1.571 . S
C343 C94 1.594 . S
C358 C88 1.585 . S
C370 C23 1.551 . S
C385 C122 1.576 . S
C397 C107 1.599 . S
C412 C109 1.595 . S
C424 C153 1.555 . S
C439 C120 1.569 . S
C451 C140 1.588 . S
C466 C134 1.552 . S
C478 C147 1.575 . S
C493 C148 1.601 . S
C505 C83 1.570 . S
C520 C108 1.555 . S
C532 C101 1.582 . S
C547 C81 1.580 . S
C559 C121 1.559 . S
C574 C95 1.564 . S
C586 C133 1.594 . S
C601 C57 1.561 . S
C613 C127 1.586 . S
C628 C75 1.589 . S
C640 C135 1.573 . S
C655 C146 1.600 . S
C667 C55 1.568 . S
C682 C114 1.578 . S
C694 C69 1.560 . S
C709 C16 1.579 . S
C721 C31 1.603 . S
C736 C10 1.594 . S
C748 C18 1.562 . S
C763 C29 1.593 . S
C775 C49 1.556 . S
C790 C4 1.550 . S
C802 C43 1.577 . S
