# Generated by pormake.
# Topology ukg, (4)-cn, num edge types: 1
# Building blocks:
#     Node 0, Type 0, BuildingBlock: ICAMEG_clean_sbu_1, # of connection points: 4
#     Node 1, Type 0, BuildingBlock: ICAMEG_clean_sbu_1, # of connection points: 4
#     Node 2, Type 0, BuildingBlock: ICAMEG_clean_sbu_1, # of connection points: 4
#     Node 3, Type 0, BuildingBlock: ICAMEG_clean_sbu_1, # of connection points: 4
#     Node 4, Type 0, BuildingBlock: ICAMEG_clean_sbu_1, # of connection points: 4
#     Node 5, Type 0, BuildingBlock: ICAMEG_clean_sbu_1, # of connection points: 4
#     Node 6, Type 0, BuildingBlock: ICAMEG_clean_sbu_1, # of connection points: 4
#     Node 7, Type 0, BuildingBlock: ICAMEG_clean_sbu_1, # of connection points: 4
#     Edge 8, Type (0, 0), BuildingBlock: AJUNOK_clean_linker_0, # of connection points: 2
#     Edge 9, Type (0, 0), BuildingBlock: AJUNOK_clean_linker_0, # of connection points: 2
#     Edge 10, Type (0, 0), BuildingBlock: AJUNOK_clean_linker_0, # of connection points: 2
#     Edge 11, Type (0, 0), BuildingBlock: AJUNOK_clean_linker_0, # of connection points: 2
#     Edge 12, Type (0, 0), BuildingBlock: AJUNOK_clean_linker_0, # of connection points: 2
#     Edge 13, Type (0, 0), BuildingBlock: AJUNOK_clean_linker_0, # of connection points: 2
#     Edge 14, Type (0, 0), BuildingBlock: AJUNOK_clean_linker_0, # of connection points: 2
#     Edge 15, Type (0, 0), BuildingBlock: AJUNOK_clean_linker_0, # of connection points: 2
#     Edge 16, Type (0, 0), BuildingBlock: AJUNOK_clean_linker_0, # of connection points: 2
#     Edge 17, Type (0, 0), BuildingBlock: AJUNOK_clean_linker_0, # of connection points: 2
#     Edge 18, Type (0, 0), BuildingBlock: AJUNOK_clean_linker_0, # of connection points: 2
#     Edge 19, Type (0, 0), BuildingBlock: AJUNOK_clean_linker_0, # of connection points: 2
#     Edge 20, Type (0, 0), BuildingBlock: AJUNOK_clean_linker_0, # of connection points: 2
#     Edge 21, Type (0, 0), BuildingBlock: AJUNOK_clean_linker_0, # of connection points: 2
#     Edge 22, Type (0, 0), BuildingBlock: AJUNOK_clean_linker_0, # of connection points: 2
#     Edge 23, Type (0, 0), BuildingBlock: AJUNOK_clean_linker_0, # of connection points: 2
# Relax obj value: 0.016
# Max RMSD: 0.100
# Mean RMSD: 0.100
data_MOF--net-ukg--node1-ICAMEG_clean_sbu_1--edge1-AJUNOK_clean_linker_0
_symmetry_space_group_name_H-M    P1
_symmetry_Int_Tables_number       1
_symmetry_cell_setting            triclinic
loop_
_symmetry_equiv_pos_as_xyz
'x, y, z'
_cell_length_a     24.70859
_cell_length_b     24.698566
_cell_length_c     30.183908
_cell_angle_alpha  90.009206
_cell_angle_beta   90.034774
_cell_angle_gamma 89.993406
loop_
_atom_site_label
_atom_site_type_symbol
_atom_site_fract_x
_atom_site_fract_y
_atom_site_fract_z
_atom_type_partial_charge
Co0 Co 0.05246 0.64993 0.2157 0.0
Co1 Co 0.96746 0.67217 0.12735 0.0
O2 O 0.03774 0.65347 0.15231 0.0
C3 C 0.13825 0.72394 0.18391 0.0
O4 O 0.09978 0.75329 0.16591 0.0
C5 C 0.99311 0.5672 0.08448 0.0
O6 O 0.00301 0.54829 0.12431 0.0
O7 O 0.93058 0.61784 0.16568 0.0
O8 O 0.97881 0.61947 0.22853 0.0
H9 H 0.76668 0.70012 0.13263 0.0
H10 H 0.12894 0.59988 0.15209 0.0
O11 O 0.12655 0.6805 0.20458 0.0
H12 H 0.06736 0.45039 0.24786 0.0
H13 H 0.1699 0.61325 0.34872 0.0
H14 H 0.99227 0.67919 0.2973 0.0
H15 H 0.03521 0.54362 0.2606 0.0
H16 H 0.14841 0.6163 0.2689 0.0
O17 O 0.9781 0.61619 0.07983 0.0
H18 H 0.85839 0.69329 0.16437 0.0
H19 H 0.92616 0.68565 0.03523 0.0
H20 H 0.01189 0.67653 0.37738 0.0
H21 H 0.16247 0.50732 0.13837 0.0
H22 H 0.10125 0.64327 0.40357 0.0
H23 H 0.13141 0.43175 0.18631 0.0
O24 O 0.0228 0.7241 0.22431 0.0
H25 H 0.11324 0.73867 0.02493 0.0
H26 H 0.94559 0.78742 0.10383 0.0
H27 H 0.99189 0.85618 0.05837 0.0
H28 H 0.07636 0.8319 0.01843 0.0
H29 H 0.06579 0.67137 0.07113 0.0
H30 H 0.83523 0.69309 1.00208 0.0
H31 H 0.75461 0.69816 0.05089 0.0
O32 O 0.95582 0.72928 0.17402 0.0
C33 C 0.93665 0.60627 0.20658 0.0
C34 C 0.8015 0.69756 0.111 0.0
C35 C 0.83998 0.69348 0.03773 0.0
N36 N 0.89754 0.68901 0.1017 0.0
C37 C 0.85355 0.69401 0.12878 0.0
C38 C 0.89137 0.68957 0.05669 0.0
C39 C 0.79477 0.69652 0.06516 0.0
C40 C 0.11575 0.56732 0.17343 0.0
N41 N 0.0803 0.57719 0.20721 0.0
C42 C 0.13469 0.51495 0.16538 0.0
C43 C 0.11718 0.47256 0.19224 0.0
C44 C 0.08119 0.48298 0.22674 0.0
C45 C 0.06302 0.53584 0.23375 0.0
C46 C 0.13074 0.6276 0.33773 0.0
C47 C 0.03112 0.66437 0.30844 0.0
C48 C 0.11835 0.62943 0.29259 0.0
N49 N 0.06883 0.64713 0.27852 0.0
C50 C 0.04206 0.6631 0.35383 0.0
C51 C 0.09221 0.64447 0.36849 0.0
C52 C 0.98141 0.7476 0.20776 0.0
C53 C 0.07645 0.74974 0.04214 0.0
C54 C 0.98245 0.7767 0.08683 0.0
C55 C 0.00842 0.81572 0.06098 0.0
C56 C 0.05577 0.80206 0.03855 0.0
N57 N 0.00298 0.72551 0.09022 0.0
C58 C 0.04934 0.71177 0.06827 0.0
Co59 Co 0.35992 0.55332 0.72077 0.0
Co60 Co 0.33311 0.47083 0.63149 0.0
O61 O 0.35452 0.54034 0.65686 0.0
C62 C 0.29171 0.642 0.68653 0.0
O63 O 0.26705 0.60565 0.66211 0.0
C64 C 0.43623 0.49533 0.58427 0.0
O65 O 0.45825 0.5055 0.623 0.0
O66 O 0.38895 0.4329 0.66734 0.0
O67 O 0.38862 0.47838 0.73166 0.0
H68 H 0.30826 0.26982 0.63563 0.0
H69 H 0.41045 0.63069 0.65825 0.0
O70 O 0.33038 0.62835 0.71213 0.0
H71 H 0.5601 0.5627 0.75102 0.0
H72 H 0.39992 0.6668 0.85544 0.0
H73 H 0.33495 0.48982 0.80175 0.0
H74 H 0.46653 0.53153 0.76366 0.0
H75 H 0.39474 0.64772 0.77533 0.0
O76 O 0.38678 0.48102 0.58214 0.0
H77 H 0.3146 0.36117 0.66817 0.0
H78 H 0.31095 0.43138 0.53984 0.0
H79 H 0.33996 0.50695 0.88211 0.0
H80 H 0.50337 0.66327 0.64467 0.0
H81 H 0.37254 0.59605 0.90945 0.0
H82 H 0.57898 0.62909 0.69119 0.0
O83 O 0.28525 0.52614 0.72977 0.0
H84 H 0.26531 0.61673 0.52959 0.0
H85 H 0.21595 0.45224 0.61278 0.0
H86 H 0.14622 0.49975 0.56908 0.0
H87 H 0.17082 0.58257 0.52696 0.0
H88 H 0.33347 0.56848 0.57442 0.0
H89 H 0.30401 0.34086 0.50586 0.0
H90 H 0.30559 0.25925 0.5538 0.0
O91 O 0.2777 0.45916 0.67975 0.0
C92 C 0.40129 0.43736 0.70814 0.0
C93 C 0.30821 0.30509 0.61437 0.0
C94 C 0.30598 0.34496 0.54153 0.0
N95 N 0.31389 0.40149 0.60587 0.0
C96 C 0.31155 0.35693 0.63261 0.0
C97 C 0.30977 0.39611 0.56094 0.0
C98 C 0.30643 0.29919 0.56848 0.0
C99 C 0.44309 0.61605 0.67889 0.0
N100 N 0.43307 0.57949 0.71183 0.0
C101 C 0.49563 0.63447 0.67094 0.0
C102 C 0.53805 0.61521 0.697 0.0
C103 C 0.52749 0.57793 0.73056 0.0
C104 C 0.47444 0.56035 0.73751 0.0
C105 C 0.38574 0.62779 0.84395 0.0
C106 C 0.34972 0.52847 0.81336 0.0
C107 C 0.3826 0.61679 0.79862 0.0
N108 N 0.36489 0.56755 0.78387 0.0
C109 C 0.35223 0.53803 0.85892 0.0
C110 C 0.37042 0.58806 0.87423 0.0
C111 C 0.26052 0.48537 0.71359 0.0
C112 C 0.25409 0.58069 0.54779 0.0
C113 C 0.22678 0.48856 0.59498 0.0
C114 C 0.18722 0.51513 0.57007 0.0
C115 C 0.20107 0.56154 0.54638 0.0
N116 N 0.27865 0.50768 0.59632 0.0
C117 C 0.29257 0.55307 0.57308 0.0
Co118 Co 0.4527 0.86149 0.21711 0.0
Co119 Co 0.53816 0.83333 0.1305 0.0
O120 O 0.46783 0.85455 0.15385 0.0
C121 C 0.36438 0.78983 0.18593 0.0
O122 O 0.40189 0.75758 0.17004 0.0
C123 C 0.51483 0.93568 0.08206 0.0
O124 O 0.50475 0.95818 0.1206 0.0
O125 O 0.57462 0.8901 0.16644 0.0
O126 O 0.52745 0.88941 0.22992 0.0
H127 H 0.73836 0.80464 0.14059 0.0
H128 H 0.3792 0.91217 0.15141 0.0
O129 O 0.37763 0.83336 0.20586 0.0
H130 H 0.44374 0.06216 0.24545 0.0
H131 H 0.33339 0.90429 0.34763 0.0
H132 H 0.51254 0.83808 0.30037 0.0
H133 H 0.47359 0.96845 0.25966 0.0
H134 H 0.35612 0.89768 0.26825 0.0
O135 O 0.5289 0.88611 0.08033 0.0
H136 H 0.64591 0.81373 0.17027 0.0
H137 H 0.58149 0.81228 0.03986 0.0
H138 H 0.49169 0.84447 0.38004 0.0
H139 H 0.34783 0.00517 0.13633 0.0
H140 H 0.40149 0.87767 0.40415 0.0
H141 H 0.3803 0.08097 0.18346 0.0
O142 O 0.47935 0.78673 0.22794 0.0
H143 H 0.39421 0.76141 0.02871 0.0
H144 H 0.55957 0.71655 0.11248 0.0
H145 H 0.5139 0.64536 0.06901 0.0
H146 H 0.43064 0.6677 0.0266 0.0
H147 H 0.44094 0.83115 0.07302 0.0
H148 H 0.67334 0.80362 0.00868 0.0
H149 H 0.75268 0.80249 0.05916 0.0
O150 O 0.54834 0.77895 0.17975 0.0
C151 C 0.569 0.90227 0.20716 0.0
C152 C 0.70417 0.80605 0.11824 0.0
C153 C 0.66765 0.8055 0.0442 0.0
N154 N 0.60843 0.8141 0.10678 0.0
C155 C 0.65168 0.81074 0.13486 0.0
C156 C 0.61575 0.81031 0.06202 0.0
C157 C 0.71214 0.80449 0.07256 0.0
C158 C 0.39301 0.94485 0.17236 0.0
N159 N 0.42784 0.93484 0.20657 0.0
C160 C 0.37532 0.99747 0.16353 0.0
C161 C 0.39362 0.03998 0.18995 0.0
C162 C 0.42924 0.02946 0.22472 0.0
C163 C 0.44609 0.97633 0.23255 0.0
C164 C 0.37285 0.8898 0.33754 0.0
C165 C 0.47339 0.85304 0.31056 0.0
C166 C 0.38591 0.88583 0.29264 0.0
N167 N 0.43571 0.86771 0.27966 0.0
C168 C 0.46173 0.85637 0.35575 0.0
C169 C 0.41109 0.87491 0.36924 0.0
C170 C 0.52098 0.76207 0.21309 0.0
C171 C 0.43046 0.75117 0.04703 0.0
C172 C 0.52315 0.72641 0.09443 0.0
C173 C 0.49757 0.68602 0.06971 0.0
C174 C 0.45089 0.69859 0.04589 0.0
N175 N 0.50287 0.77786 0.09537 0.0
C176 C 0.45714 0.79051 0.0721 0.0
Co177 Co 0.14307 0.95006 0.71889 0.0
Co178 Co 0.17349 0.03233 0.62966 0.0
O179 O 0.1509 0.9635 0.6554 0.0
C180 C 0.21631 0.86419 0.68644 0.0
O181 O 0.23998 0.90122 0.66206 0.0
C182 C 0.06767 0.01035 0.58679 0.0
O183 O 0.04847 1.00073 0.62655 0.0
O184 O 0.12126 0.07319 0.66715 0.0
O185 O 0.11022 0.02331 0.72848 0.0
H186 H 0.21104 0.23151 0.63263 0.0
H187 H 0.09994 0.87128 0.65382 0.0
O188 O 0.17656 0.87653 0.71133 0.0
H189 H 0.94189 0.9309 0.74076 0.0
H190 H 0.10037 0.83469 0.85187 0.0
H191 H 0.15997 0.01463 0.80072 0.0
H192 H 0.03315 0.96539 0.75804 0.0
H193 H 0.10994 0.85391 0.77206 0.0
O194 O 0.11703 0.02407 0.58222 0.0
H195 H 0.20108 0.14063 0.66544 0.0
H196 H 0.18915 0.07105 0.53711 0.0
H197 H 0.1504 0.99739 0.88078 0.0
H198 H 0.00945 0.83543 0.63557 0.0
H199 H 0.12044 0.90681 0.90685 0.0
H200 H 0.9296 0.8655 0.67904 0.0
O201 O 0.21605 0.98085 0.73088 0.0
H202 H 0.23119 0.88381 0.52607 0.0
H203 H 0.29015 0.04647 0.60757 0.0
H204 H 0.35614 0.99639 0.56195 0.0
H205 H 0.32668 0.91448 0.52069 0.0
H206 H 0.16686 0.93453 0.57279 0.0
H207 H 0.19988 0.16103 0.50291 0.0
H208 H 0.20812 0.24223 0.55076 0.0
O209 O 0.23094 0.04138 0.67644 0.0
C210 C 0.10313 0.06673 0.70633 0.0
C211 C 0.20711 0.19642 0.6114 0.0
C212 C 0.20063 0.15687 0.5386 0.0
N213 N 0.19433 0.10068 0.60323 0.0
C214 C 0.20172 0.14484 0.62979 0.0
C215 C 0.19486 0.10601 0.55816 0.0
C216 C 0.20567 0.20241 0.5655 0.0
C217 C 0.06547 0.88408 0.67322 0.0
N218 N 0.07185 0.9203 0.70704 0.0
C219 C 0.01431 0.86381 0.66261 0.0
C220 C 0.96951 0.88075 0.68697 0.0
C221 C 0.97637 0.9175 0.72157 0.0
C222 C 0.02813 0.937 0.73115 0.0
C223 C 0.11341 0.87433 0.84093 0.0
C224 C 0.14661 0.97522 0.81177 0.0
C225 C 0.11907 0.8854 0.79579 0.0
N226 N 0.13528 0.93544 0.78173 0.0
C227 C 0.1414 0.96565 0.85717 0.0
C228 C 0.12465 0.91482 0.87176 0.0
C229 C 0.24423 0.01813 0.71282 0.0
C230 C 0.24451 0.91944 0.54389 0.0
C231 C 0.27722 0.01058 0.59009 0.0
C232 C 0.31467 0.98253 0.56412 0.0
C233 C 0.2981 0.93663 0.54093 0.0
N234 N 0.22479 0.99336 0.59295 0.0
C235 C 0.20822 0.94844 0.57025 0.0
Co236 Co 0.95228 0.35892 0.79041 0.0
Co237 Co 0.03726 0.3301 0.87795 0.0
O238 O 0.96722 0.35123 0.85379 0.0
C239 C 0.86503 0.28487 0.81987 0.0
O240 O 0.9028 0.25263 0.8354 0.0
C241 C 0.01455 0.43393 0.92481 0.0
O242 O 0.00381 0.45558 0.88606 0.0
O243 O 0.0745 0.38541 0.84106 0.0
O244 O 0.02632 0.38841 0.77809 0.0
H245 H 0.23777 0.30404 0.86898 0.0
H246 H 0.87755 0.40685 0.85651 0.0
O247 O 0.87782 0.32917 0.80094 0.0
H248 H 0.93956 0.55995 0.76482 0.0
H249 H 0.8328 0.40318 0.66021 0.0
H250 H 0.01218 0.33704 0.707 0.0
H251 H 0.97122 0.46712 0.7494 0.0
H252 H 0.85545 0.39516 0.73953 0.0
O253 O 0.02856 0.38438 0.92712 0.0
H254 H 0.14516 0.30973 0.83882 0.0
H255 H 0.08031 0.31043 0.96901 0.0
H256 H 0.99143 0.34473 0.62734 0.0
H257 H 0.84439 0.49892 0.87279 0.0
H258 H 0.90112 0.37803 0.60348 0.0
H259 H 0.87558 0.57628 0.82685 0.0
O260 O 0.98068 0.28503 0.77861 0.0
H261 H 0.8911 0.26234 0.9794 0.0
H262 H 0.05968 0.21498 0.9011 0.0
H263 H 0.01384 0.14593 0.94676 0.0
H264 H 0.92888 0.1695 0.98628 0.0
H265 H 0.93827 0.33001 0.93332 0.0
H266 H 0.17214 0.3044 1.00065 0.0
H267 H 0.2517 0.30405 0.95051 0.0
O268 O 0.04648 0.27391 0.82991 0.0
C269 C 0.0684 0.39944 0.80079 0.0
C270 C 0.2034 0.30487 0.89118 0.0
C271 C 0.16657 0.30524 0.96509 0.0
N272 N 0.10745 0.31114 0.90217 0.0
C273 C 0.15086 0.30777 0.8743 0.0
C274 C 0.11468 0.30855 0.94701 0.0
C275 C 0.21119 0.30463 0.93691 0.0
C276 C 0.8908 0.44022 0.83605 0.0
N277 N 0.92591 0.43156 0.80183 0.0
C278 C 0.8721 0.4923 0.84557 0.0
C279 C 0.88968 0.53569 0.81982 0.0
C280 C 0.92561 0.52656 0.78503 0.0
C281 C 0.94348 0.47393 0.77651 0.0
C282 C 0.87231 0.38869 0.67018 0.0
C283 C 0.97295 0.35178 0.6969 0.0
C284 C 0.88534 0.38395 0.71505 0.0
N285 N 0.93526 0.36592 0.72789 0.0
C286 C 0.96136 0.35595 0.65173 0.0
C287 C 0.91067 0.37459 0.63837 0.0
C288 C 0.02033 0.25889 0.79531 0.0
C289 C 0.92802 0.25153 0.96227 0.0
C290 C 0.02256 0.22535 0.91802 0.0
C291 C 0.99689 0.18619 0.94394 0.0
C292 C 0.94924 0.19945 0.96612 0.0
N293 N 1.00142 0.27625 0.9143 0.0
C294 C 0.95488 0.28966 0.93612 0.0
Co295 Co 0.64646 0.45474 0.29338 0.0
Co296 Co 0.67396 0.53982 0.38124 0.0
O297 O 0.65334 0.47 0.3566 0.0
C298 C 0.72049 0.36797 0.3244 0.0
O299 O 0.75236 0.40599 0.34002 0.0
C300 C 0.56827 0.51738 0.4241 0.0
O301 O 0.54899 0.50802 0.38431 0.0
O302 O 0.62059 0.57791 0.3429 0.0
O303 O 0.61639 0.52845 0.28063 0.0
H304 H 0.70548 0.73977 0.3734 0.0
H305 H 0.59848 0.38032 0.35975 0.0
O306 O 0.67669 0.3805 0.30457 0.0
H307 H 0.44571 0.44086 0.26698 0.0
H308 H 0.60522 0.33369 0.16351 0.0
H309 H 0.66738 0.5147 0.20979 0.0
H310 H 0.53855 0.47229 0.25143 0.0
H311 H 0.61228 0.35699 0.24276 0.0
O312 O 0.61763 0.53108 0.42869 0.0
H313 H 0.69886 0.6473 0.34306 0.0
H314 H 0.68647 0.58284 0.47311 0.0
H315 H 0.66065 0.49331 0.1302 0.0
H316 H 0.50641 0.34747 0.3762 0.0
H317 H 0.62937 0.40217 0.10659 0.0
H318 H 0.4292 0.37801 0.32978 0.0
O319 O 0.72022 0.48399 0.28208 0.0
H320 H 0.7375 0.39132 0.48252 0.0
H321 H 0.78713 0.56273 0.40945 0.0
H322 H 0.85444 0.51576 0.4561 0.0
H323 H 0.82969 0.42936 0.49305 0.0
H324 H 0.67173 0.43953 0.4353 0.0
H325 H 0.69396 0.67451 0.50488 0.0
H326 H 0.70131 0.75388 0.45486 0.0
O327 O 0.73199 0.54852 0.33448 0.0
C328 C 0.60611 0.57113 0.30281 0.0
C329 C 0.70207 0.70549 0.39555 0.0
C330 C 0.69541 0.66887 0.46934 0.0
N331 N 0.69228 0.60976 0.40626 0.0
C332 C 0.69868 0.65302 0.37857 0.0
C333 C 0.6915 0.61705 0.45116 0.0
C334 C 0.69969 0.71338 0.44124 0.0
C335 C 0.56521 0.39316 0.339 0.0
N336 N 0.57396 0.42777 0.30443 0.0
C337 C 0.51312 0.37466 0.34863 0.0
C338 C 0.46981 0.39188 0.32261 0.0
C339 C 0.47904 0.42718 0.2874 0.0
C340 C 0.53169 0.44489 0.27878 0.0
C341 C 0.6189 0.37354 0.17337 0.0
C342 C 0.65364 0.47507 0.1998 0.0
C343 C 0.62313 0.38693 0.2182 0.0
N344 N 0.64018 0.43725 0.23091 0.0
C345 C 0.64995 0.46314 0.15467 0.0
C346 C 0.63243 0.41199 0.14145 0.0
C347 C 0.74683 0.52304 0.2994 0.0
C348 C 0.74887 0.4288 0.46645 0.0
C349 C 0.77642 0.52483 0.42498 0.0
C350 C 0.81452 0.49859 0.45159 0.0
C351 C 0.80058 0.45016 0.47233 0.0
N352 N 0.72598 0.50343 0.41905 0.0
C353 C 0.71183 0.45624 0.43962 0.0
Co354 Co 0.55344 0.14295 0.7884 0.0
Co355 Co 0.47117 0.17176 0.87731 0.0
O356 O 0.54006 0.14999 0.85177 0.0
C357 C 0.63959 0.21695 0.81851 0.0
O358 O 0.60104 0.24603 0.83665 0.0
C359 C 0.494 0.06688 0.92127 0.0
O360 O 0.50219 0.04692 0.88153 0.0
O361 O 0.43171 0.11764 0.84068 0.0
O362 O 0.47915 0.11302 0.7774 0.0
H363 H 0.27104 0.20335 0.87465 0.0
H364 H 0.63062 0.09513 0.85273 0.0
O365 O 0.62796 0.17338 0.79796 0.0
H366 H 0.5645 0.94175 0.76319 0.0
H367 H 0.66943 0.10006 0.65593 0.0
H368 H 0.49106 0.16496 0.70623 0.0
H369 H 0.53352 0.03477 0.74759 0.0
H370 H 0.64905 0.10769 0.7357 0.0
O371 O 0.4811 0.11654 0.92556 0.0
H372 H 0.36192 0.19512 0.84156 0.0
H373 H 0.43273 0.189 0.96971 0.0
H374 H 0.50948 0.15755 0.62619 0.0
H375 H 0.66295 0.00282 0.86926 0.0
H376 H 0.59929 0.12494 0.60056 0.0
H377 H 0.6296 0.92532 0.82447 0.0
O378 O 0.52463 0.21698 0.77751 0.0
H379 H 0.62108 0.23641 0.97664 0.0
H380 H 0.45372 0.28833 0.89841 0.0
H381 H 0.50333 0.35697 0.94176 0.0
H382 H 0.58766 0.3311 0.9813 0.0
H383 H 0.57041 0.16924 0.93255 0.0
H384 H 0.34275 0.19813 1.00418 0.0
H385 H 0.261 0.20272 0.95659 0.0
O386 O 0.46051 0.22813 0.82973 0.0
C387 C 0.43711 0.10286 0.80048 0.0
C388 C 0.30638 0.20102 0.89576 0.0
C389 C 0.34662 0.19792 0.96846 0.0
N390 N 0.4025 0.19149 0.90367 0.0
C391 C 0.35794 0.19667 0.87721 0.0
C392 C 0.39748 0.1931 0.94875 0.0
C393 C 0.30078 0.20079 0.94171 0.0
C394 C 0.61646 0.0617 0.83273 0.0
N395 N 0.58045 0.07036 0.79909 0.0
C396 C 0.63471 0.00949 0.84238 0.0
C397 C 0.61592 0.96601 0.81728 0.0
C398 C 0.57936 0.9752 0.78291 0.0
C399 C 0.56191 0.02795 0.77427 0.0
C400 C 0.63012 0.11422 0.66668 0.0
C401 C 0.53001 0.15023 0.69536 0.0
C402 C 0.61838 0.11873 0.7118 0.0
N403 N 0.56875 0.13637 0.7256 0.0
C404 C 0.54031 0.14635 0.64998 0.0
C405 C 0.59073 0.12815 0.63563 0.0
C406 C 0.48538 0.24339 0.79459 0.0
C407 C 0.58437 0.24817 0.95959 0.0
C408 C 0.49051 0.27689 0.91533 0.0
C409 C 0.51834 0.31586 0.93995 0.0
C410 C 0.56562 0.3013 0.96215 0.0
N411 N 0.50919 0.22491 0.91293 0.0
C412 C 0.55543 0.21028 0.93469 0.0
Co413 Co 0.85913 0.05581 0.29345 0.0
Co414 Co 0.83343 0.96657 0.37796 0.0
O415 O 0.85328 0.03812 0.35633 0.0
C416 C 0.78708 0.14195 0.32709 0.0
O417 O 0.75698 0.10323 0.34383 0.0
C418 C 0.93559 0.99009 0.42644 0.0
O419 O 0.95734 1.00225 0.38803 0.0
O420 O 0.89043 0.93238 0.34076 0.0
O421 O 0.88678 0.98149 0.27831 0.0
H422 H 0.81061 0.76598 0.36322 0.0
H423 H 0.91023 0.12804 0.35988 0.0
O424 O 0.83069 0.1303 0.30666 0.0
H425 H 0.05956 0.065 0.2646 0.0
H426 H 0.90264 0.18011 0.16618 0.0
H427 H 0.83142 1.00128 0.20875 0.0
H428 H 0.9657 0.03594 0.25008 0.0
H429 H 0.89664 0.15387 0.24488 0.0
O430 O 0.88643 0.97473 0.42812 0.0
H431 H 0.81605 0.85979 0.33564 0.0
H432 H 0.81309 0.9196 0.46748 0.0
H433 H 0.83717 0.02537 0.12967 0.0
H434 H 0.00343 0.15852 0.37534 0.0
H435 H 0.87298 0.11553 0.10792 0.0
H436 H 0.07888 0.12679 0.32759 0.0
O437 O 0.78431 0.02908 0.28279 0.0
H438 H 0.76004 0.10555 0.4836 0.0
H439 H 0.71716 0.94268 0.39591 0.0
H440 H 0.64556 0.98575 0.44061 0.0
H441 H 0.66689 0.06776 0.48498 0.0
H442 H 0.8302 0.06146 0.438 0.0
H443 H 0.80731 0.82646 0.49655 0.0
H444 H 0.80882 0.74885 0.44429 0.0
O445 O 0.77879 0.9575 0.32872 0.0
C446 C 0.90038 0.93906 0.29976 0.0
C447 C 0.81072 0.79949 0.38634 0.0
C448 C 0.80897 0.83343 0.46118 0.0
N449 N 0.81559 0.89506 0.39998 0.0
C450 C 0.81344 0.8527 0.37091 0.0
C451 C 0.81208 0.88607 0.44455 0.0
C452 C 0.8095 0.7899 0.43182 0.0
C453 C 0.94278 0.11454 0.33868 0.0
N454 N 0.93253 0.08048 0.30401 0.0
C455 C 0.9955 0.13173 0.34771 0.0
C456 C 0.03783 0.11384 0.32095 0.0
C457 C 0.02702 0.07913 0.28562 0.0
C458 C 0.97382 0.06271 0.27763 0.0
C459 C 0.88719 0.14062 0.17521 0.0
C460 C 0.84776 0.0401 0.19953 0.0
C461 C 0.88364 0.12555 0.21972 0.0
N462 N 0.86441 0.07564 0.23137 0.0
C463 C 0.8506 0.05375 0.1547 0.0
C464 C 0.87057 0.10437 0.14253 0.0
C465 C 0.76072 0.98624 0.29654 0.0
C466 C 0.75024 0.06983 0.46442 0.0
C467 C 0.72659 0.97857 0.41481 0.0
C468 C 0.68597 1.00267 0.44023 0.0
C469 C 0.69798 0.04864 0.46514 0.0
N470 N 0.77772 0.99962 0.41425 0.0
C471 C 0.78983 0.04462 0.43863 0.0
C472 C 0.99011 0.52032 0.96408 0.0
C473 C 0.00983 0.46689 0.96612 0.0
C474 C 0.98494 0.55219 1.00237 0.0
C475 C 0.99924 0.53216 0.04455 0.0
H476 H 0.97828 0.53783 0.93263 0.0
H477 H 0.96938 0.59295 0.99873 0.0
S478 S 0.0541 0.39519 0.06833 0.0
N479 N 0.04432 0.39562 0.01426 0.0
N480 N 0.03486 0.45546 0.08584 0.0
C481 C 0.01926 0.4789 0.04713 0.0
C482 C 0.02446 0.44636 0.00811 0.0
C483 C 0.52252 0.5193 0.54476 0.0
C484 C 0.46872 0.50068 0.54279 0.0
C485 C 0.55409 0.52464 0.50634 0.0
C486 C 0.53336 0.51163 0.46411 0.0
H487 H 0.54062 0.52997 0.57627 0.0
H488 H 0.59521 0.53917 0.50995 0.0
S489 S 0.39496 0.46054 0.44039 0.0
N490 N 0.39618 0.46902 0.4946 0.0
N491 N 0.45545 0.47881 0.42278 0.0
C492 C 0.47964 0.49294 0.46157 0.0
C493 C 0.44741 0.48755 0.50072 0.0
C494 C 0.4945 0.02277 0.04234 0.0
C495 C 0.50979 0.9679 0.04042 0.0
C496 C 0.48956 0.05419 1.00378 0.0
C497 C 0.49968 0.03223 0.96146 0.0
H498 H 0.4862 0.04187 0.07392 0.0
H499 H 0.47766 0.09617 0.00737 0.0
S500 S 0.54089 0.8905 0.93778 0.0
N501 N 0.53478 0.89287 0.99217 0.0
N502 N 0.52589 0.95188 0.92006 0.0
C503 C 0.515 0.97741 0.95896 0.0
C504 C 0.51993 0.94532 0.99826 0.0
C505 C 0.02147 0.01441 0.46632 0.0
C506 C 0.96805 0.99474 0.468 0.0
C507 C 0.05306 0.01934 0.50477 0.0
C508 C 0.03269 0.00489 0.54677 0.0
H509 H 0.03928 0.02629 0.43501 0.0
H510 H 0.09388 0.03476 0.50138 0.0
S511 S 0.89539 0.95048 0.56967 0.0
N512 N 0.89625 0.9604 0.51562 0.0
N513 N 0.95558 0.96945 0.58757 0.0
C514 C 0.97935 0.98508 0.54903 0.0
C515 C 0.9471 0.98008 0.50982 0.0
C516 C 0.23736 0.70333 0.18229 0.0
C517 C 0.19541 0.74189 0.18179 0.0
C518 C 0.2919 0.7192 0.18226 0.0
C519 C 0.30656 0.77424 0.1829 0.0
H520 H 0.22798 0.66047 0.18274 0.0
H521 H 0.32277 0.68805 0.18299 0.0
S522 S 0.21222 0.89118 0.18126 0.0
N523 N 0.17228 0.83757 0.18083 0.0
N524 N 0.27466 0.86738 0.1821 0.0
C525 C 0.26502 0.81321 0.18209 0.0
C526 C 0.2095 0.79705 0.18114 0.0
C527 C 0.26348 0.72631 0.72556 0.0
C528 C 0.27331 0.69873 0.68562 0.0
C529 C 0.24423 0.77976 0.72552 0.0
C530 C 0.23613 0.80791 0.68557 0.0
H531 H 0.26966 0.70604 0.757 0.0
H532 H 0.23634 0.79947 0.75694 0.0
S533 S 0.2574 0.75412 0.57229 0.0
N534 N 0.27347 0.70318 0.60525 0.0
N535 N 0.23983 0.80461 0.60521 0.0
C536 C 0.2468 0.78111 0.6455 0.0
C537 C 0.26471 0.72617 0.64551 0.0
C538 C 0.73889 0.19702 0.81992 0.0
C539 C 0.69661 0.2352 0.82096 0.0
C540 C 0.79328 0.21335 0.82099 0.0
C541 C 0.80741 0.26852 0.82199 0.0
H542 H 0.72989 0.15412 0.81836 0.0
H543 H 0.82447 0.18255 0.81979 0.0
S544 S 0.71204 0.38456 0.82558 0.0
N545 N 0.67261 0.33062 0.82412 0.0
N546 N 0.77468 0.36132 0.82484 0.0
C547 C 0.76552 0.30709 0.82329 0.0
C548 C 0.71018 0.29043 0.82315 0.0
C549 C 0.79152 0.29577 0.32848 0.0
C550 C 0.73645 0.31026 0.32791 0.0
C551 C 0.80755 0.24123 0.32866 0.0
C552 C 0.76913 0.19914 0.32945 0.0
H553 H 0.82253 0.32675 0.32745 0.0
H554 H 0.85041 0.23195 0.32804 0.0
S555 S 0.61982 0.21558 0.33052 0.0
N556 N 0.64345 0.27807 0.32931 0.0
N557 N 0.67353 0.17579 0.33091 0.0
C558 C 0.71395 0.21311 0.33028 0.0
C559 C 0.69764 0.26859 0.32914 0.0
C560 C 0.79607 0.54941 0.23029 0.0
C561 C 0.7967 0.5409 0.27634 0.0
C562 C 0.84185 0.56895 0.20787 0.0
C563 C 0.89057 0.58016 0.2305 0.0
H564 H 0.75943 0.54246 0.2115 0.0
H565 H 0.83844 0.57631 0.17261 0.0
S566 S 0.91488 0.55741 0.35075 0.0
N567 N 0.85099 0.54033 0.34318 0.0
N568 N 0.93724 0.57634 0.30165 0.0
C569 C 0.89224 0.56929 0.27642 0.0
C570 C 0.84531 0.54998 0.29917 0.0
C571 C 0.41287 0.37739 0.77419 0.0
C572 C 0.42701 0.39038 0.73032 0.0
C573 C 0.43212 0.33015 0.79462 0.0
C574 C 0.4673 0.29435 0.77242 0.0
H575 H 0.3851 0.40289 0.79247 0.0
H576 H 0.41872 0.32155 0.82802 0.0
S577 S 0.5195 0.31233 0.65772 0.0
N578 N 0.47956 0.36501 0.66566 0.0
N579 N 0.51751 0.27734 0.70427 0.0
C580 C 0.48324 0.30805 0.7289 0.0
C581 C 0.46263 0.35566 0.70782 0.0
C582 C 0.63086 0.90836 0.27225 0.0
C583 C 0.61533 0.92755 0.2303 0.0
C584 C 0.67763 0.92769 0.29329 0.0
C585 C 0.71018 0.96808 0.27381 0.0
H586 H 0.60778 0.87666 0.2883 0.0
H587 H 0.68844 0.91025 0.32496 0.0
S588 S 0.68438 0.03403 0.16498 0.0
N589 N 0.63477 0.98972 0.17021 0.0
N590 N 0.7212 0.0283 0.21039 0.0
C591 C 0.6938 0.98886 0.2323 0.0
C592 C 0.64686 0.96801 0.2104 0.0
C593 C 0.05584 0.21116 0.72853 0.0
C594 C 0.03771 0.20893 0.77255 0.0
C595 C 0.07505 0.16466 0.70691 0.0
C596 C 0.07656 0.11389 0.72841 0.0
H597 H 0.05667 0.24942 0.71105 0.0
H598 H 0.09006 0.16908 0.67341 0.0
S599 S 0.02637 0.0862 0.84238 0.0
N600 N 0.01739 0.15189 0.83563 0.0
N601 N 0.05325 0.06434 0.79564 0.0
C602 C 0.05604 0.11105 0.772 0.0
C603 C 0.0368 0.15859 0.79393 0.0
C604 C 0.12907 0.40893 0.73517 0.0
C605 C 0.11465 0.42545 0.77815 0.0
C606 C 0.17599 0.42865 0.71459 0.0
C607 C 0.2098 0.46673 0.7357 0.0
H608 H 0.10504 0.37893 0.7179 0.0
H609 H 0.18596 0.41333 0.68201 0.0
S610 S 0.18712 0.5255 0.84776 0.0
N611 N 0.13637 0.48287 0.84085 0.0
N612 N 0.22315 0.52206 0.80182 0.0
C613 C 0.19448 0.48493 0.7783 0.0
C614 C 0.14737 0.46374 0.7996 0.0
C615 C 0.59733 0.63108 0.23672 0.0
C616 C 0.58033 0.61718 0.27966 0.0
C617 C 0.57775 0.67767 0.21553 0.0
C618 C 0.5393 0.71169 0.23596 0.0
H619 H 0.62759 0.6069 0.21993 0.0
H620 H 0.59349 0.68722 0.18302 0.0
S621 S 0.47931 0.69044 0.34768 0.0
N622 N 0.52213 0.63966 0.34165 0.0
N623 N 0.48319 0.72588 0.30142 0.0
C624 C 0.52064 0.69693 0.27852 0.0
C625 C 0.54171 0.65013 0.30046 0.0
C626 C 0.38029 0.08655 0.73315 0.0
C627 C 0.3903 0.07669 0.77833 0.0
C628 C 0.33337 0.06718 0.71232 0.0
C629 C 0.29487 0.03607 0.7355 0.0
H630 H 0.40793 0.11113 0.71395 0.0
H631 H 0.32717 0.07723 0.67779 0.0
S632 S 0.30426 0.99567 0.85403 0.0
N633 N 0.35911 0.03228 0.84538 0.0
N634 N 0.27196 0.99416 0.80618 0.0
C635 C 0.30553 0.02427 0.78046 0.0
C636 C 0.35285 0.04501 0.80186 0.0
C637 C 0.98568 0.81651 0.26929 0.0
C638 C 0.96139 0.79804 0.22966 0.0
C639 C 0.96636 0.86256 0.29162 0.0
C640 C 0.92276 0.89265 0.27478 0.0
H641 H 0.01946 0.79482 0.28374 0.0
H642 H 0.98566 0.8747 0.3223 0.0
S643 S 0.84247 0.861 0.17422 0.0
N644 N 0.88928 0.81342 0.17591 0.0
N645 N 0.854 0.89975 0.21771 0.0
C646 C 0.89804 0.87494 0.23546 0.0
C647 C 0.91708 0.82777 0.21296 0.0
loop_
_geom_bond_atom_site_label_1
_geom_bond_atom_site_label_2
_geom_bond_distance
_geom_bond_site_symmetry_2
_ccdc_geom_bond_type
Co0 O2 2.143 . S
Co0 O8 2.074 1_455 S
Co0 O11 2.093 . S
Co0 O24 2.097 . S
Co0 N41 2.151 . S
Co0 N49 2.214 . S
Co1 O2 2.160 1_655 S
Co1 O7 2.058 . S
Co1 O17 2.057 . S
Co1 O32 2.037 . S
Co1 N36 2.145 . S
Co1 N57 2.257 . S
O2 Co0 2.143 . S
O2 Co1 2.160 1_455 S
C3 O4 1.278 . S
C3 O11 1.224 . S
O4 C3 1.278 . S
C5 O6 1.245 . S
C5 O17 1.232 1_455 S
O6 C5 1.245 . S
O7 Co1 2.058 . S
O7 C33 1.269 . S
O8 Co0 2.074 1_655 S
O8 C33 1.257 . S
H9 C34 0.930 . S
H10 C40 0.930 . S
O11 Co0 2.093 . S
O11 C3 1.224 . S
H12 C44 0.929 . S
H13 C46 0.930 . S
H14 C47 0.930 1_655 S
H15 C45 0.929 . S
H16 C48 0.928 . S
O17 Co1 2.057 . S
O17 C5 1.232 1_655 S
H18 C37 0.929 . S
H19 C38 0.929 . S
H20 C50 0.931 1_655 S
H21 C42 0.929 . S
H22 C51 0.930 . S
H23 C43 0.931 . S
O24 Co0 2.097 . S
O24 C52 1.214 1_455 S
H25 C53 0.929 . S
H26 C54 0.929 . S
H27 C55 0.930 . S
H28 C56 0.929 . S
H29 C58 0.930 . S
H30 C35 0.930 . S
H31 C39 0.930 . S
O32 Co1 2.037 . S
O32 C52 1.234 . S
C33 O7 1.269 . S
C33 O8 1.257 . S
C34 H9 0.930 . S
C34 C37 1.388 . S
C34 C39 1.418 . S
C35 H30 0.930 . S
C35 C38 1.404 . S
C35 C39 1.353 . S
N36 Co1 2.145 . S
N36 C37 1.397 . S
N36 C38 1.334 . S
C37 H18 0.929 . S
C37 C34 1.388 . S
C37 N36 1.397 . S
C38 H19 0.929 . S
C38 C35 1.404 . S
C38 N36 1.334 . S
C39 H31 0.930 . S
C39 C34 1.418 . S
C39 C35 1.353 . S
C40 H10 0.930 . S
C40 N41 1.330 . S
C40 C42 1.446 . S
N41 Co0 2.151 . S
N41 C40 1.330 . S
N41 C45 1.418 . S
C42 H21 0.929 . S
C42 C40 1.446 . S
C42 C43 1.332 . S
C43 H23 0.931 . S
C43 C42 1.332 . S
C43 C44 1.267 . S
C44 H12 0.929 . S
C44 C43 1.267 . S
C44 C45 1.251 . S
C45 H15 0.929 . S
C45 N41 1.418 . S
C45 C44 1.251 . S
C46 H13 0.930 . S
C46 C48 1.406 . S
C46 C51 1.261 . S
C47 H14 0.930 1_455 S
C47 N49 1.325 . S
C47 C50 1.357 . S
C48 H16 0.928 . S
C48 C46 1.406 . S
C48 N49 1.261 . S
N49 Co0 2.214 . S
N49 C47 1.325 . S
N49 C48 1.261 . S
C50 H20 0.931 1_455 S
C50 C47 1.357 . S
C50 C51 1.312 . S
C51 H22 0.930 . S
C51 C46 1.261 . S
C51 C50 1.312 . S
C52 O24 1.214 1_655 S
C52 O32 1.234 . S
C53 H25 0.929 . S
C53 C56 1.391 . S
C53 C58 1.391 . S
C54 H26 0.929 . S
C54 C55 1.390 . S
C54 N57 1.391 . S
C55 H27 0.930 . S
C55 C54 1.390 . S
C55 C56 1.392 1_655 S
C56 H28 0.929 . S
C56 C53 1.391 . S
C56 C55 1.392 1_455 S
N57 Co1 2.257 . S
N57 C54 1.391 . S
N57 C58 1.388 1_655 S
C58 H29 0.930 . S
C58 C53 1.391 . S
C58 N57 1.388 1_455 S
Co59 O61 2.143 . S
Co59 O67 2.074 . S
Co59 O70 2.093 . S
Co59 O83 2.097 . S
Co59 N100 2.151 . S
Co59 N108 2.214 . S
Co60 O61 2.160 . S
Co60 O66 2.058 . S
Co60 O76 2.057 . S
Co60 O91 2.037 . S
Co60 N95 2.145 . S
Co60 N116 2.257 . S
O61 Co59 2.143 . S
O61 Co60 2.160 . S
C62 O63 1.278 . S
C62 O70 1.224 . S
O63 C62 1.278 . S
C64 O65 1.245 . S
C64 O76 1.232 . S
O65 C64 1.245 . S
O66 Co60 2.058 . S
O66 C92 1.269 . S
O67 Co59 2.074 . S
O67 C92 1.257 . S
H68 C93 0.930 . S
H69 C99 0.930 . S
O70 Co59 2.093 . S
O70 C62 1.224 . S
H71 C103 0.929 . S
H72 C105 0.930 . S
H73 C106 0.930 . S
H74 C104 0.929 . S
H75 C107 0.928 . S
O76 Co60 2.057 . S
O76 C64 1.232 . S
H77 C96 0.929 . S
H78 C97 0.929 . S
H79 C109 0.931 . S
H80 C101 0.929 . S
H81 C110 0.930 . S
H82 C102 0.931 . S
O83 Co59 2.097 . S
O83 C111 1.214 . S
H84 C112 0.929 . S
H85 C113 0.929 . S
H86 C114 0.930 . S
H87 C115 0.929 . S
H88 C117 0.930 . S
H89 C94 0.930 . S
H90 C98 0.930 . S
O91 Co60 2.037 . S
O91 C111 1.234 . S
C92 O66 1.269 . S
C92 O67 1.257 . S
C93 H68 0.930 . S
C93 C96 1.388 . S
C93 C98 1.418 . S
C94 H89 0.930 . S
C94 C97 1.404 . S
C94 C98 1.353 . S
N95 Co60 2.145 . S
N95 C96 1.397 . S
N95 C97 1.334 . S
C96 H77 0.929 . S
C96 C93 1.388 . S
C96 N95 1.397 . S
C97 H78 0.929 . S
C97 C94 1.404 . S
C97 N95 1.334 . S
C98 H90 0.930 . S
C98 C93 1.418 . S
C98 C94 1.353 . S
C99 H69 0.930 . S
C99 N100 1.330 . S
C99 C101 1.446 . S
N100 Co59 2.151 . S
N100 C99 1.330 . S
N100 C104 1.418 . S
C101 H80 0.929 . S
C101 C99 1.446 . S
C101 C102 1.332 . S
C102 H82 0.931 . S
C102 C101 1.332 . S
C102 C103 1.267 . S
C103 H71 0.929 . S
C103 C102 1.267 . S
C103 C104 1.251 . S
C104 H74 0.929 . S
C104 N100 1.418 . S
C104 C103 1.251 . S
C105 H72 0.930 . S
C105 C107 1.406 . S
C105 C110 1.261 . S
C106 H73 0.930 . S
C106 N108 1.325 . S
C106 C109 1.357 . S
C107 H75 0.928 . S
C107 C105 1.406 . S
C107 N108 1.261 . S
N108 Co59 2.214 . S
N108 C106 1.325 . S
N108 C107 1.261 . S
C109 H79 0.931 . S
C109 C106 1.357 . S
C109 C110 1.312 . S
C110 H81 0.930 . S
C110 C105 1.261 . S
C110 C109 1.312 . S
C111 O83 1.214 . S
C111 O91 1.234 . S
C112 H84 0.929 . S
C112 C115 1.391 . S
C112 C117 1.391 . S
C113 H85 0.929 . S
C113 C114 1.390 . S
C113 N116 1.391 . S
C114 H86 0.930 . S
C114 C113 1.390 . S
C114 C115 1.392 . S
C115 H87 0.929 . S
C115 C112 1.391 . S
C115 C114 1.392 . S
N116 Co60 2.257 . S
N116 C113 1.391 . S
N116 C117 1.388 . S
C117 H88 0.930 . S
C117 C112 1.391 . S
C117 N116 1.388 . S
Co118 O120 2.143 . S
Co118 O126 2.074 . S
Co118 O129 2.093 . S
Co118 O142 2.097 . S
Co118 N159 2.151 . S
Co118 N167 2.214 . S
Co119 O120 2.160 . S
Co119 O125 2.058 . S
Co119 O135 2.057 . S
Co119 O150 2.037 . S
Co119 N154 2.145 . S
Co119 N175 2.257 . S
O120 Co118 2.143 . S
O120 Co119 2.160 . S
C121 O122 1.278 . S
C121 O129 1.224 . S
O122 C121 1.278 . S
C123 O124 1.245 . S
C123 O135 1.232 . S
O124 C123 1.245 . S
O125 Co119 2.058 . S
O125 C151 1.269 . S
O126 Co118 2.074 . S
O126 C151 1.257 . S
H127 C152 0.930 . S
H128 C158 0.930 . S
O129 Co118 2.093 . S
O129 C121 1.224 . S
H130 C162 0.929 1_545 S
H131 C164 0.930 . S
H132 C165 0.930 . S
H133 C163 0.929 . S
H134 C166 0.928 . S
O135 Co119 2.057 . S
O135 C123 1.232 . S
H136 C155 0.929 . S
H137 C156 0.929 . S
H138 C168 0.931 . S
H139 C160 0.929 . S
H140 C169 0.930 . S
H141 C161 0.931 . S
O142 Co118 2.097 . S
O142 C170 1.214 . S
H143 C171 0.929 . S
H144 C172 0.929 . S
H145 C173 0.930 . S
H146 C174 0.929 . S
H147 C176 0.930 . S
H148 C153 0.930 . S
H149 C157 0.930 . S
O150 Co119 2.037 . S
O150 C170 1.234 . S
C151 O125 1.269 . S
C151 O126 1.257 . S
C152 H127 0.930 . S
C152 C155 1.388 . S
C152 C157 1.418 . S
C153 H148 0.930 . S
C153 C156 1.404 . S
C153 C157 1.353 . S
N154 Co119 2.145 . S
N154 C155 1.397 . S
N154 C156 1.334 . S
C155 H136 0.929 . S
C155 C152 1.388 . S
C155 N154 1.397 . S
C156 H137 0.929 . S
C156 C153 1.404 . S
C156 N154 1.334 . S
C157 H149 0.930 . S
C157 C152 1.418 . S
C157 C153 1.353 . S
C158 H128 0.930 . S
C158 N159 1.330 . S
C158 C160 1.446 . S
N159 Co118 2.151 . S
N159 C158 1.330 . S
N159 C163 1.418 . S
C160 H139 0.929 . S
C160 C158 1.446 . S
C160 C161 1.332 1_565 S
C161 H141 0.931 . S
C161 C160 1.332 1_545 S
C161 C162 1.267 1_545 S
C162 H130 0.929 1_565 S
C162 C161 1.267 1_565 S
C162 C163 1.251 . S
C163 H133 0.929 . S
C163 N159 1.418 . S
C163 C162 1.251 . S
C164 H131 0.930 . S
C164 C166 1.406 . S
C164 C169 1.261 . S
C165 H132 0.930 . S
C165 N167 1.325 . S
C165 C168 1.357 . S
C166 H134 0.928 . S
C166 C164 1.406 . S
C166 N167 1.261 . S
N167 Co118 2.214 . S
N167 C165 1.325 . S
N167 C166 1.261 . S
C168 H138 0.931 . S
C168 C165 1.357 . S
C168 C169 1.312 . S
C169 H140 0.930 . S
C169 C164 1.261 . S
C169 C168 1.312 . S
C170 O142 1.214 . S
C170 O150 1.234 . S
C171 H143 0.929 . S
C171 C174 1.391 . S
C171 C176 1.391 . S
C172 H144 0.929 . S
C172 C173 1.390 . S
C172 N175 1.391 . S
C173 H145 0.930 . S
C173 C172 1.390 . S
C173 C174 1.392 . S
C174 H146 0.929 . S
C174 C171 1.391 . S
C174 C173 1.392 . S
N175 Co119 2.257 . S
N175 C172 1.391 . S
N175 C176 1.388 . S
C176 H147 0.930 . S
C176 C171 1.391 . S
C176 N175 1.388 . S
Co177 O179 2.143 . S
Co177 O185 2.074 1_565 S
Co177 O188 2.093 . S
Co177 O201 2.097 . S
Co177 N218 2.151 . S
Co177 N226 2.214 . S
Co178 O179 2.160 1_545 S
Co178 O184 2.058 . S
Co178 O194 2.057 . S
Co178 O209 2.037 . S
Co178 N213 2.145 . S
Co178 N234 2.257 . S
O179 Co177 2.143 . S
O179 Co178 2.160 1_565 S
C180 O181 1.278 . S
C180 O188 1.224 . S
O181 C180 1.278 . S
C182 O183 1.245 . S
C182 O194 1.232 1_565 S
O183 C182 1.245 . S
O184 Co178 2.058 . S
O184 C210 1.269 . S
O185 Co177 2.074 1_545 S
O185 C210 1.257 . S
H186 C211 0.930 . S
H187 C217 0.930 . S
O188 Co177 2.093 . S
O188 C180 1.224 . S
H189 C221 0.929 1_655 S
H190 C223 0.930 . S
H191 C224 0.930 1_545 S
H192 C222 0.929 . S
H193 C225 0.928 . S
O194 Co178 2.057 . S
O194 C182 1.232 1_545 S
H195 C214 0.929 . S
H196 C215 0.929 . S
H197 C227 0.931 1_545 S
H198 C219 0.929 . S
H199 C228 0.930 . S
H200 C220 0.931 . S
O201 Co177 2.097 . S
O201 C229 1.214 1_565 S
H202 C230 0.929 . S
H203 C231 0.929 . S
H204 C232 0.930 . S
H205 C233 0.929 . S
H206 C235 0.930 . S
H207 C212 0.930 . S
H208 C216 0.930 . S
O209 Co178 2.037 . S
O209 C229 1.234 . S
C210 O184 1.269 . S
C210 O185 1.257 . S
C211 H186 0.930 . S
C211 C214 1.388 . S
C211 C216 1.418 . S
C212 H207 0.930 . S
C212 C215 1.404 . S
C212 C216 1.353 . S
N213 Co178 2.145 . S
N213 C214 1.397 . S
N213 C215 1.334 . S
C214 H195 0.929 . S
C214 C211 1.388 . S
C214 N213 1.397 . S
C215 H196 0.929 . S
C215 C212 1.404 . S
C215 N213 1.334 . S
C216 H208 0.930 . S
C216 C211 1.418 . S
C216 C212 1.353 . S
C217 H187 0.930 . S
C217 N218 1.330 . S
C217 C219 1.446 . S
N218 Co177 2.151 . S
N218 C217 1.330 . S
N218 C222 1.418 . S
C219 H198 0.929 . S
C219 C217 1.446 . S
C219 C220 1.332 1_455 S
C220 H200 0.931 . S
C220 C219 1.332 1_655 S
C220 C221 1.267 1_655 S
C221 H189 0.929 1_455 S
C221 C220 1.267 1_455 S
C221 C222 1.251 . S
C222 H192 0.929 . S
C222 N218 1.418 . S
C222 C221 1.251 . S
C223 H190 0.930 . S
C223 C225 1.406 . S
C223 C228 1.261 . S
C224 H191 0.930 1_565 S
C224 N226 1.325 . S
C224 C227 1.357 . S
C225 H193 0.928 . S
C225 C223 1.406 . S
C225 N226 1.261 . S
N226 Co177 2.214 . S
N226 C224 1.325 . S
N226 C225 1.261 . S
C227 H197 0.931 1_565 S
C227 C224 1.357 . S
C227 C228 1.312 . S
C228 H199 0.930 . S
C228 C223 1.261 . S
C228 C227 1.312 . S
C229 O201 1.214 1_545 S
C229 O209 1.234 . S
C230 H202 0.929 . S
C230 C233 1.391 . S
C230 C235 1.391 . S
C231 H203 0.929 . S
C231 C232 1.390 . S
C231 N234 1.391 . S
C232 H204 0.930 . S
C232 C231 1.390 . S
C232 C233 1.392 1_545 S
C233 H205 0.929 . S
C233 C230 1.391 . S
C233 C232 1.392 1_565 S
N234 Co178 2.257 . S
N234 C231 1.391 . S
N234 C235 1.388 1_545 S
C235 H206 0.930 . S
C235 C230 1.391 . S
C235 N234 1.388 1_565 S
Co236 O238 2.143 . S
Co236 O244 2.074 1_655 S
Co236 O247 2.093 . S
Co236 O260 2.097 . S
Co236 N277 2.151 . S
Co236 N285 2.214 . S
Co237 O238 2.160 1_455 S
Co237 O243 2.058 . S
Co237 O253 2.057 . S
Co237 O268 2.037 . S
Co237 N272 2.145 . S
Co237 N293 2.257 . S
O238 Co236 2.143 . S
O238 Co237 2.160 1_655 S
C239 O240 1.278 . S
C239 O247 1.224 . S
O240 C239 1.278 . S
C241 O242 1.245 . S
C241 O253 1.232 1_655 S
O242 C241 1.245 . S
O243 Co237 2.058 . S
O243 C269 1.269 . S
O244 Co236 2.074 1_455 S
O244 C269 1.257 . S
H245 C270 0.930 . S
H246 C276 0.930 . S
O247 Co236 2.093 . S
O247 C239 1.224 . S
H248 C280 0.929 . S
H249 C282 0.930 . S
H250 C283 0.930 1_455 S
H251 C281 0.929 . S
H252 C284 0.928 . S
O253 Co237 2.057 . S
O253 C241 1.232 1_455 S
H254 C273 0.929 . S
H255 C274 0.929 . S
H256 C286 0.931 1_455 S
H257 C278 0.929 . S
H258 C287 0.930 . S
H259 C279 0.931 . S
O260 Co236 2.097 . S
O260 C288 1.214 1_655 S
H261 C289 0.929 . S
H262 C290 0.929 . S
H263 C291 0.930 . S
H264 C292 0.929 . S
H265 C294 0.930 . S
H266 C271 0.930 . S
H267 C275 0.930 . S
O268 Co237 2.037 . S
O268 C288 1.234 . S
C269 O243 1.269 . S
C269 O244 1.257 . S
C270 H245 0.930 . S
C270 C273 1.388 . S
C270 C275 1.418 . S
C271 H266 0.930 . S
C271 C274 1.404 . S
C271 C275 1.353 . S
N272 Co237 2.145 . S
N272 C273 1.397 . S
N272 C274 1.334 . S
C273 H254 0.929 . S
C273 C270 1.388 . S
C273 N272 1.397 . S
C274 H255 0.929 . S
C274 C271 1.404 . S
C274 N272 1.334 . S
C275 H267 0.930 . S
C275 C270 1.418 . S
C275 C271 1.353 . S
C276 H246 0.930 . S
C276 N277 1.330 . S
C276 C278 1.446 . S
N277 Co236 2.151 . S
N277 C276 1.330 . S
N277 C281 1.418 . S
C278 H257 0.929 . S
C278 C276 1.446 . S
C278 C279 1.332 . S
C279 H259 0.931 . S
C279 C278 1.332 . S
C279 C280 1.267 . S
C280 H248 0.929 . S
C280 C279 1.267 . S
C280 C281 1.251 . S
C281 H251 0.929 . S
C281 N277 1.418 . S
C281 C280 1.251 . S
C282 H249 0.930 . S
C282 C284 1.406 . S
C282 C287 1.261 . S
C283 H250 0.930 1_655 S
C283 N285 1.325 . S
C283 C286 1.357 . S
C284 H252 0.928 . S
C284 C282 1.406 . S
C284 N285 1.261 . S
N285 Co236 2.214 . S
N285 C283 1.325 . S
N285 C284 1.261 . S
C286 H256 0.931 1_655 S
C286 C283 1.357 . S
C286 C287 1.312 . S
C287 H258 0.930 . S
C287 C282 1.261 . S
C287 C286 1.312 . S
C288 O260 1.214 1_455 S
C288 O268 1.234 . S
C289 H261 0.929 . S
C289 C292 1.391 . S
C289 C294 1.391 . S
C290 H262 0.929 . S
C290 C291 1.390 . S
C290 N293 1.391 . S
C291 H263 0.930 . S
C291 C290 1.390 . S
C291 C292 1.392 1_455 S
C292 H264 0.929 . S
C292 C289 1.391 . S
C292 C291 1.392 1_655 S
N293 Co237 2.257 . S
N293 C290 1.391 . S
N293 C294 1.388 1_455 S
C294 H265 0.930 . S
C294 C289 1.391 . S
C294 N293 1.388 1_655 S
Co295 O297 2.143 . S
Co295 O303 2.074 . S
Co295 O306 2.093 . S
Co295 O319 2.097 . S
Co295 N336 2.151 . S
Co295 N344 2.214 . S
Co296 O297 2.160 . S
Co296 O302 2.058 . S
Co296 O312 2.057 . S
Co296 O327 2.037 . S
Co296 N331 2.145 . S
Co296 N352 2.257 . S
O297 Co295 2.143 . S
O297 Co296 2.160 . S
C298 O299 1.278 . S
C298 O306 1.224 . S
O299 C298 1.278 . S
C300 O301 1.245 . S
C300 O312 1.232 . S
O301 C300 1.245 . S
O302 Co296 2.058 . S
O302 C328 1.269 . S
O303 Co295 2.074 . S
O303 C328 1.257 . S
H304 C329 0.930 . S
H305 C335 0.930 . S
O306 Co295 2.093 . S
O306 C298 1.224 . S
H307 C339 0.929 . S
H308 C341 0.930 . S
H309 C342 0.930 . S
H310 C340 0.929 . S
H311 C343 0.928 . S
O312 Co296 2.057 . S
O312 C300 1.232 . S
H313 C332 0.929 . S
H314 C333 0.929 . S
H315 C345 0.931 . S
H316 C337 0.929 . S
H317 C346 0.930 . S
H318 C338 0.931 . S
O319 Co295 2.097 . S
O319 C347 1.214 . S
H320 C348 0.929 . S
H321 C349 0.929 . S
H322 C350 0.930 . S
H323 C351 0.929 . S
H324 C353 0.930 . S
H325 C330 0.930 . S
H326 C334 0.930 . S
O327 Co296 2.037 . S
O327 C347 1.234 . S
C328 O302 1.269 . S
C328 O303 1.257 . S
C329 H304 0.930 . S
C329 C332 1.388 . S
C329 C334 1.418 . S
C330 H325 0.930 . S
C330 C333 1.404 . S
C330 C334 1.353 . S
N331 Co296 2.145 . S
N331 C332 1.397 . S
N331 C333 1.334 . S
C332 H313 0.929 . S
C332 C329 1.388 . S
C332 N331 1.397 . S
C333 H314 0.929 . S
C333 C330 1.404 . S
C333 N331 1.334 . S
C334 H326 0.930 . S
C334 C329 1.418 . S
C334 C330 1.353 . S
C335 H305 0.930 . S
C335 N336 1.330 . S
C335 C337 1.446 . S
N336 Co295 2.151 . S
N336 C335 1.330 . S
N336 C340 1.418 . S
C337 H316 0.929 . S
C337 C335 1.446 . S
C337 C338 1.332 . S
C338 H318 0.931 . S
C338 C337 1.332 . S
C338 C339 1.267 . S
C339 H307 0.929 . S
C339 C338 1.267 . S
C339 C340 1.251 . S
C340 H310 0.929 . S
C340 N336 1.418 . S
C340 C339 1.251 . S
C341 H308 0.930 . S
C341 C343 1.406 . S
C341 C346 1.261 . S
C342 H309 0.930 . S
C342 N344 1.325 . S
C342 C345 1.357 . S
C343 H311 0.928 . S
C343 C341 1.406 . S
C343 N344 1.261 . S
N344 Co295 2.214 . S
N344 C342 1.325 . S
N344 C343 1.261 . S
C345 H315 0.931 . S
C345 C342 1.357 . S
C345 C346 1.312 . S
C346 H317 0.930 . S
C346 C341 1.261 . S
C346 C345 1.312 . S
C347 O319 1.214 . S
C347 O327 1.234 . S
C348 H320 0.929 . S
C348 C351 1.391 . S
C348 C353 1.391 . S
C349 H321 0.929 . S
C349 C350 1.390 . S
C349 N352 1.391 . S
C350 H322 0.930 . S
C350 C349 1.390 . S
C350 C351 1.392 . S
C351 H323 0.929 . S
C351 C348 1.391 . S
C351 C350 1.392 . S
N352 Co296 2.257 . S
N352 C349 1.391 . S
N352 C353 1.388 . S
C353 H324 0.930 . S
C353 C348 1.391 . S
C353 N352 1.388 . S
Co354 O356 2.143 . S
Co354 O362 2.074 . S
Co354 O365 2.093 . S
Co354 O378 2.097 . S
Co354 N395 2.151 . S
Co354 N403 2.214 . S
Co355 O356 2.160 . S
Co355 O361 2.058 . S
Co355 O371 2.057 . S
Co355 O386 2.037 . S
Co355 N390 2.145 . S
Co355 N411 2.257 . S
O356 Co354 2.143 . S
O356 Co355 2.160 . S
C357 O358 1.278 . S
C357 O365 1.224 . S
O358 C357 1.278 . S
C359 O360 1.245 . S
C359 O371 1.232 . S
O360 C359 1.245 . S
O361 Co355 2.058 . S
O361 C387 1.269 . S
O362 Co354 2.074 . S
O362 C387 1.257 . S
H363 C388 0.930 . S
H364 C394 0.930 . S
O365 Co354 2.093 . S
O365 C357 1.224 . S
H366 C398 0.929 1_565 S
H367 C400 0.930 . S
H368 C401 0.930 . S
H369 C399 0.929 . S
H370 C402 0.928 . S
O371 Co355 2.057 . S
O371 C359 1.232 . S
H372 C391 0.929 . S
H373 C392 0.929 . S
H374 C404 0.931 . S
H375 C396 0.929 . S
H376 C405 0.930 . S
H377 C397 0.931 . S
O378 Co354 2.097 . S
O378 C406 1.214 . S
H379 C407 0.929 . S
H380 C408 0.929 . S
H381 C409 0.930 . S
H382 C410 0.929 . S
H383 C412 0.930 . S
H384 C389 0.930 . S
H385 C393 0.930 . S
O386 Co355 2.037 . S
O386 C406 1.234 . S
C387 O361 1.269 . S
C387 O362 1.257 . S
C388 H363 0.930 . S
C388 C391 1.388 . S
C388 C393 1.418 . S
C389 H384 0.930 . S
C389 C392 1.404 . S
C389 C393 1.353 . S
N390 Co355 2.145 . S
N390 C391 1.397 . S
N390 C392 1.334 . S
C391 H372 0.929 . S
C391 C388 1.388 . S
C391 N390 1.397 . S
C392 H373 0.929 . S
C392 C389 1.404 . S
C392 N390 1.334 . S
C393 H385 0.930 . S
C393 C388 1.418 . S
C393 C389 1.353 . S
C394 H364 0.930 . S
C394 N395 1.330 . S
C394 C396 1.446 . S
N395 Co354 2.151 . S
N395 C394 1.330 . S
N395 C399 1.418 . S
C396 H375 0.929 . S
C396 C394 1.446 . S
C396 C397 1.332 1_545 S
C397 H377 0.931 . S
C397 C396 1.332 1_565 S
C397 C398 1.267 1_565 S
C398 H366 0.929 1_545 S
C398 C397 1.267 1_545 S
C398 C399 1.251 . S
C399 H369 0.929 . S
C399 N395 1.418 . S
C399 C398 1.251 . S
C400 H367 0.930 . S
C400 C402 1.406 . S
C400 C405 1.261 . S
C401 H368 0.930 . S
C401 N403 1.325 . S
C401 C404 1.357 . S
C402 H370 0.928 . S
C402 C400 1.406 . S
C402 N403 1.261 . S
N403 Co354 2.214 . S
N403 C401 1.325 . S
N403 C402 1.261 . S
C404 H374 0.931 . S
C404 C401 1.357 . S
C404 C405 1.312 . S
C405 H376 0.930 . S
C405 C400 1.261 . S
C405 C404 1.312 . S
C406 O378 1.214 . S
C406 O386 1.234 . S
C407 H379 0.929 . S
C407 C410 1.391 . S
C407 C412 1.391 . S
C408 H380 0.929 . S
C408 C409 1.390 . S
C408 N411 1.391 . S
C409 H381 0.930 . S
C409 C408 1.390 . S
C409 C410 1.392 . S
C410 H382 0.929 . S
C410 C407 1.391 . S
C410 C409 1.392 . S
N411 Co355 2.257 . S
N411 C408 1.391 . S
N411 C412 1.388 . S
C412 H383 0.930 . S
C412 C407 1.391 . S
C412 N411 1.388 . S
Co413 O415 2.143 . S
Co413 O421 2.074 1_545 S
Co413 O424 2.093 . S
Co413 O437 2.097 . S
Co413 N454 2.151 . S
Co413 N462 2.214 . S
Co414 O415 2.160 1_565 S
Co414 O420 2.058 . S
Co414 O430 2.057 . S
Co414 O445 2.037 . S
Co414 N449 2.145 . S
Co414 N470 2.257 . S
O415 Co413 2.143 . S
O415 Co414 2.160 1_545 S
C416 O417 1.278 . S
C416 O424 1.224 . S
O417 C416 1.278 . S
C418 O419 1.245 . S
C418 O430 1.232 1_545 S
O419 C418 1.245 . S
O420 Co414 2.058 . S
O420 C446 1.269 . S
O421 Co413 2.074 1_565 S
O421 C446 1.257 . S
H422 C447 0.930 . S
H423 C453 0.930 . S
O424 Co413 2.093 . S
O424 C416 1.224 . S
H425 C457 0.929 1_455 S
H426 C459 0.930 . S
H427 C460 0.930 1_565 S
H428 C458 0.929 . S
H429 C461 0.928 . S
O430 Co414 2.057 . S
O430 C418 1.232 1_565 S
H431 C450 0.929 . S
H432 C451 0.929 . S
H433 C463 0.931 1_565 S
H434 C455 0.929 . S
H435 C464 0.930 . S
H436 C456 0.931 . S
O437 Co413 2.097 . S
O437 C465 1.214 1_545 S
H438 C466 0.929 . S
H439 C467 0.929 . S
H440 C468 0.930 . S
H441 C469 0.929 . S
H442 C471 0.930 . S
H443 C448 0.930 . S
H444 C452 0.930 . S
O445 Co414 2.037 . S
O445 C465 1.234 . S
C446 O420 1.269 . S
C446 O421 1.257 . S
C447 H422 0.930 . S
C447 C450 1.388 . S
C447 C452 1.418 . S
C448 H443 0.930 . S
C448 C451 1.404 . S
C448 C452 1.353 . S
N449 Co414 2.145 . S
N449 C450 1.397 . S
N449 C451 1.334 . S
C450 H431 0.929 . S
C450 C447 1.388 . S
C450 N449 1.397 . S
C451 H432 0.929 . S
C451 C448 1.404 . S
C451 N449 1.334 . S
C452 H444 0.930 . S
C452 C447 1.418 . S
C452 C448 1.353 . S
C453 H423 0.930 . S
C453 N454 1.330 . S
C453 C455 1.446 . S
N454 Co413 2.151 . S
N454 C453 1.330 . S
N454 C458 1.418 . S
C455 H434 0.929 . S
C455 C453 1.446 . S
C455 C456 1.332 1_655 S
C456 H436 0.931 . S
C456 C455 1.332 1_455 S
C456 C457 1.267 1_455 S
C457 H425 0.929 1_655 S
C457 C456 1.267 1_655 S
C457 C458 1.251 . S
C458 H428 0.929 . S
C458 N454 1.418 . S
C458 C457 1.251 . S
C459 H426 0.930 . S
C459 C461 1.406 . S
C459 C464 1.261 . S
C460 H427 0.930 1_545 S
C460 N462 1.325 . S
C460 C463 1.357 . S
C461 H429 0.928 . S
C461 C459 1.406 . S
C461 N462 1.261 . S
N462 Co413 2.214 . S
N462 C460 1.325 . S
N462 C461 1.261 . S
C463 H433 0.931 1_545 S
C463 C460 1.357 . S
C463 C464 1.312 . S
C464 H435 0.930 . S
C464 C459 1.261 . S
C464 C463 1.312 . S
C465 O437 1.214 1_565 S
C465 O445 1.234 . S
C466 H438 0.929 . S
C466 C469 1.391 . S
C466 C471 1.391 . S
C467 H439 0.929 . S
C467 C468 1.390 . S
C467 N470 1.391 . S
C468 H440 0.930 . S
C468 C467 1.390 . S
C468 C469 1.392 1_565 S
C469 H441 0.929 . S
C469 C466 1.391 . S
C469 C468 1.392 1_545 S
N470 Co414 2.257 . S
N470 C467 1.391 . S
N470 C471 1.388 1_565 S
C471 H442 0.930 . S
C471 C466 1.391 . S
C471 N470 1.388 1_545 S
C472 C473 1.369 . S
C472 C474 1.419 1_556 S
C472 H476 0.930 . S
C473 C472 1.369 . S
C473 C482 1.419 1_656 S
C474 C472 1.419 1_554 S
C474 C475 1.363 1_655 S
C474 H477 0.929 . S
C475 C474 1.363 1_455 S
C475 C481 1.428 . S
H476 C472 0.930 . S
H477 C474 0.929 . S
S478 N479 1.613 . S
S478 N480 1.610 . S
N479 S478 1.613 . S
N479 C482 1.352 . S
N480 S478 1.610 . S
N480 C481 1.351 . S
C481 C475 1.428 . S
C481 N480 1.351 . S
C481 C482 1.443 . S
C482 C473 1.419 1_454 S
C482 N479 1.352 . S
C482 C481 1.443 . S
C483 C484 1.369 . S
C483 C485 1.419 . S
C483 H487 0.930 . S
C484 C483 1.369 . S
C484 C493 1.429 . S
C485 C483 1.419 . S
C485 C486 1.363 . S
C485 H488 0.929 . S
C486 C485 1.363 . S
C486 C492 1.428 . S
H487 C483 0.930 . S
H488 C485 0.929 . S
S489 N490 1.613 . S
S489 N491 1.610 . S
N490 S489 1.613 . S
N490 C493 1.350 . S
N491 S489 1.610 . S
N491 C492 1.351 . S
C492 C486 1.428 . S
C492 N491 1.351 . S
C492 C493 1.434 . S
C493 C484 1.429 . S
C493 N490 1.350 . S
C493 C492 1.434 . S
C494 C495 1.369 1_545 S
C494 C496 1.419 . S
C494 H498 0.930 . S
C495 C494 1.369 1_565 S
C495 C504 1.429 1_554 S
C496 C494 1.419 . S
C496 C497 1.363 1_554 S
C496 H499 0.929 . S
C497 C496 1.363 1_556 S
C497 C503 1.428 1_545 S
H498 C494 0.930 . S
H499 C496 0.929 . S
S500 N501 1.613 . S
S500 N502 1.610 . S
N501 S500 1.613 . S
N501 C504 1.350 . S
N502 S500 1.610 . S
N502 C503 1.351 . S
C503 C497 1.428 1_565 S
C503 N502 1.351 . S
C503 C504 1.434 . S
C504 C495 1.429 1_556 S
C504 N501 1.350 . S
C504 C503 1.434 . S
C505 C506 1.369 1_455 S
C505 C507 1.419 . S
C505 H509 0.930 . S
C506 C505 1.369 1_655 S
C506 C515 1.429 1_545 S
C507 C505 1.419 . S
C507 C508 1.363 1_545 S
C507 H510 0.929 . S
C508 C507 1.363 1_565 S
C508 C514 1.428 1_455 S
H509 C505 0.930 . S
H510 C507 0.929 . S
S511 N512 1.613 . S
S511 N513 1.610 . S
N512 S511 1.613 . S
N512 C515 1.350 . S
N513 S511 1.610 . S
N513 C514 1.351 . S
C514 C508 1.428 1_655 S
C514 N513 1.351 . S
C514 C515 1.434 . S
C515 C506 1.429 1_565 S
C515 N512 1.350 . S
C515 C514 1.434 . S
C516 C517 1.369 . S
C516 C518 1.419 . S
C516 H520 0.930 . S
C517 C516 1.369 . S
C517 C526 1.429 . S
C518 C516 1.419 . S
C518 C519 1.363 . S
C518 H521 0.929 . S
C519 C518 1.363 . S
C519 C525 1.428 . S
H520 C516 0.930 . S
H521 C518 0.929 . S
S522 N523 1.613 . S
S522 N524 1.610 . S
N523 S522 1.613 . S
N523 C526 1.350 . S
N524 S522 1.610 . S
N524 C525 1.351 . S
C525 C519 1.428 . S
C525 N524 1.351 . S
C525 C526 1.434 . S
C526 C517 1.429 . S
C526 N523 1.350 . S
C526 C525 1.434 . S
C527 C528 1.369 . S
C527 C529 1.419 . S
C527 H531 0.930 . S
C528 C527 1.369 . S
C528 C537 1.429 . S
C529 C527 1.419 . S
C529 C530 1.363 . S
C529 H532 0.929 . S
C530 C529 1.363 . S
C530 C536 1.428 . S
H531 C527 0.930 . S
H532 C529 0.929 . S
S533 N534 1.613 . S
S533 N535 1.610 . S
N534 S533 1.613 . S
N534 C537 1.350 . S
N535 S533 1.610 . S
N535 C536 1.351 . S
C536 C530 1.428 . S
C536 N535 1.351 . S
C536 C537 1.434 . S
C537 C528 1.429 . S
C537 N534 1.350 . S
C537 C536 1.434 . S
C538 C539 1.369 . S
C538 C540 1.419 . S
C538 H542 0.930 . S
C539 C538 1.369 . S
C539 C548 1.429 . S
C540 C538 1.419 . S
C540 C541 1.363 . S
C540 H543 0.929 . S
C541 C540 1.363 . S
C541 C547 1.428 . S
H542 C538 0.930 . S
H543 C540 0.929 . S
S544 N545 1.613 . S
S544 N546 1.610 . S
N545 S544 1.613 . S
N545 C548 1.350 . S
N546 S544 1.610 . S
N546 C547 1.351 . S
C547 C541 1.428 . S
C547 N546 1.351 . S
C547 C548 1.434 . S
C548 C539 1.429 . S
C548 N545 1.350 . S
C548 C547 1.434 . S
C549 C550 1.369 . S
C549 C551 1.419 . S
C549 H553 0.930 . S
C550 C549 1.369 . S
C550 C559 1.429 . S
C551 C549 1.419 . S
C551 C552 1.363 . S
C551 H554 0.929 . S
C552 C551 1.363 . S
C552 C558 1.428 . S
H553 C549 0.930 . S
H554 C551 0.929 . S
S555 N556 1.613 . S
S555 N557 1.610 . S
N556 S555 1.613 . S
N556 C559 1.350 . S
N557 S555 1.610 . S
N557 C558 1.351 . S
C558 C552 1.428 . S
C558 N557 1.351 . S
C558 C559 1.434 . S
C559 C550 1.429 . S
C559 N556 1.350 . S
C559 C558 1.434 . S
C560 C561 1.369 . S
C560 C562 1.419 . S
C560 H564 0.930 . S
C561 C560 1.369 . S
C561 C570 1.429 . S
C562 C560 1.419 . S
C562 C563 1.363 . S
C562 H565 0.929 . S
C563 C562 1.363 . S
C563 C569 1.428 . S
H564 C560 0.930 . S
H565 C562 0.929 . S
S566 N567 1.613 . S
S566 N568 1.610 . S
N567 S566 1.613 . S
N567 C570 1.350 . S
N568 S566 1.610 . S
N568 C569 1.351 . S
C569 C563 1.428 . S
C569 N568 1.351 . S
C569 C570 1.434 . S
C570 C561 1.429 . S
C570 N567 1.350 . S
C570 C569 1.434 . S
C571 C572 1.369 . S
C571 C573 1.419 . S
C571 H575 0.930 . S
C572 C571 1.369 . S
C572 C581 1.429 . S
C573 C571 1.419 . S
C573 C574 1.363 . S
C573 H576 0.929 . S
C574 C573 1.363 . S
C574 C580 1.428 . S
H575 C571 0.930 . S
H576 C573 0.929 . S
S577 N578 1.613 . S
S577 N579 1.610 . S
N578 S577 1.613 . S
N578 C581 1.350 . S
N579 S577 1.610 . S
N579 C580 1.351 . S
C580 C574 1.428 . S
C580 N579 1.351 . S
C580 C581 1.434 . S
C581 C572 1.429 . S
C581 N578 1.350 . S
C581 C580 1.434 . S
C582 C583 1.369 . S
C582 C584 1.419 . S
C582 H586 0.930 . S
C583 C582 1.369 . S
C583 C592 1.429 . S
C584 C582 1.419 . S
C584 C585 1.363 . S
C584 H587 0.929 . S
C585 C584 1.363 . S
C585 C591 1.428 . S
H586 C582 0.930 . S
H587 C584 0.929 . S
S588 N589 1.613 . S
S588 N590 1.610 . S
N589 S588 1.613 . S
N589 C592 1.350 . S
N590 S588 1.610 . S
N590 C591 1.351 . S
C591 C585 1.428 . S
C591 N590 1.351 . S
C591 C592 1.434 . S
C592 C583 1.429 . S
C592 N589 1.350 . S
C592 C591 1.434 . S
C593 C594 1.369 . S
C593 C595 1.419 . S
C593 H597 0.930 . S
C594 C593 1.369 . S
C594 C603 1.429 . S
C595 C593 1.419 . S
C595 C596 1.363 . S
C595 H598 0.929 . S
C596 C595 1.363 . S
C596 C602 1.428 . S
H597 C593 0.930 . S
H598 C595 0.929 . S
S599 N600 1.613 . S
S599 N601 1.610 . S
N600 S599 1.613 . S
N600 C603 1.350 . S
N601 S599 1.610 . S
N601 C602 1.351 . S
C602 C596 1.428 . S
C602 N601 1.351 . S
C602 C603 1.434 . S
C603 C594 1.429 . S
C603 N600 1.350 . S
C603 C602 1.434 . S
C604 C605 1.369 . S
C604 C606 1.419 . S
C604 H608 0.930 . S
C605 C604 1.369 . S
C605 C614 1.429 . S
C606 C604 1.419 . S
C606 C607 1.363 . S
C606 H609 0.929 . S
C607 C606 1.363 . S
C607 C613 1.428 . S
H608 C604 0.930 . S
H609 C606 0.929 . S
S610 N611 1.613 . S
S610 N612 1.610 . S
N611 S610 1.613 . S
N611 C614 1.350 . S
N612 S610 1.610 . S
N612 C613 1.351 . S
C613 C607 1.428 . S
C613 N612 1.351 . S
C613 C614 1.434 . S
C614 C605 1.429 . S
C614 N611 1.350 . S
C614 C613 1.434 . S
C615 C616 1.369 . S
C615 C617 1.419 . S
C615 H619 0.930 . S
C616 C615 1.369 . S
C616 C625 1.429 . S
C617 C615 1.419 . S
C617 C618 1.363 . S
C617 H620 0.929 . S
C618 C617 1.363 . S
C618 C624 1.428 . S
H619 C615 0.930 . S
H620 C617 0.929 . S
S621 N622 1.613 . S
S621 N623 1.610 . S
N622 S621 1.613 . S
N622 C625 1.350 . S
N623 S621 1.610 . S
N623 C624 1.351 . S
C624 C618 1.428 . S
C624 N623 1.351 . S
C624 C625 1.434 . S
C625 C616 1.429 . S
C625 N622 1.350 . S
C625 C624 1.434 . S
C626 C627 1.369 . S
C626 C628 1.419 . S
C626 H630 0.930 . S
C627 C626 1.369 . S
C627 C636 1.429 . S
C628 C626 1.419 . S
C628 C629 1.363 . S
C628 H631 0.929 . S
C629 C628 1.363 . S
C629 C635 1.428 . S
H630 C626 0.930 . S
H631 C628 0.929 . S
S632 N633 1.613 . S
S632 N634 1.610 . S
N633 S632 1.613 . S
N633 C636 1.350 . S
N634 S632 1.610 . S
N634 C635 1.351 . S
C635 C629 1.428 . S
C635 N634 1.351 . S
C635 C636 1.434 . S
C636 C627 1.429 . S
C636 N633 1.350 . S
C636 C635 1.434 . S
C637 C638 1.369 . S
C637 C639 1.419 . S
C637 H641 0.937 . S
C638 C637 1.369 . S
C638 C647 1.429 . S
C639 C637 1.419 . S
C639 C640 1.363 . S
C639 H642 0.929 . S
C640 C639 1.363 . S
C640 C646 1.428 . S
H641 C637 0.937 . S
H642 C639 0.929 . S
S643 N644 1.613 . S
S643 N645 1.610 . S
N644 S643 1.613 . S
N644 C647 1.350 . S
N645 S643 1.610 . S
N645 C646 1.351 . S
C646 C640 1.428 . S
C646 N645 1.351 . S
C646 C647 1.434 . S
C647 C638 1.429 . S
C647 N644 1.350 . S
C647 C646 1.434 . S
C473 C241 1.524 . S
C475 C5 1.521 . S
C484 C64 1.523 . S
C486 C300 1.521 . S
C495 C123 1.524 . S
C497 C359 1.520 . S
C506 C418 1.525 . S
C508 C182 1.520 . S
C517 C3 1.440 . S
C519 C121 1.447 . S
C528 C62 1.448 . S
C530 C180 1.441 . S
C539 C357 1.440 . S
C541 C239 1.447 . S
C550 C298 1.447 . S
C552 C416 1.443 . S
C561 C347 1.344 . S
C563 C33 1.338 . S
C572 C92 1.336 . S
C574 C406 1.343 . S
C583 C151 1.336 . S
C585 C465 1.343 . S
C594 C288 1.345 . S
C596 C210 1.338 . S
C605 C269 1.337 . S
C607 C111 1.342 . S
C616 C328 1.339 . S
C618 C170 1.343 . S
C627 C387 1.336 . S
C629 C229 1.343 . S
C638 C52 1.345 . S
C640 C446 1.337 . S
