# Generated by pormake.
# Topology sou, (8)-cn, num edge types: 1
# Building blocks:
#     Node 0, Type 0, BuildingBlock: NUHRAL_clean_sbu_3, # of connection points: 8
#     Node 1, Type 0, BuildingBlock: NUHRAL_clean_sbu_3, # of connection points: 8
#     Node 2, Type 0, BuildingBlock: NUHRAL_clean_sbu_3, # of connection points: 8
#     Node 3, Type 0, BuildingBlock: NUHRAL_clean_sbu_3, # of connection points: 8
#     Node 4, Type 0, BuildingBlock: NUHRAL_clean_sbu_3, # of connection points: 8
#     Node 5, Type 0, BuildingBlock: NUHRAL_clean_sbu_3, # of connection points: 8
#     Node 6, Type 0, BuildingBlock: NUHRAL_clean_sbu_3, # of connection points: 8
#     Node 7, Type 0, BuildingBlock: NUHRAL_clean_sbu_3, # of connection points: 8
#     Node 8, Type 0, BuildingBlock: NUHRAL_clean_sbu_3, # of connection points: 8
#     Node 9, Type 0, BuildingBlock: NUHRAL_clean_sbu_3, # of connection points: 8
#     Node 10, Type 0, BuildingBlock: NUHRAL_clean_sbu_3, # of connection points: 8
#     Node 11, Type 0, BuildingBlock: NUHRAL_clean_sbu_3, # of connection points: 8
#     Node 12, Type 0, BuildingBlock: NUHRAL_clean_sbu_3, # of connection points: 8
#     Node 13, Type 0, BuildingBlock: NUHRAL_clean_sbu_3, # of connection points: 8
#     Node 14, Type 0, BuildingBlock: NUHRAL_clean_sbu_3, # of connection points: 8
#     Node 15, Type 0, BuildingBlock: NUHRAL_clean_sbu_3, # of connection points: 8
#     Node 16, Type 0, BuildingBlock: NUHRAL_clean_sbu_3, # of connection points: 8
#     Node 17, Type 0, BuildingBlock: NUHRAL_clean_sbu_3, # of connection points: 8
#     Node 18, Type 0, BuildingBlock: NUHRAL_clean_sbu_3, # of connection points: 8
#     Node 19, Type 0, BuildingBlock: NUHRAL_clean_sbu_3, # of connection points: 8
#     Node 20, Type 0, BuildingBlock: NUHRAL_clean_sbu_3, # of connection points: 8
#     Node 21, Type 0, BuildingBlock: NUHRAL_clean_sbu_3, # of connection points: 8
#     Node 22, Type 0, BuildingBlock: NUHRAL_clean_sbu_3, # of connection points: 8
#     Node 23, Type 0, BuildingBlock: NUHRAL_clean_sbu_3, # of connection points: 8
#     Node 24, Type 0, BuildingBlock: NUHRAL_clean_sbu_3, # of connection points: 8
#     Node 25, Type 0, BuildingBlock: NUHRAL_clean_sbu_3, # of connection points: 8
#     Node 26, Type 0, BuildingBlock: NUHRAL_clean_sbu_3, # of connection points: 8
#     Node 27, Type 0, BuildingBlock: NUHRAL_clean_sbu_3, # of connection points: 8
#     Node 28, Type 0, BuildingBlock: NUHRAL_clean_sbu_3, # of connection points: 8
#     Node 29, Type 0, BuildingBlock: NUHRAL_clean_sbu_3, # of connection points: 8
#     Node 30, Type 0, BuildingBlock: NUHRAL_clean_sbu_3, # of connection points: 8
#     Node 31, Type 0, BuildingBlock: NUHRAL_clean_sbu_3, # of connection points: 8
#     Edge 32, Type (0, 0), BuildingBlock: XIVTED_clean_linker_0, # of connection points: 2
#     Edge 33, Type (0, 0), BuildingBlock: XIVTED_clean_linker_0, # of connection points: 2
#     Edge 34, Type (0, 0), BuildingBlock: XIVTED_clean_linker_0, # of connection points: 2
#     Edge 35, Type (0, 0), BuildingBlock: XIVTED_clean_linker_0, # of connection points: 2
#     Edge 36, Type (0, 0), BuildingBlock: XIVTED_clean_linker_0, # of connection points: 2
#     Edge 37, Type (0, 0), BuildingBlock: XIVTED_clean_linker_0, # of connection points: 2
#     Edge 38, Type (0, 0), BuildingBlock: XIVTED_clean_linker_0, # of connection points: 2
#     Edge 39, Type (0, 0), BuildingBlock: XIVTED_clean_linker_0, # of connection points: 2
#     Edge 40, Type (0, 0), BuildingBlock: XIVTED_clean_linker_0, # of connection points: 2
#     Edge 41, Type (0, 0), BuildingBlock: XIVTED_clean_linker_0, # of connection points: 2
#     Edge 42, Type (0, 0), BuildingBlock: XIVTED_clean_linker_0, # of connection points: 2
#     Edge 43, Type (0, 0), BuildingBlock: XIVTED_clean_linker_0, # of connection points: 2
#     Edge 44, Type (0, 0), BuildingBlock: XIVTED_clean_linker_0, # of connection points: 2
#     Edge 45, Type (0, 0), BuildingBlock: XIVTED_clean_linker_0, # of connection points: 2
#     Edge 46, Type (0, 0), BuildingBlock: XIVTED_clean_linker_0, # of connection points: 2
#     Edge 47, Type (0, 0), BuildingBlock: XIVTED_clean_linker_0, # of connection points: 2
#     Edge 48, Type (0, 0), BuildingBlock: XIVTED_clean_linker_0, # of connection points: 2
#     Edge 49, Type (0, 0), BuildingBlock: XIVTED_clean_linker_0, # of connection points: 2
#     Edge 50, Type (0, 0), BuildingBlock: XIVTED_clean_linker_0, # of connection points: 2
#     Edge 51, Type (0, 0), BuildingBlock: XIVTED_clean_linker_0, # of connection points: 2
#     Edge 52, Type (0, 0), BuildingBlock: XIVTED_clean_linker_0, # of connection points: 2
#     Edge 53, Type (0, 0), BuildingBlock: XIVTED_clean_linker_0, # of connection points: 2
#     Edge 54, Type (0, 0), BuildingBlock: XIVTED_clean_linker_0, # of connection points: 2
#     Edge 55, Type (0, 0), BuildingBlock: XIVTED_clean_linker_0, # of connection points: 2
#     Edge 56, Type (0, 0), BuildingBlock: XIVTED_clean_linker_0, # of connection points: 2
#     Edge 57, Type (0, 0), BuildingBlock: XIVTED_clean_linker_0, # of connection points: 2
#     Edge 58, Type (0, 0), BuildingBlock: XIVTED_clean_linker_0, # of connection points: 2
#     Edge 59, Type (0, 0), BuildingBlock: XIVTED_clean_linker_0, # of connection points: 2
#     Edge 60, Type (0, 0), BuildingBlock: XIVTED_clean_linker_0, # of connection points: 2
#     Edge 61, Type (0, 0), BuildingBlock: XIVTED_clean_linker_0, # of connection points: 2
#     Edge 62, Type (0, 0), BuildingBlock: XIVTED_clean_linker_0, # of connection points: 2
#     Edge 63, Type (0, 0), BuildingBlock: XIVTED_clean_linker_0, # of connection points: 2
#     Edge 64, Type (0, 0), BuildingBlock: XIVTED_clean_linker_0, # of connection points: 2
#     Edge 65, Type (0, 0), BuildingBlock: XIVTED_clean_linker_0, # of connection points: 2
#     Edge 66, Type (0, 0), BuildingBlock: XIVTED_clean_linker_0, # of connection points: 2
#     Edge 67, Type (0, 0), BuildingBlock: XIVTED_clean_linker_0, # of connection points: 2
#     Edge 68, Type (0, 0), BuildingBlock: XIVTED_clean_linker_0, # of connection points: 2
#     Edge 69, Type (0, 0), BuildingBlock: XIVTED_clean_linker_0, # of connection points: 2
#     Edge 70, Type (0, 0), BuildingBlock: XIVTED_clean_linker_0, # of connection points: 2
#     Edge 71, Type (0, 0), BuildingBlock: XIVTED_clean_linker_0, # of connection points: 2
#     Edge 72, Type (0, 0), BuildingBlock: XIVTED_clean_linker_0, # of connection points: 2
#     Edge 73, Type (0, 0), BuildingBlock: XIVTED_clean_linker_0, # of connection points: 2
#     Edge 74, Type (0, 0), BuildingBlock: XIVTED_clean_linker_0, # of connection points: 2
#     Edge 75, Type (0, 0), BuildingBlock: XIVTED_clean_linker_0, # of connection points: 2
#     Edge 76, Type (0, 0), BuildingBlock: XIVTED_clean_linker_0, # of connection points: 2
#     Edge 77, Type (0, 0), BuildingBlock: XIVTED_clean_linker_0, # of connection points: 2
#     Edge 78, Type (0, 0), BuildingBlock: XIVTED_clean_linker_0, # of connection points: 2
#     Edge 79, Type (0, 0), BuildingBlock: XIVTED_clean_linker_0, # of connection points: 2
#     Edge 80, Type (0, 0), BuildingBlock: XIVTED_clean_linker_0, # of connection points: 2
#     Edge 81, Type (0, 0), BuildingBlock: XIVTED_clean_linker_0, # of connection points: 2
#     Edge 82, Type (0, 0), BuildingBlock: XIVTED_clean_linker_0, # of connection points: 2
#     Edge 83, Type (0, 0), BuildingBlock: XIVTED_clean_linker_0, # of connection points: 2
#     Edge 84, Type (0, 0), BuildingBlock: XIVTED_clean_linker_0, # of connection points: 2
#     Edge 85, Type (0, 0), BuildingBlock: XIVTED_clean_linker_0, # of connection points: 2
#     Edge 86, Type (0, 0), BuildingBlock: XIVTED_clean_linker_0, # of connection points: 2
#     Edge 87, Type (0, 0), BuildingBlock: XIVTED_clean_linker_0, # of connection points: 2
#     Edge 88, Type (0, 0), BuildingBlock: XIVTED_clean_linker_0, # of connection points: 2
#     Edge 89, Type (0, 0), BuildingBlock: XIVTED_clean_linker_0, # of connection points: 2
#     Edge 90, Type (0, 0), BuildingBlock: XIVTED_clean_linker_0, # of connection points: 2
#     Edge 91, Type (0, 0), BuildingBlock: XIVTED_clean_linker_0, # of connection points: 2
#     Edge 92, Type (0, 0), BuildingBlock: XIVTED_clean_linker_0, # of connection points: 2
#     Edge 93, Type (0, 0), BuildingBlock: XIVTED_clean_linker_0, # of connection points: 2
#     Edge 94, Type (0, 0), BuildingBlock: XIVTED_clean_linker_0, # of connection points: 2
#     Edge 95, Type (0, 0), BuildingBlock: XIVTED_clean_linker_0, # of connection points: 2
#     Edge 96, Type (0, 0), BuildingBlock: XIVTED_clean_linker_0, # of connection points: 2
#     Edge 97, Type (0, 0), BuildingBlock: XIVTED_clean_linker_0, # of connection points: 2
#     Edge 98, Type (0, 0), BuildingBlock: XIVTED_clean_linker_0, # of connection points: 2
#     Edge 99, Type (0, 0), BuildingBlock: XIVTED_clean_linker_0, # of connection points: 2
#     Edge 100, Type (0, 0), BuildingBlock: XIVTED_clean_linker_0, # of connection points: 2
#     Edge 101, Type (0, 0), BuildingBlock: XIVTED_clean_linker_0, # of connection points: 2
#     Edge 102, Type (0, 0), BuildingBlock: XIVTED_clean_linker_0, # of connection points: 2
#     Edge 103, Type (0, 0), BuildingBlock: XIVTED_clean_linker_0, # of connection points: 2
#     Edge 104, Type (0, 0), BuildingBlock: XIVTED_clean_linker_0, # of connection points: 2
#     Edge 105, Type (0, 0), BuildingBlock: XIVTED_clean_linker_0, # of connection points: 2
#     Edge 106, Type (0, 0), BuildingBlock: XIVTED_clean_linker_0, # of connection points: 2
#     Edge 107, Type (0, 0), BuildingBlock: XIVTED_clean_linker_0, # of connection points: 2
#     Edge 108, Type (0, 0), BuildingBlock: XIVTED_clean_linker_0, # of connection points: 2
#     Edge 109, Type (0, 0), BuildingBlock: XIVTED_clean_linker_0, # of connection points: 2
#     Edge 110, Type (0, 0), BuildingBlock: XIVTED_clean_linker_0, # of connection points: 2
#     Edge 111, Type (0, 0), BuildingBlock: XIVTED_clean_linker_0, # of connection points: 2
#     Edge 112, Type (0, 0), BuildingBlock: XIVTED_clean_linker_0, # of connection points: 2
#     Edge 113, Type (0, 0), BuildingBlock: XIVTED_clean_linker_0, # of connection points: 2
#     Edge 114, Type (0, 0), BuildingBlock: XIVTED_clean_linker_0, # of connection points: 2
#     Edge 115, Type (0, 0), BuildingBlock: XIVTED_clean_linker_0, # of connection points: 2
#     Edge 116, Type (0, 0), BuildingBlock: XIVTED_clean_linker_0, # of connection points: 2
#     Edge 117, Type (0, 0), BuildingBlock: XIVTED_clean_linker_0, # of connection points: 2
#     Edge 118, Type (0, 0), BuildingBlock: XIVTED_clean_linker_0, # of connection points: 2
#     Edge 119, Type (0, 0), BuildingBlock: XIVTED_clean_linker_0, # of connection points: 2
#     Edge 120, Type (0, 0), BuildingBlock: XIVTED_clean_linker_0, # of connection points: 2
#     Edge 121, Type (0, 0), BuildingBlock: XIVTED_clean_linker_0, # of connection points: 2
#     Edge 122, Type (0, 0), BuildingBlock: XIVTED_clean_linker_0, # of connection points: 2
#     Edge 123, Type (0, 0), BuildingBlock: XIVTED_clean_linker_0, # of connection points: 2
#     Edge 124, Type (0, 0), BuildingBlock: XIVTED_clean_linker_0, # of connection points: 2
#     Edge 125, Type (0, 0), BuildingBlock: XIVTED_clean_linker_0, # of connection points: 2
#     Edge 126, Type (0, 0), BuildingBlock: XIVTED_clean_linker_0, # of connection points: 2
#     Edge 127, Type (0, 0), BuildingBlock: XIVTED_clean_linker_0, # of connection points: 2
#     Edge 128, Type (0, 0), BuildingBlock: XIVTED_clean_linker_0, # of connection points: 2
#     Edge 129, Type (0, 0), BuildingBlock: XIVTED_clean_linker_0, # of connection points: 2
#     Edge 130, Type (0, 0), BuildingBlock: XIVTED_clean_linker_0, # of connection points: 2
#     Edge 131, Type (0, 0), BuildingBlock: XIVTED_clean_linker_0, # of connection points: 2
#     Edge 132, Type (0, 0), BuildingBlock: XIVTED_clean_linker_0, # of connection points: 2
#     Edge 133, Type (0, 0), BuildingBlock: XIVTED_clean_linker_0, # of connection points: 2
#     Edge 134, Type (0, 0), BuildingBlock: XIVTED_clean_linker_0, # of connection points: 2
#     Edge 135, Type (0, 0), BuildingBlock: XIVTED_clean_linker_0, # of connection points: 2
#     Edge 136, Type (0, 0), BuildingBlock: XIVTED_clean_linker_0, # of connection points: 2
#     Edge 137, Type (0, 0), BuildingBlock: XIVTED_clean_linker_0, # of connection points: 2
#     Edge 138, Type (0, 0), BuildingBlock: XIVTED_clean_linker_0, # of connection points: 2
#     Edge 139, Type (0, 0), BuildingBlock: XIVTED_clean_linker_0, # of connection points: 2
#     Edge 140, Type (0, 0), BuildingBlock: XIVTED_clean_linker_0, # of connection points: 2
#     Edge 141, Type (0, 0), BuildingBlock: XIVTED_clean_linker_0, # of connection points: 2
#     Edge 142, Type (0, 0), BuildingBlock: XIVTED_clean_linker_0, # of connection points: 2
#     Edge 143, Type (0, 0), BuildingBlock: XIVTED_clean_linker_0, # of connection points: 2
#     Edge 144, Type (0, 0), BuildingBlock: XIVTED_clean_linker_0, # of connection points: 2
#     Edge 145, Type (0, 0), BuildingBlock: XIVTED_clean_linker_0, # of connection points: 2
#     Edge 146, Type (0, 0), BuildingBlock: XIVTED_clean_linker_0, # of connection points: 2
#     Edge 147, Type (0, 0), BuildingBlock: XIVTED_clean_linker_0, # of connection points: 2
#     Edge 148, Type (0, 0), BuildingBlock: XIVTED_clean_linker_0, # of connection points: 2
#     Edge 149, Type (0, 0), BuildingBlock: XIVTED_clean_linker_0, # of connection points: 2
#     Edge 150, Type (0, 0), BuildingBlock: XIVTED_clean_linker_0, # of connection points: 2
#     Edge 151, Type (0, 0), BuildingBlock: XIVTED_clean_linker_0, # of connection points: 2
#     Edge 152, Type (0, 0), BuildingBlock: XIVTED_clean_linker_0, # of connection points: 2
#     Edge 153, Type (0, 0), BuildingBlock: XIVTED_clean_linker_0, # of connection points: 2
#     Edge 154, Type (0, 0), BuildingBlock: XIVTED_clean_linker_0, # of connection points: 2
#     Edge 155, Type (0, 0), BuildingBlock: XIVTED_clean_linker_0, # of connection points: 2
#     Edge 156, Type (0, 0), BuildingBlock: XIVTED_clean_linker_0, # of connection points: 2
#     Edge 157, Type (0, 0), BuildingBlock: XIVTED_clean_linker_0, # of connection points: 2
#     Edge 158, Type (0, 0), BuildingBlock: XIVTED_clean_linker_0, # of connection points: 2
#     Edge 159, Type (0, 0), BuildingBlock: XIVTED_clean_linker_0, # of connection points: 2
# Relax obj value: 0.059
# Max RMSD: 0.154
# Mean RMSD: 0.154
data_MOF--net-sou--node1-NUHRAL_clean_sbu_3--edge1-XIVTED_clean_linker_0
_symmetry_space_group_name_H-M    P1
_symmetry_Int_Tables_number       1
_symmetry_cell_setting            triclinic
loop_
_symmetry_equiv_pos_as_xyz
'x, y, z'
_cell_length_a     84.781182
_cell_length_b     44.537371
_cell_length_c     41.037598
_cell_angle_alpha  90.012536
_cell_angle_beta   89.966937
_cell_angle_gamma 89.926398
loop_
_atom_site_label
_atom_site_type_symbol
_atom_site_fract_x
_atom_site_fract_y
_atom_site_fract_z
_atom_type_partial_charge
C0 C 0.07319 0.33809 0.01577 0.0
C1 C 0.08038 0.36602 0.00771 0.0
C2 C 0.09485 0.37432 0.02239 0.0
C3 C 0.10197 0.3546 0.04433 0.0
C4 C 0.0956 0.3264 0.05064 0.0
C5 C 0.08112 0.31835 0.03705 0.0
O6 O 0.02102 0.35804 0.03863 0.0
Tb7 Tb 0.0294 0.33406 0.99582 0.0
O8 O 0.02386 0.37591 0.97167 0.0
O9 O 0.01359 0.3227 0.07732 0.0
Eu10 Eu 1.0034 0.28667 0.04499 0.0
O11 O 0.05191 0.34333 0.977 0.0
C12 C 0.97417 0.29727 0.03047 0.0
O13 O 0.0484 0.31236 0.01822 0.0
O14 O 0.01806 0.26384 0.0067 0.0
O15 O 0.01748 0.29966 0.96692 0.0
C16 C 0.05865 0.32669 -0.0004 0.0
C17 C 0.01746 0.2308 0.08095 0.0
O18 O 0.03063 0.24577 0.07664 0.0
C19 C 0.01754 0.35019 0.06869 0.0
C20 C 0.01761 0.27128 0.97585 0.0
O21 O 1.00404 0.24291 0.0719 0.0
C22 C 0.95825 0.29141 0.01708 0.0
C23 C 0.93325 0.31344 0.00082 0.0
C24 C 0.94898 0.31678 0.01008 0.0
C25 C 0.95131 0.26237 0.01555 0.0
C26 C 0.93535 0.25934 0.00589 0.0
C27 C 0.92674 0.28494 -0.00213 0.0
C28 C 1.00994 0.38789 0.97707 0.0
O29 O 0.99893 0.37121 0.99049 0.0
O30 O 0.97858 0.28286 0.05687 0.0
O31 O 0.98588 0.30588 0.01145 0.0
H32 H 0.07503 0.38078 0.98988 0.0
H33 H 0.11337 0.36024 0.05474 0.0
H34 H 0.07644 0.29612 0.04176 0.0
H35 H 0.95376 0.33917 0.01333 0.0
H36 H 0.95804 0.24271 0.02253 0.0
H37 H 0.91436 0.28278 0.99135 0.0
C38 C 0.19877 0.91247 0.01678 0.0
C39 C 0.19055 0.88588 0.00751 0.0
C40 C 0.17604 0.8784 0.02268 0.0
C41 C 0.16989 0.89782 0.04625 0.0
C42 C 0.17745 0.92456 0.05428 0.0
C43 C 0.1919 0.93169 0.04008 0.0
O44 O 0.25177 0.89225 0.03761 0.0
Tb45 Tb 0.24254 0.91579 0.99526 0.0
O46 O 0.24758 0.87335 0.97186 0.0
O47 O 0.2587 0.92774 0.07638 0.0
Eu48 Eu 0.27004 0.96248 0.04384 0.0
O49 O 0.21985 0.90611 0.97759 0.0
C50 C 0.29934 0.95032 0.0315 0.0
O51 O 0.22375 0.93791 0.01791 0.0
O52 O 0.2569 0.98549 0.00354 0.0
O53 O 0.25429 0.94892 0.96442 0.0
C54 C 0.21331 0.92328 -1e-05 0.0
C55 C 0.25672 0.01701 0.08366 0.0
O56 O 0.24446 0.99919 0.08651 0.0
C57 C 0.25498 0.9001 0.06779 0.0
C58 C 0.25679 0.97705 0.97294 0.0
O59 O 0.26942 0.00728 0.06876 0.0
C60 C 0.315 0.95668 0.01709 0.0
C61 C 0.33949 0.93499 -0.00293 0.0
C62 C 0.324 0.93155 0.00801 0.0
C63 C 0.32198 0.98572 0.01602 0.0
C64 C 0.33768 0.98895 0.00474 0.0
C65 C 0.346 0.96359 0.99468 0.0
C66 C 0.2616 0.8614 0.97617 0.0
O67 O 0.27293 0.87827 0.98805 0.0
O68 O 0.29476 0.96597 0.05697 0.0
O69 O 0.28772 0.94089 0.01273 0.0
H70 H 0.1952 0.87148 0.98852 0.0
H71 H 0.15849 0.89306 0.05713 0.0
H72 H 0.19742 0.95293 0.04611 0.0
H73 H 0.31921 0.90911 0.01082 0.0
H74 H 0.31549 0.00517 0.0245 0.0
H75 H 0.35823 0.96598 0.98717 0.0
C76 C 0.07263 0.91076 0.22341 0.0
C77 C 0.08045 0.8836 0.2324 0.0
C78 C 0.09527 0.87619 0.21844 0.0
C79 C 0.1021 0.8963 0.19643 0.0
C80 C 0.09498 0.92363 0.18896 0.0
C81 C 0.08017 0.93058 0.20171 0.0
O82 O 0.01785 0.89222 0.20615 0.0
Tb83 Tb 0.02884 0.91539 0.24696 0.0
O84 O 0.0243 0.8736 0.27194 0.0
O85 O 0.01494 0.92815 0.16628 0.0
Eu86 Eu 1.00349 0.9637 0.19755 0.0
O87 O 0.05175 0.90576 0.26324 0.0
C88 C 0.97378 0.95354 0.20797 0.0
O89 O 0.04738 0.93569 0.22143 0.0
O90 O 0.01568 0.98672 0.23898 0.0
O91 O 0.01789 0.94959 0.27779 0.0
C92 C 0.05801 0.92188 0.23967 0.0
C93 C 0.01912 0.01994 0.16591 0.0
O94 O 0.03135 0.00934 0.18186 0.0
C95 C 0.01686 0.90005 0.17536 0.0
C96 C 0.01583 0.97792 0.26947 0.0
O97 O 1.00581 0.00491 0.16647 0.0
C98 C 0.95795 0.95817 0.22243 0.0
C99 C 0.93295 0.93486 0.23607 0.0
C100 C 0.94845 0.93247 0.22507 0.0
C101 C 0.95141 0.98681 0.23009 0.0
C102 C 0.93572 0.98884 0.24199 0.0
C103 C 0.92691 0.96258 0.24533 0.0
C104 C 1.01021 0.86157 0.26978 0.0
O105 O 0.99851 0.87805 0.25871 0.0
O106 O 0.9789 0.97225 0.18563 0.0
O107 O 0.98502 0.94028 0.22492 0.0
H108 H 0.0753 0.86881 0.25042 0.0
H109 H 0.11377 0.89172 0.18667 0.0
H110 H 0.07496 0.95224 0.19619 0.0
H111 H 0.95289 0.91075 0.21733 0.0
H112 H 0.95829 0.00702 0.22646 0.0
H113 H 0.91465 0.96393 0.25293 0.0
C114 C 0.19943 0.33499 0.22671 0.0
C115 C 0.1907 0.35996 0.23891 0.0
C116 C 0.17564 0.36676 0.22598 0.0
C117 C 0.16963 0.34907 0.20088 0.0
C118 C 0.17783 0.32409 0.18939 0.0
C119 C 0.19272 0.3172 0.20191 0.0
O120 O 0.25199 0.35738 0.20425 0.0
Tb121 Tb 0.2434 0.33291 0.24655 0.0
O122 O 0.24794 0.37531 0.27036 0.0
O123 O 0.25868 0.32207 0.16503 0.0
Eu124 Eu 0.26897 0.28556 0.19668 0.0
O125 O 0.22072 0.34033 0.26548 0.0
C126 C 0.29863 0.29488 0.20881 0.0
O127 O 0.2248 0.31087 0.22318 0.0
O128 O 0.25569 0.26251 0.23692 0.0
O129 O 0.25585 0.29938 0.27579 0.0
C130 C 0.21427 0.32402 0.24226 0.0
C131 C 0.25335 0.22867 0.16624 0.0
O132 O 0.24121 0.23917 0.18256 0.0
C133 C 0.2551 0.34968 0.17397 0.0
C134 C 0.25598 0.27084 0.2675 0.0
O135 O 0.26658 0.24403 0.1659 0.0
C136 C 0.31433 0.2889 0.22342 0.0
C137 C 0.33949 0.31027 0.23982 0.0
C138 C 0.32397 0.31405 0.22919 0.0
C139 C 0.32074 0.2596 0.22757 0.0
C140 C 0.33639 0.25617 0.23908 0.0
C141 C 0.34531 0.28165 0.24592 0.0
C142 C 0.26184 0.3877 0.26626 0.0
O143 O 0.27336 0.37117 0.25445 0.0
O144 O 0.29363 0.27762 0.18502 0.0
O145 O 0.28728 0.30702 0.22641 0.0
H146 H 0.19523 0.37314 0.25901 0.0
H147 H 0.15798 0.35392 0.19117 0.0
H148 H 0.1987 0.29715 0.1934 0.0
H149 H 0.3197 0.33646 0.22371 0.0
H150 H 0.31384 0.23998 0.2213 0.0
H151 H 0.35753 0.27913 0.25351 0.0
C152 C 0.06419 0.70752 0.97347 0.0
C153 C 0.07085 0.73678 0.97567 0.0
C154 C 0.08631 0.74038 0.98824 0.0
C155 C 0.09477 0.71505 -0.00203 0.0
C156 C 0.08863 0.6863 0.99422 0.0
C157 C 0.07335 0.68253 0.98233 0.0
O158 O 1.00814 0.73653 0.98459 0.0
Tb159 Tb 0.02078 0.71402 0.94549 0.0
O160 O 0.02057 0.7574 0.92152 0.0
O161 O 1.00859 0.70181 0.02566 0.0
Eu162 Eu 0.99593 0.66648 -0.00335 0.0
O163 O 0.04456 0.71641 0.93236 0.0
C164 C 0.96595 0.6761 0.98898 0.0
O165 O 0.03687 0.69218 0.97656 0.0
O166 O 1.00695 0.64362 0.95364 0.0
O167 O 1.00957 0.68029 0.9144 0.0
C168 C 0.0488 0.70075 0.95807 0.0
C169 C 0.01352 0.60877 0.01663 0.0
O170 O 0.02531 0.62484 0.00536 0.0
C171 C 1.00962 0.72975 0.01559 0.0
C172 C 1.00766 0.65195 0.92305 0.0
O173 O 0.99971 0.6217 0.02041 0.0
C174 C 0.95119 0.66488 0.97368 0.0
C175 C 0.9292 0.67508 0.93711 0.0
C176 C 0.94383 0.68314 0.95007 0.0
C177 C 0.94337 0.6385 0.98453 0.0
C178 C 0.92875 0.63028 0.97079 0.0
C179 C 0.92203 0.64843 0.94683 0.0
C180 C 1.00792 0.76792 0.90703 0.0
O181 O 0.99537 0.7508 0.90443 0.0
O182 O 0.97181 0.66124 0.01394 0.0
O183 O 0.97681 0.68757 0.96958 0.0
H184 H 0.06428 0.75616 0.96726 0.0
H185 H 0.10688 0.71764 0.00616 0.0
H186 H 0.06886 0.65998 0.97859 0.0
H187 H 0.94915 0.70423 0.94279 0.0
H188 H 0.9484 0.62482 0.00373 0.0
H189 H 0.91053 0.64267 0.93695 0.0
C190 C 0.70795 0.04191 0.97266 0.0
C191 C 0.70114 0.01272 0.97452 0.0
C192 C 0.68548 0.00934 0.9862 0.0
C193 C 0.67702 0.03478 0.99554 0.0
C194 C 0.68334 0.06341 0.99226 0.0
C195 C 0.69876 0.06703 0.9811 0.0
O196 O 0.76445 0.01323 0.98449 0.0
Tb197 Tb 0.75174 0.03601 0.94565 0.0
O198 O 0.75211 0.9932 0.92052 0.0
O199 O 0.76584 0.04823 0.02551 0.0
Eu200 Eu 0.77759 0.08425 0.9954 0.0
O201 O 0.72801 0.0329 0.93232 0.0
C202 C 0.80784 0.07719 0.98785 0.0
O203 O 0.73533 0.05733 0.97664 0.0
O204 O 0.7657 0.10712 0.95316 0.0
O205 O 0.76276 0.06995 0.91448 0.0
C206 C 0.72355 0.04851 0.95791 0.0
C207 C 0.75937 0.14086 0.01731 0.0
O208 O 0.74758 0.12468 0.00626 0.0
C209 C 0.764 0.02033 0.01559 0.0
C210 C 0.76381 0.09848 0.92285 0.0
O211 O 0.77328 0.12819 0.02041 0.0
C212 C 0.82281 0.08737 0.97228 0.0
C213 C 0.84461 0.07408 0.93653 0.0
C214 C 0.82979 0.06778 0.94951 0.0
C215 C 0.83123 0.1136 0.98215 0.0
C216 C 0.84615 0.12028 0.9682 0.0
C217 C 0.85248 0.10023 0.94543 0.0
C218 C 0.76531 0.98144 0.90962 0.0
O219 O 0.77842 0.99704 0.91152 0.0
O220 O 0.80167 0.09317 0.01165 0.0
O221 O 0.79721 0.06389 0.96927 0.0
H222 H 0.70774 0.99324 0.96651 0.0
H223 H 0.66482 0.03241 0.00334 0.0
H224 H 0.70336 0.08953 0.97764 0.0
H225 H 0.82402 0.04695 0.94286 0.0
H226 H 0.82636 0.12837 0.00056 0.0
H227 H 0.86419 0.10411 0.93557 0.0
C228 C 0.06496 0.04201 0.77115 0.0
C229 C 0.07215 0.0131 0.77031 0.0
C230 C 0.08791 0.01007 0.75917 0.0
C231 C 0.09604 0.03548 0.7488 0.0
C232 C 0.08934 0.06394 0.7508 0.0
C233 C 0.07384 0.06728 0.76182 0.0
O234 O 1.00876 0.01348 0.7575 0.0
Tb235 Tb 0.02079 0.03692 0.79678 0.0
O236 O 0.01886 0.99617 0.82578 0.0
O237 O 1.00782 0.04812 0.71621 0.0
Eu238 Eu 0.99487 0.0833 0.74555 0.0
O239 O 0.04441 0.03101 0.81003 0.0
C240 C 0.96485 0.07399 0.75333 0.0
O241 O 0.03776 0.05896 0.76782 0.0
O242 O 1.00556 0.10813 0.78787 0.0
O243 O 1.00997 0.07167 0.82706 0.0
C244 C 0.04929 0.04815 0.78599 0.0
C245 C 1.01045 0.14152 0.71911 0.0
O246 O 0.02353 0.12662 0.72489 0.0
C247 C 1.00942 0.02026 0.7264 0.0
C248 C 1.00757 0.09985 0.81834 0.0
O249 O 0.99695 0.12727 0.71985 0.0
C250 C 0.95036 0.08563 0.7696 0.0
C251 C 0.92971 0.07626 0.80945 0.0
C252 C 0.94379 0.06786 0.79446 0.0
C253 C 0.94206 0.11176 0.75904 0.0
C254 C 0.92783 0.12037 0.77465 0.0
C255 C 0.9221 0.10264 0.80014 0.0
C256 C 1.00565 0.98069 0.82607 0.0
O257 O 0.99322 0.99151 0.81098 0.0
O258 O 0.97068 0.08906 0.72854 0.0
O259 O 0.97578 0.06174 0.77207 0.0
H260 H 0.06581 0.99358 0.77898 0.0
H261 H 0.10826 0.03328 0.74106 0.0
H262 H 0.06894 0.08967 0.76441 0.0
H263 H 0.94932 0.04684 0.8014 0.0
H264 H 0.94646 0.12497 0.73884 0.0
H265 H 0.91086 0.10818 0.81139 0.0
C266 C 0.70846 0.70969 0.77067 0.0
C267 C 0.70175 0.73878 0.76624 0.0
C268 C 0.68613 0.74156 0.75408 0.0
C269 C 0.67757 0.71564 0.74713 0.0
C270 C 0.68371 0.68732 0.75339 0.0
C271 C 0.69915 0.68421 0.76459 0.0
O272 O 0.76528 0.73554 0.75894 0.0
Tb273 Tb 0.7526 0.71307 0.79812 0.0
O274 O 0.75461 0.75339 0.82764 0.0
O275 O 0.76476 0.70063 0.71789 0.0
Eu276 Eu 0.77644 0.66389 0.74711 0.0
O277 O 0.72891 0.72118 0.80975 0.0
C278 C 0.80663 0.67086 0.75542 0.0
O279 O 0.73557 0.69178 0.76864 0.0
O280 O 0.7643 0.64073 0.78881 0.0
O281 O 0.76255 0.67722 0.82851 0.0
C282 C 0.72405 0.70382 0.78591 0.0
C283 C 0.7584 0.60752 0.72379 0.0
O284 O 0.74653 0.62342 0.73514 0.0
C285 C 0.76424 0.7287 0.72787 0.0
C286 C 0.763 0.64878 0.81945 0.0
O287 O 0.7723 0.62026 0.72129 0.0
C288 C 0.82163 0.65977 0.7701 0.0
C289 C 0.84462 0.67199 0.80308 0.0
C290 C 0.82964 0.67936 0.79137 0.0
C291 C 0.82914 0.63255 0.76037 0.0
C292 C 0.84411 0.62485 0.77325 0.0
C293 C 0.85142 0.64452 0.79494 0.0
C294 C 0.76788 0.76864 0.82867 0.0
O295 O 0.78043 0.75774 0.81403 0.0
O296 O 0.80055 0.65626 0.73054 0.0
O297 O 0.79595 0.68295 0.77487 0.0
H298 H 0.70839 0.75868 0.77267 0.0
H299 H 0.66537 0.71753 0.7392 0.0
H300 H 0.70362 0.66196 0.77018 0.0
H301 H 0.8246 0.70103 0.79749 0.0
H302 H 0.82362 0.61789 0.74269 0.0
H303 H 0.86315 0.63932 0.804 0.0
C304 C 0.07271 0.83668 0.52195 0.0
C305 C 0.08064 0.86281 0.51036 0.0
C306 C 0.09543 0.87104 0.52355 0.0
C307 C 0.1018 0.85381 0.54869 0.0
C308 C 0.09485 0.82684 0.55812 0.0
C309 C 0.08017 0.81868 0.54557 0.0
O310 O 0.0189 0.85613 0.53994 0.0
Tb311 Tb 0.02939 0.83299 0.49837 0.0
O312 O 0.02669 0.87614 0.47507 0.0
O313 O 0.01334 0.81957 0.57836 0.0
Eu314 Eu 1.00164 0.7858 0.54533 0.0
O315 O 0.05239 0.83914 0.48116 0.0
C316 C 0.97233 0.79805 0.53286 0.0
O317 O 0.04746 0.81205 0.52491 0.0
O318 O 0.01473 0.76326 0.50478 0.0
O319 O 0.01777 0.80046 0.46652 0.0
C320 C 0.05834 0.82429 0.50601 0.0
C321 C 0.01555 0.73163 0.58448 0.0
O322 O 0.02785 0.74946 0.58623 0.0
C323 C 0.01706 0.84734 0.57037 0.0
C324 C 0.01503 0.77227 0.47441 0.0
O325 O 1.00257 0.74125 0.57054 0.0
C326 C 0.95699 0.79241 0.51652 0.0
C327 C 0.93414 0.81557 0.49107 0.0
C328 C 0.94928 0.81785 0.50406 0.0
C329 C 0.94875 0.76454 0.51767 0.0
C330 C 0.93326 0.76251 0.50467 0.0
C331 C 0.9268 0.78768 0.48932 0.0
C332 C 0.01266 0.88782 0.47061 0.0
O333 O 1.00018 0.87087 0.47487 0.0
O334 O 0.97675 0.78065 0.55707 0.0
O335 O 0.98412 0.80934 0.51579 0.0
H336 H 0.07588 0.87548 0.49009 0.0
H337 H 0.11338 0.85949 0.55822 0.0
H338 H 0.07514 0.79721 0.5524 0.0
H339 H 0.95463 0.83987 0.50639 0.0
H340 H 0.9539 0.74537 0.52994 0.0
H341 H 0.91489 0.78646 0.47966 0.0
C342 C 0.19864 0.41304 0.51944 0.0
C343 C 0.19114 0.38623 0.50849 0.0
C344 C 0.17642 0.37755 0.52182 0.0
C345 C 0.16939 0.39578 0.54537 0.0
C346 C 0.17616 0.42299 0.55458 0.0
C347 C 0.19087 0.43127 0.54238 0.0
O348 O 0.25271 0.39181 0.53653 0.0
Tb349 Tb 0.24207 0.41646 0.49627 0.0
O350 O 0.24457 0.37372 0.47209 0.0
O351 O 0.26043 0.42626 0.57612 0.0
Eu352 Eu 0.26879 0.46458 0.54477 0.0
O353 O 0.21905 0.41167 0.47869 0.0
C354 C 0.29785 0.46045 0.52646 0.0
O355 O 0.22413 0.43631 0.52412 0.0
O356 O 0.25283 0.48516 0.50758 0.0
O357 O 0.25386 0.45057 0.46696 0.0
C358 C 0.2132 0.42546 0.50438 0.0
C359 C 0.25362 0.51876 0.58262 0.0
O360 O 0.24052 0.50395 0.57688 0.0
C361 C 0.2567 0.39886 0.56663 0.0
C362 C 0.2545 0.47867 0.4767 0.0
O363 O 0.26719 0.50698 0.57407 0.0
C364 C 0.31443 0.46152 0.51551 0.0
C365 C 0.33847 0.43458 0.50207 0.0
C366 C 0.32261 0.4343 0.51137 0.0
C367 C 0.32248 0.48917 0.511 0.0
C368 C 0.33843 0.48914 0.5011 0.0
C369 C 0.34611 0.4618 0.49667 0.0
C370 C 0.25838 0.36041 0.47182 0.0
O371 O 0.27097 0.37631 0.47889 0.0
O372 O 0.29339 0.47565 0.55229 0.0
O373 O 0.28649 0.44665 0.5104 0.0
H374 H 0.19643 0.37276 0.4894 0.0
H375 H 0.1578 0.38998 0.55472 0.0
H376 H 0.1958 0.45283 0.54924 0.0
H377 H 0.31679 0.41308 0.51614 0.0
H378 H 0.31641 0.51028 0.51497 0.0
H379 H 0.35857 0.46173 0.49037 0.0
C380 C 0.07133 0.4111 0.72306 0.0
C381 C 0.08032 0.38662 0.7358 0.0
C382 C 0.09543 0.37994 0.72272 0.0
C383 C 0.10104 0.39721 0.69681 0.0
C384 C 0.09269 0.42205 0.68546 0.0
C385 C 0.07782 0.42865 0.69796 0.0
O386 O 0.01593 0.39071 0.7099 0.0
Tb387 Tb 0.02793 0.41497 0.74896 0.0
O388 O 0.02607 0.37341 0.77543 0.0
O389 O 0.0142 0.4254 0.66826 0.0
Eu390 Eu 1.00488 0.4641 0.6978 0.0
O391 O 0.05126 0.40917 0.76474 0.0
C392 C 0.97545 0.45916 0.71361 0.0
O393 O 0.04557 0.43388 0.71972 0.0
O394 O 0.01973 0.48507 0.73666 0.0
O395 O 0.01699 0.45082 0.77744 0.0
C396 C 0.05676 0.42297 0.73879 0.0
C397 C 0.02084 0.51989 0.66554 0.0
O398 O 0.03296 0.50982 0.6822 0.0
C399 C 0.01511 0.39751 0.67871 0.0
C400 C 0.01777 0.47891 0.76755 0.0
O401 O 1.00764 0.50446 0.66546 0.0
C402 C 0.95889 0.4615 0.72474 0.0
C403 C 0.93466 0.43564 0.73893 0.0
C404 C 0.95042 0.43468 0.72913 0.0
C405 C 0.95114 0.48951 0.72938 0.0
C406 C 0.93521 0.49012 0.73965 0.0
C407 C 0.92732 0.4631 0.74459 0.0
C408 C 0.01264 0.35895 0.77668 0.0
O409 O 0.99946 0.37356 0.77103 0.0
O410 O 0.98038 0.47546 0.68898 0.0
O411 O 0.98659 0.44513 0.73008 0.0
H412 H 0.07606 0.37408 0.75662 0.0
H413 H 0.11272 0.39277 0.68701 0.0
H414 H 0.07178 0.4487 0.6896 0.0
H415 H 0.95597 0.41318 0.72428 0.0
H416 H 0.95738 0.51036 0.72514 0.0
H417 H 0.91493 0.46345 0.75147 0.0
C418 C 0.20008 0.83595 0.72268 0.0
C419 C 0.19145 0.86212 0.7322 0.0
C420 C 0.17631 0.86796 0.71865 0.0
C421 C 0.17001 0.84695 0.69688 0.0
C422 C 0.17823 0.82108 0.68812 0.0
C423 C 0.19326 0.81582 0.70042 0.0
O424 O 0.25535 0.85967 0.70844 0.0
Tb425 Tb 0.24382 0.83493 0.74763 0.0
O426 O 0.24591 0.8762 0.77446 0.0
O427 O 0.25774 0.82449 0.66748 0.0
Eu428 Eu 0.26824 0.78697 0.69733 0.0
O429 O 0.22051 0.84127 0.76334 0.0
C430 C 0.29783 0.79553 0.71055 0.0
O431 O 0.22618 0.81447 0.71968 0.0
O432 O 0.25438 0.76424 0.73676 0.0
O433 O 0.2552 0.80008 0.77666 0.0
C434 C 0.215 0.82592 0.73845 0.0
C435 C 0.25282 0.73076 0.66472 0.0
O436 O 0.24038 0.74131 0.68002 0.0
C437 C 0.25645 0.85252 0.67741 0.0
C438 C 0.25501 0.77173 0.76759 0.0
O439 O 0.26611 0.74588 0.66584 0.0
C440 C 0.31396 0.7911 0.72366 0.0
C441 C 0.33853 0.81509 0.73947 0.0
C442 C 0.32287 0.81722 0.72927 0.0
C443 C 0.32119 0.76245 0.72771 0.0
C444 C 0.33704 0.76055 0.73856 0.0
C445 C 0.34536 0.78704 0.7443 0.0
C446 C 0.25953 0.88997 0.77602 0.0
O447 O 0.27249 0.87478 0.76986 0.0
O448 O 0.29295 0.779 0.68606 0.0
O449 O 0.28645 0.80721 0.72848 0.0
H450 H 0.1963 0.87743 0.75005 0.0
H451 H 0.15816 0.84998 0.68743 0.0
H452 H 0.1993 0.79521 0.69385 0.0
H453 H 0.31778 0.8392 0.72483 0.0
H454 H 0.31465 0.74215 0.72245 0.0
H455 H 0.35773 0.78588 0.75117 0.0
C456 C 0.06443 0.2067 0.47362 0.0
C457 C 0.07138 0.23564 0.47743 0.0
C458 C 0.08716 0.23806 0.48876 0.0
C459 C 0.09563 0.21187 0.49522 0.0
C460 C 0.08903 0.18362 0.49067 0.0
C461 C 0.07351 0.18095 0.47999 0.0
O462 O 1.0076 0.23513 0.48748 0.0
Tb463 Tb 0.02031 0.21324 0.44805 0.0
O464 O 0.0197 0.25604 0.42288 0.0
O465 O 1.00676 0.19957 0.52802 0.0
Eu466 Eu 0.9951 0.16386 0.49765 0.0
O467 O 0.04399 0.21697 0.43439 0.0
C468 C 0.96507 0.17145 0.48807 0.0
O469 O 0.03692 0.19209 0.47865 0.0
O470 O 1.00835 0.14176 0.45665 0.0
O471 O 1.00925 0.17883 0.41763 0.0
C472 C 0.04858 0.20111 0.45968 0.0
C473 C 0.01134 0.10599 0.52277 0.0
O474 O 0.02412 0.1217 0.51693 0.0
C475 C 1.00834 0.22761 0.51843 0.0
C476 C 1.00908 0.15025 0.42609 0.0
O477 O 0.99757 0.11928 0.52177 0.0
C478 C 0.95035 0.1604 0.47236 0.0
C479 C 0.92901 0.17223 0.4351 0.0
C480 C 0.94367 0.17896 0.44837 0.0
C481 C 0.94177 0.13467 0.48317 0.0
C482 C 0.92703 0.12743 0.46877 0.0
C483 C 0.92102 0.14637 0.44461 0.0
C484 C 1.00653 0.26762 0.41162 0.0
O485 O 0.99345 0.25189 0.4132 0.0
O486 O 0.97078 0.15681 0.51327 0.0
O487 O 0.97603 0.18348 0.46924 0.0
H488 H 0.06472 0.25568 0.47156 0.0
H489 H 0.10791 0.21345 0.50259 0.0
H490 H 0.06866 0.15876 0.47574 0.0
H491 H 0.94952 0.19956 0.44112 0.0
H492 H 0.94635 0.12077 0.50265 0.0
H493 H 0.90946 0.14191 0.43428 0.0
C494 C 0.70899 0.54327 0.47635 0.0
C495 C 0.70056 0.51562 0.47819 0.0
C496 C 0.68564 0.51477 0.49396 0.0
C497 C 0.6804 0.5406 0.51009 0.0
C498 C 0.68689 0.56837 0.50259 0.0
C499 C 0.70145 0.5697 0.48684 0.0
O500 O 0.76488 0.51259 0.4845 0.0
Tb501 Tb 0.75219 0.53508 0.44539 0.0
O502 O 0.75294 0.4941 0.41668 0.0
O503 O 0.76487 0.54785 0.52522 0.0
Eu504 Eu 0.77781 0.58269 0.49573 0.0
O505 O 0.72815 0.5281 0.43571 0.0
C506 C 0.80776 0.57276 0.48736 0.0
O507 O 0.73605 0.55993 0.47342 0.0
O508 O 0.76611 0.60597 0.45363 0.0
O509 O 0.76285 0.56943 0.41424 0.0
C510 C 0.72399 0.54757 0.4582 0.0
C511 C 0.76171 0.64079 0.5205 0.0
O512 O 0.74909 0.62491 0.51361 0.0
C513 C 0.76386 0.51981 0.51546 0.0
C514 C 0.76483 0.59774 0.423 0.0
O515 O 0.77552 0.62755 0.51977 0.0
C516 C 0.82274 0.58377 0.47251 0.0
C517 C 0.8441 0.57356 0.43442 0.0
C518 C 0.82916 0.56688 0.44667 0.0
C519 C 0.83187 0.60751 0.48625 0.0
C520 C 0.84709 0.61402 0.47378 0.0
C521 C 0.85266 0.59748 0.44723 0.0
C522 C 0.76622 0.47935 0.41232 0.0
O523 O 0.77945 0.49111 0.423 0.0
O524 O 0.80203 0.58699 0.51286 0.0
O525 O 0.79677 0.562 0.46775 0.0
H526 H 0.705 0.49583 0.46588 0.0
H527 H 0.66915 0.54016 0.5228 0.0
H528 H 0.70635 0.59147 0.48066 0.0
H529 H 0.82289 0.54759 0.43711 0.0
H530 H 0.82757 0.61974 0.50727 0.0
H531 H 0.86433 0.60213 0.43751 0.0
C532 C 0.06408 0.54166 0.2682 0.0
C533 C 0.07269 0.51425 0.26496 0.0
C534 C 0.08724 0.514 0.24769 0.0
C535 C 0.09173 0.54016 0.23121 0.0
C536 C 0.08551 0.5677 0.24064 0.0
C537 C 0.07134 0.56847 0.25796 0.0
O538 O 1.00838 0.51306 0.25831 0.0
Tb539 Tb 0.0207 0.53459 0.29847 0.0
O540 O 0.01825 0.49542 0.32959 0.0
O541 O 1.00911 0.54892 0.21824 0.0
Eu542 Eu 0.99712 0.58476 0.24815 0.0
O543 O 0.0445 0.52323 0.30659 0.0
C544 C 0.9669 0.57746 0.25555 0.0
O545 O 0.03773 0.56103 0.27507 0.0
O546 O 1.00914 0.60662 0.29084 0.0
O547 O 1.0101 0.5691 0.32951 0.0
C548 C 0.04937 0.54518 0.28772 0.0
C549 C 0.01487 0.64187 0.22676 0.0
O550 O 0.02677 0.62583 0.23766 0.0
C551 C 1.00936 0.52068 0.22748 0.0
C552 C 1.00975 0.59772 0.32127 0.0
O553 O 1.00104 0.62901 0.22371 0.0
C554 C 0.95187 0.58904 0.26963 0.0
C555 C 0.92824 0.5775 0.30099 0.0
C556 C 0.9433 0.56955 0.29009 0.0
C557 C 0.94481 0.61663 0.25974 0.0
C558 C 0.92978 0.62486 0.27188 0.0
C559 C 0.92201 0.60552 0.29317 0.0
C560 C 1.00502 0.48001 0.32954 0.0
O561 O 0.99291 0.49036 0.31304 0.0
O562 O 0.97316 0.59177 0.23067 0.0
O563 O 0.97743 0.56559 0.27547 0.0
H564 H 0.06869 0.49417 0.2773 0.0
H565 H 0.10248 0.54016 0.21681 0.0
H566 H 0.06658 0.59001 0.2655 0.0
H567 H 0.94793 0.54749 0.29595 0.0
H568 H 0.95068 0.63108 0.24234 0.0
H569 H 0.91024 0.61127 0.30167 0.0
C570 C 0.70742 0.206 0.26535 0.0
C571 C 0.69859 0.23329 0.26475 0.0
C572 C 0.68369 0.23416 0.24895 0.0
C573 C 0.67865 0.20865 0.23204 0.0
C574 C 0.68587 0.18099 0.23716 0.0
C575 C 0.70047 0.17981 0.25279 0.0
O576 O 0.76193 0.23607 0.25446 0.0
Tb577 Tb 0.75066 0.21294 0.29498 0.0
O578 O 0.75245 0.25297 0.32505 0.0
O579 O 0.7662 0.19944 0.21554 0.0
Eu580 Eu 0.7789 0.16607 0.24734 0.0
O581 O 0.72684 0.22252 0.30476 0.0
C582 C 0.80898 0.17474 0.25367 0.0
O583 O 0.73386 0.18673 0.27065 0.0
O584 O 0.76814 0.14243 0.29018 0.0
O585 O 0.76117 0.17938 0.32748 0.0
C586 C 0.72213 0.20152 0.28449 0.0
C587 C 0.76287 0.10737 0.22346 0.0
O588 O 0.74995 0.12297 0.22858 0.0
C589 C 0.76273 0.22716 0.22397 0.0
C590 C 0.76484 0.15135 0.31993 0.0
O591 O 0.77657 0.1209 0.22442 0.0
C592 C 0.82368 0.16313 0.26896 0.0
C593 C 0.84602 0.17448 0.30378 0.0
C594 C 0.83134 0.18223 0.29111 0.0
C595 C 0.83125 0.1359 0.25932 0.0
C596 C 0.84598 0.12783 0.27314 0.0
C597 C 0.85293 0.14706 0.29576 0.0
C598 C 0.7659 0.26744 0.3277 0.0
O599 O 0.77861 0.25593 0.31422 0.0
O600 O 0.80281 0.15955 0.22933 0.0
O601 O 0.79838 0.18743 0.2729 0.0
H602 H 0.70271 0.25276 0.27803 0.0
H603 H 0.66728 0.20911 0.21983 0.0
H604 H 0.70579 0.15806 0.25746 0.0
H605 H 0.8263 0.20391 0.29719 0.0
H606 H 0.826 0.12159 0.24097 0.0
H607 H 0.86449 0.14162 0.30559 0.0
C608 C 0.57461 0.33543 0.51397 0.0
C609 C 0.58391 0.35945 0.50173 0.0
C610 C 0.59819 0.36728 0.51724 0.0
C611 C 0.60274 0.35186 0.5453 0.0
C612 C 0.59402 0.32757 0.55687 0.0
C613 C 0.58004 0.31933 0.54135 0.0
O614 O 0.52591 0.35205 0.54558 0.0
Tb615 Tb 0.53106 0.33173 0.49833 0.0
O616 O 0.52449 0.37416 0.47672 0.0
O617 O 0.50688 0.32438 0.57434 0.0
Eu618 Eu 0.50228 0.2838 0.54342 0.0
O619 O 0.55284 0.34354 0.47749 0.0
C620 C 0.47361 0.28453 0.52293 0.0
O621 O 0.55067 0.30707 0.51325 0.0
O622 O 0.51952 0.26403 0.50814 0.0
O623 O 0.51851 0.29899 0.46834 0.0
C624 C 0.56033 0.32448 0.49652 0.0
C625 C 0.51805 0.23101 0.58312 0.0
O626 O 0.53103 0.24641 0.57815 0.0
C627 C 0.51627 0.34767 0.5704 0.0
C628 C 0.51822 0.27068 0.47727 0.0
O629 O 0.50443 0.24219 0.57398 0.0
C630 C 0.45726 0.28492 0.51123 0.0
C631 C 0.43297 0.3126 0.50312 0.0
C632 C 0.44901 0.31232 0.51086 0.0
C633 C 0.44923 0.25783 0.50432 0.0
C634 C 0.4332 0.25858 0.49544 0.0
C635 C 0.42535 0.28606 0.49463 0.0
C636 C 0.51084 0.38606 0.48458 0.0
O637 O 0.5005 0.36943 0.50016 0.0
O638 O 0.47789 0.26898 0.54861 0.0
O639 O 0.4849 0.29966 0.50812 0.0
H640 H 0.58048 0.37099 0.4796 0.0
H641 H 0.61391 0.35733 0.55683 0.0
H642 H 0.57379 0.29965 0.54995 0.0
H643 H 0.45481 0.33298 0.51801 0.0
H644 H 0.45534 0.2365 0.50604 0.0
H645 H 0.41281 0.28664 0.48914 0.0
C646 C 0.69962 0.9141 0.51828 0.0
C647 C 0.69141 0.88803 0.50734 0.0
C648 C 0.67664 0.88036 0.52121 0.0
C649 C 0.67022 0.89902 0.54515 0.0
C650 C 0.67779 0.92529 0.55482 0.0
C651 C 0.69252 0.93258 0.54196 0.0
O652 O 0.75362 0.8906 0.53576 0.0
Tb653 Tb 0.74327 0.91548 0.49533 0.0
O654 O 0.7458 0.87281 0.47101 0.0
O655 O 0.75775 0.92599 0.57603 0.0
Eu656 Eu 0.76842 0.96278 0.54527 0.0
O657 O 0.7202 0.91047 0.47785 0.0
C658 C 0.79821 0.95346 0.53416 0.0
O659 O 0.72538 0.93655 0.52222 0.0
O660 O 0.75557 0.9861 0.50457 0.0
O661 O 0.75548 0.94905 0.46574 0.0
C662 C 0.71439 0.92536 0.50284 0.0
C663 C 0.75301 0.01969 0.57649 0.0
O664 O 0.74097 0.01029 0.55913 0.0
C665 C 0.75545 0.89806 0.56655 0.0
C666 C 0.75575 0.97762 0.47399 0.0
O667 O 0.76599 0.00357 0.57714 0.0
C668 C 0.814 0.95875 0.51964 0.0
C669 C 0.83845 0.93584 0.50109 0.0
C670 C 0.82305 0.93304 0.5127 0.0
C671 C 0.82094 0.98767 0.51584 0.0
C672 C 0.83656 0.99019 0.50376 0.0
C673 C 0.8449 0.96414 0.4961 0.0
C674 C 0.75968 0.85978 0.47044 0.0
O675 O 0.7722 0.8759 0.47747 0.0
O676 O 0.79301 0.97153 0.55708 0.0
O677 O 0.78699 0.94049 0.51693 0.0
H678 H 0.69628 0.8742 0.48809 0.0
H679 H 0.65865 0.89397 0.55513 0.0
H680 H 0.69809 0.95343 0.54925 0.0
H681 H 0.81831 0.91083 0.51733 0.0
H682 H 0.81441 0.00767 0.52246 0.0
H683 H 0.85707 0.96588 0.48795 0.0
C684 C 0.57235 0.91058 0.72272 0.0
C685 C 0.58009 0.88327 0.73156 0.0
C686 C 0.59499 0.87599 0.71786 0.0
C687 C 0.60199 0.8963 0.69639 0.0
C688 C 0.59496 0.92377 0.68916 0.0
C689 C 0.58007 0.93063 0.70155 0.0
O690 O 0.51713 0.89139 0.70535 0.0
Tb691 Tb 0.52847 0.91425 0.74597 0.0
O692 O 0.52482 0.87184 0.77029 0.0
O693 O 0.51449 0.92694 0.6649 0.0
Eu694 Eu 0.50267 0.96261 0.69536 0.0
O695 O 0.55146 0.90598 0.76257 0.0
C696 C 0.47277 0.95253 0.705 0.0
O697 O 0.54683 0.93453 0.71975 0.0
O698 O 0.51485 0.98476 0.73732 0.0
O699 O 0.517 0.94805 0.77652 0.0
C700 C 0.55757 0.92163 0.73847 0.0
C701 C 0.51868 0.01897 0.6648 0.0
O702 O 0.53028 0.00946 0.68336 0.0
C703 C 0.51648 0.89896 0.67442 0.0
C704 C 0.51457 0.97619 0.76785 0.0
O705 O 0.50566 0.00303 0.6631 0.0
C706 C 0.45757 0.95675 0.72268 0.0
C707 C 0.43526 0.9318 0.74839 0.0
C708 C 0.45008 0.93043 0.73362 0.0
C709 C 0.4491 0.98444 0.72401 0.0
C710 C 0.43392 0.98544 0.73863 0.0
C711 C 0.42814 0.95953 0.7536 0.0
C712 C 0.51081 0.85935 0.76924 0.0
O713 O 0.49871 0.8757 0.75995 0.0
O714 O 0.478 0.97359 0.68538 0.0
O715 O 0.48405 0.93674 0.71901 0.0
H716 H 0.57479 0.86824 0.74917 0.0
H717 H 0.61368 0.89161 0.68675 0.0
H718 H 0.57491 0.95236 0.69615 0.0
H719 H 0.45531 0.90863 0.72879 0.0
H720 H 0.4538 0.00429 0.71229 0.0
H721 H 0.41655 0.96008 0.76491 0.0
C722 C 0.6982 0.33535 0.72877 0.0
C723 C 0.68995 0.36177 0.73851 0.0
C724 C 0.67581 0.37018 0.72255 0.0
C725 C 0.6701 0.35193 0.69749 0.0
C726 C 0.67764 0.32528 0.68894 0.0
C727 C 0.69164 0.31704 0.70429 0.0
O728 O 0.7485 0.35486 0.70086 0.0
Tb729 Tb 0.74194 0.33203 0.74584 0.0
O730 O 0.74789 0.37444 0.76824 0.0
O731 O 0.76064 0.32171 0.66447 0.0
Eu732 Eu 0.77034 0.28559 0.69714 0.0
O733 O 0.71984 0.34263 0.76609 0.0
C734 C 0.79958 0.29572 0.71146 0.0
O735 O 0.7226 0.30827 0.72798 0.0
O736 O 0.75587 0.26367 0.736 0.0
O737 O 0.75459 0.29936 0.77583 0.0
C738 C 0.71267 0.32439 0.74566 0.0
C739 C 0.75588 0.23133 0.65899 0.0
O740 O 0.74322 0.24832 0.66018 0.0
C741 C 0.75436 0.34792 0.67205 0.0
C742 C 0.75676 0.27132 0.76672 0.0
O743 O 0.76921 0.24153 0.67083 0.0
C744 C 0.8153 0.28978 0.72563 0.0
C745 C 0.84 0.31172 0.74361 0.0
C746 C 0.8245 0.3151 0.7329 0.0
C747 C 0.82208 0.26067 0.72817 0.0
C748 C 0.83778 0.25752 0.73944 0.0
C749 C 0.84634 0.28315 0.74762 0.0
C750 C 0.76158 0.38651 0.76108 0.0
O751 O 0.77227 0.36982 0.74656 0.0
O752 O 0.79516 0.28036 0.68571 0.0
O753 O 0.78789 0.30548 0.7299 0.0
H754 H 0.69432 0.37539 0.75841 0.0
H755 H 0.65892 0.35732 0.68595 0.0
H756 H 0.6971 0.29581 0.69788 0.0
H757 H 0.81983 0.3375 0.72892 0.0
H758 H 0.81541 0.24102 0.72102 0.0
H759 H 0.8586 0.2809 0.75499 0.0
C760 C 0.56517 0.70888 0.47267 0.0
C761 C 0.57162 0.73832 0.47489 0.0
C762 C 0.58717 0.74229 0.48687 0.0
C763 C 0.59594 0.7171 0.49583 0.0
C764 C 0.58994 0.68817 0.49268 0.0
C765 C 0.57458 0.68406 0.48122 0.0
O766 O 0.50815 0.73591 0.48371 0.0
Tb767 Tb 0.52149 0.71444 0.44493 0.0
O768 O 0.52103 0.75818 0.42158 0.0
O769 O 0.50743 0.70095 0.52464 0.0
Eu770 Eu 0.49559 0.6652 0.49464 0.0
O771 O 0.54528 0.71681 0.43177 0.0
C772 C 0.46554 0.67286 0.48507 0.0
O773 O 0.53773 0.69387 0.47684 0.0
O774 O 0.5085 0.64312 0.45329 0.0
O775 O 0.51058 0.68007 0.41414 0.0
C776 C 0.54961 0.7019 0.45794 0.0
C777 C 0.51283 0.60767 0.5176 0.0
O778 O 0.525 0.62337 0.50753 0.0
C779 C 0.50919 0.72881 0.5147 0.0
C780 C 0.50989 0.65155 0.4228 0.0
O781 O 0.49896 0.62074 0.5192 0.0
C782 C 0.45069 0.66082 0.4708 0.0
C783 C 0.42712 0.67145 0.43881 0.0
C784 C 0.44211 0.6798 0.44977 0.0
C785 C 0.44378 0.63324 0.48101 0.0
C786 C 0.42886 0.62457 0.46883 0.0
C787 C 0.42101 0.64348 0.44716 0.0
C788 C 0.50836 0.7685 0.40692 0.0
O789 O 0.49599 0.75101 0.40379 0.0
O790 O 0.47138 0.6596 0.51107 0.0
O791 O 0.4764 0.68362 0.46517 0.0
H792 H 0.56479 0.75759 0.4671 0.0
H793 H 0.60809 0.72001 0.50362 0.0
H794 H 0.57013 0.66142 0.47798 0.0
H795 H 0.44666 0.7018 0.44354 0.0
H796 H 0.44968 0.61914 0.49873 0.0
H797 H 0.40931 0.63739 0.43864 0.0
C798 C 0.20775 0.04163 0.47748 0.0
C799 C 0.19917 0.01412 0.47808 0.0
C800 C 0.18403 0.01321 0.49287 0.0
C801 C 0.1784 0.03894 0.50851 0.0
C802 C 0.18559 0.06659 0.5035 0.0
C803 C 0.20044 0.06786 0.48902 0.0
O804 O 0.26396 0.01315 0.4844 0.0
Tb805 Tb 0.25073 0.03427 0.44533 0.0
O806 O 0.25145 0.99139 0.4202 0.0
O807 O 0.26449 0.04909 0.52396 0.0
Eu808 Eu 0.27838 0.08146 0.4932 0.0
O809 O 0.22668 0.02748 0.43605 0.0
C810 C 0.30823 0.06953 0.48879 0.0
O811 O 0.23482 0.05835 0.47465 0.0
O812 O 0.26937 0.10446 0.44818 0.0
O813 O 0.26043 0.06783 0.41193 0.0
C814 C 0.22269 0.04629 0.45935 0.0
C815 C 0.26245 0.14042 0.5161 0.0
O816 O 0.24984 0.12479 0.50853 0.0
C817 C 0.26264 0.02098 0.51512 0.0
C818 C 0.26503 0.09548 0.41896 0.0
O819 O 0.27621 0.12699 0.51576 0.0
C820 C 0.32308 0.08055 0.47381 0.0
C821 C 0.34538 0.06974 0.43844 0.0
C822 C 0.33074 0.06168 0.45129 0.0
C823 C 0.33053 0.10767 0.48362 0.0
C824 C 0.34516 0.11588 0.4699 0.0
C825 C 0.35223 0.09703 0.44702 0.0
C826 C 0.26461 0.98061 0.4079 0.0
O827 O 0.2774 0.99721 0.40839 0.0
O828 O 0.3021 0.0853 0.51279 0.0
O829 O 0.29759 0.0577 0.46913 0.0
H830 H 0.20368 0.9945 0.46558 0.0
H831 H 0.16673 0.03851 0.51948 0.0
H832 H 0.20572 0.08964 0.4844 0.0
H833 H 0.32566 0.04017 0.4448 0.0
H834 H 0.32521 0.12192 0.502 0.0
H835 H 0.36373 0.10282 0.43714 0.0
C836 C 0.56541 0.04228 0.27473 0.0
C837 C 0.57221 0.01304 0.27314 0.0
C838 C 0.58753 0.00924 0.25991 0.0
C839 C 0.59568 0.03428 0.24851 0.0
C840 C 0.58941 0.06305 0.25129 0.0
C841 C 0.57433 0.0671 0.26428 0.0
O842 O 0.51199 0.01348 0.25498 0.0
Tb843 Tb 0.52127 0.0375 0.29699 0.0
O844 O 0.51851 0.99716 0.32637 0.0
O845 O 0.50692 0.04941 0.21531 0.0
Eu846 Eu 0.49516 0.08488 0.24615 0.0
O847 O 0.54452 0.03011 0.31237 0.0
C848 C 0.46497 0.07745 0.25345 0.0
O849 O 0.53897 0.0623 0.2733 0.0
O850 O 0.50665 0.10796 0.28854 0.0
O851 O 0.50921 0.07095 0.32722 0.0
C852 C 0.55008 0.04911 0.29073 0.0
C853 C 0.51339 0.14124 0.22412 0.0
O854 O 0.52518 0.12449 0.23426 0.0
C855 C 0.51048 0.0218 0.22433 0.0
C856 C 0.50749 0.09941 0.31903 0.0
O857 O 0.49937 0.129 0.22149 0.0
C858 C 0.45004 0.08725 0.26941 0.0
C859 C 0.42822 0.07282 0.30447 0.0
C860 C 0.44307 0.06698 0.29141 0.0
C861 C 0.44162 0.11376 0.26051 0.0
C862 C 0.42673 0.12001 0.27476 0.0
C863 C 0.42039 0.09939 0.2968 0.0
C864 C 0.50572 0.98061 0.32379 0.0
O865 O 0.49408 0.99009 0.30533 0.0
O866 O 0.47107 0.09401 0.23008 0.0
O867 O 0.47563 0.06376 0.27165 0.0
H868 H 0.56587 0.9938 0.28251 0.0
H869 H 0.60763 0.03152 0.23934 0.0
H870 H 0.56978 0.08971 0.26733 0.0
H871 H 0.44886 0.04593 0.29725 0.0
H872 H 0.44644 0.12905 0.24257 0.0
H873 H 0.40872 0.10324 0.30695 0.0
C874 C 0.20747 0.70713 0.27087 0.0
C875 C 0.20086 0.73652 0.26945 0.0
C876 C 0.18532 0.74056 0.25748 0.0
C877 C 0.17674 0.71563 0.24726 0.0
C878 C 0.18282 0.68669 0.24965 0.0
C879 C 0.19816 0.68242 0.26139 0.0
O880 O 0.2635 0.73544 0.25751 0.0
Tb881 Tb 0.25156 0.71154 0.29666 0.0
O882 O 0.2533 0.75202 0.32614 0.0
O883 O 0.26458 0.70091 0.21583 0.0
Eu884 Eu 0.27682 0.66439 0.24439 0.0
O885 O 0.22792 0.71672 0.31034 0.0
C886 C 0.30695 0.67271 0.25233 0.0
O887 O 0.23458 0.6898 0.26743 0.0
O888 O 0.26524 0.64073 0.28629 0.0
O889 O 0.26281 0.67672 0.32625 0.0
C890 C 0.22302 0.70014 0.28586 0.0
C891 C 0.25883 0.60781 0.2219 0.0
O892 O 0.24699 0.62408 0.2327 0.0
C893 C 0.26333 0.72876 0.22631 0.0
C894 C 0.26433 0.64848 0.31704 0.0
O895 O 0.27275 0.62046 0.21904 0.0
C896 C 0.32219 0.66328 0.26738 0.0
C897 C 0.34406 0.67764 0.30247 0.0
C898 C 0.32897 0.683 0.2903 0.0
C899 C 0.33097 0.63763 0.257 0.0
C900 C 0.34612 0.63178 0.27032 0.0
C901 C 0.35236 0.65216 0.29279 0.0
C902 C 0.26644 0.76773 0.32679 0.0
O903 O 0.27895 0.75738 0.31156 0.0
O904 O 0.30106 0.65705 0.22801 0.0
O905 O 0.29611 0.68485 0.27136 0.0
H906 H 0.20752 0.75569 0.27803 0.0
H907 H 0.16464 0.71872 0.23915 0.0
H908 H 0.20266 0.65975 0.26413 0.0
H909 H 0.32277 0.70319 0.29772 0.0
H910 H 0.32618 0.62258 0.2388 0.0
H911 H 0.36417 0.64869 0.30234 0.0
C912 C 0.57196 0.83925 0.01827 0.0
C913 C 0.58035 0.86517 0.00733 0.0
C914 C 0.59506 0.87286 0.02158 0.0
C915 C 0.60123 0.85423 0.04585 0.0
C916 C 0.59351 0.82814 0.05553 0.0
C917 C 0.5789 0.82081 0.04217 0.0
O918 O 0.51662 0.85707 0.03637 0.0
Tb919 Tb 0.52804 0.83448 0.99543 0.0
O920 O 0.52367 0.87656 0.97093 0.0
O921 O 0.51628 0.82131 0.0768 0.0
Eu922 Eu 0.50505 0.78479 0.04663 0.0
O923 O 0.55095 0.84349 0.97854 0.0
C924 C 0.47523 0.7944 0.03599 0.0
O925 O 0.54665 0.8147 0.02124 0.0
O926 O 0.51774 0.76276 0.00498 0.0
O927 O 0.51697 0.79949 0.96583 0.0
C928 C 0.55727 0.82789 0.00246 0.0
C929 C 0.51979 0.72578 0.07408 0.0
O930 O 0.53103 0.73319 0.05362 0.0
C931 C 0.51665 0.84949 0.06729 0.0
C932 C 0.51706 0.77095 0.97436 0.0
O933 O 0.50768 0.74382 0.07822 0.0
C934 C 0.45945 0.78934 0.0213 0.0
C935 C 0.43495 0.81255 0.00363 0.0
C936 C 0.45038 0.81516 0.01504 0.0
C937 C 0.45251 0.76049 0.01687 0.0
C938 C 0.43688 0.7582 0.00478 0.0
C939 C 0.42851 0.78439 -0.00216 0.0
C940 C 0.50961 0.88873 0.97324 0.0
O941 O 0.4978 0.87198 0.9832 0.0
O942 O 0.48044 0.77593 0.05848 0.0
O943 O 0.48644 0.80769 0.01904 0.0
H944 H 0.57565 0.87887 0.98781 0.0
H945 H 0.61279 0.85898 0.05602 0.0
H946 H 0.5733 0.79997 0.04939 0.0
H947 H 0.4551 0.83728 0.02024 0.0
H948 H 0.45904 0.74037 0.02303 0.0
H949 H 0.41632 0.78286 0.98978 0.0
C950 C 0.69675 0.41139 0.01455 0.0
C951 C 0.68764 0.38534 0.00756 0.0
C952 C 0.67499 0.37707 0.02834 0.0
C953 C 0.67314 0.39306 0.05753 0.0
C954 C 0.6797 0.42154 0.06087 0.0
C955 C 0.69176 0.43043 0.03996 0.0
O956 O 0.74391 0.39841 0.04662 0.0
Tb957 Tb 0.73964 0.4158 -0.00249 0.0
O958 O 0.74726 0.3737 0.97679 0.0
O959 O 0.76547 0.42197 0.07166 0.0
Eu960 Eu 0.7696 0.46404 0.04279 0.0
O961 O 0.71818 0.39981 0.97852 0.0
C962 C 0.79854 0.46529 0.02368 0.0
O963 O 0.71961 0.44161 0.0066 0.0
O964 O 0.75313 0.48237 0.00523 0.0
O965 O 0.75221 0.4471 0.96566 0.0
C966 C 0.71028 0.42096 0.99389 0.0
C967 C 0.7525 0.51859 0.07614 0.0
O968 O 0.74089 0.50949 0.05746 0.0
C969 C 0.75478 0.40056 0.0696 0.0
C970 C 0.75473 0.475 0.97464 0.0
O971 O 0.76553 0.50255 0.07756 0.0
C972 C 0.81507 0.46494 0.01282 0.0
C973 C 0.83862 0.43655 -0.00087 0.0
C974 C 0.82276 0.43719 0.00848 0.0
C975 C 0.82355 0.49199 0.00862 0.0
C976 C 0.83942 0.49106 -0.00134 0.0
C977 C 0.84669 0.46334 0.99388 0.0
C978 C 0.76095 0.36255 0.98549 0.0
O979 O 0.77079 0.37966 0.00181 0.0
O980 O 0.7934 0.4828 0.04714 0.0
O981 O 0.78795 0.44748 0.01038 0.0
H982 H 0.68985 0.3728 0.98542 0.0
H983 H 0.6642 0.38628 0.07495 0.0
H984 H 0.69671 0.45272 0.0427 0.0
H985 H 0.8166 0.41631 0.01314 0.0
H986 H 0.81785 0.51344 0.01277 0.0
H987 H 0.85913 0.46258 0.98747 0.0
C988 C 0.57201 0.41257 0.22291 0.0
C989 C 0.58098 0.38816 0.2357 0.0
C990 C 0.59601 0.38124 0.22249 0.0
C991 C 0.60158 0.39806 0.19621 0.0
C992 C 0.59325 0.42282 0.18454 0.0
C993 C 0.57849 0.4299 0.1975 0.0
O994 O 0.51761 0.39072 0.20697 0.0
Tb995 Tb 0.52837 0.41569 0.24686 0.0
O996 O 0.52487 0.37341 0.27162 0.0
O997 O 0.51465 0.42524 0.16573 0.0
Eu998 Eu 0.50251 0.46124 0.19511 0.0
O999 O 0.55148 0.40908 0.26365 0.0
C1000 C 0.47261 0.45119 0.20405 0.0
O1001 O 0.54639 0.43606 0.21987 0.0
O1002 O 0.51349 0.4856 0.23704 0.0
O1003 O 0.5167 0.44972 0.27692 0.0
C1004 C 0.55735 0.42408 0.2388 0.0
C1005 C 0.51801 0.51929 0.16777 0.0
O1006 O 0.52907 0.51111 0.18831 0.0
C1007 C 0.51663 0.39749 0.17588 0.0
C1008 C 0.51392 0.47762 0.26775 0.0
O1009 O 0.50565 0.50198 0.16343 0.0
C1010 C 0.45739 0.45862 0.22018 0.0
C1011 C 0.4335 0.43863 0.24522 0.0
C1012 C 0.4487 0.43434 0.23271 0.0
C1013 C 0.45039 0.48767 0.21969 0.0
C1014 C 0.4351 0.49193 0.23285 0.0
C1015 C 0.4271 0.46746 0.24611 0.0
C1016 C 0.51084 0.361 0.27054 0.0
O1017 O 0.49877 0.37759 0.26158 0.0
O1018 O 0.47805 0.46911 0.18124 0.0
O1019 O 0.48373 0.43791 0.22132 0.0
H1020 H 0.57677 0.37576 0.25667 0.0
H1021 H 0.61321 0.3933 0.18632 0.0
H1022 H 0.57248 0.44993 0.18901 0.0
H1023 H 0.45344 0.41175 0.23119 0.0
H1024 H 0.45653 0.5064 0.20865 0.0
H1025 H 0.41509 0.47061 0.2547 0.0
C1026 C 0.69981 0.83698 0.2204 0.0
C1027 C 0.69129 0.86275 0.23142 0.0
C1028 C 0.67681 0.87089 0.21642 0.0
C1029 C 0.67107 0.85277 0.19118 0.0
C1030 C 0.67899 0.82688 0.18131 0.0
C1031 C 0.69331 0.81914 0.19557 0.0
O1032 O 0.75491 0.85776 0.208 0.0
Tb1033 Tb 0.74301 0.83317 0.24697 0.0
O1034 O 0.74504 0.87508 0.27283 0.0
O1035 O 0.76016 0.823 0.16721 0.0
Eu1036 Eu 0.76836 0.7841 0.19821 0.0
O1037 O 0.71965 0.83929 0.26249 0.0
C1038 C 0.79742 0.78697 0.21678 0.0
O1039 O 0.72543 0.81372 0.21807 0.0
O1040 O 0.75203 0.76385 0.23503 0.0
O1041 O 0.75393 0.79781 0.27613 0.0
C1042 C 0.71419 0.82505 0.23677 0.0
C1043 C 0.75348 0.73088 0.15769 0.0
O1044 O 0.74074 0.74768 0.15857 0.0
C1045 C 0.75775 0.85079 0.17731 0.0
C1046 C 0.75366 0.76975 0.26607 0.0
O1047 O 0.76669 0.74102 0.17007 0.0
C1048 C 0.81405 0.78605 0.22751 0.0
C1049 C 0.83793 0.81325 0.24119 0.0
C1050 C 0.82205 0.81336 0.23211 0.0
C1051 C 0.82232 0.7585 0.23139 0.0
C1052 C 0.8383 0.75869 0.24116 0.0
C1053 C 0.84579 0.78613 0.246 0.0
C1054 C 0.75868 0.88876 0.2748 0.0
O1055 O 0.77167 0.87347 0.26925 0.0
O1056 O 0.79298 0.77277 0.1903 0.0
O1057 O 0.78609 0.80066 0.23312 0.0
H1058 H 0.6957 0.87595 0.25161 0.0
H1059 H 0.65962 0.85753 0.18052 0.0
H1060 H 0.69902 0.79838 0.18831 0.0
H1061 H 0.81608 0.83453 0.22783 0.0
H1062 H 0.81639 0.73733 0.22711 0.0
H1063 H 0.85825 0.78641 0.25224 0.0
C1064 C 0.56288 0.20583 0.97036 0.0
C1065 C 0.57007 0.23464 0.97169 0.0
C1066 C 0.58573 0.23741 0.98329 0.0
C1067 C 0.59371 0.21193 0.99404 0.0
C1068 C 0.58706 0.18353 0.99125 0.0
C1069 C 0.57168 0.18043 0.97963 0.0
O1070 O 0.50722 0.23543 0.98371 0.0
Tb1071 Tb 0.51908 0.21262 0.94375 0.0
O1072 O 0.51793 0.25363 0.91502 0.0
O1073 O 0.50658 0.20045 0.0249 0.0
Eu1074 Eu 0.49499 0.1639 0.99543 0.0
O1075 O 0.54282 0.21704 0.93063 0.0
C1076 C 0.46488 0.17091 0.98614 0.0
O1077 O 0.53564 0.18982 0.97297 0.0
O1078 O 0.50771 0.14148 0.95404 0.0
O1079 O 0.50781 0.17782 0.91436 0.0
C1080 C 0.54738 0.19989 0.95493 0.0
C1081 C 0.51312 0.10811 0.01955 0.0
O1082 O 0.52499 0.12471 0.00961 0.0
C1083 C 0.50815 0.22834 0.01475 0.0
C1084 C 0.50796 0.1494 0.92331 0.0
O1085 O 0.49904 0.12029 0.02116 0.0
C1086 C 0.44991 0.16098 0.97052 0.0
C1087 C 0.42748 0.17597 0.93745 0.0
C1088 C 0.44247 0.18179 0.9498 0.0
C1089 C 0.44187 0.1339 0.9788 0.0
C1090 C 0.42683 0.12762 0.96521 0.0
C1091 C 0.42003 0.14887 0.9444 0.0
C1092 C 0.50503 0.27008 0.91455 0.0
O1093 O 0.49235 0.2602 0.92951 0.0
O1094 O 0.47072 0.15535 0.01058 0.0
O1095 O 0.47572 0.18369 0.96765 0.0
H1096 H 0.56386 0.25425 0.96275 0.0
H1097 H 0.60587 0.21397 0.00213 0.0
H1098 H 0.56683 0.15809 0.97634 0.0
H1099 H 0.44796 0.20325 0.94462 0.0
H1100 H 0.44709 0.11822 0.99586 0.0
H1101 H 0.40823 0.14526 0.93494 0.0
C1102 C 0.20861 0.53887 0.97392 0.0
C1103 C 0.20161 0.51021 0.97905 0.0
C1104 C 0.18591 0.50836 0.99079 0.0
C1105 C 0.17752 0.53477 -0.00341 0.0
C1106 C 0.18401 0.56271 0.9899 0.0
C1107 C 0.19953 0.5649 0.97894 0.0
O1108 O 0.26651 0.51435 0.98474 0.0
Tb1109 Tb 0.25284 0.5351 0.94601 0.0
O1110 O 0.25511 0.49481 0.91644 0.0
O1111 O 0.26544 0.54863 0.02601 0.0
Eu1112 Eu 0.2785 0.58383 -0.00284 0.0
O1113 O 0.22924 0.52504 0.93616 0.0
C1114 C 0.30894 0.5769 0.99496 0.0
O1115 O 0.2358 0.55668 0.97541 0.0
O1116 O 0.27017 0.60633 0.95136 0.0
O1117 O 0.26151 0.57059 0.91402 0.0
C1118 C 0.22435 0.54344 0.95907 0.0
C1119 C 0.25884 0.63999 0.01313 0.0
O1120 O 0.24811 0.62314 -0.00098 0.0
C1121 C 0.26466 0.52073 0.01571 0.0
C1122 C 0.2656 0.59825 0.92204 0.0
O1123 O 0.27252 0.62791 0.02039 0.0
C1124 C 0.32326 0.58809 0.9777 0.0
C1125 C 0.34299 0.57924 0.93567 0.0
C1126 C 0.32928 0.57064 0.9519 0.0
C1127 C 0.33189 0.61382 0.98809 0.0
C1128 C 0.34577 0.62257 0.97135 0.0
C1129 C 0.35082 0.60542 0.94478 0.0
C1130 C 0.26834 0.47936 0.91587 0.0
O1131 O 0.28077 0.48988 0.93113 0.0
O1132 O 0.30193 0.5946 0.01621 0.0
O1133 O 0.29894 0.56079 0.9776 0.0
H1134 H 0.20811 0.4899 0.97351 0.0
H1135 H 0.16525 0.53353 0.00418 0.0
H1136 H 0.2043 0.58681 0.97299 0.0
H1137 H 0.32364 0.54974 0.94504 0.0
H1138 H 0.32801 0.62661 0.00907 0.0
H1139 H 0.36182 0.61104 0.93265 0.0
C1140 C 0.56451 0.54215 0.76933 0.0
C1141 C 0.57107 0.51275 0.76909 0.0
C1142 C 0.58645 0.50816 0.75661 0.0
C1143 C 0.59496 0.53264 0.74484 0.0
C1144 C 0.58893 0.56171 0.74651 0.0
C1145 C 0.57367 0.56638 0.75834 0.0
O1146 O 0.51015 0.51247 0.75531 0.0
Tb1147 Tb 0.5211 0.53651 0.79545 0.0
O1148 O 0.52057 0.49394 0.82116 0.0
O1149 O 0.50654 0.54832 0.71536 0.0
Eu1150 Eu 0.49368 0.58239 0.74587 0.0
O1151 O 0.54466 0.53352 0.80988 0.0
C1152 C 0.46351 0.5736 0.75094 0.0
O1153 O 0.53761 0.55955 0.76651 0.0
O1154 O 0.50363 0.60637 0.78934 0.0
O1155 O 0.50955 0.56943 0.82709 0.0
C1156 C 0.5493 0.54988 0.785 0.0
C1157 C 0.5115 0.63945 0.72469 0.0
O1158 O 0.52333 0.62317 0.73552 0.0
C1159 C 0.50979 0.52073 0.72456 0.0
C1160 C 0.50651 0.59763 0.81931 0.0
O1161 O 0.49761 0.6268 0.72176 0.0
C1162 C 0.44886 0.5853 0.76644 0.0
C1163 C 0.42787 0.57719 0.80589 0.0
C1164 C 0.44216 0.56843 0.79193 0.0
C1165 C 0.44054 0.61076 0.75433 0.0
C1166 C 0.42612 0.61955 0.7688 0.0
C1167 C 0.4202 0.60296 0.7949 0.0
C1168 C 0.50725 0.48248 0.83175 0.0
O1169 O 0.49419 0.49817 0.82886 0.0
O1170 O 0.4699 0.58929 0.72719 0.0
O1171 O 0.47399 0.56053 0.77011 0.0
H1172 H 0.56452 0.49402 0.77908 0.0
H1173 H 0.60705 0.52925 0.73679 0.0
H1174 H 0.56923 0.58915 0.76055 0.0
H1175 H 0.44774 0.54788 0.80019 0.0
H1176 H 0.44504 0.62326 0.7337 0.0
H1177 H 0.40889 0.60907 0.80548 0.0
C1178 C 0.20783 0.20574 0.76336 0.0
C1179 C 0.19894 0.23298 0.76383 0.0
C1180 C 0.1837 0.23386 0.74938 0.0
C1181 C 0.17831 0.20836 0.73294 0.0
C1182 C 0.18583 0.1808 0.73662 0.0
C1183 C 0.20072 0.1796 0.75101 0.0
O1184 O 0.26473 0.23589 0.75819 0.0
Tb1185 Tb 0.25095 0.21373 0.79572 0.0
O1186 O 0.25126 0.25653 0.82095 0.0
O1187 O 0.26541 0.2014 0.71687 0.0
Eu1188 Eu 0.27719 0.16563 0.74707 0.0
O1189 O 0.22677 0.21817 0.8056 0.0
C1190 C 0.30712 0.17391 0.75732 0.0
O1191 O 0.23544 0.19124 0.76406 0.0
O1192 O 0.26407 0.14256 0.78773 0.0
O1193 O 0.26161 0.17944 0.82696 0.0
C1194 C 0.2231 0.20112 0.78055 0.0
C1195 C 0.26194 0.10744 0.72028 0.0
O1196 O 0.24884 0.12239 0.72586 0.0
C1197 C 0.2641 0.22928 0.72705 0.0
C1198 C 0.26269 0.15096 0.81828 0.0
O1199 O 0.27546 0.12155 0.72168 0.0
C1200 C 0.32202 0.16263 0.77228 0.0
C1201 C 0.34372 0.1739 0.80899 0.0
C1202 C 0.32869 0.18029 0.79712 0.0
C1203 C 0.33096 0.13824 0.75922 0.0
C1204 C 0.34624 0.13186 0.7715 0.0
C1205 C 0.35208 0.14929 0.79708 0.0
C1206 C 0.26419 0.26695 0.83444 0.0
O1207 O 0.27684 0.24991 0.83541 0.0
O1208 O 0.30158 0.16022 0.73135 0.0
O1209 O 0.29602 0.18476 0.77667 0.0
H1210 H 0.20337 0.25243 0.77672 0.0
H1211 H 0.1667 0.2088 0.72175 0.0
H1212 H 0.2063 0.1579 0.75456 0.0
H1213 H 0.3226 0.20014 0.8059 0.0
H1214 H 0.32649 0.12546 0.73876 0.0
H1215 H 0.36385 0.14492 0.80645 0.0
H1216 H 0.84838 0.40354 0.0506 0.0
H1217 H 0.92095 0.33995 0.94707 0.0
H1218 H 0.8516 0.41021 0.94611 0.0
H1219 H 0.91937 0.34045 0.05194 0.0
H1220 H 0.89544 0.36575 0.94581 0.0
H1221 H 0.87309 0.37508 0.05116 0.0
C1222 C 0.85393 0.39768 0.02766 0.0
C1223 C 0.84804 0.40897 -0.00175 0.0
C1224 C 0.90079 0.36074 0.96914 0.0
C1225 C 0.87656 0.37819 -0.00129 0.0
C1226 C 0.91547 0.3467 0.96978 0.0
C1227 C 0.92223 0.33869 -0.00038 0.0
C1228 C 0.89279 0.36616 -0.00142 0.0
C1229 C 0.91458 0.34693 0.02851 0.0
C1230 C 0.86822 0.38216 0.02801 0.0
C1231 C 0.85579 0.40154 0.96919 0.0
N1232 N 0.9001 0.35986 0.02731 0.0
N1233 N 0.86985 0.38705 0.97018 0.0
H1234 H 0.34758 0.89576 0.04442 0.0
H1235 H 0.42497 0.84246 0.94991 0.0
H1236 H 0.35694 0.91887 0.9443 0.0
H1237 H 0.41907 0.83668 0.05395 0.0
H1238 H 0.39979 0.86928 0.9461 0.0
H1239 H 0.37243 0.8679 0.0462 0.0
C1240 C 0.35459 0.89385 0.02243 0.0
C1241 C 0.35034 0.90947 0.99416 0.0
C1242 C 0.40415 0.86272 0.96985 0.0
C1243 C 0.37894 0.87909 -0.00364 0.0
C1244 C 0.41864 0.84806 0.97203 0.0
C1245 C 0.42408 0.83805 0.00231 0.0
C1246 C 0.39503 0.86665 -0.00188 0.0
C1247 C 0.41532 0.84475 0.03029 0.0
C1248 C 0.36892 0.87861 0.02364 0.0
C1249 C 0.35991 0.90694 0.96646 0.0
N1250 N 0.40105 0.85828 0.02749 0.0
N1251 N 0.37393 0.89239 0.96836 0.0
H1252 H 0.85207 0.83745 0.29397 0.0
H1253 H 0.91656 0.91829 0.18295 0.0
H1254 H 0.84706 0.84751 0.19011 0.0
H1255 H 0.92266 0.8992 0.28502 0.0
H1256 H 0.8909 0.8932 0.18438 0.0
H1257 H 0.87675 0.86547 0.29169 0.0
C1258 C 0.85584 0.84691 0.27092 0.0
C1259 C 0.8476 0.84045 0.24221 0.0
C1260 C 0.898 0.89383 0.2063 0.0
C1261 C 0.8761 0.87096 0.23901 0.0
C1262 C 0.91275 0.90748 0.20527 0.0
C1263 C 0.9217 0.91013 0.2338 0.0
C1264 C 0.89223 0.88305 0.23615 0.0
C1265 C 0.91613 0.89698 0.26248 0.0
C1266 C 0.8701 0.86221 0.26945 0.0
C1267 C 0.85307 0.85242 0.21276 0.0
N1268 N 0.90163 0.88421 0.26303 0.0
N1269 N 0.86719 0.86672 0.21178 0.0
H1270 H 0.35922 0.32236 0.19068 0.0
H1271 H 0.41421 0.4289 0.29759 0.0
H1272 H 0.3471 0.34981 0.28816 0.0
H1273 H 0.4274 0.39242 0.20411 0.0
H1274 H 0.39017 0.39855 0.2965 0.0
H1275 H 0.38403 0.34968 0.19502 0.0
C1276 C 0.36159 0.33528 0.21252 0.0
C1277 C 0.3511 0.33455 0.23887 0.0
C1278 C 0.39848 0.39673 0.27654 0.0
C1279 C 0.37965 0.36473 0.24468 0.0
C1280 C 0.41227 0.41369 0.27738 0.0
C1281 C 0.42268 0.41327 0.25077 0.0
C1282 C 0.39512 0.37945 0.24881 0.0
C1283 C 0.4197 0.39331 0.22514 0.0
C1284 C 0.37586 0.3503 0.2153 0.0
C1285 C 0.35484 0.35051 0.26717 0.0
N1286 N 0.40602 0.37757 0.22452 0.0
N1287 N 0.3689 0.36497 0.26942 0.0
H1288 H 0.16938 0.58641 0.93769 0.0
H1289 H 0.10491 0.66866 0.04787 0.0
H1290 H 0.17281 0.59318 0.04213 0.0
H1291 H 0.0985 0.64968 0.94578 0.0
H1292 H 0.12978 0.64085 0.04679 0.0
H1293 H 0.14428 0.61355 0.9396 0.0
C1294 C 0.16513 0.5949 0.96085 0.0
C1295 C 0.17316 0.58824 0.98977 0.0
C1296 C 0.1228 0.64221 0.02475 0.0
C1297 C 0.14429 0.61771 0.99244 0.0
C1298 C 0.10851 0.65757 0.02557 0.0
C1299 C 0.09973 0.66115 -0.00306 0.0
C1300 C 0.12836 0.6308 0.99499 0.0
C1301 C 0.10492 0.647 0.96841 0.0
C1302 C 0.15067 0.60969 0.96206 0.0
C1303 C 0.16701 0.59854 0.01935 0.0
N1304 N 0.11908 0.6328 0.96799 0.0
N1305 N 0.15282 0.61261 0.01999 0.0
H1306 H 0.66964 0.08527 0.04715 0.0
H1307 H 0.59825 0.14962 0.94207 0.0
H1308 H 0.67091 0.0953 0.94279 0.0
H1309 H 0.60165 0.16296 0.0458 0.0
H1310 H 0.62353 0.12313 0.94298 0.0
H1311 H 0.64435 0.11191 0.04839 0.0
C1312 C 0.66485 0.09427 0.0247 0.0
C1313 C 0.67231 0.08861 0.9949 0.0
C1314 C 0.6186 0.1313 0.96567 0.0
C1315 C 0.64319 0.11719 0.99578 0.0
C1316 C 0.60402 0.14568 0.96525 0.0
C1317 C 0.5979 0.15801 0.99399 0.0
C1318 C 0.62699 0.12926 0.99508 0.0
C1319 C 0.60598 0.15329 0.02329 0.0
C1320 C 0.65032 0.10889 0.02529 0.0
C1321 C 0.66555 0.0998 0.96626 0.0
N1322 N 0.62025 0.13949 0.02308 0.0
N1323 N 0.65118 0.11315 0.96732 0.0
H1324 H 0.17186 0.15501 0.68364 0.0
H1325 H 0.10202 0.09802 0.79832 0.0
H1326 H 0.17484 0.15037 0.7883 0.0
H1327 H 0.10224 0.08426 0.69445 0.0
H1328 H 0.12758 0.12313 0.79413 0.0
H1329 H 0.1463 0.12949 0.68603 0.0
C1330 C 0.16743 0.1473 0.70695 0.0
C1331 C 0.17545 0.15443 0.73575 0.0
C1332 C 0.1219 0.11519 0.77213 0.0
C1333 C 0.14593 0.12731 0.73895 0.0
C1334 C 0.10715 0.1016 0.77445 0.0
C1335 C 0.10008 0.08942 0.74662 0.0
C1336 C 0.12952 0.11652 0.74173 0.0
C1337 C 0.10734 0.09375 0.71632 0.0
C1338 C 0.15271 0.13345 0.70843 0.0
C1339 C 0.1691 0.14477 0.76552 0.0
N1340 N 0.12181 0.10666 0.71469 0.0
N1341 N 0.15452 0.13228 0.76643 0.0
H1342 H 0.66613 0.66975 0.80417 0.0
H1343 H 0.60767 0.57329 0.69401 0.0
H1344 H 0.67475 0.65214 0.70252 0.0
H1345 H 0.59643 0.60447 0.79074 0.0
H1346 H 0.63216 0.60222 0.69568 0.0
H1347 H 0.64124 0.64243 0.80043 0.0
C1348 C 0.66302 0.6589 0.78141 0.0
C1349 C 0.67249 0.66244 0.75375 0.0
C1350 C 0.62419 0.60324 0.71628 0.0
C1351 C 0.64387 0.63253 0.74877 0.0
C1352 C 0.61014 0.58714 0.71511 0.0
C1353 C 0.60012 0.5866 0.74228 0.0
C1354 C 0.62822 0.61856 0.74495 0.0
C1355 C 0.60382 0.60455 0.76922 0.0
C1356 C 0.64869 0.64395 0.77905 0.0
C1357 C 0.66781 0.64919 0.72444 0.0
N1358 N 0.61775 0.61945 0.77011 0.0
N1359 N 0.65371 0.63485 0.72262 0.0
H1360 H 0.91929 0.83716 0.43701 0.0
H1361 H 0.85177 0.90507 0.55053 0.0
H1362 H 0.92412 0.85014 0.54056 0.0
H1363 H 0.85076 0.91205 0.44587 0.0
H1364 H 0.87716 0.87906 0.54691 0.0
H1365 H 0.89406 0.86398 0.4387 0.0
C1366 C 0.91533 0.8469 0.45979 0.0
C1367 C 0.92374 0.8418 0.48861 0.0
C1368 C 0.87124 0.88574 0.52467 0.0
C1369 C 0.89466 0.87051 0.4912 0.0
C1370 C 0.85661 0.89984 0.52673 0.0
C1371 C 0.84924 0.91026 0.4984 0.0
C1372 C 0.87843 0.88218 0.49404 0.0
C1373 C 0.85609 0.90388 0.46814 0.0
C1374 C 0.90081 0.86156 0.46093 0.0
C1375 C 0.91803 0.85409 0.51776 0.0
N1376 N 0.87045 0.8905 0.46672 0.0
N1377 N 0.90364 0.86737 0.51846 0.0
H1378 H 0.34719 0.40021 0.55348 0.0
H1379 H 0.4248 0.35228 0.4563 0.0
H1380 H 0.35346 0.41077 0.44996 0.0
H1381 H 0.41704 0.32936 0.55695 0.0
H1382 H 0.39953 0.37873 0.45561 0.0
H1383 H 0.37235 0.3732 0.55615 0.0
C1384 C 0.35353 0.39553 0.53112 0.0
C1385 C 0.34837 0.40757 0.50146 0.0
C1386 C 0.40347 0.36845 0.47809 0.0
C1387 C 0.37736 0.37861 0.50449 0.0
C1388 C 0.41807 0.35414 0.47866 0.0
C1389 C 0.42295 0.33912 0.50679 0.0
C1390 C 0.39372 0.3673 0.50578 0.0
C1391 C 0.41368 0.34124 0.53499 0.0
C1392 C 0.36805 0.38084 0.53273 0.0
C1393 C 0.3571 0.40158 0.47321 0.0
N1394 N 0.39931 0.35464 0.53366 0.0
N1395 N 0.37136 0.38805 0.4755 0.0
H1396 H 0.85452 0.33399 0.79723 0.0
H1397 H 0.9225 0.40581 0.68757 0.0
H1398 H 0.85146 0.3435 0.69297 0.0
H1399 H 0.92261 0.40867 0.79247 0.0
H1400 H 0.89765 0.37798 0.68908 0.0
H1401 H 0.87959 0.36112 0.79653 0.0
C1402 C 0.85889 0.34293 0.77439 0.0
C1403 C 0.85099 0.33699 0.74518 0.0
C1404 C 0.90327 0.3841 0.71181 0.0
C1405 C 0.87989 0.36623 0.74379 0.0
C1406 C 0.91763 0.39925 0.71092 0.0
C1407 C 0.92458 0.40902 0.73996 0.0
C1408 C 0.89593 0.37889 0.74199 0.0
C1409 C 0.91763 0.40098 0.76965 0.0
C1410 C 0.87331 0.35782 0.77385 0.0
C1411 C 0.85719 0.34819 0.71601 0.0
N1412 N 0.90354 0.38667 0.76993 0.0
N1413 N 0.87146 0.36192 0.71595 0.0
H1414 H 0.35062 0.8476 0.68972 0.0
H1415 H 0.42198 0.90427 0.80101 0.0
H1416 H 0.35149 0.83833 0.79415 0.0
H1417 H 0.42291 0.90439 0.69607 0.0
H1418 H 0.39622 0.87952 0.79945 0.0
H1419 H 0.37607 0.87345 0.69202 0.0
C1420 C 0.35587 0.8523 0.71324 0.0
C1421 C 0.34904 0.84112 0.74183 0.0
C1422 C 0.40219 0.88439 0.77674 0.0
C1423 C 0.37836 0.8689 0.74462 0.0
C1424 C 0.41704 0.89778 0.77771 0.0
C1425 C 0.42457 0.9059 0.74867 0.0
C1426 C 0.39481 0.87968 0.74651 0.0
C1427 C 0.41756 0.89788 0.71898 0.0
C1428 C 0.37055 0.86633 0.71453 0.0
C1429 C 0.35641 0.84698 0.77169 0.0
N1430 N 0.4029 0.88572 0.71863 0.0
N1431 N 0.37083 0.86008 0.77229 0.0
H1432 H 0.10072 0.14894 0.44213 0.0
H1433 H 0.17278 0.09734 0.55449 0.0
H1434 H 0.10241 0.16281 0.54595 0.0
H1435 H 0.17272 0.09032 0.4498 0.0
H1436 H 0.14708 0.12236 0.552 0.0
H1437 H 0.12608 0.12269 0.44499 0.0
C1438 C 0.10614 0.14522 0.4657 0.0
C1439 C 0.09961 0.15781 0.4939 0.0
C1440 C 0.15282 0.11587 0.5295 0.0
C1441 C 0.12878 0.12959 0.49722 0.0
C1442 C 0.16762 0.10234 0.53096 0.0
C1443 C 0.17485 0.09233 0.50233 0.0
C1444 C 0.14517 0.11869 0.49926 0.0
C1445 C 0.16758 0.09841 0.47234 0.0
C1446 C 0.12076 0.13094 0.46726 0.0
C1447 C 0.10715 0.15311 0.5238 0.0
N1448 N 0.15296 0.1107 0.47159 0.0
N1449 N 0.1215 0.13978 0.52463 0.0
H1450 H 0.59918 0.64683 0.44777 0.0
H1451 H 0.67673 0.60667 0.55032 0.0
H1452 H 0.6068 0.67496 0.54699 0.0
H1453 H 0.66996 0.58219 0.44977 0.0
H1454 H 0.65124 0.63283 0.54948 0.0
H1455 H 0.62414 0.61912 0.44942 0.0
C1456 C 0.60584 0.64617 0.47028 0.0
C1457 C 0.60106 0.66314 0.49727 0.0
C1458 C 0.65544 0.62212 0.52743 0.0
C1459 C 0.62981 0.63297 0.49893 0.0
C1460 C 0.67011 0.60786 0.5278 0.0
C1461 C 0.67548 0.59303 0.49992 0.0
C1462 C 0.64601 0.62066 0.49925 0.0
C1463 C 0.66632 0.59422 0.47147 0.0
C1464 C 0.62023 0.63094 0.47104 0.0
C1465 C 0.61018 0.66206 0.52572 0.0
N1466 N 0.6519 0.60737 0.47199 0.0
N1467 N 0.62427 0.64766 0.52566 0.0
H1468 H 0.16638 0.67428 0.19452 0.0
H1469 H 0.10249 0.57978 0.29386 0.0
H1470 H 0.17302 0.64511 0.29366 0.0
H1471 H 0.09634 0.60643 0.1938 0.0
H1472 H 0.1282 0.60429 0.29455 0.0
H1473 H 0.14142 0.64701 0.19261 0.0
C1474 C 0.16283 0.66107 0.21544 0.0
C1475 C 0.17171 0.66178 0.24425 0.0
C1476 C 0.12109 0.60555 0.27267 0.0
C1477 C 0.14293 0.63166 0.2428 0.0
C1478 C 0.10626 0.59221 0.27252 0.0
C1479 C 0.09718 0.59188 0.24395 0.0
C1480 C 0.12683 0.6189 0.24407 0.0
C1481 C 0.10288 0.60686 0.21643 0.0
C1482 C 0.14846 0.64599 0.21458 0.0
C1483 C 0.16655 0.64482 0.27092 0.0
N1484 N 0.11741 0.61974 0.21713 0.0
N1485 N 0.15233 0.63079 0.26974 0.0
H1486 H 0.60258 0.08035 0.194 0.0
H1487 H 0.6746 0.15299 0.29007 0.0
H1488 H 0.60203 0.09948 0.29688 0.0
H1489 H 0.67158 0.15375 0.18527 0.0
H1490 H 0.64911 0.12785 0.29268 0.0
H1491 H 0.62791 0.10633 0.18931 0.0
C1492 C 0.60753 0.09121 0.21529 0.0
C1493 C 0.60028 0.08812 0.24578 0.0
C1494 C 0.65417 0.13283 0.26904 0.0
C1495 C 0.62946 0.11614 0.24109 0.0
C1496 C 0.66891 0.14641 0.26753 0.0
C1497 C 0.67521 0.15503 0.23735 0.0
C1498 C 0.64578 0.1276 0.24013 0.0
C1499 C 0.66713 0.14703 0.2089 0.0
C1500 C 0.62208 0.10546 0.21278 0.0
C1501 C 0.60723 0.10182 0.2729 0.0
N1502 N 0.6527 0.13397 0.21097 0.0
N1503 N 0.62162 0.11481 0.27005 0.0
H1504 H 0.1741 0.47278 0.94243 0.0
H1505 H 0.10429 0.4207 0.06088 0.0
H1506 H 0.17456 0.48397 0.0466 0.0
H1507 H 0.10898 0.38532 0.96372 0.0
H1508 H 0.12827 0.45022 0.05267 0.0
H1509 H 0.14989 0.44274 0.94736 0.0
C1510 C 0.16956 0.46764 0.96646 0.0
C1511 C 0.17658 0.48032 0.99421 0.0
C1512 C 0.12393 0.43648 0.03284 0.0
C1513 C 0.14831 0.4478 -0.00012 0.0
C1514 C 0.11001 0.42019 0.03726 0.0
C1515 C 0.10451 0.40075 0.0128 0.0
C1516 C 0.13249 0.43346 0.00367 0.0
C1517 C 0.11265 0.40037 0.98298 0.0
C1518 C 0.15551 0.45114 0.96921 0.0
C1519 C 0.16975 0.47402 0.02467 0.0
N1520 N 0.12633 0.41618 0.97935 0.0
N1521 N 0.1559 0.45873 0.02663 0.0
H1522 H 0.16428 0.83473 0.0621 0.0
H1523 H 0.10075 0.7694 0.93773 0.0
H1524 H 0.16323 0.86535 0.96257 0.0
H1525 H 0.09437 0.77253 0.04171 0.0
H1526 H 0.12438 0.80111 0.94339 0.0
H1527 H 0.14073 0.80466 0.05187 0.0
C1528 C 0.15938 0.8343 0.03772 0.0
C1529 C 0.16578 0.85261 0.01314 0.0
C1530 C 0.11754 0.79556 0.96485 0.0
C1531 C 0.13838 0.81874 0.00142 0.0
C1532 C 0.10384 0.77806 0.96155 0.0
C1533 C 0.09529 0.769 0.98922 0.0
C1534 C 0.1229 0.80345 -0.00389 0.0
C1535 C 0.10034 0.77965 0.01969 0.0
C1536 C 0.14574 0.81756 0.03205 0.0
C1537 C 0.1588 0.85138 0.98211 0.0
N1538 N 0.11389 0.7958 0.02236 0.0
N1539 N 0.14538 0.83496 0.97716 0.0
H1540 H 0.10516 0.86045 0.28011 0.0
H1541 H 0.17997 0.77578 0.2049 0.0
H1542 H 0.10959 0.83481 0.17928 0.0
H1543 H 0.16851 0.76684 0.30659 0.0
H1544 H 0.15622 0.80619 0.19715 0.0
H1545 H 0.12889 0.83052 0.29261 0.0
C1546 C 0.11077 0.84771 0.26083 0.0
C1547 C 0.10537 0.85027 0.22858 0.0
C1548 C 0.15907 0.79825 0.22139 0.0
C1549 C 0.133 0.81752 0.24234 0.0
C1550 C 0.17289 0.78161 0.22597 0.0
C1551 C 0.17649 0.76938 0.2566 0.0
C1552 C 0.14868 0.8029 0.24765 0.0
C1553 C 0.16644 0.77656 0.28279 0.0
C1554 C 0.12449 0.83111 0.26786 0.0
C1555 C 0.11334 0.8336 0.20448 0.0
N1556 N 0.15292 0.79261 0.2777 0.0
N1557 N 0.12686 0.81856 0.21169 0.0
H1558 H 0.17669 0.42778 0.21723 0.0
H1559 H 0.08497 0.45114 0.24675 0.0
H1560 H 0.14896 0.35758 0.26092 0.0
H1561 H 0.11862 0.52308 0.25837 0.0
H1562 H 0.10728 0.41515 0.24668 0.0
H1563 H 0.15465 0.46292 0.22591 0.0
C1564 C 0.16621 0.42011 0.22983 0.0
C1565 C 0.16482 0.39001 0.23934 0.0
C1566 C 0.10963 0.43893 0.24916 0.0
C1567 C 0.13926 0.42948 0.24774 0.0
C1568 C 0.09691 0.45939 0.24933 0.0
C1569 C 0.09981 0.49037 0.25139 0.0
C1570 C 0.12528 0.44964 0.25063 0.0
C1571 C 0.11566 0.49962 0.2552 0.0
C1572 C 0.15354 0.43997 0.23433 0.0
C1573 C 0.15061 0.38083 0.25404 0.0
N1574 N 0.12769 0.47958 0.25402 0.0
N1575 N 0.13832 0.40032 0.25744 0.0
H1576 H 0.85359 0.50921 0.94318 0.0
H1577 H 0.91166 0.62679 0.02694 0.0
H1578 H 0.84923 0.53122 0.04499 0.0
H1579 H 0.92202 0.57885 0.93835 0.0
H1580 H 0.88814 0.59527 0.03464 0.0
H1581 H 0.87691 0.5411 0.93963 0.0
C1582 C 0.85725 0.52175 0.96451 0.0
C1583 C 0.84942 0.51791 0.99432 0.0
C1584 C 0.8958 0.59114 0.014 0.0
C1585 C 0.87649 0.55358 0.99086 0.0
C1586 C 0.90938 0.60868 0.00996 0.0
C1587 C 0.91896 0.60493 0.98234 0.0
C1588 C 0.8917 0.57014 0.98991 0.0
C1589 C 0.91511 0.58202 0.96029 0.0
C1590 C 0.87074 0.53944 0.96268 0.0
C1591 C 0.85483 0.53405 0.02146 0.0
N1592 N 0.90169 0.56581 0.9643 0.0
N1593 N 0.86815 0.55107 0.01918 0.0
H1594 H 0.93083 0.2215 0.95498 0.0
H1595 H 0.85542 0.13849 0.02989 0.0
H1596 H 0.91716 0.23657 0.05464 0.0
H1597 H 0.86139 0.15947 0.9281 0.0
H1598 H 0.87872 0.16971 0.04231 0.0
H1599 H 0.90755 0.18966 0.94764 0.0
C1600 C 0.92334 0.21685 0.97578 0.0
C1601 C 0.92622 0.23093 0.00572 0.0
C1602 C 0.87477 0.16766 0.01732 0.0
C1603 C 0.89896 0.1959 -0.0029 0.0
C1604 C 0.86132 0.15028 0.0103 0.0
C1605 C 0.85649 0.14605 0.97786 0.0
C1606 C 0.88359 0.18028 0.99166 0.0
C1607 C 0.86475 0.16175 0.95344 0.0
C1608 C 0.90981 0.19934 0.97139 0.0
C1609 C 0.91565 0.22528 0.03148 0.0
N1610 N 0.878 0.17751 0.96072 0.0
N1611 N 0.90243 0.20841 0.02656 0.0
H1612 H 0.85134 0.22668 0.6891 0.0
H1613 H 0.91703 0.16678 0.81147 0.0
H1614 H 0.84663 0.22713 0.79351 0.0
H1615 H 0.91372 0.12949 0.71485 0.0
H1616 H 0.89333 0.19646 0.80108 0.0
H1617 H 0.87496 0.1947 0.69439 0.0
C1618 C 0.8548 0.21876 0.71301 0.0
C1619 C 0.84675 0.22891 0.74088 0.0
C1620 C 0.89789 0.18217 0.78189 0.0
C1621 C 0.87431 0.1942 0.74723 0.0
C1622 C 0.91161 0.16564 0.78759 0.0
C1623 C 0.91743 0.14561 0.76398 0.0
C1624 C 0.88986 0.17905 0.75216 0.0
C1625 C 0.90975 0.14483 0.73361 0.0
C1626 C 0.86848 0.2011 0.71605 0.0
C1627 C 0.85222 0.21918 0.77139 0.0
N1628 N 0.89627 0.16112 0.72861 0.0
N1629 N 0.86576 0.2029 0.77376 0.0
H1630 H 0.85781 0.61551 0.71376 0.0
H1631 H 0.92411 0.51274 0.7964 0.0
H1632 H 0.85422 0.57788 0.81009 0.0
H1633 H 0.92252 0.52631 0.69262 0.0
H1634 H 0.90009 0.54269 0.80222 0.0
H1635 H 0.8818 0.58552 0.70448 0.0
C1636 C 0.86166 0.5999 0.73237 0.0
C1637 C 0.85385 0.59883 0.76254 0.0
C1638 C 0.90513 0.53974 0.77818 0.0
C1639 C 0.88178 0.5659 0.7529 0.0
C1640 C 0.91909 0.52328 0.77497 0.0
C1641 C 0.92554 0.51761 0.74405 0.0
C1642 C 0.89748 0.55078 0.75026 0.0
C1643 C 0.91816 0.5308 0.71694 0.0
C1644 C 0.87554 0.58329 0.72735 0.0
C1645 C 0.85972 0.57902 0.78629 0.0
N1646 N 0.90446 0.54659 0.72061 0.0
N1647 N 0.87342 0.56378 0.78118 0.0
H1648 H 0.15547 0.02008 0.46453 0.0
H1649 H 0.12177 0.85719 0.49023 0.0
H1650 H 0.18463 0.9527 0.51003 0.0
H1651 H 0.09518 0.93334 0.52467 0.0
H1652 H 0.1442 0.89029 0.47887 0.0
H1653 H 0.13281 0.98635 0.46826 0.0
C1654 C 0.15722 0.99778 0.4745 0.0
C1655 C 0.17203 0.98924 0.48713 0.0
C1656 C 0.13334 0.8998 0.48826 0.0
C1657 C 0.14605 0.95039 0.4908 0.0
C1658 C 0.12046 0.88111 0.49424 0.0
C1659 C 0.10648 0.89261 0.50787 0.0
C1660 C 0.13218 0.93045 0.49514 0.0
C1661 C 0.10557 0.92366 0.51346 0.0
C1662 C 0.14422 0.97878 0.47688 0.0
C1663 C 0.17354 0.96012 0.49976 0.0
N1664 N 0.11827 0.94159 0.50697 0.0
N1665 N 0.16067 0.94165 0.50125 0.0
H1666 H 0.09895 0.2601 0.54509 0.0
H1667 H 0.15993 0.37456 0.46479 0.0
H1668 H 0.09787 0.27736 0.4419 0.0
H1669 H 0.16871 0.32594 0.55358 0.0
H1670 H 0.13626 0.3437 0.45558 0.0
H1671 H 0.12238 0.29161 0.5499 0.0
C1672 C 0.1032 0.27178 0.52365 0.0
C1673 C 0.09621 0.26645 0.49312 0.0
C1674 C 0.14361 0.33924 0.4766 0.0
C1675 C 0.12357 0.30194 0.49824 0.0
C1676 C 0.1573 0.35643 0.48152 0.0
C1677 C 0.16654 0.35233 0.50958 0.0
C1678 C 0.13897 0.31821 0.50026 0.0
C1679 C 0.16213 0.32943 0.53128 0.0
C1680 C 0.11685 0.28917 0.52627 0.0
C1681 C 0.10264 0.28134 0.46598 0.0
N1682 N 0.1486 0.31359 0.52642 0.0
N1683 N 0.11601 0.29827 0.46911 0.0
H1684 H 0.12364 0.39367 0.74964 0.0
H1685 H 0.15401 0.22615 0.77268 0.0
H1686 H 0.09429 0.31777 0.72634 0.0
H1687 H 0.18517 0.29572 0.73823 0.0
H1688 H 0.1319 0.26111 0.76994 0.0
H1689 H 0.14578 0.35956 0.76003 0.0
C1690 C 0.12172 0.36969 0.7477 0.0
C1691 C 0.10698 0.35857 0.73753 0.0
C1692 C 0.14359 0.26889 0.76341 0.0
C1693 C 0.13245 0.31938 0.74913 0.0
C1694 C 0.15629 0.24905 0.76512 0.0
C1695 C 0.17156 0.25782 0.75522 0.0
C1696 C 0.14606 0.29835 0.75292 0.0
C1697 C 0.17371 0.28792 0.74613 0.0
C1698 C 0.13444 0.35033 0.75319 0.0
C1699 C 0.10529 0.32731 0.7348 0.0
N1700 N 0.16108 0.30713 0.74515 0.0
N1701 N 0.11788 0.3088 0.74055 0.0
H1702 H 0.09071 0.96882 0.71075 0.0
H1703 H 0.16913 0.8911 0.7799 0.0
H1704 H 0.10833 0.9911 0.80602 0.0
H1705 H 0.15889 0.90337 0.67785 0.0
H1706 H 0.14633 0.92345 0.7932 0.0
H1707 H 0.11368 0.93626 0.70221 0.0
C1708 C 0.09903 0.96567 0.73049 0.0
C1709 C 0.09731 0.98189 0.75955 0.0
C1710 C 0.14919 0.9191 0.76792 0.0
C1711 C 0.12421 0.94598 0.74934 0.0
C1712 C 0.16236 0.90103 0.76031 0.0
C1713 C 0.16584 0.89391 0.7277 0.0
C1714 C 0.1393 0.92958 0.74277 0.0
C1715 C 0.15652 0.90757 0.70338 0.0
C1716 C 0.11237 0.94771 0.72534 0.0
C1717 C 0.10893 0.97812 0.78374 0.0
N1718 N 0.14359 0.92406 0.71138 0.0
N1719 N 0.12192 0.96075 0.77806 0.0
H1720 H 0.84582 0.01698 0.44778 0.0
H1721 H 0.91345 0.11768 0.52892 0.0
H1722 H 0.85002 0.02416 0.55198 0.0
H1723 H 0.91529 0.08227 0.43133 0.0
H1724 H 0.88962 0.08737 0.53917 0.0
H1725 H 0.86933 0.04814 0.44156 0.0
C1726 C 0.85126 0.02642 0.46936 0.0
C1727 C 0.84567 0.01856 0.50043 0.0
C1728 C 0.89543 0.08585 0.51572 0.0
C1729 C 0.87322 0.05325 0.49361 0.0
C1730 C 0.9092 0.10271 0.51008 0.0
C1731 C 0.91649 0.10234 0.47932 0.0
C1732 C 0.88876 0.06896 0.49022 0.0
C1733 C 0.91015 0.08311 0.45549 0.0
C1734 C 0.86495 0.04359 0.46585 0.0
C1735 C 0.85365 0.03037 0.5276 0.0
N1736 N 0.89659 0.06767 0.46125 0.0
N1737 N 0.86708 0.04695 0.52361 0.0
H1738 H 0.84432 0.67542 0.48317 0.0
H1739 H 0.93629 0.70246 0.48742 0.0
H1740 H 0.87636 0.60126 0.49654 0.0
H1741 H 0.90438 0.76516 0.53297 0.0
H1742 H 0.91468 0.66531 0.4856 0.0
H1743 H 0.86606 0.71026 0.49627 0.0
C1744 C 0.85575 0.66646 0.48981 0.0
C1745 C 0.85848 0.63539 0.48907 0.0
C1746 C 0.91254 0.6871 0.49644 0.0
C1747 C 0.88349 0.67493 0.50269 0.0
C1748 C 0.92492 0.70812 0.49779 0.0
C1749 C 0.92217 0.73693 0.51035 0.0
C1750 C 0.8973 0.69527 0.50706 0.0
C1751 C 0.90702 0.74322 0.52292 0.0
C1752 C 0.8682 0.68629 0.49692 0.0
C1753 C 0.87373 0.62506 0.49694 0.0
N1754 N 0.89513 0.72292 0.52035 0.0
N1755 N 0.88567 0.64468 0.50286 0.0
H1756 H 0.91437 0.63 0.21401 0.0
H1757 H 0.85121 0.7387 0.29732 0.0
H1758 H 0.92166 0.67528 0.30542 0.0
H1759 H 0.8498 0.72041 0.19436 0.0
H1760 H 0.87534 0.70895 0.30174 0.0
H1761 H 0.89024 0.65969 0.20561 0.0
C1762 C 0.91133 0.64731 0.23149 0.0
C1763 C 0.92026 0.65067 0.26009 0.0
C1764 C 0.86963 0.71085 0.27823 0.0
C1765 C 0.89216 0.68334 0.25167 0.0
C1766 C 0.85563 0.72724 0.27587 0.0
C1767 C 0.84833 0.73162 0.24552 0.0
C1768 C 0.87644 0.69845 0.25006 0.0
C1769 C 0.85487 0.71708 0.2183 0.0
C1770 C 0.89737 0.66375 0.22705 0.0
C1771 C 0.91534 0.67245 0.2827 0.0
N1772 N 0.86863 0.70129 0.22114 0.0
N1773 N 0.90154 0.68756 0.27826 0.0
H1774 H 0.8528 0.07704 0.30728 0.0
H1775 H 0.92731 0.03173 0.19744 0.0
H1776 H 0.86339 0.12269 0.2175 0.0
H1777 H 0.92197 0.00745 0.29837 0.0
H1778 H 0.90382 0.06397 0.20204 0.0
H1779 H 0.87656 0.04634 0.3003 0.0
C1780 C 0.85978 0.07968 0.28535 0.0
C1781 C 0.85588 0.102 0.26254 0.0
C1782 C 0.908 0.0521 0.22337 0.0
C1783 C 0.8837 0.06807 0.25522 0.0
C1784 C 0.92164 0.03426 0.22094 0.0
C1785 C 0.92678 0.01718 0.24766 0.0
C1786 C 0.89929 0.05242 0.25258 0.0
C1787 C 0.91858 0.02058 0.27729 0.0
C1788 C 0.87357 0.06267 0.28175 0.0
C1789 C 0.86571 0.1052 0.23517 0.0
N1790 N 0.90513 0.03724 0.27877 0.0
N1791 N 0.87922 0.08866 0.2324 0.0
H1792 H 0.62666 0.35358 0.49139 0.0
H1793 H 0.65521 0.52304 0.47542 0.0
H1794 H 0.59687 0.42896 0.51475 0.0
H1795 H 0.68784 0.45223 0.50038 0.0
H1796 H 0.63362 0.48742 0.47719 0.0
H1797 H 0.6487 0.38812 0.48147 0.0
C1798 C 0.62467 0.37754 0.49346 0.0
C1799 C 0.60986 0.38853 0.50328 0.0
C1800 C 0.64549 0.47952 0.48198 0.0
C1801 C 0.63509 0.42802 0.49267 0.0
C1802 C 0.65791 0.49982 0.48103 0.0
C1803 C 0.67345 0.49088 0.48875 0.0
C1804 C 0.64848 0.44945 0.48941 0.0
C1805 C 0.67612 0.46025 0.49463 0.0
C1806 C 0.63729 0.39712 0.48827 0.0
C1807 C 0.60797 0.41965 0.50642 0.0
N1808 N 0.66371 0.44058 0.49496 0.0
N1809 N 0.62046 0.43832 0.50118 0.0
H1810 H 0.59941 0.77588 0.43689 0.0
H1811 H 0.667 0.83247 0.55692 0.0
H1812 H 0.59663 0.77114 0.54149 0.0
H1813 H 0.66166 0.87302 0.46234 0.0
H1814 H 0.64331 0.80256 0.54707 0.0
H1815 H 0.62286 0.80824 0.44196 0.0
C1816 C 0.60325 0.78286 0.46089 0.0
C1817 C 0.59581 0.7713 0.48882 0.0
C1818 C 0.64743 0.8176 0.52816 0.0
C1819 C 0.62325 0.80641 0.49478 0.0
C1820 C 0.66117 0.8342 0.5335 0.0
C1821 C 0.66646 0.85503 0.51025 0.0
C1822 C 0.63882 0.82164 0.49924 0.0
C1823 C 0.65816 0.85685 0.48065 0.0
C1824 C 0.61685 0.80074 0.46377 0.0
C1825 C 0.60175 0.78009 0.51934 0.0
N1826 N 0.64468 0.84056 0.47604 0.0
N1827 N 0.61524 0.79649 0.52148 0.0
H1828 H 0.67233 0.77372 0.80302 0.0
H1829 H 0.60654 0.83202 0.6784 0.0
H1830 H 0.67689 0.76984 0.69867 0.0
H1831 H 0.60771 0.86286 0.77781 0.0
H1832 H 0.6305 0.80278 0.68824 0.0
H1833 H 0.64819 0.80386 0.79664 0.0
C1834 C 0.66873 0.78057 0.77881 0.0
C1835 C 0.67694 0.76994 0.75136 0.0
C1836 C 0.6254 0.81547 0.70815 0.0
C1837 C 0.64869 0.80263 0.74379 0.0
C1838 C 0.6115 0.83165 0.70274 0.0
C1839 C 0.60498 0.84978 0.7274 0.0
C1840 C 0.63293 0.81712 0.73859 0.0
C1841 C 0.61216 0.84891 0.75826 0.0
C1842 C 0.65471 0.79713 0.77515 0.0
C1843 C 0.67121 0.77825 0.7205 0.0
N1844 N 0.62582 0.83312 0.76292 0.0
N1845 N 0.65737 0.79359 0.71756 0.0
H1846 H 0.60208 0.48357 0.80827 0.0
H1847 H 0.66375 0.41433 0.68413 0.0
H1848 H 0.59287 0.47114 0.70604 0.0
H1849 H 0.66325 0.38235 0.78323 0.0
H1850 H 0.64014 0.44401 0.69534 0.0
H1851 H 0.6256 0.45133 0.80321 0.0
C1852 C 0.60452 0.47274 0.78517 0.0
C1853 C 0.59525 0.47939 0.75769 0.0
C1854 C 0.6453 0.43087 0.71483 0.0
C1855 C 0.62266 0.44437 0.75128 0.0
C1856 C 0.65895 0.41433 0.70862 0.0
C1857 C 0.66546 0.39565 0.73273 0.0
C1858 C 0.63813 0.42929 0.7456 0.0
C1859 C 0.65867 0.39652 0.76399 0.0
C1860 C 0.61813 0.45492 0.78216 0.0
C1861 C 0.59944 0.46597 0.72797 0.0
N1862 N 0.64527 0.41288 0.76952 0.0
N1863 N 0.61295 0.44965 0.72543 0.0
H1864 H 0.41347 0.61963 0.52677 0.0
H1865 H 0.35127 0.50868 0.44469 0.0
H1866 H 0.4212 0.57361 0.43591 0.0
H1867 H 0.34957 0.52816 0.54739 0.0
H1868 H 0.37522 0.5388 0.43998 0.0
H1869 H 0.38961 0.58937 0.53556 0.0
C1870 C 0.41059 0.60207 0.5095 0.0
C1871 C 0.41954 0.59867 0.48091 0.0
C1872 C 0.36947 0.53707 0.46348 0.0
C1873 C 0.39176 0.56533 0.48977 0.0
C1874 C 0.35558 0.52048 0.466 0.0
C1875 C 0.34826 0.51634 0.49637 0.0
C1876 C 0.37616 0.54992 0.49151 0.0
C1877 C 0.35465 0.53131 0.52343 0.0
C1878 C 0.39678 0.58529 0.51416 0.0
C1879 C 0.41484 0.57651 0.45859 0.0
N1880 N 0.36831 0.5473 0.52044 0.0
N1881 N 0.40118 0.56107 0.46322 0.0
H1882 H 0.36285 0.1205 0.52488 0.0
H1883 H 0.41755 0.244 0.44028 0.0
H1884 H 0.35071 0.16764 0.43682 0.0
H1885 H 0.42539 0.21448 0.53887 0.0
H1886 H 0.39443 0.21148 0.43703 0.0
H1887 H 0.38605 0.15299 0.53109 0.0
C1888 C 0.36468 0.13865 0.50772 0.0
C1889 C 0.35468 0.14188 0.48071 0.0
C1890 C 0.40132 0.21163 0.45924 0.0
C1891 C 0.3816 0.17791 0.48654 0.0
C1892 C 0.41471 0.22969 0.46082 0.0
C1893 C 0.42347 0.23158 0.48973 0.0
C1894 C 0.39662 0.19519 0.48678 0.0
C1895 C 0.41909 0.21321 0.51597 0.0
C1896 C 0.37809 0.15676 0.51088 0.0
C1897 C 0.35795 0.16486 0.45835 0.0
N1898 N 0.40586 0.19592 0.514 0.0
N1899 N 0.37121 0.18173 0.46154 0.0
H1900 H 0.414 0.16167 0.3155 0.0
H1901 H 0.35073 0.22613 0.18953 0.0
H1902 H 0.41455 0.13489 0.21464 0.0
H1903 H 0.34423 0.22498 0.29351 0.0
H1904 H 0.37454 0.19513 0.19597 0.0
H1905 H 0.39016 0.19105 0.30545 0.0
C1906 C 0.4094 0.16286 0.2909 0.0
C1907 C 0.41634 0.14581 0.26584 0.0
C1908 C 0.36764 0.20088 0.21729 0.0
C1909 C 0.3886 0.1788 0.2543 0.0
C1910 C 0.35382 0.21794 0.21355 0.0
C1911 C 0.3452 0.22742 0.24095 0.0
C1912 C 0.37301 0.19368 0.24873 0.0
C1913 C 0.35025 0.21748 0.27169 0.0
C1914 C 0.39558 0.17917 0.28531 0.0
C1915 C 0.4097 0.1479 0.23456 0.0
N1916 N 0.36391 0.20163 0.27478 0.0
N1917 N 0.39611 0.16385 0.2297 0.0
H1918 H 0.36095 0.59272 0.31096 0.0
H1919 H 0.41677 0.512 0.18281 0.0
H1920 H 0.3561 0.6137 0.20894 0.0
H1921 H 0.4305 0.53244 0.28125 0.0
H1922 H 0.39346 0.54454 0.18934 0.0
H1923 H 0.38423 0.56263 0.29861 0.0
C1924 C 0.36453 0.59028 0.28574 0.0
C1925 C 0.35657 0.60606 0.26099 0.0
C1926 C 0.40185 0.54267 0.20912 0.0
C1927 C 0.38354 0.57162 0.24664 0.0
C1928 C 0.41533 0.52463 0.20518 0.0
C1929 C 0.42588 0.52026 0.23121 0.0
C1930 C 0.39873 0.55581 0.23956 0.0
C1931 C 0.42295 0.53585 0.26029 0.0
C1932 C 0.37799 0.57345 0.27879 0.0
C1933 C 0.36181 0.60192 0.22876 0.0
N1934 N 0.40957 0.55247 0.26385 0.0
N1935 N 0.37504 0.58521 0.22249 0.0
H1936 H 0.67833 0.97651 0.03964 0.0
H1937 H 0.60725 0.88431 0.9603 0.0
H1938 H 0.66996 0.98117 0.93636 0.0
H1939 H 0.60782 0.91693 0.05912 0.0
H1940 H 0.63103 0.91452 0.94883 0.0
H1941 H 0.65473 0.94548 0.0457 0.0
C1942 C 0.67196 0.96966 0.01799 0.0
C1943 C 0.67642 0.98078 0.98734 0.0
C1944 C 0.62576 0.91539 0.97285 0.0
C1945 C 0.64877 0.94639 0.99423 0.0
C1946 C 0.61202 0.89859 0.97923 0.0
C1947 C 0.60547 0.89809 0.01071 0.0
C1948 C 0.63314 0.9312 -0.00168 0.0
C1949 C 0.61242 0.91661 0.0345 0.0
C1950 C 0.65823 0.95261 0.02153 0.0
C1951 C 0.66724 0.97231 0.96027 0.0
N1952 N 0.62597 0.93182 0.02802 0.0
N1953 N 0.65379 0.95581 0.96433 0.0
H1954 H 0.5858 0.28362 0.02677 0.0
H1955 H 0.67536 0.32546 0.98894 0.0
H1956 H 0.609 0.25086 0.94045 0.0
H1957 H 0.64354 0.3833 0.04248 0.0
H1958 H 0.65244 0.29425 0.97364 0.0
H1959 H 0.60802 0.31775 0.03613 0.0
C1960 C 0.59522 0.28471 0.00894 0.0
C1961 C 0.59529 0.26523 0.98218 0.0
C1962 C 0.65068 0.31373 0.98901 0.0
C1963 C 0.62127 0.30272 0.99374 0.0
C1964 C 0.66375 0.33155 -0.00225 0.0
C1965 C 0.66172 0.3567 0.01809 0.0
C1966 C 0.63554 0.32104 0.0009 0.0
C1967 C 0.64618 0.36347 0.02828 0.0
C1968 C 0.60807 0.30369 0.0146 0.0
C1969 C 0.60829 0.2663 0.96078 0.0
N1970 N 0.63389 0.34569 0.01997 0.0
N1971 N 0.62086 0.28437 0.96724 0.0
H1972 H 0.65351 0.22579 0.26906 0.0
H1973 H 0.62415 0.39461 0.24997 0.0
H1974 H 0.68547 0.29638 0.2406 0.0
H1975 H 0.59463 0.31925 0.2256 0.0
H1976 H 0.64611 0.36011 0.26061 0.0
H1977 H 0.63161 0.26113 0.26677 0.0
C1978 C 0.65599 0.24894 0.26275 0.0
C1979 C 0.67143 0.25793 0.25435 0.0
C1980 C 0.63477 0.35109 0.25348 0.0
C1981 C 0.64616 0.2989 0.25272 0.0
C1982 C 0.62216 0.37066 0.24786 0.0
C1983 C 0.60744 0.35976 0.23735 0.0
C1984 C 0.63267 0.32019 0.24907 0.0
C1985 C 0.60562 0.32858 0.23434 0.0
C1986 C 0.64341 0.26903 0.26139 0.0
C1987 C 0.67384 0.28838 0.24715 0.0
N1988 N 0.61811 0.30988 0.24012 0.0
N1989 N 0.66131 0.30781 0.2464 0.0
H1990 H 0.6667 0.88478 0.279 0.0
H1991 H 0.59223 0.97323 0.20767 0.0
H1992 H 0.66184 0.91278 0.17896 0.0
H1993 H 0.60533 0.98403 0.30827 0.0
H1994 H 0.61542 0.94136 0.1993 0.0
H1995 H 0.64338 0.91554 0.29299 0.0
C1996 C 0.66103 0.89795 0.26016 0.0
C1997 C 0.6662 0.89584 0.22766 0.0
C1998 C 0.61305 0.95004 0.22347 0.0
C1999 C 0.63908 0.92968 0.24317 0.0
C2000 C 0.59956 0.96759 0.22842 0.0
C2001 C 0.59655 0.9806 0.25893 0.0
C2002 C 0.62371 0.94531 0.24921 0.0
C2003 C 0.60693 0.97366 0.28463 0.0
C2004 C 0.64757 0.9151 0.26806 0.0
C2005 C 0.65821 0.9133 0.20426 0.0
N2006 N 0.62011 0.95667 0.27919 0.0
N2007 N 0.64496 0.92885 0.21231 0.0
H2008 H 0.41892 0.10639 0.02642 0.0
H2009 H 0.34142 0.02811 0.95476 0.0
H2010 H 0.4106 0.09044 0.92427 0.0
H2011 H 0.35683 0.01021 0.05273 0.0
H2012 H 0.3648 0.05945 0.94638 0.0
H2013 H 0.39572 0.07519 0.03933 0.0
C2014 C 0.41253 0.09566 0.00678 0.0
C2015 C 0.41667 0.10138 0.9742 0.0
C2016 C 0.36291 0.04925 0.97001 0.0
C2017 C 0.38965 0.06713 0.98869 0.0
C2018 C 0.34933 0.03204 0.97504 0.0
C2019 C 0.3469 0.01727 0.00478 0.0
C2020 C 0.37427 0.05172 0.99487 0.0
C2021 C 0.35798 0.02202 0.02979 0.0
C2022 C 0.39912 0.07831 0.01412 0.0
C2023 C 0.40778 0.08701 0.94975 0.0
N2024 N 0.37125 0.03861 0.02424 0.0
N2025 N 0.39458 0.07121 0.95742 0.0
H2026 H 0.36072 0.62922 0.03046 0.0
H2027 H 0.42677 0.73283 0.94862 0.0
H2028 H 0.3567 0.66957 0.93544 0.0
H2029 H 0.42421 0.7229 0.0528 0.0
H2030 H 0.40318 0.70179 0.94306 0.0
H2031 H 0.38478 0.65899 0.04016 0.0
C2032 C 0.36456 0.64512 0.01214 0.0
C2033 C 0.35661 0.64702 0.98217 0.0
C2034 C 0.40795 0.70573 0.96716 0.0
C2035 C 0.38454 0.67984 0.99236 0.0
C2036 C 0.42168 0.72282 0.97026 0.0
C2037 C 0.42773 0.72991 0.00118 0.0
C2038 C 0.40012 0.69534 0.99517 0.0
C2039 C 0.4202 0.71733 0.0285 0.0
C2040 C 0.37844 0.66169 0.01744 0.0
C2041 C 0.3624 0.66747 0.95895 0.0
N2042 N 0.40673 0.70084 0.02491 0.0
N2043 N 0.37607 0.68262 0.9643 0.0
H2044 H 0.42095 0.67384 0.79678 0.0
H2045 H 0.345 0.71822 0.69232 0.0
H2046 H 0.40649 0.61879 0.71595 0.0
H2047 H 0.35166 0.74114 0.79334 0.0
H2048 H 0.36808 0.68448 0.69567 0.0
H2049 H 0.39755 0.70526 0.78888 0.0
C2050 C 0.41315 0.66914 0.7765 0.0
C2051 C 0.41585 0.6441 0.75653 0.0
C2052 C 0.36426 0.69649 0.71722 0.0
C2053 C 0.38854 0.67905 0.74827 0.0
C2054 C 0.3509 0.71524 0.71549 0.0
C2055 C 0.34627 0.73229 0.74268 0.0
C2056 C 0.3732 0.69547 0.74609 0.0
C2057 C 0.35469 0.72818 0.77189 0.0
C2058 C 0.3996 0.68665 0.77243 0.0
C2059 C 0.40504 0.63837 0.7313 0.0
N2060 N 0.36787 0.71079 0.77262 0.0
N2061 N 0.39179 0.65558 0.72798 0.0
H2062 H 0.34421 0.06991 0.76672 0.0
H2063 H 0.43643 0.04615 0.75436 0.0
H2064 H 0.37475 0.14456 0.74508 0.0
H2065 H 0.40426 0.98086 0.71443 0.0
H2066 H 0.41435 0.08243 0.75727 0.0
H2067 H 0.3662 0.03537 0.75405 0.0
C2068 C 0.35535 0.07897 0.75833 0.0
C2069 C 0.35757 0.11014 0.75648 0.0
C2070 C 0.41225 0.06019 0.74755 0.0
C2071 C 0.38291 0.07104 0.74348 0.0
C2072 C 0.42488 0.03966 0.74559 0.0
C2073 C 0.42222 0.01037 0.73432 0.0
C2074 C 0.39688 0.05108 0.73883 0.0
C2075 C 0.40685 0.0031 0.72365 0.0
C2076 C 0.36794 0.05934 0.7515 0.0
C2077 C 0.37249 0.12067 0.74655 0.0
N2078 N 0.39477 0.02296 0.7268 0.0
N2079 N 0.38461 0.10129 0.74095 0.0
H2080 H 0.99258 0.15387 0.81613 0.0
H2081 H 0.02995 0.21527 0.98213 0.0
H2082 H 0.02383 0.10142 0.87644 0.0
H2083 H 1.00425 0.27126 0.91478 0.0
H2084 H 0.02731 0.17307 0.94458 0.0
H2085 H 0.99551 0.19614 0.85348 0.0
C2086 C 1.00007 0.15125 0.83729 0.0
C2087 C 1.00807 0.12412 0.84303 0.0
C2088 C 0.02227 0.19455 0.93789 0.0
C2089 C 0.01156 0.17264 0.88595 0.0
C2090 C 0.02378 0.21869 0.95931 0.0
C2091 C 0.01726 0.24679 0.95155 0.0
C2092 C 0.01396 0.19832 0.90862 0.0
C2093 C 1.00953 0.25002 0.92158 0.0
C2094 C 1.00175 0.17545 0.85859 0.0
C2095 C 0.01738 0.12184 0.87117 0.0
N2096 N 1.00797 0.22598 0.9013 0.0
N2097 N 0.01894 0.14585 0.89149 0.0
H2098 H 0.24306 0.98061 0.91221 0.0
H2099 H 0.27698 0.14636 0.87807 0.0
H2100 H 0.27418 0.02778 0.9776 0.0
H2101 H 0.24543 0.10004 0.81293 0.0
H2102 H 0.27636 0.10275 0.91472 0.0
H2103 H 0.24428 0.02347 0.87455 0.0
C2104 C 0.25031 -0.0002 0.91838 0.0
C2105 C 0.25846 0.00081 0.94807 0.0
C2106 C 0.26942 0.10225 0.89258 0.0
C2107 C 0.25989 0.04983 0.90543 0.0
C2108 C 0.26969 0.12725 0.87188 0.0
C2109 C 0.26115 0.1268 0.84269 0.0
C2110 C 0.2604 0.07686 0.88414 0.0
C2111 C 0.25219 0.1012 0.83529 0.0
C2112 C 0.25094 0.02433 0.89705 0.0
C2113 C 0.26756 0.0263 0.9551 0.0
N2114 N 0.252 0.07731 0.85588 0.0
N2115 N 0.26802 0.04976 0.934 0.0
H2116 H 0.99638 0.1473 0.36457 0.0
H2117 H 0.02876 0.98017 0.33108 0.0
H2118 H 0.02537 0.09813 0.43247 0.0
H2119 H 0.99918 0.02953 0.26439 0.0
H2120 H 0.02743 0.02268 0.36925 0.0
H2121 H 0.99739 0.10418 0.32728 0.0
C2122 C 1.00317 0.12763 0.37132 0.0
C2123 C 1.01082 0.12624 0.40149 0.0
C2124 C 0.02116 0.0241 0.34632 0.0
C2125 C 0.01201 0.07686 0.3593 0.0
C2126 C 0.02185 -0.00022 0.3247 0.0
C2127 C 0.01417 0.0015 0.29452 0.0
C2128 C 0.01263 0.05009 0.3377 0.0
C2129 C 1.00546 0.02749 0.28726 0.0
C2130 C 1.00365 0.10293 0.35023 0.0
C2131 C 0.01922 0.10001 0.40942 0.0
N2132 N 1.00495 0.05072 0.30862 0.0
N2133 N 0.01961 0.0764 0.38848 0.0
H2134 H 0.28522 0.14234 0.41264 0.0
H2135 H 0.23658 0.22273 0.27 0.0
H2136 H 0.2438 0.10339 0.36881 0.0
H2137 H 0.27562 0.264 0.31991 0.0
H2138 H 0.23884 0.17897 0.30582 0.0
H2139 H 0.2825 0.18593 0.3771 0.0
C2140 C 0.27561 0.14286 0.39523 0.0
C2141 C 0.26472 0.11917 0.39364 0.0
C2142 C 0.24688 0.1976 0.30913 0.0
C2143 C 0.26132 0.16951 0.35325 0.0
C2144 C 0.24553 0.22261 0.28885 0.0
C2145 C 0.25587 0.24695 0.29229 0.0
C2146 C 0.25891 0.19661 0.33259 0.0
C2147 C 0.26729 0.24582 0.31689 0.0
C2148 C 0.27402 0.16787 0.37508 0.0
C2149 C 0.25256 0.12098 0.37056 0.0
N2150 N 0.26861 0.22089 0.33592 0.0
N2151 N 0.25111 0.14586 0.35142 0.0
H2152 H 0.01519 0.9044 0.10833 0.0
H2153 H 1.00973 0.72619 0.08244 0.0
H2154 H 0.01704 0.83959 0.18658 0.0
H2155 H 0.01269 0.78972 0.00315 0.0
H2156 H 0.01178 0.7678 0.12104 0.0
H2157 H 0.0137 0.86289 0.06922 0.0
C2158 C 0.0153 0.88153 0.11731 0.0
C2159 C 0.01623 0.87559 0.15084 0.0
C2160 C 0.012 0.77262 0.09518 0.0
C2161 C 0.01446 0.82802 0.10629 0.0
C2162 C 1.01083 0.74885 0.07313 0.0
C2163 C 1.01097 0.75445 0.0395 0.0
C2164 C 0.01334 0.80222 0.08354 0.0
C2165 C 0.01243 0.78432 0.02887 0.0
C2166 C 0.01445 0.85784 0.09498 0.0
C2167 C 0.01634 0.84542 0.16102 0.0
N2168 N 0.01353 0.80706 0.0508 0.0
N2169 N 0.01542 0.82286 0.13889 0.0
H2170 H 0.75783 0.96122 0.00365 0.0
H2171 H 0.7613 0.91072 0.19059 0.0
H2172 H 0.76743 0.02282 0.08244 0.0
H2173 H 0.75706 0.84861 0.11028 0.0
H2174 H 0.76269 0.95219 0.15186 0.0
H2175 H 0.7564 0.92025 0.04276 0.0
C2176 C 0.7597 0.96618 0.0292 0.0
C2177 C 0.76287 0.99559 0.03969 0.0
C2178 C 0.76146 0.92951 0.14268 0.0
C2179 C 0.76122 0.94843 0.08482 0.0
C2180 C 0.76063 0.90573 0.1648 0.0
C2181 C 0.75902 0.87599 0.15372 0.0
C2182 C 0.76057 0.92366 0.10913 0.0
C2183 C 0.75836 0.87107 0.11998 0.0
C2184 C 0.75887 0.94267 0.05156 0.0
C2185 C 0.76498 0.00054 0.0732 0.0
N2186 N 0.75907 0.89465 0.09892 0.0
N2187 N 0.76415 0.97719 0.09457 0.0
H2188 H 1.00154 0.848 0.62935 0.0
H2189 H 0.01808 0.02203 0.66173 0.0
H2190 H 0.03304 0.90043 0.56961 0.0
H2191 H 1.00295 0.96122 0.73745 0.0
H2192 H 0.02066 0.97907 0.62451 0.0
H2193 H 0.99964 0.89031 0.66748 0.0
C2194 C 1.00811 0.86832 0.62432 0.0
C2195 C 0.01713 0.87099 0.5958 0.0
C2196 C 0.01679 0.97524 0.64931 0.0
C2197 C 0.01479 0.91956 0.63889 0.0
C2198 C 0.01522 -0.00026 0.67045 0.0
C2199 C 1.01037 0.99521 0.70276 0.0
C2200 C 0.01324 0.94614 0.66047 0.0
C2201 C 1.00685 0.96578 0.71282 0.0
C2202 C 1.00696 0.89251 0.64596 0.0
C2203 C 0.02545 0.89784 0.59063 0.0
N2204 N 1.0083 0.94244 0.69175 0.0
N2205 N 0.02394 0.9212 0.61171 0.0
H2206 H 0.77075 0.788 0.73814 0.0
H2207 H 0.74714 0.83927 0.55771 0.0
H2208 H 0.75598 0.72621 0.66309 0.0
H2209 H 0.76553 0.89994 0.63043 0.0
H2210 H 0.7495 0.79802 0.59642 0.0
H2211 H 0.76849 0.82925 0.69936 0.0
C2212 C 0.76702 0.78307 0.71346 0.0
C2213 C 0.7635 0.75354 0.70389 0.0
C2214 C 0.75303 0.82032 0.60395 0.0
C2215 C 0.76079 0.80093 0.65929 0.0
C2216 C 0.75167 0.844 0.58185 0.0
C2217 C 0.75616 0.87327 0.59075 0.0
C2218 C 0.75898 0.82576 0.6353 0.0
C2219 C 0.76185 0.87786 0.62249 0.0
C2220 C 0.76575 0.8067 0.69131 0.0
C2221 C 0.75886 0.74858 0.67152 0.0
N2222 N 0.76313 0.85436 0.64355 0.0
N2223 N 0.75756 0.77206 0.65043 0.0
H2224 H 0.03007 0.76754 0.41507 0.0
H2225 H 0.99351 0.60424 0.37872 0.0
H2226 H 0.99612 0.72361 0.47706 0.0
H2227 H 0.02896 0.64603 0.31871 0.0
H2228 H 0.9939 0.6484 0.41466 0.0
H2229 H 0.02901 0.72433 0.3778 0.0
C2230 C 0.02222 0.74903 0.42049 0.0
C2231 C 0.01324 0.74894 0.44917 0.0
C2232 C 1.00174 0.64776 0.39383 0.0
C2233 C 0.01204 0.69953 0.40713 0.0
C2234 C 1.00161 0.62244 0.3736 0.0
C2235 C 0.01131 0.62153 0.34601 0.0
C2236 C 0.01172 0.67212 0.38646 0.0
C2237 C 0.02131 0.64599 0.33983 0.0
C2238 C 0.0217 0.72428 0.39944 0.0
C2239 C 1.00337 0.72432 0.45534 0.0
N2240 N 0.02128 0.67025 0.35988 0.0
N2241 N 1.00305 0.70062 0.43458 0.0
H2242 H 0.26562 0.58832 0.30467 0.0
H2243 H 0.25903 0.53788 0.49073 0.0
H2244 H 0.26186 0.65146 0.38428 0.0
H2245 H 0.25542 0.47643 0.40966 0.0
H2246 H 0.26226 0.5793 0.45258 0.0
H2247 H 0.26402 0.54719 0.34318 0.0
C2248 C 0.26448 0.59368 0.3303 0.0
C2249 C 0.26381 0.62365 0.34116 0.0
C2250 C 0.26072 0.5568 0.4431 0.0
C2251 C 0.26199 0.57606 0.38565 0.0
C2252 C 0.25886 0.53305 0.46486 0.0
C2253 C 0.25678 0.50359 0.45336 0.0
C2254 C 0.26053 0.55116 0.4095 0.0
C2255 C 0.25691 0.49876 0.4196 0.0
C2256 C 0.26355 0.56999 0.35232 0.0
C2257 C 0.26239 0.62882 0.37476 0.0
N2258 N 0.2587 0.52234 0.39885 0.0
N2259 N 0.26152 0.60523 0.39583 0.0
H2260 H 0.02269 0.53812 0.75441 0.0
H2261 H 0.999 0.59385 0.93258 0.0
H2262 H 1.01005 0.47812 0.83284 0.0
H2263 H 0.01701 0.65337 0.8583 0.0
H2264 H 1.00155 0.55192 0.89522 0.0
H2265 H 0.01963 0.58061 0.79109 0.0
C2266 C 0.01931 0.5338 0.77943 0.0
C2267 C 0.01662 0.50438 0.79057 0.0
C2268 C 1.00492 0.5741 0.88697 0.0
C2269 C 0.01301 0.55332 0.83274 0.0
C2270 C 1.00345 0.59822 0.90829 0.0
C2271 C 1.0079 0.62735 0.89867 0.0
C2272 C 1.01086 0.57889 0.85555 0.0
C2273 C 0.01341 0.63141 0.86675 0.0
C2274 C 0.01756 0.55819 0.80036 0.0
C2275 C 0.01229 0.50035 0.82324 0.0
N2276 N 0.0148 0.60739 0.84635 0.0
N2277 N 1.01057 0.52458 0.84316 0.0
H2278 H 0.25236 0.59708 0.86045 0.0
H2279 H 0.26509 0.77377 0.83121 0.0
H2280 H 0.27576 0.65612 0.92858 0.0
H2281 H 0.24606 0.71369 0.75867 0.0
H2282 H 0.26766 0.73115 0.86867 0.0
H2283 H 0.24898 0.63979 0.82338 0.0
C2284 C 0.25692 0.61883 0.86751 0.0
C2285 C 0.26439 0.62283 0.8977 0.0
C2286 C 0.26286 0.72735 0.84458 0.0
C2287 C 0.26039 0.67185 0.85566 0.0
C2288 C 0.26131 0.75171 0.82332 0.0
C2289 C 0.25545 0.74723 0.79179 0.0
C2290 C 0.2584 0.69842 0.83424 0.0
C2291 C 0.2508 0.71812 0.78269 0.0
C2292 C 0.25491 0.64326 0.84643 0.0
C2293 C 0.26991 0.65175 0.90564 0.0
N2294 N 0.25239 0.69486 0.80377 0.0
N2295 N 0.26776 0.67505 0.88484 0.0
H2296 H 1.00546 0.22373 0.58512 0.0
H2297 H 0.01924 0.40007 0.61248 0.0
H2298 H 0.01406 0.28699 0.50737 0.0
H2299 H 1.00881 0.33817 0.6905 0.0
H2300 H 0.01789 0.35847 0.57376 0.0
H2301 H 1.00723 0.26495 0.62443 0.0
C2302 C 1.00773 0.24623 0.5763 0.0
C2303 C 1.00953 0.2519 0.54287 0.0
C2304 C 0.01587 0.35398 0.59936 0.0
C2305 C 0.0116 0.29913 0.58767 0.0
C2306 C 0.01661 0.37776 0.62148 0.0
C2307 C 0.01417 0.37263 0.65482 0.0
C2308 C 0.01259 0.32484 0.6106 0.0
C2309 C 1.01092 0.34316 0.66507 0.0
C2310 C 1.00873 0.26976 0.59875 0.0
C2311 C 0.01248 0.28153 0.53287 0.0
N2312 N 1.0102 0.32041 0.64306 0.0
N2313 N 0.01341 0.30398 0.55514 0.0
H2314 H 0.73758 0.40049 0.67235 0.0
H2315 H 0.7789 0.46609 0.51223 0.0
H2316 H 0.77261 0.35205 0.61676 0.0
H2317 H 0.74757 0.51791 0.57304 0.0
H2318 H 0.77662 0.424 0.55012 0.0
H2319 H 0.74037 0.44296 0.63533 0.0
C2320 C 0.7458 0.39865 0.65224 0.0
C2321 C 0.75484 0.37249 0.64766 0.0
C2322 C 0.77023 0.44453 0.55526 0.0
C2323 C 0.75822 0.42143 0.6053 0.0
C2324 C 0.77153 0.46854 0.53365 0.0
C2325 C 0.76337 0.49537 0.53959 0.0
C2326 C 0.76044 0.44715 0.58272 0.0
C2327 C 0.75412 0.4976 0.5678 0.0
C2328 C 0.74743 0.42304 0.63118 0.0
C2329 C 0.76527 0.37155 0.62109 0.0
N2330 N 0.75278 0.47365 0.58822 0.0
N2331 N 0.7667 0.39569 0.601 0.0
H2332 H 0.99647 0.46512 0.23341 0.0
H2333 H 0.03141 0.40529 0.06452 0.0
H2334 H 0.02234 0.52094 0.1662 0.0
H2335 H 1.00206 0.35165 0.12776 0.0
H2336 H 0.02868 0.4474 0.10196 0.0
H2337 H 0.99825 0.42349 0.19494 0.0
C2338 C 1.00253 0.46859 0.21047 0.0
C2339 C 1.00937 0.49643 0.20301 0.0
C2340 C 0.02284 0.42645 0.10771 0.0
C2341 C 0.01165 0.44868 0.15902 0.0
C2342 C 0.02442 0.40229 0.08639 0.0
C2343 C 0.01696 0.37477 0.09301 0.0
C2344 C 0.01367 0.42327 0.13595 0.0
C2345 C 1.00814 0.37229 0.12181 0.0
C2346 C 1.00353 0.4448 0.18851 0.0
C2347 C 0.01688 0.49984 0.17281 0.0
N2348 N 1.0067 0.39627 0.14217 0.0
N2349 N 0.01795 0.47612 0.152 0.0
H2350 H 0.73109 0.36207 0.08737 0.0
H2351 H 0.78684 0.2531 0.19058 0.0
H2352 H 0.78008 0.38195 0.10608 0.0
H2353 H 0.73633 0.25442 0.20157 0.0
H2354 H 0.78495 0.29605 0.15302 0.0
H2355 H 0.73306 0.31861 0.12355 0.0
C2356 C 0.74223 0.35745 0.09926 0.0
C2357 C 0.75541 0.37588 0.09383 0.0
C2358 C 0.77428 0.28679 0.16347 0.0
C2359 C 0.7578 0.32575 0.13478 0.0
C2360 C 0.77536 0.26222 0.18456 0.0
C2361 C 0.76169 0.2503 0.19866 0.0
C2362 C 0.75941 0.29916 0.15632 0.0
C2363 C 0.74708 0.26301 0.19079 0.0
C2364 C 0.74334 0.33261 0.11988 0.0
C2365 C 0.76956 0.36864 0.10984 0.0
N2366 N 0.7463 0.28673 0.17 0.0
N2367 N 0.77042 0.34401 0.12939 0.0
H2368 H 0.51069 0.27413 0.41202 0.0
H2369 H 0.51472 0.0955 0.38469 0.0
H2370 H 0.52111 0.21063 0.48853 0.0
H2371 H 0.5012 0.15893 0.3101 0.0
H2372 H 0.51684 0.13727 0.42347 0.0
H2373 H 0.50711 0.23205 0.37418 0.0
C2374 C 0.51229 0.2514 0.42082 0.0
C2375 C 0.51626 0.24595 0.45345 0.0
C2376 C 0.51334 0.14195 0.39861 0.0
C2377 C 0.51218 0.19767 0.4104 0.0
C2378 C 0.51208 0.11807 0.37651 0.0
C2379 C 0.50785 0.12359 0.34401 0.0
C2380 C 0.51036 0.17154 0.38813 0.0
C2381 C 0.50462 0.15345 0.33481 0.0
C2382 C 0.51019 0.22736 0.39927 0.0
C2383 C 0.51806 0.21597 0.46358 0.0
N2384 N 0.506 0.17619 0.35665 0.0
N2385 N 0.51605 0.19304 0.44217 0.0
H2386 H 0.73738 0.02734 0.47278 0.0
H2387 H 0.78316 0.10142 0.32228 0.0
H2388 H 0.77445 0.98259 0.41974 0.0
H2389 H 0.74546 0.14606 0.37372 0.0
H2390 H 0.78045 0.05832 0.35844 0.0
H2391 H 0.73967 0.07047 0.43613 0.0
C2392 C 0.74592 0.02658 0.45314 0.0
C2393 C 0.7557 0.00144 0.44907 0.0
C2394 C 0.77278 0.07751 0.36199 0.0
C2395 C 0.75874 0.05103 0.40766 0.0
C2396 C 0.77437 0.10224 0.34144 0.0
C2397 C 0.76452 0.12743 0.34501 0.0
C2398 C 0.76113 0.07766 0.38627 0.0
C2399 C 0.7534 0.12727 0.37033 0.0
C2400 C 0.74728 0.05124 0.43236 0.0
C2401 C 0.76655 0.00144 0.42334 0.0
N2402 N 0.75193 0.10265 0.38986 0.0
N2403 N 0.7679 0.02601 0.40377 0.0
H2404 H 0.4988 0.14876 0.85888 0.0
H2405 H 0.5243 0.9765 0.83209 0.0
H2406 H 0.52067 0.09416 0.9331 0.0
H2407 H 0.50084 0.03055 0.75944 0.0
H2408 H 0.52296 0.01918 0.86995 0.0
H2409 H 0.49986 0.10569 0.82158 0.0
C2410 C 0.50396 0.12786 0.86717 0.0
C2411 C 0.50956 0.12498 0.89912 0.0
C2412 C 0.51806 0.0216 0.84573 0.0
C2413 C 0.51078 0.07568 0.85688 0.0
C2414 C 0.51875 0.99719 0.82425 0.0
C2415 C 0.51281 0.0001 0.79254 0.0
C2416 C 0.51131 0.04891 0.83536 0.0
C2417 C 0.50578 0.02746 0.78354 0.0
C2418 C 0.50448 0.10322 0.84602 0.0
C2419 C 0.51603 0.09728 0.90876 0.0
N2420 N 0.50527 0.05077 0.80476 0.0
N2421 N 0.51646 0.07375 0.88778 0.0
H2422 H 0.77211 0.2186 0.75767 0.0
H2423 H 0.74912 0.15174 0.93218 0.0
H2424 H 0.74624 0.2685 0.83026 0.0
H2425 H 0.77391 0.10086 0.85886 0.0
H2426 H 0.74791 0.1945 0.89523 0.0
H2427 H 0.77364 0.17602 0.79493 0.0
C2428 C 0.76675 0.22058 0.78156 0.0
C2429 C 0.75891 0.24702 0.79083 0.0
C2430 C 0.7536 0.17405 0.88707 0.0
C2431 C 0.76045 0.19808 0.83353 0.0
C2432 C 0.75428 0.14956 0.90815 0.0
C2433 C 0.76169 0.12273 0.89858 0.0
C2434 C 0.76052 0.17193 0.85612 0.0
C2435 C 0.768 0.12104 0.86708 0.0
C2436 C 0.76762 0.19621 0.80279 0.0
C2437 C 0.75242 0.24855 0.8222 0.0
N2438 N 0.76738 0.14543 0.84703 0.0
N2439 N 0.75322 0.22428 0.84235 0.0
H2440 H 0.51738 0.90277 0.60744 0.0
H2441 H 0.50786 0.72523 0.58155 0.0
H2442 H 0.51446 0.83869 0.68623 0.0
H2443 H 0.51419 0.78833 0.50271 0.0
H2444 H 0.51014 0.76665 0.62038 0.0
H2445 H 0.51613 0.86115 0.56852 0.0
C2446 C 0.51646 0.88003 0.61657 0.0
C2447 C 0.51599 0.87432 0.65017 0.0
C2448 C 0.51105 0.7714 0.59457 0.0
C2449 C 0.5145 0.8266 0.60584 0.0
C2450 C 0.50974 0.74775 0.57239 0.0
C2451 C 0.51072 0.75331 0.53881 0.0
C2452 C 0.51337 0.80082 0.58308 0.0
C2453 C 0.51322 0.78297 0.52836 0.0
C2454 C 0.51577 0.85626 0.59436 0.0
C2455 C 0.51489 0.8443 0.66058 0.0
N2456 N 0.51442 0.80558 0.5504 0.0
N2457 N 0.51413 0.82164 0.63853 0.0
H2458 H 0.26504 0.02583 0.58187 0.0
H2459 H 0.25424 0.84888 0.61076 0.0
H2460 H 0.25663 0.96165 0.50495 0.0
H2461 H 0.2603 0.91271 0.68899 0.0
H2462 H 0.25523 0.89022 0.57169 0.0
H2463 H 0.26329 0.98501 0.62175 0.0
C2464 C 0.26278 0.00322 0.57337 0.0
C2465 C 0.26109 0.99713 0.53999 0.0
C2466 C 0.25635 0.89519 0.59742 0.0
C2467 C 0.25909 0.95036 0.58541 0.0
C2468 C 0.25582 0.87154 0.61975 0.0
C2469 C 0.25716 0.87724 0.65324 0.0
C2470 C 0.25833 0.9248 0.60859 0.0
C2471 C 0.25912 0.90718 0.66342 0.0
C2472 C 0.2618 0.97991 0.59613 0.0
C2473 C 0.25816 0.96739 0.53039 0.0
N2474 N 0.25968 0.92979 0.6412 0.0
N2475 N 0.25729 0.94518 0.55294 0.0
H2476 H 0.53106 0.85398 0.12681 0.0
H2477 H 0.49508 0.01728 0.16547 0.0
H2478 H 0.49926 0.90057 0.06233 0.0
H2479 H 0.52862 0.97166 0.22711 0.0
H2480 H 0.49618 0.97483 0.12729 0.0
H2481 H 0.52992 0.89678 0.16442 0.0
C2482 C 0.52369 0.87308 0.12084 0.0
C2483 C 0.51527 0.87386 0.09152 0.0
C2484 C 0.50338 0.97423 0.14908 0.0
C2485 C 0.51382 0.92281 0.13423 0.0
C2486 C 0.50281 0.99852 0.17072 0.0
C2487 C 0.51175 0.9979 0.19947 0.0
C2488 C 0.51305 0.94935 0.15617 0.0
C2489 C 0.52142 0.97289 0.20536 0.0
C2490 C 0.52309 0.89758 0.14214 0.0
C2491 C 0.50605 0.89929 0.08461 0.0
N2492 N 0.52182 0.94967 0.18394 0.0
N2493 N 0.50553 0.92271 0.10582 0.0
H2494 H 0.27002 0.78773 0.23795 0.0
H2495 H 0.24596 0.84177 0.05923 0.0
H2496 H 0.25578 0.7273 0.16118 0.0
H2497 H 0.26588 0.90135 0.13138 0.0
H2498 H 0.24863 0.80022 0.09706 0.0
H2499 H 0.26814 0.82967 0.19994 0.0
C2500 C 0.26648 0.78325 0.21306 0.0
C2501 C 0.26296 0.75391 0.20276 0.0
C2502 C 0.25242 0.82234 0.10471 0.0
C2503 C 0.26067 0.80206 0.15913 0.0
C2504 C 0.25086 0.84627 0.08311 0.0
C2505 C 0.2557 0.87535 0.09204 0.0
C2506 C 0.25884 0.82728 0.13571 0.0
C2507 C 0.26191 0.87946 0.12343 0.0
C2508 C 0.26544 0.80726 0.19136 0.0
C2509 C 0.25862 0.7495 0.17015 0.0
N2510 N 0.26331 0.85567 0.14413 0.0
N2511 N 0.2575 0.77335 0.14955 0.0
H2512 H 0.52114 0.59697 0.87952 0.0
H2513 H 0.50464 0.77233 0.91239 0.0
H2514 H 0.49403 0.65389 0.81532 0.0
H2515 H 0.52826 0.71406 0.98078 0.0
H2516 H 0.50174 0.72955 0.87512 0.0
H2517 H 0.52442 0.63975 0.91666 0.0
C2518 C 0.51571 0.61827 0.87344 0.0
C2519 C 0.50732 0.62177 0.84423 0.0
C2520 C 0.50764 0.72619 0.89823 0.0
C2521 C 0.51118 0.6709 0.88629 0.0
C2522 C 0.5094 0.75068 0.91933 0.0
C2523 C 0.51663 0.74672 0.94972 0.0
C2524 C 0.51329 0.69767 0.90752 0.0
C2525 C 0.52246 0.71807 0.95769 0.0
C2526 C 0.51767 0.64276 0.89451 0.0
C2527 C 0.50069 0.65009 0.83744 0.0
N2528 N 0.52065 0.69469 0.93678 0.0
N2529 N 0.5028 0.67347 0.85819 0.0
H2530 H 0.7691 0.52843 0.98556 0.0
H2531 H 0.74932 0.5947 0.80907 0.0
H2532 H 0.74653 0.47721 0.90958 0.0
H2533 H 0.77257 0.64617 0.88391 0.0
H2534 H 0.74821 0.55174 0.84564 0.0
H2535 H 0.77126 0.57107 0.94845 0.0
C2536 C 0.76462 0.52615 0.96095 0.0
C2537 C 0.75746 0.49932 0.95072 0.0
C2538 C 0.75357 0.57234 0.8542 0.0
C2539 C 0.75975 0.54834 0.90813 0.0
C2540 C 0.75419 0.59697 0.83332 0.0
C2541 C 0.76111 0.62409 0.84339 0.0
C2542 C 0.76001 0.57456 0.88556 0.0
C2543 C 0.76704 0.62579 0.87523 0.0
C2544 C 0.76585 0.55056 0.9398 0.0
C2545 C 0.75212 0.49746 0.91847 0.0
N2546 N 0.76644 0.60127 0.89515 0.0
N2547 N 0.75324 0.52175 0.89841 0.0
H2548 H 0.49928 0.53114 0.2591 0.0
H2549 H 0.52356 0.59737 0.43277 0.0
H2550 H 0.52513 0.4803 0.33097 0.0
H2551 H 0.50035 0.6497 0.35847 0.0
H2552 H 0.52419 0.55443 0.39608 0.0
H2553 H 0.4988 0.57397 0.29587 0.0
C2554 C 0.50485 0.52895 0.28275 0.0
C2555 C 0.51238 0.50212 0.29189 0.0
C2556 C 0.519 0.57526 0.38764 0.0
C2557 C 0.51197 0.55147 0.33415 0.0
C2558 C 0.51864 0.59986 0.40856 0.0
C2559 C 0.51181 0.62715 0.39867 0.0
C2560 C 0.51235 0.57773 0.35651 0.0
C2561 C 0.5058 0.62916 0.36697 0.0
C2562 C 0.50459 0.55352 0.3037 0.0
C2563 C 0.51917 0.50051 0.32297 0.0
N2564 N 0.5061 0.60465 0.34707 0.0
N2565 N 0.51889 0.52496 0.34294 0.0
H2566 H 0.75031 0.71011 0.25262 0.0
H2567 H 0.77264 0.65642 0.43241 0.0
H2568 H 0.7608 0.77099 0.33156 0.0
H2569 H 0.75583 0.59569 0.35808 0.0
H2570 H 0.77014 0.69791 0.39445 0.0
H2571 H 0.7537 0.66784 0.28963 0.0
C2572 C 0.75329 0.71466 0.2778 0.0
C2573 C 0.75522 0.74426 0.28902 0.0
C2574 C 0.76699 0.67556 0.38633 0.0
C2575 C 0.75923 0.69564 0.33155 0.0
C2576 C 0.76844 0.65169 0.40802 0.0
C2577 C 0.76433 0.62234 0.39856 0.0
C2578 C 0.7614 0.67032 0.35473 0.0
C2579 C 0.75913 0.61785 0.36647 0.0
C2580 C 0.75523 0.69041 0.29891 0.0
C2581 C 0.75911 0.74861 0.32188 0.0
N2582 N 0.75776 0.64163 0.34572 0.0
N2583 N 0.76102 0.72456 0.34197 0.0
H2584 H 0.51714 0.33718 0.1889 0.0
H2585 H 0.51182 0.28804 0.00198 0.0
H2586 H 0.5146 0.40009 0.10895 0.0
H2587 H 0.50814 0.22531 0.08189 0.0
H2588 H 0.51432 0.32892 0.04089 0.0
H2589 H 0.51531 0.29586 0.15021 0.0
C2590 C 0.51624 0.3424 0.16319 0.0
C2591 C 0.516 0.37232 0.15222 0.0
C2592 C 0.51293 0.30625 0.04997 0.0
C2593 C 0.51392 0.32479 0.10768 0.0
C2594 C 0.51149 0.28279 0.02774 0.0
C2595 C 0.50968 0.25309 0.03864 0.0
C2596 C 0.51259 0.30014 0.08349 0.0
C2597 C 0.50947 0.24782 0.07236 0.0
C2598 C 0.51517 0.31868 0.14111 0.0
C2599 C 0.51481 0.37747 0.11858 0.0
N2600 N 0.5109 0.27114 0.0936 0.0
N2601 N 0.51383 0.35395 0.09753 0.0
H2602 H 0.2732 0.46242 0.00585 0.0
H2603 H 0.24382 0.40684 0.18082 0.0
H2604 H 0.25378 0.52176 0.07878 0.0
H2605 H 0.26781 0.34927 0.11203 0.0
H2606 H 0.24629 0.44848 0.14278 0.0
H2607 H 0.27064 0.42053 0.04369 0.0
C2608 C 0.26837 0.46665 0.02987 0.0
C2609 C 0.26367 0.49566 0.03919 0.0
C2610 C 0.25101 0.42676 0.13594 0.0
C2611 C 0.26057 0.44756 0.08259 0.0
C2612 C 0.24958 0.40285 0.15764 0.0
C2613 C 0.25563 0.37436 0.14968 0.0
C2614 C 0.25858 0.42235 0.10593 0.0
C2615 C 0.26288 0.37071 0.11917 0.0
C2616 C 0.26693 0.44267 0.05148 0.0
C2617 C 0.25763 0.4998 0.07068 0.0
N2618 N 0.2642 0.39446 0.09846 0.0
N2619 N 0.25617 0.47596 0.09121 0.0
H2620 H 0.48985 0.37661 0.59093 0.0
H2621 H 0.5332 0.47967 0.72039 0.0
H2622 H 0.54038 0.37542 0.60226 0.0
H2623 H 0.49025 0.50809 0.67341 0.0
H2624 H 0.53512 0.43763 0.68198 0.0
H2625 H 0.4885 0.42095 0.62651 0.0
C2626 C 0.50061 0.38541 0.60147 0.0
C2627 C 0.51522 0.37222 0.59427 0.0
C2628 C 0.52533 0.45315 0.67994 0.0
C2629 C 0.5138 0.42262 0.63463 0.0
C2630 C 0.52423 0.47703 0.7018 0.0
C2631 C 0.51159 0.49719 0.6998 0.0
C2632 C 0.51343 0.44895 0.65662 0.0
C2633 C 0.50024 0.49303 0.6754 0.0
C2634 C 0.49986 0.41084 0.62136 0.0
C2635 C 0.52889 0.38486 0.60762 0.0
N2636 N 0.5013 0.46904 0.65495 0.0
N2637 N 0.52784 0.40921 0.6275 0.0
H2638 H 0.26676 0.28925 0.73948 0.0
H2639 H 0.25111 0.33916 0.5555 0.0
H2640 H 0.25966 0.22632 0.66076 0.0
H2641 H 0.26476 0.40094 0.63166 0.0
H2642 H 0.25309 0.29791 0.59409 0.0
H2643 H 0.26505 0.33047 0.70071 0.0
C2644 C 0.26486 0.28405 0.714 0.0
C2645 C 0.26338 0.25421 0.70334 0.0
C2646 C 0.25567 0.32047 0.60237 0.0
C2647 C 0.26134 0.30154 0.65877 0.0
C2648 C 0.25452 0.34417 0.58035 0.0
C2649 C 0.25776 0.37377 0.59029 0.0
C2650 C 0.26006 0.32625 0.6347 0.0
C2651 C 0.26213 0.37859 0.62285 0.0
C2652 C 0.26391 0.30767 0.69186 0.0
C2653 C 0.26094 0.24895 0.67002 0.0
N2654 N 0.26313 0.35507 0.64389 0.0
N2655 N 0.25994 0.27241 0.64891 0.0
H2656 H 0.15521 0.28435 0.20515 0.0
H2657 H 0.12113 0.29849 0.02635 0.0
H2658 H 0.18039 0.32117 0.12328 0.0
H2659 H 0.0938 0.30846 0.11416 0.0
H2660 H 0.14358 0.28123 0.05885 0.0
H2661 H 0.13424 0.26773 0.16829 0.0
C2662 C 0.15667 0.28748 0.17914 0.0
C2663 C 0.16944 0.30401 0.167 0.0
C2664 C 0.13245 0.28591 0.07085 0.0
C2665 C 0.14556 0.28571 0.12513 0.0
C2666 C 0.11964 0.29544 0.05237 0.0
C2667 C 0.10572 0.30481 0.0678 0.0
C2668 C 0.13122 0.28564 0.10488 0.0
C2669 C 0.10435 0.3012 0.10152 0.0
C2670 C 0.14467 0.27828 0.15825 0.0
C2671 C 0.17074 0.30823 0.13334 0.0
N2672 N 0.11711 0.29236 0.11913 0.0
N2673 N 0.15874 0.29961 0.11351 0.0
H2674 H 0.11944 0.9551 0.21277 0.0
H2675 H 0.15435 0.96177 0.03453 0.0
H2676 H 0.09307 0.93932 0.1248 0.0
H2677 H 0.17972 0.93302 0.11986 0.0
H2678 H 0.13289 0.97984 0.06939 0.0
H2679 H 0.14159 0.97341 0.18011 0.0
C2680 C 0.11805 0.95706 0.1866 0.0
C2681 C 0.10456 0.9457 0.17124 0.0
C2682 C 0.14346 0.97082 0.08054 0.0
C2683 C 0.12975 0.966 0.13399 0.0
C2684 C 0.15573 0.96079 0.06076 0.0
C2685 C 0.16869 0.94599 0.07457 0.0
C2686 C 0.14426 0.96591 0.11422 0.0
C2687 C 0.1699 0.94452 0.1085 0.0
C2688 C 0.13071 0.96723 0.16804 0.0
C2689 C 0.10331 0.94805 0.13737 0.0
N2690 N 0.15763 0.95384 0.12728 0.0
N2691 N 0.11594 0.95743 0.1197 0.0
H2692 H 0.90565 0.71151 0.95636 0.0
H2693 H 0.86937 0.70243 0.77887 0.0
H2694 H 0.93066 0.68123 0.87111 0.0
H2695 H 0.84336 0.6872 0.86748 0.0
H2696 H 0.89191 0.71968 0.81103 0.0
H2697 H 0.88365 0.72745 0.92173 0.0
C2698 C 0.90681 0.70975 0.93013 0.0
C2699 C 0.91991 0.69529 0.91635 0.0
C2700 C 0.88104 0.71381 0.82337 0.0
C2701 C 0.89485 0.71278 0.87695 0.0
C2702 C 0.86816 0.70429 0.80509 0.0
C2703 C 0.8546 0.69348 0.82073 0.0
C2704 C 0.88025 0.71258 0.85743 0.0
C2705 C 0.85362 0.6956 0.85467 0.0
C2706 C 0.89423 0.71852 0.91049 0.0
C2707 C 0.92079 0.69265 0.88244 0.0
N2708 N 0.86645 0.70443 0.87205 0.0
N2709 N 0.90825 0.70086 0.86382 0.0
H2710 H 0.91179 0.02945 0.79105 0.0
H2711 H 0.84474 0.07085 0.87057 0.0
H2712 H 0.92673 0.07952 0.87533 0.0
H2713 H 0.86547 0.0325 0.9568 0.0
H2714 H 0.86751 0.05362 0.83894 0.0
H2715 H 0.88885 0.0113 0.82184 0.0
C2716 C 0.9107 0.03514 0.81663 0.0
C2717 C 0.92105 0.05581 0.83092 0.0
C2718 C 0.86664 0.04745 0.86442 0.0
C2719 C 0.89511 0.03554 0.8657 0.0
C2720 C 0.85362 0.05711 0.88235 0.0
C2721 C 0.85327 0.05267 0.91609 0.0
C2722 C 0.87945 0.0342 0.88072 0.0
C2723 C 0.86537 0.03592 0.93068 0.0
C2724 C 0.8976 0.02504 0.83395 0.0
C2725 C 0.91902 0.06333 0.86376 0.0
N2726 N 0.87834 0.02831 0.91313 0.0
N2727 N 0.90608 0.05352 0.88002 0.0
H2728 H 0.15606 0.78164 0.70758 0.0
H2729 H 0.11935 0.79731 0.53198 0.0
H2730 H 0.18064 0.81367 0.62263 0.0
H2731 H 0.09415 0.80952 0.62218 0.0
H2732 H 0.14178 0.77701 0.56225 0.0
H2733 H 0.13436 0.76479 0.67277 0.0
C2734 C 0.15724 0.78353 0.68137 0.0
C2735 C 0.16997 0.79914 0.66773 0.0
C2736 C 0.1311 0.78287 0.57529 0.0
C2737 C 0.14527 0.78074 0.62824 0.0
C2738 C 0.1183 0.79427 0.5581 0.0
C2739 C 0.10504 0.8051 0.57484 0.0
C2740 C 0.13053 0.78227 0.60938 0.0
C2741 C 0.10421 0.80129 0.60858 0.0
C2742 C 0.14482 0.77424 0.66163 0.0
C2743 C 0.17097 0.80163 0.63384 0.0
N2744 N 0.11698 0.79062 0.62494 0.0
N2745 N 0.15854 0.79315 0.61517 0.0
H2746 H 0.15209 0.45467 0.52983 0.0
H2747 H 0.11442 0.46172 0.70545 0.0
H2748 H 0.17681 0.43682 0.61942 0.0
H2749 H 0.09122 0.42836 0.61946 0.0
H2750 H 0.136 0.48058 0.6715 0.0
H2751 H 0.12947 0.47298 0.56116 0.0
C2752 C 0.153 0.45614 0.55613 0.0
C2753 C 0.16614 0.44423 0.57232 0.0
C2754 C 0.12583 0.4704 0.65996 0.0
C2755 C 0.14051 0.46472 0.60793 0.0
C2756 C 0.11352 0.45986 0.67918 0.0
C2757 C 0.10124 0.44343 0.66496 0.0
C2758 C 0.12569 0.46446 0.62646 0.0
C2759 C 0.10056 0.441 0.63107 0.0
C2760 C 0.14012 0.46639 0.57389 0.0
C2761 C 0.16683 0.44596 0.60628 0.0
N2762 N 0.11287 0.45091 0.61286 0.0
N2763 N 0.15397 0.4555 0.62314 0.0
H2764 H 0.84432 0.18848 0.36824 0.0
H2765 H 0.93107 0.17758 0.36932 0.0
H2766 H 0.87023 0.20662 0.28016 0.0
H2767 H 0.90712 0.21245 0.4538 0.0
H2768 H 0.91001 0.19754 0.33486 0.0
H2769 H 0.86664 0.20714 0.40009 0.0
C2770 C 0.85443 0.19785 0.3557 0.0
C2771 C 0.85566 0.19603 0.32182 0.0
C2772 C 0.90968 0.2021 0.36078 0.0
C2773 C 0.8813 0.21595 0.35759 0.0
C2774 C 0.92174 0.19081 0.38032 0.0
C2775 C 0.92064 0.19349 0.41414 0.0
C2776 C 0.89632 0.21507 0.37557 0.0
C2777 C 0.90822 0.21011 0.42762 0.0
C2778 C 0.86721 0.20836 0.37376 0.0
C2779 C 0.86904 0.20778 0.30642 0.0
N2780 N 0.89623 0.21955 0.40835 0.0
N2781 N 0.88161 0.21641 0.32446 0.0
H2782 H 0.9027 0.55222 0.27377 0.0
H2783 H 0.86553 0.53112 0.44909 0.0
H2784 H 0.92871 0.55673 0.36375 0.0
H2785 H 0.84237 0.57398 0.36812 0.0
H2786 H 0.88681 0.51503 0.41261 0.0
H2787 H 0.87955 0.53464 0.30378 0.0
C2788 C 0.90373 0.54795 0.29969 0.0
C2789 C 0.9175 0.55594 0.31652 0.0
C2790 C 0.87673 0.52679 0.40259 0.0
C2791 C 0.8912 0.53622 0.35076 0.0
C2792 C 0.86455 0.53569 0.42323 0.0
C2793 C 0.8523 0.5538 0.41135 0.0
C2794 C 0.87653 0.53607 0.36999 0.0
C2795 C 0.85162 0.55983 0.37796 0.0
C2796 C 0.89052 0.53819 0.31675 0.0
C2797 C 0.91828 0.55064 0.35005 0.0
N2798 N 0.86378 0.55143 0.35841 0.0
N2799 N 0.90514 0.54158 0.36629 0.0
H2800 H 0.60974 0.27632 0.5447 0.0
H2801 H 0.67675 0.32586 0.62285 0.0
H2802 H 0.59708 0.33714 0.62204 0.0
H2803 H 0.65754 0.28189 0.70743 0.0
H2804 H 0.65387 0.30912 0.59122 0.0
H2805 H 0.63221 0.25876 0.57734 0.0
C2806 C 0.61114 0.28455 0.56938 0.0
C2807 C 0.60167 0.30809 0.58093 0.0
C2808 C 0.65513 0.30174 0.61626 0.0
C2809 C 0.627 0.2883 0.61781 0.0
C2810 C 0.66819 0.31109 0.63414 0.0
C2811 C 0.669 0.30477 0.66749 0.0
C2812 C 0.64273 0.28696 0.63227 0.0
C2813 C 0.65731 0.2867 0.68157 0.0
C2814 C 0.62398 0.27474 0.58772 0.0
C2815 C 0.6041 0.31876 0.61259 0.0
N2816 N 0.64424 0.27943 0.66419 0.0
N2817 N 0.61679 0.30913 0.62984 0.0
H2818 H 0.6195 0.95467 0.7135 0.0
H2819 H 0.6546 0.96245 0.53549 0.0
H2820 H 0.59314 0.94017 0.62525 0.0
H2821 H 0.67983 0.93266 0.62061 0.0
H2822 H 0.63315 0.98036 0.57045 0.0
H2823 H 0.64176 0.97291 0.68113 0.0
C2824 C 0.61815 0.95691 0.68735 0.0
C2825 C 0.60462 0.94591 0.67179 0.0
C2826 C 0.64368 0.97111 0.58155 0.0
C2827 C 0.62993 0.96611 0.63489 0.0
C2828 C 0.65594 0.96115 0.56172 0.0
C2829 C 0.66886 0.94617 0.57543 0.0
C2830 C 0.64445 0.96593 0.61518 0.0
C2831 C 0.67003 0.94432 0.60934 0.0
C2832 C 0.63086 0.96703 0.66895 0.0
C2833 C 0.60341 0.94862 0.63796 0.0
N2834 N 0.65777 0.95358 0.62817 0.0
N2835 N 0.61609 0.95792 0.62045 0.0
H2836 H 0.40084 0.69597 0.46415 0.0
H2837 H 0.36691 0.71705 0.28631 0.0
H2838 H 0.42841 0.69231 0.37605 0.0
H2839 H 0.34078 0.68268 0.36813 0.0
H2840 H 0.38812 0.73226 0.32327 0.0
H2841 H 0.37837 0.71479 0.4329 0.0
C2842 C 0.40233 0.70051 0.43838 0.0
C2843 C 0.41638 0.69258 0.42246 0.0
C2844 C 0.37746 0.72256 0.3333 0.0
C2845 C 0.39078 0.71362 0.38668 0.0
C2846 C 0.3653 0.71426 0.31233 0.0
C2847 C 0.3522 0.6986 0.32439 0.0
C2848 C 0.37642 0.71504 0.36639 0.0
C2849 C 0.3507 0.69487 0.35808 0.0
C2850 C 0.3895 0.71103 0.42059 0.0
C2851 C 0.41776 0.69833 0.38908 0.0
N2852 N 0.36287 0.70244 0.37796 0.0
N2853 N 0.40496 0.70803 0.37208 0.0
H2854 H 0.43114 0.06175 0.36928 0.0
H2855 H 0.3432 0.0588 0.37338 0.0
H2856 H 0.40496 0.03642 0.28375 0.0
H2857 H 0.36986 0.03651 0.4593 0.0
H2858 H 0.36506 0.04083 0.33964 0.0
H2859 H 0.40975 0.04246 0.40332 0.0
C2860 C 0.42122 0.05065 0.35781 0.0
C2861 C 0.41963 0.05062 0.32393 0.0
C2862 C 0.3659 0.03858 0.36586 0.0
C2863 C 0.39493 0.02997 0.36219 0.0
C2864 C 0.35337 0.04868 0.385 0.0
C2865 C 0.35488 0.04896 0.4189 0.0
C2866 C 0.38008 0.02976 0.38097 0.0
C2867 C 0.36839 0.03643 0.43308 0.0
C2868 C 0.40894 0.03983 0.37714 0.0
C2869 C 0.40646 0.0367 0.30996 0.0
N2870 N 0.38071 0.02809 0.41404 0.0
N2871 N 0.39433 0.02773 0.32915 0.0
H2872 H 0.66076 0.78066 0.20013 0.0
H2873 H 0.59487 0.82778 0.12157 0.0
H2874 H 0.67655 0.82893 0.11529 0.0
H2875 H 0.6135 0.78485 0.03575 0.0
H2876 H 0.61754 0.80925 0.15266 0.0
H2877 H 0.63754 0.76361 0.16959 0.0
C2878 C 0.6598 0.7861 0.17447 0.0
C2879 C 0.67042 0.80615 0.15999 0.0
C2880 C 0.6162 0.80246 0.12744 0.0
C2881 C 0.64417 0.78713 0.1255 0.0
C2882 C 0.60326 0.8129 0.10984 0.0
C2883 C 0.60233 0.80731 0.07636 0.0
C2884 C 0.62839 0.78731 0.11104 0.0
C2885 C 0.61383 0.78911 0.06172 0.0
C2886 C 0.64654 0.77663 0.15728 0.0
C2887 C 0.66859 0.8133 0.12703 0.0
N2888 N 0.62678 0.78068 0.07889 0.0
N2889 N 0.65546 0.80421 0.11092 0.0
H2890 H 0.65686 0.4538 0.03309 0.0
H2891 H 0.61357 0.46555 0.20347 0.0
H2892 H 0.67879 0.43621 0.12577 0.0
H2893 H 0.5937 0.42409 0.11808 0.0
H2894 H 0.636 0.48275 0.1708 0.0
H2895 H 0.63303 0.47067 0.06131 0.0
C2896 C 0.65699 0.45539 0.05945 0.0
C2897 C 0.66974 0.44384 0.07732 0.0
C2898 C 0.62635 0.47116 0.15895 0.0
C2899 C 0.64269 0.46297 0.10944 0.0
C2900 C 0.61352 0.46163 0.17741 0.0
C2901 C 0.60188 0.44354 0.16323 0.0
C2902 C 0.62736 0.4627 0.12617 0.0
C2903 C 0.60244 0.43824 0.12966 0.0
C2904 C 0.64335 0.46467 0.07543 0.0
C2905 C 0.66922 0.44526 0.11132 0.0
N2906 N 0.61519 0.44736 0.11223 0.0
N2907 N 0.65575 0.45425 0.12641 0.0
H2908 H 0.42903 0.19045 0.87314 0.0
H2909 H 0.34252 0.17826 0.87512 0.0
H2910 H 0.40407 0.21001 0.96204 0.0
H2911 H 0.36518 0.21466 0.78997 0.0
H2912 H 0.36389 0.19829 0.90877 0.0
H2913 H 0.40638 0.20869 0.842 0.0
C2914 C 0.4191 0.20018 0.88601 0.0
C2915 C 0.41824 0.19872 0.91998 0.0
C2916 C 0.36386 0.20313 0.88291 0.0
C2917 C 0.39214 0.21802 0.88497 0.0
C2918 C 0.35162 0.1918 0.86384 0.0
C2919 C 0.35225 0.19495 0.83 0.0
C2920 C 0.37693 0.21664 0.86765 0.0
C2921 C 0.36442 0.21197 0.81615 0.0
C2922 C 0.4061 0.21036 0.86833 0.0
C2923 C 0.40502 0.21088 0.93574 0.0
N2924 N 0.37659 0.22144 0.83493 0.0
N2925 N 0.39221 0.21907 0.9181 0.0
H2926 H 0.36023 0.53087 0.95213 0.0
H2927 H 0.426 0.58239 0.87165 0.0
H2928 H 0.34588 0.58437 0.86989 0.0
H2929 H 0.40872 0.53144 0.78996 0.0
H2930 H 0.40334 0.56533 0.90384 0.0
H2931 H 0.38338 0.51385 0.92117 0.0
C2932 C 0.36145 0.53748 0.92684 0.0
C2933 C 0.35127 0.55894 0.91333 0.0
C2934 C 0.405 0.5566 0.87942 0.0
C2935 C 0.37738 0.53979 0.87835 0.0
C2936 C 0.41792 0.56617 0.86122 0.0
C2937 C 0.4192 0.55782 0.82847 0.0
C2938 C 0.3932 0.5395 0.86424 0.0
C2939 C 0.40812 0.53785 0.81539 0.0
C2940 C 0.37467 0.52801 0.90944 0.0
C2941 C 0.35347 0.5676 0.88087 0.0
N2942 N 0.39515 0.53026 0.83295 0.0
N2943 N 0.36653 0.55839 0.86455 0.0
H2944 H 0.02423 0.43003 0.9387 0.0
H2945 H 0.99803 0.56709 0.05367 0.0
H2946 H 0.99394 0.42014 0.02249 0.0
H2947 H 0.02969 0.57611 0.97197 0.0
H2948 H 0.99647 0.51294 0.04305 0.0
H2949 H 0.02548 0.48419 0.94912 0.0
C2950 C 0.01768 0.43939 0.959 0.0
C2951 C 1.00884 0.42078 0.97952 0.0
C2952 C 1.00381 0.52676 0.02753 0.0
C2953 C 1.01064 0.48224 0.99238 0.0
C2954 C 1.00478 0.55754 0.03376 0.0
C2955 C 0.01414 0.57586 0.01392 0.0
C2956 C 0.01198 0.51449 0.00081 0.0
C2957 C 0.02259 0.5626 0.98826 0.0
C2958 C 0.01849 0.47019 0.96514 0.0
C2959 C 1.00065 0.43384 0.00568 0.0
N2960 N 0.0212 0.53276 0.98226 0.0
N2961 N 1.00186 0.46373 0.01153 0.0
H2962 H 0.24006 0.6724 0.97242 0.0
H2963 H 0.28045 0.82924 0.01695 0.0
H2964 H 0.2756 0.68232 0.04688 0.0
H2965 H 0.24477 0.81904 0.94285 0.0
H2966 H 0.27915 0.77546 0.02778 0.0
H2967 H 0.24138 0.72616 0.96188 0.0
C2968 C 0.24787 0.68603 0.98714 0.0
C2969 C 0.25767 0.67293 0.01076 0.0
C2970 C 0.27176 0.78485 0.00882 0.0
C2971 C 0.25942 0.73452 -0.00158 0.0
C2972 C 0.27263 0.81552 0.00234 0.0
C2973 C 0.26281 0.8285 0.9787 0.0
C2974 C 0.26107 0.76699 0.99137 0.0
C2975 C 0.25258 0.80983 0.96119 0.0
C2976 C 0.24875 0.71671 0.98084 0.0
C2977 C 0.26784 0.69157 0.0285 0.0
N2978 N 0.25197 0.77998 0.96788 0.0
N2979 N 0.26847 0.72146 0.02193 0.0
H2980 H 0.99601 0.68268 0.19582 0.0
H2981 H 0.02859 0.82056 0.3014 0.0
H2982 H 0.03433 0.67561 0.26457 0.0
H2983 H 0.98989 0.82792 0.23363 0.0
H2984 H 0.03011 0.76675 0.28987 0.0
H2985 H 0.99389 0.73631 0.20834 0.0
C2986 C 1.00411 0.69255 0.2132 0.0
C2987 C 0.0154 0.67481 0.22909 0.0
C2988 C 0.02121 0.78009 0.27768 0.0
C2989 C 0.01269 0.73564 0.2444 0.0
C2990 C 0.02026 0.81071 0.28451 0.0
C2991 C 1.0091 0.82862 0.26849 0.0
C2992 C 1.01111 0.76748 0.25426 0.0
C2993 C 0.99857 0.81484 0.24678 0.0
C2994 C 1.0028 0.72304 0.22058 0.0
C2995 C 0.02558 0.68857 0.25147 0.0
N2996 N 0.99996 0.78512 0.23999 0.0
N2997 N 0.02388 0.71811 0.25871 0.0
H2998 H 0.27801 0.56648 0.19241 0.0
H2999 H 0.24346 0.42952 0.29701 0.0
H3000 H 0.2383 0.5743 0.25772 0.0
H3001 H 0.28172 0.42059 0.22826 0.0
H3002 H 0.24213 0.48326 0.28465 0.0
H3003 H 0.27937 0.5127 0.20454 0.0
C3004 C 0.26945 0.55677 0.20893 0.0
C3005 C 0.25801 0.5748 0.22398 0.0
C3006 C 0.25087 0.46956 0.27239 0.0
C3007 C 0.25979 0.51368 0.23884 0.0
C3008 C 0.25171 0.43898 0.27967 0.0
C3009 C 0.26274 0.42066 0.26376 0.0
C3010 C 0.26098 0.48174 0.24868 0.0
C3011 C 0.27315 0.43397 0.24142 0.0
C3012 C 0.2703 0.52616 0.21607 0.0
C3013 C 0.24721 0.56116 0.24525 0.0
N3014 N 0.27191 0.46364 0.23431 0.0
N3015 N 0.24847 0.53148 0.25232 0.0
H3016 H 0.78238 0.32956 0.02004 0.0
H3017 H 0.73767 0.17511 0.98522 0.0
H3018 H 0.74379 0.32068 0.95212 0.0
H3019 H 0.77959 0.18158 0.04443 0.0
H3020 H 0.73929 0.2288 0.97424 0.0
H3021 H 0.78188 0.2754 0.02875 0.0
C3022 C 0.77403 0.31615 0.00639 0.0
C3023 C 0.76302 0.32968 0.98551 0.0
C3024 C 0.74806 0.21857 0.98988 0.0
C3025 C 0.76219 0.26775 0.99586 0.0
C3026 C 0.74703 0.18795 -0.0035 0.0
C3027 C 0.75852 0.17388 0.0158 0.0
C3028 C 0.76055 0.23533 0.003 0.0
C3029 C 0.77051 0.19157 0.02938 0.0
C3030 C 0.77365 0.28524 0.01162 0.0
C3031 C 0.75239 0.31119 0.96868 0.0
N3032 N 0.77123 0.2214 0.02269 0.0
N3033 N 0.75215 0.28118 0.97444 0.0
H3034 H 0.03364 0.3289 0.73934 0.0
H3035 H 0.99048 0.17089 0.75908 0.0
H3036 H 0.9923 0.31579 0.79897 0.0
H3037 H 0.03 0.18516 0.69478 0.0
H3038 H 0.99143 0.22349 0.77508 0.0
H3039 H 0.0329 0.27618 0.72382 0.0
C3040 C 0.02463 0.31464 0.74986 0.0
C3041 C 0.01314 0.32645 0.77091 0.0
C3042 C 0.99974 0.21536 0.75708 0.0
C3043 C 0.01217 0.26613 0.75303 0.0
C3044 C 0.99916 0.18538 0.7478 0.0
C3045 C 1.01009 0.17394 0.72532 0.0
C3046 C 0.0112 0.23419 0.7434 0.0
C3047 C 0.02135 0.19332 0.71208 0.0
C3048 C 0.02412 0.28462 0.74069 0.0
C3049 C 1.00141 0.30736 0.78286 0.0
N3050 N 0.02157 0.22267 0.72121 0.0
N3051 N 1.00126 0.27799 0.77386 0.0
H3052 H 0.77796 0.56748 0.6934 0.0
H3053 H 0.74502 0.42824 0.79612 0.0
H3054 H 0.73747 0.57254 0.75696 0.0
H3055 H 0.78011 0.41958 0.72046 0.0
H3056 H 0.74371 0.48227 0.78534 0.0
H3057 H 0.7795 0.51341 0.7037 0.0
C3058 C 0.76927 0.55712 0.70915 0.0
C3059 C 0.7576 0.57448 0.7244 0.0
C3060 C 0.75173 0.46853 0.77117 0.0
C3061 C 0.7596 0.51302 0.73718 0.0
C3062 C 0.75258 0.4378 0.77755 0.0
C3063 C 0.7627 0.41948 0.75922 0.0
C3064 C 0.76093 0.48089 0.74604 0.0
C3065 C 0.77227 0.43293 0.73543 0.0
C3066 C 0.77022 0.52634 0.71524 0.0
C3067 C 0.74662 0.55998 0.74458 0.0
N3068 N 0.77105 0.4628 0.72933 0.0
N3069 N 0.74802 0.53016 0.75073 0.0
H3070 H 0.02503 0.0611 0.5584 0.0
H3071 H 1.00573 0.93325 0.42734 0.0
H3072 H 0.99831 0.07864 0.47112 0.0
H3073 H 0.01648 0.91493 0.52776 0.0
H3074 H 1.00542 0.98746 0.44003 0.0
H3075 H 0.0249 0.00727 0.54492 0.0
C3076 C 0.01918 0.05347 0.53645 0.0
C3077 C 0.01154 0.07382 0.51596 0.0
C3078 C 1.00781 0.97146 0.45928 0.0
C3079 C 0.01155 0.01315 0.50004 0.0
C3080 C 1.00794 0.94074 0.45203 0.0
C3081 C 0.01127 0.92005 0.4767 0.0
C3082 C 1.01116 0.98106 0.49125 0.0
C3083 C 0.01412 0.93048 0.50826 0.0
C3084 C 0.01906 0.02294 0.52875 0.0
C3085 C 1.00414 0.06326 0.48765 0.0
N3086 N 0.0141 0.96027 0.51469 0.0
N3087 N 1.00439 0.03358 0.48037 0.0
H3088 H 0.23358 0.3211 0.47203 0.0
H3089 H 0.28719 0.17981 0.51881 0.0
H3090 H 0.28438 0.32456 0.47902 0.0
H3091 H 0.2364 0.1765 0.51176 0.0
H3092 H 0.2863 0.23345 0.50713 0.0
H3093 H 0.23441 0.26811 0.48664 0.0
C3094 C 0.24495 0.31062 0.47607 0.0
C3095 C 0.25895 0.32736 0.47435 0.0
C3096 C 0.27533 0.22105 0.50842 0.0
C3097 C 0.25993 0.26672 0.49167 0.0
C3098 C 0.27581 0.19043 0.51536 0.0
C3099 C 0.26184 0.17354 0.51586 0.0
C3100 C 0.26078 0.23488 0.50193 0.0
C3101 C 0.24747 0.18858 0.51129 0.0
C3102 C 0.24539 0.28039 0.48475 0.0
C3103 C 0.2733 0.31255 0.48008 0.0
N3104 N 0.24732 0.21836 0.50421 0.0
N3105 N 0.27341 0.28309 0.48865 0.0
H3106 H 0.28301 0.9297 0.79128 0.0
H3107 H 0.23906 0.06709 0.7033 0.0
H3108 H 0.23636 0.92423 0.74958 0.0
H3109 H 0.28495 0.07385 0.7482 0.0
H3110 H 0.23834 0.01375 0.718 0.0
H3111 H 0.28399 0.98293 0.77605 0.0
C3112 C 0.27293 0.93983 0.77932 0.0
C3113 C 0.25956 0.92274 0.77198 0.0
C3114 C 0.24859 0.02693 0.72451 0.0
C3115 C 0.26075 0.98291 0.75349 0.0
C3116 C 0.24902 0.05722 0.7159 0.0
C3117 C 0.2621 0.07469 0.72431 0.0
C3118 C 0.26119 0.01437 0.74219 0.0
C3119 C 0.27473 0.06102 0.74076 0.0
C3120 C 0.27352 0.97005 0.7704 0.0
C3121 C 0.24681 0.93674 0.75626 0.0
N3122 N 0.27389 0.03172 0.74943 0.0
N3123 N 0.24779 0.96593 0.74728 0.0
H3124 H 0.73556 0.67655 0.51528 0.0
H3125 H 0.78588 0.82448 0.47778 0.0
H3126 H 0.78639 0.68037 0.52081 0.0
H3127 H 0.73514 0.8199 0.47015 0.0
H3128 H 0.78637 0.77149 0.49295 0.0
H3129 H 0.73512 0.72981 0.50125 0.0
C3130 C 0.74661 0.68868 0.51405 0.0
C3131 C 0.76103 0.67388 0.5189 0.0
C3132 C 0.77514 0.78204 0.48775 0.0
C3133 C 0.76064 0.73466 0.50215 0.0
C3134 C 0.77487 0.81224 0.47877 0.0
C3135 C 0.76045 0.82673 0.47288 0.0
C3136 C 0.76088 0.76626 0.49093 0.0
C3137 C 0.74654 0.80971 0.47455 0.0
C3138 C 0.74636 0.71903 0.50573 0.0
C3139 C 0.77499 0.69078 0.5171 0.0
N3140 N 0.74709 0.78045 0.4837 0.0
N3141 N 0.77445 0.7202 0.50855 0.0
H3142 H 0.78189 0.92805 0.29284 0.0
H3143 H 0.74065 0.06723 0.20249 0.0
H3144 H 0.73616 0.92367 0.24694 0.0
H3145 H 0.78424 0.0738 0.2562 0.0
H3146 H 0.73943 0.0136 0.21614 0.0
H3147 H 0.78319 0.98163 0.27929 0.0
C3148 C 0.77207 0.93849 0.28029 0.0
C3149 C 0.75886 0.92161 0.27134 0.0
C3150 C 0.74927 0.02681 0.22487 0.0
C3151 C 0.76043 0.98227 0.25476 0.0
C3152 C 0.74999 0.05726 0.2169 0.0
C3153 C 0.76262 0.07468 0.22791 0.0
C3154 C 0.76112 0.01406 0.24452 0.0
C3155 C 0.77445 0.06093 0.24665 0.0
C3156 C 0.77284 0.96894 0.27235 0.0
C3157 C 0.74646 0.93603 0.25487 0.0
N3158 N 0.77335 0.03148 0.25456 0.0
N3159 N 0.74762 0.96545 0.24684 0.0
H3160 H 0.49265 0.56808 0.5467 0.0
H3161 H 0.52772 0.42719 0.44941 0.0
H3162 H 0.53404 0.5723 0.48561 0.0
H3163 H 0.49101 0.41992 0.52192 0.0
H3164 H 0.52851 0.48145 0.45862 0.0
H3165 H 0.49118 0.51397 0.53675 0.0
C3166 C 0.50154 0.55752 0.53155 0.0
C3167 C 0.51348 0.57463 0.51696 0.0
C3168 C 0.52024 0.46797 0.47241 0.0
C3169 C 0.51158 0.5131 0.50459 0.0
C3170 C 0.51968 0.43707 0.46694 0.0
C3171 C 0.50933 0.41904 0.48502 0.0
C3172 C 0.51046 0.48083 0.49631 0.0
C3173 C 0.49912 0.43299 0.50731 0.0
C3174 C 0.50063 0.52672 0.52567 0.0
C3175 C 0.5247 0.55991 0.49752 0.0
N3176 N 0.50005 0.46302 0.51256 0.0
N3177 N 0.52337 0.53003 0.49159 0.0
H3178 H 0.48982 0.6803 0.70281 0.0
H3179 H 0.53253 0.81849 0.79069 0.0
H3180 H 0.53494 0.67374 0.75105 0.0
H3181 H 0.48743 0.82523 0.74244 0.0
H3182 H 0.5333 0.76501 0.77756 0.0
H3183 H 0.48914 0.73391 0.7154 0.0
C3184 C 0.49969 0.69022 0.71562 0.0
C3185 C 0.51241 0.67249 0.72606 0.0
C3186 C 0.52319 0.77814 0.77002 0.0
C3187 C 0.51153 0.73359 0.74128 0.0
C3188 C 0.52267 0.80861 0.77778 0.0
C3189 C 0.50991 0.82633 0.76759 0.0
C3190 C 0.51091 0.7654 0.7517 0.0
C3191 C 0.49746 0.81239 0.75094 0.0
C3192 C 0.49924 0.72077 0.72305 0.0
C3193 C 0.5249 0.68653 0.74249 0.0
N3194 N 0.49835 0.78279 0.74323 0.0
N3195 N 0.52407 0.7162 0.74989 0.0
H3196 H 0.53615 0.17411 0.25463 0.0
H3197 H 0.488 0.32802 0.24037 0.0
H3198 H 0.4927 0.18324 0.20073 0.0
H3199 H 0.53194 0.31922 0.29262 0.0
H3200 H 0.48923 0.27482 0.22659 0.0
H3201 H 0.53508 0.22742 0.26782 0.0
C3202 C 0.52657 0.18747 0.2449 0.0
C3203 C 0.51448 0.17421 0.22652 0.0
C3204 C 0.49851 0.28441 0.24141 0.0
C3205 C 0.51304 0.23523 0.24207 0.0
C3206 C 0.49772 0.31474 0.24965 0.0
C3207 C 0.50988 0.32804 0.26779 0.0
C3208 C 0.51148 0.26719 0.25157 0.0
C3209 C 0.52233 0.30983 0.27858 0.0
C3210 C 0.52587 0.21789 0.25277 0.0
C3211 C 0.50223 0.19257 0.21505 0.0
N3212 N 0.52284 0.28033 0.27021 0.0
N3213 N 0.50178 0.22214 0.22314 0.0
H3214 H 0.53568 0.07484 0.98878 0.0
H3215 H 0.48779 0.92127 0.00709 0.0
H3216 H 0.49272 0.06655 0.04455 0.0
H3217 H 0.52967 0.93077 0.94815 0.0
H3218 H 0.48944 0.9743 0.0214 0.0
H3219 H 0.53434 0.02151 0.97585 0.0
C3220 C 0.52617 0.06164 -0.00099 0.0
C3221 C 0.51426 0.07514 0.01774 0.0
C3222 C 0.49815 0.96492 0.00498 0.0
C3223 C 0.51252 0.01414 0.00256 0.0
C3224 C 0.49711 0.93469 -0.00352 0.0
C3225 C 0.5086 0.92163 0.97632 0.0
C3226 C 0.51069 0.98227 0.99301 0.0
C3227 C 0.52058 0.93999 0.96379 0.0
C3228 C 0.52531 0.03123 0.99127 0.0
C3229 C 0.5021 0.05701 0.02991 0.0
N3230 N 0.52135 0.96939 0.97243 0.0
N3231 N 0.50149 0.02743 0.02197 0.0
H3232 H 0.04336 0.06045 0.16745 0.0
H3233 H 0.99379 0.18938 0.07822 0.0
H3234 H 0.99625 0.04798 0.12995 0.0
H3235 H 0.04181 0.20101 0.11076 0.0
H3236 H 0.99464 0.13734 0.09659 0.0
H3237 H 0.0433 0.11157 0.14592 0.0
C3238 C 0.03306 0.06835 0.15441 0.0
C3239 C 0.01977 0.04993 0.15059 0.0
C3240 C 1.00499 0.15126 0.09981 0.0
C3241 C 0.01958 0.10852 0.12607 0.0
C3242 C 1.00449 0.18105 0.08948 0.0
C3243 C 0.01773 0.19962 0.09315 0.0
C3244 C 0.0188 0.13993 0.11418 0.0
C3245 C 0.03133 0.18748 0.1075 0.0
C3246 C 0.03301 0.09759 0.14221 0.0
C3247 C 1.00673 0.06142 0.13359 0.0
N3248 N 0.0315 0.15841 0.11761 0.0
N3249 N 1.00695 0.09001 0.12208 0.0
H3250 H 0.2318 0.18446 0.17804 0.0
H3251 H 0.27614 0.06326 0.06668 0.0
H3252 H 0.27368 0.20367 0.12199 0.0
H3253 H 0.23539 0.04259 0.1256 0.0
H3254 H 0.27459 0.11538 0.08465 0.0
H3255 H 0.23208 0.13314 0.15704 0.0
C3256 C 0.24094 0.17799 0.16097 0.0
C3257 C 0.25273 0.19836 0.1517 0.0
C3258 C 0.26602 0.09946 0.09378 0.0
C3259 C 0.25315 0.1396 0.12767 0.0
C3260 C 0.26693 0.06964 0.08363 0.0
C3261 C 0.25596 0.04848 0.09493 0.0
C3262 C 0.25411 0.10824 0.11559 0.0
C3263 C 0.24411 0.05817 0.11637 0.0
C3264 C 0.24114 0.14862 0.14912 0.0
C3265 C 0.2644 0.18864 0.12986 0.0
N3266 N 0.24354 0.08733 0.12614 0.0
N3267 N 0.26432 0.15994 0.1186 0.0
H3268 H 0.02737 0.81379 0.92535 0.0
H3269 H 0.98429 0.9364 0.81351 0.0
H3270 H 0.98746 0.7941 0.86379 0.0
H3271 H 0.02619 0.95493 0.86962 0.0
H3272 H 0.98451 0.8849 0.83385 0.0
H3273 H 0.02635 0.8661 0.90748 0.0
C3274 C 0.01847 0.82042 0.90782 0.0
C3275 C 1.00755 0.79949 0.8958 0.0
C3276 C 0.9936 0.90024 0.84193 0.0
C3277 C 1.00632 0.85942 0.87524 0.0
C3278 C 0.99344 0.92973 0.83044 0.0
C3279 C 1.00522 0.95003 0.83996 0.0
C3280 C 1.00557 0.89093 0.86332 0.0
C3281 C 0.01691 0.93999 0.86158 0.0
C3282 C 0.01786 0.85034 0.89773 0.0
C3283 C 0.99611 0.80948 0.87364 0.0
N3284 N 0.01678 0.91115 0.87257 0.0
N3285 N 0.99583 0.83869 0.86397 0.0
H3286 H 0.74257 0.93854 0.91741 0.0
H3287 H 0.7913 0.81059 0.82389 0.0
H3288 H 0.78867 0.95261 0.87553 0.0
H3289 H 0.74507 0.7966 0.86523 0.0
H3290 H 0.79086 0.86219 0.84396 0.0
H3291 H 0.7435 0.88626 0.89953 0.0
C3292 C 0.75284 0.93071 0.9042 0.0
C3293 C 0.76554 0.95004 0.89779 0.0
C3294 C 0.78085 0.8478 0.84884 0.0
C3295 C 0.76669 0.89007 0.8773 0.0
C3296 C 0.78112 0.81825 0.83749 0.0
C3297 C 0.76821 0.79919 0.8429 0.0
C3298 C 0.76758 0.85845 0.86583 0.0
C3299 C 0.75527 0.81051 0.86043 0.0
C3300 C 0.75339 0.90078 0.89412 0.0
C3301 C 0.77863 0.9385 0.88099 0.0
N3302 N 0.75528 0.83939 0.87122 0.0
N3303 N 0.77884 0.9093 0.87125 0.0
H3304 H 0.04199 0.56469 0.67751 0.0
H3305 H 0.9965 0.68501 0.56728 0.0
H3306 H 1.00047 0.54415 0.62095 0.0
H3307 H 0.03707 0.70657 0.62625 0.0
H3308 H 0.99854 0.63279 0.5847 0.0
H3309 H 0.0412 0.61609 0.65688 0.0
C3310 C 0.03284 0.57088 0.66036 0.0
C3311 C 0.02129 0.55011 0.65086 0.0
C3312 C 1.00696 0.64892 0.59397 0.0
C3313 C 0.02027 0.60897 0.6273 0.0
C3314 C 1.00577 0.67879 0.58415 0.0
C3315 C 0.01656 0.70019 0.59559 0.0
C3316 C 0.01898 0.64038 0.61561 0.0
C3317 C 0.0285 0.69077 0.6169 0.0
C3318 C 0.03235 0.60029 0.64873 0.0
C3319 C 1.00958 0.55948 0.62896 0.0
N3320 N 0.02934 0.66155 0.62636 0.0
N3321 N 1.00936 0.58825 0.61794 0.0
H3322 H 0.27558 0.70371 0.62748 0.0
H3323 H 0.22914 0.54757 0.61318 0.0
H3324 H 0.22932 0.68884 0.6684 0.0
H3325 H 0.277 0.56077 0.58032 0.0
H3326 H 0.22846 0.59987 0.63162 0.0
H3327 H 0.2756 0.65221 0.60696 0.0
C3328 C 0.26538 0.68967 0.632 0.0
C3329 C 0.25244 0.70058 0.64975 0.0
C3330 C 0.23911 0.5913 0.62038 0.0
C3331 C 0.25245 0.64148 0.62664 0.0
C3332 C 0.2395 0.56146 0.60991 0.0
C3333 C 0.25315 0.54978 0.59535 0.0
C3334 C 0.25241 0.60966 0.61593 0.0
C3335 C 0.26626 0.56874 0.59171 0.0
C3336 C 0.26542 0.66023 0.62037 0.0
C3337 C 0.23953 0.6814 0.65476 0.0
N3338 N 0.26554 0.59774 0.60182 0.0
N3339 N 0.2399 0.65275 0.64341 0.0
H3340 H 0.02937 0.31031 0.41917 0.0
H3341 H 0.98151 0.43829 0.32412 0.0
H3342 H 0.98318 0.29664 0.3776 0.0
H3343 H 0.02718 0.45232 0.36794 0.0
H3344 H 0.9816 0.38683 0.34459 0.0
H3345 H 0.02857 0.36254 0.40125 0.0
C3346 C 0.01909 0.31823 0.40603 0.0
C3347 C 1.00634 0.299 0.39974 0.0
C3348 C 0.99156 0.4012 0.34994 0.0
C3349 C 1.00534 0.35896 0.37919 0.0
C3350 C 0.99149 0.43068 0.33836 0.0
C3351 C 1.00438 0.44969 0.34429 0.0
C3352 C 1.00459 0.39058 0.36766 0.0
C3353 C 0.01702 0.43845 0.3627 0.0
C3354 C 0.01862 0.34814 0.39594 0.0
C3355 C 0.99327 0.31066 0.38299 0.0
N3356 N 0.01682 0.40963 0.37364 0.0
N3357 N 0.99313 0.33985 0.37321 0.0
H3358 H 0.79163 0.30368 0.33701 0.0
H3359 H 0.74056 0.44443 0.39788 0.0
H3360 H 0.74122 0.3008 0.35146 0.0
H3361 H 0.79147 0.44377 0.39609 0.0
H3362 H 0.74055 0.39249 0.37869 0.0
H3363 H 0.79183 0.35528 0.35731 0.0
C3364 C 0.78061 0.3138 0.34466 0.0
C3365 C 0.76638 0.29784 0.34244 0.0
C3366 C 0.75173 0.40371 0.38243 0.0
C3367 C 0.76651 0.35714 0.36544 0.0
C3368 C 0.75175 0.43346 0.39322 0.0
C3369 C 0.76605 0.44854 0.3986 0.0
C3370 C 0.76611 0.38888 0.37674 0.0
C3371 C 0.78016 0.43305 0.39232 0.0
C3372 C 0.78073 0.34332 0.3562 0.0
C3373 C 0.75247 0.31219 0.35271 0.0
N3374 N 0.77984 0.40411 0.38171 0.0
N3375 N 0.75288 0.34103 0.36359 0.0
H3376 H 0.49831 0.04375 0.62048 0.0
H3377 H 0.54145 0.20399 0.61888 0.0
H3378 H 0.5408 0.06268 0.67457 0.0
H3379 H 0.49636 0.18676 0.57393 0.0
H3380 H 0.54243 0.15146 0.63675 0.0
H3381 H 0.49868 0.09506 0.59933 0.0
C3382 C 0.50776 0.05864 0.62777 0.0
C3383 C 0.5195 0.04895 0.64943 0.0
C3384 C 0.53233 0.1592 0.62295 0.0
C3385 C 0.5199 0.10783 0.62564 0.0
C3386 C 0.53177 0.18916 0.61281 0.0
C3387 C 0.51875 0.19979 0.5952 0.0
C3388 C 0.51988 0.13969 0.61499 0.0
C3389 C 0.50652 0.17963 0.5879 0.0
C3390 C 0.50795 0.08797 0.61577 0.0
C3391 C 0.53152 0.06917 0.65788 0.0
N3392 N 0.50742 0.15057 0.59773 0.0
N3393 N 0.53136 0.0977 0.64614 0.0
H3394 H 0.77418 0.04373 0.61954 0.0
H3395 H 0.73247 0.20536 0.62265 0.0
H3396 H 0.73119 0.06421 0.56776 0.0
H3397 H 0.77714 0.18612 0.66858 0.0
H3398 H 0.73107 0.15308 0.60445 0.0
H3399 H 0.77452 0.09501 0.64079 0.0
C3400 C 0.76477 0.05897 0.61278 0.0
C3401 C 0.75266 0.04971 0.59179 0.0
C3402 C 0.74117 0.1603 0.61854 0.0
C3403 C 0.75306 0.10852 0.61569 0.0
C3404 C 0.74198 0.19014 0.62889 0.0
C3405 C 0.75498 0.20013 0.64697 0.0
C3406 C 0.75339 0.14027 0.62659 0.0
C3407 C 0.76697 0.17947 0.65438 0.0
C3408 C 0.76498 0.08826 0.62485 0.0
C3409 C 0.74072 0.07035 0.58397 0.0
N3410 N 0.76587 0.15053 0.64423 0.0
N3411 N 0.74128 0.09883 0.59576 0.0
H3412 H 0.4849 0.93554 0.3103 0.0
H3413 H 0.52721 0.81505 0.42612 0.0
H3414 H 0.52529 0.9562 0.37016 0.0
H3415 H 0.48804 0.79412 0.36305 0.0
H3416 H 0.52591 0.86736 0.40816 0.0
H3417 H 0.48507 0.88439 0.33159 0.0
C3418 C 0.49371 0.92943 0.32822 0.0
C3419 C 0.5051 0.95023 0.33845 0.0
C3420 C 0.51764 0.85133 0.39813 0.0
C3421 C 0.5054 0.89146 0.36291 0.0
C3422 C 0.51841 0.82141 0.40827 0.0
C3423 C 0.5078 0.80012 0.39581 0.0
C3424 C 0.50624 0.86004 0.37514 0.0
C3425 C 0.49646 0.80977 0.37324 0.0
C3426 C 0.49383 0.90012 0.34028 0.0
C3427 C 0.51632 0.94088 0.36149 0.0
N3428 N 0.49603 0.83897 0.36351 0.0
N3429 N 0.51619 0.91218 0.37292 0.0
H3430 H 0.28742 0.95396 0.3703 0.0
H3431 H 0.24513 0.79281 0.36915 0.0
H3432 H 0.24326 0.93567 0.41867 0.0
H3433 H 0.28817 0.81214 0.31712 0.0
H3434 H 0.24495 0.84437 0.38988 0.0
H3435 H 0.28841 0.90163 0.35212 0.0
C3436 C 0.27793 0.93894 0.37709 0.0
C3437 C 0.2652 0.94926 0.39587 0.0
C3438 C 0.25445 0.83733 0.37396 0.0
C3439 C 0.26632 0.88922 0.37545 0.0
C3440 C 0.25456 0.80787 0.36217 0.0
C3441 C 0.26667 0.79815 0.34136 0.0
C3442 C 0.26645 0.85733 0.36463 0.0
C3443 C 0.27865 0.8186 0.33326 0.0
C3444 C 0.27851 0.90905 0.36673 0.0
C3445 C 0.25323 0.92879 0.40393 0.0
N3446 N 0.27818 0.84722 0.34474 0.0
N3447 N 0.2541 0.89978 0.39375 0.0
H3448 H 0.527 0.67386 0.0433 0.0
H3449 H 0.52657 0.57057 0.19836 0.0
H3450 H 0.51164 0.70908 0.13593 0.0
H3451 H 0.50971 0.53677 0.10628 0.0
H3452 H 0.52633 0.62162 0.17587 0.0
H3453 H 0.52588 0.6229 0.06589 0.0
C3454 C 0.52355 0.67078 0.06851 0.0
C3455 C 0.51952 0.69547 0.088 0.0
C3456 C 0.52271 0.60298 0.16065 0.0
C3457 C 0.51842 0.63774 0.11384 0.0
C3458 C 0.52298 0.57396 0.17329 0.0
C3459 C 0.51827 0.54965 0.15392 0.0
C3460 C 0.51816 0.60746 0.12821 0.0
C3461 C 0.51345 0.55507 0.12183 0.0
C3462 C 0.52279 0.64183 0.08121 0.0
C3463 C 0.51485 0.69047 0.12029 0.0
N3464 N 0.51372 0.58349 0.10973 0.0
N3465 N 0.51464 0.66207 0.13244 0.0
H3466 H 0.77228 0.54253 0.12224 0.0
H3467 H 0.7316 0.70531 0.11705 0.0
H3468 H 0.73142 0.56357 0.06382 0.0
H3469 H 0.77381 0.68519 0.17159 0.0
H3470 H 0.73071 0.65294 0.09879 0.0
H3471 H 0.77216 0.59405 0.14306 0.0
C3472 C 0.76323 0.55791 0.11396 0.0
C3473 C 0.75182 0.5487 0.09132 0.0
C3474 C 0.74015 0.65998 0.11481 0.0
C3475 C 0.75175 0.60781 0.11461 0.0
C3476 C 0.74065 0.68986 0.12519 0.0
C3477 C 0.75283 0.69963 0.14567 0.0
C3478 C 0.75181 0.63967 0.12531 0.0
C3479 C 0.7643 0.67871 0.15546 0.0
C3480 C 0.76318 0.58735 0.12576 0.0
C3481 C 0.74036 0.5696 0.08145 0.0
N3482 N 0.76348 0.64973 0.14528 0.0
N3483 N 0.74067 0.59818 0.09299 0.0
H3484 H 0.48323 0.4546 0.86455 0.0
H3485 H 0.52804 0.29619 0.87692 0.0
H3486 H 0.5302 0.43929 0.82744 0.0
H3487 H 0.48246 0.31376 0.91982 0.0
H3488 H 0.52858 0.34777 0.85632 0.0
H3489 H 0.48242 0.40256 0.88347 0.0
C3490 C 0.49338 0.4403 0.86042 0.0
C3491 C 0.50682 0.45137 0.84449 0.0
C3492 C 0.51846 0.34032 0.87021 0.0
C3493 C 0.50593 0.3916 0.86581 0.0
C3494 C 0.51813 0.31084 0.88192 0.0
C3495 C 0.50519 0.3006 0.90014 0.0
C3496 C 0.5058 0.3598 0.87691 0.0
C3497 C 0.49265 0.32059 0.90577 0.0
C3498 C 0.49292 0.41056 0.8712 0.0
C3499 C 0.51964 0.4318 0.83984 0.0
N3500 N 0.4933 0.34921 0.89433 0.0
N3501 N 0.51886 0.40288 0.85035 0.0
H3502 H 0.24434 0.31301 0.81844 0.0
H3503 H 0.28994 0.43491 0.92668 0.0
H3504 H 0.28565 0.29277 0.87576 0.0
H3505 H 0.24736 0.45419 0.87301 0.0
H3506 H 0.2893 0.38345 0.90615 0.0
H3507 H 0.24594 0.36531 0.83613 0.0
C3508 C 0.25366 0.31951 0.83503 0.0
C3509 C 0.2648 0.29843 0.84589 0.0
C3510 C 0.28015 0.39896 0.89864 0.0
C3511 C 0.26672 0.35837 0.86622 0.0
C3512 C 0.28056 0.42842 0.91023 0.0
C3513 C 0.26869 0.44889 0.90151 0.0
C3514 C 0.26784 0.38987 0.87799 0.0
C3515 C 0.25671 0.43911 0.88045 0.0
C3516 C 0.25461 0.34943 0.845 0.0
C3517 C 0.27681 0.30827 0.86684 0.0
N3518 N 0.2566 0.4103 0.86942 0.0
N3519 N 0.27741 0.33749 0.87643 0.0
loop_
_geom_bond_atom_site_label_1
_geom_bond_atom_site_label_2
_geom_bond_distance
_geom_bond_site_symmetry_2
_ccdc_geom_bond_type
C0 C1 1.387 . S
C0 C5 1.380 . S
C0 C16 1.494 . S
C1 C0 1.387 . S
C1 C2 1.386 . S
C1 H32 0.930 . S
C2 C1 1.386 . S
C2 C3 1.397 . S
C3 C2 1.397 . S
C3 C4 1.393 . S
C3 H33 0.930 . S
C4 C3 1.393 . S
C4 C5 1.395 . S
C5 C0 1.380 . S
C5 C4 1.395 . S
C5 H34 0.930 . S
O6 Tb7 2.295 1_554 S
O6 C19 1.242 . S
Tb7 O6 2.295 1_556 S
Tb7 O8 2.312 . S
Tb7 O11 2.438 1_556 S
Tb7 O13 2.472 1_556 S
Tb7 O15 2.308 . S
Tb7 C16 2.821 1_556 S
O8 Tb7 2.312 . S
O8 C28 1.264 1_455 S
O9 Eu10 2.304 1_455 S
O9 C19 1.254 . S
Eu10 O9 2.304 1_655 S
Eu10 C12 2.821 . S
Eu10 O14 2.295 1_655 S
Eu10 O21 2.312 1_655 S
Eu10 O30 2.438 . S
Eu10 O31 2.472 . S
O11 Tb7 2.438 1_554 S
O11 C16 1.263 . S
C12 Eu10 2.821 . S
C12 C22 1.494 . S
C12 O30 1.263 . S
C12 O31 1.264 . S
O13 Tb7 2.472 1_554 S
O13 C16 1.264 . S
O14 Eu10 2.295 1_455 S
O14 C20 1.242 1_554 S
O15 Tb7 2.308 . S
O15 C20 1.243 . S
C16 C0 1.494 . S
C16 Tb7 2.821 1_554 S
C16 O11 1.263 . S
C16 O13 1.264 . S
C17 O18 1.260 . S
C17 O21 1.264 . S
O18 C17 1.260 . S
C19 O6 1.242 . S
C19 O9 1.254 . S
C20 O14 1.242 1_556 S
C20 O15 1.243 . S
O21 Eu10 2.312 1_455 S
O21 C17 1.264 . S
C22 C12 1.494 . S
C22 C24 1.380 . S
C22 C25 1.387 . S
C23 C24 1.395 . S
C23 C27 1.395 . S
C24 C22 1.380 . S
C24 C23 1.395 . S
C24 H35 0.930 . S
C25 C22 1.387 . S
C25 C26 1.386 . S
C25 H36 0.930 . S
C26 C25 1.386 . S
C26 C27 1.409 . S
C27 C23 1.395 . S
C27 C26 1.409 . S
C27 H37 0.917 1_554 S
C28 O8 1.264 1_655 S
C28 O29 1.260 . S
O29 C28 1.260 . S
O30 Eu10 2.438 . S
O30 C12 1.263 . S
O31 Eu10 2.472 . S
O31 C12 1.264 . S
H32 C1 0.930 . S
H33 C3 0.930 . S
H34 C5 0.930 . S
H35 C24 0.930 . S
H36 C25 0.930 . S
H37 C27 0.917 1_556 S
C38 C39 1.387 . S
C38 C43 1.380 . S
C38 C54 1.494 . S
C39 C38 1.387 . S
C39 C40 1.386 . S
C39 H70 0.930 . S
C40 C39 1.386 . S
C40 C41 1.397 . S
C41 C40 1.397 . S
C41 C42 1.393 . S
C41 H71 0.930 . S
C42 C41 1.393 . S
C42 C43 1.395 . S
C43 C38 1.380 . S
C43 C42 1.395 . S
C43 H72 0.930 . S
O44 Tb45 2.295 1_554 S
O44 C57 1.242 . S
Tb45 O44 2.295 1_556 S
Tb45 O46 2.312 . S
Tb45 O49 2.438 1_556 S
Tb45 O51 2.472 1_556 S
Tb45 O53 2.308 . S
Tb45 C54 2.821 1_556 S
O46 Tb45 2.312 . S
O46 C66 1.264 . S
O47 Eu48 2.308 . S
O47 C57 1.243 . S
Eu48 O47 2.308 . S
Eu48 C50 2.821 . S
Eu48 O52 2.295 . S
Eu48 O59 2.312 1_565 S
Eu48 O68 2.438 . S
Eu48 O69 2.472 . S
O49 Tb45 2.438 1_554 S
O49 C54 1.263 . S
C50 Eu48 2.821 . S
C50 C60 1.494 . S
C50 O68 1.263 . S
C50 O69 1.264 . S
O51 Tb45 2.472 1_554 S
O51 C54 1.264 . S
O52 Eu48 2.295 . S
O52 C58 1.242 1_554 S
O53 Tb45 2.308 . S
O53 C58 1.243 . S
C54 C38 1.494 . S
C54 Tb45 2.821 1_554 S
C54 O49 1.263 . S
C54 O51 1.264 . S
C55 O56 1.260 . S
C55 O59 1.264 . S
O56 C55 1.260 . S
C57 O44 1.242 . S
C57 O47 1.243 . S
C58 O52 1.242 1_556 S
C58 O53 1.243 . S
O59 Eu48 2.312 1_545 S
O59 C55 1.264 . S
C60 C50 1.494 . S
C60 C62 1.380 . S
C60 C63 1.387 . S
C61 C62 1.395 . S
C61 C65 1.395 . S
C62 C60 1.380 . S
C62 C61 1.395 . S
C62 H73 0.930 . S
C63 C60 1.387 . S
C63 C64 1.386 . S
C63 H74 0.930 1_565 S
C64 C63 1.386 . S
C64 C65 1.409 . S
C65 C61 1.395 . S
C65 C64 1.409 . S
C65 H75 0.917 1_554 S
C66 O46 1.264 . S
C66 O67 1.260 . S
O67 C66 1.260 . S
O68 Eu48 2.438 . S
O68 C50 1.263 . S
O69 Eu48 2.472 . S
O69 C50 1.264 . S
H70 C39 0.930 . S
H71 C41 0.930 . S
H72 C43 0.930 . S
H73 C62 0.930 . S
H74 C63 0.930 1_545 S
H75 C65 0.917 1_556 S
C76 C77 1.387 . S
C76 C81 1.380 . S
C76 C92 1.494 . S
C77 C76 1.387 . S
C77 C78 1.386 . S
C77 H108 0.930 . S
C78 C77 1.386 . S
C78 C79 1.397 . S
C79 C78 1.397 . S
C79 C80 1.393 . S
C79 H109 0.930 . S
C80 C79 1.393 . S
C80 C81 1.395 . S
C81 C76 1.380 . S
C81 C80 1.395 . S
C81 H110 0.930 . S
O82 Tb83 2.295 . S
O82 C95 1.242 . S
Tb83 O82 2.295 . S
Tb83 O84 2.312 . S
Tb83 O87 2.438 . S
Tb83 O89 2.472 . S
Tb83 O91 2.308 . S
Tb83 C92 2.821 . S
O84 Tb83 2.312 . S
O84 C104 1.264 1_455 S
O85 Eu86 2.304 1_455 S
O85 C95 1.254 . S
Eu86 O85 2.304 1_655 S
Eu86 C88 2.821 . S
Eu86 O90 2.295 1_655 S
Eu86 O97 2.312 1_665 S
Eu86 O106 2.438 . S
Eu86 O107 2.472 . S
O87 Tb83 2.438 . S
O87 C92 1.263 . S
C88 Eu86 2.821 . S
C88 C98 1.494 . S
C88 O106 1.263 . S
C88 O107 1.264 . S
O89 Tb83 2.472 . S
O89 C92 1.264 . S
O90 Eu86 2.295 1_455 S
O90 C96 1.242 . S
O91 Tb83 2.308 . S
O91 C96 1.243 . S
C92 C76 1.494 . S
C92 Tb83 2.821 . S
C92 O87 1.263 . S
C92 O89 1.264 . S
C93 O94 1.260 . S
C93 O97 1.264 . S
O94 C93 1.260 . S
C95 O82 1.242 . S
C95 O85 1.254 . S
C96 O90 1.242 . S
C96 O91 1.243 . S
O97 Eu86 2.312 1_445 S
O97 C93 1.264 . S
C98 C88 1.494 . S
C98 C100 1.380 . S
C98 C101 1.387 . S
C99 C100 1.395 . S
C99 C103 1.393 . S
C100 C98 1.380 . S
C100 C99 1.395 . S
C100 H111 0.930 . S
C101 C98 1.387 . S
C101 C102 1.386 . S
C101 H112 0.930 1_565 S
C102 C101 1.386 . S
C102 C103 1.397 . S
C103 C99 1.393 . S
C103 C102 1.397 . S
C103 H113 0.930 . S
C104 O84 1.264 1_655 S
C104 O105 1.260 . S
O105 C104 1.260 . S
O106 Eu86 2.438 . S
O106 C88 1.263 . S
O107 Eu86 2.472 . S
O107 C88 1.264 . S
H108 C77 0.930 . S
H109 C79 0.930 . S
H110 C81 0.930 . S
H111 C100 0.930 . S
H112 C101 0.930 1_545 S
H113 C103 0.930 . S
C114 C115 1.387 . S
C114 C119 1.380 . S
C114 C130 1.494 . S
C115 C114 1.387 . S
C115 C116 1.386 . S
C115 H146 0.930 . S
C116 C115 1.386 . S
C116 C117 1.397 . S
C117 C116 1.397 . S
C117 C118 1.393 . S
C117 H147 0.930 . S
C118 C117 1.393 . S
C118 C119 1.395 . S
C119 C114 1.380 . S
C119 C118 1.395 . S
C119 H148 0.930 . S
O120 Tb121 2.295 . S
O120 C133 1.242 . S
Tb121 O120 2.295 . S
Tb121 O122 2.312 . S
Tb121 O125 2.438 . S
Tb121 O127 2.472 . S
Tb121 O129 2.308 . S
Tb121 C130 2.821 . S
O122 Tb121 2.312 . S
O122 C142 1.264 . S
O123 Eu124 2.308 . S
O123 C133 1.243 . S
Eu124 O123 2.308 . S
Eu124 C126 2.821 . S
Eu124 O128 2.295 . S
Eu124 O135 2.312 . S
Eu124 O144 2.438 . S
Eu124 O145 2.472 . S
O125 Tb121 2.438 . S
O125 C130 1.263 . S
C126 Eu124 2.821 . S
C126 C136 1.494 . S
C126 O144 1.263 . S
C126 O145 1.264 . S
O127 Tb121 2.472 . S
O127 C130 1.264 . S
O128 Eu124 2.295 . S
O128 C134 1.242 . S
O129 Tb121 2.308 . S
O129 C134 1.243 . S
C130 C114 1.494 . S
C130 Tb121 2.821 . S
C130 O125 1.263 . S
C130 O127 1.264 . S
C131 O132 1.260 . S
C131 O135 1.264 . S
O132 C131 1.260 . S
C133 O120 1.242 . S
C133 O123 1.243 . S
C134 O128 1.242 . S
C134 O129 1.243 . S
O135 Eu124 2.312 . S
O135 C131 1.264 . S
C136 C126 1.494 . S
C136 C138 1.380 . S
C136 C139 1.387 . S
C137 C138 1.395 . S
C137 C141 1.393 . S
C138 C136 1.380 . S
C138 C137 1.395 . S
C138 H149 0.930 . S
C139 C136 1.387 . S
C139 C140 1.386 . S
C139 H150 0.930 . S
C140 C139 1.386 . S
C140 C141 1.397 . S
C141 C137 1.393 . S
C141 C140 1.397 . S
C141 H151 0.930 . S
C142 O122 1.264 . S
C142 O143 1.260 . S
O143 C142 1.260 . S
O144 Eu124 2.438 . S
O144 C126 1.263 . S
O145 Eu124 2.472 . S
O145 C126 1.264 . S
H146 C115 0.930 . S
H147 C117 0.930 . S
H148 C119 0.930 . S
H149 C138 0.930 . S
H150 C139 0.930 . S
H151 C141 0.930 . S
C152 C153 1.387 . S
C152 C157 1.380 . S
C152 C168 1.494 . S
C153 C152 1.387 . S
C153 C154 1.386 . S
C153 H184 0.930 . S
C154 C153 1.386 . S
C154 C155 1.409 . S
C155 C154 1.409 . S
C155 C156 1.395 . S
C155 H185 0.917 1_556 S
C156 C155 1.395 . S
C156 C157 1.395 . S
C157 C152 1.380 . S
C157 C156 1.395 . S
C157 H186 0.930 . S
O158 Tb159 2.295 1_655 S
O158 C171 1.242 1_556 S
Tb159 O158 2.295 1_455 S
Tb159 O160 2.312 1_455 S
Tb159 O163 2.438 . S
Tb159 O165 2.472 . S
Tb159 O167 2.304 1_455 S
Tb159 C168 2.821 . S
O160 Tb159 2.312 1_655 S
O160 C180 1.264 . S
O161 Eu162 2.308 . S
O161 C171 1.243 . S
Eu162 O161 2.308 . S
Eu162 C164 2.821 1_554 S
Eu162 O166 2.295 1_554 S
Eu162 O173 2.312 . S
Eu162 O182 2.438 1_554 S
Eu162 O183 2.472 1_554 S
O163 Tb159 2.438 . S
O163 C168 1.263 . S
C164 Eu162 2.821 1_556 S
C164 C174 1.494 . S
C164 O182 1.263 . S
C164 O183 1.264 . S
O165 Tb159 2.472 . S
O165 C168 1.264 . S
O166 Eu162 2.295 1_556 S
O166 C172 1.242 . S
O167 Tb159 2.304 1_655 S
O167 C172 1.254 . S
C168 C152 1.494 . S
C168 Tb159 2.821 . S
C168 O163 1.263 . S
C168 O165 1.264 . S
C169 O170 1.260 . S
C169 O173 1.264 1_455 S
O170 C169 1.260 . S
C171 O158 1.242 1_554 S
C171 O161 1.243 . S
C172 O166 1.242 . S
C172 O167 1.254 . S
O173 Eu162 2.312 . S
O173 C169 1.264 1_655 S
C174 C164 1.494 . S
C174 C176 1.380 . S
C174 C177 1.387 . S
C175 C176 1.395 . S
C175 C179 1.393 . S
C176 C174 1.380 . S
C176 C175 1.395 . S
C176 H187 0.930 . S
C177 C174 1.387 . S
C177 C178 1.386 . S
C177 H188 0.930 . S
C178 C177 1.386 . S
C178 C179 1.397 . S
C179 C175 1.393 . S
C179 C178 1.397 . S
C179 H189 0.930 . S
C180 O160 1.264 . S
C180 O181 1.260 . S
O181 C180 1.260 . S
O182 Eu162 2.438 1_556 S
O182 C164 1.263 . S
O183 Eu162 2.472 1_556 S
O183 C164 1.264 . S
H184 C153 0.930 . S
H185 C155 0.917 1_554 S
H186 C157 0.930 . S
H187 C176 0.930 . S
H188 C177 0.930 . S
H189 C179 0.930 . S
C190 C191 1.387 . S
C190 C195 1.380 . S
C190 C206 1.494 . S
C191 C190 1.387 . S
C191 C192 1.386 . S
C191 H222 0.930 1_545 S
C192 C191 1.386 . S
C192 C193 1.409 . S
C193 C192 1.409 . S
C193 C194 1.395 . S
C193 H223 0.917 1_556 S
C194 C193 1.395 . S
C194 C195 1.395 . S
C195 C190 1.380 . S
C195 C194 1.395 . S
C195 H224 0.930 . S
O196 Tb197 2.295 . S
O196 C209 1.242 1_556 S
Tb197 O196 2.295 . S
Tb197 O198 2.312 1_545 S
Tb197 O201 2.438 . S
Tb197 O203 2.472 . S
Tb197 O205 2.308 . S
Tb197 C206 2.821 . S
O198 Tb197 2.312 1_565 S
O198 C218 1.264 . S
O199 Eu200 2.308 . S
O199 C209 1.243 . S
Eu200 O199 2.308 . S
Eu200 C202 2.821 1_554 S
Eu200 O204 2.295 1_554 S
Eu200 O211 2.312 . S
Eu200 O220 2.438 1_554 S
Eu200 O221 2.472 1_554 S
O201 Tb197 2.438 . S
O201 C206 1.263 . S
C202 Eu200 2.821 1_556 S
C202 C212 1.494 . S
C202 O220 1.263 . S
C202 O221 1.264 . S
O203 Tb197 2.472 . S
O203 C206 1.264 . S
O204 Eu200 2.295 1_556 S
O204 C210 1.242 . S
O205 Tb197 2.308 . S
O205 C210 1.243 . S
C206 C190 1.494 . S
C206 Tb197 2.821 . S
C206 O201 1.263 . S
C206 O203 1.264 . S
C207 O208 1.260 . S
C207 O211 1.264 . S
O208 C207 1.260 . S
C209 O196 1.242 1_554 S
C209 O199 1.243 . S
C210 O204 1.242 . S
C210 O205 1.243 . S
O211 Eu200 2.312 . S
O211 C207 1.264 . S
C212 C202 1.494 . S
C212 C214 1.380 . S
C212 C215 1.387 . S
C213 C214 1.395 . S
C213 C217 1.393 . S
C214 C212 1.380 . S
C214 C213 1.395 . S
C214 H225 0.930 . S
C215 C212 1.387 . S
C215 C216 1.386 . S
C215 H226 0.930 . S
C216 C215 1.386 . S
C216 C217 1.397 . S
C217 C213 1.393 . S
C217 C216 1.397 . S
C217 H227 0.930 . S
C218 O198 1.264 . S
C218 O219 1.260 . S
O219 C218 1.260 . S
O220 Eu200 2.438 1_556 S
O220 C202 1.263 . S
O221 Eu200 2.472 1_556 S
O221 C202 1.264 . S
H222 C191 0.930 1_565 S
H223 C193 0.917 1_554 S
H224 C195 0.930 . S
H225 C214 0.930 . S
H226 C215 0.930 . S
H227 C217 0.930 . S
C228 C229 1.387 . S
C228 C233 1.380 . S
C228 C244 1.494 . S
C229 C228 1.387 . S
C229 C230 1.386 . S
C229 H260 0.930 1_545 S
C230 C229 1.386 . S
C230 C231 1.397 . S
C231 C230 1.397 . S
C231 C232 1.393 . S
C231 H261 0.930 . S
C232 C231 1.393 . S
C232 C233 1.395 . S
C233 C228 1.380 . S
C233 C232 1.395 . S
C233 H262 0.930 . S
O234 Tb235 2.295 1_655 S
O234 C247 1.242 . S
Tb235 O234 2.295 1_455 S
Tb235 O236 2.312 1_445 S
Tb235 O239 2.438 . S
Tb235 O241 2.472 . S
Tb235 O243 2.304 1_455 S
Tb235 C244 2.821 . S
O236 Tb235 2.312 1_665 S
O236 C256 1.264 . S
O237 Eu238 2.308 . S
O237 C247 1.243 . S
Eu238 O237 2.308 . S
Eu238 C240 2.821 . S
Eu238 O242 2.295 . S
Eu238 O249 2.312 . S
Eu238 O258 2.438 . S
Eu238 O259 2.472 . S
O239 Tb235 2.438 . S
O239 C244 1.263 . S
C240 Eu238 2.821 . S
C240 C250 1.494 . S
C240 O258 1.263 . S
C240 O259 1.264 . S
O241 Tb235 2.472 . S
O241 C244 1.264 . S
O242 Eu238 2.295 . S
O242 C248 1.242 . S
O243 Tb235 2.304 1_655 S
O243 C248 1.254 . S
C244 C228 1.494 . S
C244 Tb235 2.821 . S
C244 O239 1.263 . S
C244 O241 1.264 . S
C245 O246 1.260 . S
C245 O249 1.264 1_455 S
O246 C245 1.260 . S
C247 O234 1.242 . S
C247 O237 1.243 . S
C248 O242 1.242 . S
C248 O243 1.254 . S
O249 Eu238 2.312 . S
O249 C245 1.264 1_655 S
C250 C240 1.494 . S
C250 C252 1.380 . S
C250 C253 1.387 . S
C251 C252 1.395 . S
C251 C255 1.393 . S
C252 C250 1.380 . S
C252 C251 1.395 . S
C252 H263 0.930 . S
C253 C250 1.387 . S
C253 C254 1.386 . S
C253 H264 0.930 . S
C254 C253 1.386 . S
C254 C255 1.397 . S
C255 C251 1.393 . S
C255 C254 1.397 . S
C255 H265 0.930 . S
C256 O236 1.264 . S
C256 O257 1.260 . S
O257 C256 1.260 . S
O258 Eu238 2.438 . S
O258 C240 1.263 . S
O259 Eu238 2.472 . S
O259 C240 1.264 . S
H260 C229 0.930 1_565 S
H261 C231 0.930 . S
H262 C233 0.930 . S
H263 C252 0.930 . S
H264 C253 0.930 . S
H265 C255 0.930 . S
C266 C267 1.387 . S
C266 C271 1.380 . S
C266 C282 1.494 . S
C267 C266 1.387 . S
C267 C268 1.386 . S
C267 H298 0.930 . S
C268 C267 1.386 . S
C268 C269 1.397 . S
C269 C268 1.397 . S
C269 C270 1.393 . S
C269 H299 0.930 . S
C270 C269 1.393 . S
C270 C271 1.395 . S
C271 C266 1.380 . S
C271 C270 1.395 . S
C271 H300 0.930 . S
O272 Tb273 2.295 . S
O272 C285 1.242 . S
Tb273 O272 2.295 . S
Tb273 O274 2.312 . S
Tb273 O277 2.438 . S
Tb273 O279 2.472 . S
Tb273 O281 2.308 . S
Tb273 C282 2.821 . S
O274 Tb273 2.312 . S
O274 C294 1.264 . S
O275 Eu276 2.308 . S
O275 C285 1.243 . S
Eu276 O275 2.308 . S
Eu276 C278 2.821 . S
Eu276 O280 2.295 . S
Eu276 O287 2.312 . S
Eu276 O296 2.438 . S
Eu276 O297 2.472 . S
O277 Tb273 2.438 . S
O277 C282 1.263 . S
C278 Eu276 2.821 . S
C278 C288 1.494 . S
C278 O296 1.263 . S
C278 O297 1.264 . S
O279 Tb273 2.472 . S
O279 C282 1.264 . S
O280 Eu276 2.295 . S
O280 C286 1.242 . S
O281 Tb273 2.308 . S
O281 C286 1.243 . S
C282 C266 1.494 . S
C282 Tb273 2.821 . S
C282 O277 1.263 . S
C282 O279 1.264 . S
C283 O284 1.260 . S
C283 O287 1.264 . S
O284 C283 1.260 . S
C285 O272 1.242 . S
C285 O275 1.243 . S
C286 O280 1.242 . S
C286 O281 1.243 . S
O287 Eu276 2.312 . S
O287 C283 1.264 . S
C288 C278 1.494 . S
C288 C290 1.380 . S
C288 C291 1.387 . S
C289 C290 1.395 . S
C289 C293 1.393 . S
C290 C288 1.380 . S
C290 C289 1.395 . S
C290 H301 0.930 . S
C291 C288 1.387 . S
C291 C292 1.386 . S
C291 H302 0.930 . S
C292 C291 1.386 . S
C292 C293 1.397 . S
C293 C289 1.393 . S
C293 C292 1.397 . S
C293 H303 0.930 . S
C294 O274 1.264 . S
C294 O295 1.260 . S
O295 C294 1.260 . S
O296 Eu276 2.438 . S
O296 C278 1.263 . S
O297 Eu276 2.472 . S
O297 C278 1.264 . S
H298 C267 0.930 . S
H299 C269 0.930 . S
H300 C271 0.930 . S
H301 C290 0.930 . S
H302 C291 0.930 . S
H303 C293 0.930 . S
C304 C305 1.387 . S
C304 C309 1.380 . S
C304 C320 1.494 . S
C305 C304 1.387 . S
C305 C306 1.386 . S
C305 H336 0.930 . S
C306 C305 1.386 . S
C306 C307 1.397 . S
C307 C306 1.397 . S
C307 C308 1.393 . S
C307 H337 0.930 . S
C308 C307 1.393 . S
C308 C309 1.395 . S
C309 C304 1.380 . S
C309 C308 1.395 . S
C309 H338 0.930 . S
O310 Tb311 2.295 . S
O310 C323 1.242 . S
Tb311 O310 2.295 . S
Tb311 O312 2.312 . S
Tb311 O315 2.438 . S
Tb311 O317 2.472 . S
Tb311 O319 2.308 . S
Tb311 C320 2.821 . S
O312 Tb311 2.312 . S
O312 C332 1.264 1_455 S
O313 Eu314 2.304 1_455 S
O313 C323 1.254 . S
Eu314 O313 2.304 1_655 S
Eu314 C316 2.821 . S
Eu314 O318 2.295 1_655 S
Eu314 O325 2.312 1_655 S
Eu314 O334 2.438 . S
Eu314 O335 2.472 . S
O315 Tb311 2.438 . S
O315 C320 1.263 . S
C316 Eu314 2.821 . S
C316 C326 1.494 . S
C316 O334 1.263 . S
C316 O335 1.264 . S
O317 Tb311 2.472 . S
O317 C320 1.264 . S
O318 Eu314 2.295 1_455 S
O318 C324 1.242 . S
O319 Tb311 2.308 . S
O319 C324 1.243 . S
C320 C304 1.494 . S
C320 Tb311 2.821 . S
C320 O315 1.263 . S
C320 O317 1.264 . S
C321 O322 1.260 . S
C321 O325 1.264 . S
O322 C321 1.260 . S
C323 O310 1.242 . S
C323 O313 1.254 . S
C324 O318 1.242 . S
C324 O319 1.243 . S
O325 Eu314 2.312 1_455 S
O325 C321 1.264 . S
C326 C316 1.494 . S
C326 C328 1.380 . S
C326 C329 1.387 . S
C327 C328 1.395 . S
C327 C331 1.393 . S
C328 C326 1.380 . S
C328 C327 1.395 . S
C328 H339 0.930 . S
C329 C326 1.387 . S
C329 C330 1.386 . S
C329 H340 0.930 . S
C330 C329 1.386 . S
C330 C331 1.397 . S
C331 C327 1.393 . S
C331 C330 1.397 . S
C331 H341 0.930 . S
C332 O312 1.264 1_655 S
C332 O333 1.260 . S
O333 C332 1.260 . S
O334 Eu314 2.438 . S
O334 C316 1.263 . S
O335 Eu314 2.472 . S
O335 C316 1.264 . S
H336 C305 0.930 . S
H337 C307 0.930 . S
H338 C309 0.930 . S
H339 C328 0.930 . S
H340 C329 0.930 . S
H341 C331 0.930 . S
C342 C343 1.387 . S
C342 C347 1.380 . S
C342 C358 1.494 . S
C343 C342 1.387 . S
C343 C344 1.386 . S
C343 H374 0.930 . S
C344 C343 1.386 . S
C344 C345 1.397 . S
C345 C344 1.397 . S
C345 C346 1.393 . S
C345 H375 0.930 . S
C346 C345 1.393 . S
C346 C347 1.395 . S
C347 C342 1.380 . S
C347 C346 1.395 . S
C347 H376 0.930 . S
O348 Tb349 2.295 . S
O348 C361 1.242 . S
Tb349 O348 2.295 . S
Tb349 O350 2.312 . S
Tb349 O353 2.438 . S
Tb349 O355 2.472 . S
Tb349 O357 2.308 . S
Tb349 C358 2.821 . S
O350 Tb349 2.312 . S
O350 C370 1.264 . S
O351 Eu352 2.308 . S
O351 C361 1.243 . S
Eu352 O351 2.308 . S
Eu352 C354 2.821 . S
Eu352 O356 2.295 . S
Eu352 O363 2.312 . S
Eu352 O372 2.438 . S
Eu352 O373 2.472 . S
O353 Tb349 2.438 . S
O353 C358 1.263 . S
C354 Eu352 2.821 . S
C354 C364 1.494 . S
C354 O372 1.263 . S
C354 O373 1.264 . S
O355 Tb349 2.472 . S
O355 C358 1.264 . S
O356 Eu352 2.295 . S
O356 C362 1.242 . S
O357 Tb349 2.308 . S
O357 C362 1.243 . S
C358 C342 1.494 . S
C358 Tb349 2.821 . S
C358 O353 1.263 . S
C358 O355 1.264 . S
C359 O360 1.260 . S
C359 O363 1.264 . S
O360 C359 1.260 . S
C361 O348 1.242 . S
C361 O351 1.243 . S
C362 O356 1.242 . S
C362 O357 1.243 . S
O363 Eu352 2.312 . S
O363 C359 1.264 . S
C364 C354 1.494 . S
C364 C366 1.380 . S
C364 C367 1.387 . S
C365 C366 1.395 . S
C365 C369 1.393 . S
C366 C364 1.380 . S
C366 C365 1.395 . S
C366 H377 0.930 . S
C367 C364 1.387 . S
C367 C368 1.386 . S
C367 H378 0.930 . S
C368 C367 1.386 . S
C368 C369 1.397 . S
C369 C365 1.393 . S
C369 C368 1.397 . S
C369 H379 0.930 . S
C370 O350 1.264 . S
C370 O371 1.260 . S
O371 C370 1.260 . S
O372 Eu352 2.438 . S
O372 C354 1.263 . S
O373 Eu352 2.472 . S
O373 C354 1.264 . S
H374 C343 0.930 . S
H375 C345 0.930 . S
H376 C347 0.930 . S
H377 C366 0.930 . S
H378 C367 0.930 . S
H379 C369 0.930 . S
C380 C381 1.387 . S
C380 C385 1.380 . S
C380 C396 1.494 . S
C381 C380 1.387 . S
C381 C382 1.386 . S
C381 H412 0.930 . S
C382 C381 1.386 . S
C382 C383 1.397 . S
C383 C382 1.397 . S
C383 C384 1.393 . S
C383 H413 0.930 . S
C384 C383 1.393 . S
C384 C385 1.395 . S
C385 C380 1.380 . S
C385 C384 1.395 . S
C385 H414 0.930 . S
O386 Tb387 2.295 . S
O386 C399 1.242 . S
Tb387 O386 2.295 . S
Tb387 O388 2.312 . S
Tb387 O391 2.438 . S
Tb387 O393 2.472 . S
Tb387 O395 2.308 . S
Tb387 C396 2.821 . S
O388 Tb387 2.312 . S
O388 C408 1.264 1_455 S
O389 Eu390 2.304 1_455 S
O389 C399 1.255 . S
Eu390 O389 2.304 1_655 S
Eu390 C392 2.821 . S
Eu390 O394 2.295 1_655 S
Eu390 O401 2.312 1_655 S
Eu390 O410 2.438 . S
Eu390 O411 2.472 . S
O391 Tb387 2.438 . S
O391 C396 1.263 . S
C392 Eu390 2.821 . S
C392 C402 1.494 . S
C392 O410 1.263 . S
C392 O411 1.264 . S
O393 Tb387 2.472 . S
O393 C396 1.264 . S
O394 Eu390 2.295 1_455 S
O394 C400 1.242 . S
O395 Tb387 2.308 . S
O395 C400 1.243 . S
C396 C380 1.494 . S
C396 Tb387 2.821 . S
C396 O391 1.263 . S
C396 O393 1.264 . S
C397 O398 1.260 . S
C397 O401 1.264 . S
O398 C397 1.260 . S
C399 O386 1.242 . S
C399 O389 1.255 . S
C400 O394 1.242 . S
C400 O395 1.243 . S
O401 Eu390 2.312 1_455 S
O401 C397 1.264 . S
C402 C392 1.494 . S
C402 C404 1.380 . S
C402 C405 1.387 . S
C403 C404 1.395 . S
C403 C407 1.393 . S
C404 C402 1.380 . S
C404 C403 1.395 . S
C404 H415 0.930 . S
C405 C402 1.387 . S
C405 C406 1.386 . S
C405 H416 0.930 . S
C406 C405 1.386 . S
C406 C407 1.397 . S
C407 C403 1.393 . S
C407 C406 1.397 . S
C407 H417 0.930 . S
C408 O388 1.264 1_655 S
C408 O409 1.260 . S
O409 C408 1.260 . S
O410 Eu390 2.438 . S
O410 C392 1.263 . S
O411 Eu390 2.472 . S
O411 C392 1.264 . S
H412 C381 0.930 . S
H413 C383 0.930 . S
H414 C385 0.930 . S
H415 C404 0.930 . S
H416 C405 0.930 . S
H417 C407 0.930 . S
C418 C419 1.387 . S
C418 C423 1.380 . S
C418 C434 1.494 . S
C419 C418 1.387 . S
C419 C420 1.386 . S
C419 H450 0.930 . S
C420 C419 1.386 . S
C420 C421 1.397 . S
C421 C420 1.397 . S
C421 C422 1.393 . S
C421 H451 0.930 . S
C422 C421 1.393 . S
C422 C423 1.395 . S
C423 C418 1.380 . S
C423 C422 1.395 . S
C423 H452 0.930 . S
O424 Tb425 2.295 . S
O424 C437 1.242 . S
Tb425 O424 2.295 . S
Tb425 O426 2.312 . S
Tb425 O429 2.438 . S
Tb425 O431 2.472 . S
Tb425 O433 2.308 . S
Tb425 C434 2.821 . S
O426 Tb425 2.312 . S
O426 C446 1.264 . S
O427 Eu428 2.308 . S
O427 C437 1.243 . S
Eu428 O427 2.308 . S
Eu428 C430 2.821 . S
Eu428 O432 2.295 . S
Eu428 O439 2.312 . S
Eu428 O448 2.438 . S
Eu428 O449 2.472 . S
O429 Tb425 2.438 . S
O429 C434 1.263 . S
C430 Eu428 2.821 . S
C430 C440 1.494 . S
C430 O448 1.263 . S
C430 O449 1.264 . S
O431 Tb425 2.472 . S
O431 C434 1.264 . S
O432 Eu428 2.295 . S
O432 C438 1.242 . S
O433 Tb425 2.308 . S
O433 C438 1.243 . S
C434 C418 1.494 . S
C434 Tb425 2.821 . S
C434 O429 1.263 . S
C434 O431 1.264 . S
C435 O436 1.260 . S
C435 O439 1.264 . S
O436 C435 1.260 . S
C437 O424 1.242 . S
C437 O427 1.243 . S
C438 O432 1.242 . S
C438 O433 1.243 . S
O439 Eu428 2.312 . S
O439 C435 1.264 . S
C440 C430 1.494 . S
C440 C442 1.380 . S
C440 C443 1.387 . S
C441 C442 1.395 . S
C441 C445 1.393 . S
C442 C440 1.380 . S
C442 C441 1.395 . S
C442 H453 0.930 . S
C443 C440 1.387 . S
C443 C444 1.386 . S
C443 H454 0.930 . S
C444 C443 1.386 . S
C444 C445 1.397 . S
C445 C441 1.393 . S
C445 C444 1.397 . S
C445 H455 0.930 . S
C446 O426 1.264 . S
C446 O447 1.260 . S
O447 C446 1.260 . S
O448 Eu428 2.438 . S
O448 C430 1.263 . S
O449 Eu428 2.472 . S
O449 C430 1.264 . S
H450 C419 0.930 . S
H451 C421 0.930 . S
H452 C423 0.930 . S
H453 C442 0.930 . S
H454 C443 0.930 . S
H455 C445 0.930 . S
C456 C457 1.387 . S
C456 C461 1.380 . S
C456 C472 1.494 . S
C457 C456 1.387 . S
C457 C458 1.386 . S
C457 H488 0.930 . S
C458 C457 1.386 . S
C458 C459 1.397 . S
C459 C458 1.397 . S
C459 C460 1.393 . S
C459 H489 0.930 . S
C460 C459 1.393 . S
C460 C461 1.395 . S
C461 C456 1.380 . S
C461 C460 1.395 . S
C461 H490 0.930 . S
O462 Tb463 2.295 1_655 S
O462 C475 1.242 . S
Tb463 O462 2.295 1_455 S
Tb463 O464 2.312 1_455 S
Tb463 O467 2.438 . S
Tb463 O469 2.472 . S
Tb463 O471 2.304 1_455 S
Tb463 C472 2.821 . S
O464 Tb463 2.312 1_655 S
O464 C484 1.264 . S
O465 Eu466 2.308 . S
O465 C475 1.243 . S
Eu466 O465 2.308 . S
Eu466 C468 2.821 . S
Eu466 O470 2.295 . S
Eu466 O477 2.312 . S
Eu466 O486 2.438 . S
Eu466 O487 2.472 . S
O467 Tb463 2.438 . S
O467 C472 1.263 . S
C468 Eu466 2.821 . S
C468 C478 1.494 . S
C468 O486 1.263 . S
C468 O487 1.264 . S
O469 Tb463 2.472 . S
O469 C472 1.264 . S
O470 Eu466 2.295 . S
O470 C476 1.242 . S
O471 Tb463 2.304 1_655 S
O471 C476 1.254 . S
C472 C456 1.494 . S
C472 Tb463 2.821 . S
C472 O467 1.263 . S
C472 O469 1.264 . S
C473 O474 1.260 . S
C473 O477 1.264 1_455 S
O474 C473 1.260 . S
C475 O462 1.242 . S
C475 O465 1.243 . S
C476 O470 1.242 . S
C476 O471 1.254 . S
O477 Eu466 2.312 . S
O477 C473 1.264 1_655 S
C478 C468 1.494 . S
C478 C480 1.380 . S
C478 C481 1.387 . S
C479 C480 1.395 . S
C479 C483 1.393 . S
C480 C478 1.380 . S
C480 C479 1.395 . S
C480 H491 0.930 . S
C481 C478 1.387 . S
C481 C482 1.386 . S
C481 H492 0.930 . S
C482 C481 1.386 . S
C482 C483 1.397 . S
C483 C479 1.393 . S
C483 C482 1.397 . S
C483 H493 0.930 . S
C484 O464 1.264 . S
C484 O485 1.260 . S
O485 C484 1.260 . S
O486 Eu466 2.438 . S
O486 C468 1.263 . S
O487 Eu466 2.472 . S
O487 C468 1.264 . S
H488 C457 0.930 . S
H489 C459 0.930 . S
H490 C461 0.930 . S
H491 C480 0.930 . S
H492 C481 0.930 . S
H493 C483 0.930 . S
C494 C495 1.387 . S
C494 C499 1.380 . S
C494 C510 1.494 . S
C495 C494 1.387 . S
C495 C496 1.386 . S
C495 H526 0.930 . S
C496 C495 1.386 . S
C496 C497 1.397 . S
C497 C496 1.397 . S
C497 C498 1.393 . S
C497 H527 0.930 . S
C498 C497 1.393 . S
C498 C499 1.395 . S
C499 C494 1.380 . S
C499 C498 1.395 . S
C499 H528 0.930 . S
O500 Tb501 2.295 . S
O500 C513 1.242 . S
Tb501 O500 2.295 . S
Tb501 O502 2.312 . S
Tb501 O505 2.438 . S
Tb501 O507 2.472 . S
Tb501 O509 2.308 . S
Tb501 C510 2.821 . S
O502 Tb501 2.312 . S
O502 C522 1.264 . S
O503 Eu504 2.308 . S
O503 C513 1.243 . S
Eu504 O503 2.308 . S
Eu504 C506 2.821 . S
Eu504 O508 2.295 . S
Eu504 O515 2.312 . S
Eu504 O524 2.438 . S
Eu504 O525 2.472 . S
O505 Tb501 2.438 . S
O505 C510 1.263 . S
C506 Eu504 2.821 . S
C506 C516 1.494 . S
C506 O524 1.263 . S
C506 O525 1.264 . S
O507 Tb501 2.472 . S
O507 C510 1.264 . S
O508 Eu504 2.295 . S
O508 C514 1.242 . S
O509 Tb501 2.308 . S
O509 C514 1.243 . S
C510 C494 1.494 . S
C510 Tb501 2.821 . S
C510 O505 1.263 . S
C510 O507 1.264 . S
C511 O512 1.260 . S
C511 O515 1.264 . S
O512 C511 1.260 . S
C513 O500 1.242 . S
C513 O503 1.243 . S
C514 O508 1.242 . S
C514 O509 1.243 . S
O515 Eu504 2.312 . S
O515 C511 1.264 . S
C516 C506 1.494 . S
C516 C518 1.380 . S
C516 C519 1.387 . S
C517 C518 1.395 . S
C517 C521 1.393 . S
C518 C516 1.380 . S
C518 C517 1.395 . S
C518 H529 0.930 . S
C519 C516 1.387 . S
C519 C520 1.386 . S
C519 H530 0.930 . S
C520 C519 1.386 . S
C520 C521 1.397 . S
C521 C517 1.393 . S
C521 C520 1.397 . S
C521 H531 0.930 . S
C522 O502 1.264 . S
C522 O523 1.260 . S
O523 C522 1.260 . S
O524 Eu504 2.438 . S
O524 C506 1.263 . S
O525 Eu504 2.472 . S
O525 C506 1.264 . S
H526 C495 0.930 . S
H527 C497 0.930 . S
H528 C499 0.930 . S
H529 C518 0.930 . S
H530 C519 0.930 . S
H531 C521 0.930 . S
C532 C533 1.387 . S
C532 C537 1.380 . S
C532 C548 1.494 . S
C533 C532 1.387 . S
C533 C534 1.386 . S
C533 H564 0.930 . S
C534 C533 1.386 . S
C534 C535 1.397 . S
C535 C534 1.397 . S
C535 C536 1.393 . S
C535 H565 0.930 . S
C536 C535 1.393 . S
C536 C537 1.395 . S
C537 C532 1.380 . S
C537 C536 1.395 . S
C537 H566 0.930 . S
O538 Tb539 2.295 1_655 S
O538 C551 1.242 . S
Tb539 O538 2.295 1_455 S
Tb539 O540 2.312 1_455 S
Tb539 O543 2.438 . S
Tb539 O545 2.472 . S
Tb539 O547 2.304 1_455 S
Tb539 C548 2.821 . S
O540 Tb539 2.312 1_655 S
O540 C560 1.264 . S
O541 Eu542 2.308 . S
O541 C551 1.243 . S
Eu542 O541 2.308 . S
Eu542 C544 2.821 . S
Eu542 O546 2.295 . S
Eu542 O553 2.312 . S
Eu542 O562 2.438 . S
Eu542 O563 2.472 . S
O543 Tb539 2.438 . S
O543 C548 1.263 . S
C544 Eu542 2.821 . S
C544 C554 1.494 . S
C544 O562 1.263 . S
C544 O563 1.264 . S
O545 Tb539 2.472 . S
O545 C548 1.264 . S
O546 Eu542 2.295 . S
O546 C552 1.242 . S
O547 Tb539 2.304 1_655 S
O547 C552 1.255 . S
C548 C532 1.494 . S
C548 Tb539 2.821 . S
C548 O543 1.263 . S
C548 O545 1.264 . S
C549 O550 1.260 . S
C549 O553 1.264 1_455 S
O550 C549 1.260 . S
C551 O538 1.242 . S
C551 O541 1.243 . S
C552 O546 1.242 . S
C552 O547 1.255 . S
O553 Eu542 2.312 . S
O553 C549 1.264 1_655 S
C554 C544 1.494 . S
C554 C556 1.380 . S
C554 C557 1.387 . S
C555 C556 1.395 . S
C555 C559 1.393 . S
C556 C554 1.380 . S
C556 C555 1.395 . S
C556 H567 0.930 . S
C557 C554 1.387 . S
C557 C558 1.386 . S
C557 H568 0.930 . S
C558 C557 1.386 . S
C558 C559 1.397 . S
C559 C555 1.393 . S
C559 C558 1.397 . S
C559 H569 0.930 . S
C560 O540 1.264 . S
C560 O561 1.260 . S
O561 C560 1.260 . S
O562 Eu542 2.438 . S
O562 C544 1.263 . S
O563 Eu542 2.472 . S
O563 C544 1.264 . S
H564 C533 0.930 . S
H565 C535 0.930 . S
H566 C537 0.930 . S
H567 C556 0.930 . S
H568 C557 0.930 . S
H569 C559 0.930 . S
C570 C571 1.387 . S
C570 C575 1.380 . S
C570 C586 1.494 . S
C571 C570 1.387 . S
C571 C572 1.386 . S
C571 H602 0.930 . S
C572 C571 1.386 . S
C572 C573 1.397 . S
C573 C572 1.397 . S
C573 C574 1.393 . S
C573 H603 0.930 . S
C574 C573 1.393 . S
C574 C575 1.395 . S
C575 C570 1.380 . S
C575 C574 1.395 . S
C575 H604 0.930 . S
O576 Tb577 2.295 . S
O576 C589 1.242 . S
Tb577 O576 2.295 . S
Tb577 O578 2.312 . S
Tb577 O581 2.438 . S
Tb577 O583 2.472 . S
Tb577 O585 2.308 . S
Tb577 C586 2.821 . S
O578 Tb577 2.312 . S
O578 C598 1.264 . S
O579 Eu580 2.308 . S
O579 C589 1.243 . S
Eu580 O579 2.308 . S
Eu580 C582 2.821 . S
Eu580 O584 2.295 . S
Eu580 O591 2.312 . S
Eu580 O600 2.438 . S
Eu580 O601 2.472 . S
O581 Tb577 2.438 . S
O581 C586 1.263 . S
C582 Eu580 2.821 . S
C582 C592 1.494 . S
C582 O600 1.263 . S
C582 O601 1.264 . S
O583 Tb577 2.472 . S
O583 C586 1.264 . S
O584 Eu580 2.295 . S
O584 C590 1.242 . S
O585 Tb577 2.308 . S
O585 C590 1.243 . S
C586 C570 1.494 . S
C586 Tb577 2.821 . S
C586 O581 1.263 . S
C586 O583 1.264 . S
C587 O588 1.260 . S
C587 O591 1.264 . S
O588 C587 1.260 . S
C589 O576 1.242 . S
C589 O579 1.243 . S
C590 O584 1.242 . S
C590 O585 1.243 . S
O591 Eu580 2.312 . S
O591 C587 1.264 . S
C592 C582 1.494 . S
C592 C594 1.380 . S
C592 C595 1.387 . S
C593 C594 1.395 . S
C593 C597 1.393 . S
C594 C592 1.380 . S
C594 C593 1.395 . S
C594 H605 0.930 . S
C595 C592 1.387 . S
C595 C596 1.386 . S
C595 H606 0.930 . S
C596 C595 1.386 . S
C596 C597 1.397 . S
C597 C593 1.393 . S
C597 C596 1.397 . S
C597 H607 0.930 . S
C598 O578 1.264 . S
C598 O599 1.260 . S
O599 C598 1.260 . S
O600 Eu580 2.438 . S
O600 C582 1.263 . S
O601 Eu580 2.472 . S
O601 C582 1.264 . S
H602 C571 0.930 . S
H603 C573 0.930 . S
H604 C575 0.930 . S
H605 C594 0.930 . S
H606 C595 0.930 . S
H607 C597 0.930 . S
C608 C609 1.387 . S
C608 C613 1.380 . S
C608 C624 1.494 . S
C609 C608 1.387 . S
C609 C610 1.386 . S
C609 H640 0.930 . S
C610 C609 1.386 . S
C610 C611 1.397 . S
C611 C610 1.397 . S
C611 C612 1.393 . S
C611 H641 0.930 . S
C612 C611 1.393 . S
C612 C613 1.395 . S
C613 C608 1.380 . S
C613 C612 1.395 . S
C613 H642 0.930 . S
O614 Tb615 2.295 . S
O614 C627 1.242 . S
Tb615 O614 2.295 . S
Tb615 O616 2.312 . S
Tb615 O619 2.438 . S
Tb615 O621 2.472 . S
Tb615 O623 2.308 . S
Tb615 C624 2.821 . S
O616 Tb615 2.312 . S
O616 C636 1.264 . S
O617 Eu618 2.308 . S
O617 C627 1.243 . S
Eu618 O617 2.308 . S
Eu618 C620 2.821 . S
Eu618 O622 2.295 . S
Eu618 O629 2.312 . S
Eu618 O638 2.438 . S
Eu618 O639 2.472 . S
O619 Tb615 2.438 . S
O619 C624 1.263 . S
C620 Eu618 2.821 . S
C620 C630 1.494 . S
C620 O638 1.263 . S
C620 O639 1.264 . S
O621 Tb615 2.472 . S
O621 C624 1.264 . S
O622 Eu618 2.295 . S
O622 C628 1.242 . S
O623 Tb615 2.308 . S
O623 C628 1.243 . S
C624 C608 1.494 . S
C624 Tb615 2.821 . S
C624 O619 1.263 . S
C624 O621 1.264 . S
C625 O626 1.260 . S
C625 O629 1.264 . S
O626 C625 1.260 . S
C627 O614 1.242 . S
C627 O617 1.243 . S
C628 O622 1.242 . S
C628 O623 1.243 . S
O629 Eu618 2.312 . S
O629 C625 1.264 . S
C630 C620 1.494 . S
C630 C632 1.380 . S
C630 C633 1.387 . S
C631 C632 1.395 . S
C631 C635 1.393 . S
C632 C630 1.380 . S
C632 C631 1.395 . S
C632 H643 0.930 . S
C633 C630 1.387 . S
C633 C634 1.386 . S
C633 H644 0.930 . S
C634 C633 1.386 . S
C634 C635 1.397 . S
C635 C631 1.393 . S
C635 C634 1.397 . S
C635 H645 0.930 . S
C636 O616 1.264 . S
C636 O637 1.260 . S
O637 C636 1.260 . S
O638 Eu618 2.438 . S
O638 C620 1.263 . S
O639 Eu618 2.472 . S
O639 C620 1.264 . S
H640 C609 0.930 . S
H641 C611 0.930 . S
H642 C613 0.930 . S
H643 C632 0.930 . S
H644 C633 0.930 . S
H645 C635 0.930 . S
C646 C647 1.387 . S
C646 C651 1.380 . S
C646 C662 1.494 . S
C647 C646 1.387 . S
C647 C648 1.386 . S
C647 H678 0.930 . S
C648 C647 1.386 . S
C648 C649 1.397 . S
C649 C648 1.397 . S
C649 C650 1.393 . S
C649 H679 0.930 . S
C650 C649 1.393 . S
C650 C651 1.395 . S
C651 C646 1.380 . S
C651 C650 1.395 . S
C651 H680 0.930 . S
O652 Tb653 2.295 . S
O652 C665 1.242 . S
Tb653 O652 2.295 . S
Tb653 O654 2.312 . S
Tb653 O657 2.438 . S
Tb653 O659 2.472 . S
Tb653 O661 2.308 . S
Tb653 C662 2.821 . S
O654 Tb653 2.312 . S
O654 C674 1.264 . S
O655 Eu656 2.308 . S
O655 C665 1.243 . S
Eu656 O655 2.308 . S
Eu656 C658 2.821 . S
Eu656 O660 2.295 . S
Eu656 O667 2.312 1_565 S
Eu656 O676 2.438 . S
Eu656 O677 2.472 . S
O657 Tb653 2.438 . S
O657 C662 1.263 . S
C658 Eu656 2.821 . S
C658 C668 1.494 . S
C658 O676 1.263 . S
C658 O677 1.264 . S
O659 Tb653 2.472 . S
O659 C662 1.264 . S
O660 Eu656 2.295 . S
O660 C666 1.242 . S
O661 Tb653 2.308 . S
O661 C666 1.243 . S
C662 C646 1.494 . S
C662 Tb653 2.821 . S
C662 O657 1.263 . S
C662 O659 1.264 . S
C663 O664 1.260 . S
C663 O667 1.264 . S
O664 C663 1.260 . S
C665 O652 1.242 . S
C665 O655 1.243 . S
C666 O660 1.242 . S
C666 O661 1.243 . S
O667 Eu656 2.312 1_545 S
O667 C663 1.264 . S
C668 C658 1.494 . S
C668 C670 1.380 . S
C668 C671 1.387 . S
C669 C670 1.395 . S
C669 C673 1.393 . S
C670 C668 1.380 . S
C670 C669 1.395 . S
C670 H681 0.930 . S
C671 C668 1.387 . S
C671 C672 1.386 . S
C671 H682 0.930 1_565 S
C672 C671 1.386 . S
C672 C673 1.397 . S
C673 C669 1.393 . S
C673 C672 1.397 . S
C673 H683 0.930 . S
C674 O654 1.264 . S
C674 O675 1.260 . S
O675 C674 1.260 . S
O676 Eu656 2.438 . S
O676 C658 1.263 . S
O677 Eu656 2.472 . S
O677 C658 1.264 . S
H678 C647 0.930 . S
H679 C649 0.930 . S
H680 C651 0.930 . S
H681 C670 0.930 . S
H682 C671 0.930 1_545 S
H683 C673 0.930 . S
C684 C685 1.387 . S
C684 C689 1.380 . S
C684 C700 1.494 . S
C685 C684 1.387 . S
C685 C686 1.386 . S
C685 H716 0.930 . S
C686 C685 1.386 . S
C686 C687 1.397 . S
C687 C686 1.397 . S
C687 C688 1.393 . S
C687 H717 0.930 . S
C688 C687 1.393 . S
C688 C689 1.395 . S
C689 C684 1.380 . S
C689 C688 1.395 . S
C689 H718 0.930 . S
O690 Tb691 2.295 . S
O690 C703 1.242 . S
Tb691 O690 2.295 . S
Tb691 O692 2.312 . S
Tb691 O695 2.438 . S
Tb691 O697 2.472 . S
Tb691 O699 2.308 . S
Tb691 C700 2.821 . S
O692 Tb691 2.312 . S
O692 C712 1.264 . S
O693 Eu694 2.308 . S
O693 C703 1.243 . S
Eu694 O693 2.308 . S
Eu694 C696 2.821 . S
Eu694 O698 2.295 . S
Eu694 O705 2.312 1_565 S
Eu694 O714 2.438 . S
Eu694 O715 2.472 . S
O695 Tb691 2.438 . S
O695 C700 1.263 . S
C696 Eu694 2.821 . S
C696 C706 1.494 . S
C696 O714 1.263 . S
C696 O715 1.264 . S
O697 Tb691 2.472 . S
O697 C700 1.264 . S
O698 Eu694 2.295 . S
O698 C704 1.242 . S
O699 Tb691 2.308 . S
O699 C704 1.243 . S
C700 C684 1.494 . S
C700 Tb691 2.821 . S
C700 O695 1.263 . S
C700 O697 1.264 . S
C701 O702 1.260 . S
C701 O705 1.264 . S
O702 C701 1.260 . S
C703 O690 1.242 . S
C703 O693 1.243 . S
C704 O698 1.242 . S
C704 O699 1.243 . S
O705 Eu694 2.312 1_545 S
O705 C701 1.264 . S
C706 C696 1.494 . S
C706 C708 1.380 . S
C706 C709 1.387 . S
C707 C708 1.395 . S
C707 C711 1.393 . S
C708 C706 1.380 . S
C708 C707 1.395 . S
C708 H719 0.930 . S
C709 C706 1.387 . S
C709 C710 1.386 . S
C709 H720 0.930 1_565 S
C710 C709 1.386 . S
C710 C711 1.397 . S
C711 C707 1.393 . S
C711 C710 1.397 . S
C711 H721 0.930 . S
C712 O692 1.264 . S
C712 O713 1.260 . S
O713 C712 1.260 . S
O714 Eu694 2.438 . S
O714 C696 1.263 . S
O715 Eu694 2.472 . S
O715 C696 1.264 . S
H716 C685 0.930 . S
H717 C687 0.930 . S
H718 C689 0.930 . S
H719 C708 0.930 . S
H720 C709 0.930 1_545 S
H721 C711 0.930 . S
C722 C723 1.387 . S
C722 C727 1.380 . S
C722 C738 1.494 . S
C723 C722 1.387 . S
C723 C724 1.386 . S
C723 H754 0.930 . S
C724 C723 1.386 . S
C724 C725 1.397 . S
C725 C724 1.397 . S
C725 C726 1.393 . S
C725 H755 0.930 . S
C726 C725 1.393 . S
C726 C727 1.395 . S
C727 C722 1.380 . S
C727 C726 1.395 . S
C727 H756 0.930 . S
O728 Tb729 2.295 . S
O728 C741 1.242 . S
Tb729 O728 2.295 . S
Tb729 O730 2.312 . S
Tb729 O733 2.438 . S
Tb729 O735 2.472 . S
Tb729 O737 2.308 . S
Tb729 C738 2.821 . S
O730 Tb729 2.312 . S
O730 C750 1.264 . S
O731 Eu732 2.308 . S
O731 C741 1.243 . S
Eu732 O731 2.308 . S
Eu732 C734 2.821 . S
Eu732 O736 2.295 . S
Eu732 O743 2.312 . S
Eu732 O752 2.438 . S
Eu732 O753 2.472 . S
O733 Tb729 2.438 . S
O733 C738 1.263 . S
C734 Eu732 2.821 . S
C734 C744 1.494 . S
C734 O752 1.263 . S
C734 O753 1.264 . S
O735 Tb729 2.472 . S
O735 C738 1.264 . S
O736 Eu732 2.295 . S
O736 C742 1.242 . S
O737 Tb729 2.308 . S
O737 C742 1.243 . S
C738 C722 1.494 . S
C738 Tb729 2.821 . S
C738 O733 1.263 . S
C738 O735 1.264 . S
C739 O740 1.260 . S
C739 O743 1.264 . S
O740 C739 1.260 . S
C741 O728 1.242 . S
C741 O731 1.243 . S
C742 O736 1.242 . S
C742 O737 1.243 . S
O743 Eu732 2.312 . S
O743 C739 1.264 . S
C744 C734 1.494 . S
C744 C746 1.380 . S
C744 C747 1.387 . S
C745 C746 1.395 . S
C745 C749 1.393 . S
C746 C744 1.380 . S
C746 C745 1.395 . S
C746 H757 0.930 . S
C747 C744 1.387 . S
C747 C748 1.386 . S
C747 H758 0.930 . S
C748 C747 1.386 . S
C748 C749 1.397 . S
C749 C745 1.393 . S
C749 C748 1.397 . S
C749 H759 0.930 . S
C750 O730 1.264 . S
C750 O751 1.260 . S
O751 C750 1.260 . S
O752 Eu732 2.438 . S
O752 C734 1.263 . S
O753 Eu732 2.472 . S
O753 C734 1.264 . S
H754 C723 0.930 . S
H755 C725 0.930 . S
H756 C727 0.930 . S
H757 C746 0.930 . S
H758 C747 0.930 . S
H759 C749 0.930 . S
C760 C761 1.387 . S
C760 C765 1.380 . S
C760 C776 1.494 . S
C761 C760 1.387 . S
C761 C762 1.386 . S
C761 H792 0.930 . S
C762 C761 1.386 . S
C762 C763 1.397 . S
C763 C762 1.397 . S
C763 C764 1.393 . S
C763 H793 0.930 . S
C764 C763 1.393 . S
C764 C765 1.395 . S
C765 C760 1.380 . S
C765 C764 1.395 . S
C765 H794 0.930 . S
O766 Tb767 2.295 . S
O766 C779 1.242 . S
Tb767 O766 2.295 . S
Tb767 O768 2.312 . S
Tb767 O771 2.438 . S
Tb767 O773 2.472 . S
Tb767 O775 2.308 . S
Tb767 C776 2.821 . S
O768 Tb767 2.312 . S
O768 C788 1.264 . S
O769 Eu770 2.308 . S
O769 C779 1.243 . S
Eu770 O769 2.308 . S
Eu770 C772 2.821 . S
Eu770 O774 2.295 . S
Eu770 O781 2.312 . S
Eu770 O790 2.438 . S
Eu770 O791 2.472 . S
O771 Tb767 2.438 . S
O771 C776 1.263 . S
C772 Eu770 2.821 . S
C772 C782 1.494 . S
C772 O790 1.263 . S
C772 O791 1.264 . S
O773 Tb767 2.472 . S
O773 C776 1.264 . S
O774 Eu770 2.295 . S
O774 C780 1.242 . S
O775 Tb767 2.308 . S
O775 C780 1.243 . S
C776 C760 1.494 . S
C776 Tb767 2.821 . S
C776 O771 1.263 . S
C776 O773 1.264 . S
C777 O778 1.260 . S
C777 O781 1.264 . S
O778 C777 1.260 . S
C779 O766 1.242 . S
C779 O769 1.243 . S
C780 O774 1.242 . S
C780 O775 1.243 . S
O781 Eu770 2.312 . S
O781 C777 1.264 . S
C782 C772 1.494 . S
C782 C784 1.380 . S
C782 C785 1.387 . S
C783 C784 1.395 . S
C783 C787 1.393 . S
C784 C782 1.380 . S
C784 C783 1.395 . S
C784 H795 0.930 . S
C785 C782 1.387 . S
C785 C786 1.386 . S
C785 H796 0.930 . S
C786 C785 1.386 . S
C786 C787 1.397 . S
C787 C783 1.393 . S
C787 C786 1.397 . S
C787 H797 0.930 . S
C788 O768 1.264 . S
C788 O789 1.260 . S
O789 C788 1.260 . S
O790 Eu770 2.438 . S
O790 C772 1.263 . S
O791 Eu770 2.472 . S
O791 C772 1.264 . S
H792 C761 0.930 . S
H793 C763 0.930 . S
H794 C765 0.930 . S
H795 C784 0.930 . S
H796 C785 0.930 . S
H797 C787 0.930 . S
C798 C799 1.387 . S
C798 C803 1.380 . S
C798 C814 1.494 . S
C799 C798 1.387 . S
C799 C800 1.386 . S
C799 H830 0.930 1_545 S
C800 C799 1.386 . S
C800 C801 1.397 . S
C801 C800 1.397 . S
C801 C802 1.393 . S
C801 H831 0.930 . S
C802 C801 1.393 . S
C802 C803 1.395 . S
C803 C798 1.380 . S
C803 C802 1.395 . S
C803 H832 0.930 . S
O804 Tb805 2.295 . S
O804 C817 1.242 . S
Tb805 O804 2.295 . S
Tb805 O806 2.312 1_545 S
Tb805 O809 2.438 . S
Tb805 O811 2.472 . S
Tb805 O813 2.308 . S
Tb805 C814 2.821 . S
O806 Tb805 2.312 1_565 S
O806 C826 1.264 . S
O807 Eu808 2.308 . S
O807 C817 1.243 . S
Eu808 O807 2.308 . S
Eu808 C810 2.821 . S
Eu808 O812 2.295 . S
Eu808 O819 2.312 . S
Eu808 O828 2.438 . S
Eu808 O829 2.472 . S
O809 Tb805 2.438 . S
O809 C814 1.263 . S
C810 Eu808 2.821 . S
C810 C820 1.494 . S
C810 O828 1.263 . S
C810 O829 1.264 . S
O811 Tb805 2.472 . S
O811 C814 1.264 . S
O812 Eu808 2.295 . S
O812 C818 1.242 . S
O813 Tb805 2.308 . S
O813 C818 1.243 . S
C814 C798 1.494 . S
C814 Tb805 2.821 . S
C814 O809 1.263 . S
C814 O811 1.264 . S
C815 O816 1.260 . S
C815 O819 1.264 . S
O816 C815 1.260 . S
C817 O804 1.242 . S
C817 O807 1.243 . S
C818 O812 1.242 . S
C818 O813 1.243 . S
O819 Eu808 2.312 . S
O819 C815 1.264 . S
C820 C810 1.494 . S
C820 C822 1.380 . S
C820 C823 1.387 . S
C821 C822 1.395 . S
C821 C825 1.393 . S
C822 C820 1.380 . S
C822 C821 1.395 . S
C822 H833 0.930 . S
C823 C820 1.387 . S
C823 C824 1.386 . S
C823 H834 0.930 . S
C824 C823 1.386 . S
C824 C825 1.397 . S
C825 C821 1.393 . S
C825 C824 1.397 . S
C825 H835 0.930 . S
C826 O806 1.264 . S
C826 O827 1.260 . S
O827 C826 1.260 . S
O828 Eu808 2.438 . S
O828 C810 1.263 . S
O829 Eu808 2.472 . S
O829 C810 1.264 . S
H830 C799 0.930 1_565 S
H831 C801 0.930 . S
H832 C803 0.930 . S
H833 C822 0.930 . S
H834 C823 0.930 . S
H835 C825 0.930 . S
C836 C837 1.387 . S
C836 C841 1.380 . S
C836 C852 1.494 . S
C837 C836 1.387 . S
C837 C838 1.386 . S
C837 H868 0.930 1_545 S
C838 C837 1.386 . S
C838 C839 1.397 . S
C839 C838 1.397 . S
C839 C840 1.393 . S
C839 H869 0.930 . S
C840 C839 1.393 . S
C840 C841 1.395 . S
C841 C836 1.380 . S
C841 C840 1.395 . S
C841 H870 0.930 . S
O842 Tb843 2.295 . S
O842 C855 1.242 . S
Tb843 O842 2.295 . S
Tb843 O844 2.312 1_545 S
Tb843 O847 2.438 . S
Tb843 O849 2.472 . S
Tb843 O851 2.308 . S
Tb843 C852 2.821 . S
O844 Tb843 2.312 1_565 S
O844 C864 1.264 . S
O845 Eu846 2.308 . S
O845 C855 1.243 . S
Eu846 O845 2.308 . S
Eu846 C848 2.821 . S
Eu846 O850 2.295 . S
Eu846 O857 2.312 . S
Eu846 O866 2.438 . S
Eu846 O867 2.472 . S
O847 Tb843 2.438 . S
O847 C852 1.263 . S
C848 Eu846 2.821 . S
C848 C858 1.494 . S
C848 O866 1.263 . S
C848 O867 1.264 . S
O849 Tb843 2.472 . S
O849 C852 1.264 . S
O850 Eu846 2.295 . S
O850 C856 1.242 . S
O851 Tb843 2.308 . S
O851 C856 1.243 . S
C852 C836 1.494 . S
C852 Tb843 2.821 . S
C852 O847 1.263 . S
C852 O849 1.264 . S
C853 O854 1.260 . S
C853 O857 1.264 . S
O854 C853 1.260 . S
C855 O842 1.242 . S
C855 O845 1.243 . S
C856 O850 1.242 . S
C856 O851 1.243 . S
O857 Eu846 2.312 . S
O857 C853 1.264 . S
C858 C848 1.494 . S
C858 C860 1.380 . S
C858 C861 1.387 . S
C859 C860 1.395 . S
C859 C863 1.393 . S
C860 C858 1.380 . S
C860 C859 1.395 . S
C860 H871 0.930 . S
C861 C858 1.387 . S
C861 C862 1.386 . S
C861 H872 0.930 . S
C862 C861 1.386 . S
C862 C863 1.397 . S
C863 C859 1.393 . S
C863 C862 1.397 . S
C863 H873 0.930 . S
C864 O844 1.264 . S
C864 O865 1.260 . S
O865 C864 1.260 . S
O866 Eu846 2.438 . S
O866 C848 1.263 . S
O867 Eu846 2.472 . S
O867 C848 1.264 . S
H868 C837 0.930 1_565 S
H869 C839 0.930 . S
H870 C841 0.930 . S
H871 C860 0.930 . S
H872 C861 0.930 . S
H873 C863 0.930 . S
C874 C875 1.387 . S
C874 C879 1.380 . S
C874 C890 1.494 . S
C875 C874 1.387 . S
C875 C876 1.386 . S
C875 H906 0.930 . S
C876 C875 1.386 . S
C876 C877 1.397 . S
C877 C876 1.397 . S
C877 C878 1.393 . S
C877 H907 0.930 . S
C878 C877 1.393 . S
C878 C879 1.395 . S
C879 C874 1.380 . S
C879 C878 1.395 . S
C879 H908 0.930 . S
O880 Tb881 2.295 . S
O880 C893 1.242 . S
Tb881 O880 2.295 . S
Tb881 O882 2.312 . S
Tb881 O885 2.438 . S
Tb881 O887 2.472 . S
Tb881 O889 2.308 . S
Tb881 C890 2.821 . S
O882 Tb881 2.312 . S
O882 C902 1.264 . S
O883 Eu884 2.308 . S
O883 C893 1.243 . S
Eu884 O883 2.308 . S
Eu884 C886 2.821 . S
Eu884 O888 2.295 . S
Eu884 O895 2.312 . S
Eu884 O904 2.438 . S
Eu884 O905 2.472 . S
O885 Tb881 2.438 . S
O885 C890 1.263 . S
C886 Eu884 2.821 . S
C886 C896 1.494 . S
C886 O904 1.263 . S
C886 O905 1.264 . S
O887 Tb881 2.472 . S
O887 C890 1.264 . S
O888 Eu884 2.295 . S
O888 C894 1.242 . S
O889 Tb881 2.308 . S
O889 C894 1.243 . S
C890 C874 1.494 . S
C890 Tb881 2.821 . S
C890 O885 1.263 . S
C890 O887 1.264 . S
C891 O892 1.260 . S
C891 O895 1.264 . S
O892 C891 1.260 . S
C893 O880 1.242 . S
C893 O883 1.243 . S
C894 O888 1.242 . S
C894 O889 1.243 . S
O895 Eu884 2.312 . S
O895 C891 1.264 . S
C896 C886 1.494 . S
C896 C898 1.380 . S
C896 C899 1.387 . S
C897 C898 1.395 . S
C897 C901 1.393 . S
C898 C896 1.380 . S
C898 C897 1.395 . S
C898 H909 0.930 . S
C899 C896 1.387 . S
C899 C900 1.386 . S
C899 H910 0.930 . S
C900 C899 1.386 . S
C900 C901 1.397 . S
C901 C897 1.393 . S
C901 C900 1.397 . S
C901 H911 0.930 . S
C902 O882 1.264 . S
C902 O903 1.260 . S
O903 C902 1.260 . S
O904 Eu884 2.438 . S
O904 C886 1.263 . S
O905 Eu884 2.472 . S
O905 C886 1.264 . S
H906 C875 0.930 . S
H907 C877 0.930 . S
H908 C879 0.930 . S
H909 C898 0.930 . S
H910 C899 0.930 . S
H911 C901 0.930 . S
C912 C913 1.387 . S
C912 C917 1.380 . S
C912 C928 1.494 . S
C913 C912 1.387 . S
C913 C914 1.386 . S
C913 H944 0.930 . S
C914 C913 1.386 . S
C914 C915 1.397 . S
C915 C914 1.397 . S
C915 C916 1.393 . S
C915 H945 0.930 . S
C916 C915 1.393 . S
C916 C917 1.395 . S
C917 C912 1.380 . S
C917 C916 1.395 . S
C917 H946 0.930 . S
O918 Tb919 2.295 1_554 S
O918 C931 1.242 . S
Tb919 O918 2.295 1_556 S
Tb919 O920 2.312 . S
Tb919 O923 2.438 1_556 S
Tb919 O925 2.472 1_556 S
Tb919 O927 2.308 . S
Tb919 C928 2.821 1_556 S
O920 Tb919 2.312 . S
O920 C940 1.264 . S
O921 Eu922 2.308 . S
O921 C931 1.243 . S
Eu922 O921 2.308 . S
Eu922 C924 2.821 . S
Eu922 O926 2.295 . S
Eu922 O933 2.312 . S
Eu922 O942 2.438 . S
Eu922 O943 2.472 . S
O923 Tb919 2.438 1_554 S
O923 C928 1.263 . S
C924 Eu922 2.821 . S
C924 C934 1.494 . S
C924 O942 1.263 . S
C924 O943 1.264 . S
O925 Tb919 2.472 1_554 S
O925 C928 1.264 . S
O926 Eu922 2.295 . S
O926 C932 1.242 1_554 S
O927 Tb919 2.308 . S
O927 C932 1.243 . S
C928 C912 1.494 . S
C928 Tb919 2.821 1_554 S
C928 O923 1.263 . S
C928 O925 1.264 . S
C929 O930 1.260 . S
C929 O933 1.264 . S
O930 C929 1.260 . S
C931 O918 1.242 . S
C931 O921 1.243 . S
C932 O926 1.242 1_556 S
C932 O927 1.243 . S
O933 Eu922 2.312 . S
O933 C929 1.264 . S
C934 C924 1.494 . S
C934 C936 1.380 . S
C934 C937 1.387 . S
C935 C936 1.395 . S
C935 C939 1.395 . S
C936 C934 1.380 . S
C936 C935 1.395 . S
C936 H947 0.930 . S
C937 C934 1.387 . S
C937 C938 1.386 . S
C937 H948 0.930 . S
C938 C937 1.386 . S
C938 C939 1.409 . S
C939 C935 1.395 . S
C939 C938 1.409 . S
C939 H949 0.917 1_554 S
C940 O920 1.264 . S
C940 O941 1.260 . S
O941 C940 1.260 . S
O942 Eu922 2.438 . S
O942 C924 1.263 . S
O943 Eu922 2.472 . S
O943 C924 1.264 . S
H944 C913 0.930 . S
H945 C915 0.930 . S
H946 C917 0.930 . S
H947 C936 0.930 . S
H948 C937 0.930 . S
H949 C939 0.917 1_556 S
C950 C951 1.387 . S
C950 C955 1.380 . S
C950 C966 1.494 . S
C951 C950 1.387 . S
C951 C952 1.386 . S
C951 H982 0.930 . S
C952 C951 1.386 . S
C952 C953 1.397 . S
C953 C952 1.397 . S
C953 C954 1.393 . S
C953 H983 0.930 . S
C954 C953 1.393 . S
C954 C955 1.395 . S
C955 C950 1.380 . S
C955 C954 1.395 . S
C955 H984 0.930 . S
O956 Tb957 2.295 1_554 S
O956 C969 1.242 . S
Tb957 O956 2.295 1_556 S
Tb957 O958 2.312 . S
Tb957 O961 2.438 1_556 S
Tb957 O963 2.472 1_556 S
Tb957 O965 2.308 . S
Tb957 C966 2.821 1_556 S
O958 Tb957 2.312 . S
O958 C978 1.264 . S
O959 Eu960 2.308 . S
O959 C969 1.243 . S
Eu960 O959 2.308 . S
Eu960 C962 2.821 . S
Eu960 O964 2.295 . S
Eu960 O971 2.312 . S
Eu960 O980 2.438 . S
Eu960 O981 2.472 . S
O961 Tb957 2.438 1_554 S
O961 C966 1.263 . S
C962 Eu960 2.821 . S
C962 C972 1.494 . S
C962 O980 1.263 . S
C962 O981 1.264 . S
O963 Tb957 2.472 1_554 S
O963 C966 1.264 . S
O964 Eu960 2.295 . S
O964 C970 1.242 1_554 S
O965 Tb957 2.308 . S
O965 C970 1.243 . S
C966 C950 1.494 . S
C966 Tb957 2.821 1_554 S
C966 O961 1.263 . S
C966 O963 1.264 . S
C967 O968 1.260 . S
C967 O971 1.264 . S
O968 C967 1.260 . S
C969 O956 1.242 . S
C969 O959 1.243 . S
C970 O964 1.242 1_556 S
C970 O965 1.243 . S
O971 Eu960 2.312 . S
O971 C967 1.264 . S
C972 C962 1.494 . S
C972 C974 1.380 . S
C972 C975 1.387 . S
C973 C974 1.395 . S
C973 C977 1.395 . S
C974 C972 1.380 . S
C974 C973 1.395 . S
C974 H985 0.930 . S
C975 C972 1.387 . S
C975 C976 1.386 . S
C975 H986 0.930 . S
C976 C975 1.386 . S
C976 C977 1.409 . S
C977 C973 1.395 . S
C977 C976 1.409 . S
C977 H987 0.917 1_554 S
C978 O958 1.264 . S
C978 O979 1.260 . S
O979 C978 1.260 . S
O980 Eu960 2.438 . S
O980 C962 1.263 . S
O981 Eu960 2.472 . S
O981 C962 1.264 . S
H982 C951 0.930 . S
H983 C953 0.930 . S
H984 C955 0.930 . S
H985 C974 0.930 . S
H986 C975 0.930 . S
H987 C977 0.917 1_556 S
C988 C989 1.387 . S
C988 C993 1.380 . S
C988 C1004 1.494 . S
C989 C988 1.387 . S
C989 C990 1.386 . S
C989 H1020 0.930 . S
C990 C989 1.386 . S
C990 C991 1.397 . S
C991 C990 1.397 . S
C991 C992 1.393 . S
C991 H1021 0.930 . S
C992 C991 1.393 . S
C992 C993 1.395 . S
C993 C988 1.380 . S
C993 C992 1.395 . S
C993 H1022 0.930 . S
O994 Tb995 2.295 . S
O994 C1007 1.242 . S
Tb995 O994 2.295 . S
Tb995 O996 2.312 . S
Tb995 O999 2.438 . S
Tb995 O1001 2.472 . S
Tb995 O1003 2.308 . S
Tb995 C1004 2.821 . S
O996 Tb995 2.312 . S
O996 C1016 1.264 . S
O997 Eu998 2.308 . S
O997 C1007 1.243 . S
Eu998 O997 2.308 . S
Eu998 C1000 2.821 . S
Eu998 O1002 2.295 . S
Eu998 O1009 2.312 . S
Eu998 O1018 2.438 . S
Eu998 O1019 2.472 . S
O999 Tb995 2.438 . S
O999 C1004 1.263 . S
C1000 Eu998 2.821 . S
C1000 C1010 1.494 . S
C1000 O1018 1.263 . S
C1000 O1019 1.264 . S
O1001 Tb995 2.472 . S
O1001 C1004 1.264 . S
O1002 Eu998 2.295 . S
O1002 C1008 1.242 . S
O1003 Tb995 2.308 . S
O1003 C1008 1.243 . S
C1004 C988 1.494 . S
C1004 Tb995 2.821 . S
C1004 O999 1.263 . S
C1004 O1001 1.264 . S
C1005 O1006 1.260 . S
C1005 O1009 1.264 . S
O1006 C1005 1.260 . S
C1007 O994 1.242 . S
C1007 O997 1.243 . S
C1008 O1002 1.242 . S
C1008 O1003 1.243 . S
O1009 Eu998 2.312 . S
O1009 C1005 1.264 . S
C1010 C1000 1.494 . S
C1010 C1012 1.380 . S
C1010 C1013 1.387 . S
C1011 C1012 1.395 . S
C1011 C1015 1.393 . S
C1012 C1010 1.380 . S
C1012 C1011 1.395 . S
C1012 H1023 0.930 . S
C1013 C1010 1.387 . S
C1013 C1014 1.386 . S
C1013 H1024 0.930 . S
C1014 C1013 1.386 . S
C1014 C1015 1.397 . S
C1015 C1011 1.393 . S
C1015 C1014 1.397 . S
C1015 H1025 0.930 . S
C1016 O996 1.264 . S
C1016 O1017 1.260 . S
O1017 C1016 1.260 . S
O1018 Eu998 2.438 . S
O1018 C1000 1.263 . S
O1019 Eu998 2.472 . S
O1019 C1000 1.264 . S
H1020 C989 0.930 . S
H1021 C991 0.930 . S
H1022 C993 0.930 . S
H1023 C1012 0.930 . S
H1024 C1013 0.930 . S
H1025 C1015 0.930 . S
C1026 C1027 1.387 . S
C1026 C1031 1.380 . S
C1026 C1042 1.494 . S
C1027 C1026 1.387 . S
C1027 C1028 1.386 . S
C1027 H1058 0.930 . S
C1028 C1027 1.386 . S
C1028 C1029 1.397 . S
C1029 C1028 1.397 . S
C1029 C1030 1.393 . S
C1029 H1059 0.930 . S
C1030 C1029 1.393 . S
C1030 C1031 1.395 . S
C1031 C1026 1.380 . S
C1031 C1030 1.395 . S
C1031 H1060 0.930 . S
O1032 Tb1033 2.295 . S
O1032 C1045 1.242 . S
Tb1033 O1032 2.295 . S
Tb1033 O1034 2.312 . S
Tb1033 O1037 2.438 . S
Tb1033 O1039 2.472 . S
Tb1033 O1041 2.308 . S
Tb1033 C1042 2.821 . S
O1034 Tb1033 2.312 . S
O1034 C1054 1.264 . S
O1035 Eu1036 2.308 . S
O1035 C1045 1.243 . S
Eu1036 O1035 2.308 . S
Eu1036 C1038 2.821 . S
Eu1036 O1040 2.295 . S
Eu1036 O1047 2.312 . S
Eu1036 O1056 2.438 . S
Eu1036 O1057 2.472 . S
O1037 Tb1033 2.438 . S
O1037 C1042 1.263 . S
C1038 Eu1036 2.821 . S
C1038 C1048 1.494 . S
C1038 O1056 1.263 . S
C1038 O1057 1.264 . S
O1039 Tb1033 2.472 . S
O1039 C1042 1.264 . S
O1040 Eu1036 2.295 . S
O1040 C1046 1.242 . S
O1041 Tb1033 2.308 . S
O1041 C1046 1.243 . S
C1042 C1026 1.494 . S
C1042 Tb1033 2.821 . S
C1042 O1037 1.263 . S
C1042 O1039 1.264 . S
C1043 O1044 1.260 . S
C1043 O1047 1.264 . S
O1044 C1043 1.260 . S
C1045 O1032 1.242 . S
C1045 O1035 1.243 . S
C1046 O1040 1.242 . S
C1046 O1041 1.243 . S
O1047 Eu1036 2.312 . S
O1047 C1043 1.264 . S
C1048 C1038 1.494 . S
C1048 C1050 1.380 . S
C1048 C1051 1.387 . S
C1049 C1050 1.395 . S
C1049 C1053 1.393 . S
C1050 C1048 1.380 . S
C1050 C1049 1.395 . S
C1050 H1061 0.930 . S
C1051 C1048 1.387 . S
C1051 C1052 1.386 . S
C1051 H1062 0.930 . S
C1052 C1051 1.386 . S
C1052 C1053 1.397 . S
C1053 C1049 1.393 . S
C1053 C1052 1.397 . S
C1053 H1063 0.930 . S
C1054 O1034 1.264 . S
C1054 O1055 1.260 . S
O1055 C1054 1.260 . S
O1056 Eu1036 2.438 . S
O1056 C1038 1.263 . S
O1057 Eu1036 2.472 . S
O1057 C1038 1.264 . S
H1058 C1027 0.930 . S
H1059 C1029 0.930 . S
H1060 C1031 0.930 . S
H1061 C1050 0.930 . S
H1062 C1051 0.930 . S
H1063 C1053 0.930 . S
C1064 C1065 1.387 . S
C1064 C1069 1.380 . S
C1064 C1080 1.494 . S
C1065 C1064 1.387 . S
C1065 C1066 1.386 . S
C1065 H1096 0.930 . S
C1066 C1065 1.386 . S
C1066 C1067 1.409 . S
C1067 C1066 1.409 . S
C1067 C1068 1.395 . S
C1067 H1097 0.917 1_556 S
C1068 C1067 1.395 . S
C1068 C1069 1.395 . S
C1069 C1064 1.380 . S
C1069 C1068 1.395 . S
C1069 H1098 0.930 . S
O1070 Tb1071 2.295 . S
O1070 C1083 1.242 1_556 S
Tb1071 O1070 2.295 . S
Tb1071 O1072 2.312 . S
Tb1071 O1075 2.438 . S
Tb1071 O1077 2.472 . S
Tb1071 O1079 2.308 . S
Tb1071 C1080 2.821 . S
O1072 Tb1071 2.312 . S
O1072 C1092 1.264 . S
O1073 Eu1074 2.308 . S
O1073 C1083 1.243 . S
Eu1074 O1073 2.308 . S
Eu1074 C1076 2.821 1_554 S
Eu1074 O1078 2.295 1_554 S
Eu1074 O1085 2.312 . S
Eu1074 O1094 2.438 1_554 S
Eu1074 O1095 2.472 1_554 S
O1075 Tb1071 2.438 . S
O1075 C1080 1.263 . S
C1076 Eu1074 2.821 1_556 S
C1076 C1086 1.494 . S
C1076 O1094 1.263 . S
C1076 O1095 1.264 . S
O1077 Tb1071 2.472 . S
O1077 C1080 1.264 . S
O1078 Eu1074 2.295 1_556 S
O1078 C1084 1.242 . S
O1079 Tb1071 2.308 . S
O1079 C1084 1.243 . S
C1080 C1064 1.494 . S
C1080 Tb1071 2.821 . S
C1080 O1075 1.263 . S
C1080 O1077 1.264 . S
C1081 O1082 1.260 . S
C1081 O1085 1.264 . S
O1082 C1081 1.260 . S
C1083 O1070 1.242 1_554 S
C1083 O1073 1.243 . S
C1084 O1078 1.242 . S
C1084 O1079 1.243 . S
O1085 Eu1074 2.312 . S
O1085 C1081 1.264 . S
C1086 C1076 1.494 . S
C1086 C1088 1.380 . S
C1086 C1089 1.387 . S
C1087 C1088 1.395 . S
C1087 C1091 1.393 . S
C1088 C1086 1.380 . S
C1088 C1087 1.395 . S
C1088 H1099 0.930 . S
C1089 C1086 1.387 . S
C1089 C1090 1.386 . S
C1089 H1100 0.930 . S
C1090 C1089 1.386 . S
C1090 C1091 1.397 . S
C1091 C1087 1.393 . S
C1091 C1090 1.397 . S
C1091 H1101 0.930 . S
C1092 O1072 1.264 . S
C1092 O1093 1.260 . S
O1093 C1092 1.260 . S
O1094 Eu1074 2.438 1_556 S
O1094 C1076 1.263 . S
O1095 Eu1074 2.472 1_556 S
O1095 C1076 1.264 . S
H1096 C1065 0.930 . S
H1097 C1067 0.917 1_554 S
H1098 C1069 0.930 . S
H1099 C1088 0.930 . S
H1100 C1089 0.930 . S
H1101 C1091 0.930 . S
C1102 C1103 1.387 . S
C1102 C1107 1.380 . S
C1102 C1118 1.494 . S
C1103 C1102 1.387 . S
C1103 C1104 1.386 . S
C1103 H1134 0.930 . S
C1104 C1103 1.386 . S
C1104 C1105 1.409 . S
C1105 C1104 1.409 . S
C1105 C1106 1.395 . S
C1105 H1135 0.917 1_556 S
C1106 C1105 1.395 . S
C1106 C1107 1.395 . S
C1107 C1102 1.380 . S
C1107 C1106 1.395 . S
C1107 H1136 0.930 . S
O1108 Tb1109 2.295 . S
O1108 C1121 1.242 1_556 S
Tb1109 O1108 2.295 . S
Tb1109 O1110 2.312 . S
Tb1109 O1113 2.438 . S
Tb1109 O1115 2.472 . S
Tb1109 O1117 2.308 . S
Tb1109 C1118 2.821 . S
O1110 Tb1109 2.312 . S
O1110 C1130 1.264 . S
O1111 Eu1112 2.308 . S
O1111 C1121 1.243 . S
Eu1112 O1111 2.308 . S
Eu1112 C1114 2.821 1_554 S
Eu1112 O1116 2.295 1_554 S
Eu1112 O1123 2.312 . S
Eu1112 O1132 2.438 1_554 S
Eu1112 O1133 2.472 1_554 S
O1113 Tb1109 2.438 . S
O1113 C1118 1.263 . S
C1114 Eu1112 2.821 1_556 S
C1114 C1124 1.494 . S
C1114 O1132 1.263 . S
C1114 O1133 1.264 . S
O1115 Tb1109 2.472 . S
O1115 C1118 1.264 . S
O1116 Eu1112 2.295 1_556 S
O1116 C1122 1.242 . S
O1117 Tb1109 2.308 . S
O1117 C1122 1.243 . S
C1118 C1102 1.494 . S
C1118 Tb1109 2.821 . S
C1118 O1113 1.263 . S
C1118 O1115 1.264 . S
C1119 O1120 1.260 . S
C1119 O1123 1.264 . S
O1120 C1119 1.260 . S
C1121 O1108 1.242 1_554 S
C1121 O1111 1.243 . S
C1122 O1116 1.242 . S
C1122 O1117 1.243 . S
O1123 Eu1112 2.312 . S
O1123 C1119 1.264 . S
C1124 C1114 1.494 . S
C1124 C1126 1.380 . S
C1124 C1127 1.387 . S
C1125 C1126 1.395 . S
C1125 C1129 1.393 . S
C1126 C1124 1.380 . S
C1126 C1125 1.395 . S
C1126 H1137 0.930 . S
C1127 C1124 1.387 . S
C1127 C1128 1.386 . S
C1127 H1138 0.930 . S
C1128 C1127 1.386 . S
C1128 C1129 1.397 . S
C1129 C1125 1.393 . S
C1129 C1128 1.397 . S
C1129 H1139 0.930 . S
C1130 O1110 1.264 . S
C1130 O1131 1.260 . S
O1131 C1130 1.260 . S
O1132 Eu1112 2.438 1_556 S
O1132 C1114 1.263 . S
O1133 Eu1112 2.472 1_556 S
O1133 C1114 1.264 . S
H1134 C1103 0.930 . S
H1135 C1105 0.917 1_554 S
H1136 C1107 0.930 . S
H1137 C1126 0.930 . S
H1138 C1127 0.930 . S
H1139 C1129 0.930 . S
C1140 C1141 1.387 . S
C1140 C1145 1.380 . S
C1140 C1156 1.494 . S
C1141 C1140 1.387 . S
C1141 C1142 1.386 . S
C1141 H1172 0.930 . S
C1142 C1141 1.386 . S
C1142 C1143 1.397 . S
C1143 C1142 1.397 . S
C1143 C1144 1.393 . S
C1143 H1173 0.930 . S
C1144 C1143 1.393 . S
C1144 C1145 1.395 . S
C1145 C1140 1.380 . S
C1145 C1144 1.395 . S
C1145 H1174 0.930 . S
O1146 Tb1147 2.295 . S
O1146 C1159 1.242 . S
Tb1147 O1146 2.295 . S
Tb1147 O1148 2.312 . S
Tb1147 O1151 2.438 . S
Tb1147 O1153 2.472 . S
Tb1147 O1155 2.308 . S
Tb1147 C1156 2.821 . S
O1148 Tb1147 2.312 . S
O1148 C1168 1.264 . S
O1149 Eu1150 2.308 . S
O1149 C1159 1.243 . S
Eu1150 O1149 2.308 . S
Eu1150 C1152 2.821 . S
Eu1150 O1154 2.295 . S
Eu1150 O1161 2.312 . S
Eu1150 O1170 2.438 . S
Eu1150 O1171 2.472 . S
O1151 Tb1147 2.438 . S
O1151 C1156 1.263 . S
C1152 Eu1150 2.821 . S
C1152 C1162 1.494 . S
C1152 O1170 1.263 . S
C1152 O1171 1.264 . S
O1153 Tb1147 2.472 . S
O1153 C1156 1.264 . S
O1154 Eu1150 2.295 . S
O1154 C1160 1.242 . S
O1155 Tb1147 2.308 . S
O1155 C1160 1.243 . S
C1156 C1140 1.494 . S
C1156 Tb1147 2.821 . S
C1156 O1151 1.263 . S
C1156 O1153 1.264 . S
C1157 O1158 1.260 . S
C1157 O1161 1.264 . S
O1158 C1157 1.260 . S
C1159 O1146 1.242 . S
C1159 O1149 1.243 . S
C1160 O1154 1.242 . S
C1160 O1155 1.243 . S
O1161 Eu1150 2.312 . S
O1161 C1157 1.264 . S
C1162 C1152 1.494 . S
C1162 C1164 1.380 . S
C1162 C1165 1.387 . S
C1163 C1164 1.395 . S
C1163 C1167 1.393 . S
C1164 C1162 1.380 . S
C1164 C1163 1.395 . S
C1164 H1175 0.930 . S
C1165 C1162 1.387 . S
C1165 C1166 1.386 . S
C1165 H1176 0.930 . S
C1166 C1165 1.386 . S
C1166 C1167 1.397 . S
C1167 C1163 1.393 . S
C1167 C1166 1.397 . S
C1167 H1177 0.930 . S
C1168 O1148 1.264 . S
C1168 O1169 1.260 . S
O1169 C1168 1.260 . S
O1170 Eu1150 2.438 . S
O1170 C1152 1.263 . S
O1171 Eu1150 2.472 . S
O1171 C1152 1.264 . S
H1172 C1141 0.930 . S
H1173 C1143 0.930 . S
H1174 C1145 0.930 . S
H1175 C1164 0.930 . S
H1176 C1165 0.930 . S
H1177 C1167 0.930 . S
C1178 C1179 1.387 . S
C1178 C1183 1.380 . S
C1178 C1194 1.494 . S
C1179 C1178 1.387 . S
C1179 C1180 1.386 . S
C1179 H1210 0.930 . S
C1180 C1179 1.386 . S
C1180 C1181 1.397 . S
C1181 C1180 1.397 . S
C1181 C1182 1.393 . S
C1181 H1211 0.930 . S
C1182 C1181 1.393 . S
C1182 C1183 1.395 . S
C1183 C1178 1.380 . S
C1183 C1182 1.395 . S
C1183 H1212 0.930 . S
O1184 Tb1185 2.295 . S
O1184 C1197 1.242 . S
Tb1185 O1184 2.295 . S
Tb1185 O1186 2.312 . S
Tb1185 O1189 2.438 . S
Tb1185 O1191 2.472 . S
Tb1185 O1193 2.308 . S
Tb1185 C1194 2.821 . S
O1186 Tb1185 2.312 . S
O1186 C1206 1.264 . S
O1187 Eu1188 2.308 . S
O1187 C1197 1.243 . S
Eu1188 O1187 2.308 . S
Eu1188 C1190 2.821 . S
Eu1188 O1192 2.295 . S
Eu1188 O1199 2.312 . S
Eu1188 O1208 2.438 . S
Eu1188 O1209 2.472 . S
O1189 Tb1185 2.438 . S
O1189 C1194 1.263 . S
C1190 Eu1188 2.821 . S
C1190 C1200 1.494 . S
C1190 O1208 1.263 . S
C1190 O1209 1.264 . S
O1191 Tb1185 2.472 . S
O1191 C1194 1.264 . S
O1192 Eu1188 2.295 . S
O1192 C1198 1.242 . S
O1193 Tb1185 2.308 . S
O1193 C1198 1.243 . S
C1194 C1178 1.494 . S
C1194 Tb1185 2.821 . S
C1194 O1189 1.263 . S
C1194 O1191 1.264 . S
C1195 O1196 1.260 . S
C1195 O1199 1.264 . S
O1196 C1195 1.260 . S
C1197 O1184 1.242 . S
C1197 O1187 1.243 . S
C1198 O1192 1.242 . S
C1198 O1193 1.243 . S
O1199 Eu1188 2.312 . S
O1199 C1195 1.264 . S
C1200 C1190 1.494 . S
C1200 C1202 1.380 . S
C1200 C1203 1.387 . S
C1201 C1202 1.395 . S
C1201 C1205 1.393 . S
C1202 C1200 1.380 . S
C1202 C1201 1.395 . S
C1202 H1213 0.930 . S
C1203 C1200 1.387 . S
C1203 C1204 1.386 . S
C1203 H1214 0.930 . S
C1204 C1203 1.386 . S
C1204 C1205 1.397 . S
C1205 C1201 1.393 . S
C1205 C1204 1.397 . S
C1205 H1215 0.930 . S
C1206 O1186 1.264 . S
C1206 O1207 1.260 . S
O1207 C1206 1.260 . S
O1208 Eu1188 2.438 . S
O1208 C1190 1.263 . S
O1209 Eu1188 2.472 . S
O1209 C1190 1.264 . S
H1210 C1179 0.930 . S
H1211 C1181 0.930 . S
H1212 C1183 0.930 . S
H1213 C1202 0.930 . S
H1214 C1203 0.930 . S
H1215 C1205 0.930 . S
H1216 C1222 0.930 . S
H1217 C1226 0.930 . S
H1218 C1231 0.929 . S
H1219 C1229 0.929 . S
H1220 C1224 0.929 . S
H1221 C1230 0.929 . S
C1222 H1216 0.930 . S
C1222 C1223 1.367 1_554 S
C1222 C1230 1.378 . S
C1223 C1222 1.367 1_556 S
C1223 C1231 1.433 . S
C1224 H1220 0.929 . S
C1224 C1226 1.378 . S
C1224 C1228 1.350 . S
C1225 C1228 1.463 . S
C1225 C1230 1.350 1_556 S
C1225 N1233 1.427 . S
C1226 H1217 0.930 . S
C1226 C1224 1.378 . S
C1226 C1227 1.367 . S
C1227 C1226 1.367 . S
C1227 C1229 1.433 1_556 S
C1228 C1224 1.350 . S
C1228 C1225 1.463 . S
C1228 N1232 1.427 1_556 S
C1229 H1219 0.929 . S
C1229 C1227 1.433 1_554 S
C1229 N1232 1.384 . S
C1230 H1221 0.929 . S
C1230 C1222 1.378 . S
C1230 C1225 1.350 1_554 S
C1231 H1218 0.929 . S
C1231 C1223 1.433 . S
C1231 N1233 1.384 . S
N1232 C1228 1.427 1_554 S
N1232 C1229 1.384 . S
N1233 C1225 1.427 . S
N1233 C1231 1.384 . S
H1234 C1240 0.930 . S
H1235 C1244 0.930 . S
H1236 C1249 0.929 . S
H1237 C1247 0.929 . S
H1238 C1242 0.929 . S
H1239 C1248 0.929 . S
C1240 H1234 0.930 . S
C1240 C1241 1.367 1_554 S
C1240 C1248 1.378 . S
C1241 C1240 1.367 1_556 S
C1241 C1249 1.433 . S
C1242 H1238 0.929 . S
C1242 C1244 1.378 . S
C1242 C1246 1.350 . S
C1243 C1246 1.463 . S
C1243 C1248 1.350 1_556 S
C1243 N1251 1.427 . S
C1244 H1235 0.930 . S
C1244 C1242 1.378 . S
C1244 C1245 1.367 . S
C1245 C1244 1.367 . S
C1245 C1247 1.433 1_556 S
C1246 C1242 1.350 . S
C1246 C1243 1.463 . S
C1246 N1250 1.427 1_556 S
C1247 H1237 0.929 . S
C1247 C1245 1.433 1_554 S
C1247 N1250 1.384 . S
C1248 H1239 0.929 . S
C1248 C1240 1.378 . S
C1248 C1243 1.350 1_554 S
C1249 H1236 0.929 . S
C1249 C1241 1.433 . S
C1249 N1251 1.384 . S
N1250 C1246 1.427 1_554 S
N1250 C1247 1.384 . S
N1251 C1243 1.427 . S
N1251 C1249 1.384 . S
H1252 C1258 0.930 . S
H1253 C1262 0.930 . S
H1254 C1267 0.929 . S
H1255 C1265 0.929 . S
H1256 C1260 0.929 . S
H1257 C1266 0.929 . S
C1258 H1252 0.930 . S
C1258 C1259 1.367 . S
C1258 C1266 1.378 . S
C1259 C1258 1.367 . S
C1259 C1267 1.433 . S
C1260 H1256 0.929 . S
C1260 C1262 1.378 . S
C1260 C1264 1.350 . S
C1261 C1264 1.463 . S
C1261 C1266 1.350 . S
C1261 N1269 1.427 . S
C1262 H1253 0.930 . S
C1262 C1260 1.378 . S
C1262 C1263 1.367 . S
C1263 C1262 1.367 . S
C1263 C1265 1.433 . S
C1264 C1260 1.350 . S
C1264 C1261 1.463 . S
C1264 N1268 1.427 . S
C1265 H1255 0.929 . S
C1265 C1263 1.433 . S
C1265 N1268 1.384 . S
C1266 H1257 0.929 . S
C1266 C1258 1.378 . S
C1266 C1261 1.350 . S
C1267 H1254 0.929 . S
C1267 C1259 1.433 . S
C1267 N1269 1.384 . S
N1268 C1264 1.427 . S
N1268 C1265 1.384 . S
N1269 C1261 1.427 . S
N1269 C1267 1.384 . S
H1270 C1276 0.930 . S
H1271 C1280 0.930 . S
H1272 C1285 0.929 . S
H1273 C1283 0.929 . S
H1274 C1278 0.929 . S
H1275 C1284 0.929 . S
C1276 H1270 0.930 . S
C1276 C1277 1.367 . S
C1276 C1284 1.378 . S
C1277 C1276 1.367 . S
C1277 C1285 1.433 . S
C1278 H1274 0.929 . S
C1278 C1280 1.378 . S
C1278 C1282 1.350 . S
C1279 C1282 1.463 . S
C1279 C1284 1.350 . S
C1279 N1287 1.427 . S
C1280 H1271 0.930 . S
C1280 C1278 1.378 . S
C1280 C1281 1.367 . S
C1281 C1280 1.367 . S
C1281 C1283 1.433 . S
C1282 C1278 1.350 . S
C1282 C1279 1.463 . S
C1282 N1286 1.427 . S
C1283 H1273 0.929 . S
C1283 C1281 1.433 . S
C1283 N1286 1.384 . S
C1284 H1275 0.929 . S
C1284 C1276 1.378 . S
C1284 C1279 1.350 . S
C1285 H1272 0.929 . S
C1285 C1277 1.433 . S
C1285 N1287 1.384 . S
N1286 C1282 1.427 . S
N1286 C1283 1.384 . S
N1287 C1279 1.427 . S
N1287 C1285 1.384 . S
H1288 C1294 0.930 . S
H1289 C1298 0.930 . S
H1290 C1303 0.929 . S
H1291 C1301 0.929 . S
H1292 C1296 0.929 . S
H1293 C1302 0.929 . S
C1294 H1288 0.930 . S
C1294 C1295 1.367 1_556 S
C1294 C1302 1.378 . S
C1295 C1294 1.367 1_554 S
C1295 C1303 1.433 . S
C1296 H1292 0.929 . S
C1296 C1298 1.378 . S
C1296 C1300 1.350 . S
C1297 C1300 1.463 . S
C1297 C1302 1.350 1_554 S
C1297 N1305 1.427 . S
C1298 H1289 0.930 . S
C1298 C1296 1.378 . S
C1298 C1299 1.367 . S
C1299 C1298 1.367 . S
C1299 C1301 1.433 1_554 S
C1300 C1296 1.350 . S
C1300 C1297 1.463 . S
C1300 N1304 1.427 1_554 S
C1301 H1291 0.929 . S
C1301 C1299 1.433 1_556 S
C1301 N1304 1.384 . S
C1302 H1293 0.929 . S
C1302 C1294 1.378 . S
C1302 C1297 1.350 1_556 S
C1303 H1290 0.929 . S
C1303 C1295 1.433 . S
C1303 N1305 1.384 . S
N1304 C1300 1.427 1_556 S
N1304 C1301 1.384 . S
N1305 C1297 1.427 . S
N1305 C1303 1.384 . S
H1306 C1312 0.930 . S
H1307 C1316 0.930 . S
H1308 C1321 0.929 . S
H1309 C1319 0.929 . S
H1310 C1314 0.929 . S
H1311 C1320 0.929 . S
C1312 H1306 0.930 . S
C1312 C1313 1.367 . S
C1312 C1320 1.378 . S
C1313 C1312 1.367 . S
C1313 C1321 1.433 1_554 S
C1314 H1310 0.929 . S
C1314 C1316 1.378 . S
C1314 C1318 1.350 1_556 S
C1315 C1318 1.463 . S
C1315 C1320 1.350 . S
C1315 N1323 1.427 1_554 S
C1316 H1307 0.930 . S
C1316 C1314 1.378 . S
C1316 C1317 1.367 1_556 S
C1317 C1316 1.367 1_554 S
C1317 C1319 1.433 . S
C1318 C1314 1.350 1_554 S
C1318 C1315 1.463 . S
C1318 N1322 1.427 . S
C1319 H1309 0.929 . S
C1319 C1317 1.433 . S
C1319 N1322 1.384 . S
C1320 H1311 0.929 . S
C1320 C1312 1.378 . S
C1320 C1315 1.350 . S
C1321 H1308 0.929 . S
C1321 C1313 1.433 1_556 S
C1321 N1323 1.384 . S
N1322 C1318 1.427 . S
N1322 C1319 1.384 . S
N1323 C1315 1.427 1_556 S
N1323 C1321 1.384 . S
H1324 C1330 0.930 . S
H1325 C1334 0.930 . S
H1326 C1339 0.929 . S
H1327 C1337 0.929 . S
H1328 C1332 0.929 . S
H1329 C1338 0.929 . S
C1330 H1324 0.930 . S
C1330 C1331 1.367 . S
C1330 C1338 1.378 . S
C1331 C1330 1.367 . S
C1331 C1339 1.433 . S
C1332 H1328 0.929 . S
C1332 C1334 1.378 . S
C1332 C1336 1.350 . S
C1333 C1336 1.463 . S
C1333 C1338 1.350 . S
C1333 N1341 1.427 . S
C1334 H1325 0.930 . S
C1334 C1332 1.378 . S
C1334 C1335 1.367 . S
C1335 C1334 1.367 . S
C1335 C1337 1.433 . S
C1336 C1332 1.350 . S
C1336 C1333 1.463 . S
C1336 N1340 1.427 . S
C1337 H1327 0.929 . S
C1337 C1335 1.433 . S
C1337 N1340 1.384 . S
C1338 H1329 0.929 . S
C1338 C1330 1.378 . S
C1338 C1333 1.350 . S
C1339 H1326 0.929 . S
C1339 C1331 1.433 . S
C1339 N1341 1.384 . S
N1340 C1336 1.427 . S
N1340 C1337 1.384 . S
N1341 C1333 1.427 . S
N1341 C1339 1.384 . S
H1342 C1348 0.930 . S
H1343 C1352 0.930 . S
H1344 C1357 0.929 . S
H1345 C1355 0.929 . S
H1346 C1350 0.929 . S
H1347 C1356 0.929 . S
C1348 H1342 0.930 . S
C1348 C1349 1.367 . S
C1348 C1356 1.378 . S
C1349 C1348 1.367 . S
C1349 C1357 1.433 . S
C1350 H1346 0.929 . S
C1350 C1352 1.378 . S
C1350 C1354 1.350 . S
C1351 C1354 1.463 . S
C1351 C1356 1.350 . S
C1351 N1359 1.427 . S
C1352 H1343 0.930 . S
C1352 C1350 1.378 . S
C1352 C1353 1.367 . S
C1353 C1352 1.367 . S
C1353 C1355 1.433 . S
C1354 C1350 1.350 . S
C1354 C1351 1.463 . S
C1354 N1358 1.427 . S
C1355 H1345 0.929 . S
C1355 C1353 1.433 . S
C1355 N1358 1.384 . S
C1356 H1347 0.929 . S
C1356 C1348 1.378 . S
C1356 C1351 1.350 . S
C1357 H1344 0.929 . S
C1357 C1349 1.433 . S
C1357 N1359 1.384 . S
N1358 C1354 1.427 . S
N1358 C1355 1.384 . S
N1359 C1351 1.427 . S
N1359 C1357 1.384 . S
H1360 C1366 0.930 . S
H1361 C1370 0.930 . S
H1362 C1375 0.929 . S
H1363 C1373 0.929 . S
H1364 C1368 0.929 . S
H1365 C1374 0.929 . S
C1366 H1360 0.930 . S
C1366 C1367 1.367 . S
C1366 C1374 1.378 . S
C1367 C1366 1.367 . S
C1367 C1375 1.433 . S
C1368 H1364 0.929 . S
C1368 C1370 1.378 . S
C1368 C1372 1.350 . S
C1369 C1372 1.463 . S
C1369 C1374 1.350 . S
C1369 N1377 1.427 . S
C1370 H1361 0.930 . S
C1370 C1368 1.378 . S
C1370 C1371 1.367 . S
C1371 C1370 1.367 . S
C1371 C1373 1.433 . S
C1372 C1368 1.350 . S
C1372 C1369 1.463 . S
C1372 N1376 1.427 . S
C1373 H1363 0.929 . S
C1373 C1371 1.433 . S
C1373 N1376 1.384 . S
C1374 H1365 0.929 . S
C1374 C1366 1.378 . S
C1374 C1369 1.350 . S
C1375 H1362 0.929 . S
C1375 C1367 1.433 . S
C1375 N1377 1.384 . S
N1376 C1372 1.427 . S
N1376 C1373 1.384 . S
N1377 C1369 1.427 . S
N1377 C1375 1.384 . S
H1378 C1384 0.930 . S
H1379 C1388 0.930 . S
H1380 C1393 0.929 . S
H1381 C1391 0.929 . S
H1382 C1386 0.929 . S
H1383 C1392 0.929 . S
C1384 H1378 0.930 . S
C1384 C1385 1.367 . S
C1384 C1392 1.378 . S
C1385 C1384 1.367 . S
C1385 C1393 1.433 . S
C1386 H1382 0.929 . S
C1386 C1388 1.378 . S
C1386 C1390 1.350 . S
C1387 C1390 1.463 . S
C1387 C1392 1.350 . S
C1387 N1395 1.427 . S
C1388 H1379 0.930 . S
C1388 C1386 1.378 . S
C1388 C1389 1.367 . S
C1389 C1388 1.367 . S
C1389 C1391 1.433 . S
C1390 C1386 1.350 . S
C1390 C1387 1.463 . S
C1390 N1394 1.427 . S
C1391 H1381 0.929 . S
C1391 C1389 1.433 . S
C1391 N1394 1.384 . S
C1392 H1383 0.929 . S
C1392 C1384 1.378 . S
C1392 C1387 1.350 . S
C1393 H1380 0.929 . S
C1393 C1385 1.433 . S
C1393 N1395 1.384 . S
N1394 C1390 1.427 . S
N1394 C1391 1.384 . S
N1395 C1387 1.427 . S
N1395 C1393 1.384 . S
H1396 C1402 0.930 . S
H1397 C1406 0.930 . S
H1398 C1411 0.929 . S
H1399 C1409 0.929 . S
H1400 C1404 0.929 . S
H1401 C1410 0.929 . S
C1402 H1396 0.930 . S
C1402 C1403 1.367 . S
C1402 C1410 1.378 . S
C1403 C1402 1.367 . S
C1403 C1411 1.433 . S
C1404 H1400 0.929 . S
C1404 C1406 1.378 . S
C1404 C1408 1.350 . S
C1405 C1408 1.463 . S
C1405 C1410 1.350 . S
C1405 N1413 1.427 . S
C1406 H1397 0.930 . S
C1406 C1404 1.378 . S
C1406 C1407 1.367 . S
C1407 C1406 1.367 . S
C1407 C1409 1.433 . S
C1408 C1404 1.350 . S
C1408 C1405 1.463 . S
C1408 N1412 1.427 . S
C1409 H1399 0.929 . S
C1409 C1407 1.433 . S
C1409 N1412 1.384 . S
C1410 H1401 0.929 . S
C1410 C1402 1.378 . S
C1410 C1405 1.350 . S
C1411 H1398 0.929 . S
C1411 C1403 1.433 . S
C1411 N1413 1.384 . S
N1412 C1408 1.427 . S
N1412 C1409 1.384 . S
N1413 C1405 1.427 . S
N1413 C1411 1.384 . S
H1414 C1420 0.930 . S
H1415 C1424 0.930 . S
H1416 C1429 0.929 . S
H1417 C1427 0.929 . S
H1418 C1422 0.929 . S
H1419 C1428 0.929 . S
C1420 H1414 0.930 . S
C1420 C1421 1.367 . S
C1420 C1428 1.378 . S
C1421 C1420 1.367 . S
C1421 C1429 1.433 . S
C1422 H1418 0.929 . S
C1422 C1424 1.378 . S
C1422 C1426 1.350 . S
C1423 C1426 1.463 . S
C1423 C1428 1.350 . S
C1423 N1431 1.427 . S
C1424 H1415 0.930 . S
C1424 C1422 1.378 . S
C1424 C1425 1.367 . S
C1425 C1424 1.367 . S
C1425 C1427 1.433 . S
C1426 C1422 1.350 . S
C1426 C1423 1.463 . S
C1426 N1430 1.427 . S
C1427 H1417 0.929 . S
C1427 C1425 1.433 . S
C1427 N1430 1.384 . S
C1428 H1419 0.929 . S
C1428 C1420 1.378 . S
C1428 C1423 1.350 . S
C1429 H1416 0.929 . S
C1429 C1421 1.433 . S
C1429 N1431 1.384 . S
N1430 C1426 1.427 . S
N1430 C1427 1.384 . S
N1431 C1423 1.427 . S
N1431 C1429 1.384 . S
H1432 C1438 0.930 . S
H1433 C1442 0.930 . S
H1434 C1447 0.929 . S
H1435 C1445 0.929 . S
H1436 C1440 0.929 . S
H1437 C1446 0.929 . S
C1438 H1432 0.930 . S
C1438 C1439 1.367 . S
C1438 C1446 1.378 . S
C1439 C1438 1.367 . S
C1439 C1447 1.433 . S
C1440 H1436 0.929 . S
C1440 C1442 1.378 . S
C1440 C1444 1.350 . S
C1441 C1444 1.463 . S
C1441 C1446 1.350 . S
C1441 N1449 1.427 . S
C1442 H1433 0.930 . S
C1442 C1440 1.378 . S
C1442 C1443 1.367 . S
C1443 C1442 1.367 . S
C1443 C1445 1.433 . S
C1444 C1440 1.350 . S
C1444 C1441 1.463 . S
C1444 N1448 1.427 . S
C1445 H1435 0.929 . S
C1445 C1443 1.433 . S
C1445 N1448 1.384 . S
C1446 H1437 0.929 . S
C1446 C1438 1.378 . S
C1446 C1441 1.350 . S
C1447 H1434 0.929 . S
C1447 C1439 1.433 . S
C1447 N1449 1.384 . S
N1448 C1444 1.427 . S
N1448 C1445 1.384 . S
N1449 C1441 1.427 . S
N1449 C1447 1.384 . S
H1450 C1456 0.930 . S
H1451 C1460 0.930 . S
H1452 C1465 0.929 . S
H1453 C1463 0.929 . S
H1454 C1458 0.929 . S
H1455 C1464 0.929 . S
C1456 H1450 0.930 . S
C1456 C1457 1.367 . S
C1456 C1464 1.378 . S
C1457 C1456 1.367 . S
C1457 C1465 1.433 . S
C1458 H1454 0.929 . S
C1458 C1460 1.378 . S
C1458 C1462 1.350 . S
C1459 C1462 1.463 . S
C1459 C1464 1.350 . S
C1459 N1467 1.427 . S
C1460 H1451 0.930 . S
C1460 C1458 1.378 . S
C1460 C1461 1.367 . S
C1461 C1460 1.367 . S
C1461 C1463 1.433 . S
C1462 C1458 1.350 . S
C1462 C1459 1.463 . S
C1462 N1466 1.427 . S
C1463 H1453 0.929 . S
C1463 C1461 1.433 . S
C1463 N1466 1.384 . S
C1464 H1455 0.929 . S
C1464 C1456 1.378 . S
C1464 C1459 1.350 . S
C1465 H1452 0.929 . S
C1465 C1457 1.433 . S
C1465 N1467 1.384 . S
N1466 C1462 1.427 . S
N1466 C1463 1.384 . S
N1467 C1459 1.427 . S
N1467 C1465 1.384 . S
H1468 C1474 0.930 . S
H1469 C1478 0.930 . S
H1470 C1483 0.929 . S
H1471 C1481 0.929 . S
H1472 C1476 0.929 . S
H1473 C1482 0.929 . S
C1474 H1468 0.930 . S
C1474 C1475 1.367 . S
C1474 C1482 1.378 . S
C1475 C1474 1.367 . S
C1475 C1483 1.433 . S
C1476 H1472 0.929 . S
C1476 C1478 1.378 . S
C1476 C1480 1.350 . S
C1477 C1480 1.463 . S
C1477 C1482 1.350 . S
C1477 N1485 1.427 . S
C1478 H1469 0.930 . S
C1478 C1476 1.378 . S
C1478 C1479 1.367 . S
C1479 C1478 1.367 . S
C1479 C1481 1.433 . S
C1480 C1476 1.350 . S
C1480 C1477 1.463 . S
C1480 N1484 1.427 . S
C1481 H1471 0.929 . S
C1481 C1479 1.433 . S
C1481 N1484 1.384 . S
C1482 H1473 0.929 . S
C1482 C1474 1.378 . S
C1482 C1477 1.350 . S
C1483 H1470 0.929 . S
C1483 C1475 1.433 . S
C1483 N1485 1.384 . S
N1484 C1480 1.427 . S
N1484 C1481 1.384 . S
N1485 C1477 1.427 . S
N1485 C1483 1.384 . S
H1486 C1492 0.930 . S
H1487 C1496 0.930 . S
H1488 C1501 0.929 . S
H1489 C1499 0.929 . S
H1490 C1494 0.929 . S
H1491 C1500 0.929 . S
C1492 H1486 0.930 . S
C1492 C1493 1.367 . S
C1492 C1500 1.378 . S
C1493 C1492 1.367 . S
C1493 C1501 1.433 . S
C1494 H1490 0.929 . S
C1494 C1496 1.378 . S
C1494 C1498 1.350 . S
C1495 C1498 1.463 . S
C1495 C1500 1.350 . S
C1495 N1503 1.427 . S
C1496 H1487 0.930 . S
C1496 C1494 1.378 . S
C1496 C1497 1.367 . S
C1497 C1496 1.367 . S
C1497 C1499 1.433 . S
C1498 C1494 1.350 . S
C1498 C1495 1.463 . S
C1498 N1502 1.427 . S
C1499 H1489 0.929 . S
C1499 C1497 1.433 . S
C1499 N1502 1.384 . S
C1500 H1491 0.929 . S
C1500 C1492 1.378 . S
C1500 C1495 1.350 . S
C1501 H1488 0.929 . S
C1501 C1493 1.433 . S
C1501 N1503 1.384 . S
N1502 C1498 1.427 . S
N1502 C1499 1.384 . S
N1503 C1495 1.427 . S
N1503 C1501 1.384 . S
H1504 C1510 0.930 . S
H1505 C1514 0.930 . S
H1506 C1519 0.929 . S
H1507 C1517 0.929 1_556 S
H1508 C1512 0.929 . S
H1509 C1518 0.929 . S
C1510 H1504 0.930 . S
C1510 C1511 1.367 . S
C1510 C1518 1.378 . S
C1511 C1510 1.367 . S
C1511 C1519 1.433 1_556 S
C1512 H1508 0.929 . S
C1512 C1514 1.378 . S
C1512 C1516 1.350 . S
C1513 C1516 1.463 . S
C1513 C1518 1.350 1_554 S
C1513 N1521 1.427 . S
C1514 H1505 0.930 . S
C1514 C1512 1.378 . S
C1514 C1515 1.367 . S
C1515 C1514 1.367 . S
C1515 C1517 1.433 . S
C1516 C1512 1.350 . S
C1516 C1513 1.463 . S
C1516 N1520 1.425 1_554 S
C1517 H1507 0.929 1_554 S
C1517 C1515 1.433 . S
C1517 N1520 1.383 1_554 S
C1518 H1509 0.929 . S
C1518 C1510 1.378 . S
C1518 C1513 1.350 1_556 S
C1519 H1506 0.929 . S
C1519 C1511 1.433 1_554 S
C1519 N1521 1.384 . S
N1520 C1516 1.425 1_556 S
N1520 C1517 1.383 1_556 S
N1521 C1513 1.427 . S
N1521 C1519 1.384 . S
H1522 C1528 0.930 . S
H1523 C1532 0.930 . S
H1524 C1537 0.929 1_556 S
H1525 C1535 0.929 . S
H1526 C1530 0.929 . S
H1527 C1536 0.929 . S
C1528 H1522 0.930 . S
C1528 C1529 1.367 . S
C1528 C1536 1.378 . S
C1529 C1528 1.367 . S
C1529 C1537 1.433 . S
C1530 H1526 0.929 . S
C1530 C1532 1.378 . S
C1530 C1534 1.350 1_556 S
C1531 C1534 1.463 . S
C1531 C1536 1.350 . S
C1531 N1539 1.427 1_554 S
C1532 H1523 0.930 . S
C1532 C1530 1.378 . S
C1532 C1533 1.367 . S
C1533 C1532 1.367 . S
C1533 C1535 1.433 1_556 S
C1534 C1530 1.350 1_554 S
C1534 C1531 1.463 . S
C1534 N1538 1.427 . S
C1535 H1525 0.929 . S
C1535 C1533 1.433 1_554 S
C1535 N1538 1.384 . S
C1536 H1527 0.929 . S
C1536 C1528 1.378 . S
C1536 C1531 1.350 . S
C1537 H1524 0.929 1_554 S
C1537 C1529 1.433 . S
C1537 N1539 1.384 1_554 S
N1538 C1534 1.427 . S
N1538 C1535 1.384 . S
N1539 C1531 1.427 1_556 S
N1539 C1537 1.384 1_556 S
H1540 C1546 0.930 . S
H1541 C1550 0.930 . S
H1542 C1555 0.929 . S
H1543 C1553 0.929 . S
H1544 C1548 0.929 . S
H1545 C1554 0.929 . S
C1546 H1540 0.930 . S
C1546 C1547 1.367 . S
C1546 C1554 1.378 . S
C1547 C1546 1.367 . S
C1547 C1555 1.433 . S
C1548 H1544 0.929 . S
C1548 C1550 1.378 . S
C1548 C1552 1.350 . S
C1549 C1552 1.463 . S
C1549 C1554 1.350 . S
C1549 N1557 1.427 . S
C1550 H1541 0.930 . S
C1550 C1548 1.378 . S
C1550 C1551 1.367 . S
C1551 C1550 1.367 . S
C1551 C1553 1.433 . S
C1552 C1548 1.350 . S
C1552 C1549 1.463 . S
C1552 N1556 1.427 . S
C1553 H1543 0.929 . S
C1553 C1551 1.433 . S
C1553 N1556 1.384 . S
C1554 H1545 0.929 . S
C1554 C1546 1.378 . S
C1554 C1549 1.350 . S
C1555 H1542 0.929 . S
C1555 C1547 1.433 . S
C1555 N1557 1.384 . S
N1556 C1552 1.427 . S
N1556 C1553 1.384 . S
N1557 C1549 1.427 . S
N1557 C1555 1.384 . S
H1558 C1564 0.930 . S
H1559 C1568 0.930 . S
H1560 C1573 0.929 . S
H1561 C1571 0.929 . S
H1562 C1566 0.929 . S
H1563 C1572 0.929 . S
C1564 H1558 0.930 . S
C1564 C1565 1.367 . S
C1564 C1572 1.378 . S
C1565 C1564 1.367 . S
C1565 C1573 1.433 . S
C1566 H1562 0.929 . S
C1566 C1568 1.378 . S
C1566 C1570 1.350 . S
C1567 C1570 1.463 . S
C1567 C1572 1.350 . S
C1567 N1575 1.427 . S
C1568 H1559 0.930 . S
C1568 C1566 1.378 . S
C1568 C1569 1.367 . S
C1569 C1568 1.367 . S
C1569 C1571 1.433 . S
C1570 C1566 1.350 . S
C1570 C1567 1.463 . S
C1570 N1574 1.427 . S
C1571 H1561 0.929 . S
C1571 C1569 1.433 . S
C1571 N1574 1.384 . S
C1572 H1563 0.929 . S
C1572 C1564 1.378 . S
C1572 C1567 1.350 . S
C1573 H1560 0.929 . S
C1573 C1565 1.433 . S
C1573 N1575 1.384 . S
N1574 C1570 1.427 . S
N1574 C1571 1.384 . S
N1575 C1567 1.427 . S
N1575 C1573 1.384 . S
H1576 C1582 0.930 . S
H1577 C1586 0.930 . S
H1578 C1591 0.929 . S
H1579 C1589 0.929 . S
H1580 C1584 0.929 1_554 S
H1581 C1590 0.929 . S
C1582 H1576 0.930 . S
C1582 C1583 1.367 1_556 S
C1582 C1590 1.378 . S
C1583 C1582 1.367 1_554 S
C1583 C1591 1.433 . S
C1584 H1580 0.929 1_556 S
C1584 C1586 1.378 . S
C1584 C1588 1.350 . S
C1585 C1588 1.463 . S
C1585 C1590 1.350 . S
C1585 N1593 1.427 1_556 S
C1586 H1577 0.930 . S
C1586 C1584 1.378 . S
C1586 C1587 1.367 . S
C1587 C1586 1.367 . S
C1587 C1589 1.433 . S
C1588 C1584 1.350 . S
C1588 C1585 1.463 . S
C1588 N1592 1.427 . S
C1589 H1579 0.929 . S
C1589 C1587 1.433 . S
C1589 N1592 1.384 . S
C1590 H1581 0.929 . S
C1590 C1582 1.378 . S
C1590 C1585 1.350 . S
C1591 H1578 0.929 . S
C1591 C1583 1.433 . S
C1591 N1593 1.384 . S
N1592 C1588 1.427 . S
N1592 C1589 1.384 . S
N1593 C1585 1.427 1_554 S
N1593 C1591 1.384 . S
H1594 C1600 0.930 . S
H1595 C1604 0.930 . S
H1596 C1609 0.929 . S
H1597 C1607 0.929 . S
H1598 C1602 0.929 1_554 S
H1599 C1608 0.929 . S
C1600 H1594 0.930 . S
C1600 C1601 1.367 1_556 S
C1600 C1608 1.378 . S
C1601 C1600 1.367 1_554 S
C1601 C1609 1.433 . S
C1602 H1598 0.929 1_556 S
C1602 C1604 1.378 . S
C1602 C1606 1.350 . S
C1603 C1606 1.463 . S
C1603 C1608 1.350 . S
C1603 N1611 1.427 1_556 S
C1604 H1595 0.930 . S
C1604 C1602 1.378 . S
C1604 C1605 1.367 . S
C1605 C1604 1.367 . S
C1605 C1607 1.433 . S
C1606 C1602 1.350 . S
C1606 C1603 1.463 . S
C1606 N1610 1.427 . S
C1607 H1597 0.929 . S
C1607 C1605 1.433 . S
C1607 N1610 1.384 . S
C1608 H1599 0.929 . S
C1608 C1600 1.378 . S
C1608 C1603 1.350 . S
C1609 H1596 0.929 . S
C1609 C1601 1.433 . S
C1609 N1611 1.384 . S
N1610 C1606 1.427 . S
N1610 C1607 1.384 . S
N1611 C1603 1.427 1_554 S
N1611 C1609 1.384 . S
H1612 C1618 0.930 . S
H1613 C1622 0.930 . S
H1614 C1627 0.929 . S
H1615 C1625 0.929 . S
H1616 C1620 0.929 . S
H1617 C1626 0.929 . S
C1618 H1612 0.930 . S
C1618 C1619 1.367 . S
C1618 C1626 1.378 . S
C1619 C1618 1.367 . S
C1619 C1627 1.433 . S
C1620 H1616 0.929 . S
C1620 C1622 1.378 . S
C1620 C1624 1.350 . S
C1621 C1624 1.463 . S
C1621 C1626 1.350 . S
C1621 N1629 1.427 . S
C1622 H1613 0.930 . S
C1622 C1620 1.378 . S
C1622 C1623 1.367 . S
C1623 C1622 1.367 . S
C1623 C1625 1.433 . S
C1624 C1620 1.350 . S
C1624 C1621 1.463 . S
C1624 N1628 1.427 . S
C1625 H1615 0.929 . S
C1625 C1623 1.433 . S
C1625 N1628 1.384 . S
C1626 H1617 0.929 . S
C1626 C1618 1.378 . S
C1626 C1621 1.350 . S
C1627 H1614 0.929 . S
C1627 C1619 1.433 . S
C1627 N1629 1.384 . S
N1628 C1624 1.427 . S
N1628 C1625 1.384 . S
N1629 C1621 1.427 . S
N1629 C1627 1.384 . S
H1630 C1636 0.930 . S
H1631 C1640 0.930 . S
H1632 C1645 0.929 . S
H1633 C1643 0.929 . S
H1634 C1638 0.929 . S
H1635 C1644 0.929 . S
C1636 H1630 0.930 . S
C1636 C1637 1.367 . S
C1636 C1644 1.378 . S
C1637 C1636 1.367 . S
C1637 C1645 1.433 . S
C1638 H1634 0.929 . S
C1638 C1640 1.378 . S
C1638 C1642 1.350 . S
C1639 C1642 1.463 . S
C1639 C1644 1.350 . S
C1639 N1647 1.427 . S
C1640 H1631 0.930 . S
C1640 C1638 1.378 . S
C1640 C1641 1.367 . S
C1641 C1640 1.367 . S
C1641 C1643 1.433 . S
C1642 C1638 1.350 . S
C1642 C1639 1.463 . S
C1642 N1646 1.427 . S
C1643 H1633 0.929 . S
C1643 C1641 1.433 . S
C1643 N1646 1.384 . S
C1644 H1635 0.929 . S
C1644 C1636 1.378 . S
C1644 C1639 1.350 . S
C1645 H1632 0.929 . S
C1645 C1637 1.433 . S
C1645 N1647 1.384 . S
N1646 C1642 1.427 . S
N1646 C1643 1.384 . S
N1647 C1639 1.427 . S
N1647 C1645 1.384 . S
H1648 C1654 0.957 . S
H1649 C1658 0.930 . S
H1650 C1663 0.929 . S
H1651 C1661 0.929 . S
H1652 C1656 0.929 . S
H1653 C1662 0.929 . S
C1654 H1648 0.957 . S
C1654 C1655 1.354 1_545 S
C1654 C1662 1.364 1_545 S
C1655 C1654 1.354 1_565 S
C1655 C1663 1.433 . S
C1656 H1652 0.929 . S
C1656 C1658 1.378 . S
C1656 C1660 1.350 . S
C1657 C1660 1.463 . S
C1657 C1662 1.350 . S
C1657 N1665 1.427 . S
C1658 H1649 0.930 . S
C1658 C1656 1.378 . S
C1658 C1659 1.367 . S
C1659 C1658 1.367 . S
C1659 C1661 1.433 . S
C1660 C1656 1.350 . S
C1660 C1657 1.463 . S
C1660 N1664 1.427 . S
C1661 H1651 0.929 . S
C1661 C1659 1.433 . S
C1661 N1664 1.384 . S
C1662 H1653 0.929 . S
C1662 C1654 1.364 1_565 S
C1662 C1657 1.350 . S
C1663 H1650 0.929 . S
C1663 C1655 1.433 . S
C1663 N1665 1.384 . S
N1664 C1660 1.427 . S
N1664 C1661 1.384 . S
N1665 C1657 1.427 . S
N1665 C1663 1.384 . S
H1666 C1672 0.930 . S
H1667 C1676 0.930 . S
H1668 C1681 0.929 . S
H1669 C1679 0.929 . S
H1670 C1674 0.929 . S
H1671 C1680 0.929 . S
C1672 H1666 0.930 . S
C1672 C1673 1.367 . S
C1672 C1680 1.378 . S
C1673 C1672 1.367 . S
C1673 C1681 1.433 . S
C1674 H1670 0.929 . S
C1674 C1676 1.378 . S
C1674 C1678 1.350 . S
C1675 C1678 1.463 . S
C1675 C1680 1.350 . S
C1675 N1683 1.427 . S
C1676 H1667 0.930 . S
C1676 C1674 1.378 . S
C1676 C1677 1.367 . S
C1677 C1676 1.367 . S
C1677 C1679 1.433 . S
C1678 C1674 1.350 . S
C1678 C1675 1.463 . S
C1678 N1682 1.427 . S
C1679 H1669 0.929 . S
C1679 C1677 1.433 . S
C1679 N1682 1.384 . S
C1680 H1671 0.929 . S
C1680 C1672 1.378 . S
C1680 C1675 1.350 . S
C1681 H1668 0.929 . S
C1681 C1673 1.433 . S
C1681 N1683 1.384 . S
N1682 C1678 1.427 . S
N1682 C1679 1.384 . S
N1683 C1675 1.427 . S
N1683 C1681 1.384 . S
H1684 C1690 0.930 . S
H1685 C1694 0.930 . S
H1686 C1699 0.929 . S
H1687 C1697 0.929 . S
H1688 C1692 0.929 . S
H1689 C1698 0.929 . S
C1690 H1684 0.930 . S
C1690 C1691 1.367 . S
C1690 C1698 1.378 . S
C1691 C1690 1.367 . S
C1691 C1699 1.433 . S
C1692 H1688 0.929 . S
C1692 C1694 1.378 . S
C1692 C1696 1.350 . S
C1693 C1696 1.463 . S
C1693 C1698 1.350 . S
C1693 N1701 1.427 . S
C1694 H1685 0.930 . S
C1694 C1692 1.378 . S
C1694 C1695 1.367 . S
C1695 C1694 1.367 . S
C1695 C1697 1.433 . S
C1696 C1692 1.350 . S
C1696 C1693 1.463 . S
C1696 N1700 1.427 . S
C1697 H1687 0.929 . S
C1697 C1695 1.433 . S
C1697 N1700 1.384 . S
C1698 H1689 0.929 . S
C1698 C1690 1.378 . S
C1698 C1693 1.350 . S
C1699 H1686 0.929 . S
C1699 C1691 1.433 . S
C1699 N1701 1.384 . S
N1700 C1696 1.427 . S
N1700 C1697 1.384 . S
N1701 C1693 1.427 . S
N1701 C1699 1.384 . S
H1702 C1708 0.930 . S
H1703 C1712 0.930 . S
H1704 C1717 0.929 1_545 S
H1705 C1715 0.929 . S
H1706 C1710 0.929 . S
H1707 C1716 0.929 . S
C1708 H1702 0.930 . S
C1708 C1709 1.367 . S
C1708 C1716 1.378 . S
C1709 C1708 1.367 . S
C1709 C1717 1.433 . S
C1710 H1706 0.929 . S
C1710 C1712 1.378 . S
C1710 C1714 1.350 . S
C1711 C1714 1.463 . S
C1711 C1716 1.350 . S
C1711 N1719 1.427 . S
C1712 H1703 0.930 . S
C1712 C1710 1.378 . S
C1712 C1713 1.367 . S
C1713 C1712 1.367 . S
C1713 C1715 1.433 . S
C1714 C1710 1.350 . S
C1714 C1711 1.463 . S
C1714 N1718 1.427 . S
C1715 H1705 0.929 . S
C1715 C1713 1.433 . S
C1715 N1718 1.384 . S
C1716 H1707 0.929 . S
C1716 C1708 1.378 . S
C1716 C1711 1.350 . S
C1717 H1704 0.929 1_565 S
C1717 C1709 1.433 . S
C1717 N1719 1.384 . S
N1718 C1714 1.427 . S
N1718 C1715 1.384 . S
N1719 C1711 1.427 . S
N1719 C1717 1.384 . S
H1720 C1726 0.930 1_565 S
H1721 C1730 0.930 . S
H1722 C1735 0.929 . S
H1723 C1733 0.929 . S
H1724 C1728 0.929 . S
H1725 C1734 0.929 . S
C1726 H1720 0.930 1_545 S
C1726 C1727 1.367 . S
C1726 C1734 1.378 . S
C1727 C1726 1.367 . S
C1727 C1735 1.433 . S
C1728 H1724 0.929 . S
C1728 C1730 1.378 . S
C1728 C1732 1.350 . S
C1729 C1732 1.463 . S
C1729 C1734 1.350 . S
C1729 N1737 1.427 . S
C1730 H1721 0.930 . S
C1730 C1728 1.378 . S
C1730 C1731 1.367 . S
C1731 C1730 1.367 . S
C1731 C1733 1.433 . S
C1732 C1728 1.350 . S
C1732 C1729 1.463 . S
C1732 N1736 1.427 . S
C1733 H1723 0.929 . S
C1733 C1731 1.433 . S
C1733 N1736 1.384 . S
C1734 H1725 0.929 . S
C1734 C1726 1.378 . S
C1734 C1729 1.350 . S
C1735 H1722 0.929 . S
C1735 C1727 1.433 . S
C1735 N1737 1.384 . S
N1736 C1732 1.427 . S
N1736 C1733 1.384 . S
N1737 C1729 1.427 . S
N1737 C1735 1.384 . S
H1738 C1744 0.930 . S
H1739 C1748 0.930 . S
H1740 C1753 0.929 . S
H1741 C1751 0.929 . S
H1742 C1746 0.929 . S
H1743 C1752 0.929 . S
C1744 H1738 0.930 . S
C1744 C1745 1.367 . S
C1744 C1752 1.378 . S
C1745 C1744 1.367 . S
C1745 C1753 1.433 . S
C1746 H1742 0.929 . S
C1746 C1748 1.378 . S
C1746 C1750 1.350 . S
C1747 C1750 1.463 . S
C1747 C1752 1.350 . S
C1747 N1755 1.427 . S
C1748 H1739 0.930 . S
C1748 C1746 1.378 . S
C1748 C1749 1.367 . S
C1749 C1748 1.367 . S
C1749 C1751 1.433 . S
C1750 C1746 1.350 . S
C1750 C1747 1.463 . S
C1750 N1754 1.427 . S
C1751 H1741 0.929 . S
C1751 C1749 1.433 . S
C1751 N1754 1.384 . S
C1752 H1743 0.929 . S
C1752 C1744 1.378 . S
C1752 C1747 1.350 . S
C1753 H1740 0.929 . S
C1753 C1745 1.433 . S
C1753 N1755 1.384 . S
N1754 C1750 1.427 . S
N1754 C1751 1.384 . S
N1755 C1747 1.427 . S
N1755 C1753 1.384 . S
H1756 C1762 0.930 . S
H1757 C1766 0.930 . S
H1758 C1771 0.929 . S
H1759 C1769 0.929 . S
H1760 C1764 0.929 . S
H1761 C1770 0.929 . S
C1762 H1756 0.930 . S
C1762 C1763 1.367 . S
C1762 C1770 1.378 . S
C1763 C1762 1.367 . S
C1763 C1771 1.433 . S
C1764 H1760 0.929 . S
C1764 C1766 1.378 . S
C1764 C1768 1.350 . S
C1765 C1768 1.463 . S
C1765 C1770 1.350 . S
C1765 N1773 1.427 . S
C1766 H1757 0.930 . S
C1766 C1764 1.378 . S
C1766 C1767 1.367 . S
C1767 C1766 1.367 . S
C1767 C1769 1.433 . S
C1768 C1764 1.350 . S
C1768 C1765 1.463 . S
C1768 N1772 1.427 . S
C1769 H1759 0.929 . S
C1769 C1767 1.433 . S
C1769 N1772 1.384 . S
C1770 H1761 0.929 . S
C1770 C1762 1.378 . S
C1770 C1765 1.350 . S
C1771 H1758 0.929 . S
C1771 C1763 1.433 . S
C1771 N1773 1.384 . S
N1772 C1768 1.427 . S
N1772 C1769 1.384 . S
N1773 C1765 1.427 . S
N1773 C1771 1.384 . S
H1774 C1780 0.930 . S
H1775 C1784 0.930 . S
H1776 C1789 0.929 . S
H1777 C1787 0.917 1_565 S
H1778 C1782 0.929 . S
H1779 C1788 0.929 . S
C1780 H1774 0.930 . S
C1780 C1781 1.367 . S
C1780 C1788 1.378 . S
C1781 C1780 1.367 . S
C1781 C1789 1.433 . S
C1782 H1778 0.929 . S
C1782 C1784 1.378 . S
C1782 C1786 1.350 . S
C1783 C1786 1.463 . S
C1783 C1788 1.350 . S
C1783 N1791 1.427 . S
C1784 H1775 0.930 . S
C1784 C1782 1.378 . S
C1784 C1785 1.367 . S
C1785 C1784 1.367 . S
C1785 C1787 1.439 . S
C1786 C1782 1.350 . S
C1786 C1783 1.463 . S
C1786 N1790 1.427 . S
C1787 H1777 0.917 1_545 S
C1787 C1785 1.439 . S
C1787 N1790 1.390 . S
C1788 H1779 0.929 . S
C1788 C1780 1.378 . S
C1788 C1783 1.350 . S
C1789 H1776 0.929 . S
C1789 C1781 1.433 . S
C1789 N1791 1.384 . S
N1790 C1786 1.427 . S
N1790 C1787 1.390 . S
N1791 C1783 1.427 . S
N1791 C1789 1.384 . S
H1792 C1798 0.930 . S
H1793 C1802 0.930 . S
H1794 C1807 0.929 . S
H1795 C1805 0.929 . S
H1796 C1800 0.929 . S
H1797 C1806 0.929 . S
C1798 H1792 0.930 . S
C1798 C1799 1.367 . S
C1798 C1806 1.378 . S
C1799 C1798 1.367 . S
C1799 C1807 1.433 . S
C1800 H1796 0.929 . S
C1800 C1802 1.378 . S
C1800 C1804 1.350 . S
C1801 C1804 1.463 . S
C1801 C1806 1.350 . S
C1801 N1809 1.427 . S
C1802 H1793 0.930 . S
C1802 C1800 1.378 . S
C1802 C1803 1.367 . S
C1803 C1802 1.367 . S
C1803 C1805 1.433 . S
C1804 C1800 1.350 . S
C1804 C1801 1.463 . S
C1804 N1808 1.427 . S
C1805 H1795 0.929 . S
C1805 C1803 1.433 . S
C1805 N1808 1.384 . S
C1806 H1797 0.929 . S
C1806 C1798 1.378 . S
C1806 C1801 1.350 . S
C1807 H1794 0.929 . S
C1807 C1799 1.433 . S
C1807 N1809 1.384 . S
N1808 C1804 1.427 . S
N1808 C1805 1.384 . S
N1809 C1801 1.427 . S
N1809 C1807 1.384 . S
H1810 C1816 0.930 . S
H1811 C1820 0.930 . S
H1812 C1825 0.929 . S
H1813 C1823 0.929 . S
H1814 C1818 0.929 . S
H1815 C1824 0.929 . S
C1816 H1810 0.930 . S
C1816 C1817 1.367 . S
C1816 C1824 1.378 . S
C1817 C1816 1.367 . S
C1817 C1825 1.433 . S
C1818 H1814 0.929 . S
C1818 C1820 1.378 . S
C1818 C1822 1.350 . S
C1819 C1822 1.463 . S
C1819 C1824 1.350 . S
C1819 N1827 1.427 . S
C1820 H1811 0.930 . S
C1820 C1818 1.378 . S
C1820 C1821 1.367 . S
C1821 C1820 1.367 . S
C1821 C1823 1.433 . S
C1822 C1818 1.350 . S
C1822 C1819 1.463 . S
C1822 N1826 1.427 . S
C1823 H1813 0.929 . S
C1823 C1821 1.433 . S
C1823 N1826 1.384 . S
C1824 H1815 0.929 . S
C1824 C1816 1.378 . S
C1824 C1819 1.350 . S
C1825 H1812 0.929 . S
C1825 C1817 1.433 . S
C1825 N1827 1.384 . S
N1826 C1822 1.427 . S
N1826 C1823 1.384 . S
N1827 C1819 1.427 . S
N1827 C1825 1.384 . S
H1828 C1834 0.930 . S
H1829 C1838 0.930 . S
H1830 C1843 0.929 . S
H1831 C1841 0.929 . S
H1832 C1836 0.929 . S
H1833 C1842 0.929 . S
C1834 H1828 0.930 . S
C1834 C1835 1.367 . S
C1834 C1842 1.378 . S
C1835 C1834 1.367 . S
C1835 C1843 1.433 . S
C1836 H1832 0.929 . S
C1836 C1838 1.378 . S
C1836 C1840 1.350 . S
C1837 C1840 1.463 . S
C1837 C1842 1.350 . S
C1837 N1845 1.427 . S
C1838 H1829 0.930 . S
C1838 C1836 1.378 . S
C1838 C1839 1.367 . S
C1839 C1838 1.367 . S
C1839 C1841 1.433 . S
C1840 C1836 1.350 . S
C1840 C1837 1.463 . S
C1840 N1844 1.427 . S
C1841 H1831 0.929 . S
C1841 C1839 1.433 . S
C1841 N1844 1.384 . S
C1842 H1833 0.929 . S
C1842 C1834 1.378 . S
C1842 C1837 1.350 . S
C1843 H1830 0.929 . S
C1843 C1835 1.433 . S
C1843 N1845 1.384 . S
N1844 C1840 1.427 . S
N1844 C1841 1.384 . S
N1845 C1837 1.427 . S
N1845 C1843 1.384 . S
H1846 C1852 0.930 . S
H1847 C1856 0.930 . S
H1848 C1861 0.929 . S
H1849 C1859 0.929 . S
H1850 C1854 0.929 . S
H1851 C1860 0.929 . S
C1852 H1846 0.930 . S
C1852 C1853 1.367 . S
C1852 C1860 1.378 . S
C1853 C1852 1.367 . S
C1853 C1861 1.433 . S
C1854 H1850 0.929 . S
C1854 C1856 1.378 . S
C1854 C1858 1.350 . S
C1855 C1858 1.463 . S
C1855 C1860 1.350 . S
C1855 N1863 1.427 . S
C1856 H1847 0.930 . S
C1856 C1854 1.378 . S
C1856 C1857 1.367 . S
C1857 C1856 1.367 . S
C1857 C1859 1.433 . S
C1858 C1854 1.350 . S
C1858 C1855 1.463 . S
C1858 N1862 1.427 . S
C1859 H1849 0.929 . S
C1859 C1857 1.433 . S
C1859 N1862 1.384 . S
C1860 H1851 0.929 . S
C1860 C1852 1.378 . S
C1860 C1855 1.350 . S
C1861 H1848 0.929 . S
C1861 C1853 1.433 . S
C1861 N1863 1.384 . S
N1862 C1858 1.427 . S
N1862 C1859 1.384 . S
N1863 C1855 1.427 . S
N1863 C1861 1.384 . S
H1864 C1870 0.930 . S
H1865 C1874 0.930 . S
H1866 C1879 0.929 . S
H1867 C1877 0.929 . S
H1868 C1872 0.929 . S
H1869 C1878 0.929 . S
C1870 H1864 0.930 . S
C1870 C1871 1.367 . S
C1870 C1878 1.378 . S
C1871 C1870 1.367 . S
C1871 C1879 1.433 . S
C1872 H1868 0.929 . S
C1872 C1874 1.378 . S
C1872 C1876 1.350 . S
C1873 C1876 1.463 . S
C1873 C1878 1.350 . S
C1873 N1881 1.427 . S
C1874 H1865 0.930 . S
C1874 C1872 1.378 . S
C1874 C1875 1.367 . S
C1875 C1874 1.367 . S
C1875 C1877 1.433 . S
C1876 C1872 1.350 . S
C1876 C1873 1.463 . S
C1876 N1880 1.427 . S
C1877 H1867 0.929 . S
C1877 C1875 1.433 . S
C1877 N1880 1.384 . S
C1878 H1869 0.929 . S
C1878 C1870 1.378 . S
C1878 C1873 1.350 . S
C1879 H1866 0.929 . S
C1879 C1871 1.433 . S
C1879 N1881 1.384 . S
N1880 C1876 1.427 . S
N1880 C1877 1.384 . S
N1881 C1873 1.427 . S
N1881 C1879 1.384 . S
H1882 C1888 0.930 . S
H1883 C1892 0.930 . S
H1884 C1897 0.929 . S
H1885 C1895 0.929 . S
H1886 C1890 0.929 . S
H1887 C1896 0.929 . S
C1888 H1882 0.930 . S
C1888 C1889 1.367 . S
C1888 C1896 1.378 . S
C1889 C1888 1.367 . S
C1889 C1897 1.433 . S
C1890 H1886 0.929 . S
C1890 C1892 1.378 . S
C1890 C1894 1.350 . S
C1891 C1894 1.463 . S
C1891 C1896 1.350 . S
C1891 N1899 1.427 . S
C1892 H1883 0.930 . S
C1892 C1890 1.378 . S
C1892 C1893 1.367 . S
C1893 C1892 1.367 . S
C1893 C1895 1.433 . S
C1894 C1890 1.350 . S
C1894 C1891 1.463 . S
C1894 N1898 1.427 . S
C1895 H1885 0.929 . S
C1895 C1893 1.433 . S
C1895 N1898 1.384 . S
C1896 H1887 0.929 . S
C1896 C1888 1.378 . S
C1896 C1891 1.350 . S
C1897 H1884 0.929 . S
C1897 C1889 1.433 . S
C1897 N1899 1.384 . S
N1898 C1894 1.427 . S
N1898 C1895 1.384 . S
N1899 C1891 1.427 . S
N1899 C1897 1.384 . S
H1900 C1906 0.930 . S
H1901 C1910 0.930 . S
H1902 C1915 0.929 . S
H1903 C1913 0.929 . S
H1904 C1908 0.929 . S
H1905 C1914 0.929 . S
C1906 H1900 0.930 . S
C1906 C1907 1.367 . S
C1906 C1914 1.378 . S
C1907 C1906 1.367 . S
C1907 C1915 1.433 . S
C1908 H1904 0.929 . S
C1908 C1910 1.378 . S
C1908 C1912 1.350 . S
C1909 C1912 1.463 . S
C1909 C1914 1.350 . S
C1909 N1917 1.427 . S
C1910 H1901 0.930 . S
C1910 C1908 1.378 . S
C1910 C1911 1.367 . S
C1911 C1910 1.367 . S
C1911 C1913 1.433 . S
C1912 C1908 1.350 . S
C1912 C1909 1.463 . S
C1912 N1916 1.427 . S
C1913 H1903 0.929 . S
C1913 C1911 1.433 . S
C1913 N1916 1.384 . S
C1914 H1905 0.929 . S
C1914 C1906 1.378 . S
C1914 C1909 1.350 . S
C1915 H1902 0.929 . S
C1915 C1907 1.433 . S
C1915 N1917 1.384 . S
N1916 C1912 1.427 . S
N1916 C1913 1.384 . S
N1917 C1909 1.427 . S
N1917 C1915 1.384 . S
H1918 C1924 0.930 . S
H1919 C1928 0.930 . S
H1920 C1933 0.929 . S
H1921 C1931 0.929 . S
H1922 C1926 0.929 . S
H1923 C1932 0.929 . S
C1924 H1918 0.930 . S
C1924 C1925 1.367 . S
C1924 C1932 1.378 . S
C1925 C1924 1.367 . S
C1925 C1933 1.433 . S
C1926 H1922 0.929 . S
C1926 C1928 1.378 . S
C1926 C1930 1.350 . S
C1927 C1930 1.463 . S
C1927 C1932 1.350 . S
C1927 N1935 1.427 . S
C1928 H1919 0.930 . S
C1928 C1926 1.378 . S
C1928 C1929 1.367 . S
C1929 C1928 1.367 . S
C1929 C1931 1.433 . S
C1930 C1926 1.350 . S
C1930 C1927 1.463 . S
C1930 N1934 1.427 . S
C1931 H1921 0.929 . S
C1931 C1929 1.433 . S
C1931 N1934 1.384 . S
C1932 H1923 0.929 . S
C1932 C1924 1.378 . S
C1932 C1927 1.350 . S
C1933 H1920 0.929 . S
C1933 C1925 1.433 . S
C1933 N1935 1.384 . S
N1934 C1930 1.427 . S
N1934 C1931 1.384 . S
N1935 C1927 1.427 . S
N1935 C1933 1.384 . S
H1936 C1942 0.930 . S
H1937 C1946 0.930 1_556 S
H1938 C1951 0.929 . S
H1939 C1949 0.929 . S
H1940 C1944 0.929 . S
H1941 C1950 0.929 . S
C1942 H1936 0.930 . S
C1942 C1943 1.367 1_554 S
C1942 C1950 1.378 . S
C1943 C1942 1.367 1_556 S
C1943 C1951 1.433 . S
C1944 H1940 0.929 . S
C1944 C1946 1.378 1_556 S
C1944 C1948 1.350 1_556 S
C1945 C1948 1.463 . S
C1945 C1950 1.350 . S
C1945 N1953 1.427 1_554 S
C1946 H1937 0.930 1_554 S
C1946 C1944 1.378 1_554 S
C1946 C1947 1.367 . S
C1947 C1946 1.367 . S
C1947 C1949 1.433 . S
C1948 C1944 1.350 1_554 S
C1948 C1945 1.463 . S
C1948 N1952 1.427 . S
C1949 H1939 0.929 . S
C1949 C1947 1.433 . S
C1949 N1952 1.384 . S
C1950 H1941 0.929 . S
C1950 C1942 1.378 . S
C1950 C1945 1.350 . S
C1951 H1938 0.929 . S
C1951 C1943 1.433 . S
C1951 N1953 1.384 . S
N1952 C1948 1.427 . S
N1952 C1949 1.384 . S
N1953 C1945 1.427 1_556 S
N1953 C1951 1.384 . S
H1954 C1960 0.930 . S
H1955 C1964 0.930 . S
H1956 C1969 0.929 . S
H1957 C1967 0.929 . S
H1958 C1962 0.929 1_556 S
H1959 C1968 0.929 . S
C1960 H1954 0.930 . S
C1960 C1961 1.367 1_554 S
C1960 C1968 1.378 . S
C1961 C1960 1.367 1_556 S
C1961 C1969 1.433 . S
C1962 H1958 0.929 1_554 S
C1962 C1964 1.378 . S
C1962 C1966 1.350 . S
C1963 C1966 1.463 . S
C1963 C1968 1.350 . S
C1963 N1971 1.427 1_554 S
C1964 H1955 0.930 . S
C1964 C1962 1.378 . S
C1964 C1965 1.367 . S
C1965 C1964 1.367 . S
C1965 C1967 1.433 . S
C1966 C1962 1.350 . S
C1966 C1963 1.463 . S
C1966 N1970 1.427 . S
C1967 H1957 0.929 . S
C1967 C1965 1.433 . S
C1967 N1970 1.384 . S
C1968 H1959 0.929 . S
C1968 C1960 1.378 . S
C1968 C1963 1.350 . S
C1969 H1956 0.929 . S
C1969 C1961 1.433 . S
C1969 N1971 1.384 . S
N1970 C1966 1.427 . S
N1970 C1967 1.384 . S
N1971 C1963 1.427 1_556 S
N1971 C1969 1.384 . S
H1972 C1978 0.930 . S
H1973 C1982 0.930 . S
H1974 C1987 0.929 . S
H1975 C1985 0.929 . S
H1976 C1980 0.929 . S
H1977 C1986 0.929 . S
C1978 H1972 0.930 . S
C1978 C1979 1.367 . S
C1978 C1986 1.378 . S
C1979 C1978 1.367 . S
C1979 C1987 1.433 . S
C1980 H1976 0.929 . S
C1980 C1982 1.378 . S
C1980 C1984 1.350 . S
C1981 C1984 1.463 . S
C1981 C1986 1.350 . S
C1981 N1989 1.427 . S
C1982 H1973 0.930 . S
C1982 C1980 1.378 . S
C1982 C1983 1.367 . S
C1983 C1982 1.367 . S
C1983 C1985 1.433 . S
C1984 C1980 1.350 . S
C1984 C1981 1.463 . S
C1984 N1988 1.427 . S
C1985 H1975 0.929 . S
C1985 C1983 1.433 . S
C1985 N1988 1.384 . S
C1986 H1977 0.929 . S
C1986 C1978 1.378 . S
C1986 C1981 1.350 . S
C1987 H1974 0.929 . S
C1987 C1979 1.433 . S
C1987 N1989 1.384 . S
N1988 C1984 1.427 . S
N1988 C1985 1.384 . S
N1989 C1981 1.427 . S
N1989 C1987 1.384 . S
H1990 C1996 0.930 . S
H1991 C2000 0.930 . S
H1992 C2005 0.929 . S
H1993 C2003 0.929 . S
H1994 C1998 0.929 . S
H1995 C2004 0.929 . S
C1996 H1990 0.930 . S
C1996 C1997 1.367 . S
C1996 C2004 1.378 . S
C1997 C1996 1.367 . S
C1997 C2005 1.433 . S
C1998 H1994 0.929 . S
C1998 C2000 1.378 . S
C1998 C2002 1.350 . S
C1999 C2002 1.463 . S
C1999 C2004 1.350 . S
C1999 N2007 1.427 . S
C2000 H1991 0.930 . S
C2000 C1998 1.378 . S
C2000 C2001 1.367 . S
C2001 C2000 1.367 . S
C2001 C2003 1.433 . S
C2002 C1998 1.350 . S
C2002 C1999 1.463 . S
C2002 N2006 1.427 . S
C2003 H1993 0.929 . S
C2003 C2001 1.433 . S
C2003 N2006 1.384 . S
C2004 H1995 0.929 . S
C2004 C1996 1.378 . S
C2004 C1999 1.350 . S
C2005 H1992 0.929 . S
C2005 C1997 1.433 . S
C2005 N2007 1.384 . S
N2006 C2002 1.427 . S
N2006 C2003 1.384 . S
N2007 C1999 1.427 . S
N2007 C2005 1.384 . S
H2008 C2014 0.930 . S
H2009 C2018 0.930 . S
H2010 C2023 0.929 . S
H2011 C2021 0.929 1_565 S
H2012 C2016 0.929 . S
H2013 C2022 0.929 1_554 S
C2014 H2008 0.930 . S
C2014 C2015 1.367 . S
C2014 C2022 1.378 . S
C2015 C2014 1.367 . S
C2015 C2023 1.433 . S
C2016 H2012 0.929 . S
C2016 C2018 1.378 . S
C2016 C2020 1.350 . S
C2017 C2020 1.463 . S
C2017 C2022 1.350 . S
C2017 N2025 1.427 . S
C2018 H2009 0.930 . S
C2018 C2016 1.378 . S
C2018 C2019 1.367 1_556 S
C2019 C2018 1.367 1_554 S
C2019 C2021 1.433 . S
C2020 C2016 1.350 . S
C2020 C2017 1.463 . S
C2020 N2024 1.427 1_556 S
C2021 H2011 0.929 1_545 S
C2021 C2019 1.433 . S
C2021 N2024 1.384 . S
C2022 H2013 0.929 1_556 S
C2022 C2014 1.378 . S
C2022 C2017 1.350 . S
C2023 H2010 0.929 . S
C2023 C2015 1.433 . S
C2023 N2025 1.384 . S
N2024 C2020 1.427 1_554 S
N2024 C2021 1.384 . S
N2025 C2017 1.427 . S
N2025 C2023 1.384 . S
H2026 C2032 0.930 1_554 S
H2027 C2036 0.930 . S
H2028 C2041 0.929 . S
H2029 C2039 0.929 . S
H2030 C2034 0.929 . S
H2031 C2040 0.927 1_554 S
C2032 H2026 0.930 1_556 S
C2032 C2033 1.367 . S
C2032 C2040 1.378 . S
C2033 C2032 1.367 . S
C2033 C2041 1.433 . S
C2034 H2030 0.929 . S
C2034 C2036 1.378 . S
C2034 C2038 1.350 . S
C2035 C2038 1.463 . S
C2035 C2040 1.351 . S
C2035 N2043 1.427 . S
C2036 H2027 0.930 . S
C2036 C2034 1.378 . S
C2036 C2037 1.367 1_556 S
C2037 C2036 1.367 1_554 S
C2037 C2039 1.433 . S
C2038 C2034 1.350 . S
C2038 C2035 1.463 . S
C2038 N2042 1.427 1_556 S
C2039 H2029 0.929 . S
C2039 C2037 1.433 . S
C2039 N2042 1.384 . S
C2040 H2031 0.927 1_556 S
C2040 C2032 1.378 . S
C2040 C2035 1.351 . S
C2041 H2028 0.929 . S
C2041 C2033 1.433 . S
C2041 N2043 1.384 . S
N2042 C2038 1.427 1_554 S
N2042 C2039 1.384 . S
N2043 C2035 1.427 . S
N2043 C2041 1.384 . S
H2044 C2050 0.930 . S
H2045 C2054 0.930 . S
H2046 C2059 0.929 . S
H2047 C2057 0.929 . S
H2048 C2052 0.929 . S
H2049 C2058 0.929 . S
C2050 H2044 0.930 . S
C2050 C2051 1.367 . S
C2050 C2058 1.378 . S
C2051 C2050 1.367 . S
C2051 C2059 1.433 . S
C2052 H2048 0.929 . S
C2052 C2054 1.378 . S
C2052 C2056 1.350 . S
C2053 C2056 1.463 . S
C2053 C2058 1.350 . S
C2053 N2061 1.427 . S
C2054 H2045 0.930 . S
C2054 C2052 1.378 . S
C2054 C2055 1.367 . S
C2055 C2054 1.367 . S
C2055 C2057 1.433 . S
C2056 C2052 1.350 . S
C2056 C2053 1.463 . S
C2056 N2060 1.427 . S
C2057 H2047 0.929 . S
C2057 C2055 1.433 . S
C2057 N2060 1.384 . S
C2058 H2049 0.929 . S
C2058 C2050 1.378 . S
C2058 C2053 1.350 . S
C2059 H2046 0.929 . S
C2059 C2051 1.433 . S
C2059 N2061 1.384 . S
N2060 C2056 1.427 . S
N2060 C2057 1.384 . S
N2061 C2053 1.427 . S
N2061 C2059 1.384 . S
H2062 C2068 0.930 . S
H2063 C2072 0.930 . S
H2064 C2077 0.929 . S
H2065 C2075 0.929 . S
H2066 C2070 0.929 . S
H2067 C2076 0.929 . S
C2068 H2062 0.930 . S
C2068 C2069 1.367 . S
C2068 C2076 1.378 . S
C2069 C2068 1.367 . S
C2069 C2077 1.433 . S
C2070 H2066 0.929 . S
C2070 C2072 1.378 . S
C2070 C2074 1.350 . S
C2071 C2074 1.463 . S
C2071 C2076 1.350 . S
C2071 N2079 1.427 . S
C2072 H2063 0.930 . S
C2072 C2070 1.378 . S
C2072 C2073 1.367 . S
C2073 C2072 1.367 . S
C2073 C2075 1.433 1_545 S
C2074 C2070 1.350 . S
C2074 C2071 1.463 . S
C2074 N2078 1.427 . S
C2075 H2065 0.929 . S
C2075 C2073 1.433 1_565 S
C2075 N2078 1.384 1_565 S
C2076 H2067 0.929 . S
C2076 C2068 1.378 . S
C2076 C2071 1.350 . S
C2077 H2064 0.929 . S
C2077 C2069 1.433 . S
C2077 N2079 1.384 . S
N2078 C2074 1.427 . S
N2078 C2075 1.384 1_545 S
N2079 C2071 1.427 . S
N2079 C2077 1.384 . S
H2080 C2086 0.930 . S
H2081 C2090 0.930 . S
H2082 C2095 0.929 . S
H2083 C2093 0.929 . S
H2084 C2088 0.929 . S
H2085 C2094 0.929 . S
C2086 H2080 0.930 . S
C2086 C2087 1.367 . S
C2086 C2094 1.378 . S
C2087 C2086 1.367 . S
C2087 C2095 1.433 1_655 S
C2088 H2084 0.929 . S
C2088 C2090 1.378 . S
C2088 C2092 1.350 1_455 S
C2089 C2092 1.463 . S
C2089 C2094 1.350 . S
C2089 N2097 1.427 1_655 S
C2090 H2081 0.930 . S
C2090 C2088 1.378 . S
C2090 C2091 1.366 1_455 S
C2091 C2090 1.366 1_655 S
C2091 C2093 1.434 . S
C2092 C2088 1.350 1_655 S
C2092 C2089 1.463 . S
C2092 N2096 1.427 . S
C2093 H2083 0.929 . S
C2093 C2091 1.434 . S
C2093 N2096 1.384 . S
C2094 H2085 0.929 . S
C2094 C2086 1.378 . S
C2094 C2089 1.350 . S
C2095 H2082 0.929 . S
C2095 C2087 1.433 1_455 S
C2095 N2097 1.384 . S
N2096 C2092 1.427 . S
N2096 C2093 1.384 . S
N2097 C2089 1.427 1_455 S
N2097 C2095 1.384 . S
H2098 C2104 0.930 1_565 S
H2099 C2108 0.930 . S
H2100 C2113 0.929 . S
H2101 C2111 0.929 . S
H2102 C2106 0.929 . S
H2103 C2112 0.929 . S
C2104 H2098 0.930 1_545 S
C2104 C2105 1.367 1_545 S
C2104 C2112 1.378 . S
C2105 C2104 1.367 1_565 S
C2105 C2113 1.433 1_565 S
C2106 H2102 0.929 . S
C2106 C2108 1.378 . S
C2106 C2110 1.350 . S
C2107 C2110 1.463 . S
C2107 C2112 1.350 . S
C2107 N2115 1.427 . S
C2108 H2099 0.930 . S
C2108 C2106 1.378 . S
C2108 C2109 1.367 . S
C2109 C2108 1.367 . S
C2109 C2111 1.433 . S
C2110 C2106 1.350 . S
C2110 C2107 1.463 . S
C2110 N2114 1.427 . S
C2111 H2101 0.929 . S
C2111 C2109 1.433 . S
C2111 N2114 1.384 . S
C2112 H2103 0.929 . S
C2112 C2104 1.378 . S
C2112 C2107 1.350 . S
C2113 H2100 0.929 . S
C2113 C2105 1.433 1_545 S
C2113 N2115 1.384 . S
N2114 C2110 1.427 . S
N2114 C2111 1.384 . S
N2115 C2107 1.427 . S
N2115 C2113 1.384 . S
H2116 C2122 0.930 . S
H2117 C2126 0.932 1_565 S
H2118 C2131 0.929 . S
H2119 C2129 0.929 . S
H2120 C2124 0.929 . S
H2121 C2130 0.929 . S
C2122 H2116 0.930 . S
C2122 C2123 1.367 . S
C2122 C2130 1.378 . S
C2123 C2122 1.367 . S
C2123 C2131 1.433 1_655 S
C2124 H2120 0.929 . S
C2124 C2126 1.376 . S
C2124 C2128 1.350 1_455 S
C2125 C2128 1.463 . S
C2125 C2130 1.350 . S
C2125 N2133 1.427 1_655 S
C2126 H2117 0.932 1_545 S
C2126 C2124 1.376 . S
C2126 C2127 1.368 1_445 S
C2127 C2126 1.368 1_665 S
C2127 C2129 1.433 1_565 S
C2128 C2124 1.350 1_655 S
C2128 C2125 1.463 . S
C2128 N2132 1.427 . S
C2129 H2119 0.929 . S
C2129 C2127 1.433 1_545 S
C2129 N2132 1.384 . S
C2130 H2121 0.929 . S
C2130 C2122 1.378 . S
C2130 C2125 1.350 . S
C2131 H2118 0.929 . S
C2131 C2123 1.433 1_455 S
C2131 N2133 1.384 . S
N2132 C2128 1.427 . S
N2132 C2129 1.384 . S
N2133 C2125 1.427 1_455 S
N2133 C2131 1.384 . S
H2134 C2140 0.930 . S
H2135 C2144 0.930 . S
H2136 C2149 0.929 . S
H2137 C2147 0.929 . S
H2138 C2142 0.929 . S
H2139 C2148 0.929 . S
C2140 H2134 0.930 . S
C2140 C2141 1.367 . S
C2140 C2148 1.378 . S
C2141 C2140 1.367 . S
C2141 C2149 1.433 . S
C2142 H2138 0.929 . S
C2142 C2144 1.378 . S
C2142 C2146 1.350 . S
C2143 C2146 1.463 . S
C2143 C2148 1.350 . S
C2143 N2151 1.427 . S
C2144 H2135 0.930 . S
C2144 C2142 1.378 . S
C2144 C2145 1.367 . S
C2145 C2144 1.367 . S
C2145 C2147 1.433 . S
C2146 C2142 1.350 . S
C2146 C2143 1.463 . S
C2146 N2150 1.427 . S
C2147 H2137 0.929 . S
C2147 C2145 1.433 . S
C2147 N2150 1.384 . S
C2148 H2139 0.929 . S
C2148 C2140 1.378 . S
C2148 C2143 1.350 . S
C2149 H2136 0.929 . S
C2149 C2141 1.433 . S
C2149 N2151 1.384 . S
N2150 C2146 1.427 . S
N2150 C2147 1.384 . S
N2151 C2143 1.427 . S
N2151 C2149 1.384 . S
H2152 C2158 0.930 . S
H2153 C2162 0.930 . S
H2154 C2167 0.929 . S
H2155 C2165 0.929 . S
H2156 C2160 0.924 1_655 S
H2157 C2166 0.929 . S
C2158 H2152 0.930 . S
C2158 C2159 1.367 . S
C2158 C2166 1.378 . S
C2159 C2158 1.367 . S
C2159 C2167 1.433 . S
C2160 H2156 0.924 1_455 S
C2160 C2162 1.378 1_455 S
C2160 C2164 1.350 . S
C2161 C2164 1.463 . S
C2161 C2166 1.350 . S
C2161 N2169 1.427 . S
C2162 H2153 0.930 . S
C2162 C2160 1.378 1_655 S
C2162 C2163 1.365 1_655 S
C2163 C2162 1.365 1_455 S
C2163 C2165 1.437 . S
C2164 C2160 1.350 . S
C2164 C2161 1.463 . S
C2164 N2168 1.427 . S
C2165 H2155 0.929 . S
C2165 C2163 1.437 . S
C2165 N2168 1.384 . S
C2166 H2157 0.929 . S
C2166 C2158 1.378 . S
C2166 C2161 1.350 . S
C2167 H2154 0.929 . S
C2167 C2159 1.433 . S
C2167 N2169 1.384 . S
N2168 C2164 1.427 . S
N2168 C2165 1.384 . S
N2169 C2161 1.427 . S
N2169 C2167 1.384 . S
H2170 C2176 0.930 . S
H2171 C2180 0.930 . S
H2172 C2185 0.929 . S
H2173 C2183 0.929 . S
H2174 C2178 0.929 . S
H2175 C2184 0.929 . S
C2176 H2170 0.930 . S
C2176 C2177 1.367 1_565 S
C2176 C2184 1.378 . S
C2177 C2176 1.367 1_545 S
C2177 C2185 1.433 . S
C2178 H2174 0.929 . S
C2178 C2180 1.378 . S
C2178 C2182 1.350 . S
C2179 C2182 1.463 . S
C2179 C2184 1.350 . S
C2179 N2187 1.427 . S
C2180 H2171 0.930 . S
C2180 C2178 1.378 . S
C2180 C2181 1.367 . S
C2181 C2180 1.367 . S
C2181 C2183 1.433 . S
C2182 C2178 1.350 . S
C2182 C2179 1.463 . S
C2182 N2186 1.427 . S
C2183 H2173 0.929 . S
C2183 C2181 1.433 . S
C2183 N2186 1.384 . S
C2184 H2175 0.929 . S
C2184 C2176 1.378 . S
C2184 C2179 1.350 . S
C2185 H2172 0.929 . S
C2185 C2177 1.433 . S
C2185 N2187 1.384 1_545 S
N2186 C2182 1.427 . S
N2186 C2183 1.384 . S
N2187 C2179 1.427 . S
N2187 C2185 1.384 1_565 S
H2188 C2194 0.911 1_655 S
H2189 C2198 0.930 . S
H2190 C2203 0.929 . S
H2191 C2201 0.929 . S
H2192 C2196 0.929 . S
H2193 C2202 0.946 . S
C2194 H2188 0.911 1_455 S
C2194 C2195 1.395 . S
C2194 C2202 1.372 1_455 S
C2195 C2194 1.395 . S
C2195 C2203 1.433 . S
C2196 H2192 0.929 . S
C2196 C2198 1.378 1_565 S
C2196 C2200 1.350 . S
C2197 C2200 1.463 . S
C2197 C2202 1.337 1_455 S
C2197 N2205 1.427 . S
C2198 H2189 0.930 . S
C2198 C2196 1.378 1_545 S
C2198 C2199 1.382 . S
C2199 C2198 1.382 . S
C2199 C2201 1.422 1_445 S
C2200 C2196 1.350 . S
C2200 C2197 1.463 . S
C2200 N2204 1.427 1_455 S
C2201 H2191 0.929 . S
C2201 C2199 1.422 1_665 S
C2201 N2204 1.384 . S
C2202 H2193 0.946 . S
C2202 C2194 1.372 1_655 S
C2202 C2197 1.337 1_655 S
C2203 H2190 0.929 . S
C2203 C2195 1.433 . S
C2203 N2205 1.384 . S
N2204 C2200 1.427 1_655 S
N2204 C2201 1.384 . S
N2205 C2197 1.427 . S
N2205 C2203 1.384 . S
H2206 C2212 0.930 . S
H2207 C2216 0.930 . S
H2208 C2221 0.929 . S
H2209 C2219 0.929 . S
H2210 C2214 0.929 . S
H2211 C2220 0.929 . S
C2212 H2206 0.930 . S
C2212 C2213 1.367 . S
C2212 C2220 1.378 . S
C2213 C2212 1.367 . S
C2213 C2221 1.433 . S
C2214 H2210 0.929 . S
C2214 C2216 1.378 . S
C2214 C2218 1.350 . S
C2215 C2218 1.463 . S
C2215 C2220 1.350 . S
C2215 N2223 1.427 . S
C2216 H2207 0.930 . S
C2216 C2214 1.378 . S
C2216 C2217 1.367 . S
C2217 C2216 1.367 . S
C2217 C2219 1.433 . S
C2218 C2214 1.350 . S
C2218 C2215 1.463 . S
C2218 N2222 1.427 . S
C2219 H2209 0.929 . S
C2219 C2217 1.433 . S
C2219 N2222 1.384 . S
C2220 H2211 0.929 . S
C2220 C2212 1.378 . S
C2220 C2215 1.350 . S
C2221 H2208 0.929 . S
C2221 C2213 1.433 . S
C2221 N2223 1.384 . S
N2222 C2218 1.427 . S
N2222 C2219 1.384 . S
N2223 C2215 1.427 . S
N2223 C2221 1.384 . S
H2224 C2230 0.930 . S
H2225 C2234 0.930 . S
H2226 C2239 0.929 . S
H2227 C2237 0.929 . S
H2228 C2232 0.929 . S
H2229 C2238 0.929 . S
C2230 H2224 0.930 . S
C2230 C2231 1.368 1_455 S
C2230 C2238 1.378 . S
C2231 C2230 1.368 1_655 S
C2231 C2239 1.432 . S
C2232 H2228 0.929 . S
C2232 C2234 1.378 . S
C2232 C2236 1.350 . S
C2233 C2236 1.463 . S
C2233 C2238 1.350 1_655 S
C2233 N2241 1.427 . S
C2234 H2225 0.930 . S
C2234 C2232 1.378 . S
C2234 C2235 1.367 . S
C2235 C2234 1.367 . S
C2235 C2237 1.433 1_655 S
C2236 C2232 1.350 . S
C2236 C2233 1.463 . S
C2236 N2240 1.427 1_655 S
C2237 H2227 0.929 . S
C2237 C2235 1.433 1_455 S
C2237 N2240 1.384 . S
C2238 H2229 0.929 . S
C2238 C2230 1.378 . S
C2238 C2233 1.350 1_455 S
C2239 H2226 0.929 . S
C2239 C2231 1.432 . S
C2239 N2241 1.384 . S
N2240 C2236 1.427 1_455 S
N2240 C2237 1.384 . S
N2241 C2233 1.427 . S
N2241 C2239 1.384 . S
H2242 C2248 0.930 . S
H2243 C2252 0.930 . S
H2244 C2257 0.929 . S
H2245 C2255 0.929 . S
H2246 C2250 0.929 . S
H2247 C2256 0.929 . S
C2248 H2242 0.930 . S
C2248 C2249 1.367 . S
C2248 C2256 1.378 . S
C2249 C2248 1.367 . S
C2249 C2257 1.433 . S
C2250 H2246 0.929 . S
C2250 C2252 1.378 . S
C2250 C2254 1.350 . S
C2251 C2254 1.463 . S
C2251 C2256 1.350 . S
C2251 N2259 1.427 . S
C2252 H2243 0.930 . S
C2252 C2250 1.378 . S
C2252 C2253 1.367 . S
C2253 C2252 1.367 . S
C2253 C2255 1.433 . S
C2254 C2250 1.350 . S
C2254 C2251 1.463 . S
C2254 N2258 1.427 . S
C2255 H2245 0.929 . S
C2255 C2253 1.433 . S
C2255 N2258 1.384 . S
C2256 H2247 0.929 . S
C2256 C2248 1.378 . S
C2256 C2251 1.350 . S
C2257 H2244 0.929 . S
C2257 C2249 1.433 . S
C2257 N2259 1.384 . S
N2258 C2254 1.427 . S
N2258 C2255 1.384 . S
N2259 C2251 1.427 . S
N2259 C2257 1.384 . S
H2260 C2266 0.930 . S
H2261 C2270 0.930 . S
H2262 C2275 0.929 . S
H2263 C2273 0.911 1_455 S
H2264 C2268 0.929 . S
H2265 C2274 0.929 . S
C2266 H2260 0.930 . S
C2266 C2267 1.363 1_455 S
C2266 C2274 1.378 . S
C2267 C2266 1.363 1_655 S
C2267 C2275 1.438 . S
C2268 H2264 0.929 . S
C2268 C2270 1.378 . S
C2268 C2272 1.350 . S
C2269 C2272 1.463 . S
C2269 C2274 1.350 1_655 S
C2269 N2277 1.427 . S
C2270 H2261 0.930 . S
C2270 C2268 1.378 . S
C2270 C2271 1.367 . S
C2271 C2270 1.367 . S
C2271 C2273 1.462 . S
C2272 C2268 1.350 . S
C2272 C2269 1.463 . S
C2272 N2276 1.416 1_655 S
C2273 H2263 0.911 1_655 S
C2273 C2271 1.462 . S
C2273 N2276 1.379 1_655 S
C2274 H2265 0.929 . S
C2274 C2266 1.378 . S
C2274 C2269 1.350 1_455 S
C2275 H2262 0.929 . S
C2275 C2267 1.438 . S
C2275 N2277 1.384 . S
N2276 C2272 1.416 1_455 S
N2276 C2273 1.379 1_455 S
N2277 C2269 1.427 . S
N2277 C2275 1.384 . S
H2278 C2284 0.930 . S
H2279 C2288 0.930 . S
H2280 C2293 0.929 . S
H2281 C2291 0.929 . S
H2282 C2286 0.929 . S
H2283 C2292 0.929 . S
C2284 H2278 0.930 . S
C2284 C2285 1.367 . S
C2284 C2292 1.378 . S
C2285 C2284 1.367 . S
C2285 C2293 1.433 . S
C2286 H2282 0.929 . S
C2286 C2288 1.378 . S
C2286 C2290 1.350 . S
C2287 C2290 1.463 . S
C2287 C2292 1.350 . S
C2287 N2295 1.427 . S
C2288 H2279 0.930 . S
C2288 C2286 1.378 . S
C2288 C2289 1.367 . S
C2289 C2288 1.367 . S
C2289 C2291 1.433 . S
C2290 C2286 1.350 . S
C2290 C2287 1.463 . S
C2290 N2294 1.427 . S
C2291 H2281 0.929 . S
C2291 C2289 1.433 . S
C2291 N2294 1.384 . S
C2292 H2283 0.929 . S
C2292 C2284 1.378 . S
C2292 C2287 1.350 . S
C2293 H2280 0.929 . S
C2293 C2285 1.433 . S
C2293 N2295 1.384 . S
N2294 C2290 1.427 . S
N2294 C2291 1.384 . S
N2295 C2287 1.427 . S
N2295 C2293 1.384 . S
H2296 C2302 0.930 . S
H2297 C2306 0.930 . S
H2298 C2311 0.929 . S
H2299 C2309 0.929 . S
H2300 C2304 0.929 . S
H2301 C2310 0.929 . S
C2302 H2296 0.930 . S
C2302 C2303 1.364 1_655 S
C2302 C2310 1.378 . S
C2303 C2302 1.364 1_455 S
C2303 C2311 1.438 . S
C2304 H2300 0.929 . S
C2304 C2306 1.378 . S
C2304 C2308 1.350 . S
C2305 C2308 1.463 . S
C2305 C2310 1.350 1_455 S
C2305 N2313 1.427 . S
C2306 H2297 0.930 . S
C2306 C2304 1.378 . S
C2306 C2307 1.367 . S
C2307 C2306 1.367 . S
C2307 C2309 1.433 . S
C2308 C2304 1.350 . S
C2308 C2305 1.463 . S
C2308 N2312 1.427 . S
C2309 H2299 0.929 . S
C2309 C2307 1.433 . S
C2309 N2312 1.384 . S
C2310 H2301 0.929 . S
C2310 C2302 1.378 . S
C2310 C2305 1.350 1_655 S
C2311 H2298 0.929 . S
C2311 C2303 1.438 . S
C2311 N2313 1.384 . S
N2312 C2308 1.427 . S
N2312 C2309 1.384 . S
N2313 C2305 1.427 . S
N2313 C2311 1.384 . S
H2314 C2320 0.930 . S
H2315 C2324 0.930 . S
H2316 C2329 0.929 . S
H2317 C2327 0.929 . S
H2318 C2322 0.929 . S
H2319 C2328 0.929 . S
C2320 H2314 0.930 . S
C2320 C2321 1.367 . S
C2320 C2328 1.378 . S
C2321 C2320 1.367 . S
C2321 C2329 1.433 . S
C2322 H2318 0.929 . S
C2322 C2324 1.378 . S
C2322 C2326 1.350 . S
C2323 C2326 1.463 . S
C2323 C2328 1.350 . S
C2323 N2331 1.427 . S
C2324 H2315 0.930 . S
C2324 C2322 1.378 . S
C2324 C2325 1.367 . S
C2325 C2324 1.367 . S
C2325 C2327 1.433 . S
C2326 C2322 1.350 . S
C2326 C2323 1.463 . S
C2326 N2330 1.427 . S
C2327 H2317 0.929 . S
C2327 C2325 1.433 . S
C2327 N2330 1.384 . S
C2328 H2319 0.929 . S
C2328 C2320 1.378 . S
C2328 C2323 1.350 . S
C2329 H2316 0.929 . S
C2329 C2321 1.433 . S
C2329 N2331 1.384 . S
N2330 C2326 1.427 . S
N2330 C2327 1.384 . S
N2331 C2323 1.427 . S
N2331 C2329 1.384 . S
H2332 C2338 0.930 . S
H2333 C2342 0.930 . S
H2334 C2347 0.929 . S
H2335 C2345 0.929 . S
H2336 C2340 0.929 . S
H2337 C2346 0.929 . S
C2338 H2332 0.930 . S
C2338 C2339 1.367 1_655 S
C2338 C2346 1.378 . S
C2339 C2338 1.367 1_455 S
C2339 C2347 1.433 . S
C2340 H2336 0.929 . S
C2340 C2342 1.378 . S
C2340 C2344 1.350 . S
C2341 C2344 1.463 . S
C2341 C2346 1.350 1_455 S
C2341 N2349 1.427 . S
C2342 H2333 0.930 . S
C2342 C2340 1.378 . S
C2342 C2343 1.367 . S
C2343 C2342 1.367 . S
C2343 C2345 1.433 1_455 S
C2344 C2340 1.350 . S
C2344 C2341 1.463 . S
C2344 N2348 1.427 1_455 S
C2345 H2335 0.929 . S
C2345 C2343 1.433 1_655 S
C2345 N2348 1.384 . S
C2346 H2337 0.929 . S
C2346 C2338 1.378 . S
C2346 C2341 1.350 1_655 S
C2347 H2334 0.929 . S
C2347 C2339 1.433 . S
C2347 N2349 1.384 . S
N2348 C2344 1.427 1_655 S
N2348 C2345 1.384 . S
N2349 C2341 1.427 . S
N2349 C2347 1.384 . S
H2350 C2356 0.930 . S
H2351 C2360 0.930 . S
H2352 C2365 0.929 . S
H2353 C2363 0.929 . S
H2354 C2358 0.929 . S
H2355 C2364 0.929 . S
C2356 H2350 0.930 . S
C2356 C2357 1.367 . S
C2356 C2364 1.378 . S
C2357 C2356 1.367 . S
C2357 C2365 1.433 . S
C2358 H2354 0.929 . S
C2358 C2360 1.378 . S
C2358 C2362 1.350 . S
C2359 C2362 1.463 . S
C2359 C2364 1.350 . S
C2359 N2367 1.427 . S
C2360 H2351 0.930 . S
C2360 C2358 1.378 . S
C2360 C2361 1.367 . S
C2361 C2360 1.367 . S
C2361 C2363 1.433 . S
C2362 C2358 1.350 . S
C2362 C2359 1.463 . S
C2362 N2366 1.427 . S
C2363 H2353 0.929 . S
C2363 C2361 1.433 . S
C2363 N2366 1.384 . S
C2364 H2355 0.929 . S
C2364 C2356 1.378 . S
C2364 C2359 1.350 . S
C2365 H2352 0.929 . S
C2365 C2357 1.433 . S
C2365 N2367 1.384 . S
N2366 C2362 1.427 . S
N2366 C2363 1.384 . S
N2367 C2359 1.427 . S
N2367 C2365 1.384 . S
H2368 C2374 0.930 . S
H2369 C2378 0.930 . S
H2370 C2383 0.929 . S
H2371 C2381 0.929 . S
H2372 C2376 0.929 . S
H2373 C2382 0.929 . S
C2374 H2368 0.930 . S
C2374 C2375 1.367 . S
C2374 C2382 1.378 . S
C2375 C2374 1.367 . S
C2375 C2383 1.433 . S
C2376 H2372 0.929 . S
C2376 C2378 1.378 . S
C2376 C2380 1.350 . S
C2377 C2380 1.463 . S
C2377 C2382 1.350 . S
C2377 N2385 1.427 . S
C2378 H2369 0.930 . S
C2378 C2376 1.378 . S
C2378 C2379 1.367 . S
C2379 C2378 1.367 . S
C2379 C2381 1.433 . S
C2380 C2376 1.350 . S
C2380 C2377 1.463 . S
C2380 N2384 1.427 . S
C2381 H2371 0.929 . S
C2381 C2379 1.433 . S
C2381 N2384 1.384 . S
C2382 H2373 0.929 . S
C2382 C2374 1.378 . S
C2382 C2377 1.350 . S
C2383 H2370 0.929 . S
C2383 C2375 1.433 . S
C2383 N2385 1.384 . S
N2384 C2380 1.427 . S
N2384 C2381 1.384 . S
N2385 C2377 1.427 . S
N2385 C2383 1.384 . S
H2386 C2392 0.930 . S
H2387 C2396 0.930 . S
H2388 C2401 0.929 . S
H2389 C2399 0.929 . S
H2390 C2394 0.929 . S
H2391 C2400 0.929 . S
C2392 H2386 0.930 . S
C2392 C2393 1.367 1_545 S
C2392 C2400 1.378 . S
C2393 C2392 1.367 1_565 S
C2393 C2401 1.433 . S
C2394 H2390 0.929 . S
C2394 C2396 1.378 . S
C2394 C2398 1.350 . S
C2395 C2398 1.463 . S
C2395 C2400 1.350 . S
C2395 N2403 1.427 . S
C2396 H2387 0.930 . S
C2396 C2394 1.378 . S
C2396 C2397 1.367 . S
C2397 C2396 1.367 . S
C2397 C2399 1.433 . S
C2398 C2394 1.350 . S
C2398 C2395 1.463 . S
C2398 N2402 1.427 . S
C2399 H2389 0.929 . S
C2399 C2397 1.433 . S
C2399 N2402 1.384 . S
C2400 H2391 0.929 . S
C2400 C2392 1.378 . S
C2400 C2395 1.350 . S
C2401 H2388 0.929 . S
C2401 C2393 1.433 . S
C2401 N2403 1.384 1_565 S
N2402 C2398 1.427 . S
N2402 C2399 1.384 . S
N2403 C2395 1.427 . S
N2403 C2401 1.384 1_545 S
H2404 C2410 0.930 . S
H2405 C2414 0.930 . S
H2406 C2419 0.929 . S
H2407 C2417 0.929 . S
H2408 C2412 0.929 . S
H2409 C2418 0.929 . S
C2410 H2404 0.930 . S
C2410 C2411 1.367 . S
C2410 C2418 1.378 . S
C2411 C2410 1.367 . S
C2411 C2419 1.433 . S
C2412 H2408 0.929 . S
C2412 C2414 1.378 1_545 S
C2412 C2416 1.350 . S
C2413 C2416 1.463 . S
C2413 C2418 1.350 . S
C2413 N2421 1.427 . S
C2414 H2405 0.930 . S
C2414 C2412 1.378 1_565 S
C2414 C2415 1.367 . S
C2415 C2414 1.367 . S
C2415 C2417 1.433 1_565 S
C2416 C2412 1.350 . S
C2416 C2413 1.463 . S
C2416 N2420 1.427 . S
C2417 H2407 0.929 . S
C2417 C2415 1.433 1_545 S
C2417 N2420 1.384 . S
C2418 H2409 0.929 . S
C2418 C2410 1.378 . S
C2418 C2413 1.350 . S
C2419 H2406 0.929 . S
C2419 C2411 1.433 . S
C2419 N2421 1.384 . S
N2420 C2416 1.427 . S
N2420 C2417 1.384 . S
N2421 C2413 1.427 . S
N2421 C2419 1.384 . S
H2422 C2428 0.930 . S
H2423 C2432 0.930 . S
H2424 C2437 0.929 . S
H2425 C2435 0.929 . S
H2426 C2430 0.929 . S
H2427 C2436 0.929 . S
C2428 H2422 0.930 . S
C2428 C2429 1.367 . S
C2428 C2436 1.378 . S
C2429 C2428 1.367 . S
C2429 C2437 1.433 . S
C2430 H2426 0.929 . S
C2430 C2432 1.378 . S
C2430 C2434 1.350 . S
C2431 C2434 1.463 . S
C2431 C2436 1.350 . S
C2431 N2439 1.427 . S
C2432 H2423 0.930 . S
C2432 C2430 1.378 . S
C2432 C2433 1.367 . S
C2433 C2432 1.367 . S
C2433 C2435 1.433 . S
C2434 C2430 1.350 . S
C2434 C2431 1.463 . S
C2434 N2438 1.427 . S
C2435 H2425 0.929 . S
C2435 C2433 1.433 . S
C2435 N2438 1.384 . S
C2436 H2427 0.929 . S
C2436 C2428 1.378 . S
C2436 C2431 1.350 . S
C2437 H2424 0.929 . S
C2437 C2429 1.433 . S
C2437 N2439 1.384 . S
N2438 C2434 1.427 . S
N2438 C2435 1.384 . S
N2439 C2431 1.427 . S
N2439 C2437 1.384 . S
H2440 C2446 0.930 . S
H2441 C2450 0.930 . S
H2442 C2455 0.929 . S
H2443 C2453 0.929 . S
H2444 C2448 0.929 . S
H2445 C2454 0.929 . S
C2446 H2440 0.930 . S
C2446 C2447 1.367 . S
C2446 C2454 1.378 . S
C2447 C2446 1.367 . S
C2447 C2455 1.433 . S
C2448 H2444 0.929 . S
C2448 C2450 1.378 . S
C2448 C2452 1.350 . S
C2449 C2452 1.463 . S
C2449 C2454 1.350 . S
C2449 N2457 1.427 . S
C2450 H2441 0.930 . S
C2450 C2448 1.378 . S
C2450 C2451 1.367 . S
C2451 C2450 1.367 . S
C2451 C2453 1.433 . S
C2452 C2448 1.350 . S
C2452 C2449 1.463 . S
C2452 N2456 1.427 . S
C2453 H2443 0.929 . S
C2453 C2451 1.433 . S
C2453 N2456 1.384 . S
C2454 H2445 0.929 . S
C2454 C2446 1.378 . S
C2454 C2449 1.350 . S
C2455 H2442 0.929 . S
C2455 C2447 1.433 . S
C2455 N2457 1.384 . S
N2456 C2452 1.427 . S
N2456 C2453 1.384 . S
N2457 C2449 1.427 . S
N2457 C2455 1.384 . S
H2458 C2464 0.930 . S
H2459 C2468 0.930 . S
H2460 C2473 0.929 . S
H2461 C2471 0.929 . S
H2462 C2466 0.929 . S
H2463 C2472 0.929 . S
C2464 H2458 0.930 . S
C2464 C2465 1.367 . S
C2464 C2472 1.378 1_545 S
C2465 C2464 1.367 . S
C2465 C2473 1.433 1_545 S
C2466 H2462 0.929 . S
C2466 C2468 1.378 . S
C2466 C2470 1.350 . S
C2467 C2470 1.463 . S
C2467 C2472 1.350 . S
C2467 N2475 1.427 . S
C2468 H2459 0.930 . S
C2468 C2466 1.378 . S
C2468 C2469 1.367 . S
C2469 C2468 1.367 . S
C2469 C2471 1.433 . S
C2470 C2466 1.350 . S
C2470 C2467 1.463 . S
C2470 N2474 1.427 . S
C2471 H2461 0.929 . S
C2471 C2469 1.433 . S
C2471 N2474 1.384 . S
C2472 H2463 0.929 . S
C2472 C2464 1.378 1_565 S
C2472 C2467 1.350 . S
C2473 H2460 0.929 . S
C2473 C2465 1.433 1_565 S
C2473 N2475 1.384 . S
N2474 C2470 1.427 . S
N2474 C2471 1.384 . S
N2475 C2467 1.427 . S
N2475 C2473 1.384 . S
H2476 C2482 0.930 . S
H2477 C2486 0.930 1_545 S
H2478 C2491 0.929 . S
H2479 C2489 0.929 . S
H2480 C2484 0.929 . S
H2481 C2490 0.929 . S
C2482 H2476 0.930 . S
C2482 C2483 1.367 . S
C2482 C2490 1.378 . S
C2483 C2482 1.367 . S
C2483 C2491 1.433 . S
C2484 H2480 0.929 . S
C2484 C2486 1.378 . S
C2484 C2488 1.350 . S
C2485 C2488 1.463 . S
C2485 C2490 1.350 . S
C2485 N2493 1.427 . S
C2486 H2477 0.930 1_565 S
C2486 C2484 1.378 . S
C2486 C2487 1.367 1_565 S
C2487 C2486 1.367 1_545 S
C2487 C2489 1.433 1_545 S
C2488 C2484 1.350 . S
C2488 C2485 1.463 . S
C2488 N2492 1.427 . S
C2489 H2479 0.929 . S
C2489 C2487 1.433 1_565 S
C2489 N2492 1.384 . S
C2490 H2481 0.929 . S
C2490 C2482 1.378 . S
C2490 C2485 1.350 . S
C2491 H2478 0.929 . S
C2491 C2483 1.433 . S
C2491 N2493 1.384 . S
N2492 C2488 1.427 . S
N2492 C2489 1.384 . S
N2493 C2485 1.427 . S
N2493 C2491 1.384 . S
H2494 C2500 0.930 . S
H2495 C2504 0.930 . S
H2496 C2509 0.929 . S
H2497 C2507 0.929 . S
H2498 C2502 0.929 . S
H2499 C2508 0.929 . S
C2500 H2494 0.930 . S
C2500 C2501 1.367 . S
C2500 C2508 1.378 . S
C2501 C2500 1.367 . S
C2501 C2509 1.433 . S
C2502 H2498 0.929 . S
C2502 C2504 1.378 . S
C2502 C2506 1.350 . S
C2503 C2506 1.463 . S
C2503 C2508 1.350 . S
C2503 N2511 1.427 . S
C2504 H2495 0.930 . S
C2504 C2502 1.378 . S
C2504 C2505 1.367 . S
C2505 C2504 1.367 . S
C2505 C2507 1.433 . S
C2506 C2502 1.350 . S
C2506 C2503 1.463 . S
C2506 N2510 1.427 . S
C2507 H2497 0.929 . S
C2507 C2505 1.433 . S
C2507 N2510 1.384 . S
C2508 H2499 0.929 . S
C2508 C2500 1.378 . S
C2508 C2503 1.350 . S
C2509 H2496 0.929 . S
C2509 C2501 1.433 . S
C2509 N2511 1.384 . S
N2510 C2506 1.427 . S
N2510 C2507 1.384 . S
N2511 C2503 1.427 . S
N2511 C2509 1.384 . S
H2512 C2518 0.930 . S
H2513 C2522 0.930 . S
H2514 C2527 0.929 . S
H2515 C2525 0.929 . S
H2516 C2520 0.929 . S
H2517 C2526 0.929 . S
C2518 H2512 0.930 . S
C2518 C2519 1.367 . S
C2518 C2526 1.378 . S
C2519 C2518 1.367 . S
C2519 C2527 1.433 . S
C2520 H2516 0.929 . S
C2520 C2522 1.378 . S
C2520 C2524 1.350 . S
C2521 C2524 1.463 . S
C2521 C2526 1.350 . S
C2521 N2529 1.427 . S
C2522 H2513 0.930 . S
C2522 C2520 1.378 . S
C2522 C2523 1.367 . S
C2523 C2522 1.367 . S
C2523 C2525 1.433 . S
C2524 C2520 1.350 . S
C2524 C2521 1.463 . S
C2524 N2528 1.427 . S
C2525 H2515 0.929 . S
C2525 C2523 1.433 . S
C2525 N2528 1.384 . S
C2526 H2517 0.929 . S
C2526 C2518 1.378 . S
C2526 C2521 1.350 . S
C2527 H2514 0.929 . S
C2527 C2519 1.433 . S
C2527 N2529 1.384 . S
N2528 C2524 1.427 . S
N2528 C2525 1.384 . S
N2529 C2521 1.427 . S
N2529 C2527 1.384 . S
H2530 C2536 0.930 . S
H2531 C2540 0.930 . S
H2532 C2545 0.929 . S
H2533 C2543 0.929 . S
H2534 C2538 0.929 . S
H2535 C2544 0.929 . S
C2536 H2530 0.930 . S
C2536 C2537 1.367 . S
C2536 C2544 1.378 . S
C2537 C2536 1.367 . S
C2537 C2545 1.433 . S
C2538 H2534 0.929 . S
C2538 C2540 1.378 . S
C2538 C2542 1.350 . S
C2539 C2542 1.463 . S
C2539 C2544 1.350 . S
C2539 N2547 1.427 . S
C2540 H2531 0.930 . S
C2540 C2538 1.378 . S
C2540 C2541 1.367 . S
C2541 C2540 1.367 . S
C2541 C2543 1.433 . S
C2542 C2538 1.350 . S
C2542 C2539 1.463 . S
C2542 N2546 1.427 . S
C2543 H2533 0.929 . S
C2543 C2541 1.433 . S
C2543 N2546 1.384 . S
C2544 H2535 0.929 . S
C2544 C2536 1.378 . S
C2544 C2539 1.350 . S
C2545 H2532 0.929 . S
C2545 C2537 1.433 . S
C2545 N2547 1.384 . S
N2546 C2542 1.427 . S
N2546 C2543 1.384 . S
N2547 C2539 1.427 . S
N2547 C2545 1.384 . S
H2548 C2554 0.930 . S
H2549 C2558 0.930 . S
H2550 C2563 0.929 . S
H2551 C2561 0.929 . S
H2552 C2556 0.929 . S
H2553 C2562 0.929 . S
C2554 H2548 0.930 . S
C2554 C2555 1.367 . S
C2554 C2562 1.378 . S
C2555 C2554 1.367 . S
C2555 C2563 1.433 . S
C2556 H2552 0.929 . S
C2556 C2558 1.378 . S
C2556 C2560 1.350 . S
C2557 C2560 1.463 . S
C2557 C2562 1.350 . S
C2557 N2565 1.427 . S
C2558 H2549 0.930 . S
C2558 C2556 1.378 . S
C2558 C2559 1.367 . S
C2559 C2558 1.367 . S
C2559 C2561 1.433 . S
C2560 C2556 1.350 . S
C2560 C2557 1.463 . S
C2560 N2564 1.427 . S
C2561 H2551 0.929 . S
C2561 C2559 1.433 . S
C2561 N2564 1.384 . S
C2562 H2553 0.929 . S
C2562 C2554 1.378 . S
C2562 C2557 1.350 . S
C2563 H2550 0.929 . S
C2563 C2555 1.433 . S
C2563 N2565 1.384 . S
N2564 C2560 1.427 . S
N2564 C2561 1.384 . S
N2565 C2557 1.427 . S
N2565 C2563 1.384 . S
H2566 C2572 0.930 . S
H2567 C2576 0.930 . S
H2568 C2581 0.929 . S
H2569 C2579 0.929 . S
H2570 C2574 0.929 . S
H2571 C2580 0.929 . S
C2572 H2566 0.930 . S
C2572 C2573 1.367 . S
C2572 C2580 1.378 . S
C2573 C2572 1.367 . S
C2573 C2581 1.433 . S
C2574 H2570 0.929 . S
C2574 C2576 1.378 . S
C2574 C2578 1.350 . S
C2575 C2578 1.463 . S
C2575 C2580 1.350 . S
C2575 N2583 1.427 . S
C2576 H2567 0.930 . S
C2576 C2574 1.378 . S
C2576 C2577 1.367 . S
C2577 C2576 1.367 . S
C2577 C2579 1.433 . S
C2578 C2574 1.350 . S
C2578 C2575 1.463 . S
C2578 N2582 1.427 . S
C2579 H2569 0.929 . S
C2579 C2577 1.433 . S
C2579 N2582 1.384 . S
C2580 H2571 0.929 . S
C2580 C2572 1.378 . S
C2580 C2575 1.350 . S
C2581 H2568 0.929 . S
C2581 C2573 1.433 . S
C2581 N2583 1.384 . S
N2582 C2578 1.427 . S
N2582 C2579 1.384 . S
N2583 C2575 1.427 . S
N2583 C2581 1.384 . S
H2584 C2590 0.930 . S
H2585 C2594 0.930 . S
H2586 C2599 0.929 . S
H2587 C2597 0.929 . S
H2588 C2592 0.929 . S
H2589 C2598 0.929 . S
C2590 H2584 0.930 . S
C2590 C2591 1.367 . S
C2590 C2598 1.378 . S
C2591 C2590 1.367 . S
C2591 C2599 1.433 . S
C2592 H2588 0.929 . S
C2592 C2594 1.378 . S
C2592 C2596 1.350 . S
C2593 C2596 1.463 . S
C2593 C2598 1.350 . S
C2593 N2601 1.427 . S
C2594 H2585 0.930 . S
C2594 C2592 1.378 . S
C2594 C2595 1.367 . S
C2595 C2594 1.367 . S
C2595 C2597 1.433 . S
C2596 C2592 1.350 . S
C2596 C2593 1.463 . S
C2596 N2600 1.427 . S
C2597 H2587 0.929 . S
C2597 C2595 1.433 . S
C2597 N2600 1.384 . S
C2598 H2589 0.929 . S
C2598 C2590 1.378 . S
C2598 C2593 1.350 . S
C2599 H2586 0.929 . S
C2599 C2591 1.433 . S
C2599 N2601 1.384 . S
N2600 C2596 1.427 . S
N2600 C2597 1.384 . S
N2601 C2593 1.427 . S
N2601 C2599 1.384 . S
H2602 C2608 0.930 . S
H2603 C2612 0.930 . S
H2604 C2617 0.929 . S
H2605 C2615 0.929 . S
H2606 C2610 0.929 . S
H2607 C2616 0.929 . S
C2608 H2602 0.930 . S
C2608 C2609 1.367 . S
C2608 C2616 1.378 . S
C2609 C2608 1.367 . S
C2609 C2617 1.433 . S
C2610 H2606 0.929 . S
C2610 C2612 1.378 . S
C2610 C2614 1.350 . S
C2611 C2614 1.463 . S
C2611 C2616 1.350 . S
C2611 N2619 1.427 . S
C2612 H2603 0.930 . S
C2612 C2610 1.378 . S
C2612 C2613 1.367 . S
C2613 C2612 1.367 . S
C2613 C2615 1.433 . S
C2614 C2610 1.350 . S
C2614 C2611 1.463 . S
C2614 N2618 1.427 . S
C2615 H2605 0.929 . S
C2615 C2613 1.433 . S
C2615 N2618 1.384 . S
C2616 H2607 0.929 . S
C2616 C2608 1.378 . S
C2616 C2611 1.350 . S
C2617 H2604 0.929 . S
C2617 C2609 1.433 . S
C2617 N2619 1.384 . S
N2618 C2614 1.427 . S
N2618 C2615 1.384 . S
N2619 C2611 1.427 . S
N2619 C2617 1.384 . S
H2620 C2626 0.930 . S
H2621 C2630 0.930 . S
H2622 C2635 0.929 . S
H2623 C2633 0.929 . S
H2624 C2628 0.929 . S
H2625 C2634 0.929 . S
C2626 H2620 0.930 . S
C2626 C2627 1.367 . S
C2626 C2634 1.378 . S
C2627 C2626 1.367 . S
C2627 C2635 1.433 . S
C2628 H2624 0.929 . S
C2628 C2630 1.378 . S
C2628 C2632 1.350 . S
C2629 C2632 1.463 . S
C2629 C2634 1.350 . S
C2629 N2637 1.427 . S
C2630 H2621 0.930 . S
C2630 C2628 1.378 . S
C2630 C2631 1.367 . S
C2631 C2630 1.367 . S
C2631 C2633 1.433 . S
C2632 C2628 1.350 . S
C2632 C2629 1.463 . S
C2632 N2636 1.427 . S
C2633 H2623 0.929 . S
C2633 C2631 1.433 . S
C2633 N2636 1.384 . S
C2634 H2625 0.929 . S
C2634 C2626 1.378 . S
C2634 C2629 1.350 . S
C2635 H2622 0.929 . S
C2635 C2627 1.433 . S
C2635 N2637 1.384 . S
N2636 C2632 1.427 . S
N2636 C2633 1.384 . S
N2637 C2629 1.427 . S
N2637 C2635 1.384 . S
H2638 C2644 0.930 . S
H2639 C2648 0.930 . S
H2640 C2653 0.929 . S
H2641 C2651 0.929 . S
H2642 C2646 0.929 . S
H2643 C2652 0.929 . S
C2644 H2638 0.930 . S
C2644 C2645 1.367 . S
C2644 C2652 1.378 . S
C2645 C2644 1.367 . S
C2645 C2653 1.433 . S
C2646 H2642 0.929 . S
C2646 C2648 1.378 . S
C2646 C2650 1.350 . S
C2647 C2650 1.463 . S
C2647 C2652 1.350 . S
C2647 N2655 1.427 . S
C2648 H2639 0.930 . S
C2648 C2646 1.378 . S
C2648 C2649 1.367 . S
C2649 C2648 1.367 . S
C2649 C2651 1.433 . S
C2650 C2646 1.350 . S
C2650 C2647 1.463 . S
C2650 N2654 1.427 . S
C2651 H2641 0.929 . S
C2651 C2649 1.433 . S
C2651 N2654 1.384 . S
C2652 H2643 0.929 . S
C2652 C2644 1.378 . S
C2652 C2647 1.350 . S
C2653 H2640 0.929 . S
C2653 C2645 1.433 . S
C2653 N2655 1.384 . S
N2654 C2650 1.427 . S
N2654 C2651 1.384 . S
N2655 C2647 1.427 . S
N2655 C2653 1.384 . S
H2656 C2662 0.930 . S
H2657 C2666 0.930 . S
H2658 C2671 0.929 . S
H2659 C2669 0.929 . S
H2660 C2664 0.929 . S
H2661 C2670 0.929 . S
C2662 H2656 0.930 . S
C2662 C2663 1.367 . S
C2662 C2670 1.378 . S
C2663 C2662 1.367 . S
C2663 C2671 1.433 . S
C2664 H2660 0.929 . S
C2664 C2666 1.378 . S
C2664 C2668 1.350 . S
C2665 C2668 1.463 . S
C2665 C2670 1.350 . S
C2665 N2673 1.427 . S
C2666 H2657 0.930 . S
C2666 C2664 1.378 . S
C2666 C2667 1.367 . S
C2667 C2666 1.367 . S
C2667 C2669 1.433 . S
C2668 C2664 1.350 . S
C2668 C2665 1.463 . S
C2668 N2672 1.427 . S
C2669 H2659 0.929 . S
C2669 C2667 1.433 . S
C2669 N2672 1.384 . S
C2670 H2661 0.929 . S
C2670 C2662 1.378 . S
C2670 C2665 1.350 . S
C2671 H2658 0.929 . S
C2671 C2663 1.433 . S
C2671 N2673 1.384 . S
N2672 C2668 1.427 . S
N2672 C2669 1.384 . S
N2673 C2665 1.427 . S
N2673 C2671 1.384 . S
H2674 C2680 0.930 . S
H2675 C2684 0.930 . S
H2676 C2689 0.929 . S
H2677 C2687 0.929 . S
H2678 C2682 0.929 . S
H2679 C2688 0.929 . S
C2680 H2674 0.930 . S
C2680 C2681 1.367 . S
C2680 C2688 1.378 . S
C2681 C2680 1.367 . S
C2681 C2689 1.433 . S
C2682 H2678 0.929 . S
C2682 C2684 1.378 . S
C2682 C2686 1.350 . S
C2683 C2686 1.463 . S
C2683 C2688 1.350 . S
C2683 N2691 1.427 . S
C2684 H2675 0.930 . S
C2684 C2682 1.378 . S
C2684 C2685 1.367 . S
C2685 C2684 1.367 . S
C2685 C2687 1.433 . S
C2686 C2682 1.350 . S
C2686 C2683 1.463 . S
C2686 N2690 1.427 . S
C2687 H2677 0.929 . S
C2687 C2685 1.433 . S
C2687 N2690 1.384 . S
C2688 H2679 0.929 . S
C2688 C2680 1.378 . S
C2688 C2683 1.350 . S
C2689 H2676 0.929 . S
C2689 C2681 1.433 . S
C2689 N2691 1.384 . S
N2690 C2686 1.427 . S
N2690 C2687 1.384 . S
N2691 C2683 1.427 . S
N2691 C2689 1.384 . S
H2692 C2698 0.930 . S
H2693 C2702 0.930 . S
H2694 C2707 0.929 . S
H2695 C2705 0.929 . S
H2696 C2700 0.929 . S
H2697 C2706 0.929 . S
C2698 H2692 0.930 . S
C2698 C2699 1.367 . S
C2698 C2706 1.378 . S
C2699 C2698 1.367 . S
C2699 C2707 1.433 . S
C2700 H2696 0.929 . S
C2700 C2702 1.378 . S
C2700 C2704 1.350 . S
C2701 C2704 1.463 . S
C2701 C2706 1.350 . S
C2701 N2709 1.427 . S
C2702 H2693 0.930 . S
C2702 C2700 1.378 . S
C2702 C2703 1.367 . S
C2703 C2702 1.367 . S
C2703 C2705 1.433 . S
C2704 C2700 1.350 . S
C2704 C2701 1.463 . S
C2704 N2708 1.427 . S
C2705 H2695 0.929 . S
C2705 C2703 1.433 . S
C2705 N2708 1.384 . S
C2706 H2697 0.929 . S
C2706 C2698 1.378 . S
C2706 C2701 1.350 . S
C2707 H2694 0.929 . S
C2707 C2699 1.433 . S
C2707 N2709 1.384 . S
N2708 C2704 1.427 . S
N2708 C2705 1.384 . S
N2709 C2701 1.427 . S
N2709 C2707 1.384 . S
H2710 C2716 0.930 . S
H2711 C2720 0.930 . S
H2712 C2725 0.929 . S
H2713 C2723 0.929 . S
H2714 C2718 0.929 . S
H2715 C2724 0.929 . S
C2716 H2710 0.930 . S
C2716 C2717 1.367 . S
C2716 C2724 1.378 . S
C2717 C2716 1.367 . S
C2717 C2725 1.433 . S
C2718 H2714 0.929 . S
C2718 C2720 1.378 . S
C2718 C2722 1.350 . S
C2719 C2722 1.463 . S
C2719 C2724 1.350 . S
C2719 N2727 1.427 . S
C2720 H2711 0.930 . S
C2720 C2718 1.378 . S
C2720 C2721 1.367 . S
C2721 C2720 1.367 . S
C2721 C2723 1.433 . S
C2722 C2718 1.350 . S
C2722 C2719 1.463 . S
C2722 N2726 1.427 . S
C2723 H2713 0.929 . S
C2723 C2721 1.433 . S
C2723 N2726 1.384 . S
C2724 H2715 0.929 . S
C2724 C2716 1.378 . S
C2724 C2719 1.350 . S
C2725 H2712 0.929 . S
C2725 C2717 1.433 . S
C2725 N2727 1.384 . S
N2726 C2722 1.427 . S
N2726 C2723 1.384 . S
N2727 C2719 1.427 . S
N2727 C2725 1.384 . S
H2728 C2734 0.930 . S
H2729 C2738 0.930 . S
H2730 C2743 0.929 . S
H2731 C2741 0.929 . S
H2732 C2736 0.929 . S
H2733 C2742 0.929 . S
C2734 H2728 0.930 . S
C2734 C2735 1.367 . S
C2734 C2742 1.378 . S
C2735 C2734 1.367 . S
C2735 C2743 1.433 . S
C2736 H2732 0.929 . S
C2736 C2738 1.378 . S
C2736 C2740 1.350 . S
C2737 C2740 1.463 . S
C2737 C2742 1.350 . S
C2737 N2745 1.427 . S
C2738 H2729 0.930 . S
C2738 C2736 1.378 . S
C2738 C2739 1.367 . S
C2739 C2738 1.367 . S
C2739 C2741 1.433 . S
C2740 C2736 1.350 . S
C2740 C2737 1.463 . S
C2740 N2744 1.427 . S
C2741 H2731 0.929 . S
C2741 C2739 1.433 . S
C2741 N2744 1.384 . S
C2742 H2733 0.929 . S
C2742 C2734 1.378 . S
C2742 C2737 1.350 . S
C2743 H2730 0.929 . S
C2743 C2735 1.433 . S
C2743 N2745 1.384 . S
N2744 C2740 1.427 . S
N2744 C2741 1.384 . S
N2745 C2737 1.427 . S
N2745 C2743 1.384 . S
H2746 C2752 0.930 . S
H2747 C2756 0.930 . S
H2748 C2761 0.929 . S
H2749 C2759 0.929 . S
H2750 C2754 0.929 . S
H2751 C2760 0.929 . S
C2752 H2746 0.930 . S
C2752 C2753 1.367 . S
C2752 C2760 1.378 . S
C2753 C2752 1.367 . S
C2753 C2761 1.433 . S
C2754 H2750 0.929 . S
C2754 C2756 1.378 . S
C2754 C2758 1.350 . S
C2755 C2758 1.463 . S
C2755 C2760 1.350 . S
C2755 N2763 1.427 . S
C2756 H2747 0.930 . S
C2756 C2754 1.378 . S
C2756 C2757 1.367 . S
C2757 C2756 1.367 . S
C2757 C2759 1.433 . S
C2758 C2754 1.350 . S
C2758 C2755 1.463 . S
C2758 N2762 1.427 . S
C2759 H2749 0.929 . S
C2759 C2757 1.433 . S
C2759 N2762 1.384 . S
C2760 H2751 0.929 . S
C2760 C2752 1.378 . S
C2760 C2755 1.350 . S
C2761 H2748 0.929 . S
C2761 C2753 1.433 . S
C2761 N2763 1.384 . S
N2762 C2758 1.427 . S
N2762 C2759 1.384 . S
N2763 C2755 1.427 . S
N2763 C2761 1.384 . S
H2764 C2770 0.930 . S
H2765 C2774 0.930 . S
H2766 C2779 0.929 . S
H2767 C2777 0.929 . S
H2768 C2772 0.929 . S
H2769 C2778 0.929 . S
C2770 H2764 0.930 . S
C2770 C2771 1.367 . S
C2770 C2778 1.378 . S
C2771 C2770 1.367 . S
C2771 C2779 1.433 . S
C2772 H2768 0.929 . S
C2772 C2774 1.378 . S
C2772 C2776 1.350 . S
C2773 C2776 1.463 . S
C2773 C2778 1.350 . S
C2773 N2781 1.427 . S
C2774 H2765 0.930 . S
C2774 C2772 1.378 . S
C2774 C2775 1.367 . S
C2775 C2774 1.367 . S
C2775 C2777 1.433 . S
C2776 C2772 1.350 . S
C2776 C2773 1.463 . S
C2776 N2780 1.427 . S
C2777 H2767 0.929 . S
C2777 C2775 1.433 . S
C2777 N2780 1.384 . S
C2778 H2769 0.929 . S
C2778 C2770 1.378 . S
C2778 C2773 1.350 . S
C2779 H2766 0.929 . S
C2779 C2771 1.433 . S
C2779 N2781 1.384 . S
N2780 C2776 1.427 . S
N2780 C2777 1.384 . S
N2781 C2773 1.427 . S
N2781 C2779 1.384 . S
H2782 C2788 0.930 . S
H2783 C2792 0.930 . S
H2784 C2797 0.929 . S
H2785 C2795 0.929 . S
H2786 C2790 0.929 . S
H2787 C2796 0.929 . S
C2788 H2782 0.930 . S
C2788 C2789 1.367 . S
C2788 C2796 1.378 . S
C2789 C2788 1.367 . S
C2789 C2797 1.433 . S
C2790 H2786 0.929 . S
C2790 C2792 1.378 . S
C2790 C2794 1.350 . S
C2791 C2794 1.463 . S
C2791 C2796 1.350 . S
C2791 N2799 1.427 . S
C2792 H2783 0.930 . S
C2792 C2790 1.378 . S
C2792 C2793 1.367 . S
C2793 C2792 1.367 . S
C2793 C2795 1.433 . S
C2794 C2790 1.350 . S
C2794 C2791 1.463 . S
C2794 N2798 1.427 . S
C2795 H2785 0.929 . S
C2795 C2793 1.433 . S
C2795 N2798 1.384 . S
C2796 H2787 0.929 . S
C2796 C2788 1.378 . S
C2796 C2791 1.350 . S
C2797 H2784 0.929 . S
C2797 C2789 1.433 . S
C2797 N2799 1.384 . S
N2798 C2794 1.427 . S
N2798 C2795 1.384 . S
N2799 C2791 1.427 . S
N2799 C2797 1.384 . S
H2800 C2806 0.930 . S
H2801 C2810 0.930 . S
H2802 C2815 0.929 . S
H2803 C2813 0.929 . S
H2804 C2808 0.929 . S
H2805 C2814 0.929 . S
C2806 H2800 0.930 . S
C2806 C2807 1.367 . S
C2806 C2814 1.378 . S
C2807 C2806 1.367 . S
C2807 C2815 1.433 . S
C2808 H2804 0.929 . S
C2808 C2810 1.378 . S
C2808 C2812 1.350 . S
C2809 C2812 1.463 . S
C2809 C2814 1.350 . S
C2809 N2817 1.427 . S
C2810 H2801 0.930 . S
C2810 C2808 1.378 . S
C2810 C2811 1.367 . S
C2811 C2810 1.367 . S
C2811 C2813 1.433 . S
C2812 C2808 1.350 . S
C2812 C2809 1.463 . S
C2812 N2816 1.427 . S
C2813 H2803 0.929 . S
C2813 C2811 1.433 . S
C2813 N2816 1.384 . S
C2814 H2805 0.929 . S
C2814 C2806 1.378 . S
C2814 C2809 1.350 . S
C2815 H2802 0.929 . S
C2815 C2807 1.433 . S
C2815 N2817 1.384 . S
N2816 C2812 1.427 . S
N2816 C2813 1.384 . S
N2817 C2809 1.427 . S
N2817 C2815 1.384 . S
H2818 C2824 0.930 . S
H2819 C2828 0.930 . S
H2820 C2833 0.929 . S
H2821 C2831 0.929 . S
H2822 C2826 0.929 . S
H2823 C2832 0.929 . S
C2824 H2818 0.930 . S
C2824 C2825 1.367 . S
C2824 C2832 1.378 . S
C2825 C2824 1.367 . S
C2825 C2833 1.433 . S
C2826 H2822 0.929 . S
C2826 C2828 1.378 . S
C2826 C2830 1.350 . S
C2827 C2830 1.463 . S
C2827 C2832 1.350 . S
C2827 N2835 1.427 . S
C2828 H2819 0.930 . S
C2828 C2826 1.378 . S
C2828 C2829 1.367 . S
C2829 C2828 1.367 . S
C2829 C2831 1.433 . S
C2830 C2826 1.350 . S
C2830 C2827 1.463 . S
C2830 N2834 1.427 . S
C2831 H2821 0.929 . S
C2831 C2829 1.433 . S
C2831 N2834 1.384 . S
C2832 H2823 0.929 . S
C2832 C2824 1.378 . S
C2832 C2827 1.350 . S
C2833 H2820 0.929 . S
C2833 C2825 1.433 . S
C2833 N2835 1.384 . S
N2834 C2830 1.427 . S
N2834 C2831 1.384 . S
N2835 C2827 1.427 . S
N2835 C2833 1.384 . S
H2836 C2842 0.930 . S
H2837 C2846 0.930 . S
H2838 C2851 0.929 . S
H2839 C2849 0.929 . S
H2840 C2844 0.929 . S
H2841 C2850 0.929 . S
C2842 H2836 0.930 . S
C2842 C2843 1.367 . S
C2842 C2850 1.378 . S
C2843 C2842 1.367 . S
C2843 C2851 1.433 . S
C2844 H2840 0.929 . S
C2844 C2846 1.378 . S
C2844 C2848 1.350 . S
C2845 C2848 1.463 . S
C2845 C2850 1.350 . S
C2845 N2853 1.427 . S
C2846 H2837 0.930 . S
C2846 C2844 1.378 . S
C2846 C2847 1.367 . S
C2847 C2846 1.367 . S
C2847 C2849 1.433 . S
C2848 C2844 1.350 . S
C2848 C2845 1.463 . S
C2848 N2852 1.427 . S
C2849 H2839 0.929 . S
C2849 C2847 1.433 . S
C2849 N2852 1.384 . S
C2850 H2841 0.929 . S
C2850 C2842 1.378 . S
C2850 C2845 1.350 . S
C2851 H2838 0.929 . S
C2851 C2843 1.433 . S
C2851 N2853 1.384 . S
N2852 C2848 1.427 . S
N2852 C2849 1.384 . S
N2853 C2845 1.427 . S
N2853 C2851 1.384 . S
H2854 C2860 0.930 . S
H2855 C2864 0.930 . S
H2856 C2869 0.929 . S
H2857 C2867 0.929 . S
H2858 C2862 0.929 . S
H2859 C2868 0.929 . S
C2860 H2854 0.930 . S
C2860 C2861 1.367 . S
C2860 C2868 1.378 . S
C2861 C2860 1.367 . S
C2861 C2869 1.433 . S
C2862 H2858 0.929 . S
C2862 C2864 1.378 . S
C2862 C2866 1.350 . S
C2863 C2866 1.463 . S
C2863 C2868 1.350 . S
C2863 N2871 1.427 . S
C2864 H2855 0.930 . S
C2864 C2862 1.378 . S
C2864 C2865 1.367 . S
C2865 C2864 1.367 . S
C2865 C2867 1.433 . S
C2866 C2862 1.350 . S
C2866 C2863 1.463 . S
C2866 N2870 1.427 . S
C2867 H2857 0.929 . S
C2867 C2865 1.433 . S
C2867 N2870 1.384 . S
C2868 H2859 0.929 . S
C2868 C2860 1.378 . S
C2868 C2863 1.350 . S
C2869 H2856 0.929 . S
C2869 C2861 1.433 . S
C2869 N2871 1.384 . S
N2870 C2866 1.427 . S
N2870 C2867 1.384 . S
N2871 C2863 1.427 . S
N2871 C2869 1.384 . S
H2872 C2878 0.930 . S
H2873 C2882 0.930 . S
H2874 C2887 0.929 . S
H2875 C2885 0.929 . S
H2876 C2880 0.929 . S
H2877 C2886 0.929 . S
C2878 H2872 0.930 . S
C2878 C2879 1.367 . S
C2878 C2886 1.378 . S
C2879 C2878 1.367 . S
C2879 C2887 1.433 . S
C2880 H2876 0.929 . S
C2880 C2882 1.378 . S
C2880 C2884 1.350 . S
C2881 C2884 1.463 . S
C2881 C2886 1.350 . S
C2881 N2889 1.427 . S
C2882 H2873 0.930 . S
C2882 C2880 1.378 . S
C2882 C2883 1.367 . S
C2883 C2882 1.367 . S
C2883 C2885 1.433 . S
C2884 C2880 1.350 . S
C2884 C2881 1.463 . S
C2884 N2888 1.427 . S
C2885 H2875 0.929 . S
C2885 C2883 1.433 . S
C2885 N2888 1.384 . S
C2886 H2877 0.929 . S
C2886 C2878 1.378 . S
C2886 C2881 1.350 . S
C2887 H2874 0.929 . S
C2887 C2879 1.433 . S
C2887 N2889 1.384 . S
N2888 C2884 1.427 . S
N2888 C2885 1.384 . S
N2889 C2881 1.427 . S
N2889 C2887 1.384 . S
H2890 C2896 0.930 . S
H2891 C2900 0.930 . S
H2892 C2905 0.929 . S
H2893 C2903 0.929 . S
H2894 C2898 0.929 . S
H2895 C2904 0.929 . S
C2896 H2890 0.930 . S
C2896 C2897 1.367 . S
C2896 C2904 1.378 . S
C2897 C2896 1.367 . S
C2897 C2905 1.433 . S
C2898 H2894 0.929 . S
C2898 C2900 1.378 . S
C2898 C2902 1.350 . S
C2899 C2902 1.463 . S
C2899 C2904 1.350 . S
C2899 N2907 1.427 . S
C2900 H2891 0.930 . S
C2900 C2898 1.378 . S
C2900 C2901 1.367 . S
C2901 C2900 1.367 . S
C2901 C2903 1.433 . S
C2902 C2898 1.350 . S
C2902 C2899 1.463 . S
C2902 N2906 1.427 . S
C2903 H2893 0.929 . S
C2903 C2901 1.433 . S
C2903 N2906 1.384 . S
C2904 H2895 0.929 . S
C2904 C2896 1.378 . S
C2904 C2899 1.350 . S
C2905 H2892 0.929 . S
C2905 C2897 1.433 . S
C2905 N2907 1.384 . S
N2906 C2902 1.427 . S
N2906 C2903 1.384 . S
N2907 C2899 1.427 . S
N2907 C2905 1.384 . S
H2908 C2914 0.930 . S
H2909 C2918 0.930 . S
H2910 C2923 0.929 . S
H2911 C2921 0.929 . S
H2912 C2916 0.929 . S
H2913 C2922 0.929 . S
C2914 H2908 0.930 . S
C2914 C2915 1.367 . S
C2914 C2922 1.378 . S
C2915 C2914 1.367 . S
C2915 C2923 1.433 . S
C2916 H2912 0.929 . S
C2916 C2918 1.378 . S
C2916 C2920 1.350 . S
C2917 C2920 1.463 . S
C2917 C2922 1.350 . S
C2917 N2925 1.427 . S
C2918 H2909 0.930 . S
C2918 C2916 1.378 . S
C2918 C2919 1.367 . S
C2919 C2918 1.367 . S
C2919 C2921 1.433 . S
C2920 C2916 1.350 . S
C2920 C2917 1.463 . S
C2920 N2924 1.427 . S
C2921 H2911 0.929 . S
C2921 C2919 1.433 . S
C2921 N2924 1.384 . S
C2922 H2913 0.929 . S
C2922 C2914 1.378 . S
C2922 C2917 1.350 . S
C2923 H2910 0.929 . S
C2923 C2915 1.433 . S
C2923 N2925 1.384 . S
N2924 C2920 1.427 . S
N2924 C2921 1.384 . S
N2925 C2917 1.427 . S
N2925 C2923 1.384 . S
H2926 C2932 0.930 . S
H2927 C2936 0.930 . S
H2928 C2941 0.929 . S
H2929 C2939 0.929 . S
H2930 C2934 0.929 . S
H2931 C2940 0.929 . S
C2932 H2926 0.930 . S
C2932 C2933 1.367 . S
C2932 C2940 1.378 . S
C2933 C2932 1.367 . S
C2933 C2941 1.433 . S
C2934 H2930 0.929 . S
C2934 C2936 1.378 . S
C2934 C2938 1.350 . S
C2935 C2938 1.463 . S
C2935 C2940 1.350 . S
C2935 N2943 1.427 . S
C2936 H2927 0.930 . S
C2936 C2934 1.378 . S
C2936 C2937 1.367 . S
C2937 C2936 1.367 . S
C2937 C2939 1.433 . S
C2938 C2934 1.350 . S
C2938 C2935 1.463 . S
C2938 N2942 1.427 . S
C2939 H2929 0.929 . S
C2939 C2937 1.433 . S
C2939 N2942 1.384 . S
C2940 H2931 0.929 . S
C2940 C2932 1.378 . S
C2940 C2935 1.350 . S
C2941 H2928 0.929 . S
C2941 C2933 1.433 . S
C2941 N2943 1.384 . S
N2942 C2938 1.427 . S
N2942 C2939 1.384 . S
N2943 C2935 1.427 . S
N2943 C2941 1.384 . S
H2944 C2950 0.935 . S
H2945 C2954 0.935 . S
H2946 C2959 0.929 . S
H2947 C2957 0.929 . S
H2948 C2952 0.928 . S
H2949 C2958 0.928 . S
C2950 H2944 0.935 . S
C2950 C2951 1.367 . S
C2950 C2958 1.378 1_655 S
C2951 C2950 1.367 . S
C2951 C2959 1.433 1_556 S
C2952 H2948 0.928 . S
C2952 C2954 1.378 1_655 S
C2952 C2956 1.348 1_655 S
C2953 C2956 1.458 1_656 S
C2953 C2958 1.348 1_655 S
C2953 N2961 1.435 1_556 S
C2954 H2945 0.935 . S
C2954 C2952 1.378 1_455 S
C2954 C2955 1.367 . S
C2955 C2954 1.367 . S
C2955 C2957 1.433 1_554 S
C2956 C2952 1.348 1_455 S
C2956 C2953 1.458 1_454 S
C2956 N2960 1.435 1_554 S
C2957 H2947 0.929 . S
C2957 C2955 1.433 1_556 S
C2957 N2960 1.384 . S
C2958 H2949 0.928 . S
C2958 C2950 1.378 1_455 S
C2958 C2953 1.348 1_455 S
C2959 H2946 0.929 . S
C2959 C2951 1.433 1_554 S
C2959 N2961 1.384 . S
N2960 C2956 1.435 1_556 S
N2960 C2957 1.384 . S
N2961 C2953 1.435 1_554 S
N2961 C2959 1.384 . S
H2962 C2968 0.930 . S
H2963 C2972 0.930 . S
H2964 C2977 0.929 . S
H2965 C2975 0.929 . S
H2966 C2970 0.929 . S
H2967 C2976 0.929 . S
C2968 H2962 0.930 . S
C2968 C2969 1.367 1_556 S
C2968 C2976 1.378 . S
C2969 C2968 1.367 1_554 S
C2969 C2977 1.433 . S
C2970 H2966 0.929 . S
C2970 C2972 1.378 . S
C2970 C2974 1.350 1_554 S
C2971 C2974 1.463 1_554 S
C2971 C2976 1.350 1_554 S
C2971 N2979 1.427 . S
C2972 H2963 0.930 . S
C2972 C2970 1.378 . S
C2972 C2973 1.367 1_554 S
C2973 C2972 1.367 1_556 S
C2973 C2975 1.433 . S
C2974 C2970 1.350 1_556 S
C2974 C2971 1.463 1_556 S
C2974 N2978 1.427 . S
C2975 H2965 0.929 . S
C2975 C2973 1.433 . S
C2975 N2978 1.384 . S
C2976 H2967 0.929 . S
C2976 C2968 1.378 . S
C2976 C2971 1.350 1_556 S
C2977 H2964 0.929 . S
C2977 C2969 1.433 . S
C2977 N2979 1.384 . S
N2978 C2974 1.427 . S
N2978 C2975 1.384 . S
N2979 C2971 1.427 . S
N2979 C2977 1.384 . S
H2980 C2986 0.930 . S
H2981 C2990 0.930 . S
H2982 C2995 0.929 . S
H2983 C2993 0.929 . S
H2984 C2988 0.929 . S
H2985 C2994 0.929 . S
C2986 H2980 0.930 . S
C2986 C2987 1.367 1_655 S
C2986 C2994 1.378 . S
C2987 C2986 1.367 1_455 S
C2987 C2995 1.433 . S
C2988 H2984 0.929 . S
C2988 C2990 1.378 . S
C2988 C2992 1.341 1_455 S
C2989 C2992 1.459 1_455 S
C2989 C2994 1.341 1_455 S
C2989 N2997 1.441 . S
C2990 H2981 0.930 . S
C2990 C2988 1.378 . S
C2990 C2991 1.367 1_455 S
C2991 C2990 1.367 1_655 S
C2991 C2993 1.433 . S
C2992 C2988 1.341 1_655 S
C2992 C2989 1.459 1_655 S
C2992 N2996 1.441 . S
C2993 H2983 0.929 . S
C2993 C2991 1.433 . S
C2993 N2996 1.384 . S
C2994 H2985 0.929 . S
C2994 C2986 1.378 . S
C2994 C2989 1.341 1_655 S
C2995 H2982 0.929 . S
C2995 C2987 1.433 . S
C2995 N2997 1.384 . S
N2996 C2992 1.441 . S
N2996 C2993 1.384 . S
N2997 C2989 1.441 . S
N2997 C2995 1.384 . S
H2998 C3004 0.930 . S
H2999 C3008 0.930 . S
H3000 C3013 0.929 . S
H3001 C3011 0.929 . S
H3002 C3006 0.929 . S
H3003 C3012 0.929 . S
C3004 H2998 0.930 . S
C3004 C3005 1.367 . S
C3004 C3012 1.378 . S
C3005 C3004 1.367 . S
C3005 C3013 1.433 . S
C3006 H3002 0.929 . S
C3006 C3008 1.378 . S
C3006 C3010 1.350 . S
C3007 C3010 1.463 . S
C3007 C3012 1.350 . S
C3007 N3015 1.427 . S
C3008 H2999 0.930 . S
C3008 C3006 1.378 . S
C3008 C3009 1.367 . S
C3009 C3008 1.367 . S
C3009 C3011 1.433 . S
C3010 C3006 1.350 . S
C3010 C3007 1.463 . S
C3010 N3014 1.427 . S
C3011 H3001 0.929 . S
C3011 C3009 1.433 . S
C3011 N3014 1.384 . S
C3012 H3003 0.929 . S
C3012 C3004 1.378 . S
C3012 C3007 1.350 . S
C3013 H3000 0.929 . S
C3013 C3005 1.433 . S
C3013 N3015 1.384 . S
N3014 C3010 1.427 . S
N3014 C3011 1.384 . S
N3015 C3007 1.427 . S
N3015 C3013 1.384 . S
H3016 C3022 0.930 . S
H3017 C3026 0.930 . S
H3018 C3031 0.929 . S
H3019 C3029 0.929 . S
H3020 C3024 0.929 . S
H3021 C3030 0.929 . S
C3022 H3016 0.930 . S
C3022 C3023 1.367 1_554 S
C3022 C3030 1.378 . S
C3023 C3022 1.367 1_556 S
C3023 C3031 1.433 . S
C3024 H3020 0.929 . S
C3024 C3026 1.378 . S
C3024 C3028 1.350 1_556 S
C3025 C3028 1.463 1_556 S
C3025 C3030 1.350 1_556 S
C3025 N3033 1.427 . S
C3026 H3017 0.930 . S
C3026 C3024 1.378 . S
C3026 C3027 1.367 1_556 S
C3027 C3026 1.367 1_554 S
C3027 C3029 1.433 . S
C3028 C3024 1.350 1_554 S
C3028 C3025 1.463 1_554 S
C3028 N3032 1.427 . S
C3029 H3019 0.929 . S
C3029 C3027 1.433 . S
C3029 N3032 1.384 . S
C3030 H3021 0.929 . S
C3030 C3022 1.378 . S
C3030 C3025 1.350 1_554 S
C3031 H3018 0.929 . S
C3031 C3023 1.433 . S
C3031 N3033 1.384 . S
N3032 C3028 1.427 . S
N3032 C3029 1.384 . S
N3033 C3025 1.427 . S
N3033 C3031 1.384 . S
H3034 C3040 0.930 . S
H3035 C3044 0.930 . S
H3036 C3049 0.929 . S
H3037 C3047 0.929 . S
H3038 C3042 0.929 . S
H3039 C3048 0.929 . S
C3040 H3034 0.930 . S
C3040 C3041 1.367 1_455 S
C3040 C3048 1.378 . S
C3041 C3040 1.367 1_655 S
C3041 C3049 1.433 . S
C3042 H3038 0.929 . S
C3042 C3044 1.378 . S
C3042 C3046 1.342 1_655 S
C3043 C3046 1.459 1_655 S
C3043 C3048 1.342 1_655 S
C3043 N3051 1.440 . S
C3044 H3035 0.930 . S
C3044 C3042 1.378 . S
C3044 C3045 1.367 1_655 S
C3045 C3044 1.367 1_455 S
C3045 C3047 1.433 . S
C3046 C3042 1.342 1_455 S
C3046 C3043 1.459 1_455 S
C3046 N3050 1.440 . S
C3047 H3037 0.929 . S
C3047 C3045 1.433 . S
C3047 N3050 1.384 . S
C3048 H3039 0.929 . S
C3048 C3040 1.378 . S
C3048 C3043 1.342 1_455 S
C3049 H3036 0.929 . S
C3049 C3041 1.433 . S
C3049 N3051 1.384 . S
N3050 C3046 1.440 . S
N3050 C3047 1.384 . S
N3051 C3043 1.440 . S
N3051 C3049 1.384 . S
H3052 C3058 0.930 . S
H3053 C3062 0.930 . S
H3054 C3067 0.929 . S
H3055 C3065 0.929 . S
H3056 C3060 0.929 . S
H3057 C3066 0.929 . S
C3058 H3052 0.930 . S
C3058 C3059 1.367 . S
C3058 C3066 1.378 . S
C3059 C3058 1.367 . S
C3059 C3067 1.433 . S
C3060 H3056 0.929 . S
C3060 C3062 1.378 . S
C3060 C3064 1.350 . S
C3061 C3064 1.463 . S
C3061 C3066 1.350 . S
C3061 N3069 1.427 . S
C3062 H3053 0.930 . S
C3062 C3060 1.378 . S
C3062 C3063 1.367 . S
C3063 C3062 1.367 . S
C3063 C3065 1.433 . S
C3064 C3060 1.350 . S
C3064 C3061 1.463 . S
C3064 N3068 1.427 . S
C3065 H3055 0.929 . S
C3065 C3063 1.433 . S
C3065 N3068 1.384 . S
C3066 H3057 0.929 . S
C3066 C3058 1.378 . S
C3066 C3061 1.350 . S
C3067 H3054 0.929 . S
C3067 C3059 1.433 . S
C3067 N3069 1.384 . S
N3068 C3064 1.427 . S
N3068 C3065 1.384 . S
N3069 C3061 1.427 . S
N3069 C3067 1.384 . S
H3070 C3076 0.930 . S
H3071 C3080 0.930 . S
H3072 C3085 0.929 . S
H3073 C3083 0.929 . S
H3074 C3078 0.929 . S
H3075 C3084 0.929 . S
C3076 H3070 0.930 . S
C3076 C3077 1.367 . S
C3076 C3084 1.378 . S
C3077 C3076 1.367 . S
C3077 C3085 1.433 1_455 S
C3078 H3074 0.929 . S
C3078 C3080 1.378 . S
C3078 C3082 1.371 . S
C3079 C3082 1.455 1_445 S
C3079 C3084 1.371 . S
C3079 N3087 1.415 1_455 S
C3080 H3071 0.930 . S
C3080 C3078 1.378 . S
C3080 C3081 1.367 . S
C3081 C3080 1.367 . S
C3081 C3083 1.433 1_655 S
C3082 C3078 1.371 . S
C3082 C3079 1.455 1_665 S
C3082 N3086 1.415 1_655 S
C3083 H3073 0.929 . S
C3083 C3081 1.433 1_455 S
C3083 N3086 1.384 . S
C3084 H3075 0.929 . S
C3084 C3076 1.378 . S
C3084 C3079 1.371 . S
C3085 H3072 0.929 . S
C3085 C3077 1.433 1_655 S
C3085 N3087 1.384 . S
N3086 C3082 1.415 1_455 S
N3086 C3083 1.384 . S
N3087 C3079 1.415 1_655 S
N3087 C3085 1.384 . S
H3088 C3094 0.930 . S
H3089 C3098 0.930 . S
H3090 C3103 0.929 . S
H3091 C3101 0.929 . S
H3092 C3096 0.929 . S
H3093 C3102 0.929 . S
C3094 H3088 0.930 . S
C3094 C3095 1.367 . S
C3094 C3102 1.378 . S
C3095 C3094 1.367 . S
C3095 C3103 1.433 . S
C3096 H3092 0.929 . S
C3096 C3098 1.378 . S
C3096 C3100 1.350 . S
C3097 C3100 1.463 . S
C3097 C3102 1.350 . S
C3097 N3105 1.427 . S
C3098 H3089 0.930 . S
C3098 C3096 1.378 . S
C3098 C3099 1.367 . S
C3099 C3098 1.367 . S
C3099 C3101 1.433 . S
C3100 C3096 1.350 . S
C3100 C3097 1.463 . S
C3100 N3104 1.427 . S
C3101 H3091 0.929 . S
C3101 C3099 1.433 . S
C3101 N3104 1.384 . S
C3102 H3093 0.929 . S
C3102 C3094 1.378 . S
C3102 C3097 1.350 . S
C3103 H3090 0.929 . S
C3103 C3095 1.433 . S
C3103 N3105 1.384 . S
N3104 C3100 1.427 . S
N3104 C3101 1.384 . S
N3105 C3097 1.427 . S
N3105 C3103 1.384 . S
H3106 C3112 0.930 . S
H3107 C3116 0.930 . S
H3108 C3121 0.929 . S
H3109 C3119 0.929 . S
H3110 C3114 0.929 . S
H3111 C3120 0.929 . S
C3112 H3106 0.930 . S
C3112 C3113 1.367 . S
C3112 C3120 1.378 . S
C3113 C3112 1.367 . S
C3113 C3121 1.433 . S
C3114 H3110 0.929 . S
C3114 C3116 1.378 . S
C3114 C3118 1.350 . S
C3115 C3118 1.463 1_565 S
C3115 C3120 1.350 . S
C3115 N3123 1.427 . S
C3116 H3107 0.930 . S
C3116 C3114 1.378 . S
C3116 C3117 1.367 . S
C3117 C3116 1.367 . S
C3117 C3119 1.433 . S
C3118 C3114 1.350 . S
C3118 C3115 1.463 1_545 S
C3118 N3122 1.427 . S
C3119 H3109 0.929 . S
C3119 C3117 1.433 . S
C3119 N3122 1.384 . S
C3120 H3111 0.929 . S
C3120 C3112 1.378 . S
C3120 C3115 1.350 . S
C3121 H3108 0.929 . S
C3121 C3113 1.433 . S
C3121 N3123 1.384 . S
N3122 C3118 1.427 . S
N3122 C3119 1.384 . S
N3123 C3115 1.427 . S
N3123 C3121 1.384 . S
H3124 C3130 0.930 . S
H3125 C3134 0.930 . S
H3126 C3139 0.929 . S
H3127 C3137 0.929 . S
H3128 C3132 0.929 . S
H3129 C3138 0.929 . S
C3130 H3124 0.930 . S
C3130 C3131 1.367 . S
C3130 C3138 1.378 . S
C3131 C3130 1.367 . S
C3131 C3139 1.433 . S
C3132 H3128 0.929 . S
C3132 C3134 1.378 . S
C3132 C3136 1.350 . S
C3133 C3136 1.463 . S
C3133 C3138 1.350 . S
C3133 N3141 1.427 . S
C3134 H3125 0.930 . S
C3134 C3132 1.378 . S
C3134 C3135 1.367 . S
C3135 C3134 1.367 . S
C3135 C3137 1.433 . S
C3136 C3132 1.350 . S
C3136 C3133 1.463 . S
C3136 N3140 1.427 . S
C3137 H3127 0.929 . S
C3137 C3135 1.433 . S
C3137 N3140 1.384 . S
C3138 H3129 0.929 . S
C3138 C3130 1.378 . S
C3138 C3133 1.350 . S
C3139 H3126 0.929 . S
C3139 C3131 1.433 . S
C3139 N3141 1.384 . S
N3140 C3136 1.427 . S
N3140 C3137 1.384 . S
N3141 C3133 1.427 . S
N3141 C3139 1.384 . S
H3142 C3148 0.930 . S
H3143 C3152 0.930 . S
H3144 C3157 0.929 . S
H3145 C3155 0.929 . S
H3146 C3150 0.929 . S
H3147 C3156 0.929 . S
C3148 H3142 0.930 . S
C3148 C3149 1.367 . S
C3148 C3156 1.378 . S
C3149 C3148 1.367 . S
C3149 C3157 1.433 . S
C3150 H3146 0.929 . S
C3150 C3152 1.378 . S
C3150 C3154 1.350 . S
C3151 C3154 1.463 1_565 S
C3151 C3156 1.350 . S
C3151 N3159 1.427 . S
C3152 H3143 0.930 . S
C3152 C3150 1.378 . S
C3152 C3153 1.367 . S
C3153 C3152 1.367 . S
C3153 C3155 1.433 . S
C3154 C3150 1.350 . S
C3154 C3151 1.463 1_545 S
C3154 N3158 1.427 . S
C3155 H3145 0.929 . S
C3155 C3153 1.433 . S
C3155 N3158 1.384 . S
C3156 H3147 0.929 . S
C3156 C3148 1.378 . S
C3156 C3151 1.350 . S
C3157 H3144 0.929 . S
C3157 C3149 1.433 . S
C3157 N3159 1.384 . S
N3158 C3154 1.427 . S
N3158 C3155 1.384 . S
N3159 C3151 1.427 . S
N3159 C3157 1.384 . S
H3160 C3166 0.930 . S
H3161 C3170 0.930 . S
H3162 C3175 0.929 . S
H3163 C3173 0.929 . S
H3164 C3168 0.929 . S
H3165 C3174 0.929 . S
C3166 H3160 0.930 . S
C3166 C3167 1.367 . S
C3166 C3174 1.378 . S
C3167 C3166 1.367 . S
C3167 C3175 1.433 . S
C3168 H3164 0.929 . S
C3168 C3170 1.378 . S
C3168 C3172 1.350 . S
C3169 C3172 1.463 . S
C3169 C3174 1.350 . S
C3169 N3177 1.427 . S
C3170 H3161 0.930 . S
C3170 C3168 1.378 . S
C3170 C3171 1.367 . S
C3171 C3170 1.367 . S
C3171 C3173 1.433 . S
C3172 C3168 1.350 . S
C3172 C3169 1.463 . S
C3172 N3176 1.427 . S
C3173 H3163 0.929 . S
C3173 C3171 1.433 . S
C3173 N3176 1.384 . S
C3174 H3165 0.929 . S
C3174 C3166 1.378 . S
C3174 C3169 1.350 . S
C3175 H3162 0.929 . S
C3175 C3167 1.433 . S
C3175 N3177 1.384 . S
N3176 C3172 1.427 . S
N3176 C3173 1.384 . S
N3177 C3169 1.427 . S
N3177 C3175 1.384 . S
H3178 C3184 0.930 . S
H3179 C3188 0.930 . S
H3180 C3193 0.929 . S
H3181 C3191 0.929 . S
H3182 C3186 0.929 . S
H3183 C3192 0.929 . S
C3184 H3178 0.930 . S
C3184 C3185 1.367 . S
C3184 C3192 1.378 . S
C3185 C3184 1.367 . S
C3185 C3193 1.433 . S
C3186 H3182 0.929 . S
C3186 C3188 1.378 . S
C3186 C3190 1.350 . S
C3187 C3190 1.463 . S
C3187 C3192 1.350 . S
C3187 N3195 1.427 . S
C3188 H3179 0.930 . S
C3188 C3186 1.378 . S
C3188 C3189 1.367 . S
C3189 C3188 1.367 . S
C3189 C3191 1.433 . S
C3190 C3186 1.350 . S
C3190 C3187 1.463 . S
C3190 N3194 1.427 . S
C3191 H3181 0.929 . S
C3191 C3189 1.433 . S
C3191 N3194 1.384 . S
C3192 H3183 0.929 . S
C3192 C3184 1.378 . S
C3192 C3187 1.350 . S
C3193 H3180 0.929 . S
C3193 C3185 1.433 . S
C3193 N3195 1.384 . S
N3194 C3190 1.427 . S
N3194 C3191 1.384 . S
N3195 C3187 1.427 . S
N3195 C3193 1.384 . S
H3196 C3202 0.930 . S
H3197 C3206 0.930 . S
H3198 C3211 0.929 . S
H3199 C3209 0.929 . S
H3200 C3204 0.929 . S
H3201 C3210 0.929 . S
C3202 H3196 0.930 . S
C3202 C3203 1.367 . S
C3202 C3210 1.378 . S
C3203 C3202 1.367 . S
C3203 C3211 1.433 . S
C3204 H3200 0.929 . S
C3204 C3206 1.378 . S
C3204 C3208 1.350 . S
C3205 C3208 1.463 . S
C3205 C3210 1.350 . S
C3205 N3213 1.427 . S
C3206 H3197 0.930 . S
C3206 C3204 1.378 . S
C3206 C3207 1.367 . S
C3207 C3206 1.367 . S
C3207 C3209 1.433 . S
C3208 C3204 1.350 . S
C3208 C3205 1.463 . S
C3208 N3212 1.427 . S
C3209 H3199 0.929 . S
C3209 C3207 1.433 . S
C3209 N3212 1.384 . S
C3210 H3201 0.929 . S
C3210 C3202 1.378 . S
C3210 C3205 1.350 . S
C3211 H3198 0.929 . S
C3211 C3203 1.433 . S
C3211 N3213 1.384 . S
N3212 C3208 1.427 . S
N3212 C3209 1.384 . S
N3213 C3205 1.427 . S
N3213 C3211 1.384 . S
H3214 C3220 0.930 . S
H3215 C3224 0.930 . S
H3216 C3229 0.929 . S
H3217 C3227 0.929 . S
H3218 C3222 0.929 . S
H3219 C3228 0.929 . S
C3220 H3214 0.930 . S
C3220 C3221 1.367 1_556 S
C3220 C3228 1.378 . S
C3221 C3220 1.367 1_554 S
C3221 C3229 1.433 . S
C3222 H3218 0.929 . S
C3222 C3224 1.378 . S
C3222 C3226 1.350 1_554 S
C3223 C3226 1.463 1_544 S
C3223 C3228 1.350 1_554 S
C3223 N3231 1.427 . S
C3224 H3215 0.930 . S
C3224 C3222 1.378 . S
C3224 C3225 1.367 1_554 S
C3225 C3224 1.367 1_556 S
C3225 C3227 1.433 . S
C3226 C3222 1.350 1_556 S
C3226 C3223 1.463 1_566 S
C3226 N3230 1.427 . S
C3227 H3217 0.929 . S
C3227 C3225 1.433 . S
C3227 N3230 1.384 . S
C3228 H3219 0.929 . S
C3228 C3220 1.378 . S
C3228 C3223 1.350 1_556 S
C3229 H3216 0.929 . S
C3229 C3221 1.433 . S
C3229 N3231 1.384 . S
N3230 C3226 1.427 . S
N3230 C3227 1.384 . S
N3231 C3223 1.427 . S
N3231 C3229 1.384 . S
H3232 C3238 0.930 . S
H3233 C3242 0.925 . S
H3234 C3247 0.938 . S
H3235 C3245 0.929 . S
H3236 C3240 0.923 . S
H3237 C3246 0.929 . S
C3238 H3232 0.930 . S
C3238 C3239 1.367 . S
C3238 C3246 1.378 . S
C3239 C3238 1.367 . S
C3239 C3247 1.424 1_455 S
C3240 H3236 0.923 . S
C3240 C3242 1.378 . S
C3240 C3244 1.355 1_655 S
C3241 C3244 1.463 . S
C3241 C3246 1.350 . S
C3241 N3249 1.429 1_455 S
C3242 H3233 0.925 . S
C3242 C3240 1.378 . S
C3242 C3243 1.373 1_655 S
C3243 C3242 1.373 1_455 S
C3243 C3245 1.433 . S
C3244 C3240 1.355 1_455 S
C3244 C3241 1.463 . S
C3244 N3248 1.427 . S
C3245 H3235 0.929 . S
C3245 C3243 1.433 . S
C3245 N3248 1.384 . S
C3246 H3237 0.929 . S
C3246 C3238 1.378 . S
C3246 C3241 1.350 . S
C3247 H3234 0.938 . S
C3247 C3239 1.424 1_655 S
C3247 N3249 1.383 . S
N3248 C3244 1.427 . S
N3248 C3245 1.384 . S
N3249 C3241 1.429 1_655 S
N3249 C3247 1.383 . S
H3250 C3256 0.930 . S
H3251 C3260 0.930 . S
H3252 C3265 0.929 . S
H3253 C3263 0.929 . S
H3254 C3258 0.929 . S
H3255 C3264 0.929 . S
C3256 H3250 0.930 . S
C3256 C3257 1.367 . S
C3256 C3264 1.378 . S
C3257 C3256 1.367 . S
C3257 C3265 1.433 . S
C3258 H3254 0.929 . S
C3258 C3260 1.378 . S
C3258 C3262 1.350 . S
C3259 C3262 1.463 . S
C3259 C3264 1.350 . S
C3259 N3267 1.427 . S
C3260 H3251 0.930 . S
C3260 C3258 1.378 . S
C3260 C3261 1.367 . S
C3261 C3260 1.367 . S
C3261 C3263 1.433 . S
C3262 C3258 1.350 . S
C3262 C3259 1.463 . S
C3262 N3266 1.427 . S
C3263 H3253 0.929 . S
C3263 C3261 1.433 . S
C3263 N3266 1.384 . S
C3264 H3255 0.929 . S
C3264 C3256 1.378 . S
C3264 C3259 1.350 . S
C3265 H3252 0.929 . S
C3265 C3257 1.433 . S
C3265 N3267 1.384 . S
N3266 C3262 1.427 . S
N3266 C3263 1.384 . S
N3267 C3259 1.427 . S
N3267 C3265 1.384 . S
H3268 C3274 0.963 . S
H3269 C3278 0.930 . S
H3270 C3283 0.929 . S
H3271 C3281 0.957 . S
H3272 C3276 0.929 . S
H3273 C3282 0.961 . S
C3274 H3268 0.963 . S
C3274 C3275 1.367 . S
C3274 C3282 1.378 . S
C3275 C3274 1.367 . S
C3275 C3283 1.433 . S
C3276 H3272 0.929 . S
C3276 C3278 1.378 . S
C3276 C3280 1.350 . S
C3277 C3280 1.463 . S
C3277 C3282 1.350 . S
C3277 N3285 1.427 . S
C3278 H3269 0.930 . S
C3278 C3276 1.378 . S
C3278 C3279 1.367 . S
C3279 C3278 1.367 . S
C3279 C3281 1.433 . S
C3280 C3276 1.350 . S
C3280 C3277 1.463 . S
C3280 N3284 1.427 . S
C3281 H3271 0.957 . S
C3281 C3279 1.433 . S
C3281 N3284 1.384 . S
C3282 H3273 0.961 . S
C3282 C3274 1.378 . S
C3282 C3277 1.350 . S
C3283 H3270 0.929 . S
C3283 C3275 1.433 . S
C3283 N3285 1.384 . S
N3284 C3280 1.427 . S
N3284 C3281 1.384 . S
N3285 C3277 1.427 . S
N3285 C3283 1.384 . S
H3286 C3292 0.930 . S
H3287 C3296 0.930 . S
H3288 C3301 0.929 . S
H3289 C3299 0.929 . S
H3290 C3294 0.929 . S
H3291 C3300 0.929 . S
C3292 H3286 0.930 . S
C3292 C3293 1.367 . S
C3292 C3300 1.378 . S
C3293 C3292 1.367 . S
C3293 C3301 1.433 . S
C3294 H3290 0.929 . S
C3294 C3296 1.378 . S
C3294 C3298 1.350 . S
C3295 C3298 1.463 . S
C3295 C3300 1.350 . S
C3295 N3303 1.427 . S
C3296 H3287 0.930 . S
C3296 C3294 1.378 . S
C3296 C3297 1.367 . S
C3297 C3296 1.367 . S
C3297 C3299 1.433 . S
C3298 C3294 1.350 . S
C3298 C3295 1.463 . S
C3298 N3302 1.427 . S
C3299 H3289 0.929 . S
C3299 C3297 1.433 . S
C3299 N3302 1.384 . S
C3300 H3291 0.929 . S
C3300 C3292 1.378 . S
C3300 C3295 1.350 . S
C3301 H3288 0.929 . S
C3301 C3293 1.433 . S
C3301 N3303 1.384 . S
N3302 C3298 1.427 . S
N3302 C3299 1.384 . S
N3303 C3295 1.427 . S
N3303 C3301 1.384 . S
H3304 C3310 0.930 . S
H3305 C3314 0.930 1_655 S
H3306 C3319 0.924 1_655 S
H3307 C3317 0.929 . S
H3308 C3312 0.928 1_655 S
H3309 C3318 0.929 . S
C3310 H3304 0.930 . S
C3310 C3311 1.367 . S
C3310 C3318 1.378 . S
C3311 C3310 1.367 . S
C3311 C3319 1.433 . S
C3312 H3308 0.928 1_455 S
C3312 C3314 1.378 . S
C3312 C3316 1.350 . S
C3313 C3316 1.463 . S
C3313 C3318 1.350 . S
C3313 N3321 1.427 . S
C3314 H3305 0.930 1_455 S
C3314 C3312 1.378 . S
C3314 C3315 1.367 . S
C3315 C3314 1.367 . S
C3315 C3317 1.433 . S
C3316 C3312 1.350 . S
C3316 C3313 1.463 . S
C3316 N3320 1.427 . S
C3317 H3307 0.929 . S
C3317 C3315 1.433 . S
C3317 N3320 1.384 . S
C3318 H3309 0.929 . S
C3318 C3310 1.378 . S
C3318 C3313 1.350 . S
C3319 H3306 0.924 1_455 S
C3319 C3311 1.433 . S
C3319 N3321 1.384 . S
N3320 C3316 1.427 . S
N3320 C3317 1.384 . S
N3321 C3313 1.427 . S
N3321 C3319 1.384 . S
H3322 C3328 0.930 . S
H3323 C3332 0.930 . S
H3324 C3337 0.929 . S
H3325 C3335 0.929 . S
H3326 C3330 0.929 . S
H3327 C3336 0.929 . S
C3328 H3322 0.930 . S
C3328 C3329 1.367 . S
C3328 C3336 1.378 . S
C3329 C3328 1.367 . S
C3329 C3337 1.433 . S
C3330 H3326 0.929 . S
C3330 C3332 1.378 . S
C3330 C3334 1.350 . S
C3331 C3334 1.463 . S
C3331 C3336 1.350 . S
C3331 N3339 1.427 . S
C3332 H3323 0.930 . S
C3332 C3330 1.378 . S
C3332 C3333 1.367 . S
C3333 C3332 1.367 . S
C3333 C3335 1.433 . S
C3334 C3330 1.350 . S
C3334 C3331 1.463 . S
C3334 N3338 1.427 . S
C3335 H3325 0.929 . S
C3335 C3333 1.433 . S
C3335 N3338 1.384 . S
C3336 H3327 0.929 . S
C3336 C3328 1.378 . S
C3336 C3331 1.350 . S
C3337 H3324 0.929 . S
C3337 C3329 1.433 . S
C3337 N3339 1.384 . S
N3338 C3334 1.427 . S
N3338 C3335 1.384 . S
N3339 C3331 1.427 . S
N3339 C3337 1.384 . S
H3340 C3346 0.930 1_455 S
H3341 C3350 0.930 . S
H3342 C3355 0.929 . S
H3343 C3353 0.888 1_455 S
H3344 C3348 0.929 . S
H3345 C3354 0.929 1_455 S
C3346 H3340 0.930 1_655 S
C3346 C3347 1.367 . S
C3346 C3354 1.378 . S
C3347 C3346 1.367 . S
C3347 C3355 1.433 . S
C3348 H3344 0.929 . S
C3348 C3350 1.378 . S
C3348 C3352 1.350 . S
C3349 C3352 1.463 . S
C3349 C3354 1.350 . S
C3349 N3357 1.427 . S
C3350 H3341 0.930 . S
C3350 C3348 1.378 . S
C3350 C3351 1.367 . S
C3351 C3350 1.367 . S
C3351 C3353 1.477 . S
C3352 C3348 1.350 . S
C3352 C3349 1.463 . S
C3352 N3356 1.481 . S
C3353 H3343 0.888 1_655 S
C3353 C3351 1.477 . S
C3353 N3356 1.384 . S
C3354 H3345 0.929 1_655 S
C3354 C3346 1.378 . S
C3354 C3349 1.350 . S
C3355 H3342 0.929 . S
C3355 C3347 1.433 . S
C3355 N3357 1.384 . S
N3356 C3352 1.481 . S
N3356 C3353 1.384 . S
N3357 C3349 1.427 . S
N3357 C3355 1.384 . S
H3358 C3364 0.930 . S
H3359 C3368 0.930 . S
H3360 C3373 0.929 . S
H3361 C3371 0.929 . S
H3362 C3366 0.929 . S
H3363 C3372 0.929 . S
C3364 H3358 0.930 . S
C3364 C3365 1.367 . S
C3364 C3372 1.378 . S
C3365 C3364 1.367 . S
C3365 C3373 1.433 . S
C3366 H3362 0.929 . S
C3366 C3368 1.378 . S
C3366 C3370 1.350 . S
C3367 C3370 1.463 . S
C3367 C3372 1.350 . S
C3367 N3375 1.427 . S
C3368 H3359 0.930 . S
C3368 C3366 1.378 . S
C3368 C3369 1.367 . S
C3369 C3368 1.367 . S
C3369 C3371 1.433 . S
C3370 C3366 1.350 . S
C3370 C3367 1.463 . S
C3370 N3374 1.427 . S
C3371 H3361 0.929 . S
C3371 C3369 1.433 . S
C3371 N3374 1.384 . S
C3372 H3363 0.929 . S
C3372 C3364 1.378 . S
C3372 C3367 1.350 . S
C3373 H3360 0.929 . S
C3373 C3365 1.433 . S
C3373 N3375 1.384 . S
N3374 C3370 1.427 . S
N3374 C3371 1.384 . S
N3375 C3367 1.427 . S
N3375 C3373 1.384 . S
H3376 C3382 0.930 . S
H3377 C3386 0.930 . S
H3378 C3391 0.929 . S
H3379 C3389 0.929 . S
H3380 C3384 0.929 . S
H3381 C3390 0.929 . S
C3382 H3376 0.930 . S
C3382 C3383 1.367 . S
C3382 C3390 1.378 . S
C3383 C3382 1.367 . S
C3383 C3391 1.433 . S
C3384 H3380 0.929 . S
C3384 C3386 1.378 . S
C3384 C3388 1.350 . S
C3385 C3388 1.463 . S
C3385 C3390 1.350 . S
C3385 N3393 1.427 . S
C3386 H3377 0.930 . S
C3386 C3384 1.378 . S
C3386 C3387 1.367 . S
C3387 C3386 1.367 . S
C3387 C3389 1.433 . S
C3388 C3384 1.350 . S
C3388 C3385 1.463 . S
C3388 N3392 1.427 . S
C3389 H3379 0.929 . S
C3389 C3387 1.433 . S
C3389 N3392 1.384 . S
C3390 H3381 0.929 . S
C3390 C3382 1.378 . S
C3390 C3385 1.350 . S
C3391 H3378 0.929 . S
C3391 C3383 1.433 . S
C3391 N3393 1.384 . S
N3392 C3388 1.427 . S
N3392 C3389 1.384 . S
N3393 C3385 1.427 . S
N3393 C3391 1.384 . S
H3394 C3400 0.930 . S
H3395 C3404 0.930 . S
H3396 C3409 0.929 . S
H3397 C3407 0.929 . S
H3398 C3402 0.929 . S
H3399 C3408 0.929 . S
C3400 H3394 0.930 . S
C3400 C3401 1.367 . S
C3400 C3408 1.378 . S
C3401 C3400 1.367 . S
C3401 C3409 1.433 . S
C3402 H3398 0.929 . S
C3402 C3404 1.378 . S
C3402 C3406 1.350 . S
C3403 C3406 1.463 . S
C3403 C3408 1.350 . S
C3403 N3411 1.427 . S
C3404 H3395 0.930 . S
C3404 C3402 1.378 . S
C3404 C3405 1.367 . S
C3405 C3404 1.367 . S
C3405 C3407 1.433 . S
C3406 C3402 1.350 . S
C3406 C3403 1.463 . S
C3406 N3410 1.427 . S
C3407 H3397 0.929 . S
C3407 C3405 1.433 . S
C3407 N3410 1.384 . S
C3408 H3399 0.929 . S
C3408 C3400 1.378 . S
C3408 C3403 1.350 . S
C3409 H3396 0.929 . S
C3409 C3401 1.433 . S
C3409 N3411 1.384 . S
N3410 C3406 1.427 . S
N3410 C3407 1.384 . S
N3411 C3403 1.427 . S
N3411 C3409 1.384 . S
H3412 C3418 0.930 . S
H3413 C3422 0.930 . S
H3414 C3427 0.929 . S
H3415 C3425 0.929 . S
H3416 C3420 0.929 . S
H3417 C3426 0.929 . S
C3418 H3412 0.930 . S
C3418 C3419 1.367 . S
C3418 C3426 1.378 . S
C3419 C3418 1.367 . S
C3419 C3427 1.433 . S
C3420 H3416 0.929 . S
C3420 C3422 1.378 . S
C3420 C3424 1.350 . S
C3421 C3424 1.463 . S
C3421 C3426 1.350 . S
C3421 N3429 1.427 . S
C3422 H3413 0.930 . S
C3422 C3420 1.378 . S
C3422 C3423 1.367 . S
C3423 C3422 1.367 . S
C3423 C3425 1.433 . S
C3424 C3420 1.350 . S
C3424 C3421 1.463 . S
C3424 N3428 1.427 . S
C3425 H3415 0.929 . S
C3425 C3423 1.433 . S
C3425 N3428 1.384 . S
C3426 H3417 0.929 . S
C3426 C3418 1.378 . S
C3426 C3421 1.350 . S
C3427 H3414 0.929 . S
C3427 C3419 1.433 . S
C3427 N3429 1.384 . S
N3428 C3424 1.427 . S
N3428 C3425 1.384 . S
N3429 C3421 1.427 . S
N3429 C3427 1.384 . S
H3430 C3436 0.930 . S
H3431 C3440 0.930 . S
H3432 C3445 0.929 . S
H3433 C3443 0.929 . S
H3434 C3438 0.929 . S
H3435 C3444 0.929 . S
C3436 H3430 0.930 . S
C3436 C3437 1.367 . S
C3436 C3444 1.378 . S
C3437 C3436 1.367 . S
C3437 C3445 1.433 . S
C3438 H3434 0.929 . S
C3438 C3440 1.378 . S
C3438 C3442 1.350 . S
C3439 C3442 1.463 . S
C3439 C3444 1.350 . S
C3439 N3447 1.427 . S
C3440 H3431 0.930 . S
C3440 C3438 1.378 . S
C3440 C3441 1.367 . S
C3441 C3440 1.367 . S
C3441 C3443 1.433 . S
C3442 C3438 1.350 . S
C3442 C3439 1.463 . S
C3442 N3446 1.427 . S
C3443 H3433 0.929 . S
C3443 C3441 1.433 . S
C3443 N3446 1.384 . S
C3444 H3435 0.929 . S
C3444 C3436 1.378 . S
C3444 C3439 1.350 . S
C3445 H3432 0.929 . S
C3445 C3437 1.433 . S
C3445 N3447 1.384 . S
N3446 C3442 1.427 . S
N3446 C3443 1.384 . S
N3447 C3439 1.427 . S
N3447 C3445 1.384 . S
H3448 C3454 0.930 . S
H3449 C3458 0.930 . S
H3450 C3463 0.929 . S
H3451 C3461 0.929 . S
H3452 C3456 0.929 . S
H3453 C3462 0.929 . S
C3454 H3448 0.930 . S
C3454 C3455 1.367 . S
C3454 C3462 1.378 . S
C3455 C3454 1.367 . S
C3455 C3463 1.433 . S
C3456 H3452 0.929 . S
C3456 C3458 1.378 . S
C3456 C3460 1.350 . S
C3457 C3460 1.463 . S
C3457 C3462 1.350 . S
C3457 N3465 1.427 . S
C3458 H3449 0.930 . S
C3458 C3456 1.378 . S
C3458 C3459 1.367 . S
C3459 C3458 1.367 . S
C3459 C3461 1.433 . S
C3460 C3456 1.350 . S
C3460 C3457 1.463 . S
C3460 N3464 1.427 . S
C3461 H3451 0.929 . S
C3461 C3459 1.433 . S
C3461 N3464 1.384 . S
C3462 H3453 0.929 . S
C3462 C3454 1.378 . S
C3462 C3457 1.350 . S
C3463 H3450 0.929 . S
C3463 C3455 1.433 . S
C3463 N3465 1.384 . S
N3464 C3460 1.427 . S
N3464 C3461 1.384 . S
N3465 C3457 1.427 . S
N3465 C3463 1.384 . S
H3466 C3472 0.930 . S
H3467 C3476 0.930 . S
H3468 C3481 0.929 . S
H3469 C3479 0.929 . S
H3470 C3474 0.929 . S
H3471 C3480 0.929 . S
C3472 H3466 0.930 . S
C3472 C3473 1.367 . S
C3472 C3480 1.378 . S
C3473 C3472 1.367 . S
C3473 C3481 1.433 . S
C3474 H3470 0.929 . S
C3474 C3476 1.378 . S
C3474 C3478 1.350 . S
C3475 C3478 1.463 . S
C3475 C3480 1.350 . S
C3475 N3483 1.427 . S
C3476 H3467 0.930 . S
C3476 C3474 1.378 . S
C3476 C3477 1.367 . S
C3477 C3476 1.367 . S
C3477 C3479 1.433 . S
C3478 C3474 1.350 . S
C3478 C3475 1.463 . S
C3478 N3482 1.427 . S
C3479 H3469 0.929 . S
C3479 C3477 1.433 . S
C3479 N3482 1.384 . S
C3480 H3471 0.929 . S
C3480 C3472 1.378 . S
C3480 C3475 1.350 . S
C3481 H3468 0.929 . S
C3481 C3473 1.433 . S
C3481 N3483 1.384 . S
N3482 C3478 1.427 . S
N3482 C3479 1.384 . S
N3483 C3475 1.427 . S
N3483 C3481 1.384 . S
H3484 C3490 0.930 . S
H3485 C3494 0.930 . S
H3486 C3499 0.929 . S
H3487 C3497 0.929 . S
H3488 C3492 0.929 . S
H3489 C3498 0.929 . S
C3490 H3484 0.930 . S
C3490 C3491 1.367 . S
C3490 C3498 1.378 . S
C3491 C3490 1.367 . S
C3491 C3499 1.433 . S
C3492 H3488 0.929 . S
C3492 C3494 1.378 . S
C3492 C3496 1.350 . S
C3493 C3496 1.463 . S
C3493 C3498 1.350 . S
C3493 N3501 1.427 . S
C3494 H3485 0.930 . S
C3494 C3492 1.378 . S
C3494 C3495 1.367 . S
C3495 C3494 1.367 . S
C3495 C3497 1.433 . S
C3496 C3492 1.350 . S
C3496 C3493 1.463 . S
C3496 N3500 1.427 . S
C3497 H3487 0.929 . S
C3497 C3495 1.433 . S
C3497 N3500 1.384 . S
C3498 H3489 0.929 . S
C3498 C3490 1.378 . S
C3498 C3493 1.350 . S
C3499 H3486 0.929 . S
C3499 C3491 1.433 . S
C3499 N3501 1.384 . S
N3500 C3496 1.427 . S
N3500 C3497 1.384 . S
N3501 C3493 1.427 . S
N3501 C3499 1.384 . S
H3502 C3508 0.930 . S
H3503 C3512 0.930 . S
H3504 C3517 0.929 . S
H3505 C3515 0.929 . S
H3506 C3510 0.929 . S
H3507 C3516 0.929 . S
C3508 H3502 0.930 . S
C3508 C3509 1.367 . S
C3508 C3516 1.378 . S
C3509 C3508 1.367 . S
C3509 C3517 1.433 . S
C3510 H3506 0.929 . S
C3510 C3512 1.378 . S
C3510 C3514 1.350 . S
C3511 C3514 1.463 . S
C3511 C3516 1.350 . S
C3511 N3519 1.427 . S
C3512 H3503 0.930 . S
C3512 C3510 1.378 . S
C3512 C3513 1.367 . S
C3513 C3512 1.367 . S
C3513 C3515 1.433 . S
C3514 C3510 1.350 . S
C3514 C3511 1.463 . S
C3514 N3518 1.427 . S
C3515 H3505 0.929 . S
C3515 C3513 1.433 . S
C3515 N3518 1.384 . S
C3516 H3507 0.929 . S
C3516 C3508 1.378 . S
C3516 C3511 1.350 . S
C3517 H3504 0.929 . S
C3517 C3509 1.433 . S
C3517 N3519 1.384 . S
N3518 C3514 1.427 . S
N3518 C3515 1.384 . S
N3519 C3511 1.427 . S
N3519 C3517 1.384 . S
C1223 C973 2.066 1_556 S
C1227 C23 2.073 1_556 S
C1241 C61 2.067 1_556 S
C1245 C935 2.073 1_556 S
C1259 C1049 2.065 . S
C1263 C99 2.060 . S
C1277 C137 2.059 . S
C1281 C1011 2.062 . S
C1295 C1106 2.061 1_554 S
C1299 C156 2.067 1_554 S
C1313 C194 2.071 1_554 S
C1317 C1068 2.063 1_554 S
C1331 C1182 2.071 . S
C1335 C232 2.063 . S
C1349 C270 2.059 . S
C1353 C1144 2.064 . S
C1367 C327 2.071 . S
C1371 C669 2.063 . S
C1385 C365 2.069 . S
C1389 C631 2.074 . S
C1403 C745 2.071 . S
C1407 C403 2.063 . S
C1421 C441 2.066 . S
C1425 C707 2.073 . S
C1439 C460 2.068 . S
C1443 C802 2.074 . S
C1457 C764 2.071 . S
C1461 C498 2.074 . S
C1475 C878 2.063 . S
C1479 C536 2.060 . S
C1493 C840 2.069 . S
C1497 C574 2.062 . S
C1511 C1104 1.865 . S
C1515 C2 1.841 . S
C1529 C40 1.839 . S
C1533 C154 1.863 . S
C1547 C78 1.835 . S
C1551 C876 1.863 . S
C1565 C116 1.842 . S
C1569 C534 1.867 . S
C1583 C976 1.857 . S
C1587 C178 1.830 . S
C1601 C26 1.864 . S
C1605 C216 1.837 . S
C1619 C748 1.864 . S
C1623 C254 1.840 . S
C1637 C292 1.830 . S
C1641 C406 1.858 . S
C1655 C800 1.857 1_565 S
C1659 C306 1.831 . S
C1673 C458 1.856 . S
C1677 C344 1.829 . S
C1691 C382 1.830 . S
C1695 C1180 1.856 . S
C1709 C230 1.865 1_565 S
C1713 C420 1.838 . S
C1727 C672 1.859 1_545 S
C1731 C482 1.831 . S
C1745 C520 1.841 . S
C1749 C330 1.866 . S
C1763 C558 1.829 . S
C1767 C1052 1.857 . S
C1781 C596 1.842 . S
C1785 C102 1.867 1_545 S
C1799 C610 1.830 . S
C1803 C496 1.857 . S
C1817 C762 1.866 . S
C1821 C648 1.842 . S
C1835 C268 1.863 . S
C1839 C686 1.840 . S
C1853 C1142 1.861 . S
C1857 C724 1.837 . S
C1871 C786 1.830 . S
C1875 C368 1.857 . S
C1889 C824 1.829 . S
C1893 C634 1.857 . S
C1907 C862 1.838 . S
C1911 C140 1.862 . S
C1925 C900 1.835 . S
C1929 C1014 1.859 . S
C1943 C192 1.862 1_565 S
C1947 C914 1.833 . S
C1961 C1066 1.864 . S
C1965 C952 1.836 . S
C1979 C572 1.857 . S
C1983 C990 1.830 . S
C1997 C1028 1.835 . S
C2001 C838 1.863 1_565 S
C2015 C1090 1.837 . S
C2019 C64 1.865 1_545 S
C2033 C1128 1.830 . S
C2037 C938 1.858 . S
C2051 C1166 1.842 . S
C2055 C444 1.867 . S
C2069 C1204 1.842 . S
C2073 C710 1.867 1_545 S
C2087 C248 1.756 . S
C2091 C20 1.772 1_655 S
C2105 C58 1.773 . S
C2109 C1198 1.757 . S
C2123 C476 1.755 . S
C2127 C96 1.772 1_655 S
C2141 C818 1.758 . S
C2145 C134 1.774 . S
C2159 C95 1.752 . S
C2163 C171 1.770 1_455 S
C2177 C209 1.777 . S
C2181 C1045 1.753 . S
C2195 C323 1.750 . S
C2199 C247 1.768 1_455 S
C2213 C285 1.775 . S
C2217 C665 1.757 . S
C2231 C324 1.771 1_655 S
C2235 C552 1.755 . S
C2249 C894 1.754 . S
C2253 C362 1.777 . S
C2267 C400 1.772 1_655 S
C2271 C172 1.755 . S
C2285 C1122 1.750 . S
C2289 C438 1.776 . S
C2303 C475 1.770 1_455 S
C2307 C399 1.752 . S
C2321 C741 1.758 . S
C2325 C513 1.774 . S
C2339 C551 1.772 1_455 S
C2343 C19 1.756 . S
C2357 C969 1.757 . S
C2361 C589 1.773 . S
C2375 C628 1.774 . S
C2379 C856 1.750 . S
C2393 C666 1.773 . S
C2397 C590 1.758 . S
C2411 C1084 1.754 . S
C2415 C704 1.772 . S
C2429 C742 1.777 . S
C2433 C210 1.750 . S
C2447 C703 1.753 . S
C2451 C779 1.773 . S
C2465 C817 1.774 . S
C2469 C437 1.754 . S
C2483 C931 1.756 . S
C2487 C855 1.771 . S
C2501 C893 1.774 . S
C2505 C57 1.756 . S
C2519 C1160 1.748 . S
C2523 C932 1.774 . S
C2537 C970 1.777 . S
C2541 C286 1.751 . S
C2555 C1008 1.776 . S
C2559 C780 1.750 . S
C2573 C1046 1.774 . S
C2577 C514 1.755 . S
C2591 C1007 1.752 . S
C2595 C1083 1.774 . S
C2609 C1121 1.774 . S
C2613 C133 1.757 . S
C2627 C627 1.748 . S
C2631 C1159 1.776 . S
C2645 C1197 1.774 . S
C2649 C361 1.755 . S
C2663 C118 1.603 . S
C2667 C4 1.588 . S
C2681 C80 1.590 . S
C2685 C42 1.600 . S
C2699 C175 1.600 . S
C2703 C289 1.591 . S
C2717 C251 1.608 . S
C2721 C213 1.585 . S
C2735 C422 1.606 . S
C2739 C308 1.586 . S
C2753 C346 1.590 . S
C2757 C384 1.600 . S
C2771 C593 1.605 . S
C2775 C479 1.590 . S
C2789 C555 1.585 . S
C2793 C517 1.606 . S
C2807 C612 1.607 . S
C2811 C726 1.585 . S
C2825 C688 1.591 . S
C2829 C650 1.600 . S
C2843 C783 1.585 . S
C2847 C897 1.606 . S
C2861 C859 1.595 . S
C2865 C821 1.601 . S
C2879 C1030 1.607 . S
C2883 C916 1.585 . S
C2897 C954 1.589 . S
C2901 C992 1.602 . S
C2915 C1087 1.601 . S
C2919 C1201 1.593 . S
C2933 C1125 1.608 . S
C2937 C1163 1.585 . S
C2951 C28 0.154 . S
C2955 C169 0.154 . S
C2969 C1119 0.128 . S
C2973 C66 0.128 . S
C2987 C549 0.152 . S
C2991 C104 0.152 . S
C3005 C891 0.152 . S
C3009 C142 0.152 . S
C3023 C978 0.129 . S
C3027 C207 0.129 . S
C3041 C408 0.125 . S
C3045 C245 0.125 . S
C3059 C283 0.153 . S
C3063 C750 0.153 . S
C3077 C473 0.155 . S
C3081 C332 0.155 . S
C3095 C370 0.132 . S
C3099 C815 0.132 . S
C3113 C446 0.153 . S
C3117 C1195 0.153 . S
C3131 C511 0.148 . S
C3135 C674 0.148 . S
C3149 C1054 0.154 . S
C3153 C587 0.154 . S
C3167 C777 0.152 . S
C3171 C636 0.152 . S
C3185 C1157 0.146 . S
C3189 C712 0.146 . S
C3203 C853 0.132 . S
C3207 C1016 0.132 . S
C3221 C1081 0.130 . S
C3225 C940 0.130 . S
C3239 C93 1.081 . S
C3243 C17 1.083 . S
C3257 C131 1.085 . S
C3261 C55 1.087 . S
C3275 C180 1.088 . S
C3279 C256 1.087 . S
C3293 C218 1.084 . S
C3297 C294 1.083 . S
C3311 C397 1.086 . S
C3315 C321 1.088 . S
C3329 C435 1.068 . S
C3333 C359 1.066 . S
C3347 C484 1.085 . S
C3351 C560 1.083 . S
C3365 C598 1.075 . S
C3369 C522 1.078 . S
C3383 C701 1.066 . S
C3387 C625 1.065 . S
C3401 C663 1.065 . S
C3405 C739 1.064 . S
C3419 C864 1.087 . S
C3423 C788 1.088 . S
C3437 C826 1.063 . S
C3441 C902 1.065 . S
C3455 C929 1.089 . S
C3459 C1005 1.089 . S
C3473 C967 1.064 . S
C3477 C1043 1.063 . S
C3491 C1168 1.066 . S
C3495 C1092 1.068 . S
C3509 C1206 1.086 . S
C3513 C1130 1.085 . S
