# Generated by pormake.
# Topology uov, (4)-cn, num edge types: 1
# Building blocks:
#     Node 0, Type 0, BuildingBlock: CEKHIL_clean_sbu_0, # of connection points: 4
#     Node 1, Type 0, BuildingBlock: CEKHIL_clean_sbu_0, # of connection points: 4
#     Node 2, Type 0, BuildingBlock: CEKHIL_clean_sbu_0, # of connection points: 4
#     Node 3, Type 0, BuildingBlock: CEKHIL_clean_sbu_0, # of connection points: 4
#     Node 4, Type 0, BuildingBlock: CEKHIL_clean_sbu_0, # of connection points: 4
#     Node 5, Type 0, BuildingBlock: CEKHIL_clean_sbu_0, # of connection points: 4
#     Node 6, Type 0, BuildingBlock: CEKHIL_clean_sbu_0, # of connection points: 4
#     Node 7, Type 0, BuildingBlock: CEKHIL_clean_sbu_0, # of connection points: 4
#     Edge 8, Type (0, 0), BuildingBlock: FUNLAD_clean_linker_0, # of connection points: 2
#     Edge 9, Type (0, 0), BuildingBlock: FUNLAD_clean_linker_0, # of connection points: 2
#     Edge 10, Type (0, 0), BuildingBlock: FUNLAD_clean_linker_0, # of connection points: 2
#     Edge 11, Type (0, 0), BuildingBlock: FUNLAD_clean_linker_0, # of connection points: 2
#     Edge 12, Type (0, 0), BuildingBlock: FUNLAD_clean_linker_0, # of connection points: 2
#     Edge 13, Type (0, 0), BuildingBlock: FUNLAD_clean_linker_0, # of connection points: 2
#     Edge 14, Type (0, 0), BuildingBlock: FUNLAD_clean_linker_0, # of connection points: 2
#     Edge 15, Type (0, 0), BuildingBlock: FUNLAD_clean_linker_0, # of connection points: 2
#     Edge 16, Type (0, 0), BuildingBlock: FUNLAD_clean_linker_0, # of connection points: 2
#     Edge 17, Type (0, 0), BuildingBlock: FUNLAD_clean_linker_0, # of connection points: 2
#     Edge 18, Type (0, 0), BuildingBlock: FUNLAD_clean_linker_0, # of connection points: 2
#     Edge 19, Type (0, 0), BuildingBlock: FUNLAD_clean_linker_0, # of connection points: 2
#     Edge 20, Type (0, 0), BuildingBlock: FUNLAD_clean_linker_0, # of connection points: 2
#     Edge 21, Type (0, 0), BuildingBlock: FUNLAD_clean_linker_0, # of connection points: 2
#     Edge 22, Type (0, 0), BuildingBlock: FUNLAD_clean_linker_0, # of connection points: 2
#     Edge 23, Type (0, 0), BuildingBlock: FUNLAD_clean_linker_0, # of connection points: 2
# Relax obj value: 0.153
# Max RMSD: 0.151
# Mean RMSD: 0.151
data_MOF--net-uov--node1-CEKHIL_clean_sbu_0--edge1-FUNLAD_clean_linker_0
_symmetry_space_group_name_H-M    P1
_symmetry_Int_Tables_number       1
_symmetry_cell_setting            triclinic
loop_
_symmetry_equiv_pos_as_xyz
'x, y, z'
_cell_length_a     34.554924
_cell_length_b     34.531091
_cell_length_c     48.48567
_cell_angle_alpha  90.014768
_cell_angle_beta   90.025768
_cell_angle_gamma 90.051952
loop_
_atom_site_label
_atom_site_type_symbol
_atom_site_fract_x
_atom_site_fract_y
_atom_site_fract_z
_atom_type_partial_charge
Co0 Co 0.02968 0.2703 0.60766 0.0
O1 O 0.00728 0.30923 0.63123 0.0
O2 O 0.05877 0.31783 0.60475 0.0
C3 C 0.9738 0.25026 0.58812 0.0
O4 O 0.05985 0.23833 0.57951 0.0
Co5 Co 0.00936 0.18306 0.61365 0.0
O6 O 0.03136 0.18003 0.57602 0.0
C7 C 0.06722 0.21841 0.65108 0.0
C8 C 0.03358 0.33253 0.62169 0.0
C9 C 0.05491 0.2056 0.56724 0.0
O10 O 0.06389 0.2513 0.63877 0.0
O11 O 0.04708 0.18852 0.64481 0.0
O12 O 0.99107 0.28132 0.57941 0.0
O13 O 0.98852 0.23475 0.61001 0.0
Co14 Co 0.26258 0.96792 0.38198 0.0
O15 O 0.30203 0.99004 0.35876 0.0
O16 O 0.31109 0.9418 0.38814 0.0
C17 C 0.23905 0.02485 0.39746 0.0
O18 O 0.23031 0.93882 0.41053 0.0
Co19 Co 0.17489 0.98334 0.37309 0.0
O20 O 0.17047 0.96408 0.41141 0.0
C21 C 0.21483 0.92321 0.33988 0.0
C22 C 0.32587 0.96635 0.37074 0.0
C23 C 0.19671 0.9426 0.42169 0.0
O24 O 0.24723 0.92973 0.35221 0.0
O25 O 0.18371 0.94213 0.34469 0.0
O26 O 0.26989 0.00985 0.40836 0.0
O27 O 0.22546 0.00688 0.37616 0.0
Co28 Co 0.96723 0.74086 0.61479 0.0
O29 O 0.98655 0.70429 0.6415 0.0
O30 O 0.94071 0.69204 0.61074 0.0
C31 C 0.02541 0.76215 0.59999 0.0
O32 O 0.94121 0.76983 0.58304 0.0
Co33 Co 0.98321 0.82924 0.61905 0.0
O34 O 0.96922 0.82834 0.57946 0.0
C35 C 0.92078 0.79393 0.6526 0.0
C36 C 0.96308 0.67941 0.63033 0.0
C37 C 0.94798 0.80143 0.56976 0.0
O38 O 0.9272 0.76032 0.64199 0.0
O39 O 0.94066 0.82417 0.64683 0.0
O40 O 0.01109 0.72991 0.5907 0.0
O41 O 0.00616 0.77822 0.61976 0.0
Co42 Co 0.73472 0.02256 0.38615 0.0
O43 O 0.69334 0.00467 0.36301 0.0
O44 O 0.69013 0.05595 0.39047 0.0
C45 C 0.75008 0.96456 0.40443 0.0
O46 O 0.77143 0.04838 0.41359 0.0
Co47 Co 0.8184 0.99323 0.37514 0.0
O48 O 0.82846 0.01696 0.41178 0.0
C49 C 0.78298 0.05019 0.3377 0.0
C50 C 0.67307 0.03298 0.37296 0.0
C51 C 0.80567 0.04143 0.42294 0.0
O52 O 0.75522 0.05545 0.35496 0.0
O53 O 0.80884 0.02395 0.3406 0.0
O54 O 0.72136 0.98446 0.41426 0.0
O55 O 0.76545 0.97824 0.38218 0.0
Co56 Co 0.98149 0.26551 0.11952 0.0
O57 O 0.00152 0.30604 0.14265 0.0
O58 O 0.95269 0.31273 0.11337 0.0
C59 C 0.03885 0.24416 0.10349 0.0
O60 O 0.95437 0.23053 0.09154 0.0
Co61 Co 0.00225 0.1796 0.13225 0.0
O62 O 0.98081 0.17111 0.0947 0.0
C63 C 0.94688 0.22122 0.16752 0.0
C64 C 0.97599 0.32845 0.13126 0.0
C65 C 0.95927 0.19574 0.0825 0.0
O66 O 0.94483 0.24887 0.14979 0.0
O67 O 0.97088 0.19313 0.16572 0.0
O68 O 0.02258 0.27443 0.09265 0.0
O69 O 0.02231 0.23091 0.12542 0.0
Co70 Co 0.27081 0.03143 0.88706 0.0
O71 O 0.31019 0.00955 0.86356 0.0
O72 O 0.31809 0.06056 0.89069 0.0
C73 C 0.25058 0.97499 0.90562 0.0
O74 O 0.23878 0.06119 0.91533 0.0
Co75 Co 0.18356 0.01158 0.88116 0.0
O76 O 0.18027 0.03334 0.91888 0.0
C77 C 0.21919 0.06972 0.84398 0.0
C78 C 0.3332 0.03576 0.87365 0.0
C79 C 0.2061 0.05661 0.92766 0.0
O80 O 0.25213 0.06621 0.85619 0.0
O81 O 0.18928 0.04963 0.85022 0.0
O82 O 0.28139 0.99212 0.91492 0.0
O83 O 0.23522 0.99042 0.88394 0.0
Co84 Co 0.02343 0.74037 0.10723 0.0
O85 O 0.00735 0.7006 0.13255 0.0
O86 O 0.05472 0.69467 0.10209 0.0
C87 C 0.96345 0.75593 0.09255 0.0
O88 O 0.04693 0.77383 0.0768 0.0
Co89 Co 0.99797 0.82612 0.11406 0.0
O90 O 0.01485 0.83035 0.07513 0.0
C91 C 0.06405 0.7958 0.14671 0.0
C92 C 0.03304 0.67867 0.12084 0.0
C93 C 0.0387 0.80617 0.06493 0.0
O94 O 0.06107 0.7623 0.13516 0.0
O95 O 0.04081 0.82389 0.14191 0.0
O96 O 0.98142 0.72622 0.08236 0.0
O97 O 0.98061 0.77297 0.1129 0.0
Co98 Co 0.7417 0.98275 0.88896 0.0
O99 O 0.70563 0.00222 0.86197 0.0
O100 O 0.69404 0.95385 0.89084 0.0
C101 C 0.75993 0.04051 0.90658 0.0
O102 O 0.77028 0.9559 0.92044 0.0
Co103 Co 0.82938 0.00232 0.88659 0.0
O104 O 0.82815 0.98479 0.92548 0.0
C105 C 0.79782 0.94067 0.85058 0.0
C106 C 0.68141 0.9768 0.87159 0.0
C107 C 0.80154 0.96236 0.93418 0.0
O108 O 0.7639 0.94513 0.86112 0.0
O109 O 0.82699 0.96166 0.85712 0.0
O110 O 0.72775 0.02435 0.91424 0.0
O111 O 0.77761 0.02357 0.8864 0.0
C112 C 0.95319 0.61001 0.61783 0.0
C113 C 0.96558 0.63777 0.63708 0.0
C114 C 0.9612 0.57079 0.62195 0.0
C115 C 0.98121 0.55854 0.64565 0.0
C116 C 0.99134 0.58594 0.66575 0.0
C117 C 0.98411 0.62534 0.66133 0.0
C118 C 0.99233 0.51741 0.64928 0.0
C119 C 0.0071 0.49674 0.62823 0.0
C120 C 0.01767 0.45516 0.63008 0.0
C121 C 0.04515 0.44033 0.61157 0.0
C122 C 0.0523 0.40055 0.61015 0.0
C123 C 0.03151 0.37468 0.62689 0.0
H124 H 0.97653 0.43976 0.66213 0.0
C125 C 0.00518 0.3896 0.64627 0.0
C126 C 0.99838 0.42948 0.64793 0.0
H127 H 0.98864 0.37036 0.65939 0.0
H128 H 0.93888 0.6187 0.59893 0.0
H129 H 0.95223 0.55009 0.60642 0.0
H130 H 0.00637 0.57706 0.68431 0.0
H131 H 0.99385 0.64614 0.67656 0.0
H132 H 0.99048 0.50489 0.66978 0.0
H133 H 0.01234 0.51117 0.60864 0.0
H134 H 0.06035 0.45948 0.59756 0.0
H135 H 0.07265 0.38998 0.59493 0.0
C136 C 0.60509 0.04842 0.38648 0.0
C137 C 0.63157 0.03598 0.36641 0.0
C138 C 0.5653 0.04405 0.38207 0.0
C139 C 0.55151 0.02788 0.35729 0.0
C140 C 0.57793 0.01828 0.33647 0.0
C141 C 0.61766 0.0217 0.34115 0.0
C142 C 0.50995 0.01908 0.35318 0.0
C143 C 0.48857 0.00281 0.37328 0.0
C144 C 0.44758 0.99083 0.36975 0.0
C145 C 0.4326 0.96191 0.38708 0.0
C146 C 0.3934 0.95206 0.38612 0.0
C147 C 0.36819 0.97139 0.36805 0.0
H148 H 0.43295 0.03194 0.33745 0.0
C149 C 0.38338 0.99937 0.34998 0.0
C150 C 0.42268 0.00902 0.3508 0.0
H151 H 0.36463 0.01499 0.33596 0.0
H152 H 0.61513 0.05942 0.40615 0.0
H153 H 0.5454 0.05249 0.39823 0.0
H154 H 0.5679 0.00617 0.31712 0.0
H155 H 0.63757 0.01209 0.32531 0.0
H156 H 0.49809 0.02234 0.33257 0.0
H157 H 0.50231 0.99613 0.3929 0.0
H158 H 0.45114 0.94744 0.40187 0.0
H159 H 0.38258 0.93055 0.40044 0.0
C160 C 0.96407 0.39663 0.11626 0.0
C161 C 0.97652 0.3705 0.13658 0.0
C162 C 0.97036 0.43638 0.11954 0.0
C163 C 0.98865 0.45065 0.14341 0.0
C164 C 0.9988 0.42473 0.16445 0.0
C165 C 0.99333 0.38494 0.1609 0.0
C166 C 0.99787 0.49233 0.14662 0.0
C167 C 0.01143 0.51361 0.12546 0.0
C168 C 0.02096 0.55548 0.1275 0.0
C169 C 0.04655 0.57167 0.10817 0.0
C170 C 0.05276 0.61166 0.10728 0.0
C171 C 0.033 0.63635 0.12547 0.0
H172 H 0.98233 0.56882 0.16158 0.0
C173 C 0.00877 0.62005 0.14566 0.0
C174 C 0.00278 0.58003 0.14669 0.0
H175 H 0.99298 0.63834 0.15988 0.0
H176 H 0.95108 0.38625 0.09731 0.0
H177 H 0.96133 0.45589 0.10328 0.0
H178 H 0.01246 0.43514 0.18316 0.0
H179 H 0.00302 0.36538 0.17695 0.0
H180 H 0.99608 0.50476 0.16715 0.0
H181 H 0.01673 0.49949 0.10577 0.0
H182 H 0.06091 0.55343 0.09315 0.0
H183 H 0.07145 0.62332 0.09138 0.0
C184 C 0.39125 0.00794 0.84984 0.0
C185 C 0.37546 0.03407 0.86902 0.0
C186 C 0.43126 0.00178 0.8487 0.0
C187 C 0.45612 0.02148 0.86693 0.0
C188 C 0.44041 0.04868 0.88527 0.0
C189 C 0.40056 0.05522 0.88613 0.0
C190 C 0.49776 0.0117 0.86935 0.0
C191 C 0.51953 0.99831 0.84841 0.0
C192 C 0.56089 0.98875 0.8527 0.0
C193 C 0.58881 0.00205 0.83397 0.0
C194 C 0.62823 0.99688 0.8395 0.0
C195 C 0.64022 0.97733 0.86346 0.0
H196 H 0.55173 0.95637 0.89044 0.0
C197 C 0.61211 0.96172 0.88118 0.0
C198 C 0.57281 0.96766 0.87598 0.0
H199 H 0.62045 0.94651 0.89979 0.0
H200 H 0.3726 0.9911 0.83645 0.0
H201 H 0.44233 0.98015 0.83462 0.0
H202 H 0.45894 0.06417 0.89955 0.0
H203 H 0.38932 0.07544 0.90122 0.0
H204 H 0.51141 0.01668 0.88927 0.0
H205 H 0.50779 0.99682 0.82766 0.0
H206 H 0.58018 0.01805 0.81576 0.0
H207 H 0.64932 0.00906 0.82543 0.0
C208 C 0.23115 0.07217 0.43603 0.0
C209 C 0.21742 0.05618 0.41126 0.0
C210 C 0.20879 0.09885 0.45069 0.0
C211 C 0.17224 0.11025 0.44073 0.0
C212 C 0.15927 0.09526 0.41543 0.0
C213 C 0.18166 0.06863 0.40077 0.0
C214 C 0.145 0.13366 0.45758 0.0
C215 C 0.15575 0.15553 0.4793 0.0
C216 C 0.12752 0.17122 0.49951 0.0
C217 C 0.13782 0.2031 0.51597 0.0
C218 C 0.11355 0.21553 0.53734 0.0
C219 C 0.07884 0.19577 0.54293 0.0
H220 H 0.08356 0.12695 0.49304 0.0
C221 C 0.06813 0.16453 0.52599 0.0
C222 C 0.09214 0.15234 0.50461 0.0
H223 H 0.04154 0.14872 0.52966 0.0
H224 H 0.2586 0.06306 0.44465 0.0
H225 H 0.21958 0.10881 0.47039 0.0
H226 H 0.13115 0.10329 0.40736 0.0
H227 H 0.17035 0.05688 0.38169 0.0
H228 H 0.1145 0.13142 0.45239 0.0
H229 H 0.18619 0.16121 0.4831 0.0
H230 H 0.1651 0.21789 0.51268 0.0
H231 H 0.12269 0.23962 0.55009 0.0
C232 C 0.15396 0.92881 0.46205 0.0
C233 C 0.18682 0.91937 0.44637 0.0
C234 C 0.14229 0.90532 0.48391 0.0
C235 C 0.16327 0.87174 0.4907 0.0
C236 C 0.19649 0.8626 0.47536 0.0
C237 C 0.20842 0.88638 0.45357 0.0
C238 C 0.14892 0.84419 0.51191 0.0
C239 C 0.12702 0.85556 0.53341 0.0
C240 C 0.10605 0.82856 0.55202 0.0
C241 C 0.09196 0.84284 0.5772 0.0
C242 C 0.06732 0.82043 0.59352 0.0
C243 C 0.0559 0.78334 0.58486 0.0
H244 H 0.10543 0.77881 0.52444 0.0
C245 C 0.07126 0.76828 0.56028 0.0
C246 C 0.09601 0.79067 0.54395 0.0
H247 H 0.06287 0.73982 0.55302 0.0
H248 H 0.13664 0.954 0.45708 0.0
H249 H 0.11587 0.91279 0.49463 0.0
H250 H 0.21291 0.83668 0.47998 0.0
H251 H 0.23375 0.87818 0.44179 0.0
H252 H 0.15614 0.81382 0.50932 0.0
H253 H 0.12325 0.88633 0.53726 0.0
H254 H 0.09903 0.87195 0.58386 0.0
H255 H 0.05606 0.83281 0.61241 0.0
C256 C 0.80081 0.9135 0.41025 0.0
C257 C 0.76742 0.93218 0.41999 0.0
C258 C 0.81942 0.88561 0.42641 0.0
C259 C 0.80507 0.8761 0.45274 0.0
C260 C 0.77042 0.89317 0.46167 0.0
C261 C 0.75185 0.92103 0.44554 0.0
C262 C 0.82644 0.85062 0.47221 0.0
C263 C 0.86528 0.84723 0.47189 0.0
C264 C 0.88761 0.83077 0.49528 0.0
C265 C 0.92438 0.84615 0.50078 0.0
C266 C 0.94449 0.83548 0.52452 0.0
C267 C 0.92858 0.8086 0.54307 0.0
H268 H 0.84476 0.78882 0.5089 0.0
C269 C 0.89299 0.79104 0.53665 0.0
C270 C 0.87254 0.80215 0.51298 0.0
H271 H 0.88018 0.76998 0.55046 0.0
H272 H 0.81314 0.92109 0.39044 0.0
H273 H 0.84526 0.87206 0.41833 0.0
H274 H 0.75849 0.88615 0.48172 0.0
H275 H 0.72593 0.93465 0.45349 0.0
H276 H 0.81026 0.83884 0.48948 0.0
H277 H 0.88181 0.86199 0.45601 0.0
H278 H 0.93688 0.86788 0.48733 0.0
H279 H 0.97218 0.84904 0.52867 0.0
C280 C 0.80265 0.0979 0.4558 0.0
C281 C 0.82015 0.06316 0.44724 0.0
C282 C 0.81829 0.11928 0.47772 0.0
C283 C 0.8516 0.10612 0.49159 0.0
C284 C 0.86803 0.0707 0.48369 0.0
C285 C 0.85274 0.04963 0.46169 0.0
C286 C 0.87047 0.12832 0.51418 0.0
C287 C 0.86923 0.16723 0.51617 0.0
C288 C 0.89326 0.18924 0.53626 0.0
C289 C 0.90576 0.22665 0.52926 0.0
C290 C 0.9311 0.24695 0.5465 0.0
C291 C 0.94411 0.23039 0.57129 0.0
H292 H 0.89478 0.1452 0.5683 0.0
C293 C 0.93008 0.19378 0.57902 0.0
C294 C 0.90487 0.1734 0.56172 0.0
H295 H 0.93921 0.18046 0.59816 0.0
H296 H 0.77736 0.10898 0.44522 0.0
H297 H 0.80418 0.14594 0.48375 0.0
H298 H 0.89345 0.05967 0.49416 0.0
H299 H 0.8667 0.02275 0.45591 0.0
H300 H 0.8893 0.11217 0.52793 0.0
H301 H 0.85343 0.18377 0.50081 0.0
H302 H 0.89697 0.23972 0.50994 0.0
H303 H 0.94117 0.27525 0.54006 0.0
C304 C 0.81669 0.08289 0.9178 0.0
C305 C 0.77887 0.07049 0.92373 0.0
C306 C 0.83636 0.10746 0.93598 0.0
C307 C 0.81856 0.12005 0.96052 0.0
C308 C 0.77995 0.10953 0.96553 0.0
C309 C 0.76036 0.08483 0.94742 0.0
C310 C 0.83975 0.14269 0.98185 0.0
C311 C 0.87809 0.13872 0.98608 0.0
C312 C 0.89891 0.15557 0.01011 0.0
C313 C 0.93218 0.1366 0.01965 0.0
C314 C 0.95178 0.14994 0.04295 0.0
C315 C 0.93895 0.18307 0.05711 0.0
H316 H 0.86156 0.20537 0.01655 0.0
C317 C 0.90646 0.20305 0.047 0.0
C318 C 0.88649 0.18937 0.02376 0.0
H319 H 0.89602 0.22883 0.05732 0.0
H320 H 0.83156 0.07276 0.89952 0.0
H321 H 0.86561 0.11609 0.9309 0.0
H322 H 0.76538 0.11915 0.98408 0.0
H323 H 0.73111 0.07605 0.95246 0.0
H324 H 0.82263 0.15948 0.99632 0.0
H325 H 0.89438 0.11893 0.97312 0.0
H326 H 0.94263 0.11074 0.00941 0.0
H327 H 0.97701 0.13411 0.04989 0.0
C328 C 0.16519 0.07125 0.96885 0.0
C329 C 0.19689 0.08077 0.95202 0.0
C330 C 0.15428 0.09539 0.99055 0.0
C331 C 0.1749 0.1297 0.99601 0.0
C332 C 0.20703 0.1389 0.97955 0.0
C333 C 0.21819 0.1145 0.95791 0.0
C334 C 0.16104 0.15804 0.01682 0.0
C335 C 0.13989 0.14759 0.03893 0.0
C336 C 0.11896 0.17546 0.05686 0.0
C337 C 0.10613 0.16298 0.08285 0.0
C338 C 0.08158 0.18617 0.09869 0.0
C339 C 0.06898 0.22216 0.08867 0.0
H340 H 0.11604 0.2227 0.02721 0.0
C341 C 0.083 0.23541 0.06318 0.0
C342 C 0.10767 0.21231 0.04738 0.0
H343 H 0.07371 0.26301 0.05489 0.0
H344 H 0.14817 0.04547 0.96492 0.0
H345 H 0.12866 0.0878 0.00218 0.0
H346 H 0.22314 0.16536 0.98313 0.0
H347 H 0.24269 0.12275 0.94527 0.0
H348 H 0.16779 0.18836 0.01333 0.0
H349 H 0.1366 0.11704 0.04376 0.0
H350 H 0.11416 0.13467 0.09059 0.0
H351 H 0.07135 0.1752 0.1183 0.0
C352 C 0.09553 0.80076 0.03283 0.0
C353 C 0.05973 0.81759 0.0396 0.0
C354 C 0.11734 0.81509 0.01073 0.0
C355 C 0.10356 0.84637 0.99491 0.0
C356 C 0.0668 0.86151 0.0007 0.0
C357 C 0.04526 0.84754 0.0229 0.0
C358 C 0.12691 0.86501 0.97287 0.0
C359 C 0.16589 0.86648 0.97333 0.0
C360 C 0.18872 0.89136 0.95428 0.0
C361 C 0.22466 0.90569 0.96318 0.0
C362 C 0.24538 0.93203 0.94702 0.0
C363 C 0.23067 0.94435 0.92148 0.0
H364 H 0.14811 0.89073 0.91999 0.0
C365 C 0.19569 0.92855 0.9119 0.0
C366 C 0.17497 0.90221 0.92806 0.0
H367 H 0.18388 0.93708 0.89212 0.0
H368 H 0.10735 0.77746 0.04518 0.0
H369 H 0.14504 0.80188 0.00631 0.0
H370 H 0.05527 0.88527 0.98865 0.0
H371 H 0.01753 0.86079 0.02731 0.0
H372 H 0.11119 0.88193 0.95769 0.0
H373 H 0.18145 0.85257 0.99008 0.0
H374 H 0.23616 0.89754 0.98315 0.0
H375 H 0.27241 0.9435 0.95488 0.0
C376 C 0.78999 0.90601 0.9659 0.0
C377 C 0.80849 0.94142 0.96029 0.0
C378 C 0.80048 0.88425 0.9891 0.0
C379 C 0.82947 0.89776 0.00713 0.0
C380 C 0.84591 0.93431 0.00243 0.0
C381 C 0.83581 0.95576 0.97918 0.0
C382 C 0.84527 0.87405 0.03003 0.0
C383 C 0.84704 0.83509 0.02916 0.0
C384 C 0.87244 0.81237 0.04788 0.0
C385 C 0.8882 0.77749 0.03817 0.0
C386 C 0.91667 0.75816 0.05327 0.0
C387 C 0.9298 0.7733 0.07849 0.0
H388 H 0.87095 0.85186 0.08284 0.0
C389 C 0.91215 0.80669 0.08916 0.0
C390 C 0.88356 0.82596 0.0741 0.0
H391 H 0.92119 0.81861 0.10881 0.0
H392 H 0.76855 0.89441 0.95184 0.0
H393 H 0.78634 0.8567 0.99256 0.0
H394 H 0.86797 0.94563 0.01614 0.0
H395 H 0.8501 0.98327 0.97569 0.0
H396 H 0.86102 0.88954 0.04596 0.0
H397 H 0.83422 0.8198 0.01184 0.0
H398 H 0.87986 0.7661 0.0182 0.0
H399 H 0.92946 0.73222 0.04464 0.0
C400 C 0.11438 0.17807 0.67711 0.0
C401 C 0.09596 0.21395 0.67344 0.0
C402 C 0.13863 0.17175 0.69966 0.0
C403 C 0.14468 0.20108 0.71932 0.0
C404 C 0.12724 0.2374 0.71521 0.0
C405 C 0.10353 0.24402 0.6922 0.0
C406 C 0.16395 0.19225 0.74598 0.0
C407 C 0.19133 0.1647 0.7486 0.0
C408 C 0.20092 0.14624 0.77542 0.0
C409 C 0.23708 0.1283 0.7791 0.0
C410 C 0.24415 0.10505 0.80228 0.0
C411 C 0.21468 0.09848 0.82166 0.0
H412 H 0.14379 0.1538 0.79336 0.0
C413 C 0.17907 0.11753 0.81846 0.0
C414 C 0.17232 0.14132 0.79574 0.0
H415 H 0.15591 0.11314 0.8332 0.0
H416 H 0.10927 0.15444 0.66285 0.0
H417 H 0.1507 0.14309 0.70242 0.0
H418 H 0.13106 0.26031 0.73024 0.0
H419 H 0.08961 0.27192 0.68986 0.0
H420 H 0.15293 0.20671 0.76427 0.0
H421 H 0.205 0.15289 0.73026 0.0
H422 H 0.25943 0.13126 0.76358 0.0
H423 H 0.27182 0.09058 0.80425 0.0
C424 C 0.11314 0.77406 0.18194 0.0
C425 C 0.09664 0.80351 0.16574 0.0
C426 C 0.14208 0.78296 0.20126 0.0
C427 C 0.15534 0.82133 0.20425 0.0
C428 C 0.14036 0.85008 0.18689 0.0
C429 C 0.11109 0.84141 0.1681 0.0
C430 C 0.18245 0.83353 0.2264 0.0
C431 C 0.18148 0.81808 0.25186 0.0
C432 C 0.19593 0.83984 0.2762 0.0
C433 C 0.17327 0.83958 0.30017 0.0
C434 C 0.18087 0.86559 0.32149 0.0
C435 C 0.212 0.89158 0.31964 0.0
H436 H 0.24726 0.86428 0.25708 0.0
C437 C 0.23693 0.88958 0.29685 0.0
C438 C 0.22878 0.86404 0.2751 0.0
H439 H 0.26117 0.90935 0.29509 0.0
H440 H 0.10282 0.74452 0.18032 0.0
H441 H 0.15365 0.75996 0.21399 0.0
H442 H 0.15017 0.8798 0.18864 0.0
H443 H 0.09951 0.86462 0.15554 0.0
H444 H 0.19803 0.86051 0.22318 0.0
H445 H 0.16291 0.79327 0.25578 0.0
H446 H 0.14799 0.8211 0.30163 0.0
H447 H 0.16146 0.86644 0.33904 0.0
C448 C 0.88378 0.77269 0.69447 0.0
C449 C 0.88911 0.79889 0.67266 0.0
C450 C 0.85863 0.78189 0.7162 0.0
C451 C 0.83804 0.8171 0.71605 0.0
C452 C 0.8409 0.8414 0.69298 0.0
C453 C 0.86657 0.83268 0.6717 0.0
C454 C 0.81685 0.83171 0.74056 0.0
C455 C 0.8311 0.82738 0.76622 0.0
C456 C 0.8199 0.85324 0.78936 0.0
C457 C 0.84878 0.8646 0.808 0.0
C458 C 0.84124 0.89259 0.82801 0.0
C459 C 0.80432 0.90928 0.83031 0.0
H460 H 0.7593 0.85995 0.7785 0.0
C461 C 0.77462 0.89633 0.81273 0.0
C462 C 0.78242 0.86874 0.79223 0.0
H463 H 0.74579 0.90845 0.81422 0.0
H464 H 0.90076 0.74637 0.69556 0.0
H465 H 0.85634 0.76217 0.73348 0.0
H466 H 0.82516 0.86851 0.69226 0.0
H467 H 0.86987 0.85312 0.65491 0.0
H468 H 0.79388 0.8526 0.73698 0.0
H469 H 0.85657 0.80942 0.76924 0.0
H470 H 0.87781 0.85297 0.80636 0.0
H471 H 0.86457 0.90144 0.84156 0.0
C472 C 0.78038 0.11663 0.31715 0.0
C473 C 0.78675 0.07668 0.31401 0.0
C474 C 0.78925 0.1422 0.29562 0.0
C475 C 0.80364 0.12796 0.27047 0.0
C476 C 0.80746 0.08786 0.26681 0.0
C477 C 0.79972 0.06248 0.28852 0.0
C478 C 0.81788 0.15399 0.24843 0.0
C479 C 0.84103 0.18432 0.25408 0.0
C480 C 0.86641 0.20114 0.2326 0.0
C481 C 0.90593 0.20547 0.23843 0.0
C482 C 0.93206 0.214 0.21733 0.0
C483 C 0.91887 0.21978 0.19029 0.0
H484 H 0.82243 0.20614 0.2009 0.0
C485 C 0.87899 0.21868 0.18482 0.0
C486 C 0.85289 0.20894 0.2058 0.0
H487 H 0.86831 0.22281 0.16401 0.0
H488 H 0.7704 0.12825 0.33665 0.0
H489 H 0.78562 0.17303 0.29881 0.0
H490 H 0.81841 0.07625 0.24757 0.0
H491 H 0.80457 0.03177 0.28555 0.0
H492 H 0.81547 0.14384 0.22726 0.0
H493 H 0.84714 0.19165 0.27546 0.0
H494 H 0.91695 0.19963 0.25894 0.0
H495 H 0.96275 0.21468 0.22193 0.0
loop_
_geom_bond_atom_site_label_1
_geom_bond_atom_site_label_2
_geom_bond_distance
_geom_bond_site_symmetry_2
_ccdc_geom_bond_type
Co0 O1 2.216 . S
Co0 O2 2.091 . S
Co0 O4 2.004 . S
Co0 O10 2.021 . S
Co0 O12 2.137 . S
Co0 O13 2.244 . S
O1 Co0 2.216 . S
O1 C8 1.247 . S
O2 Co0 2.091 . S
O2 C8 1.261 . S
C3 O12 1.247 . S
C3 O13 1.272 . S
O4 Co0 2.004 . S
O4 C9 1.259 . S
Co5 O6 2.061 . S
Co5 O11 2.052 . S
Co5 O13 2.135 . S
O6 Co5 2.061 . S
O6 C9 1.235 . S
C7 O10 1.238 . S
C7 O11 1.241 . S
C8 O1 1.247 . S
C8 O2 1.261 . S
C9 O4 1.259 . S
C9 O6 1.235 . S
O10 Co0 2.021 . S
O10 C7 1.238 . S
O11 Co5 2.052 . S
O11 C7 1.241 . S
O12 Co0 2.137 . S
O12 C3 1.247 . S
O13 Co0 2.244 . S
O13 C3 1.272 . S
O13 Co5 2.135 . S
Co14 O15 2.216 . S
Co14 O16 2.091 . S
Co14 O18 2.004 . S
Co14 O24 2.021 . S
Co14 O26 2.137 . S
Co14 O27 2.244 . S
O15 Co14 2.216 . S
O15 C22 1.247 . S
O16 Co14 2.091 . S
O16 C22 1.261 . S
C17 O26 1.247 . S
C17 O27 1.272 . S
O18 Co14 2.004 . S
O18 C23 1.259 . S
Co19 O20 2.061 . S
Co19 O25 2.052 . S
Co19 O27 2.135 . S
O20 Co19 2.061 . S
O20 C23 1.235 . S
C21 O24 1.238 . S
C21 O25 1.241 . S
C22 O15 1.247 . S
C22 O16 1.261 . S
C23 O18 1.259 . S
C23 O20 1.235 . S
O24 Co14 2.021 . S
O24 C21 1.238 . S
O25 Co19 2.052 . S
O25 C21 1.241 . S
O26 Co14 2.137 . S
O26 C17 1.247 . S
O27 Co14 2.244 . S
O27 C17 1.272 . S
O27 Co19 2.135 . S
Co28 O29 2.216 . S
Co28 O30 2.091 . S
Co28 O32 2.004 . S
Co28 O38 2.021 . S
Co28 O40 2.137 . S
Co28 O41 2.244 . S
O29 Co28 2.216 . S
O29 C36 1.247 . S
O30 Co28 2.091 . S
O30 C36 1.261 . S
C31 O40 1.247 . S
C31 O41 1.272 . S
O32 Co28 2.004 . S
O32 C37 1.259 . S
Co33 O34 2.061 . S
Co33 O39 2.052 . S
Co33 O41 2.135 . S
O34 Co33 2.061 . S
O34 C37 1.235 . S
C35 O38 1.238 . S
C35 O39 1.241 . S
C36 O29 1.247 . S
C36 O30 1.261 . S
C37 O32 1.259 . S
C37 O34 1.235 . S
O38 Co28 2.021 . S
O38 C35 1.238 . S
O39 Co33 2.052 . S
O39 C35 1.241 . S
O40 Co28 2.137 . S
O40 C31 1.247 . S
O41 Co28 2.244 . S
O41 C31 1.272 . S
O41 Co33 2.135 . S
Co42 O43 2.216 . S
Co42 O44 2.091 . S
Co42 O46 2.004 . S
Co42 O52 2.021 . S
Co42 O54 2.137 . S
Co42 O55 2.244 . S
O43 Co42 2.216 . S
O43 C50 1.247 . S
O44 Co42 2.091 . S
O44 C50 1.261 . S
C45 O54 1.247 . S
C45 O55 1.272 . S
O46 Co42 2.004 . S
O46 C51 1.259 . S
Co47 O48 2.061 . S
Co47 O53 2.052 . S
Co47 O55 2.135 . S
O48 Co47 2.061 . S
O48 C51 1.235 . S
C49 O52 1.238 . S
C49 O53 1.241 . S
C50 O43 1.247 . S
C50 O44 1.261 . S
C51 O46 1.259 . S
C51 O48 1.235 . S
O52 Co42 2.021 . S
O52 C49 1.238 . S
O53 Co47 2.052 . S
O53 C49 1.241 . S
O54 Co42 2.137 . S
O54 C45 1.247 . S
O55 Co42 2.244 . S
O55 C45 1.272 . S
O55 Co47 2.135 . S
Co56 O57 2.216 . S
Co56 O58 2.091 . S
Co56 O60 2.004 . S
Co56 O66 2.021 . S
Co56 O68 2.137 . S
Co56 O69 2.244 . S
O57 Co56 2.216 . S
O57 C64 1.247 . S
O58 Co56 2.091 . S
O58 C64 1.261 . S
C59 O68 1.247 . S
C59 O69 1.272 . S
O60 Co56 2.004 . S
O60 C65 1.259 . S
Co61 O62 2.061 . S
Co61 O67 2.052 . S
Co61 O69 2.135 . S
O62 Co61 2.061 . S
O62 C65 1.235 . S
C63 O66 1.238 . S
C63 O67 1.241 . S
C64 O57 1.247 . S
C64 O58 1.261 . S
C65 O60 1.259 . S
C65 O62 1.235 . S
O66 Co56 2.021 . S
O66 C63 1.238 . S
O67 Co61 2.052 . S
O67 C63 1.241 . S
O68 Co56 2.137 . S
O68 C59 1.247 . S
O69 Co56 2.244 . S
O69 C59 1.272 . S
O69 Co61 2.135 . S
Co70 O71 2.216 . S
Co70 O72 2.091 . S
Co70 O74 2.004 . S
Co70 O80 2.021 . S
Co70 O82 2.137 . S
Co70 O83 2.244 . S
O71 Co70 2.216 . S
O71 C78 1.247 . S
O72 Co70 2.091 . S
O72 C78 1.261 . S
C73 O82 1.247 . S
C73 O83 1.272 . S
O74 Co70 2.004 . S
O74 C79 1.259 . S
Co75 O76 2.061 . S
Co75 O81 2.052 . S
Co75 O83 2.135 . S
O76 Co75 2.061 . S
O76 C79 1.235 . S
C77 O80 1.238 . S
C77 O81 1.241 . S
C78 O71 1.247 . S
C78 O72 1.261 . S
C79 O74 1.259 . S
C79 O76 1.235 . S
O80 Co70 2.021 . S
O80 C77 1.238 . S
O81 Co75 2.052 . S
O81 C77 1.241 . S
O82 Co70 2.137 . S
O82 C73 1.247 . S
O83 Co70 2.244 . S
O83 C73 1.272 . S
O83 Co75 2.135 . S
Co84 O85 2.216 . S
Co84 O86 2.091 . S
Co84 O88 2.004 . S
Co84 O94 2.021 . S
Co84 O96 2.137 . S
Co84 O97 2.244 . S
O85 Co84 2.216 . S
O85 C92 1.247 . S
O86 Co84 2.091 . S
O86 C92 1.261 . S
C87 O96 1.247 . S
C87 O97 1.272 . S
O88 Co84 2.004 . S
O88 C93 1.259 . S
Co89 O90 2.061 . S
Co89 O95 2.052 . S
Co89 O97 2.135 . S
O90 Co89 2.061 . S
O90 C93 1.235 . S
C91 O94 1.238 . S
C91 O95 1.241 . S
C92 O85 1.247 . S
C92 O86 1.261 . S
C93 O88 1.259 . S
C93 O90 1.235 . S
O94 Co84 2.021 . S
O94 C91 1.238 . S
O95 Co89 2.052 . S
O95 C91 1.241 . S
O96 Co84 2.137 . S
O96 C87 1.247 . S
O97 Co84 2.244 . S
O97 C87 1.272 . S
O97 Co89 2.135 . S
Co98 O99 2.216 . S
Co98 O100 2.091 . S
Co98 O102 2.004 . S
Co98 O108 2.021 . S
Co98 O110 2.137 . S
Co98 O111 2.244 . S
O99 Co98 2.216 . S
O99 C106 1.247 . S
O100 Co98 2.091 . S
O100 C106 1.261 . S
C101 O110 1.247 . S
C101 O111 1.272 . S
O102 Co98 2.004 . S
O102 C107 1.259 . S
Co103 O104 2.061 . S
Co103 O109 2.052 . S
Co103 O111 2.135 . S
O104 Co103 2.061 . S
O104 C107 1.235 . S
C105 O108 1.238 . S
C105 O109 1.241 . S
C106 O99 1.247 . S
C106 O100 1.261 . S
C107 O102 1.259 . S
C107 O104 1.235 . S
O108 Co98 2.021 . S
O108 C105 1.238 . S
O109 Co103 2.052 . S
O109 C105 1.241 . S
O110 Co98 2.137 . S
O110 C101 1.247 . S
O111 Co98 2.244 . S
O111 C101 1.272 . S
O111 Co103 2.135 . S
C112 C113 1.386 . S
C112 C114 1.383 . S
C112 H128 0.951 . S
C113 C112 1.386 . S
C113 C117 1.383 . S
C114 C112 1.383 . S
C114 C115 1.402 . S
C114 H129 0.951 . S
C115 C114 1.402 . S
C115 C116 1.375 . S
C115 C118 1.481 1_655 S
C116 C115 1.375 . S
C116 C117 1.367 . S
C116 H130 0.951 . S
C117 C113 1.383 . S
C117 C116 1.367 . S
C117 H131 0.950 . S
C118 C115 1.481 1_455 S
C118 C119 1.297 . S
C118 H132 0.950 . S
C119 C118 1.297 . S
C119 C120 1.479 . S
C119 H133 0.950 . S
C120 C119 1.479 . S
C120 C121 1.375 . S
C120 C126 1.404 . S
C121 C120 1.375 . S
C121 C122 1.369 . S
C121 H134 0.950 . S
C122 C121 1.369 . S
C122 C123 1.392 . S
C122 H135 0.951 . S
C123 C122 1.392 . S
C123 C125 1.384 . S
H124 C126 0.949 . S
C125 C123 1.384 . S
C125 C126 1.385 . S
C125 H127 0.950 . S
C126 C120 1.404 . S
C126 H124 0.949 . S
C126 C125 1.385 . S
H127 C125 0.950 . S
H128 C112 0.951 . S
H129 C114 0.951 . S
H130 C116 0.951 . S
H131 C117 0.950 . S
H132 C118 0.950 . S
H133 C119 0.950 . S
H134 C121 0.950 . S
H135 C122 0.951 . S
C136 C137 1.386 . S
C136 C138 1.383 . S
C136 H152 0.951 . S
C137 C136 1.386 . S
C137 C141 1.383 . S
C138 C136 1.383 . S
C138 C139 1.402 . S
C138 H153 0.951 . S
C139 C138 1.402 . S
C139 C140 1.375 . S
C139 C142 1.481 . S
C140 C139 1.375 . S
C140 C141 1.367 . S
C140 H154 0.951 . S
C141 C137 1.383 . S
C141 C140 1.367 . S
C141 H155 0.950 . S
C142 C139 1.481 . S
C142 C143 1.297 1_545 S
C142 H156 0.950 . S
C143 C142 1.297 1_565 S
C143 C144 1.479 . S
C143 H157 0.950 . S
C144 C143 1.479 . S
C144 C145 1.375 . S
C144 C150 1.404 . S
C145 C144 1.375 . S
C145 C146 1.369 . S
C145 H158 0.950 . S
C146 C145 1.369 . S
C146 C147 1.392 . S
C146 H159 0.951 . S
C147 C146 1.392 . S
C147 C149 1.384 . S
H148 C150 0.949 1_545 S
C149 C147 1.384 . S
C149 C150 1.385 . S
C149 H151 0.950 . S
C150 C144 1.404 . S
C150 H148 0.949 1_565 S
C150 C149 1.385 . S
H151 C149 0.950 . S
H152 C136 0.951 . S
H153 C138 0.951 . S
H154 C140 0.951 . S
H155 C141 0.950 . S
H156 C142 0.950 . S
H157 C143 0.950 . S
H158 C145 0.950 . S
H159 C146 0.951 . S
C160 C161 1.386 . S
C160 C162 1.383 . S
C160 H176 0.951 . S
C161 C160 1.386 . S
C161 C165 1.383 . S
C162 C160 1.383 . S
C162 C163 1.402 . S
C162 H177 0.951 . S
C163 C162 1.402 . S
C163 C164 1.375 . S
C163 C166 1.481 . S
C164 C163 1.375 . S
C164 C165 1.367 . S
C164 H178 0.951 . S
C165 C161 1.383 . S
C165 C164 1.367 . S
C165 H179 0.950 . S
C166 C163 1.481 . S
C166 C167 1.297 . S
C166 H180 0.950 1_655 S
C167 C166 1.297 . S
C167 C168 1.479 1_655 S
C167 H181 0.950 . S
C168 C167 1.479 1_455 S
C168 C169 1.375 . S
C168 C174 1.404 . S
C169 C168 1.375 . S
C169 C170 1.369 . S
C169 H182 0.950 1_455 S
C170 C169 1.369 . S
C170 C171 1.392 . S
C170 H183 0.951 . S
C171 C170 1.392 . S
C171 C173 1.384 . S
H172 C174 0.949 . S
C173 C171 1.384 . S
C173 C174 1.385 . S
C173 H175 0.950 . S
C174 C168 1.404 . S
C174 H172 0.949 . S
C174 C173 1.385 . S
H175 C173 0.950 . S
H176 C160 0.951 . S
H177 C162 0.951 . S
H178 C164 0.951 . S
H179 C165 0.950 . S
H180 C166 0.950 1_455 S
H181 C167 0.950 . S
H182 C169 0.950 1_655 S
H183 C170 0.951 . S
C184 C185 1.386 . S
C184 C186 1.383 . S
C184 H200 0.951 . S
C185 C184 1.386 . S
C185 C189 1.383 . S
C186 C184 1.383 . S
C186 C187 1.402 . S
C186 H201 0.951 . S
C187 C186 1.402 . S
C187 C188 1.375 . S
C187 C190 1.491 . S
C188 C187 1.375 . S
C188 C189 1.367 . S
C188 H202 0.951 1_545 S
C189 C185 1.383 . S
C189 C188 1.367 . S
C189 H203 0.950 . S
C190 C187 1.491 . S
C190 C191 1.300 . S
C190 H204 0.935 1_545 S
C191 C190 1.300 . S
C191 C192 1.479 1_545 S
C191 H205 0.950 . S
C192 C191 1.479 1_565 S
C192 C193 1.375 . S
C192 C198 1.404 . S
C193 C192 1.375 . S
C193 C194 1.369 . S
C193 H206 0.950 1_565 S
C194 C193 1.369 . S
C194 C195 1.392 . S
C194 H207 0.951 . S
C195 C194 1.392 . S
C195 C197 1.384 . S
H196 C198 0.949 . S
C197 C195 1.384 . S
C197 C198 1.385 . S
C197 H199 0.950 . S
C198 C192 1.404 . S
C198 H196 0.949 . S
C198 C197 1.385 . S
H199 C197 0.950 . S
H200 C184 0.951 . S
H201 C186 0.951 . S
H202 C188 0.951 1_565 S
H203 C189 0.950 . S
H204 C190 0.935 1_565 S
H205 C191 0.950 . S
H206 C193 0.950 1_545 S
H207 C194 0.951 . S
C208 C209 1.386 1_545 S
C208 C210 1.383 . S
C208 H224 0.951 . S
C209 C208 1.386 1_565 S
C209 C213 1.380 1_565 S
C210 C208 1.383 . S
C210 C211 1.402 . S
C210 H225 0.951 . S
C211 C210 1.402 . S
C211 C212 1.375 . S
C211 C214 1.481 . S
C212 C211 1.375 . S
C212 C213 1.374 . S
C212 H226 0.951 . S
C213 C209 1.380 1_545 S
C213 C212 1.374 . S
C213 H227 0.945 1_545 S
C214 C211 1.481 . S
C214 C215 1.297 . S
C214 H228 0.950 . S
C215 C214 1.297 . S
C215 C216 1.479 . S
C215 H229 0.950 . S
C216 C215 1.479 . S
C216 C217 1.375 . S
C216 C222 1.404 . S
C217 C216 1.375 . S
C217 C218 1.369 . S
C217 H230 0.950 . S
C218 C217 1.369 . S
C218 C219 1.392 . S
C218 H231 0.951 . S
C219 C218 1.392 . S
C219 C221 1.384 . S
H220 C222 0.949 . S
C221 C219 1.384 . S
C221 C222 1.385 . S
C221 H223 0.950 . S
C222 C216 1.404 . S
C222 H220 0.949 . S
C222 C221 1.385 . S
H223 C221 0.950 . S
H224 C208 0.951 . S
H225 C210 0.951 . S
H226 C212 0.951 . S
H227 C213 0.945 1_565 S
H228 C214 0.950 . S
H229 C215 0.950 . S
H230 C217 0.950 . S
H231 C218 0.951 . S
C232 C233 1.386 . S
C232 C234 1.383 . S
C232 H248 0.951 . S
C233 C232 1.386 . S
C233 C237 1.383 . S
C234 C232 1.383 . S
C234 C235 1.402 . S
C234 H249 0.951 . S
C235 C234 1.402 . S
C235 C236 1.375 . S
C235 C238 1.481 . S
C236 C235 1.375 . S
C236 C237 1.367 . S
C236 H250 0.951 . S
C237 C233 1.383 . S
C237 C236 1.367 . S
C237 H251 0.950 . S
C238 C235 1.481 . S
C238 C239 1.297 . S
C238 H252 0.950 . S
C239 C238 1.297 . S
C239 C240 1.479 . S
C239 H253 0.950 . S
C240 C239 1.479 . S
C240 C241 1.375 . S
C240 C246 1.404 . S
C241 C240 1.375 . S
C241 C242 1.369 1_455 S
C241 H254 0.950 . S
C242 C241 1.369 1_655 S
C242 C243 1.392 . S
C242 H255 0.951 . S
C243 C242 1.392 . S
C243 C245 1.384 1_655 S
H244 C246 0.949 . S
C245 C243 1.384 1_455 S
C245 C246 1.385 . S
C245 H247 0.950 . S
C246 C240 1.404 . S
C246 H244 0.949 . S
C246 C245 1.385 . S
H247 C245 0.950 . S
H248 C232 0.951 . S
H249 C234 0.951 . S
H250 C236 0.951 . S
H251 C237 0.950 . S
H252 C238 0.950 . S
H253 C239 0.950 . S
H254 C241 0.950 . S
H255 C242 0.951 . S
C256 C257 1.386 1_565 S
C256 C258 1.383 . S
C256 H272 0.951 . S
C257 C256 1.386 1_545 S
C257 C261 1.383 . S
C258 C256 1.383 . S
C258 C259 1.402 . S
C258 H273 0.951 . S
C259 C258 1.402 . S
C259 C260 1.375 . S
C259 C262 1.481 . S
C260 C259 1.375 . S
C260 C261 1.367 1_565 S
C260 H274 0.947 1_565 S
C261 C257 1.383 . S
C261 C260 1.367 1_545 S
C261 H275 0.950 . S
C262 C259 1.481 . S
C262 C263 1.297 . S
C262 H276 0.950 . S
C263 C262 1.297 . S
C263 C264 1.479 . S
C263 H277 0.950 . S
C264 C263 1.479 . S
C264 C265 1.375 . S
C264 C270 1.404 . S
C265 C264 1.375 . S
C265 C266 1.369 . S
C265 H278 0.950 . S
C266 C265 1.369 . S
C266 C267 1.392 . S
C266 H279 0.951 . S
C267 C266 1.392 . S
C267 C269 1.384 . S
H268 C270 0.949 . S
C269 C267 1.384 . S
C269 C270 1.385 . S
C269 H271 0.950 . S
C270 C264 1.404 . S
C270 H268 0.949 . S
C270 C269 1.385 . S
H271 C269 0.950 . S
H272 C256 0.951 . S
H273 C258 0.951 . S
H274 C260 0.947 1_545 S
H275 C261 0.950 . S
H276 C262 0.950 . S
H277 C263 0.950 . S
H278 C265 0.950 . S
H279 C266 0.951 . S
C280 C281 1.386 . S
C280 C282 1.383 . S
C280 H296 0.951 . S
C281 C280 1.386 . S
C281 C285 1.383 . S
C282 C280 1.383 . S
C282 C283 1.402 . S
C282 H297 0.951 . S
C283 C282 1.402 . S
C283 C284 1.375 . S
C283 C286 1.481 . S
C284 C283 1.375 . S
C284 C285 1.367 . S
C284 H298 0.951 . S
C285 C281 1.383 . S
C285 C284 1.367 . S
C285 H299 0.950 . S
C286 C283 1.481 . S
C286 C287 1.297 . S
C286 H300 0.950 . S
C287 C286 1.297 . S
C287 C288 1.479 . S
C287 H301 0.950 . S
C288 C287 1.479 . S
C288 C289 1.375 . S
C288 C294 1.404 . S
C289 C288 1.375 . S
C289 C290 1.369 . S
C289 H302 0.950 . S
C290 C289 1.369 . S
C290 C291 1.392 1_655 S
C290 H303 0.951 . S
C291 C290 1.392 1_455 S
C291 C293 1.384 . S
H292 C294 0.949 . S
C293 C291 1.384 . S
C293 C294 1.385 1_455 S
C293 H295 0.950 . S
C294 C288 1.404 . S
C294 H292 0.949 . S
C294 C293 1.385 1_655 S
H295 C293 0.950 . S
H296 C280 0.951 . S
H297 C282 0.951 . S
H298 C284 0.951 . S
H299 C285 0.950 . S
H300 C286 0.950 . S
H301 C287 0.950 . S
H302 C289 0.950 . S
H303 C290 0.951 . S
C304 C305 1.386 . S
C304 C306 1.383 1_565 S
C304 H320 0.951 . S
C305 C304 1.386 . S
C305 C309 1.383 1_565 S
C306 C304 1.383 1_545 S
C306 C307 1.402 . S
C306 H321 0.951 . S
C307 C306 1.402 . S
C307 C308 1.375 . S
C307 C310 1.481 . S
C308 C307 1.375 . S
C308 C309 1.367 . S
C308 H322 0.951 . S
C309 C305 1.383 1_545 S
C309 C308 1.367 . S
C309 H323 0.950 . S
C310 C307 1.481 . S
C310 C311 1.297 . S
C310 H324 0.950 . S
C311 C310 1.297 . S
C311 C312 1.479 1_556 S
C311 H325 0.955 . S
C312 C311 1.479 1_554 S
C312 C313 1.375 . S
C312 C318 1.404 . S
C313 C312 1.375 . S
C313 C314 1.369 . S
C313 H326 0.950 . S
C314 C313 1.369 . S
C314 C315 1.392 . S
C314 H327 0.951 . S
C315 C314 1.392 . S
C315 C317 1.384 . S
H316 C318 0.949 1_556 S
C317 C315 1.384 . S
C317 C318 1.385 . S
C317 H319 0.950 . S
C318 C312 1.404 . S
C318 H316 0.949 1_554 S
C318 C317 1.385 . S
H319 C317 0.950 . S
H320 C304 0.951 . S
H321 C306 0.951 . S
H322 C308 0.951 . S
H323 C309 0.950 . S
H324 C310 0.950 . S
H325 C311 0.955 . S
H326 C313 0.950 . S
H327 C314 0.951 . S
C328 C329 1.386 . S
C328 C330 1.383 . S
C328 H344 0.951 . S
C329 C328 1.386 . S
C329 C333 1.383 . S
C330 C328 1.383 . S
C330 C331 1.402 . S
C330 H345 0.951 1_556 S
C331 C330 1.402 . S
C331 C332 1.375 . S
C331 C334 1.481 . S
C332 C331 1.375 . S
C332 C333 1.367 . S
C332 H346 0.951 . S
C333 C329 1.383 . S
C333 C332 1.367 . S
C333 H347 0.950 . S
C334 C331 1.481 . S
C334 C335 1.297 1_556 S
C334 H348 0.950 . S
C335 C334 1.297 1_554 S
C335 C336 1.479 . S
C335 H349 0.950 . S
C336 C335 1.479 . S
C336 C337 1.375 . S
C336 C342 1.404 . S
C337 C336 1.375 . S
C337 C338 1.369 . S
C337 H350 0.950 . S
C338 C337 1.369 . S
C338 C339 1.392 1_455 S
C338 H351 0.951 . S
C339 C338 1.392 1_655 S
C339 C341 1.384 1_655 S
H340 C342 0.949 . S
C341 C339 1.384 1_455 S
C341 C342 1.385 . S
C341 H343 0.950 1_455 S
C342 C336 1.404 . S
C342 H340 0.949 . S
C342 C341 1.385 . S
H343 C341 0.950 1_655 S
H344 C328 0.951 . S
H345 C330 0.951 1_554 S
H346 C332 0.951 . S
H347 C333 0.950 . S
H348 C334 0.950 . S
H349 C335 0.950 . S
H350 C337 0.950 . S
H351 C338 0.951 . S
C352 C353 1.386 . S
C352 C354 1.383 . S
C352 H368 0.951 . S
C353 C352 1.386 . S
C353 C357 1.383 . S
C354 C352 1.383 . S
C354 C355 1.402 . S
C354 H369 0.951 . S
C355 C354 1.402 . S
C355 C356 1.375 . S
C355 C358 1.481 1_554 S
C356 C355 1.375 . S
C356 C357 1.367 . S
C356 H370 0.951 . S
C357 C353 1.383 . S
C357 C356 1.367 . S
C357 H371 0.950 . S
C358 C355 1.481 1_556 S
C358 C359 1.297 . S
C358 H372 0.950 . S
C359 C358 1.297 . S
C359 C360 1.479 . S
C359 H373 0.950 . S
C360 C359 1.479 . S
C360 C361 1.375 . S
C360 C366 1.404 . S
C361 C360 1.375 . S
C361 C362 1.369 . S
C361 H374 0.950 . S
C362 C361 1.369 . S
C362 C363 1.392 1_565 S
C362 H375 0.951 . S
C363 C362 1.392 1_545 S
C363 C365 1.384 . S
H364 C366 0.949 . S
C365 C363 1.384 . S
C365 C366 1.385 1_545 S
C365 H367 0.950 . S
C366 C360 1.404 . S
C366 H364 0.949 . S
C366 C365 1.385 1_565 S
H367 C365 0.950 . S
H368 C352 0.951 . S
H369 C354 0.951 . S
H370 C356 0.951 . S
H371 C357 0.950 . S
H372 C358 0.950 . S
H373 C359 0.950 . S
H374 C361 0.950 . S
H375 C362 0.951 . S
C376 C377 1.386 . S
C376 C378 1.383 . S
C376 H392 0.951 . S
C377 C376 1.386 . S
C377 C381 1.383 . S
C378 C376 1.383 . S
C378 C379 1.402 . S
C378 H393 0.951 . S
C379 C378 1.402 . S
C379 C380 1.375 . S
C379 C382 1.481 1_556 S
C380 C379 1.375 . S
C380 C381 1.367 . S
C380 H394 0.951 1_556 S
C381 C377 1.383 . S
C381 C380 1.367 . S
C381 H395 0.950 . S
C382 C379 1.481 1_554 S
C382 C383 1.297 1_554 S
C382 H396 0.950 . S
C383 C382 1.297 1_556 S
C383 C384 1.479 1_556 S
C383 H397 0.950 . S
C384 C383 1.479 1_554 S
C384 C385 1.375 . S
C384 C390 1.404 . S
C385 C384 1.375 . S
C385 C386 1.369 1_655 S
C385 H398 0.950 1_554 S
C386 C385 1.369 1_455 S
C386 C387 1.392 . S
C386 H399 0.951 . S
C387 C386 1.392 . S
C387 C389 1.384 1_455 S
H388 C390 0.949 . S
C389 C387 1.384 1_655 S
C389 C390 1.385 . S
C389 H391 0.950 1_655 S
C390 C384 1.404 . S
C390 H388 0.949 . S
C390 C389 1.385 . S
H391 C389 0.950 1_455 S
H392 C376 0.951 . S
H393 C378 0.951 . S
H394 C380 0.951 1_554 S
H395 C381 0.950 . S
H396 C382 0.950 . S
H397 C383 0.950 . S
H398 C385 0.950 1_556 S
H399 C386 0.951 . S
C400 C401 1.386 . S
C400 C402 1.383 . S
C400 H416 0.951 . S
C401 C400 1.386 . S
C401 C405 1.383 . S
C402 C400 1.383 . S
C402 C403 1.402 . S
C402 H417 0.951 . S
C403 C402 1.402 . S
C403 C404 1.375 . S
C403 C406 1.481 . S
C404 C403 1.375 . S
C404 C405 1.367 . S
C404 H418 0.951 . S
C405 C401 1.383 . S
C405 C404 1.367 . S
C405 H419 0.950 . S
C406 C403 1.481 . S
C406 C407 1.297 . S
C406 H420 0.950 . S
C407 C406 1.297 . S
C407 C408 1.479 . S
C407 H421 0.950 . S
C408 C407 1.479 . S
C408 C409 1.375 . S
C408 C414 1.404 . S
C409 C408 1.375 . S
C409 C410 1.369 . S
C409 H422 0.950 . S
C410 C409 1.369 . S
C410 C411 1.392 . S
C410 H423 0.951 . S
C411 C410 1.392 . S
C411 C413 1.384 . S
H412 C414 0.949 . S
C413 C411 1.384 . S
C413 C414 1.385 . S
C413 H415 0.950 . S
C414 C408 1.404 . S
C414 H412 0.949 . S
C414 C413 1.385 . S
H415 C413 0.950 . S
H416 C400 0.951 . S
H417 C402 0.951 . S
H418 C404 0.951 . S
H419 C405 0.950 . S
H420 C406 0.950 . S
H421 C407 0.950 . S
H422 C409 0.950 . S
H423 C410 0.951 . S
C424 C425 1.386 . S
C424 C426 1.383 . S
C424 H440 0.951 . S
C425 C424 1.386 . S
C425 C429 1.383 . S
C426 C424 1.383 . S
C426 C427 1.402 . S
C426 H441 0.951 . S
C427 C426 1.402 . S
C427 C428 1.375 . S
C427 C430 1.481 . S
C428 C427 1.375 . S
C428 C429 1.367 . S
C428 H442 0.951 . S
C429 C425 1.383 . S
C429 C428 1.367 . S
C429 H443 0.950 . S
C430 C427 1.481 . S
C430 C431 1.297 . S
C430 H444 0.950 . S
C431 C430 1.297 . S
C431 C432 1.479 . S
C431 H445 0.950 . S
C432 C431 1.479 . S
C432 C433 1.375 . S
C432 C438 1.404 . S
C433 C432 1.375 . S
C433 C434 1.369 . S
C433 H446 0.950 . S
C434 C433 1.369 . S
C434 C435 1.392 . S
C434 H447 0.951 . S
C435 C434 1.392 . S
C435 C437 1.384 . S
H436 C438 0.949 . S
C437 C435 1.384 . S
C437 C438 1.385 . S
C437 H439 0.950 . S
C438 C432 1.404 . S
C438 H436 0.949 . S
C438 C437 1.385 . S
H439 C437 0.950 . S
H440 C424 0.951 . S
H441 C426 0.951 . S
H442 C428 0.951 . S
H443 C429 0.950 . S
H444 C430 0.950 . S
H445 C431 0.950 . S
H446 C433 0.950 . S
H447 C434 0.951 . S
C448 C449 1.386 . S
C448 C450 1.383 . S
C448 H464 0.951 . S
C449 C448 1.386 . S
C449 C453 1.383 . S
C450 C448 1.383 . S
C450 C451 1.402 . S
C450 H465 0.951 . S
C451 C450 1.402 . S
C451 C452 1.375 . S
C451 C454 1.481 . S
C452 C451 1.375 . S
C452 C453 1.367 . S
C452 H466 0.951 . S
C453 C449 1.383 . S
C453 C452 1.367 . S
C453 H467 0.950 . S
C454 C451 1.481 . S
C454 C455 1.297 . S
C454 H468 0.950 . S
C455 C454 1.297 . S
C455 C456 1.479 . S
C455 H469 0.950 . S
C456 C455 1.479 . S
C456 C457 1.375 . S
C456 C462 1.404 . S
C457 C456 1.375 . S
C457 C458 1.369 . S
C457 H470 0.950 . S
C458 C457 1.369 . S
C458 C459 1.392 . S
C458 H471 0.951 . S
C459 C458 1.392 . S
C459 C461 1.384 . S
H460 C462 0.949 . S
C461 C459 1.384 . S
C461 C462 1.385 . S
C461 H463 0.950 . S
C462 C456 1.404 . S
C462 H460 0.949 . S
C462 C461 1.385 . S
H463 C461 0.950 . S
H464 C448 0.951 . S
H465 C450 0.951 . S
H466 C452 0.951 . S
H467 C453 0.950 . S
H468 C454 0.950 . S
H469 C455 0.950 . S
H470 C457 0.950 . S
H471 C458 0.951 . S
C472 C473 1.386 . S
C472 C474 1.383 . S
C472 H488 0.951 . S
C473 C472 1.386 . S
C473 C477 1.383 . S
C474 C472 1.383 . S
C474 C475 1.402 . S
C474 H489 0.951 . S
C475 C474 1.402 . S
C475 C476 1.375 . S
C475 C478 1.481 . S
C476 C475 1.375 . S
C476 C477 1.367 . S
C476 H490 0.951 . S
C477 C473 1.383 . S
C477 C476 1.367 . S
C477 H491 0.950 . S
C478 C475 1.481 . S
C478 C479 1.297 . S
C478 H492 0.950 . S
C479 C478 1.297 . S
C479 C480 1.479 . S
C479 H493 0.950 . S
C480 C479 1.479 . S
C480 C481 1.375 . S
C480 C486 1.404 . S
C481 C480 1.375 . S
C481 C482 1.369 . S
C481 H494 0.950 . S
C482 C481 1.369 . S
C482 C483 1.392 . S
C482 H495 0.951 . S
C483 C482 1.392 . S
C483 C485 1.384 . S
H484 C486 0.949 . S
C485 C483 1.384 . S
C485 C486 1.385 . S
C485 H487 0.950 . S
C486 C480 1.404 . S
C486 H484 0.949 . S
C486 C485 1.385 . S
H487 C485 0.950 . S
H488 C472 0.951 . S
H489 C474 0.951 . S
H490 C476 0.951 . S
H491 C477 0.950 . S
H492 C478 0.950 . S
H493 C479 0.950 . S
H494 C481 0.950 . S
H495 C482 0.951 . S
C113 C36 1.433 . S
C123 C8 1.471 . S
C137 C50 1.475 . S
C147 C22 1.404 . S
C161 C64 1.459 . S
C171 C92 1.416 . S
C185 C78 1.436 . S
C195 C106 1.405 . S
C209 C17 1.051 . S
C219 C9 1.050 . S
C233 C23 1.036 . S
C243 C31 0.996 . S
C257 C45 1.027 . S
C267 C37 0.919 . S
C281 C51 0.942 . S
C291 C3 1.060 . S
C305 C101 1.049 . S
C315 C65 0.948 . S
C329 C79 1.039 . S
C339 C59 1.046 . S
C353 C93 0.953 . S
C363 C73 1.060 . S
C377 C107 0.944 . S
C387 C87 1.012 . S
C401 C7 1.671 . S
C411 C77 1.670 . S
C425 C91 1.619 . S
C435 C21 1.681 . S
C449 C35 1.620 . S
C459 C105 1.612 . S
C473 C49 1.650 . S
C483 C63 1.601 . S
