# Generated by pormake.
# Topology hcp, (12)-cn, num edge types: 1
# Building blocks:
#     Node 0, Type 0, BuildingBlock: QEWDON_clean_sbu_0, # of connection points: 12
#     Node 1, Type 0, BuildingBlock: QEWDON_clean_sbu_0, # of connection points: 12
#     Edge 2, Type (0, 0), BuildingBlock: FUNLAD_clean_linker_0, # of connection points: 2
#     Edge 3, Type (0, 0), BuildingBlock: FUNLAD_clean_linker_0, # of connection points: 2
#     Edge 4, Type (0, 0), BuildingBlock: FUNLAD_clean_linker_0, # of connection points: 2
#     Edge 5, Type (0, 0), BuildingBlock: FUNLAD_clean_linker_0, # of connection points: 2
#     Edge 6, Type (0, 0), BuildingBlock: FUNLAD_clean_linker_0, # of connection points: 2
#     Edge 7, Type (0, 0), BuildingBlock: FUNLAD_clean_linker_0, # of connection points: 2
#     Edge 8, Type (0, 0), BuildingBlock: FUNLAD_clean_linker_0, # of connection points: 2
#     Edge 9, Type (0, 0), BuildingBlock: FUNLAD_clean_linker_0, # of connection points: 2
#     Edge 10, Type (0, 0), BuildingBlock: FUNLAD_clean_linker_0, # of connection points: 2
#     Edge 11, Type (0, 0), BuildingBlock: FUNLAD_clean_linker_0, # of connection points: 2
#     Edge 12, Type (0, 0), BuildingBlock: FUNLAD_clean_linker_0, # of connection points: 2
#     Edge 13, Type (0, 0), BuildingBlock: FUNLAD_clean_linker_0, # of connection points: 2
# Relax obj value: 0.191
# Max RMSD: 0.273
# Mean RMSD: 0.273
data_MOF--net-hcp--node1-QEWDON_clean_sbu_0--edge1-FUNLAD_clean_linker_0
_symmetry_space_group_name_H-M    P1
_symmetry_Int_Tables_number       1
_symmetry_cell_setting            triclinic
loop_
_symmetry_equiv_pos_as_xyz
'x, y, z'
_cell_length_a     21.713987
_cell_length_b     21.04932
_cell_length_c     35.894973
_cell_angle_alpha  92.464658
_cell_angle_beta   89.029925
_cell_angle_gamma 121.47489
loop_
_atom_site_label
_atom_site_type_symbol
_atom_site_fract_x
_atom_site_fract_y
_atom_site_fract_z
_atom_type_partial_charge
Zn0 Zn 0.7171 0.28322 0.28001 0.0
Zn1 Zn 0.7848 0.38586 0.2082 0.0
O2 O 0.70814 0.3549 0.24777 0.0
H3 H 0.66349 0.3533 0.24399 0.0
C4 C 0.56062 0.10455 0.23523 0.0
O5 O 0.60591 0.17514 0.2441 0.0
Zn6 Zn 0.55361 0.46956 0.23314 0.0
Zn7 Zn 0.47632 0.33558 0.2885 0.0
O8 O 0.52316 0.36187 0.23732 0.0
H9 H 0.54346 0.33564 0.22466 0.0
Zn10 Zn 0.49972 0.17063 0.1893 0.0
O11 O 0.5964 0.26631 0.18286 0.0
Zn12 Zn 0.58484 0.31795 0.14034 0.0
H13 H 0.63969 0.26617 0.18829 0.0
Zn14 Zn 0.63141 0.38326 0.34839 0.0
O15 O 0.65002 0.43912 0.30256 0.0
H16 H 0.62235 0.4135 0.28047 0.0
Zn17 Zn 0.75088 0.5266 0.30279 0.0
C18 C 0.49519 0.25212 0.37081 0.0
O19 O 0.44456 0.1813 0.37193 0.0
O20 O 0.80112 0.27062 0.26529 0.0
O21 O 0.83637 0.32889 0.21159 0.0
O22 O 0.43932 0.40427 0.3049 0.0
O23 O 0.47844 0.48383 0.25908 0.0
O24 O 0.44773 0.13638 0.13865 0.0
O25 O 0.50757 0.2393 0.1064 0.0
C26 C 0.85702 0.53407 0.24108 0.0
O27 O 0.72184 0.42592 0.38056 0.0
O28 O 0.8001 0.52999 0.35169 0.0
O29 O 0.39463 0.22534 0.29517 0.0
C30 C 0.84159 0.29056 0.2367 0.0
O31 O 0.64891 0.22456 0.32415 0.0
C32 C 0.55994 0.44988 0.15318 0.0
O33 O 0.50799 0.08722 0.21355 0.0
C34 C 0.43992 0.45653 0.28799 0.0
O35 O 0.54753 0.27238 0.34842 0.0
C36 C 0.73646 0.38743 0.12473 0.0
O37 O 0.86202 0.493 0.21586 0.0
O38 O 0.79996 0.50522 0.26059 0.0
C39 C 0.45947 0.17032 0.10836 0.0
O40 O 0.55534 0.49106 0.17862 0.0
O41 O 0.56653 0.3963 0.1629 0.0
C42 C 0.69061 0.60261 0.27195 0.0
O43 O 0.67607 0.36713 0.1097 0.0
O44 O 0.73649 0.3766 0.15927 0.0
C45 C 0.78367 0.48551 0.37846 0.0
O46 O 0.7443 0.6172 0.29239 0.0
O47 O 0.65066 0.53572 0.25928 0.0
C48 C 0.39603 0.16765 0.28482 0.0
O49 O 0.45458 0.17544 0.26914 0.0
C50 C 0.67665 0.2265 0.35545 0.0
O51 O 0.74716 0.26744 0.35949 0.0
Zn52 Zn 0.39664 0.52691 0.76115 0.0
Zn53 Zn 0.46506 0.65554 0.70164 0.0
O54 O 0.39577 0.61864 0.7451 0.0
H55 H 0.38451 0.64798 0.76208 0.0
C56 C 0.25907 0.40315 0.70703 0.0
O57 O 0.19353 0.39151 0.70973 0.0
Zn58 Zn 0.26348 0.78321 0.68813 0.0
Zn59 Zn 0.16736 0.62186 0.71943 0.0
O60 O 0.22793 0.67534 0.67354 0.0
H61 H 0.19818 0.64239 0.69276 0.0
Zn62 Zn 0.27792 0.54145 0.68295 0.0
O63 O 0.34197 0.65649 0.69101 0.0
Zn64 Zn 0.35772 0.68801 0.63857 0.0
H65 H 0.33791 0.68513 0.71162 0.0
Zn66 Zn 0.34479 0.68917 0.84195 0.0
O67 O 0.33298 0.73587 0.79579 0.0
H68 H 0.28977 0.71637 0.78081 0.0
Zn69 Zn 0.43225 0.82204 0.78415 0.0
C70 C 0.19524 0.62073 0.87376 0.0
O71 O 0.17924 0.6344 0.84108 0.0
O72 O 0.49129 0.53224 0.74705 0.0
O73 O 0.5393 0.63 0.71089 0.0
O74 O 0.13771 0.68922 0.74744 0.0
O75 O 0.18056 0.78718 0.71137 0.0
O76 O 0.20837 0.50753 0.63783 0.0
O77 O 0.27367 0.61188 0.60758 0.0
C78 C 0.51912 0.8136 0.71805 0.0
O79 O 0.44065 0.76238 0.86873 0.0
O80 O 0.49354 0.85693 0.83063 0.0
O81 O 0.08732 0.50576 0.72126 0.0
C82 C 0.54294 0.57989 0.72749 0.0
O83 O 0.37104 0.49427 0.81562 0.0
C84 C 0.3541 0.83935 0.62539 0.0
O85 O 0.30979 0.46656 0.69689 0.0
C86 C 0.14132 0.749 0.73836 0.0
O87 O 0.25944 0.63692 0.87997 0.0
C88 C 0.44926 0.63439 0.62305 0.0
O89 O 0.52301 0.76803 0.69526 0.0
O90 O 0.47307 0.78636 0.74403 0.0
C91 C 0.21943 0.54587 0.60928 0.0
O92 O 0.3115 0.85139 0.64496 0.0
O93 O 0.35539 0.78072 0.63056 0.0
C94 C 0.37658 0.88973 0.74101 0.0
O95 O 0.44256 0.68885 0.61539 0.0
O96 O 0.42192 0.6001 0.65285 0.0
C97 C 0.49164 0.82794 0.86144 0.0
O98 O 0.42365 0.90585 0.76599 0.0
O99 O 0.3399 0.8227 0.72798 0.0
C100 C 0.04107 0.46735 0.69564 0.0
O101 O 0.04469 0.4989 0.66423 0.0
C102 C 0.40282 0.54447 0.84122 0.0
O103 O 0.44232 0.61438 0.83192 0.0
C104 C 0.51764 0.85158 0.92933 0.0
C105 C 0.53508 0.87802 0.893 0.0
C106 C 0.52541 0.90013 0.95899 0.0
C107 C 0.55245 0.9755 0.95261 0.0
C108 C 0.584 0.00423 0.91824 0.0
C109 C 0.57545 0.95552 0.88838 0.0
C110 C 0.53614 0.02086 0.9785 0.0
C111 C 0.46883 0.99289 0.99197 0.0
C112 C 0.4488 0.03725 0.01641 0.0
C113 C 0.40194 0.00302 0.04621 0.0
C114 C 0.39542 0.04656 0.07457 0.0
C115 C 0.43577 0.12477 0.0732 0.0
H116 H 0.51251 0.14101 0.9881 0.0
C117 C 0.47205 0.15734 0.04005 0.0
C118 C 0.47934 0.1139 0.01201 0.0
H119 H 0.50201 0.21728 0.0375 0.0
H120 H 0.48894 0.79239 0.93412 0.0
H121 H 0.50362 0.87753 0.98593 0.0
H122 H 0.60713 0.0628 0.91322 0.0
H123 H 0.59182 0.97793 0.86091 0.0
H124 H 0.57738 0.07918 0.98355 0.0
H125 H 0.42796 0.93453 0.98642 0.0
H126 H 0.37577 0.94344 0.04936 0.0
H127 H 0.36547 0.0195 0.09932 0.0
C128 C 0.48319 0.62247 0.55712 0.0
C129 C 0.474 0.60072 0.59425 0.0
C130 C 0.49848 0.5841 0.52936 0.0
C131 C 0.50481 0.52325 0.53836 0.0
C132 C 0.50017 0.50494 0.57584 0.0
C133 C 0.48469 0.54299 0.60347 0.0
C134 C 0.51305 0.47508 0.50984 0.0
C135 C 0.49551 0.47011 0.4736 0.0
C136 C 0.49488 0.41351 0.44742 0.0
C137 C 0.51318 0.4305 0.40999 0.0
C138 C 0.51305 0.37784 0.3849 0.0
C139 C 0.49336 0.30698 0.39676 0.0
H140 H 0.45616 0.3259 0.48733 0.0
C141 C 0.47224 0.28885 0.43377 0.0
C142 C 0.47327 0.34173 0.45898 0.0
H143 H 0.45612 0.23419 0.44338 0.0
H144 H 0.47635 0.66755 0.54926 0.0
H145 H 0.50434 0.60196 0.50106 0.0
H146 H 0.50586 0.45909 0.58367 0.0
H147 H 0.47925 0.52579 0.63197 0.0
H148 H 0.52981 0.43825 0.51973 0.0
H149 H 0.48015 0.50705 0.46254 0.0
H150 H 0.52847 0.48485 0.40027 0.0
H151 H 0.52761 0.39228 0.35617 0.0
C152 C 0.80068 0.45253 0.06747 0.0
C153 C 0.80298 0.42435 0.10188 0.0
C154 C 0.85952 0.48131 0.04343 0.0
C155 C 0.92235 0.48162 0.05272 0.0
C156 C 0.92626 0.45686 0.08797 0.0
C157 C 0.86707 0.42838 0.11238 0.0
C158 C -0.01573 0.50851 0.02623 0.0
C159 C 0.97507 0.50468 0.98881 0.0
C160 C 0.03376 0.53398 0.96037 0.0
C161 C 0.01548 0.53826 0.92354 0.0
C162 C 0.06764 0.5659 0.89556 0.0
C163 C 0.13977 0.58954 0.9035 0.0
H164 H 0.12266 0.55397 -0.00391 0.0
C165 C 0.1583 0.58443 0.94021 0.0
C166 C 0.106 0.55712 0.96838 0.0
H167 H 0.21343 0.60212 0.9473 0.0
H168 H 0.7528 0.45191 0.0588 0.0
H169 H 0.85525 0.5034 0.01759 0.0
H170 H 0.97446 0.45776 0.09624 0.0
H171 H 0.87066 0.40751 0.13881 0.0
H172 H 0.03765 0.53087 0.03806 0.0
H173 H 0.92056 0.47906 0.97783 0.0
H174 H 0.96042 0.52073 0.91632 0.0
H175 H 0.05126 0.56881 0.86766 0.0
C176 C 0.38011 0.93862 0.58011 0.0
C177 C 0.39648 0.88801 0.59456 0.0
C178 C 0.41965 0.98267 0.55024 0.0
C179 C 0.47694 0.97758 0.53461 0.0
C180 C 0.49388 0.92799 0.54958 0.0
C181 C 0.45377 0.88322 0.5789 0.0
C182 C 0.52245 0.02531 0.50398 0.0
C183 C 0.49791 0.04995 0.47729 0.0
C184 C 0.54447 0.09586 0.44637 0.0
C185 C 0.51366 0.08887 0.4112 0.0
C186 C 0.55648 0.13072 0.38156 0.0
C187 C 0.63079 0.18203 0.38673 0.0
H188 H 0.64413 0.15566 0.47853 0.0
C189 C 0.66136 0.18987 0.42212 0.0
C190 C 0.61881 0.1473 0.45157 0.0
H191 H 0.71833 0.22912 0.42719 0.0
H192 H 0.33643 0.94375 0.59166 0.0
H193 H 0.4062 0.02159 0.53997 0.0
H194 H 0.5381 0.92339 0.53834 0.0
H195 H 0.46815 0.84522 0.58953 0.0
H196 H 0.57734 0.0368 0.50218 0.0
H197 H 0.44115 0.03239 0.4767 0.0
H198 H 0.4565 0.05 0.40645 0.0
H199 H 0.53133 0.12273 0.35457 0.0
C200 C 0.52016 0.40718 0.08692 0.0
C201 C 0.55627 0.46534 0.11382 0.0
C202 C 0.50624 0.42176 0.0513 0.0
C203 C 0.52851 0.49509 0.04209 0.0
C204 C 0.56793 0.55347 0.06844 0.0
C205 C 0.58098 0.53873 0.10403 0.0
C206 C 0.51139 0.51336 0.00565 0.0
C207 C 0.45192 0.4662 0.98529 0.0
C208 C 0.43411 0.48695 0.9497 0.0
C209 C 0.39346 0.43087 0.92248 0.0
C210 C 0.38001 0.44902 0.88773 0.0
C211 C 0.40662 0.52378 0.87964 0.0
H212 H 0.48516 0.60569 0.9633 0.0
C213 C 0.4433 0.5794 0.90772 0.0
C214 C 0.4567 0.56123 0.94243 0.0
H215 H 0.46342 0.63739 0.90261 0.0
H216 H 0.49923 0.35016 0.09398 0.0
H217 H 0.47743 0.37553 0.03135 0.0
H218 H 0.58638 0.61051 0.06197 0.0
H219 H 0.60886 0.58473 0.12428 0.0
H220 H 0.54792 0.5693 -0.00373 0.0
H221 H 0.41551 0.41002 -0.00557 0.0
H222 H 0.37425 0.37308 0.92759 0.0
H223 H 0.35119 0.40472 0.86678 0.0
C224 C 0.82171 0.44983 0.43517 0.0
C225 C 0.83914 0.49954 0.40629 0.0
C226 C 0.87495 0.45797 0.45943 0.0
C227 C 0.94704 0.51586 0.45523 0.0
C228 C 0.96402 0.56739 0.42742 0.0
C229 C 0.91068 0.55921 0.40303 0.0
C230 C 0.00549 0.52534 0.47986 0.0
C231 C 0.0027 0.46912 0.49801 0.0
C232 C 0.0608 0.48177 0.52382 0.0
C233 C 0.04322 0.43923 0.55569 0.0
C234 C 0.09576 0.45687 0.58289 0.0
C235 C 0.16652 0.51731 0.57842 0.0
H236 H 0.14913 0.56902 0.49275 0.0
C237 C 0.18516 0.55549 0.545 0.0
C238 C 0.13298 0.53768 0.51789 0.0
H239 H 0.23977 0.60099 0.54022 0.0
H240 H 0.76696 0.40365 0.43878 0.0
H241 H 0.85905 0.41897 0.48148 0.0
H242 H 0.01905 0.61319 0.42401 0.0
H243 H 0.92587 0.5986 0.38117 0.0
H244 H 0.05278 0.58118 0.48289 0.0
H245 H 0.95553 0.41322 0.49557 0.0
H246 H -0.01189 0.39478 0.56043 0.0
H247 H 0.08015 0.42567 0.60809 0.0
C248 C 0.53066 0.97227 0.23457 0.0
C249 C 0.57544 0.04709 0.2468 0.0
C250 C 0.5482 0.91919 0.24264 0.0
C251 C 0.61124 0.93987 0.26303 0.0
C252 C 0.65428 0.01398 0.27659 0.0
C253 C 0.63686 0.06715 0.26842 0.0
C254 C 0.63327 0.88565 0.27094 0.0
C255 C 0.61582 0.82557 0.24839 0.0
C256 C 0.63701 0.7702 0.25526 0.0
C257 C 0.5996 0.70072 0.23598 0.0
C258 C 0.6173 0.64677 0.24117 0.0
C259 C 0.67284 0.6606 0.2658 0.0
H260 H 0.72592 0.8385 0.29395 0.0
C261 C 0.71146 0.73073 0.28461 0.0
C262 C 0.69393 0.78503 0.27939 0.0
H263 H 0.7553 0.7438 0.30349 0.0
H264 H 0.48252 0.95478 0.2182 0.0
H265 H 0.51199 0.86209 0.23295 0.0
H266 H 0.7026 0.03127 0.29277 0.0
H267 H 0.67242 0.12423 0.27842 0.0
H268 H 0.66636 0.89732 0.29556 0.0
H269 H 0.58367 0.81548 0.22353 0.0
H270 H 0.5561 0.68781 0.21687 0.0
H271 H 0.58748 0.59447 0.22566 0.0
C272 C 0.06287 0.80187 0.73444 0.0
C273 C 0.08817 0.76478 0.755 0.0
C274 C -0.00475 0.7915 0.74224 0.0
C275 C 0.95328 0.74486 0.77089 0.0
C276 C -0.01615 0.7188 0.79535 0.0
C277 C 0.05118 0.72849 0.78735 0.0
C278 C 0.87449 0.70968 0.77008 0.0
C279 C 0.83836 0.67387 0.73849 0.0
C280 C 0.75953 0.63632 0.73472 0.0
C281 C 0.73094 0.63733 0.70022 0.0
C282 C 0.65805 0.61275 0.69692 0.0
C283 C 0.6127 0.58517 0.7279 0.0
H284 H 0.73337 0.59828 0.79134 0.0
C285 C 0.63958 0.57647 0.76132 0.0
C286 C 0.71295 0.60245 0.76483 0.0
H287 H 0.60525 0.5551 0.78552 0.0
H288 H 0.09097 0.83146 0.70981 0.0
H289 H 0.97268 0.81342 0.7236 0.0
H290 H 0.95243 0.68368 0.81793 0.0
H291 H 0.07067 0.70108 0.80427 0.0
H292 H 0.84645 0.70808 0.79569 0.0
H293 H 0.86837 0.67581 0.71352 0.0
H294 H 0.76584 0.6617 0.67646 0.0
H295 H 0.63796 0.61919 0.67079 0.0
C296 C 0.32942 0.02832 0.27562 0.0
C297 C 0.33036 0.09279 0.28848 0.0
C298 C 0.26573 0.95837 0.2767 0.0
C299 C 0.20136 0.95147 0.29045 0.0
C300 C 0.2033 0.01547 0.30487 0.0
C301 C 0.2669 0.08537 0.30377 0.0
C302 C 0.13128 0.87884 0.28947 0.0
C303 C 0.11567 0.82561 0.26273 0.0
C304 C 0.04548 0.75354 0.25826 0.0
C305 C 0.03453 0.7113 0.22508 0.0
C306 C 0.97214 0.64172 0.21944 0.0
C307 C 0.91842 0.61172 0.2469 0.0
H308 H -0.00263 0.75486 0.31184 0.0
C309 C 0.9278 0.65438 0.27988 0.0
C310 C -0.009 0.7247 0.28564 0.0
H311 H 0.88766 0.63261 0.30163 0.0
H312 H 0.37758 0.03187 0.2642 0.0
H313 H 0.26723 0.90998 0.26667 0.0
H314 H 0.15488 0.01176 0.31602 0.0
H315 H 0.26583 0.1338 0.31427 0.0
H316 H 0.09035 0.8721 0.30938 0.0
H317 H 0.15582 0.83657 0.24143 0.0
H318 H 0.07502 0.73173 0.20339 0.0
H319 H 0.96677 0.61077 0.19355 0.0
C320 C 0.33764 0.34715 0.70489 0.0
C321 C 0.27158 0.3415 0.71373 0.0
C322 C 0.34678 0.28657 0.70952 0.0
C323 C 0.29003 0.21918 0.7233 0.0
C324 C 0.22495 0.21465 0.73295 0.0
C325 C 0.21562 0.2746 0.72801 0.0
C326 C 0.29644 0.15304 0.72933 0.0
C327 C 0.34208 0.13782 0.71058 0.0
C328 C 0.34712 0.07063 0.71664 0.0
C329 C 0.40946 0.07102 0.70481 0.0
C330 C 0.41792 0.0108 0.71142 0.0
C331 C 0.36355 0.94815 0.72933 0.0
H332 H 0.24214 1.00236 0.74267 0.0
C333 C 0.30067 0.94667 0.7405 0.0
C334 C 0.29198 0.00666 0.73388 0.0
H335 H 0.25943 0.90044 0.75581 0.0
H336 H 0.38201 0.39804 0.69401 0.0
H337 H 0.39852 0.29323 0.70276 0.0
H338 H 0.18051 0.16393 0.74395 0.0
H339 H 0.16412 0.2682 0.7353 0.0
H340 H 0.26022 0.11468 0.74973 0.0
H341 H 0.37832 0.17652 0.69024 0.0
H342 H 0.45272 0.11897 0.69128 0.0
H343 H 0.46757 0.01374 0.70317 0.0
C344 C 0.32609 0.42505 0.32066 0.0
C345 C 0.38098 0.47049 0.29579 0.0
C346 C 0.25716 0.4134 0.31687 0.0
C347 C 0.24284 0.44804 0.28859 0.0
C348 C 0.30033 0.50311 0.26829 0.0
C349 C 0.36924 0.51427 0.27178 0.0
C350 C 0.16839 0.42122 0.27644 0.0
C351 C 0.11732 0.34806 0.27485 0.0
C352 C 0.04513 0.32041 0.25893 0.0
C353 C -0.01583 0.26374 0.27651 0.0
C354 C 0.91538 0.24684 0.2662 0.0
C355 C 0.90703 0.28606 0.23789 0.0
H356 H 0.08253 0.39388 0.2124 0.0
C357 C 0.96755 0.33509 0.21694 0.0
C358 C 0.03623 0.35253 0.22756 0.0
H359 H 0.96295 0.3653 0.19454 0.0
H360 H 0.33395 0.39225 0.34034 0.0
H361 H 0.21414 0.37329 0.33417 0.0
H362 H 0.29061 0.53201 0.24707 0.0
H363 H 0.41096 0.55122 0.25289 0.0
H364 H 0.15748 0.46137 0.26498 0.0
H365 H 0.12778 0.30752 0.28618 0.0
H366 H -0.01 0.23675 0.30008 0.0
H367 H 0.86955 0.20771 0.28244 0.0
C368 C 0.93699 0.34334 0.67206 0.0
C369 C -0.01989 0.38981 0.70205 0.0
C370 C 0.87713 0.27192 0.678 0.0
C371 C 0.85782 0.24496 0.71433 0.0
C372 C 0.90194 0.2912 0.7442 0.0
C373 C 0.9622 0.36243 0.73819 0.0
C374 C 0.79391 0.16896 0.72236 0.0
C375 C 0.74152 0.12406 0.69727 0.0
C376 C 0.68077 0.04618 0.70416 0.0
C377 C 0.65011 0.99592 0.67334 0.0
C378 C 0.59561 0.92158 0.67796 0.0
C379 C 0.56865 0.89528 0.71353 0.0
H380 H 0.67294 0.05809 0.7642 0.0
C381 C 0.59644 0.94617 0.74437 0.0
C382 C 0.65226 0.02078 0.73981 0.0
H383 H 0.57729 0.92764 0.77217 0.0
H384 H 0.94949 0.36214 0.64379 0.0
H385 H 0.84699 0.23846 0.65378 0.0
H386 H 0.8894 0.27244 0.77248 0.0
H387 H -0.00609 0.39661 0.76202 0.0
H388 H 0.79081 0.14905 0.75015 0.0
H389 H 0.74426 0.14295 0.66936 0.0
H390 H 0.67 0.01362 0.64548 0.0
H391 H 0.57546 0.88409 0.65356 0.0
loop_
_geom_bond_atom_site_label_1
_geom_bond_atom_site_label_2
_geom_bond_distance
_geom_bond_site_symmetry_2
_ccdc_geom_bond_type
Zn0 O2 1.933 . S
Zn0 O20 1.985 . S
Zn0 O31 1.955 . S
Zn1 O2 1.911 . S
Zn1 O21 1.970 . S
Zn1 O37 1.945 . S
Zn1 O44 1.981 . S
O2 Zn0 1.933 . S
O2 Zn1 1.911 . S
O2 H3 0.841 . S
H3 O2 0.841 . S
C4 O5 1.246 . S
C4 O33 1.276 . S
O5 C4 1.246 . S
Zn6 O8 1.911 . S
Zn6 O23 1.970 . S
Zn6 O40 1.945 . S
Zn6 O47 1.981 . S
Zn7 O8 1.933 . S
Zn7 O22 1.985 . S
Zn7 O29 1.955 . S
O8 Zn6 1.911 . S
O8 Zn7 1.933 . S
O8 H9 0.841 . S
H9 O8 0.841 . S
Zn10 O11 1.933 . S
Zn10 O24 1.985 . S
Zn10 O33 1.955 . S
O11 Zn10 1.933 . S
O11 Zn12 1.911 . S
O11 H13 0.841 . S
Zn12 O11 1.911 . S
Zn12 O25 1.970 . S
Zn12 O41 1.981 . S
Zn12 O43 1.945 . S
H13 O11 0.841 . S
Zn14 O15 1.933 . S
Zn14 O27 1.985 . S
Zn14 O35 1.955 . S
O15 Zn14 1.933 . S
O15 H16 0.841 . S
O15 Zn17 1.911 . S
H16 O15 0.841 . S
Zn17 O15 1.911 . S
Zn17 O28 1.970 . S
Zn17 O38 1.981 . S
Zn17 O46 1.945 . S
C18 O19 1.246 . S
C18 O35 1.276 . S
O19 C18 1.246 . S
O20 Zn0 1.985 . S
O20 C30 1.245 . S
O21 Zn1 1.970 . S
O21 C30 1.263 . S
O22 Zn7 1.985 . S
O22 C34 1.245 . S
O23 Zn6 1.970 . S
O23 C34 1.263 . S
O24 Zn10 1.985 . S
O24 C39 1.245 . S
O25 Zn12 1.970 . S
O25 C39 1.263 . S
C26 O37 1.262 . S
C26 O38 1.245 . S
O27 Zn14 1.985 . S
O27 C45 1.245 . S
O28 Zn17 1.970 . S
O28 C45 1.263 . S
O29 Zn7 1.955 . S
O29 C48 1.276 . S
C30 O20 1.245 . S
C30 O21 1.263 . S
O31 Zn0 1.955 . S
O31 C50 1.276 . S
C32 O40 1.262 . S
C32 O41 1.245 . S
O33 C4 1.276 . S
O33 Zn10 1.955 . S
C34 O22 1.245 . S
C34 O23 1.263 . S
O35 Zn14 1.955 . S
O35 C18 1.276 . S
C36 O43 1.262 . S
C36 O44 1.245 . S
O37 Zn1 1.945 . S
O37 C26 1.262 . S
O38 Zn17 1.981 . S
O38 C26 1.245 . S
C39 O24 1.245 . S
C39 O25 1.263 . S
O40 Zn6 1.945 . S
O40 C32 1.262 . S
O41 Zn12 1.981 . S
O41 C32 1.245 . S
C42 O46 1.262 . S
C42 O47 1.245 . S
O43 Zn12 1.945 . S
O43 C36 1.262 . S
O44 Zn1 1.981 . S
O44 C36 1.245 . S
C45 O27 1.245 . S
C45 O28 1.263 . S
O46 Zn17 1.945 . S
O46 C42 1.262 . S
O47 Zn6 1.981 . S
O47 C42 1.245 . S
C48 O29 1.276 . S
C48 O49 1.246 . S
O49 C48 1.246 . S
C50 O31 1.276 . S
C50 O51 1.246 . S
O51 C50 1.246 . S
Zn52 O54 1.933 . S
Zn52 O72 1.985 . S
Zn52 O83 1.955 . S
Zn53 O54 1.911 . S
Zn53 O73 1.970 . S
Zn53 O89 1.945 . S
Zn53 O96 1.981 . S
O54 Zn52 1.933 . S
O54 Zn53 1.911 . S
O54 H55 0.841 . S
H55 O54 0.841 . S
C56 O57 1.246 . S
C56 O85 1.276 . S
O57 C56 1.246 . S
Zn58 O60 1.911 . S
Zn58 O75 1.970 . S
Zn58 O92 1.945 . S
Zn58 O99 1.981 . S
Zn59 O60 1.933 . S
Zn59 O74 1.985 . S
Zn59 O81 1.955 . S
O60 Zn58 1.911 . S
O60 Zn59 1.933 . S
O60 H61 0.841 . S
H61 O60 0.841 . S
Zn62 O63 1.933 . S
Zn62 O76 1.985 . S
Zn62 O85 1.955 . S
O63 Zn62 1.933 . S
O63 Zn64 1.911 . S
O63 H65 0.841 . S
Zn64 O63 1.911 . S
Zn64 O77 1.970 . S
Zn64 O93 1.981 . S
Zn64 O95 1.945 . S
H65 O63 0.841 . S
Zn66 O67 1.933 . S
Zn66 O79 1.985 . S
Zn66 O87 1.955 . S
O67 Zn66 1.933 . S
O67 H68 0.841 . S
O67 Zn69 1.911 . S
H68 O67 0.841 . S
Zn69 O67 1.911 . S
Zn69 O80 1.970 . S
Zn69 O90 1.981 . S
Zn69 O98 1.945 . S
C70 O71 1.246 . S
C70 O87 1.276 . S
O71 C70 1.246 . S
O72 Zn52 1.985 . S
O72 C82 1.245 . S
O73 Zn53 1.970 . S
O73 C82 1.263 . S
O74 Zn59 1.985 . S
O74 C86 1.245 . S
O75 Zn58 1.970 . S
O75 C86 1.263 . S
O76 Zn62 1.985 . S
O76 C91 1.245 . S
O77 Zn64 1.970 . S
O77 C91 1.263 . S
C78 O89 1.262 . S
C78 O90 1.245 . S
O79 Zn66 1.985 . S
O79 C97 1.245 . S
O80 Zn69 1.970 . S
O80 C97 1.263 . S
O81 Zn59 1.955 . S
O81 C100 1.276 . S
C82 O72 1.245 . S
C82 O73 1.263 . S
O83 Zn52 1.955 . S
O83 C102 1.276 . S
C84 O92 1.262 . S
C84 O93 1.245 . S
O85 C56 1.276 . S
O85 Zn62 1.955 . S
C86 O74 1.245 . S
C86 O75 1.263 . S
O87 Zn66 1.955 . S
O87 C70 1.276 . S
C88 O95 1.262 . S
C88 O96 1.245 . S
O89 Zn53 1.945 . S
O89 C78 1.262 . S
O90 Zn69 1.981 . S
O90 C78 1.245 . S
C91 O76 1.245 . S
C91 O77 1.263 . S
O92 Zn58 1.945 . S
O92 C84 1.262 . S
O93 Zn64 1.981 . S
O93 C84 1.245 . S
C94 O98 1.262 . S
C94 O99 1.245 . S
O95 Zn64 1.945 . S
O95 C88 1.262 . S
O96 Zn53 1.981 . S
O96 C88 1.245 . S
C97 O79 1.245 . S
C97 O80 1.263 . S
O98 Zn69 1.945 . S
O98 C94 1.262 . S
O99 Zn58 1.981 . S
O99 C94 1.245 . S
C100 O81 1.276 . S
C100 O101 1.246 . S
O101 C100 1.246 . S
C102 O83 1.276 . S
C102 O103 1.246 . S
O103 C102 1.246 . S
C104 C105 1.386 . S
C104 C106 1.383 . S
C104 H120 0.951 . S
C105 C104 1.386 . S
C105 C109 1.383 . S
C106 C104 1.383 . S
C106 C107 1.402 . S
C106 H121 0.951 . S
C107 C106 1.402 . S
C107 C108 1.375 . S
C107 C110 1.481 1_565 S
C108 C107 1.375 . S
C108 C109 1.367 . S
C108 H122 0.951 . S
C109 C105 1.383 . S
C109 C108 1.367 . S
C109 H123 0.950 . S
C110 C107 1.481 1_545 S
C110 C111 1.297 1_556 S
C110 H124 0.950 . S
C111 C110 1.297 1_554 S
C111 C112 1.479 . S
C111 H125 0.950 . S
C112 C111 1.479 . S
C112 C113 1.375 . S
C112 C118 1.404 . S
C113 C112 1.375 . S
C113 C114 1.369 . S
C113 H126 0.950 . S
C114 C113 1.369 . S
C114 C115 1.392 . S
C114 H127 0.951 . S
C115 C114 1.392 . S
C115 C117 1.384 . S
H116 C118 0.949 . S
C117 C115 1.384 . S
C117 C118 1.385 . S
C117 H119 0.950 . S
C118 C112 1.404 . S
C118 H116 0.949 . S
C118 C117 1.385 . S
H119 C117 0.950 . S
H120 C104 0.951 . S
H121 C106 0.951 . S
H122 C108 0.951 . S
H123 C109 0.950 . S
H124 C110 0.950 . S
H125 C111 0.950 . S
H126 C113 0.950 . S
H127 C114 0.951 . S
C128 C129 1.386 . S
C128 C130 1.383 . S
C128 H144 0.951 . S
C129 C128 1.386 . S
C129 C133 1.383 . S
C130 C128 1.383 . S
C130 C131 1.402 . S
C130 H145 0.951 . S
C131 C130 1.402 . S
C131 C132 1.375 . S
C131 C134 1.481 . S
C132 C131 1.375 . S
C132 C133 1.367 . S
C132 H146 0.951 . S
C133 C129 1.383 . S
C133 C132 1.367 . S
C133 H147 0.950 . S
C134 C131 1.481 . S
C134 C135 1.297 . S
C134 H148 0.950 . S
C135 C134 1.297 . S
C135 C136 1.479 . S
C135 H149 0.950 . S
C136 C135 1.479 . S
C136 C137 1.375 . S
C136 C142 1.404 . S
C137 C136 1.375 . S
C137 C138 1.369 . S
C137 H150 0.950 . S
C138 C137 1.369 . S
C138 C139 1.392 . S
C138 H151 0.951 . S
C139 C138 1.392 . S
C139 C141 1.384 . S
H140 C142 0.949 . S
C141 C139 1.384 . S
C141 C142 1.385 . S
C141 H143 0.950 . S
C142 C136 1.404 . S
C142 H140 0.949 . S
C142 C141 1.385 . S
H143 C141 0.950 . S
H144 C128 0.951 . S
H145 C130 0.951 . S
H146 C132 0.951 . S
H147 C133 0.950 . S
H148 C134 0.950 . S
H149 C135 0.950 . S
H150 C137 0.950 . S
H151 C138 0.951 . S
C152 C153 1.386 . S
C152 C154 1.383 . S
C152 H168 0.951 . S
C153 C152 1.386 . S
C153 C157 1.383 . S
C154 C152 1.383 . S
C154 C155 1.402 . S
C154 H169 0.951 . S
C155 C154 1.402 . S
C155 C156 1.375 . S
C155 C158 1.481 1_655 S
C156 C155 1.375 . S
C156 C157 1.367 . S
C156 H170 0.951 1_655 S
C157 C153 1.383 . S
C157 C156 1.367 . S
C157 H171 0.950 . S
C158 C155 1.481 1_455 S
C158 C159 1.297 1_454 S
C158 H172 0.950 . S
C159 C158 1.297 1_656 S
C159 C160 1.479 1_655 S
C159 H173 0.950 . S
C160 C159 1.479 1_455 S
C160 C161 1.375 . S
C160 C166 1.404 . S
C161 C160 1.375 . S
C161 C162 1.369 . S
C161 H174 0.950 1_455 S
C162 C161 1.369 . S
C162 C163 1.392 . S
C162 H175 0.951 . S
C163 C162 1.392 . S
C163 C165 1.384 . S
H164 C166 0.949 . S
C165 C163 1.384 . S
C165 C166 1.385 . S
C165 H167 0.950 . S
C166 C160 1.404 . S
C166 H164 0.949 . S
C166 C165 1.385 . S
H167 C165 0.950 . S
H168 C152 0.951 . S
H169 C154 0.951 . S
H170 C156 0.951 1_455 S
H171 C157 0.950 . S
H172 C158 0.950 . S
H173 C159 0.950 . S
H174 C161 0.950 1_655 S
H175 C162 0.951 . S
C176 C177 1.386 . S
C176 C178 1.383 . S
C176 H192 0.951 . S
C177 C176 1.386 . S
C177 C181 1.383 . S
C178 C176 1.383 . S
C178 C179 1.402 . S
C178 H193 0.951 . S
C179 C178 1.402 . S
C179 C180 1.375 . S
C179 C182 1.481 1_565 S
C180 C179 1.375 . S
C180 C181 1.367 . S
C180 H194 0.951 . S
C181 C177 1.383 . S
C181 C180 1.367 . S
C181 H195 0.950 . S
C182 C179 1.481 1_545 S
C182 C183 1.297 . S
C182 H196 0.950 . S
C183 C182 1.297 . S
C183 C184 1.479 . S
C183 H197 0.950 1_545 S
C184 C183 1.479 . S
C184 C185 1.375 . S
C184 C190 1.404 . S
C185 C184 1.375 . S
C185 C186 1.369 . S
C185 H198 0.950 . S
C186 C185 1.369 . S
C186 C187 1.392 . S
C186 H199 0.951 . S
C187 C186 1.392 . S
C187 C189 1.384 . S
H188 C190 0.949 . S
C189 C187 1.384 . S
C189 C190 1.385 . S
C189 H191 0.950 . S
C190 C184 1.404 . S
C190 H188 0.949 . S
C190 C189 1.385 . S
H191 C189 0.950 . S
H192 C176 0.951 . S
H193 C178 0.951 . S
H194 C180 0.951 . S
H195 C181 0.950 . S
H196 C182 0.950 . S
H197 C183 0.950 1_565 S
H198 C185 0.950 . S
H199 C186 0.951 . S
C200 C201 1.386 . S
C200 C202 1.383 . S
C200 H216 0.951 . S
C201 C200 1.386 . S
C201 C205 1.383 . S
C202 C200 1.383 . S
C202 C203 1.402 . S
C202 H217 0.951 . S
C203 C202 1.402 . S
C203 C204 1.375 . S
C203 C206 1.481 . S
C204 C203 1.375 . S
C204 C205 1.367 . S
C204 H218 0.951 . S
C205 C201 1.383 . S
C205 C204 1.367 . S
C205 H219 0.950 . S
C206 C203 1.481 . S
C206 C207 1.297 1_554 S
C206 H220 0.950 . S
C207 C206 1.297 1_556 S
C207 C208 1.479 . S
C207 H221 0.950 . S
C208 C207 1.479 . S
C208 C209 1.375 . S
C208 C214 1.404 . S
C209 C208 1.375 . S
C209 C210 1.369 . S
C209 H222 0.950 . S
C210 C209 1.369 . S
C210 C211 1.392 . S
C210 H223 0.951 . S
C211 C210 1.392 . S
C211 C213 1.384 . S
H212 C214 0.949 . S
C213 C211 1.384 . S
C213 C214 1.385 . S
C213 H215 0.950 . S
C214 C208 1.404 . S
C214 H212 0.949 . S
C214 C213 1.385 . S
H215 C213 0.950 . S
H216 C200 0.951 . S
H217 C202 0.951 . S
H218 C204 0.951 . S
H219 C205 0.950 . S
H220 C206 0.950 . S
H221 C207 0.950 . S
H222 C209 0.950 . S
H223 C210 0.951 . S
C224 C225 1.386 . S
C224 C226 1.383 . S
C224 H240 0.951 . S
C225 C224 1.386 . S
C225 C229 1.383 . S
C226 C224 1.383 . S
C226 C227 1.402 . S
C226 H241 0.951 . S
C227 C226 1.402 . S
C227 C228 1.375 . S
C227 C230 1.481 1_655 S
C228 C227 1.375 . S
C228 C229 1.367 . S
C228 H242 0.951 . S
C229 C225 1.383 . S
C229 C228 1.367 . S
C229 H243 0.950 . S
C230 C227 1.481 1_455 S
C230 C231 1.297 . S
C230 H244 0.950 . S
C231 C230 1.297 . S
C231 C232 1.479 . S
C231 H245 0.950 . S
C232 C231 1.479 . S
C232 C233 1.375 . S
C232 C238 1.404 . S
C233 C232 1.375 . S
C233 C234 1.369 . S
C233 H246 0.950 . S
C234 C233 1.369 . S
C234 C235 1.392 . S
C234 H247 0.951 . S
C235 C234 1.392 . S
C235 C237 1.384 . S
H236 C238 0.949 . S
C237 C235 1.384 . S
C237 C238 1.385 . S
C237 H239 0.950 . S
C238 C232 1.404 . S
C238 H236 0.949 . S
C238 C237 1.385 . S
H239 C237 0.950 . S
H240 C224 0.951 . S
H241 C226 0.951 . S
H242 C228 0.951 . S
H243 C229 0.950 . S
H244 C230 0.950 . S
H245 C231 0.950 . S
H246 C233 0.950 . S
H247 C234 0.951 . S
C248 C249 1.386 1_565 S
C248 C250 1.383 . S
C248 H264 0.951 . S
C249 C248 1.386 1_545 S
C249 C253 1.383 . S
C250 C248 1.383 . S
C250 C251 1.402 . S
C250 H265 0.951 . S
C251 C250 1.402 . S
C251 C252 1.366 1_565 S
C251 C254 1.481 . S
C252 C251 1.366 1_545 S
C252 C253 1.382 . S
C252 H266 0.945 . S
C253 C249 1.383 . S
C253 C252 1.382 . S
C253 H267 0.950 . S
C254 C251 1.481 . S
C254 C255 1.297 . S
C254 H268 0.950 . S
C255 C254 1.297 . S
C255 C256 1.479 . S
C255 H269 0.950 . S
C256 C255 1.479 . S
C256 C257 1.375 . S
C256 C262 1.404 . S
C257 C256 1.375 . S
C257 C258 1.369 . S
C257 H270 0.950 . S
C258 C257 1.369 . S
C258 C259 1.392 . S
C258 H271 0.951 . S
C259 C258 1.392 . S
C259 C261 1.384 . S
H260 C262 0.949 . S
C261 C259 1.384 . S
C261 C262 1.385 . S
C261 H263 0.950 . S
C262 C256 1.404 . S
C262 H260 0.949 . S
C262 C261 1.385 . S
H263 C261 0.950 . S
H264 C248 0.951 . S
H265 C250 0.951 . S
H266 C252 0.945 . S
H267 C253 0.950 . S
H268 C254 0.950 . S
H269 C255 0.950 . S
H270 C257 0.950 . S
H271 C258 0.951 . S
C272 C273 1.386 . S
C272 C274 1.383 1_455 S
C272 H288 0.951 . S
C273 C272 1.386 . S
C273 C277 1.383 . S
C274 C272 1.383 1_655 S
C274 C275 1.402 . S
C274 H289 0.951 . S
C275 C274 1.402 . S
C275 C276 1.375 . S
C275 C278 1.481 . S
C276 C275 1.375 . S
C276 C277 1.367 1_655 S
C276 H290 0.951 . S
C277 C273 1.383 . S
C277 C276 1.367 1_455 S
C277 H291 0.950 . S
C278 C275 1.481 . S
C278 C279 1.297 . S
C278 H292 0.950 . S
C279 C278 1.297 . S
C279 C280 1.479 . S
C279 H293 0.950 . S
C280 C279 1.479 . S
C280 C281 1.375 . S
C280 C286 1.404 . S
C281 C280 1.375 . S
C281 C282 1.369 . S
C281 H294 0.950 . S
C282 C281 1.369 . S
C282 C283 1.392 . S
C282 H295 0.951 . S
C283 C282 1.392 . S
C283 C285 1.384 . S
H284 C286 0.949 . S
C285 C283 1.384 . S
C285 C286 1.385 . S
C285 H287 0.950 . S
C286 C280 1.404 . S
C286 H284 0.949 . S
C286 C285 1.385 . S
H287 C285 0.950 . S
H288 C272 0.951 . S
H289 C274 0.951 . S
H290 C276 0.951 . S
H291 C277 0.950 . S
H292 C278 0.950 . S
H293 C279 0.950 . S
H294 C281 0.950 . S
H295 C282 0.951 . S
C296 C297 1.386 1_565 S
C296 C298 1.383 . S
C296 H312 0.951 1_565 S
C297 C296 1.386 1_545 S
C297 C301 1.383 . S
C298 C296 1.383 . S
C298 C299 1.402 . S
C298 H313 0.951 . S
C299 C298 1.402 . S
C299 C300 1.375 . S
C299 C302 1.481 . S
C300 C299 1.375 . S
C300 C301 1.367 1_565 S
C300 H314 0.951 . S
C301 C297 1.383 . S
C301 C300 1.367 1_545 S
C301 H315 0.950 . S
C302 C299 1.481 . S
C302 C303 1.297 . S
C302 H316 0.950 . S
C303 C302 1.297 . S
C303 C304 1.479 . S
C303 H317 0.950 . S
C304 C303 1.479 . S
C304 C305 1.375 . S
C304 C310 1.404 . S
C305 C304 1.375 . S
C305 C306 1.369 1_455 S
C305 H318 0.950 . S
C306 C305 1.369 1_655 S
C306 C307 1.392 . S
C306 H319 0.951 . S
C307 C306 1.392 . S
C307 C309 1.384 . S
H308 C310 0.949 . S
C309 C307 1.384 . S
C309 C310 1.385 1_655 S
C309 H311 0.950 . S
C310 C304 1.404 . S
C310 H308 0.949 . S
C310 C309 1.385 1_455 S
H311 C309 0.950 . S
H312 C296 0.951 1_545 S
H313 C298 0.951 . S
H314 C300 0.951 . S
H315 C301 0.950 . S
H316 C302 0.950 . S
H317 C303 0.950 . S
H318 C305 0.950 . S
H319 C306 0.951 . S
C320 C321 1.386 . S
C320 C322 1.383 . S
C320 H336 0.951 . S
C321 C320 1.386 . S
C321 C325 1.383 . S
C322 C320 1.383 . S
C322 C323 1.402 . S
C322 H337 0.951 . S
C323 C322 1.402 . S
C323 C324 1.375 . S
C323 C326 1.481 . S
C324 C323 1.375 . S
C324 C325 1.367 . S
C324 H338 0.951 . S
C325 C321 1.383 . S
C325 C324 1.367 . S
C325 H339 0.950 . S
C326 C323 1.481 . S
C326 C327 1.297 . S
C326 H340 0.950 . S
C327 C326 1.297 . S
C327 C328 1.479 . S
C327 H341 0.950 . S
C328 C327 1.479 . S
C328 C329 1.375 . S
C328 C334 1.404 . S
C329 C328 1.375 . S
C329 C330 1.369 . S
C329 H342 0.950 . S
C330 C329 1.369 . S
C330 C331 1.392 1_545 S
C330 H343 0.951 . S
C331 C330 1.392 1_565 S
C331 C333 1.384 . S
H332 C334 0.949 . S
C333 C331 1.384 . S
C333 C334 1.385 1_565 S
C333 H335 0.950 . S
C334 C328 1.404 . S
C334 H332 0.949 . S
C334 C333 1.385 1_545 S
H335 C333 0.950 . S
H336 C320 0.951 . S
H337 C322 0.951 . S
H338 C324 0.951 . S
H339 C325 0.950 . S
H340 C326 0.950 . S
H341 C327 0.950 . S
H342 C329 0.950 . S
H343 C330 0.951 . S
C344 C345 1.386 . S
C344 C346 1.383 . S
C344 H360 0.951 . S
C345 C344 1.386 . S
C345 C349 1.383 . S
C346 C344 1.383 . S
C346 C347 1.402 . S
C346 H361 0.951 . S
C347 C346 1.402 . S
C347 C348 1.375 . S
C347 C350 1.481 . S
C348 C347 1.375 . S
C348 C349 1.367 . S
C348 H362 0.951 . S
C349 C345 1.383 . S
C349 C348 1.367 . S
C349 H363 0.950 . S
C350 C347 1.481 . S
C350 C351 1.297 . S
C350 H364 0.950 . S
C351 C350 1.297 . S
C351 C352 1.479 . S
C351 H365 0.950 . S
C352 C351 1.479 . S
C352 C353 1.375 . S
C352 C358 1.404 . S
C353 C352 1.375 . S
C353 C354 1.369 1_455 S
C353 H366 0.950 . S
C354 C353 1.369 1_655 S
C354 C355 1.392 . S
C354 H367 0.951 . S
C355 C354 1.392 . S
C355 C357 1.384 . S
H356 C358 0.949 . S
C357 C355 1.384 . S
C357 C358 1.385 1_655 S
C357 H359 0.950 . S
C358 C352 1.404 . S
C358 H356 0.949 . S
C358 C357 1.385 1_455 S
H359 C357 0.950 . S
H360 C344 0.951 . S
H361 C346 0.951 . S
H362 C348 0.951 . S
H363 C349 0.950 . S
H364 C350 0.950 . S
H365 C351 0.950 . S
H366 C353 0.950 . S
H367 C354 0.951 . S
C368 C369 1.386 . S
C368 C370 1.383 1_455 S
C368 H384 0.951 . S
C369 C368 1.386 . S
C369 C373 1.383 . S
C370 C368 1.383 1_655 S
C370 C371 1.402 . S
C370 H385 0.951 . S
C371 C370 1.402 . S
C371 C372 1.375 . S
C371 C374 1.481 . S
C372 C371 1.375 . S
C372 C373 1.367 1_655 S
C372 H386 0.951 . S
C373 C369 1.383 . S
C373 C372 1.367 1_455 S
C373 H387 0.950 . S
C374 C371 1.481 . S
C374 C375 1.297 . S
C374 H388 0.950 . S
C375 C374 1.297 . S
C375 C376 1.479 . S
C375 H389 0.950 . S
C376 C375 1.479 . S
C376 C377 1.375 . S
C376 C382 1.404 . S
C377 C376 1.375 . S
C377 C378 1.369 1_545 S
C377 H390 0.950 . S
C378 C377 1.369 1_565 S
C378 C379 1.392 . S
C378 H391 0.951 . S
C379 C378 1.392 . S
C379 C381 1.384 . S
H380 C382 0.949 . S
C381 C379 1.384 . S
C381 C382 1.385 1_565 S
C381 H383 0.950 . S
C382 C376 1.404 . S
C382 H380 0.949 . S
C382 C381 1.385 1_545 S
H383 C381 0.950 . S
H384 C368 0.951 . S
H385 C370 0.951 . S
H386 C372 0.951 . S
H387 C373 0.950 . S
H388 C374 0.950 . S
H389 C375 0.950 . S
H390 C377 0.950 . S
H391 C378 0.951 . S
C105 C97 0.532 . S
C115 C39 0.515 . S
C129 C88 2.305 . S
C139 C18 2.238 . S
C153 C36 1.842 . S
C163 C70 1.774 . S
C177 C84 2.805 . S
C187 C50 2.810 . S
C201 C32 1.755 . S
C211 C102 1.791 . S
C225 C45 1.694 . S
C235 C91 1.674 . S
C249 C4 1.295 . S
C259 C42 1.345 . S
C273 C86 0.654 . S
C283 C82 0.792 . S
C297 C48 1.374 . S
C307 C26 1.312 . S
C321 C56 1.312 . S
C331 C94 1.226 . S
C345 C34 0.687 . S
C355 C30 0.528 . S
C369 C100 1.375 . S
C379 C78 1.312 . S
