# Generated by pormake.
# Topology vby, (6)-cn, num edge types: 1
# Building blocks:
#     Node 0, Type 0, BuildingBlock: BETDEL_clean_sbu_0, # of connection points: 6
#     Node 1, Type 0, BuildingBlock: BETDEL_clean_sbu_0, # of connection points: 6
#     Node 2, Type 0, BuildingBlock: BETDEL_clean_sbu_0, # of connection points: 6
#     Node 3, Type 0, BuildingBlock: BETDEL_clean_sbu_0, # of connection points: 6
#     Node 4, Type 0, BuildingBlock: BETDEL_clean_sbu_0, # of connection points: 6
#     Node 5, Type 0, BuildingBlock: BETDEL_clean_sbu_0, # of connection points: 6
#     Node 6, Type 0, BuildingBlock: BETDEL_clean_sbu_0, # of connection points: 6
#     Node 7, Type 0, BuildingBlock: BETDEL_clean_sbu_0, # of connection points: 6
#     Edge 8, Type (0, 0), BuildingBlock: EZIPEK_clean_linker_0, # of connection points: 2
#     Edge 9, Type (0, 0), BuildingBlock: EZIPEK_clean_linker_0, # of connection points: 2
#     Edge 10, Type (0, 0), BuildingBlock: EZIPEK_clean_linker_0, # of connection points: 2
#     Edge 11, Type (0, 0), BuildingBlock: EZIPEK_clean_linker_0, # of connection points: 2
#     Edge 12, Type (0, 0), BuildingBlock: EZIPEK_clean_linker_0, # of connection points: 2
#     Edge 13, Type (0, 0), BuildingBlock: EZIPEK_clean_linker_0, # of connection points: 2
#     Edge 14, Type (0, 0), BuildingBlock: EZIPEK_clean_linker_0, # of connection points: 2
#     Edge 15, Type (0, 0), BuildingBlock: EZIPEK_clean_linker_0, # of connection points: 2
#     Edge 16, Type (0, 0), BuildingBlock: EZIPEK_clean_linker_0, # of connection points: 2
#     Edge 17, Type (0, 0), BuildingBlock: EZIPEK_clean_linker_0, # of connection points: 2
#     Edge 18, Type (0, 0), BuildingBlock: EZIPEK_clean_linker_0, # of connection points: 2
#     Edge 19, Type (0, 0), BuildingBlock: EZIPEK_clean_linker_0, # of connection points: 2
#     Edge 20, Type (0, 0), BuildingBlock: EZIPEK_clean_linker_0, # of connection points: 2
#     Edge 21, Type (0, 0), BuildingBlock: EZIPEK_clean_linker_0, # of connection points: 2
#     Edge 22, Type (0, 0), BuildingBlock: EZIPEK_clean_linker_0, # of connection points: 2
#     Edge 23, Type (0, 0), BuildingBlock: EZIPEK_clean_linker_0, # of connection points: 2
#     Edge 24, Type (0, 0), BuildingBlock: EZIPEK_clean_linker_0, # of connection points: 2
#     Edge 25, Type (0, 0), BuildingBlock: EZIPEK_clean_linker_0, # of connection points: 2
#     Edge 26, Type (0, 0), BuildingBlock: EZIPEK_clean_linker_0, # of connection points: 2
#     Edge 27, Type (0, 0), BuildingBlock: EZIPEK_clean_linker_0, # of connection points: 2
#     Edge 28, Type (0, 0), BuildingBlock: EZIPEK_clean_linker_0, # of connection points: 2
#     Edge 29, Type (0, 0), BuildingBlock: EZIPEK_clean_linker_0, # of connection points: 2
#     Edge 30, Type (0, 0), BuildingBlock: EZIPEK_clean_linker_0, # of connection points: 2
#     Edge 31, Type (0, 0), BuildingBlock: EZIPEK_clean_linker_0, # of connection points: 2
# Relax obj value: 0.130
# Max RMSD: 0.166
# Mean RMSD: 0.166
data_MOF--net-vby--node1-BETDEL_clean_sbu_0--edge1-EZIPEK_clean_linker_0
_symmetry_space_group_name_H-M    P1
_symmetry_Int_Tables_number       1
_symmetry_cell_setting            triclinic
loop_
_symmetry_equiv_pos_as_xyz
'x, y, z'
_cell_length_a     11.349879
_cell_length_b     54.954849
_cell_length_c     21.020436
_cell_angle_alpha  89.998633
_cell_angle_beta   86.711537
_cell_angle_gamma 89.468077
loop_
_atom_site_label
_atom_site_type_symbol
_atom_site_fract_x
_atom_site_fract_y
_atom_site_fract_z
_atom_type_partial_charge
Dy0 Dy 0.05181 0.42212 0.02251 0.0
C1 C 0.11842 0.31887 0.01933 0.0
C2 C 0.04669 0.4717 0.01427 0.0
Dy3 Dy 0.07448 0.36783 0.01182 0.0
O4 O 0.02813 0.45925 0.06611 0.0
O5 O 0.06977 0.45709 0.96646 0.0
O6 O 0.96654 0.41804 0.1196 0.0
O7 O 0.09994 0.39334 0.08936 0.0
C8 C 0.02403 0.39851 0.1338 0.0
C9 C 0.08601 0.39174 0.89881 0.0
O10 O 0.87635 0.3719 0.02773 0.0
O11 O 0.86702 0.41322 1.00321 0.0
O12 O 0.11229 0.3312 0.96713 0.0
O13 O 0.09165 0.33296 0.06776 0.0
O14 O 0.15082 0.3731 0.91206 0.0
O15 O 0.01875 0.39648 0.94686 0.0
O16 O 0.24874 0.41804 1.00713 0.0
O17 O 0.25831 0.37704 0.0308 0.0
C18 C 0.81559 0.39216 0.01636 0.0
C19 C 0.30939 0.398 0.0185 0.0
Dy20 Dy 0.92798 0.6793 0.02217 0.0
C21 C 0.98652 0.57625 0.01377 0.0
C22 C 0.87634 0.72755 0.00879 0.0
Dy23 Dy 0.94526 0.62511 0.00953 0.0
O24 O 0.9499 0.71883 0.04869 0.0
O25 O 0.8405 0.71014 0.97328 0.0
O26 O 0.84421 0.67477 0.12115 0.0
O27 O 0.9695 0.64993 0.08842 0.0
C28 C 0.9017 0.65529 0.13575 0.0
C29 C 0.92296 0.64862 0.89719 0.0
O30 O 0.75265 0.62998 0.03656 0.0
O31 O 0.74866 0.66863 0.9956 0.0
O32 O 0.03161 0.59086 0.97073 0.0
O33 O 0.91937 0.58827 0.05519 0.0
O34 O 0.87534 0.62791 0.91221 0.0
O35 O 0.98194 0.65538 0.94282 0.0
O36 O 0.12594 0.67619 0.01115 0.0
O37 O 0.13404 0.63389 0.02266 0.0
C38 C 0.69368 0.64906 0.0167 0.0
C39 C 0.18565 0.65539 0.01727 0.0
Dy40 Dy 0.05917 0.68018 0.51059 0.0
C41 C 0.05312 0.57324 0.50975 0.0
C42 C 0.13549 0.72685 0.52237 0.0
Dy43 Dy 0.04759 0.62283 0.51752 0.0
O44 O 0.17562 0.71109 0.48058 0.0
O45 O 0.04869 0.71743 0.55777 0.0
O46 O 0.04372 0.68453 0.40481 0.0
O47 O 0.04537 0.65009 0.44383 0.0
C48 C 0.03921 0.66151 0.39206 0.0
C49 C 1.00738 0.64649 0.62909 0.0
O50 O 0.24122 0.6287 0.49411 0.0
O51 O 0.24392 0.66885 0.52766 0.0
O52 O 0.10578 0.58606 0.5514 0.0
O53 O 0.99942 0.58753 0.47112 0.0
O54 O 0.96343 0.62559 0.61549 0.0
O55 O 0.08151 0.65249 0.58465 0.0
O56 O 0.86334 0.67512 0.52802 0.0
O57 O 0.85856 0.63314 0.50715 0.0
C58 C 0.29872 0.64855 0.50941 0.0
C59 C 0.80587 0.65452 0.51819 0.0
Dy60 Dy 0.96751 0.41892 0.51537 0.0
C61 C 0.88153 0.31786 0.52422 0.0
C62 C 0.99487 0.46852 0.51928 0.0
Dy63 Dy 0.95892 0.36503 0.52544 0.0
O64 O 0.93668 0.45681 0.47812 0.0
O65 O 0.03803 0.4532 0.55888 0.0
O66 O 0.90883 0.41697 0.41611 0.0
O67 O 0.01654 0.38932 0.44779 0.0
C68 C 0.95929 0.39638 0.40155 0.0
C69 C 0.99205 0.38702 0.63653 0.0
O70 O 0.15531 0.36736 0.51007 0.0
O71 O 0.1597 0.40945 0.52388 0.0
O72 O 0.85974 0.33346 0.56958 0.0
O73 O 0.95007 0.3277 0.4796 0.0
O74 O 0.03602 0.36599 0.61957 0.0
O75 O 0.9219 0.39466 0.59573 0.0
O76 O 0.77565 0.41402 0.54164 0.0
O77 O 0.77878 0.37584 0.49746 0.0
C78 C 0.21344 0.38796 0.51745 0.0
C79 C 0.72018 0.39518 0.51896 0.0
Dy80 Dy 0.55778 0.92303 0.02931 0.0
C81 C 0.63541 0.82117 0.01174 0.0
C82 C 0.55999 0.97269 0.02765 0.0
Dy83 Dy 0.58189 0.86983 0.01503 0.0
O84 O 0.58639 0.95917 0.07531 0.0
O85 O 0.53311 0.95914 0.98005 0.0
O86 O 0.46455 0.91801 0.12405 0.0
O87 O 0.60228 0.89388 0.09667 0.0
C88 C 0.52281 0.89875 0.13967 0.0
C89 C 0.59018 0.89445 0.90228 0.0
O90 O 0.3828 0.87283 0.02851 0.0
O91 O 0.37005 0.91485 0.0146 0.0
O92 O 0.6792 0.83753 0.97346 0.0
O93 O 0.55545 0.83111 0.05087 0.0
O94 O 0.6548 0.87578 0.91463 0.0
O95 O 0.52409 0.89873 0.95092 0.0
O96 O 0.75278 0.91802 1.0059 0.0
O97 O 0.75697 0.87966 0.04818 0.0
C98 C 0.32032 0.89329 0.02246 0.0
C99 C 0.81235 0.89909 0.02643 0.0
Dy100 Dy 0.44136 0.18051 0.02705 0.0
C101 C 0.51711 0.07738 0.03456 0.0
C102 C 0.38863 0.22868 0.01249 0.0
Dy103 Dy 0.46109 0.12564 0.01913 0.0
O104 O 0.44267 0.21955 0.06013 0.0
O105 O 0.37464 0.21185 0.97031 0.0
O106 O 0.3563 0.17641 0.12588 0.0
O107 O 0.48446 0.15181 0.09448 0.0
C108 C 0.41489 0.15712 0.14094 0.0
C109 C 0.43279 0.14767 0.90593 0.0
O110 O 0.26735 0.13048 0.04479 0.0
O111 O 0.26197 0.16904 1.00255 0.0
O112 O 0.54972 0.09082 0.98605 0.0
O113 O 0.44705 0.09022 0.07273 0.0
O114 O 0.38983 0.1266 0.92212 0.0
O115 O 0.49323 0.15522 0.9502 0.0
O116 O 0.63969 0.17794 0.0186 0.0
O117 O 0.64997 0.13554 0.02861 0.0
C118 C 0.20784 0.14947 0.0244 0.0
C119 C 0.7003 0.1572 0.02383 0.0
Dy120 Dy 0.55151 0.1796 0.51463 0.0
C121 C 0.54335 0.07538 0.51997 0.0
C122 C 0.62434 0.22695 0.51642 0.0
Dy123 Dy 0.53917 0.12521 0.52441 0.0
O124 O 0.65062 0.21131 0.47165 0.0
O125 O 0.55355 0.21705 0.55999 0.0
O126 O 0.46652 0.17901 0.42236 0.0
O127 O 0.57746 0.14977 0.44369 0.0
C128 C 0.50626 0.1578 0.40413 0.0
C129 C 0.4926 0.14867 0.63614 0.0
O130 O 0.73558 0.12873 0.51396 0.0
O131 O 0.74038 0.17065 0.52577 0.0
O132 O 0.60016 0.08862 0.5589 0.0
O133 O 0.48701 0.08942 0.48206 0.0
O134 O 0.44247 0.1288 0.61947 0.0
O135 O 0.57051 0.15423 0.59359 0.0
O136 O 0.35748 0.17505 0.53963 0.0
O137 O 0.35409 0.13518 0.50367 0.0
C138 C 0.79332 0.14929 0.52027 0.0
C139 C 0.29932 0.15551 0.52211 0.0
Dy140 Dy 0.4641 0.92076 0.52086 0.0
C141 C 0.37722 0.81933 0.5325 0.0
C142 C 0.50027 0.97003 0.52636 0.0
Dy143 Dy 0.45336 0.86651 0.53262 0.0
O144 O 0.55537 0.95506 0.4872 0.0
O145 O 0.42679 0.958 0.5638 0.0
O146 O 0.39864 0.91858 0.42291 0.0
O147 O 0.50641 0.89074 0.45388 0.0
C148 C 0.44779 0.8978 0.40807 0.0
C149 C 0.4894 0.88922 0.64241 0.0
O150 O 0.6487 0.86929 0.51384 0.0
O151 O 0.65079 0.91039 0.54058 0.0
O152 O 0.36458 0.83433 0.5799 0.0
O153 O 0.43725 0.82966 0.48533 0.0
O154 O 0.53177 0.8679 0.62667 0.0
O155 O 0.42007 0.89661 0.60119 0.0
O156 O 0.26873 0.91742 0.53558 0.0
O157 O 0.26957 0.87662 0.50974 0.0
C158 C 0.70594 0.88949 0.52713 0.0
C159 C 0.21301 0.89723 0.52231 0.0
C160 C 0.4938 0.3928 0.07603 0.0
C161 C 0.43902 0.39839 0.01862 0.0
C162 C 0.63071 0.39752 0.95889 0.0
C163 C 0.68566 0.39186 0.01628 0.0
N164 N 0.67496 0.38775 0.13064 0.0
N165 N 0.44943 0.40284 0.90435 0.0
C166 C 0.61853 0.39019 0.07514 0.0
C167 C 0.50598 0.40013 0.95979 0.0
N168 N 0.42574 0.38955 0.13123 0.0
N169 N 0.6986 0.40101 0.90378 0.0
H170 H 0.35847 0.40537 0.90306 0.0
H171 H 0.49066 0.40119 0.85906 0.0
H172 H 0.78927 0.39783 0.90026 0.0
H173 H 0.66717 0.40818 0.86215 0.0
H174 H 0.45695 0.38228 0.1728 0.0
H175 H 0.33529 0.39316 0.135 0.0
H176 H 0.63356 0.38926 0.17592 0.0
H177 H 0.76606 0.3857 0.1319 0.0
C178 C 0.38474 0.65888 0.96097 0.0
C179 C 0.31566 0.65544 0.01852 0.0
C180 C 0.4949 0.64785 0.07576 0.0
C181 C 0.5631 0.64917 0.01719 0.0
N182 N 0.57159 0.6513 0.90245 0.0
N183 N 0.30168 0.64295 0.12888 0.0
C184 C 0.50763 0.65351 0.95931 0.0
C185 C 0.36979 0.64876 0.07536 0.0
N186 N 0.33291 0.6671 0.90778 0.0
N187 N 0.54941 0.64693 0.13206 0.0
H188 H 0.20994 0.64428 0.13145 0.0
H189 H 0.33544 0.63521 0.16931 0.0
H190 H 0.64073 0.64628 0.13455 0.0
H191 H 0.50468 0.64887 0.17646 0.0
H192 H 0.3804 0.67247 0.86639 0.0
H193 H 0.24246 0.67035 0.9064 0.0
H194 H 0.53452 0.65186 0.85831 0.0
H195 H 0.66061 0.6464 0.8994 0.0
C196 C 0.61846 0.66588 0.467 0.0
C197 C 0.67535 0.65479 0.51796 0.0
C198 C 0.48919 0.63577 0.55524 0.0
C199 C 0.42969 0.6487 0.50809 0.0
N200 N 0.43454 0.67897 0.42459 0.0
N201 N 0.66078 0.63377 0.61852 0.0
C202 C 0.49344 0.6647 0.46573 0.0
C203 C 0.60951 0.64097 0.56429 0.0
N204 N 0.68403 0.6766 0.41828 0.0
N205 N 0.4312 0.6185 0.59143 0.0
H206 H 0.74674 0.63846 0.62798 0.0
H207 H 0.61459 0.62567 0.65704 0.0
H208 H 0.34309 0.61421 0.58647 0.0
H209 H 0.47325 0.60685 0.62215 0.0
H210 H 0.64874 0.68235 0.37611 0.0
H211 H 0.77561 0.67807 0.41775 0.0
H212 H 0.47418 0.69308 0.39838 0.0
H213 H 0.34401 0.67778 0.4197 0.0
C214 C 0.52241 0.39254 0.57767 0.0
C215 C 0.58983 0.39467 0.51903 0.0
C216 C 0.41253 0.38776 0.45984 0.0
C217 C 0.34384 0.38757 0.51826 0.0
N218 N 0.32951 0.39005 0.6328 0.0
N219 N 0.60006 0.39716 0.40436 0.0
C220 C 0.39785 0.39007 0.57718 0.0
C221 C 0.53516 0.39295 0.46005 0.0
N222 N 0.57818 0.39168 0.63366 0.0
N223 N 0.36055 0.38261 0.40434 0.0
H224 H 0.68961 0.40128 0.40288 0.0
H225 H 0.56415 0.39858 0.36006 0.0
H226 H 0.2709 0.37883 0.4027 0.0
H227 H 0.40695 0.38012 0.36065 0.0
H228 H 0.53666 0.38717 0.67743 0.0
H229 H 0.6687 0.39411 0.63624 0.0
H230 H 0.35923 0.39517 0.67673 0.0
H231 H 0.24058 0.38556 0.6346 0.0
C232 C 0.00932 0.89986 0.96596 0.0
C233 C 0.94274 0.89892 0.02513 0.0
C234 C 0.12269 0.88988 0.08052 0.0
C235 C 0.19019 0.89272 0.02218 0.0
N236 N 0.20143 0.90345 0.91062 0.0
N237 N 0.93575 0.89679 0.13985 0.0
C238 C 0.13449 0.89864 0.96527 0.0
C239 C 0.99935 0.89483 0.08275 0.0
N240 N 0.953 0.90072 0.91017 0.0
N241 N 0.17671 0.88262 0.13391 0.0
H242 H 0.84572 0.90086 0.14333 0.0
H243 H 0.97324 0.89656 0.18388 0.0
H244 H 0.26755 0.87999 0.13469 0.0
H245 H 0.13131 0.87755 0.17619 0.0
H246 H 0.99599 0.89838 0.86546 0.0
H247 H 0.86161 0.90191 0.90832 0.0
H248 H 0.16733 0.91082 0.86983 0.0
H249 H 0.29293 0.9015 0.90714 0.0
C250 C 0.022 0.15329 0.96657 0.0
C251 C 0.07705 0.14958 0.0249 0.0
C252 C 0.88365 0.15157 0.08319 0.0
C253 C 0.83036 0.15737 0.02547 0.0
N254 N 0.84853 0.16668 0.91338 0.0
N255 N 0.06336 0.14888 0.13988 0.0
C256 C 0.89973 0.15928 0.96754 0.0
C257 C 0.00871 0.14961 0.0836 0.0
N258 N 0.08584 0.1499 0.91007 0.0
N259 N 0.81443 0.14757 0.13752 0.0
H260 H 0.15441 0.14708 0.14235 0.0
H261 H 0.01957 0.15182 0.18414 0.0
H262 H 0.72311 0.14999 0.13993 0.0
H263 H 0.84636 0.1404 0.17911 0.0
H264 H 0.04922 0.15005 0.8658 0.0
H265 H 0.17417 0.14449 0.90773 0.0
H266 H 0.89621 0.17092 0.87111 0.0
H267 H 0.75851 0.17047 0.91191 0.0
C268 C 0.10009 0.15569 0.58088 0.0
C269 C 0.16875 0.15576 0.52229 0.0
C270 C 0.99219 0.14723 0.46416 0.0
C271 C 0.92274 0.14907 0.52204 0.0
N272 N 0.90549 0.15796 0.63463 0.0
N273 N 0.17763 0.15647 0.40745 0.0
C274 C 0.97522 0.15423 0.58018 0.0
C275 C 0.11408 0.15276 0.46369 0.0
N276 N 0.15436 0.15589 0.63724 0.0
N277 N 0.9415 0.14033 0.40956 0.0
H278 H 0.26542 0.16171 0.40562 0.0
H279 H 0.14108 0.15687 0.36316 0.0
H280 H 0.85144 0.13702 0.40757 0.0
H281 H 0.98972 0.13602 0.36737 0.0
H282 H 0.11051 0.15298 0.68142 0.0
H283 H 0.24531 0.15724 0.63964 0.0
H284 H 0.9369 0.16476 0.67661 0.0
H285 H 0.81427 0.15559 0.63693 0.0
C286 C 0.89265 0.8935 0.5836 0.0
C287 C 0.83646 0.88948 0.52596 0.0
C288 C 0.02754 0.89129 0.46541 0.0
C289 C 0.08265 0.89682 0.52263 0.0
N290 N 0.06917 0.90512 0.63558 0.0
N291 N 0.84577 0.88648 0.41138 0.0
C292 C 0.01543 0.89864 0.58153 0.0
C293 C 0.90278 0.88869 0.46668 0.0
N294 N 0.82911 0.89126 0.64053 0.0
N295 N 0.09499 0.88843 0.40981 0.0
H296 H 0.75542 0.8834 0.41049 0.0
H297 H 0.88612 0.88891 0.36616 0.0
H298 H 0.18466 0.89246 0.40568 0.0
H299 H 0.06379 0.88121 0.36828 0.0
H300 H 0.86556 0.89164 0.6848 0.0
H301 H 0.74002 0.88683 0.64357 0.0
H302 H 0.02365 0.90959 0.67842 0.0
H303 H 0.15992 0.90754 0.6371 0.0
C304 C 0.06966 0.53827 0.06025 0.0
C305 C 1.00375 0.54957 0.01301 0.0
C306 C 0.96346 0.50974 0.96675 0.0
C307 C 0.03707 0.49857 0.01097 0.0
N308 N 0.17985 0.5026 0.09101 0.0
N309 N 0.90196 0.54685 0.91549 0.0
C310 C 0.09538 0.51294 0.05549 0.0
C311 C 0.95589 0.53555 0.96414 0.0
N312 N 0.10786 0.55171 0.10966 0.0
N313 N 0.89433 0.49578 0.93029 0.0
H314 H 0.88669 0.56557 0.91394 0.0
H315 H 0.87917 0.53783 0.87444 0.0
H316 H 0.89334 0.47684 0.93205 0.0
H317 H 0.82922 0.50295 0.9026 0.0
H318 H 0.14389 0.54402 0.14954 0.0
H319 H 0.09625 0.57053 0.11307 0.0
H320 H 0.23376 0.51255 0.11964 0.0
H321 H 0.20479 0.48433 0.08702 0.0
C322 C 0.97639 0.50968 0.57148 0.0
C323 C 0.01448 0.49522 0.51811 0.0
C324 C 0.08082 0.53187 0.45944 0.0
C325 C 0.04092 0.54636 0.51243 0.0
N326 N 0.93243 0.54998 0.61422 0.0
N327 N 0.12104 0.49144 0.41597 0.0
C328 C 0.98519 0.53549 0.56761 0.0
C329 C 0.07065 0.50604 0.46302 0.0
N330 N 0.93193 0.49871 0.62604 0.0
N331 N 0.12729 0.54292 0.40542 0.0
H332 H 0.11901 0.47249 0.41782 0.0
H333 H 0.17309 0.49773 0.37722 0.0
H334 H 0.14351 0.56154 0.40257 0.0
H335 H 0.14496 0.53403 0.36221 0.0
H336 H 0.9176 0.50766 0.66944 0.0
H337 H 0.91514 0.48013 0.62939 0.0
H338 H 0.87896 0.5435 0.65223 0.0
H339 H 0.93305 0.56893 0.61255 0.0
C340 C 0.6259 1.01379 0.98803 0.0
C341 C 0.55303 0.99957 0.03026 0.0
C342 C 0.4858 0.03637 0.0881 0.0
C343 C 0.54621 0.05085 0.04103 0.0
N344 N 0.7162 0.05296 0.96702 0.0
N345 N 0.39953 0.99732 0.11438 0.0
C346 C 0.6281 0.0395 0.99634 0.0
C347 C 0.47974 1.01084 0.07891 0.0
N348 N 0.69265 1.00279 0.93982 0.0
N349 N 0.44335 0.04655 0.14424 0.0
H350 H 0.38952 0.97864 0.10814 0.0
H351 H 0.33448 1.00501 0.14531 0.0
H352 H 0.46248 0.06428 0.15734 0.0
H353 H 0.40649 0.03645 0.18217 0.0
H354 H 0.73535 1.01229 0.90251 0.0
H355 H 0.69952 0.98396 0.93454 0.0
H356 H 0.78406 0.04564 0.93739 0.0
H357 H 0.73207 0.07092 0.97971 0.0
C358 C 0.51696 0.03605 0.5811 0.0
C359 C 0.53573 0.04835 0.52188 0.0
C360 C 0.51653 1.00959 0.46582 0.0
C361 C 0.51311 0.99697 0.52497 0.0
N362 N 0.53679 0.99819 0.63839 0.0
N363 N 0.57993 0.04572 0.40828 0.0
C364 C 0.52108 1.01019 0.58252 0.0
C365 C 0.54327 0.03481 0.4643 0.0
N366 N 0.48858 0.04883 0.63572 0.0
N367 N 0.48809 0.99795 0.41138 0.0
H368 H 0.60486 0.06392 0.40529 0.0
H369 H 0.59797 0.03605 0.36614 0.0
H370 H 0.46096 0.9799 0.41046 0.0
H371 H 0.47815 1.00702 0.36844 0.0
H372 H 0.46277 0.04048 0.67873 0.0
H373 H 0.47735 0.06766 0.63686 0.0
H374 H 0.55521 1.00711 0.68039 0.0
H375 H 0.5441 0.97932 0.64136 0.0
C376 C 0.3052 0.29562 0.03816 0.0
C377 C 0.1847 0.29554 0.02245 0.0
C378 C 0.19524 0.25138 0.00831 0.0
C379 C 0.31923 0.25181 0.01597 0.0
N380 N 0.49515 0.27475 0.03103 0.0
N381 N 0.01969 0.27405 0.98328 0.0
C382 C 0.37495 0.27404 0.02941 0.0
C383 C 0.13141 0.27365 1.00436 0.0
N384 N 0.35336 0.31628 0.06137 0.0
N385 N 0.1364 0.22977 0.00929 0.0
H386 H 0.96802 0.28984 0.98258 0.0
H387 H 0.98178 0.25909 0.96222 0.0
H388 H 0.177 0.2131 0.01749 0.0
H389 H 0.0448 0.22858 0.00985 0.0
H390 H 0.43601 0.31673 0.08041 0.0
H391 H 0.30755 0.33272 0.0663 0.0
H392 H 0.54262 0.29081 0.03344 0.0
H393 H 0.54891 0.25935 0.02448 0.0
C394 C 0.72205 0.78581 0.07151 0.0
C395 C 0.68525 0.79606 0.01374 0.0
C396 C 0.79319 0.76376 0.95369 0.0
C397 C 0.8188 0.75204 0.0115 0.0
N398 N 0.77589 0.74897 0.12564 0.0
N399 N 0.66278 0.79132 0.90101 0.0
C400 C 0.77457 0.76219 0.0706 0.0
C401 C 0.71395 0.78395 0.95516 0.0
N402 N 0.71279 0.79886 0.12694 0.0
N403 N 0.84753 0.75615 0.89736 0.0
H404 H 0.60052 0.80541 0.90073 0.0
H405 H 0.672 0.78175 0.85818 0.0
H406 H 0.90975 0.74204 0.89452 0.0
H407 H 0.84051 0.7655 0.8546 0.0
H408 H 0.75079 0.79308 0.16839 0.0
H409 H 0.67792 0.81642 0.13036 0.0
H410 H 0.73358 0.75482 0.16832 0.0
H411 H 0.80668 0.73111 0.12766 0.0
C412 C 0.31863 0.75115 0.53422 0.0
C413 C 0.19362 0.75071 0.53145 0.0
C414 C 0.18852 0.79541 0.5337 0.0
C415 C 0.31436 0.79572 0.52984 0.0
N416 N 0.4997 0.77403 0.51804 0.0
N417 N 0.01006 0.77227 0.52083 0.0
C418 C 0.3795 0.77362 0.52722 0.0
C419 C 0.12838 0.7728 0.52983 0.0
N420 N 0.37879 0.73018 0.54695 0.0
N421 N 0.12612 0.81676 0.54041 0.0
H422 H 0.96291 0.75616 0.51805 0.0
H423 H 0.95981 0.78766 0.51144 0.0
H424 H 0.16527 0.83382 0.53758 0.0
H425 H 0.03575 0.8176 0.55198 0.0
H426 H 0.46827 0.7296 0.55538 0.0
H427 H 0.33691 0.71364 0.55612 0.0
H428 H 0.55103 0.75853 0.50815 0.0
H429 H 0.54782 0.79011 0.51545 0.0
C430 C 0.73754 0.29043 0.47288 0.0
C431 C 0.81967 0.29411 0.52057 0.0
C432 C 0.7655 0.2546 0.56903 0.0
C433 C 0.6843 0.25085 0.5209 0.0
N434 N 0.60277 0.26334 0.42261 0.0
N435 N 0.90273 0.28149 0.61835 0.0
C436 C 0.67342 0.26825 0.47155 0.0
C437 C 0.83074 0.27669 0.56992 0.0
N438 N 0.71399 0.30893 0.43177 0.0
N439 N 0.78683 0.23627 0.61107 0.0
H440 H 0.95928 0.29634 0.61807 0.0
H441 H 0.90301 0.27151 0.6604 0.0
H442 H 0.74215 0.21978 0.61209 0.0
H443 H 0.85461 0.23643 0.64233 0.0
H444 H 0.64563 0.3087 0.40086 0.0
H445 H 0.75644 0.32564 0.43185 0.0
H446 H 0.6034 0.27334 0.38054 0.0
H447 H 0.54707 0.24835 0.4224 0.0
C448 C 0.10319 0.40839 0.23875 0.0
C449 C 0.03782 0.39247 0.2014 0.0
C450 C 0.94097 0.3749 0.29759 0.0
C451 C 1.00069 0.39183 0.33468 0.0
N452 N 0.15981 0.42023 0.34378 0.0
N453 N 0.92073 0.35655 0.19359 0.0
C454 C 0.08963 0.40698 0.30621 0.0
C455 C 0.96582 0.37424 0.23049 0.0
N456 N 0.17266 0.4258 0.20955 0.0
N457 N 0.85651 0.36038 0.32627 0.0
H458 H 0.93774 0.35599 0.14434 0.0
H459 H 0.87491 0.34153 0.21179 0.0
H460 H 0.83976 0.36 0.37554 0.0
H461 H 0.7998 0.34958 0.30152 0.0
H462 H 0.21036 0.44005 0.23357 0.0
H463 H 0.18875 0.42666 0.16025 0.0
H464 H 0.23383 0.4297 0.32641 0.0
H465 H 0.15025 0.42017 0.39338 0.0
C466 C 0.04268 0.66795 0.21684 0.0
C467 C 0.94616 0.65331 0.20069 0.0
C468 C 0.93145 0.63713 0.30991 0.0
C469 C 0.02571 0.65241 0.32587 0.0
N470 N 0.19909 0.6739 0.28847 0.0
N471 N 0.81651 0.61994 0.22665 0.0
C472 C 0.09039 0.665 0.27706 0.0
C473 C 0.8961 0.63656 0.24566 0.0
N474 N 0.08644 0.68543 0.1759 0.0
N475 N 0.87458 0.62361 0.35612 0.0
H476 H 0.78965 0.61919 0.18004 0.0
H477 H 0.7838 0.60583 0.25537 0.0
H478 H 0.90983 0.62103 0.40003 0.0
H479 H 0.79468 0.61491 0.35071 0.0
H480 H 0.14747 0.69834 0.18868 0.0
H481 H 0.05566 0.68842 0.13087 0.0
H482 H 0.25612 0.68128 0.25309 0.0
H483 H 0.23719 0.67108 0.33184 0.0
C484 C 0.06359 0.63978 0.80347 0.0
C485 C 0.96449 0.65308 0.83 0.0
C486 C 0.93048 0.67005 0.72457 0.0
C487 C 0.01444 0.65338 0.69699 0.0
N488 N 0.16544 0.62296 0.70863 0.0
N489 N 0.80735 0.68211 0.81802 0.0
C490 C 0.08417 0.63881 0.73619 0.0
C491 C 0.89994 0.66888 0.79126 0.0
N492 N 0.13758 0.62793 0.84248 0.0
N493 N 0.88079 0.68698 0.68663 0.0
H494 H 0.7871 0.68249 0.86703 0.0
H495 H 0.74796 0.69193 0.79191 0.0
H496 H 0.90624 0.68848 0.6384 0.0
H497 H 0.8242 0.70084 0.70346 0.0
H498 H 0.21831 0.6203 0.82672 0.0
H499 H 0.12367 0.62732 0.89181 0.0
H500 H 0.20794 0.60935 0.73331 0.0
H501 H 0.18667 0.62274 0.65976 0.0
C502 C 0.92567 0.37858 0.74861 0.0
C503 C 0.98762 0.39402 0.7048 0.0
C504 C 0.08874 0.41261 0.79278 0.0
C505 C 0.0433 0.39414 0.83387 0.0
N506 N 0.91965 0.35886 0.85161 0.0
N507 N 0.12792 0.42597 0.68388 0.0
C508 C 0.96073 0.37711 0.81225 0.0
C509 C 0.06735 0.41149 0.72675 0.0
N510 N 0.83367 0.36519 0.72886 0.0
N511 N 0.15344 0.43096 0.81684 0.0
H512 H 0.11365 0.42533 0.6356 0.0
H513 H 0.19703 0.43722 0.69511 0.0
H514 H 0.17311 0.43174 0.86467 0.0
H515 H 0.17988 0.44629 0.79087 0.0
H516 H 0.77685 0.35538 0.75965 0.0
H517 H 0.8073 0.3658 0.68214 0.0
H518 H 0.87165 0.34416 0.83613 0.0
H519 H 0.93859 0.35757 0.8994 0.0
C520 C 0.46727 0.87449 0.2372 0.0
C521 C 0.5344 0.89346 0.20803 0.0
C522 C 0.57699 0.90938 0.31293 0.0
C523 C 0.49084 0.89351 0.34113 0.0
N524 N 0.35952 0.85971 0.33269 0.0
N525 N 0.65889 0.92846 0.21654 0.0
C526 C 0.43896 0.87538 0.30413 0.0
C527 C 0.59289 0.91048 0.24556 0.0
N528 N 0.43112 0.85577 0.2006 0.0
N529 N 0.64382 0.92329 0.3507 0.0
H530 H 0.67824 0.92898 0.16747 0.0
H531 H 0.69031 0.94344 0.24045 0.0
H532 H 0.63489 0.92288 0.40028 0.0
H533 H 0.71584 0.93342 0.33352 0.0
H534 H 0.38901 0.84033 0.21893 0.0
H535 H 0.45237 0.85491 0.1517 0.0
H536 H 0.30821 0.84782 0.30779 0.0
H537 H 0.34168 0.85932 0.38194 0.0
C538 C 0.40706 0.13506 0.24575 0.0
C539 C 0.45321 0.15414 0.20673 0.0
C540 C 0.57403 0.16756 0.29311 0.0
C541 C 0.51114 0.15168 0.33525 0.0
N542 N 0.37691 0.11851 0.35248 0.0
N543 N 0.5828 0.18869 0.19205 0.0
C544 C 0.43157 0.1346 0.31151 0.0
C545 C 0.53854 0.17026 0.22981 0.0
N546 N 0.34073 0.1174 0.21973 0.0
N547 N 0.66851 0.17989 0.31399 0.0
H548 H 0.56426 0.19077 0.14441 0.0
H549 H 0.63334 0.20279 0.20875 0.0
H550 H 0.6968 0.1778 0.36008 0.0
H551 H 0.72574 0.19008 0.28438 0.0
H552 H 0.31279 0.10177 0.24385 0.0
H553 H 0.32039 0.11754 0.17197 0.0
H554 H 0.3067 0.1076 0.34111 0.0
H555 H 0.4015 0.11662 0.39908 0.0
C556 C 0.56116 0.13851 0.80814 0.0
C557 C 0.46769 0.15244 0.83819 0.0
C558 C 0.42813 0.17107 0.73559 0.0
C559 C 0.50381 0.15363 0.70466 0.0
N560 N 0.64698 0.1211 0.70999 0.0
N561 N 0.31317 0.18254 0.83199 0.0
C562 C 0.5734 0.13774 0.74057 0.0
C563 C 0.40245 0.16918 0.80246 0.0
N564 N 0.63823 0.12609 0.8442 0.0
N565 N 0.38204 0.18947 0.70088 0.0
H566 H 0.2952 0.18216 0.88114 0.0
H567 H 0.25324 0.19294 0.80765 0.0
H568 H 0.40295 0.19138 0.65218 0.0
H569 H 0.33319 0.20395 0.72094 0.0
H570 H 0.71521 0.11774 0.82535 0.0
H571 H 0.63133 0.1259 0.89383 0.0
H572 H 0.68768 0.10681 0.73302 0.0
H573 H 0.66343 0.12089 0.66068 0.0
C574 C 0.42411 0.88107 0.75436 0.0
C575 C 0.48308 0.89672 0.71015 0.0
C576 C 0.58634 0.91568 0.79658 0.0
C577 C 0.54484 0.89684 0.83789 0.0
N578 N 0.42412 0.86115 0.85682 0.0
N579 N 0.60833 0.93095 0.68785 0.0
C580 C 0.4622 0.8796 0.81731 0.0
C581 C 0.55928 0.91496 0.73114 0.0
N582 N 0.33137 0.86767 0.7356 0.0
N583 N 0.65144 0.93409 0.82007 0.0
H584 H 0.58103 0.93192 0.64142 0.0
H585 H 0.67567 0.9429 0.69731 0.0
H586 H 0.6732 0.93478 0.86761 0.0
H587 H 0.67743 0.94942 0.79403 0.0
H588 H 0.27687 0.8575 0.76677 0.0
H589 H 0.30155 0.86883 0.6896 0.0
H590 H 0.37592 0.84641 0.84177 0.0
H591 H 0.44611 0.85965 0.9041 0.0
loop_
_geom_bond_atom_site_label_1
_geom_bond_atom_site_label_2
_geom_bond_distance
_geom_bond_site_symmetry_2
_ccdc_geom_bond_type
Dy0 O4 2.398 1_455 S
Dy0 O5 2.491 1_454 S
Dy0 O6 2.403 . S
Dy0 O7 2.664 . S
Dy0 O11 2.326 1_455 S
Dy0 O15 2.310 1_554 S
Dy0 O16 2.351 . S
C1 O12 1.185 1_554 S
C1 O13 1.355 . S
C2 O4 1.185 . S
C2 O5 1.355 1_554 S
Dy3 O7 2.310 . S
Dy3 O10 2.351 1_455 S
Dy3 O12 2.398 1_554 S
Dy3 O13 2.491 . S
Dy3 O14 2.403 1_554 S
Dy3 O15 2.664 1_554 S
Dy3 O17 2.326 1_554 S
O4 Dy0 2.398 1_655 S
O4 C2 1.185 . S
O5 Dy0 2.491 1_656 S
O5 C2 1.355 1_556 S
O6 Dy0 2.403 . S
O6 C8 1.254 . S
O7 Dy0 2.664 . S
O7 Dy3 2.310 . S
O7 C8 1.268 . S
C8 O6 1.254 . S
C8 O7 1.268 . S
C9 O14 1.254 . S
C9 O15 1.268 . S
O10 Dy3 2.351 1_655 S
O10 C18 1.249 . S
O11 Dy0 2.326 1_655 S
O11 C18 1.267 . S
O12 C1 1.185 1_556 S
O12 Dy3 2.398 1_556 S
O13 C1 1.355 . S
O13 Dy3 2.491 . S
O14 Dy3 2.403 1_556 S
O14 C9 1.254 . S
O15 Dy0 2.310 1_556 S
O15 Dy3 2.664 1_556 S
O15 C9 1.268 . S
O16 Dy0 2.351 . S
O16 C19 1.249 . S
O17 Dy3 2.326 1_556 S
O17 C19 1.267 1_556 S
C18 O10 1.249 . S
C18 O11 1.267 . S
C19 O16 1.249 . S
C19 O17 1.267 1_554 S
Dy20 O24 2.398 . S
Dy20 O25 2.491 1_554 S
Dy20 O26 2.403 . S
Dy20 O27 2.664 . S
Dy20 O31 2.326 . S
Dy20 O35 2.310 1_554 S
Dy20 O36 2.351 1_655 S
C21 O32 1.185 1_554 S
C21 O33 1.355 . S
C22 O24 1.185 . S
C22 O25 1.355 1_554 S
Dy23 O27 2.310 . S
Dy23 O30 2.351 . S
Dy23 O32 2.398 1_654 S
Dy23 O33 2.491 1_655 S
Dy23 O34 2.403 1_554 S
Dy23 O35 2.664 1_554 S
Dy23 O37 2.326 1_654 S
O24 Dy20 2.398 . S
O24 C22 1.185 . S
O25 Dy20 2.491 1_556 S
O25 C22 1.355 1_556 S
O26 Dy20 2.403 . S
O26 C28 1.254 . S
O27 Dy20 2.664 . S
O27 Dy23 2.310 . S
O27 C28 1.268 . S
C28 O26 1.254 . S
C28 O27 1.268 . S
C29 O34 1.254 . S
C29 O35 1.268 . S
O30 Dy23 2.351 . S
O30 C38 1.249 . S
O31 Dy20 2.326 . S
O31 C38 1.267 . S
O32 C21 1.185 1_556 S
O32 Dy23 2.398 1_456 S
O33 C21 1.355 . S
O33 Dy23 2.491 1_455 S
O34 Dy23 2.403 1_556 S
O34 C29 1.254 . S
O35 Dy20 2.310 1_556 S
O35 Dy23 2.664 1_556 S
O35 C29 1.268 . S
O36 Dy20 2.351 1_455 S
O36 C39 1.249 . S
O37 Dy23 2.326 1_456 S
O37 C39 1.267 1_556 S
C38 O30 1.249 . S
C38 O31 1.267 . S
C39 O36 1.249 . S
C39 O37 1.267 1_554 S
Dy40 O44 2.398 . S
Dy40 O45 2.491 . S
Dy40 O46 2.403 . S
Dy40 O47 2.664 . S
Dy40 O51 2.326 . S
Dy40 O55 2.310 . S
Dy40 O56 2.351 1_455 S
C41 O52 1.185 . S
C41 O53 1.355 . S
C42 O44 1.185 . S
C42 O45 1.355 . S
Dy43 O47 2.310 . S
Dy43 O50 2.351 . S
Dy43 O52 2.398 1_455 S
Dy43 O53 2.491 1_455 S
Dy43 O54 2.403 . S
Dy43 O55 2.664 . S
Dy43 O57 2.326 1_455 S
O44 Dy40 2.398 . S
O44 C42 1.185 . S
O45 Dy40 2.491 . S
O45 C42 1.355 . S
O46 Dy40 2.403 . S
O46 C48 1.254 . S
O47 Dy40 2.664 . S
O47 Dy43 2.310 . S
O47 C48 1.268 . S
C48 O46 1.254 . S
C48 O47 1.268 . S
C49 O54 1.254 . S
C49 O55 1.268 . S
O50 Dy43 2.351 . S
O50 C58 1.249 . S
O51 Dy40 2.326 . S
O51 C58 1.267 . S
O52 C41 1.185 . S
O52 Dy43 2.398 1_655 S
O53 C41 1.355 . S
O53 Dy43 2.491 1_655 S
O54 Dy43 2.403 . S
O54 C49 1.254 . S
O55 Dy40 2.310 . S
O55 Dy43 2.664 . S
O55 C49 1.268 . S
O56 Dy40 2.351 1_655 S
O56 C59 1.249 . S
O57 Dy43 2.326 1_655 S
O57 C59 1.267 . S
C58 O50 1.249 . S
C58 O51 1.267 . S
C59 O56 1.249 . S
C59 O57 1.267 . S
Dy60 O64 2.398 1_655 S
Dy60 O65 2.491 1_655 S
Dy60 O66 2.403 . S
Dy60 O67 2.664 . S
Dy60 O71 2.326 1_655 S
Dy60 O75 2.310 . S
Dy60 O76 2.351 . S
C61 O72 1.185 . S
C61 O73 1.355 . S
C62 O64 1.185 . S
C62 O65 1.355 . S
Dy63 O67 2.310 . S
Dy63 O70 2.351 1_655 S
Dy63 O72 2.398 . S
Dy63 O73 2.491 . S
Dy63 O74 2.403 . S
Dy63 O75 2.664 . S
Dy63 O77 2.326 . S
O64 Dy60 2.398 1_455 S
O64 C62 1.185 . S
O65 Dy60 2.491 1_455 S
O65 C62 1.355 . S
O66 Dy60 2.403 . S
O66 C68 1.254 . S
O67 Dy60 2.664 . S
O67 Dy63 2.310 . S
O67 C68 1.268 . S
C68 O66 1.254 . S
C68 O67 1.268 . S
C69 O74 1.254 . S
C69 O75 1.268 . S
O70 Dy63 2.351 1_455 S
O70 C78 1.249 . S
O71 Dy60 2.326 1_455 S
O71 C78 1.267 . S
O72 C61 1.185 . S
O72 Dy63 2.398 . S
O73 C61 1.355 . S
O73 Dy63 2.491 . S
O74 Dy63 2.403 . S
O74 C69 1.254 . S
O75 Dy60 2.310 . S
O75 Dy63 2.664 . S
O75 C69 1.268 . S
O76 Dy60 2.351 . S
O76 C79 1.249 . S
O77 Dy63 2.326 . S
O77 C79 1.267 . S
C78 O70 1.249 . S
C78 O71 1.267 . S
C79 O76 1.249 . S
C79 O77 1.267 . S
Dy80 O84 2.398 . S
Dy80 O85 2.491 1_554 S
Dy80 O86 2.403 . S
Dy80 O87 2.664 . S
Dy80 O91 2.326 . S
Dy80 O95 2.310 1_554 S
Dy80 O96 2.351 . S
C81 O92 1.185 1_554 S
C81 O93 1.355 . S
C82 O84 1.185 . S
C82 O85 1.355 1_554 S
Dy83 O87 2.310 . S
Dy83 O90 2.351 . S
Dy83 O92 2.398 1_554 S
Dy83 O93 2.491 . S
Dy83 O94 2.403 1_554 S
Dy83 O95 2.664 1_554 S
Dy83 O97 2.326 1_554 S
O84 Dy80 2.398 . S
O84 C82 1.185 . S
O85 Dy80 2.491 1_556 S
O85 C82 1.355 1_556 S
O86 Dy80 2.403 . S
O86 C88 1.254 . S
O87 Dy80 2.664 . S
O87 Dy83 2.310 . S
O87 C88 1.268 . S
C88 O86 1.254 . S
C88 O87 1.268 . S
C89 O94 1.254 . S
C89 O95 1.268 . S
O90 Dy83 2.351 . S
O90 C98 1.249 . S
O91 Dy80 2.326 . S
O91 C98 1.267 . S
O92 C81 1.185 1_556 S
O92 Dy83 2.398 1_556 S
O93 C81 1.355 . S
O93 Dy83 2.491 . S
O94 Dy83 2.403 1_556 S
O94 C89 1.254 . S
O95 Dy80 2.310 1_556 S
O95 Dy83 2.664 1_556 S
O95 C89 1.268 . S
O96 Dy80 2.351 . S
O96 C99 1.249 . S
O97 Dy83 2.326 1_556 S
O97 C99 1.267 1_556 S
C98 O90 1.249 . S
C98 O91 1.267 . S
C99 O96 1.249 . S
C99 O97 1.267 1_554 S
Dy100 O104 2.398 . S
Dy100 O105 2.491 1_554 S
Dy100 O106 2.403 . S
Dy100 O107 2.664 . S
Dy100 O111 2.326 . S
Dy100 O115 2.310 1_554 S
Dy100 O116 2.351 . S
C101 O112 1.185 1_554 S
C101 O113 1.355 . S
C102 O104 1.185 . S
C102 O105 1.355 1_554 S
Dy103 O107 2.310 . S
Dy103 O110 2.351 . S
Dy103 O112 2.398 1_554 S
Dy103 O113 2.491 . S
Dy103 O114 2.403 1_554 S
Dy103 O115 2.664 1_554 S
Dy103 O117 2.326 1_554 S
O104 Dy100 2.398 . S
O104 C102 1.185 . S
O105 Dy100 2.491 1_556 S
O105 C102 1.355 1_556 S
O106 Dy100 2.403 . S
O106 C108 1.254 . S
O107 Dy100 2.664 . S
O107 Dy103 2.310 . S
O107 C108 1.268 . S
C108 O106 1.254 . S
C108 O107 1.268 . S
C109 O114 1.254 . S
C109 O115 1.268 . S
O110 Dy103 2.351 . S
O110 C118 1.249 . S
O111 Dy100 2.326 . S
O111 C118 1.267 . S
O112 C101 1.185 1_556 S
O112 Dy103 2.398 1_556 S
O113 C101 1.355 . S
O113 Dy103 2.491 . S
O114 Dy103 2.403 1_556 S
O114 C109 1.254 . S
O115 Dy100 2.310 1_556 S
O115 Dy103 2.664 1_556 S
O115 C109 1.268 . S
O116 Dy100 2.351 . S
O116 C119 1.249 . S
O117 Dy103 2.326 1_556 S
O117 C119 1.267 1_556 S
C118 O110 1.249 . S
C118 O111 1.267 . S
C119 O116 1.249 . S
C119 O117 1.267 1_554 S
Dy120 O124 2.398 . S
Dy120 O125 2.491 . S
Dy120 O126 2.403 . S
Dy120 O127 2.664 . S
Dy120 O131 2.326 . S
Dy120 O135 2.310 . S
Dy120 O136 2.351 . S
C121 O132 1.185 . S
C121 O133 1.355 . S
C122 O124 1.185 . S
C122 O125 1.355 . S
Dy123 O127 2.310 . S
Dy123 O130 2.351 . S
Dy123 O132 2.398 . S
Dy123 O133 2.491 . S
Dy123 O134 2.403 . S
Dy123 O135 2.664 . S
Dy123 O137 2.326 . S
O124 Dy120 2.398 . S
O124 C122 1.185 . S
O125 Dy120 2.491 . S
O125 C122 1.355 . S
O126 Dy120 2.403 . S
O126 C128 1.254 . S
O127 Dy120 2.664 . S
O127 Dy123 2.310 . S
O127 C128 1.268 . S
C128 O126 1.254 . S
C128 O127 1.268 . S
C129 O134 1.254 . S
C129 O135 1.268 . S
O130 Dy123 2.351 . S
O130 C138 1.249 . S
O131 Dy120 2.326 . S
O131 C138 1.267 . S
O132 C121 1.185 . S
O132 Dy123 2.398 . S
O133 C121 1.355 . S
O133 Dy123 2.491 . S
O134 Dy123 2.403 . S
O134 C129 1.254 . S
O135 Dy120 2.310 . S
O135 Dy123 2.664 . S
O135 C129 1.268 . S
O136 Dy120 2.351 . S
O136 C139 1.249 . S
O137 Dy123 2.326 . S
O137 C139 1.267 . S
C138 O130 1.249 . S
C138 O131 1.267 . S
C139 O136 1.249 . S
C139 O137 1.267 . S
Dy140 O144 2.398 . S
Dy140 O145 2.491 . S
Dy140 O146 2.403 . S
Dy140 O147 2.664 . S
Dy140 O151 2.326 . S
Dy140 O155 2.310 . S
Dy140 O156 2.351 . S
C141 O152 1.185 . S
C141 O153 1.355 . S
C142 O144 1.185 . S
C142 O145 1.355 . S
Dy143 O147 2.310 . S
Dy143 O150 2.351 . S
Dy143 O152 2.398 . S
Dy143 O153 2.491 . S
Dy143 O154 2.403 . S
Dy143 O155 2.664 . S
Dy143 O157 2.326 . S
O144 Dy140 2.398 . S
O144 C142 1.185 . S
O145 Dy140 2.491 . S
O145 C142 1.355 . S
O146 Dy140 2.403 . S
O146 C148 1.254 . S
O147 Dy140 2.664 . S
O147 Dy143 2.310 . S
O147 C148 1.268 . S
C148 O146 1.254 . S
C148 O147 1.268 . S
C149 O154 1.254 . S
C149 O155 1.268 . S
O150 Dy143 2.351 . S
O150 C158 1.249 . S
O151 Dy140 2.326 . S
O151 C158 1.267 . S
O152 C141 1.185 . S
O152 Dy143 2.398 . S
O153 C141 1.355 . S
O153 Dy143 2.491 . S
O154 Dy143 2.403 . S
O154 C149 1.254 . S
O155 Dy140 2.310 . S
O155 Dy143 2.664 . S
O155 C149 1.268 . S
O156 Dy140 2.351 . S
O156 C159 1.249 . S
O157 Dy143 2.326 . S
O157 C159 1.267 . S
C158 O150 1.249 . S
C158 O151 1.267 . S
C159 O156 1.249 . S
C159 O157 1.267 . S
C160 C161 1.363 . S
C160 C166 1.379 . S
C160 N168 1.356 . S
C161 C160 1.363 . S
C161 C167 1.363 1_554 S
C162 C163 1.363 1_556 S
C162 C167 1.379 . S
C162 N169 1.356 . S
C163 C162 1.363 1_554 S
C163 C166 1.363 . S
N164 C166 1.356 . S
N164 H176 0.984 . S
N164 H177 0.985 . S
N165 C167 1.356 . S
N165 H170 0.984 . S
N165 H171 0.985 . S
C166 C160 1.379 . S
C166 C163 1.363 . S
C166 N164 1.356 . S
C167 C161 1.363 1_556 S
C167 C162 1.379 . S
C167 N165 1.356 . S
N168 C160 1.356 . S
N168 H174 0.984 . S
N168 H175 0.984 . S
N169 C162 1.356 . S
N169 H172 0.984 . S
N169 H173 0.985 . S
H170 N165 0.984 . S
H171 N165 0.985 . S
H172 N169 0.984 . S
H173 N169 0.985 . S
H174 N168 0.984 . S
H175 N168 0.984 . S
H176 N164 0.984 . S
H177 N164 0.985 . S
C178 C179 1.363 1_556 S
C178 C184 1.379 . S
C178 N186 1.356 . S
C179 C178 1.363 1_554 S
C179 C185 1.363 . S
C180 C181 1.363 . S
C180 C185 1.379 . S
C180 N187 1.356 . S
C181 C180 1.363 . S
C181 C184 1.363 1_554 S
N182 C184 1.356 . S
N182 H194 0.984 . S
N182 H195 0.985 . S
N183 C185 1.356 . S
N183 H188 0.984 . S
N183 H189 0.985 . S
C184 C178 1.379 . S
C184 C181 1.363 1_556 S
C184 N182 1.356 . S
C185 C179 1.363 . S
C185 C180 1.379 . S
C185 N183 1.356 . S
N186 C178 1.356 . S
N186 H192 0.984 . S
N186 H193 0.984 . S
N187 C180 1.356 . S
N187 H190 0.984 . S
N187 H191 0.985 . S
H188 N183 0.984 . S
H189 N183 0.985 . S
H190 N187 0.984 . S
H191 N187 0.985 . S
H192 N186 0.984 . S
H193 N186 0.984 . S
H194 N182 0.984 . S
H195 N182 0.985 . S
C196 C197 1.363 . S
C196 C202 1.379 . S
C196 N204 1.356 . S
C197 C196 1.363 . S
C197 C203 1.363 . S
C198 C199 1.363 . S
C198 C203 1.379 . S
C198 N205 1.356 . S
C199 C198 1.363 . S
C199 C202 1.363 . S
N200 C202 1.356 . S
N200 H212 0.984 . S
N200 H213 0.985 . S
N201 C203 1.356 . S
N201 H206 0.984 . S
N201 H207 0.985 . S
C202 C196 1.379 . S
C202 C199 1.363 . S
C202 N200 1.356 . S
C203 C197 1.363 . S
C203 C198 1.379 . S
C203 N201 1.356 . S
N204 C196 1.356 . S
N204 H210 0.984 . S
N204 H211 0.984 . S
N205 C198 1.356 . S
N205 H208 0.984 . S
N205 H209 0.985 . S
H206 N201 0.984 . S
H207 N201 0.985 . S
H208 N205 0.984 . S
H209 N205 0.985 . S
H210 N204 0.984 . S
H211 N204 0.984 . S
H212 N200 0.984 . S
H213 N200 0.985 . S
C214 C215 1.363 . S
C214 C220 1.379 . S
C214 N222 1.356 . S
C215 C214 1.363 . S
C215 C221 1.363 . S
C216 C217 1.363 . S
C216 C221 1.379 . S
C216 N223 1.356 . S
C217 C216 1.363 . S
C217 C220 1.363 . S
N218 C220 1.356 . S
N218 H230 0.984 . S
N218 H231 0.985 . S
N219 C221 1.356 . S
N219 H224 0.984 . S
N219 H225 0.985 . S
C220 C214 1.379 . S
C220 C217 1.363 . S
C220 N218 1.356 . S
C221 C215 1.363 . S
C221 C216 1.379 . S
C221 N219 1.356 . S
N222 C214 1.356 . S
N222 H228 0.984 . S
N222 H229 0.984 . S
N223 C216 1.356 . S
N223 H226 0.984 . S
N223 H227 0.985 . S
H224 N219 0.984 . S
H225 N219 0.985 . S
H226 N223 0.984 . S
H227 N223 0.985 . S
H228 N222 0.984 . S
H229 N222 0.984 . S
H230 N218 0.984 . S
H231 N218 0.985 . S
C232 C233 1.363 1_456 S
C232 C238 1.379 . S
C232 N240 1.356 1_455 S
C233 C232 1.363 1_654 S
C233 C239 1.363 . S
C234 C235 1.363 . S
C234 C239 1.379 1_455 S
C234 N241 1.356 . S
C235 C234 1.363 . S
C235 C238 1.363 1_554 S
N236 C238 1.356 . S
N236 H248 0.984 . S
N236 H249 0.985 . S
N237 C239 1.356 . S
N237 H242 0.984 . S
N237 H243 0.985 . S
C238 C232 1.379 . S
C238 C235 1.363 1_556 S
C238 N236 1.356 . S
C239 C233 1.363 . S
C239 C234 1.379 1_655 S
C239 N237 1.356 . S
N240 C232 1.356 1_655 S
N240 H246 0.984 . S
N240 H247 0.984 . S
N241 C234 1.356 . S
N241 H244 0.984 . S
N241 H245 0.985 . S
H242 N237 0.984 . S
H243 N237 0.985 . S
H244 N241 0.984 . S
H245 N241 0.985 . S
H246 N240 0.984 . S
H247 N240 0.984 . S
H248 N236 0.984 . S
H249 N236 0.985 . S
C250 C251 1.363 1_656 S
C250 C256 1.379 . S
C250 N258 1.356 1_655 S
C251 C250 1.363 1_454 S
C251 C257 1.363 . S
C252 C253 1.363 . S
C252 C257 1.379 1_655 S
C252 N259 1.356 . S
C253 C252 1.363 . S
C253 C256 1.363 1_554 S
N254 C256 1.356 . S
N254 H266 0.984 . S
N254 H267 0.985 . S
N255 C257 1.356 . S
N255 H260 0.984 . S
N255 H261 0.985 . S
C256 C250 1.379 . S
C256 C253 1.363 1_556 S
C256 N254 1.356 . S
C257 C251 1.363 . S
C257 C252 1.379 1_455 S
C257 N255 1.356 . S
N258 C250 1.356 1_455 S
N258 H264 0.984 . S
N258 H265 0.984 . S
N259 C252 1.356 . S
N259 H262 0.984 . S
N259 H263 0.985 . S
H260 N255 0.984 . S
H261 N255 0.985 . S
H262 N259 0.984 . S
H263 N259 0.985 . S
H264 N258 0.984 . S
H265 N258 0.984 . S
H266 N254 0.984 . S
H267 N254 0.985 . S
C268 C269 1.363 . S
C268 C274 1.379 1_455 S
C268 N276 1.356 . S
C269 C268 1.363 . S
C269 C275 1.363 . S
C270 C271 1.363 1_455 S
C270 C275 1.379 . S
C270 N277 1.356 1_455 S
C271 C270 1.363 1_655 S
C271 C274 1.363 . S
N272 C274 1.356 . S
N272 H284 0.984 . S
N272 H285 0.985 . S
N273 C275 1.356 . S
N273 H278 0.984 . S
N273 H279 0.985 . S
C274 C268 1.379 1_655 S
C274 C271 1.363 . S
C274 N272 1.356 . S
C275 C269 1.363 . S
C275 C270 1.379 . S
C275 N273 1.356 . S
N276 C268 1.356 . S
N276 H282 0.984 . S
N276 H283 0.984 . S
N277 C270 1.356 1_655 S
N277 H280 0.984 . S
N277 H281 0.985 . S
H278 N273 0.984 . S
H279 N273 0.985 . S
H280 N277 0.984 . S
H281 N277 0.985 . S
H282 N276 0.984 . S
H283 N276 0.984 . S
H284 N272 0.984 . S
H285 N272 0.985 . S
C286 C287 1.363 . S
C286 C292 1.379 1_655 S
C286 N294 1.356 . S
C287 C286 1.363 . S
C287 C293 1.363 . S
C288 C289 1.363 1_655 S
C288 C293 1.379 . S
C288 N295 1.356 1_655 S
C289 C288 1.363 1_455 S
C289 C292 1.363 . S
N290 C292 1.356 . S
N290 H302 0.984 . S
N290 H303 0.985 . S
N291 C293 1.356 . S
N291 H296 0.984 . S
N291 H297 0.985 . S
C292 C286 1.379 1_455 S
C292 C289 1.363 . S
C292 N290 1.356 . S
C293 C287 1.363 . S
C293 C288 1.379 . S
C293 N291 1.356 . S
N294 C286 1.356 . S
N294 H300 0.984 . S
N294 H301 0.984 . S
N295 C288 1.356 1_455 S
N295 H298 0.984 . S
N295 H299 0.985 . S
H296 N291 0.984 . S
H297 N291 0.985 . S
H298 N295 0.984 . S
H299 N295 0.985 . S
H300 N294 0.984 . S
H301 N294 0.984 . S
H302 N290 0.984 . S
H303 N290 0.985 . S
C304 C305 1.363 . S
C304 C310 1.379 . S
C304 N312 1.356 . S
C305 C304 1.363 . S
C305 C311 1.363 1_454 S
C306 C307 1.363 1_556 S
C306 C311 1.379 . S
C306 N313 1.356 . S
C307 C306 1.363 1_554 S
C307 C310 1.363 1_655 S
N308 C310 1.356 . S
N308 H320 0.984 . S
N308 H321 0.985 1_455 S
N309 C311 1.356 . S
N309 H314 0.984 1_655 S
N309 H315 0.985 . S
C310 C304 1.379 . S
C310 C307 1.363 1_455 S
C310 N308 1.356 . S
C311 C305 1.363 1_656 S
C311 C306 1.379 . S
C311 N309 1.356 . S
N312 C304 1.356 . S
N312 H318 0.984 . S
N312 H319 0.984 . S
N313 C306 1.356 . S
N313 H316 0.984 . S
N313 H317 0.985 . S
H314 N309 0.984 1_455 S
H315 N309 0.985 . S
H316 N313 0.984 . S
H317 N313 0.985 . S
H318 N312 0.984 . S
H319 N312 0.984 . S
H320 N308 0.984 . S
H321 N308 0.985 1_655 S
C322 C323 1.363 1_655 S
C322 C328 1.379 . S
C322 N330 1.356 . S
C323 C322 1.363 1_455 S
C323 C329 1.363 . S
C324 C325 1.363 1_455 S
C324 C329 1.379 . S
C324 N331 1.356 . S
C325 C324 1.363 1_655 S
C325 C328 1.363 . S
N326 C328 1.356 . S
N326 H338 0.984 . S
N326 H339 0.985 . S
N327 C329 1.356 . S
N327 H332 0.984 . S
N327 H333 0.985 . S
C328 C322 1.379 . S
C328 C325 1.363 . S
C328 N326 1.356 . S
C329 C323 1.363 . S
C329 C324 1.379 . S
C329 N327 1.356 . S
N330 C322 1.356 . S
N330 H336 0.984 . S
N330 H337 0.984 1_655 S
N331 C324 1.356 . S
N331 H334 0.984 1_455 S
N331 H335 0.985 . S
H332 N327 0.984 . S
H333 N327 0.985 . S
H334 N331 0.984 1_655 S
H335 N331 0.985 . S
H336 N330 0.984 . S
H337 N330 0.984 1_455 S
H338 N326 0.984 . S
H339 N326 0.985 . S
C340 C341 1.363 1_556 S
C340 C346 1.379 1_565 S
C340 N348 1.356 . S
C341 C340 1.363 1_554 S
C341 C347 1.363 . S
C342 C343 1.363 . S
C342 C347 1.379 1_545 S
C342 N349 1.356 . S
C343 C342 1.363 . S
C343 C346 1.363 1_554 S
N344 C346 1.356 . S
N344 H356 0.984 . S
N344 H357 0.985 . S
N345 C347 1.356 . S
N345 H350 0.984 . S
N345 H351 0.985 . S
C346 C340 1.379 1_545 S
C346 C343 1.363 1_556 S
C346 N344 1.356 . S
C347 C341 1.363 . S
C347 C342 1.379 1_565 S
C347 N345 1.356 . S
N348 C340 1.356 . S
N348 H354 0.984 . S
N348 H355 0.984 . S
N349 C342 1.356 . S
N349 H352 0.984 . S
N349 H353 0.985 . S
H350 N345 0.984 . S
H351 N345 0.985 . S
H352 N349 0.984 . S
H353 N349 0.985 . S
H354 N348 0.984 . S
H355 N348 0.984 . S
H356 N344 0.984 . S
H357 N344 0.985 . S
C358 C359 1.363 . S
C358 C364 1.379 1_545 S
C358 N366 1.356 . S
C359 C358 1.363 . S
C359 C365 1.363 . S
C360 C361 1.363 . S
C360 C365 1.379 1_565 S
C360 N367 1.356 . S
C361 C360 1.363 . S
C361 C364 1.363 . S
N362 C364 1.356 . S
N362 H374 0.984 . S
N362 H375 0.985 . S
N363 C365 1.356 . S
N363 H368 0.984 . S
N363 H369 0.985 . S
C364 C358 1.379 1_565 S
C364 C361 1.363 . S
C364 N362 1.356 . S
C365 C359 1.363 . S
C365 C360 1.379 1_545 S
C365 N363 1.356 . S
N366 C358 1.356 . S
N366 H372 0.984 . S
N366 H373 0.984 . S
N367 C360 1.356 . S
N367 H370 0.984 . S
N367 H371 0.985 . S
H368 N363 0.984 . S
H369 N363 0.985 . S
H370 N367 0.984 . S
H371 N367 0.985 . S
H372 N366 0.984 . S
H373 N366 0.984 . S
H374 N362 0.984 . S
H375 N362 0.985 . S
C376 C377 1.363 . S
C376 C382 1.379 . S
C376 N384 1.356 . S
C377 C376 1.363 . S
C377 C383 1.363 1_554 S
C378 C379 1.363 1_556 S
C378 C383 1.379 . S
C378 N385 1.356 . S
C379 C378 1.363 1_554 S
C379 C382 1.363 . S
N380 C382 1.356 . S
N380 H392 0.984 . S
N380 H393 0.985 . S
N381 C383 1.356 . S
N381 H386 0.984 . S
N381 H387 0.985 . S
C382 C376 1.379 . S
C382 C379 1.363 . S
C382 N380 1.356 . S
C383 C377 1.363 1_556 S
C383 C378 1.379 . S
C383 N381 1.356 . S
N384 C376 1.356 . S
N384 H390 0.984 . S
N384 H391 0.984 . S
N385 C378 1.356 . S
N385 H388 0.984 . S
N385 H389 0.985 . S
H386 N381 0.984 . S
H387 N381 0.985 . S
H388 N385 0.984 . S
H389 N385 0.985 . S
H390 N384 0.984 . S
H391 N384 0.984 . S
H392 N380 0.984 . S
H393 N380 0.985 . S
C394 C395 1.363 . S
C394 C400 1.379 . S
C394 N402 1.356 . S
C395 C394 1.363 . S
C395 C401 1.363 1_554 S
C396 C397 1.363 1_556 S
C396 C401 1.379 . S
C396 N403 1.356 . S
C397 C396 1.363 1_554 S
C397 C400 1.363 . S
N398 C400 1.356 . S
N398 H410 0.984 . S
N398 H411 0.985 . S
N399 C401 1.356 . S
N399 H404 0.984 . S
N399 H405 0.985 . S
C400 C394 1.379 . S
C400 C397 1.363 . S
C400 N398 1.356 . S
C401 C395 1.363 1_556 S
C401 C396 1.379 . S
C401 N399 1.356 . S
N402 C394 1.356 . S
N402 H408 0.984 . S
N402 H409 0.984 . S
N403 C396 1.356 . S
N403 H406 0.984 . S
N403 H407 0.985 . S
H404 N399 0.984 . S
H405 N399 0.985 . S
H406 N403 0.984 . S
H407 N403 0.985 . S
H408 N402 0.984 . S
H409 N402 0.984 . S
H410 N398 0.984 . S
H411 N398 0.985 . S
C412 C413 1.363 . S
C412 C418 1.379 . S
C412 N420 1.356 . S
C413 C412 1.363 . S
C413 C419 1.363 . S
C414 C415 1.363 . S
C414 C419 1.379 . S
C414 N421 1.356 . S
C415 C414 1.363 . S
C415 C418 1.363 . S
N416 C418 1.356 . S
N416 H428 0.984 . S
N416 H429 0.985 . S
N417 C419 1.356 . S
N417 H422 0.984 . S
N417 H423 0.985 . S
C418 C412 1.379 . S
C418 C415 1.363 . S
C418 N416 1.356 . S
C419 C413 1.363 . S
C419 C414 1.379 . S
C419 N417 1.356 . S
N420 C412 1.356 . S
N420 H426 0.984 . S
N420 H427 0.984 . S
N421 C414 1.356 . S
N421 H424 0.984 . S
N421 H425 0.985 . S
H422 N417 0.984 . S
H423 N417 0.985 . S
H424 N421 0.984 . S
H425 N421 0.985 . S
H426 N420 0.984 . S
H427 N420 0.984 . S
H428 N416 0.984 . S
H429 N416 0.985 . S
C430 C431 1.363 . S
C430 C436 1.379 . S
C430 N438 1.356 . S
C431 C430 1.363 . S
C431 C437 1.363 . S
C432 C433 1.363 . S
C432 C437 1.379 . S
C432 N439 1.356 . S
C433 C432 1.363 . S
C433 C436 1.363 . S
N434 C436 1.356 . S
N434 H446 0.984 . S
N434 H447 0.985 . S
N435 C437 1.356 . S
N435 H440 0.984 . S
N435 H441 0.985 . S
C436 C430 1.379 . S
C436 C433 1.363 . S
C436 N434 1.356 . S
C437 C431 1.363 . S
C437 C432 1.379 . S
C437 N435 1.356 . S
N438 C430 1.356 . S
N438 H444 0.984 . S
N438 H445 0.984 . S
N439 C432 1.356 . S
N439 H442 0.984 . S
N439 H443 0.985 . S
H440 N435 0.984 . S
H441 N435 0.985 . S
H442 N439 0.984 . S
H443 N439 0.985 . S
H444 N438 0.984 . S
H445 N438 0.984 . S
H446 N434 0.984 . S
H447 N434 0.985 . S
C448 C449 1.363 . S
C448 C454 1.379 . S
C448 N456 1.356 . S
C449 C448 1.363 . S
C449 C455 1.363 1_455 S
C450 C451 1.363 . S
C450 C455 1.379 . S
C450 N457 1.356 . S
C451 C450 1.363 . S
C451 C454 1.363 1_655 S
N452 C454 1.356 . S
N452 H464 0.984 . S
N452 H465 0.985 . S
N453 C455 1.356 . S
N453 H458 0.984 . S
N453 H459 0.985 . S
C454 C448 1.379 . S
C454 C451 1.363 1_455 S
C454 N452 1.356 . S
C455 C449 1.363 1_655 S
C455 C450 1.379 . S
C455 N453 1.356 . S
N456 C448 1.356 . S
N456 H462 0.984 . S
N456 H463 0.984 . S
N457 C450 1.356 . S
N457 H460 0.984 . S
N457 H461 0.985 . S
H458 N453 0.984 . S
H459 N453 0.985 . S
H460 N457 0.984 . S
H461 N457 0.985 . S
H462 N456 0.984 . S
H463 N456 0.984 . S
H464 N452 0.984 . S
H465 N452 0.985 . S
C466 C467 1.363 1_455 S
C466 C472 1.379 . S
C466 N474 1.356 . S
C467 C466 1.363 1_655 S
C467 C473 1.363 . S
C468 C469 1.363 1_655 S
C468 C473 1.379 . S
C468 N475 1.356 . S
C469 C468 1.363 1_455 S
C469 C472 1.363 . S
N470 C472 1.356 . S
N470 H482 0.984 . S
N470 H483 0.985 . S
N471 C473 1.356 . S
N471 H476 0.984 . S
N471 H477 0.985 . S
C472 C466 1.379 . S
C472 C469 1.363 . S
C472 N470 1.356 . S
C473 C467 1.363 . S
C473 C468 1.379 . S
C473 N471 1.356 . S
N474 C466 1.356 . S
N474 H480 0.984 . S
N474 H481 0.984 . S
N475 C468 1.356 . S
N475 H478 0.984 . S
N475 H479 0.985 . S
H476 N471 0.984 . S
H477 N471 0.985 . S
H478 N475 0.984 . S
H479 N475 0.985 . S
H480 N474 0.984 . S
H481 N474 0.984 . S
H482 N470 0.984 . S
H483 N470 0.985 . S
C484 C485 1.363 1_455 S
C484 C490 1.379 . S
C484 N492 1.356 . S
C485 C484 1.363 1_655 S
C485 C491 1.363 . S
C486 C487 1.363 1_655 S
C486 C491 1.379 . S
C486 N493 1.356 . S
C487 C486 1.363 1_455 S
C487 C490 1.363 . S
N488 C490 1.356 . S
N488 H500 0.984 . S
N488 H501 0.985 . S
N489 C491 1.356 . S
N489 H494 0.984 . S
N489 H495 0.985 . S
C490 C484 1.379 . S
C490 C487 1.363 . S
C490 N488 1.356 . S
C491 C485 1.363 . S
C491 C486 1.379 . S
C491 N489 1.356 . S
N492 C484 1.356 . S
N492 H498 0.984 . S
N492 H499 0.984 . S
N493 C486 1.356 . S
N493 H496 0.984 . S
N493 H497 0.985 . S
H494 N489 0.984 . S
H495 N489 0.985 . S
H496 N493 0.984 . S
H497 N493 0.985 . S
H498 N492 0.984 . S
H499 N492 0.984 . S
H500 N488 0.984 . S
H501 N488 0.985 . S
C502 C503 1.363 . S
C502 C508 1.379 . S
C502 N510 1.356 . S
C503 C502 1.363 . S
C503 C509 1.363 1_655 S
C504 C505 1.363 . S
C504 C509 1.379 . S
C504 N511 1.356 . S
C505 C504 1.363 . S
C505 C508 1.363 1_455 S
N506 C508 1.356 . S
N506 H518 0.984 . S
N506 H519 0.985 . S
N507 C509 1.356 . S
N507 H512 0.984 . S
N507 H513 0.985 . S
C508 C502 1.379 . S
C508 C505 1.363 1_655 S
C508 N506 1.356 . S
C509 C503 1.363 1_455 S
C509 C504 1.379 . S
C509 N507 1.356 . S
N510 C502 1.356 . S
N510 H516 0.984 . S
N510 H517 0.984 . S
N511 C504 1.356 . S
N511 H514 0.984 . S
N511 H515 0.985 . S
H512 N507 0.984 . S
H513 N507 0.985 . S
H514 N511 0.984 . S
H515 N511 0.985 . S
H516 N510 0.984 . S
H517 N510 0.984 . S
H518 N506 0.984 . S
H519 N506 0.985 . S
C520 C521 1.363 . S
C520 C526 1.379 . S
C520 N528 1.356 . S
C521 C520 1.363 . S
C521 C527 1.363 . S
C522 C523 1.363 . S
C522 C527 1.379 . S
C522 N529 1.356 . S
C523 C522 1.363 . S
C523 C526 1.363 . S
N524 C526 1.356 . S
N524 H536 0.984 . S
N524 H537 0.985 . S
N525 C527 1.356 . S
N525 H530 0.984 . S
N525 H531 0.985 . S
C526 C520 1.379 . S
C526 C523 1.363 . S
C526 N524 1.356 . S
C527 C521 1.363 . S
C527 C522 1.379 . S
C527 N525 1.356 . S
N528 C520 1.356 . S
N528 H534 0.984 . S
N528 H535 0.984 . S
N529 C522 1.356 . S
N529 H532 0.984 . S
N529 H533 0.985 . S
H530 N525 0.984 . S
H531 N525 0.985 . S
H532 N529 0.984 . S
H533 N529 0.985 . S
H534 N528 0.984 . S
H535 N528 0.984 . S
H536 N524 0.984 . S
H537 N524 0.985 . S
C538 C539 1.363 . S
C538 C544 1.379 . S
C538 N546 1.356 . S
C539 C538 1.363 . S
C539 C545 1.363 . S
C540 C541 1.363 . S
C540 C545 1.379 . S
C540 N547 1.356 . S
C541 C540 1.363 . S
C541 C544 1.363 . S
N542 C544 1.356 . S
N542 H554 0.984 . S
N542 H555 0.985 . S
N543 C545 1.356 . S
N543 H548 0.984 . S
N543 H549 0.985 . S
C544 C538 1.379 . S
C544 C541 1.363 . S
C544 N542 1.356 . S
C545 C539 1.363 . S
C545 C540 1.379 . S
C545 N543 1.356 . S
N546 C538 1.356 . S
N546 H552 0.984 . S
N546 H553 0.984 . S
N547 C540 1.356 . S
N547 H550 0.984 . S
N547 H551 0.985 . S
H548 N543 0.984 . S
H549 N543 0.985 . S
H550 N547 0.984 . S
H551 N547 0.985 . S
H552 N546 0.984 . S
H553 N546 0.984 . S
H554 N542 0.984 . S
H555 N542 0.985 . S
C556 C557 1.363 . S
C556 C562 1.379 . S
C556 N564 1.356 . S
C557 C556 1.363 . S
C557 C563 1.363 . S
C558 C559 1.363 . S
C558 C563 1.379 . S
C558 N565 1.356 . S
C559 C558 1.363 . S
C559 C562 1.363 . S
N560 C562 1.356 . S
N560 H572 0.984 . S
N560 H573 0.985 . S
N561 C563 1.356 . S
N561 H566 0.984 . S
N561 H567 0.985 . S
C562 C556 1.379 . S
C562 C559 1.363 . S
C562 N560 1.356 . S
C563 C557 1.363 . S
C563 C558 1.379 . S
C563 N561 1.356 . S
N564 C556 1.356 . S
N564 H570 0.984 . S
N564 H571 0.984 . S
N565 C558 1.356 . S
N565 H568 0.984 . S
N565 H569 0.985 . S
H566 N561 0.984 . S
H567 N561 0.985 . S
H568 N565 0.984 . S
H569 N565 0.985 . S
H570 N564 0.984 . S
H571 N564 0.984 . S
H572 N560 0.984 . S
H573 N560 0.985 . S
C574 C575 1.363 . S
C574 C580 1.379 . S
C574 N582 1.356 . S
C575 C574 1.363 . S
C575 C581 1.363 . S
C576 C577 1.363 . S
C576 C581 1.379 . S
C576 N583 1.356 . S
C577 C576 1.363 . S
C577 C580 1.363 . S
N578 C580 1.356 . S
N578 H590 0.984 . S
N578 H591 0.985 . S
N579 C581 1.356 . S
N579 H584 0.984 . S
N579 H585 0.985 . S
C580 C574 1.379 . S
C580 C577 1.363 . S
C580 N578 1.356 . S
C581 C575 1.363 . S
C581 C576 1.379 . S
C581 N579 1.356 . S
N582 C574 1.356 . S
N582 H588 0.984 . S
N582 H589 0.984 . S
N583 C576 1.356 . S
N583 H586 0.984 . S
N583 H587 0.985 . S
H584 N579 0.984 . S
H585 N579 0.985 . S
H586 N583 0.984 . S
H587 N583 0.985 . S
H588 N582 0.984 . S
H589 N582 0.984 . S
H590 N578 0.984 . S
H591 N578 0.985 . S
C161 C19 1.779 . S
C163 C18 1.779 . S
C179 C39 1.779 . S
C181 C38 1.779 . S
C197 C59 1.779 . S
C199 C58 1.779 . S
C215 C79 1.779 . S
C217 C78 1.779 . S
C233 C99 1.779 . S
C235 C98 1.779 . S
C251 C118 1.779 . S
C253 C119 1.779 . S
C269 C139 1.779 . S
C271 C138 1.779 . S
C287 C158 1.779 . S
C289 C159 1.779 . S
C305 C21 1.800 . S
C307 C2 1.800 . S
C323 C62 1.801 . S
C325 C41 1.801 . S
C341 C82 1.800 . S
C343 C101 1.800 . S
C359 C121 1.800 . S
C361 C142 1.800 . S
C377 C1 1.511 . S
C379 C102 1.511 . S
C395 C81 1.511 . S
C397 C22 1.511 . S
C413 C42 1.511 . S
C415 C141 1.511 . S
C431 C61 1.511 . S
C433 C122 1.511 . S
C449 C8 1.507 . S
C451 C68 1.507 . S
C467 C28 1.551 . S
C469 C48 1.551 . S
C485 C29 1.507 . S
C487 C49 1.507 . S
C503 C69 1.551 . S
C505 C9 1.551 . S
C521 C88 1.507 . S
C523 C148 1.507 . S
C539 C108 1.551 . S
C541 C128 1.551 . S
C557 C109 1.507 . S
C559 C129 1.507 . S
C575 C149 1.551 . S
C577 C89 1.551 . S
