# Generated by pormake.
# Topology uoc, (4)-cn, num edge types: 1
# Building blocks:
#     Node 0, Type 0, BuildingBlock: GALJAG_clean_sbu_0, # of connection points: 4
#     Node 1, Type 0, BuildingBlock: GALJAG_clean_sbu_0, # of connection points: 4
#     Node 2, Type 0, BuildingBlock: GALJAG_clean_sbu_0, # of connection points: 4
#     Node 3, Type 0, BuildingBlock: GALJAG_clean_sbu_0, # of connection points: 4
#     Node 4, Type 0, BuildingBlock: GALJAG_clean_sbu_0, # of connection points: 4
#     Node 5, Type 0, BuildingBlock: GALJAG_clean_sbu_0, # of connection points: 4
#     Node 6, Type 0, BuildingBlock: GALJAG_clean_sbu_0, # of connection points: 4
#     Node 7, Type 0, BuildingBlock: GALJAG_clean_sbu_0, # of connection points: 4
#     Edge 8, Type (0, 0), BuildingBlock: UVAHIK_clean_linker_0, # of connection points: 2
#     Edge 9, Type (0, 0), BuildingBlock: UVAHIK_clean_linker_0, # of connection points: 2
#     Edge 10, Type (0, 0), BuildingBlock: UVAHIK_clean_linker_0, # of connection points: 2
#     Edge 11, Type (0, 0), BuildingBlock: UVAHIK_clean_linker_0, # of connection points: 2
#     Edge 12, Type (0, 0), BuildingBlock: UVAHIK_clean_linker_0, # of connection points: 2
#     Edge 13, Type (0, 0), BuildingBlock: UVAHIK_clean_linker_0, # of connection points: 2
#     Edge 14, Type (0, 0), BuildingBlock: UVAHIK_clean_linker_0, # of connection points: 2
#     Edge 15, Type (0, 0), BuildingBlock: UVAHIK_clean_linker_0, # of connection points: 2
#     Edge 16, Type (0, 0), BuildingBlock: UVAHIK_clean_linker_0, # of connection points: 2
#     Edge 17, Type (0, 0), BuildingBlock: UVAHIK_clean_linker_0, # of connection points: 2
#     Edge 18, Type (0, 0), BuildingBlock: UVAHIK_clean_linker_0, # of connection points: 2
#     Edge 19, Type (0, 0), BuildingBlock: UVAHIK_clean_linker_0, # of connection points: 2
#     Edge 20, Type (0, 0), BuildingBlock: UVAHIK_clean_linker_0, # of connection points: 2
#     Edge 21, Type (0, 0), BuildingBlock: UVAHIK_clean_linker_0, # of connection points: 2
#     Edge 22, Type (0, 0), BuildingBlock: UVAHIK_clean_linker_0, # of connection points: 2
#     Edge 23, Type (0, 0), BuildingBlock: UVAHIK_clean_linker_0, # of connection points: 2
# Relax obj value: 0.017
# Max RMSD: 0.050
# Mean RMSD: 0.050
data_MOF--net-uoc--node1-GALJAG_clean_sbu_0--edge1-UVAHIK_clean_linker_0
_symmetry_space_group_name_H-M    P1
_symmetry_Int_Tables_number       1
_symmetry_cell_setting            triclinic
loop_
_symmetry_equiv_pos_as_xyz
'x, y, z'
_cell_length_a     35.84397
_cell_length_b     35.830696
_cell_length_c     71.772571
_cell_angle_alpha  89.96393
_cell_angle_beta   89.992024
_cell_angle_gamma 90.361938
loop_
_atom_site_label
_atom_site_type_symbol
_atom_site_fract_x
_atom_site_fract_y
_atom_site_fract_z
_atom_type_partial_charge
In0 In 0.11658 0.25167 0.11954 0.0
O1 O 0.0652 0.28913 0.12194 0.0
O2 O 0.11853 0.31506 0.12038 0.0
C3 C 0.08355 0.18389 0.11942 0.0
C4 C 0.15402 0.25084 0.15206 0.0
C5 C 0.14598 0.25128 0.08501 0.0
O6 O 0.0651 0.21378 0.12028 0.0
O7 O 0.11846 0.18832 0.11865 0.0
O8 O 0.16574 0.24798 0.09945 0.0
O9 O 0.11153 0.25492 0.08802 0.0
C10 C 0.08375 0.31919 0.12169 0.0
O11 O 0.16955 0.25894 0.1368 0.0
O12 O 0.11974 0.24306 0.15089 0.0
In13 In 0.74882 0.61407 0.36969 0.0
O14 O 0.75826 0.66461 0.35089 0.0
O15 O 0.73459 0.61571 0.33884 0.0
C16 C 0.75174 0.64742 0.40327 0.0
C17 C 0.81594 0.58118 0.36622 0.0
C18 C 0.68185 0.57985 0.37265 0.0
O19 O 0.73967 0.6638 0.38894 0.0
O20 O 0.76236 0.61437 0.40064 0.0
O21 O 0.71188 0.5617 0.37137 0.0
O22 O 0.68587 0.61484 0.37254 0.0
C23 C 0.74566 0.64883 0.33647 0.0
O24 O 0.78602 0.56244 0.36739 0.0
O25 O 0.81175 0.61607 0.36674 0.0
In26 In 0.38251 0.25151 0.61753 0.0
O27 O 0.43361 0.21363 0.61809 0.0
O28 O 0.37992 0.1881 0.6183 0.0
C29 C 0.41467 0.3197 0.6159 0.0
C30 C 0.35152 0.25349 0.65167 0.0
C31 C 0.34886 0.24912 0.58404 0.0
O32 O 0.43351 0.29003 0.616 0.0
O33 O 0.37982 0.31486 0.61664 0.0
O34 O 0.33059 0.24989 0.59908 0.0
O35 O 0.38383 0.24947 0.58598 0.0
C36 C 0.4148 0.18371 0.61842 0.0
O37 O 0.33212 0.25241 0.63699 0.0
O38 O 0.38631 0.25366 0.64904 0.0
In39 In 0.74758 0.8803 0.8692 0.0
O40 O 0.73926 0.8278 0.85171 0.0
O41 O 0.75659 0.87748 0.8379 0.0
C42 C 0.74659 0.84988 0.90351 0.0
C43 C 0.68104 0.91506 0.8674 0.0
C44 C 0.81592 0.91205 0.86908 0.0
O45 O 0.74981 0.83046 0.88895 0.0
O46 O 0.7438 0.8845 0.90072 0.0
O47 O 0.78648 0.93077 0.86691 0.0
O48 O 0.81078 0.87747 0.87134 0.0
C49 C 0.74795 0.84342 0.83655 0.0
O50 O 0.71141 0.9328 0.86897 0.0
O51 O 0.68438 0.88011 0.86671 0.0
In52 In 0.61662 0.75269 0.61848 0.0
O53 O 0.56459 0.78949 0.61842 0.0
O54 O 0.61768 0.81591 0.62054 0.0
C55 C 0.58257 0.68567 0.61545 0.0
C56 C 0.64789 0.75033 0.65258 0.0
C57 C 0.65404 0.75308 0.58594 0.0
O58 O 0.5644 0.71569 0.61675 0.0
O59 O 0.61755 0.6897 0.6156 0.0
O60 O 0.66897 0.74348 0.6011 0.0
O61 O 0.62038 0.76278 0.58723 0.0
C62 C 0.58277 0.81969 0.61979 0.0
O63 O 0.66492 0.76305 0.63855 0.0
O64 O 0.61516 0.73897 0.64942 0.0
In65 In 0.24904 0.11399 0.86752 0.0
O66 O 0.25037 0.16577 0.84893 0.0
O67 O 0.24944 0.1124 0.83596 0.0
C68 C 0.24641 0.14539 0.90154 0.0
C69 C 0.31732 0.08279 0.86751 0.0
C70 C 0.1816 0.08027 0.86692 0.0
O71 O 0.24656 0.16464 0.8868 0.0
O72 O 0.24777 0.1106 0.89905 0.0
O73 O 0.21157 0.06216 0.86836 0.0
O74 O 0.18577 0.11517 0.86576 0.0
C75 C 0.25023 0.14736 0.83393 0.0
O76 O 0.28775 0.06366 0.86607 0.0
O77 O 0.31236 0.11747 0.86901 0.0
In78 In 0.882 0.75017 0.12061 0.0
O79 O 0.82983 0.743 0.13842 0.0
O80 O 0.88039 0.7581 0.15204 0.0
C81 C 0.85053 0.7499 0.08655 0.0
C82 C 0.91558 0.68297 0.12238 0.0
C83 C 0.9145 0.81823 0.12005 0.0
O84 O 0.83162 0.75316 0.10128 0.0
O85 O 0.88519 0.74671 0.08904 0.0
O86 O 0.93319 0.78848 0.12068 0.0
O87 O 0.87959 0.81354 0.11973 0.0
C88 C 0.8461 0.75058 0.15355 0.0
O89 O 0.93384 0.71321 0.12219 0.0
O90 O 0.88069 0.68676 0.12169 0.0
In91 In 0.24728 0.38123 0.36883 0.0
O92 O 0.24032 0.33092 0.34961 0.0
O93 O 0.26175 0.3813 0.33801 0.0
C94 C 0.24314 0.34829 0.4025 0.0
C95 C 0.18046 0.41511 0.36553 0.0
C96 C 0.31527 0.41316 0.37187 0.0
O97 O 0.24838 0.32997 0.38772 0.0
O98 O 0.23989 0.38302 0.40022 0.0
O99 O 0.28586 0.43215 0.37014 0.0
O100 O 0.31023 0.37826 0.37214 0.0
C101 C 0.2523 0.34778 0.33535 0.0
O102 O 0.2106 0.43333 0.36698 0.0
O103 O 0.18422 0.38018 0.36569 0.0
C104 C 0.13774 0.24914 0.05052 0.0
C105 C 0.16159 0.24931 0.06603 0.0
C106 C 0.15208 0.24451 0.03261 0.0
C107 C 0.18987 0.24844 -0.00497 0.0
H108 H 0.26419 0.17109 0.98951 0.0
C109 C 0.24164 0.2008 0.92266 0.0
C110 C 0.24358 0.16195 0.92029 0.0
C111 C 0.23705 0.21605 0.94044 0.0
C112 C 0.24343 0.19277 0.99081 0.0
H113 H 0.21927 0.24637 0.07496 0.0
H114 H 0.24449 0.23887 0.04358 0.0
H115 H 0.24502 0.19034 0.02053 0.0
H116 H 0.24297 0.10864 0.93461 0.0
H117 H 0.23433 0.13505 0.96547 0.0
H118 H 0.18677 0.24931 0.96528 0.0
C119 C 0.21461 0.24162 0.0453 0.0
C120 C 0.23278 0.20417 0.00861 0.0
C121 C 0.20021 0.24607 0.06325 0.0
C122 C 0.24164 0.1387 0.93601 0.0
C123 C 0.23699 0.15389 0.95373 0.0
C124 C 0.2004 0.2369 0.97721 0.0
C125 C 0.19064 0.24016 0.0298 0.0
C126 C 0.20524 0.23153 0.01093 0.0
C127 C 0.23431 0.19271 0.95615 0.0
C128 C 0.22664 0.20828 0.97492 0.0
H129 H 0.10782 0.25155 0.05225 0.0
H130 H 0.13274 0.24295 0.02104 0.0
H131 H 0.16901 0.27002 -0.00366 0.0
H132 H 0.24321 0.21938 0.91077 0.0
H133 H 0.23546 0.24609 0.94187 0.0
C134 C 0.72415 0.65199 0.3035 0.0
C135 C 0.74589 0.66674 0.31801 0.0
C136 C 0.72688 0.66673 0.28555 0.0
C137 C 0.76778 0.74562 0.25793 0.0
H138 H 0.76979 0.67101 0.21883 0.0
C139 C 0.84501 0.762 0.18784 0.0
C140 C 0.8271 0.74872 0.17173 0.0
C141 C 0.82847 0.75727 0.2053 0.0
C142 C 0.76869 0.69227 0.22954 0.0
H143 H 0.7866 0.70914 0.32541 0.0
H144 H 0.79273 0.73387 0.29395 0.0
H145 H 0.75291 0.65266 0.25029 0.0
H146 H 0.77733 0.72141 0.16109 0.0
H147 H 0.74873 0.7125 0.19173 0.0
H148 H 0.78586 0.7847 0.2371 0.0
C149 C 0.77272 0.71166 0.29641 0.0
C150 C 0.75886 0.68183 0.24761 0.0
C151 C 0.76945 0.69733 0.31445 0.0
C152 C 0.79178 0.73182 0.1733 0.0
C153 C 0.77546 0.72666 0.19079 0.0
C154 C 0.77816 0.75594 0.23987 0.0
C155 C 0.75201 0.69604 0.28165 0.0
C156 C 0.7588 0.70823 0.26212 0.0
C157 C 0.79397 0.7388 0.20696 0.0
C158 C 0.77917 0.72922 0.22559 0.0
H159 H 0.70539 0.62867 0.30597 0.0
H160 H 0.7098 0.6546 0.27465 0.0
H161 H 0.76737 0.76684 0.26866 0.0
H162 H 0.87219 0.77527 0.187 0.0
H163 H 0.84346 0.76658 0.21757 0.0
C164 C 0.35316 0.25051 0.54942 0.0
C165 C 0.33101 0.24929 0.56553 0.0
C166 C 0.33672 0.25319 0.53188 0.0
C167 C 0.29623 0.24467 0.49541 0.0
H168 H 0.21769 0.31788 0.49044 0.0
C169 C 0.24592 0.29207 0.42316 0.0
C170 C 0.24287 0.33091 0.42113 0.0
C171 C 0.2488 0.27613 0.44088 0.0
C172 C 0.23957 0.2973 0.49159 0.0
H173 H 0.27424 0.24851 0.57595 0.0
H174 H 0.24533 0.25278 0.54516 0.0
H175 H 0.23911 0.29997 0.52134 0.0
H176 H 0.239 0.38342 0.43597 0.0
H177 H 0.24498 0.35592 0.46675 0.0
H178 H 0.29853 0.24387 0.46569 0.0
C179 C 0.27547 0.25219 0.54614 0.0
C180 C 0.25153 0.28666 0.50932 0.0
C181 C 0.29199 0.24962 0.56374 0.0
C182 C 0.24134 0.35338 0.43711 0.0
C183 C 0.24443 0.33752 0.45479 0.0
C184 C 0.28447 0.25551 0.47769 0.0
C185 C 0.2977 0.25452 0.53002 0.0
C186 C 0.28083 0.26111 0.51142 0.0
C187 C 0.24887 0.29877 0.45689 0.0
C188 C 0.25682 0.28283 0.47557 0.0
H189 H 0.38332 0.25034 0.55036 0.0
H190 H 0.35475 0.25561 0.51982 0.0
H191 H 0.31836 0.22436 0.49656 0.0
H192 H 0.24687 0.27406 0.41105 0.0
H193 H 0.25164 0.24614 0.44202 0.0
C194 C 0.72716 0.78979 0.81682 0.0
C195 C 0.74593 0.82416 0.81845 0.0
C196 C 0.72169 0.77364 0.79932 0.0
C197 C 0.75243 0.7749 0.75038 0.0
H198 H 0.64819 0.75601 0.73922 0.0
C199 C 0.69567 0.77221 0.67545 0.0
C200 C 0.66431 0.75006 0.67138 0.0
C201 C 0.70932 0.77432 0.69364 0.0
C202 C 0.67756 0.76019 0.74211 0.0
H203 H 0.77553 0.86756 0.80332 0.0
H204 H 0.76631 0.83911 0.77276 0.0
H205 H 0.66669 0.77095 0.7709 0.0
H206 H 0.62389 0.71105 0.68277 0.0
H207 H 0.64847 0.71356 0.7144 0.0
H208 H 0.76337 0.7644 0.72157 0.0
C209 C 0.75577 0.82473 0.78497 0.0
C210 C 0.68811 0.76887 0.7603 0.0
C211 C 0.7608 0.84112 0.80243 0.0
C212 C 0.64784 0.72873 0.68561 0.0
C213 C 0.66184 0.73035 0.70374 0.0
C214 C 0.74196 0.7657 0.73219 0.0
C215 C 0.73539 0.79132 0.78322 0.0
C216 C 0.72547 0.77714 0.76452 0.0
C217 C 0.69221 0.75385 0.70808 0.0
C218 C 0.70425 0.75914 0.72774 0.0
H219 H 0.71548 0.77609 0.82897 0.0
H220 H 0.70604 0.74775 0.79831 0.0
H221 H 0.78149 0.78086 0.75335 0.0
H222 H 0.70883 0.789 0.66471 0.0
H223 H 0.73237 0.79315 0.69646 0.0
C224 C 0.27451 0.34678 0.30246 0.0
C225 C 0.25321 0.33053 0.31675 0.0
C226 C 0.27272 0.33265 0.28436 0.0
C227 C 0.23536 0.25332 0.25584 0.0
H228 H 0.23016 0.32953 0.21755 0.0
C229 C 0.15689 0.23773 0.18616 0.0
C230 C 0.17375 0.25235 0.17006 0.0
C231 C 0.17394 0.24208 0.20351 0.0
C232 C 0.2322 0.30785 0.22802 0.0
H233 H 0.21436 0.28607 0.32361 0.0
H234 H 0.2098 0.26233 0.29191 0.0
H235 H 0.24661 0.34707 0.24916 0.0
H236 H 0.22223 0.28172 0.15928 0.0
H237 H 0.25172 0.29002 0.18976 0.0
H238 H 0.21853 0.21456 0.23463 0.0
C239 C 0.22877 0.28531 0.29464 0.0
C240 C 0.24178 0.31783 0.24618 0.0
C241 C 0.23113 0.29905 0.31282 0.0
C242 C 0.2086 0.27024 0.17149 0.0
C243 C 0.22542 0.27505 0.18889 0.0
C244 C 0.22522 0.24344 0.23768 0.0
C245 C 0.24896 0.30242 0.2801 0.0
C246 C 0.24286 0.29082 0.26042 0.0
C247 C 0.20792 0.26154 0.20508 0.0
C248 C 0.22299 0.27075 0.2237 0.0
H249 H 0.29216 0.37082 0.3052 0.0
H250 H 0.28939 0.34596 0.27364 0.0
H251 H 0.23663 0.23166 0.26634 0.0
H252 H 0.13008 0.22367 0.18543 0.0
H253 H 0.1597 0.23172 0.21581 0.0
C254 C 0.65714 0.76538 0.55175 0.0
C255 C 0.67349 0.7506 0.56791 0.0
C256 C 0.67363 0.75975 0.53437 0.0
C257 C 0.72857 0.69092 0.51032 0.0
H258 H 0.73597 0.76528 0.4712 0.0
C259 C 0.77204 0.64871 0.43649 0.0
C260 C 0.75168 0.66474 0.42187 0.0
C261 C 0.76968 0.66328 0.45447 0.0
C262 C 0.73384 0.74413 0.48193 0.0
H263 H 0.72062 0.71973 0.57873 0.0
H264 H 0.74915 0.70936 0.54823 0.0
H265 H 0.71848 0.78422 0.5027 0.0
H266 H 0.71376 0.70912 0.41436 0.0
H267 H 0.70831 0.73368 0.44585 0.0
H268 H 0.74172 0.65046 0.48962 0.0
C269 C 0.72364 0.72534 0.54906 0.0
C270 C 0.72404 0.75505 0.49997 0.0
C271 C 0.70738 0.73136 0.56648 0.0
C272 C 0.72982 0.6963 0.4254 0.0
C273 C 0.72696 0.71052 0.44345 0.0
C274 C 0.73787 0.67992 0.49229 0.0
C275 C 0.70653 0.7389 0.53283 0.0
C276 C 0.72083 0.72843 0.51425 0.0
C277 C 0.74635 0.69377 0.45829 0.0
C278 C 0.74008 0.70628 0.47779 0.0
H279 H 0.63107 0.78045 0.55248 0.0
H280 H 0.65971 0.77022 0.52205 0.0
H281 H 0.72574 0.66975 0.52103 0.0
H282 H 0.78947 0.6246 0.43407 0.0
H283 H 0.78568 0.65019 0.46545 0.0
C284 C 0.29623 0.25165 0.67298 0.0
C285 C 0.33508 0.25288 0.6705 0.0
C286 C 0.28101 0.24825 0.69084 0.0
C287 C 0.26024 0.21138 0.72751 0.0
H288 H 0.30816 0.25428 0.77102 0.0
C289 C 0.2527 0.14267 0.79933 0.0
C290 C 0.25203 0.16501 0.81538 0.0
C291 C 0.25648 0.15886 0.78177 0.0
C292 C 0.29396 0.24255 0.75904 0.0
H293 H 0.38845 0.25284 0.68472 0.0
H294 H 0.36209 0.24619 0.71574 0.0
H295 H 0.32646 0.27535 0.74005 0.0
H296 H 0.25362 0.22188 0.82566 0.0
H297 H 0.25998 0.25035 0.79482 0.0
H298 H 0.22792 0.1784 0.74649 0.0
C299 C 0.34322 0.24845 0.70402 0.0
C300 C 0.30477 0.25431 0.74128 0.0
C301 C 0.35838 0.25193 0.6862 0.0
C302 C 0.25423 0.20398 0.81351 0.0
C303 C 0.258 0.22025 0.79588 0.0
C304 C 0.24933 0.19974 0.74527 0.0
C305 C 0.30439 0.24597 0.70654 0.0
C306 C 0.28886 0.23801 0.72531 0.0
C307 C 0.25957 0.1978 0.77983 0.0
C308 C 0.26689 0.21433 0.76121 0.0
H309 H 0.2776 0.25257 0.6611 0.0
H310 H 0.25097 0.24685 0.69234 0.0
H311 H 0.24752 0.19808 0.71553 0.0
H312 H 0.2511 0.11253 0.80034 0.0
H313 H 0.25826 0.14069 0.76975 0.0
C314 C 0.7949 0.75399 0.06562 0.0
C315 C 0.83372 0.75126 0.06782 0.0
C316 C 0.77935 0.75765 0.04786 0.0
C317 C 0.75855 0.7933 0.01099 0.0
H318 H 0.80354 0.74738 0.96763 0.0
C319 C 0.74837 0.85718 0.93802 0.0
C320 C 0.74779 0.83371 0.92238 0.0
C321 C 0.75233 0.84227 0.95586 0.0
C322 C 0.79011 0.75997 0.97957 0.0
H323 H 0.88664 0.7492 0.05324 0.0
H324 H 0.85974 0.75642 0.02238 0.0
H325 H 0.82252 0.72773 -0.00137 0.0
H326 H 0.74923 0.77616 0.91311 0.0
H327 H 0.75552 0.74996 0.94438 0.0
H328 H 0.72608 0.82548 0.99192 0.0
C329 C 0.84112 0.75504 0.03425 0.0
C330 C 0.80138 0.74904 -0.00264 0.0
C331 C 0.85661 0.75121 0.05196 0.0
C332 C 0.74989 0.79492 0.92494 0.0
C333 C 0.75364 0.77995 0.94282 0.0
C334 C 0.7471 0.80405 0.9932 0.0
C335 C 0.80235 0.75878 0.03199 0.0
C336 C 0.78655 0.76638 0.01326 0.0
C337 C 0.75554 0.80352 0.95846 0.0
C338 C 0.76355 0.7883 0.97728 0.0
H339 H 0.77658 0.75386 0.07762 0.0
H340 H 0.74935 0.75998 0.04658 0.0
H341 H 0.74665 0.80738 0.02292 0.0
H342 H 0.74685 0.88721 0.93647 0.0
H343 H 0.75429 0.86131 0.96753 0.0
C344 C 0.08798 0.11435 0.11885 0.0
C345 C 0.06586 0.14655 0.11935 0.0
C346 C 0.07146 0.07895 0.11879 0.0
C347 C 0.98389 0.0294 0.13052 0.0
H348 H 0.02463 0.95181 0.09898 0.0
C349 C 0.90959 0.88775 0.11966 0.0
C350 C 0.93193 0.85568 0.11981 0.0
C351 C 0.92589 0.92326 0.11952 0.0
C352 C 0.01318 0.97307 0.10801 0.0
H353 H 0.0091 0.16702 0.12011 0.0
H354 H 0.98015 0.10513 0.11979 0.0
H355 H 0.05287 0.0139 0.09877 0.0
H356 H 0.98884 0.83557 0.11989 0.0
H357 H 0.01739 0.89766 0.11973 0.0
H358 H 0.94413 0.98855 0.13972 0.0
C359 C 0.0103 0.10723 0.1197 0.0
C360 C 0.02935 0.00865 0.10789 0.0
C361 C 0.02686 0.14267 0.11977 0.0
C362 C 0.97092 0.8598 0.11975 0.0
C363 C 0.98725 0.89534 0.11956 0.0
C364 C 0.96768 0.99383 0.13061 0.0
C365 C 0.03242 0.07495 0.1192 0.0
C366 C 0.01494 0.03722 0.11917 0.0
C367 C 0.9649 0.92747 0.11948 0.0
C368 C 0.98216 0.96526 0.11937 0.0
H369 H 0.11814 0.11646 0.11858 0.0
H370 H 0.08933 0.05469 0.11868 0.0
H371 H 0.97247 0.0506 0.13959 0.0
H372 H 0.87944 0.88546 0.11965 0.0
H373 H 0.90791 0.94743 0.11921 0.0
C374 C 0.14006 0.47192 0.36435 0.0
C375 C 0.1435 0.43291 0.36416 0.0
C376 C 0.10483 0.48843 0.36356 0.0
C377 C 0.00623 0.46912 0.35094 0.0
H378 H 0.98604 0.55312 0.38335 0.0
C379 C 0.85726 0.52508 0.36416 0.0
C380 C 0.8532 0.56402 0.36479 0.0
C381 C 0.8928 0.50921 0.36328 0.0
C382 C 0.99134 0.52994 0.37406 0.0
H383 H 0.11286 0.38058 0.36283 0.0
H384 H 0.05153 0.40929 0.36168 0.0
H385 H 0.04804 0.52567 0.38306 0.0
H386 H 0.88304 0.61689 0.36473 0.0
H387 H 0.94484 0.58926 0.36312 0.0
H388 H 0.94932 0.47324 0.34209 0.0
C389 C 0.07595 0.42722 0.36218 0.0
C390 C 0.02691 0.51425 0.37386 0.0
C391 C 0.11111 0.41075 0.36296 0.0
C392 C 0.88526 0.58676 0.36434 0.0
C393 C 0.9207 0.57094 0.36352 0.0
C394 C 0.9706 0.48478 0.35116 0.0
C395 C 0.07235 0.46625 0.36256 0.0
C396 C 0.03477 0.48359 0.36234 0.0
C397 C 0.92492 0.532 0.3631 0.0
C398 C 0.96276 0.51534 0.36274 0.0
H399 H 0.16456 0.48969 0.36521 0.0
H400 H 0.10305 0.51859 0.36365 0.0
H401 H 0.0115 0.44586 0.34169 0.0
H402 H 0.83303 0.50688 0.3645 0.0
H403 H 0.89515 0.47909 0.36314 0.0
C404 C 0.40937 0.38919 0.61524 0.0
C405 C 0.43187 0.35723 0.6151 0.0
C406 C 0.42548 0.42477 0.6147 0.0
C407 C 0.51354 0.47477 0.62447 0.0
H408 H 0.46957 0.55293 0.59435 0.0
C409 C 0.58677 0.61634 0.61329 0.0
C410 C 0.56467 0.6485 0.61437 0.0
C411 C 0.57027 0.58097 0.61288 0.0
C412 C 0.48194 0.5315 0.60298 0.0
H413 H 0.48882 0.33737 0.61411 0.0
H414 H 0.51702 0.39954 0.61298 0.0
H415 H 0.4416 0.49064 0.59445 0.0
H416 H 0.50795 0.66895 0.61562 0.0
H417 H 0.47899 0.60696 0.61501 0.0
H418 H 0.55384 0.51556 0.63301 0.0
C419 C 0.48693 0.39712 0.61376 0.0
C420 C 0.46593 0.49582 0.60304 0.0
C421 C 0.4708 0.36151 0.6143 0.0
C422 C 0.52566 0.64463 0.61477 0.0
C423 C 0.50911 0.60917 0.61433 0.0
C424 C 0.52954 0.5104 0.6244 0.0
C425 C 0.46445 0.42917 0.614 0.0
C426 C 0.48157 0.46704 0.61378 0.0
C427 C 0.53127 0.57694 0.61353 0.0
C428 C 0.51397 0.53917 0.61363 0.0
H429 H 0.37926 0.38676 0.61589 0.0
H430 H 0.40739 0.44885 0.61514 0.0
H431 H 0.52588 0.45343 0.63315 0.0
H432 H 0.61692 0.61843 0.61288 0.0
H433 H 0.5881 0.55675 0.61196 0.0
C434 C 0.61172 0.91193 0.86446 0.0
C435 C 0.64432 0.93344 0.86666 0.0
C436 C 0.57681 0.92894 0.86404 0.0
C437 C 0.52791 0.01422 0.87841 0.0
H438 H 0.45275 0.98003 0.84338 0.0
C439 C 0.38674 0.08881 0.86917 0.0
C440 C 0.35487 0.06609 0.8673 0.0
C441 C 0.42233 0.07319 0.86884 0.0
C442 C 0.47331 0.98962 0.85338 0.0
H443 H 0.66603 0.98962 0.87005 0.0
H444 H 0.60489 0.01948 0.86921 0.0
H445 H 0.51462 0.95217 0.84297 0.0
H446 H 0.3352 0.00922 0.86369 0.0
H447 H 0.3974 0.98184 0.86325 0.0
H448 H 0.48652 0.05157 0.88887 0.0
C449 C 0.60636 0.9894 0.86798 0.0
C450 C 0.50876 0.97369 0.85313 0.0
C451 C 0.64135 0.97235 0.86836 0.0
C452 C 0.35927 0.02743 0.86512 0.0
C453 C 0.39489 0.01179 0.86476 0.0
C454 C 0.49244 0.03016 0.87866 0.0
C455 C 0.5737 0.96785 0.86584 0.0
C456 C 0.53641 0.98567 0.86571 0.0
C457 C 0.42683 0.03451 0.8666 0.0
C458 C 0.46468 0.01792 0.86619 0.0
H459 H 0.61312 0.88185 0.86316 0.0
H460 H 0.55219 0.9115 0.86262 0.0
H461 H 0.54843 0.02369 0.88846 0.0
H462 H 0.38421 0.11873 0.87082 0.0
H463 H 0.44637 0.09149 0.87007 0.0
C464 C 0.91128 0.61343 0.12365 0.0
C465 C 0.93337 0.64594 0.12316 0.0
C466 C 0.92783 0.57828 0.12414 0.0
C467 C 0.01518 0.5298 0.11282 0.0
H468 H 0.97455 0.45189 0.14457 0.0
C469 C 0.08887 0.38869 0.12251 0.0
C470 C 0.06641 0.35642 0.12262 0.0
C471 C 0.07275 0.42403 0.12307 0.0
C472 C 0.98597 0.47323 0.13548 0.0
H473 H 0.99011 0.66721 0.12294 0.0
H474 H 0.01913 0.60569 0.1239 0.0
H475 H 0.94653 0.51377 0.14479 0.0
H476 H 0.00947 0.33579 0.12353 0.0
H477 H 0.98118 0.39765 0.12432 0.0
H478 H 0.05448 0.48928 0.10342 0.0
C479 C 0.98897 0.60741 0.12372 0.0
C480 C 0.96995 0.50869 0.13562 0.0
C481 C 0.97239 0.64262 0.12326 0.0
C482 C 0.02747 0.36018 0.12346 0.0
C483 C 0.01131 0.3956 0.12401 0.0
C484 C 0.03117 0.49435 0.11267 0.0
C485 C 0.96686 0.57484 0.12413 0.0
C486 C 0.98434 0.53736 0.12427 0.0
C487 C 0.03378 0.42794 0.12374 0.0
C488 C 0.01674 0.46564 0.12398 0.0
H489 H 0.88111 0.6151 0.12355 0.0
H490 H 0.91001 0.55375 0.12421 0.0
H491 H 0.02654 0.5511 0.10369 0.0
H492 H 0.11899 0.38668 0.12196 0.0
H493 H 0.09088 0.44833 0.12314 0.0
C494 C 0.3846 0.40756 0.3742 0.0
C495 C 0.35283 0.43022 0.37307 0.0
C496 C 0.42025 0.4235 0.37481 0.0
C497 C 0.47129 0.5102 0.36305 0.0
H498 H 0.54807 0.46887 0.39492 0.0
C499 C 0.61247 0.58413 0.37412 0.0
C500 C 0.64465 0.56197 0.37369 0.0
C501 C 0.57709 0.56767 0.37451 0.0
C502 C 0.52702 0.48048 0.38581 0.0
H503 H 0.3334 0.48734 0.37198 0.0
H504 H 0.39564 0.51526 0.37331 0.0
H505 H 0.48561 0.44127 0.395 0.0
H506 H 0.66507 0.50517 0.37358 0.0
H507 H 0.60303 0.47626 0.37423 0.0
H508 H 0.51262 0.54945 0.3539 0.0
C509 C 0.39306 0.48513 0.37342 0.0
C510 C 0.49124 0.46468 0.38585 0.0
C511 C 0.35738 0.46917 0.37278 0.0
C512 C 0.64075 0.52294 0.37391 0.0
C513 C 0.60526 0.50642 0.37437 0.0
C514 C 0.50699 0.52602 0.36305 0.0
C515 C 0.42494 0.46248 0.37434 0.0
C516 C 0.46293 0.47939 0.37448 0.0
C517 C 0.57304 0.52865 0.37452 0.0
C518 C 0.53525 0.5114 0.37445 0.0
H519 H 0.38198 0.37743 0.3744 0.0
H520 H 0.44418 0.40522 0.37528 0.0
H521 H 0.45039 0.52177 0.35385 0.0
H522 H 0.61455 0.61431 0.37402 0.0
H523 H 0.55286 0.58557 0.3749 0.0
C524 C 0.40955 0.11414 0.61887 0.0
C525 C 0.43204 0.14639 0.61887 0.0
C526 C 0.42567 0.07876 0.61921 0.0
C527 C 0.51359 0.0297 0.60899 0.0
H528 H 0.47005 0.95133 0.63948 0.0
C529 C 0.58703 0.88921 0.62099 0.0
C530 C 0.56493 0.85673 0.62018 0.0
C531 C 0.57053 0.92439 0.621 0.0
C532 C 0.48229 0.97282 0.63075 0.0
H533 H 0.48903 0.16695 0.61934 0.0
H534 H 0.51726 0.10513 0.62013 0.0
H535 H 0.44209 0.01324 0.63932 0.0
H536 H 0.50822 0.83556 0.61889 0.0
H537 H 0.47928 0.89719 0.61885 0.0
H538 H 0.55385 0.98931 0.60046 0.0
C539 C 0.48714 0.10717 0.61961 0.0
C540 C 0.46628 0.00829 0.63065 0.0
C541 C 0.471 0.14258 0.61927 0.0
C542 C 0.52594 0.86012 0.61954 0.0
C543 C 0.50939 0.89538 0.61961 0.0
C544 C 0.52962 0.99427 0.60912 0.0
C545 C 0.46466 0.07484 0.61957 0.0
C546 C 0.48176 0.03715 0.61977 0.0
C547 C 0.53154 0.92791 0.62025 0.0
C548 C 0.51419 0.96544 0.62001 0.0
H549 H 0.37942 0.1162 0.61852 0.0
H550 H 0.40755 0.05446 0.6189 0.0
H551 H 0.52583 0.0511 0.60021 0.0
H552 H 0.61718 0.8875 0.62155 0.0
H553 H 0.58834 0.94888 0.62177 0.0
C554 C 0.88527 0.90682 0.87124 0.0
C555 C 0.85352 0.9291 0.86884 0.0
C556 C 0.92091 0.92277 0.87087 0.0
C557 C 0.97247 0.00603 0.85449 0.0
H558 H 0.04706 0.97387 0.8901 0.0
C559 C 0.11223 0.08394 0.86447 0.0
C560 C 0.14444 0.06227 0.86673 0.0
C561 C 0.07697 0.06718 0.86443 0.0
C562 C 0.02667 0.98283 0.87992 0.0
H563 H 0.83411 0.98553 0.86424 0.0
H564 H 0.89638 0.01351 0.86377 0.0
H565 H 0.98489 0.94584 0.89077 0.0
H566 H 0.16507 0.00608 0.87066 0.0
H567 H 0.10336 0.97669 0.87052 0.0
H568 H 0.01422 0.04314 0.84371 0.0
C569 C 0.89376 0.98363 0.86571 0.0
C570 C 0.99105 0.96679 0.88031 0.0
C571 C 0.85809 0.96766 0.86609 0.0
C572 C 0.14071 0.02348 0.86892 0.0
C573 C 0.10539 0.00669 0.86894 0.0
C574 C 0.00807 0.0221 0.85412 0.0
C575 C 0.92558 0.96135 0.86808 0.0
C576 C 0.96351 0.97827 0.86762 0.0
C577 C 0.07313 0.02838 0.8667 0.0
C578 C 0.03554 0.01075 0.86686 0.0
H579 H 0.88261 0.87698 0.87334 0.0
H580 H 0.94485 0.90477 0.87251 0.0
H581 H 0.95209 0.01505 0.84432 0.0
H582 H 0.11422 0.11393 0.86278 0.0
H583 H 0.05265 0.08471 0.86291 0.0
loop_
_geom_bond_atom_site_label_1
_geom_bond_atom_site_label_2
_geom_bond_distance
_geom_bond_site_symmetry_2
_ccdc_geom_bond_type
In0 O1 2.294 . S
In0 O2 2.326 . S
In0 O6 2.266 . S
In0 O7 2.326 . S
In0 O8 2.266 . S
In0 O9 2.326 . S
In0 O11 2.294 . S
In0 O12 2.326 . S
O1 In0 2.294 . S
O1 C10 1.240 . S
O2 In0 2.326 . S
O2 C10 1.252 . S
C3 O6 1.252 . S
C3 O7 1.260 . S
C4 O11 1.240 . S
C4 O12 1.252 . S
C5 O8 1.252 . S
C5 O9 1.260 . S
O6 In0 2.266 . S
O6 C3 1.252 . S
O7 In0 2.326 . S
O7 C3 1.260 . S
O8 In0 2.266 . S
O8 C5 1.252 . S
O9 In0 2.326 . S
O9 C5 1.260 . S
C10 O1 1.240 . S
C10 O2 1.252 . S
O11 In0 2.294 . S
O11 C4 1.240 . S
O12 In0 2.326 . S
O12 C4 1.252 . S
In13 O14 2.294 . S
In13 O15 2.326 . S
In13 O19 2.266 . S
In13 O20 2.326 . S
In13 O21 2.266 . S
In13 O22 2.326 . S
In13 O24 2.294 . S
In13 O25 2.326 . S
O14 In13 2.294 . S
O14 C23 1.240 . S
O15 In13 2.326 . S
O15 C23 1.252 . S
C16 O19 1.252 . S
C16 O20 1.260 . S
C17 O24 1.240 . S
C17 O25 1.252 . S
C18 O21 1.252 . S
C18 O22 1.260 . S
O19 In13 2.266 . S
O19 C16 1.252 . S
O20 In13 2.326 . S
O20 C16 1.260 . S
O21 In13 2.266 . S
O21 C18 1.252 . S
O22 In13 2.326 . S
O22 C18 1.260 . S
C23 O14 1.240 . S
C23 O15 1.252 . S
O24 In13 2.294 . S
O24 C17 1.240 . S
O25 In13 2.326 . S
O25 C17 1.252 . S
In26 O27 2.294 . S
In26 O28 2.326 . S
In26 O32 2.266 . S
In26 O33 2.326 . S
In26 O34 2.266 . S
In26 O35 2.326 . S
In26 O37 2.294 . S
In26 O38 2.326 . S
O27 In26 2.294 . S
O27 C36 1.240 . S
O28 In26 2.326 . S
O28 C36 1.252 . S
C29 O32 1.252 . S
C29 O33 1.260 . S
C30 O37 1.240 . S
C30 O38 1.252 . S
C31 O34 1.252 . S
C31 O35 1.260 . S
O32 In26 2.266 . S
O32 C29 1.252 . S
O33 In26 2.326 . S
O33 C29 1.260 . S
O34 In26 2.266 . S
O34 C31 1.252 . S
O35 In26 2.326 . S
O35 C31 1.260 . S
C36 O27 1.240 . S
C36 O28 1.252 . S
O37 In26 2.294 . S
O37 C30 1.240 . S
O38 In26 2.326 . S
O38 C30 1.252 . S
In39 O40 2.294 . S
In39 O41 2.326 . S
In39 O45 2.266 . S
In39 O46 2.326 . S
In39 O47 2.266 . S
In39 O48 2.326 . S
In39 O50 2.294 . S
In39 O51 2.326 . S
O40 In39 2.294 . S
O40 C49 1.240 . S
O41 In39 2.326 . S
O41 C49 1.252 . S
C42 O45 1.252 . S
C42 O46 1.260 . S
C43 O50 1.240 . S
C43 O51 1.252 . S
C44 O47 1.252 . S
C44 O48 1.260 . S
O45 In39 2.266 . S
O45 C42 1.252 . S
O46 In39 2.326 . S
O46 C42 1.260 . S
O47 In39 2.266 . S
O47 C44 1.252 . S
O48 In39 2.326 . S
O48 C44 1.260 . S
C49 O40 1.240 . S
C49 O41 1.252 . S
O50 In39 2.294 . S
O50 C43 1.240 . S
O51 In39 2.326 . S
O51 C43 1.252 . S
In52 O53 2.294 . S
In52 O54 2.326 . S
In52 O58 2.266 . S
In52 O59 2.326 . S
In52 O60 2.266 . S
In52 O61 2.326 . S
In52 O63 2.294 . S
In52 O64 2.326 . S
O53 In52 2.294 . S
O53 C62 1.240 . S
O54 In52 2.326 . S
O54 C62 1.252 . S
C55 O58 1.252 . S
C55 O59 1.260 . S
C56 O63 1.240 . S
C56 O64 1.252 . S
C57 O60 1.252 . S
C57 O61 1.260 . S
O58 In52 2.266 . S
O58 C55 1.252 . S
O59 In52 2.326 . S
O59 C55 1.260 . S
O60 In52 2.266 . S
O60 C57 1.252 . S
O61 In52 2.326 . S
O61 C57 1.260 . S
C62 O53 1.240 . S
C62 O54 1.252 . S
O63 In52 2.294 . S
O63 C56 1.240 . S
O64 In52 2.326 . S
O64 C56 1.252 . S
In65 O66 2.294 . S
In65 O67 2.326 . S
In65 O71 2.266 . S
In65 O72 2.326 . S
In65 O73 2.266 . S
In65 O74 2.326 . S
In65 O76 2.294 . S
In65 O77 2.326 . S
O66 In65 2.294 . S
O66 C75 1.240 . S
O67 In65 2.326 . S
O67 C75 1.252 . S
C68 O71 1.252 . S
C68 O72 1.260 . S
C69 O76 1.240 . S
C69 O77 1.252 . S
C70 O73 1.252 . S
C70 O74 1.260 . S
O71 In65 2.266 . S
O71 C68 1.252 . S
O72 In65 2.326 . S
O72 C68 1.260 . S
O73 In65 2.266 . S
O73 C70 1.252 . S
O74 In65 2.326 . S
O74 C70 1.260 . S
C75 O66 1.240 . S
C75 O67 1.252 . S
O76 In65 2.294 . S
O76 C69 1.240 . S
O77 In65 2.326 . S
O77 C69 1.252 . S
In78 O79 2.294 . S
In78 O80 2.326 . S
In78 O84 2.266 . S
In78 O85 2.326 . S
In78 O86 2.266 . S
In78 O87 2.326 . S
In78 O89 2.294 . S
In78 O90 2.326 . S
O79 In78 2.294 . S
O79 C88 1.240 . S
O80 In78 2.326 . S
O80 C88 1.252 . S
C81 O84 1.252 . S
C81 O85 1.260 . S
C82 O89 1.240 . S
C82 O90 1.252 . S
C83 O86 1.252 . S
C83 O87 1.260 . S
O84 In78 2.266 . S
O84 C81 1.252 . S
O85 In78 2.326 . S
O85 C81 1.260 . S
O86 In78 2.266 . S
O86 C83 1.252 . S
O87 In78 2.326 . S
O87 C83 1.260 . S
C88 O79 1.240 . S
C88 O80 1.252 . S
O89 In78 2.294 . S
O89 C82 1.240 . S
O90 In78 2.326 . S
O90 C82 1.252 . S
In91 O92 2.294 . S
In91 O93 2.326 . S
In91 O97 2.266 . S
In91 O98 2.326 . S
In91 O99 2.266 . S
In91 O100 2.326 . S
In91 O102 2.294 . S
In91 O103 2.326 . S
O92 In91 2.294 . S
O92 C101 1.240 . S
O93 In91 2.326 . S
O93 C101 1.252 . S
C94 O97 1.252 . S
C94 O98 1.260 . S
C95 O102 1.240 . S
C95 O103 1.252 . S
C96 O99 1.252 . S
C96 O100 1.260 . S
O97 In91 2.266 . S
O97 C94 1.252 . S
O98 In91 2.326 . S
O98 C94 1.260 . S
O99 In91 2.266 . S
O99 C96 1.252 . S
O100 In91 2.326 . S
O100 C96 1.260 . S
C101 O92 1.240 . S
C101 O93 1.252 . S
O102 In91 2.294 . S
O102 C95 1.240 . S
O103 In91 2.326 . S
O103 C95 1.252 . S
C104 C105 1.349 . S
C104 C106 1.327 . S
C104 H129 0.950 . S
C105 C104 1.349 . S
C105 C121 1.349 . S
C106 C104 1.327 . S
C106 C125 1.429 . S
C106 H130 0.950 . S
C107 C124 1.574 1_554 S
C107 C126 1.368 . S
C107 H131 0.949 . S
H108 C112 0.949 . S
C109 C110 1.349 . S
C109 C111 1.327 . S
C109 H132 0.950 . S
C110 C109 1.349 . S
C110 C122 1.349 . S
C111 C109 1.327 . S
C111 C127 1.429 . S
C111 H133 0.950 . S
C112 H108 0.949 . S
C112 C120 1.574 1_556 S
C112 C128 1.368 . S
H113 C121 0.950 . S
H114 C119 0.950 . S
H115 C120 0.949 . S
H116 C122 0.950 . S
H117 C123 0.950 . S
H118 C124 0.949 . S
C119 H114 0.950 . S
C119 C121 1.327 . S
C119 C125 1.429 . S
C120 C112 1.574 1_554 S
C120 H115 0.949 . S
C120 C126 1.368 . S
C121 C105 1.349 . S
C121 H113 0.950 . S
C121 C119 1.327 . S
C122 C110 1.349 . S
C122 H116 0.950 . S
C122 C123 1.327 . S
C123 H117 0.950 . S
C123 C122 1.327 . S
C123 C127 1.429 . S
C124 C107 1.574 1_556 S
C124 H118 0.949 . S
C124 C128 1.368 . S
C125 C106 1.429 . S
C125 C119 1.429 . S
C125 C126 1.523 . S
C126 C107 1.368 . S
C126 C120 1.368 . S
C126 C125 1.523 . S
C127 C111 1.429 . S
C127 C123 1.429 . S
C127 C128 1.523 . S
C128 C112 1.368 . S
C128 C124 1.368 . S
C128 C127 1.523 . S
H129 C104 0.950 . S
H130 C106 0.950 . S
H131 C107 0.949 . S
H132 C109 0.950 . S
H133 C111 0.950 . S
C134 C135 1.349 . S
C134 C136 1.327 . S
C134 H159 0.950 . S
C135 C134 1.349 . S
C135 C151 1.349 . S
C136 C134 1.327 . S
C136 C155 1.429 . S
C136 H160 0.950 . S
C137 C154 1.574 . S
C137 C156 1.368 . S
C137 H161 0.949 . S
H138 C142 0.949 . S
C139 C140 1.349 . S
C139 C141 1.327 . S
C139 H162 0.950 . S
C140 C139 1.349 . S
C140 C152 1.349 . S
C141 C139 1.327 . S
C141 C157 1.429 . S
C141 H163 0.950 . S
C142 H138 0.949 . S
C142 C150 1.574 . S
C142 C158 1.368 . S
H143 C151 0.950 . S
H144 C149 0.950 . S
H145 C150 0.949 . S
H146 C152 0.950 . S
H147 C153 0.950 . S
H148 C154 0.949 . S
C149 H144 0.950 . S
C149 C151 1.327 . S
C149 C155 1.429 . S
C150 C142 1.574 . S
C150 H145 0.949 . S
C150 C156 1.368 . S
C151 C135 1.349 . S
C151 H143 0.950 . S
C151 C149 1.327 . S
C152 C140 1.349 . S
C152 H146 0.950 . S
C152 C153 1.327 . S
C153 H147 0.950 . S
C153 C152 1.327 . S
C153 C157 1.429 . S
C154 C137 1.574 . S
C154 H148 0.949 . S
C154 C158 1.368 . S
C155 C136 1.429 . S
C155 C149 1.429 . S
C155 C156 1.523 . S
C156 C137 1.368 . S
C156 C150 1.368 . S
C156 C155 1.523 . S
C157 C141 1.429 . S
C157 C153 1.429 . S
C157 C158 1.523 . S
C158 C142 1.368 . S
C158 C154 1.368 . S
C158 C157 1.523 . S
H159 C134 0.950 . S
H160 C136 0.950 . S
H161 C137 0.949 . S
H162 C139 0.950 . S
H163 C141 0.950 . S
C164 C165 1.349 . S
C164 C166 1.327 . S
C164 H189 0.950 . S
C165 C164 1.349 . S
C165 C181 1.349 . S
C166 C164 1.327 . S
C166 C185 1.429 . S
C166 H190 0.950 . S
C167 C184 1.574 . S
C167 C186 1.368 . S
C167 H191 0.949 . S
H168 C172 0.949 . S
C169 C170 1.349 . S
C169 C171 1.327 . S
C169 H192 0.950 . S
C170 C169 1.349 . S
C170 C182 1.349 . S
C171 C169 1.327 . S
C171 C187 1.429 . S
C171 H193 0.950 . S
C172 H168 0.949 . S
C172 C180 1.574 . S
C172 C188 1.368 . S
H173 C181 0.950 . S
H174 C179 0.950 . S
H175 C180 0.949 . S
H176 C182 0.950 . S
H177 C183 0.950 . S
H178 C184 0.949 . S
C179 H174 0.950 . S
C179 C181 1.327 . S
C179 C185 1.429 . S
C180 C172 1.574 . S
C180 H175 0.949 . S
C180 C186 1.368 . S
C181 C165 1.349 . S
C181 H173 0.950 . S
C181 C179 1.327 . S
C182 C170 1.349 . S
C182 H176 0.950 . S
C182 C183 1.327 . S
C183 H177 0.950 . S
C183 C182 1.327 . S
C183 C187 1.429 . S
C184 C167 1.574 . S
C184 H178 0.949 . S
C184 C188 1.368 . S
C185 C166 1.429 . S
C185 C179 1.429 . S
C185 C186 1.523 . S
C186 C167 1.368 . S
C186 C180 1.368 . S
C186 C185 1.523 . S
C187 C171 1.429 . S
C187 C183 1.429 . S
C187 C188 1.523 . S
C188 C172 1.368 . S
C188 C184 1.368 . S
C188 C187 1.523 . S
H189 C164 0.950 . S
H190 C166 0.950 . S
H191 C167 0.949 . S
H192 C169 0.950 . S
H193 C171 0.950 . S
C194 C195 1.349 . S
C194 C196 1.327 . S
C194 H219 0.950 . S
C195 C194 1.349 . S
C195 C211 1.349 . S
C196 C194 1.327 . S
C196 C215 1.429 . S
C196 H220 0.950 . S
C197 C214 1.574 . S
C197 C216 1.368 . S
C197 H221 0.949 . S
H198 C202 0.949 . S
C199 C200 1.349 . S
C199 C201 1.327 . S
C199 H222 0.950 . S
C200 C199 1.349 . S
C200 C212 1.349 . S
C201 C199 1.327 . S
C201 C217 1.429 . S
C201 H223 0.950 . S
C202 H198 0.949 . S
C202 C210 1.574 . S
C202 C218 1.368 . S
H203 C211 0.950 . S
H204 C209 0.950 . S
H205 C210 0.949 . S
H206 C212 0.950 . S
H207 C213 0.950 . S
H208 C214 0.949 . S
C209 H204 0.950 . S
C209 C211 1.327 . S
C209 C215 1.429 . S
C210 C202 1.574 . S
C210 H205 0.949 . S
C210 C216 1.368 . S
C211 C195 1.349 . S
C211 H203 0.950 . S
C211 C209 1.327 . S
C212 C200 1.349 . S
C212 H206 0.950 . S
C212 C213 1.327 . S
C213 H207 0.950 . S
C213 C212 1.327 . S
C213 C217 1.429 . S
C214 C197 1.574 . S
C214 H208 0.949 . S
C214 C218 1.368 . S
C215 C196 1.429 . S
C215 C209 1.429 . S
C215 C216 1.523 . S
C216 C197 1.368 . S
C216 C210 1.368 . S
C216 C215 1.523 . S
C217 C201 1.429 . S
C217 C213 1.429 . S
C217 C218 1.523 . S
C218 C202 1.368 . S
C218 C214 1.368 . S
C218 C217 1.523 . S
H219 C194 0.950 . S
H220 C196 0.950 . S
H221 C197 0.949 . S
H222 C199 0.950 . S
H223 C201 0.950 . S
C224 C225 1.349 . S
C224 C226 1.327 . S
C224 H249 0.950 . S
C225 C224 1.349 . S
C225 C241 1.349 . S
C226 C224 1.327 . S
C226 C245 1.429 . S
C226 H250 0.950 . S
C227 C244 1.574 . S
C227 C246 1.368 . S
C227 H251 0.949 . S
H228 C232 0.949 . S
C229 C230 1.349 . S
C229 C231 1.327 . S
C229 H252 0.950 . S
C230 C229 1.349 . S
C230 C242 1.349 . S
C231 C229 1.327 . S
C231 C247 1.429 . S
C231 H253 0.950 . S
C232 H228 0.949 . S
C232 C240 1.574 . S
C232 C248 1.368 . S
H233 C241 0.950 . S
H234 C239 0.950 . S
H235 C240 0.949 . S
H236 C242 0.950 . S
H237 C243 0.950 . S
H238 C244 0.949 . S
C239 H234 0.950 . S
C239 C241 1.327 . S
C239 C245 1.429 . S
C240 C232 1.574 . S
C240 H235 0.949 . S
C240 C246 1.368 . S
C241 C225 1.349 . S
C241 H233 0.950 . S
C241 C239 1.327 . S
C242 C230 1.349 . S
C242 H236 0.950 . S
C242 C243 1.327 . S
C243 H237 0.950 . S
C243 C242 1.327 . S
C243 C247 1.429 . S
C244 C227 1.574 . S
C244 H238 0.949 . S
C244 C248 1.368 . S
C245 C226 1.429 . S
C245 C239 1.429 . S
C245 C246 1.523 . S
C246 C227 1.368 . S
C246 C240 1.368 . S
C246 C245 1.523 . S
C247 C231 1.429 . S
C247 C243 1.429 . S
C247 C248 1.523 . S
C248 C232 1.368 . S
C248 C244 1.368 . S
C248 C247 1.523 . S
H249 C224 0.950 . S
H250 C226 0.950 . S
H251 C227 0.949 . S
H252 C229 0.950 . S
H253 C231 0.950 . S
C254 C255 1.349 . S
C254 C256 1.327 . S
C254 H279 0.950 . S
C255 C254 1.349 . S
C255 C271 1.349 . S
C256 C254 1.327 . S
C256 C275 1.429 . S
C256 H280 0.950 . S
C257 C274 1.574 . S
C257 C276 1.368 . S
C257 H281 0.949 . S
H258 C262 0.949 . S
C259 C260 1.349 . S
C259 C261 1.327 . S
C259 H282 0.950 . S
C260 C259 1.349 . S
C260 C272 1.349 . S
C261 C259 1.327 . S
C261 C277 1.429 . S
C261 H283 0.950 . S
C262 H258 0.949 . S
C262 C270 1.574 . S
C262 C278 1.368 . S
H263 C271 0.950 . S
H264 C269 0.950 . S
H265 C270 0.949 . S
H266 C272 0.950 . S
H267 C273 0.950 . S
H268 C274 0.949 . S
C269 H264 0.950 . S
C269 C271 1.327 . S
C269 C275 1.429 . S
C270 C262 1.574 . S
C270 H265 0.949 . S
C270 C276 1.368 . S
C271 C255 1.349 . S
C271 H263 0.950 . S
C271 C269 1.327 . S
C272 C260 1.349 . S
C272 H266 0.950 . S
C272 C273 1.327 . S
C273 H267 0.950 . S
C273 C272 1.327 . S
C273 C277 1.429 . S
C274 C257 1.574 . S
C274 H268 0.949 . S
C274 C278 1.368 . S
C275 C256 1.429 . S
C275 C269 1.429 . S
C275 C276 1.523 . S
C276 C257 1.368 . S
C276 C270 1.368 . S
C276 C275 1.523 . S
C277 C261 1.429 . S
C277 C273 1.429 . S
C277 C278 1.523 . S
C278 C262 1.368 . S
C278 C274 1.368 . S
C278 C277 1.523 . S
H279 C254 0.950 . S
H280 C256 0.950 . S
H281 C257 0.949 . S
H282 C259 0.950 . S
H283 C261 0.950 . S
C284 C285 1.349 . S
C284 C286 1.327 . S
C284 H309 0.950 . S
C285 C284 1.349 . S
C285 C301 1.349 . S
C286 C284 1.327 . S
C286 C305 1.429 . S
C286 H310 0.950 . S
C287 C304 1.574 . S
C287 C306 1.368 . S
C287 H311 0.949 . S
H288 C292 0.949 . S
C289 C290 1.349 . S
C289 C291 1.327 . S
C289 H312 0.950 . S
C290 C289 1.349 . S
C290 C302 1.349 . S
C291 C289 1.327 . S
C291 C307 1.429 . S
C291 H313 0.950 . S
C292 H288 0.949 . S
C292 C300 1.574 . S
C292 C308 1.368 . S
H293 C301 0.950 . S
H294 C299 0.950 . S
H295 C300 0.949 . S
H296 C302 0.950 . S
H297 C303 0.950 . S
H298 C304 0.949 . S
C299 H294 0.950 . S
C299 C301 1.327 . S
C299 C305 1.429 . S
C300 C292 1.574 . S
C300 H295 0.949 . S
C300 C306 1.368 . S
C301 C285 1.349 . S
C301 H293 0.950 . S
C301 C299 1.327 . S
C302 C290 1.349 . S
C302 H296 0.950 . S
C302 C303 1.327 . S
C303 H297 0.950 . S
C303 C302 1.327 . S
C303 C307 1.429 . S
C304 C287 1.574 . S
C304 H298 0.949 . S
C304 C308 1.368 . S
C305 C286 1.429 . S
C305 C299 1.429 . S
C305 C306 1.523 . S
C306 C287 1.368 . S
C306 C300 1.368 . S
C306 C305 1.523 . S
C307 C291 1.429 . S
C307 C303 1.429 . S
C307 C308 1.523 . S
C308 C292 1.368 . S
C308 C304 1.368 . S
C308 C307 1.523 . S
H309 C284 0.950 . S
H310 C286 0.950 . S
H311 C287 0.949 . S
H312 C289 0.950 . S
H313 C291 0.950 . S
C314 C315 1.349 . S
C314 C316 1.327 . S
C314 H339 0.950 . S
C315 C314 1.349 . S
C315 C331 1.349 . S
C316 C314 1.327 . S
C316 C335 1.429 . S
C316 H340 0.950 . S
C317 C334 1.574 1_554 S
C317 C336 1.368 . S
C317 H341 0.949 . S
H318 C322 0.949 . S
C319 C320 1.349 . S
C319 C321 1.327 . S
C319 H342 0.950 . S
C320 C319 1.349 . S
C320 C332 1.349 . S
C321 C319 1.327 . S
C321 C337 1.429 . S
C321 H343 0.950 . S
C322 H318 0.949 . S
C322 C330 1.574 1_556 S
C322 C338 1.368 . S
H323 C331 0.950 . S
H324 C329 0.950 . S
H325 C330 0.949 . S
H326 C332 0.950 . S
H327 C333 0.950 . S
H328 C334 0.949 . S
C329 H324 0.950 . S
C329 C331 1.327 . S
C329 C335 1.429 . S
C330 C322 1.574 1_554 S
C330 H325 0.949 . S
C330 C336 1.368 . S
C331 C315 1.349 . S
C331 H323 0.950 . S
C331 C329 1.327 . S
C332 C320 1.349 . S
C332 H326 0.950 . S
C332 C333 1.327 . S
C333 H327 0.950 . S
C333 C332 1.327 . S
C333 C337 1.429 . S
C334 C317 1.574 1_556 S
C334 H328 0.949 . S
C334 C338 1.368 . S
C335 C316 1.429 . S
C335 C329 1.429 . S
C335 C336 1.523 . S
C336 C317 1.368 . S
C336 C330 1.368 . S
C336 C335 1.523 . S
C337 C321 1.429 . S
C337 C333 1.429 . S
C337 C338 1.523 . S
C338 C322 1.368 . S
C338 C334 1.368 . S
C338 C337 1.523 . S
H339 C314 0.950 . S
H340 C316 0.950 . S
H341 C317 0.949 . S
H342 C319 0.950 . S
H343 C321 0.950 . S
C344 C345 1.349 . S
C344 C346 1.327 . S
C344 H369 0.950 . S
C345 C344 1.349 . S
C345 C361 1.349 . S
C346 C344 1.327 . S
C346 C365 1.429 . S
C346 H370 0.950 . S
C347 C364 1.574 1_545 S
C347 C366 1.368 1_655 S
C347 H371 0.949 . S
H348 C352 0.949 . S
C349 C350 1.349 . S
C349 C351 1.327 . S
C349 H372 0.950 . S
C350 C349 1.349 . S
C350 C362 1.349 . S
C351 C349 1.327 . S
C351 C367 1.429 . S
C351 H373 0.950 . S
C352 H348 0.949 . S
C352 C360 1.574 1_565 S
C352 C368 1.368 1_455 S
H353 C361 0.950 . S
H354 C359 0.950 . S
H355 C360 0.949 . S
H356 C362 0.950 . S
H357 C363 0.950 . S
H358 C364 0.949 . S
C359 H354 0.950 . S
C359 C361 1.327 . S
C359 C365 1.429 . S
C360 C352 1.574 1_545 S
C360 H355 0.949 . S
C360 C366 1.368 . S
C361 C345 1.349 . S
C361 H353 0.950 . S
C361 C359 1.327 . S
C362 C350 1.349 . S
C362 H356 0.950 . S
C362 C363 1.327 . S
C363 H357 0.950 . S
C363 C362 1.327 . S
C363 C367 1.429 . S
C364 C347 1.574 1_565 S
C364 H358 0.949 . S
C364 C368 1.368 . S
C365 C346 1.429 . S
C365 C359 1.429 . S
C365 C366 1.523 . S
C366 C347 1.368 1_455 S
C366 C360 1.368 . S
C366 C365 1.523 . S
C367 C351 1.429 . S
C367 C363 1.429 . S
C367 C368 1.523 . S
C368 C352 1.368 1_655 S
C368 C364 1.368 . S
C368 C367 1.523 . S
H369 C344 0.950 . S
H370 C346 0.950 . S
H371 C347 0.949 . S
H372 C349 0.950 . S
H373 C351 0.950 . S
C374 C375 1.349 . S
C374 C376 1.327 . S
C374 H399 0.950 . S
C375 C374 1.349 . S
C375 C391 1.349 . S
C376 C374 1.327 . S
C376 C395 1.429 . S
C376 H400 0.950 . S
C377 C394 1.574 1_455 S
C377 C396 1.368 . S
C377 H401 0.949 . S
H378 C382 0.949 . S
C379 C380 1.349 . S
C379 C381 1.327 . S
C379 H402 0.950 . S
C380 C379 1.349 . S
C380 C392 1.349 . S
C381 C379 1.327 . S
C381 C397 1.429 . S
C381 H403 0.950 . S
C382 H378 0.949 . S
C382 C390 1.574 1_655 S
C382 C398 1.368 . S
H383 C391 0.950 . S
H384 C389 0.950 . S
H385 C390 0.949 . S
H386 C392 0.950 . S
H387 C393 0.950 . S
H388 C394 0.949 . S
C389 H384 0.950 . S
C389 C391 1.327 . S
C389 C395 1.429 . S
C390 C382 1.574 1_455 S
C390 H385 0.949 . S
C390 C396 1.368 . S
C391 C375 1.349 . S
C391 H383 0.950 . S
C391 C389 1.327 . S
C392 C380 1.349 . S
C392 H386 0.950 . S
C392 C393 1.327 . S
C393 H387 0.950 . S
C393 C392 1.327 . S
C393 C397 1.429 . S
C394 C377 1.574 1_655 S
C394 H388 0.949 . S
C394 C398 1.368 . S
C395 C376 1.429 . S
C395 C389 1.429 . S
C395 C396 1.523 . S
C396 C377 1.368 . S
C396 C390 1.368 . S
C396 C395 1.523 . S
C397 C381 1.429 . S
C397 C393 1.429 . S
C397 C398 1.523 . S
C398 C382 1.368 . S
C398 C394 1.368 . S
C398 C397 1.523 . S
H399 C374 0.950 . S
H400 C376 0.950 . S
H401 C377 0.949 . S
H402 C379 0.950 . S
H403 C381 0.950 . S
C404 C405 1.349 . S
C404 C406 1.327 . S
C404 H429 0.950 . S
C405 C404 1.349 . S
C405 C421 1.349 . S
C406 C404 1.327 . S
C406 C425 1.429 . S
C406 H430 0.950 . S
C407 C424 1.574 . S
C407 C426 1.368 . S
C407 H431 0.949 . S
H408 C412 0.949 . S
C409 C410 1.349 . S
C409 C411 1.327 . S
C409 H432 0.950 . S
C410 C409 1.349 . S
C410 C422 1.349 . S
C411 C409 1.327 . S
C411 C427 1.429 . S
C411 H433 0.950 . S
C412 H408 0.949 . S
C412 C420 1.574 . S
C412 C428 1.368 . S
H413 C421 0.950 . S
H414 C419 0.950 . S
H415 C420 0.949 . S
H416 C422 0.950 . S
H417 C423 0.950 . S
H418 C424 0.949 . S
C419 H414 0.950 . S
C419 C421 1.327 . S
C419 C425 1.429 . S
C420 C412 1.574 . S
C420 H415 0.949 . S
C420 C426 1.368 . S
C421 C405 1.349 . S
C421 H413 0.950 . S
C421 C419 1.327 . S
C422 C410 1.349 . S
C422 H416 0.950 . S
C422 C423 1.327 . S
C423 H417 0.950 . S
C423 C422 1.327 . S
C423 C427 1.429 . S
C424 C407 1.574 . S
C424 H418 0.949 . S
C424 C428 1.368 . S
C425 C406 1.429 . S
C425 C419 1.429 . S
C425 C426 1.523 . S
C426 C407 1.368 . S
C426 C420 1.368 . S
C426 C425 1.523 . S
C427 C411 1.429 . S
C427 C423 1.429 . S
C427 C428 1.523 . S
C428 C412 1.368 . S
C428 C424 1.368 . S
C428 C427 1.523 . S
H429 C404 0.950 . S
H430 C406 0.950 . S
H431 C407 0.949 . S
H432 C409 0.950 . S
H433 C411 0.950 . S
C434 C435 1.349 . S
C434 C436 1.327 . S
C434 H459 0.950 . S
C435 C434 1.349 . S
C435 C451 1.349 . S
C436 C434 1.327 . S
C436 C455 1.429 . S
C436 H460 0.950 . S
C437 C454 1.574 . S
C437 C456 1.368 1_545 S
C437 H461 0.949 . S
H438 C442 0.949 . S
C439 C440 1.349 . S
C439 C441 1.327 . S
C439 H462 0.950 . S
C440 C439 1.349 . S
C440 C452 1.349 . S
C441 C439 1.327 . S
C441 C457 1.429 . S
C441 H463 0.950 . S
C442 H438 0.949 . S
C442 C450 1.574 . S
C442 C458 1.368 1_565 S
H443 C451 0.950 . S
H444 C449 0.950 . S
H445 C450 0.949 . S
H446 C452 0.950 . S
H447 C453 0.950 . S
H448 C454 0.949 . S
C449 H444 0.950 . S
C449 C451 1.327 . S
C449 C455 1.429 . S
C450 C442 1.574 . S
C450 H445 0.949 . S
C450 C456 1.368 . S
C451 C435 1.349 . S
C451 H443 0.950 . S
C451 C449 1.327 . S
C452 C440 1.349 . S
C452 H446 0.950 . S
C452 C453 1.327 . S
C453 H447 0.950 . S
C453 C452 1.327 . S
C453 C457 1.429 . S
C454 C437 1.574 . S
C454 H448 0.949 . S
C454 C458 1.368 . S
C455 C436 1.429 . S
C455 C449 1.429 . S
C455 C456 1.523 . S
C456 C437 1.368 1_565 S
C456 C450 1.368 . S
C456 C455 1.523 . S
C457 C441 1.429 . S
C457 C453 1.429 . S
C457 C458 1.523 . S
C458 C442 1.368 1_545 S
C458 C454 1.368 . S
C458 C457 1.523 . S
H459 C434 0.950 . S
H460 C436 0.950 . S
H461 C437 0.949 . S
H462 C439 0.950 . S
H463 C441 0.950 . S
C464 C465 1.349 . S
C464 C466 1.327 . S
C464 H489 0.950 . S
C465 C464 1.349 . S
C465 C481 1.349 . S
C466 C464 1.327 . S
C466 C485 1.429 . S
C466 H490 0.950 . S
C467 C484 1.574 . S
C467 C486 1.368 1_455 S
C467 H491 0.949 . S
H468 C472 0.949 . S
C469 C470 1.349 . S
C469 C471 1.327 . S
C469 H492 0.950 . S
C470 C469 1.349 . S
C470 C482 1.349 . S
C471 C469 1.327 . S
C471 C487 1.429 . S
C471 H493 0.950 . S
C472 H468 0.949 . S
C472 C480 1.574 . S
C472 C488 1.368 1_655 S
H473 C481 0.950 . S
H474 C479 0.950 . S
H475 C480 0.949 . S
H476 C482 0.950 . S
H477 C483 0.950 . S
H478 C484 0.949 . S
C479 H474 0.950 . S
C479 C481 1.327 . S
C479 C485 1.429 . S
C480 C472 1.574 . S
C480 H475 0.949 . S
C480 C486 1.368 . S
C481 C465 1.349 . S
C481 H473 0.950 . S
C481 C479 1.327 . S
C482 C470 1.349 . S
C482 H476 0.950 . S
C482 C483 1.327 . S
C483 H477 0.950 . S
C483 C482 1.327 . S
C483 C487 1.429 . S
C484 C467 1.574 . S
C484 H478 0.949 . S
C484 C488 1.368 . S
C485 C466 1.429 . S
C485 C479 1.429 . S
C485 C486 1.523 . S
C486 C467 1.368 1_655 S
C486 C480 1.368 . S
C486 C485 1.523 . S
C487 C471 1.429 . S
C487 C483 1.429 . S
C487 C488 1.523 . S
C488 C472 1.368 1_455 S
C488 C484 1.368 . S
C488 C487 1.523 . S
H489 C464 0.950 . S
H490 C466 0.950 . S
H491 C467 0.949 . S
H492 C469 0.950 . S
H493 C471 0.950 . S
C494 C495 1.349 . S
C494 C496 1.327 . S
C494 H519 0.950 . S
C495 C494 1.349 . S
C495 C511 1.349 . S
C496 C494 1.327 . S
C496 C515 1.429 . S
C496 H520 0.950 . S
C497 C514 1.574 . S
C497 C516 1.368 . S
C497 H521 0.949 . S
H498 C502 0.949 . S
C499 C500 1.349 . S
C499 C501 1.327 . S
C499 H522 0.950 . S
C500 C499 1.349 . S
C500 C512 1.349 . S
C501 C499 1.327 . S
C501 C517 1.429 . S
C501 H523 0.950 . S
C502 H498 0.949 . S
C502 C510 1.574 . S
C502 C518 1.368 . S
H503 C511 0.950 . S
H504 C509 0.950 . S
H505 C510 0.949 . S
H506 C512 0.950 . S
H507 C513 0.950 . S
H508 C514 0.949 . S
C509 H504 0.950 . S
C509 C511 1.327 . S
C509 C515 1.429 . S
C510 C502 1.574 . S
C510 H505 0.949 . S
C510 C516 1.368 . S
C511 C495 1.349 . S
C511 H503 0.950 . S
C511 C509 1.327 . S
C512 C500 1.349 . S
C512 H506 0.950 . S
C512 C513 1.327 . S
C513 H507 0.950 . S
C513 C512 1.327 . S
C513 C517 1.429 . S
C514 C497 1.574 . S
C514 H508 0.949 . S
C514 C518 1.368 . S
C515 C496 1.429 . S
C515 C509 1.429 . S
C515 C516 1.523 . S
C516 C497 1.368 . S
C516 C510 1.368 . S
C516 C515 1.523 . S
C517 C501 1.429 . S
C517 C513 1.429 . S
C517 C518 1.523 . S
C518 C502 1.368 . S
C518 C514 1.368 . S
C518 C517 1.523 . S
H519 C494 0.950 . S
H520 C496 0.950 . S
H521 C497 0.949 . S
H522 C499 0.950 . S
H523 C501 0.950 . S
C524 C525 1.349 . S
C524 C526 1.327 . S
C524 H549 0.950 . S
C525 C524 1.349 . S
C525 C541 1.349 . S
C526 C524 1.327 . S
C526 C545 1.429 . S
C526 H550 0.950 . S
C527 C544 1.574 1_545 S
C527 C546 1.368 . S
C527 H551 0.949 . S
H528 C532 0.949 . S
C529 C530 1.349 . S
C529 C531 1.327 . S
C529 H552 0.950 . S
C530 C529 1.349 . S
C530 C542 1.349 . S
C531 C529 1.327 . S
C531 C547 1.429 . S
C531 H553 0.950 . S
C532 H528 0.949 . S
C532 C540 1.574 1_565 S
C532 C548 1.368 . S
H533 C541 0.950 . S
H534 C539 0.950 . S
H535 C540 0.949 . S
H536 C542 0.950 . S
H537 C543 0.950 . S
H538 C544 0.949 . S
C539 H534 0.950 . S
C539 C541 1.327 . S
C539 C545 1.429 . S
C540 C532 1.574 1_545 S
C540 H535 0.949 . S
C540 C546 1.368 . S
C541 C525 1.349 . S
C541 H533 0.950 . S
C541 C539 1.327 . S
C542 C530 1.349 . S
C542 H536 0.950 . S
C542 C543 1.327 . S
C543 H537 0.950 . S
C543 C542 1.327 . S
C543 C547 1.429 . S
C544 C527 1.574 1_565 S
C544 H538 0.949 . S
C544 C548 1.368 . S
C545 C526 1.429 . S
C545 C539 1.429 . S
C545 C546 1.523 . S
C546 C527 1.368 . S
C546 C540 1.368 . S
C546 C545 1.523 . S
C547 C531 1.429 . S
C547 C543 1.429 . S
C547 C548 1.523 . S
C548 C532 1.368 . S
C548 C544 1.368 . S
C548 C547 1.523 . S
H549 C524 0.950 . S
H550 C526 0.950 . S
H551 C527 0.949 . S
H552 C529 0.950 . S
H553 C531 0.950 . S
C554 C555 1.349 . S
C554 C556 1.327 . S
C554 H579 0.950 . S
C555 C554 1.349 . S
C555 C571 1.349 . S
C556 C554 1.327 . S
C556 C575 1.429 . S
C556 H580 0.950 . S
C557 C574 1.574 1_655 S
C557 C576 1.368 1_545 S
C557 H581 0.949 . S
H558 C562 0.949 . S
C559 C560 1.349 . S
C559 C561 1.327 . S
C559 H582 0.950 . S
C560 C559 1.349 . S
C560 C572 1.349 . S
C561 C559 1.327 . S
C561 C577 1.429 . S
C561 H583 0.950 . S
C562 H558 0.949 . S
C562 C570 1.574 1_455 S
C562 C578 1.368 1_565 S
H563 C571 0.950 . S
H564 C569 0.950 . S
H565 C570 0.949 . S
H566 C572 0.950 . S
H567 C573 0.950 . S
H568 C574 0.949 . S
C569 H564 0.950 . S
C569 C571 1.327 . S
C569 C575 1.429 . S
C570 C562 1.574 1_655 S
C570 H565 0.949 . S
C570 C576 1.368 . S
C571 C555 1.349 . S
C571 H563 0.950 . S
C571 C569 1.327 . S
C572 C560 1.349 . S
C572 H566 0.950 . S
C572 C573 1.327 . S
C573 H567 0.950 . S
C573 C572 1.327 . S
C573 C577 1.429 . S
C574 C557 1.574 1_455 S
C574 H568 0.949 . S
C574 C578 1.368 . S
C575 C556 1.429 . S
C575 C569 1.429 . S
C575 C576 1.523 . S
C576 C557 1.368 1_565 S
C576 C570 1.368 . S
C576 C575 1.523 . S
C577 C561 1.429 . S
C577 C573 1.429 . S
C577 C578 1.523 . S
C578 C562 1.368 1_545 S
C578 C574 1.368 . S
C578 C577 1.523 . S
H579 C554 0.950 . S
H580 C556 0.950 . S
H581 C557 0.949 . S
H582 C559 0.950 . S
H583 C561 0.950 . S
C105 C5 1.271 . S
C110 C68 1.271 . S
C135 C23 1.276 . S
C140 C88 1.276 . S
C165 C31 1.271 . S
C170 C94 1.271 . S
C195 C49 1.276 . S
C200 C56 1.276 . S
C225 C101 1.276 . S
C230 C4 1.276 . S
C255 C57 1.271 . S
C260 C16 1.271 . S
C285 C30 1.276 . S
C290 C75 1.276 . S
C315 C81 1.271 . S
C320 C42 1.271 . S
C345 C3 1.540 . S
C350 C83 1.540 . S
C375 C95 1.534 . S
C380 C17 1.534 . S
C405 C29 1.540 . S
C410 C55 1.540 . S
C435 C43 1.534 . S
C440 C69 1.534 . S
C465 C82 1.534 . S
C470 C10 1.534 . S
C495 C96 1.540 . S
C500 C18 1.540 . S
C525 C36 1.534 . S
C530 C62 1.534 . S
C555 C44 1.540 . S
C560 C70 1.540 . S
