# Generated by pormake.
# Topology une, (4)-cn, num edge types: 1
# Building blocks:
#     Node 0, Type 0, BuildingBlock: GALJAG_clean_sbu_0, # of connection points: 4
#     Node 1, Type 0, BuildingBlock: GALJAG_clean_sbu_0, # of connection points: 4
#     Node 2, Type 0, BuildingBlock: GALJAG_clean_sbu_0, # of connection points: 4
#     Node 3, Type 0, BuildingBlock: GALJAG_clean_sbu_0, # of connection points: 4
#     Node 4, Type 0, BuildingBlock: GALJAG_clean_sbu_0, # of connection points: 4
#     Node 5, Type 0, BuildingBlock: GALJAG_clean_sbu_0, # of connection points: 4
#     Node 6, Type 0, BuildingBlock: GALJAG_clean_sbu_0, # of connection points: 4
#     Node 7, Type 0, BuildingBlock: GALJAG_clean_sbu_0, # of connection points: 4
#     Node 8, Type 0, BuildingBlock: GALJAG_clean_sbu_0, # of connection points: 4
#     Node 9, Type 0, BuildingBlock: GALJAG_clean_sbu_0, # of connection points: 4
#     Node 10, Type 0, BuildingBlock: GALJAG_clean_sbu_0, # of connection points: 4
#     Node 11, Type 0, BuildingBlock: GALJAG_clean_sbu_0, # of connection points: 4
#     Node 12, Type 0, BuildingBlock: GALJAG_clean_sbu_0, # of connection points: 4
#     Node 13, Type 0, BuildingBlock: GALJAG_clean_sbu_0, # of connection points: 4
#     Node 14, Type 0, BuildingBlock: GALJAG_clean_sbu_0, # of connection points: 4
#     Node 15, Type 0, BuildingBlock: GALJAG_clean_sbu_0, # of connection points: 4
#     Node 16, Type 0, BuildingBlock: GALJAG_clean_sbu_0, # of connection points: 4
#     Node 17, Type 0, BuildingBlock: GALJAG_clean_sbu_0, # of connection points: 4
#     Edge 18, Type (0, 0), BuildingBlock: EZIPEK_clean_linker_0, # of connection points: 2
#     Edge 19, Type (0, 0), BuildingBlock: EZIPEK_clean_linker_0, # of connection points: 2
#     Edge 20, Type (0, 0), BuildingBlock: EZIPEK_clean_linker_0, # of connection points: 2
#     Edge 21, Type (0, 0), BuildingBlock: EZIPEK_clean_linker_0, # of connection points: 2
#     Edge 22, Type (0, 0), BuildingBlock: EZIPEK_clean_linker_0, # of connection points: 2
#     Edge 23, Type (0, 0), BuildingBlock: EZIPEK_clean_linker_0, # of connection points: 2
#     Edge 24, Type (0, 0), BuildingBlock: EZIPEK_clean_linker_0, # of connection points: 2
#     Edge 25, Type (0, 0), BuildingBlock: EZIPEK_clean_linker_0, # of connection points: 2
#     Edge 26, Type (0, 0), BuildingBlock: EZIPEK_clean_linker_0, # of connection points: 2
#     Edge 27, Type (0, 0), BuildingBlock: EZIPEK_clean_linker_0, # of connection points: 2
#     Edge 28, Type (0, 0), BuildingBlock: EZIPEK_clean_linker_0, # of connection points: 2
#     Edge 29, Type (0, 0), BuildingBlock: EZIPEK_clean_linker_0, # of connection points: 2
#     Edge 30, Type (0, 0), BuildingBlock: EZIPEK_clean_linker_0, # of connection points: 2
#     Edge 31, Type (0, 0), BuildingBlock: EZIPEK_clean_linker_0, # of connection points: 2
#     Edge 32, Type (0, 0), BuildingBlock: EZIPEK_clean_linker_0, # of connection points: 2
#     Edge 33, Type (0, 0), BuildingBlock: EZIPEK_clean_linker_0, # of connection points: 2
#     Edge 34, Type (0, 0), BuildingBlock: EZIPEK_clean_linker_0, # of connection points: 2
#     Edge 35, Type (0, 0), BuildingBlock: EZIPEK_clean_linker_0, # of connection points: 2
#     Edge 36, Type (0, 0), BuildingBlock: EZIPEK_clean_linker_0, # of connection points: 2
#     Edge 37, Type (0, 0), BuildingBlock: EZIPEK_clean_linker_0, # of connection points: 2
#     Edge 38, Type (0, 0), BuildingBlock: EZIPEK_clean_linker_0, # of connection points: 2
#     Edge 39, Type (0, 0), BuildingBlock: EZIPEK_clean_linker_0, # of connection points: 2
#     Edge 40, Type (0, 0), BuildingBlock: EZIPEK_clean_linker_0, # of connection points: 2
#     Edge 41, Type (0, 0), BuildingBlock: EZIPEK_clean_linker_0, # of connection points: 2
#     Edge 42, Type (0, 0), BuildingBlock: EZIPEK_clean_linker_0, # of connection points: 2
#     Edge 43, Type (0, 0), BuildingBlock: EZIPEK_clean_linker_0, # of connection points: 2
#     Edge 44, Type (0, 0), BuildingBlock: EZIPEK_clean_linker_0, # of connection points: 2
#     Edge 45, Type (0, 0), BuildingBlock: EZIPEK_clean_linker_0, # of connection points: 2
#     Edge 46, Type (0, 0), BuildingBlock: EZIPEK_clean_linker_0, # of connection points: 2
#     Edge 47, Type (0, 0), BuildingBlock: EZIPEK_clean_linker_0, # of connection points: 2
#     Edge 48, Type (0, 0), BuildingBlock: EZIPEK_clean_linker_0, # of connection points: 2
#     Edge 49, Type (0, 0), BuildingBlock: EZIPEK_clean_linker_0, # of connection points: 2
#     Edge 50, Type (0, 0), BuildingBlock: EZIPEK_clean_linker_0, # of connection points: 2
#     Edge 51, Type (0, 0), BuildingBlock: EZIPEK_clean_linker_0, # of connection points: 2
#     Edge 52, Type (0, 0), BuildingBlock: EZIPEK_clean_linker_0, # of connection points: 2
#     Edge 53, Type (0, 0), BuildingBlock: EZIPEK_clean_linker_0, # of connection points: 2
# Relax obj value: 0.162
# Max RMSD: 0.140
# Mean RMSD: 0.139
data_MOF--net-une--node1-GALJAG_clean_sbu_0--edge1-EZIPEK_clean_linker_0
_symmetry_space_group_name_H-M    P1
_symmetry_Int_Tables_number       1
_symmetry_cell_setting            triclinic
loop_
_symmetry_equiv_pos_as_xyz
'x, y, z'
_cell_length_a     29.26067
_cell_length_b     29.242415
_cell_length_c     37.810252
_cell_angle_alpha  90.051642
_cell_angle_beta   89.992813
_cell_angle_gamma 120.01833
loop_
_atom_site_label
_atom_site_type_symbol
_atom_site_fract_x
_atom_site_fract_y
_atom_site_fract_z
_atom_type_partial_charge
In0 In 0.36525 0.05023 0.06121 0.0
O1 O 0.32115 0.07031 0.10216 0.0
O2 O 0.40126 0.09548 0.11352 0.0
C3 C 0.28827 0.95025 0.05164 0.0
C4 C 0.35817 0.1203 0.01996 0.0
C5 C 0.44305 0.03371 0.03767 0.0
O6 O 0.31077 0.96595 0.08125 0.0
O7 O 0.30341 0.98491 0.02783 0.0
O8 O 0.43033 0.06383 0.0222 0.0
O9 O 0.42041 0.01597 0.06701 0.0
C10 C 0.35982 0.09599 0.12248 0.0
O11 O 0.40083 0.13039 0.03501 0.0
O12 O 0.31977 0.07419 0.02456 0.0
In13 In 0.92849 0.29422 0.0503 0.0
O14 O 0.90505 0.22771 0.08959 0.0
O15 O 0.87427 0.27899 0.09881 0.0
C16 C 0.02842 0.31644 0.05609 0.0
C17 C 0.8586 0.22867 0.00286 0.0
C18 C 0.9569 0.38935 0.02178 0.0
O19 O 0.0087 0.33492 0.0775 0.0
O20 O -0.00276 0.28519 0.03303 0.0
O21 O 0.94803 0.3495 0.00374 0.0
O22 O 0.94851 0.38089 0.05473 0.0
C23 C 0.87599 0.23828 0.1083 0.0
O24 O 0.85532 0.26639 0.01644 0.0
O25 O 0.89797 0.22509 0.01279 0.0
In26 In 0.69179 0.62604 0.05218 0.0
O27 O 0.73072 0.58446 0.02568 0.0
O28 O 0.76099 0.66654 0.01514 0.0
C29 C 0.59463 0.55372 0.02864 0.0
C30 C 0.74322 0.62955 0.11274 0.0
C31 C 0.6812 0.71156 0.04784 0.0
O32 O 0.63562 0.57078 0.01006 0.0
O33 O 0.60248 0.57058 0.06013 0.0
O34 O 0.67102 0.68534 0.07611 0.0
O35 O 0.69663 0.6947 0.02251 0.0
C36 C 0.76532 0.62614 0.0106 0.0
O37 O 0.75822 0.66764 0.09168 0.0
O38 O 0.70006 0.58891 0.10432 0.0
In39 In 0.64445 0.93695 0.94455 0.0
O40 O 0.69186 0.92011 0.90449 0.0
O41 O 0.60843 0.87789 0.89818 0.0
C42 C 0.71627 0.03915 0.939 0.0
C43 C 0.65751 0.87721 0.99173 0.0
C44 C 0.56822 0.95349 0.97139 0.0
O45 O 0.67828 0.01711 0.91752 0.0
O46 O 0.71931 0.00922 0.9617 0.0
O47 O 0.59323 0.93732 0.98965 0.0
O48 O 0.57754 0.95621 0.93856 0.0
C49 C 0.65272 0.88498 0.88784 0.0
O50 O 0.61757 0.85896 0.97169 0.0
O51 O 0.68932 0.9263 0.98932 0.0
In52 In 0.06293 0.69562 0.93893 0.0
O53 O 0.1385 0.72451 0.97099 0.0
O54 O 0.0967 0.76653 0.97511 0.0
C55 C 0.03772 0.59715 0.9595 0.0
C56 C 0.10568 0.74876 0.87777 0.0
C57 C 0.96484 0.67676 0.95003 0.0
O58 O 0.0479 0.63417 0.98079 0.0
O59 O 0.04276 0.6099 0.92709 0.0
O60 O 0.97479 0.65164 0.92698 0.0
O61 O 0.0046 0.71363 0.96522 0.0
C62 C 0.1363 0.76306 0.98416 0.0
O63 O 0.06883 0.75016 0.8939 0.0
O64 O 0.11926 0.71765 0.89094 0.0
In65 In 0.28736 0.34951 0.95257 0.0
O66 O 0.23161 0.30131 0.90799 0.0
O67 O 0.26128 0.38414 0.90725 0.0
C68 C 0.30879 0.27186 0.96319 0.0
C69 C 0.21891 0.35207 0.99847 0.0
C70 C 0.38601 0.42619 0.96892 0.0
O71 O 0.32447 0.30021 0.93578 0.0
O72 O 0.28102 0.28143 0.98406 0.0
O73 O 0.35036 0.40224 0.99159 0.0
O74 O 0.37159 0.41403 0.93703 0.0
C75 C 0.23052 0.33954 0.89362 0.0
O76 O 0.2612 0.39311 0.9899 0.0
O77 O 0.21213 0.30994 0.98446 0.0
In78 In 0.03968 0.39263 0.38939 0.0
O79 O 0.99607 0.41479 0.42943 0.0
O80 O 0.0758 0.43907 0.44128 0.0
C81 C 0.9566 0.29636 0.37891 0.0
C82 C 0.03681 0.46416 0.34716 0.0
C83 C 0.11591 0.37108 0.37051 0.0
O84 O 0.97784 0.31036 0.40904 0.0
O85 O 0.97708 0.33057 0.35493 0.0
O86 O 0.10278 0.39807 0.35163 0.0
O87 O 0.09285 0.35709 0.40006 0.0
C88 C 0.03459 0.44021 0.44987 0.0
O89 O 0.07874 0.47317 0.36283 0.0
O90 O -0.00235 0.41861 0.35154 0.0
In91 In 0.60022 0.64047 0.3939 0.0
O92 O 0.57058 0.61303 0.33763 0.0
O93 O 0.55583 0.55472 0.37645 0.0
C94 C 0.61038 0.73431 0.37497 0.0
C95 C 0.54569 0.59223 0.45347 0.0
C96 C 0.70112 0.66405 0.38945 0.0
O97 O 0.5733 0.69091 0.36375 0.0
O98 O 0.63879 0.73026 0.39838 0.0
O99 O 0.6845 0.67843 0.41552 0.0
O100 O 0.66698 0.63687 0.36657 0.0
C101 C 0.54959 0.56465 0.34499 0.0
O102 O 0.5898 0.59711 0.4459 0.0
O103 O 0.53022 0.61527 0.43239 0.0
In104 In 0.35145 0.95863 0.39196 0.0
O105 O 0.40729 0.93514 0.36702 0.0
O106 O 0.39827 0.99542 0.3421 0.0
C107 C 0.25768 0.8803 0.36788 0.0
C108 C 0.41101 0.97043 0.44981 0.0
C109 C 0.32454 0.03306 0.39727 0.0
O110 O 0.29285 0.91439 0.34823 0.0
O111 O 0.27084 0.88277 0.40004 0.0
O112 O 0.30093 0.99093 0.41502 0.0
O113 O 0.36272 0.03832 0.37883 0.0
C114 C 0.42175 0.96923 0.34274 0.0
O115 O 0.41262 0.00867 0.43337 0.0
O116 O 0.37694 0.92527 0.43843 0.0
In117 In 0.3212 0.27001 0.28902 0.0
O118 O 0.36259 0.23501 0.25789 0.0
O119 O 0.29351 0.22884 0.23461 0.0
C120 C 0.40415 0.36822 0.28736 0.0
C121 C 0.30165 0.19269 0.33435 0.0
C122 C 0.25194 0.29849 0.31242 0.0
O123 O 0.37154 0.34976 0.26219 0.0
O124 O 0.39659 0.33625 0.31207 0.0
O125 O 0.28419 0.29415 0.33221 0.0
O126 O 0.25305 0.28681 0.28021 0.0
C127 C 0.33054 0.2183 0.23244 0.0
O128 O 0.26538 0.19329 0.31654 0.0
O129 O 0.34726 0.23227 0.33029 0.0
In130 In 0.71475 0.03244 0.27963 0.0
O131 O 0.72501 0.09171 0.23692 0.0
O132 O 0.77031 0.05354 0.23142 0.0
C133 C 0.61558 0.01278 0.28168 0.0
C134 C 0.78543 0.10613 0.32267 0.0
C135 C 0.69154 0.93669 0.30504 0.0
O136 O 0.63127 0.99459 0.25716 0.0
O137 O 0.6504 0.04251 0.30357 0.0
O138 O 0.70836 0.97733 0.324 0.0
O139 O 0.69058 0.94475 0.27223 0.0
C140 C 0.75992 0.08798 0.21982 0.0
O141 O 0.79726 0.079 0.3026 0.0
O142 O 0.7375 0.09395 0.32235 0.0
In143 In 0.95402 0.68503 0.28277 0.0
O144 O 0.92775 0.73581 0.31201 0.0
O145 O 0.88421 0.65258 0.3198 0.0
C146 C 0.05129 0.75893 0.30363 0.0
C147 C 0.89525 0.66854 0.22377 0.0
C148 C 0.97848 0.60924 0.29163 0.0
O149 O 0.01342 0.73344 0.32458 0.0
O150 O 0.03959 0.7504 0.27103 0.0
O151 O 0.99353 0.63871 0.26471 0.0
O152 O 0.94905 0.6162 0.31269 0.0
C153 C 0.88902 0.69707 0.32671 0.0
O154 O 0.88916 0.63216 0.2444 0.0
O155 O 0.93361 0.71378 0.23143 0.0
In156 In 0.69204 0.71748 0.71903 0.0
O157 O 0.72934 0.79953 0.69476 0.0
O158 O 0.65003 0.74352 0.68054 0.0
C159 C 0.76806 0.70079 0.69211 0.0
C160 C 0.68521 0.7621 0.78028 0.0
C161 C 0.61638 0.61596 0.72072 0.0
O162 O 0.73326 0.70225 0.67334 0.0
O163 O 0.76676 0.71076 0.72454 0.0
O164 O 0.65235 0.63529 0.74378 0.0
O165 O 0.61787 0.64775 0.69769 0.0
C166 C 0.68815 0.79012 0.67798 0.0
O167 O 0.6466 0.7361 0.75991 0.0
O168 O 0.72725 0.76305 0.77106 0.0
In169 In 0.26573 0.97261 0.71425 0.0
O170 O 0.25637 0.90851 0.75277 0.0
O171 O 0.20556 0.94033 0.75992 0.0
C172 C 0.36832 0.00536 0.72059 0.0
C173 C 0.20961 0.90613 0.66198 0.0
C174 C 0.27694 0.06678 0.69501 0.0
O175 O 0.3463 0.02389 0.73999 0.0
O176 O 0.33824 0.96888 0.69984 0.0
O177 O 0.27918 0.03498 0.67367 0.0
O178 O 0.2648 0.04968 0.72635 0.0
C179 C 0.21852 0.90696 0.76971 0.0
O180 O 0.1881 0.91663 0.68724 0.0
O181 O 0.25932 0.93138 0.66217 0.0
In182 In 0.01862 0.30171 0.72904 0.0
O183 O 0.06673 0.34004 0.77877 0.0
O184 O 0.04524 0.26025 0.76947 0.0
C185 C 0.00557 0.38523 0.71962 0.0
C186 C 0.09197 0.31065 0.68288 0.0
C187 C 0.9203 0.22604 0.71017 0.0
O188 O 0.99385 0.36041 0.74854 0.0
O189 O 0.02348 0.36782 0.69616 0.0
O190 O 0.96011 0.2411 0.69077 0.0
O191 O 0.92983 0.24664 0.74067 0.0
C192 C 0.07105 0.30119 0.78818 0.0
O193 O 0.05006 0.26747 0.68826 0.0
O194 O 0.0964 0.34941 0.70043 0.0
In195 In 0.98405 0.61579 0.60875 0.0
O196 O 0.94957 0.53607 0.6359 0.0
O197 O 0.02047 0.60039 0.65666 0.0
C198 C 0.90694 0.63452 0.63044 0.0
C199 C -0.0014 0.56456 0.55406 0.0
C200 C 0.06104 0.71588 0.60185 0.0
O201 O 0.94367 0.6391 0.65009 0.0
O202 O 0.90733 0.61839 0.59939 0.0
O203 O 0.0233 0.69555 0.57997 0.0
O204 O 0.06028 0.68525 0.62555 0.0
C205 C 0.98677 0.55187 0.65801 0.0
O206 O 0.03565 0.59787 0.57311 0.0
O207 O 0.95367 0.55884 0.56102 0.0
In208 In 0.38172 0.37699 0.62028 0.0
O209 O 0.41516 0.45629 0.59271 0.0
O210 O 0.41903 0.395 0.56467 0.0
C211 C 0.28364 0.36001 0.61723 0.0
C212 C 0.45495 0.4265 0.67073 0.0
C213 C 0.35239 0.27761 0.64036 0.0
O214 O 0.30139 0.3422 0.59379 0.0
O215 O 0.31639 0.38919 0.64037 0.0
O216 O 0.34292 0.30839 0.65806 0.0
O217 O 0.37775 0.2968 0.61185 0.0
C218 C 0.42947 0.44263 0.56514 0.0
O219 O 0.46098 0.40168 0.64549 0.0
O220 O 0.41227 0.42743 0.66953 0.0
In221 In 0.62046 0.02618 0.62076 0.0
O222 O 0.59597 0.08088 0.64632 0.0
O223 O 0.55372 -0.00062 0.65994 0.0
C224 C 0.71673 0.09809 0.6443 0.0
C225 C 0.5641 0.01181 0.56085 0.0
C226 C 0.63901 0.94596 0.62802 0.0
O227 O 0.67872 0.06974 0.66446 0.0
O228 O 0.70633 0.09211 0.61148 0.0
O229 O 0.60781 0.95219 0.6478 0.0
O230 O 0.65939 0.97896 0.60318 0.0
C231 C 0.55884 0.04463 0.66384 0.0
O232 O 0.55258 0.97618 0.5835 0.0
O233 O 0.60599 0.05495 0.56725 0.0
C234 C 0.52512 0.02647 0.03499 0.0
C235 C 0.47587 0.01452 0.02026 0.0
C236 C 0.48488 0.95867 0.97525 0.0
C237 C 0.53616 0.97434 0.98804 0.0
N238 N 0.61001 0.03346 0.02503 0.0
N239 N 0.41236 0.97603 0.9726 0.0
C240 C 0.55763 0.01089 0.01667 0.0
C241 C 0.45701 0.98303 0.98909 0.0
N242 N 0.54122 0.05318 0.06636 0.0
N243 N 0.4614 0.91832 0.95132 0.0
H244 H 0.3882 0.98956 0.98279 0.0
H245 H 0.40079 0.95928 0.94755 0.0
H246 H 0.4798 0.89838 0.9413 0.0
H247 H 0.42184 0.90102 0.94406 0.0
H248 H 0.57356 0.05728 0.08058 0.0
H249 H 0.52023 0.06827 0.07946 0.0
H250 H 0.62891 0.06438 0.04301 0.0
H251 H 0.63633 0.02577 0.01133 0.0
C252 C 0.94789 0.46863 0.00753 0.0
C253 C 0.97734 0.44219 0.00508 0.0
C254 C 0.04624 0.5169 0.97105 0.0
C255 C 0.01559 0.54197 0.97223 0.0
N256 N 0.93231 0.53679 0.98417 0.0
N257 N 0.0507 0.43719 0.97952 0.0
C258 C 0.96508 0.51651 0.98853 0.0
C259 C 0.0252 0.46499 0.98515 0.0
N260 N 0.90308 0.44779 0.02765 0.0
N261 N 0.09649 0.54367 0.95792 0.0
H262 H 0.03962 0.40096 0.99129 0.0
H263 H 0.08141 0.44865 0.96148 0.0
H264 H 0.11265 0.58115 0.94666 0.0
H265 H 0.12348 0.53052 0.96036 0.0
H266 H 0.88395 0.46853 0.03431 0.0
H267 H 0.88632 0.41069 0.03947 0.0
H268 H 0.89308 0.51783 0.99234 0.0
H269 H 0.94273 0.57031 0.96903 0.0
C270 C 0.45536 0.51089 0.99625 0.0
C271 C 0.44138 0.4618 0.98013 0.0
C272 C 0.52616 0.47094 0.9985 0.0
C273 C 0.54123 0.52131 0.01298 0.0
N274 N 0.52537 0.59443 0.01868 0.0
N275 N 0.46573 0.3981 0.96107 0.0
C276 C 0.50721 0.54273 0.01004 0.0
C277 C 0.47768 0.44293 0.97957 0.0
N278 N 0.41884 0.52688 0.99872 0.0
N279 N 0.55714 0.44887 0.00427 0.0
H280 H 0.43007 0.37564 0.9478 0.0
H281 H 0.49254 0.38521 0.95651 0.0
H282 H 0.59258 0.46805 0.01828 0.0
H283 H 0.54586 0.41001 0.99788 0.0
H284 H 0.42427 0.55882 0.01405 0.0
H285 H 0.38164 0.50633 0.98695 0.0
H286 H 0.50455 0.61399 0.01362 0.0
H287 H 0.5635 0.61945 0.02796 0.0
C288 C 0.12876 0.30728 0.33353 0.0
C289 C 0.15033 0.35151 0.35667 0.0
C290 C 0.23876 0.36415 0.34755 0.0
C291 C 0.21679 0.3174 0.32654 0.0
N292 N 0.1396 0.23882 0.30534 0.0
N293 N 0.22366 0.41717 0.39033 0.0
C294 C 0.16143 0.28752 0.32089 0.0
C295 C 0.20468 0.37836 0.36516 0.0
N296 N 0.077 0.28423 0.32346 0.0
N297 N 0.29231 0.39643 0.34937 0.0
H298 H 0.19998 0.42948 0.40302 0.0
H299 H 0.26167 0.43414 0.4007 0.0
H300 H 0.31892 0.38838 0.33642 0.0
H301 H 0.31049 0.43375 0.36095 0.0
H302 H 0.06066 0.25624 0.30334 0.0
H303 H 0.05095 0.29551 0.3336 0.0
H304 H 0.09911 0.21272 0.30401 0.0
H305 H 0.16179 0.22211 0.29663 0.0
C306 C 0.61252 0.82081 0.36729 0.0
C307 C 0.62796 0.78456 0.35569 0.0
C308 C 0.68606 0.84805 0.31089 0.0
C309 C 0.66824 0.88316 0.32107 0.0
N310 N 0.60468 0.89728 0.353 0.0
N311 N 0.67113 0.75875 0.31207 0.0
C312 C 0.62871 0.86799 0.34766 0.0
C313 C 0.66206 0.79663 0.32604 0.0
N314 N 0.58302 0.81054 0.39734 0.0
N315 N 0.72776 0.86467 0.28819 0.0
H316 H 0.65559 0.72105 0.32283 0.0
H317 H 0.69078 0.76328 0.28823 0.0
H318 H 0.74676 0.90217 0.27683 0.0
H319 H 0.74652 0.84309 0.28301 0.0
H320 H 0.57564 0.8382 0.40947 0.0
H321 H 0.56906 0.77552 0.41162 0.0
H322 H 0.57207 0.88536 0.36941 0.0
H323 H 0.61358 0.93084 0.33826 0.0
C324 C 0.14598 0.7802 0.30935 0.0
C325 C 0.10572 0.79222 0.31761 0.0
C326 C 0.16134 0.85209 0.36473 0.0
C327 C 0.2037 0.84469 0.35389 0.0
N328 N 0.23837 0.80546 0.31369 0.0
N329 N 0.07879 0.84695 0.3484 0.0
C330 C 0.19663 0.81004 0.3254 0.0
C331 C 0.11446 0.83014 0.34406 0.0
N332 N 0.13515 0.73831 0.28788 0.0
N333 N 0.16553 0.87998 0.39477 0.0
H334 H 0.0448 0.83292 0.33297 0.0
H335 H 0.08549 0.87859 0.36454 0.0
H336 H 0.1994 0.89816 0.41031 0.0
H337 H 0.1338 0.88151 0.40597 0.0
H338 H 0.16081 0.72369 0.28447 0.0
H339 H 0.09877 0.71507 0.27568 0.0
H340 H 0.2377 0.78647 0.29021 0.0
H341 H 0.27478 0.82295 0.32659 0.0
C342 C 0.86589 0.69234 0.62973 0.0
C343 C 0.86734 0.64803 0.64376 0.0
C344 C 0.80286 0.6376 0.6894 0.0
C345 C 0.80464 0.6844 0.67708 0.0
N346 N 0.84328 0.76083 0.63923 0.0
N347 N 0.83998 0.57973 0.68784 0.0
C348 C 0.83735 0.71278 0.64806 0.0
C349 C 0.83666 0.62114 0.67392 0.0
N350 N 0.89202 0.71516 0.59901 0.0
N351 N 0.76702 0.60735 0.71473 0.0
H352 H 0.85968 0.56282 0.67525 0.0
H353 H 0.82509 0.56333 0.71254 0.0
H354 H 0.74219 0.6181 0.72741 0.0
H355 H 0.75886 0.56955 0.72158 0.0
H356 H 0.88778 0.74363 0.58527 0.0
H357 H 0.91522 0.70304 0.58558 0.0
H358 H 0.87071 0.78641 0.62093 0.0
H359 H 0.82405 0.77761 0.6526 0.0
C360 C 0.35462 0.21727 0.68651 0.0
C361 C 0.33526 0.22352 0.65345 0.0
C362 C 0.27037 0.12869 0.65242 0.0
C363 C 0.29284 0.12154 0.68375 0.0
N364 N 0.36147 0.15829 0.72826 0.0
N365 N 0.27924 0.18469 0.60254 0.0
C366 C 0.33598 0.16568 0.70043 0.0
C367 C 0.29464 0.17901 0.63561 0.0
N368 N 0.39124 0.26083 0.70462 0.0
N369 N 0.22431 0.08768 0.63962 0.0
H370 H 0.29473 0.22102 0.58978 0.0
H371 H 0.25406 0.15297 0.58656 0.0
H372 H 0.20455 0.05088 0.65199 0.0
H373 H 0.20283 0.09141 0.619 0.0
H374 H 0.40116 0.25981 0.73094 0.0
H375 H 0.41012 0.29879 0.69394 0.0
H376 H 0.39732 0.1878 0.73831 0.0
H377 H 0.34937 0.12176 0.73987 0.0
C378 C 0.80495 0.11238 0.66283 0.0
C379 C 0.77012 0.13263 0.65896 0.0
C380 C 0.83375 0.21438 0.68891 0.0
C381 C 0.86649 0.19226 0.69565 0.0
N382 N 0.88045 0.11788 0.69356 0.0
N383 N 0.74723 0.19928 0.67224 0.0
C384 C 0.8513 0.14056 0.6838 0.0
C385 C 0.78325 0.18252 0.67328 0.0
N386 N 0.79399 0.06655 0.64607 0.0
N387 N 0.85211 0.26669 0.69554 0.0
H388 H 0.71088 0.17823 0.65943 0.0
H389 H 0.75194 0.23227 0.68597 0.0
H390 H 0.88924 0.29161 0.7063 0.0
H391 H 0.83262 0.28652 0.68755 0.0
H392 H 0.82011 0.05219 0.64495 0.0
H393 H 0.76026 0.04478 0.63071 0.0
H394 H 0.8688 0.07844 0.68893 0.0
H395 H 0.91429 0.13738 0.70918 0.0
C396 C 0.31118 0.10264 0.17506 0.0
C397 C 0.35621 0.12704 0.15273 0.0
C398 C 0.38476 0.2118 0.18305 0.0
C399 C 0.33699 0.18825 0.2028 0.0
N400 N 0.25081 0.11283 0.21371 0.0
N401 N 0.43295 0.20719 0.13238 0.0
C402 C 0.2989 0.13422 0.19748 0.0
C403 C 0.39259 0.18216 0.15611 0.0
N404 N 0.28143 0.04874 0.1761 0.0
N405 N 0.42273 0.26291 0.18981 0.0
H406 H 0.44109 0.18785 0.11241 0.0
H407 H 0.45616 0.24808 0.13053 0.0
H408 H 0.41663 0.28791 0.20637 0.0
H409 H 0.46121 0.27992 0.1803 0.0
H410 H 0.25135 0.02818 0.19437 0.0
H411 H 0.29057 0.02426 0.16128 0.0
H412 H 0.21946 0.0754 0.20778 0.0
H413 H 0.2404 0.13392 0.2309 0.0
C414 C 0.87293 0.1999 0.16824 0.0
C415 C 0.84549 0.20353 0.13838 0.0
C416 C 0.76318 0.12751 0.16011 0.0
C417 C 0.79005 0.1258 0.19092 0.0
N418 N 0.86788 0.16697 0.22775 0.0
N419 N 0.76356 0.17558 0.10759 0.0
C420 C 0.8443 0.16366 0.19588 0.0
C421 C 0.7902 0.16893 0.13497 0.0
N422 N 0.92663 0.23093 0.1701 0.0
N423 N 0.7124 0.08813 0.15422 0.0
H424 H 0.78224 0.20429 0.08816 0.0
H425 H 0.72262 0.15545 0.1054 0.0
H426 H 0.69175 0.057 0.17186 0.0
H427 H 0.69203 0.08359 0.13073 0.0
H428 H 0.94973 0.22534 0.18861 0.0
H429 H 0.94866 0.26069 0.15185 0.0
H430 H 0.90525 0.19763 0.23453 0.0
H431 H 0.84854 0.14155 0.24876 0.0
C432 C 0.84356 0.61809 0.17018 0.0
C433 C 0.85606 0.65875 0.19535 0.0
C434 C 0.78967 0.67617 0.16857 0.0
C435 C 0.77565 0.63398 0.14435 0.0
N436 N 0.78082 0.557 0.12753 0.0
N437 N 0.83205 0.71768 0.22384 0.0
C438 C 0.79973 0.60229 0.14699 0.0
C439 C 0.82679 0.68557 0.19596 0.0
N440 N 0.87521 0.59624 0.16725 0.0
N441 N 0.76725 0.7073 0.16551 0.0
H442 H 0.85771 0.72468 0.24486 0.0
H443 H 0.80759 0.73355 0.22791 0.0
H444 H 0.73598 0.69856 0.14837 0.0
H445 H 0.7811 0.74297 0.1789 0.0
H446 H 0.87181 0.57068 0.14692 0.0
H447 H 0.90833 0.60762 0.18315 0.0
H448 H 0.79319 0.52956 0.13108 0.0
H449 H 0.74935 0.54422 0.10998 0.0
C450 C 0.63368 0.79669 0.86314 0.0
C451 C 0.65943 0.85261 0.86005 0.0
C452 C 0.71202 0.84894 0.81058 0.0
C453 C 0.68127 0.79282 0.81051 0.0
N454 N 0.61033 0.71285 0.83559 0.0
N455 N 0.71599 0.93107 0.82662 0.0
C456 C 0.64115 0.76664 0.83637 0.0
C457 C 0.69686 0.87848 0.83272 0.0
N458 N 0.60464 0.77235 0.89265 0.0
N459 N 0.75568 0.87447 0.78956 0.0
H460 H 0.70446 0.95374 0.8414 0.0
H461 H 0.73874 0.95087 0.80462 0.0
H462 H 0.76762 0.85533 0.77179 0.0
H463 H 0.78264 0.91472 0.79172 0.0
H464 H 0.59001 0.73256 0.89828 0.0
H465 H 0.59906 0.79262 0.91332 0.0
H466 H 0.57602 0.69209 0.8505 0.0
H467 H 0.61772 0.68897 0.81879 0.0
C468 C 0.16998 0.84176 0.8599 0.0
C469 C 0.13658 0.78814 0.84991 0.0
C470 C 0.15925 0.81203 0.78747 0.0
C471 C 0.18941 0.86627 0.79731 0.0
N472 N 0.21963 0.93383 0.84215 0.0
N473 N 0.09519 0.72204 0.80471 0.0
C474 C 0.19348 0.88142 0.83333 0.0
C475 C 0.13033 0.77313 0.81382 0.0
N476 N 0.18089 0.85442 0.89492 0.0
N477 N 0.15819 0.79775 0.75288 0.0
H478 H 0.07453 0.69255 0.82341 0.0
H479 H 0.08395 0.70924 0.77882 0.0
H480 H 0.17539 0.82502 0.73242 0.0
H481 H 0.14249 0.75886 0.74444 0.0
H482 H 0.2093 0.89153 0.90399 0.0
H483 H 0.16477 0.82655 0.91514 0.0
H484 H 0.21874 0.94789 0.86729 0.0
H485 H 0.2397 0.96389 0.82372 0.0
C486 C 0.19448 0.31345 0.83193 0.0
C487 C 0.19051 0.33088 0.86621 0.0
C488 C 0.10376 0.31987 0.85085 0.0
C489 C 0.10992 0.30687 0.8157 0.0
N490 N 0.1653 0.30041 0.77091 0.0
N491 N 0.14357 0.35462 0.90816 0.0
C492 C 0.15622 0.30569 0.80575 0.0
C493 C 0.14585 0.33546 0.87557 0.0
N494 N 0.23486 0.30423 0.82434 0.0
N495 N 0.05674 0.3153 0.86088 0.0
H496 H 0.17179 0.36347 0.92779 0.0
H497 H 0.11547 0.36485 0.91521 0.0
H498 H 0.02507 0.30343 0.8435 0.0
H499 H 0.04723 0.31882 0.88688 0.0
H500 H 0.23636 0.28529 0.8014 0.0
H501 H 0.2654 0.31249 0.84204 0.0
H502 H 0.2009 0.30535 0.76142 0.0
H503 H 0.13895 0.29557 0.75079 0.0
C504 C 0.98927 0.44564 0.50494 0.0
C505 C 0.03092 0.47123 0.48001 0.0
C506 C 0.04766 0.55755 0.50171 0.0
C507 C 0.00768 0.53209 0.52764 0.0
N508 N 0.94917 0.45222 0.5594 0.0
N509 N 0.1081 0.55174 0.46076 0.0
C510 C 0.9807 0.47616 0.53073 0.0
C511 C 0.06296 0.52721 0.48047 0.0
N512 N 0.95792 0.3919 0.50411 0.0
N513 N 0.06921 0.61059 0.49604 0.0
H514 H 0.12056 0.53175 0.44414 0.0
H515 H 0.13577 0.59175 0.46317 0.0
H516 H 0.05809 0.63398 0.51035 0.0
H517 H 0.09406 0.63041 0.47486 0.0
H518 H 0.92262 0.37154 0.51806 0.0
H519 H 0.96612 0.36766 0.48827 0.0
H520 H 0.93328 0.41232 0.56525 0.0
H521 H 0.94257 0.47291 0.57929 0.0
C522 C 0.53322 0.56614 0.51747 0.0
C523 C 0.51275 0.55665 0.48255 0.0
C524 C 0.4351 0.47421 0.50247 0.0
C525 C 0.45841 0.48103 0.53637 0.0
N526 N 0.53307 0.52955 0.57507 0.0
N527 N 0.44783 0.49757 0.44036 0.0
C528 C 0.50834 0.52609 0.54364 0.0
C529 C 0.46445 0.50974 0.47465 0.0
N530 N 0.57577 0.61412 0.52581 0.0
N531 N 0.38423 0.43474 0.49709 0.0
H532 H 0.46759 0.52224 0.41909 0.0
H533 H 0.41662 0.46106 0.43257 0.0
H534 H 0.36164 0.40775 0.5167 0.0
H535 H 0.36293 0.43144 0.47423 0.0
H536 H 0.58943 0.62565 0.55153 0.0
H537 H 0.59446 0.64447 0.50736 0.0
H538 H 0.57185 0.55845 0.58049 0.0
H539 H 0.51657 0.50078 0.59473 0.0
C540 C 0.49571 0.02771 0.53241 0.0
C541 C 0.52778 0.00396 0.531 0.0
C542 C 0.48434 0.95905 0.47566 0.0
C543 C 0.44909 0.97908 0.47876 0.0
N544 N 0.41541 0.02528 0.51306 0.0
N545 N 0.54865 0.9419 0.50406 0.0
C546 C 0.45339 0.0117 0.50789 0.0
C547 C 0.52071 0.96792 0.50351 0.0
N548 N 0.50551 0.06547 0.55732 0.0
N549 N 0.48529 0.93417 0.44526 0.0
H550 H 0.57806 0.94979 0.52264 0.0
H551 H 0.54053 0.91031 0.48742 0.0
H552 H 0.4601 0.92745 0.42398 0.0
H553 H 0.51409 0.92419 0.43976 0.0
H554 H 0.4876 0.08854 0.55732 0.0
H555 H 0.5346 0.07671 0.57662 0.0
H556 H 0.41296 0.04426 0.53567 0.0
H557 H 0.38309 0.01312 0.49624 0.0
C558 C 0.26925 0.86976 0.01883 0.0
C559 C 0.25187 0.89441 0.04319 0.0
C560 C 0.16192 0.82057 0.03779 0.0
C561 C 0.17755 0.80305 0.00743 0.0
N562 N 0.24705 0.81547 0.96669 0.0
N563 N 0.18213 0.89392 0.07716 0.0
C564 C 0.23165 0.82801 0.99761 0.0
C565 C 0.19838 0.86961 0.05356 0.0
N566 N 0.32183 0.88665 0.01597 0.0
N567 N 0.11263 0.78996 0.05171 0.0
H568 H 0.20845 0.92901 0.08997 0.0
H569 H 0.14256 0.88075 0.0826 0.0
H570 H 0.0858 0.75287 0.04147 0.0
H571 H 0.10048 0.79873 0.07539 0.0
H572 H 0.33658 0.86722 1.00071 0.0
H573 H 0.3499 0.91657 0.03205 0.0
H574 H 0.28538 0.83706 0.95687 0.0
H575 H 0.22114 0.78711 0.94895 0.0
C576 C 0.10183 0.29686 0.05915 0.0
C577 C 0.08509 0.33414 0.05469 0.0
C578 C 0.16288 0.39052 0.01947 0.0
C579 C 0.179 0.3521 0.02254 0.0
N580 N 0.17495 0.28025 0.05649 0.0
N581 N 0.10983 0.42486 0.04433 0.0
C582 C 0.15209 0.30896 0.04618 0.0
C583 C 0.11947 0.38413 0.03987 0.0
N584 N 0.06902 0.24944 0.07481 0.0
N585 N 0.18505 0.43018 0.99503 0.0
H586 H 0.07804 0.42115 0.05906 0.0
H587 H 0.13632 0.46343 0.03649 0.0
H588 H 0.21526 0.43594 0.97792 0.0
H589 H 0.16984 0.45486 0.98936 0.0
H590 H 0.07639 0.21808 0.07507 0.0
H591 H 0.03321 0.24107 0.08632 0.0
H592 H 0.15872 0.25073 0.07563 0.0
H593 H 0.21303 0.29005 0.04876 0.0
C594 C 0.7235 0.8045 0.02902 0.0
C595 C 0.67908 0.76061 0.04415 0.0
C596 C 0.62776 0.80491 0.03619 0.0
C597 C 0.66821 0.84221 0.01388 0.0
N598 N 0.75355 0.87416 0.98591 0.0
N599 N 0.58826 0.71849 0.06341 0.0
C600 C 0.71639 0.84201 0.00996 0.0
C601 C 0.63119 0.76099 0.04883 0.0
N602 N 0.77238 0.80978 0.03262 0.0
N603 N 0.58652 0.8119 0.04545 0.0
H604 H 0.5897 0.68657 0.07435 0.0
H605 H 0.55051 0.71367 0.06309 0.0
H606 H 0.5837 0.84441 0.03707 0.0
H607 H 0.55816 0.78861 0.06409 0.0
H608 H 0.80699 0.84343 0.02473 0.0
H609 H 0.7786 0.78296 0.04709 0.0
H610 H 0.78635 0.87078 0.97946 0.0
H611 H 0.74963 0.9008 0.96976 0.0
C612 C 0.80405 0.12076 0.93506 0.0
C613 C 0.74957 0.0967 0.94222 0.0
C614 C 0.76423 0.16763 0.9827 0.0
C615 C 0.81965 0.19043 0.97737 0.0
N616 N 0.88923 0.2008 0.93808 0.0
N617 N 0.67654 0.10702 0.96051 0.0
C618 C 0.83857 0.17098 0.94995 0.0
C619 C 0.7293 0.12394 0.96155 0.0
N620 N 0.82276 0.09469 0.91515 0.0
N621 N 0.7445 0.18393 0.00959 0.0
H622 H 0.6501 0.07477 0.94533 0.0
H623 H 0.66012 0.12812 0.97168 0.0
H624 H 0.7672 0.21572 0.02608 0.0
H625 H 0.70501 0.16323 0.01724 0.0
H626 H 0.86279 0.10742 0.9124 0.0
H627 H 0.7976 0.05894 0.90255 0.0
H628 H 0.90405 0.19019 0.91648 0.0
H629 H 0.91447 0.23896 0.94741 0.0
C630 C 0.85011 0.62585 0.01419 0.0
C631 C 0.81232 0.63028 0.99321 0.0
C632 C 0.87143 0.65682 0.94182 0.0
C633 C 0.91107 0.65759 0.96381 0.0
N634 N 0.93931 0.64238 0.02061 0.0
N635 N 0.7848 0.64897 0.93771 0.0
C636 C 0.90052 0.64145 0.99981 0.0
C637 C 0.82221 0.64506 0.95706 0.0
N638 N 0.83797 0.60708 0.04806 0.0
N639 N 0.88114 0.66776 0.90655 0.0
H640 H 0.74718 0.63732 0.94748 0.0
H641 H 0.79105 0.66512 0.91247 0.0
H642 H 0.91765 0.67927 0.89496 0.0
H643 H 0.85264 0.66305 0.88819 0.0
H644 H 0.86034 0.59566 0.0631 0.0
H645 H 0.80372 0.59995 0.06102 0.0
H646 H 0.9375 0.63958 0.04805 0.0
H647 H 0.97484 0.64769 0.01076 0.0
C648 C 0.35676 0.24759 0.00604 0.0
C649 C 0.32866 0.23659 0.97379 0.0
C650 C 0.33107 0.15449 0.96792 0.0
C651 C 0.35116 0.16167 0.0029 0.0
N652 N 0.37234 0.21015 0.05806 0.0
N653 N 0.2861 0.17876 0.92425 0.0
C654 C 0.36168 0.20715 0.02267 0.0
C655 C 0.31543 0.19005 0.95446 0.0
N656 N 0.37919 0.29693 0.02066 0.0
N657 N 0.32787 0.1144 0.94751 0.0
H658 H 0.27473 0.20439 0.91349 0.0
H659 H 0.27022 0.14267 0.91113 0.0
H660 H 0.33952 0.0881 0.9566 0.0
H661 H 0.31812 0.11002 0.92076 0.0
H662 H 0.40444 0.30828 0.0424 0.0
H663 H 0.3773 0.32809 0.00875 0.0
H664 H 0.37498 0.24024 0.07425 0.0
H665 H 0.3724 0.17963 0.07214 0.0
C666 C 0.86565 0.24684 0.35583 0.0
C667 C 0.90866 0.24551 0.37176 0.0
C668 C 0.86397 0.14986 0.363 0.0
C669 C 0.82595 0.15322 0.34154 0.0
N670 N 0.79758 0.2081 0.31158 0.0
N671 N 0.95197 0.19678 0.38807 0.0
C672 C 0.82815 0.20242 0.3366 0.0
C673 C 0.90858 0.19719 0.37514 0.0
N674 N 0.86072 0.29074 0.35908 0.0
N675 N 0.85695 0.10162 0.37229 0.0
H676 H 0.98529 0.2306 0.39737 0.0
H677 H 0.95639 0.16359 0.38724 0.0
H678 H 0.82411 0.06619 0.36442 0.0
H679 H 0.8809 0.09679 0.39052 0.0
H680 H 0.82744 0.29194 0.35061 0.0
H681 H 0.8872 0.32377 0.37373 0.0
H682 H 0.80203 0.24463 0.30474 0.0
H683 H 0.77208 0.17786 0.2947 0.0
C684 C 0.83112 0.66761 0.37984 0.0
C685 C 0.851 0.70188 0.35018 0.0
C686 C 0.78416 0.72751 0.35984 0.0
C687 C 0.75738 0.68394 0.38279 0.0
N688 N 0.75508 0.6134 0.41675 0.0
N689 N 0.84655 0.76673 0.31221 0.0
C690 C 0.78115 0.65467 0.3939 0.0
C691 C 0.82854 0.73361 0.34071 0.0
N692 N 0.86056 0.64829 0.39475 0.0
N693 N 0.76683 0.76285 0.35631 0.0
H694 H 0.88036 0.77553 0.29807 0.0
H695 H 0.8261 0.78395 0.30126 0.0
H696 H 0.7347 0.75935 0.37054 0.0
H697 H 0.78737 0.7982 0.34242 0.0
H698 H 0.84996 0.62629 0.418 0.0
H699 H 0.89853 0.65935 0.38593 0.0
H700 H 0.7676 0.5866 0.42262 0.0
H701 H 0.71935 0.60465 0.42855 0.0
C702 C 0.26813 0.09554 0.34154 0.0
C703 C 0.29309 0.14728 0.35622 0.0
C704 C 0.32547 0.11795 0.406 0.0
C705 C 0.30214 0.06727 0.39053 0.0
N706 N 0.23722 0.00282 0.3512 0.0
N707 N 0.33065 0.20338 0.40726 0.0
C708 C 0.26796 0.05435 0.36119 0.0
C709 C 0.31677 0.157 0.39023 0.0
N710 N 0.24938 0.08634 0.30761 0.0
N711 N 0.35762 0.12911 0.43474 0.0
H712 H 0.32328 0.23195 0.39654 0.0
H713 H 0.34454 0.21122 0.43317 0.0
H714 H 0.36238 0.10013 0.44753 0.0
H715 H 0.38085 0.16704 0.44489 0.0
H716 H 0.23714 0.05078 0.29442 0.0
H717 H 0.25023 0.11514 0.29114 0.0
H718 H 0.20772 0.9904 0.33208 0.0
H719 H 0.23775 0.97202 0.36462 0.0
C720 C 0.47141 0.51513 0.30519 0.0
C721 C 0.51934 0.52188 0.3193 0.0
C722 C 0.49829 0.435 0.29675 0.0
C723 C 0.44629 0.42408 0.2898 0.0
N724 N 0.38292 0.45384 0.2848 0.0
N725 N 0.58262 0.49255 0.32487 0.0
C726 C 0.4331 0.46462 0.29221 0.0
C727 C 0.53436 0.48328 0.31349 0.0
N728 N 0.46186 0.55638 0.30499 0.0
N729 N 0.51277 0.39899 0.28701 0.0
H730 H 0.61138 0.52918 0.33463 0.0
H731 H 0.59389 0.46399 0.32546 0.0
H732 H 0.4869 0.36391 0.27397 0.0
H733 H 0.55106 0.40555 0.28887 0.0
H734 H 0.43042 0.55564 0.29161 0.0
H735 H 0.48763 0.59333 0.31563 0.0
H736 H 0.36857 0.479 0.29108 0.0
H737 H 0.35404 0.41832 0.27397 0.0
C738 C 0.55182 0.04259 0.2932 0.0
C739 C 0.56045 0.00012 0.28608 0.0
C740 C 0.46985 0.93807 0.30403 0.0
C741 C 0.46634 0.98066 0.31904 0.0
N742 N 0.50873 0.0747 0.33176 0.0
N743 N 0.528 0.906 0.2859 0.0
C744 C 0.50802 0.03351 0.3141 0.0
C745 C 0.51926 0.94725 0.29108 0.0
N746 N 0.58639 0.09185 0.28065 0.0
N747 N 0.42595 0.88908 0.30193 0.0
H748 H 0.56324 0.91048 0.27607 0.0
H749 H 0.50129 0.86747 0.29365 0.0
H750 H 0.38881 0.88158 0.31026 0.0
H751 H 0.42531 0.85763 0.28852 0.0
H752 H 0.57962 0.12354 0.28255 0.0
H753 H 0.61872 0.09919 0.26493 0.0
H754 H 0.54122 0.11282 0.33157 0.0
H755 H 0.47995 0.07055 0.3497 0.0
C756 C 0.99079 0.53092 0.28213 0.0
C757 C 0.00153 0.57649 0.30176 0.0
C758 C 0.03962 0.55076 0.34968 0.0
C759 C 0.03064 0.50583 0.32984 0.0
N760 N 0.0083 0.45859 0.27449 0.0
N761 N 0.05144 0.63839 0.34806 0.0
C762 C 0.00963 0.49767 0.29507 0.0
C763 C 0.03107 0.58923 0.33349 0.0
N764 N 0.96076 0.51824 0.25216 0.0
N765 N 0.05211 0.55491 0.38481 0.0
H766 H 0.04683 0.6681 0.33647 0.0
H767 H 0.07771 0.65133 0.36928 0.0
H768 H 0.05586 0.52625 0.39862 0.0
H769 H 0.05312 0.58409 0.4012 0.0
H770 H 0.94665 0.4825 0.23883 0.0
H771 H 0.94713 0.54228 0.24179 0.0
H772 H -0.00228 0.4535 0.24788 0.0
H773 H 0.02244 0.43413 0.28326 0.0
C774 C 0.48783 0.4867 0.72343 0.0
C775 C 0.49807 0.46042 0.69575 0.0
C776 C 0.59091 0.52785 0.69543 0.0
C777 C 0.57869 0.55914 0.7179 0.0
N778 N 0.51896 0.56756 0.75754 0.0
N779 N 0.56257 0.44023 0.67263 0.0
C780 C 0.52836 0.53779 0.73394 0.0
C781 C 0.55082 0.47581 0.68722 0.0
N782 N 0.44001 0.46167 0.74005 0.0
N783 N 0.63968 0.54892 0.68023 0.0
H784 H 0.53428 0.40034 0.67013 0.0
H785 H 0.60099 0.44838 0.66788 0.0
H786 H 0.67018 0.587 0.68578 0.0
H787 H 0.64874 0.52996 0.66042 0.0
H788 H 0.43006 0.47703 0.76161 0.0
H789 H 0.41199 0.42255 0.73421 0.0
H790 H 0.48187 0.55683 0.76766 0.0
H791 H 0.54873 0.60433 0.76643 0.0
C792 C 0.50427 0.0223 0.71815 0.0
C793 C 0.52216 0.05256 0.68667 0.0
C794 C 0.45 0.07173 0.69097 0.0
C795 C 0.42578 0.03097 0.71636 0.0
N796 N 0.42997 0.9701 0.75697 0.0
N797 N 0.5155 0.11211 0.64501 0.0
C798 C 0.45343 0.00773 0.73136 0.0
C799 C 0.49709 0.08047 0.6742 0.0
N800 N 0.53624 0.00783 0.73519 0.0
N801 N 0.42716 0.10117 0.68241 0.0
H802 H 0.55223 0.12465 0.63375 0.0
H803 H 0.49371 0.12558 0.63126 0.0
H804 H 0.39179 0.09439 0.69358 0.0
H805 H 0.4453 0.13502 0.66684 0.0
H806 H 0.52718 0.98882 0.75959 0.0
H807 H 0.57448 0.01992 0.72643 0.0
H808 H 0.44541 0.94705 0.76615 0.0
H809 H 0.39361 0.96068 0.76806 0.0
C810 C 0.04842 0.47663 0.69762 0.0
C811 C 0.00364 0.43406 0.71351 0.0
C812 C 0.95322 0.47876 0.70243 0.0
C813 C 0.99448 0.51481 0.68008 0.0
N814 N 0.07928 0.54317 0.6523 0.0
N815 N 0.91286 0.39437 0.73255 0.0
C816 C 0.04199 0.51317 0.67695 0.0
C817 C 0.956 0.43536 0.71697 0.0
N818 N 0.09715 0.48188 0.70227 0.0
N819 N 0.91201 0.48661 0.71013 0.0
H820 H 0.9141 0.36359 0.74544 0.0
H821 H 0.87521 0.38973 0.73144 0.0
H822 H 0.90952 0.51859 0.70023 0.0
H823 H 0.88311 0.46454 0.72878 0.0
H824 H 0.13192 0.5148 0.69374 0.0
H825 H 0.10312 0.45618 0.7182 0.0
H826 H 0.11164 0.53863 0.64661 0.0
H827 H 0.07559 0.56865 0.63485 0.0
C828 C 0.19058 0.82417 0.62794 0.0
C829 C 0.17829 0.86444 0.63579 0.0
C830 C 0.09179 0.81259 0.60771 0.0
C831 C 0.10341 0.77164 0.60175 0.0
N832 N 0.16926 0.74703 0.59231 0.0
N833 N 0.12637 0.90511 0.62178 0.0
C834 C 0.15516 0.78103 0.6067 0.0
C835 C 0.13188 0.86139 0.62173 0.0
N836 N 0.23269 0.82377 0.6433 0.0
N837 N 0.04193 0.80392 0.60238 0.0
H838 H 0.15598 0.94172 0.63101 0.0
H839 H 0.09526 0.90639 0.60935 0.0
H840 H 0.01223 0.76971 0.59063 0.0
H841 H 0.02956 0.82988 0.61088 0.0
H842 H 0.23913 0.79191 0.64121 0.0
H843 H 0.25861 0.85234 0.66088 0.0
H844 H 0.20784 0.75398 0.59261 0.0
H845 H 0.14311 0.71492 0.57679 0.0
C846 C 0.15748 0.36041 0.63543 0.0
C847 C 0.1337 0.31606 0.65838 0.0
C848 C 0.19672 0.28982 0.63844 0.0
C849 C 0.22698 0.33997 0.62244 0.0
N850 N 0.23687 0.42319 0.60432 0.0
N851 N 0.13396 0.24015 0.68415 0.0
C852 C 0.20724 0.37516 0.62015 0.0
C853 C 0.1533 0.28036 0.66001 0.0
N854 N 0.132 0.38766 0.6278 0.0
N855 N 0.21037 0.25182 0.63395 0.0
H856 H 0.10329 0.23188 0.70157 0.0
H857 H 0.15172 0.21761 0.6893 0.0
H858 H 0.24216 0.25751 0.61843 0.0
H859 H 0.18687 0.21293 0.64237 0.0
H860 H 0.14554 0.41782 0.60914 0.0
H861 H 0.09438 0.37634 0.63742 0.0
H862 H 0.22767 0.45327 0.60554 0.0
H863 H 0.27212 0.43353 0.59118 0.0
C864 C 0.68442 0.87269 0.68615 0.0
C865 C 0.68083 0.83269 0.66317 0.0
C866 C 0.65077 0.86777 0.61523 0.0
C867 C 0.65777 0.90942 0.63796 0.0
N868 N 0.69668 0.9602 0.69107 0.0
N869 N 0.669 0.79643 0.60445 0.0
C870 C 0.67962 0.91467 0.67211 0.0
C871 C 0.66661 0.83154 0.62716 0.0
N872 N 0.68842 0.86877 0.72187 0.0
N873 N 0.62706 0.86157 0.58307 0.0
H874 H 0.68048 0.76955 0.61258 0.0
H875 H 0.66386 0.79677 0.57723 0.0
H876 H 0.61546 0.88768 0.57354 0.0
H877 H 0.61576 0.82882 0.56687 0.0
H878 H 0.68523 0.89396 0.73995 0.0
H879 H 0.6887 0.83688 0.73371 0.0
H880 H 0.71786 0.96785 0.7146 0.0
H881 H 0.69494 0.99265 0.68144 0.0
loop_
_geom_bond_atom_site_label_1
_geom_bond_atom_site_label_2
_geom_bond_distance
_geom_bond_site_symmetry_2
_ccdc_geom_bond_type
In0 O1 2.294 . S
In0 O2 2.326 . S
In0 O6 2.266 1_545 S
In0 O7 2.325 . S
In0 O8 2.266 . S
In0 O9 2.326 . S
In0 O11 2.294 . S
In0 O12 2.326 . S
O1 In0 2.294 . S
O1 C10 1.240 . S
O2 In0 2.326 . S
O2 C10 1.252 . S
C3 O6 1.252 . S
C3 O7 1.260 1_565 S
C4 O11 1.240 . S
C4 O12 1.252 . S
C5 O8 1.252 . S
C5 O9 1.260 . S
O6 In0 2.266 1_565 S
O6 C3 1.252 . S
O7 In0 2.325 . S
O7 C3 1.260 1_545 S
O8 In0 2.266 . S
O8 C5 1.252 . S
O9 In0 2.326 . S
O9 C5 1.260 . S
C10 O1 1.240 . S
C10 O2 1.252 . S
O11 In0 2.294 . S
O11 C4 1.240 . S
O12 In0 2.326 . S
O12 C4 1.252 . S
In13 O14 2.294 . S
In13 O15 2.326 . S
In13 O19 2.266 1_655 S
In13 O20 2.325 . S
In13 O21 2.266 . S
In13 O22 2.326 . S
In13 O24 2.294 . S
In13 O25 2.326 . S
O14 In13 2.294 . S
O14 C23 1.240 . S
O15 In13 2.326 . S
O15 C23 1.252 . S
C16 O19 1.252 . S
C16 O20 1.260 1_455 S
C17 O24 1.240 . S
C17 O25 1.252 . S
C18 O21 1.252 . S
C18 O22 1.260 . S
O19 In13 2.266 1_455 S
O19 C16 1.252 . S
O20 In13 2.325 . S
O20 C16 1.260 1_655 S
O21 In13 2.266 . S
O21 C18 1.252 . S
O22 In13 2.326 . S
O22 C18 1.260 . S
C23 O14 1.240 . S
C23 O15 1.252 . S
O24 In13 2.294 . S
O24 C17 1.240 . S
O25 In13 2.326 . S
O25 C17 1.252 . S
In26 O27 2.294 . S
In26 O28 2.326 . S
In26 O32 2.266 . S
In26 O33 2.326 . S
In26 O34 2.266 . S
In26 O35 2.326 . S
In26 O37 2.294 . S
In26 O38 2.326 . S
O27 In26 2.294 . S
O27 C36 1.240 . S
O28 In26 2.326 . S
O28 C36 1.252 . S
C29 O32 1.252 . S
C29 O33 1.260 . S
C30 O37 1.240 . S
C30 O38 1.252 . S
C31 O34 1.252 . S
C31 O35 1.260 . S
O32 In26 2.266 . S
O32 C29 1.252 . S
O33 In26 2.326 . S
O33 C29 1.260 . S
O34 In26 2.266 . S
O34 C31 1.252 . S
O35 In26 2.326 . S
O35 C31 1.260 . S
C36 O27 1.240 . S
C36 O28 1.252 . S
O37 In26 2.294 . S
O37 C30 1.240 . S
O38 In26 2.326 . S
O38 C30 1.252 . S
In39 O40 2.294 . S
In39 O41 2.326 . S
In39 O45 2.266 1_565 S
In39 O46 2.325 . S
In39 O47 2.266 . S
In39 O48 2.326 . S
In39 O50 2.294 . S
In39 O51 2.326 . S
O40 In39 2.294 . S
O40 C49 1.240 . S
O41 In39 2.326 . S
O41 C49 1.252 . S
C42 O45 1.252 . S
C42 O46 1.260 1_545 S
C43 O50 1.240 . S
C43 O51 1.252 . S
C44 O47 1.252 . S
C44 O48 1.260 . S
O45 In39 2.266 1_545 S
O45 C42 1.252 . S
O46 In39 2.325 . S
O46 C42 1.260 1_565 S
O47 In39 2.266 . S
O47 C44 1.252 . S
O48 In39 2.326 . S
O48 C44 1.260 . S
C49 O40 1.240 . S
C49 O41 1.252 . S
O50 In39 2.294 . S
O50 C43 1.240 . S
O51 In39 2.326 . S
O51 C43 1.252 . S
In52 O53 2.294 . S
In52 O54 2.326 . S
In52 O58 2.266 . S
In52 O59 2.326 . S
In52 O60 2.266 1_455 S
In52 O61 2.325 . S
In52 O63 2.294 . S
In52 O64 2.326 . S
O53 In52 2.294 . S
O53 C62 1.240 . S
O54 In52 2.326 . S
O54 C62 1.252 . S
C55 O58 1.252 . S
C55 O59 1.260 . S
C56 O63 1.240 . S
C56 O64 1.252 . S
C57 O60 1.252 . S
C57 O61 1.260 1_655 S
O58 In52 2.266 . S
O58 C55 1.252 . S
O59 In52 2.326 . S
O59 C55 1.260 . S
O60 In52 2.266 1_655 S
O60 C57 1.252 . S
O61 In52 2.325 . S
O61 C57 1.260 1_455 S
C62 O53 1.240 . S
C62 O54 1.252 . S
O63 In52 2.294 . S
O63 C56 1.240 . S
O64 In52 2.326 . S
O64 C56 1.252 . S
In65 O66 2.294 . S
In65 O67 2.326 . S
In65 O71 2.266 . S
In65 O72 2.326 . S
In65 O73 2.266 . S
In65 O74 2.326 . S
In65 O76 2.294 . S
In65 O77 2.326 . S
O66 In65 2.294 . S
O66 C75 1.240 . S
O67 In65 2.326 . S
O67 C75 1.252 . S
C68 O71 1.252 . S
C68 O72 1.260 . S
C69 O76 1.240 . S
C69 O77 1.252 . S
C70 O73 1.252 . S
C70 O74 1.260 . S
O71 In65 2.266 . S
O71 C68 1.252 . S
O72 In65 2.326 . S
O72 C68 1.260 . S
O73 In65 2.266 . S
O73 C70 1.252 . S
O74 In65 2.326 . S
O74 C70 1.260 . S
C75 O66 1.240 . S
C75 O67 1.252 . S
O76 In65 2.294 . S
O76 C69 1.240 . S
O77 In65 2.326 . S
O77 C69 1.252 . S
In78 O79 2.294 1_455 S
In78 O80 2.326 . S
In78 O84 2.266 1_455 S
In78 O85 2.326 1_455 S
In78 O86 2.266 . S
In78 O87 2.326 . S
In78 O89 2.294 . S
In78 O90 2.326 1_455 S
O79 In78 2.294 1_655 S
O79 C88 1.240 1_655 S
O80 In78 2.326 . S
O80 C88 1.252 . S
C81 O84 1.252 . S
C81 O85 1.260 . S
C82 O89 1.240 . S
C82 O90 1.252 1_455 S
C83 O86 1.252 . S
C83 O87 1.260 . S
O84 In78 2.266 1_655 S
O84 C81 1.252 . S
O85 In78 2.326 1_655 S
O85 C81 1.260 . S
O86 In78 2.266 . S
O86 C83 1.252 . S
O87 In78 2.326 . S
O87 C83 1.260 . S
C88 O79 1.240 1_455 S
C88 O80 1.252 . S
O89 In78 2.294 . S
O89 C82 1.240 . S
O90 In78 2.326 1_655 S
O90 C82 1.252 1_655 S
In91 O92 2.294 . S
In91 O93 2.326 . S
In91 O97 2.266 . S
In91 O98 2.326 . S
In91 O99 2.266 . S
In91 O100 2.326 . S
In91 O102 2.294 . S
In91 O103 2.326 . S
O92 In91 2.294 . S
O92 C101 1.240 . S
O93 In91 2.326 . S
O93 C101 1.252 . S
C94 O97 1.252 . S
C94 O98 1.260 . S
C95 O102 1.240 . S
C95 O103 1.252 . S
C96 O99 1.252 . S
C96 O100 1.260 . S
O97 In91 2.266 . S
O97 C94 1.252 . S
O98 In91 2.326 . S
O98 C94 1.260 . S
O99 In91 2.266 . S
O99 C96 1.252 . S
O100 In91 2.326 . S
O100 C96 1.260 . S
C101 O92 1.240 . S
C101 O93 1.252 . S
O102 In91 2.294 . S
O102 C95 1.240 . S
O103 In91 2.326 . S
O103 C95 1.252 . S
In104 O105 2.294 . S
In104 O106 2.326 1_565 S
In104 O110 2.266 . S
In104 O111 2.326 . S
In104 O112 2.266 1_565 S
In104 O113 2.326 1_565 S
In104 O115 2.294 1_565 S
In104 O116 2.326 . S
O105 In104 2.294 . S
O105 C114 1.240 . S
O106 In104 2.326 1_545 S
O106 C114 1.252 1_545 S
C107 O110 1.252 . S
C107 O111 1.260 . S
C108 O115 1.240 1_565 S
C108 O116 1.252 . S
C109 O112 1.252 . S
C109 O113 1.260 . S
O110 In104 2.266 . S
O110 C107 1.252 . S
O111 In104 2.326 . S
O111 C107 1.260 . S
O112 In104 2.266 1_545 S
O112 C109 1.252 . S
O113 In104 2.326 1_545 S
O113 C109 1.260 . S
C114 O105 1.240 . S
C114 O106 1.252 1_565 S
O115 In104 2.294 1_545 S
O115 C108 1.240 1_545 S
O116 In104 2.326 . S
O116 C108 1.252 . S
In117 O118 2.294 . S
In117 O119 2.326 . S
In117 O123 2.266 . S
In117 O124 2.326 . S
In117 O125 2.266 . S
In117 O126 2.326 . S
In117 O128 2.294 . S
In117 O129 2.326 . S
O118 In117 2.294 . S
O118 C127 1.240 . S
O119 In117 2.326 . S
O119 C127 1.252 . S
C120 O123 1.252 . S
C120 O124 1.260 . S
C121 O128 1.240 . S
C121 O129 1.252 . S
C122 O125 1.252 . S
C122 O126 1.260 . S
O123 In117 2.266 . S
O123 C120 1.252 . S
O124 In117 2.326 . S
O124 C120 1.260 . S
O125 In117 2.266 . S
O125 C122 1.252 . S
O126 In117 2.326 . S
O126 C122 1.260 . S
C127 O118 1.240 . S
C127 O119 1.252 . S
O128 In117 2.294 . S
O128 C121 1.240 . S
O129 In117 2.326 . S
O129 C121 1.252 . S
In130 O131 2.294 . S
In130 O132 2.326 . S
In130 O136 2.266 . S
In130 O137 2.326 . S
In130 O138 2.266 1_545 S
In130 O139 2.326 1_545 S
In130 O141 2.294 . S
In130 O142 2.326 . S
O131 In130 2.294 . S
O131 C140 1.240 . S
O132 In130 2.326 . S
O132 C140 1.252 . S
C133 O136 1.252 . S
C133 O137 1.260 . S
C134 O141 1.240 . S
C134 O142 1.252 . S
C135 O138 1.252 . S
C135 O139 1.260 . S
O136 In130 2.266 . S
O136 C133 1.252 . S
O137 In130 2.326 . S
O137 C133 1.260 . S
O138 In130 2.266 1_565 S
O138 C135 1.252 . S
O139 In130 2.326 1_565 S
O139 C135 1.260 . S
C140 O131 1.240 . S
C140 O132 1.252 . S
O141 In130 2.294 . S
O141 C134 1.240 . S
O142 In130 2.326 . S
O142 C134 1.252 . S
In143 O144 2.294 . S
In143 O145 2.326 . S
In143 O149 2.266 1_655 S
In143 O150 2.326 1_655 S
In143 O151 2.266 . S
In143 O152 2.326 . S
In143 O154 2.294 . S
In143 O155 2.326 . S
O144 In143 2.294 . S
O144 C153 1.240 . S
O145 In143 2.326 . S
O145 C153 1.252 . S
C146 O149 1.252 . S
C146 O150 1.260 . S
C147 O154 1.240 . S
C147 O155 1.252 . S
C148 O151 1.252 . S
C148 O152 1.260 . S
O149 In143 2.266 1_455 S
O149 C146 1.252 . S
O150 In143 2.326 1_455 S
O150 C146 1.260 . S
O151 In143 2.266 . S
O151 C148 1.252 . S
O152 In143 2.326 . S
O152 C148 1.260 . S
C153 O144 1.240 . S
C153 O145 1.252 . S
O154 In143 2.294 . S
O154 C147 1.240 . S
O155 In143 2.326 . S
O155 C147 1.252 . S
In156 O157 2.294 . S
In156 O158 2.326 . S
In156 O162 2.266 . S
In156 O163 2.326 . S
In156 O164 2.266 . S
In156 O165 2.326 . S
In156 O167 2.294 . S
In156 O168 2.326 . S
O157 In156 2.294 . S
O157 C166 1.240 . S
O158 In156 2.326 . S
O158 C166 1.252 . S
C159 O162 1.252 . S
C159 O163 1.260 . S
C160 O167 1.240 . S
C160 O168 1.252 . S
C161 O164 1.252 . S
C161 O165 1.260 . S
O162 In156 2.266 . S
O162 C159 1.252 . S
O163 In156 2.326 . S
O163 C159 1.260 . S
O164 In156 2.266 . S
O164 C161 1.252 . S
O165 In156 2.326 . S
O165 C161 1.260 . S
C166 O157 1.240 . S
C166 O158 1.252 . S
O167 In156 2.294 . S
O167 C160 1.240 . S
O168 In156 2.326 . S
O168 C160 1.252 . S
In169 O170 2.294 . S
In169 O171 2.326 . S
In169 O175 2.266 . S
In169 O176 2.326 . S
In169 O177 2.266 1_565 S
In169 O178 2.326 1_565 S
In169 O180 2.294 . S
In169 O181 2.326 . S
O170 In169 2.294 . S
O170 C179 1.240 . S
O171 In169 2.326 . S
O171 C179 1.252 . S
C172 O175 1.252 . S
C172 O176 1.260 . S
C173 O180 1.240 . S
C173 O181 1.252 . S
C174 O177 1.252 . S
C174 O178 1.260 . S
O175 In169 2.266 . S
O175 C172 1.252 . S
O176 In169 2.326 . S
O176 C172 1.260 . S
O177 In169 2.266 1_545 S
O177 C174 1.252 . S
O178 In169 2.326 1_545 S
O178 C174 1.260 . S
C179 O170 1.240 . S
C179 O171 1.252 . S
O180 In169 2.294 . S
O180 C173 1.240 . S
O181 In169 2.326 . S
O181 C173 1.252 . S
In182 O183 2.294 . S
In182 O184 2.326 . S
In182 O188 2.266 . S
In182 O189 2.326 . S
In182 O190 2.266 1_455 S
In182 O191 2.326 1_455 S
In182 O193 2.294 . S
In182 O194 2.326 . S
O183 In182 2.294 . S
O183 C192 1.240 . S
O184 In182 2.326 . S
O184 C192 1.252 . S
C185 O188 1.252 . S
C185 O189 1.260 . S
C186 O193 1.240 . S
C186 O194 1.252 . S
C187 O190 1.252 . S
C187 O191 1.260 . S
O188 In182 2.266 . S
O188 C185 1.252 . S
O189 In182 2.326 . S
O189 C185 1.260 . S
O190 In182 2.266 1_655 S
O190 C187 1.252 . S
O191 In182 2.326 1_655 S
O191 C187 1.260 . S
C192 O183 1.240 . S
C192 O184 1.252 . S
O193 In182 2.294 . S
O193 C186 1.240 . S
O194 In182 2.326 . S
O194 C186 1.252 . S
In195 O196 2.294 . S
In195 O197 2.326 1_655 S
In195 O201 2.266 . S
In195 O202 2.326 . S
In195 O203 2.266 1_655 S
In195 O204 2.326 1_655 S
In195 O206 2.294 1_655 S
In195 O207 2.326 . S
O196 In195 2.294 . S
O196 C205 1.240 . S
O197 In195 2.326 1_455 S
O197 C205 1.252 1_455 S
C198 O201 1.252 . S
C198 O202 1.260 . S
C199 O206 1.240 1_655 S
C199 O207 1.252 . S
C200 O203 1.252 . S
C200 O204 1.260 . S
O201 In195 2.266 . S
O201 C198 1.252 . S
O202 In195 2.326 . S
O202 C198 1.260 . S
O203 In195 2.266 1_455 S
O203 C200 1.252 . S
O204 In195 2.326 1_455 S
O204 C200 1.260 . S
C205 O196 1.240 . S
C205 O197 1.252 1_655 S
O206 In195 2.294 1_455 S
O206 C199 1.240 1_455 S
O207 In195 2.326 . S
O207 C199 1.252 . S
In208 O209 2.294 . S
In208 O210 2.326 . S
In208 O214 2.266 . S
In208 O215 2.326 . S
In208 O216 2.266 . S
In208 O217 2.326 . S
In208 O219 2.294 . S
In208 O220 2.326 . S
O209 In208 2.294 . S
O209 C218 1.240 . S
O210 In208 2.326 . S
O210 C218 1.252 . S
C211 O214 1.252 . S
C211 O215 1.260 . S
C212 O219 1.240 . S
C212 O220 1.252 . S
C213 O216 1.252 . S
C213 O217 1.260 . S
O214 In208 2.266 . S
O214 C211 1.252 . S
O215 In208 2.326 . S
O215 C211 1.260 . S
O216 In208 2.266 . S
O216 C213 1.252 . S
O217 In208 2.326 . S
O217 C213 1.260 . S
C218 O209 1.240 . S
C218 O210 1.252 . S
O219 In208 2.294 . S
O219 C212 1.240 . S
O220 In208 2.326 . S
O220 C212 1.252 . S
In221 O222 2.294 . S
In221 O223 2.326 1_545 S
In221 O227 2.266 . S
In221 O228 2.326 . S
In221 O229 2.266 1_545 S
In221 O230 2.326 1_545 S
In221 O232 2.294 1_545 S
In221 O233 2.326 . S
O222 In221 2.294 . S
O222 C231 1.240 . S
O223 In221 2.326 1_565 S
O223 C231 1.252 1_565 S
C224 O227 1.252 . S
C224 O228 1.260 . S
C225 O232 1.240 1_545 S
C225 O233 1.252 . S
C226 O229 1.252 . S
C226 O230 1.260 . S
O227 In221 2.266 . S
O227 C224 1.252 . S
O228 In221 2.326 . S
O228 C224 1.260 . S
O229 In221 2.266 1_565 S
O229 C226 1.252 . S
O230 In221 2.326 1_565 S
O230 C226 1.260 . S
C231 O222 1.240 . S
C231 O223 1.252 1_545 S
O232 In221 2.294 1_565 S
O232 C225 1.240 1_565 S
O233 In221 2.326 . S
O233 C225 1.252 . S
C234 C235 1.363 1_565 S
C234 C240 1.379 . S
C234 N242 1.356 . S
C235 C234 1.363 1_545 S
C235 C241 1.363 1_554 S
C236 C237 1.363 1_545 S
C236 C241 1.379 . S
C236 N243 1.356 . S
C237 C236 1.363 1_565 S
C237 C240 1.363 1_556 S
N238 C240 1.356 . S
N238 H250 0.984 . S
N238 H251 0.960 1_554 S
N239 C241 1.356 . S
N239 H244 0.960 1_556 S
N239 H245 0.985 . S
C240 C234 1.379 . S
C240 C237 1.363 1_554 S
C240 N238 1.356 . S
C241 C235 1.363 1_556 S
C241 C236 1.379 . S
C241 N239 1.356 . S
N242 C234 1.356 . S
N242 H248 0.984 . S
N242 H249 0.979 1_565 S
N243 C236 1.356 . S
N243 H246 0.979 1_545 S
N243 H247 0.985 . S
H244 N239 0.960 1_554 S
H245 N239 0.985 . S
H246 N243 0.979 1_565 S
H247 N243 0.985 . S
H248 N242 0.984 . S
H249 N242 0.979 1_545 S
H250 N238 0.984 . S
H251 N238 0.960 1_556 S
C252 C253 1.363 . S
C252 C258 1.379 . S
C252 N260 1.356 . S
C253 C252 1.363 . S
C253 C259 1.363 1_654 S
C254 C255 1.363 . S
C254 C259 1.379 . S
C254 N261 1.356 . S
C255 C254 1.363 . S
C255 C258 1.363 1_456 S
N256 C258 1.356 . S
N256 H268 0.984 . S
N256 H269 0.985 1_554 S
N257 C259 1.356 . S
N257 H262 0.984 1_556 S
N257 H263 0.985 . S
C258 C252 1.379 . S
C258 C255 1.363 1_654 S
C258 N256 1.356 . S
C259 C253 1.363 1_456 S
C259 C254 1.379 . S
C259 N257 1.356 . S
N260 C252 1.356 . S
N260 H266 0.984 . S
N260 H267 0.984 . S
N261 C254 1.356 . S
N261 H264 0.984 . S
N261 H265 0.985 . S
H262 N257 0.984 1_554 S
H263 N257 0.985 . S
H264 N261 0.984 . S
H265 N261 0.985 . S
H266 N260 0.984 . S
H267 N260 0.984 . S
H268 N256 0.984 . S
H269 N256 0.985 1_556 S
C270 C271 1.363 . S
C270 C276 1.379 . S
C270 N278 1.356 . S
C271 C270 1.363 . S
C271 C277 1.363 1_556 S
C272 C273 1.363 . S
C272 C277 1.379 . S
C272 N279 1.356 . S
C273 C272 1.363 . S
C273 C276 1.363 1_554 S
N274 C276 1.356 . S
N274 H286 0.984 . S
N274 H287 0.985 1_556 S
N275 C277 1.356 . S
N275 H280 0.984 1_554 S
N275 H281 0.985 . S
C276 C270 1.379 . S
C276 C273 1.363 1_556 S
C276 N274 1.356 . S
C277 C271 1.363 1_554 S
C277 C272 1.379 . S
C277 N275 1.356 . S
N278 C270 1.356 . S
N278 H284 0.984 . S
N278 H285 0.984 . S
N279 C272 1.356 . S
N279 H282 0.984 . S
N279 H283 0.985 . S
H280 N275 0.984 1_556 S
H281 N275 0.985 . S
H282 N279 0.984 . S
H283 N279 0.985 . S
H284 N278 0.984 . S
H285 N278 0.984 . S
H286 N274 0.984 . S
H287 N274 0.985 1_554 S
C288 C289 1.363 . S
C288 C294 1.379 . S
C288 N296 1.356 . S
C289 C288 1.363 . S
C289 C295 1.363 . S
C290 C291 1.363 . S
C290 C295 1.379 . S
C290 N297 1.356 . S
C291 C290 1.363 . S
C291 C294 1.363 . S
N292 C294 1.356 . S
N292 H304 0.984 . S
N292 H305 0.985 . S
N293 C295 1.356 . S
N293 H298 0.984 . S
N293 H299 0.985 . S
C294 C288 1.379 . S
C294 C291 1.363 . S
C294 N292 1.356 . S
C295 C289 1.363 . S
C295 C290 1.379 . S
C295 N293 1.356 . S
N296 C288 1.356 . S
N296 H302 0.984 . S
N296 H303 0.984 . S
N297 C290 1.356 . S
N297 H300 0.984 . S
N297 H301 0.985 . S
H298 N293 0.984 . S
H299 N293 0.985 . S
H300 N297 0.984 . S
H301 N297 0.985 . S
H302 N296 0.984 . S
H303 N296 0.984 . S
H304 N292 0.984 . S
H305 N292 0.985 . S
C306 C307 1.363 . S
C306 C312 1.379 . S
C306 N314 1.356 . S
C307 C306 1.363 . S
C307 C313 1.363 . S
C308 C309 1.363 . S
C308 C313 1.379 . S
C308 N315 1.356 . S
C309 C308 1.363 . S
C309 C312 1.363 . S
N310 C312 1.356 . S
N310 H322 0.984 . S
N310 H323 0.985 . S
N311 C313 1.356 . S
N311 H316 0.984 . S
N311 H317 0.985 . S
C312 C306 1.379 . S
C312 C309 1.363 . S
C312 N310 1.356 . S
C313 C307 1.363 . S
C313 C308 1.379 . S
C313 N311 1.356 . S
N314 C306 1.356 . S
N314 H320 0.984 . S
N314 H321 0.984 . S
N315 C308 1.356 . S
N315 H318 0.984 . S
N315 H319 0.985 . S
H316 N311 0.984 . S
H317 N311 0.985 . S
H318 N315 0.984 . S
H319 N315 0.985 . S
H320 N314 0.984 . S
H321 N314 0.984 . S
H322 N310 0.984 . S
H323 N310 0.985 . S
C324 C325 1.363 . S
C324 C330 1.379 . S
C324 N332 1.356 . S
C325 C324 1.363 . S
C325 C331 1.363 . S
C326 C327 1.363 . S
C326 C331 1.379 . S
C326 N333 1.356 . S
C327 C326 1.363 . S
C327 C330 1.363 . S
N328 C330 1.356 . S
N328 H340 0.984 . S
N328 H341 0.985 . S
N329 C331 1.356 . S
N329 H334 0.984 . S
N329 H335 0.985 . S
C330 C324 1.379 . S
C330 C327 1.363 . S
C330 N328 1.356 . S
C331 C325 1.363 . S
C331 C326 1.379 . S
C331 N329 1.356 . S
N332 C324 1.356 . S
N332 H338 0.984 . S
N332 H339 0.984 . S
N333 C326 1.356 . S
N333 H336 0.984 . S
N333 H337 0.985 . S
H334 N329 0.984 . S
H335 N329 0.985 . S
H336 N333 0.984 . S
H337 N333 0.985 . S
H338 N332 0.984 . S
H339 N332 0.984 . S
H340 N328 0.984 . S
H341 N328 0.985 . S
C342 C343 1.363 . S
C342 C348 1.379 . S
C342 N350 1.356 . S
C343 C342 1.363 . S
C343 C349 1.363 . S
C344 C345 1.363 . S
C344 C349 1.379 . S
C344 N351 1.356 . S
C345 C344 1.363 . S
C345 C348 1.363 . S
N346 C348 1.356 . S
N346 H358 0.984 . S
N346 H359 0.985 . S
N347 C349 1.356 . S
N347 H352 0.984 . S
N347 H353 0.985 . S
C348 C342 1.379 . S
C348 C345 1.363 . S
C348 N346 1.356 . S
C349 C343 1.363 . S
C349 C344 1.379 . S
C349 N347 1.356 . S
N350 C342 1.356 . S
N350 H356 0.984 . S
N350 H357 0.984 . S
N351 C344 1.356 . S
N351 H354 0.984 . S
N351 H355 0.985 . S
H352 N347 0.984 . S
H353 N347 0.985 . S
H354 N351 0.984 . S
H355 N351 0.985 . S
H356 N350 0.984 . S
H357 N350 0.984 . S
H358 N346 0.984 . S
H359 N346 0.985 . S
C360 C361 1.363 . S
C360 C366 1.379 . S
C360 N368 1.356 . S
C361 C360 1.363 . S
C361 C367 1.363 . S
C362 C363 1.363 . S
C362 C367 1.379 . S
C362 N369 1.356 . S
C363 C362 1.363 . S
C363 C366 1.363 . S
N364 C366 1.356 . S
N364 H376 0.984 . S
N364 H377 0.985 . S
N365 C367 1.356 . S
N365 H370 0.984 . S
N365 H371 0.985 . S
C366 C360 1.379 . S
C366 C363 1.363 . S
C366 N364 1.356 . S
C367 C361 1.363 . S
C367 C362 1.379 . S
C367 N365 1.356 . S
N368 C360 1.356 . S
N368 H374 0.984 . S
N368 H375 0.984 . S
N369 C362 1.356 . S
N369 H372 0.984 . S
N369 H373 0.985 . S
H370 N365 0.984 . S
H371 N365 0.985 . S
H372 N369 0.984 . S
H373 N369 0.985 . S
H374 N368 0.984 . S
H375 N368 0.984 . S
H376 N364 0.984 . S
H377 N364 0.985 . S
C378 C379 1.363 . S
C378 C384 1.379 . S
C378 N386 1.356 . S
C379 C378 1.363 . S
C379 C385 1.363 . S
C380 C381 1.363 . S
C380 C385 1.379 . S
C380 N387 1.356 . S
C381 C380 1.363 . S
C381 C384 1.363 . S
N382 C384 1.356 . S
N382 H394 0.984 . S
N382 H395 0.985 . S
N383 C385 1.356 . S
N383 H388 0.984 . S
N383 H389 0.985 . S
C384 C378 1.379 . S
C384 C381 1.363 . S
C384 N382 1.356 . S
C385 C379 1.363 . S
C385 C380 1.379 . S
C385 N383 1.356 . S
N386 C378 1.356 . S
N386 H392 0.984 . S
N386 H393 0.984 . S
N387 C380 1.356 . S
N387 H390 0.984 . S
N387 H391 0.985 . S
H388 N383 0.984 . S
H389 N383 0.985 . S
H390 N387 0.984 . S
H391 N387 0.985 . S
H392 N386 0.984 . S
H393 N386 0.984 . S
H394 N382 0.984 . S
H395 N382 0.985 . S
C396 C397 1.363 . S
C396 C402 1.379 . S
C396 N404 1.356 . S
C397 C396 1.363 . S
C397 C403 1.363 . S
C398 C399 1.363 . S
C398 C403 1.379 . S
C398 N405 1.356 . S
C399 C398 1.363 . S
C399 C402 1.363 . S
N400 C402 1.356 . S
N400 H412 0.984 . S
N400 H413 0.985 . S
N401 C403 1.356 . S
N401 H406 0.984 . S
N401 H407 0.985 . S
C402 C396 1.379 . S
C402 C399 1.363 . S
C402 N400 1.356 . S
C403 C397 1.363 . S
C403 C398 1.379 . S
C403 N401 1.356 . S
N404 C396 1.356 . S
N404 H410 0.984 . S
N404 H411 0.984 . S
N405 C398 1.356 . S
N405 H408 0.984 . S
N405 H409 0.985 . S
H406 N401 0.984 . S
H407 N401 0.985 . S
H408 N405 0.984 . S
H409 N405 0.985 . S
H410 N404 0.984 . S
H411 N404 0.984 . S
H412 N400 0.984 . S
H413 N400 0.985 . S
C414 C415 1.363 . S
C414 C420 1.379 . S
C414 N422 1.356 . S
C415 C414 1.363 . S
C415 C421 1.363 . S
C416 C417 1.363 . S
C416 C421 1.379 . S
C416 N423 1.356 . S
C417 C416 1.363 . S
C417 C420 1.363 . S
N418 C420 1.356 . S
N418 H430 0.984 . S
N418 H431 0.985 . S
N419 C421 1.356 . S
N419 H424 0.984 . S
N419 H425 0.985 . S
C420 C414 1.379 . S
C420 C417 1.363 . S
C420 N418 1.356 . S
C421 C415 1.363 . S
C421 C416 1.379 . S
C421 N419 1.356 . S
N422 C414 1.356 . S
N422 H428 0.984 . S
N422 H429 0.984 . S
N423 C416 1.356 . S
N423 H426 0.984 . S
N423 H427 0.985 . S
H424 N419 0.984 . S
H425 N419 0.985 . S
H426 N423 0.984 . S
H427 N423 0.985 . S
H428 N422 0.984 . S
H429 N422 0.984 . S
H430 N418 0.984 . S
H431 N418 0.985 . S
C432 C433 1.363 . S
C432 C438 1.379 . S
C432 N440 1.356 . S
C433 C432 1.363 . S
C433 C439 1.363 . S
C434 C435 1.363 . S
C434 C439 1.379 . S
C434 N441 1.356 . S
C435 C434 1.363 . S
C435 C438 1.363 . S
N436 C438 1.356 . S
N436 H448 0.984 . S
N436 H449 0.985 . S
N437 C439 1.356 . S
N437 H442 0.984 . S
N437 H443 0.985 . S
C438 C432 1.379 . S
C438 C435 1.363 . S
C438 N436 1.356 . S
C439 C433 1.363 . S
C439 C434 1.379 . S
C439 N437 1.356 . S
N440 C432 1.356 . S
N440 H446 0.984 . S
N440 H447 0.984 . S
N441 C434 1.356 . S
N441 H444 0.984 . S
N441 H445 0.985 . S
H442 N437 0.984 . S
H443 N437 0.985 . S
H444 N441 0.984 . S
H445 N441 0.985 . S
H446 N440 0.984 . S
H447 N440 0.984 . S
H448 N436 0.984 . S
H449 N436 0.985 . S
C450 C451 1.363 . S
C450 C456 1.379 . S
C450 N458 1.356 . S
C451 C450 1.363 . S
C451 C457 1.363 . S
C452 C453 1.363 . S
C452 C457 1.379 . S
C452 N459 1.356 . S
C453 C452 1.363 . S
C453 C456 1.363 . S
N454 C456 1.356 . S
N454 H466 0.984 . S
N454 H467 0.985 . S
N455 C457 1.356 . S
N455 H460 0.984 . S
N455 H461 0.985 . S
C456 C450 1.379 . S
C456 C453 1.363 . S
C456 N454 1.356 . S
C457 C451 1.363 . S
C457 C452 1.379 . S
C457 N455 1.356 . S
N458 C450 1.356 . S
N458 H464 0.984 . S
N458 H465 0.984 . S
N459 C452 1.356 . S
N459 H462 0.984 . S
N459 H463 0.985 . S
H460 N455 0.984 . S
H461 N455 0.985 . S
H462 N459 0.984 . S
H463 N459 0.985 . S
H464 N458 0.984 . S
H465 N458 0.984 . S
H466 N454 0.984 . S
H467 N454 0.985 . S
C468 C469 1.363 . S
C468 C474 1.379 . S
C468 N476 1.356 . S
C469 C468 1.363 . S
C469 C475 1.363 . S
C470 C471 1.363 . S
C470 C475 1.379 . S
C470 N477 1.356 . S
C471 C470 1.363 . S
C471 C474 1.363 . S
N472 C474 1.356 . S
N472 H484 0.984 . S
N472 H485 0.985 . S
N473 C475 1.356 . S
N473 H478 0.984 . S
N473 H479 0.985 . S
C474 C468 1.379 . S
C474 C471 1.363 . S
C474 N472 1.356 . S
C475 C469 1.363 . S
C475 C470 1.379 . S
C475 N473 1.356 . S
N476 C468 1.356 . S
N476 H482 0.984 . S
N476 H483 0.984 . S
N477 C470 1.356 . S
N477 H480 0.984 . S
N477 H481 0.985 . S
H478 N473 0.984 . S
H479 N473 0.985 . S
H480 N477 0.984 . S
H481 N477 0.985 . S
H482 N476 0.984 . S
H483 N476 0.984 . S
H484 N472 0.984 . S
H485 N472 0.985 . S
C486 C487 1.363 . S
C486 C492 1.379 . S
C486 N494 1.356 . S
C487 C486 1.363 . S
C487 C493 1.363 . S
C488 C489 1.363 . S
C488 C493 1.379 . S
C488 N495 1.356 . S
C489 C488 1.363 . S
C489 C492 1.363 . S
N490 C492 1.356 . S
N490 H502 0.984 . S
N490 H503 0.985 . S
N491 C493 1.356 . S
N491 H496 0.984 . S
N491 H497 0.985 . S
C492 C486 1.379 . S
C492 C489 1.363 . S
C492 N490 1.356 . S
C493 C487 1.363 . S
C493 C488 1.379 . S
C493 N491 1.356 . S
N494 C486 1.356 . S
N494 H500 0.984 . S
N494 H501 0.984 . S
N495 C488 1.356 . S
N495 H498 0.984 . S
N495 H499 0.985 . S
H496 N491 0.984 . S
H497 N491 0.985 . S
H498 N495 0.984 . S
H499 N495 0.985 . S
H500 N494 0.984 . S
H501 N494 0.984 . S
H502 N490 0.984 . S
H503 N490 0.985 . S
C504 C505 1.363 1_655 S
C504 C510 1.379 . S
C504 N512 1.356 . S
C505 C504 1.363 1_455 S
C505 C511 1.363 . S
C506 C507 1.363 1_455 S
C506 C511 1.379 . S
C506 N513 1.356 . S
C507 C506 1.363 1_655 S
C507 C510 1.363 . S
N508 C510 1.356 . S
N508 H520 0.984 . S
N508 H521 0.985 . S
N509 C511 1.356 . S
N509 H514 0.984 . S
N509 H515 0.985 . S
C510 C504 1.379 . S
C510 C507 1.363 . S
C510 N508 1.356 . S
C511 C505 1.363 . S
C511 C506 1.379 . S
C511 N509 1.356 . S
N512 C504 1.356 . S
N512 H518 0.984 . S
N512 H519 0.984 . S
N513 C506 1.356 . S
N513 H516 0.984 . S
N513 H517 0.985 . S
H514 N509 0.984 . S
H515 N509 0.985 . S
H516 N513 0.984 . S
H517 N513 0.985 . S
H518 N512 0.984 . S
H519 N512 0.984 . S
H520 N508 0.984 . S
H521 N508 0.985 . S
C522 C523 1.363 . S
C522 C528 1.379 . S
C522 N530 1.356 . S
C523 C522 1.363 . S
C523 C529 1.363 . S
C524 C525 1.363 . S
C524 C529 1.379 . S
C524 N531 1.356 . S
C525 C524 1.363 . S
C525 C528 1.363 . S
N526 C528 1.356 . S
N526 H538 0.984 . S
N526 H539 0.985 . S
N527 C529 1.356 . S
N527 H532 0.984 . S
N527 H533 0.985 . S
C528 C522 1.379 . S
C528 C525 1.363 . S
C528 N526 1.356 . S
C529 C523 1.363 . S
C529 C524 1.379 . S
C529 N527 1.356 . S
N530 C522 1.356 . S
N530 H536 0.984 . S
N530 H537 0.984 . S
N531 C524 1.356 . S
N531 H534 0.984 . S
N531 H535 0.985 . S
H532 N527 0.984 . S
H533 N527 0.985 . S
H534 N531 0.984 . S
H535 N531 0.985 . S
H536 N530 0.984 . S
H537 N530 0.984 . S
H538 N526 0.984 . S
H539 N526 0.985 . S
C540 C541 1.363 . S
C540 C546 1.379 . S
C540 N548 1.356 . S
C541 C540 1.363 . S
C541 C547 1.363 1_545 S
C542 C543 1.363 . S
C542 C547 1.379 . S
C542 N549 1.356 . S
C543 C542 1.363 . S
C543 C546 1.363 1_565 S
N544 C546 1.356 . S
N544 H556 0.984 . S
N544 H557 0.985 . S
N545 C547 1.356 . S
N545 H550 0.984 . S
N545 H551 0.985 . S
C546 C540 1.379 . S
C546 C543 1.363 1_545 S
C546 N544 1.356 . S
C547 C541 1.363 1_565 S
C547 C542 1.379 . S
C547 N545 1.356 . S
N548 C540 1.356 . S
N548 H554 0.984 . S
N548 H555 0.984 . S
N549 C542 1.356 . S
N549 H552 0.984 . S
N549 H553 0.985 . S
H550 N545 0.984 . S
H551 N545 0.985 . S
H552 N549 0.984 . S
H553 N549 0.985 . S
H554 N548 0.984 . S
H555 N548 0.984 . S
H556 N544 0.984 . S
H557 N544 0.985 . S
C558 C559 1.363 1_556 S
C558 C564 1.379 . S
C558 N566 1.356 . S
C559 C558 1.363 1_554 S
C559 C565 1.363 . S
C560 C561 1.363 1_554 S
C560 C565 1.379 . S
C560 N567 1.356 . S
C561 C560 1.363 1_556 S
C561 C564 1.363 . S
N562 C564 1.356 . S
N562 H574 0.984 . S
N562 H575 0.985 . S
N563 C565 1.356 . S
N563 H568 0.990 . S
N563 H569 0.985 . S
C564 C558 1.379 . S
C564 C561 1.363 . S
C564 N562 1.356 . S
C565 C559 1.363 . S
C565 C560 1.379 . S
C565 N563 1.356 . S
N566 C558 1.356 . S
N566 H572 0.984 . S
N566 H573 0.981 1_556 S
N567 C560 1.356 . S
N567 H570 0.984 1_554 S
N567 H571 0.985 . S
H568 N563 0.990 . S
H569 N563 0.985 . S
H570 N567 0.984 1_556 S
H571 N567 0.985 . S
H572 N566 0.984 . S
H573 N566 0.981 1_554 S
H574 N562 0.984 . S
H575 N562 0.985 . S
C576 C577 1.363 . S
C576 C582 1.379 . S
C576 N584 1.356 . S
C577 C576 1.363 . S
C577 C583 1.363 1_554 S
C578 C579 1.363 . S
C578 C583 1.379 . S
C578 N585 1.356 . S
C579 C578 1.363 . S
C579 C582 1.363 1_556 S
N580 C582 1.356 . S
N580 H592 0.984 . S
N580 H593 0.985 1_554 S
N581 C583 1.356 . S
N581 H586 0.984 1_556 S
N581 H587 0.985 . S
C582 C576 1.379 . S
C582 C579 1.363 1_554 S
C582 N580 1.356 . S
C583 C577 1.363 1_556 S
C583 C578 1.379 . S
C583 N581 1.356 . S
N584 C576 1.356 . S
N584 H590 0.984 . S
N584 H591 0.984 1_455 S
N585 C578 1.356 . S
N585 H588 0.984 . S
N585 H589 0.985 . S
H586 N581 0.984 1_554 S
H587 N581 0.985 . S
H588 N585 0.984 . S
H589 N585 0.985 . S
H590 N584 0.984 . S
H591 N584 0.984 1_655 S
H592 N580 0.984 . S
H593 N580 0.985 1_556 S
C594 C595 1.363 1_556 S
C594 C600 1.379 . S
C594 N602 1.356 . S
C595 C594 1.363 1_554 S
C595 C601 1.363 . S
C596 C597 1.363 1_554 S
C596 C601 1.379 . S
C596 N603 1.356 . S
C597 C596 1.363 1_556 S
C597 C600 1.363 . S
N598 C600 1.356 . S
N598 H610 0.984 . S
N598 H611 0.985 . S
N599 C601 1.356 . S
N599 H604 0.984 . S
N599 H605 0.985 . S
C600 C594 1.379 . S
C600 C597 1.363 . S
C600 N598 1.356 . S
C601 C595 1.363 . S
C601 C596 1.379 . S
C601 N599 1.356 . S
N602 C594 1.356 . S
N602 H608 0.984 . S
N602 H609 0.984 . S
N603 C596 1.356 . S
N603 H606 0.984 . S
N603 H607 0.985 . S
H604 N599 0.984 . S
H605 N599 0.985 . S
H606 N603 0.984 . S
H607 N603 0.985 . S
H608 N602 0.984 . S
H609 N602 0.984 . S
H610 N598 0.984 . S
H611 N598 0.985 . S
C612 C613 1.363 . S
C612 C618 1.379 . S
C612 N620 1.356 . S
C613 C612 1.363 . S
C613 C619 1.363 1_556 S
C614 C615 1.363 . S
C614 C619 1.379 . S
C614 N621 1.356 . S
C615 C614 1.363 . S
C615 C618 1.363 1_554 S
N616 C618 1.356 . S
N616 H628 0.984 . S
N616 H629 0.985 . S
N617 C619 1.356 . S
N617 H622 0.984 . S
N617 H623 0.985 . S
C618 C612 1.379 . S
C618 C615 1.363 1_556 S
C618 N616 1.356 . S
C619 C613 1.363 1_554 S
C619 C614 1.379 . S
C619 N617 1.356 . S
N620 C612 1.356 . S
N620 H626 0.984 . S
N620 H627 0.984 . S
N621 C614 1.356 . S
N621 H624 0.984 . S
N621 H625 0.985 . S
H622 N617 0.984 . S
H623 N617 0.985 . S
H624 N621 0.984 . S
H625 N621 0.985 . S
H626 N620 0.984 . S
H627 N620 0.984 . S
H628 N616 0.984 . S
H629 N616 0.985 . S
C630 C631 1.363 . S
C630 C636 1.379 . S
C630 N638 1.356 . S
C631 C630 1.363 . S
C631 C637 1.363 1_554 S
C632 C633 1.363 . S
C632 C637 1.379 . S
C632 N639 1.356 . S
C633 C632 1.363 . S
C633 C636 1.363 1_556 S
N634 C636 1.356 . S
N634 H646 0.984 . S
N634 H647 0.985 . S
N635 C637 1.356 . S
N635 H640 0.984 . S
N635 H641 0.985 . S
C636 C630 1.379 . S
C636 C633 1.363 1_554 S
C636 N634 1.356 . S
C637 C631 1.363 1_556 S
C637 C632 1.379 . S
C637 N635 1.356 . S
N638 C630 1.356 . S
N638 H644 0.984 . S
N638 H645 0.984 . S
N639 C632 1.356 . S
N639 H642 0.984 . S
N639 H643 0.985 . S
H640 N635 0.984 . S
H641 N635 0.985 . S
H642 N639 0.984 . S
H643 N639 0.985 . S
H644 N638 0.984 . S
H645 N638 0.984 . S
H646 N634 0.984 . S
H647 N634 0.985 . S
C648 C649 1.363 1_554 S
C648 C654 1.379 . S
C648 N656 1.356 . S
C649 C648 1.363 1_556 S
C649 C655 1.363 . S
C650 C651 1.363 1_556 S
C650 C655 1.379 . S
C650 N657 1.356 . S
C651 C650 1.363 1_554 S
C651 C654 1.363 . S
N652 C654 1.356 . S
N652 H664 0.984 . S
N652 H665 0.985 . S
N653 C655 1.356 . S
N653 H658 0.984 . S
N653 H659 0.985 . S
C654 C648 1.379 . S
C654 C651 1.363 . S
C654 N652 1.356 . S
C655 C649 1.363 . S
C655 C650 1.379 . S
C655 N653 1.356 . S
N656 C648 1.356 . S
N656 H662 0.984 . S
N656 H663 0.984 . S
N657 C650 1.356 . S
N657 H660 0.984 . S
N657 H661 0.985 . S
H658 N653 0.984 . S
H659 N653 0.985 . S
H660 N657 0.984 . S
H661 N657 0.985 . S
H662 N656 0.984 . S
H663 N656 0.984 . S
H664 N652 0.984 . S
H665 N652 0.985 . S
C666 C667 1.363 . S
C666 C672 1.379 . S
C666 N674 1.356 . S
C667 C666 1.363 . S
C667 C673 1.363 . S
C668 C669 1.363 . S
C668 C673 1.379 . S
C668 N675 1.356 . S
C669 C668 1.363 . S
C669 C672 1.363 . S
N670 C672 1.356 . S
N670 H682 0.984 . S
N670 H683 0.985 . S
N671 C673 1.356 . S
N671 H676 0.984 . S
N671 H677 0.985 . S
C672 C666 1.379 . S
C672 C669 1.363 . S
C672 N670 1.356 . S
C673 C667 1.363 . S
C673 C668 1.379 . S
C673 N671 1.356 . S
N674 C666 1.356 . S
N674 H680 0.984 . S
N674 H681 0.984 . S
N675 C668 1.356 . S
N675 H678 0.984 . S
N675 H679 0.985 . S
H676 N671 0.984 . S
H677 N671 0.985 . S
H678 N675 0.984 . S
H679 N675 0.985 . S
H680 N674 0.984 . S
H681 N674 0.984 . S
H682 N670 0.984 . S
H683 N670 0.985 . S
C684 C685 1.363 . S
C684 C690 1.379 . S
C684 N692 1.356 . S
C685 C684 1.363 . S
C685 C691 1.363 . S
C686 C687 1.363 . S
C686 C691 1.379 . S
C686 N693 1.356 . S
C687 C686 1.363 . S
C687 C690 1.363 . S
N688 C690 1.356 . S
N688 H700 0.984 . S
N688 H701 0.985 . S
N689 C691 1.356 . S
N689 H694 0.984 . S
N689 H695 0.985 . S
C690 C684 1.379 . S
C690 C687 1.363 . S
C690 N688 1.356 . S
C691 C685 1.363 . S
C691 C686 1.379 . S
C691 N689 1.356 . S
N692 C684 1.356 . S
N692 H698 0.984 . S
N692 H699 0.984 . S
N693 C686 1.356 . S
N693 H696 0.984 . S
N693 H697 0.985 . S
H694 N689 0.984 . S
H695 N689 0.985 . S
H696 N693 0.984 . S
H697 N693 0.985 . S
H698 N692 0.984 . S
H699 N692 0.984 . S
H700 N688 0.984 . S
H701 N688 0.985 . S
C702 C703 1.363 . S
C702 C708 1.379 . S
C702 N710 1.356 . S
C703 C702 1.363 . S
C703 C709 1.363 . S
C704 C705 1.363 . S
C704 C709 1.379 . S
C704 N711 1.356 . S
C705 C704 1.363 . S
C705 C708 1.363 . S
N706 C708 1.356 . S
N706 H718 0.984 . S
N706 H719 0.985 1_545 S
N707 C709 1.356 . S
N707 H712 0.984 . S
N707 H713 0.985 . S
C708 C702 1.379 . S
C708 C705 1.363 . S
C708 N706 1.356 . S
C709 C703 1.363 . S
C709 C704 1.379 . S
C709 N707 1.356 . S
N710 C702 1.356 . S
N710 H716 0.984 . S
N710 H717 0.984 . S
N711 C704 1.356 . S
N711 H714 0.984 . S
N711 H715 0.985 . S
H712 N707 0.984 . S
H713 N707 0.985 . S
H714 N711 0.984 . S
H715 N711 0.985 . S
H716 N710 0.984 . S
H717 N710 0.984 . S
H718 N706 0.984 . S
H719 N706 0.985 1_565 S
C720 C721 1.363 . S
C720 C726 1.379 . S
C720 N728 1.356 . S
C721 C720 1.363 . S
C721 C727 1.363 . S
C722 C723 1.363 . S
C722 C727 1.379 . S
C722 N729 1.356 . S
C723 C722 1.363 . S
C723 C726 1.363 . S
N724 C726 1.356 . S
N724 H736 0.984 . S
N724 H737 0.985 . S
N725 C727 1.356 . S
N725 H730 0.984 . S
N725 H731 0.985 . S
C726 C720 1.379 . S
C726 C723 1.363 . S
C726 N724 1.356 . S
C727 C721 1.363 . S
C727 C722 1.379 . S
C727 N725 1.356 . S
N728 C720 1.356 . S
N728 H734 0.984 . S
N728 H735 0.984 . S
N729 C722 1.356 . S
N729 H732 0.984 . S
N729 H733 0.985 . S
H730 N725 0.984 . S
H731 N725 0.985 . S
H732 N729 0.984 . S
H733 N729 0.985 . S
H734 N728 0.984 . S
H735 N728 0.984 . S
H736 N724 0.984 . S
H737 N724 0.985 . S
C738 C739 1.363 . S
C738 C744 1.379 . S
C738 N746 1.356 . S
C739 C738 1.363 . S
C739 C745 1.363 1_545 S
C740 C741 1.363 1_565 S
C740 C745 1.379 . S
C740 N747 1.356 . S
C741 C740 1.363 1_545 S
C741 C744 1.363 . S
N742 C744 1.356 . S
N742 H754 0.984 . S
N742 H755 0.985 . S
N743 C745 1.356 . S
N743 H748 0.984 . S
N743 H749 0.985 . S
C744 C738 1.379 . S
C744 C741 1.363 . S
C744 N742 1.356 . S
C745 C739 1.363 1_565 S
C745 C740 1.379 . S
C745 N743 1.356 . S
N746 C738 1.356 . S
N746 H752 0.984 . S
N746 H753 0.984 . S
N747 C740 1.356 . S
N747 H750 0.984 . S
N747 H751 0.985 . S
H748 N743 0.984 . S
H749 N743 0.985 . S
H750 N747 0.984 . S
H751 N747 0.985 . S
H752 N746 0.984 . S
H753 N746 0.984 . S
H754 N742 0.984 . S
H755 N742 0.985 . S
C756 C757 1.363 . S
C756 C762 1.379 . S
C756 N764 1.356 . S
C757 C756 1.363 . S
C757 C763 1.363 1_655 S
C758 C759 1.363 1_455 S
C758 C763 1.379 . S
C758 N765 1.356 . S
C759 C758 1.363 1_655 S
C759 C762 1.363 . S
N760 C762 1.356 . S
N760 H772 0.984 . S
N760 H773 0.985 . S
N761 C763 1.356 . S
N761 H766 0.984 . S
N761 H767 0.985 . S
C762 C756 1.379 . S
C762 C759 1.363 . S
C762 N760 1.356 . S
C763 C757 1.363 1_455 S
C763 C758 1.379 . S
C763 N761 1.356 . S
N764 C756 1.356 . S
N764 H770 0.984 . S
N764 H771 0.984 . S
N765 C758 1.356 . S
N765 H768 0.984 . S
N765 H769 0.985 . S
H766 N761 0.984 . S
H767 N761 0.985 . S
H768 N765 0.984 . S
H769 N765 0.985 . S
H770 N764 0.984 . S
H771 N764 0.984 . S
H772 N760 0.984 . S
H773 N760 0.985 . S
C774 C775 1.363 . S
C774 C780 1.379 . S
C774 N782 1.356 . S
C775 C774 1.363 . S
C775 C781 1.363 . S
C776 C777 1.363 . S
C776 C781 1.379 . S
C776 N783 1.356 . S
C777 C776 1.363 . S
C777 C780 1.363 . S
N778 C780 1.356 . S
N778 H790 0.984 . S
N778 H791 0.985 . S
N779 C781 1.356 . S
N779 H784 0.984 . S
N779 H785 0.985 . S
C780 C774 1.379 . S
C780 C777 1.363 . S
C780 N778 1.356 . S
C781 C775 1.363 . S
C781 C776 1.379 . S
C781 N779 1.356 . S
N782 C774 1.356 . S
N782 H788 0.984 . S
N782 H789 0.984 . S
N783 C776 1.356 . S
N783 H786 0.984 . S
N783 H787 0.985 . S
H784 N779 0.984 . S
H785 N779 0.985 . S
H786 N783 0.984 . S
H787 N783 0.985 . S
H788 N782 0.984 . S
H789 N782 0.984 . S
H790 N778 0.984 . S
H791 N778 0.985 . S
C792 C793 1.363 . S
C792 C798 1.379 . S
C792 N800 1.356 . S
C793 C792 1.363 . S
C793 C799 1.363 1_565 S
C794 C795 1.363 1_545 S
C794 C799 1.379 . S
C794 N801 1.356 . S
C795 C794 1.363 1_565 S
C795 C798 1.363 . S
N796 C798 1.356 . S
N796 H808 0.984 . S
N796 H809 0.985 . S
N797 C799 1.356 . S
N797 H802 0.984 . S
N797 H803 0.985 . S
C798 C792 1.379 . S
C798 C795 1.363 . S
C798 N796 1.356 . S
C799 C793 1.363 1_545 S
C799 C794 1.379 . S
C799 N797 1.356 . S
N800 C792 1.356 . S
N800 H806 0.984 . S
N800 H807 0.984 . S
N801 C794 1.356 . S
N801 H804 0.984 . S
N801 H805 0.985 . S
H802 N797 0.984 . S
H803 N797 0.985 . S
H804 N801 0.984 . S
H805 N801 0.985 . S
H806 N800 0.984 . S
H807 N800 0.984 . S
H808 N796 0.984 . S
H809 N796 0.985 . S
C810 C811 1.363 . S
C810 C816 1.379 . S
C810 N818 1.356 . S
C811 C810 1.363 . S
C811 C817 1.363 1_455 S
C812 C813 1.363 1_655 S
C812 C817 1.379 . S
C812 N819 1.356 . S
C813 C812 1.363 1_455 S
C813 C816 1.363 . S
N814 C816 1.356 . S
N814 H826 0.984 . S
N814 H827 0.985 . S
N815 C817 1.356 . S
N815 H820 0.984 . S
N815 H821 0.985 . S
C816 C810 1.379 . S
C816 C813 1.363 . S
C816 N814 1.356 . S
C817 C811 1.363 1_655 S
C817 C812 1.379 . S
C817 N815 1.356 . S
N818 C810 1.356 . S
N818 H824 0.984 . S
N818 H825 0.984 . S
N819 C812 1.356 . S
N819 H822 0.984 . S
N819 H823 0.985 . S
H820 N815 0.984 . S
H821 N815 0.985 . S
H822 N819 0.984 . S
H823 N819 0.985 . S
H824 N818 0.984 . S
H825 N818 0.984 . S
H826 N814 0.984 . S
H827 N814 0.985 . S
C828 C829 1.363 . S
C828 C834 1.379 . S
C828 N836 1.356 . S
C829 C828 1.363 . S
C829 C835 1.363 . S
C830 C831 1.363 . S
C830 C835 1.379 . S
C830 N837 1.356 . S
C831 C830 1.363 . S
C831 C834 1.363 . S
N832 C834 1.356 . S
N832 H844 0.984 . S
N832 H845 0.985 . S
N833 C835 1.356 . S
N833 H838 0.984 . S
N833 H839 0.985 . S
C834 C828 1.379 . S
C834 C831 1.363 . S
C834 N832 1.356 . S
C835 C829 1.363 . S
C835 C830 1.379 . S
C835 N833 1.356 . S
N836 C828 1.356 . S
N836 H842 0.984 . S
N836 H843 0.984 . S
N837 C830 1.356 . S
N837 H840 0.984 . S
N837 H841 0.985 . S
H838 N833 0.984 . S
H839 N833 0.985 . S
H840 N837 0.984 . S
H841 N837 0.985 . S
H842 N836 0.984 . S
H843 N836 0.984 . S
H844 N832 0.984 . S
H845 N832 0.985 . S
C846 C847 1.363 . S
C846 C852 1.379 . S
C846 N854 1.356 . S
C847 C846 1.363 . S
C847 C853 1.363 . S
C848 C849 1.363 . S
C848 C853 1.379 . S
C848 N855 1.356 . S
C849 C848 1.363 . S
C849 C852 1.363 . S
N850 C852 1.356 . S
N850 H862 0.984 . S
N850 H863 0.985 . S
N851 C853 1.356 . S
N851 H856 0.984 . S
N851 H857 0.985 . S
C852 C846 1.379 . S
C852 C849 1.363 . S
C852 N850 1.356 . S
C853 C847 1.363 . S
C853 C848 1.379 . S
C853 N851 1.356 . S
N854 C846 1.356 . S
N854 H860 0.984 . S
N854 H861 0.984 . S
N855 C848 1.356 . S
N855 H858 0.984 . S
N855 H859 0.985 . S
H856 N851 0.984 . S
H857 N851 0.985 . S
H858 N855 0.984 . S
H859 N855 0.985 . S
H860 N854 0.984 . S
H861 N854 0.984 . S
H862 N850 0.984 . S
H863 N850 0.985 . S
C864 C865 1.363 . S
C864 C870 1.379 . S
C864 N872 1.356 . S
C865 C864 1.363 . S
C865 C871 1.363 . S
C866 C867 1.363 . S
C866 C871 1.379 . S
C866 N873 1.356 . S
C867 C866 1.363 . S
C867 C870 1.363 . S
N868 C870 1.356 . S
N868 H880 0.984 . S
N868 H881 0.985 . S
N869 C871 1.356 . S
N869 H874 0.984 . S
N869 H875 0.985 . S
C870 C864 1.379 . S
C870 C867 1.363 . S
C870 N868 1.356 . S
C871 C865 1.363 . S
C871 C866 1.379 . S
C871 N869 1.356 . S
N872 C864 1.356 . S
N872 H878 0.984 . S
N872 H879 0.984 . S
N873 C866 1.356 . S
N873 H876 0.984 . S
N873 H877 0.985 . S
H874 N869 0.984 . S
H875 N869 0.985 . S
H876 N873 0.984 . S
H877 N873 0.985 . S
H878 N872 0.984 . S
H879 N872 0.984 . S
H880 N868 0.984 . S
H881 N868 0.985 . S
C235 C5 1.865 . S
C237 C44 1.865 . S
C253 C18 1.865 . S
C255 C55 1.865 . S
C271 C70 1.864 . S
C273 C29 1.864 . S
C289 C83 1.864 . S
C291 C122 1.864 . S
C307 C94 1.865 . S
C309 C135 1.865 . S
C325 C146 1.865 . S
C327 C107 1.865 . S
C343 C198 1.864 . S
C345 C159 1.864 . S
C361 C213 1.865 . S
C363 C174 1.865 . S
C379 C224 1.865 . S
C381 C187 1.865 . S
C397 C10 1.690 . S
C399 C127 1.690 . S
C415 C23 1.690 . S
C417 C140 1.690 . S
C433 C147 1.690 . S
C435 C30 1.690 . S
C451 C49 1.690 . S
C453 C160 1.690 . S
C469 C56 1.690 . S
C471 C179 1.690 . S
C487 C75 1.690 . S
C489 C192 1.690 . S
C505 C88 1.690 . S
C507 C199 1.690 . S
C523 C95 1.690 . S
C525 C218 1.690 . S
C541 C225 1.690 . S
C543 C108 1.690 . S
C559 C3 1.026 . S
C561 C62 1.024 . S
C577 C16 1.026 . S
C579 C69 1.024 . S
C595 C31 1.025 . S
C597 C43 1.024 . S
C613 C42 1.026 . S
C615 C17 1.024 . S
C631 C36 1.024 . S
C633 C57 1.026 . S
C649 C68 1.025 . S
C651 C4 1.024 . S
C667 C81 1.025 . S
C669 C134 1.024 . S
C685 C153 1.024 . S
C687 C96 1.025 . S
C703 C121 1.024 . S
C705 C109 1.026 . S
C721 C101 1.024 . S
C723 C120 1.025 . S
C739 C133 1.025 . S
C741 C114 1.024 1_545 S
C757 C148 1.026 . S
C759 C82 1.024 1_655 S
C775 C212 1.024 . S
C777 C161 1.025 . S
C793 C231 1.024 1_565 S
C795 C172 1.025 . S
C811 C185 1.026 . S
C813 C205 1.024 1_455 S
C829 C173 1.024 . S
C831 C200 1.025 . S
C847 C186 1.024 . S
C849 C211 1.025 . S
C865 C166 1.024 . S
C867 C226 1.026 . S
