# Generated by pormake.
# Topology fnj, (5)-cn, num edge types: 1
# Building blocks:
#     Node 0, Type 0, BuildingBlock: BEQFEK_clean_sbu_0, # of connection points: 5
#     Node 1, Type 0, BuildingBlock: BEQFEK_clean_sbu_0, # of connection points: 5
#     Node 2, Type 0, BuildingBlock: BEQFEK_clean_sbu_0, # of connection points: 5
#     Node 3, Type 0, BuildingBlock: BEQFEK_clean_sbu_0, # of connection points: 5
#     Node 4, Type 0, BuildingBlock: BEQFEK_clean_sbu_0, # of connection points: 5
#     Node 5, Type 0, BuildingBlock: BEQFEK_clean_sbu_0, # of connection points: 5
#     Node 6, Type 0, BuildingBlock: BEQFEK_clean_sbu_0, # of connection points: 5
#     Node 7, Type 0, BuildingBlock: BEQFEK_clean_sbu_0, # of connection points: 5
#     Node 8, Type 0, BuildingBlock: BEQFEK_clean_sbu_0, # of connection points: 5
#     Node 9, Type 0, BuildingBlock: BEQFEK_clean_sbu_0, # of connection points: 5
#     Node 10, Type 0, BuildingBlock: BEQFEK_clean_sbu_0, # of connection points: 5
#     Node 11, Type 0, BuildingBlock: BEQFEK_clean_sbu_0, # of connection points: 5
#     Node 12, Type 0, BuildingBlock: BEQFEK_clean_sbu_0, # of connection points: 5
#     Node 13, Type 0, BuildingBlock: BEQFEK_clean_sbu_0, # of connection points: 5
#     Node 14, Type 0, BuildingBlock: BEQFEK_clean_sbu_0, # of connection points: 5
#     Node 15, Type 0, BuildingBlock: BEQFEK_clean_sbu_0, # of connection points: 5
#     Edge 16, Type (0, 0), BuildingBlock: TEMPAE_clean_linker_10, # of connection points: 2
#     Edge 17, Type (0, 0), BuildingBlock: TEMPAE_clean_linker_10, # of connection points: 2
#     Edge 18, Type (0, 0), BuildingBlock: TEMPAE_clean_linker_10, # of connection points: 2
#     Edge 19, Type (0, 0), BuildingBlock: TEMPAE_clean_linker_10, # of connection points: 2
#     Edge 20, Type (0, 0), BuildingBlock: TEMPAE_clean_linker_10, # of connection points: 2
#     Edge 21, Type (0, 0), BuildingBlock: TEMPAE_clean_linker_10, # of connection points: 2
#     Edge 22, Type (0, 0), BuildingBlock: TEMPAE_clean_linker_10, # of connection points: 2
#     Edge 23, Type (0, 0), BuildingBlock: TEMPAE_clean_linker_10, # of connection points: 2
#     Edge 24, Type (0, 0), BuildingBlock: TEMPAE_clean_linker_10, # of connection points: 2
#     Edge 25, Type (0, 0), BuildingBlock: TEMPAE_clean_linker_10, # of connection points: 2
#     Edge 26, Type (0, 0), BuildingBlock: TEMPAE_clean_linker_10, # of connection points: 2
#     Edge 27, Type (0, 0), BuildingBlock: TEMPAE_clean_linker_10, # of connection points: 2
#     Edge 28, Type (0, 0), BuildingBlock: TEMPAE_clean_linker_10, # of connection points: 2
#     Edge 29, Type (0, 0), BuildingBlock: TEMPAE_clean_linker_10, # of connection points: 2
#     Edge 30, Type (0, 0), BuildingBlock: TEMPAE_clean_linker_10, # of connection points: 2
#     Edge 31, Type (0, 0), BuildingBlock: TEMPAE_clean_linker_10, # of connection points: 2
#     Edge 32, Type (0, 0), BuildingBlock: TEMPAE_clean_linker_10, # of connection points: 2
#     Edge 33, Type (0, 0), BuildingBlock: TEMPAE_clean_linker_10, # of connection points: 2
#     Edge 34, Type (0, 0), BuildingBlock: TEMPAE_clean_linker_10, # of connection points: 2
#     Edge 35, Type (0, 0), BuildingBlock: TEMPAE_clean_linker_10, # of connection points: 2
#     Edge 36, Type (0, 0), BuildingBlock: TEMPAE_clean_linker_10, # of connection points: 2
#     Edge 37, Type (0, 0), BuildingBlock: TEMPAE_clean_linker_10, # of connection points: 2
#     Edge 38, Type (0, 0), BuildingBlock: TEMPAE_clean_linker_10, # of connection points: 2
#     Edge 39, Type (0, 0), BuildingBlock: TEMPAE_clean_linker_10, # of connection points: 2
#     Edge 40, Type (0, 0), BuildingBlock: TEMPAE_clean_linker_10, # of connection points: 2
#     Edge 41, Type (0, 0), BuildingBlock: TEMPAE_clean_linker_10, # of connection points: 2
#     Edge 42, Type (0, 0), BuildingBlock: TEMPAE_clean_linker_10, # of connection points: 2
#     Edge 43, Type (0, 0), BuildingBlock: TEMPAE_clean_linker_10, # of connection points: 2
#     Edge 44, Type (0, 0), BuildingBlock: TEMPAE_clean_linker_10, # of connection points: 2
#     Edge 45, Type (0, 0), BuildingBlock: TEMPAE_clean_linker_10, # of connection points: 2
#     Edge 46, Type (0, 0), BuildingBlock: TEMPAE_clean_linker_10, # of connection points: 2
#     Edge 47, Type (0, 0), BuildingBlock: TEMPAE_clean_linker_10, # of connection points: 2
#     Edge 48, Type (0, 0), BuildingBlock: TEMPAE_clean_linker_10, # of connection points: 2
#     Edge 49, Type (0, 0), BuildingBlock: TEMPAE_clean_linker_10, # of connection points: 2
#     Edge 50, Type (0, 0), BuildingBlock: TEMPAE_clean_linker_10, # of connection points: 2
#     Edge 51, Type (0, 0), BuildingBlock: TEMPAE_clean_linker_10, # of connection points: 2
#     Edge 52, Type (0, 0), BuildingBlock: TEMPAE_clean_linker_10, # of connection points: 2
#     Edge 53, Type (0, 0), BuildingBlock: TEMPAE_clean_linker_10, # of connection points: 2
#     Edge 54, Type (0, 0), BuildingBlock: TEMPAE_clean_linker_10, # of connection points: 2
#     Edge 55, Type (0, 0), BuildingBlock: TEMPAE_clean_linker_10, # of connection points: 2
# Relax obj value: 0.138
# Max RMSD: 0.162
# Mean RMSD: 0.162
data_MOF--net-fnj--node1-BEQFEK_clean_sbu_0--edge1-TEMPAE_clean_linker_10
_symmetry_space_group_name_H-M    P1
_symmetry_Int_Tables_number       1
_symmetry_cell_setting            triclinic
loop_
_symmetry_equiv_pos_as_xyz
'x, y, z'
_cell_length_a     75.248434
_cell_length_b     75.240122
_cell_length_c     19.156664
_cell_angle_alpha  89.991861
_cell_angle_beta   89.964857
_cell_angle_gamma 100.89765
loop_
_atom_site_label
_atom_site_type_symbol
_atom_site_fract_x
_atom_site_fract_y
_atom_site_fract_z
_atom_type_partial_charge
Co0 Co 0.38915 0.04639 0.99063 0.0
Co1 Co 0.38465 0.02837 0.13716 0.0
C2 C 0.37188 0.06366 0.10025 0.0
O3 O 0.37859 0.06516 0.03901 0.0
O4 O 0.37303 0.0501 0.13872 0.0
C5 C 0.38532 0.05811 0.84959 0.0
O6 O 0.36982 0.0618 0.87094 0.0
C7 C 0.39198 0.0318 0.28558 0.0
C8 C 0.38031 0.00458 0.32569 0.0
C9 C 0.38855 0.02183 0.34696 0.0
N10 N 0.38594 0.02097 0.23151 0.0
N11 N 0.37918 0.00465 0.2556 0.0
C12 C 0.39978 0.05153 0.27758 0.0
H13 H 0.39812 0.05619 0.22363 0.0
H14 H 0.41452 0.05386 0.28826 0.0
H15 H 0.39333 0.05964 0.31495 0.0
C16 C 0.42729 0.0437 0.01621 0.0
N17 N 0.40995 0.04181 0.03709 0.0
N18 N 0.40806 0.03351 0.09771 0.0
C19 C 0.42405 0.02942 0.11678 0.0
C20 C 0.43683 0.03578 0.06568 0.0
C21 C 0.43446 0.05302 0.95015 0.0
H22 H 0.43095 0.04358 0.90565 0.0
H23 H 0.42812 0.06499 0.94112 0.0
H24 H 0.44938 0.05745 0.9523 0.0
O25 O 0.37052 0.02378 0.98215 0.0
O26 O 0.36909 0.0092 0.08335 0.0
H27 H 0.4141 0.00743 0.1864 0.0
H28 H 0.43823 0.01119 0.17191 0.0
C29 C 0.42643 0.01792 0.17857 0.0
H30 H 0.42854 0.02656 0.22589 0.0
H31 H 0.37324 0.99377 0.22445 0.0
O32 O 0.3958 0.05281 0.89349 0.0
C33 C 0.3642 0.01012 0.02008 0.0
Co34 Co 0.27241 0.16154 0.38626 0.0
Co35 Co 0.256 0.15939 0.23653 0.0
C36 C 0.29078 0.14596 0.27516 0.0
O37 O 0.29165 0.15163 0.33793 0.0
O38 O 0.27768 0.14788 0.23563 0.0
C39 C 0.29079 0.17051 0.52478 0.0
O40 O 0.30653 0.1769 0.49584 0.0
C41 C 0.26285 0.16734 0.09075 0.0
C42 C 0.23572 0.16207 0.04261 0.0
C43 C 0.254 0.16715 0.0274 0.0
N44 N 0.25047 0.16245 0.14102 0.0
N45 N 0.23423 0.15935 0.11213 0.0
C46 C 0.28273 0.17278 0.10428 0.0
H47 H 0.28508 0.17883 0.15709 0.0
H48 H 0.28926 0.18258 0.06438 0.0
H49 H 0.28902 0.16059 0.10215 0.0
C50 C 0.26994 0.20038 0.36758 0.0
N51 N 0.26828 0.18325 0.34423 0.0
N52 N 0.26072 0.18208 0.28213 0.0
C53 C 0.25696 0.19829 0.26444 0.0
C54 C 0.26275 0.21051 0.31787 0.0
C55 C 0.27856 0.20685 0.43558 0.0
H56 H 0.2696 0.20099 0.4791 0.0
H57 H 0.29155 0.2021 0.44074 0.0
H58 H 0.28127 0.22183 0.43939 0.0
O59 O 0.24964 0.14313 0.38583 0.0
O60 O 0.23596 0.14303 0.28328 0.0
H61 H 0.23519 0.18954 0.19298 0.0
H62 H 0.24028 0.21366 0.2062 0.0
C63 C 0.24626 0.20134 0.20114 0.0
H64 H 0.25524 0.20272 0.15471 0.0
H65 H 0.22219 0.1552 0.13966 0.0
O66 O 0.27705 0.16465 0.48717 0.0
C67 C 0.23632 0.13732 0.34572 0.0
Co68 Co 0.11261 0.0036 0.47849 0.0
Co69 Co 0.11339 0.01859 0.62986 0.0
C70 C 0.12671 0.98405 0.59077 0.0
O71 O 0.12152 0.98376 0.52748 0.0
O72 O 0.12471 0.99691 0.6313 0.0
C73 C 0.10249 0.98528 0.34237 0.0
O74 O 0.09313 0.97101 0.37389 0.0
C75 C 0.10553 0.0116 0.7756 0.0
C76 C 0.10952 0.03881 0.82299 0.0
C77 C 0.10529 0.02049 0.83875 0.0
N78 N 0.10987 0.02401 0.72504 0.0
N79 N 0.11219 0.04028 0.75346 0.0
C80 C 0.10053 0.99167 0.76217 0.0
H81 H 0.09453 0.98916 0.70933 0.0
H82 H 0.09077 0.98496 0.80189 0.0
H83 H 0.11289 0.98566 0.7645 0.0
C84 C 0.07405 0.00817 0.48993 0.0
N85 N 0.09064 0.00831 0.51688 0.0
N86 N 0.09102 0.01427 0.58154 0.0
C87 C 0.07467 0.01786 0.59822 0.0
C88 C 0.06338 0.01417 0.54067 0.0
C89 C 0.06914 0.00434 0.41501 0.0
H90 H 0.08038 0.01091 0.38091 0.0
H91 H 0.06683 0.98952 0.40612 0.0
H92 H 0.0567 0.00935 0.40043 0.0
O93 O 0.13143 0.02585 0.48211 0.0
O94 O 0.13045 0.03877 0.58576 0.0
H95 H 0.07846 0.03824 0.67748 0.0
H96 H 0.05554 0.02547 0.67234 0.0
C97 C 0.07006 0.02467 0.66811 0.0
H98 H 0.0732 0.01542 0.7093 0.0
H99 H 0.1158 0.05234 0.7256 0.0
O100 O 0.11046 0.99868 0.37786 0.0
C101 C 0.13692 0.03877 0.52432 0.0
Co102 Co 0.23033 0.88756 0.85891 0.0
Co103 Co 0.24657 0.89245 0.70986 0.0
C104 C 0.21146 0.90431 0.75196 0.0
O105 O 0.21078 0.89755 0.81303 0.0
O106 O 0.22467 0.90356 0.71129 0.0
C107 C 0.21734 0.89049 -0.00159 0.0
O108 O 0.21222 0.90525 0.97614 0.0
C109 C 0.24249 0.88878 0.56016 0.0
C110 C 0.2707 0.89195 0.5225 0.0
C111 C 0.25285 0.8889 0.5003 0.0
N112 N 0.25369 0.89138 0.61524 0.0
N113 N 0.27053 0.89324 0.59262 0.0
C114 C 0.22247 0.88796 0.56575 0.0
H115 H 0.21692 0.87882 0.60925 0.0
H116 H 0.21509 0.8835 0.51709 0.0
H117 H 0.22 0.90169 0.57791 0.0
C118 C 0.23443 0.84975 0.83301 0.0
N119 N 0.23522 0.86695 0.81184 0.0
N120 N 0.24192 0.86887 0.74837 0.0
C121 C 0.24549 0.85287 0.72661 0.0
C122 C 0.24093 0.84022 0.77966 0.0
C123 C 0.22953 0.84334 0.90576 0.0
H124 H 0.23877 0.85178 0.94304 0.0
H125 H 0.21554 0.84513 0.91755 0.0
H126 H 0.23059 0.82899 0.91368 0.0
O127 O 0.25258 0.90655 0.86603 0.0
O128 O 0.26601 0.90816 0.76242 0.0
H129 H 0.26709 0.85792 0.65241 0.0
H130 H 0.25349 0.83536 0.64719 0.0
C131 C 0.25317 0.84984 0.65647 0.0
H132 H 0.2448 0.85451 0.61528 0.0
H133 H 0.28189 0.8955 0.62498 0.0
O134 O 0.22409 0.88077 0.95556 0.0
C135 C 0.26574 0.91303 0.826 0.0
Co136 Co 0.61292 0.00573 0.11469 0.0
Co137 Co 0.61751 0.02202 0.96573 0.0
C138 C 0.63036 0.98738 0.00763 0.0
O139 O 0.62363 0.98667 0.06878 0.0
O140 O 0.6292 1.00042 0.96658 0.0
C141 C 0.61659 0.99348 0.25425 0.0
O142 O 0.63186 0.98942 0.23204 0.0
C143 C 0.61384 0.01823 0.81593 0.0
C144 C 0.61664 0.0465 0.77933 0.0
C145 C 0.61383 0.02871 0.75645 0.0
N146 N 0.61629 0.02931 0.8714 0.0
N147 N 0.61793 0.04619 0.84943 0.0
C148 C 0.61329 0.99825 0.82086 0.0
H149 H 0.60435 0.99253 0.86471 0.0
H150 H 0.60876 0.99089 0.77223 0.0
H151 H 0.62712 0.99595 0.83213 0.0
C152 C 0.57487 0.00891 0.08876 0.0
N153 N 0.59212 0.01008 0.06754 0.0
N154 N 0.5939 0.0168 0.0041 0.0
C155 C 0.57776 0.02 0.9824 0.0
C156 C 0.56515 0.01517 0.03545 0.0
C157 C 0.56858 0.00394 0.16159 0.0
H158 H 0.57692 0.01329 0.19878 0.0
H159 H 0.5706 0.99002 0.17334 0.0
H160 H 0.55418 0.00478 0.16974 0.0
O161 O 0.63136 0.0283 0.12231 0.0
O162 O 0.63286 0.04171 0.01871 0.0
H163 H 0.58235 0.04164 0.90831 0.0
H164 H 0.56 0.02761 0.90309 0.0
C165 C 0.57455 0.02761 0.91231 0.0
H166 H 0.57941 0.01938 0.87106 0.0
H167 H 0.62004 0.05747 0.88221 0.0
O168 O 0.60624 0.99927 0.21119 0.0
C169 C 0.63764 0.04154 0.0824 0.0
Co170 Co 0.73113 0.88568 0.75455 0.0
Co171 Co 0.74774 0.89083 0.9031 0.0
C172 C 0.71308 0.90358 0.86115 0.0
O173 O 0.71216 0.89652 0.80057 0.0
O174 O 0.72622 0.90259 0.90187 0.0
C175 C 0.72043 0.89029 0.61523 0.0
O176 O 0.71836 0.90626 0.63791 0.0
C177 C 0.7447 0.88848 0.05396 0.0
C178 C 0.77286 0.88878 0.08769 0.0
C179 C 0.75534 0.88749 0.11234 0.0
N180 N 0.75539 0.88993 -0.00269 0.0
N181 N 0.77221 0.89016 0.01765 0.0
C182 C 0.72502 0.88955 0.05125 0.0
H183 H 0.72379 0.90332 0.03412 0.0
H184 H 0.71805 0.87974 0.01226 0.0
H185 H 0.71815 0.88718 0.10232 0.0
C186 C 0.7345 0.84776 0.78219 0.0
N187 N 0.73571 0.86508 0.80251 0.0
N188 N 0.74229 0.86702 0.86613 0.0
C189 C 0.74517 0.85086 0.88912 0.0
C190 C 0.74043 0.8381 0.83652 0.0
C191 C 0.72983 0.84133 0.7093 0.0
H192 H 0.73872 0.85018 0.67209 0.0
H193 H 0.71563 0.84248 0.69787 0.0
H194 H 0.73156 0.8272 0.70081 0.0
O195 O 0.75356 0.90417 0.74564 0.0
O196 O 0.76732 0.90601 0.84852 0.0
H197 H 0.76653 0.85446 0.96424 0.0
H198 H 0.75092 0.83307 0.97179 0.0
C199 C 0.75213 0.8477 0.96034 0.0
H200 H 0.74432 0.85366 0.00012 0.0
H201 H 0.78321 0.89117 0.98372 0.0
O202 O 0.72443 0.87888 0.65831 0.0
C203 C 0.7669 0.91063 0.78468 0.0
Co204 Co 0.88823 0.0444 0.60785 0.0
Co205 Co 0.88196 0.02707 0.46063 0.0
C206 C 0.86955 0.06206 0.50354 0.0
O207 O 0.87701 0.06323 0.56341 0.0
O208 O 0.87023 0.04873 0.46325 0.0
C209 C 0.88639 0.05773 0.74741 0.0
O210 O 0.87186 0.06335 0.72545 0.0
C211 C 0.88847 0.03105 0.31188 0.0
C212 C 0.87636 0.00409 0.27053 0.0
C213 C 0.88491 0.02131 0.25016 0.0
N214 N 0.8823 0.02011 0.3655 0.0
N215 N 0.87522 0.00396 0.34066 0.0
C216 C 0.89657 0.0507 0.32054 0.0
H217 H 0.89443 0.05541 0.37403 0.0
H218 H 0.91139 0.05273 0.31205 0.0
H219 H 0.89073 0.05898 0.28193 0.0
C220 C 0.92604 0.04199 0.57436 0.0
N221 N 0.90847 0.04013 0.55689 0.0
N222 N 0.90585 0.03217 0.49576 0.0
C223 C 0.92163 0.02829 0.47286 0.0
C224 C 0.935 0.03444 0.52189 0.0
C225 C 0.93395 0.05079 0.64027 0.0
H226 H 0.92782 0.06275 0.65209 0.0
H227 H 0.94885 0.05511 0.63604 0.0
H228 H 0.93079 0.04105 0.68407 0.0
O229 O 0.86987 0.02168 0.61788 0.0
O230 O 0.86717 0.00755 0.51563 0.0
H231 H 0.93521 0.0103 0.41358 0.0
H232 H 0.92503 0.02589 0.3628 0.0
C233 C 0.92335 0.01705 0.40961 0.0
H234 H 0.91095 0.00659 0.40293 0.0
H235 H 0.86921 0.993 0.37139 0.0
O236 O 0.89574 0.0506 0.70427 0.0
C237 C 0.86313 0.00817 0.58 0.0
Co238 Co 0.77042 0.16505 0.24914 0.0
Co239 Co 0.75298 0.15967 0.39642 0.0
C240 C 0.78784 0.14671 0.35525 0.0
O241 O 0.78909 0.15384 0.29473 0.0
O242 O 0.77454 0.14777 0.39521 0.0
C243 C 0.78324 0.16237 0.10917 0.0
O244 O 0.78814 0.14746 0.13104 0.0
C245 C 0.75685 0.16642 0.54501 0.0
C246 C 0.72969 0.1548 0.58594 0.0
C247 C 0.74699 0.16303 0.6066 0.0
N248 N 0.74589 0.16044 0.49124 0.0
N249 N 0.72963 0.15368 0.51583 0.0
C250 C 0.77659 0.17416 0.53659 0.0
H251 H 0.78469 0.16793 0.57468 0.0
H252 H 0.78124 0.17217 0.4829 0.0
H253 H 0.77893 0.18896 0.54601 0.0
C254 C 0.76828 0.20311 0.27953 0.0
N255 N 0.76625 0.18562 0.29835 0.0
N256 N 0.75829 0.18338 0.35959 0.0
C257 C 0.75463 0.19935 0.3813 0.0
C258 C 0.76088 0.21243 0.33126 0.0
C259 C 0.77712 0.21064 0.21309 0.0
H260 H 0.76739 0.20727 0.16941 0.0
H261 H 0.78905 0.2044 0.20205 0.0
H262 H 0.78149 0.22556 0.21606 0.0
O263 O 0.74767 0.14672 0.24001 0.0
O264 O 0.73348 0.14463 0.34214 0.0
H265 H 0.73287 0.18937 0.45198 0.0
H266 H 0.73719 0.21363 0.4404 0.0
C267 C 0.74359 0.20154 0.44467 0.0
H268 H 0.75249 0.20309 0.49126 0.0
H269 H 0.71865 0.14783 0.48495 0.0
O270 O 0.77673 0.17217 0.15246 0.0
C271 C 0.73414 0.14021 0.2782 0.0
Co272 Co 0.8912 0.5472 0.48733 0.0
Co273 Co 0.88449 0.52918 0.63357 0.0
C274 C 0.87185 0.56413 0.59219 0.0
O275 O 0.87957 0.5657 0.53272 0.0
O276 O 0.87254 0.55065 0.63163 0.0
C277 C 0.88809 0.55893 0.34771 0.0
O278 O 0.87261 0.56249 0.36995 0.0
C279 C 0.89045 0.53259 0.78296 0.0
C280 C 0.87875 0.5053 0.82237 0.0
C281 C 0.88697 0.52252 0.84402 0.0
N282 N 0.88459 0.52182 0.7285 0.0
N283 N 0.87773 0.50548 0.75221 0.0
C284 C 0.89825 0.55235 0.77569 0.0
H285 H 0.89609 0.55727 0.72256 0.0
H286 H 0.91308 0.55458 0.78426 0.0
H287 H 0.89221 0.56031 0.81487 0.0
C288 C 0.92887 0.54442 0.52123 0.0
N289 N 0.9113 0.54273 0.53855 0.0
N290 N 0.90853 0.53469 0.59955 0.0
C291 C 0.92427 0.53078 0.62279 0.0
C292 C 0.93769 0.53685 0.57392 0.0
C293 C 0.93686 0.55272 0.45459 0.0
H294 H 0.93128 0.56502 0.44269 0.0
H295 H 0.95183 0.55637 0.45781 0.0
H296 H 0.93308 0.54292 0.41134 0.0
O297 O 0.8732 0.52443 0.47537 0.0
O298 O 0.86991 0.50985 0.57657 0.0
H299 H 0.91381 0.50871 0.69137 0.0
H300 H 0.93819 0.51339 0.68373 0.0
C301 C 0.92594 0.51957 0.6862 0.0
H302 H 0.92686 0.52831 0.73318 0.0
H303 H 0.87199 0.4946 0.72069 0.0
O304 O 0.89878 0.55377 0.39114 0.0
C305 C 0.86626 0.51072 0.51188 0.0
Co306 Co 0.76919 0.65988 0.86611 0.0
Co307 Co 0.75357 0.65883 0.71548 0.0
C308 C 0.78843 0.64556 0.75434 0.0
O309 O 0.78884 0.65074 0.81769 0.0
O310 O 0.77549 0.64758 0.71411 0.0
C311 C 0.78757 0.66814 0.00393 0.0
O312 O 0.80319 0.67444 0.97388 0.0
C313 C 0.76067 0.66741 0.57024 0.0
C314 C 0.73358 0.66232 0.5217 0.0
C315 C 0.75188 0.66735 0.50679 0.0
N316 N 0.74823 0.66247 0.62025 0.0
N317 N 0.73202 0.65951 0.59114 0.0
C318 C 0.78054 0.67268 0.58404 0.0
H319 H 0.78289 0.6787 0.63691 0.0
H320 H 0.78718 0.68246 0.54426 0.0
H321 H 0.78673 0.66042 0.58194 0.0
C322 C 0.76631 0.69872 0.85204 0.0
N323 N 0.76496 0.68184 0.82648 0.0
N324 N 0.75779 0.68118 0.76373 0.0
C325 C 0.75401 0.69749 0.74775 0.0
C326 C 0.75934 0.70924 0.80312 0.0
C327 C 0.77456 0.70466 0.92122 0.0
H328 H 0.76555 0.69816 0.96358 0.0
H329 H 0.78771 0.70021 0.926 0.0
H330 H 0.77691 0.71957 0.92742 0.0
O331 O 0.7467 0.64113 0.86268 0.0
O332 O 0.73347 0.64187 0.75952 0.0
H333 H 0.7327 0.68944 0.67375 0.0
H334 H 0.73797 0.71347 0.68928 0.0
C335 C 0.74382 0.70108 0.6838 0.0
H336 H 0.75311 0.70263 0.63827 0.0
H337 H 0.71995 0.6553 0.61842 0.0
O338 O 0.77362 0.66245 0.96723 0.0
C339 C 0.73364 0.63555 0.8211 0.0
Co340 Co 0.6095 0.50332 0.9931 0.0
Co341 Co 0.61602 0.52119 0.13971 0.0
C342 C 0.62812 0.48591 0.0983 0.0
O343 O 0.62065 0.48451 0.03841 0.0
O344 O 0.62746 0.49939 0.13779 0.0
C345 C 0.61262 0.49172 0.85313 0.0
O346 O 0.62798 0.48786 0.87526 0.0
C347 C 0.61229 0.51739 0.28969 0.0
C348 C 0.61769 0.54567 0.32746 0.0
C349 C 0.6133 0.52784 0.3498 0.0
N350 N 0.61567 0.52856 0.2346 0.0
N351 N 0.61889 0.54544 0.25731 0.0
C352 C 0.61024 0.49724 0.28368 0.0
H353 H 0.62362 0.49392 0.2711 0.0
H354 H 0.60089 0.49228 0.2401 0.0
H355 H 0.60544 0.48997 0.33224 0.0
C356 C 0.57177 0.50604 0.02679 0.0
N357 N 0.58937 0.50793 0.04389 0.0
N358 N 0.59207 0.51597 0.10484 0.0
C359 C 0.5763 0.51976 0.12821 0.0
C360 C 0.56286 0.51358 0.07945 0.0
C361 C 0.56378 0.49722 0.96103 0.0
H362 H 0.56984 0.48522 0.9493 0.0
H363 H 0.54887 0.49298 0.9654 0.0
H364 H 0.56697 0.50692 0.91711 0.0
O365 O 0.62797 0.52586 0.98218 0.0
O366 O 0.63096 0.5404 0.08351 0.0
H367 H 0.58604 0.54256 0.19369 0.0
H368 H 0.56175 0.53584 0.19326 0.0
C369 C 0.57468 0.53081 0.19208 0.0
H370 H 0.57555 0.52241 0.23912 0.0
H371 H 0.62199 0.55677 0.225 0.0
O372 O 0.60204 0.49703 0.89665 0.0
C373 C 0.6349 0.53948 0.01913 0.0
Co374 Co 0.73256 0.39102 0.36389 0.0
Co375 Co 0.74663 0.39112 0.21162 0.0
C376 C 0.7123 0.40458 0.25245 0.0
O377 O 0.71247 0.3996 0.31589 0.0
O378 O 0.72491 0.40253 0.21071 0.0
C379 C 0.71424 0.38117 0.4992 0.0
O380 O 0.70003 0.37204 0.46668 0.0
C381 C 0.73929 0.38288 0.06635 0.0
C382 C 0.76643 0.38632 0.01852 0.0
C383 C 0.74809 0.3823 0.00315 0.0
N384 N 0.75178 0.38721 0.11655 0.0
N385 N 0.76801 0.3892 0.08788 0.0
C386 C 0.71937 0.37822 0.08021 0.0
H387 H 0.71683 0.37232 0.13323 0.0
H388 H 0.71247 0.36849 0.04083 0.0
H389 H 0.71359 0.39073 0.07774 0.0
C390 C 0.73694 0.35237 0.35426 0.0
N391 N 0.73703 0.36887 0.32646 0.0
N392 N 0.74253 0.36892 0.26123 0.0
C393 C 0.74587 0.35243 0.24507 0.0
C394 C 0.74248 0.3414 0.30353 0.0
C395 C 0.73355 0.3478 0.42974 0.0
H396 H 0.74026 0.35921 0.46272 0.0
H397 H 0.71879 0.34545 0.43989 0.0
H398 H 0.73871 0.33545 0.44459 0.0
O399 O 0.75473 0.40992 0.35806 0.0
O400 O 0.76713 0.40821 0.25368 0.0
H401 H 0.76574 0.35558 0.1639 0.0
H402 H 0.75265 0.33283 0.17119 0.0
C403 C 0.75213 0.34742 0.17481 0.0
H404 H 0.74271 0.35059 0.13429 0.0
H405 H 0.78013 0.39272 0.11545 0.0
O406 O 0.72783 0.38908 0.46458 0.0
C407 C 0.76745 0.41505 0.31454 0.0
Co408 Co 0.1157 0.50733 0.61577 0.0
Co409 Co 0.11589 0.52052 0.46004 0.0
C410 C 0.1293 0.48652 0.50446 0.0
O411 O 0.1244 0.48716 0.56788 0.0
O412 O 0.12711 0.49873 0.46111 0.0
C413 C 0.10314 0.4891 0.7476 0.0
O414 O 0.09182 0.47717 0.71139 0.0
C415 C 0.11224 0.51623 0.30763 0.0
C416 C 0.10312 0.54126 0.27604 0.0
C417 C 0.10626 0.52488 0.25061 0.0
N418 N 0.1119 0.52665 0.36452 0.0
N419 N 0.1068 0.54177 0.34493 0.0
C420 C 0.12021 0.49944 0.30712 0.0
H421 H 0.13338 0.5023 0.33448 0.0
H422 H 0.11108 0.48843 0.33515 0.0
H423 H 0.12286 0.49498 0.25366 0.0
C424 C 0.07731 0.51261 0.60482 0.0
N425 N 0.0937 0.51206 0.57705 0.0
N426 N 0.0935 0.5162 0.51021 0.0
C427 C 0.07672 0.51858 0.49295 0.0
C428 C 0.06602 0.51658 0.55234 0.0
C429 C 0.07308 0.5118 0.68121 0.0
H430 H 0.08541 0.51704 0.712 0.0
H431 H 0.06765 0.49758 0.6961 0.0
H432 H 0.06263 0.51992 0.69381 0.0
O433 O 0.13458 0.52934 0.60974 0.0
O434 O 0.13318 0.54086 0.50353 0.0
H435 H 0.07431 0.53676 0.40938 0.0
H436 H 0.05577 0.51788 0.41546 0.0
C437 C 0.07067 0.52207 0.42068 0.0
H438 H 0.07727 0.51448 0.38212 0.0
H439 H 0.10542 0.55226 0.37893 0.0
O440 O 0.11351 0.50199 0.71679 0.0
C441 C 0.13989 0.54166 0.5648 0.0
Co442 Co 0.22968 0.38495 0.24849 0.0
Co443 Co 0.24699 0.39145 0.39608 0.0
C444 C 0.21161 0.40293 0.35514 0.0
O445 O 0.21058 0.39565 0.29489 0.0
O446 O 0.22503 0.40244 0.39501 0.0
C447 C 0.21891 0.38898 0.1091 0.0
O448 O 0.21644 0.40481 0.13181 0.0
C449 C 0.24408 0.38901 0.54702 0.0
C450 C 0.27252 0.39181 0.5813 0.0
C451 C 0.25486 0.38908 0.60573 0.0
N452 N 0.25484 0.39126 0.4905 0.0
N453 N 0.27183 0.39297 0.51118 0.0
C454 C 0.22405 0.38828 0.54372 0.0
H455 H 0.21801 0.37842 0.50319 0.0
H456 H 0.21712 0.38485 0.59417 0.0
H457 H 0.22159 0.40179 0.52831 0.0
C458 C 0.23423 0.34752 0.27927 0.0
N459 N 0.23501 0.36489 0.29807 0.0
N460 N 0.24196 0.36745 0.36099 0.0
C461 C 0.24555 0.35166 0.38502 0.0
C462 C 0.24088 0.3385 0.33386 0.0
C463 C 0.22924 0.3405 0.20737 0.0
H464 H 0.23775 0.34919 0.16866 0.0
H465 H 0.21491 0.3413 0.19685 0.0
H466 H 0.23118 0.32638 0.20018 0.0
O467 O 0.25181 0.40366 0.2372 0.0
O468 O 0.26604 0.40672 0.33913 0.0
H469 H 0.2672 0.357 0.45885 0.0
H470 H 0.25303 0.33481 0.46791 0.0
C471 C 0.25313 0.34924 0.45588 0.0
H472 H 0.24494 0.35462 0.49591 0.0
H473 H 0.28292 0.39487 0.47746 0.0
O474 O 0.22301 0.37765 0.15236 0.0
C475 C 0.26525 0.41071 0.27471 0.0
Co476 Co 0.38522 0.54481 0.12135 0.0
Co477 Co 0.38462 0.52972 0.97018 0.0
C478 C 0.37122 0.56429 0.00855 0.0
O479 O 0.37638 0.56466 0.07191 0.0
O480 O 0.37325 0.55138 0.96836 0.0
C481 C 0.39531 0.56312 0.25759 0.0
O482 O 0.40479 0.57733 0.22608 0.0
C483 C 0.39257 0.53673 0.82447 0.0
C484 C 0.38863 0.50953 0.77703 0.0
C485 C 0.39283 0.52785 0.76129 0.0
N486 N 0.38824 0.52431 0.87501 0.0
N487 N 0.38595 0.50805 0.84655 0.0
C488 C 0.39754 0.55666 0.83792 0.0
H489 H 0.40351 0.55918 0.8908 0.0
H490 H 0.40731 0.56338 0.79826 0.0
H491 H 0.38517 0.56265 0.83548 0.0
C492 C 0.42379 0.54009 0.11083 0.0
N493 N 0.40725 0.54005 0.08348 0.0
N494 N 0.40695 0.5341 0.01881 0.0
C495 C 0.42331 0.53047 0.00248 0.0
C496 C 0.43452 0.53408 0.06033 0.0
C497 C 0.42856 0.5438 0.18595 0.0
H498 H 0.41719 0.5373 0.21964 0.0
H499 H 0.43101 0.55861 0.19505 0.0
H500 H 0.44088 0.53863 0.20087 0.0
O501 O 0.36639 0.52256 0.11758 0.0
O502 O 0.3676 0.50948 0.01431 0.0
H503 H 0.4197 0.51007 0.92329 0.0
H504 H 0.44256 0.52302 0.9285 0.0
C505 C 0.42801 0.52369 0.93265 0.0
H506 H 0.4248 0.5329 0.89139 0.0
H507 H 0.38235 0.49598 0.87438 0.0
O508 O 0.38727 0.54976 0.22207 0.0
C509 C 0.36103 0.50956 0.07555 0.0
Co510 Co 0.27413 0.66527 0.72345 0.0
Co511 Co 0.25551 0.65997 0.86916 0.0
C512 C 0.29063 0.64689 0.83224 0.0
O513 O 0.29247 0.65399 0.77166 0.0
O514 O 0.27698 0.648 0.87026 0.0
C515 C 0.2851 0.66116 0.58265 0.0
O516 O 0.28766 0.64526 0.60424 0.0
C517 C 0.25872 0.6668 0.01812 0.0
C518 C 0.23144 0.65515 0.05759 0.0
C519 C 0.24866 0.66335 0.07931 0.0
N520 N 0.24797 0.66084 0.96372 0.0
N521 N 0.23162 0.65407 0.98746 0.0
C522 C 0.27847 0.67458 0.01054 0.0
H523 H 0.28324 0.67277 0.95687 0.0
H524 H 0.28077 0.68935 0.02061 0.0
H525 H 0.2865 0.66823 0.04852 0.0
C526 C 0.27171 0.7033 0.75244 0.0
N527 N 0.26969 0.68585 0.77182 0.0
N528 N 0.26116 0.68362 0.83195 0.0
C529 C 0.25706 0.69952 0.85217 0.0
C530 C 0.26365 0.71259 0.80242 0.0
C531 C 0.2811 0.71079 0.68692 0.0
H532 H 0.29306 0.70446 0.67741 0.0
H533 H 0.28553 0.7257 0.69018 0.0
H534 H 0.2717 0.70749 0.64216 0.0
O535 O 0.25127 0.64719 0.71252 0.0
O536 O 0.23632 0.64506 0.81302 0.0
H537 H 0.23469 0.68918 0.9196 0.0
H538 H 0.23849 0.71338 0.90703 0.0
C539 C 0.2452 0.70155 0.91333 0.0
H540 H 0.25357 0.70343 0.96136 0.0
H541 H 0.22076 0.64822 0.95602 0.0
O542 O 0.28085 0.67225 0.62666 0.0
C543 C 0.23738 0.64076 0.74907 0.0
C544 C 0.40117 0.04552 0.75252 0.0
C545 C 0.38888 0.05631 0.77431 0.0
C546 C 0.40259 0.041 0.68212 0.0
C547 C 0.39179 0.0478 0.63206 0.0
C548 C 0.3803 0.05972 0.65302 0.0
C549 C 0.3788 0.06367 0.72418 0.0
C550 C 0.41474 0.02797 0.66213 0.0
C551 C 0.36898 0.06764 0.60067 0.0
C552 C 0.4035 0.04298 0.44106 0.0
C553 C 0.3902 0.02824 0.42044 0.0
C554 C 0.40397 0.04979 0.50936 0.0
C555 C 0.39134 0.04114 0.55905 0.0
C556 C 0.3784 0.02575 0.53956 0.0
C557 C 0.37791 0.01958 0.47046 0.0
C558 C 0.4179 0.0663 0.52823 0.0
C559 C 0.365 0.01583 0.59165 0.0
H560 H 0.40898 0.03973 0.79094 0.0
H561 H 0.36941 0.07213 0.74071 0.0
H562 H 0.40633 0.01497 0.64495 0.0
H563 H 0.4236 0.03334 0.61771 0.0
H564 H 0.4234 0.02517 0.70623 0.0
H565 H 0.36245 0.0783 0.62406 0.0
H566 H 0.37745 0.07353 0.55586 0.0
H567 H 0.35824 0.05678 0.57986 0.0
H568 H 0.41371 0.0492 0.40448 0.0
H569 H 0.36765 0.00808 0.45541 0.0
H570 H 0.42709 0.06283 0.56915 0.0
H571 H 0.41111 0.07694 0.5501 0.0
H572 H 0.42618 0.072 0.48257 0.0
H573 H 0.37229 0.01145 0.63697 0.0
H574 H 0.35622 0.00372 0.56863 0.0
H575 H 0.35626 0.02501 0.61177 0.0
C576 C 0.2544 0.17964 0.90685 0.0
C577 C 0.26204 0.16986 0.95702 0.0
C578 C 0.26111 0.18125 0.83831 0.0
C579 C 0.27549 0.17249 0.8194 0.0
C580 C 0.28352 0.16293 0.87044 0.0
C581 C 0.27669 0.16175 0.93874 0.0
C582 C 0.25231 0.19171 0.78547 0.0
C583 C 0.29862 0.15309 0.85208 0.0
C584 C 0.27477 0.1573 0.63116 0.0
C585 C 0.28837 0.17037 0.60117 0.0
C586 C 0.27087 0.15757 0.70248 0.0
C587 C 0.2806 0.17149 0.7448 0.0
C588 C 0.29466 0.18454 0.71524 0.0
C589 C 0.29851 0.18372 0.64356 0.0
C590 C 0.25604 0.14317 0.73214 0.0
C591 C 0.30515 0.19967 0.75878 0.0
H592 H 0.24306 0.1859 0.92112 0.0
H593 H 0.28231 0.15376 0.977 0.0
H594 H 0.26276 0.20133 0.75662 0.0
H595 H 0.24477 0.18223 0.74667 0.0
H596 H 0.24273 0.19939 0.81016 0.0
H597 H 0.30464 0.14793 0.89909 0.0
H598 H 0.2933 0.14145 0.81759 0.0
H599 H 0.30946 0.16213 0.82292 0.0
H600 H 0.26701 0.14685 0.59851 0.0
H601 H 0.30894 0.19391 0.62024 0.0
H602 H 0.2448 0.14948 0.75161 0.0
H603 H 0.26122 0.1364 0.77714 0.0
H604 H 0.2505 0.13272 0.69288 0.0
H605 H 0.29588 0.20842 0.77818 0.0
H606 H 0.31625 0.20818 0.72881 0.0
H607 H 0.31101 0.1941 0.80516 0.0
C608 C 0.08863 0.97739 0.22469 0.0
C609 C 0.10264 0.987 0.26565 0.0
C610 C 0.08777 0.98091 0.15278 0.0
C611 C 0.10133 0.99419 0.12166 0.0
C612 C 0.1159 0.00331 0.16242 0.0
C613 C 0.11634 0.99964 0.23385 0.0
C614 C 0.07206 0.97094 0.11068 0.0
C615 C 0.13076 0.0174 0.13111 0.0
C616 C 0.11032 0.99757 0.92733 0.0
C617 C 0.10266 0.01255 0.90937 0.0
C618 C 0.10907 0.99074 0.99557 0.0
C619 C 0.10014 0.99925 0.04717 0.0
C620 C 0.09195 0.01407 0.02887 0.0
C621 C 0.09342 0.02063 0.96015 0.0
C622 C 0.11817 0.97506 0.0132 0.0
C623 C 0.08231 0.02349 0.08254 0.0
H624 H 0.07798 0.96768 0.24923 0.0
H625 H 0.1273 0.00698 0.26525 0.0
H626 H 0.06365 0.98063 0.09224 0.0
H627 H 0.07704 0.96477 0.06373 0.0
H628 H 0.06336 0.96014 0.14144 0.0
H629 H 0.14159 0.02259 0.16939 0.0
H630 H 0.13696 0.01165 0.08592 0.0
H631 H 0.125 0.02899 0.11156 0.0
H632 H 0.11801 0.99165 0.88892 0.0
H633 H 0.08753 0.03223 0.94628 0.0
H634 H 0.10892 0.96467 0.04371 0.0
H635 H 0.13024 0.97992 0.04612 0.0
H636 H 0.12258 0.96858 0.96576 0.0
H637 H 0.07237 0.01347 0.11194 0.0
H638 H 0.07512 0.03358 0.05855 0.0
H639 H 0.09226 0.03058 0.12076 0.0
C640 C 0.23212 0.87376 0.40742 0.0
C641 C 0.24664 0.88735 0.42732 0.0
C642 C 0.22532 0.87302 0.3392 0.0
C643 C 0.2338 0.8857 0.28934 0.0
C644 C 0.24902 0.89894 0.30849 0.0
C645 C 0.25522 0.89964 0.37754 0.0
C646 C 0.20904 0.85877 0.32065 0.0
C647 C 0.25871 0.91239 0.25612 0.0
C648 C 0.23005 0.87525 0.09666 0.0
C649 C 0.21895 0.88714 0.07386 0.0
C650 C 0.23445 0.87413 0.16721 0.0
C651 C 0.22725 0.88486 0.21634 0.0
C652 C 0.21499 0.8959 0.19448 0.0
C653 C 0.21112 0.89706 0.12315 0.0
C654 C 0.24778 0.8624 0.18834 0.0
C655 C 0.20666 0.90712 0.24598 0.0
H656 H 0.22604 0.86373 0.44531 0.0
H657 H 0.26661 0.90999 0.39293 0.0
H658 H 0.19819 0.86529 0.29894 0.0
H659 H 0.21269 0.84968 0.27968 0.0
H660 H 0.20356 0.85043 0.36643 0.0
H661 H 0.27055 0.92156 0.27922 0.0
H662 H 0.26344 0.90513 0.21143 0.0
H663 H 0.24926 0.92073 0.23509 0.0
H664 H 0.23616 0.8675 0.05897 0.0
H665 H 0.20241 0.90614 0.10586 0.0
H666 H 0.24246 0.85356 0.23287 0.0
H667 H 0.26058 0.87113 0.20579 0.0
H668 H 0.25092 0.85375 0.14477 0.0
H669 H 0.20093 0.89871 0.29114 0.0
H670 H 0.1958 0.91324 0.22195 0.0
H671 H 0.21726 0.91818 0.26645 0.0
C672 C 0.59914 0.00801 0.6627 0.0
C673 C 0.61246 0.02269 0.68323 0.0
C674 C 0.59865 0.00133 0.59433 0.0
C675 C 0.61128 0.01013 0.5449 0.0
C676 C 0.62419 0.02555 0.5646 0.0
C677 C 0.62467 0.0316 0.63383 0.0
C678 C 0.58476 0.98482 0.57519 0.0
C679 C 0.63754 0.0356 0.51265 0.0
C680 C 0.62345 0.98777 0.37908 0.0
C681 C 0.61325 0.99519 0.32961 0.0
C682 C 0.62217 0.9917 0.45031 0.0
C683 C 0.61075 0.00363 0.47186 0.0
C684 C 0.59983 0.01049 0.42251 0.0
C685 C 0.60106 0.006 0.35208 0.0
C686 C 0.63361 0.98373 0.50207 0.0
C687 C 0.58774 0.02351 0.44329 0.0
H688 H 0.58913 0.00169 0.70023 0.0
H689 H 0.6348 0.04313 0.64968 0.0
H690 H 0.57566 0.98827 0.53389 0.0
H691 H 0.59161 0.97418 0.55371 0.0
H692 H 0.57639 0.97915 0.62065 0.0
H693 H 0.64636 0.04763 0.53606 0.0
H694 H 0.64624 0.02646 0.49187 0.0
H695 H 0.6302 0.04011 0.46774 0.0
H696 H 0.63277 0.97929 0.36199 0.0
H697 H 0.59314 0.01185 0.31419 0.0
H698 H 0.62523 0.97776 0.54698 0.0
H699 H 0.64436 0.99459 0.52288 0.0
H700 H 0.64013 0.97313 0.47818 0.0
H701 H 0.57889 0.01802 0.48756 0.0
H702 H 0.57908 0.02647 0.39947 0.0
H703 H 0.59619 0.03644 0.46099 0.0
C704 C 0.71633 0.89848 0.49069 0.0
C705 C 0.7222 0.88707 0.53982 0.0
C706 C 0.72045 0.89719 0.41967 0.0
C707 C 0.73101 0.88449 0.39795 0.0
C708 C 0.73631 0.87244 0.44689 0.0
C709 C 0.73165 0.87373 0.51716 0.0
C710 C 0.71416 0.90992 0.36834 0.0
C711 C 0.74785 0.85892 0.42591 0.0
C712 C 0.73409 0.8736 0.20586 0.0
C713 C 0.74965 0.8859 0.186 0.0
C714 C 0.72769 0.87312 0.27461 0.0
C715 C 0.7376 0.88465 0.32505 0.0
C716 C 0.75393 0.89633 0.30607 0.0
C717 C 0.75973 0.89687 0.23645 0.0
C718 C 0.71017 0.86056 0.29293 0.0
C719 C 0.76514 0.90843 0.35907 0.0
H720 H 0.70892 0.90871 0.50796 0.0
H721 H 0.7363 0.8649 0.55485 0.0
H722 H 0.72599 0.91968 0.34833 0.0
H723 H 0.70752 0.90226 0.32287 0.0
H724 H 0.70452 0.91765 0.3923 0.0
H725 H 0.74962 0.8496 0.46925 0.0
H726 H 0.74179 0.85075 0.38073 0.0
H727 H 0.76141 0.86624 0.40944 0.0
H728 H 0.7268 0.86448 0.16735 0.0
H729 H 0.77195 0.90616 0.22113 0.0
H730 H 0.70034 0.86851 0.31383 0.0
H731 H 0.71253 0.851 0.33443 0.0
H732 H 0.704 0.85264 0.24719 0.0
H733 H 0.75723 0.91823 0.38036 0.0
H734 H 0.77791 0.91609 0.33638 0.0
H735 H 0.76856 0.90023 0.4035 0.0
C736 C 0.90143 0.04192 0.15776 0.0
C737 C 0.88721 0.02789 0.17711 0.0
C738 C 0.9028 0.04881 0.08951 0.0
C739 C 0.89006 0.04098 0.03878 0.0
C740 C 0.8761 0.02634 0.05721 0.0
C741 C 0.87479 0.02005 0.1262 0.0
C742 C 0.91782 0.06449 0.07175 0.0
C743 C 0.8625 0.01732 0.00405 0.0
C744 C 0.88027 0.06446 0.87211 0.0
C745 C 0.88972 0.05605 0.82293 0.0
C746 C 0.88118 0.06055 0.94353 0.0
C747 C 0.89147 0.04765 0.96574 0.0
C748 C 0.90179 0.03986 0.91674 0.0
C749 C 0.90095 0.04432 0.84601 0.0
C750 C 0.87041 0.0695 0.99474 0.0
C751 C 0.91271 0.02585 0.93815 0.0
H752 H 0.91167 0.04746 0.19534 0.0
H753 H 0.86384 0.00911 0.14047 0.0
H754 H 0.92689 0.06028 0.03193 0.0
H755 H 0.91207 0.07573 0.04887 0.0
H756 H 0.92604 0.06968 0.11814 0.0
H757 H 0.85275 0.0058 0.02651 0.0
H758 H 0.85479 0.02729 0.98276 0.0
H759 H 0.86961 0.01226 0.95964 0.0
H760 H 0.87172 0.07367 0.85464 0.0
H761 H 0.90833 0.03775 0.80838 0.0
H762 H 0.87892 0.07479 0.04022 0.0
H763 H 0.85886 0.05939 0.01473 0.0
H764 H 0.86502 0.08082 0.97058 0.0
H765 H 0.92151 0.03068 0.98332 0.0
H766 H 0.92132 0.0224 0.89495 0.0
H767 H 0.9034 0.0133 0.95472 0.0
C768 C 0.76795 0.17874 0.69954 0.0
C769 C 0.75352 0.16499 0.67976 0.0
C770 C 0.77483 0.17968 0.76776 0.0
C771 C 0.76657 0.16702 0.81809 0.0
C772 C 0.75153 0.15357 0.79931 0.0
C773 C 0.74527 0.15265 0.73031 0.0
C774 C 0.79096 0.19415 0.7859 0.0
C775 C 0.74205 0.1401 0.85208 0.0
C776 C 0.78951 0.15597 0.98428 0.0
C777 C 0.78159 0.16578 0.03372 0.0
C778 C 0.78562 0.15712 0.91295 0.0
C779 C 0.77323 0.16802 0.89111 0.0
C780 C 0.76591 0.17864 0.9404 0.0
C781 C 0.77036 0.17755 0.01102 0.0
C782 C 0.79408 0.14602 0.8614 0.0
C783 C 0.75241 0.19019 0.91941 0.0
H784 H 0.77383 0.18895 0.66235 0.0
H785 H 0.73402 0.14205 0.71576 0.0
H786 H 0.78712 0.20335 0.82604 0.0
H787 H 0.80187 0.18788 0.80851 0.0
H788 H 0.79644 0.20234 0.73974 0.0
H789 H 0.73023 0.1308 0.82941 0.0
H790 H 0.75163 0.13189 0.87296 0.0
H791 H 0.73731 0.14734 0.89682 0.0
H792 H 0.79833 0.14699 0.00148 0.0
H793 H 0.76416 0.1852 0.04886 0.0
H794 H 0.79967 0.15446 0.81612 0.0
H795 H 0.78359 0.13484 0.84115 0.0
H796 H 0.80507 0.14007 0.88533 0.0
H797 H 0.75755 0.19898 0.87454 0.0
H798 H 0.74928 0.19886 0.9629 0.0
H799 H 0.73964 0.18132 0.90252 0.0
C800 C 0.88114 0.56458 0.22299 0.0
C801 C 0.89117 0.55688 0.27224 0.0
C802 C 0.88198 0.5604 0.1518 0.0
C803 C 0.89274 0.54789 0.12992 0.0
C804 C 0.90348 0.54067 0.17907 0.0
C805 C 0.90274 0.54544 0.24955 0.0
C806 C 0.87075 0.56876 0.10044 0.0
C807 C 0.91485 0.52701 0.15809 0.0
C808 C 0.87695 0.52033 0.96835 0.0
C809 C 0.88916 0.52872 0.91762 0.0
C810 C 0.87811 0.52632 0.03777 0.0
C811 C 0.89168 0.54125 0.0568 0.0
C812 C 0.90425 0.54959 0.00633 0.0
C813 C 0.90308 0.54297 0.93771 0.0
C814 C 0.86474 0.51674 0.09066 0.0
C815 C 0.91885 0.56559 0.02469 0.0
H816 H 0.87228 0.57352 0.24029 0.0
H817 H 0.91047 0.53935 0.28739 0.0
H818 H 0.87914 0.5744 0.05506 0.0
H819 H 0.85961 0.55821 0.08029 0.0
H820 H 0.86475 0.57971 0.12444 0.0
H821 H 0.92355 0.52385 0.20146 0.0
H822 H 0.90586 0.51427 0.14157 0.0
H823 H 0.9236 0.53202 0.11295 0.0
H824 H 0.86626 0.50919 0.9536 0.0
H825 H 0.91322 0.54892 0.90037 0.0
H826 H 0.8565 0.52627 0.11184 0.0
H827 H 0.87205 0.51201 0.13519 0.0
H828 H 0.85546 0.50491 0.06795 0.0
H829 H 0.91267 0.57659 0.04717 0.0
H830 H 0.92713 0.571 0.97866 0.0
H831 H 0.92795 0.56166 0.06499 0.0
C832 C 0.7745 0.66149 0.4187 0.0
C833 C 0.75998 0.66984 0.43647 0.0
C834 C 0.78125 0.66229 0.35032 0.0
C835 C 0.77326 0.67169 0.29868 0.0
C836 C 0.75903 0.68073 0.31706 0.0
C837 C 0.75241 0.67951 0.38572 0.0
C838 C 0.79619 0.65219 0.33255 0.0
C839 C 0.75028 0.69104 0.26354 0.0
C840 C 0.79588 0.68177 0.12155 0.0
C841 C 0.78548 0.6683 0.08041 0.0
C842 C 0.79226 0.68298 0.19327 0.0
C843 C 0.77818 0.67021 0.22412 0.0
C844 C 0.76821 0.65615 0.18309 0.0
C845 C 0.77188 0.65547 0.11169 0.0
C846 C 0.80301 0.69826 0.23542 0.0
C847 C 0.75334 0.64204 0.2142 0.0
H848 H 0.78005 0.65356 0.45739 0.0
H849 H 0.74116 0.68594 0.3996 0.0
H850 H 0.79068 0.64035 0.29933 0.0
H851 H 0.80701 0.66094 0.30228 0.0
H852 H 0.80228 0.64727 0.37991 0.0
H853 H 0.74088 0.699 0.28777 0.0
H854 H 0.76076 0.70038 0.23373 0.0
H855 H 0.74255 0.68141 0.22566 0.0
H856 H 0.8063 0.69177 0.0972 0.0
H857 H 0.76393 0.64494 0.07997 0.0
H858 H 0.80884 0.69287 0.28227 0.0
H859 H 0.79392 0.70728 0.25404 0.0
H860 H 0.81416 0.70644 0.20465 0.0
H861 H 0.75855 0.63546 0.25967 0.0
H862 H 0.74763 0.6314 0.1759 0.0
H863 H 0.74223 0.64858 0.2333 0.0
C864 C 0.61948 0.48607 0.72829 0.0
C865 C 0.60955 0.49384 0.77771 0.0
C866 C 0.61862 0.49026 0.65712 0.0
C867 C 0.60793 0.50285 0.63544 0.0
C868 C 0.59731 0.51016 0.68476 0.0
C869 C 0.59807 0.50538 0.75521 0.0
C870 C 0.62973 0.4818 0.60556 0.0
C871 C 0.58602 0.52391 0.66396 0.0
C872 C 0.62371 0.5302 0.47324 0.0
C873 C 0.61142 0.52176 0.42317 0.0
C874 C 0.62259 0.52429 0.54277 0.0
C875 C 0.60894 0.50945 0.56227 0.0
C876 C 0.59622 0.50115 0.5122 0.0
C877 C 0.59737 0.50771 0.44351 0.0
C878 C 0.63606 0.53384 0.59525 0.0
C879 C 0.58156 0.48524 0.53098 0.0
H880 H 0.62828 0.47705 0.74543 0.0
H881 H 0.59041 0.51153 0.79318 0.0
H882 H 0.62126 0.47618 0.56043 0.0
H883 H 0.64088 0.4923 0.58506 0.0
H884 H 0.63571 0.47083 0.62949 0.0
H885 H 0.57744 0.52718 0.70756 0.0
H886 H 0.59506 0.53658 0.64701 0.0
H887 H 0.57715 0.51891 0.61916 0.0
H888 H 0.6344 0.54128 0.45775 0.0
H889 H 0.58724 0.50184 0.40571 0.0
H890 H 0.64426 0.52428 0.6164 0.0
H891 H 0.62884 0.53867 0.63986 0.0
H892 H 0.64537 0.5456 0.57217 0.0
H893 H 0.58771 0.47415 0.55287 0.0
H894 H 0.57312 0.47994 0.48526 0.0
H895 H 0.57263 0.48921 0.57188 0.0
C896 C 0.70567 0.36699 0.61587 0.0
C897 C 0.71567 0.38102 0.57595 0.0
C898 C 0.70887 0.3658 0.68788 0.0
C899 C 0.72225 0.37903 0.72012 0.0
C900 C 0.73178 0.39362 0.68041 0.0
C901 C 0.72841 0.39439 0.60886 0.0
C902 C 0.69847 0.35008 0.72886 0.0
C903 C 0.746 0.40813 0.71296 0.0
C904 C 0.7253 0.38759 0.9146 0.0
C905 C 0.7401 0.37967 0.93269 0.0
C906 C 0.71856 0.3865 0.84626 0.0
C907 C 0.72699 0.37748 0.79473 0.0
C908 C 0.74156 0.36894 0.81323 0.0
C909 C 0.74802 0.37025 0.88205 0.0
C910 C 0.70314 0.39594 0.82842 0.0
C911 C 0.75089 0.35918 0.75963 0.0
H912 H 0.69588 0.35659 0.59046 0.0
H913 H 0.73605 0.40537 0.57827 0.0
H914 H 0.70787 0.34134 0.74713 0.0
H915 H 0.6923 0.35503 0.7759 0.0
H916 H 0.68761 0.34172 0.69733 0.0
H917 H 0.75154 0.41902 0.67535 0.0
H918 H 0.74022 0.41433 0.75812 0.0
H919 H 0.75734 0.40204 0.73281 0.0
H920 H 0.7195 0.39539 0.95291 0.0
H921 H 0.75949 0.36415 0.89604 0.0
H922 H 0.69277 0.38697 0.79693 0.0
H923 H 0.70831 0.40812 0.79643 0.0
H924 H 0.69656 0.40025 0.87582 0.0
H925 H 0.74078 0.34955 0.72941 0.0
H926 H 0.76064 0.35163 0.78382 0.0
H927 H 0.75834 0.36913 0.72211 0.0
C928 C 0.08507 0.49115 0.85481 0.0
C929 C 0.10167 0.49003 0.82385 0.0
C930 C 0.08417 0.4959 0.92545 0.0
C931 C 0.10019 0.49893 0.96608 0.0
C932 C 0.11677 0.4966 0.93577 0.0
C933 C 0.11737 0.49256 0.8645 0.0
C934 C 0.06637 0.49884 0.95515 0.0
C935 C 0.13401 0.49907 0.97793 0.0
C936 C 0.10638 0.53054 0.12209 0.0
C937 C 0.10336 0.51829 0.17782 0.0
C938 C 0.10458 0.52445 0.05273 0.0
C939 C 0.09998 0.50564 0.03897 0.0
C940 C 0.09618 0.49328 0.09503 0.0
C941 C 0.09741 0.49982 0.16373 0.0
C942 C 0.10806 0.53812 0.99422 0.0
C943 C 0.09149 0.47312 0.0826 0.0
H944 H 0.073 0.48949 0.82276 0.0
H945 H 0.1302 0.49176 0.84006 0.0
H946 H 0.06341 0.49156 0.00538 0.0
H947 H 0.06721 0.51347 0.96599 0.0
H948 H 0.05491 0.49431 0.91878 0.0
H949 H 0.14525 0.49481 0.94863 0.0
H950 H 0.13826 0.51352 0.99246 0.0
H951 H 0.13175 0.49115 0.02707 0.0
H952 H 0.11054 0.54488 0.13266 0.0
H953 H 0.09392 0.49038 0.20647 0.0
H954 H 0.09679 0.53563 0.95598 0.0
H955 H 0.1206 0.53671 0.96602 0.0
H956 H 0.10962 0.55226 0.01354 0.0
H957 H 0.07957 0.46978 0.04774 0.0
H958 H 0.08853 0.46534 0.13192 0.0
H959 H 0.10295 0.46857 0.05597 0.0
C960 C 0.21433 0.39675 0.98446 0.0
C961 C 0.22116 0.38603 0.03371 0.0
C962 C 0.21872 0.39588 0.91349 0.0
C963 C 0.23055 0.38437 0.89191 0.0
C964 C 0.23693 0.37303 0.94105 0.0
C965 C 0.23197 0.37384 0.01127 0.0
C966 C 0.21125 0.40778 0.86204 0.0
C967 C 0.24986 0.36084 0.92031 0.0
C968 C 0.23453 0.37378 0.69972 0.0
C969 C 0.24919 0.38718 0.67948 0.0
C970 C 0.22813 0.37281 0.76859 0.0
C971 C 0.23718 0.38503 0.81886 0.0
C972 C 0.25267 0.39791 0.79949 0.0
C973 C 0.25844 0.39888 0.72975 0.0
C974 C 0.21153 0.35897 0.78723 0.0
C975 C 0.26299 0.4108 0.85221 0.0
H976 H 0.20591 0.40612 0.00161 0.0
H977 H 0.23742 0.36561 0.04915 0.0
H978 H 0.2224 0.41834 0.84186 0.0
H979 H 0.20517 0.39967 0.81669 0.0
H980 H 0.20085 0.41457 0.88592 0.0
H981 H 0.25253 0.35194 0.96383 0.0
H982 H 0.24446 0.35223 0.87532 0.0
H983 H 0.26293 0.36923 0.90362 0.0
H984 H 0.22795 0.36411 0.66149 0.0
H985 H 0.26999 0.40904 0.71422 0.0
H986 H 0.2009 0.36588 0.80843 0.0
H987 H 0.21482 0.34981 0.8286 0.0
H988 H 0.2059 0.35067 0.74159 0.0
H989 H 0.25414 0.41974 0.87342 0.0
H990 H 0.27524 0.41941 0.82931 0.0
H991 H 0.2672 0.40312 0.89675 0.0
C992 C 0.40464 0.52774 0.63975 0.0
C993 C 0.39541 0.5358 0.69065 0.0
C994 C 0.40605 0.5343 0.57102 0.0
C995 C 0.39782 0.5491 0.55281 0.0
C996 C 0.38891 0.55759 0.60451 0.0
C997 C 0.38772 0.55076 0.67277 0.0
C998 C 0.41568 0.52489 0.51725 0.0
C999 C 0.37978 0.57326 0.587 0.0
C1000 C 0.40922 0.57099 0.37524 0.0
C1001 C 0.39519 0.56137 0.33433 0.0
C1002 C 0.41012 0.56746 0.44713 0.0
C1003 C 0.39659 0.55417 0.47831 0.0
C1004 C 0.38201 0.54504 0.43762 0.0
C1005 C 0.38153 0.54872 0.3662 0.0
C1006 C 0.42584 0.57744 0.48914 0.0
C1007 C 0.36718 0.53092 0.469 0.0
H1008 H 0.41055 0.51615 0.65355 0.0
H1009 H 0.38004 0.55668 0.71126 0.0
H1010 H 0.40571 0.51779 0.4791 0.0
H1011 H 0.42558 0.53492 0.48779 0.0
H1012 H 0.42289 0.51482 0.54116 0.0
H1013 H 0.37539 0.57973 0.6345 0.0
H1014 H 0.389 0.58365 0.55644 0.0
H1015 H 0.36769 0.56839 0.55419 0.0
H1016 H 0.41985 0.58071 0.35067 0.0
H1017 H 0.37055 0.54137 0.33487 0.0
H1018 H 0.43428 0.56777 0.50749 0.0
H1019 H 0.42088 0.5836 0.53615 0.0
H1020 H 0.43452 0.58825 0.45835 0.0
H1021 H 0.37296 0.51935 0.48849 0.0
H1022 H 0.35634 0.52572 0.43078 0.0
H1023 H 0.36099 0.53666 0.51425 0.0
C1024 C 0.26964 0.67846 0.17373 0.0
C1025 C 0.2549 0.66515 0.15306 0.0
C1026 C 0.27629 0.67909 0.2423 0.0
C1027 C 0.26748 0.66662 0.29224 0.0
C1028 C 0.25206 0.65372 0.27274 0.0
C1029 C 0.24606 0.65306 0.20336 0.0
C1030 C 0.29284 0.69297 0.26112 0.0
C1031 C 0.24197 0.64051 0.32506 0.0
C1032 C 0.29013 0.6542 0.45733 0.0
C1033 C 0.28308 0.66455 0.50736 0.0
C1034 C 0.286 0.65552 0.38627 0.0
C1035 C 0.27416 0.66709 0.3653 0.0
C1036 C 0.26758 0.67809 0.41529 0.0
C1037 C 0.27232 0.67686 0.4856 0.0
C1038 C 0.29369 0.64399 0.33404 0.0
C1039 C 0.25461 0.6903 0.39535 0.0
H1040 H 0.27598 0.68855 0.13696 0.0
H1041 H 0.23454 0.64282 0.18834 0.0
H1042 H 0.28942 0.70217 0.30209 0.0
H1043 H 0.30344 0.68612 0.2829 0.0
H1044 H 0.29856 0.70123 0.21546 0.0
H1045 H 0.22977 0.63185 0.30215 0.0
H1046 H 0.25099 0.63163 0.34536 0.0
H1047 H 0.23771 0.64794 0.37024 0.0
H1048 H 0.29854 0.64476 0.4739 0.0
H1049 H 0.26671 0.68483 0.52404 0.0
H1050 H 0.29966 0.65234 0.28906 0.0
H1051 H 0.2827 0.63335 0.31346 0.0
H1052 H 0.30424 0.63731 0.35743 0.0
H1053 H 0.25997 0.69906 0.35065 0.0
H1054 H 0.25193 0.69905 0.43934 0.0
H1055 H 0.24156 0.68192 0.37856 0.0
C1056 C 0.34959 0.07296 0.18228 0.0
C1057 C 0.36194 0.07742 0.12725 0.0
C1058 C 0.33926 0.08533 0.20671 0.0
C1059 C 0.34161 0.10278 0.1765 0.0
C1060 C 0.35453 0.10764 0.12264 0.0
C1061 C 0.3644 0.09481 0.09799 0.0
C1062 C 0.32535 0.07946 0.26316 0.0
C1063 C 0.35769 0.12627 0.09033 0.0
C1064 C 0.30083 0.12545 0.18741 0.0
C1065 C 0.30459 0.13612 0.24763 0.0
C1066 C 0.313 0.11493 0.16272 0.0
C1067 C 0.32956 0.11535 0.19819 0.0
C1068 C 0.33383 0.1267 0.25722 0.0
C1069 C 0.32119 0.13681 0.28179 0.0
C1070 C 0.30775 0.10277 0.10038 0.0
C1071 C 0.35155 0.12782 0.29534 0.0
H1072 H 0.34756 0.05953 0.20504 0.0
H1073 H 0.37405 0.09839 0.05592 0.0
H1074 H 0.32777 0.08893 0.308 0.0
H1075 H 0.31163 0.07983 0.24276 0.0
H1076 H 0.32554 0.06556 0.28238 0.0
H1077 H 0.36936 0.12847 0.05374 0.0
H1078 H 0.34544 0.1282 0.06132 0.0
H1079 H 0.36017 0.13678 0.13167 0.0
H1080 H 0.28803 0.1248 0.16064 0.0
H1081 H 0.32426 0.14516 0.32791 0.0
H1082 H 0.30652 0.08841 0.11637 0.0
H1083 H 0.31839 0.10548 0.05964 0.0
H1084 H 0.29469 0.10457 0.07702 0.0
H1085 H 0.3519 0.11472 0.32136 0.0
H1086 H 0.35364 0.13865 0.33552 0.0
H1087 H 0.36301 0.13039 0.25788 0.0
C1088 C 0.15326 0.07106 0.53099 0.0
C1089 C 0.15117 0.05387 0.50042 0.0
C1090 C 0.16647 0.08547 0.50642 0.0
C1091 C 0.17808 0.08245 0.45119 0.0
C1092 C 0.17614 0.06505 0.42079 0.0
C1093 C 0.16261 0.05105 0.44529 0.0
C1094 C 0.16796 0.10393 0.53922 0.0
C1095 C 0.1885 0.06116 0.36289 0.0
C1096 C 0.20405 0.12092 0.34173 0.0
C1097 C 0.22118 0.12362 0.37308 0.0
C1098 C 0.18968 0.10798 0.36812 0.0
C1099 C 0.19265 0.09725 0.42618 0.0
C1100 C 0.20991 0.09996 0.45807 0.0
C1101 C 0.2239 0.11322 0.43155 0.0
C1102 C 0.17136 0.10567 0.33355 0.0
C1103 C 0.21374 0.08854 0.5191 0.0
H1104 H 0.14435 0.07333 0.57323 0.0
H1105 H 0.16115 0.03774 0.42176 0.0
H1106 H 0.18151 0.10816 0.56326 0.0
H1107 H 0.16657 0.11408 0.49853 0.0
H1108 H 0.1575 0.1042 0.57994 0.0
H1109 H 0.18527 0.04685 0.34529 0.0
H1110 H 0.18745 0.07004 0.31743 0.0
H1111 H 0.20277 0.06418 0.38086 0.0
H1112 H 0.20183 0.12904 0.29696 0.0
H1113 H 0.23713 0.11517 0.45589 0.0
H1114 H 0.16081 0.10677 0.37297 0.0
H1115 H 0.16783 0.09199 0.31001 0.0
H1116 H 0.17095 0.11589 0.29201 0.0
H1117 H 0.20418 0.0895 0.5624 0.0
H1118 H 0.22778 0.09266 0.53901 0.0
H1119 H 0.21167 0.07411 0.50319 0.0
C1120 C 0.1798 0.91041 0.75736 0.0
C1121 C 0.19716 0.91392 0.72777 0.0
C1122 C 0.16642 0.9199 0.73494 0.0
C1123 C 0.17072 0.93348 0.68316 0.0
C1124 C 0.18818 0.93691 0.65276 0.0
C1125 C 0.2011 0.92697 0.6749 0.0
C1126 C 0.14781 0.91559 0.76731 0.0
C1127 C 0.19346 0.95156 0.59857 0.0
C1128 C 0.13612 0.95381 0.58111 0.0
C1129 C 0.13638 0.97003 0.61748 0.0
C1130 C 0.14644 0.94119 0.60422 0.0
C1131 C 0.15756 0.94513 0.66401 0.0
C1132 C 0.15742 0.96122 0.70205 0.0
C1133 C 0.1467 0.97335 0.67876 0.0
C1134 C 0.1459 0.92394 0.56341 0.0
C1135 C 0.16933 0.96613 0.76528 0.0
H1136 H 0.17665 0.90022 0.7978 0.0
H1137 H 0.21453 0.92984 0.65213 0.0
H1138 H 0.14535 0.9273 0.79851 0.0
H1139 H 0.13732 0.91313 0.72594 0.0
H1140 H 0.14614 0.90353 0.80189 0.0
H1141 H 0.20747 0.95223 0.57898 0.0
H1142 H 0.18404 0.94922 0.55359 0.0
H1143 H 0.19246 0.96491 0.62128 0.0
H1144 H 0.12804 0.95106 0.53416 0.0
H1145 H 0.14702 0.98585 0.70728 0.0
H1146 H 0.14391 0.91212 0.59914 0.0
H1147 H 0.159 0.92441 0.53626 0.0
H1148 H 0.13492 0.92182 0.52379 0.0
H1149 H 0.16707 0.95494 0.80383 0.0
H1150 H 0.16686 0.97864 0.7913 0.0
H1151 H 0.18376 0.96826 0.74936 0.0
C1152 C 0.34009 0.99872 0.93292 0.0
C1153 C 0.3506 0.99532 0.99008 0.0
C1154 C 0.32662 0.98508 0.90534 0.0
C1155 C 0.32388 0.9675 0.93458 0.0
C1156 C 0.33477 0.96384 0.99112 0.0
C1157 C 0.34786 0.97787 0.0188 0.0
C1158 C 0.31503 0.98962 0.84604 0.0
C1159 C 0.33252 0.94515 0.02261 0.0
C1160 C 0.27785 0.93721 0.91192 0.0
C1161 C 0.28077 0.92669 0.85411 0.0
C1162 C 0.29176 0.95054 0.93851 0.0
C1163 C 0.30915 0.95313 0.90759 0.0
C1164 C 0.3123 0.94231 0.85006 0.0
C1165 C 0.29799 0.92936 0.8234 0.0
C1166 C 0.28775 0.96208 -0.00109 0.0
C1167 C 0.33077 0.94441 0.81676 0.0
H1168 H 0.34207 0.01222 0.91076 0.0
H1169 H 0.35605 0.97514 0.06261 0.0
H1170 H 0.31602 0.9807 0.80069 0.0
H1171 H 0.30062 0.98717 0.86244 0.0
H1172 H 0.31899 0.00393 0.82889 0.0
H1173 H 0.34279 0.94429 0.06346 0.0
H1174 H 0.31887 0.94133 0.04624 0.0
H1175 H 0.33359 0.93506 0.98132 0.0
H1176 H 0.26452 0.93528 0.93557 0.0
H1177 H 0.30034 0.92116 0.77905 0.0
H1178 H 0.29056 0.97656 0.9835 0.0
H1179 H 0.29672 0.96061 0.04362 0.0
H1180 H 0.27347 0.95843 0.01664 0.0
H1181 H 0.33475 0.9582 0.7945 0.0
H1182 H 0.33118 0.93438 0.77453 0.0
H1183 H 0.34101 0.94282 0.85678 0.0
C1184 C 0.70328 0.92662 0.93833 0.0
C1185 C 0.69924 0.91395 0.88418 0.0
C1186 C 0.69088 0.93735 0.95894 0.0
C1187 C 0.6739 0.93526 0.92511 0.0
C1188 C 0.66949 0.92214 0.87175 0.0
C1189 C 0.6823 0.91173 0.85143 0.0
C1190 C 0.69625 0.95139 0.01528 0.0
C1191 C 0.65141 0.91936 0.83525 0.0
C1192 C 0.6388 0.95677 0.01932 0.0
C1193 C 0.64046 0.97336 0.98416 0.0
C1194 C 0.64903 0.94384 -0.00121 0.0
C1195 C 0.66141 0.94775 0.94262 0.0
C1196 C 0.66286 0.96432 0.90617 0.0
C1197 C 0.65232 0.97685 0.92713 0.0
C1198 C 0.64693 0.92619 0.03819 0.0
C1199 C 0.67609 0.96915 0.84668 0.0
H1200 H 0.71641 0.92861 0.96336 0.0
H1201 H 0.67906 0.90189 0.80981 0.0
H1202 H 0.69675 0.96512 0.99324 0.0
H1203 H 0.68601 0.94951 0.05765 0.0
H1204 H 0.70967 0.9508 0.03832 0.0
H1205 H 0.64949 0.90762 0.79904 0.0
H1206 H 0.64028 0.9172 0.87416 0.0
H1207 H 0.65026 0.93166 0.80498 0.0
H1208 H 0.62958 0.95392 0.06314 0.0
H1209 H 0.65383 0.98969 0.90001 0.0
H1210 H 0.65961 0.92557 0.06685 0.0
H1211 H 0.64452 0.91462 0.00126 0.0
H1212 H 0.6356 0.92452 0.07629 0.0
H1213 H 0.69013 0.97018 0.8663 0.0
H1214 H 0.67494 0.9822 0.82159 0.0
H1215 H 0.67386 0.95838 0.80641 0.0
C1216 C 0.77852 0.93462 0.69758 0.0
C1217 C 0.78182 0.92417 0.75508 0.0
C1218 C 0.79224 0.94793 0.66958 0.0
C1219 C 0.80982 0.95055 0.69866 0.0
C1220 C 0.81336 0.93977 0.75575 0.0
C1221 C 0.79923 0.92685 0.78396 0.0
C1222 C 0.78779 0.95943 0.60979 0.0
C1223 C 0.83206 0.9419 0.787 0.0
C1224 C 0.84733 0.97574 0.58286 0.0
C1225 C 0.85004 0.99318 0.61157 0.0
C1226 C 0.83473 0.96154 0.61225 0.0
C1227 C 0.82429 0.96502 0.67047 0.0
C1228 C 0.82703 0.98259 0.69975 0.0
C1229 C 0.84004 0.9964 0.67047 0.0
C1230 C 0.83247 0.94286 0.58067 0.0
C1231 C 0.81587 0.98696 0.76074 0.0
H1232 H 0.76504 0.9327 0.67536 0.0
H1233 H 0.80186 0.9187 0.82806 0.0
H1234 H 0.79062 0.97391 0.62517 0.0
H1235 H 0.79648 0.95801 0.56414 0.0
H1236 H 0.7734 0.95572 0.59344 0.0
H1237 H 0.8328 0.9318 0.82869 0.0
H1238 H 0.84204 0.94043 0.74575 0.0
H1239 H 0.83613 0.95565 0.80946 0.0
H1240 H 0.85516 0.97316 0.53772 0.0
H1241 H 0.84201 0.00989 0.69263 0.0
H1242 H 0.81872 0.93893 0.55813 0.0
H1243 H 0.83385 0.93279 0.62167 0.0
H1244 H 0.84255 0.9421 0.53891 0.0
H1245 H 0.80134 0.98445 0.74607 0.0
H1246 H 0.81987 0.00126 0.77799 0.0
H1247 H 0.81727 0.978 0.80555 0.0
C1248 C 0.84652 0.07205 0.42681 0.0
C1249 C 0.85932 0.07601 0.48053 0.0
C1250 C 0.83597 0.08462 0.4063 0.0
C1251 C 0.83852 0.10174 0.43926 0.0
C1252 C 0.85184 0.10608 0.49192 0.0
C1253 C 0.86196 0.09307 0.51253 0.0
C1254 C 0.82167 0.07932 0.35087 0.0
C1255 C 0.85519 0.12435 0.52717 0.0
C1256 C 0.81796 0.13721 0.34333 0.0
C1257 C 0.80156 0.1363 0.37925 0.0
C1258 C 0.83053 0.1266 0.3641 0.0
C1259 C 0.82643 0.11457 0.42123 0.0
C1260 C 0.81007 0.11388 0.45852 0.0
C1261 C 0.79793 0.12486 0.43748 0.0
C1262 C 0.84801 0.12795 0.32397 0.0
C1263 C 0.80504 0.10103 0.51905 0.0
H1264 H 0.84435 0.05887 0.40197 0.0
H1265 H 0.87194 0.09627 0.55364 0.0
H1266 H 0.80809 0.0795 0.37322 0.0
H1267 H 0.8238 0.08923 0.3074 0.0
H1268 H 0.8217 0.06562 0.32925 0.0
H1269 H 0.86699 0.12613 0.56301 0.0
H1270 H 0.85756 0.13529 0.48746 0.0
H1271 H 0.84306 0.12602 0.55758 0.0
H1272 H 0.82094 0.14613 0.29866 0.0
H1273 H 0.7853 0.12403 0.4656 0.0
H1274 H 0.84812 0.11507 0.29602 0.0
H1275 H 0.85969 0.13015 0.36036 0.0
H1276 H 0.84992 0.13913 0.28516 0.0
H1277 H 0.80365 0.08686 0.50053 0.0
H1278 H 0.79214 0.10265 0.5442 0.0
H1279 H 0.81589 0.10323 0.55902 0.0
C1280 C 0.72257 0.11652 0.18969 0.0
C1281 C 0.71925 0.12678 0.24774 0.0
C1282 C 0.70892 0.10312 0.16183 0.0
C1283 C 0.6914 0.1002 0.19166 0.0
C1284 C 0.68781 0.11089 0.24898 0.0
C1285 C 0.70186 0.1239 0.27697 0.0
C1286 C 0.71341 0.09174 0.10174 0.0
C1287 C 0.66918 0.10845 0.28109 0.0
C1288 C 0.65338 0.07402 0.08067 0.0
C1289 C 0.65105 0.05675 0.1108 0.0
C1290 C 0.66614 0.08846 0.10764 0.0
C1291 C 0.6771 0.08539 0.16481 0.0
C1292 C 0.67483 0.06795 0.19518 0.0
C1293 C 0.66168 0.05391 0.16836 0.0
C1294 C 0.6679 0.10697 0.07498 0.0
C1295 C 0.68654 0.06402 0.25512 0.0
H1296 H 0.73603 0.11861 0.16715 0.0
H1297 H 0.6992 0.13191 0.32147 0.0
H1298 H 0.71118 0.0773 0.11765 0.0
H1299 H 0.70432 0.09272 0.05694 0.0
H1300 H 0.72765 0.09589 0.08396 0.0
H1301 H 0.6683 0.11868 0.32212 0.0
H1302 H 0.65897 0.10943 0.24019 0.0
H1303 H 0.66554 0.09478 0.3047 0.0
H1304 H 0.64508 0.07629 0.03653 0.0
H1305 H 0.66001 0.04055 0.19155 0.0
H1306 H 0.68159 0.11115 0.05204 0.0
H1307 H 0.66631 0.1171 0.1155 0.0
H1308 H 0.65769 0.10733 0.03337 0.0
H1309 H 0.70099 0.067 0.23928 0.0
H1310 H 0.68309 0.0497 0.27261 0.0
H1311 H 0.68505 0.0729 0.3001 0.0
C1312 C 0.81888 0.63663 0.76333 0.0
C1313 C 0.80258 0.6361 0.7272 0.0
C1314 C 0.83174 0.62665 0.73985 0.0
C1315 C 0.828 0.61559 0.6798 0.0
C1316 C 0.8118 0.61541 0.6421 0.0
C1317 C 0.7994 0.62579 0.66584 0.0
C1318 C 0.84907 0.62752 0.78044 0.0
C1319 C 0.80713 0.60355 0.57856 0.0
C1320 C 0.86408 0.59515 0.5866 0.0
C1321 C 0.86131 0.57776 0.6159 0.0
C1322 C 0.85378 0.6079 0.60861 0.0
C1323 C 0.84014 0.60295 0.65978 0.0
C1324 C 0.83739 0.58544 0.6897 0.0
C1325 C 0.84812 0.57316 0.66798 0.0
C1326 C 0.85736 0.62658 0.57671 0.0
C1327 C 0.82273 0.57948 0.74333 0.0
H1328 H 0.82152 0.64471 0.81036 0.0
H1329 H 0.78684 0.62527 0.63752 0.0
H1330 H 0.84901 0.61434 0.80651 0.0
H1331 H 0.86088 0.63004 0.74468 0.0
H1332 H 0.85087 0.63828 0.82092 0.0
H1333 H 0.79448 0.60574 0.55288 0.0
H1334 H 0.81829 0.60619 0.53989 0.0
H1335 H 0.80539 0.58911 0.59401 0.0
H1336 H 0.87435 0.59883 0.54676 0.0
H1337 H 0.84583 0.55972 0.69068 0.0
H1338 H 0.85963 0.637 0.6184 0.0
H1339 H 0.84538 0.6287 0.54642 0.0
H1340 H 0.8693 0.62873 0.54146 0.0
H1341 H 0.82473 0.58871 0.78896 0.0
H1342 H 0.82248 0.56545 0.76197 0.0
H1343 H 0.80932 0.58017 0.72059 0.0
C1344 C 0.72146 0.60976 0.89975 0.0
C1345 C 0.7185 0.62151 0.846 0.0
C1346 C 0.70732 0.59657 0.92563 0.0
C1347 C 0.68967 0.59535 0.89823 0.0
C1348 C 0.68655 0.60722 0.84411 0.0
C1349 C 0.70107 0.62005 0.81798 0.0
C1350 C 0.71131 0.58388 0.98218 0.0
C1351 C 0.66783 0.60654 0.81462 0.0
C1352 C 0.65724 0.55074 0.92529 0.0
C1353 C 0.64818 0.55415 0.98647 0.0
C1354 C 0.67053 0.56414 0.89521 0.0
C1355 C 0.67461 0.5815 0.92625 0.0
C1356 C 0.66507 0.58523 0.98665 0.0
C1357 C 0.65211 0.57143 0.01655 0.0
C1358 C 0.68065 0.55951 0.83168 0.0
C1359 C 0.66879 0.6037 0.02035 0.0
H1360 H 0.73494 0.61075 0.92122 0.0
H1361 H 0.69872 0.62921 0.77679 0.0
H1362 H 0.70337 0.58555 0.02972 0.0
H1363 H 0.70716 0.56963 0.96475 0.0
H1364 H 0.72589 0.58627 0.99631 0.0
H1365 H 0.66762 0.61688 0.77339 0.0
H1366 H 0.6626 0.59297 0.7922 0.0
H1367 H 0.65842 0.60875 0.85698 0.0
H1368 H 0.65433 0.53739 0.90189 0.0
H1369 H 0.64503 0.57419 0.06343 0.0
H1370 H 0.69519 0.5606 0.84461 0.0
H1371 H 0.67978 0.56925 0.78894 0.0
H1372 H 0.67535 0.54561 0.81226 0.0
H1373 H 0.68274 0.60652 0.04167 0.0
H1374 H 0.65918 0.60483 0.06345 0.0
H1375 H 0.66789 0.6143 0.98092 0.0
C1376 C 0.63559 0.45477 0.09283 0.0
C1377 C 0.63851 0.47217 0.12205 0.0
C1378 C 0.64591 0.44199 0.11419 0.0
C1379 C 0.65975 0.44692 0.16452 0.0
C1380 C 0.66261 0.46441 0.1946 0.0
C1381 C 0.65183 0.47673 0.17359 0.0
C1382 C 0.6422 0.42332 0.08223 0.0
C1383 C 0.67747 0.47036 0.24732 0.0
C1384 C 0.68182 0.41328 0.2648 0.0
C1385 C 0.6979 0.41394 0.22703 0.0
C1386 C 0.66875 0.4232 0.24296 0.0
C1387 C 0.67208 0.43435 0.18296 0.0
C1388 C 0.68806 0.43466 0.14364 0.0
C1389 C 0.70067 0.42432 0.16572 0.0
C1390 C 0.65165 0.42218 0.28521 0.0
C1391 C 0.69231 0.44662 0.0801 0.0
H1392 H 0.62521 0.45113 0.05341 0.0
H1393 H 0.65425 0.49018 0.19617 0.0
H1394 H 0.65396 0.42132 0.05027 0.0
H1395 H 0.64035 0.41287 0.12385 0.0
H1396 H 0.62998 0.42111 0.0485 0.0
H1397 H 0.67769 0.48433 0.26663 0.0
H1398 H 0.67577 0.46102 0.29263 0.0
H1399 H 0.6908 0.46986 0.22339 0.0
H1400 H 0.67951 0.40514 0.31181 0.0
H1401 H 0.71306 0.42494 0.13619 0.0
H1402 H 0.63963 0.41965 0.25051 0.0
H1403 H 0.65178 0.4353 0.31178 0.0
H1404 H 0.65014 0.41136 0.32542 0.0
H1405 H 0.68096 0.44392 0.04232 0.0
H1406 H 0.70487 0.4446 0.05327 0.0
H1407 H 0.69398 0.46103 0.09586 0.0
C1408 C 0.77966 0.44272 0.38283 0.0
C1409 C 0.78276 0.42921 0.33652 0.0
C1410 C 0.79398 0.45583 0.40773 0.0
C1411 C 0.81192 0.45513 0.38739 0.0
C1412 C 0.81515 0.44155 0.34033 0.0
C1413 C 0.80046 0.42887 0.31457 0.0
C1414 C 0.7899 0.47038 0.45623 0.0
C1415 C 0.83413 0.44016 0.31871 0.0
C1416 C 0.8463 0.49851 0.41188 0.0
C1417 C 0.85333 0.4959 0.47821 0.0
C1418 C 0.83322 0.48513 0.38068 0.0
C1419 C 0.82718 0.4686 0.41619 0.0
C1420 C 0.83472 0.46558 0.48189 0.0
C1421 C 0.8476 0.47932 0.5124 0.0
C1422 C 0.82534 0.48899 0.31105 0.0
C1423 C 0.82881 0.44799 0.52079 0.0
H1424 H 0.76595 0.44307 0.39939 0.0
H1425 H 0.80286 0.41832 0.27924 0.0
H1426 H 0.7963 0.46923 0.50776 0.0
H1427 H 0.79569 0.48396 0.43492 0.0
H1428 H 0.77513 0.46952 0.46424 0.0
H1429 H 0.83433 0.42896 0.28109 0.0
H1430 H 0.84101 0.45303 0.29456 0.0
H1431 H 0.84211 0.43786 0.36545 0.0
H1432 H 0.85063 0.51127 0.38495 0.0
H1433 H 0.85308 0.47712 0.56332 0.0
H1434 H 0.81081 0.48961 0.31763 0.0
H1435 H 0.82612 0.47794 0.27355 0.0
H1436 H 0.83238 0.50199 0.28805 0.0
H1437 H 0.81448 0.44669 0.53717 0.0
H1438 H 0.83717 0.44711 0.56799 0.0
H1439 H 0.82965 0.43635 0.48619 0.0
C1440 C 0.15115 0.47565 0.42501 0.0
C1441 C 0.13898 0.47219 0.48103 0.0
C1442 C 0.16136 0.46288 0.40375 0.0
C1443 C 0.15938 0.44614 0.4393 0.0
C1444 C 0.14675 0.4423 0.49474 0.0
C1445 C 0.13679 0.45546 0.51543 0.0
C1446 C 0.17489 0.46768 0.3452 0.0
C1447 C 0.14415 0.42451 0.53331 0.0
C1448 C 0.18059 0.41065 0.3462 0.0
C1449 C 0.19751 0.41288 0.37912 0.0
C1450 C 0.1676 0.42075 0.36748 0.0
C1451 C 0.17178 0.43353 0.42214 0.0
C1452 C 0.18868 0.43553 0.45648 0.0
C1453 C 0.20128 0.42517 0.43471 0.0
C1454 C 0.14963 0.41812 0.33022 0.0
C1455 C 0.19381 0.4492 0.51428 0.0
H1456 H 0.15329 0.4887 0.39935 0.0
H1457 H 0.12737 0.45271 0.55868 0.0
H1458 H 0.18881 0.46856 0.36578 0.0
H1459 H 0.17275 0.45698 0.30463 0.0
H1460 H 0.17398 0.4808 0.32018 0.0
H1461 H 0.13258 0.42289 0.57034 0.0
H1462 H 0.14181 0.41307 0.49579 0.0
H1463 H 0.15659 0.4236 0.56306 0.0
H1464 H 0.17754 0.40111 0.30351 0.0
H1465 H 0.21438 0.42717 0.46 0.0
H1466 H 0.14868 0.43047 0.29989 0.0
H1467 H 0.13837 0.41603 0.3686 0.0
H1468 H 0.14774 0.40641 0.2939 0.0
H1469 H 0.19468 0.46308 0.49319 0.0
H1470 H 0.20701 0.44828 0.5385 0.0
H1471 H 0.18328 0.44724 0.55557 0.0
C1472 C 0.27658 0.43276 0.18006 0.0
C1473 C 0.2799 0.42408 0.24227 0.0
C1474 C 0.28996 0.44598 0.14951 0.0
C1475 C 0.30721 0.4504 0.18118 0.0
C1476 C 0.31085 0.44128 0.24274 0.0
C1477 C 0.29707 0.42835 0.27304 0.0
C1478 C 0.28541 0.45565 0.08472 0.0
C1479 C 0.32921 0.44539 0.27722 0.0
C1480 C 0.34584 0.47686 0.07309 0.0
C1481 C 0.34694 0.49438 0.09984 0.0
C1482 C 0.3331 0.4623 0.09959 0.0
C1483 C 0.32097 0.46548 0.15273 0.0
C1484 C 0.32179 0.48323 0.17863 0.0
C1485 C 0.33489 0.4974 0.15243 0.0
C1486 C 0.33281 0.44349 0.07165 0.0
C1487 C 0.30882 0.48728 0.23401 0.0
H1488 H 0.26332 0.42958 0.15604 0.0
H1489 H 0.29977 0.42156 0.3207 0.0
H1490 H 0.28625 0.47024 0.09636 0.0
H1491 H 0.29534 0.4547 0.04274 0.0
H1492 H 0.27162 0.45006 0.06482 0.0
H1493 H 0.33032 0.43605 0.32125 0.0
H1494 H 0.33996 0.44442 0.23854 0.0
H1495 H 0.3318 0.45946 0.29745 0.0
H1496 H 0.35523 0.47446 0.03283 0.0
H1497 H 0.3356 0.51095 0.17289 0.0
H1498 H 0.31934 0.43792 0.04908 0.0
H1499 H 0.33511 0.43438 0.11491 0.0
H1500 H 0.34328 0.44326 0.03091 0.0
H1501 H 0.29465 0.48282 0.21607 0.0
H1502 H 0.31093 0.50192 0.24699 0.0
H1503 H 0.31047 0.47965 0.28235 0.0
C1504 C 0.29924 0.62387 0.91254 0.0
C1505 C 0.30414 0.63664 0.85921 0.0
C1506 C 0.31142 0.61339 0.93735 0.0
C1507 C 0.32913 0.616 0.90932 0.0
C1508 C 0.33441 0.6293 0.85715 0.0
C1509 C 0.32176 0.63933 0.832 0.0
C1510 C 0.3051 0.59907 0.99187 0.0
C1511 C 0.3533 0.63274 0.82721 0.0
C1512 C 0.36218 0.59475 0.01666 0.0
C1513 C 0.36177 0.5784 0.98103 0.0
C1514 C 0.35234 0.60761 0.99199 0.0
C1515 C 0.34153 0.6038 0.93128 0.0
C1516 C 0.34142 0.5875 0.89433 0.0
C1517 C 0.35165 0.57512 0.91923 0.0
C1518 C 0.35312 0.62505 0.0318 0.0
C1519 C 0.32983 0.58273 0.83015 0.0
H1520 H 0.28563 0.62167 0.9337 0.0
H1521 H 0.32568 0.64931 0.79129 0.0
H1522 H 0.30571 0.5855 0.97034 0.0
H1523 H 0.31416 0.60119 0.03798 0.0
H1524 H 0.29104 0.59906 0.0095 0.0
H1525 H 0.35577 0.64465 0.79183 0.0
H1526 H 0.36344 0.63498 0.86991 0.0
H1527 H 0.35554 0.62071 0.79747 0.0
H1528 H 0.3701 0.59746 0.06404 0.0
H1529 H 0.3512 0.56251 0.8913 0.0
H1530 H 0.33982 0.62518 0.05658 0.0
H1531 H 0.35596 0.63678 0.99567 0.0
H1532 H 0.36364 0.62685 0.07319 0.0
H1533 H 0.31533 0.58134 0.8444 0.0
H1534 H 0.33189 0.56989 0.80569 0.0
H1535 H 0.33286 0.5937 0.79081 0.0
C1536 C 0.15551 0.57415 0.55514 0.0
C1537 C 0.15427 0.55699 0.58537 0.0
C1538 C 0.16858 0.58888 0.57818 0.0
C1539 C 0.18089 0.58621 0.63138 0.0
C1540 C 0.17996 0.56879 0.6606 0.0
C1541 C 0.16655 0.55446 0.63779 0.0
C1542 C 0.16899 0.60735 0.54677 0.0
C1543 C 0.19309 0.56526 0.71626 0.0
C1544 C 0.22565 0.61859 0.65516 0.0
C1545 C 0.2225 0.62773 0.71648 0.0
C1546 C 0.21205 0.60543 0.62558 0.0
C1547 C 0.19477 0.60153 0.65736 0.0
C1548 C 0.19127 0.61122 0.71762 0.0
C1549 C 0.20524 0.62408 0.74693 0.0
C1550 C 0.21643 0.59514 0.56211 0.0
C1551 C 0.17291 0.60767 0.75223 0.0
H1552 H 0.14595 0.57616 0.51492 0.0
H1553 H 0.16576 0.54117 0.66085 0.0
H1554 H 0.16667 0.61697 0.58819 0.0
H1555 H 0.1825 0.61262 0.52388 0.0
H1556 H 0.15858 0.60714 0.50553 0.0
H1557 H 0.19098 0.55076 0.73148 0.0
H1558 H 0.2072 0.5695 0.69743 0.0
H1559 H 0.19158 0.57338 0.76346 0.0
H1560 H 0.23896 0.62131 0.63135 0.0
H1561 H 0.20266 0.63123 0.79386 0.0
H1562 H 0.20632 0.59557 0.52035 0.0
H1563 H 0.21576 0.58071 0.57601 0.0
H1564 H 0.23012 0.60063 0.54098 0.0
H1565 H 0.16216 0.60822 0.71309 0.0
H1566 H 0.17186 0.61758 0.79433 0.0
H1567 H 0.17024 0.59388 0.77517 0.0
C1568 C 0.46213 0.02656 -0.00107 0.0
C1569 C 0.45573 0.03291 0.06105 0.0
C1570 C 0.47998 0.02374 0.99353 0.0
C1571 C 0.49156 0.02703 0.05216 0.0
C1572 C 0.4851 0.03327 0.11532 0.0
C1573 C 0.46726 0.03626 0.11883 0.0
C1574 C 0.48641 0.01723 0.92513 0.0
C1575 C 0.49701 0.03675 0.17915 0.0
C1576 C 0.53224 0.0039 0.05722 0.0
C1577 C 0.54627 0.01807 0.03814 0.0
C1578 C 0.51436 0.00665 0.06254 0.0
C1579 C 0.51046 0.02393 0.04733 0.0
C1580 C 0.52459 0.03823 0.02712 0.0
C1581 C 0.54238 0.03515 0.0233 0.0
C1582 C 0.49968 0.99112 0.08482 0.0
C1583 C 0.52093 0.05678 0.00972 0.0
H1584 H 0.45312 0.02361 0.95462 0.0
H1585 H 0.46232 0.04127 0.16674 0.0
H1586 H 0.4985 0.02686 0.90642 0.0
H1587 H 0.49052 0.00396 0.93264 0.0
H1588 H 0.47584 0.01577 0.884 0.0
H1589 H 0.4898 0.04122 0.2246 0.0
H1590 H 0.50195 0.02426 0.19375 0.0
H1591 H 0.50907 0.0473 0.16756 0.0
H1592 H 0.53531 0.99067 0.06827 0.0
H1593 H 0.5533 0.04615 0.00933 0.0
H1594 H 0.48927 0.9881 0.04334 0.0
H1595 H 0.49283 0.9949 0.13237 0.0
H1596 H 0.50503 0.97862 0.09593 0.0
H1597 H 0.51084 0.05576 0.967 0.0
H1598 H 0.53337 0.06631 0.99341 0.0
H1599 H 0.51508 0.06253 0.05576 0.0
C1600 C 0.23034 0.30533 0.3151 0.0
C1601 C 0.24413 0.31972 0.33427 0.0
C1602 C 0.23346 0.28754 0.31285 0.0
C1603 C 0.25067 0.28407 0.33187 0.0
C1604 C 0.26454 0.29854 0.3526 0.0
C1605 C 0.26116 0.31624 0.35268 0.0
C1606 C 0.21843 0.2725 0.28932 0.0
C1607 C 0.28296 0.29533 0.37439 0.0
C1608 C 0.25313 0.23586 0.3832 0.0
C1609 C 0.26034 0.22954 0.32266 0.0
C1610 C 0.25025 0.25371 0.38749 0.0
C1611 C 0.25423 0.26532 0.3291 0.0
C1612 C 0.26147 0.25897 0.26773 0.0
C1613 C 0.26464 0.2412 0.2656 0.0
C1614 C 0.24283 0.26011 0.45425 0.0
C1615 C 0.26561 0.27085 0.204 0.0
H1616 H 0.21713 0.30805 0.30143 0.0
H1617 H 0.2719 0.32741 0.36661 0.0
H1618 H 0.22291 0.26554 0.2433 0.0
H1619 H 0.21511 0.26225 0.3313 0.0
H1620 H 0.20593 0.27752 0.27524 0.0
H1621 H 0.29197 0.30794 0.39224 0.0
H1622 H 0.28154 0.28524 0.41726 0.0
H1623 H 0.28956 0.28968 0.33 0.0
H1624 H 0.2495 0.22675 0.42693 0.0
H1625 H 0.27034 0.23634 0.21897 0.0
H1626 H 0.22941 0.26368 0.4443 0.0
H1627 H 0.2519 0.27251 0.4734 0.0
H1628 H 0.24131 0.24968 0.496 0.0
H1629 H 0.25318 0.27546 0.18637 0.0
H1630 H 0.2709 0.26373 0.16004 0.0
H1631 H 0.27575 0.28311 0.21704 0.0
C1632 C 0.03094 0.00358 0.50914 0.0
C1633 C 0.0447 0.01739 0.53313 0.0
C1634 C 0.01305 0.0063 0.50378 0.0
C1635 C 0.00892 0.02323 0.52321 0.0
C1636 C 0.02289 0.03734 0.54617 0.0
C1637 C 0.04066 0.03426 0.55044 0.0
C1638 C 0.99853 0.99099 0.47861 0.0
C1639 C 0.01902 0.05555 0.56746 0.0
C1640 C 0.96482 0.03579 0.46271 0.0
C1641 C 0.95393 0.03165 0.52199 0.0
C1642 C 0.98274 0.03298 0.46201 0.0
C1643 C 0.98988 0.02598 0.52226 0.0
C1644 C 0.97889 0.02177 0.58223 0.0
C1645 C 0.96099 0.02457 0.58118 0.0
C1646 C 0.99404 0.03753 0.39701 0.0
C1647 C 0.98603 0.01434 0.64754 0.0
H1648 H 0.03415 0.99055 0.49568 0.0
H1649 H 0.05143 0.04503 0.56779 0.0
H1650 H 0.98852 0.98681 0.52087 0.0
H1651 H 0.99113 0.99554 0.43396 0.0
H1652 H 0.00413 0.97901 0.46214 0.0
H1653 H 0.03149 0.06522 0.5824 0.0
H1654 H 0.01235 0.0615 0.52403 0.0
H1655 H 0.00954 0.0539 0.61241 0.0
H1656 H 0.95934 0.04133 0.41703 0.0
H1657 H 0.95245 0.02103 0.62656 0.0
H1658 H 0.99908 0.02541 0.37855 0.0
H1659 H 0.00605 0.0481 0.40894 0.0
H1660 H 0.98632 0.04247 0.35406 0.0
H1661 H 0.99044 0.00141 0.63563 0.0
H1662 H 0.97575 0.01189 0.68986 0.0
H1663 H 0.99805 0.02393 0.66696 0.0
C1664 C 0.25434 0.73808 0.73734 0.0
C1665 C 0.26068 0.73145 0.79901 0.0
C1666 C 0.25125 0.75585 0.73336 0.0
C1667 C 0.25427 0.76713 0.79294 0.0
C1668 C 0.26055 0.76045 0.85559 0.0
C1669 C 0.26379 0.74269 0.85772 0.0
C1670 C 0.24469 0.76252 0.66548 0.0
C1671 C 0.26376 0.77204 0.92038 0.0
C1672 C 0.26149 0.81801 0.76732 0.0
C1673 C 0.24425 0.82149 0.78214 0.0
C1674 C 0.26493 0.80035 0.77034 0.0
C1675 C 0.25083 0.78592 0.78962 0.0
C1676 C 0.2334 0.78941 0.80503 0.0
C1677 C 0.23029 0.80719 0.8006 0.0
C1678 C 0.28364 0.79712 0.75287 0.0
C1679 C 0.21808 0.7744 0.82632 0.0
H1680 H 0.25156 0.72927 0.69232 0.0
H1681 H 0.26877 0.73757 0.90531 0.0
H1682 H 0.23128 0.76632 0.67329 0.0
H1683 H 0.25415 0.77485 0.64783 0.0
H1684 H 0.24347 0.75219 0.62347 0.0
H1685 H 0.26838 0.76471 0.96518 0.0
H1686 H 0.2741 0.78433 0.90972 0.0
H1687 H 0.25112 0.77662 0.9355 0.0
H1688 H 0.27232 0.82915 0.75383 0.0
H1689 H 0.21694 0.80994 0.81166 0.0
H1690 H 0.28287 0.78732 0.70919 0.0
H1691 H 0.28941 0.79109 0.7984 0.0
H1692 H 0.29302 0.80979 0.73785 0.0
H1693 H 0.21524 0.76419 0.78401 0.0
H1694 H 0.20545 0.77946 0.83805 0.0
H1695 H 0.22198 0.76738 0.87323 0.0
C1696 C 0.76171 0.7405 0.75541 0.0
C1697 C 0.75685 0.72821 0.81018 0.0
C1698 C 0.75886 0.75835 0.76032 0.0
C1699 C 0.75134 0.76413 0.82219 0.0
C1700 C 0.74666 0.75182 0.87811 0.0
C1701 C 0.74925 0.73393 0.87103 0.0
C1702 C 0.76375 0.77099 0.69913 0.0
C1703 C 0.73888 0.75755 0.94531 0.0
C1704 C 0.75957 0.81477 0.85518 0.0
C1705 C 0.74296 0.81906 0.83554 0.0
C1706 C 0.76236 0.79687 0.8526 0.0
C1707 C 0.74831 0.78303 0.8282 0.0
C1708 C 0.73148 0.78731 0.80841 0.0
C1709 C 0.72895 0.80527 0.81314 0.0
C1710 C 0.78038 0.79279 0.87533 0.0
C1711 C 0.71628 0.77297 0.78114 0.0
H1712 H 0.7677 0.7361 0.70853 0.0
H1713 H 0.74519 0.72435 0.91295 0.0
H1714 H 0.75168 0.77628 0.68176 0.0
H1715 H 0.77414 0.78278 0.71502 0.0
H1716 H 0.76904 0.76424 0.65416 0.0
H1717 H 0.73663 0.74653 0.98477 0.0
H1718 H 0.74814 0.76941 0.96775 0.0
H1719 H 0.72579 0.76179 0.93485 0.0
H1720 H 0.7705 0.82548 0.87171 0.0
H1721 H 0.71604 0.8086 0.79861 0.0
H1722 H 0.78717 0.78757 0.83044 0.0
H1723 H 0.77832 0.78208 0.91596 0.0
H1724 H 0.78953 0.80492 0.89647 0.0
H1725 H 0.72084 0.76653 0.73399 0.0
H1726 H 0.70408 0.77857 0.76747 0.0
H1727 H 0.71244 0.76219 0.82078 0.0
C1728 C 0.76289 0.24269 0.38771 0.0
C1729 C 0.75835 0.23145 0.32965 0.0
C1730 C 0.7604 0.26072 0.38682 0.0
C1731 C 0.75327 0.26759 0.32628 0.0
C1732 C 0.74863 0.25623 0.26759 0.0
C1733 C 0.75116 0.23826 0.27015 0.0
C1734 C 0.76545 0.27242 0.45044 0.0
C1735 C 0.741 0.26307 0.20208 0.0
C1736 C 0.7316 0.30918 0.33771 0.0
C1737 C 0.74543 0.32264 0.31168 0.0
C1738 C 0.73408 0.29123 0.34411 0.0
C1739 C 0.75078 0.28672 0.32376 0.0
C1740 C 0.7649 0.30038 0.29862 0.0
C1741 C 0.76207 0.31823 0.2932 0.0
C1742 C 0.71874 0.27704 0.37144 0.0
C1743 C 0.78289 0.29611 0.27641 0.0
H1744 H 0.76851 0.23739 0.43362 0.0
H1745 H 0.74734 0.22945 0.22572 0.0
H1746 H 0.77608 0.28424 0.43669 0.0
H1747 H 0.75353 0.27776 0.46926 0.0
H1748 H 0.77051 0.26491 0.49375 0.0
H1749 H 0.73818 0.25251 0.16092 0.0
H1750 H 0.72826 0.2678 0.21434 0.0
H1751 H 0.75066 0.27482 0.18092 0.0
H1752 H 0.71875 0.31267 0.35203 0.0
H1753 H 0.77286 0.32876 0.27422 0.0
H1754 H 0.72339 0.26989 0.41659 0.0
H1755 H 0.71427 0.26676 0.33041 0.0
H1756 H 0.70693 0.28292 0.38795 0.0
H1757 H 0.78898 0.28963 0.32002 0.0
H1758 H 0.79261 0.30838 0.25968 0.0
H1759 H 0.78086 0.28633 0.23246 0.0
C1760 C 0.96793 0.53921 0.63025 0.0
C1761 C 0.95648 0.53374 0.57357 0.0
C1762 C 0.98587 0.53644 0.63009 0.0
C1763 C 0.99233 0.52784 0.5721 0.0
C1764 C 0.98066 0.52206 0.51522 0.0
C1765 C 0.96286 0.52514 0.51659 0.0
C1766 C 0.99796 0.54291 0.6914 0.0
C1767 C 0.98698 0.51268 0.45281 0.0
C1768 C 0.04264 0.53554 0.53334 0.0
C1769 C 0.04727 0.51963 0.55932 0.0
C1770 C 0.02486 0.53854 0.53845 0.0
C1771 C 0.01141 0.52524 0.56991 0.0
C1772 C 0.01611 0.50923 0.59706 0.0
C1773 C 0.03406 0.50666 0.59173 0.0
C1774 C 0.02042 0.55587 0.50959 0.0
C1775 C 0.00211 0.49468 0.63043 0.0
H1776 H 0.9629 0.54587 0.67424 0.0
H1777 H 0.95385 0.52067 0.4733 0.0
H1778 H 0.00334 0.53146 0.71426 0.0
H1779 H 0.00974 0.5531 0.67362 0.0
H1780 H 0.99076 0.54908 0.73287 0.0
H1781 H 0.97607 0.50862 0.41374 0.0
H1782 H 0.99844 0.52177 0.42708 0.0
H1783 H 0.99199 0.50042 0.46989 0.0
H1784 H 0.05298 0.54568 0.50931 0.0
H1785 H 0.03771 0.49435 0.61165 0.0
H1786 H 0.01419 0.56305 0.55083 0.0
H1787 H 0.01039 0.55273 0.4668 0.0
H1788 H 0.03258 0.56511 0.48906 0.0
H1789 H 0.99534 0.50045 0.67408 0.0
H1790 H 0.00808 0.48329 0.65077 0.0
H1791 H 0.99151 0.48928 0.59169 0.0
C1792 C 0.45718 0.51391 0.05028 0.0
C1793 C 0.45316 0.53074 0.06831 0.0
C1794 C 0.47493 0.51077 0.05467 0.0
C1795 C 0.4889 0.52475 0.07861 0.0
C1796 C 0.48477 0.54161 0.09895 0.0
C1797 C 0.46691 0.54442 0.09334 0.0
C1798 C 0.47879 0.49263 0.03233 0.0
C1799 C 0.49928 0.55678 0.12529 0.0
C1800 C 0.53293 0.51184 0.13837 0.0
C1801 C 0.54391 0.51633 0.07953 0.0
C1802 C 0.515 0.51466 0.1392 0.0
C1803 C 0.50794 0.52197 0.07945 0.0
C1804 C 0.51901 0.52645 0.01983 0.0
C1805 C 0.53691 0.52367 0.02079 0.0
C1806 C 0.50364 0.50982 0.20384 0.0
C1807 C 0.51194 0.53418 0.95499 0.0
H1808 H 0.44643 0.50323 0.03219 0.0
H1809 H 0.46373 0.55743 0.10738 0.0
H1810 H 0.48832 0.49445 0.98753 0.0
H1811 H 0.48541 0.48648 0.07542 0.0
H1812 H 0.46632 0.48304 0.01675 0.0
H1813 H 0.49367 0.56869 0.14268 0.0
H1814 H 0.50663 0.552 0.16959 0.0
H1815 H 0.50933 0.56117 0.08336 0.0
H1816 H 0.53836 0.50607 0.18364 0.0
H1817 H 0.54551 0.52741 0.97569 0.0
H1818 H 0.49162 0.49932 0.19115 0.0
H1819 H 0.4986 0.52186 0.22314 0.0
H1820 H 0.5113 0.50466 0.24645 0.0
H1821 H 0.49992 0.52469 0.93495 0.0
H1822 H 0.52226 0.53679 0.91285 0.0
H1823 H 0.50754 0.54707 0.96771 0.0
loop_
_geom_bond_atom_site_label_1
_geom_bond_atom_site_label_2
_geom_bond_distance
_geom_bond_site_symmetry_2
_ccdc_geom_bond_type
Co0 O3 1.970 1_556 S
Co0 N17 1.989 1_556 S
Co0 O25 1.967 1_556 S
Co0 O32 1.920 . S
Co1 O4 1.966 . S
Co1 N10 2.022 . S
Co1 N18 1.993 . S
Co1 O26 1.941 . S
C2 O3 1.258 . S
C2 O4 1.263 . S
O3 Co0 1.970 1_554 S
O3 C2 1.258 . S
O4 Co1 1.966 . S
O4 C2 1.263 . S
C5 O6 1.235 . S
C5 O32 1.289 . S
O6 C5 1.235 . S
C7 C9 1.400 . S
C7 N10 1.351 . S
C7 C12 1.501 . S
C8 C9 1.387 . S
C8 N11 1.341 . S
C9 C7 1.400 . S
C9 C8 1.387 . S
N10 Co1 2.022 . S
N10 C7 1.351 . S
N10 N11 1.365 . S
N11 C8 1.341 . S
N11 N10 1.365 . S
N11 H31 0.862 . S
C12 C7 1.501 . S
C12 H13 0.961 . S
C12 H14 0.961 . S
C12 H15 0.960 . S
H13 C12 0.961 . S
H14 C12 0.961 . S
H15 C12 0.960 . S
C16 N17 1.342 . S
C16 C20 1.401 . S
C16 C21 1.499 1_554 S
N17 Co0 1.989 1_554 S
N17 C16 1.342 . S
N17 N18 1.388 . S
N18 Co1 1.993 . S
N18 N17 1.388 . S
N18 C19 1.346 . S
C19 N18 1.346 . S
C19 C20 1.396 . S
C19 C29 1.510 . S
C20 C16 1.401 . S
C20 C19 1.396 . S
C21 C16 1.499 1_556 S
C21 H22 0.959 . S
C21 H23 0.960 . S
C21 H24 0.961 . S
H22 C21 0.959 . S
H23 C21 0.960 . S
H24 C21 0.961 . S
O25 Co0 1.967 1_554 S
O25 C33 1.258 . S
O26 Co1 1.941 . S
O26 C33 1.266 . S
H27 C29 0.959 . S
H28 C29 0.961 . S
C29 C19 1.510 . S
C29 H27 0.959 . S
C29 H28 0.961 . S
C29 H30 0.960 . S
H30 C29 0.960 . S
H31 N11 0.862 . S
O32 Co0 1.920 . S
O32 C5 1.289 . S
C33 O25 1.258 . S
C33 O26 1.266 . S
Co34 O37 1.970 . S
Co34 N51 1.989 . S
Co34 O59 1.967 . S
Co34 O66 1.920 . S
Co35 O38 1.966 . S
Co35 N44 2.022 . S
Co35 N52 1.993 . S
Co35 O60 1.941 . S
C36 O37 1.258 . S
C36 O38 1.263 . S
O37 Co34 1.970 . S
O37 C36 1.258 . S
O38 Co35 1.966 . S
O38 C36 1.263 . S
C39 O40 1.235 . S
C39 O66 1.289 . S
O40 C39 1.235 . S
C41 C43 1.400 1_554 S
C41 N44 1.351 . S
C41 C46 1.501 . S
C42 C43 1.387 1_554 S
C42 N45 1.341 . S
C43 C41 1.400 1_556 S
C43 C42 1.387 1_556 S
N44 Co35 2.022 . S
N44 C41 1.351 . S
N44 N45 1.365 . S
N45 C42 1.341 . S
N45 N44 1.365 . S
N45 H65 0.862 . S
C46 C41 1.501 . S
C46 H47 0.961 . S
C46 H48 0.961 . S
C46 H49 0.960 . S
H47 C46 0.961 . S
H48 C46 0.961 . S
H49 C46 0.960 . S
C50 N51 1.342 . S
C50 C54 1.401 . S
C50 C55 1.499 . S
N51 Co34 1.989 . S
N51 C50 1.342 . S
N51 N52 1.388 . S
N52 Co35 1.993 . S
N52 N51 1.388 . S
N52 C53 1.346 . S
C53 N52 1.346 . S
C53 C54 1.396 . S
C53 C63 1.510 . S
C54 C50 1.401 . S
C54 C53 1.396 . S
C55 C50 1.499 . S
C55 H56 0.959 . S
C55 H57 0.960 . S
C55 H58 0.961 . S
H56 C55 0.959 . S
H57 C55 0.960 . S
H58 C55 0.961 . S
O59 Co34 1.967 . S
O59 C67 1.258 . S
O60 Co35 1.941 . S
O60 C67 1.266 . S
H61 C63 0.959 . S
H62 C63 0.961 . S
C63 C53 1.510 . S
C63 H61 0.959 . S
C63 H62 0.961 . S
C63 H64 0.960 . S
H64 C63 0.960 . S
H65 N45 0.862 . S
O66 Co34 1.920 . S
O66 C39 1.289 . S
C67 O59 1.258 . S
C67 O60 1.266 . S
Co68 O71 1.970 1_545 S
Co68 N85 1.989 . S
Co68 O93 1.967 . S
Co68 O100 1.920 . S
Co69 O72 1.966 1_545 S
Co69 N78 2.022 . S
Co69 N86 1.993 . S
Co69 O94 1.941 . S
C70 O71 1.258 . S
C70 O72 1.263 . S
O71 Co68 1.970 1_565 S
O71 C70 1.258 . S
O72 Co69 1.966 1_565 S
O72 C70 1.263 . S
C73 O74 1.235 . S
C73 O100 1.289 1_565 S
O74 C73 1.235 . S
C75 C77 1.400 . S
C75 N78 1.351 . S
C75 C80 1.501 1_545 S
C76 C77 1.387 . S
C76 N79 1.341 . S
C77 C75 1.400 . S
C77 C76 1.387 . S
N78 Co69 2.022 . S
N78 C75 1.351 . S
N78 N79 1.365 . S
N79 C76 1.341 . S
N79 N78 1.365 . S
N79 H99 0.862 . S
C80 C75 1.501 1_565 S
C80 H81 0.961 . S
C80 H82 0.961 . S
C80 H83 0.960 . S
H81 C80 0.961 . S
H82 C80 0.961 . S
H83 C80 0.960 . S
C84 N85 1.342 . S
C84 C88 1.401 . S
C84 C89 1.499 . S
N85 Co68 1.989 . S
N85 C84 1.342 . S
N85 N86 1.388 . S
N86 Co69 1.993 . S
N86 N85 1.388 . S
N86 C87 1.346 . S
C87 N86 1.346 . S
C87 C88 1.396 . S
C87 C97 1.510 . S
C88 C84 1.401 . S
C88 C87 1.396 . S
C89 C84 1.499 . S
C89 H90 0.959 . S
C89 H91 0.960 . S
C89 H92 0.961 . S
H90 C89 0.959 . S
H91 C89 0.960 . S
H92 C89 0.961 . S
O93 Co68 1.967 . S
O93 C101 1.258 . S
O94 Co69 1.941 . S
O94 C101 1.266 . S
H95 C97 0.959 . S
H96 C97 0.961 . S
C97 C87 1.510 . S
C97 H95 0.959 . S
C97 H96 0.961 . S
C97 H98 0.960 . S
H98 C97 0.960 . S
H99 N79 0.862 . S
O100 Co68 1.920 . S
O100 C73 1.289 1_545 S
C101 O93 1.258 . S
C101 O94 1.266 . S
Co102 O105 1.970 . S
Co102 N119 1.989 . S
Co102 O127 1.967 . S
Co102 O134 1.920 . S
Co103 O106 1.966 . S
Co103 N112 2.022 . S
Co103 N120 1.993 . S
Co103 O128 1.941 . S
C104 O105 1.258 . S
C104 O106 1.263 . S
O105 Co102 1.970 . S
O105 C104 1.258 . S
O106 Co103 1.966 . S
O106 C104 1.263 . S
C107 O108 1.235 1_554 S
C107 O134 1.289 1_554 S
O108 C107 1.235 1_556 S
C109 C111 1.400 . S
C109 N112 1.351 . S
C109 C114 1.501 . S
C110 C111 1.387 . S
C110 N113 1.341 . S
C111 C109 1.400 . S
C111 C110 1.387 . S
N112 Co103 2.022 . S
N112 C109 1.351 . S
N112 N113 1.365 . S
N113 C110 1.341 . S
N113 N112 1.365 . S
N113 H133 0.862 . S
C114 C109 1.501 . S
C114 H115 0.961 . S
C114 H116 0.961 . S
C114 H117 0.960 . S
H115 C114 0.961 . S
H116 C114 0.961 . S
H117 C114 0.960 . S
C118 N119 1.342 . S
C118 C122 1.401 . S
C118 C123 1.499 . S
N119 Co102 1.989 . S
N119 C118 1.342 . S
N119 N120 1.388 . S
N120 Co103 1.993 . S
N120 N119 1.388 . S
N120 C121 1.346 . S
C121 N120 1.346 . S
C121 C122 1.396 . S
C121 C131 1.510 . S
C122 C118 1.401 . S
C122 C121 1.396 . S
C123 C118 1.499 . S
C123 H124 0.959 . S
C123 H125 0.960 . S
C123 H126 0.961 . S
H124 C123 0.959 . S
H125 C123 0.960 . S
H126 C123 0.961 . S
O127 Co102 1.967 . S
O127 C135 1.258 . S
O128 Co103 1.941 . S
O128 C135 1.266 . S
H129 C131 0.959 . S
H130 C131 0.961 . S
C131 C121 1.510 . S
C131 H129 0.959 . S
C131 H130 0.961 . S
C131 H132 0.960 . S
H132 C131 0.960 . S
H133 N113 0.862 . S
O134 Co102 1.920 . S
O134 C107 1.289 1_556 S
C135 O127 1.258 . S
C135 O128 1.266 . S
Co136 O139 1.970 1_545 S
Co136 N153 1.989 . S
Co136 O161 1.967 . S
Co136 O168 1.920 . S
Co137 O140 1.966 1_545 S
Co137 N146 2.022 . S
Co137 N154 1.993 1_556 S
Co137 O162 1.941 . S
C138 O139 1.258 . S
C138 O140 1.263 1_554 S
O139 Co136 1.970 1_565 S
O139 C138 1.258 . S
O140 Co137 1.966 1_565 S
O140 C138 1.263 1_556 S
C141 O142 1.235 . S
C141 O168 1.289 1_565 S
O142 C141 1.235 . S
C143 C145 1.400 . S
C143 N146 1.351 . S
C143 C148 1.501 1_545 S
C144 C145 1.387 . S
C144 N147 1.341 . S
C145 C143 1.400 . S
C145 C144 1.387 . S
N146 Co137 2.022 . S
N146 C143 1.351 . S
N146 N147 1.365 . S
N147 C144 1.341 . S
N147 N146 1.365 . S
N147 H167 0.862 . S
C148 C143 1.501 1_565 S
C148 H149 0.961 . S
C148 H150 0.961 . S
C148 H151 0.960 . S
H149 C148 0.961 . S
H150 C148 0.961 . S
H151 C148 0.960 . S
C152 N153 1.342 . S
C152 C156 1.401 . S
C152 C157 1.499 . S
N153 Co136 1.989 . S
N153 C152 1.342 . S
N153 N154 1.388 . S
N154 Co137 1.993 1_554 S
N154 N153 1.388 . S
N154 C155 1.346 1_554 S
C155 N154 1.346 1_556 S
C155 C156 1.396 1_556 S
C155 C165 1.510 . S
C156 C152 1.401 . S
C156 C155 1.396 1_554 S
C157 C152 1.499 . S
C157 H158 0.959 . S
C157 H159 0.960 . S
C157 H160 0.961 . S
H158 C157 0.959 . S
H159 C157 0.960 . S
H160 C157 0.961 . S
O161 Co136 1.967 . S
O161 C169 1.258 . S
O162 Co137 1.941 . S
O162 C169 1.266 1_556 S
H163 C165 0.959 . S
H164 C165 0.961 . S
C165 C155 1.510 . S
C165 H163 0.959 . S
C165 H164 0.961 . S
C165 H166 0.960 . S
H166 C165 0.960 . S
H167 N147 0.862 . S
O168 Co136 1.920 . S
O168 C141 1.289 1_545 S
C169 O161 1.258 . S
C169 O162 1.266 1_554 S
Co170 O173 1.970 . S
Co170 N187 1.989 . S
Co170 O195 1.967 . S
Co170 O202 1.920 . S
Co171 O174 1.966 . S
Co171 N180 2.022 1_556 S
Co171 N188 1.993 . S
Co171 O196 1.941 . S
C172 O173 1.258 . S
C172 O174 1.263 . S
O173 Co170 1.970 . S
O173 C172 1.258 . S
O174 Co171 1.966 . S
O174 C172 1.263 . S
C175 O176 1.235 . S
C175 O202 1.289 . S
O176 C175 1.235 . S
C177 C179 1.400 . S
C177 N180 1.351 . S
C177 C182 1.501 . S
C178 C179 1.387 . S
C178 N181 1.341 . S
C179 C177 1.400 . S
C179 C178 1.387 . S
N180 Co171 2.022 1_554 S
N180 C177 1.351 . S
N180 N181 1.365 . S
N181 C178 1.341 . S
N181 N180 1.365 . S
N181 H201 0.862 . S
C182 C177 1.501 . S
C182 H183 0.961 . S
C182 H184 0.961 . S
C182 H185 0.960 . S
H183 C182 0.961 . S
H184 C182 0.961 . S
H185 C182 0.960 . S
C186 N187 1.342 . S
C186 C190 1.401 . S
C186 C191 1.499 . S
N187 Co170 1.989 . S
N187 C186 1.342 . S
N187 N188 1.388 . S
N188 Co171 1.993 . S
N188 N187 1.388 . S
N188 C189 1.346 . S
C189 N188 1.346 . S
C189 C190 1.396 . S
C189 C199 1.510 . S
C190 C186 1.401 . S
C190 C189 1.396 . S
C191 C186 1.499 . S
C191 H192 0.959 . S
C191 H193 0.960 . S
C191 H194 0.961 . S
H192 C191 0.959 . S
H193 C191 0.960 . S
H194 C191 0.961 . S
O195 Co170 1.967 . S
O195 C203 1.258 . S
O196 Co171 1.941 . S
O196 C203 1.266 . S
H197 C199 0.959 . S
H198 C199 0.961 . S
C199 C189 1.510 . S
C199 H197 0.959 . S
C199 H198 0.961 . S
C199 H200 0.960 . S
H200 C199 0.960 . S
H201 N181 0.862 . S
O202 Co170 1.920 . S
O202 C175 1.289 . S
C203 O195 1.258 . S
C203 O196 1.266 . S
Co204 O207 1.970 . S
Co204 N221 1.989 . S
Co204 O229 1.967 . S
Co204 O236 1.920 . S
Co205 O208 1.966 . S
Co205 N214 2.022 . S
Co205 N222 1.993 . S
Co205 O230 1.941 . S
C206 O207 1.258 . S
C206 O208 1.263 . S
O207 Co204 1.970 . S
O207 C206 1.258 . S
O208 Co205 1.966 . S
O208 C206 1.263 . S
C209 O210 1.235 . S
C209 O236 1.289 . S
O210 C209 1.235 . S
C211 C213 1.400 . S
C211 N214 1.351 . S
C211 C216 1.501 . S
C212 C213 1.387 . S
C212 N215 1.341 . S
C213 C211 1.400 . S
C213 C212 1.387 . S
N214 Co205 2.022 . S
N214 C211 1.351 . S
N214 N215 1.365 . S
N215 C212 1.341 . S
N215 N214 1.365 . S
N215 H235 0.862 . S
C216 C211 1.501 . S
C216 H217 0.961 . S
C216 H218 0.961 . S
C216 H219 0.960 . S
H217 C216 0.961 . S
H218 C216 0.961 . S
H219 C216 0.960 . S
C220 N221 1.342 . S
C220 C224 1.401 . S
C220 C225 1.499 . S
N221 Co204 1.989 . S
N221 C220 1.342 . S
N221 N222 1.388 . S
N222 Co205 1.993 . S
N222 N221 1.388 . S
N222 C223 1.346 . S
C223 N222 1.346 . S
C223 C224 1.396 . S
C223 C233 1.510 . S
C224 C220 1.401 . S
C224 C223 1.396 . S
C225 C220 1.499 . S
C225 H226 0.959 . S
C225 H227 0.960 . S
C225 H228 0.961 . S
H226 C225 0.959 . S
H227 C225 0.960 . S
H228 C225 0.961 . S
O229 Co204 1.967 . S
O229 C237 1.258 . S
O230 Co205 1.941 . S
O230 C237 1.266 . S
H231 C233 0.959 . S
H232 C233 0.961 . S
C233 C223 1.510 . S
C233 H231 0.959 . S
C233 H232 0.961 . S
C233 H234 0.960 . S
H234 C233 0.960 . S
H235 N215 0.862 . S
O236 Co204 1.920 . S
O236 C209 1.289 . S
C237 O229 1.258 . S
C237 O230 1.266 . S
Co238 O241 1.970 . S
Co238 N255 1.989 . S
Co238 O263 1.967 . S
Co238 O270 1.920 . S
Co239 O242 1.966 . S
Co239 N248 2.022 . S
Co239 N256 1.993 . S
Co239 O264 1.941 . S
C240 O241 1.258 . S
C240 O242 1.263 . S
O241 Co238 1.970 . S
O241 C240 1.258 . S
O242 Co239 1.966 . S
O242 C240 1.263 . S
C243 O244 1.235 . S
C243 O270 1.289 . S
O244 C243 1.235 . S
C245 C247 1.400 . S
C245 N248 1.351 . S
C245 C250 1.501 . S
C246 C247 1.387 . S
C246 N249 1.341 . S
C247 C245 1.400 . S
C247 C246 1.387 . S
N248 Co239 2.022 . S
N248 C245 1.351 . S
N248 N249 1.365 . S
N249 C246 1.341 . S
N249 N248 1.365 . S
N249 H269 0.862 . S
C250 C245 1.501 . S
C250 H251 0.961 . S
C250 H252 0.961 . S
C250 H253 0.960 . S
H251 C250 0.961 . S
H252 C250 0.961 . S
H253 C250 0.960 . S
C254 N255 1.342 . S
C254 C258 1.401 . S
C254 C259 1.499 . S
N255 Co238 1.989 . S
N255 C254 1.342 . S
N255 N256 1.388 . S
N256 Co239 1.993 . S
N256 N255 1.388 . S
N256 C257 1.346 . S
C257 N256 1.346 . S
C257 C258 1.396 . S
C257 C267 1.510 . S
C258 C254 1.401 . S
C258 C257 1.396 . S
C259 C254 1.499 . S
C259 H260 0.959 . S
C259 H261 0.960 . S
C259 H262 0.961 . S
H260 C259 0.959 . S
H261 C259 0.960 . S
H262 C259 0.961 . S
O263 Co238 1.967 . S
O263 C271 1.258 . S
O264 Co239 1.941 . S
O264 C271 1.266 . S
H265 C267 0.959 . S
H266 C267 0.961 . S
C267 C257 1.510 . S
C267 H265 0.959 . S
C267 H266 0.961 . S
C267 H268 0.960 . S
H268 C267 0.960 . S
H269 N249 0.862 . S
O270 Co238 1.920 . S
O270 C243 1.289 . S
C271 O263 1.258 . S
C271 O264 1.266 . S
Co272 O275 1.970 . S
Co272 N289 1.989 . S
Co272 O297 1.967 . S
Co272 O304 1.920 . S
Co273 O276 1.966 . S
Co273 N282 2.022 . S
Co273 N290 1.993 . S
Co273 O298 1.941 . S
C274 O275 1.258 . S
C274 O276 1.263 . S
O275 Co272 1.970 . S
O275 C274 1.258 . S
O276 Co273 1.966 . S
O276 C274 1.263 . S
C277 O278 1.235 . S
C277 O304 1.289 . S
O278 C277 1.235 . S
C279 C281 1.400 . S
C279 N282 1.351 . S
C279 C284 1.501 . S
C280 C281 1.387 . S
C280 N283 1.341 . S
C281 C279 1.400 . S
C281 C280 1.387 . S
N282 Co273 2.022 . S
N282 C279 1.351 . S
N282 N283 1.365 . S
N283 C280 1.341 . S
N283 N282 1.365 . S
N283 H303 0.862 . S
C284 C279 1.501 . S
C284 H285 0.961 . S
C284 H286 0.961 . S
C284 H287 0.960 . S
H285 C284 0.961 . S
H286 C284 0.961 . S
H287 C284 0.960 . S
C288 N289 1.342 . S
C288 C292 1.401 . S
C288 C293 1.499 . S
N289 Co272 1.989 . S
N289 C288 1.342 . S
N289 N290 1.388 . S
N290 Co273 1.993 . S
N290 N289 1.388 . S
N290 C291 1.346 . S
C291 N290 1.346 . S
C291 C292 1.396 . S
C291 C301 1.510 . S
C292 C288 1.401 . S
C292 C291 1.396 . S
C293 C288 1.499 . S
C293 H294 0.959 . S
C293 H295 0.960 . S
C293 H296 0.961 . S
H294 C293 0.959 . S
H295 C293 0.960 . S
H296 C293 0.961 . S
O297 Co272 1.967 . S
O297 C305 1.258 . S
O298 Co273 1.941 . S
O298 C305 1.266 . S
H299 C301 0.959 . S
H300 C301 0.961 . S
C301 C291 1.510 . S
C301 H299 0.959 . S
C301 H300 0.961 . S
C301 H302 0.960 . S
H302 C301 0.960 . S
H303 N283 0.862 . S
O304 Co272 1.920 . S
O304 C277 1.289 . S
C305 O297 1.258 . S
C305 O298 1.266 . S
Co306 O309 1.970 . S
Co306 N323 1.989 . S
Co306 O331 1.967 . S
Co306 O338 1.920 . S
Co307 O310 1.966 . S
Co307 N316 2.022 . S
Co307 N324 1.993 . S
Co307 O332 1.941 . S
C308 O309 1.258 . S
C308 O310 1.263 . S
O309 Co306 1.970 . S
O309 C308 1.258 . S
O310 Co307 1.966 . S
O310 C308 1.263 . S
C311 O312 1.235 1_554 S
C311 O338 1.289 1_554 S
O312 C311 1.235 1_556 S
C313 C315 1.400 . S
C313 N316 1.351 . S
C313 C318 1.501 . S
C314 C315 1.387 . S
C314 N317 1.341 . S
C315 C313 1.400 . S
C315 C314 1.387 . S
N316 Co307 2.022 . S
N316 C313 1.351 . S
N316 N317 1.365 . S
N317 C314 1.341 . S
N317 N316 1.365 . S
N317 H337 0.862 . S
C318 C313 1.501 . S
C318 H319 0.961 . S
C318 H320 0.961 . S
C318 H321 0.960 . S
H319 C318 0.961 . S
H320 C318 0.961 . S
H321 C318 0.960 . S
C322 N323 1.342 . S
C322 C326 1.401 . S
C322 C327 1.499 . S
N323 Co306 1.989 . S
N323 C322 1.342 . S
N323 N324 1.388 . S
N324 Co307 1.993 . S
N324 N323 1.388 . S
N324 C325 1.346 . S
C325 N324 1.346 . S
C325 C326 1.396 . S
C325 C335 1.510 . S
C326 C322 1.401 . S
C326 C325 1.396 . S
C327 C322 1.499 . S
C327 H328 0.959 . S
C327 H329 0.960 . S
C327 H330 0.961 . S
H328 C327 0.959 . S
H329 C327 0.960 . S
H330 C327 0.961 . S
O331 Co306 1.967 . S
O331 C339 1.258 . S
O332 Co307 1.941 . S
O332 C339 1.266 . S
H333 C335 0.959 . S
H334 C335 0.961 . S
C335 C325 1.510 . S
C335 H333 0.959 . S
C335 H334 0.961 . S
C335 H336 0.960 . S
H336 C335 0.960 . S
H337 N317 0.862 . S
O338 Co306 1.920 . S
O338 C311 1.289 1_556 S
C339 O331 1.258 . S
C339 O332 1.266 . S
Co340 O343 1.970 1_556 S
Co340 N357 1.989 1_556 S
Co340 O365 1.967 1_556 S
Co340 O372 1.920 . S
Co341 O344 1.966 . S
Co341 N350 2.022 . S
Co341 N358 1.993 . S
Co341 O366 1.941 . S
C342 O343 1.258 . S
C342 O344 1.263 . S
O343 Co340 1.970 1_554 S
O343 C342 1.258 . S
O344 Co341 1.966 . S
O344 C342 1.263 . S
C345 O346 1.235 . S
C345 O372 1.289 . S
O346 C345 1.235 . S
C347 C349 1.400 . S
C347 N350 1.351 . S
C347 C352 1.501 . S
C348 C349 1.387 . S
C348 N351 1.341 . S
C349 C347 1.400 . S
C349 C348 1.387 . S
N350 Co341 2.022 . S
N350 C347 1.351 . S
N350 N351 1.365 . S
N351 C348 1.341 . S
N351 N350 1.365 . S
N351 H371 0.862 . S
C352 C347 1.501 . S
C352 H353 0.961 . S
C352 H354 0.961 . S
C352 H355 0.960 . S
H353 C352 0.961 . S
H354 C352 0.961 . S
H355 C352 0.960 . S
C356 N357 1.342 . S
C356 C360 1.401 . S
C356 C361 1.499 1_554 S
N357 Co340 1.989 1_554 S
N357 C356 1.342 . S
N357 N358 1.388 . S
N358 Co341 1.993 . S
N358 N357 1.388 . S
N358 C359 1.346 . S
C359 N358 1.346 . S
C359 C360 1.396 . S
C359 C369 1.510 . S
C360 C356 1.401 . S
C360 C359 1.396 . S
C361 C356 1.499 1_556 S
C361 H362 0.959 . S
C361 H363 0.960 . S
C361 H364 0.961 . S
H362 C361 0.959 . S
H363 C361 0.960 . S
H364 C361 0.961 . S
O365 Co340 1.967 1_554 S
O365 C373 1.258 . S
O366 Co341 1.941 . S
O366 C373 1.266 . S
H367 C369 0.959 . S
H368 C369 0.961 . S
C369 C359 1.510 . S
C369 H367 0.959 . S
C369 H368 0.961 . S
C369 H370 0.960 . S
H370 C369 0.960 . S
H371 N351 0.862 . S
O372 Co340 1.920 . S
O372 C345 1.289 . S
C373 O365 1.258 . S
C373 O366 1.266 . S
Co374 O377 1.970 . S
Co374 N391 1.989 . S
Co374 O399 1.967 . S
Co374 O406 1.920 . S
Co375 O378 1.966 . S
Co375 N384 2.022 . S
Co375 N392 1.993 . S
Co375 O400 1.941 . S
C376 O377 1.258 . S
C376 O378 1.263 . S
O377 Co374 1.970 . S
O377 C376 1.258 . S
O378 Co375 1.966 . S
O378 C376 1.263 . S
C379 O380 1.235 . S
C379 O406 1.289 . S
O380 C379 1.235 . S
C381 C383 1.400 1_554 S
C381 N384 1.351 . S
C381 C386 1.501 . S
C382 C383 1.387 1_554 S
C382 N385 1.341 . S
C383 C381 1.400 1_556 S
C383 C382 1.387 1_556 S
N384 Co375 2.022 . S
N384 C381 1.351 . S
N384 N385 1.365 . S
N385 C382 1.341 . S
N385 N384 1.365 . S
N385 H405 0.862 . S
C386 C381 1.501 . S
C386 H387 0.961 . S
C386 H388 0.961 . S
C386 H389 0.960 . S
H387 C386 0.961 . S
H388 C386 0.961 . S
H389 C386 0.960 . S
C390 N391 1.342 . S
C390 C394 1.401 . S
C390 C395 1.499 . S
N391 Co374 1.989 . S
N391 C390 1.342 . S
N391 N392 1.388 . S
N392 Co375 1.993 . S
N392 N391 1.388 . S
N392 C393 1.346 . S
C393 N392 1.346 . S
C393 C394 1.396 . S
C393 C403 1.510 . S
C394 C390 1.401 . S
C394 C393 1.396 . S
C395 C390 1.499 . S
C395 H396 0.959 . S
C395 H397 0.960 . S
C395 H398 0.961 . S
H396 C395 0.959 . S
H397 C395 0.960 . S
H398 C395 0.961 . S
O399 Co374 1.967 . S
O399 C407 1.258 . S
O400 Co375 1.941 . S
O400 C407 1.266 . S
H401 C403 0.959 . S
H402 C403 0.961 . S
C403 C393 1.510 . S
C403 H401 0.959 . S
C403 H402 0.961 . S
C403 H404 0.960 . S
H404 C403 0.960 . S
H405 N385 0.862 . S
O406 Co374 1.920 . S
O406 C379 1.289 . S
C407 O399 1.258 . S
C407 O400 1.266 . S
Co408 O411 1.970 . S
Co408 N425 1.989 . S
Co408 O433 1.967 . S
Co408 O440 1.920 . S
Co409 O412 1.966 . S
Co409 N418 2.022 . S
Co409 N426 1.993 . S
Co409 O434 1.941 . S
C410 O411 1.258 . S
C410 O412 1.263 . S
O411 Co408 1.970 . S
O411 C410 1.258 . S
O412 Co409 1.966 . S
O412 C410 1.263 . S
C413 O414 1.235 . S
C413 O440 1.289 . S
O414 C413 1.235 . S
C415 C417 1.400 . S
C415 N418 1.351 . S
C415 C420 1.501 . S
C416 C417 1.387 . S
C416 N419 1.341 . S
C417 C415 1.400 . S
C417 C416 1.387 . S
N418 Co409 2.022 . S
N418 C415 1.351 . S
N418 N419 1.365 . S
N419 C416 1.341 . S
N419 N418 1.365 . S
N419 H439 0.862 . S
C420 C415 1.501 . S
C420 H421 0.961 . S
C420 H422 0.961 . S
C420 H423 0.960 . S
H421 C420 0.961 . S
H422 C420 0.961 . S
H423 C420 0.960 . S
C424 N425 1.342 . S
C424 C428 1.401 . S
C424 C429 1.499 . S
N425 Co408 1.989 . S
N425 C424 1.342 . S
N425 N426 1.388 . S
N426 Co409 1.993 . S
N426 N425 1.388 . S
N426 C427 1.346 . S
C427 N426 1.346 . S
C427 C428 1.396 . S
C427 C437 1.510 . S
C428 C424 1.401 . S
C428 C427 1.396 . S
C429 C424 1.499 . S
C429 H430 0.959 . S
C429 H431 0.960 . S
C429 H432 0.961 . S
H430 C429 0.959 . S
H431 C429 0.960 . S
H432 C429 0.961 . S
O433 Co408 1.967 . S
O433 C441 1.258 . S
O434 Co409 1.941 . S
O434 C441 1.266 . S
H435 C437 0.959 . S
H436 C437 0.961 . S
C437 C427 1.510 . S
C437 H435 0.959 . S
C437 H436 0.961 . S
C437 H438 0.960 . S
H438 C437 0.960 . S
H439 N419 0.862 . S
O440 Co408 1.920 . S
O440 C413 1.289 . S
C441 O433 1.258 . S
C441 O434 1.266 . S
Co442 O445 1.970 . S
Co442 N459 1.989 . S
Co442 O467 1.967 . S
Co442 O474 1.920 . S
Co443 O446 1.966 . S
Co443 N452 2.022 . S
Co443 N460 1.993 . S
Co443 O468 1.941 . S
C444 O445 1.258 . S
C444 O446 1.263 . S
O445 Co442 1.970 . S
O445 C444 1.258 . S
O446 Co443 1.966 . S
O446 C444 1.263 . S
C447 O448 1.235 . S
C447 O474 1.289 . S
O448 C447 1.235 . S
C449 C451 1.400 . S
C449 N452 1.351 . S
C449 C454 1.501 . S
C450 C451 1.387 . S
C450 N453 1.341 . S
C451 C449 1.400 . S
C451 C450 1.387 . S
N452 Co443 2.022 . S
N452 C449 1.351 . S
N452 N453 1.365 . S
N453 C450 1.341 . S
N453 N452 1.365 . S
N453 H473 0.862 . S
C454 C449 1.501 . S
C454 H455 0.961 . S
C454 H456 0.961 . S
C454 H457 0.960 . S
H455 C454 0.961 . S
H456 C454 0.961 . S
H457 C454 0.960 . S
C458 N459 1.342 . S
C458 C462 1.401 . S
C458 C463 1.499 . S
N459 Co442 1.989 . S
N459 C458 1.342 . S
N459 N460 1.388 . S
N460 Co443 1.993 . S
N460 N459 1.388 . S
N460 C461 1.346 . S
C461 N460 1.346 . S
C461 C462 1.396 . S
C461 C471 1.510 . S
C462 C458 1.401 . S
C462 C461 1.396 . S
C463 C458 1.499 . S
C463 H464 0.959 . S
C463 H465 0.960 . S
C463 H466 0.961 . S
H464 C463 0.959 . S
H465 C463 0.960 . S
H466 C463 0.961 . S
O467 Co442 1.967 . S
O467 C475 1.258 . S
O468 Co443 1.941 . S
O468 C475 1.266 . S
H469 C471 0.959 . S
H470 C471 0.961 . S
C471 C461 1.510 . S
C471 H469 0.959 . S
C471 H470 0.961 . S
C471 H472 0.960 . S
H472 C471 0.960 . S
H473 N453 0.862 . S
O474 Co442 1.920 . S
O474 C447 1.289 . S
C475 O467 1.258 . S
C475 O468 1.266 . S
Co476 O479 1.970 . S
Co476 N493 1.989 . S
Co476 O501 1.967 . S
Co476 O508 1.920 . S
Co477 O480 1.966 . S
Co477 N486 2.022 . S
Co477 N494 1.993 1_556 S
Co477 O502 1.941 . S
C478 O479 1.258 . S
C478 O480 1.263 1_554 S
O479 Co476 1.970 . S
O479 C478 1.258 . S
O480 Co477 1.966 . S
O480 C478 1.263 1_556 S
C481 O482 1.235 . S
C481 O508 1.289 . S
O482 C481 1.235 . S
C483 C485 1.400 . S
C483 N486 1.351 . S
C483 C488 1.501 . S
C484 C485 1.387 . S
C484 N487 1.341 . S
C485 C483 1.400 . S
C485 C484 1.387 . S
N486 Co477 2.022 . S
N486 C483 1.351 . S
N486 N487 1.365 . S
N487 C484 1.341 . S
N487 N486 1.365 . S
N487 H507 0.862 . S
C488 C483 1.501 . S
C488 H489 0.961 . S
C488 H490 0.961 . S
C488 H491 0.960 . S
H489 C488 0.961 . S
H490 C488 0.961 . S
H491 C488 0.960 . S
C492 N493 1.342 . S
C492 C496 1.401 . S
C492 C497 1.499 . S
N493 Co476 1.989 . S
N493 C492 1.342 . S
N493 N494 1.388 . S
N494 Co477 1.993 1_554 S
N494 N493 1.388 . S
N494 C495 1.346 1_554 S
C495 N494 1.346 1_556 S
C495 C496 1.396 1_556 S
C495 C505 1.510 . S
C496 C492 1.401 . S
C496 C495 1.396 1_554 S
C497 C492 1.499 . S
C497 H498 0.959 . S
C497 H499 0.960 . S
C497 H500 0.961 . S
H498 C497 0.959 . S
H499 C497 0.960 . S
H500 C497 0.961 . S
O501 Co476 1.967 . S
O501 C509 1.258 . S
O502 Co477 1.941 . S
O502 C509 1.266 1_556 S
H503 C505 0.959 . S
H504 C505 0.961 . S
C505 C495 1.510 . S
C505 H503 0.959 . S
C505 H504 0.961 . S
C505 H506 0.960 . S
H506 C505 0.960 . S
H507 N487 0.862 . S
O508 Co476 1.920 . S
O508 C481 1.289 . S
C509 O501 1.258 . S
C509 O502 1.266 1_554 S
Co510 O513 1.970 . S
Co510 N527 1.989 . S
Co510 O535 1.967 . S
Co510 O542 1.920 . S
Co511 O514 1.966 . S
Co511 N520 2.022 1_556 S
Co511 N528 1.993 . S
Co511 O536 1.941 . S
C512 O513 1.258 . S
C512 O514 1.263 . S
O513 Co510 1.970 . S
O513 C512 1.258 . S
O514 Co511 1.966 . S
O514 C512 1.263 . S
C515 O516 1.235 . S
C515 O542 1.289 . S
O516 C515 1.235 . S
C517 C519 1.400 . S
C517 N520 1.351 . S
C517 C522 1.501 . S
C518 C519 1.387 . S
C518 N521 1.341 . S
C519 C517 1.400 . S
C519 C518 1.387 . S
N520 Co511 2.022 1_554 S
N520 C517 1.351 . S
N520 N521 1.365 . S
N521 C518 1.341 . S
N521 N520 1.365 . S
N521 H541 0.862 . S
C522 C517 1.501 . S
C522 H523 0.961 . S
C522 H524 0.961 . S
C522 H525 0.960 . S
H523 C522 0.961 . S
H524 C522 0.961 . S
H525 C522 0.960 . S
C526 N527 1.342 . S
C526 C530 1.401 . S
C526 C531 1.499 . S
N527 Co510 1.989 . S
N527 C526 1.342 . S
N527 N528 1.388 . S
N528 Co511 1.993 . S
N528 N527 1.388 . S
N528 C529 1.346 . S
C529 N528 1.346 . S
C529 C530 1.396 . S
C529 C539 1.510 . S
C530 C526 1.401 . S
C530 C529 1.396 . S
C531 C526 1.499 . S
C531 H532 0.959 . S
C531 H533 0.960 . S
C531 H534 0.961 . S
H532 C531 0.959 . S
H533 C531 0.960 . S
H534 C531 0.961 . S
O535 Co510 1.967 . S
O535 C543 1.258 . S
O536 Co511 1.941 . S
O536 C543 1.266 . S
H537 C539 0.959 . S
H538 C539 0.961 . S
C539 C529 1.510 . S
C539 H537 0.959 . S
C539 H538 0.961 . S
C539 H540 0.960 . S
H540 C539 0.960 . S
H541 N521 0.862 . S
O542 Co510 1.920 . S
O542 C515 1.289 . S
C543 O535 1.258 . S
C543 O536 1.266 . S
C544 C545 1.391 . S
C544 C546 1.394 . S
C544 H560 0.931 . S
C545 C544 1.391 . S
C545 C549 1.376 . S
C546 C544 1.394 . S
C546 C547 1.369 . S
C546 C550 1.531 . S
C547 C546 1.369 . S
C547 C548 1.410 . S
C547 C555 1.503 . S
C548 C547 1.410 . S
C548 C549 1.392 . S
C548 C551 1.511 . S
C549 C545 1.376 . S
C549 C548 1.392 . S
C549 H561 0.929 . S
C550 C546 1.531 . S
C550 H562 0.960 . S
C550 H563 0.962 . S
C550 H564 0.960 . S
C551 C548 1.511 . S
C551 H565 0.961 . S
C551 H566 0.961 . S
C551 H567 0.961 . S
C552 C553 1.370 . S
C552 C554 1.363 . S
C552 H568 0.931 . S
C553 C552 1.370 . S
C553 C557 1.408 . S
C554 C552 1.363 . S
C554 C555 1.370 . S
C554 C558 1.524 . S
C555 C547 1.503 . S
C555 C554 1.370 . S
C555 C556 1.403 . S
C556 C555 1.403 . S
C556 C557 1.404 . S
C556 C559 1.539 . S
C557 C553 1.408 . S
C557 C556 1.404 . S
C557 H569 0.930 . S
C558 C554 1.524 . S
C558 H570 0.956 . S
C558 H571 0.961 . S
C558 H572 0.961 . S
C559 C556 1.539 . S
C559 H573 0.958 . S
C559 H574 0.961 . S
C559 H575 0.960 . S
H560 C544 0.931 . S
H561 C549 0.929 . S
H562 C550 0.960 . S
H563 C550 0.962 . S
H564 C550 0.960 . S
H565 C551 0.961 . S
H566 C551 0.961 . S
H567 C551 0.961 . S
H568 C552 0.931 . S
H569 C557 0.930 . S
H570 C558 0.956 . S
H571 C558 0.961 . S
H572 C558 0.961 . S
H573 C559 0.958 . S
H574 C559 0.961 . S
H575 C559 0.960 . S
C576 C577 1.391 . S
C576 C578 1.394 . S
C576 H592 0.931 . S
C577 C576 1.391 . S
C577 C581 1.376 . S
C578 C576 1.394 . S
C578 C579 1.369 . S
C578 C582 1.531 . S
C579 C578 1.369 . S
C579 C580 1.410 . S
C579 C587 1.503 . S
C580 C579 1.410 . S
C580 C581 1.392 . S
C580 C583 1.511 . S
C581 C577 1.376 . S
C581 C580 1.392 . S
C581 H593 0.929 . S
C582 C578 1.531 . S
C582 H594 0.960 . S
C582 H595 0.962 . S
C582 H596 0.960 . S
C583 C580 1.511 . S
C583 H597 0.961 . S
C583 H598 0.961 . S
C583 H599 0.961 . S
C584 C585 1.370 . S
C584 C586 1.363 . S
C584 H600 0.931 . S
C585 C584 1.370 . S
C585 C589 1.408 . S
C586 C584 1.363 . S
C586 C587 1.370 . S
C586 C590 1.524 . S
C587 C579 1.503 . S
C587 C586 1.370 . S
C587 C588 1.403 . S
C588 C587 1.403 . S
C588 C589 1.404 . S
C588 C591 1.539 . S
C589 C585 1.408 . S
C589 C588 1.404 . S
C589 H601 0.930 . S
C590 C586 1.524 . S
C590 H602 0.956 . S
C590 H603 0.961 . S
C590 H604 0.961 . S
C591 C588 1.539 . S
C591 H605 0.958 . S
C591 H606 0.961 . S
C591 H607 0.960 . S
H592 C576 0.931 . S
H593 C581 0.929 . S
H594 C582 0.960 . S
H595 C582 0.962 . S
H596 C582 0.960 . S
H597 C583 0.961 . S
H598 C583 0.961 . S
H599 C583 0.961 . S
H600 C584 0.931 . S
H601 C589 0.930 . S
H602 C590 0.956 . S
H603 C590 0.961 . S
H604 C590 0.961 . S
H605 C591 0.958 . S
H606 C591 0.961 . S
H607 C591 0.960 . S
C608 C609 1.391 . S
C608 C610 1.394 . S
C608 H624 0.931 . S
C609 C608 1.391 . S
C609 C613 1.376 1_565 S
C610 C608 1.394 . S
C610 C611 1.369 1_565 S
C610 C614 1.531 . S
C611 C610 1.369 1_545 S
C611 C612 1.410 . S
C611 C619 1.503 . S
C612 C611 1.410 . S
C612 C613 1.392 . S
C612 C615 1.511 . S
C613 C609 1.376 1_545 S
C613 C612 1.392 . S
C613 H625 0.929 . S
C614 C610 1.531 . S
C614 H626 0.960 . S
C614 H627 0.962 . S
C614 H628 0.960 . S
C615 C612 1.511 . S
C615 H629 0.961 . S
C615 H630 0.961 . S
C615 H631 0.961 . S
C616 C617 1.367 . S
C616 C618 1.364 1_546 S
C616 H632 0.933 1_545 S
C617 C616 1.367 . S
C617 C621 1.408 . S
C618 C616 1.364 1_564 S
C618 C619 1.370 1_565 S
C618 C622 1.524 . S
C619 C611 1.503 . S
C619 C618 1.370 1_545 S
C619 C620 1.403 . S
C620 C619 1.403 . S
C620 C621 1.404 1_554 S
C620 C623 1.539 . S
C621 C617 1.408 . S
C621 C620 1.404 1_556 S
C621 H633 0.930 . S
C622 C618 1.524 . S
C622 H634 0.956 . S
C622 H635 0.961 . S
C622 H636 0.961 . S
C623 C620 1.539 . S
C623 H637 0.958 . S
C623 H638 0.961 . S
C623 H639 0.960 . S
H624 C608 0.931 . S
H625 C613 0.929 . S
H626 C614 0.960 . S
H627 C614 0.962 . S
H628 C614 0.960 . S
H629 C615 0.961 . S
H630 C615 0.961 . S
H631 C615 0.961 . S
H632 C616 0.933 1_565 S
H633 C621 0.930 . S
H634 C622 0.956 . S
H635 C622 0.961 . S
H636 C622 0.961 . S
H637 C623 0.958 . S
H638 C623 0.961 . S
H639 C623 0.960 . S
C640 C641 1.391 . S
C640 C642 1.394 . S
C640 H656 0.931 . S
C641 C640 1.391 . S
C641 C645 1.376 . S
C642 C640 1.394 . S
C642 C643 1.369 . S
C642 C646 1.531 . S
C643 C642 1.369 . S
C643 C644 1.410 . S
C643 C651 1.503 . S
C644 C643 1.410 . S
C644 C645 1.392 . S
C644 C647 1.511 . S
C645 C641 1.376 . S
C645 C644 1.392 . S
C645 H657 0.929 . S
C646 C642 1.531 . S
C646 H658 0.960 . S
C646 H659 0.962 . S
C646 H660 0.960 . S
C647 C644 1.511 . S
C647 H661 0.961 . S
C647 H662 0.961 . S
C647 H663 0.961 . S
C648 C649 1.370 . S
C648 C650 1.363 . S
C648 H664 0.931 . S
C649 C648 1.370 . S
C649 C653 1.408 . S
C650 C648 1.363 . S
C650 C651 1.370 . S
C650 C654 1.524 . S
C651 C643 1.503 . S
C651 C650 1.370 . S
C651 C652 1.403 . S
C652 C651 1.403 . S
C652 C653 1.404 . S
C652 C655 1.539 . S
C653 C649 1.408 . S
C653 C652 1.404 . S
C653 H665 0.930 . S
C654 C650 1.524 . S
C654 H666 0.956 . S
C654 H667 0.961 . S
C654 H668 0.961 . S
C655 C652 1.539 . S
C655 H669 0.958 . S
C655 H670 0.961 . S
C655 H671 0.960 . S
H656 C640 0.931 . S
H657 C645 0.929 . S
H658 C646 0.960 . S
H659 C646 0.962 . S
H660 C646 0.960 . S
H661 C647 0.961 . S
H662 C647 0.961 . S
H663 C647 0.961 . S
H664 C648 0.931 . S
H665 C653 0.930 . S
H666 C654 0.956 . S
H667 C654 0.961 . S
H668 C654 0.961 . S
H669 C655 0.958 . S
H670 C655 0.961 . S
H671 C655 0.960 . S
C672 C673 1.391 . S
C672 C674 1.392 1_545 S
C672 H688 0.931 1_545 S
C673 C672 1.391 . S
C673 C677 1.376 . S
C674 C672 1.392 1_565 S
C674 C675 1.364 1_565 S
C674 C678 1.537 . S
C675 C674 1.364 1_545 S
C675 C676 1.410 . S
C675 C683 1.503 . S
C676 C675 1.410 . S
C676 C677 1.392 . S
C676 C679 1.511 . S
C677 C673 1.376 . S
C677 C676 1.392 . S
C677 H689 0.929 . S
C678 C674 1.537 . S
C678 H690 0.960 . S
C678 H691 0.962 . S
C678 H692 0.960 . S
C679 C676 1.511 . S
C679 H693 0.961 . S
C679 H694 0.961 . S
C679 H695 0.961 . S
C680 C681 1.370 . S
C680 C682 1.363 . S
C680 H696 0.931 . S
C681 C680 1.370 . S
C681 C685 1.408 1_565 S
C682 C680 1.363 . S
C682 C683 1.370 1_565 S
C682 C686 1.524 . S
C683 C675 1.503 . S
C683 C682 1.370 1_545 S
C683 C684 1.403 . S
C684 C683 1.403 . S
C684 C685 1.404 . S
C684 C687 1.539 . S
C685 C681 1.408 1_545 S
C685 C684 1.404 . S
C685 H697 0.930 . S
C686 C682 1.524 . S
C686 H698 0.956 . S
C686 H699 0.961 . S
C686 H700 0.961 . S
C687 C684 1.539 . S
C687 H701 0.958 . S
C687 H702 0.961 . S
C687 H703 0.960 . S
H688 C672 0.931 1_565 S
H689 C677 0.929 . S
H690 C678 0.960 . S
H691 C678 0.962 . S
H692 C678 0.960 . S
H693 C679 0.961 . S
H694 C679 0.961 . S
H695 C679 0.961 . S
H696 C680 0.931 . S
H697 C685 0.930 . S
H698 C686 0.956 . S
H699 C686 0.961 . S
H700 C686 0.961 . S
H701 C687 0.958 . S
H702 C687 0.961 . S
H703 C687 0.960 . S
C704 C705 1.391 . S
C704 C706 1.394 . S
C704 H720 0.931 . S
C705 C704 1.391 . S
C705 C709 1.376 . S
C706 C704 1.394 . S
C706 C707 1.369 . S
C706 C710 1.531 . S
C707 C706 1.369 . S
C707 C708 1.410 . S
C707 C715 1.503 . S
C708 C707 1.410 . S
C708 C709 1.392 . S
C708 C711 1.511 . S
C709 C705 1.376 . S
C709 C708 1.392 . S
C709 H721 0.929 . S
C710 C706 1.531 . S
C710 H722 0.960 . S
C710 H723 0.962 . S
C710 H724 0.960 . S
C711 C708 1.511 . S
C711 H725 0.961 . S
C711 H726 0.961 . S
C711 H727 0.961 . S
C712 C713 1.370 . S
C712 C714 1.363 . S
C712 H728 0.931 . S
C713 C712 1.370 . S
C713 C717 1.408 . S
C714 C712 1.363 . S
C714 C715 1.370 . S
C714 C718 1.524 . S
C715 C707 1.503 . S
C715 C714 1.370 . S
C715 C716 1.403 . S
C716 C715 1.403 . S
C716 C717 1.404 . S
C716 C719 1.539 . S
C717 C713 1.408 . S
C717 C716 1.404 . S
C717 H729 0.930 . S
C718 C714 1.524 . S
C718 H730 0.956 . S
C718 H731 0.961 . S
C718 H732 0.961 . S
C719 C716 1.539 . S
C719 H733 0.958 . S
C719 H734 0.961 . S
C719 H735 0.960 . S
H720 C704 0.931 . S
H721 C709 0.929 . S
H722 C710 0.960 . S
H723 C710 0.962 . S
H724 C710 0.960 . S
H725 C711 0.961 . S
H726 C711 0.961 . S
H727 C711 0.961 . S
H728 C712 0.931 . S
H729 C717 0.930 . S
H730 C718 0.956 . S
H731 C718 0.961 . S
H732 C718 0.961 . S
H733 C719 0.958 . S
H734 C719 0.961 . S
H735 C719 0.960 . S
C736 C737 1.391 . S
C736 C738 1.394 . S
C736 H752 0.931 . S
C737 C736 1.391 . S
C737 C741 1.376 . S
C738 C736 1.394 . S
C738 C739 1.369 . S
C738 C742 1.531 . S
C739 C738 1.369 . S
C739 C740 1.410 . S
C739 C747 1.503 1_554 S
C740 C739 1.410 . S
C740 C741 1.392 . S
C740 C743 1.511 . S
C741 C737 1.376 . S
C741 C740 1.392 . S
C741 H753 0.929 . S
C742 C738 1.531 . S
C742 H754 0.960 1_554 S
C742 H755 0.962 . S
C742 H756 0.960 . S
C743 C740 1.511 . S
C743 H757 0.961 . S
C743 H758 0.961 . S
C743 H759 0.961 . S
C744 C745 1.370 . S
C744 C746 1.363 . S
C744 H760 0.931 . S
C745 C744 1.370 . S
C745 C749 1.408 . S
C746 C744 1.363 . S
C746 C747 1.370 . S
C746 C750 1.524 . S
C747 C739 1.503 1_556 S
C747 C746 1.370 . S
C747 C748 1.403 . S
C748 C747 1.403 . S
C748 C749 1.404 . S
C748 C751 1.539 . S
C749 C745 1.408 . S
C749 C748 1.404 . S
C749 H761 0.930 . S
C750 C746 1.524 . S
C750 H762 0.956 1_556 S
C750 H763 0.961 1_556 S
C750 H764 0.961 . S
C751 C748 1.539 . S
C751 H765 0.958 . S
C751 H766 0.961 . S
C751 H767 0.960 . S
H752 C736 0.931 . S
H753 C741 0.929 . S
H754 C742 0.960 1_556 S
H755 C742 0.962 . S
H756 C742 0.960 . S
H757 C743 0.961 . S
H758 C743 0.961 . S
H759 C743 0.961 . S
H760 C744 0.931 . S
H761 C749 0.930 . S
H762 C750 0.956 1_554 S
H763 C750 0.961 1_554 S
H764 C750 0.961 . S
H765 C751 0.958 . S
H766 C751 0.961 . S
H767 C751 0.960 . S
C768 C769 1.391 . S
C768 C770 1.394 . S
C768 H784 0.931 . S
C769 C768 1.391 . S
C769 C773 1.376 . S
C770 C768 1.394 . S
C770 C771 1.369 . S
C770 C774 1.531 . S
C771 C770 1.369 . S
C771 C772 1.410 . S
C771 C779 1.503 . S
C772 C771 1.410 . S
C772 C773 1.392 . S
C772 C775 1.511 . S
C773 C769 1.376 . S
C773 C772 1.392 . S
C773 H785 0.929 . S
C774 C770 1.531 . S
C774 H786 0.960 . S
C774 H787 0.962 . S
C774 H788 0.960 . S
C775 C772 1.511 . S
C775 H789 0.961 . S
C775 H790 0.961 . S
C775 H791 0.961 . S
C776 C777 1.370 1_556 S
C776 C778 1.363 . S
C776 H792 0.931 1_556 S
C777 C776 1.370 1_554 S
C777 C781 1.408 . S
C778 C776 1.363 . S
C778 C779 1.370 . S
C778 C782 1.524 . S
C779 C771 1.503 . S
C779 C778 1.370 . S
C779 C780 1.403 . S
C780 C779 1.403 . S
C780 C781 1.404 1_556 S
C780 C783 1.539 . S
C781 C777 1.408 . S
C781 C780 1.404 1_554 S
C781 H793 0.930 . S
C782 C778 1.524 . S
C782 H794 0.956 . S
C782 H795 0.961 . S
C782 H796 0.961 . S
C783 C780 1.539 . S
C783 H797 0.958 . S
C783 H798 0.961 . S
C783 H799 0.960 . S
H784 C768 0.931 . S
H785 C773 0.929 . S
H786 C774 0.960 . S
H787 C774 0.962 . S
H788 C774 0.960 . S
H789 C775 0.961 . S
H790 C775 0.961 . S
H791 C775 0.961 . S
H792 C776 0.931 1_554 S
H793 C781 0.930 . S
H794 C782 0.956 . S
H795 C782 0.961 . S
H796 C782 0.961 . S
H797 C783 0.958 . S
H798 C783 0.961 . S
H799 C783 0.960 . S
C800 C801 1.391 . S
C800 C802 1.394 . S
C800 H816 0.931 . S
C801 C800 1.391 . S
C801 C805 1.376 . S
C802 C800 1.394 . S
C802 C803 1.369 . S
C802 C806 1.531 . S
C803 C802 1.369 . S
C803 C804 1.410 . S
C803 C811 1.503 . S
C804 C803 1.410 . S
C804 C805 1.392 . S
C804 C807 1.511 . S
C805 C801 1.376 . S
C805 C804 1.392 . S
C805 H817 0.929 . S
C806 C802 1.531 . S
C806 H818 0.960 . S
C806 H819 0.962 . S
C806 H820 0.960 . S
C807 C804 1.511 . S
C807 H821 0.961 . S
C807 H822 0.961 . S
C807 H823 0.961 . S
C808 C809 1.370 . S
C808 C810 1.363 1_556 S
C808 H824 0.931 . S
C809 C808 1.370 . S
C809 C813 1.408 . S
C810 C808 1.363 1_554 S
C810 C811 1.370 . S
C810 C814 1.524 . S
C811 C803 1.503 . S
C811 C810 1.370 . S
C811 C812 1.403 . S
C812 C811 1.403 . S
C812 C813 1.404 1_554 S
C812 C815 1.539 . S
C813 C809 1.408 . S
C813 C812 1.404 1_556 S
C813 H825 0.930 . S
C814 C810 1.524 . S
C814 H826 0.956 . S
C814 H827 0.961 . S
C814 H828 0.961 . S
C815 C812 1.539 . S
C815 H829 0.958 . S
C815 H830 0.961 . S
C815 H831 0.960 . S
H816 C800 0.931 . S
H817 C805 0.929 . S
H818 C806 0.960 . S
H819 C806 0.962 . S
H820 C806 0.960 . S
H821 C807 0.961 . S
H822 C807 0.961 . S
H823 C807 0.961 . S
H824 C808 0.931 . S
H825 C813 0.930 . S
H826 C814 0.956 . S
H827 C814 0.961 . S
H828 C814 0.961 . S
H829 C815 0.958 . S
H830 C815 0.961 . S
H831 C815 0.960 . S
C832 C833 1.391 . S
C832 C834 1.394 . S
C832 H848 0.931 . S
C833 C832 1.391 . S
C833 C837 1.376 . S
C834 C832 1.394 . S
C834 C835 1.369 . S
C834 C838 1.531 . S
C835 C834 1.369 . S
C835 C836 1.410 . S
C835 C843 1.503 . S
C836 C835 1.410 . S
C836 C837 1.392 . S
C836 C839 1.511 . S
C837 C833 1.376 . S
C837 C836 1.392 . S
C837 H849 0.929 . S
C838 C834 1.531 . S
C838 H850 0.960 . S
C838 H851 0.962 . S
C838 H852 0.960 . S
C839 C836 1.511 . S
C839 H853 0.961 . S
C839 H854 0.961 . S
C839 H855 0.961 . S
C840 C841 1.370 . S
C840 C842 1.363 . S
C840 H856 0.931 . S
C841 C840 1.370 . S
C841 C845 1.408 . S
C842 C840 1.363 . S
C842 C843 1.370 . S
C842 C846 1.524 . S
C843 C835 1.503 . S
C843 C842 1.370 . S
C843 C844 1.403 . S
C844 C843 1.403 . S
C844 C845 1.404 . S
C844 C847 1.539 . S
C845 C841 1.408 . S
C845 C844 1.404 . S
C845 H857 0.930 . S
C846 C842 1.524 . S
C846 H858 0.956 . S
C846 H859 0.961 . S
C846 H860 0.961 . S
C847 C844 1.539 . S
C847 H861 0.958 . S
C847 H862 0.961 . S
C847 H863 0.960 . S
H848 C832 0.931 . S
H849 C837 0.929 . S
H850 C838 0.960 . S
H851 C838 0.962 . S
H852 C838 0.960 . S
H853 C839 0.961 . S
H854 C839 0.961 . S
H855 C839 0.961 . S
H856 C840 0.931 . S
H857 C845 0.930 . S
H858 C846 0.956 . S
H859 C846 0.961 . S
H860 C846 0.961 . S
H861 C847 0.958 . S
H862 C847 0.961 . S
H863 C847 0.960 . S
C864 C865 1.391 . S
C864 C866 1.394 . S
C864 H880 0.931 . S
C865 C864 1.391 . S
C865 C869 1.376 . S
C866 C864 1.394 . S
C866 C867 1.369 . S
C866 C870 1.531 . S
C867 C866 1.369 . S
C867 C868 1.410 . S
C867 C875 1.503 . S
C868 C867 1.410 . S
C868 C869 1.392 . S
C868 C871 1.511 . S
C869 C865 1.376 . S
C869 C868 1.392 . S
C869 H881 0.929 . S
C870 C866 1.531 . S
C870 H882 0.960 . S
C870 H883 0.962 . S
C870 H884 0.960 . S
C871 C868 1.511 . S
C871 H885 0.961 . S
C871 H886 0.961 . S
C871 H887 0.961 . S
C872 C873 1.370 . S
C872 C874 1.363 . S
C872 H888 0.931 . S
C873 C872 1.370 . S
C873 C877 1.408 . S
C874 C872 1.363 . S
C874 C875 1.370 . S
C874 C878 1.524 . S
C875 C867 1.503 . S
C875 C874 1.370 . S
C875 C876 1.403 . S
C876 C875 1.403 . S
C876 C877 1.404 . S
C876 C879 1.539 . S
C877 C873 1.408 . S
C877 C876 1.404 . S
C877 H889 0.930 . S
C878 C874 1.524 . S
C878 H890 0.956 . S
C878 H891 0.961 . S
C878 H892 0.961 . S
C879 C876 1.539 . S
C879 H893 0.958 . S
C879 H894 0.961 . S
C879 H895 0.960 . S
H880 C864 0.931 . S
H881 C869 0.929 . S
H882 C870 0.960 . S
H883 C870 0.962 . S
H884 C870 0.960 . S
H885 C871 0.961 . S
H886 C871 0.961 . S
H887 C871 0.961 . S
H888 C872 0.931 . S
H889 C877 0.930 . S
H890 C878 0.956 . S
H891 C878 0.961 . S
H892 C878 0.961 . S
H893 C879 0.958 . S
H894 C879 0.961 . S
H895 C879 0.960 . S
C896 C897 1.391 . S
C896 C898 1.394 . S
C896 H912 0.931 . S
C897 C896 1.391 . S
C897 C901 1.376 . S
C898 C896 1.394 . S
C898 C899 1.369 . S
C898 C902 1.531 . S
C899 C898 1.369 . S
C899 C900 1.410 . S
C899 C907 1.503 . S
C900 C899 1.410 . S
C900 C901 1.392 . S
C900 C903 1.511 . S
C901 C897 1.376 . S
C901 C900 1.392 . S
C901 H913 0.929 . S
C902 C898 1.531 . S
C902 H914 0.960 . S
C902 H915 0.962 . S
C902 H916 0.960 . S
C903 C900 1.511 . S
C903 H917 0.961 . S
C903 H918 0.961 . S
C903 H919 0.961 . S
C904 C905 1.370 . S
C904 C906 1.363 . S
C904 H920 0.931 . S
C905 C904 1.370 . S
C905 C909 1.408 . S
C906 C904 1.363 . S
C906 C907 1.370 . S
C906 C910 1.524 . S
C907 C899 1.503 . S
C907 C906 1.370 . S
C907 C908 1.403 . S
C908 C907 1.403 . S
C908 C909 1.404 . S
C908 C911 1.539 . S
C909 C905 1.408 . S
C909 C908 1.404 . S
C909 H921 0.930 . S
C910 C906 1.524 . S
C910 H922 0.956 . S
C910 H923 0.961 . S
C910 H924 0.961 . S
C911 C908 1.539 . S
C911 H925 0.958 . S
C911 H926 0.961 . S
C911 H927 0.960 . S
H912 C896 0.931 . S
H913 C901 0.929 . S
H914 C902 0.960 . S
H915 C902 0.962 . S
H916 C902 0.960 . S
H917 C903 0.961 . S
H918 C903 0.961 . S
H919 C903 0.961 . S
H920 C904 0.931 . S
H921 C909 0.930 . S
H922 C910 0.956 . S
H923 C910 0.961 . S
H924 C910 0.961 . S
H925 C911 0.958 . S
H926 C911 0.961 . S
H927 C911 0.960 . S
C928 C929 1.391 . S
C928 C930 1.394 . S
C928 H944 0.931 . S
C929 C928 1.391 . S
C929 C933 1.376 . S
C930 C928 1.394 . S
C930 C931 1.369 . S
C930 C934 1.531 . S
C931 C930 1.369 . S
C931 C932 1.410 . S
C931 C939 1.503 1_556 S
C932 C931 1.410 . S
C932 C933 1.392 . S
C932 C935 1.511 . S
C933 C929 1.376 . S
C933 C932 1.392 . S
C933 H945 0.929 . S
C934 C930 1.531 . S
C934 H946 0.960 1_556 S
C934 H947 0.962 . S
C934 H948 0.960 . S
C935 C932 1.511 . S
C935 H949 0.961 . S
C935 H950 0.961 1_556 S
C935 H951 0.961 . S
C936 C937 1.370 . S
C936 C938 1.363 . S
C936 H952 0.931 . S
C937 C936 1.370 . S
C937 C941 1.408 . S
C938 C936 1.363 . S
C938 C939 1.370 . S
C938 C942 1.524 . S
C939 C931 1.503 1_554 S
C939 C938 1.370 . S
C939 C940 1.403 . S
C940 C939 1.403 . S
C940 C941 1.404 . S
C940 C943 1.539 . S
C941 C937 1.408 . S
C941 C940 1.404 . S
C941 H953 0.930 . S
C942 C938 1.524 . S
C942 H954 0.956 1_554 S
C942 H955 0.961 1_554 S
C942 H956 0.961 . S
C943 C940 1.539 . S
C943 H957 0.958 . S
C943 H958 0.961 . S
C943 H959 0.960 . S
H944 C928 0.931 . S
H945 C933 0.929 . S
H946 C934 0.960 1_554 S
H947 C934 0.962 . S
H948 C934 0.960 . S
H949 C935 0.961 . S
H950 C935 0.961 1_554 S
H951 C935 0.961 . S
H952 C936 0.931 . S
H953 C941 0.930 . S
H954 C942 0.956 1_556 S
H955 C942 0.961 1_556 S
H956 C942 0.961 . S
H957 C943 0.958 . S
H958 C943 0.961 . S
H959 C943 0.960 . S
C960 C961 1.391 1_556 S
C960 C962 1.394 . S
C960 H976 0.931 1_556 S
C961 C960 1.391 1_554 S
C961 C965 1.376 . S
C962 C960 1.394 . S
C962 C963 1.369 . S
C962 C966 1.531 . S
C963 C962 1.369 . S
C963 C964 1.410 . S
C963 C971 1.503 . S
C964 C963 1.410 . S
C964 C965 1.392 1_556 S
C964 C967 1.511 . S
C965 C961 1.376 . S
C965 C964 1.392 1_554 S
C965 H977 0.929 . S
C966 C962 1.531 . S
C966 H978 0.960 . S
C966 H979 0.962 . S
C966 H980 0.960 . S
C967 C964 1.511 . S
C967 H981 0.961 . S
C967 H982 0.961 . S
C967 H983 0.961 . S
C968 C969 1.370 . S
C968 C970 1.363 . S
C968 H984 0.931 . S
C969 C968 1.370 . S
C969 C973 1.408 . S
C970 C968 1.363 . S
C970 C971 1.370 . S
C970 C974 1.524 . S
C971 C963 1.503 . S
C971 C970 1.370 . S
C971 C972 1.403 . S
C972 C971 1.403 . S
C972 C973 1.404 . S
C972 C975 1.539 . S
C973 C969 1.408 . S
C973 C972 1.404 . S
C973 H985 0.930 . S
C974 C970 1.524 . S
C974 H986 0.956 . S
C974 H987 0.961 . S
C974 H988 0.961 . S
C975 C972 1.539 . S
C975 H989 0.958 . S
C975 H990 0.961 . S
C975 H991 0.960 . S
H976 C960 0.931 1_554 S
H977 C965 0.929 . S
H978 C966 0.960 . S
H979 C966 0.962 . S
H980 C966 0.960 . S
H981 C967 0.961 . S
H982 C967 0.961 . S
H983 C967 0.961 . S
H984 C968 0.931 . S
H985 C973 0.930 . S
H986 C974 0.956 . S
H987 C974 0.961 . S
H988 C974 0.961 . S
H989 C975 0.958 . S
H990 C975 0.961 . S
H991 C975 0.960 . S
C992 C993 1.391 . S
C992 C994 1.394 . S
C992 H1008 0.931 . S
C993 C992 1.391 . S
C993 C997 1.376 . S
C994 C992 1.394 . S
C994 C995 1.369 . S
C994 C998 1.531 . S
C995 C994 1.369 . S
C995 C996 1.410 . S
C995 C1003 1.503 . S
C996 C995 1.410 . S
C996 C997 1.392 . S
C996 C999 1.511 . S
C997 C993 1.376 . S
C997 C996 1.392 . S
C997 H1009 0.929 . S
C998 C994 1.531 . S
C998 H1010 0.960 . S
C998 H1011 0.962 . S
C998 H1012 0.960 . S
C999 C996 1.511 . S
C999 H1013 0.961 . S
C999 H1014 0.961 . S
C999 H1015 0.961 . S
C1000 C1001 1.370 . S
C1000 C1002 1.363 . S
C1000 H1016 0.931 . S
C1001 C1000 1.370 . S
C1001 C1005 1.408 . S
C1002 C1000 1.363 . S
C1002 C1003 1.370 . S
C1002 C1006 1.524 . S
C1003 C995 1.503 . S
C1003 C1002 1.370 . S
C1003 C1004 1.403 . S
C1004 C1003 1.403 . S
C1004 C1005 1.404 . S
C1004 C1007 1.539 . S
C1005 C1001 1.408 . S
C1005 C1004 1.404 . S
C1005 H1017 0.930 . S
C1006 C1002 1.524 . S
C1006 H1018 0.956 . S
C1006 H1019 0.961 . S
C1006 H1020 0.961 . S
C1007 C1004 1.539 . S
C1007 H1021 0.958 . S
C1007 H1022 0.961 . S
C1007 H1023 0.960 . S
H1008 C992 0.931 . S
H1009 C997 0.929 . S
H1010 C998 0.960 . S
H1011 C998 0.962 . S
H1012 C998 0.960 . S
H1013 C999 0.961 . S
H1014 C999 0.961 . S
H1015 C999 0.961 . S
H1016 C1000 0.931 . S
H1017 C1005 0.930 . S
H1018 C1006 0.956 . S
H1019 C1006 0.961 . S
H1020 C1006 0.961 . S
H1021 C1007 0.958 . S
H1022 C1007 0.961 . S
H1023 C1007 0.960 . S
C1024 C1025 1.391 . S
C1024 C1026 1.394 . S
C1024 H1040 0.931 . S
C1025 C1024 1.391 . S
C1025 C1029 1.376 . S
C1026 C1024 1.394 . S
C1026 C1027 1.369 . S
C1026 C1030 1.531 . S
C1027 C1026 1.369 . S
C1027 C1028 1.410 . S
C1027 C1035 1.503 . S
C1028 C1027 1.410 . S
C1028 C1029 1.392 . S
C1028 C1031 1.511 . S
C1029 C1025 1.376 . S
C1029 C1028 1.392 . S
C1029 H1041 0.929 . S
C1030 C1026 1.531 . S
C1030 H1042 0.960 . S
C1030 H1043 0.962 . S
C1030 H1044 0.960 . S
C1031 C1028 1.511 . S
C1031 H1045 0.961 . S
C1031 H1046 0.961 . S
C1031 H1047 0.961 . S
C1032 C1033 1.370 . S
C1032 C1034 1.363 . S
C1032 H1048 0.931 . S
C1033 C1032 1.370 . S
C1033 C1037 1.408 . S
C1034 C1032 1.363 . S
C1034 C1035 1.370 . S
C1034 C1038 1.524 . S
C1035 C1027 1.503 . S
C1035 C1034 1.370 . S
C1035 C1036 1.403 . S
C1036 C1035 1.403 . S
C1036 C1037 1.404 . S
C1036 C1039 1.539 . S
C1037 C1033 1.408 . S
C1037 C1036 1.404 . S
C1037 H1049 0.930 . S
C1038 C1034 1.524 . S
C1038 H1050 0.956 . S
C1038 H1051 0.961 . S
C1038 H1052 0.961 . S
C1039 C1036 1.539 . S
C1039 H1053 0.958 . S
C1039 H1054 0.961 . S
C1039 H1055 0.960 . S
H1040 C1024 0.931 . S
H1041 C1029 0.929 . S
H1042 C1030 0.960 . S
H1043 C1030 0.962 . S
H1044 C1030 0.960 . S
H1045 C1031 0.961 . S
H1046 C1031 0.961 . S
H1047 C1031 0.961 . S
H1048 C1032 0.931 . S
H1049 C1037 0.930 . S
H1050 C1038 0.956 . S
H1051 C1038 0.961 . S
H1052 C1038 0.961 . S
H1053 C1039 0.958 . S
H1054 C1039 0.961 . S
H1055 C1039 0.960 . S
C1056 C1057 1.391 . S
C1056 C1058 1.394 . S
C1056 H1072 0.931 . S
C1057 C1056 1.391 . S
C1057 C1061 1.376 . S
C1058 C1056 1.394 . S
C1058 C1059 1.369 . S
C1058 C1062 1.531 . S
C1059 C1058 1.369 . S
C1059 C1060 1.410 . S
C1059 C1067 1.503 . S
C1060 C1059 1.410 . S
C1060 C1061 1.392 . S
C1060 C1063 1.511 . S
C1061 C1057 1.376 . S
C1061 C1060 1.392 . S
C1061 H1073 0.929 . S
C1062 C1058 1.531 . S
C1062 H1074 0.960 . S
C1062 H1075 0.962 . S
C1062 H1076 0.960 . S
C1063 C1060 1.511 . S
C1063 H1077 0.961 . S
C1063 H1078 0.961 . S
C1063 H1079 0.961 . S
C1064 C1065 1.370 . S
C1064 C1066 1.363 . S
C1064 H1080 0.931 . S
C1065 C1064 1.370 . S
C1065 C1069 1.408 . S
C1066 C1064 1.363 . S
C1066 C1067 1.370 . S
C1066 C1070 1.524 . S
C1067 C1059 1.503 . S
C1067 C1066 1.370 . S
C1067 C1068 1.403 . S
C1068 C1067 1.403 . S
C1068 C1069 1.404 . S
C1068 C1071 1.539 . S
C1069 C1065 1.408 . S
C1069 C1068 1.404 . S
C1069 H1081 0.930 . S
C1070 C1066 1.524 . S
C1070 H1082 0.956 . S
C1070 H1083 0.961 . S
C1070 H1084 0.961 . S
C1071 C1068 1.539 . S
C1071 H1085 0.958 . S
C1071 H1086 0.961 . S
C1071 H1087 0.960 . S
H1072 C1056 0.931 . S
H1073 C1061 0.929 . S
H1074 C1062 0.960 . S
H1075 C1062 0.962 . S
H1076 C1062 0.960 . S
H1077 C1063 0.961 . S
H1078 C1063 0.961 . S
H1079 C1063 0.961 . S
H1080 C1064 0.931 . S
H1081 C1069 0.930 . S
H1082 C1070 0.956 . S
H1083 C1070 0.961 . S
H1084 C1070 0.961 . S
H1085 C1071 0.958 . S
H1086 C1071 0.961 . S
H1087 C1071 0.960 . S
C1088 C1089 1.391 . S
C1088 C1090 1.394 . S
C1088 H1104 0.931 . S
C1089 C1088 1.391 . S
C1089 C1093 1.376 . S
C1090 C1088 1.394 . S
C1090 C1091 1.369 . S
C1090 C1094 1.531 . S
C1091 C1090 1.369 . S
C1091 C1092 1.410 . S
C1091 C1099 1.503 . S
C1092 C1091 1.410 . S
C1092 C1093 1.392 . S
C1092 C1095 1.511 . S
C1093 C1089 1.376 . S
C1093 C1092 1.392 . S
C1093 H1105 0.929 . S
C1094 C1090 1.531 . S
C1094 H1106 0.960 . S
C1094 H1107 0.962 . S
C1094 H1108 0.960 . S
C1095 C1092 1.511 . S
C1095 H1109 0.961 . S
C1095 H1110 0.961 . S
C1095 H1111 0.961 . S
C1096 C1097 1.370 . S
C1096 C1098 1.363 . S
C1096 H1112 0.931 . S
C1097 C1096 1.370 . S
C1097 C1101 1.408 . S
C1098 C1096 1.363 . S
C1098 C1099 1.370 . S
C1098 C1102 1.524 . S
C1099 C1091 1.503 . S
C1099 C1098 1.370 . S
C1099 C1100 1.403 . S
C1100 C1099 1.403 . S
C1100 C1101 1.404 . S
C1100 C1103 1.539 . S
C1101 C1097 1.408 . S
C1101 C1100 1.404 . S
C1101 H1113 0.930 . S
C1102 C1098 1.524 . S
C1102 H1114 0.956 . S
C1102 H1115 0.961 . S
C1102 H1116 0.961 . S
C1103 C1100 1.539 . S
C1103 H1117 0.958 . S
C1103 H1118 0.961 . S
C1103 H1119 0.960 . S
H1104 C1088 0.931 . S
H1105 C1093 0.929 . S
H1106 C1094 0.960 . S
H1107 C1094 0.962 . S
H1108 C1094 0.960 . S
H1109 C1095 0.961 . S
H1110 C1095 0.961 . S
H1111 C1095 0.961 . S
H1112 C1096 0.931 . S
H1113 C1101 0.930 . S
H1114 C1102 0.956 . S
H1115 C1102 0.961 . S
H1116 C1102 0.961 . S
H1117 C1103 0.958 . S
H1118 C1103 0.961 . S
H1119 C1103 0.960 . S
C1120 C1121 1.391 . S
C1120 C1122 1.394 . S
C1120 H1136 0.931 . S
C1121 C1120 1.391 . S
C1121 C1125 1.376 . S
C1122 C1120 1.394 . S
C1122 C1123 1.369 . S
C1122 C1126 1.531 . S
C1123 C1122 1.369 . S
C1123 C1124 1.410 . S
C1123 C1131 1.503 . S
C1124 C1123 1.410 . S
C1124 C1125 1.392 . S
C1124 C1127 1.511 . S
C1125 C1121 1.376 . S
C1125 C1124 1.392 . S
C1125 H1137 0.929 . S
C1126 C1122 1.531 . S
C1126 H1138 0.960 . S
C1126 H1139 0.962 . S
C1126 H1140 0.960 . S
C1127 C1124 1.511 . S
C1127 H1141 0.961 . S
C1127 H1142 0.961 . S
C1127 H1143 0.961 . S
C1128 C1129 1.370 . S
C1128 C1130 1.363 . S
C1128 H1144 0.931 . S
C1129 C1128 1.370 . S
C1129 C1133 1.408 . S
C1130 C1128 1.363 . S
C1130 C1131 1.370 . S
C1130 C1134 1.524 . S
C1131 C1123 1.503 . S
C1131 C1130 1.370 . S
C1131 C1132 1.403 . S
C1132 C1131 1.403 . S
C1132 C1133 1.404 . S
C1132 C1135 1.539 . S
C1133 C1129 1.408 . S
C1133 C1132 1.404 . S
C1133 H1145 0.930 . S
C1134 C1130 1.524 . S
C1134 H1146 0.956 . S
C1134 H1147 0.961 . S
C1134 H1148 0.961 . S
C1135 C1132 1.539 . S
C1135 H1149 0.958 . S
C1135 H1150 0.961 . S
C1135 H1151 0.960 . S
H1136 C1120 0.931 . S
H1137 C1125 0.929 . S
H1138 C1126 0.960 . S
H1139 C1126 0.962 . S
H1140 C1126 0.960 . S
H1141 C1127 0.961 . S
H1142 C1127 0.961 . S
H1143 C1127 0.961 . S
H1144 C1128 0.931 . S
H1145 C1133 0.930 . S
H1146 C1134 0.956 . S
H1147 C1134 0.961 . S
H1148 C1134 0.961 . S
H1149 C1135 0.958 . S
H1150 C1135 0.961 . S
H1151 C1135 0.960 . S
C1152 C1153 1.391 1_556 S
C1152 C1154 1.394 . S
C1152 H1168 0.931 1_565 S
C1153 C1152 1.391 1_554 S
C1153 C1157 1.376 . S
C1154 C1152 1.394 . S
C1154 C1155 1.369 . S
C1154 C1158 1.531 . S
C1155 C1154 1.369 . S
C1155 C1156 1.422 . S
C1155 C1163 1.503 . S
C1156 C1155 1.422 . S
C1156 C1157 1.384 1_556 S
C1156 C1159 1.507 1_556 S
C1157 C1153 1.376 . S
C1157 C1156 1.384 1_554 S
C1157 H1169 0.929 . S
C1158 C1154 1.531 . S
C1158 H1170 0.960 . S
C1158 H1171 0.962 . S
C1158 H1172 0.949 1_565 S
C1159 C1156 1.507 1_554 S
C1159 H1173 0.961 . S
C1159 H1174 0.961 . S
C1159 H1175 0.961 1_554 S
C1160 C1161 1.370 . S
C1160 C1162 1.363 . S
C1160 H1176 0.931 . S
C1161 C1160 1.370 . S
C1161 C1165 1.408 . S
C1162 C1160 1.363 . S
C1162 C1163 1.370 . S
C1162 C1166 1.524 . S
C1163 C1155 1.503 . S
C1163 C1162 1.370 . S
C1163 C1164 1.403 . S
C1164 C1163 1.403 . S
C1164 C1165 1.404 . S
C1164 C1167 1.539 . S
C1165 C1161 1.408 . S
C1165 C1164 1.404 . S
C1165 H1177 0.930 . S
C1166 C1162 1.524 . S
C1166 H1178 0.956 . S
C1166 H1179 0.961 1_556 S
C1166 H1180 0.961 1_556 S
C1167 C1164 1.539 . S
C1167 H1181 0.958 . S
C1167 H1182 0.961 . S
C1167 H1183 0.960 . S
H1168 C1152 0.931 1_545 S
H1169 C1157 0.929 . S
H1170 C1158 0.960 . S
H1171 C1158 0.962 . S
H1172 C1158 0.949 1_545 S
H1173 C1159 0.961 . S
H1174 C1159 0.961 . S
H1175 C1159 0.961 1_556 S
H1176 C1160 0.931 . S
H1177 C1165 0.930 . S
H1178 C1166 0.956 . S
H1179 C1166 0.961 1_554 S
H1180 C1166 0.961 1_554 S
H1181 C1167 0.958 . S
H1182 C1167 0.961 . S
H1183 C1167 0.960 . S
C1184 C1185 1.391 . S
C1184 C1186 1.394 . S
C1184 H1200 0.931 . S
C1185 C1184 1.391 . S
C1185 C1189 1.376 . S
C1186 C1184 1.394 . S
C1186 C1187 1.369 . S
C1186 C1190 1.531 . S
C1187 C1186 1.369 . S
C1187 C1188 1.410 . S
C1187 C1195 1.503 . S
C1188 C1187 1.410 . S
C1188 C1189 1.392 . S
C1188 C1191 1.511 . S
C1189 C1185 1.376 . S
C1189 C1188 1.392 . S
C1189 H1201 0.929 . S
C1190 C1186 1.531 . S
C1190 H1202 0.960 . S
C1190 H1203 0.962 . S
C1190 H1204 0.960 . S
C1191 C1188 1.511 . S
C1191 H1205 0.961 . S
C1191 H1206 0.961 . S
C1191 H1207 0.961 . S
C1192 C1193 1.370 1_554 S
C1192 C1194 1.363 . S
C1192 H1208 0.931 . S
C1193 C1192 1.370 1_556 S
C1193 C1197 1.408 . S
C1194 C1192 1.363 . S
C1194 C1195 1.370 1_554 S
C1194 C1198 1.524 . S
C1195 C1187 1.503 . S
C1195 C1194 1.370 1_556 S
C1195 C1196 1.403 . S
C1196 C1195 1.403 . S
C1196 C1197 1.404 . S
C1196 C1199 1.539 . S
C1197 C1193 1.408 . S
C1197 C1196 1.404 . S
C1197 H1209 0.930 . S
C1198 C1194 1.524 . S
C1198 H1210 0.956 . S
C1198 H1211 0.961 . S
C1198 H1212 0.961 . S
C1199 C1196 1.539 . S
C1199 H1213 0.958 . S
C1199 H1214 0.961 . S
C1199 H1215 0.960 . S
H1200 C1184 0.931 . S
H1201 C1189 0.929 . S
H1202 C1190 0.960 . S
H1203 C1190 0.962 . S
H1204 C1190 0.960 . S
H1205 C1191 0.961 . S
H1206 C1191 0.961 . S
H1207 C1191 0.961 . S
H1208 C1192 0.931 . S
H1209 C1197 0.930 . S
H1210 C1198 0.956 . S
H1211 C1198 0.961 . S
H1212 C1198 0.961 . S
H1213 C1199 0.958 . S
H1214 C1199 0.961 . S
H1215 C1199 0.960 . S
C1216 C1217 1.391 . S
C1216 C1218 1.394 . S
C1216 H1232 0.931 . S
C1217 C1216 1.391 . S
C1217 C1221 1.376 . S
C1218 C1216 1.394 . S
C1218 C1219 1.369 . S
C1218 C1222 1.531 . S
C1219 C1218 1.369 . S
C1219 C1220 1.410 . S
C1219 C1227 1.503 . S
C1220 C1219 1.410 . S
C1220 C1221 1.392 . S
C1220 C1223 1.511 . S
C1221 C1217 1.376 . S
C1221 C1220 1.392 . S
C1221 H1233 0.929 . S
C1222 C1218 1.531 . S
C1222 H1234 0.960 . S
C1222 H1235 0.962 . S
C1222 H1236 0.960 . S
C1223 C1220 1.511 . S
C1223 H1237 0.961 . S
C1223 H1238 0.961 . S
C1223 H1239 0.961 . S
C1224 C1225 1.370 . S
C1224 C1226 1.363 . S
C1224 H1240 0.931 . S
C1225 C1224 1.370 . S
C1225 C1229 1.428 . S
C1226 C1224 1.363 . S
C1226 C1227 1.370 . S
C1226 C1230 1.524 . S
C1227 C1219 1.503 . S
C1227 C1226 1.370 . S
C1227 C1228 1.403 . S
C1228 C1227 1.403 . S
C1228 C1229 1.428 . S
C1228 C1231 1.539 . S
C1229 C1225 1.428 . S
C1229 C1228 1.428 . S
C1229 H1241 0.888 1_565 S
C1230 C1226 1.524 . S
C1230 H1242 0.956 . S
C1230 H1243 0.961 . S
C1230 H1244 0.961 . S
C1231 C1228 1.539 . S
C1231 H1245 0.975 . S
C1231 H1246 0.961 1_565 S
C1231 H1247 0.960 . S
H1232 C1216 0.931 . S
H1233 C1221 0.929 . S
H1234 C1222 0.960 . S
H1235 C1222 0.962 . S
H1236 C1222 0.960 . S
H1237 C1223 0.961 . S
H1238 C1223 0.961 . S
H1239 C1223 0.961 . S
H1240 C1224 0.931 . S
H1241 C1229 0.888 1_545 S
H1242 C1230 0.956 . S
H1243 C1230 0.961 . S
H1244 C1230 0.961 . S
H1245 C1231 0.975 . S
H1246 C1231 0.961 1_545 S
H1247 C1231 0.960 . S
C1248 C1249 1.391 . S
C1248 C1250 1.394 . S
C1248 H1264 0.931 . S
C1249 C1248 1.391 . S
C1249 C1253 1.376 . S
C1250 C1248 1.394 . S
C1250 C1251 1.369 . S
C1250 C1254 1.531 . S
C1251 C1250 1.369 . S
C1251 C1252 1.410 . S
C1251 C1259 1.503 . S
C1252 C1251 1.410 . S
C1252 C1253 1.392 . S
C1252 C1255 1.511 . S
C1253 C1249 1.376 . S
C1253 C1252 1.392 . S
C1253 H1265 0.929 . S
C1254 C1250 1.531 . S
C1254 H1266 0.960 . S
C1254 H1267 0.962 . S
C1254 H1268 0.960 . S
C1255 C1252 1.511 . S
C1255 H1269 0.961 . S
C1255 H1270 0.961 . S
C1255 H1271 0.961 . S
C1256 C1257 1.370 . S
C1256 C1258 1.363 . S
C1256 H1272 0.931 . S
C1257 C1256 1.370 . S
C1257 C1261 1.408 . S
C1258 C1256 1.363 . S
C1258 C1259 1.370 . S
C1258 C1262 1.524 . S
C1259 C1251 1.503 . S
C1259 C1258 1.370 . S
C1259 C1260 1.403 . S
C1260 C1259 1.403 . S
C1260 C1261 1.404 . S
C1260 C1263 1.539 . S
C1261 C1257 1.408 . S
C1261 C1260 1.404 . S
C1261 H1273 0.930 . S
C1262 C1258 1.524 . S
C1262 H1274 0.956 . S
C1262 H1275 0.961 . S
C1262 H1276 0.961 . S
C1263 C1260 1.539 . S
C1263 H1277 0.958 . S
C1263 H1278 0.961 . S
C1263 H1279 0.960 . S
H1264 C1248 0.931 . S
H1265 C1253 0.929 . S
H1266 C1254 0.960 . S
H1267 C1254 0.962 . S
H1268 C1254 0.960 . S
H1269 C1255 0.961 . S
H1270 C1255 0.961 . S
H1271 C1255 0.961 . S
H1272 C1256 0.931 . S
H1273 C1261 0.930 . S
H1274 C1262 0.956 . S
H1275 C1262 0.961 . S
H1276 C1262 0.961 . S
H1277 C1263 0.958 . S
H1278 C1263 0.961 . S
H1279 C1263 0.960 . S
C1280 C1281 1.391 . S
C1280 C1282 1.394 . S
C1280 H1296 0.931 . S
C1281 C1280 1.391 . S
C1281 C1285 1.376 . S
C1282 C1280 1.394 . S
C1282 C1283 1.369 . S
C1282 C1286 1.531 . S
C1283 C1282 1.369 . S
C1283 C1284 1.410 . S
C1283 C1291 1.503 . S
C1284 C1283 1.410 . S
C1284 C1285 1.392 . S
C1284 C1287 1.511 . S
C1285 C1281 1.376 . S
C1285 C1284 1.392 . S
C1285 H1297 0.929 . S
C1286 C1282 1.531 . S
C1286 H1298 0.960 . S
C1286 H1299 0.962 . S
C1286 H1300 0.960 . S
C1287 C1284 1.511 . S
C1287 H1301 0.961 . S
C1287 H1302 0.961 . S
C1287 H1303 0.961 . S
C1288 C1289 1.370 . S
C1288 C1290 1.363 . S
C1288 H1304 0.931 . S
C1289 C1288 1.370 . S
C1289 C1293 1.408 . S
C1290 C1288 1.363 . S
C1290 C1291 1.370 . S
C1290 C1294 1.524 . S
C1291 C1283 1.503 . S
C1291 C1290 1.370 . S
C1291 C1292 1.403 . S
C1292 C1291 1.403 . S
C1292 C1293 1.404 . S
C1292 C1295 1.539 . S
C1293 C1289 1.408 . S
C1293 C1292 1.404 . S
C1293 H1305 0.930 . S
C1294 C1290 1.524 . S
C1294 H1306 0.956 . S
C1294 H1307 0.961 . S
C1294 H1308 0.961 . S
C1295 C1292 1.539 . S
C1295 H1309 0.958 . S
C1295 H1310 0.961 . S
C1295 H1311 0.960 . S
H1296 C1280 0.931 . S
H1297 C1285 0.929 . S
H1298 C1286 0.960 . S
H1299 C1286 0.962 . S
H1300 C1286 0.960 . S
H1301 C1287 0.961 . S
H1302 C1287 0.961 . S
H1303 C1287 0.961 . S
H1304 C1288 0.931 . S
H1305 C1293 0.930 . S
H1306 C1294 0.956 . S
H1307 C1294 0.961 . S
H1308 C1294 0.961 . S
H1309 C1295 0.958 . S
H1310 C1295 0.961 . S
H1311 C1295 0.960 . S
C1312 C1313 1.391 . S
C1312 C1314 1.394 . S
C1312 H1328 0.931 . S
C1313 C1312 1.391 . S
C1313 C1317 1.376 . S
C1314 C1312 1.394 . S
C1314 C1315 1.369 . S
C1314 C1318 1.531 . S
C1315 C1314 1.369 . S
C1315 C1316 1.410 . S
C1315 C1323 1.503 . S
C1316 C1315 1.410 . S
C1316 C1317 1.392 . S
C1316 C1319 1.511 . S
C1317 C1313 1.376 . S
C1317 C1316 1.392 . S
C1317 H1329 0.929 . S
C1318 C1314 1.531 . S
C1318 H1330 0.960 . S
C1318 H1331 0.962 . S
C1318 H1332 0.960 . S
C1319 C1316 1.511 . S
C1319 H1333 0.961 . S
C1319 H1334 0.961 . S
C1319 H1335 0.961 . S
C1320 C1321 1.370 . S
C1320 C1322 1.363 . S
C1320 H1336 0.931 . S
C1321 C1320 1.370 . S
C1321 C1325 1.408 . S
C1322 C1320 1.363 . S
C1322 C1323 1.370 . S
C1322 C1326 1.524 . S
C1323 C1315 1.503 . S
C1323 C1322 1.370 . S
C1323 C1324 1.403 . S
C1324 C1323 1.403 . S
C1324 C1325 1.404 . S
C1324 C1327 1.539 . S
C1325 C1321 1.408 . S
C1325 C1324 1.404 . S
C1325 H1337 0.930 . S
C1326 C1322 1.524 . S
C1326 H1338 0.956 . S
C1326 H1339 0.961 . S
C1326 H1340 0.961 . S
C1327 C1324 1.539 . S
C1327 H1341 0.958 . S
C1327 H1342 0.961 . S
C1327 H1343 0.960 . S
H1328 C1312 0.931 . S
H1329 C1317 0.929 . S
H1330 C1318 0.960 . S
H1331 C1318 0.962 . S
H1332 C1318 0.960 . S
H1333 C1319 0.961 . S
H1334 C1319 0.961 . S
H1335 C1319 0.961 . S
H1336 C1320 0.931 . S
H1337 C1325 0.930 . S
H1338 C1326 0.956 . S
H1339 C1326 0.961 . S
H1340 C1326 0.961 . S
H1341 C1327 0.958 . S
H1342 C1327 0.961 . S
H1343 C1327 0.960 . S
C1344 C1345 1.391 . S
C1344 C1346 1.394 . S
C1344 H1360 0.931 . S
C1345 C1344 1.391 . S
C1345 C1349 1.376 . S
C1346 C1344 1.394 . S
C1346 C1347 1.369 . S
C1346 C1350 1.531 1_556 S
C1347 C1346 1.369 . S
C1347 C1348 1.410 . S
C1347 C1355 1.503 . S
C1348 C1347 1.410 . S
C1348 C1349 1.392 . S
C1348 C1351 1.511 . S
C1349 C1345 1.376 . S
C1349 C1348 1.392 . S
C1349 H1361 0.929 . S
C1350 C1346 1.531 1_554 S
C1350 H1362 0.960 . S
C1350 H1363 0.962 . S
C1350 H1364 0.960 . S
C1351 C1348 1.511 . S
C1351 H1365 0.961 . S
C1351 H1366 0.961 . S
C1351 H1367 0.961 . S
C1352 C1353 1.370 1_556 S
C1352 C1354 1.363 . S
C1352 H1368 0.931 . S
C1353 C1352 1.370 1_554 S
C1353 C1357 1.408 . S
C1354 C1352 1.363 . S
C1354 C1355 1.370 . S
C1354 C1358 1.524 . S
C1355 C1347 1.503 . S
C1355 C1354 1.370 . S
C1355 C1356 1.403 . S
C1356 C1355 1.403 . S
C1356 C1357 1.404 1_556 S
C1356 C1359 1.539 . S
C1357 C1353 1.408 . S
C1357 C1356 1.404 1_554 S
C1357 H1369 0.930 . S
C1358 C1354 1.524 . S
C1358 H1370 0.956 . S
C1358 H1371 0.961 . S
C1358 H1372 0.961 . S
C1359 C1356 1.539 . S
C1359 H1373 0.958 1_556 S
C1359 H1374 0.961 . S
C1359 H1375 0.960 . S
H1360 C1344 0.931 . S
H1361 C1349 0.929 . S
H1362 C1350 0.960 . S
H1363 C1350 0.962 . S
H1364 C1350 0.960 . S
H1365 C1351 0.961 . S
H1366 C1351 0.961 . S
H1367 C1351 0.961 . S
H1368 C1352 0.931 . S
H1369 C1357 0.930 . S
H1370 C1358 0.956 . S
H1371 C1358 0.961 . S
H1372 C1358 0.961 . S
H1373 C1359 0.958 1_554 S
H1374 C1359 0.961 . S
H1375 C1359 0.960 . S
C1376 C1377 1.391 . S
C1376 C1378 1.394 . S
C1376 H1392 0.931 . S
C1377 C1376 1.391 . S
C1377 C1381 1.376 . S
C1378 C1376 1.394 . S
C1378 C1379 1.369 . S
C1378 C1382 1.531 . S
C1379 C1378 1.369 . S
C1379 C1380 1.410 . S
C1379 C1387 1.503 . S
C1380 C1379 1.410 . S
C1380 C1381 1.392 . S
C1380 C1383 1.511 . S
C1381 C1377 1.376 . S
C1381 C1380 1.392 . S
C1381 H1393 0.929 . S
C1382 C1378 1.531 . S
C1382 H1394 0.960 . S
C1382 H1395 0.962 . S
C1382 H1396 0.960 . S
C1383 C1380 1.511 . S
C1383 H1397 0.961 . S
C1383 H1398 0.961 . S
C1383 H1399 0.961 . S
C1384 C1385 1.370 . S
C1384 C1386 1.363 . S
C1384 H1400 0.931 . S
C1385 C1384 1.370 . S
C1385 C1389 1.408 . S
C1386 C1384 1.363 . S
C1386 C1387 1.370 . S
C1386 C1390 1.524 . S
C1387 C1379 1.503 . S
C1387 C1386 1.370 . S
C1387 C1388 1.403 . S
C1388 C1387 1.403 . S
C1388 C1389 1.404 . S
C1388 C1391 1.539 . S
C1389 C1385 1.408 . S
C1389 C1388 1.404 . S
C1389 H1401 0.930 . S
C1390 C1386 1.524 . S
C1390 H1402 0.956 . S
C1390 H1403 0.961 . S
C1390 H1404 0.961 . S
C1391 C1388 1.539 . S
C1391 H1405 0.958 . S
C1391 H1406 0.961 . S
C1391 H1407 0.960 . S
H1392 C1376 0.931 . S
H1393 C1381 0.929 . S
H1394 C1382 0.960 . S
H1395 C1382 0.962 . S
H1396 C1382 0.960 . S
H1397 C1383 0.961 . S
H1398 C1383 0.961 . S
H1399 C1383 0.961 . S
H1400 C1384 0.931 . S
H1401 C1389 0.930 . S
H1402 C1390 0.956 . S
H1403 C1390 0.961 . S
H1404 C1390 0.961 . S
H1405 C1391 0.958 . S
H1406 C1391 0.961 . S
H1407 C1391 0.960 . S
C1408 C1409 1.391 . S
C1408 C1410 1.394 . S
C1408 H1424 0.931 . S
C1409 C1408 1.391 . S
C1409 C1413 1.376 . S
C1410 C1408 1.394 . S
C1410 C1411 1.369 . S
C1410 C1414 1.531 . S
C1411 C1410 1.369 . S
C1411 C1412 1.410 . S
C1411 C1419 1.503 . S
C1412 C1411 1.410 . S
C1412 C1413 1.392 . S
C1412 C1415 1.511 . S
C1413 C1409 1.376 . S
C1413 C1412 1.392 . S
C1413 H1425 0.929 . S
C1414 C1410 1.531 . S
C1414 H1426 0.960 . S
C1414 H1427 0.962 . S
C1414 H1428 0.960 . S
C1415 C1412 1.511 . S
C1415 H1429 0.961 . S
C1415 H1430 0.961 . S
C1415 H1431 0.961 . S
C1416 C1417 1.370 . S
C1416 C1418 1.363 . S
C1416 H1432 0.931 . S
C1417 C1416 1.370 . S
C1417 C1421 1.408 . S
C1418 C1416 1.363 . S
C1418 C1419 1.370 . S
C1418 C1422 1.524 . S
C1419 C1411 1.503 . S
C1419 C1418 1.370 . S
C1419 C1420 1.403 . S
C1420 C1419 1.403 . S
C1420 C1421 1.404 . S
C1420 C1423 1.539 . S
C1421 C1417 1.408 . S
C1421 C1420 1.404 . S
C1421 H1433 0.930 . S
C1422 C1418 1.524 . S
C1422 H1434 0.956 . S
C1422 H1435 0.961 . S
C1422 H1436 0.961 . S
C1423 C1420 1.539 . S
C1423 H1437 0.958 . S
C1423 H1438 0.961 . S
C1423 H1439 0.960 . S
H1424 C1408 0.931 . S
H1425 C1413 0.929 . S
H1426 C1414 0.960 . S
H1427 C1414 0.962 . S
H1428 C1414 0.960 . S
H1429 C1415 0.961 . S
H1430 C1415 0.961 . S
H1431 C1415 0.961 . S
H1432 C1416 0.931 . S
H1433 C1421 0.930 . S
H1434 C1422 0.956 . S
H1435 C1422 0.961 . S
H1436 C1422 0.961 . S
H1437 C1423 0.958 . S
H1438 C1423 0.961 . S
H1439 C1423 0.960 . S
C1440 C1441 1.391 . S
C1440 C1442 1.394 . S
C1440 H1456 0.931 . S
C1441 C1440 1.391 . S
C1441 C1445 1.376 . S
C1442 C1440 1.394 . S
C1442 C1443 1.369 . S
C1442 C1446 1.531 . S
C1443 C1442 1.369 . S
C1443 C1444 1.410 . S
C1443 C1451 1.503 . S
C1444 C1443 1.410 . S
C1444 C1445 1.392 . S
C1444 C1447 1.511 . S
C1445 C1441 1.376 . S
C1445 C1444 1.392 . S
C1445 H1457 0.929 . S
C1446 C1442 1.531 . S
C1446 H1458 0.960 . S
C1446 H1459 0.962 . S
C1446 H1460 0.960 . S
C1447 C1444 1.511 . S
C1447 H1461 0.961 . S
C1447 H1462 0.961 . S
C1447 H1463 0.961 . S
C1448 C1449 1.370 . S
C1448 C1450 1.363 . S
C1448 H1464 0.931 . S
C1449 C1448 1.370 . S
C1449 C1453 1.408 . S
C1450 C1448 1.363 . S
C1450 C1451 1.370 . S
C1450 C1454 1.524 . S
C1451 C1443 1.503 . S
C1451 C1450 1.370 . S
C1451 C1452 1.403 . S
C1452 C1451 1.403 . S
C1452 C1453 1.404 . S
C1452 C1455 1.539 . S
C1453 C1449 1.408 . S
C1453 C1452 1.404 . S
C1453 H1465 0.930 . S
C1454 C1450 1.524 . S
C1454 H1466 0.956 . S
C1454 H1467 0.961 . S
C1454 H1468 0.961 . S
C1455 C1452 1.539 . S
C1455 H1469 0.958 . S
C1455 H1470 0.961 . S
C1455 H1471 0.960 . S
H1456 C1440 0.931 . S
H1457 C1445 0.929 . S
H1458 C1446 0.960 . S
H1459 C1446 0.962 . S
H1460 C1446 0.960 . S
H1461 C1447 0.961 . S
H1462 C1447 0.961 . S
H1463 C1447 0.961 . S
H1464 C1448 0.931 . S
H1465 C1453 0.930 . S
H1466 C1454 0.956 . S
H1467 C1454 0.961 . S
H1468 C1454 0.961 . S
H1469 C1455 0.958 . S
H1470 C1455 0.961 . S
H1471 C1455 0.960 . S
C1472 C1473 1.391 . S
C1472 C1474 1.394 . S
C1472 H1488 0.931 . S
C1473 C1472 1.391 . S
C1473 C1477 1.376 . S
C1474 C1472 1.394 . S
C1474 C1475 1.369 . S
C1474 C1478 1.531 . S
C1475 C1474 1.369 . S
C1475 C1476 1.410 . S
C1475 C1483 1.503 . S
C1476 C1475 1.410 . S
C1476 C1477 1.392 . S
C1476 C1479 1.511 . S
C1477 C1473 1.376 . S
C1477 C1476 1.392 . S
C1477 H1489 0.929 . S
C1478 C1474 1.531 . S
C1478 H1490 0.960 . S
C1478 H1491 0.962 . S
C1478 H1492 0.960 . S
C1479 C1476 1.511 . S
C1479 H1493 0.961 . S
C1479 H1494 0.961 . S
C1479 H1495 0.961 . S
C1480 C1481 1.370 . S
C1480 C1482 1.363 . S
C1480 H1496 0.931 . S
C1481 C1480 1.370 . S
C1481 C1485 1.408 . S
C1482 C1480 1.363 . S
C1482 C1483 1.370 . S
C1482 C1486 1.524 . S
C1483 C1475 1.503 . S
C1483 C1482 1.370 . S
C1483 C1484 1.403 . S
C1484 C1483 1.403 . S
C1484 C1485 1.404 . S
C1484 C1487 1.539 . S
C1485 C1481 1.408 . S
C1485 C1484 1.404 . S
C1485 H1497 0.930 . S
C1486 C1482 1.524 . S
C1486 H1498 0.956 . S
C1486 H1499 0.961 . S
C1486 H1500 0.961 . S
C1487 C1484 1.539 . S
C1487 H1501 0.958 . S
C1487 H1502 0.961 . S
C1487 H1503 0.960 . S
H1488 C1472 0.931 . S
H1489 C1477 0.929 . S
H1490 C1478 0.960 . S
H1491 C1478 0.962 . S
H1492 C1478 0.960 . S
H1493 C1479 0.961 . S
H1494 C1479 0.961 . S
H1495 C1479 0.961 . S
H1496 C1480 0.931 . S
H1497 C1485 0.930 . S
H1498 C1486 0.956 . S
H1499 C1486 0.961 . S
H1500 C1486 0.961 . S
H1501 C1487 0.958 . S
H1502 C1487 0.961 . S
H1503 C1487 0.960 . S
C1504 C1505 1.391 . S
C1504 C1506 1.394 . S
C1504 H1520 0.931 . S
C1505 C1504 1.391 . S
C1505 C1509 1.376 . S
C1506 C1504 1.394 . S
C1506 C1507 1.369 . S
C1506 C1510 1.531 . S
C1507 C1506 1.369 . S
C1507 C1508 1.410 . S
C1507 C1515 1.503 . S
C1508 C1507 1.410 . S
C1508 C1509 1.392 . S
C1508 C1511 1.511 . S
C1509 C1505 1.376 . S
C1509 C1508 1.392 . S
C1509 H1521 0.929 . S
C1510 C1506 1.531 . S
C1510 H1522 0.960 . S
C1510 H1523 0.962 . S
C1510 H1524 0.960 . S
C1511 C1508 1.511 . S
C1511 H1525 0.961 . S
C1511 H1526 0.961 . S
C1511 H1527 0.961 . S
C1512 C1513 1.370 1_554 S
C1512 C1514 1.363 . S
C1512 H1528 0.931 . S
C1513 C1512 1.370 1_556 S
C1513 C1517 1.408 . S
C1514 C1512 1.363 . S
C1514 C1515 1.370 1_554 S
C1514 C1518 1.524 . S
C1515 C1507 1.503 . S
C1515 C1514 1.370 1_556 S
C1515 C1516 1.403 . S
C1516 C1515 1.403 . S
C1516 C1517 1.404 . S
C1516 C1519 1.539 . S
C1517 C1513 1.408 . S
C1517 C1516 1.404 . S
C1517 H1529 0.930 . S
C1518 C1514 1.524 . S
C1518 H1530 0.956 . S
C1518 H1531 0.961 . S
C1518 H1532 0.961 . S
C1519 C1516 1.539 . S
C1519 H1533 0.958 . S
C1519 H1534 0.961 . S
C1519 H1535 0.960 . S
H1520 C1504 0.931 . S
H1521 C1509 0.929 . S
H1522 C1510 0.960 . S
H1523 C1510 0.962 . S
H1524 C1510 0.960 . S
H1525 C1511 0.961 . S
H1526 C1511 0.961 . S
H1527 C1511 0.961 . S
H1528 C1512 0.931 . S
H1529 C1517 0.930 . S
H1530 C1518 0.956 . S
H1531 C1518 0.961 . S
H1532 C1518 0.961 . S
H1533 C1519 0.958 . S
H1534 C1519 0.961 . S
H1535 C1519 0.960 . S
C1536 C1537 1.391 . S
C1536 C1538 1.394 . S
C1536 H1552 0.931 . S
C1537 C1536 1.391 . S
C1537 C1541 1.376 . S
C1538 C1536 1.394 . S
C1538 C1539 1.369 . S
C1538 C1542 1.531 . S
C1539 C1538 1.369 . S
C1539 C1540 1.410 . S
C1539 C1547 1.503 . S
C1540 C1539 1.410 . S
C1540 C1541 1.392 . S
C1540 C1543 1.511 . S
C1541 C1537 1.376 . S
C1541 C1540 1.392 . S
C1541 H1553 0.929 . S
C1542 C1538 1.531 . S
C1542 H1554 0.960 . S
C1542 H1555 0.962 . S
C1542 H1556 0.960 . S
C1543 C1540 1.511 . S
C1543 H1557 0.961 . S
C1543 H1558 0.961 . S
C1543 H1559 0.961 . S
C1544 C1545 1.370 . S
C1544 C1546 1.363 . S
C1544 H1560 0.931 . S
C1545 C1544 1.370 . S
C1545 C1549 1.408 . S
C1546 C1544 1.363 . S
C1546 C1547 1.370 . S
C1546 C1550 1.524 . S
C1547 C1539 1.503 . S
C1547 C1546 1.370 . S
C1547 C1548 1.403 . S
C1548 C1547 1.403 . S
C1548 C1549 1.404 . S
C1548 C1551 1.539 . S
C1549 C1545 1.408 . S
C1549 C1548 1.404 . S
C1549 H1561 0.930 . S
C1550 C1546 1.524 . S
C1550 H1562 0.956 . S
C1550 H1563 0.961 . S
C1550 H1564 0.961 . S
C1551 C1548 1.539 . S
C1551 H1565 0.958 . S
C1551 H1566 0.961 . S
C1551 H1567 0.960 . S
H1552 C1536 0.931 . S
H1553 C1541 0.929 . S
H1554 C1542 0.960 . S
H1555 C1542 0.962 . S
H1556 C1542 0.960 . S
H1557 C1543 0.961 . S
H1558 C1543 0.961 . S
H1559 C1543 0.961 . S
H1560 C1544 0.931 . S
H1561 C1549 0.930 . S
H1562 C1550 0.956 . S
H1563 C1550 0.961 . S
H1564 C1550 0.961 . S
H1565 C1551 0.958 . S
H1566 C1551 0.961 . S
H1567 C1551 0.960 . S
C1568 C1569 1.391 . S
C1568 C1570 1.394 . S
C1568 H1584 0.931 . S
C1569 C1568 1.391 . S
C1569 C1573 1.376 . S
C1570 C1568 1.394 . S
C1570 C1571 1.369 . S
C1570 C1574 1.531 1_545 S
C1571 C1570 1.369 . S
C1571 C1572 1.410 . S
C1571 C1579 1.503 . S
C1572 C1571 1.410 . S
C1572 C1573 1.392 . S
C1572 C1575 1.511 . S
C1573 C1569 1.376 . S
C1573 C1572 1.392 . S
C1573 H1585 0.929 . S
C1574 C1570 1.531 1_565 S
C1574 H1586 0.960 1_554 S
C1574 H1587 0.962 . S
C1574 H1588 0.960 1_554 S
C1575 C1572 1.511 . S
C1575 H1589 0.961 . S
C1575 H1590 0.961 . S
C1575 H1591 0.961 . S
C1576 C1577 1.370 . S
C1576 C1578 1.363 . S
C1576 H1592 0.931 . S
C1577 C1576 1.370 . S
C1577 C1581 1.408 1_554 S
C1578 C1576 1.363 . S
C1578 C1579 1.370 . S
C1578 C1582 1.524 . S
C1579 C1571 1.503 . S
C1579 C1578 1.370 . S
C1579 C1580 1.403 1_554 S
C1580 C1579 1.403 1_556 S
C1580 C1581 1.404 . S
C1580 C1583 1.539 . S
C1581 C1577 1.408 1_556 S
C1581 C1580 1.404 . S
C1581 H1593 0.930 . S
C1582 C1578 1.524 . S
C1582 H1594 0.956 . S
C1582 H1595 0.961 . S
C1582 H1596 0.961 . S
C1583 C1580 1.539 . S
C1583 H1597 0.958 . S
C1583 H1598 0.961 . S
C1583 H1599 0.960 . S
H1584 C1568 0.931 . S
H1585 C1573 0.929 . S
H1586 C1574 0.960 1_556 S
H1587 C1574 0.962 . S
H1588 C1574 0.960 1_556 S
H1589 C1575 0.961 . S
H1590 C1575 0.961 . S
H1591 C1575 0.961 . S
H1592 C1576 0.931 . S
H1593 C1581 0.930 . S
H1594 C1582 0.956 . S
H1595 C1582 0.961 . S
H1596 C1582 0.961 . S
H1597 C1583 0.958 . S
H1598 C1583 0.961 . S
H1599 C1583 0.960 . S
C1600 C1601 1.391 . S
C1600 C1602 1.394 . S
C1600 H1616 0.931 . S
C1601 C1600 1.391 . S
C1601 C1605 1.376 . S
C1602 C1600 1.394 . S
C1602 C1603 1.369 . S
C1602 C1606 1.531 . S
C1603 C1602 1.369 . S
C1603 C1604 1.410 . S
C1603 C1611 1.503 . S
C1604 C1603 1.410 . S
C1604 C1605 1.392 . S
C1604 C1607 1.511 . S
C1605 C1601 1.376 . S
C1605 C1604 1.392 . S
C1605 H1617 0.929 . S
C1606 C1602 1.531 . S
C1606 H1618 0.960 . S
C1606 H1619 0.962 . S
C1606 H1620 0.960 . S
C1607 C1604 1.511 . S
C1607 H1621 0.961 . S
C1607 H1622 0.961 . S
C1607 H1623 0.961 . S
C1608 C1609 1.370 . S
C1608 C1610 1.363 . S
C1608 H1624 0.931 . S
C1609 C1608 1.370 . S
C1609 C1613 1.408 . S
C1610 C1608 1.363 . S
C1610 C1611 1.370 . S
C1610 C1614 1.524 . S
C1611 C1603 1.503 . S
C1611 C1610 1.370 . S
C1611 C1612 1.403 . S
C1612 C1611 1.403 . S
C1612 C1613 1.404 . S
C1612 C1615 1.539 . S
C1613 C1609 1.408 . S
C1613 C1612 1.404 . S
C1613 H1625 0.930 . S
C1614 C1610 1.524 . S
C1614 H1626 0.956 . S
C1614 H1627 0.961 . S
C1614 H1628 0.961 . S
C1615 C1612 1.539 . S
C1615 H1629 0.958 . S
C1615 H1630 0.961 . S
C1615 H1631 0.960 . S
H1616 C1600 0.931 . S
H1617 C1605 0.929 . S
H1618 C1606 0.960 . S
H1619 C1606 0.962 . S
H1620 C1606 0.960 . S
H1621 C1607 0.961 . S
H1622 C1607 0.961 . S
H1623 C1607 0.961 . S
H1624 C1608 0.931 . S
H1625 C1613 0.930 . S
H1626 C1614 0.956 . S
H1627 C1614 0.961 . S
H1628 C1614 0.961 . S
H1629 C1615 0.958 . S
H1630 C1615 0.961 . S
H1631 C1615 0.960 . S
C1632 C1633 1.391 . S
C1632 C1634 1.394 . S
C1632 H1648 0.931 1_545 S
C1633 C1632 1.391 . S
C1633 C1637 1.376 . S
C1634 C1632 1.394 . S
C1634 C1635 1.369 . S
C1634 C1638 1.495 1_445 S
C1635 C1634 1.369 . S
C1635 C1636 1.410 . S
C1635 C1643 1.503 1_455 S
C1636 C1635 1.410 . S
C1636 C1637 1.392 . S
C1636 C1639 1.511 . S
C1637 C1633 1.376 . S
C1637 C1636 1.392 . S
C1637 H1649 0.929 . S
C1638 C1634 1.495 1_665 S
C1638 H1650 1.016 . S
C1638 H1651 0.975 . S
C1638 H1652 0.932 1_655 S
C1639 C1636 1.511 . S
C1639 H1653 0.961 . S
C1639 H1654 0.961 . S
C1639 H1655 0.961 . S
C1640 C1641 1.370 . S
C1640 C1642 1.363 . S
C1640 H1656 0.931 . S
C1641 C1640 1.370 . S
C1641 C1645 1.408 . S
C1642 C1640 1.363 . S
C1642 C1643 1.370 . S
C1642 C1646 1.524 . S
C1643 C1635 1.503 1_655 S
C1643 C1642 1.370 . S
C1643 C1644 1.403 . S
C1644 C1643 1.403 . S
C1644 C1645 1.404 . S
C1644 C1647 1.539 . S
C1645 C1641 1.408 . S
C1645 C1644 1.404 . S
C1645 H1657 0.930 . S
C1646 C1642 1.524 . S
C1646 H1658 0.986 . S
C1646 H1659 0.961 1_655 S
C1646 H1660 0.961 . S
C1647 C1644 1.539 . S
C1647 H1661 0.958 . S
C1647 H1662 0.961 . S
C1647 H1663 0.960 . S
H1648 C1632 0.931 1_565 S
H1649 C1637 0.929 . S
H1650 C1638 1.016 . S
H1651 C1638 0.975 . S
H1652 C1638 0.932 1_455 S
H1653 C1639 0.961 . S
H1654 C1639 0.961 . S
H1655 C1639 0.961 . S
H1656 C1640 0.931 . S
H1657 C1645 0.930 . S
H1658 C1646 0.986 . S
H1659 C1646 0.961 1_455 S
H1660 C1646 0.961 . S
H1661 C1647 0.958 . S
H1662 C1647 0.961 . S
H1663 C1647 0.960 . S
C1664 C1665 1.391 . S
C1664 C1666 1.394 . S
C1664 H1680 0.931 . S
C1665 C1664 1.391 . S
C1665 C1669 1.376 . S
C1666 C1664 1.394 . S
C1666 C1667 1.369 . S
C1666 C1670 1.531 . S
C1667 C1666 1.369 . S
C1667 C1668 1.410 . S
C1667 C1675 1.503 . S
C1668 C1667 1.410 . S
C1668 C1669 1.392 . S
C1668 C1671 1.511 . S
C1669 C1665 1.376 . S
C1669 C1668 1.392 . S
C1669 H1681 0.929 . S
C1670 C1666 1.531 . S
C1670 H1682 0.960 . S
C1670 H1683 0.962 . S
C1670 H1684 0.960 . S
C1671 C1668 1.511 . S
C1671 H1685 0.961 . S
C1671 H1686 0.961 . S
C1671 H1687 0.961 . S
C1672 C1673 1.370 . S
C1672 C1674 1.363 . S
C1672 H1688 0.931 . S
C1673 C1672 1.370 . S
C1673 C1677 1.408 . S
C1674 C1672 1.363 . S
C1674 C1675 1.370 . S
C1674 C1678 1.524 . S
C1675 C1667 1.503 . S
C1675 C1674 1.370 . S
C1675 C1676 1.403 . S
C1676 C1675 1.403 . S
C1676 C1677 1.404 . S
C1676 C1679 1.539 . S
C1677 C1673 1.408 . S
C1677 C1676 1.404 . S
C1677 H1689 0.930 . S
C1678 C1674 1.524 . S
C1678 H1690 0.956 . S
C1678 H1691 0.961 . S
C1678 H1692 0.961 . S
C1679 C1676 1.539 . S
C1679 H1693 0.958 . S
C1679 H1694 0.961 . S
C1679 H1695 0.960 . S
H1680 C1664 0.931 . S
H1681 C1669 0.929 . S
H1682 C1670 0.960 . S
H1683 C1670 0.962 . S
H1684 C1670 0.960 . S
H1685 C1671 0.961 . S
H1686 C1671 0.961 . S
H1687 C1671 0.961 . S
H1688 C1672 0.931 . S
H1689 C1677 0.930 . S
H1690 C1678 0.956 . S
H1691 C1678 0.961 . S
H1692 C1678 0.961 . S
H1693 C1679 0.958 . S
H1694 C1679 0.961 . S
H1695 C1679 0.960 . S
C1696 C1697 1.391 . S
C1696 C1698 1.394 . S
C1696 H1712 0.931 . S
C1697 C1696 1.391 . S
C1697 C1701 1.376 . S
C1698 C1696 1.394 . S
C1698 C1699 1.369 . S
C1698 C1702 1.531 . S
C1699 C1698 1.369 . S
C1699 C1700 1.410 . S
C1699 C1707 1.503 . S
C1700 C1699 1.410 . S
C1700 C1701 1.392 . S
C1700 C1703 1.511 . S
C1701 C1697 1.376 . S
C1701 C1700 1.392 . S
C1701 H1713 0.929 . S
C1702 C1698 1.531 . S
C1702 H1714 0.960 . S
C1702 H1715 0.962 . S
C1702 H1716 0.960 . S
C1703 C1700 1.511 . S
C1703 H1717 0.961 . S
C1703 H1718 0.961 . S
C1703 H1719 0.961 . S
C1704 C1705 1.370 . S
C1704 C1706 1.363 . S
C1704 H1720 0.931 . S
C1705 C1704 1.370 . S
C1705 C1709 1.408 . S
C1706 C1704 1.363 . S
C1706 C1707 1.370 . S
C1706 C1710 1.524 . S
C1707 C1699 1.503 . S
C1707 C1706 1.370 . S
C1707 C1708 1.403 . S
C1708 C1707 1.403 . S
C1708 C1709 1.404 . S
C1708 C1711 1.539 . S
C1709 C1705 1.408 . S
C1709 C1708 1.404 . S
C1709 H1721 0.930 . S
C1710 C1706 1.524 . S
C1710 H1722 0.956 . S
C1710 H1723 0.961 . S
C1710 H1724 0.961 . S
C1711 C1708 1.539 . S
C1711 H1725 0.958 . S
C1711 H1726 0.961 . S
C1711 H1727 0.960 . S
H1712 C1696 0.931 . S
H1713 C1701 0.929 . S
H1714 C1702 0.960 . S
H1715 C1702 0.962 . S
H1716 C1702 0.960 . S
H1717 C1703 0.961 . S
H1718 C1703 0.961 . S
H1719 C1703 0.961 . S
H1720 C1704 0.931 . S
H1721 C1709 0.930 . S
H1722 C1710 0.956 . S
H1723 C1710 0.961 . S
H1724 C1710 0.961 . S
H1725 C1711 0.958 . S
H1726 C1711 0.961 . S
H1727 C1711 0.960 . S
C1728 C1729 1.391 . S
C1728 C1730 1.394 . S
C1728 H1744 0.931 . S
C1729 C1728 1.391 . S
C1729 C1733 1.376 . S
C1730 C1728 1.394 . S
C1730 C1731 1.369 . S
C1730 C1734 1.531 . S
C1731 C1730 1.369 . S
C1731 C1732 1.410 . S
C1731 C1739 1.503 . S
C1732 C1731 1.410 . S
C1732 C1733 1.392 . S
C1732 C1735 1.511 . S
C1733 C1729 1.376 . S
C1733 C1732 1.392 . S
C1733 H1745 0.929 . S
C1734 C1730 1.531 . S
C1734 H1746 0.960 . S
C1734 H1747 0.962 . S
C1734 H1748 0.960 . S
C1735 C1732 1.511 . S
C1735 H1749 0.961 . S
C1735 H1750 0.961 . S
C1735 H1751 0.961 . S
C1736 C1737 1.370 . S
C1736 C1738 1.363 . S
C1736 H1752 0.931 . S
C1737 C1736 1.370 . S
C1737 C1741 1.408 . S
C1738 C1736 1.363 . S
C1738 C1739 1.370 . S
C1738 C1742 1.524 . S
C1739 C1731 1.503 . S
C1739 C1738 1.370 . S
C1739 C1740 1.403 . S
C1740 C1739 1.403 . S
C1740 C1741 1.404 . S
C1740 C1743 1.539 . S
C1741 C1737 1.408 . S
C1741 C1740 1.404 . S
C1741 H1753 0.930 . S
C1742 C1738 1.524 . S
C1742 H1754 0.956 . S
C1742 H1755 0.961 . S
C1742 H1756 0.961 . S
C1743 C1740 1.539 . S
C1743 H1757 0.958 . S
C1743 H1758 0.961 . S
C1743 H1759 0.960 . S
H1744 C1728 0.931 . S
H1745 C1733 0.929 . S
H1746 C1734 0.960 . S
H1747 C1734 0.962 . S
H1748 C1734 0.960 . S
H1749 C1735 0.961 . S
H1750 C1735 0.961 . S
H1751 C1735 0.961 . S
H1752 C1736 0.931 . S
H1753 C1741 0.930 . S
H1754 C1742 0.956 . S
H1755 C1742 0.961 . S
H1756 C1742 0.961 . S
H1757 C1743 0.958 . S
H1758 C1743 0.961 . S
H1759 C1743 0.960 . S
C1760 C1761 1.391 . S
C1760 C1762 1.394 . S
C1760 H1776 0.931 . S
C1761 C1760 1.391 . S
C1761 C1765 1.376 . S
C1762 C1760 1.394 . S
C1762 C1763 1.369 . S
C1762 C1766 1.571 . S
C1763 C1762 1.369 . S
C1763 C1764 1.410 . S
C1763 C1771 1.503 1_655 S
C1764 C1763 1.410 . S
C1764 C1765 1.392 . S
C1764 C1767 1.511 . S
C1765 C1761 1.376 . S
C1765 C1764 1.392 . S
C1765 H1777 0.929 . S
C1766 C1762 1.571 . S
C1766 H1778 0.907 1_655 S
C1766 H1779 0.946 1_655 S
C1766 H1780 0.995 . S
C1767 C1764 1.511 . S
C1767 H1781 0.961 . S
C1767 H1782 0.961 . S
C1767 H1783 0.961 . S
C1768 C1769 1.370 . S
C1768 C1770 1.363 . S
C1768 H1784 0.931 . S
C1769 C1768 1.370 . S
C1769 C1773 1.408 . S
C1770 C1768 1.363 . S
C1770 C1771 1.370 . S
C1770 C1774 1.524 . S
C1771 C1763 1.503 1_455 S
C1771 C1770 1.370 . S
C1771 C1772 1.403 . S
C1772 C1771 1.403 . S
C1772 C1773 1.404 . S
C1772 C1775 1.539 . S
C1773 C1769 1.408 . S
C1773 C1772 1.404 . S
C1773 H1785 0.930 . S
C1774 C1770 1.524 . S
C1774 H1786 0.956 . S
C1774 H1787 1.005 . S
C1774 H1788 0.961 . S
C1775 C1772 1.539 . S
C1775 H1789 0.958 . S
C1775 H1790 0.961 . S
C1775 H1791 0.960 1_455 S
H1776 C1760 0.931 . S
H1777 C1765 0.929 . S
H1778 C1766 0.907 1_455 S
H1779 C1766 0.946 1_455 S
H1780 C1766 0.995 . S
H1781 C1767 0.961 . S
H1782 C1767 0.961 . S
H1783 C1767 0.961 . S
H1784 C1768 0.931 . S
H1785 C1773 0.930 . S
H1786 C1774 0.956 . S
H1787 C1774 1.005 . S
H1788 C1774 0.961 . S
H1789 C1775 0.958 . S
H1790 C1775 0.961 . S
H1791 C1775 0.960 1_655 S
C1792 C1793 1.391 1_556 S
C1792 C1794 1.394 . S
C1792 H1808 0.931 . S
C1793 C1792 1.391 1_554 S
C1793 C1797 1.376 . S
C1794 C1792 1.394 . S
C1794 C1795 1.369 1_556 S
C1794 C1798 1.531 . S
C1795 C1794 1.369 1_554 S
C1795 C1796 1.410 . S
C1795 C1803 1.503 . S
C1796 C1795 1.410 . S
C1796 C1797 1.392 . S
C1796 C1799 1.511 . S
C1797 C1793 1.376 . S
C1797 C1796 1.392 . S
C1797 H1809 0.929 . S
C1798 C1794 1.531 . S
C1798 H1810 0.960 . S
C1798 H1811 0.962 . S
C1798 H1812 0.960 . S
C1799 C1796 1.511 . S
C1799 H1813 0.961 . S
C1799 H1814 0.961 . S
C1799 H1815 0.961 . S
C1800 C1801 1.370 . S
C1800 C1802 1.363 . S
C1800 H1816 0.931 . S
C1801 C1800 1.370 . S
C1801 C1805 1.408 . S
C1802 C1800 1.363 . S
C1802 C1803 1.370 . S
C1802 C1806 1.524 . S
C1803 C1795 1.503 . S
C1803 C1802 1.370 . S
C1803 C1804 1.403 . S
C1804 C1803 1.403 . S
C1804 C1805 1.404 . S
C1804 C1807 1.539 1_554 S
C1805 C1801 1.408 . S
C1805 C1804 1.404 . S
C1805 H1817 0.930 1_554 S
C1806 C1802 1.524 . S
C1806 H1818 0.956 . S
C1806 H1819 0.961 . S
C1806 H1820 0.961 . S
C1807 C1804 1.539 1_556 S
C1807 H1821 0.958 . S
C1807 H1822 0.961 . S
C1807 H1823 0.960 . S
H1808 C1792 0.931 . S
H1809 C1797 0.929 . S
H1810 C1798 0.960 . S
H1811 C1798 0.962 . S
H1812 C1798 0.960 . S
H1813 C1799 0.961 . S
H1814 C1799 0.961 . S
H1815 C1799 0.961 . S
H1816 C1800 0.931 . S
H1817 C1805 0.930 1_556 S
H1818 C1806 0.956 . S
H1819 C1806 0.961 . S
H1820 C1806 0.961 . S
H1821 C1807 0.958 . S
H1822 C1807 0.961 . S
H1823 C1807 0.960 . S
C545 C5 1.257 . S
C553 C9 1.231 . S
C577 C43 1.248 . S
C585 C39 1.258 . S
C609 C73 1.245 . S
C617 C77 1.235 . S
C641 C111 1.258 . S
C649 C107 1.265 . S
C673 C145 1.223 . S
C681 C141 1.255 . S
C705 C175 1.250 . S
C713 C179 1.228 . S
C737 C213 1.210 . S
C745 C209 1.256 . S
C769 C247 1.236 . S
C777 C243 1.255 . S
C801 C277 1.257 . S
C809 C281 1.248 . S
C833 C315 1.212 . S
C841 C311 1.259 . S
C865 C345 1.265 . S
C873 C349 1.251 . S
C897 C379 1.249 . S
C905 C383 1.241 . S
C929 C413 1.269 . S
C937 C417 1.247 . S
C961 C447 1.257 . S
C969 C451 1.228 . S
C993 C485 1.210 . S
C1001 C481 1.260 . S
C1025 C519 1.216 . S
C1033 C515 1.255 . S
C1057 C2 1.599 . S
C1065 C36 1.619 . S
C1089 C101 1.576 . S
C1097 C67 1.569 . S
C1121 C104 1.621 . S
C1129 C70 1.610 . S
C1153 C33 1.564 1_565 S
C1161 C135 1.579 . S
C1185 C172 1.621 . S
C1193 C138 1.609 1_556 S
C1217 C203 1.578 . S
C1225 C237 1.568 1_565 S
C1249 C206 1.621 . S
C1257 C240 1.612 . S
C1281 C271 1.581 . S
C1289 C169 1.568 . S
C1313 C308 1.622 . S
C1321 C274 1.609 . S
C1345 C339 1.570 . S
C1353 C373 1.577 . S
C1377 C342 1.621 . S
C1385 C376 1.609 . S
C1409 C407 1.557 . S
C1417 C305 1.578 . S
C1441 C410 1.620 . S
C1449 C444 1.609 . S
C1473 C475 1.577 . S
C1481 C509 1.568 . S
C1505 C512 1.622 . S
C1513 C478 1.609 1_556 S
C1537 C441 1.573 . S
C1545 C543 1.577 . S
C1569 C20 1.507 . S
C1577 C156 1.521 . S
C1601 C462 1.512 . S
C1609 C54 1.515 . S
C1633 C88 1.518 . S
C1641 C224 1.515 . S
C1665 C530 1.520 . S
C1673 C122 1.512 . S
C1697 C326 1.520 . S
C1705 C190 1.513 . S
C1729 C258 1.505 . S
C1737 C394 1.519 . S
C1761 C292 1.521 . S
C1769 C428 1.514 . S
C1793 C496 1.514 . S
C1801 C360 1.519 . S
