# Generated by pormake.
# Topology sxc, (6)-cn, num edge types: 1
# Building blocks:
#     Node 0, Type 0, BuildingBlock: KUMJIN_clean_sbu_1, # of connection points: 6
#     Node 1, Type 0, BuildingBlock: KUMJIN_clean_sbu_1, # of connection points: 6
#     Node 2, Type 0, BuildingBlock: KUMJIN_clean_sbu_1, # of connection points: 6
#     Edge 3, Type (0, 0), BuildingBlock: MIFKUJ_clean_linker_0, # of connection points: 2
#     Edge 4, Type (0, 0), BuildingBlock: MIFKUJ_clean_linker_0, # of connection points: 2
#     Edge 5, Type (0, 0), BuildingBlock: MIFKUJ_clean_linker_0, # of connection points: 2
#     Edge 6, Type (0, 0), BuildingBlock: MIFKUJ_clean_linker_0, # of connection points: 2
#     Edge 7, Type (0, 0), BuildingBlock: MIFKUJ_clean_linker_0, # of connection points: 2
#     Edge 8, Type (0, 0), BuildingBlock: MIFKUJ_clean_linker_0, # of connection points: 2
#     Edge 9, Type (0, 0), BuildingBlock: MIFKUJ_clean_linker_0, # of connection points: 2
#     Edge 10, Type (0, 0), BuildingBlock: MIFKUJ_clean_linker_0, # of connection points: 2
#     Edge 11, Type (0, 0), BuildingBlock: MIFKUJ_clean_linker_0, # of connection points: 2
# Relax obj value: 0.177
# Max RMSD: 0.148
# Mean RMSD: 0.106
data_MOF--net-sxc--node1-KUMJIN_clean_sbu_1--edge1-MIFKUJ_clean_linker_0
_symmetry_space_group_name_H-M    P1
_symmetry_Int_Tables_number       1
_symmetry_cell_setting            triclinic
loop_
_symmetry_equiv_pos_as_xyz
'x, y, z'
_cell_length_a     20.261032
_cell_length_b     22.110474
_cell_length_c     58.506386
_cell_angle_alpha  109.08298
_cell_angle_beta   97.362389
_cell_angle_gamma 103.02004
loop_
_atom_site_label
_atom_site_type_symbol
_atom_site_fract_x
_atom_site_fract_y
_atom_site_fract_z
_atom_type_partial_charge
Eu0 Eu 0.96092 0.12032 -0.00623 0.0
C1 C 0.25131 0.09278 0.0203 0.0
N2 N 0.20506 0.11773 0.03268 0.0
C3 C 0.22968 0.06974 0.06292 0.0
C4 C 0.28647 0.0526 0.02833 0.0
C5 C 0.19603 0.10934 0.05431 0.0
C6 C 0.27462 1.04075 0.04977 0.0
C7 C 0.31039 0.08145 0.98623 0.0
C8 C 0.26299 0.1072 -0.00055 0.0
C9 C 0.34403 1.03991 -0.00621 0.0
C10 C 0.33221 1.02562 0.0148 0.0
Eu11 Eu 0.15378 0.18697 0.01764 0.0
N12 N 0.23035 0.1483 -0.00732 0.0
C13 C 0.32391 0.09944 0.96612 0.0
C14 C 0.24694 0.16926 0.97405 0.0
C15 C 0.2927 0.14416 0.96022 0.0
H16 H 0.16202 0.13246 0.06463 0.0
H17 H 0.30477 0.16023 0.94525 0.0
H18 H 0.95396 0.18056 0.94814 0.0
H19 H 0.80175 0.1315 0.06321 0.0
H20 H 0.22653 0.20661 0.97006 0.0
H21 H 0.35992 0.08067 0.95551 0.0
H22 H 0.88338 0.09066 0.03882 0.0
H23 H 0.2212 0.06183 0.07975 0.0
H24 H 0.38024 1.01945 0.98375 0.0
H25 H 0.35919 0.99414 0.02055 0.0
H26 H 0.89556 0.25403 0.93453 0.0
H27 H 0.30058 1.01006 0.05648 0.0
H28 H 0.7478 0.21401 0.05482 0.0
N29 N 0.90963 0.19125 0.97974 0.0
C30 C 0.86259 0.21438 -0.00782 0.0
C31 C 0.88599 0.24329 0.95075 0.0
C32 C 0.82741 0.25552 0.98483 0.0
C33 C 0.91923 0.2022 0.95855 0.0
C34 C 0.84027 0.27043 0.96403 0.0
N35 N 0.88178 0.15424 0.01824 0.0
C36 C 0.86327 0.12918 0.03571 0.0
C37 C 0.80064 0.21967 0.02533 0.0
C38 C 0.84952 0.19657 0.01226 0.0
C39 C 0.78512 0.19752 0.04439 0.0
C40 C 0.81576 0.15127 0.04931 0.0
H41 H 0.81451 0.30212 0.95789 0.0
H42 H 0.75356 0.31245 -0.00688 0.0
H43 H 0.72996 0.28096 0.02851 0.0
O44 O 0.85709 0.05021 0.98242 0.0
O45 O 1.0026 0.24214 0.00387 0.0
O46 O 0.12088 0.27484 0.00805 0.0
O47 O 0.91845 0.05464 0.95511 0.0
O48 O 0.99729 0.11469 0.03108 0.0
O49 O 0.0827 0.21044 0.04421 0.0
O50 O 0.25773 0.25644 0.02764 0.0
O51 O 0.11196 0.06544 0.00808 0.0
O52 O 0.99344 1.03233 0.00343 0.0
O53 O 0.1991 0.25453 0.05586 0.0
O54 O 0.11645 0.1929 0.98044 0.0
O55 O 1.03331 0.09625 0.96786 0.0
C56 C 0.06075 0.2909 0.00636 0.0
C57 C 0.84936 0.9478 0.95066 0.0
C58 C 0.79222 0.84032 0.95267 0.0
C59 C 0.82683 0.80887 0.93505 0.0
C60 C 0.88268 0.9151 0.93277 0.0
C61 C 0.8715 0.84614 0.92512 0.0
C62 C 0.80366 0.9098 0.96031 0.0
C63 C 1.04085 0.16499 0.04935 0.0
C64 C 0.86359 1.02133 0.95987 0.0
C65 C 0.78052 0.28022 -0.00166 0.0
C66 C 0.76725 0.26244 0.01855 0.0
C67 C 0.05371 1.01653 0.00538 0.0
C68 C 0.26694 0.36036 0.05886 0.0
C69 C 0.32384 0.46671 0.05593 0.0
C70 C 0.28882 0.49897 0.07321 0.0
C71 C 0.23311 0.39391 0.07636 0.0
C72 C 0.31272 0.39737 0.04892 0.0
C73 C 0.24399 0.4627 0.0834 0.0
C74 C 0.07354 0.1418 0.96235 0.0
C75 C 0.25293 0.28689 0.05029 0.0
H76 H 0.81853 0.75535 0.92866 0.0
H77 H 0.91783 0.94274 0.92482 0.0
H78 H 0.89761 0.82147 0.91143 0.0
H79 H 0.77799 0.93452 0.97419 0.0
H80 H 0.29689 0.5524 0.07914 0.0
H81 H 0.19773 0.36706 0.08449 0.0
H82 H 0.33865 0.37192 0.0353 0.0
H83 H 0.21752 0.488 0.0968 0.0
Eu84 Eu 1.04422 0.05695 0.32316 0.0
C85 C 0.26027 0.32331 0.37162 0.0
N86 N 0.2146 0.27862 0.37767 0.0
C87 C 0.30508 0.28074 0.40885 0.0
C88 C 0.3312 0.34637 0.38348 0.0
C89 C 0.2353 0.25906 0.39656 0.0
C90 C 0.35334 0.32413 0.40216 0.0
C91 C 0.28335 0.38807 0.3455 0.0
C92 C 0.23646 0.34397 0.35277 0.0
C93 C 0.35399 0.41092 0.35729 0.0
C94 C 0.3778 0.39019 0.37621 0.0
Eu95 Eu 0.09806 0.24771 0.35631 0.0
N96 N 0.16784 0.32066 0.34142 0.0
C97 C 0.25792 0.40784 0.32652 0.0
C98 C 0.14249 0.34123 0.32339 0.0
C99 C 0.18719 0.38441 0.31549 0.0
H100 H 0.19827 0.22692 0.40222 0.0
H101 H 0.16692 0.39984 0.30097 0.0
H102 H 0.93461 0.07155 0.27822 0.0
H103 H 1.00172 0.88793 0.37361 0.0
H104 H 0.0876 0.3256 0.31539 0.0
H105 H 0.29231 0.4415 0.32038 0.0
H106 H 0.07096 0.97256 0.36041 0.0
H107 H 0.32155 0.26424 0.42356 0.0
H108 H 0.3907 0.44469 0.3519 0.0
H109 H 0.4325 0.40821 0.38507 0.0
H110 H 0.81037 1.02595 0.25745 0.0
H111 H 0.40744 0.34054 0.41164 0.0
H112 H 0.87563 0.83947 0.35561 0.0
N113 N 0.92679 1.0164 0.30191 0.0
C114 C 0.88605 0.96804 0.30773 0.0
C115 C 0.83094 1.00955 0.27165 0.0
C116 C 0.81495 0.94025 0.29622 0.0
C117 C 0.90118 1.03561 0.28352 0.0
C118 C 0.78749 0.9621 0.27817 0.0
N119 N 0.98426 0.97427 0.33622 0.0
C120 C 1.01564 0.95301 0.35298 0.0
C121 C 0.87411 0.89799 0.33231 0.0
C122 C 0.91537 0.94721 0.32562 0.0
C123 C 0.90559 0.87718 0.34999 0.0
C124 C 0.97674 0.90452 0.36024 0.0
H125 H 0.73305 0.94217 0.26898 0.0
H126 H 0.7188 0.8702 0.29454 0.0
H127 H 0.77053 0.83314 0.32606 0.0
O128 O 0.05439 0.95658 0.30726 0.0
O129 O 0.95458 0.10002 0.33611 0.0
O130 O 0.98121 0.20977 0.33907 0.0
O131 O 0.07667 1.02465 0.28798 0.0
O132 O 0.09745 0.0908 0.36369 0.0
O133 O 0.05853 0.18229 0.37753 0.0
O134 O 0.09107 0.34982 0.36848 0.0
O135 O 0.18149 0.19914 0.34014 0.0
O136 O 0.15744 0.09784 0.34423 0.0
O137 O 0.08657 0.29703 0.39391 0.0
O138 O 1.03791 0.21642 0.31688 0.0
O139 O 0.0735 0.12334 0.30117 0.0
C140 C 0.93595 0.155 0.33803 0.0
C141 C 0.14907 0.95356 0.28772 0.0
C142 C 0.22654 0.88965 0.29595 0.0
C143 C 0.28117 0.93202 0.29117 0.0
C144 C 0.20373 0.99492 0.28235 0.0
C145 C 0.26923 0.98365 0.28388 0.0
C146 C 0.16065 0.90001 0.29368 0.0
C147 C 0.08017 0.13428 0.38149 0.0
C148 C 0.08194 0.96844 0.28965 0.0
C149 C 0.77361 0.89186 0.30309 0.0
C150 C 0.80307 0.87081 0.32108 0.0
C151 C 0.20179 0.14733 0.34158 0.0
C152 C 1.02737 0.38013 0.39905 0.0
C153 C 0.98719 0.47935 0.41093 0.0
C154 C 0.92207 0.44053 0.41097 0.0
C155 C 0.9625 0.34138 0.39937 0.0
C156 C 1.03969 0.44877 0.40542 0.0
C157 C 0.91032 0.37187 0.40564 0.0
C158 C 0.05058 0.1718 0.29815 0.0
C159 C 0.08196 0.35116 0.39025 0.0
H160 H 0.33276 0.92562 0.29334 0.0
H161 H 0.19662 1.03693 0.27771 0.0
H162 H 0.31143 1.01645 0.28022 0.0
H163 H 0.11902 0.86854 0.2982 0.0
H164 H 0.88021 0.46289 0.41447 0.0
H165 H 0.95173 0.28784 0.39427 0.0
H166 H 0.08918 0.47786 0.40425 0.0
H167 H 0.85996 0.34186 0.40552 0.0
Eu168 Eu 0.13834 0.21133 0.69132 0.0
C169 C 0.19728 0.95225 0.64125 0.0
N170 N 0.15917 0.98305 0.63051 0.0
C171 C 0.21642 0.96288 0.59649 0.0
C172 C 0.24965 0.92885 0.63057 0.0
C173 C 0.16587 0.98633 0.60795 0.0
C174 C 0.25924 0.93496 0.60804 0.0
C175 C 0.22067 0.90959 0.67377 0.0
C176 C 0.18257 0.94265 0.6626 0.0
C177 C 0.27529 0.88941 0.66392 0.0
C178 C 0.28968 0.89892 0.64237 0.0
Eu179 Eu 0.07343 1.01913 0.65057 0.0
N180 N 0.12826 0.96132 0.67142 0.0
C181 C 0.20095 0.89524 0.69391 0.0
C182 C 0.10483 0.94121 0.68942 0.0
C183 C 0.14191 0.90988 0.70141 0.0
H184 H 0.13321 1.00862 0.59918 0.0
H185 H 0.12408 0.89585 0.71611 0.0
H186 H 0.17016 0.22775 0.75136 0.0
H187 H 0.97441 0.31865 0.64393 0.0
H188 H 0.05696 0.94815 0.69451 0.0
H189 H 0.229 0.87012 0.70303 0.0
H190 H 0.06133 0.25821 0.64818 0.0
H191 H 0.22282 0.96695 0.57892 0.0
H192 H 0.30519 0.86427 0.67235 0.0
H193 H 0.33079 0.88149 0.63464 0.0
H194 H 0.12316 0.27004 0.78848 0.0
H195 H 0.29878 0.91737 0.59923 0.0
H196 H 0.92228 0.36507 0.67935 0.0
N197 N 0.10105 0.25422 0.72842 0.0
C198 C 0.05316 0.28822 0.72743 0.0
C199 C 0.10246 0.27484 0.77136 0.0
C200 C 1.0264 0.31514 0.74838 0.0
C201 C 0.12792 0.24958 0.75018 0.0
C202 C 0.05095 0.30717 0.7704 0.0
N203 N 0.05649 0.2687 0.6853 0.0
C204 C 1.03857 0.27801 0.66366 0.0
C205 C 0.98151 0.33161 0.70383 0.0
C206 C 1.03119 0.29679 0.70544 0.0
C207 C 0.96051 0.33882 0.68134 0.0
C208 C 0.98964 0.31245 0.66126 0.0
H209 H 1.03154 0.32695 0.78687 0.0
H210 H 0.95507 0.37009 0.76264 0.0
H211 H 0.91562 0.38424 0.72366 0.0
O212 O 0.21558 0.27985 0.68169 0.0
O213 O 1.01747 0.16848 0.67907 0.0
O214 O 0.98092 0.05249 0.66381 0.0
O215 O 0.206 0.30354 0.71979 0.0
O216 O 0.14298 0.184 0.65046 0.0
O217 O 0.04966 0.092 0.63353 0.0
O218 O 1.00789 0.91578 0.63701 0.0
O219 O 0.18616 0.0811 0.65364 0.0
O220 O 0.21677 0.15178 0.69374 0.0
O221 O 1.01502 0.97012 0.61238 0.0
O222 O 0.05475 0.04982 0.69009 0.0
O223 O 0.15144 0.13819 0.70987 0.0
C224 C 0.96775 0.11103 0.67158 0.0
C225 C 0.31848 0.33066 0.71258 0.0
C226 C 0.43556 0.38319 0.71044 0.0
C227 C 0.46228 0.35091 0.72493 0.0
C228 C 0.34584 0.29913 0.72727 0.0
C229 C 0.41747 0.30935 0.73339 0.0
C230 C 0.36346 0.37253 0.70428 0.0
C231 C 0.09683 0.13902 0.63102 0.0
C232 C 0.24324 0.31809 0.70479 0.0
C233 C 0.97647 0.34941 0.74677 0.0
C234 C 0.9541 0.35761 0.72458 0.0
C235 C 0.2349 0.11609 0.67402 0.0
C236 C 0.90678 0.89306 0.60653 0.0
C237 C 0.79518 0.81917 0.60458 0.0
C238 C 0.76135 0.85001 0.59117 0.0
C239 C 0.87214 0.92284 0.59277 0.0
C240 C 0.86788 0.84069 0.61202 0.0
C241 C 0.79985 0.9013 0.58518 0.0
C242 C 0.09935 0.09188 0.71058 0.0
C243 C 0.98299 0.91633 0.61542 0.0
H244 H 0.51768 0.35846 0.72995 0.0
H245 H 0.31192 0.26611 0.73378 0.0
H246 H 0.43827 0.2847 0.74461 0.0
H247 H 0.34205 0.39583 0.69258 0.0
H248 H 0.70529 0.83424 0.58525 0.0
H249 H 0.90064 0.96309 0.58804 0.0
H250 H 0.89418 0.81786 0.62276 0.0
H251 H 0.77356 0.92475 0.57477 0.0
H252 H 0.95203 0.35907 0.00835 0.0
H253 H 0.95028 0.46963 0.00851 0.0
H254 H 0.16546 0.51443 0.0054 0.0
H255 H 0.16702 0.40358 0.00572 0.0
H256 H 0.16313 0.63343 0.02425 0.0
H257 H 0.97852 0.48618 0.95496 0.0
H258 H 0.86996 0.39527 0.93394 0.0
H259 H 0.76094 0.50143 0.98391 0.0
H260 H 0.86902 0.59269 0.00537 0.0
H261 H 0.16275 0.94883 0.00364 0.0
H262 H 0.16459 0.83816 0.00327 0.0
H263 H 0.94918 0.79258 0.00605 0.0
H264 H 0.94742 0.90345 0.00579 0.0
H265 H 0.95179 0.67382 0.98727 0.0
H266 H 0.13824 0.8212 0.05667 0.0
H267 H 0.24738 0.91176 0.07713 0.0
H268 H 0.35355 0.80467 0.02618 0.0
H269 H 0.24488 0.71377 0.00529 0.0
C270 C 0.99953 0.39081 0.00721 0.0
C271 C 0.05915 0.36557 0.00644 0.0
C272 C 0.99861 0.45724 0.00715 0.0
C273 C 0.05715 0.50704 0.00609 0.0
C274 C 0.11728 0.48215 0.00591 0.0
C275 C 0.11819 0.41569 0.00603 0.0
C276 C 0.05638 0.58198 0.00558 0.0
C277 C 0.11597 0.64011 0.01572 0.0
C278 C 0.9973 0.59929 -0.00481 0.0
C279 C 0.93194 0.54583 0.98192 0.0
C280 C 0.93136 0.49007 0.96145 0.0
C281 C 0.86995 0.4385 0.94947 0.0
C282 C 0.80865 0.44251 0.95762 0.0
C283 C 0.80848 0.49837 0.97764 0.0
C284 C 0.86979 0.55005 0.98971 0.0
C285 C 0.11518 0.91686 0.00463 0.0
C286 C 0.0554 0.94188 0.00531 0.0
C287 C 0.11618 0.85038 0.0046 0.0
C288 C 0.05764 0.80033 0.00554 0.0
C289 C 0.99738 0.82504 0.00564 0.0
C290 C 0.99635 0.89152 0.00557 0.0
C291 C 0.05849 0.72534 0.00601 0.0
C292 C 0.99892 0.66717 -0.00417 0.0
C293 C 0.11765 0.70794 0.01631 0.0
C294 C 0.18336 0.76114 0.02927 0.0
C295 C 0.18491 0.81703 0.04985 0.0
C296 C 0.24664 0.86841 0.0615 0.0
C297 C 0.30729 0.86406 0.05291 0.0
C298 C 0.30651 0.80802 0.03279 0.0
C299 C 0.24488 0.75654 0.02104 0.0
H300 H 0.35488 0.90414 0.06185 0.0
H301 H 0.7613 0.40229 0.94843 0.0
H302 H 0.26779 0.05342 0.34681 0.0
H303 H 0.38762 0.05194 0.34527 0.0
H304 H 0.42794 0.23797 0.33337 0.0
H305 H 0.30702 0.23696 0.33318 0.0
H306 H 0.49732 0.17341 0.30773 0.0
H307 H 0.48662 0.21411 0.3928 0.0
H308 H 0.43917 0.19054 0.42675 0.0
H309 H 0.48369 1.00135 0.40467 0.0
H310 H 0.53066 1.02347 0.37037 0.0
H311 H 0.87003 0.25162 0.33623 0.0
H312 H 0.74888 0.24987 0.33693 0.0
H313 H 0.70724 0.05512 0.34175 0.0
H314 H 0.8287 0.05761 0.34179 0.0
H315 H 0.63898 0.12289 0.37087 0.0
H316 H 0.65332 0.08541 0.28643 0.0
H317 H 0.70064 0.11045 0.2527 0.0
H318 H 0.64966 0.29655 0.27421 0.0
H319 H 0.603 0.27309 0.30834 0.0
C320 C 0.302 0.09432 0.34396 0.0
C321 C 0.27661 0.14619 0.34074 0.0
C322 C 0.37166 0.09381 0.34328 0.0
C323 C 0.41977 0.14593 0.33992 0.0
C324 C 0.3938 0.19701 0.33622 0.0
C325 C 0.3239 0.19688 0.33645 0.0
C326 C 0.49619 0.14736 0.3401 0.0
C327 C 0.52808 0.16325 0.32186 0.0
C328 C 0.53823 0.13291 0.35798 0.0
C329 C 0.51171 0.12025 0.37894 0.0
C330 C 0.48615 0.16742 0.39516 0.0
C331 C 0.4593 0.15431 0.41445 0.0
C332 C 0.45834 0.09444 0.41785 0.0
C333 C 0.48447 0.04768 0.40201 0.0
C334 C 0.51128 0.06052 0.38266 0.0
C335 C 0.83532 0.20812 0.33735 0.0
C336 C 0.86043 0.15419 0.33845 0.0
C337 C 0.76511 0.20697 0.33763 0.0
C338 C 0.71654 0.15174 0.33894 0.0
C339 C 0.74202 0.0985 0.34057 0.0
C340 C 0.81221 0.09968 0.34032 0.0
C341 C 0.63999 0.14939 0.33862 0.0
C342 C 0.60814 0.13322 0.3568 0.0
C343 C 0.59813 0.164 0.32078 0.0
C344 C 0.62522 0.17776 0.30007 0.0
C345 C 0.65254 0.13185 0.28405 0.0
C346 C 0.67924 0.14575 0.26486 0.0
C347 C 0.67828 0.20512 0.26135 0.0
C348 C 0.65043 0.25062 0.27698 0.0
C349 C 0.62382 0.23703 0.29624 0.0
H350 H 0.699 0.21581 0.24649 0.0
H351 H 0.43743 0.08432 0.43277 0.0
H352 H 0.81958 0.70069 0.60159 0.0
H353 H 0.76261 0.62137 0.61894 0.0
H354 H 0.62443 0.74096 0.64199 0.0
H355 H 0.68204 0.8211 0.62509 0.0
H356 H 0.68882 0.71174 0.67957 0.0
H357 H 0.56535 0.59406 0.5943 0.0
H358 H 0.55477 0.54049 0.54931 0.0
H359 H 0.66109 0.40288 0.56181 0.0
H360 H 0.67316 0.45625 0.60693 0.0
H361 H 0.42994 0.5053 0.71104 0.0
H362 H 0.49935 0.57508 0.69301 0.0
H363 H 0.61631 0.43265 0.67186 0.0
H364 H 0.54513 0.36117 0.68931 0.0
H365 H 0.57434 0.46968 0.6341 0.0
H366 H 0.69125 0.58086 0.71877 0.0
H367 H 0.70287 0.6334 0.76386 0.0
H368 H 0.61266 0.78267 0.75296 0.0
H369 H 0.59953 0.73047 0.70776 0.0
C370 C 0.77662 0.70964 0.61017 0.0
C371 C 0.75525 0.76702 0.61211 0.0
C372 C 0.74396 0.6642 0.61993 0.0
C373 C 0.6894 0.67544 0.63169 0.0
C374 C 0.66655 0.73159 0.63296 0.0
C375 C 0.69902 0.77693 0.62314 0.0
C376 C 0.65883 0.63098 0.64405 0.0
C377 C 0.66304 0.65894 0.66961 0.0
C378 C 0.62799 0.5617 0.63114 0.0
C379 C 0.62086 0.52966 0.60401 0.0
C380 C 0.58706 0.55279 0.58748 0.0
C381 C 0.58066 0.52237 0.56194 0.0
C382 C 0.60743 0.46845 0.55271 0.0
C383 C 0.6405 0.44473 0.56899 0.0
C384 C 0.64708 0.47501 0.59454 0.0
C385 C 0.47053 0.48888 0.70259 0.0
C386 C 0.48205 0.42778 0.70146 0.0
C387 C 0.51054 0.52905 0.69251 0.0
C388 C 0.56337 0.50928 0.68134 0.0
C389 C 0.5759 0.44879 0.68051 0.0
C390 C 0.53568 0.40838 0.69062 0.0
C391 C 0.60281 0.55079 0.66955 0.0
C392 C 0.60064 0.52233 0.64413 0.0
C393 C 0.63598 0.61963 0.68261 0.0
C394 C 0.64397 0.65141 0.70983 0.0
C395 C 0.6734 0.62459 0.72596 0.0
C396 C 0.68034 0.65437 0.75155 0.0
C397 C 0.65841 0.71126 0.76126 0.0
C398 C 0.62961 0.73858 0.74541 0.0
C399 C 0.62249 0.70896 0.7198 0.0
H400 H 0.66382 0.73424 0.78108 0.0
H401 H 0.6024 0.44494 0.53294 0.0
H402 H 0.84604 1.02814 0.63775 0.0
H403 H 0.72536 1.03074 0.6385 0.0
H404 H 0.79659 0.19651 0.70831 0.0
H405 H 0.91715 0.19496 0.70728 0.0
H406 H 0.66911 0.07973 0.70361 0.0
H407 H 0.75234 0.23825 0.66601 0.0
H408 H 0.80682 0.27272 0.63521 0.0
H409 H 0.64617 0.12 0.57627 0.0
H410 H 0.59144 0.08374 0.60675 0.0
H411 H 0.34586 0.15628 0.71422 0.0
H412 H 0.4676 0.15967 0.71459 0.0
H413 H 0.41961 0.07811 0.63469 0.0
H414 H 0.29975 0.08169 0.63456 0.0
H415 H 0.5382 0.15148 0.64469 0.0
H416 H 0.45451 0.98872 0.67948 0.0
H417 H 0.40037 0.94453 0.70838 0.0
H418 H 0.55854 0.09096 0.76974 0.0
H419 H 0.61325 0.13667 0.7413 0.0
C420 C 0.8363 0.06542 0.65327 0.0
C421 C 0.89278 0.11211 0.67226 0.0
C422 C 0.76667 0.06688 0.6537 0.0
C423 C 0.75022 0.11387 0.67348 0.0
C424 C 0.80648 0.15956 0.69273 0.0
C425 C 0.8762 0.15916 0.69198 0.0
C426 C 0.67512 0.11598 0.67386 0.0
C427 C 0.64091 0.09623 0.69089 0.0
C428 C 0.63607 0.13541 0.65694 0.0
C429 C 0.6682 0.15782 0.63864 0.0
C430 C 0.72896 0.21161 0.64647 0.0
C431 C 0.75984 0.23155 0.62908 0.0
C432 C 0.73005 0.19848 0.60379 0.0
C433 C 0.66922 0.14551 0.59586 0.0
C434 C 0.63824 0.12526 0.61319 0.0
C435 C 0.3611 0.13961 0.69667 0.0
C436 C 0.31101 0.11748 0.67432 0.0
C437 C 0.43152 0.14038 0.69684 0.0
C438 C 0.45511 0.11703 0.67465 0.0
C439 C 0.405 0.09601 0.65232 0.0
C440 C 0.33507 0.09687 0.6522 0.0
C441 C 0.53098 0.11511 0.67457 0.0
C442 C 0.5657 0.13479 0.6575 0.0
C443 C 0.57008 0.09428 0.69119 0.0
C444 C 0.53763 0.06652 0.70828 0.0
C445 C 0.47757 1.01172 0.69915 0.0
C446 C 0.44676 0.9864 0.71544 0.0
C447 C 0.47587 1.01502 0.74086 0.0
C448 C 0.536 0.06891 0.75005 0.0
C449 C 0.56697 0.09453 0.73386 0.0
H450 H 0.4519 0.99534 0.75343 0.0
H451 H 0.75402 0.21397 0.59034 0.0
H452 H 0.811 0.74051 0.96849 0.0
H453 H 0.73111 0.67611 0.98579 0.0
H454 H 0.58572 0.78759 0.97804 0.0
H455 H 0.66488 0.85161 0.96054 0.0
H456 H 0.60226 0.7762 0.02289 0.0
H457 H 0.56011 0.63226 0.93784 0.0
H458 H 0.5908 0.56777 0.8997 0.0
H459 H 0.66375 0.44842 0.93644 0.0
H460 H 0.63514 0.51331 0.97504 0.0
H461 H 0.30522 0.56537 0.03937 0.0
H462 H 0.38553 0.62913 0.02202 0.0
H463 H 0.53066 0.51796 0.03051 0.0
H464 H 0.45116 0.45468 0.04815 0.0
H465 H 0.51469 0.52905 0.9854 0.0
H466 H 0.55638 0.67286 0.07042 0.0
H467 H 0.52591 0.73759 0.10857 0.0
H468 H 0.45386 0.8574 0.07186 0.0
H469 H 0.48209 0.7922 0.03323 0.0
C470 C 0.76168 0.75077 0.97025 0.0
C471 C 0.74407 0.80096 0.96309 0.0
C472 C 0.71624 0.71413 0.98019 0.0
C473 C 0.65231 0.72682 0.98302 0.0
C474 C 0.6349 0.7772 0.97608 0.0
C475 C 0.68023 0.8138 0.96614 0.0
C476 C 0.60344 0.68779 -0.00671 0.0
C477 C 0.58236 0.72221 0.01452 0.0
C478 C 0.57883 0.61728 0.98263 0.0
C479 C 0.59633 0.57829 0.95945 0.0
C480 C 0.5835 0.59281 0.9379 0.0
C481 C 0.6005 0.55615 0.91618 0.0
C482 C 0.62965 0.5043 0.9157 0.0
C483 C 0.64166 0.4889 0.93691 0.0
C484 C 0.62509 0.52562 0.95871 0.0
C485 C 0.35455 0.555 0.03777 0.0
C486 C 0.37201 0.50518 0.04522 0.0
C487 C 0.40023 0.59127 0.02778 0.0
C488 C 0.46423 0.57855 0.02517 0.0
C489 C 0.48143 0.52838 0.03232 0.0
C490 C 0.43588 0.49219 0.04233 0.0
C491 C 0.51344 0.61747 0.01498 0.0
C492 C 0.53459 0.58304 -0.00623 0.0
C493 C 0.53808 0.68798 0.02564 0.0
C494 C 0.52053 0.727 0.04881 0.0
C495 C 0.53319 0.71243 0.07036 0.0
C496 C 0.51634 0.74925 0.09208 0.0
C497 C 0.48752 0.8013 0.09258 0.0
C498 C 0.47567 0.81675 0.07138 0.0
C499 C 0.49205 0.77985 0.04956 0.0
H500 H 0.47467 0.82987 0.10943 0.0
H501 H 0.64264 0.47587 0.89886 0.0
H502 H 0.08913 0.59068 0.44166 0.0
H503 H 0.14409 0.67854 0.42766 0.0
H504 H 0.97069 0.60704 0.36534 0.0
H505 H 0.91567 0.51943 0.37928 0.0
H506 H 0.10502 0.58375 0.35629 0.0
H507 H 1.00745 0.75953 0.40004 0.0
H508 H 0.98701 0.83772 0.43775 0.0
H509 H 0.20678 0.92483 0.46577 0.0
H510 H 0.22865 0.84652 0.42845 0.0
H511 H 0.15589 0.75865 0.27844 0.0
H512 H 0.13528 0.69267 0.30406 0.0
H513 H 0.29929 0.84209 0.36369 0.0
H514 H 0.31698 0.91035 0.33819 0.0
H515 H 0.19063 0.82881 0.37984 0.0
H516 H 0.29445 0.66643 0.33805 0.0
H517 H 0.32597 0.58628 0.30379 0.0
H518 H 0.11192 0.47179 0.27559 0.0
H519 H 0.07896 0.55131 0.30958 0.0
C520 C 0.06074 0.59665 0.42591 0.0
C521 C 0.99887 0.5479 0.41126 0.0
C522 C 0.0924 0.64651 0.41784 0.0
C523 C 0.06195 0.64804 0.39522 0.0
C524 C 0.99495 0.60615 0.3828 0.0
C525 C 0.96316 0.55655 0.39093 0.0
C526 C 0.10561 0.6798 0.38163 0.0
C527 C 0.12321 0.63737 0.36114 0.0
C528 C 0.1332 0.74949 0.38924 0.0
C529 C 0.11969 0.79652 0.41159 0.0
C530 C 0.05143 0.79483 0.41436 0.0
C531 C 1.03959 0.83931 0.43563 0.0
C532 C 0.0956 0.88588 0.45416 0.0
C533 C 0.16351 0.88852 0.45142 0.0
C534 C 0.17564 0.84416 0.43022 0.0
C535 C 0.18978 0.77579 0.29658 0.0
C536 C 0.23729 0.83968 0.30651 0.0
C537 C 0.17821 0.73786 0.3113 0.0
C538 C 0.21535 0.76242 0.33601 0.0
C539 C 0.26953 0.82235 0.34477 0.0
C540 C 0.28036 0.86095 0.3301 0.0
C541 C 0.18792 0.73271 0.35348 0.0
C542 C 0.17362 0.77515 0.37494 0.0
C543 C 0.1649 0.66276 0.34716 0.0
C544 C 0.18423 0.61519 0.32636 0.0
C545 C 0.25401 0.62447 0.32445 0.0
C546 C 0.27215 0.579 0.3051 0.0
C547 C 0.22097 0.52405 0.2875 0.0
C548 C 0.15151 0.51443 0.28922 0.0
C549 C 0.13312 0.55952 0.30859 0.0
H550 H 0.23513 0.48883 0.27257 0.0
H551 H 0.0865 0.91998 0.47063 0.0
H552 H 0.11126 0.11374 0.26102 0.0
H553 H 0.10714 0.12423 0.22075 0.0
H554 H 0.97925 0.25727 0.2386 0.0
H555 H 0.98292 0.24675 0.27934 0.0
H556 H 0.93103 0.16495 0.19075 0.0
H557 H 0.14309 0.32229 0.23905 0.0
H558 H 0.25606 0.36498 0.26867 0.0
H559 H 0.33343 0.22086 0.21893 0.0
H560 H 0.22054 0.17672 0.18908 0.0
H561 H 0.10733 0.27409 0.09178 0.0
H562 H 0.10619 0.28602 0.13482 0.0
H563 H 0.97292 0.08445 0.1098 0.0
H564 H 0.97346 0.07252 0.06679 0.0
H565 H 0.14995 0.22969 0.16376 0.0
H566 H 0.8665 0.06656 0.14807 0.0
H567 H 0.75177 1.04003 0.12101 0.0
H568 H 0.81498 0.2245 0.10932 0.0
H569 H 0.92981 0.25233 0.13643 0.0
C570 C 0.08204 0.14529 0.25652 0.0
C571 C 0.0476 0.17963 0.27362 0.0
C572 C 0.08005 0.15148 0.2334 0.0
C573 C 1.04338 0.19197 0.22655 0.0
C574 C 1.00804 0.22578 0.2434 0.0
C575 C 1.0105 0.22004 0.26676 0.0
C576 C 1.04253 0.19827 0.20176 0.0
C577 C 0.97888 0.17918 0.18487 0.0
C578 C 0.10473 0.21897 0.19419 0.0
C579 C 0.17313 0.24583 0.21189 0.0
C580 C 0.18402 0.29938 0.23448 0.0
C581 C 0.24806 0.32389 0.25131 0.0
C582 C 0.30181 0.29551 0.24572 0.0
C583 C 0.2917 0.24274 0.22324 0.0
C584 C 0.22773 0.21803 0.20632 0.0
C585 C 0.07748 0.23234 0.0954 0.0
C586 C 1.03971 0.17261 0.07566 0.0
C587 C 0.07701 0.23919 0.12012 0.0
C588 C 1.03867 0.18657 0.12582 0.0
C589 C 1.00168 0.12655 0.1061 0.0
C590 C 1.00205 0.11972 0.08139 0.0
C591 C 1.03836 0.19377 0.15228 0.0
C592 C 0.10194 0.21552 0.16956 0.0
C593 C 0.97595 0.17763 0.16044 0.0
C594 C 0.90695 0.1612 0.14412 0.0
C595 C 0.85583 0.10152 0.13978 0.0
C596 C 0.79081 0.08623 0.12441 0.0
C597 C 0.77616 0.13048 0.11341 0.0
C598 C 0.82646 0.19018 0.11779 0.0
C599 C 0.89158 0.20562 0.13309 0.0
H600 H 0.72582 0.11854 0.1015 0.0
H601 H 0.35134 0.31449 0.25879 0.0
H602 H 1.02779 0.2035 0.41919 0.0
H603 H 1.03546 0.201 0.4607 0.0
H604 H 0.14717 0.05326 0.44294 0.0
H605 H 0.13945 0.05531 0.40094 0.0
H606 H 0.05588 1.02398 0.47003 0.0
H607 H 0.23222 0.21611 0.47777 0.0
H608 H 0.28117 0.3208 0.47159 0.0
H609 H 0.1478 0.41321 0.51366 0.0
H610 H 0.09703 0.3086 0.51969 0.0
H611 H 0.20423 0.20181 0.61497 0.0
H612 H 0.20705 0.19761 0.57272 0.0
H613 H 0.99288 0.07833 0.54791 0.0
H614 H 0.99101 0.07984 0.58971 0.0
H615 H 0.1492 0.23832 0.54193 0.0
H616 H 0.95384 0.97526 0.48882 0.0
H617 H 0.9166 0.86721 0.49398 0.0
H618 H 0.11268 0.91232 0.54301 0.0
H619 H 0.1516 1.02016 0.53784 0.0
C620 C 0.05403 0.17024 0.42395 0.0
C621 C 0.08312 0.12964 0.40653 0.0
C622 C 0.05852 0.16904 0.44786 0.0
C623 C 0.09288 0.12778 0.45529 0.0
C624 C 0.12052 0.08576 0.43779 0.0
C625 C 0.11598 0.08689 0.41371 0.0
C626 C 0.10065 0.12995 0.48144 0.0
C627 C 0.07651 0.07078 0.48575 0.0
C628 C 0.12904 0.19076 0.50214 0.0
C629 C 0.16046 0.2543 0.49904 0.0
C630 C 0.21304 0.25863 0.4856 0.0
C631 C 0.24112 0.31796 0.48211 0.0
C632 C 0.21755 0.3736 0.4922 0.0
C633 C 0.16598 0.37005 0.50585 0.0
C634 C 0.13756 0.31075 0.50932 0.0
C635 C 0.15771 0.17482 0.6005 0.0
C636 C 0.09752 0.14091 0.60578 0.0
C637 C 0.15932 0.17241 0.57627 0.0
C638 C 0.10062 0.13651 0.55671 0.0
C639 C 1.03972 0.10472 0.56226 0.0
C640 C 1.03849 0.10609 0.58633 0.0
C641 C 0.10282 0.13238 0.53064 0.0
C642 C 0.12889 0.19128 0.5263 0.0
C643 C 0.07807 0.07101 0.50997 0.0
C644 C 0.05531 1.00611 0.51312 0.0
C645 C 0.98907 0.96206 0.50065 0.0
C646 C 0.9677 0.90085 0.50358 0.0
C647 C 1.01217 0.88306 0.51889 0.0
C648 C 0.07824 0.92632 0.53123 0.0
C649 C 0.09997 0.98749 0.52832 0.0
H650 H 0.99549 0.83569 0.52115 0.0
H651 H 0.23931 0.41949 0.48948 0.0
H652 H 0.20372 0.11541 0.74957 0.0
H653 H 0.19439 0.11759 0.79113 0.0
H654 H 0.97114 0.05941 0.76865 0.0
H655 H 0.98048 0.05737 0.72688 0.0
H656 H 1.01782 0.1632 0.81376 0.0
H657 H 0.05148 0.94741 0.77713 0.0
H658 H 0.1095 0.86746 0.75435 0.0
H659 H 0.29802 0.97108 0.81003 0.0
H660 H 0.24111 0.05181 0.83313 0.0
H661 H 1.02198 1.02678 0.92111 0.0
H662 H 1.02203 1.01244 0.87775 0.0
H663 H 0.12606 0.2222 0.90026 0.0
H664 H 0.12667 0.23672 0.9437 0.0
H665 H 0.13027 1.03512 0.85397 0.0
H666 H 0.0601 0.27532 0.85578 0.0
H667 H 0.994 0.34853 0.87751 0.0
H668 H 0.86362 0.18344 0.8889 0.0
H669 H 0.92894 0.10948 0.86732 0.0
C670 C 0.15259 0.1024 0.75341 0.0
C671 C 0.09281 0.0862 0.73493 0.0
C672 C 0.14729 0.10361 0.7772 0.0
C673 C 0.08204 0.08854 0.78318 0.0
C674 C 1.02212 0.07136 0.7646 0.0
C675 C 1.02743 0.06956 0.74066 0.0
C676 C 0.07683 0.09189 0.80889 0.0
C677 C 1.04244 0.13512 0.82249 0.0
C678 C 0.10805 0.05482 0.8204 0.0
C679 C 0.14219 1.00593 0.80675 0.0
C680 C 0.10542 0.95335 0.78445 0.0
C681 C 0.13808 0.90787 0.77149 0.0
C682 C 0.2075 0.91438 0.78066 0.0
C683 C 0.24427 0.96615 0.80292 0.0
C684 C 0.21178 1.01167 0.81599 0.0
C685 C 1.04493 0.0699 0.91686 0.0
C686 C 0.07444 0.13291 0.93596 0.0
C687 C 0.04518 0.06155 0.89202 0.0
C688 C 0.07376 0.1162 0.88557 0.0
C689 C 0.10326 0.17923 0.90463 0.0
C690 C 0.10387 0.18744 0.92952 0.0
C691 C 0.07247 0.10738 0.85897 0.0
C692 C 0.10576 0.06325 0.84523 0.0
C693 C 1.03949 0.14295 0.84723 0.0
C694 C 0.99984 0.1871 0.86015 0.0
C695 C 1.0173 0.25472 0.86292 0.0
C696 C 0.98007 0.29638 0.87527 0.0
C697 C 0.92489 0.27077 0.88471 0.0
C698 C 0.9067 0.20341 0.88177 0.0
C699 C 0.94395 0.16166 0.86956 0.0
H700 H 0.89611 0.30307 0.89425 0.0
H701 H 0.23274 0.87921 0.77057 0.0
loop_
_geom_bond_atom_site_label_1
_geom_bond_atom_site_label_2
_geom_bond_distance
_geom_bond_site_symmetry_2
_ccdc_geom_bond_type
Eu0 N29 2.600 1_554 S
Eu0 N35 2.562 . S
Eu0 O44 2.462 . S
Eu0 O45 2.373 . S
Eu0 O47 2.432 1_544 S
Eu0 O48 2.291 . S
Eu0 O52 2.335 . S
Eu0 O55 2.372 1_554 S
Eu0 C64 2.805 1_544 S
C1 N2 1.365 . S
C1 C4 1.405 . S
C1 C8 1.448 . S
N2 C1 1.365 . S
N2 C5 1.319 . S
N2 Eu11 2.600 . S
C3 C5 1.397 . S
C3 C6 1.367 . S
C3 H23 0.931 . S
C4 C1 1.405 . S
C4 C6 1.403 . S
C4 C10 1.439 . S
C5 N2 1.319 . S
C5 C3 1.397 . S
C5 H16 0.930 . S
C6 C3 1.367 . S
C6 C4 1.403 . S
C6 H27 0.929 . S
C7 C8 1.430 . S
C7 C9 1.387 . S
C7 C13 1.404 1_554 S
C8 C1 1.448 . S
C8 C7 1.430 . S
C8 N12 1.351 . S
C9 C7 1.387 . S
C9 C10 1.374 . S
C9 H24 0.931 . S
C10 C4 1.439 . S
C10 C9 1.374 . S
C10 H25 0.931 . S
Eu11 N2 2.600 . S
Eu11 N12 2.562 . S
Eu11 O46 2.335 . S
Eu11 O49 2.372 . S
Eu11 O50 2.462 . S
Eu11 O51 2.373 . S
Eu11 O53 2.432 . S
Eu11 O54 2.291 1_554 S
Eu11 C75 2.787 . S
N12 C8 1.351 . S
N12 Eu11 2.562 . S
N12 C14 1.325 1_554 S
C13 C7 1.404 1_556 S
C13 C15 1.366 . S
C13 H21 0.930 . S
C14 N12 1.325 1_556 S
C14 C15 1.416 . S
C14 H20 0.929 . S
C15 C13 1.366 . S
C15 C14 1.416 . S
C15 H17 0.930 . S
H16 C5 0.930 . S
H17 C15 0.930 . S
H18 C33 0.930 . S
H19 C40 0.930 . S
H20 C14 0.929 . S
H21 C13 0.930 . S
H22 C36 0.929 . S
H23 C3 0.931 . S
H24 C9 0.931 . S
H25 C10 0.931 . S
H26 C31 0.931 . S
H27 C6 0.929 . S
H28 C39 0.930 . S
N29 Eu0 2.600 1_556 S
N29 C30 1.365 . S
N29 C33 1.319 . S
C30 N29 1.365 . S
C30 C32 1.405 . S
C30 C38 1.448 1_556 S
C31 H26 0.931 . S
C31 C33 1.397 . S
C31 C34 1.367 . S
C32 C30 1.405 . S
C32 C34 1.403 . S
C32 C65 1.439 . S
C33 H18 0.930 . S
C33 N29 1.319 . S
C33 C31 1.397 . S
C34 C31 1.367 . S
C34 C32 1.403 . S
C34 H41 0.929 . S
N35 Eu0 2.562 . S
N35 C36 1.325 . S
N35 C38 1.351 . S
C36 H22 0.929 . S
C36 N35 1.325 . S
C36 C40 1.416 . S
C37 C38 1.430 . S
C37 C39 1.404 . S
C37 C66 1.387 1_554 S
C38 C30 1.448 1_554 S
C38 N35 1.351 . S
C38 C37 1.430 . S
C39 H28 0.930 . S
C39 C37 1.404 . S
C39 C40 1.366 . S
C40 H19 0.930 . S
C40 C36 1.416 . S
C40 C39 1.366 . S
H41 C34 0.929 . S
H42 C65 0.931 . S
H43 C66 0.929 . S
O44 Eu0 2.462 . S
O44 C64 1.220 1_544 S
O45 Eu0 2.373 . S
O45 C56 1.249 . S
O46 Eu11 2.335 . S
O46 C56 1.264 1_455 S
O47 Eu0 2.432 1_566 S
O47 C64 1.318 . S
O48 Eu0 2.291 . S
O48 C63 1.255 1_655 S
O49 Eu11 2.372 . S
O49 C63 1.257 . S
O50 Eu11 2.462 . S
O50 C75 1.252 . S
O51 Eu11 2.373 . S
O51 C67 1.249 . S
O52 Eu0 2.335 . S
O52 C67 1.264 1_655 S
O53 Eu11 2.432 . S
O53 C75 1.268 . S
O54 Eu11 2.291 1_556 S
O54 C74 1.255 . S
O55 Eu0 2.372 1_556 S
O55 C74 1.257 1_655 S
C56 O45 1.249 . S
C56 O46 1.264 1_655 S
C57 C60 1.382 . S
C57 C62 1.390 1_556 S
C57 C64 1.490 . S
C58 C59 1.398 1_554 S
C58 C62 1.392 . S
C59 C58 1.398 1_556 S
C59 C61 1.372 . S
C59 H76 0.931 . S
C60 C57 1.382 . S
C60 C61 1.390 . S
C60 H77 0.931 . S
C61 C59 1.372 . S
C61 C60 1.390 . S
C61 H78 0.929 . S
C62 C57 1.390 1_554 S
C62 C58 1.392 . S
C62 H79 0.930 . S
C63 O48 1.255 1_455 S
C63 O49 1.257 . S
C64 Eu0 2.805 1_566 S
C64 O44 1.220 1_566 S
C64 O47 1.318 . S
C64 C57 1.490 . S
C65 C32 1.439 . S
C65 H42 0.931 . S
C65 C66 1.374 . S
C66 C37 1.387 1_556 S
C66 H43 0.929 . S
C66 C65 1.374 . S
C67 O51 1.249 . S
C67 O52 1.264 1_455 S
C68 C71 1.382 . S
C68 C72 1.390 . S
C68 C75 1.506 . S
C69 C70 1.398 . S
C69 C72 1.392 . S
C70 C69 1.398 . S
C70 C73 1.372 . S
C70 H80 0.931 . S
C71 C68 1.382 . S
C71 C73 1.390 . S
C71 H81 0.931 . S
C72 C68 1.390 . S
C72 C69 1.392 . S
C72 H82 0.930 1_554 S
C73 C70 1.372 . S
C73 C71 1.390 . S
C73 H83 0.929 . S
C74 O54 1.255 . S
C74 O55 1.257 1_455 S
C75 Eu11 2.787 . S
C75 O50 1.252 . S
C75 O53 1.268 . S
C75 C68 1.506 . S
H76 C59 0.931 . S
H77 C60 0.931 . S
H78 C61 0.929 . S
H79 C62 0.930 . S
H80 C70 0.931 . S
H81 C71 0.931 . S
H82 C72 0.930 1_556 S
H83 C73 0.929 . S
Eu84 N113 2.600 1_545 S
Eu84 N119 2.562 1_545 S
Eu84 O128 2.462 1_645 S
Eu84 O129 2.373 . S
Eu84 O131 2.432 1_645 S
Eu84 O132 2.291 1_655 S
Eu84 O136 2.335 1_655 S
Eu84 O139 2.372 1_655 S
Eu84 C148 2.787 1_645 S
C85 N86 1.365 . S
C85 C88 1.405 . S
C85 C92 1.448 . S
N86 C85 1.365 . S
N86 C89 1.319 . S
N86 Eu95 2.600 . S
C87 C89 1.397 . S
C87 C90 1.367 . S
C87 H107 0.931 . S
C88 C85 1.405 . S
C88 C90 1.403 . S
C88 C94 1.439 . S
C89 N86 1.319 . S
C89 C87 1.397 . S
C89 H100 0.930 . S
C90 C87 1.367 . S
C90 C88 1.403 . S
C90 H111 0.929 . S
C91 C92 1.430 . S
C91 C93 1.387 . S
C91 C97 1.404 . S
C92 C85 1.448 . S
C92 C91 1.430 . S
C92 N96 1.351 . S
C93 C91 1.387 . S
C93 C94 1.374 . S
C93 H108 0.931 . S
C94 C88 1.439 . S
C94 C93 1.374 . S
C94 H109 0.931 . S
Eu95 N86 2.600 . S
Eu95 N96 2.562 . S
Eu95 O130 2.335 1_455 S
Eu95 O133 2.372 . S
Eu95 O134 2.462 . S
Eu95 O135 2.373 . S
Eu95 O137 2.432 . S
Eu95 O138 2.291 . S
Eu95 C159 2.787 . S
N96 C92 1.351 . S
N96 Eu95 2.562 . S
N96 C98 1.325 . S
C97 C91 1.404 . S
C97 C99 1.366 . S
C97 H105 0.930 . S
C98 N96 1.325 . S
C98 C99 1.416 . S
C98 H104 0.929 . S
C99 C97 1.366 . S
C99 C98 1.416 . S
C99 H101 0.930 . S
H100 C89 0.930 . S
H101 C99 0.930 . S
H102 C117 0.926 1_545 S
H103 C124 0.930 . S
H104 C98 0.929 . S
H105 C97 0.930 . S
H106 C120 0.929 1_545 S
H107 C87 0.931 . S
H108 C93 0.931 . S
H109 C94 0.931 . S
H110 C115 0.931 . S
H111 C90 0.929 . S
H112 C123 0.930 . S
N113 Eu84 2.600 1_565 S
N113 C114 1.365 . S
N113 C117 1.319 . S
C114 N113 1.365 . S
C114 C116 1.405 . S
C114 C122 1.448 . S
C115 H110 0.931 . S
C115 C117 1.397 . S
C115 C118 1.367 . S
C116 C114 1.405 . S
C116 C118 1.403 . S
C116 C149 1.439 . S
C117 H102 0.926 1_565 S
C117 N113 1.319 . S
C117 C115 1.397 . S
C118 C115 1.367 . S
C118 C116 1.403 . S
C118 H125 0.929 . S
N119 Eu84 2.562 1_565 S
N119 C120 1.325 . S
N119 C122 1.351 . S
C120 H106 0.929 1_565 S
C120 N119 1.325 . S
C120 C124 1.416 . S
C121 C122 1.430 . S
C121 C123 1.404 . S
C121 C150 1.387 . S
C122 C114 1.448 . S
C122 N119 1.351 . S
C122 C121 1.430 . S
C123 H112 0.930 . S
C123 C121 1.404 . S
C123 C124 1.366 . S
C124 H103 0.930 . S
C124 C120 1.416 . S
C124 C123 1.366 . S
H125 C118 0.929 . S
H126 C149 0.931 . S
H127 C150 0.931 . S
O128 Eu84 2.462 1_465 S
O128 C148 1.252 . S
O129 Eu84 2.373 . S
O129 C140 1.249 . S
O130 Eu95 2.335 1_655 S
O130 C140 1.264 . S
O131 Eu84 2.432 1_465 S
O131 C148 1.268 . S
O132 Eu84 2.291 1_455 S
O132 C147 1.255 . S
O133 Eu95 2.372 . S
O133 C147 1.257 . S
O134 Eu95 2.462 . S
O134 C159 1.252 . S
O135 Eu95 2.373 . S
O135 C151 1.249 . S
O136 Eu84 2.335 1_455 S
O136 C151 1.264 . S
O137 Eu95 2.432 . S
O137 C159 1.268 . S
O138 Eu95 2.291 . S
O138 C158 1.255 . S
O139 Eu84 2.372 1_455 S
O139 C158 1.257 . S
C140 O129 1.249 . S
C140 O130 1.264 . S
C141 C144 1.382 . S
C141 C146 1.390 . S
C141 C148 1.506 . S
C142 C143 1.398 . S
C142 C146 1.392 . S
C143 C142 1.398 . S
C143 C145 1.372 . S
C143 H160 0.931 . S
C144 C141 1.382 . S
C144 C145 1.390 . S
C144 H161 0.931 . S
C145 C143 1.372 . S
C145 C144 1.390 . S
C145 H162 0.929 . S
C146 C141 1.390 . S
C146 C142 1.392 . S
C146 H163 0.930 . S
C147 O132 1.255 . S
C147 O133 1.257 . S
C148 Eu84 2.787 1_465 S
C148 O128 1.252 . S
C148 O131 1.268 . S
C148 C141 1.506 . S
C149 C116 1.439 . S
C149 H126 0.931 . S
C149 C150 1.374 . S
C150 C121 1.387 . S
C150 H127 0.931 . S
C150 C149 1.374 . S
C151 O135 1.249 . S
C151 O136 1.264 . S
C152 C155 1.382 . S
C152 C156 1.390 . S
C152 C159 1.506 . S
C153 C154 1.398 . S
C153 C156 1.392 . S
C154 C153 1.398 . S
C154 C157 1.372 . S
C154 H164 0.931 . S
C155 C152 1.382 . S
C155 C157 1.390 . S
C155 H165 0.931 . S
C156 C152 1.390 . S
C156 C153 1.392 . S
C156 H166 0.930 . S
C157 C154 1.372 . S
C157 C155 1.390 . S
C157 H167 0.929 . S
C158 O138 1.255 . S
C158 O139 1.257 . S
C159 Eu95 2.787 . S
C159 O134 1.252 . S
C159 O137 1.268 . S
C159 C152 1.506 . S
H160 C143 0.931 . S
H161 C144 0.931 . S
H162 C145 0.929 . S
H163 C146 0.930 . S
H164 C154 0.931 . S
H165 C155 0.931 . S
H166 C156 0.930 . S
H167 C157 0.929 . S
Eu168 N197 2.600 . S
Eu168 N203 2.562 . S
Eu168 O212 2.462 . S
Eu168 O213 2.373 . S
Eu168 O215 2.432 . S
Eu168 O216 2.291 . S
Eu168 O220 2.335 . S
Eu168 O223 2.372 . S
Eu168 C232 2.787 . S
C169 N170 1.365 . S
C169 C172 1.405 . S
C169 C176 1.448 . S
N170 C169 1.365 . S
N170 C173 1.319 . S
N170 Eu179 2.600 . S
C171 C173 1.397 . S
C171 C174 1.367 . S
C171 H191 0.931 . S
C172 C169 1.405 . S
C172 C174 1.403 . S
C172 C178 1.439 . S
C173 N170 1.319 . S
C173 C171 1.397 . S
C173 H184 0.930 . S
C174 C171 1.367 . S
C174 C172 1.403 . S
C174 H195 0.929 . S
C175 C176 1.430 . S
C175 C177 1.387 . S
C175 C181 1.404 . S
C176 C169 1.448 . S
C176 C175 1.430 . S
C176 N180 1.351 . S
C177 C175 1.387 . S
C177 C178 1.374 . S
C177 H192 0.931 . S
C178 C172 1.439 . S
C178 C177 1.374 . S
C178 H193 0.931 . S
Eu179 N170 2.600 . S
Eu179 N180 2.562 . S
Eu179 O214 2.335 1_455 S
Eu179 O217 2.372 . S
Eu179 O218 2.462 1_455 S
Eu179 O219 2.373 . S
Eu179 O221 2.432 1_455 S
Eu179 O222 2.291 . S
Eu179 C243 2.787 1_455 S
N180 C176 1.351 . S
N180 Eu179 2.562 . S
N180 C182 1.325 . S
C181 C175 1.404 . S
C181 C183 1.366 . S
C181 H189 0.930 . S
C182 N180 1.325 . S
C182 C183 1.416 . S
C182 H188 0.929 . S
C183 C181 1.366 . S
C183 C182 1.416 . S
C183 H185 0.930 . S
H184 C173 0.930 . S
H185 C183 0.930 . S
H186 C201 0.930 . S
H187 C208 0.930 1_655 S
H188 C182 0.929 . S
H189 C181 0.930 . S
H190 C204 0.929 . S
H191 C171 0.931 . S
H192 C177 0.931 . S
H193 C178 0.931 . S
H194 C199 0.931 . S
H195 C174 0.929 . S
H196 C207 0.930 . S
N197 Eu168 2.600 . S
N197 C198 1.365 . S
N197 C201 1.319 . S
C198 N197 1.365 . S
C198 C200 1.405 . S
C198 C206 1.448 . S
C199 H194 0.931 . S
C199 C201 1.397 . S
C199 C202 1.367 . S
C200 C198 1.405 . S
C200 C202 1.403 . S
C200 C233 1.439 1_455 S
C201 H186 0.930 . S
C201 N197 1.319 . S
C201 C199 1.397 . S
C202 C199 1.367 . S
C202 C200 1.403 . S
C202 H209 0.929 . S
N203 Eu168 2.562 . S
N203 C204 1.325 . S
N203 C206 1.351 . S
C204 H190 0.929 . S
C204 N203 1.325 . S
C204 C208 1.416 . S
C205 C206 1.428 1_655 S
C205 C207 1.405 . S
C205 C234 1.389 . S
C206 C198 1.448 . S
C206 N203 1.351 . S
C206 C205 1.428 1_455 S
C207 H196 0.930 . S
C207 C205 1.405 . S
C207 C208 1.366 1_655 S
C208 H187 0.930 1_455 S
C208 C204 1.416 . S
C208 C207 1.366 1_455 S
H209 C202 0.929 . S
H210 C233 0.931 . S
H211 C234 0.931 . S
O212 Eu168 2.462 . S
O212 C232 1.252 . S
O213 Eu168 2.373 . S
O213 C224 1.249 1_455 S
O214 Eu179 2.335 1_655 S
O214 C224 1.264 1_565 S
O215 Eu168 2.432 . S
O215 C232 1.268 . S
O216 Eu168 2.291 . S
O216 C231 1.255 . S
O217 Eu179 2.372 . S
O217 C231 1.257 1_565 S
O218 Eu179 2.462 1_655 S
O218 C243 1.252 . S
O219 Eu179 2.373 . S
O219 C235 1.249 1_565 S
O220 Eu168 2.335 . S
O220 C235 1.264 . S
O221 Eu179 2.432 1_655 S
O221 C243 1.268 . S
O222 Eu179 2.291 . S
O222 C242 1.255 1_565 S
O223 Eu168 2.372 . S
O223 C242 1.257 . S
C224 O213 1.249 1_655 S
C224 O214 1.264 1_545 S
C225 C228 1.382 . S
C225 C230 1.390 . S
C225 C232 1.506 . S
C226 C227 1.398 . S
C226 C230 1.392 . S
C227 C226 1.398 . S
C227 C229 1.372 . S
C227 H244 0.931 . S
C228 C225 1.382 . S
C228 C229 1.390 . S
C228 H245 0.931 . S
C229 C227 1.372 . S
C229 C228 1.390 . S
C229 H246 0.929 . S
C230 C225 1.390 . S
C230 C226 1.392 . S
C230 H247 0.930 . S
C231 O216 1.255 . S
C231 O217 1.257 1_545 S
C232 Eu168 2.787 . S
C232 O212 1.252 . S
C232 O215 1.268 . S
C232 C225 1.506 . S
C233 C200 1.439 1_655 S
C233 H210 0.931 . S
C233 C234 1.374 . S
C234 C205 1.389 . S
C234 H211 0.931 . S
C234 C233 1.374 . S
C235 O219 1.249 1_545 S
C235 O220 1.264 . S
C236 C239 1.382 . S
C236 C240 1.390 . S
C236 C243 1.506 . S
C237 C238 1.398 . S
C237 C240 1.392 . S
C238 C237 1.398 . S
C238 C241 1.372 . S
C238 H248 0.931 . S
C239 C236 1.382 . S
C239 C241 1.390 . S
C239 H249 0.931 . S
C240 C236 1.390 . S
C240 C237 1.392 . S
C240 H250 0.930 . S
C241 C238 1.372 . S
C241 C239 1.390 . S
C241 H251 0.929 . S
C242 O222 1.255 1_545 S
C242 O223 1.257 . S
C243 Eu179 2.787 1_655 S
C243 O218 1.252 . S
C243 O221 1.268 . S
C243 C236 1.506 . S
H244 C227 0.931 . S
H245 C228 0.931 . S
H246 C229 0.929 . S
H247 C230 0.930 . S
H248 C238 0.931 . S
H249 C239 0.931 . S
H250 C240 0.930 . S
H251 C241 0.929 . S
H252 C270 0.951 . S
H253 C272 0.951 . S
H254 C274 0.940 1_556 S
H255 C275 0.950 1_556 S
H256 C277 0.950 . S
H257 C280 0.976 . S
H258 C281 0.950 . S
H259 C283 0.950 . S
H260 C284 0.950 . S
H261 C285 0.951 . S
H262 C287 0.951 . S
H263 C289 0.950 . S
H264 C290 0.950 . S
H265 C292 0.950 . S
H266 C295 0.950 . S
H267 C296 0.950 . S
H268 C298 0.950 . S
H269 C299 0.950 . S
C270 H252 0.951 . S
C270 C271 1.366 . S
C270 C272 1.388 . S
C271 C270 1.366 . S
C271 C275 1.385 1_655 S
C272 H253 0.951 . S
C272 C270 1.388 . S
C272 C273 1.366 . S
C273 C272 1.366 . S
C273 C274 1.420 1_655 S
C273 C276 1.499 1_655 S
C274 H254 0.940 1_554 S
C274 C273 1.420 1_455 S
C274 C275 1.378 . S
C275 H255 0.950 1_554 S
C275 C271 1.385 1_455 S
C275 C274 1.378 . S
C276 C273 1.499 1_455 S
C276 C277 1.373 . S
C276 C278 1.389 1_455 S
C277 H256 0.950 . S
C277 C276 1.373 . S
C277 C293 1.377 . S
C278 C276 1.389 1_655 S
C278 C279 1.524 . S
C278 C292 1.377 . S
C279 C278 1.524 . S
C279 C280 1.382 1_554 S
C279 C284 1.363 . S
C280 H257 0.976 . S
C280 C279 1.382 1_556 S
C280 C281 1.325 . S
C281 H258 0.950 . S
C281 C280 1.325 . S
C281 C282 1.287 1_556 S
C282 C281 1.287 1_554 S
C282 C283 1.524 . S
C282 H301 0.913 . S
C283 H259 0.950 . S
C283 C282 1.524 . S
C283 C284 1.415 . S
C284 H260 0.950 . S
C284 C279 1.363 . S
C284 C283 1.415 . S
C285 H261 0.951 . S
C285 C286 1.366 1_556 S
C285 C287 1.388 . S
C286 C285 1.366 1_554 S
C286 C290 1.385 1_455 S
C287 H262 0.951 . S
C287 C285 1.388 . S
C287 C288 1.366 1_556 S
C288 C287 1.366 1_554 S
C288 C289 1.414 1_455 S
C288 C291 1.499 . S
C289 H263 0.950 . S
C289 C288 1.414 1_655 S
C289 C290 1.374 . S
C290 H264 0.950 . S
C290 C286 1.385 1_655 S
C290 C289 1.374 . S
C291 C288 1.499 . S
C291 C292 1.373 1_455 S
C291 C293 1.389 . S
C292 H265 0.950 . S
C292 C278 1.377 . S
C292 C291 1.373 1_655 S
C293 C277 1.377 . S
C293 C291 1.389 . S
C293 C294 1.524 . S
C294 C293 1.524 . S
C294 C295 1.397 . S
C294 C299 1.363 1_554 S
C295 H266 0.950 . S
C295 C294 1.397 . S
C295 C296 1.334 . S
C296 H267 0.950 . S
C296 C295 1.334 . S
C296 C297 1.287 . S
C297 C296 1.287 . S
C297 C298 1.524 1_554 S
C297 H300 0.999 . S
C298 H268 0.950 . S
C298 C297 1.524 1_556 S
C298 C299 1.415 . S
C299 H269 0.950 . S
C299 C294 1.363 1_556 S
C299 C298 1.415 . S
H300 C297 0.999 . S
H301 C282 0.913 . S
H302 C320 0.951 . S
H303 C322 0.951 . S
H304 C324 0.950 . S
H305 C325 0.950 . S
H306 C327 0.950 . S
H307 C330 0.950 . S
H308 C331 0.950 . S
H309 C333 0.965 . S
H310 C334 0.950 . S
H311 C335 0.951 . S
H312 C337 0.951 . S
H313 C339 0.950 . S
H314 C340 0.950 . S
H315 C342 0.950 . S
H316 C345 0.950 . S
H317 C346 0.950 . S
H318 C348 0.950 . S
H319 C349 0.950 . S
C320 H302 0.951 . S
C320 C321 1.366 . S
C320 C322 1.388 . S
C321 C320 1.366 . S
C321 C325 1.385 . S
C322 H303 0.951 . S
C322 C320 1.388 . S
C322 C323 1.366 . S
C323 C322 1.366 . S
C323 C324 1.414 . S
C323 C326 1.499 . S
C324 H304 0.950 . S
C324 C323 1.414 . S
C324 C325 1.374 . S
C325 H305 0.950 . S
C325 C321 1.385 . S
C325 C324 1.374 . S
C326 C323 1.499 . S
C326 C327 1.373 . S
C326 C328 1.389 . S
C327 H306 0.950 . S
C327 C326 1.373 . S
C327 C343 1.377 . S
C328 C326 1.389 . S
C328 C329 1.524 . S
C328 C342 1.377 . S
C329 C328 1.524 . S
C329 C330 1.397 . S
C329 C334 1.363 . S
C330 H307 0.950 . S
C330 C329 1.397 . S
C330 C331 1.334 . S
C331 H308 0.950 . S
C331 C330 1.334 . S
C331 C332 1.287 . S
C332 C331 1.287 . S
C332 C333 1.524 . S
C332 H351 0.913 . S
C333 H309 0.965 . S
C333 C332 1.524 . S
C333 C334 1.415 . S
C334 H310 0.950 . S
C334 C329 1.363 . S
C334 C333 1.415 . S
C335 H311 0.951 . S
C335 C336 1.366 . S
C335 C337 1.388 . S
C336 C335 1.366 . S
C336 C340 1.385 . S
C337 H312 0.951 . S
C337 C335 1.388 . S
C337 C338 1.366 . S
C338 C337 1.366 . S
C338 C339 1.414 . S
C338 C341 1.499 . S
C339 H313 0.950 . S
C339 C338 1.414 . S
C339 C340 1.374 . S
C340 H314 0.950 . S
C340 C336 1.385 . S
C340 C339 1.374 . S
C341 C338 1.499 . S
C341 C342 1.373 . S
C341 C343 1.389 . S
C342 H315 0.950 . S
C342 C328 1.377 . S
C342 C341 1.373 . S
C343 C327 1.377 . S
C343 C341 1.389 . S
C343 C344 1.524 . S
C344 C343 1.524 . S
C344 C345 1.397 . S
C344 C349 1.363 . S
C345 H316 0.950 . S
C345 C344 1.397 . S
C345 C346 1.334 . S
C346 H317 0.950 . S
C346 C345 1.334 . S
C346 C347 1.287 . S
C347 C346 1.287 . S
C347 C348 1.524 . S
C347 H350 0.999 . S
C348 H318 0.950 . S
C348 C347 1.524 . S
C348 C349 1.415 . S
C349 H319 0.950 . S
C349 C344 1.363 . S
C349 C348 1.415 . S
H350 C347 0.999 . S
H351 C332 0.913 . S
H352 C370 0.951 . S
H353 C372 0.951 . S
H354 C374 0.950 . S
H355 C375 0.950 . S
H356 C377 0.950 . S
H357 C380 0.950 . S
H358 C381 0.950 . S
H359 C383 0.950 . S
H360 C384 0.950 . S
H361 C385 0.951 . S
H362 C387 0.951 . S
H363 C389 0.950 . S
H364 C390 0.950 . S
H365 C392 0.950 . S
H366 C395 0.950 . S
H367 C396 0.950 . S
H368 C398 0.950 . S
H369 C399 0.950 . S
C370 H352 0.951 . S
C370 C371 1.366 . S
C370 C372 1.388 . S
C371 C370 1.366 . S
C371 C375 1.385 . S
C372 H353 0.951 . S
C372 C370 1.388 . S
C372 C373 1.366 . S
C373 C372 1.366 . S
C373 C374 1.414 . S
C373 C376 1.499 . S
C374 H354 0.950 . S
C374 C373 1.414 . S
C374 C375 1.374 . S
C375 H355 0.950 . S
C375 C371 1.385 . S
C375 C374 1.374 . S
C376 C373 1.499 . S
C376 C377 1.373 . S
C376 C378 1.389 . S
C377 H356 0.950 . S
C377 C376 1.373 . S
C377 C393 1.377 . S
C378 C376 1.389 . S
C378 C379 1.524 . S
C378 C392 1.377 . S
C379 C378 1.524 . S
C379 C380 1.397 . S
C379 C384 1.363 . S
C380 H357 0.950 . S
C380 C379 1.397 . S
C380 C381 1.334 . S
C381 H358 0.950 . S
C381 C380 1.334 . S
C381 C382 1.287 . S
C382 C381 1.287 . S
C382 C383 1.524 . S
C382 H401 0.913 . S
C383 H359 0.950 . S
C383 C382 1.524 . S
C383 C384 1.415 . S
C384 H360 0.950 . S
C384 C379 1.363 . S
C384 C383 1.415 . S
C385 H361 0.951 . S
C385 C386 1.366 . S
C385 C387 1.388 . S
C386 C385 1.366 . S
C386 C390 1.385 . S
C387 H362 0.951 . S
C387 C385 1.388 . S
C387 C388 1.366 . S
C388 C387 1.366 . S
C388 C389 1.414 . S
C388 C391 1.499 . S
C389 H363 0.950 . S
C389 C388 1.414 . S
C389 C390 1.374 . S
C390 H364 0.950 . S
C390 C386 1.385 . S
C390 C389 1.374 . S
C391 C388 1.499 . S
C391 C392 1.373 . S
C391 C393 1.389 . S
C392 H365 0.950 . S
C392 C378 1.377 . S
C392 C391 1.373 . S
C393 C377 1.377 . S
C393 C391 1.389 . S
C393 C394 1.524 . S
C394 C393 1.524 . S
C394 C395 1.397 . S
C394 C399 1.363 . S
C395 H366 0.950 . S
C395 C394 1.397 . S
C395 C396 1.334 . S
C396 H367 0.950 . S
C396 C395 1.334 . S
C396 C397 1.287 . S
C397 C396 1.287 . S
C397 C398 1.524 . S
C397 H400 0.999 . S
C398 H368 0.950 . S
C398 C397 1.524 . S
C398 C399 1.415 . S
C399 H369 0.950 . S
C399 C394 1.363 . S
C399 C398 1.415 . S
H400 C397 0.999 . S
H401 C382 0.913 . S
H402 C420 0.951 . S
H403 C422 0.951 . S
H404 C424 0.950 . S
H405 C425 0.950 . S
H406 C427 0.950 . S
H407 C430 0.950 . S
H408 C431 0.950 . S
H409 C433 0.950 . S
H410 C434 0.950 . S
H411 C435 0.951 . S
H412 C437 0.951 . S
H413 C439 0.950 . S
H414 C440 0.950 . S
H415 C442 0.950 . S
H416 C445 0.950 . S
H417 C446 0.950 . S
H418 C448 0.950 . S
H419 C449 0.950 . S
C420 H402 0.951 . S
C420 C421 1.366 . S
C420 C422 1.388 . S
C421 C420 1.366 . S
C421 C425 1.385 . S
C422 H403 0.951 . S
C422 C420 1.388 . S
C422 C423 1.366 . S
C423 C422 1.366 . S
C423 C424 1.414 . S
C423 C426 1.499 . S
C424 H404 0.950 . S
C424 C423 1.414 . S
C424 C425 1.374 . S
C425 H405 0.950 . S
C425 C421 1.385 . S
C425 C424 1.374 . S
C426 C423 1.499 . S
C426 C427 1.373 1_545 S
C426 C428 1.389 . S
C427 H406 0.950 . S
C427 C426 1.373 1_565 S
C427 C443 1.377 . S
C428 C426 1.389 . S
C428 C429 1.524 . S
C428 C442 1.377 . S
C429 C428 1.524 . S
C429 C430 1.397 . S
C429 C434 1.363 . S
C430 H407 0.950 . S
C430 C429 1.397 . S
C430 C431 1.334 . S
C431 H408 0.950 . S
C431 C430 1.334 . S
C431 C432 1.287 . S
C432 C431 1.287 . S
C432 C433 1.524 . S
C432 H451 0.913 . S
C433 H409 0.950 . S
C433 C432 1.524 . S
C433 C434 1.415 . S
C434 H410 0.950 . S
C434 C429 1.363 . S
C434 C433 1.415 . S
C435 H411 0.951 . S
C435 C436 1.366 . S
C435 C437 1.388 . S
C436 C435 1.366 . S
C436 C440 1.385 . S
C437 H412 0.951 . S
C437 C435 1.388 . S
C437 C438 1.366 . S
C438 C437 1.366 . S
C438 C439 1.414 . S
C438 C441 1.499 . S
C439 H413 0.950 . S
C439 C438 1.414 . S
C439 C440 1.374 . S
C440 H414 0.950 . S
C440 C436 1.385 . S
C440 C439 1.374 . S
C441 C438 1.499 . S
C441 C442 1.373 . S
C441 C443 1.389 1_545 S
C442 H415 0.950 . S
C442 C428 1.377 . S
C442 C441 1.373 . S
C443 C427 1.377 . S
C443 C441 1.389 1_565 S
C443 C444 1.524 . S
C444 C443 1.524 . S
C444 C445 1.397 . S
C444 C449 1.363 . S
C445 H416 0.950 . S
C445 C444 1.397 . S
C445 C446 1.334 . S
C446 H417 0.950 . S
C446 C445 1.334 . S
C446 C447 1.287 . S
C447 C446 1.287 . S
C447 C448 1.524 . S
C447 H450 0.999 . S
C448 H418 0.950 . S
C448 C447 1.524 . S
C448 C449 1.415 . S
C449 H419 0.950 . S
C449 C444 1.363 . S
C449 C448 1.415 . S
H450 C447 0.999 . S
H451 C432 0.913 . S
H452 C470 0.951 . S
H453 C472 0.951 . S
H454 C474 0.950 . S
H455 C475 0.950 . S
H456 C477 0.950 . S
H457 C480 0.950 . S
H458 C481 0.950 . S
H459 C483 0.950 . S
H460 C484 0.950 . S
H461 C485 0.951 . S
H462 C487 0.951 . S
H463 C489 0.950 1_556 S
H464 C490 0.950 . S
H465 C492 0.950 . S
H466 C495 0.950 . S
H467 C496 0.950 . S
H468 C498 0.950 . S
H469 C499 0.950 . S
C470 H452 0.951 . S
C470 C471 1.366 . S
C470 C472 1.388 . S
C471 C470 1.366 . S
C471 C475 1.385 . S
C472 H453 0.951 . S
C472 C470 1.388 . S
C472 C473 1.366 . S
C473 C472 1.366 . S
C473 C474 1.414 . S
C473 C476 1.499 . S
C474 H454 0.950 . S
C474 C473 1.414 . S
C474 C475 1.374 . S
C475 H455 0.950 . S
C475 C471 1.385 . S
C475 C474 1.374 . S
C476 C473 1.499 . S
C476 C477 1.373 . S
C476 C478 1.389 1_554 S
C477 H456 0.950 . S
C477 C476 1.373 . S
C477 C493 1.377 . S
C478 C476 1.389 1_556 S
C478 C479 1.524 . S
C478 C492 1.377 . S
C479 C478 1.524 . S
C479 C480 1.397 . S
C479 C484 1.363 . S
C480 H457 0.950 . S
C480 C479 1.397 . S
C480 C481 1.334 . S
C481 H458 0.950 . S
C481 C480 1.334 . S
C481 C482 1.287 . S
C482 C481 1.287 . S
C482 C483 1.524 . S
C482 H501 0.913 . S
C483 H459 0.950 . S
C483 C482 1.524 . S
C483 C484 1.415 . S
C484 H460 0.950 . S
C484 C479 1.363 . S
C484 C483 1.415 . S
C485 H461 0.951 . S
C485 C486 1.366 . S
C485 C487 1.388 . S
C486 C485 1.366 . S
C486 C490 1.385 1_554 S
C487 H462 0.951 . S
C487 C485 1.388 . S
C487 C488 1.366 . S
C488 C487 1.366 . S
C488 C489 1.414 . S
C488 C491 1.499 . S
C489 H463 0.950 1_554 S
C489 C488 1.414 . S
C489 C490 1.374 1_554 S
C490 H464 0.950 . S
C490 C486 1.385 1_556 S
C490 C489 1.374 1_556 S
C491 C488 1.499 . S
C491 C492 1.373 1_554 S
C491 C493 1.389 . S
C492 H465 0.950 . S
C492 C478 1.377 . S
C492 C491 1.373 1_556 S
C493 C477 1.377 . S
C493 C491 1.389 . S
C493 C494 1.524 . S
C494 C493 1.524 . S
C494 C495 1.397 . S
C494 C499 1.363 . S
C495 H466 0.950 . S
C495 C494 1.397 . S
C495 C496 1.334 . S
C496 H467 0.950 . S
C496 C495 1.334 . S
C496 C497 1.287 . S
C497 C496 1.287 . S
C497 C498 1.524 . S
C497 H500 0.999 . S
C498 H468 0.950 . S
C498 C497 1.524 . S
C498 C499 1.415 . S
C499 H469 0.950 . S
C499 C494 1.363 . S
C499 C498 1.415 . S
H500 C497 0.999 . S
H501 C482 0.913 . S
H502 C520 0.951 . S
H503 C522 0.951 . S
H504 C524 0.950 . S
H505 C525 0.950 . S
H506 C527 0.950 . S
H507 C530 0.950 1_655 S
H508 C531 0.950 1_655 S
H509 C533 0.950 . S
H510 C534 0.950 . S
H511 C535 0.951 1_655 S
H512 C537 0.951 1_655 S
H513 C539 0.950 . S
H514 C540 0.950 . S
H515 C542 0.950 . S
H516 C545 0.950 . S
H517 C546 0.950 . S
H518 C548 0.950 . S
H519 C549 0.950 . S
C520 H502 0.951 . S
C520 C521 1.366 1_455 S
C520 C522 1.388 . S
C521 C520 1.366 1_655 S
C521 C525 1.385 . S
C522 H503 0.951 . S
C522 C520 1.388 . S
C522 C523 1.366 . S
C523 C522 1.366 . S
C523 C524 1.414 1_455 S
C523 C526 1.499 . S
C524 H504 0.950 . S
C524 C523 1.414 1_655 S
C524 C525 1.374 . S
C525 H505 0.950 . S
C525 C521 1.385 . S
C525 C524 1.374 . S
C526 C523 1.499 . S
C526 C527 1.373 1_455 S
C526 C528 1.389 . S
C527 H506 0.950 . S
C527 C526 1.373 1_655 S
C527 C543 1.377 1_655 S
C528 C526 1.389 . S
C528 C529 1.524 . S
C528 C542 1.377 . S
C529 C528 1.524 . S
C529 C530 1.397 . S
C529 C534 1.363 . S
C530 H507 0.950 1_455 S
C530 C529 1.397 . S
C530 C531 1.334 . S
C531 H508 0.950 1_455 S
C531 C530 1.334 . S
C531 C532 1.287 . S
C532 C531 1.287 . S
C532 C533 1.524 . S
C532 H551 0.913 . S
C533 H509 0.950 . S
C533 C532 1.524 . S
C533 C534 1.415 . S
C534 H510 0.950 . S
C534 C529 1.363 . S
C534 C533 1.415 . S
C535 H511 0.951 1_455 S
C535 C536 1.366 . S
C535 C537 1.388 . S
C536 C535 1.366 . S
C536 C540 1.385 . S
C537 H512 0.951 1_455 S
C537 C535 1.388 . S
C537 C538 1.366 . S
C538 C537 1.366 . S
C538 C539 1.414 . S
C538 C541 1.499 . S
C539 H513 0.950 . S
C539 C538 1.414 . S
C539 C540 1.374 . S
C540 H514 0.950 . S
C540 C536 1.385 . S
C540 C539 1.374 . S
C541 C538 1.499 . S
C541 C542 1.373 . S
C541 C543 1.389 . S
C542 H515 0.950 . S
C542 C528 1.377 . S
C542 C541 1.373 . S
C543 C527 1.377 1_455 S
C543 C541 1.389 . S
C543 C544 1.524 1_455 S
C544 C543 1.524 1_655 S
C544 C545 1.397 1_655 S
C544 C549 1.363 . S
C545 H516 0.950 . S
C545 C544 1.397 1_455 S
C545 C546 1.334 . S
C546 H517 0.950 . S
C546 C545 1.334 . S
C546 C547 1.287 1_455 S
C547 C546 1.287 1_655 S
C547 C548 1.524 . S
C547 H550 0.999 . S
C548 H518 0.950 . S
C548 C547 1.524 . S
C548 C549 1.415 . S
C549 H519 0.950 . S
C549 C544 1.363 . S
C549 C548 1.415 . S
H550 C547 0.999 . S
H551 C532 0.913 . S
H552 C570 0.951 . S
H553 C572 0.951 . S
H554 C574 0.950 . S
H555 C575 0.942 1_655 S
H556 C577 0.950 . S
H557 C580 0.950 . S
H558 C581 0.950 . S
H559 C583 0.950 . S
H560 C584 0.950 . S
H561 C585 0.951 . S
H562 C587 0.951 . S
H563 C589 0.950 . S
H564 C590 0.950 . S
H565 C592 0.950 . S
H566 C595 0.950 . S
H567 C596 0.950 . S
H568 C598 0.950 . S
H569 C599 0.950 . S
C570 H552 0.951 . S
C570 C571 1.366 . S
C570 C572 1.388 . S
C571 C570 1.366 . S
C571 C575 1.392 . S
C572 H553 0.951 . S
C572 C570 1.388 . S
C572 C573 1.366 . S
C573 C572 1.366 . S
C573 C574 1.414 1_455 S
C573 C576 1.499 . S
C574 H554 0.950 . S
C574 C573 1.414 1_655 S
C574 C575 1.375 1_655 S
C575 H555 0.942 1_455 S
C575 C571 1.392 . S
C575 C574 1.375 1_455 S
C576 C573 1.499 . S
C576 C577 1.373 1_455 S
C576 C578 1.389 . S
C577 H556 0.950 . S
C577 C576 1.373 1_655 S
C577 C593 1.377 . S
C578 C576 1.389 . S
C578 C579 1.524 . S
C578 C592 1.377 . S
C579 C578 1.524 . S
C579 C580 1.397 . S
C579 C584 1.363 . S
C580 H557 0.950 . S
C580 C579 1.397 . S
C580 C581 1.334 . S
C581 H558 0.950 . S
C581 C580 1.334 . S
C581 C582 1.287 . S
C582 C581 1.287 . S
C582 C583 1.524 . S
C582 H601 0.913 . S
C583 H559 0.950 . S
C583 C582 1.524 . S
C583 C584 1.415 . S
C584 H560 0.950 . S
C584 C579 1.363 . S
C584 C583 1.415 . S
C585 H561 0.951 . S
C585 C586 1.366 . S
C585 C587 1.388 . S
C586 C585 1.366 . S
C586 C590 1.385 1_655 S
C587 H562 0.951 . S
C587 C585 1.388 . S
C587 C588 1.366 . S
C588 C587 1.366 . S
C588 C589 1.414 1_655 S
C588 C591 1.499 1_655 S
C589 H563 0.950 . S
C589 C588 1.414 1_455 S
C589 C590 1.374 . S
C590 H564 0.950 . S
C590 C586 1.385 1_455 S
C590 C589 1.374 . S
C591 C588 1.499 1_455 S
C591 C592 1.373 . S
C591 C593 1.389 1_455 S
C592 H565 0.950 . S
C592 C578 1.377 . S
C592 C591 1.373 . S
C593 C577 1.377 . S
C593 C591 1.389 1_655 S
C593 C594 1.524 . S
C594 C593 1.524 . S
C594 C595 1.397 . S
C594 C599 1.363 . S
C595 H566 0.950 . S
C595 C594 1.397 . S
C595 C596 1.334 . S
C596 H567 0.950 . S
C596 C595 1.334 . S
C596 C597 1.287 . S
C597 C596 1.287 . S
C597 C598 1.524 . S
C597 H600 0.999 . S
C598 H568 0.950 . S
C598 C597 1.524 . S
C598 C599 1.415 . S
C599 H569 0.950 . S
C599 C594 1.363 . S
C599 C598 1.415 . S
H600 C597 0.999 . S
H601 C582 0.913 . S
H602 C620 0.951 . S
H603 C622 0.951 . S
H604 C624 0.950 . S
H605 C625 0.950 . S
H606 C627 0.950 1_655 S
H607 C630 0.950 . S
H608 C631 0.950 . S
H609 C633 0.950 . S
H610 C634 0.950 . S
H611 C635 0.951 . S
H612 C637 0.951 1_565 S
H613 C639 0.950 . S
H614 C640 0.950 . S
H615 C642 0.950 . S
H616 C645 0.950 1_545 S
H617 C646 0.950 . S
H618 C648 0.950 . S
H619 C649 0.950 . S
C620 H602 0.951 . S
C620 C621 1.366 . S
C620 C622 1.388 . S
C621 C620 1.366 . S
C621 C625 1.385 . S
C622 H603 0.951 . S
C622 C620 1.388 . S
C622 C623 1.366 . S
C623 C622 1.366 . S
C623 C624 1.414 . S
C623 C626 1.499 . S
C624 H604 0.950 . S
C624 C623 1.414 . S
C624 C625 1.374 . S
C625 H605 0.950 . S
C625 C621 1.385 . S
C625 C624 1.374 . S
C626 C623 1.499 . S
C626 C627 1.373 . S
C626 C628 1.389 . S
C627 H606 0.950 1_455 S
C627 C626 1.373 . S
C627 C643 1.377 . S
C628 C626 1.389 . S
C628 C629 1.524 . S
C628 C642 1.377 . S
C629 C628 1.524 . S
C629 C630 1.397 . S
C629 C634 1.363 . S
C630 H607 0.950 . S
C630 C629 1.397 . S
C630 C631 1.334 . S
C631 H608 0.950 . S
C631 C630 1.334 . S
C631 C632 1.287 . S
C632 C631 1.287 . S
C632 C633 1.524 . S
C632 H651 0.913 . S
C633 H609 0.950 . S
C633 C632 1.524 . S
C633 C634 1.415 . S
C634 H610 0.950 . S
C634 C629 1.363 . S
C634 C633 1.415 . S
C635 H611 0.951 . S
C635 C636 1.366 1_565 S
C635 C637 1.388 1_565 S
C636 C635 1.366 1_545 S
C636 C640 1.385 . S
C637 H612 0.951 1_545 S
C637 C635 1.388 1_545 S
C637 C638 1.366 . S
C638 C637 1.366 . S
C638 C639 1.414 . S
C638 C641 1.499 . S
C639 H613 0.950 . S
C639 C638 1.414 . S
C639 C640 1.374 . S
C640 H614 0.950 . S
C640 C636 1.385 . S
C640 C639 1.374 . S
C641 C638 1.499 . S
C641 C642 1.373 . S
C641 C643 1.389 . S
C642 H615 0.950 . S
C642 C628 1.377 . S
C642 C641 1.373 . S
C643 C627 1.377 . S
C643 C641 1.389 . S
C643 C644 1.524 1_445 S
C644 C643 1.524 1_665 S
C644 C645 1.397 . S
C644 C649 1.363 . S
C645 H616 0.950 1_565 S
C645 C644 1.397 . S
C645 C646 1.334 . S
C646 H617 0.950 . S
C646 C645 1.334 . S
C646 C647 1.287 . S
C647 C646 1.287 . S
C647 C648 1.524 . S
C647 H650 0.999 . S
C648 H618 0.950 . S
C648 C647 1.524 . S
C648 C649 1.415 . S
C649 H619 0.950 . S
C649 C644 1.363 . S
C649 C648 1.415 . S
H650 C647 0.999 . S
H651 C632 0.913 . S
H652 C670 0.951 . S
H653 C672 0.951 . S
H654 C674 0.950 1_665 S
H655 C675 0.951 1_665 S
H656 C677 0.950 1_655 S
H657 C680 0.950 . S
H658 C681 0.950 . S
H659 C683 0.951 1_545 S
H660 C684 0.950 . S
H661 C685 0.951 . S
H662 C687 0.951 . S
H663 C689 0.950 . S
H664 C690 0.950 . S
H665 C692 0.950 . S
H666 C695 0.950 1_455 S
H667 C696 0.950 . S
H668 C698 0.950 . S
H669 C699 0.950 . S
C670 H652 0.951 . S
C670 C671 1.366 . S
C670 C672 1.388 . S
C671 C670 1.366 . S
C671 C675 1.388 . S
C672 H653 0.951 . S
C672 C670 1.388 . S
C672 C673 1.366 . S
C673 C672 1.366 . S
C673 C674 1.414 . S
C673 C676 1.499 . S
C674 H654 0.950 1_445 S
C674 C673 1.414 . S
C674 C675 1.370 . S
C675 H655 0.951 1_445 S
C675 C671 1.388 . S
C675 C674 1.370 . S
C676 C673 1.499 . S
C676 C677 1.373 . S
C676 C678 1.389 . S
C677 H656 0.950 1_455 S
C677 C676 1.373 . S
C677 C693 1.377 . S
C678 C676 1.389 . S
C678 C679 1.524 1_545 S
C678 C692 1.377 . S
C679 C678 1.524 1_565 S
C679 C680 1.397 . S
C679 C684 1.363 1_565 S
C680 H657 0.950 . S
C680 C679 1.397 . S
C680 C681 1.334 . S
C681 H658 0.950 . S
C681 C680 1.334 . S
C681 C682 1.287 . S
C682 C681 1.287 . S
C682 C683 1.524 . S
C682 H701 0.913 . S
C683 H659 0.951 1_565 S
C683 C682 1.524 . S
C683 C684 1.415 1_565 S
C684 H660 0.950 . S
C684 C679 1.363 1_545 S
C684 C683 1.415 1_545 S
C685 H661 0.951 . S
C685 C686 1.366 1_655 S
C685 C687 1.388 . S
C686 C685 1.366 1_455 S
C686 C690 1.385 . S
C687 H662 0.951 . S
C687 C685 1.388 . S
C687 C688 1.366 1_655 S
C688 C687 1.366 1_455 S
C688 C689 1.414 . S
C688 C691 1.499 . S
C689 H663 0.950 . S
C689 C688 1.414 . S
C689 C690 1.374 . S
C690 H664 0.950 . S
C690 C686 1.385 . S
C690 C689 1.374 . S
C691 C688 1.499 . S
C691 C692 1.373 . S
C691 C693 1.389 . S
C692 H665 0.950 . S
C692 C678 1.377 . S
C692 C691 1.373 . S
C693 C677 1.377 . S
C693 C691 1.389 . S
C693 C694 1.524 1_455 S
C694 C693 1.524 1_655 S
C694 C695 1.397 . S
C694 C699 1.363 . S
C695 H666 0.950 1_655 S
C695 C694 1.397 . S
C695 C696 1.334 . S
C696 H667 0.950 . S
C696 C695 1.334 . S
C696 C697 1.287 . S
C697 C696 1.287 . S
C697 C698 1.524 . S
C697 H700 0.999 . S
C698 H668 0.950 . S
C698 C697 1.524 . S
C698 C699 1.415 . S
C699 H669 0.950 . S
C699 C694 1.363 . S
C699 C698 1.415 . S
H700 C697 0.999 . S
H701 C682 0.913 . S
C271 C56 4.216 . S
C286 C67 4.216 1_565 S
C321 C151 2.550 . S
C336 C140 2.550 . S
C371 C237 0.625 . S
C386 C226 0.625 . S
C421 C224 2.529 . S
C436 C235 2.529 . S
C471 C58 0.708 . S
C486 C69 0.708 . S
C521 C153 1.346 1_655 S
C536 C142 1.346 . S
C571 C158 1.520 . S
C586 C63 1.535 1_655 S
C621 C147 1.598 . S
C636 C231 1.582 . S
C671 C242 1.569 . S
C686 C74 1.576 . S
