# Generated by pormake.
# Topology pem, (4)-cn, num edge types: 1
# Building blocks:
#     Node 0, Type 0, BuildingBlock: TATPOV_clean_sbu_0, # of connection points: 4
#     Node 1, Type 0, BuildingBlock: TATPOV_clean_sbu_0, # of connection points: 4
#     Node 2, Type 0, BuildingBlock: TATPOV_clean_sbu_0, # of connection points: 4
#     Node 3, Type 0, BuildingBlock: TATPOV_clean_sbu_0, # of connection points: 4
#     Node 4, Type 0, BuildingBlock: TATPOV_clean_sbu_0, # of connection points: 4
#     Node 5, Type 0, BuildingBlock: TATPOV_clean_sbu_0, # of connection points: 4
#     Node 6, Type 0, BuildingBlock: TATPOV_clean_sbu_0, # of connection points: 4
#     Node 7, Type 0, BuildingBlock: TATPOV_clean_sbu_0, # of connection points: 4
#     Node 8, Type 0, BuildingBlock: TATPOV_clean_sbu_0, # of connection points: 4
#     Node 9, Type 0, BuildingBlock: TATPOV_clean_sbu_0, # of connection points: 4
#     Node 10, Type 0, BuildingBlock: TATPOV_clean_sbu_0, # of connection points: 4
#     Node 11, Type 0, BuildingBlock: TATPOV_clean_sbu_0, # of connection points: 4
#     Node 12, Type 0, BuildingBlock: TATPOV_clean_sbu_0, # of connection points: 4
#     Node 13, Type 0, BuildingBlock: TATPOV_clean_sbu_0, # of connection points: 4
#     Node 14, Type 0, BuildingBlock: TATPOV_clean_sbu_0, # of connection points: 4
#     Node 15, Type 0, BuildingBlock: TATPOV_clean_sbu_0, # of connection points: 4
#     Node 16, Type 0, BuildingBlock: TATPOV_clean_sbu_0, # of connection points: 4
#     Node 17, Type 0, BuildingBlock: TATPOV_clean_sbu_0, # of connection points: 4
#     Node 18, Type 0, BuildingBlock: TATPOV_clean_sbu_0, # of connection points: 4
#     Node 19, Type 0, BuildingBlock: TATPOV_clean_sbu_0, # of connection points: 4
#     Node 20, Type 0, BuildingBlock: TATPOV_clean_sbu_0, # of connection points: 4
#     Node 21, Type 0, BuildingBlock: TATPOV_clean_sbu_0, # of connection points: 4
#     Node 22, Type 0, BuildingBlock: TATPOV_clean_sbu_0, # of connection points: 4
#     Node 23, Type 0, BuildingBlock: TATPOV_clean_sbu_0, # of connection points: 4
#     Node 24, Type 0, BuildingBlock: TATPOV_clean_sbu_0, # of connection points: 4
#     Node 25, Type 0, BuildingBlock: TATPOV_clean_sbu_0, # of connection points: 4
#     Node 26, Type 0, BuildingBlock: TATPOV_clean_sbu_0, # of connection points: 4
#     Node 27, Type 0, BuildingBlock: TATPOV_clean_sbu_0, # of connection points: 4
#     Node 28, Type 0, BuildingBlock: TATPOV_clean_sbu_0, # of connection points: 4
#     Node 29, Type 0, BuildingBlock: TATPOV_clean_sbu_0, # of connection points: 4
#     Node 30, Type 0, BuildingBlock: TATPOV_clean_sbu_0, # of connection points: 4
#     Node 31, Type 0, BuildingBlock: TATPOV_clean_sbu_0, # of connection points: 4
#     Edge 32, Type (0, 0), BuildingBlock: XIVTED_clean_linker_0, # of connection points: 2
#     Edge 33, Type (0, 0), BuildingBlock: XIVTED_clean_linker_0, # of connection points: 2
#     Edge 34, Type (0, 0), BuildingBlock: XIVTED_clean_linker_0, # of connection points: 2
#     Edge 35, Type (0, 0), BuildingBlock: XIVTED_clean_linker_0, # of connection points: 2
#     Edge 36, Type (0, 0), BuildingBlock: XIVTED_clean_linker_0, # of connection points: 2
#     Edge 37, Type (0, 0), BuildingBlock: XIVTED_clean_linker_0, # of connection points: 2
#     Edge 38, Type (0, 0), BuildingBlock: XIVTED_clean_linker_0, # of connection points: 2
#     Edge 39, Type (0, 0), BuildingBlock: XIVTED_clean_linker_0, # of connection points: 2
#     Edge 40, Type (0, 0), BuildingBlock: XIVTED_clean_linker_0, # of connection points: 2
#     Edge 41, Type (0, 0), BuildingBlock: XIVTED_clean_linker_0, # of connection points: 2
#     Edge 42, Type (0, 0), BuildingBlock: XIVTED_clean_linker_0, # of connection points: 2
#     Edge 43, Type (0, 0), BuildingBlock: XIVTED_clean_linker_0, # of connection points: 2
#     Edge 44, Type (0, 0), BuildingBlock: XIVTED_clean_linker_0, # of connection points: 2
#     Edge 45, Type (0, 0), BuildingBlock: XIVTED_clean_linker_0, # of connection points: 2
#     Edge 46, Type (0, 0), BuildingBlock: XIVTED_clean_linker_0, # of connection points: 2
#     Edge 47, Type (0, 0), BuildingBlock: XIVTED_clean_linker_0, # of connection points: 2
#     Edge 48, Type (0, 0), BuildingBlock: XIVTED_clean_linker_0, # of connection points: 2
#     Edge 49, Type (0, 0), BuildingBlock: XIVTED_clean_linker_0, # of connection points: 2
#     Edge 50, Type (0, 0), BuildingBlock: XIVTED_clean_linker_0, # of connection points: 2
#     Edge 51, Type (0, 0), BuildingBlock: XIVTED_clean_linker_0, # of connection points: 2
#     Edge 52, Type (0, 0), BuildingBlock: XIVTED_clean_linker_0, # of connection points: 2
#     Edge 53, Type (0, 0), BuildingBlock: XIVTED_clean_linker_0, # of connection points: 2
#     Edge 54, Type (0, 0), BuildingBlock: XIVTED_clean_linker_0, # of connection points: 2
#     Edge 55, Type (0, 0), BuildingBlock: XIVTED_clean_linker_0, # of connection points: 2
#     Edge 56, Type (0, 0), BuildingBlock: XIVTED_clean_linker_0, # of connection points: 2
#     Edge 57, Type (0, 0), BuildingBlock: XIVTED_clean_linker_0, # of connection points: 2
#     Edge 58, Type (0, 0), BuildingBlock: XIVTED_clean_linker_0, # of connection points: 2
#     Edge 59, Type (0, 0), BuildingBlock: XIVTED_clean_linker_0, # of connection points: 2
#     Edge 60, Type (0, 0), BuildingBlock: XIVTED_clean_linker_0, # of connection points: 2
#     Edge 61, Type (0, 0), BuildingBlock: XIVTED_clean_linker_0, # of connection points: 2
#     Edge 62, Type (0, 0), BuildingBlock: XIVTED_clean_linker_0, # of connection points: 2
#     Edge 63, Type (0, 0), BuildingBlock: XIVTED_clean_linker_0, # of connection points: 2
#     Edge 64, Type (0, 0), BuildingBlock: XIVTED_clean_linker_0, # of connection points: 2
#     Edge 65, Type (0, 0), BuildingBlock: XIVTED_clean_linker_0, # of connection points: 2
#     Edge 66, Type (0, 0), BuildingBlock: XIVTED_clean_linker_0, # of connection points: 2
#     Edge 67, Type (0, 0), BuildingBlock: XIVTED_clean_linker_0, # of connection points: 2
#     Edge 68, Type (0, 0), BuildingBlock: XIVTED_clean_linker_0, # of connection points: 2
#     Edge 69, Type (0, 0), BuildingBlock: XIVTED_clean_linker_0, # of connection points: 2
#     Edge 70, Type (0, 0), BuildingBlock: XIVTED_clean_linker_0, # of connection points: 2
#     Edge 71, Type (0, 0), BuildingBlock: XIVTED_clean_linker_0, # of connection points: 2
#     Edge 72, Type (0, 0), BuildingBlock: XIVTED_clean_linker_0, # of connection points: 2
#     Edge 73, Type (0, 0), BuildingBlock: XIVTED_clean_linker_0, # of connection points: 2
#     Edge 74, Type (0, 0), BuildingBlock: XIVTED_clean_linker_0, # of connection points: 2
#     Edge 75, Type (0, 0), BuildingBlock: XIVTED_clean_linker_0, # of connection points: 2
#     Edge 76, Type (0, 0), BuildingBlock: XIVTED_clean_linker_0, # of connection points: 2
#     Edge 77, Type (0, 0), BuildingBlock: XIVTED_clean_linker_0, # of connection points: 2
#     Edge 78, Type (0, 0), BuildingBlock: XIVTED_clean_linker_0, # of connection points: 2
#     Edge 79, Type (0, 0), BuildingBlock: XIVTED_clean_linker_0, # of connection points: 2
#     Edge 80, Type (0, 0), BuildingBlock: XIVTED_clean_linker_0, # of connection points: 2
#     Edge 81, Type (0, 0), BuildingBlock: XIVTED_clean_linker_0, # of connection points: 2
#     Edge 82, Type (0, 0), BuildingBlock: XIVTED_clean_linker_0, # of connection points: 2
#     Edge 83, Type (0, 0), BuildingBlock: XIVTED_clean_linker_0, # of connection points: 2
#     Edge 84, Type (0, 0), BuildingBlock: XIVTED_clean_linker_0, # of connection points: 2
#     Edge 85, Type (0, 0), BuildingBlock: XIVTED_clean_linker_0, # of connection points: 2
#     Edge 86, Type (0, 0), BuildingBlock: XIVTED_clean_linker_0, # of connection points: 2
#     Edge 87, Type (0, 0), BuildingBlock: XIVTED_clean_linker_0, # of connection points: 2
#     Edge 88, Type (0, 0), BuildingBlock: XIVTED_clean_linker_0, # of connection points: 2
#     Edge 89, Type (0, 0), BuildingBlock: XIVTED_clean_linker_0, # of connection points: 2
#     Edge 90, Type (0, 0), BuildingBlock: XIVTED_clean_linker_0, # of connection points: 2
#     Edge 91, Type (0, 0), BuildingBlock: XIVTED_clean_linker_0, # of connection points: 2
#     Edge 92, Type (0, 0), BuildingBlock: XIVTED_clean_linker_0, # of connection points: 2
#     Edge 93, Type (0, 0), BuildingBlock: XIVTED_clean_linker_0, # of connection points: 2
#     Edge 94, Type (0, 0), BuildingBlock: XIVTED_clean_linker_0, # of connection points: 2
#     Edge 95, Type (0, 0), BuildingBlock: XIVTED_clean_linker_0, # of connection points: 2
# Relax obj value: 0.093
# Max RMSD: 0.079
# Mean RMSD: 0.070
data_MOF--net-pem--node1-TATPOV_clean_sbu_0--edge1-XIVTED_clean_linker_0
_symmetry_space_group_name_H-M    P1
_symmetry_Int_Tables_number       1
_symmetry_cell_setting            triclinic
loop_
_symmetry_equiv_pos_as_xyz
'x, y, z'
_cell_length_a     42.14434
_cell_length_b     43.019285
_cell_length_c     43.228572
_cell_angle_alpha  90.598231
_cell_angle_beta   90.439641
_cell_angle_gamma 90.649991
loop_
_atom_site_label
_atom_site_type_symbol
_atom_site_fract_x
_atom_site_fract_y
_atom_site_fract_z
_atom_type_partial_charge
Zn0 Zn 0.98255 0.05874 0.14401 0.0
Zn1 Zn 0.04156 0.08541 0.14168 0.0
O2 O 0.01249 0.12414 0.14135 0.0
O3 O 0.96476 0.10267 0.14191 0.0
O4 O 0.08629 0.09993 0.13261 0.0
O5 O 0.99539 0.03751 0.18391 0.0
O6 O 0.04403 0.05628 0.17963 0.0
C7 C 0.98233 0.12674 0.14032 0.0
C8 C 0.01715 0.04138 0.09034 0.0
O9 O 0.03678 0.06044 0.10252 0.0
O10 O 0.99118 0.03529 0.10367 0.0
C11 C 0.08889 0.11808 0.10968 0.0
O12 O 0.06321 0.1312 0.09873 0.0
C13 C 0.02398 0.03867 0.19323 0.0
Zn14 Zn 0.1594 0.83581 0.33844 0.0
Zn15 Zn 0.11936 0.80141 0.35106 0.0
O16 O 0.14325 0.81426 0.39302 0.0
O17 O 0.16292 0.85876 0.37786 0.0
O18 O 0.08417 0.76964 0.36187 0.0
O19 O 0.13976 0.85539 0.30241 0.0
O20 O 0.09699 0.83736 0.32466 0.0
C21 C 0.1587 0.8394 0.39919 0.0
C22 C 0.17975 0.77921 0.32148 0.0
O23 O 0.14989 0.77486 0.3242 0.0
O24 O 0.19213 0.80448 0.3307 0.0
C25 C 0.07763 0.75913 0.38862 0.0
O26 O 0.09352 0.7698 0.41281 0.0
C27 C 0.10994 0.8549 0.30439 0.0
Zn28 Zn 0.41113 0.95552 0.6217 0.0
Zn29 Zn 0.36606 0.91705 0.59588 0.0
O30 O 0.399 0.88524 0.61172 0.0
O31 O 0.43403 0.91628 0.63499 0.0
O32 O 0.33175 0.89367 0.57201 0.0
O33 O 0.37806 0.97617 0.64749 0.0
O34 O 0.34178 0.9443 0.6278 0.0
C35 C 0.42482 0.88917 0.62702 0.0
C36 C 0.40229 0.96482 0.55727 0.0
O37 O 0.38249 0.94265 0.56034 0.0
O38 O 0.41849 0.97471 0.58015 0.0
C39 C 0.32101 0.86604 0.5688 0.0
O40 O 0.33276 0.84352 0.5855 0.0
C41 C 0.34945 0.96713 0.64547 0.0
Zn42 Zn 0.20738 0.09222 0.868 0.0
Zn43 Zn 0.26414 0.12109 0.87447 0.0
O44 O 0.24914 0.11173 0.91929 0.0
O45 O 0.2069 0.0815 0.9132 0.0
O46 O 0.30818 0.14054 0.8781 0.0
O47 O 0.22355 0.06253 0.83557 0.0
O48 O 0.26959 0.08674 0.84115 0.0
C49 C 0.22679 0.09528 0.93077 0.0
C50 C 0.20905 0.15758 0.85025 0.0
O51 O 0.23847 0.15572 0.85643 0.0
O52 O 0.19068 0.13441 0.85423 0.0
C53 C 0.31249 0.1675 0.88993 0.0
O54 O 0.28813 0.18247 0.90125 0.0
C55 C 0.25214 0.06625 0.82758 0.0
Zn56 Zn 0.09171 0.91627 0.36068 0.0
Zn57 Zn 0.12237 0.91748 0.41177 0.0
O58 O 0.09332 0.87671 0.41282 0.0
O59 O 0.06805 0.87784 0.36829 0.0
O60 O 0.14892 0.91704 0.45208 0.0
O61 O 0.12881 0.91734 0.33327 0.0
O62 O 0.15434 0.92915 0.37623 0.0
C63 C 0.07284 0.86499 0.39392 0.0
C64 C 0.07651 0.96879 0.39699 0.0
O65 O 0.09514 0.95572 0.41611 0.0
O66 O 0.07064 0.95661 0.3708 0.0
C67 C 0.14195 0.90035 0.47536 0.0
O68 O 0.11649 0.88248 0.47398 0.0
C69 C 0.15345 0.92778 0.34663 0.0
Zn70 Zn 0.38403 0.87924 0.74648 0.0
Zn71 Zn 0.35094 0.88808 0.69337 0.0
O72 O 0.37445 0.93035 0.70378 0.0
O73 O 0.40695 0.92 0.74251 0.0
O74 O 0.32074 0.89361 0.65605 0.0
O75 O 0.40049 0.83984 0.72808 0.0
O76 O 0.37677 0.84811 0.68337 0.0
C77 C 0.39596 0.9391 0.72326 0.0
C78 C 0.318 0.87663 0.75559 0.0
O79 O 0.31874 0.87981 0.72643 0.0
O80 O 0.34353 0.87664 0.77119 0.0
C81 C 0.29702 0.8752 0.65209 0.0
O82 O 0.29389 0.8514 0.67066 0.0
C83 C 0.39407 0.8312 0.70065 0.0
Zn84 Zn 0.37518 0.09305 0.92779 0.0
Zn85 Zn 0.42005 0.13749 0.92812 0.0
O86 O 0.41389 0.12279 0.88185 0.0
O87 O 0.37328 0.09011 0.88195 0.0
O88 O 0.45526 0.17138 0.92694 0.0
O89 O 0.34455 0.11897 0.95095 0.0
O90 O 0.38261 0.15437 0.95607 0.0
C91 C 0.39468 0.10448 0.8674 0.0
C92 C 0.43315 0.07577 0.95851 0.0
O93 O 0.44166 0.10315 0.95114 0.0
O94 O 0.40576 0.06551 0.95125 0.0
C95 C 0.47772 0.1692 0.90738 0.0
O96 O 0.47721 0.1459 0.8875 0.0
C97 C 0.35458 0.14445 0.96226 0.0
Zn98 Zn 0.13004 0.17618 0.22821 0.0
Zn99 Zn 0.14728 0.15536 0.16999 0.0
O100 O 0.15206 0.11514 0.19607 0.0
O101 O 0.1431 0.13384 0.24289 0.0
O102 O 0.17097 0.14887 0.12943 0.0
O103 O 0.08703 0.18485 0.20928 0.0
O104 O 0.10274 0.17414 0.16174 0.0
C105 C 0.15125 0.11157 0.22537 0.0
C106 C 0.18053 0.2102 0.20499 0.0
O107 O 0.17577 0.18983 0.18415 0.0
O108 O 0.16287 0.21113 0.2285 0.0
C109 C 0.20036 0.14295 0.13312 0.0
O110 O 0.21074 0.13678 0.1611 0.0
C111 C 0.08189 0.18476 0.18034 0.0
Zn112 Zn 0.52356 0.34626 0.83613 0.0
Zn113 Zn 0.54393 0.35624 0.88805 0.0
O114 O 0.52072 0.31228 0.88517 0.0
O115 O 0.51225 0.30163 0.83597 0.0
O116 O 0.57735 0.35816 0.92357 0.0
O117 O 0.55425 0.36529 0.80691 0.0
O118 O 0.56275 0.38493 0.85324 0.0
C119 C 0.50955 0.29409 0.86398 0.0
C120 C 0.48712 0.38874 0.87801 0.0
O121 O 0.50718 0.38253 0.8992 0.0
O122 O 0.48968 0.37688 0.85112 0.0
C123 C 0.57758 0.34192 0.94808 0.0
O124 O 0.55462 0.32151 0.95224 0.0
C125 C 0.5656 0.38686 0.82388 0.0
Zn126 Zn 0.86545 0.36319 0.16806 0.0
Zn127 Zn 0.81588 0.36502 0.13853 0.0
O128 O 0.82023 0.40646 0.16675 0.0
O129 O 0.86827 0.40467 0.18653 0.0
O130 O 0.77924 0.37056 0.10662 0.0
O131 O 0.89743 0.34835 0.13842 0.0
O132 O 0.85118 0.33647 0.11769 0.0
C133 C 0.84196 0.41822 0.18443 0.0
C134 C 0.81502 0.32147 0.18887 0.0
O135 O 0.79856 0.33422 0.16789 0.0
O136 O 0.84367 0.32964 0.19355 0.0
C137 C 0.76518 0.34627 0.09581 0.0
O138 O 0.77538 0.31897 0.10458 0.0
C139 C 0.88123 0.33226 0.1194 0.0
Zn140 Zn 0.80578 0.52245 0.44062 0.0
Zn141 Zn 0.83804 0.57796 0.43244 0.0
O142 O 0.82498 0.56272 0.38787 0.0
O143 O 0.79503 0.52098 0.39496 0.0
O144 O 0.86992 0.61423 0.42712 0.0
O145 O 0.77824 0.54587 0.47078 0.0
O146 O 0.80287 0.5909 0.46435 0.0
C147 C 0.80797 0.54026 0.37692 0.0
C148 C 0.87076 0.51939 0.45774 0.0
O149 O 0.86874 0.54784 0.45067 0.0
O150 O 0.84669 0.50163 0.45513 0.0
C151 C 0.8948 0.60788 0.41165 0.0
O152 O 0.89652 0.58054 0.39795 0.0
C153 C 0.78129 0.57454 0.47739 0.0
Zn154 Zn 0.78593 0.68344 0.35675 0.0
Zn155 Zn 0.83928 0.68994 0.3894 0.0
O156 O 0.80571 0.6843 0.42451 0.0
O157 O 0.76338 0.67297 0.39606 0.0
O158 O 0.88168 0.70101 0.40849 0.0
O159 O 0.80659 0.64967 0.33101 0.0
O160 O 0.84862 0.65169 0.3616 0.0
C161 C 0.77646 0.67629 0.42238 0.0
C162 C 0.81533 0.74101 0.34586 0.0
O163 O 0.8362 0.72823 0.36258 0.0
O164 O 0.78866 0.72779 0.34155 0.0
C165 C 0.88649 0.7252 0.42516 0.0
O166 O 0.86211 0.74032 0.43623 0.0
C167 C 0.83383 0.63983 0.33833 0.0
Zn168 Zn 0.74107 0.42256 0.87075 0.0
Zn169 Zn 0.69205 0.38139 0.87587 0.0
O170 O 0.709 0.38862 0.92096 0.0
O171 O 0.74596 0.425 0.91653 0.0
O172 O 0.65515 0.34962 0.87949 0.0
O173 O 0.71405 0.45275 0.8484 0.0
O174 O 0.67479 0.41837 0.84954 0.0
C175 C 0.72984 0.40682 0.93316 0.0
C176 C 0.75141 0.36458 0.83911 0.0
O177 O 0.72396 0.35828 0.84967 0.0
O178 O 0.76469 0.39049 0.84529 0.0
C179 C 0.6555 0.32796 0.89945 0.0
O180 O 0.67948 0.32666 0.91898 0.0
C181 C 0.68624 0.44445 0.84058 0.0
Zn182 Zn 0.91989 0.97665 0.86732 0.0
Zn183 Zn 0.94438 0.92318 0.85156 0.0
O184 O 0.90654 0.91108 0.88035 0.0
O185 O 0.88793 0.95659 0.8947 0.0
O186 O 0.96492 0.88139 0.84099 0.0
O187 O 0.90837 0.9874 0.82468 0.0
O188 O 0.93461 0.94594 0.80925 0.0
C189 C 0.88713 0.92726 0.89624 0.0
C190 C 0.98318 0.97199 0.88812 0.0
O191 O 0.97938 0.9446 0.87728 0.0
O192 O 0.96144 0.99177 0.8851 0.0
C193 C 0.98235 0.86841 0.8613 0.0
O194 O 0.98597 0.88191 0.88851 0.0
C195 C 0.91933 0.97077 0.80316 0.0
Zn196 Zn 0.80585 0.16366 0.64412 0.0
Zn197 Zn 0.85152 0.18832 0.61775 0.0
O198 O 0.87089 0.1488 0.64034 0.0
O199 O 0.82737 0.12557 0.65674 0.0
O200 O 0.88934 0.21055 0.59547 0.0
O201 O 0.77675 0.16113 0.60934 0.0
O202 O 0.8179 0.17629 0.58201 0.0
C203 C 0.8571 0.12582 0.65364 0.0
C204 C 0.81469 0.22067 0.67086 0.0
O205 O 0.8359 0.22177 0.64995 0.0
O206 O 0.79828 0.19632 0.67439 0.0
C207 C 0.8944 0.23989 0.59768 0.0
O208 O 0.87471 0.25677 0.61396 0.0
C209 C 0.78895 0.16687 0.58351 0.0
Zn210 Zn 0.60297 0.02288 0.40925 0.0
Zn211 Zn 0.58669 0.07108 0.37844 0.0
O212 O 0.61656 0.09048 0.41269 0.0
O213 O 0.62132 0.04986 0.4427 0.0
O214 O 0.56922 0.10798 0.3545 0.0
O215 O 0.63129 0.00627 0.3768 0.0
O216 O 0.60794 0.04054 0.34686 0.0
C217 C 0.62677 0.07833 0.43766 0.0
C218 C 0.53718 0.02632 0.40424 0.0
O219 O 0.54506 0.05292 0.39422 0.0
O220 O 0.55824 0.00676 0.41088 0.0
C221 C 0.5475 0.12379 0.36749 0.0
O222 O 0.5393 0.11689 0.39588 0.0
C223 C 0.62601 0.01708 0.35027 0.0
Zn224 Zn 0.70797 0.80518 0.16806 0.0
Zn225 Zn 0.72132 0.84442 0.12728 0.0
O226 O 0.68532 0.81517 0.10795 0.0
O227 O 0.67431 0.78285 0.14547 0.0
O228 O 0.74068 0.86608 0.09027 0.0
O229 O 0.6951 0.84186 0.19472 0.0
O230 O 0.70263 0.87615 0.15763 0.0
C231 C 0.6687 0.79268 0.11861 0.0
C232 C 0.77127 0.80637 0.16438 0.0
O233 O 0.76238 0.8297 0.14889 0.0
O234 O 0.75089 0.78652 0.17275 0.0
C235 C 0.76061 0.84937 0.0758 0.0
O236 O 0.76506 0.82072 0.08499 0.0
C237 C 0.69414 0.86957 0.18511 0.0
Zn238 Zn 0.96836 0.05812 0.61673 0.0
Zn239 Zn 0.91177 0.06025 0.59548 0.0
O240 O 0.90895 0.02288 0.62598 0.0
O241 O 0.95998 0.0167 0.6346 0.0
O242 O 0.8686 0.06859 0.57712 0.0
O243 O 0.96643 0.09603 0.64307 0.0
O244 O 0.92528 0.10329 0.61246 0.0
C245 C 0.93163 0.00759 0.63811 0.0
C246 C 0.96506 0.05895 0.55111 0.0
O247 O 0.93612 0.05235 0.55605 0.0
O248 O 0.98392 0.06402 0.57352 0.0
C249 C 0.85569 0.05032 0.55727 0.0
O250 O 0.86787 0.02272 0.55256 0.0
C251 C 0.94598 0.11384 0.63159 0.0
Zn252 Zn 0.62571 0.15451 0.30605 0.0
Zn253 Zn 0.65633 0.13807 0.35185 0.0
O254 O 0.6208 0.16564 0.37237 0.0
O255 O 0.6044 0.18789 0.32975 0.0
O256 O 0.68264 0.11907 0.3863 0.0
O257 O 0.60508 0.11444 0.29366 0.0
O258 O 0.64513 0.10029 0.32289 0.0
C259 C 0.60431 0.1864 0.35892 0.0
C260 C 0.69026 0.16955 0.30099 0.0
O261 O 0.68952 0.16434 0.32982 0.0
O262 O 0.66593 0.16444 0.28438 0.0
C263 C 0.70533 0.13492 0.39837 0.0
O264 O 0.70917 0.16406 0.3903 0.0
C265 C 0.6243 0.09385 0.30208 0.0
Zn266 Zn 0.66062 0.93067 0.07588 0.0
Zn267 Zn 0.6235 0.88764 0.08984 0.0
O268 O 0.65703 0.86638 0.06026 0.0
O269 O 0.68606 0.90682 0.04681 0.0
O270 O 0.59663 0.85244 0.10766 0.0
O271 O 0.67669 0.9437 0.11709 0.0
O272 O 0.63565 0.91441 0.12906 0.0
C273 C 0.67922 0.87831 0.04401 0.0
C274 C 0.59701 0.94109 0.05509 0.0
O275 O 0.59219 0.91357 0.06472 0.0
O276 O 0.62404 0.95381 0.05843 0.0
C277 C 0.57322 0.84087 0.09255 0.0
O278 O 0.56759 0.85076 0.06441 0.0
C279 C 0.65662 0.93483 0.13674 0.0
Zn280 Zn 0.91292 0.77417 0.80224 0.0
Zn281 Zn 0.88506 0.80445 0.85052 0.0
O282 O 0.92178 0.78339 0.87391 0.0
O283 O 0.94005 0.75555 0.8349 0.0
O284 O 0.85639 0.82128 0.88351 0.0
O285 O 0.92091 0.81598 0.78403 0.0
O286 O 0.89544 0.8409 0.82109 0.0
C287 C 0.94022 0.76265 0.86338 0.0
C288 C 0.85106 0.75469 0.80886 0.0
O289 O 0.85389 0.77361 0.83148 0.0
O290 O 0.87368 0.75085 0.79026 0.0
C291 C 0.84464 0.80151 0.90207 0.0
O292 O 0.85472 0.77273 0.9011 0.0
C293 C 0.91023 0.84094 0.79544 0.0
Zn294 Zn 0.49927 0.59989 0.01727 0.0
Zn295 Zn 0.43975 0.6228 0.01838 0.0
O296 O 0.43671 0.59597 0.05825 0.0
O297 O 0.48653 0.58037 0.05849 0.0
O298 O 0.39629 0.63918 0.00407 0.0
O299 O 0.51741 0.64275 0.01605 0.0
O300 O 0.46971 0.66127 0.0251 0.0
C301 C 0.45933 0.58096 0.07098 0.0
C302 C 0.46717 0.57865 0.96646 0.0
O303 O 0.44688 0.59496 0.98055 0.0
O304 O 0.49486 0.57618 0.97743 0.0
C305 C 0.37861 0.61793 0.99212 0.0
O306 O 0.38592 0.58884 0.99718 0.0
C307 C 0.49956 0.66545 0.02172 0.0
Zn308 Zn 0.1209 0.6674 0.74673 0.0
Zn309 Zn 0.15659 0.64605 0.79129 0.0
O310 O 0.11547 0.66378 0.8119 0.0
O311 O 0.08243 0.67022 0.77294 0.0
O312 O 0.1861 0.63161 0.82629 0.0
O313 O 0.12745 0.63126 0.71881 0.0
O314 O 0.15612 0.611 0.75625 0.0
C315 C 0.0884 0.67225 0.8016 0.0
C316 C 0.17329 0.7073 0.76226 0.0
O317 O 0.18072 0.68435 0.77894 0.0
O318 O 0.14848 0.70617 0.74557 0.0
C319 C 0.19334 0.65149 0.84741 0.0
O320 O 0.17889 0.6784 0.84743 0.0
C321 C 0.14403 0.60927 0.72896 0.0
Zn322 Zn 0.1583 0.45201 0.49644 0.0
Zn323 Zn 0.13551 0.39853 0.51642 0.0
O324 O 0.17228 0.38356 0.48595 0.0
O325 O 0.18575 0.42923 0.46711 0.0
O326 O 0.11034 0.36137 0.5341 0.0
O327 O 0.17491 0.46597 0.53789 0.0
O328 O 0.14731 0.42623 0.55546 0.0
C329 C 0.18869 0.40001 0.46713 0.0
C330 C 0.09267 0.44508 0.48368 0.0
O331 O 0.09828 0.41817 0.49406 0.0
O332 O 0.11461 0.46539 0.48304 0.0
C333 C 0.09282 0.3442 0.51659 0.0
O334 O 0.09547 0.34684 0.48646 0.0
C335 C 0.16349 0.45118 0.5604 0.0
Zn336 Zn 0.06408 0.36115 0.70072 0.0
Zn337 Zn 0.10753 0.34852 0.65926 0.0
O338 O 0.06728 0.32418 0.64518 0.0
O339 O 0.03065 0.33709 0.67883 0.0
O340 O 0.13858 0.3453 0.6239 0.0
O341 O 0.06683 0.40693 0.6968 0.0
O342 O 0.10753 0.39576 0.66743 0.0
C343 C 0.03903 0.32156 0.65539 0.0
C344 C 0.11774 0.32524 0.72347 0.0
O345 O 0.12759 0.32669 0.69574 0.0
O346 O 0.09216 0.33839 0.73118 0.0
C347 C 0.15917 0.32457 0.61833 0.0
O348 O 0.16122 0.30033 0.63643 0.0
C349 C 0.09071 0.4157 0.6816 0.0
Zn350 Zn 0.33603 0.59659 0.16498 0.0
Zn351 Zn 0.38237 0.62515 0.16718 0.0
O352 O 0.39495 0.58454 0.19182 0.0
O353 O 0.34533 0.57163 0.20076 0.0
O354 O 0.42051 0.65399 0.16166 0.0
O355 O 0.3403 0.57573 0.12477 0.0
O356 O 0.36901 0.61822 0.12087 0.0
C357 C 0.3745 0.56698 0.20503 0.0
C358 C 0.31956 0.65218 0.18684 0.0
O359 O 0.34958 0.65174 0.191 0.0
O360 O 0.30643 0.63152 0.17005 0.0
C361 C 0.43164 0.67437 0.18049 0.0
O362 O 0.42037 0.67601 0.20869 0.0
C363 C 0.35426 0.59536 0.10817 0.0
Zn364 Zn 0.52325 0.57266 0.64207 0.0
Zn365 Zn 0.56894 0.60774 0.61809 0.0
O366 O 0.53389 0.63964 0.62986 0.0
O367 O 0.49882 0.61055 0.65423 0.0
O368 O 0.60177 0.63074 0.59267 0.0
O369 O 0.5552 0.55278 0.66897 0.0
O370 O 0.59306 0.58461 0.65365 0.0
C371 C 0.5079 0.63685 0.64466 0.0
C372 C 0.53573 0.55496 0.58163 0.0
O373 O 0.55658 0.57627 0.58466 0.0
O374 O 0.51587 0.54973 0.60273 0.0
C375 C 0.61437 0.65762 0.59014 0.0
O376 O 0.60651 0.68015 0.60922 0.0
C377 C 0.5838 0.56181 0.67011 0.0
Zn378 Zn 0.98649 0.45083 0.16979 0.0
Zn379 Zn 0.93131 0.43614 0.14275 0.0
O380 O 0.94788 0.39247 0.15447 0.0
O381 O 0.99591 0.40466 0.17139 0.0
O382 O 0.88892 0.42796 0.12197 0.0
O383 O 0.96521 0.47521 0.20387 0.0
O384 O 0.92104 0.46871 0.17699 0.0
C385 C 0.97523 0.38426 0.16394 0.0
C386 C 0.98275 0.46996 0.10677 0.0
O387 O 0.95685 0.45452 0.10726 0.0
O388 O 0.99911 0.47382 0.13122 0.0
C389 C 0.88738 0.40935 0.09896 0.0
O390 O 0.91324 0.39513 0.09006 0.0
C391 C 0.93627 0.48154 0.19945 0.0
Zn392 Zn 0.56813 0.67061 0.75663 0.0
Zn393 Zn 0.59586 0.65289 0.70056 0.0
O394 O 0.57812 0.61201 0.7206 0.0
O395 O 0.55617 0.62626 0.76469 0.0
O396 O 0.62293 0.63944 0.66253 0.0
O397 O 0.54291 0.70024 0.73087 0.0
O398 O 0.56455 0.68758 0.6862 0.0
C399 C 0.56402 0.60513 0.7458 0.0
C400 C 0.63312 0.68376 0.75529 0.0
O401 O 0.62933 0.67239 0.72827 0.0
O402 O 0.61002 0.68556 0.77368 0.0
C403 C 0.65323 0.63733 0.6633 0.0
O404 O 0.66855 0.64341 0.6892 0.0
C405 C 0.54595 0.70469 0.7021 0.0
Zn406 Zn 0.36151 0.4248 0.43265 0.0
Zn407 Zn 0.38852 0.37454 0.42546 0.0
O408 O 0.34832 0.36255 0.45229 0.0
O409 O 0.33287 0.40956 0.46503 0.0
O410 O 0.41271 0.3355 0.41459 0.0
O411 O 0.34549 0.43055 0.39025 0.0
O412 O 0.38409 0.39737 0.38311 0.0
C413 C 0.32988 0.38045 0.46754 0.0
C414 C 0.4266 0.42707 0.44949 0.0
O415 O 0.42295 0.39774 0.4493 0.0
O416 O 0.4039 0.44438 0.44181 0.0
C417 C 0.42763 0.31979 0.43473 0.0
O418 O 0.42331 0.32587 0.46423 0.0
C419 C 0.36547 0.41803 0.37261 0.0
Zn420 Zn 0.17368 0.52082 0.89893 0.0
Zn421 Zn 0.15317 0.58011 0.89803 0.0
O422 O 0.19478 0.58628 0.92137 0.0
O423 O 0.21026 0.53754 0.92408 0.0
O424 O 0.13215 0.6212 0.89597 0.0
O425 O 0.17679 0.52109 0.85284 0.0
O426 O 0.15557 0.56765 0.85233 0.0
C427 C 0.21454 0.56609 0.93044 0.0
C428 C 0.1147 0.52811 0.92936 0.0
O429 O 0.12056 0.55634 0.92293 0.0
O430 O 0.13321 0.50695 0.92031 0.0
C431 C 0.12332 0.63704 0.91927 0.0
O432 O 0.13331 0.62962 0.94705 0.0
C433 C 0.16636 0.54408 0.83805 0.0
Zn434 Zn 0.43892 0.34775 0.21464 0.0
Zn435 Zn 0.4054 0.3653 0.2673 0.0
O436 O 0.43697 0.33191 0.2826 0.0
O437 O 0.46381 0.31815 0.24118 0.0
O438 O 0.37396 0.37179 0.30278 0.0
O439 O 0.4505 0.39328 0.21024 0.0
O440 O 0.42074 0.40803 0.2496 0.0
C441 C 0.45782 0.31495 0.26965 0.0
C442 C 0.37292 0.33628 0.20981 0.0
O443 O 0.37449 0.34782 0.23686 0.0
O444 O 0.39784 0.33229 0.19416 0.0
C445 C 0.36541 0.35008 0.32103 0.0
O446 O 0.37989 0.32324 0.31983 0.0
C447 C 0.43853 0.41466 0.22663 0.0
H448 H 0.06116 0.06144 0.04887 0.0
H449 H 0.01229 0.02764 0.90063 0.0
H450 H 0.99111 0.9891 0.06346 0.0
H451 H 0.00958 0.93168 0.92847 0.0
H452 H 0.03554 0.0418 0.95075 0.0
H453 H 0.0699 0.04087 0.99663 0.0
C454 C 0.04787 0.04102 0.04122 0.0
C455 C 0.0247 0.02736 0.06014 0.0
C456 C 0.03126 0.01746 0.9454 0.0
C457 C 0.03505 0.00372 0.00096 0.0
C458 C 0.01797 0.0094 0.9168 0.0
C459 C 0.00849 0.9786 0.9108 0.0
C460 C 0.03408 0.9946 0.96817 0.0
C461 C 0.0163 0.95576 0.9324 0.0
C462 C 0.05298 0.02936 0.01152 0.0
C463 C 0.00858 0.00074 0.0493 0.0
N464 N 0.02745 0.9644 0.96076 0.0
N465 N 0.01392 0.98987 0.02026 0.0
H466 H 0.25572 0.65964 0.18084 0.0
H467 H 0.24368 0.77452 0.3259 0.0
H468 H 0.33702 0.69218 0.2339 0.0
H469 H 0.16196 0.73432 0.27907 0.0
H470 H 0.2782 0.74433 0.29258 0.0
H471 H 0.22118 0.68849 0.21533 0.0
C472 C 0.26637 0.67314 0.19958 0.0
C473 C 0.29932 0.67339 0.20464 0.0
C474 C 0.25275 0.74187 0.28969 0.0
C475 C 0.25978 0.70612 0.24442 0.0
C476 C 0.233 0.759 0.30878 0.0
C477 C 0.19994 0.75703 0.305 0.0
C478 C 0.23935 0.72279 0.26648 0.0
C479 C 0.18734 0.73643 0.28271 0.0
C480 C 0.24656 0.68942 0.21939 0.0
C481 C 0.31176 0.69137 0.22916 0.0
N482 N 0.20715 0.72028 0.26398 0.0
N483 N 0.29191 0.70693 0.24829 0.0
H484 H 0.42106 0.02381 0.54422 0.0
H485 H 0.50806 0.96964 0.4063 0.0
H486 H 0.39449 0.9364 0.50099 0.0
H487 H 0.49118 0.06756 0.41975 0.0
H488 H 0.45897 0.95791 0.43341 0.0
H489 H 0.43875 0.04283 0.49426 0.0
C490 C 0.41853 0.00884 0.52402 0.0
C491 C 0.4074 0.97823 0.52669 0.0
C492 C 0.46537 0.98201 0.42955 0.0
C493 C 0.42782 -0.00047 0.46976 0.0
C494 C 0.4935 0.98867 0.41429 0.0
C495 C 0.50406 0.01951 0.41193 0.0
C496 C 0.44855 0.00638 0.44341 0.0
C497 C 0.48411 0.0434 0.42187 0.0
C498 C 0.42823 0.01978 0.49544 0.0
C499 C 0.40368 0.95996 0.49984 0.0
N500 N 0.45771 0.03632 0.43822 0.0
N501 N 0.41484 0.97056 0.47251 0.0
H502 H 0.14753 0.17688 0.84797 0.0
H503 H 0.17768 0.3015 0.71973 0.0
H504 H 0.24251 0.20317 0.82108 0.0
H505 H 0.09542 0.30449 0.77864 0.0
H506 H 0.20187 0.26424 0.755 0.0
H507 H 0.1272 0.22229 0.82096 0.0
C508 C 0.16409 0.19234 0.83657 0.0
C509 C 0.19668 0.18621 0.83654 0.0
C510 C 0.17872 0.27345 0.76036 0.0
C511 C 0.17365 0.23776 0.80543 0.0
C512 C 0.16489 0.2946 0.74024 0.0
C513 C 0.13442 0.30587 0.74616 0.0
C514 C 0.16164 0.26314 0.78612 0.0
C515 C 0.11893 0.2963 0.77313 0.0
C516 C 0.15253 0.21828 0.82133 0.0
C517 C 0.21718 0.20707 0.82161 0.0
N518 N 0.13251 0.27509 0.79189 0.0
N519 N 0.20526 0.23172 0.80622 0.0
H520 H 0.01652 0.98594 0.38127 0.0
H521 H 0.01853 0.08854 0.53194 0.0
H522 H 0.099 0.01528 0.43407 0.0
H523 H 0.93816 0.0348 0.49808 0.0
H524 H 0.04324 0.08352 0.48142 0.0
H525 H 0.98507 0.02489 0.40872 0.0
C526 C 0.02817 0.00131 0.39792 0.0
C527 C 0.05991 0.99685 0.40652 0.0
C528 C 0.01988 0.0734 0.48484 0.0
C529 C 0.02455 0.04108 0.43741 0.0
C530 C 0.00595 0.07593 0.51372 0.0
C531 C 0.97707 0.06067 0.51945 0.0
C532 C 0.00517 0.05484 0.46195 0.0
C533 C 0.96105 0.0459 0.49479 0.0
C534 C 0.01029 0.02348 0.41347 0.0
C535 C 0.07421 0.01745 0.42773 0.0
N536 N 0.97578 0.04256 0.46718 0.0
N537 N 0.05624 0.0384 0.44292 0.0
H538 H 0.258 0.88336 0.73289 0.0
H539 H 0.21998 0.72052 0.80446 0.0
H540 H 0.31035 0.84377 0.8088 0.0
H541 H 0.16518 0.76171 0.73094 0.0
H542 H 0.24616 0.77035 0.81388 0.0
H543 H 0.21492 0.84649 0.74197 0.0
C544 C 0.25992 0.86761 0.75221 0.0
C545 C 0.28825 0.86558 0.76928 0.0
C546 C 0.22828 0.7686 0.7958 0.0
C547 C 0.23971 0.82295 0.77915 0.0
C548 C 0.21364 0.74 0.79006 0.0
C549 C 0.19089 0.73678 0.76634 0.0
C550 C 0.22046 0.79413 0.77743 0.0
C551 C 0.18304 0.76302 0.74904 0.0
C552 C 0.23543 0.84638 0.75722 0.0
C553 C 0.28923 0.84545 0.79452 0.0
N554 N 0.1981 0.79056 0.75471 0.0
N555 N 0.26568 0.82411 0.79809 0.0
H556 H 0.49225 0.09166 0.97923 0.0
H557 H 0.53471 0.92359 0.04382 0.0
H558 H 0.42584 0.01444 0.97463 0.0
H559 H 0.60108 0.00015 0.03419 0.0
H560 H 0.49297 0.95617 0.02149 0.0
H561 H 0.53084 0.05826 0.00347 0.0
C562 C 0.48573 0.06764 0.98338 0.0
C563 C 0.45585 0.05577 0.9747 0.0
C564 C 0.51675 0.96565 0.0243 0.0
C565 C 0.50018 0.01716 0.00241 0.0
C566 C 0.54051 0.94711 0.03696 0.0
C567 C 0.57139 0.95917 0.04087 0.0
C568 C 0.5241 0.99631 0.01576 0.0
C569 C 0.57766 0.98978 0.03166 0.0
C570 C 0.50785 0.0485 0.9972 0.0
C571 C 0.4487 0.02448 0.98089 0.0
N572 N 0.55425 0.00722 0.01964 0.0
N573 N 0.47083 0.00612 0.99431 0.0
H574 H 0.31582 0.35795 0.22749 0.0
H575 H 0.225 0.20944 0.15977 0.0
H576 H 0.35923 0.2902 0.16733 0.0
H577 H 0.19425 0.26292 0.23905 0.0
H578 H 0.26817 0.24644 0.15227 0.0
H579 H 0.26479 0.33184 0.21993 0.0
C580 C 0.31443 0.33787 0.21216 0.0
C581 C 0.34178 0.32558 0.19863 0.0
C582 C 0.25184 0.25019 0.17114 0.0
C583 C 0.28375 0.29558 0.19028 0.0
C584 C 0.22724 0.22905 0.17559 0.0
C585 C 0.20627 0.23291 0.20044 0.0
C586 C 0.25547 0.27539 0.1916 0.0
C587 C 0.21017 0.25886 0.21992 0.0
C588 C 0.28535 0.32299 0.20797 0.0
C589 C 0.33868 0.30007 0.17846 0.0
N590 N 0.23452 0.2791 0.21518 0.0
N591 N 0.31013 0.28542 0.17535 0.0
H592 H 0.4091 0.55142 0.9589 0.0
H593 H 0.45436 0.40431 0.92997 0.0
H594 H 0.50165 0.55783 0.91739 0.0
H595 H 0.47269 0.43284 0.83635 0.0
H596 H 0.43295 0.45587 0.94103 0.0
H597 H 0.39735 0.50537 0.92726 0.0
C598 C 0.4264 0.54405 0.94215 0.0
C599 C 0.45667 0.55795 0.94116 0.0
C600 C 0.44033 0.45031 0.91768 0.0
C601 C 0.44319 0.50584 0.90502 0.0
C602 C 0.45271 0.42107 0.9115 0.0
C603 C 0.46552 0.41472 0.88243 0.0
C604 C 0.44223 0.47338 0.89498 0.0
C605 C 0.46305 0.43708 0.85914 0.0
C606 C 0.41962 0.51776 0.92421 0.0
C607 C 0.4783 0.54727 0.91921 0.0
N608 N 0.45293 0.46605 0.8663 0.0
N609 N 0.4713 0.52139 0.90223 0.0
H610 H 0.76865 0.28213 0.16914 0.0
H611 H 0.7363 0.20633 0.32823 0.0
H612 H 0.83191 0.30088 0.24631 0.0
H613 H 0.70744 0.16439 0.24118 0.0
H614 H 0.77453 0.23902 0.30049 0.0
H615 H 0.74674 0.23799 0.19654 0.0
C616 C 0.77779 0.27697 0.192 0.0
C617 C 0.80166 0.29529 0.20581 0.0
C618 C 0.76036 0.22205 0.28766 0.0
C619 C 0.77695 0.24476 0.23722 0.0
C620 C 0.73865 0.20347 0.30343 0.0
C621 C 0.71817 0.18357 0.28668 0.0
C622 C 0.7611 0.2205 0.25521 0.0
C623 C 0.72219 0.18028 0.25472 0.0
C624 C 0.76563 0.25152 0.20746 0.0
C625 C 0.81324 0.2873 0.23514 0.0
N626 N 0.74284 0.19904 0.23991 0.0
N627 N 0.80035 0.26275 0.25024 0.0
H628 H 0.0393 0.40793 0.48399 0.0
H629 H 0.92453 0.55294 0.46948 0.0
H630 H 0.07082 0.50218 0.46746 0.0
H631 H 0.88947 0.45834 0.46242 0.0
H632 H 0.97815 0.53372 0.47418 0.0
H633 H 0.98424 0.42487 0.47915 0.0
C634 C 0.03469 0.43208 0.47894 0.0
C635 C 0.05972 0.45374 0.47629 0.0
C636 C 0.95879 0.51708 0.47169 0.0
C637 C 0.99695 0.4732 0.4713 0.0
C638 C 0.92805 0.52803 0.46922 0.0
C639 C 0.90243 0.5072 0.46532 0.0
C640 C 0.96417 0.48501 0.47035 0.0
C641 C 0.90855 0.47519 0.46538 0.0
C642 C 0.00327 0.44171 0.47633 0.0
C643 C 0.05235 0.48468 0.46978 0.0
N644 N 0.93894 0.46501 0.4677 0.0
N645 N 0.02164 0.49351 0.46778 0.0
H646 H 0.7802 0.79042 0.32714 0.0
H647 H 0.81216 0.75927 0.1766 0.0
H648 H 0.87147 0.74749 0.3164 0.0
H649 H 0.79621 0.85662 0.1941 0.0
H650 H 0.84224 0.75668 0.22498 0.0
H651 H 0.78979 0.82001 0.28006 0.0
C652 C 0.80276 0.7882 0.31551 0.0
C653 C 0.82486 0.76629 0.32522 0.0
C654 C 0.83358 0.77902 0.21748 0.0
C655 C 0.83536 0.79879 0.27103 0.0
C656 C 0.81652 0.78047 0.1898 0.0
C657 C 0.80121 0.80798 0.18186 0.0
C658 C 0.83375 0.80481 0.23767 0.0
C659 C 0.80738 0.83483 0.19977 0.0
C660 C 0.80834 0.80514 0.28876 0.0
C661 C 0.85375 0.76409 0.30938 0.0
N662 N 0.82182 0.83226 0.22779 0.0
N663 N 0.85763 0.77911 0.28217 0.0
H664 H 0.75695 0.2379 0.68917 0.0
H665 H 0.80766 0.37141 0.80755 0.0
H666 H 0.85592 0.26324 0.69859 0.0
H667 H 0.72734 0.30924 0.81836 0.0
H668 H 0.82559 0.3391 0.76389 0.0
H669 H 0.74424 0.27415 0.73045 0.0
C670 C 0.776 0.25149 0.6998 0.0
C671 C 0.80755 0.24734 0.69094 0.0
C672 C 0.80427 0.33256 0.77617 0.0
C673 C 0.79324 0.28844 0.73871 0.0
C674 C 0.79406 0.35081 0.80108 0.0
C675 C 0.76572 0.34319 0.8164 0.0
C676 C 0.78569 0.30699 0.76649 0.0
C677 C 0.74911 0.31626 0.80713 0.0
C678 C 0.76877 0.27198 0.7235 0.0
C679 C 0.8313 0.26586 0.705 0.0
N680 N 0.75915 0.2994 0.78258 0.0
N681 N 0.8237 0.28555 0.72868 0.0
H682 H 0.83286 0.72036 0.75825 0.0
H683 H 0.65461 0.69601 0.81422 0.0
H684 H 0.79977 0.75355 0.84693 0.0
H685 H 0.68412 0.69403 0.71872 0.0
H686 H 0.70929 0.70912 0.82961 0.0
H687 H 0.77976 0.70013 0.74692 0.0
C688 C 0.81452 0.7231 0.77545 0.0
C689 C 0.82048 0.73907 0.80331 0.0
C690 C 0.70364 0.70563 0.80533 0.0
C691 C 0.75994 0.71628 0.79045 0.0
C692 C 0.67254 0.69835 0.79654 0.0
C693 C 0.66503 0.69354 0.7652 0.0
C694 C 0.72707 0.70787 0.78255 0.0
C695 C 0.68903 0.6968 0.74319 0.0
C696 C 0.78423 0.7117 0.76892 0.0
C697 C 0.79596 0.74176 0.82493 0.0
N698 N 0.71904 0.70366 0.75231 0.0
N699 N 0.76655 0.73065 0.81794 0.0
H700 H 0.44946 0.48335 0.4322 0.0
H701 H 0.53931 0.49283 0.58406 0.0
H702 H 0.47353 0.40266 0.48558 0.0
H703 H 0.53603 0.56893 0.52017 0.0
H704 H 0.53094 0.45637 0.54132 0.0
H705 H 0.49474 0.51109 0.45464 0.0
C706 C 0.46459 0.4714 0.44848 0.0
C707 C 0.45701 0.44134 0.45842 0.0
C708 C 0.53272 0.48094 0.53632 0.0
C709 C 0.50852 0.47292 0.48436 0.0
C710 C 0.53719 0.50169 0.56076 0.0
C711 C 0.5369 0.53365 0.55537 0.0
C712 C 0.52646 0.49251 0.50667 0.0
C713 C 0.53533 0.54429 0.52502 0.0
C714 C 0.49068 0.4871 0.46101 0.0
C715 C 0.47803 0.4263 0.4783 0.0
N716 N 0.52911 0.5237 0.5017 0.0
N717 N 0.50243 0.44262 0.4914 0.0
H718 H 0.08761 0.47104 0.94055 0.0
H719 H 0.01751 0.52264 0.09811 0.0
H720 H 0.08139 0.56827 0.96546 0.0
H721 H 0.97633 0.44395 0.04916 0.0
H722 H 0.04326 0.53895 0.05035 0.0
H723 H 0.0484 0.45897 0.98044 0.0
C724 C 0.07771 0.48985 0.9541 0.0
C725 C 0.08804 0.52063 0.94999 0.0
C726 C 0.02818 0.51839 0.04995 0.0
C727 C 0.04381 0.50696 0.99562 0.0
C728 C 0.01365 0.50903 0.07716 0.0
C729 C 0.99499 0.4819 0.07743 0.0
C730 C 0.02473 0.49996 0.02314 0.0
C731 C 0.99055 0.46507 0.04974 0.0
C732 C 0.05528 0.48297 0.97669 0.0
C733 C 0.07427 0.54417 0.96799 0.0
N734 N 0.00591 0.47403 0.02371 0.0
N735 N 0.05331 0.53677 0.99046 0.0
H736 H 0.9879 1e-05 0.2296 0.0
H737 H 0.13127 0.88513 0.25395 0.0
H738 H 0.08512 0.02227 0.20711 0.0
H739 H 0.0487 0.87822 0.312 0.0
H740 H 0.11005 0.93175 0.23108 0.0
H741 H 0.00618 0.95385 0.25716 0.0
C742 C 0.01312 0.99559 0.23093 0.0
C743 C 0.03497 0.01505 0.21571 0.0
C744 C 0.09647 0.92015 0.24883 0.0
C745 C 0.05578 0.96178 0.2465 0.0
C746 C 0.10843 0.89325 0.26181 0.0
C747 C 0.09233 0.87816 0.28584 0.0
C748 C 0.06763 0.93203 0.25924 0.0
C749 C 0.06239 0.88948 0.29419 0.0
C750 C 0.02345 0.96913 0.24656 0.0
C751 C 0.06733 0.00805 0.21831 0.0
N752 N 0.05102 0.91595 0.28103 0.0
N753 N 0.07664 0.98179 0.23291 0.0
H754 H 0.28349 0.81321 0.55959 0.0
H755 H 0.19645 0.88874 0.41402 0.0
H756 H 0.30045 0.90549 0.52459 0.0
H757 H 0.16633 0.79964 0.44918 0.0
H758 H 0.23463 0.89353 0.45544 0.0
H759 H 0.24103 0.80589 0.52043 0.0
C760 C 0.27846 0.8318 0.54365 0.0
C761 C 0.29561 0.86003 0.54544 0.0
C762 C 0.21965 0.87292 0.4545 0.0
C763 C 0.24748 0.85174 0.50074 0.0
C764 C 0.19747 0.8702 0.43076 0.0
C765 C 0.17776 0.84377 0.42802 0.0
C766 C 0.22265 0.84905 0.47612 0.0
C767 C 0.18074 0.8206 0.45057 0.0
C768 C 0.25418 0.82764 0.52144 0.0
C769 C 0.28797 0.88336 0.52432 0.0
N770 N 0.20294 0.82369 0.47369 0.0
N771 N 0.26472 0.87861 0.50296 0.0
H772 H 0.22915 0.01248 0.80021 0.0
H773 H 0.34633 0.02896 0.65664 0.0
H774 H 0.30007 0.08468 0.78984 0.0
H775 H 0.29877 0.94261 0.67776 0.0
H776 H 0.31707 0.05447 0.69805 0.0
H777 H 0.24543 0.98993 0.75039 0.0
C778 C 0.24828 0.02343 0.7876 0.0
C779 C 0.26364 0.05024 0.79943 0.0
C780 C 0.31266 0.03001 0.69337 0.0
C781 C 0.28138 0.02534 0.7421 0.0
C782 C 0.32922 0.01549 0.66962 0.0
C783 C 0.32566 0.98341 0.66437 0.0
C784 C 0.29288 0.0122 0.71244 0.0
C785 C 0.30273 0.96718 0.68141 0.0
C786 C 0.25734 0.01071 0.75911 0.0
C787 C 0.28799 0.06369 0.78197 0.0
N788 N 0.2877 0.9816 0.70528 0.0
N789 N 0.29593 0.05122 0.75417 0.0
H790 H 0.20941 0.04892 0.97029 0.0
H791 H 0.10751 0.16165 0.06813 0.0
H792 H 0.22308 0.14802 0.96484 0.0
H793 H 0.13513 0.07368 0.10638 0.0
H794 H 0.14917 0.15658 0.02939 0.0
H795 H 0.18268 0.05608 0.02016 0.0
C796 C 0.20776 0.07207 0.98019 0.0
C797 C 0.21898 0.09792 0.96387 0.0
C798 C 0.14651 0.13867 0.04663 0.0
C799 C 0.18724 0.1064 0.01986 0.0
C800 C 0.12276 0.14155 0.06875 0.0
C801 C 0.11783 0.11807 0.09049 0.0
C802 C 0.16526 0.1119 0.04594 0.0
C803 C 0.13825 0.09244 0.09015 0.0
C804 C 0.19242 0.07617 0.00852 0.0
C805 C 0.21553 0.1275 0.9772 0.0
N806 N 0.16075 0.08976 0.06785 0.0
N807 N 0.19934 0.13103 0.00408 0.0
H808 H 0.15498 0.0523 0.19991 0.0
H809 H 0.18736 0.9793 0.36553 0.0
H810 H 0.17188 0.10437 0.28443 0.0
H811 H 0.16488 0.92398 0.28444 0.0
H812 H 0.19675 0.02399 0.33253 0.0
H813 H 0.1697 0.00451 0.22718 0.0
C814 C 0.16206 0.05373 0.22403 0.0
C815 C 0.1616 0.08229 0.24004 0.0
C816 C 0.19046 0.0019 0.32178 0.0
C817 C 0.17904 0.02805 0.27115 0.0
C818 C 0.18569 0.97611 0.34067 0.0
C819 C 0.17419 0.94808 0.32783 0.0
C820 C 0.18357 -0.00042 0.28991 0.0
C821 C 0.1727 0.94548 0.29536 0.0
C822 C 0.17058 0.02652 0.23956 0.0
C823 C 0.1712 0.08283 0.27125 0.0
N824 N 0.17624 0.97115 0.27755 0.0
N825 N 0.1793 0.05622 0.28573 0.0
H826 H 0.25116 0.83452 0.63118 0.0
H827 H 0.19066 0.9406 0.49223 0.0
H828 H 0.28615 0.92786 0.61732 0.0
H829 H 0.14223 0.85714 0.52135 0.0
H830 H 0.2267 0.93635 0.53688 0.0
H831 H 0.2118 0.8423 0.59036 0.0
C832 C 0.25066 0.85671 0.6196 0.0
C833 C 0.27267 0.88035 0.62745 0.0
C834 C 0.20798 0.91916 0.53364 0.0
C835 C 0.22736 0.88942 0.58027 0.0
C836 C 0.18744 0.92152 0.5081 0.0
C837 C 0.16328 0.89923 0.50298 0.0
C838 C 0.2047 0.89405 0.554 0.0
C839 C 0.16035 0.87497 0.52435 0.0
C840 C 0.22804 0.86116 0.59627 0.0
C841 C 0.27048 0.90864 0.6116 0.0
N842 N 0.18091 0.8729 0.54865 0.0
N843 N 0.2485 0.91229 0.58863 0.0
H844 H 0.45084 0.09045 0.83957 0.0
H845 H 0.35352 0.98483 0.72103 0.0
H846 H 0.35015 0.09472 0.82261 0.0
H847 H 0.45065 0.96783 0.74506 0.0
H848 H 0.35768 0.03631 0.74454 0.0
H849 H 0.45618 0.0572 0.79334 0.0
C850 C 0.43009 0.08552 0.82533 0.0
C851 C 0.39995 0.09509 0.83493 0.0
C852 C 0.37848 0.02188 0.74382 0.0
C853 C 0.40575 0.05681 0.78257 0.0
C854 C 0.3763 0.99283 0.7294 0.0
C855 C 0.40192 0.97255 0.72974 0.0
C856 C 0.40627 0.03047 0.75994 0.0
C857 C 0.43033 0.98297 0.74387 0.0
C858 C 0.43308 0.06624 0.79918 0.0
C859 C 0.37376 0.08765 0.81602 0.0
N860 N 0.4316 0.011 0.75892 0.0
N861 N 0.37719 0.06863 0.79104 0.0
H862 H 0.29482 0.16791 0.95833 0.0
H863 H 0.26158 0.12316 0.13179 0.0
H864 H 0.3696 0.14811 0.02324 0.0
H865 H 0.19326 0.17346 0.0777 0.0
H866 H 0.30119 0.13228 0.09193 0.0
H867 H 0.25792 0.17399 0.00146 0.0
C868 C 0.30369 0.16589 0.98172 0.0
C869 C 0.33547 0.15823 0.98725 0.0
C870 C 0.27754 0.14134 0.08869 0.0
C871 C 0.2926 0.16174 0.03642 0.0
C872 C 0.25476 0.13591 0.11136 0.0
C873 C 0.22369 0.14684 0.10776 0.0
C874 C 0.26932 0.15773 0.06194 0.0
C875 C 0.21653 0.16361 0.08094 0.0
C876 C 0.28245 0.16862 0.00629 0.0
C877 C 0.34543 0.15471 0.01804 0.0
N878 N 0.23906 0.16831 0.05893 0.0
N879 N 0.32393 0.15572 0.04139 0.0
H880 H 0.94337 0.32097 0.10512 0.0
H881 H 0.91944 0.14165 0.14384 0.0
H882 H 0.85178 0.27591 0.11143 0.0
H883 H 0.01074 0.18119 0.12123 0.0
H884 H 0.89455 0.19058 0.13015 0.0
H885 H 0.96851 0.26986 0.10571 0.0
C886 C 0.92849 0.30028 0.10566 0.0
C887 C 0.89539 0.30279 0.10833 0.0
C888 C 0.92005 0.18866 0.12816 0.0
C889 C 0.92416 0.24433 0.11092 0.0
C890 C 0.93437 0.16072 0.13623 0.0
C891 C 0.96742 0.15735 0.13425 0.0
C892 C 0.93878 0.21372 0.11802 0.0
C893 C 0.98533 0.18291 0.12388 0.0
C894 C 0.9429 0.27112 0.10652 0.0
C895 C 0.87734 0.27518 0.10917 0.0
N896 N 0.97083 0.21002 0.11629 0.0
N897 N 0.89197 0.24721 0.11121 0.0
H898 H 0.4884 0.24673 0.82627 0.0
H899 H 0.33678 0.21189 0.92954 0.0
H900 H 0.47744 0.28489 0.91821 0.0
H901 H 0.35961 0.15863 0.84786 0.0
H902 H 0.38848 0.23836 0.92645 0.0
H903 H 0.4425 0.21286 0.83469 0.0
C904 C 0.47667 0.2476 0.84846 0.0
C905 C 0.48687 0.26872 0.87157 0.0
C906 C 0.38234 0.22065 0.90938 0.0
C907 C 0.43349 0.23058 0.88103 0.0
C908 C 0.35278 0.20567 0.91105 0.0
C909 C 0.34411 0.18278 0.88912 0.0
C910 C 0.40307 0.21325 0.88514 0.0
C911 C 0.36565 0.1757 0.86558 0.0
C912 C 0.45032 0.22834 0.8532 0.0
C913 C 0.4706 0.26885 0.89982 0.0
N914 N 0.394 0.19102 0.86407 0.0
N915 N 0.44446 0.25041 0.90359 0.0
H916 H 0.91226 0.6555 0.45184 0.0
H917 H 0.04778 0.72338 0.34388 0.0
H918 H 0.9417 0.60876 0.36829 0.0
H919 H 0.04884 0.74057 0.44238 0.0
H920 H 0.00505 0.68506 0.35082 0.0
H921 H 0.95901 0.6901 0.44811 0.0
C922 C 0.9282 0.65281 0.43248 0.0
C923 C 0.92234 0.62981 0.40978 0.0
C924 C 0.01481 0.69706 0.37094 0.0
C925 C 0.97547 0.66965 0.4051 0.0
C926 C 0.0391 0.71909 0.36698 0.0
C927 C 0.05198 0.73535 0.39256 0.0
C928 C 0.00268 0.6916 0.40063 0.0
C929 C 0.03974 0.72859 0.42198 0.0
C930 C 0.95496 0.67241 0.43048 0.0
C931 C 0.94445 0.62682 0.38574 0.0
N932 N 0.01556 0.70754 0.42518 0.0
N933 N 0.96959 0.6468 0.38372 0.0
H934 H 0.02803 0.36304 0.13672 0.0
H935 H 0.02528 0.19728 0.20838 0.0
H936 H 0.94506 0.33111 0.18519 0.0
H937 H 0.08051 0.21963 0.12789 0.0
H938 H 0.9931 0.24351 0.19951 0.0
H939 H 0.04678 0.30971 0.1335 0.0
C940 C 0.01376 0.34466 0.14672 0.0
C941 C 0.98516 0.35146 0.16153 0.0
C942 C 0.0117 0.23784 0.18333 0.0
C943 C 0.00668 0.29015 0.15824 0.0
C944 C 0.02997 0.21134 0.18824 0.0
C945 C 0.0559 0.20474 0.16904 0.0
C946 C 0.01994 0.25825 0.15952 0.0
C947 C 0.06087 0.22379 0.14334 0.0
C948 C 0.02433 0.31416 0.14464 0.0
C949 C 0.96735 0.32676 0.17373 0.0
N950 N 0.04361 0.25008 0.13979 0.0
N951 N 0.9787 0.29716 0.17235 0.0
H952 H 0.5153 0.75019 0.73351 0.0
H953 H 0.43836 0.83686 0.59251 0.0
H954 H 0.5412 0.72335 0.64061 0.0
H955 H 0.45739 0.8812 0.68069 0.0
H956 H 0.47252 0.79333 0.60797 0.0
H957 H 0.49052 0.79629 0.71352 0.0
C958 C 0.5156 0.75374 0.70875 0.0
C959 C 0.53 0.73227 0.6887 0.0
C960 C 0.46939 0.81277 0.62372 0.0
C961 C 0.5007 0.78558 0.66546 0.0
C962 C 0.44965 0.83735 0.61511 0.0
C963 C 0.44471 0.86238 0.63559 0.0
C964 C 0.48328 0.81285 0.65338 0.0
C965 C 0.46032 0.86224 0.66433 0.0
C966 C 0.50156 0.7804 0.69737 0.0
C967 C 0.52994 0.73892 0.65689 0.0
N968 N 0.4784 0.83768 0.67254 0.0
N969 N 0.51495 0.76475 0.64613 0.0
H970 H 0.92756 0.72482 0.37735 0.0
H971 H 0.05498 0.84396 0.45177 0.0
H972 H 0.91595 0.76244 0.46938 0.0
H973 H 0.04079 0.82712 0.35402 0.0
H974 H 0.01133 0.80677 0.46228 0.0
H975 H 0.97591 0.75552 0.37198 0.0
C976 C 0.93557 0.73912 0.39673 0.0
C977 C 0.91783 0.74093 0.42395 0.0
C978 C 0.01816 0.81113 0.43861 0.0
C979 C 0.9737 0.77611 0.41804 0.0
C980 C 0.04326 0.83198 0.43263 0.0
C981 C 0.0516 0.83865 0.40197 0.0
C982 C 0.00177 0.79676 0.41374 0.0
C983 C 0.03526 0.82286 0.37802 0.0
C984 C 0.96314 0.75681 0.39358 0.0
C985 C 0.92912 0.76032 0.44808 0.0
N986 N 0.01123 0.80286 0.38441 0.0
N987 N 0.9565 0.77714 0.44464 0.0
H988 H 0.51708 0.18171 0.85904 0.0
H989 H 0.64337 0.28655 0.94572 0.0
H990 H 0.49926 0.20931 0.95348 0.0
H991 H 0.60877 0.31438 0.8561 0.0
H992 H 0.5998 0.24837 0.94857 0.0
H993 H 0.56034 0.22026 0.85701 0.0
C994 C 0.52238 0.19569 0.87946 0.0
C995 C 0.50423 0.19241 0.90642 0.0
C996 C 0.60188 0.26283 0.92831 0.0
C997 C 0.55433 0.236 0.90433 0.0
C998 C 0.62673 0.28461 0.92657 0.0
C999 C 0.62956 0.30414 0.90081 0.0
C1000 C 0.58047 0.25948 0.90352 0.0
C1001 C 0.6074 0.30015 0.87656 0.0
C1002 C 0.54699 0.21772 0.87816 0.0
C1003 C 0.51234 0.21126 0.93212 0.0
N1004 N 0.58408 0.278 0.87833 0.0
N1005 N 0.53698 0.23207 0.93055 0.0
H1006 H 0.90999 0.12793 0.69091 0.0
H1007 H 0.96578 0.99546 0.76716 0.0
H1008 H 0.84103 0.06489 0.65037 0.0
H1009 H 0.86515 0.97743 0.77035 0.0
H1010 H 0.9568 0.03231 0.72471 0.0
H1011 H 0.93208 0.0846 0.72062 0.0
C1012 C 0.9005 0.10472 0.68727 0.0
C1013 C 0.87458 0.09969 0.6673 0.0
C1014 C 0.93685 0.01978 0.73439 0.0
C1015 C 0.89802 0.05066 0.7025 0.0
C1016 C 0.94199 0.99832 0.75802 0.0
C1017 C 0.91617 0.98306 0.77173 0.0
C1018 C 0.90569 0.02569 0.7245 0.0
C1019 C 0.88568 0.98838 0.75996 0.0
C1020 C 0.91281 0.08009 0.70442 0.0
C1021 C 0.86146 0.0696 0.66511 0.0
N1022 N 0.88125 0.0093 0.73706 0.0
N1023 N 0.87286 0.04642 0.68298 0.0
H1024 H 0.64469 0.14098 0.43875 0.0
H1025 H 0.77201 0.10831 0.57267 0.0
H1026 H 0.65704 0.05475 0.48746 0.0
H1027 H 0.76159 0.20026 0.53571 0.0
H1028 H 0.73051 0.08935 0.5383 0.0
H1029 H 0.6858 0.16514 0.47263 0.0
C1030 C 0.65572 0.12724 0.45663 0.0
C1031 C 0.64781 0.09557 0.45974 0.0
C1032 C 0.73721 0.11368 0.5372 0.0
C1033 C 0.69467 0.12279 0.49806 0.0
C1034 C 0.76137 0.12437 0.55655 0.0
C1035 C 0.77068 0.15566 0.55646 0.0
C1036 C 0.72166 0.13441 0.51749 0.0
C1037 C 0.75561 0.17572 0.53571 0.0
C1038 C 0.67914 0.14102 0.47589 0.0
C1039 C 0.6625 0.07904 0.4836 0.0
N1040 N 0.73161 0.16475 0.51696 0.0
N1041 N 0.68525 0.09271 0.50142 0.0
H1042 H 0.63606 0.87419 0.21058 0.0
H1043 H 0.68687 0.00318 0.33538 0.0
H1044 H 0.72865 0.91759 0.21013 0.0
H1045 H 0.58978 0.9878 0.30684 0.0
H1046 H 0.70409 0.96721 0.29433 0.0
H1047 H 0.61971 0.91084 0.25112 0.0
C1048 C 0.65275 0.89177 0.21887 0.0
C1049 C 0.68336 0.89364 0.20667 0.0
C1050 C 0.67906 0.9719 0.29694 0.0
C1051 C 0.66543 0.93464 0.25357 0.0
C1052 C 0.66931 0.99248 0.32011 0.0
C1053 C 0.63704 -0.001 0.3236 0.0
C1054 C 0.65618 0.95696 0.27806 0.0
C1055 C 0.61496 0.98394 0.30413 0.0
C1056 C 0.64354 0.91248 0.24204 0.0
C1057 C 0.70456 0.91612 0.21856 0.0
N1058 N 0.62491 0.96338 0.2823 0.0
N1059 N 0.69525 0.93574 0.24158 0.0
H1060 H 0.89162 0.86979 0.92322 0.0
H1061 H 0.75477 0.90553 0.04638 0.0
H1062 H 0.8344 0.95234 0.92217 0.0
H1063 H 0.8068 0.81973 0.04329 0.0
H1064 H 0.78373 0.9231 0.00075 0.0
H1065 H 0.86041 0.85056 0.96683 0.0
C1066 C 0.87216 0.8836 0.93178 0.0
C1067 C 0.86568 0.91274 0.91908 0.0
C1068 C 0.78885 0.90045 0.01012 0.0
C1069 C 0.83004 0.89107 0.96908 0.0
C1070 C 0.77235 0.89046 0.03623 0.0
C1071 C 0.7783 0.86112 0.04871 0.0
C1072 C 0.81172 0.8811 0.99659 0.0
C1073 C 0.80137 0.84254 0.03451 0.0
C1074 C 0.85454 0.87278 0.95687 0.0
C1075 C 0.84035 0.92979 0.93133 0.0
N1076 N 0.81726 0.85286 0.00933 0.0
N1077 N 0.82357 0.91877 0.95565 0.0
H1078 H 0.87462 0.98323 0.65948 0.0
H1079 H 0.96309 0.86033 0.76648 0.0
H1080 H 0.97616 0.97131 0.6646 0.0
H1081 H 0.86522 0.88416 0.78092 0.0
H1082 H 0.96683 0.89977 0.72685 0.0
H1083 H 0.86849 0.94366 0.69992 0.0
C1084 C 0.89551 0.97215 0.66877 0.0
C1085 C 0.92595 0.98099 0.6589 0.0
C1086 C 0.94453 0.89676 0.7388 0.0
C1087 C 0.91917 0.93631 0.70507 0.0
C1088 C 0.94254 0.87443 0.76167 0.0
C1089 C 0.91393 0.86927 0.77708 0.0
C1090 C 0.9175 0.91374 0.73069 0.0
C1091 C 0.88783 0.88786 0.76974 0.0
C1092 C 0.89202 0.94978 0.69195 0.0
C1093 C 0.95219 0.96571 0.67164 0.0
N1094 N 0.89008 0.90913 0.74666 0.0
N1095 N 0.94817 0.94442 0.69409 0.0
H1096 H 0.84699 0.11063 0.5409 0.0
H1097 H 0.70779 0.07427 0.41813 0.0
H1098 H 0.81164 0.01774 0.52234 0.0
H1099 H 0.75352 0.16391 0.43029 0.0
H1100 H 0.74443 0.05275 0.45653 0.0
H1101 H 0.81204 0.13017 0.50058 0.0
C1102 C 0.83149 0.09437 0.52864 0.0
C1103 C 0.83201 0.06251 0.53519 0.0
C1104 C 0.74654 0.07706 0.45058 0.0
C1105 C 0.79155 0.08486 0.48898 0.0
C1106 C 0.72561 0.08938 0.42872 0.0
C1107 C 0.7275 0.12099 0.421 0.0
C1108 C 0.76952 0.09649 0.4648 0.0
C1109 C 0.75108 0.13944 0.43546 0.0
C1110 C 0.81174 0.10551 0.50533 0.0
C1111 C 0.81177 0.0425 0.51815 0.0
N1112 N 0.77103 0.12696 0.45665 0.0
N1113 N 0.79214 0.05403 0.49597 0.0
H1114 H 0.70131 0.97212 0.16475 0.0
H1115 H 0.5779 0.06183 0.27005 0.0
H1116 H 0.60394 0.94128 0.1728 0.0
H1117 H 0.67881 0.06442 0.28746 0.0
H1118 H 0.58596 0.02094 0.23085 0.0
H1119 H 0.6928 0.00963 0.2066 0.0
C1120 C 0.67826 0.97294 0.17562 0.0
C1121 C 0.6534 0.9533 0.1655 0.0
C1122 C 0.60624 0.03031 0.2435 0.0
C1123 C 0.64324 0.99685 0.2127 0.0
C1124 C 0.60164 0.05341 0.26594 0.0
C1125 C 0.62766 0.066 0.28236 0.0
C1126 C 0.63715 0.02038 0.23705 0.0
C1127 C 0.65804 0.05485 0.27577 0.0
C1128 C 0.67338 0.99447 0.19937 0.0
C1129 C 0.6239 0.95564 0.18019 0.0
N1130 N 0.66198 0.03288 0.25342 0.0
N1131 N 0.61953 0.97726 0.20289 0.0
H1132 H 0.69313 0.89957 0.98769 0.0
H1133 H 0.82073 0.7694 0.95136 0.0
H1134 H 0.70306 0.81829 0.04428 0.0
H1135 H 0.80587 0.85159 0.89698 0.0
H1136 H 0.77454 0.78299 0.98276 0.0
H1137 H 0.72937 0.87753 0.95046 0.0
C1138 C 0.70263 0.87669 0.99201 0.0
C1139 C 0.69555 0.86094 0.01937 0.0
C1140 C 0.78127 0.79785 0.96379 0.0
C1141 C 0.73783 0.83561 0.97686 0.0
C1142 C 0.80772 0.79026 0.94599 0.0
C1143 C 0.81739 0.80964 0.92176 0.0
C1144 C 0.76432 0.8249 0.95713 0.0
C1145 C 0.79956 0.83618 0.91565 0.0
C1146 C 0.72343 0.86411 0.97071 0.0
C1147 C 0.70799 0.83117 0.02349 0.0
N1148 N 0.77403 0.84304 0.93326 0.0
N1149 N 0.72917 0.81964 0.00269 0.0
H1150 H 0.02877 0.8403 0.89559 0.0
H1151 H 0.02585 0.68519 0.79228 0.0
H1152 H 0.97279 0.82809 0.81253 0.0
H1153 H 0.1058 0.70977 0.85083 0.0
H1154 H 0.99937 0.73264 0.80895 0.0
H1155 H 0.05299 0.78959 0.88599 0.0
C1156 C 0.02136 0.82692 0.87539 0.0
C1157 C 0.9981 0.83827 0.85505 0.0
C1158 C 0.02252 0.72744 0.8185 0.0
C1159 C 0.02516 0.77983 0.84452 0.0
C1160 C 0.03745 0.70009 0.80937 0.0
C1161 C 0.06827 0.69359 0.81988 0.0
C1162 C 0.0384 0.74851 0.83837 0.0
C1163 C 0.08209 0.71383 0.84205 0.0
C1164 C 0.03528 0.798 0.86995 0.0
C1165 C 0.98993 0.82003 0.8291 0.0
N1166 N 0.06724 0.74062 0.85026 0.0
N1167 N 0.00314 0.79163 0.82474 0.0
H1168 H 0.49855 0.68914 0.07898 0.0
H1169 H 0.65038 0.80009 0.05709 0.0
H1170 H 0.53928 0.70369 0.9892 0.0
H1171 H 0.62372 0.75409 0.1415 0.0
H1172 H 0.60424 0.77524 0.03101 0.0
H1173 H 0.53894 0.72339 0.10162 0.0
C1174 C 0.51485 0.70117 0.06383 0.0
C1175 C 0.51526 0.69427 0.03222 0.0
C1176 C 0.60873 0.77075 0.05524 0.0
C1177 C 0.56123 0.73418 0.05782 0.0
C1178 C 0.63503 0.78484 0.07009 0.0
C1179 C 0.64135 0.77881 0.10141 0.0
C1180 C 0.58854 0.75107 0.0721 0.0
C1181 C 0.62032 0.75916 0.11723 0.0
C1182 C 0.53811 0.72053 0.07675 0.0
C1183 C 0.53794 0.70912 0.01367 0.0
N1184 N 0.59504 0.7461 0.10245 0.0
N1185 N 0.56015 0.72852 0.02675 0.0
H1186 H 0.06092 0.29473 0.48982 0.0
H1187 H 0.92003 0.29667 0.6128 0.0
H1188 H 0.0618 0.35279 0.57173 0.0
H1189 H 0.93426 0.2185 0.55138 0.0
H1190 H 0.96821 0.32105 0.593 0.0
H1191 H 0.01228 0.2691 0.50813 0.0
C1192 C 0.05108 0.3019 0.51181 0.0
C1193 C 0.06572 0.32586 0.52934 0.0
C1194 C 0.96082 0.2986 0.58375 0.0
C1195 C 0.00928 0.29725 0.54991 0.0
C1196 C 0.93313 0.28464 0.59495 0.0
C1197 C 0.92307 0.25519 0.58406 0.0
C1198 C 0.9788 0.2833 0.56116 0.0
C1199 C 0.94124 0.24099 0.5608 0.0
C1200 C 0.02323 0.28731 0.52216 0.0
C1201 C 0.05166 0.33427 0.55755 0.0
N1202 N 0.96822 0.2551 0.5502 0.0
N1203 N 0.0241 0.32032 0.56668 0.0
H1204 H 0.07768 0.63073 0.87564 0.0
H1205 H 0.98101 0.78156 0.91079 0.0
H1206 H 0.10431 0.68711 0.95508 0.0
H1207 H 0.9449 0.70089 0.86157 0.0
H1208 H 0.02516 0.74983 0.93075 0.0
H1209 H 0.02899 0.65916 0.87107 0.0
C1210 C 0.07344 0.64946 0.89199 0.0
C1211 C 0.09524 0.65678 0.91561 0.0
C1212 C 0.00697 0.73902 0.9163 0.0
C1213 C 0.03895 0.68985 0.91045 0.0
C1214 C 0.98187 0.75703 0.90504 0.0
C1215 C 0.96028 0.7439 0.88366 0.0
C1216 C 0.00972 0.70801 0.90608 0.0
C1217 C 0.9618 0.71205 0.87723 0.0
C1218 C 0.04528 0.66548 0.88965 0.0
C1219 C 0.08808 0.68099 0.93641 0.0
N1220 N 0.98638 0.69536 0.88794 0.0
N1221 N 0.06057 0.69713 0.9331 0.0
H1222 H 0.43959 0.28931 0.32492 0.0
H1223 H 0.55607 0.14428 0.30801 0.0
H1224 H 0.50797 0.27938 0.25174 0.0
H1225 H 0.50255 0.1631 0.39058 0.0
H1226 H 0.53443 0.19108 0.28478 0.0
H1227 H 0.45902 0.24112 0.3477 0.0
C1228 C 0.459 0.27732 0.31389 0.0
C1229 C 0.47219 0.28854 0.28637 0.0
C1230 C 0.52737 0.18495 0.30798 0.0
C1231 C 0.49436 0.23322 0.31223 0.0
C1232 C 0.53977 0.15817 0.32126 0.0
C1233 C 0.53204 0.15019 0.35167 0.0
C1234 C 0.50646 0.20361 0.32497 0.0
C1235 C 0.50979 0.16861 0.36729 0.0
C1236 C 0.46991 0.24966 0.32678 0.0
C1237 C 0.49707 0.27172 0.27297 0.0
N1238 N 0.49795 0.19454 0.35386 0.0
N1239 N 0.50727 0.24496 0.28598 0.0
H1240 H 0.96402 0.146 0.68374 0.0
H1241 H 0.05125 0.27698 0.61132 0.0
H1242 H 0.94143 0.15683 0.58694 0.0
H1243 H 0.98035 0.3062 0.67696 0.0
H1244 H 0.02181 0.22788 0.60396 0.0
H1245 H 0.98063 0.20096 0.68618 0.0
C1246 C 0.96177 0.16019 0.6633 0.0
C1247 C 0.95056 0.14737 0.63532 0.0
C1248 C 0.01268 0.24546 0.61955 0.0
C1249 C 0.97133 0.20868 0.63753 0.0
C1250 C 0.02922 0.27346 0.62361 0.0
C1251 C 0.01829 0.29572 0.64483 0.0
C1252 C 0.98576 0.23961 0.63742 0.0
C1253 C 0.98973 0.28969 0.66043 0.0
C1254 C 0.97141 0.19123 0.66467 0.0
C1255 C 0.94924 0.1662 0.60911 0.0
N1256 N 0.97482 0.26179 0.65702 0.0
N1257 N 0.96043 0.19582 0.61064 0.0
H1258 H 0.47048 0.71418 0.21432 0.0
H1259 H 0.52093 0.81284 0.06639 0.0
H1260 H 0.4425 0.69084 0.12062 0.0
H1261 H 0.57623 0.81547 0.15086 0.0
H1262 H 0.48577 0.77416 0.08926 0.0
H1263 H 0.50433 0.75632 0.19434 0.0
C1264 C 0.47151 0.71783 0.18959 0.0
C1265 C 0.45376 0.69878 0.16912 0.0
C1266 C 0.50554 0.78325 0.10286 0.0
C1267 C 0.49166 0.74736 0.14628 0.0
C1268 C 0.52572 0.80534 0.08979 0.0
C1269 C 0.55179 0.81735 0.10661 0.0
C1270 C 0.51147 0.7727 0.13297 0.0
C1271 C 0.55655 0.80674 0.13695 0.0
C1272 C 0.49077 0.74188 0.17825 0.0
C1273 C 0.45592 0.70468 0.13731 0.0
N1274 N 0.53667 0.78491 0.14913 0.0
N1275 N 0.47423 0.72855 0.12696 0.0
H1276 H 0.69138 0.50696 0.83069 0.0
H1277 H 0.58366 0.49993 0.67818 0.0
H1278 H 0.64641 0.4235 0.79466 0.0
H1279 H 0.63297 0.58348 0.70795 0.0
H1280 H 0.61081 0.47106 0.71824 0.0
H1281 H 0.67182 0.53546 0.78572 0.0
C1282 C 0.67698 0.49475 0.81351 0.0
C1283 C 0.66999 0.46292 0.81669 0.0
C1284 C 0.61599 0.49564 0.71604 0.0
C1285 C 0.64867 0.49509 0.76461 0.0
C1286 C 0.60059 0.51214 0.69303 0.0
C1287 C 0.60559 0.54427 0.69018 0.0
C1288 C 0.63612 0.51142 0.73702 0.0
C1289 C 0.62814 0.55881 0.70966 0.0
C1290 C 0.66621 0.51094 0.78767 0.0
C1291 C 0.65177 0.44813 0.79352 0.0
N1292 N 0.64213 0.54237 0.73279 0.0
N1293 N 0.6419 0.46429 0.76844 0.0
H1294 H 0.8346 0.44602 0.10025 0.0
H1295 H 0.74623 0.35368 0.96242 0.0
H1296 H 0.87247 0.36404 0.05627 0.0
H1297 H 0.73946 0.45276 0.97586 0.0
H1298 H 0.7807 0.35116 0.00844 0.0
H1299 H 0.78839 0.44255 0.06548 0.0
C1300 C 0.83301 0.42706 0.08361 0.0
C1301 C 0.85764 0.40554 0.08084 0.0
C1302 C 0.771 0.3733 0.00166 0.0
C1303 C 0.80473 0.40121 0.04153 0.0
C1304 C 0.75094 0.37467 0.97582 0.0
C1305 C 0.74011 0.40348 0.96552 0.0
C1306 C 0.77953 0.40086 0.01753 0.0
C1307 C 0.74734 0.43012 0.98325 0.0
C1308 C 0.8067 0.42516 0.06379 0.0
C1309 C 0.85422 0.38135 0.05895 0.0
N1310 N 0.76679 0.42823 0.00834 0.0
N1311 N 0.82829 0.37986 0.04009 0.0
H1312 H 0.89392 0.61718 0.34289 0.0
H1313 H 0.88132 0.51332 0.18817 0.0
H1314 H 0.80929 0.61015 0.28672 0.0
H1315 H 0.95681 0.50476 0.25547 0.0
H1316 H 0.85708 0.55312 0.22098 0.0
H1317 H 0.91994 0.58015 0.30825 0.0
C1318 C 0.88076 0.60757 0.32349 0.0
C1319 C 0.84929 0.61636 0.31818 0.0
C1320 C 0.87899 0.54258 0.22852 0.0
C1321 C 0.87903 0.57465 0.27767 0.0
C1322 C 0.89279 0.51977 0.20985 0.0
C1323 C 0.92095 0.50535 0.21925 0.0
C1324 C 0.89359 0.55131 0.25667 0.0
C1325 C 0.93496 0.51501 0.24739 0.0
C1326 C 0.89566 0.58669 0.3035 0.0
C1327 C 0.83351 0.60385 0.29202 0.0
N1328 N 0.92111 0.53729 0.26511 0.0
N1329 N 0.84854 0.58371 0.27276 0.0
H1330 H 0.72902 0.63411 0.42811 0.0
H1331 H 0.66077 0.70346 0.58658 0.0
H1332 H 0.77778 0.70734 0.47879 0.0
H1333 H 0.62402 0.62191 0.53898 0.0
H1334 H 0.70291 0.70738 0.54753 0.0
H1335 H 0.69041 0.63027 0.46934 0.0
C1336 C 0.73171 0.64927 0.44816 0.0
C1337 C 0.75653 0.6712 0.44995 0.0
C1338 C 0.68549 0.68875 0.54568 0.0
C1339 C 0.7117 0.66746 0.49732 0.0
C1340 C 0.66133 0.68664 0.56779 0.0
C1341 C 0.63884 0.6623 0.56608 0.0
C1342 C 0.6868 0.6666 0.52157 0.0
C1343 C 0.64086 0.64098 0.5414 0.0
C1344 C 0.70953 0.64718 0.47171 0.0
C1345 C 0.75902 0.69004 0.47661 0.0
N1346 N 0.66428 0.64368 0.52024 0.0
N1347 N 0.7366 0.68801 0.49919 0.0
H1348 H 0.55655 0.40479 0.76374 0.0
H1349 H 0.59504 0.58425 0.79584 0.0
H1350 H 0.58812 0.43992 0.85284 0.0
H1351 H 0.53232 0.55324 0.7225 0.0
H1352 H 0.59802 0.53087 0.81454 0.0
H1353 H 0.55481 0.45809 0.7448 0.0
C1354 C 0.56386 0.42358 0.77917 0.0
C1355 C 0.57248 0.41769 0.81005 0.0
C1356 C 0.5836 0.53564 0.79433 0.0
C1357 C 0.57001 0.47893 0.78844 0.0
C1358 C 0.58189 0.56605 0.78366 0.0
C1359 C 0.56407 0.57286 0.7571 0.0
C1360 C 0.56754 0.51171 0.77819 0.0
C1361 C 0.54733 0.54863 0.74226 0.0
C1362 C 0.56235 0.45406 0.76841 0.0
C1363 C 0.58133 0.4432 0.82891 0.0
N1364 N 0.54965 0.51898 0.75285 0.0
N1365 N 0.5798 0.47266 0.81783 0.0
H1366 H 0.73551 0.39815 0.07151 0.0
H1367 H 0.59158 0.30251 0.99546 0.0
H1368 H 0.73053 0.29792 0.07103 0.0
H1369 H 0.6254 0.38658 0.95256 0.0
H1370 H 0.63687 0.30489 0.0311 0.0
H1371 H 0.69014 0.39869 0.03508 0.0
C1372 C 0.72498 0.3763 0.06384 0.0
C1373 C 0.73731 0.34794 0.07418 0.0
C1374 C 0.63431 0.32291 0.01398 0.0
C1375 C 0.68473 0.3485 0.03337 0.0
C1376 C 0.60831 0.32169 0.99368 0.0
C1377 C 0.6045 0.34436 0.97081 0.0
C1378 C 0.65652 0.3474 0.01217 0.0
C1379 C 0.6273 0.36855 0.96973 0.0
C1380 C 0.6991 0.37666 0.04304 0.0
C1381 C 0.72224 0.3204 0.06365 0.0
N1382 N 0.65222 0.36955 0.9902 0.0
N1383 N 0.69677 0.3214 0.04414 0.0
H1384 H 0.75987 0.51759 0.3392 0.0
H1385 H 0.88377 0.44366 0.22565 0.0
H1386 H 0.85952 0.54078 0.34028 0.0
H1387 H 0.78553 0.44905 0.19745 0.0
H1388 H 0.87328 0.47787 0.26883 0.0
H1389 H 0.76628 0.49281 0.28792 0.0
C1390 C 0.78288 0.51828 0.3282 0.0
C1391 C 0.80912 0.53192 0.34363 0.0
C1392 C 0.85403 0.47225 0.25293 0.0
C1393 C 0.81685 0.50248 0.28593 0.0
C1394 C 0.86002 0.45269 0.22793 0.0
C1395 C 0.83567 0.44368 0.20721 0.0
C1396 C 0.82335 0.48335 0.25776 0.0
C1397 C 0.80522 0.45575 0.21239 0.0
C1398 C 0.78652 0.50403 0.29907 0.0
C1399 C 0.83852 0.53138 0.32886 0.0
N1400 N 0.79982 0.47481 0.23733 0.0
N1401 N 0.84166 0.51643 0.30123 0.0
H1402 H 0.72362 0.55249 0.49522 0.0
H1403 H 0.70725 0.66555 0.64285 0.0
H1404 H 0.7917 0.62542 0.51629 0.0
H1405 H 0.6426 0.59017 0.62083 0.0
H1406 H 0.73818 0.65247 0.59666 0.0
H1407 H 0.69266 0.56819 0.5399 0.0
C1408 C 0.73201 0.57201 0.50917 0.0
C1409 C 0.76053 0.58748 0.50201 0.0
C1410 C 0.7172 0.63882 0.60188 0.0
C1411 C 0.72515 0.60536 0.55403 0.0
C1412 C 0.69952 0.64627 0.62823 0.0
C1413 C 0.67181 0.62939 0.63529 0.0
C1414 C 0.70731 0.61403 0.58257 0.0
C1415 C 0.66317 0.60438 0.61585 0.0
C1416 C 0.71432 0.58088 0.53487 0.0
C1417 C 0.76991 0.6128 0.52089 0.0
N1418 N 0.68076 0.59754 0.59042 0.0
N1419 N 0.75241 0.62079 0.5462 0.0
H1420 H 0.47809 0.6499 0.69829 0.0
H1421 H 0.3934 0.80517 0.64159 0.0
H1422 H 0.49136 0.68453 0.60603 0.0
H1423 H 0.42053 0.78649 0.73604 0.0
H1424 H 0.41711 0.75526 0.62586 0.0
H1425 H 0.44463 0.69442 0.71003 0.0
C1426 C 0.47379 0.66691 0.68046 0.0
C1427 C 0.48797 0.66402 0.6514 0.0
C1428 C 0.41752 0.76219 0.65001 0.0
C1429 C 0.44903 0.7146 0.66437 0.0
C1430 C 0.40414 0.79062 0.65898 0.0
C1431 C 0.40591 0.80056 0.69001 0.0
C1432 C 0.43182 0.74339 0.67244 0.0
C1433 C 0.41933 0.78037 0.7117 0.0
C1434 C 0.45465 0.69223 0.68712 0.0
C1435 C 0.48134 0.68642 0.62894 0.0
N1436 N 0.43171 0.75291 0.70251 0.0
N1437 N 0.46226 0.7109 0.63588 0.0
H1438 H 0.42556 0.55618 0.24503 0.0
H1439 H 0.32057 0.44151 0.3349 0.0
H1440 H 0.34101 0.51396 0.20531 0.0
H1441 H 0.42159 0.42809 0.34246 0.0
H1442 H 0.329 0.47234 0.28889 0.0
H1443 H 0.42813 0.51265 0.28214 0.0
C1444 C 0.40812 0.53752 0.24365 0.0
C1445 C 0.38253 0.53906 0.2228 0.0
C1446 C 0.34937 0.46219 0.3002 0.0
C1447 C 0.38506 0.49028 0.26465 0.0
C1448 C 0.3445 0.44445 0.32635 0.0
C1449 C 0.37032 0.43169 0.34197 0.0
C1450 C 0.3804 0.46845 0.29028 0.0
C1451 C 0.40104 0.43708 0.33051 0.0
C1452 C 0.40955 0.51284 0.26471 0.0
C1453 C 0.36054 0.5143 0.22175 0.0
N1454 N 0.40539 0.45571 0.30554 0.0
N1455 N 0.36197 0.49137 0.24271 0.0
H1456 H 0.35331 0.54522 0.07009 0.0
H1457 H 0.22253 0.61986 0.96437 0.0
H1458 H 0.33443 0.64349 0.07322 0.0
H1459 H 0.26675 0.53214 0.94329 0.0
H1460 H 0.26356 0.63003 0.00381 0.0
H1461 H 0.32318 0.54078 0.02204 0.0
C1462 C 0.34382 0.56609 0.0599 0.0
C1463 C 0.3466 0.59482 0.07521 0.0
C1464 C 0.26436 0.60874 0.99027 0.0
C1465 C 0.31045 0.58966 0.02148 0.0
C1466 C 0.24109 0.60299 0.96775 0.0
C1467 C 0.24117 0.57501 0.95083 0.0
C1468 C 0.28756 0.58626 0.99578 0.0
C1469 C 0.26564 0.55387 0.95608 0.0
C1470 C 0.32616 0.56349 0.03278 0.0
C1471 C 0.33314 0.62105 0.06168 0.0
N1472 N 0.28767 0.5598 0.97833 0.0
N1473 N 0.31486 0.61773 0.03583 0.0
H1474 H 0.20588 0.51635 0.79723 0.0
H1475 H 0.05842 0.46806 0.69775 0.0
H1476 H 0.11583 0.56244 0.80356 0.0
H1477 H 0.15275 0.43353 0.68215 0.0
H1478 H 0.08126 0.51179 0.72709 0.0
H1479 H 0.19024 0.49539 0.7467 0.0
C1480 C 0.18314 0.52274 0.78745 0.0
C1481 C 0.16182 0.54055 0.80459 0.0
C1482 C 0.09702 0.49507 0.71662 0.0
C1483 C 0.14317 0.51569 0.74768 0.0
C1484 C 0.084 0.47028 0.69965 0.0
C1485 C 0.10372 0.44689 0.68813 0.0
C1486 C 0.12983 0.49589 0.72257 0.0
C1487 C 0.13666 0.45086 0.69102 0.0
C1488 C 0.17409 0.51062 0.75874 0.0
C1489 C 0.13278 0.54849 0.79103 0.0
N1490 N 0.14866 0.47442 0.70873 0.0
N1491 N 0.12386 0.53522 0.76365 0.0
H1492 H 0.16365 0.37437 0.58051 0.0
H1493 H 0.31846 0.32037 0.4886 0.0
H1494 H 0.20802 0.28662 0.5991 0.0
H1495 H 0.28241 0.41389 0.49278 0.0
H1496 H 0.27559 0.30395 0.5238 0.0
H1497 H 0.20406 0.38548 0.54238 0.0
C1498 C 0.18177 0.35727 0.57635 0.0
C1499 C 0.18248 0.32967 0.59324 0.0
C1500 C 0.2773 0.32802 0.5169 0.0
C1501 C 0.22928 0.34218 0.54922 0.0
C1502 C 0.30165 0.33736 0.49681 0.0
C1503 C 0.30428 0.36859 0.48786 0.0
C1504 C 0.25543 0.35006 0.52767 0.0
C1505 C 0.28176 0.38963 0.49916 0.0
C1506 C 0.20497 0.36363 0.55454 0.0
C1507 C 0.20664 0.3083 0.58672 0.0
N1508 N 0.25848 0.37999 0.51831 0.0
N1509 N 0.22922 0.31505 0.56525 0.0
H1510 H 0.38961 0.4448 0.20045 0.0
H1511 H 0.50418 0.56401 0.11328 0.0
H1512 H 0.48969 0.45376 0.21935 0.0
H1513 H 0.40416 0.55535 0.09373 0.0
H1514 H 0.49792 0.52871 0.15671 0.0
H1515 H 0.39302 0.4895 0.1659 0.0
C1516 C 0.41207 0.45708 0.19831 0.0
C1517 C 0.43921 0.44624 0.21353 0.0
C1518 C 0.47717 0.53477 0.14324 0.0
C1519 C 0.44352 0.49711 0.17346 0.0
C1520 C 0.48072 0.55497 0.11835 0.0
C1521 C 0.45454 0.56272 0.09972 0.0
C1522 C 0.44725 0.52175 0.14957 0.0
C1523 C 0.42478 0.55037 0.10766 0.0
C1524 C 0.4141 0.48236 0.17828 0.0
C1525 C 0.46804 0.46198 0.20875 0.0
N1526 N 0.42197 0.53027 0.13172 0.0
N1527 N 0.46946 0.48659 0.18915 0.0
H1528 H 0.35748 0.5806 0.94513 0.0
H1529 H 0.21386 0.68977 0.8947 0.0
H1530 H 0.34166 0.67063 0.98661 0.0
H1531 H 0.23453 0.60211 0.85027 0.0
H1532 H 0.26034 0.68361 0.92813 0.0
H1533 H 0.31388 0.58935 0.90912 0.0
C1534 C 0.34486 0.60235 0.94664 0.0
C1535 C 0.35304 0.62476 0.96931 0.0
C1536 C 0.2548 0.66576 0.91103 0.0
C1537 C 0.30249 0.63487 0.92788 0.0
C1538 C 0.22808 0.66912 0.89199 0.0
C1539 C 0.22016 0.64644 0.86945 0.0
C1540 C 0.27398 0.63949 0.90768 0.0
C1541 C 0.23961 0.62022 0.86722 0.0
C1542 C 0.31993 0.60735 0.9259 0.0
C1543 C 0.33605 0.65264 0.96969 0.0
N1544 N 0.26555 0.61752 0.88601 0.0
N1545 N 0.31133 0.65676 0.94954 0.0
H1546 H 0.11288 0.45938 0.59777 0.0
H1547 H 0.19847 0.57564 0.71863 0.0
H1548 H 0.21252 0.48146 0.59052 0.0
H1549 H 0.10019 0.58201 0.69132 0.0
H1550 H 0.20529 0.53388 0.67958 0.0
H1551 H 0.1089 0.49705 0.64031 0.0
C1552 C 0.13418 0.47129 0.60596 0.0
C1553 C 0.16314 0.46708 0.59088 0.0
C1554 C 0.18228 0.54448 0.68229 0.0
C1555 C 0.15887 0.50993 0.63989 0.0
C1556 C 0.17833 0.568 0.7047 0.0
C1557 C 0.14866 0.58205 0.70831 0.0
C1558 C 0.15623 0.53475 0.66391 0.0
C1559 C 0.12342 0.57169 0.68936 0.0
C1560 C 0.13183 0.49309 0.62996 0.0
C1561 C 0.18983 0.48384 0.60184 0.0
N1562 N 0.12772 0.54864 0.66817 0.0
N1563 N 0.18714 0.50445 0.62584 0.0
H1564 H 0.2221 0.34406 0.46816 0.0
H1565 H 0.31356 0.38587 0.31108 0.0
H1566 H 0.20672 0.42585 0.41337 0.0
H1567 H 0.35281 0.32182 0.3767 0.0
H1568 H 0.26857 0.39396 0.34529 0.0
H1569 H 0.2645 0.32861 0.43189 0.0
C1570 C 0.22732 0.35853 0.44847 0.0
C1571 C 0.21119 0.38661 0.44424 0.0
C1572 C 0.28699 0.37813 0.35237 0.0
C1573 C 0.25899 0.36898 0.40262 0.0
C1574 C 0.31282 0.37371 0.33288 0.0
C1575 C 0.33747 0.35395 0.34146 0.0
C1576 C 0.28532 0.36236 0.38067 0.0
C1577 C 0.33451 0.33767 0.36942 0.0
C1578 C 0.25157 0.34981 0.42789 0.0
C1579 C 0.21879 0.40431 0.41809 0.0
N1580 N 0.30903 0.3424 0.38819 0.0
N1581 N 0.24198 0.39528 0.39853 0.0
H1582 H 0.46018 0.32172 0.38066 0.0
H1583 H 0.57688 0.18086 0.41701 0.0
H1584 H 0.45635 0.27282 0.46721 0.0
H1585 H 0.5839 0.24193 0.33876 0.0
H1586 H 0.53487 0.21434 0.43822 0.0
H1587 H 0.50693 0.29245 0.36664 0.0
C1588 C 0.46885 0.30437 0.39653 0.0
C1589 C 0.45408 0.29952 0.42503 0.0
C1590 C 0.54605 0.22054 0.41665 0.0
C1591 C 0.50775 0.26519 0.40878 0.0
C1592 C 0.57014 0.20158 0.40468 0.0
C1593 C 0.58355 0.20831 0.37583 0.0
C1594 C 0.53562 0.24629 0.39959 0.0
C1595 C 0.57388 0.23542 0.36078 0.0
C1596 C 0.49579 0.28772 0.3886 0.0
C1597 C 0.4669 0.2771 0.44488 0.0
N1598 N 0.55044 0.25308 0.37263 0.0
N1599 N 0.49286 0.2605 0.43627 0.0
loop_
_geom_bond_atom_site_label_1
_geom_bond_atom_site_label_2
_geom_bond_distance
_geom_bond_site_symmetry_2
_ccdc_geom_bond_type
Zn0 O3 2.031 . S
Zn0 O5 2.049 . S
Zn0 O10 2.067 . S
Zn1 O2 1.962 . S
Zn1 O4 1.986 . S
Zn1 O6 1.996 . S
Zn1 O9 1.943 . S
O2 Zn1 1.962 . S
O2 C7 1.254 . S
O3 Zn0 2.031 . S
O3 C7 1.269 . S
O4 Zn1 1.986 . S
O4 C11 1.262 . S
O5 Zn0 2.049 . S
O5 C13 1.260 . S
O6 Zn1 1.996 . S
O6 C13 1.257 . S
C7 O2 1.254 . S
C7 O3 1.269 . S
C8 O9 1.249 . S
C8 O10 1.270 . S
O9 Zn1 1.943 . S
O9 C8 1.249 . S
O10 Zn0 2.067 . S
O10 C8 1.270 . S
C11 O4 1.262 . S
C11 O12 1.232 . S
O12 C11 1.232 . S
C13 O5 1.260 . S
C13 O6 1.257 . S
Zn14 O17 2.031 . S
Zn14 O19 2.049 . S
Zn14 O24 2.067 . S
Zn15 O16 1.962 . S
Zn15 O18 1.986 . S
Zn15 O20 1.996 . S
Zn15 O23 1.943 . S
O16 Zn15 1.962 . S
O16 C21 1.254 . S
O17 Zn14 2.031 . S
O17 C21 1.269 . S
O18 Zn15 1.986 . S
O18 C25 1.262 . S
O19 Zn14 2.049 . S
O19 C27 1.260 . S
O20 Zn15 1.996 . S
O20 C27 1.257 . S
C21 O16 1.254 . S
C21 O17 1.269 . S
C22 O23 1.249 . S
C22 O24 1.270 . S
O23 Zn15 1.943 . S
O23 C22 1.249 . S
O24 Zn14 2.067 . S
O24 C22 1.270 . S
C25 O18 1.262 . S
C25 O26 1.232 . S
O26 C25 1.232 . S
C27 O19 1.260 . S
C27 O20 1.257 . S
Zn28 O31 2.031 . S
Zn28 O33 2.049 . S
Zn28 O38 2.067 . S
Zn29 O30 1.962 . S
Zn29 O32 1.986 . S
Zn29 O34 1.996 . S
Zn29 O37 1.943 . S
O30 Zn29 1.962 . S
O30 C35 1.254 . S
O31 Zn28 2.031 . S
O31 C35 1.269 . S
O32 Zn29 1.986 . S
O32 C39 1.262 . S
O33 Zn28 2.049 . S
O33 C41 1.260 . S
O34 Zn29 1.996 . S
O34 C41 1.257 . S
C35 O30 1.254 . S
C35 O31 1.269 . S
C36 O37 1.249 . S
C36 O38 1.270 . S
O37 Zn29 1.943 . S
O37 C36 1.249 . S
O38 Zn28 2.067 . S
O38 C36 1.270 . S
C39 O32 1.262 . S
C39 O40 1.232 . S
O40 C39 1.232 . S
C41 O33 1.260 . S
C41 O34 1.257 . S
Zn42 O45 2.031 . S
Zn42 O47 2.049 . S
Zn42 O52 2.067 . S
Zn43 O44 1.962 . S
Zn43 O46 1.986 . S
Zn43 O48 1.996 . S
Zn43 O51 1.943 . S
O44 Zn43 1.962 . S
O44 C49 1.254 . S
O45 Zn42 2.031 . S
O45 C49 1.269 . S
O46 Zn43 1.986 . S
O46 C53 1.262 . S
O47 Zn42 2.049 . S
O47 C55 1.260 . S
O48 Zn43 1.996 . S
O48 C55 1.257 . S
C49 O44 1.254 . S
C49 O45 1.269 . S
C50 O51 1.249 . S
C50 O52 1.270 . S
O51 Zn43 1.943 . S
O51 C50 1.249 . S
O52 Zn42 2.067 . S
O52 C50 1.270 . S
C53 O46 1.262 . S
C53 O54 1.232 . S
O54 C53 1.232 . S
C55 O47 1.260 . S
C55 O48 1.257 . S
Zn56 O59 2.031 . S
Zn56 O61 2.049 . S
Zn56 O66 2.067 . S
Zn57 O58 1.962 . S
Zn57 O60 1.986 . S
Zn57 O62 1.996 . S
Zn57 O65 1.943 . S
O58 Zn57 1.962 . S
O58 C63 1.254 . S
O59 Zn56 2.031 . S
O59 C63 1.269 . S
O60 Zn57 1.986 . S
O60 C67 1.262 . S
O61 Zn56 2.049 . S
O61 C69 1.260 . S
O62 Zn57 1.996 . S
O62 C69 1.257 . S
C63 O58 1.254 . S
C63 O59 1.269 . S
C64 O65 1.249 . S
C64 O66 1.270 . S
O65 Zn57 1.943 . S
O65 C64 1.249 . S
O66 Zn56 2.067 . S
O66 C64 1.270 . S
C67 O60 1.262 . S
C67 O68 1.232 . S
O68 C67 1.232 . S
C69 O61 1.260 . S
C69 O62 1.257 . S
Zn70 O73 2.031 . S
Zn70 O75 2.049 . S
Zn70 O80 2.067 . S
Zn71 O72 1.962 . S
Zn71 O74 1.986 . S
Zn71 O76 1.996 . S
Zn71 O79 1.943 . S
O72 Zn71 1.962 . S
O72 C77 1.254 . S
O73 Zn70 2.031 . S
O73 C77 1.269 . S
O74 Zn71 1.986 . S
O74 C81 1.262 . S
O75 Zn70 2.049 . S
O75 C83 1.260 . S
O76 Zn71 1.996 . S
O76 C83 1.257 . S
C77 O72 1.254 . S
C77 O73 1.269 . S
C78 O79 1.249 . S
C78 O80 1.270 . S
O79 Zn71 1.943 . S
O79 C78 1.249 . S
O80 Zn70 2.067 . S
O80 C78 1.270 . S
C81 O74 1.262 . S
C81 O82 1.232 . S
O82 C81 1.232 . S
C83 O75 1.260 . S
C83 O76 1.257 . S
Zn84 O87 2.031 . S
Zn84 O89 2.049 . S
Zn84 O94 2.067 . S
Zn85 O86 1.962 . S
Zn85 O88 1.986 . S
Zn85 O90 1.996 . S
Zn85 O93 1.943 . S
O86 Zn85 1.962 . S
O86 C91 1.254 . S
O87 Zn84 2.031 . S
O87 C91 1.269 . S
O88 Zn85 1.986 . S
O88 C95 1.262 . S
O89 Zn84 2.049 . S
O89 C97 1.260 . S
O90 Zn85 1.996 . S
O90 C97 1.257 . S
C91 O86 1.254 . S
C91 O87 1.269 . S
C92 O93 1.249 . S
C92 O94 1.270 . S
O93 Zn85 1.943 . S
O93 C92 1.249 . S
O94 Zn84 2.067 . S
O94 C92 1.270 . S
C95 O88 1.262 . S
C95 O96 1.232 . S
O96 C95 1.232 . S
C97 O89 1.260 . S
C97 O90 1.257 . S
Zn98 O101 2.031 . S
Zn98 O103 2.049 . S
Zn98 O108 2.067 . S
Zn99 O100 1.962 . S
Zn99 O102 1.986 . S
Zn99 O104 1.996 . S
Zn99 O107 1.943 . S
O100 Zn99 1.962 . S
O100 C105 1.254 . S
O101 Zn98 2.031 . S
O101 C105 1.269 . S
O102 Zn99 1.986 . S
O102 C109 1.262 . S
O103 Zn98 2.049 . S
O103 C111 1.260 . S
O104 Zn99 1.996 . S
O104 C111 1.257 . S
C105 O100 1.254 . S
C105 O101 1.269 . S
C106 O107 1.249 . S
C106 O108 1.270 . S
O107 Zn99 1.943 . S
O107 C106 1.249 . S
O108 Zn98 2.067 . S
O108 C106 1.270 . S
C109 O102 1.262 . S
C109 O110 1.232 . S
O110 C109 1.232 . S
C111 O103 1.260 . S
C111 O104 1.257 . S
Zn112 O115 2.031 . S
Zn112 O117 2.049 . S
Zn112 O122 2.067 . S
Zn113 O114 1.962 . S
Zn113 O116 1.986 . S
Zn113 O118 1.996 . S
Zn113 O121 1.943 . S
O114 Zn113 1.962 . S
O114 C119 1.254 . S
O115 Zn112 2.031 . S
O115 C119 1.269 . S
O116 Zn113 1.986 . S
O116 C123 1.262 . S
O117 Zn112 2.049 . S
O117 C125 1.260 . S
O118 Zn113 1.996 . S
O118 C125 1.257 . S
C119 O114 1.254 . S
C119 O115 1.269 . S
C120 O121 1.249 . S
C120 O122 1.270 . S
O121 Zn113 1.943 . S
O121 C120 1.249 . S
O122 Zn112 2.067 . S
O122 C120 1.270 . S
C123 O116 1.262 . S
C123 O124 1.232 . S
O124 C123 1.232 . S
C125 O117 1.260 . S
C125 O118 1.257 . S
Zn126 O129 2.031 . S
Zn126 O131 2.049 . S
Zn126 O136 2.067 . S
Zn127 O128 1.962 . S
Zn127 O130 1.986 . S
Zn127 O132 1.996 . S
Zn127 O135 1.943 . S
O128 Zn127 1.962 . S
O128 C133 1.254 . S
O129 Zn126 2.031 . S
O129 C133 1.269 . S
O130 Zn127 1.986 . S
O130 C137 1.262 . S
O131 Zn126 2.049 . S
O131 C139 1.260 . S
O132 Zn127 1.996 . S
O132 C139 1.257 . S
C133 O128 1.254 . S
C133 O129 1.269 . S
C134 O135 1.249 . S
C134 O136 1.270 . S
O135 Zn127 1.943 . S
O135 C134 1.249 . S
O136 Zn126 2.067 . S
O136 C134 1.270 . S
C137 O130 1.262 . S
C137 O138 1.232 . S
O138 C137 1.232 . S
C139 O131 1.260 . S
C139 O132 1.257 . S
Zn140 O143 2.031 . S
Zn140 O145 2.049 . S
Zn140 O150 2.067 . S
Zn141 O142 1.962 . S
Zn141 O144 1.986 . S
Zn141 O146 1.996 . S
Zn141 O149 1.943 . S
O142 Zn141 1.962 . S
O142 C147 1.254 . S
O143 Zn140 2.031 . S
O143 C147 1.269 . S
O144 Zn141 1.986 . S
O144 C151 1.262 . S
O145 Zn140 2.049 . S
O145 C153 1.260 . S
O146 Zn141 1.996 . S
O146 C153 1.257 . S
C147 O142 1.254 . S
C147 O143 1.269 . S
C148 O149 1.249 . S
C148 O150 1.270 . S
O149 Zn141 1.943 . S
O149 C148 1.249 . S
O150 Zn140 2.067 . S
O150 C148 1.270 . S
C151 O144 1.262 . S
C151 O152 1.232 . S
O152 C151 1.232 . S
C153 O145 1.260 . S
C153 O146 1.257 . S
Zn154 O157 2.031 . S
Zn154 O159 2.049 . S
Zn154 O164 2.067 . S
Zn155 O156 1.962 . S
Zn155 O158 1.986 . S
Zn155 O160 1.996 . S
Zn155 O163 1.943 . S
O156 Zn155 1.962 . S
O156 C161 1.254 . S
O157 Zn154 2.031 . S
O157 C161 1.269 . S
O158 Zn155 1.986 . S
O158 C165 1.262 . S
O159 Zn154 2.049 . S
O159 C167 1.260 . S
O160 Zn155 1.996 . S
O160 C167 1.257 . S
C161 O156 1.254 . S
C161 O157 1.269 . S
C162 O163 1.249 . S
C162 O164 1.270 . S
O163 Zn155 1.943 . S
O163 C162 1.249 . S
O164 Zn154 2.067 . S
O164 C162 1.270 . S
C165 O158 1.262 . S
C165 O166 1.232 . S
O166 C165 1.232 . S
C167 O159 1.260 . S
C167 O160 1.257 . S
Zn168 O171 2.031 . S
Zn168 O173 2.049 . S
Zn168 O178 2.067 . S
Zn169 O170 1.962 . S
Zn169 O172 1.986 . S
Zn169 O174 1.996 . S
Zn169 O177 1.943 . S
O170 Zn169 1.962 . S
O170 C175 1.254 . S
O171 Zn168 2.031 . S
O171 C175 1.269 . S
O172 Zn169 1.986 . S
O172 C179 1.262 . S
O173 Zn168 2.049 . S
O173 C181 1.260 . S
O174 Zn169 1.996 . S
O174 C181 1.257 . S
C175 O170 1.254 . S
C175 O171 1.269 . S
C176 O177 1.249 . S
C176 O178 1.270 . S
O177 Zn169 1.943 . S
O177 C176 1.249 . S
O178 Zn168 2.067 . S
O178 C176 1.270 . S
C179 O172 1.262 . S
C179 O180 1.232 . S
O180 C179 1.232 . S
C181 O173 1.260 . S
C181 O174 1.257 . S
Zn182 O185 2.031 . S
Zn182 O187 2.049 . S
Zn182 O192 2.067 . S
Zn183 O184 1.962 . S
Zn183 O186 1.986 . S
Zn183 O188 1.996 . S
Zn183 O191 1.943 . S
O184 Zn183 1.962 . S
O184 C189 1.254 . S
O185 Zn182 2.031 . S
O185 C189 1.269 . S
O186 Zn183 1.986 . S
O186 C193 1.262 . S
O187 Zn182 2.049 . S
O187 C195 1.260 . S
O188 Zn183 1.996 . S
O188 C195 1.257 . S
C189 O184 1.254 . S
C189 O185 1.269 . S
C190 O191 1.249 . S
C190 O192 1.270 . S
O191 Zn183 1.943 . S
O191 C190 1.249 . S
O192 Zn182 2.067 . S
O192 C190 1.270 . S
C193 O186 1.262 . S
C193 O194 1.232 . S
O194 C193 1.232 . S
C195 O187 1.260 . S
C195 O188 1.257 . S
Zn196 O199 2.031 . S
Zn196 O201 2.049 . S
Zn196 O206 2.067 . S
Zn197 O198 1.962 . S
Zn197 O200 1.986 . S
Zn197 O202 1.996 . S
Zn197 O205 1.943 . S
O198 Zn197 1.962 . S
O198 C203 1.254 . S
O199 Zn196 2.031 . S
O199 C203 1.269 . S
O200 Zn197 1.986 . S
O200 C207 1.262 . S
O201 Zn196 2.049 . S
O201 C209 1.260 . S
O202 Zn197 1.996 . S
O202 C209 1.257 . S
C203 O198 1.254 . S
C203 O199 1.269 . S
C204 O205 1.249 . S
C204 O206 1.270 . S
O205 Zn197 1.943 . S
O205 C204 1.249 . S
O206 Zn196 2.067 . S
O206 C204 1.270 . S
C207 O200 1.262 . S
C207 O208 1.232 . S
O208 C207 1.232 . S
C209 O201 1.260 . S
C209 O202 1.257 . S
Zn210 O213 2.031 . S
Zn210 O215 2.049 . S
Zn210 O220 2.067 . S
Zn211 O212 1.962 . S
Zn211 O214 1.986 . S
Zn211 O216 1.996 . S
Zn211 O219 1.943 . S
O212 Zn211 1.962 . S
O212 C217 1.254 . S
O213 Zn210 2.031 . S
O213 C217 1.269 . S
O214 Zn211 1.986 . S
O214 C221 1.262 . S
O215 Zn210 2.049 . S
O215 C223 1.260 . S
O216 Zn211 1.996 . S
O216 C223 1.257 . S
C217 O212 1.254 . S
C217 O213 1.269 . S
C218 O219 1.249 . S
C218 O220 1.270 . S
O219 Zn211 1.943 . S
O219 C218 1.249 . S
O220 Zn210 2.067 . S
O220 C218 1.270 . S
C221 O214 1.262 . S
C221 O222 1.232 . S
O222 C221 1.232 . S
C223 O215 1.260 . S
C223 O216 1.257 . S
Zn224 O227 2.031 . S
Zn224 O229 2.049 . S
Zn224 O234 2.067 . S
Zn225 O226 1.962 . S
Zn225 O228 1.986 . S
Zn225 O230 1.996 . S
Zn225 O233 1.943 . S
O226 Zn225 1.962 . S
O226 C231 1.254 . S
O227 Zn224 2.031 . S
O227 C231 1.269 . S
O228 Zn225 1.986 . S
O228 C235 1.262 . S
O229 Zn224 2.049 . S
O229 C237 1.260 . S
O230 Zn225 1.996 . S
O230 C237 1.257 . S
C231 O226 1.254 . S
C231 O227 1.269 . S
C232 O233 1.249 . S
C232 O234 1.270 . S
O233 Zn225 1.943 . S
O233 C232 1.249 . S
O234 Zn224 2.067 . S
O234 C232 1.270 . S
C235 O228 1.262 . S
C235 O236 1.232 . S
O236 C235 1.232 . S
C237 O229 1.260 . S
C237 O230 1.257 . S
Zn238 O241 2.031 . S
Zn238 O243 2.049 . S
Zn238 O248 2.067 . S
Zn239 O240 1.962 . S
Zn239 O242 1.986 . S
Zn239 O244 1.996 . S
Zn239 O247 1.943 . S
O240 Zn239 1.962 . S
O240 C245 1.254 . S
O241 Zn238 2.031 . S
O241 C245 1.269 . S
O242 Zn239 1.986 . S
O242 C249 1.262 . S
O243 Zn238 2.049 . S
O243 C251 1.260 . S
O244 Zn239 1.996 . S
O244 C251 1.257 . S
C245 O240 1.254 . S
C245 O241 1.269 . S
C246 O247 1.249 . S
C246 O248 1.270 . S
O247 Zn239 1.943 . S
O247 C246 1.249 . S
O248 Zn238 2.067 . S
O248 C246 1.270 . S
C249 O242 1.262 . S
C249 O250 1.232 . S
O250 C249 1.232 . S
C251 O243 1.260 . S
C251 O244 1.257 . S
Zn252 O255 2.031 . S
Zn252 O257 2.049 . S
Zn252 O262 2.067 . S
Zn253 O254 1.962 . S
Zn253 O256 1.986 . S
Zn253 O258 1.996 . S
Zn253 O261 1.943 . S
O254 Zn253 1.962 . S
O254 C259 1.254 . S
O255 Zn252 2.031 . S
O255 C259 1.269 . S
O256 Zn253 1.986 . S
O256 C263 1.262 . S
O257 Zn252 2.049 . S
O257 C265 1.260 . S
O258 Zn253 1.996 . S
O258 C265 1.257 . S
C259 O254 1.254 . S
C259 O255 1.269 . S
C260 O261 1.249 . S
C260 O262 1.270 . S
O261 Zn253 1.943 . S
O261 C260 1.249 . S
O262 Zn252 2.067 . S
O262 C260 1.270 . S
C263 O256 1.262 . S
C263 O264 1.232 . S
O264 C263 1.232 . S
C265 O257 1.260 . S
C265 O258 1.257 . S
Zn266 O269 2.031 . S
Zn266 O271 2.049 . S
Zn266 O276 2.067 . S
Zn267 O268 1.962 . S
Zn267 O270 1.986 . S
Zn267 O272 1.996 . S
Zn267 O275 1.943 . S
O268 Zn267 1.962 . S
O268 C273 1.254 . S
O269 Zn266 2.031 . S
O269 C273 1.269 . S
O270 Zn267 1.986 . S
O270 C277 1.262 . S
O271 Zn266 2.049 . S
O271 C279 1.260 . S
O272 Zn267 1.996 . S
O272 C279 1.257 . S
C273 O268 1.254 . S
C273 O269 1.269 . S
C274 O275 1.249 . S
C274 O276 1.270 . S
O275 Zn267 1.943 . S
O275 C274 1.249 . S
O276 Zn266 2.067 . S
O276 C274 1.270 . S
C277 O270 1.262 . S
C277 O278 1.232 . S
O278 C277 1.232 . S
C279 O271 1.260 . S
C279 O272 1.257 . S
Zn280 O283 2.031 . S
Zn280 O285 2.049 . S
Zn280 O290 2.067 . S
Zn281 O282 1.962 . S
Zn281 O284 1.986 . S
Zn281 O286 1.996 . S
Zn281 O289 1.943 . S
O282 Zn281 1.962 . S
O282 C287 1.254 . S
O283 Zn280 2.031 . S
O283 C287 1.269 . S
O284 Zn281 1.986 . S
O284 C291 1.262 . S
O285 Zn280 2.049 . S
O285 C293 1.260 . S
O286 Zn281 1.996 . S
O286 C293 1.257 . S
C287 O282 1.254 . S
C287 O283 1.269 . S
C288 O289 1.249 . S
C288 O290 1.270 . S
O289 Zn281 1.943 . S
O289 C288 1.249 . S
O290 Zn280 2.067 . S
O290 C288 1.270 . S
C291 O284 1.262 . S
C291 O292 1.232 . S
O292 C291 1.232 . S
C293 O285 1.260 . S
C293 O286 1.257 . S
Zn294 O297 2.031 . S
Zn294 O299 2.049 . S
Zn294 O304 2.067 . S
Zn295 O296 1.962 . S
Zn295 O298 1.986 . S
Zn295 O300 1.996 . S
Zn295 O303 1.943 . S
O296 Zn295 1.962 . S
O296 C301 1.254 . S
O297 Zn294 2.031 . S
O297 C301 1.269 . S
O298 Zn295 1.986 . S
O298 C305 1.262 . S
O299 Zn294 2.049 . S
O299 C307 1.260 . S
O300 Zn295 1.996 . S
O300 C307 1.257 . S
C301 O296 1.254 . S
C301 O297 1.269 . S
C302 O303 1.249 . S
C302 O304 1.270 . S
O303 Zn295 1.943 . S
O303 C302 1.249 . S
O304 Zn294 2.067 . S
O304 C302 1.270 . S
C305 O298 1.262 . S
C305 O306 1.232 . S
O306 C305 1.232 . S
C307 O299 1.260 . S
C307 O300 1.257 . S
Zn308 O311 2.031 . S
Zn308 O313 2.049 . S
Zn308 O318 2.067 . S
Zn309 O310 1.962 . S
Zn309 O312 1.986 . S
Zn309 O314 1.996 . S
Zn309 O317 1.943 . S
O310 Zn309 1.962 . S
O310 C315 1.254 . S
O311 Zn308 2.031 . S
O311 C315 1.269 . S
O312 Zn309 1.986 . S
O312 C319 1.262 . S
O313 Zn308 2.049 . S
O313 C321 1.260 . S
O314 Zn309 1.996 . S
O314 C321 1.257 . S
C315 O310 1.254 . S
C315 O311 1.269 . S
C316 O317 1.249 . S
C316 O318 1.270 . S
O317 Zn309 1.943 . S
O317 C316 1.249 . S
O318 Zn308 2.067 . S
O318 C316 1.270 . S
C319 O312 1.262 . S
C319 O320 1.232 . S
O320 C319 1.232 . S
C321 O313 1.260 . S
C321 O314 1.257 . S
Zn322 O325 2.031 . S
Zn322 O327 2.049 . S
Zn322 O332 2.067 . S
Zn323 O324 1.962 . S
Zn323 O326 1.986 . S
Zn323 O328 1.996 . S
Zn323 O331 1.943 . S
O324 Zn323 1.962 . S
O324 C329 1.254 . S
O325 Zn322 2.031 . S
O325 C329 1.269 . S
O326 Zn323 1.986 . S
O326 C333 1.262 . S
O327 Zn322 2.049 . S
O327 C335 1.260 . S
O328 Zn323 1.996 . S
O328 C335 1.257 . S
C329 O324 1.254 . S
C329 O325 1.269 . S
C330 O331 1.249 . S
C330 O332 1.270 . S
O331 Zn323 1.943 . S
O331 C330 1.249 . S
O332 Zn322 2.067 . S
O332 C330 1.270 . S
C333 O326 1.262 . S
C333 O334 1.232 . S
O334 C333 1.232 . S
C335 O327 1.260 . S
C335 O328 1.257 . S
Zn336 O339 2.031 . S
Zn336 O341 2.049 . S
Zn336 O346 2.067 . S
Zn337 O338 1.962 . S
Zn337 O340 1.986 . S
Zn337 O342 1.996 . S
Zn337 O345 1.943 . S
O338 Zn337 1.962 . S
O338 C343 1.254 . S
O339 Zn336 2.031 . S
O339 C343 1.269 . S
O340 Zn337 1.986 . S
O340 C347 1.262 . S
O341 Zn336 2.049 . S
O341 C349 1.260 . S
O342 Zn337 1.996 . S
O342 C349 1.257 . S
C343 O338 1.254 . S
C343 O339 1.269 . S
C344 O345 1.249 . S
C344 O346 1.270 . S
O345 Zn337 1.943 . S
O345 C344 1.249 . S
O346 Zn336 2.067 . S
O346 C344 1.270 . S
C347 O340 1.262 . S
C347 O348 1.232 . S
O348 C347 1.232 . S
C349 O341 1.260 . S
C349 O342 1.257 . S
Zn350 O353 2.031 . S
Zn350 O355 2.049 . S
Zn350 O360 2.067 . S
Zn351 O352 1.962 . S
Zn351 O354 1.986 . S
Zn351 O356 1.996 . S
Zn351 O359 1.943 . S
O352 Zn351 1.962 . S
O352 C357 1.254 . S
O353 Zn350 2.031 . S
O353 C357 1.269 . S
O354 Zn351 1.986 . S
O354 C361 1.262 . S
O355 Zn350 2.049 . S
O355 C363 1.260 . S
O356 Zn351 1.996 . S
O356 C363 1.257 . S
C357 O352 1.254 . S
C357 O353 1.269 . S
C358 O359 1.249 . S
C358 O360 1.270 . S
O359 Zn351 1.943 . S
O359 C358 1.249 . S
O360 Zn350 2.067 . S
O360 C358 1.270 . S
C361 O354 1.262 . S
C361 O362 1.232 . S
O362 C361 1.232 . S
C363 O355 1.260 . S
C363 O356 1.257 . S
Zn364 O367 2.031 . S
Zn364 O369 2.049 . S
Zn364 O374 2.067 . S
Zn365 O366 1.962 . S
Zn365 O368 1.986 . S
Zn365 O370 1.996 . S
Zn365 O373 1.943 . S
O366 Zn365 1.962 . S
O366 C371 1.254 . S
O367 Zn364 2.031 . S
O367 C371 1.269 . S
O368 Zn365 1.986 . S
O368 C375 1.262 . S
O369 Zn364 2.049 . S
O369 C377 1.260 . S
O370 Zn365 1.996 . S
O370 C377 1.257 . S
C371 O366 1.254 . S
C371 O367 1.269 . S
C372 O373 1.249 . S
C372 O374 1.270 . S
O373 Zn365 1.943 . S
O373 C372 1.249 . S
O374 Zn364 2.067 . S
O374 C372 1.270 . S
C375 O368 1.262 . S
C375 O376 1.232 . S
O376 C375 1.232 . S
C377 O369 1.260 . S
C377 O370 1.257 . S
Zn378 O381 2.031 . S
Zn378 O383 2.049 . S
Zn378 O388 2.067 . S
Zn379 O380 1.962 . S
Zn379 O382 1.986 . S
Zn379 O384 1.996 . S
Zn379 O387 1.943 . S
O380 Zn379 1.962 . S
O380 C385 1.254 . S
O381 Zn378 2.031 . S
O381 C385 1.269 . S
O382 Zn379 1.986 . S
O382 C389 1.262 . S
O383 Zn378 2.049 . S
O383 C391 1.260 . S
O384 Zn379 1.996 . S
O384 C391 1.257 . S
C385 O380 1.254 . S
C385 O381 1.269 . S
C386 O387 1.249 . S
C386 O388 1.270 . S
O387 Zn379 1.943 . S
O387 C386 1.249 . S
O388 Zn378 2.067 . S
O388 C386 1.270 . S
C389 O382 1.262 . S
C389 O390 1.232 . S
O390 C389 1.232 . S
C391 O383 1.260 . S
C391 O384 1.257 . S
Zn392 O395 2.031 . S
Zn392 O397 2.049 . S
Zn392 O402 2.067 . S
Zn393 O394 1.962 . S
Zn393 O396 1.986 . S
Zn393 O398 1.996 . S
Zn393 O401 1.943 . S
O394 Zn393 1.962 . S
O394 C399 1.254 . S
O395 Zn392 2.031 . S
O395 C399 1.269 . S
O396 Zn393 1.986 . S
O396 C403 1.262 . S
O397 Zn392 2.049 . S
O397 C405 1.260 . S
O398 Zn393 1.996 . S
O398 C405 1.257 . S
C399 O394 1.254 . S
C399 O395 1.269 . S
C400 O401 1.249 . S
C400 O402 1.270 . S
O401 Zn393 1.943 . S
O401 C400 1.249 . S
O402 Zn392 2.067 . S
O402 C400 1.270 . S
C403 O396 1.262 . S
C403 O404 1.232 . S
O404 C403 1.232 . S
C405 O397 1.260 . S
C405 O398 1.257 . S
Zn406 O409 2.031 . S
Zn406 O411 2.049 . S
Zn406 O416 2.067 . S
Zn407 O408 1.962 . S
Zn407 O410 1.986 . S
Zn407 O412 1.996 . S
Zn407 O415 1.943 . S
O408 Zn407 1.962 . S
O408 C413 1.254 . S
O409 Zn406 2.031 . S
O409 C413 1.269 . S
O410 Zn407 1.986 . S
O410 C417 1.262 . S
O411 Zn406 2.049 . S
O411 C419 1.260 . S
O412 Zn407 1.996 . S
O412 C419 1.257 . S
C413 O408 1.254 . S
C413 O409 1.269 . S
C414 O415 1.249 . S
C414 O416 1.270 . S
O415 Zn407 1.943 . S
O415 C414 1.249 . S
O416 Zn406 2.067 . S
O416 C414 1.270 . S
C417 O410 1.262 . S
C417 O418 1.232 . S
O418 C417 1.232 . S
C419 O411 1.260 . S
C419 O412 1.257 . S
Zn420 O423 2.031 . S
Zn420 O425 2.049 . S
Zn420 O430 2.067 . S
Zn421 O422 1.962 . S
Zn421 O424 1.986 . S
Zn421 O426 1.996 . S
Zn421 O429 1.943 . S
O422 Zn421 1.962 . S
O422 C427 1.254 . S
O423 Zn420 2.031 . S
O423 C427 1.269 . S
O424 Zn421 1.986 . S
O424 C431 1.262 . S
O425 Zn420 2.049 . S
O425 C433 1.260 . S
O426 Zn421 1.996 . S
O426 C433 1.257 . S
C427 O422 1.254 . S
C427 O423 1.269 . S
C428 O429 1.249 . S
C428 O430 1.270 . S
O429 Zn421 1.943 . S
O429 C428 1.249 . S
O430 Zn420 2.067 . S
O430 C428 1.270 . S
C431 O424 1.262 . S
C431 O432 1.232 . S
O432 C431 1.232 . S
C433 O425 1.260 . S
C433 O426 1.257 . S
Zn434 O437 2.031 . S
Zn434 O439 2.049 . S
Zn434 O444 2.067 . S
Zn435 O436 1.962 . S
Zn435 O438 1.986 . S
Zn435 O440 1.996 . S
Zn435 O443 1.943 . S
O436 Zn435 1.962 . S
O436 C441 1.254 . S
O437 Zn434 2.031 . S
O437 C441 1.269 . S
O438 Zn435 1.986 . S
O438 C445 1.262 . S
O439 Zn434 2.049 . S
O439 C447 1.260 . S
O440 Zn435 1.996 . S
O440 C447 1.257 . S
C441 O436 1.254 . S
C441 O437 1.269 . S
C442 O443 1.249 . S
C442 O444 1.270 . S
O443 Zn435 1.943 . S
O443 C442 1.249 . S
O444 Zn434 2.067 . S
O444 C442 1.270 . S
C445 O438 1.262 . S
C445 O446 1.232 . S
O446 C445 1.232 . S
C447 O439 1.260 . S
C447 O440 1.257 . S
H448 C454 0.930 . S
H449 C458 0.930 . S
H450 C463 0.929 1_655 S
H451 C461 0.929 . S
H452 C456 0.929 . S
H453 C462 0.929 1_556 S
C454 H448 0.930 . S
C454 C455 1.367 . S
C454 C462 1.378 . S
C455 C454 1.367 . S
C455 C463 1.433 . S
C456 H452 0.929 . S
C456 C458 1.378 1_554 S
C456 C460 1.350 1_554 S
C457 C460 1.463 1_544 S
C457 C462 1.350 1_655 S
C457 N465 1.427 . S
C458 H449 0.930 . S
C458 C456 1.378 1_556 S
C458 C459 1.367 . S
C459 C458 1.367 . S
C459 C461 1.433 . S
C460 C456 1.350 1_556 S
C460 C457 1.463 1_566 S
C460 N464 1.427 . S
C461 H451 0.929 . S
C461 C459 1.433 . S
C461 N464 1.384 . S
C462 H453 0.929 1_554 S
C462 C454 1.378 . S
C462 C457 1.350 1_455 S
C463 H450 0.929 1_455 S
C463 C455 1.433 . S
C463 N465 1.384 1_455 S
N464 C460 1.427 . S
N464 C461 1.384 . S
N465 C457 1.427 . S
N465 C463 1.384 1_655 S
H466 C472 0.930 . S
H467 C476 0.930 . S
H468 C481 0.929 . S
H469 C479 0.929 . S
H470 C474 0.929 . S
H471 C480 0.929 . S
C472 H466 0.930 . S
C472 C473 1.367 . S
C472 C480 1.378 . S
C473 C472 1.367 . S
C473 C481 1.433 . S
C474 H470 0.929 . S
C474 C476 1.378 . S
C474 C478 1.350 . S
C475 C478 1.463 . S
C475 C480 1.350 . S
C475 N483 1.427 . S
C476 H467 0.930 . S
C476 C474 1.378 . S
C476 C477 1.367 . S
C477 C476 1.367 . S
C477 C479 1.433 . S
C478 C474 1.350 . S
C478 C475 1.463 . S
C478 N482 1.427 . S
C479 H469 0.929 . S
C479 C477 1.433 . S
C479 N482 1.384 . S
C480 H471 0.929 . S
C480 C472 1.378 . S
C480 C475 1.350 . S
C481 H468 0.929 . S
C481 C473 1.433 . S
C481 N483 1.384 . S
N482 C478 1.427 . S
N482 C479 1.384 . S
N483 C475 1.427 . S
N483 C481 1.384 . S
H484 C490 0.930 . S
H485 C494 0.930 . S
H486 C499 0.929 . S
H487 C497 0.929 . S
H488 C492 0.927 . S
H489 C498 0.929 1_545 S
C490 H484 0.930 . S
C490 C491 1.367 . S
C490 C498 1.378 . S
C491 C490 1.367 . S
C491 C499 1.433 . S
C492 H488 0.927 . S
C492 C494 1.379 1_565 S
C492 C496 1.350 1_565 S
C493 C496 1.463 1_565 S
C493 C498 1.350 . S
C493 N501 1.427 . S
C494 H485 0.930 . S
C494 C492 1.379 1_545 S
C494 C495 1.367 . S
C495 C494 1.367 . S
C495 C497 1.433 . S
C496 C492 1.350 1_545 S
C496 C493 1.463 1_545 S
C496 N500 1.427 . S
C497 H487 0.929 . S
C497 C495 1.433 . S
C497 N500 1.384 . S
C498 H489 0.929 1_565 S
C498 C490 1.378 . S
C498 C493 1.350 . S
C499 H486 0.929 . S
C499 C491 1.433 . S
C499 N501 1.384 . S
N500 C496 1.427 . S
N500 C497 1.384 . S
N501 C493 1.427 . S
N501 C499 1.384 . S
H502 C508 0.930 . S
H503 C512 0.930 . S
H504 C517 0.929 . S
H505 C515 0.929 . S
H506 C510 0.929 . S
H507 C516 0.929 . S
C508 H502 0.930 . S
C508 C509 1.367 . S
C508 C516 1.378 . S
C509 C508 1.367 . S
C509 C517 1.433 . S
C510 H506 0.929 . S
C510 C512 1.378 . S
C510 C514 1.350 . S
C511 C514 1.463 . S
C511 C516 1.350 . S
C511 N519 1.427 . S
C512 H503 0.930 . S
C512 C510 1.378 . S
C512 C513 1.367 . S
C513 C512 1.367 . S
C513 C515 1.433 . S
C514 C510 1.350 . S
C514 C511 1.463 . S
C514 N518 1.427 . S
C515 H505 0.929 . S
C515 C513 1.433 . S
C515 N518 1.384 . S
C516 H507 0.929 . S
C516 C508 1.378 . S
C516 C511 1.350 . S
C517 H504 0.929 . S
C517 C509 1.433 . S
C517 N519 1.384 . S
N518 C514 1.427 . S
N518 C515 1.384 . S
N519 C511 1.427 . S
N519 C517 1.384 . S
H520 C526 0.930 . S
H521 C530 0.930 . S
H522 C535 0.929 . S
H523 C533 0.929 . S
H524 C528 0.929 1_455 S
H525 C534 0.929 1_645 S
C526 H520 0.930 . S
C526 C527 1.367 . S
C526 C534 1.378 . S
C527 C526 1.367 . S
C527 C535 1.433 . S
C528 H524 0.929 1_655 S
C528 C530 1.378 1_565 S
C528 C532 1.350 1_565 S
C529 C532 1.463 1_465 S
C529 C534 1.350 . S
C529 N537 1.427 . S
C530 H521 0.930 . S
C530 C528 1.378 1_545 S
C530 C531 1.367 . S
C531 C530 1.367 . S
C531 C533 1.433 . S
C532 C528 1.350 1_545 S
C532 C529 1.463 1_645 S
C532 N536 1.427 . S
C533 H523 0.929 . S
C533 C531 1.433 . S
C533 N536 1.384 . S
C534 H525 0.929 1_465 S
C534 C526 1.378 . S
C534 C529 1.350 . S
C535 H522 0.929 . S
C535 C527 1.433 . S
C535 N537 1.384 . S
N536 C532 1.427 . S
N536 C533 1.384 . S
N537 C529 1.427 . S
N537 C535 1.384 . S
H538 C544 0.930 . S
H539 C548 0.930 . S
H540 C553 0.929 . S
H541 C551 0.929 . S
H542 C546 0.929 . S
H543 C552 0.929 . S
C544 H538 0.930 . S
C544 C545 1.367 . S
C544 C552 1.378 . S
C545 C544 1.367 . S
C545 C553 1.433 . S
C546 H542 0.929 . S
C546 C548 1.378 . S
C546 C550 1.350 . S
C547 C550 1.463 . S
C547 C552 1.350 . S
C547 N555 1.427 . S
C548 H539 0.930 . S
C548 C546 1.378 . S
C548 C549 1.367 . S
C549 C548 1.367 . S
C549 C551 1.433 . S
C550 C546 1.350 . S
C550 C547 1.463 . S
C550 N554 1.427 . S
C551 H541 0.929 . S
C551 C549 1.433 . S
C551 N554 1.384 . S
C552 H543 0.929 . S
C552 C544 1.378 . S
C552 C547 1.350 . S
C553 H540 0.929 . S
C553 C545 1.433 . S
C553 N555 1.384 . S
N554 C550 1.427 . S
N554 C551 1.384 . S
N555 C547 1.427 . S
N555 C553 1.384 . S
H556 C562 0.930 . S
H557 C566 0.930 . S
H558 C571 0.934 . S
H559 C569 0.929 . S
H560 C564 0.929 . S
H561 C570 0.929 . S
C562 H556 0.930 . S
C562 C563 1.367 . S
C562 C570 1.378 . S
C563 C562 1.367 . S
C563 C571 1.433 . S
C564 H560 0.929 . S
C564 C566 1.378 . S
C564 C568 1.350 . S
C565 C568 1.463 1_546 S
C565 C570 1.350 . S
C565 N573 1.427 1_545 S
C566 H557 0.930 . S
C566 C564 1.378 . S
C566 C567 1.367 . S
C567 C566 1.367 . S
C567 C569 1.433 . S
C568 C564 1.350 . S
C568 C565 1.463 1_564 S
C568 N572 1.427 1_565 S
C569 H559 0.929 . S
C569 C567 1.433 . S
C569 N572 1.384 1_565 S
C570 H561 0.929 . S
C570 C562 1.378 . S
C570 C565 1.350 . S
C571 H558 0.934 . S
C571 C563 1.433 . S
C571 N573 1.384 1_545 S
N572 C568 1.427 1_545 S
N572 C569 1.384 1_545 S
N573 C565 1.427 1_565 S
N573 C571 1.384 1_565 S
H574 C580 0.930 . S
H575 C584 0.930 . S
H576 C589 0.929 . S
H577 C587 0.929 . S
H578 C582 0.929 . S
H579 C588 0.929 . S
C580 H574 0.930 . S
C580 C581 1.367 . S
C580 C588 1.378 . S
C581 C580 1.367 . S
C581 C589 1.433 . S
C582 H578 0.929 . S
C582 C584 1.378 . S
C582 C586 1.350 . S
C583 C586 1.463 . S
C583 C588 1.350 . S
C583 N591 1.427 . S
C584 H575 0.930 . S
C584 C582 1.378 . S
C584 C585 1.367 . S
C585 C584 1.367 . S
C585 C587 1.433 . S
C586 C582 1.350 . S
C586 C583 1.463 . S
C586 N590 1.427 . S
C587 H577 0.929 . S
C587 C585 1.433 . S
C587 N590 1.384 . S
C588 H579 0.929 . S
C588 C580 1.378 . S
C588 C583 1.350 . S
C589 H576 0.929 . S
C589 C581 1.433 . S
C589 N591 1.384 . S
N590 C586 1.427 . S
N590 C587 1.384 . S
N591 C583 1.427 . S
N591 C589 1.384 . S
H592 C598 0.930 . S
H593 C602 0.930 . S
H594 C607 0.929 . S
H595 C605 0.929 . S
H596 C600 0.929 1_554 S
H597 C606 0.929 1_556 S
C598 H592 0.930 . S
C598 C599 1.367 . S
C598 C606 1.378 . S
C599 C598 1.367 . S
C599 C607 1.433 . S
C600 H596 0.929 1_556 S
C600 C602 1.378 . S
C600 C604 1.350 . S
C601 C604 1.463 1_554 S
C601 C606 1.350 . S
C601 N609 1.427 . S
C602 H593 0.930 . S
C602 C600 1.378 . S
C602 C603 1.367 . S
C603 C602 1.367 . S
C603 C605 1.433 . S
C604 C600 1.350 . S
C604 C601 1.463 1_556 S
C604 N608 1.427 . S
C605 H595 0.929 . S
C605 C603 1.433 . S
C605 N608 1.384 . S
C606 H597 0.929 1_554 S
C606 C598 1.378 . S
C606 C601 1.350 . S
C607 H594 0.929 . S
C607 C599 1.433 . S
C607 N609 1.384 . S
N608 C604 1.427 . S
N608 C605 1.384 . S
N609 C601 1.427 . S
N609 C607 1.384 . S
H610 C616 0.930 . S
H611 C620 0.930 . S
H612 C625 0.929 . S
H613 C623 0.929 . S
H614 C618 0.929 . S
H615 C624 0.929 . S
C616 H610 0.930 . S
C616 C617 1.367 . S
C616 C624 1.378 . S
C617 C616 1.367 . S
C617 C625 1.433 . S
C618 H614 0.929 . S
C618 C620 1.378 . S
C618 C622 1.350 . S
C619 C622 1.463 . S
C619 C624 1.350 . S
C619 N627 1.427 . S
C620 H611 0.930 . S
C620 C618 1.378 . S
C620 C621 1.367 . S
C621 C620 1.367 . S
C621 C623 1.433 . S
C622 C618 1.350 . S
C622 C619 1.463 . S
C622 N626 1.427 . S
C623 H613 0.929 . S
C623 C621 1.433 . S
C623 N626 1.384 . S
C624 H615 0.929 . S
C624 C616 1.378 . S
C624 C619 1.350 . S
C625 H612 0.929 . S
C625 C617 1.433 . S
C625 N627 1.384 . S
N626 C622 1.427 . S
N626 C623 1.384 . S
N627 C619 1.427 . S
N627 C625 1.384 . S
H628 C634 0.930 . S
H629 C638 0.930 . S
H630 C643 0.929 . S
H631 C641 0.929 . S
H632 C636 0.929 . S
H633 C642 0.962 . S
C634 H628 0.930 . S
C634 C635 1.367 . S
C634 C642 1.357 1_455 S
C635 C634 1.367 . S
C635 C643 1.433 . S
C636 H632 0.929 . S
C636 C638 1.378 1_455 S
C636 C640 1.350 1_455 S
C637 C640 1.463 1_455 S
C637 C642 1.338 1_455 S
C637 N645 1.427 . S
C638 H629 0.930 . S
C638 C636 1.378 1_655 S
C638 C639 1.367 . S
C639 C638 1.367 . S
C639 C641 1.433 . S
C640 C636 1.350 1_655 S
C640 C637 1.463 1_655 S
C640 N644 1.427 . S
C641 H631 0.929 . S
C641 C639 1.433 . S
C641 N644 1.384 . S
C642 H633 0.962 . S
C642 C634 1.357 1_655 S
C642 C637 1.338 1_655 S
C643 H630 0.929 . S
C643 C635 1.433 . S
C643 N645 1.384 . S
N644 C640 1.427 . S
N644 C641 1.384 . S
N645 C637 1.427 . S
N645 C643 1.384 . S
H646 C652 0.930 . S
H647 C656 0.930 . S
H648 C661 0.929 . S
H649 C659 0.929 . S
H650 C654 0.929 . S
H651 C660 0.929 . S
C652 H646 0.930 . S
C652 C653 1.367 . S
C652 C660 1.378 . S
C653 C652 1.367 . S
C653 C661 1.433 . S
C654 H650 0.929 . S
C654 C656 1.378 . S
C654 C658 1.350 . S
C655 C658 1.463 . S
C655 C660 1.350 . S
C655 N663 1.427 . S
C656 H647 0.930 . S
C656 C654 1.378 . S
C656 C657 1.367 . S
C657 C656 1.367 . S
C657 C659 1.433 . S
C658 C654 1.350 . S
C658 C655 1.463 . S
C658 N662 1.427 . S
C659 H649 0.929 . S
C659 C657 1.433 . S
C659 N662 1.384 . S
C660 H651 0.929 . S
C660 C652 1.378 . S
C660 C655 1.350 . S
C661 H648 0.929 . S
C661 C653 1.433 . S
C661 N663 1.384 . S
N662 C658 1.427 . S
N662 C659 1.384 . S
N663 C655 1.427 . S
N663 C661 1.384 . S
H664 C670 0.930 . S
H665 C674 0.930 . S
H666 C679 0.929 . S
H667 C677 0.929 . S
H668 C672 0.929 . S
H669 C678 0.929 . S
C670 H664 0.930 . S
C670 C671 1.367 . S
C670 C678 1.378 . S
C671 C670 1.367 . S
C671 C679 1.433 . S
C672 H668 0.929 . S
C672 C674 1.378 . S
C672 C676 1.350 . S
C673 C676 1.463 . S
C673 C678 1.350 . S
C673 N681 1.427 . S
C674 H665 0.930 . S
C674 C672 1.378 . S
C674 C675 1.367 . S
C675 C674 1.367 . S
C675 C677 1.433 . S
C676 C672 1.350 . S
C676 C673 1.463 . S
C676 N680 1.427 . S
C677 H667 0.929 . S
C677 C675 1.433 . S
C677 N680 1.384 . S
C678 H669 0.929 . S
C678 C670 1.378 . S
C678 C673 1.350 . S
C679 H666 0.929 . S
C679 C671 1.433 . S
C679 N681 1.384 . S
N680 C676 1.427 . S
N680 C677 1.384 . S
N681 C673 1.427 . S
N681 C679 1.384 . S
H682 C688 0.930 . S
H683 C692 0.930 . S
H684 C697 0.929 . S
H685 C695 0.929 . S
H686 C690 0.929 . S
H687 C696 0.929 . S
C688 H682 0.930 . S
C688 C689 1.367 . S
C688 C696 1.378 . S
C689 C688 1.367 . S
C689 C697 1.433 . S
C690 H686 0.929 . S
C690 C692 1.378 . S
C690 C694 1.350 . S
C691 C694 1.463 . S
C691 C696 1.350 . S
C691 N699 1.427 . S
C692 H683 0.930 . S
C692 C690 1.378 . S
C692 C693 1.367 . S
C693 C692 1.367 . S
C693 C695 1.433 . S
C694 C690 1.350 . S
C694 C691 1.463 . S
C694 N698 1.427 . S
C695 H685 0.929 . S
C695 C693 1.433 . S
C695 N698 1.384 . S
C696 H687 0.929 . S
C696 C688 1.378 . S
C696 C691 1.350 . S
C697 H684 0.929 . S
C697 C689 1.433 . S
C697 N699 1.384 . S
N698 C694 1.427 . S
N698 C695 1.384 . S
N699 C691 1.427 . S
N699 C697 1.384 . S
H700 C706 0.930 . S
H701 C710 0.930 . S
H702 C715 0.929 . S
H703 C713 0.929 . S
H704 C708 0.929 . S
H705 C714 0.929 . S
C706 H700 0.930 . S
C706 C707 1.367 . S
C706 C714 1.378 . S
C707 C706 1.367 . S
C707 C715 1.433 . S
C708 H704 0.929 . S
C708 C710 1.378 . S
C708 C712 1.350 . S
C709 C712 1.463 . S
C709 C714 1.350 . S
C709 N717 1.427 . S
C710 H701 0.930 . S
C710 C708 1.378 . S
C710 C711 1.367 . S
C711 C710 1.367 . S
C711 C713 1.433 . S
C712 C708 1.350 . S
C712 C709 1.463 . S
C712 N716 1.427 . S
C713 H703 0.929 . S
C713 C711 1.433 . S
C713 N716 1.384 . S
C714 H705 0.929 . S
C714 C706 1.378 . S
C714 C709 1.350 . S
C715 H702 0.929 . S
C715 C707 1.433 . S
C715 N717 1.384 . S
N716 C712 1.427 . S
N716 C713 1.384 . S
N717 C709 1.427 . S
N717 C715 1.384 . S
H718 C724 0.930 . S
H719 C728 0.930 . S
H720 C733 0.929 . S
H721 C731 0.929 . S
H722 C726 0.929 . S
H723 C732 0.929 . S
C724 H718 0.930 . S
C724 C725 1.367 . S
C724 C732 1.378 . S
C725 C724 1.367 . S
C725 C733 1.433 . S
C726 H722 0.929 . S
C726 C728 1.378 1_455 S
C726 C730 1.350 . S
C727 C730 1.463 1_556 S
C727 C732 1.350 . S
C727 N735 1.427 1_556 S
C728 H719 0.930 . S
C728 C726 1.378 1_655 S
C728 C729 1.367 . S
C729 C728 1.367 . S
C729 C731 1.433 . S
C730 C726 1.350 . S
C730 C727 1.463 1_554 S
C730 N734 1.427 1_455 S
C731 H721 0.929 . S
C731 C729 1.433 . S
C731 N734 1.384 . S
C732 H723 0.929 . S
C732 C724 1.378 . S
C732 C727 1.350 . S
C733 H720 0.929 . S
C733 C725 1.433 . S
C733 N735 1.384 1_556 S
N734 C730 1.427 1_655 S
N734 C731 1.384 . S
N735 C727 1.427 1_554 S
N735 C733 1.384 1_554 S
H736 C742 0.930 . S
H737 C746 0.930 . S
H738 C751 0.929 . S
H739 C749 0.929 . S
H740 C744 0.929 . S
H741 C750 0.929 . S
C742 H736 0.930 . S
C742 C743 1.367 . S
C742 C750 1.378 . S
C743 C742 1.367 . S
C743 C751 1.433 . S
C744 H740 0.929 . S
C744 C746 1.378 . S
C744 C748 1.350 . S
C745 C748 1.463 . S
C745 C750 1.350 1_565 S
C745 N753 1.427 . S
C746 H737 0.930 . S
C746 C744 1.378 . S
C746 C747 1.367 . S
C747 C746 1.367 . S
C747 C749 1.433 . S
C748 C744 1.350 . S
C748 C745 1.463 . S
C748 N752 1.427 . S
C749 H739 0.929 . S
C749 C747 1.433 . S
C749 N752 1.384 . S
C750 H741 0.929 . S
C750 C742 1.378 . S
C750 C745 1.350 1_545 S
C751 H738 0.929 . S
C751 C743 1.433 . S
C751 N753 1.384 1_545 S
N752 C748 1.427 . S
N752 C749 1.384 . S
N753 C745 1.427 . S
N753 C751 1.384 1_565 S
H754 C760 0.930 . S
H755 C764 0.930 . S
H756 C769 0.929 . S
H757 C767 0.929 . S
H758 C762 0.929 . S
H759 C768 0.929 . S
C760 H754 0.930 . S
C760 C761 1.367 . S
C760 C768 1.378 . S
C761 C760 1.367 . S
C761 C769 1.433 . S
C762 H758 0.929 . S
C762 C764 1.378 . S
C762 C766 1.350 . S
C763 C766 1.463 . S
C763 C768 1.350 . S
C763 N771 1.427 . S
C764 H755 0.930 . S
C764 C762 1.378 . S
C764 C765 1.367 . S
C765 C764 1.367 . S
C765 C767 1.433 . S
C766 C762 1.350 . S
C766 C763 1.463 . S
C766 N770 1.427 . S
C767 H757 0.929 . S
C767 C765 1.433 . S
C767 N770 1.384 . S
C768 H759 0.929 . S
C768 C760 1.378 . S
C768 C763 1.350 . S
C769 H756 0.929 . S
C769 C761 1.433 . S
C769 N771 1.384 . S
N770 C766 1.427 . S
N770 C767 1.384 . S
N771 C763 1.427 . S
N771 C769 1.384 . S
H772 C778 0.930 . S
H773 C782 0.930 . S
H774 C787 0.929 . S
H775 C785 0.929 . S
H776 C780 0.929 . S
H777 C786 0.929 . S
C778 H772 0.930 . S
C778 C779 1.367 . S
C778 C786 1.378 . S
C779 C778 1.367 . S
C779 C787 1.433 . S
C780 H776 0.929 . S
C780 C782 1.378 1_545 S
C780 C784 1.350 . S
C781 C784 1.463 . S
C781 C786 1.350 . S
C781 N789 1.427 . S
C782 H773 0.930 . S
C782 C780 1.378 1_565 S
C782 C783 1.367 . S
C783 C782 1.367 . S
C783 C785 1.433 . S
C784 C780 1.350 . S
C784 C781 1.463 . S
C784 N788 1.427 1_545 S
C785 H775 0.929 . S
C785 C783 1.433 . S
C785 N788 1.384 . S
C786 H777 0.929 . S
C786 C778 1.378 . S
C786 C781 1.350 . S
C787 H774 0.929 . S
C787 C779 1.433 . S
C787 N789 1.384 . S
N788 C784 1.427 1_565 S
N788 C785 1.384 . S
N789 C781 1.427 . S
N789 C787 1.384 . S
H790 C796 0.930 . S
H791 C800 0.930 . S
H792 C805 0.929 . S
H793 C803 0.929 . S
H794 C798 0.929 . S
H795 C804 0.929 . S
C796 H790 0.930 . S
C796 C797 1.367 . S
C796 C804 1.378 . S
C797 C796 1.367 . S
C797 C805 1.433 . S
C798 H794 0.929 . S
C798 C800 1.378 1_556 S
C798 C802 1.350 . S
C799 C802 1.463 . S
C799 C804 1.350 . S
C799 N807 1.427 . S
C800 H791 0.930 . S
C800 C798 1.378 1_554 S
C800 C801 1.367 . S
C801 C800 1.367 . S
C801 C803 1.433 . S
C802 C798 1.350 . S
C802 C799 1.463 . S
C802 N806 1.427 1_556 S
C803 H793 0.929 . S
C803 C801 1.433 . S
C803 N806 1.384 . S
C804 H795 0.929 . S
C804 C796 1.378 . S
C804 C799 1.350 . S
C805 H792 0.929 . S
C805 C797 1.433 . S
C805 N807 1.384 . S
N806 C802 1.427 1_554 S
N806 C803 1.384 . S
N807 C799 1.427 . S
N807 C805 1.384 . S
H808 C814 0.930 . S
H809 C818 0.930 1_545 S
H810 C823 0.929 . S
H811 C821 0.929 . S
H812 C816 0.929 . S
H813 C822 0.929 . S
C814 H808 0.930 . S
C814 C815 1.367 . S
C814 C822 1.378 . S
C815 C814 1.367 . S
C815 C823 1.433 . S
C816 H812 0.929 . S
C816 C818 1.378 1_545 S
C816 C820 1.350 . S
C817 C820 1.463 . S
C817 C822 1.350 . S
C817 N825 1.427 . S
C818 H809 0.930 1_565 S
C818 C816 1.378 1_565 S
C818 C819 1.367 . S
C819 C818 1.367 . S
C819 C821 1.433 . S
C820 C816 1.350 . S
C820 C817 1.463 . S
C820 N824 1.427 1_545 S
C821 H811 0.929 . S
C821 C819 1.433 . S
C821 N824 1.384 . S
C822 H813 0.929 . S
C822 C814 1.378 . S
C822 C817 1.350 . S
C823 H810 0.929 . S
C823 C815 1.433 . S
C823 N825 1.384 . S
N824 C820 1.427 1_565 S
N824 C821 1.384 . S
N825 C817 1.427 . S
N825 C823 1.384 . S
H826 C832 0.930 . S
H827 C836 0.930 . S
H828 C841 0.929 . S
H829 C839 0.929 . S
H830 C834 0.929 . S
H831 C840 0.929 . S
C832 H826 0.930 . S
C832 C833 1.367 . S
C832 C840 1.378 . S
C833 C832 1.367 . S
C833 C841 1.433 . S
C834 H830 0.929 . S
C834 C836 1.378 . S
C834 C838 1.350 . S
C835 C838 1.463 . S
C835 C840 1.350 . S
C835 N843 1.427 . S
C836 H827 0.930 . S
C836 C834 1.378 . S
C836 C837 1.367 . S
C837 C836 1.367 . S
C837 C839 1.433 . S
C838 C834 1.350 . S
C838 C835 1.463 . S
C838 N842 1.427 . S
C839 H829 0.929 . S
C839 C837 1.433 . S
C839 N842 1.384 . S
C840 H831 0.929 . S
C840 C832 1.378 . S
C840 C835 1.350 . S
C841 H828 0.929 . S
C841 C833 1.433 . S
C841 N843 1.384 . S
N842 C838 1.427 . S
N842 C839 1.384 . S
N843 C835 1.427 . S
N843 C841 1.384 . S
H844 C850 0.930 . S
H845 C854 0.930 . S
H846 C859 0.928 1_565 S
H847 C857 0.929 . S
H848 C852 0.929 . S
H849 C858 0.929 . S
C850 H844 0.930 . S
C850 C851 1.367 . S
C850 C858 1.378 . S
C851 C850 1.367 . S
C851 C859 1.439 . S
C852 H848 0.929 . S
C852 C854 1.378 . S
C852 C856 1.350 . S
C853 C856 1.463 . S
C853 C858 1.350 1_565 S
C853 N861 1.427 . S
C854 H845 0.930 . S
C854 C852 1.378 . S
C854 C855 1.367 . S
C855 C854 1.367 . S
C855 C857 1.433 . S
C856 C852 1.350 . S
C856 C853 1.463 . S
C856 N860 1.427 . S
C857 H847 0.929 . S
C857 C855 1.433 . S
C857 N860 1.384 . S
C858 H849 0.929 . S
C858 C850 1.378 . S
C858 C853 1.350 1_545 S
C859 H846 0.928 1_545 S
C859 C851 1.439 . S
C859 N861 1.380 1_545 S
N860 C856 1.427 . S
N860 C857 1.384 . S
N861 C853 1.427 . S
N861 C859 1.380 1_565 S
H862 C868 0.930 . S
H863 C872 0.930 . S
H864 C877 0.929 . S
H865 C875 0.929 . S
H866 C870 0.929 . S
H867 C876 0.929 . S
C868 H862 0.930 . S
C868 C869 1.367 . S
C868 C876 1.378 . S
C869 C868 1.367 . S
C869 C877 1.433 . S
C870 H866 0.929 . S
C870 C872 1.378 . S
C870 C874 1.350 . S
C871 C874 1.463 . S
C871 C876 1.350 1_554 S
C871 N879 1.427 . S
C872 H863 0.930 . S
C872 C870 1.378 . S
C872 C873 1.367 . S
C873 C872 1.367 . S
C873 C875 1.433 . S
C874 C870 1.350 . S
C874 C871 1.463 . S
C874 N878 1.427 . S
C875 H865 0.929 . S
C875 C873 1.433 . S
C875 N878 1.384 . S
C876 H867 0.929 . S
C876 C868 1.378 . S
C876 C871 1.350 1_556 S
C877 H864 0.929 . S
C877 C869 1.433 . S
C877 N879 1.384 1_556 S
N878 C874 1.427 . S
N878 C875 1.384 . S
N879 C871 1.427 . S
N879 C877 1.384 1_554 S
H880 C886 0.930 . S
H881 C890 0.930 . S
H882 C895 0.929 . S
H883 C893 0.929 . S
H884 C888 0.929 . S
H885 C894 0.929 . S
C886 H880 0.930 . S
C886 C887 1.367 . S
C886 C894 1.378 . S
C887 C886 1.367 . S
C887 C895 1.433 . S
C888 H884 0.929 . S
C888 C890 1.378 1_655 S
C888 C892 1.350 . S
C889 C892 1.463 . S
C889 C894 1.350 . S
C889 N897 1.427 . S
C890 H881 0.930 . S
C890 C888 1.378 1_455 S
C890 C891 1.367 . S
C891 C890 1.367 . S
C891 C893 1.433 . S
C892 C888 1.350 . S
C892 C889 1.463 . S
C892 N896 1.430 . S
C893 H883 0.929 . S
C893 C891 1.433 . S
C893 N896 1.380 1_455 S
C894 H885 0.929 . S
C894 C886 1.378 . S
C894 C889 1.350 . S
C895 H882 0.929 . S
C895 C887 1.433 . S
C895 N897 1.384 . S
N896 C892 1.430 . S
N896 C893 1.380 1_655 S
N897 C889 1.427 . S
N897 C895 1.384 . S
H898 C904 0.930 . S
H899 C908 0.930 . S
H900 C913 0.929 . S
H901 C911 0.929 . S
H902 C906 0.929 . S
H903 C912 0.929 . S
C904 H898 0.930 . S
C904 C905 1.367 . S
C904 C912 1.378 . S
C905 C904 1.367 . S
C905 C913 1.433 . S
C906 H902 0.929 . S
C906 C908 1.378 . S
C906 C910 1.350 . S
C907 C910 1.463 . S
C907 C912 1.350 . S
C907 N915 1.427 . S
C908 H899 0.930 . S
C908 C906 1.378 . S
C908 C909 1.367 . S
C909 C908 1.367 . S
C909 C911 1.433 . S
C910 C906 1.350 . S
C910 C907 1.463 . S
C910 N914 1.427 . S
C911 H901 0.929 . S
C911 C909 1.433 . S
C911 N914 1.384 . S
C912 H903 0.929 . S
C912 C904 1.378 . S
C912 C907 1.350 . S
C913 H900 0.929 . S
C913 C905 1.433 . S
C913 N915 1.384 . S
N914 C910 1.427 . S
N914 C911 1.384 . S
N915 C907 1.427 . S
N915 C913 1.384 . S
H916 C922 0.930 . S
H917 C926 0.930 . S
H918 C931 0.929 . S
H919 C929 0.929 . S
H920 C924 0.929 1_655 S
H921 C930 0.929 . S
C922 H916 0.930 . S
C922 C923 1.367 . S
C922 C930 1.378 1_655 S
C923 C922 1.367 . S
C923 C931 1.433 . S
C924 H920 0.929 1_455 S
C924 C926 1.378 . S
C924 C928 1.350 . S
C925 C928 1.463 . S
C925 C930 1.350 . S
C925 N933 1.427 1_455 S
C926 H917 0.930 . S
C926 C924 1.378 . S
C926 C927 1.367 . S
C927 C926 1.367 . S
C927 C929 1.433 . S
C928 C924 1.350 . S
C928 C925 1.463 . S
C928 N932 1.427 . S
C929 H919 0.929 . S
C929 C927 1.433 . S
C929 N932 1.384 . S
C930 H921 0.929 . S
C930 C922 1.378 1_455 S
C930 C925 1.350 . S
C931 H918 0.929 . S
C931 C923 1.433 . S
C931 N933 1.384 . S
N932 C928 1.427 . S
N932 C929 1.384 . S
N933 C925 1.427 1_655 S
N933 C931 1.384 . S
H934 C940 0.930 . S
H935 C944 0.930 . S
H936 C949 0.929 . S
H937 C947 0.929 . S
H938 C942 0.929 . S
H939 C948 0.929 . S
C940 H934 0.930 . S
C940 C941 1.367 1_455 S
C940 C948 1.378 . S
C941 C940 1.367 1_655 S
C941 C949 1.433 . S
C942 H938 0.929 . S
C942 C944 1.378 . S
C942 C946 1.350 . S
C943 C946 1.463 . S
C943 C948 1.350 . S
C943 N951 1.427 1_455 S
C944 H935 0.930 . S
C944 C942 1.378 . S
C944 C945 1.367 . S
C945 C944 1.367 . S
C945 C947 1.433 . S
C946 C942 1.350 . S
C946 C943 1.463 . S
C946 N950 1.427 . S
C947 H937 0.929 . S
C947 C945 1.433 . S
C947 N950 1.384 . S
C948 H939 0.929 . S
C948 C940 1.378 . S
C948 C943 1.350 . S
C949 H936 0.929 . S
C949 C941 1.433 . S
C949 N951 1.384 . S
N950 C946 1.427 . S
N950 C947 1.384 . S
N951 C943 1.427 1_655 S
N951 C949 1.384 . S
H952 C958 0.930 . S
H953 C962 0.930 . S
H954 C967 0.929 . S
H955 C965 0.929 . S
H956 C960 0.929 . S
H957 C966 0.929 . S
C958 H952 0.930 . S
C958 C959 1.367 . S
C958 C966 1.378 . S
C959 C958 1.367 . S
C959 C967 1.433 . S
C960 H956 0.929 . S
C960 C962 1.378 . S
C960 C964 1.350 . S
C961 C964 1.463 . S
C961 C966 1.350 . S
C961 N969 1.427 . S
C962 H953 0.930 . S
C962 C960 1.378 . S
C962 C963 1.367 . S
C963 C962 1.367 . S
C963 C965 1.433 . S
C964 C960 1.350 . S
C964 C961 1.463 . S
C964 N968 1.427 . S
C965 H955 0.929 . S
C965 C963 1.433 . S
C965 N968 1.384 . S
C966 H957 0.929 . S
C966 C958 1.378 . S
C966 C961 1.350 . S
C967 H954 0.929 . S
C967 C959 1.433 . S
C967 N969 1.384 . S
N968 C964 1.427 . S
N968 C965 1.384 . S
N969 C961 1.427 . S
N969 C967 1.384 . S
H970 C976 0.930 . S
H971 C980 0.930 . S
H972 C985 0.929 . S
H973 C983 0.929 . S
H974 C978 0.929 . S
H975 C984 0.929 . S
C976 H970 0.930 . S
C976 C977 1.367 . S
C976 C984 1.378 . S
C977 C976 1.367 . S
C977 C985 1.433 . S
C978 H974 0.929 . S
C978 C980 1.378 . S
C978 C982 1.350 1_455 S
C979 C982 1.463 . S
C979 C984 1.350 . S
C979 N987 1.427 . S
C980 H971 0.930 . S
C980 C978 1.378 . S
C980 C981 1.367 . S
C981 C980 1.367 . S
C981 C983 1.433 . S
C982 C978 1.350 1_655 S
C982 C979 1.463 . S
C982 N986 1.427 . S
C983 H973 0.929 . S
C983 C981 1.433 . S
C983 N986 1.384 1_455 S
C984 H975 0.929 . S
C984 C976 1.378 . S
C984 C979 1.350 . S
C985 H972 0.929 . S
C985 C977 1.433 . S
C985 N987 1.384 . S
N986 C982 1.427 . S
N986 C983 1.384 1_655 S
N987 C979 1.427 . S
N987 C985 1.384 . S
H988 C994 0.930 . S
H989 C998 0.930 . S
H990 C1003 0.929 . S
H991 C1001 0.929 . S
H992 C996 0.929 . S
H993 C1002 0.929 . S
C994 H988 0.930 . S
C994 C995 1.367 . S
C994 C1002 1.378 . S
C995 C994 1.367 . S
C995 C1003 1.433 . S
C996 H992 0.929 . S
C996 C998 1.378 . S
C996 C1000 1.350 . S
C997 C1000 1.463 . S
C997 C1002 1.350 . S
C997 N1005 1.427 . S
C998 H989 0.930 . S
C998 C996 1.378 . S
C998 C999 1.367 . S
C999 C998 1.367 . S
C999 C1001 1.433 . S
C1000 C996 1.350 . S
C1000 C997 1.463 . S
C1000 N1004 1.427 . S
C1001 H991 0.929 . S
C1001 C999 1.433 . S
C1001 N1004 1.384 . S
C1002 H993 0.929 . S
C1002 C994 1.378 . S
C1002 C997 1.350 . S
C1003 H990 0.929 . S
C1003 C995 1.433 . S
C1003 N1005 1.384 . S
N1004 C1000 1.427 . S
N1004 C1001 1.384 . S
N1005 C997 1.427 . S
N1005 C1003 1.384 . S
H1006 C1012 0.930 . S
H1007 C1016 0.930 . S
H1008 C1021 0.929 . S
H1009 C1019 0.929 . S
H1010 C1014 0.929 . S
H1011 C1020 0.929 . S
C1012 H1006 0.930 . S
C1012 C1013 1.367 . S
C1012 C1020 1.378 . S
C1013 C1012 1.367 . S
C1013 C1021 1.433 . S
C1014 H1010 0.929 . S
C1014 C1016 1.378 1_545 S
C1014 C1018 1.350 . S
C1015 C1018 1.463 . S
C1015 C1020 1.350 . S
C1015 N1023 1.427 . S
C1016 H1007 0.930 . S
C1016 C1014 1.378 1_565 S
C1016 C1017 1.367 . S
C1017 C1016 1.367 . S
C1017 C1019 1.433 . S
C1018 C1014 1.350 . S
C1018 C1015 1.463 . S
C1018 N1022 1.427 . S
C1019 H1009 0.929 . S
C1019 C1017 1.433 . S
C1019 N1022 1.384 1_565 S
C1020 H1011 0.929 . S
C1020 C1012 1.378 . S
C1020 C1015 1.350 . S
C1021 H1008 0.929 . S
C1021 C1013 1.433 . S
C1021 N1023 1.384 . S
N1022 C1018 1.427 . S
N1022 C1019 1.384 1_545 S
N1023 C1015 1.427 . S
N1023 C1021 1.384 . S
H1024 C1030 0.930 . S
H1025 C1034 0.930 . S
H1026 C1039 0.929 . S
H1027 C1037 0.929 . S
H1028 C1032 0.929 . S
H1029 C1038 0.929 . S
C1030 H1024 0.930 . S
C1030 C1031 1.367 . S
C1030 C1038 1.378 . S
C1031 C1030 1.367 . S
C1031 C1039 1.433 . S
C1032 H1028 0.929 . S
C1032 C1034 1.378 . S
C1032 C1036 1.350 . S
C1033 C1036 1.463 . S
C1033 C1038 1.350 . S
C1033 N1041 1.427 . S
C1034 H1025 0.930 . S
C1034 C1032 1.378 . S
C1034 C1035 1.367 . S
C1035 C1034 1.367 . S
C1035 C1037 1.433 . S
C1036 C1032 1.350 . S
C1036 C1033 1.463 . S
C1036 N1040 1.427 . S
C1037 H1027 0.929 . S
C1037 C1035 1.433 . S
C1037 N1040 1.384 . S
C1038 H1029 0.929 . S
C1038 C1030 1.378 . S
C1038 C1033 1.350 . S
C1039 H1026 0.929 . S
C1039 C1031 1.433 . S
C1039 N1041 1.384 . S
N1040 C1036 1.427 . S
N1040 C1037 1.384 . S
N1041 C1033 1.427 . S
N1041 C1039 1.384 . S
H1042 C1048 0.930 . S
H1043 C1052 0.930 . S
H1044 C1057 0.929 . S
H1045 C1055 0.929 . S
H1046 C1050 0.929 . S
H1047 C1056 0.929 . S
C1048 H1042 0.930 . S
C1048 C1049 1.367 . S
C1048 C1056 1.378 . S
C1049 C1048 1.367 . S
C1049 C1057 1.433 . S
C1050 H1046 0.929 . S
C1050 C1052 1.378 1_565 S
C1050 C1054 1.350 . S
C1051 C1054 1.463 . S
C1051 C1056 1.350 . S
C1051 N1059 1.427 . S
C1052 H1043 0.930 . S
C1052 C1050 1.378 1_545 S
C1052 C1053 1.367 . S
C1053 C1052 1.367 . S
C1053 C1055 1.433 . S
C1054 C1050 1.350 . S
C1054 C1051 1.463 . S
C1054 N1058 1.427 1_565 S
C1055 H1045 0.929 . S
C1055 C1053 1.433 . S
C1055 N1058 1.384 . S
C1056 H1047 0.929 . S
C1056 C1048 1.378 . S
C1056 C1051 1.350 . S
C1057 H1044 0.929 . S
C1057 C1049 1.433 . S
C1057 N1059 1.384 . S
N1058 C1054 1.427 1_545 S
N1058 C1055 1.384 . S
N1059 C1051 1.427 . S
N1059 C1057 1.384 . S
H1060 C1066 0.930 . S
H1061 C1070 0.930 . S
H1062 C1075 0.929 . S
H1063 C1073 0.929 . S
H1064 C1068 0.929 . S
H1065 C1074 0.929 . S
C1066 H1060 0.930 . S
C1066 C1067 1.367 . S
C1066 C1074 1.378 1_556 S
C1067 C1066 1.367 . S
C1067 C1075 1.433 . S
C1068 H1064 0.929 . S
C1068 C1070 1.378 . S
C1068 C1072 1.350 . S
C1069 C1072 1.463 . S
C1069 C1074 1.350 . S
C1069 N1077 1.427 1_554 S
C1070 H1061 0.930 . S
C1070 C1068 1.378 . S
C1070 C1071 1.367 . S
C1071 C1070 1.367 . S
C1071 C1073 1.433 . S
C1072 C1068 1.350 . S
C1072 C1069 1.463 . S
C1072 N1076 1.427 . S
C1073 H1063 0.929 . S
C1073 C1071 1.433 . S
C1073 N1076 1.384 . S
C1074 H1065 0.929 . S
C1074 C1066 1.378 1_554 S
C1074 C1069 1.350 . S
C1075 H1062 0.929 . S
C1075 C1067 1.433 . S
C1075 N1077 1.384 . S
N1076 C1072 1.427 . S
N1076 C1073 1.384 . S
N1077 C1069 1.427 1_556 S
N1077 C1075 1.384 . S
H1078 C1084 0.930 . S
H1079 C1088 0.930 . S
H1080 C1093 0.929 . S
H1081 C1091 0.929 . S
H1082 C1086 0.929 . S
H1083 C1092 0.929 . S
C1084 H1078 0.930 . S
C1084 C1085 1.367 . S
C1084 C1092 1.378 . S
C1085 C1084 1.367 . S
C1085 C1093 1.433 1_545 S
C1086 H1082 0.929 . S
C1086 C1088 1.378 . S
C1086 C1090 1.350 . S
C1087 C1090 1.463 . S
C1087 C1092 1.350 1_565 S
C1087 N1095 1.427 . S
C1088 H1079 0.930 . S
C1088 C1086 1.378 . S
C1088 C1089 1.367 . S
C1089 C1088 1.367 . S
C1089 C1091 1.433 . S
C1090 C1086 1.350 . S
C1090 C1087 1.463 . S
C1090 N1094 1.427 . S
C1091 H1081 0.929 . S
C1091 C1089 1.433 . S
C1091 N1094 1.384 . S
C1092 H1083 0.929 . S
C1092 C1084 1.378 . S
C1092 C1087 1.350 1_545 S
C1093 H1080 0.929 . S
C1093 C1085 1.433 1_565 S
C1093 N1095 1.384 . S
N1094 C1090 1.427 . S
N1094 C1091 1.384 . S
N1095 C1087 1.427 . S
N1095 C1093 1.384 . S
H1096 C1102 0.930 . S
H1097 C1106 0.930 . S
H1098 C1111 0.929 . S
H1099 C1109 0.929 . S
H1100 C1104 0.929 . S
H1101 C1110 0.929 . S
C1102 H1096 0.930 . S
C1102 C1103 1.367 . S
C1102 C1110 1.378 . S
C1103 C1102 1.367 . S
C1103 C1111 1.433 . S
C1104 H1100 0.929 . S
C1104 C1106 1.378 . S
C1104 C1108 1.350 . S
C1105 C1108 1.463 . S
C1105 C1110 1.350 . S
C1105 N1113 1.427 . S
C1106 H1097 0.930 . S
C1106 C1104 1.378 . S
C1106 C1107 1.367 . S
C1107 C1106 1.367 . S
C1107 C1109 1.433 . S
C1108 C1104 1.350 . S
C1108 C1105 1.463 . S
C1108 N1112 1.427 . S
C1109 H1099 0.929 . S
C1109 C1107 1.433 . S
C1109 N1112 1.384 . S
C1110 H1101 0.929 . S
C1110 C1102 1.378 . S
C1110 C1105 1.350 . S
C1111 H1098 0.929 . S
C1111 C1103 1.433 . S
C1111 N1113 1.384 . S
N1112 C1108 1.427 . S
N1112 C1109 1.384 . S
N1113 C1105 1.427 . S
N1113 C1111 1.384 . S
H1114 C1120 0.930 . S
H1115 C1124 0.930 . S
H1116 C1129 0.935 . S
H1117 C1127 0.929 . S
H1118 C1122 0.929 . S
H1119 C1128 0.929 . S
C1120 H1114 0.930 . S
C1120 C1121 1.367 . S
C1120 C1128 1.378 . S
C1121 C1120 1.367 . S
C1121 C1129 1.433 . S
C1122 H1118 0.929 . S
C1122 C1124 1.378 . S
C1122 C1126 1.350 . S
C1123 C1126 1.463 . S
C1123 C1128 1.350 1_545 S
C1123 N1131 1.427 . S
C1124 H1115 0.930 . S
C1124 C1122 1.378 . S
C1124 C1125 1.367 . S
C1125 C1124 1.367 . S
C1125 C1127 1.433 . S
C1126 C1122 1.350 . S
C1126 C1123 1.463 . S
C1126 N1130 1.427 . S
C1127 H1117 0.929 . S
C1127 C1125 1.433 . S
C1127 N1130 1.384 . S
C1128 H1119 0.929 . S
C1128 C1120 1.378 . S
C1128 C1123 1.350 1_565 S
C1129 H1116 0.935 . S
C1129 C1121 1.433 . S
C1129 N1131 1.384 1_565 S
N1130 C1126 1.427 . S
N1130 C1127 1.384 . S
N1131 C1123 1.427 . S
N1131 C1129 1.384 1_545 S
H1132 C1138 0.930 . S
H1133 C1142 0.930 . S
H1134 C1147 0.929 . S
H1135 C1145 0.929 . S
H1136 C1140 0.929 . S
H1137 C1146 0.929 . S
C1138 H1132 0.930 . S
C1138 C1139 1.367 . S
C1138 C1146 1.378 1_554 S
C1139 C1138 1.367 . S
C1139 C1147 1.433 . S
C1140 H1136 0.929 . S
C1140 C1142 1.378 . S
C1140 C1144 1.350 . S
C1141 C1144 1.463 . S
C1141 C1146 1.350 . S
C1141 N1149 1.414 1_556 S
C1142 H1133 0.930 . S
C1142 C1140 1.378 . S
C1142 C1143 1.367 . S
C1143 C1142 1.367 . S
C1143 C1145 1.433 . S
C1144 C1140 1.350 . S
C1144 C1141 1.463 . S
C1144 N1148 1.427 . S
C1145 H1135 0.929 . S
C1145 C1143 1.433 . S
C1145 N1148 1.384 . S
C1146 H1137 0.929 . S
C1146 C1138 1.378 1_556 S
C1146 C1141 1.350 . S
C1147 H1134 0.929 . S
C1147 C1139 1.433 . S
C1147 N1149 1.406 . S
N1148 C1144 1.427 . S
N1148 C1145 1.384 . S
N1149 C1141 1.414 1_554 S
N1149 C1147 1.406 . S
H1150 C1156 0.930 . S
H1151 C1160 0.930 . S
H1152 C1165 0.929 . S
H1153 C1163 0.929 . S
H1154 C1158 0.929 . S
H1155 C1164 0.929 1_455 S
C1156 H1150 0.930 . S
C1156 C1157 1.367 . S
C1156 C1164 1.378 . S
C1157 C1156 1.367 . S
C1157 C1165 1.433 . S
C1158 H1154 0.929 . S
C1158 C1160 1.378 . S
C1158 C1162 1.350 . S
C1159 C1162 1.463 . S
C1159 C1164 1.350 1_455 S
C1159 N1167 1.427 1_455 S
C1160 H1151 0.930 . S
C1160 C1158 1.378 . S
C1160 C1161 1.367 . S
C1161 C1160 1.367 . S
C1161 C1163 1.433 . S
C1162 C1158 1.350 . S
C1162 C1159 1.463 . S
C1162 N1166 1.427 . S
C1163 H1153 0.929 . S
C1163 C1161 1.433 . S
C1163 N1166 1.384 . S
C1164 H1155 0.929 1_655 S
C1164 C1156 1.378 . S
C1164 C1159 1.350 1_655 S
C1165 H1152 0.929 . S
C1165 C1157 1.433 . S
C1165 N1167 1.384 . S
N1166 C1162 1.427 . S
N1166 C1163 1.384 . S
N1167 C1159 1.427 1_655 S
N1167 C1165 1.384 . S
H1168 C1174 0.930 . S
H1169 C1178 0.930 . S
H1170 C1183 0.929 . S
H1171 C1181 0.929 . S
H1172 C1176 0.929 . S
H1173 C1182 0.929 . S
C1174 H1168 0.930 . S
C1174 C1175 1.367 . S
C1174 C1182 1.378 . S
C1175 C1174 1.367 . S
C1175 C1183 1.433 . S
C1176 H1172 0.929 . S
C1176 C1178 1.378 . S
C1176 C1180 1.350 . S
C1177 C1180 1.463 . S
C1177 C1182 1.350 . S
C1177 N1185 1.427 . S
C1178 H1169 0.930 . S
C1178 C1176 1.378 . S
C1178 C1179 1.367 . S
C1179 C1178 1.367 . S
C1179 C1181 1.433 . S
C1180 C1176 1.350 . S
C1180 C1177 1.463 . S
C1180 N1184 1.427 . S
C1181 H1171 0.929 . S
C1181 C1179 1.433 . S
C1181 N1184 1.384 . S
C1182 H1173 0.929 . S
C1182 C1174 1.378 . S
C1182 C1177 1.350 . S
C1183 H1170 0.929 . S
C1183 C1175 1.433 . S
C1183 N1185 1.384 . S
N1184 C1180 1.427 . S
N1184 C1181 1.384 . S
N1185 C1177 1.427 . S
N1185 C1183 1.384 . S
H1186 C1192 0.930 . S
H1187 C1196 0.930 . S
H1188 C1201 0.929 . S
H1189 C1199 0.929 . S
H1190 C1194 0.929 . S
H1191 C1200 0.929 . S
C1192 H1186 0.930 . S
C1192 C1193 1.367 . S
C1192 C1200 1.378 . S
C1193 C1192 1.367 . S
C1193 C1201 1.433 . S
C1194 H1190 0.929 . S
C1194 C1196 1.378 . S
C1194 C1198 1.350 . S
C1195 C1198 1.463 . S
C1195 C1200 1.350 1_655 S
C1195 N1203 1.427 . S
C1196 H1187 0.930 . S
C1196 C1194 1.378 . S
C1196 C1197 1.367 . S
C1197 C1196 1.367 . S
C1197 C1199 1.433 . S
C1198 C1194 1.350 . S
C1198 C1195 1.463 . S
C1198 N1202 1.427 . S
C1199 H1189 0.929 . S
C1199 C1197 1.433 . S
C1199 N1202 1.384 . S
C1200 H1191 0.929 . S
C1200 C1192 1.378 . S
C1200 C1195 1.350 1_455 S
C1201 H1188 0.929 . S
C1201 C1193 1.433 . S
C1201 N1203 1.384 1_455 S
N1202 C1198 1.427 . S
N1202 C1199 1.384 . S
N1203 C1195 1.427 . S
N1203 C1201 1.384 1_655 S
H1204 C1210 0.930 . S
H1205 C1214 0.930 . S
H1206 C1219 0.929 . S
H1207 C1217 0.929 . S
H1208 C1212 0.929 . S
H1209 C1218 0.929 . S
C1210 H1204 0.930 . S
C1210 C1211 1.367 . S
C1210 C1218 1.378 1_455 S
C1211 C1210 1.367 . S
C1211 C1219 1.433 . S
C1212 H1208 0.929 . S
C1212 C1214 1.378 . S
C1212 C1216 1.350 . S
C1213 C1216 1.463 . S
C1213 C1218 1.350 . S
C1213 N1221 1.427 1_655 S
C1214 H1205 0.930 . S
C1214 C1212 1.378 . S
C1214 C1215 1.367 . S
C1215 C1214 1.367 . S
C1215 C1217 1.433 . S
C1216 C1212 1.350 . S
C1216 C1213 1.463 . S
C1216 N1220 1.427 . S
C1217 H1207 0.929 . S
C1217 C1215 1.433 . S
C1217 N1220 1.384 . S
C1218 H1209 0.929 . S
C1218 C1210 1.378 1_655 S
C1218 C1213 1.350 . S
C1219 H1206 0.929 . S
C1219 C1211 1.433 . S
C1219 N1221 1.384 . S
N1220 C1216 1.427 . S
N1220 C1217 1.384 . S
N1221 C1213 1.427 1_455 S
N1221 C1219 1.384 . S
H1222 C1228 0.930 . S
H1223 C1232 0.930 . S
H1224 C1237 0.929 . S
H1225 C1235 0.929 . S
H1226 C1230 0.929 . S
H1227 C1236 0.929 . S
C1228 H1222 0.930 . S
C1228 C1229 1.367 . S
C1228 C1236 1.378 . S
C1229 C1228 1.367 . S
C1229 C1237 1.433 . S
C1230 H1226 0.929 . S
C1230 C1232 1.378 . S
C1230 C1234 1.350 . S
C1231 C1234 1.463 . S
C1231 C1236 1.350 . S
C1231 N1239 1.427 . S
C1232 H1223 0.930 . S
C1232 C1230 1.378 . S
C1232 C1233 1.367 . S
C1233 C1232 1.367 . S
C1233 C1235 1.433 . S
C1234 C1230 1.350 . S
C1234 C1231 1.463 . S
C1234 N1238 1.427 . S
C1235 H1225 0.929 . S
C1235 C1233 1.433 . S
C1235 N1238 1.384 . S
C1236 H1227 0.929 . S
C1236 C1228 1.378 . S
C1236 C1231 1.350 . S
C1237 H1224 0.929 . S
C1237 C1229 1.433 . S
C1237 N1239 1.384 . S
N1238 C1234 1.427 . S
N1238 C1235 1.384 . S
N1239 C1231 1.427 . S
N1239 C1237 1.384 . S
H1240 C1246 0.930 . S
H1241 C1250 0.930 . S
H1242 C1255 0.929 . S
H1243 C1253 0.929 . S
H1244 C1248 0.929 . S
H1245 C1254 0.929 . S
C1246 H1240 0.930 . S
C1246 C1247 1.367 . S
C1246 C1254 1.378 1_655 S
C1247 C1246 1.367 . S
C1247 C1255 1.433 . S
C1248 H1244 0.929 . S
C1248 C1250 1.378 . S
C1248 C1252 1.350 . S
C1249 C1252 1.463 . S
C1249 C1254 1.350 . S
C1249 N1257 1.427 1_455 S
C1250 H1241 0.930 . S
C1250 C1248 1.378 . S
C1250 C1251 1.367 . S
C1251 C1250 1.367 . S
C1251 C1253 1.433 . S
C1252 C1248 1.350 . S
C1252 C1249 1.463 . S
C1252 N1256 1.427 . S
C1253 H1243 0.929 . S
C1253 C1251 1.433 . S
C1253 N1256 1.384 . S
C1254 H1245 0.929 . S
C1254 C1246 1.378 1_455 S
C1254 C1249 1.350 . S
C1255 H1242 0.929 . S
C1255 C1247 1.433 . S
C1255 N1257 1.384 . S
N1256 C1252 1.427 . S
N1256 C1253 1.384 . S
N1257 C1249 1.427 1_655 S
N1257 C1255 1.384 . S
H1258 C1264 0.930 . S
H1259 C1268 0.930 . S
H1260 C1273 0.929 . S
H1261 C1271 0.929 . S
H1262 C1266 0.929 . S
H1263 C1272 0.929 . S
C1264 H1258 0.930 . S
C1264 C1265 1.367 . S
C1264 C1272 1.378 . S
C1265 C1264 1.367 . S
C1265 C1273 1.433 . S
C1266 H1262 0.929 . S
C1266 C1268 1.378 . S
C1266 C1270 1.350 . S
C1267 C1270 1.463 . S
C1267 C1272 1.350 . S
C1267 N1275 1.427 . S
C1268 H1259 0.930 . S
C1268 C1266 1.378 . S
C1268 C1269 1.367 . S
C1269 C1268 1.367 . S
C1269 C1271 1.433 . S
C1270 C1266 1.350 . S
C1270 C1267 1.463 . S
C1270 N1274 1.427 . S
C1271 H1261 0.929 . S
C1271 C1269 1.433 . S
C1271 N1274 1.384 . S
C1272 H1263 0.929 . S
C1272 C1264 1.378 . S
C1272 C1267 1.350 . S
C1273 H1260 0.929 . S
C1273 C1265 1.433 . S
C1273 N1275 1.384 . S
N1274 C1270 1.427 . S
N1274 C1271 1.384 . S
N1275 C1267 1.427 . S
N1275 C1273 1.384 . S
H1276 C1282 0.930 . S
H1277 C1286 0.930 . S
H1278 C1291 0.929 . S
H1279 C1289 0.929 . S
H1280 C1284 0.929 . S
H1281 C1290 0.929 . S
C1282 H1276 0.930 . S
C1282 C1283 1.367 . S
C1282 C1290 1.378 . S
C1283 C1282 1.367 . S
C1283 C1291 1.433 . S
C1284 H1280 0.929 . S
C1284 C1286 1.378 . S
C1284 C1288 1.350 . S
C1285 C1288 1.463 . S
C1285 C1290 1.350 . S
C1285 N1293 1.427 . S
C1286 H1277 0.930 . S
C1286 C1284 1.378 . S
C1286 C1287 1.367 . S
C1287 C1286 1.367 . S
C1287 C1289 1.433 . S
C1288 C1284 1.350 . S
C1288 C1285 1.463 . S
C1288 N1292 1.427 . S
C1289 H1279 0.929 . S
C1289 C1287 1.433 . S
C1289 N1292 1.384 . S
C1290 H1281 0.929 . S
C1290 C1282 1.378 . S
C1290 C1285 1.350 . S
C1291 H1278 0.929 . S
C1291 C1283 1.433 . S
C1291 N1293 1.384 . S
N1292 C1288 1.427 . S
N1292 C1289 1.384 . S
N1293 C1285 1.427 . S
N1293 C1291 1.384 . S
H1294 C1300 0.930 1_556 S
H1295 C1304 0.930 . S
H1296 C1309 0.929 . S
H1297 C1307 0.929 . S
H1298 C1302 0.929 . S
H1299 C1308 0.929 . S
C1300 H1294 0.930 1_554 S
C1300 C1301 1.367 . S
C1300 C1308 1.378 1_554 S
C1301 C1300 1.367 . S
C1301 C1309 1.433 . S
C1302 H1298 0.929 . S
C1302 C1304 1.378 . S
C1302 C1306 1.350 . S
C1303 C1306 1.463 . S
C1303 C1308 1.350 . S
C1303 N1311 1.427 1_556 S
C1304 H1295 0.930 . S
C1304 C1302 1.378 . S
C1304 C1305 1.367 . S
C1305 C1304 1.367 . S
C1305 C1307 1.433 . S
C1306 C1302 1.350 . S
C1306 C1303 1.463 . S
C1306 N1310 1.427 . S
C1307 H1297 0.929 . S
C1307 C1305 1.433 . S
C1307 N1310 1.384 . S
C1308 H1299 0.929 . S
C1308 C1300 1.378 1_556 S
C1308 C1303 1.350 . S
C1309 H1296 0.929 . S
C1309 C1301 1.433 . S
C1309 N1311 1.384 . S
N1310 C1306 1.427 . S
N1310 C1307 1.384 . S
N1311 C1303 1.427 1_554 S
N1311 C1309 1.384 . S
H1312 C1318 0.930 . S
H1313 C1322 0.930 . S
H1314 C1327 0.929 . S
H1315 C1325 0.929 . S
H1316 C1320 0.929 . S
H1317 C1326 0.929 . S
C1318 H1312 0.930 . S
C1318 C1319 1.367 . S
C1318 C1326 1.378 . S
C1319 C1318 1.367 . S
C1319 C1327 1.433 . S
C1320 H1316 0.929 . S
C1320 C1322 1.378 . S
C1320 C1324 1.350 . S
C1321 C1324 1.463 . S
C1321 C1326 1.350 . S
C1321 N1329 1.427 . S
C1322 H1313 0.930 . S
C1322 C1320 1.378 . S
C1322 C1323 1.367 . S
C1323 C1322 1.367 . S
C1323 C1325 1.433 . S
C1324 C1320 1.350 . S
C1324 C1321 1.463 . S
C1324 N1328 1.427 . S
C1325 H1315 0.929 . S
C1325 C1323 1.433 . S
C1325 N1328 1.384 . S
C1326 H1317 0.929 . S
C1326 C1318 1.378 . S
C1326 C1321 1.350 . S
C1327 H1314 0.929 . S
C1327 C1319 1.433 . S
C1327 N1329 1.384 . S
N1328 C1324 1.427 . S
N1328 C1325 1.384 . S
N1329 C1321 1.427 . S
N1329 C1327 1.384 . S
H1330 C1336 0.930 . S
H1331 C1340 0.930 . S
H1332 C1345 0.929 . S
H1333 C1343 0.929 . S
H1334 C1338 0.929 . S
H1335 C1344 0.929 . S
C1336 H1330 0.930 . S
C1336 C1337 1.367 . S
C1336 C1344 1.378 . S
C1337 C1336 1.367 . S
C1337 C1345 1.433 . S
C1338 H1334 0.929 . S
C1338 C1340 1.378 . S
C1338 C1342 1.350 . S
C1339 C1342 1.463 . S
C1339 C1344 1.350 . S
C1339 N1347 1.427 . S
C1340 H1331 0.930 . S
C1340 C1338 1.378 . S
C1340 C1341 1.367 . S
C1341 C1340 1.367 . S
C1341 C1343 1.433 . S
C1342 C1338 1.350 . S
C1342 C1339 1.463 . S
C1342 N1346 1.427 . S
C1343 H1333 0.929 . S
C1343 C1341 1.433 . S
C1343 N1346 1.384 . S
C1344 H1335 0.929 . S
C1344 C1336 1.378 . S
C1344 C1339 1.350 . S
C1345 H1332 0.929 . S
C1345 C1337 1.433 . S
C1345 N1347 1.384 . S
N1346 C1342 1.427 . S
N1346 C1343 1.384 . S
N1347 C1339 1.427 . S
N1347 C1345 1.384 . S
H1348 C1354 0.930 . S
H1349 C1358 0.930 . S
H1350 C1363 0.929 . S
H1351 C1361 0.929 . S
H1352 C1356 0.929 . S
H1353 C1362 0.929 . S
C1354 H1348 0.930 . S
C1354 C1355 1.367 . S
C1354 C1362 1.378 . S
C1355 C1354 1.367 . S
C1355 C1363 1.433 . S
C1356 H1352 0.929 . S
C1356 C1358 1.378 . S
C1356 C1360 1.350 . S
C1357 C1360 1.463 . S
C1357 C1362 1.350 . S
C1357 N1365 1.427 . S
C1358 H1349 0.930 . S
C1358 C1356 1.378 . S
C1358 C1359 1.367 . S
C1359 C1358 1.367 . S
C1359 C1361 1.433 . S
C1360 C1356 1.350 . S
C1360 C1357 1.463 . S
C1360 N1364 1.427 . S
C1361 H1351 0.929 . S
C1361 C1359 1.433 . S
C1361 N1364 1.384 . S
C1362 H1353 0.929 . S
C1362 C1354 1.378 . S
C1362 C1357 1.350 . S
C1363 H1350 0.929 . S
C1363 C1355 1.433 . S
C1363 N1365 1.384 . S
N1364 C1360 1.427 . S
N1364 C1361 1.384 . S
N1365 C1357 1.427 . S
N1365 C1363 1.384 . S
H1366 C1372 0.930 . S
H1367 C1376 0.930 . S
H1368 C1381 0.929 . S
H1369 C1379 0.929 . S
H1370 C1374 0.929 1_554 S
H1371 C1380 0.929 . S
C1372 H1366 0.930 . S
C1372 C1373 1.367 . S
C1372 C1380 1.378 . S
C1373 C1372 1.367 . S
C1373 C1381 1.433 . S
C1374 H1370 0.929 1_556 S
C1374 C1376 1.378 . S
C1374 C1378 1.350 1_556 S
C1375 C1378 1.463 . S
C1375 C1380 1.350 . S
C1375 N1383 1.427 . S
C1376 H1367 0.930 . S
C1376 C1374 1.378 . S
C1376 C1377 1.367 . S
C1377 C1376 1.367 . S
C1377 C1379 1.433 . S
C1378 C1374 1.350 1_554 S
C1378 C1375 1.463 . S
C1378 N1382 1.427 1_554 S
C1379 H1369 0.929 . S
C1379 C1377 1.433 . S
C1379 N1382 1.384 . S
C1380 H1371 0.929 . S
C1380 C1372 1.378 . S
C1380 C1375 1.350 . S
C1381 H1368 0.929 . S
C1381 C1373 1.433 . S
C1381 N1383 1.384 . S
N1382 C1378 1.427 1_556 S
N1382 C1379 1.384 . S
N1383 C1375 1.427 . S
N1383 C1381 1.384 . S
H1384 C1390 0.930 . S
H1385 C1394 0.930 . S
H1386 C1399 0.929 . S
H1387 C1397 0.929 . S
H1388 C1392 0.929 . S
H1389 C1398 0.929 . S
C1390 H1384 0.930 . S
C1390 C1391 1.367 . S
C1390 C1398 1.378 . S
C1391 C1390 1.367 . S
C1391 C1399 1.433 . S
C1392 H1388 0.929 . S
C1392 C1394 1.378 . S
C1392 C1396 1.350 . S
C1393 C1396 1.463 . S
C1393 C1398 1.350 . S
C1393 N1401 1.427 . S
C1394 H1385 0.930 . S
C1394 C1392 1.378 . S
C1394 C1395 1.367 . S
C1395 C1394 1.367 . S
C1395 C1397 1.433 . S
C1396 C1392 1.350 . S
C1396 C1393 1.463 . S
C1396 N1400 1.427 . S
C1397 H1387 0.929 . S
C1397 C1395 1.433 . S
C1397 N1400 1.384 . S
C1398 H1389 0.929 . S
C1398 C1390 1.378 . S
C1398 C1393 1.350 . S
C1399 H1386 0.929 . S
C1399 C1391 1.433 . S
C1399 N1401 1.384 . S
N1400 C1396 1.427 . S
N1400 C1397 1.384 . S
N1401 C1393 1.427 . S
N1401 C1399 1.384 . S
H1402 C1408 0.930 . S
H1403 C1412 0.930 . S
H1404 C1417 0.929 . S
H1405 C1415 0.929 . S
H1406 C1410 0.929 . S
H1407 C1416 0.929 . S
C1408 H1402 0.930 . S
C1408 C1409 1.367 . S
C1408 C1416 1.378 . S
C1409 C1408 1.367 . S
C1409 C1417 1.433 . S
C1410 H1406 0.929 . S
C1410 C1412 1.378 . S
C1410 C1414 1.350 . S
C1411 C1414 1.463 . S
C1411 C1416 1.350 . S
C1411 N1419 1.427 . S
C1412 H1403 0.930 . S
C1412 C1410 1.378 . S
C1412 C1413 1.367 . S
C1413 C1412 1.367 . S
C1413 C1415 1.433 . S
C1414 C1410 1.350 . S
C1414 C1411 1.463 . S
C1414 N1418 1.427 . S
C1415 H1405 0.929 . S
C1415 C1413 1.433 . S
C1415 N1418 1.384 . S
C1416 H1407 0.929 . S
C1416 C1408 1.378 . S
C1416 C1411 1.350 . S
C1417 H1404 0.929 . S
C1417 C1409 1.433 . S
C1417 N1419 1.384 . S
N1418 C1414 1.427 . S
N1418 C1415 1.384 . S
N1419 C1411 1.427 . S
N1419 C1417 1.384 . S
H1420 C1426 0.930 . S
H1421 C1430 0.930 . S
H1422 C1435 0.929 . S
H1423 C1433 0.929 . S
H1424 C1428 0.929 . S
H1425 C1434 0.929 . S
C1426 H1420 0.930 . S
C1426 C1427 1.367 . S
C1426 C1434 1.378 . S
C1427 C1426 1.367 . S
C1427 C1435 1.433 . S
C1428 H1424 0.929 . S
C1428 C1430 1.378 . S
C1428 C1432 1.350 . S
C1429 C1432 1.463 . S
C1429 C1434 1.350 . S
C1429 N1437 1.427 . S
C1430 H1421 0.930 . S
C1430 C1428 1.378 . S
C1430 C1431 1.367 . S
C1431 C1430 1.367 . S
C1431 C1433 1.433 . S
C1432 C1428 1.350 . S
C1432 C1429 1.463 . S
C1432 N1436 1.427 . S
C1433 H1423 0.929 . S
C1433 C1431 1.433 . S
C1433 N1436 1.384 . S
C1434 H1425 0.929 . S
C1434 C1426 1.378 . S
C1434 C1429 1.350 . S
C1435 H1422 0.929 . S
C1435 C1427 1.433 . S
C1435 N1437 1.384 . S
N1436 C1432 1.427 . S
N1436 C1433 1.384 . S
N1437 C1429 1.427 . S
N1437 C1435 1.384 . S
H1438 C1444 0.930 . S
H1439 C1448 0.930 . S
H1440 C1453 0.929 . S
H1441 C1451 0.929 . S
H1442 C1446 0.929 . S
H1443 C1452 0.929 . S
C1444 H1438 0.930 . S
C1444 C1445 1.367 . S
C1444 C1452 1.378 . S
C1445 C1444 1.367 . S
C1445 C1453 1.433 . S
C1446 H1442 0.929 . S
C1446 C1448 1.378 . S
C1446 C1450 1.350 . S
C1447 C1450 1.463 . S
C1447 C1452 1.350 . S
C1447 N1455 1.427 . S
C1448 H1439 0.930 . S
C1448 C1446 1.378 . S
C1448 C1449 1.367 . S
C1449 C1448 1.367 . S
C1449 C1451 1.433 . S
C1450 C1446 1.350 . S
C1450 C1447 1.463 . S
C1450 N1454 1.427 . S
C1451 H1441 0.929 . S
C1451 C1449 1.433 . S
C1451 N1454 1.384 . S
C1452 H1443 0.929 . S
C1452 C1444 1.378 . S
C1452 C1447 1.350 . S
C1453 H1440 0.929 . S
C1453 C1445 1.433 . S
C1453 N1455 1.384 . S
N1454 C1450 1.427 . S
N1454 C1451 1.384 . S
N1455 C1447 1.427 . S
N1455 C1453 1.384 . S
H1456 C1462 0.930 . S
H1457 C1466 0.930 . S
H1458 C1471 0.929 . S
H1459 C1469 0.929 . S
H1460 C1464 0.929 . S
H1461 C1470 0.929 . S
C1462 H1456 0.930 . S
C1462 C1463 1.367 . S
C1462 C1470 1.378 . S
C1463 C1462 1.367 . S
C1463 C1471 1.433 . S
C1464 H1460 0.929 . S
C1464 C1466 1.378 1_554 S
C1464 C1468 1.350 . S
C1465 C1468 1.463 . S
C1465 C1470 1.350 . S
C1465 N1473 1.427 . S
C1466 H1457 0.930 . S
C1466 C1464 1.378 1_556 S
C1466 C1467 1.367 . S
C1467 C1466 1.367 . S
C1467 C1469 1.433 . S
C1468 C1464 1.350 . S
C1468 C1465 1.463 . S
C1468 N1472 1.427 1_554 S
C1469 H1459 0.929 . S
C1469 C1467 1.433 . S
C1469 N1472 1.384 . S
C1470 H1461 0.929 . S
C1470 C1462 1.378 . S
C1470 C1465 1.350 . S
C1471 H1458 0.929 . S
C1471 C1463 1.433 . S
C1471 N1473 1.384 . S
N1472 C1468 1.427 1_556 S
N1472 C1469 1.384 . S
N1473 C1465 1.427 . S
N1473 C1471 1.384 . S
H1474 C1480 0.930 . S
H1475 C1484 0.930 . S
H1476 C1489 0.929 . S
H1477 C1487 0.929 . S
H1478 C1482 0.929 . S
H1479 C1488 0.929 . S
C1480 H1474 0.930 . S
C1480 C1481 1.367 . S
C1480 C1488 1.378 . S
C1481 C1480 1.367 . S
C1481 C1489 1.433 . S
C1482 H1478 0.929 . S
C1482 C1484 1.378 . S
C1482 C1486 1.350 . S
C1483 C1486 1.463 . S
C1483 C1488 1.350 . S
C1483 N1491 1.427 . S
C1484 H1475 0.930 . S
C1484 C1482 1.378 . S
C1484 C1485 1.367 . S
C1485 C1484 1.367 . S
C1485 C1487 1.433 . S
C1486 C1482 1.350 . S
C1486 C1483 1.463 . S
C1486 N1490 1.427 . S
C1487 H1477 0.929 . S
C1487 C1485 1.433 . S
C1487 N1490 1.384 . S
C1488 H1479 0.929 . S
C1488 C1480 1.378 . S
C1488 C1483 1.350 . S
C1489 H1476 0.929 . S
C1489 C1481 1.433 . S
C1489 N1491 1.384 . S
N1490 C1486 1.427 . S
N1490 C1487 1.384 . S
N1491 C1483 1.427 . S
N1491 C1489 1.384 . S
H1492 C1498 0.930 . S
H1493 C1502 0.930 . S
H1494 C1507 0.929 . S
H1495 C1505 0.929 . S
H1496 C1500 0.929 . S
H1497 C1506 0.929 . S
C1498 H1492 0.930 . S
C1498 C1499 1.367 . S
C1498 C1506 1.378 . S
C1499 C1498 1.367 . S
C1499 C1507 1.433 . S
C1500 H1496 0.929 . S
C1500 C1502 1.378 . S
C1500 C1504 1.350 . S
C1501 C1504 1.463 . S
C1501 C1506 1.350 . S
C1501 N1509 1.427 . S
C1502 H1493 0.930 . S
C1502 C1500 1.378 . S
C1502 C1503 1.367 . S
C1503 C1502 1.367 . S
C1503 C1505 1.433 . S
C1504 C1500 1.350 . S
C1504 C1501 1.463 . S
C1504 N1508 1.427 . S
C1505 H1495 0.929 . S
C1505 C1503 1.433 . S
C1505 N1508 1.384 . S
C1506 H1497 0.929 . S
C1506 C1498 1.378 . S
C1506 C1501 1.350 . S
C1507 H1494 0.929 . S
C1507 C1499 1.433 . S
C1507 N1509 1.384 . S
N1508 C1504 1.427 . S
N1508 C1505 1.384 . S
N1509 C1501 1.427 . S
N1509 C1507 1.384 . S
H1510 C1516 0.930 . S
H1511 C1520 0.930 . S
H1512 C1525 0.929 . S
H1513 C1523 0.929 . S
H1514 C1518 0.929 . S
H1515 C1524 0.929 . S
C1516 H1510 0.930 . S
C1516 C1517 1.367 . S
C1516 C1524 1.378 . S
C1517 C1516 1.367 . S
C1517 C1525 1.433 . S
C1518 H1514 0.929 . S
C1518 C1520 1.378 . S
C1518 C1522 1.350 . S
C1519 C1522 1.463 . S
C1519 C1524 1.350 . S
C1519 N1527 1.427 . S
C1520 H1511 0.930 . S
C1520 C1518 1.378 . S
C1520 C1521 1.367 . S
C1521 C1520 1.367 . S
C1521 C1523 1.433 . S
C1522 C1518 1.350 . S
C1522 C1519 1.463 . S
C1522 N1526 1.427 . S
C1523 H1513 0.929 . S
C1523 C1521 1.433 . S
C1523 N1526 1.384 . S
C1524 H1515 0.929 . S
C1524 C1516 1.378 . S
C1524 C1519 1.350 . S
C1525 H1512 0.929 . S
C1525 C1517 1.433 . S
C1525 N1527 1.384 . S
N1526 C1522 1.427 . S
N1526 C1523 1.384 . S
N1527 C1519 1.427 . S
N1527 C1525 1.384 . S
H1528 C1534 0.930 . S
H1529 C1538 0.930 . S
H1530 C1543 0.929 . S
H1531 C1541 0.929 . S
H1532 C1536 0.929 . S
H1533 C1542 0.929 1_556 S
C1534 H1528 0.930 . S
C1534 C1535 1.367 . S
C1534 C1542 1.378 . S
C1535 C1534 1.367 . S
C1535 C1543 1.433 . S
C1536 H1532 0.929 . S
C1536 C1538 1.378 . S
C1536 C1540 1.350 . S
C1537 C1540 1.463 . S
C1537 C1542 1.350 1_556 S
C1537 N1545 1.427 1_556 S
C1538 H1529 0.930 . S
C1538 C1536 1.378 . S
C1538 C1539 1.367 . S
C1539 C1538 1.367 . S
C1539 C1541 1.433 . S
C1540 C1536 1.350 . S
C1540 C1537 1.463 . S
C1540 N1544 1.427 . S
C1541 H1531 0.929 . S
C1541 C1539 1.433 . S
C1541 N1544 1.384 . S
C1542 H1533 0.929 1_554 S
C1542 C1534 1.378 . S
C1542 C1537 1.350 1_554 S
C1543 H1530 0.929 . S
C1543 C1535 1.433 . S
C1543 N1545 1.384 . S
N1544 C1540 1.427 . S
N1544 C1541 1.384 . S
N1545 C1537 1.427 1_554 S
N1545 C1543 1.384 . S
H1546 C1552 0.930 . S
H1547 C1556 0.930 . S
H1548 C1561 0.929 . S
H1549 C1559 0.929 . S
H1550 C1554 0.929 . S
H1551 C1560 0.929 . S
C1552 H1546 0.930 . S
C1552 C1553 1.367 . S
C1552 C1560 1.378 . S
C1553 C1552 1.367 . S
C1553 C1561 1.433 . S
C1554 H1550 0.929 . S
C1554 C1556 1.378 . S
C1554 C1558 1.350 . S
C1555 C1558 1.463 . S
C1555 C1560 1.350 . S
C1555 N1563 1.427 . S
C1556 H1547 0.930 . S
C1556 C1554 1.378 . S
C1556 C1557 1.367 . S
C1557 C1556 1.367 . S
C1557 C1559 1.433 . S
C1558 C1554 1.350 . S
C1558 C1555 1.463 . S
C1558 N1562 1.427 . S
C1559 H1549 0.929 . S
C1559 C1557 1.433 . S
C1559 N1562 1.384 . S
C1560 H1551 0.929 . S
C1560 C1552 1.378 . S
C1560 C1555 1.350 . S
C1561 H1548 0.929 . S
C1561 C1553 1.433 . S
C1561 N1563 1.384 . S
N1562 C1558 1.427 . S
N1562 C1559 1.384 . S
N1563 C1555 1.427 . S
N1563 C1561 1.384 . S
H1564 C1570 0.930 . S
H1565 C1574 0.930 . S
H1566 C1579 0.929 . S
H1567 C1577 0.929 . S
H1568 C1572 0.929 . S
H1569 C1578 0.929 . S
C1570 H1564 0.930 . S
C1570 C1571 1.367 . S
C1570 C1578 1.378 . S
C1571 C1570 1.367 . S
C1571 C1579 1.433 . S
C1572 H1568 0.929 . S
C1572 C1574 1.378 . S
C1572 C1576 1.350 . S
C1573 C1576 1.463 . S
C1573 C1578 1.350 . S
C1573 N1581 1.427 . S
C1574 H1565 0.930 . S
C1574 C1572 1.378 . S
C1574 C1575 1.367 . S
C1575 C1574 1.367 . S
C1575 C1577 1.433 . S
C1576 C1572 1.350 . S
C1576 C1573 1.463 . S
C1576 N1580 1.427 . S
C1577 H1567 0.929 . S
C1577 C1575 1.433 . S
C1577 N1580 1.384 . S
C1578 H1569 0.929 . S
C1578 C1570 1.378 . S
C1578 C1573 1.350 . S
C1579 H1566 0.929 . S
C1579 C1571 1.433 . S
C1579 N1581 1.384 . S
N1580 C1576 1.427 . S
N1580 C1577 1.384 . S
N1581 C1573 1.427 . S
N1581 C1579 1.384 . S
H1582 C1588 0.930 . S
H1583 C1592 0.930 . S
H1584 C1597 0.929 . S
H1585 C1595 0.929 . S
H1586 C1590 0.929 . S
H1587 C1596 0.929 . S
C1588 H1582 0.930 . S
C1588 C1589 1.367 . S
C1588 C1596 1.378 . S
C1589 C1588 1.367 . S
C1589 C1597 1.433 . S
C1590 H1586 0.929 . S
C1590 C1592 1.378 . S
C1590 C1594 1.350 . S
C1591 C1594 1.463 . S
C1591 C1596 1.350 . S
C1591 N1599 1.427 . S
C1592 H1583 0.930 . S
C1592 C1590 1.378 . S
C1592 C1593 1.367 . S
C1593 C1592 1.367 . S
C1593 C1595 1.433 . S
C1594 C1590 1.350 . S
C1594 C1591 1.463 . S
C1594 N1598 1.427 . S
C1595 H1585 0.929 . S
C1595 C1593 1.433 . S
C1595 N1598 1.384 . S
C1596 H1587 0.929 . S
C1596 C1588 1.378 . S
C1596 C1591 1.350 . S
C1597 H1584 0.929 . S
C1597 C1589 1.433 . S
C1597 N1599 1.384 . S
N1598 C1594 1.427 . S
N1598 C1595 1.384 . S
N1599 C1591 1.427 . S
N1599 C1597 1.384 . S
C455 C8 1.051 . S
C459 C190 1.049 . S
C473 C358 1.214 . S
C477 C22 1.231 . S
C491 C36 1.201 . S
C495 C218 1.200 . S
C509 C50 1.328 . S
C513 C344 1.328 . S
C527 C64 1.351 . S
C531 C246 1.345 . S
C545 C78 1.318 . S
C549 C316 1.302 . S
C563 C92 1.303 . S
C567 C274 1.306 . S
C581 C442 1.047 . S
C585 C106 1.041 . S
C599 C302 1.350 . S
C603 C120 1.358 . S
C617 C134 1.313 . S
C621 C260 1.314 . S
C635 C330 1.304 . S
C639 C148 1.305 . S
C653 C162 1.335 . S
C657 C232 1.332 . S
C671 C204 1.214 . S
C675 C176 1.223 . S
C689 C288 1.039 . S
C693 C400 1.032 . S
C707 C414 1.040 . S
C711 C372 1.041 . S
C725 C428 1.200 . S
C729 C386 1.201 . S
C743 C13 1.519 . S
C747 C27 1.516 . S
C761 C39 1.614 . S
C765 C21 1.614 . S
C779 C55 1.520 . S
C783 C41 1.521 . S
C797 C49 1.590 . S
C801 C11 1.573 . S
C815 C105 1.706 . S
C819 C69 1.544 . S
C833 C81 1.217 . S
C837 C67 1.212 . S
C851 C91 1.474 . S
C855 C77 1.467 . S
C869 C97 1.239 . S
C873 C109 1.361 . S
C887 C139 1.286 . S
C891 C7 1.403 . S
C905 C119 1.586 . S
C909 C53 1.579 . S
C923 C151 1.334 . S
C927 C25 1.338 . S
C941 C385 1.596 . S
C945 C111 1.447 . S
C959 C405 1.442 . S
C963 C35 1.600 . S
C977 C165 1.577 . S
C981 C63 1.586 . S
C995 C95 1.340 . S
C999 C179 1.335 . S
C1013 C203 1.439 . S
C1017 C195 1.365 . S
C1031 C217 1.524 . S
C1035 C209 1.422 . S
C1049 C237 1.408 . S
C1053 C223 1.382 . S
C1067 C189 1.536 . S
C1071 C235 1.536 . S
C1085 C245 1.521 . S
C1089 C293 1.406 . S
C1103 C249 1.426 . S
C1107 C263 1.424 . S
C1121 C279 1.505 . S
C1125 C265 1.484 . S
C1139 C273 1.491 . S
C1143 C291 1.494 . S
C1157 C193 1.625 . S
C1161 C315 1.624 . S
C1175 C307 1.436 . S
C1179 C231 1.544 . S
C1193 C333 1.330 . S
C1197 C207 1.330 . S
C1211 C431 1.598 . S
C1215 C287 1.597 . S
C1229 C441 1.597 . S
C1233 C221 1.600 . S
C1247 C251 1.431 . S
C1251 C343 1.542 . S
C1265 C361 1.331 . S
C1269 C277 1.329 . S
C1283 C181 1.514 . S
C1287 C377 1.521 . S
C1301 C389 1.609 . S
C1305 C175 1.619 . S
C1319 C167 1.531 . S
C1323 C391 1.527 . S
C1337 C161 1.586 . S
C1341 C375 1.579 . S
C1355 C125 1.544 . S
C1359 C399 1.700 . S
C1373 C137 1.221 . S
C1377 C123 1.212 . S
C1391 C147 1.468 . S
C1395 C133 1.472 . S
C1409 C153 1.219 . S
C1413 C403 1.364 . S
C1427 C371 1.403 . S
C1431 C83 1.286 . S
C1445 C357 1.449 . S
C1449 C419 1.368 . S
C1463 C363 1.431 . S
C1467 C427 1.524 . S
C1481 C433 1.401 . S
C1485 C349 1.390 . S
C1499 C347 1.532 . S
C1503 C413 1.533 . S
C1517 C447 1.413 . S
C1521 C301 1.514 . S
C1535 C305 1.417 . S
C1539 C319 1.414 . S
C1553 C335 1.497 . S
C1557 C321 1.502 . S
C1571 C329 1.501 . S
C1575 C445 1.503 . S
C1589 C417 1.634 . S
C1593 C259 1.633 . S
