# Generated by pormake.
# Topology lcy-e, (6)-cn, num edge types: 1
# Building blocks:
#     Node 0, Type 0, BuildingBlock: JUFBIX_clean_sbu_0, # of connection points: 6
#     Node 1, Type 0, BuildingBlock: JUFBIX_clean_sbu_0, # of connection points: 6
#     Node 2, Type 0, BuildingBlock: JUFBIX_clean_sbu_0, # of connection points: 6
#     Node 3, Type 0, BuildingBlock: JUFBIX_clean_sbu_0, # of connection points: 6
#     Node 4, Type 0, BuildingBlock: JUFBIX_clean_sbu_0, # of connection points: 6
#     Node 5, Type 0, BuildingBlock: JUFBIX_clean_sbu_0, # of connection points: 6
#     Node 6, Type 0, BuildingBlock: JUFBIX_clean_sbu_0, # of connection points: 6
#     Node 7, Type 0, BuildingBlock: JUFBIX_clean_sbu_0, # of connection points: 6
#     Node 8, Type 0, BuildingBlock: JUFBIX_clean_sbu_0, # of connection points: 6
#     Node 9, Type 0, BuildingBlock: JUFBIX_clean_sbu_0, # of connection points: 6
#     Node 10, Type 0, BuildingBlock: JUFBIX_clean_sbu_0, # of connection points: 6
#     Node 11, Type 0, BuildingBlock: JUFBIX_clean_sbu_0, # of connection points: 6
#     Edge 12, Type (0, 0), None
#     Edge 13, Type (0, 0), None
#     Edge 14, Type (0, 0), None
#     Edge 15, Type (0, 0), None
#     Edge 16, Type (0, 0), None
#     Edge 17, Type (0, 0), None
#     Edge 18, Type (0, 0), None
#     Edge 19, Type (0, 0), None
#     Edge 20, Type (0, 0), None
#     Edge 21, Type (0, 0), None
#     Edge 22, Type (0, 0), None
#     Edge 23, Type (0, 0), None
#     Edge 24, Type (0, 0), None
#     Edge 25, Type (0, 0), None
#     Edge 26, Type (0, 0), None
#     Edge 27, Type (0, 0), None
#     Edge 28, Type (0, 0), None
#     Edge 29, Type (0, 0), None
#     Edge 30, Type (0, 0), None
#     Edge 31, Type (0, 0), None
#     Edge 32, Type (0, 0), None
#     Edge 33, Type (0, 0), None
#     Edge 34, Type (0, 0), None
#     Edge 35, Type (0, 0), None
#     Edge 36, Type (0, 0), None
#     Edge 37, Type (0, 0), None
#     Edge 38, Type (0, 0), None
#     Edge 39, Type (0, 0), None
#     Edge 40, Type (0, 0), None
#     Edge 41, Type (0, 0), None
#     Edge 42, Type (0, 0), None
#     Edge 43, Type (0, 0), None
#     Edge 44, Type (0, 0), None
#     Edge 45, Type (0, 0), None
#     Edge 46, Type (0, 0), None
#     Edge 47, Type (0, 0), None
# Relax obj value: 0.698
# Max RMSD: 0.400
# Mean RMSD: 0.295
data_MOF--net-lcy-e--node1-JUFBIX_clean_sbu_0--edge1-none
_symmetry_space_group_name_H-M    P1
_symmetry_Int_Tables_number       1
_symmetry_cell_setting            triclinic
loop_
_symmetry_equiv_pos_as_xyz
'x, y, z'
_cell_length_a     17.415036
_cell_length_b     18.823333
_cell_length_c     17.045604
_cell_angle_alpha  88.345294
_cell_angle_beta   89.767431
_cell_angle_gamma 78.213452
loop_
_atom_site_label
_atom_site_type_symbol
_atom_site_fract_x
_atom_site_fract_y
_atom_site_fract_z
_atom_type_partial_charge
Co0 Co 0.21525 0.27487 0.46767 0.0
C1 C 0.06798 0.29307 0.53665 0.0
Co2 Co 0.16461 0.19379 0.43082 0.0
C3 C 0.19286 0.4226 0.45881 0.0
C4 C 0.27163 0.38565 0.55424 0.0
N5 N 0.23781 0.36211 0.49205 0.0
N6 N 0.19458 0.48224 0.49761 0.0
C7 C 0.24699 0.46016 0.55618 0.0
H8 H 0.15457 0.42321 0.40907 0.0
H9 H 0.3086 0.35108 0.59681 0.0
C10 C 0.33026 0.18716 0.38572 0.0
N11 N 0.11538 0.11853 0.3964 0.0
C12 C 0.03901 0.11534 0.41054 0.0
C13 C 0.13351 0.07813 0.33207 0.0
N14 N 1.00885 0.07587 0.35773 0.0
C15 C 0.06877 0.05149 0.30872 0.0
C16 C 0.15564 0.28652 0.31235 0.0
O17 O 0.3223 0.2327 0.44051 0.0
O18 O 0.26758 0.16372 0.36528 0.0
O19 O 0.11114 0.24754 0.341 0.0
O20 O 0.20257 0.30649 0.36002 0.0
O21 O 0.07113 0.22817 0.51364 0.0
H22 H 0.18825 0.07265 0.3004 0.0
H23 H 1.00424 0.14394 0.45681 0.0
O24 O 0.11165 0.32535 0.49731 0.0
O25 O 0.22685 0.23471 0.57454 0.0
O26 O 0.2178 0.13841 0.50954 0.0
C27 C 0.21857 0.16856 0.57461 0.0
H28 H 0.26718 0.49543 0.5966 0.0
H29 H 0.06589 1.01773 0.25889 0.0
Co30 Co 0.03248 0.88506 0.7245 0.0
C31 C 0.92333 0.99061 0.78139 0.0
Co32 Co 0.07515 0.98224 0.701 0.0
C33 C 0.09344 0.75073 0.76091 0.0
C34 C 0.97105 0.75473 0.76988 0.0
N35 N 1.02379 0.79309 0.74562 0.0
N36 N 0.09049 0.69044 0.80148 0.0
C37 C 1.0123 0.69082 0.80382 0.0
H38 H 0.14685 0.77029 0.75677 0.0
H39 H 0.90834 0.77505 0.77178 0.0
C40 C 0.15893 0.87539 0.61907 0.0
N41 N 0.09986 0.07162 0.68261 0.0
C42 C 0.14399 0.08445 0.62189 0.0
C43 C 0.10754 0.12261 0.73467 0.0
N44 N 0.18011 0.14038 0.63308 0.0
C45 C 0.15598 0.16636 0.70354 0.0
C46 C 0.15689 0.91615 0.83615 0.0
O47 O 0.10915 0.84705 0.65307 0.0
O48 O 0.16744 0.9366 0.64195 0.0
O49 O 0.14595 0.97523 0.79612 0.0
O50 O 0.10951 0.87526 0.81951 0.0
O51 O 0.97285 1.02842 0.75575 0.0
H52 H 0.08546 0.12335 0.79384 0.0
H53 H 0.15048 0.05198 0.56989 0.0
O54 O 0.94671 0.92226 0.78749 0.0
O55 O 0.96534 0.89064 0.63833 0.0
O56 O 1.01291 0.98604 0.60271 0.0
C57 C 0.97436 0.93704 0.58556 0.0
H58 H 0.98549 0.65227 0.83441 0.0
H59 H 0.17302 0.21207 0.73065 0.0
Co60 Co 0.31327 0.80139 1.01955 0.0
C61 C 0.4446 0.79088 0.10934 0.0
Co62 Co 0.37945 0.87854 0.97306 0.0
C63 C 0.2834 0.6471 1.03946 0.0
C64 C 0.21478 0.72009 0.11862 0.0
N65 N 0.26632 0.71976 0.05998 0.0
N66 N 0.23914 0.60423 0.07774 0.0
C67 C 0.19777 0.65157 0.12854 0.0
H68 H 0.32843 0.62557 0.99763 0.0
H69 H 0.18974 0.7677 0.15094 0.0
C70 C 0.2265 0.89174 0.89596 0.0
N71 N 0.44681 0.94058 0.92655 0.0
C72 C 0.52414 0.9433 0.93836 0.0
C73 C 0.42705 0.98526 0.86304 0.0
N74 N 0.55237 0.98737 0.88472 0.0
C75 C 0.49055 1.01344 0.83764 0.0
C76 C 0.40668 0.75338 0.89785 0.0
O77 O 0.21872 0.85179 0.957 0.0
O78 O 0.29645 0.90415 0.88406 0.0
O79 O 0.43913 0.80355 0.91918 0.0
O80 O 0.34555 0.74337 0.93347 0.0
O81 O 0.45196 0.84989 0.07168 0.0
H82 H 0.36997 0.99655 0.83543 0.0
H83 H 0.55938 0.913 0.98513 0.0
O84 O 0.39928 0.75456 0.07961 0.0
O85 O 0.28947 0.8732 0.1078 0.0
O86 O 0.32018 0.95342 1.02354 0.0
C87 C 0.30498 0.93735 0.09315 0.0
H88 H 0.15406 0.63939 0.16819 0.0
H89 H 0.49042 0.05176 0.78896 0.0
Co90 Co 0.52714 0.21234 0.23708 0.0
C91 C 0.63338 0.07965 0.27338 0.0
Co92 Co 0.48011 0.11869 0.19912 0.0
C93 C 0.56047 0.31783 0.34749 0.0
C94 C 0.60743 0.33341 0.23382 0.0
N95 N 0.56668 0.29094 0.27415 0.0
N96 N 0.59491 0.37566 0.35466 0.0
C97 C 0.62664 0.38357 0.2834 0.0
H98 H 0.53674 0.29189 0.39681 0.0
H99 H 0.625 0.32667 0.17315 0.0
C100 C 0.39124 0.26143 0.16052 0.0
N101 N 0.43041 1.03959 0.17769 0.0
C102 C 0.37142 1.03265 0.1289 0.0
C103 C 0.43235 0.9841 0.2303 0.0
N104 N 0.33872 0.97381 0.14736 0.0
C105 C 0.37617 0.94455 0.21294 0.0
C106 C 0.40736 0.17213 0.33903 0.0
O107 O 0.45124 0.27907 0.18748 0.0
O108 O 0.38813 0.19352 0.15893 0.0
O109 O 0.42229 0.11783 0.29607 0.0
O110 O 0.4522 0.21832 0.33053 0.0
O111 O 0.58183 0.04943 0.24049 0.0
H112 H 0.47034 0.97542 0.28065 0.0
H113 H 0.35414 0.06897 0.0787 0.0
O114 O 0.6116 0.1467 0.28818 0.0
O115 O 0.59314 0.20339 0.13906 0.0
O116 O 0.53309 0.11899 0.09778 0.0
C117 C 0.58255 0.15993 0.0847 0.0
H118 H 0.66534 0.42048 0.2694 0.0
H119 H 0.36822 0.8949 0.24255 0.0
Co120 Co 0.75512 0.40752 0.50749 0.0
C121 C 0.62728 0.39273 0.42212 0.0
Co122 Co 0.65681 0.45513 0.5589 0.0
C123 C 0.87165 0.29376 0.4884 0.0
C124 C 0.84053 0.34849 0.37974 0.0
N125 N 0.84747 0.36052 0.45672 0.0
N126 N 0.84846 0.24413 0.44469 0.0
C127 C 0.83826 0.27637 0.37265 0.0
H128 H 0.88304 0.28462 0.55051 0.0
H129 H 0.81418 0.39014 0.33735 0.0
C130 C 0.79393 0.46378 0.63608 0.0
N131 N 0.56969 0.49428 0.60728 0.0
C132 C 0.50891 0.5278 0.56381 0.0
C133 C 0.53942 0.47126 0.67378 0.0
N134 N 0.44108 0.52382 0.59738 0.0
C135 C 0.45954 0.48982 0.66783 0.0
C136 C 0.68891 0.31744 0.61781 0.0
O137 O 0.81644 0.45065 0.56745 0.0
O138 O 0.7227 0.46151 0.65331 0.0
O139 O 0.63475 0.36687 0.59393 0.0
O140 O 0.75751 0.32236 0.59369 0.0
O141 O 0.59559 0.44571 0.46286 0.0
H142 H 0.57282 0.43849 0.72008 0.0
H143 H 0.51455 0.5573 0.50926 0.0
O144 O 0.69618 0.36233 0.4396 0.0
O145 O 0.74047 0.49333 0.43299 0.0
O146 O 0.66911 0.54876 0.5257 0.0
C147 C 0.69892 0.55261 0.45885 0.0
H148 H 0.81153 0.25501 0.32373 0.0
H149 H 0.41791 0.48287 0.71339 0.0
Co150 Co 1.02008 0.45514 0.72021 0.0
C151 C 0.03602 0.32967 0.61538 0.0
Co152 Co 0.97227 0.36298 0.77187 0.0
C153 C 0.12967 0.55338 0.69273 0.0
C154 C 1.01866 0.59279 0.63779 0.0
N155 N 0.06025 0.53386 0.67556 0.0
N156 N 0.13186 0.62294 0.67104 0.0
C157 C 0.06295 0.6455 0.63245 0.0
H158 H 0.1789 0.51729 0.72061 0.0
H159 H 0.95944 0.59792 0.61625 0.0
C160 C 0.95534 0.49772 0.86261 0.0
N161 N 0.94608 0.28236 0.83488 0.0
C162 C 0.8768 0.26463 0.85519 0.0
C163 C 0.99862 0.23123 0.87603 0.0
N164 N 0.88526 0.20463 0.90439 0.0
C165 C 0.96212 0.18392 0.91745 0.0
C166 C 0.12614 0.36327 0.81086 0.0
O167 O 0.98566 0.51793 0.80118 0.0
O168 O 0.94844 0.43046 0.86779 0.0
O169 O 0.07349 0.32773 0.80393 0.0
O170 O 0.11687 0.42455 0.77592 0.0
O171 O 0.99738 0.3027 0.67013 0.0
H172 H 0.06122 0.22573 0.87605 0.0
H173 H 0.82101 0.29397 0.83228 0.0
O174 O 0.05515 0.39075 0.63006 0.0
O175 O 0.91765 0.48343 0.67219 0.0
O176 O 0.86899 0.39919 0.73757 0.0
C177 C 0.85876 0.45492 0.6916 0.0
H178 H 0.04638 0.69687 0.60034 0.0
H179 H 0.99027 0.13623 0.95139 0.0
Co180 Co 1.00008 0.66334 1.02141 0.0
C181 C 0.8831 0.77243 0.9662 0.0
Co182 Co 0.88829 0.64509 0.04084 0.0
C183 C 0.12538 0.62604 0.91945 0.0
C184 C 0.12411 0.72718 0.97002 0.0
N185 N 0.09523 0.66712 0.98006 0.0
N186 N 0.14637 0.66658 0.86172 0.0
C187 C 0.16708 0.71978 0.90281 0.0
H188 H 0.11599 0.57279 0.90758 0.0
H189 H 0.10787 0.77588 1.00335 0.0
C190 C 1.01165 0.55629 0.11732 0.0
N191 N 0.8009 0.62772 0.07392 0.0
C192 C 0.75291 0.67072 0.12081 0.0
C193 C 0.77701 0.56392 0.07256 0.0
N194 N 0.70286 0.63462 0.15261 0.0
C195 C 0.71469 0.56847 0.12116 0.0
C196 C 0.94069 0.55245 0.92753 0.0
O197 O 0.0471 0.60131 0.08816 0.0
O198 O 0.9412 0.55796 0.09813 0.0
O199 O 0.87403 0.58409 0.95012 0.0
O200 O 0.99565 0.58177 0.9494 0.0
O201 O 0.83471 0.73447 0.99009 0.0
H202 H 0.80704 0.51545 0.04411 0.0
H203 H 0.75758 0.72527 0.13555 0.0
O204 O 0.95228 0.73875 0.95178 0.0
O205 O 1.00633 0.73516 0.09501 0.0
O206 O 0.8973 0.70626 0.1346 0.0
C207 C 0.95013 0.74339 0.14383 0.0
H208 H 0.19282 0.76127 0.87606 0.0
H209 H 0.68492 0.52499 0.13743 0.0
Co210 Co 0.53272 0.6434 0.2944 0.0
C211 C 0.48051 0.76111 0.18822 0.0
Co212 Co 0.58048 0.73566 0.32245 0.0
C213 C 0.46802 0.52514 0.3232 0.0
C214 C 0.49224 0.53328 0.20064 0.0
N215 N 0.50077 0.56278 0.26999 0.0
N216 N 0.42603 0.48306 0.28948 0.0
C217 C 0.44742 0.48221 0.21314 0.0
H218 H 0.45884 0.54101 0.3835 0.0
H219 H 0.50912 0.55344 0.14444 0.0
C220 C 0.65072 0.60647 0.40448 0.0
N221 N 0.61087 0.81644 0.3553 0.0
C222 C 0.67999 0.82213 0.38551 0.0
C223 C 0.55989 0.87619 0.37883 0.0
N224 N 0.67413 0.8833 0.42642 0.0
C225 C 0.59849 0.91732 0.423 0.0
C226 C 0.45097 0.71979 0.41215 0.0
O227 O 0.59422 0.58674 0.37184 0.0
O228 O 0.65376 0.6736 0.39876 0.0
O229 O 0.50347 0.75581 0.40359 0.0
O230 O 0.44815 0.67011 0.36467 0.0
O231 O 0.51361 0.79568 0.2374 0.0
H232 H 0.49721 0.88619 0.36977 0.0
H233 H 0.7337 0.78229 0.37746 0.0
O234 O 0.47417 0.69688 0.20868 0.0
O235 O 0.60856 0.61736 0.23034 0.0
O236 O 0.65632 0.71549 0.24566 0.0
C237 C 0.65529 0.65663 0.21106 0.0
H238 H 0.41945 0.45811 0.16724 0.0
H239 H 0.57388 0.96974 0.44699 0.0
Co240 Co 0.20461 0.43919 0.20256 0.0
C241 C 0.24854 0.52832 0.08447 0.0
Co242 Co 0.18716 0.39704 0.10071 0.0
C243 C 0.3031 0.4491 0.31873 0.0
C244 C 0.22428 0.54808 0.28802 0.0
N245 N 0.229 0.47588 0.29517 0.0
N246 N 0.34687 0.49835 0.30797 0.0
C247 C 0.29833 0.56152 0.28847 0.0
H248 H 0.32766 0.3924 0.33133 0.0
H249 H 0.17069 0.58754 0.27932 0.0
C250 C 0.13987 0.33033 0.2391 0.0
N251 N 0.17278 0.35727 1.00659 0.0
C252 C 0.16179 0.39301 0.93656 0.0
C253 C 0.19247 0.28659 0.9893 0.0
N254 N 0.1714 0.34783 0.87568 0.0
C255 C 0.19113 0.28067 0.90925 0.0
C256 C 0.32198 0.32116 0.15308 0.0
O257 O 0.14041 0.39365 0.25608 0.0
O258 O 0.16437 0.31068 0.16954 0.0
O259 O 0.2938 0.34625 0.08812 0.0
O260 O 0.29308 0.35449 0.21314 0.0
O261 O 0.20746 0.49239 0.04471 0.0
H262 H 0.20824 0.24243 1.03202 0.0
H263 H 0.13999 0.45084 0.93058 0.0
O264 O 0.27068 0.49805 0.14959 0.0
O265 O 0.11779 0.5115 0.1907 0.0
O266 O 0.07983 0.44099 0.10685 0.0
C267 C 0.06368 0.49581 0.14941 0.0
H268 H 0.31572 0.6124 0.27418 0.0
H269 H 0.19838 0.23036 0.87815 0.0
Co270 Co 0.75927 1.04102 0.94776 0.0
C271 C 0.84238 1.022 0.81252 0.0
Co272 Co 0.70685 0.12361 0.86285 0.0
C273 C 0.80381 0.89273 0.99804 0.0
C274 C 0.89414 0.95251 1.01359 0.0
N275 N 0.8151 0.96169 1.01039 0.0
N276 N 0.87131 0.84492 0.98293 0.0
C277 C 0.92812 0.88264 0.99404 0.0
H278 H 0.74695 0.87931 0.99 0.0
H279 H 0.92588 0.99596 1.01703 0.0
C280 C 0.64048 0.14142 1.01782 0.0
N281 N 0.66962 0.19071 0.7783 0.0
C282 C 0.71425 0.22165 0.72552 0.0
C283 C 0.59534 0.21736 0.75594 0.0
N284 N 0.67025 0.26757 0.67232 0.0
C285 C 0.59549 0.26406 0.6921 0.0
C286 C 0.62358 1.00952 0.8834 0.0
O287 O 0.70194 0.09252 1.03244 0.0
O288 O 0.62538 0.16301 0.94518 0.0
O289 O 0.63767 0.05718 0.83269 0.0
O290 O 0.67287 0.99068 0.93867 0.0
O291 O 0.79833 0.08213 0.79116 0.0
H292 H 0.54427 0.20444 0.78483 0.0
H293 H 0.77757 0.21297 0.72821 0.0
O294 O 0.81718 0.98772 0.86754 0.0
O295 O 0.84346 0.1014 0.95314 0.0
O296 O 0.76272 0.18911 0.89187 0.0
C297 C 0.82874 0.16609 0.92187 0.0
H298 H 0.99026 0.86196 0.9866 0.0
H299 H 0.54332 0.29498 0.6634 0.0
Co300 Co 0.80223 1.02944 0.44456 0.0
C301 C 0.71509 1.04265 0.30546 0.0
Co302 Co 0.85544 0.94992 0.36327 0.0
C303 C 0.80995 0.14735 0.5243 0.0
C304 C 0.6946 0.14981 0.4817 0.0
N305 N 0.7581 0.10459 0.512 0.0
N306 N 0.79326 0.20637 0.47721 0.0
C307 C 0.71977 0.20904 0.45132 0.0
H308 H 0.86857 0.1265 0.54682 0.0
H309 H 0.64389 0.13161 0.4597 0.0
C310 C 0.92158 0.94709 0.51754 0.0
N311 N 0.90783 0.87394 0.29735 0.0
C312 C 0.88619 0.82581 0.24744 0.0
C313 C 0.9859 0.86556 0.28589 0.0
N314 N 0.94782 0.79071 0.20405 0.0
C315 C 1.00983 0.81656 0.22843 0.0
C316 C 0.9362 0.05798 0.36006 0.0
O317 O 0.85591 0.98649 0.52915 0.0
O318 O 0.93917 0.92361 0.44799 0.0
O319 O 0.91815 1.01245 0.31374 0.0
O320 O 0.8913 0.07555 0.41791 0.0
O321 O 0.7599 0.98189 0.28672 0.0
H322 H 1.02334 0.89553 0.31557 0.0
H323 H 0.82609 0.82016 0.23947 0.0
O324 O 0.74137 0.07691 0.35825 0.0
O325 O 0.72163 0.97968 0.46623 0.0
O326 O 0.79981 0.88802 0.41115 0.0
C327 C 0.7346 0.91474 0.44239 0.0
H328 H 0.69248 0.24197 0.40272 0.0
H329 H 0.06882 0.80116 0.20617 0.0
Co330 Co 0.27208 0.69063 0.519 0.0
C331 C 0.19789 0.64703 0.64966 0.0
Co332 Co 0.32032 0.70866 0.62147 0.0
C333 C 0.23765 0.58415 0.44164 0.0
C334 C 0.13634 0.66789 0.44303 0.0
N335 N 0.21605 0.65692 0.43989 0.0
N336 N 0.18007 0.55087 0.46007 0.0
C337 C 0.11412 0.60196 0.4583 0.0
H338 H 0.29625 0.55327 0.43767 0.0
H339 H 0.09837 0.72023 0.45142 0.0
C340 C 0.39098 0.73612 0.47239 0.0
N341 N 0.38004 0.72405 0.70323 0.0
C342 C 0.36702 0.71058 0.77921 0.0
C343 C 0.4487 0.74676 0.70118 0.0
N344 N 0.4219 0.72867 0.82516 0.0
C345 C 0.4748 0.74941 0.7763 0.0
C346 C 0.37984 0.57754 0.58538 0.0
O347 O 0.32262 0.73793 0.44869 0.0
O348 O 0.40651 0.72104 0.5454 0.0
O349 O 0.35983 0.61589 0.64204 0.0
O350 O 0.35993 0.60458 0.5178 0.0
O351 O 0.2314 0.6898 0.68811 0.0
H352 H 0.47652 0.76395 0.64928 0.0
H353 H 0.31429 0.69497 0.80104 0.0
O354 O 0.21678 0.63944 0.58069 0.0
O355 O 0.19406 0.77873 0.5323 0.0
O356 O 0.28084 0.80701 0.61105 0.0
C357 C 0.21656 0.82536 0.57581 0.0
H358 H 0.05666 0.59362 0.47525 0.0
H359 H 0.52376 0.77285 0.79384 0.0
loop_
_geom_bond_atom_site_label_1
_geom_bond_atom_site_label_2
_geom_bond_distance
_geom_bond_site_symmetry_2
_ccdc_geom_bond_type
Co0 N5 2.057 . S
Co0 O17 2.021 . S
Co0 O20 2.062 . S
Co0 O24 2.117 . S
Co0 O25 2.020 . S
C1 O21 1.259 1_455 S
C1 O24 1.258 . S
Co2 N11 2.057 . S
Co2 O18 2.117 . S
Co2 O19 2.020 . S
Co2 O21 2.021 1_455 S
Co2 O26 2.062 . S
C3 N5 1.316 . S
C3 N6 1.347 . S
C3 H8 0.931 . S
C4 N5 1.375 . S
C4 C7 1.350 . S
C4 H9 0.930 . S
N5 Co0 2.057 . S
N5 C3 1.316 . S
N5 C4 1.375 . S
N6 C3 1.347 . S
N6 C7 1.373 . S
C7 C4 1.350 . S
C7 N6 1.373 . S
C7 H28 0.931 . S
H8 C3 0.931 . S
H9 C4 0.930 . S
C10 O17 1.259 . S
C10 O18 1.258 . S
N11 Co2 2.057 . S
N11 C12 1.316 1_455 S
N11 C13 1.375 . S
C12 N11 1.316 1_655 S
C12 N14 1.347 . S
C12 H23 0.931 . S
C13 N11 1.375 . S
C13 C15 1.350 . S
C13 H22 0.930 . S
N14 C12 1.347 . S
N14 C15 1.373 1_655 S
C15 C13 1.350 . S
C15 N14 1.373 1_455 S
C15 H29 0.931 1_545 S
C16 O19 1.256 . S
C16 O20 1.255 . S
O17 Co0 2.021 . S
O17 C10 1.259 . S
O18 Co2 2.117 . S
O18 C10 1.258 . S
O19 Co2 2.020 . S
O19 C16 1.256 . S
O20 Co0 2.062 . S
O20 C16 1.255 . S
O21 C1 1.259 1_655 S
O21 Co2 2.021 1_655 S
H22 C13 0.930 . S
H23 C12 0.931 . S
O24 Co0 2.117 . S
O24 C1 1.258 . S
O25 Co0 2.020 . S
O25 C27 1.256 . S
O26 Co2 2.062 . S
O26 C27 1.255 . S
C27 O25 1.256 . S
C27 O26 1.255 . S
H28 C7 0.931 . S
H29 C15 0.931 1_565 S
Co30 N35 2.057 . S
Co30 O47 2.021 . S
Co30 O50 2.062 . S
Co30 O54 2.117 . S
Co30 O55 2.020 . S
C31 O51 1.259 1_665 S
C31 O54 1.258 1_655 S
Co32 N41 2.068 . S
Co32 O48 2.117 . S
Co32 O49 2.020 . S
Co32 O51 2.021 1_565 S
Co32 O56 2.062 . S
C33 N35 1.316 . S
C33 N36 1.347 . S
C33 H38 0.931 . S
C34 N35 1.375 1_655 S
C34 C37 1.350 . S
C34 H39 0.930 . S
N35 Co30 2.057 . S
N35 C33 1.316 . S
N35 C34 1.375 1_455 S
N36 C33 1.347 . S
N36 C37 1.373 1_455 S
C37 C34 1.350 . S
C37 N36 1.373 1_655 S
C37 H58 0.931 . S
H38 C33 0.931 . S
H39 C34 0.930 . S
C40 O47 1.259 . S
C40 O48 1.258 . S
N41 Co32 2.068 . S
N41 C42 1.302 1_565 S
N41 C43 1.377 . S
C42 N41 1.302 1_545 S
C42 N44 1.347 . S
C42 H53 0.931 . S
C43 N41 1.377 . S
C43 C45 1.350 1_565 S
C43 H52 0.930 . S
N44 C42 1.347 . S
N44 C45 1.373 . S
C45 C43 1.350 1_545 S
C45 N44 1.373 . S
C45 H59 0.931 . S
C46 O49 1.256 . S
C46 O50 1.255 . S
O47 Co30 2.021 . S
O47 C40 1.259 . S
O48 Co32 2.117 . S
O48 C40 1.258 . S
O49 Co32 2.020 . S
O49 C46 1.256 . S
O50 Co30 2.062 . S
O50 C46 1.255 . S
O51 C31 1.259 1_445 S
O51 Co32 2.021 1_545 S
H52 C43 0.930 . S
H53 C42 0.931 . S
O54 Co30 2.117 . S
O54 C31 1.258 1_455 S
O55 Co30 2.020 . S
O55 C57 1.256 1_455 S
O56 Co32 2.062 . S
O56 C57 1.255 1_455 S
C57 O55 1.256 1_655 S
C57 O56 1.255 1_655 S
H58 C37 0.931 . S
H59 C45 0.931 . S
Co60 N65 2.057 1_556 S
Co60 O77 2.021 . S
Co60 O80 2.062 . S
Co60 O84 2.117 1_556 S
Co60 O85 2.020 1_556 S
C61 O81 1.259 1_554 S
C61 O84 1.258 . S
Co62 N71 2.057 . S
Co62 O78 2.117 . S
Co62 O79 2.020 . S
Co62 O81 2.021 . S
Co62 O86 2.062 . S
C63 N65 1.316 . S
C63 N66 1.347 . S
C63 H68 0.931 1_554 S
C64 N65 1.375 . S
C64 C67 1.350 . S
C64 H69 0.930 . S
N65 Co60 2.057 1_554 S
N65 C63 1.316 . S
N65 C64 1.375 . S
N66 C63 1.347 . S
N66 C67 1.373 . S
C67 C64 1.350 . S
C67 N66 1.373 . S
C67 H88 0.931 . S
H68 C63 0.931 1_556 S
H69 C64 0.930 . S
C70 O77 1.259 . S
C70 O78 1.258 . S
N71 Co62 2.057 . S
N71 C72 1.316 . S
N71 C73 1.375 . S
C72 N71 1.316 . S
C72 N74 1.347 . S
C72 H83 0.931 . S
C73 N71 1.375 . S
C73 C75 1.350 . S
C73 H82 0.930 . S
N74 C72 1.347 . S
N74 C75 1.373 . S
C75 C73 1.350 . S
C75 N74 1.373 . S
C75 H89 0.931 1_565 S
C76 O79 1.256 . S
C76 O80 1.255 . S
O77 Co60 2.021 . S
O77 C70 1.259 . S
O78 Co62 2.117 . S
O78 C70 1.258 . S
O79 Co62 2.020 . S
O79 C76 1.256 . S
O80 Co60 2.062 . S
O80 C76 1.255 . S
O81 C61 1.259 1_556 S
O81 Co62 2.021 . S
H82 C73 0.930 . S
H83 C72 0.931 . S
O84 Co60 2.117 1_554 S
O84 C61 1.258 . S
O85 Co60 2.020 1_554 S
O85 C87 1.256 . S
O86 Co62 2.062 . S
O86 C87 1.255 1_556 S
C87 O85 1.256 . S
C87 O86 1.255 1_554 S
H88 C67 0.931 . S
H89 C75 0.931 1_545 S
Co90 N95 2.057 . S
Co90 O107 2.021 . S
Co90 O110 2.062 . S
Co90 O114 2.117 . S
Co90 O115 2.020 . S
C91 O111 1.259 . S
C91 O114 1.258 . S
Co92 N101 2.057 . S
Co92 O108 2.117 . S
Co92 O109 2.020 . S
Co92 O111 2.021 . S
Co92 O116 2.062 . S
C93 N95 1.316 . S
C93 N96 1.347 . S
C93 H98 0.931 . S
C94 N95 1.375 . S
C94 C97 1.350 . S
C94 H99 0.930 . S
N95 Co90 2.057 . S
N95 C93 1.316 . S
N95 C94 1.375 . S
N96 C93 1.347 . S
N96 C97 1.373 . S
C97 C94 1.350 . S
C97 N96 1.373 . S
C97 H118 0.931 . S
H98 C93 0.931 . S
H99 C94 0.930 . S
C100 O107 1.259 . S
C100 O108 1.258 . S
N101 Co92 2.057 . S
N101 C102 1.316 1_545 S
N101 C103 1.375 . S
C102 N101 1.316 1_565 S
C102 N104 1.347 . S
C102 H113 0.931 . S
C103 N101 1.375 . S
C103 C105 1.350 1_554 S
C103 H112 0.930 . S
N104 C102 1.347 . S
N104 C105 1.373 1_564 S
C105 C103 1.350 1_556 S
C105 N104 1.373 1_546 S
C105 H119 0.931 . S
C106 O109 1.256 . S
C106 O110 1.255 . S
O107 Co90 2.021 . S
O107 C100 1.259 . S
O108 Co92 2.117 . S
O108 C100 1.258 . S
O109 Co92 2.020 . S
O109 C106 1.256 . S
O110 Co90 2.062 . S
O110 C106 1.255 . S
O111 C91 1.259 . S
O111 Co92 2.021 . S
H112 C103 0.930 . S
H113 C102 0.931 . S
O114 Co90 2.117 . S
O114 C91 1.258 . S
O115 Co90 2.020 . S
O115 C117 1.256 . S
O116 Co92 2.062 . S
O116 C117 1.255 . S
C117 O115 1.256 . S
C117 O116 1.255 . S
H118 C97 0.931 . S
H119 C105 0.931 . S
Co120 N125 2.057 . S
Co120 O137 2.021 . S
Co120 O140 2.062 . S
Co120 O144 2.117 . S
Co120 O145 2.020 . S
C121 O141 1.259 . S
C121 O144 1.258 . S
Co122 N131 2.057 . S
Co122 O138 2.117 . S
Co122 O139 2.020 . S
Co122 O141 2.021 . S
Co122 O146 2.062 . S
C123 N125 1.316 . S
C123 N126 1.347 . S
C123 H128 0.931 . S
C124 N125 1.375 . S
C124 C127 1.350 . S
C124 H129 0.930 . S
N125 Co120 2.057 . S
N125 C123 1.316 . S
N125 C124 1.375 . S
N126 C123 1.347 . S
N126 C127 1.373 . S
C127 C124 1.350 . S
C127 N126 1.373 . S
C127 H148 0.931 . S
H128 C123 0.931 . S
H129 C124 0.930 . S
C130 O137 1.259 . S
C130 O138 1.258 . S
N131 Co122 2.057 . S
N131 C132 1.316 . S
N131 C133 1.375 . S
C132 N131 1.316 . S
C132 N134 1.347 . S
C132 H143 0.931 . S
C133 N131 1.375 . S
C133 C135 1.350 . S
C133 H142 0.930 . S
N134 C132 1.347 . S
N134 C135 1.373 . S
C135 C133 1.350 . S
C135 N134 1.373 . S
C135 H149 0.931 . S
C136 O139 1.256 . S
C136 O140 1.255 . S
O137 Co120 2.021 . S
O137 C130 1.259 . S
O138 Co122 2.117 . S
O138 C130 1.258 . S
O139 Co122 2.020 . S
O139 C136 1.256 . S
O140 Co120 2.062 . S
O140 C136 1.255 . S
O141 C121 1.259 . S
O141 Co122 2.021 . S
H142 C133 0.930 . S
H143 C132 0.931 . S
O144 Co120 2.117 . S
O144 C121 1.258 . S
O145 Co120 2.020 . S
O145 C147 1.256 . S
O146 Co122 2.062 . S
O146 C147 1.255 . S
C147 O145 1.256 . S
C147 O146 1.255 . S
H148 C127 0.931 . S
H149 C135 0.931 . S
Co150 N155 2.057 1_655 S
Co150 O167 2.021 . S
Co150 O170 2.062 1_655 S
Co150 O174 2.117 . S
Co150 O175 2.020 . S
C151 O171 1.259 . S
C151 O174 1.258 . S
Co152 N161 2.057 . S
Co152 O168 2.117 . S
Co152 O169 2.033 . S
Co152 O171 2.021 . S
Co152 O176 2.062 . S
C153 N155 1.316 . S
C153 N156 1.347 . S
C153 H158 0.931 1_455 S
C154 N155 1.375 . S
C154 C157 1.350 . S
C154 H159 0.930 . S
N155 Co150 2.057 1_455 S
N155 C153 1.316 . S
N155 C154 1.375 . S
N156 C153 1.347 . S
N156 C157 1.373 . S
C157 C154 1.350 . S
C157 N156 1.373 . S
C157 H178 0.931 . S
H158 C153 0.931 1_655 S
H159 C154 0.930 . S
C160 O167 1.259 . S
C160 O168 1.258 . S
N161 Co152 2.057 . S
N161 C162 1.316 . S
N161 C163 1.375 . S
C162 N161 1.316 . S
C162 N164 1.347 . S
C162 H173 0.931 . S
C163 N161 1.375 . S
C163 C165 1.350 . S
C163 H172 0.930 . S
N164 C162 1.347 . S
N164 C165 1.373 . S
C165 C163 1.350 . S
C165 N164 1.373 . S
C165 H179 0.931 . S
C166 O169 1.243 1_455 S
C166 O170 1.255 . S
O167 Co150 2.021 . S
O167 C160 1.259 . S
O168 Co152 2.117 . S
O168 C160 1.258 . S
O169 Co152 2.033 . S
O169 C166 1.243 1_655 S
O170 Co150 2.062 1_455 S
O170 C166 1.255 . S
O171 C151 1.259 . S
O171 Co152 2.021 . S
H172 C163 0.930 . S
H173 C162 0.931 . S
O174 Co150 2.117 . S
O174 C151 1.258 . S
O175 Co150 2.020 . S
O175 C177 1.256 . S
O176 Co152 2.062 . S
O176 C177 1.255 . S
C177 O175 1.256 . S
C177 O176 1.255 . S
H178 C157 0.931 . S
H179 C165 0.931 . S
Co180 N185 2.057 1_655 S
Co180 O197 2.021 1_656 S
Co180 O200 2.062 . S
Co180 O204 2.117 . S
Co180 O205 2.020 1_556 S
C181 O201 1.259 1_556 S
C181 O204 1.258 . S
Co182 N191 2.057 . S
Co182 O198 2.117 . S
Co182 O199 2.020 1_554 S
Co182 O201 2.021 . S
Co182 O206 2.062 . S
C183 N185 1.316 . S
C183 N186 1.347 . S
C183 H188 0.931 . S
C184 N185 1.375 1_655 S
C184 C187 1.350 1_655 S
C184 H189 0.930 . S
N185 Co180 2.057 1_455 S
N185 C183 1.316 . S
N185 C184 1.375 1_455 S
N186 C183 1.347 . S
N186 C187 1.373 . S
C187 C184 1.350 1_455 S
C187 N186 1.373 . S
C187 H208 0.931 . S
H188 C183 0.931 . S
H189 C184 0.930 . S
C190 O197 1.259 . S
C190 O198 1.258 1_455 S
N191 Co182 2.057 . S
N191 C192 1.316 . S
N191 C193 1.375 . S
C192 N191 1.316 . S
C192 N194 1.347 . S
C192 H203 0.931 . S
C193 N191 1.375 . S
C193 C195 1.350 . S
C193 H202 0.930 . S
N194 C192 1.347 . S
N194 C195 1.373 . S
C195 C193 1.350 . S
C195 N194 1.373 . S
C195 H209 0.931 . S
C196 O199 1.256 . S
C196 O200 1.255 . S
O197 Co180 2.021 1_454 S
O197 C190 1.259 . S
O198 Co182 2.117 . S
O198 C190 1.258 1_655 S
O199 Co182 2.020 1_556 S
O199 C196 1.256 . S
O200 Co180 2.062 . S
O200 C196 1.255 . S
O201 C181 1.259 1_554 S
O201 Co182 2.021 . S
H202 C193 0.930 . S
H203 C192 0.931 . S
O204 Co180 2.117 . S
O204 C181 1.258 . S
O205 Co180 2.020 1_554 S
O205 C207 1.256 . S
O206 Co182 2.062 . S
O206 C207 1.255 . S
C207 O205 1.256 . S
C207 O206 1.255 . S
H208 C187 0.931 . S
H209 C195 0.931 . S
Co210 N215 2.057 . S
Co210 O227 2.021 . S
Co210 O230 2.062 . S
Co210 O234 2.117 . S
Co210 O235 2.020 . S
C211 O231 1.259 . S
C211 O234 1.258 . S
Co212 N221 2.057 . S
Co212 O228 2.117 . S
Co212 O229 2.020 . S
Co212 O231 2.021 . S
Co212 O236 2.062 . S
C213 N215 1.316 . S
C213 N216 1.347 . S
C213 H218 0.931 . S
C214 N215 1.375 . S
C214 C217 1.350 . S
C214 H219 0.930 . S
N215 Co210 2.057 . S
N215 C213 1.316 . S
N215 C214 1.375 . S
N216 C213 1.347 . S
N216 C217 1.373 . S
C217 C214 1.350 . S
C217 N216 1.373 . S
C217 H238 0.931 . S
H218 C213 0.931 . S
H219 C214 0.930 . S
C220 O227 1.259 . S
C220 O228 1.258 . S
N221 Co212 2.057 . S
N221 C222 1.316 . S
N221 C223 1.375 . S
C222 N221 1.316 . S
C222 N224 1.347 . S
C222 H233 0.931 . S
C223 N221 1.375 . S
C223 C225 1.350 . S
C223 H232 0.930 . S
N224 C222 1.347 . S
N224 C225 1.373 . S
C225 C223 1.350 . S
C225 N224 1.373 . S
C225 H239 0.931 . S
C226 O229 1.256 . S
C226 O230 1.255 . S
O227 Co210 2.021 . S
O227 C220 1.259 . S
O228 Co212 2.117 . S
O228 C220 1.258 . S
O229 Co212 2.020 . S
O229 C226 1.256 . S
O230 Co210 2.062 . S
O230 C226 1.255 . S
O231 C211 1.259 . S
O231 Co212 2.021 . S
H232 C223 0.930 . S
H233 C222 0.931 . S
O234 Co210 2.117 . S
O234 C211 1.258 . S
O235 Co210 2.020 . S
O235 C237 1.256 . S
O236 Co212 2.062 . S
O236 C237 1.255 . S
C237 O235 1.256 . S
C237 O236 1.255 . S
H238 C217 0.931 . S
H239 C225 0.931 . S
Co240 N245 2.057 . S
Co240 O257 2.021 . S
Co240 O260 2.062 . S
Co240 O264 2.117 . S
Co240 O265 2.020 . S
C241 O261 1.259 . S
C241 O264 1.258 1_556 S
Co242 N251 2.057 1_554 S
Co242 O258 2.117 . S
Co242 O259 2.020 . S
Co242 O261 2.021 1_554 S
Co242 O266 2.062 . S
C243 N245 1.316 . S
C243 N246 1.347 . S
C243 H248 0.931 . S
C244 N245 1.375 . S
C244 C247 1.350 . S
C244 H249 0.930 . S
N245 Co240 2.057 . S
N245 C243 1.316 . S
N245 C244 1.375 . S
N246 C243 1.347 . S
N246 C247 1.373 . S
C247 C244 1.350 . S
C247 N246 1.373 . S
C247 H268 0.931 . S
H248 C243 0.931 . S
H249 C244 0.930 . S
C250 O257 1.259 . S
C250 O258 1.258 . S
N251 Co242 2.057 1_556 S
N251 C252 1.316 . S
N251 C253 1.375 . S
C252 N251 1.316 . S
C252 N254 1.347 . S
C252 H263 0.931 . S
C253 N251 1.375 . S
C253 C255 1.350 . S
C253 H262 0.930 1_556 S
N254 C252 1.347 . S
N254 C255 1.373 . S
C255 C253 1.350 . S
C255 N254 1.373 . S
C255 H269 0.931 . S
C256 O259 1.256 . S
C256 O260 1.255 . S
O257 Co240 2.021 . S
O257 C250 1.259 . S
O258 Co242 2.117 . S
O258 C250 1.258 . S
O259 Co242 2.020 . S
O259 C256 1.256 . S
O260 Co240 2.062 . S
O260 C256 1.255 . S
O261 C241 1.259 . S
O261 Co242 2.021 1_556 S
H262 C253 0.930 1_554 S
H263 C252 0.931 . S
O264 Co240 2.117 . S
O264 C241 1.258 1_554 S
O265 Co240 2.020 . S
O265 C267 1.256 . S
O266 Co242 2.062 . S
O266 C267 1.255 . S
C267 O265 1.256 . S
C267 O266 1.255 . S
H268 C247 0.931 . S
H269 C255 0.931 . S
Co270 N275 2.057 . S
Co270 O287 2.021 1_565 S
Co270 O290 2.062 . S
Co270 O294 2.117 . S
Co270 O295 2.020 1_565 S
C271 O291 1.259 1_565 S
C271 O294 1.258 . S
Co272 N281 2.057 . S
Co272 O288 2.117 . S
Co272 O289 2.020 . S
Co272 O291 2.021 . S
Co272 O296 2.062 . S
C273 N275 1.316 1_554 S
C273 N276 1.347 . S
C273 H278 0.931 . S
C274 N275 1.375 . S
C274 C277 1.350 . S
C274 H279 0.930 . S
N275 Co270 2.057 . S
N275 C273 1.316 1_556 S
N275 C274 1.375 . S
N276 C273 1.347 . S
N276 C277 1.373 1_554 S
C277 C274 1.350 . S
C277 N276 1.373 1_556 S
C277 H298 0.931 . S
H278 C273 0.931 . S
H279 C274 0.930 . S
C280 O287 1.259 . S
C280 O288 1.258 . S
N281 Co272 2.057 . S
N281 C282 1.316 . S
N281 C283 1.375 . S
C282 N281 1.316 . S
C282 N284 1.347 . S
C282 H293 0.931 . S
C283 N281 1.375 . S
C283 C285 1.350 . S
C283 H292 0.930 . S
N284 C282 1.347 . S
N284 C285 1.373 . S
C285 C283 1.350 . S
C285 N284 1.373 . S
C285 H299 0.931 . S
C286 O289 1.256 1_565 S
C286 O290 1.255 . S
O287 Co270 2.021 1_545 S
O287 C280 1.259 . S
O288 Co272 2.117 . S
O288 C280 1.258 . S
O289 Co272 2.020 . S
O289 C286 1.256 1_545 S
O290 Co270 2.062 . S
O290 C286 1.255 . S
O291 C271 1.259 1_545 S
O291 Co272 2.021 . S
H292 C283 0.930 . S
H293 C282 0.931 . S
O294 Co270 2.117 . S
O294 C271 1.258 . S
O295 Co270 2.020 1_545 S
O295 C297 1.256 . S
O296 Co272 2.062 . S
O296 C297 1.255 . S
C297 O295 1.256 . S
C297 O296 1.255 . S
H298 C277 0.931 . S
H299 C285 0.931 . S
Co300 N305 2.057 1_565 S
Co300 O317 2.021 . S
Co300 O320 2.062 . S
Co300 O324 2.117 . S
Co300 O325 2.020 . S
C301 O321 1.259 . S
C301 O324 1.258 . S
Co302 N311 2.057 . S
Co302 O318 2.117 . S
Co302 O319 2.020 . S
Co302 O321 2.021 . S
Co302 O326 2.062 . S
C303 N305 1.316 . S
C303 N306 1.347 . S
C303 H308 0.931 . S
C304 N305 1.375 . S
C304 C307 1.350 . S
C304 H309 0.930 . S
N305 Co300 2.057 1_545 S
N305 C303 1.316 . S
N305 C304 1.375 . S
N306 C303 1.347 . S
N306 C307 1.373 . S
C307 C304 1.350 . S
C307 N306 1.373 . S
C307 H328 0.931 . S
H308 C303 0.931 . S
H309 C304 0.930 . S
C310 O317 1.259 . S
C310 O318 1.258 . S
N311 Co302 2.057 . S
N311 C312 1.316 . S
N311 C313 1.375 1_655 S
C312 N311 1.316 . S
C312 N314 1.347 . S
C312 H323 0.931 . S
C313 N311 1.375 1_455 S
C313 C315 1.350 . S
C313 H322 0.930 . S
N314 C312 1.347 . S
N314 C315 1.373 1_655 S
C315 C313 1.350 . S
C315 N314 1.373 1_455 S
C315 H329 0.931 . S
C316 O319 1.256 . S
C316 O320 1.255 . S
O317 Co300 2.021 . S
O317 C310 1.259 . S
O318 Co302 2.117 . S
O318 C310 1.258 . S
O319 Co302 2.020 . S
O319 C316 1.256 . S
O320 Co300 2.062 . S
O320 C316 1.255 . S
O321 C301 1.259 . S
O321 Co302 2.021 . S
H322 C313 0.930 . S
H323 C312 0.931 . S
O324 Co300 2.117 . S
O324 C301 1.258 . S
O325 Co300 2.020 . S
O325 C327 1.256 . S
O326 Co302 2.062 . S
O326 C327 1.255 . S
C327 O325 1.256 . S
C327 O326 1.255 . S
H328 C307 0.931 . S
H329 C315 0.931 . S
Co330 N335 2.057 . S
Co330 O347 2.021 . S
Co330 O350 2.062 . S
Co330 O354 2.117 . S
Co330 O355 2.020 . S
C331 O351 1.259 . S
C331 O354 1.258 . S
Co332 N341 2.057 . S
Co332 O348 2.117 . S
Co332 O349 2.020 . S
Co332 O351 2.021 . S
Co332 O356 2.062 . S
C333 N335 1.316 . S
C333 N336 1.347 . S
C333 H338 0.931 . S
C334 N335 1.375 . S
C334 C337 1.350 . S
C334 H339 0.930 . S
N335 Co330 2.057 . S
N335 C333 1.316 . S
N335 C334 1.375 . S
N336 C333 1.347 . S
N336 C337 1.373 . S
C337 C334 1.350 . S
C337 N336 1.373 . S
C337 H358 0.931 . S
H338 C333 0.931 . S
H339 C334 0.930 . S
C340 O347 1.259 . S
C340 O348 1.258 . S
N341 Co332 2.057 . S
N341 C342 1.316 . S
N341 C343 1.375 . S
C342 N341 1.316 . S
C342 N344 1.347 . S
C342 H353 0.931 . S
C343 N341 1.375 . S
C343 C345 1.350 . S
C343 H352 0.930 . S
N344 C342 1.347 . S
N344 C345 1.373 . S
C345 C343 1.350 . S
C345 N344 1.373 . S
C345 H359 0.931 . S
C346 O349 1.256 . S
C346 O350 1.255 . S
O347 Co330 2.021 . S
O347 C340 1.259 . S
O348 Co332 2.117 . S
O348 C340 1.258 . S
O349 Co332 2.020 . S
O349 C346 1.256 . S
O350 Co330 2.062 . S
O350 C346 1.255 . S
O351 C331 1.259 . S
O351 Co332 2.021 . S
H352 C343 0.930 . S
H353 C342 0.931 . S
O354 Co330 2.117 . S
O354 C331 1.258 . S
O355 Co330 2.020 . S
O355 C357 1.256 . S
O356 Co332 2.062 . S
O356 C357 1.255 . S
C357 O355 1.256 . S
C357 O356 1.255 . S
H358 C337 0.931 . S
H359 C345 0.931 . S
N6 N336 3.794 . S
C271 C31 3.644 . S
N66 C241 4.177 1_554 S
C91 C301 3.557 1_545 S
N126 N306 3.457 . S
N156 C331 2.738 . S
N276 C181 3.561 1_554 S
N216 N246 1.578 . S
N96 C121 2.644 . S
C1 C151 3.952 1_455 S
N36 N186 1.875 . S
C211 C61 3.786 . S
C16 C250 1.326 . S
C57 C310 2.101 . S
N344 C76 1.834 . S
C117 C280 2.481 1_554 S
C136 N284 1.404 . S
N254 C166 1.524 . S
N314 C207 1.780 . S
C340 C226 1.769 . S
C10 C106 2.373 . S
C27 N44 0.801 . S
C46 C70 2.445 . S
N104 C87 1.590 . S
C177 C130 1.674 . S
C160 C196 2.598 . S
N194 C237 2.127 . S
C147 C220 1.461 . S
C256 C100 1.758 . S
N164 C297 1.696 . S
C267 C190 1.094 . S
C327 N224 1.739 . S
N134 C346 1.511 . S
C357 C40 1.181 . S
N74 C286 1.375 . S
C316 N14 1.944 1_565 S
