# Generated by pormake.
# Topology uol, (4)-cn, num edge types: 1
# Building blocks:
#     Node 0, Type 0, BuildingBlock: ESEHIV_clean_sbu_0, # of connection points: 4
#     Node 1, Type 0, BuildingBlock: ESEHIV_clean_sbu_0, # of connection points: 4
#     Node 2, Type 0, BuildingBlock: ESEHIV_clean_sbu_0, # of connection points: 4
#     Node 3, Type 0, BuildingBlock: ESEHIV_clean_sbu_0, # of connection points: 4
#     Node 4, Type 0, BuildingBlock: ESEHIV_clean_sbu_0, # of connection points: 4
#     Node 5, Type 0, BuildingBlock: ESEHIV_clean_sbu_0, # of connection points: 4
#     Node 6, Type 0, BuildingBlock: ESEHIV_clean_sbu_0, # of connection points: 4
#     Node 7, Type 0, BuildingBlock: ESEHIV_clean_sbu_0, # of connection points: 4
#     Node 8, Type 0, BuildingBlock: ESEHIV_clean_sbu_0, # of connection points: 4
#     Node 9, Type 0, BuildingBlock: ESEHIV_clean_sbu_0, # of connection points: 4
#     Node 10, Type 0, BuildingBlock: ESEHIV_clean_sbu_0, # of connection points: 4
#     Node 11, Type 0, BuildingBlock: ESEHIV_clean_sbu_0, # of connection points: 4
#     Edge 12, Type (0, 0), BuildingBlock: ZUJKAS_clean_linker_0, # of connection points: 2
#     Edge 13, Type (0, 0), BuildingBlock: ZUJKAS_clean_linker_0, # of connection points: 2
#     Edge 14, Type (0, 0), BuildingBlock: ZUJKAS_clean_linker_0, # of connection points: 2
#     Edge 15, Type (0, 0), BuildingBlock: ZUJKAS_clean_linker_0, # of connection points: 2
#     Edge 16, Type (0, 0), BuildingBlock: ZUJKAS_clean_linker_0, # of connection points: 2
#     Edge 17, Type (0, 0), BuildingBlock: ZUJKAS_clean_linker_0, # of connection points: 2
#     Edge 18, Type (0, 0), BuildingBlock: ZUJKAS_clean_linker_0, # of connection points: 2
#     Edge 19, Type (0, 0), BuildingBlock: ZUJKAS_clean_linker_0, # of connection points: 2
#     Edge 20, Type (0, 0), BuildingBlock: ZUJKAS_clean_linker_0, # of connection points: 2
#     Edge 21, Type (0, 0), BuildingBlock: ZUJKAS_clean_linker_0, # of connection points: 2
#     Edge 22, Type (0, 0), BuildingBlock: ZUJKAS_clean_linker_0, # of connection points: 2
#     Edge 23, Type (0, 0), BuildingBlock: ZUJKAS_clean_linker_0, # of connection points: 2
#     Edge 24, Type (0, 0), BuildingBlock: ZUJKAS_clean_linker_0, # of connection points: 2
#     Edge 25, Type (0, 0), BuildingBlock: ZUJKAS_clean_linker_0, # of connection points: 2
#     Edge 26, Type (0, 0), BuildingBlock: ZUJKAS_clean_linker_0, # of connection points: 2
#     Edge 27, Type (0, 0), BuildingBlock: ZUJKAS_clean_linker_0, # of connection points: 2
#     Edge 28, Type (0, 0), BuildingBlock: ZUJKAS_clean_linker_0, # of connection points: 2
#     Edge 29, Type (0, 0), BuildingBlock: ZUJKAS_clean_linker_0, # of connection points: 2
#     Edge 30, Type (0, 0), BuildingBlock: ZUJKAS_clean_linker_0, # of connection points: 2
#     Edge 31, Type (0, 0), BuildingBlock: ZUJKAS_clean_linker_0, # of connection points: 2
#     Edge 32, Type (0, 0), BuildingBlock: ZUJKAS_clean_linker_0, # of connection points: 2
#     Edge 33, Type (0, 0), BuildingBlock: ZUJKAS_clean_linker_0, # of connection points: 2
#     Edge 34, Type (0, 0), BuildingBlock: ZUJKAS_clean_linker_0, # of connection points: 2
#     Edge 35, Type (0, 0), BuildingBlock: ZUJKAS_clean_linker_0, # of connection points: 2
# Relax obj value: 0.146
# Max RMSD: 0.223
# Mean RMSD: 0.223
data_MOF--net-uol--node1-ESEHIV_clean_sbu_0--edge1-ZUJKAS_clean_linker_0
_symmetry_space_group_name_H-M    P1
_symmetry_Int_Tables_number       1
_symmetry_cell_setting            triclinic
loop_
_symmetry_equiv_pos_as_xyz
'x, y, z'
_cell_length_a     49.816573
_cell_length_b     49.794225
_cell_length_c     74.888634
_cell_angle_alpha  90.090015
_cell_angle_beta   90.151243
_cell_angle_gamma 120.16199
loop_
_atom_site_label
_atom_site_type_symbol
_atom_site_fract_x
_atom_site_fract_y
_atom_site_fract_z
_atom_type_partial_charge
Cu0 Cu 0.15593 0.36549 0.10946 0.0
N1 N 0.1811 0.37097 0.12912 0.0
N2 N 0.2102 0.36219 0.14831 0.0
C3 C 0.19526 0.35455 0.13244 0.0
C4 C 0.20517 0.38434 0.15525 0.0
C5 C 0.18721 0.38974 0.14333 0.0
O6 O 0.16683 0.34387 0.09173 0.0
C7 C 0.10322 0.31308 0.12234 0.0
O8 O 0.12097 0.30091 0.1197 0.0
H9 H 0.19366 0.33655 0.12363 0.0
H10 H 0.17873 0.40576 0.14503 0.0
N11 N 0.16563 0.40453 0.10069 0.0
N12 N 0.16852 0.45036 0.09624 0.0
C13 C 0.15285 0.42228 0.1043 0.0
C14 C 0.18993 0.42186 0.09001 0.0
C15 C 0.19177 0.45002 0.08723 0.0
C16 C 0.1619 0.34285 0.075 0.0
O17 O 0.14598 0.35518 0.06856 0.0
H18 H 0.13324 0.41522 0.1131 0.0
H19 H 0.20559 0.41463 0.08486 0.0
O20 O 0.11324 0.34112 0.11768 0.0
H21 H 0.21374 0.39574 0.16801 0.0
H22 H 0.20899 0.46887 0.07922 0.0
Cu23 Cu 0.82374 0.15865 0.28091 0.0
N24 N 0.84202 0.18761 0.2993 0.0
N25 N 0.87906 0.22117 0.3178 0.0
C26 C 0.87275 0.20498 0.30238 0.0
C27 C 0.85111 0.21374 0.32464 0.0
C28 C 0.82828 0.19303 0.31317 0.0
O29 O 0.85602 0.16985 0.26305 0.0
C30 C 0.82937 0.11263 0.29893 0.0
O31 O 0.85875 0.13452 0.29886 0.0
H32 H 0.89006 0.20443 0.29393 0.0
H33 H 0.80345 0.18191 0.31508 0.0
N34 N 0.7909 0.16157 0.27068 0.0
N35 N 0.74491 0.15779 0.26501 0.0
C36 C 0.76163 0.15094 0.27655 0.0
C37 C 0.79275 0.17581 0.25511 0.0
C38 C 0.76458 0.17348 0.25157 0.0
C39 C 0.85204 0.15771 0.2476 0.0
O40 O 0.82464 0.13435 0.2432 0.0
H41 H 0.75277 0.13834 0.28891 0.0
H42 H 0.81335 0.18738 0.24695 0.0
O43 O 0.80968 0.11766 0.29099 0.0
H44 H 0.84738 0.22219 0.33718 0.0
H45 H 0.75924 0.18327 0.24014 0.0
Cu46 Cu 0.68601 0.80557 0.44048 0.0
N47 N 0.673 0.82489 0.45696 0.0
N48 N 0.67484 0.86277 0.47395 0.0
C49 C 0.68869 0.85541 0.4609 0.0
C50 C 0.64935 0.83573 0.47841 0.0
C51 C 0.6482 0.81241 0.46784 0.0
O52 O 0.70601 0.83517 0.42117 0.0
C53 C 0.70477 0.77787 0.46632 0.0
O54 O 0.67612 0.76755 0.47161 0.0
H55 H 0.71041 0.87178 0.45467 0.0
H56 H 0.63078 0.78804 0.46828 0.0
N57 N 0.65241 0.77018 0.43019 0.0
N58 N 0.6092 0.72448 0.42503 0.0
C59 C 0.62785 0.74516 0.43758 0.0
C60 C 0.64899 0.76512 0.41247 0.0
C61 C 0.62253 0.73714 0.40925 0.0
C62 C 0.73381 0.8578 0.42132 0.0
O63 O 0.75196 0.86118 0.43493 0.0
H64 H 0.62397 0.74193 0.45181 0.0
H65 H 0.66478 0.78081 0.40254 0.0
O66 O 0.71433 0.79493 0.45247 0.0
H67 H 0.63274 0.833 0.48855 0.0
H68 H 0.61361 0.72715 0.39622 0.0
Cu69 Cu 0.8899 0.66314 0.61235 0.0
N70 N 0.86632 0.66268 0.63179 0.0
N71 N 0.83793 0.67391 0.65011 0.0
C72 C 0.85433 0.68124 0.63477 0.0
C73 C 0.83996 0.64998 0.65707 0.0
C74 C 0.85747 0.64314 0.64575 0.0
O75 O 0.881 0.68243 0.59208 0.0
C76 C 0.94551 0.71601 0.62234 0.0
O77 O 0.92966 0.72955 0.61783 0.0
H78 H 0.85765 0.69974 0.62586 0.0
H79 H 0.86309 0.62495 0.64743 0.0
N80 N 0.87768 0.6217 0.60684 0.0
N81 N 0.87618 0.57692 0.60056 0.0
C82 C 0.89458 0.60784 0.60355 0.0
C83 C 0.84787 0.59871 0.60616 0.0
C84 C 0.84685 0.5713 0.60224 0.0
C85 C 0.85272 0.67329 0.58825 0.0
O86 O 0.83084 0.65095 0.59778 0.0
H87 H 0.9197 0.62007 0.60343 0.0
H88 H 0.82811 0.60148 0.60886 0.0
O89 O 0.93312 0.6868 0.62003 0.0
H90 H 0.82897 0.63778 0.66925 0.0
H91 H 0.82605 0.54871 0.60135 0.0
Cu92 Cu 0.23332 0.88811 0.77582 0.0
N93 N 0.21344 0.86305 0.79541 0.0
N94 N 0.17569 0.83263 0.8143 0.0
C95 C 0.18262 0.84691 0.79827 0.0
C96 C 0.2033 0.84011 0.82177 0.0
C97 C 0.22655 0.85887 0.81006 0.0
O98 O 0.2013 0.87766 0.75771 0.0
C99 C 0.2355 0.94244 0.78799 0.0
O100 O 0.20552 0.92586 0.78483 0.0
H101 H 0.16571 0.84652 0.789 0.0
H102 H 0.25129 0.86916 0.81217 0.0
N103 N 0.26248 0.87817 0.76712 0.0
N104 N 0.30533 0.87517 0.76258 0.0
C105 C 0.29288 0.89034 0.77114 0.0
C106 C 0.25561 0.85473 0.75568 0.0
C107 C 0.28186 0.85287 0.75282 0.0
C108 C 0.20647 0.8831 0.7411 0.0
O109 O 0.23527 0.89914 0.73548 0.0
H110 H 0.30529 0.90925 0.78051 0.0
H111 H 0.23286 0.83977 0.74998 0.0
O112 O 0.25257 0.93099 0.78405 0.0
H113 H 0.2065 0.83261 0.83476 0.0
H114 H 0.28347 0.83631 0.74417 0.0
Cu115 Cu 0.36534 0.22421 0.9459 0.0
N116 N 0.37117 0.20236 0.96428 0.0
N117 N 0.36335 0.16289 0.9819 0.0
C118 C 0.35245 0.17209 0.96808 0.0
C119 C 0.39001 0.18843 0.98696 0.0
C120 C 0.39486 0.2127 0.976 0.0
O121 O 0.34338 0.19353 0.92719 0.0
C122 C 0.34795 0.25642 0.9698 0.0
O123 O 0.37327 0.26118 0.97806 0.0
H124 H 0.33117 0.15719 0.96087 0.0
H125 H 0.4144 0.23616 0.97641 0.0
N126 N 0.40428 0.25429 0.93726 0.0
N127 N 0.44984 0.29765 0.93251 0.0
C128 C 0.422 0.28498 0.94085 0.0
C129 C 0.4214 0.24753 0.92629 0.0
C130 C 0.44933 0.27407 0.92332 0.0
C131 C 0.34274 0.19964 0.91074 0.0
O132 O 0.35575 0.22876 0.90566 0.0
H133 H 0.41504 0.29751 0.94976 0.0
H134 H 0.41411 0.22464 0.921 0.0
O135 O 0.34071 0.24184 0.95496 0.0
H136 H 0.40527 0.18937 0.99756 0.0
H137 H 0.46786 0.27583 0.91498 0.0
Cu138 Cu 0.67014 0.87521 0.75901 0.0
N139 N 0.66374 0.84508 0.74199 0.0
N140 N 0.67247 0.81324 0.72504 0.0
C141 C 0.68004 0.83037 0.74018 0.0
C142 C 0.65002 0.81688 0.71725 0.0
C143 C 0.64475 0.83657 0.72772 0.0
O144 O 0.68774 0.86737 0.7804 0.0
C145 C 0.71825 0.92054 0.73791 0.0
O146 O 0.72394 0.89775 0.73558 0.0
H147 H 0.69794 0.83317 0.74945 0.0
H148 H 0.62921 0.84523 0.72474 0.0
N149 N 0.63125 0.86865 0.76597 0.0
N150 N 0.5861 0.86781 0.76891 0.0
C151 C 0.61383 0.8809 0.7604 0.0
C152 C 0.61409 0.84749 0.77838 0.0
C153 C 0.58643 0.84693 0.78023 0.0
C154 C 0.71475 0.87099 0.78246 0.0
O155 O 0.73529 0.88376 0.76966 0.0
H156 H 0.621 0.89843 0.75012 0.0
H157 H 0.62125 0.83325 0.78551 0.0
O158 O 0.69619 0.91633 0.7483 0.0
H159 H 0.63937 0.80742 0.70442 0.0
H160 H 0.56802 0.83237 0.78938 0.0
Cu161 Cu 0.80945 0.66972 0.92522 0.0
N162 N 0.83253 0.66199 0.90865 0.0
N163 N 0.87243 0.66964 0.89154 0.0
C164 C 0.8628 0.68083 0.90498 0.0
C165 C 0.84714 0.64265 0.88659 0.0
C166 C 0.82256 0.63798 0.8972 0.0
O167 O 0.83827 0.69267 0.94461 0.0
C168 C 0.77224 0.69803 0.91583 0.0
O169 O 0.7539 0.68324 0.9293 0.0
H170 H 0.87718 0.7028 0.9117 0.0
H171 H 0.79898 0.61872 0.89646 0.0
N172 N 0.77745 0.63136 0.93351 0.0
N173 N 0.73349 0.58569 0.93656 0.0
C174 C 0.74752 0.61362 0.92825 0.0
C175 C 0.78227 0.61404 0.94543 0.0
C176 C 0.75535 0.58606 0.94738 0.0
C177 C 0.83098 0.69143 0.961 0.0
O178 O 0.80159 0.67569 0.96558 0.0
H179 H 0.7367 0.62043 0.91805 0.0
H180 H 0.80426 0.62107 0.95193 0.0
O181 O 0.79562 0.6949 0.91273 0.0
H182 H 0.84643 0.62739 0.87606 0.0
H183 H 0.75219 0.56724 0.95598 0.0
Cu184 Cu 0.14581 0.8045 0.09373 0.0
N185 N 0.17725 0.82202 0.07668 0.0
N186 N 0.21214 0.85894 0.05877 0.0
C187 C 0.19537 0.85275 0.07389 0.0
C188 C 0.20435 0.83091 0.0518 0.0
C189 C 0.18278 0.80819 0.06286 0.0
O190 O 0.15885 0.83386 0.11357 0.0
C191 C 0.08038 0.7791 0.08707 0.0
O192 O 0.07593 0.7641 0.10218 0.0
H193 H 0.1946 0.87022 0.08212 0.0
H194 H 0.17071 0.78345 0.06041 0.0
N195 N 0.14105 0.76743 0.10311 0.0
N196 N 0.13965 0.72228 0.10769 0.0
C197 C 0.14254 0.7436 0.09545 0.0
C198 C 0.1367 0.76064 0.12061 0.0
C199 C 0.13587 0.73299 0.12348 0.0
C200 C 0.15714 0.85849 0.11428 0.0
O201 O 0.14346 0.86468 0.10121 0.0
H202 H 0.14648 0.74225 0.08137 0.0
H203 H 0.13469 0.77515 0.13066 0.0
O204 O 0.10797 0.79762 0.0819 0.0
H205 H 0.21274 0.82707 0.03929 0.0
H206 H 0.13274 0.72164 0.13625 0.0
Cu207 Cu 0.37969 0.15678 0.25496 0.0
N208 N 0.379 0.1816 0.23651 0.0
N209 N 0.36517 0.20969 0.21967 0.0
C210 C 0.35917 0.19233 0.23456 0.0
C211 C 0.38964 0.20969 0.21195 0.0
C212 C 0.39811 0.19237 0.22238 0.0
O213 O 0.3623 0.16553 0.27616 0.0
C214 C 0.36191 0.1042 0.23333 0.0
O215 O 0.3895 0.12208 0.22641 0.0
H216 H 0.34057 0.18725 0.24381 0.0
H217 H 0.417 0.18805 0.2199 0.0
N218 N 0.42134 0.1681 0.25915 0.0
N219 N 0.46602 0.16925 0.26512 0.0
C220 C 0.43491 0.15102 0.26283 0.0
C221 C 0.44474 0.19776 0.25885 0.0
C222 C 0.47209 0.19856 0.26258 0.0
C223 C 0.37281 0.19383 0.28062 0.0
O224 O 0.39544 0.21562 0.2712 0.0
H225 H 0.42234 0.12595 0.26391 0.0
H226 H 0.44218 0.21756 0.25581 0.0
O227 O 0.35383 0.11399 0.24685 0.0
H228 H 0.40097 0.22177 0.1998 0.0
H229 H 0.4949 0.21915 0.26297 0.0
Cu230 Cu 0.24079 0.35944 0.42946 0.0
N231 N 0.22069 0.37181 0.41311 0.0
N232 N 0.18209 0.36927 0.3965 0.0
C233 C 0.18999 0.35609 0.40969 0.0
C234 C 0.20895 0.39438 0.3914 0.0
C235 C 0.23273 0.39596 0.40174 0.0
O236 O 0.21175 0.33908 0.44896 0.0
C237 C 0.26888 0.34114 0.40356 0.0
O238 O 0.27877 0.36967 0.39815 0.0
H239 H 0.17384 0.33477 0.41636 0.0
H240 H 0.25709 0.41318 0.40078 0.0
N241 N 0.276 0.39358 0.43952 0.0
N242 N 0.32162 0.43706 0.44434 0.0
C243 C 0.30093 0.41794 0.43193 0.0
C244 C 0.28109 0.39765 0.45722 0.0
C245 C 0.30902 0.42427 0.46023 0.0
C246 C 0.18873 0.3115 0.44856 0.0
O247 O 0.18467 0.29388 0.43457 0.0
H248 H 0.30413 0.42132 0.41767 0.0
H249 H 0.26549 0.38215 0.46728 0.0
O250 O 0.25192 0.33151 0.41744 0.0
H251 H 0.21127 0.41036 0.38093 0.0
H252 H 0.31908 0.43364 0.47319 0.0
Cu253 Cu 0.88742 0.21921 0.58988 0.0
N254 N 0.85629 0.20109 0.57252 0.0
N255 N 0.82101 0.16423 0.55456 0.0
C256 C 0.83797 0.17036 0.56968 0.0
C257 C 0.82873 0.1923 0.54775 0.0
C258 C 0.85049 0.21499 0.55888 0.0
O259 O 0.87543 0.1899 0.60963 0.0
C260 C 0.92934 0.21303 0.56691 0.0
O261 O 0.90423 0.18732 0.56204 0.0
H262 H 0.83875 0.15288 0.57787 0.0
H263 H 0.86229 0.23981 0.55673 0.0
N264 N 0.88936 0.25498 0.59938 0.0
N265 N 0.89554 0.3023 0.6038 0.0
C266 C 0.89565 0.28208 0.59168 0.0
C267 C 0.88498 0.2582 0.61678 0.0
C268 C 0.88873 0.28716 0.61954 0.0
C269 C 0.87859 0.16612 0.61056 0.0
O270 O 0.89276 0.16041 0.59762 0.0
H271 H 0.90064 0.28701 0.57762 0.0
H272 H 0.87944 0.24059 0.62681 0.0
O273 O 0.92739 0.22974 0.57919 0.0
H274 H 0.82003 0.1962 0.53535 0.0
H275 H 0.88611 0.29615 0.63218 0.0
H276 H 0.16323 0.69761 0.13064 0.0
H277 H 0.16472 0.64971 0.12702 0.0
H278 H 0.12107 0.63525 0.07531 0.0
H279 H 0.12016 0.68388 0.07879 0.0
H280 H 0.11873 0.59133 0.12367 0.0
H281 H 0.19312 0.62345 0.06342 0.0
H282 H 0.18787 0.65144 0.07592 0.0
H283 H 0.15846 0.62555 0.06047 0.0
C284 C 0.15395 0.68428 0.11848 0.0
C285 C 0.14153 0.69454 0.10501 0.0
C286 C 0.15484 0.65686 0.11641 0.0
C287 C 0.14326 0.63887 0.10083 0.0
C288 C 0.13079 0.64901 0.0873 0.0
H289 H 0.11297 0.44785 0.09929 0.0
H290 H 0.10397 0.49203 0.09977 0.0
C291 C 0.13021 0.67676 0.0893 0.0
C292 C 0.14395 0.60936 0.09916 0.0
H293 H 0.17274 0.57223 0.07405 0.0
C294 C 0.13047 0.58711 0.11278 0.0
C295 C 0.15947 0.6039 0.08504 0.0
C296 C 0.17582 0.62743 0.07046 0.0
C297 C 0.1326 0.56 0.11289 0.0
C298 C 0.1479 0.55441 0.09869 0.0
C299 C 0.16084 0.57636 0.08488 0.0
C300 C 0.15268 0.52714 0.09844 0.0
C301 C 0.11958 0.53831 0.12861 0.0
C302 C 0.1829 0.53196 0.09716 0.0
C303 C 0.18798 0.50682 0.09663 0.0
C304 C 0.16298 0.47613 0.09743 0.0
C305 C 0.13269 0.47121 0.09888 0.0
C306 C 0.12757 0.49648 0.09919 0.0
H307 H 0.11608 0.54987 0.14036 0.0
H308 H 0.09668 0.51821 0.12488 0.0
H309 H 0.13514 0.5294 0.13261 0.0
H310 H 0.2027 0.55531 0.09663 0.0
H311 H 0.21161 0.51143 0.09574 0.0
H312 H 0.70502 0.14881 0.23802 0.0
H313 H 0.65397 0.14413 0.24028 0.0
H314 H 0.66116 0.14688 0.29769 0.0
H315 H 0.71271 0.15183 0.29552 0.0
H316 H 0.59892 0.10162 0.28221 0.0
H317 H 0.64887 0.2219 0.25643 0.0
H318 H 0.65642 0.19652 0.24298 0.0
H319 H 0.67269 0.207 0.26505 0.0
C320 C 0.6958 0.14836 0.25115 0.0
C321 C 0.71326 0.15126 0.26659 0.0
C322 C 0.66651 0.14552 0.25241 0.0
C323 C 0.65395 0.1456 0.26913 0.0
C324 C 0.67047 0.14682 0.28464 0.0
H325 H 0.51681 0.20029 0.28584 0.0
H326 H 0.56037 0.19106 0.2884 0.0
C327 C 0.6999 0.1496 0.28339 0.0
C328 C 0.62476 0.14682 0.2702 0.0
H329 H 0.59438 0.19278 0.25948 0.0
C330 C 0.59786 0.12155 0.27732 0.0
C331 C 0.62352 0.17295 0.26393 0.0
C332 C 0.65193 0.20129 0.2568 0.0
C333 C 0.5696 0.12162 0.27807 0.0
C334 C 0.56825 0.14752 0.27141 0.0
C335 C 0.59531 0.17284 0.2645 0.0
C336 C 0.53953 0.14975 0.27188 0.0
C337 C 0.54158 0.09428 0.28622 0.0
C338 C 0.51279 0.12911 0.26211 0.0
C339 C 0.48763 0.13434 0.26069 0.0
C340 C 0.48906 0.16051 0.26881 0.0
C341 C 0.51522 0.18018 0.27924 0.0
C342 C 0.54011 0.17487 0.28075 0.0
H343 H 0.5481 0.07982 0.2944 0.0
H344 H 0.5286 0.10214 0.29473 0.0
H345 H 0.52579 0.07946 0.2754 0.0
H346 H 0.51196 0.10984 0.2549 0.0
H347 H 0.4679 0.11899 0.25245 0.0
H348 H 0.5855 0.67436 0.40304 0.0
H349 H 0.53648 0.62575 0.4062 0.0
H350 H 0.51978 0.65801 0.45611 0.0
H351 H 0.56865 0.70736 0.45278 0.0
H352 H 0.51669 0.5814 0.43264 0.0
H353 H 0.43945 0.63159 0.42798 0.0
H354 H 0.47997 0.65311 0.42194 0.0
H355 H 0.46882 0.64854 0.44503 0.0
C356 C 0.57133 0.67137 0.41462 0.0
C357 C 0.58094 0.69505 0.42755 0.0
C358 C 0.54335 0.64339 0.41646 0.0
C359 C 0.52414 0.63837 0.43123 0.0
C360 C 0.53392 0.66159 0.44441 0.0
H361 H 0.37181 0.46137 0.4663 0.0
H362 H 0.42068 0.50992 0.46256 0.0
C363 C 0.56204 0.68967 0.4426 0.0
C364 C 0.49414 0.60864 0.43276 0.0
H365 H 0.4155 0.57798 0.43492 0.0
C366 C 0.49457 0.58067 0.43313 0.0
C367 C 0.46522 0.60763 0.4331 0.0
C368 C 0.46314 0.63676 0.43183 0.0
C369 C 0.46699 0.55179 0.43412 0.0
C370 C 0.43813 0.55082 0.43501 0.0
C371 C 0.43763 0.57875 0.43434 0.0
C372 C 0.4083 0.52108 0.43706 0.0
C373 C 0.46897 0.52253 0.43395 0.0
C374 C 0.38473 0.51134 0.42411 0.0
C375 C 0.35646 0.48353 0.42628 0.0
C376 C 0.35111 0.46512 0.44156 0.0
C377 C 0.37488 0.47504 0.45446 0.0
C378 C 0.40306 0.5027 0.45226 0.0
H379 H 0.49136 0.52669 0.42833 0.0
H380 H 0.46727 0.5141 0.44784 0.0
H381 H 0.44967 0.50394 0.42604 0.0
H382 H 0.38821 0.52526 0.4123 0.0
H383 H 0.3386 0.4768 0.41619 0.0
H384 H 0.84403 0.52385 0.58153 0.0
H385 H 0.85414 0.48073 0.57986 0.0
H386 H 0.93804 0.53345 0.61058 0.0
H387 H 0.9278 0.57685 0.61258 0.0
H388 H 0.93338 0.491 0.57484 0.0
H389 H 0.85174 0.43589 0.63161 0.0
H390 H 0.84099 0.45362 0.61417 0.0
H391 H 0.8732 0.47749 0.62851 0.0
C392 C 0.86478 0.52645 0.58784 0.0
C393 C 0.88488 0.55365 0.59743 0.0
C394 C 0.87062 0.50185 0.58674 0.0
C395 C 0.89673 0.50388 0.59514 0.0
C396 C 0.9178 0.53154 0.60394 0.0
H397 H 0.91894 0.34963 0.62765 0.0
H398 H 0.92226 0.39992 0.62447 0.0
C399 C 0.91197 0.55631 0.60504 0.0
C400 C 0.90003 0.47593 0.59612 0.0
H401 H 0.87085 0.40652 0.61769 0.0
C402 C 0.9199 0.47255 0.58425 0.0
C403 C 0.88239 0.45199 0.60841 0.0
C404 C 0.86091 0.45473 0.62151 0.0
C405 C 0.92231 0.44552 0.58428 0.0
C406 C 0.90419 0.42131 0.59638 0.0
C407 C 0.88466 0.42502 0.60838 0.0
C408 C 0.90533 0.39204 0.59726 0.0
C409 C 0.94446 0.44321 0.57155 0.0
C410 C 0.8951 0.3709 0.5829 0.0
C411 C 0.89298 0.34182 0.58473 0.0
C412 C 0.9008 0.33331 0.601 0.0
C413 C 0.91211 0.35509 0.61506 0.0
C414 C 0.91423 0.384 0.61323 0.0
H415 H 0.96157 0.46623 0.566 0.0
H416 H 0.95718 0.43305 0.57828 0.0
H417 H 0.93111 0.42773 0.56025 0.0
H418 H 0.88762 0.37637 0.57053 0.0
H419 H 0.88398 0.32554 0.5737 0.0
H420 H 0.58951 0.92241 0.7597 0.0
H421 H 0.54619 0.93295 0.75889 0.0
H422 H 0.48235 0.8374 0.77227 0.0
H423 H 0.52501 0.82678 0.77297 0.0
H424 H 0.48875 0.9042 0.73876 0.0
H425 H 0.46744 0.88658 0.81147 0.0
H426 H 0.50305 0.893 0.80133 0.0
H427 H 0.46887 0.85503 0.80081 0.0
C428 C 0.56618 0.90365 0.76228 0.0
C429 C 0.5608 0.87389 0.76672 0.0
C430 C 0.54149 0.90972 0.7619 0.0
C431 C 0.51115 0.88614 0.76599 0.0
C432 C 0.50566 0.85618 0.76958 0.0
H433 H 0.32328 0.83249 0.75824 0.0
H434 H 0.376 0.84117 0.75919 0.0
C435 C 0.53014 0.85014 0.76998 0.0
C436 C 0.48483 0.89222 0.76662 0.0
H437 H 0.42551 0.88298 0.7936 0.0
C438 C 0.47531 0.90025 0.75083 0.0
C439 C 0.46737 0.88728 0.78242 0.0
C440 C 0.47736 0.8803 0.80002 0.0
C441 C 0.44767 0.90145 0.75021 0.0
C442 C 0.42929 0.89452 0.76572 0.0
C443 C 0.43966 0.88819 0.78171 0.0
C444 C 0.39761 0.89019 0.76508 0.0
C445 C 0.43737 0.90866 0.73282 0.0
C446 C 0.3923 0.91492 0.76828 0.0
C447 C 0.36198 0.91006 0.7677 0.0
C448 C 0.33658 0.88039 0.76385 0.0
C449 C 0.34222 0.85573 0.76089 0.0
C450 C 0.37236 0.86059 0.76151 0.0
H451 H 0.45529 0.91579 0.72226 0.0
H452 H 0.41577 0.8878 0.72814 0.0
H453 H 0.43195 0.92753 0.73486 0.0
H454 H 0.41158 0.93794 0.77113 0.0
H455 H 0.35849 0.92956 0.76993 0.0
H456 H 0.51087 0.31636 0.93005 0.0
H457 H 0.55441 0.36943 0.9296 0.0
H458 H 0.4914 0.40426 0.93641 0.0
H459 H 0.44737 0.35068 0.93699 0.0
H460 H 0.56531 0.41513 0.90561 0.0
H461 H 0.55708 0.45286 0.97438 0.0
H462 H 0.53633 0.4126 0.9676 0.0
H463 H 0.52267 0.43826 0.96084 0.0
C464 C 0.50616 0.33524 0.93144 0.0
C465 C 0.47555 0.32922 0.93343 0.0
C466 C 0.53115 0.36564 0.93124 0.0
C467 C 0.52633 0.39095 0.93304 0.0
C468 C 0.49583 0.38515 0.93529 0.0
H469 H 0.68057 0.5874 0.93022 0.0
H470 H 0.62744 0.54238 0.92788 0.0
C471 C 0.47067 0.35453 0.9356 0.0
C472 C 0.55347 0.42311 0.93197 0.0
H473 H 0.59812 0.48907 0.95646 0.0
C474 C 0.57223 0.4314 0.91667 0.0
C475 C 0.56253 0.4445 0.94635 0.0
C476 C 0.54381 0.43668 0.9633 0.0
C477 C 0.60024 0.45983 0.91563 0.0
C478 C 0.6099 0.48058 0.93026 0.0
C479 C 0.59054 0.47311 0.94523 0.0
C480 C 0.64166 0.50814 0.93109 0.0
C481 C 0.61988 0.46717 0.89908 0.0
C482 C 0.66707 0.50374 0.9336 0.0
C483 C 0.6971 0.52919 0.93505 0.0
C484 C 0.70251 0.55971 0.93392 0.0
C485 C 0.67709 0.56416 0.93102 0.0
C486 C 0.64681 0.53852 0.92979 0.0
H487 H 0.60634 0.45239 0.88758 0.0
H488 H 0.62991 0.49196 0.89537 0.0
H489 H 0.63939 0.46298 0.90179 0.0
H490 H 0.66361 0.48051 0.93468 0.0
H491 H 0.71619 0.52496 0.93706 0.0
H492 H 0.35913 0.22329 0.18541 0.0
H493 H 0.33245 0.25019 0.17479 0.0
H494 H 0.30737 0.2576 0.22887 0.0
H495 H 0.33457 0.23125 0.23966 0.0
H496 H 0.26817 0.2315 0.18012 0.0
H497 H 0.34868 0.34776 0.20931 0.0
H498 H 0.3594 0.31833 0.20651 0.0
H499 H 0.33415 0.3154 0.2244 0.0
C500 C 0.34825 0.23093 0.19507 0.0
C501 C 0.34911 0.22522 0.21339 0.0
C502 C 0.33286 0.24613 0.18897 0.0
C503 C 0.31827 0.25619 0.20107 0.0
C504 C 0.31886 0.25039 0.21935 0.0
H505 H 0.21785 0.35605 0.18371 0.0
H506 H 0.24352 0.32997 0.19717 0.0
C507 C 0.33414 0.23504 0.22547 0.0
C508 C 0.3019 0.27214 0.19441 0.0
H509 H 0.30414 0.34183 0.19445 0.0
C510 C 0.27599 0.25561 0.18325 0.0
C511 C 0.31208 0.30351 0.19865 0.0
C512 C 0.34023 0.32248 0.21027 0.0
C513 C 0.25992 0.26963 0.17617 0.0
C514 C 0.27053 0.30125 0.18003 0.0
C515 C 0.29613 0.31763 0.19147 0.0
C516 C 0.25583 0.3179 0.17194 0.0
C517 C 0.23148 0.2503 0.16482 0.0
C518 C 0.25493 0.32044 0.15332 0.0
C519 C 0.24033 0.3353 0.14562 0.0
C520 C 0.22657 0.34823 0.15637 0.0
C521 C 0.22836 0.34651 0.17506 0.0
C522 C 0.24289 0.33149 0.18276 0.0
H523 H 0.22134 0.22508 0.16744 0.0
H524 H 0.2134 0.25668 0.16724 0.0
H525 H 0.23804 0.25438 0.15051 0.0
H526 H 0.26553 0.31089 0.14472 0.0
H527 H 0.23996 0.33681 0.13121 0.0
H528 H 0.89261 0.2299 0.3532 0.0
H529 H 0.94428 0.25873 0.36687 0.0
H530 H 0.98572 0.28286 0.31462 0.0
H531 H 0.93413 0.25439 0.30086 0.0
H532 H 0.99402 0.24536 0.35985 0.0
H533 H 0.02674 0.36672 0.34299 0.0
H534 H 0.98691 0.33531 0.34315 0.0
H535 H 1.01186 0.33917 0.32489 0.0
C536 C 0.91265 0.24181 0.34462 0.0
C537 C 0.90924 0.23985 0.32593 0.0
C538 C 0.94216 0.25812 0.35245 0.0
C539 C 0.96877 0.27314 0.34176 0.0
C540 C 0.96545 0.27176 0.32312 0.0
H541 H 0.16766 0.37454 0.36221 0.0
H542 H 0.11557 0.35155 0.34908 0.0
C543 C 0.93598 0.25526 0.31528 0.0
C544 C 1.00009 0.28864 0.35005 0.0
H545 H 0.06596 0.35906 0.35572 0.0
C546 C 1.00972 0.27024 0.35906 0.0
C547 C 1.02056 0.32103 0.34881 0.0
C548 C 1.01105 0.34187 0.33956 0.0
C549 C 0.03952 0.28327 0.36663 0.0
C550 C 0.05996 0.31579 0.3656 0.0
C551 C 0.05028 0.33419 0.35656 0.0
C552 C 0.09148 0.33102 0.37376 0.0
C553 C 0.04909 0.2619 0.37517 0.0
C554 C 0.09528 0.32786 0.39208 0.0
C555 C 0.12498 0.34079 0.39955 0.0
C556 C 0.15153 0.35761 0.38894 0.0
C557 C 0.14768 0.36185 0.37075 0.0
C558 C 0.11793 0.34863 0.36323 0.0
H559 H 0.03472 0.23764 0.37027 0.0
H560 H 0.07387 0.26978 0.37251 0.0
H561 H 0.04587 0.26175 0.38984 0.0
H562 H 0.07525 0.31521 0.4006 0.0
H563 H 0.12717 0.33767 0.41368 0.0
H564 H 0.78864 0.10875 0.57128 0.0
H565 H 0.76068 0.05729 0.55724 0.0
H566 H 0.78276 0.09981 0.50522 0.0
H567 H 0.81105 0.15126 0.51912 0.0
H568 H 0.70925 0.03286 0.53006 0.0
H569 H 0.81788 0.0383 0.50683 0.0
H570 H 0.81758 0.06293 0.52447 0.0
H571 H 0.81353 0.07117 0.50163 0.0
C572 C 0.7875 0.10715 0.55686 0.0
C573 C 0.80225 0.13414 0.54633 0.0
C574 C 0.77138 0.07776 0.54887 0.0
C575 C 0.76996 0.07479 0.53022 0.0
C576 C 0.78383 0.10164 0.51966 0.0
H577 H 0.70803 0.91851 0.45773 0.0
H578 H 0.72915 0.96985 0.47141 0.0
C579 C 0.79977 0.13105 0.52763 0.0
C580 C 0.7549 0.04359 0.52179 0.0
H581 H 0.77063 0.99467 0.49795 0.0
C582 C 0.72259 0.02441 0.52304 0.0
C583 C 0.77243 0.03275 0.51265 0.0
C584 C 0.80731 0.05217 0.51136 0.0
C585 C 0.70721 0.99477 0.51507 0.0
C586 C 0.72478 0.98379 0.50602 0.0
C587 C 0.75714 1.00307 0.50484 0.0
C588 C 0.71028 0.95245 0.49762 0.0
C589 C 0.67226 0.9759 0.51605 0.0
C590 C 0.69261 0.92548 0.50777 0.0
C591 C 0.68035 0.89606 0.49993 0.0
C592 C 0.68597 0.89301 0.48185 0.0
C593 C 0.70357 0.92005 0.47172 0.0
C594 C 0.71556 0.94942 0.47951 0.0
H595 H 0.66199 0.99085 0.51859 0.0
H596 H 0.66217 0.96264 0.50351 0.0
H597 H 0.66547 0.95915 0.52722 0.0
H598 H 0.68891 0.92714 0.52187 0.0
H599 H 0.66732 0.8757 0.50815 0.0
H600 H 0.82425 0.6766 0.68485 0.0
H601 H 0.79435 0.69912 0.69689 0.0
H602 H 0.78303 0.72552 0.64381 0.0
H603 H 0.81286 0.70296 0.63165 0.0
H604 H 0.80014 0.77261 0.66852 0.0
H605 H 0.70061 0.66296 0.6934 0.0
H606 H 0.73751 0.67007 0.70162 0.0
H607 H 0.72893 0.66365 0.67814 0.0
C608 C 0.81515 0.6869 0.6757 0.0
C609 C 0.82085 0.68781 0.65726 0.0
C610 C 0.79801 0.69973 0.68261 0.0
C611 C 0.78598 0.71349 0.67121 0.0
C612 C 0.79199 0.71488 0.65284 0.0
H613 H 0.6489 0.76557 0.70119 0.0
H614 H 0.67618 0.74146 0.6874 0.0
C615 C 0.80921 0.70212 0.64592 0.0
C616 C 0.76778 0.72711 0.67853 0.0
H617 H 0.70327 0.70994 0.70292 0.0
C618 C 0.77887 0.75889 0.67596 0.0
C619 C 0.73979 0.70907 0.688 0.0
C620 C 0.72579 0.67448 0.69033 0.0
C621 C 0.76315 0.7733 0.683 0.0
C622 C 0.7359 0.75553 0.69315 0.0
C623 C 0.72435 0.72358 0.69531 0.0
C624 C 0.71921 0.76977 0.70173 0.0
C625 C 0.77571 0.80735 0.67937 0.0
C626 C 0.73415 0.79323 0.71459 0.0
C627 C 0.71872 0.80716 0.72241 0.0
C628 C 0.68787 0.79775 0.71762 0.0
C629 C 0.67273 0.77368 0.70501 0.0
C630 C 0.68823 0.75976 0.69719 0.0
H631 H 0.79121 0.81532 0.66754 0.0
H632 H 0.75659 0.81232 0.67711 0.0
H633 H 0.78945 0.82112 0.69108 0.0
H634 H 0.75786 0.8009 0.71855 0.0
H635 H 0.73131 0.82578 0.7319 0.0
H636 H 0.92724 0.708 0.90791 0.0
H637 H 0.97882 0.7343 0.89428 0.0
H638 H 0.93866 0.69056 0.84382 0.0
H639 H 0.88694 0.66449 0.85729 0.0
H640 H 1.00972 0.70533 0.87508 0.0
H641 H 0.99003 0.78639 0.83348 0.0
H642 H 0.96637 0.76665 0.85263 0.0
H643 H 0.96094 0.74592 0.83208 0.0
C644 C 0.92934 0.70412 0.89389 0.0
C645 C 0.90294 0.68427 0.88367 0.0
C646 C 0.95884 0.71901 0.88616 0.0
C647 C 0.96246 0.7146 0.86802 0.0
C648 C 0.93627 0.6945 0.85781 0.0
H649 H 0.12126 0.79786 0.79671 0.0
H650 H 0.06953 0.76787 0.80981 0.0
C651 C 0.90678 0.67942 0.86556 0.0
C652 C 0.99366 0.73109 0.85979 0.0
H653 H 0.03769 0.78773 0.82976 0.0
C654 C 1.01592 0.72337 0.86518 0.0
C655 C 1.00152 0.75449 0.84684 0.0
C656 C 0.97862 0.76414 0.84094 0.0
C657 C 0.04585 0.73821 0.85778 0.0
C658 C 0.05391 0.76197 0.84499 0.0
C659 C 0.03151 0.76954 0.83956 0.0
C660 C 0.0855 0.77949 0.83715 0.0
C661 C 0.06827 0.72779 0.86345 0.0
C662 C 0.11168 0.79623 0.84813 0.0
C663 C 0.14129 0.8133 0.84066 0.0
C664 C 0.14527 0.81435 0.82204 0.0
C665 C 0.11896 0.79775 0.81108 0.0
C666 C 0.0894 0.78051 0.81856 0.0
H667 H 0.05593 0.70386 0.86895 0.0
H668 H 0.08288 0.72845 0.8521 0.0
H669 H 0.08376 0.74356 0.87407 0.0
H670 H 0.10919 0.79654 0.86248 0.0
H671 H 0.16097 0.82628 0.84946 0.0
H672 H 0.24508 0.9142 0.07579 0.0
H673 H 0.27281 0.96577 0.06209 0.0
H674 H 0.24907 0.92376 1.00979 0.0
H675 H 0.22103 0.87216 0.02337 0.0
H676 H 0.32345 0.98983 0.03484 0.0
H677 H 0.21514 0.98621 1.01228 0.0
H678 H 0.21536 0.96119 0.02965 0.0
H679 H 0.21903 0.95316 1.0067 0.0
C680 C 0.24581 0.91594 0.06138 0.0
C681 C 0.23069 0.88906 0.05069 0.0
C682 C 0.26177 0.94539 0.05358 0.0
C683 C 0.26266 0.94853 0.03495 0.0
C684 C 0.24839 0.92178 0.02421 0.0
H685 H 0.32768 0.10806 0.9648 0.0
H686 H 0.30447 0.05598 0.97759 0.0
C687 C 0.2326 0.89231 0.032 0.0
C688 C 0.27786 0.97983 0.02679 0.0
H689 H 0.26254 0.02994 1.00395 0.0
C690 C 0.31021 0.99869 0.02808 0.0
C691 C 0.26046 0.99118 0.01796 0.0
C692 C 0.22554 0.97207 1.0166 0.0
C693 C 0.32574 0.02854 0.02054 0.0
C694 C 0.3083 0.04011 1.01189 0.0
C695 C 0.27591 0.02111 1.01057 0.0
C696 C 0.32307 0.07185 1.00414 0.0
C697 C 0.36072 0.04705 0.02155 0.0
C698 C 0.34097 0.09817 1.01482 0.0
C699 C 0.35436 0.12799 1.00752 0.0
C700 C 0.34972 0.13213 0.98943 0.0
C701 C 0.33146 0.10573 0.97881 0.0
C702 C 0.31829 0.07592 0.98609 0.0
H703 H 0.37078 0.0318 0.02366 0.0
H704 H 0.37077 0.06074 1.00919 0.0
H705 H 0.36782 0.06341 0.03301 0.0
H706 H 0.34427 0.09571 0.0289 0.0
H707 H 0.36784 0.14784 1.01612 0.0
H708 H 0.20359 0.32443 0.08364 0.0
H709 H 0.23139 0.30842 0.06346 0.0
H710 H 0.18168 0.31685 0.0186 0.0
H711 H 0.15434 0.33383 0.0387 0.0
H712 H 0.21255 0.26014 0.04104 0.0
H713 H 0.27 0.36967 1.00209 0.0
H714 H 0.24947 0.36601 0.02257 0.0
H715 H 0.22839 0.35059 1.00203 0.0
C716 C 0.19844 0.32282 0.06948 0.0
C717 C 0.17685 0.33068 0.06279 0.0
C718 C 0.2144 0.31365 0.05794 0.0
C719 C 0.20917 0.31201 0.03943 0.0
C720 C 0.1868 0.31874 0.03275 0.0
H721 H 0.29408 0.25195 0.95668 0.0
H722 H 0.25858 0.26472 0.97236 0.0
C723 C 0.17097 0.32821 0.0443 0.0
C724 C 0.22728 0.30329 0.02729 0.0
H725 H 0.27886 0.32946 0.99261 0.0
C726 C 0.22691 0.27528 0.03041 0.0
C727 C 0.24616 0.32305 1.01341 0.0
C728 C 0.24885 0.35414 1.00988 0.0
C729 C 0.24507 0.2667 0.02021 0.0
C730 C 0.26411 0.28658 1.00652 0.0
C731 C 0.26402 0.3142 1.00306 0.0
C732 C 0.28595 0.28 0.9966 0.0
C733 C 0.24421 0.23661 0.02425 0.0
C734 C 0.31325 0.28488 1.00495 0.0
C735 C 0.33361 0.27788 0.99604 0.0
C736 C 0.32704 0.26567 0.97858 0.0
C737 C 0.29985 0.26129 0.97011 0.0
C738 C 0.27954 0.26855 0.97903 0.0
H739 H 0.22477 0.22152 0.03329 0.0
H740 H 0.24191 0.22369 1.0117 0.0
H741 H 0.26635 0.24176 0.03076 0.0
H742 H 0.31867 0.29386 0.01847 0.0
H743 H 0.35428 0.28157 1.00301 0.0
H744 H 0.91003 0.20852 0.25182 0.0
H745 H 0.95056 0.23378 0.22933 0.0
H746 H 0.89253 0.16435 0.19063 0.0
H747 H 0.85153 0.13919 0.21298 0.0
H748 H 0.98265 0.21252 0.21046 0.0
H749 H 0.91615 0.24441 0.16414 0.0
H750 H 0.90342 0.23107 0.18659 0.0
H751 H 0.89723 0.20369 0.16913 0.0
C752 C 0.90582 0.19854 0.23854 0.0
C753 C 0.87738 0.17187 0.23421 0.0
C754 C 0.92906 0.21306 0.22568 0.0
C755 C 0.92443 0.20135 0.20818 0.0
C756 C 0.89639 0.17428 0.20391 0.0
H757 H 0.07402 0.25197 0.13193 0.0
H758 H 0.02972 0.22448 0.15188 0.0
C759 C 0.87305 0.15976 0.21677 0.0
C760 C 0.94923 0.21729 0.19457 0.0
H761 H 0.96493 0.25303 0.15385 0.0
C762 C 0.97876 0.22137 0.19809 0.0
C763 C 0.94433 0.2293 0.17853 0.0
C764 C 0.91367 0.22721 0.1744 0.0
C765 C 1.00335 0.23677 0.18598 0.0
C766 C 0.99819 0.24789 0.16968 0.0
C767 C 0.96879 0.2442 0.16624 0.0
C768 C 1.02324 0.26382 0.15621 0.0
C769 C 0.03485 0.24158 0.19098 0.0
C770 C 0.03342 0.29467 0.15126 0.0
C771 C 0.05863 0.31043 0.13964 0.0
C772 C 0.0741 0.29558 0.13275 0.0
C773 C 0.06288 0.26424 0.13711 0.0
C774 C 0.03765 0.24851 0.14862 0.0
H775 H 0.03702 0.23941 0.2056 0.0
H776 H 0.03827 0.22365 0.18425 0.0
H777 H 0.05368 0.26479 0.18667 0.0
H778 H 1.02251 0.30689 0.15684 0.0
H779 H 0.06663 0.33453 0.13656 0.0
H780 H 0.77046 0.06242 0.30282 0.0
H781 H 0.75426 0.01725 0.32231 0.0
H782 H 0.84927 0.053 0.33867 0.0
H783 H 0.8657 0.09798 0.31932 0.0
H784 H 0.77725 0.97207 0.32358 0.0
H785 H 0.79912 0.04101 0.38588 0.0
H786 H 0.79443 0.05459 0.36439 0.0
H787 H 0.83031 0.05628 0.37 0.0
C788 C 0.78794 0.06055 0.31046 0.0
C789 C 0.81937 0.08396 0.30956 0.0
C790 C 0.77863 0.03472 0.32158 0.0
C791 C 0.80052 0.03201 0.3321 0.0
C792 C 0.83196 0.05485 0.33084 0.0
H793 H 0.79178 0.9087 0.41687 0.0
H794 H 0.80819 0.94954 0.39436 0.0
C795 C 0.84129 0.08052 0.3197 0.0
C796 C 0.79062 1.00573 0.34473 0.0
H797 H 0.78641 0.98877 0.38917 0.0
C798 C 0.77909 0.97561 0.33792 0.0
C799 C 0.79324 1.0105 0.36342 0.0
C800 C 0.80471 0.04227 0.37145 0.0
C801 C 0.77066 0.95018 0.34934 0.0
C802 C 0.77313 0.95491 0.36808 0.0
C803 C 0.7846 0.98509 0.37483 0.0
C804 C 0.76359 0.92896 0.381 0.0
C805 C 0.75999 0.91866 0.34118 0.0
C806 C 0.73306 0.90372 0.38103 0.0
C807 C 0.72368 0.88022 0.3938 0.0
C808 C 0.74452 0.88161 0.40701 0.0
C809 C 0.77515 0.90681 0.40689 0.0
C810 C 0.78455 0.93023 0.39404 0.0
H811 H 0.76829 0.9206 0.32722 0.0
H812 H 0.7683 0.90539 0.34908 0.0
H813 H 0.73424 0.90526 0.34088 0.0
H814 H 0.7162 0.90254 0.37143 0.0
H815 H 0.69984 0.86132 0.39355 0.0
H816 H 0.79451 0.66081 0.57964 0.0
H817 H 0.77886 0.68519 0.55696 0.0
H818 H 0.87437 0.74373 0.54154 0.0
H819 H 0.89055 0.7193 0.56451 0.0
H820 H 0.80401 0.75433 0.55483 0.0
H821 H 0.82159 0.70073 0.49382 0.0
H822 H 0.81529 0.68234 0.51539 0.0
H823 H 0.85141 0.71687 0.51079 0.0
C824 C 0.81235 0.67875 0.57143 0.0
C825 C 0.84386 0.68806 0.57393 0.0
C826 C 0.80328 0.69269 0.55845 0.0
C827 C 0.82539 0.71612 0.54751 0.0
C828 C 0.85691 0.72547 0.54977 0.0
H829 H 0.767 0.79818 0.46131 0.0
H830 H 0.80079 0.78722 0.48027 0.0
C831 C 0.86611 0.71156 0.56291 0.0
C832 C 0.81484 0.73106 0.53428 0.0
H833 H 0.79588 0.72919 0.4902 0.0
C834 C 0.80271 0.74928 0.54065 0.0
C835 C 0.81334 0.72461 0.51579 0.0
C836 C 0.82599 0.70502 0.50839 0.0
C837 C 0.788 0.76018 0.52915 0.0
C838 C 0.78464 0.75203 0.51083 0.0
C839 C 0.7983 0.73526 0.50426 0.0
C840 C 0.76451 0.7582 0.49883 0.0
C841 C 0.77555 0.77979 0.53683 0.0
C842 C 0.73283 0.74494 0.5027 0.0
C843 C 0.7136 0.75109 0.49198 0.0
C844 C 0.72549 0.77054 0.47699 0.0
C845 C 0.75712 0.78319 0.47279 0.0
C846 C 0.77645 0.77696 0.4836 0.0
H847 H 0.7882 0.79195 0.54921 0.0
H848 H 0.77729 0.79734 0.52706 0.0
H849 H 0.75073 0.76458 0.54031 0.0
H850 H 0.72293 0.72983 0.51413 0.0
H851 H 0.68935 0.74068 0.49557 0.0
H852 H 0.20879 0.88968 0.70467 0.0
H853 H 0.16607 0.86346 0.68323 0.0
H854 H 0.10258 0.81667 0.72648 0.0
H855 H 0.14491 0.84321 0.74799 0.0
H856 H 0.12923 0.80185 0.6764 0.0
H857 H 0.05657 0.85061 0.69877 0.0
H858 H 0.09629 0.86634 0.70598 0.0
H859 H 0.06562 0.83228 0.71652 0.0
C860 C 0.18567 0.87411 0.70965 0.0
C861 C 0.18031 0.86876 0.72809 0.0
C862 C 0.16127 0.85903 0.69736 0.0
C863 C 0.13097 0.83837 0.70321 0.0
C864 C 0.12556 0.83303 0.72161 0.0
H865 H 0.97785 0.69403 0.64119 0.0
H866 H 0.02406 0.72398 0.6598 0.0
C867 C 0.14989 0.84817 0.73392 0.0
C868 C 0.10522 0.82164 0.69009 0.0
H869 H 0.03252 0.80708 0.67906 0.0
C870 C 0.10815 0.80315 0.6769 0.0
C871 C 0.07787 0.82362 0.69055 0.0
C872 C 0.07396 0.84453 0.7036 0.0
C873 C 0.08427 0.78613 0.66445 0.0
C874 C 0.05636 0.78706 0.66542 0.0
C875 C 0.05373 0.80606 0.67838 0.0
C876 C 0.02958 0.76879 0.65312 0.0
C877 C 0.08945 0.76776 0.65021 0.0
C878 C 1.01695 0.7838 0.64326 0.0
C879 C 0.99031 0.76669 0.6328 0.0
C880 C 0.97563 0.7341 0.63191 0.0
C881 C 0.98874 0.7191 0.64141 0.0
C882 C 1.01529 0.73625 0.65202 0.0
H883 H 0.11459 0.77684 0.64791 0.0
H884 H 0.07899 0.74325 0.65457 0.0
H885 H 0.07848 0.76821 0.63737 0.0
H886 H 0.02747 0.80884 0.64387 0.0
H887 H 0.98088 0.77903 0.62566 0.0
H888 H 0.33504 0.20359 0.87473 0.0
H889 H 0.31588 0.16172 0.85254 0.0
H890 H 0.30339 0.09645 0.89398 0.0
H891 H 0.32171 0.13787 0.91625 0.0
H892 H 0.33892 0.12527 0.84261 0.0
H893 H 0.22046 0.05123 0.86924 0.0
H894 H 0.2455 0.09061 0.87678 0.0
H895 H 0.24986 0.05943 0.88568 0.0
C896 C 0.32787 0.18025 0.87916 0.0
C897 C 0.32971 0.17411 0.89732 0.0
C898 C 0.31701 0.15634 0.86643 0.0
C899 C 0.30771 0.12576 0.87158 0.0
C900 C 0.30964 0.11962 0.88969 0.0
H901 H 0.29227 0.97558 0.80453 0.0
H902 H 0.31042 0.02135 0.82371 0.0
C903 C 0.32029 0.14344 0.90243 0.0
C904 C 0.29697 0.1005 0.85798 0.0
H905 H 0.2376 0.02776 0.84772 0.0
C906 C 0.31665 0.10403 0.84365 0.0
C907 C 0.26773 0.07294 0.85913 0.0
C908 C 0.24453 0.06841 0.87343 0.0
C909 C 0.30824 0.08054 0.83073 0.0
C910 C 0.27964 0.05236 0.83239 0.0
C911 C 0.25968 0.04916 0.84649 0.0
C912 C 0.26976 0.02583 0.81973 0.0
C913 C 0.3299 0.08642 0.8153 0.0
C914 C 0.24069 1.0127 0.81122 0.0
C915 C 0.23007 0.98625 0.80046 0.0
C916 C 0.24831 0.9723 0.7979 0.0
C917 C 0.27777 0.98591 0.80604 0.0
C918 C 0.28826 1.01223 0.81697 0.0
H919 H 0.34529 0.11168 0.8129 0.0
H920 H 0.34491 0.07647 0.81844 0.0
H921 H 0.31684 0.07543 0.80283 0.0
H922 H 0.22594 0.02267 0.81312 0.0
H923 H 0.20728 0.97641 0.79439 0.0
H924 H 0.67727 0.8423 0.81122 0.0
H925 H 0.68685 0.8163 0.83605 0.0
H926 H 0.77655 0.8419 0.81421 0.0
H927 H 0.76743 0.8684 0.78952 0.0
H928 H 0.69624 0.76698 0.83404 0.0
H929 H 0.79817 0.86623 0.86613 0.0
H930 H 0.77422 0.87139 0.84995 0.0
H931 H 0.80363 0.86293 0.84273 0.0
C932 C 0.69926 0.84283 0.81182 0.0
C933 C 0.72163 0.85758 0.79836 0.0
C934 C 0.70466 0.82787 0.82603 0.0
C935 C 0.73258 0.82743 0.82716 0.0
C936 C 0.75512 0.84249 0.81389 0.0
H937 H 0.80722 0.73338 0.88785 0.0
H938 H 0.79609 0.76476 0.86746 0.0
C939 C 0.74979 0.85753 0.79969 0.0
C940 C 0.73731 0.80961 0.84157 0.0
H941 H 0.78725 0.81551 0.87477 0.0
C942 C 0.71594 0.77767 0.84309 0.0
C943 C 0.76302 0.82353 0.8534 0.0
C944 C 0.78591 0.85796 0.85312 0.0
C945 C 0.72016 0.75911 0.85563 0.0
C946 C 0.74623 0.77291 0.86718 0.0
C947 C 0.7673 0.80494 0.8659 0.0
C948 C 0.75289 0.75426 0.88006 0.0
C949 C 0.69729 0.72466 0.85598 0.0
C950 C 0.7325 0.73817 0.89414 0.0
C951 C 0.7388 0.72011 0.90591 0.0
C952 C 0.76566 0.71784 0.90382 0.0
C953 C 0.78624 0.73444 0.88986 0.0
C954 C 0.77997 0.75249 0.87818 0.0
H955 H 0.6824 0.71673 0.84384 0.0
H956 H 0.70956 0.71129 0.85714 0.0
H957 H 0.68197 0.71919 0.86777 0.0
H958 H 0.71171 0.7396 0.89603 0.0
H959 H 0.72252 0.70777 0.91653 0.0
H960 H 0.82438 0.68359 0.99726 0.0
H961 H 0.86553 0.70141 0.01984 0.0
H962 H 0.93464 0.7464 0.97895 0.0
H963 H 0.89372 0.72862 0.95625 0.0
H964 H 0.91518 0.68666 0.01926 0.0
H965 H 0.95968 0.81374 0.01883 0.0
H966 H 0.92156 0.78576 1.01053 0.0
H967 H 0.95533 0.79596 0.99728 0.0
C968 C 0.8483 0.69764 0.99307 0.0
C969 C 0.8557 0.70469 0.97491 0.0
C970 C 0.87179 0.70773 1.006 0.0
C971 C 0.90313 0.72545 1.00111 0.0
C972 C 0.9106 0.73313 0.98307 0.0
H973 H 0.08193 0.80023 0.05312 0.0
H974 H 0.03816 0.78711 0.03314 0.0
C975 C 0.88715 0.72284 0.9701 0.0
C976 C 0.92808 0.73427 1.01466 0.0
H977 H 0.98931 0.79655 0.0349 0.0
C978 C 0.93126 0.71066 0.02281 0.0
C979 C 0.94913 0.7656 0.01916 0.0
C980 C 0.94626 0.79181 1.01113 0.0
C981 C 0.95544 0.71753 0.03498 0.0
C982 C 0.97656 0.74891 0.03954 0.0
C983 C 0.97314 0.77252 0.03148 0.0
C984 C 1.00295 0.75776 0.05215 0.0
C985 C 0.95876 0.69112 0.04231 0.0
C986 C 0.99783 0.74624 0.06968 0.0
C987 C 1.0229 0.75352 0.08114 0.0
C988 C 0.05363 0.77285 0.07538 0.0
C989 C 0.05861 0.78523 0.05802 0.0
C990 C 0.03357 0.77776 0.04655 0.0
H991 H 0.94641 0.66993 0.03387 0.0
H992 H 0.98356 0.69765 0.0433 0.0
H993 H 0.94853 0.6852 0.05587 0.0
H994 H 0.97443 0.73145 0.0745 0.0
H995 H 1.01817 0.74379 0.09446 0.0
H996 H 0.19388 0.85612 0.14075 0.0
H997 H 0.22478 0.896 0.16282 0.0
H998 H 0.18884 0.95305 0.14296 0.0
H999 H 0.15839 0.91349 0.12045 0.0
H1000 H 0.2502 0.986 0.14634 0.0
H1001 H 0.20214 0.92066 0.20893 0.0
H1002 H 0.21527 0.90124 0.19419 0.0
H1003 H 0.1834 0.90645 0.18756 0.0
C1004 C 0.19216 0.87695 0.1412 0.0
C1005 C 0.17355 0.88152 0.12879 0.0
C1006 C 0.20975 0.8997 0.15396 0.0
C1007 C 0.20883 0.92741 0.15482 0.0
C1008 C 0.18985 0.93182 0.14265 0.0
H1009 H 0.29889 0.06889 0.23854 0.0
H1010 H 0.26105 0.02575 0.21997 0.0
C1011 C 0.17238 0.90913 0.12979 0.0
C1012 C 0.22936 0.95262 0.16751 0.0
H1013 H 0.25112 0.968 0.21141 0.0
C1014 C 0.25017 0.98208 0.16058 0.0
C1015 C 0.22915 0.94778 0.18617 0.0
C1016 C 0.20606 0.91741 0.19468 0.0
C1017 C 0.27126 1.00647 0.17165 0.0
C1018 C 0.27223 1.00114 0.19016 0.0
C1019 C 0.25079 0.97198 0.1972 0.0
C1020 C 0.29532 0.02562 0.20233 0.0
C1021 C 0.29203 0.03786 0.16338 0.0
C1022 C 0.32727 0.03917 0.19905 0.0
C1023 C 0.34892 0.0639 0.20957 0.0
C1024 C 0.33916 0.07539 0.2238 0.0
C1025 C 0.30724 0.06066 0.22769 0.0
C1026 C 0.28555 0.03602 0.21705 0.0
H1027 H 0.28224 0.0406 0.15061 0.0
H1028 H 0.29566 0.05694 0.17256 0.0
H1029 H 0.31497 0.04029 0.16043 0.0
H1030 H 0.33548 0.031 0.1881 0.0
H1031 H 0.37331 0.07445 0.20629 0.0
H1032 H 0.32451 0.15611 0.30315 0.0
H1033 H 0.30072 0.17278 0.32623 0.0
H1034 H 0.36578 0.26853 0.3141 0.0
H1035 H 0.38962 0.25242 0.29134 0.0
H1036 H 0.33609 0.22204 0.35745 0.0
H1037 H 0.27231 0.25185 0.30771 0.0
H1038 H 0.28417 0.22362 0.30328 0.0
H1039 H 0.31211 0.26438 0.30244 0.0
C1040 C 0.33385 0.1807 0.3055 0.0
C1041 C 0.3589 0.2029 0.29531 0.0
C1042 C 0.32027 0.19015 0.31869 0.0
C1043 C 0.33141 0.22188 0.32175 0.0
C1044 C 0.35674 0.24394 0.31186 0.0
H1045 H 0.30762 0.35729 0.37502 0.0
H1046 H 0.31942 0.32413 0.3567 0.0
C1047 C 0.37034 0.23461 0.29884 0.0
C1048 C 0.31648 0.23267 0.33481 0.0
H1049 H 0.27747 0.27263 0.33694 0.0
C1050 C 0.3227 0.23256 0.35309 0.0
C1051 C 0.29915 0.24642 0.32901 0.0
C1052 C 0.29125 0.24647 0.30956 0.0
C1053 C 0.31351 0.24749 0.36564 0.0
C1054 C 0.29738 0.26252 0.3597 0.0
C1055 C 0.28991 0.26122 0.3415 0.0
C1056 C 0.29058 0.28224 0.37168 0.0
C1057 C 0.32265 0.24862 0.38496 0.0
C1058 C 0.27046 0.26979 0.38634 0.0
C1059 C 0.26367 0.28887 0.39698 0.0
C1060 C 0.27674 0.32067 0.39306 0.0
C1061 C 0.29704 0.33294 0.37846 0.0
C1062 C 0.30382 0.31398 0.36792 0.0
H1063 H 0.33969 0.24065 0.38682 0.0
H1064 H 0.33282 0.27258 0.39034 0.0
H1065 H 0.30169 0.23331 0.39291 0.0
H1066 H 0.25957 0.24526 0.38934 0.0
H1067 H 0.24782 0.27864 0.40807 0.0
H1068 H 0.13447 0.25561 0.45098 0.0
H1069 H 0.09355 0.23986 0.47337 0.0
H1070 H 0.14817 0.32696 0.50101 0.0
H1071 H 0.18907 0.34305 0.47865 0.0
H1072 H 0.09483 0.23423 0.51113 0.0
H1073 H 0.06533 0.32397 0.49152 0.0
H1074 H 0.0887 0.31399 0.47771 0.0
H1075 H 0.10547 0.33852 0.49695 0.0
C1076 C 0.13791 0.27137 0.46188 0.0
C1077 C 0.16501 0.30071 0.46292 0.0
C1078 C 0.11447 0.26231 0.47467 0.0
C1079 C 0.11755 0.28244 0.48869 0.0
C1080 C 0.14501 0.31129 0.49011 0.0
H1081 H 0.98504 0.26767 0.5706 0.0
H1082 H 0.03251 0.28472 0.55312 0.0
C1083 C 0.16846 0.32037 0.47735 0.0
C1084 C 0.09184 0.27342 0.50164 0.0
H1085 H 0.03893 0.29289 0.51639 0.0
C1086 C 0.08262 0.24706 0.51231 0.0
C1087 C 0.07601 0.29027 0.50322 0.0
C1088 C 0.08412 0.31812 0.49166 0.0
C1089 C 0.05805 0.23713 0.52452 0.0
C1090 C 0.04184 0.25365 0.52587 0.0
C1091 C 0.05141 0.28031 0.51541 0.0
C1092 C 1.01383 0.24272 0.53725 0.0
C1093 C 0.04987 0.20919 0.53599 0.0
C1094 C 0.98752 0.21353 0.53412 0.0
C1095 C 0.96047 0.20375 0.54405 0.0
C1096 C 0.95896 0.22302 0.55731 0.0
C1097 C 0.98544 0.25219 0.56056 0.0
C1098 C 1.01256 0.26199 0.55056 0.0
H1099 H 0.0698 0.20519 0.5374 0.0
H1100 H 0.04237 0.21186 0.54951 0.0
H1101 H 0.03047 0.18824 0.52964 0.0
H1102 H 0.98763 0.19853 0.52367 0.0
H1103 H 0.94053 0.18122 0.54109 0.0
H1104 H 0.70956 0.97108 0.73547 0.0
H1105 H 0.73671 1.01601 0.71543 0.0
H1106 H 0.79369 0.9797 0.69621 0.0
H1107 H 0.76712 0.93523 0.71598 0.0
H1108 H 0.80617 0.06109 0.71131 0.0
H1109 H 0.74859 0.9897 0.65107 0.0
H1110 H 0.73318 0.97773 0.67329 0.0
H1111 H 0.7654 0.97387 0.66599 0.0
C1112 C 0.72809 0.97287 0.7271 0.0
C1113 C 0.73595 0.94937 0.72725 0.0
C1114 C 0.74355 0.99851 0.71566 0.0
C1115 C 0.7669 1.0009 0.70417 0.0
C1116 C 0.77546 0.97809 0.70479 0.0
H1117 H 0.88023 0.11273 0.61684 0.0
H1118 H 0.85368 0.07449 0.64042 0.0
C1119 C 0.76021 0.95266 0.71617 0.0
C1120 C 0.78195 0.02652 0.69101 0.0
H1121 H 0.79116 0.0403 0.64616 0.0
C1122 C 0.80269 0.05672 0.69706 0.0
C1123 C 0.77746 0.02065 0.67245 0.0
C1124 C 0.75477 0.9888 0.66523 0.0
C1125 C 0.8199 0.08104 0.68498 0.0
C1126 C 0.81577 0.07504 0.66637 0.0
C1127 C 0.79451 0.0449 0.66039 0.0
C1128 C 0.83339 0.09943 0.65278 0.0
C1129 C 0.84317 0.11263 0.69225 0.0
C1130 C 0.83091 0.12626 0.65185 0.0
C1131 C 0.84621 0.14827 0.63842 0.0
C1132 C 0.86409 0.14378 0.6255 0.0
C1133 C 0.86674 0.117 0.62656 0.0
C1134 C 0.85151 0.09507 0.64003 0.0
H1135 H 0.84951 0.11134 0.70633 0.0
H1136 H 0.86466 0.12353 0.6841 0.0
H1137 H 0.83294 0.12792 0.69185 0.0
H1138 H 0.81653 0.12986 0.66126 0.0
H1139 H 0.84345 0.16849 0.63797 0.0
loop_
_geom_bond_atom_site_label_1
_geom_bond_atom_site_label_2
_geom_bond_distance
_geom_bond_site_symmetry_2
_ccdc_geom_bond_type
Cu0 N1 1.999 . S
Cu0 O6 1.974 . S
Cu0 N11 1.985 . S
Cu0 O20 1.959 . S
N1 Cu0 1.999 . S
N1 C3 1.263 . S
N1 C5 1.389 . S
N2 C3 1.358 . S
N2 C4 1.400 . S
C3 N1 1.263 . S
C3 N2 1.358 . S
C3 H9 0.930 . S
C4 N2 1.400 . S
C4 C5 1.351 . S
C4 H21 0.930 . S
C5 N1 1.389 . S
C5 C4 1.351 . S
C5 H10 0.930 . S
O6 Cu0 1.974 . S
O6 C16 1.282 . S
C7 O8 1.261 . S
C7 O20 1.251 . S
O8 C7 1.261 . S
H9 C3 0.930 . S
H10 C5 0.930 . S
N11 Cu0 1.985 . S
N11 C13 1.335 . S
N11 C14 1.390 . S
N12 C13 1.345 . S
N12 C15 1.336 . S
C13 N11 1.335 . S
C13 N12 1.345 . S
C13 H18 0.930 . S
C14 N11 1.390 . S
C14 C15 1.346 . S
C14 H19 0.930 . S
C15 N12 1.336 . S
C15 C14 1.346 . S
C15 H22 0.929 . S
C16 O6 1.282 . S
C16 O17 1.216 . S
O17 C16 1.216 . S
H18 C13 0.930 . S
H19 C14 0.930 . S
O20 Cu0 1.959 . S
O20 C7 1.251 . S
H21 C4 0.930 . S
H22 C15 0.929 . S
Cu23 N24 1.999 . S
Cu23 O29 1.974 . S
Cu23 N34 1.985 . S
Cu23 O43 1.959 . S
N24 Cu23 1.999 . S
N24 C26 1.263 . S
N24 C28 1.389 . S
N25 C26 1.358 . S
N25 C27 1.400 . S
C26 N24 1.263 . S
C26 N25 1.358 . S
C26 H32 0.930 . S
C27 N25 1.400 . S
C27 C28 1.351 . S
C27 H44 0.930 . S
C28 N24 1.389 . S
C28 C27 1.351 . S
C28 H33 0.930 . S
O29 Cu23 1.974 . S
O29 C39 1.282 . S
C30 O31 1.261 . S
C30 O43 1.251 . S
O31 C30 1.261 . S
H32 C26 0.930 . S
H33 C28 0.930 . S
N34 Cu23 1.985 . S
N34 C36 1.335 . S
N34 C37 1.390 . S
N35 C36 1.345 . S
N35 C38 1.336 . S
C36 N34 1.335 . S
C36 N35 1.345 . S
C36 H41 0.930 . S
C37 N34 1.390 . S
C37 C38 1.346 . S
C37 H42 0.930 . S
C38 N35 1.336 . S
C38 C37 1.346 . S
C38 H45 0.929 . S
C39 O29 1.282 . S
C39 O40 1.216 . S
O40 C39 1.216 . S
H41 C36 0.930 . S
H42 C37 0.930 . S
O43 Cu23 1.959 . S
O43 C30 1.251 . S
H44 C27 0.930 . S
H45 C38 0.929 . S
Cu46 N47 1.999 . S
Cu46 O52 1.974 . S
Cu46 N57 1.985 . S
Cu46 O66 1.959 . S
N47 Cu46 1.999 . S
N47 C49 1.263 . S
N47 C51 1.389 . S
N48 C49 1.358 . S
N48 C50 1.400 . S
C49 N47 1.263 . S
C49 N48 1.358 . S
C49 H55 0.930 . S
C50 N48 1.400 . S
C50 C51 1.351 . S
C50 H67 0.930 . S
C51 N47 1.389 . S
C51 C50 1.351 . S
C51 H56 0.930 . S
O52 Cu46 1.974 . S
O52 C62 1.282 . S
C53 O54 1.261 . S
C53 O66 1.251 . S
O54 C53 1.261 . S
H55 C49 0.930 . S
H56 C51 0.930 . S
N57 Cu46 1.985 . S
N57 C59 1.335 . S
N57 C60 1.390 . S
N58 C59 1.345 . S
N58 C61 1.336 . S
C59 N57 1.335 . S
C59 N58 1.345 . S
C59 H64 0.930 . S
C60 N57 1.390 . S
C60 C61 1.346 . S
C60 H65 0.930 . S
C61 N58 1.336 . S
C61 C60 1.346 . S
C61 H68 0.929 . S
C62 O52 1.282 . S
C62 O63 1.216 . S
O63 C62 1.216 . S
H64 C59 0.930 . S
H65 C60 0.930 . S
O66 Cu46 1.959 . S
O66 C53 1.251 . S
H67 C50 0.930 . S
H68 C61 0.929 . S
Cu69 N70 1.999 . S
Cu69 O75 1.974 . S
Cu69 N80 1.985 . S
Cu69 O89 1.959 . S
N70 Cu69 1.999 . S
N70 C72 1.263 . S
N70 C74 1.389 . S
N71 C72 1.358 . S
N71 C73 1.400 . S
C72 N70 1.263 . S
C72 N71 1.358 . S
C72 H78 0.930 . S
C73 N71 1.400 . S
C73 C74 1.351 . S
C73 H90 0.930 . S
C74 N70 1.389 . S
C74 C73 1.351 . S
C74 H79 0.930 . S
O75 Cu69 1.974 . S
O75 C85 1.282 . S
C76 O77 1.261 . S
C76 O89 1.251 . S
O77 C76 1.261 . S
H78 C72 0.930 . S
H79 C74 0.930 . S
N80 Cu69 1.985 . S
N80 C82 1.335 . S
N80 C83 1.390 . S
N81 C82 1.345 . S
N81 C84 1.336 . S
C82 N80 1.335 . S
C82 N81 1.345 . S
C82 H87 0.930 . S
C83 N80 1.390 . S
C83 C84 1.346 . S
C83 H88 0.930 . S
C84 N81 1.336 . S
C84 C83 1.346 . S
C84 H91 0.929 . S
C85 O75 1.282 . S
C85 O86 1.216 . S
O86 C85 1.216 . S
H87 C82 0.930 . S
H88 C83 0.930 . S
O89 Cu69 1.959 . S
O89 C76 1.251 . S
H90 C73 0.930 . S
H91 C84 0.929 . S
Cu92 N93 1.999 . S
Cu92 O98 1.974 . S
Cu92 N103 1.985 . S
Cu92 O112 1.959 . S
N93 Cu92 1.999 . S
N93 C95 1.263 . S
N93 C97 1.389 . S
N94 C95 1.358 . S
N94 C96 1.400 . S
C95 N93 1.263 . S
C95 N94 1.358 . S
C95 H101 0.930 . S
C96 N94 1.400 . S
C96 C97 1.351 . S
C96 H113 0.930 . S
C97 N93 1.389 . S
C97 C96 1.351 . S
C97 H102 0.930 . S
O98 Cu92 1.974 . S
O98 C108 1.282 . S
C99 O100 1.261 . S
C99 O112 1.251 . S
O100 C99 1.261 . S
H101 C95 0.930 . S
H102 C97 0.930 . S
N103 Cu92 1.985 . S
N103 C105 1.335 . S
N103 C106 1.390 . S
N104 C105 1.345 . S
N104 C107 1.336 . S
C105 N103 1.335 . S
C105 N104 1.345 . S
C105 H110 0.930 . S
C106 N103 1.390 . S
C106 C107 1.346 . S
C106 H111 0.930 . S
C107 N104 1.336 . S
C107 C106 1.346 . S
C107 H114 0.929 . S
C108 O98 1.282 . S
C108 O109 1.216 . S
O109 C108 1.216 . S
H110 C105 0.930 . S
H111 C106 0.930 . S
O112 Cu92 1.959 . S
O112 C99 1.251 . S
H113 C96 0.930 . S
H114 C107 0.929 . S
Cu115 N116 1.999 . S
Cu115 O121 1.974 . S
Cu115 N126 1.985 . S
Cu115 O135 1.959 . S
N116 Cu115 1.999 . S
N116 C118 1.263 . S
N116 C120 1.389 . S
N117 C118 1.358 . S
N117 C119 1.400 . S
C118 N116 1.263 . S
C118 N117 1.358 . S
C118 H124 0.930 . S
C119 N117 1.400 . S
C119 C120 1.351 . S
C119 H136 0.930 . S
C120 N116 1.389 . S
C120 C119 1.351 . S
C120 H125 0.930 . S
O121 Cu115 1.974 . S
O121 C131 1.282 . S
C122 O123 1.261 . S
C122 O135 1.251 . S
O123 C122 1.261 . S
H124 C118 0.930 . S
H125 C120 0.930 . S
N126 Cu115 1.985 . S
N126 C128 1.335 . S
N126 C129 1.390 . S
N127 C128 1.345 . S
N127 C130 1.336 . S
C128 N126 1.335 . S
C128 N127 1.345 . S
C128 H133 0.930 . S
C129 N126 1.390 . S
C129 C130 1.346 . S
C129 H134 0.930 . S
C130 N127 1.336 . S
C130 C129 1.346 . S
C130 H137 0.929 . S
C131 O121 1.282 . S
C131 O132 1.216 . S
O132 C131 1.216 . S
H133 C128 0.930 . S
H134 C129 0.930 . S
O135 Cu115 1.959 . S
O135 C122 1.251 . S
H136 C119 0.930 . S
H137 C130 0.929 . S
Cu138 N139 1.999 . S
Cu138 O144 1.974 . S
Cu138 N149 1.985 . S
Cu138 O158 1.959 . S
N139 Cu138 1.999 . S
N139 C141 1.263 . S
N139 C143 1.389 . S
N140 C141 1.358 . S
N140 C142 1.400 . S
C141 N139 1.263 . S
C141 N140 1.358 . S
C141 H147 0.930 . S
C142 N140 1.400 . S
C142 C143 1.351 . S
C142 H159 0.930 . S
C143 N139 1.389 . S
C143 C142 1.351 . S
C143 H148 0.930 . S
O144 Cu138 1.974 . S
O144 C154 1.282 . S
C145 O146 1.261 . S
C145 O158 1.251 . S
O146 C145 1.261 . S
H147 C141 0.930 . S
H148 C143 0.930 . S
N149 Cu138 1.985 . S
N149 C151 1.335 . S
N149 C152 1.390 . S
N150 C151 1.345 . S
N150 C153 1.336 . S
C151 N149 1.335 . S
C151 N150 1.345 . S
C151 H156 0.930 . S
C152 N149 1.390 . S
C152 C153 1.346 . S
C152 H157 0.930 . S
C153 N150 1.336 . S
C153 C152 1.346 . S
C153 H160 0.929 . S
C154 O144 1.282 . S
C154 O155 1.216 . S
O155 C154 1.216 . S
H156 C151 0.930 . S
H157 C152 0.930 . S
O158 Cu138 1.959 . S
O158 C145 1.251 . S
H159 C142 0.930 . S
H160 C153 0.929 . S
Cu161 N162 1.999 . S
Cu161 O167 1.974 . S
Cu161 N172 1.985 . S
Cu161 O181 1.959 . S
N162 Cu161 1.999 . S
N162 C164 1.263 . S
N162 C166 1.389 . S
N163 C164 1.358 . S
N163 C165 1.400 . S
C164 N162 1.263 . S
C164 N163 1.358 . S
C164 H170 0.930 . S
C165 N163 1.400 . S
C165 C166 1.351 . S
C165 H182 0.930 . S
C166 N162 1.389 . S
C166 C165 1.351 . S
C166 H171 0.930 . S
O167 Cu161 1.974 . S
O167 C177 1.282 . S
C168 O169 1.261 . S
C168 O181 1.251 . S
O169 C168 1.261 . S
H170 C164 0.930 . S
H171 C166 0.930 . S
N172 Cu161 1.985 . S
N172 C174 1.335 . S
N172 C175 1.390 . S
N173 C174 1.345 . S
N173 C176 1.336 . S
C174 N172 1.335 . S
C174 N173 1.345 . S
C174 H179 0.930 . S
C175 N172 1.390 . S
C175 C176 1.346 . S
C175 H180 0.930 . S
C176 N173 1.336 . S
C176 C175 1.346 . S
C176 H183 0.929 . S
C177 O167 1.282 . S
C177 O178 1.216 . S
O178 C177 1.216 . S
H179 C174 0.930 . S
H180 C175 0.930 . S
O181 Cu161 1.959 . S
O181 C168 1.251 . S
H182 C165 0.930 . S
H183 C176 0.929 . S
Cu184 N185 1.999 . S
Cu184 O190 1.974 . S
Cu184 N195 1.985 . S
Cu184 O204 1.959 . S
N185 Cu184 1.999 . S
N185 C187 1.263 . S
N185 C189 1.389 . S
N186 C187 1.358 . S
N186 C188 1.400 . S
C187 N185 1.263 . S
C187 N186 1.358 . S
C187 H193 0.930 . S
C188 N186 1.400 . S
C188 C189 1.351 . S
C188 H205 0.930 . S
C189 N185 1.389 . S
C189 C188 1.351 . S
C189 H194 0.930 . S
O190 Cu184 1.974 . S
O190 C200 1.282 . S
C191 O192 1.261 . S
C191 O204 1.251 . S
O192 C191 1.261 . S
H193 C187 0.930 . S
H194 C189 0.930 . S
N195 Cu184 1.985 . S
N195 C197 1.335 . S
N195 C198 1.390 . S
N196 C197 1.345 . S
N196 C199 1.336 . S
C197 N195 1.335 . S
C197 N196 1.345 . S
C197 H202 0.930 . S
C198 N195 1.390 . S
C198 C199 1.346 . S
C198 H203 0.930 . S
C199 N196 1.336 . S
C199 C198 1.346 . S
C199 H206 0.929 . S
C200 O190 1.282 . S
C200 O201 1.216 . S
O201 C200 1.216 . S
H202 C197 0.930 . S
H203 C198 0.930 . S
O204 Cu184 1.959 . S
O204 C191 1.251 . S
H205 C188 0.930 . S
H206 C199 0.929 . S
Cu207 N208 1.999 . S
Cu207 O213 1.974 . S
Cu207 N218 1.985 . S
Cu207 O227 1.959 . S
N208 Cu207 1.999 . S
N208 C210 1.263 . S
N208 C212 1.389 . S
N209 C210 1.358 . S
N209 C211 1.400 . S
C210 N208 1.263 . S
C210 N209 1.358 . S
C210 H216 0.930 . S
C211 N209 1.400 . S
C211 C212 1.351 . S
C211 H228 0.930 . S
C212 N208 1.389 . S
C212 C211 1.351 . S
C212 H217 0.930 . S
O213 Cu207 1.974 . S
O213 C223 1.282 . S
C214 O215 1.261 . S
C214 O227 1.251 . S
O215 C214 1.261 . S
H216 C210 0.930 . S
H217 C212 0.930 . S
N218 Cu207 1.985 . S
N218 C220 1.335 . S
N218 C221 1.390 . S
N219 C220 1.345 . S
N219 C222 1.336 . S
C220 N218 1.335 . S
C220 N219 1.345 . S
C220 H225 0.930 . S
C221 N218 1.390 . S
C221 C222 1.346 . S
C221 H226 0.930 . S
C222 N219 1.336 . S
C222 C221 1.346 . S
C222 H229 0.929 . S
C223 O213 1.282 . S
C223 O224 1.216 . S
O224 C223 1.216 . S
H225 C220 0.930 . S
H226 C221 0.930 . S
O227 Cu207 1.959 . S
O227 C214 1.251 . S
H228 C211 0.930 . S
H229 C222 0.929 . S
Cu230 N231 1.999 . S
Cu230 O236 1.974 . S
Cu230 N241 1.985 . S
Cu230 O250 1.959 . S
N231 Cu230 1.999 . S
N231 C233 1.263 . S
N231 C235 1.389 . S
N232 C233 1.358 . S
N232 C234 1.400 . S
C233 N231 1.263 . S
C233 N232 1.358 . S
C233 H239 0.930 . S
C234 N232 1.400 . S
C234 C235 1.351 . S
C234 H251 0.930 . S
C235 N231 1.389 . S
C235 C234 1.351 . S
C235 H240 0.930 . S
O236 Cu230 1.974 . S
O236 C246 1.282 . S
C237 O238 1.261 . S
C237 O250 1.251 . S
O238 C237 1.261 . S
H239 C233 0.930 . S
H240 C235 0.930 . S
N241 Cu230 1.985 . S
N241 C243 1.335 . S
N241 C244 1.390 . S
N242 C243 1.345 . S
N242 C245 1.336 . S
C243 N241 1.335 . S
C243 N242 1.345 . S
C243 H248 0.930 . S
C244 N241 1.390 . S
C244 C245 1.346 . S
C244 H249 0.930 . S
C245 N242 1.336 . S
C245 C244 1.346 . S
C245 H252 0.929 . S
C246 O236 1.282 . S
C246 O247 1.216 . S
O247 C246 1.216 . S
H248 C243 0.930 . S
H249 C244 0.930 . S
O250 Cu230 1.959 . S
O250 C237 1.251 . S
H251 C234 0.930 . S
H252 C245 0.929 . S
Cu253 N254 1.999 . S
Cu253 O259 1.974 . S
Cu253 N264 1.985 . S
Cu253 O273 1.959 . S
N254 Cu253 1.999 . S
N254 C256 1.263 . S
N254 C258 1.389 . S
N255 C256 1.358 . S
N255 C257 1.400 . S
C256 N254 1.263 . S
C256 N255 1.358 . S
C256 H262 0.930 . S
C257 N255 1.400 . S
C257 C258 1.351 . S
C257 H274 0.930 . S
C258 N254 1.389 . S
C258 C257 1.351 . S
C258 H263 0.930 . S
O259 Cu253 1.974 . S
O259 C269 1.282 . S
C260 O261 1.261 . S
C260 O273 1.251 . S
O261 C260 1.261 . S
H262 C256 0.930 . S
H263 C258 0.930 . S
N264 Cu253 1.985 . S
N264 C266 1.335 . S
N264 C267 1.390 . S
N265 C266 1.345 . S
N265 C268 1.336 . S
C266 N264 1.335 . S
C266 N265 1.345 . S
C266 H271 0.930 . S
C267 N264 1.390 . S
C267 C268 1.346 . S
C267 H272 0.930 . S
C268 N265 1.336 . S
C268 C267 1.346 . S
C268 H275 0.929 . S
C269 O259 1.282 . S
C269 O270 1.216 . S
O270 C269 1.216 . S
H271 C266 0.930 . S
H272 C267 0.930 . S
O273 Cu253 1.959 . S
O273 C260 1.251 . S
H274 C257 0.930 . S
H275 C268 0.929 . S
H276 C284 0.929 . S
H277 C286 0.930 . S
H278 C288 0.930 . S
H279 C291 0.929 . S
H280 C294 0.930 . S
H281 C296 0.960 . S
H282 C296 0.960 . S
H283 C296 0.960 . S
C284 H276 0.929 . S
C284 C285 1.377 . S
C284 C286 1.384 . S
C285 C284 1.377 . S
C285 C291 1.390 . S
C286 H277 0.930 . S
C286 C284 1.384 . S
C286 C287 1.372 . S
C287 C286 1.372 . S
C287 C288 1.400 . S
C287 C292 1.490 . S
C288 H278 0.930 . S
C288 C287 1.400 . S
C288 C291 1.386 . S
H289 C305 0.930 . S
H290 C306 0.931 . S
C291 H279 0.929 . S
C291 C285 1.390 . S
C291 C288 1.386 . S
C292 C287 1.490 . S
C292 C294 1.395 . S
C292 C295 1.403 . S
H293 C299 0.930 . S
C294 H280 0.930 . S
C294 C292 1.395 . S
C294 C297 1.403 . S
C295 C292 1.403 . S
C295 C296 1.524 . S
C295 C299 1.400 . S
C296 H281 0.960 . S
C296 H282 0.960 . S
C296 H283 0.960 . S
C296 C295 1.524 . S
C297 C294 1.403 . S
C297 C298 1.392 . S
C297 C301 1.495 . S
C298 C297 1.392 . S
C298 C299 1.385 . S
C298 C300 1.478 . S
C299 H293 0.930 . S
C299 C295 1.400 . S
C299 C298 1.385 . S
C300 C298 1.478 . S
C300 C302 1.381 . S
C300 C306 1.383 . S
C301 C297 1.495 . S
C301 H307 0.959 . S
C301 H308 0.961 . S
C301 H309 0.960 . S
C302 C300 1.381 . S
C302 C303 1.394 . S
C302 H310 0.930 . S
C303 C302 1.394 . S
C303 C304 1.383 . S
C303 H311 0.929 . S
C304 C303 1.383 . S
C304 C305 1.377 . S
C305 H289 0.930 . S
C305 C304 1.377 . S
C305 C306 1.379 . S
C306 H290 0.931 . S
C306 C300 1.383 . S
C306 C305 1.379 . S
H307 C301 0.959 . S
H308 C301 0.961 . S
H309 C301 0.960 . S
H310 C302 0.930 . S
H311 C303 0.929 . S
H312 C320 0.929 . S
H313 C322 0.930 . S
H314 C324 0.930 . S
H315 C327 0.929 . S
H316 C330 0.930 . S
H317 C332 0.960 . S
H318 C332 0.960 . S
H319 C332 0.960 . S
C320 H312 0.929 . S
C320 C321 1.377 . S
C320 C322 1.384 . S
C321 C320 1.377 . S
C321 C327 1.390 . S
C322 H313 0.930 . S
C322 C320 1.384 . S
C322 C323 1.372 . S
C323 C322 1.372 . S
C323 C324 1.400 . S
C323 C328 1.490 . S
C324 H314 0.930 . S
C324 C323 1.400 . S
C324 C327 1.386 . S
H325 C341 0.930 . S
H326 C342 0.931 . S
C327 H315 0.929 . S
C327 C321 1.390 . S
C327 C324 1.386 . S
C328 C323 1.490 . S
C328 C330 1.395 . S
C328 C331 1.403 . S
H329 C335 0.930 . S
C330 H316 0.930 . S
C330 C328 1.395 . S
C330 C333 1.403 . S
C331 C328 1.403 . S
C331 C332 1.524 . S
C331 C335 1.400 . S
C332 H317 0.960 . S
C332 H318 0.960 . S
C332 H319 0.960 . S
C332 C331 1.524 . S
C333 C330 1.403 . S
C333 C334 1.392 . S
C333 C337 1.495 . S
C334 C333 1.392 . S
C334 C335 1.385 . S
C334 C336 1.478 . S
C335 H329 0.930 . S
C335 C331 1.400 . S
C335 C334 1.385 . S
C336 C334 1.478 . S
C336 C338 1.381 . S
C336 C342 1.383 . S
C337 C333 1.495 . S
C337 H343 0.959 . S
C337 H344 0.961 . S
C337 H345 0.960 . S
C338 C336 1.381 . S
C338 C339 1.394 . S
C338 H346 0.930 . S
C339 C338 1.394 . S
C339 C340 1.383 . S
C339 H347 0.929 . S
C340 C339 1.383 . S
C340 C341 1.377 . S
C341 H325 0.930 . S
C341 C340 1.377 . S
C341 C342 1.379 . S
C342 H326 0.931 . S
C342 C336 1.383 . S
C342 C341 1.379 . S
H343 C337 0.959 . S
H344 C337 0.961 . S
H345 C337 0.960 . S
H346 C338 0.930 . S
H347 C339 0.929 . S
H348 C356 0.929 . S
H349 C358 0.930 . S
H350 C360 0.930 . S
H351 C363 0.929 . S
H352 C366 0.930 . S
H353 C368 0.960 . S
H354 C368 0.960 . S
H355 C368 0.960 . S
C356 H348 0.929 . S
C356 C357 1.377 . S
C356 C358 1.384 . S
C357 C356 1.377 . S
C357 C363 1.390 . S
C358 H349 0.930 . S
C358 C356 1.384 . S
C358 C359 1.372 . S
C359 C358 1.372 . S
C359 C360 1.400 . S
C359 C364 1.490 . S
C360 H350 0.930 . S
C360 C359 1.400 . S
C360 C363 1.386 . S
H361 C377 0.930 . S
H362 C378 0.931 . S
C363 H351 0.929 . S
C363 C357 1.390 . S
C363 C360 1.386 . S
C364 C359 1.490 . S
C364 C366 1.395 . S
C364 C367 1.403 . S
H365 C371 0.930 . S
C366 H352 0.930 . S
C366 C364 1.395 . S
C366 C369 1.403 . S
C367 C364 1.403 . S
C367 C368 1.524 . S
C367 C371 1.400 . S
C368 H353 0.960 . S
C368 H354 0.960 . S
C368 H355 0.960 . S
C368 C367 1.524 . S
C369 C366 1.403 . S
C369 C370 1.392 . S
C369 C373 1.495 . S
C370 C369 1.392 . S
C370 C371 1.385 . S
C370 C372 1.478 . S
C371 H365 0.930 . S
C371 C367 1.400 . S
C371 C370 1.385 . S
C372 C370 1.478 . S
C372 C374 1.381 . S
C372 C378 1.383 . S
C373 C369 1.495 . S
C373 H379 0.959 . S
C373 H380 0.961 . S
C373 H381 0.960 . S
C374 C372 1.381 . S
C374 C375 1.394 . S
C374 H382 0.930 . S
C375 C374 1.394 . S
C375 C376 1.383 . S
C375 H383 0.929 . S
C376 C375 1.383 . S
C376 C377 1.377 . S
C377 H361 0.930 . S
C377 C376 1.377 . S
C377 C378 1.379 . S
C378 H362 0.931 . S
C378 C372 1.383 . S
C378 C377 1.379 . S
H379 C373 0.959 . S
H380 C373 0.961 . S
H381 C373 0.960 . S
H382 C374 0.930 . S
H383 C375 0.929 . S
H384 C392 0.929 . S
H385 C394 0.930 . S
H386 C396 0.930 . S
H387 C399 0.929 . S
H388 C402 0.930 . S
H389 C404 0.960 . S
H390 C404 0.960 . S
H391 C404 0.960 . S
C392 H384 0.929 . S
C392 C393 1.377 . S
C392 C394 1.384 . S
C393 C392 1.377 . S
C393 C399 1.390 . S
C394 H385 0.930 . S
C394 C392 1.384 . S
C394 C395 1.372 . S
C395 C394 1.372 . S
C395 C396 1.400 . S
C395 C400 1.490 . S
C396 H386 0.930 . S
C396 C395 1.400 . S
C396 C399 1.386 . S
H397 C413 0.930 . S
H398 C414 0.931 . S
C399 H387 0.929 . S
C399 C393 1.390 . S
C399 C396 1.386 . S
C400 C395 1.490 . S
C400 C402 1.395 . S
C400 C403 1.403 . S
H401 C407 0.930 . S
C402 H388 0.930 . S
C402 C400 1.395 . S
C402 C405 1.403 . S
C403 C400 1.403 . S
C403 C404 1.524 . S
C403 C407 1.400 . S
C404 H389 0.960 . S
C404 H390 0.960 . S
C404 H391 0.960 . S
C404 C403 1.524 . S
C405 C402 1.403 . S
C405 C406 1.392 . S
C405 C409 1.495 . S
C406 C405 1.392 . S
C406 C407 1.385 . S
C406 C408 1.478 . S
C407 H401 0.930 . S
C407 C403 1.400 . S
C407 C406 1.385 . S
C408 C406 1.478 . S
C408 C410 1.381 . S
C408 C414 1.383 . S
C409 C405 1.495 . S
C409 H415 0.959 . S
C409 H416 0.961 . S
C409 H417 0.960 . S
C410 C408 1.381 . S
C410 C411 1.394 . S
C410 H418 0.930 . S
C411 C410 1.394 . S
C411 C412 1.383 . S
C411 H419 0.929 . S
C412 C411 1.383 . S
C412 C413 1.377 . S
C413 H397 0.930 . S
C413 C412 1.377 . S
C413 C414 1.379 . S
C414 H398 0.931 . S
C414 C408 1.383 . S
C414 C413 1.379 . S
H415 C409 0.959 . S
H416 C409 0.961 . S
H417 C409 0.960 . S
H418 C410 0.930 . S
H419 C411 0.929 . S
H420 C428 0.929 . S
H421 C430 0.930 . S
H422 C432 0.930 . S
H423 C435 0.929 . S
H424 C438 0.930 . S
H425 C440 0.960 . S
H426 C440 0.960 . S
H427 C440 0.960 . S
C428 H420 0.929 . S
C428 C429 1.377 . S
C428 C430 1.384 . S
C429 C428 1.377 . S
C429 C435 1.390 . S
C430 H421 0.930 . S
C430 C428 1.384 . S
C430 C431 1.372 . S
C431 C430 1.372 . S
C431 C432 1.400 . S
C431 C436 1.490 . S
C432 H422 0.930 . S
C432 C431 1.400 . S
C432 C435 1.386 . S
H433 C449 0.930 . S
H434 C450 0.931 . S
C435 H423 0.929 . S
C435 C429 1.390 . S
C435 C432 1.386 . S
C436 C431 1.490 . S
C436 C438 1.395 . S
C436 C439 1.403 . S
H437 C443 0.930 . S
C438 H424 0.930 . S
C438 C436 1.395 . S
C438 C441 1.403 . S
C439 C436 1.403 . S
C439 C440 1.524 . S
C439 C443 1.400 . S
C440 H425 0.960 . S
C440 H426 0.960 . S
C440 H427 0.960 . S
C440 C439 1.524 . S
C441 C438 1.403 . S
C441 C442 1.392 . S
C441 C445 1.495 . S
C442 C441 1.392 . S
C442 C443 1.385 . S
C442 C444 1.478 . S
C443 H437 0.930 . S
C443 C439 1.400 . S
C443 C442 1.385 . S
C444 C442 1.478 . S
C444 C446 1.381 . S
C444 C450 1.383 . S
C445 C441 1.495 . S
C445 H451 0.959 . S
C445 H452 0.961 . S
C445 H453 0.960 . S
C446 C444 1.381 . S
C446 C447 1.394 . S
C446 H454 0.930 . S
C447 C446 1.394 . S
C447 C448 1.383 . S
C447 H455 0.929 . S
C448 C447 1.383 . S
C448 C449 1.377 . S
C449 H433 0.930 . S
C449 C448 1.377 . S
C449 C450 1.379 . S
C450 H434 0.931 . S
C450 C444 1.383 . S
C450 C449 1.379 . S
H451 C445 0.959 . S
H452 C445 0.961 . S
H453 C445 0.960 . S
H454 C446 0.930 . S
H455 C447 0.929 . S
H456 C464 0.929 . S
H457 C466 0.930 . S
H458 C468 0.930 . S
H459 C471 0.929 . S
H460 C474 0.930 . S
H461 C476 0.960 . S
H462 C476 0.960 . S
H463 C476 0.960 . S
C464 H456 0.929 . S
C464 C465 1.377 . S
C464 C466 1.384 . S
C465 C464 1.377 . S
C465 C471 1.390 . S
C466 H457 0.930 . S
C466 C464 1.384 . S
C466 C467 1.372 . S
C467 C466 1.372 . S
C467 C468 1.400 . S
C467 C472 1.490 . S
C468 H458 0.930 . S
C468 C467 1.400 . S
C468 C471 1.386 . S
H469 C485 0.930 . S
H470 C486 0.931 . S
C471 H459 0.929 . S
C471 C465 1.390 . S
C471 C468 1.386 . S
C472 C467 1.490 . S
C472 C474 1.395 . S
C472 C475 1.403 . S
H473 C479 0.930 . S
C474 H460 0.930 . S
C474 C472 1.395 . S
C474 C477 1.403 . S
C475 C472 1.403 . S
C475 C476 1.524 . S
C475 C479 1.400 . S
C476 H461 0.960 . S
C476 H462 0.960 . S
C476 H463 0.960 . S
C476 C475 1.524 . S
C477 C474 1.403 . S
C477 C478 1.392 . S
C477 C481 1.495 . S
C478 C477 1.392 . S
C478 C479 1.385 . S
C478 C480 1.478 . S
C479 H473 0.930 . S
C479 C475 1.400 . S
C479 C478 1.385 . S
C480 C478 1.478 . S
C480 C482 1.381 . S
C480 C486 1.383 . S
C481 C477 1.495 . S
C481 H487 0.959 . S
C481 H488 0.961 . S
C481 H489 0.960 . S
C482 C480 1.381 . S
C482 C483 1.394 . S
C482 H490 0.930 . S
C483 C482 1.394 . S
C483 C484 1.383 . S
C483 H491 0.929 . S
C484 C483 1.383 . S
C484 C485 1.377 . S
C485 H469 0.930 . S
C485 C484 1.377 . S
C485 C486 1.379 . S
C486 H470 0.931 . S
C486 C480 1.383 . S
C486 C485 1.379 . S
H487 C481 0.959 . S
H488 C481 0.961 . S
H489 C481 0.960 . S
H490 C482 0.930 . S
H491 C483 0.929 . S
H492 C500 0.929 . S
H493 C502 0.930 . S
H494 C504 0.930 . S
H495 C507 0.929 . S
H496 C510 0.930 . S
H497 C512 0.960 . S
H498 C512 0.960 . S
H499 C512 0.960 . S
C500 H492 0.929 . S
C500 C501 1.377 . S
C500 C502 1.384 . S
C501 C500 1.377 . S
C501 C507 1.390 . S
C502 H493 0.930 . S
C502 C500 1.384 . S
C502 C503 1.372 . S
C503 C502 1.372 . S
C503 C504 1.400 . S
C503 C508 1.490 . S
C504 H494 0.930 . S
C504 C503 1.400 . S
C504 C507 1.386 . S
H505 C521 0.930 . S
H506 C522 0.931 . S
C507 H495 0.929 . S
C507 C501 1.390 . S
C507 C504 1.386 . S
C508 C503 1.490 . S
C508 C510 1.395 . S
C508 C511 1.403 . S
H509 C515 0.930 . S
C510 H496 0.930 . S
C510 C508 1.395 . S
C510 C513 1.403 . S
C511 C508 1.403 . S
C511 C512 1.524 . S
C511 C515 1.400 . S
C512 H497 0.960 . S
C512 H498 0.960 . S
C512 H499 0.960 . S
C512 C511 1.524 . S
C513 C510 1.403 . S
C513 C514 1.392 . S
C513 C517 1.495 . S
C514 C513 1.392 . S
C514 C515 1.385 . S
C514 C516 1.478 . S
C515 H509 0.930 . S
C515 C511 1.400 . S
C515 C514 1.385 . S
C516 C514 1.478 . S
C516 C518 1.381 . S
C516 C522 1.383 . S
C517 C513 1.495 . S
C517 H523 0.959 . S
C517 H524 0.961 . S
C517 H525 0.960 . S
C518 C516 1.381 . S
C518 C519 1.394 . S
C518 H526 0.930 . S
C519 C518 1.394 . S
C519 C520 1.383 . S
C519 H527 0.929 . S
C520 C519 1.383 . S
C520 C521 1.377 . S
C521 H505 0.930 . S
C521 C520 1.377 . S
C521 C522 1.379 . S
C522 H506 0.931 . S
C522 C516 1.383 . S
C522 C521 1.379 . S
H523 C517 0.959 . S
H524 C517 0.961 . S
H525 C517 0.960 . S
H526 C518 0.930 . S
H527 C519 0.929 . S
H528 C536 0.929 . S
H529 C538 0.930 . S
H530 C540 0.930 . S
H531 C543 0.929 . S
H532 C546 0.930 . S
H533 C548 0.960 . S
H534 C548 0.960 1_655 S
H535 C548 0.960 1_655 S
C536 H528 0.929 . S
C536 C537 1.377 . S
C536 C538 1.384 . S
C537 C536 1.377 . S
C537 C543 1.390 . S
C538 H529 0.930 . S
C538 C536 1.384 . S
C538 C539 1.372 . S
C539 C538 1.372 . S
C539 C540 1.400 . S
C539 C544 1.490 . S
C540 H530 0.930 . S
C540 C539 1.400 . S
C540 C543 1.386 . S
H541 C557 0.930 . S
H542 C558 0.931 . S
C543 H531 0.929 . S
C543 C537 1.390 . S
C543 C540 1.386 . S
C544 C539 1.490 . S
C544 C546 1.395 . S
C544 C547 1.397 1_655 S
H545 C551 0.930 . S
C546 H532 0.930 . S
C546 C544 1.395 . S
C546 C549 1.403 . S
C547 C544 1.397 1_455 S
C547 C548 1.523 . S
C547 C551 1.406 . S
C548 H533 0.960 . S
C548 H534 0.960 1_455 S
C548 H535 0.960 1_455 S
C548 C547 1.523 . S
C549 C546 1.403 . S
C549 C550 1.392 1_655 S
C549 C553 1.495 . S
C550 C549 1.392 1_455 S
C550 C551 1.385 . S
C550 C552 1.478 . S
C551 H545 0.930 . S
C551 C547 1.406 . S
C551 C550 1.385 . S
C552 C550 1.478 . S
C552 C554 1.381 . S
C552 C558 1.383 . S
C553 C549 1.495 . S
C553 H559 0.959 . S
C553 H560 0.961 1_655 S
C553 H561 0.960 . S
C554 C552 1.381 . S
C554 C555 1.394 . S
C554 H562 0.930 . S
C555 C554 1.394 . S
C555 C556 1.383 . S
C555 H563 0.929 . S
C556 C555 1.383 . S
C556 C557 1.377 . S
C557 H541 0.930 . S
C557 C556 1.377 . S
C557 C558 1.379 . S
C558 H542 0.931 . S
C558 C552 1.383 . S
C558 C557 1.379 . S
H559 C553 0.959 . S
H560 C553 0.961 1_455 S
H561 C553 0.960 . S
H562 C554 0.930 . S
H563 C555 0.929 . S
H564 C572 0.929 . S
H565 C574 0.930 . S
H566 C576 0.930 . S
H567 C579 0.929 . S
H568 C582 0.927 1_545 S
H569 C584 0.960 . S
H570 C584 0.960 . S
H571 C584 0.960 . S
C572 H564 0.929 . S
C572 C573 1.377 . S
C572 C574 1.384 . S
C573 C572 1.377 . S
C573 C579 1.390 . S
C574 H565 0.930 . S
C574 C572 1.384 . S
C574 C575 1.372 . S
C575 C574 1.372 . S
C575 C576 1.400 . S
C575 C580 1.490 . S
C576 H566 0.930 . S
C576 C575 1.400 . S
C576 C579 1.386 . S
H577 C593 0.930 . S
H578 C594 0.931 . S
C579 H567 0.929 . S
C579 C573 1.390 . S
C579 C576 1.386 . S
C580 C575 1.490 . S
C580 C582 1.390 1_545 S
C580 C583 1.403 . S
H581 C587 0.930 . S
C582 H568 0.927 1_565 S
C582 C580 1.390 1_565 S
C582 C585 1.411 . S
C583 C580 1.403 . S
C583 C584 1.524 . S
C583 C587 1.400 1_545 S
C584 H569 0.960 . S
C584 H570 0.960 . S
C584 H571 0.960 . S
C584 C583 1.524 . S
C585 C582 1.411 . S
C585 C586 1.392 . S
C585 C589 1.495 . S
C586 C585 1.392 . S
C586 C587 1.385 . S
C586 C588 1.478 . S
C587 H581 0.930 . S
C587 C583 1.400 1_565 S
C587 C586 1.385 . S
C588 C586 1.478 . S
C588 C590 1.381 . S
C588 C594 1.383 . S
C589 C585 1.495 . S
C589 H595 0.959 . S
C589 H596 0.961 . S
C589 H597 0.960 . S
C590 C588 1.381 . S
C590 C591 1.394 . S
C590 H598 0.930 . S
C591 C590 1.394 . S
C591 C592 1.383 . S
C591 H599 0.929 . S
C592 C591 1.383 . S
C592 C593 1.377 . S
C593 H577 0.930 . S
C593 C592 1.377 . S
C593 C594 1.379 . S
C594 H578 0.931 . S
C594 C588 1.383 . S
C594 C593 1.379 . S
H595 C589 0.959 . S
H596 C589 0.961 . S
H597 C589 0.960 . S
H598 C590 0.930 . S
H599 C591 0.929 . S
H600 C608 0.929 . S
H601 C610 0.930 . S
H602 C612 0.930 . S
H603 C615 0.929 . S
H604 C618 0.930 . S
H605 C620 0.960 . S
H606 C620 0.960 . S
H607 C620 0.960 . S
C608 H600 0.929 . S
C608 C609 1.377 . S
C608 C610 1.384 . S
C609 C608 1.377 . S
C609 C615 1.390 . S
C610 H601 0.930 . S
C610 C608 1.384 . S
C610 C611 1.372 . S
C611 C610 1.372 . S
C611 C612 1.400 . S
C611 C616 1.490 . S
C612 H602 0.930 . S
C612 C611 1.400 . S
C612 C615 1.386 . S
H613 C629 0.930 . S
H614 C630 0.931 . S
C615 H603 0.929 . S
C615 C609 1.390 . S
C615 C612 1.386 . S
C616 C611 1.490 . S
C616 C618 1.395 . S
C616 C619 1.403 . S
H617 C623 0.930 . S
C618 H604 0.930 . S
C618 C616 1.395 . S
C618 C621 1.403 . S
C619 C616 1.403 . S
C619 C620 1.524 . S
C619 C623 1.400 . S
C620 H605 0.960 . S
C620 H606 0.960 . S
C620 H607 0.960 . S
C620 C619 1.524 . S
C621 C618 1.403 . S
C621 C622 1.392 . S
C621 C625 1.495 . S
C622 C621 1.392 . S
C622 C623 1.385 . S
C622 C624 1.478 . S
C623 H617 0.930 . S
C623 C619 1.400 . S
C623 C622 1.385 . S
C624 C622 1.478 . S
C624 C626 1.381 . S
C624 C630 1.383 . S
C625 C621 1.495 . S
C625 H631 0.959 . S
C625 H632 0.961 . S
C625 H633 0.960 . S
C626 C624 1.381 . S
C626 C627 1.394 . S
C626 H634 0.930 . S
C627 C626 1.394 . S
C627 C628 1.383 . S
C627 H635 0.929 . S
C628 C627 1.383 . S
C628 C629 1.377 . S
C629 H613 0.930 . S
C629 C628 1.377 . S
C629 C630 1.379 . S
C630 H614 0.931 . S
C630 C624 1.383 . S
C630 C629 1.379 . S
H631 C625 0.959 . S
H632 C625 0.961 . S
H633 C625 0.960 . S
H634 C626 0.930 . S
H635 C627 0.929 . S
H636 C644 0.929 . S
H637 C646 0.930 . S
H638 C648 0.930 . S
H639 C651 0.929 . S
H640 C654 0.930 . S
H641 C656 0.960 . S
H642 C656 0.960 . S
H643 C656 0.960 . S
C644 H636 0.929 . S
C644 C645 1.377 . S
C644 C646 1.384 . S
C645 C644 1.377 . S
C645 C651 1.390 . S
C646 H637 0.930 . S
C646 C644 1.384 . S
C646 C647 1.372 . S
C647 C646 1.372 . S
C647 C648 1.400 . S
C647 C652 1.490 . S
C648 H638 0.930 . S
C648 C647 1.400 . S
C648 C651 1.386 . S
H649 C665 0.930 . S
H650 C666 0.931 . S
C651 H639 0.929 . S
C651 C645 1.390 . S
C651 C648 1.386 . S
C652 C647 1.490 . S
C652 C654 1.395 1_655 S
C652 C655 1.403 . S
H653 C659 0.930 . S
C654 H640 0.930 . S
C654 C652 1.395 1_455 S
C654 C657 1.403 . S
C655 C652 1.403 . S
C655 C656 1.524 . S
C655 C659 1.400 1_655 S
C656 H641 0.960 . S
C656 H642 0.960 . S
C656 H643 0.960 . S
C656 C655 1.524 . S
C657 C654 1.403 . S
C657 C658 1.392 . S
C657 C661 1.495 . S
C658 C657 1.392 . S
C658 C659 1.385 . S
C658 C660 1.478 . S
C659 H653 0.930 . S
C659 C655 1.400 1_455 S
C659 C658 1.385 . S
C660 C658 1.478 . S
C660 C662 1.381 . S
C660 C666 1.383 . S
C661 C657 1.495 . S
C661 H667 0.959 . S
C661 H668 0.961 . S
C661 H669 0.960 . S
C662 C660 1.381 . S
C662 C663 1.394 . S
C662 H670 0.930 . S
C663 C662 1.394 . S
C663 C664 1.383 . S
C663 H671 0.929 . S
C664 C663 1.383 . S
C664 C665 1.377 . S
C665 H649 0.930 . S
C665 C664 1.377 . S
C665 C666 1.379 . S
C666 H650 0.931 . S
C666 C660 1.383 . S
C666 C665 1.379 . S
H667 C661 0.959 . S
H668 C661 0.961 . S
H669 C661 0.960 . S
H670 C662 0.930 . S
H671 C663 0.929 . S
H672 C680 0.929 . S
H673 C682 0.930 . S
H674 C684 0.930 . S
H675 C687 0.929 . S
H676 C690 0.930 . S
H677 C692 0.960 . S
H678 C692 0.960 . S
H679 C692 0.960 . S
C680 H672 0.929 . S
C680 C681 1.377 . S
C680 C682 1.384 . S
C681 C680 1.377 . S
C681 C687 1.390 . S
C682 H673 0.930 . S
C682 C680 1.384 . S
C682 C683 1.372 . S
C683 C682 1.372 . S
C683 C684 1.400 . S
C683 C688 1.490 . S
C684 H674 0.930 . S
C684 C683 1.400 . S
C684 C687 1.386 . S
H685 C701 0.930 . S
H686 C702 0.931 . S
C687 H675 0.929 . S
C687 C681 1.390 . S
C687 C684 1.386 . S
C688 C683 1.490 . S
C688 C690 1.395 1_565 S
C688 C691 1.403 1_554 S
H689 C695 0.930 . S
C690 H676 0.930 . S
C690 C688 1.395 1_545 S
C690 C693 1.403 . S
C691 C688 1.403 1_556 S
C691 C692 1.524 . S
C691 C695 1.400 1_565 S
C692 H677 0.960 . S
C692 H678 0.960 . S
C692 H679 0.960 . S
C692 C691 1.524 . S
C693 C690 1.403 . S
C693 C694 1.392 1_554 S
C693 C697 1.495 . S
C694 C693 1.392 1_556 S
C694 C695 1.385 . S
C694 C696 1.478 . S
C695 H689 0.930 . S
C695 C691 1.400 1_545 S
C695 C694 1.385 . S
C696 C694 1.478 . S
C696 C698 1.381 . S
C696 C702 1.383 . S
C697 C693 1.495 . S
C697 H703 0.959 . S
C697 H704 0.961 . S
C697 H705 0.960 . S
C698 C696 1.381 . S
C698 C699 1.394 . S
C698 H706 0.930 . S
C699 C698 1.394 . S
C699 C700 1.383 . S
C699 H707 0.929 . S
C700 C699 1.383 . S
C700 C701 1.377 . S
C701 H685 0.930 . S
C701 C700 1.377 . S
C701 C702 1.379 . S
C702 H686 0.931 . S
C702 C696 1.383 . S
C702 C701 1.379 . S
H703 C697 0.959 . S
H704 C697 0.961 . S
H705 C697 0.960 . S
H706 C698 0.930 . S
H707 C699 0.929 . S
H708 C716 0.929 . S
H709 C718 0.930 . S
H710 C720 0.930 . S
H711 C723 0.929 . S
H712 C726 0.930 . S
H713 C728 0.960 1_556 S
H714 C728 0.960 . S
H715 C728 0.960 . S
C716 H708 0.929 . S
C716 C717 1.377 . S
C716 C718 1.384 . S
C717 C716 1.377 . S
C717 C723 1.390 . S
C718 H709 0.930 . S
C718 C716 1.384 . S
C718 C719 1.372 . S
C719 C718 1.372 . S
C719 C720 1.400 . S
C719 C724 1.490 . S
C720 H710 0.930 . S
C720 C719 1.400 . S
C720 C723 1.386 . S
H721 C737 0.930 . S
H722 C738 0.965 . S
C723 H711 0.929 . S
C723 C717 1.390 . S
C723 C720 1.386 . S
C724 C719 1.490 . S
C724 C726 1.395 . S
C724 C727 1.403 . S
H725 C731 0.930 1_556 S
C726 H712 0.930 . S
C726 C724 1.395 . S
C726 C729 1.403 . S
C727 C724 1.403 . S
C727 C728 1.524 . S
C727 C731 1.400 . S
C728 H713 0.960 1_554 S
C728 H714 0.960 . S
C728 H715 0.960 . S
C728 C727 1.524 . S
C729 C726 1.403 . S
C729 C730 1.392 . S
C729 C733 1.495 . S
C730 C729 1.392 . S
C730 C731 1.385 . S
C730 C732 1.478 1_554 S
C731 H725 0.930 1_554 S
C731 C727 1.400 . S
C731 C730 1.385 . S
C732 C730 1.478 1_556 S
C732 C734 1.381 . S
C732 C738 1.383 . S
C733 C729 1.495 . S
C733 H739 0.959 . S
C733 H740 0.961 . S
C733 H741 0.960 . S
C734 C732 1.381 . S
C734 C735 1.394 . S
C734 H742 0.930 . S
C735 C734 1.394 . S
C735 C736 1.383 . S
C735 H743 0.929 . S
C736 C735 1.383 . S
C736 C737 1.377 . S
C737 H721 0.930 . S
C737 C736 1.377 . S
C737 C738 1.379 . S
C738 H722 0.965 . S
C738 C732 1.383 . S
C738 C737 1.379 . S
H739 C733 0.959 . S
H740 C733 0.961 . S
H741 C733 0.960 . S
H742 C734 0.930 . S
H743 C735 0.929 . S
H744 C752 0.929 . S
H745 C754 0.930 . S
H746 C756 0.930 . S
H747 C759 0.929 . S
H748 C762 0.930 . S
H749 C764 0.960 . S
H750 C764 0.960 . S
H751 C764 0.960 . S
C752 H744 0.929 . S
C752 C753 1.377 . S
C752 C754 1.384 . S
C753 C752 1.377 . S
C753 C759 1.390 . S
C754 H745 0.930 . S
C754 C752 1.384 . S
C754 C755 1.372 . S
C755 C754 1.372 . S
C755 C756 1.400 . S
C755 C760 1.490 . S
C756 H746 0.930 . S
C756 C755 1.400 . S
C756 C759 1.386 . S
H757 C773 0.930 . S
H758 C774 0.931 . S
C759 H747 0.929 . S
C759 C753 1.390 . S
C759 C756 1.386 . S
C760 C755 1.490 . S
C760 C762 1.395 . S
C760 C763 1.403 . S
H761 C767 0.930 . S
C762 H748 0.930 . S
C762 C760 1.395 . S
C762 C765 1.403 . S
C763 C760 1.403 . S
C763 C764 1.524 . S
C763 C767 1.400 . S
C764 H749 0.960 . S
C764 H750 0.960 . S
C764 H751 0.960 . S
C764 C763 1.524 . S
C765 C762 1.403 . S
C765 C766 1.392 . S
C765 C769 1.495 1_655 S
C766 C765 1.392 . S
C766 C767 1.385 . S
C766 C768 1.478 1_655 S
C767 H761 0.930 . S
C767 C763 1.400 . S
C767 C766 1.385 . S
C768 C766 1.478 1_455 S
C768 C770 1.381 . S
C768 C774 1.383 . S
C769 C765 1.495 1_455 S
C769 H775 0.959 . S
C769 H776 0.961 . S
C769 H777 0.960 . S
C770 C768 1.381 . S
C770 C771 1.394 . S
C770 H778 0.930 . S
C771 C770 1.394 . S
C771 C772 1.383 . S
C771 H779 0.929 . S
C772 C771 1.383 . S
C772 C773 1.377 . S
C773 H757 0.930 . S
C773 C772 1.377 . S
C773 C774 1.379 . S
C774 H758 0.931 . S
C774 C768 1.383 . S
C774 C773 1.379 . S
H775 C769 0.959 . S
H776 C769 0.961 . S
H777 C769 0.960 . S
H778 C770 0.930 . S
H779 C771 0.929 . S
H780 C788 0.929 . S
H781 C790 0.930 . S
H782 C792 0.930 . S
H783 C795 0.929 . S
H784 C798 0.930 . S
H785 C800 0.960 . S
H786 C800 0.960 . S
H787 C800 0.960 . S
C788 H780 0.929 . S
C788 C789 1.377 . S
C788 C790 1.384 . S
C789 C788 1.377 . S
C789 C795 1.390 . S
C790 H781 0.930 . S
C790 C788 1.384 . S
C790 C791 1.372 . S
C791 C790 1.372 . S
C791 C792 1.400 . S
C791 C796 1.490 1_545 S
C792 H782 0.930 . S
C792 C791 1.400 . S
C792 C795 1.386 . S
H793 C809 0.930 . S
H794 C810 0.931 . S
C795 H783 0.929 . S
C795 C789 1.390 . S
C795 C792 1.386 . S
C796 C791 1.490 1_565 S
C796 C798 1.395 . S
C796 C799 1.403 . S
H797 C803 0.930 . S
C798 H784 0.930 . S
C798 C796 1.395 . S
C798 C801 1.403 . S
C799 C796 1.403 . S
C799 C800 1.524 1_565 S
C799 C803 1.400 . S
C800 H785 0.960 . S
C800 H786 0.960 . S
C800 H787 0.960 . S
C800 C799 1.524 1_545 S
C801 C798 1.403 . S
C801 C802 1.392 . S
C801 C805 1.495 . S
C802 C801 1.392 . S
C802 C803 1.385 . S
C802 C804 1.478 . S
C803 H797 0.930 . S
C803 C799 1.400 . S
C803 C802 1.385 . S
C804 C802 1.478 . S
C804 C806 1.381 . S
C804 C810 1.383 . S
C805 C801 1.495 . S
C805 H811 0.959 . S
C805 H812 0.961 . S
C805 H813 0.960 . S
C806 C804 1.381 . S
C806 C807 1.394 . S
C806 H814 0.930 . S
C807 C806 1.394 . S
C807 C808 1.383 . S
C807 H815 0.929 . S
C808 C807 1.383 . S
C808 C809 1.377 . S
C809 H793 0.930 . S
C809 C808 1.377 . S
C809 C810 1.379 . S
C810 H794 0.931 . S
C810 C804 1.383 . S
C810 C809 1.379 . S
H811 C805 0.959 . S
H812 C805 0.961 . S
H813 C805 0.960 . S
H814 C806 0.930 . S
H815 C807 0.929 . S
H816 C824 0.929 . S
H817 C826 0.930 . S
H818 C828 0.930 . S
H819 C831 0.929 . S
H820 C834 0.930 . S
H821 C836 0.960 . S
H822 C836 0.960 . S
H823 C836 0.960 . S
C824 H816 0.929 . S
C824 C825 1.377 . S
C824 C826 1.384 . S
C825 C824 1.377 . S
C825 C831 1.390 . S
C826 H817 0.930 . S
C826 C824 1.384 . S
C826 C827 1.372 . S
C827 C826 1.372 . S
C827 C828 1.400 . S
C827 C832 1.490 . S
C828 H818 0.930 . S
C828 C827 1.400 . S
C828 C831 1.386 . S
H829 C845 0.930 . S
H830 C846 0.931 . S
C831 H819 0.929 . S
C831 C825 1.390 . S
C831 C828 1.386 . S
C832 C827 1.490 . S
C832 C834 1.395 . S
C832 C835 1.403 . S
H833 C839 0.930 . S
C834 H820 0.930 . S
C834 C832 1.395 . S
C834 C837 1.403 . S
C835 C832 1.403 . S
C835 C836 1.524 . S
C835 C839 1.400 . S
C836 H821 0.960 . S
C836 H822 0.960 . S
C836 H823 0.960 . S
C836 C835 1.524 . S
C837 C834 1.403 . S
C837 C838 1.392 . S
C837 C841 1.495 . S
C838 C837 1.392 . S
C838 C839 1.385 . S
C838 C840 1.478 . S
C839 H833 0.930 . S
C839 C835 1.400 . S
C839 C838 1.385 . S
C840 C838 1.478 . S
C840 C842 1.381 . S
C840 C846 1.383 . S
C841 C837 1.495 . S
C841 H847 0.959 . S
C841 H848 0.961 . S
C841 H849 0.960 . S
C842 C840 1.381 . S
C842 C843 1.394 . S
C842 H850 0.930 . S
C843 C842 1.394 . S
C843 C844 1.383 . S
C843 H851 0.929 . S
C844 C843 1.383 . S
C844 C845 1.377 . S
C845 H829 0.930 . S
C845 C844 1.377 . S
C845 C846 1.379 . S
C846 H830 0.931 . S
C846 C840 1.383 . S
C846 C845 1.379 . S
H847 C841 0.959 . S
H848 C841 0.961 . S
H849 C841 0.960 . S
H850 C842 0.930 . S
H851 C843 0.929 . S
H852 C860 0.929 . S
H853 C862 0.930 . S
H854 C864 0.930 . S
H855 C867 0.929 . S
H856 C870 0.930 . S
H857 C872 0.960 . S
H858 C872 0.960 . S
H859 C872 0.960 . S
C860 H852 0.929 . S
C860 C861 1.377 . S
C860 C862 1.384 . S
C861 C860 1.377 . S
C861 C867 1.390 . S
C862 H853 0.930 . S
C862 C860 1.384 . S
C862 C863 1.372 . S
C863 C862 1.372 . S
C863 C864 1.400 . S
C863 C868 1.490 . S
C864 H854 0.930 . S
C864 C863 1.400 . S
C864 C867 1.386 . S
H865 C881 0.930 . S
H866 C882 0.931 . S
C867 H855 0.929 . S
C867 C861 1.390 . S
C867 C864 1.386 . S
C868 C863 1.490 . S
C868 C870 1.395 . S
C868 C871 1.403 . S
H869 C875 0.930 . S
C870 H856 0.930 . S
C870 C868 1.395 . S
C870 C873 1.403 . S
C871 C868 1.403 . S
C871 C872 1.524 . S
C871 C875 1.400 . S
C872 H857 0.960 . S
C872 H858 0.960 . S
C872 H859 0.960 . S
C872 C871 1.524 . S
C873 C870 1.403 . S
C873 C874 1.392 . S
C873 C877 1.495 . S
C874 C873 1.392 . S
C874 C875 1.385 . S
C874 C876 1.478 1_455 S
C875 H869 0.930 . S
C875 C871 1.400 . S
C875 C874 1.385 . S
C876 C874 1.478 1_655 S
C876 C878 1.381 . S
C876 C882 1.383 . S
C877 C873 1.495 . S
C877 H883 0.959 . S
C877 H884 0.961 . S
C877 H885 0.960 . S
C878 C876 1.381 . S
C878 C879 1.394 . S
C878 H886 0.930 1_655 S
C879 C878 1.394 . S
C879 C880 1.383 . S
C879 H887 0.929 . S
C880 C879 1.383 . S
C880 C881 1.377 . S
C881 H865 0.930 . S
C881 C880 1.377 . S
C881 C882 1.379 . S
C882 H866 0.931 . S
C882 C876 1.383 . S
C882 C881 1.379 . S
H883 C877 0.959 . S
H884 C877 0.961 . S
H885 C877 0.960 . S
H886 C878 0.930 1_455 S
H887 C879 0.929 . S
H888 C896 0.929 . S
H889 C898 0.930 . S
H890 C900 0.930 . S
H891 C903 0.929 . S
H892 C906 0.930 . S
H893 C908 0.960 . S
H894 C908 0.960 . S
H895 C908 0.960 . S
C896 H888 0.929 . S
C896 C897 1.377 . S
C896 C898 1.384 . S
C897 C896 1.377 . S
C897 C903 1.390 . S
C898 H889 0.930 . S
C898 C896 1.384 . S
C898 C899 1.372 . S
C899 C898 1.372 . S
C899 C900 1.400 . S
C899 C904 1.490 . S
C900 H890 0.930 . S
C900 C899 1.400 . S
C900 C903 1.386 . S
H901 C917 0.930 . S
H902 C918 0.931 . S
C903 H891 0.929 . S
C903 C897 1.390 . S
C903 C900 1.386 . S
C904 C899 1.490 . S
C904 C906 1.395 . S
C904 C907 1.403 . S
H905 C911 0.930 1_565 S
C906 H892 0.930 . S
C906 C904 1.395 . S
C906 C909 1.403 . S
C907 C904 1.403 . S
C907 C908 1.524 . S
C907 C911 1.400 . S
C908 H893 0.960 . S
C908 H894 0.960 . S
C908 H895 0.960 . S
C908 C907 1.524 . S
C909 C906 1.403 . S
C909 C910 1.392 . S
C909 C913 1.495 . S
C910 C909 1.392 . S
C910 C911 1.385 . S
C910 C912 1.478 1_545 S
C911 H905 0.930 1_545 S
C911 C907 1.400 . S
C911 C910 1.385 . S
C912 C910 1.478 1_565 S
C912 C914 1.381 . S
C912 C918 1.383 . S
C913 C909 1.495 . S
C913 H919 0.959 . S
C913 H920 0.961 . S
C913 H921 0.960 . S
C914 C912 1.381 . S
C914 C915 1.394 . S
C914 H922 0.930 1_565 S
C915 C914 1.394 . S
C915 C916 1.383 . S
C915 H923 0.929 . S
C916 C915 1.383 . S
C916 C917 1.377 . S
C917 H901 0.930 . S
C917 C916 1.377 . S
C917 C918 1.379 . S
C918 H902 0.931 . S
C918 C912 1.383 . S
C918 C917 1.379 . S
H919 C913 0.959 . S
H920 C913 0.961 . S
H921 C913 0.960 . S
H922 C914 0.930 1_545 S
H923 C915 0.929 . S
H924 C932 0.929 . S
H925 C934 0.930 . S
H926 C936 0.930 . S
H927 C939 0.929 . S
H928 C942 0.930 . S
H929 C944 0.960 . S
H930 C944 0.960 . S
H931 C944 0.960 . S
C932 H924 0.929 . S
C932 C933 1.377 . S
C932 C934 1.384 . S
C933 C932 1.377 . S
C933 C939 1.390 . S
C934 H925 0.930 . S
C934 C932 1.384 . S
C934 C935 1.372 . S
C935 C934 1.372 . S
C935 C936 1.400 . S
C935 C940 1.490 . S
C936 H926 0.930 . S
C936 C935 1.400 . S
C936 C939 1.386 . S
H937 C953 0.930 . S
H938 C954 0.931 . S
C939 H927 0.929 . S
C939 C933 1.390 . S
C939 C936 1.386 . S
C940 C935 1.490 . S
C940 C942 1.395 . S
C940 C943 1.403 . S
H941 C947 0.930 . S
C942 H928 0.930 . S
C942 C940 1.395 . S
C942 C945 1.403 . S
C943 C940 1.403 . S
C943 C944 1.524 . S
C943 C947 1.400 . S
C944 H929 0.960 . S
C944 H930 0.960 . S
C944 H931 0.960 . S
C944 C943 1.524 . S
C945 C942 1.403 . S
C945 C946 1.392 . S
C945 C949 1.495 . S
C946 C945 1.392 . S
C946 C947 1.385 . S
C946 C948 1.478 . S
C947 H941 0.930 . S
C947 C943 1.400 . S
C947 C946 1.385 . S
C948 C946 1.478 . S
C948 C950 1.381 . S
C948 C954 1.383 . S
C949 C945 1.495 . S
C949 H955 0.959 . S
C949 H956 0.961 . S
C949 H957 0.960 . S
C950 C948 1.381 . S
C950 C951 1.394 . S
C950 H958 0.930 . S
C951 C950 1.394 . S
C951 C952 1.383 . S
C951 H959 0.929 . S
C952 C951 1.383 . S
C952 C953 1.377 . S
C953 H937 0.930 . S
C953 C952 1.377 . S
C953 C954 1.379 . S
C954 H938 0.931 . S
C954 C948 1.383 . S
C954 C953 1.379 . S
H955 C949 0.959 . S
H956 C949 0.961 . S
H957 C949 0.960 . S
H958 C950 0.930 . S
H959 C951 0.929 . S
H960 C968 0.929 . S
H961 C970 0.930 . S
H962 C972 0.930 . S
H963 C975 0.929 . S
H964 C978 0.930 . S
H965 C980 0.960 . S
H966 C980 0.960 . S
H967 C980 0.960 . S
C968 H960 0.929 . S
C968 C969 1.377 . S
C968 C970 1.384 . S
C969 C968 1.377 . S
C969 C975 1.390 . S
C970 H961 0.930 . S
C970 C968 1.384 . S
C970 C971 1.372 . S
C971 C970 1.372 . S
C971 C972 1.400 . S
C971 C976 1.490 . S
C972 H962 0.930 . S
C972 C971 1.400 . S
C972 C975 1.386 . S
H973 C989 0.930 . S
H974 C990 0.887 1_556 S
C975 H963 0.929 . S
C975 C969 1.390 . S
C975 C972 1.386 . S
C976 C971 1.490 . S
C976 C978 1.395 . S
C976 C979 1.403 . S
H977 C983 0.930 . S
C978 H964 0.930 . S
C978 C976 1.395 . S
C978 C981 1.403 . S
C979 C976 1.403 . S
C979 C980 1.524 . S
C979 C983 1.400 . S
C980 H965 0.960 . S
C980 H966 0.960 . S
C980 H967 0.960 . S
C980 C979 1.524 . S
C981 C978 1.403 . S
C981 C982 1.392 . S
C981 C985 1.480 1_556 S
C982 C981 1.392 . S
C982 C983 1.385 . S
C982 C984 1.478 1_656 S
C983 H977 0.930 . S
C983 C979 1.400 . S
C983 C982 1.385 . S
C984 C982 1.478 1_454 S
C984 C986 1.381 . S
C984 C990 1.400 . S
C985 C981 1.480 1_554 S
C985 H991 0.948 1_554 S
C985 H992 0.949 1_554 S
C985 H993 1.000 . S
C986 C984 1.381 . S
C986 C987 1.394 . S
C986 H994 0.930 1_455 S
C987 C986 1.394 . S
C987 C988 1.383 . S
C987 H995 0.929 . S
C988 C987 1.383 . S
C988 C989 1.377 . S
C989 H973 0.930 . S
C989 C988 1.377 . S
C989 C990 1.406 . S
C990 H974 0.887 1_554 S
C990 C984 1.400 . S
C990 C989 1.406 . S
H991 C985 0.948 1_556 S
H992 C985 0.949 1_556 S
H993 C985 1.000 . S
H994 C986 0.930 1_655 S
H995 C987 0.929 . S
H996 C1004 0.929 . S
H997 C1006 0.930 . S
H998 C1008 0.930 . S
H999 C1011 0.929 . S
H1000 C1014 0.930 . S
H1001 C1016 0.960 . S
H1002 C1016 0.960 . S
H1003 C1016 0.960 . S
C1004 H996 0.929 . S
C1004 C1005 1.377 . S
C1004 C1006 1.384 . S
C1005 C1004 1.377 . S
C1005 C1011 1.390 . S
C1006 H997 0.930 . S
C1006 C1004 1.384 . S
C1006 C1007 1.372 . S
C1007 C1006 1.372 . S
C1007 C1008 1.400 . S
C1007 C1012 1.490 . S
C1008 H998 0.930 . S
C1008 C1007 1.400 . S
C1008 C1011 1.386 . S
H1009 C1025 0.930 . S
H1010 C1026 0.931 . S
C1011 H999 0.929 . S
C1011 C1005 1.390 . S
C1011 C1008 1.386 . S
C1012 C1007 1.490 . S
C1012 C1014 1.395 . S
C1012 C1015 1.403 . S
H1013 C1019 0.930 . S
C1014 H1000 0.930 . S
C1014 C1012 1.395 . S
C1014 C1017 1.403 . S
C1015 C1012 1.403 . S
C1015 C1016 1.524 . S
C1015 C1019 1.400 . S
C1016 H1001 0.960 . S
C1016 H1002 0.960 . S
C1016 H1003 0.960 . S
C1016 C1015 1.524 . S
C1017 C1014 1.403 . S
C1017 C1018 1.392 . S
C1017 C1021 1.495 . S
C1018 C1017 1.392 . S
C1018 C1019 1.385 . S
C1018 C1020 1.478 1_565 S
C1019 H1013 0.930 . S
C1019 C1015 1.400 . S
C1019 C1018 1.385 . S
C1020 C1018 1.478 1_545 S
C1020 C1022 1.381 . S
C1020 C1026 1.383 . S
C1021 C1017 1.495 . S
C1021 H1027 0.959 . S
C1021 H1028 0.961 1_565 S
C1021 H1029 0.960 . S
C1022 C1020 1.381 . S
C1022 C1023 1.394 . S
C1022 H1030 0.930 1_545 S
C1023 C1022 1.394 . S
C1023 C1024 1.383 . S
C1023 H1031 0.929 . S
C1024 C1023 1.383 . S
C1024 C1025 1.377 . S
C1025 H1009 0.930 . S
C1025 C1024 1.377 . S
C1025 C1026 1.379 . S
C1026 H1010 0.931 . S
C1026 C1020 1.383 . S
C1026 C1025 1.379 . S
H1027 C1021 0.959 . S
H1028 C1021 0.961 1_545 S
H1029 C1021 0.960 . S
H1030 C1022 0.930 1_565 S
H1031 C1023 0.929 . S
H1032 C1040 0.929 . S
H1033 C1042 0.930 . S
H1034 C1044 0.930 . S
H1035 C1047 0.929 . S
H1036 C1050 0.930 . S
H1037 C1052 0.960 . S
H1038 C1052 0.960 . S
H1039 C1052 0.960 . S
C1040 H1032 0.929 . S
C1040 C1041 1.377 . S
C1040 C1042 1.384 . S
C1041 C1040 1.377 . S
C1041 C1047 1.390 . S
C1042 H1033 0.930 . S
C1042 C1040 1.384 . S
C1042 C1043 1.372 . S
C1043 C1042 1.372 . S
C1043 C1044 1.400 . S
C1043 C1048 1.490 . S
C1044 H1034 0.930 . S
C1044 C1043 1.400 . S
C1044 C1047 1.386 . S
H1045 C1061 0.930 . S
H1046 C1062 0.931 . S
C1047 H1035 0.929 . S
C1047 C1041 1.390 . S
C1047 C1044 1.386 . S
C1048 C1043 1.490 . S
C1048 C1050 1.395 . S
C1048 C1051 1.403 . S
H1049 C1055 0.930 . S
C1050 H1036 0.930 . S
C1050 C1048 1.395 . S
C1050 C1053 1.403 . S
C1051 C1048 1.403 . S
C1051 C1052 1.524 . S
C1051 C1055 1.400 . S
C1052 H1037 0.960 . S
C1052 H1038 0.960 . S
C1052 H1039 0.960 . S
C1052 C1051 1.524 . S
C1053 C1050 1.403 . S
C1053 C1054 1.392 . S
C1053 C1057 1.495 . S
C1054 C1053 1.392 . S
C1054 C1055 1.385 . S
C1054 C1056 1.478 . S
C1055 H1049 0.930 . S
C1055 C1051 1.400 . S
C1055 C1054 1.385 . S
C1056 C1054 1.478 . S
C1056 C1058 1.381 . S
C1056 C1062 1.383 . S
C1057 C1053 1.495 . S
C1057 H1063 0.959 . S
C1057 H1064 0.961 . S
C1057 H1065 0.960 . S
C1058 C1056 1.381 . S
C1058 C1059 1.394 . S
C1058 H1066 0.930 . S
C1059 C1058 1.394 . S
C1059 C1060 1.383 . S
C1059 H1067 0.929 . S
C1060 C1059 1.383 . S
C1060 C1061 1.377 . S
C1061 H1045 0.930 . S
C1061 C1060 1.377 . S
C1061 C1062 1.379 . S
C1062 H1046 0.931 . S
C1062 C1056 1.383 . S
C1062 C1061 1.379 . S
H1063 C1057 0.959 . S
H1064 C1057 0.961 . S
H1065 C1057 0.960 . S
H1066 C1058 0.930 . S
H1067 C1059 0.929 . S
H1068 C1076 0.929 . S
H1069 C1078 0.930 . S
H1070 C1080 0.930 . S
H1071 C1083 0.929 . S
H1072 C1086 0.930 . S
H1073 C1088 0.960 . S
H1074 C1088 0.960 . S
H1075 C1088 0.960 . S
C1076 H1068 0.929 . S
C1076 C1077 1.377 . S
C1076 C1078 1.384 . S
C1077 C1076 1.377 . S
C1077 C1083 1.390 . S
C1078 H1069 0.930 . S
C1078 C1076 1.384 . S
C1078 C1079 1.372 . S
C1079 C1078 1.372 . S
C1079 C1080 1.400 . S
C1079 C1084 1.490 . S
C1080 H1070 0.930 . S
C1080 C1079 1.400 . S
C1080 C1083 1.386 . S
H1081 C1097 0.930 . S
H1082 C1098 0.931 1_455 S
C1083 H1071 0.929 . S
C1083 C1077 1.390 . S
C1083 C1080 1.386 . S
C1084 C1079 1.490 . S
C1084 C1086 1.395 . S
C1084 C1087 1.403 . S
H1085 C1091 0.930 . S
C1086 H1072 0.930 . S
C1086 C1084 1.395 . S
C1086 C1089 1.403 . S
C1087 C1084 1.403 . S
C1087 C1088 1.524 . S
C1087 C1091 1.400 . S
C1088 H1073 0.960 . S
C1088 H1074 0.960 . S
C1088 H1075 0.960 . S
C1088 C1087 1.524 . S
C1089 C1086 1.403 . S
C1089 C1090 1.392 . S
C1089 C1093 1.495 . S
C1090 C1089 1.392 . S
C1090 C1091 1.385 . S
C1090 C1092 1.478 1_455 S
C1091 H1085 0.930 . S
C1091 C1087 1.400 . S
C1091 C1090 1.385 . S
C1092 C1090 1.478 1_655 S
C1092 C1094 1.381 . S
C1092 C1098 1.383 . S
C1093 C1089 1.495 . S
C1093 H1099 0.959 . S
C1093 H1100 0.961 . S
C1093 H1101 0.960 . S
C1094 C1092 1.381 . S
C1094 C1095 1.394 . S
C1094 H1102 0.930 . S
C1095 C1094 1.394 . S
C1095 C1096 1.383 . S
C1095 H1103 0.929 . S
C1096 C1095 1.383 . S
C1096 C1097 1.377 . S
C1097 H1081 0.930 . S
C1097 C1096 1.377 . S
C1097 C1098 1.379 . S
C1098 H1082 0.931 1_655 S
C1098 C1092 1.383 . S
C1098 C1097 1.379 . S
H1099 C1093 0.959 . S
H1100 C1093 0.961 . S
H1101 C1093 0.960 . S
H1102 C1094 0.930 . S
H1103 C1095 0.929 . S
H1104 C1112 0.929 . S
H1105 C1114 0.930 . S
H1106 C1116 0.930 . S
H1107 C1119 0.929 . S
H1108 C1122 0.930 . S
H1109 C1124 0.960 . S
H1110 C1124 0.960 . S
H1111 C1124 0.960 . S
C1112 H1104 0.929 . S
C1112 C1113 1.377 . S
C1112 C1114 1.384 . S
C1113 C1112 1.377 . S
C1113 C1119 1.390 . S
C1114 H1105 0.930 . S
C1114 C1112 1.384 . S
C1114 C1115 1.372 . S
C1115 C1114 1.372 . S
C1115 C1116 1.400 . S
C1115 C1120 1.490 1_565 S
C1116 H1106 0.930 . S
C1116 C1115 1.400 . S
C1116 C1119 1.386 . S
H1117 C1133 0.930 . S
H1118 C1134 0.931 . S
C1119 H1107 0.929 . S
C1119 C1113 1.390 . S
C1119 C1116 1.386 . S
C1120 C1115 1.490 1_545 S
C1120 C1122 1.395 . S
C1120 C1123 1.403 . S
H1121 C1127 0.930 . S
C1122 H1108 0.930 . S
C1122 C1120 1.395 . S
C1122 C1125 1.403 . S
C1123 C1120 1.403 . S
C1123 C1124 1.524 1_545 S
C1123 C1127 1.400 . S
C1124 H1109 0.960 . S
C1124 H1110 0.960 . S
C1124 H1111 0.960 . S
C1124 C1123 1.524 1_565 S
C1125 C1122 1.403 . S
C1125 C1126 1.392 . S
C1125 C1129 1.495 . S
C1126 C1125 1.392 . S
C1126 C1127 1.385 . S
C1126 C1128 1.478 . S
C1127 H1121 0.930 . S
C1127 C1123 1.400 . S
C1127 C1126 1.385 . S
C1128 C1126 1.478 . S
C1128 C1130 1.381 . S
C1128 C1134 1.383 . S
C1129 C1125 1.495 . S
C1129 H1135 0.959 . S
C1129 H1136 0.961 . S
C1129 H1137 0.960 . S
C1130 C1128 1.381 . S
C1130 C1131 1.394 . S
C1130 H1138 0.930 . S
C1131 C1130 1.394 . S
C1131 C1132 1.383 . S
C1131 H1139 0.929 . S
C1132 C1131 1.383 . S
C1132 C1133 1.377 . S
C1133 H1117 0.930 . S
C1133 C1132 1.377 . S
C1133 C1134 1.379 . S
C1134 H1118 0.931 . S
C1134 C1128 1.383 . S
C1134 C1133 1.379 . S
H1135 C1129 0.959 . S
H1136 C1129 0.961 . S
H1137 C1129 0.960 . S
H1138 C1130 0.930 . S
H1139 C1131 0.929 . S
C285 N196 1.631 . S
C304 N12 1.642 . S
C321 N35 1.633 . S
C340 N219 1.645 . S
C357 N58 1.630 . S
C376 N242 1.650 . S
C393 N81 1.630 . S
C412 N265 1.649 . S
C429 N150 1.636 . S
C448 N104 1.635 . S
C465 N127 1.633 . S
C484 N173 1.627 . S
C501 N209 1.163 . S
C520 N2 1.209 . S
C537 N25 1.164 . S
C556 N232 1.210 . S
C573 N255 1.173 . S
C592 N48 1.122 . S
C609 N71 1.159 . S
C628 N140 1.169 . S
C645 N163 1.168 . S
C664 N94 1.126 . S
C681 N186 1.169 . S
C700 N117 1.124 . S
C717 C16 2.018 . S
C736 C122 2.011 . S
C753 C39 2.020 . S
C772 C7 1.996 . S
C789 C30 2.004 . S
C808 C62 2.016 . S
C825 C85 2.016 . S
C844 C53 2.015 . S
C861 C108 2.014 . S
C880 C76 2.012 . S
C897 C131 2.013 . S
C916 C99 2.003 . S
C933 C154 2.016 . S
C952 C168 2.015 . S
C969 C177 2.015 . S
C988 C191 2.014 . S
C1005 C200 2.017 . S
C1024 C214 2.014 . S
C1041 C223 2.017 . S
C1060 C237 1.979 . S
C1077 C246 2.015 . S
C1096 C260 1.986 . S
C1113 C145 2.003 . S
C1132 C269 2.022 . S
