# Generated by pormake.
# Topology qtz-g, (3)-cn, num edge types: 1
# Building blocks:
#     Node 0, Type 0, BuildingBlock: OLANEW_clean_sbu_2, # of connection points: 3
#     Node 1, Type 0, BuildingBlock: OLANEW_clean_sbu_2, # of connection points: 3
#     Node 2, Type 0, BuildingBlock: OLANEW_clean_sbu_2, # of connection points: 3
#     Node 3, Type 0, BuildingBlock: OLANEW_clean_sbu_2, # of connection points: 3
#     Node 4, Type 0, BuildingBlock: OLANEW_clean_sbu_2, # of connection points: 3
#     Node 5, Type 0, BuildingBlock: OLANEW_clean_sbu_2, # of connection points: 3
#     Node 6, Type 0, BuildingBlock: OLANEW_clean_sbu_2, # of connection points: 3
#     Node 7, Type 0, BuildingBlock: OLANEW_clean_sbu_2, # of connection points: 3
#     Node 8, Type 0, BuildingBlock: OLANEW_clean_sbu_2, # of connection points: 3
#     Node 9, Type 0, BuildingBlock: OLANEW_clean_sbu_2, # of connection points: 3
#     Node 10, Type 0, BuildingBlock: OLANEW_clean_sbu_2, # of connection points: 3
#     Node 11, Type 0, BuildingBlock: OLANEW_clean_sbu_2, # of connection points: 3
#     Edge 12, Type (0, 0), BuildingBlock: XIVTED_clean_linker_0, # of connection points: 2
#     Edge 13, Type (0, 0), BuildingBlock: XIVTED_clean_linker_0, # of connection points: 2
#     Edge 14, Type (0, 0), BuildingBlock: XIVTED_clean_linker_0, # of connection points: 2
#     Edge 15, Type (0, 0), BuildingBlock: XIVTED_clean_linker_0, # of connection points: 2
#     Edge 16, Type (0, 0), BuildingBlock: XIVTED_clean_linker_0, # of connection points: 2
#     Edge 17, Type (0, 0), BuildingBlock: XIVTED_clean_linker_0, # of connection points: 2
#     Edge 18, Type (0, 0), BuildingBlock: XIVTED_clean_linker_0, # of connection points: 2
#     Edge 19, Type (0, 0), BuildingBlock: XIVTED_clean_linker_0, # of connection points: 2
#     Edge 20, Type (0, 0), BuildingBlock: XIVTED_clean_linker_0, # of connection points: 2
#     Edge 21, Type (0, 0), BuildingBlock: XIVTED_clean_linker_0, # of connection points: 2
#     Edge 22, Type (0, 0), BuildingBlock: XIVTED_clean_linker_0, # of connection points: 2
#     Edge 23, Type (0, 0), BuildingBlock: XIVTED_clean_linker_0, # of connection points: 2
#     Edge 24, Type (0, 0), BuildingBlock: XIVTED_clean_linker_0, # of connection points: 2
#     Edge 25, Type (0, 0), BuildingBlock: XIVTED_clean_linker_0, # of connection points: 2
#     Edge 26, Type (0, 0), BuildingBlock: XIVTED_clean_linker_0, # of connection points: 2
#     Edge 27, Type (0, 0), BuildingBlock: XIVTED_clean_linker_0, # of connection points: 2
#     Edge 28, Type (0, 0), BuildingBlock: XIVTED_clean_linker_0, # of connection points: 2
#     Edge 29, Type (0, 0), BuildingBlock: XIVTED_clean_linker_0, # of connection points: 2
# Relax obj value: 0.011
# Max RMSD: 0.024
# Mean RMSD: 0.024
data_MOF--net-qtz-g--node1-OLANEW_clean_sbu_2--edge1-XIVTED_clean_linker_0
_symmetry_space_group_name_H-M    P1
_symmetry_Int_Tables_number       1
_symmetry_cell_setting            triclinic
loop_
_symmetry_equiv_pos_as_xyz
'x, y, z'
_cell_length_a     44.372463
_cell_length_b     44.377379
_cell_length_c     84.141149
_cell_angle_alpha  90.000008
_cell_angle_beta   90.002955
_cell_angle_gamma 120.02698
loop_
_atom_site_label
_atom_site_type_symbol
_atom_site_fract_x
_atom_site_fract_y
_atom_site_fract_z
_atom_type_partial_charge
O0 O 0.99467 0.36672 0.03514 0.0
Cd1 Cd 0.99919 0.31476 0.03984 0.0
O2 O 0.01878 0.38138 0.05865 0.0
Cd3 Cd 0.03406 0.41257 0.08034 0.0
O4 O 0.03534 0.4242 0.10561 0.0
C5 C 0.00638 0.4107 0.1129 0.0
O6 O 0.97755 0.39194 0.1048 0.0
C7 C 0.00638 0.38841 0.04652 0.0
C8 C 0.05619 0.31678 0.02486 0.0
O9 O 0.02554 0.29894 0.019 0.0
O10 O 0.05999 0.33389 0.03768 0.0
O11 O 0.62389 0.99634 0.35552 0.0
Cd12 Cd 0.67821 0.99495 0.35418 0.0
O13 O 0.63235 0.00654 0.38101 0.0
Cd14 Cd 0.6245 0.0179 0.40551 0.0
O15 O 0.61939 0.02247 0.43109 0.0
C16 C 0.60453 0.99486 0.43939 0.0
O17 O 0.59216 0.9646 0.43226 0.0
C18 C 0.61345 0.00141 0.36878 0.0
C19 C 0.73599 0.05929 0.34678 0.0
O20 O 0.71779 0.03778 0.33581 0.0
O21 O 0.72663 0.0505 0.36124 0.0
O22 O 0.63401 0.62344 0.69451 0.0
Cd23 Cd 0.69042 0.6771 0.69456 0.0
O24 O 0.63072 0.62813 0.72022 0.0
Cd25 Cd 0.61089 0.61816 0.74466 0.0
O26 O 0.60059 0.61172 0.7702 0.0
C27 C 0.61225 0.59568 0.77836 0.0
O28 O 0.62952 0.58275 0.77113 0.0
C29 C 0.61736 0.61136 0.70742 0.0
C30 C 0.68563 0.73484 0.68514 0.0
O31 O 0.69022 0.7161 0.67491 0.0
O32 O 0.68313 0.72617 0.69982 0.0
O33 O 0.01002 0.62569 0.02385 0.0
Cd34 Cd 0.01128 0.68099 0.02039 0.0
O35 O 0.98676 0.6201 0.04744 0.0
Cd36 Cd 0.97173 0.59604 0.07095 0.0
O37 O 0.96812 0.58558 0.09647 0.0
C38 C 0.99624 0.59785 0.10438 0.0
O39 O 0.02606 0.61535 0.09686 0.0
C40 C 0.99824 0.60849 0.03664 0.0
C41 C 0.94624 0.67329 0.01365 0.0
O42 O 0.96645 0.67452 0.00247 0.0
O43 O 0.95664 0.67531 0.02803 0.0
O44 O 0.37441 0.00351 0.35631 0.0
Cd45 Cd 0.32021 0.00523 0.35581 0.0
O46 O 0.36796 0.99433 0.38192 0.0
Cd47 Cd 0.37728 0.98371 0.40632 0.0
O48 O 0.38283 0.97922 0.43187 0.0
C49 C 0.39712 0.00676 0.44024 0.0
O50 O 0.40874 0.037 0.43318 0.0
C51 C 0.38582 0.99883 0.36938 0.0
C52 C 0.2625 0.942 0.34703 0.0
O53 O 0.28109 0.96477 0.33656 0.0
O54 O 0.27141 0.94901 0.36165 0.0
O55 O 0.37135 0.38163 0.68687 0.0
Cd56 Cd 0.31434 0.32902 0.68467 0.0
O57 O 0.37035 0.37255 0.71245 0.0
Cd58 Cd 0.3884 0.38002 0.73712 0.0
O59 O 0.39932 0.38842 0.76253 0.0
C60 C 0.3896 0.40692 0.77007 0.0
O61 O 0.37384 0.42076 0.76226 0.0
C62 C 0.38586 0.39126 0.70039 0.0
C63 C 0.31866 0.27004 0.67725 0.0
O64 O 0.31725 0.28935 0.66628 0.0
O65 O 0.31828 0.27877 0.69173 0.0
O66 O 0.6317 0.01055 0.64228 0.0
Cd67 Cd 0.68854 0.0144 0.64367 0.0
O68 O 0.63031 0.00108 0.61673 0.0
Cd69 Cd 0.61107 0.98937 0.59224 0.0
O70 O 0.60155 0.98418 0.56665 0.0
C71 C 0.61099 0.01143 0.55837 0.0
O72 O 0.62543 0.04181 0.56553 0.0
C73 C 0.61598 0.00505 0.62905 0.0
C74 C 0.68414 0.95197 0.65296 0.0
O75 O 0.68697 0.9745 0.66328 0.0
O76 O 0.68317 0.95889 0.63824 0.0
O77 O 0.6149 0.62807 0.97755 0.0
Cd78 Cd 0.66933 0.68307 0.98095 0.0
O79 O 0.63342 0.62073 0.9545 0.0
Cd80 Cd 0.62547 0.59554 0.93132 0.0
O81 O 0.62055 0.58491 0.9058 0.0
C82 C 0.60463 0.5965 0.89749 0.0
O83 O 0.59109 0.6133 0.90463 0.0
C84 C 0.60979 0.61008 0.96505 0.0
C85 C 0.72622 0.67463 0.98769 0.0
O86 O 0.7074 0.67616 0.99887 0.0
O87 O 0.71788 0.67671 0.97331 0.0
O88 O 0.98017 0.61615 0.30381 0.0
Cd89 Cd 0.97827 0.67008 0.30588 0.0
O90 O 0.00267 0.63131 0.27994 0.0
Cd91 Cd 0.01842 0.62079 0.25693 0.0
O92 O 0.02255 0.6137 0.23147 0.0
C93 C 0.99456 0.59692 0.22354 0.0
O94 O 0.96462 0.58373 0.23104 0.0
C95 C 0.99194 0.60958 0.29132 0.0
C96 C 0.04234 0.72685 0.31448 0.0
O97 O 0.02023 0.70766 0.32506 0.0
O98 O 0.03422 0.71905 0.29984 0.0
O99 O 0.36811 0.98799 0.643 0.0
Cd100 Cd 0.31134 0.98435 0.64404 0.0
O101 O 0.37025 0.99808 0.61749 0.0
Cd102 Cd 0.39002 0.01038 0.59309 0.0
O103 O 0.39975 0.01603 0.56752 0.0
C104 C 0.39065 0.98895 0.55917 0.0
O105 O 0.37645 0.95849 0.56624 0.0
C106 C 0.38423 0.99382 0.62986 0.0
C107 C 0.31636 0.04791 0.65162 0.0
O108 O 0.31338 0.0264 0.66252 0.0
O109 O 0.31714 0.0394 0.63713 0.0
O110 O 0.37347 0.36555 0.96639 0.0
Cd111 Cd 0.31672 0.31393 0.96165 0.0
O112 O 0.363 0.38169 0.94347 0.0
Cd113 Cd 0.37751 0.41383 0.92209 0.0
O114 O 0.38535 0.42579 0.89676 0.0
C115 C 0.40191 0.41418 0.88896 0.0
O116 O 0.41467 0.3972 0.8966 0.0
C117 C 0.38303 0.38794 0.95532 0.0
C118 C 0.26196 0.31724 0.97614 0.0
O119 O 0.27418 0.29912 0.98225 0.0
O120 O 0.27575 0.33401 0.96329 0.0
O121 O 0.02042 0.39007 0.31077 0.0
Cd122 Cd 0.02332 0.33721 0.31533 0.0
O123 O 0.9955 0.36923 0.28773 0.0
Cd124 Cd 0.97799 0.37571 0.26438 0.0
O125 O 0.97492 0.38428 0.23903 0.0
C126 C 0.00307 0.40476 0.23184 0.0
O127 O 0.0322 0.42034 0.24001 0.0
C128 C 0.0072 0.39349 0.29799 0.0
C129 C 0.95854 0.27959 0.32226 0.0
O130 O 0.97827 0.29956 0.33334 0.0
O131 O 0.96936 0.28703 0.30789 0.0
H132 H 0.94674 0.54683 0.04844 0.0
H133 H 0.05726 0.45335 0.05493 0.0
H134 H 0.05142 0.59663 0.03002 0.0
H135 H 0.95275 0.39705 0.03636 0.0
H136 H 0.05533 0.50766 0.05302 0.0
H137 H 0.9481 0.49227 0.05126 0.0
C138 C 0.97008 0.5463 0.04516 0.0
C139 C 0.99905 0.57606 0.03902 0.0
C140 C 0.03284 0.48332 0.04946 0.0
C141 C 0.00092 0.51453 0.04245 0.0
C142 C 0.03382 0.45246 0.05061 0.0
C143 C 0.00509 0.42089 0.04581 0.0
C144 C 0.00255 0.48229 0.0439 0.0
C145 C 0.97544 0.42101 0.04012 0.0
C146 C 0.97073 0.51528 0.04667 0.0
C147 C 0.02857 0.5741 0.03476 0.0
N148 N 0.97475 0.45128 0.03947 0.0
N149 N 0.02893 0.54388 0.03671 0.0
H150 H 0.56996 0.98849 0.39457 0.0
H151 H 0.41783 0.98741 0.34439 0.0
H152 H 0.57934 0.01198 0.34443 0.0
H153 H 0.43095 0.01151 0.39448 0.0
H154 H 0.47328 0.98823 0.34436 0.0
H155 H 0.51522 0.989 0.39506 0.0
C156 C 0.56117 0.99472 0.38376 0.0
C157 C 0.5801 0.00148 0.36956 0.0
C158 C 0.4638 0.99302 0.35539 0.0
C159 C 0.51631 1.00008 0.36987 0.0
C160 C 0.43212 0.99252 0.35544 0.0
C161 C 0.41904 0.99843 0.36958 0.0
C162 C 0.48256 0.99929 0.36959 0.0
C163 C 0.43894 0.00517 0.38348 0.0
C164 C 0.52955 0.99445 0.38401 0.0
C165 C 0.56586 0.00697 0.35569 0.0
N166 N 0.46962 0.00523 0.38316 0.0
N167 N 0.53482 0.00606 0.35619 0.0
H168 H 0.43417 0.42259 0.67701 0.0
H169 H 0.58123 0.56595 0.73204 0.0
H170 H 0.41529 0.43466 0.72627 0.0
H171 H 0.57596 0.5809 0.68165 0.0
H172 H 0.52446 0.51308 0.73061 0.0
H173 H 0.49055 0.47612 0.67882 0.0
C174 C 0.44198 0.43622 0.68827 0.0
C175 C 0.42029 0.42336 0.70166 0.0
C176 C 0.53567 0.52823 0.71993 0.0
C177 C 0.48486 0.48456 0.70379 0.0
C178 C 0.56795 0.5588 0.72077 0.0
C179 C 0.58308 0.5788 0.70706 0.0
C180 C 0.51881 0.51707 0.70521 0.0
C181 C 0.56526 0.56658 0.69257 0.0
C182 C 0.47414 0.46677 0.68927 0.0
C183 C 0.43171 0.44238 0.71588 0.0
N184 N 0.53417 0.53649 0.69202 0.0
N185 N 0.46332 0.47192 0.71661 0.0
H186 H 0.58331 0.01594 0.60348 0.0
H187 H 0.42838 0.00648 0.65467 0.0
H188 H 0.57099 0.99175 0.65357 0.0
H189 H 0.41799 0.9841 0.60441 0.0
H190 H 0.48462 0.00901 0.65432 0.0
H191 H 0.52641 0.01197 0.60331 0.0
C192 C 0.5684 0.00888 0.61434 0.0
C193 C 0.58159 0.00296 0.62844 0.0
C194 C 0.4701 0.00383 0.64334 0.0
C195 C 0.5172 0.00032 0.62849 0.0
C196 C 0.438 0.00242 0.64351 0.0
C197 C 0.41868 0.99601 0.62944 0.0
C198 C 0.48321 0.999 0.62899 0.0
C199 C 0.43247 0.99072 0.61538 0.0
C200 C 0.53607 0.00715 0.61428 0.0
C201 C 0.5618 0.99621 0.64238 0.0
N202 N 0.46399 0.99252 0.61549 0.0
N203 N 0.53069 0.99516 0.64206 0.0
H204 H 0.44521 0.39577 0.96505 0.0
H205 H 0.54496 0.5994 0.97113 0.0
H206 H 0.39756 0.45338 0.94754 0.0
H207 H 0.59885 0.54756 0.95402 0.0
H208 H 0.48934 0.54488 0.96788 0.0
H209 H 0.50143 0.4504 0.96646 0.0
C210 C 0.44667 0.41993 0.96151 0.0
C211 C 0.41698 0.42025 0.95606 0.0
C212 C 0.5134 0.54561 0.96478 0.0
C213 C 0.48043 0.48233 0.958 0.0
C214 C 0.54499 0.57651 0.96667 0.0
C215 C 0.5763 0.57783 0.9627 0.0
C216 C 0.51335 0.51568 0.9594 0.0
C217 C 0.57512 0.54755 0.95701 0.0
C218 C 0.47862 0.45089 0.96224 0.0
C219 C 0.42005 0.45213 0.95162 0.0
N220 N 0.5441 0.51745 0.95572 0.0
N221 N 0.45118 0.48205 0.95287 0.0
H222 H 0.94136 0.54468 0.30005 0.0
H223 H 0.05865 0.46038 0.30296 0.0
H224 H 0.04495 0.60083 0.28047 0.0
H225 H 0.95257 0.39903 0.28681 0.0
H226 H 0.05488 0.5134 0.29926 0.0
H227 H 0.94491 0.49114 0.29975 0.0
C228 C 0.96472 0.54559 0.2956 0.0
C229 C 0.99283 0.57695 0.29017 0.0
C230 C 0.03261 0.4883 0.2964 0.0
C231 C 0.99737 0.51652 0.29023 0.0
C232 C 0.03467 0.45819 0.29857 0.0
C233 C 0.00593 0.42553 0.29508 0.0
C234 C 0.00122 0.48545 0.29126 0.0
C235 C 0.97538 0.42387 0.28946 0.0
C236 C 0.96666 0.51516 0.29538 0.0
C237 C 0.02261 0.57698 0.28457 0.0
N238 N 0.97359 0.45344 0.28795 0.0
N239 N 0.02438 0.54726 0.28499 0.0
H240 H 0.0593 0.44395 0.21274 0.0
H241 H 0.94892 0.38269 0.13211 0.0
H242 H 0.94783 0.37613 0.21118 0.0
H243 H 0.06103 0.44513 0.13356 0.0
H244 H 0.9476 0.38419 0.16109 0.0
H245 H 0.05995 0.44872 0.18382 0.0
C246 C 0.03491 0.4302 0.20633 0.0
C247 C 0.00348 0.40944 0.21441 0.0
C248 C 0.97248 0.39772 0.15508 0.0
C249 C 0.00407 0.41476 0.18125 0.0
C250 C 0.97327 0.39692 0.13851 0.0
C251 C 0.00517 0.41363 0.13038 0.0
C252 C 0.00381 0.41534 0.16361 0.0
C253 C 0.03585 0.43175 0.13932 0.0
C254 C 0.03533 0.43292 0.1898 0.0
C255 C 0.9727 0.39231 0.20546 0.0
N256 N 0.03442 0.43198 0.15546 0.0
N257 N 0.97379 0.39524 0.18936 0.0
H258 H 0.57668 0.94094 0.46066 0.0
H259 H 0.63063 0.06479 0.53711 0.0
H260 H 0.628 0.05304 0.45806 0.0
H261 H 0.58327 0.953 0.53967 0.0
H262 H 0.62686 0.06078 0.50816 0.0
H263 H 0.57587 0.94466 0.48959 0.0
C264 C 0.58767 0.96635 0.46616 0.0
C265 C 0.60257 0.99674 0.4569 0.0
C266 C 0.61718 0.03711 0.51505 0.0
C267 C 0.60176 0.00117 0.49008 0.0
C268 C 0.61929 0.03937 0.5316 0.0
C269 C 0.60738 0.00919 0.54085 0.0
C270 C 0.60304 0.00443 0.50766 0.0
C271 C 0.59289 0.97697 0.53303 0.0
C272 C 0.58722 0.96845 0.4827 0.0
C273 C 0.61634 0.02893 0.46471 0.0
N274 N 0.59123 0.97546 0.51689 0.0
N275 N 0.6157 0.03029 0.48084 0.0
H276 H 0.57881 0.62024 0.7972 0.0
H277 H 0.63151 0.56509 0.87869 0.0
H278 H 0.63607 0.56528 0.79942 0.0
H279 H 0.57423 0.62002 0.87632 0.0
H280 H 0.63102 0.56236 0.84966 0.0
H281 H 0.57446 0.61791 0.82616 0.0
C282 C 0.59036 0.60755 0.80377 0.0
C283 C 0.60798 0.59307 0.79585 0.0
C284 C 0.61843 0.57488 0.8555 0.0
C285 C 0.60316 0.59038 0.82906 0.0
C286 C 0.61868 0.57643 0.87208 0.0
C287 C 0.60302 0.59295 0.87997 0.0
C288 C 0.60245 0.59 0.84671 0.0
C289 C 0.58674 0.60712 0.87077 0.0
C290 C 0.58787 0.60624 0.82032 0.0
C291 C 0.62234 0.57689 0.805 0.0
N292 N 0.587 0.60544 0.85465 0.0
N293 N 0.61973 0.57611 0.82111 0.0
H294 H 0.05176 0.62288 0.20406 0.0
H295 H 0.93926 0.56457 0.12388 0.0
H296 H 0.93942 0.56455 0.20309 0.0
H297 H 0.05159 0.62298 0.12483 0.0
H298 H 0.93886 0.5616 0.15289 0.0
H299 H 0.05231 0.62048 0.17505 0.0
C300 C 0.0272 0.60941 0.19776 0.0
C301 C 0.99548 0.59404 0.20604 0.0
C302 C 0.96361 0.57494 0.14675 0.0
C303 C 0.99593 0.59129 0.17279 0.0
C304 C 0.96385 0.57664 0.13018 0.0
C305 C 0.99551 0.5942 0.1219 0.0
C306 C 0.99524 0.59098 0.15514 0.0
C307 C 0.02656 0.60927 0.1307 0.0
C308 C 0.02754 0.60807 0.18118 0.0
C309 C 0.96449 0.57688 0.19723 0.0
N310 N 0.02563 0.60744 0.14683 0.0
N311 N 0.9655 0.57611 0.1811 0.0
H312 H 0.42405 0.06048 0.46162 0.0
H313 H 0.37187 0.93597 0.53778 0.0
H314 H 0.37479 0.94855 0.45877 0.0
H315 H 0.41773 0.04758 0.54061 0.0
H316 H 0.37573 0.94035 0.50884 0.0
H317 H 0.42494 0.05652 0.49054 0.0
C318 C 0.41354 0.03506 0.46706 0.0
C319 C 0.39919 0.00478 0.45773 0.0
C320 C 0.38506 0.9639 0.51578 0.0
C321 C 0.40007 1.00007 0.4909 0.0
C322 C 0.38289 0.96143 0.53233 0.0
C323 C 0.39436 0.99145 0.54165 0.0
C324 C 0.39879 0.99663 0.50847 0.0
C325 C 0.40847 0.02373 0.53391 0.0
C326 C 0.41403 0.03282 0.4836 0.0
C327 C 0.38601 0.97257 0.46547 0.0
N328 N 0.41018 0.02544 0.51778 0.0
N329 N 0.38667 0.97107 0.4816 0.0
H330 H 0.43365 0.3903 0.86878 0.0
H331 H 0.36861 0.44173 0.78997 0.0
H332 H 0.37539 0.44434 0.86916 0.0
H333 H 0.42177 0.38262 0.78987 0.0
H334 H 0.3747 0.44684 0.81885 0.0
H335 H 0.43363 0.39139 0.83978 0.0
C336 C 0.42103 0.4026 0.86277 0.0
C337 C 0.4043 0.41706 0.87143 0.0
C338 C 0.38516 0.43287 0.8125 0.0
C339 C 0.40406 0.41826 0.83817 0.0
C340 C 0.38172 0.42995 0.796 0.0
C341 C 0.39454 0.41155 0.78748 0.0
C342 C 0.40159 0.4173 0.82057 0.0
C343 C 0.41134 0.39691 0.79594 0.0
C344 C 0.42098 0.40316 0.84619 0.0
C345 C 0.38849 0.43275 0.86298 0.0
N346 N 0.41427 0.4 0.81202 0.0
N347 N 0.38861 0.43277 0.84682 0.0
H348 H 0.24853 0.37093 0.97608 0.0
H349 H 0.05673 0.26454 0.00803 0.0
H350 H 0.20798 0.26565 0.9927 0.0
H351 H 0.12383 0.36952 0.02451 0.0
H352 H 0.10758 0.26477 0.99631 0.0
H353 H 0.19825 0.37146 0.9881 0.0
C354 C 0.229 0.34796 0.98223 0.0
C355 C 0.23232 0.31824 0.98349 0.0
C356 C 0.111 0.2877 0.00248 0.0
C357 C 0.17482 0.31844 0.99677 0.0
C358 C 0.08212 0.28769 0.00906 0.0
C359 C 0.08625 0.31704 0.01726 0.0
C360 C 0.14391 0.31762 0.0037 0.0
C361 C 0.11968 0.34633 0.01835 0.0
C362 C 0.20054 0.34835 0.98909 0.0
C363 C 0.20641 0.28914 0.99159 0.0
N364 N 0.14729 0.34606 0.01149 0.0
N365 N 0.17843 0.28978 0.99777 0.0
H366 H 0.92853 0.25664 0.35149 0.0
H367 H 0.76294 0.08516 0.31735 0.0
H368 H 0.91122 0.23158 0.30154 0.0
H369 H 0.78062 0.10996 0.36731 0.0
H370 H 0.81602 0.13976 0.31125 0.0
H371 H 0.87333 0.20413 0.35745 0.0
C372 C 0.91308 0.24016 0.34177 0.0
C373 C 0.9246 0.24848 0.32599 0.0
C374 C 0.80824 0.13332 0.32355 0.0
C375 C 0.86133 0.18822 0.33273 0.0
C376 C 0.77791 0.10214 0.32704 0.0
C377 C 0.76735 0.09289 0.34288 0.0
C378 C 0.82825 0.15547 0.33597 0.0
C379 C 0.78778 0.11597 0.35494 0.0
C380 C 0.88154 0.21015 0.34518 0.0
C381 C 0.90343 0.22616 0.31388 0.0
N382 N 0.81729 0.14612 0.35124 0.0
N383 N 0.87289 0.19702 0.31751 0.0
H384 H 0.68732 0.7585 0.65489 0.0
H385 H 0.683 0.92859 0.68321 0.0
H386 H 0.67975 0.78193 0.70403 0.0
H387 H 0.6819 0.90074 0.63396 0.0
H388 H 0.68196 0.87508 0.69107 0.0
H389 H 0.68554 0.81056 0.64699 0.0
C390 C 0.68522 0.77455 0.66403 0.0
C391 C 0.68375 0.76585 0.68016 0.0
C392 C 0.68185 0.88061 0.67854 0.0
C393 C 0.68178 0.8256 0.67118 0.0
C394 C 0.68247 0.91119 0.67404 0.0
C395 C 0.68261 0.91922 0.65789 0.0
C396 C 0.68151 0.85789 0.66682 0.0
C397 C 0.68184 0.89564 0.64655 0.0
C398 C 0.68417 0.80428 0.6595 0.0
C399 C 0.68098 0.78762 0.69146 0.0
N400 N 0.68143 0.86612 0.65123 0.0
N401 N 0.68019 0.81652 0.68676 0.0
H402 H 0.89766 0.67038 0.03465 0.0
H403 H 0.77151 0.67104 0.9667 0.0
H404 H 0.91752 0.67012 0.98444 0.0
H405 H 0.75162 0.67124 0.01691 0.0
H406 H 0.82386 0.6683 0.97296 0.0
H407 H 0.84287 0.66829 0.02839 0.0
C408 C 0.89045 0.66975 0.0223 0.0
C409 C 0.91229 0.67055 0.01005 0.0
C410 C 0.80799 0.66882 0.98261 0.0
C411 C 0.84959 0.66824 0.00279 0.0
C412 C 0.77806 0.67037 0.97904 0.0
C413 C 0.75719 0.67149 0.9913 0.0
C414 C 0.81719 0.66844 0.99856 0.0
C415 C 0.76697 0.6705 0.00707 0.0
C416 C 0.85915 0.66857 0.01873 0.0
C417 C 0.90155 0.66962 0.99427 0.0
N418 N 0.79631 0.66915 0.01024 0.0
N419 N 0.87103 0.66863 0.9911 0.0
H420 H 0.21607 0.8898 0.36646 0.0
H421 H 0.09347 0.77422 0.29491 0.0
H422 H 0.23756 0.91891 0.31704 0.0
H423 H 0.0679 0.74926 0.34446 0.0
H424 H 0.14808 0.82556 0.30274 0.0
H425 H 0.16344 0.83639 0.35857 0.0
C426 C 0.2098 0.88492 0.35395 0.0
C427 C 0.23122 0.90895 0.3424 0.0
C428 C 0.13056 0.80882 0.31191 0.0
C429 C 0.17093 0.84783 0.33328 0.0
C430 C 0.09937 0.77946 0.30744 0.0
C431 C 0.07599 0.75744 0.31905 0.0
C432 C 0.13852 0.81624 0.3281 0.0
C433 C 0.08507 0.76555 0.3351 0.0
C434 C 0.1797 0.85442 0.34945 0.0
C435 C 0.22178 0.9012 0.32636 0.0
N436 N 0.11558 0.7943 0.33915 0.0
N437 N 0.19232 0.87135 0.32228 0.0
H438 H 0.32072 0.24504 0.64774 0.0
H439 H 0.31633 0.07385 0.68116 0.0
H440 H 0.31977 0.22257 0.69772 0.0
H441 H 0.32085 0.09813 0.63123 0.0
H442 H 0.31832 0.12855 0.68748 0.0
H443 H 0.32156 0.19172 0.64147 0.0
C444 C 0.32077 0.22894 0.65741 0.0
C445 C 0.3201 0.23828 0.67329 0.0
C446 C 0.31895 0.12197 0.67514 0.0
C447 C 0.32098 0.17708 0.66618 0.0
C448 C 0.31781 0.09071 0.67152 0.0
C449 C 0.31835 0.08133 0.65563 0.0
C450 C 0.32058 0.14404 0.66279 0.0
C451 C 0.32033 0.10426 0.64364 0.0
C452 C 0.32125 0.19848 0.65381 0.0
C453 C 0.32023 0.2164 0.68531 0.0
N454 N 0.32129 0.13449 0.64747 0.0
N455 N 0.32057 0.1868 0.68151 0.0
loop_
_geom_bond_atom_site_label_1
_geom_bond_atom_site_label_2
_geom_bond_distance
_geom_bond_site_symmetry_2
_ccdc_geom_bond_type
O0 Cd1 2.300 . S
O0 C7 1.275 . S
Cd1 O0 2.300 . S
Cd1 O9 2.381 . S
Cd1 O10 2.378 . S
O2 Cd3 2.385 . S
O2 C7 1.255 . S
Cd3 O2 2.385 . S
Cd3 O4 2.317 . S
O4 Cd3 2.317 . S
O4 C5 1.232 . S
C5 O4 1.232 . S
C5 O6 1.218 . S
O6 C5 1.218 . S
C7 O0 1.275 . S
C7 O2 1.255 . S
C8 O9 1.258 . S
C8 O10 1.256 . S
O9 Cd1 2.381 . S
O9 C8 1.258 . S
O10 Cd1 2.378 . S
O10 C8 1.256 . S
O11 Cd12 2.300 . S
O11 C18 1.275 . S
Cd12 O11 2.300 . S
Cd12 O20 2.381 . S
Cd12 O21 2.378 . S
O13 Cd14 2.385 . S
O13 C18 1.255 . S
Cd14 O13 2.385 . S
Cd14 O15 2.317 . S
O15 Cd14 2.317 . S
O15 C16 1.232 . S
C16 O15 1.232 . S
C16 O17 1.218 . S
O17 C16 1.218 . S
C18 O11 1.275 . S
C18 O13 1.255 . S
C19 O20 1.258 . S
C19 O21 1.256 . S
O20 Cd12 2.381 . S
O20 C19 1.258 . S
O21 Cd12 2.378 . S
O21 C19 1.256 . S
O22 Cd23 2.300 . S
O22 C29 1.275 . S
Cd23 O22 2.300 . S
Cd23 O31 2.381 . S
Cd23 O32 2.378 . S
O24 Cd25 2.385 . S
O24 C29 1.255 . S
Cd25 O24 2.385 . S
Cd25 O26 2.317 . S
O26 Cd25 2.317 . S
O26 C27 1.232 . S
C27 O26 1.232 . S
C27 O28 1.218 . S
O28 C27 1.218 . S
C29 O22 1.275 . S
C29 O24 1.255 . S
C30 O31 1.258 . S
C30 O32 1.256 . S
O31 Cd23 2.381 . S
O31 C30 1.258 . S
O32 Cd23 2.378 . S
O32 C30 1.256 . S
O33 Cd34 2.300 . S
O33 C40 1.275 . S
Cd34 O33 2.300 . S
Cd34 O42 2.381 . S
Cd34 O43 2.378 . S
O35 Cd36 2.385 . S
O35 C40 1.255 . S
Cd36 O35 2.385 . S
Cd36 O37 2.317 . S
O37 Cd36 2.317 . S
O37 C38 1.232 . S
C38 O37 1.232 . S
C38 O39 1.218 . S
O39 C38 1.218 . S
C40 O33 1.275 . S
C40 O35 1.255 . S
C41 O42 1.258 . S
C41 O43 1.256 . S
O42 Cd34 2.381 . S
O42 C41 1.258 . S
O43 Cd34 2.378 . S
O43 C41 1.256 . S
O44 Cd45 2.300 . S
O44 C51 1.275 . S
Cd45 O44 2.300 . S
Cd45 O53 2.381 . S
Cd45 O54 2.378 . S
O46 Cd47 2.385 . S
O46 C51 1.255 . S
Cd47 O46 2.385 . S
Cd47 O48 2.317 . S
O48 Cd47 2.317 . S
O48 C49 1.232 . S
C49 O48 1.232 . S
C49 O50 1.218 . S
O50 C49 1.218 . S
C51 O44 1.275 . S
C51 O46 1.255 . S
C52 O53 1.258 . S
C52 O54 1.256 . S
O53 Cd45 2.381 . S
O53 C52 1.258 . S
O54 Cd45 2.378 . S
O54 C52 1.256 . S
O55 Cd56 2.300 . S
O55 C62 1.275 . S
Cd56 O55 2.300 . S
Cd56 O64 2.381 . S
Cd56 O65 2.378 . S
O57 Cd58 2.385 . S
O57 C62 1.255 . S
Cd58 O57 2.385 . S
Cd58 O59 2.317 . S
O59 Cd58 2.317 . S
O59 C60 1.232 . S
C60 O59 1.232 . S
C60 O61 1.218 . S
O61 C60 1.218 . S
C62 O55 1.275 . S
C62 O57 1.255 . S
C63 O64 1.258 . S
C63 O65 1.256 . S
O64 Cd56 2.381 . S
O64 C63 1.258 . S
O65 Cd56 2.378 . S
O65 C63 1.256 . S
O66 Cd67 2.300 . S
O66 C73 1.275 . S
Cd67 O66 2.300 . S
Cd67 O75 2.381 . S
Cd67 O76 2.378 . S
O68 Cd69 2.385 . S
O68 C73 1.255 . S
Cd69 O68 2.385 . S
Cd69 O70 2.317 . S
O70 Cd69 2.317 . S
O70 C71 1.232 . S
C71 O70 1.232 . S
C71 O72 1.218 . S
O72 C71 1.218 . S
C73 O66 1.275 . S
C73 O68 1.255 . S
C74 O75 1.258 . S
C74 O76 1.256 . S
O75 Cd67 2.381 . S
O75 C74 1.258 . S
O76 Cd67 2.378 . S
O76 C74 1.256 . S
O77 Cd78 2.300 . S
O77 C84 1.275 . S
Cd78 O77 2.300 . S
Cd78 O86 2.381 . S
Cd78 O87 2.378 . S
O79 Cd80 2.385 . S
O79 C84 1.255 . S
Cd80 O79 2.385 . S
Cd80 O81 2.317 . S
O81 Cd80 2.317 . S
O81 C82 1.232 . S
C82 O81 1.232 . S
C82 O83 1.218 . S
O83 C82 1.218 . S
C84 O77 1.275 . S
C84 O79 1.255 . S
C85 O86 1.258 . S
C85 O87 1.256 . S
O86 Cd78 2.381 . S
O86 C85 1.258 . S
O87 Cd78 2.378 . S
O87 C85 1.256 . S
O88 Cd89 2.300 . S
O88 C95 1.275 . S
Cd89 O88 2.300 . S
Cd89 O97 2.381 . S
Cd89 O98 2.378 . S
O90 Cd91 2.385 . S
O90 C95 1.255 . S
Cd91 O90 2.385 . S
Cd91 O92 2.317 . S
O92 Cd91 2.317 . S
O92 C93 1.232 . S
C93 O92 1.232 . S
C93 O94 1.218 . S
O94 C93 1.218 . S
C95 O88 1.275 . S
C95 O90 1.255 . S
C96 O97 1.258 . S
C96 O98 1.256 . S
O97 Cd89 2.381 . S
O97 C96 1.258 . S
O98 Cd89 2.378 . S
O98 C96 1.256 . S
O99 Cd100 2.300 . S
O99 C106 1.275 . S
Cd100 O99 2.300 . S
Cd100 O108 2.381 . S
Cd100 O109 2.378 . S
O101 Cd102 2.385 . S
O101 C106 1.255 . S
Cd102 O101 2.385 . S
Cd102 O103 2.317 . S
O103 Cd102 2.317 . S
O103 C104 1.232 . S
C104 O103 1.232 . S
C104 O105 1.218 . S
O105 C104 1.218 . S
C106 O99 1.275 . S
C106 O101 1.255 . S
C107 O108 1.258 . S
C107 O109 1.256 . S
O108 Cd100 2.381 . S
O108 C107 1.258 . S
O109 Cd100 2.378 . S
O109 C107 1.256 . S
O110 Cd111 2.300 . S
O110 C117 1.275 . S
Cd111 O110 2.300 . S
Cd111 O119 2.381 . S
Cd111 O120 2.378 . S
O112 Cd113 2.385 . S
O112 C117 1.255 . S
Cd113 O112 2.385 . S
Cd113 O114 2.317 . S
O114 Cd113 2.317 . S
O114 C115 1.232 . S
C115 O114 1.232 . S
C115 O116 1.218 . S
O116 C115 1.218 . S
C117 O110 1.275 . S
C117 O112 1.255 . S
C118 O119 1.258 . S
C118 O120 1.256 . S
O119 Cd111 2.381 . S
O119 C118 1.258 . S
O120 Cd111 2.378 . S
O120 C118 1.256 . S
O121 Cd122 2.300 . S
O121 C128 1.275 . S
Cd122 O121 2.300 . S
Cd122 O130 2.381 . S
Cd122 O131 2.378 . S
O123 Cd124 2.385 . S
O123 C128 1.255 . S
Cd124 O123 2.385 . S
Cd124 O125 2.317 . S
O125 Cd124 2.317 . S
O125 C126 1.232 . S
C126 O125 1.232 . S
C126 O127 1.218 . S
O127 C126 1.218 . S
C128 O121 1.275 . S
C128 O123 1.255 . S
C129 O130 1.258 . S
C129 O131 1.256 . S
O130 Cd122 2.381 . S
O130 C129 1.258 . S
O131 Cd122 2.378 . S
O131 C129 1.256 . S
H132 C138 0.930 . S
H133 C142 0.930 . S
H134 C147 0.929 . S
H135 C145 0.929 . S
H136 C140 0.929 . S
H137 C146 0.929 . S
C138 H132 0.930 . S
C138 C139 1.367 . S
C138 C146 1.378 . S
C139 C138 1.367 . S
C139 C147 1.433 1_655 S
C140 H136 0.929 . S
C140 C142 1.378 . S
C140 C144 1.350 . S
C141 C144 1.463 1_655 S
C141 C146 1.350 . S
C141 N149 1.427 1_655 S
C142 H133 0.930 . S
C142 C140 1.378 . S
C142 C143 1.367 . S
C143 C142 1.367 . S
C143 C145 1.433 1_455 S
C144 C140 1.350 . S
C144 C141 1.463 1_455 S
C144 N148 1.427 1_455 S
C145 H135 0.929 . S
C145 C143 1.433 1_655 S
C145 N148 1.384 . S
C146 H137 0.929 . S
C146 C138 1.378 . S
C146 C141 1.350 . S
C147 H134 0.929 . S
C147 C139 1.433 1_455 S
C147 N149 1.384 . S
N148 C144 1.427 1_655 S
N148 C145 1.384 . S
N149 C141 1.427 1_455 S
N149 C147 1.384 . S
H150 C156 0.930 . S
H151 C160 0.930 . S
H152 C165 0.929 . S
H153 C163 0.929 . S
H154 C158 0.929 . S
H155 C164 0.929 . S
C156 H150 0.930 . S
C156 C157 1.367 . S
C156 C164 1.378 . S
C157 C156 1.367 . S
C157 C165 1.433 1_545 S
C158 H154 0.929 . S
C158 C160 1.378 . S
C158 C162 1.348 . S
C159 C162 1.486 1_545 S
C159 C164 1.347 . S
C159 N167 1.415 1_545 S
C160 H151 0.930 . S
C160 C158 1.378 . S
C160 C161 1.367 . S
C161 C160 1.367 . S
C161 C163 1.433 1_565 S
C162 C158 1.348 . S
C162 C159 1.486 1_565 S
C162 N166 1.422 1_565 S
C163 H153 0.929 . S
C163 C161 1.433 1_545 S
C163 N166 1.384 . S
C164 H155 0.929 . S
C164 C156 1.378 . S
C164 C159 1.347 . S
C165 H152 0.929 . S
C165 C157 1.433 1_565 S
C165 N167 1.384 . S
N166 C162 1.422 1_545 S
N166 C163 1.384 . S
N167 C159 1.415 1_565 S
N167 C165 1.384 . S
H168 C174 0.930 . S
H169 C178 0.930 . S
H170 C183 0.929 . S
H171 C181 0.929 . S
H172 C176 0.929 . S
H173 C182 0.929 . S
C174 H168 0.930 . S
C174 C175 1.367 . S
C174 C182 1.378 . S
C175 C174 1.367 . S
C175 C183 1.433 . S
C176 H172 0.929 . S
C176 C178 1.378 . S
C176 C180 1.350 . S
C177 C180 1.463 . S
C177 C182 1.350 . S
C177 N185 1.427 . S
C178 H169 0.930 . S
C178 C176 1.378 . S
C178 C179 1.367 . S
C179 C178 1.367 . S
C179 C181 1.433 . S
C180 C176 1.350 . S
C180 C177 1.463 . S
C180 N184 1.427 . S
C181 H171 0.929 . S
C181 C179 1.433 . S
C181 N184 1.384 . S
C182 H173 0.929 . S
C182 C174 1.378 . S
C182 C177 1.350 . S
C183 H170 0.929 . S
C183 C175 1.433 . S
C183 N185 1.384 . S
N184 C180 1.427 . S
N184 C181 1.384 . S
N185 C177 1.427 . S
N185 C183 1.384 . S
H186 C192 0.934 1_545 S
H187 C196 0.936 . S
H188 C201 0.929 . S
H189 C199 0.929 . S
H190 C194 0.929 . S
H191 C200 0.934 . S
C192 H186 0.934 1_565 S
C192 C193 1.370 . S
C192 C200 1.362 1_565 S
C193 C192 1.370 . S
C193 C201 1.433 . S
C194 H190 0.929 . S
C194 C196 1.362 1_565 S
C194 C198 1.356 1_565 S
C195 C198 1.448 1_565 S
C195 C200 1.356 1_565 S
C195 N203 1.429 . S
C196 H187 0.936 . S
C196 C194 1.362 1_545 S
C196 C197 1.375 . S
C197 C196 1.375 . S
C197 C199 1.433 . S
C198 C194 1.356 1_545 S
C198 C195 1.448 1_545 S
C198 N202 1.434 . S
C199 H189 0.929 . S
C199 C197 1.433 . S
C199 N202 1.384 . S
C200 H191 0.934 . S
C200 C192 1.362 1_545 S
C200 C195 1.356 1_545 S
C201 H188 0.929 . S
C201 C193 1.433 . S
C201 N203 1.384 . S
N202 C198 1.434 . S
N202 C199 1.384 . S
N203 C195 1.429 . S
N203 C201 1.384 . S
H204 C210 0.930 . S
H205 C214 0.930 . S
H206 C219 0.929 . S
H207 C217 0.929 . S
H208 C212 0.929 . S
H209 C218 0.929 . S
C210 H204 0.930 . S
C210 C211 1.367 . S
C210 C218 1.378 . S
C211 C210 1.367 . S
C211 C219 1.433 . S
C212 H208 0.929 . S
C212 C214 1.378 . S
C212 C216 1.350 . S
C213 C216 1.463 . S
C213 C218 1.350 . S
C213 N221 1.427 . S
C214 H205 0.930 . S
C214 C212 1.378 . S
C214 C215 1.367 . S
C215 C214 1.367 . S
C215 C217 1.433 . S
C216 C212 1.350 . S
C216 C213 1.463 . S
C216 N220 1.427 . S
C217 H207 0.929 . S
C217 C215 1.433 . S
C217 N220 1.384 . S
C218 H209 0.929 . S
C218 C210 1.378 . S
C218 C213 1.350 . S
C219 H206 0.929 . S
C219 C211 1.433 . S
C219 N221 1.384 . S
N220 C216 1.427 . S
N220 C217 1.384 . S
N221 C213 1.427 . S
N221 C219 1.384 . S
H222 C228 0.930 . S
H223 C232 0.930 . S
H224 C237 0.929 . S
H225 C235 0.929 . S
H226 C230 0.929 . S
H227 C236 0.929 . S
C228 H222 0.930 . S
C228 C229 1.367 1_655 S
C228 C236 1.378 . S
C229 C228 1.367 1_455 S
C229 C237 1.433 . S
C230 H226 0.929 . S
C230 C232 1.378 . S
C230 C234 1.361 . S
C231 C234 1.440 1_655 S
C231 C236 1.382 . S
C231 N239 1.410 1_655 S
C232 H223 0.930 . S
C232 C230 1.378 . S
C232 C233 1.367 1_455 S
C233 C232 1.367 1_655 S
C233 C235 1.433 . S
C234 C230 1.361 . S
C234 C231 1.440 1_455 S
C234 N238 1.421 1_455 S
C235 H225 0.929 . S
C235 C233 1.433 . S
C235 N238 1.384 . S
C236 H227 0.929 . S
C236 C228 1.378 . S
C236 C231 1.382 . S
C237 H224 0.929 . S
C237 C229 1.433 . S
C237 N239 1.384 . S
N238 C234 1.421 1_655 S
N238 C235 1.384 . S
N239 C231 1.410 1_455 S
N239 C237 1.384 . S
H240 C246 0.930 . S
H241 C250 0.930 . S
H242 C255 0.929 . S
H243 C253 0.929 . S
H244 C248 0.929 . S
H245 C254 0.929 . S
C246 H240 0.930 . S
C246 C247 1.367 . S
C246 C254 1.378 . S
C247 C246 1.367 . S
C247 C255 1.433 1_455 S
C248 H244 0.929 . S
C248 C250 1.378 . S
C248 C252 1.350 . S
C249 C252 1.461 1_455 S
C249 C254 1.376 . S
C249 N257 1.401 1_455 S
C250 H241 0.930 . S
C250 C248 1.378 . S
C250 C251 1.367 . S
C251 C250 1.367 . S
C251 C253 1.433 1_655 S
C252 C248 1.350 . S
C252 C249 1.461 1_655 S
C252 N256 1.427 1_655 S
C253 H243 0.929 . S
C253 C251 1.433 1_455 S
C253 N256 1.384 . S
C254 H245 0.929 . S
C254 C246 1.378 . S
C254 C249 1.376 . S
C255 H242 0.929 . S
C255 C247 1.433 1_655 S
C255 N257 1.384 . S
N256 C252 1.427 1_455 S
N256 C253 1.384 . S
N257 C249 1.401 1_655 S
N257 C255 1.384 . S
H258 C264 0.930 . S
H259 C268 0.930 . S
H260 C273 0.929 . S
H261 C271 0.929 . S
H262 C266 0.929 . S
H263 C272 0.929 . S
C264 H258 0.930 . S
C264 C265 1.367 . S
C264 C272 1.378 . S
C265 C264 1.367 . S
C265 C273 1.433 1_565 S
C266 H262 0.929 . S
C266 C268 1.378 . S
C266 C270 1.350 . S
C267 C270 1.461 1_565 S
C267 C272 1.377 . S
C267 N275 1.400 1_565 S
C268 H259 0.930 . S
C268 C266 1.378 . S
C268 C269 1.367 . S
C269 C268 1.367 . S
C269 C271 1.433 1_545 S
C270 C266 1.350 . S
C270 C267 1.461 1_545 S
C270 N274 1.427 1_545 S
C271 H261 0.929 . S
C271 C269 1.433 1_565 S
C271 N274 1.384 . S
C272 H263 0.929 . S
C272 C264 1.378 . S
C272 C267 1.377 . S
C273 H260 0.929 . S
C273 C265 1.433 1_545 S
C273 N275 1.384 . S
N274 C270 1.427 1_565 S
N274 C271 1.384 . S
N275 C267 1.400 1_545 S
N275 C273 1.384 . S
H276 C282 0.930 . S
H277 C286 0.930 . S
H278 C291 0.929 . S
H279 C289 0.929 . S
H280 C284 0.929 . S
H281 C290 0.929 . S
C282 H276 0.930 . S
C282 C283 1.367 . S
C282 C290 1.378 . S
C283 C282 1.367 . S
C283 C291 1.433 . S
C284 H280 0.929 . S
C284 C286 1.378 . S
C284 C288 1.350 . S
C285 C288 1.463 . S
C285 C290 1.350 . S
C285 N293 1.427 . S
C286 H277 0.930 . S
C286 C284 1.378 . S
C286 C287 1.367 . S
C287 C286 1.367 . S
C287 C289 1.433 . S
C288 C284 1.350 . S
C288 C285 1.463 . S
C288 N292 1.427 . S
C289 H279 0.929 . S
C289 C287 1.433 . S
C289 N292 1.384 . S
C290 H281 0.929 . S
C290 C282 1.378 . S
C290 C285 1.350 . S
C291 H278 0.929 . S
C291 C283 1.433 . S
C291 N293 1.384 . S
N292 C288 1.427 . S
N292 C289 1.384 . S
N293 C285 1.427 . S
N293 C291 1.384 . S
H294 C300 0.930 . S
H295 C304 0.930 . S
H296 C309 0.929 . S
H297 C307 0.929 . S
H298 C302 0.929 . S
H299 C308 0.929 . S
C300 H294 0.930 . S
C300 C301 1.360 1_455 S
C300 C308 1.378 . S
C301 C300 1.360 1_655 S
C301 C309 1.440 . S
C302 H298 0.929 . S
C302 C304 1.378 . S
C302 C306 1.370 . S
C303 C306 1.462 1_455 S
C303 C308 1.362 . S
C303 N311 1.415 1_455 S
C304 H295 0.930 . S
C304 C302 1.378 . S
C304 C305 1.368 1_655 S
C305 C304 1.368 1_455 S
C305 C307 1.432 . S
C306 C302 1.370 . S
C306 C303 1.462 1_655 S
C306 N310 1.408 1_655 S
C307 H297 0.929 . S
C307 C305 1.432 . S
C307 N310 1.384 . S
C308 H299 0.929 . S
C308 C300 1.378 . S
C308 C303 1.362 . S
C309 H296 0.929 . S
C309 C301 1.440 . S
C309 N311 1.384 . S
N310 C306 1.408 1_455 S
N310 C307 1.384 . S
N311 C303 1.415 1_655 S
N311 C309 1.384 . S
H312 C318 0.930 . S
H313 C322 0.930 . S
H314 C327 0.929 . S
H315 C325 0.929 . S
H316 C320 0.929 . S
H317 C326 0.929 . S
C318 H312 0.930 . S
C318 C319 1.367 . S
C318 C326 1.378 . S
C319 C318 1.367 . S
C319 C327 1.433 1_545 S
C320 H316 0.929 . S
C320 C322 1.378 . S
C320 C324 1.382 . S
C321 C324 1.461 1_545 S
C321 C326 1.350 . S
C321 N329 1.427 1_545 S
C322 H313 0.930 . S
C322 C320 1.378 . S
C322 C323 1.367 . S
C323 C322 1.367 . S
C323 C325 1.433 1_565 S
C324 C320 1.382 . S
C324 C321 1.461 1_565 S
C324 N328 1.395 1_565 S
C325 H315 0.929 . S
C325 C323 1.433 1_545 S
C325 N328 1.384 . S
C326 H317 0.929 . S
C326 C318 1.378 . S
C326 C321 1.350 . S
C327 H314 0.929 . S
C327 C319 1.433 1_565 S
C327 N329 1.384 . S
N328 C324 1.395 1_545 S
N328 C325 1.384 . S
N329 C321 1.427 1_565 S
N329 C327 1.384 . S
H330 C336 0.930 . S
H331 C340 0.930 . S
H332 C345 0.929 . S
H333 C343 0.929 . S
H334 C338 0.929 . S
H335 C344 0.929 . S
C336 H330 0.930 . S
C336 C337 1.367 . S
C336 C344 1.378 . S
C337 C336 1.367 . S
C337 C345 1.433 . S
C338 H334 0.929 . S
C338 C340 1.378 . S
C338 C342 1.350 . S
C339 C342 1.463 . S
C339 C344 1.350 . S
C339 N347 1.427 . S
C340 H331 0.930 . S
C340 C338 1.378 . S
C340 C341 1.367 . S
C341 C340 1.367 . S
C341 C343 1.433 . S
C342 C338 1.350 . S
C342 C339 1.463 . S
C342 N346 1.427 . S
C343 H333 0.929 . S
C343 C341 1.433 . S
C343 N346 1.384 . S
C344 H335 0.929 . S
C344 C336 1.378 . S
C344 C339 1.350 . S
C345 H332 0.929 . S
C345 C337 1.433 . S
C345 N347 1.384 . S
N346 C342 1.427 . S
N346 C343 1.384 . S
N347 C339 1.427 . S
N347 C345 1.384 . S
H348 C354 0.930 . S
H349 C358 0.930 . S
H350 C363 0.929 . S
H351 C361 0.929 . S
H352 C356 0.929 . S
H353 C362 0.929 . S
C354 H348 0.930 . S
C354 C355 1.367 . S
C354 C362 1.378 . S
C355 C354 1.367 . S
C355 C363 1.433 . S
C356 H352 0.929 . S
C356 C358 1.378 . S
C356 C360 1.350 . S
C357 C360 1.463 1_556 S
C357 C362 1.350 . S
C357 N365 1.427 . S
C358 H349 0.930 . S
C358 C356 1.378 . S
C358 C359 1.367 . S
C359 C358 1.367 . S
C359 C361 1.433 . S
C360 C356 1.350 . S
C360 C357 1.463 1_554 S
C360 N364 1.427 . S
C361 H351 0.929 . S
C361 C359 1.433 . S
C361 N364 1.384 . S
C362 H353 0.929 . S
C362 C354 1.378 . S
C362 C357 1.350 . S
C363 H350 0.929 . S
C363 C355 1.433 . S
C363 N365 1.384 . S
N364 C360 1.427 . S
N364 C361 1.384 . S
N365 C357 1.427 . S
N365 C363 1.384 . S
H366 C372 0.930 . S
H367 C376 0.930 . S
H368 C381 0.929 . S
H369 C379 0.929 . S
H370 C374 0.929 . S
H371 C380 0.929 . S
C372 H366 0.930 . S
C372 C373 1.367 . S
C372 C380 1.378 . S
C373 C372 1.367 . S
C373 C381 1.433 . S
C374 H370 0.929 . S
C374 C376 1.378 . S
C374 C378 1.350 . S
C375 C378 1.463 . S
C375 C380 1.350 . S
C375 N383 1.427 . S
C376 H367 0.930 . S
C376 C374 1.378 . S
C376 C377 1.367 . S
C377 C376 1.367 . S
C377 C379 1.433 . S
C378 C374 1.350 . S
C378 C375 1.463 . S
C378 N382 1.427 . S
C379 H369 0.929 . S
C379 C377 1.433 . S
C379 N382 1.384 . S
C380 H371 0.929 . S
C380 C372 1.378 . S
C380 C375 1.350 . S
C381 H368 0.929 . S
C381 C373 1.433 . S
C381 N383 1.384 . S
N382 C378 1.427 . S
N382 C379 1.384 . S
N383 C375 1.427 . S
N383 C381 1.384 . S
H384 C390 0.930 . S
H385 C394 0.930 . S
H386 C399 0.929 . S
H387 C397 0.929 . S
H388 C392 0.929 . S
H389 C398 0.929 . S
C390 H384 0.930 . S
C390 C391 1.367 . S
C390 C398 1.378 . S
C391 C390 1.367 . S
C391 C399 1.433 . S
C392 H388 0.929 . S
C392 C394 1.378 . S
C392 C396 1.350 . S
C393 C396 1.463 . S
C393 C398 1.350 . S
C393 N401 1.427 . S
C394 H385 0.930 . S
C394 C392 1.378 . S
C394 C395 1.367 . S
C395 C394 1.367 . S
C395 C397 1.433 . S
C396 C392 1.350 . S
C396 C393 1.463 . S
C396 N400 1.427 . S
C397 H387 0.929 . S
C397 C395 1.433 . S
C397 N400 1.384 . S
C398 H389 0.929 . S
C398 C390 1.378 . S
C398 C393 1.350 . S
C399 H386 0.929 . S
C399 C391 1.433 . S
C399 N401 1.384 . S
N400 C396 1.427 . S
N400 C397 1.384 . S
N401 C393 1.427 . S
N401 C399 1.384 . S
H402 C408 0.930 . S
H403 C412 0.930 . S
H404 C417 0.929 . S
H405 C415 0.929 . S
H406 C410 0.929 . S
H407 C416 0.929 . S
C408 H402 0.930 . S
C408 C409 1.367 . S
C408 C416 1.378 . S
C409 C408 1.367 . S
C409 C417 1.433 . S
C410 H406 0.929 . S
C410 C412 1.378 . S
C410 C414 1.350 . S
C411 C414 1.463 1_554 S
C411 C416 1.350 . S
C411 N419 1.427 . S
C412 H403 0.930 . S
C412 C410 1.378 . S
C412 C413 1.367 . S
C413 C412 1.367 . S
C413 C415 1.433 . S
C414 C410 1.350 . S
C414 C411 1.463 1_556 S
C414 N418 1.427 . S
C415 H405 0.929 . S
C415 C413 1.433 . S
C415 N418 1.384 . S
C416 H407 0.929 . S
C416 C408 1.378 . S
C416 C411 1.350 . S
C417 H404 0.929 . S
C417 C409 1.433 . S
C417 N419 1.384 . S
N418 C414 1.427 . S
N418 C415 1.384 . S
N419 C411 1.427 . S
N419 C417 1.384 . S
H420 C426 0.930 . S
H421 C430 0.930 . S
H422 C435 0.929 . S
H423 C433 0.929 . S
H424 C428 0.929 . S
H425 C434 0.929 . S
C426 H420 0.930 . S
C426 C427 1.367 . S
C426 C434 1.378 . S
C427 C426 1.367 . S
C427 C435 1.433 . S
C428 H424 0.929 . S
C428 C430 1.378 . S
C428 C432 1.350 . S
C429 C432 1.463 . S
C429 C434 1.350 . S
C429 N437 1.427 . S
C430 H421 0.930 . S
C430 C428 1.378 . S
C430 C431 1.367 . S
C431 C430 1.367 . S
C431 C433 1.433 . S
C432 C428 1.350 . S
C432 C429 1.463 . S
C432 N436 1.427 . S
C433 H423 0.929 . S
C433 C431 1.433 . S
C433 N436 1.384 . S
C434 H425 0.929 . S
C434 C426 1.378 . S
C434 C429 1.350 . S
C435 H422 0.929 . S
C435 C427 1.433 . S
C435 N437 1.384 . S
N436 C432 1.427 . S
N436 C433 1.384 . S
N437 C429 1.427 . S
N437 C435 1.384 . S
H438 C444 0.930 . S
H439 C448 0.930 . S
H440 C453 0.929 . S
H441 C451 0.929 . S
H442 C446 0.929 . S
H443 C452 0.929 . S
C444 H438 0.930 . S
C444 C445 1.367 . S
C444 C452 1.378 . S
C445 C444 1.367 . S
C445 C453 1.433 . S
C446 H442 0.929 . S
C446 C448 1.378 . S
C446 C450 1.350 . S
C447 C450 1.463 . S
C447 C452 1.350 . S
C447 N455 1.427 . S
C448 H439 0.930 . S
C448 C446 1.378 . S
C448 C449 1.367 . S
C449 C448 1.367 . S
C449 C451 1.433 . S
C450 C446 1.350 . S
C450 C447 1.463 . S
C450 N454 1.427 . S
C451 H441 0.929 . S
C451 C449 1.433 . S
C451 N454 1.384 . S
C452 H443 0.929 . S
C452 C444 1.378 . S
C452 C447 1.350 . S
C453 H440 0.929 . S
C453 C445 1.433 . S
C453 N455 1.384 . S
N454 C450 1.427 . S
N454 C451 1.384 . S
N455 C447 1.427 . S
N455 C453 1.384 . S
C139 C40 1.536 . S
C143 C7 1.537 . S
C157 C18 1.545 . S
C161 C51 1.543 . S
C175 C62 1.543 . S
C179 C29 1.545 . S
C193 C73 1.547 . S
C197 C106 1.545 . S
C211 C117 1.553 . S
C215 C84 1.554 . S
C229 C95 1.555 . S
C233 C128 1.555 . S
C247 C126 1.314 1_455 S
C251 C5 1.301 1_655 S
C265 C16 1.314 1_565 S
C269 C71 1.301 1_545 S
C283 C27 1.290 . S
C287 C82 1.283 . S
C301 C93 1.284 1_655 S
C305 C38 1.283 1_455 S
C319 C49 1.313 1_545 S
C323 C104 1.302 1_565 S
C337 C115 1.293 . S
C341 C60 1.312 . S
C355 C118 1.619 . S
C359 C8 1.629 . S
C373 C129 1.629 . S
C377 C19 1.623 . S
C391 C30 1.625 . S
C395 C74 1.629 . S
C409 C41 1.617 . S
C413 C85 1.625 . S
C427 C52 1.625 . S
C431 C96 1.617 . S
C445 C63 1.627 . S
C449 C107 1.627 . S
