# Generated by pormake.
# Topology smm, (6)-cn, num edge types: 1
# Building blocks:
#     Node 0, Type 0, BuildingBlock: GEDQOX_clean_sbu_0, # of connection points: 6
#     Node 1, Type 0, BuildingBlock: GEDQOX_clean_sbu_0, # of connection points: 6
#     Node 2, Type 0, BuildingBlock: GEDQOX_clean_sbu_0, # of connection points: 6
#     Node 3, Type 0, BuildingBlock: GEDQOX_clean_sbu_0, # of connection points: 6
#     Node 4, Type 0, BuildingBlock: GEDQOX_clean_sbu_0, # of connection points: 6
#     Node 5, Type 0, BuildingBlock: GEDQOX_clean_sbu_0, # of connection points: 6
#     Node 6, Type 0, BuildingBlock: GEDQOX_clean_sbu_0, # of connection points: 6
#     Node 7, Type 0, BuildingBlock: GEDQOX_clean_sbu_0, # of connection points: 6
#     Node 8, Type 0, BuildingBlock: GEDQOX_clean_sbu_0, # of connection points: 6
#     Edge 9, Type (0, 0), BuildingBlock: XUDNAN_clean_linker_2, # of connection points: 2
#     Edge 10, Type (0, 0), BuildingBlock: XUDNAN_clean_linker_2, # of connection points: 2
#     Edge 11, Type (0, 0), BuildingBlock: XUDNAN_clean_linker_2, # of connection points: 2
#     Edge 12, Type (0, 0), BuildingBlock: XUDNAN_clean_linker_2, # of connection points: 2
#     Edge 13, Type (0, 0), BuildingBlock: XUDNAN_clean_linker_2, # of connection points: 2
#     Edge 14, Type (0, 0), BuildingBlock: XUDNAN_clean_linker_2, # of connection points: 2
#     Edge 15, Type (0, 0), BuildingBlock: XUDNAN_clean_linker_2, # of connection points: 2
#     Edge 16, Type (0, 0), BuildingBlock: XUDNAN_clean_linker_2, # of connection points: 2
#     Edge 17, Type (0, 0), BuildingBlock: XUDNAN_clean_linker_2, # of connection points: 2
#     Edge 18, Type (0, 0), BuildingBlock: XUDNAN_clean_linker_2, # of connection points: 2
#     Edge 19, Type (0, 0), BuildingBlock: XUDNAN_clean_linker_2, # of connection points: 2
#     Edge 20, Type (0, 0), BuildingBlock: XUDNAN_clean_linker_2, # of connection points: 2
#     Edge 21, Type (0, 0), BuildingBlock: XUDNAN_clean_linker_2, # of connection points: 2
#     Edge 22, Type (0, 0), BuildingBlock: XUDNAN_clean_linker_2, # of connection points: 2
#     Edge 23, Type (0, 0), BuildingBlock: XUDNAN_clean_linker_2, # of connection points: 2
#     Edge 24, Type (0, 0), BuildingBlock: XUDNAN_clean_linker_2, # of connection points: 2
#     Edge 25, Type (0, 0), BuildingBlock: XUDNAN_clean_linker_2, # of connection points: 2
#     Edge 26, Type (0, 0), BuildingBlock: XUDNAN_clean_linker_2, # of connection points: 2
#     Edge 27, Type (0, 0), BuildingBlock: XUDNAN_clean_linker_2, # of connection points: 2
#     Edge 28, Type (0, 0), BuildingBlock: XUDNAN_clean_linker_2, # of connection points: 2
#     Edge 29, Type (0, 0), BuildingBlock: XUDNAN_clean_linker_2, # of connection points: 2
#     Edge 30, Type (0, 0), BuildingBlock: XUDNAN_clean_linker_2, # of connection points: 2
#     Edge 31, Type (0, 0), BuildingBlock: XUDNAN_clean_linker_2, # of connection points: 2
#     Edge 32, Type (0, 0), BuildingBlock: XUDNAN_clean_linker_2, # of connection points: 2
#     Edge 33, Type (0, 0), BuildingBlock: XUDNAN_clean_linker_2, # of connection points: 2
#     Edge 34, Type (0, 0), BuildingBlock: XUDNAN_clean_linker_2, # of connection points: 2
#     Edge 35, Type (0, 0), BuildingBlock: XUDNAN_clean_linker_2, # of connection points: 2
# Relax obj value: 0.052
# Max RMSD: 0.131
# Mean RMSD: 0.131
data_MOF--net-smm--node1-GEDQOX_clean_sbu_0--edge1-XUDNAN_clean_linker_2
_symmetry_space_group_name_H-M    P1
_symmetry_Int_Tables_number       1
_symmetry_cell_setting            triclinic
loop_
_symmetry_equiv_pos_as_xyz
'x, y, z'
_cell_length_a     70.397822
_cell_length_b     70.555465
_cell_length_c     14.427798
_cell_angle_alpha  89.726598
_cell_angle_beta   90.069269
_cell_angle_gamma 119.8797
loop_
_atom_site_label
_atom_site_type_symbol
_atom_site_fract_x
_atom_site_fract_y
_atom_site_fract_z
_atom_type_partial_charge
Nd0 Nd 0.07759 0.23786 0.02435 0.0
Nd1 Nd 1.04001 0.19202 -0.00967 0.0
C2 C 0.10516 0.27929 0.06917 0.0
C3 C 0.11814 0.30131 0.0259 0.0
C4 C 0.14056 0.31394 0.04586 0.0
C5 C 0.15291 0.33541 0.01254 0.0
C6 C 0.14314 0.34497 0.95866 0.0
C7 C 0.12079 0.33203 0.93608 0.0
C8 C 0.10843 0.31047 0.96939 0.0
C9 C 0.07136 0.22643 0.84132 0.0
C10 C 1.02746 0.22881 0.02799 0.0
C11 C 1.01208 0.15199 0.92986 0.0
C12 C 1.00385 0.12858 0.95146 0.0
C13 C 0.99732 0.11335 0.8791 0.0
C14 C 0.98706 0.09084 0.8981 0.0
C15 C 0.98295 0.08306 -0.00992 0.0
C16 C 0.99038 0.09846 0.06244 0.0
C17 C 1.00073 0.12094 0.0434 0.0
C18 C 0.04849 0.20255 0.17562 0.0
C19 C 0.0901 0.1998 0.01856 0.0
O20 O 0.08385 0.27043 0.07068 0.0
O21 O 0.11142 0.265 0.05376 0.0
O22 O 0.09018 0.23884 0.8788 0.0
O23 O 0.05596 0.2218 0.8977 0.0
O24 O 0.0467 0.23892 0.06941 0.0
O25 O 1.02241 0.21192 0.97371 0.0
O26 O 1.03206 0.16364 0.89802 0.0
O27 O 1.00688 0.16284 -0.01208 0.0
O28 O 1.02902 0.18987 0.14333 0.0
O29 O 0.06245 0.20758 0.11264 0.0
O30 O 0.0708 0.18789 0.97811 0.0
O31 O 0.09517 0.21863 0.05824 0.0
H32 H 0.14851 0.30733 0.08899 0.0
H33 H 0.17014 0.34461 0.03 0.0
H34 H 0.11262 0.33879 0.8954 0.0
H35 H 0.09116 0.30117 0.9525 0.0
H36 H 0.9995 0.11883 0.80762 0.0
H37 H 0.98146 0.07951 0.84066 0.0
H38 H 0.98784 0.09311 0.1341 0.0
H39 H 1.00573 0.13231 0.10064 0.0
Nd40 Nd 0.8621 0.87272 0.01552 0.0
Nd41 Nd 0.90689 0.8766 -0.01088 0.0
C42 C 0.82087 0.8621 0.05077 0.0
C43 C 0.79929 0.84981 0.00345 0.0
C44 C 0.7804 0.83572 0.05442 0.0
C45 C 0.75976 0.82487 0.01142 0.0
C46 C 0.7575 0.828 0.91641 0.0
C47 C 0.77655 0.84175 0.86519 0.0
C48 C 0.79716 0.85245 0.90799 0.0
C49 C 0.87613 0.8787 0.83611 0.0
C50 C 0.86571 0.82799 0.00768 0.0
C51 C 0.94702 0.8866 0.93509 0.0
C52 C 0.97083 0.90083 0.95531 0.0
C53 C 0.98025 0.89773 0.03593 0.0
C54 C 1.00303 0.90896 0.04813 0.0
C55 C 1.0171 0.92363 -0.01977 0.0
C56 C 1.00764 0.92751 0.90158 0.0
C57 C 0.9848 0.91615 0.88906 0.0
C58 C 0.89427 0.87365 0.17192 0.0
C59 C 0.90328 0.92129 0.02265 0.0
O60 O 0.8297 0.85085 0.08224 0.0
O61 O 0.83531 0.88061 0.01296 0.0
O62 O 0.86501 0.88688 0.87162 0.0
O63 O 0.8783 0.86618 0.89233 0.0
O64 O 0.85507 0.8376 0.03918 0.0
O65 O 0.88536 0.83933 0.96978 0.0
O66 O 0.93623 0.89541 0.89816 0.0
O67 O 0.93522 0.87114 -0.00534 0.0
O68 O 0.90589 0.86548 0.14075 0.0
O69 O 0.89124 0.88418 0.10906 0.0
O70 O 0.91422 0.91282 -0.01825 0.0
O71 O 0.88374 0.90839 0.05959 0.0
H72 H 0.78157 0.83336 0.12802 0.0
H73 H 0.74549 0.81454 0.05325 0.0
H74 H 0.77555 0.84429 0.79167 0.0
H75 H 0.81142 0.86299 0.86641 0.0
H76 H 0.9701 0.88611 0.08864 0.0
H77 H 1.00967 0.9058 0.11028 0.0
H78 H 1.01794 0.93857 0.84761 0.0
H79 H 0.9781 0.91878 0.82584 0.0
Nd80 Nd 0.23161 1.02282 0.00397 0.0
Nd81 Nd 0.22144 0.05995 0.97774 0.0
C82 C 0.23557 0.98761 0.02924 0.0
C83 C 0.2479 0.97735 -0.00833 0.0
C84 C 0.26952 0.98974 0.95869 0.0
C85 C 0.28016 0.97936 0.91863 0.0
C86 C 0.26928 0.95643 0.90973 0.0
C87 C 0.24777 0.94418 0.94432 0.0
C88 C 0.23726 0.95451 -0.01528 0.0
C89 C 0.2422 0.04207 0.82999 0.0
C90 C 0.271 0.07144 0.0284 0.0
C91 C 0.21055 0.0889 0.91528 0.0
C92 C 0.19921 0.10118 0.94111 0.0
C93 C 0.17645 0.09065 0.95708 0.0
C94 C 0.16605 0.10285 0.97536 0.0
C95 C 0.17814 0.12585 0.9783 0.0
C96 C 0.20089 0.13627 0.96222 0.0
C97 C 0.21123 0.12411 0.94375 0.0
C98 C 0.22478 0.05126 0.16062 0.0
C99 C 0.17942 1.01051 -0.00539 0.0
O100 O 0.24619 1.00541 0.07878 0.0
O101 O 0.22129 0.98826 0.97324 0.0
O102 O 0.25379 0.03578 0.87627 0.0
O103 O 0.22531 0.03789 0.87565 0.0
O104 O 0.26202 0.05182 0.06668 0.0
O105 O 0.25943 0.07665 0.97155 0.0
O106 O 0.19871 0.06786 0.90207 0.0
O107 O 0.22924 0.09438 0.95525 0.0
O108 O 0.2286 0.0702 0.13099 0.0
O109 O 0.21664 0.03721 0.0975 0.0
O110 O 0.18593 0.03139 -0.01914 0.0
O111 O 0.19365 1.00365 0.00864 0.0
H112 H 0.27804 1.00741 0.9625 0.0
H113 H 0.29665 0.98932 0.89222 0.0
H114 H 0.23898 0.92651 0.94009 0.0
H115 H 0.2206 0.94459 0.00956 0.0
H116 H 0.16662 0.07299 0.9549 0.0
H117 H 0.14856 0.09424 -0.0119 0.0
H118 H 0.21073 0.15393 0.96216 0.0
H119 H 0.22869 0.13273 0.93018 0.0
Nd120 Nd 0.74456 0.57265 0.34715 0.0
Nd121 Nd 0.70899 0.52537 0.3317 0.0
C122 C 0.77835 0.613 0.36021 0.0
C123 C 0.78516 0.63447 0.31579 0.0
C124 C 0.80036 0.65397 0.35933 0.0
C125 C 0.80756 0.67429 0.31557 0.0
C126 C 0.7997 0.67553 0.22714 0.0
C127 C 0.7845 0.65584 0.18389 0.0
C128 C 0.77729 0.63563 0.2277 0.0
C129 C 0.72504 0.56098 0.17609 0.0
C130 C 0.69448 0.56199 0.36346 0.0
C131 C 0.68287 0.48305 0.30622 0.0
C132 C 0.6693 0.45896 0.29521 0.0
C133 C 0.6486 0.44937 0.25302 0.0
C134 C 0.6351 0.42652 0.25158 0.0
C135 C 0.64211 0.41275 0.29147 0.0
C136 C 0.66319 0.42242 0.3304 0.0
C137 C 0.67655 0.4452 0.33261 0.0
C138 C 0.71535 0.5413 0.50786 0.0
C139 C 0.75952 0.53573 0.33457 0.0
O140 O 0.76154 0.60515 0.41692 0.0
O141 O 0.77796 0.59801 0.30586 0.0
O142 O 0.72952 0.57878 0.21833 0.0
O143 O 0.73078 0.54966 0.22342 0.0
O144 O 0.71449 0.57445 0.3966 0.0
O145 O 0.68924 0.5436 0.31841 0.0
O146 O 0.68167 0.49758 0.25282 0.0
O147 O 0.69771 0.49125 0.37132 0.0
O148 O 0.69633 0.52845 0.47259 0.0
O149 O 0.73073 0.54524 0.45227 0.0
O150 O 0.73943 0.52213 0.30686 0.0
O151 O 0.76503 0.55551 0.3639 0.0
H152 H 0.80674 0.6535 0.42714 0.0
H153 H 0.81905 0.68902 0.35168 0.0
H154 H 0.77831 0.65598 0.11531 0.0
H155 H 0.76571 0.62084 0.1921 0.0
H156 H 0.64256 0.45952 0.22365 0.0
H157 H 0.61906 0.41964 0.22003 0.0
H158 H 0.66909 0.41242 0.36245 0.0
H159 H 0.69247 0.45207 0.36537 0.0
Nd160 Nd 0.52955 0.201 0.3444 0.0
Nd161 Nd 0.5759 0.20945 0.3114 0.0
C162 C 0.48769 0.18718 0.38497 0.0
C163 C 0.46612 0.1765 0.33739 0.0
C164 C 0.4469 0.16359 0.38848 0.0
C165 C 0.42629 0.15388 0.34539 0.0
C166 C 0.42438 0.15691 0.24994 0.0
C167 C 0.44377 0.16961 0.1987 0.0
C168 C 0.46438 0.17924 0.24182 0.0
C169 C 0.54117 0.20272 0.16045 0.0
C170 C 0.53853 0.16 0.35161 0.0
C171 C 0.61575 0.22083 0.2477 0.0
C172 C 0.63967 0.2339 0.2679 0.0
C173 C 0.65104 0.25687 0.27492 0.0
C174 C 0.67378 0.26842 0.29207 0.0
C175 C 0.6856 0.25725 0.30296 0.0
C176 C 0.67412 0.23433 0.29431 0.0
C177 C 0.65158 0.22289 0.277 0.0
C178 C 0.56508 0.20467 0.49439 0.0
C179 C 0.56741 0.25128 0.33655 0.0
O180 O 0.49703 0.17537 0.39806 0.0
O181 O 0.50174 0.20723 0.3604 0.0
O182 O 0.52925 0.21054 0.19085 0.0
O183 O 0.54556 0.19359 0.22479 0.0
O184 O 0.52796 0.16894 0.39072 0.0
O185 O 0.55567 0.17187 0.29751 0.0
O186 O 0.60504 0.23082 0.22349 0.0
O187 O 0.60412 0.20379 0.30036 0.0
O188 O 0.57889 0.19982 0.45804 0.0
O189 O 0.55942 0.21466 0.4376 0.0
O190 O 0.5796 0.24399 0.29788 0.0
O191 O 0.54842 0.23764 0.3757 0.0
H192 H 0.44781 0.16121 0.46225 0.0
H193 H 0.41181 0.14443 0.38747 0.0
H194 H 0.44306 0.17206 0.1249 0.0
H195 H 0.47895 0.18895 0.20053 0.0
H196 H 0.6424 0.2659 0.26755 0.0
H197 H 0.68202 0.28604 0.29859 0.0
H198 H 0.68262 0.22514 0.30022 0.0
H199 H 0.6434 0.20527 0.27039 0.0
Nd200 Nd 0.89786 0.35692 0.34982 0.0
Nd201 Nd 0.89062 0.39511 0.31502 0.0
C202 C 0.91114 0.32852 0.39123 0.0
C203 C 0.92123 0.31694 0.34348 0.0
C204 C 0.94331 0.32802 0.31481 0.0
C205 C 0.95262 0.31674 0.27184 0.0
C206 C 0.94014 0.29406 0.25616 0.0
C207 C 0.9181 0.28302 0.28538 0.0
C208 C 0.90883 0.29428 0.32861 0.0
C209 C 0.89277 0.36357 0.16663 0.0
C210 C 0.93971 0.40636 0.35163 0.0
C211 C 0.87983 0.4242 0.25436 0.0
C212 C 0.86627 0.4344 0.27589 0.0
C213 C 0.85297 0.43586 0.20671 0.0
C214 C 0.84225 0.44786 0.2215 0.0
C215 C 0.84475 0.45887 0.30567 0.0
C216 C 0.85741 0.45669 0.3761 0.0
C217 C 0.868 0.44459 0.36152 0.0
C218 C 0.89261 0.38652 0.50063 0.0
C219 C 0.84763 0.34574 0.34491 0.0
O220 O 0.92321 0.34962 0.40284 0.0
O221 O 0.89091 0.3227 0.37021 0.0
O222 O 0.88573 0.34467 0.20455 0.0
O223 O 0.9039 0.37875 0.22277 0.0
O224 O 0.93035 0.38715 0.39342 0.0
O225 O 0.92803 0.41173 0.29705 0.0
O226 O 0.87001 0.4039 0.22629 0.0
O227 O 0.89647 0.42892 0.30856 0.0
O228 O 0.8998 0.406 0.46751 0.0
O229 O 0.88335 0.3726 0.43825 0.0
O230 O 0.85536 0.3649 0.30233 0.0
O231 O 0.86122 0.34044 0.38595 0.0
H232 H 0.95346 0.34546 0.32543 0.0
H233 H 0.96956 0.32587 0.24968 0.0
H234 H 0.90802 0.26553 0.27609 0.0
H235 H 0.89189 0.28518 0.3509 0.0
H236 H 0.85146 0.4283 0.13986 0.0
H237 H 0.83275 0.44927 0.16552 0.0
H238 H 0.85941 0.46463 0.44233 0.0
H239 H 0.87803 0.44375 0.41655 0.0
Nd240 Nd 0.40942 0.90294 0.68531 0.0
Nd241 Nd 0.37192 0.85682 0.6537 0.0
C242 C 0.43705 0.94477 0.72408 0.0
C243 C 0.44888 0.96627 0.67481 0.0
C244 C 0.43805 0.97759 0.64682 0.0
C245 C 0.44954 0.99808 0.60287 0.0
C246 C 0.4722 1.00786 0.58561 0.0
C247 C 0.483 0.99655 0.61412 0.0
C248 C 0.47153 0.97611 0.65828 0.0
C249 C 0.40304 0.89064 0.50334 0.0
C250 C 0.35927 0.8938 0.68678 0.0
C251 C 0.34395 0.81665 0.59465 0.0
C252 C 0.33515 0.79308 0.6156 0.0
C253 C 0.33097 0.77835 0.54279 0.0
C254 C 0.31999 0.75569 0.55922 0.0
C255 C 0.31275 0.74724 0.64893 0.0
C256 C 0.31783 0.76211 0.72236 0.0
C257 C 0.3289 0.78473 0.70598 0.0
C258 C 0.38031 0.86803 0.83838 0.0
C259 C 0.42206 0.86494 0.68495 0.0
O260 O 0.41578 0.93556 0.7323 0.0
O261 O 0.44333 0.93052 0.70777 0.0
O262 O 0.4219 0.9031 0.54025 0.0
O263 O 0.38772 0.88631 0.55963 0.0
O264 O 0.37855 0.90428 0.72772 0.0
O265 O 0.35426 0.8766 0.63449 0.0
O266 O 0.36402 0.8281 0.56346 0.0
O267 O 0.33877 0.8277 0.65169 0.0
O268 O 0.36089 0.85513 0.80614 0.0
O269 O 0.39432 0.87297 0.77567 0.0
O270 O 0.40286 0.85283 0.64387 0.0
O271 O 0.42691 0.88385 0.72335 0.0
H272 H 0.42064 0.97066 0.65887 0.0
H273 H 0.44058 1.00614 0.58131 0.0
H274 H 0.50047 1.00364 0.60367 0.0
H275 H 0.48047 0.96805 0.68011 0.0
H276 H 0.33552 0.78433 0.47241 0.0
H277 H 0.31628 0.74479 0.50094 0.0
H278 H 0.31286 0.75624 0.79258 0.0
H279 H 0.33198 0.79564 0.76372 0.0
Nd280 Nd 0.19592 0.53491 0.6861 0.0
Nd281 Nd 0.24175 0.5429 0.64974 0.0
C282 C 0.15406 0.52054 0.72844 0.0
C283 C 0.13285 0.51139 0.67875 0.0
C284 C 0.13199 0.51333 0.5821 0.0
C285 C 0.11174 0.50409 0.53602 0.0
C286 C 0.09186 0.49258 0.58543 0.0
C287 C 0.09289 0.49064 0.68232 0.0
C288 C 0.11313 0.49994 0.72829 0.0
C289 C 0.20609 0.5378 0.50078 0.0
C290 C 0.20556 0.49461 0.70696 0.0
C291 C 0.28102 0.55337 0.58228 0.0
C292 C 0.30499 0.56587 0.59973 0.0
C293 C 0.31716 0.5553 0.58607 0.0
C294 C 0.33975 0.56618 0.60191 0.0
C295 C 0.35092 0.58803 0.63199 0.0
C296 C 0.33879 0.59884 0.64408 0.0
C297 C 0.31601 0.58784 0.62838 0.0
C298 C 0.23211 0.54166 0.83515 0.0
C299 C 0.23404 0.58525 0.67519 0.0
O300 O 0.16313 0.5083 0.73084 0.0
O301 O 0.16839 0.54113 0.71395 0.0
O302 O 0.19492 0.54558 0.53913 0.0
O303 O 0.21125 0.52781 0.55959 0.0
O304 O 0.19565 0.50436 0.74415 0.0
O305 O 0.22199 0.50523 0.64851 0.0
O306 O 0.27073 0.56394 0.5609 0.0
O307 O 0.26941 0.53643 0.63539 0.0
O308 O 0.24591 0.53614 0.80408 0.0
O309 O 0.22639 0.54994 0.7717 0.0
O310 O 0.24574 0.57765 0.63411 0.0
O311 O 0.21523 0.57172 0.71647 0.0
H312 H 0.14698 0.52187 0.54214 0.0
H313 H 0.1117 0.5057 0.46136 0.0
H314 H 0.07802 0.48217 0.72304 0.0
H315 H 0.11338 0.49816 0.80284 0.0
H316 H 0.30912 0.53847 0.56306 0.0
H317 H 0.34851 0.55742 0.58998 0.0
H318 H 0.34682 0.61562 0.66756 0.0
H319 H 0.30705 0.59644 0.63929 0.0
Nd320 Nd 0.56434 0.6891 0.67656 0.0
Nd321 Nd 0.55368 0.72638 0.65788 0.0
C322 C 0.56851 0.65393 0.70036 0.0
C323 C 0.58068 0.64361 0.66139 0.0
C324 C 0.57021 0.62074 0.65671 0.0
C325 C 0.58077 0.61035 0.61728 0.0
C326 C 0.60217 0.62255 0.58131 0.0
C327 C 0.61282 0.64554 0.58744 0.0
C328 C 0.60214 0.65597 0.62666 0.0
C329 C 0.57154 0.70733 0.50304 0.0
C330 C 0.60487 0.73783 0.69382 0.0
C331 C 0.55007 0.76103 0.61252 0.0
C332 C 0.53687 0.77186 0.62658 0.0
C333 C 0.54765 0.79475 0.62598 0.0
C334 C 0.53605 0.80582 0.64023 0.0
C335 C 0.51327 0.79429 0.65574 0.0
C336 C 0.50234 0.77125 0.65462 0.0
C337 C 0.51405 0.76012 0.64052 0.0
C338 C 0.55033 0.71016 0.83474 0.0
C339 C 0.51258 0.67789 0.67389 0.0
O340 O 0.57945 0.67188 0.74852 0.0
O341 O 0.55377 0.65437 0.64667 0.0
O342 O 0.58397 0.70123 0.54391 0.0
O343 O 0.55525 0.70328 0.55322 0.0
O344 O 0.59713 0.71761 0.72426 0.0
O345 O 0.59192 0.74374 0.65052 0.0
O346 O 0.54169 0.74313 0.56325 0.0
O347 O 0.56149 0.76057 0.68307 0.0
O348 O 0.53785 0.71763 0.80515 0.0
O349 O 0.56439 0.71321 0.77482 0.0
O350 O 0.51903 0.69755 0.63965 0.0
O351 O 0.5269 0.67236 0.70527 0.0
H352 H 0.55369 0.61084 0.68311 0.0
H353 H 0.57214 0.59266 0.6153 0.0
H354 H 0.6292 0.65549 0.55987 0.0
H355 H 0.61055 0.67366 0.62884 0.0
H356 H 0.56519 0.80417 0.6147 0.0
H357 H 0.54501 0.82352 0.6388 0.0
H358 H 0.48485 0.76184 0.66681 0.0
H359 H 0.50534 0.74241 0.64131 0.0
H360 H 0.14172 0.36486 0.79338 0.0
H361 H 0.17341 0.37907 0.06268 0.0
H362 H 0.19455 0.41806 0.02126 0.0
H363 H 0.18927 0.40551 0.66244 0.0
H364 H 0.17332 0.41277 0.58775 0.0
H365 H 0.1613 0.38555 0.63564 0.0
H366 H 0.12972 0.38963 0.70607 0.0
H367 H 0.14156 0.41678 0.65796 0.0
H368 H 0.13609 0.41249 0.78058 0.0
H369 H 0.21108 0.45575 0.95556 0.0
H370 H 0.22125 0.48994 0.86997 0.0
H371 H 0.17922 0.45249 0.64258 0.0
C372 C 0.15312 0.37615 0.84365 0.0
C373 C 0.15601 0.36863 0.93116 0.0
C374 C 0.17118 0.38413 -0.00551 0.0
C375 C 0.18323 0.40642 0.97178 0.0
C376 C 0.18008 0.41322 0.8852 0.0
C377 C 0.16539 0.39861 0.82199 0.0
C378 C 0.16473 0.41049 0.73475 0.0
C379 C 0.17262 0.40314 0.65013 0.0
C380 C 0.14165 0.40715 0.71895 0.0
C381 C 0.18099 0.43407 0.75976 0.0
C382 C 0.18976 0.43516 0.84672 0.0
C383 C 0.20454 0.45507 0.88695 0.0
C384 C 0.21032 0.4744 0.83774 0.0
C385 C 0.20145 0.47376 0.74909 0.0
C386 C 0.18667 0.45333 0.70928 0.0
H387 H 0.72251 0.78588 0.93849 0.0
H388 H 0.74219 0.84684 0.79261 0.0
H389 H 0.70589 0.83039 0.71794 0.0
H390 H 0.69076 0.75013 0.75109 0.0
H391 H 0.6699 0.73012 0.82621 0.0
H392 H 0.69749 0.74661 0.86817 0.0
H393 H 0.68319 0.75966 0.00509 0.0
H394 H 0.65555 0.74318 0.96364 0.0
H395 H 0.66663 0.77206 -0.01834 0.0
H396 H 0.66681 0.80753 0.6615 0.0
H397 H 0.62849 0.77982 0.62594 0.0
H398 H 0.63421 0.73347 0.80616 0.0
C399 C 0.71917 0.79581 0.89114 0.0
C400 C 0.73539 0.81771 0.87134 0.0
C401 C 0.73028 0.82998 0.8081 0.0
C402 C 0.7096 0.8208 0.76561 0.0
C403 C 0.69406 0.79921 0.78639 0.0
C404 C 0.69861 0.78683 0.84745 0.0
C405 C 0.679 0.76396 0.85736 0.0
C406 C 0.68463 0.74669 0.82369 0.0
C407 C 0.6706 0.75946 0.95791 0.0
C408 C 0.66271 0.76548 0.79298 0.0
C409 C 0.67171 0.78597 0.75283 0.0
C410 C 0.65965 0.79139 0.69226 0.0
C411 C 0.63785 0.77552 0.67243 0.0
C412 C 0.62824 0.75435 0.71257 0.0
C413 C 0.64102 0.74938 0.77341 0.0
H414 H 0.31188 0.9643 0.92672 0.0
H415 H 0.25055 0.92291 0.78489 0.0
H416 H 0.26698 0.90311 0.70988 0.0
H417 H 0.34788 0.968 0.73744 0.0
H418 H 0.36777 0.96703 0.81307 0.0
H419 H 0.35142 0.97843 0.85381 0.0
H420 H 0.33811 0.95139 -0.00746 0.0
H421 H 0.3544 0.9399 0.95217 0.0
H422 H 0.32542 0.92245 0.97099 0.0
H423 H 0.28988 0.88709 0.65205 0.0
H424 H 0.31739 0.87603 0.61783 0.0
H425 H 0.36392 0.92774 0.79653 0.0
C426 C 0.30198 0.95124 0.87909 0.0
C427 C 0.27982 0.94516 0.86223 0.0
C428 C 0.26742 0.92774 0.80016 0.0
C429 C 0.27666 0.91645 0.75665 0.0
C430 C 0.29842 0.92268 0.77552 0.0
C431 C 0.31094 0.93967 0.83525 0.0
C432 C 0.33377 0.94269 0.84533 0.0
C433 C 0.35124 0.96538 0.81031 0.0
C434 C 0.33817 0.93887 0.94625 0.0
C435 C 0.33208 0.92472 0.78226 0.0
C436 C 0.31157 0.91341 0.7424 0.0
C437 C 0.30603 0.8959 0.68268 0.0
C438 C 0.32179 0.88973 0.66356 0.0
C439 C 0.34291 0.90097 0.70407 0.0
C440 C 0.34801 0.91879 0.76389 0.0
H441 H 0.38751 0.11632 0.2793 0.0
H442 H 0.41095 0.17595 0.11796 0.0
H443 H 0.37471 0.16071 0.04345 0.0
H444 H 0.3539 0.0792 0.10042 0.0
H445 H 0.33247 0.06125 0.17891 0.0
H446 H 0.3603 0.07679 0.21939 0.0
H447 H 0.34788 0.09344 0.34937 0.0
H448 H 0.32001 0.07794 0.30929 0.0
H449 H 0.33297 0.10723 0.3193 0.0
H450 H 0.33532 0.13903 -0.01251 0.0
H451 H 0.29654 0.11248 0.95322 0.0
H452 H 0.29867 0.06699 0.15082 0.0
C453 C 0.38503 0.12627 0.22873 0.0
C454 C 0.40231 0.1474 0.20455 0.0
C455 C 0.39825 0.15964 0.13696 0.0
C456 C 0.37761 0.15116 0.09455 0.0
C457 C 0.36101 0.13033 0.11997 0.0
C458 C 0.36451 0.11802 0.1854 0.0
C459 C 0.34393 0.09602 0.19996 0.0
C460 C 0.34789 0.07721 0.17305 0.0
C461 C 0.33572 0.09352 0.30045 0.0
C462 C 0.32832 0.09791 0.1328 0.0
C463 C 0.33846 0.11784 0.08742 0.0
C464 C 0.32726 0.12336 0.02257 0.0
C465 C 0.30518 0.10815 0.00354 0.0
C466 C 0.29442 0.08755 0.04887 0.0
C467 C 0.30632 0.08251 0.11442 0.0
H468 H 0.98161 0.29934 0.27818 0.0
H469 H 0.92087 0.26126 0.12714 0.0
H470 H 0.93648 0.24076 0.05137 0.0
H471 H 1.01802 0.30343 0.09203 0.0
H472 H 1.03703 0.301 0.16809 0.0
H473 H 1.02111 0.31276 0.21011 0.0
H474 H 1.0062 0.28438 0.34396 0.0
H475 H 1.02206 0.27254 0.3023 0.0
H476 H 0.99287 0.25564 0.31737 0.0
H477 H 0.95884 0.22398 -0.00791 0.0
H478 H 0.98591 0.21241 0.95615 0.0
H479 H 1.03214 0.2617 0.1443 0.0
C480 C 0.97163 0.28685 0.22849 0.0
C481 C 0.9499 0.28196 0.20915 0.0
C482 C 0.93741 0.26519 0.14448 0.0
C483 C 0.94619 0.25351 0.10049 0.0
C484 C 0.96758 0.25869 0.12148 0.0
C485 C 0.98014 0.27497 0.18401 0.0
C486 C 1.00259 0.27714 0.19532 0.0
C487 C 1.02076 0.29993 0.16453 0.0
C488 C 1.00612 0.27212 0.29569 0.0
C489 C 1.00071 0.25957 0.12941 0.0
C490 C 0.9804 0.24911 0.08738 0.0
C491 C 0.97481 0.23213 0.02454 0.0
C492 C 0.99032 0.22566 0.00445 0.0
C493 C 1.01125 0.23611 0.04696 0.0
C494 C 1.01637 0.25336 0.11006 0.0
H495 H 0.88051 0.80204 0.08817 0.0
H496 H 0.82463 0.79983 0.95124 0.0
H497 H 0.8025 0.76036 -0.01456 0.0
H498 H 0.86888 0.74615 0.02223 0.0
H499 H 0.87726 0.74115 0.13348 0.0
H500 H 0.88964 0.7686 0.08802 0.0
H501 H 0.87873 0.781 0.23754 0.0
H502 H 0.86607 0.75356 0.28295 0.0
H503 H 0.8504 0.76734 0.27303 0.0
H504 H 0.78541 0.72223 0.04529 0.0
H505 H 0.77442 0.68727 0.12392 0.0
H506 H 0.84085 0.71313 0.22604 0.0
C507 C 0.86385 0.793 0.06276 0.0
C508 C 0.85438 0.80383 0.01498 0.0
C509 C 0.83225 0.79173 -0.01363 0.0
C510 C 0.81955 0.76932 0.00577 0.0
C511 C 0.82908 0.75917 0.05499 0.0
C512 C 0.85074 0.77051 0.08294 0.0
C513 C 0.85631 0.75586 0.14098 0.0
C514 C 0.87408 0.75276 0.09331 0.0
C515 C 0.86329 0.76499 0.23945 0.0
C516 C 0.83437 0.73469 0.14193 0.0
C517 C 0.81899 0.73702 0.09134 0.0
C518 C 0.7974 0.7201 0.08398 0.0
C519 C 0.79133 0.70019 0.12874 0.0
C520 C 0.80674 0.69712 0.18065 0.0
C521 C 0.82858 0.7148 0.18731 0.0
H522 H 0.05429 0.4529 0.61905 0.0
H523 H 0.08008 0.51013 0.44057 0.0
H524 H 0.04447 0.49432 0.35991 0.0
H525 H 1.02164 0.41341 0.44599 0.0
H526 H 0.99948 0.39695 0.52436 0.0
H527 H 1.02702 0.41272 0.56781 0.0
H528 H 1.01417 0.43179 0.68479 0.0
H529 H 0.98658 0.41604 0.64183 0.0
H530 H 0.99996 0.44546 0.64297 0.0
H531 H 1.00525 0.47235 0.30025 0.0
H532 H 0.96641 0.44588 0.2656 0.0
H533 H 0.96644 0.40298 0.48212 0.0
C534 C 0.05247 0.46222 0.56344 0.0
C535 C 0.07019 0.48284 0.53639 0.0
C536 C 0.06699 0.49422 0.46213 0.0
C537 C 0.04672 0.48541 0.41611 0.0
C538 C 1.02966 0.4651 0.44459 0.0
C539 C 1.03235 0.45363 0.51648 0.0
C540 C 1.01144 0.43209 0.53351 0.0
C541 C 1.01512 0.41264 0.5169 0.0
C542 C 1.00251 0.43131 0.63159 0.0
C543 C 0.99655 0.43322 0.46012 0.0
C544 C 1.00731 0.45242 0.40968 0.0
C545 C 0.99673 0.45723 0.3392 0.0
C546 C 0.97462 0.44208 0.31996 0.0
C547 C 0.96327 0.42223 0.37054 0.0
C548 C 0.97457 0.41787 0.44138 0.0
H549 H 0.64525 0.6317 0.59564 0.0
H550 H 0.58338 0.58754 0.46341 0.0
H551 H 0.60017 0.56772 0.39186 0.0
H552 H 0.68027 0.63455 0.40468 0.0
H553 H 0.70111 0.6351 0.47915 0.0
H554 H 0.68434 0.64609 0.51911 0.0
H555 H 0.67286 0.62049 0.6626 0.0
H556 H 0.68955 0.60939 0.62292 0.0
H557 H 0.66085 0.59144 0.6462 0.0
H558 H 0.6236 0.55201 0.3363 0.0
H559 H 0.65184 0.54195 0.30165 0.0
H560 H 0.69863 0.59645 0.46805 0.0
C561 C 0.63529 0.61801 0.55088 0.0
C562 C 0.61288 0.61118 0.53582 0.0
C563 C 0.60044 0.59296 0.47746 0.0
C564 C 0.60988 0.58164 0.43591 0.0
C565 C 0.63189 0.58864 0.45291 0.0
C566 C 0.64446 0.60642 0.50895 0.0
C567 C 0.66766 0.61031 0.51714 0.0
C568 C 0.68433 0.63285 0.47765 0.0
C569 C 0.67304 0.60775 0.61822 0.0
C570 C 0.66615 0.59199 0.45701 0.0
C571 C 0.64538 0.57966 0.42059 0.0
C572 C 0.63995 0.56163 0.36424 0.0
C573 C 0.65612 0.55602 0.3449 0.0
C574 C 0.67755 0.56838 0.3816 0.0
C575 C 0.6825 0.58667 0.43814 0.0
H576 H 0.50584 0.13221 0.47048 0.0
H577 H 0.5547 0.13466 0.27998 0.0
H578 H 0.54288 0.09606 0.31745 0.0
H579 H 0.51197 0.09911 0.6437 0.0
H580 H 0.48323 0.0841 0.67235 0.0
H581 H 0.49527 0.11167 0.62887 0.0
H582 H 0.46659 0.09849 0.49677 0.0
H583 H 0.45446 0.07087 0.53978 0.0
H584 H 0.46367 0.07692 0.42122 0.0
H585 H 0.52571 0.05693 0.37795 0.0
H586 H 0.50488 1.02096 0.45496 0.0
H587 H 0.46757 0.04435 0.60764 0.0
C588 C 0.51403 0.12466 0.43601 0.0
C589 C 0.53121 0.13658 0.37174 0.0
C590 C 0.5415 0.12597 0.32915 0.0
C591 C 0.53488 0.10401 0.35008 0.0
C592 C 0.51794 0.09281 0.41393 0.0
C593 C 0.50766 0.10281 0.45621 0.0
C594 C 0.4901 0.08732 0.52328 0.0
C595 C 0.49547 0.09607 0.62294 0.0
C596 C 0.46736 0.08316 0.49345 0.0
C597 C 0.49201 0.06696 0.51217 0.0
C598 C 0.50818 0.07046 0.44885 0.0
C599 C 0.51306 0.05409 0.42774 0.0
C600 C 0.50119 0.03369 0.47243 0.0
C601 C 0.48453 0.02966 0.5379 0.0
C602 C 0.47996 0.04666 0.55736 0.0
H603 H 0.13802 0.11945 0.91585 0.0
H604 H 0.19373 0.16239 0.08682 0.0
H605 H 0.17723 0.18548 0.11545 0.0
H606 H 0.1303 0.16122 0.81122 0.0
H607 H 0.1008 0.14543 0.81205 0.0
H608 H 0.11664 0.13181 0.806 0.0
H609 H 0.09676 0.10898 0.95181 0.0
H610 H 0.0808 0.12248 0.95807 0.0
H611 H 0.0967 0.12276 0.0566 0.0
H612 H 0.15529 0.20457 0.12327 0.0
H613 H 0.12906 0.21798 0.11216 0.0
H614 H 0.08687 0.16266 0.9384 0.0
C615 C 0.14664 0.13356 0.96024 0.0
C616 C 0.16734 0.1391 -0.00149 0.0
C617 C 0.1781 0.15791 0.05528 0.0
C618 C 0.16877 0.1711 0.07249 0.0
C619 C 0.14856 0.16534 0.03287 0.0
C620 C 0.13753 0.14698 0.97823 0.0
C621 C 0.1161 0.1447 0.94327 0.0
C622 C 0.11596 0.14586 0.83682 0.0
C623 C 0.09643 0.12347 0.97963 0.0
C624 C 0.11689 0.16469 -0.01351 0.0
C625 C 0.13578 0.17633 0.0379 0.0
C626 C 0.14041 0.19554 0.08345 0.0
C627 C 0.12537 0.20306 0.07652 0.0
C628 C 0.1058 0.19144 0.02449 0.0
C629 C 0.10159 0.17194 0.97901 0.0
H630 H 0.93869 0.95414 0.92749 0.0
H631 H 0.89064 0.94317 0.14018 0.0
H632 H 0.90646 0.98294 0.15703 0.0
H633 H 0.98412 1.00273 0.02962 0.0
H634 H 0.99445 1.01632 0.91986 0.0
H635 H 0.97994 0.98689 0.92619 0.0
H636 H 0.95265 0.98525 0.80169 0.0
H637 H 0.96705 1.01465 0.79501 0.0
H638 H 0.93811 0.99993 0.82001 0.0
H639 H 0.92705 1.02377 0.15106 0.0
H640 H 0.95024 0.06312 0.11842 0.0
H641 H 0.98493 0.04858 0.90718 0.0
C642 C 0.93161 0.96012 0.97804 0.0
C643 C 0.9134 0.94542 0.03271 0.0
C644 C 0.9045 0.95399 0.09728 0.0
C645 C 0.91343 0.97661 0.10762 0.0
C646 C 0.93124 0.99063 0.05256 0.0
C647 C 0.94022 0.98278 -0.01131 0.0
C648 C 0.95894 1.00154 0.93631 0.0
C649 C 0.98065 1.00189 0.95408 0.0
C650 C 0.95388 1.00026 0.83207 0.0
C651 C 0.95899 1.02109 -0.01946 0.0
C652 C 0.94296 1.01435 0.04795 0.0
C653 C 0.93972 0.02925 0.09869 0.0
C654 C 0.95311 0.05164 0.07999 0.0
C655 C 0.96959 0.0591 0.0107 0.0
C656 C 0.97247 0.04348 0.96036 0.0
H657 H 0.04994 0.96628 0.943 0.0
H658 H 1.03949 0.90317 0.03559 0.0
H659 H 0.07939 0.9185 0.04931 0.0
H660 H 0.09858 0.98135 0.80701 0.0
H661 H 0.11205 1.00979 0.8389 0.0
H662 H 0.08257 0.99399 0.83631 0.0
H663 H 0.08102 1.00439 0.0069 0.0
H664 H 0.11049 1.02021 0.00992 0.0
H665 H 0.09596 0.99886 0.09432 0.0
H666 H 0.12042 0.94023 0.05045 0.0
H667 H 0.15984 0.96724 0.04363 0.0
H668 H 0.14452 1.01689 0.95285 0.0
C669 C 0.05606 0.95569 0.96592 0.0
C670 C 0.04143 0.93348 -0.01116 0.0
C671 C 0.05022 0.92027 0.0191 0.0
C672 C 0.07292 0.92881 0.02658 0.0
C673 C 0.08684 0.9507 0.00391 0.0
C674 C 0.0788 0.96403 0.97458 0.0
C675 C 0.09748 0.98709 0.95564 0.0
C676 C 0.09768 0.99342 0.85338 0.0
C677 C 0.09615 1.00361 0.02058 0.0
C678 C 0.11721 0.98454 0.97839 0.0
C679 C 0.11063 0.96337 0.00579 0.0
C680 C 0.12576 0.95688 0.02936 0.0
C681 C 0.14819 0.97239 0.02512 0.0
C682 C 0.15547 0.9943 -0.00208 0.0
C683 C 0.13961 1.00035 0.97431 0.0
H684 H 0.75448 0.49668 0.27081 0.0
H685 H 0.8017 0.55755 0.40093 0.0
H686 H 0.82838 0.54451 0.40754 0.0
H687 H 0.7678 0.46156 0.40135 0.0
H688 H 0.76431 0.4439 0.30515 0.0
H689 H 0.74901 0.4581 0.30933 0.0
H690 H 0.76424 0.47524 0.14816 0.0
H691 H 0.77955 0.46105 0.14332 0.0
H692 H 0.79345 0.49035 0.12974 0.0
H693 H 0.84968 0.52442 0.40361 0.0
H694 H 0.86455 0.49955 0.384 0.0
H695 H 0.8037 0.45174 0.25496 0.0
C696 C 0.77045 0.50735 0.30043 0.0
C697 C 0.77592 0.52822 0.33543 0.0
C698 C 0.79706 0.54156 0.37351 0.0
C699 C 0.81234 0.53426 0.37772 0.0
C700 C 0.80634 0.51359 0.34323 0.0
C701 C 0.78595 0.50036 0.30482 0.0
C702 C 0.78363 0.47884 0.27255 0.0
C703 C 0.76509 0.45946 0.32525 0.0
C704 C 0.78001 0.47623 0.16718 0.0
C705 C 0.80589 0.48198 0.29905 0.0
C706 C 0.81869 0.50211 0.34007 0.0
C707 C 0.83978 0.50863 0.37157 0.0
C708 C 0.84803 0.49429 0.36068 0.0
C709 C 0.83532 0.47359 0.31832 0.0
C710 C 0.81394 0.46748 0.287 0.0
H711 H 0.65179 0.37963 0.26316 0.0
H712 H 0.59845 0.39094 0.33579 0.0
H713 H 0.57384 0.35121 0.3546 0.0
H714 H 0.61883 0.32972 0.13305 0.0
H715 H 0.63394 0.31682 0.17291 0.0
H716 H 0.64734 0.34617 0.16352 0.0
H717 H 0.65881 0.34959 0.33598 0.0
H718 H 0.64537 0.32026 0.34589 0.0
H719 H 0.63813 0.33561 0.42354 0.0
H720 H 0.55531 0.31032 0.37256 0.0
H721 H 0.54353 0.27105 0.37856 0.0
H722 H 0.60846 0.28568 0.29105 0.0
C723 C 0.63493 0.37375 0.28295 0.0
C724 C 0.62709 0.38854 0.29764 0.0
C725 C 0.60482 0.38005 0.32273 0.0
C726 C 0.59073 0.35747 0.33429 0.0
C727 C 0.59902 0.34342 0.32004 0.0
C728 C 0.62054 0.35118 0.29411 0.0
C729 C 0.62522 0.33248 0.28258 0.0
C730 C 0.63171 0.33123 0.18203 0.0
C731 C 0.64293 0.33462 0.35109 0.0
C732 C 0.60301 0.31303 0.30672 0.0
C733 C 0.58819 0.31975 0.32861 0.0
C734 C 0.56676 0.30488 0.35503 0.0
C735 C 0.56023 0.28255 0.35854 0.0
C736 C 0.57499 0.27514 0.33513 0.0
C737 C 0.5967 0.29072 0.30894 0.0
H738 H 0.71917 0.29646 0.23082 0.0
H739 H 0.7066 0.24463 0.42703 0.0
H740 H 0.74608 0.26183 0.45907 0.0
H741 H 0.76892 0.3023 0.13794 0.0
H742 H 0.78263 0.33164 0.12716 0.0
H743 H 0.75319 0.31584 0.12091 0.0
H744 H 0.75009 0.33852 0.25454 0.0
H745 H 0.77954 0.35446 0.26088 0.0
H746 H 0.76384 0.34064 0.36275 0.0
H747 H 0.7869 0.28347 0.46635 0.0
H748 H 0.82653 0.30898 0.45234 0.0
H749 H 0.81384 0.34789 0.25423 0.0
C750 C 0.7247 0.28889 0.2814 0.0
C751 C 0.7096 0.26897 0.32565 0.0
C752 C 0.7177 0.2596 0.39078 0.0
C753 C 0.74016 0.26933 0.40997 0.0
C754 C 0.75458 0.28863 0.36407 0.0
C755 C 0.74724 0.29846 0.30157 0.0
C756 C 0.76647 0.31907 0.26105 0.0
C757 C 0.76788 0.31708 0.1555 0.0
C758 C 0.76488 0.33938 0.28633 0.0
C759 C 0.78567 0.31913 0.31008 0.0
C760 C 0.77834 0.30138 0.36915 0.0
C761 C 0.79283 0.2975 0.42068 0.0
C762 C 0.81539 0.31211 0.41196 0.0
C763 C 0.82349 0.33056 0.35231 0.0
C764 C 0.80828 0.33406 0.30087 0.0
H765 H 0.47278 0.78646 0.59044 0.0
H766 H 0.52699 0.83003 0.76678 0.0
H767 H 0.50932 0.85208 0.79405 0.0
H768 H 0.46427 0.82753 0.48473 0.0
H769 H 0.43481 0.81125 0.48267 0.0
H770 H 0.45116 0.79815 0.47884 0.0
H771 H 0.43079 0.77491 0.62306 0.0
H772 H 0.41431 0.78789 0.62705 0.0
H773 H 0.42982 0.78837 0.72737 0.0
H774 H 0.48681 0.87037 0.79856 0.0
H775 H 0.46029 0.88329 0.78324 0.0
H776 H 0.41976 0.82802 0.60609 0.0
C777 C 0.48078 0.80047 0.63572 0.0
C778 C 0.50146 0.80656 0.67573 0.0
C779 C 0.5114 0.82518 0.73389 0.0
C780 C 0.50141 0.83778 0.75033 0.0
C781 C 0.48132 0.8316 0.70868 0.0
C782 C 0.47099 0.81334 0.65298 0.0
C783 C 0.44956 0.81067 0.61561 0.0
C784 C 0.44999 0.81198 0.50914 0.0
C785 C 0.42996 0.78918 0.65036 0.0
C786 C 0.44965 0.83038 0.65835 0.0
C787 C 0.46814 0.84216 0.71188 0.0
C788 C 0.47221 0.86122 0.75718 0.0
C789 C 0.45702 0.86847 0.74779 0.0
C790 C 0.43784 0.85673 0.69352 0.0
C791 C 0.43417 0.83736 0.64841 0.0
H792 H 0.27113 0.61874 0.59126 0.0
H793 H 0.21688 0.60647 0.77225 0.0
H794 H 0.23137 0.64613 0.78583 0.0
H795 H 0.31234 0.66688 0.70822 0.0
H796 H 0.32602 0.68097 0.60317 0.0
H797 H 0.31153 0.65153 0.60728 0.0
H798 H 0.28835 0.65027 0.4655 0.0
H799 H 0.30279 0.67971 0.46086 0.0
H800 H 0.27333 0.66479 0.46933 0.0
H801 H 0.25182 0.68708 0.78245 0.0
H802 H 0.27602 0.7266 0.75702 0.0
H803 H 0.31712 0.71315 0.57629 0.0
C804 C 0.26227 0.62438 0.63367 0.0
C805 C 0.2428 0.60932 0.6808 0.0
C806 C 0.23176 0.61751 0.73531 0.0
C807 C 0.2399 0.64008 0.74366 0.0
C808 C 0.2591 0.65443 0.69678 0.0
C809 C 0.27012 0.64695 0.64238 0.0
C810 C 0.29031 0.66598 0.59857 0.0
C811 C 0.31129 0.66636 0.63128 0.0
C812 C 0.28858 0.66513 0.49225 0.0
C813 C 0.2889 0.68529 0.63692 0.0
C814 C 0.27081 0.67818 0.69384 0.0
C815 C 0.26605 0.69283 0.73811 0.0
C816 C 0.28003 0.71531 0.72371 0.0
C817 C 0.29863 0.72315 0.66514 0.0
C818 C 0.30301 0.70778 0.6211 0.0
H819 H 0.47777 0.68247 0.6122 0.0
H820 H 0.49296 0.6365 0.74762 0.0
H821 H 0.45355 0.60945 0.75587 0.0
H822 H 0.42811 0.6678 0.7425 0.0
H823 H 0.41385 0.67071 0.64449 0.0
H824 H 0.44328 0.68684 0.65087 0.0
H825 H 0.44652 0.67217 0.49099 0.0
H826 H 0.41711 0.65604 0.484 0.0
H827 H 0.43352 0.64307 0.47313 0.0
H828 H 0.4126 0.58704 0.74774 0.0
H829 H 0.37291 0.57046 0.72125 0.0
H830 H 0.38355 0.6304 0.58916 0.0
C831 C 0.47284 0.66676 0.64398 0.0
C832 C 0.48865 0.66172 0.67943 0.0
C833 C 0.48134 0.64087 0.72 0.0
C834 C 0.45892 0.62536 0.72516 0.0
C835 C 0.44384 0.63083 0.68954 0.0
C836 C 0.45046 0.651 0.64964 0.0
C837 C 0.43082 0.6525 0.61503 0.0
C838 C 0.42891 0.67054 0.6663 0.0
C839 C 0.43207 0.65616 0.50953 0.0
C840 C 0.41215 0.62995 0.6411 0.0
C841 C 0.42011 0.61779 0.68432 0.0
C842 C 0.4062 0.5964 0.71379 0.0
C843 C 0.38364 0.58707 0.69788 0.0
C844 C 0.37496 0.59898 0.6524 0.0
C845 C 0.38954 0.62087 0.62473 0.0
H846 H 1.03591 0.21246 0.72231 0.0
H847 H 0.1027 0.22486 0.74254 0.0
H848 H 0.10263 0.21737 0.57676 0.0
H849 H 1.01757 0.16858 0.54273 0.0
H850 H 1.00103 0.17767 0.48289 0.0
H851 H 1.00502 0.18141 0.60635 0.0
H852 H 1.01955 0.22288 0.585 0.0
H853 H 1.01582 0.21931 0.46157 0.0
H854 H 0.04232 0.23848 0.50794 0.0
H855 H 0.09781 0.2134 0.41038 0.0
H856 H 0.08719 0.21018 0.24667 0.0
H857 H 1.02298 0.19916 0.32632 0.0
C858 C 0.05024 0.21306 0.69176 0.0
C859 C 0.06933 0.21927 0.74468 0.0
C860 C 0.08796 0.22026 0.70281 0.0
C861 C 0.08808 0.21595 0.60881 0.0
C862 C 0.06939 0.21058 0.55754 0.0
C863 C 0.05068 0.20886 0.59693 0.0
C864 C 1.03343 0.20409 0.52335 0.0
C865 C 1.01306 0.1816 0.53982 0.0
C866 C 1.02744 0.22228 0.51925 0.0
C867 C 0.04573 0.2041 0.43689 0.0
C868 C 0.0664 0.20781 0.45903 0.0
C869 C 0.08154 0.21008 0.39188 0.0
C870 C 0.0754 0.20839 0.29907 0.0
C871 C 0.05424 0.20429 0.27427 0.0
C872 C 1.03914 0.20199 0.34395 0.0
H873 H 0.88531 0.85348 0.71892 0.0
H874 H 0.88395 0.91417 0.7381 0.0
H875 H 0.89156 0.9206 0.5715 0.0
H876 H 0.92874 0.87281 0.53204 0.0
H877 H 0.91549 0.84659 0.47558 0.0
H878 H 0.91337 0.84819 0.59951 0.0
H879 H 0.87106 0.82639 0.58639 0.0
H880 H 0.87302 0.82502 0.46252 0.0
H881 H 0.85744 0.83646 0.51178 0.0
H882 H 0.89316 0.91802 0.40488 0.0
H883 H 0.89288 0.90849 0.24149 0.0
H884 H 0.89447 0.84996 0.323 0.0
C885 C 0.88732 0.86839 0.68803 0.0
C886 C 0.88405 0.88335 0.74048 0.0
C887 C 0.88631 0.9025 0.69842 0.0
C888 C 0.89071 0.90635 0.60406 0.0
C889 C 0.89292 0.89094 0.55303 0.0
C890 C 0.89167 0.87249 0.59302 0.0
C891 C 0.89307 0.85787 0.51979 0.0
C892 C 0.91391 0.85628 0.53249 0.0
C893 C 0.87242 0.83509 0.52018 0.0
C894 C 0.89436 0.87061 0.4328 0.0
C895 C 0.89435 0.88967 0.45431 0.0
C896 C 0.89367 0.90342 0.38678 0.0
C897 C 0.89328 0.89773 0.29419 0.0
C898 C 0.89375 0.87855 0.2701 0.0
C899 C 0.89438 0.86484 0.34012 0.0
H900 H 0.23068 0.06516 0.71127 0.0
H901 H 0.25389 1.01859 0.71978 0.0
H902 H 0.25122 1.01544 0.54965 0.0
H903 H 0.19281 0.04152 0.52558 0.0
H904 H 0.1992 0.06714 0.47176 0.0
H905 H 0.20278 0.06584 0.59482 0.0
H906 H 0.24341 0.09628 0.58047 0.0
H907 H 0.23991 0.09782 0.45747 0.0
H908 H 0.26115 0.09292 0.50037 0.0
H909 H 0.24272 1.01456 0.38145 0.0
H910 H 0.23485 1.02083 0.22063 0.0
H911 H 0.22149 0.07112 0.31697 0.0
C912 C 0.23536 0.0545 0.6768 0.0
C913 C 0.24243 0.04209 0.7281 0.0
C914 C 0.24856 0.02834 0.68139 0.0
C915 C 0.24697 0.02632 0.58492 0.0
C916 C 0.2397 0.03854 0.53613 0.0
C917 C 0.2345 0.05277 0.57994 0.0
C918 C 0.22798 0.06462 0.51018 0.0
C919 C 0.20428 0.05946 0.52659 0.0
C920 C 0.24408 0.08938 0.51225 0.0
C921 C 0.22999 0.05454 0.42081 0.0
C922 C 0.23639 0.03924 0.4377 0.0
C923 C 0.23809 0.02678 0.36698 0.0
C924 C 0.23351 0.03035 0.27613 0.0
C925 C 0.2279 0.04659 0.25694 0.0
C926 C 0.22608 0.0588 0.33011 0.0
H927 H 0.73892 0.53704 0.64835 0.0
H928 H 0.69557 0.56208 0.57942 0.0
H929 H 0.69391 0.57041 0.7441 0.0
H930 H 0.71032 0.50926 0.8487 0.0
H931 H 0.73405 0.5144 0.91566 0.0
H932 H 0.73484 0.51342 0.79112 0.0
H933 H 0.76898 0.55221 0.78644 0.0
H934 H 0.76859 0.55312 0.91118 0.0
H935 H 0.76806 0.57441 0.84362 0.0
H936 H 0.69536 0.57427 0.91441 0.0
H937 H 0.70027 0.57402 0.08389 0.0
H938 H 0.7398 0.54322 0.0459 0.0
C939 C 0.72976 0.54498 0.6682 0.0
C940 C 0.71786 0.54958 0.60211 0.0
C941 C 0.70516 0.55899 0.62968 0.0
C942 C 0.70403 0.56365 0.72282 0.0
C943 C 0.71536 0.5583 0.78721 0.0
C944 C 0.728 0.5492 0.76153 0.0
C945 C 0.73697 0.54336 0.84573 0.0
C946 C 0.72853 0.51864 0.85054 0.0
C947 C 0.76215 0.55657 0.8468 0.0
C948 C 0.72725 0.55047 0.92242 0.0
C949 C 0.71504 0.55924 0.8868 0.0
C950 C 0.70482 0.56742 0.94336 0.0
C951 C 0.70759 0.5671 0.03916 0.0
C952 C 0.72011 0.55833 0.07697 0.0
C953 C 0.72978 0.54959 0.01822 0.0
H954 H 0.54952 0.22462 0.61327 0.0
H955 H 0.5653 0.17262 0.59333 0.0
H956 H 0.55848 0.1652 0.75988 0.0
H957 H 0.57565 0.24536 0.82482 0.0
H958 H 0.55556 0.25136 0.87226 0.0
H959 H 0.55887 0.2512 0.74862 0.0
H960 H 0.5177 0.22264 0.73076 0.0
H961 H 0.51419 0.2229 0.85443 0.0
H962 H 0.50621 0.19748 0.79613 0.0
H963 H 0.55507 0.16626 0.92726 0.0
H964 H 0.55151 0.17345 0.09108 0.0
H965 H 0.53658 0.22389 0.00905 0.0
C966 C 0.55098 0.21137 0.64407 0.0
C967 C 0.55803 0.19924 0.59117 0.0
C968 C 0.5601 0.18221 0.63324 0.0
C969 C 0.55619 0.17779 0.72764 0.0
C970 C 0.55008 0.19049 0.77898 0.0
C971 C 0.54716 0.20673 0.73919 0.0
C972 C 0.54169 0.21863 0.81254 0.0
C973 C 0.55898 0.24308 0.81465 0.0
C974 C 0.51857 0.2152 0.79757 0.0
C975 C 0.54272 0.20692 0.89931 0.0
C976 C 0.54754 0.19073 0.8777 0.0
C977 C 0.55086 0.17858 0.94537 0.0
C978 C 0.54895 0.18288 0.03813 0.0
C979 C 0.5436 0.19907 0.0622 0.0
C980 C 0.5404 0.21123 -0.00798 0.0
H981 H 0.91557 0.41147 0.65023 0.0
H982 H 0.86011 0.34885 0.57284 0.0
H983 H 0.85231 0.33864 0.737 0.0
H984 H 0.93371 0.39044 0.83178 0.0
H985 H 0.94225 0.41346 0.90796 0.0
H986 H 0.94233 0.41721 0.78444 0.0
H987 H 0.91738 0.43423 0.80476 0.0
H988 H 0.91715 0.43041 0.92851 0.0
H989 H 0.8917 0.41907 0.86557 0.0
H990 H 0.85132 0.3339 0.90363 0.0
H991 H 0.85879 0.33344 0.06946 0.0
H992 H 0.91544 0.39855 0.04655 0.0
C993 C 0.90165 0.39577 0.66848 0.0
C994 C 0.88834 0.38098 0.59937 0.0
C995 C 0.87051 0.36039 0.62486 0.0
C996 C 0.86583 0.3545 0.7179 0.0
C997 C 0.87922 0.36932 0.78452 0.0
C998 C 0.89689 0.38945 0.76166 0.0
C999 C 0.90965 0.40133 0.8477 0.0
C1000 C 0.93339 0.40587 0.84264 0.0
C1001 C 0.90892 0.42252 0.86249 0.0
C1002 C 0.89659 0.38446 0.92178 0.0
C1003 C 0.87893 0.36634 0.88313 0.0
C1004 C 0.86496 0.34802 0.93512 0.0
C1005 C 0.8694 0.3479 0.02911 0.0
C1006 C 0.88768 0.36594 0.07019 0.0
C1007 C 0.90122 0.3847 0.01658 0.0
H1008 H 0.36771 0.87726 0.38475 0.0
H1009 H 0.43387 0.88795 0.40548 0.0
H1010 H 0.43364 0.88035 0.23965 0.0
H1011 H 0.34846 0.83338 0.20366 0.0
H1012 H 0.33247 0.84322 0.1444 0.0
H1013 H 0.33639 0.84658 0.26802 0.0
H1014 H 0.35188 0.88825 0.24854 0.0
H1015 H 0.34827 0.88508 0.12496 0.0
H1016 H 0.37486 0.90364 0.17224 0.0
H1017 H 0.42897 0.8769 0.07317 0.0
H1018 H 0.41865 0.87455 0.90939 0.0
H1019 H 0.35493 0.86492 -0.01112 0.0
C1020 C 0.38184 0.8774 0.35433 0.0
C1021 C 0.40083 0.8832 0.40724 0.0
C1022 C 0.41922 0.88364 0.36563 0.0
C1023 C 0.41924 0.87927 0.27166 0.0
C1024 C 0.40068 0.87438 0.2203 0.0
C1025 C 0.38217 0.87314 0.2596 0.0
C1026 C 0.36512 0.86898 0.18595 0.0
C1027 C 0.34438 0.84671 0.20144 0.0
C1028 C 0.35973 0.8876 0.18277 0.0
C1029 C 0.37733 0.86887 0.09951 0.0
C1030 C 0.39776 0.87193 0.12171 0.0
C1031 C 0.41286 0.87407 0.0546 0.0
C1032 C 0.4069 0.87289 0.96176 0.0
C1033 C 0.38597 0.86944 0.93694 0.0
C1034 C 0.37092 0.86727 0.00656 0.0
H1035 H 0.2494 0.53384 -0.00759 0.0
H1036 H 0.19618 0.54274 0.89211 0.0
H1037 H 0.18203 0.53866 0.05112 0.0
H1038 H 0.21833 0.49437 0.18011 0.0
H1039 H 0.24108 0.50605 0.25962 0.0
H1040 H 0.246 0.50724 0.13654 0.0
H1041 H 0.27045 0.54934 0.14554 0.0
H1042 H 0.26563 0.54828 0.26845 0.0
H1043 H 0.25946 0.56527 0.19517 0.0
H1044 H 0.17506 0.53652 0.21665 0.0
H1045 H 0.17601 0.53797 0.38614 0.0
H1046 H 0.23395 0.53101 0.38754 0.0
C1047 C 0.23462 0.53462 0.0043 0.0
C1048 C 0.22379 0.53856 0.93051 0.0
C1049 C 0.2047 0.5398 0.94801 0.0
C1050 C 0.19646 0.53735 0.03788 0.0
C1051 C 0.20758 0.53375 0.10942 0.0
C1052 C 0.22627 0.53246 0.09433 0.0
C1053 C 0.23585 0.53019 0.18542 0.0
C1054 C 0.23527 0.50815 0.19072 0.0
C1055 C 0.25923 0.54942 0.19944 0.0
C1056 C 0.2199 0.53101 0.2538 0.0
C1057 C 0.2036 0.53274 0.20755 0.0
C1058 C 0.18757 0.53496 0.25388 0.0
C1059 C 0.18835 0.53587 0.35029 0.0
C1060 C 0.20506 0.53457 0.3998 0.0
C1061 C 0.22085 0.53171 0.35116 0.0
H1062 H 0.54348 0.71368 0.38904 0.0
H1063 H 0.60044 0.70498 0.38813 0.0
H1064 H 0.59884 0.70239 0.21897 0.0
H1065 H 0.51468 0.67781 0.20194 0.0
H1066 H 0.50535 0.69499 0.14985 0.0
H1067 H 0.51044 0.69637 0.27276 0.0
H1068 H 0.53748 0.738 0.25997 0.0
H1069 H 0.53215 0.73682 0.13735 0.0
H1070 H 0.55986 0.74796 0.17849 0.0
H1071 H 0.58989 0.6974 0.05618 0.0
H1072 H 0.57884 0.6982 0.89615 0.0
H1073 H 0.52947 0.71341 -0.00781 0.0
C1074 C 0.55571 0.7115 0.35275 0.0
C1075 C 0.57187 0.70919 0.40159 0.0
C1076 C 0.58777 0.70657 0.35224 0.0
C1077 C 0.58696 0.70495 0.25611 0.0
C1078 C 0.57043 0.70644 0.21016 0.0
C1079 C 0.55545 0.71029 0.25572 0.0
C1080 C 0.54009 0.71222 0.18715 0.0
C1081 C 0.51622 0.69427 0.20397 0.0
C1082 C 0.54255 0.73512 0.19096 0.0
C1083 C 0.5488 0.70864 0.09658 0.0
C1084 C 0.56602 0.70492 0.11272 0.0
C1085 C 0.57666 0.70062 0.04205 0.0
C1086 C 0.57018 0.70104 0.95138 0.0
C1087 C 0.55352 0.70616 0.93191 0.0
C1088 C 0.54228 0.7095 0.00544 0.0
loop_
_geom_bond_atom_site_label_1
_geom_bond_atom_site_label_2
_geom_bond_distance
_geom_bond_site_symmetry_2
_ccdc_geom_bond_type
Nd0 C2 2.836 . S
Nd0 O20 2.500 1_556 S
Nd0 O21 2.492 . S
Nd0 O22 2.487 . S
Nd0 O23 2.682 . S
Nd0 O24 2.410 . S
Nd0 O29 2.414 1_556 S
Nd0 O31 2.424 . S
Nd1 C11 2.836 . S
Nd1 O23 2.414 1_654 S
Nd1 O25 2.424 . S
Nd1 O26 2.500 1_554 S
Nd1 O27 2.492 . S
Nd1 O28 2.487 . S
Nd1 O29 2.682 1_655 S
Nd1 O30 2.410 1_655 S
C2 Nd0 2.836 . S
C2 C3 1.498 1_556 S
C2 O20 1.258 1_556 S
C2 O21 1.239 . S
C3 C2 1.498 1_554 S
C3 C4 1.366 . S
C3 C8 1.407 1_554 S
C4 C3 1.366 . S
C4 C5 1.392 . S
C4 H32 0.930 . S
C5 C4 1.392 . S
C5 C6 1.398 . S
C5 H33 0.929 . S
C6 C5 1.398 . S
C6 C7 1.352 1_554 S
C7 C6 1.352 1_556 S
C7 C8 1.384 . S
C7 H34 0.930 . S
C8 C3 1.407 1_556 S
C8 C7 1.384 . S
C8 H35 0.929 . S
C9 O22 1.241 . S
C9 O23 1.273 . S
C10 O24 1.251 1_654 S
C10 O25 1.268 . S
C11 Nd1 2.836 . S
C11 C12 1.498 . S
C11 O26 1.258 1_554 S
C11 O27 1.239 . S
C12 C11 1.498 . S
C12 C13 1.366 1_554 S
C12 C17 1.407 . S
C13 C12 1.366 1_556 S
C13 C14 1.392 . S
C13 H36 0.930 . S
C14 C13 1.392 . S
C14 C15 1.398 1_556 S
C14 H37 0.929 . S
C15 C14 1.398 1_554 S
C15 C16 1.352 . S
C16 C15 1.352 . S
C16 C17 1.384 . S
C16 H38 0.930 . S
C17 C12 1.407 . S
C17 C16 1.384 . S
C17 H39 0.929 . S
C18 O28 1.241 1_455 S
C18 O29 1.273 . S
C19 O30 1.251 1_556 S
C19 O31 1.268 . S
O20 Nd0 2.500 1_554 S
O20 C2 1.258 1_554 S
O21 Nd0 2.492 . S
O21 C2 1.239 . S
O22 Nd0 2.487 . S
O22 C9 1.241 . S
O23 Nd0 2.682 . S
O23 Nd1 2.414 1_456 S
O23 C9 1.273 . S
O24 Nd0 2.410 . S
O24 C10 1.251 1_456 S
O25 Nd1 2.424 . S
O25 C10 1.268 . S
O26 Nd1 2.500 1_556 S
O26 C11 1.258 1_556 S
O27 Nd1 2.492 . S
O27 C11 1.239 . S
O28 Nd1 2.487 . S
O28 C18 1.241 1_655 S
O29 Nd0 2.414 1_554 S
O29 Nd1 2.682 1_455 S
O29 C18 1.273 . S
O30 Nd1 2.410 1_455 S
O30 C19 1.251 1_554 S
O31 Nd0 2.424 . S
O31 C19 1.268 . S
H32 C4 0.930 . S
H33 C5 0.929 . S
H34 C7 0.930 . S
H35 C8 0.929 . S
H36 C13 0.930 . S
H37 C14 0.929 . S
H38 C16 0.930 . S
H39 C17 0.929 . S
Nd40 C42 2.836 . S
Nd40 O60 2.500 1_556 S
Nd40 O61 2.492 . S
Nd40 O62 2.487 . S
Nd40 O63 2.682 . S
Nd40 O64 2.410 . S
Nd40 O69 2.414 1_556 S
Nd40 O71 2.424 . S
Nd41 C51 2.836 . S
Nd41 O63 2.414 1_554 S
Nd41 O65 2.424 . S
Nd41 O66 2.500 1_554 S
Nd41 O67 2.492 . S
Nd41 O68 2.487 . S
Nd41 O69 2.682 . S
Nd41 O70 2.410 . S
C42 Nd40 2.836 . S
C42 C43 1.498 1_556 S
C42 O60 1.258 1_556 S
C42 O61 1.239 . S
C43 C42 1.498 1_554 S
C43 C44 1.366 . S
C43 C48 1.407 1_554 S
C44 C43 1.366 . S
C44 C45 1.392 . S
C44 H72 0.930 . S
C45 C44 1.392 . S
C45 C46 1.398 . S
C45 H73 0.929 . S
C46 C45 1.398 . S
C46 C47 1.352 1_554 S
C47 C46 1.352 1_556 S
C47 C48 1.384 . S
C47 H74 0.930 . S
C48 C43 1.407 1_556 S
C48 C47 1.384 . S
C48 H75 0.929 . S
C49 O62 1.241 . S
C49 O63 1.273 . S
C50 O64 1.251 1_554 S
C50 O65 1.268 . S
C51 Nd41 2.836 . S
C51 C52 1.498 . S
C51 O66 1.258 1_554 S
C51 O67 1.239 . S
C52 C51 1.498 . S
C52 C53 1.366 1_554 S
C52 C57 1.407 . S
C53 C52 1.366 1_556 S
C53 C54 1.392 . S
C53 H76 0.930 . S
C54 C53 1.392 . S
C54 C55 1.398 1_556 S
C54 H77 0.929 . S
C55 C54 1.398 1_554 S
C55 C56 1.352 . S
C56 C55 1.352 . S
C56 C57 1.384 . S
C56 H78 0.930 . S
C57 C52 1.407 . S
C57 C56 1.384 . S
C57 H79 0.929 . S
C58 O68 1.241 . S
C58 O69 1.273 . S
C59 O70 1.251 1_556 S
C59 O71 1.268 . S
O60 Nd40 2.500 1_554 S
O60 C42 1.258 1_554 S
O61 Nd40 2.492 . S
O61 C42 1.239 . S
O62 Nd40 2.487 . S
O62 C49 1.241 . S
O63 Nd40 2.682 . S
O63 Nd41 2.414 1_556 S
O63 C49 1.273 . S
O64 Nd40 2.410 . S
O64 C50 1.251 1_556 S
O65 Nd41 2.424 . S
O65 C50 1.268 . S
O66 Nd41 2.500 1_556 S
O66 C51 1.258 1_556 S
O67 Nd41 2.492 . S
O67 C51 1.239 . S
O68 Nd41 2.487 . S
O68 C58 1.241 . S
O69 Nd40 2.414 1_554 S
O69 Nd41 2.682 . S
O69 C58 1.273 . S
O70 Nd41 2.410 . S
O70 C59 1.251 1_554 S
O71 Nd40 2.424 . S
O71 C59 1.268 . S
H72 C44 0.930 . S
H73 C45 0.929 . S
H74 C47 0.930 . S
H75 C48 0.929 . S
H76 C53 0.930 . S
H77 C54 0.929 . S
H78 C56 0.930 . S
H79 C57 0.929 . S
Nd80 C82 2.836 . S
Nd80 O100 2.500 1_556 S
Nd80 O101 2.492 . S
Nd80 O102 2.495 . S
Nd80 O103 2.682 1_565 S
Nd80 O104 2.410 1_565 S
Nd80 O109 2.414 1_566 S
Nd80 O111 2.424 . S
Nd81 C91 2.836 . S
Nd81 O103 2.414 1_554 S
Nd81 O105 2.424 . S
Nd81 O106 2.500 1_554 S
Nd81 O107 2.492 . S
Nd81 O108 2.487 . S
Nd81 O109 2.682 . S
Nd81 O110 2.410 . S
C82 Nd80 2.836 . S
C82 C83 1.498 1_556 S
C82 O100 1.258 1_556 S
C82 O101 1.239 . S
C83 C82 1.498 1_554 S
C83 C84 1.367 . S
C83 C88 1.407 1_554 S
C84 C83 1.367 . S
C84 C85 1.392 . S
C84 H112 0.930 . S
C85 C84 1.392 . S
C85 C86 1.398 . S
C85 H113 0.929 . S
C86 C85 1.398 . S
C86 C87 1.352 1_554 S
C87 C86 1.352 1_556 S
C87 C88 1.384 . S
C87 H114 0.930 . S
C88 C83 1.407 1_556 S
C88 C87 1.384 . S
C88 H115 0.929 . S
C89 O102 1.212 1_545 S
C89 O103 1.273 . S
C90 O104 1.251 1_554 S
C90 O105 1.268 . S
C91 Nd81 2.836 . S
C91 C92 1.498 . S
C91 O106 1.258 1_554 S
C91 O107 1.239 . S
C92 C91 1.498 . S
C92 C93 1.366 1_554 S
C92 C97 1.407 . S
C93 C92 1.366 1_556 S
C93 C94 1.392 . S
C93 H116 0.930 . S
C94 C93 1.392 . S
C94 C95 1.398 1_556 S
C94 H117 0.929 . S
C95 C94 1.398 1_554 S
C95 C96 1.352 . S
C96 C95 1.352 . S
C96 C97 1.384 . S
C96 H118 0.930 . S
C97 C92 1.407 . S
C97 C96 1.384 . S
C97 H119 0.929 . S
C98 O108 1.241 . S
C98 O109 1.273 . S
C99 O110 1.245 1_566 S
C99 O111 1.271 . S
O100 Nd80 2.500 1_554 S
O100 C82 1.258 1_554 S
O101 Nd80 2.492 . S
O101 C82 1.239 . S
O102 Nd80 2.495 . S
O102 C89 1.212 1_565 S
O103 Nd80 2.682 1_545 S
O103 Nd81 2.414 1_556 S
O103 C89 1.273 . S
O104 Nd80 2.410 1_545 S
O104 C90 1.251 1_556 S
O105 Nd81 2.424 . S
O105 C90 1.268 . S
O106 Nd81 2.500 1_556 S
O106 C91 1.258 1_556 S
O107 Nd81 2.492 . S
O107 C91 1.239 . S
O108 Nd81 2.487 . S
O108 C98 1.241 . S
O109 Nd80 2.414 1_544 S
O109 Nd81 2.682 . S
O109 C98 1.273 . S
O110 Nd81 2.410 . S
O110 C99 1.245 1_544 S
O111 Nd80 2.424 . S
O111 C99 1.271 . S
H112 C84 0.930 . S
H113 C85 0.929 . S
H114 C87 0.930 . S
H115 C88 0.929 . S
H116 C93 0.930 . S
H117 C94 0.929 . S
H118 C96 0.930 . S
H119 C97 0.929 . S
Nd120 C122 2.836 . S
Nd120 O140 2.500 . S
Nd120 O141 2.492 . S
Nd120 O142 2.487 . S
Nd120 O143 2.682 . S
Nd120 O144 2.410 . S
Nd120 O149 2.414 . S
Nd120 O151 2.424 . S
Nd121 C131 2.836 . S
Nd121 O143 2.414 . S
Nd121 O145 2.424 . S
Nd121 O146 2.500 . S
Nd121 O147 2.492 . S
Nd121 O148 2.487 . S
Nd121 O149 2.682 . S
Nd121 O150 2.410 . S
C122 Nd120 2.836 . S
C122 C123 1.498 . S
C122 O140 1.258 . S
C122 O141 1.239 . S
C123 C122 1.498 . S
C123 C124 1.366 . S
C123 C128 1.407 . S
C124 C123 1.366 . S
C124 C125 1.392 . S
C124 H152 0.930 . S
C125 C124 1.392 . S
C125 C126 1.398 . S
C125 H153 0.929 . S
C126 C125 1.398 . S
C126 C127 1.352 . S
C127 C126 1.352 . S
C127 C128 1.384 . S
C127 H154 0.930 . S
C128 C123 1.407 . S
C128 C127 1.384 . S
C128 H155 0.929 . S
C129 O142 1.241 . S
C129 O143 1.273 . S
C130 O144 1.251 . S
C130 O145 1.268 . S
C131 Nd121 2.836 . S
C131 C132 1.498 . S
C131 O146 1.258 . S
C131 O147 1.239 . S
C132 C131 1.498 . S
C132 C133 1.366 . S
C132 C137 1.407 . S
C133 C132 1.366 . S
C133 C134 1.392 . S
C133 H156 0.930 . S
C134 C133 1.392 . S
C134 C135 1.398 . S
C134 H157 0.929 . S
C135 C134 1.398 . S
C135 C136 1.352 . S
C136 C135 1.352 . S
C136 C137 1.384 . S
C136 H158 0.930 . S
C137 C132 1.407 . S
C137 C136 1.384 . S
C137 H159 0.929 . S
C138 O148 1.241 . S
C138 O149 1.273 . S
C139 O150 1.251 . S
C139 O151 1.268 . S
O140 Nd120 2.500 . S
O140 C122 1.258 . S
O141 Nd120 2.492 . S
O141 C122 1.239 . S
O142 Nd120 2.487 . S
O142 C129 1.241 . S
O143 Nd120 2.682 . S
O143 Nd121 2.414 . S
O143 C129 1.273 . S
O144 Nd120 2.410 . S
O144 C130 1.251 . S
O145 Nd121 2.424 . S
O145 C130 1.268 . S
O146 Nd121 2.500 . S
O146 C131 1.258 . S
O147 Nd121 2.492 . S
O147 C131 1.239 . S
O148 Nd121 2.487 . S
O148 C138 1.241 . S
O149 Nd120 2.414 . S
O149 Nd121 2.682 . S
O149 C138 1.273 . S
O150 Nd121 2.410 . S
O150 C139 1.251 . S
O151 Nd120 2.424 . S
O151 C139 1.268 . S
H152 C124 0.930 . S
H153 C125 0.929 . S
H154 C127 0.930 . S
H155 C128 0.929 . S
H156 C133 0.930 . S
H157 C134 0.929 . S
H158 C136 0.930 . S
H159 C137 0.929 . S
Nd160 C162 2.836 . S
Nd160 O180 2.500 . S
Nd160 O181 2.492 . S
Nd160 O182 2.487 . S
Nd160 O183 2.682 . S
Nd160 O184 2.410 . S
Nd160 O189 2.414 . S
Nd160 O191 2.424 . S
Nd161 C171 2.836 . S
Nd161 O183 2.414 . S
Nd161 O185 2.424 . S
Nd161 O186 2.500 . S
Nd161 O187 2.492 . S
Nd161 O188 2.487 . S
Nd161 O189 2.682 . S
Nd161 O190 2.410 . S
C162 Nd160 2.836 . S
C162 C163 1.498 . S
C162 O180 1.258 . S
C162 O181 1.239 . S
C163 C162 1.498 . S
C163 C164 1.366 . S
C163 C168 1.407 . S
C164 C163 1.366 . S
C164 C165 1.392 . S
C164 H192 0.930 . S
C165 C164 1.392 . S
C165 C166 1.398 . S
C165 H193 0.929 . S
C166 C165 1.398 . S
C166 C167 1.352 . S
C167 C166 1.352 . S
C167 C168 1.384 . S
C167 H194 0.930 . S
C168 C163 1.407 . S
C168 C167 1.384 . S
C168 H195 0.929 . S
C169 O182 1.241 . S
C169 O183 1.273 . S
C170 O184 1.251 . S
C170 O185 1.268 . S
C171 Nd161 2.836 . S
C171 C172 1.498 . S
C171 O186 1.258 . S
C171 O187 1.239 . S
C172 C171 1.498 . S
C172 C173 1.366 . S
C172 C177 1.407 . S
C173 C172 1.366 . S
C173 C174 1.392 . S
C173 H196 0.930 . S
C174 C173 1.392 . S
C174 C175 1.398 . S
C174 H197 0.929 . S
C175 C174 1.398 . S
C175 C176 1.352 . S
C176 C175 1.352 . S
C176 C177 1.384 . S
C176 H198 0.930 . S
C177 C172 1.407 . S
C177 C176 1.384 . S
C177 H199 0.929 . S
C178 O188 1.241 . S
C178 O189 1.273 . S
C179 O190 1.251 . S
C179 O191 1.268 . S
O180 Nd160 2.500 . S
O180 C162 1.258 . S
O181 Nd160 2.492 . S
O181 C162 1.239 . S
O182 Nd160 2.487 . S
O182 C169 1.241 . S
O183 Nd160 2.682 . S
O183 Nd161 2.414 . S
O183 C169 1.273 . S
O184 Nd160 2.410 . S
O184 C170 1.251 . S
O185 Nd161 2.424 . S
O185 C170 1.268 . S
O186 Nd161 2.500 . S
O186 C171 1.258 . S
O187 Nd161 2.492 . S
O187 C171 1.239 . S
O188 Nd161 2.487 . S
O188 C178 1.241 . S
O189 Nd160 2.414 . S
O189 Nd161 2.682 . S
O189 C178 1.273 . S
O190 Nd161 2.410 . S
O190 C179 1.251 . S
O191 Nd160 2.424 . S
O191 C179 1.268 . S
H192 C164 0.930 . S
H193 C165 0.929 . S
H194 C167 0.930 . S
H195 C168 0.929 . S
H196 C173 0.930 . S
H197 C174 0.929 . S
H198 C176 0.930 . S
H199 C177 0.929 . S
Nd200 C202 2.836 . S
Nd200 O220 2.500 . S
Nd200 O221 2.492 . S
Nd200 O222 2.487 . S
Nd200 O223 2.682 . S
Nd200 O224 2.410 . S
Nd200 O229 2.414 . S
Nd200 O231 2.424 . S
Nd201 C211 2.836 . S
Nd201 O223 2.414 . S
Nd201 O225 2.424 . S
Nd201 O226 2.500 . S
Nd201 O227 2.492 . S
Nd201 O228 2.487 . S
Nd201 O229 2.682 . S
Nd201 O230 2.410 . S
C202 Nd200 2.836 . S
C202 C203 1.498 . S
C202 O220 1.258 . S
C202 O221 1.239 . S
C203 C202 1.498 . S
C203 C204 1.366 . S
C203 C208 1.407 . S
C204 C203 1.366 . S
C204 C205 1.392 . S
C204 H232 0.930 . S
C205 C204 1.392 . S
C205 C206 1.398 . S
C205 H233 0.929 . S
C206 C205 1.398 . S
C206 C207 1.352 . S
C207 C206 1.352 . S
C207 C208 1.384 . S
C207 H234 0.930 . S
C208 C203 1.407 . S
C208 C207 1.384 . S
C208 H235 0.929 . S
C209 O222 1.241 . S
C209 O223 1.273 . S
C210 O224 1.251 . S
C210 O225 1.268 . S
C211 Nd201 2.836 . S
C211 C212 1.498 . S
C211 O226 1.258 . S
C211 O227 1.239 . S
C212 C211 1.498 . S
C212 C213 1.366 . S
C212 C217 1.407 . S
C213 C212 1.366 . S
C213 C214 1.392 . S
C213 H236 0.930 . S
C214 C213 1.392 . S
C214 C215 1.398 . S
C214 H237 0.929 . S
C215 C214 1.398 . S
C215 C216 1.352 . S
C216 C215 1.352 . S
C216 C217 1.384 . S
C216 H238 0.930 . S
C217 C212 1.407 . S
C217 C216 1.384 . S
C217 H239 0.929 . S
C218 O228 1.241 . S
C218 O229 1.273 . S
C219 O230 1.251 . S
C219 O231 1.268 . S
O220 Nd200 2.500 . S
O220 C202 1.258 . S
O221 Nd200 2.492 . S
O221 C202 1.239 . S
O222 Nd200 2.487 . S
O222 C209 1.241 . S
O223 Nd200 2.682 . S
O223 Nd201 2.414 . S
O223 C209 1.273 . S
O224 Nd200 2.410 . S
O224 C210 1.251 . S
O225 Nd201 2.424 . S
O225 C210 1.268 . S
O226 Nd201 2.500 . S
O226 C211 1.258 . S
O227 Nd201 2.492 . S
O227 C211 1.239 . S
O228 Nd201 2.487 . S
O228 C218 1.241 . S
O229 Nd200 2.414 . S
O229 Nd201 2.682 . S
O229 C218 1.273 . S
O230 Nd201 2.410 . S
O230 C219 1.251 . S
O231 Nd200 2.424 . S
O231 C219 1.268 . S
H232 C204 0.930 . S
H233 C205 0.929 . S
H234 C207 0.930 . S
H235 C208 0.929 . S
H236 C213 0.930 . S
H237 C214 0.929 . S
H238 C216 0.930 . S
H239 C217 0.929 . S
Nd240 C242 2.836 . S
Nd240 O260 2.500 . S
Nd240 O261 2.492 . S
Nd240 O262 2.487 . S
Nd240 O263 2.682 . S
Nd240 O264 2.410 . S
Nd240 O269 2.414 . S
Nd240 O271 2.424 . S
Nd241 C251 2.836 . S
Nd241 O263 2.414 . S
Nd241 O265 2.424 . S
Nd241 O266 2.500 . S
Nd241 O267 2.492 . S
Nd241 O268 2.487 . S
Nd241 O269 2.682 . S
Nd241 O270 2.410 . S
C242 Nd240 2.836 . S
C242 C243 1.498 . S
C242 O260 1.258 . S
C242 O261 1.239 . S
C243 C242 1.498 . S
C243 C244 1.366 . S
C243 C248 1.407 . S
C244 C243 1.366 . S
C244 C245 1.392 . S
C244 H272 0.930 . S
C245 C244 1.392 . S
C245 C246 1.398 . S
C245 H273 0.929 . S
C246 C245 1.398 . S
C246 C247 1.352 . S
C247 C246 1.352 . S
C247 C248 1.384 . S
C247 H274 0.930 . S
C248 C243 1.407 . S
C248 C247 1.384 . S
C248 H275 0.929 . S
C249 O262 1.241 . S
C249 O263 1.273 . S
C250 O264 1.251 . S
C250 O265 1.268 . S
C251 Nd241 2.836 . S
C251 C252 1.498 . S
C251 O266 1.258 . S
C251 O267 1.239 . S
C252 C251 1.498 . S
C252 C253 1.366 . S
C252 C257 1.407 . S
C253 C252 1.366 . S
C253 C254 1.392 . S
C253 H276 0.930 . S
C254 C253 1.392 . S
C254 C255 1.398 . S
C254 H277 0.929 . S
C255 C254 1.398 . S
C255 C256 1.352 . S
C256 C255 1.352 . S
C256 C257 1.384 . S
C256 H278 0.930 . S
C257 C252 1.407 . S
C257 C256 1.384 . S
C257 H279 0.929 . S
C258 O268 1.241 . S
C258 O269 1.273 . S
C259 O270 1.251 . S
C259 O271 1.268 . S
O260 Nd240 2.500 . S
O260 C242 1.258 . S
O261 Nd240 2.492 . S
O261 C242 1.239 . S
O262 Nd240 2.487 . S
O262 C249 1.241 . S
O263 Nd240 2.682 . S
O263 Nd241 2.414 . S
O263 C249 1.273 . S
O264 Nd240 2.410 . S
O264 C250 1.251 . S
O265 Nd241 2.424 . S
O265 C250 1.268 . S
O266 Nd241 2.500 . S
O266 C251 1.258 . S
O267 Nd241 2.492 . S
O267 C251 1.239 . S
O268 Nd241 2.487 . S
O268 C258 1.241 . S
O269 Nd240 2.414 . S
O269 Nd241 2.682 . S
O269 C258 1.273 . S
O270 Nd241 2.410 . S
O270 C259 1.251 . S
O271 Nd240 2.424 . S
O271 C259 1.268 . S
H272 C244 0.930 . S
H273 C245 0.929 . S
H274 C247 0.930 . S
H275 C248 0.929 . S
H276 C253 0.930 . S
H277 C254 0.929 . S
H278 C256 0.930 . S
H279 C257 0.929 . S
Nd280 C282 2.836 . S
Nd280 O300 2.500 . S
Nd280 O301 2.492 . S
Nd280 O302 2.487 . S
Nd280 O303 2.682 . S
Nd280 O304 2.410 . S
Nd280 O309 2.414 . S
Nd280 O311 2.424 . S
Nd281 C291 2.836 . S
Nd281 O303 2.414 . S
Nd281 O305 2.424 . S
Nd281 O306 2.500 . S
Nd281 O307 2.492 . S
Nd281 O308 2.487 . S
Nd281 O309 2.682 . S
Nd281 O310 2.410 . S
C282 Nd280 2.836 . S
C282 C283 1.498 . S
C282 O300 1.258 . S
C282 O301 1.239 . S
C283 C282 1.498 . S
C283 C284 1.366 . S
C283 C288 1.407 . S
C284 C283 1.366 . S
C284 C285 1.392 . S
C284 H312 0.930 . S
C285 C284 1.392 . S
C285 C286 1.398 . S
C285 H313 0.929 . S
C286 C285 1.398 . S
C286 C287 1.352 . S
C287 C286 1.352 . S
C287 C288 1.384 . S
C287 H314 0.930 . S
C288 C283 1.407 . S
C288 C287 1.384 . S
C288 H315 0.929 . S
C289 O302 1.241 . S
C289 O303 1.273 . S
C290 O304 1.251 . S
C290 O305 1.268 . S
C291 Nd281 2.836 . S
C291 C292 1.498 . S
C291 O306 1.258 . S
C291 O307 1.239 . S
C292 C291 1.498 . S
C292 C293 1.366 . S
C292 C297 1.407 . S
C293 C292 1.366 . S
C293 C294 1.392 . S
C293 H316 0.930 . S
C294 C293 1.392 . S
C294 C295 1.398 . S
C294 H317 0.929 . S
C295 C294 1.398 . S
C295 C296 1.352 . S
C296 C295 1.352 . S
C296 C297 1.384 . S
C296 H318 0.930 . S
C297 C292 1.407 . S
C297 C296 1.384 . S
C297 H319 0.929 . S
C298 O308 1.241 . S
C298 O309 1.273 . S
C299 O310 1.251 . S
C299 O311 1.268 . S
O300 Nd280 2.500 . S
O300 C282 1.258 . S
O301 Nd280 2.492 . S
O301 C282 1.239 . S
O302 Nd280 2.487 . S
O302 C289 1.241 . S
O303 Nd280 2.682 . S
O303 Nd281 2.414 . S
O303 C289 1.273 . S
O304 Nd280 2.410 . S
O304 C290 1.251 . S
O305 Nd281 2.424 . S
O305 C290 1.268 . S
O306 Nd281 2.500 . S
O306 C291 1.258 . S
O307 Nd281 2.492 . S
O307 C291 1.239 . S
O308 Nd281 2.487 . S
O308 C298 1.241 . S
O309 Nd280 2.414 . S
O309 Nd281 2.682 . S
O309 C298 1.273 . S
O310 Nd281 2.410 . S
O310 C299 1.251 . S
O311 Nd280 2.424 . S
O311 C299 1.268 . S
H312 C284 0.930 . S
H313 C285 0.929 . S
H314 C287 0.930 . S
H315 C288 0.929 . S
H316 C293 0.930 . S
H317 C294 0.929 . S
H318 C296 0.930 . S
H319 C297 0.929 . S
Nd320 C322 2.836 . S
Nd320 O340 2.500 . S
Nd320 O341 2.492 . S
Nd320 O342 2.487 . S
Nd320 O343 2.682 . S
Nd320 O344 2.410 . S
Nd320 O349 2.414 . S
Nd320 O351 2.424 . S
Nd321 C331 2.836 . S
Nd321 O343 2.414 . S
Nd321 O345 2.424 . S
Nd321 O346 2.500 . S
Nd321 O347 2.492 . S
Nd321 O348 2.487 . S
Nd321 O349 2.682 . S
Nd321 O350 2.410 . S
C322 Nd320 2.836 . S
C322 C323 1.498 . S
C322 O340 1.258 . S
C322 O341 1.239 . S
C323 C322 1.498 . S
C323 C324 1.366 . S
C323 C328 1.407 . S
C324 C323 1.366 . S
C324 C325 1.392 . S
C324 H352 0.930 . S
C325 C324 1.392 . S
C325 C326 1.398 . S
C325 H353 0.929 . S
C326 C325 1.398 . S
C326 C327 1.352 . S
C327 C326 1.352 . S
C327 C328 1.384 . S
C327 H354 0.930 . S
C328 C323 1.407 . S
C328 C327 1.384 . S
C328 H355 0.929 . S
C329 O342 1.241 . S
C329 O343 1.273 . S
C330 O344 1.251 . S
C330 O345 1.268 . S
C331 Nd321 2.836 . S
C331 C332 1.498 . S
C331 O346 1.258 . S
C331 O347 1.239 . S
C332 C331 1.498 . S
C332 C333 1.366 . S
C332 C337 1.407 . S
C333 C332 1.366 . S
C333 C334 1.392 . S
C333 H356 0.930 . S
C334 C333 1.392 . S
C334 C335 1.398 . S
C334 H357 0.929 . S
C335 C334 1.398 . S
C335 C336 1.352 . S
C336 C335 1.352 . S
C336 C337 1.384 . S
C336 H358 0.930 . S
C337 C332 1.407 . S
C337 C336 1.384 . S
C337 H359 0.929 . S
C338 O348 1.241 . S
C338 O349 1.273 . S
C339 O350 1.251 . S
C339 O351 1.268 . S
O340 Nd320 2.500 . S
O340 C322 1.258 . S
O341 Nd320 2.492 . S
O341 C322 1.239 . S
O342 Nd320 2.487 . S
O342 C329 1.241 . S
O343 Nd320 2.682 . S
O343 Nd321 2.414 . S
O343 C329 1.273 . S
O344 Nd320 2.410 . S
O344 C330 1.251 . S
O345 Nd321 2.424 . S
O345 C330 1.268 . S
O346 Nd321 2.500 . S
O346 C331 1.258 . S
O347 Nd321 2.492 . S
O347 C331 1.239 . S
O348 Nd321 2.487 . S
O348 C338 1.241 . S
O349 Nd320 2.414 . S
O349 Nd321 2.682 . S
O349 C338 1.273 . S
O350 Nd321 2.410 . S
O350 C339 1.251 . S
O351 Nd320 2.424 . S
O351 C339 1.268 . S
H352 C324 0.930 . S
H353 C325 0.929 . S
H354 C327 0.930 . S
H355 C328 0.929 . S
H356 C333 0.930 . S
H357 C334 0.929 . S
H358 C336 0.930 . S
H359 C337 0.929 . S
H360 C372 0.930 . S
H361 C374 0.930 . S
H362 C375 0.930 1_554 S
H363 C379 0.959 . S
H364 C379 0.959 . S
H365 C379 0.961 . S
H366 C380 0.960 . S
H367 C380 0.961 . S
H368 C380 0.959 . S
H369 C383 0.929 . S
H370 C384 0.931 . S
H371 C386 0.930 . S
C372 H360 0.930 . S
C372 C373 1.399 . S
C372 C377 1.399 . S
C373 C372 1.399 . S
C373 C374 1.376 1_556 S
C374 H361 0.930 . S
C374 C373 1.376 1_554 S
C374 C375 1.388 1_554 S
C375 H362 0.930 1_556 S
C375 C374 1.388 1_556 S
C375 C376 1.390 . S
C376 C375 1.390 . S
C376 C377 1.394 . S
C376 C382 1.465 . S
C377 C372 1.399 . S
C377 C376 1.394 . S
C377 C378 1.516 . S
C378 C377 1.516 . S
C378 C379 1.502 . S
C378 C380 1.561 . S
C378 C381 1.526 . S
C379 H363 0.959 . S
C379 H364 0.959 . S
C379 H365 0.961 . S
C379 C378 1.502 . S
C380 H366 0.960 . S
C380 H367 0.961 . S
C380 H368 0.959 . S
C380 C378 1.561 . S
C381 C378 1.526 . S
C381 C382 1.396 . S
C381 C386 1.390 . S
C382 C376 1.465 . S
C382 C381 1.396 . S
C382 C383 1.399 . S
C383 H369 0.929 . S
C383 C382 1.399 . S
C383 C384 1.385 . S
C384 H370 0.931 . S
C384 C383 1.385 . S
C384 C385 1.389 . S
C385 C384 1.389 . S
C385 C386 1.387 . S
C386 H371 0.930 . S
C386 C381 1.390 . S
C386 C385 1.387 . S
H387 C399 0.930 . S
H388 C401 0.930 1_554 S
H389 C402 0.930 . S
H390 C406 0.959 . S
H391 C406 0.959 . S
H392 C406 0.961 . S
H393 C407 0.960 . S
H394 C407 0.961 . S
H395 C407 0.959 . S
H396 C410 0.929 . S
H397 C411 0.931 . S
H398 C413 0.930 . S
C399 H387 0.930 . S
C399 C400 1.399 . S
C399 C404 1.399 . S
C400 C399 1.399 . S
C400 C401 1.376 . S
C401 H388 0.930 1_556 S
C401 C400 1.376 . S
C401 C402 1.388 . S
C402 H389 0.930 . S
C402 C401 1.388 . S
C402 C403 1.390 . S
C403 C402 1.390 . S
C403 C404 1.394 . S
C403 C409 1.465 . S
C404 C399 1.399 . S
C404 C403 1.394 . S
C404 C405 1.516 . S
C405 C404 1.516 . S
C405 C406 1.502 . S
C405 C407 1.561 . S
C405 C408 1.526 . S
C406 H390 0.959 . S
C406 H391 0.959 . S
C406 H392 0.961 . S
C406 C405 1.502 . S
C407 H393 0.960 . S
C407 H394 0.961 . S
C407 H395 0.959 . S
C407 C405 1.561 . S
C408 C405 1.526 . S
C408 C409 1.396 . S
C408 C413 1.390 . S
C409 C403 1.465 . S
C409 C408 1.396 . S
C409 C410 1.399 . S
C410 H396 0.929 . S
C410 C409 1.399 . S
C410 C411 1.385 . S
C411 H397 0.931 . S
C411 C410 1.385 . S
C411 C412 1.389 . S
C412 C411 1.389 . S
C412 C413 1.387 . S
C413 H398 0.930 . S
C413 C408 1.390 . S
C413 C412 1.387 . S
H414 C426 0.930 1_554 S
H415 C428 0.930 . S
H416 C429 0.930 . S
H417 C433 0.959 1_556 S
H418 C433 0.959 . S
H419 C433 0.961 . S
H420 C434 0.960 1_554 S
H421 C434 0.961 1_554 S
H422 C434 0.959 . S
H423 C437 0.929 . S
H424 C438 0.931 . S
H425 C440 0.930 . S
C426 H414 0.930 1_556 S
C426 C427 1.399 . S
C426 C431 1.399 . S
C427 C426 1.399 . S
C427 C428 1.376 . S
C428 H415 0.930 . S
C428 C427 1.376 . S
C428 C429 1.388 . S
C429 H416 0.930 . S
C429 C428 1.388 . S
C429 C430 1.390 . S
C430 C429 1.390 . S
C430 C431 1.394 . S
C430 C436 1.465 . S
C431 C426 1.399 . S
C431 C430 1.394 . S
C431 C432 1.516 . S
C432 C431 1.516 . S
C432 C433 1.502 1_556 S
C432 C434 1.561 . S
C432 C435 1.526 . S
C433 H417 0.959 1_554 S
C433 H418 0.959 . S
C433 H419 0.961 . S
C433 C432 1.502 1_554 S
C434 H420 0.960 1_556 S
C434 H421 0.961 1_556 S
C434 H422 0.959 . S
C434 C432 1.561 . S
C435 C432 1.526 . S
C435 C436 1.396 . S
C435 C440 1.390 . S
C436 C430 1.465 . S
C436 C435 1.396 . S
C436 C437 1.399 . S
C437 H423 0.929 . S
C437 C436 1.399 . S
C437 C438 1.385 . S
C438 H424 0.931 . S
C438 C437 1.385 . S
C438 C439 1.389 . S
C439 C438 1.389 . S
C439 C440 1.387 . S
C440 H425 0.930 . S
C440 C435 1.390 . S
C440 C439 1.387 . S
H441 C453 0.930 . S
H442 C455 0.930 . S
H443 C456 0.930 . S
H444 C460 0.959 . S
H445 C460 0.959 . S
H446 C460 0.961 . S
H447 C461 0.960 . S
H448 C461 0.961 . S
H449 C461 0.959 . S
H450 C464 0.929 . S
H451 C465 0.931 . S
H452 C467 0.930 . S
C453 H441 0.930 . S
C453 C454 1.399 . S
C453 C458 1.399 . S
C454 C453 1.399 . S
C454 C455 1.376 . S
C455 H442 0.930 . S
C455 C454 1.376 . S
C455 C456 1.388 . S
C456 H443 0.930 . S
C456 C455 1.388 . S
C456 C457 1.390 . S
C457 C456 1.390 . S
C457 C458 1.394 . S
C457 C463 1.465 . S
C458 C453 1.399 . S
C458 C457 1.394 . S
C458 C459 1.516 . S
C459 C458 1.516 . S
C459 C460 1.502 . S
C459 C461 1.561 . S
C459 C462 1.526 . S
C460 H444 0.959 . S
C460 H445 0.959 . S
C460 H446 0.961 . S
C460 C459 1.502 . S
C461 H447 0.960 . S
C461 H448 0.961 . S
C461 H449 0.959 . S
C461 C459 1.561 . S
C462 C459 1.526 . S
C462 C463 1.396 . S
C462 C467 1.390 . S
C463 C457 1.465 . S
C463 C462 1.396 . S
C463 C464 1.399 . S
C464 H450 0.929 . S
C464 C463 1.399 . S
C464 C465 1.385 . S
C465 H451 0.931 . S
C465 C464 1.385 . S
C465 C466 1.389 . S
C466 C465 1.389 . S
C466 C467 1.387 . S
C467 H452 0.930 . S
C467 C462 1.390 . S
C467 C466 1.387 . S
H468 C480 0.930 . S
H469 C482 0.930 . S
H470 C483 0.930 . S
H471 C487 0.959 . S
H472 C487 0.959 . S
H473 C487 0.961 . S
H474 C488 0.960 . S
H475 C488 0.961 . S
H476 C488 0.959 . S
H477 C491 0.929 1_556 S
H478 C492 0.931 . S
H479 C494 0.930 . S
C480 H468 0.930 . S
C480 C481 1.399 . S
C480 C485 1.399 . S
C481 C480 1.399 . S
C481 C482 1.376 . S
C482 H469 0.930 . S
C482 C481 1.376 . S
C482 C483 1.388 . S
C483 H470 0.930 . S
C483 C482 1.388 . S
C483 C484 1.390 . S
C484 C483 1.390 . S
C484 C485 1.394 . S
C484 C490 1.465 . S
C485 C480 1.399 . S
C485 C484 1.394 . S
C485 C486 1.516 . S
C486 C485 1.516 . S
C486 C487 1.502 . S
C486 C488 1.561 . S
C486 C489 1.526 . S
C487 H471 0.959 . S
C487 H472 0.959 . S
C487 H473 0.961 . S
C487 C486 1.502 . S
C488 H474 0.960 . S
C488 H475 0.961 . S
C488 H476 0.959 . S
C488 C486 1.561 . S
C489 C486 1.526 . S
C489 C490 1.396 . S
C489 C494 1.390 . S
C490 C484 1.465 . S
C490 C489 1.396 . S
C490 C491 1.399 . S
C491 H477 0.929 1_554 S
C491 C490 1.399 . S
C491 C492 1.385 1_554 S
C492 H478 0.931 . S
C492 C491 1.385 1_556 S
C492 C493 1.389 1_556 S
C493 C492 1.389 1_554 S
C493 C494 1.387 . S
C494 H479 0.930 . S
C494 C489 1.390 . S
C494 C493 1.387 . S
H495 C507 0.930 . S
H496 C509 0.930 1_556 S
H497 C510 0.930 1_556 S
H498 C514 0.959 . S
H499 C514 0.959 . S
H500 C514 0.961 . S
H501 C515 0.960 . S
H502 C515 0.961 . S
H503 C515 0.959 . S
H504 C518 0.929 . S
H505 C519 0.931 . S
H506 C521 0.930 . S
C507 H495 0.930 . S
C507 C508 1.399 . S
C507 C512 1.399 . S
C508 C507 1.399 . S
C508 C509 1.376 . S
C509 H496 0.930 1_554 S
C509 C508 1.376 . S
C509 C510 1.388 . S
C510 H497 0.930 1_554 S
C510 C509 1.388 . S
C510 C511 1.390 . S
C511 C510 1.390 . S
C511 C512 1.394 . S
C511 C517 1.465 . S
C512 C507 1.399 . S
C512 C511 1.394 . S
C512 C513 1.516 . S
C513 C512 1.516 . S
C513 C514 1.502 . S
C513 C515 1.561 . S
C513 C516 1.526 . S
C514 H498 0.959 . S
C514 H499 0.959 . S
C514 H500 0.961 . S
C514 C513 1.502 . S
C515 H501 0.960 . S
C515 H502 0.961 . S
C515 H503 0.959 . S
C515 C513 1.561 . S
C516 C513 1.526 . S
C516 C517 1.396 . S
C516 C521 1.390 . S
C517 C511 1.465 . S
C517 C516 1.396 . S
C517 C518 1.399 . S
C518 H504 0.929 . S
C518 C517 1.399 . S
C518 C519 1.385 . S
C519 H505 0.931 . S
C519 C518 1.385 . S
C519 C520 1.389 . S
C520 C519 1.389 . S
C520 C521 1.387 . S
C521 H506 0.930 . S
C521 C516 1.390 . S
C521 C520 1.387 . S
H522 C534 0.930 . S
H523 C536 0.930 . S
H524 C537 0.930 . S
H525 C541 0.959 . S
H526 C541 0.959 . S
H527 C541 0.961 . S
H528 C542 0.960 . S
H529 C542 0.961 . S
H530 C542 0.959 . S
H531 C545 0.929 . S
H532 C546 0.931 . S
H533 C548 0.930 . S
C534 H522 0.930 . S
C534 C535 1.399 . S
C534 C539 1.399 1_455 S
C535 C534 1.399 . S
C535 C536 1.376 . S
C536 H523 0.930 . S
C536 C535 1.376 . S
C536 C537 1.388 1_455 S
C537 H524 0.930 . S
C537 C536 1.388 1_655 S
C537 C538 1.390 . S
C538 C537 1.390 . S
C538 C539 1.394 . S
C538 C544 1.465 . S
C539 C534 1.399 1_655 S
C539 C538 1.394 . S
C539 C540 1.516 . S
C540 C539 1.516 . S
C540 C541 1.502 . S
C540 C542 1.561 . S
C540 C543 1.526 . S
C541 H525 0.959 . S
C541 H526 0.959 . S
C541 H527 0.961 . S
C541 C540 1.502 . S
C542 H528 0.960 . S
C542 H529 0.961 . S
C542 H530 0.959 . S
C542 C540 1.561 . S
C543 C540 1.526 . S
C543 C544 1.396 . S
C543 C548 1.390 . S
C544 C538 1.465 . S
C544 C543 1.396 . S
C544 C545 1.399 . S
C545 H531 0.929 . S
C545 C544 1.399 . S
C545 C546 1.385 . S
C546 H532 0.931 . S
C546 C545 1.385 . S
C546 C547 1.389 . S
C547 C546 1.389 . S
C547 C548 1.387 . S
C548 H533 0.930 . S
C548 C543 1.390 . S
C548 C547 1.387 . S
H549 C561 0.930 . S
H550 C563 0.930 . S
H551 C564 0.930 . S
H552 C568 0.959 . S
H553 C568 0.959 . S
H554 C568 0.961 . S
H555 C569 0.960 . S
H556 C569 0.961 . S
H557 C569 0.959 . S
H558 C572 0.929 . S
H559 C573 0.931 . S
H560 C575 0.930 . S
C561 H549 0.930 . S
C561 C562 1.399 . S
C561 C566 1.399 . S
C562 C561 1.399 . S
C562 C563 1.376 . S
C563 H550 0.930 . S
C563 C562 1.376 . S
C563 C564 1.388 . S
C564 H551 0.930 . S
C564 C563 1.388 . S
C564 C565 1.390 . S
C565 C564 1.390 . S
C565 C566 1.394 . S
C565 C571 1.465 . S
C566 C561 1.399 . S
C566 C565 1.394 . S
C566 C567 1.516 . S
C567 C566 1.516 . S
C567 C568 1.502 . S
C567 C569 1.561 . S
C567 C570 1.526 . S
C568 H552 0.959 . S
C568 H553 0.959 . S
C568 H554 0.961 . S
C568 C567 1.502 . S
C569 H555 0.960 . S
C569 H556 0.961 . S
C569 H557 0.959 . S
C569 C567 1.561 . S
C570 C567 1.526 . S
C570 C571 1.396 . S
C570 C575 1.390 . S
C571 C565 1.465 . S
C571 C570 1.396 . S
C571 C572 1.399 . S
C572 H558 0.929 . S
C572 C571 1.399 . S
C572 C573 1.385 . S
C573 H559 0.931 . S
C573 C572 1.385 . S
C573 C574 1.389 . S
C574 C573 1.389 . S
C574 C575 1.387 . S
C575 H560 0.930 . S
C575 C570 1.390 . S
C575 C574 1.387 . S
H576 C588 0.930 . S
H577 C590 0.930 . S
H578 C591 0.930 . S
H579 C595 0.959 . S
H580 C595 0.959 . S
H581 C595 0.961 . S
H582 C596 0.960 . S
H583 C596 0.961 . S
H584 C596 0.959 . S
H585 C599 0.929 . S
H586 C600 0.931 1_565 S
H587 C602 0.930 . S
C588 H576 0.930 . S
C588 C589 1.399 . S
C588 C593 1.399 . S
C589 C588 1.399 . S
C589 C590 1.376 . S
C590 H577 0.930 . S
C590 C589 1.376 . S
C590 C591 1.388 . S
C591 H578 0.930 . S
C591 C590 1.388 . S
C591 C592 1.390 . S
C592 C591 1.390 . S
C592 C593 1.394 . S
C592 C598 1.465 . S
C593 C588 1.399 . S
C593 C592 1.394 . S
C593 C594 1.516 . S
C594 C593 1.516 . S
C594 C595 1.502 . S
C594 C596 1.561 . S
C594 C597 1.526 . S
C595 H579 0.959 . S
C595 H580 0.959 . S
C595 H581 0.961 . S
C595 C594 1.502 . S
C596 H582 0.960 . S
C596 H583 0.961 . S
C596 H584 0.959 . S
C596 C594 1.561 . S
C597 C594 1.526 . S
C597 C598 1.396 . S
C597 C602 1.390 . S
C598 C592 1.465 . S
C598 C597 1.396 . S
C598 C599 1.399 . S
C599 H585 0.929 . S
C599 C598 1.399 . S
C599 C600 1.385 . S
C600 H586 0.931 1_545 S
C600 C599 1.385 . S
C600 C601 1.389 . S
C601 C600 1.389 . S
C601 C602 1.387 . S
C602 H587 0.930 . S
C602 C597 1.390 . S
C602 C601 1.387 . S
H603 C615 0.930 . S
H604 C617 0.930 . S
H605 C618 0.930 . S
H606 C622 0.959 . S
H607 C622 0.959 . S
H608 C622 0.961 . S
H609 C623 0.960 . S
H610 C623 0.961 . S
H611 C623 0.959 . S
H612 C626 0.929 . S
H613 C627 0.931 . S
H614 C629 0.930 . S
C615 H603 0.930 . S
C615 C616 1.399 1_556 S
C615 C620 1.399 . S
C616 C615 1.399 1_554 S
C616 C617 1.376 . S
C617 H604 0.930 . S
C617 C616 1.376 . S
C617 C618 1.388 . S
C618 H605 0.930 . S
C618 C617 1.388 . S
C618 C619 1.390 . S
C619 C618 1.390 . S
C619 C620 1.394 1_554 S
C619 C625 1.465 . S
C620 C615 1.399 . S
C620 C619 1.394 1_556 S
C620 C621 1.516 . S
C621 C620 1.516 . S
C621 C622 1.502 . S
C621 C623 1.561 . S
C621 C624 1.526 . S
C622 H606 0.959 . S
C622 H607 0.959 . S
C622 H608 0.961 . S
C622 C621 1.502 . S
C623 H609 0.960 . S
C623 H610 0.961 . S
C623 H611 0.959 . S
C623 C621 1.561 . S
C624 C621 1.526 . S
C624 C625 1.396 1_556 S
C624 C629 1.390 . S
C625 C619 1.465 . S
C625 C624 1.396 1_554 S
C625 C626 1.399 . S
C626 H612 0.929 . S
C626 C625 1.399 . S
C626 C627 1.385 . S
C627 H613 0.931 . S
C627 C626 1.385 . S
C627 C628 1.389 1_554 S
C628 C627 1.389 1_556 S
C628 C629 1.387 . S
C629 H614 0.930 . S
C629 C624 1.390 . S
C629 C628 1.387 . S
H630 C642 0.930 . S
H631 C644 0.930 . S
H632 C645 0.930 . S
H633 C649 0.959 . S
H634 C649 0.959 . S
H635 C649 0.961 . S
H636 C650 0.960 . S
H637 C650 0.961 . S
H638 C650 0.959 . S
H639 C653 0.929 . S
H640 C654 0.931 . S
H641 C656 0.930 . S
C642 H630 0.930 . S
C642 C643 1.399 . S
C642 C647 1.399 . S
C643 C642 1.399 . S
C643 C644 1.376 1_556 S
C644 H631 0.930 . S
C644 C643 1.376 1_554 S
C644 C645 1.388 . S
C645 H632 0.930 . S
C645 C644 1.388 . S
C645 C646 1.390 . S
C646 C645 1.390 . S
C646 C647 1.394 1_554 S
C646 C652 1.465 . S
C647 C642 1.399 . S
C647 C646 1.394 1_556 S
C647 C648 1.516 . S
C648 C647 1.516 . S
C648 C649 1.502 . S
C648 C650 1.561 . S
C648 C651 1.526 . S
C649 H633 0.959 . S
C649 H634 0.959 . S
C649 H635 0.961 . S
C649 C648 1.502 . S
C650 H636 0.960 . S
C650 H637 0.961 . S
C650 H638 0.959 . S
C650 C648 1.561 . S
C651 C648 1.526 . S
C651 C652 1.396 1_556 S
C651 C656 1.390 1_565 S
C652 C646 1.465 . S
C652 C651 1.396 1_554 S
C652 C653 1.399 . S
C653 H639 0.929 . S
C653 C652 1.399 . S
C653 C654 1.385 1_565 S
C654 H640 0.931 . S
C654 C653 1.385 1_545 S
C654 C655 1.389 . S
C655 C654 1.389 . S
C655 C656 1.387 1_554 S
C656 H641 0.930 . S
C656 C651 1.390 1_545 S
C656 C655 1.387 1_556 S
H657 C669 0.930 . S
H658 C671 0.930 . S
H659 C672 0.930 . S
H660 C676 0.959 . S
H661 C676 0.959 . S
H662 C676 0.961 . S
H663 C677 0.960 . S
H664 C677 0.961 . S
H665 C677 0.959 . S
H666 C680 0.929 . S
H667 C681 0.908 1_545 S
H668 C683 0.930 . S
C669 H657 0.930 . S
C669 C670 1.399 1_554 S
C669 C674 1.399 . S
C670 C669 1.399 1_556 S
C670 C671 1.376 . S
C671 H658 0.930 . S
C671 C670 1.376 . S
C671 C672 1.388 . S
C672 H659 0.930 . S
C672 C671 1.388 . S
C672 C673 1.390 . S
C673 C672 1.390 . S
C673 C674 1.394 1_556 S
C673 C679 1.465 . S
C674 C669 1.399 . S
C674 C673 1.394 1_554 S
C674 C675 1.516 . S
C675 C674 1.516 . S
C675 C676 1.502 . S
C675 C677 1.561 . S
C675 C678 1.526 . S
C676 H660 0.959 . S
C676 H661 0.959 . S
C676 H662 0.961 . S
C676 C675 1.502 . S
C677 H663 0.960 . S
C677 H664 0.961 . S
C677 H665 0.959 . S
C677 C675 1.561 . S
C678 C675 1.526 . S
C678 C679 1.396 1_554 S
C678 C683 1.390 . S
C679 C673 1.465 . S
C679 C678 1.396 1_556 S
C679 C680 1.399 . S
C680 H666 0.929 . S
C680 C679 1.399 . S
C680 C681 1.385 . S
C681 H667 0.908 1_565 S
C681 C680 1.385 . S
C681 C682 1.389 . S
C682 C681 1.389 . S
C682 C683 1.387 1_556 S
C683 H668 0.930 . S
C683 C678 1.390 . S
C683 C682 1.387 1_554 S
H684 C696 0.930 . S
H685 C698 0.930 . S
H686 C699 0.930 . S
H687 C703 0.959 . S
H688 C703 0.959 . S
H689 C703 0.961 . S
H690 C704 0.960 . S
H691 C704 0.961 . S
H692 C704 0.959 . S
H693 C707 0.929 . S
H694 C708 0.931 . S
H695 C710 0.930 . S
C696 H684 0.930 . S
C696 C697 1.399 . S
C696 C701 1.399 . S
C697 C696 1.399 . S
C697 C698 1.376 . S
C698 H685 0.930 . S
C698 C697 1.376 . S
C698 C699 1.388 . S
C699 H686 0.930 . S
C699 C698 1.388 . S
C699 C700 1.390 . S
C700 C699 1.390 . S
C700 C701 1.394 . S
C700 C706 1.465 . S
C701 C696 1.399 . S
C701 C700 1.394 . S
C701 C702 1.516 . S
C702 C701 1.516 . S
C702 C703 1.502 . S
C702 C704 1.561 . S
C702 C705 1.526 . S
C703 H687 0.959 . S
C703 H688 0.959 . S
C703 H689 0.961 . S
C703 C702 1.502 . S
C704 H690 0.960 . S
C704 H691 0.961 . S
C704 H692 0.959 . S
C704 C702 1.561 . S
C705 C702 1.526 . S
C705 C706 1.396 . S
C705 C710 1.390 . S
C706 C700 1.465 . S
C706 C705 1.396 . S
C706 C707 1.399 . S
C707 H693 0.929 . S
C707 C706 1.399 . S
C707 C708 1.385 . S
C708 H694 0.931 . S
C708 C707 1.385 . S
C708 C709 1.389 . S
C709 C708 1.389 . S
C709 C710 1.387 . S
C710 H695 0.930 . S
C710 C705 1.390 . S
C710 C709 1.387 . S
H711 C723 0.930 . S
H712 C725 0.930 . S
H713 C726 0.930 . S
H714 C730 0.959 . S
H715 C730 0.959 . S
H716 C730 0.961 . S
H717 C731 0.960 . S
H718 C731 0.961 . S
H719 C731 0.959 . S
H720 C734 0.929 . S
H721 C735 0.931 . S
H722 C737 0.930 . S
C723 H711 0.930 . S
C723 C724 1.399 . S
C723 C728 1.399 . S
C724 C723 1.399 . S
C724 C725 1.376 . S
C725 H712 0.930 . S
C725 C724 1.376 . S
C725 C726 1.388 . S
C726 H713 0.930 . S
C726 C725 1.388 . S
C726 C727 1.390 . S
C727 C726 1.390 . S
C727 C728 1.394 . S
C727 C733 1.465 . S
C728 C723 1.399 . S
C728 C727 1.394 . S
C728 C729 1.516 . S
C729 C728 1.516 . S
C729 C730 1.502 . S
C729 C731 1.561 . S
C729 C732 1.526 . S
C730 H714 0.959 . S
C730 H715 0.959 . S
C730 H716 0.961 . S
C730 C729 1.502 . S
C731 H717 0.960 . S
C731 H718 0.961 . S
C731 H719 0.959 . S
C731 C729 1.561 . S
C732 C729 1.526 . S
C732 C733 1.396 . S
C732 C737 1.390 . S
C733 C727 1.465 . S
C733 C732 1.396 . S
C733 C734 1.399 . S
C734 H720 0.929 . S
C734 C733 1.399 . S
C734 C735 1.385 . S
C735 H721 0.931 . S
C735 C734 1.385 . S
C735 C736 1.389 . S
C736 C735 1.389 . S
C736 C737 1.387 . S
C737 H722 0.930 . S
C737 C732 1.390 . S
C737 C736 1.387 . S
H738 C750 0.930 . S
H739 C752 0.930 . S
H740 C753 0.930 . S
H741 C757 0.959 . S
H742 C757 0.959 . S
H743 C757 0.961 . S
H744 C758 0.960 . S
H745 C758 0.961 . S
H746 C758 0.959 . S
H747 C761 0.929 . S
H748 C762 0.931 . S
H749 C764 0.930 . S
C750 H738 0.930 . S
C750 C751 1.399 . S
C750 C755 1.399 . S
C751 C750 1.399 . S
C751 C752 1.376 . S
C752 H739 0.930 . S
C752 C751 1.376 . S
C752 C753 1.388 . S
C753 H740 0.930 . S
C753 C752 1.388 . S
C753 C754 1.390 . S
C754 C753 1.390 . S
C754 C755 1.394 . S
C754 C760 1.465 . S
C755 C750 1.399 . S
C755 C754 1.394 . S
C755 C756 1.516 . S
C756 C755 1.516 . S
C756 C757 1.502 . S
C756 C758 1.561 . S
C756 C759 1.526 . S
C757 H741 0.959 . S
C757 H742 0.959 . S
C757 H743 0.961 . S
C757 C756 1.502 . S
C758 H744 0.960 . S
C758 H745 0.961 . S
C758 H746 0.959 . S
C758 C756 1.561 . S
C759 C756 1.526 . S
C759 C760 1.396 . S
C759 C764 1.390 . S
C760 C754 1.465 . S
C760 C759 1.396 . S
C760 C761 1.399 . S
C761 H747 0.929 . S
C761 C760 1.399 . S
C761 C762 1.385 . S
C762 H748 0.931 . S
C762 C761 1.385 . S
C762 C763 1.389 . S
C763 C762 1.389 . S
C763 C764 1.387 . S
C764 H749 0.930 . S
C764 C759 1.390 . S
C764 C763 1.387 . S
H765 C777 0.930 . S
H766 C779 0.930 . S
H767 C780 0.930 . S
H768 C784 0.959 . S
H769 C784 0.959 . S
H770 C784 0.961 . S
H771 C785 0.960 . S
H772 C785 0.961 . S
H773 C785 0.959 . S
H774 C788 0.929 . S
H775 C789 0.931 . S
H776 C791 0.930 . S
C777 H765 0.930 . S
C777 C778 1.399 . S
C777 C782 1.399 . S
C778 C777 1.399 . S
C778 C779 1.376 . S
C779 H766 0.930 . S
C779 C778 1.376 . S
C779 C780 1.388 . S
C780 H767 0.930 . S
C780 C779 1.388 . S
C780 C781 1.390 . S
C781 C780 1.390 . S
C781 C782 1.394 . S
C781 C787 1.465 . S
C782 C777 1.399 . S
C782 C781 1.394 . S
C782 C783 1.516 . S
C783 C782 1.516 . S
C783 C784 1.502 . S
C783 C785 1.561 . S
C783 C786 1.526 . S
C784 H768 0.959 . S
C784 H769 0.959 . S
C784 H770 0.961 . S
C784 C783 1.502 . S
C785 H771 0.960 . S
C785 H772 0.961 . S
C785 H773 0.959 . S
C785 C783 1.561 . S
C786 C783 1.526 . S
C786 C787 1.396 . S
C786 C791 1.390 . S
C787 C781 1.465 . S
C787 C786 1.396 . S
C787 C788 1.399 . S
C788 H774 0.929 . S
C788 C787 1.399 . S
C788 C789 1.385 . S
C789 H775 0.931 . S
C789 C788 1.385 . S
C789 C790 1.389 . S
C790 C789 1.389 . S
C790 C791 1.387 . S
C791 H776 0.930 . S
C791 C786 1.390 . S
C791 C790 1.387 . S
H792 C804 0.930 . S
H793 C806 0.930 . S
H794 C807 0.930 . S
H795 C811 0.959 . S
H796 C811 0.959 . S
H797 C811 0.961 . S
H798 C812 0.960 . S
H799 C812 0.961 . S
H800 C812 0.959 . S
H801 C815 0.929 . S
H802 C816 0.931 . S
H803 C818 0.930 . S
C804 H792 0.930 . S
C804 C805 1.399 . S
C804 C809 1.399 . S
C805 C804 1.399 . S
C805 C806 1.376 . S
C806 H793 0.930 . S
C806 C805 1.376 . S
C806 C807 1.388 . S
C807 H794 0.930 . S
C807 C806 1.388 . S
C807 C808 1.390 . S
C808 C807 1.390 . S
C808 C809 1.394 . S
C808 C814 1.465 . S
C809 C804 1.399 . S
C809 C808 1.394 . S
C809 C810 1.516 . S
C810 C809 1.516 . S
C810 C811 1.502 . S
C810 C812 1.561 . S
C810 C813 1.526 . S
C811 H795 0.959 . S
C811 H796 0.959 . S
C811 H797 0.961 . S
C811 C810 1.502 . S
C812 H798 0.960 . S
C812 H799 0.961 . S
C812 H800 0.959 . S
C812 C810 1.561 . S
C813 C810 1.526 . S
C813 C814 1.396 . S
C813 C818 1.390 . S
C814 C808 1.465 . S
C814 C813 1.396 . S
C814 C815 1.399 . S
C815 H801 0.929 . S
C815 C814 1.399 . S
C815 C816 1.385 . S
C816 H802 0.931 . S
C816 C815 1.385 . S
C816 C817 1.389 . S
C817 C816 1.389 . S
C817 C818 1.387 . S
C818 H803 0.930 . S
C818 C813 1.390 . S
C818 C817 1.387 . S
H819 C831 0.930 . S
H820 C833 0.930 . S
H821 C834 0.930 . S
H822 C838 0.959 . S
H823 C838 0.959 . S
H824 C838 0.961 . S
H825 C839 0.960 . S
H826 C839 0.961 . S
H827 C839 0.959 . S
H828 C842 0.929 . S
H829 C843 0.931 . S
H830 C845 0.930 . S
C831 H819 0.930 . S
C831 C832 1.399 . S
C831 C836 1.399 . S
C832 C831 1.399 . S
C832 C833 1.376 . S
C833 H820 0.930 . S
C833 C832 1.376 . S
C833 C834 1.388 . S
C834 H821 0.930 . S
C834 C833 1.388 . S
C834 C835 1.390 . S
C835 C834 1.390 . S
C835 C836 1.394 . S
C835 C841 1.465 . S
C836 C831 1.399 . S
C836 C835 1.394 . S
C836 C837 1.516 . S
C837 C836 1.516 . S
C837 C838 1.502 . S
C837 C839 1.561 . S
C837 C840 1.526 . S
C838 H822 0.959 . S
C838 H823 0.959 . S
C838 H824 0.961 . S
C838 C837 1.502 . S
C839 H825 0.960 . S
C839 H826 0.961 . S
C839 H827 0.959 . S
C839 C837 1.561 . S
C840 C837 1.526 . S
C840 C841 1.396 . S
C840 C845 1.390 . S
C841 C835 1.465 . S
C841 C840 1.396 . S
C841 C842 1.399 . S
C842 H828 0.929 . S
C842 C841 1.399 . S
C842 C843 1.385 . S
C843 H829 0.931 . S
C843 C842 1.385 . S
C843 C844 1.389 . S
C844 C843 1.389 . S
C844 C845 1.387 . S
C845 H830 0.930 . S
C845 C840 1.390 . S
C845 C844 1.387 . S
H846 C858 0.930 . S
H847 C860 0.930 . S
H848 C861 0.930 . S
H849 C865 0.959 1_655 S
H850 C865 0.959 . S
H851 C865 0.961 . S
H852 C866 0.960 . S
H853 C866 0.961 . S
H854 C866 0.959 . S
H855 C869 0.929 . S
H856 C870 0.931 . S
H857 C872 0.930 . S
C858 H846 0.930 . S
C858 C859 1.399 . S
C858 C863 1.399 . S
C859 C858 1.399 . S
C859 C860 1.376 . S
C860 H847 0.930 . S
C860 C859 1.376 . S
C860 C861 1.388 . S
C861 H848 0.930 . S
C861 C860 1.388 . S
C861 C862 1.390 . S
C862 C861 1.390 . S
C862 C863 1.394 . S
C862 C868 1.465 . S
C863 C858 1.399 . S
C863 C862 1.394 . S
C863 C864 1.516 . S
C864 C863 1.516 . S
C864 C865 1.502 . S
C864 C866 1.561 . S
C864 C867 1.526 . S
C865 H849 0.959 1_455 S
C865 H850 0.959 . S
C865 H851 0.961 . S
C865 C864 1.502 . S
C866 H852 0.960 . S
C866 H853 0.961 . S
C866 H854 0.959 . S
C866 C864 1.561 . S
C867 C864 1.526 . S
C867 C868 1.396 . S
C867 C872 1.390 . S
C868 C862 1.465 . S
C868 C867 1.396 . S
C868 C869 1.399 . S
C869 H855 0.929 . S
C869 C868 1.399 . S
C869 C870 1.385 . S
C870 H856 0.931 . S
C870 C869 1.385 . S
C870 C871 1.389 . S
C871 C870 1.389 . S
C871 C872 1.387 . S
C872 H857 0.930 . S
C872 C867 1.390 . S
C872 C871 1.387 . S
H873 C885 0.930 . S
H874 C887 0.930 . S
H875 C888 0.930 . S
H876 C892 0.959 . S
H877 C892 0.959 . S
H878 C892 0.961 . S
H879 C893 0.960 . S
H880 C893 0.961 . S
H881 C893 0.959 . S
H882 C896 0.929 . S
H883 C897 0.931 . S
H884 C899 0.930 . S
C885 H873 0.930 . S
C885 C886 1.399 . S
C885 C890 1.399 . S
C886 C885 1.399 . S
C886 C887 1.376 . S
C887 H874 0.930 . S
C887 C886 1.376 . S
C887 C888 1.388 . S
C888 H875 0.930 . S
C888 C887 1.388 . S
C888 C889 1.390 . S
C889 C888 1.390 . S
C889 C890 1.394 . S
C889 C895 1.465 . S
C890 C885 1.399 . S
C890 C889 1.394 . S
C890 C891 1.516 . S
C891 C890 1.516 . S
C891 C892 1.502 . S
C891 C893 1.561 . S
C891 C894 1.526 . S
C892 H876 0.959 . S
C892 H877 0.959 . S
C892 H878 0.961 . S
C892 C891 1.502 . S
C893 H879 0.960 . S
C893 H880 0.961 . S
C893 H881 0.959 . S
C893 C891 1.561 . S
C894 C891 1.526 . S
C894 C895 1.396 . S
C894 C899 1.390 . S
C895 C889 1.465 . S
C895 C894 1.396 . S
C895 C896 1.399 . S
C896 H882 0.929 . S
C896 C895 1.399 . S
C896 C897 1.385 . S
C897 H883 0.931 . S
C897 C896 1.385 . S
C897 C898 1.389 . S
C898 C897 1.389 . S
C898 C899 1.387 . S
C899 H884 0.930 . S
C899 C894 1.390 . S
C899 C898 1.387 . S
H900 C912 0.930 . S
H901 C914 0.930 . S
H902 C915 0.930 . S
H903 C919 0.959 . S
H904 C919 0.959 . S
H905 C919 0.961 . S
H906 C920 0.960 . S
H907 C920 0.961 . S
H908 C920 0.959 . S
H909 C923 0.929 . S
H910 C924 0.931 . S
H911 C926 0.930 . S
C912 H900 0.930 . S
C912 C913 1.399 . S
C912 C917 1.399 . S
C913 C912 1.399 . S
C913 C914 1.376 1_545 S
C914 H901 0.930 . S
C914 C913 1.376 1_565 S
C914 C915 1.388 . S
C915 H902 0.930 . S
C915 C914 1.388 . S
C915 C916 1.390 1_565 S
C916 C915 1.390 1_545 S
C916 C917 1.394 . S
C916 C922 1.465 . S
C917 C912 1.399 . S
C917 C916 1.394 . S
C917 C918 1.516 . S
C918 C917 1.516 . S
C918 C919 1.502 . S
C918 C920 1.561 . S
C918 C921 1.526 . S
C919 H903 0.959 . S
C919 H904 0.959 . S
C919 H905 0.961 . S
C919 C918 1.502 . S
C920 H906 0.960 . S
C920 H907 0.961 . S
C920 H908 0.959 . S
C920 C918 1.561 . S
C921 C918 1.526 . S
C921 C922 1.396 . S
C921 C926 1.390 . S
C922 C916 1.465 . S
C922 C921 1.396 . S
C922 C923 1.399 1_545 S
C923 H909 0.929 . S
C923 C922 1.399 1_565 S
C923 C924 1.385 . S
C924 H910 0.931 . S
C924 C923 1.385 . S
C924 C925 1.389 1_565 S
C925 C924 1.389 1_545 S
C925 C926 1.387 . S
C926 H911 0.930 . S
C926 C921 1.390 . S
C926 C925 1.387 . S
H927 C939 0.930 . S
H928 C941 0.930 . S
H929 C942 0.930 . S
H930 C946 0.959 . S
H931 C946 0.959 . S
H932 C946 0.961 . S
H933 C947 0.960 . S
H934 C947 0.961 . S
H935 C947 0.959 . S
H936 C950 0.929 . S
H937 C951 0.931 . S
H938 C953 0.930 . S
C939 H927 0.930 . S
C939 C940 1.399 . S
C939 C944 1.399 . S
C940 C939 1.399 . S
C940 C941 1.376 . S
C941 H928 0.930 . S
C941 C940 1.376 . S
C941 C942 1.388 . S
C942 H929 0.930 . S
C942 C941 1.388 . S
C942 C943 1.390 . S
C943 C942 1.390 . S
C943 C944 1.394 . S
C943 C949 1.465 . S
C944 C939 1.399 . S
C944 C943 1.394 . S
C944 C945 1.516 . S
C945 C944 1.516 . S
C945 C946 1.502 . S
C945 C947 1.561 . S
C945 C948 1.526 . S
C946 H930 0.959 . S
C946 H931 0.959 . S
C946 H932 0.961 . S
C946 C945 1.502 . S
C947 H933 0.960 . S
C947 H934 0.961 . S
C947 H935 0.959 . S
C947 C945 1.561 . S
C948 C945 1.526 . S
C948 C949 1.396 . S
C948 C953 1.390 1_556 S
C949 C943 1.465 . S
C949 C948 1.396 . S
C949 C950 1.399 . S
C950 H936 0.929 . S
C950 C949 1.399 . S
C950 C951 1.385 1_556 S
C951 H937 0.931 . S
C951 C950 1.385 1_554 S
C951 C952 1.389 . S
C952 C951 1.389 . S
C952 C953 1.387 . S
C953 H938 0.930 . S
C953 C948 1.390 1_554 S
C953 C952 1.387 . S
H954 C966 0.930 . S
H955 C968 0.930 . S
H956 C969 0.930 . S
H957 C973 0.959 . S
H958 C973 0.959 . S
H959 C973 0.961 . S
H960 C974 0.960 . S
H961 C974 0.961 . S
H962 C974 0.959 . S
H963 C977 0.929 . S
H964 C978 0.931 . S
H965 C980 0.930 . S
C966 H954 0.930 . S
C966 C967 1.399 . S
C966 C971 1.399 . S
C967 C966 1.399 . S
C967 C968 1.376 . S
C968 H955 0.930 . S
C968 C967 1.376 . S
C968 C969 1.388 . S
C969 H956 0.930 . S
C969 C968 1.388 . S
C969 C970 1.390 . S
C970 C969 1.390 . S
C970 C971 1.394 . S
C970 C976 1.465 . S
C971 C966 1.399 . S
C971 C970 1.394 . S
C971 C972 1.516 . S
C972 C971 1.516 . S
C972 C973 1.502 . S
C972 C974 1.561 . S
C972 C975 1.526 . S
C973 H957 0.959 . S
C973 H958 0.959 . S
C973 H959 0.961 . S
C973 C972 1.502 . S
C974 H960 0.960 . S
C974 H961 0.961 . S
C974 H962 0.959 . S
C974 C972 1.561 . S
C975 C972 1.526 . S
C975 C976 1.396 . S
C975 C980 1.390 1_556 S
C976 C970 1.465 . S
C976 C975 1.396 . S
C976 C977 1.399 . S
C977 H963 0.929 . S
C977 C976 1.399 . S
C977 C978 1.385 1_556 S
C978 H964 0.931 . S
C978 C977 1.385 1_554 S
C978 C979 1.389 . S
C979 C978 1.389 . S
C979 C980 1.387 . S
C980 H965 0.930 . S
C980 C975 1.390 1_554 S
C980 C979 1.387 . S
H981 C993 0.930 . S
H982 C995 0.930 . S
H983 C996 0.930 . S
H984 C1000 0.959 . S
H985 C1000 0.959 . S
H986 C1000 0.961 . S
H987 C1001 0.960 . S
H988 C1001 0.961 . S
H989 C1001 0.959 . S
H990 C1004 0.929 . S
H991 C1005 0.931 . S
H992 C1007 0.930 . S
C993 H981 0.930 . S
C993 C994 1.399 . S
C993 C998 1.399 . S
C994 C993 1.399 . S
C994 C995 1.376 . S
C995 H982 0.930 . S
C995 C994 1.376 . S
C995 C996 1.388 . S
C996 H983 0.930 . S
C996 C995 1.388 . S
C996 C997 1.390 . S
C997 C996 1.390 . S
C997 C998 1.394 . S
C997 C1003 1.465 . S
C998 C993 1.399 . S
C998 C997 1.394 . S
C998 C999 1.516 . S
C999 C998 1.516 . S
C999 C1000 1.502 . S
C999 C1001 1.561 . S
C999 C1002 1.526 . S
C1000 H984 0.959 . S
C1000 H985 0.959 . S
C1000 H986 0.961 . S
C1000 C999 1.502 . S
C1001 H987 0.960 . S
C1001 H988 0.961 . S
C1001 H989 0.959 . S
C1001 C999 1.561 . S
C1002 C999 1.526 . S
C1002 C1003 1.396 . S
C1002 C1007 1.390 1_556 S
C1003 C997 1.465 . S
C1003 C1002 1.396 . S
C1003 C1004 1.399 . S
C1004 H990 0.929 . S
C1004 C1003 1.399 . S
C1004 C1005 1.385 1_556 S
C1005 H991 0.931 . S
C1005 C1004 1.385 1_554 S
C1005 C1006 1.389 . S
C1006 C1005 1.389 . S
C1006 C1007 1.387 . S
C1007 H992 0.930 . S
C1007 C1002 1.390 1_554 S
C1007 C1006 1.387 . S
H1008 C1020 0.930 . S
H1009 C1022 0.930 . S
H1010 C1023 0.930 . S
H1011 C1027 0.959 . S
H1012 C1027 0.959 . S
H1013 C1027 0.961 . S
H1014 C1028 0.960 . S
H1015 C1028 0.961 . S
H1016 C1028 0.959 . S
H1017 C1031 0.929 . S
H1018 C1032 0.931 . S
H1019 C1034 0.930 . S
C1020 H1008 0.930 . S
C1020 C1021 1.399 . S
C1020 C1025 1.399 . S
C1021 C1020 1.399 . S
C1021 C1022 1.376 . S
C1022 H1009 0.930 . S
C1022 C1021 1.376 . S
C1022 C1023 1.388 . S
C1023 H1010 0.930 . S
C1023 C1022 1.388 . S
C1023 C1024 1.390 . S
C1024 C1023 1.390 . S
C1024 C1025 1.394 . S
C1024 C1030 1.465 . S
C1025 C1020 1.399 . S
C1025 C1024 1.394 . S
C1025 C1026 1.516 . S
C1026 C1025 1.516 . S
C1026 C1027 1.502 . S
C1026 C1028 1.561 . S
C1026 C1029 1.526 . S
C1027 H1011 0.959 . S
C1027 H1012 0.959 . S
C1027 H1013 0.961 . S
C1027 C1026 1.502 . S
C1028 H1014 0.960 . S
C1028 H1015 0.961 . S
C1028 H1016 0.959 . S
C1028 C1026 1.561 . S
C1029 C1026 1.526 . S
C1029 C1030 1.396 . S
C1029 C1034 1.390 1_554 S
C1030 C1024 1.465 . S
C1030 C1029 1.396 . S
C1030 C1031 1.399 . S
C1031 H1017 0.929 . S
C1031 C1030 1.399 . S
C1031 C1032 1.385 1_554 S
C1032 H1018 0.931 . S
C1032 C1031 1.385 1_556 S
C1032 C1033 1.389 . S
C1033 C1032 1.389 . S
C1033 C1034 1.387 . S
C1034 H1019 0.930 . S
C1034 C1029 1.390 1_556 S
C1034 C1033 1.387 . S
H1035 C1047 0.930 . S
H1036 C1049 0.930 . S
H1037 C1050 0.930 . S
H1038 C1054 0.959 . S
H1039 C1054 0.959 . S
H1040 C1054 0.961 . S
H1041 C1055 0.960 . S
H1042 C1055 0.961 . S
H1043 C1055 0.959 . S
H1044 C1058 0.929 . S
H1045 C1059 0.931 . S
H1046 C1061 0.930 . S
C1047 H1035 0.930 . S
C1047 C1048 1.399 . S
C1047 C1052 1.399 1_556 S
C1048 C1047 1.399 . S
C1048 C1049 1.376 . S
C1049 H1036 0.930 . S
C1049 C1048 1.376 . S
C1049 C1050 1.388 1_556 S
C1050 H1037 0.930 . S
C1050 C1049 1.388 1_554 S
C1050 C1051 1.390 . S
C1051 C1050 1.390 . S
C1051 C1052 1.394 . S
C1051 C1057 1.465 . S
C1052 C1047 1.399 1_554 S
C1052 C1051 1.394 . S
C1052 C1053 1.516 . S
C1053 C1052 1.516 . S
C1053 C1054 1.502 . S
C1053 C1055 1.561 . S
C1053 C1056 1.526 . S
C1054 H1038 0.959 . S
C1054 H1039 0.959 . S
C1054 H1040 0.961 . S
C1054 C1053 1.502 . S
C1055 H1041 0.960 . S
C1055 H1042 0.961 . S
C1055 H1043 0.959 . S
C1055 C1053 1.561 . S
C1056 C1053 1.526 . S
C1056 C1057 1.396 . S
C1056 C1061 1.390 . S
C1057 C1051 1.465 . S
C1057 C1056 1.396 . S
C1057 C1058 1.399 . S
C1058 H1044 0.929 . S
C1058 C1057 1.399 . S
C1058 C1059 1.385 . S
C1059 H1045 0.931 . S
C1059 C1058 1.385 . S
C1059 C1060 1.389 . S
C1060 C1059 1.389 . S
C1060 C1061 1.387 . S
C1061 H1046 0.930 . S
C1061 C1056 1.390 . S
C1061 C1060 1.387 . S
H1062 C1074 0.930 . S
H1063 C1076 0.930 . S
H1064 C1077 0.930 . S
H1065 C1081 0.959 . S
H1066 C1081 0.959 . S
H1067 C1081 0.961 . S
H1068 C1082 0.960 . S
H1069 C1082 0.961 . S
H1070 C1082 0.959 . S
H1071 C1085 0.929 . S
H1072 C1086 0.931 . S
H1073 C1088 0.930 . S
C1074 H1062 0.930 . S
C1074 C1075 1.399 . S
C1074 C1079 1.399 . S
C1075 C1074 1.399 . S
C1075 C1076 1.376 . S
C1076 H1063 0.930 . S
C1076 C1075 1.376 . S
C1076 C1077 1.388 . S
C1077 H1064 0.930 . S
C1077 C1076 1.388 . S
C1077 C1078 1.390 . S
C1078 C1077 1.390 . S
C1078 C1079 1.394 . S
C1078 C1084 1.465 . S
C1079 C1074 1.399 . S
C1079 C1078 1.394 . S
C1079 C1080 1.516 . S
C1080 C1079 1.516 . S
C1080 C1081 1.502 . S
C1080 C1082 1.561 . S
C1080 C1083 1.526 . S
C1081 H1065 0.959 . S
C1081 H1066 0.959 . S
C1081 H1067 0.961 . S
C1081 C1080 1.502 . S
C1082 H1068 0.960 . S
C1082 H1069 0.961 . S
C1082 H1070 0.959 . S
C1082 C1080 1.561 . S
C1083 C1080 1.526 . S
C1083 C1084 1.396 . S
C1083 C1088 1.390 1_554 S
C1084 C1078 1.465 . S
C1084 C1083 1.396 . S
C1084 C1085 1.399 . S
C1085 H1071 0.929 . S
C1085 C1084 1.399 . S
C1085 C1086 1.385 1_554 S
C1086 H1072 0.931 . S
C1086 C1085 1.385 1_556 S
C1086 C1087 1.389 . S
C1087 C1086 1.389 . S
C1087 C1088 1.387 . S
C1088 H1073 0.930 . S
C1088 C1083 1.390 1_556 S
C1088 C1087 1.387 . S
C373 C6 2.011 1_556 S
C385 C290 2.039 . S
C400 C46 1.995 1_556 S
C412 C330 2.034 . S
C427 C86 1.957 1_556 S
C439 C250 2.056 . S
C454 C166 1.990 . S
C466 C90 2.035 . S
C481 C206 1.958 . S
C493 C10 2.053 . S
C508 C50 2.057 . S
C520 C126 1.971 . S
C535 C286 1.987 . S
C547 C210 2.051 . S
C562 C326 2.009 . S
C574 C130 2.031 . S
C589 C170 2.058 . S
C601 C246 1.961 1_545 S
C616 C95 1.688 . S
C628 C19 1.656 . S
C643 C59 1.651 . S
C655 C15 1.673 . S
C670 C55 1.684 1_456 S
C682 C99 1.691 . S
C697 C139 1.654 . S
C709 C215 1.672 . S
C724 C135 1.670 . S
C736 C179 1.674 . S
C751 C175 1.689 . S
C763 C219 1.657 . S
C778 C335 1.674 . S
C790 C259 1.682 . S
C805 C299 1.650 . S
C817 C255 1.674 . S
C832 C339 1.688 . S
C844 C295 1.689 . S
C859 C9 0.977 . S
C871 C18 0.901 . S
C886 C49 0.903 . S
C898 C58 0.974 . S
C913 C89 0.875 . S
C925 C98 1.010 . S
C940 C138 1.012 . S
C952 C129 0.876 . S
C967 C178 1.008 . S
C979 C169 0.903 . S
C994 C218 0.949 . S
C1006 C209 0.928 . S
C1021 C249 0.978 . S
C1033 C258 0.901 . S
C1048 C298 1.009 . S
C1060 C289 0.902 . S
C1075 C329 0.875 . S
C1087 C338 1.017 . S
