# Generated by pormake.
# Topology whz, (6)-cn, num edge types: 1
# Building blocks:
#     Node 0, Type 0, BuildingBlock: KUMJIN_clean_sbu_1, # of connection points: 6
#     Node 1, Type 0, BuildingBlock: KUMJIN_clean_sbu_1, # of connection points: 6
#     Node 2, Type 0, BuildingBlock: KUMJIN_clean_sbu_1, # of connection points: 6
#     Node 3, Type 0, BuildingBlock: KUMJIN_clean_sbu_1, # of connection points: 6
#     Node 4, Type 0, BuildingBlock: KUMJIN_clean_sbu_1, # of connection points: 6
#     Node 5, Type 0, BuildingBlock: KUMJIN_clean_sbu_1, # of connection points: 6
#     Node 6, Type 0, BuildingBlock: KUMJIN_clean_sbu_1, # of connection points: 6
#     Node 7, Type 0, BuildingBlock: KUMJIN_clean_sbu_1, # of connection points: 6
#     Node 8, Type 0, BuildingBlock: KUMJIN_clean_sbu_1, # of connection points: 6
#     Node 9, Type 0, BuildingBlock: KUMJIN_clean_sbu_1, # of connection points: 6
#     Node 10, Type 0, BuildingBlock: KUMJIN_clean_sbu_1, # of connection points: 6
#     Node 11, Type 0, BuildingBlock: KUMJIN_clean_sbu_1, # of connection points: 6
#     Node 12, Type 0, BuildingBlock: KUMJIN_clean_sbu_1, # of connection points: 6
#     Node 13, Type 0, BuildingBlock: KUMJIN_clean_sbu_1, # of connection points: 6
#     Node 14, Type 0, BuildingBlock: KUMJIN_clean_sbu_1, # of connection points: 6
#     Node 15, Type 0, BuildingBlock: KUMJIN_clean_sbu_1, # of connection points: 6
#     Edge 16, Type (0, 0), BuildingBlock: TEMPAE_clean_linker_10, # of connection points: 2
#     Edge 17, Type (0, 0), BuildingBlock: TEMPAE_clean_linker_10, # of connection points: 2
#     Edge 18, Type (0, 0), BuildingBlock: TEMPAE_clean_linker_10, # of connection points: 2
#     Edge 19, Type (0, 0), BuildingBlock: TEMPAE_clean_linker_10, # of connection points: 2
#     Edge 20, Type (0, 0), BuildingBlock: TEMPAE_clean_linker_10, # of connection points: 2
#     Edge 21, Type (0, 0), BuildingBlock: TEMPAE_clean_linker_10, # of connection points: 2
#     Edge 22, Type (0, 0), BuildingBlock: TEMPAE_clean_linker_10, # of connection points: 2
#     Edge 23, Type (0, 0), BuildingBlock: TEMPAE_clean_linker_10, # of connection points: 2
#     Edge 24, Type (0, 0), BuildingBlock: TEMPAE_clean_linker_10, # of connection points: 2
#     Edge 25, Type (0, 0), BuildingBlock: TEMPAE_clean_linker_10, # of connection points: 2
#     Edge 26, Type (0, 0), BuildingBlock: TEMPAE_clean_linker_10, # of connection points: 2
#     Edge 27, Type (0, 0), BuildingBlock: TEMPAE_clean_linker_10, # of connection points: 2
#     Edge 28, Type (0, 0), BuildingBlock: TEMPAE_clean_linker_10, # of connection points: 2
#     Edge 29, Type (0, 0), BuildingBlock: TEMPAE_clean_linker_10, # of connection points: 2
#     Edge 30, Type (0, 0), BuildingBlock: TEMPAE_clean_linker_10, # of connection points: 2
#     Edge 31, Type (0, 0), BuildingBlock: TEMPAE_clean_linker_10, # of connection points: 2
#     Edge 32, Type (0, 0), BuildingBlock: TEMPAE_clean_linker_10, # of connection points: 2
#     Edge 33, Type (0, 0), BuildingBlock: TEMPAE_clean_linker_10, # of connection points: 2
#     Edge 34, Type (0, 0), BuildingBlock: TEMPAE_clean_linker_10, # of connection points: 2
#     Edge 35, Type (0, 0), BuildingBlock: TEMPAE_clean_linker_10, # of connection points: 2
#     Edge 36, Type (0, 0), BuildingBlock: TEMPAE_clean_linker_10, # of connection points: 2
#     Edge 37, Type (0, 0), BuildingBlock: TEMPAE_clean_linker_10, # of connection points: 2
#     Edge 38, Type (0, 0), BuildingBlock: TEMPAE_clean_linker_10, # of connection points: 2
#     Edge 39, Type (0, 0), BuildingBlock: TEMPAE_clean_linker_10, # of connection points: 2
#     Edge 40, Type (0, 0), BuildingBlock: TEMPAE_clean_linker_10, # of connection points: 2
#     Edge 41, Type (0, 0), BuildingBlock: TEMPAE_clean_linker_10, # of connection points: 2
#     Edge 42, Type (0, 0), BuildingBlock: TEMPAE_clean_linker_10, # of connection points: 2
#     Edge 43, Type (0, 0), BuildingBlock: TEMPAE_clean_linker_10, # of connection points: 2
#     Edge 44, Type (0, 0), BuildingBlock: TEMPAE_clean_linker_10, # of connection points: 2
#     Edge 45, Type (0, 0), BuildingBlock: TEMPAE_clean_linker_10, # of connection points: 2
#     Edge 46, Type (0, 0), BuildingBlock: TEMPAE_clean_linker_10, # of connection points: 2
#     Edge 47, Type (0, 0), BuildingBlock: TEMPAE_clean_linker_10, # of connection points: 2
#     Edge 48, Type (0, 0), BuildingBlock: TEMPAE_clean_linker_10, # of connection points: 2
#     Edge 49, Type (0, 0), BuildingBlock: TEMPAE_clean_linker_10, # of connection points: 2
#     Edge 50, Type (0, 0), BuildingBlock: TEMPAE_clean_linker_10, # of connection points: 2
#     Edge 51, Type (0, 0), BuildingBlock: TEMPAE_clean_linker_10, # of connection points: 2
#     Edge 52, Type (0, 0), BuildingBlock: TEMPAE_clean_linker_10, # of connection points: 2
#     Edge 53, Type (0, 0), BuildingBlock: TEMPAE_clean_linker_10, # of connection points: 2
#     Edge 54, Type (0, 0), BuildingBlock: TEMPAE_clean_linker_10, # of connection points: 2
#     Edge 55, Type (0, 0), BuildingBlock: TEMPAE_clean_linker_10, # of connection points: 2
#     Edge 56, Type (0, 0), BuildingBlock: TEMPAE_clean_linker_10, # of connection points: 2
#     Edge 57, Type (0, 0), BuildingBlock: TEMPAE_clean_linker_10, # of connection points: 2
#     Edge 58, Type (0, 0), BuildingBlock: TEMPAE_clean_linker_10, # of connection points: 2
#     Edge 59, Type (0, 0), BuildingBlock: TEMPAE_clean_linker_10, # of connection points: 2
#     Edge 60, Type (0, 0), BuildingBlock: TEMPAE_clean_linker_10, # of connection points: 2
#     Edge 61, Type (0, 0), BuildingBlock: TEMPAE_clean_linker_10, # of connection points: 2
#     Edge 62, Type (0, 0), BuildingBlock: TEMPAE_clean_linker_10, # of connection points: 2
#     Edge 63, Type (0, 0), BuildingBlock: TEMPAE_clean_linker_10, # of connection points: 2
# Relax obj value: 0.430
# Max RMSD: 0.278
# Mean RMSD: 0.276
data_MOF--net-whz--node1-KUMJIN_clean_sbu_1--edge1-TEMPAE_clean_linker_10
_symmetry_space_group_name_H-M    P1
_symmetry_Int_Tables_number       1
_symmetry_cell_setting            triclinic
loop_
_symmetry_equiv_pos_as_xyz
'x, y, z'
_cell_length_a     33.583722
_cell_length_b     33.562778
_cell_length_c     75.393107
_cell_angle_alpha  89.757227
_cell_angle_beta   89.824394
_cell_angle_gamma 90.563031
loop_
_atom_site_label
_atom_site_type_symbol
_atom_site_fract_x
_atom_site_fract_y
_atom_site_fract_z
_atom_type_partial_charge
Eu0 Eu 0.26946 0.18518 0.19511 0.0
C1 C 0.38495 0.06505 0.15377 0.0
N2 N 0.37555 0.10245 0.1483 0.0
C3 C 0.44198 0.1128 0.13741 0.0
C4 C 0.42405 0.05067 0.15186 0.0
C5 C 0.40276 0.12567 0.13947 0.0
C6 C 0.45285 0.07544 0.14392 0.0
C7 C 0.36312 1.0001 0.16461 0.0
C8 C 0.35478 0.03996 0.16006 0.0
C9 C 0.40245 0.98644 0.16365 0.0
C10 C 0.43282 0.01165 0.15728 0.0
Eu11 Eu 0.30939 0.12208 0.15369 0.0
N12 N 0.31689 0.05382 0.16074 0.0
C13 C 0.33147 0.97474 0.1694 0.0
C14 C 0.28562 0.0284 0.16399 0.0
C15 C 0.29249 0.98877 0.16875 0.0
H16 H 0.39428 0.15442 0.13424 0.0
H17 H 0.26772 0.96905 0.17185 0.0
H18 H 0.17773 0.18485 0.17902 0.0
H19 H 0.35441 0.30305 0.22803 0.0
H20 H 0.25549 0.03886 0.1633 0.0
H21 H 0.33667 0.94394 0.17299 0.0
H22 H 0.34304 0.23622 0.21554 0.0
H23 H 0.46377 0.13169 0.13081 0.0
H24 H 0.40947 0.95603 0.16727 0.0
H25 H 0.46278 1.00026 0.15609 0.0
H26 H 0.11699 0.22456 0.1829 0.0
H27 H 0.48321 0.06548 0.14222 0.0
H28 H 0.30013 0.35234 0.22788 0.0
N29 N 0.21616 0.22885 0.19014 0.0
C30 C 0.21891 0.26472 0.19828 0.0
C31 C 0.14554 0.23654 0.18699 0.0
C32 C 0.185 0.28856 0.20065 0.0
C33 C 0.18015 0.2146 0.18441 0.0
C34 C 0.14785 0.27327 0.19551 0.0
N35 N 0.28522 0.24964 0.20571 0.0
C36 C 0.32014 0.25843 0.21418 0.0
C37 C 0.25897 0.31344 0.21403 0.0
C38 C 0.25493 0.27608 0.20568 0.0
C39 C 0.29565 0.32368 0.2216 0.0
C40 C 0.32637 0.29598 0.22168 0.0
H41 H 0.12082 0.28981 0.19788 0.0
H42 H 0.16336 0.34518 0.21023 0.0
H43 H 0.2286 0.36768 0.22134 0.0
O44 O 0.27213 0.18135 0.22409 0.0
O45 O 0.24855 0.19228 0.16706 0.0
O46 O 0.30328 0.19027 0.15 0.0
O47 O 0.2178 0.16631 0.21015 0.0
O48 O 0.33377 0.2054 0.18699 0.0
O49 O 0.35566 0.16967 0.16215 0.0
O50 O 0.26636 0.12473 0.1317 0.0
O51 O 0.31144 0.09309 0.18228 0.0
O52 O 0.32445 0.14838 0.19849 0.0
O53 O 0.32318 0.09838 0.12728 0.0
O54 O 0.24348 0.11431 0.16037 0.0
O55 O 0.24311 0.12335 0.19037 0.0
C56 C 0.27176 0.20975 0.15556 0.0
C57 C 0.22618 0.1347 0.23744 0.0
C58 C 0.24322 0.10374 0.26541 0.0
C59 C 0.20373 0.08882 0.26677 0.0
C60 C 0.18659 0.12175 0.23947 0.0
C61 C 0.17607 0.09675 0.25352 0.0
C62 C 0.2548 0.12146 0.24927 0.0
C63 C 0.36125 0.19674 0.17477 0.0
C64 C 0.23558 0.16774 0.22532 0.0
C65 C 0.18893 0.32606 0.20868 0.0
C66 C 0.22603 0.3388 0.21506 0.0
C67 C 0.32374 0.10963 0.19732 0.0
C68 C 0.29335 0.12949 0.10244 0.0
C69 C 0.28345 0.13274 0.06993 0.0
C70 C 0.30548 0.16855 0.06973 0.0
C71 C 0.31491 0.16539 0.10152 0.0
C72 C 0.27701 0.11324 0.08654 0.0
C73 C 0.3208 0.18471 0.08532 0.0
C74 C 0.22634 0.10954 0.17593 0.0
C75 C 0.28991 0.10894 0.11995 0.0
H76 H 0.19288 0.07367 0.27852 0.0
H77 H 0.16352 0.13213 0.23062 0.0
H78 H 0.14556 0.0866 0.25501 0.0
H79 H 0.28509 0.13058 0.24692 0.0
H80 H 0.31067 0.18435 0.05736 0.0
H81 H 0.32765 0.17833 0.11339 0.0
H82 H 0.26032 0.08547 0.08703 0.0
H83 H 0.33763 0.21236 0.08481 0.0
Eu84 Eu 0.59184 0.53433 0.44756 0.0
C85 C 0.71275 0.63747 0.40495 0.0
N86 N 0.67466 0.63096 0.39953 0.0
C87 C 0.6698 0.69899 0.3901 0.0
C88 C 0.73007 0.67589 0.40405 0.0
C89 C 0.65421 0.66026 0.39108 0.0
C90 C 0.70757 0.70706 0.39701 0.0
C91 C 0.77603 0.6104 0.4145 0.0
C92 C 0.73563 0.60509 0.40996 0.0
C93 C 0.79264 0.64896 0.41467 0.0
C94 C 0.76972 0.68162 0.40944 0.0
Eu95 Eu 0.64962 0.56543 0.4032 0.0
N96 N 0.71871 0.56808 0.40972 0.0
C97 C 0.79886 0.57669 0.41818 0.0
C98 C 0.74171 0.53497 0.41176 0.0
C99 C 0.7818 0.53879 0.41646 0.0
H100 H 0.62627 0.65332 0.3847 0.0
H101 H 0.7996 0.5125 0.41861 0.0
H102 H 0.62089 0.43949 0.45273 0.0
H103 H 0.43988 0.59361 0.44169 0.0
H104 H 0.72919 0.5056 0.40999 0.0
H105 H 0.83 0.57953 0.42172 0.0
H106 H 0.51115 0.5955 0.43745 0.0
H107 H 0.65301 0.7224 0.38376 0.0
H108 H 0.82352 0.65369 0.41828 0.0
H109 H 0.78336 0.71101 0.40904 0.0
H110 H 0.5909 0.37381 0.45836 0.0
H111 H 0.71981 0.73698 0.39606 0.0
H112 H 0.40715 0.53275 0.45327 0.0
N113 N 0.56556 0.4692 0.45009 0.0
C114 C 0.52548 0.46639 0.45228 0.0
C115 C 0.57208 0.39948 0.4565 0.0
C116 C 0.50717 0.42968 0.45683 0.0
C117 C 0.58902 0.43675 0.45273 0.0
C118 C 0.53095 0.39592 0.4586 0.0
N119 N 0.52095 0.53553 0.44582 0.0
C120 C 0.49845 0.56821 0.44206 0.0
C121 C 0.46104 0.49822 0.4528 0.0
C122 C 0.50264 0.5004 0.45021 0.0
C123 C 0.43877 0.53265 0.45052 0.0
C124 C 0.45726 0.56725 0.44431 0.0
H125 H 0.51793 0.36715 0.46189 0.0
H126 H 0.45136 0.39983 0.46313 0.0
H127 H 0.41096 0.45995 0.45966 0.0
O128 O 0.56517 0.53178 0.4736 0.0
O129 O 0.58249 0.50238 0.42189 0.0
O130 O 0.58168 0.55305 0.40208 0.0
O131 O 0.62906 0.52565 0.47113 0.0
O132 O 0.57892 0.59979 0.43904 0.0
O133 O 0.59946 0.61112 0.40962 0.0
O134 O 0.65046 0.52169 0.3814 0.0
O135 O 0.68078 0.56795 0.43105 0.0
O136 O 0.62869 0.59009 0.4465 0.0
O137 O 0.66848 0.58156 0.37612 0.0
O138 O 0.65461 0.50018 0.41138 0.0
O139 O 0.64959 0.50114 0.44194 0.0
C140 C 0.56495 0.52047 0.40878 0.0
C141 C 0.60332 0.55672 0.49669 0.0
C142 C 0.56995 0.61042 0.51181 0.0
C143 C 0.58945 0.59899 0.52768 0.0
C144 C 0.61822 0.54278 0.51275 0.0
C145 C 0.6141 0.56567 0.52798 0.0
C146 C 0.58374 0.59325 0.49602 0.0
C147 C 0.57973 0.62208 0.42423 0.0
C148 C 0.59898 0.52931 0.48189 0.0
C149 C 0.46586 0.42773 0.45958 0.0
C150 C 0.44287 0.46195 0.45762 0.0
C151 C 0.66698 0.586 0.44533 0.0
C152 C 0.64018 0.54625 0.35196 0.0
C153 C 0.63608 0.53478 0.31949 0.0
C154 C 0.59775 0.55128 0.31988 0.0
C155 C 0.60186 0.56231 0.35153 0.0
C156 C 0.65731 0.53187 0.33582 0.0
C157 C 0.58091 0.56469 0.33566 0.0
C158 C 0.66149 0.48443 0.4271 0.0
C159 C 0.66209 0.54676 0.36918 0.0
H160 H 0.58321 0.61273 0.54028 0.0
H161 H 0.63103 0.51344 0.51363 0.0
H162 H 0.62661 0.55543 0.54038 0.0
H163 H 0.57372 0.60387 0.48326 0.0
H164 H 0.5805 0.55372 0.30781 0.0
H165 H 0.58824 0.57352 0.36355 0.0
H166 H 0.68701 0.51957 0.33591 0.0
H167 H 0.5514 0.57735 0.33556 0.0
Eu168 Eu 0.21492 0.84166 0.69987 0.0
C169 C 0.1325 0.96453 0.65419 0.0
N170 N 0.13439 0.92476 0.65079 0.0
C171 C 0.06496 0.92322 0.64351 0.0
C172 C 0.0961 0.98492 0.65281 0.0
C173 C 0.1016 0.90419 0.64509 0.0
C174 C 0.06211 0.96367 0.64751 0.0
C175 C 0.16554 0.02599 0.6632 0.0
C176 C 0.16699 0.98495 0.6593 0.0
C177 C 0.12923 0.04617 0.66194 0.0
C178 C 0.09466 0.02572 0.65676 0.0
Eu179 Eu 0.19747 0.89552 0.65449 0.0
N180 N 0.2016 0.96439 0.66106 0.0
C181 C 0.20063 0.04556 0.66831 0.0
C182 C 0.23623 0.9838 0.66517 0.0
C183 C 0.23618 0.02445 0.66912 0.0
H184 H 0.10366 0.87326 0.64139 0.0
H185 H 0.26363 0.03954 0.67267 0.0
H186 H 0.30902 0.86071 0.7134 0.0
H187 H 0.13541 0.69883 0.69562 0.0
H188 H 0.26411 0.96843 0.66527 0.0
H189 H 0.20071 0.07705 0.67143 0.0
H190 H 0.14184 0.7714 0.69504 0.0
H191 H 0.03899 0.90673 0.6391 0.0
H192 H 0.12757 0.07766 0.66495 0.0
H193 H 0.06691 0.04178 0.65583 0.0
H194 H 0.37141 0.82402 0.717 0.0
H195 H 0.03362 0.97829 0.64629 0.0
H196 H 0.19422 0.65753 0.70171 0.0
N197 N 0.27486 0.80936 0.70647 0.0
C198 C 0.27367 0.76893 0.70559 0.0
C199 C 0.34422 0.80819 0.71369 0.0
C200 C 0.30804 0.74653 0.70919 0.0
C201 C 0.3089 0.82902 0.71125 0.0
C202 C 0.34389 0.76674 0.71249 0.0
N203 N 0.20482 0.77203 0.69797 0.0
C204 C 0.16839 0.75417 0.69621 0.0
C205 C 0.23484 0.70793 0.70299 0.0
C206 C 0.23759 0.74981 0.70177 0.0
C207 C 0.19768 0.68957 0.7006 0.0
C208 C 0.16442 0.71276 0.69709 0.0
H209 H 0.37111 0.75054 0.71489 0.0
H210 H 0.33139 0.68723 0.71294 0.0
H211 H 0.26711 0.65368 0.70858 0.0
O212 O 0.17719 0.86293 0.72159 0.0
O213 O 0.24952 0.82098 0.67619 0.0
O214 O 0.20733 0.82731 0.65281 0.0
O215 O 0.22375 0.82067 0.72675 0.0
O216 O 0.15104 0.84134 0.6889 0.0
O217 O 0.15586 0.84156 0.65843 0.0
O218 O 0.24061 0.90703 0.63282 0.0
O219 O 0.1716 0.92158 0.68144 0.0
O220 O 0.22156 0.9077 0.70022 0.0
O221 O 0.1785 0.90596 0.62703 0.0
O222 O 0.26355 0.89523 0.66309 0.0
O223 O 0.26189 0.88919 0.6937 0.0
C224 C 0.23476 0.80713 0.66148 0.0
C225 C 0.21448 0.86825 0.74808 0.0
C226 C 0.25044 0.86034 0.77535 0.0
C227 C 0.26821 0.89799 0.77315 0.0
C228 C 0.23581 0.90367 0.74481 0.0
C229 C 0.26056 0.91983 0.75782 0.0
C230 C 0.21929 0.84867 0.76419 0.0
C231 C 0.13595 0.83318 0.67316 0.0
C232 C 0.19813 0.84477 0.73359 0.0
C233 C 0.30546 0.70488 0.70985 0.0
C234 C 0.26885 0.68573 0.70714 0.0
C235 C 0.19115 0.9294 0.69633 0.0
C236 C 0.22147 0.88593 0.60376 0.0
C237 C 0.24115 0.87983 0.57207 0.0
C238 C 0.22974 0.83934 0.57307 0.0
C239 C 0.21191 0.84523 0.60401 0.0
C240 C 0.23624 0.90349 0.58764 0.0
C241 C 0.21574 0.82234 0.5888 0.0
C242 C 0.28093 0.89799 0.67879 0.0
C243 C 0.21407 0.90919 0.62029 0.0
H244 H 0.29238 0.90734 0.78171 0.0
H245 H 0.23594 0.91697 0.73188 0.0
H246 H 0.27762 0.94662 0.75511 0.0
H247 H 0.20586 0.81927 0.7658 0.0
H248 H 0.23152 0.82037 0.56151 0.0
H249 H 0.20069 0.83115 0.61601 0.0
H250 H 0.24415 0.93485 0.58732 0.0
H251 H 0.20755 0.79107 0.58916 0.0
Eu252 Eu 0.87204 0.45162 0.90211 0.0
C253 C 0.93303 0.57622 0.95051 0.0
N254 N 0.95347 0.55319 0.93892 0.0
C255 C 0.98891 0.6105 0.92805 0.0
C256 C 0.93805 0.61798 0.95044 0.0
C257 C 0.98323 0.56921 0.92883 0.0
C258 C 0.9658 0.63507 0.93872 0.0
C259 C 0.88622 0.58124 0.97487 0.0
C260 C 0.90802 0.55782 0.96282 0.0
C261 C 0.88958 0.62293 0.97422 0.0
C262 C 0.91588 0.64121 0.9622 0.0
Eu263 Eu 0.94269 0.48398 0.94094 0.0
N264 N 0.9069 0.51724 0.96374 0.0
C265 C 0.86287 0.5621 0.9877 0.0
C266 C 0.88828 0.49891 0.9777 0.0
C267 C 0.86434 0.52085 0.98926 0.0
H268 H 1.00308 0.54985 0.9219 0.0
H269 H 0.84828 0.50621 0.9999 0.0
H270 H 0.77699 0.44906 0.91656 0.0
H271 H 0.94659 0.34905 0.85775 0.0
H272 H 0.89176 0.46741 0.98007 0.0
H273 H 0.84528 0.57894 0.99706 0.0
H274 H 0.93745 0.41205 0.87438 0.0
H275 H 0.01154 0.6234 0.91953 0.0
H276 H 0.87298 0.64125 0.98339 0.0
H277 H 0.91933 0.67333 0.96228 0.0
H278 H 0.72225 0.39976 0.91968 0.0
H279 H 0.97052 0.66704 0.93824 0.0
H280 H 0.89772 0.29387 0.86136 0.0
N281 N 0.81712 0.40775 0.90507 0.0
C282 C 0.82204 0.3707 0.89827 0.0
C283 C 0.75028 0.39109 0.9138 0.0
C284 C 0.79112 0.34202 0.89924 0.0
C285 C 0.78146 0.41878 0.91218 0.0
C286 C 0.75528 0.35238 0.90749 0.0
N287 N 0.8855 0.39126 0.88775 0.0
C288 C 0.91646 0.38768 0.87609 0.0
C289 C 0.86079 0.32619 0.87988 0.0
C290 C 0.85684 0.36252 0.889 0.0
C291 C 0.89381 0.32121 0.86873 0.0
C292 C 0.92149 0.3523 0.86664 0.0
H293 H 0.73084 0.33117 0.90851 0.0
H294 H 0.77298 0.28211 0.89203 0.0
H295 H 0.83374 0.26846 0.87487 0.0
O296 O 0.88047 0.49183 0.87845 0.0
O297 O 0.91679 0.40285 0.91123 0.0
O298 O 0.93499 0.41544 0.94046 0.0
O299 O 0.8286 0.4531 0.88077 0.0
O300 O 0.92905 0.48759 0.89493 0.0
O301 O 0.96753 0.46046 0.91574 0.0
O302 O 0.97999 0.49268 0.9638 0.0
O303 O 0.90939 0.52844 0.92281 0.0
O304 O 0.84775 0.50241 0.91858 0.0
O305 O 0.00734 0.47444 0.93928 0.0
O306 O 0.89416 0.44173 0.95032 0.0
O307 O 0.84312 0.45567 0.93069 0.0
C308 C 0.93253 0.39109 0.92659 0.0
C309 C 0.82917 0.4952 0.85462 0.0
C310 C 0.82459 0.50723 0.82206 0.0
C311 C 0.78351 0.51239 0.82434 0.0
C312 C 0.78873 0.50459 0.85613 0.0
C313 C 0.76617 0.51285 0.84114 0.0
C314 C 0.84772 0.49797 0.83746 0.0
C315 C 0.96466 0.47981 0.901 0.0
C316 C 0.84882 0.47755 0.87066 0.0
C317 C 0.79627 0.30463 0.8913 0.0
C318 C 0.83091 0.29683 0.88154 0.0
C319 C 0.8703 0.53282 0.92302 0.0
C320 C 0.0358 0.45287 0.96659 0.0
C321 C 0.03759 0.43099 0.9969 0.0
C322 C 0.04727 0.39232 0.9916 0.0
C323 C 0.04522 0.41433 0.96085 0.0
C324 C 0.03901 0.46184 0.98448 0.0
C325 C 0.05372 0.38481 0.97351 0.0
C326 C 0.856 0.4429 0.94649 0.0
C327 C 0.01266 0.48125 0.95607 0.0
H328 H 0.76446 0.51564 0.81293 0.0
H329 H 0.77395 0.50353 0.86892 0.0
H330 H 0.7346 0.51834 0.8425 0.0
H331 H 0.87906 0.49143 0.83601 0.0
H332 H 0.04763 0.36802 1.00109 0.0
H333 H 0.04418 0.40663 0.94693 0.0
H334 H 0.03289 0.49206 0.98878 0.0
H335 H 0.0619 0.35538 0.96926 0.0
Eu336 Eu 0.70445 0.89567 0.9284 0.0
C337 C 0.78126 0.74991 0.88143 0.0
N338 N 0.79095 0.78739 0.8865 0.0
C339 C 0.86004 0.77029 0.88729 0.0
C340 C 0.81044 0.72018 0.88035 0.0
C341 C 0.82973 0.79802 0.88942 0.0
C342 C 0.85035 0.73134 0.88245 0.0
C343 C 0.73211 0.7039 0.86976 0.0
C344 C 0.74304 0.74239 0.8755 0.0
C345 C 0.75988 0.67294 0.8708 0.0
C346 C 0.79922 0.68118 0.87582 0.0
Eu347 Eu 0.74047 0.83538 0.88536 0.0
N348 N 0.71748 0.77329 0.87417 0.0
C349 C 0.69388 0.6979 0.86289 0.0
C350 C 0.68143 0.76823 0.86606 0.0
C351 C 0.66874 0.73039 0.86068 0.0
H352 H 0.83766 0.82831 0.89269 0.0
H353 H 0.63961 0.72632 0.85483 0.0
H354 H 0.62472 0.85772 0.95036 0.0
H355 H 0.72977 0.05236 0.90997 0.0
H356 H 0.6619 0.79332 0.86416 0.0
H357 H 0.68391 0.66861 0.85876 0.0
H358 H 0.74953 0.98517 0.91896 0.0
H359 H 0.89084 0.77913 0.88908 0.0
H360 H 0.75156 0.6428 0.86728 0.0
H361 H 0.821 0.65758 0.87551 0.0
H362 H 0.55338 0.87341 0.95428 0.0
H363 H 0.87394 0.71033 0.88004 0.0
H364 H 0.65851 0.06985 0.90871 0.0
N365 N 0.63714 0.90971 0.93501 0.0
C366 C 0.6236 0.94541 0.92914 0.0
C367 C 0.57273 0.89378 0.94707 0.0
C368 C 0.58329 0.95583 0.93127 0.0
C369 C 0.61303 0.88496 0.94479 0.0
C370 C 0.5576 0.92898 0.93994 0.0
N371 N 0.6899 0.96327 0.92188 0.0
C372 C 0.71828 0.99186 0.91835 0.0
C373 C 0.63823 0.01158 0.91756 0.0
C374 C 0.65079 0.97303 0.9224 0.0
C375 C 0.66697 0.03996 0.91253 0.0
C376 C 0.70722 0.03025 0.91326 0.0
H377 H 0.52641 0.93584 0.9418 0.0
H378 H 0.53931 1.00159 0.92674 0.0
H379 H 0.58746 0.05038 0.9147 0.0
O380 O 0.74835 0.88813 0.94982 0.0
O381 O 0.70595 0.92354 0.89973 0.0
O382 O 0.684 0.87164 0.88354 0.0
O383 O 0.69531 0.92095 0.95494 0.0
O384 O 0.76558 0.9168 0.91929 0.0
O385 O 0.78628 0.87857 0.89556 0.0
O386 O 0.76755 0.82872 0.8596 0.0
O387 O 0.76819 0.82838 0.91221 0.0
O388 O 0.7157 0.82759 0.9307 0.0
O389 O 0.75137 0.88717 0.8682 0.0
O390 O 0.6776 0.81468 0.8948 0.0
O391 O 0.6579 0.84818 0.92045 0.0
C392 C 0.68576 0.91022 0.88581 0.0
C393 C 0.72302 0.88651 0.9795 0.0
C394 C 0.73202 0.88308 1.01215 0.0
C395 C 0.70904 0.84784 1.0122 0.0
C396 C 0.70043 0.85124 0.98036 0.0
C397 C 0.69364 0.83213 0.99653 0.0
C398 C 0.73939 0.90238 0.99552 0.0
C399 C 0.7914 0.9077 0.90685 0.0
C400 C 0.72762 0.9066 0.96187 0.0
C401 C 0.57027 0.99328 0.92542 0.0
C402 C 0.59769 0.02109 0.91857 0.0
C403 C 0.74787 0.81009 0.92451 0.0
C404 C 0.74633 0.87288 0.83777 0.0
C405 C 0.72206 0.82852 0.81575 0.0
C406 C 0.74181 0.85055 0.80243 0.0
C407 C 0.7676 0.89466 0.82491 0.0
C408 C 0.71737 0.84554 0.8324 0.0
C409 C 0.76288 0.88521 0.80697 0.0
C410 C 0.65154 0.82178 0.90771 0.0
C411 C 0.76414 0.86606 0.85512 0.0
H412 H 0.70316 0.83204 1.02451 0.0
H413 H 0.68773 0.83854 0.96843 0.0
H414 H 0.67608 0.80492 0.99696 0.0
H415 H 0.75686 0.92967 0.99509 0.0
H416 H 0.74518 0.83841 0.78923 0.0
H417 H 0.79041 0.91591 0.82874 0.0
H418 H 0.7017 0.82845 0.84249 0.0
H419 H 0.77993 0.90117 0.79698 0.0
Eu420 Eu 0.36503 0.44897 0.67654 0.0
C421 C 0.51569 0.53854 0.62922 0.0
N422 N 0.4795 0.54209 0.63695 0.0
C423 C 0.48955 0.61262 0.63984 0.0
C424 C 0.54051 0.57215 0.62648 0.0
C425 C 0.46574 0.57855 0.64191 0.0
C426 C 0.52724 0.6094 0.63215 0.0
C427 C 0.56275 0.49712 0.61364 0.0
C428 C 0.52652 0.50167 0.62288 0.0
C429 C 0.5874 0.53056 0.61062 0.0
C430 C 0.57657 0.5679 0.61725 0.0
Eu431 Eu 0.43563 0.48739 0.63435 0.0
N432 N 0.5004 0.47086 0.62467 0.0
C433 C 0.57256 0.45936 0.60728 0.0
C434 C 0.50869 0.4346 0.61743 0.0
C435 C 0.54541 0.42789 0.60925 0.0
H436 H 0.43593 0.58156 0.64711 0.0
H437 H 0.5521 0.39886 0.60386 0.0
H438 H 0.40353 0.36801 0.6965 0.0
H439 H 0.20948 0.47481 0.65859 0.0
H440 H 0.48653 0.41099 0.61753 0.0
H441 H 0.60045 0.45448 0.60041 0.0
H442 H 0.27776 0.49405 0.66694 0.0
H443 H 0.47853 0.6414 0.64387 0.0
H444 H 0.61511 0.52777 0.60336 0.0
H445 H 0.59592 0.59339 0.61488 0.0
H446 H 0.38657 0.29649 0.7002 0.0
H447 H 0.54539 0.63595 0.63026 0.0
H448 H 0.18998 0.40359 0.6578 0.0
N449 N 0.35055 0.38117 0.68237 0.0
C450 C 0.31419 0.3679 0.67699 0.0
C451 C 0.36608 0.31619 0.69354 0.0
C452 C 0.30302 0.32753 0.67906 0.0
C453 C 0.37564 0.35657 0.69138 0.0
C454 C 0.3299 0.30145 0.68708 0.0
N455 N 0.29751 0.43443 0.67009 0.0
C456 C 0.26977 0.46296 0.66661 0.0
C457 C 0.24791 0.38297 0.66621 0.0
C458 C 0.28687 0.39533 0.67069 0.0
C459 C 0.22016 0.4119 0.66137 0.0
C460 C 0.23099 0.45213 0.66185 0.0
H461 H 0.32245 0.27021 0.68888 0.0
H462 H 0.256 0.28381 0.67504 0.0
H463 H 0.20781 0.33236 0.66374 0.0
O464 O 0.37161 0.49185 0.69855 0.0
O465 O 0.33778 0.4511 0.64791 0.0
O466 O 0.39407 0.43423 0.6337 0.0
O467 O 0.33783 0.43843 0.70276 0.0
O468 O 0.34875 0.51125 0.6668 0.0
O469 O 0.38361 0.52718 0.6409 0.0
O470 O 0.42041 0.46934 0.60752 0.0
O471 O 0.43105 0.51103 0.66196 0.0
O472 O 0.4321 0.45975 0.68078 0.0
O473 O 0.42617 0.53162 0.61366 0.0
O474 O 0.45956 0.42918 0.64657 0.0
O475 O 0.41213 0.40357 0.66683 0.0
C476 C 0.35549 0.4383 0.63332 0.0
C477 C 0.37067 0.46497 0.72814 0.0
C478 C 0.37274 0.47367 0.76093 0.0
C479 C 0.40608 0.44878 0.76129 0.0
C480 C 0.40421 0.44063 0.72937 0.0
C481 C 0.42165 0.43269 0.74574 0.0
C482 C 0.35501 0.48209 0.74409 0.0
C483 C 0.35609 0.53439 0.65291 0.0
C484 C 0.35207 0.47042 0.71021 0.0
C485 C 0.26494 0.31479 0.67373 0.0
C486 C 0.23747 0.34244 0.6673 0.0
C487 C 0.44964 0.49184 0.67436 0.0
C488 C 0.37893 0.51447 0.59235 0.0
C489 C 0.35096 0.53467 0.56407 0.0
C490 C 0.31622 0.54675 0.57289 0.0
C491 C 0.34322 0.52426 0.60089 0.0
C492 C 0.38217 0.51866 0.57412 0.0
C493 C 0.31196 0.5404 0.59114 0.0
C494 C 0.44482 0.40018 0.65685 0.0
C495 C 0.41537 0.50552 0.602 0.0
H496 H 0.42054 0.44204 0.77376 0.0
H497 H 0.41682 0.42736 0.71757 0.0
H498 H 0.44749 0.41374 0.74641 0.0
H499 H 0.32923 0.50116 0.74342 0.0
H500 H 0.29224 0.56081 0.56573 0.0
H501 H 0.33972 0.52059 0.61501 0.0
H502 H 0.41074 0.51234 0.56805 0.0
H503 H 0.28476 0.54888 0.59781 0.0
Eu504 Eu 0.81174 0.12165 0.42692 0.0
C505 C 0.74065 0.25984 0.37785 0.0
N506 N 0.73309 0.22146 0.38263 0.0
C507 C 0.66279 0.23301 0.38151 0.0
C508 C 0.70924 0.28664 0.37498 0.0
C509 C 0.69486 0.20749 0.38403 0.0
C510 C 0.66998 0.27266 0.3768 0.0
C511 C 0.78836 0.31107 0.36909 0.0
C512 C 0.77965 0.27146 0.37427 0.0
C513 C 0.75733 0.3384 0.36717 0.0
C514 C 0.71785 0.326 0.36974 0.0
Eu515 Eu 0.78714 0.17762 0.38099 0.0
N516 N 0.80855 0.24343 0.37447 0.0
C517 C 0.82783 0.32163 0.36522 0.0
C518 C 0.84615 0.25284 0.36886 0.0
C519 C 0.8569 0.2923 0.36512 0.0
H520 H 0.68922 0.17636 0.38672 0.0
H521 H 0.88717 0.2997 0.36128 0.0
H522 H 0.90448 0.14509 0.44102 0.0
H523 H 0.74872 0.97291 0.41623 0.0
H524 H 0.86751 0.22988 0.36649 0.0
H525 H 0.83582 0.35189 0.36151 0.0
H526 H 0.74735 0.04486 0.42263 0.0
H527 H 0.63256 0.22182 0.38273 0.0
H528 H 0.76345 0.36883 0.36306 0.0
H529 H 0.69416 0.34697 0.36731 0.0
H530 H 0.97131 0.11537 0.44128 0.0
H531 H 0.64501 0.29217 0.37445 0.0
H532 H 0.8133 0.93845 0.41371 0.0
N533 N 0.8763 0.09425 0.42985 0.0
C534 C 0.87996 0.05497 0.42591 0.0
C535 C 0.946 0.09821 0.43663 0.0
C536 C 0.91735 0.0362 0.4264 0.0
C537 C 0.90823 0.11533 0.43607 0.0
C538 C 0.95073 0.05864 0.43145 0.0
N539 N 0.81023 0.05168 0.42267 0.0
C540 C 0.77557 0.03037 0.42123 0.0
C541 C 0.84818 0.9917 0.419 0.0
C542 C 0.84587 0.0329 0.4224 0.0
C543 C 0.8128 0.97014 0.41637 0.0
C544 C 0.7763 0.98949 0.41776 0.0
H545 H 0.97996 0.04532 0.43203 0.0
H546 H 0.94856 0.98064 0.42252 0.0
H547 H 0.88795 0.94171 0.41593 0.0
O548 O 0.76764 0.11997 0.44874 0.0
O549 O 0.81416 0.08823 0.39958 0.0
O550 O 0.83933 0.13607 0.38116 0.0
O551 O 0.82948 0.11521 0.45484 0.0
O552 O 0.74601 0.11911 0.41839 0.0
O553 O 0.75074 0.1229 0.38797 0.0
O554 O 0.7814 0.194 0.3532 0.0
O555 O 0.75661 0.19307 0.40664 0.0
O556 O 0.80611 0.18975 0.42684 0.0
O557 O 0.75878 0.13708 0.36223 0.0
O558 O 0.85362 0.18332 0.38941 0.0
O559 O 0.85701 0.17206 0.41993 0.0
C560 C 0.83328 0.09836 0.38474 0.0
C561 C 0.78422 0.08811 0.47636 0.0
C562 C 0.76433 0.07444 0.50758 0.0
C563 C 0.76885 0.03363 0.50421 0.0
C564 C 0.78839 0.04706 0.47372 0.0
C565 C 0.78083 0.02017 0.48753 0.0
C566 C 0.7722 0.10189 0.49347 0.0
C567 C 0.73103 0.11323 0.40239 0.0
C568 C 0.79366 0.11618 0.46141 0.0
C569 C 0.92004 0.99546 0.42238 0.0
C570 C 0.88553 0.97327 0.41867 0.0
C571 C 0.77621 0.20894 0.41971 0.0
C572 C 0.77923 0.14179 0.33257 0.0
C573 C 0.83049 0.14039 0.3098 0.0
C574 C 0.80506 0.11658 0.29928 0.0
C575 C 0.75307 0.1212 0.32143 0.0
C576 C 0.81837 0.14875 0.32724 0.0
C577 C 0.76659 0.10706 0.30513 0.0
C578 C 0.87267 0.18601 0.40487 0.0
C579 C 0.76455 0.16042 0.34871 0.0
H580 H 0.76306 0.01193 0.51461 0.0
H581 H 0.79778 0.03576 0.46095 0.0
H582 H 0.78426 0.98856 0.48529 0.0
H583 H 0.76882 0.13353 0.49574 0.0
H584 H 0.81382 0.10713 0.28616 0.0
H585 H 0.7224 0.11593 0.32538 0.0
H586 H 0.83732 0.16534 0.33618 0.0
H587 H 0.74668 0.09016 0.2967 0.0
Eu588 Eu 0.06685 0.52101 0.14509 0.0
C589 C 0.21241 0.63547 0.17626 0.0
N590 N 0.20747 0.59562 0.17433 0.0
C591 C 0.27578 0.58961 0.1654 0.0
C592 C 0.24915 0.6543 0.17243 0.0
C593 C 0.23881 0.57232 0.16955 0.0
C594 C 0.28085 0.63087 0.16662 0.0
C595 C 0.18611 0.69777 0.18702 0.0
C596 C 0.18141 0.65687 0.18334 0.0
C597 C 0.22187 0.71727 0.18237 0.0
C598 C 0.25337 0.69555 0.17507 0.0
Eu599 Eu 0.14254 0.56942 0.17903 0.0
N600 N 0.14771 0.6369 0.18793 0.0
C601 C 0.15534 0.71738 0.1959 0.0
C602 C 0.11908 0.65498 0.1979 0.0
C603 C 0.12198 0.69568 0.20166 0.0
H604 H 0.23525 0.54038 0.16865 0.0
H605 H 0.09851 0.71026 0.20897 0.0
H606 H 0.03011 0.43788 0.16344 0.0
H607 H 0.10068 0.5396 0.07478 0.0
H608 H 0.09324 0.63816 0.20234 0.0
H609 H 0.15767 0.74885 0.1989 0.0
H610 H 0.07394 0.55978 0.1036 0.0
H611 H 0.30033 0.5711 0.1613 0.0
H612 H 0.22593 0.74881 0.18489 0.0
H613 H 0.28123 0.71069 0.17204 0.0
H614 H 0.03404 0.36486 0.1592 0.0
H615 H 0.30957 0.64418 0.16351 0.0
H616 H 0.12503 0.47018 0.0704 0.0
N617 N 0.0636 0.45165 0.14036 0.0
C618 C 0.08228 0.43768 0.12584 0.0
C619 C 0.04799 0.38499 0.14975 0.0
C620 C 0.08603 0.39647 0.1229 0.0
C621 C 0.04569 0.42622 0.15213 0.0
C622 C 0.06875 0.37 0.13516 0.0
N623 N 0.08466 0.50366 0.11577 0.0
C624 C 0.08488 0.52982 0.1019 0.0
C625 C 0.10961 0.45175 0.09692 0.0
C626 C 0.09378 0.46486 0.11312 0.0
C627 C 0.11431 0.47956 0.08326 0.0
C628 C 0.10046 0.51846 0.08557 0.0
H629 H 0.07034 0.33809 0.13325 0.0
H630 H 0.10916 0.35174 0.10506 0.0
H631 H 0.12999 0.4004 0.08217 0.0
O632 O 0.00756 0.50079 0.13738 0.0
O633 O 0.1083 0.48244 0.16178 0.0
O634 O 0.16678 0.5161 0.16347 0.0
O635 O 0.01394 0.55254 0.15381 0.0
O636 O 0.11136 0.56302 0.13191 0.0
O637 O 0.16735 0.56348 0.14978 0.0
O638 O 0.1346 0.52032 0.19827 0.0
O639 O 0.09598 0.61354 0.16957 0.0
O640 O 0.06546 0.5902 0.1439 0.0
O641 O 0.16833 0.57224 0.20583 0.0
O642 O 0.07451 0.56482 0.18509 0.0
O643 O 0.07498 0.50528 0.17358 0.0
C644 C 0.14727 0.48293 0.16006 0.0
C645 C 0.96459 0.55463 0.13217 0.0
C646 C 0.9435 0.56889 0.10222 0.0
C647 C 0.91704 0.59766 0.10833 0.0
C648 C 0.93857 0.58391 0.13842 0.0
C649 C 0.91503 0.60552 0.12651 0.0
C650 C 0.96761 0.54833 0.11402 0.0
C651 C 0.15002 0.56702 0.13389 0.0
C652 C 0.98986 0.53156 0.14418 0.0
C653 C 0.10514 0.38326 0.10745 0.0
C654 C 0.11711 0.41097 0.09445 0.0
C655 C 0.07316 0.61887 0.1556 0.0
C656 C 0.17587 0.51391 0.22405 0.0
C657 C 0.18669 0.48791 0.25447 0.0
C658 C 0.21748 0.4643 0.24761 0.0
C659 C 0.20673 0.48986 0.21788 0.0
C660 C 0.16604 0.51322 0.2425 0.0
C661 C 0.2274 0.4654 0.22961 0.0
C662 C 0.05779 0.52937 0.18442 0.0
C663 C 0.15299 0.53846 0.21118 0.0
H664 H 0.8979 0.61337 0.09918 0.0
H665 H 0.93715 0.59072 0.15236 0.0
H666 H 0.89493 0.62797 0.13141 0.0
H667 H 0.98798 0.52622 0.10887 0.0
H668 H 0.23403 0.44471 0.25628 0.0
H669 H 0.21463 0.48978 0.20393 0.0
H670 H 0.14185 0.53132 0.24737 0.0
H671 H 0.25114 0.44683 0.22468 0.0
Eu672 Eu 0.77681 0.67679 0.69731 0.0
C673 C 0.88576 0.57146 0.65428 0.0
N674 N 0.87728 0.61015 0.65059 0.0
C675 C 0.94672 0.62409 0.64571 0.0
C676 C 0.9254 0.55794 0.65449 0.0
C677 C 0.90693 0.63598 0.64553 0.0
C678 C 0.95606 0.58505 0.65047 0.0
C679 C 0.86207 0.50417 0.66037 0.0
C680 C 0.85459 0.54481 0.65709 0.0
C681 C 0.90153 0.49091 0.66123 0.0
C682 C 0.93313 0.51772 0.65829 0.0
Eu683 Eu 0.80912 0.6281 0.65222 0.0
N684 N 0.81676 0.55866 0.65647 0.0
C685 C 0.82962 0.47803 0.66245 0.0
C686 C 0.78506 0.53297 0.65747 0.0
C687 C 0.79094 0.49243 0.66076 0.0
H688 H 0.90013 0.66581 0.64115 0.0
H689 H 0.76565 0.47234 0.66197 0.0
H690 H 0.68104 0.68432 0.68909 0.0
H691 H 0.88046 0.78325 0.72785 0.0
H692 H 0.75526 0.54387 0.65603 0.0
H693 H 0.83412 0.44661 0.66503 0.0
H694 H 0.85957 0.71888 0.7156 0.0
H695 H 0.97012 0.64496 0.64204 0.0
H696 H 0.90791 0.45986 0.66388 0.0
H697 H 0.96341 0.50691 0.65865 0.0
H698 H 0.62576 0.72977 0.69607 0.0
H699 H 0.9869 0.57586 0.65049 0.0
H700 H 0.83121 0.8367 0.73192 0.0
N701 N 0.72606 0.72455 0.69785 0.0
C702 C 0.73436 0.75913 0.70635 0.0
C703 C 0.65617 0.73863 0.69884 0.0
C704 C 0.70363 0.7851 0.71139 0.0
C705 C 0.68754 0.71341 0.69456 0.0
C706 C 0.66421 0.77449 0.70746 0.0
N707 N 0.80061 0.73772 0.70938 0.0
C708 C 0.8384 0.74285 0.71576 0.0
C709 C 0.78293 0.80259 0.7203 0.0
C710 C 0.77315 0.7667 0.71157 0.0
C711 C 0.82238 0.80922 0.72547 0.0
C712 C 0.85023 0.77911 0.72322 0.0
H713 H 0.63977 0.79356 0.71121 0.0
H714 H 0.68981 0.84026 0.72486 0.0
H715 H 0.75957 0.85701 0.73148 0.0
O716 O 0.76519 0.67833 0.72607 0.0
O717 O 0.74685 0.69365 0.67186 0.0
O718 O 0.79711 0.69594 0.65211 0.0
O719 O 0.74089 0.63136 0.70947 0.0
O720 O 0.84381 0.68374 0.68983 0.0
O721 O 0.8445 0.68473 0.65931 0.0
O722 O 0.76791 0.61951 0.62975 0.0
O723 O 0.81304 0.59277 0.67975 0.0
O724 O 0.83241 0.6407 0.69914 0.0
O725 O 0.83033 0.62623 0.6247 0.0
O726 O 0.74265 0.61949 0.6583 0.0
O727 O 0.74486 0.62015 0.68859 0.0
C728 C 0.76571 0.71251 0.65937 0.0
C729 C 0.7341 0.62115 0.73959 0.0
C730 C 0.7562 0.59769 0.76796 0.0
C731 C 0.71778 0.58093 0.77098 0.0
C732 C 0.69558 0.6068 0.74297 0.0
C733 C 0.68798 0.58475 0.75827 0.0
C734 C 0.7649 0.61237 0.75097 0.0
C735 C 0.86102 0.6939 0.67461 0.0
C736 C 0.74063 0.6479 0.72487 0.0
C737 C 0.71302 0.82009 0.72073 0.0
C738 C 0.75274 0.82958 0.72454 0.0
C739 C 0.83016 0.60304 0.69508 0.0
C740 C 0.79308 0.59134 0.60285 0.0
C741 C 0.77771 0.57322 0.57171 0.0
C742 C 0.79433 0.53555 0.57515 0.0
C743 C 0.80824 0.55313 0.60562 0.0
C744 C 0.77772 0.60151 0.58577 0.0
C745 C 0.80903 0.52565 0.59186 0.0
C746 C 0.72634 0.61132 0.67381 0.0
C747 C 0.79549 0.62075 0.61757 0.0
H748 H 0.70914 0.56787 0.78354 0.0
H749 H 0.67137 0.61342 0.73402 0.0
H750 H 0.65827 0.5734 0.76091 0.0
H751 H 0.79471 0.62155 0.7472 0.0
H752 H 0.79638 0.51343 0.56479 0.0
H753 H 0.82025 0.54473 0.6184 0.0
H754 H 0.76574 0.63095 0.58354 0.0
H755 H 0.82148 0.49644 0.59411 0.0
Eu756 Eu 0.10084 0.03364 0.94797 0.0
C757 C 0.21759 0.1389 0.90254 0.0
N758 N 0.17822 0.13441 0.89888 0.0
C759 C 0.174 0.20375 0.89138 0.0
C760 C 0.23636 0.17662 0.90147 0.0
C761 C 0.15673 0.16577 0.89265 0.0
C762 C 0.21382 0.20936 0.89611 0.0
C763 C 0.28102 0.10869 0.90956 0.0
C764 C 0.23973 0.10534 0.90641 0.0
C765 C 0.29941 0.14644 0.90936 0.0
C766 C 0.27714 0.18032 0.90529 0.0
Eu767 Eu 0.15087 0.06976 0.90299 0.0
N768 N 0.2211 0.06921 0.90653 0.0
C769 C 0.30279 0.0739 0.91238 0.0
C770 C 0.24279 0.0351 0.90787 0.0
C771 C 0.28368 0.03691 0.91121 0.0
H772 H 0.12614 0.16153 0.8886 0.0
H773 H 0.30051 0.00976 0.91268 0.0
H774 H 0.10912 0.93604 0.94173 0.0
H775 H 0.97654 0.11591 0.9768 0.0
H776 H 0.22902 0.00633 0.90621 0.0
H777 H 0.33454 0.07522 0.91487 0.0
H778 H 0.0469 0.10442 0.96902 0.0
H779 H 0.15663 0.22864 0.8867 0.0
H780 H 0.33101 0.14963 0.91191 0.0
H781 H 0.29194 0.20913 0.90472 0.0
H782 H 0.06612 0.87578 0.94219 0.0
H783 H 0.22715 0.23881 0.89507 0.0
H784 H 0.92609 0.06344 0.97125 0.0
N785 N 0.06137 0.97573 0.94613 0.0
C786 C 0.02236 0.97976 0.95044 0.0
C787 C 0.05332 0.90487 0.94428 0.0
C788 C 0.99666 0.94628 0.95086 0.0
C789 C 0.07751 0.93896 0.9438 0.0
C790 C 0.01265 0.90857 0.9477 0.0
N791 N 0.03569 0.04703 0.95805 0.0
C792 C 0.02498 0.08145 0.96632 0.0
C793 C 0.96884 0.02137 0.96113 0.0
C794 C 0.00892 0.01674 0.95603 0.0
C795 C 0.95687 0.05817 0.96785 0.0
C796 C 0.98524 0.08797 0.9709 0.0
H797 H 0.99397 0.88208 0.94819 0.0
H798 H 0.93613 0.92585 0.95555 0.0
H799 H 0.91203 0.99135 0.96478 0.0
O800 O 0.09105 0.00952 0.9742 0.0
O801 O 0.086 1.00528 0.92186 0.0
O802 O 0.0833 0.059 0.90394 0.0
O803 O 0.15072 0.02341 0.966 0.0
O804 O 0.07847 0.09688 0.94004 0.0
O805 O 0.10299 0.11486 0.91193 0.0
O806 O 0.15122 0.02719 0.88081 0.0
O807 O 0.18408 0.07498 0.93045 0.0
O808 O 0.13286 0.09258 0.94823 0.0
O809 O 0.15295 0.08973 0.87519 0.0
O810 O 0.15617 1.00311 0.90908 0.0
O811 O 0.15785 1.00406 0.93936 0.0
C812 C 0.06702 0.02585 0.90995 0.0
C813 C 0.13452 0.03146 0.99616 0.0
C814 C 0.09023 0.05664 1.01804 0.0
C815 C 0.11169 0.03729 1.03147 0.0
C816 C 0.15622 0.0114 1.00923 0.0
C817 C 0.14629 0.01652 1.0271 0.0
C818 C 0.10705 0.06016 1.0012 0.0
C819 C 0.08041 0.12169 0.92614 0.0
C820 C 0.12809 0.01244 0.97905 0.0
C821 C 0.95642 0.95115 0.95529 0.0
C822 C 0.94258 0.9886 0.96037 0.0
C823 C 0.17109 0.09268 0.94512 0.0
C824 C 0.17872 0.04706 0.85278 0.0
C825 C 0.18824 0.03136 0.82102 0.0
C826 C 0.22937 0.03705 0.82332 0.0
C827 C 0.21997 0.05228 0.85449 0.0
C828 C 0.16281 0.03621 0.83595 0.0
C829 C 0.24501 0.04725 0.83987 0.0
C830 C 0.16527 0.98648 0.92436 0.0
C831 C 0.15241 0.05421 0.86837 0.0
H832 H 0.09946 0.03449 0.04473 0.0
H833 H 0.17774 0.98901 1.00563 0.0
H834 H 0.16204 1.00016 1.03724 0.0
H835 H 0.09012 0.0751 0.99096 0.0
H836 H 0.24956 0.03349 0.81221 0.0
H837 H 0.23279 0.0606 0.86713 0.0
H838 H 0.13096 0.03208 0.83444 0.0
H839 H 0.27681 0.0515 0.84135 0.0
Eu840 Eu 0.72564 0.34754 0.20112 0.0
C841 C 0.63369 0.46471 0.1517 0.0
N842 N 0.63789 0.42525 0.14833 0.0
C843 C 0.56943 0.42092 0.13946 0.0
C844 C 0.59648 0.48343 0.14992 0.0
C845 C 0.607 0.40385 0.14137 0.0
C846 C 0.56394 0.46072 0.1441 0.0
C847 C 0.66453 0.52834 0.15868 0.0
C848 C 0.66723 0.48696 0.15582 0.0
C849 C 0.62721 0.54676 0.15785 0.0
C850 C 0.59326 0.52436 0.15343 0.0
Eu851 Eu 0.70167 0.39773 0.15351 0.0
N852 N 0.70281 0.46816 0.15659 0.0
C853 C 0.69954 0.55007 0.1619 0.0
C854 C 0.73728 0.4897 0.15836 0.0
C855 C 0.73615 0.53074 0.16142 0.0
H856 H 0.6116 0.37389 0.13683 0.0
H857 H 0.76353 0.54747 0.16327 0.0
H858 H 0.82324 0.3669 0.20038 0.0
H859 H 0.64781 0.20904 0.21916 0.0
H860 H 0.76574 0.47544 0.1574 0.0
H861 H 0.69873 0.58189 0.16421 0.0
H862 H 0.65441 0.28076 0.21303 0.0
H863 H 0.54492 0.40351 0.1342 0.0
H864 H 0.62445 0.57846 0.16017 0.0
H865 H 0.56484 0.53916 0.15233 0.0
H866 H 0.88668 0.33202 0.20399 0.0
H867 H 0.53488 0.47399 0.14249 0.0
H868 H 0.70809 0.16747 0.22083 0.0
N869 N 0.78747 0.31468 0.20259 0.0
C870 C 0.78663 0.27542 0.20686 0.0
C871 C 0.85882 0.31555 0.20459 0.0
C872 C 0.82223 0.25433 0.20971 0.0
C873 C 0.82277 0.33521 0.20217 0.0
C874 C 0.85859 0.27482 0.20828 0.0
N875 N 0.71652 0.279 0.20804 0.0
C876 C 0.68037 0.26254 0.21218 0.0
C877 C 0.74818 0.21631 0.21432 0.0
C878 C 0.75007 0.25686 0.20932 0.0
C879 C 0.71082 0.19868 0.21725 0.0
C880 C 0.67676 0.22199 0.21625 0.0
H881 H 0.88653 0.25968 0.2104 0.0
H882 H 0.84745 0.19726 0.21671 0.0
H883 H 0.78266 0.1641 0.22099 0.0
O884 O 0.72207 0.33814 0.23014 0.0
O885 O 0.75992 0.33165 0.17669 0.0
O886 O 0.71201 0.32997 0.1557 0.0
O887 O 0.74545 0.39397 0.21871 0.0
O888 O 0.66177 0.33123 0.19091 0.0
O889 O 0.65425 0.34931 0.16101 0.0
O890 O 0.686 0.39243 0.12535 0.0
O891 O 0.69436 0.4334 0.18027 0.0
O892 O 0.67061 0.3831 0.19707 0.0
O893 O 0.74619 0.40615 0.13201 0.0
O894 O 0.76677 0.40166 0.16258 0.0
O895 O 0.75962 0.4039 0.19289 0.0
C896 C 0.74238 0.31316 0.16371 0.0
C897 C 0.74693 0.38966 0.25043 0.0
C898 C 0.77225 0.37839 0.28003 0.0
C899 C 0.77884 0.41942 0.28212 0.0
C900 C 0.75721 0.43009 0.25206 0.0
C901 C 0.77082 0.44533 0.26813 0.0
C902 C 0.75321 0.3641 0.26475 0.0
C903 C 0.64133 0.33072 0.17566 0.0
C904 C 0.73881 0.37287 0.2329 0.0
C905 C 0.82044 0.21393 0.21448 0.0
C906 C 0.78353 0.19501 0.21682 0.0
C907 C 0.67526 0.42122 0.19479 0.0
C908 C 0.72353 0.42676 0.10308 0.0
C909 C 0.73875 0.43896 0.0712 0.0
C910 C 0.72021 0.47609 0.0727 0.0
C911 C 0.70569 0.46428 0.10386 0.0
C912 C 0.74053 0.41415 0.08661 0.0
C913 C 0.70409 0.48861 0.08882 0.0
C914 C 0.7799 0.41232 0.17838 0.0
C915 C 0.72131 0.40011 0.11906 0.0
H916 H 0.79369 0.43074 0.29382 0.0
H917 H 0.75699 0.44924 0.24061 0.0
H918 H 0.77836 0.47663 0.26925 0.0
H919 H 0.74928 0.33224 0.2629 0.0
H920 H 0.7182 0.49564 0.06127 0.0
H921 H 0.69227 0.47453 0.11608 0.0
H922 H 0.75418 0.38512 0.08571 0.0
H923 H 0.68985 0.51735 0.08962 0.0
Eu924 Eu 0.37086 0.95212 0.40378 0.0
C925 C 0.46184 0.08148 0.44572 0.0
N926 N 0.47712 0.05018 0.43664 0.0
C927 C 0.5336 0.08983 0.42812 0.0
C928 C 0.48088 0.11918 0.44518 0.0
C929 C 0.51318 0.05333 0.4286 0.0
C930 C 0.51695 0.12312 0.43606 0.0
C931 C 0.41023 0.10872 0.46454 0.0
C932 C 0.42749 0.07583 0.45579 0.0
C933 C 0.42882 0.14629 0.46373 0.0
C934 C 0.4641 0.15148 0.45413 0.0
Eu935 Eu 0.44557 0.98815 0.44045 0.0
N936 N 0.41015 0.03887 0.45645 0.0
C937 C 0.37426 0.10326 0.47357 0.0
C938 C 0.37412 0.03441 0.46471 0.0
C939 C 0.35593 0.066 0.47348 0.0
H940 H 0.52636 0.02722 0.42299 0.0
H941 H 0.3273 0.06168 0.47987 0.0
H942 H 0.27663 0.95336 0.41824 0.0
H943 H 0.44352 0.84238 0.36153 0.0
H944 H 0.35747 0.00786 0.4638 0.0
H945 H 0.35995 0.12775 0.4803 0.0
H946 H 0.43505 0.908 0.37602 0.0
H947 H 0.56227 0.09249 0.42173 0.0
H948 H 0.41616 0.1716 0.47051 0.0
H949 H 0.47828 0.18061 0.45376 0.0
H950 H 0.21965 0.9065 0.42152 0.0
H951 H 0.53276 0.1514 0.43552 0.0
H952 H 0.39325 0.78896 0.36629 0.0
N953 N 0.31452 0.91023 0.40665 0.0
C954 C 0.31809 0.87268 0.4003 0.0
C955 C 0.24722 0.89654 0.41563 0.0
C956 C 0.28617 0.8452 0.40158 0.0
C957 C 0.27951 0.92287 0.41384 0.0
C958 C 0.25067 0.8574 0.40962 0.0
N959 N 0.3822 0.89041 0.38968 0.0
C960 C 0.41334 0.88446 0.37825 0.0
C961 C 0.35599 0.82506 0.3832 0.0
C962 C 0.35279 0.86256 0.39142 0.0
C963 C 0.38963 0.81746 0.37276 0.0
C964 C 0.41809 0.84754 0.37004 0.0
H965 H 0.22546 0.83716 0.41085 0.0
H966 H 0.2661 0.78535 0.39529 0.0
H967 H 0.32715 0.76779 0.3791 0.0
O968 O 0.3796 0.9908 0.38019 0.0
O969 O 0.41742 0.90505 0.4116 0.0
O970 O 0.438 0.91963 0.44012 0.0
O971 O 0.32368 0.96122 0.38399 0.0
O972 O 0.42861 0.98608 0.39524 0.0
O973 O 0.47225 0.96437 0.41575 0.0
O974 O 0.47585 0.99827 0.46512 0.0
O975 O 0.412 0.03197 0.4222 0.0
O976 O 0.35095 1.00294 0.42109 0.0
O977 O 0.50726 0.96809 0.44407 0.0
O978 O 0.39894 0.94853 0.45239 0.0
O979 O 0.3448 0.95053 0.4333 0.0
C980 C 0.43518 0.89473 0.42654 0.0
C981 C 0.34576 0.96896 0.35382 0.0
C982 C 0.34648 0.98078 0.32116 0.0
C983 C 0.34648 0.93939 0.31873 0.0
C984 C 0.34453 0.92791 0.35037 0.0
C985 C 0.34548 0.91338 0.33312 0.0
C986 C 0.34651 0.99582 0.33894 0.0
C987 C 0.46545 0.97895 0.4002 0.0
C988 C 0.34542 0.98219 0.37296 0.0
C989 C 0.29019 0.80697 0.39432 0.0
C990 C 0.32499 0.79696 0.38512 0.0
C991 C 0.37279 0.03527 0.42237 0.0
C992 C 0.51889 0.94727 0.47376 0.0
C993 C 0.50316 0.93744 0.50442 0.0
C994 C 0.54359 0.93004 0.50807 0.0
C995 C 0.55933 0.94087 0.47706 0.0
C996 C 0.49102 0.93604 0.4867 0.0
C997 C 0.57129 0.92942 0.49411 0.0
C998 C 0.36089 0.94284 0.44927 0.0
C999 C 0.50708 0.97769 0.46076 0.0
H1000 H 0.34661 0.92701 0.30547 0.0
H1001 H 0.34223 0.90663 0.36105 0.0
H1002 H 0.34487 0.88154 0.33089 0.0
H1003 H 0.34658 0.02768 0.34115 0.0
H1004 H 0.55455 0.92918 0.52154 0.0
H1005 H 0.5816 0.94794 0.46708 0.0
H1006 H 0.45958 0.9387 0.48371 0.0
H1007 H 0.60257 0.92538 0.49691 0.0
Eu1008 Eu 0.20405 0.3962 0.42666 0.0
C1009 C 0.26349 0.23973 0.37984 0.0
N1010 N 0.28101 0.27412 0.38509 0.0
C1011 C 0.3439 0.24176 0.38715 0.0
C1012 C 0.28496 0.20392 0.37933 0.0
C1013 C 0.32072 0.2759 0.38859 0.0
C1014 C 0.32572 0.20527 0.38306 0.0
C1015 C 0.20618 0.2064 0.36722 0.0
C1016 C 0.22508 0.24117 0.37358 0.0
C1017 C 0.22613 0.16987 0.36813 0.0
C1018 C 0.26572 0.16868 0.37395 0.0
Eu1019 Eu 0.24173 0.33148 0.38634 0.0
N1020 N 0.20715 0.27711 0.3727 0.0
C1021 C 0.16828 0.20956 0.35974 0.0
C1022 C 0.17093 0.28065 0.36455 0.0
C1023 C 0.15083 0.24697 0.35817 0.0
H1024 H 0.33459 0.30399 0.39208 0.0
H1025 H 0.12176 0.24986 0.35217 0.0
H1026 H 0.13094 0.35005 0.4504 0.0
H1027 H 0.21371 0.55469 0.41 0.0
H1028 H 0.15678 0.30939 0.36365 0.0
H1029 H 0.15272 0.18351 0.35475 0.0
H1030 H 0.24003 0.48859 0.41771 0.0
H1031 H 0.37566 0.24354 0.38941 0.0
H1032 H 0.21147 0.14257 0.36408 0.0
H1033 H 0.28145 0.14065 0.37379 0.0
H1034 H 0.05937 0.35952 0.45679 0.0
H1035 H 0.3436 0.17868 0.38212 0.0
H1036 H 0.1411 0.56636 0.41091 0.0
N1037 N 0.13693 0.40415 0.43583 0.0
C1038 C 0.11948 0.43875 0.43086 0.0
C1039 C 0.0759 0.38198 0.44943 0.0
C1040 C 0.07877 0.44546 0.43419 0.0
C1041 C 0.11645 0.37686 0.44593 0.0
C1042 C 0.05676 0.41605 0.44321 0.0
N1043 N 0.1828 0.46245 0.42217 0.0
C1044 C 0.20829 0.49316 0.41806 0.0
C1045 C 0.12684 0.50631 0.41967 0.0
C1046 C 0.14319 0.46884 0.42376 0.0
C1047 C 0.15249 0.53716 0.41419 0.0
C1048 C 0.19349 0.53073 0.41371 0.0
H1049 H 0.02537 0.41998 0.44596 0.0
H1050 H 0.03041 0.48729 0.43128 0.0
H1051 H 0.07256 0.54059 0.41851 0.0
O1052 O 0.25144 0.38673 0.44637 0.0
O1053 O 0.20645 0.42359 0.39826 0.0
O1054 O 0.18665 0.36987 0.38254 0.0
O1055 O 0.2036 0.42617 0.45246 0.0
O1056 O 0.25763 0.42001 0.41113 0.0
O1057 O 0.28686 0.36138 0.40438 0.0
O1058 O 0.27914 0.3297 0.36278 0.0
O1059 O 0.26863 0.32313 0.41329 0.0
O1060 O 0.21436 0.32789 0.43084 0.0
O1061 O 0.25571 0.38553 0.37108 0.0
O1062 O 0.18096 0.30776 0.39707 0.0
O1063 O 0.15507 0.35303 0.41732 0.0
C1064 C 0.1874 0.40869 0.38441 0.0
C1065 C 0.22942 0.38916 0.4765 0.0
C1066 C 0.24011 0.38483 0.50896 0.0
C1067 C 0.21422 0.35165 0.50932 0.0
C1068 C 0.20457 0.35547 0.47762 0.0
C1069 C 0.19676 0.33722 0.49388 0.0
C1070 C 0.24721 0.40423 0.49234 0.0
C1071 C 0.28907 0.4002 0.40604 0.0
C1072 C 0.23478 0.40822 0.4587 0.0
C1073 C 0.06178 0.48183 0.42908 0.0
C1074 C 0.08578 0.5122 0.42182 0.0
C1075 C 0.24684 0.30852 0.42607 0.0
C1076 C 0.25848 0.3729 0.34066 0.0
C1077 C 0.22773 0.33085 0.31917 0.0
C1078 C 0.24943 0.3499 0.30554 0.0
C1079 C 0.28167 0.39141 0.32748 0.0
C1080 C 0.22665 0.34854 0.33579 0.0
C1081 C 0.27492 0.38184 0.30966 0.0
C1082 C 0.15152 0.3211 0.40719 0.0
C1083 C 0.27387 0.36692 0.35854 0.0
H1084 H 0.20741 0.33661 0.52173 0.0
H1085 H 0.19094 0.34328 0.46583 0.0
H1086 H 0.17708 0.31151 0.49451 0.0
H1087 H 0.26665 0.43014 0.4917 0.0
H1088 H 0.25025 0.33731 0.29235 0.0
H1089 H 0.30641 0.41072 0.33097 0.0
H1090 H 0.20961 0.33411 0.34614 0.0
H1091 H 0.29305 0.39547 0.29937 0.0
Eu1092 Eu 0.86332 0.94574 0.17912 0.0
C1093 C 1.00362 0.02689 0.12604 0.0
N1094 N 0.96851 0.03424 0.13418 0.0
C1095 C 0.98785 0.1029 0.13784 0.0
C1096 C 0.03267 0.05714 0.12371 0.0
C1097 C 0.9599 0.07203 0.13965 0.0
C1098 C 0.02461 0.09536 0.12998 0.0
C1099 C 0.04458 0.98088 0.1097 0.0
C1100 C 0.00913 0.9898 0.11885 0.0
C1101 C 0.07431 0.01035 0.10784 0.0
C1102 C 0.06805 0.04865 0.11458 0.0
Eu1103 Eu 0.92031 0.98177 0.13517 0.0
N1104 N 0.9786 0.96326 0.11975 0.0
C1105 C 0.04827 0.94318 0.10205 0.0
C1106 C 0.98088 0.92762 0.11124 0.0
C1107 C 0.01609 0.91651 0.1027 0.0
H1108 H 0.9316 0.07881 0.14559 0.0
H1109 H 0.01809 0.88774 0.09634 0.0
H1110 H 0.8951 0.86042 0.19776 0.0
H1111 H 0.70946 0.98153 0.16097 0.0
H1112 H 0.9553 0.90786 0.11099 0.0
H1113 H 0.07522 0.93493 0.09509 0.0
H1114 H 0.77776 0.99637 0.17053 0.0
H1115 H 0.9809 0.13254 0.14244 0.0
H1116 H 0.10176 1.00416 0.10083 0.0
H1117 H 0.09071 0.07148 0.11266 0.0
H1118 H 0.87586 0.7891 0.19823 0.0
H1119 H 0.04614 0.1194 0.12848 0.0
H1120 H 0.68708 0.91162 0.15745 0.0
N1121 N 0.84499 0.87796 0.18263 0.0
C1122 C 0.80853 0.86724 0.17638 0.0
C1123 C 0.85689 0.81066 0.19181 0.0
C1124 C 0.79557 0.82714 0.17691 0.0
C1125 C 0.86808 0.85087 0.19124 0.0
C1126 C 0.8208 0.7986 0.18429 0.0
N1127 N 0.79529 0.93542 0.17155 0.0
C1128 C 0.76882 0.96571 0.16895 0.0
C1129 C 0.74361 0.88706 0.16558 0.0
C1130 C 0.78278 0.89684 0.17083 0.0
C1131 C 0.71739 0.91794 0.16154 0.0
C1132 C 0.72987 0.95742 0.16354 0.0
H1133 H 0.81195 0.76749 0.18493 0.0
H1134 H 0.74705 0.78636 0.17091 0.0
H1135 H 0.70157 0.83885 0.16096 0.0
O1136 O 0.86536 0.9882 0.2013 0.0
O1137 O 0.83529 0.94692 0.15061 0.0
O1138 O 0.88623 0.92371 0.13473 0.0
O1139 O 0.84021 0.93009 0.20554 0.0
O1140 O 0.8474 0.00996 0.17259 0.0
O1141 O 0.8813 0.02878 0.14708 0.0
O1142 O 0.913 0.99435 0.10698 0.0
O1143 O 0.93205 0.00774 0.16191 0.0
O1144 O 0.93152 0.95659 0.18121 0.0
O1145 O 0.86296 1.00285 0.12553 0.0
O1146 O 0.9373 0.91727 0.1437 0.0
O1147 O 0.91594 0.90371 0.17267 0.0
C1148 C 0.84787 0.92569 0.13693 0.0
C1149 C 0.87016 0.96103 0.23048 0.0
C1150 C 0.87368 0.97377 0.26272 0.0
C1151 C 0.90937 0.9524 0.2632 0.0
C1152 C 0.90598 0.9401 0.2316 0.0
C1153 C 0.92532 0.93584 0.24783 0.0
C1154 C 0.85395 0.97822 0.24616 0.0
C1155 C 0.85569 0.03567 0.15985 0.0
C1156 C 0.84995 0.96372 0.21296 0.0
C1157 C 0.75734 0.81706 0.17078 0.0
C1158 C 0.73141 0.84695 0.16512 0.0
C1159 C 0.9502 0.98737 0.174 0.0
C1160 C 0.85145 0.01898 0.09498 0.0
C1161 C 0.83977 0.01058 0.0638 0.0
C1162 C 0.82008 0.04769 0.06348 0.0
C1163 C 0.83336 0.05629 0.09476 0.0
C1164 C 0.84909 0.99457 0.08037 0.0
C1165 C 0.81581 0.06975 0.0791 0.0
C1166 C 0.93638 0.89414 0.15815 0.0
C1167 C 0.87622 1.00561 0.10945 0.0
H1168 H 0.92518 0.94872 0.2756 0.0
H1169 H 0.91891 0.9268 0.21988 0.0
H1170 H 0.95292 0.91954 0.2485 0.0
H1171 H 0.82641 0.99471 0.24549 0.0
H1172 H 0.81089 0.06153 0.05122 0.0
H1173 H 0.83353 0.07502 0.10638 0.0
H1174 H 0.85984 0.96457 0.08181 0.0
H1175 H 0.8018 0.09864 0.07872 0.0
Eu1176 Eu 0.31201 0.62157 0.92702 0.0
C1177 C 0.24336 0.75987 0.8766 0.0
N1178 N 0.23457 0.72257 0.88249 0.0
C1179 C 0.16479 0.73703 0.882 0.0
C1180 C 0.21303 0.78793 0.87384 0.0
C1181 C 0.1959 0.71046 0.88474 0.0
C1182 C 0.17336 0.7758 0.87635 0.0
C1183 C 0.29217 0.80687 0.8649 0.0
C1184 C 0.28211 0.76862 0.87142 0.0
C1185 C 0.26268 0.83608 0.86367 0.0
C1186 C 0.22305 0.82638 0.86776 0.0
Eu1187 Eu 0.2862 0.67584 0.88115 0.0
N1188 N 0.30898 0.73872 0.87113 0.0
C1189 C 0.33105 0.81392 0.85883 0.0
C1190 C 0.34548 0.74439 0.86351 0.0
C1191 C 0.35769 0.78233 0.85789 0.0
H1192 H 0.18918 0.67987 0.88819 0.0
H1193 H 0.38712 0.78686 0.85231 0.0
H1194 H 0.40557 0.64139 0.94076 0.0
H1195 H 0.24188 0.47614 0.91556 0.0
H1196 H 0.36472 0.71937 0.86129 0.0
H1197 H 0.3401 0.84305 0.85395 0.0
H1198 H 0.24364 0.54805 0.92189 0.0
H1199 H 0.13422 0.72729 0.88379 0.0
H1200 H 0.26984 0.86565 0.85872 0.0
H1201 H 0.20027 0.84851 0.86569 0.0
H1202 H 0.47055 0.608 0.94201 0.0
H1203 H 0.14907 0.79597 0.87374 0.0
H1204 H 0.30466 0.4383 0.91416 0.0
N1205 N 0.37482 0.59106 0.9305 0.0
C1206 C 0.37647 0.55143 0.92697 0.0
C1207 C 0.44446 0.59186 0.93749 0.0
C1208 C 0.41279 0.53076 0.92789 0.0
C1209 C 0.40775 0.61098 0.93642 0.0
C1210 C 0.44714 0.5517 0.93294 0.0
N1211 N 0.30686 0.55175 0.92274 0.0
C1212 C 0.27126 0.53225 0.92082 0.0
C1213 C 0.34183 0.48972 0.9199 0.0
C1214 C 0.34145 0.53106 0.92315 0.0
C1215 C 0.30562 0.47003 0.91674 0.0
C1216 C 0.27014 0.4913 0.91747 0.0
H1217 H 0.47558 0.53689 0.93385 0.0
H1218 H 0.44121 0.47352 0.92465 0.0
H1219 H 0.37908 0.43763 0.91754 0.0
O1220 O 0.26831 0.61778 0.94897 0.0
O1221 O 0.31757 0.58751 0.89955 0.0
O1222 O 0.33948 0.63592 0.88044 0.0
O1223 O 0.33041 0.61861 0.95495 0.0
O1224 O 0.24589 0.6231 0.91969 0.0
O1225 O 0.25388 0.61977 0.88986 0.0
O1226 O 0.28017 0.68336 0.85251 0.0
O1227 O 0.25786 0.69528 0.90667 0.0
O1228 O 0.30756 0.68995 0.9268 0.0
O1229 O 0.2485 0.63577 0.86606 0.0
O1230 O 0.35272 0.68458 0.88943 0.0
O1231 O 0.35855 0.6703 0.9197 0.0
C1232 C 0.3351 0.59814 0.88428 0.0
C1233 C 0.28781 0.58838 0.97668 0.0
C1234 C 0.2675 0.57275 1.00771 0.0
C1235 C 0.27826 0.53297 1.00458 0.0
C1236 C 0.29761 0.54828 0.97431 0.0
C1237 C 0.29302 0.52098 0.98815 0.0
C1238 C 0.27272 0.60078 0.99357 0.0
C1239 C 0.23125 0.61576 0.90387 0.0
C1240 C 0.29465 0.61682 0.96161 0.0
C1241 C 0.41353 0.48979 0.92416 0.0
C1242 C 0.37814 0.46933 0.92014 0.0
C1243 C 0.27843 0.7103 0.91962 0.0
C1244 C 0.25929 0.62681 0.83572 0.0
C1245 C 0.29257 0.61285 0.80781 0.0
C1246 C 0.2611 0.58662 0.80336 0.0
C1247 C 0.22676 0.60324 0.83056 0.0
C1248 C 0.29283 0.62926 0.82496 0.0
C1249 C 0.22826 0.58217 0.81466 0.0
C1250 C 0.37284 0.68593 0.90469 0.0
C1251 C 0.25565 0.65309 0.85101 0.0
H1252 H 0.27495 0.51073 1.01496 0.0
H1253 H 0.30917 0.53807 0.96171 0.0
H1254 H 0.30089 0.49013 0.98612 0.0
H1255 H 0.26458 0.63159 0.99555 0.0
H1256 H 0.26049 0.57155 0.79071 0.0
H1257 H 0.20025 0.60135 0.83876 0.0
H1258 H 0.31665 0.64864 0.82931 0.0
H1259 H 0.20341 0.56332 0.81085 0.0
Eu1260 Eu 0.5701 0.03525 0.63841 0.0
C1261 C 0.69117 0.14715 0.67963 0.0
N1262 N 0.69637 0.10876 0.6746 0.0
C1263 C 0.7629 0.124 0.66497 0.0
C1264 C 0.72157 0.17589 0.67709 0.0
C1265 C 0.73213 0.09643 0.66806 0.0
C1266 C 0.75738 0.16404 0.66924 0.0
C1267 C 0.65277 0.19487 0.69644 0.0
C1268 C 0.65688 0.15679 0.68891 0.0
C1269 C 0.6817 0.22438 0.69293 0.0
C1270 C 0.71597 0.21495 0.6832 0.0
Eu1271 Eu 0.64103 0.06575 0.6787 0.0
N1272 N 0.62943 0.1277 0.69209 0.0
C1273 C 0.62108 0.20128 0.7082 0.0
C1274 C 0.60103 0.13235 0.70491 0.0
C1275 C 0.59595 0.16947 0.71293 0.0
H1276 H 0.73671 0.06534 0.66501 0.0
H1277 H 0.57243 0.17365 0.72257 0.0
H1278 H 0.51269 0.96676 0.65829 0.0
H1279 H 0.65469 0.01628 0.57674 0.0
H1280 H 0.58149 0.10766 0.70835 0.0
H1281 H 0.61696 0.23007 0.71434 0.0
H1282 H 0.61645 0.0542 0.59905 0.0
H1283 H 0.79093 0.1143 0.65943 0.0
H1284 H 0.67872 0.25407 0.69833 0.0
H1285 H 0.73878 0.23758 0.68118 0.0
H1286 H 0.50792 0.89319 0.66123 0.0
H1287 H 0.78146 0.18524 0.66705 0.0
H1288 H 0.65794 0.94362 0.57822 0.0
N1289 N 0.56015 0.9654 0.64 0.0
C1290 C 0.57988 0.94292 0.628 0.0
C1291 C 0.52888 0.90678 0.65207 0.0
C1292 C 0.57688 0.90097 0.62838 0.0
C1293 C 0.53241 0.94826 0.65089 0.0
C1294 C 0.55195 0.88294 0.64103 0.0
N1295 N 0.60222 1.00273 0.61442 0.0
C1296 C 0.61887 0.02226 0.60031 0.0
C1297 C 0.62166 0.9396 0.60191 0.0
C1298 C 0.6018 0.96215 0.61492 0.0
C1299 C 0.64176 0.95971 0.58833 0.0
C1300 C 0.63972 1.00104 0.58738 0.0
H1301 H 0.54894 0.85081 0.64182 0.0
H1302 H 0.59554 0.84631 0.6158 0.0
H1303 H 0.63569 0.88012 0.59285 0.0
O1304 O 0.53282 0.04025 0.61495 0.0
O1305 O 0.60425 0.99065 0.6558 0.0
O1306 O 0.66549 0.01525 0.66242 0.0
O1307 O 0.50568 0.03723 0.64107 0.0
O1308 O 0.61938 0.07733 0.63019 0.0
O1309 O 0.6701 0.0624 0.64988 0.0
O1310 O 0.63006 0.02866 0.70258 0.0
O1311 O 0.59388 0.11228 0.67059 0.0
O1312 O 0.58067 0.10329 0.64067 0.0
O1313 O 0.68389 0.06344 0.70079 0.0
O1314 O 0.58375 0.02843 0.68457 0.0
O1315 O 0.54467 0.05627 0.66396 0.0
C1316 C 0.64326 0.98678 0.65577 0.0
C1317 C 0.47618 0.07869 0.61983 0.0
C1318 C 0.43935 0.11208 0.59674 0.0
C1319 C 0.44103 0.14784 0.60621 0.0
C1320 C 0.47718 0.11414 0.62967 0.0
C1321 C 0.45907 0.14847 0.62294 0.0
C1322 C 0.45593 0.07754 0.60389 0.0
C1323 C 0.65739 0.07424 0.63386 0.0
C1324 C 0.50033 0.04416 0.62429 0.0
C1325 C 0.59767 0.87852 0.6158 0.0
C1326 C 0.62025 0.8978 0.60265 0.0
C1327 C 0.58058 0.1258 0.65514 0.0
C1328 C 0.68076 0.01449 0.72446 0.0
C1329 C 0.68864 0.98978 0.75546 0.0
C1330 C 0.71905 0.96484 0.74924 0.0
C1331 C 0.711 0.98882 0.71905 0.0
C1332 C 0.66963 0.01513 0.74285 0.0
C1333 C 0.73002 0.96442 0.73135 0.0
C1334 C 0.54793 0.03609 0.67851 0.0
C1335 C 0.66159 0.04105 0.71101 0.0
H1336 H 0.42951 0.17506 0.60052 0.0
H1337 H 0.49288 0.11562 0.64218 0.0
H1338 H 0.46055 0.17592 0.63035 0.0
H1339 H 0.45635 0.05032 0.59613 0.0
H1340 H 0.73448 0.94529 0.75833 0.0
H1341 H 0.72005 0.98775 0.70525 0.0
H1342 H 0.64605 0.03462 0.74721 0.0
H1343 H 0.75346 0.94482 0.72698 0.0
C1344 C 0.29201 0.14621 0.28125 0.0
C1345 C 0.26712 0.11228 0.28173 0.0
C1346 C 0.28521 0.17727 0.29288 0.0
C1347 C 0.25761 0.1709 0.3068 0.0
C1348 C 0.24385 0.13192 0.3107 0.0
C1349 C 0.25087 0.10187 0.29829 0.0
C1350 C 0.30143 0.21826 0.28795 0.0
C1351 C 0.21924 0.12251 0.32691 0.0
C1352 C 0.255 0.26746 0.3295 0.0
C1353 C 0.22624 0.28717 0.31931 0.0
C1354 C 0.26202 0.2271 0.32741 0.0
C1355 C 0.23956 0.20603 0.31484 0.0
C1356 C 0.20745 0.22458 0.30587 0.0
C1357 C 0.20141 0.26555 0.30807 0.0
C1358 C 0.29827 0.20908 0.336 0.0
C1359 C 0.18337 0.20257 0.29209 0.0
H1360 H 0.30972 0.15334 0.26981 0.0
H1361 H 0.23733 0.07278 0.30026 0.0
H1362 H 0.31093 0.23563 0.29964 0.0
H1363 H 0.32723 0.21648 0.27874 0.0
H1364 H 0.27768 0.23538 0.28122 0.0
H1365 H 0.23988 0.11652 0.33803 0.0
H1366 H 0.19979 0.14766 0.33064 0.0
H1367 H 0.20043 0.09546 0.325 0.0
H1368 H 0.27516 0.28439 0.33773 0.0
H1369 H 0.1793 0.28098 0.30024 0.0
H1370 H 0.32282 0.20677 0.32624 0.0
H1371 H 0.29167 0.17832 0.34059 0.0
H1372 H 0.3096 0.22771 0.34702 0.0
H1373 H 0.20152 0.19932 0.27985 0.0
H1374 H 0.15571 0.21869 0.28862 0.0
H1375 H 0.17533 0.17222 0.29688 0.0
C1376 C 0.3878 0.52352 0.53603 0.0
C1377 C 0.35935 0.54557 0.54536 0.0
C1378 C 0.41614 0.54341 0.52558 0.0
C1379 C 0.41167 0.58483 0.52254 0.0
C1380 C 0.37594 0.60361 0.52745 0.0
C1381 C 0.3504 0.58408 0.53941 0.0
C1382 C 0.45353 0.52156 0.5203 0.0
C1383 C 0.36755 0.64598 0.5221 0.0
C1384 C 0.51068 0.63496 0.52884 0.0
C1385 C 0.52814 0.62629 0.51237 0.0
C1386 C 0.47094 0.62447 0.53224 0.0
C1387 C 0.44729 0.60924 0.51826 0.0
C1388 C 0.46172 0.61104 0.50078 0.0
C1389 C 0.50205 0.61983 0.49791 0.0
C1390 C 0.45635 0.62437 0.55122 0.0
C1391 C 0.43633 0.59841 0.48536 0.0
H1392 H 0.39258 0.49258 0.5396 0.0
H1393 H 0.32692 0.60091 0.54567 0.0
H1394 H 0.45858 0.52414 0.50582 0.0
H1395 H 0.47973 0.53505 0.52703 0.0
H1396 H 0.45211 0.48941 0.52387 0.0
H1397 H 0.33518 0.6523 0.52285 0.0
H1398 H 0.38333 0.66674 0.53113 0.0
H1399 H 0.37829 0.65201 0.5084 0.0
H1400 H 0.52885 0.64496 0.53978 0.0
H1401 H 0.51293 0.61698 0.4845 0.0
H1402 H 0.45199 0.59314 0.55583 0.0
H1403 H 0.42729 0.6395 0.55226 0.0
H1404 H 0.47766 0.63937 0.56032 0.0
H1405 H 0.44249 0.56676 0.48249 0.0
H1406 H 0.44393 0.61645 0.47344 0.0
H1407 H 0.40402 0.60122 0.48813 0.0
C1408 C 0.30836 0.81877 0.77045 0.0
C1409 C 0.2752 0.82732 0.78114 0.0
C1410 C 0.3234 0.7803 0.76963 0.0
C1411 C 0.30536 0.75029 0.78001 0.0
C1412 C 0.27357 0.75924 0.79177 0.0
C1413 C 0.25871 0.79791 0.79212 0.0
C1414 C 0.35694 0.77113 0.75697 0.0
C1415 C 0.25416 0.72777 0.80343 0.0
C1416 C 0.29772 0.64145 0.77743 0.0
C1417 C 0.3163 0.63386 0.79376 0.0
C1418 C 0.2991 0.67993 0.77028 0.0
C1419 C 0.32069 0.70964 0.7795 0.0
C1420 C 0.34851 0.69884 0.7925 0.0
C1421 C 0.34705 0.66014 0.79901 0.0
C1422 C 0.27129 0.69006 0.7553 0.0
C1423 C 0.37265 0.72943 0.80262 0.0
H1424 H 0.32001 0.84123 0.76138 0.0
H1425 H 0.23228 0.80449 0.79984 0.0
H1426 H 0.38283 0.75911 0.76422 0.0
H1427 H 0.34724 0.74754 0.74765 0.0
H1428 H 0.36699 0.79783 0.74941 0.0
H1429 H 0.2302 0.7401 0.81193 0.0
H1430 H 0.24104 0.70381 0.79514 0.0
H1431 H 0.27677 0.71402 0.81217 0.0
H1432 H 0.27641 0.62051 0.77197 0.0
H1433 H 0.3646 0.65409 0.81066 0.0
H1434 H 0.28192 0.7165 0.74773 0.0
H1435 H 0.24145 0.69682 0.76083 0.0
H1436 H 0.26783 0.66441 0.74615 0.0
H1437 H 0.3818 0.75501 0.79419 0.0
H1438 H 0.39969 0.71596 0.80849 0.0
H1439 H 0.35419 0.74113 0.81365 0.0
C1440 C 0.03367 0.43373 1.03006 0.0
C1441 C 0.01628 0.43958 1.01348 0.0
C1442 C 0.0176 0.45261 0.045 0.0
C1443 C 0.98549 0.47918 0.04285 0.0
C1444 C 0.96636 0.48263 1.02641 0.0
C1445 C 0.98068 0.46103 1.01213 0.0
C1446 C 0.0356 0.44571 0.06292 0.0
C1447 C 0.93325 0.51174 1.02321 0.0
C1448 C 0.92537 0.51818 0.08103 0.0
C1449 C 0.9443 0.55477 0.08406 0.0
C1450 C 0.93955 0.49239 0.0681 0.0
C1451 C 0.97218 0.5046 0.05746 0.0
C1452 C 0.98942 0.543 0.05954 0.0
C1453 C 0.9755 0.56759 0.07309 0.0
C1454 C 0.92043 0.4516 0.0668 0.0
C1455 C 0.02358 0.55729 0.048 0.0
H1456 H 0.06062 0.4164 1.03114 0.0
H1457 H 0.96634 0.46441 0.99934 0.0
H1458 H 0.04297 0.47478 0.06895 0.0
H1459 H 0.01327 0.43115 0.07175 0.0
H1460 H 0.06253 0.42683 0.06226 0.0
H1461 H 0.91248 0.49899 1.0135 0.0
H1462 H 0.91613 0.51931 1.03529 0.0
H1463 H 0.94594 0.5397 1.01754 0.0
H1464 H 0.90224 0.50787 0.09009 0.0
H1465 H 0.99092 0.59534 0.07601 0.0
H1466 H 0.93032 0.43414 0.05518 0.0
H1467 H 0.88757 0.45453 0.06633 0.0
H1468 H 0.92746 0.43438 0.07899 0.0
H1469 H 0.04931 0.53709 0.04956 0.0
H1470 H 0.03332 0.5881 0.05131 0.0
H1471 H 0.01468 0.5565 1.03384 0.0
C1472 C 0.76229 0.7726 0.82594 0.0
C1473 C 0.72912 0.78568 0.8163 0.0
C1474 C 0.77346 0.73302 0.8259 0.0
C1475 C 0.75264 0.70665 0.81489 0.0
C1476 C 0.71731 0.71874 0.80606 0.0
C1477 C 0.70571 0.75863 0.80698 0.0
C1478 C 0.81134 0.72108 0.83515 0.0
C1479 C 0.69488 0.69102 0.79382 0.0
C1480 C 0.80134 0.64927 0.78044 0.0
C1481 C 0.78017 0.61324 0.78301 0.0
C1482 C 0.79775 0.6799 0.79252 0.0
C1483 C 0.77437 0.67279 0.80781 0.0
C1484 C 0.76402 0.63351 0.81279 0.0
C1485 C 0.76858 0.60346 0.8003 0.0
C1486 C 0.81103 0.72127 0.78667 0.0
C1487 C 0.74366 0.6236 0.83007 0.0
H1488 H 0.78156 0.79393 0.83241 0.0
H1489 H 0.68016 0.76908 0.7996 0.0
H1490 H 0.83671 0.72187 0.82574 0.0
H1491 H 0.81874 0.74193 0.84602 0.0
H1492 H 0.80892 0.69009 0.8402 0.0
H1493 H 0.66525 0.70295 0.79019 0.0
H1494 H 0.71234 0.68696 0.78144 0.0
H1495 H 0.69071 0.6613 0.8001 0.0
H1496 H 0.81509 0.65687 0.76792 0.0
H1497 H 0.75586 0.57468 0.80307 0.0
H1498 H 0.8227 0.73921 0.79777 0.0
H1499 H 0.78519 0.73728 0.78101 0.0
H1500 H 0.83457 0.7201 0.7763 0.0
H1501 H 0.76659 0.61342 0.83958 0.0
H1502 H 0.72175 0.59885 0.82848 0.0
H1503 H 0.72826 0.64956 0.83574 0.0
C1504 C 0.77955 0.31511 0.29657 0.0
C1505 C 0.79673 0.35002 0.28982 0.0
C1506 C 0.80303 0.28168 0.29969 0.0
C1507 C 0.84425 0.28323 0.2953 0.0
C1508 C 0.86214 0.31955 0.28996 0.0
C1509 C 0.8381 0.35283 0.28758 0.0
C1510 C 0.78305 0.24402 0.30648 0.0
C1511 C 0.90581 0.32347 0.28544 0.0
C1512 C 0.88602 0.18999 0.31285 0.0
C1513 C 0.86301 0.16537 0.30169 0.0
C1514 C 0.88487 0.23127 0.31018 0.0
C1515 C 0.86657 0.24567 0.29466 0.0
C1516 C 0.85912 0.21927 0.28049 0.0
C1517 C 0.85778 0.17843 0.28415 0.0
C1518 C 0.89628 0.25901 0.325 0.0
C1519 C 0.84503 0.23396 0.26269 0.0
H1520 H 0.74746 0.31313 0.29813 0.0
H1521 H 0.85128 0.37988 0.28212 0.0
H1522 H 0.80043 0.2313 0.31759 0.0
H1523 H 0.7522 0.24938 0.31121 0.0
H1524 H 0.78167 0.22153 0.29575 0.0
H1525 H 0.91997 0.34476 0.29478 0.0
H1526 H 0.92214 0.29497 0.28604 0.0
H1527 H 0.90927 0.33629 0.27191 0.0
H1528 H 0.89661 0.17856 0.32542 0.0
H1529 H 0.84547 0.15874 0.27421 0.0
H1530 H 0.86906 0.27358 0.33008 0.0
H1531 H 0.91636 0.28291 0.31992 0.0
H1532 H 0.91106 0.24325 0.33613 0.0
H1533 H 0.8122 0.23744 0.26305 0.0
H1534 H 0.85228 0.21225 0.25211 0.0
H1535 H 0.85876 0.26327 0.25933 0.0
C1536 C 0.85887 0.01527 1.03173 0.0
C1537 C 0.86374 0.99703 0.04832 0.0
C1538 C 0.89233 0.02445 1.02135 0.0
C1539 C 0.93015 0.01238 1.02736 0.0
C1540 C 0.93353 0.98534 0.04158 0.0
C1541 C 0.89997 0.97728 0.05163 0.0
C1542 C 0.88744 0.04944 1.00489 0.0
C1543 C 0.97326 0.97055 0.04844 0.0
C1544 C 0.03075 0.02066 1.0081 0.0
C1545 C 0.04694 0.05195 1.01816 0.0
C1546 C 0.99074 0.01061 1.00918 0.0
C1547 C 0.96664 0.03171 1.02102 0.0
C1548 C 0.98215 0.0647 1.03065 0.0
C1549 C 0.02261 0.07456 1.02907 0.0
C1550 C 0.97614 0.97326 1.00005 0.0
C1551 C 0.95729 0.08627 0.04421 0.0
H1552 H 0.83013 0.02674 1.0279 0.0
H1553 H 0.90484 0.95978 0.06341 0.0
H1554 H 0.91149 0.07219 1.00364 0.0
H1555 H 0.88892 0.02951 0.99322 0.0
H1556 H 0.85826 0.06473 1.00464 0.0
H1557 H 0.96962 0.94339 0.05679 0.0
H1558 H 0.99444 0.96358 1.03767 0.0
H1559 H 0.98716 0.99408 0.05674 0.0
H1560 H 0.05005 1.00163 1.00051 0.0
H1561 H 0.03557 0.0982 1.03701 0.0
H1562 H 0.97683 0.94771 1.00939 0.0
H1563 H 0.99547 0.96549 0.98866 0.0
H1564 H 0.94484 0.9765 0.99571 0.0
H1565 H 0.97147 0.11476 0.04838 0.0
H1566 H 0.95354 0.06706 0.05614 0.0
H1567 H 0.92721 0.09249 1.03888 0.0
C1568 C 0.4829 0.95786 0.53531 0.0
C1569 C 0.47903 0.96178 0.5169 0.0
C1570 C 0.46795 0.9872 0.54671 0.0
C1571 C 0.44841 0.02081 0.53944 0.0
C1572 C 0.44195 0.02356 0.52112 0.0
C1573 C 0.45729 0.99425 0.51014 0.0
C1574 C 0.47557 0.98369 0.56637 0.0
C1575 C 0.42121 0.05883 0.51289 0.0
C1576 C 0.39757 0.08423 0.57356 0.0
C1577 C 0.4291 0.1099 0.57796 0.0
C1578 C 0.40216 0.05638 0.55995 0.0
C1579 C 0.43878 0.0552 0.5507 0.0
C1580 C 0.46762 0.08571 0.5531 0.0
C1581 C 0.4616 0.11389 0.56641 0.0
C1582 C 0.36986 0.02563 0.55684 0.0
C1583 C 0.50699 0.08558 0.54331 0.0
H1584 H 0.49922 0.93297 0.54075 0.0
H1585 H 0.45397 0.99876 0.49608 0.0
H1586 H 0.49669 0.00751 0.57052 0.0
H1587 H 0.44752 0.98786 0.57391 0.0
H1588 H 0.48834 0.95438 0.57003 0.0
H1589 H 0.41277 0.0528 0.49898 0.0
H1590 H 0.39406 0.06663 0.52048 0.0
H1591 H 0.44137 0.0852 0.51295 0.0
H1592 H 0.37231 0.08157 0.58249 0.0
H1593 H 0.48579 0.13405 0.56988 0.0
H1594 H 0.38033 0.99584 0.56112 0.0
H1595 H 0.3629 0.02376 0.5425 0.0
H1596 H 0.34209 0.03255 0.56421 0.0
H1597 H 0.52439 0.05918 0.54745 0.0
H1598 H 0.52509 0.11277 0.54597 0.0
H1599 H 0.50219 0.08328 0.52881 0.0
C1600 C 0.22005 0.06935 0.96865 0.0
C1601 C 0.19697 0.09978 0.96118 0.0
C1602 C 0.23281 0.07085 0.9866 0.0
C1603 C 0.22682 0.10588 0.99701 0.0
C1604 C 0.2079 0.13866 0.98848 0.0
C1605 C 0.19156 0.13433 0.9713 0.0
C1606 C 0.25144 0.03381 0.99423 0.0
C1607 C 0.20398 0.17885 0.99718 0.0
C1608 C 0.22754 0.11827 0.04844 0.0
C1609 C 0.26817 0.11763 0.05242 0.0
C1610 C 0.2136 0.11421 1.0308 0.0
C1611 C 0.24088 0.10862 1.01635 0.0
C1612 C 0.28222 0.1075 1.02062 0.0
C1613 C 0.29496 0.11134 1.0384 0.0
C1614 C 0.16966 0.11954 1.02807 0.0
C1615 C 0.3143 0.10499 1.00662 0.0
H1616 H 0.2248 0.04244 0.96104 0.0
H1617 H 0.17409 0.15834 0.96574 0.0
H1618 H 0.28327 0.03299 0.99032 0.0
H1619 H 0.2491 0.03228 1.0089 0.0
H1620 H 0.23729 0.00663 0.9886 0.0
H1621 H 0.21193 0.20275 0.98753 0.0
H1622 H 0.1724 0.18354 1.00093 0.0
H1623 H 0.2231 0.18248 1.00903 0.0
H1624 H 0.20658 0.12456 0.05902 0.0
H1625 H 0.3266 0.11165 0.04126 0.0
H1626 H 0.15963 0.10895 1.015 0.0
H1627 H 0.16254 0.15163 1.02925 0.0
H1628 H 0.15262 0.10425 1.03877 0.0
H1629 H 0.3271 0.07464 1.00685 0.0
H1630 H 0.33905 0.12601 1.00972 0.0
H1631 H 0.30363 0.11182 0.99307 0.0
C1632 C 0.65062 0.54862 0.28724 0.0
C1633 C 0.65191 0.52192 0.30162 0.0
C1634 C 0.65456 0.53604 0.26945 0.0
C1635 C 0.66202 0.49528 0.26544 0.0
C1636 C 0.66493 0.46827 0.28022 0.0
C1637 C 0.66001 0.48194 0.2979 0.0
C1638 C 0.64779 0.56703 0.25524 0.0
C1639 C 0.6701 0.42402 0.27795 0.0
C1640 C 0.63762 0.43672 0.22268 0.0
C1641 C 0.66906 0.44657 0.21108 0.0
C1642 C 0.63366 0.45414 0.23962 0.0
C1643 C 0.66349 0.48069 0.24615 0.0
C1644 C 0.69411 0.49297 0.23392 0.0
C1645 C 0.69625 0.47603 0.21662 0.0
C1646 C 0.59695 0.44322 0.25025 0.0
C1647 C 0.72589 0.52307 0.2389 0.0
H1648 H 0.64398 0.57961 0.28988 0.0
H1649 H 0.66006 0.46065 0.30877 0.0
H1650 H 0.64108 0.55416 0.24207 0.0
H1651 H 0.62268 0.5866 0.25903 0.0
H1652 H 0.67462 0.58647 0.25421 0.0
H1653 H 0.64204 0.40853 0.28186 0.0
H1654 H 0.67761 0.4153 0.26425 0.0
H1655 H 0.69337 0.41304 0.28711 0.0
H1656 H 0.61579 0.41464 0.21854 0.0
H1657 H 0.72069 0.48421 0.20785 0.0
H1658 H 0.59149 0.46358 0.26153 0.0
H1659 H 0.59977 0.41229 0.25532 0.0
H1660 H 0.5703 0.44355 0.24156 0.0
H1661 H 0.71718 0.55281 0.23388 0.0
H1662 H 0.75476 0.51618 0.23243 0.0
H1663 H 0.73058 0.52479 0.25343 0.0
C1664 C 0.2839 0.86981 0.54489 0.0
C1665 C 0.2583 0.89475 0.55455 0.0
C1666 C 0.29555 0.87831 0.5273 0.0
C1667 C 0.28262 0.91361 0.51879 0.0
C1668 C 0.25917 0.94065 0.52884 0.0
C1669 C 0.24684 0.93073 0.54644 0.0
C1670 C 0.32275 0.84961 0.51794 0.0
C1671 C 0.24804 0.98049 0.52112 0.0
C1672 C 0.35669 0.94393 0.48268 0.0
C1673 C 0.33733 0.93526 0.46641 0.0
C1674 C 0.33811 0.94021 0.49928 0.0
C1675 C 0.29922 0.92425 0.50056 0.0
C1676 C 0.27905 0.9145 0.48444 0.0
C1677 C 0.29783 0.92104 0.46757 0.0
C1678 C 0.36147 0.95378 0.5153 0.0
C1679 C 0.238 0.89611 0.48512 0.0
H1680 H 0.2946 0.84278 0.5511 0.0
H1681 H 0.22766 0.95076 0.55368 0.0
H1682 H 0.31126 0.84285 0.50448 0.0
H1683 H 0.35271 0.86345 0.51638 0.0
H1684 H 0.32606 0.8212 0.52538 0.0
H1685 H 0.23055 0.99869 0.53057 0.0
H1686 H 0.27544 0.99734 0.51735 0.0
H1687 H 0.23036 0.97614 0.50886 0.0
H1688 H 0.38689 0.95556 0.48268 0.0
H1689 H 0.28209 0.91392 0.45545 0.0
H1690 H 0.38979 0.93706 0.51607 0.0
H1691 H 0.34553 0.95058 0.5281 0.0
H1692 H 0.36929 0.98571 0.51352 0.0
H1693 H 0.23875 0.86799 0.49292 0.0
H1694 H 0.22619 0.88956 0.47168 0.0
H1695 H 0.21726 0.91646 0.49199 0.0
C1696 C 0.80467 0.55465 0.71878 0.0
C1697 C 0.83658 0.57454 0.71043 0.0
C1698 C 0.80821 0.53765 0.73608 0.0
C1699 C 0.84516 0.54002 0.74566 0.0
C1700 C 0.87864 0.55513 0.7359 0.0
C1701 C 0.87355 0.57369 0.71909 0.0
C1702 C 0.77135 0.51787 0.74373 0.0
C1703 C 0.92069 0.55116 0.74256 0.0
C1704 C 0.85519 0.54867 0.79724 0.0
C1705 C 0.84059 0.51178 0.80332 0.0
C1706 C 0.8596 0.55746 0.77884 0.0
C1707 C 0.84817 0.52882 0.76562 0.0
C1708 C 0.83813 0.48984 0.77205 0.0
C1709 C 0.83309 0.48241 0.79051 0.0
C1710 C 0.87741 0.59759 0.77411 0.0
C1711 C 0.83307 0.45482 0.7598 0.0
H1712 H 0.77595 0.55449 0.71224 0.0
H1713 H 0.89894 0.58802 0.71272 0.0
H1714 H 0.77014 0.4865 0.73921 0.0
H1715 H 0.77057 0.5183 0.7584 0.0
H1716 H 0.74387 0.53198 0.73865 0.0
H1717 H 0.93419 0.58121 0.7443 0.0
H1718 H 0.92284 0.53385 0.75508 0.0
H1719 H 0.9389 0.53596 0.73235 0.0
H1720 H 0.86149 0.57161 0.80695 0.0
H1721 H 0.82226 0.45347 0.79492 0.0
H1722 H 0.86547 0.60962 0.76152 0.0
H1723 H 0.9101 0.59462 0.77286 0.0
H1724 H 0.87306 0.61961 0.78486 0.0
H1725 H 0.80176 0.44397 0.7604 0.0
H1726 H 0.85182 0.42987 0.76452 0.0
H1727 H 0.84145 0.46166 0.74588 0.0
C1728 C 0.82949 0.88379 0.11041 0.0
C1729 C 0.82284 0.91806 0.12057 0.0
C1730 C 0.81146 0.87787 0.09364 0.0
C1731 C 0.78915 0.90888 0.08545 0.0
C1732 C 0.7805 0.94291 0.09623 0.0
C1733 C 0.79625 0.94624 0.11371 0.0
C1734 C 0.81625 0.83745 0.08527 0.0
C1735 C 0.75576 0.97712 0.08949 0.0
C1736 C 0.78795 0.89797 1.03376 0.0
C1737 C 0.74726 0.89761 1.02985 0.0
C1738 C 0.80208 0.90131 0.05145 0.0
C1739 C 0.77485 0.9055 0.06608 0.0
C1740 C 0.7334 0.9048 0.06188 0.0
C1741 C 0.72056 0.90195 0.04407 0.0
C1742 C 0.84617 0.89579 0.05391 0.0
C1743 C 0.70129 0.90344 0.07592 0.0
H1744 H 0.84882 0.86095 0.1157 0.0
H1745 H 0.7899 0.97253 0.12148 0.0
H1746 H 0.79727 0.83289 0.07343 0.0
H1747 H 0.84798 0.83306 0.08168 0.0
H1748 H 0.80853 0.8139 0.09512 0.0
H1749 H 0.76556 1.00575 0.09541 0.0
H1750 H 0.75676 0.98006 0.07484 0.0
H1751 H 0.72448 0.97271 0.09383 0.0
H1752 H 0.80891 0.89281 1.02305 0.0
H1753 H 0.68888 0.90057 0.04133 0.0
H1754 H 0.85286 0.86357 0.05302 0.0
H1755 H 0.85723 0.90693 0.06674 0.0
H1756 H 0.863 0.90999 0.04285 0.0
H1757 H 0.67934 0.87952 0.0728 0.0
H1758 H 0.68469 0.93186 0.07565 0.0
H1759 H 0.71269 0.89786 0.08947 0.0
C1760 C 0.3781 0.56441 0.86122 0.0
C1761 C 0.34048 0.5696 0.86897 0.0
C1762 C 0.38332 0.54347 0.84504 0.0
C1763 C 0.34974 0.53057 0.83484 0.0
C1764 C 0.31171 0.53296 0.84355 0.0
C1765 C 0.30778 0.55222 0.86029 0.0
C1766 C 0.42549 0.53421 0.83969 0.0
C1767 C 0.27467 0.51384 0.83601 0.0
C1768 C 0.3721 0.52844 0.78371 0.0
C1769 C 0.3593 0.4905 0.77855 0.0
C1770 C 0.37096 0.54099 0.80168 0.0
C1771 C 0.35423 0.51599 0.81539 0.0
C1772 C 0.34294 0.47661 0.81008 0.0
C1773 C 0.34487 0.46495 0.79198 0.0
C1774 C 0.39312 0.57892 0.80569 0.0
C1775 C 0.33289 0.44435 0.82337 0.0
H1776 H 0.40397 0.5766 0.86793 0.0
H1777 H 0.27855 0.55502 0.86627 0.0
H1778 H 0.42743 0.5147 0.82789 0.0
H1779 H 0.44223 0.56242 0.83729 0.0
H1780 H 0.44067 0.51902 0.85085 0.0
H1781 H 0.24732 0.52851 0.84087 0.0
H1782 H 0.27479 0.51338 0.82132 0.0
H1783 H 0.27241 0.48281 0.84099 0.0
H1784 H 0.38626 0.54739 0.77379 0.0
H1785 H 0.3374 0.43448 0.78848 0.0
H1786 H 0.42503 0.57205 0.80752 0.0
H1787 H 0.3818 0.59354 0.81778 0.0
H1788 H 0.39273 0.59949 0.79416 0.0
H1789 H 0.35079 0.41745 0.82052 0.0
H1790 H 0.3012 0.43538 0.82181 0.0
H1791 H 0.33868 0.45319 0.83728 0.0
C1792 C 0.77689 0.09835 0.53909 0.0
C1793 C 0.75015 0.08617 0.52583 0.0
C1794 C 0.76503 0.10092 0.55718 0.0
C1795 C 0.72558 0.0901 0.56248 0.0
C1796 C 0.69782 0.0808 0.54873 0.0
C1797 C 0.71066 0.07816 0.53088 0.0
C1798 C 0.79496 0.11549 0.5706 0.0
C1799 C 0.65414 0.07336 0.55218 0.0
C1800 C 0.70839 0.05225 0.61084 0.0
C1801 C 0.68461 0.08229 0.61819 0.0
C1802 C 0.72253 0.05464 0.59299 0.0
C1803 C 0.71379 0.08842 0.58213 0.0
C1804 C 0.69244 0.12006 0.59007 0.0
C1805 C 0.67773 0.1163 0.60765 0.0
C1806 C 0.74412 0.01942 0.58532 0.0
C1807 C 0.68317 0.1573 0.57967 0.0
H1808 H 0.80755 0.10461 0.53541 0.0
H1809 H 0.68964 0.06878 0.52079 0.0
H1810 H 0.78088 0.13636 0.58007 0.0
H1811 H 0.80641 0.08991 0.57832 0.0
H1812 H 0.82068 0.13084 0.56415 0.0
H1813 H 0.63625 0.09266 0.54331 0.0
H1814 H 0.64651 0.04216 0.54858 0.0
H1815 H 0.64489 0.07917 0.56601 0.0
H1816 H 0.71293 0.02524 0.61847 0.0
H1817 H 0.65884 0.13948 0.61292 0.0
H1818 H 0.77509 0.0281 0.58185 0.0
H1819 H 0.7294 0.00951 0.57291 0.0
H1820 H 0.74507 0.99385 0.59472 0.0
H1821 H 0.70991 0.16794 0.57229 0.0
H1822 H 0.67251 0.18163 0.58837 0.0
H1823 H 0.65959 0.15068 0.56981 0.0
C1824 C 0.21146 0.45445 0.35947 0.0
C1825 C 0.1805 0.43272 0.36771 0.0
C1826 C 0.20898 0.46682 0.34146 0.0
C1827 C 0.17301 0.46102 0.33167 0.0
C1828 C 0.13988 0.44403 0.34099 0.0
C1829 C 0.14468 0.4284 0.35834 0.0
C1830 C 0.24588 0.48473 0.33301 0.0
C1831 C 0.09904 0.44098 0.33282 0.0
C1832 C 0.17792 0.51526 0.2859 0.0
C1833 C 0.17639 0.48334 0.27392 0.0
C1834 C 0.17494 0.50898 0.30455 0.0
C1835 C 0.17113 0.46954 0.31168 0.0
C1836 C 0.16678 0.43772 0.29929 0.0
C1837 C 0.16949 0.4451 0.28088 0.0
C1838 C 0.17584 0.54531 0.31624 0.0
C1839 C 0.15867 0.39525 0.30491 0.0
H1840 H 0.23908 0.45896 0.36661 0.0
H1841 H 0.12013 0.41239 0.36457 0.0
H1842 H 0.24825 0.47726 0.31873 0.0
H1843 H 0.24507 0.51757 0.33438 0.0
H1844 H 0.2733 0.47457 0.3398 0.0
H1845 H 0.07651 0.45229 0.34231 0.0
H1846 H 0.09636 0.45797 0.32024 0.0
H1847 H 0.09151 0.40918 0.33044 0.0
H1848 H 0.18277 0.54516 0.28078 0.0
H1849 H 0.16708 0.42028 0.27176 0.0
H1850 H 0.2059 0.5593 0.31558 0.0
H1851 H 0.16818 0.53872 0.33027 0.0
H1852 H 0.15462 0.56776 0.31113 0.0
H1853 H 0.17324 0.37405 0.29574 0.0
H1854 H 0.12621 0.38924 0.30398 0.0
H1855 H 0.16831 0.38892 0.3186 0.0
C1856 C 0.76899 0.61617 0.54373 0.0
C1857 C 0.76103 0.58098 0.55334 0.0
C1858 C 0.75838 0.62005 0.52554 0.0
C1859 C 0.73837 0.58823 0.51654 0.0
C1860 C 0.73025 0.55281 0.52642 0.0
C1861 C 0.74075 0.55017 0.54447 0.0
C1862 C 0.77087 0.6579 0.51611 0.0
C1863 C 0.71279 0.51573 0.51817 0.0
C1864 C 0.67551 0.61573 0.47564 0.0
C1865 C 0.69038 0.59073 0.46229 0.0
C1866 C 0.69171 0.61656 0.49291 0.0
C1867 C 0.72455 0.592 0.49731 0.0
C1868 C 0.7418 0.569 0.48338 0.0
C1869 C 0.7243 0.56825 0.46622 0.0
C1870 C 0.67299 0.64393 0.50636 0.0
C1871 C 0.77814 0.54387 0.48643 0.0
H1872 H 0.78515 0.64018 0.55016 0.0
H1873 H 0.7339 0.52282 0.5516 0.0
H1874 H 0.76694 0.6566 0.50153 0.0
H1875 H 0.75351 0.68315 0.52146 0.0
H1876 H 0.80269 0.66456 0.51892 0.0
H1877 H 0.69148 0.50107 0.52748 0.0
H1878 H 0.69788 0.52117 0.50533 0.0
H1879 H 0.7371 0.49413 0.51596 0.0
H1880 H 0.64994 0.63409 0.47273 0.0
H1881 H 0.73648 0.54893 0.45612 0.0
H1882 H 0.69074 0.67186 0.50704 0.0
H1883 H 0.67206 0.63033 0.51978 0.0
H1884 H 0.64241 0.65257 0.5025 0.0
H1885 H 0.79862 0.54624 0.47487 0.0
H1886 H 0.7689 0.51212 0.48754 0.0
H1887 H 0.7947 0.55246 0.49856 0.0
C1888 C 0.16886 0.98048 0.79801 0.0
C1889 C 0.17365 0.02045 0.80282 0.0
C1890 C 0.16422 0.96894 0.78007 0.0
C1891 C 0.1645 0.99816 0.76615 0.0
C1892 C 0.1657 0.03899 0.77139 0.0
C1893 C 0.17119 0.0494 0.78942 0.0
C1894 C 0.15917 0.92504 0.77672 0.0
C1895 C 0.16164 0.07265 0.75823 0.0
C1896 C 0.20647 0.98158 0.71884 0.0
C1897 C 0.17768 0.9569 0.71087 0.0
C1898 C 0.20255 0.99525 0.7365 0.0
C1899 C 0.16733 0.98651 0.7465 0.0
C1900 C 0.13593 0.96578 0.73754 0.0
C1901 C 0.14191 0.95036 0.72017 0.0
C1902 C 0.23785 0.01695 0.74446 0.0
C1903 C 0.09624 0.95778 0.74631 0.0
H1904 H 0.17046 0.95783 0.80829 0.0
H1905 H 0.17463 0.08052 0.79297 0.0
H1906 H 0.12885 0.91566 0.78103 0.0
H1907 H 0.16278 0.91698 0.76268 0.0
H1908 H 0.1805 0.90789 0.78489 0.0
H1909 H 0.13856 0.0936 0.76295 0.0
H1910 H 0.19002 0.08984 0.75759 0.0
H1911 H 0.15339 0.06259 0.74474 0.0
H1912 H 0.23439 0.9867 0.71187 0.0
H1913 H 0.11939 0.93113 0.71436 0.0
H1914 H 0.24009 0.01238 0.759 0.0
H1915 H 0.23523 0.04926 0.74169 0.0
H1916 H 0.26623 0.00727 0.73828 0.0
H1917 H 0.09437 0.92595 0.75031 0.0
H1918 H 0.0718 0.96293 0.7367 0.0
H1919 H 0.09119 0.97668 0.75812 0.0
C1920 C 0.79509 0.43543 0.04887 0.0
C1921 C 0.75507 0.42792 0.05319 0.0
C1922 C 0.80899 0.43456 1.03107 0.0
C1923 C 0.78233 0.42588 1.01683 0.0
C1924 C 0.74222 0.41605 1.02139 0.0
C1925 C 0.7291 0.41796 1.03928 0.0
C1926 C 0.85228 0.4446 1.02806 0.0
C1927 C 0.7123 0.40421 1.00746 0.0
C1928 C 0.80149 0.46223 0.96837 0.0
C1929 C 0.82847 0.4339 0.96195 0.0
C1930 C 0.786 0.46001 0.98598 0.0
C1931 C 0.79599 0.42753 0.99741 0.0
C1932 C 0.82036 0.39711 0.99027 0.0
C1933 C 0.83683 0.40114 0.97302 0.0
C1934 C 0.76127 0.49425 0.99257 0.0
C1935 C 0.83097 0.36092 1.00113 0.0
H1936 H 0.81537 0.44398 0.05938 0.0
H1937 H 0.69792 0.41269 0.04234 0.0
H1938 H 0.86143 0.44474 1.01396 0.0
H1939 H 0.85874 0.47428 1.03385 0.0
H1940 H 0.87088 0.42271 1.03525 0.0
H1941 H 0.68988 0.38297 1.013 0.0
H1942 H 0.69609 0.43107 1.00302 0.0
H1943 H 0.72657 0.39033 0.99575 0.0
H1944 H 0.79544 0.4882 0.96027 0.0
H1945 H 0.85791 0.37918 0.96841 0.0
H1946 H 0.76571 0.49964 1.00695 0.0
H1947 H 0.72935 0.48739 0.99031 0.0
H1948 H 0.76852 0.52224 0.98527 0.0
H1949 H 0.85594 0.36855 1.01014 0.0
H1950 H 0.84066 0.33591 0.99258 0.0
H1951 H 0.80536 0.35071 1.00937 0.0
C1952 C 0.32245 0.04617 0.21691 0.0
C1953 C 0.33264 0.08646 0.21421 0.0
C1954 C 0.32822 0.027 0.23364 0.0
C1955 C 0.34234 0.04896 0.2487 0.0
C1956 C 0.35534 0.08898 0.24542 0.0
C1957 C 0.35064 0.10655 0.22848 0.0
C1958 C 0.31993 0.98282 0.2346 0.0
C1959 C 0.3751 0.11438 0.25943 0.0
C1960 C 0.30924 0.00723 0.29489 0.0
C1961 C 0.34495 1.00564 0.30444 0.0
C1962 C 0.30791 0.01901 0.27681 0.0
C1963 C 0.34344 0.03119 0.26762 0.0
C1964 C 0.38001 0.0274 0.27717 0.0
C1965 C 0.38012 0.01565 0.2953 0.0
C1966 C 0.26845 0.01356 0.26762 0.0
C1967 C 0.42005 0.03207 0.26825 0.0
H1968 H 0.30982 0.02942 0.20599 0.0
H1969 H 0.36043 0.13715 0.22659 0.0
H1970 H 0.33066 0.96893 0.24705 0.0
H1971 H 0.28745 0.9773 0.23321 0.0
H1972 H 0.3345 0.96775 0.22325 0.0
H1973 H 0.36991 0.14658 0.25704 0.0
H1974 H 0.36514 0.10661 0.27305 0.0
H1975 H 0.40777 0.11068 0.25852 0.0
H1976 H 0.28221 0.99653 0.30132 0.0
H1977 H 0.40832 0.01167 0.30202 0.0
H1978 H 0.26488 0.9817 0.26405 0.0
H1979 H 0.26566 0.0316 0.25541 0.0
H1980 H 0.24345 0.02016 0.27676 0.0
H1981 H 0.4381 1.00511 0.2708 0.0
H1982 H 0.43649 0.05743 0.2743 0.0
H1983 H 0.4182 0.03643 0.2537 0.0
C1984 C 0.29302 0.43564 0.61316 0.0
C1985 C 0.33407 0.43007 0.61588 0.0
C1986 C 0.27517 0.42893 0.59622 0.0
C1987 C 0.29936 0.421 0.58095 0.0
C1988 C 0.34093 0.41702 0.58382 0.0
C1989 C 0.35631 0.41716 0.60117 0.0
C1990 C 0.23039 0.43011 0.59513 0.0
C1991 C 0.37034 0.41281 0.56874 0.0
C1992 C 0.27702 0.36751 0.53682 0.0
C1993 C 0.25903 0.39681 0.52629 0.0
C1994 C 0.28762 0.37431 0.55465 0.0
C1995 C 0.28237 0.41255 0.56246 0.0
C1996 C 0.26365 0.44234 0.55175 0.0
C1997 C 0.25265 0.43419 0.53394 0.0
C1998 C 0.30263 0.33892 0.56502 0.0
C1999 C 0.25234 0.48239 0.55884 0.0
H2000 H 0.27456 0.44409 0.62431 0.0
H2001 H 0.38695 0.4084 0.60293 0.0
H2002 H 0.22057 0.46157 0.59557 0.0
H2003 H 0.21861 0.41601 0.58292 0.0
H2004 H 0.21694 0.41476 0.60681 0.0
H2005 H 0.39807 0.42989 0.57164 0.0
H2006 H 0.37905 0.38119 0.56747 0.0
H2007 H 0.35847 0.42363 0.55589 0.0
H2008 H 0.28132 0.33809 0.53127 0.0
H2009 H 0.23726 0.45666 0.52626 0.0
H2010 H 0.30337 0.34377 0.57954 0.0
H2011 H 0.33284 0.33116 0.56024 0.0
H2012 H 0.28332 0.31252 0.56244 0.0
H2013 H 0.21937 0.48415 0.55954 0.0
H2014 H 0.2625 0.50611 0.54952 0.0
H2015 H 0.26421 0.4881 0.57219 0.0
C2016 C 0.87648 0.02764 0.28549 0.0
C2017 C 0.85964 0.9917 0.27982 0.0
C2018 C 0.87355 0.04052 0.30329 0.0
C2019 C 0.8516 0.01755 0.31617 0.0
C2020 C 0.83573 0.9801 0.31038 0.0
C2021 C 0.83928 0.96828 0.2924 0.0
C2022 C 0.89845 0.07649 0.30801 0.0
C2023 C 0.81812 0.94987 0.32309 0.0
C2024 C 0.87499 0.06025 0.36281 0.0
C2025 C 0.83732 0.07005 0.36943 0.0
C2026 C 0.8797 0.03954 0.3466 0.0
C2027 C 0.84625 0.03211 0.33536 0.0
C2028 C 0.8077 0.03974 0.34276 0.0
C2029 C 0.80397 0.05748 0.35974 0.0
C2030 C 0.92095 0.02528 0.34212 0.0
C2031 C 0.76958 0.02883 0.3333 0.0
H2032 H 0.89458 0.04463 0.27615 0.0
H2033 H 0.82825 0.93918 0.28844 0.0
H2034 H 0.88826 0.0917 0.32016 0.0
H2035 H 0.92966 0.06699 0.30995 0.0
H2036 H 0.89967 0.09782 0.29675 0.0
H2037 H 0.83185 0.92035 0.3208 0.0
H2038 H 0.82245 0.95769 0.33722 0.0
H2039 H 0.78586 0.94616 0.32029 0.0
H2040 H 0.90112 0.06862 0.3704 0.0
H2041 H 0.77459 0.06312 0.36507 0.0
H2042 H 0.94116 0.05134 0.34021 0.0
H2043 H 0.92189 0.00592 0.33025 0.0
H2044 H 0.93294 0.00817 0.35352 0.0
H2045 H 0.77293 0.02906 0.31868 0.0
H2046 H 0.74496 0.04889 0.33711 0.0
H2047 H 0.7599 0.99867 0.33764 0.0
C2048 C 0.15772 0.60212 0.10423 0.0
C2049 C 0.17334 0.57551 0.1169 0.0
C2050 C 0.17368 0.60597 0.08682 0.0
C2051 C 0.20635 0.58236 0.08133 0.0
C2052 C 0.22266 0.55566 0.09413 0.0
C2053 C 0.20636 0.5528 0.11164 0.0
C2054 C 0.15405 0.6341 0.07397 0.0
C2055 C 0.25589 0.52815 0.08895 0.0
C2056 C 0.21646 0.55835 1.03122 0.0
C2057 C 0.24879 0.58187 1.02555 0.0
C2058 C 0.20309 0.55803 0.04896 0.0
C2059 C 0.22092 0.58313 0.06192 0.0
C2060 C 0.25247 0.6088 0.05605 0.0
C2061 C 0.26623 0.60765 1.03809 0.0
C2062 C 0.17007 0.52966 0.05356 0.0
C2063 C 0.2726 0.63658 0.06892 0.0
H2064 H 0.13179 0.61935 0.1078 0.0
H2065 H 0.21811 0.53112 0.12089 0.0
H2066 H 0.17677 0.65291 0.06714 0.0
H2067 H 0.13817 0.61659 0.06368 0.0
H2068 H 0.13226 0.65378 0.08063 0.0
H2069 H 0.2672 0.5108 0.10043 0.0
H2070 H 0.24498 0.50698 0.07874 0.0
H2071 H 0.2809 0.54544 0.08297 0.0
H2072 H 0.20249 0.53839 1.02175 0.0
H2073 H 0.29162 0.62574 1.03408 0.0
H2074 H 0.14144 0.54515 0.05159 0.0
H2075 H 0.173 0.51945 0.06741 0.0
H2076 H 0.16998 0.50312 0.0448 0.0
H2077 H 0.25008 0.65504 0.07577 0.0
H2078 H 0.29464 0.65657 0.06228 0.0
H2079 H 0.28811 0.61893 0.07923 0.0
C2080 C 0.6796 0.01805 0.78693 0.0
C2081 C 0.67714 0.98617 0.77492 0.0
C2082 C 0.67575 0.012 0.80562 0.0
C2083 C 0.67045 0.97276 0.81289 0.0
C2084 C 0.66477 0.94121 0.8004 0.0
C2085 C 0.66839 0.94837 0.78197 0.0
C2086 C 0.6769 0.04848 0.81721 0.0
C2087 C 0.65368 0.89931 0.80584 0.0
C2088 C 0.70956 0.95794 0.86125 0.0
C2089 C 0.67889 0.93529 0.86925 0.0
C2090 C 0.70744 0.97054 0.8432 0.0
C2091 C 0.67193 0.9642 0.83305 0.0
C2092 C 0.63874 0.94696 0.8423 0.0
C2093 C 0.64337 0.93092 0.85963 0.0
C2094 C 0.74435 0.9894 0.83518 0.0
C2095 C 0.59784 0.94441 0.83417 0.0
H2096 H 0.68571 0.04772 0.7818 0.0
H2097 H 0.66513 0.9236 0.77287 0.0
H2098 H 0.66855 0.04223 0.83119 0.0
H2099 H 0.70721 0.06195 0.81672 0.0
H2100 H 0.65627 0.07121 0.81187 0.0
H2101 H 0.66669 0.87725 0.79664 0.0
H2102 H 0.66255 0.89217 0.81954 0.0
H2103 H 0.62094 0.89558 0.80475 0.0
H2104 H 0.73693 0.96268 0.86857 0.0
H2105 H 0.61881 0.91453 0.86566 0.0
H2106 H 0.74352 0.02203 0.83732 0.0
H2107 H 0.74697 0.98353 0.82076 0.0
H2108 H 0.77169 0.97857 0.84182 0.0
H2109 H 0.59546 0.9608 0.82142 0.0
H2110 H 0.57567 0.95679 0.84356 0.0
H2111 H 0.58947 0.91266 0.83219 0.0
C2112 C 0.43656 0.1965 0.17111 0.0
C2113 C 0.4017 0.21744 0.17541 0.0
C2114 C 0.47483 0.21483 0.17122 0.0
C2115 C 0.4793 0.25578 0.17562 0.0
C2116 C 0.44419 0.2771 0.18012 0.0
C2117 C 0.40622 0.25773 0.18016 0.0
C2118 C 0.51072 0.18996 0.16684 0.0
C2119 C 0.44657 0.32078 0.1846 0.0
C2120 C 0.5815 0.29747 0.19132 0.0
C2121 C 0.5999 0.31114 0.17555 0.0
C2122 C 0.54338 0.27866 0.19147 0.0
C2123 C 0.52058 0.27578 0.17566 0.0
C2124 C 0.5381 0.29108 0.1598 0.0
C2125 C 0.57757 0.30694 0.15983 0.0
C2126 C 0.5277 0.26147 0.20868 0.0
C2127 C 0.51508 0.2909 0.14265 0.0
H2128 H 0.43407 0.16513 0.16807 0.0
H2129 H 0.37986 0.27449 0.18355 0.0
H2130 H 0.52579 0.20195 0.15483 0.0
H2131 H 0.53249 0.19146 0.17787 0.0
H2132 H 0.50275 0.15823 0.16444 0.0
H2133 H 0.41671 0.33383 0.18686 0.0
H2134 H 0.46465 0.32513 0.19673 0.0
H2135 H 0.46164 0.3374 0.17369 0.0
H2136 H 0.59664 0.3016 0.20378 0.0
H2137 H 0.5908 0.31602 0.14738 0.0
H2138 H 0.51685 0.23048 0.20666 0.0
H2139 H 0.50214 0.27923 0.21339 0.0
H2140 H 0.55076 0.26127 0.21922 0.0
H2141 H 0.51194 0.25993 0.13775 0.0
H2142 H 0.52998 0.30916 0.1322 0.0
H2143 H 0.48464 0.30257 0.14482 0.0
C2144 C 0.53552 0.6738 0.43959 0.0
C2145 C 0.55856 0.66245 0.42475 0.0
C2146 C 0.51451 0.71039 0.44019 0.0
C2147 C 0.51849 0.73885 0.42623 0.0
C2148 C 0.54309 0.72847 0.41159 0.0
C2149 C 0.56131 0.69039 0.41077 0.0
C2150 C 0.4877 0.71822 0.45585 0.0
C2151 C 0.55068 0.75784 0.39672 0.0
C2152 C 0.43997 0.82122 0.41824 0.0
C2153 C 0.45545 0.85437 0.42741 0.0
C2154 C 0.45952 0.78384 0.41801 0.0
C2155 C 0.49662 0.77884 0.42678 0.0
C2156 C 0.51252 0.81234 0.43603 0.0
C2157 C 0.49164 0.84909 0.43647 0.0
C2158 C 0.44008 0.7495 0.40837 0.0
C2159 C 0.55217 0.80972 0.44527 0.0
H2160 H 0.53316 0.65373 0.45084 0.0
H2161 H 0.57799 0.68292 0.39908 0.0
H2162 H 0.5024 0.7398 0.46486 0.0
H2163 H 0.45916 0.73137 0.45146 0.0
H2164 H 0.48106 0.69057 0.46351 0.0
H2165 H 0.57496 0.74805 0.38775 0.0
H2166 H 0.52325 0.76149 0.38877 0.0
H2167 H 0.55877 0.7875 0.40218 0.0
H2168 H 0.41194 0.82425 0.41143 0.0
H2169 H 0.50443 0.87423 0.4435 0.0
H2170 H 0.43928 0.72258 0.41698 0.0
H2171 H 0.45772 0.74216 0.3964 0.0
H2172 H 0.40923 0.75641 0.40416 0.0
H2173 H 0.54924 0.79028 0.45713 0.0
H2174 H 0.56331 0.8394 0.4496 0.0
H2175 H 0.57465 0.79619 0.43637 0.0
C2176 C 0.90626 0.75156 0.66588 0.0
C2177 C 0.90098 0.71473 0.67453 0.0
C2178 C 0.94383 0.77125 0.66532 0.0
C2179 C 0.97793 0.75313 0.6729 0.0
C2180 C 0.97282 0.71529 0.68125 0.0
C2181 C 0.93452 0.69705 0.68227 0.0
C2182 C 0.94688 0.81187 0.65676 0.0
C2183 C 0.00799 0.69378 0.689 0.0
C2184 C 0.08263 0.79037 0.65802 0.0
C2185 C 0.09498 0.81391 0.67243 0.0
C2186 C 0.04513 0.77027 0.65802 0.0
C2187 C 0.01842 0.77423 0.6726 0.0
C2188 C 0.03053 0.79865 0.68699 0.0
C2189 C 0.0684 0.81764 0.6868 0.0
C2190 C 0.03439 0.74412 0.64251 0.0
C2191 C 1.0034 0.80476 0.70271 0.0
H2192 H 0.88067 0.76541 0.65978 0.0
H2193 H 0.93101 0.66825 0.68869 0.0
H2194 H 0.95881 0.83376 0.66642 0.0
H2195 H 0.968 0.81108 0.64543 0.0
H2196 H 0.91765 0.82254 0.65189 0.0
H2197 H 0.99992 0.66341 0.69381 0.0
H2198 H 0.03194 0.69126 0.6789 0.0
H2199 H 0.02038 0.71106 0.70025 0.0
H2200 H 0.10275 0.78677 0.64688 0.0
H2201 H 0.07718 0.83573 0.69803 0.0
H2202 H 0.00689 0.75513 0.6361 0.0
H2203 H 0.02808 0.71331 0.64721 0.0
H2204 H 0.05849 0.74318 0.63239 0.0
H2205 H 0.97415 0.816 0.6982 0.0
H2206 H 0.0161 0.82612 0.71244 0.0
H2207 H 0.99785 0.7759 0.70955 0.0
C2208 C 0.9483 0.32269 0.91354 0.0
C2209 C 0.95133 0.34982 0.9277 0.0
C2210 C 0.96748 0.28519 0.91366 0.0
C2211 C 0.99096 0.27345 0.92835 0.0
C2212 C 0.99309 0.29985 0.94304 0.0
C2213 C 0.97368 0.33744 0.94253 0.0
C2214 C 0.9631 0.2583 0.89778 0.0
C2215 C 0.01662 0.28862 0.95926 0.0
C2216 C 0.01866 0.16199 0.93402 0.0
C2217 C 0.05736 0.16037 0.92687 0.0
C2218 C 0.99696 0.19815 0.93469 0.0
C2219 C 0.01401 0.23431 0.92808 0.0
C2220 C 0.05317 0.23279 0.92093 0.0
C2221 C 0.07412 0.19628 0.92049 0.0
C2222 C 0.95545 0.19754 0.94237 0.0
C2223 C 0.07321 0.26996 0.91377 0.0
H2224 H 0.93101 0.33075 0.90215 0.0
H2225 H 0.97648 0.35731 0.95375 0.0
H2226 H 0.99145 0.25823 0.89018 0.0
H2227 H 0.9567 0.22718 0.902 0.0
H2228 H 0.93896 0.26807 0.88881 0.0
H2229 H 0.00897 0.30748 0.97082 0.0
H2230 H 0.01129 0.25702 0.96298 0.0
H2231 H 0.04885 0.29197 0.95627 0.0
H2232 H 1.00486 0.13469 0.93877 0.0
H2233 H 0.10424 0.19616 0.9155 0.0
H2234 H 0.93387 0.20722 0.93214 0.0
H2235 H 0.95347 0.2189 0.95352 0.0
H2236 H 0.94649 0.16748 0.94726 0.0
H2237 H 0.05532 0.28254 0.90278 0.0
H2238 H 0.10377 0.2642 0.90877 0.0
H2239 H 0.07492 0.29288 0.92432 0.0
C2240 C 0.57608 0.82264 0.90998 0.0
C2241 C 0.61125 0.801 0.90724 0.0
C2242 C 0.53782 0.8043 0.90941 0.0
C2243 C 0.53382 0.76262 0.90642 0.0
C2244 C 0.56938 0.74053 0.90379 0.0
C2245 C 0.60729 0.75995 0.90389 0.0
C2246 C 0.5015 0.82992 0.91168 0.0
C2247 C 0.56752 0.69605 0.90115 0.0
C2248 C 0.43412 0.71291 0.92121 0.0
C2249 C 0.41408 0.70571 0.90509 0.0
C2250 C 0.47309 0.72985 0.9218 0.0
C2251 C 0.49264 0.74247 0.90595 0.0
C2252 C 0.4722 0.73637 0.88968 0.0
C2253 C 0.43418 0.71733 0.88943 0.0
C2254 C 0.49343 0.73403 0.93952 0.0
C2255 C 0.49031 0.7504 0.87239 0.0
H2256 H 0.57842 0.85448 0.91209 0.0
H2257 H 0.63401 0.74274 0.90175 0.0
H2258 H 0.48159 0.82643 0.90006 0.0
H2259 H 0.48441 0.82017 0.92356 0.0
H2260 H 0.50929 0.86198 0.91317 0.0
H2261 H 0.59759 0.68265 0.9004 0.0
H2262 H 0.55073 0.68181 0.91222 0.0
H2263 H 0.55133 0.68906 0.88873 0.0
H2264 H 0.41935 0.70545 0.93356 0.0
H2265 H 0.42039 0.71144 0.8768 0.0
H2266 H 0.49692 0.76601 0.94287 0.0
H2267 H 0.52372 0.72114 0.93891 0.0
H2268 H 0.47647 0.71903 0.95036 0.0
H2269 H 0.499 0.78231 0.87335 0.0
H2270 H 0.46953 0.74672 0.86106 0.0
H2271 H 0.51773 0.73341 0.86955 0.0
C2272 C 0.44275 0.32469 0.65705 0.0
C2273 C 0.4652 0.36029 0.65654 0.0
C2274 C 0.46095 0.28683 0.65606 0.0
C2275 C 0.5031 0.28381 0.65485 0.0
C2276 C 0.52593 0.31976 0.65457 0.0
C2277 C 0.50681 0.35729 0.65508 0.0
C2278 C 0.43469 0.2501 0.65582 0.0
C2279 C 0.57079 0.31865 0.65407 0.0
C2280 C 0.54915 0.18499 0.67048 0.0
C2281 C 0.56105 0.16641 0.65466 0.0
C2282 C 0.53143 0.22303 0.67072 0.0
C2283 C 0.52323 0.24327 0.65461 0.0
C2284 C 0.53383 0.22422 0.63845 0.0
C2285 C 0.5529 0.18653 0.63866 0.0
C2286 C 0.52134 0.24156 0.68837 0.0
C2287 C 0.52437 0.24337 0.62086 0.0
H2288 H 0.41058 0.32642 0.65771 0.0
H2289 H 0.52458 0.38442 0.65466 0.0
H2290 H 0.43546 0.23698 0.64236 0.0
H2291 H 0.44559 0.22723 0.66524 0.0
H2292 H 0.40324 0.2569 0.65917 0.0
H2293 H 0.58442 0.3489 0.65472 0.0
H2294 H 0.58197 0.30065 0.66536 0.0
H2295 H 0.58089 0.30406 0.6417 0.0
H2296 H 0.55278 0.16936 0.68283 0.0
H2297 H 0.56106 0.17263 0.62624 0.0
H2298 H 0.48891 0.24719 0.68923 0.0
H2299 H 0.53686 0.27076 0.68961 0.0
H2300 H 0.52993 0.22242 0.69975 0.0
H2301 H 0.49219 0.25046 0.62024 0.0
H2302 H 0.53195 0.22389 0.60949 0.0
H2303 H 0.54113 0.27185 0.61947 0.0
C2304 C 0.10736 0.25892 0.40415 0.0
C2305 C 0.11125 0.30025 0.40678 0.0
C2306 C 0.06949 0.23948 0.40425 0.0
C2307 C 0.03388 0.26179 0.40632 0.0
C2308 C 0.03777 0.3037 0.40857 0.0
C2309 C 0.07598 0.32208 0.40902 0.0
C2310 C 0.06775 0.1948 0.40237 0.0
C2311 C 1.0014 0.32952 0.41012 0.0
C2312 C 0.93548 0.21375 0.38955 0.0
C2313 C 0.91415 0.20514 0.40528 0.0
C2314 C 0.97327 0.23317 0.38968 0.0
C2315 C 0.99275 0.24164 0.40597 0.0
C2316 C 0.97231 0.2313 0.42192 0.0
C2317 C 0.93317 0.21477 0.42138 0.0
C2318 C 0.99208 0.24499 0.37221 0.0
C2319 C 0.9919 0.23736 0.4397 0.0
H2320 H 0.1341 0.2415 0.40241 0.0
H2321 H 0.07818 0.35408 0.41072 0.0
H2322 H 0.0485 0.18154 0.41289 0.0
H2323 H 0.05445 0.18686 0.38941 0.0
H2324 H 0.09773 0.1812 0.40316 0.0
H2325 H 0.00914 0.36174 0.41085 0.0
H2326 H 0.98162 0.32457 0.39855 0.0
H2327 H 0.98418 0.32128 0.42218 0.0
H2328 H 0.92288 0.20517 0.37696 0.0
H2329 H 0.91754 0.20939 0.43373 0.0
H2330 H 0.0178 0.22554 0.36941 0.0
H2331 H 1.00339 0.27616 0.37277 0.0
H2332 H 0.97076 0.24247 0.36102 0.0
H2333 H 0.02257 0.22531 0.43952 0.0
H2334 H 0.97493 0.22265 0.45062 0.0
H2335 H 0.99426 0.26963 0.44263 0.0
C2336 C 0.01279 0.66321 0.15101 0.0
C2337 C 0.05386 0.65937 0.15394 0.0
C2338 C 0.99344 0.70066 0.15202 0.0
C2339 C 0.01571 0.73619 0.15534 0.0
C2340 C 0.0575 0.7325 0.15786 0.0
C2341 C 0.07571 0.69448 0.15745 0.0
C2342 C 0.94887 0.70182 0.14974 0.0
C2343 C 0.08316 0.76886 0.16111 0.0
C2344 C 0.97054 0.83756 0.14143 0.0
C2345 C 0.95776 0.85418 0.15761 0.0
C2346 C 0.98945 0.79993 0.14054 0.0
C2347 C 0.9956 0.77696 0.15615 0.0
C2348 C 0.98243 0.79327 0.17252 0.0
C2349 C 0.96443 0.83146 0.17307 0.0
C2350 C 1.00273 0.7846 0.12272 0.0
C2351 C 0.98682 0.77 0.18955 0.0
H2352 H 0.9954 0.63654 0.14871 0.0
H2353 H 0.10741 0.69221 0.15986 0.0
H2354 H 0.93512 0.72373 0.15882 0.0
H2355 H 0.94188 0.71084 0.13594 0.0
H2356 H 0.93494 0.6722 0.15229 0.0
H2357 H 0.1153 0.76154 0.16192 0.0
H2358 H 0.07888 0.79094 0.1503 0.0
H2359 H 0.07413 0.78326 0.17369 0.0
H2360 H 0.9653 0.8537 0.12927 0.0
H2361 H 0.9557 0.84352 0.18576 0.0
H2362 H 0.98605 0.75687 0.11951 0.0
H2363 H 0.03482 0.77704 0.12314 0.0
H2364 H 0.99795 0.80661 0.11191 0.0
H2365 H 0.97259 0.74018 0.18818 0.0
H2366 H 0.97317 0.78541 0.20105 0.0
H2367 H 0.01881 0.76521 0.19238 0.0
C2368 C 0.27983 0.28308 0.16162 0.0
C2369 C 0.26386 0.25246 0.15115 0.0
C2370 C 0.26417 0.32215 0.16115 0.0
C2371 C 0.23207 0.3315 0.14956 0.0
C2372 C 0.21865 0.30122 0.13773 0.0
C2373 C 0.23377 0.26212 0.13907 0.0
C2374 C 0.2813 0.35288 0.17361 0.0
C2375 C 0.18699 0.30887 0.12402 0.0
C2376 C 0.15154 0.40824 0.16148 0.0
C2377 C 0.16932 0.44479 0.15701 0.0
C2378 C 0.171 0.37175 0.1587 0.0
C2379 C 0.21 0.37087 0.15123 0.0
C2380 C 0.22741 0.40796 0.14587 0.0
C2381 C 0.20734 0.44424 0.14916 0.0
C2382 C 0.14827 0.33446 0.16351 0.0
C2383 C 0.26636 0.4103 0.1359 0.0
H2384 H 0.30311 0.2759 0.17099 0.0
H2385 H 0.22095 0.23864 0.13099 0.0
H2386 H 0.29865 0.37526 0.16593 0.0
H2387 H 0.25721 0.36868 0.18072 0.0
H2388 H 0.30188 0.33955 0.18342 0.0
H2389 H 0.1587 0.29437 0.1283 0.0
H2390 H 0.18181 0.34105 0.12169 0.0
H2391 H 0.19551 0.29496 0.11124 0.0
H2392 H 0.12218 0.40802 0.16746 0.0
H2393 H 0.22114 0.47218 0.14513 0.0
H2394 H 0.16791 0.30871 0.1656 0.0
H2395 H 0.12759 0.32688 0.15263 0.0
H2396 H 0.12972 0.33947 0.17549 0.0
H2397 H 0.2885 0.42715 0.14389 0.0
H2398 H 0.26215 0.42738 0.1234 0.0
H2399 H 0.27866 0.38075 0.1325 0.0
C2400 C 0.33537 0.45811 0.4108 0.0
C2401 C 0.32739 0.42167 0.40257 0.0
C2402 C 0.3722 0.47791 0.40858 0.0
C2403 C 0.40236 0.46112 0.39767 0.0
C2404 C 0.3924 0.42643 0.38775 0.0
C2405 C 0.3557 0.4066 0.39071 0.0
C2406 C 0.37711 0.51718 0.41785 0.0
C2407 C 0.41954 0.41005 0.37361 0.0
C2408 C 0.49669 0.52809 0.39438 0.0
C2409 C 0.52467 0.50501 0.40347 0.0
C2410 C 0.45741 0.51365 0.39143 0.0
C2411 C 0.44507 0.47602 0.39855 0.0
C2412 C 0.47401 0.45225 0.40715 0.0
C2413 C 0.51325 0.46648 0.40894 0.0
C2414 C 0.42935 0.53955 0.38104 0.0
C2415 C 0.46376 0.41177 0.41488 0.0
H2416 H 0.3131 0.47087 0.41947 0.0
H2417 H 0.34904 0.37948 0.38349 0.0
H2418 H 0.40839 0.52717 0.41869 0.0
H2419 H 0.3603 0.54013 0.41043 0.0
H2420 H 0.36379 0.51552 0.43132 0.0
H2421 H 0.40352 0.40981 0.36075 0.0
H2422 H 0.44752 0.42745 0.37186 0.0
H2423 H 0.42676 0.37857 0.37671 0.0
H2424 H 0.50512 0.55768 0.38983 0.0
H2425 H 0.53492 0.44753 0.41532 0.0
H2426 H 0.41752 0.56307 0.38986 0.0
H2427 H 0.40402 0.52236 0.37542 0.0
H2428 H 0.44548 0.5549 0.37005 0.0
H2429 H 0.43551 0.4128 0.42254 0.0
H2430 H 0.48763 0.40026 0.42358 0.0
H2431 H 0.46001 0.38987 0.40408 0.0
C2432 C 0.22839 0.74072 0.64543 0.0
C2433 C 0.25091 0.76811 0.65532 0.0
C2434 C 0.24241 0.7016 0.64236 0.0
C2435 C 0.2794 0.68933 0.64964 0.0
C2436 C 0.30259 0.71746 0.65914 0.0
C2437 C 0.28849 0.75632 0.66152 0.0
C2438 C 0.21687 0.67296 0.63197 0.0
C2439 C 0.3418 0.70617 0.6675 0.0
C2440 C 0.3016 0.58135 0.6622 0.0
C2441 C 0.33344 0.57239 0.65089 0.0
C2442 C 0.28116 0.61764 0.66083 0.0
C2443 C 0.29369 0.64697 0.64831 0.0
C2444 C 0.32408 0.63705 0.63606 0.0
C2445 C 0.34361 0.60018 0.63752 0.0
C2446 C 0.2454 0.62321 0.67257 0.0
C2447 C 0.33614 0.66547 0.62139 0.0
H2448 H 0.19926 0.74928 0.64067 0.0
H2449 H 0.3066 0.7773 0.66894 0.0
H2450 H 0.23538 0.65496 0.62285 0.0
H2451 H 0.20157 0.65217 0.64128 0.0
H2452 H 0.19382 0.6887 0.62415 0.0
H2453 H 0.35448 0.73044 0.67578 0.0
H2454 H 0.33789 0.67913 0.67588 0.0
H2455 H 0.36387 0.69902 0.65708 0.0
H2456 H 0.29258 0.56016 0.67234 0.0
H2457 H 0.36746 0.59358 0.62831 0.0
H2458 H 0.21983 0.60669 0.66678 0.0
H2459 H 0.23692 0.65475 0.67376 0.0
H2460 H 0.25058 0.61025 0.68592 0.0
H2461 H 0.3094 0.67878 0.6152 0.0
H2462 H 0.35389 0.65049 0.61095 0.0
H2463 H 0.35438 0.69018 0.62688 0.0
C2464 C 1.00413 0.53766 0.88816 0.0
C2465 C 1.00218 0.49811 0.89422 0.0
C2466 C 0.04069 0.55906 0.8885 0.0
C2467 C 0.0759 0.53981 0.89433 0.0
C2468 C 0.07441 0.49867 0.89842 0.0
C2469 C 0.03777 0.47845 0.89823 0.0
C2470 C 0.04114 0.60274 0.88373 0.0
C2471 C 0.11108 0.4765 0.90427 0.0
C2472 C 0.17967 0.58147 0.88511 0.0
C2473 C 0.19089 0.59737 0.90163 0.0
C2474 C 0.14191 0.56428 0.8824 0.0
C2475 C 0.1144 0.56214 0.8966 0.0
C2476 C 0.12556 0.57767 0.91341 0.0
C2477 C 0.16345 0.59545 0.91566 0.0
C2478 C 0.13193 0.54721 0.86443 0.0
C2479 C 0.09757 0.57584 0.92909 0.0
H2480 H 0.97676 0.55306 0.88511 0.0
H2481 H 0.03654 0.4476 0.90258 0.0
H2482 H 0.05771 0.62023 0.89382 0.0
H2483 H 0.05674 0.60706 0.87087 0.0
H2484 H 0.0106 0.61489 0.88254 0.0
H2485 H 0.1055 0.44393 0.9056 0.0
H2486 H 0.13578 0.48137 0.89468 0.0
H2487 H 0.12112 0.48805 0.9173 0.0
H2488 H 0.20066 0.58158 0.87422 0.0
H2489 H 0.17165 0.60764 0.92844 0.0
H2490 H 0.1053 0.56216 0.85898 0.0
H2491 H 0.12454 0.51503 0.8657 0.0
H2492 H 0.1568 0.5507 0.85479 0.0
H2493 H 0.07475 0.59912 0.92745 0.0
H2494 H 0.11328 0.58137 0.9418 0.0
H2495 H 0.082 0.54658 0.92998 0.0
C2496 C 0.79352 0.76144 0.93939 0.0
C2497 C 0.75945 0.76823 0.92918 0.0
C2498 C 0.8097 0.72288 0.94138 0.0
C2499 C 0.7938 0.68998 0.93169 0.0
C2500 C 0.75773 0.69657 0.92212 0.0
C2501 C 0.74103 0.73528 0.92114 0.0
C2502 C 0.84385 0.71815 0.95405 0.0
C2503 C 0.73611 0.66297 0.9129 0.0
C2504 C 0.87014 0.60781 0.91982 0.0
C2505 C 0.85155 0.57289 0.9259 0.0
C2506 C 0.85303 0.64575 0.92232 0.0
C2507 C 0.81524 0.64973 0.93093 0.0
C2508 C 0.79792 0.6143 0.93829 0.0
C2509 C 0.81552 0.57664 0.93524 0.0
C2510 C 0.87772 0.68093 0.91637 0.0
C2511 C 0.76211 0.61526 0.95039 0.0
H2512 H 0.80795 0.78656 0.94579 0.0
H2513 H 0.71446 0.74012 0.91331 0.0
H2514 H 0.84684 0.68689 0.9585 0.0
H2515 H 0.87186 0.72842 0.94761 0.0
H2516 H 0.83948 0.73711 0.96593 0.0
H2517 H 0.71475 0.6741 0.9029 0.0
H2518 H 0.75714 0.64212 0.90653 0.0
H2519 H 0.71817 0.64605 0.92276 0.0
H2520 H 0.89855 0.60553 0.91303 0.0
H2521 H 0.8015 0.55006 0.94072 0.0
H2522 H 0.90147 0.68636 0.92625 0.0
H2523 H 0.86036 0.70847 0.91505 0.0
H2524 H 0.8932 0.67417 0.90373 0.0
H2525 H 0.76951 0.60043 0.96314 0.0
H2526 H 0.73742 0.59769 0.94442 0.0
H2527 H 0.75175 0.64578 0.95334 0.0
C2528 C 0.66681 0.58661 0.69137 0.0
C2529 C 0.68821 0.58769 0.67527 0.0
C2530 C 0.63156 0.5641 0.69345 0.0
C2531 C 0.61579 0.54283 0.67887 0.0
C2532 C 0.63883 0.5411 0.66307 0.0
C2533 C 0.67396 0.56431 0.66126 0.0
C2534 C 0.61178 0.56339 0.71148 0.0
C2535 C 0.62797 0.51299 0.64839 0.0
C2536 C 0.52216 0.47502 0.68001 0.0
C2537 C 0.49186 0.50314 0.67804 0.0
C2538 C 0.56264 0.48712 0.68098 0.0
C2539 C 0.57314 0.52822 0.67929 0.0
C2540 C 0.54216 0.55651 0.67799 0.0
C2541 C 0.50225 0.54365 0.67788 0.0
C2542 C 0.59357 0.45541 0.68356 0.0
C2543 C 0.55098 0.60062 0.67624 0.0
H2544 H 0.67687 0.60394 0.7025 0.0
H2545 H 0.69055 0.56356 0.64892 0.0
H2546 H 0.59994 0.59334 0.71454 0.0
H2547 H 0.58737 0.54101 0.71259 0.0
H2548 H 0.63423 0.5565 0.7218 0.0
H2549 H 0.63858 0.48281 0.65191 0.0
H2550 H 0.59532 0.51109 0.64666 0.0
H2551 H 0.64277 0.52161 0.63576 0.0
H2552 H 0.51445 0.44359 0.68035 0.0
H2553 H 0.47883 0.56557 0.67714 0.0
H2554 H 0.62255 0.46766 0.68813 0.0
H2555 H 0.59811 0.43959 0.67083 0.0
H2556 H 0.58287 0.43289 0.69335 0.0
H2557 H 0.56387 0.61208 0.68873 0.0
H2558 H 0.52386 0.61819 0.67347 0.0
H2559 H 0.57308 0.60613 0.6655 0.0
C2560 C 0.7295 0.25465 0.43511 0.0
C2561 C 0.76478 0.24938 0.42548 0.0
C2562 C 0.71357 0.29288 0.43776 0.0
C2563 C 0.73226 0.32664 0.4298 0.0
C2564 C 0.76842 0.32133 0.42028 0.0
C2565 C 0.7846 0.28289 0.41855 0.0
C2566 C 0.6754 0.29651 0.44819 0.0
C2567 C 0.7889 0.35591 0.41105 0.0
C2568 C 0.66636 0.41438 0.41676 0.0
C2569 C 0.67987 0.44446 0.42805 0.0
C2570 C 0.68136 0.37556 0.4179 0.0
C2571 C 0.71248 0.36674 0.42999 0.0
C2572 C 0.72511 0.39684 0.44195 0.0
C2573 C 0.70851 0.43529 0.4409 0.0
C2574 C 0.66138 0.34418 0.40679 0.0
C2575 C 0.75465 0.38784 0.45642 0.0
H2576 H 0.71366 0.22864 0.44015 0.0
H2577 H 0.81152 0.27871 0.41083 0.0
H2578 H 0.67442 0.32495 0.45564 0.0
H2579 H 0.64981 0.29575 0.43893 0.0
H2580 H 0.67158 0.27135 0.45769 0.0
H2581 H 0.81514 0.34642 0.40318 0.0
H2582 H 0.76765 0.37118 0.40213 0.0
H2583 H 0.79913 0.3781 0.4209 0.0
H2584 H 0.64271 0.4208 0.40743 0.0
H2585 H 0.71804 0.45826 0.45007 0.0
H2586 H 0.63175 0.33711 0.41263 0.0
H2587 H 0.67847 0.31632 0.40614 0.0
H2588 H 0.65585 0.35576 0.39323 0.0
H2589 H 0.74335 0.36261 0.46464 0.0
H2590 H 0.76013 0.41389 0.46516 0.0
H2591 H 0.78343 0.37849 0.45064 0.0
C2592 C 0.84521 0.43965 0.16602 0.0
C2593 C 0.81868 0.43471 0.18031 0.0
C2594 C 0.88268 0.45858 0.16825 0.0
C2595 C 0.8943 0.47303 0.1852 0.0
C2596 C 0.8673 0.46867 0.19957 0.0
C2597 C 0.82996 0.4501 0.19692 0.0
C2598 C 0.90982 0.46311 0.15238 0.0
C2599 C 0.87854 0.48181 0.21803 0.0
C2600 C 0.00674 0.47845 0.19247 0.0
C2601 C 0.01573 0.51894 0.1896 0.0
C2602 C 0.9675 0.46353 0.19172 0.0
C2603 C 0.9357 0.48972 0.18818 0.0
C2604 C 0.94396 0.53134 0.18716 0.0
C2605 C 0.98386 0.54563 0.18819 0.0
C2606 C 0.96051 0.41921 0.19372 0.0
C2607 C 0.91076 0.56044 0.18403 0.0
H2608 H 0.83696 0.42819 0.15311 0.0
H2609 H 0.8099 0.44677 0.20812 0.0
H2610 H 0.9132 0.49522 0.14919 0.0
H2611 H 0.93986 0.45137 0.15534 0.0
H2612 H 0.89801 0.4476 0.14048 0.0
H2613 H 0.85327 0.47905 0.22752 0.0
H2614 H 0.90341 0.46328 0.22294 0.0
H2615 H 0.88921 0.51315 0.21795 0.0
H2616 H 0.03103 0.45773 0.1942 0.0
H2617 H 0.99025 0.57706 0.1862 0.0
H2618 H 0.95196 0.40641 0.18071 0.0
H2619 H 0.93566 0.41313 0.20311 0.0
H2620 H 0.98745 0.40355 0.1985 0.0
H2621 H 0.89486 0.55272 0.17161 0.0
H2622 H 0.92178 0.59171 0.18321 0.0
H2623 H 0.88857 0.55838 0.1949 0.0
C2624 C 0.71092 0.75823 0.65101 0.0
C2625 C 0.75146 0.753 0.65465 0.0
C2626 C 0.69425 0.79646 0.64965 0.0
C2627 C 0.71828 0.83078 0.65256 0.0
C2628 C 0.75945 0.82559 0.65624 0.0
C2629 C 0.77562 0.78682 0.65703 0.0
C2630 C 0.65049 0.79994 0.64557 0.0
C2631 C 0.78591 0.8608 0.66052 0.0
C2632 C 0.68118 0.93464 0.63902 0.0
C2633 C 0.66139 0.94683 0.65446 0.0
C2634 C 0.69915 0.89678 0.63799 0.0
C2635 C 0.69954 0.87156 0.65314 0.0
C2636 C 0.68095 0.88506 0.6689 0.0
C2637 C 0.66145 0.9219 0.66928 0.0
C2638 C 0.71712 0.88351 0.62068 0.0
C2639 C 0.68178 0.86067 0.68551 0.0
H2640 H 0.69191 0.73213 0.64964 0.0
H2641 H 0.80658 0.78289 0.66059 0.0
H2642 H 0.63426 0.81066 0.65742 0.0
H2643 H 0.64616 0.82205 0.63483 0.0
H2644 H 0.63705 0.77105 0.64147 0.0
H2645 H 0.81765 0.85227 0.66186 0.0
H2646 H 0.78353 0.88403 0.65009 0.0
H2647 H 0.77598 0.87428 0.67319 0.0
H2648 H 0.68232 0.95459 0.62769 0.0
H2649 H 0.64701 0.93173 0.68136 0.0
H2650 H 0.70204 0.85575 0.61621 0.0
H2651 H 0.74907 0.87655 0.62249 0.0
H2652 H 0.71437 0.90646 0.6101 0.0
H2653 H 0.67242 0.87792 0.69733 0.0
H2654 H 0.71228 0.84936 0.68761 0.0
H2655 H 0.66125 0.83498 0.68394 0.0
C2656 C 0.85313 0.92705 0.88986 0.0
C2657 C 0.82887 0.93167 0.90494 0.0
C2658 C 0.88894 0.94857 0.88777 0.0
C2659 C 0.90212 0.9744 0.90143 0.0
C2660 C 0.8757 0.98234 0.91574 0.0
C2661 C 0.83975 0.96057 0.91742 0.0
C2662 C 0.91191 0.9434 0.87069 0.0
C2663 C 0.88346 0.01524 0.92883 0.0
C2664 C 0.0148 0.97304 0.90722 0.0
C2665 C 0.02564 0.01329 0.90545 0.0
C2666 C 0.97502 0.96027 0.90583 0.0
C2667 C 0.94487 0.98828 0.90188 0.0
C2668 C 0.95617 0.02863 0.89859 0.0
C2669 C 0.9963 0.04077 0.90074 0.0
C2670 C 0.9654 0.91672 0.90911 0.0
C2671 C 0.92634 0.05959 0.89315 0.0
H2672 H 0.84423 0.90659 0.87947 0.0
H2673 H 0.82029 0.9662 0.92861 0.0
H2674 H 0.93768 0.96412 0.86935 0.0
H2675 H 0.92241 0.91225 0.86965 0.0
H2676 H 0.89173 0.94832 0.85926 0.0
H2677 H 0.86977 0.0082 0.9419 0.0
H2678 H 0.91553 0.022 0.93045 0.0
H2679 H 0.8689 0.04267 0.92393 0.0
H2680 H 0.03755 0.95139 0.91024 0.0
H2681 H 1.00441 0.07193 0.89915 0.0
H2682 H 0.95389 0.90274 0.89689 0.0
H2683 H 0.94202 0.91363 0.91948 0.0
H2684 H 0.99193 0.89948 0.91312 0.0
H2685 H 0.89887 0.04628 0.88745 0.0
H2686 H 0.93971 0.08038 0.88324 0.0
H2687 H 0.91822 0.07759 0.9049 0.0
C2688 C 0.80607 0.08539 0.1717 0.0
C2689 C 0.83448 0.07465 0.15897 0.0
C2690 C 0.78613 0.12213 0.17064 0.0
C2691 C 0.79475 0.14907 0.15651 0.0
C2692 C 0.82103 0.13694 0.1429 0.0
C2693 C 0.8411 0.10056 0.14449 0.0
C2694 C 0.75504 0.13077 0.1845 0.0
C2695 C 0.82787 0.16238 0.12656 0.0
C2696 C 0.72988 0.2426 0.15301 0.0
C2697 C 0.75574 0.27191 0.15971 0.0
C2698 C 0.74224 0.20257 0.15141 0.0
C2699 C 0.78098 0.19151 0.15701 0.0
C2700 C 0.80739 0.22141 0.16327 0.0
C2701 C 0.79471 0.26105 0.16421 0.0
C2702 C 0.71352 0.17204 0.14412 0.0
C2703 C 0.84888 0.21143 0.16953 0.0
H2704 H 0.79938 0.0652 0.18259 0.0
H2705 H 0.8621 0.09253 0.13422 0.0
H2706 H 0.74785 0.16278 0.1854 0.0
H2707 H 0.72731 0.11432 0.18107 0.0
H2708 H 0.76461 0.11963 0.19768 0.0
H2709 H 0.84303 0.14574 0.11582 0.0
H2710 H 0.79909 0.17361 0.12145 0.0
H2711 H 0.84659 0.18867 0.12986 0.0
H2712 H 0.69974 0.25065 0.14948 0.0
H2713 H 0.81528 0.28363 0.16898 0.0
H2714 H 0.70158 0.15353 0.15517 0.0
H2715 H 0.72884 0.15192 0.13471 0.0
H2716 H 0.68805 0.18619 0.13725 0.0
H2717 H 0.84732 0.18797 0.17993 0.0
H2718 H 0.86499 0.23778 0.17486 0.0
H2719 H 0.86684 0.19947 0.15847 0.0
C2720 C 0.50516 0.03597 0.38753 0.0
C2721 C 0.50145 0.99514 0.39115 0.0
C2722 C 0.54303 0.05489 0.38748 0.0
C2723 C 0.57793 0.03207 0.39087 0.0
C2724 C 0.57422 0.98998 0.39145 0.0
C2725 C 0.53617 0.97222 0.39192 0.0
C2726 C 0.54444 0.09957 0.38497 0.0
C2727 C 0.61014 0.96345 0.39277 0.0
C2728 C 0.67535 0.0893 0.38281 0.0
C2729 C 0.69178 0.09247 0.3999 0.0
C2730 C 0.63922 0.06908 0.3797 0.0
C2731 C 0.61788 0.05173 0.39407 0.0
C2732 C 0.63536 0.05326 0.41135 0.0
C2733 C 0.67129 0.07449 0.41404 0.0
C2734 C 0.6247 0.06621 0.3608 0.0
C2735 C 0.61812 0.032 0.42735 0.0
H2736 H 0.4785 0.05388 0.38687 0.0
H2737 H 0.53354 0.94044 0.39443 0.0
H2738 H 0.57179 0.11359 0.39042 0.0
H2739 H 0.54293 0.1064 0.37059 0.0
H2740 H 0.51819 0.11371 0.39126 0.0
H2741 H 0.60373 0.93354 0.38714 0.0
H2742 H 0.63626 0.97658 0.38574 0.0
H2743 H 0.61808 0.95922 0.40691 0.0
H2744 H 0.69072 0.10265 0.37159 0.0
H2745 H 0.68373 0.07611 0.42728 0.0
H2746 H 0.6076 0.09335 0.35751 0.0
H2747 H 0.60538 0.0397 0.3586 0.0
H2748 H 0.65016 0.06492 0.35138 0.0
H2749 H 0.61159 0.05391 0.43793 0.0
H2750 H 0.64076 0.01149 0.43286 0.0
H2751 H 0.59106 0.01434 0.42456 0.0
C2752 C 0.29066 0.26036 0.44212 0.0
C2753 C 0.25662 0.26709 0.43185 0.0
C2754 C 0.30777 0.22211 0.4436 0.0
C2755 C 0.29274 0.18969 0.43334 0.0
C2756 C 0.25626 0.19603 0.42401 0.0
C2757 C 0.23892 0.23437 0.42343 0.0
C2758 C 0.34235 0.21745 0.45611 0.0
C2759 C 0.23462 0.16281 0.41454 0.0
C2760 C 0.37216 0.11067 0.42104 0.0
C2761 C 0.35312 0.07477 0.42554 0.0
C2762 C 0.35398 0.14797 0.42395 0.0
C2763 C 0.3152 0.1502 0.43189 0.0
C2764 C 0.29778 0.11367 0.43796 0.0
C2765 C 0.31584 0.07681 0.43398 0.0
C2766 C 0.37855 0.18417 0.41906 0.0
C2767 C 0.26137 0.11244 0.44973 0.0
H2768 H 0.30479 0.28545 0.44869 0.0
H2769 H 0.21262 0.23925 0.41543 0.0
H2770 H 0.3491 0.18583 0.45893 0.0
H2771 H 0.3691 0.23247 0.45044 0.0
H2772 H 0.33579 0.23252 0.46886 0.0
H2773 H 0.21482 0.1745 0.40405 0.0
H2774 H 0.25536 0.14089 0.40873 0.0
H2775 H 0.21474 0.14717 0.42408 0.0
H2776 H 0.40158 0.1097 0.41509 0.0
H2777 H 0.30145 0.04942 0.43838 0.0
H2778 H 0.40263 0.1879 0.42898 0.0
H2779 H 0.36124 0.21188 0.41862 0.0
H2780 H 0.39355 0.17976 0.40608 0.0
H2781 H 0.26825 0.09564 0.46205 0.0
H2782 H 0.23711 0.09569 0.44301 0.0
H2783 H 0.25067 0.14231 0.45361 0.0
C2784 C 1.00127 0.04097 0.17745 0.0
C2785 C 0.99162 1.00022 0.17856 0.0
C2786 C 0.04088 0.05478 0.17795 0.0
C2787 C 0.07228 0.02739 0.18024 0.0
C2788 C 0.06265 0.98627 0.18249 0.0
C2789 C 0.02246 0.97308 0.18143 0.0
C2790 C 0.04915 0.09877 0.1754 0.0
C2791 C 0.09479 0.95601 0.18548 0.0
C2792 C 0.17329 0.06453 0.16272 0.0
C2793 C 0.1887 0.08516 0.17738 0.0
C2794 C 0.1371 0.04287 0.16383 0.0
C2795 C 0.11476 0.04252 0.17986 0.0
C2796 C 0.13146 0.06119 0.19498 0.0
C2797 C 0.16798 0.0821 0.19353 0.0
C2798 C 0.12383 0.01968 0.14782 0.0
C2799 C 0.11071 0.06002 0.21276 0.0
H2800 H 0.97758 0.06227 0.17563 0.0
H2801 H 0.01543 0.94153 0.18215 0.0
H2802 H 0.0639 0.11112 0.18732 0.0
H2803 H 0.06976 0.10342 0.16401 0.0
H2804 H 0.0216 0.11598 0.17299 0.0
H2805 H 0.08249 0.92769 0.19098 0.0
H2806 H 0.10948 0.94936 0.17265 0.0
H2807 H 0.11784 0.96776 0.19466 0.0
H2808 H 0.18954 0.06518 0.15028 0.0
H2809 H 0.18003 0.09655 0.20509 0.0
H2810 H 0.09103 0.01625 0.14717 0.0
H2811 H 0.13682 0.98945 0.1485 0.0
H2812 H 0.13502 0.03384 0.13542 0.0
H2813 H 0.0934 0.08773 0.2145 0.0
H2814 H 0.13278 0.05863 0.22365 0.0
H2815 H 0.09013 0.03411 0.21411 0.0
C2816 C 0.21392 0.93854 0.93754 0.0
C2817 C 0.18424 0.9468 0.925 0.0
C2818 C 0.2304 0.90019 0.93904 0.0
C2819 C 0.21668 0.86913 0.92784 0.0
C2820 C 0.18476 0.87713 0.91603 0.0
C2821 C 0.16987 0.91595 0.91439 0.0
C2822 C 0.26167 0.89284 0.95298 0.0
C2823 C 0.1639 0.84501 0.90572 0.0
C2824 C 0.28741 0.78379 0.91693 0.0
C2825 C 0.26855 0.75126 0.92519 0.0
C2826 C 0.27146 0.82242 0.91807 0.0
C2827 C 0.23626 0.82894 0.92811 0.0
C2828 C 0.21849 0.7963 0.93731 0.0
C2829 C 0.23434 0.75779 0.93541 0.0
C2830 C 0.29114 0.85582 0.90772 0.0
C2831 C 0.18132 0.80142 0.94831 0.0
H2832 H 0.22434 0.96219 0.94617 0.0
H2833 H 0.14548 0.92171 0.90535 0.0
H2834 H 0.25718 0.86328 0.95939 0.0
H2835 H 0.29156 0.89318 0.94671 0.0
H2836 H 0.26136 0.91613 0.96341 0.0
H2837 H 0.15961 0.85496 0.89182 0.0
H2838 H 0.17969 0.81635 0.90607 0.0
H2839 H 0.13371 0.84018 0.91143 0.0
H2840 H 0.31328 0.77856 0.90865 0.0
H2841 H 0.21903 0.73246 0.94137 0.0
H2842 H 0.30343 0.87831 0.91697 0.0
H2843 H 0.26892 0.87105 0.89926 0.0
H2844 H 0.31583 0.84514 0.89919 0.0
H2845 H 0.1769 0.77632 0.95778 0.0
H2846 H 0.15508 0.80233 0.93942 0.0
H2847 H 0.18244 0.82977 0.95583 0.0
C2848 C 0.34837 0.91753 0.66617 0.0
C2849 C 0.32144 0.9165 0.68042 0.0
C2850 C 0.38652 0.93517 0.66796 0.0
C2851 C 0.39811 0.95235 0.68439 0.0
C2852 C 0.37099 0.95123 0.69879 0.0
C2853 C 0.33322 0.93349 0.69663 0.0
C2854 C 0.4144 0.93559 0.65223 0.0
C2855 C 0.38127 0.97013 0.71635 0.0
C2856 C 0.50867 0.97829 0.69187 0.0
C2857 C 0.51034 0.01747 0.68529 0.0
C2858 C 0.47221 0.95661 0.69194 0.0
C2859 C 0.43668 0.97512 0.68599 0.0
C2860 C 0.43794 0.01589 0.68118 0.0
C2861 C 0.47447 0.03642 0.681 0.0
C2862 C 0.4721 0.91326 0.69727 0.0
C2863 C 0.40104 0.03736 0.67508 0.0
H2864 H 0.33969 0.90444 0.65362 0.0
H2865 H 0.31252 0.93368 0.70769 0.0
H2866 H 0.42398 0.96654 0.64904 0.0
H2867 H 0.44149 0.91859 0.65555 0.0
H2868 H 0.40061 0.92223 0.64024 0.0
H2869 H 0.35797 0.9646 0.72658 0.0
H2870 H 0.40998 0.95852 0.72131 0.0
H2871 H 0.38499 1.00279 0.71457 0.0
H2872 H 0.53618 0.96333 0.6951 0.0
H2873 H 0.47534 0.06696 0.67623 0.0
H2874 H 0.45886 0.89481 0.68658 0.0
H2875 H 0.4533 0.90889 0.70925 0.0
H2876 H 0.50251 0.90227 0.70013 0.0
H2877 H 0.39064 0.02453 0.66235 0.0
H2878 H 0.40648 0.06978 0.67307 0.0
H2879 H 0.37662 0.03338 0.68488 0.0
loop_
_geom_bond_atom_site_label_1
_geom_bond_atom_site_label_2
_geom_bond_distance
_geom_bond_site_symmetry_2
_ccdc_geom_bond_type
Eu0 N29 2.600 . S
Eu0 N35 2.562 . S
Eu0 O44 2.462 . S
Eu0 O45 2.373 . S
Eu0 O47 2.432 . S
Eu0 O48 2.291 . S
Eu0 O52 2.335 . S
Eu0 O55 2.372 . S
Eu0 C64 2.787 . S
C1 N2 1.365 . S
C1 C4 1.405 . S
C1 C8 1.448 . S
N2 C1 1.365 . S
N2 C5 1.319 . S
N2 Eu11 2.600 . S
C3 C5 1.397 . S
C3 C6 1.367 . S
C3 H23 0.931 . S
C4 C1 1.405 . S
C4 C6 1.403 . S
C4 C10 1.439 1_545 S
C5 N2 1.319 . S
C5 C3 1.397 . S
C5 H16 0.930 . S
C6 C3 1.367 . S
C6 C4 1.403 . S
C6 H27 0.929 . S
C7 C8 1.430 1_565 S
C7 C9 1.387 . S
C7 C13 1.404 . S
C8 C1 1.448 . S
C8 C7 1.430 1_545 S
C8 N12 1.351 . S
C9 C7 1.387 . S
C9 C10 1.374 . S
C9 H24 0.931 . S
C10 C4 1.439 1_565 S
C10 C9 1.374 . S
C10 H25 0.931 . S
Eu11 N2 2.600 . S
Eu11 N12 2.562 . S
Eu11 O46 2.335 . S
Eu11 O49 2.372 . S
Eu11 O50 2.462 . S
Eu11 O51 2.373 . S
Eu11 O53 2.432 . S
Eu11 O54 2.291 . S
Eu11 C75 2.787 . S
N12 C8 1.351 . S
N12 Eu11 2.562 . S
N12 C14 1.325 . S
C13 C7 1.404 . S
C13 C15 1.366 . S
C13 H21 0.930 . S
C14 N12 1.325 . S
C14 C15 1.416 1_545 S
C14 H20 0.929 . S
C15 C13 1.366 . S
C15 C14 1.416 1_565 S
C15 H17 0.930 . S
H16 C5 0.930 . S
H17 C15 0.930 . S
H18 C33 0.930 . S
H19 C40 0.930 . S
H20 C14 0.929 . S
H21 C13 0.930 . S
H22 C36 0.929 . S
H23 C3 0.931 . S
H24 C9 0.931 . S
H25 C10 0.931 . S
H26 C31 0.931 . S
H27 C6 0.929 . S
H28 C39 0.930 . S
N29 Eu0 2.600 . S
N29 C30 1.365 . S
N29 C33 1.319 . S
C30 N29 1.365 . S
C30 C32 1.405 . S
C30 C38 1.448 . S
C31 H26 0.931 . S
C31 C33 1.397 . S
C31 C34 1.367 . S
C32 C30 1.405 . S
C32 C34 1.403 . S
C32 C65 1.439 . S
C33 H18 0.930 . S
C33 N29 1.319 . S
C33 C31 1.397 . S
C34 C31 1.367 . S
C34 C32 1.403 . S
C34 H41 0.929 . S
N35 Eu0 2.562 . S
N35 C36 1.325 . S
N35 C38 1.351 . S
C36 H22 0.929 . S
C36 N35 1.325 . S
C36 C40 1.416 . S
C37 C38 1.430 . S
C37 C39 1.404 . S
C37 C66 1.387 . S
C38 C30 1.448 . S
C38 N35 1.351 . S
C38 C37 1.430 . S
C39 H28 0.930 . S
C39 C37 1.404 . S
C39 C40 1.366 . S
C40 H19 0.930 . S
C40 C36 1.416 . S
C40 C39 1.366 . S
H41 C34 0.929 . S
H42 C65 0.931 . S
H43 C66 0.931 . S
O44 Eu0 2.462 . S
O44 C64 1.252 . S
O45 Eu0 2.373 . S
O45 C56 1.249 . S
O46 Eu11 2.335 . S
O46 C56 1.264 . S
O47 Eu0 2.432 . S
O47 C64 1.268 . S
O48 Eu0 2.291 . S
O48 C63 1.255 . S
O49 Eu11 2.372 . S
O49 C63 1.257 . S
O50 Eu11 2.462 . S
O50 C75 1.252 . S
O51 Eu11 2.373 . S
O51 C67 1.249 . S
O52 Eu0 2.335 . S
O52 C67 1.264 . S
O53 Eu11 2.432 . S
O53 C75 1.268 . S
O54 Eu11 2.291 . S
O54 C74 1.255 . S
O55 Eu0 2.372 . S
O55 C74 1.257 . S
C56 O45 1.249 . S
C56 O46 1.264 . S
C57 C60 1.382 . S
C57 C62 1.390 . S
C57 C64 1.506 . S
C58 C59 1.398 . S
C58 C62 1.392 . S
C59 C58 1.398 . S
C59 C61 1.372 . S
C59 H76 0.931 . S
C60 C57 1.382 . S
C60 C61 1.390 . S
C60 H77 0.931 . S
C61 C59 1.372 . S
C61 C60 1.390 . S
C61 H78 0.929 . S
C62 C57 1.390 . S
C62 C58 1.392 . S
C62 H79 0.930 . S
C63 O48 1.255 . S
C63 O49 1.257 . S
C64 Eu0 2.787 . S
C64 O44 1.252 . S
C64 O47 1.268 . S
C64 C57 1.506 . S
C65 C32 1.439 . S
C65 H42 0.931 . S
C65 C66 1.374 . S
C66 C37 1.387 . S
C66 H43 0.931 . S
C66 C65 1.374 . S
C67 O51 1.249 . S
C67 O52 1.264 . S
C68 C71 1.382 . S
C68 C72 1.390 . S
C68 C75 1.506 . S
C69 C70 1.398 . S
C69 C72 1.392 . S
C70 C69 1.398 . S
C70 C73 1.372 . S
C70 H80 0.931 . S
C71 C68 1.382 . S
C71 C73 1.390 . S
C71 H81 0.931 . S
C72 C68 1.390 . S
C72 C69 1.392 . S
C72 H82 0.930 . S
C73 C70 1.372 . S
C73 C71 1.390 . S
C73 H83 0.929 . S
C74 O54 1.255 . S
C74 O55 1.257 . S
C75 Eu11 2.787 . S
C75 O50 1.252 . S
C75 O53 1.268 . S
C75 C68 1.506 . S
H76 C59 0.931 . S
H77 C60 0.931 . S
H78 C61 0.929 . S
H79 C62 0.930 . S
H80 C70 0.931 . S
H81 C71 0.931 . S
H82 C72 0.930 . S
H83 C73 0.929 . S
Eu84 N113 2.600 . S
Eu84 N119 2.562 . S
Eu84 O128 2.462 . S
Eu84 O129 2.373 . S
Eu84 O131 2.432 . S
Eu84 O132 2.291 . S
Eu84 O136 2.335 . S
Eu84 O139 2.372 . S
Eu84 C148 2.787 . S
C85 N86 1.365 . S
C85 C88 1.405 . S
C85 C92 1.448 . S
N86 C85 1.365 . S
N86 C89 1.319 . S
N86 Eu95 2.600 . S
C87 C89 1.397 . S
C87 C90 1.367 . S
C87 H107 0.931 . S
C88 C85 1.405 . S
C88 C90 1.403 . S
C88 C94 1.439 . S
C89 N86 1.319 . S
C89 C87 1.397 . S
C89 H100 0.930 . S
C90 C87 1.367 . S
C90 C88 1.403 . S
C90 H111 0.929 . S
C91 C92 1.430 . S
C91 C93 1.387 . S
C91 C97 1.404 . S
C92 C85 1.448 . S
C92 C91 1.430 . S
C92 N96 1.351 . S
C93 C91 1.387 . S
C93 C94 1.374 . S
C93 H108 0.931 . S
C94 C88 1.439 . S
C94 C93 1.374 . S
C94 H109 0.931 . S
Eu95 N86 2.600 . S
Eu95 N96 2.562 . S
Eu95 O130 2.335 . S
Eu95 O133 2.372 . S
Eu95 O134 2.462 . S
Eu95 O135 2.373 . S
Eu95 O137 2.432 . S
Eu95 O138 2.291 . S
Eu95 C159 2.787 . S
N96 C92 1.351 . S
N96 Eu95 2.562 . S
N96 C98 1.325 . S
C97 C91 1.404 . S
C97 C99 1.366 . S
C97 H105 0.930 . S
C98 N96 1.325 . S
C98 C99 1.416 . S
C98 H104 0.929 . S
C99 C97 1.366 . S
C99 C98 1.416 . S
C99 H101 0.930 . S
H100 C89 0.930 . S
H101 C99 0.930 . S
H102 C117 0.930 . S
H103 C124 0.930 . S
H104 C98 0.929 . S
H105 C97 0.930 . S
H106 C120 0.929 . S
H107 C87 0.931 . S
H108 C93 0.931 . S
H109 C94 0.931 . S
H110 C115 0.931 . S
H111 C90 0.929 . S
H112 C123 0.930 . S
N113 Eu84 2.600 . S
N113 C114 1.365 . S
N113 C117 1.319 . S
C114 N113 1.365 . S
C114 C116 1.405 . S
C114 C122 1.448 . S
C115 H110 0.931 . S
C115 C117 1.397 . S
C115 C118 1.367 . S
C116 C114 1.405 . S
C116 C118 1.403 . S
C116 C149 1.439 . S
C117 H102 0.930 . S
C117 N113 1.319 . S
C117 C115 1.397 . S
C118 C115 1.367 . S
C118 C116 1.403 . S
C118 H125 0.929 . S
N119 Eu84 2.562 . S
N119 C120 1.325 . S
N119 C122 1.351 . S
C120 H106 0.929 . S
C120 N119 1.325 . S
C120 C124 1.416 . S
C121 C122 1.430 . S
C121 C123 1.404 . S
C121 C150 1.387 . S
C122 C114 1.448 . S
C122 N119 1.351 . S
C122 C121 1.430 . S
C123 H112 0.930 . S
C123 C121 1.404 . S
C123 C124 1.366 . S
C124 H103 0.930 . S
C124 C120 1.416 . S
C124 C123 1.366 . S
H125 C118 0.929 . S
H126 C149 0.931 . S
H127 C150 0.931 . S
O128 Eu84 2.462 . S
O128 C148 1.252 . S
O129 Eu84 2.373 . S
O129 C140 1.249 . S
O130 Eu95 2.335 . S
O130 C140 1.264 . S
O131 Eu84 2.432 . S
O131 C148 1.268 . S
O132 Eu84 2.291 . S
O132 C147 1.255 . S
O133 Eu95 2.372 . S
O133 C147 1.257 . S
O134 Eu95 2.462 . S
O134 C159 1.252 . S
O135 Eu95 2.373 . S
O135 C151 1.249 . S
O136 Eu84 2.335 . S
O136 C151 1.264 . S
O137 Eu95 2.432 . S
O137 C159 1.268 . S
O138 Eu95 2.291 . S
O138 C158 1.255 . S
O139 Eu84 2.372 . S
O139 C158 1.257 . S
C140 O129 1.249 . S
C140 O130 1.264 . S
C141 C144 1.382 . S
C141 C146 1.390 . S
C141 C148 1.506 . S
C142 C143 1.398 . S
C142 C146 1.392 . S
C143 C142 1.398 . S
C143 C145 1.372 . S
C143 H160 0.931 . S
C144 C141 1.382 . S
C144 C145 1.390 . S
C144 H161 0.931 . S
C145 C143 1.372 . S
C145 C144 1.390 . S
C145 H162 0.929 . S
C146 C141 1.390 . S
C146 C142 1.392 . S
C146 H163 0.930 . S
C147 O132 1.255 . S
C147 O133 1.257 . S
C148 Eu84 2.787 . S
C148 O128 1.252 . S
C148 O131 1.268 . S
C148 C141 1.506 . S
C149 C116 1.439 . S
C149 H126 0.931 . S
C149 C150 1.374 . S
C150 C121 1.387 . S
C150 H127 0.931 . S
C150 C149 1.374 . S
C151 O135 1.249 . S
C151 O136 1.264 . S
C152 C155 1.382 . S
C152 C156 1.390 . S
C152 C159 1.506 . S
C153 C154 1.398 . S
C153 C156 1.392 . S
C154 C153 1.398 . S
C154 C157 1.372 . S
C154 H164 0.931 . S
C155 C152 1.382 . S
C155 C157 1.390 . S
C155 H165 0.931 . S
C156 C152 1.390 . S
C156 C153 1.392 . S
C156 H166 0.930 . S
C157 C154 1.372 . S
C157 C155 1.390 . S
C157 H167 0.929 . S
C158 O138 1.255 . S
C158 O139 1.257 . S
C159 Eu95 2.787 . S
C159 O134 1.252 . S
C159 O137 1.268 . S
C159 C152 1.506 . S
H160 C143 0.931 . S
H161 C144 0.931 . S
H162 C145 0.929 . S
H163 C146 0.930 . S
H164 C154 0.931 . S
H165 C155 0.931 . S
H166 C156 0.930 . S
H167 C157 0.929 . S
Eu168 N197 2.600 . S
Eu168 N203 2.562 . S
Eu168 O212 2.462 . S
Eu168 O213 2.373 . S
Eu168 O215 2.432 . S
Eu168 O216 2.291 . S
Eu168 O220 2.335 . S
Eu168 O223 2.372 . S
Eu168 C232 2.787 . S
C169 N170 1.365 . S
C169 C172 1.405 . S
C169 C176 1.448 . S
N170 C169 1.365 . S
N170 C173 1.319 . S
N170 Eu179 2.600 . S
C171 C173 1.397 . S
C171 C174 1.367 . S
C171 H191 0.931 . S
C172 C169 1.405 . S
C172 C174 1.403 . S
C172 C178 1.439 1_565 S
C173 N170 1.319 . S
C173 C171 1.397 . S
C173 H184 0.930 . S
C174 C171 1.367 . S
C174 C172 1.403 . S
C174 H195 0.929 . S
C175 C176 1.430 1_545 S
C175 C177 1.387 . S
C175 C181 1.404 . S
C176 C169 1.448 . S
C176 C175 1.430 1_565 S
C176 N180 1.351 . S
C177 C175 1.387 . S
C177 C178 1.374 . S
C177 H192 0.931 . S
C178 C172 1.439 1_545 S
C178 C177 1.374 . S
C178 H193 0.931 . S
Eu179 N170 2.600 . S
Eu179 N180 2.562 . S
Eu179 O214 2.335 . S
Eu179 O217 2.372 . S
Eu179 O218 2.462 . S
Eu179 O219 2.373 . S
Eu179 O221 2.432 . S
Eu179 O222 2.291 . S
Eu179 C243 2.787 . S
N180 C176 1.351 . S
N180 Eu179 2.562 . S
N180 C182 1.325 . S
C181 C175 1.404 . S
C181 C183 1.366 . S
C181 H189 0.930 . S
C182 N180 1.325 . S
C182 C183 1.416 1_565 S
C182 H188 0.929 . S
C183 C181 1.366 . S
C183 C182 1.416 1_545 S
C183 H185 0.930 . S
H184 C173 0.930 . S
H185 C183 0.930 . S
H186 C201 0.930 . S
H187 C208 0.930 . S
H188 C182 0.929 . S
H189 C181 0.930 . S
H190 C204 0.929 . S
H191 C171 0.931 . S
H192 C177 0.931 . S
H193 C178 0.931 . S
H194 C199 0.931 . S
H195 C174 0.929 . S
H196 C207 0.930 . S
N197 Eu168 2.600 . S
N197 C198 1.365 . S
N197 C201 1.319 . S
C198 N197 1.365 . S
C198 C200 1.405 . S
C198 C206 1.448 . S
C199 H194 0.931 . S
C199 C201 1.397 . S
C199 C202 1.367 . S
C200 C198 1.405 . S
C200 C202 1.403 . S
C200 C233 1.439 . S
C201 H186 0.930 . S
C201 N197 1.319 . S
C201 C199 1.397 . S
C202 C199 1.367 . S
C202 C200 1.403 . S
C202 H209 0.929 . S
N203 Eu168 2.562 . S
N203 C204 1.325 . S
N203 C206 1.351 . S
C204 H190 0.929 . S
C204 N203 1.325 . S
C204 C208 1.416 . S
C205 C206 1.430 . S
C205 C207 1.404 . S
C205 C234 1.387 . S
C206 C198 1.448 . S
C206 N203 1.351 . S
C206 C205 1.430 . S
C207 H196 0.930 . S
C207 C205 1.404 . S
C207 C208 1.366 . S
C208 H187 0.930 . S
C208 C204 1.416 . S
C208 C207 1.366 . S
H209 C202 0.929 . S
H210 C233 0.931 . S
H211 C234 0.931 . S
O212 Eu168 2.462 . S
O212 C232 1.252 . S
O213 Eu168 2.373 . S
O213 C224 1.249 . S
O214 Eu179 2.335 . S
O214 C224 1.264 . S
O215 Eu168 2.432 . S
O215 C232 1.268 . S
O216 Eu168 2.291 . S
O216 C231 1.255 . S
O217 Eu179 2.372 . S
O217 C231 1.257 . S
O218 Eu179 2.462 . S
O218 C243 1.252 . S
O219 Eu179 2.373 . S
O219 C235 1.249 . S
O220 Eu168 2.335 . S
O220 C235 1.264 . S
O221 Eu179 2.432 . S
O221 C243 1.268 . S
O222 Eu179 2.291 . S
O222 C242 1.255 . S
O223 Eu168 2.372 . S
O223 C242 1.257 . S
C224 O213 1.249 . S
C224 O214 1.264 . S
C225 C228 1.382 . S
C225 C230 1.390 . S
C225 C232 1.506 . S
C226 C227 1.398 . S
C226 C230 1.392 . S
C227 C226 1.398 . S
C227 C229 1.372 . S
C227 H244 0.931 . S
C228 C225 1.382 . S
C228 C229 1.390 . S
C228 H245 0.931 . S
C229 C227 1.372 . S
C229 C228 1.390 . S
C229 H246 0.929 . S
C230 C225 1.390 . S
C230 C226 1.392 . S
C230 H247 0.930 . S
C231 O216 1.255 . S
C231 O217 1.257 . S
C232 Eu168 2.787 . S
C232 O212 1.252 . S
C232 O215 1.268 . S
C232 C225 1.506 . S
C233 C200 1.439 . S
C233 H210 0.931 . S
C233 C234 1.374 . S
C234 C205 1.387 . S
C234 H211 0.931 . S
C234 C233 1.374 . S
C235 O219 1.249 . S
C235 O220 1.264 . S
C236 C239 1.382 . S
C236 C240 1.390 . S
C236 C243 1.506 . S
C237 C238 1.398 . S
C237 C240 1.392 . S
C238 C237 1.398 . S
C238 C241 1.372 . S
C238 H248 0.931 . S
C239 C236 1.382 . S
C239 C241 1.390 . S
C239 H249 0.931 . S
C240 C236 1.390 . S
C240 C237 1.392 . S
C240 H250 0.930 . S
C241 C238 1.372 . S
C241 C239 1.390 . S
C241 H251 0.929 . S
C242 O222 1.255 . S
C242 O223 1.257 . S
C243 Eu179 2.787 . S
C243 O218 1.252 . S
C243 O221 1.268 . S
C243 C236 1.506 . S
H244 C227 0.931 . S
H245 C228 0.931 . S
H246 C229 0.929 . S
H247 C230 0.930 . S
H248 C238 0.931 . S
H249 C239 0.931 . S
H250 C240 0.930 . S
H251 C241 0.929 . S
Eu252 N281 2.600 . S
Eu252 N287 2.562 . S
Eu252 O296 2.462 . S
Eu252 O297 2.373 . S
Eu252 O299 2.432 . S
Eu252 O300 2.291 . S
Eu252 O304 2.335 . S
Eu252 O307 2.372 . S
Eu252 C316 2.787 . S
C253 N254 1.365 . S
C253 C256 1.405 . S
C253 C260 1.448 . S
N254 C253 1.365 . S
N254 C257 1.319 . S
N254 Eu263 2.600 . S
C255 C257 1.397 1_455 S
C255 C258 1.367 1_455 S
C255 H275 0.931 . S
C256 C253 1.405 . S
C256 C258 1.403 . S
C256 C262 1.439 . S
C257 N254 1.319 . S
C257 C255 1.397 1_655 S
C257 H268 0.929 1_655 S
C258 C255 1.367 1_655 S
C258 C256 1.403 . S
C258 H279 0.929 1_655 S
C259 C260 1.430 . S
C259 C261 1.387 . S
C259 C265 1.404 . S
C260 C253 1.448 . S
C260 C259 1.430 . S
C260 N264 1.351 . S
C261 C259 1.387 . S
C261 C262 1.374 . S
C261 H276 0.931 . S
C262 C256 1.439 . S
C262 C261 1.374 . S
C262 H277 0.931 . S
Eu263 N254 2.600 . S
Eu263 N264 2.562 . S
Eu263 O298 2.335 . S
Eu263 O301 2.372 . S
Eu263 O302 2.462 . S
Eu263 O303 2.373 . S
Eu263 O305 2.432 . S
Eu263 O306 2.291 . S
Eu263 C327 2.787 . S
N264 C260 1.351 . S
N264 Eu263 2.562 . S
N264 C266 1.325 . S
C265 C259 1.404 . S
C265 C267 1.366 . S
C265 H273 0.930 . S
C266 N264 1.325 . S
C266 C267 1.416 . S
C266 H272 0.929 . S
C267 C265 1.366 . S
C267 C266 1.416 . S
C267 H269 0.930 . S
H268 C257 0.929 1_455 S
H269 C267 0.930 . S
H270 C285 0.930 . S
H271 C292 0.930 . S
H272 C266 0.929 . S
H273 C265 0.930 . S
H274 C288 0.929 . S
H275 C255 0.931 . S
H276 C261 0.931 . S
H277 C262 0.931 . S
H278 C283 0.931 . S
H279 C258 0.929 1_455 S
H280 C291 0.930 . S
N281 Eu252 2.600 . S
N281 C282 1.365 . S
N281 C285 1.319 . S
C282 N281 1.365 . S
C282 C284 1.405 . S
C282 C290 1.448 . S
C283 H278 0.931 . S
C283 C285 1.397 . S
C283 C286 1.367 . S
C284 C282 1.405 . S
C284 C286 1.403 . S
C284 C317 1.439 . S
C285 H270 0.930 . S
C285 N281 1.319 . S
C285 C283 1.397 . S
C286 C283 1.367 . S
C286 C284 1.403 . S
C286 H293 0.929 . S
N287 Eu252 2.562 . S
N287 C288 1.325 . S
N287 C290 1.351 . S
C288 H274 0.929 . S
C288 N287 1.325 . S
C288 C292 1.416 . S
C289 C290 1.430 . S
C289 C291 1.404 . S
C289 C318 1.387 . S
C290 C282 1.448 . S
C290 N287 1.351 . S
C290 C289 1.430 . S
C291 H280 0.930 . S
C291 C289 1.404 . S
C291 C292 1.366 . S
C292 H271 0.930 . S
C292 C288 1.416 . S
C292 C291 1.366 . S
H293 C286 0.929 . S
H294 C317 0.931 . S
H295 C318 0.931 . S
O296 Eu252 2.462 . S
O296 C316 1.252 . S
O297 Eu252 2.373 . S
O297 C308 1.249 . S
O298 Eu263 2.335 . S
O298 C308 1.264 . S
O299 Eu252 2.432 . S
O299 C316 1.268 . S
O300 Eu252 2.291 . S
O300 C315 1.255 . S
O301 Eu263 2.372 . S
O301 C315 1.257 . S
O302 Eu263 2.462 . S
O302 C327 1.252 . S
O303 Eu263 2.373 . S
O303 C319 1.249 . S
O304 Eu252 2.335 . S
O304 C319 1.264 . S
O305 Eu263 2.432 . S
O305 C327 1.268 . S
O306 Eu263 2.291 . S
O306 C326 1.255 . S
O307 Eu252 2.372 . S
O307 C326 1.257 . S
C308 O297 1.249 . S
C308 O298 1.264 . S
C309 C312 1.382 . S
C309 C314 1.390 . S
C309 C316 1.506 . S
C310 C311 1.398 . S
C310 C314 1.392 . S
C311 C310 1.398 . S
C311 C313 1.372 . S
C311 H328 0.931 . S
C312 C309 1.382 . S
C312 C313 1.390 . S
C312 H329 0.931 . S
C313 C311 1.372 . S
C313 C312 1.390 . S
C313 H330 0.929 . S
C314 C309 1.390 . S
C314 C310 1.392 . S
C314 H331 0.930 . S
C315 O300 1.255 . S
C315 O301 1.257 . S
C316 Eu252 2.787 . S
C316 O296 1.252 . S
C316 O299 1.268 . S
C316 C309 1.506 . S
C317 C284 1.439 . S
C317 H294 0.931 . S
C317 C318 1.374 . S
C318 C289 1.387 . S
C318 H295 0.931 . S
C318 C317 1.374 . S
C319 O303 1.249 . S
C319 O304 1.264 . S
C320 C323 1.382 1_655 S
C320 C324 1.390 . S
C320 C327 1.506 . S
C321 C322 1.398 1_655 S
C321 C324 1.392 . S
C322 C321 1.398 1_455 S
C322 C325 1.372 . S
C322 H332 0.931 . S
C323 C320 1.382 1_455 S
C323 C325 1.390 . S
C323 H333 0.931 . S
C324 C320 1.390 . S
C324 C321 1.392 . S
C324 H334 0.930 . S
C325 C322 1.372 . S
C325 C323 1.390 . S
C325 H335 0.929 . S
C326 O306 1.255 . S
C326 O307 1.257 . S
C327 Eu263 2.787 . S
C327 O302 1.252 . S
C327 O305 1.268 . S
C327 C320 1.506 . S
H328 C311 0.931 . S
H329 C312 0.931 . S
H330 C313 0.929 . S
H331 C314 0.930 . S
H332 C322 0.931 . S
H333 C323 0.931 . S
H334 C324 0.930 . S
H335 C325 0.929 . S
Eu336 N365 2.600 . S
Eu336 N371 2.562 . S
Eu336 O380 2.462 . S
Eu336 O381 2.373 . S
Eu336 O383 2.432 . S
Eu336 O384 2.291 . S
Eu336 O388 2.335 . S
Eu336 O391 2.372 . S
Eu336 C400 2.787 . S
C337 N338 1.365 . S
C337 C340 1.405 . S
C337 C344 1.448 . S
N338 C337 1.365 . S
N338 C341 1.319 . S
N338 Eu347 2.600 . S
C339 C341 1.397 . S
C339 C342 1.367 . S
C339 H359 0.931 . S
C340 C337 1.405 . S
C340 C342 1.403 . S
C340 C346 1.439 . S
C341 N338 1.319 . S
C341 C339 1.397 . S
C341 H352 0.930 . S
C342 C339 1.367 . S
C342 C340 1.403 . S
C342 H363 0.929 . S
C343 C344 1.430 . S
C343 C345 1.387 . S
C343 C349 1.404 . S
C344 C337 1.448 . S
C344 C343 1.430 . S
C344 N348 1.351 . S
C345 C343 1.387 . S
C345 C346 1.374 . S
C345 H360 0.931 . S
C346 C340 1.439 . S
C346 C345 1.374 . S
C346 H361 0.931 . S
Eu347 N338 2.600 . S
Eu347 N348 2.562 . S
Eu347 O382 2.335 . S
Eu347 O385 2.372 . S
Eu347 O386 2.462 . S
Eu347 O387 2.373 . S
Eu347 O389 2.432 . S
Eu347 O390 2.291 . S
Eu347 C411 2.787 . S
N348 C344 1.351 . S
N348 Eu347 2.562 . S
N348 C350 1.325 . S
C349 C343 1.404 . S
C349 C351 1.366 . S
C349 H357 0.930 . S
C350 N348 1.325 . S
C350 C351 1.416 . S
C350 H356 0.929 . S
C351 C349 1.366 . S
C351 C350 1.416 . S
C351 H353 0.930 . S
H352 C341 0.930 . S
H353 C351 0.930 . S
H354 C369 0.930 . S
H355 C376 0.930 . S
H356 C350 0.929 . S
H357 C349 0.930 . S
H358 C372 0.929 . S
H359 C339 0.931 . S
H360 C345 0.931 . S
H361 C346 0.931 . S
H362 C367 0.931 . S
H363 C342 0.929 . S
H364 C375 0.930 . S
N365 Eu336 2.600 . S
N365 C366 1.365 . S
N365 C369 1.319 . S
C366 N365 1.365 . S
C366 C368 1.405 . S
C366 C374 1.448 . S
C367 H362 0.931 . S
C367 C369 1.397 . S
C367 C370 1.367 . S
C368 C366 1.405 . S
C368 C370 1.403 . S
C368 C401 1.439 1_565 S
C369 H354 0.930 . S
C369 N365 1.319 . S
C369 C367 1.397 . S
C370 C367 1.367 . S
C370 C368 1.403 . S
C370 H377 0.929 . S
N371 Eu336 2.562 . S
N371 C372 1.325 . S
N371 C374 1.351 . S
C372 H358 0.929 . S
C372 N371 1.325 . S
C372 C376 1.416 1_565 S
C373 C374 1.430 1_545 S
C373 C375 1.404 . S
C373 C402 1.387 . S
C374 C366 1.448 . S
C374 N371 1.351 . S
C374 C373 1.430 1_565 S
C375 H364 0.930 . S
C375 C373 1.404 . S
C375 C376 1.366 . S
C376 H355 0.930 . S
C376 C372 1.416 1_545 S
C376 C375 1.366 . S
H377 C370 0.929 . S
H378 C401 0.931 . S
H379 C402 0.931 . S
O380 Eu336 2.462 . S
O380 C400 1.252 . S
O381 Eu336 2.373 . S
O381 C392 1.249 . S
O382 Eu347 2.335 . S
O382 C392 1.264 . S
O383 Eu336 2.432 . S
O383 C400 1.268 . S
O384 Eu336 2.291 . S
O384 C399 1.255 . S
O385 Eu347 2.372 . S
O385 C399 1.257 . S
O386 Eu347 2.462 . S
O386 C411 1.252 . S
O387 Eu347 2.373 . S
O387 C403 1.249 . S
O388 Eu336 2.335 . S
O388 C403 1.264 . S
O389 Eu347 2.432 . S
O389 C411 1.268 . S
O390 Eu347 2.291 . S
O390 C410 1.255 . S
O391 Eu336 2.372 . S
O391 C410 1.257 . S
C392 O381 1.249 . S
C392 O382 1.264 . S
C393 C396 1.382 . S
C393 C398 1.390 . S
C393 C400 1.506 . S
C394 C395 1.398 . S
C394 C398 1.392 . S
C395 C394 1.398 . S
C395 C397 1.372 . S
C395 H412 0.931 . S
C396 C393 1.382 . S
C396 C397 1.390 . S
C396 H413 0.931 . S
C397 C395 1.372 . S
C397 C396 1.390 . S
C397 H414 0.929 . S
C398 C393 1.390 . S
C398 C394 1.392 . S
C398 H415 0.930 . S
C399 O384 1.255 . S
C399 O385 1.257 . S
C400 Eu336 2.787 . S
C400 O380 1.252 . S
C400 O383 1.268 . S
C400 C393 1.506 . S
C401 C368 1.439 1_545 S
C401 H378 0.931 . S
C401 C402 1.374 . S
C402 C373 1.387 . S
C402 H379 0.931 . S
C402 C401 1.374 . S
C403 O387 1.249 . S
C403 O388 1.264 . S
C404 C407 1.382 . S
C404 C408 1.390 . S
C404 C411 1.506 . S
C405 C406 1.398 . S
C405 C408 1.392 . S
C406 C405 1.398 . S
C406 C409 1.372 . S
C406 H416 0.931 . S
C407 C404 1.382 . S
C407 C409 1.390 . S
C407 H417 0.931 . S
C408 C404 1.390 . S
C408 C405 1.392 . S
C408 H418 0.930 . S
C409 C406 1.372 . S
C409 C407 1.390 . S
C409 H419 0.929 . S
C410 O390 1.255 . S
C410 O391 1.257 . S
C411 Eu347 2.787 . S
C411 O386 1.252 . S
C411 O389 1.268 . S
C411 C404 1.506 . S
H412 C395 0.931 . S
H413 C396 0.931 . S
H414 C397 0.929 . S
H415 C398 0.930 . S
H416 C406 0.931 . S
H417 C407 0.931 . S
H418 C408 0.930 . S
H419 C409 0.929 . S
Eu420 N449 2.600 . S
Eu420 N455 2.562 . S
Eu420 O464 2.462 . S
Eu420 O465 2.373 . S
Eu420 O467 2.432 . S
Eu420 O468 2.291 . S
Eu420 O472 2.335 . S
Eu420 O475 2.372 . S
Eu420 C484 2.787 . S
C421 N422 1.365 . S
C421 C424 1.405 . S
C421 C428 1.448 . S
N422 C421 1.365 . S
N422 C425 1.319 . S
N422 Eu431 2.600 . S
C423 C425 1.397 . S
C423 C426 1.367 . S
C423 H443 0.931 . S
C424 C421 1.405 . S
C424 C426 1.403 . S
C424 C430 1.439 . S
C425 N422 1.319 . S
C425 C423 1.397 . S
C425 H436 0.930 . S
C426 C423 1.367 . S
C426 C424 1.403 . S
C426 H447 0.929 . S
C427 C428 1.430 . S
C427 C429 1.387 . S
C427 C433 1.404 . S
C428 C421 1.448 . S
C428 C427 1.430 . S
C428 N432 1.351 . S
C429 C427 1.387 . S
C429 C430 1.374 . S
C429 H444 0.931 . S
C430 C424 1.439 . S
C430 C429 1.374 . S
C430 H445 0.931 . S
Eu431 N422 2.600 . S
Eu431 N432 2.562 . S
Eu431 O466 2.335 . S
Eu431 O469 2.372 . S
Eu431 O470 2.462 . S
Eu431 O471 2.373 . S
Eu431 O473 2.432 . S
Eu431 O474 2.291 . S
Eu431 C495 2.787 . S
N432 C428 1.351 . S
N432 Eu431 2.562 . S
N432 C434 1.325 . S
C433 C427 1.404 . S
C433 C435 1.366 . S
C433 H441 0.930 . S
C434 N432 1.325 . S
C434 C435 1.416 . S
C434 H440 0.929 . S
C435 C433 1.366 . S
C435 C434 1.416 . S
C435 H437 0.930 . S
H436 C425 0.930 . S
H437 C435 0.930 . S
H438 C453 0.930 . S
H439 C460 0.930 . S
H440 C434 0.929 . S
H441 C433 0.930 . S
H442 C456 0.929 . S
H443 C423 0.931 . S
H444 C429 0.931 . S
H445 C430 0.931 . S
H446 C451 0.931 . S
H447 C426 0.929 . S
H448 C459 0.930 . S
N449 Eu420 2.600 . S
N449 C450 1.365 . S
N449 C453 1.319 . S
C450 N449 1.365 . S
C450 C452 1.405 . S
C450 C458 1.448 . S
C451 H446 0.931 . S
C451 C453 1.397 . S
C451 C454 1.367 . S
C452 C450 1.405 . S
C452 C454 1.403 . S
C452 C485 1.439 . S
C453 H438 0.930 . S
C453 N449 1.319 . S
C453 C451 1.397 . S
C454 C451 1.367 . S
C454 C452 1.403 . S
C454 H461 0.929 . S
N455 Eu420 2.562 . S
N455 C456 1.325 . S
N455 C458 1.351 . S
C456 H442 0.929 . S
C456 N455 1.325 . S
C456 C460 1.416 . S
C457 C458 1.430 . S
C457 C459 1.404 . S
C457 C486 1.387 . S
C458 C450 1.448 . S
C458 N455 1.351 . S
C458 C457 1.430 . S
C459 H448 0.930 . S
C459 C457 1.404 . S
C459 C460 1.366 . S
C460 H439 0.930 . S
C460 C456 1.416 . S
C460 C459 1.366 . S
H461 C454 0.929 . S
H462 C485 0.931 . S
H463 C486 0.931 . S
O464 Eu420 2.462 . S
O464 C484 1.252 . S
O465 Eu420 2.373 . S
O465 C476 1.249 . S
O466 Eu431 2.335 . S
O466 C476 1.264 . S
O467 Eu420 2.432 . S
O467 C484 1.268 . S
O468 Eu420 2.291 . S
O468 C483 1.255 . S
O469 Eu431 2.372 . S
O469 C483 1.257 . S
O470 Eu431 2.462 . S
O470 C495 1.252 . S
O471 Eu431 2.373 . S
O471 C487 1.249 . S
O472 Eu420 2.335 . S
O472 C487 1.264 . S
O473 Eu431 2.432 . S
O473 C495 1.268 . S
O474 Eu431 2.291 . S
O474 C494 1.255 . S
O475 Eu420 2.372 . S
O475 C494 1.257 . S
C476 O465 1.249 . S
C476 O466 1.264 . S
C477 C480 1.382 . S
C477 C482 1.390 . S
C477 C484 1.506 . S
C478 C479 1.398 . S
C478 C482 1.392 . S
C479 C478 1.398 . S
C479 C481 1.372 . S
C479 H496 0.931 . S
C480 C477 1.382 . S
C480 C481 1.390 . S
C480 H497 0.931 . S
C481 C479 1.372 . S
C481 C480 1.390 . S
C481 H498 0.929 . S
C482 C477 1.390 . S
C482 C478 1.392 . S
C482 H499 0.930 . S
C483 O468 1.255 . S
C483 O469 1.257 . S
C484 Eu420 2.787 . S
C484 O464 1.252 . S
C484 O467 1.268 . S
C484 C477 1.506 . S
C485 C452 1.439 . S
C485 H462 0.931 . S
C485 C486 1.374 . S
C486 C457 1.387 . S
C486 H463 0.931 . S
C486 C485 1.374 . S
C487 O471 1.249 . S
C487 O472 1.264 . S
C488 C491 1.382 . S
C488 C492 1.390 . S
C488 C495 1.506 . S
C489 C490 1.398 . S
C489 C492 1.392 . S
C490 C489 1.398 . S
C490 C493 1.372 . S
C490 H500 0.931 . S
C491 C488 1.382 . S
C491 C493 1.390 . S
C491 H501 0.931 . S
C492 C488 1.390 . S
C492 C489 1.392 . S
C492 H502 0.930 . S
C493 C490 1.372 . S
C493 C491 1.390 . S
C493 H503 0.929 . S
C494 O474 1.255 . S
C494 O475 1.257 . S
C495 Eu431 2.787 . S
C495 O470 1.252 . S
C495 O473 1.268 . S
C495 C488 1.506 . S
H496 C479 0.931 . S
H497 C480 0.931 . S
H498 C481 0.929 . S
H499 C482 0.930 . S
H500 C490 0.931 . S
H501 C491 0.931 . S
H502 C492 0.930 . S
H503 C493 0.929 . S
Eu504 N533 2.600 . S
Eu504 N539 2.562 . S
Eu504 O548 2.462 . S
Eu504 O549 2.373 . S
Eu504 O551 2.432 . S
Eu504 O552 2.291 . S
Eu504 O556 2.335 . S
Eu504 O559 2.372 . S
Eu504 C568 2.787 . S
C505 N506 1.365 . S
C505 C508 1.405 . S
C505 C512 1.448 . S
N506 C505 1.365 . S
N506 C509 1.319 . S
N506 Eu515 2.600 . S
C507 C509 1.397 . S
C507 C510 1.367 . S
C507 H527 0.931 . S
C508 C505 1.405 . S
C508 C510 1.403 . S
C508 C514 1.439 . S
C509 N506 1.319 . S
C509 C507 1.397 . S
C509 H520 0.930 . S
C510 C507 1.367 . S
C510 C508 1.403 . S
C510 H531 0.929 . S
C511 C512 1.430 . S
C511 C513 1.387 . S
C511 C517 1.404 . S
C512 C505 1.448 . S
C512 C511 1.430 . S
C512 N516 1.351 . S
C513 C511 1.387 . S
C513 C514 1.374 . S
C513 H528 0.931 . S
C514 C508 1.439 . S
C514 C513 1.374 . S
C514 H529 0.931 . S
Eu515 N506 2.600 . S
Eu515 N516 2.562 . S
Eu515 O550 2.335 . S
Eu515 O553 2.372 . S
Eu515 O554 2.462 . S
Eu515 O555 2.373 . S
Eu515 O557 2.432 . S
Eu515 O558 2.291 . S
Eu515 C579 2.787 . S
N516 C512 1.351 . S
N516 Eu515 2.562 . S
N516 C518 1.325 . S
C517 C511 1.404 . S
C517 C519 1.366 . S
C517 H525 0.930 . S
C518 N516 1.325 . S
C518 C519 1.416 . S
C518 H524 0.929 . S
C519 C517 1.366 . S
C519 C518 1.416 . S
C519 H521 0.930 . S
H520 C509 0.930 . S
H521 C519 0.930 . S
H522 C537 0.930 . S
H523 C544 0.930 . S
H524 C518 0.929 . S
H525 C517 0.930 . S
H526 C540 0.929 . S
H527 C507 0.931 . S
H528 C513 0.931 . S
H529 C514 0.931 . S
H530 C535 0.931 . S
H531 C510 0.929 . S
H532 C543 0.930 . S
N533 Eu504 2.600 . S
N533 C534 1.365 . S
N533 C537 1.319 . S
C534 N533 1.365 . S
C534 C536 1.405 . S
C534 C542 1.448 . S
C535 H530 0.931 . S
C535 C537 1.397 . S
C535 C538 1.367 . S
C536 C534 1.405 . S
C536 C538 1.403 . S
C536 C569 1.439 1_545 S
C537 H522 0.930 . S
C537 N533 1.319 . S
C537 C535 1.397 . S
C538 C535 1.367 . S
C538 C536 1.403 . S
C538 H545 0.929 . S
N539 Eu504 2.562 . S
N539 C540 1.325 . S
N539 C542 1.351 . S
C540 H526 0.929 . S
C540 N539 1.325 . S
C540 C544 1.416 1_545 S
C541 C542 1.430 1_565 S
C541 C543 1.404 . S
C541 C570 1.387 . S
C542 C534 1.448 . S
C542 N539 1.351 . S
C542 C541 1.430 1_545 S
C543 H532 0.930 . S
C543 C541 1.404 . S
C543 C544 1.366 . S
C544 H523 0.930 . S
C544 C540 1.416 1_565 S
C544 C543 1.366 . S
H545 C538 0.929 . S
H546 C569 0.931 . S
H547 C570 0.931 . S
O548 Eu504 2.462 . S
O548 C568 1.252 . S
O549 Eu504 2.373 . S
O549 C560 1.249 . S
O550 Eu515 2.335 . S
O550 C560 1.264 . S
O551 Eu504 2.432 . S
O551 C568 1.268 . S
O552 Eu504 2.291 . S
O552 C567 1.255 . S
O553 Eu515 2.372 . S
O553 C567 1.257 . S
O554 Eu515 2.462 . S
O554 C579 1.252 . S
O555 Eu515 2.373 . S
O555 C571 1.249 . S
O556 Eu504 2.335 . S
O556 C571 1.264 . S
O557 Eu515 2.432 . S
O557 C579 1.268 . S
O558 Eu515 2.291 . S
O558 C578 1.255 . S
O559 Eu504 2.372 . S
O559 C578 1.257 . S
C560 O549 1.249 . S
C560 O550 1.264 . S
C561 C564 1.382 . S
C561 C566 1.390 . S
C561 C568 1.506 . S
C562 C563 1.398 . S
C562 C566 1.392 . S
C563 C562 1.398 . S
C563 C565 1.372 . S
C563 H580 0.931 . S
C564 C561 1.382 . S
C564 C565 1.390 . S
C564 H581 0.931 . S
C565 C563 1.372 . S
C565 C564 1.390 . S
C565 H582 0.929 . S
C566 C561 1.390 . S
C566 C562 1.392 . S
C566 H583 0.930 . S
C567 O552 1.255 . S
C567 O553 1.257 . S
C568 Eu504 2.787 . S
C568 O548 1.252 . S
C568 O551 1.268 . S
C568 C561 1.506 . S
C569 C536 1.439 1_565 S
C569 H546 0.931 . S
C569 C570 1.374 . S
C570 C541 1.387 . S
C570 H547 0.931 . S
C570 C569 1.374 . S
C571 O555 1.249 . S
C571 O556 1.264 . S
C572 C575 1.382 . S
C572 C576 1.390 . S
C572 C579 1.506 . S
C573 C574 1.398 . S
C573 C576 1.392 . S
C574 C573 1.398 . S
C574 C577 1.372 . S
C574 H584 0.931 . S
C575 C572 1.382 . S
C575 C577 1.390 . S
C575 H585 0.931 . S
C576 C572 1.390 . S
C576 C573 1.392 . S
C576 H586 0.930 . S
C577 C574 1.372 . S
C577 C575 1.390 . S
C577 H587 0.929 . S
C578 O558 1.255 . S
C578 O559 1.257 . S
C579 Eu515 2.787 . S
C579 O554 1.252 . S
C579 O557 1.268 . S
C579 C572 1.506 . S
H580 C563 0.931 . S
H581 C564 0.931 . S
H582 C565 0.929 . S
H583 C566 0.930 . S
H584 C574 0.931 . S
H585 C575 0.931 . S
H586 C576 0.930 . S
H587 C577 0.929 . S
Eu588 N617 2.600 . S
Eu588 N623 2.562 . S
Eu588 O632 2.462 . S
Eu588 O633 2.373 . S
Eu588 O635 2.432 . S
Eu588 O636 2.291 . S
Eu588 O640 2.335 . S
Eu588 O643 2.372 . S
Eu588 C652 2.787 . S
C589 N590 1.365 . S
C589 C592 1.405 . S
C589 C596 1.448 . S
N590 C589 1.365 . S
N590 C593 1.319 . S
N590 Eu599 2.600 . S
C591 C593 1.397 . S
C591 C594 1.367 . S
C591 H611 0.931 . S
C592 C589 1.405 . S
C592 C594 1.403 . S
C592 C598 1.439 . S
C593 N590 1.319 . S
C593 C591 1.397 . S
C593 H604 0.930 . S
C594 C591 1.367 . S
C594 C592 1.403 . S
C594 H615 0.929 . S
C595 C596 1.430 . S
C595 C597 1.387 . S
C595 C601 1.404 . S
C596 C589 1.448 . S
C596 C595 1.430 . S
C596 N600 1.351 . S
C597 C595 1.387 . S
C597 C598 1.374 . S
C597 H612 0.931 . S
C598 C592 1.439 . S
C598 C597 1.374 . S
C598 H613 0.931 . S
Eu599 N590 2.600 . S
Eu599 N600 2.562 . S
Eu599 O634 2.335 . S
Eu599 O637 2.372 . S
Eu599 O638 2.462 . S
Eu599 O639 2.373 . S
Eu599 O641 2.432 . S
Eu599 O642 2.291 . S
Eu599 C663 2.787 . S
N600 C596 1.351 . S
N600 Eu599 2.562 . S
N600 C602 1.325 . S
C601 C595 1.404 . S
C601 C603 1.366 . S
C601 H609 0.930 . S
C602 N600 1.325 . S
C602 C603 1.416 . S
C602 H608 0.929 . S
C603 C601 1.366 . S
C603 C602 1.416 . S
C603 H605 0.930 . S
H604 C593 0.930 . S
H605 C603 0.930 . S
H606 C621 0.929 1_655 S
H607 C628 0.930 . S
H608 C602 0.929 . S
H609 C601 0.930 . S
H610 C624 0.929 . S
H611 C591 0.931 . S
H612 C597 0.931 . S
H613 C598 0.931 . S
H614 C619 0.931 . S
H615 C594 0.929 . S
H616 C627 0.930 . S
N617 Eu588 2.600 . S
N617 C618 1.365 . S
N617 C621 1.319 . S
C618 N617 1.365 . S
C618 C620 1.405 . S
C618 C626 1.448 . S
C619 H614 0.931 . S
C619 C621 1.397 1_655 S
C619 C622 1.367 1_655 S
C620 C618 1.405 . S
C620 C622 1.403 . S
C620 C653 1.439 . S
C621 H606 0.929 1_455 S
C621 N617 1.319 . S
C621 C619 1.397 1_455 S
C622 C619 1.367 1_455 S
C622 C620 1.403 . S
C622 H629 0.929 1_455 S
N623 Eu588 2.562 . S
N623 C624 1.325 . S
N623 C626 1.351 . S
C624 H610 0.929 . S
C624 N623 1.325 . S
C624 C628 1.416 . S
C625 C626 1.430 . S
C625 C627 1.404 . S
C625 C654 1.387 . S
C626 C618 1.448 . S
C626 N623 1.351 . S
C626 C625 1.430 . S
C627 H616 0.930 . S
C627 C625 1.404 . S
C627 C628 1.366 . S
C628 H607 0.930 . S
C628 C624 1.416 . S
C628 C627 1.366 . S
H629 C622 0.929 1_655 S
H630 C653 0.931 . S
H631 C654 0.931 . S
O632 Eu588 2.462 . S
O632 C652 1.252 . S
O633 Eu588 2.373 . S
O633 C644 1.249 . S
O634 Eu599 2.335 . S
O634 C644 1.264 . S
O635 Eu588 2.432 . S
O635 C652 1.268 . S
O636 Eu588 2.291 . S
O636 C651 1.255 . S
O637 Eu599 2.372 . S
O637 C651 1.257 . S
O638 Eu599 2.462 . S
O638 C663 1.252 . S
O639 Eu599 2.373 . S
O639 C655 1.249 . S
O640 Eu588 2.335 . S
O640 C655 1.264 . S
O641 Eu599 2.432 . S
O641 C663 1.268 . S
O642 Eu599 2.291 . S
O642 C662 1.255 . S
O643 Eu588 2.372 . S
O643 C662 1.257 . S
C644 O633 1.249 . S
C644 O634 1.264 . S
C645 C648 1.382 1_455 S
C645 C650 1.390 . S
C645 C652 1.506 . S
C646 C647 1.398 1_455 S
C646 C650 1.392 . S
C647 C646 1.398 1_655 S
C647 C649 1.372 . S
C647 H664 0.931 . S
C648 C645 1.382 1_655 S
C648 C649 1.390 . S
C648 H665 0.931 . S
C649 C647 1.372 . S
C649 C648 1.390 . S
C649 H666 0.929 . S
C650 C645 1.390 . S
C650 C646 1.392 . S
C650 H667 0.930 . S
C651 O636 1.255 . S
C651 O637 1.257 . S
C652 Eu588 2.787 . S
C652 O632 1.252 . S
C652 O635 1.268 . S
C652 C645 1.506 . S
C653 C620 1.439 . S
C653 H630 0.931 . S
C653 C654 1.374 . S
C654 C625 1.387 . S
C654 H631 0.931 . S
C654 C653 1.374 . S
C655 O639 1.249 . S
C655 O640 1.264 . S
C656 C659 1.382 . S
C656 C660 1.390 . S
C656 C663 1.506 . S
C657 C658 1.398 . S
C657 C660 1.392 . S
C658 C657 1.398 . S
C658 C661 1.372 . S
C658 H668 0.931 . S
C659 C656 1.382 . S
C659 C661 1.390 . S
C659 H669 0.931 . S
C660 C656 1.390 . S
C660 C657 1.392 . S
C660 H670 0.930 . S
C661 C658 1.372 . S
C661 C659 1.390 . S
C661 H671 0.929 . S
C662 O642 1.255 . S
C662 O643 1.257 . S
C663 Eu599 2.787 . S
C663 O638 1.252 . S
C663 O641 1.268 . S
C663 C656 1.506 . S
H664 C647 0.931 . S
H665 C648 0.931 . S
H666 C649 0.929 . S
H667 C650 0.930 . S
H668 C658 0.931 . S
H669 C659 0.931 . S
H670 C660 0.930 . S
H671 C661 0.929 . S
Eu672 N701 2.600 . S
Eu672 N707 2.562 . S
Eu672 O716 2.462 . S
Eu672 O717 2.373 . S
Eu672 O719 2.432 . S
Eu672 O720 2.291 . S
Eu672 O724 2.335 . S
Eu672 O727 2.372 . S
Eu672 C736 2.787 . S
C673 N674 1.365 . S
C673 C676 1.405 . S
C673 C680 1.448 . S
N674 C673 1.365 . S
N674 C677 1.319 . S
N674 Eu683 2.600 . S
C675 C677 1.397 . S
C675 C678 1.367 . S
C675 H695 0.931 . S
C676 C673 1.405 . S
C676 C678 1.403 . S
C676 C682 1.439 . S
C677 N674 1.319 . S
C677 C675 1.397 . S
C677 H688 0.930 . S
C678 C675 1.367 . S
C678 C676 1.403 . S
C678 H699 0.929 . S
C679 C680 1.430 . S
C679 C681 1.387 . S
C679 C685 1.404 . S
C680 C673 1.448 . S
C680 C679 1.430 . S
C680 N684 1.351 . S
C681 C679 1.387 . S
C681 C682 1.374 . S
C681 H696 0.931 . S
C682 C676 1.439 . S
C682 C681 1.374 . S
C682 H697 0.931 . S
Eu683 N674 2.600 . S
Eu683 N684 2.562 . S
Eu683 O718 2.335 . S
Eu683 O721 2.372 . S
Eu683 O722 2.462 . S
Eu683 O723 2.373 . S
Eu683 O725 2.432 . S
Eu683 O726 2.291 . S
Eu683 C747 2.787 . S
N684 C680 1.351 . S
N684 Eu683 2.562 . S
N684 C686 1.325 . S
C685 C679 1.404 . S
C685 C687 1.366 . S
C685 H693 0.930 . S
C686 N684 1.325 . S
C686 C687 1.416 . S
C686 H692 0.929 . S
C687 C685 1.366 . S
C687 C686 1.416 . S
C687 H689 0.930 . S
H688 C677 0.930 . S
H689 C687 0.930 . S
H690 C705 0.930 . S
H691 C712 0.930 . S
H692 C686 0.929 . S
H693 C685 0.930 . S
H694 C708 0.929 . S
H695 C675 0.931 . S
H696 C681 0.931 . S
H697 C682 0.931 . S
H698 C703 0.931 . S
H699 C678 0.929 . S
H700 C711 0.930 . S
N701 Eu672 2.600 . S
N701 C702 1.365 . S
N701 C705 1.319 . S
C702 N701 1.365 . S
C702 C704 1.405 . S
C702 C710 1.448 . S
C703 H698 0.931 . S
C703 C705 1.397 . S
C703 C706 1.367 . S
C704 C702 1.405 . S
C704 C706 1.403 . S
C704 C737 1.439 . S
C705 H690 0.930 . S
C705 N701 1.319 . S
C705 C703 1.397 . S
C706 C703 1.367 . S
C706 C704 1.403 . S
C706 H713 0.929 . S
N707 Eu672 2.562 . S
N707 C708 1.325 . S
N707 C710 1.351 . S
C708 H694 0.929 . S
C708 N707 1.325 . S
C708 C712 1.416 . S
C709 C710 1.430 . S
C709 C711 1.404 . S
C709 C738 1.387 . S
C710 C702 1.448 . S
C710 N707 1.351 . S
C710 C709 1.430 . S
C711 H700 0.930 . S
C711 C709 1.404 . S
C711 C712 1.366 . S
C712 H691 0.930 . S
C712 C708 1.416 . S
C712 C711 1.366 . S
H713 C706 0.929 . S
H714 C737 0.931 . S
H715 C738 0.931 . S
O716 Eu672 2.462 . S
O716 C736 1.252 . S
O717 Eu672 2.373 . S
O717 C728 1.249 . S
O718 Eu683 2.335 . S
O718 C728 1.264 . S
O719 Eu672 2.432 . S
O719 C736 1.268 . S
O720 Eu672 2.291 . S
O720 C735 1.255 . S
O721 Eu683 2.372 . S
O721 C735 1.257 . S
O722 Eu683 2.462 . S
O722 C747 1.252 . S
O723 Eu683 2.373 . S
O723 C739 1.249 . S
O724 Eu672 2.335 . S
O724 C739 1.264 . S
O725 Eu683 2.432 . S
O725 C747 1.268 . S
O726 Eu683 2.291 . S
O726 C746 1.255 . S
O727 Eu672 2.372 . S
O727 C746 1.257 . S
C728 O717 1.249 . S
C728 O718 1.264 . S
C729 C732 1.382 . S
C729 C734 1.390 . S
C729 C736 1.506 . S
C730 C731 1.398 . S
C730 C734 1.392 . S
C731 C730 1.398 . S
C731 C733 1.372 . S
C731 H748 0.931 . S
C732 C729 1.382 . S
C732 C733 1.390 . S
C732 H749 0.931 . S
C733 C731 1.372 . S
C733 C732 1.390 . S
C733 H750 0.929 . S
C734 C729 1.390 . S
C734 C730 1.392 . S
C734 H751 0.930 . S
C735 O720 1.255 . S
C735 O721 1.257 . S
C736 Eu672 2.787 . S
C736 O716 1.252 . S
C736 O719 1.268 . S
C736 C729 1.506 . S
C737 C704 1.439 . S
C737 H714 0.931 . S
C737 C738 1.374 . S
C738 C709 1.387 . S
C738 H715 0.931 . S
C738 C737 1.374 . S
C739 O723 1.249 . S
C739 O724 1.264 . S
C740 C743 1.382 . S
C740 C744 1.390 . S
C740 C747 1.506 . S
C741 C742 1.398 . S
C741 C744 1.392 . S
C742 C741 1.398 . S
C742 C745 1.372 . S
C742 H752 0.931 . S
C743 C740 1.382 . S
C743 C745 1.390 . S
C743 H753 0.931 . S
C744 C740 1.390 . S
C744 C741 1.392 . S
C744 H754 0.930 . S
C745 C742 1.372 . S
C745 C743 1.390 . S
C745 H755 0.929 . S
C746 O726 1.255 . S
C746 O727 1.257 . S
C747 Eu683 2.787 . S
C747 O722 1.252 . S
C747 O725 1.268 . S
C747 C740 1.506 . S
H748 C731 0.931 . S
H749 C732 0.931 . S
H750 C733 0.929 . S
H751 C734 0.930 . S
H752 C742 0.931 . S
H753 C743 0.931 . S
H754 C744 0.930 . S
H755 C745 0.929 . S
Eu756 N785 2.600 1_545 S
Eu756 N791 2.562 1_545 S
Eu756 O800 2.462 . S
Eu756 O801 2.373 1_545 S
Eu756 O803 2.432 1_545 S
Eu756 O804 2.291 . S
Eu756 O808 2.335 . S
Eu756 O811 2.372 1_545 S
Eu756 C820 2.787 . S
C757 N758 1.365 . S
C757 C760 1.405 . S
C757 C764 1.448 . S
N758 C757 1.365 . S
N758 C761 1.319 . S
N758 Eu767 2.600 . S
C759 C761 1.397 . S
C759 C762 1.367 . S
C759 H779 0.931 . S
C760 C757 1.405 . S
C760 C762 1.403 . S
C760 C766 1.439 . S
C761 N758 1.319 . S
C761 C759 1.397 . S
C761 H772 0.930 . S
C762 C759 1.367 . S
C762 C760 1.403 . S
C762 H783 0.929 . S
C763 C764 1.430 . S
C763 C765 1.387 . S
C763 C769 1.404 . S
C764 C757 1.448 . S
C764 C763 1.430 . S
C764 N768 1.351 . S
C765 C763 1.387 . S
C765 C766 1.374 . S
C765 H780 0.931 . S
C766 C760 1.439 . S
C766 C765 1.374 . S
C766 H781 0.931 . S
Eu767 N758 2.600 . S
Eu767 N768 2.562 . S
Eu767 O802 2.335 . S
Eu767 O805 2.372 . S
Eu767 O806 2.462 . S
Eu767 O807 2.373 . S
Eu767 O809 2.432 . S
Eu767 O810 2.291 1_545 S
Eu767 C831 2.787 . S
N768 C764 1.351 . S
N768 Eu767 2.562 . S
N768 C770 1.325 . S
C769 C763 1.404 . S
C769 C771 1.366 . S
C769 H777 0.930 . S
C770 N768 1.325 . S
C770 C771 1.416 . S
C770 H776 0.929 . S
C771 C769 1.366 . S
C771 C770 1.416 . S
C771 H773 0.930 . S
H772 C761 0.930 . S
H773 C771 0.930 . S
H774 C789 0.930 . S
H775 C796 0.930 . S
H776 C770 0.929 . S
H777 C769 0.930 . S
H778 C792 0.941 . S
H779 C759 0.931 . S
H780 C765 0.931 . S
H781 C766 0.931 . S
H782 C787 0.931 . S
H783 C762 0.929 . S
H784 C795 0.930 . S
N785 Eu756 2.600 1_565 S
N785 C786 1.365 . S
N785 C789 1.319 . S
C786 N785 1.365 . S
C786 C788 1.405 1_455 S
C786 C794 1.448 1_455 S
C787 H782 0.931 . S
C787 C789 1.397 . S
C787 C790 1.367 . S
C788 C786 1.405 1_655 S
C788 C790 1.403 1_655 S
C788 C821 1.439 . S
C789 H774 0.930 . S
C789 N785 1.319 . S
C789 C787 1.397 . S
C790 C787 1.367 . S
C790 C788 1.403 1_455 S
C790 H797 0.929 . S
N791 Eu756 2.562 1_565 S
N791 C792 1.325 1_465 S
N791 C794 1.351 1_455 S
C792 H778 0.941 . S
C792 N791 1.325 1_645 S
C792 C796 1.416 . S
C793 C794 1.430 . S
C793 C795 1.404 . S
C793 C822 1.387 . S
C794 C786 1.448 1_655 S
C794 N791 1.351 1_655 S
C794 C793 1.430 . S
C795 H784 0.930 . S
C795 C793 1.404 . S
C795 C796 1.366 1_565 S
C796 H775 0.930 . S
C796 C792 1.416 . S
C796 C795 1.366 1_545 S
H797 C790 0.929 . S
H798 C821 0.931 . S
H799 C822 0.931 . S
O800 Eu756 2.462 . S
O800 C820 1.252 . S
O801 Eu756 2.373 1_565 S
O801 C812 1.249 1_565 S
O802 Eu767 2.335 . S
O802 C812 1.264 . S
O803 Eu756 2.432 1_565 S
O803 C820 1.268 1_565 S
O804 Eu756 2.291 . S
O804 C819 1.255 . S
O805 Eu767 2.372 . S
O805 C819 1.257 . S
O806 Eu767 2.462 . S
O806 C831 1.252 . S
O807 Eu767 2.373 . S
O807 C823 1.249 . S
O808 Eu756 2.335 . S
O808 C823 1.264 . S
O809 Eu767 2.432 . S
O809 C831 1.268 . S
O810 Eu767 2.291 1_565 S
O810 C830 1.255 . S
O811 Eu756 2.372 1_565 S
O811 C830 1.257 . S
C812 O801 1.249 1_545 S
C812 O802 1.264 . S
C813 C816 1.382 1_545 S
C813 C818 1.390 . S
C813 C820 1.506 . S
C814 C815 1.398 . S
C814 C818 1.392 . S
C815 C814 1.398 . S
C815 C817 1.372 1_545 S
C815 H832 0.931 1_556 S
C816 C813 1.382 1_565 S
C816 C817 1.390 . S
C816 H833 0.931 . S
C817 C815 1.372 1_565 S
C817 C816 1.390 . S
C817 H834 0.929 . S
C818 C813 1.390 . S
C818 C814 1.392 . S
C818 H835 0.930 . S
C819 O804 1.255 . S
C819 O805 1.257 . S
C820 Eu756 2.787 . S
C820 O800 1.252 . S
C820 O803 1.268 1_545 S
C820 C813 1.506 . S
C821 C788 1.439 . S
C821 H798 0.931 . S
C821 C822 1.374 . S
C822 C793 1.387 . S
C822 H799 0.931 . S
C822 C821 1.374 . S
C823 O807 1.249 . S
C823 O808 1.264 . S
C824 C827 1.382 . S
C824 C828 1.390 . S
C824 C831 1.506 . S
C825 C826 1.398 . S
C825 C828 1.392 . S
C826 C825 1.398 . S
C826 C829 1.372 . S
C826 H836 0.931 . S
C827 C824 1.382 . S
C827 C829 1.390 . S
C827 H837 0.931 . S
C828 C824 1.390 . S
C828 C825 1.392 . S
C828 H838 0.930 1_545 S
C829 C826 1.372 . S
C829 C827 1.390 . S
C829 H839 0.929 . S
C830 O810 1.255 . S
C830 O811 1.257 . S
C831 Eu767 2.787 . S
C831 O806 1.252 . S
C831 O809 1.268 . S
C831 C824 1.506 . S
H832 C815 0.931 1_554 S
H833 C816 0.931 . S
H834 C817 0.929 . S
H835 C818 0.930 . S
H836 C826 0.931 . S
H837 C827 0.931 . S
H838 C828 0.930 1_565 S
H839 C829 0.929 . S
Eu840 N869 2.600 . S
Eu840 N875 2.562 . S
Eu840 O884 2.462 . S
Eu840 O885 2.373 . S
Eu840 O887 2.432 . S
Eu840 O888 2.291 . S
Eu840 O892 2.335 . S
Eu840 O895 2.372 . S
Eu840 C904 2.787 . S
C841 N842 1.365 . S
C841 C844 1.405 . S
C841 C848 1.448 . S
N842 C841 1.365 . S
N842 C845 1.319 . S
N842 Eu851 2.600 . S
C843 C845 1.397 . S
C843 C846 1.367 . S
C843 H863 0.931 . S
C844 C841 1.405 . S
C844 C846 1.403 . S
C844 C850 1.439 . S
C845 N842 1.319 . S
C845 C843 1.397 . S
C845 H856 0.930 . S
C846 C843 1.367 . S
C846 C844 1.403 . S
C846 H867 0.929 . S
C847 C848 1.430 . S
C847 C849 1.387 . S
C847 C853 1.404 . S
C848 C841 1.448 . S
C848 C847 1.430 . S
C848 N852 1.351 . S
C849 C847 1.387 . S
C849 C850 1.374 . S
C849 H864 0.931 . S
C850 C844 1.439 . S
C850 C849 1.374 . S
C850 H865 0.931 . S
Eu851 N842 2.600 . S
Eu851 N852 2.562 . S
Eu851 O886 2.335 . S
Eu851 O889 2.372 . S
Eu851 O890 2.462 . S
Eu851 O891 2.373 . S
Eu851 O893 2.432 . S
Eu851 O894 2.291 . S
Eu851 C915 2.787 . S
N852 C848 1.351 . S
N852 Eu851 2.562 . S
N852 C854 1.325 . S
C853 C847 1.404 . S
C853 C855 1.366 . S
C853 H861 0.930 . S
C854 N852 1.325 . S
C854 C855 1.416 . S
C854 H860 0.929 . S
C855 C853 1.366 . S
C855 C854 1.416 . S
C855 H857 0.930 . S
H856 C845 0.930 . S
H857 C855 0.930 . S
H858 C873 0.930 . S
H859 C880 0.930 . S
H860 C854 0.929 . S
H861 C853 0.930 . S
H862 C876 0.929 . S
H863 C843 0.931 . S
H864 C849 0.931 . S
H865 C850 0.931 . S
H866 C871 0.931 . S
H867 C846 0.929 . S
H868 C879 0.930 . S
N869 Eu840 2.600 . S
N869 C870 1.365 . S
N869 C873 1.319 . S
C870 N869 1.365 . S
C870 C872 1.405 . S
C870 C878 1.448 . S
C871 H866 0.931 . S
C871 C873 1.397 . S
C871 C874 1.367 . S
C872 C870 1.405 . S
C872 C874 1.403 . S
C872 C905 1.439 . S
C873 H858 0.930 . S
C873 N869 1.319 . S
C873 C871 1.397 . S
C874 C871 1.367 . S
C874 C872 1.403 . S
C874 H881 0.929 . S
N875 Eu840 2.562 . S
N875 C876 1.325 . S
N875 C878 1.351 . S
C876 H862 0.929 . S
C876 N875 1.325 . S
C876 C880 1.416 . S
C877 C878 1.430 . S
C877 C879 1.404 . S
C877 C906 1.387 . S
C878 C870 1.448 . S
C878 N875 1.351 . S
C878 C877 1.430 . S
C879 H868 0.930 . S
C879 C877 1.404 . S
C879 C880 1.366 . S
C880 H859 0.930 . S
C880 C876 1.416 . S
C880 C879 1.366 . S
H881 C874 0.929 . S
H882 C905 0.931 . S
H883 C906 0.931 . S
O884 Eu840 2.462 . S
O884 C904 1.252 . S
O885 Eu840 2.373 . S
O885 C896 1.249 . S
O886 Eu851 2.335 . S
O886 C896 1.264 . S
O887 Eu840 2.432 . S
O887 C904 1.268 . S
O888 Eu840 2.291 . S
O888 C903 1.255 . S
O889 Eu851 2.372 . S
O889 C903 1.257 . S
O890 Eu851 2.462 . S
O890 C915 1.252 . S
O891 Eu851 2.373 . S
O891 C907 1.249 . S
O892 Eu840 2.335 . S
O892 C907 1.264 . S
O893 Eu851 2.432 . S
O893 C915 1.268 . S
O894 Eu851 2.291 . S
O894 C914 1.255 . S
O895 Eu840 2.372 . S
O895 C914 1.257 . S
C896 O885 1.249 . S
C896 O886 1.264 . S
C897 C900 1.382 . S
C897 C902 1.390 . S
C897 C904 1.506 . S
C898 C899 1.398 . S
C898 C902 1.392 . S
C899 C898 1.398 . S
C899 C901 1.372 . S
C899 H916 0.931 . S
C900 C897 1.382 . S
C900 C901 1.390 . S
C900 H917 0.931 . S
C901 C899 1.372 . S
C901 C900 1.390 . S
C901 H918 0.929 . S
C902 C897 1.390 . S
C902 C898 1.392 . S
C902 H919 0.930 . S
C903 O888 1.255 . S
C903 O889 1.257 . S
C904 Eu840 2.787 . S
C904 O884 1.252 . S
C904 O887 1.268 . S
C904 C897 1.506 . S
C905 C872 1.439 . S
C905 H882 0.931 . S
C905 C906 1.374 . S
C906 C877 1.387 . S
C906 H883 0.931 . S
C906 C905 1.374 . S
C907 O891 1.249 . S
C907 O892 1.264 . S
C908 C911 1.382 . S
C908 C912 1.390 . S
C908 C915 1.506 . S
C909 C910 1.398 . S
C909 C912 1.392 . S
C910 C909 1.398 . S
C910 C913 1.372 . S
C910 H920 0.931 . S
C911 C908 1.382 . S
C911 C913 1.390 . S
C911 H921 0.931 . S
C912 C908 1.390 . S
C912 C909 1.392 . S
C912 H922 0.930 . S
C913 C910 1.372 . S
C913 C911 1.390 . S
C913 H923 0.929 . S
C914 O894 1.255 . S
C914 O895 1.257 . S
C915 Eu851 2.787 . S
C915 O890 1.252 . S
C915 O893 1.268 . S
C915 C908 1.506 . S
H916 C899 0.931 . S
H917 C900 0.931 . S
H918 C901 0.929 . S
H919 C902 0.930 . S
H920 C910 0.931 . S
H921 C911 0.931 . S
H922 C912 0.930 . S
H923 C913 0.929 . S
Eu924 N953 2.600 . S
Eu924 N959 2.562 . S
Eu924 O968 2.462 . S
Eu924 O969 2.373 . S
Eu924 O971 2.432 . S
Eu924 O972 2.291 . S
Eu924 O976 2.335 1_565 S
Eu924 O979 2.372 . S
Eu924 C988 2.787 . S
C925 N926 1.365 . S
C925 C928 1.405 . S
C925 C932 1.448 . S
N926 C925 1.365 . S
N926 C929 1.319 . S
N926 Eu935 2.600 1_545 S
C927 C929 1.397 . S
C927 C930 1.367 . S
C927 H947 0.931 . S
C928 C925 1.405 . S
C928 C930 1.403 . S
C928 C934 1.439 . S
C929 N926 1.319 . S
C929 C927 1.397 . S
C929 H940 0.930 . S
C930 C927 1.367 . S
C930 C928 1.403 . S
C930 H951 0.929 . S
C931 C932 1.430 . S
C931 C933 1.387 . S
C931 C937 1.404 . S
C932 C925 1.448 . S
C932 C931 1.430 . S
C932 N936 1.351 . S
C933 C931 1.387 . S
C933 C934 1.374 . S
C933 H948 0.931 . S
C934 C928 1.439 . S
C934 C933 1.374 . S
C934 H949 0.931 . S
Eu935 N926 2.600 1_565 S
Eu935 N936 2.562 1_565 S
Eu935 O970 2.335 . S
Eu935 O973 2.372 . S
Eu935 O974 2.462 . S
Eu935 O975 2.373 1_565 S
Eu935 O977 2.432 . S
Eu935 O978 2.291 . S
Eu935 C999 2.787 . S
N936 C932 1.351 . S
N936 Eu935 2.562 1_545 S
N936 C938 1.325 . S
C937 C931 1.404 . S
C937 C939 1.366 . S
C937 H945 0.930 . S
C938 N936 1.325 . S
C938 C939 1.416 . S
C938 H944 0.929 . S
C939 C937 1.366 . S
C939 C938 1.416 . S
C939 H941 0.930 . S
H940 C929 0.930 . S
H941 C939 0.930 . S
H942 C957 0.930 . S
H943 C964 0.930 . S
H944 C938 0.929 . S
H945 C937 0.930 . S
H946 C960 0.929 . S
H947 C927 0.931 . S
H948 C933 0.931 . S
H949 C934 0.931 . S
H950 C955 0.931 . S
H951 C930 0.929 . S
H952 C963 0.930 . S
N953 Eu924 2.600 . S
N953 C954 1.365 . S
N953 C957 1.319 . S
C954 N953 1.365 . S
C954 C956 1.405 . S
C954 C962 1.448 . S
C955 H950 0.931 . S
C955 C957 1.397 . S
C955 C958 1.367 . S
C956 C954 1.405 . S
C956 C958 1.403 . S
C956 C989 1.439 . S
C957 H942 0.930 . S
C957 N953 1.319 . S
C957 C955 1.397 . S
C958 C955 1.367 . S
C958 C956 1.403 . S
C958 H965 0.929 . S
N959 Eu924 2.562 . S
N959 C960 1.325 . S
N959 C962 1.351 . S
C960 H946 0.929 . S
C960 N959 1.325 . S
C960 C964 1.416 . S
C961 C962 1.430 . S
C961 C963 1.404 . S
C961 C990 1.387 . S
C962 C954 1.448 . S
C962 N959 1.351 . S
C962 C961 1.430 . S
C963 H952 0.930 . S
C963 C961 1.404 . S
C963 C964 1.366 . S
C964 H943 0.930 . S
C964 C960 1.416 . S
C964 C963 1.366 . S
H965 C958 0.929 . S
H966 C989 0.931 . S
H967 C990 0.931 . S
O968 Eu924 2.462 . S
O968 C988 1.252 . S
O969 Eu924 2.373 . S
O969 C980 1.249 . S
O970 Eu935 2.335 . S
O970 C980 1.264 . S
O971 Eu924 2.432 . S
O971 C988 1.268 . S
O972 Eu924 2.291 . S
O972 C987 1.255 . S
O973 Eu935 2.372 . S
O973 C987 1.257 . S
O974 Eu935 2.462 . S
O974 C999 1.252 . S
O975 Eu935 2.373 1_545 S
O975 C991 1.249 . S
O976 Eu924 2.335 1_545 S
O976 C991 1.264 . S
O977 Eu935 2.432 . S
O977 C999 1.268 . S
O978 Eu935 2.291 . S
O978 C998 1.255 . S
O979 Eu924 2.372 . S
O979 C998 1.257 . S
C980 O969 1.249 . S
C980 O970 1.264 . S
C981 C984 1.382 . S
C981 C986 1.390 . S
C981 C988 1.506 . S
C982 C983 1.393 1_545 S
C982 C986 1.387 1_545 S
C983 C982 1.393 1_565 S
C983 C985 1.372 . S
C983 H1000 0.931 . S
C984 C981 1.382 . S
C984 C985 1.390 . S
C984 H1001 0.931 . S
C985 C983 1.372 . S
C985 C984 1.390 . S
C985 H1002 0.929 . S
C986 C981 1.390 . S
C986 C982 1.387 1_565 S
C986 H1003 0.930 1_565 S
C987 O972 1.255 . S
C987 O973 1.257 . S
C988 Eu924 2.787 . S
C988 O968 1.252 . S
C988 O971 1.268 . S
C988 C981 1.506 . S
C989 C956 1.439 . S
C989 H966 0.931 . S
C989 C990 1.374 . S
C990 C961 1.387 . S
C990 H967 0.931 . S
C990 C989 1.374 . S
C991 O975 1.249 . S
C991 O976 1.264 . S
C992 C995 1.382 . S
C992 C996 1.390 . S
C992 C999 1.506 . S
C993 C994 1.398 . S
C993 C996 1.392 . S
C994 C993 1.398 . S
C994 C997 1.372 . S
C994 H1004 0.931 . S
C995 C992 1.382 . S
C995 C997 1.390 . S
C995 H1005 0.931 . S
C996 C992 1.390 . S
C996 C993 1.392 . S
C996 H1006 0.930 . S
C997 C994 1.372 . S
C997 C995 1.390 . S
C997 H1007 0.929 . S
C998 O978 1.255 . S
C998 O979 1.257 . S
C999 Eu935 2.787 . S
C999 O974 1.252 . S
C999 O977 1.268 . S
C999 C992 1.506 . S
H1000 C983 0.931 . S
H1001 C984 0.931 . S
H1002 C985 0.929 . S
H1003 C986 0.930 1_545 S
H1004 C994 0.931 . S
H1005 C995 0.931 . S
H1006 C996 0.930 . S
H1007 C997 0.929 . S
Eu1008 N1037 2.600 . S
Eu1008 N1043 2.562 . S
Eu1008 O1052 2.462 . S
Eu1008 O1053 2.373 . S
Eu1008 O1055 2.432 . S
Eu1008 O1056 2.291 . S
Eu1008 O1060 2.335 . S
Eu1008 O1063 2.372 . S
Eu1008 C1072 2.787 . S
C1009 N1010 1.365 . S
C1009 C1012 1.405 . S
C1009 C1016 1.448 . S
N1010 C1009 1.365 . S
N1010 C1013 1.319 . S
N1010 Eu1019 2.600 . S
C1011 C1013 1.397 . S
C1011 C1014 1.367 . S
C1011 H1031 0.931 . S
C1012 C1009 1.405 . S
C1012 C1014 1.403 . S
C1012 C1018 1.439 . S
C1013 N1010 1.319 . S
C1013 C1011 1.397 . S
C1013 H1024 0.930 . S
C1014 C1011 1.367 . S
C1014 C1012 1.403 . S
C1014 H1035 0.929 . S
C1015 C1016 1.430 . S
C1015 C1017 1.387 . S
C1015 C1021 1.404 . S
C1016 C1009 1.448 . S
C1016 C1015 1.430 . S
C1016 N1020 1.351 . S
C1017 C1015 1.387 . S
C1017 C1018 1.374 . S
C1017 H1032 0.931 . S
C1018 C1012 1.439 . S
C1018 C1017 1.374 . S
C1018 H1033 0.931 . S
Eu1019 N1010 2.600 . S
Eu1019 N1020 2.562 . S
Eu1019 O1054 2.335 . S
Eu1019 O1057 2.372 . S
Eu1019 O1058 2.462 . S
Eu1019 O1059 2.373 . S
Eu1019 O1061 2.432 . S
Eu1019 O1062 2.291 . S
Eu1019 C1083 2.787 . S
N1020 C1016 1.351 . S
N1020 Eu1019 2.562 . S
N1020 C1022 1.325 . S
C1021 C1015 1.404 . S
C1021 C1023 1.366 . S
C1021 H1029 0.930 . S
C1022 N1020 1.325 . S
C1022 C1023 1.416 . S
C1022 H1028 0.929 . S
C1023 C1021 1.366 . S
C1023 C1022 1.416 . S
C1023 H1025 0.930 . S
H1024 C1013 0.930 . S
H1025 C1023 0.930 . S
H1026 C1041 0.930 . S
H1027 C1048 0.930 . S
H1028 C1022 0.929 . S
H1029 C1021 0.930 . S
H1030 C1044 0.929 . S
H1031 C1011 0.931 . S
H1032 C1017 0.931 . S
H1033 C1018 0.931 . S
H1034 C1039 0.931 . S
H1035 C1014 0.929 . S
H1036 C1047 0.930 . S
N1037 Eu1008 2.600 . S
N1037 C1038 1.365 . S
N1037 C1041 1.319 . S
C1038 N1037 1.365 . S
C1038 C1040 1.405 . S
C1038 C1046 1.448 . S
C1039 H1034 0.931 . S
C1039 C1041 1.397 . S
C1039 C1042 1.367 . S
C1040 C1038 1.405 . S
C1040 C1042 1.403 . S
C1040 C1073 1.439 . S
C1041 H1026 0.930 . S
C1041 N1037 1.319 . S
C1041 C1039 1.397 . S
C1042 C1039 1.367 . S
C1042 C1040 1.403 . S
C1042 H1049 0.929 . S
N1043 Eu1008 2.562 . S
N1043 C1044 1.325 . S
N1043 C1046 1.351 . S
C1044 H1030 0.929 . S
C1044 N1043 1.325 . S
C1044 C1048 1.416 . S
C1045 C1046 1.430 . S
C1045 C1047 1.404 . S
C1045 C1074 1.387 . S
C1046 C1038 1.448 . S
C1046 N1043 1.351 . S
C1046 C1045 1.430 . S
C1047 H1036 0.930 . S
C1047 C1045 1.404 . S
C1047 C1048 1.366 . S
C1048 H1027 0.930 . S
C1048 C1044 1.416 . S
C1048 C1047 1.366 . S
H1049 C1042 0.929 . S
H1050 C1073 0.931 . S
H1051 C1074 0.931 . S
O1052 Eu1008 2.462 . S
O1052 C1072 1.252 . S
O1053 Eu1008 2.373 . S
O1053 C1064 1.249 . S
O1054 Eu1019 2.335 . S
O1054 C1064 1.264 . S
O1055 Eu1008 2.432 . S
O1055 C1072 1.268 . S
O1056 Eu1008 2.291 . S
O1056 C1071 1.255 . S
O1057 Eu1019 2.372 . S
O1057 C1071 1.257 . S
O1058 Eu1019 2.462 . S
O1058 C1083 1.252 . S
O1059 Eu1019 2.373 . S
O1059 C1075 1.249 . S
O1060 Eu1008 2.335 . S
O1060 C1075 1.264 . S
O1061 Eu1019 2.432 . S
O1061 C1083 1.268 . S
O1062 Eu1019 2.291 . S
O1062 C1082 1.255 . S
O1063 Eu1008 2.372 . S
O1063 C1082 1.257 . S
C1064 O1053 1.249 . S
C1064 O1054 1.264 . S
C1065 C1068 1.382 . S
C1065 C1070 1.390 . S
C1065 C1072 1.506 . S
C1066 C1067 1.398 . S
C1066 C1070 1.392 . S
C1067 C1066 1.398 . S
C1067 C1069 1.372 . S
C1067 H1084 0.931 . S
C1068 C1065 1.382 . S
C1068 C1069 1.390 . S
C1068 H1085 0.931 . S
C1069 C1067 1.372 . S
C1069 C1068 1.390 . S
C1069 H1086 0.929 . S
C1070 C1065 1.390 . S
C1070 C1066 1.392 . S
C1070 H1087 0.930 . S
C1071 O1056 1.255 . S
C1071 O1057 1.257 . S
C1072 Eu1008 2.787 . S
C1072 O1052 1.252 . S
C1072 O1055 1.268 . S
C1072 C1065 1.506 . S
C1073 C1040 1.439 . S
C1073 H1050 0.931 . S
C1073 C1074 1.374 . S
C1074 C1045 1.387 . S
C1074 H1051 0.931 . S
C1074 C1073 1.374 . S
C1075 O1059 1.249 . S
C1075 O1060 1.264 . S
C1076 C1079 1.382 . S
C1076 C1080 1.390 . S
C1076 C1083 1.506 . S
C1077 C1078 1.398 . S
C1077 C1080 1.392 . S
C1078 C1077 1.398 . S
C1078 C1081 1.372 . S
C1078 H1088 0.931 . S
C1079 C1076 1.382 . S
C1079 C1081 1.390 . S
C1079 H1089 0.931 . S
C1080 C1076 1.390 . S
C1080 C1077 1.392 . S
C1080 H1090 0.930 . S
C1081 C1078 1.372 . S
C1081 C1079 1.390 . S
C1081 H1091 0.929 . S
C1082 O1062 1.255 . S
C1082 O1063 1.257 . S
C1083 Eu1019 2.787 . S
C1083 O1058 1.252 . S
C1083 O1061 1.268 . S
C1083 C1076 1.506 . S
H1084 C1067 0.931 . S
H1085 C1068 0.931 . S
H1086 C1069 0.929 . S
H1087 C1070 0.930 . S
H1088 C1078 0.931 . S
H1089 C1079 0.931 . S
H1090 C1080 0.930 . S
H1091 C1081 0.929 . S
Eu1092 N1121 2.600 . S
Eu1092 N1127 2.562 . S
Eu1092 O1136 2.462 . S
Eu1092 O1137 2.373 . S
Eu1092 O1139 2.432 . S
Eu1092 O1140 2.291 1_565 S
Eu1092 O1144 2.335 . S
Eu1092 O1147 2.372 . S
Eu1092 C1156 2.787 . S
C1093 N1094 1.365 . S
C1093 C1096 1.405 1_655 S
C1093 C1100 1.448 1_655 S
N1094 C1093 1.365 . S
N1094 C1097 1.319 . S
N1094 Eu1103 2.600 1_545 S
C1095 C1097 1.397 . S
C1095 C1098 1.367 . S
C1095 H1115 0.931 . S
C1096 C1093 1.405 1_455 S
C1096 C1098 1.403 1_455 S
C1096 C1102 1.439 . S
C1097 N1094 1.319 . S
C1097 C1095 1.397 . S
C1097 H1108 0.930 . S
C1098 C1095 1.367 . S
C1098 C1096 1.403 1_655 S
C1098 H1119 0.929 . S
C1099 C1100 1.430 . S
C1099 C1101 1.387 . S
C1099 C1105 1.404 . S
C1100 C1093 1.448 1_455 S
C1100 C1099 1.430 . S
C1100 N1104 1.351 1_455 S
C1101 C1099 1.387 . S
C1101 C1102 1.374 . S
C1101 H1116 0.931 . S
C1102 C1096 1.439 . S
C1102 C1101 1.374 . S
C1102 H1117 0.931 . S
Eu1103 N1094 2.600 1_565 S
Eu1103 N1104 2.562 1_565 S
Eu1103 O1138 2.335 . S
Eu1103 O1141 2.372 1_565 S
Eu1103 O1142 2.462 . S
Eu1103 O1143 2.373 1_565 S
Eu1103 O1145 2.432 1_565 S
Eu1103 O1146 2.291 . S
Eu1103 C1167 2.787 . S
N1104 C1100 1.351 1_655 S
N1104 Eu1103 2.562 1_545 S
N1104 C1106 1.325 1_645 S
C1105 C1099 1.404 . S
C1105 C1107 1.366 1_545 S
C1105 H1113 0.930 . S
C1106 N1104 1.325 1_465 S
C1106 C1107 1.416 . S
C1106 H1112 0.941 . S
C1107 C1105 1.366 1_565 S
C1107 C1106 1.416 . S
C1107 H1109 0.930 . S
H1108 C1097 0.930 . S
H1109 C1107 0.930 . S
H1110 C1125 0.930 . S
H1111 C1132 0.930 . S
H1112 C1106 0.941 . S
H1113 C1105 0.930 . S
H1114 C1128 0.929 . S
H1115 C1095 0.931 . S
H1116 C1101 0.931 . S
H1117 C1102 0.931 . S
H1118 C1123 0.931 . S
H1119 C1098 0.929 . S
H1120 C1131 0.930 . S
N1121 Eu1092 2.600 . S
N1121 C1122 1.365 . S
N1121 C1125 1.319 . S
C1122 N1121 1.365 . S
C1122 C1124 1.405 . S
C1122 C1130 1.448 . S
C1123 H1118 0.931 . S
C1123 C1125 1.397 . S
C1123 C1126 1.367 . S
C1124 C1122 1.405 . S
C1124 C1126 1.403 . S
C1124 C1157 1.439 . S
C1125 H1110 0.930 . S
C1125 N1121 1.319 . S
C1125 C1123 1.397 . S
C1126 C1123 1.367 . S
C1126 C1124 1.403 . S
C1126 H1133 0.929 . S
N1127 Eu1092 2.562 . S
N1127 C1128 1.325 . S
N1127 C1130 1.351 . S
C1128 H1114 0.929 . S
C1128 N1127 1.325 . S
C1128 C1132 1.416 . S
C1129 C1130 1.430 . S
C1129 C1131 1.404 . S
C1129 C1158 1.387 . S
C1130 C1122 1.448 . S
C1130 N1127 1.351 . S
C1130 C1129 1.430 . S
C1131 H1120 0.930 . S
C1131 C1129 1.404 . S
C1131 C1132 1.366 . S
C1132 H1111 0.930 . S
C1132 C1128 1.416 . S
C1132 C1131 1.366 . S
H1133 C1126 0.929 . S
H1134 C1157 0.931 . S
H1135 C1158 0.931 . S
O1136 Eu1092 2.462 . S
O1136 C1156 1.252 . S
O1137 Eu1092 2.373 . S
O1137 C1148 1.249 . S
O1138 Eu1103 2.335 . S
O1138 C1148 1.264 . S
O1139 Eu1092 2.432 . S
O1139 C1156 1.268 . S
O1140 Eu1092 2.291 1_545 S
O1140 C1155 1.255 . S
O1141 Eu1103 2.372 1_545 S
O1141 C1155 1.257 . S
O1142 Eu1103 2.462 . S
O1142 C1167 1.252 . S
O1143 Eu1103 2.373 1_545 S
O1143 C1159 1.249 1_545 S
O1144 Eu1092 2.335 . S
O1144 C1159 1.264 . S
O1145 Eu1103 2.432 1_545 S
O1145 C1167 1.268 1_545 S
O1146 Eu1103 2.291 . S
O1146 C1166 1.255 . S
O1147 Eu1092 2.372 . S
O1147 C1166 1.257 . S
C1148 O1137 1.249 . S
C1148 O1138 1.264 . S
C1149 C1152 1.382 . S
C1149 C1154 1.390 . S
C1149 C1156 1.506 . S
C1150 C1151 1.398 . S
C1150 C1154 1.392 . S
C1151 C1150 1.398 . S
C1151 C1153 1.372 . S
C1151 H1168 0.931 . S
C1152 C1149 1.382 . S
C1152 C1153 1.390 . S
C1152 H1169 0.931 . S
C1153 C1151 1.372 . S
C1153 C1152 1.390 . S
C1153 H1170 0.929 . S
C1154 C1149 1.390 . S
C1154 C1150 1.392 . S
C1154 H1171 0.930 1_565 S
C1155 O1140 1.255 . S
C1155 O1141 1.257 . S
C1156 Eu1092 2.787 . S
C1156 O1136 1.252 . S
C1156 O1139 1.268 . S
C1156 C1149 1.506 . S
C1157 C1124 1.439 . S
C1157 H1134 0.931 . S
C1157 C1158 1.374 . S
C1158 C1129 1.387 . S
C1158 H1135 0.931 . S
C1158 C1157 1.374 . S
C1159 O1143 1.249 1_565 S
C1159 O1144 1.264 . S
C1160 C1163 1.382 1_565 S
C1160 C1164 1.390 . S
C1160 C1167 1.506 . S
C1161 C1162 1.398 . S
C1161 C1164 1.392 . S
C1162 C1161 1.398 . S
C1162 C1165 1.372 1_565 S
C1162 H1172 0.931 1_554 S
C1163 C1160 1.382 1_545 S
C1163 C1165 1.390 . S
C1163 H1173 0.931 . S
C1164 C1160 1.390 . S
C1164 C1161 1.392 . S
C1164 H1174 0.930 . S
C1165 C1162 1.372 1_545 S
C1165 C1163 1.390 . S
C1165 H1175 0.929 . S
C1166 O1146 1.255 . S
C1166 O1147 1.257 . S
C1167 Eu1103 2.787 . S
C1167 O1142 1.252 . S
C1167 O1145 1.268 1_565 S
C1167 C1160 1.506 . S
H1168 C1151 0.931 . S
H1169 C1152 0.931 . S
H1170 C1153 0.929 . S
H1171 C1154 0.930 1_545 S
H1172 C1162 0.931 1_556 S
H1173 C1163 0.931 . S
H1174 C1164 0.930 . S
H1175 C1165 0.929 . S
Eu1176 N1205 2.600 . S
Eu1176 N1211 2.562 . S
Eu1176 O1220 2.462 . S
Eu1176 O1221 2.373 . S
Eu1176 O1223 2.432 . S
Eu1176 O1224 2.291 . S
Eu1176 O1228 2.335 . S
Eu1176 O1231 2.372 . S
Eu1176 C1240 2.787 . S
C1177 N1178 1.365 . S
C1177 C1180 1.405 . S
C1177 C1184 1.448 . S
N1178 C1177 1.365 . S
N1178 C1181 1.319 . S
N1178 Eu1187 2.600 . S
C1179 C1181 1.397 . S
C1179 C1182 1.367 . S
C1179 H1199 0.931 . S
C1180 C1177 1.405 . S
C1180 C1182 1.403 . S
C1180 C1186 1.439 . S
C1181 N1178 1.319 . S
C1181 C1179 1.397 . S
C1181 H1192 0.930 . S
C1182 C1179 1.367 . S
C1182 C1180 1.403 . S
C1182 H1203 0.929 . S
C1183 C1184 1.430 . S
C1183 C1185 1.387 . S
C1183 C1189 1.404 . S
C1184 C1177 1.448 . S
C1184 C1183 1.430 . S
C1184 N1188 1.351 . S
C1185 C1183 1.387 . S
C1185 C1186 1.374 . S
C1185 H1200 0.931 . S
C1186 C1180 1.439 . S
C1186 C1185 1.374 . S
C1186 H1201 0.931 . S
Eu1187 N1178 2.600 . S
Eu1187 N1188 2.562 . S
Eu1187 O1222 2.335 . S
Eu1187 O1225 2.372 . S
Eu1187 O1226 2.462 . S
Eu1187 O1227 2.373 . S
Eu1187 O1229 2.432 . S
Eu1187 O1230 2.291 . S
Eu1187 C1251 2.787 . S
N1188 C1184 1.351 . S
N1188 Eu1187 2.562 . S
N1188 C1190 1.325 . S
C1189 C1183 1.404 . S
C1189 C1191 1.366 . S
C1189 H1197 0.930 . S
C1190 N1188 1.325 . S
C1190 C1191 1.416 . S
C1190 H1196 0.929 . S
C1191 C1189 1.366 . S
C1191 C1190 1.416 . S
C1191 H1193 0.930 . S
H1192 C1181 0.930 . S
H1193 C1191 0.930 . S
H1194 C1209 0.930 . S
H1195 C1216 0.930 . S
H1196 C1190 0.929 . S
H1197 C1189 0.930 . S
H1198 C1212 0.929 . S
H1199 C1179 0.931 . S
H1200 C1185 0.931 . S
H1201 C1186 0.931 . S
H1202 C1207 0.931 . S
H1203 C1182 0.929 . S
H1204 C1215 0.930 . S
N1205 Eu1176 2.600 . S
N1205 C1206 1.365 . S
N1205 C1209 1.319 . S
C1206 N1205 1.365 . S
C1206 C1208 1.405 . S
C1206 C1214 1.448 . S
C1207 H1202 0.931 . S
C1207 C1209 1.397 . S
C1207 C1210 1.367 . S
C1208 C1206 1.405 . S
C1208 C1210 1.403 . S
C1208 C1241 1.439 . S
C1209 H1194 0.930 . S
C1209 N1205 1.319 . S
C1209 C1207 1.397 . S
C1210 C1207 1.367 . S
C1210 C1208 1.403 . S
C1210 H1217 0.929 . S
N1211 Eu1176 2.562 . S
N1211 C1212 1.325 . S
N1211 C1214 1.351 . S
C1212 H1198 0.929 . S
C1212 N1211 1.325 . S
C1212 C1216 1.416 . S
C1213 C1214 1.430 . S
C1213 C1215 1.404 . S
C1213 C1242 1.387 . S
C1214 C1206 1.448 . S
C1214 N1211 1.351 . S
C1214 C1213 1.430 . S
C1215 H1204 0.930 . S
C1215 C1213 1.404 . S
C1215 C1216 1.366 . S
C1216 H1195 0.930 . S
C1216 C1212 1.416 . S
C1216 C1215 1.366 . S
H1217 C1210 0.929 . S
H1218 C1241 0.931 . S
H1219 C1242 0.931 . S
O1220 Eu1176 2.462 . S
O1220 C1240 1.252 . S
O1221 Eu1176 2.373 . S
O1221 C1232 1.249 . S
O1222 Eu1187 2.335 . S
O1222 C1232 1.264 . S
O1223 Eu1176 2.432 . S
O1223 C1240 1.268 . S
O1224 Eu1176 2.291 . S
O1224 C1239 1.255 . S
O1225 Eu1187 2.372 . S
O1225 C1239 1.257 . S
O1226 Eu1187 2.462 . S
O1226 C1251 1.252 . S
O1227 Eu1187 2.373 . S
O1227 C1243 1.249 . S
O1228 Eu1176 2.335 . S
O1228 C1243 1.264 . S
O1229 Eu1187 2.432 . S
O1229 C1251 1.268 . S
O1230 Eu1187 2.291 . S
O1230 C1250 1.255 . S
O1231 Eu1176 2.372 . S
O1231 C1250 1.257 . S
C1232 O1221 1.249 . S
C1232 O1222 1.264 . S
C1233 C1236 1.382 . S
C1233 C1238 1.390 . S
C1233 C1240 1.506 . S
C1234 C1235 1.398 . S
C1234 C1238 1.392 . S
C1235 C1234 1.398 . S
C1235 C1237 1.372 . S
C1235 H1252 0.931 . S
C1236 C1233 1.382 . S
C1236 C1237 1.390 . S
C1236 H1253 0.931 . S
C1237 C1235 1.372 . S
C1237 C1236 1.390 . S
C1237 H1254 0.929 . S
C1238 C1233 1.390 . S
C1238 C1234 1.392 . S
C1238 H1255 0.930 . S
C1239 O1224 1.255 . S
C1239 O1225 1.257 . S
C1240 Eu1176 2.787 . S
C1240 O1220 1.252 . S
C1240 O1223 1.268 . S
C1240 C1233 1.506 . S
C1241 C1208 1.439 . S
C1241 H1218 0.931 . S
C1241 C1242 1.374 . S
C1242 C1213 1.387 . S
C1242 H1219 0.931 . S
C1242 C1241 1.374 . S
C1243 O1227 1.249 . S
C1243 O1228 1.264 . S
C1244 C1247 1.382 . S
C1244 C1248 1.390 . S
C1244 C1251 1.506 . S
C1245 C1246 1.398 . S
C1245 C1248 1.392 . S
C1246 C1245 1.398 . S
C1246 C1249 1.372 . S
C1246 H1256 0.931 . S
C1247 C1244 1.382 . S
C1247 C1249 1.390 . S
C1247 H1257 0.931 . S
C1248 C1244 1.390 . S
C1248 C1245 1.392 . S
C1248 H1258 0.930 . S
C1249 C1246 1.372 . S
C1249 C1247 1.390 . S
C1249 H1259 0.929 . S
C1250 O1230 1.255 . S
C1250 O1231 1.257 . S
C1251 Eu1187 2.787 . S
C1251 O1226 1.252 . S
C1251 O1229 1.268 . S
C1251 C1244 1.506 . S
H1252 C1235 0.931 . S
H1253 C1236 0.931 . S
H1254 C1237 0.929 . S
H1255 C1238 0.930 . S
H1256 C1246 0.931 . S
H1257 C1247 0.931 . S
H1258 C1248 0.930 . S
H1259 C1249 0.929 . S
Eu1260 N1289 2.600 1_545 S
Eu1260 N1295 2.562 1_545 S
Eu1260 O1304 2.462 . S
Eu1260 O1305 2.373 1_545 S
Eu1260 O1307 2.432 . S
Eu1260 O1308 2.291 . S
Eu1260 O1312 2.335 . S
Eu1260 O1315 2.372 . S
Eu1260 C1324 2.787 . S
C1261 N1262 1.365 . S
C1261 C1264 1.405 . S
C1261 C1268 1.448 . S
N1262 C1261 1.365 . S
N1262 C1265 1.319 . S
N1262 Eu1271 2.600 . S
C1263 C1265 1.397 . S
C1263 C1266 1.367 . S
C1263 H1283 0.931 . S
C1264 C1261 1.405 . S
C1264 C1266 1.403 . S
C1264 C1270 1.439 . S
C1265 N1262 1.319 . S
C1265 C1263 1.397 . S
C1265 H1276 0.930 . S
C1266 C1263 1.367 . S
C1266 C1264 1.403 . S
C1266 H1287 0.929 . S
C1267 C1268 1.430 . S
C1267 C1269 1.387 . S
C1267 C1273 1.404 . S
C1268 C1261 1.448 . S
C1268 C1267 1.430 . S
C1268 N1272 1.351 . S
C1269 C1267 1.387 . S
C1269 C1270 1.374 . S
C1269 H1284 0.931 . S
C1270 C1264 1.439 . S
C1270 C1269 1.374 . S
C1270 H1285 0.931 . S
Eu1271 N1262 2.600 . S
Eu1271 N1272 2.562 . S
Eu1271 O1306 2.335 1_545 S
Eu1271 O1309 2.372 . S
Eu1271 O1310 2.462 . S
Eu1271 O1311 2.373 . S
Eu1271 O1313 2.432 . S
Eu1271 O1314 2.291 . S
Eu1271 C1335 2.787 . S
N1272 C1268 1.351 . S
N1272 Eu1271 2.562 . S
N1272 C1274 1.325 . S
C1273 C1267 1.404 . S
C1273 C1275 1.366 . S
C1273 H1281 0.930 . S
C1274 N1272 1.325 . S
C1274 C1275 1.416 . S
C1274 H1280 0.929 . S
C1275 C1273 1.366 . S
C1275 C1274 1.416 . S
C1275 H1277 0.930 . S
H1276 C1265 0.930 . S
H1277 C1275 0.930 . S
H1278 C1293 0.930 . S
H1279 C1300 0.930 . S
H1280 C1274 0.929 . S
H1281 C1273 0.930 . S
H1282 C1296 0.929 . S
H1283 C1263 0.931 . S
H1284 C1269 0.931 . S
H1285 C1270 0.931 . S
H1286 C1291 0.931 . S
H1287 C1266 0.929 . S
H1288 C1299 0.930 . S
N1289 Eu1260 2.600 1_565 S
N1289 C1290 1.365 . S
N1289 C1293 1.319 . S
C1290 N1289 1.365 . S
C1290 C1292 1.405 . S
C1290 C1298 1.448 . S
C1291 H1286 0.931 . S
C1291 C1293 1.397 . S
C1291 C1294 1.367 . S
C1292 C1290 1.405 . S
C1292 C1294 1.403 . S
C1292 C1325 1.439 . S
C1293 H1278 0.930 . S
C1293 N1289 1.319 . S
C1293 C1291 1.397 . S
C1294 C1291 1.367 . S
C1294 C1292 1.403 . S
C1294 H1301 0.929 . S
N1295 Eu1260 2.562 1_565 S
N1295 C1296 1.325 . S
N1295 C1298 1.351 . S
C1296 H1282 0.929 . S
C1296 N1295 1.325 . S
C1296 C1300 1.416 . S
C1297 C1298 1.430 . S
C1297 C1299 1.404 . S
C1297 C1326 1.387 . S
C1298 C1290 1.448 . S
C1298 N1295 1.351 . S
C1298 C1297 1.430 . S
C1299 H1288 0.930 . S
C1299 C1297 1.404 . S
C1299 C1300 1.366 . S
C1300 H1279 0.930 . S
C1300 C1296 1.416 . S
C1300 C1299 1.366 . S
H1301 C1294 0.929 . S
H1302 C1325 0.931 . S
H1303 C1326 0.931 . S
O1304 Eu1260 2.462 . S
O1304 C1324 1.252 . S
O1305 Eu1260 2.373 1_565 S
O1305 C1316 1.249 . S
O1306 Eu1271 2.335 1_565 S
O1306 C1316 1.264 . S
O1307 Eu1260 2.432 . S
O1307 C1324 1.268 . S
O1308 Eu1260 2.291 . S
O1308 C1323 1.255 . S
O1309 Eu1271 2.372 . S
O1309 C1323 1.257 . S
O1310 Eu1271 2.462 . S
O1310 C1335 1.252 . S
O1311 Eu1271 2.373 . S
O1311 C1327 1.249 . S
O1312 Eu1260 2.335 . S
O1312 C1327 1.264 . S
O1313 Eu1271 2.432 . S
O1313 C1335 1.268 . S
O1314 Eu1271 2.291 . S
O1314 C1334 1.255 . S
O1315 Eu1260 2.372 . S
O1315 C1334 1.257 . S
C1316 O1305 1.249 . S
C1316 O1306 1.264 . S
C1317 C1320 1.382 . S
C1317 C1322 1.390 . S
C1317 C1324 1.506 . S
C1318 C1319 1.398 . S
C1318 C1322 1.392 . S
C1319 C1318 1.398 . S
C1319 C1321 1.372 . S
C1319 H1336 0.931 . S
C1320 C1317 1.382 . S
C1320 C1321 1.390 . S
C1320 H1337 0.931 . S
C1321 C1319 1.372 . S
C1321 C1320 1.390 . S
C1321 H1338 0.929 . S
C1322 C1317 1.390 . S
C1322 C1318 1.392 . S
C1322 H1339 0.930 . S
C1323 O1308 1.255 . S
C1323 O1309 1.257 . S
C1324 Eu1260 2.787 . S
C1324 O1304 1.252 . S
C1324 O1307 1.268 . S
C1324 C1317 1.506 . S
C1325 C1292 1.439 . S
C1325 H1302 0.931 . S
C1325 C1326 1.374 . S
C1326 C1297 1.387 . S
C1326 H1303 0.931 . S
C1326 C1325 1.374 . S
C1327 O1311 1.249 . S
C1327 O1312 1.264 . S
C1328 C1331 1.382 . S
C1328 C1332 1.390 . S
C1328 C1335 1.506 . S
C1329 C1330 1.393 1_565 S
C1329 C1332 1.387 1_565 S
C1330 C1329 1.393 1_545 S
C1330 C1333 1.372 . S
C1330 H1340 0.931 . S
C1331 C1328 1.382 . S
C1331 C1333 1.390 . S
C1331 H1341 0.931 . S
C1332 C1328 1.390 . S
C1332 C1329 1.387 1_545 S
C1332 H1342 0.930 1_545 S
C1333 C1330 1.372 . S
C1333 C1331 1.390 . S
C1333 H1343 0.929 . S
C1334 O1314 1.255 . S
C1334 O1315 1.257 . S
C1335 Eu1271 2.787 . S
C1335 O1310 1.252 . S
C1335 O1313 1.268 . S
C1335 C1328 1.506 . S
H1336 C1319 0.931 . S
H1337 C1320 0.931 . S
H1338 C1321 0.929 . S
H1339 C1322 0.930 . S
H1340 C1330 0.931 . S
H1341 C1331 0.931 . S
H1342 C1332 0.930 1_565 S
H1343 C1333 0.929 . S
C1344 C1345 1.391 . S
C1344 C1346 1.394 . S
C1344 H1360 0.931 . S
C1345 C1344 1.391 . S
C1345 C1349 1.376 . S
C1346 C1344 1.394 . S
C1346 C1347 1.369 . S
C1346 C1350 1.531 . S
C1347 C1346 1.369 . S
C1347 C1348 1.410 . S
C1347 C1355 1.503 . S
C1348 C1347 1.410 . S
C1348 C1349 1.392 . S
C1348 C1351 1.511 . S
C1349 C1345 1.376 . S
C1349 C1348 1.392 . S
C1349 H1361 0.929 . S
C1350 C1346 1.531 . S
C1350 H1362 0.960 . S
C1350 H1363 0.962 . S
C1350 H1364 0.960 . S
C1351 C1348 1.511 . S
C1351 H1365 0.961 . S
C1351 H1366 0.961 . S
C1351 H1367 0.961 . S
C1352 C1353 1.370 . S
C1352 C1354 1.363 . S
C1352 H1368 0.931 . S
C1353 C1352 1.370 . S
C1353 C1357 1.408 . S
C1354 C1352 1.363 . S
C1354 C1355 1.370 . S
C1354 C1358 1.524 . S
C1355 C1347 1.503 . S
C1355 C1354 1.370 . S
C1355 C1356 1.403 . S
C1356 C1355 1.403 . S
C1356 C1357 1.404 . S
C1356 C1359 1.539 . S
C1357 C1353 1.408 . S
C1357 C1356 1.404 . S
C1357 H1369 0.930 . S
C1358 C1354 1.524 . S
C1358 H1370 0.956 . S
C1358 H1371 0.961 . S
C1358 H1372 0.961 . S
C1359 C1356 1.539 . S
C1359 H1373 0.958 . S
C1359 H1374 0.961 . S
C1359 H1375 0.960 . S
H1360 C1344 0.931 . S
H1361 C1349 0.929 . S
H1362 C1350 0.960 . S
H1363 C1350 0.962 . S
H1364 C1350 0.960 . S
H1365 C1351 0.961 . S
H1366 C1351 0.961 . S
H1367 C1351 0.961 . S
H1368 C1352 0.931 . S
H1369 C1357 0.930 . S
H1370 C1358 0.956 . S
H1371 C1358 0.961 . S
H1372 C1358 0.961 . S
H1373 C1359 0.958 . S
H1374 C1359 0.961 . S
H1375 C1359 0.960 . S
C1376 C1377 1.391 . S
C1376 C1378 1.394 . S
C1376 H1392 0.931 . S
C1377 C1376 1.391 . S
C1377 C1381 1.376 . S
C1378 C1376 1.394 . S
C1378 C1379 1.369 . S
C1378 C1382 1.531 . S
C1379 C1378 1.369 . S
C1379 C1380 1.410 . S
C1379 C1387 1.503 . S
C1380 C1379 1.410 . S
C1380 C1381 1.392 . S
C1380 C1383 1.511 . S
C1381 C1377 1.376 . S
C1381 C1380 1.392 . S
C1381 H1393 0.929 . S
C1382 C1378 1.531 . S
C1382 H1394 0.960 . S
C1382 H1395 0.962 . S
C1382 H1396 0.960 . S
C1383 C1380 1.511 . S
C1383 H1397 0.961 . S
C1383 H1398 0.961 . S
C1383 H1399 0.961 . S
C1384 C1385 1.370 . S
C1384 C1386 1.363 . S
C1384 H1400 0.931 . S
C1385 C1384 1.370 . S
C1385 C1389 1.408 . S
C1386 C1384 1.363 . S
C1386 C1387 1.370 . S
C1386 C1390 1.524 . S
C1387 C1379 1.503 . S
C1387 C1386 1.370 . S
C1387 C1388 1.403 . S
C1388 C1387 1.403 . S
C1388 C1389 1.404 . S
C1388 C1391 1.539 . S
C1389 C1385 1.408 . S
C1389 C1388 1.404 . S
C1389 H1401 0.930 . S
C1390 C1386 1.524 . S
C1390 H1402 0.956 . S
C1390 H1403 0.961 . S
C1390 H1404 0.961 . S
C1391 C1388 1.539 . S
C1391 H1405 0.958 . S
C1391 H1406 0.961 . S
C1391 H1407 0.960 . S
H1392 C1376 0.931 . S
H1393 C1381 0.929 . S
H1394 C1382 0.960 . S
H1395 C1382 0.962 . S
H1396 C1382 0.960 . S
H1397 C1383 0.961 . S
H1398 C1383 0.961 . S
H1399 C1383 0.961 . S
H1400 C1384 0.931 . S
H1401 C1389 0.930 . S
H1402 C1390 0.956 . S
H1403 C1390 0.961 . S
H1404 C1390 0.961 . S
H1405 C1391 0.958 . S
H1406 C1391 0.961 . S
H1407 C1391 0.960 . S
C1408 C1409 1.391 . S
C1408 C1410 1.394 . S
C1408 H1424 0.931 . S
C1409 C1408 1.391 . S
C1409 C1413 1.376 . S
C1410 C1408 1.394 . S
C1410 C1411 1.369 . S
C1410 C1414 1.531 . S
C1411 C1410 1.369 . S
C1411 C1412 1.410 . S
C1411 C1419 1.503 . S
C1412 C1411 1.410 . S
C1412 C1413 1.392 . S
C1412 C1415 1.511 . S
C1413 C1409 1.376 . S
C1413 C1412 1.392 . S
C1413 H1425 0.929 . S
C1414 C1410 1.531 . S
C1414 H1426 0.960 . S
C1414 H1427 0.962 . S
C1414 H1428 0.960 . S
C1415 C1412 1.511 . S
C1415 H1429 0.961 . S
C1415 H1430 0.961 . S
C1415 H1431 0.961 . S
C1416 C1417 1.370 . S
C1416 C1418 1.363 . S
C1416 H1432 0.931 . S
C1417 C1416 1.370 . S
C1417 C1421 1.408 . S
C1418 C1416 1.363 . S
C1418 C1419 1.370 . S
C1418 C1422 1.524 . S
C1419 C1411 1.503 . S
C1419 C1418 1.370 . S
C1419 C1420 1.403 . S
C1420 C1419 1.403 . S
C1420 C1421 1.404 . S
C1420 C1423 1.539 . S
C1421 C1417 1.408 . S
C1421 C1420 1.404 . S
C1421 H1433 0.930 . S
C1422 C1418 1.524 . S
C1422 H1434 0.956 . S
C1422 H1435 0.961 . S
C1422 H1436 0.961 . S
C1423 C1420 1.539 . S
C1423 H1437 0.958 . S
C1423 H1438 0.961 . S
C1423 H1439 0.960 . S
H1424 C1408 0.931 . S
H1425 C1413 0.929 . S
H1426 C1414 0.960 . S
H1427 C1414 0.962 . S
H1428 C1414 0.960 . S
H1429 C1415 0.961 . S
H1430 C1415 0.961 . S
H1431 C1415 0.961 . S
H1432 C1416 0.931 . S
H1433 C1421 0.930 . S
H1434 C1422 0.956 . S
H1435 C1422 0.961 . S
H1436 C1422 0.961 . S
H1437 C1423 0.958 . S
H1438 C1423 0.961 . S
H1439 C1423 0.960 . S
C1440 C1441 1.391 . S
C1440 C1442 1.394 1_655 S
C1440 H1456 0.931 1_655 S
C1441 C1440 1.391 . S
C1441 C1445 1.376 . S
C1442 C1440 1.394 1_455 S
C1442 C1443 1.369 1_455 S
C1442 C1446 1.531 1_556 S
C1443 C1442 1.369 1_655 S
C1443 C1444 1.410 . S
C1443 C1451 1.503 1_656 S
C1444 C1443 1.410 . S
C1444 C1445 1.392 . S
C1444 C1447 1.511 . S
C1445 C1441 1.376 . S
C1445 C1444 1.392 . S
C1445 H1457 0.929 . S
C1446 C1442 1.531 1_554 S
C1446 H1458 0.960 . S
C1446 H1459 0.962 . S
C1446 H1460 0.960 1_554 S
C1447 C1444 1.511 . S
C1447 H1461 0.961 . S
C1447 H1462 0.961 . S
C1447 H1463 0.961 . S
C1448 C1449 1.370 . S
C1448 C1450 1.363 . S
C1448 H1464 0.931 . S
C1449 C1448 1.370 . S
C1449 C1453 1.421 . S
C1450 C1448 1.363 . S
C1450 C1451 1.370 . S
C1450 C1454 1.524 1_455 S
C1451 C1443 1.503 1_454 S
C1451 C1450 1.370 . S
C1451 C1452 1.403 1_554 S
C1452 C1451 1.403 1_556 S
C1452 C1453 1.398 1_556 S
C1452 C1455 1.539 . S
C1453 C1449 1.421 . S
C1453 C1452 1.398 1_554 S
C1453 H1465 0.923 1_554 S
C1454 C1450 1.524 1_655 S
C1454 H1466 0.956 . S
C1454 H1467 0.961 . S
C1454 H1468 0.961 . S
C1455 C1452 1.539 . S
C1455 H1469 0.958 . S
C1455 H1470 0.961 . S
C1455 H1471 0.960 . S
H1456 C1440 0.931 1_455 S
H1457 C1445 0.929 . S
H1458 C1446 0.960 . S
H1459 C1446 0.962 . S
H1460 C1446 0.960 1_556 S
H1461 C1447 0.961 . S
H1462 C1447 0.961 . S
H1463 C1447 0.961 . S
H1464 C1448 0.931 . S
H1465 C1453 0.923 1_556 S
H1466 C1454 0.956 . S
H1467 C1454 0.961 . S
H1468 C1454 0.961 . S
H1469 C1455 0.958 . S
H1470 C1455 0.961 . S
H1471 C1455 0.960 . S
C1472 C1473 1.391 . S
C1472 C1474 1.394 . S
C1472 H1488 0.931 . S
C1473 C1472 1.391 . S
C1473 C1477 1.376 . S
C1474 C1472 1.394 . S
C1474 C1475 1.369 . S
C1474 C1478 1.531 . S
C1475 C1474 1.369 . S
C1475 C1476 1.410 . S
C1475 C1483 1.503 . S
C1476 C1475 1.410 . S
C1476 C1477 1.392 . S
C1476 C1479 1.511 . S
C1477 C1473 1.376 . S
C1477 C1476 1.392 . S
C1477 H1489 0.929 . S
C1478 C1474 1.531 . S
C1478 H1490 0.960 . S
C1478 H1491 0.962 . S
C1478 H1492 0.960 . S
C1479 C1476 1.511 . S
C1479 H1493 0.961 . S
C1479 H1494 0.961 . S
C1479 H1495 0.961 . S
C1480 C1481 1.370 . S
C1480 C1482 1.363 . S
C1480 H1496 0.931 . S
C1481 C1480 1.370 . S
C1481 C1485 1.408 . S
C1482 C1480 1.363 . S
C1482 C1483 1.370 . S
C1482 C1486 1.524 . S
C1483 C1475 1.503 . S
C1483 C1482 1.370 . S
C1483 C1484 1.403 . S
C1484 C1483 1.403 . S
C1484 C1485 1.404 . S
C1484 C1487 1.539 . S
C1485 C1481 1.408 . S
C1485 C1484 1.404 . S
C1485 H1497 0.930 . S
C1486 C1482 1.524 . S
C1486 H1498 0.956 . S
C1486 H1499 0.961 . S
C1486 H1500 0.961 . S
C1487 C1484 1.539 . S
C1487 H1501 0.958 . S
C1487 H1502 0.961 . S
C1487 H1503 0.960 . S
H1488 C1472 0.931 . S
H1489 C1477 0.929 . S
H1490 C1478 0.960 . S
H1491 C1478 0.962 . S
H1492 C1478 0.960 . S
H1493 C1479 0.961 . S
H1494 C1479 0.961 . S
H1495 C1479 0.961 . S
H1496 C1480 0.931 . S
H1497 C1485 0.930 . S
H1498 C1486 0.956 . S
H1499 C1486 0.961 . S
H1500 C1486 0.961 . S
H1501 C1487 0.958 . S
H1502 C1487 0.961 . S
H1503 C1487 0.960 . S
C1504 C1505 1.391 . S
C1504 C1506 1.394 . S
C1504 H1520 0.931 . S
C1505 C1504 1.391 . S
C1505 C1509 1.376 . S
C1506 C1504 1.394 . S
C1506 C1507 1.369 . S
C1506 C1510 1.531 . S
C1507 C1506 1.369 . S
C1507 C1508 1.410 . S
C1507 C1515 1.503 . S
C1508 C1507 1.410 . S
C1508 C1509 1.392 . S
C1508 C1511 1.511 . S
C1509 C1505 1.376 . S
C1509 C1508 1.392 . S
C1509 H1521 0.929 . S
C1510 C1506 1.531 . S
C1510 H1522 0.960 . S
C1510 H1523 0.962 . S
C1510 H1524 0.960 . S
C1511 C1508 1.511 . S
C1511 H1525 0.961 . S
C1511 H1526 0.961 . S
C1511 H1527 0.961 . S
C1512 C1513 1.370 . S
C1512 C1514 1.363 . S
C1512 H1528 0.931 . S
C1513 C1512 1.370 . S
C1513 C1517 1.408 . S
C1514 C1512 1.363 . S
C1514 C1515 1.370 . S
C1514 C1518 1.524 . S
C1515 C1507 1.503 . S
C1515 C1514 1.370 . S
C1515 C1516 1.403 . S
C1516 C1515 1.403 . S
C1516 C1517 1.404 . S
C1516 C1519 1.539 . S
C1517 C1513 1.408 . S
C1517 C1516 1.404 . S
C1517 H1529 0.930 . S
C1518 C1514 1.524 . S
C1518 H1530 0.956 . S
C1518 H1531 0.961 . S
C1518 H1532 0.961 . S
C1519 C1516 1.539 . S
C1519 H1533 0.958 . S
C1519 H1534 0.961 . S
C1519 H1535 0.960 . S
H1520 C1504 0.931 . S
H1521 C1509 0.929 . S
H1522 C1510 0.960 . S
H1523 C1510 0.962 . S
H1524 C1510 0.960 . S
H1525 C1511 0.961 . S
H1526 C1511 0.961 . S
H1527 C1511 0.961 . S
H1528 C1512 0.931 . S
H1529 C1517 0.930 . S
H1530 C1518 0.956 . S
H1531 C1518 0.961 . S
H1532 C1518 0.961 . S
H1533 C1519 0.958 . S
H1534 C1519 0.961 . S
H1535 C1519 0.960 . S
C1536 C1537 1.391 . S
C1536 C1538 1.394 . S
C1536 H1552 0.931 . S
C1537 C1536 1.391 . S
C1537 C1541 1.376 . S
C1538 C1536 1.394 . S
C1538 C1539 1.369 . S
C1538 C1542 1.531 1_565 S
C1539 C1538 1.369 . S
C1539 C1540 1.410 1_655 S
C1539 C1547 1.503 1_664 S
C1540 C1539 1.410 1_455 S
C1540 C1541 1.392 1_455 S
C1540 C1543 1.511 . S
C1541 C1537 1.376 . S
C1541 C1540 1.392 1_655 S
C1541 H1553 0.929 1_655 S
C1542 C1538 1.531 1_545 S
C1542 H1554 0.960 . S
C1542 H1555 0.962 1_554 S
C1542 H1556 0.960 . S
C1543 C1540 1.511 . S
C1543 H1557 0.961 . S
C1543 H1558 0.968 . S
C1543 H1559 0.961 . S
C1544 C1545 1.370 . S
C1544 C1546 1.363 . S
C1544 H1560 0.931 . S
C1545 C1544 1.370 . S
C1545 C1549 1.408 1_556 S
C1546 C1544 1.363 . S
C1546 C1547 1.370 . S
C1546 C1550 1.524 1_445 S
C1547 C1539 1.503 1_446 S
C1547 C1546 1.370 . S
C1547 C1548 1.403 1_556 S
C1548 C1547 1.403 1_554 S
C1548 C1549 1.404 . S
C1548 C1551 1.539 . S
C1549 C1545 1.408 1_554 S
C1549 C1548 1.404 . S
C1549 H1561 0.930 . S
C1550 C1546 1.524 1_665 S
C1550 H1562 0.956 . S
C1550 H1563 0.961 1_655 S
C1550 H1564 0.961 1_655 S
C1551 C1548 1.539 . S
C1551 H1565 0.958 1_455 S
C1551 H1566 0.961 . S
C1551 H1567 0.960 . S
H1552 C1536 0.931 . S
H1553 C1541 0.929 1_455 S
H1554 C1542 0.960 . S
H1555 C1542 0.962 1_556 S
H1556 C1542 0.960 . S
H1557 C1543 0.961 . S
H1558 C1543 0.968 . S
H1559 C1543 0.961 . S
H1560 C1544 0.931 . S
H1561 C1549 0.930 . S
H1562 C1550 0.956 . S
H1563 C1550 0.961 1_455 S
H1564 C1550 0.961 1_455 S
H1565 C1551 0.958 1_655 S
H1566 C1551 0.961 . S
H1567 C1551 0.960 . S
C1568 C1569 1.391 . S
C1568 C1570 1.394 . S
C1568 H1584 0.931 . S
C1569 C1568 1.391 . S
C1569 C1573 1.376 . S
C1570 C1568 1.394 . S
C1570 C1571 1.369 . S
C1570 C1574 1.531 . S
C1571 C1570 1.369 . S
C1571 C1572 1.410 . S
C1571 C1579 1.503 1_565 S
C1572 C1571 1.410 . S
C1572 C1573 1.392 . S
C1572 C1575 1.511 1_565 S
C1573 C1569 1.376 . S
C1573 C1572 1.392 . S
C1573 H1585 0.929 . S
C1574 C1570 1.531 . S
C1574 H1586 0.960 . S
C1574 H1587 0.962 . S
C1574 H1588 0.960 . S
C1575 C1572 1.511 1_545 S
C1575 H1589 0.961 . S
C1575 H1590 0.961 . S
C1575 H1591 0.961 . S
C1576 C1577 1.370 . S
C1576 C1578 1.363 . S
C1576 H1592 0.931 . S
C1577 C1576 1.370 . S
C1577 C1581 1.408 . S
C1578 C1576 1.363 . S
C1578 C1579 1.370 . S
C1578 C1582 1.524 . S
C1579 C1571 1.503 1_545 S
C1579 C1578 1.370 . S
C1579 C1580 1.403 . S
C1580 C1579 1.403 . S
C1580 C1581 1.404 . S
C1580 C1583 1.539 . S
C1581 C1577 1.408 . S
C1581 C1580 1.404 . S
C1581 H1593 0.930 . S
C1582 C1578 1.524 . S
C1582 H1594 0.956 . S
C1582 H1595 0.961 . S
C1582 H1596 0.961 . S
C1583 C1580 1.539 . S
C1583 H1597 0.958 1_545 S
C1583 H1598 0.961 . S
C1583 H1599 0.960 1_545 S
H1584 C1568 0.931 . S
H1585 C1573 0.929 . S
H1586 C1574 0.960 . S
H1587 C1574 0.962 . S
H1588 C1574 0.960 . S
H1589 C1575 0.961 . S
H1590 C1575 0.961 . S
H1591 C1575 0.961 . S
H1592 C1576 0.931 . S
H1593 C1581 0.930 . S
H1594 C1582 0.956 . S
H1595 C1582 0.961 . S
H1596 C1582 0.961 . S
H1597 C1583 0.958 1_565 S
H1598 C1583 0.961 . S
H1599 C1583 0.960 1_565 S
C1600 C1601 1.391 . S
C1600 C1602 1.394 . S
C1600 H1616 0.931 . S
C1601 C1600 1.391 . S
C1601 C1605 1.376 . S
C1602 C1600 1.394 . S
C1602 C1603 1.369 . S
C1602 C1606 1.531 . S
C1603 C1602 1.369 . S
C1603 C1604 1.410 . S
C1603 C1611 1.503 . S
C1604 C1603 1.410 . S
C1604 C1605 1.392 . S
C1604 C1607 1.511 . S
C1605 C1601 1.376 . S
C1605 C1604 1.392 . S
C1605 H1617 0.929 . S
C1606 C1602 1.531 . S
C1606 H1618 0.960 1_545 S
C1606 H1619 0.962 . S
C1606 H1620 0.960 1_545 S
C1607 C1604 1.511 . S
C1607 H1621 0.961 . S
C1607 H1622 0.961 . S
C1607 H1623 0.961 . S
C1608 C1609 1.370 . S
C1608 C1610 1.363 1_554 S
C1608 H1624 0.931 . S
C1609 C1608 1.370 . S
C1609 C1613 1.408 . S
C1610 C1608 1.363 1_556 S
C1610 C1611 1.370 . S
C1610 C1614 1.524 . S
C1611 C1603 1.503 . S
C1611 C1610 1.370 . S
C1611 C1612 1.403 . S
C1612 C1611 1.403 . S
C1612 C1613 1.404 1_556 S
C1612 C1615 1.539 1_545 S
C1613 C1609 1.408 . S
C1613 C1612 1.404 1_554 S
C1613 H1625 0.930 . S
C1614 C1610 1.524 . S
C1614 H1626 0.956 . S
C1614 H1627 0.961 . S
C1614 H1628 0.961 . S
C1615 C1612 1.539 1_565 S
C1615 H1629 0.958 . S
C1615 H1630 0.961 . S
C1615 H1631 0.960 . S
H1616 C1600 0.931 . S
H1617 C1605 0.929 . S
H1618 C1606 0.960 1_565 S
H1619 C1606 0.962 . S
H1620 C1606 0.960 1_565 S
H1621 C1607 0.961 . S
H1622 C1607 0.961 . S
H1623 C1607 0.961 . S
H1624 C1608 0.931 . S
H1625 C1613 0.930 . S
H1626 C1614 0.956 . S
H1627 C1614 0.961 . S
H1628 C1614 0.961 . S
H1629 C1615 0.958 . S
H1630 C1615 0.961 . S
H1631 C1615 0.960 . S
C1632 C1633 1.391 . S
C1632 C1634 1.394 . S
C1632 H1648 0.931 . S
C1633 C1632 1.391 . S
C1633 C1637 1.376 . S
C1634 C1632 1.394 . S
C1634 C1635 1.369 . S
C1634 C1638 1.531 . S
C1635 C1634 1.369 . S
C1635 C1636 1.410 . S
C1635 C1643 1.503 . S
C1636 C1635 1.410 . S
C1636 C1637 1.392 . S
C1636 C1639 1.511 . S
C1637 C1633 1.376 . S
C1637 C1636 1.392 . S
C1637 H1649 0.929 . S
C1638 C1634 1.531 . S
C1638 H1650 0.960 . S
C1638 H1651 0.962 . S
C1638 H1652 0.960 . S
C1639 C1636 1.511 . S
C1639 H1653 0.961 . S
C1639 H1654 0.961 . S
C1639 H1655 0.961 . S
C1640 C1641 1.370 . S
C1640 C1642 1.363 . S
C1640 H1656 0.931 . S
C1641 C1640 1.370 . S
C1641 C1645 1.408 . S
C1642 C1640 1.363 . S
C1642 C1643 1.370 . S
C1642 C1646 1.524 . S
C1643 C1635 1.503 . S
C1643 C1642 1.370 . S
C1643 C1644 1.403 . S
C1644 C1643 1.403 . S
C1644 C1645 1.404 . S
C1644 C1647 1.539 . S
C1645 C1641 1.408 . S
C1645 C1644 1.404 . S
C1645 H1657 0.930 . S
C1646 C1642 1.524 . S
C1646 H1658 0.956 . S
C1646 H1659 0.961 . S
C1646 H1660 0.961 . S
C1647 C1644 1.539 . S
C1647 H1661 0.958 . S
C1647 H1662 0.961 . S
C1647 H1663 0.960 . S
H1648 C1632 0.931 . S
H1649 C1637 0.929 . S
H1650 C1638 0.960 . S
H1651 C1638 0.962 . S
H1652 C1638 0.960 . S
H1653 C1639 0.961 . S
H1654 C1639 0.961 . S
H1655 C1639 0.961 . S
H1656 C1640 0.931 . S
H1657 C1645 0.930 . S
H1658 C1646 0.956 . S
H1659 C1646 0.961 . S
H1660 C1646 0.961 . S
H1661 C1647 0.958 . S
H1662 C1647 0.961 . S
H1663 C1647 0.960 . S
C1664 C1665 1.391 . S
C1664 C1666 1.394 . S
C1664 H1680 0.931 . S
C1665 C1664 1.391 . S
C1665 C1669 1.376 . S
C1666 C1664 1.394 . S
C1666 C1667 1.369 . S
C1666 C1670 1.531 . S
C1667 C1666 1.369 . S
C1667 C1668 1.410 . S
C1667 C1675 1.503 . S
C1668 C1667 1.410 . S
C1668 C1669 1.392 . S
C1668 C1671 1.511 . S
C1669 C1665 1.376 . S
C1669 C1668 1.392 . S
C1669 H1681 0.929 . S
C1670 C1666 1.531 . S
C1670 H1682 0.960 . S
C1670 H1683 0.962 . S
C1670 H1684 0.960 . S
C1671 C1668 1.511 . S
C1671 H1685 0.961 1_565 S
C1671 H1686 0.961 . S
C1671 H1687 0.961 . S
C1672 C1673 1.370 . S
C1672 C1674 1.363 . S
C1672 H1688 0.931 . S
C1673 C1672 1.370 . S
C1673 C1677 1.408 . S
C1674 C1672 1.363 . S
C1674 C1675 1.370 . S
C1674 C1678 1.524 . S
C1675 C1667 1.503 . S
C1675 C1674 1.370 . S
C1675 C1676 1.403 . S
C1676 C1675 1.403 . S
C1676 C1677 1.404 . S
C1676 C1679 1.539 . S
C1677 C1673 1.408 . S
C1677 C1676 1.404 . S
C1677 H1689 0.930 . S
C1678 C1674 1.524 . S
C1678 H1690 0.956 . S
C1678 H1691 0.961 1_565 S
C1678 H1692 0.961 1_565 S
C1679 C1676 1.539 . S
C1679 H1693 0.958 . S
C1679 H1694 0.961 . S
C1679 H1695 0.960 . S
H1680 C1664 0.931 . S
H1681 C1669 0.929 . S
H1682 C1670 0.960 . S
H1683 C1670 0.962 . S
H1684 C1670 0.960 . S
H1685 C1671 0.961 1_545 S
H1686 C1671 0.961 . S
H1687 C1671 0.961 . S
H1688 C1672 0.931 . S
H1689 C1677 0.930 . S
H1690 C1678 0.956 . S
H1691 C1678 0.961 1_545 S
H1692 C1678 0.961 1_545 S
H1693 C1679 0.958 . S
H1694 C1679 0.961 . S
H1695 C1679 0.960 . S
C1696 C1697 1.391 . S
C1696 C1698 1.394 . S
C1696 H1712 0.931 . S
C1697 C1696 1.391 . S
C1697 C1701 1.376 . S
C1698 C1696 1.394 . S
C1698 C1699 1.369 . S
C1698 C1702 1.531 . S
C1699 C1698 1.369 . S
C1699 C1700 1.410 . S
C1699 C1707 1.503 . S
C1700 C1699 1.410 . S
C1700 C1701 1.392 . S
C1700 C1703 1.511 . S
C1701 C1697 1.376 . S
C1701 C1700 1.392 . S
C1701 H1713 0.929 . S
C1702 C1698 1.531 . S
C1702 H1714 0.960 . S
C1702 H1715 0.962 . S
C1702 H1716 0.960 . S
C1703 C1700 1.511 . S
C1703 H1717 0.961 . S
C1703 H1718 0.961 . S
C1703 H1719 0.961 . S
C1704 C1705 1.370 . S
C1704 C1706 1.363 . S
C1704 H1720 0.931 . S
C1705 C1704 1.370 . S
C1705 C1709 1.408 . S
C1706 C1704 1.363 . S
C1706 C1707 1.370 . S
C1706 C1710 1.524 . S
C1707 C1699 1.503 . S
C1707 C1706 1.370 . S
C1707 C1708 1.403 . S
C1708 C1707 1.403 . S
C1708 C1709 1.404 . S
C1708 C1711 1.539 . S
C1709 C1705 1.408 . S
C1709 C1708 1.404 . S
C1709 H1721 0.930 . S
C1710 C1706 1.524 . S
C1710 H1722 0.956 . S
C1710 H1723 0.961 . S
C1710 H1724 0.961 . S
C1711 C1708 1.539 . S
C1711 H1725 0.958 . S
C1711 H1726 0.961 . S
C1711 H1727 0.960 . S
H1712 C1696 0.931 . S
H1713 C1701 0.929 . S
H1714 C1702 0.960 . S
H1715 C1702 0.962 . S
H1716 C1702 0.960 . S
H1717 C1703 0.961 . S
H1718 C1703 0.961 . S
H1719 C1703 0.961 . S
H1720 C1704 0.931 . S
H1721 C1709 0.930 . S
H1722 C1710 0.956 . S
H1723 C1710 0.961 . S
H1724 C1710 0.961 . S
H1725 C1711 0.958 . S
H1726 C1711 0.961 . S
H1727 C1711 0.960 . S
C1728 C1729 1.391 . S
C1728 C1730 1.394 . S
C1728 H1744 0.931 . S
C1729 C1728 1.391 . S
C1729 C1733 1.376 . S
C1730 C1728 1.394 . S
C1730 C1731 1.369 . S
C1730 C1734 1.531 . S
C1731 C1730 1.369 . S
C1731 C1732 1.410 . S
C1731 C1739 1.503 . S
C1732 C1731 1.410 . S
C1732 C1733 1.392 . S
C1732 C1735 1.511 1_565 S
C1733 C1729 1.376 . S
C1733 C1732 1.392 . S
C1733 H1745 0.929 . S
C1734 C1730 1.531 . S
C1734 H1746 0.960 . S
C1734 H1747 0.962 . S
C1734 H1748 0.960 . S
C1735 C1732 1.511 1_545 S
C1735 H1749 0.961 . S
C1735 H1750 0.961 . S
C1735 H1751 0.961 . S
C1736 C1737 1.370 . S
C1736 C1738 1.363 1_556 S
C1736 H1752 0.931 . S
C1737 C1736 1.370 . S
C1737 C1741 1.408 . S
C1738 C1736 1.363 1_554 S
C1738 C1739 1.370 . S
C1738 C1742 1.524 . S
C1739 C1731 1.503 . S
C1739 C1738 1.370 . S
C1739 C1740 1.403 . S
C1740 C1739 1.403 . S
C1740 C1741 1.404 1_554 S
C1740 C1743 1.539 . S
C1741 C1737 1.408 . S
C1741 C1740 1.404 1_556 S
C1741 H1753 0.930 . S
C1742 C1738 1.524 . S
C1742 H1754 0.956 . S
C1742 H1755 0.961 . S
C1742 H1756 0.961 . S
C1743 C1740 1.539 . S
C1743 H1757 0.958 . S
C1743 H1758 0.950 1_565 S
C1743 H1759 0.960 . S
H1744 C1728 0.931 . S
H1745 C1733 0.929 . S
H1746 C1734 0.960 . S
H1747 C1734 0.962 . S
H1748 C1734 0.960 . S
H1749 C1735 0.961 . S
H1750 C1735 0.961 . S
H1751 C1735 0.961 . S
H1752 C1736 0.931 . S
H1753 C1741 0.930 . S
H1754 C1742 0.956 . S
H1755 C1742 0.961 . S
H1756 C1742 0.961 . S
H1757 C1743 0.958 . S
H1758 C1743 0.950 1_545 S
H1759 C1743 0.960 . S
C1760 C1761 1.391 . S
C1760 C1762 1.394 . S
C1760 H1776 0.931 . S
C1761 C1760 1.391 . S
C1761 C1765 1.376 . S
C1762 C1760 1.394 . S
C1762 C1763 1.369 . S
C1762 C1766 1.531 . S
C1763 C1762 1.369 . S
C1763 C1764 1.410 . S
C1763 C1771 1.503 . S
C1764 C1763 1.410 . S
C1764 C1765 1.392 . S
C1764 C1767 1.511 . S
C1765 C1761 1.376 . S
C1765 C1764 1.392 . S
C1765 H1777 0.929 . S
C1766 C1762 1.531 . S
C1766 H1778 0.960 . S
C1766 H1779 0.962 . S
C1766 H1780 0.960 . S
C1767 C1764 1.511 . S
C1767 H1781 0.961 . S
C1767 H1782 0.961 . S
C1767 H1783 0.961 . S
C1768 C1769 1.370 . S
C1768 C1770 1.363 . S
C1768 H1784 0.931 . S
C1769 C1768 1.370 . S
C1769 C1773 1.408 . S
C1770 C1768 1.363 . S
C1770 C1771 1.370 . S
C1770 C1774 1.524 . S
C1771 C1763 1.503 . S
C1771 C1770 1.370 . S
C1771 C1772 1.403 . S
C1772 C1771 1.403 . S
C1772 C1773 1.404 . S
C1772 C1775 1.539 . S
C1773 C1769 1.408 . S
C1773 C1772 1.404 . S
C1773 H1785 0.930 . S
C1774 C1770 1.524 . S
C1774 H1786 0.956 . S
C1774 H1787 0.961 . S
C1774 H1788 0.961 . S
C1775 C1772 1.539 . S
C1775 H1789 0.958 . S
C1775 H1790 0.961 . S
C1775 H1791 0.960 . S
H1776 C1760 0.931 . S
H1777 C1765 0.929 . S
H1778 C1766 0.960 . S
H1779 C1766 0.962 . S
H1780 C1766 0.960 . S
H1781 C1767 0.961 . S
H1782 C1767 0.961 . S
H1783 C1767 0.961 . S
H1784 C1768 0.931 . S
H1785 C1773 0.930 . S
H1786 C1774 0.956 . S
H1787 C1774 0.961 . S
H1788 C1774 0.961 . S
H1789 C1775 0.958 . S
H1790 C1775 0.961 . S
H1791 C1775 0.960 . S
C1792 C1793 1.391 . S
C1792 C1794 1.394 . S
C1792 H1808 0.931 . S
C1793 C1792 1.391 . S
C1793 C1797 1.376 . S
C1794 C1792 1.394 . S
C1794 C1795 1.369 . S
C1794 C1798 1.531 . S
C1795 C1794 1.369 . S
C1795 C1796 1.410 . S
C1795 C1803 1.503 . S
C1796 C1795 1.410 . S
C1796 C1797 1.392 . S
C1796 C1799 1.511 . S
C1797 C1793 1.376 . S
C1797 C1796 1.392 . S
C1797 H1809 0.929 . S
C1798 C1794 1.531 . S
C1798 H1810 0.960 . S
C1798 H1811 0.962 . S
C1798 H1812 0.960 . S
C1799 C1796 1.511 . S
C1799 H1813 0.961 . S
C1799 H1814 0.961 . S
C1799 H1815 0.961 . S
C1800 C1801 1.370 . S
C1800 C1802 1.363 . S
C1800 H1816 0.931 . S
C1801 C1800 1.370 . S
C1801 C1805 1.408 . S
C1802 C1800 1.363 . S
C1802 C1803 1.370 . S
C1802 C1806 1.509 1_545 S
C1803 C1795 1.503 . S
C1803 C1802 1.370 . S
C1803 C1804 1.403 . S
C1804 C1803 1.403 . S
C1804 C1805 1.404 . S
C1804 C1807 1.539 . S
C1805 C1801 1.408 . S
C1805 C1804 1.404 . S
C1805 H1817 0.930 . S
C1806 C1802 1.509 1_565 S
C1806 H1818 0.948 1_565 S
C1806 H1819 0.969 . S
C1806 H1820 0.976 . S
C1807 C1804 1.539 . S
C1807 H1821 0.958 . S
C1807 H1822 0.961 . S
C1807 H1823 0.960 . S
H1808 C1792 0.931 . S
H1809 C1797 0.929 . S
H1810 C1798 0.960 . S
H1811 C1798 0.962 . S
H1812 C1798 0.960 . S
H1813 C1799 0.961 . S
H1814 C1799 0.961 . S
H1815 C1799 0.961 . S
H1816 C1800 0.931 . S
H1817 C1805 0.930 . S
H1818 C1806 0.948 1_545 S
H1819 C1806 0.969 . S
H1820 C1806 0.976 . S
H1821 C1807 0.958 . S
H1822 C1807 0.961 . S
H1823 C1807 0.960 . S
C1824 C1825 1.391 . S
C1824 C1826 1.394 . S
C1824 H1840 0.931 . S
C1825 C1824 1.391 . S
C1825 C1829 1.376 . S
C1826 C1824 1.394 . S
C1826 C1827 1.369 . S
C1826 C1830 1.531 . S
C1827 C1826 1.369 . S
C1827 C1828 1.410 . S
C1827 C1835 1.503 . S
C1828 C1827 1.410 . S
C1828 C1829 1.392 . S
C1828 C1831 1.511 . S
C1829 C1825 1.376 . S
C1829 C1828 1.392 . S
C1829 H1841 0.929 . S
C1830 C1826 1.531 . S
C1830 H1842 0.960 . S
C1830 H1843 0.962 . S
C1830 H1844 0.960 . S
C1831 C1828 1.511 . S
C1831 H1845 0.961 . S
C1831 H1846 0.961 . S
C1831 H1847 0.961 . S
C1832 C1833 1.370 . S
C1832 C1834 1.363 . S
C1832 H1848 0.931 . S
C1833 C1832 1.370 . S
C1833 C1837 1.408 . S
C1834 C1832 1.363 . S
C1834 C1835 1.370 . S
C1834 C1838 1.524 . S
C1835 C1827 1.503 . S
C1835 C1834 1.370 . S
C1835 C1836 1.403 . S
C1836 C1835 1.403 . S
C1836 C1837 1.404 . S
C1836 C1839 1.539 . S
C1837 C1833 1.408 . S
C1837 C1836 1.404 . S
C1837 H1849 0.930 . S
C1838 C1834 1.524 . S
C1838 H1850 0.956 . S
C1838 H1851 0.961 . S
C1838 H1852 0.961 . S
C1839 C1836 1.539 . S
C1839 H1853 0.958 . S
C1839 H1854 0.961 . S
C1839 H1855 0.960 . S
H1840 C1824 0.931 . S
H1841 C1829 0.929 . S
H1842 C1830 0.960 . S
H1843 C1830 0.962 . S
H1844 C1830 0.960 . S
H1845 C1831 0.961 . S
H1846 C1831 0.961 . S
H1847 C1831 0.961 . S
H1848 C1832 0.931 . S
H1849 C1837 0.930 . S
H1850 C1838 0.956 . S
H1851 C1838 0.961 . S
H1852 C1838 0.961 . S
H1853 C1839 0.958 . S
H1854 C1839 0.961 . S
H1855 C1839 0.960 . S
C1856 C1857 1.391 . S
C1856 C1858 1.394 . S
C1856 H1872 0.931 . S
C1857 C1856 1.391 . S
C1857 C1861 1.376 . S
C1858 C1856 1.394 . S
C1858 C1859 1.369 . S
C1858 C1862 1.531 . S
C1859 C1858 1.369 . S
C1859 C1860 1.410 . S
C1859 C1867 1.503 . S
C1860 C1859 1.410 . S
C1860 C1861 1.392 . S
C1860 C1863 1.511 . S
C1861 C1857 1.376 . S
C1861 C1860 1.392 . S
C1861 H1873 0.929 . S
C1862 C1858 1.531 . S
C1862 H1874 0.960 . S
C1862 H1875 0.962 . S
C1862 H1876 0.960 . S
C1863 C1860 1.511 . S
C1863 H1877 0.961 . S
C1863 H1878 0.961 . S
C1863 H1879 0.961 . S
C1864 C1865 1.370 . S
C1864 C1866 1.363 . S
C1864 H1880 0.931 . S
C1865 C1864 1.370 . S
C1865 C1869 1.408 . S
C1866 C1864 1.363 . S
C1866 C1867 1.370 . S
C1866 C1870 1.524 . S
C1867 C1859 1.503 . S
C1867 C1866 1.370 . S
C1867 C1868 1.403 . S
C1868 C1867 1.403 . S
C1868 C1869 1.404 . S
C1868 C1871 1.539 . S
C1869 C1865 1.408 . S
C1869 C1868 1.404 . S
C1869 H1881 0.930 . S
C1870 C1866 1.524 . S
C1870 H1882 0.956 . S
C1870 H1883 0.961 . S
C1870 H1884 0.961 . S
C1871 C1868 1.539 . S
C1871 H1885 0.958 . S
C1871 H1886 0.961 . S
C1871 H1887 0.960 . S
H1872 C1856 0.931 . S
H1873 C1861 0.929 . S
H1874 C1862 0.960 . S
H1875 C1862 0.962 . S
H1876 C1862 0.960 . S
H1877 C1863 0.961 . S
H1878 C1863 0.961 . S
H1879 C1863 0.961 . S
H1880 C1864 0.931 . S
H1881 C1869 0.930 . S
H1882 C1870 0.956 . S
H1883 C1870 0.961 . S
H1884 C1870 0.961 . S
H1885 C1871 0.958 . S
H1886 C1871 0.961 . S
H1887 C1871 0.960 . S
C1888 C1889 1.391 . S
C1888 C1890 1.394 . S
C1888 H1904 0.931 . S
C1889 C1888 1.391 . S
C1889 C1893 1.376 1_565 S
C1890 C1888 1.394 . S
C1890 C1891 1.369 . S
C1890 C1894 1.531 . S
C1891 C1890 1.369 . S
C1891 C1892 1.410 1_565 S
C1891 C1899 1.503 . S
C1892 C1891 1.410 1_545 S
C1892 C1893 1.392 . S
C1892 C1895 1.511 . S
C1893 C1889 1.376 1_545 S
C1893 C1892 1.392 . S
C1893 H1905 0.929 . S
C1894 C1890 1.531 . S
C1894 H1906 0.960 . S
C1894 H1907 0.962 . S
C1894 H1908 0.960 . S
C1895 C1892 1.511 . S
C1895 H1909 0.961 . S
C1895 H1910 0.961 . S
C1895 H1911 0.961 . S
C1896 C1897 1.370 . S
C1896 C1898 1.363 . S
C1896 H1912 0.931 . S
C1897 C1896 1.370 . S
C1897 C1901 1.408 . S
C1898 C1896 1.363 . S
C1898 C1899 1.370 . S
C1898 C1902 1.524 . S
C1899 C1891 1.503 . S
C1899 C1898 1.370 . S
C1899 C1900 1.403 . S
C1900 C1899 1.403 . S
C1900 C1901 1.404 . S
C1900 C1903 1.539 . S
C1901 C1897 1.408 . S
C1901 C1900 1.404 . S
C1901 H1913 0.930 . S
C1902 C1898 1.524 . S
C1902 H1914 0.956 . S
C1902 H1915 0.961 . S
C1902 H1916 0.961 . S
C1903 C1900 1.539 . S
C1903 H1917 0.958 . S
C1903 H1918 0.961 . S
C1903 H1919 0.960 . S
H1904 C1888 0.931 . S
H1905 C1893 0.929 . S
H1906 C1894 0.960 . S
H1907 C1894 0.962 . S
H1908 C1894 0.960 . S
H1909 C1895 0.961 . S
H1910 C1895 0.961 . S
H1911 C1895 0.961 . S
H1912 C1896 0.931 . S
H1913 C1901 0.930 . S
H1914 C1902 0.956 . S
H1915 C1902 0.961 . S
H1916 C1902 0.961 . S
H1917 C1903 0.958 . S
H1918 C1903 0.961 . S
H1919 C1903 0.960 . S
C1920 C1921 1.391 . S
C1920 C1922 1.394 1_554 S
C1920 H1936 0.931 . S
C1921 C1920 1.391 . S
C1921 C1925 1.376 . S
C1922 C1920 1.394 1_556 S
C1922 C1923 1.369 . S
C1922 C1926 1.531 . S
C1923 C1922 1.369 . S
C1923 C1924 1.410 . S
C1923 C1931 1.503 . S
C1924 C1923 1.410 . S
C1924 C1925 1.392 1_556 S
C1924 C1927 1.511 . S
C1925 C1921 1.376 . S
C1925 C1924 1.392 1_554 S
C1925 H1937 0.929 . S
C1926 C1922 1.531 . S
C1926 H1938 0.960 . S
C1926 H1939 0.962 . S
C1926 H1940 0.996 . S
C1927 C1924 1.511 . S
C1927 H1941 0.961 . S
C1927 H1942 0.961 . S
C1927 H1943 0.961 . S
C1928 C1929 1.370 . S
C1928 C1930 1.363 . S
C1928 H1944 0.931 . S
C1929 C1928 1.370 . S
C1929 C1933 1.408 . S
C1930 C1928 1.363 . S
C1930 C1931 1.370 . S
C1930 C1934 1.524 . S
C1931 C1923 1.503 . S
C1931 C1930 1.370 . S
C1931 C1932 1.403 . S
C1932 C1931 1.403 . S
C1932 C1933 1.404 . S
C1932 C1935 1.539 . S
C1933 C1929 1.408 . S
C1933 C1932 1.404 . S
C1933 H1945 0.930 . S
C1934 C1930 1.524 . S
C1934 H1946 0.956 . S
C1934 H1947 0.961 . S
C1934 H1948 0.961 . S
C1935 C1932 1.539 . S
C1935 H1949 0.958 . S
C1935 H1950 0.961 . S
C1935 H1951 0.960 . S
H1936 C1920 0.931 . S
H1937 C1925 0.929 . S
H1938 C1926 0.960 . S
H1939 C1926 0.962 . S
H1940 C1926 0.996 . S
H1941 C1927 0.961 . S
H1942 C1927 0.961 . S
H1943 C1927 0.961 . S
H1944 C1928 0.931 . S
H1945 C1933 0.930 . S
H1946 C1934 0.956 . S
H1947 C1934 0.961 . S
H1948 C1934 0.961 . S
H1949 C1935 0.958 . S
H1950 C1935 0.961 . S
H1951 C1935 0.960 . S
C1952 C1953 1.391 . S
C1952 C1954 1.394 . S
C1952 H1968 0.931 1_545 S
C1953 C1952 1.391 . S
C1953 C1957 1.376 . S
C1954 C1952 1.394 . S
C1954 C1955 1.369 . S
C1954 C1958 1.531 1_545 S
C1955 C1954 1.369 . S
C1955 C1956 1.410 . S
C1955 C1963 1.503 . S
C1956 C1955 1.410 . S
C1956 C1957 1.392 . S
C1956 C1959 1.511 . S
C1957 C1953 1.376 . S
C1957 C1956 1.392 . S
C1957 H1969 0.929 . S
C1958 C1954 1.531 1_565 S
C1958 H1970 0.960 . S
C1958 H1971 0.962 . S
C1958 H1972 0.960 . S
C1959 C1956 1.511 . S
C1959 H1973 0.961 . S
C1959 H1974 0.961 . S
C1959 H1975 0.961 . S
C1960 C1961 1.370 . S
C1960 C1962 1.363 . S
C1960 H1976 0.931 . S
C1961 C1960 1.370 . S
C1961 C1965 1.408 . S
C1962 C1960 1.363 . S
C1962 C1963 1.370 . S
C1962 C1966 1.524 . S
C1963 C1955 1.503 . S
C1963 C1962 1.370 . S
C1963 C1964 1.403 . S
C1964 C1963 1.403 . S
C1964 C1965 1.404 . S
C1964 C1967 1.539 . S
C1965 C1961 1.408 . S
C1965 C1964 1.404 . S
C1965 H1977 0.930 . S
C1966 C1962 1.524 . S
C1966 H1978 0.956 . S
C1966 H1979 0.961 . S
C1966 H1980 0.961 . S
C1967 C1964 1.539 . S
C1967 H1981 0.958 1_545 S
C1967 H1982 0.961 . S
C1967 H1983 0.960 . S
H1968 C1952 0.931 1_565 S
H1969 C1957 0.929 . S
H1970 C1958 0.960 . S
H1971 C1958 0.962 . S
H1972 C1958 0.960 . S
H1973 C1959 0.961 . S
H1974 C1959 0.961 . S
H1975 C1959 0.961 . S
H1976 C1960 0.931 . S
H1977 C1965 0.930 . S
H1978 C1966 0.956 . S
H1979 C1966 0.961 . S
H1980 C1966 0.961 . S
H1981 C1967 0.958 1_565 S
H1982 C1967 0.961 . S
H1983 C1967 0.960 . S
C1984 C1985 1.391 . S
C1984 C1986 1.394 . S
C1984 H2000 0.931 . S
C1985 C1984 1.391 . S
C1985 C1989 1.376 . S
C1986 C1984 1.394 . S
C1986 C1987 1.369 . S
C1986 C1990 1.531 . S
C1987 C1986 1.369 . S
C1987 C1988 1.410 . S
C1987 C1995 1.503 . S
C1988 C1987 1.410 . S
C1988 C1989 1.392 . S
C1988 C1991 1.511 . S
C1989 C1985 1.376 . S
C1989 C1988 1.392 . S
C1989 H2001 0.929 . S
C1990 C1986 1.531 . S
C1990 H2002 0.960 . S
C1990 H2003 0.962 . S
C1990 H2004 0.960 . S
C1991 C1988 1.511 . S
C1991 H2005 0.961 . S
C1991 H2006 0.961 . S
C1991 H2007 0.961 . S
C1992 C1993 1.370 . S
C1992 C1994 1.363 . S
C1992 H2008 0.931 . S
C1993 C1992 1.370 . S
C1993 C1997 1.408 . S
C1994 C1992 1.363 . S
C1994 C1995 1.370 . S
C1994 C1998 1.524 . S
C1995 C1987 1.503 . S
C1995 C1994 1.370 . S
C1995 C1996 1.403 . S
C1996 C1995 1.403 . S
C1996 C1997 1.404 . S
C1996 C1999 1.539 . S
C1997 C1993 1.408 . S
C1997 C1996 1.404 . S
C1997 H2009 0.930 . S
C1998 C1994 1.524 . S
C1998 H2010 0.956 . S
C1998 H2011 0.961 . S
C1998 H2012 0.961 . S
C1999 C1996 1.539 . S
C1999 H2013 0.958 . S
C1999 H2014 0.961 . S
C1999 H2015 0.960 . S
H2000 C1984 0.931 . S
H2001 C1989 0.929 . S
H2002 C1990 0.960 . S
H2003 C1990 0.962 . S
H2004 C1990 0.960 . S
H2005 C1991 0.961 . S
H2006 C1991 0.961 . S
H2007 C1991 0.961 . S
H2008 C1992 0.931 . S
H2009 C1997 0.930 . S
H2010 C1998 0.956 . S
H2011 C1998 0.961 . S
H2012 C1998 0.961 . S
H2013 C1999 0.958 . S
H2014 C1999 0.961 . S
H2015 C1999 0.960 . S
C2016 C2017 1.391 . S
C2016 C2018 1.394 . S
C2016 H2032 0.931 . S
C2017 C2016 1.391 . S
C2017 C2021 1.376 . S
C2018 C2016 1.394 . S
C2018 C2019 1.369 . S
C2018 C2022 1.531 . S
C2019 C2018 1.369 . S
C2019 C2020 1.410 . S
C2019 C2027 1.503 . S
C2020 C2019 1.410 . S
C2020 C2021 1.392 . S
C2020 C2023 1.511 . S
C2021 C2017 1.376 . S
C2021 C2020 1.392 . S
C2021 H2033 0.929 1_545 S
C2022 C2018 1.531 . S
C2022 H2034 0.960 . S
C2022 H2035 0.962 . S
C2022 H2036 0.960 . S
C2023 C2020 1.511 . S
C2023 H2037 0.961 1_545 S
C2023 H2038 0.961 . S
C2023 H2039 0.961 . S
C2024 C2025 1.370 . S
C2024 C2026 1.363 . S
C2024 H2040 0.931 . S
C2025 C2024 1.370 . S
C2025 C2029 1.408 . S
C2026 C2024 1.363 . S
C2026 C2027 1.370 . S
C2026 C2030 1.524 1_545 S
C2027 C2019 1.503 . S
C2027 C2026 1.370 . S
C2027 C2028 1.403 . S
C2028 C2027 1.403 . S
C2028 C2029 1.404 . S
C2028 C2031 1.539 . S
C2029 C2025 1.408 . S
C2029 C2028 1.404 . S
C2029 H2041 0.930 . S
C2030 C2026 1.524 1_565 S
C2030 H2042 0.956 . S
C2030 H2043 0.961 . S
C2030 H2044 0.961 . S
C2031 C2028 1.539 . S
C2031 H2045 0.958 . S
C2031 H2046 0.961 . S
C2031 H2047 0.960 . S
H2032 C2016 0.931 . S
H2033 C2021 0.929 1_565 S
H2034 C2022 0.960 . S
H2035 C2022 0.962 . S
H2036 C2022 0.960 . S
H2037 C2023 0.961 1_565 S
H2038 C2023 0.961 . S
H2039 C2023 0.961 . S
H2040 C2024 0.931 . S
H2041 C2029 0.930 . S
H2042 C2030 0.956 . S
H2043 C2030 0.961 . S
H2044 C2030 0.961 . S
H2045 C2031 0.958 . S
H2046 C2031 0.961 . S
H2047 C2031 0.960 . S
C2048 C2049 1.391 . S
C2048 C2050 1.394 . S
C2048 H2064 0.931 . S
C2049 C2048 1.391 . S
C2049 C2053 1.376 . S
C2050 C2048 1.394 . S
C2050 C2051 1.369 . S
C2050 C2054 1.531 . S
C2051 C2050 1.369 . S
C2051 C2052 1.410 . S
C2051 C2059 1.503 . S
C2052 C2051 1.410 . S
C2052 C2053 1.392 . S
C2052 C2055 1.511 . S
C2053 C2049 1.376 . S
C2053 C2052 1.392 . S
C2053 H2065 0.929 . S
C2054 C2050 1.531 . S
C2054 H2066 0.960 . S
C2054 H2067 0.962 . S
C2054 H2068 0.960 . S
C2055 C2052 1.511 . S
C2055 H2069 0.961 . S
C2055 H2070 0.961 . S
C2055 H2071 0.961 . S
C2056 C2057 1.370 . S
C2056 C2058 1.363 1_556 S
C2056 H2072 0.931 . S
C2057 C2056 1.370 . S
C2057 C2061 1.408 . S
C2058 C2056 1.363 1_554 S
C2058 C2059 1.370 . S
C2058 C2062 1.524 . S
C2059 C2051 1.503 . S
C2059 C2058 1.370 . S
C2059 C2060 1.403 . S
C2060 C2059 1.403 . S
C2060 C2061 1.404 1_554 S
C2060 C2063 1.539 . S
C2061 C2057 1.408 . S
C2061 C2060 1.404 1_556 S
C2061 H2073 0.930 . S
C2062 C2058 1.524 . S
C2062 H2074 0.956 . S
C2062 H2075 0.961 . S
C2062 H2076 0.961 . S
C2063 C2060 1.539 . S
C2063 H2077 0.958 . S
C2063 H2078 0.961 . S
C2063 H2079 0.960 . S
H2064 C2048 0.931 . S
H2065 C2053 0.929 . S
H2066 C2054 0.960 . S
H2067 C2054 0.962 . S
H2068 C2054 0.960 . S
H2069 C2055 0.961 . S
H2070 C2055 0.961 . S
H2071 C2055 0.961 . S
H2072 C2056 0.931 . S
H2073 C2061 0.930 . S
H2074 C2062 0.956 . S
H2075 C2062 0.961 . S
H2076 C2062 0.961 . S
H2077 C2063 0.958 . S
H2078 C2063 0.961 . S
H2079 C2063 0.960 . S
C2080 C2081 1.391 1_545 S
C2080 C2082 1.394 . S
C2080 H2096 0.931 . S
C2081 C2080 1.391 1_565 S
C2081 C2085 1.376 . S
C2082 C2080 1.394 . S
C2082 C2083 1.369 1_545 S
C2082 C2086 1.531 . S
C2083 C2082 1.369 1_565 S
C2083 C2084 1.410 . S
C2083 C2091 1.503 . S
C2084 C2083 1.410 . S
C2084 C2085 1.392 . S
C2084 C2087 1.511 . S
C2085 C2081 1.376 . S
C2085 C2084 1.392 . S
C2085 H2097 0.929 . S
C2086 C2082 1.531 . S
C2086 H2098 0.960 . S
C2086 H2099 0.962 . S
C2086 H2100 0.960 . S
C2087 C2084 1.511 . S
C2087 H2101 0.961 . S
C2087 H2102 0.961 . S
C2087 H2103 0.961 . S
C2088 C2089 1.370 . S
C2088 C2090 1.363 . S
C2088 H2104 0.931 . S
C2089 C2088 1.370 . S
C2089 C2093 1.408 . S
C2090 C2088 1.363 . S
C2090 C2091 1.370 . S
C2090 C2094 1.524 . S
C2091 C2083 1.503 . S
C2091 C2090 1.370 . S
C2091 C2092 1.403 . S
C2092 C2091 1.403 . S
C2092 C2093 1.404 . S
C2092 C2095 1.539 . S
C2093 C2089 1.408 . S
C2093 C2092 1.404 . S
C2093 H2105 0.930 . S
C2094 C2090 1.524 . S
C2094 H2106 0.956 . S
C2094 H2107 0.961 . S
C2094 H2108 0.961 . S
C2095 C2092 1.539 . S
C2095 H2109 0.958 1_565 S
C2095 H2110 0.961 . S
C2095 H2111 0.960 . S
H2096 C2080 0.931 . S
H2097 C2085 0.929 . S
H2098 C2086 0.960 . S
H2099 C2086 0.962 . S
H2100 C2086 0.960 . S
H2101 C2087 0.961 . S
H2102 C2087 0.961 . S
H2103 C2087 0.961 . S
H2104 C2088 0.931 . S
H2105 C2093 0.930 . S
H2106 C2094 0.956 . S
H2107 C2094 0.961 . S
H2108 C2094 0.961 . S
H2109 C2095 0.958 1_545 S
H2110 C2095 0.961 . S
H2111 C2095 0.960 . S
C2112 C2113 1.391 . S
C2112 C2114 1.394 . S
C2112 H2128 0.931 . S
C2113 C2112 1.391 . S
C2113 C2117 1.376 . S
C2114 C2112 1.394 . S
C2114 C2115 1.369 . S
C2114 C2118 1.531 . S
C2115 C2114 1.369 . S
C2115 C2116 1.410 . S
C2115 C2123 1.503 . S
C2116 C2115 1.410 . S
C2116 C2117 1.392 . S
C2116 C2119 1.511 . S
C2117 C2113 1.376 . S
C2117 C2116 1.392 . S
C2117 H2129 0.929 . S
C2118 C2114 1.531 . S
C2118 H2130 0.960 . S
C2118 H2131 0.962 . S
C2118 H2132 0.960 . S
C2119 C2116 1.511 . S
C2119 H2133 0.961 . S
C2119 H2134 0.961 . S
C2119 H2135 0.961 . S
C2120 C2121 1.370 . S
C2120 C2122 1.363 . S
C2120 H2136 0.931 . S
C2121 C2120 1.370 . S
C2121 C2125 1.408 . S
C2122 C2120 1.363 . S
C2122 C2123 1.370 . S
C2122 C2126 1.524 . S
C2123 C2115 1.503 . S
C2123 C2122 1.370 . S
C2123 C2124 1.403 . S
C2124 C2123 1.403 . S
C2124 C2125 1.404 . S
C2124 C2127 1.539 . S
C2125 C2121 1.408 . S
C2125 C2124 1.404 . S
C2125 H2137 0.930 . S
C2126 C2122 1.524 . S
C2126 H2138 0.956 . S
C2126 H2139 0.961 . S
C2126 H2140 0.961 . S
C2127 C2124 1.539 . S
C2127 H2141 0.958 . S
C2127 H2142 0.961 . S
C2127 H2143 0.960 . S
H2128 C2112 0.931 . S
H2129 C2117 0.929 . S
H2130 C2118 0.960 . S
H2131 C2118 0.962 . S
H2132 C2118 0.960 . S
H2133 C2119 0.961 . S
H2134 C2119 0.961 . S
H2135 C2119 0.961 . S
H2136 C2120 0.931 . S
H2137 C2125 0.930 . S
H2138 C2126 0.956 . S
H2139 C2126 0.961 . S
H2140 C2126 0.961 . S
H2141 C2127 0.958 . S
H2142 C2127 0.961 . S
H2143 C2127 0.960 . S
C2144 C2145 1.391 . S
C2144 C2146 1.394 . S
C2144 H2160 0.931 . S
C2145 C2144 1.391 . S
C2145 C2149 1.376 . S
C2146 C2144 1.394 . S
C2146 C2147 1.369 . S
C2146 C2150 1.531 . S
C2147 C2146 1.369 . S
C2147 C2148 1.410 . S
C2147 C2155 1.503 . S
C2148 C2147 1.410 . S
C2148 C2149 1.392 . S
C2148 C2151 1.511 . S
C2149 C2145 1.376 . S
C2149 C2148 1.392 . S
C2149 H2161 0.929 . S
C2150 C2146 1.531 . S
C2150 H2162 0.960 . S
C2150 H2163 0.962 . S
C2150 H2164 0.960 . S
C2151 C2148 1.511 . S
C2151 H2165 0.961 . S
C2151 H2166 0.961 . S
C2151 H2167 0.961 . S
C2152 C2153 1.370 . S
C2152 C2154 1.363 . S
C2152 H2168 0.931 . S
C2153 C2152 1.370 . S
C2153 C2157 1.408 . S
C2154 C2152 1.363 . S
C2154 C2155 1.370 . S
C2154 C2158 1.524 . S
C2155 C2147 1.503 . S
C2155 C2154 1.370 . S
C2155 C2156 1.403 . S
C2156 C2155 1.403 . S
C2156 C2157 1.404 . S
C2156 C2159 1.539 . S
C2157 C2153 1.408 . S
C2157 C2156 1.404 . S
C2157 H2169 0.930 . S
C2158 C2154 1.524 . S
C2158 H2170 0.956 . S
C2158 H2171 0.961 . S
C2158 H2172 0.961 . S
C2159 C2156 1.539 . S
C2159 H2173 0.958 . S
C2159 H2174 0.961 . S
C2159 H2175 0.960 . S
H2160 C2144 0.931 . S
H2161 C2149 0.929 . S
H2162 C2150 0.960 . S
H2163 C2150 0.962 . S
H2164 C2150 0.960 . S
H2165 C2151 0.961 . S
H2166 C2151 0.961 . S
H2167 C2151 0.961 . S
H2168 C2152 0.931 . S
H2169 C2157 0.930 . S
H2170 C2158 0.956 . S
H2171 C2158 0.961 . S
H2172 C2158 0.961 . S
H2173 C2159 0.958 . S
H2174 C2159 0.961 . S
H2175 C2159 0.960 . S
C2176 C2177 1.391 . S
C2176 C2178 1.394 . S
C2176 H2192 0.931 . S
C2177 C2176 1.391 . S
C2177 C2181 1.376 . S
C2178 C2176 1.394 . S
C2178 C2179 1.369 . S
C2178 C2182 1.531 . S
C2179 C2178 1.369 . S
C2179 C2180 1.410 . S
C2179 C2187 1.503 1_655 S
C2180 C2179 1.410 . S
C2180 C2181 1.392 . S
C2180 C2183 1.511 1_655 S
C2181 C2177 1.376 . S
C2181 C2180 1.392 . S
C2181 H2193 0.929 . S
C2182 C2178 1.531 . S
C2182 H2194 0.960 . S
C2182 H2195 0.962 . S
C2182 H2196 0.960 . S
C2183 C2180 1.511 1_455 S
C2183 H2197 0.961 . S
C2183 H2198 0.961 . S
C2183 H2199 0.961 . S
C2184 C2185 1.370 . S
C2184 C2186 1.363 . S
C2184 H2200 0.931 . S
C2185 C2184 1.370 . S
C2185 C2189 1.408 . S
C2186 C2184 1.363 . S
C2186 C2187 1.370 . S
C2186 C2190 1.524 . S
C2187 C2179 1.503 1_455 S
C2187 C2186 1.370 . S
C2187 C2188 1.403 . S
C2188 C2187 1.403 . S
C2188 C2189 1.404 . S
C2188 C2191 1.539 . S
C2189 C2185 1.408 . S
C2189 C2188 1.404 . S
C2189 H2201 0.930 . S
C2190 C2186 1.524 . S
C2190 H2202 0.956 . S
C2190 H2203 0.961 . S
C2190 H2204 0.961 . S
C2191 C2188 1.539 . S
C2191 H2205 0.958 1_455 S
C2191 H2206 0.961 . S
C2191 H2207 0.960 1_455 S
H2192 C2176 0.931 . S
H2193 C2181 0.929 . S
H2194 C2182 0.960 . S
H2195 C2182 0.962 . S
H2196 C2182 0.960 . S
H2197 C2183 0.961 . S
H2198 C2183 0.961 . S
H2199 C2183 0.961 . S
H2200 C2184 0.931 . S
H2201 C2189 0.930 . S
H2202 C2190 0.956 . S
H2203 C2190 0.961 . S
H2204 C2190 0.961 . S
H2205 C2191 0.958 1_655 S
H2206 C2191 0.961 . S
H2207 C2191 0.960 1_655 S
C2208 C2209 1.391 . S
C2208 C2210 1.394 . S
C2208 H2224 0.931 . S
C2209 C2208 1.391 . S
C2209 C2213 1.376 . S
C2210 C2208 1.394 . S
C2210 C2211 1.369 . S
C2210 C2214 1.531 . S
C2211 C2210 1.369 . S
C2211 C2212 1.410 1_655 S
C2211 C2219 1.503 1_655 S
C2212 C2211 1.410 1_455 S
C2212 C2213 1.392 1_455 S
C2212 C2215 1.511 . S
C2213 C2209 1.376 . S
C2213 C2212 1.392 1_655 S
C2213 H2225 0.929 . S
C2214 C2210 1.531 . S
C2214 H2226 0.960 . S
C2214 H2227 0.962 . S
C2214 H2228 0.960 . S
C2215 C2212 1.511 . S
C2215 H2229 0.961 . S
C2215 H2230 0.961 . S
C2215 H2231 0.961 . S
C2216 C2217 1.370 . S
C2216 C2218 1.363 1_455 S
C2216 H2232 0.931 . S
C2217 C2216 1.370 . S
C2217 C2221 1.408 . S
C2218 C2216 1.363 1_655 S
C2218 C2219 1.370 1_655 S
C2218 C2222 1.524 . S
C2219 C2211 1.503 1_455 S
C2219 C2218 1.370 1_455 S
C2219 C2220 1.403 . S
C2220 C2219 1.403 . S
C2220 C2221 1.404 . S
C2220 C2223 1.539 . S
C2221 C2217 1.408 . S
C2221 C2220 1.404 . S
C2221 H2233 0.930 . S
C2222 C2218 1.524 . S
C2222 H2234 0.956 . S
C2222 H2235 0.961 . S
C2222 H2236 0.961 . S
C2223 C2220 1.539 . S
C2223 H2237 0.958 . S
C2223 H2238 0.961 . S
C2223 H2239 0.960 . S
H2224 C2208 0.931 . S
H2225 C2213 0.929 . S
H2226 C2214 0.960 . S
H2227 C2214 0.962 . S
H2228 C2214 0.960 . S
H2229 C2215 0.961 . S
H2230 C2215 0.961 . S
H2231 C2215 0.961 . S
H2232 C2216 0.931 . S
H2233 C2221 0.930 . S
H2234 C2222 0.956 . S
H2235 C2222 0.961 . S
H2236 C2222 0.961 . S
H2237 C2223 0.958 . S
H2238 C2223 0.961 . S
H2239 C2223 0.960 . S
C2240 C2241 1.391 . S
C2240 C2242 1.394 . S
C2240 H2256 0.931 . S
C2241 C2240 1.391 . S
C2241 C2245 1.376 . S
C2242 C2240 1.394 . S
C2242 C2243 1.369 . S
C2242 C2246 1.531 . S
C2243 C2242 1.369 . S
C2243 C2244 1.410 . S
C2243 C2251 1.503 . S
C2244 C2243 1.410 . S
C2244 C2245 1.392 . S
C2244 C2247 1.511 . S
C2245 C2241 1.376 . S
C2245 C2244 1.392 . S
C2245 H2257 0.929 . S
C2246 C2242 1.531 . S
C2246 H2258 0.960 . S
C2246 H2259 0.962 . S
C2246 H2260 0.960 . S
C2247 C2244 1.511 . S
C2247 H2261 0.961 . S
C2247 H2262 0.961 . S
C2247 H2263 0.961 . S
C2248 C2249 1.370 . S
C2248 C2250 1.363 . S
C2248 H2264 0.931 . S
C2249 C2248 1.370 . S
C2249 C2253 1.408 . S
C2250 C2248 1.363 . S
C2250 C2251 1.370 . S
C2250 C2254 1.524 . S
C2251 C2243 1.503 . S
C2251 C2250 1.370 . S
C2251 C2252 1.403 . S
C2252 C2251 1.403 . S
C2252 C2253 1.404 . S
C2252 C2255 1.539 . S
C2253 C2249 1.408 . S
C2253 C2252 1.404 . S
C2253 H2265 0.930 . S
C2254 C2250 1.524 . S
C2254 H2266 0.956 . S
C2254 H2267 0.961 . S
C2254 H2268 0.961 . S
C2255 C2252 1.539 . S
C2255 H2269 0.958 . S
C2255 H2270 0.961 . S
C2255 H2271 0.960 . S
H2256 C2240 0.931 . S
H2257 C2245 0.929 . S
H2258 C2246 0.960 . S
H2259 C2246 0.962 . S
H2260 C2246 0.960 . S
H2261 C2247 0.961 . S
H2262 C2247 0.961 . S
H2263 C2247 0.961 . S
H2264 C2248 0.931 . S
H2265 C2253 0.930 . S
H2266 C2254 0.956 . S
H2267 C2254 0.961 . S
H2268 C2254 0.961 . S
H2269 C2255 0.958 . S
H2270 C2255 0.961 . S
H2271 C2255 0.960 . S
C2272 C2273 1.391 . S
C2272 C2274 1.394 . S
C2272 H2288 0.931 . S
C2273 C2272 1.391 . S
C2273 C2277 1.376 . S
C2274 C2272 1.394 . S
C2274 C2275 1.369 . S
C2274 C2278 1.531 . S
C2275 C2274 1.369 . S
C2275 C2276 1.410 . S
C2275 C2283 1.503 . S
C2276 C2275 1.410 . S
C2276 C2277 1.392 . S
C2276 C2279 1.511 . S
C2277 C2273 1.376 . S
C2277 C2276 1.392 . S
C2277 H2289 0.929 . S
C2278 C2274 1.531 . S
C2278 H2290 0.960 . S
C2278 H2291 0.962 . S
C2278 H2292 0.960 . S
C2279 C2276 1.511 . S
C2279 H2293 0.961 . S
C2279 H2294 0.961 . S
C2279 H2295 0.961 . S
C2280 C2281 1.370 . S
C2280 C2282 1.363 . S
C2280 H2296 0.931 . S
C2281 C2280 1.370 . S
C2281 C2285 1.408 . S
C2282 C2280 1.363 . S
C2282 C2283 1.370 . S
C2282 C2286 1.524 . S
C2283 C2275 1.503 . S
C2283 C2282 1.370 . S
C2283 C2284 1.403 . S
C2284 C2283 1.403 . S
C2284 C2285 1.404 . S
C2284 C2287 1.539 . S
C2285 C2281 1.408 . S
C2285 C2284 1.404 . S
C2285 H2297 0.930 . S
C2286 C2282 1.524 . S
C2286 H2298 0.956 . S
C2286 H2299 0.961 . S
C2286 H2300 0.961 . S
C2287 C2284 1.539 . S
C2287 H2301 0.958 . S
C2287 H2302 0.961 . S
C2287 H2303 0.960 . S
H2288 C2272 0.931 . S
H2289 C2277 0.929 . S
H2290 C2278 0.960 . S
H2291 C2278 0.962 . S
H2292 C2278 0.960 . S
H2293 C2279 0.961 . S
H2294 C2279 0.961 . S
H2295 C2279 0.961 . S
H2296 C2280 0.931 . S
H2297 C2285 0.930 . S
H2298 C2286 0.956 . S
H2299 C2286 0.961 . S
H2300 C2286 0.961 . S
H2301 C2287 0.958 . S
H2302 C2287 0.961 . S
H2303 C2287 0.960 . S
C2304 C2305 1.391 . S
C2304 C2306 1.394 . S
C2304 H2320 0.931 . S
C2305 C2304 1.391 . S
C2305 C2309 1.376 . S
C2306 C2304 1.394 . S
C2306 C2307 1.369 . S
C2306 C2310 1.531 . S
C2307 C2306 1.369 . S
C2307 C2308 1.410 . S
C2307 C2315 1.503 1_455 S
C2308 C2307 1.410 . S
C2308 C2309 1.392 . S
C2308 C2311 1.511 1_455 S
C2309 C2305 1.376 . S
C2309 C2308 1.392 . S
C2309 H2321 0.929 . S
C2310 C2306 1.531 . S
C2310 H2322 0.960 . S
C2310 H2323 0.962 . S
C2310 H2324 0.960 . S
C2311 C2308 1.511 1_655 S
C2311 H2325 0.961 . S
C2311 H2326 0.961 . S
C2311 H2327 0.961 . S
C2312 C2313 1.370 . S
C2312 C2314 1.363 . S
C2312 H2328 0.931 . S
C2313 C2312 1.370 . S
C2313 C2317 1.408 . S
C2314 C2312 1.363 . S
C2314 C2315 1.370 . S
C2314 C2318 1.524 . S
C2315 C2307 1.503 1_655 S
C2315 C2314 1.370 . S
C2315 C2316 1.403 . S
C2316 C2315 1.403 . S
C2316 C2317 1.404 . S
C2316 C2319 1.539 . S
C2317 C2313 1.408 . S
C2317 C2316 1.404 . S
C2317 H2329 0.930 . S
C2318 C2314 1.524 . S
C2318 H2330 0.956 1_655 S
C2318 H2331 0.961 . S
C2318 H2332 0.961 . S
C2319 C2316 1.539 . S
C2319 H2333 0.958 . S
C2319 H2334 0.961 . S
C2319 H2335 0.960 . S
H2320 C2304 0.931 . S
H2321 C2309 0.929 . S
H2322 C2310 0.960 . S
H2323 C2310 0.962 . S
H2324 C2310 0.960 . S
H2325 C2311 0.961 . S
H2326 C2311 0.961 . S
H2327 C2311 0.961 . S
H2328 C2312 0.931 . S
H2329 C2317 0.930 . S
H2330 C2318 0.956 1_455 S
H2331 C2318 0.961 . S
H2332 C2318 0.961 . S
H2333 C2319 0.958 . S
H2334 C2319 0.961 . S
H2335 C2319 0.960 . S
C2336 C2337 1.391 . S
C2336 C2338 1.394 1_455 S
C2336 H2352 0.931 1_455 S
C2337 C2336 1.391 . S
C2337 C2341 1.376 . S
C2338 C2336 1.394 1_655 S
C2338 C2339 1.369 1_655 S
C2338 C2342 1.531 . S
C2339 C2338 1.369 1_455 S
C2339 C2340 1.410 . S
C2339 C2347 1.503 1_455 S
C2340 C2339 1.410 . S
C2340 C2341 1.392 . S
C2340 C2343 1.511 . S
C2341 C2337 1.376 . S
C2341 C2340 1.392 . S
C2341 H2353 0.929 . S
C2342 C2338 1.531 . S
C2342 H2354 0.960 . S
C2342 H2355 0.962 . S
C2342 H2356 0.960 . S
C2343 C2340 1.511 . S
C2343 H2357 0.961 . S
C2343 H2358 0.961 . S
C2343 H2359 0.961 . S
C2344 C2345 1.370 . S
C2344 C2346 1.363 . S
C2344 H2360 0.931 . S
C2345 C2344 1.370 . S
C2345 C2349 1.408 . S
C2346 C2344 1.363 . S
C2346 C2347 1.370 . S
C2346 C2350 1.524 . S
C2347 C2339 1.503 1_655 S
C2347 C2346 1.370 . S
C2347 C2348 1.403 . S
C2348 C2347 1.403 . S
C2348 C2349 1.404 . S
C2348 C2351 1.539 1_655 S
C2349 C2345 1.408 . S
C2349 C2348 1.404 . S
C2349 H2361 0.930 . S
C2350 C2346 1.524 . S
C2350 H2362 0.956 . S
C2350 H2363 0.961 1_655 S
C2350 H2364 0.961 . S
C2351 C2348 1.539 1_455 S
C2351 H2365 0.958 1_455 S
C2351 H2366 0.961 . S
C2351 H2367 0.960 . S
H2352 C2336 0.931 1_655 S
H2353 C2341 0.929 . S
H2354 C2342 0.960 . S
H2355 C2342 0.962 . S
H2356 C2342 0.960 . S
H2357 C2343 0.961 . S
H2358 C2343 0.961 . S
H2359 C2343 0.961 . S
H2360 C2344 0.931 . S
H2361 C2349 0.930 . S
H2362 C2350 0.956 . S
H2363 C2350 0.961 1_455 S
H2364 C2350 0.961 . S
H2365 C2351 0.958 1_655 S
H2366 C2351 0.961 . S
H2367 C2351 0.960 . S
C2368 C2369 1.391 . S
C2368 C2370 1.394 . S
C2368 H2384 0.931 . S
C2369 C2368 1.391 . S
C2369 C2373 1.376 . S
C2370 C2368 1.394 . S
C2370 C2371 1.369 . S
C2370 C2374 1.531 . S
C2371 C2370 1.369 . S
C2371 C2372 1.410 . S
C2371 C2379 1.503 . S
C2372 C2371 1.410 . S
C2372 C2373 1.392 . S
C2372 C2375 1.511 . S
C2373 C2369 1.376 . S
C2373 C2372 1.392 . S
C2373 H2385 0.929 . S
C2374 C2370 1.531 . S
C2374 H2386 0.960 . S
C2374 H2387 0.962 . S
C2374 H2388 0.960 . S
C2375 C2372 1.511 . S
C2375 H2389 0.961 . S
C2375 H2390 0.961 . S
C2375 H2391 0.961 . S
C2376 C2377 1.370 . S
C2376 C2378 1.363 . S
C2376 H2392 0.931 . S
C2377 C2376 1.370 . S
C2377 C2381 1.408 . S
C2378 C2376 1.363 . S
C2378 C2379 1.370 . S
C2378 C2382 1.524 . S
C2379 C2371 1.503 . S
C2379 C2378 1.370 . S
C2379 C2380 1.403 . S
C2380 C2379 1.403 . S
C2380 C2381 1.404 . S
C2380 C2383 1.539 . S
C2381 C2377 1.408 . S
C2381 C2380 1.404 . S
C2381 H2393 0.930 . S
C2382 C2378 1.524 . S
C2382 H2394 0.956 . S
C2382 H2395 0.961 . S
C2382 H2396 0.961 . S
C2383 C2380 1.539 . S
C2383 H2397 0.958 . S
C2383 H2398 0.961 . S
C2383 H2399 0.960 . S
H2384 C2368 0.931 . S
H2385 C2373 0.929 . S
H2386 C2374 0.960 . S
H2387 C2374 0.962 . S
H2388 C2374 0.960 . S
H2389 C2375 0.961 . S
H2390 C2375 0.961 . S
H2391 C2375 0.961 . S
H2392 C2376 0.931 . S
H2393 C2381 0.930 . S
H2394 C2382 0.956 . S
H2395 C2382 0.961 . S
H2396 C2382 0.961 . S
H2397 C2383 0.958 . S
H2398 C2383 0.961 . S
H2399 C2383 0.960 . S
C2400 C2401 1.391 . S
C2400 C2402 1.394 . S
C2400 H2416 0.931 . S
C2401 C2400 1.391 . S
C2401 C2405 1.376 . S
C2402 C2400 1.394 . S
C2402 C2403 1.369 . S
C2402 C2406 1.531 . S
C2403 C2402 1.369 . S
C2403 C2404 1.410 . S
C2403 C2411 1.503 . S
C2404 C2403 1.410 . S
C2404 C2405 1.392 . S
C2404 C2407 1.511 . S
C2405 C2401 1.376 . S
C2405 C2404 1.392 . S
C2405 H2417 0.929 . S
C2406 C2402 1.531 . S
C2406 H2418 0.960 . S
C2406 H2419 0.962 . S
C2406 H2420 0.960 . S
C2407 C2404 1.511 . S
C2407 H2421 0.961 . S
C2407 H2422 0.961 . S
C2407 H2423 0.961 . S
C2408 C2409 1.370 . S
C2408 C2410 1.363 . S
C2408 H2424 0.931 . S
C2409 C2408 1.370 . S
C2409 C2413 1.408 . S
C2410 C2408 1.363 . S
C2410 C2411 1.370 . S
C2410 C2414 1.524 . S
C2411 C2403 1.503 . S
C2411 C2410 1.370 . S
C2411 C2412 1.403 . S
C2412 C2411 1.403 . S
C2412 C2413 1.404 . S
C2412 C2415 1.539 . S
C2413 C2409 1.408 . S
C2413 C2412 1.404 . S
C2413 H2425 0.930 . S
C2414 C2410 1.524 . S
C2414 H2426 0.956 . S
C2414 H2427 0.961 . S
C2414 H2428 0.961 . S
C2415 C2412 1.539 . S
C2415 H2429 0.958 . S
C2415 H2430 0.961 . S
C2415 H2431 0.960 . S
H2416 C2400 0.931 . S
H2417 C2405 0.929 . S
H2418 C2406 0.960 . S
H2419 C2406 0.962 . S
H2420 C2406 0.960 . S
H2421 C2407 0.961 . S
H2422 C2407 0.961 . S
H2423 C2407 0.961 . S
H2424 C2408 0.931 . S
H2425 C2413 0.930 . S
H2426 C2414 0.956 . S
H2427 C2414 0.961 . S
H2428 C2414 0.961 . S
H2429 C2415 0.958 . S
H2430 C2415 0.961 . S
H2431 C2415 0.960 . S
C2432 C2433 1.391 . S
C2432 C2434 1.394 . S
C2432 H2448 0.931 . S
C2433 C2432 1.391 . S
C2433 C2437 1.376 . S
C2434 C2432 1.394 . S
C2434 C2435 1.369 . S
C2434 C2438 1.531 . S
C2435 C2434 1.369 . S
C2435 C2436 1.410 . S
C2435 C2443 1.503 . S
C2436 C2435 1.410 . S
C2436 C2437 1.392 . S
C2436 C2439 1.511 . S
C2437 C2433 1.376 . S
C2437 C2436 1.392 . S
C2437 H2449 0.929 . S
C2438 C2434 1.531 . S
C2438 H2450 0.960 . S
C2438 H2451 0.962 . S
C2438 H2452 0.960 . S
C2439 C2436 1.511 . S
C2439 H2453 0.961 . S
C2439 H2454 0.961 . S
C2439 H2455 0.961 . S
C2440 C2441 1.370 . S
C2440 C2442 1.363 . S
C2440 H2456 0.931 . S
C2441 C2440 1.370 . S
C2441 C2445 1.408 . S
C2442 C2440 1.363 . S
C2442 C2443 1.370 . S
C2442 C2446 1.524 . S
C2443 C2435 1.503 . S
C2443 C2442 1.370 . S
C2443 C2444 1.403 . S
C2444 C2443 1.403 . S
C2444 C2445 1.404 . S
C2444 C2447 1.539 . S
C2445 C2441 1.408 . S
C2445 C2444 1.404 . S
C2445 H2457 0.930 . S
C2446 C2442 1.524 . S
C2446 H2458 0.956 . S
C2446 H2459 0.961 . S
C2446 H2460 0.961 . S
C2447 C2444 1.539 . S
C2447 H2461 0.958 . S
C2447 H2462 0.961 . S
C2447 H2463 0.960 . S
H2448 C2432 0.931 . S
H2449 C2437 0.929 . S
H2450 C2438 0.960 . S
H2451 C2438 0.962 . S
H2452 C2438 0.960 . S
H2453 C2439 0.961 . S
H2454 C2439 0.961 . S
H2455 C2439 0.961 . S
H2456 C2440 0.931 . S
H2457 C2445 0.930 . S
H2458 C2446 0.956 . S
H2459 C2446 0.961 . S
H2460 C2446 0.961 . S
H2461 C2447 0.958 . S
H2462 C2447 0.961 . S
H2463 C2447 0.960 . S
C2464 C2465 1.391 . S
C2464 C2466 1.394 1_655 S
C2464 H2480 0.931 . S
C2465 C2464 1.391 . S
C2465 C2469 1.376 1_655 S
C2466 C2464 1.394 1_455 S
C2466 C2467 1.369 . S
C2466 C2470 1.531 . S
C2467 C2466 1.369 . S
C2467 C2468 1.410 . S
C2467 C2475 1.503 . S
C2468 C2467 1.410 . S
C2468 C2469 1.392 . S
C2468 C2471 1.511 . S
C2469 C2465 1.376 1_455 S
C2469 C2468 1.392 . S
C2469 H2481 0.929 . S
C2470 C2466 1.531 . S
C2470 H2482 0.960 . S
C2470 H2483 0.962 . S
C2470 H2484 0.960 . S
C2471 C2468 1.511 . S
C2471 H2485 0.961 . S
C2471 H2486 0.961 . S
C2471 H2487 0.961 . S
C2472 C2473 1.370 . S
C2472 C2474 1.363 . S
C2472 H2488 0.931 . S
C2473 C2472 1.370 . S
C2473 C2477 1.408 . S
C2474 C2472 1.363 . S
C2474 C2475 1.370 . S
C2474 C2478 1.524 . S
C2475 C2467 1.503 . S
C2475 C2474 1.370 . S
C2475 C2476 1.403 . S
C2476 C2475 1.403 . S
C2476 C2477 1.404 . S
C2476 C2479 1.539 . S
C2477 C2473 1.408 . S
C2477 C2476 1.404 . S
C2477 H2489 0.930 . S
C2478 C2474 1.524 . S
C2478 H2490 0.956 . S
C2478 H2491 0.961 . S
C2478 H2492 0.961 . S
C2479 C2476 1.539 . S
C2479 H2493 0.958 . S
C2479 H2494 0.961 . S
C2479 H2495 0.960 . S
H2480 C2464 0.931 . S
H2481 C2469 0.929 . S
H2482 C2470 0.960 . S
H2483 C2470 0.962 . S
H2484 C2470 0.960 . S
H2485 C2471 0.961 . S
H2486 C2471 0.961 . S
H2487 C2471 0.961 . S
H2488 C2472 0.931 . S
H2489 C2477 0.930 . S
H2490 C2478 0.956 . S
H2491 C2478 0.961 . S
H2492 C2478 0.961 . S
H2493 C2479 0.958 . S
H2494 C2479 0.961 . S
H2495 C2479 0.960 . S
C2496 C2497 1.391 . S
C2496 C2498 1.394 . S
C2496 H2512 0.931 . S
C2497 C2496 1.391 . S
C2497 C2501 1.376 . S
C2498 C2496 1.394 . S
C2498 C2499 1.369 . S
C2498 C2502 1.531 . S
C2499 C2498 1.369 . S
C2499 C2500 1.410 . S
C2499 C2507 1.503 . S
C2500 C2499 1.410 . S
C2500 C2501 1.392 . S
C2500 C2503 1.511 . S
C2501 C2497 1.376 . S
C2501 C2500 1.392 . S
C2501 H2513 0.929 . S
C2502 C2498 1.531 . S
C2502 H2514 0.960 . S
C2502 H2515 0.962 . S
C2502 H2516 0.960 . S
C2503 C2500 1.511 . S
C2503 H2517 0.961 . S
C2503 H2518 0.961 . S
C2503 H2519 0.961 . S
C2504 C2505 1.370 . S
C2504 C2506 1.363 . S
C2504 H2520 0.931 . S
C2505 C2504 1.370 . S
C2505 C2509 1.408 . S
C2506 C2504 1.363 . S
C2506 C2507 1.370 . S
C2506 C2510 1.524 . S
C2507 C2499 1.503 . S
C2507 C2506 1.370 . S
C2507 C2508 1.403 . S
C2508 C2507 1.403 . S
C2508 C2509 1.404 . S
C2508 C2511 1.539 . S
C2509 C2505 1.408 . S
C2509 C2508 1.404 . S
C2509 H2521 0.930 . S
C2510 C2506 1.524 . S
C2510 H2522 0.956 . S
C2510 H2523 0.961 . S
C2510 H2524 0.961 . S
C2511 C2508 1.539 . S
C2511 H2525 0.958 . S
C2511 H2526 0.961 . S
C2511 H2527 0.960 . S
H2512 C2496 0.931 . S
H2513 C2501 0.929 . S
H2514 C2502 0.960 . S
H2515 C2502 0.962 . S
H2516 C2502 0.960 . S
H2517 C2503 0.961 . S
H2518 C2503 0.961 . S
H2519 C2503 0.961 . S
H2520 C2504 0.931 . S
H2521 C2509 0.930 . S
H2522 C2510 0.956 . S
H2523 C2510 0.961 . S
H2524 C2510 0.961 . S
H2525 C2511 0.958 . S
H2526 C2511 0.961 . S
H2527 C2511 0.960 . S
C2528 C2529 1.391 . S
C2528 C2530 1.394 . S
C2528 H2544 0.931 . S
C2529 C2528 1.391 . S
C2529 C2533 1.376 . S
C2530 C2528 1.394 . S
C2530 C2531 1.369 . S
C2530 C2534 1.531 . S
C2531 C2530 1.369 . S
C2531 C2532 1.410 . S
C2531 C2539 1.503 . S
C2532 C2531 1.410 . S
C2532 C2533 1.392 . S
C2532 C2535 1.511 . S
C2533 C2529 1.376 . S
C2533 C2532 1.392 . S
C2533 H2545 0.929 . S
C2534 C2530 1.531 . S
C2534 H2546 0.960 . S
C2534 H2547 0.962 . S
C2534 H2548 0.960 . S
C2535 C2532 1.511 . S
C2535 H2549 0.961 . S
C2535 H2550 0.961 . S
C2535 H2551 0.961 . S
C2536 C2537 1.370 . S
C2536 C2538 1.363 . S
C2536 H2552 0.931 . S
C2537 C2536 1.370 . S
C2537 C2541 1.408 . S
C2538 C2536 1.363 . S
C2538 C2539 1.370 . S
C2538 C2542 1.524 . S
C2539 C2531 1.503 . S
C2539 C2538 1.370 . S
C2539 C2540 1.403 . S
C2540 C2539 1.403 . S
C2540 C2541 1.404 . S
C2540 C2543 1.539 . S
C2541 C2537 1.408 . S
C2541 C2540 1.404 . S
C2541 H2553 0.930 . S
C2542 C2538 1.524 . S
C2542 H2554 0.956 . S
C2542 H2555 0.961 . S
C2542 H2556 0.961 . S
C2543 C2540 1.539 . S
C2543 H2557 0.958 . S
C2543 H2558 0.961 . S
C2543 H2559 0.960 . S
H2544 C2528 0.931 . S
H2545 C2533 0.929 . S
H2546 C2534 0.960 . S
H2547 C2534 0.962 . S
H2548 C2534 0.960 . S
H2549 C2535 0.961 . S
H2550 C2535 0.961 . S
H2551 C2535 0.961 . S
H2552 C2536 0.931 . S
H2553 C2541 0.930 . S
H2554 C2542 0.956 . S
H2555 C2542 0.961 . S
H2556 C2542 0.961 . S
H2557 C2543 0.958 . S
H2558 C2543 0.961 . S
H2559 C2543 0.960 . S
C2560 C2561 1.391 . S
C2560 C2562 1.394 . S
C2560 H2576 0.931 . S
C2561 C2560 1.391 . S
C2561 C2565 1.376 . S
C2562 C2560 1.394 . S
C2562 C2563 1.369 . S
C2562 C2566 1.531 . S
C2563 C2562 1.369 . S
C2563 C2564 1.410 . S
C2563 C2571 1.503 . S
C2564 C2563 1.410 . S
C2564 C2565 1.392 . S
C2564 C2567 1.511 . S
C2565 C2561 1.376 . S
C2565 C2564 1.392 . S
C2565 H2577 0.929 . S
C2566 C2562 1.531 . S
C2566 H2578 0.960 . S
C2566 H2579 0.962 . S
C2566 H2580 0.960 . S
C2567 C2564 1.511 . S
C2567 H2581 0.961 . S
C2567 H2582 0.961 . S
C2567 H2583 0.961 . S
C2568 C2569 1.370 . S
C2568 C2570 1.363 . S
C2568 H2584 0.931 . S
C2569 C2568 1.370 . S
C2569 C2573 1.408 . S
C2570 C2568 1.363 . S
C2570 C2571 1.370 . S
C2570 C2574 1.524 . S
C2571 C2563 1.503 . S
C2571 C2570 1.370 . S
C2571 C2572 1.403 . S
C2572 C2571 1.403 . S
C2572 C2573 1.404 . S
C2572 C2575 1.539 . S
C2573 C2569 1.408 . S
C2573 C2572 1.404 . S
C2573 H2585 0.930 . S
C2574 C2570 1.524 . S
C2574 H2586 0.956 . S
C2574 H2587 0.961 . S
C2574 H2588 0.961 . S
C2575 C2572 1.539 . S
C2575 H2589 0.958 . S
C2575 H2590 0.961 . S
C2575 H2591 0.960 . S
H2576 C2560 0.931 . S
H2577 C2565 0.929 . S
H2578 C2566 0.960 . S
H2579 C2566 0.962 . S
H2580 C2566 0.960 . S
H2581 C2567 0.961 . S
H2582 C2567 0.961 . S
H2583 C2567 0.961 . S
H2584 C2568 0.931 . S
H2585 C2573 0.930 . S
H2586 C2574 0.956 . S
H2587 C2574 0.961 . S
H2588 C2574 0.961 . S
H2589 C2575 0.958 . S
H2590 C2575 0.961 . S
H2591 C2575 0.960 . S
C2592 C2593 1.391 . S
C2592 C2594 1.394 . S
C2592 H2608 0.931 . S
C2593 C2592 1.391 . S
C2593 C2597 1.376 . S
C2594 C2592 1.394 . S
C2594 C2595 1.369 . S
C2594 C2598 1.531 . S
C2595 C2594 1.369 . S
C2595 C2596 1.410 . S
C2595 C2603 1.503 . S
C2596 C2595 1.410 . S
C2596 C2597 1.392 . S
C2596 C2599 1.511 . S
C2597 C2593 1.376 . S
C2597 C2596 1.392 . S
C2597 H2609 0.929 . S
C2598 C2594 1.531 . S
C2598 H2610 0.960 . S
C2598 H2611 0.962 . S
C2598 H2612 0.960 . S
C2599 C2596 1.511 . S
C2599 H2613 0.961 . S
C2599 H2614 0.961 . S
C2599 H2615 0.961 . S
C2600 C2601 1.370 . S
C2600 C2602 1.363 1_455 S
C2600 H2616 0.931 . S
C2601 C2600 1.370 . S
C2601 C2605 1.408 . S
C2602 C2600 1.363 1_655 S
C2602 C2603 1.370 . S
C2602 C2606 1.524 . S
C2603 C2595 1.503 . S
C2603 C2602 1.370 . S
C2603 C2604 1.403 . S
C2604 C2603 1.403 . S
C2604 C2605 1.404 1_655 S
C2604 C2607 1.539 . S
C2605 C2601 1.408 . S
C2605 C2604 1.404 1_455 S
C2605 H2617 0.930 . S
C2606 C2602 1.524 . S
C2606 H2618 0.956 . S
C2606 H2619 0.961 . S
C2606 H2620 0.961 . S
C2607 C2604 1.539 . S
C2607 H2621 0.958 . S
C2607 H2622 0.961 . S
C2607 H2623 0.960 . S
H2608 C2592 0.931 . S
H2609 C2597 0.929 . S
H2610 C2598 0.960 . S
H2611 C2598 0.962 . S
H2612 C2598 0.960 . S
H2613 C2599 0.961 . S
H2614 C2599 0.961 . S
H2615 C2599 0.961 . S
H2616 C2600 0.931 . S
H2617 C2605 0.930 . S
H2618 C2606 0.956 . S
H2619 C2606 0.961 . S
H2620 C2606 0.961 . S
H2621 C2607 0.958 . S
H2622 C2607 0.961 . S
H2623 C2607 0.960 . S
C2624 C2625 1.391 . S
C2624 C2626 1.394 . S
C2624 H2640 0.931 . S
C2625 C2624 1.391 . S
C2625 C2629 1.376 . S
C2626 C2624 1.394 . S
C2626 C2627 1.369 . S
C2626 C2630 1.531 . S
C2627 C2626 1.369 . S
C2627 C2628 1.410 . S
C2627 C2635 1.503 . S
C2628 C2627 1.410 . S
C2628 C2629 1.392 . S
C2628 C2631 1.511 . S
C2629 C2625 1.376 . S
C2629 C2628 1.392 . S
C2629 H2641 0.929 . S
C2630 C2626 1.531 . S
C2630 H2642 0.960 . S
C2630 H2643 0.962 . S
C2630 H2644 0.960 . S
C2631 C2628 1.511 . S
C2631 H2645 0.961 . S
C2631 H2646 0.961 . S
C2631 H2647 0.961 . S
C2632 C2633 1.370 . S
C2632 C2634 1.363 . S
C2632 H2648 0.931 . S
C2633 C2632 1.370 . S
C2633 C2637 1.408 . S
C2634 C2632 1.363 . S
C2634 C2635 1.370 . S
C2634 C2638 1.524 . S
C2635 C2627 1.503 . S
C2635 C2634 1.370 . S
C2635 C2636 1.403 . S
C2636 C2635 1.403 . S
C2636 C2637 1.404 . S
C2636 C2639 1.539 . S
C2637 C2633 1.408 . S
C2637 C2636 1.404 . S
C2637 H2649 0.930 . S
C2638 C2634 1.524 . S
C2638 H2650 0.956 . S
C2638 H2651 0.961 . S
C2638 H2652 0.961 . S
C2639 C2636 1.539 . S
C2639 H2653 0.958 . S
C2639 H2654 0.961 . S
C2639 H2655 0.960 . S
H2640 C2624 0.931 . S
H2641 C2629 0.929 . S
H2642 C2630 0.960 . S
H2643 C2630 0.962 . S
H2644 C2630 0.960 . S
H2645 C2631 0.961 . S
H2646 C2631 0.961 . S
H2647 C2631 0.961 . S
H2648 C2632 0.931 . S
H2649 C2637 0.930 . S
H2650 C2638 0.956 . S
H2651 C2638 0.961 . S
H2652 C2638 0.961 . S
H2653 C2639 0.958 . S
H2654 C2639 0.961 . S
H2655 C2639 0.960 . S
C2656 C2657 1.391 . S
C2656 C2658 1.394 . S
C2656 H2672 0.931 . S
C2657 C2656 1.391 . S
C2657 C2661 1.376 . S
C2658 C2656 1.394 . S
C2658 C2659 1.369 . S
C2658 C2662 1.531 . S
C2659 C2658 1.369 . S
C2659 C2660 1.410 . S
C2659 C2667 1.503 . S
C2660 C2659 1.410 . S
C2660 C2661 1.392 . S
C2660 C2663 1.511 . S
C2661 C2657 1.376 . S
C2661 C2660 1.392 . S
C2661 H2673 0.929 . S
C2662 C2658 1.531 . S
C2662 H2674 0.960 . S
C2662 H2675 0.962 . S
C2662 H2676 0.960 . S
C2663 C2660 1.511 . S
C2663 H2677 0.961 . S
C2663 H2678 0.961 . S
C2663 H2679 0.961 . S
C2664 C2665 1.370 . S
C2664 C2666 1.363 1_455 S
C2664 H2680 0.931 . S
C2665 C2664 1.370 . S
C2665 C2669 1.408 1_465 S
C2666 C2664 1.363 1_655 S
C2666 C2667 1.370 . S
C2666 C2670 1.524 . S
C2667 C2659 1.503 . S
C2667 C2666 1.370 . S
C2667 C2668 1.403 1_565 S
C2668 C2667 1.403 1_545 S
C2668 C2669 1.404 . S
C2668 C2671 1.539 . S
C2669 C2665 1.408 1_645 S
C2669 C2668 1.404 . S
C2669 H2681 0.926 1_655 S
C2670 C2666 1.524 . S
C2670 H2682 0.956 . S
C2670 H2683 0.961 . S
C2670 H2684 0.961 . S
C2671 C2668 1.539 . S
C2671 H2685 0.958 . S
C2671 H2686 0.961 . S
C2671 H2687 0.960 . S
H2672 C2656 0.931 . S
H2673 C2661 0.929 . S
H2674 C2662 0.960 . S
H2675 C2662 0.962 . S
H2676 C2662 0.960 . S
H2677 C2663 0.961 . S
H2678 C2663 0.961 . S
H2679 C2663 0.961 . S
H2680 C2664 0.931 . S
H2681 C2669 0.926 1_455 S
H2682 C2670 0.956 . S
H2683 C2670 0.961 . S
H2684 C2670 0.961 . S
H2685 C2671 0.958 . S
H2686 C2671 0.961 . S
H2687 C2671 0.960 . S
C2688 C2689 1.391 . S
C2688 C2690 1.394 . S
C2688 H2704 0.931 . S
C2689 C2688 1.391 . S
C2689 C2693 1.376 . S
C2690 C2688 1.394 . S
C2690 C2691 1.369 . S
C2690 C2694 1.531 . S
C2691 C2690 1.369 . S
C2691 C2692 1.410 . S
C2691 C2699 1.503 . S
C2692 C2691 1.410 . S
C2692 C2693 1.392 . S
C2692 C2695 1.511 . S
C2693 C2689 1.376 . S
C2693 C2692 1.392 . S
C2693 H2705 0.929 . S
C2694 C2690 1.531 . S
C2694 H2706 0.960 . S
C2694 H2707 0.962 . S
C2694 H2708 0.960 . S
C2695 C2692 1.511 . S
C2695 H2709 0.961 . S
C2695 H2710 0.961 . S
C2695 H2711 0.961 . S
C2696 C2697 1.370 . S
C2696 C2698 1.363 . S
C2696 H2712 0.931 . S
C2697 C2696 1.370 . S
C2697 C2701 1.408 . S
C2698 C2696 1.363 . S
C2698 C2699 1.370 . S
C2698 C2702 1.524 . S
C2699 C2691 1.503 . S
C2699 C2698 1.370 . S
C2699 C2700 1.403 . S
C2700 C2699 1.403 . S
C2700 C2701 1.404 . S
C2700 C2703 1.539 . S
C2701 C2697 1.408 . S
C2701 C2700 1.404 . S
C2701 H2713 0.930 . S
C2702 C2698 1.524 . S
C2702 H2714 0.956 . S
C2702 H2715 0.961 . S
C2702 H2716 0.961 . S
C2703 C2700 1.539 . S
C2703 H2717 0.958 . S
C2703 H2718 0.961 . S
C2703 H2719 0.960 . S
H2704 C2688 0.931 . S
H2705 C2693 0.929 . S
H2706 C2694 0.960 . S
H2707 C2694 0.962 . S
H2708 C2694 0.960 . S
H2709 C2695 0.961 . S
H2710 C2695 0.961 . S
H2711 C2695 0.961 . S
H2712 C2696 0.931 . S
H2713 C2701 0.930 . S
H2714 C2702 0.956 . S
H2715 C2702 0.961 . S
H2716 C2702 0.961 . S
H2717 C2703 0.958 . S
H2718 C2703 0.961 . S
H2719 C2703 0.960 . S
C2720 C2721 1.391 . S
C2720 C2722 1.394 . S
C2720 H2736 0.931 . S
C2721 C2720 1.391 . S
C2721 C2725 1.376 1_545 S
C2722 C2720 1.394 . S
C2722 C2723 1.369 . S
C2722 C2726 1.531 . S
C2723 C2722 1.369 . S
C2723 C2724 1.410 1_545 S
C2723 C2731 1.503 . S
C2724 C2723 1.410 1_565 S
C2724 C2725 1.392 . S
C2724 C2727 1.511 . S
C2725 C2721 1.376 1_565 S
C2725 C2724 1.392 . S
C2725 H2737 0.929 . S
C2726 C2722 1.531 . S
C2726 H2738 0.960 . S
C2726 H2739 0.962 . S
C2726 H2740 0.960 . S
C2727 C2724 1.511 . S
C2727 H2741 0.961 . S
C2727 H2742 0.961 . S
C2727 H2743 0.961 . S
C2728 C2729 1.370 . S
C2728 C2730 1.363 . S
C2728 H2744 0.931 . S
C2729 C2728 1.370 . S
C2729 C2733 1.408 . S
C2730 C2728 1.363 . S
C2730 C2731 1.370 . S
C2730 C2734 1.524 . S
C2731 C2723 1.503 . S
C2731 C2730 1.370 . S
C2731 C2732 1.403 . S
C2732 C2731 1.403 . S
C2732 C2733 1.404 . S
C2732 C2735 1.539 . S
C2733 C2729 1.408 . S
C2733 C2732 1.404 . S
C2733 H2745 0.930 . S
C2734 C2730 1.524 . S
C2734 H2746 0.956 . S
C2734 H2747 0.961 . S
C2734 H2748 0.961 . S
C2735 C2732 1.539 . S
C2735 H2749 0.958 . S
C2735 H2750 0.961 . S
C2735 H2751 0.960 . S
H2736 C2720 0.931 . S
H2737 C2725 0.929 . S
H2738 C2726 0.960 . S
H2739 C2726 0.962 . S
H2740 C2726 0.960 . S
H2741 C2727 0.961 . S
H2742 C2727 0.961 . S
H2743 C2727 0.961 . S
H2744 C2728 0.931 . S
H2745 C2733 0.930 . S
H2746 C2734 0.956 . S
H2747 C2734 0.961 . S
H2748 C2734 0.961 . S
H2749 C2735 0.958 . S
H2750 C2735 0.961 . S
H2751 C2735 0.960 . S
C2752 C2753 1.391 . S
C2752 C2754 1.394 . S
C2752 H2768 0.931 . S
C2753 C2752 1.391 . S
C2753 C2757 1.376 . S
C2754 C2752 1.394 . S
C2754 C2755 1.369 . S
C2754 C2758 1.531 . S
C2755 C2754 1.369 . S
C2755 C2756 1.410 . S
C2755 C2763 1.503 . S
C2756 C2755 1.410 . S
C2756 C2757 1.392 . S
C2756 C2759 1.511 . S
C2757 C2753 1.376 . S
C2757 C2756 1.392 . S
C2757 H2769 0.929 . S
C2758 C2754 1.531 . S
C2758 H2770 0.960 . S
C2758 H2771 0.962 . S
C2758 H2772 0.960 . S
C2759 C2756 1.511 . S
C2759 H2773 0.961 . S
C2759 H2774 0.961 . S
C2759 H2775 0.961 . S
C2760 C2761 1.370 . S
C2760 C2762 1.363 . S
C2760 H2776 0.931 . S
C2761 C2760 1.370 . S
C2761 C2765 1.408 . S
C2762 C2760 1.363 . S
C2762 C2763 1.370 . S
C2762 C2766 1.524 . S
C2763 C2755 1.503 . S
C2763 C2762 1.370 . S
C2763 C2764 1.403 . S
C2764 C2763 1.403 . S
C2764 C2765 1.404 . S
C2764 C2767 1.539 . S
C2765 C2761 1.408 . S
C2765 C2764 1.404 . S
C2765 H2777 0.930 . S
C2766 C2762 1.524 . S
C2766 H2778 0.956 . S
C2766 H2779 0.961 . S
C2766 H2780 0.961 . S
C2767 C2764 1.539 . S
C2767 H2781 0.958 . S
C2767 H2782 0.961 . S
C2767 H2783 0.960 . S
H2768 C2752 0.931 . S
H2769 C2757 0.929 . S
H2770 C2758 0.960 . S
H2771 C2758 0.962 . S
H2772 C2758 0.960 . S
H2773 C2759 0.961 . S
H2774 C2759 0.961 . S
H2775 C2759 0.961 . S
H2776 C2760 0.931 . S
H2777 C2765 0.930 . S
H2778 C2766 0.956 . S
H2779 C2766 0.961 . S
H2780 C2766 0.961 . S
H2781 C2767 0.958 . S
H2782 C2767 0.961 . S
H2783 C2767 0.960 . S
C2784 C2785 1.391 . S
C2784 C2786 1.394 1_655 S
C2784 H2800 0.931 . S
C2785 C2784 1.391 . S
C2785 C2789 1.376 1_645 S
C2786 C2784 1.394 1_455 S
C2786 C2787 1.369 . S
C2786 C2790 1.531 . S
C2787 C2786 1.369 . S
C2787 C2788 1.410 1_545 S
C2787 C2795 1.503 . S
C2788 C2787 1.410 1_565 S
C2788 C2789 1.392 . S
C2788 C2791 1.511 . S
C2789 C2785 1.376 1_465 S
C2789 C2788 1.392 . S
C2789 H2801 0.929 . S
C2790 C2786 1.531 . S
C2790 H2802 0.960 . S
C2790 H2803 0.962 . S
C2790 H2804 0.960 . S
C2791 C2788 1.511 . S
C2791 H2805 0.961 . S
C2791 H2806 0.961 . S
C2791 H2807 0.961 . S
C2792 C2793 1.370 . S
C2792 C2794 1.363 . S
C2792 H2808 0.931 . S
C2793 C2792 1.370 . S
C2793 C2797 1.408 . S
C2794 C2792 1.363 . S
C2794 C2795 1.370 . S
C2794 C2798 1.524 . S
C2795 C2787 1.503 . S
C2795 C2794 1.370 . S
C2795 C2796 1.403 . S
C2796 C2795 1.403 . S
C2796 C2797 1.404 . S
C2796 C2799 1.539 . S
C2797 C2793 1.408 . S
C2797 C2796 1.404 . S
C2797 H2809 0.930 . S
C2798 C2794 1.524 . S
C2798 H2810 0.956 . S
C2798 H2811 0.961 . S
C2798 H2812 0.961 . S
C2799 C2796 1.539 . S
C2799 H2813 0.958 . S
C2799 H2814 0.961 . S
C2799 H2815 0.960 . S
H2800 C2784 0.931 . S
H2801 C2789 0.929 . S
H2802 C2790 0.960 . S
H2803 C2790 0.962 . S
H2804 C2790 0.960 . S
H2805 C2791 0.961 . S
H2806 C2791 0.961 . S
H2807 C2791 0.961 . S
H2808 C2792 0.931 . S
H2809 C2797 0.930 . S
H2810 C2798 0.956 . S
H2811 C2798 0.961 . S
H2812 C2798 0.961 . S
H2813 C2799 0.958 . S
H2814 C2799 0.961 . S
H2815 C2799 0.960 . S
C2816 C2817 1.391 . S
C2816 C2818 1.394 . S
C2816 H2832 0.931 . S
C2817 C2816 1.391 . S
C2817 C2821 1.376 . S
C2818 C2816 1.394 . S
C2818 C2819 1.369 . S
C2818 C2822 1.531 . S
C2819 C2818 1.369 . S
C2819 C2820 1.410 . S
C2819 C2827 1.503 . S
C2820 C2819 1.410 . S
C2820 C2821 1.392 . S
C2820 C2823 1.511 . S
C2821 C2817 1.376 . S
C2821 C2820 1.392 . S
C2821 H2833 0.929 . S
C2822 C2818 1.531 . S
C2822 H2834 0.960 . S
C2822 H2835 0.962 . S
C2822 H2836 0.960 . S
C2823 C2820 1.511 . S
C2823 H2837 0.961 . S
C2823 H2838 0.961 . S
C2823 H2839 0.961 . S
C2824 C2825 1.370 . S
C2824 C2826 1.363 . S
C2824 H2840 0.931 . S
C2825 C2824 1.370 . S
C2825 C2829 1.408 . S
C2826 C2824 1.363 . S
C2826 C2827 1.370 . S
C2826 C2830 1.524 . S
C2827 C2819 1.503 . S
C2827 C2826 1.370 . S
C2827 C2828 1.403 . S
C2828 C2827 1.403 . S
C2828 C2829 1.404 . S
C2828 C2831 1.539 . S
C2829 C2825 1.408 . S
C2829 C2828 1.404 . S
C2829 H2841 0.930 . S
C2830 C2826 1.524 . S
C2830 H2842 0.956 . S
C2830 H2843 0.961 . S
C2830 H2844 0.961 . S
C2831 C2828 1.539 . S
C2831 H2845 0.958 . S
C2831 H2846 0.961 . S
C2831 H2847 0.960 . S
H2832 C2816 0.931 . S
H2833 C2821 0.929 . S
H2834 C2822 0.960 . S
H2835 C2822 0.962 . S
H2836 C2822 0.960 . S
H2837 C2823 0.961 . S
H2838 C2823 0.961 . S
H2839 C2823 0.961 . S
H2840 C2824 0.931 . S
H2841 C2829 0.930 . S
H2842 C2830 0.956 . S
H2843 C2830 0.961 . S
H2844 C2830 0.961 . S
H2845 C2831 0.958 . S
H2846 C2831 0.961 . S
H2847 C2831 0.960 . S
C2848 C2849 1.391 . S
C2848 C2850 1.394 . S
C2848 H2864 0.931 . S
C2849 C2848 1.391 . S
C2849 C2853 1.376 . S
C2850 C2848 1.394 . S
C2850 C2851 1.369 . S
C2850 C2854 1.531 . S
C2851 C2850 1.369 . S
C2851 C2852 1.410 . S
C2851 C2859 1.503 . S
C2852 C2851 1.410 . S
C2852 C2853 1.392 . S
C2852 C2855 1.511 . S
C2853 C2849 1.376 . S
C2853 C2852 1.392 . S
C2853 H2865 0.929 . S
C2854 C2850 1.531 . S
C2854 H2866 0.960 . S
C2854 H2867 0.962 . S
C2854 H2868 0.960 . S
C2855 C2852 1.511 . S
C2855 H2869 0.961 . S
C2855 H2870 0.961 . S
C2855 H2871 0.961 1_565 S
C2856 C2857 1.370 . S
C2856 C2858 1.363 . S
C2856 H2872 0.931 . S
C2857 C2856 1.370 . S
C2857 C2861 1.408 1_565 S
C2858 C2856 1.363 . S
C2858 C2859 1.370 . S
C2858 C2862 1.524 . S
C2859 C2851 1.503 . S
C2859 C2858 1.370 . S
C2859 C2860 1.403 1_565 S
C2860 C2859 1.403 1_545 S
C2860 C2861 1.404 . S
C2860 C2863 1.539 . S
C2861 C2857 1.408 1_545 S
C2861 C2860 1.404 . S
C2861 H2873 0.930 . S
C2862 C2858 1.524 . S
C2862 H2874 0.956 . S
C2862 H2875 0.961 . S
C2862 H2876 0.961 . S
C2863 C2860 1.539 . S
C2863 H2877 0.958 . S
C2863 H2878 0.961 . S
C2863 H2879 0.960 . S
H2864 C2848 0.931 . S
H2865 C2853 0.929 . S
H2866 C2854 0.960 . S
H2867 C2854 0.962 . S
H2868 C2854 0.960 . S
H2869 C2855 0.961 . S
H2870 C2855 0.961 . S
H2871 C2855 0.961 1_545 S
H2872 C2856 0.931 . S
H2873 C2861 0.930 . S
H2874 C2862 0.956 . S
H2875 C2862 0.961 . S
H2876 C2862 0.961 . S
H2877 C2863 0.958 . S
H2878 C2863 0.961 . S
H2879 C2863 0.960 . S
C1345 C58 1.170 . S
C1353 C1077 1.255 . S
C1377 C489 1.244 . S
C1385 C142 1.214 . S
C1409 C226 1.168 . S
C1417 C1245 1.184 . S
C1441 C321 1.060 . S
C1449 C646 1.160 . S
C1473 C405 1.229 . S
C1481 C730 1.228 . S
C1505 C898 1.155 . S
C1513 C573 1.198 . S
C1537 C1161 1.180 . S
C1545 C814 1.233 . S
C1569 C993 1.084 . S
C1577 C1318 1.155 . S
C1601 C823 2.263 . S
C1609 C69 2.142 . S
C1633 C153 2.188 . S
C1641 C907 2.262 . S
C1665 C237 2.094 . S
C1673 C998 2.308 . S
C1697 C739 2.296 . S
C1705 C310 2.328 . S
C1729 C1148 2.273 . S
C1737 C394 2.140 . S
C1761 C1232 2.288 . S
C1769 C478 2.152 . S
C1793 C562 2.129 . S
C1801 C1323 2.303 . S
C1825 C1064 2.261 . S
C1833 C657 2.343 . S
C1857 C741 2.143 . S
C1865 C151 2.258 . S
C1889 C825 2.143 1_565 S
C1897 C235 2.274 . S
C1921 C909 2.110 . S
C1929 C326 2.307 . S
C1953 C67 2.290 . S
C1961 C982 2.349 . S
C1985 C476 2.234 . S
C1993 C1066 2.159 . S
C2017 C1150 2.189 1_545 S
C2025 C560 2.261 . S
C2049 C651 2.314 . S
C2057 C1234 2.117 . S
C2081 C1329 2.347 . S
C2089 C392 2.290 . S
C2113 C63 2.348 . S
C2121 C903 2.362 . S
C2145 C147 2.387 . S
C2153 C980 2.430 . S
C2177 C735 2.376 . S
C2185 C231 2.374 . S
C2209 C308 2.425 . S
C2217 C819 2.375 . S
C2241 C410 2.379 . S
C2249 C1250 2.374 . S
C2273 C494 2.387 . S
C2281 C1327 2.427 . S
C2305 C1082 2.344 . S
C2313 C578 2.360 . S
C2337 C655 2.419 . S
C2345 C1166 2.372 . S
C2369 C56 1.503 . S
C2377 C644 1.567 . S
C2401 C1071 1.565 . S
C2409 C140 1.466 . S
C2433 C224 1.532 . S
C2441 C483 1.553 . S
C2465 C315 1.344 . S
C2473 C1239 1.577 . S
C2497 C403 1.495 . S
C2505 C319 1.572 . S
C2529 C746 1.550 . S
C2537 C487 1.469 . S
C2561 C571 1.539 . S
C2569 C158 1.557 . S
C2593 C914 1.590 . S
C2601 C662 1.380 . S
C2625 C728 1.420 . S
C2633 C1316 1.570 . S
C2657 C399 1.543 . S
C2665 C812 1.485 1_565 S
C2689 C1155 1.573 . S
C2697 C896 1.493 . S
C2721 C987 1.344 1_545 S
C2729 C567 1.577 . S
C2753 C1075 1.499 . S
C2761 C991 1.570 . S
C2785 C1159 1.520 1_545 S
C2793 C74 1.531 . S
C2817 C830 1.540 . S
C2825 C1243 1.507 . S
C2849 C242 1.582 . S
C2857 C1334 1.388 1_565 S
