# Generated by pormake.
# Topology ukd, (4)-cn, num edge types: 1
# Building blocks:
#     Node 0, Type 0, BuildingBlock: QUQFOY_clean_sbu_1, # of connection points: 4
#     Node 1, Type 0, BuildingBlock: QUQFOY_clean_sbu_1, # of connection points: 4
#     Node 2, Type 0, BuildingBlock: QUQFOY_clean_sbu_1, # of connection points: 4
#     Node 3, Type 0, BuildingBlock: QUQFOY_clean_sbu_1, # of connection points: 4
#     Node 4, Type 0, BuildingBlock: QUQFOY_clean_sbu_1, # of connection points: 4
#     Node 5, Type 0, BuildingBlock: QUQFOY_clean_sbu_1, # of connection points: 4
#     Node 6, Type 0, BuildingBlock: QUQFOY_clean_sbu_1, # of connection points: 4
#     Node 7, Type 0, BuildingBlock: QUQFOY_clean_sbu_1, # of connection points: 4
#     Node 8, Type 0, BuildingBlock: QUQFOY_clean_sbu_1, # of connection points: 4
#     Node 9, Type 0, BuildingBlock: QUQFOY_clean_sbu_1, # of connection points: 4
#     Node 10, Type 0, BuildingBlock: QUQFOY_clean_sbu_1, # of connection points: 4
#     Node 11, Type 0, BuildingBlock: QUQFOY_clean_sbu_1, # of connection points: 4
#     Node 12, Type 0, BuildingBlock: QUQFOY_clean_sbu_1, # of connection points: 4
#     Node 13, Type 0, BuildingBlock: QUQFOY_clean_sbu_1, # of connection points: 4
#     Node 14, Type 0, BuildingBlock: QUQFOY_clean_sbu_1, # of connection points: 4
#     Node 15, Type 0, BuildingBlock: QUQFOY_clean_sbu_1, # of connection points: 4
#     Node 16, Type 0, BuildingBlock: QUQFOY_clean_sbu_1, # of connection points: 4
#     Node 17, Type 0, BuildingBlock: QUQFOY_clean_sbu_1, # of connection points: 4
#     Node 18, Type 0, BuildingBlock: QUQFOY_clean_sbu_1, # of connection points: 4
#     Node 19, Type 0, BuildingBlock: QUQFOY_clean_sbu_1, # of connection points: 4
#     Node 20, Type 0, BuildingBlock: QUQFOY_clean_sbu_1, # of connection points: 4
#     Node 21, Type 0, BuildingBlock: QUQFOY_clean_sbu_1, # of connection points: 4
#     Node 22, Type 0, BuildingBlock: QUQFOY_clean_sbu_1, # of connection points: 4
#     Node 23, Type 0, BuildingBlock: QUQFOY_clean_sbu_1, # of connection points: 4
#     Node 24, Type 0, BuildingBlock: QUQFOY_clean_sbu_1, # of connection points: 4
#     Node 25, Type 0, BuildingBlock: QUQFOY_clean_sbu_1, # of connection points: 4
#     Node 26, Type 0, BuildingBlock: QUQFOY_clean_sbu_1, # of connection points: 4
#     Node 27, Type 0, BuildingBlock: QUQFOY_clean_sbu_1, # of connection points: 4
#     Node 28, Type 0, BuildingBlock: QUQFOY_clean_sbu_1, # of connection points: 4
#     Node 29, Type 0, BuildingBlock: QUQFOY_clean_sbu_1, # of connection points: 4
#     Node 30, Type 0, BuildingBlock: QUQFOY_clean_sbu_1, # of connection points: 4
#     Node 31, Type 0, BuildingBlock: QUQFOY_clean_sbu_1, # of connection points: 4
#     Edge 32, Type (0, 0), BuildingBlock: XIVTED_clean_linker_0, # of connection points: 2
#     Edge 33, Type (0, 0), BuildingBlock: XIVTED_clean_linker_0, # of connection points: 2
#     Edge 34, Type (0, 0), BuildingBlock: XIVTED_clean_linker_0, # of connection points: 2
#     Edge 35, Type (0, 0), BuildingBlock: XIVTED_clean_linker_0, # of connection points: 2
#     Edge 36, Type (0, 0), BuildingBlock: XIVTED_clean_linker_0, # of connection points: 2
#     Edge 37, Type (0, 0), BuildingBlock: XIVTED_clean_linker_0, # of connection points: 2
#     Edge 38, Type (0, 0), BuildingBlock: XIVTED_clean_linker_0, # of connection points: 2
#     Edge 39, Type (0, 0), BuildingBlock: XIVTED_clean_linker_0, # of connection points: 2
#     Edge 40, Type (0, 0), BuildingBlock: XIVTED_clean_linker_0, # of connection points: 2
#     Edge 41, Type (0, 0), BuildingBlock: XIVTED_clean_linker_0, # of connection points: 2
#     Edge 42, Type (0, 0), BuildingBlock: XIVTED_clean_linker_0, # of connection points: 2
#     Edge 43, Type (0, 0), BuildingBlock: XIVTED_clean_linker_0, # of connection points: 2
#     Edge 44, Type (0, 0), BuildingBlock: XIVTED_clean_linker_0, # of connection points: 2
#     Edge 45, Type (0, 0), BuildingBlock: XIVTED_clean_linker_0, # of connection points: 2
#     Edge 46, Type (0, 0), BuildingBlock: XIVTED_clean_linker_0, # of connection points: 2
#     Edge 47, Type (0, 0), BuildingBlock: XIVTED_clean_linker_0, # of connection points: 2
#     Edge 48, Type (0, 0), BuildingBlock: XIVTED_clean_linker_0, # of connection points: 2
#     Edge 49, Type (0, 0), BuildingBlock: XIVTED_clean_linker_0, # of connection points: 2
#     Edge 50, Type (0, 0), BuildingBlock: XIVTED_clean_linker_0, # of connection points: 2
#     Edge 51, Type (0, 0), BuildingBlock: XIVTED_clean_linker_0, # of connection points: 2
#     Edge 52, Type (0, 0), BuildingBlock: XIVTED_clean_linker_0, # of connection points: 2
#     Edge 53, Type (0, 0), BuildingBlock: XIVTED_clean_linker_0, # of connection points: 2
#     Edge 54, Type (0, 0), BuildingBlock: XIVTED_clean_linker_0, # of connection points: 2
#     Edge 55, Type (0, 0), BuildingBlock: XIVTED_clean_linker_0, # of connection points: 2
#     Edge 56, Type (0, 0), BuildingBlock: XIVTED_clean_linker_0, # of connection points: 2
#     Edge 57, Type (0, 0), BuildingBlock: XIVTED_clean_linker_0, # of connection points: 2
#     Edge 58, Type (0, 0), BuildingBlock: XIVTED_clean_linker_0, # of connection points: 2
#     Edge 59, Type (0, 0), BuildingBlock: XIVTED_clean_linker_0, # of connection points: 2
#     Edge 60, Type (0, 0), BuildingBlock: XIVTED_clean_linker_0, # of connection points: 2
#     Edge 61, Type (0, 0), BuildingBlock: XIVTED_clean_linker_0, # of connection points: 2
#     Edge 62, Type (0, 0), BuildingBlock: XIVTED_clean_linker_0, # of connection points: 2
#     Edge 63, Type (0, 0), BuildingBlock: XIVTED_clean_linker_0, # of connection points: 2
#     Edge 64, Type (0, 0), BuildingBlock: XIVTED_clean_linker_0, # of connection points: 2
#     Edge 65, Type (0, 0), BuildingBlock: XIVTED_clean_linker_0, # of connection points: 2
#     Edge 66, Type (0, 0), BuildingBlock: XIVTED_clean_linker_0, # of connection points: 2
#     Edge 67, Type (0, 0), BuildingBlock: XIVTED_clean_linker_0, # of connection points: 2
#     Edge 68, Type (0, 0), BuildingBlock: XIVTED_clean_linker_0, # of connection points: 2
#     Edge 69, Type (0, 0), BuildingBlock: XIVTED_clean_linker_0, # of connection points: 2
#     Edge 70, Type (0, 0), BuildingBlock: XIVTED_clean_linker_0, # of connection points: 2
#     Edge 71, Type (0, 0), BuildingBlock: XIVTED_clean_linker_0, # of connection points: 2
#     Edge 72, Type (0, 0), BuildingBlock: XIVTED_clean_linker_0, # of connection points: 2
#     Edge 73, Type (0, 0), BuildingBlock: XIVTED_clean_linker_0, # of connection points: 2
#     Edge 74, Type (0, 0), BuildingBlock: XIVTED_clean_linker_0, # of connection points: 2
#     Edge 75, Type (0, 0), BuildingBlock: XIVTED_clean_linker_0, # of connection points: 2
#     Edge 76, Type (0, 0), BuildingBlock: XIVTED_clean_linker_0, # of connection points: 2
#     Edge 77, Type (0, 0), BuildingBlock: XIVTED_clean_linker_0, # of connection points: 2
#     Edge 78, Type (0, 0), BuildingBlock: XIVTED_clean_linker_0, # of connection points: 2
#     Edge 79, Type (0, 0), BuildingBlock: XIVTED_clean_linker_0, # of connection points: 2
#     Edge 80, Type (0, 0), BuildingBlock: XIVTED_clean_linker_0, # of connection points: 2
#     Edge 81, Type (0, 0), BuildingBlock: XIVTED_clean_linker_0, # of connection points: 2
#     Edge 82, Type (0, 0), BuildingBlock: XIVTED_clean_linker_0, # of connection points: 2
#     Edge 83, Type (0, 0), BuildingBlock: XIVTED_clean_linker_0, # of connection points: 2
#     Edge 84, Type (0, 0), BuildingBlock: XIVTED_clean_linker_0, # of connection points: 2
#     Edge 85, Type (0, 0), BuildingBlock: XIVTED_clean_linker_0, # of connection points: 2
#     Edge 86, Type (0, 0), BuildingBlock: XIVTED_clean_linker_0, # of connection points: 2
#     Edge 87, Type (0, 0), BuildingBlock: XIVTED_clean_linker_0, # of connection points: 2
#     Edge 88, Type (0, 0), BuildingBlock: XIVTED_clean_linker_0, # of connection points: 2
#     Edge 89, Type (0, 0), BuildingBlock: XIVTED_clean_linker_0, # of connection points: 2
#     Edge 90, Type (0, 0), BuildingBlock: XIVTED_clean_linker_0, # of connection points: 2
#     Edge 91, Type (0, 0), BuildingBlock: XIVTED_clean_linker_0, # of connection points: 2
#     Edge 92, Type (0, 0), BuildingBlock: XIVTED_clean_linker_0, # of connection points: 2
#     Edge 93, Type (0, 0), BuildingBlock: XIVTED_clean_linker_0, # of connection points: 2
#     Edge 94, Type (0, 0), BuildingBlock: XIVTED_clean_linker_0, # of connection points: 2
#     Edge 95, Type (0, 0), BuildingBlock: XIVTED_clean_linker_0, # of connection points: 2
# Relax obj value: 0.008
# Max RMSD: 0.047
# Mean RMSD: 0.047
data_MOF--net-ukd--node1-QUQFOY_clean_sbu_1--edge1-XIVTED_clean_linker_0
_symmetry_space_group_name_H-M    P1
_symmetry_Int_Tables_number       1
_symmetry_cell_setting            triclinic
loop_
_symmetry_equiv_pos_as_xyz
'x, y, z'
_cell_length_a     46.651183
_cell_length_b     46.655424
_cell_length_c     79.784498
_cell_angle_alpha  90.000654
_cell_angle_beta   89.999164
_cell_angle_gamma 90.044314
loop_
_atom_site_label
_atom_site_type_symbol
_atom_site_fract_x
_atom_site_fract_y
_atom_site_fract_z
_atom_type_partial_charge
O0 O 0.1907 0.16175 0.36707 0.0
Cd1 Cd 0.22537 0.189 0.36898 0.0
Cd2 Cd 0.20296 0.20982 0.33865 0.0
O3 O 0.17304 0.1778 0.34312 0.0
O4 O 0.25185 0.17068 0.38544 0.0
O5 O 0.26288 0.17681 0.35871 0.0
C6 C 0.26979 0.16704 0.37333 0.0
C7 C 0.21849 0.21929 0.31121 0.0
C8 C 0.17183 0.16082 0.35559 0.0
C9 C 0.20672 0.25035 0.36849 0.0
O10 O 0.20025 0.24605 0.35323 0.0
O11 O 0.21732 0.23036 0.37736 0.0
O12 O 0.19276 0.22495 0.31599 0.0
O13 O 0.23533 0.20697 0.32186 0.0
O14 O 0.09612 0.94475 0.61642 0.0
Cd15 Cd 0.0667 0.97782 0.6142 0.0
Cd16 Cd 0.05438 0.94704 0.58658 0.0
O17 O 0.09263 0.92634 0.59106 0.0
O18 O 0.08049 0.00689 0.63072 0.0
O19 O 0.07999 0.01464 0.60341 0.0
C20 C 0.08653 0.02344 0.61829 0.0
C21 C 0.04229 0.96518 0.56018 0.0
C22 C 0.10472 0.92713 0.60533 0.0
C23 C 0.01109 0.94743 0.61448 0.0
O24 O 0.02073 0.93452 0.60165 0.0
O25 O 0.02458 0.96861 0.6207 0.0
O26 O 0.04215 0.93802 0.56318 0.0
O27 O 0.05032 0.98217 0.5721 0.0
O28 O 0.31453 0.8444 0.8709 0.0
Cd29 Cd 0.28086 0.81588 0.87036 0.0
Cd30 Cd 0.307 0.80144 0.84028 0.0
O31 O 0.33254 0.83673 0.84571 0.0
O32 O 0.2526 0.83122 0.88685 0.0
O33 O 0.24396 0.82877 0.85963 0.0
C34 C 0.23571 0.83647 0.87443 0.0
C35 C 0.29091 0.7925 0.81296 0.0
C36 C 0.33268 0.85037 0.85953 0.0
C37 C 0.30485 0.75695 0.86826 0.0
O38 O 0.31381 0.76447 0.85387 0.0
O39 O 0.28988 0.77399 0.87709 0.0
O40 O 0.31746 0.78952 0.81704 0.0
O41 O 0.2735 0.80204 0.82425 0.0
O42 O 0.41592 0.06468 0.11905 0.0
Cd43 Cd 0.44465 0.03125 0.11826 0.0
Cd44 Cd 0.45828 0.05762 0.08813 0.0
O45 O 0.42285 0.08281 0.09381 0.0
O46 O 0.42973 1.0027 0.13474 0.0
O47 O 0.43179 0.99436 0.10748 0.0
C48 C 0.42434 0.98592 0.12229 0.0
C49 C 0.46706 0.04156 0.06078 0.0
C50 C 0.40955 0.0828 0.10774 0.0
C51 C 0.5033 0.05586 0.11584 0.0
O52 O 0.49541 0.0648 0.10152 0.0
O53 O 0.48659 0.04065 0.12476 0.0
O54 O 0.46977 0.06816 0.06481 0.0
O55 O 0.45781 0.02408 0.07213 0.0
O56 O 0.19617 0.84439 0.14256 0.0
Cd57 Cd 0.22973 0.8158 0.14317 0.0
Cd58 Cd 0.204 0.80203 0.17335 0.0
O59 O 0.17846 0.83729 0.16789 0.0
O60 O 0.25811 0.8309 0.12665 0.0
O61 O 0.26666 0.82868 0.15389 0.0
C62 C 0.27498 0.83625 0.13907 0.0
C63 C 0.22096 0.79334 0.20051 0.0
C64 C 0.17818 0.85062 0.15397 0.0
C65 C 0.20537 0.75707 0.14563 0.0
O66 O 0.19667 0.76489 0.16001 0.0
O67 O 0.22037 0.77386 0.13663 0.0
O68 O 0.19426 0.79043 0.19676 0.0
O69 O 0.23801 0.80276 0.18898 0.0
O70 O 0.41741 0.942 0.39467 0.0
Cd71 Cd 0.44466 0.9767 0.39559 0.0
Cd72 Cd 0.46025 0.95012 0.42509 0.0
O73 O 0.42572 0.92349 0.41965 0.0
O74 O 0.4282 0.00484 0.3794 0.0
O75 O 0.43044 0.01277 0.4067 0.0
C76 C 0.42238 0.02115 0.39199 0.0
C77 C 0.46871 0.96745 0.45218 0.0
C78 C 0.41208 0.9233 0.40584 0.0
C79 C 0.50438 0.95456 0.39711 0.0
O80 O 0.49729 0.94457 0.41134 0.0
O81 O 0.48681 0.96954 0.38865 0.0
O82 O 0.47262 0.94087 0.44843 0.0
O83 O 0.45845 0.98408 0.4407 0.0
O84 O 0.3138 0.16506 0.64173 0.0
Cd85 Cd 0.28015 0.19355 0.64208 0.0
Cd86 Cd 0.30583 0.20773 0.67235 0.0
O87 O 0.33156 0.17258 0.667 0.0
O88 O 0.25253 0.17841 0.62514 0.0
O89 O 0.24278 0.18051 0.65223 0.0
C90 C 0.23512 0.173 0.63729 0.0
C91 C 0.28865 0.21637 0.69948 0.0
C92 C 0.33185 0.15906 0.65314 0.0
C93 C 0.30441 0.2524 0.64448 0.0
O94 O 0.31308 0.24479 0.65891 0.0
O95 O 0.28949 0.23547 0.63554 0.0
O96 O 0.31535 0.21948 0.69578 0.0
O97 O 0.27173 0.20684 0.68792 0.0
O98 O 0.09135 0.06446 0.8939 0.0
Cd99 Cd 0.06381 0.02999 0.89493 0.0
Cd100 Cd 0.04891 0.05672 0.92472 0.0
O101 O 0.08347 0.08307 0.91891 0.0
O102 O 0.07961 1.00179 0.87855 0.0
O103 O 0.0778 0.99362 0.90583 0.0
C104 C 0.08542 0.98525 0.89104 0.0
C105 C 0.04062 0.04081 0.95214 0.0
C106 C 0.09692 0.08316 0.90503 0.0
C107 C 1.00425 0.0525 0.89695 0.0
O108 O 0.01164 0.06224 0.91119 0.0
O109 O 0.02161 0.03762 0.88829 0.0
O110 O 0.03697 0.06722 0.94796 0.0
O111 O 0.05051 0.0235 0.9409 0.0
O112 O 0.80994 0.76262 0.65922 0.0
Cd113 Cd 0.80684 0.79886 0.67375 0.0
Cd114 Cd 0.78425 0.81936 0.64355 0.0
O115 O 0.79241 0.77803 0.63514 0.0
O116 O 0.81675 0.78388 0.69649 0.0
O117 O 0.77416 0.80156 0.69034 0.0
C118 C 0.79087 0.78936 0.7011 0.0
C119 C 0.73971 0.84125 0.63952 0.0
C120 C 0.80335 0.75818 0.644 0.0
C121 C 0.83774 0.84787 0.65675 0.0
O122 O 0.81886 0.84671 0.64528 0.0
O123 O 0.83661 0.83103 0.66929 0.0
O124 O 0.7574 0.83763 0.62728 0.0
O125 O 0.74693 0.83145 0.65408 0.0
O126 O 0.91296 0.06377 0.39482 0.0
Cd127 Cd 0.94226 0.03053 0.39678 0.0
Cd128 Cd 0.95467 0.06077 0.42469 0.0
O129 O 0.91657 0.08177 0.42027 0.0
O130 O 0.92828 1.00189 0.38004 0.0
O131 O 0.92899 0.99345 0.40728 0.0
C132 C 0.92233 0.98502 0.39235 0.0
C133 C 0.96669 0.04259 0.4511 0.0
C134 C 0.90448 0.08127 0.406 0.0
C135 C 0.99799 0.0607 0.39676 0.0
O136 O 0.98842 0.07333 0.40971 0.0
O137 O 0.98441 0.03976 0.39035 0.0
O138 O 0.96692 0.06975 0.44809 0.0
O139 O 0.95862 0.02563 0.43918 0.0
O140 O 0.69692 0.24607 0.15918 0.0
Cd141 Cd 0.70396 0.20895 0.17259 0.0
Cd142 Cd 0.72943 0.19488 0.14254 0.0
O143 O 0.72054 0.23681 0.13582 0.0
O144 O 0.69435 0.22074 0.19598 0.0
O145 O 0.73798 0.20803 0.18821 0.0
C146 C 0.72102 0.21762 0.19973 0.0
C147 C 0.77463 0.17406 0.1392 0.0
C148 C 0.70567 0.25375 0.14478 0.0
C149 C 0.6776 0.1605 0.1533 0.0
O150 O 0.69559 0.16658 0.14187 0.0
O151 O 0.67809 0.17384 0.16722 0.0
O152 O 0.75828 0.1792 0.12651 0.0
O153 O 0.76582 0.18206 0.15384 0.0
O154 O 0.59481 0.94568 0.89252 0.0
Cd155 Cd 0.56652 0.97953 0.89274 0.0
Cd156 Cd 0.55172 0.95395 0.92307 0.0
O157 O 0.58685 0.92811 0.9178 0.0
O158 O 0.58216 0.00732 0.87604 0.0
O159 O 0.57942 0.01671 0.90316 0.0
C160 C 0.5873 0.02456 0.88832 0.0
C161 C 0.54246 0.97001 0.95038 0.0
C162 C 0.60053 0.92765 0.90399 0.0
C163 C 0.50748 0.95571 0.89489 0.0
O164 O 0.51484 0.9471 0.90938 0.0
O165 O 0.52464 0.97042 0.88598 0.0
O166 O 0.53948 0.94348 0.94627 0.0
O167 O 0.5522 0.98742 0.93913 0.0
O168 O 0.82576 0.23872 0.85243 0.0
Cd169 Cd 0.81283 0.20563 0.83709 0.0
Cd170 Cd 0.78205 0.19316 0.86462 0.0
O171 O 0.79155 0.2351 0.87142 0.0
O172 O 0.82187 0.21858 0.81383 0.0
O173 O 0.77769 0.21047 0.82273 0.0
C174 C 0.79468 0.21883 0.81089 0.0
C175 C 0.73633 0.17335 0.86839 0.0
C176 C 0.81296 0.24835 0.8653 0.0
C177 C 0.83247 0.15492 0.85548 0.0
O178 O 0.815 0.16355 0.86664 0.0
O179 O 0.83322 0.16711 0.84124 0.0
O180 O 0.75279 0.17903 0.88094 0.0
O181 O 0.74527 0.18031 0.8536 0.0
O182 O 0.59508 0.0678 0.61958 0.0
Cd183 Cd 0.56708 0.03373 0.61888 0.0
Cd184 Cd 0.55235 0.05955 0.58908 0.0
O185 O 0.58738 0.08562 0.59435 0.0
O186 O 0.58307 0.0051 0.63493 0.0
O187 O 0.58031 0.99746 0.60761 0.0
C188 C 0.5884 0.98878 0.62226 0.0
C189 C 0.5436 0.04193 0.56206 0.0
C190 C 0.6009 0.086 0.60821 0.0
C191 C 0.50795 0.05705 0.61704 0.0
O192 O 0.51535 0.06623 0.60268 0.0
O193 O 0.52513 0.04208 0.62578 0.0
O194 O 0.54025 0.06865 0.56566 0.0
O195 O 0.55348 0.02529 0.57365 0.0
O196 O 0.68541 0.77011 0.35365 0.0
Cd197 Cd 0.69786 0.80347 0.33839 0.0
Cd198 Cd 0.72887 0.8161 0.366 0.0
O199 O 0.71966 0.77402 0.37261 0.0
O200 O 0.68882 0.79065 0.3151 0.0
O201 O 0.73297 0.79913 0.32394 0.0
C202 C 0.71599 0.7907 0.31211 0.0
C203 C 0.77438 0.83609 0.37038 0.0
C204 C 0.69841 0.76055 0.36647 0.0
C205 C 0.67801 0.85397 0.35694 0.0
O206 O 0.69574 0.84551 0.36801 0.0
O207 O 0.67709 0.84174 0.34272 0.0
O208 O 0.75754 0.83014 0.3827 0.0
O209 O 0.76595 0.82936 0.35546 0.0
O210 O 0.91569 0.94455 0.12084 0.0
Cd211 Cd 0.94404 0.97836 0.12 0.0
Cd212 Cd 0.95838 0.95212 0.09013 0.0
O213 O 0.92317 0.92648 0.09565 0.0
O214 O 0.92843 0.00737 0.13595 0.0
O215 O 0.93131 0.01471 0.10861 0.0
C216 C 0.92337 0.02366 0.12323 0.0
C217 C 0.96725 0.96835 0.06282 0.0
C218 C 0.90971 0.9263 0.10953 0.0
C219 C 1.00294 0.95446 0.11806 0.0
O220 O 0.9954 0.94536 0.1037 0.0
O221 O 0.98593 0.96955 0.12684 0.0
O222 O 0.97027 0.94178 0.06686 0.0
O223 O 0.95768 0.98567 0.07415 0.0
O224 O 0.69222 0.66514 0.86958 0.0
Cd225 Cd 0.72624 0.69322 0.86887 0.0
Cd226 Cd 0.70058 0.70761 0.83881 0.0
O227 O 0.67462 0.6726 0.84427 0.0
O228 O 0.75498 0.67739 0.88492 0.0
O229 O 0.76249 0.68002 0.85758 0.0
C230 C 0.77125 0.67203 0.87223 0.0
C231 C 0.71701 0.71624 0.81152 0.0
C232 C 0.67415 0.65919 0.85817 0.0
C233 C 0.70303 0.75235 0.86667 0.0
O234 O 0.69409 0.74478 0.85228 0.0
O235 O 0.71776 0.73524 0.87559 0.0
O236 O 0.69046 0.71955 0.81551 0.0
O237 O 0.73419 0.70652 0.82287 0.0
O238 O 0.59383 0.4451 0.11901 0.0
Cd239 Cd 0.56528 0.47871 0.11857 0.0
Cd240 Cd 0.55104 0.45308 0.08837 0.0
O241 O 0.58635 0.42753 0.0937 0.0
O242 O 0.5807 0.50713 0.13496 0.0
O243 O 0.57792 0.5156 0.10773 0.0
C244 C 0.58576 0.52398 0.12248 0.0
C245 C 0.54195 0.46958 0.06115 0.0
C246 C 0.59988 0.42716 0.10755 0.0
C247 C 0.50646 0.45457 0.11634 0.0
O248 O 0.51405 0.44593 0.1019 0.0
O249 O 0.52342 0.46943 0.12529 0.0
O250 O 0.53907 0.44295 0.06508 0.0
O251 O 0.55154 0.48682 0.07253 0.0
O252 O 0.81674 0.34182 0.36861 0.0
Cd253 Cd 0.78216 0.31447 0.36725 0.0
Cd254 Cd 0.80904 0.29994 0.33767 0.0
O255 O 0.83543 0.3344 0.34357 0.0
O256 O 0.7535 0.33047 0.38329 0.0
O257 O 0.74639 0.32883 0.35589 0.0
C258 C 0.73755 0.33654 0.37057 0.0
C259 C 0.79244 0.29205 0.31037 0.0
C260 C 0.83547 0.3476 0.35754 0.0
C261 C 0.80438 0.25488 0.36513 0.0
O262 O 0.81447 0.2625 0.35102 0.0
O263 O 0.78933 0.27213 0.37378 0.0
O264 O 0.81896 0.28825 0.31431 0.0
O265 O 0.77546 0.30194 0.32179 0.0
O266 O 0.91455 0.56852 0.61764 0.0
Cd267 Cd 0.94356 0.53527 0.61785 0.0
Cd268 Cd 0.95869 0.56037 0.58765 0.0
O269 O 0.92325 0.58598 0.59243 0.0
O270 O 0.92788 0.50702 0.63426 0.0
O271 O 0.93166 0.49802 0.60713 0.0
C272 C 0.9234 0.48987 0.62185 0.0
C273 C 0.9681 0.54314 0.56064 0.0
C274 C 0.90898 0.58632 0.60602 0.0
C275 C 1.00245 0.55966 0.61603 0.0
O276 O 0.99535 0.56785 0.60141 0.0
O277 O 0.98517 0.54508 0.62494 0.0
O278 O 0.97104 0.56985 0.56435 0.0
O279 O 0.95839 0.5262 0.57213 0.0
O280 O 0.69642 0.3467 0.64322 0.0
Cd281 Cd 0.73027 0.31847 0.6438 0.0
Cd282 Cd 0.70498 0.30427 0.67394 0.0
O283 O 0.67896 0.33922 0.66856 0.0
O284 O 0.75877 0.33406 0.6275 0.0
O285 O 0.76693 0.33146 0.65477 0.0
C286 C 0.77541 0.33933 0.64004 0.0
C287 C 0.72226 0.29603 0.7011 0.0
C288 C 0.67841 0.35262 0.65466 0.0
C289 C 0.70648 0.25951 0.64611 0.0
O290 O 0.69792 0.26707 0.66057 0.0
O291 O 0.72123 0.27653 0.63712 0.0
O292 O 0.69558 0.2927 0.69742 0.0
O293 O 0.73911 0.30548 0.68949 0.0
O294 O 0.91273 0.44177 0.89517 0.0
Cd295 Cd 0.94046 0.47608 0.89341 0.0
Cd296 Cd 0.96079 0.45321 0.9236 0.0
O297 O 0.92828 0.42381 0.91914 0.0
O298 O 0.92239 0.50306 0.87713 0.0
O299 O 0.92867 0.51352 0.90393 0.0
C300 C 0.91888 0.52077 0.88937 0.0
C301 C 0.97025 0.469 0.95098 0.0
C302 C 0.91138 0.4229 0.90663 0.0
C303 C 1.00147 0.45629 0.89382 0.0
O304 O 0.997 0.44974 0.90905 0.0
O305 O 0.98172 0.46747 0.88499 0.0
O306 O 0.9756 0.44312 0.94635 0.0
O307 O 0.95828 0.48586 0.94021 0.0
O308 O 0.81352 0.66525 0.14383 0.0
Cd309 Cd 0.77999 0.69384 0.14478 0.0
Cd310 Cd 0.80601 0.70716 0.17483 0.0
O311 O 0.83162 0.67206 0.16908 0.0
O312 O 0.75124 0.67889 0.12844 0.0
O313 O 0.7433 0.68094 0.15575 0.0
C314 C 0.73465 0.67346 0.14099 0.0
C315 C 0.78866 0.71494 0.20201 0.0
C316 C 0.83171 0.6589 0.1551 0.0
C317 C 0.80443 0.75253 0.14737 0.0
O318 O 0.81327 0.74458 0.1617 0.0
O319 O 0.78931 0.73584 0.13838 0.0
O320 O 0.8154 0.71812 0.19841 0.0
O321 O 0.7718 0.70586 0.1903 0.0
O322 O 0.59701 0.56802 0.39526 0.0
Cd323 Cd 0.5696 0.53354 0.39303 0.0
Cd324 Cd 0.54818 0.55585 0.42323 0.0
O325 O 0.58058 0.58549 0.41916 0.0
O326 O 0.58815 0.50716 0.3766 0.0
O327 O 0.58136 0.49585 0.40324 0.0
C328 C 0.59144 0.48906 0.38867 0.0
C329 C 0.53804 0.5402 0.45057 0.0
C330 C 0.59785 0.58673 0.40683 0.0
C331 C 0.50839 0.55277 0.39303 0.0
O332 O 0.51236 0.55911 0.40834 0.0
O333 O 0.5285 0.54195 0.38432 0.0
O334 O 0.53263 0.56599 0.4458 0.0
O335 O 0.5504 0.52333 0.43996 0.0
O336 O 0.31306 0.26376 0.15904 0.0
Cd337 Cd 0.30644 0.30058 0.17282 0.0
Cd338 Cd 0.2804 0.31554 0.14289 0.0
O339 O 0.28929 0.27377 0.13584 0.0
O340 O 0.31688 0.28827 0.196 0.0
O341 O 0.27303 0.30133 0.18891 0.0
C342 C 0.29039 0.29151 0.20014 0.0
C343 C 0.23521 0.33637 0.13942 0.0
C344 C 0.30417 0.25653 0.14458 0.0
C345 C 0.33247 0.34954 0.15375 0.0
O346 O 0.31422 0.34388 0.14239 0.0
O347 O 0.33226 0.33573 0.16751 0.0
O348 O 0.25176 0.33143 0.1268 0.0
O349 O 0.24382 0.3282 0.15407 0.0
O350 O 0.41351 0.56281 0.89257 0.0
Cd351 Cd 0.44182 0.52901 0.89317 0.0
Cd352 Cd 0.45596 0.55479 0.92332 0.0
O353 O 0.4208 0.58047 0.91788 0.0
O354 O 0.42625 0.50051 0.87687 0.0
O355 O 0.42877 0.49237 0.90414 0.0
C356 C 0.4209 0.4839 0.88941 0.0
C357 C 0.4649 0.53837 0.95057 0.0
C358 C 0.40743 0.58084 0.90397 0.0
C359 C 0.50069 0.55302 0.89544 0.0
O360 O 0.493 0.5618 0.90984 0.0
O361 O 0.48379 0.53806 0.8865 0.0
O362 O 0.46786 0.56497 0.94661 0.0
O363 O 0.4553 0.52111 0.93921 0.0
O364 O 0.19787 0.74812 0.66113 0.0
Cd365 Cd 0.20347 0.71088 0.67466 0.0
Cd366 Cd 0.23001 0.69594 0.64478 0.0
O367 O 0.22231 0.73814 0.63816 0.0
O368 O 0.19284 0.72286 0.69786 0.0
O369 O 0.23662 0.70936 0.69089 0.0
C370 C 0.21924 0.71924 0.7021 0.0
C371 C 0.27472 0.67434 0.64076 0.0
C372 C 0.2075 0.7555 0.64686 0.0
C373 C 0.17693 0.66284 0.65505 0.0
O374 O 0.19553 0.66838 0.64386 0.0
O375 O 0.17713 0.67632 0.66892 0.0
O376 O 0.25807 0.68014 0.62832 0.0
O377 O 0.26648 0.68196 0.65558 0.0
O378 O 0.09822 0.44155 0.39477 0.0
Cd379 Cd 0.06944 0.47501 0.39438 0.0
Cd380 Cd 0.05342 0.44976 0.42441 0.0
O381 O 0.08878 0.42394 0.41985 0.0
O382 O 0.08555 0.50305 0.37797 0.0
O383 O 0.08142 0.51229 0.40505 0.0
C384 C 0.08994 0.52028 0.39035 0.0
C385 C 0.04357 0.46693 0.45138 0.0
C386 C 0.10337 0.4236 0.40637 0.0
C387 C 0.01038 0.45078 0.39568 0.0
O388 O 0.01708 0.44247 0.41034 0.0
O389 O 0.02793 0.4654 0.38697 0.0
O390 O 0.04053 0.44025 0.44761 0.0
O391 O 0.0536 0.48386 0.43997 0.0
O392 O 0.3164 0.74287 0.35163 0.0
Cd393 Cd 0.30919 0.70647 0.3376 0.0
Cd394 Cd 0.28363 0.69077 0.3677 0.0
O395 O 0.29343 0.73228 0.37504 0.0
O396 O 0.31879 0.7193 0.31439 0.0
O397 O 0.27514 0.7063 0.32199 0.0
C398 C 0.2921 0.71633 0.3106 0.0
C399 C 0.23837 0.67029 0.37179 0.0
C400 C 0.30809 0.74971 0.36626 0.0
C401 C 0.33497 0.65651 0.35584 0.0
O402 O 0.31693 0.66184 0.36737 0.0
O403 O 0.33488 0.67103 0.34233 0.0
O404 O 0.2556 0.67479 0.38416 0.0
O405 O 0.24632 0.67876 0.35707 0.0
O406 O 0.09371 0.56516 0.11994 0.0
Cd407 Cd 0.0653 0.53138 0.11941 0.0
Cd408 Cd 0.05032 0.5575 0.08952 0.0
O409 O 0.08551 0.58327 0.09484 0.0
O410 O 0.08114 0.50268 0.13548 0.0
O411 O 0.0779 0.4948 0.10821 0.0
C412 C 0.08604 0.48615 0.12285 0.0
C413 C 0.04138 0.54135 0.0622 0.0
C414 C 0.09936 0.58342 0.10858 0.0
C415 C 0.00627 0.55519 0.11775 0.0
O416 O 0.01347 0.56411 0.10329 0.0
O417 O 0.02354 0.54029 0.12647 0.0
O418 O 0.03809 0.56784 0.06631 0.0
O419 O 0.05114 0.52403 0.07348 0.0
O420 O 0.19184 0.26416 0.85069 0.0
Cd421 Cd 0.19911 0.30077 0.83684 0.0
Cd422 Cd 0.22448 0.31613 0.86698 0.0
O423 O 0.21473 0.27454 0.87415 0.0
O424 O 0.18975 0.28826 0.81353 0.0
O425 O 0.2333 0.30123 0.82133 0.0
C426 C 0.21646 0.29135 0.80984 0.0
C427 C 0.26985 0.33638 0.87104 0.0
C428 C 0.20012 0.25718 0.86531 0.0
C429 C 0.17314 0.35047 0.85524 0.0
O430 O 0.19113 0.34504 0.86678 0.0
O431 O 0.17335 0.33613 0.84167 0.0
O432 O 0.25265 0.3319 0.88342 0.0
O433 O 0.26177 0.32809 0.85631 0.0
O434 O 0.41587 0.44543 0.62032 0.0
Cd435 Cd 0.44429 0.47917 0.61962 0.0
Cd436 Cd 0.45829 0.45311 0.5894 0.0
O437 O 0.42322 0.42741 0.5951 0.0
O438 O 0.42911 0.50744 0.63616 0.0
O439 O 0.43117 0.516 0.60891 0.0
C440 C 0.42364 0.52427 0.62374 0.0
C441 C 0.46661 0.46893 0.56195 0.0
C442 C 0.4098 0.42725 0.609 0.0
C443 C 0.50327 0.45542 0.61715 0.0
O444 O 0.49557 0.44657 0.60277 0.0
O445 O 0.4863 0.47021 0.62613 0.0
O446 O 0.4699 0.44247 0.56613 0.0
O447 O 0.45715 0.4864 0.57324 0.0
H448 H 0.11594 0.37657 0.42597 0.0
H449 H 0.20308 0.30166 0.35254 0.0
H450 H 0.14011 0.41863 0.37988 0.0
H451 H 0.19322 0.2628 0.40125 0.0
H452 H 0.18369 0.34624 0.36359 0.0
H453 H 0.14732 0.33636 0.41858 0.0
C454 C 0.12811 0.37757 0.41443 0.0
C455 C 0.12502 0.40088 0.40342 0.0
C456 C 0.18606 0.32816 0.37199 0.0
C457 C 0.1608 0.35491 0.39487 0.0
C458 C 0.19716 0.30266 0.36566 0.0
C459 C 0.19953 0.27844 0.37596 0.0
C460 C 0.1767 0.32941 0.3887 0.0
C461 C 0.19173 0.28101 0.39289 0.0
C462 C 0.14602 0.3546 0.41022 0.0
C463 C 0.14144 0.40101 0.38867 0.0
N464 N 0.18018 0.30593 0.39869 0.0
N465 N 0.15832 0.37829 0.38477 0.0
H466 H 0.96515 0.97669 0.62766 0.0
H467 H 0.8924 0.83893 0.66765 0.0
H468 H 0.99933 0.8917 0.62059 0.0
H469 H 0.84047 0.8991 0.64002 0.0
H470 H 0.93531 0.86595 0.65947 0.0
H471 H 0.92205 0.95533 0.64071 0.0
C472 C 0.96365 0.95363 0.62901 0.0
C473 C 0.98552 0.93582 0.62294 0.0
C474 C 0.91441 0.87345 0.6555 0.0
C475 C 0.93738 0.91167 0.6382 0.0
C476 C 0.88996 0.85821 0.66022 0.0
C477 C 0.8629 0.86671 0.65439 0.0
C478 C 0.91169 0.89771 0.64525 0.0
C479 C 0.861 0.89174 0.64466 0.0
C480 C 0.9392 0.94155 0.63639 0.0
C481 C 0.98272 0.90609 0.62495 0.0
N482 N 0.88513 0.90642 0.64035 0.0
N483 N 0.95918 0.89494 0.63253 0.0
H484 H 0.37521 0.58731 0.87566 0.0
H485 H 0.31012 0.7399 0.90113 0.0
H486 H 0.39127 0.62657 0.92378 0.0
H487 H 0.31976 0.70967 0.85033 0.0
H488 H 0.33044 0.69445 0.91127 0.0
H489 H 0.34502 0.62781 0.86811 0.0
C490 C 0.3722 0.60431 0.88474 0.0
C491 C 0.3862 0.60366 0.90031 0.0
C492 C 0.32777 0.69774 0.89793 0.0
C493 C 0.35154 0.65033 0.89164 0.0
C494 C 0.31605 0.72354 0.89214 0.0
C495 C 0.31348 0.72862 0.87486 0.0
C496 C 0.3365 0.67682 0.88633 0.0
C497 C 0.32163 0.70679 0.86375 0.0
C498 C 0.35496 0.6275 0.88038 0.0
C499 C 0.38112 0.62626 0.91158 0.0
N500 N 0.33281 0.68193 0.86967 0.0
N501 N 0.36438 0.64884 0.90697 0.0
H502 H 0.55028 0.07049 0.0976 0.0
H503 H 0.63244 0.14373 0.1734 0.0
H504 H 0.52062 0.06234 0.14859 0.0
H505 H 0.67028 0.12905 0.12475 0.0
H506 H 0.59198 0.11304 0.16534 0.0
H507 H 0.59497 0.09102 0.10784 0.0
C508 C 0.55332 0.07278 0.111 0.0
C509 C 0.53165 0.06485 0.12226 0.0
C510 C 0.60936 0.11628 0.15655 0.0
C511 C 0.58275 0.08885 0.13413 0.0
C512 C 0.63246 0.13381 0.16112 0.0
C513 C 0.65468 0.13931 0.14967 0.0
C514 C 0.60841 0.10442 0.14036 0.0
C515 C 0.65356 0.12576 0.13396 0.0
C516 C 0.5789 0.08447 0.11686 0.0
C517 C 0.53683 0.06815 0.1395 0.0
N518 N 0.63071 0.10927 0.12973 0.0
N519 N 0.56173 0.08032 0.14492 0.0
H520 H 0.19127 0.70993 0.16387 0.0
H521 H 0.11574 0.62873 0.08851 0.0
H522 H 0.1981 0.74001 0.11289 0.0
H523 H 0.13157 0.59035 0.13688 0.0
H524 H 0.14681 0.66898 0.09641 0.0
H525 H 0.1704 0.66535 0.15368 0.0
C526 C 0.18863 0.707 0.15048 0.0
C527 C 0.19628 0.72875 0.13921 0.0
C528 C 0.14373 0.65152 0.10518 0.0
C529 C 0.17188 0.6778 0.12742 0.0
C530 C 0.12598 0.62855 0.10069 0.0
C531 C 0.12071 0.60623 0.11211 0.0
C532 C 0.15604 0.65227 0.12125 0.0
C533 C 0.13469 0.60714 0.1277 0.0
C534 C 0.17675 0.68149 0.14465 0.0
C535 C 0.19253 0.72372 0.12199 0.0
N536 N 0.15139 0.62988 0.13185 0.0
N537 N 0.18017 0.6989 0.11661 0.0
H538 H 0.52128 0.95326 0.36409 0.0
H539 H 0.67314 0.88329 0.38647 0.0
H540 H 0.55202 0.93812 0.41433 0.0
H541 H 0.63338 0.8747 0.33785 0.0
H542 H 0.63358 0.91375 0.39537 0.0
H543 H 0.5667 0.93441 0.35306 0.0
C544 C 0.53774 0.94644 0.37279 0.0
C545 C 0.53278 0.94698 0.39015 0.0
C546 C 0.63363 0.90545 0.3827 0.0
C547 C 0.5846 0.92559 0.37766 0.0
C548 C 0.65629 0.88809 0.37757 0.0
C549 C 0.65643 0.876 0.36145 0.0
C550 C 0.61085 0.91089 0.37166 0.0
C551 C 0.63405 0.8833 0.35044 0.0
C552 C 0.56355 0.93557 0.36649 0.0
C553 C 0.55479 0.93779 0.40086 0.0
N554 N 0.61199 0.90005 0.35581 0.0
N555 N 0.57964 0.92739 0.39444 0.0
H556 H 0.31023 0.26945 0.61165 0.0
H557 H 0.37768 0.42098 0.63738 0.0
H558 H 0.31976 0.29949 0.66249 0.0
H559 H 0.3931 0.38168 0.58921 0.0
H560 H 0.34688 0.38088 0.64489 0.0
H561 H 0.33138 0.3146 0.6016 0.0
C562 C 0.31631 0.28571 0.62066 0.0
C563 C 0.31347 0.28066 0.63794 0.0
C564 C 0.35682 0.3811 0.63262 0.0
C565 C 0.33746 0.33211 0.62657 0.0
C566 C 0.37441 0.40406 0.62828 0.0
C567 C 0.38839 0.40458 0.6127 0.0
C568 C 0.35301 0.35837 0.62132 0.0
C569 C 0.38298 0.38207 0.60141 0.0
C570 C 0.32851 0.31134 0.61493 0.0
C571 C 0.32182 0.30236 0.64908 0.0
N572 N 0.36588 0.35972 0.606 0.0
N573 N 0.33349 0.32705 0.64321 0.0
H574 H 0.95684 0.06815 0.9146 0.0
H575 H 0.8761 0.13329 0.83596 0.0
H576 H 0.98699 0.05527 0.86404 0.0
H577 H 0.83826 0.12629 0.88519 0.0
H578 H 0.91543 0.10233 0.84522 0.0
H579 H 0.91203 0.08712 0.90356 0.0
C580 C 0.95389 0.06905 0.90114 0.0
C581 C 0.97577 0.06034 0.89022 0.0
C582 C 0.89827 0.10725 0.8539 0.0
C583 C 0.92452 0.0825 0.87743 0.0
C584 C 0.87579 0.12492 0.84862 0.0
C585 C 0.85399 0.13276 0.85987 0.0
C586 C 0.89907 0.09759 0.87057 0.0
C587 C 0.85471 0.12114 0.87611 0.0
C588 C 0.92824 0.07984 0.89483 0.0
C589 C 0.97066 0.06178 0.87289 0.0
N590 N 0.87704 0.1045 0.88101 0.0
N591 N 0.94571 0.07311 0.86701 0.0
H592 H 0.89547 0.63306 0.58638 0.0
H593 H 0.80771 0.70696 0.65997 0.0
H594 H 0.87266 0.59103 0.63272 0.0
H595 H 0.81684 0.74585 0.61121 0.0
H596 H 0.82774 0.66266 0.64893 0.0
H597 H 0.86356 0.67282 0.59381 0.0
C598 C 0.8835 0.63197 0.598 0.0
C599 C 0.88711 0.60881 0.60905 0.0
C600 C 0.82507 0.68068 0.64053 0.0
C601 C 0.8507 0.65426 0.61764 0.0
C602 C 0.8136 0.70601 0.64684 0.0
C603 C 0.81083 0.73017 0.63652 0.0
C604 C 0.83442 0.67953 0.6238 0.0
C605 C 0.81862 0.72768 0.61959 0.0
C606 C 0.86528 0.65469 0.60223 0.0
C607 C 0.87092 0.60855 0.62389 0.0
N608 N 0.83054 0.70292 0.6138 0.0
N609 N 0.85373 0.63102 0.62781 0.0
H610 H 0.11727 0.16993 0.34456 0.0
H611 H 0.04412 0.03163 0.38366 0.0
H612 H 0.16887 0.10943 0.37216 0.0
H613 H 0.00971 0.11649 0.39086 0.0
H614 H 0.08737 0.05318 0.37089 0.0
H615 H 0.07427 0.1428 0.35245 0.0
C616 C 0.11963 0.15056 0.35192 0.0
C617 C 0.14661 0.142 0.35783 0.0
C618 C 0.07013 0.06689 0.37518 0.0
C619 C 0.09772 0.11087 0.36663 0.0
C620 C 0.0456 0.0547 0.38239 0.0
C621 C 0.02362 0.07242 0.38841 0.0
C622 C 0.07195 0.09679 0.37348 0.0
C623 C 0.0264 0.10217 0.38652 0.0
C624 C 0.09512 0.13526 0.35647 0.0
C625 C 0.1484 0.11685 0.36747 0.0
N626 N 0.05003 0.11343 0.3791 0.0
N627 N 0.12422 0.10211 0.37161 0.0
H628 H 0.6165 0.38199 0.08744 0.0
H629 H 0.69198 0.3011 0.16292 0.0
H630 H 0.63203 0.42033 0.13587 0.0
H631 H 0.69839 0.27063 0.11201 0.0
H632 H 0.67126 0.34566 0.15267 0.0
H633 H 0.64761 0.34184 0.09537 0.0
C634 C 0.62669 0.38219 0.09964 0.0
C635 C 0.6213 0.40445 0.11108 0.0
C636 C 0.67748 0.32944 0.14367 0.0
C637 C 0.6567 0.35853 0.12024 0.0
C638 C 0.68929 0.30394 0.14953 0.0
C639 C 0.69676 0.28208 0.1383 0.0
C640 C 0.67252 0.33302 0.12643 0.0
C641 C 0.69295 0.287 0.12108 0.0
C642 C 0.64446 0.35926 0.10415 0.0
C643 C 0.63522 0.40356 0.12668 0.0
N644 N 0.68066 0.31182 0.11566 0.0
N645 N 0.65195 0.38087 0.13084 0.0
H646 H 0.49085 0.94932 0.86201 0.0
H647 H 0.33862 0.88326 0.88763 0.0
H648 H 0.45997 0.94131 0.91278 0.0
H649 H 0.37845 0.86657 0.83975 0.0
H650 H 0.3787 0.91418 0.89503 0.0
H651 H 0.44567 0.92828 0.85191 0.0
C652 C 0.4744 0.94361 0.871 0.0
C653 C 0.47923 0.94683 0.88827 0.0
C654 C 0.3786 0.90394 0.88284 0.0
C655 C 0.42774 0.92297 0.87684 0.0
C656 C 0.35566 0.88628 0.87857 0.0
C657 C 0.35529 0.87189 0.86311 0.0
C658 C 0.40148 0.90741 0.87161 0.0
C659 C 0.37793 0.877 0.85186 0.0
C660 C 0.44875 0.93147 0.86524 0.0
C661 C 0.45728 0.93894 0.89937 0.0
N662 N 0.40027 0.89417 0.85639 0.0
N663 N 0.43259 0.92733 0.89348 0.0
H664 H 0.86023 0.42081 0.88979 0.0
H665 H 0.86877 0.2585 0.87194 0.0
H666 H 0.91947 0.36817 0.91764 0.0
H667 H 0.78465 0.29528 0.87804 0.0
H668 H 0.8897 0.30086 0.88529 0.0
H669 H 0.83293 0.37752 0.88237 0.0
C670 C 0.86721 0.40022 0.89456 0.0
C671 C 0.89218 0.398 0.9043 0.0
C672 C 0.86665 0.29954 0.88383 0.0
C673 C 0.86163 0.34873 0.89551 0.0
C674 C 0.85474 0.27556 0.87613 0.0
C675 C 0.82501 0.27357 0.87389 0.0
C676 C 0.84881 0.32212 0.88884 0.0
C677 C 0.80769 0.29612 0.87961 0.0
C678 C 0.8516 0.37565 0.89036 0.0
C679 C 0.9003 0.37083 0.91015 0.0
N680 N 0.81991 0.31985 0.88658 0.0
N681 N 0.88544 0.34716 0.90535 0.0
H682 H 0.33795 0.12629 0.62501 0.0
H683 H 0.49122 0.06227 0.64997 0.0
H684 H 0.37789 0.1433 0.67282 0.0
H685 H 0.46036 0.07152 0.59928 0.0
H686 H 0.44576 0.08235 0.66027 0.0
H687 H 0.37845 0.09613 0.61742 0.0
C688 C 0.35509 0.12349 0.63402 0.0
C689 C 0.35464 0.13777 0.64951 0.0
C690 C 0.44891 0.07964 0.64692 0.0
C691 C 0.40131 0.10314 0.64078 0.0
C692 C 0.47472 0.06805 0.64105 0.0
C693 C 0.47962 0.06546 0.62374 0.0
C694 C 0.42781 0.08819 0.6354 0.0
C695 C 0.45761 0.07342 0.61271 0.0
C696 C 0.37828 0.10627 0.62963 0.0
C697 C 0.37743 0.13294 0.66069 0.0
N698 N 0.43275 0.08446 0.61872 0.0
N699 N 0.40001 0.11621 0.65605 0.0
H700 H 0.72752 0.71378 0.37872 0.0
H701 H 0.58936 0.64097 0.41856 0.0
H702 H 0.64286 0.7497 0.37351 0.0
H703 H 0.64916 0.58979 0.39018 0.0
H704 H 0.61679 0.68397 0.41109 0.0
H705 H 0.70601 0.67048 0.39145 0.0
C706 C 0.70452 0.71263 0.38044 0.0
C707 C 0.68681 0.73504 0.37498 0.0
C708 C 0.62412 0.6632 0.4068 0.0
C709 C 0.66251 0.68662 0.38983 0.0
C710 C 0.60864 0.63869 0.41111 0.0
C711 C 0.6169 0.61184 0.40485 0.0
C712 C 0.64838 0.66074 0.39652 0.0
C713 C 0.64196 0.61016 0.39513 0.0
C714 C 0.69234 0.68806 0.38763 0.0
C715 C 0.65715 0.73268 0.37742 0.0
N716 N 0.65686 0.63434 0.39121 0.0
N717 N 0.64592 0.70897 0.38478 0.0
H718 H 0.17207 0.88296 0.12567 0.0
H719 H 0.01984 0.94911 0.15096 0.0
H720 H 0.13248 0.86709 0.17372 0.0
H721 H 0.05026 0.93944 0.1002 0.0
H722 H 0.06511 0.92848 0.16116 0.0
H723 H 0.13185 0.9135 0.11809 0.0
C724 C 0.15506 0.88609 0.13472 0.0
C725 C 0.15553 0.87203 0.15029 0.0
C726 C 0.06191 0.93122 0.14782 0.0
C727 C 0.10918 0.90711 0.14158 0.0
C728 C 0.03621 0.94312 0.14199 0.0
C729 C 0.03123 0.94576 0.1247 0.0
C730 C 0.08283 0.92238 0.13625 0.0
C731 C 0.05308 0.93752 0.11363 0.0
C732 C 0.13203 0.90353 0.13035 0.0
C733 C 0.13292 0.87728 0.16153 0.0
N734 N 0.07783 0.92617 0.11958 0.0
N735 N 0.11049 0.89422 0.1569 0.0
H736 H 0.68989 0.79987 0.84854 0.0
H737 H 0.6163 0.88215 0.92408 0.0
H738 H 0.69626 0.76939 0.89945 0.0
H739 H 0.63279 0.92041 0.87575 0.0
H740 H 0.64664 0.84143 0.91613 0.0
H741 H 0.67009 0.84482 0.85883 0.0
C742 C 0.68737 0.80278 0.86193 0.0
C743 C 0.69457 0.78081 0.87315 0.0
C744 C 0.64388 0.85896 0.90738 0.0
C745 C 0.6714 0.83221 0.88507 0.0
C746 C 0.62655 0.88221 0.91191 0.0
C747 C 0.62164 0.90463 0.9005 0.0
C748 C 0.65613 0.85804 0.8913 0.0
C749 C 0.63562 0.90355 0.88491 0.0
C750 C 0.6761 0.82851 0.86782 0.0
C751 C 0.69102 0.78584 0.89038 0.0
N752 N 0.65189 0.88054 0.88073 0.0
N753 N 0.67924 0.81089 0.89583 0.0
H754 H 0.45905 0.44086 0.09824 0.0
H755 H 0.37799 0.36564 0.17375 0.0
H756 H 0.48966 0.44726 0.14912 0.0
H757 H 0.33933 0.38186 0.12549 0.0
H758 H 0.41836 0.39649 0.16577 0.0
H759 H 0.41441 0.42028 0.10854 0.0
C760 C 0.45623 0.43818 0.11163 0.0
C761 C 0.47815 0.44562 0.12284 0.0
C762 C 0.40082 0.39355 0.15705 0.0
C763 C 0.42712 0.42157 0.13477 0.0
C764 C 0.37777 0.37592 0.16158 0.0
C765 C 0.35534 0.37081 0.15021 0.0
C766 C 0.40152 0.40589 0.14099 0.0
C767 C 0.35621 0.38484 0.13464 0.0
C768 C 0.43069 0.42646 0.11752 0.0
C769 C 0.47325 0.44184 0.14007 0.0
N770 N 0.37903 0.40141 0.13044 0.0
N771 N 0.44839 0.42964 0.14551 0.0
H772 H 0.883 0.12475 0.42568 0.0
H773 H 0.82002 0.20775 0.34725 0.0
H774 H 0.87642 0.08797 0.37617 0.0
H775 H 0.80646 0.23694 0.39795 0.0
H776 H 0.8384 0.16256 0.35809 0.0
H777 H 0.85263 0.16459 0.41652 0.0
C778 C 0.87485 0.12479 0.41297 0.0
C779 C 0.88264 0.10312 0.40162 0.0
C780 C 0.8311 0.17864 0.36689 0.0
C781 C 0.84812 0.14878 0.39104 0.0
C782 C 0.82065 0.20451 0.3607 0.0
C783 C 0.81192 0.22623 0.37172 0.0
C784 C 0.8334 0.17453 0.38428 0.0
C785 C 0.813 0.22075 0.38902 0.0
C786 C 0.8575 0.14756 0.40776 0.0
C787 C 0.87129 0.10428 0.38533 0.0
N788 N 0.824 0.19557 0.39479 0.0
N789 N 0.85497 0.12689 0.38049 0.0
H790 H 0.13083 0.64699 0.67467 0.0
H791 H 0.05024 0.57347 0.59827 0.0
H792 H 0.16987 0.63146 0.62644 0.0
H793 H 0.01858 0.56704 0.64894 0.0
H794 H 0.09474 0.59384 0.6089 0.0
H795 H 0.09015 0.61689 0.66626 0.0
C796 C 0.13106 0.63702 0.66241 0.0
C797 C 0.15372 0.64208 0.65118 0.0
C798 C 0.07825 0.58772 0.61776 0.0
C799 C 0.10718 0.60785 0.64147 0.0
C800 C 0.05278 0.57612 0.61168 0.0
C801 C 0.03061 0.56871 0.62273 0.0
C802 C 0.08152 0.5925 0.63504 0.0
C803 C 0.03518 0.57244 0.64 0.0
C804 C 0.10783 0.61982 0.65763 0.0
C805 C 0.15283 0.62848 0.63549 0.0
N806 N 0.06 0.58449 0.64563 0.0
N807 N 0.12986 0.61231 0.63106 0.0
H808 H 0.61712 0.13166 0.58833 0.0
H809 H 0.69253 0.21203 0.66412 0.0
H810 H 0.63294 0.09278 0.63657 0.0
H811 H 0.69911 0.24292 0.6133 0.0
H812 H 0.67167 0.16759 0.65371 0.0
H813 H 0.64801 0.17195 0.59645 0.0
C814 C 0.62732 0.13138 0.60053 0.0
C815 C 0.6221 0.10891 0.61185 0.0
C816 C 0.67795 0.18388 0.64477 0.0
C817 C 0.65723 0.15497 0.62123 0.0
C818 C 0.68984 0.20931 0.65072 0.0
C819 C 0.69742 0.23125 0.63956 0.0
C820 C 0.67303 0.18046 0.62752 0.0
C821 C 0.6936 0.22649 0.62232 0.0
C822 C 0.64497 0.15438 0.60514 0.0
C823 C 0.63601 0.1097 0.62746 0.0
N824 N 0.68124 0.20174 0.61682 0.0
N825 N 0.65262 0.13245 0.63173 0.0
H826 H 0.12604 0.36378 0.83582 0.0
H827 H 0.05268 0.45118 0.90975 0.0
H828 H 0.16861 0.38676 0.88197 0.0
H829 H 0.01363 0.44291 0.86099 0.0
H830 H 0.09681 0.43094 0.89861 0.0
H831 H 0.08623 0.39553 0.84345 0.0
C832 C 0.12724 0.37575 0.84743 0.0
C833 C 0.15058 0.37224 0.85837 0.0
C834 C 0.07879 0.43384 0.89022 0.0
C835 C 0.10507 0.40845 0.86719 0.0
C836 C 0.05355 0.44543 0.89661 0.0
C837 C 0.02939 0.44853 0.88631 0.0
C838 C 0.07985 0.4247 0.87346 0.0
C839 C 0.0318 0.44089 0.86934 0.0
C840 C 0.10449 0.39388 0.85177 0.0
C841 C 0.15096 0.38842 0.87322 0.0
N842 N 0.05646 0.42886 0.86349 0.0
N843 N 0.12847 0.40551 0.87724 0.0
H844 H 0.8926 0.88111 0.08956 0.0
H845 H 0.81958 0.7994 0.16561 0.0
H846 H 0.87852 0.91918 0.1382 0.0
H847 H 0.81071 0.76991 0.11462 0.0
H848 H 0.84033 0.84397 0.15531 0.0
H849 H 0.86181 0.84082 0.09776 0.0
C850 C 0.8828 0.88122 0.10186 0.0
C851 C 0.88848 0.90347 0.11327 0.0
C852 C 0.83357 0.82796 0.14631 0.0
C853 C 0.85347 0.85737 0.12274 0.0
C854 C 0.82175 0.80246 0.1522 0.0
C855 C 0.81355 0.78086 0.14096 0.0
C856 C 0.8378 0.83181 0.12903 0.0
C857 C 0.81671 0.78606 0.12371 0.0
C858 C 0.86521 0.85822 0.10652 0.0
C859 C 0.87507 0.90245 0.12902 0.0
N860 N 0.82901 0.81087 0.11826 0.0
N861 N 0.85852 0.87968 0.13333 0.0
H862 H 0.49676 0.56506 0.35998 0.0
H863 H 0.33821 0.61872 0.38188 0.0
H864 H 0.45687 0.55838 0.40861 0.0
H865 H 0.38304 0.64443 0.33698 0.0
H866 H 0.37804 0.58737 0.38902 0.0
H867 H 0.45195 0.58515 0.34879 0.0
C868 C 0.47843 0.56727 0.36821 0.0
C869 C 0.48059 0.56032 0.38528 0.0
C870 C 0.37912 0.59967 0.37752 0.0
C871 C 0.42953 0.5832 0.37263 0.0
C872 C 0.35632 0.6176 0.37341 0.0
C873 C 0.35742 0.63464 0.35892 0.0
C874 C 0.40338 0.59871 0.36714 0.0
C875 C 0.38137 0.63188 0.34835 0.0
C876 C 0.45296 0.57889 0.36185 0.0
C877 C 0.45626 0.56375 0.39541 0.0
N878 N 0.40359 0.61451 0.35276 0.0
N879 N 0.43186 0.57507 0.38896 0.0
H880 H 0.3771 0.08817 0.13606 0.0
H881 H 0.30998 0.24037 0.11159 0.0
H882 H 0.39277 0.12872 0.08826 0.0
H883 H 0.31906 0.20884 0.16215 0.0
H884 H 0.331 0.19545 0.10114 0.0
H885 H 0.34616 0.12796 0.14383 0.0
C886 C 0.37385 0.1053 0.12709 0.0
C887 C 0.38796 0.10522 0.11155 0.0
C888 C 0.32804 0.19833 0.11449 0.0
C889 C 0.35242 0.1511 0.12048 0.0
C890 C 0.31591 0.22382 0.12045 0.0
C891 C 0.313 0.2284 0.13777 0.0
C892 C 0.33686 0.17721 0.12594 0.0
C893 C 0.32118 0.20634 0.14871 0.0
C894 C 0.35618 0.12809 0.13158 0.0
C895 C 0.38255 0.12798 0.10043 0.0
N896 N 0.33279 0.1818 0.14263 0.0
N897 N 0.36539 0.15016 0.10517 0.0
H898 H 0.54803 0.56681 0.91359 0.0
H899 H 0.6289 0.64256 0.8381 0.0
H900 H 0.51754 0.56046 0.86267 0.0
H901 H 0.66709 0.62735 0.88659 0.0
H902 H 0.58871 0.61144 0.84604 0.0
H903 H 0.59252 0.58777 0.90335 0.0
C904 C 0.55085 0.56957 0.9002 0.0
C905 C 0.529 0.56204 0.88897 0.0
C906 C 0.60611 0.61467 0.85483 0.0
C907 C 0.57986 0.58656 0.87711 0.0
C908 C 0.62905 0.63245 0.85031 0.0
C909 C 0.6513 0.63791 0.86176 0.0
C910 C 0.60534 0.6025 0.87094 0.0
C911 C 0.65035 0.6241 0.87739 0.0
C912 C 0.57631 0.58152 0.89434 0.0
C913 C 0.5339 0.56593 0.87175 0.0
N914 N 0.62765 0.60735 0.88156 0.0
N915 N 0.55868 0.57836 0.86634 0.0
H916 H 0.19176 0.80285 0.66453 0.0
H917 H 0.12658 0.88359 0.58585 0.0
H918 H 0.20461 0.77278 0.61395 0.0
H919 H 0.13294 0.92117 0.63517 0.0
H920 H 0.15756 0.84431 0.59514 0.0
H921 H 0.1726 0.8476 0.65351 0.0
C922 C 0.19082 0.80581 0.65107 0.0
C923 C 0.19957 0.78397 0.64014 0.0
C924 C 0.15249 0.86139 0.60383 0.0
C925 C 0.1772 0.83514 0.62738 0.0
C926 C 0.1348 0.88384 0.59854 0.0
C927 C 0.12679 0.90557 0.6098 0.0
C928 C 0.16201 0.86055 0.62053 0.0
C929 C 0.13823 0.90479 0.62608 0.0
C930 C 0.17991 0.83142 0.64477 0.0
C931 C 0.19807 0.78908 0.62281 0.0
N932 N 0.15491 0.88249 0.63099 0.0
N933 N 0.18664 0.814 0.61695 0.0
H934 H 0.99496 0.44449 0.36257 0.0
H935 H 0.84131 0.37937 0.38608 0.0
H936 H 0.96228 0.43605 0.41293 0.0
H937 H 0.88226 0.3634 0.33845 0.0
H938 H 0.88165 0.40938 0.39419 0.0
H939 H 0.95009 0.42365 0.35186 0.0
C940 C 0.9782 0.4387 0.37134 0.0
C941 C 0.98242 0.44178 0.38867 0.0
C942 C 0.88177 0.39948 0.38191 0.0
C943 C 0.93127 0.41815 0.37655 0.0
C944 C 0.85866 0.38234 0.37723 0.0
C945 C 0.85849 0.36845 0.36162 0.0
C946 C 0.90501 0.40294 0.37094 0.0
C947 C 0.88157 0.37347 0.35066 0.0
C948 C 0.95272 0.42668 0.36523 0.0
C949 C 0.96007 0.4338 0.39948 0.0
N950 N 0.90405 0.39014 0.35558 0.0
N951 N 0.93556 0.42231 0.39325 0.0
H952 H 0.32128 0.79799 0.34884 0.0
H953 H 0.39697 0.87662 0.42521 0.0
H954 H 0.31615 0.76498 0.39926 0.0
H955 H 0.37983 0.9169 0.37752 0.0
H956 H 0.36663 0.83611 0.41676 0.0
H957 H 0.34189 0.84222 0.3597 0.0
C958 C 0.32426 0.80019 0.36225 0.0
C959 C 0.31714 0.77773 0.37316 0.0
C960 C 0.36928 0.85402 0.40827 0.0
C961 C 0.34124 0.82831 0.38572 0.0
C962 C 0.3866 0.87715 0.41307 0.0
C963 C 0.39128 0.90011 0.402 0.0
C964 C 0.35678 0.85379 0.39224 0.0
C965 C 0.37718 0.89962 0.38644 0.0
C966 C 0.336 0.8255 0.36846 0.0
C967 C 0.32131 0.78183 0.39043 0.0
N968 N 0.36089 0.87675 0.38199 0.0
N969 N 0.3335 0.80651 0.39618 0.0
H970 H 0.99004 0.56051 0.15076 0.0
H971 H 0.83738 0.62694 0.12662 0.0
H972 H 0.95861 0.57037 0.10023 0.0
H973 H 0.8778 0.64226 0.1745 0.0
H974 H 0.87748 0.59653 0.11868 0.0
H975 H 0.94501 0.58117 0.1613 0.0
C976 C 0.9735 0.56655 0.14192 0.0
C977 C 0.97813 0.56394 0.12459 0.0
C978 C 0.87751 0.60635 0.13098 0.0
C979 C 0.9268 0.58738 0.13652 0.0
C980 C 0.85455 0.62372 0.13556 0.0
C981 C 0.85433 0.63758 0.15119 0.0
C982 C 0.90056 0.60264 0.14206 0.0
C983 C 0.87715 0.63222 0.16227 0.0
C984 C 0.94794 0.57847 0.14793 0.0
C985 C 0.95607 0.57225 0.11368 0.0
N986 N 0.8995 0.61535 0.15743 0.0
N987 N 0.93146 0.58363 0.11981 0.0
H988 H 0.18624 0.20921 0.84773 0.0
H989 H 0.11278 0.12948 0.92447 0.0
H990 H 0.19284 0.24138 0.89828 0.0
H991 H 0.12828 0.0899 0.87639 0.0
H992 H 0.14289 0.17007 0.91589 0.0
H993 H 0.16585 0.16484 0.85854 0.0
C994 C 0.18363 0.20681 0.86116 0.0
C995 C 0.1911 0.22908 0.87212 0.0
C996 C 0.13994 0.15229 0.90734 0.0
C997 C 0.16728 0.17833 0.88463 0.0
C998 C 0.12275 0.12912 0.91221 0.0
C999 C 0.11767 0.10633 0.90107 0.0
C1000 C 0.15191 0.15276 0.89117 0.0
C1001 C 0.13127 0.10704 0.88537 0.0
C1002 C 0.17202 0.18141 0.86734 0.0
C1003 C 0.1874 0.2247 0.8894 0.0
N1004 N 0.14744 0.12996 0.88085 0.0
N1005 N 0.17534 0.19995 0.89513 0.0
H1006 H 0.55051 0.44153 0.59894 0.0
H1007 H 0.63307 0.36888 0.67474 0.0
H1008 H 0.52054 0.44898 0.64991 0.0
H1009 H 0.67098 0.3842 0.62617 0.0
H1010 H 0.59237 0.39918 0.66667 0.0
H1011 H 0.5954 0.42153 0.60922 0.0
C1012 C 0.55352 0.4392 0.61234 0.0
C1013 C 0.53171 0.44677 0.62358 0.0
C1014 C 0.60982 0.39617 0.6579 0.0
C1015 C 0.58303 0.42338 0.63549 0.0
C1016 C 0.63306 0.37887 0.66248 0.0
C1017 C 0.65537 0.37365 0.65105 0.0
C1018 C 0.60882 0.40809 0.64173 0.0
C1019 C 0.6542 0.38728 0.63537 0.0
C1020 C 0.57921 0.42781 0.61822 0.0
C1021 C 0.53685 0.44345 0.64082 0.0
N1022 N 0.63121 0.40353 0.63113 0.0
N1023 N 0.56186 0.43157 0.64626 0.0
H1024 H 0.32204 0.26898 0.2258 0.0
H1025 H 0.18707 0.24376 0.28609 0.0
H1026 H 0.23549 0.29265 0.21265 0.0
H1027 H 0.27291 0.21613 0.29811 0.0
H1028 H 0.20442 0.262 0.25927 0.0
H1029 H 0.30462 0.25065 0.25259 0.0
C1030 C 0.29936 0.27052 0.22858 0.0
C1031 C 0.28019 0.28241 0.21693 0.0
C1032 C 0.21948 0.25186 0.26773 0.0
C1033 C 0.26004 0.26117 0.24762 0.0
C1034 C 0.20957 0.24135 0.28305 0.0
C1035 C 0.22857 0.22836 0.2944 0.0
C1036 C 0.24867 0.24953 0.26367 0.0
C1037 C 0.25748 0.22591 0.28975 0.0
C1038 C 0.28942 0.25992 0.24388 0.0
C1039 C 0.25106 0.28373 0.22125 0.0
N1040 N 0.26666 0.23649 0.27478 0.0
N1041 N 0.24187 0.27318 0.23623 0.0
H1042 H 0.02403 0.93452 0.53295 0.0
H1043 H 0.98494 0.07323 0.47833 0.0
H1044 H 0.03726 0.02127 0.55009 0.0
H1045 H 0.97167 0.98649 0.46119 0.0
H1046 H 1.00381 0.05461 0.50471 0.0
H1047 H 0.00513 0.95313 0.50657 0.0
C1048 C 0.0231 0.95751 0.53115 0.0
C1049 C 0.03228 0.97636 0.54379 0.0
C1050 C 0.99672 0.03962 0.49521 0.0
C1051 C 0.01042 0.99786 0.51355 0.0
C1052 C 0.98585 0.05024 0.48013 0.0
C1053 C 0.97667 0.0314 0.46749 0.0
C1054 C 0.99851 0.00989 0.49773 0.0
C1055 C 0.97844 1.00182 0.47057 0.0
C1056 C 0.01222 0.96812 0.51607 0.0
C1057 C 0.03049 0.00593 0.54071 0.0
N1058 N 0.9892 0.99199 0.48536 0.0
N1059 N 0.01972 0.01575 0.52593 0.0
H1060 H 0.18727 0.74012 0.7281 0.0
H1061 H 0.32282 0.77168 0.78692 0.0
H1062 H 0.2743 0.71936 0.71436 0.0
H1063 H 0.23573 0.79173 0.80087 0.0
H1064 H 0.3055 0.75296 0.76021 0.0
H1065 H 0.20455 0.75863 0.75487 0.0
C1066 C 0.21002 0.73924 0.73075 0.0
C1067 C 0.22937 0.72814 0.71893 0.0
C1068 C 0.29015 0.76153 0.76907 0.0
C1069 C 0.24936 0.74964 0.7496 0.0
C1070 C 0.30004 0.77235 0.78433 0.0
C1071 C 0.2807 0.78333 0.79619 0.0
C1072 C 0.26066 0.7616 0.76559 0.0
C1073 C 0.25143 0.78355 0.79211 0.0
C1074 C 0.21988 0.74994 0.74605 0.0
C1075 C 0.2586 0.72764 0.72309 0.0
N1076 N 0.2423 0.77277 0.77718 0.0
N1077 N 0.2677 0.73834 0.73805 0.0
H1078 H 0.48735 0.0736 0.03463 0.0
H1079 H 0.52168 0.93801 0.97641 0.0
H1080 H 0.46859 0.98631 0.04883 0.0
H1081 H 0.54109 0.02523 0.96238 0.0
H1082 H 0.50249 0.95526 1.00301 0.0
H1083 H 0.50642 0.05635 0.00799 0.0
C1084 C 0.48702 0.05079 0.03211 0.0
C1085 C 0.47632 0.03137 0.04402 0.0
C1086 C 0.51103 0.97065 0.99416 0.0
C1087 C 0.49848 0.01142 0.0135 0.0
C1088 C 0.52211 0.96081 0.97896 0.0
C1089 C 0.53305 0.98021 0.9671 0.0
C1090 C 0.51077 1.00017 0.99759 0.0
C1091 C 0.53296 0.00949 0.97114 0.0
C1092 C 0.49805 0.04095 0.01689 0.0
C1093 C 0.47655 1.00207 0.04003 0.0
N1094 N 0.5219 0.01858 0.98601 0.0
N1095 N 0.48754 0.99299 0.02513 0.0
H1096 H 0.23657 0.71671 0.29912 0.0
H1097 H 0.27649 0.79311 0.21201 0.0
H1098 H 0.32292 0.73864 0.28451 0.0
H1099 H 0.19006 0.77182 0.22679 0.0
H1100 H 0.2939 0.77378 0.23865 0.0
H1101 H 0.21912 0.73636 0.27256 0.0
C1102 C 0.25188 0.72544 0.29029 0.0
C1103 C 0.28126 0.72599 0.29407 0.0
C1104 C 0.27111 0.77344 0.23609 0.0
C1105 C 0.26142 0.74882 0.26369 0.0
C1106 C 0.26115 0.78461 0.2209 0.0
C1107 C 0.23177 0.78411 0.21714 0.0
C1108 C 0.25156 0.76162 0.24761 0.0
C1109 C 0.2129 0.77268 0.22914 0.0
C1110 C 0.24191 0.73679 0.27515 0.0
C1111 C 0.30009 0.73772 0.28215 0.0
N1112 N 0.22312 0.76183 0.24378 0.0
N1113 N 0.28986 0.7487 0.26755 0.0
H1114 H 0.46724 0.02302 0.46355 0.0
H1115 H 0.54449 0.98623 0.55087 0.0
H1116 H 0.49143 0.93748 0.47848 0.0
H1117 H 0.52108 0.07187 0.53569 0.0
H1118 H 0.52544 0.96795 0.52435 0.0
H1119 H 0.48615 0.04126 0.49012 0.0
C1120 C 0.4763 0.00804 0.47246 0.0
C1121 C 0.47773 0.97867 0.46876 0.0
C1122 C 0.52456 0.99076 0.5268 0.0
C1123 C 0.49972 0.99943 0.49915 0.0
C1124 C 0.53557 1.00122 0.54192 0.0
C1125 C 0.53442 0.03064 0.54553 0.0
C1126 C 0.51225 0.00983 0.5152 0.0
C1127 C 0.52247 0.04903 0.53346 0.0
C1128 C 0.48722 0.01848 0.48761 0.0
C1129 C 0.48984 0.96029 0.48078 0.0
N1130 N 0.5118 0.03832 0.51889 0.0
N1131 N 0.50042 0.97096 0.49538 0.0
H1132 H 0.27208 0.29144 0.79847 0.0
H1133 H 0.23308 0.21608 0.7109 0.0
H1134 H 0.18593 0.26931 0.78356 0.0
H1135 H 0.31927 0.23797 0.72586 0.0
H1136 H 0.21543 0.23494 0.73761 0.0
H1137 H 0.28978 0.27236 0.77183 0.0
C1138 C 0.25686 0.28278 0.78956 0.0
C1139 C 0.22747 0.28201 0.79328 0.0
C1140 C 0.23822 0.23552 0.73507 0.0
C1141 C 0.24761 0.25983 0.7628 0.0
C1142 C 0.24832 0.22463 0.71984 0.0
C1143 C 0.27771 0.22542 0.71611 0.0
C1144 C 0.25762 0.24736 0.74666 0.0
C1145 C 0.29644 0.23688 0.72818 0.0
C1146 C 0.26699 0.27176 0.77437 0.0
C1147 C 0.20877 0.27039 0.78125 0.0
N1148 N 0.28608 0.24745 0.74285 0.0
N1149 N 0.21914 0.25972 0.7666 0.0
H1150 H 0.01967 0.07258 0.97821 0.0
H1151 H 0.98817 0.93663 0.03673 0.0
H1152 H 0.04055 0.98567 0.96429 0.0
H1153 H 0.96794 0.02359 0.05084 0.0
H1154 H 0.00693 0.95414 0.01007 0.0
H1155 H 1.00113 0.05511 1.00494 0.0
C1156 C 0.02057 0.04981 0.98081 0.0
C1157 C 0.03171 0.03056 0.96895 0.0
C1158 C 0.99831 0.96941 0.01895 0.0
C1159 C 0.01018 0.01035 0.99957 0.0
C1160 C 0.98746 0.95942 0.03418 0.0
C1161 C 0.97642 0.97867 0.04608 0.0
C1162 C 0.9982 0.99893 0.01553 0.0
C1163 C 0.97617 0.00796 0.04205 0.0
C1164 C 0.00986 0.03984 0.99608 0.0
C1165 C 0.03224 1.00131 0.97305 0.0
N1166 N 0.98697 0.01719 0.02715 0.0
N1167 N 0.02153 0.99209 0.98799 0.0
H1168 H 0.82192 0.76501 0.72643 0.0
H1169 H 0.68577 0.73851 0.78561 0.0
H1170 H 0.73616 0.79208 0.71379 0.0
H1171 H 0.77216 0.7153 0.79938 0.0
H1172 H 0.70366 0.75703 0.75898 0.0
H1173 H 0.80409 0.74645 0.75306 0.0
C1174 C 0.79934 0.76724 0.72929 0.0
C1175 C 0.7805 0.78016 0.71782 0.0
C1176 C 0.71872 0.74782 0.76778 0.0
C1177 C 0.75986 0.75861 0.74834 0.0
C1178 C 0.70851 0.7371 0.78299 0.0
C1179 C 0.72749 0.7253 0.79478 0.0
C1180 C 0.74819 0.74678 0.76427 0.0
C1181 C 0.75673 0.72415 0.79067 0.0
C1182 C 0.78916 0.75653 0.74451 0.0
C1183 C 0.75147 0.78237 0.72225 0.0
N1184 N 0.76618 0.73482 0.77578 0.0
N1185 N 0.74203 0.77161 0.73712 0.0
H1186 H 0.77654 0.21734 0.21125 0.0
H1187 H 0.73711 0.29314 0.2986 0.0
H1188 H 0.69032 0.23947 0.22598 0.0
H1189 H 0.82324 0.27017 0.28415 0.0
H1190 H 0.71964 0.27438 0.27183 0.0
H1191 H 0.79409 0.23637 0.23794 0.0
C1192 C 0.76127 0.22597 0.22014 0.0
C1193 C 0.73191 0.22677 0.21635 0.0
C1194 C 0.74238 0.27355 0.27449 0.0
C1195 C 0.75188 0.24892 0.24688 0.0
C1196 C 0.75238 0.2844 0.28975 0.0
C1197 C 0.78169 0.28325 0.29365 0.0
C1198 C 0.76181 0.26141 0.26303 0.0
C1199 C 0.80046 0.27153 0.2817 0.0
C1200 C 0.77132 0.23697 0.23536 0.0
C1201 C 0.71314 0.23836 0.22835 0.0
N1202 N 0.79021 0.26101 0.26699 0.0
N1203 N 0.72344 0.24903 0.24302 0.0
H1204 H 0.73863 0.22322 0.80066 0.0
H1205 H 0.77799 0.29551 0.71226 0.0
H1206 H 0.82527 0.23963 0.78425 0.0
H1207 H 0.69157 0.27597 0.72787 0.0
H1208 H 0.79565 0.2769 0.73903 0.0
H1209 H 0.7209 0.24344 0.77432 0.0
C1210 C 0.75394 0.23094 0.7915 0.0
C1211 C 0.78349 0.22966 0.79468 0.0
C1212 C 0.77281 0.2768 0.73663 0.0
C1213 C 0.76333 0.25308 0.76452 0.0
C1214 C 0.76271 0.28755 0.72136 0.0
C1215 C 0.73326 0.28729 0.71778 0.0
C1216 C 0.75333 0.26568 0.74841 0.0
C1217 C 0.71447 0.27659 0.73005 0.0
C1218 C 0.7438 0.24258 0.77647 0.0
C1219 C 0.8023 0.24011 0.78235 0.0
N1220 N 0.72482 0.26616 0.74477 0.0
N1221 N 0.79192 0.25139 0.76786 0.0
H1222 H 0.77205 0.78669 0.30182 0.0
H1223 H 0.73288 0.71546 0.2131 0.0
H1224 H 0.68546 0.77006 0.2854 0.0
H1225 H 0.81929 0.73451 0.22893 0.0
H1226 H 0.71516 0.73373 0.23994 0.0
H1227 H 0.78983 0.76683 0.2754 0.0
C1228 C 0.75676 0.779 0.29264 0.0
C1229 C 0.72721 0.78011 0.29585 0.0
C1230 C 0.73801 0.73379 0.23756 0.0
C1231 C 0.74743 0.75709 0.26559 0.0
C1232 C 0.74815 0.72323 0.22226 0.0
C1233 C 0.77762 0.72346 0.21872 0.0
C1234 C 0.75747 0.74469 0.24943 0.0
C1235 C 0.79638 0.73392 0.23108 0.0
C1236 C 0.76693 0.76757 0.27756 0.0
C1237 C 0.70843 0.76971 0.28348 0.0
N1238 N 0.786 0.74418 0.24582 0.0
N1239 N 0.71884 0.75862 0.26895 0.0
H1240 H 0.54138 0.52491 0.04934 0.0
H1241 H 0.46535 0.48307 0.96242 0.0
H1242 H 0.52033 0.43816 0.03512 0.0
H1243 H 0.4865 0.56982 0.97661 0.0
H1244 H 0.48485 0.46622 0.98915 0.0
H1245 H 0.52182 0.54177 0.02263 0.0
C1246 C 0.53288 0.50938 0.04056 0.0
C1247 C 0.53252 0.48007 0.0445 0.0
C1248 C 0.48513 0.48896 0.98644 0.0
C1249 C 0.50979 0.49924 0.01395 0.0
C1250 C 0.47386 0.4986 0.9712 0.0
C1251 C 0.47426 0.5279 0.96724 0.0
C1252 C 0.49694 0.50875 0.99781 0.0
C1253 C 0.48571 0.54703 0.9791 0.0
C1254 C 0.52158 0.51903 0.02533 0.0
C1255 C 0.52108 0.46095 0.03264 0.0
N1256 N 0.49664 0.53712 0.99379 0.0
N1257 N 0.51013 0.47087 0.01795 0.0
H1258 H 0.02204 0.43607 0.47766 0.0
H1259 H 0.98919 0.574 0.53424 0.0
H1260 H 0.04268 0.52256 0.4627 0.0
H1261 H 0.96906 0.48748 0.54937 0.0
H1262 H 0.00823 0.55561 0.50786 0.0
H1263 H 1.00287 0.45445 0.50401 0.0
C1264 C 0.02274 0.45894 0.47996 0.0
C1265 C 0.03403 0.4778 0.46792 0.0
C1266 C 0.99957 0.54062 0.51691 0.0
C1267 C 0.01179 0.49905 0.4981 0.0
C1268 C 0.98857 0.55112 0.53197 0.0
C1269 C 0.97748 0.53225 0.54407 0.0
C1270 C 0.99957 0.51099 0.51385 0.0
C1271 C 0.97733 0.50282 0.54041 0.0
C1272 C 0.01167 0.46942 0.49501 0.0
C1273 C 0.03427 0.50721 0.47161 0.0
N1274 N 0.98829 0.4931 0.52566 0.0
N1275 N 0.02323 0.51693 0.48635 0.0
H1276 H 0.01917 0.5729 0.03641 0.0
H1277 H 0.9942 0.43765 0.97631 0.0
H1278 H 0.04257 0.48639 0.04978 0.0
H1279 H 0.96737 0.52357 0.96388 0.0
H1280 H 0.01219 0.45512 1.00316 0.0
H1281 H 1.00115 0.5554 0.00958 0.0
C1282 C 0.02071 0.55022 0.03367 0.0
C1283 C 0.03244 0.53108 0.0454 0.0
C1284 C 1.00228 0.47017 0.99461 0.0
C1285 C 0.01154 0.51084 0.01464 0.0
C1286 C 0.99191 0.4602 0.97926 0.0
C1287 C 0.97923 0.47918 0.96779 0.0
C1288 C 1.00009 0.4994 0.99856 0.0
C1289 C 0.97692 0.50815 0.97234 0.0
C1290 C 0.01029 0.54023 0.01834 0.0
C1291 C 0.03377 0.50193 0.04113 0.0
N1292 N 0.98734 0.51739 0.98734 0.0
N1293 N 0.02339 0.4927 0.02612 0.0
H1294 H 0.51349 0.5717 0.47563 0.0
H1295 H 0.48843 0.43707 0.53617 0.0
H1296 H 0.54089 0.48577 0.46367 0.0
H1297 H 0.46537 0.52376 0.54935 0.0
H1298 H 0.50634 0.45429 0.50926 0.0
H1299 H 0.49525 0.55448 0.50248 0.0
C1300 C 0.51584 0.54921 0.47868 0.0
C1301 C 0.52878 0.53015 0.46735 0.0
C1302 C 0.49729 0.46956 0.51799 0.0
C1303 C 0.50763 0.5102 0.49811 0.0
C1304 C 0.48692 0.45973 0.53337 0.0
C1305 C 0.47535 0.47901 0.54508 0.0
C1306 C 0.49613 0.49893 0.51422 0.0
C1307 C 0.47406 0.50812 0.54072 0.0
C1308 C 0.50533 0.53937 0.49403 0.0
C1309 C 0.53115 0.50124 0.47202 0.0
N1310 N 0.48439 0.5172 0.52566 0.0
N1311 N 0.52059 0.49214 0.48701 0.0
H1312 H 0.30842 0.1482 0.3498 0.0
H1313 H 0.39868 0.0558 0.41611 0.0
H1314 H 0.29188 0.14781 0.40303 0.0
H1315 H 0.40584 0.04603 0.36248 0.0
H1316 H 0.36497 0.0953 0.41174 0.0
H1317 H 0.34946 0.11649 0.35446 0.0
C1318 C 0.3136 0.14174 0.36249 0.0
C1319 C 0.29652 0.1505 0.37603 0.0
C1320 C 0.37414 0.08468 0.40093 0.0
C1321 C 0.34342 0.11412 0.38144 0.0
C1322 C 0.39349 0.0622 0.40342 0.0
C1323 C 0.40494 0.04741 0.38965 0.0
C1324 C 0.36623 0.0925 0.38455 0.0
C1325 C 0.39739 0.05666 0.37348 0.0
C1326 C 0.33699 0.12355 0.36513 0.0
C1327 C 0.3043 0.14143 0.39219 0.0
N1328 N 0.37839 0.07846 0.37138 0.0
N1329 N 0.32704 0.12364 0.39443 0.0
H1330 H 0.09981 0.04893 0.64817 0.0
H1331 H 0.2121 0.15728 0.60711 0.0
H1332 H 0.1107 0.0591 0.59479 0.0
H1333 H 0.19756 0.15069 0.66039 0.0
H1334 H 0.17173 0.125 0.60226 0.0
H1335 H 0.13191 0.08952 0.65277 0.0
C1336 C 0.10867 0.05992 0.63739 0.0
C1337 C 0.10271 0.05041 0.62105 0.0
C1338 C 0.17713 0.13084 0.61501 0.0
C1339 C 0.13983 0.09685 0.62627 0.0
C1340 C 0.20021 0.14932 0.61781 0.0
C1341 C 0.20842 0.15655 0.63421 0.0
C1342 C 0.1622 0.11925 0.62872 0.0
C1343 C 0.19209 0.14564 0.64754 0.0
C1344 C 0.12706 0.08312 0.64004 0.0
C1345 C 0.11475 0.0656 0.60759 0.0
N1346 N 0.16997 0.12731 0.64451 0.0
N1347 N 0.13297 0.08786 0.6105 0.0
H1348 H 0.21129 0.85227 0.9042 0.0
H1349 H 0.10114 0.96059 0.86132 0.0
H1350 H 0.19937 0.85879 0.8507 0.0
H1351 H 0.10865 0.94963 0.91485 0.0
H1352 H 0.1338 0.92035 0.8572 0.0
H1353 H 0.17076 0.88456 0.90836 0.0
C1354 C 0.19994 0.86023 0.89331 0.0
C1355 C 0.20892 0.85295 0.87706 0.0
C1356 C 0.1281 0.92651 0.86986 0.0
C1357 C 0.16253 0.89028 0.88175 0.0
C1358 C 0.1094 0.94952 0.87223 0.0
C1359 C 0.10229 0.95868 0.88847 0.0
C1360 C 0.14003 0.91262 0.88382 0.0
C1361 C 0.11359 0.94339 0.9021 0.0
C1362 C 0.17677 0.87872 0.89571 0.0
C1363 C 0.19328 0.86386 0.86345 0.0
N1364 N 0.13213 0.92132 0.89947 0.0
N1365 N 0.17106 0.88221 0.8661 0.0
H1366 H 0.29953 0.85185 0.10929 0.0
H1367 H 0.40903 0.9611 0.15204 0.0
H1368 H 0.31128 0.85876 0.16278 0.0
H1369 H 0.40169 0.94978 0.09853 0.0
H1370 H 0.37673 0.92052 0.15621 0.0
H1371 H 0.34004 0.88422 0.1051 0.0
C1372 C 0.31084 0.8599 0.12017 0.0
C1373 C 0.30181 0.85272 0.13643 0.0
C1374 C 0.3824 0.92667 0.14355 0.0
C1375 C 0.34817 0.89015 0.1317 0.0
C1376 C 0.4009 0.94986 0.14115 0.0
C1377 C 0.40794 0.95904 0.1249 0.0
C1378 C 0.37059 0.91261 0.1296 0.0
C1379 C 0.39681 0.94354 0.11129 0.0
C1380 C 0.334 0.87844 0.11776 0.0
C1381 C 0.3174 0.86375 0.15003 0.0
N1382 N 0.37845 0.9213 0.11394 0.0
N1383 N 0.33961 0.88215 0.14736 0.0
H1384 H 0.70169 0.86017 0.66336 0.0
H1385 H 0.61101 0.9539 0.5979 0.0
H1386 H 0.71703 0.86066 0.61001 0.0
H1387 H 0.60508 0.96341 0.6516 0.0
H1388 H 0.64425 0.91391 0.60194 0.0
H1389 H 0.66078 0.89221 0.65906 0.0
C1390 C 0.69626 0.86671 0.65072 0.0
C1391 C 0.71298 0.85789 0.63704 0.0
C1392 C 0.63545 0.92457 0.61284 0.0
C1393 C 0.66624 0.89466 0.63204 0.0
C1394 C 0.61636 0.94734 0.61054 0.0
C1395 C 0.60541 0.96221 0.62443 0.0
C1396 C 0.6436 0.91655 0.62915 0.0
C1397 C 0.61315 0.95273 0.64052 0.0
C1398 C 0.67295 0.88509 0.64828 0.0
C1399 C 0.7049 0.86708 0.62095 0.0
N1400 N 0.63189 0.93066 0.64243 0.0
N1401 N 0.68225 0.88507 0.61891 0.0
H1402 H 0.89992 0.94785 0.41563 0.0
H1403 H 0.81131 0.85882 0.34706 0.0
H1404 H 0.90737 0.96111 0.36227 0.0
H1405 H 0.79836 0.85105 0.40043 0.0
H1406 H 0.85173 0.89107 0.35238 0.0
H1407 H 0.86797 0.90721 0.41028 0.0
C1408 C 0.89518 0.94199 0.40279 0.0
C1409 C 0.90617 0.9581 0.38939 0.0
C1410 C 0.84023 0.88206 0.36293 0.0
C1411 C 0.86941 0.91171 0.38317 0.0
C1412 C 0.8172 0.86355 0.3599 0.0
C1413 C 0.80124 0.85239 0.3733 0.0
C1414 C 0.84736 0.88949 0.37951 0.0
C1415 C 0.80989 0.8593 0.38968 0.0
C1416 C 0.87684 0.91883 0.39974 0.0
C1417 C 0.89925 0.94947 0.37301 0.0
N1418 N 0.83218 0.87756 0.39231 0.0
N1419 N 0.88116 0.92705 0.37037 0.0
H1420 H 0.81042 0.15301 0.1636 0.0
H1421 H 0.90248 0.05945 0.09878 0.0
H1422 H 0.79961 0.15647 0.10991 0.0
H1423 H 0.90616 0.049 0.15248 0.0
H1424 H 0.87019 0.10026 0.10262 0.0
H1425 H 0.85085 0.12026 0.15973 0.0
C1426 C 0.81677 0.14722 0.15099 0.0
C1427 C 0.80141 0.15734 0.13707 0.0
C1428 C 0.87829 0.08921 0.11357 0.0
C1429 C 0.84759 0.11966 0.13255 0.0
C1430 C 0.89683 0.06596 0.11138 0.0
C1431 C 0.90688 0.05059 0.12532 0.0
C1432 C 0.86975 0.09722 0.12981 0.0
C1433 C 0.89879 0.06005 0.14136 0.0
C1434 C 0.83981 0.12841 0.14879 0.0
C1435 C 0.81066 0.14906 0.12103 0.0
N1436 N 0.88057 0.08257 0.14316 0.0
N1437 N 0.83297 0.13057 0.11921 0.0
H1438 H 0.60815 0.06231 0.91176 0.0
H1439 H 0.70049 0.15058 0.84452 0.0
H1440 H 0.60451 0.04758 0.8584 0.0
H1441 H 0.71098 0.15846 0.89806 0.0
H1442 H 0.65991 0.11825 0.84923 0.0
H1443 H 0.64038 0.10287 0.90682 0.0
C1444 C 0.6138 0.06782 0.899 0.0
C1445 C 0.60378 0.05133 0.8855 0.0
C1446 C 0.67091 0.1273 0.85995 0.0
C1447 C 0.64085 0.09765 0.87974 0.0
C1448 C 0.69402 0.14587 0.85726 0.0
C1449 C 0.70935 0.15707 0.87091 0.0
C1450 C 0.66302 0.11989 0.87641 0.0
C1451 C 0.69996 0.15017 0.88715 0.0
C1452 C 0.6323 0.09093 0.89618 0.0
C1453 C 0.61186 0.05952 0.86921 0.0
N1454 N 0.67759 0.13188 0.88944 0.0
N1455 N 0.63005 0.08193 0.86681 0.0
H1456 H 0.8061 0.64944 0.84785 0.0
H1457 H 0.90007 0.55883 0.91322 0.0
H1458 H 0.79676 0.6554 0.90155 0.0
H1459 H 0.89948 0.54353 0.85987 0.0
H1460 H 0.86802 0.59974 0.90896 0.0
H1461 H 0.84615 0.61625 0.85186 0.0
C1462 C 0.81271 0.64411 0.86048 0.0
C1463 C 0.79787 0.65505 0.87438 0.0
C1464 C 0.87513 0.58759 0.89817 0.0
C1465 C 0.8436 0.61692 0.87906 0.0
C1466 C 0.89351 0.56428 0.90059 0.0
C1467 C 0.9023 0.54756 0.8869 0.0
C1468 C 0.86552 0.5943 0.88193 0.0
C1469 C 0.89309 0.55566 0.87082 0.0
C1470 C 0.83551 0.62505 0.86276 0.0
C1471 C 0.80741 0.64734 0.89046 0.0
N1472 N 0.87509 0.5783 0.8688 0.0
N1473 N 0.82951 0.62862 0.89235 0.0
H1474 H 0.69838 0.65176 0.16495 0.0
H1475 H 0.60687 0.56074 0.09858 0.0
H1476 H 0.70995 0.65707 0.11138 0.0
H1477 H 0.60259 0.54825 0.15212 0.0
H1478 H 0.63914 0.60144 0.10308 0.0
H1479 H 0.65783 0.6193 0.1605 0.0
C1480 C 0.69216 0.64644 0.15225 0.0
C1481 C 0.70778 0.65698 0.13853 0.0
C1482 C 0.63091 0.58996 0.11385 0.0
C1483 C 0.66148 0.61965 0.13333 0.0
C1484 C 0.61238 0.56678 0.11129 0.0
C1485 C 0.60218 0.55088 0.12498 0.0
C1486 C 0.63929 0.59734 0.13022 0.0
C1487 C 0.61008 0.55973 0.14117 0.0
C1488 C 0.66906 0.62781 0.14971 0.0
C1489 C 0.6987 0.64932 0.12234 0.0
N1490 N 0.6283 0.58219 0.14333 0.0
N1491 N 0.67633 0.63098 0.1202 0.0
H1492 H 0.70353 0.36058 0.34627 0.0
H1493 H 0.6096 0.4501 0.41218 0.0
H1494 H 0.71186 0.3526 0.39994 0.0
H1495 H 0.61128 0.46725 0.35904 0.0
H1496 H 0.64133 0.40903 0.40762 0.0
H1497 H 0.66394 0.39425 0.35045 0.0
C1498 C 0.69679 0.36558 0.35893 0.0
C1499 C 0.71121 0.35392 0.37277 0.0
C1500 C 0.63454 0.42164 0.39694 0.0
C1501 C 0.66601 0.39259 0.37766 0.0
C1502 C 0.61634 0.44504 0.39953 0.0
C1503 C 0.60794 0.4623 0.38599 0.0
C1504 C 0.64434 0.41538 0.38068 0.0
C1505 C 0.61737 0.45469 0.36987 0.0
C1506 C 0.67426 0.38491 0.36131 0.0
C1507 C 0.70152 0.36122 0.38889 0.0
N1508 N 0.63517 0.43194 0.36768 0.0
N1509 N 0.67969 0.3802 0.39088 0.0
H1510 H 0.90306 0.45266 0.59796 0.0
H1511 H 0.81145 0.36118 0.66409 0.0
H1512 H 0.90615 0.46582 0.65147 0.0
H1513 H 0.80004 0.35613 0.61049 0.0
H1514 H 0.85178 0.39395 0.65974 0.0
H1515 H 0.871 0.41178 0.6024 0.0
C1516 C 0.89734 0.44673 0.61065 0.0
C1517 C 0.90714 0.46287 0.62435 0.0
C1518 C 0.84063 0.38544 0.64892 0.0
C1519 C 0.87028 0.41619 0.62952 0.0
C1520 C 0.81765 0.36663 0.6514 0.0
C1521 C 0.80215 0.35606 0.63764 0.0
C1522 C 0.84821 0.39373 0.63256 0.0
C1523 C 0.81121 0.3639 0.62148 0.0
C1524 C 0.87893 0.42344 0.61318 0.0
C1525 C 0.89897 0.45416 0.64052 0.0
N1526 N 0.83347 0.38239 0.6194 0.0
N1527 N 0.88089 0.43157 0.64264 0.0
H1528 H 0.10694 0.45008 0.09855 0.0
H1529 H 0.19916 0.35735 0.16371 0.0
H1530 H 0.10337 0.46124 0.15221 0.0
H1531 H 0.21042 0.35383 0.11006 0.0
H1532 H 0.15863 0.38994 0.15971 0.0
H1533 H 0.13936 0.4094 0.10254 0.0
C1534 C 0.11264 0.44375 0.11118 0.0
C1535 C 0.10259 0.45927 0.12505 0.0
C1536 C 0.16979 0.38181 0.1488 0.0
C1537 C 0.13986 0.41282 0.12972 0.0
C1538 C 0.19288 0.3631 0.15108 0.0
C1539 C 0.2084 0.35301 0.13721 0.0
C1540 C 0.1621 0.39048 0.13253 0.0
C1541 C 0.19924 0.36123 0.12114 0.0
C1542 C 0.13125 0.42058 0.11345 0.0
C1543 C 0.11074 0.45006 0.14113 0.0
N1544 N 0.17687 0.37961 0.11925 0.0
N1545 N 0.12903 0.42761 0.14301 0.0
H1546 H 0.39874 0.44802 0.91344 0.0
H1547 H 0.30724 0.35661 0.84721 0.0
H1548 H 0.40416 0.45926 0.85984 0.0
H1549 H 0.29373 0.35372 0.90069 0.0
H1550 H 0.34819 0.38856 0.8517 0.0
H1551 H 0.36578 0.40785 0.90906 0.0
C1552 C 0.39334 0.44181 0.90075 0.0
C1553 C 0.40407 0.45722 0.887 0.0
C1554 C 0.33644 0.3807 0.86246 0.0
C1555 C 0.36617 0.41134 0.88189 0.0
C1556 C 0.31311 0.36236 0.85991 0.0
C1557 C 0.29685 0.35264 0.87358 0.0
C1558 C 0.34363 0.38937 0.87882 0.0
C1559 C 0.30549 0.36084 0.88976 0.0
C1560 C 0.37441 0.41893 0.89825 0.0
C1561 C 0.39627 0.44816 0.87083 0.0
N1562 N 0.32812 0.37885 0.89191 0.0
N1563 N 0.37767 0.42599 0.86873 0.0
H1564 H 0.40807 0.5487 0.65355 0.0
H1565 H 0.29913 0.6586 0.61098 0.0
H1566 H 0.40098 0.56052 0.60007 0.0
H1567 H 0.31058 0.65115 0.66447 0.0
H1568 H 0.33937 0.62598 0.60675 0.0
H1569 H 0.37572 0.58916 0.6578 0.0
C1570 C 0.39998 0.56001 0.64269 0.0
C1571 C 0.40711 0.55103 0.62641 0.0
C1572 C 0.33332 0.63168 0.61942 0.0
C1573 C 0.36971 0.59732 0.63121 0.0
C1574 C 0.31031 0.65036 0.62185 0.0
C1575 C 0.30128 0.65748 0.63812 0.0
C1576 C 0.34735 0.61979 0.63335 0.0
C1577 C 0.31671 0.6462 0.65171 0.0
C1578 C 0.38145 0.58314 0.64513 0.0
C1579 C 0.39603 0.56661 0.61283 0.0
N1580 N 0.33878 0.62769 0.64902 0.0
N1581 N 0.37765 0.58879 0.61553 0.0
H1582 H 0.11064 0.55731 0.41423 0.0
H1583 H 0.20147 0.64929 0.34793 0.0
H1584 H 0.10711 0.54434 0.36071 0.0
H1585 H 0.21448 0.65295 0.40144 0.0
H1586 H 0.16107 0.61664 0.35242 0.0
H1587 H 0.14284 0.59808 0.40976 0.0
C1588 C 0.1163 0.56326 0.40153 0.0
C1589 C 0.10633 0.5472 0.38784 0.0
C1590 C 0.17259 0.62482 0.36319 0.0
C1591 C 0.14332 0.59377 0.38263 0.0
C1592 C 0.19559 0.64357 0.36064 0.0
C1593 C 0.21157 0.65371 0.37432 0.0
C1594 C 0.16543 0.61618 0.37955 0.0
C1595 C 0.20294 0.64552 0.3905 0.0
C1596 C 0.13478 0.58648 0.39899 0.0
C1597 C 0.11442 0.55594 0.37166 0.0
N1598 N 0.18063 0.62711 0.39266 0.0
N1599 N 0.13256 0.57847 0.36951 0.0
loop_
_geom_bond_atom_site_label_1
_geom_bond_atom_site_label_2
_geom_bond_distance
_geom_bond_site_symmetry_2
_ccdc_geom_bond_type
O0 Cd1 2.223 . S
O0 C8 1.315 . S
Cd1 O0 2.223 . S
Cd1 O4 2.297 . S
Cd1 O5 2.439 . S
Cd1 O11 2.240 . S
Cd2 O3 2.240 . S
Cd2 O10 2.223 . S
Cd2 O12 2.297 . S
Cd2 O13 2.439 . S
O3 Cd2 2.240 . S
O3 C8 1.279 . S
O4 Cd1 2.297 . S
O4 C6 1.247 . S
O5 Cd1 2.439 . S
O5 C6 1.208 . S
C6 O4 1.247 . S
C6 O5 1.208 . S
C7 O12 1.247 . S
C7 O13 1.208 . S
C8 O0 1.315 . S
C8 O3 1.279 . S
C9 O10 1.315 . S
C9 O11 1.279 . S
O10 Cd2 2.223 . S
O10 C9 1.315 . S
O11 Cd1 2.240 . S
O11 C9 1.279 . S
O12 Cd2 2.297 . S
O12 C7 1.247 . S
O13 Cd2 2.439 . S
O13 C7 1.208 . S
O14 Cd15 2.223 . S
O14 C22 1.315 . S
Cd15 O14 2.223 . S
Cd15 O18 2.297 . S
Cd15 O19 2.439 . S
Cd15 O25 2.240 . S
Cd16 O17 2.240 . S
Cd16 O24 2.223 . S
Cd16 O26 2.297 . S
Cd16 O27 2.439 . S
O17 Cd16 2.240 . S
O17 C22 1.279 . S
O18 Cd15 2.297 . S
O18 C20 1.247 . S
O19 Cd15 2.439 . S
O19 C20 1.208 . S
C20 O18 1.247 . S
C20 O19 1.208 . S
C21 O26 1.247 . S
C21 O27 1.208 . S
C22 O14 1.315 . S
C22 O17 1.279 . S
C23 O24 1.315 . S
C23 O25 1.279 . S
O24 Cd16 2.223 . S
O24 C23 1.315 . S
O25 Cd15 2.240 . S
O25 C23 1.279 . S
O26 Cd16 2.297 . S
O26 C21 1.247 . S
O27 Cd16 2.439 . S
O27 C21 1.208 . S
O28 Cd29 2.223 . S
O28 C36 1.315 . S
Cd29 O28 2.223 . S
Cd29 O32 2.297 . S
Cd29 O33 2.439 . S
Cd29 O39 2.240 . S
Cd30 O31 2.240 . S
Cd30 O38 2.223 . S
Cd30 O40 2.297 . S
Cd30 O41 2.439 . S
O31 Cd30 2.240 . S
O31 C36 1.279 . S
O32 Cd29 2.297 . S
O32 C34 1.247 . S
O33 Cd29 2.439 . S
O33 C34 1.208 . S
C34 O32 1.247 . S
C34 O33 1.208 . S
C35 O40 1.247 . S
C35 O41 1.208 . S
C36 O28 1.315 . S
C36 O31 1.279 . S
C37 O38 1.315 . S
C37 O39 1.279 . S
O38 Cd30 2.223 . S
O38 C37 1.315 . S
O39 Cd29 2.240 . S
O39 C37 1.279 . S
O40 Cd30 2.297 . S
O40 C35 1.247 . S
O41 Cd30 2.439 . S
O41 C35 1.208 . S
O42 Cd43 2.223 . S
O42 C50 1.315 . S
Cd43 O42 2.223 . S
Cd43 O46 2.297 . S
Cd43 O47 2.439 . S
Cd43 O53 2.240 . S
Cd44 O45 2.240 . S
Cd44 O52 2.223 . S
Cd44 O54 2.297 . S
Cd44 O55 2.439 . S
O45 Cd44 2.240 . S
O45 C50 1.279 . S
O46 Cd43 2.297 . S
O46 C48 1.247 . S
O47 Cd43 2.439 . S
O47 C48 1.208 . S
C48 O46 1.247 . S
C48 O47 1.208 . S
C49 O54 1.247 . S
C49 O55 1.208 . S
C50 O42 1.315 . S
C50 O45 1.279 . S
C51 O52 1.315 . S
C51 O53 1.279 . S
O52 Cd44 2.223 . S
O52 C51 1.315 . S
O53 Cd43 2.240 . S
O53 C51 1.279 . S
O54 Cd44 2.297 . S
O54 C49 1.247 . S
O55 Cd44 2.439 . S
O55 C49 1.208 . S
O56 Cd57 2.223 . S
O56 C64 1.315 . S
Cd57 O56 2.223 . S
Cd57 O60 2.297 . S
Cd57 O61 2.439 . S
Cd57 O67 2.240 . S
Cd58 O59 2.240 . S
Cd58 O66 2.223 . S
Cd58 O68 2.297 . S
Cd58 O69 2.439 . S
O59 Cd58 2.240 . S
O59 C64 1.279 . S
O60 Cd57 2.297 . S
O60 C62 1.247 . S
O61 Cd57 2.439 . S
O61 C62 1.208 . S
C62 O60 1.247 . S
C62 O61 1.208 . S
C63 O68 1.247 . S
C63 O69 1.208 . S
C64 O56 1.315 . S
C64 O59 1.279 . S
C65 O66 1.315 . S
C65 O67 1.279 . S
O66 Cd58 2.223 . S
O66 C65 1.315 . S
O67 Cd57 2.240 . S
O67 C65 1.279 . S
O68 Cd58 2.297 . S
O68 C63 1.247 . S
O69 Cd58 2.439 . S
O69 C63 1.208 . S
O70 Cd71 2.223 . S
O70 C78 1.315 . S
Cd71 O70 2.223 . S
Cd71 O74 2.297 . S
Cd71 O75 2.439 . S
Cd71 O81 2.240 . S
Cd72 O73 2.240 . S
Cd72 O80 2.223 . S
Cd72 O82 2.297 . S
Cd72 O83 2.439 . S
O73 Cd72 2.240 . S
O73 C78 1.279 . S
O74 Cd71 2.297 . S
O74 C76 1.247 . S
O75 Cd71 2.439 . S
O75 C76 1.208 . S
C76 O74 1.247 . S
C76 O75 1.208 . S
C77 O82 1.247 . S
C77 O83 1.208 . S
C78 O70 1.315 . S
C78 O73 1.279 . S
C79 O80 1.315 . S
C79 O81 1.279 . S
O80 Cd72 2.223 . S
O80 C79 1.315 . S
O81 Cd71 2.240 . S
O81 C79 1.279 . S
O82 Cd72 2.297 . S
O82 C77 1.247 . S
O83 Cd72 2.439 . S
O83 C77 1.208 . S
O84 Cd85 2.223 . S
O84 C92 1.315 . S
Cd85 O84 2.223 . S
Cd85 O88 2.297 . S
Cd85 O89 2.439 . S
Cd85 O95 2.240 . S
Cd86 O87 2.240 . S
Cd86 O94 2.223 . S
Cd86 O96 2.297 . S
Cd86 O97 2.439 . S
O87 Cd86 2.240 . S
O87 C92 1.279 . S
O88 Cd85 2.297 . S
O88 C90 1.247 . S
O89 Cd85 2.439 . S
O89 C90 1.208 . S
C90 O88 1.247 . S
C90 O89 1.208 . S
C91 O96 1.247 . S
C91 O97 1.208 . S
C92 O84 1.315 . S
C92 O87 1.279 . S
C93 O94 1.315 . S
C93 O95 1.279 . S
O94 Cd86 2.223 . S
O94 C93 1.315 . S
O95 Cd85 2.240 . S
O95 C93 1.279 . S
O96 Cd86 2.297 . S
O96 C91 1.247 . S
O97 Cd86 2.439 . S
O97 C91 1.208 . S
O98 Cd99 2.223 . S
O98 C106 1.315 . S
Cd99 O98 2.223 . S
Cd99 O102 2.297 . S
Cd99 O103 2.439 . S
Cd99 O109 2.240 . S
Cd100 O101 2.240 . S
Cd100 O108 2.223 . S
Cd100 O110 2.297 . S
Cd100 O111 2.439 . S
O101 Cd100 2.240 . S
O101 C106 1.279 . S
O102 Cd99 2.297 . S
O102 C104 1.247 . S
O103 Cd99 2.439 . S
O103 C104 1.208 . S
C104 O102 1.247 . S
C104 O103 1.208 . S
C105 O110 1.247 . S
C105 O111 1.208 . S
C106 O98 1.315 . S
C106 O101 1.279 . S
C107 O108 1.315 . S
C107 O109 1.279 . S
O108 Cd100 2.223 . S
O108 C107 1.315 . S
O109 Cd99 2.240 . S
O109 C107 1.279 . S
O110 Cd100 2.297 . S
O110 C105 1.247 . S
O111 Cd100 2.439 . S
O111 C105 1.208 . S
O112 Cd113 2.223 . S
O112 C120 1.315 . S
Cd113 O112 2.223 . S
Cd113 O116 2.297 . S
Cd113 O117 2.439 . S
Cd113 O123 2.240 . S
Cd114 O115 2.240 . S
Cd114 O122 2.223 . S
Cd114 O124 2.297 . S
Cd114 O125 2.439 . S
O115 Cd114 2.240 . S
O115 C120 1.279 . S
O116 Cd113 2.297 . S
O116 C118 1.247 . S
O117 Cd113 2.439 . S
O117 C118 1.208 . S
C118 O116 1.247 . S
C118 O117 1.208 . S
C119 O124 1.247 . S
C119 O125 1.208 . S
C120 O112 1.315 . S
C120 O115 1.279 . S
C121 O122 1.315 . S
C121 O123 1.279 . S
O122 Cd114 2.223 . S
O122 C121 1.315 . S
O123 Cd113 2.240 . S
O123 C121 1.279 . S
O124 Cd114 2.297 . S
O124 C119 1.247 . S
O125 Cd114 2.439 . S
O125 C119 1.208 . S
O126 Cd127 2.223 . S
O126 C134 1.315 . S
Cd127 O126 2.223 . S
Cd127 O130 2.297 . S
Cd127 O131 2.439 . S
Cd127 O137 2.240 . S
Cd128 O129 2.240 . S
Cd128 O136 2.223 . S
Cd128 O138 2.297 . S
Cd128 O139 2.439 . S
O129 Cd128 2.240 . S
O129 C134 1.279 . S
O130 Cd127 2.297 . S
O130 C132 1.247 . S
O131 Cd127 2.439 . S
O131 C132 1.208 . S
C132 O130 1.247 . S
C132 O131 1.208 . S
C133 O138 1.247 . S
C133 O139 1.208 . S
C134 O126 1.315 . S
C134 O129 1.279 . S
C135 O136 1.315 . S
C135 O137 1.279 . S
O136 Cd128 2.223 . S
O136 C135 1.315 . S
O137 Cd127 2.240 . S
O137 C135 1.279 . S
O138 Cd128 2.297 . S
O138 C133 1.247 . S
O139 Cd128 2.439 . S
O139 C133 1.208 . S
O140 Cd141 2.223 . S
O140 C148 1.315 . S
Cd141 O140 2.223 . S
Cd141 O144 2.297 . S
Cd141 O145 2.439 . S
Cd141 O151 2.240 . S
Cd142 O143 2.240 . S
Cd142 O150 2.223 . S
Cd142 O152 2.297 . S
Cd142 O153 2.439 . S
O143 Cd142 2.240 . S
O143 C148 1.279 . S
O144 Cd141 2.297 . S
O144 C146 1.247 . S
O145 Cd141 2.439 . S
O145 C146 1.208 . S
C146 O144 1.247 . S
C146 O145 1.208 . S
C147 O152 1.247 . S
C147 O153 1.208 . S
C148 O140 1.315 . S
C148 O143 1.279 . S
C149 O150 1.315 . S
C149 O151 1.279 . S
O150 Cd142 2.223 . S
O150 C149 1.315 . S
O151 Cd141 2.240 . S
O151 C149 1.279 . S
O152 Cd142 2.297 . S
O152 C147 1.247 . S
O153 Cd142 2.439 . S
O153 C147 1.208 . S
O154 Cd155 2.223 . S
O154 C162 1.315 . S
Cd155 O154 2.223 . S
Cd155 O158 2.297 . S
Cd155 O159 2.439 . S
Cd155 O165 2.240 . S
Cd156 O157 2.240 . S
Cd156 O164 2.223 . S
Cd156 O166 2.297 . S
Cd156 O167 2.439 . S
O157 Cd156 2.240 . S
O157 C162 1.279 . S
O158 Cd155 2.297 . S
O158 C160 1.247 . S
O159 Cd155 2.439 . S
O159 C160 1.208 . S
C160 O158 1.247 . S
C160 O159 1.208 . S
C161 O166 1.247 . S
C161 O167 1.208 . S
C162 O154 1.315 . S
C162 O157 1.279 . S
C163 O164 1.315 . S
C163 O165 1.279 . S
O164 Cd156 2.223 . S
O164 C163 1.315 . S
O165 Cd155 2.240 . S
O165 C163 1.279 . S
O166 Cd156 2.297 . S
O166 C161 1.247 . S
O167 Cd156 2.439 . S
O167 C161 1.208 . S
O168 Cd169 2.223 . S
O168 C176 1.315 . S
Cd169 O168 2.223 . S
Cd169 O172 2.297 . S
Cd169 O173 2.439 . S
Cd169 O179 2.240 . S
Cd170 O171 2.240 . S
Cd170 O178 2.223 . S
Cd170 O180 2.297 . S
Cd170 O181 2.439 . S
O171 Cd170 2.240 . S
O171 C176 1.279 . S
O172 Cd169 2.297 . S
O172 C174 1.247 . S
O173 Cd169 2.439 . S
O173 C174 1.208 . S
C174 O172 1.247 . S
C174 O173 1.208 . S
C175 O180 1.247 . S
C175 O181 1.208 . S
C176 O168 1.315 . S
C176 O171 1.279 . S
C177 O178 1.315 . S
C177 O179 1.279 . S
O178 Cd170 2.223 . S
O178 C177 1.315 . S
O179 Cd169 2.240 . S
O179 C177 1.279 . S
O180 Cd170 2.297 . S
O180 C175 1.247 . S
O181 Cd170 2.439 . S
O181 C175 1.208 . S
O182 Cd183 2.223 . S
O182 C190 1.315 . S
Cd183 O182 2.223 . S
Cd183 O186 2.297 . S
Cd183 O187 2.439 . S
Cd183 O193 2.240 . S
Cd184 O185 2.240 . S
Cd184 O192 2.223 . S
Cd184 O194 2.297 . S
Cd184 O195 2.439 . S
O185 Cd184 2.240 . S
O185 C190 1.279 . S
O186 Cd183 2.297 . S
O186 C188 1.247 . S
O187 Cd183 2.439 . S
O187 C188 1.208 . S
C188 O186 1.247 . S
C188 O187 1.208 . S
C189 O194 1.247 . S
C189 O195 1.208 . S
C190 O182 1.315 . S
C190 O185 1.279 . S
C191 O192 1.315 . S
C191 O193 1.279 . S
O192 Cd184 2.223 . S
O192 C191 1.315 . S
O193 Cd183 2.240 . S
O193 C191 1.279 . S
O194 Cd184 2.297 . S
O194 C189 1.247 . S
O195 Cd184 2.439 . S
O195 C189 1.208 . S
O196 Cd197 2.223 . S
O196 C204 1.315 . S
Cd197 O196 2.223 . S
Cd197 O200 2.297 . S
Cd197 O201 2.439 . S
Cd197 O207 2.240 . S
Cd198 O199 2.240 . S
Cd198 O206 2.223 . S
Cd198 O208 2.297 . S
Cd198 O209 2.439 . S
O199 Cd198 2.240 . S
O199 C204 1.279 . S
O200 Cd197 2.297 . S
O200 C202 1.247 . S
O201 Cd197 2.439 . S
O201 C202 1.208 . S
C202 O200 1.247 . S
C202 O201 1.208 . S
C203 O208 1.247 . S
C203 O209 1.208 . S
C204 O196 1.315 . S
C204 O199 1.279 . S
C205 O206 1.315 . S
C205 O207 1.279 . S
O206 Cd198 2.223 . S
O206 C205 1.315 . S
O207 Cd197 2.240 . S
O207 C205 1.279 . S
O208 Cd198 2.297 . S
O208 C203 1.247 . S
O209 Cd198 2.439 . S
O209 C203 1.208 . S
O210 Cd211 2.223 . S
O210 C218 1.315 . S
Cd211 O210 2.223 . S
Cd211 O214 2.297 . S
Cd211 O215 2.439 . S
Cd211 O221 2.240 . S
Cd212 O213 2.240 . S
Cd212 O220 2.223 . S
Cd212 O222 2.297 . S
Cd212 O223 2.439 . S
O213 Cd212 2.240 . S
O213 C218 1.279 . S
O214 Cd211 2.297 . S
O214 C216 1.247 . S
O215 Cd211 2.439 . S
O215 C216 1.208 . S
C216 O214 1.247 . S
C216 O215 1.208 . S
C217 O222 1.247 . S
C217 O223 1.208 . S
C218 O210 1.315 . S
C218 O213 1.279 . S
C219 O220 1.315 . S
C219 O221 1.279 . S
O220 Cd212 2.223 . S
O220 C219 1.315 . S
O221 Cd211 2.240 . S
O221 C219 1.279 . S
O222 Cd212 2.297 . S
O222 C217 1.247 . S
O223 Cd212 2.439 . S
O223 C217 1.208 . S
O224 Cd225 2.223 . S
O224 C232 1.315 . S
Cd225 O224 2.223 . S
Cd225 O228 2.297 . S
Cd225 O229 2.439 . S
Cd225 O235 2.240 . S
Cd226 O227 2.240 . S
Cd226 O234 2.223 . S
Cd226 O236 2.297 . S
Cd226 O237 2.439 . S
O227 Cd226 2.240 . S
O227 C232 1.279 . S
O228 Cd225 2.297 . S
O228 C230 1.247 . S
O229 Cd225 2.439 . S
O229 C230 1.208 . S
C230 O228 1.247 . S
C230 O229 1.208 . S
C231 O236 1.247 . S
C231 O237 1.208 . S
C232 O224 1.315 . S
C232 O227 1.279 . S
C233 O234 1.315 . S
C233 O235 1.279 . S
O234 Cd226 2.223 . S
O234 C233 1.315 . S
O235 Cd225 2.240 . S
O235 C233 1.279 . S
O236 Cd226 2.297 . S
O236 C231 1.247 . S
O237 Cd226 2.439 . S
O237 C231 1.208 . S
O238 Cd239 2.223 . S
O238 C246 1.315 . S
Cd239 O238 2.223 . S
Cd239 O242 2.297 . S
Cd239 O243 2.439 . S
Cd239 O249 2.240 . S
Cd240 O241 2.240 . S
Cd240 O248 2.223 . S
Cd240 O250 2.297 . S
Cd240 O251 2.439 . S
O241 Cd240 2.240 . S
O241 C246 1.279 . S
O242 Cd239 2.297 . S
O242 C244 1.247 . S
O243 Cd239 2.439 . S
O243 C244 1.208 . S
C244 O242 1.247 . S
C244 O243 1.208 . S
C245 O250 1.247 . S
C245 O251 1.208 . S
C246 O238 1.315 . S
C246 O241 1.279 . S
C247 O248 1.315 . S
C247 O249 1.279 . S
O248 Cd240 2.223 . S
O248 C247 1.315 . S
O249 Cd239 2.240 . S
O249 C247 1.279 . S
O250 Cd240 2.297 . S
O250 C245 1.247 . S
O251 Cd240 2.439 . S
O251 C245 1.208 . S
O252 Cd253 2.223 . S
O252 C260 1.315 . S
Cd253 O252 2.223 . S
Cd253 O256 2.297 . S
Cd253 O257 2.439 . S
Cd253 O263 2.240 . S
Cd254 O255 2.240 . S
Cd254 O262 2.223 . S
Cd254 O264 2.297 . S
Cd254 O265 2.439 . S
O255 Cd254 2.240 . S
O255 C260 1.279 . S
O256 Cd253 2.297 . S
O256 C258 1.247 . S
O257 Cd253 2.439 . S
O257 C258 1.208 . S
C258 O256 1.247 . S
C258 O257 1.208 . S
C259 O264 1.247 . S
C259 O265 1.208 . S
C260 O252 1.315 . S
C260 O255 1.279 . S
C261 O262 1.315 . S
C261 O263 1.279 . S
O262 Cd254 2.223 . S
O262 C261 1.315 . S
O263 Cd253 2.240 . S
O263 C261 1.279 . S
O264 Cd254 2.297 . S
O264 C259 1.247 . S
O265 Cd254 2.439 . S
O265 C259 1.208 . S
O266 Cd267 2.223 . S
O266 C274 1.315 . S
Cd267 O266 2.223 . S
Cd267 O270 2.297 . S
Cd267 O271 2.439 . S
Cd267 O277 2.240 . S
Cd268 O269 2.240 . S
Cd268 O276 2.223 . S
Cd268 O278 2.297 . S
Cd268 O279 2.439 . S
O269 Cd268 2.240 . S
O269 C274 1.279 . S
O270 Cd267 2.297 . S
O270 C272 1.247 . S
O271 Cd267 2.439 . S
O271 C272 1.208 . S
C272 O270 1.247 . S
C272 O271 1.208 . S
C273 O278 1.247 . S
C273 O279 1.208 . S
C274 O266 1.315 . S
C274 O269 1.279 . S
C275 O276 1.315 . S
C275 O277 1.279 . S
O276 Cd268 2.223 . S
O276 C275 1.315 . S
O277 Cd267 2.240 . S
O277 C275 1.279 . S
O278 Cd268 2.297 . S
O278 C273 1.247 . S
O279 Cd268 2.439 . S
O279 C273 1.208 . S
O280 Cd281 2.223 . S
O280 C288 1.315 . S
Cd281 O280 2.223 . S
Cd281 O284 2.297 . S
Cd281 O285 2.439 . S
Cd281 O291 2.240 . S
Cd282 O283 2.240 . S
Cd282 O290 2.223 . S
Cd282 O292 2.297 . S
Cd282 O293 2.439 . S
O283 Cd282 2.240 . S
O283 C288 1.279 . S
O284 Cd281 2.297 . S
O284 C286 1.247 . S
O285 Cd281 2.439 . S
O285 C286 1.208 . S
C286 O284 1.247 . S
C286 O285 1.208 . S
C287 O292 1.247 . S
C287 O293 1.208 . S
C288 O280 1.315 . S
C288 O283 1.279 . S
C289 O290 1.315 . S
C289 O291 1.279 . S
O290 Cd282 2.223 . S
O290 C289 1.315 . S
O291 Cd281 2.240 . S
O291 C289 1.279 . S
O292 Cd282 2.297 . S
O292 C287 1.247 . S
O293 Cd282 2.439 . S
O293 C287 1.208 . S
O294 Cd295 2.223 . S
O294 C302 1.315 . S
Cd295 O294 2.223 . S
Cd295 O298 2.297 . S
Cd295 O299 2.439 . S
Cd295 O305 2.240 . S
Cd296 O297 2.240 . S
Cd296 O304 2.223 . S
Cd296 O306 2.297 . S
Cd296 O307 2.439 . S
O297 Cd296 2.240 . S
O297 C302 1.279 . S
O298 Cd295 2.297 . S
O298 C300 1.247 . S
O299 Cd295 2.439 . S
O299 C300 1.208 . S
C300 O298 1.247 . S
C300 O299 1.208 . S
C301 O306 1.247 . S
C301 O307 1.208 . S
C302 O294 1.315 . S
C302 O297 1.279 . S
C303 O304 1.315 . S
C303 O305 1.279 . S
O304 Cd296 2.223 . S
O304 C303 1.315 . S
O305 Cd295 2.240 . S
O305 C303 1.279 . S
O306 Cd296 2.297 . S
O306 C301 1.247 . S
O307 Cd296 2.439 . S
O307 C301 1.208 . S
O308 Cd309 2.223 . S
O308 C316 1.315 . S
Cd309 O308 2.223 . S
Cd309 O312 2.297 . S
Cd309 O313 2.439 . S
Cd309 O319 2.240 . S
Cd310 O311 2.240 . S
Cd310 O318 2.223 . S
Cd310 O320 2.297 . S
Cd310 O321 2.439 . S
O311 Cd310 2.240 . S
O311 C316 1.279 . S
O312 Cd309 2.297 . S
O312 C314 1.247 . S
O313 Cd309 2.439 . S
O313 C314 1.208 . S
C314 O312 1.247 . S
C314 O313 1.208 . S
C315 O320 1.247 . S
C315 O321 1.208 . S
C316 O308 1.315 . S
C316 O311 1.279 . S
C317 O318 1.315 . S
C317 O319 1.279 . S
O318 Cd310 2.223 . S
O318 C317 1.315 . S
O319 Cd309 2.240 . S
O319 C317 1.279 . S
O320 Cd310 2.297 . S
O320 C315 1.247 . S
O321 Cd310 2.439 . S
O321 C315 1.208 . S
O322 Cd323 2.223 . S
O322 C330 1.315 . S
Cd323 O322 2.223 . S
Cd323 O326 2.297 . S
Cd323 O327 2.439 . S
Cd323 O333 2.240 . S
Cd324 O325 2.240 . S
Cd324 O332 2.223 . S
Cd324 O334 2.297 . S
Cd324 O335 2.439 . S
O325 Cd324 2.240 . S
O325 C330 1.279 . S
O326 Cd323 2.297 . S
O326 C328 1.247 . S
O327 Cd323 2.439 . S
O327 C328 1.208 . S
C328 O326 1.247 . S
C328 O327 1.208 . S
C329 O334 1.247 . S
C329 O335 1.208 . S
C330 O322 1.315 . S
C330 O325 1.279 . S
C331 O332 1.315 . S
C331 O333 1.279 . S
O332 Cd324 2.223 . S
O332 C331 1.315 . S
O333 Cd323 2.240 . S
O333 C331 1.279 . S
O334 Cd324 2.297 . S
O334 C329 1.247 . S
O335 Cd324 2.439 . S
O335 C329 1.208 . S
O336 Cd337 2.223 . S
O336 C344 1.315 . S
Cd337 O336 2.223 . S
Cd337 O340 2.297 . S
Cd337 O341 2.439 . S
Cd337 O347 2.240 . S
Cd338 O339 2.240 . S
Cd338 O346 2.223 . S
Cd338 O348 2.297 . S
Cd338 O349 2.439 . S
O339 Cd338 2.240 . S
O339 C344 1.279 . S
O340 Cd337 2.297 . S
O340 C342 1.247 . S
O341 Cd337 2.439 . S
O341 C342 1.208 . S
C342 O340 1.247 . S
C342 O341 1.208 . S
C343 O348 1.247 . S
C343 O349 1.208 . S
C344 O336 1.315 . S
C344 O339 1.279 . S
C345 O346 1.315 . S
C345 O347 1.279 . S
O346 Cd338 2.223 . S
O346 C345 1.315 . S
O347 Cd337 2.240 . S
O347 C345 1.279 . S
O348 Cd338 2.297 . S
O348 C343 1.247 . S
O349 Cd338 2.439 . S
O349 C343 1.208 . S
O350 Cd351 2.223 . S
O350 C358 1.315 . S
Cd351 O350 2.223 . S
Cd351 O354 2.297 . S
Cd351 O355 2.439 . S
Cd351 O361 2.240 . S
Cd352 O353 2.240 . S
Cd352 O360 2.223 . S
Cd352 O362 2.297 . S
Cd352 O363 2.439 . S
O353 Cd352 2.240 . S
O353 C358 1.279 . S
O354 Cd351 2.297 . S
O354 C356 1.247 . S
O355 Cd351 2.439 . S
O355 C356 1.208 . S
C356 O354 1.247 . S
C356 O355 1.208 . S
C357 O362 1.247 . S
C357 O363 1.208 . S
C358 O350 1.315 . S
C358 O353 1.279 . S
C359 O360 1.315 . S
C359 O361 1.279 . S
O360 Cd352 2.223 . S
O360 C359 1.315 . S
O361 Cd351 2.240 . S
O361 C359 1.279 . S
O362 Cd352 2.297 . S
O362 C357 1.247 . S
O363 Cd352 2.439 . S
O363 C357 1.208 . S
O364 Cd365 2.223 . S
O364 C372 1.315 . S
Cd365 O364 2.223 . S
Cd365 O368 2.297 . S
Cd365 O369 2.439 . S
Cd365 O375 2.240 . S
Cd366 O367 2.240 . S
Cd366 O374 2.223 . S
Cd366 O376 2.297 . S
Cd366 O377 2.439 . S
O367 Cd366 2.240 . S
O367 C372 1.279 . S
O368 Cd365 2.297 . S
O368 C370 1.247 . S
O369 Cd365 2.439 . S
O369 C370 1.208 . S
C370 O368 1.247 . S
C370 O369 1.208 . S
C371 O376 1.247 . S
C371 O377 1.208 . S
C372 O364 1.315 . S
C372 O367 1.279 . S
C373 O374 1.315 . S
C373 O375 1.279 . S
O374 Cd366 2.223 . S
O374 C373 1.315 . S
O375 Cd365 2.240 . S
O375 C373 1.279 . S
O376 Cd366 2.297 . S
O376 C371 1.247 . S
O377 Cd366 2.439 . S
O377 C371 1.208 . S
O378 Cd379 2.223 . S
O378 C386 1.315 . S
Cd379 O378 2.223 . S
Cd379 O382 2.297 . S
Cd379 O383 2.439 . S
Cd379 O389 2.240 . S
Cd380 O381 2.240 . S
Cd380 O388 2.223 . S
Cd380 O390 2.297 . S
Cd380 O391 2.439 . S
O381 Cd380 2.240 . S
O381 C386 1.279 . S
O382 Cd379 2.297 . S
O382 C384 1.247 . S
O383 Cd379 2.439 . S
O383 C384 1.208 . S
C384 O382 1.247 . S
C384 O383 1.208 . S
C385 O390 1.247 . S
C385 O391 1.208 . S
C386 O378 1.315 . S
C386 O381 1.279 . S
C387 O388 1.315 . S
C387 O389 1.279 . S
O388 Cd380 2.223 . S
O388 C387 1.315 . S
O389 Cd379 2.240 . S
O389 C387 1.279 . S
O390 Cd380 2.297 . S
O390 C385 1.247 . S
O391 Cd380 2.439 . S
O391 C385 1.208 . S
O392 Cd393 2.223 . S
O392 C400 1.315 . S
Cd393 O392 2.223 . S
Cd393 O396 2.297 . S
Cd393 O397 2.439 . S
Cd393 O403 2.240 . S
Cd394 O395 2.240 . S
Cd394 O402 2.223 . S
Cd394 O404 2.297 . S
Cd394 O405 2.439 . S
O395 Cd394 2.240 . S
O395 C400 1.279 . S
O396 Cd393 2.297 . S
O396 C398 1.247 . S
O397 Cd393 2.439 . S
O397 C398 1.208 . S
C398 O396 1.247 . S
C398 O397 1.208 . S
C399 O404 1.247 . S
C399 O405 1.208 . S
C400 O392 1.315 . S
C400 O395 1.279 . S
C401 O402 1.315 . S
C401 O403 1.279 . S
O402 Cd394 2.223 . S
O402 C401 1.315 . S
O403 Cd393 2.240 . S
O403 C401 1.279 . S
O404 Cd394 2.297 . S
O404 C399 1.247 . S
O405 Cd394 2.439 . S
O405 C399 1.208 . S
O406 Cd407 2.223 . S
O406 C414 1.315 . S
Cd407 O406 2.223 . S
Cd407 O410 2.297 . S
Cd407 O411 2.439 . S
Cd407 O417 2.240 . S
Cd408 O409 2.240 . S
Cd408 O416 2.223 . S
Cd408 O418 2.297 . S
Cd408 O419 2.439 . S
O409 Cd408 2.240 . S
O409 C414 1.279 . S
O410 Cd407 2.297 . S
O410 C412 1.247 . S
O411 Cd407 2.439 . S
O411 C412 1.208 . S
C412 O410 1.247 . S
C412 O411 1.208 . S
C413 O418 1.247 . S
C413 O419 1.208 . S
C414 O406 1.315 . S
C414 O409 1.279 . S
C415 O416 1.315 . S
C415 O417 1.279 . S
O416 Cd408 2.223 . S
O416 C415 1.315 . S
O417 Cd407 2.240 . S
O417 C415 1.279 . S
O418 Cd408 2.297 . S
O418 C413 1.247 . S
O419 Cd408 2.439 . S
O419 C413 1.208 . S
O420 Cd421 2.223 . S
O420 C428 1.315 . S
Cd421 O420 2.223 . S
Cd421 O424 2.297 . S
Cd421 O425 2.439 . S
Cd421 O431 2.240 . S
Cd422 O423 2.240 . S
Cd422 O430 2.223 . S
Cd422 O432 2.297 . S
Cd422 O433 2.439 . S
O423 Cd422 2.240 . S
O423 C428 1.279 . S
O424 Cd421 2.297 . S
O424 C426 1.247 . S
O425 Cd421 2.439 . S
O425 C426 1.208 . S
C426 O424 1.247 . S
C426 O425 1.208 . S
C427 O432 1.247 . S
C427 O433 1.208 . S
C428 O420 1.315 . S
C428 O423 1.279 . S
C429 O430 1.315 . S
C429 O431 1.279 . S
O430 Cd422 2.223 . S
O430 C429 1.315 . S
O431 Cd421 2.240 . S
O431 C429 1.279 . S
O432 Cd422 2.297 . S
O432 C427 1.247 . S
O433 Cd422 2.439 . S
O433 C427 1.208 . S
O434 Cd435 2.223 . S
O434 C442 1.315 . S
Cd435 O434 2.223 . S
Cd435 O438 2.297 . S
Cd435 O439 2.439 . S
Cd435 O445 2.240 . S
Cd436 O437 2.240 . S
Cd436 O444 2.223 . S
Cd436 O446 2.297 . S
Cd436 O447 2.439 . S
O437 Cd436 2.240 . S
O437 C442 1.279 . S
O438 Cd435 2.297 . S
O438 C440 1.247 . S
O439 Cd435 2.439 . S
O439 C440 1.208 . S
C440 O438 1.247 . S
C440 O439 1.208 . S
C441 O446 1.247 . S
C441 O447 1.208 . S
C442 O434 1.315 . S
C442 O437 1.279 . S
C443 O444 1.315 . S
C443 O445 1.279 . S
O444 Cd436 2.223 . S
O444 C443 1.315 . S
O445 Cd435 2.240 . S
O445 C443 1.279 . S
O446 Cd436 2.297 . S
O446 C441 1.247 . S
O447 Cd436 2.439 . S
O447 C441 1.208 . S
H448 C454 0.930 . S
H449 C458 0.930 . S
H450 C463 0.929 . S
H451 C461 0.929 . S
H452 C456 0.929 . S
H453 C462 0.929 . S
C454 H448 0.930 . S
C454 C455 1.367 . S
C454 C462 1.378 . S
C455 C454 1.367 . S
C455 C463 1.433 . S
C456 H452 0.929 . S
C456 C458 1.378 . S
C456 C460 1.350 . S
C457 C460 1.463 . S
C457 C462 1.350 . S
C457 N465 1.427 . S
C458 H449 0.930 . S
C458 C456 1.378 . S
C458 C459 1.367 . S
C459 C458 1.367 . S
C459 C461 1.433 . S
C460 C456 1.350 . S
C460 C457 1.463 . S
C460 N464 1.427 . S
C461 H451 0.929 . S
C461 C459 1.433 . S
C461 N464 1.384 . S
C462 H453 0.929 . S
C462 C454 1.378 . S
C462 C457 1.350 . S
C463 H450 0.929 . S
C463 C455 1.433 . S
C463 N465 1.384 . S
N464 C460 1.427 . S
N464 C461 1.384 . S
N465 C457 1.427 . S
N465 C463 1.384 . S
H466 C472 0.930 . S
H467 C476 0.930 . S
H468 C481 0.929 1_455 S
H469 C479 0.929 . S
H470 C474 0.929 . S
H471 C480 0.929 . S
C472 H466 0.930 . S
C472 C473 1.367 . S
C472 C480 1.378 . S
C473 C472 1.367 . S
C473 C481 1.433 . S
C474 H470 0.929 . S
C474 C476 1.378 . S
C474 C478 1.350 . S
C475 C478 1.463 . S
C475 C480 1.350 . S
C475 N483 1.427 . S
C476 H467 0.930 . S
C476 C474 1.378 . S
C476 C477 1.367 . S
C477 C476 1.367 . S
C477 C479 1.433 . S
C478 C474 1.350 . S
C478 C475 1.463 . S
C478 N482 1.427 . S
C479 H469 0.929 . S
C479 C477 1.433 . S
C479 N482 1.384 . S
C480 H471 0.929 . S
C480 C472 1.378 . S
C480 C475 1.350 . S
C481 H468 0.929 1_655 S
C481 C473 1.433 . S
C481 N483 1.384 . S
N482 C478 1.427 . S
N482 C479 1.384 . S
N483 C475 1.427 . S
N483 C481 1.384 . S
H484 C490 0.930 . S
H485 C494 0.930 . S
H486 C499 0.929 . S
H487 C497 0.929 . S
H488 C492 0.929 . S
H489 C498 0.929 . S
C490 H484 0.930 . S
C490 C491 1.367 . S
C490 C498 1.378 . S
C491 C490 1.367 . S
C491 C499 1.433 . S
C492 H488 0.929 . S
C492 C494 1.378 . S
C492 C496 1.350 . S
C493 C496 1.463 . S
C493 C498 1.350 . S
C493 N501 1.427 . S
C494 H485 0.930 . S
C494 C492 1.378 . S
C494 C495 1.367 . S
C495 C494 1.367 . S
C495 C497 1.433 . S
C496 C492 1.350 . S
C496 C493 1.463 . S
C496 N500 1.427 . S
C497 H487 0.929 . S
C497 C495 1.433 . S
C497 N500 1.384 . S
C498 H489 0.929 . S
C498 C490 1.378 . S
C498 C493 1.350 . S
C499 H486 0.929 . S
C499 C491 1.433 . S
C499 N501 1.384 . S
N500 C496 1.427 . S
N500 C497 1.384 . S
N501 C493 1.427 . S
N501 C499 1.384 . S
H502 C508 0.930 . S
H503 C512 0.930 . S
H504 C517 0.929 . S
H505 C515 0.929 . S
H506 C510 0.929 . S
H507 C516 0.929 . S
C508 H502 0.930 . S
C508 C509 1.367 . S
C508 C516 1.378 . S
C509 C508 1.367 . S
C509 C517 1.433 . S
C510 H506 0.929 . S
C510 C512 1.378 . S
C510 C514 1.350 . S
C511 C514 1.463 . S
C511 C516 1.350 . S
C511 N519 1.427 . S
C512 H503 0.930 . S
C512 C510 1.378 . S
C512 C513 1.367 . S
C513 C512 1.367 . S
C513 C515 1.433 . S
C514 C510 1.350 . S
C514 C511 1.463 . S
C514 N518 1.427 . S
C515 H505 0.929 . S
C515 C513 1.433 . S
C515 N518 1.384 . S
C516 H507 0.929 . S
C516 C508 1.378 . S
C516 C511 1.350 . S
C517 H504 0.929 . S
C517 C509 1.433 . S
C517 N519 1.384 . S
N518 C514 1.427 . S
N518 C515 1.384 . S
N519 C511 1.427 . S
N519 C517 1.384 . S
H520 C526 0.930 . S
H521 C530 0.930 . S
H522 C535 0.929 . S
H523 C533 0.929 . S
H524 C528 0.929 . S
H525 C534 0.929 . S
C526 H520 0.930 . S
C526 C527 1.367 . S
C526 C534 1.378 . S
C527 C526 1.367 . S
C527 C535 1.433 . S
C528 H524 0.929 . S
C528 C530 1.378 . S
C528 C532 1.350 . S
C529 C532 1.463 . S
C529 C534 1.350 . S
C529 N537 1.427 . S
C530 H521 0.930 . S
C530 C528 1.378 . S
C530 C531 1.367 . S
C531 C530 1.367 . S
C531 C533 1.433 . S
C532 C528 1.350 . S
C532 C529 1.463 . S
C532 N536 1.427 . S
C533 H523 0.929 . S
C533 C531 1.433 . S
C533 N536 1.384 . S
C534 H525 0.929 . S
C534 C526 1.378 . S
C534 C529 1.350 . S
C535 H522 0.929 . S
C535 C527 1.433 . S
C535 N537 1.384 . S
N536 C532 1.427 . S
N536 C533 1.384 . S
N537 C529 1.427 . S
N537 C535 1.384 . S
H538 C544 0.930 . S
H539 C548 0.930 . S
H540 C553 0.929 . S
H541 C551 0.929 . S
H542 C546 0.929 . S
H543 C552 0.929 . S
C544 H538 0.930 . S
C544 C545 1.367 . S
C544 C552 1.378 . S
C545 C544 1.367 . S
C545 C553 1.433 . S
C546 H542 0.929 . S
C546 C548 1.378 . S
C546 C550 1.350 . S
C547 C550 1.463 . S
C547 C552 1.350 . S
C547 N555 1.427 . S
C548 H539 0.930 . S
C548 C546 1.378 . S
C548 C549 1.367 . S
C549 C548 1.367 . S
C549 C551 1.433 . S
C550 C546 1.350 . S
C550 C547 1.463 . S
C550 N554 1.427 . S
C551 H541 0.929 . S
C551 C549 1.433 . S
C551 N554 1.384 . S
C552 H543 0.929 . S
C552 C544 1.378 . S
C552 C547 1.350 . S
C553 H540 0.929 . S
C553 C545 1.433 . S
C553 N555 1.384 . S
N554 C550 1.427 . S
N554 C551 1.384 . S
N555 C547 1.427 . S
N555 C553 1.384 . S
H556 C562 0.930 . S
H557 C566 0.930 . S
H558 C571 0.929 . S
H559 C569 0.929 . S
H560 C564 0.929 . S
H561 C570 0.929 . S
C562 H556 0.930 . S
C562 C563 1.367 . S
C562 C570 1.378 . S
C563 C562 1.367 . S
C563 C571 1.433 . S
C564 H560 0.929 . S
C564 C566 1.378 . S
C564 C568 1.350 . S
C565 C568 1.463 . S
C565 C570 1.350 . S
C565 N573 1.427 . S
C566 H557 0.930 . S
C566 C564 1.378 . S
C566 C567 1.367 . S
C567 C566 1.367 . S
C567 C569 1.433 . S
C568 C564 1.350 . S
C568 C565 1.463 . S
C568 N572 1.427 . S
C569 H559 0.929 . S
C569 C567 1.433 . S
C569 N572 1.384 . S
C570 H561 0.929 . S
C570 C562 1.378 . S
C570 C565 1.350 . S
C571 H558 0.929 . S
C571 C563 1.433 . S
C571 N573 1.384 . S
N572 C568 1.427 . S
N572 C569 1.384 . S
N573 C565 1.427 . S
N573 C571 1.384 . S
H574 C580 0.930 . S
H575 C584 0.930 . S
H576 C589 0.929 1_455 S
H577 C587 0.929 . S
H578 C582 0.929 . S
H579 C588 0.929 . S
C580 H574 0.930 . S
C580 C581 1.367 . S
C580 C588 1.378 . S
C581 C580 1.367 . S
C581 C589 1.433 . S
C582 H578 0.929 . S
C582 C584 1.378 . S
C582 C586 1.350 . S
C583 C586 1.463 . S
C583 C588 1.350 . S
C583 N591 1.427 . S
C584 H575 0.930 . S
C584 C582 1.378 . S
C584 C585 1.367 . S
C585 C584 1.367 . S
C585 C587 1.433 . S
C586 C582 1.350 . S
C586 C583 1.463 . S
C586 N590 1.427 . S
C587 H577 0.929 . S
C587 C585 1.433 . S
C587 N590 1.384 . S
C588 H579 0.929 . S
C588 C580 1.378 . S
C588 C583 1.350 . S
C589 H576 0.929 1_655 S
C589 C581 1.433 . S
C589 N591 1.384 . S
N590 C586 1.427 . S
N590 C587 1.384 . S
N591 C583 1.427 . S
N591 C589 1.384 . S
H592 C598 0.930 . S
H593 C602 0.930 . S
H594 C607 0.929 . S
H595 C605 0.929 . S
H596 C600 0.929 . S
H597 C606 0.929 . S
C598 H592 0.930 . S
C598 C599 1.367 . S
C598 C606 1.378 . S
C599 C598 1.367 . S
C599 C607 1.433 . S
C600 H596 0.929 . S
C600 C602 1.378 . S
C600 C604 1.350 . S
C601 C604 1.463 . S
C601 C606 1.350 . S
C601 N609 1.427 . S
C602 H593 0.930 . S
C602 C600 1.378 . S
C602 C603 1.367 . S
C603 C602 1.367 . S
C603 C605 1.433 . S
C604 C600 1.350 . S
C604 C601 1.463 . S
C604 N608 1.427 . S
C605 H595 0.929 . S
C605 C603 1.433 . S
C605 N608 1.384 . S
C606 H597 0.929 . S
C606 C598 1.378 . S
C606 C601 1.350 . S
C607 H594 0.929 . S
C607 C599 1.433 . S
C607 N609 1.384 . S
N608 C604 1.427 . S
N608 C605 1.384 . S
N609 C601 1.427 . S
N609 C607 1.384 . S
H610 C616 0.930 . S
H611 C620 0.930 . S
H612 C625 0.929 . S
H613 C623 0.929 1_655 S
H614 C618 0.929 . S
H615 C624 0.929 . S
C616 H610 0.930 . S
C616 C617 1.367 . S
C616 C624 1.378 . S
C617 C616 1.367 . S
C617 C625 1.433 . S
C618 H614 0.929 . S
C618 C620 1.378 . S
C618 C622 1.350 . S
C619 C622 1.463 . S
C619 C624 1.350 . S
C619 N627 1.427 . S
C620 H611 0.930 . S
C620 C618 1.378 . S
C620 C621 1.367 . S
C621 C620 1.367 . S
C621 C623 1.433 . S
C622 C618 1.350 . S
C622 C619 1.463 . S
C622 N626 1.427 . S
C623 H613 0.929 1_455 S
C623 C621 1.433 . S
C623 N626 1.384 . S
C624 H615 0.929 . S
C624 C616 1.378 . S
C624 C619 1.350 . S
C625 H612 0.929 . S
C625 C617 1.433 . S
C625 N627 1.384 . S
N626 C622 1.427 . S
N626 C623 1.384 . S
N627 C619 1.427 . S
N627 C625 1.384 . S
H628 C634 0.930 . S
H629 C638 0.930 . S
H630 C643 0.929 . S
H631 C641 0.929 . S
H632 C636 0.929 . S
H633 C642 0.929 . S
C634 H628 0.930 . S
C634 C635 1.367 . S
C634 C642 1.378 . S
C635 C634 1.367 . S
C635 C643 1.433 . S
C636 H632 0.929 . S
C636 C638 1.378 . S
C636 C640 1.350 . S
C637 C640 1.463 . S
C637 C642 1.350 . S
C637 N645 1.427 . S
C638 H629 0.930 . S
C638 C636 1.378 . S
C638 C639 1.367 . S
C639 C638 1.367 . S
C639 C641 1.433 . S
C640 C636 1.350 . S
C640 C637 1.463 . S
C640 N644 1.427 . S
C641 H631 0.929 . S
C641 C639 1.433 . S
C641 N644 1.384 . S
C642 H633 0.929 . S
C642 C634 1.378 . S
C642 C637 1.350 . S
C643 H630 0.929 . S
C643 C635 1.433 . S
C643 N645 1.384 . S
N644 C640 1.427 . S
N644 C641 1.384 . S
N645 C637 1.427 . S
N645 C643 1.384 . S
H646 C652 0.930 . S
H647 C656 0.930 . S
H648 C661 0.929 . S
H649 C659 0.929 . S
H650 C654 0.929 . S
H651 C660 0.929 . S
C652 H646 0.930 . S
C652 C653 1.367 . S
C652 C660 1.378 . S
C653 C652 1.367 . S
C653 C661 1.433 . S
C654 H650 0.929 . S
C654 C656 1.378 . S
C654 C658 1.350 . S
C655 C658 1.463 . S
C655 C660 1.350 . S
C655 N663 1.427 . S
C656 H647 0.930 . S
C656 C654 1.378 . S
C656 C657 1.367 . S
C657 C656 1.367 . S
C657 C659 1.433 . S
C658 C654 1.350 . S
C658 C655 1.463 . S
C658 N662 1.427 . S
C659 H649 0.929 . S
C659 C657 1.433 . S
C659 N662 1.384 . S
C660 H651 0.929 . S
C660 C652 1.378 . S
C660 C655 1.350 . S
C661 H648 0.929 . S
C661 C653 1.433 . S
C661 N663 1.384 . S
N662 C658 1.427 . S
N662 C659 1.384 . S
N663 C655 1.427 . S
N663 C661 1.384 . S
H664 C670 0.930 . S
H665 C674 0.930 . S
H666 C679 0.929 . S
H667 C677 0.929 . S
H668 C672 0.929 . S
H669 C678 0.929 . S
C670 H664 0.930 . S
C670 C671 1.367 . S
C670 C678 1.378 . S
C671 C670 1.367 . S
C671 C679 1.433 . S
C672 H668 0.929 . S
C672 C674 1.378 . S
C672 C676 1.350 . S
C673 C676 1.463 . S
C673 C678 1.350 . S
C673 N681 1.427 . S
C674 H665 0.930 . S
C674 C672 1.378 . S
C674 C675 1.367 . S
C675 C674 1.367 . S
C675 C677 1.433 . S
C676 C672 1.350 . S
C676 C673 1.463 . S
C676 N680 1.427 . S
C677 H667 0.929 . S
C677 C675 1.433 . S
C677 N680 1.384 . S
C678 H669 0.929 . S
C678 C670 1.378 . S
C678 C673 1.350 . S
C679 H666 0.929 . S
C679 C671 1.433 . S
C679 N681 1.384 . S
N680 C676 1.427 . S
N680 C677 1.384 . S
N681 C673 1.427 . S
N681 C679 1.384 . S
H682 C688 0.930 . S
H683 C692 0.930 . S
H684 C697 0.929 . S
H685 C695 0.929 . S
H686 C690 0.929 . S
H687 C696 0.929 . S
C688 H682 0.930 . S
C688 C689 1.367 . S
C688 C696 1.378 . S
C689 C688 1.367 . S
C689 C697 1.433 . S
C690 H686 0.929 . S
C690 C692 1.378 . S
C690 C694 1.350 . S
C691 C694 1.463 . S
C691 C696 1.350 . S
C691 N699 1.427 . S
C692 H683 0.930 . S
C692 C690 1.378 . S
C692 C693 1.367 . S
C693 C692 1.367 . S
C693 C695 1.433 . S
C694 C690 1.350 . S
C694 C691 1.463 . S
C694 N698 1.427 . S
C695 H685 0.929 . S
C695 C693 1.433 . S
C695 N698 1.384 . S
C696 H687 0.929 . S
C696 C688 1.378 . S
C696 C691 1.350 . S
C697 H684 0.929 . S
C697 C689 1.433 . S
C697 N699 1.384 . S
N698 C694 1.427 . S
N698 C695 1.384 . S
N699 C691 1.427 . S
N699 C697 1.384 . S
H700 C706 0.930 . S
H701 C710 0.930 . S
H702 C715 0.929 . S
H703 C713 0.929 . S
H704 C708 0.929 . S
H705 C714 0.929 . S
C706 H700 0.930 . S
C706 C707 1.367 . S
C706 C714 1.378 . S
C707 C706 1.367 . S
C707 C715 1.433 . S
C708 H704 0.929 . S
C708 C710 1.378 . S
C708 C712 1.350 . S
C709 C712 1.463 . S
C709 C714 1.350 . S
C709 N717 1.427 . S
C710 H701 0.930 . S
C710 C708 1.378 . S
C710 C711 1.367 . S
C711 C710 1.367 . S
C711 C713 1.433 . S
C712 C708 1.350 . S
C712 C709 1.463 . S
C712 N716 1.427 . S
C713 H703 0.929 . S
C713 C711 1.433 . S
C713 N716 1.384 . S
C714 H705 0.929 . S
C714 C706 1.378 . S
C714 C709 1.350 . S
C715 H702 0.929 . S
C715 C707 1.433 . S
C715 N717 1.384 . S
N716 C712 1.427 . S
N716 C713 1.384 . S
N717 C709 1.427 . S
N717 C715 1.384 . S
H718 C724 0.930 . S
H719 C728 0.930 1_655 S
H720 C733 0.929 . S
H721 C731 0.929 . S
H722 C726 0.929 . S
H723 C732 0.929 . S
C724 H718 0.930 . S
C724 C725 1.367 . S
C724 C732 1.378 . S
C725 C724 1.367 . S
C725 C733 1.433 . S
C726 H722 0.929 . S
C726 C728 1.378 . S
C726 C730 1.350 . S
C727 C730 1.463 . S
C727 C732 1.350 . S
C727 N735 1.427 . S
C728 H719 0.930 1_455 S
C728 C726 1.378 . S
C728 C729 1.367 . S
C729 C728 1.367 . S
C729 C731 1.433 . S
C730 C726 1.350 . S
C730 C727 1.463 . S
C730 N734 1.427 . S
C731 H721 0.929 . S
C731 C729 1.433 . S
C731 N734 1.384 . S
C732 H723 0.929 . S
C732 C724 1.378 . S
C732 C727 1.350 . S
C733 H720 0.929 . S
C733 C725 1.433 . S
C733 N735 1.384 . S
N734 C730 1.427 . S
N734 C731 1.384 . S
N735 C727 1.427 . S
N735 C733 1.384 . S
H736 C742 0.930 . S
H737 C746 0.930 . S
H738 C751 0.929 . S
H739 C749 0.929 . S
H740 C744 0.929 . S
H741 C750 0.929 . S
C742 H736 0.930 . S
C742 C743 1.367 . S
C742 C750 1.378 . S
C743 C742 1.367 . S
C743 C751 1.433 . S
C744 H740 0.929 . S
C744 C746 1.378 . S
C744 C748 1.350 . S
C745 C748 1.463 . S
C745 C750 1.350 . S
C745 N753 1.427 . S
C746 H737 0.930 . S
C746 C744 1.378 . S
C746 C747 1.367 . S
C747 C746 1.367 . S
C747 C749 1.433 . S
C748 C744 1.350 . S
C748 C745 1.463 . S
C748 N752 1.427 . S
C749 H739 0.929 . S
C749 C747 1.433 . S
C749 N752 1.384 . S
C750 H741 0.929 . S
C750 C742 1.378 . S
C750 C745 1.350 . S
C751 H738 0.929 . S
C751 C743 1.433 . S
C751 N753 1.384 . S
N752 C748 1.427 . S
N752 C749 1.384 . S
N753 C745 1.427 . S
N753 C751 1.384 . S
H754 C760 0.930 . S
H755 C764 0.930 . S
H756 C769 0.929 . S
H757 C767 0.929 . S
H758 C762 0.929 . S
H759 C768 0.929 . S
C760 H754 0.930 . S
C760 C761 1.367 . S
C760 C768 1.378 . S
C761 C760 1.367 . S
C761 C769 1.433 . S
C762 H758 0.929 . S
C762 C764 1.378 . S
C762 C766 1.350 . S
C763 C766 1.463 . S
C763 C768 1.350 . S
C763 N771 1.427 . S
C764 H755 0.930 . S
C764 C762 1.378 . S
C764 C765 1.367 . S
C765 C764 1.367 . S
C765 C767 1.433 . S
C766 C762 1.350 . S
C766 C763 1.463 . S
C766 N770 1.427 . S
C767 H757 0.929 . S
C767 C765 1.433 . S
C767 N770 1.384 . S
C768 H759 0.929 . S
C768 C760 1.378 . S
C768 C763 1.350 . S
C769 H756 0.929 . S
C769 C761 1.433 . S
C769 N771 1.384 . S
N770 C766 1.427 . S
N770 C767 1.384 . S
N771 C763 1.427 . S
N771 C769 1.384 . S
H772 C778 0.930 . S
H773 C782 0.930 . S
H774 C787 0.929 . S
H775 C785 0.929 . S
H776 C780 0.929 . S
H777 C786 0.929 . S
C778 H772 0.930 . S
C778 C779 1.367 . S
C778 C786 1.378 . S
C779 C778 1.367 . S
C779 C787 1.433 . S
C780 H776 0.929 . S
C780 C782 1.378 . S
C780 C784 1.350 . S
C781 C784 1.463 . S
C781 C786 1.350 . S
C781 N789 1.427 . S
C782 H773 0.930 . S
C782 C780 1.378 . S
C782 C783 1.367 . S
C783 C782 1.367 . S
C783 C785 1.433 . S
C784 C780 1.350 . S
C784 C781 1.463 . S
C784 N788 1.427 . S
C785 H775 0.929 . S
C785 C783 1.433 . S
C785 N788 1.384 . S
C786 H777 0.929 . S
C786 C778 1.378 . S
C786 C781 1.350 . S
C787 H774 0.929 . S
C787 C779 1.433 . S
C787 N789 1.384 . S
N788 C784 1.427 . S
N788 C785 1.384 . S
N789 C781 1.427 . S
N789 C787 1.384 . S
H790 C796 0.930 . S
H791 C800 0.930 1_655 S
H792 C805 0.929 . S
H793 C803 0.929 . S
H794 C798 0.929 . S
H795 C804 0.929 . S
C796 H790 0.930 . S
C796 C797 1.367 . S
C796 C804 1.378 . S
C797 C796 1.367 . S
C797 C805 1.433 . S
C798 H794 0.929 . S
C798 C800 1.378 . S
C798 C802 1.350 . S
C799 C802 1.463 . S
C799 C804 1.350 . S
C799 N807 1.427 . S
C800 H791 0.930 1_455 S
C800 C798 1.378 . S
C800 C801 1.367 . S
C801 C800 1.367 . S
C801 C803 1.433 . S
C802 C798 1.350 . S
C802 C799 1.463 . S
C802 N806 1.427 . S
C803 H793 0.929 . S
C803 C801 1.433 . S
C803 N806 1.384 . S
C804 H795 0.929 . S
C804 C796 1.378 . S
C804 C799 1.350 . S
C805 H792 0.929 . S
C805 C797 1.433 . S
C805 N807 1.384 . S
N806 C802 1.427 . S
N806 C803 1.384 . S
N807 C799 1.427 . S
N807 C805 1.384 . S
H808 C814 0.930 . S
H809 C818 0.930 . S
H810 C823 0.929 . S
H811 C821 0.929 . S
H812 C816 0.929 . S
H813 C822 0.929 . S
C814 H808 0.930 . S
C814 C815 1.367 . S
C814 C822 1.378 . S
C815 C814 1.367 . S
C815 C823 1.433 . S
C816 H812 0.929 . S
C816 C818 1.378 . S
C816 C820 1.350 . S
C817 C820 1.463 . S
C817 C822 1.350 . S
C817 N825 1.427 . S
C818 H809 0.930 . S
C818 C816 1.378 . S
C818 C819 1.367 . S
C819 C818 1.367 . S
C819 C821 1.433 . S
C820 C816 1.350 . S
C820 C817 1.463 . S
C820 N824 1.427 . S
C821 H811 0.929 . S
C821 C819 1.433 . S
C821 N824 1.384 . S
C822 H813 0.929 . S
C822 C814 1.378 . S
C822 C817 1.350 . S
C823 H810 0.929 . S
C823 C815 1.433 . S
C823 N825 1.384 . S
N824 C820 1.427 . S
N824 C821 1.384 . S
N825 C817 1.427 . S
N825 C823 1.384 . S
H826 C832 0.930 . S
H827 C836 0.930 . S
H828 C841 0.929 . S
H829 C839 0.929 . S
H830 C834 0.929 . S
H831 C840 0.929 . S
C832 H826 0.930 . S
C832 C833 1.367 . S
C832 C840 1.378 . S
C833 C832 1.367 . S
C833 C841 1.433 . S
C834 H830 0.929 . S
C834 C836 1.378 . S
C834 C838 1.350 . S
C835 C838 1.463 . S
C835 C840 1.350 . S
C835 N843 1.427 . S
C836 H827 0.930 . S
C836 C834 1.378 . S
C836 C837 1.367 . S
C837 C836 1.367 . S
C837 C839 1.433 . S
C838 C834 1.350 . S
C838 C835 1.463 . S
C838 N842 1.427 . S
C839 H829 0.929 . S
C839 C837 1.433 . S
C839 N842 1.384 . S
C840 H831 0.929 . S
C840 C832 1.378 . S
C840 C835 1.350 . S
C841 H828 0.929 . S
C841 C833 1.433 . S
C841 N843 1.384 . S
N842 C838 1.427 . S
N842 C839 1.384 . S
N843 C835 1.427 . S
N843 C841 1.384 . S
H844 C850 0.930 . S
H845 C854 0.930 . S
H846 C859 0.929 . S
H847 C857 0.929 . S
H848 C852 0.929 . S
H849 C858 0.929 . S
C850 H844 0.930 . S
C850 C851 1.367 . S
C850 C858 1.378 . S
C851 C850 1.367 . S
C851 C859 1.433 . S
C852 H848 0.929 . S
C852 C854 1.378 . S
C852 C856 1.350 . S
C853 C856 1.463 . S
C853 C858 1.350 . S
C853 N861 1.427 . S
C854 H845 0.930 . S
C854 C852 1.378 . S
C854 C855 1.367 . S
C855 C854 1.367 . S
C855 C857 1.433 . S
C856 C852 1.350 . S
C856 C853 1.463 . S
C856 N860 1.427 . S
C857 H847 0.929 . S
C857 C855 1.433 . S
C857 N860 1.384 . S
C858 H849 0.929 . S
C858 C850 1.378 . S
C858 C853 1.350 . S
C859 H846 0.929 . S
C859 C851 1.433 . S
C859 N861 1.384 . S
N860 C856 1.427 . S
N860 C857 1.384 . S
N861 C853 1.427 . S
N861 C859 1.384 . S
H862 C868 0.930 . S
H863 C872 0.930 . S
H864 C877 0.929 . S
H865 C875 0.929 . S
H866 C870 0.929 . S
H867 C876 0.929 . S
C868 H862 0.930 . S
C868 C869 1.367 . S
C868 C876 1.378 . S
C869 C868 1.367 . S
C869 C877 1.433 . S
C870 H866 0.929 . S
C870 C872 1.378 . S
C870 C874 1.350 . S
C871 C874 1.463 . S
C871 C876 1.350 . S
C871 N879 1.427 . S
C872 H863 0.930 . S
C872 C870 1.378 . S
C872 C873 1.367 . S
C873 C872 1.367 . S
C873 C875 1.433 . S
C874 C870 1.350 . S
C874 C871 1.463 . S
C874 N878 1.427 . S
C875 H865 0.929 . S
C875 C873 1.433 . S
C875 N878 1.384 . S
C876 H867 0.929 . S
C876 C868 1.378 . S
C876 C871 1.350 . S
C877 H864 0.929 . S
C877 C869 1.433 . S
C877 N879 1.384 . S
N878 C874 1.427 . S
N878 C875 1.384 . S
N879 C871 1.427 . S
N879 C877 1.384 . S
H880 C886 0.930 . S
H881 C890 0.930 . S
H882 C895 0.929 . S
H883 C893 0.929 . S
H884 C888 0.929 . S
H885 C894 0.929 . S
C886 H880 0.930 . S
C886 C887 1.367 . S
C886 C894 1.378 . S
C887 C886 1.367 . S
C887 C895 1.433 . S
C888 H884 0.929 . S
C888 C890 1.378 . S
C888 C892 1.350 . S
C889 C892 1.463 . S
C889 C894 1.350 . S
C889 N897 1.427 . S
C890 H881 0.930 . S
C890 C888 1.378 . S
C890 C891 1.367 . S
C891 C890 1.367 . S
C891 C893 1.433 . S
C892 C888 1.350 . S
C892 C889 1.463 . S
C892 N896 1.427 . S
C893 H883 0.929 . S
C893 C891 1.433 . S
C893 N896 1.384 . S
C894 H885 0.929 . S
C894 C886 1.378 . S
C894 C889 1.350 . S
C895 H882 0.929 . S
C895 C887 1.433 . S
C895 N897 1.384 . S
N896 C892 1.427 . S
N896 C893 1.384 . S
N897 C889 1.427 . S
N897 C895 1.384 . S
H898 C904 0.930 . S
H899 C908 0.930 . S
H900 C913 0.929 . S
H901 C911 0.929 . S
H902 C906 0.929 . S
H903 C912 0.929 . S
C904 H898 0.930 . S
C904 C905 1.367 . S
C904 C912 1.378 . S
C905 C904 1.367 . S
C905 C913 1.433 . S
C906 H902 0.929 . S
C906 C908 1.378 . S
C906 C910 1.350 . S
C907 C910 1.463 . S
C907 C912 1.350 . S
C907 N915 1.427 . S
C908 H899 0.930 . S
C908 C906 1.378 . S
C908 C909 1.367 . S
C909 C908 1.367 . S
C909 C911 1.433 . S
C910 C906 1.350 . S
C910 C907 1.463 . S
C910 N914 1.427 . S
C911 H901 0.929 . S
C911 C909 1.433 . S
C911 N914 1.384 . S
C912 H903 0.929 . S
C912 C904 1.378 . S
C912 C907 1.350 . S
C913 H900 0.929 . S
C913 C905 1.433 . S
C913 N915 1.384 . S
N914 C910 1.427 . S
N914 C911 1.384 . S
N915 C907 1.427 . S
N915 C913 1.384 . S
H916 C922 0.930 . S
H917 C926 0.930 . S
H918 C931 0.929 . S
H919 C929 0.929 . S
H920 C924 0.929 . S
H921 C930 0.929 . S
C922 H916 0.930 . S
C922 C923 1.367 . S
C922 C930 1.378 . S
C923 C922 1.367 . S
C923 C931 1.433 . S
C924 H920 0.929 . S
C924 C926 1.378 . S
C924 C928 1.350 . S
C925 C928 1.463 . S
C925 C930 1.350 . S
C925 N933 1.427 . S
C926 H917 0.930 . S
C926 C924 1.378 . S
C926 C927 1.367 . S
C927 C926 1.367 . S
C927 C929 1.433 . S
C928 C924 1.350 . S
C928 C925 1.463 . S
C928 N932 1.427 . S
C929 H919 0.929 . S
C929 C927 1.433 . S
C929 N932 1.384 . S
C930 H921 0.929 . S
C930 C922 1.378 . S
C930 C925 1.350 . S
C931 H918 0.929 . S
C931 C923 1.433 . S
C931 N933 1.384 . S
N932 C928 1.427 . S
N932 C929 1.384 . S
N933 C925 1.427 . S
N933 C931 1.384 . S
H934 C940 0.930 . S
H935 C944 0.930 . S
H936 C949 0.929 . S
H937 C947 0.929 . S
H938 C942 0.929 . S
H939 C948 0.929 . S
C940 H934 0.930 . S
C940 C941 1.367 . S
C940 C948 1.378 . S
C941 C940 1.367 . S
C941 C949 1.433 . S
C942 H938 0.929 . S
C942 C944 1.378 . S
C942 C946 1.350 . S
C943 C946 1.463 . S
C943 C948 1.350 . S
C943 N951 1.427 . S
C944 H935 0.930 . S
C944 C942 1.378 . S
C944 C945 1.367 . S
C945 C944 1.367 . S
C945 C947 1.433 . S
C946 C942 1.350 . S
C946 C943 1.463 . S
C946 N950 1.427 . S
C947 H937 0.929 . S
C947 C945 1.433 . S
C947 N950 1.384 . S
C948 H939 0.929 . S
C948 C940 1.378 . S
C948 C943 1.350 . S
C949 H936 0.929 . S
C949 C941 1.433 . S
C949 N951 1.384 . S
N950 C946 1.427 . S
N950 C947 1.384 . S
N951 C943 1.427 . S
N951 C949 1.384 . S
H952 C958 0.930 . S
H953 C962 0.930 . S
H954 C967 0.929 . S
H955 C965 0.929 . S
H956 C960 0.929 . S
H957 C966 0.929 . S
C958 H952 0.930 . S
C958 C959 1.367 . S
C958 C966 1.378 . S
C959 C958 1.367 . S
C959 C967 1.433 . S
C960 H956 0.929 . S
C960 C962 1.378 . S
C960 C964 1.350 . S
C961 C964 1.463 . S
C961 C966 1.350 . S
C961 N969 1.427 . S
C962 H953 0.930 . S
C962 C960 1.378 . S
C962 C963 1.367 . S
C963 C962 1.367 . S
C963 C965 1.433 . S
C964 C960 1.350 . S
C964 C961 1.463 . S
C964 N968 1.427 . S
C965 H955 0.929 . S
C965 C963 1.433 . S
C965 N968 1.384 . S
C966 H957 0.929 . S
C966 C958 1.378 . S
C966 C961 1.350 . S
C967 H954 0.929 . S
C967 C959 1.433 . S
C967 N969 1.384 . S
N968 C964 1.427 . S
N968 C965 1.384 . S
N969 C961 1.427 . S
N969 C967 1.384 . S
H970 C976 0.930 1_455 S
H971 C980 0.930 . S
H972 C985 0.929 . S
H973 C983 0.929 . S
H974 C978 0.929 . S
H975 C984 0.929 . S
C976 H970 0.930 1_655 S
C976 C977 1.367 . S
C976 C984 1.378 . S
C977 C976 1.367 . S
C977 C985 1.433 . S
C978 H974 0.929 . S
C978 C980 1.378 . S
C978 C982 1.350 . S
C979 C982 1.463 . S
C979 C984 1.350 . S
C979 N987 1.427 . S
C980 H971 0.930 . S
C980 C978 1.378 . S
C980 C981 1.367 . S
C981 C980 1.367 . S
C981 C983 1.433 . S
C982 C978 1.350 . S
C982 C979 1.463 . S
C982 N986 1.427 . S
C983 H973 0.929 . S
C983 C981 1.433 . S
C983 N986 1.384 . S
C984 H975 0.929 . S
C984 C976 1.378 . S
C984 C979 1.350 . S
C985 H972 0.929 . S
C985 C977 1.433 . S
C985 N987 1.384 . S
N986 C982 1.427 . S
N986 C983 1.384 . S
N987 C979 1.427 . S
N987 C985 1.384 . S
H988 C994 0.930 . S
H989 C998 0.930 . S
H990 C1003 0.929 . S
H991 C1001 0.929 . S
H992 C996 0.929 . S
H993 C1002 0.929 . S
C994 H988 0.930 . S
C994 C995 1.367 . S
C994 C1002 1.378 . S
C995 C994 1.367 . S
C995 C1003 1.433 . S
C996 H992 0.929 . S
C996 C998 1.378 . S
C996 C1000 1.350 . S
C997 C1000 1.463 . S
C997 C1002 1.350 . S
C997 N1005 1.427 . S
C998 H989 0.930 . S
C998 C996 1.378 . S
C998 C999 1.367 . S
C999 C998 1.367 . S
C999 C1001 1.433 . S
C1000 C996 1.350 . S
C1000 C997 1.463 . S
C1000 N1004 1.427 . S
C1001 H991 0.929 . S
C1001 C999 1.433 . S
C1001 N1004 1.384 . S
C1002 H993 0.929 . S
C1002 C994 1.378 . S
C1002 C997 1.350 . S
C1003 H990 0.929 . S
C1003 C995 1.433 . S
C1003 N1005 1.384 . S
N1004 C1000 1.427 . S
N1004 C1001 1.384 . S
N1005 C997 1.427 . S
N1005 C1003 1.384 . S
H1006 C1012 0.930 . S
H1007 C1016 0.930 . S
H1008 C1021 0.929 . S
H1009 C1019 0.929 . S
H1010 C1014 0.929 . S
H1011 C1020 0.929 . S
C1012 H1006 0.930 . S
C1012 C1013 1.367 . S
C1012 C1020 1.378 . S
C1013 C1012 1.367 . S
C1013 C1021 1.433 . S
C1014 H1010 0.929 . S
C1014 C1016 1.378 . S
C1014 C1018 1.350 . S
C1015 C1018 1.463 . S
C1015 C1020 1.350 . S
C1015 N1023 1.427 . S
C1016 H1007 0.930 . S
C1016 C1014 1.378 . S
C1016 C1017 1.367 . S
C1017 C1016 1.367 . S
C1017 C1019 1.433 . S
C1018 C1014 1.350 . S
C1018 C1015 1.463 . S
C1018 N1022 1.427 . S
C1019 H1009 0.929 . S
C1019 C1017 1.433 . S
C1019 N1022 1.384 . S
C1020 H1011 0.929 . S
C1020 C1012 1.378 . S
C1020 C1015 1.350 . S
C1021 H1008 0.929 . S
C1021 C1013 1.433 . S
C1021 N1023 1.384 . S
N1022 C1018 1.427 . S
N1022 C1019 1.384 . S
N1023 C1015 1.427 . S
N1023 C1021 1.384 . S
H1024 C1030 0.930 . S
H1025 C1034 0.930 . S
H1026 C1039 0.929 . S
H1027 C1037 0.929 . S
H1028 C1032 0.929 . S
H1029 C1038 0.929 . S
C1030 H1024 0.930 . S
C1030 C1031 1.367 . S
C1030 C1038 1.378 . S
C1031 C1030 1.367 . S
C1031 C1039 1.433 . S
C1032 H1028 0.929 . S
C1032 C1034 1.378 . S
C1032 C1036 1.350 . S
C1033 C1036 1.463 . S
C1033 C1038 1.350 . S
C1033 N1041 1.427 . S
C1034 H1025 0.930 . S
C1034 C1032 1.378 . S
C1034 C1035 1.367 . S
C1035 C1034 1.367 . S
C1035 C1037 1.433 . S
C1036 C1032 1.350 . S
C1036 C1033 1.463 . S
C1036 N1040 1.427 . S
C1037 H1027 0.929 . S
C1037 C1035 1.433 . S
C1037 N1040 1.384 . S
C1038 H1029 0.929 . S
C1038 C1030 1.378 . S
C1038 C1033 1.350 . S
C1039 H1026 0.929 . S
C1039 C1031 1.433 . S
C1039 N1041 1.384 . S
N1040 C1036 1.427 . S
N1040 C1037 1.384 . S
N1041 C1033 1.427 . S
N1041 C1039 1.384 . S
H1042 C1048 0.930 1_655 S
H1043 C1052 0.930 1_455 S
H1044 C1057 0.929 . S
H1045 C1055 0.929 . S
H1046 C1050 0.929 . S
H1047 C1056 0.929 . S
C1048 H1042 0.930 1_455 S
C1048 C1049 1.367 . S
C1048 C1056 1.378 1_455 S
C1049 C1048 1.367 . S
C1049 C1057 1.433 1_565 S
C1050 H1046 0.929 . S
C1050 C1052 1.378 1_455 S
C1050 C1054 1.350 1_455 S
C1051 C1054 1.463 1_465 S
C1051 C1056 1.350 1_455 S
C1051 N1059 1.427 1_565 S
C1052 H1043 0.930 1_655 S
C1052 C1050 1.378 1_655 S
C1052 C1053 1.367 . S
C1053 C1052 1.367 . S
C1053 C1055 1.433 1_545 S
C1054 C1050 1.350 1_655 S
C1054 C1051 1.463 1_645 S
C1054 N1058 1.427 1_545 S
C1055 H1045 0.929 . S
C1055 C1053 1.433 1_565 S
C1055 N1058 1.384 . S
C1056 H1047 0.929 . S
C1056 C1048 1.378 1_655 S
C1056 C1051 1.350 1_655 S
C1057 H1044 0.929 . S
C1057 C1049 1.433 1_545 S
C1057 N1059 1.384 . S
N1058 C1054 1.427 1_565 S
N1058 C1055 1.384 . S
N1059 C1051 1.427 1_545 S
N1059 C1057 1.384 . S
H1060 C1066 0.930 . S
H1061 C1070 0.930 . S
H1062 C1075 0.929 . S
H1063 C1073 0.929 . S
H1064 C1068 0.929 . S
H1065 C1074 0.929 . S
C1066 H1060 0.930 . S
C1066 C1067 1.367 . S
C1066 C1074 1.378 . S
C1067 C1066 1.367 . S
C1067 C1075 1.433 . S
C1068 H1064 0.929 . S
C1068 C1070 1.378 . S
C1068 C1072 1.350 . S
C1069 C1072 1.463 . S
C1069 C1074 1.350 . S
C1069 N1077 1.427 . S
C1070 H1061 0.930 . S
C1070 C1068 1.378 . S
C1070 C1071 1.367 . S
C1071 C1070 1.367 . S
C1071 C1073 1.433 . S
C1072 C1068 1.350 . S
C1072 C1069 1.463 . S
C1072 N1076 1.427 . S
C1073 H1063 0.929 . S
C1073 C1071 1.433 . S
C1073 N1076 1.384 . S
C1074 H1065 0.929 . S
C1074 C1066 1.378 . S
C1074 C1069 1.350 . S
C1075 H1062 0.929 . S
C1075 C1067 1.433 . S
C1075 N1077 1.384 . S
N1076 C1072 1.427 . S
N1076 C1073 1.384 . S
N1077 C1069 1.427 . S
N1077 C1075 1.384 . S
H1078 C1084 0.930 . S
H1079 C1088 0.930 . S
H1080 C1093 0.929 . S
H1081 C1091 0.929 . S
H1082 C1086 0.886 1_554 S
H1083 C1092 0.886 1_556 S
C1084 H1078 0.930 . S
C1084 C1085 1.367 . S
C1084 C1092 1.378 . S
C1085 C1084 1.367 . S
C1085 C1093 1.433 1_545 S
C1086 H1082 0.886 1_556 S
C1086 C1088 1.378 . S
C1086 C1090 1.350 . S
C1087 C1090 1.463 1_544 S
C1087 C1092 1.350 . S
C1087 N1095 1.427 1_545 S
C1088 H1079 0.930 . S
C1088 C1086 1.378 . S
C1088 C1089 1.367 . S
C1089 C1088 1.367 . S
C1089 C1091 1.433 1_565 S
C1090 C1086 1.350 . S
C1090 C1087 1.463 1_566 S
C1090 N1094 1.427 1_565 S
C1091 H1081 0.929 . S
C1091 C1089 1.433 1_545 S
C1091 N1094 1.384 . S
C1092 H1083 0.886 1_554 S
C1092 C1084 1.378 . S
C1092 C1087 1.350 . S
C1093 H1080 0.929 . S
C1093 C1085 1.433 1_565 S
C1093 N1095 1.384 . S
N1094 C1090 1.427 1_545 S
N1094 C1091 1.384 . S
N1095 C1087 1.427 1_565 S
N1095 C1093 1.384 . S
H1096 C1102 0.930 . S
H1097 C1106 0.930 . S
H1098 C1111 0.929 . S
H1099 C1109 0.929 . S
H1100 C1104 0.929 . S
H1101 C1110 0.929 . S
C1102 H1096 0.930 . S
C1102 C1103 1.367 . S
C1102 C1110 1.378 . S
C1103 C1102 1.367 . S
C1103 C1111 1.433 . S
C1104 H1100 0.929 . S
C1104 C1106 1.378 . S
C1104 C1108 1.350 . S
C1105 C1108 1.463 . S
C1105 C1110 1.350 . S
C1105 N1113 1.427 . S
C1106 H1097 0.930 . S
C1106 C1104 1.378 . S
C1106 C1107 1.367 . S
C1107 C1106 1.367 . S
C1107 C1109 1.433 . S
C1108 C1104 1.350 . S
C1108 C1105 1.463 . S
C1108 N1112 1.427 . S
C1109 H1099 0.929 . S
C1109 C1107 1.433 . S
C1109 N1112 1.384 . S
C1110 H1101 0.929 . S
C1110 C1102 1.378 . S
C1110 C1105 1.350 . S
C1111 H1098 0.929 . S
C1111 C1103 1.433 . S
C1111 N1113 1.384 . S
N1112 C1108 1.427 . S
N1112 C1109 1.384 . S
N1113 C1105 1.427 . S
N1113 C1111 1.384 . S
H1114 C1120 0.930 . S
H1115 C1124 0.930 . S
H1116 C1129 0.929 . S
H1117 C1127 0.929 . S
H1118 C1122 0.929 . S
H1119 C1128 0.929 . S
C1120 H1114 0.930 . S
C1120 C1121 1.367 1_545 S
C1120 C1128 1.378 . S
C1121 C1120 1.367 1_565 S
C1121 C1129 1.433 . S
C1122 H1118 0.929 . S
C1122 C1124 1.378 . S
C1122 C1126 1.350 1_565 S
C1123 C1126 1.463 1_565 S
C1123 C1128 1.350 1_565 S
C1123 N1131 1.427 . S
C1124 H1115 0.930 . S
C1124 C1122 1.378 . S
C1124 C1125 1.367 1_565 S
C1125 C1124 1.367 1_545 S
C1125 C1127 1.433 . S
C1126 C1122 1.350 1_545 S
C1126 C1123 1.463 1_545 S
C1126 N1130 1.427 . S
C1127 H1117 0.929 . S
C1127 C1125 1.433 . S
C1127 N1130 1.384 . S
C1128 H1119 0.929 . S
C1128 C1120 1.378 . S
C1128 C1123 1.350 1_545 S
C1129 H1116 0.929 . S
C1129 C1121 1.433 . S
C1129 N1131 1.384 . S
N1130 C1126 1.427 . S
N1130 C1127 1.384 . S
N1131 C1123 1.427 . S
N1131 C1129 1.384 . S
H1132 C1138 0.930 . S
H1133 C1142 0.930 . S
H1134 C1147 0.929 . S
H1135 C1145 0.929 . S
H1136 C1140 0.929 . S
H1137 C1146 0.929 . S
C1138 H1132 0.930 . S
C1138 C1139 1.367 . S
C1138 C1146 1.378 . S
C1139 C1138 1.367 . S
C1139 C1147 1.433 . S
C1140 H1136 0.929 . S
C1140 C1142 1.378 . S
C1140 C1144 1.350 . S
C1141 C1144 1.463 . S
C1141 C1146 1.350 . S
C1141 N1149 1.427 . S
C1142 H1133 0.930 . S
C1142 C1140 1.378 . S
C1142 C1143 1.367 . S
C1143 C1142 1.367 . S
C1143 C1145 1.433 . S
C1144 C1140 1.350 . S
C1144 C1141 1.463 . S
C1144 N1148 1.427 . S
C1145 H1135 0.929 . S
C1145 C1143 1.433 . S
C1145 N1148 1.384 . S
C1146 H1137 0.929 . S
C1146 C1138 1.378 . S
C1146 C1141 1.350 . S
C1147 H1134 0.929 . S
C1147 C1139 1.433 . S
C1147 N1149 1.384 . S
N1148 C1144 1.427 . S
N1148 C1145 1.384 . S
N1149 C1141 1.427 . S
N1149 C1147 1.384 . S
H1150 C1156 0.930 . S
H1151 C1160 0.930 . S
H1152 C1165 0.929 1_665 S
H1153 C1163 0.929 1_445 S
H1154 C1158 0.929 1_556 S
H1155 C1164 0.929 1_554 S
C1156 H1150 0.930 . S
C1156 C1157 1.367 . S
C1156 C1164 1.378 . S
C1157 C1156 1.367 . S
C1157 C1165 1.433 . S
C1158 H1154 0.929 1_554 S
C1158 C1160 1.378 . S
C1158 C1162 1.350 . S
C1159 C1162 1.463 1_446 S
C1159 C1164 1.350 . S
C1159 N1167 1.427 1_445 S
C1160 H1151 0.930 . S
C1160 C1158 1.378 . S
C1160 C1161 1.367 . S
C1161 C1160 1.367 . S
C1161 C1163 1.433 . S
C1162 C1158 1.350 . S
C1162 C1159 1.463 1_664 S
C1162 N1166 1.427 1_665 S
C1163 H1153 0.929 1_665 S
C1163 C1161 1.433 . S
C1163 N1166 1.384 1_665 S
C1164 H1155 0.929 1_556 S
C1164 C1156 1.378 . S
C1164 C1159 1.350 . S
C1165 H1152 0.929 1_445 S
C1165 C1157 1.433 . S
C1165 N1167 1.384 1_445 S
N1166 C1162 1.427 1_445 S
N1166 C1163 1.384 1_445 S
N1167 C1159 1.427 1_665 S
N1167 C1165 1.384 1_665 S
H1168 C1174 0.930 . S
H1169 C1178 0.930 . S
H1170 C1183 0.929 . S
H1171 C1181 0.929 . S
H1172 C1176 0.929 . S
H1173 C1182 0.929 . S
C1174 H1168 0.930 . S
C1174 C1175 1.367 . S
C1174 C1182 1.378 . S
C1175 C1174 1.367 . S
C1175 C1183 1.433 . S
C1176 H1172 0.929 . S
C1176 C1178 1.378 . S
C1176 C1180 1.350 . S
C1177 C1180 1.463 . S
C1177 C1182 1.350 . S
C1177 N1185 1.427 . S
C1178 H1169 0.930 . S
C1178 C1176 1.378 . S
C1178 C1179 1.367 . S
C1179 C1178 1.367 . S
C1179 C1181 1.433 . S
C1180 C1176 1.350 . S
C1180 C1177 1.463 . S
C1180 N1184 1.427 . S
C1181 H1171 0.929 . S
C1181 C1179 1.433 . S
C1181 N1184 1.384 . S
C1182 H1173 0.929 . S
C1182 C1174 1.378 . S
C1182 C1177 1.350 . S
C1183 H1170 0.929 . S
C1183 C1175 1.433 . S
C1183 N1185 1.384 . S
N1184 C1180 1.427 . S
N1184 C1181 1.384 . S
N1185 C1177 1.427 . S
N1185 C1183 1.384 . S
H1186 C1192 0.930 . S
H1187 C1196 0.930 . S
H1188 C1201 0.929 . S
H1189 C1199 0.929 . S
H1190 C1194 0.929 . S
H1191 C1200 0.929 . S
C1192 H1186 0.930 . S
C1192 C1193 1.367 . S
C1192 C1200 1.378 . S
C1193 C1192 1.367 . S
C1193 C1201 1.433 . S
C1194 H1190 0.929 . S
C1194 C1196 1.378 . S
C1194 C1198 1.350 . S
C1195 C1198 1.463 . S
C1195 C1200 1.350 . S
C1195 N1203 1.427 . S
C1196 H1187 0.930 . S
C1196 C1194 1.378 . S
C1196 C1197 1.367 . S
C1197 C1196 1.367 . S
C1197 C1199 1.433 . S
C1198 C1194 1.350 . S
C1198 C1195 1.463 . S
C1198 N1202 1.427 . S
C1199 H1189 0.929 . S
C1199 C1197 1.433 . S
C1199 N1202 1.384 . S
C1200 H1191 0.929 . S
C1200 C1192 1.378 . S
C1200 C1195 1.350 . S
C1201 H1188 0.929 . S
C1201 C1193 1.433 . S
C1201 N1203 1.384 . S
N1202 C1198 1.427 . S
N1202 C1199 1.384 . S
N1203 C1195 1.427 . S
N1203 C1201 1.384 . S
H1204 C1210 0.930 . S
H1205 C1214 0.930 . S
H1206 C1219 0.929 . S
H1207 C1217 0.929 . S
H1208 C1212 0.929 . S
H1209 C1218 0.929 . S
C1210 H1204 0.930 . S
C1210 C1211 1.367 . S
C1210 C1218 1.378 . S
C1211 C1210 1.367 . S
C1211 C1219 1.433 . S
C1212 H1208 0.929 . S
C1212 C1214 1.378 . S
C1212 C1216 1.350 . S
C1213 C1216 1.463 . S
C1213 C1218 1.350 . S
C1213 N1221 1.427 . S
C1214 H1205 0.930 . S
C1214 C1212 1.378 . S
C1214 C1215 1.367 . S
C1215 C1214 1.367 . S
C1215 C1217 1.433 . S
C1216 C1212 1.350 . S
C1216 C1213 1.463 . S
C1216 N1220 1.427 . S
C1217 H1207 0.929 . S
C1217 C1215 1.433 . S
C1217 N1220 1.384 . S
C1218 H1209 0.929 . S
C1218 C1210 1.378 . S
C1218 C1213 1.350 . S
C1219 H1206 0.929 . S
C1219 C1211 1.433 . S
C1219 N1221 1.384 . S
N1220 C1216 1.427 . S
N1220 C1217 1.384 . S
N1221 C1213 1.427 . S
N1221 C1219 1.384 . S
H1222 C1228 0.930 . S
H1223 C1232 0.930 . S
H1224 C1237 0.929 . S
H1225 C1235 0.929 . S
H1226 C1230 0.929 . S
H1227 C1236 0.929 . S
C1228 H1222 0.930 . S
C1228 C1229 1.367 . S
C1228 C1236 1.378 . S
C1229 C1228 1.367 . S
C1229 C1237 1.433 . S
C1230 H1226 0.929 . S
C1230 C1232 1.378 . S
C1230 C1234 1.350 . S
C1231 C1234 1.463 . S
C1231 C1236 1.350 . S
C1231 N1239 1.427 . S
C1232 H1223 0.930 . S
C1232 C1230 1.378 . S
C1232 C1233 1.367 . S
C1233 C1232 1.367 . S
C1233 C1235 1.433 . S
C1234 C1230 1.350 . S
C1234 C1231 1.463 . S
C1234 N1238 1.427 . S
C1235 H1225 0.929 . S
C1235 C1233 1.433 . S
C1235 N1238 1.384 . S
C1236 H1227 0.929 . S
C1236 C1228 1.378 . S
C1236 C1231 1.350 . S
C1237 H1224 0.929 . S
C1237 C1229 1.433 . S
C1237 N1239 1.384 . S
N1238 C1234 1.427 . S
N1238 C1235 1.384 . S
N1239 C1231 1.427 . S
N1239 C1237 1.384 . S
H1240 C1246 0.930 . S
H1241 C1250 0.930 . S
H1242 C1255 0.929 . S
H1243 C1253 0.929 . S
H1244 C1248 0.929 . S
H1245 C1254 0.929 . S
C1246 H1240 0.930 . S
C1246 C1247 1.367 . S
C1246 C1254 1.378 . S
C1247 C1246 1.367 . S
C1247 C1255 1.433 . S
C1248 H1244 0.929 . S
C1248 C1250 1.378 . S
C1248 C1252 1.350 . S
C1249 C1252 1.463 1_554 S
C1249 C1254 1.350 . S
C1249 N1257 1.427 . S
C1250 H1241 0.930 . S
C1250 C1248 1.378 . S
C1250 C1251 1.367 . S
C1251 C1250 1.367 . S
C1251 C1253 1.433 . S
C1252 C1248 1.350 . S
C1252 C1249 1.463 1_556 S
C1252 N1256 1.427 . S
C1253 H1243 0.929 . S
C1253 C1251 1.433 . S
C1253 N1256 1.384 . S
C1254 H1245 0.929 . S
C1254 C1246 1.378 . S
C1254 C1249 1.350 . S
C1255 H1242 0.929 . S
C1255 C1247 1.433 . S
C1255 N1257 1.384 . S
N1256 C1252 1.427 . S
N1256 C1253 1.384 . S
N1257 C1249 1.427 . S
N1257 C1255 1.384 . S
H1258 C1264 0.930 . S
H1259 C1268 0.930 . S
H1260 C1273 0.929 1_655 S
H1261 C1271 0.929 1_455 S
H1262 C1266 0.929 . S
H1263 C1272 0.929 . S
C1264 H1258 0.930 . S
C1264 C1265 1.367 . S
C1264 C1272 1.378 . S
C1265 C1264 1.367 . S
C1265 C1273 1.433 . S
C1266 H1262 0.929 . S
C1266 C1268 1.378 . S
C1266 C1270 1.350 . S
C1267 C1270 1.463 1_455 S
C1267 C1272 1.350 . S
C1267 N1275 1.427 1_455 S
C1268 H1259 0.930 . S
C1268 C1266 1.378 . S
C1268 C1269 1.367 . S
C1269 C1268 1.367 . S
C1269 C1271 1.433 . S
C1270 C1266 1.350 . S
C1270 C1267 1.463 1_655 S
C1270 N1274 1.427 1_655 S
C1271 H1261 0.929 1_655 S
C1271 C1269 1.433 . S
C1271 N1274 1.384 1_655 S
C1272 H1263 0.929 . S
C1272 C1264 1.378 . S
C1272 C1267 1.350 . S
C1273 H1260 0.929 1_455 S
C1273 C1265 1.433 . S
C1273 N1275 1.384 1_455 S
N1274 C1270 1.427 1_455 S
N1274 C1271 1.384 1_455 S
N1275 C1267 1.427 1_655 S
N1275 C1273 1.384 1_655 S
H1276 C1282 0.930 . S
H1277 C1286 0.930 . S
H1278 C1291 0.929 . S
H1279 C1289 0.929 . S
H1280 C1284 0.929 . S
H1281 C1290 0.929 . S
C1282 H1276 0.930 . S
C1282 C1283 1.367 . S
C1282 C1290 1.378 . S
C1283 C1282 1.367 . S
C1283 C1291 1.433 . S
C1284 H1280 0.929 . S
C1284 C1286 1.378 . S
C1284 C1288 1.350 . S
C1285 C1288 1.463 1_454 S
C1285 C1290 1.350 . S
C1285 N1293 1.427 . S
C1286 H1277 0.930 . S
C1286 C1284 1.378 . S
C1286 C1287 1.367 . S
C1287 C1286 1.367 . S
C1287 C1289 1.433 . S
C1288 C1284 1.350 . S
C1288 C1285 1.463 1_656 S
C1288 N1292 1.427 . S
C1289 H1279 0.929 . S
C1289 C1287 1.433 . S
C1289 N1292 1.384 . S
C1290 H1281 0.929 . S
C1290 C1282 1.378 . S
C1290 C1285 1.350 . S
C1291 H1278 0.929 . S
C1291 C1283 1.433 . S
C1291 N1293 1.384 . S
N1292 C1288 1.427 . S
N1292 C1289 1.384 . S
N1293 C1285 1.427 . S
N1293 C1291 1.384 . S
H1294 C1300 0.930 . S
H1295 C1304 0.930 . S
H1296 C1309 0.929 . S
H1297 C1307 0.929 . S
H1298 C1302 0.929 . S
H1299 C1308 0.929 . S
C1300 H1294 0.930 . S
C1300 C1301 1.367 . S
C1300 C1308 1.378 . S
C1301 C1300 1.367 . S
C1301 C1309 1.433 . S
C1302 H1298 0.929 . S
C1302 C1304 1.378 . S
C1302 C1306 1.350 . S
C1303 C1306 1.463 . S
C1303 C1308 1.350 . S
C1303 N1311 1.427 . S
C1304 H1295 0.930 . S
C1304 C1302 1.378 . S
C1304 C1305 1.367 . S
C1305 C1304 1.367 . S
C1305 C1307 1.433 . S
C1306 C1302 1.350 . S
C1306 C1303 1.463 . S
C1306 N1310 1.427 . S
C1307 H1297 0.929 . S
C1307 C1305 1.433 . S
C1307 N1310 1.384 . S
C1308 H1299 0.929 . S
C1308 C1300 1.378 . S
C1308 C1303 1.350 . S
C1309 H1296 0.929 . S
C1309 C1301 1.433 . S
C1309 N1311 1.384 . S
N1310 C1306 1.427 . S
N1310 C1307 1.384 . S
N1311 C1303 1.427 . S
N1311 C1309 1.384 . S
H1312 C1318 0.930 . S
H1313 C1322 0.930 . S
H1314 C1327 0.929 . S
H1315 C1325 0.929 1_565 S
H1316 C1320 0.929 . S
H1317 C1326 0.929 . S
C1318 H1312 0.930 . S
C1318 C1319 1.367 . S
C1318 C1326 1.378 . S
C1319 C1318 1.367 . S
C1319 C1327 1.433 . S
C1320 H1316 0.929 . S
C1320 C1322 1.378 . S
C1320 C1324 1.350 . S
C1321 C1324 1.463 . S
C1321 C1326 1.350 . S
C1321 N1329 1.427 . S
C1322 H1313 0.930 . S
C1322 C1320 1.378 . S
C1322 C1323 1.367 . S
C1323 C1322 1.367 . S
C1323 C1325 1.433 . S
C1324 C1320 1.350 . S
C1324 C1321 1.463 . S
C1324 N1328 1.427 . S
C1325 H1315 0.929 1_545 S
C1325 C1323 1.433 . S
C1325 N1328 1.384 . S
C1326 H1317 0.929 . S
C1326 C1318 1.378 . S
C1326 C1321 1.350 . S
C1327 H1314 0.929 . S
C1327 C1319 1.433 . S
C1327 N1329 1.384 . S
N1328 C1324 1.427 . S
N1328 C1325 1.384 . S
N1329 C1321 1.427 . S
N1329 C1327 1.384 . S
H1330 C1336 0.930 . S
H1331 C1340 0.930 . S
H1332 C1345 0.929 . S
H1333 C1343 0.929 . S
H1334 C1338 0.929 . S
H1335 C1344 0.929 . S
C1336 H1330 0.930 . S
C1336 C1337 1.367 . S
C1336 C1344 1.378 . S
C1337 C1336 1.367 . S
C1337 C1345 1.433 . S
C1338 H1334 0.929 . S
C1338 C1340 1.378 . S
C1338 C1342 1.350 . S
C1339 C1342 1.463 . S
C1339 C1344 1.350 . S
C1339 N1347 1.427 . S
C1340 H1331 0.930 . S
C1340 C1338 1.378 . S
C1340 C1341 1.367 . S
C1341 C1340 1.367 . S
C1341 C1343 1.433 . S
C1342 C1338 1.350 . S
C1342 C1339 1.463 . S
C1342 N1346 1.427 . S
C1343 H1333 0.929 . S
C1343 C1341 1.433 . S
C1343 N1346 1.384 . S
C1344 H1335 0.929 . S
C1344 C1336 1.378 . S
C1344 C1339 1.350 . S
C1345 H1332 0.929 . S
C1345 C1337 1.433 . S
C1345 N1347 1.384 . S
N1346 C1342 1.427 . S
N1346 C1343 1.384 . S
N1347 C1339 1.427 . S
N1347 C1345 1.384 . S
H1348 C1354 0.930 . S
H1349 C1358 0.930 . S
H1350 C1363 0.929 . S
H1351 C1361 0.929 . S
H1352 C1356 0.929 . S
H1353 C1362 0.929 . S
C1354 H1348 0.930 . S
C1354 C1355 1.367 . S
C1354 C1362 1.378 . S
C1355 C1354 1.367 . S
C1355 C1363 1.433 . S
C1356 H1352 0.929 . S
C1356 C1358 1.378 . S
C1356 C1360 1.350 . S
C1357 C1360 1.463 . S
C1357 C1362 1.350 . S
C1357 N1365 1.427 . S
C1358 H1349 0.930 . S
C1358 C1356 1.378 . S
C1358 C1359 1.367 . S
C1359 C1358 1.367 . S
C1359 C1361 1.433 . S
C1360 C1356 1.350 . S
C1360 C1357 1.463 . S
C1360 N1364 1.427 . S
C1361 H1351 0.929 . S
C1361 C1359 1.433 . S
C1361 N1364 1.384 . S
C1362 H1353 0.929 . S
C1362 C1354 1.378 . S
C1362 C1357 1.350 . S
C1363 H1350 0.929 . S
C1363 C1355 1.433 . S
C1363 N1365 1.384 . S
N1364 C1360 1.427 . S
N1364 C1361 1.384 . S
N1365 C1357 1.427 . S
N1365 C1363 1.384 . S
H1366 C1372 0.930 . S
H1367 C1376 0.930 . S
H1368 C1381 0.929 . S
H1369 C1379 0.929 . S
H1370 C1374 0.929 . S
H1371 C1380 0.929 . S
C1372 H1366 0.930 . S
C1372 C1373 1.367 . S
C1372 C1380 1.378 . S
C1373 C1372 1.367 . S
C1373 C1381 1.433 . S
C1374 H1370 0.929 . S
C1374 C1376 1.378 . S
C1374 C1378 1.350 . S
C1375 C1378 1.463 . S
C1375 C1380 1.350 . S
C1375 N1383 1.427 . S
C1376 H1367 0.930 . S
C1376 C1374 1.378 . S
C1376 C1377 1.367 . S
C1377 C1376 1.367 . S
C1377 C1379 1.433 . S
C1378 C1374 1.350 . S
C1378 C1375 1.463 . S
C1378 N1382 1.427 . S
C1379 H1369 0.929 . S
C1379 C1377 1.433 . S
C1379 N1382 1.384 . S
C1380 H1371 0.929 . S
C1380 C1372 1.378 . S
C1380 C1375 1.350 . S
C1381 H1368 0.929 . S
C1381 C1373 1.433 . S
C1381 N1383 1.384 . S
N1382 C1378 1.427 . S
N1382 C1379 1.384 . S
N1383 C1375 1.427 . S
N1383 C1381 1.384 . S
H1384 C1390 0.930 . S
H1385 C1394 0.930 . S
H1386 C1399 0.929 . S
H1387 C1397 0.929 1_545 S
H1388 C1392 0.929 . S
H1389 C1398 0.929 . S
C1390 H1384 0.930 . S
C1390 C1391 1.367 . S
C1390 C1398 1.378 . S
C1391 C1390 1.367 . S
C1391 C1399 1.433 . S
C1392 H1388 0.929 . S
C1392 C1394 1.378 . S
C1392 C1396 1.350 . S
C1393 C1396 1.463 . S
C1393 C1398 1.350 . S
C1393 N1401 1.427 . S
C1394 H1385 0.930 . S
C1394 C1392 1.378 . S
C1394 C1395 1.367 . S
C1395 C1394 1.367 . S
C1395 C1397 1.433 . S
C1396 C1392 1.350 . S
C1396 C1393 1.463 . S
C1396 N1400 1.427 . S
C1397 H1387 0.929 1_565 S
C1397 C1395 1.433 . S
C1397 N1400 1.384 . S
C1398 H1389 0.929 . S
C1398 C1390 1.378 . S
C1398 C1393 1.350 . S
C1399 H1386 0.929 . S
C1399 C1391 1.433 . S
C1399 N1401 1.384 . S
N1400 C1396 1.427 . S
N1400 C1397 1.384 . S
N1401 C1393 1.427 . S
N1401 C1399 1.384 . S
H1402 C1408 0.930 1_545 S
H1403 C1412 0.930 . S
H1404 C1417 0.929 . S
H1405 C1415 0.929 . S
H1406 C1410 0.929 . S
H1407 C1416 0.929 . S
C1408 H1402 0.930 1_565 S
C1408 C1409 1.367 . S
C1408 C1416 1.378 . S
C1409 C1408 1.367 . S
C1409 C1417 1.433 . S
C1410 H1406 0.929 . S
C1410 C1412 1.378 . S
C1410 C1414 1.350 . S
C1411 C1414 1.463 . S
C1411 C1416 1.350 . S
C1411 N1419 1.427 . S
C1412 H1403 0.930 . S
C1412 C1410 1.378 . S
C1412 C1413 1.367 . S
C1413 C1412 1.367 . S
C1413 C1415 1.433 . S
C1414 C1410 1.350 . S
C1414 C1411 1.463 . S
C1414 N1418 1.427 . S
C1415 H1405 0.929 . S
C1415 C1413 1.433 . S
C1415 N1418 1.384 . S
C1416 H1407 0.929 . S
C1416 C1408 1.378 . S
C1416 C1411 1.350 . S
C1417 H1404 0.929 . S
C1417 C1409 1.433 . S
C1417 N1419 1.384 . S
N1418 C1414 1.427 . S
N1418 C1415 1.384 . S
N1419 C1411 1.427 . S
N1419 C1417 1.384 . S
H1420 C1426 0.930 . S
H1421 C1430 0.930 . S
H1422 C1435 0.929 . S
H1423 C1433 0.929 1_565 S
H1424 C1428 0.929 . S
H1425 C1434 0.929 . S
C1426 H1420 0.930 . S
C1426 C1427 1.367 . S
C1426 C1434 1.378 . S
C1427 C1426 1.367 . S
C1427 C1435 1.433 . S
C1428 H1424 0.929 . S
C1428 C1430 1.378 . S
C1428 C1432 1.350 . S
C1429 C1432 1.463 . S
C1429 C1434 1.350 . S
C1429 N1437 1.427 . S
C1430 H1421 0.930 . S
C1430 C1428 1.378 . S
C1430 C1431 1.367 . S
C1431 C1430 1.367 . S
C1431 C1433 1.433 . S
C1432 C1428 1.350 . S
C1432 C1429 1.463 . S
C1432 N1436 1.427 . S
C1433 H1423 0.929 1_545 S
C1433 C1431 1.433 . S
C1433 N1436 1.384 . S
C1434 H1425 0.929 . S
C1434 C1426 1.378 . S
C1434 C1429 1.350 . S
C1435 H1422 0.929 . S
C1435 C1427 1.433 . S
C1435 N1437 1.384 . S
N1436 C1432 1.427 . S
N1436 C1433 1.384 . S
N1437 C1429 1.427 . S
N1437 C1435 1.384 . S
H1438 C1444 0.930 . S
H1439 C1448 0.930 . S
H1440 C1453 0.929 . S
H1441 C1451 0.929 . S
H1442 C1446 0.929 . S
H1443 C1452 0.929 . S
C1444 H1438 0.930 . S
C1444 C1445 1.367 . S
C1444 C1452 1.378 . S
C1445 C1444 1.367 . S
C1445 C1453 1.433 . S
C1446 H1442 0.929 . S
C1446 C1448 1.378 . S
C1446 C1450 1.350 . S
C1447 C1450 1.463 . S
C1447 C1452 1.350 . S
C1447 N1455 1.427 . S
C1448 H1439 0.930 . S
C1448 C1446 1.378 . S
C1448 C1449 1.367 . S
C1449 C1448 1.367 . S
C1449 C1451 1.433 . S
C1450 C1446 1.350 . S
C1450 C1447 1.463 . S
C1450 N1454 1.427 . S
C1451 H1441 0.929 . S
C1451 C1449 1.433 . S
C1451 N1454 1.384 . S
C1452 H1443 0.929 . S
C1452 C1444 1.378 . S
C1452 C1447 1.350 . S
C1453 H1440 0.929 . S
C1453 C1445 1.433 . S
C1453 N1455 1.384 . S
N1454 C1450 1.427 . S
N1454 C1451 1.384 . S
N1455 C1447 1.427 . S
N1455 C1453 1.384 . S
H1456 C1462 0.930 . S
H1457 C1466 0.930 . S
H1458 C1471 0.929 . S
H1459 C1469 0.929 . S
H1460 C1464 0.929 . S
H1461 C1470 0.929 . S
C1462 H1456 0.930 . S
C1462 C1463 1.367 . S
C1462 C1470 1.378 . S
C1463 C1462 1.367 . S
C1463 C1471 1.433 . S
C1464 H1460 0.929 . S
C1464 C1466 1.378 . S
C1464 C1468 1.350 . S
C1465 C1468 1.463 . S
C1465 C1470 1.350 . S
C1465 N1473 1.427 . S
C1466 H1457 0.930 . S
C1466 C1464 1.378 . S
C1466 C1467 1.367 . S
C1467 C1466 1.367 . S
C1467 C1469 1.433 . S
C1468 C1464 1.350 . S
C1468 C1465 1.463 . S
C1468 N1472 1.427 . S
C1469 H1459 0.929 . S
C1469 C1467 1.433 . S
C1469 N1472 1.384 . S
C1470 H1461 0.929 . S
C1470 C1462 1.378 . S
C1470 C1465 1.350 . S
C1471 H1458 0.929 . S
C1471 C1463 1.433 . S
C1471 N1473 1.384 . S
N1472 C1468 1.427 . S
N1472 C1469 1.384 . S
N1473 C1465 1.427 . S
N1473 C1471 1.384 . S
H1474 C1480 0.930 . S
H1475 C1484 0.930 . S
H1476 C1489 0.929 . S
H1477 C1487 0.929 . S
H1478 C1482 0.929 . S
H1479 C1488 0.929 . S
C1480 H1474 0.930 . S
C1480 C1481 1.367 . S
C1480 C1488 1.378 . S
C1481 C1480 1.367 . S
C1481 C1489 1.433 . S
C1482 H1478 0.929 . S
C1482 C1484 1.378 . S
C1482 C1486 1.350 . S
C1483 C1486 1.463 . S
C1483 C1488 1.350 . S
C1483 N1491 1.427 . S
C1484 H1475 0.930 . S
C1484 C1482 1.378 . S
C1484 C1485 1.367 . S
C1485 C1484 1.367 . S
C1485 C1487 1.433 . S
C1486 C1482 1.350 . S
C1486 C1483 1.463 . S
C1486 N1490 1.427 . S
C1487 H1477 0.929 . S
C1487 C1485 1.433 . S
C1487 N1490 1.384 . S
C1488 H1479 0.929 . S
C1488 C1480 1.378 . S
C1488 C1483 1.350 . S
C1489 H1476 0.929 . S
C1489 C1481 1.433 . S
C1489 N1491 1.384 . S
N1490 C1486 1.427 . S
N1490 C1487 1.384 . S
N1491 C1483 1.427 . S
N1491 C1489 1.384 . S
H1492 C1498 0.930 . S
H1493 C1502 0.930 . S
H1494 C1507 0.929 . S
H1495 C1505 0.929 . S
H1496 C1500 0.929 . S
H1497 C1506 0.929 . S
C1498 H1492 0.930 . S
C1498 C1499 1.367 . S
C1498 C1506 1.378 . S
C1499 C1498 1.367 . S
C1499 C1507 1.433 . S
C1500 H1496 0.929 . S
C1500 C1502 1.378 . S
C1500 C1504 1.350 . S
C1501 C1504 1.463 . S
C1501 C1506 1.350 . S
C1501 N1509 1.427 . S
C1502 H1493 0.930 . S
C1502 C1500 1.378 . S
C1502 C1503 1.367 . S
C1503 C1502 1.367 . S
C1503 C1505 1.433 . S
C1504 C1500 1.350 . S
C1504 C1501 1.463 . S
C1504 N1508 1.427 . S
C1505 H1495 0.929 . S
C1505 C1503 1.433 . S
C1505 N1508 1.384 . S
C1506 H1497 0.929 . S
C1506 C1498 1.378 . S
C1506 C1501 1.350 . S
C1507 H1494 0.929 . S
C1507 C1499 1.433 . S
C1507 N1509 1.384 . S
N1508 C1504 1.427 . S
N1508 C1505 1.384 . S
N1509 C1501 1.427 . S
N1509 C1507 1.384 . S
H1510 C1516 0.930 . S
H1511 C1520 0.930 . S
H1512 C1525 0.929 . S
H1513 C1523 0.929 . S
H1514 C1518 0.929 . S
H1515 C1524 0.929 . S
C1516 H1510 0.930 . S
C1516 C1517 1.367 . S
C1516 C1524 1.378 . S
C1517 C1516 1.367 . S
C1517 C1525 1.433 . S
C1518 H1514 0.929 . S
C1518 C1520 1.378 . S
C1518 C1522 1.350 . S
C1519 C1522 1.463 . S
C1519 C1524 1.350 . S
C1519 N1527 1.427 . S
C1520 H1511 0.930 . S
C1520 C1518 1.378 . S
C1520 C1521 1.367 . S
C1521 C1520 1.367 . S
C1521 C1523 1.433 . S
C1522 C1518 1.350 . S
C1522 C1519 1.463 . S
C1522 N1526 1.427 . S
C1523 H1513 0.929 . S
C1523 C1521 1.433 . S
C1523 N1526 1.384 . S
C1524 H1515 0.929 . S
C1524 C1516 1.378 . S
C1524 C1519 1.350 . S
C1525 H1512 0.929 . S
C1525 C1517 1.433 . S
C1525 N1527 1.384 . S
N1526 C1522 1.427 . S
N1526 C1523 1.384 . S
N1527 C1519 1.427 . S
N1527 C1525 1.384 . S
H1528 C1534 0.930 . S
H1529 C1538 0.930 . S
H1530 C1543 0.929 . S
H1531 C1541 0.929 . S
H1532 C1536 0.929 . S
H1533 C1542 0.929 . S
C1534 H1528 0.930 . S
C1534 C1535 1.367 . S
C1534 C1542 1.378 . S
C1535 C1534 1.367 . S
C1535 C1543 1.433 . S
C1536 H1532 0.929 . S
C1536 C1538 1.378 . S
C1536 C1540 1.350 . S
C1537 C1540 1.463 . S
C1537 C1542 1.350 . S
C1537 N1545 1.427 . S
C1538 H1529 0.930 . S
C1538 C1536 1.378 . S
C1538 C1539 1.367 . S
C1539 C1538 1.367 . S
C1539 C1541 1.433 . S
C1540 C1536 1.350 . S
C1540 C1537 1.463 . S
C1540 N1544 1.427 . S
C1541 H1531 0.929 . S
C1541 C1539 1.433 . S
C1541 N1544 1.384 . S
C1542 H1533 0.929 . S
C1542 C1534 1.378 . S
C1542 C1537 1.350 . S
C1543 H1530 0.929 . S
C1543 C1535 1.433 . S
C1543 N1545 1.384 . S
N1544 C1540 1.427 . S
N1544 C1541 1.384 . S
N1545 C1537 1.427 . S
N1545 C1543 1.384 . S
H1546 C1552 0.930 . S
H1547 C1556 0.930 . S
H1548 C1561 0.929 . S
H1549 C1559 0.929 . S
H1550 C1554 0.929 . S
H1551 C1560 0.929 . S
C1552 H1546 0.930 . S
C1552 C1553 1.367 . S
C1552 C1560 1.378 . S
C1553 C1552 1.367 . S
C1553 C1561 1.433 . S
C1554 H1550 0.929 . S
C1554 C1556 1.378 . S
C1554 C1558 1.350 . S
C1555 C1558 1.463 . S
C1555 C1560 1.350 . S
C1555 N1563 1.427 . S
C1556 H1547 0.930 . S
C1556 C1554 1.378 . S
C1556 C1557 1.367 . S
C1557 C1556 1.367 . S
C1557 C1559 1.433 . S
C1558 C1554 1.350 . S
C1558 C1555 1.463 . S
C1558 N1562 1.427 . S
C1559 H1549 0.929 . S
C1559 C1557 1.433 . S
C1559 N1562 1.384 . S
C1560 H1551 0.929 . S
C1560 C1552 1.378 . S
C1560 C1555 1.350 . S
C1561 H1548 0.929 . S
C1561 C1553 1.433 . S
C1561 N1563 1.384 . S
N1562 C1558 1.427 . S
N1562 C1559 1.384 . S
N1563 C1555 1.427 . S
N1563 C1561 1.384 . S
H1564 C1570 0.930 . S
H1565 C1574 0.930 . S
H1566 C1579 0.929 . S
H1567 C1577 0.929 . S
H1568 C1572 0.929 . S
H1569 C1578 0.929 . S
C1570 H1564 0.930 . S
C1570 C1571 1.367 . S
C1570 C1578 1.378 . S
C1571 C1570 1.367 . S
C1571 C1579 1.433 . S
C1572 H1568 0.929 . S
C1572 C1574 1.378 . S
C1572 C1576 1.350 . S
C1573 C1576 1.463 . S
C1573 C1578 1.350 . S
C1573 N1581 1.427 . S
C1574 H1565 0.930 . S
C1574 C1572 1.378 . S
C1574 C1575 1.367 . S
C1575 C1574 1.367 . S
C1575 C1577 1.433 . S
C1576 C1572 1.350 . S
C1576 C1573 1.463 . S
C1576 N1580 1.427 . S
C1577 H1567 0.929 . S
C1577 C1575 1.433 . S
C1577 N1580 1.384 . S
C1578 H1569 0.929 . S
C1578 C1570 1.378 . S
C1578 C1573 1.350 . S
C1579 H1566 0.929 . S
C1579 C1571 1.433 . S
C1579 N1581 1.384 . S
N1580 C1576 1.427 . S
N1580 C1577 1.384 . S
N1581 C1573 1.427 . S
N1581 C1579 1.384 . S
H1582 C1588 0.930 . S
H1583 C1592 0.930 . S
H1584 C1597 0.929 . S
H1585 C1595 0.929 . S
H1586 C1590 0.929 . S
H1587 C1596 0.929 . S
C1588 H1582 0.930 . S
C1588 C1589 1.367 . S
C1588 C1596 1.378 . S
C1589 C1588 1.367 . S
C1589 C1597 1.433 . S
C1590 H1586 0.929 . S
C1590 C1592 1.378 . S
C1590 C1594 1.350 . S
C1591 C1594 1.463 . S
C1591 C1596 1.350 . S
C1591 N1599 1.427 . S
C1592 H1583 0.930 . S
C1592 C1590 1.378 . S
C1592 C1593 1.367 . S
C1593 C1592 1.367 . S
C1593 C1595 1.433 . S
C1594 C1590 1.350 . S
C1594 C1591 1.463 . S
C1594 N1598 1.427 . S
C1595 H1585 0.929 . S
C1595 C1593 1.433 . S
C1595 N1598 1.384 . S
C1596 H1587 0.929 . S
C1596 C1588 1.378 . S
C1596 C1591 1.350 . S
C1597 H1584 0.929 . S
C1597 C1589 1.433 . S
C1597 N1599 1.384 . S
N1598 C1594 1.427 . S
N1598 C1595 1.384 . S
N1599 C1591 1.427 . S
N1599 C1597 1.384 . S
C455 C386 1.553 . S
C459 C9 1.548 . S
C473 C23 1.552 1_655 S
C477 C121 1.549 . S
C491 C358 1.545 . S
C495 C37 1.554 . S
C509 C51 1.546 . S
C513 C149 1.550 . S
C527 C65 1.547 . S
C531 C414 1.553 . S
C545 C79 1.551 . S
C549 C205 1.545 . S
C563 C93 1.554 . S
C567 C442 1.547 . S
C581 C107 1.545 1_655 S
C585 C177 1.553 . S
C599 C274 1.552 . S
C603 C120 1.545 . S
C617 C8 1.550 . S
C621 C135 1.552 1_455 S
C635 C246 1.553 . S
C639 C148 1.545 . S
C653 C163 1.554 . S
C657 C36 1.545 . S
C671 C302 1.548 . S
C675 C176 1.548 . S
C689 C92 1.545 . S
C693 C191 1.554 . S
C707 C204 1.553 . S
C711 C330 1.549 . S
C725 C64 1.544 . S
C729 C219 1.554 1_455 S
C743 C233 1.546 . S
C747 C162 1.553 . S
C761 C247 1.545 . S
C765 C345 1.552 . S
C779 C134 1.553 . S
C783 C261 1.546 . S
C797 C373 1.550 . S
C801 C275 1.547 1_455 S
C815 C190 1.552 . S
C819 C289 1.550 . S
C833 C429 1.552 . S
C837 C303 1.545 1_455 S
C851 C218 1.552 . S
C855 C317 1.550 . S
C869 C331 1.553 . S
C873 C401 1.544 . S
C887 C50 1.544 . S
C891 C344 1.554 . S
C905 C359 1.545 . S
C909 C232 1.552 . S
C923 C372 1.546 . S
C927 C22 1.553 . S
C941 C387 1.554 1_655 S
C945 C260 1.546 . S
C959 C400 1.549 . S
C963 C78 1.552 . S
C977 C415 1.553 1_655 S
C981 C316 1.544 . S
C995 C428 1.546 . S
C999 C106 1.554 . S
C1013 C443 1.545 . S
C1017 C288 1.553 . S
C1031 C342 1.479 . S
C1035 C7 1.479 . S
C1049 C21 1.475 . S
C1053 C133 1.475 . S
C1067 C370 1.478 . S
C1071 C35 1.478 . S
C1085 C49 1.474 . S
C1089 C161 1.474 . S
C1103 C398 1.480 . S
C1107 C63 1.480 . S
C1121 C77 1.484 . S
C1125 C189 1.484 . S
C1139 C426 1.484 . S
C1143 C91 1.484 . S
C1157 C105 1.475 . S
C1161 C217 1.475 . S
C1175 C118 1.476 . S
C1179 C231 1.476 . S
C1193 C146 1.481 . S
C1197 C259 1.481 . S
C1211 C174 1.480 . S
C1215 C287 1.480 . S
C1229 C202 1.477 . S
C1233 C315 1.477 . S
C1247 C245 1.484 . S
C1251 C357 1.484 . S
C1265 C385 1.475 . S
C1269 C273 1.475 . S
C1283 C413 1.474 . S
C1287 C301 1.474 . S
C1301 C329 1.474 . S
C1305 C441 1.474 . S
C1319 C6 1.399 . S
C1323 C76 1.397 1_545 S
C1337 C20 1.391 1_545 S
C1341 C90 1.390 . S
C1355 C34 1.391 . S
C1359 C104 1.390 1_565 S
C1373 C62 1.391 . S
C1377 C48 1.390 1_565 S
C1391 C119 1.398 . S
C1395 C188 1.396 1_565 S
C1409 C132 1.398 1_565 S
C1413 C203 1.396 . S
C1427 C147 1.399 . S
C1431 C216 1.397 1_545 S
C1445 C160 1.401 1_545 S
C1449 C175 1.400 . S
C1463 C230 1.398 . S
C1467 C300 1.395 . S
C1481 C314 1.401 . S
C1485 C244 1.401 . S
C1499 C258 1.399 . S
C1503 C328 1.396 . S
C1517 C272 1.401 . S
C1521 C286 1.401 . S
C1535 C412 1.399 . S
C1539 C343 1.401 . S
C1553 C356 1.397 . S
C1557 C427 1.399 . S
C1571 C440 1.396 . S
C1575 C371 1.393 . S
C1589 C384 1.401 . S
C1593 C399 1.400 . S
