# Generated by pormake.
# Topology tfs, (6)-cn, num edge types: 1
# Building blocks:
#     Node 0, Type 0, BuildingBlock: BETGAK_clean_sbu_0, # of connection points: 6
#     Node 1, Type 0, BuildingBlock: BETGAK_clean_sbu_0, # of connection points: 6
#     Node 2, Type 0, BuildingBlock: BETGAK_clean_sbu_0, # of connection points: 6
#     Node 3, Type 0, BuildingBlock: BETGAK_clean_sbu_0, # of connection points: 6
#     Node 4, Type 0, BuildingBlock: BETGAK_clean_sbu_0, # of connection points: 6
#     Node 5, Type 0, BuildingBlock: BETGAK_clean_sbu_0, # of connection points: 6
#     Edge 6, Type (0, 0), BuildingBlock: OJICUG_clean_linker_0, # of connection points: 2
#     Edge 7, Type (0, 0), BuildingBlock: OJICUG_clean_linker_0, # of connection points: 2
#     Edge 8, Type (0, 0), BuildingBlock: OJICUG_clean_linker_0, # of connection points: 2
#     Edge 9, Type (0, 0), BuildingBlock: OJICUG_clean_linker_0, # of connection points: 2
#     Edge 10, Type (0, 0), BuildingBlock: OJICUG_clean_linker_0, # of connection points: 2
#     Edge 11, Type (0, 0), BuildingBlock: OJICUG_clean_linker_0, # of connection points: 2
#     Edge 12, Type (0, 0), BuildingBlock: OJICUG_clean_linker_0, # of connection points: 2
#     Edge 13, Type (0, 0), BuildingBlock: OJICUG_clean_linker_0, # of connection points: 2
#     Edge 14, Type (0, 0), BuildingBlock: OJICUG_clean_linker_0, # of connection points: 2
#     Edge 15, Type (0, 0), BuildingBlock: OJICUG_clean_linker_0, # of connection points: 2
#     Edge 16, Type (0, 0), BuildingBlock: OJICUG_clean_linker_0, # of connection points: 2
#     Edge 17, Type (0, 0), BuildingBlock: OJICUG_clean_linker_0, # of connection points: 2
#     Edge 18, Type (0, 0), BuildingBlock: OJICUG_clean_linker_0, # of connection points: 2
#     Edge 19, Type (0, 0), BuildingBlock: OJICUG_clean_linker_0, # of connection points: 2
#     Edge 20, Type (0, 0), BuildingBlock: OJICUG_clean_linker_0, # of connection points: 2
#     Edge 21, Type (0, 0), BuildingBlock: OJICUG_clean_linker_0, # of connection points: 2
#     Edge 22, Type (0, 0), BuildingBlock: OJICUG_clean_linker_0, # of connection points: 2
#     Edge 23, Type (0, 0), BuildingBlock: OJICUG_clean_linker_0, # of connection points: 2
# Relax obj value: 0.604
# Max RMSD: 0.475
# Mean RMSD: 0.364
data_MOF--net-tfs--node1-BETGAK_clean_sbu_0--edge1-OJICUG_clean_linker_0
_symmetry_space_group_name_H-M    P1
_symmetry_Int_Tables_number       1
_symmetry_cell_setting            triclinic
loop_
_symmetry_equiv_pos_as_xyz
'x, y, z'
_cell_length_a     44.257897
_cell_length_b     41.41652
_cell_length_c     9.9590952
_cell_angle_alpha  97.314623
_cell_angle_beta   90.370573
_cell_angle_gamma 130.03929
loop_
_atom_site_label
_atom_site_type_symbol
_atom_site_fract_x
_atom_site_fract_y
_atom_site_fract_z
_atom_type_partial_charge
La0 La 0.33258 0.45623 0.39207 0.0
La1 La 0.30997 0.51154 0.37391 0.0
C2 C 0.36139 0.42305 0.45948 0.0
C3 C 0.36345 0.38839 0.4268 0.0
C4 C 0.36939 0.37778 0.29545 0.0
C5 C 0.38052 0.35269 0.27325 0.0
C6 C 0.38602 0.33744 0.38157 0.0
C7 C 0.37751 0.34576 0.51108 0.0
C8 C 0.36656 0.37108 0.53339 0.0
C9 C 0.30609 0.45058 0.14436 0.0
C10 C 0.2408 0.4149 0.36631 0.0
C11 C 0.30834 0.57019 0.34895 0.0
C12 C 0.30046 0.59571 0.43069 0.0
C13 C 0.29647 0.59403 0.57007 0.0
C14 C 0.3022 0.62734 0.6571 0.0
C15 C 0.31226 0.66293 0.60602 0.0
C16 C 0.31287 0.66258 0.46459 0.0
C17 C 0.3071 0.6293 0.37785 0.0
C18 C 0.31095 0.49337 0.61774 0.0
C19 C 0.39903 0.5536 0.35318 0.0
O20 O 0.37618 0.45075 0.37645 0.0
O21 O 0.32992 0.41478 0.50766 0.0
O22 O 0.3054 0.42139 0.18243 0.0
O23 O 0.32608 0.48264 0.23671 0.0
O24 O 0.26781 0.41372 0.4215 0.0
O25 O 0.25215 0.44835 0.31193 0.0
O26 O 0.33916 0.5764 0.40147 0.0
O27 O 0.27865 0.52965 0.29978 0.0
O28 O 0.28847 0.50016 0.5733 0.0
O29 O 0.33466 0.50104 0.53247 0.0
O30 O 0.36892 0.55021 0.30774 0.0
O31 O 0.3921 0.52206 0.4086 0.0
H32 H 0.36734 0.39059 0.2109 0.0
H33 H 0.38611 0.34639 0.17161 0.0
H34 H 0.3816 0.33487 0.59718 0.0
H35 H 0.36266 0.3791 0.636 0.0
H36 H 0.29201 0.56874 0.61334 0.0
H37 H 0.30153 0.62665 0.76544 0.0
H38 H 0.31971 0.68911 0.42176 0.0
H39 H 0.31077 0.63146 0.27099 0.0
La40 La 0.87621 0.17497 0.37087 0.0
La41 La 0.79426 0.15018 0.30036 0.0
C42 C 0.94116 0.19401 0.45687 0.0
C43 C 0.98479 0.22682 0.44213 0.0
C44 C 0.99833 0.24456 0.3225 0.0
C45 C 1.03934 0.27372 0.30841 0.0
C46 C 0.06848 0.28635 0.41347 0.0
C47 C 0.05461 0.26854 0.53339 0.0
C48 C 1.0136 0.23938 0.54727 0.0
C49 C 0.85618 0.16784 0.11395 0.0
C50 C 0.79503 0.07711 0.33268 0.0
C51 C 0.7339 0.13814 0.20174 0.0
C52 C 0.71034 0.15252 0.22442 0.0
C53 C 0.68596 0.14096 0.33066 0.0
C54 C 0.65973 0.14932 0.33942 0.0
C55 C 0.65678 0.16935 0.242 0.0
C56 C 0.68157 0.18131 0.13679 0.0
C57 C 0.70783 0.17303 0.12822 0.0
C58 C 0.81424 0.15993 0.55965 0.0
C59 C 0.87433 0.2482 0.33217 0.0
O60 O 0.91757 0.16567 0.34846 0.0
O61 O 0.92459 0.20709 0.52549 0.0
O62 O 0.89227 0.1937 0.17224 0.0
O63 O 0.83282 0.1445 0.19503 0.0
O64 O 0.83141 0.1068 0.40091 0.0
O65 O 0.77926 0.08821 0.25677 0.0
O66 O 0.73293 0.11647 0.28885 0.0
O67 O 0.76917 0.1641 0.16075 0.0
O68 O 0.77809 0.13619 0.5037 0.0
O69 O 0.83767 0.18124 0.47548 0.0
O70 O 0.83552 0.21875 0.29523 0.0
O71 O 0.89583 0.239 0.37773 0.0
H72 H 0.97715 0.23558 0.23887 0.0
H73 H 0.04807 0.28577 0.21339 0.0
H74 H 0.07548 0.2775 0.61806 0.0
H75 H 1.00434 0.22637 0.64076 0.0
H76 H 0.68638 0.12447 0.40575 0.0
H77 H 0.64165 0.13993 0.42284 0.0
H78 H 0.67997 0.1961 0.0581 0.0
H79 H 0.72527 0.1814 0.04311 0.0
La80 La 0.64958 0.79854 0.33595 0.0
La81 La 0.59615 0.82028 0.39673 0.0
C82 C 0.68314 0.77338 0.2197 0.0
C83 C 0.68944 0.74293 0.22768 0.0
C84 C 0.67801 0.7203 0.33658 0.0
C85 C 0.69171 0.69867 0.358 0.0
C86 C 0.71731 0.6997 0.27147 0.0
C87 C 0.72651 0.72031 0.15774 0.0
C88 C 0.71266 0.74167 0.13623 0.0
C89 C 0.64104 0.80904 0.59292 0.0
C90 C 0.68914 0.89613 0.39137 0.0
C91 C 0.57134 0.85402 0.52123 0.0
C92 C 0.59362 0.89602 0.60991 0.0
C93 C 0.62765 0.93359 0.57148 0.0
C94 C 0.65016 0.97259 0.66172 0.0
C95 C 0.63888 0.97479 0.79195 0.0
C96 C 0.60505 0.93674 0.83013 0.0
C97 C 0.58285 0.89791 0.74038 0.0
C98 C 0.60364 0.80698 0.1409 0.0
C99 C 0.55309 0.72236 0.33694 0.0
O100 O 0.64737 0.75808 0.17651 0.0
O101 O 0.69986 0.80435 0.32472 0.0
O102 O 0.6722 0.81575 0.55269 0.0
O103 O 0.6158 0.79304 0.49257 0.0
O104 O 0.6909 0.86771 0.32349 0.0
O105 O 0.65669 0.88302 0.44744 0.0
O106 O 0.57299 0.82721 0.56986 0.0
O107 O 0.5757 0.85395 0.39101 0.0
O108 O 0.57156 0.79841 0.18095 0.0
O109 O 0.62984 0.82529 0.23995 0.0
O110 O 0.54933 0.75144 0.37431 0.0
O111 O 0.58837 0.73334 0.31499 0.0
H112 H 0.66019 0.72114 0.4086 0.0
H113 H 0.6835 0.68254 0.44524 0.0
H114 H 0.74651 0.72238 0.08989 0.0
H115 H 0.72208 0.75937 0.05242 0.0
H116 H 0.63684 0.93293 0.47164 0.0
H117 H 0.67587 1.00106 0.6285 0.0
H118 H 0.59442 0.93696 0.92755 0.0
H119 H 0.55704 0.86927 0.77279 0.0
La120 La 0.93606 0.6235 0.3755 0.0
La121 La 0.97443 0.58516 0.29602 0.0
C122 C 0.91213 0.66007 0.48912 0.0
C123 C 0.8797 0.66034 0.46115 0.0
C124 C 0.84673 0.62825 0.36532 0.0
C125 C 0.81669 0.62988 0.33791 0.0
C126 C 0.81927 0.66372 0.40559 0.0
C127 C 0.85246 0.69563 0.50177 0.0
C128 C 0.88229 0.69387 0.52931 0.0
C129 C 0.94832 0.62011 0.11852 0.0
C130 C 1.02799 0.67791 0.44245 0.0
C131 C 0.99524 0.54525 0.18315 0.0
C132 C 0.98055 0.50158 0.18855 0.0
C133 C 1.0021 0.49625 0.27324 0.0
C134 C 0.98626 0.45542 0.29405 0.0
C135 C 0.94857 0.41879 0.22953 0.0
C136 C 0.92796 0.42406 0.13914 0.0
C137 C 0.94366 0.46492 0.11922 0.0
C138 C 0.95987 0.58522 0.55192 0.0
C139 C 0.88023 0.52868 0.23535 0.0
O140 O 0.90177 0.62434 0.51765 0.0
O141 O 0.93932 0.67678 0.40512 0.0
O142 O 0.91918 0.61702 0.16172 0.0
O143 O 0.97141 0.6287 0.21843 0.0
O144 O 0.99521 0.66787 0.48519 0.0
O145 O 1.0265 0.65299 0.34002 0.0
O146 O 1.01315 0.5723 0.29787 0.0
O147 O 0.97117 0.54826 0.12066 0.0
O148 O 0.98811 0.58671 0.50911 0.0
O149 O 0.93862 0.57924 0.45093 0.0
O150 O 0.91166 0.53183 0.21918 0.0
O151 O 0.88218 0.55935 0.30525 0.0
H152 H 0.84436 0.60215 0.31132 0.0
H153 H 0.79147 0.60464 0.26401 0.0
H154 H 0.85594 0.72265 0.55366 0.0
H155 H 0.90771 0.71906 0.60281 0.0
H156 H 1.03071 0.52384 0.32759 0.0
H157 H 1.00298 0.45282 0.36486 0.0
H158 H 0.89933 0.3966 0.08474 0.0
H159 H 0.92634 0.4677 0.0522 0.0
La160 La 0.32342 0.85538 0.04145 0.0
La161 La 0.41167 0.9166 0.01989 0.0
C162 C 0.25528 0.81692 0.11146 0.0
C163 C 0.22369 0.81244 0.0389 0.0
C164 C 0.23267 0.83342 0.92645 0.0
C165 C 0.20242 0.81991 0.82846 0.0
C166 C 0.16285 0.78589 0.84342 0.0
C167 C 0.15363 0.76747 0.96205 0.0
C168 C 0.18403 0.78043 0.05897 0.0
C169 C 0.34131 0.86796 0.79291 0.0
C170 C 0.37168 0.95681 0.06216 0.0
C171 C 0.48114 0.95839 0.9582 0.0
C172 C 0.52096 1.00073 -0.00475 0.0
C173 C 0.54197 1.01453 0.12492 0.0
C174 C 0.58346 0.04562 0.14183 0.0
C175 C 0.60417 0.06101 0.02731 0.0
C176 C 0.58228 0.05486 0.90827 0.0
C177 C 0.54096 1.02408 0.89142 0.0
C178 C 0.39077 0.90443 0.26579 0.0
C179 C 0.36041 0.81617 0.94987 0.0
O180 O 0.26569 0.79769 0.03807 0.0
O181 O 0.28611 0.85575 0.1705 0.0
O182 O 0.30822 0.83337 0.8199 0.0
O183 O 0.35986 0.89457 0.9002 0.0
O184 O 0.33833 0.9183 0.07616 0.0
O185 O 0.40441 0.96363 0.03587 0.0
O186 O 0.45416 0.95682 0.89442 0.0
O187 O 0.46691 0.93232 0.04698 0.0
O188 O 0.42205 0.94068 0.23884 0.0
O189 O 0.37459 0.87668 0.16053 0.0
O190 O 0.38961 0.85374 0.91624 0.0
O191 O 0.33589 0.81258 0.0341 0.0
H192 H 0.26324 0.8578 0.90847 0.0
H193 H 0.21001 0.83446 0.73774 0.0
H194 H 0.12314 0.7409 -0.02544 0.0
H195 H 0.1767 0.76346 0.1438 0.0
H196 H 0.52693 0.99855 0.20951 0.0
H197 H 0.59897 0.0526 0.23972 0.0
H198 H 0.5963 0.06817 0.81921 0.0
H199 H 0.52512 1.01526 0.79195 0.0
La200 La 0.46832 0.18865 0.30203 0.0
La201 La 0.54125 0.2789 0.28652 0.0
C202 C 0.40798 0.12652 0.3938 0.0
C203 C 0.39878 0.10426 0.51156 0.0
C204 C 0.38274 0.06153 0.49069 0.0
C205 C 0.37338 0.04007 0.60123 0.0
C206 C 0.38009 0.06106 0.73462 0.0
C207 C 0.3954 0.10345 0.7556 0.0
C208 C 0.40416 0.12469 0.64497 0.0
C209 C 0.4812 0.20646 0.05421 0.0
C210 C 0.46471 0.26559 0.32072 0.0
C211 C 0.60195 0.34227 0.20504 0.0
C212 C 0.63983 0.35457 0.16984 0.0
C213 C 0.66442 0.35509 0.26148 0.0
C214 C 0.70256 0.37245 0.23322 0.0
C215 C 0.7165 0.3893 0.11268 0.0
C216 C 0.69015 0.38426 0.01473 0.0
C217 C 0.65218 0.36736 0.04376 0.0
C218 C 0.52566 0.2601 0.53323 0.0
C219 C 0.54861 0.20642 0.27293 0.0
O220 O 0.42213 0.16596 0.42225 0.0
O221 O 0.42607 0.12189 0.29962 0.0
O222 O 0.46266 0.16836 0.08108 0.0
O223 O 0.48715 0.23043 0.1601 0.0
O224 O 0.44843 0.22663 0.34456 0.0
O225 O 0.50033 0.29059 0.2798 0.0
O226 O 0.59603 0.34118 0.33386 0.0
O227 O 0.57063 0.30957 0.12322 0.0
O228 O 0.54155 0.29745 0.50424 0.0
O229 O 0.52183 0.23673 0.4295 0.0
O230 O 0.5622 0.24327 0.23907 0.0
O231 O 0.51374 0.1817 0.3223 0.0
H232 H 0.37764 0.04479 0.38898 0.0
H233 H 0.36193 1.0074 0.58294 0.0
H234 H 0.4007 0.12014 0.85754 0.0
H235 H 0.41559 0.15732 0.66467 0.0
H236 H 0.65506 0.34423 0.35801 0.0
H237 H 0.72212 0.37597 0.31111 0.0
H238 H 0.6999 0.39629 0.91996 0.0
H239 H 0.63315 0.36615 0.97036 0.0
C240 C 0.40991 0.26396 0.40876 0.0
C241 C 0.44253 0.28165 0.33303 0.0
H242 H 0.36647 0.26755 0.48431 0.0
C243 C 0.45515 0.31657 0.27063 0.0
H244 H 0.39942 0.23716 0.45851 0.0
C245 C 0.43623 0.33364 0.2843 0.0
C246 C 0.40412 0.31672 0.36189 0.0
H247 H 0.48003 0.33112 0.21108 0.0
H248 H 0.44761 0.36107 0.23669 0.0
C249 C 0.39116 0.28153 0.42402 0.0
C250 C 0.18159 0.34665 0.44778 0.0
C251 C 0.19671 0.3801 0.3735 0.0
H252 H 0.13033 0.29116 0.51782 0.0
C253 C 0.16902 0.38168 0.31111 0.0
H254 H 0.20161 0.34414 0.49807 0.0
C255 C 0.1281 0.35153 0.32337 0.0
C256 C 0.11276 0.31824 0.39869 0.0
H257 H 0.17897 0.40681 0.25346 0.0
H258 H 0.1086 0.35516 0.27584 0.0
C259 C 0.14043 0.31633 0.46024 0.0
C260 C 0.78451 1.01331 0.40432 0.0
C261 C 0.76959 1.03049 0.34504 0.0
H262 H 0.77125 0.9572 0.46361 0.0
C263 C 0.72862 1.00246 0.29936 0.0
H264 H 0.81578 0.03369 0.44081 0.0
C265 C 0.70339 0.95932 0.31429 0.0
C266 C 0.71798 0.94214 0.37414 0.0
H267 H 0.71556 1.01393 0.25341 0.0
H268 H 0.67212 0.93911 0.27778 0.0
C269 C 0.75903 0.96946 0.41723 0.0
C270 C 0.77238 0.65752 0.23733 0.0
C271 C 0.78862 0.66712 0.3728 0.0
H272 H 0.73619 0.659 0.0992 0.0
C273 C 0.77739 0.68285 0.47584 0.0
H274 H 0.78042 0.64547 0.15521 0.0
C275 C 0.75259 0.69133 0.44349 0.0
C276 C 0.73809 0.68398 0.30722 0.0
H277 H 0.78866 0.68978 0.58161 0.0
H278 H 0.7465 0.70568 0.52505 0.0
C279 C 0.74733 0.66573 0.205 0.0
C280 C 0.13404 0.74784 0.60427 0.0
C281 C 0.13162 0.7658 0.72901 0.0
H282 H 0.10274 0.70554 0.41334 0.0
C283 C 0.09725 0.75989 0.74911 0.0
H284 H 0.16046 0.75203 0.58745 0.0
C285 C 0.06471 0.73414 0.64934 0.0
C286 C 0.06562 0.71292 0.52902 0.0
H287 H 0.09499 0.7737 0.8444 0.0
H288 H 1.038 0.72882 0.67097 0.0
C289 C 0.1011 0.72129 0.50492 0.0
C290 C 0.40405 0.03121 0.03352 0.0
C291 C 0.36907 0.98843 0.02598 0.0
H292 H 0.43477 0.08814 0.94555 0.0
C293 C 0.33504 0.97349 0.94381 0.0
H294 H 0.43071 0.04349 0.09583 0.0
C295 C 0.3377 0.99863 0.85537 0.0
C296 C 0.37404 0.03945 0.8512 0.0
H297 H 0.3077 0.94063 0.93509 0.0
H298 H 0.31222 0.98499 0.78316 0.0
C299 C 0.40645 0.05666 0.94698 0.0
C300 C 0.37172 0.77958 0.76376 0.0
C301 C 0.35072 0.77684 0.87321 0.0
H302 H 0.37604 0.74595 0.59443 0.0
C303 C 0.31774 0.73607 0.89803 0.0
H304 H 0.3972 0.81036 0.74129 0.0
C305 C 0.30538 0.69896 0.81265 0.0
C306 C 0.32553 0.70188 0.70007 0.0
H307 H 0.30076 0.73278 -0.01887 0.0
H308 H 0.27939 0.66806 0.83244 0.0
C309 C 0.35925 0.7426 0.67824 0.0
C310 C 0.61306 0.22417 0.21975 0.0
C311 C 0.57524 0.19557 0.26408 0.0
H312 H 0.66797 0.23909 0.18058 0.0
C313 C 0.56428 0.15784 0.30101 0.0
H314 H 0.62303 0.25373 0.19086 0.0
C315 C 0.59043 0.1492 0.29403 0.0
C316 C 0.62836 0.17803 0.2499 0.0
H317 H 0.53551 0.13494 0.3354 0.0
H318 H 0.58065 0.11959 0.32176 0.0
C319 C 0.63904 0.21561 0.21295 0.0
C320 C 0.51331 0.64551 0.38301 0.0
C321 C 0.5157 0.67642 0.32495 0.0
H322 H 0.4749 0.5825 0.43987 0.0
C323 C 0.48014 0.66495 0.26955 0.0
H324 H 0.54008 0.65343 0.42857 0.0
C325 C 0.44336 0.62487 0.27518 0.0
C326 C 0.44014 0.5943 0.33859 0.0
H327 H 0.48061 0.68769 0.22416 0.0
H328 H 0.41712 0.61856 0.23244 0.0
C329 C 0.47588 0.60492 0.39039 0.0
C330 C 0.95312 0.36376 0.28284 0.0
C331 C 0.9301 0.37549 0.26024 0.0
H332 H 0.95377 0.31462 0.32458 0.0
C333 C 0.88902 0.34555 0.26891 0.0
H334 H 0.98477 0.38575 0.2759 0.0
C335 C 0.87129 0.30477 0.29559 0.0
C336 C 0.89414 0.29281 0.31591 0.0
H337 H 0.8704 0.35362 0.2558 0.0
H338 H 0.83948 0.28251 0.29959 0.0
C339 C 0.93536 0.32294 0.31085 0.0
C340 C 0.65818 0.07611 0.88985 0.0
C341 C 0.64078 0.06614 0.0126 0.0
H342 H 0.66932 0.05167 0.71357 0.0
C343 C 0.64657 0.04338 0.08732 0.0
H344 H 0.6595 0.09804 0.83607 0.0
C345 C 0.65486 1.01864 0.02021 0.0
C346 C 0.65705 1.0166 0.87916 0.0
H347 H 0.63822 0.0384 0.18915 0.0
H348 H 0.65273 0.99601 0.07282 0.0
C349 C 0.66459 0.04987 0.81979 0.0
C350 C 0.81645 0.49501 0.10605 0.0
C351 C 0.84105 0.49013 0.17143 0.0
H352 H 0.75759 0.46631 0.03299 0.0
C353 C 0.82596 0.44939 0.19053 0.0
H354 H 0.8279 0.52628 0.08899 0.0
C355 C 0.78527 0.41458 0.15846 0.0
C356 C 0.75979 0.42044 0.10568 0.0
H357 H 0.84481 0.44521 0.24023 0.0
H358 H 0.77335 0.38394 0.18367 0.0
C359 C 0.77622 0.46043 0.0725 0.0
C360 C 0.27999 0.46465 0.963 0.0
C361 C 0.30327 0.4549 0.00284 0.0
H362 H 0.26385 0.48377 0.80775 0.0
C363 C 0.32867 0.45663 0.91439 0.0
H364 H 0.26093 0.46436 0.03155 0.0
C365 C 0.33151 0.46924 0.78801 0.0
C366 C 0.3083 0.47926 0.74836 0.0
H367 H 0.34771 0.45038 0.94587 0.0
H368 H 0.35238 0.47211 0.72317 0.0
C369 C 0.28204 0.47613 0.83585 0.0
C370 C 0.87435 0.19588 0.89713 0.0
C371 C 0.84503 0.16616 -0.0266 0.0
H372 H 0.88731 0.21765 0.70531 0.0
C373 C 0.80556 0.135 0.91393 0.0
H374 H 0.905 0.22046 0.94179 0.0
C375 C 0.79564 0.13323 0.77866 0.0
C376 C 0.8251 0.16262 0.70185 0.0
H377 H 0.78251 0.11188 0.97134 0.0
H378 H 0.76499 0.10866 0.73397 0.0
C379 C 0.8644 0.19419 0.76205 0.0
C380 C 0.6515 0.82502 -0.02554 0.0
C381 C 0.61232 0.80537 0.00034 0.0
H382 H 0.69147 0.84214 0.82359 0.0
C383 C 0.58248 0.78579 0.89178 0.0
H384 H 0.67505 0.8401 0.05687 0.0
C385 C 0.5919 0.7865 0.75856 0.0
C386 C 0.63136 0.80752 0.73293 0.0
H387 H 0.55206 0.7701 0.90977 0.0
H388 H 0.56825 0.77045 0.67576 0.0
C389 C 0.661 0.82626 0.84143 0.0
C390 C 0.9852 0.61804 0.93379 0.0
C391 C 0.95146 0.61123 -0.0261 0.0
H392 H 1.01419 0.61519 0.76742 0.0
C393 C 0.92011 0.59523 0.87445 0.0
H394 H 1.00969 0.63027 0.0086 0.0
C395 C 0.9225 0.5863 0.73679 0.0
C396 C 0.9564 0.59354 0.69656 0.0
H397 H 0.89355 0.58929 0.90311 0.0
H398 H 0.89775 0.57336 0.66225 0.0
C399 C 0.98766 0.6093 0.79607 0.0
C400 C 0.34478 0.85364 0.41567 0.0
C401 C 0.37729 0.89563 0.39983 0.0
H402 H 0.30792 0.81191 0.5549 0.0
C403 C 0.39693 0.92866 0.51277 0.0
H404 H 0.32906 0.82771 0.32925 0.0
C405 C 0.38466 0.91962 0.64101 0.0
C406 C 0.35285 0.87745 0.65739 0.0
H407 H 0.4218 0.96131 0.50215 0.0
H408 H 0.40004 0.94561 0.72715 0.0
C409 C 0.33264 0.84459 0.54404 0.0
C410 C 0.49382 0.19508 0.8162 0.0
C411 C 0.49198 0.21973 0.92028 0.0
H412 H 0.50573 0.18856 0.61099 0.0
C413 C 0.50146 0.25794 0.89674 0.0
H414 H 0.48686 0.16564 0.83227 0.0
C415 C 0.51286 0.27145 0.77122 0.0
C416 C 0.51446 0.24666 0.66682 0.0
H417 H 0.50005 0.27742 -0.02452 0.0
H418 H 0.52001 0.301 0.75547 0.0
C419 C 0.50477 0.20832 0.69011 0.0
loop_
_geom_bond_atom_site_label_1
_geom_bond_atom_site_label_2
_geom_bond_distance
_geom_bond_site_symmetry_2
_ccdc_geom_bond_type
La0 C2 2.928 . S
La0 O20 2.521 . S
La0 O21 2.628 . S
La0 O22 2.554 . S
La0 O23 2.757 . S
La0 O24 2.470 . S
La0 O29 2.482 1_556 S
La0 O31 2.503 . S
La1 C11 2.928 1_556 S
La1 O23 2.482 . S
La1 O25 2.503 . S
La1 O26 2.521 1_556 S
La1 O27 2.628 . S
La1 O28 2.554 1_556 S
La1 O29 2.757 1_556 S
La1 O30 2.470 1_556 S
C2 La0 2.928 . S
C2 C3 1.503 . S
C2 O20 1.261 . S
C2 O21 1.243 . S
C3 C2 1.503 . S
C3 C4 1.394 . S
C3 C8 1.373 . S
C4 C3 1.394 . S
C4 C5 1.380 . S
C4 H32 0.930 . S
C5 C4 1.380 . S
C5 C6 1.376 . S
C5 H33 0.930 . S
C6 C5 1.376 . S
C6 C7 1.370 . S
C7 C6 1.370 . S
C7 C8 1.396 . S
C7 H34 0.929 . S
C8 C3 1.373 . S
C8 C7 1.396 . S
C8 H35 0.929 1_556 S
C9 O22 1.240 . S
C9 O23 1.289 . S
C10 O24 1.258 . S
C10 O25 1.256 . S
C11 La1 2.928 1_554 S
C11 C12 1.503 . S
C11 O26 1.261 . S
C11 O27 1.243 1_554 S
C12 C11 1.503 . S
C12 C13 1.394 . S
C12 C17 1.373 1_554 S
C13 C12 1.394 . S
C13 C14 1.380 . S
C13 H36 0.930 . S
C14 C13 1.380 . S
C14 C15 1.376 . S
C14 H37 0.930 . S
C15 C14 1.376 . S
C15 C16 1.370 1_554 S
C16 C15 1.370 1_556 S
C16 C17 1.396 . S
C16 H38 0.929 . S
C17 C12 1.373 1_556 S
C17 C16 1.396 . S
C17 H39 0.929 . S
C18 O28 1.240 . S
C18 O29 1.289 . S
C19 O30 1.258 . S
C19 O31 1.256 1_554 S
O20 La0 2.521 . S
O20 C2 1.261 . S
O21 La0 2.628 . S
O21 C2 1.243 . S
O22 La0 2.554 . S
O22 C9 1.240 . S
O23 La0 2.757 . S
O23 La1 2.482 . S
O23 C9 1.289 . S
O24 La0 2.470 . S
O24 C10 1.258 . S
O25 La1 2.503 . S
O25 C10 1.256 . S
O26 La1 2.521 1_554 S
O26 C11 1.261 . S
O27 La1 2.628 . S
O27 C11 1.243 1_556 S
O28 La1 2.554 1_554 S
O28 C18 1.240 . S
O29 La0 2.482 1_554 S
O29 La1 2.757 1_554 S
O29 C18 1.289 . S
O30 La1 2.470 1_554 S
O30 C19 1.258 . S
O31 La0 2.503 . S
O31 C19 1.256 1_556 S
H32 C4 0.930 . S
H33 C5 0.930 . S
H34 C7 0.929 . S
H35 C8 0.929 1_554 S
H36 C13 0.930 . S
H37 C14 0.930 . S
H38 C16 0.929 . S
H39 C17 0.929 . S
La40 C42 2.928 . S
La40 O60 2.521 . S
La40 O61 2.628 . S
La40 O62 2.554 1_554 S
La40 O63 2.757 1_554 S
La40 O64 2.470 . S
La40 O69 2.482 . S
La40 O71 2.503 . S
La41 C51 2.928 1_554 S
La41 O63 2.482 1_554 S
La41 O65 2.503 . S
La41 O66 2.521 . S
La41 O67 2.628 1_554 S
La41 O68 2.554 . S
La41 O69 2.757 . S
La41 O70 2.470 . S
C42 La40 2.928 . S
C42 C43 1.503 . S
C42 O60 1.261 . S
C42 O61 1.243 . S
C43 C42 1.503 . S
C43 C44 1.394 . S
C43 C48 1.373 . S
C44 C43 1.394 . S
C44 C45 1.380 1_655 S
C44 H72 0.930 . S
C45 C44 1.380 1_455 S
C45 C46 1.376 . S
C45 H73 0.930 . S
C46 C45 1.376 . S
C46 C47 1.370 . S
C47 C46 1.370 . S
C47 C48 1.396 1_455 S
C47 H74 0.929 . S
C48 C43 1.373 . S
C48 C47 1.396 1_655 S
C48 H75 0.929 . S
C49 O62 1.240 . S
C49 O63 1.289 . S
C50 O64 1.258 . S
C50 O65 1.256 . S
C51 La41 2.928 1_556 S
C51 C52 1.503 . S
C51 O66 1.261 1_556 S
C51 O67 1.243 . S
C52 C51 1.503 . S
C52 C53 1.394 . S
C52 C57 1.373 . S
C53 C52 1.394 . S
C53 C54 1.380 . S
C53 H76 0.930 1_556 S
C54 C53 1.380 . S
C54 C55 1.376 . S
C54 H77 0.930 1_556 S
C55 C54 1.376 . S
C55 C56 1.370 . S
C56 C55 1.370 . S
C56 C57 1.396 . S
C56 H78 0.929 . S
C57 C52 1.373 . S
C57 C56 1.396 . S
C57 H79 0.929 . S
C58 O68 1.240 . S
C58 O69 1.289 . S
C59 O70 1.258 . S
C59 O71 1.256 . S
O60 La40 2.521 . S
O60 C42 1.261 . S
O61 La40 2.628 . S
O61 C42 1.243 . S
O62 La40 2.554 1_556 S
O62 C49 1.240 . S
O63 La40 2.757 1_556 S
O63 La41 2.482 1_556 S
O63 C49 1.289 . S
O64 La40 2.470 . S
O64 C50 1.258 . S
O65 La41 2.503 . S
O65 C50 1.256 . S
O66 La41 2.521 . S
O66 C51 1.261 1_554 S
O67 La41 2.628 1_556 S
O67 C51 1.243 . S
O68 La41 2.554 . S
O68 C58 1.240 . S
O69 La40 2.482 . S
O69 La41 2.757 . S
O69 C58 1.289 . S
O70 La41 2.470 . S
O70 C59 1.258 . S
O71 La40 2.503 . S
O71 C59 1.256 . S
H72 C44 0.930 . S
H73 C45 0.930 . S
H74 C47 0.929 . S
H75 C48 0.929 . S
H76 C53 0.930 1_554 S
H77 C54 0.930 1_554 S
H78 C56 0.929 . S
H79 C57 0.929 . S
La80 C82 2.928 . S
La80 O100 2.521 1_556 S
La80 O101 2.628 . S
La80 O102 2.554 1_556 S
La80 O103 2.757 1_556 S
La80 O104 2.470 1_556 S
La80 O109 2.482 . S
La80 O111 2.503 1_556 S
La81 C91 2.928 . S
La81 O103 2.482 . S
La81 O105 2.503 1_554 S
La81 O106 2.521 1_554 S
La81 O107 2.628 . S
La81 O108 2.554 1_554 S
La81 O109 2.757 1_554 S
La81 O110 2.470 1_554 S
C82 La80 2.928 . S
C82 C83 1.503 . S
C82 O100 1.261 1_556 S
C82 O101 1.243 . S
C83 C82 1.503 . S
C83 C84 1.394 . S
C83 C88 1.373 . S
C84 C83 1.394 . S
C84 C85 1.380 . S
C84 H112 0.930 1_556 S
C85 C84 1.380 . S
C85 C86 1.376 . S
C85 H113 0.930 . S
C86 C85 1.376 . S
C86 C87 1.370 . S
C87 C86 1.370 . S
C87 C88 1.396 . S
C87 H114 0.929 . S
C88 C83 1.373 . S
C88 C87 1.396 . S
C88 H115 0.929 . S
C89 O102 1.240 . S
C89 O103 1.289 . S
C90 O104 1.258 1_556 S
C90 O105 1.256 . S
C91 La81 2.928 . S
C91 C92 1.503 . S
C91 O106 1.261 1_554 S
C91 O107 1.243 . S
C92 C91 1.503 . S
C92 C93 1.394 . S
C92 C97 1.373 . S
C93 C92 1.394 . S
C93 C94 1.380 . S
C93 H116 0.930 1_554 S
C94 C93 1.380 . S
C94 C95 1.376 . S
C94 H117 0.930 . S
C95 C94 1.376 . S
C95 C96 1.370 . S
C96 C95 1.370 . S
C96 C97 1.396 . S
C96 H118 0.929 . S
C97 C92 1.373 . S
C97 C96 1.396 . S
C97 H119 0.929 . S
C98 O108 1.240 . S
C98 O109 1.289 . S
C99 O110 1.258 1_554 S
C99 O111 1.256 . S
O100 La80 2.521 1_554 S
O100 C82 1.261 1_554 S
O101 La80 2.628 . S
O101 C82 1.243 . S
O102 La80 2.554 1_554 S
O102 C89 1.240 . S
O103 La80 2.757 1_554 S
O103 La81 2.482 . S
O103 C89 1.289 . S
O104 La80 2.470 1_554 S
O104 C90 1.258 1_554 S
O105 La81 2.503 1_556 S
O105 C90 1.256 . S
O106 La81 2.521 1_556 S
O106 C91 1.261 1_556 S
O107 La81 2.628 . S
O107 C91 1.243 . S
O108 La81 2.554 1_556 S
O108 C98 1.240 . S
O109 La80 2.482 . S
O109 La81 2.757 1_556 S
O109 C98 1.289 . S
O110 La81 2.470 1_556 S
O110 C99 1.258 1_556 S
O111 La80 2.503 1_554 S
O111 C99 1.256 . S
H112 C84 0.930 1_554 S
H113 C85 0.930 . S
H114 C87 0.929 . S
H115 C88 0.929 . S
H116 C93 0.930 1_556 S
H117 C94 0.930 . S
H118 C96 0.929 . S
H119 C97 0.929 . S
La120 C122 2.928 . S
La120 O140 2.521 1_554 S
La120 O141 2.628 . S
La120 O142 2.554 1_554 S
La120 O143 2.757 1_554 S
La120 O144 2.470 . S
La120 O149 2.482 . S
La120 O151 2.503 1_554 S
La121 C131 2.928 . S
La121 O143 2.482 . S
La121 O145 2.503 1_556 S
La121 O146 2.521 1_556 S
La121 O147 2.628 . S
La121 O148 2.554 1_556 S
La121 O149 2.757 1_556 S
La121 O150 2.470 . S
C122 La120 2.928 . S
C122 C123 1.503 . S
C122 O140 1.261 1_554 S
C122 O141 1.243 . S
C123 C122 1.503 . S
C123 C124 1.394 . S
C123 C128 1.373 . S
C124 C123 1.394 . S
C124 C125 1.380 . S
C124 H152 0.930 1_554 S
C125 C124 1.380 . S
C125 C126 1.376 . S
C125 H153 0.930 . S
C126 C125 1.376 . S
C126 C127 1.370 . S
C127 C126 1.370 . S
C127 C128 1.396 . S
C127 H154 0.929 . S
C128 C123 1.373 . S
C128 C127 1.396 . S
C128 H155 0.929 . S
C129 O142 1.240 . S
C129 O143 1.289 . S
C130 O144 1.258 . S
C130 O145 1.256 . S
C131 La121 2.928 . S
C131 C132 1.503 . S
C131 O146 1.261 1_556 S
C131 O147 1.243 . S
C132 C131 1.503 . S
C132 C133 1.394 . S
C132 C137 1.373 . S
C133 C132 1.394 . S
C133 C134 1.380 . S
C133 H156 0.930 1_556 S
C134 C133 1.380 . S
C134 C135 1.376 . S
C134 H157 0.930 . S
C135 C134 1.376 . S
C135 C136 1.370 . S
C136 C135 1.370 . S
C136 C137 1.396 . S
C136 H158 0.929 . S
C137 C132 1.373 . S
C137 C136 1.396 . S
C137 H159 0.929 . S
C138 O148 1.240 . S
C138 O149 1.289 . S
C139 O150 1.258 . S
C139 O151 1.256 . S
O140 La120 2.521 1_556 S
O140 C122 1.261 1_556 S
O141 La120 2.628 . S
O141 C122 1.243 . S
O142 La120 2.554 1_556 S
O142 C129 1.240 . S
O143 La120 2.757 1_556 S
O143 La121 2.482 . S
O143 C129 1.289 . S
O144 La120 2.470 . S
O144 C130 1.258 . S
O145 La121 2.503 1_554 S
O145 C130 1.256 . S
O146 La121 2.521 1_554 S
O146 C131 1.261 1_554 S
O147 La121 2.628 . S
O147 C131 1.243 . S
O148 La121 2.554 1_554 S
O148 C138 1.240 . S
O149 La120 2.482 . S
O149 La121 2.757 1_554 S
O149 C138 1.289 . S
O150 La121 2.470 . S
O150 C139 1.258 . S
O151 La120 2.503 1_556 S
O151 C139 1.256 . S
H152 C124 0.930 1_556 S
H153 C125 0.930 . S
H154 C127 0.929 . S
H155 C128 0.929 . S
H156 C133 0.930 1_554 S
H157 C134 0.930 . S
H158 C136 0.929 . S
H159 C137 0.929 . S
La160 C162 2.928 . S
La160 O180 2.521 . S
La160 O181 2.628 1_556 S
La160 O182 2.554 . S
La160 O183 2.757 . S
La160 O184 2.470 . S
La160 O189 2.482 1_556 S
La160 O191 2.503 . S
La161 C171 2.928 . S
La161 O183 2.482 1_554 S
La161 O185 2.503 . S
La161 O186 2.521 . S
La161 O187 2.628 1_554 S
La161 O188 2.554 . S
La161 O189 2.757 . S
La161 O190 2.470 . S
C162 La160 2.928 . S
C162 C163 1.503 . S
C162 O180 1.261 . S
C162 O181 1.243 1_556 S
C163 C162 1.503 . S
C163 C164 1.394 . S
C163 C168 1.373 . S
C164 C163 1.394 . S
C164 C165 1.380 . S
C164 H192 0.930 . S
C165 C164 1.380 . S
C165 C166 1.376 . S
C165 H193 0.930 . S
C166 C165 1.376 . S
C166 C167 1.370 . S
C167 C166 1.370 . S
C167 C168 1.396 . S
C167 H194 0.929 1_556 S
C168 C163 1.373 . S
C168 C167 1.396 . S
C168 H195 0.929 1_556 S
C169 O182 1.240 . S
C169 O183 1.289 . S
C170 O184 1.258 . S
C170 O185 1.256 1_556 S
C171 La161 2.928 . S
C171 C172 1.503 . S
C171 O186 1.261 . S
C171 O187 1.243 1_554 S
C172 C171 1.503 . S
C172 C173 1.394 . S
C172 C177 1.373 . S
C173 C172 1.394 . S
C173 C174 1.380 . S
C173 H196 0.930 . S
C174 C173 1.380 . S
C174 C175 1.376 . S
C174 H197 0.930 . S
C175 C174 1.376 . S
C175 C176 1.370 . S
C176 C175 1.370 . S
C176 C177 1.396 . S
C176 H198 0.929 1_554 S
C177 C172 1.373 . S
C177 C176 1.396 . S
C177 H199 0.929 1_554 S
C178 O188 1.240 . S
C178 O189 1.289 . S
C179 O190 1.258 . S
C179 O191 1.256 1_554 S
O180 La160 2.521 . S
O180 C162 1.261 . S
O181 La160 2.628 1_554 S
O181 C162 1.243 1_554 S
O182 La160 2.554 . S
O182 C169 1.240 . S
O183 La160 2.757 . S
O183 La161 2.482 1_556 S
O183 C169 1.289 . S
O184 La160 2.470 . S
O184 C170 1.258 . S
O185 La161 2.503 . S
O185 C170 1.256 1_554 S
O186 La161 2.521 . S
O186 C171 1.261 . S
O187 La161 2.628 1_556 S
O187 C171 1.243 1_556 S
O188 La161 2.554 . S
O188 C178 1.240 . S
O189 La160 2.482 1_554 S
O189 La161 2.757 . S
O189 C178 1.289 . S
O190 La161 2.470 . S
O190 C179 1.258 . S
O191 La160 2.503 . S
O191 C179 1.256 1_556 S
H192 C164 0.930 . S
H193 C165 0.930 . S
H194 C167 0.929 1_554 S
H195 C168 0.929 1_554 S
H196 C173 0.930 . S
H197 C174 0.930 . S
H198 C176 0.929 1_556 S
H199 C177 0.929 1_556 S
La200 C202 2.928 1_556 S
La200 O220 2.521 . S
La200 O221 2.628 1_556 S
La200 O222 2.554 . S
La200 O223 2.757 . S
La200 O224 2.470 . S
La200 O229 2.482 1_556 S
La200 O231 2.503 . S
La201 C211 2.928 1_554 S
La201 O223 2.482 1_554 S
La201 O225 2.503 . S
La201 O226 2.521 . S
La201 O227 2.628 1_554 S
La201 O228 2.554 . S
La201 O229 2.757 . S
La201 O230 2.470 . S
C202 La200 2.928 1_554 S
C202 C203 1.503 1_545 S
C202 O220 1.261 1_554 S
C202 O221 1.243 . S
C203 C202 1.503 1_565 S
C203 C204 1.394 1_554 S
C203 C208 1.373 . S
C204 C203 1.394 1_556 S
C204 C205 1.380 . S
C204 H232 0.930 . S
C205 C204 1.380 . S
C205 C206 1.376 1_556 S
C205 H233 0.930 . S
C206 C205 1.376 1_554 S
C206 C207 1.370 . S
C207 C206 1.370 . S
C207 C208 1.396 . S
C207 H234 0.929 . S
C208 C203 1.373 . S
C208 C207 1.396 . S
C208 H235 0.929 1_565 S
C209 O222 1.240 . S
C209 O223 1.289 . S
C210 O224 1.258 1_554 S
C210 O225 1.256 . S
C211 La201 2.928 1_556 S
C211 C212 1.503 . S
C211 O226 1.261 1_556 S
C211 O227 1.243 . S
C212 C211 1.503 . S
C212 C213 1.394 1_556 S
C212 C217 1.373 . S
C213 C212 1.394 1_554 S
C213 C214 1.380 . S
C213 H236 0.930 . S
C214 C213 1.380 . S
C214 C215 1.376 1_554 S
C214 H237 0.930 . S
C215 C214 1.376 1_556 S
C215 C216 1.370 . S
C216 C215 1.370 . S
C216 C217 1.396 . S
C216 H238 0.929 . S
C217 C212 1.373 . S
C217 C216 1.396 . S
C217 H239 0.929 . S
C218 O228 1.240 . S
C218 O229 1.289 . S
C219 O230 1.258 1_556 S
C219 O231 1.256 . S
O220 La200 2.521 . S
O220 C202 1.261 1_556 S
O221 La200 2.628 1_554 S
O221 C202 1.243 . S
O222 La200 2.554 . S
O222 C209 1.240 . S
O223 La200 2.757 . S
O223 La201 2.482 1_556 S
O223 C209 1.289 . S
O224 La200 2.470 . S
O224 C210 1.258 1_556 S
O225 La201 2.503 . S
O225 C210 1.256 . S
O226 La201 2.521 . S
O226 C211 1.261 1_554 S
O227 La201 2.628 1_556 S
O227 C211 1.243 . S
O228 La201 2.554 . S
O228 C218 1.240 . S
O229 La200 2.482 1_554 S
O229 La201 2.757 . S
O229 C218 1.289 . S
O230 La201 2.470 . S
O230 C219 1.258 1_554 S
O231 La200 2.503 . S
O231 C219 1.256 . S
H232 C204 0.930 . S
H233 C205 0.930 . S
H234 C207 0.929 . S
H235 C208 0.929 1_545 S
H236 C213 0.930 . S
H237 C214 0.930 . S
H238 C216 0.929 . S
H239 C217 0.929 . S
C240 C241 1.387 . S
C240 H244 0.950 . S
C240 C249 1.390 . S
C241 C240 1.387 . S
C241 C243 1.387 . S
H242 C249 0.950 . S
C243 C241 1.387 . S
C243 C245 1.390 . S
C243 H247 0.950 . S
H244 C240 0.950 . S
C245 C243 1.390 . S
C245 C246 1.387 . S
C245 H248 0.950 . S
C246 C245 1.387 . S
C246 C249 1.387 . S
H247 C243 0.950 . S
H248 C245 0.950 . S
C249 C240 1.390 . S
C249 H242 0.950 . S
C249 C246 1.387 . S
C250 C251 1.387 . S
C250 H254 0.950 . S
C250 C259 1.390 . S
C251 C250 1.387 . S
C251 C253 1.387 . S
H252 C259 0.950 . S
C253 C251 1.387 . S
C253 C255 1.390 . S
C253 H257 0.950 . S
H254 C250 0.950 . S
C255 C253 1.390 . S
C255 C256 1.387 . S
C255 H258 0.950 . S
C256 C255 1.387 . S
C256 C259 1.387 . S
H257 C253 0.950 . S
H258 C255 0.950 . S
C259 C250 1.390 . S
C259 H252 0.950 . S
C259 C256 1.387 . S
C260 C261 1.387 . S
C260 H264 0.950 . S
C260 C269 1.390 . S
C261 C260 1.387 . S
C261 C263 1.387 . S
H262 C269 0.950 . S
C263 C261 1.387 . S
C263 C265 1.387 1_545 S
C263 H267 0.950 . S
H264 C260 0.950 . S
C265 C263 1.387 1_565 S
C265 C266 1.381 . S
C265 H268 0.946 . S
C266 C265 1.381 . S
C266 C269 1.395 1_565 S
H267 C263 0.950 . S
H268 C265 0.946 . S
C269 C260 1.390 . S
C269 H262 0.950 . S
C269 C266 1.395 1_545 S
C270 C271 1.387 . S
C270 H274 0.950 . S
C270 C279 1.390 . S
C271 C270 1.387 . S
C271 C273 1.387 . S
H272 C279 0.950 . S
C273 C271 1.387 . S
C273 C275 1.390 . S
C273 H277 0.950 . S
H274 C270 0.950 . S
C275 C273 1.390 . S
C275 C276 1.387 . S
C275 H278 0.950 . S
C276 C275 1.387 . S
C276 C279 1.387 . S
H277 C273 0.950 . S
H278 C275 0.950 . S
C279 C270 1.390 . S
C279 H272 0.950 . S
C279 C276 1.387 . S
C280 C281 1.387 1_455 S
C280 H284 0.950 . S
C280 C289 1.390 1_455 S
C281 C280 1.387 1_655 S
C281 C283 1.387 . S
H282 C289 0.950 1_455 S
C283 C281 1.387 . S
C283 C285 1.390 . S
C283 H287 0.950 . S
H284 C280 0.950 . S
C285 C283 1.390 . S
C285 C286 1.387 . S
C285 H288 0.950 . S
C286 C285 1.387 . S
C286 C289 1.387 . S
H287 C283 0.950 . S
H288 C285 0.950 . S
C289 C280 1.390 1_655 S
C289 H282 0.950 1_655 S
C289 C286 1.387 . S
C290 C291 1.387 . S
C290 H294 0.950 . S
C290 C299 1.390 . S
C291 C290 1.387 . S
C291 C293 1.387 . S
H292 C299 0.950 . S
C293 C291 1.387 . S
C293 C295 1.390 . S
C293 H297 0.950 . S
H294 C290 0.950 . S
C295 C293 1.390 . S
C295 C296 1.387 . S
C295 H298 0.950 . S
C296 C295 1.387 . S
C296 C299 1.387 . S
H297 C293 0.950 . S
H298 C295 0.950 . S
C299 C290 1.390 . S
C299 H292 0.950 . S
C299 C296 1.387 . S
C300 C301 1.387 . S
C300 H304 0.950 . S
C300 C309 1.390 . S
C301 C300 1.387 . S
C301 C303 1.387 1_554 S
H302 C309 0.950 . S
C303 C301 1.387 1_556 S
C303 C305 1.390 1_556 S
C303 H307 0.950 . S
H304 C300 0.950 . S
C305 C303 1.390 1_554 S
C305 C306 1.387 . S
C305 H308 0.950 1_554 S
C306 C305 1.387 . S
C306 C309 1.387 . S
H307 C303 0.950 . S
H308 C305 0.950 1_556 S
C309 C300 1.390 . S
C309 H302 0.950 . S
C309 C306 1.387 . S
C310 C311 1.387 . S
C310 H314 0.950 . S
C310 C319 1.390 . S
C311 C310 1.387 . S
C311 C313 1.387 1_556 S
H312 C319 0.950 . S
C313 C311 1.387 1_554 S
C313 C315 1.390 1_554 S
C313 H317 0.950 . S
H314 C310 0.950 . S
C315 C313 1.390 1_556 S
C315 C316 1.387 . S
C315 H318 0.950 1_556 S
C316 C315 1.387 . S
C316 C319 1.387 . S
H317 C313 0.950 . S
H318 C315 0.950 1_554 S
C319 C310 1.390 . S
C319 H312 0.950 . S
C319 C316 1.387 . S
C320 C321 1.387 1_556 S
C320 H324 0.950 . S
C320 C329 1.390 . S
C321 C320 1.387 1_554 S
C321 C323 1.387 . S
H322 C329 0.950 . S
C323 C321 1.387 . S
C323 C325 1.390 . S
C323 H327 0.950 . S
H324 C320 0.950 . S
C325 C323 1.390 . S
C325 C326 1.387 . S
C325 H328 0.950 . S
C326 C325 1.387 . S
C326 C329 1.387 1_554 S
H327 C323 0.950 . S
H328 C325 0.950 . S
C329 C320 1.390 . S
C329 H322 0.950 . S
C329 C326 1.387 1_556 S
C330 C331 1.387 . S
C330 H334 0.950 . S
C330 C339 1.390 . S
C331 C330 1.387 . S
C331 C333 1.387 . S
H332 C339 0.950 . S
C333 C331 1.387 . S
C333 C335 1.390 1_556 S
C333 H337 0.950 . S
H334 C330 0.950 . S
C335 C333 1.390 1_554 S
C335 C336 1.387 1_554 S
C335 H338 0.950 . S
C336 C335 1.387 1_556 S
C336 C339 1.387 . S
H337 C333 0.950 . S
H338 C335 0.950 . S
C339 C330 1.390 . S
C339 H332 0.950 . S
C339 C336 1.387 . S
C340 C341 1.387 . S
C340 H344 0.950 . S
C340 C349 1.390 . S
C341 C340 1.387 . S
C341 C343 1.387 . S
H342 C349 0.950 . S
C343 C341 1.387 . S
C343 C345 1.390 . S
C343 H347 0.950 . S
H344 C340 0.950 . S
C345 C343 1.390 . S
C345 C346 1.387 . S
C345 H348 0.950 . S
C346 C345 1.387 . S
C346 C349 1.387 . S
H347 C343 0.950 . S
H348 C345 0.950 . S
C349 C340 1.390 . S
C349 H342 0.950 . S
C349 C346 1.387 . S
C350 C351 1.387 . S
C350 H354 0.950 . S
C350 C359 1.390 . S
C351 C350 1.387 . S
C351 C353 1.387 1_556 S
H352 C359 0.950 . S
C353 C351 1.387 1_554 S
C353 C355 1.390 . S
C353 H357 0.950 . S
H354 C350 0.950 . S
C355 C353 1.390 . S
C355 C356 1.387 1_554 S
C355 H358 0.950 . S
C356 C355 1.387 1_556 S
C356 C359 1.387 . S
H357 C353 0.950 . S
H358 C355 0.950 . S
C359 C350 1.390 . S
C359 H352 0.950 . S
C359 C356 1.387 . S
C360 C361 1.387 . S
C360 H364 0.950 . S
C360 C369 1.390 . S
C361 C360 1.387 . S
C361 C363 1.387 . S
H362 C369 0.950 . S
C363 C361 1.387 . S
C363 C365 1.390 . S
C363 H367 0.950 . S
H364 C360 0.950 . S
C365 C363 1.390 . S
C365 C366 1.387 . S
C365 H368 0.950 . S
C366 C365 1.387 . S
C366 C369 1.387 . S
H367 C363 0.950 . S
H368 C365 0.950 . S
C369 C360 1.390 . S
C369 H362 0.950 . S
C369 C366 1.387 . S
C370 C371 1.387 . S
C370 H374 0.950 . S
C370 C379 1.390 . S
C371 C370 1.387 . S
C371 C373 1.387 . S
H372 C379 0.950 . S
C373 C371 1.387 . S
C373 C375 1.390 . S
C373 H377 0.950 . S
H374 C370 0.950 . S
C375 C373 1.390 . S
C375 C376 1.387 . S
C375 H378 0.950 . S
C376 C375 1.387 . S
C376 C379 1.387 . S
H377 C373 0.950 . S
H378 C375 0.950 . S
C379 C370 1.390 . S
C379 H372 0.950 . S
C379 C376 1.387 . S
C380 C381 1.387 . S
C380 H384 0.950 . S
C380 C389 1.390 . S
C381 C380 1.387 . S
C381 C383 1.387 . S
H382 C389 0.950 . S
C383 C381 1.387 . S
C383 C385 1.390 . S
C383 H387 0.950 . S
H384 C380 0.950 . S
C385 C383 1.390 . S
C385 C386 1.387 . S
C385 H388 0.950 . S
C386 C385 1.387 . S
C386 C389 1.387 . S
H387 C383 0.950 . S
H388 C385 0.950 . S
C389 C380 1.390 . S
C389 H382 0.950 . S
C389 C386 1.387 . S
C390 C391 1.387 . S
C390 H394 0.950 . S
C390 C399 1.390 . S
C391 C390 1.387 . S
C391 C393 1.387 . S
H392 C399 0.950 . S
C393 C391 1.387 . S
C393 C395 1.390 . S
C393 H397 0.950 . S
H394 C390 0.950 . S
C395 C393 1.390 . S
C395 C396 1.387 . S
C395 H398 0.950 . S
C396 C395 1.387 . S
C396 C399 1.387 . S
H397 C393 0.950 . S
H398 C395 0.950 . S
C399 C390 1.390 . S
C399 H392 0.950 . S
C399 C396 1.387 . S
C400 C401 1.387 . S
C400 H404 0.950 . S
C400 C409 1.390 . S
C401 C400 1.387 . S
C401 C403 1.387 . S
H402 C409 0.950 . S
C403 C401 1.387 . S
C403 C405 1.390 . S
C403 H407 0.950 . S
H404 C400 0.950 . S
C405 C403 1.390 . S
C405 C406 1.387 . S
C405 H408 0.950 . S
C406 C405 1.387 . S
C406 C409 1.387 . S
H407 C403 0.950 . S
H408 C405 0.950 . S
C409 C400 1.390 . S
C409 H402 0.950 . S
C409 C406 1.387 . S
C410 C411 1.387 . S
C410 H414 0.950 . S
C410 C419 1.390 . S
C411 C410 1.387 . S
C411 C413 1.387 . S
H412 C419 0.950 . S
C413 C411 1.387 . S
C413 C415 1.390 . S
C413 H417 0.950 . S
H414 C410 0.950 . S
C415 C413 1.390 . S
C415 C416 1.387 . S
C415 H418 0.950 . S
C416 C415 1.387 . S
C416 C419 1.387 . S
H417 C413 0.950 . S
H418 C415 0.950 . S
C419 C410 1.390 . S
C419 H412 0.950 . S
C419 C416 1.387 . S
C241 C210 3.729 . S
C246 C6 3.597 . S
C251 C10 3.775 . S
C256 C46 3.478 . S
C261 C50 3.321 . S
C266 C90 3.307 . S
C271 C126 2.362 . S
C276 C86 2.163 . S
C281 C166 3.109 1_655 S
C286 C130 3.689 . S
C291 C170 2.979 . S
C296 C206 2.844 . S
C301 C179 2.600 . S
C306 C15 2.499 . S
C311 C219 3.130 . S
C316 C55 3.105 . S
C321 C99 3.701 . S
C326 C19 3.734 . S
C331 C135 1.920 . S
C336 C59 2.088 1_556 S
C341 C175 0.745 . S
C346 C95 0.746 . S
C351 C139 1.126 . S
C356 C215 1.172 . S
C361 C9 0.827 . S
C366 C18 0.827 . S
C371 C49 0.932 . S
C376 C58 0.932 . S
C381 C98 0.951 . S
C386 C89 0.951 . S
C391 C129 0.769 . S
C396 C138 0.769 . S
C401 C178 1.005 . S
C406 C169 1.005 . S
C411 C209 0.955 . S
C416 C218 0.955 . S
