# Generated by pormake.
# Topology sqp, (5)-cn, num edge types: 1
# Building blocks:
#     Node 0, Type 0, BuildingBlock: XOMCOT_clean_sbu_1, # of connection points: 5
#     Node 1, Type 0, BuildingBlock: XOMCOT_clean_sbu_1, # of connection points: 5
#     Node 2, Type 0, BuildingBlock: XOMCOT_clean_sbu_1, # of connection points: 5
#     Node 3, Type 0, BuildingBlock: XOMCOT_clean_sbu_1, # of connection points: 5
#     Edge 4, Type (0, 0), BuildingBlock: KIFKEQ_clean_linker_1, # of connection points: 2
#     Edge 5, Type (0, 0), BuildingBlock: KIFKEQ_clean_linker_1, # of connection points: 2
#     Edge 6, Type (0, 0), BuildingBlock: KIFKEQ_clean_linker_1, # of connection points: 2
#     Edge 7, Type (0, 0), BuildingBlock: KIFKEQ_clean_linker_1, # of connection points: 2
#     Edge 8, Type (0, 0), BuildingBlock: KIFKEQ_clean_linker_1, # of connection points: 2
#     Edge 9, Type (0, 0), BuildingBlock: KIFKEQ_clean_linker_1, # of connection points: 2
#     Edge 10, Type (0, 0), BuildingBlock: KIFKEQ_clean_linker_1, # of connection points: 2
#     Edge 11, Type (0, 0), BuildingBlock: KIFKEQ_clean_linker_1, # of connection points: 2
#     Edge 12, Type (0, 0), BuildingBlock: KIFKEQ_clean_linker_1, # of connection points: 2
#     Edge 13, Type (0, 0), BuildingBlock: KIFKEQ_clean_linker_1, # of connection points: 2
# Relax obj value: 0.083
# Max RMSD: 0.168
# Mean RMSD: 0.168
data_MOF--net-sqp--node1-XOMCOT_clean_sbu_1--edge1-KIFKEQ_clean_linker_1
_symmetry_space_group_name_H-M    P1
_symmetry_Int_Tables_number       1
_symmetry_cell_setting            triclinic
loop_
_symmetry_equiv_pos_as_xyz
'x, y, z'
_cell_length_a     24.599494
_cell_length_b     18.294026
_cell_length_c     48.940951
_cell_angle_alpha  90.370225
_cell_angle_beta   100.19071
_cell_angle_gamma 89.962762
loop_
_atom_site_label
_atom_site_type_symbol
_atom_site_fract_x
_atom_site_fract_y
_atom_site_fract_z
_atom_type_partial_charge
C0 C 0.04375 0.25671 0.29693 0.0
C1 C 1.00079 0.30492 0.2899 0.0
N2 N 0.95318 0.26673 0.28498 0.0
N3 N 0.02374 0.18808 0.29631 0.0
C4 C 0.96831 0.19593 0.28926 0.0
H5 H 0.08695 0.27097 0.30242 0.0
Co6 Co 0.06823 0.10576 0.30496 0.0
C7 C 0.99996 0.97442 0.28355 0.0
O8 O 0.03263 0.93095 0.30026 0.0
N9 N 0.11569 1.02366 0.31422 0.0
C10 C 0.17176 0.93981 0.33703 0.0
C11 C 0.13487 0.99487 0.3395 0.0
C12 C 0.14198 0.98466 0.29683 0.0
N13 N 0.17646 0.93352 0.31014 0.0
O14 O 0.10038 0.12286 0.27257 0.0
H15 H 0.12367 1.01254 0.35882 0.0
H16 H 0.13665 0.99464 0.27478 0.0
O17 O 0.00954 1.04335 0.28385 0.0
C18 C 0.14731 0.1526 0.28105 0.0
O19 O 0.16339 0.16199 0.30793 0.0
N20 N 0.04121 0.09713 0.33784 0.0
C21 C 0.02356 0.10019 0.39248 0.0
C22 C 0.98929 1.05814 0.3722 0.0
C23 C 0.99865 1.0576 0.34474 0.0
C24 C 0.07288 0.14074 0.3569 0.0
C25 C 0.06547 0.14224 0.38432 0.0
H26 H 0.97189 1.02551 0.32942 0.0
H27 H 0.1059 0.17235 0.35087 0.0
H28 H 0.93969 0.15068 0.28729 0.0
H29 H 1.00444 0.36375 0.28896 0.0
H30 H 0.1934 0.90712 0.35386 0.0
H31 H 0.95564 1.02613 0.37745 0.0
H32 H 0.09373 0.17453 0.39908 0.0
C33 C 0.99583 0.23988 0.69527 0.0
C34 C 0.03871 0.28831 0.70249 0.0
N35 N 0.08641 0.25037 0.70722 0.0
N36 N 0.01601 0.17139 0.69557 0.0
C37 C 0.07143 0.17945 0.7027 0.0
H38 H 0.95259 0.25386 0.68979 0.0
Co39 Co 0.97189 0.08894 0.68622 0.0
C40 C 0.04237 0.9585 0.7042 0.0
O41 O 0.01178 0.91768 0.68532 0.0
N42 N 0.925 1.00623 0.67633 0.0
C43 C 0.86911 0.92219 0.65309 0.0
C44 C 0.90516 0.97826 0.65085 0.0
C45 C 0.90016 0.96544 0.69363 0.0
N46 N 0.86564 0.91433 0.68004 0.0
O47 O 0.94037 0.10392 0.71902 0.0
H48 H 0.91537 0.99701 0.63154 0.0
H49 H 0.90629 0.97442 0.71581 0.0
O50 O 0.03098 1.02645 0.70633 0.0
C51 C 0.89303 0.13285 0.71105 0.0
O52 O 0.87627 0.14282 0.6843 0.0
N53 N 0.99815 0.08274 0.65298 0.0
C54 C 0.01516 0.09131 0.59833 0.0
C55 C 0.05177 1.05157 0.61818 0.0
C56 C 0.04279 1.04842 0.64568 0.0
C57 C 0.96425 0.12453 0.63438 0.0
C58 C 0.97123 0.12845 0.60695 0.0
H59 H 0.0718 1.01906 0.66076 0.0
H60 H 0.92992 0.15273 0.64079 0.0
H61 H 0.10017 0.13427 0.70454 0.0
H62 H 0.03497 0.34715 0.7036 0.0
H63 H 0.84711 0.89 0.63604 0.0
H64 H 0.08713 1.0237 0.61261 0.0
H65 H 0.94127 0.1589 0.59254 0.0
C66 C 0.506 0.73841 0.79341 0.0
C67 C 0.46319 0.7865 0.78606 0.0
N68 N 0.41544 0.74851 0.78143 0.0
N69 N 0.48584 0.67003 0.79349 0.0
C70 C 0.43044 0.67779 0.7863 0.0
H71 H 0.54927 0.75253 0.79872 0.0
Co72 Co 0.53126 0.58904 0.80291 0.0
C73 C 0.4653 0.45645 0.7783 0.0
O74 O 0.50171 0.41036 0.79128 0.0
N75 N 0.58008 0.50963 0.81295 0.0
C76 C 0.64497 0.43877 0.83702 0.0
C77 C 0.60509 0.49054 0.83876 0.0
C78 C 0.60634 0.46939 0.79597 0.0
N79 N 0.64595 0.42574 0.81001 0.0
O80 O 0.56411 0.60618 0.77069 0.0
H81 H 0.59721 0.51524 0.85779 0.0
H82 H 0.5967 0.47286 0.77359 0.0
O83 O 0.47327 0.52548 0.78155 0.0
C84 C 0.612 0.63414 0.77813 0.0
O85 O 0.63072 0.64445 0.80473 0.0
N86 N 0.50295 0.57874 0.83564 0.0
C87 C 0.48935 0.57085 0.89077 0.0
C88 C 0.46814 0.51575 0.87179 0.0
C89 C 0.47499 0.52098 0.84407 0.0
C90 C 0.52173 0.63394 0.85363 0.0
C91 C 0.51494 0.63149 0.88119 0.0
H92 H 0.46065 0.4766 0.83019 0.0
H93 H 0.5453 0.67813 0.84693 0.0
H94 H 0.40184 0.6325 0.78462 0.0
H95 H 0.46718 0.84518 0.78472 0.0
H96 H 0.67288 0.41551 0.85436 0.0
H97 H 0.44812 0.46808 0.87852 0.0
H98 H 0.53283 0.67452 0.89526 0.0
C99 C 0.53864 0.7516 0.19462 0.0
C100 C 0.58292 0.79825 0.20072 0.0
N101 N 0.62941 0.75795 0.20539 0.0
N102 N 0.55694 0.68205 0.19536 0.0
C103 C 0.61257 0.68757 0.20199 0.0
H104 H 0.4957 0.76742 0.1896 0.0
Co105 Co 0.51016 0.60194 0.1866 0.0
C106 C 0.57481 0.46962 0.21172 0.0
O107 O 0.53813 0.4232 0.19893 0.0
N108 N 0.46022 0.52323 0.17721 0.0
C109 C 0.3947 0.45148 0.15374 0.0
C110 C 0.43482 0.50242 0.15156 0.0
C111 C 0.43394 0.4849 0.19453 0.0
N112 N 0.39398 0.44076 0.18086 0.0
O113 O 0.47811 0.62276 0.21886 0.0
H114 H 0.44271 0.52525 0.13234 0.0
H115 H 0.44386 0.48997 0.21689 0.0
O116 O 0.56734 0.53851 0.20815 0.0
C117 C 0.43074 0.65191 0.21133 0.0
O118 O 0.41227 0.66121 0.18469 0.0
N119 N 0.53775 0.58803 0.15378 0.0
C120 C 0.55097 0.57603 0.09865 0.0
C121 C 0.57183 0.52185 0.11784 0.0
C122 C 0.5652 0.52916 0.14556 0.0
C123 C 0.51914 0.64218 0.13555 0.0
C124 C 0.52577 0.63769 0.10799 0.0
H125 H 0.57941 0.48562 0.15965 0.0
H126 H 0.49595 0.68725 0.14209 0.0
H127 H 0.64028 0.64127 0.20358 0.0
H128 H 0.58103 0.85728 0.20194 0.0
H129 H 0.36652 0.42713 0.13663 0.0
H130 H 0.59152 0.47341 0.11129 0.0
H131 H 0.50814 0.68005 0.09375 0.0
H132 H 0.99606 0.98471 0.42315 0.0
H133 H 0.03812 0.21434 0.42939 0.0
H134 H 0.99433 0.98268 0.47277 0.0
H135 H 0.04204 0.21061 0.47893 0.0
H136 H 0.99453 0.20661 0.56274 0.0
H137 H 0.99077 0.20658 0.5132 0.0
H138 H 0.05051 0.98373 0.51675 0.0
H139 H 0.04872 0.9815 0.56638 0.0
C140 C 1.00475 1.03479 0.43503 0.0
C141 C 0.01767 0.09951 0.42221 0.0
C142 C 1.00488 1.0333 0.46363 0.0
C143 C 0.0186 0.09627 0.48012 0.0
C144 C 0.0305 0.16113 0.46709 0.0
C145 C 0.02916 0.16299 0.43855 0.0
C146 C 1.00617 0.15708 0.553 0.0
C147 C 0.02101 0.09363 0.56861 0.0
C148 C 1.00492 0.15745 0.52446 0.0
C149 C 0.02024 0.09509 0.5107 0.0
C150 C 0.0373 1.03236 0.52646 0.0
C151 C 0.03736 1.03149 0.55507 0.0
H152 H 0.51737 0.45598 0.06674 0.0
H153 H 0.5802 0.67517 0.06267 0.0
H154 H 0.49895 0.44883 0.016 0.0
H155 H 0.56264 0.66791 0.01214 0.0
H156 H 0.46148 0.67281 0.9266 0.0
H157 H 0.47906 0.66796 0.97714 0.0
H158 H 0.54019 0.44719 0.97369 0.0
H159 H 0.52177 0.45192 0.92295 0.0
C160 C 0.52858 0.50182 0.05497 0.0
C161 C 0.54988 0.56631 0.06854 0.0
C162 C 0.51778 0.4979 0.02596 0.0
C163 C 0.52822 0.5584 0.01008 0.0
C164 C 0.55265 0.62115 0.02378 0.0
C165 C 0.5632 0.62513 0.05268 0.0
C166 C 0.47793 0.62294 0.93667 0.0
C167 C 0.49052 0.56292 0.92093 0.0
C168 C 0.48849 0.62032 0.96558 0.0
C169 C 0.5122 0.55775 0.9794 0.0
C170 C 0.52192 0.49614 0.96364 0.0
C171 C 0.51111 0.49869 0.93462 0.0
H172 H 0.25676 0.17743 0.29408 0.0
H173 H 0.11934 0.19064 0.22579 0.0
H174 H 0.3147 0.24298 0.26723 0.0
H175 H 0.17843 0.25701 0.19853 0.0
H176 H 0.33518 0.32339 0.15709 0.0
H177 H 0.27288 0.24584 0.17815 0.0
H178 H 0.30482 0.37803 0.25258 0.0
H179 H 0.36527 0.45639 0.23161 0.0
C180 C 0.23906 0.19358 0.27313 0.0
C181 C 0.18323 0.18 0.26218 0.0
C182 C 0.27231 0.23127 0.2578 0.0
C183 C 0.25069 0.25629 0.23108 0.0
C184 C 0.19593 0.23839 0.21918 0.0
C185 C 0.16226 0.20043 0.2347 0.0
C186 C 0.32844 0.33646 0.17782 0.0
C187 C 0.35613 0.39569 0.19278 0.0
C188 C 0.29278 0.29198 0.18981 0.0
C189 C 0.28468 0.30551 0.21705 0.0
C190 C 0.31119 0.36558 0.2317 0.0
C191 C 0.34623 0.41024 0.2197 0.0
H192 H 0.92517 0.39322 0.25743 0.0
H193 H 0.8559 0.2075 0.29318 0.0
H194 H 0.83321 0.44326 0.24293 0.0
H195 H 0.76344 0.25795 0.27877 0.0
H196 H 0.60696 0.32695 0.21781 0.0
H197 H 0.6974 0.279 0.23733 0.0
H198 H 0.75557 0.49816 0.25904 0.0
H199 H 0.66486 0.54657 0.23891 0.0
C200 C 0.89041 0.36342 0.26257 0.0
C201 C 0.89821 0.29621 0.27656 0.0
C202 C 0.83748 0.39234 0.25428 0.0
C203 C 0.79068 0.35498 0.25975 0.0
C204 C 0.79842 0.2879 0.27389 0.0
C205 C 0.85149 0.25882 0.28214 0.0
C206 C 0.63877 0.36514 0.22694 0.0
C207 C 0.62861 0.4409 0.22644 0.0
C208 C 0.69076 0.3374 0.23832 0.0
C209 C 0.73412 0.38456 0.24964 0.0
C210 C 0.72347 0.46024 0.25004 0.0
C211 C 0.67132 0.48807 0.23861 0.0
H212 H 0.67029 0.88277 0.1879 0.0
H213 H 0.71398 0.6958 0.24037 0.0
H214 H 0.76202 0.93428 0.20316 0.0
H215 H 0.80515 0.74818 0.25672 0.0
H216 H 0.97875 0.83215 0.26895 0.0
H217 H 0.89168 0.77796 0.24686 0.0
H218 H 0.81588 0.99198 0.24119 0.0
H219 H 0.90392 1.04622 0.26196 0.0
C220 C 0.69963 0.85287 0.20282 0.0
C221 C 0.68495 0.78546 0.21305 0.0
C222 C 0.7522 0.88253 0.21172 0.0
C223 C 0.79129 0.84602 0.23144 0.0
C224 C 0.77677 0.77763 0.24121 0.0
C225 C 0.72439 0.74748 0.23194 0.0
C226 C 0.94361 0.86775 0.26268 0.0
C227 C 0.94824 0.94355 0.26743 0.0
C228 C 0.8934 0.83653 0.2502 0.0
C229 C 0.8461 0.88013 0.2425 0.0
C230 C 0.8513 0.9564 0.24648 0.0
C231 C 0.90187 0.98775 0.25857 0.0
H232 H 0.166 0.89001 0.2563 0.0
H233 H 0.26954 0.86606 0.33683 0.0
H234 H 0.22875 0.81365 0.23586 0.0
H235 H 0.33089 0.78584 0.31653 0.0
H236 H 0.4612 0.72642 0.26037 0.0
H237 H 0.39873 0.78897 0.28672 0.0
H238 H 0.25871 0.69184 0.23287 0.0
H239 H 0.32099 0.63272 0.20612 0.0
C240 C 0.20196 0.86833 0.26974 0.0
C241 C 0.21253 0.88488 0.29826 0.0
C242 C 0.2377 0.82333 0.25805 0.0
C243 C 0.28485 0.79285 0.27456 0.0
C244 C 0.29523 0.80866 0.30314 0.0
C245 C 0.25955 0.85413 0.31485 0.0
C246 C 0.41711 0.71736 0.25473 0.0
C247 C 0.39567 0.67555 0.23117 0.0
C248 C 0.38124 0.75316 0.26973 0.0
C249 C 0.32349 0.74684 0.26154 0.0
C250 C 0.30274 0.69996 0.23926 0.0
C251 C 0.33839 0.66542 0.22409 0.0
H252 H 0.31693 0.68667 0.78671 0.0
H253 H 0.38848 0.87829 0.75585 0.0
H254 H 0.22483 0.73761 0.77151 0.0
H255 H 0.29707 0.92898 0.74111 0.0
H256 H 0.12823 1.03026 0.73731 0.0
H257 H 0.21728 0.97904 0.75876 0.0
H258 H 0.16313 0.76489 0.72765 0.0
H259 H 0.07431 0.8156 0.70653 0.0
C260 C 0.31326 0.73941 0.77669 0.0
C261 C 0.36058 0.77822 0.77269 0.0
C262 C 0.26039 0.76876 0.76804 0.0
C263 C 0.25355 0.8377 0.75528 0.0
C264 C 0.30079 0.87652 0.75141 0.0
C265 C 0.35345 0.84717 0.7599 0.0
C266 C 0.1351 0.97216 0.73531 0.0
C267 C 0.09426 0.92727 0.71993 0.0
C268 C 0.18625 0.94283 0.74748 0.0
C269 C 0.19753 0.8679 0.74474 0.0
C270 C 0.15578 0.82264 0.73037 0.0
C271 C 0.10488 0.85196 0.71809 0.0
H272 H 0.1834 0.19162 0.69818 0.0
H273 H 0.11468 0.37735 0.73502 0.0
H274 H 0.27582 0.24294 0.71201 0.0
H275 H 0.20666 0.42829 0.74895 0.0
H276 H 0.37447 0.53265 0.75186 0.0
H277 H 0.28348 0.48348 0.7323 0.0
H278 H 0.3428 0.26495 0.75309 0.0
H279 H 0.43342 0.31362 0.77202 0.0
C280 C 0.18793 0.24311 0.70935 0.0
C281 C 0.14138 0.28024 0.71541 0.0
C282 C 0.24098 0.2727 0.71726 0.0
C283 C 0.24887 0.34006 0.73154 0.0
C284 C 0.20224 0.37716 0.73749 0.0
C285 C 0.14932 0.34771 0.72954 0.0
C286 C 0.3682 0.47413 0.75207 0.0
C287 C 0.41129 0.42736 0.76382 0.0
C288 C 0.3159 0.44586 0.74097 0.0
C289 C 0.30549 0.37014 0.74128 0.0
C290 C 0.34922 0.32338 0.75217 0.0
C291 C 0.40132 0.35154 0.76323 0.0
H292 H 0.92248 0.17669 0.76578 0.0
H293 H 0.78269 0.14943 0.69939 0.0
H294 H 0.86312 0.24355 0.79308 0.0
H295 H 0.72446 0.2156 0.72627 0.0
H296 H 0.67387 0.43527 0.75889 0.0
H297 H 0.73433 0.35452 0.73866 0.0
H298 H 0.76824 0.23138 0.81462 0.0
H299 H 0.70573 0.31112 0.83497 0.0
C300 C 0.879 0.18329 0.75737 0.0
C301 C 0.85734 0.15899 0.73034 0.0
C302 C 0.84517 0.22156 0.7729 0.0
C303 C 0.78961 0.23583 0.76144 0.0
C304 C 0.7674 0.20657 0.73532 0.0
C305 C 0.80081 0.16858 0.71999 0.0
C306 C 0.69327 0.3906 0.77132 0.0
C307 C 0.68383 0.37924 0.79847 0.0
C308 C 0.72835 0.34458 0.75973 0.0
C309 C 0.75545 0.28639 0.77502 0.0
C310 C 0.74784 0.27603 0.80246 0.0
C311 C 0.71206 0.3218 0.81405 0.0
H312 H 0.58161 0.70817 0.72939 0.0
H313 H 0.72152 0.61306 0.78289 0.0
H314 H 0.64416 0.76975 0.70315 0.0
H315 H 0.78392 0.67124 0.75621 0.0
H316 H 0.87729 0.86923 0.73354 0.0
H317 H 0.81484 0.79251 0.75372 0.0
H318 H 0.71139 0.76627 0.67317 0.0
H319 H 0.77236 0.84682 0.65319 0.0
C320 C 0.62564 0.6985 0.73486 0.0
C321 C 0.64698 0.65659 0.75819 0.0
C322 C 0.66158 0.73378 0.71992 0.0
C323 C 0.71931 0.72684 0.72794 0.0
C324 C 0.73992 0.6798 0.74996 0.0
C325 C 0.7042 0.64578 0.76507 0.0
C326 C 0.84113 0.84775 0.72008 0.0
C327 C 0.83005 0.86495 0.6917 0.0
C328 C 0.80555 0.80255 0.73161 0.0
C329 C 0.75805 0.77253 0.71507 0.0
C330 C 0.74728 0.78877 0.6866 0.0
C331 C 0.78277 0.83444 0.67506 0.0
loop_
_geom_bond_atom_site_label_1
_geom_bond_atom_site_label_2
_geom_bond_distance
_geom_bond_site_symmetry_2
_ccdc_geom_bond_type
C0 C1 1.351 . S
C0 N3 1.368 . S
C0 H5 0.931 1_655 S
C1 C0 1.351 . S
C1 N2 1.373 . S
C1 H29 0.930 . S
N2 C1 1.373 . S
N2 C4 1.340 . S
N3 C0 1.368 . S
N3 C4 1.321 . S
N3 Co6 2.135 1_655 S
C4 N2 1.340 . S
C4 N3 1.321 . S
C4 H28 0.930 . S
H5 C0 0.931 1_455 S
Co6 N3 2.135 1_455 S
Co6 N9 2.121 1_545 S
Co6 O14 2.055 . S
Co6 O17 2.039 1_445 S
Co6 N20 2.140 . S
C7 O8 1.227 . S
C7 O17 1.265 . S
O8 C7 1.227 . S
N9 Co6 2.121 1_565 S
N9 C11 1.375 . S
N9 C12 1.313 . S
C10 C11 1.338 . S
C10 N13 1.377 . S
C10 H30 0.930 . S
C11 N9 1.375 . S
C11 C10 1.338 . S
C11 H15 0.931 . S
C12 N9 1.313 . S
C12 N13 1.344 . S
C12 H16 0.930 . S
N13 C10 1.377 . S
N13 C12 1.344 . S
O14 Co6 2.055 . S
O14 C18 1.253 . S
H15 C11 0.931 . S
H16 C12 0.930 . S
O17 Co6 2.039 1_665 S
O17 C7 1.265 . S
C18 O14 1.253 . S
C18 O19 1.227 . S
O19 C18 1.227 . S
N20 Co6 2.140 . S
N20 C23 1.346 1_455 S
N20 C24 1.345 1_545 S
C21 C22 1.387 1_465 S
C21 C25 1.391 . S
C22 C21 1.387 1_645 S
C22 C23 1.369 . S
C22 H31 0.929 . S
C23 N20 1.346 1_655 S
C23 C22 1.369 . S
C23 H26 0.928 . S
C24 N20 1.345 1_565 S
C24 C25 1.371 . S
C24 H27 0.931 . S
C25 C21 1.391 . S
C25 C24 1.371 . S
C25 H32 0.930 . S
H26 C23 0.928 . S
H27 C24 0.931 . S
H28 C4 0.930 . S
H29 C1 0.930 . S
H30 C10 0.930 . S
H31 C22 0.929 . S
H32 C25 0.930 . S
C33 C34 1.351 . S
C33 N36 1.368 . S
C33 H38 0.931 . S
C34 C33 1.351 . S
C34 N35 1.373 . S
C34 H62 0.930 . S
N35 C34 1.373 . S
N35 C37 1.340 . S
N36 C33 1.368 . S
N36 C37 1.321 . S
N36 Co39 2.135 . S
C37 N35 1.340 . S
C37 N36 1.321 . S
C37 H61 0.930 . S
H38 C33 0.931 . S
Co39 N36 2.135 . S
Co39 N42 2.121 1_445 S
Co39 O47 2.055 1_455 S
Co39 O50 2.039 1_545 S
Co39 N53 2.140 . S
C40 O41 1.227 . S
C40 O50 1.265 . S
O41 C40 1.227 . S
N42 Co39 2.121 1_665 S
N42 C44 1.375 . S
N42 C45 1.313 . S
C43 C44 1.338 . S
C43 N46 1.377 . S
C43 H63 0.930 . S
C44 N42 1.375 . S
C44 C43 1.338 . S
C44 H48 0.931 1_655 S
C45 N42 1.313 . S
C45 N46 1.344 . S
C45 H49 0.930 . S
N46 C43 1.377 . S
N46 C45 1.344 . S
O47 Co39 2.055 1_655 S
O47 C51 1.253 . S
H48 C44 0.931 1_455 S
H49 C45 0.930 . S
O50 Co39 2.039 1_565 S
O50 C40 1.265 . S
C51 O47 1.253 . S
C51 O52 1.227 . S
O52 C51 1.227 . S
N53 Co39 2.140 . S
N53 C56 1.346 . S
N53 C57 1.345 1_445 S
C54 C55 1.387 1_565 S
C54 C58 1.391 1_455 S
C55 C54 1.387 1_545 S
C55 C56 1.369 . S
C55 H64 0.929 . S
C56 N53 1.346 . S
C56 C55 1.369 . S
C56 H59 0.928 . S
C57 N53 1.345 1_665 S
C57 C58 1.371 . S
C57 H60 0.931 . S
C58 C54 1.391 1_655 S
C58 C57 1.371 . S
C58 H65 0.930 . S
H59 C56 0.928 . S
H60 C57 0.931 . S
H61 C37 0.930 . S
H62 C34 0.930 . S
H63 C43 0.930 . S
H64 C55 0.929 . S
H65 C58 0.930 . S
C66 C67 1.351 . S
C66 N69 1.368 . S
C66 H71 0.931 . S
C67 C66 1.351 . S
C67 N68 1.373 . S
C67 H95 0.930 . S
N68 C67 1.373 . S
N68 C70 1.340 . S
N69 C66 1.368 . S
N69 C70 1.321 . S
N69 Co72 2.135 . S
C70 N68 1.340 . S
C70 N69 1.321 . S
C70 H94 0.930 . S
H71 C66 0.931 . S
Co72 N69 2.135 . S
Co72 N75 2.121 . S
Co72 O80 2.055 . S
Co72 O83 2.039 . S
Co72 N86 2.140 . S
C73 O74 1.227 . S
C73 O83 1.265 . S
O74 C73 1.227 . S
N75 Co72 2.121 . S
N75 C77 1.375 . S
N75 C78 1.313 . S
C76 C77 1.338 . S
C76 N79 1.377 . S
C76 H96 0.930 . S
C77 N75 1.375 . S
C77 C76 1.338 . S
C77 H81 0.931 . S
C78 N75 1.313 . S
C78 N79 1.344 . S
C78 H82 0.930 . S
N79 C76 1.377 . S
N79 C78 1.344 . S
O80 Co72 2.055 . S
O80 C84 1.253 . S
H81 C77 0.931 . S
H82 C78 0.930 . S
O83 Co72 2.039 . S
O83 C73 1.265 . S
C84 O80 1.253 . S
C84 O85 1.227 . S
O85 C84 1.227 . S
N86 Co72 2.140 . S
N86 C89 1.346 . S
N86 C90 1.345 . S
C87 C88 1.387 . S
C87 C91 1.391 . S
C88 C87 1.387 . S
C88 C89 1.369 . S
C88 H97 0.929 . S
C89 N86 1.346 . S
C89 C88 1.369 . S
C89 H92 0.928 . S
C90 N86 1.345 . S
C90 C91 1.371 . S
C90 H93 0.931 . S
C91 C87 1.391 . S
C91 C90 1.371 . S
C91 H98 0.930 . S
H92 C89 0.928 . S
H93 C90 0.931 . S
H94 C70 0.930 . S
H95 C67 0.930 . S
H96 C76 0.930 . S
H97 C88 0.929 . S
H98 C91 0.930 . S
C99 C100 1.351 . S
C99 N102 1.368 . S
C99 H104 0.931 . S
C100 C99 1.351 . S
C100 N101 1.373 . S
C100 H128 0.930 . S
N101 C100 1.373 . S
N101 C103 1.340 . S
N102 C99 1.368 . S
N102 C103 1.321 . S
N102 Co105 2.135 . S
C103 N101 1.340 . S
C103 N102 1.321 . S
C103 H127 0.930 . S
H104 C99 0.931 . S
Co105 N102 2.135 . S
Co105 N108 2.121 . S
Co105 O113 2.055 . S
Co105 O116 2.039 . S
Co105 N119 2.140 . S
C106 O107 1.227 . S
C106 O116 1.265 . S
O107 C106 1.227 . S
N108 Co105 2.121 . S
N108 C110 1.375 . S
N108 C111 1.313 . S
C109 C110 1.338 . S
C109 N112 1.377 . S
C109 H129 0.930 . S
C110 N108 1.375 . S
C110 C109 1.338 . S
C110 H114 0.931 . S
C111 N108 1.313 . S
C111 N112 1.344 . S
C111 H115 0.930 . S
N112 C109 1.377 . S
N112 C111 1.344 . S
O113 Co105 2.055 . S
O113 C117 1.253 . S
H114 C110 0.931 . S
H115 C111 0.930 . S
O116 Co105 2.039 . S
O116 C106 1.265 . S
C117 O113 1.253 . S
C117 O118 1.227 . S
O118 C117 1.227 . S
N119 Co105 2.140 . S
N119 C122 1.346 . S
N119 C123 1.345 . S
C120 C121 1.387 . S
C120 C124 1.391 . S
C121 C120 1.387 . S
C121 C122 1.369 . S
C121 H130 0.929 . S
C122 N119 1.346 . S
C122 C121 1.369 . S
C122 H125 0.928 . S
C123 N119 1.345 . S
C123 C124 1.371 . S
C123 H126 0.931 . S
C124 C120 1.391 . S
C124 C123 1.371 . S
C124 H131 0.930 . S
H125 C122 0.928 . S
H126 C123 0.931 . S
H127 C103 0.930 . S
H128 C100 0.930 . S
H129 C109 0.930 . S
H130 C121 0.929 . S
H131 C124 0.930 . S
H132 C140 0.950 . S
H133 C145 0.950 . S
H134 C142 0.950 . S
H135 C144 0.950 . S
H136 C146 0.950 . S
H137 C148 0.950 . S
H138 C150 0.950 . S
H139 C151 0.950 . S
C140 H132 0.950 . S
C140 C141 1.386 1_655 S
C140 C142 1.391 . S
C141 C140 1.386 1_455 S
C141 C145 1.393 1_565 S
C142 H134 0.950 . S
C142 C140 1.391 . S
C142 C143 1.400 1_655 S
C143 C142 1.400 1_455 S
C143 C144 1.398 1_565 S
C143 C149 1.491 . S
C144 H135 0.950 . S
C144 C143 1.398 1_545 S
C144 C145 1.391 . S
C145 H133 0.950 . S
C145 C141 1.393 1_545 S
C145 C144 1.391 . S
C146 H136 0.950 . S
C146 C147 1.387 . S
C146 C148 1.391 . S
C147 C146 1.387 . S
C147 C151 1.391 1_445 S
C148 H137 0.950 . S
C148 C146 1.391 . S
C148 C149 1.397 1_545 S
C149 C143 1.491 . S
C149 C148 1.397 1_565 S
C149 C150 1.401 1_455 S
C150 H138 0.950 . S
C150 C149 1.401 1_655 S
C150 C151 1.391 . S
C151 H139 0.950 . S
C151 C147 1.391 1_665 S
C151 C150 1.391 . S
H152 C160 0.950 . S
H153 C165 0.950 . S
H154 C162 0.950 . S
H155 C164 0.950 . S
H156 C166 0.950 . S
H157 C168 0.950 . S
H158 C170 0.950 . S
H159 C171 0.950 . S
C160 H152 0.950 . S
C160 C161 1.386 . S
C160 C162 1.391 . S
C161 C160 1.386 . S
C161 C165 1.393 . S
C162 H154 0.950 . S
C162 C160 1.391 . S
C162 C163 1.400 . S
C163 C162 1.400 . S
C163 C164 1.398 . S
C163 C169 1.491 1_554 S
C164 H155 0.950 . S
C164 C163 1.398 . S
C164 C165 1.391 . S
C165 H153 0.950 . S
C165 C161 1.393 . S
C165 C164 1.391 . S
C166 H156 0.950 . S
C166 C167 1.386 . S
C166 C168 1.391 . S
C167 C166 1.386 . S
C167 C171 1.393 . S
C168 H157 0.950 . S
C168 C166 1.391 . S
C168 C169 1.400 . S
C169 C163 1.491 1_556 S
C169 C168 1.400 . S
C169 C170 1.398 . S
C170 H158 0.950 . S
C170 C169 1.398 . S
C170 C171 1.391 . S
C171 H159 0.950 . S
C171 C167 1.393 . S
C171 C170 1.391 . S
H172 C180 0.950 . S
H173 C185 0.950 . S
H174 C182 0.950 . S
H175 C184 0.950 . S
H176 C186 0.950 . S
H177 C188 0.950 . S
H178 C190 0.950 . S
H179 C191 0.950 . S
C180 H172 0.950 . S
C180 C181 1.386 . S
C180 C182 1.391 . S
C181 C180 1.386 . S
C181 C185 1.393 . S
C182 H174 0.950 . S
C182 C180 1.391 . S
C182 C183 1.400 . S
C183 C182 1.400 . S
C183 C184 1.398 . S
C183 C189 1.491 . S
C184 H175 0.950 . S
C184 C183 1.398 . S
C184 C185 1.391 . S
C185 H173 0.950 . S
C185 C181 1.393 . S
C185 C184 1.391 . S
C186 H176 0.950 . S
C186 C187 1.386 . S
C186 C188 1.391 . S
C187 C186 1.386 . S
C187 C191 1.393 . S
C188 H177 0.950 . S
C188 C186 1.391 . S
C188 C189 1.400 . S
C189 C183 1.491 . S
C189 C188 1.400 . S
C189 C190 1.398 . S
C190 H178 0.950 . S
C190 C189 1.398 . S
C190 C191 1.391 . S
C191 H179 0.950 . S
C191 C187 1.393 . S
C191 C190 1.391 . S
H192 C200 0.950 . S
H193 C205 0.950 . S
H194 C202 0.950 . S
H195 C204 0.950 . S
H196 C206 0.950 . S
H197 C208 0.950 . S
H198 C210 0.950 . S
H199 C211 0.950 . S
C200 H192 0.950 . S
C200 C201 1.386 . S
C200 C202 1.391 . S
C201 C200 1.386 . S
C201 C205 1.393 . S
C202 H194 0.950 . S
C202 C200 1.391 . S
C202 C203 1.400 . S
C203 C202 1.400 . S
C203 C204 1.398 . S
C203 C209 1.491 . S
C204 H195 0.950 . S
C204 C203 1.398 . S
C204 C205 1.391 . S
C205 H193 0.950 . S
C205 C201 1.393 . S
C205 C204 1.391 . S
C206 H196 0.950 . S
C206 C207 1.386 . S
C206 C208 1.391 . S
C207 C206 1.386 . S
C207 C211 1.393 . S
C208 H197 0.950 . S
C208 C206 1.391 . S
C208 C209 1.400 . S
C209 C203 1.491 . S
C209 C208 1.400 . S
C209 C210 1.398 . S
C210 H198 0.950 . S
C210 C209 1.398 . S
C210 C211 1.391 . S
C211 H199 0.950 . S
C211 C207 1.393 . S
C211 C210 1.391 . S
H212 C220 0.950 . S
H213 C225 0.950 . S
H214 C222 0.950 . S
H215 C224 0.950 . S
H216 C226 0.950 . S
H217 C228 0.950 . S
H218 C230 0.950 . S
H219 C231 0.950 . S
C220 H212 0.950 . S
C220 C221 1.386 . S
C220 C222 1.391 . S
C221 C220 1.386 . S
C221 C225 1.393 . S
C222 H214 0.950 . S
C222 C220 1.391 . S
C222 C223 1.400 . S
C223 C222 1.400 . S
C223 C224 1.398 . S
C223 C229 1.491 . S
C224 H215 0.950 . S
C224 C223 1.398 . S
C224 C225 1.391 . S
C225 H213 0.950 . S
C225 C221 1.393 . S
C225 C224 1.391 . S
C226 H216 0.950 . S
C226 C227 1.386 . S
C226 C228 1.391 . S
C227 C226 1.386 . S
C227 C231 1.393 . S
C228 H217 0.950 . S
C228 C226 1.391 . S
C228 C229 1.400 . S
C229 C223 1.491 . S
C229 C228 1.400 . S
C229 C230 1.398 . S
C230 H218 0.950 . S
C230 C229 1.398 . S
C230 C231 1.391 . S
C231 H219 0.950 . S
C231 C227 1.393 . S
C231 C230 1.391 . S
H232 C240 0.950 . S
H233 C245 0.950 . S
H234 C242 0.950 . S
H235 C244 0.950 . S
H236 C246 0.950 . S
H237 C248 0.950 . S
H238 C250 0.950 . S
H239 C251 0.950 . S
C240 H232 0.950 . S
C240 C241 1.386 . S
C240 C242 1.391 . S
C241 C240 1.386 . S
C241 C245 1.393 . S
C242 H234 0.950 . S
C242 C240 1.391 . S
C242 C243 1.400 . S
C243 C242 1.400 . S
C243 C244 1.398 . S
C243 C249 1.491 . S
C244 H235 0.950 . S
C244 C243 1.398 . S
C244 C245 1.391 . S
C245 H233 0.950 . S
C245 C241 1.393 . S
C245 C244 1.391 . S
C246 H236 0.950 . S
C246 C247 1.386 . S
C246 C248 1.391 . S
C247 C246 1.386 . S
C247 C251 1.393 . S
C248 H237 0.950 . S
C248 C246 1.391 . S
C248 C249 1.400 . S
C249 C243 1.491 . S
C249 C248 1.400 . S
C249 C250 1.398 . S
C250 H238 0.950 . S
C250 C249 1.398 . S
C250 C251 1.391 . S
C251 H239 0.950 . S
C251 C247 1.393 . S
C251 C250 1.391 . S
H252 C260 0.950 . S
H253 C265 0.950 . S
H254 C262 0.950 . S
H255 C264 0.950 . S
H256 C266 0.950 . S
H257 C268 0.950 . S
H258 C270 0.950 . S
H259 C271 0.950 . S
C260 H252 0.950 . S
C260 C261 1.386 . S
C260 C262 1.391 . S
C261 C260 1.386 . S
C261 C265 1.393 . S
C262 H254 0.950 . S
C262 C260 1.391 . S
C262 C263 1.400 . S
C263 C262 1.400 . S
C263 C264 1.398 . S
C263 C269 1.491 . S
C264 H255 0.950 . S
C264 C263 1.398 . S
C264 C265 1.391 . S
C265 H253 0.950 . S
C265 C261 1.393 . S
C265 C264 1.391 . S
C266 H256 0.950 . S
C266 C267 1.386 . S
C266 C268 1.391 . S
C267 C266 1.386 . S
C267 C271 1.393 . S
C268 H257 0.950 . S
C268 C266 1.391 . S
C268 C269 1.400 . S
C269 C263 1.491 . S
C269 C268 1.400 . S
C269 C270 1.398 . S
C270 H258 0.950 . S
C270 C269 1.398 . S
C270 C271 1.391 . S
C271 H259 0.950 . S
C271 C267 1.393 . S
C271 C270 1.391 . S
H272 C280 0.950 . S
H273 C285 0.950 . S
H274 C282 0.950 . S
H275 C284 0.950 . S
H276 C286 0.950 . S
H277 C288 0.950 . S
H278 C290 0.950 . S
H279 C291 0.950 . S
C280 H272 0.950 . S
C280 C281 1.386 . S
C280 C282 1.391 . S
C281 C280 1.386 . S
C281 C285 1.393 . S
C282 H274 0.950 . S
C282 C280 1.391 . S
C282 C283 1.400 . S
C283 C282 1.400 . S
C283 C284 1.398 . S
C283 C289 1.491 . S
C284 H275 0.950 . S
C284 C283 1.398 . S
C284 C285 1.391 . S
C285 H273 0.950 . S
C285 C281 1.393 . S
C285 C284 1.391 . S
C286 H276 0.950 . S
C286 C287 1.386 . S
C286 C288 1.391 . S
C287 C286 1.386 . S
C287 C291 1.393 . S
C288 H277 0.950 . S
C288 C286 1.391 . S
C288 C289 1.400 . S
C289 C283 1.491 . S
C289 C288 1.400 . S
C289 C290 1.398 . S
C290 H278 0.950 . S
C290 C289 1.398 . S
C290 C291 1.391 . S
C291 H279 0.950 . S
C291 C287 1.393 . S
C291 C290 1.391 . S
H292 C300 0.950 . S
H293 C305 0.950 . S
H294 C302 0.950 . S
H295 C304 0.950 . S
H296 C306 0.950 . S
H297 C308 0.950 . S
H298 C310 0.950 . S
H299 C311 0.950 . S
C300 H292 0.950 . S
C300 C301 1.386 . S
C300 C302 1.391 . S
C301 C300 1.386 . S
C301 C305 1.393 . S
C302 H294 0.950 . S
C302 C300 1.391 . S
C302 C303 1.400 . S
C303 C302 1.400 . S
C303 C304 1.398 . S
C303 C309 1.491 . S
C304 H295 0.950 . S
C304 C303 1.398 . S
C304 C305 1.391 . S
C305 H293 0.950 . S
C305 C301 1.393 . S
C305 C304 1.391 . S
C306 H296 0.950 . S
C306 C307 1.386 . S
C306 C308 1.391 . S
C307 C306 1.386 . S
C307 C311 1.393 . S
C308 H297 0.950 . S
C308 C306 1.391 . S
C308 C309 1.400 . S
C309 C303 1.491 . S
C309 C308 1.400 . S
C309 C310 1.398 . S
C310 H298 0.950 . S
C310 C309 1.398 . S
C310 C311 1.391 . S
C311 H299 0.950 . S
C311 C307 1.393 . S
C311 C310 1.391 . S
H312 C320 0.950 . S
H313 C325 0.950 . S
H314 C322 0.950 . S
H315 C324 0.950 . S
H316 C326 0.950 . S
H317 C328 0.950 . S
H318 C330 0.950 . S
H319 C331 0.950 . S
C320 H312 0.950 . S
C320 C321 1.386 . S
C320 C322 1.391 . S
C321 C320 1.386 . S
C321 C325 1.393 . S
C322 H314 0.950 . S
C322 C320 1.391 . S
C322 C323 1.400 . S
C323 C322 1.400 . S
C323 C324 1.398 . S
C323 C329 1.491 . S
C324 H315 0.950 . S
C324 C323 1.398 . S
C324 C325 1.391 . S
C325 H313 0.950 . S
C325 C321 1.393 . S
C325 C324 1.391 . S
C326 H316 0.950 . S
C326 C327 1.386 . S
C326 C328 1.391 . S
C327 C326 1.386 . S
C327 C331 1.393 . S
C328 H317 0.950 . S
C328 C326 1.391 . S
C328 C329 1.400 . S
C329 C323 1.491 . S
C329 C328 1.400 . S
C329 C330 1.398 . S
C330 H318 0.950 . S
C330 C329 1.398 . S
C330 C331 1.391 . S
C331 H319 0.950 . S
C331 C327 1.393 . S
C331 C330 1.391 . S
C141 C21 1.492 . S
C147 C54 1.491 1_545 S
C161 C120 1.492 . S
C167 C87 1.492 . S
C181 C18 1.528 . S
C187 N112 1.496 . S
C201 N2 1.384 . S
C207 C106 1.434 . S
C221 N101 1.371 . S
C227 C7 1.441 . S
C241 N13 1.495 . S
C247 C117 1.535 . S
C261 N68 1.390 . S
C267 C40 1.434 . S
C281 N35 1.389 . S
C287 C73 1.429 . S
C301 C51 1.536 . S
C307 N79 1.482 . S
C321 C84 1.529 . S
C327 N46 1.490 . S
